# Generated by pormake.
# Topology wbl, (4,4)-cn, num edge types: 1
# Building blocks:
#     Node 0, Type 0, BuildingBlock: NAWXER_clean_linker_0, # of connection points: 4
#     Node 1, Type 0, BuildingBlock: NAWXER_clean_linker_0, # of connection points: 4
#     Node 2, Type 0, BuildingBlock: NAWXER_clean_linker_0, # of connection points: 4
#     Node 3, Type 0, BuildingBlock: NAWXER_clean_linker_0, # of connection points: 4
#     Node 4, Type 0, BuildingBlock: NAWXER_clean_linker_0, # of connection points: 4
#     Node 5, Type 0, BuildingBlock: NAWXER_clean_linker_0, # of connection points: 4
#     Node 6, Type 0, BuildingBlock: NAWXER_clean_linker_0, # of connection points: 4
#     Node 7, Type 0, BuildingBlock: NAWXER_clean_linker_0, # of connection points: 4
#     Node 8, Type 1, BuildingBlock: GALJAG_clean_sbu_0, # of connection points: 4
#     Node 9, Type 1, BuildingBlock: GALJAG_clean_sbu_0, # of connection points: 4
#     Node 10, Type 1, BuildingBlock: GALJAG_clean_sbu_0, # of connection points: 4
#     Node 11, Type 1, BuildingBlock: GALJAG_clean_sbu_0, # of connection points: 4
#     Node 12, Type 1, BuildingBlock: GALJAG_clean_sbu_0, # of connection points: 4
#     Node 13, Type 1, BuildingBlock: GALJAG_clean_sbu_0, # of connection points: 4
#     Node 14, Type 1, BuildingBlock: GALJAG_clean_sbu_0, # of connection points: 4
#     Node 15, Type 1, BuildingBlock: GALJAG_clean_sbu_0, # of connection points: 4
#     Edge 16, Type (0, 1), BuildingBlock: TEMPAE_clean_linker_10, # of connection points: 2
#     Edge 17, Type (0, 1), BuildingBlock: TEMPAE_clean_linker_10, # of connection points: 2
#     Edge 18, Type (0, 1), BuildingBlock: TEMPAE_clean_linker_10, # of connection points: 2
#     Edge 19, Type (0, 1), BuildingBlock: TEMPAE_clean_linker_10, # of connection points: 2
#     Edge 20, Type (0, 1), BuildingBlock: TEMPAE_clean_linker_10, # of connection points: 2
#     Edge 21, Type (0, 1), BuildingBlock: TEMPAE_clean_linker_10, # of connection points: 2
#     Edge 22, Type (0, 1), BuildingBlock: TEMPAE_clean_linker_10, # of connection points: 2
#     Edge 23, Type (0, 1), BuildingBlock: TEMPAE_clean_linker_10, # of connection points: 2
#     Edge 24, Type (0, 1), BuildingBlock: TEMPAE_clean_linker_10, # of connection points: 2
#     Edge 25, Type (0, 1), BuildingBlock: TEMPAE_clean_linker_10, # of connection points: 2
#     Edge 26, Type (0, 1), BuildingBlock: TEMPAE_clean_linker_10, # of connection points: 2
#     Edge 27, Type (0, 1), BuildingBlock: TEMPAE_clean_linker_10, # of connection points: 2
#     Edge 28, Type (0, 1), BuildingBlock: TEMPAE_clean_linker_10, # of connection points: 2
#     Edge 29, Type (0, 1), BuildingBlock: TEMPAE_clean_linker_10, # of connection points: 2
#     Edge 30, Type (0, 1), BuildingBlock: TEMPAE_clean_linker_10, # of connection points: 2
#     Edge 31, Type (0, 1), BuildingBlock: TEMPAE_clean_linker_10, # of connection points: 2
#     Edge 32, Type (0, 1), BuildingBlock: TEMPAE_clean_linker_10, # of connection points: 2
#     Edge 33, Type (0, 1), BuildingBlock: TEMPAE_clean_linker_10, # of connection points: 2
#     Edge 34, Type (0, 1), BuildingBlock: TEMPAE_clean_linker_10, # of connection points: 2
#     Edge 35, Type (0, 1), BuildingBlock: TEMPAE_clean_linker_10, # of connection points: 2
#     Edge 36, Type (0, 1), BuildingBlock: TEMPAE_clean_linker_10, # of connection points: 2
#     Edge 37, Type (0, 1), BuildingBlock: TEMPAE_clean_linker_10, # of connection points: 2
#     Edge 38, Type (0, 1), BuildingBlock: TEMPAE_clean_linker_10, # of connection points: 2
#     Edge 39, Type (0, 1), BuildingBlock: TEMPAE_clean_linker_10, # of connection points: 2
#     Edge 40, Type (0, 1), BuildingBlock: TEMPAE_clean_linker_10, # of connection points: 2
#     Edge 41, Type (0, 1), BuildingBlock: TEMPAE_clean_linker_10, # of connection points: 2
#     Edge 42, Type (0, 1), BuildingBlock: TEMPAE_clean_linker_10, # of connection points: 2
#     Edge 43, Type (0, 1), BuildingBlock: TEMPAE_clean_linker_10, # of connection points: 2
#     Edge 44, Type (0, 1), BuildingBlock: TEMPAE_clean_linker_10, # of connection points: 2
#     Edge 45, Type (0, 1), BuildingBlock: TEMPAE_clean_linker_10, # of connection points: 2
#     Edge 46, Type (0, 1), BuildingBlock: TEMPAE_clean_linker_10, # of connection points: 2
#     Edge 47, Type (0, 1), BuildingBlock: TEMPAE_clean_linker_10, # of connection points: 2
# Relax obj value: 0.140
# Max RMSD: 0.149
# Mean RMSD: 0.132
data_MOF--net-wbl--node1-GALJAG_clean_sbu_0--node2-NAWXER_clean_linker_0--edge1-TEMPAE_clean_linker_10
_symmetry_space_group_name_H-M    P1
_symmetry_Int_Tables_number       1
_symmetry_cell_setting            triclinic
loop_
_symmetry_equiv_pos_as_xyz
'x, y, z'
_cell_length_a     44.157954
_cell_length_b     44.284064
_cell_length_c     85.98264
_cell_angle_alpha  90.04142
_cell_angle_beta   90.047384
_cell_angle_gamma 90.022103
loop_
_atom_site_label
_atom_site_type_symbol
_atom_site_fract_x
_atom_site_fract_y
_atom_site_fract_z
_atom_type_partial_charge
C0 C 0.05915 0.91422 0.3751 0.0
C1 C 0.07585 0.92734 0.38729 0.0
C2 C 0.04292 0.93231 0.36472 0.0
C3 C 0.04347 0.96393 0.36614 0.0
C4 C 0.07646 0.959 0.38863 0.0
C5 C 0.06039 0.97705 0.37819 0.0
C6 C 0.02449 0.98335 0.35603 0.0
C7 C 0.09213 0.94172 0.32411 0.0
C8 C 0.07999 0.91999 0.31391 0.0
C9 C 0.07317 0.9608 0.33255 0.0
C10 C 0.04164 0.95867 0.33096 0.0
C11 C 0.04834 0.91819 0.31218 0.0
C12 C 0.02934 0.93756 0.32055 0.0
C13 C 0.02173 0.97922 0.3398 0.0
C14 C 0.94658 0.08569 0.32003 0.0
C15 C 0.92348 0.07151 0.31148 0.0
C16 C 0.96687 0.06848 0.32881 0.0
C17 C 0.96444 0.03686 0.32908 0.0
C18 C 0.92159 0.03983 0.31147 0.0
C19 C 0.94211 0.02264 0.32008 0.0
C20 C 0.9849 0.01848 0.33878 0.0
C21 C 0.92254 0.06615 0.3726 0.0
C22 C 0.9376 0.0851 0.38322 0.0
C23 C 0.93894 0.04658 0.36302 0.0
C24 C 0.9707 0.04579 0.36382 0.0
C25 C 0.96941 0.08464 0.38376 0.0
C26 C 0.98576 0.06504 0.37422 0.0
C27 C 0.98831 0.02324 0.35492 0.0
H28 H 0.05829 0.88993 0.3737 0.0
H29 H 0.02929 0.92146 0.35585 0.0
H30 H 0.08859 0.96986 0.39805 0.0
H31 H 0.06087 0.00135 0.37967 0.0
H32 H 0.11638 0.94439 0.32541 0.0
H33 H 0.08317 0.97751 0.3402 0.0
H34 H 0.03824 0.90164 0.30448 0.0
H35 H 0.00503 0.93577 0.31908 0.0
H36 H 0.94844 0.11008 0.32024 0.0
H37 H 0.98429 0.07984 0.33549 0.0
H38 H 0.90415 0.02839 0.30484 0.0
H39 H 0.94006 0.99825 0.32005 0.0
H40 H 0.89805 0.06606 0.3719 0.0
H41 H 0.92674 0.03142 0.35536 0.0
H42 H 0.98165 0.09858 0.392 0.0
H43 H 0.01024 0.06455 0.37514 0.0
N44 N 0.00791 0.00544 0.36291 0.0
N45 N 0.00176 0.99667 0.3318 0.0
C46 C 0.91944 0.44131 0.62624 0.0
C47 C 0.93093 0.42254 0.63802 0.0
C48 C 0.93914 0.45703 0.61642 0.0
C49 C 0.97062 0.45425 0.61827 0.0
C50 C 0.96245 0.4196 0.63972 0.0
C51 C 0.9821 0.43553 0.63002 0.0
C52 C 0.99173 0.47229 0.60872 0.0
C53 C 0.94949 0.40415 0.57719 0.0
C54 C 0.93456 0.41567 0.56399 0.0
C55 C 0.96791 0.42268 0.58628 0.0
C56 C 0.97099 0.4535 0.58279 0.0
C57 C 0.9383 0.44639 0.56028 0.0
C58 C 0.9563 0.46509 0.56959 0.0
C59 C 0.99071 0.47337 0.59231 0.0
C60 C 0.09788 0.55421 0.57717 0.0
C61 C 0.08494 0.56991 0.56464 0.0
C62 C 0.08028 0.53452 0.5861 0.0
C63 C 0.0492 0.53101 0.58297 0.0
C64 C 0.05425 0.56543 0.56109 0.0
C65 C 0.03655 0.54621 0.57019 0.0
C66 C 0.02974 0.51083 0.59242 0.0
C67 C 0.065 0.57791 0.62846 0.0
C68 C 0.08322 0.56438 0.63996 0.0
C69 C 0.04882 0.5601 0.61787 0.0
C70 C 0.05065 0.52848 0.61859 0.0
C71 C 0.08566 0.53271 0.64025 0.0
C72 C 0.06929 0.51498 0.62979 0.0
C73 C 0.03105 0.50921 0.60883 0.0
H74 H 0.89524 0.44397 0.6247 0.0
H75 H 0.9298 0.47182 0.60761 0.0
H76 H 0.97192 0.40565 0.64885 0.0
H77 H 0.00631 0.43334 0.63173 0.0
H78 H 0.94696 0.38075 0.58057 0.0
H79 H 0.97996 0.4127 0.59596 0.0
H80 H 0.9277 0.45596 0.55005 0.0
H81 H 0.95874 0.48866 0.56647 0.0
H82 H 0.12163 0.55703 0.57998 0.0
H83 H 0.09108 0.52201 0.59538 0.0
H84 H 0.04375 0.57743 0.55153 0.0
H85 H 0.01276 0.54364 0.56737 0.0
H86 H 0.0623 0.6022 0.62802 0.0
H87 H 0.03407 0.57095 0.6095 0.0
H88 H 0.09992 0.52154 0.64873 0.0
H89 H 0.07093 0.49061 0.63055 0.0
N90 N 0.01205 0.48997 0.61629 0.0
N91 N 0.00958 0.49282 0.58484 0.0
C92 C 0.55802 0.42517 0.87935 0.0
C93 C 0.57802 0.43681 0.89059 0.0
C94 C 0.54257 0.44461 0.8693 0.0
C95 C 0.54681 0.47598 0.87037 0.0
C96 C 0.5825 0.46817 0.89148 0.0
C97 C 0.56681 0.48759 0.88155 0.0
C98 C 0.5288 0.49694 0.86074 0.0
C99 C 0.59326 0.45066 0.82867 0.0
C100 C 0.58053 0.43596 0.8157 0.0
C101 C 0.57582 0.46981 0.83791 0.0
C102 C 0.54483 0.47381 0.83484 0.0
C103 C 0.54963 0.44053 0.81243 0.0
C104 C 0.532 0.4592 0.82192 0.0
C105 C 0.5262 0.49463 0.8444 0.0
C106 C 0.45067 0.60334 0.82772 0.0
C107 C 0.42899 0.58976 0.818 0.0
C108 C 0.47071 0.58553 0.83634 0.0
C109 C 0.4694 0.55389 0.83531 0.0
C110 C 0.4282 0.55813 0.81675 0.0
C111 C 0.44842 0.54038 0.82523 0.0
C112 C 0.48992 0.53462 0.84454 0.0
C113 C 0.42648 0.57604 0.88009 0.0
C114 C 0.44102 0.59231 0.892 0.0
C115 C 0.44336 0.559 0.8695 0.0
C116 C 0.47511 0.55828 0.87051 0.0
C117 C 0.47282 0.59214 0.89272 0.0
C118 C 0.48966 0.57519 0.88212 0.0
C119 C 0.49314 0.53736 0.86081 0.0
H120 H 0.55419 0.40107 0.87844 0.0
H121 H 0.52679 0.43521 0.86094 0.0
H122 H 0.59745 0.47776 0.90017 0.0
H123 H 0.57013 0.51174 0.88267 0.0
H124 H 0.61682 0.44749 0.83175 0.0
H125 H 0.58684 0.48179 0.84732 0.0
H126 H 0.53912 0.43013 0.80239 0.0
H127 H 0.50828 0.46231 0.81911 0.0
H128 H 0.4517 0.62768 0.82888 0.0
H129 H 0.48714 0.59642 0.84384 0.0
H130 H 0.41194 0.54714 0.80919 0.0
H131 H 0.44725 0.51602 0.82417 0.0
H132 H 0.40199 0.57537 0.87939 0.0
H133 H 0.43151 0.54541 0.86098 0.0
H134 H 0.48467 0.60471 0.90166 0.0
H135 H 0.51411 0.57478 0.88319 0.0
N136 N 0.51245 0.5184 0.86825 0.0
N137 N 0.50656 0.51339 0.83696 0.0
C138 C 0.44141 0.90971 0.06959 0.0
C139 C 0.42195 0.92359 0.0588 0.0
C140 C 0.4609 0.927 0.07872 0.0
C141 C 0.46109 0.95857 0.07741 0.0
C142 C 0.4225 0.9552 0.0573 0.0
C143 C 0.44213 0.97254 0.06646 0.0
C144 C 0.48159 0.97682 0.0872 0.0
C145 C 0.41206 0.93879 0.12028 0.0
C146 C 0.42404 0.91917 0.13156 0.0
C147 C 0.43132 0.95586 0.11084 0.0
C148 C 0.4629 0.9535 0.11249 0.0
C149 C 0.45565 0.91661 0.13302 0.0
C150 C 0.47486 0.93374 0.12365 0.0
C151 C 0.48361 0.97302 0.10347 0.0
C152 C 0.56457 0.07366 0.12407 0.0
C153 C 0.58116 0.05853 0.13566 0.0
C154 C 0.54662 0.05745 0.11359 0.0
C155 C 0.54516 0.0258 0.11441 0.0
C156 C 0.57996 0.02684 0.1363 0.0
C157 C 0.562 0.01067 0.12583 0.0
C158 C 0.52417 0.00848 0.10439 0.0
C159 C 0.59372 0.0487 0.07277 0.0
C160 C 0.58181 0.0708 0.06278 0.0
C161 C 0.57437 0.02947 0.08096 0.0
C162 C 0.54283 0.03209 0.0793 0.0
C163 C 0.55026 0.07282 0.06084 0.0
C164 C 0.53096 0.05347 0.06895 0.0
C165 C 0.52209 0.01238 0.08813 0.0
H166 H 0.4413 0.88544 0.07114 0.0
H167 H 0.47586 0.91566 0.08682 0.0
H168 H 0.40796 0.96646 0.04898 0.0
H169 H 0.44222 0.99687 0.06516 0.0
H170 H 0.3878 0.94122 0.1189 0.0
H171 H 0.42153 0.97146 0.10255 0.0
H172 H 0.46557 0.90212 0.1418 0.0
H173 H 0.49913 0.93179 0.12522 0.0
H174 H 0.56511 0.09806 0.12326 0.0
H175 H 0.53321 0.06973 0.10515 0.0
H176 H 0.59207 0.01456 0.14524 0.0
H177 H 0.56092 0.9863 0.1268 0.0
H178 H 0.61794 0.0467 0.07449 0.0
H179 H 0.58403 0.01263 0.08862 0.0
H180 H 0.54052 0.08938 0.05304 0.0
H181 H 0.5067 0.0556 0.06737 0.0
N182 N 0.50077 0.99651 0.08014 0.0
N183 N 0.50492 0.98887 0.11141 0.0
C184 C 0.04729 0.58547 0.87466 0.0
C185 C 0.06714 0.57282 0.86367 0.0
C186 C 0.03127 0.56689 0.88492 0.0
C187 C 0.03483 0.5354 0.88429 0.0
C188 C 0.0707 0.54131 0.86314 0.0
C189 C 0.05449 0.52278 0.87326 0.0
C190 C 0.01705 0.51526 0.89447 0.0
C191 C 0.08301 0.56377 0.92498 0.0
C192 C 0.07038 0.58012 0.93742 0.0
C193 C 0.06541 0.54366 0.91638 0.0
C194 C 0.03445 0.54016 0.91963 0.0
C195 C 0.03947 0.57624 0.94083 0.0
C196 C 0.02171 0.55644 0.93202 0.0
C197 C 0.01573 0.51831 0.91081 0.0
C198 C 0.94712 0.40649 0.92983 0.0
C199 C 0.92619 0.41897 0.94032 0.0
C200 C 0.9654 0.42528 0.92076 0.0
C201 C 0.96294 0.45682 0.92201 0.0
C202 C 0.92463 0.45052 0.94196 0.0
C203 C 0.94301 0.46926 0.93296 0.0
C204 C 0.981 0.47705 0.91201 0.0
C205 C 0.91541 0.43016 0.87956 0.0
C206 C 0.92874 0.4153 0.86681 0.0
C207 C 0.93277 0.44875 0.88923 0.0
C208 C 0.96399 0.45223 0.8866 0.0
C209 C 0.96004 0.4187 0.86432 0.0
C210 C 0.97741 0.43691 0.8741 0.0
C211 C 0.98233 0.47406 0.89566 0.0
H212 H 0.04415 0.6097 0.8753 0.0
H213 H 0.01579 0.57706 0.89316 0.0
H214 H 0.0855 0.53095 0.85463 0.0
H215 H 0.05731 0.49851 0.8725 0.0
H216 H 0.10663 0.56637 0.92188 0.0
H217 H 0.07621 0.53055 0.90732 0.0
H218 H 0.0291 0.58802 0.9505 0.0
H219 H 0.99799 0.55375 0.93493 0.0
H220 H 0.94875 0.38226 0.92832 0.0
H221 H 0.98118 0.4152 0.91263 0.0
H222 H 0.90901 0.4607 0.95013 0.0
H223 H 0.94106 0.49352 0.93425 0.0
H224 H 0.89143 0.42792 0.8819 0.0
H225 H 0.92153 0.46109 0.89844 0.0
H226 H 0.97103 0.40821 0.85444 0.0
H227 H 0.00135 0.43957 0.87169 0.0
N228 N 0.00045 0.4932 0.88758 0.0
N229 N 0.99758 0.49918 0.91894 0.0
C230 C 0.40448 0.54664 0.12529 0.0
C231 C 0.41744 0.56545 0.11395 0.0
C232 C 0.42289 0.53032 0.1355 0.0
C233 C 0.45458 0.53252 0.13451 0.0
C234 C 0.44913 0.56795 0.11315 0.0
C235 C 0.46751 0.55145 0.12326 0.0
C236 C 0.47435 0.51334 0.14426 0.0
C237 C 0.43471 0.58088 0.17661 0.0
C238 C 0.41349 0.56914 0.1872 0.0
C239 C 0.45307 0.56169 0.16791 0.0
C240 C 0.4507 0.53028 0.16958 0.0
C241 C 0.41146 0.53761 0.18903 0.0
C242 C 0.43009 0.51835 0.18036 0.0
C243 C 0.47073 0.51023 0.16049 0.0
C244 C 0.57891 0.43685 0.17921 0.0
C245 C 0.56543 0.41406 0.18821 0.0
C246 C 0.56098 0.45625 0.1703 0.0
C247 C 0.52932 0.45326 0.17034 0.0
C248 C 0.53372 0.4114 0.18839 0.0
C249 C 0.5158 0.43106 0.17964 0.0
C250 C 0.51017 0.47351 0.16091 0.0
C251 C 0.55535 0.41252 0.12527 0.0
C252 C 0.574 0.42805 0.11469 0.0
C253 C 0.53679 0.42843 0.13559 0.0
C254 C 0.53665 0.46013 0.13553 0.0
C255 C 0.57457 0.4598 0.11511 0.0
C256 C 0.55588 0.47564 0.12532 0.0
C257 C 0.51437 0.47734 0.14476 0.0
H258 H 0.38011 0.54434 0.12616 0.0
H259 H 0.41238 0.51534 0.14386 0.0
H260 H 0.45974 0.58196 0.10438 0.0
H261 H 0.4919 0.55324 0.1222 0.0
H262 H 0.43759 0.60502 0.17522 0.0
H263 H 0.4695 0.57145 0.16002 0.0
H264 H 0.39532 0.52783 0.19706 0.0
H265 H 0.42817 0.49415 0.18192 0.0
H266 H 0.60331 0.43929 0.17886 0.0
H267 H 0.57182 0.47362 0.1634 0.0
H268 H 0.52281 0.39418 0.19536 0.0
H269 H 0.49139 0.4286 0.17992 0.0
H270 H 0.55406 0.3881 0.12512 0.0
H271 H 0.52163 0.41599 0.14313 0.0
H272 H 0.58906 0.47246 0.10732 0.0
H273 H 0.55605 0.50011 0.12507 0.0
N274 N 0.49623 0.49703 0.13706 0.0
N275 N 0.48853 0.49016 0.16821 0.0
C276 C 0.44389 0.90988 0.38108 0.0
C277 C 0.42497 0.92201 0.36951 0.0
C278 C 0.46024 0.92893 0.39098 0.0
C279 C 0.4578 0.96044 0.38954 0.0
C280 C 0.42235 0.95355 0.36823 0.0
C281 C 0.43873 0.97255 0.37809 0.0
C282 C 0.47665 0.98095 0.39909 0.0
C283 C 0.41141 0.93832 0.43199 0.0
C284 C 0.42491 0.91629 0.44154 0.0
C285 C 0.42917 0.95845 0.42352 0.0
C286 C 0.46081 0.95721 0.42451 0.0
C287 C 0.45671 0.9154 0.44266 0.0
C288 C 0.4745 0.93591 0.43431 0.0
C289 C 0.4794 0.97838 0.41538 0.0
C290 C 0.55208 0.09046 0.43114 0.0
C291 C 0.57074 0.07845 0.44281 0.0
C292 C 0.53297 0.07158 0.42257 0.0
C293 C 0.53303 0.04021 0.42517 0.0
C294 C 0.56954 0.04739 0.44601 0.0
C295 C 0.55087 0.02843 0.43725 0.0
C296 C 0.51425 0.01954 0.41563 0.0
C297 C 0.57772 0.06338 0.38097 0.0
C298 C 0.56294 0.08055 0.36949 0.0
C299 C 0.56112 0.04479 0.39096 0.0
C300 C 0.52944 0.04324 0.38972 0.0
C301 C 0.5312 0.07918 0.36842 0.0
C302 C 0.51466 0.06058 0.37838 0.0
C303 C 0.51166 0.0219 0.39927 0.0
H304 H 0.44635 0.88567 0.38235 0.0
H305 H 0.47541 0.91901 0.39945 0.0
H306 H 0.40839 0.9636 0.35925 0.0
H307 H 0.43675 0.99678 0.37666 0.0
H308 H 0.38703 0.94036 0.43119 0.0
H309 H 0.41817 0.97518 0.41627 0.0
H310 H 0.46787 0.89867 0.44983 0.0
H311 H 0.49894 0.93476 0.43525 0.0
H312 H 0.55236 0.11443 0.42863 0.0
H313 H 0.5184 0.08151 0.41384 0.0
H314 H 0.58384 0.03763 0.45493 0.0
H315 H 0.55097 0.00442 0.43964 0.0
H316 H 0.60215 0.06403 0.38208 0.0
H317 H 0.57308 0.0311 0.3994 0.0
H318 H 0.5192 0.0917 0.35953 0.0
H319 H 0.49027 0.05945 0.3771 0.0
N320 N 0.4928 0.00266 0.39169 0.0
N321 N 0.49813 0.99767 0.42305 0.0
C322 C 0.08007 0.94773 0.62815 0.0
C323 C 0.06849 0.925 0.61834 0.0
C324 C 0.06096 0.96336 0.6383 0.0
C325 C 0.0299 0.95684 0.63867 0.0
C326 C 0.03739 0.91804 0.61915 0.0
C327 C 0.01824 0.93416 0.62903 0.0
C328 C 0.00923 0.97472 0.64846 0.0
C329 C 0.05733 0.91023 0.67938 0.0
C330 C 0.07467 0.92317 0.69139 0.0
C331 C 0.03698 0.92766 0.67087 0.0
C332 C 0.03418 0.95874 0.67375 0.0
C333 C 0.07142 0.95421 0.69449 0.0
C334 C 0.05131 0.9718 0.68576 0.0
C335 C 0.01243 0.97725 0.66474 0.0
C336 C 0.90217 0.04975 0.68251 0.0
C337 C 0.91538 0.072 0.69198 0.0
C338 C 0.92041 0.03002 0.67396 0.0
C339 C 0.9521 0.03224 0.67481 0.0
C340 C 0.94708 0.07352 0.69317 0.0
C341 C 0.96528 0.05362 0.68476 0.0
C342 C 0.97171 0.01262 0.66527 0.0
C343 C 0.92718 0.07615 0.63091 0.0
C344 C 0.91116 0.0619 0.6188 0.0
C345 C 0.94502 0.05925 0.64113 0.0
C346 C 0.94676 0.0277 0.63962 0.0
C347 C 0.91251 0.03026 0.61753 0.0
C348 C 0.93016 0.0134 0.62781 0.0
C349 C 0.96836 0.00977 0.64899 0.0
H350 H 0.1037 0.95416 0.6277 0.0
H351 H 0.07026 0.98113 0.64554 0.0
H352 H 0.02771 0.90024 0.61209 0.0
H353 H 0.99429 0.92881 0.62921 0.0
H354 H 0.05942 0.88651 0.6765 0.0
H355 H 0.02319 0.91663 0.66214 0.0
H356 H 0.08402 0.96482 0.70382 0.0
H357 H 0.04917 0.99564 0.68838 0.0
H358 H 0.87778 0.04816 0.68139 0.0
H359 H 0.9098 0.01327 0.66656 0.0
H360 H 0.95779 0.09026 0.70055 0.0
H361 H 0.98969 0.05548 0.68567 0.0
H362 H 0.92649 0.10045 0.63226 0.0
H363 H 0.95831 0.07101 0.64982 0.0
H364 H 0.90094 0.01857 0.60819 0.0
H365 H 0.93147 0.98914 0.62628 0.0
N366 N 0.98724 0.99085 0.64124 0.0
N367 N 0.99368 0.99633 0.67254 0.0
In368 In 0.28551 0.7041 0.00318 0.0
O369 O 0.29806 0.75348 0.99845 0.0
O370 O 0.28708 0.74116 0.02154 0.0
C371 C 0.22712 0.69635 0.99457 0.0
C372 C 0.30877 0.67125 0.02679 0.0
C373 C 0.31709 0.68265 0.97873 0.0
O374 O 0.24413 0.71568 0.98832 0.0
O375 O 0.23921 0.68179 0.0055 0.0
O376 O 0.29519 0.66846 0.98471 0.0
O377 O 0.32324 0.70752 0.9852 0.0
C378 C 0.2957 0.76165 0.01243 0.0
O379 O 0.32295 0.676 0.0143 0.0
O380 O 0.28272 0.68289 0.02735 0.0
In381 In 0.30555 0.79948 0.25079 0.0
O382 O 0.29509 0.75126 0.24271 0.0
O383 O 0.33989 0.7614 0.24999 0.0
C384 C 0.24884 0.81829 0.25733 0.0
C385 C 0.32408 0.82445 0.22382 0.0
C386 C 0.33207 0.81849 0.27733 0.0
O387 O 0.25727 0.79143 0.25963 0.0
O388 O 0.26865 0.83509 0.25131 0.0
O389 O 0.33482 0.83198 0.26451 0.0
O390 O 0.31608 0.79486 0.27683 0.0
C391 C 0.32187 0.74199 0.24457 0.0
O392 O 0.33848 0.82692 0.23641 0.0
O393 O 0.29985 0.80939 0.22475 0.0
In394 In 0.19935 0.80232 0.50452 0.0
O395 O 0.18474 0.84268 0.51907 0.0
O396 O 0.19492 0.80189 0.53099 0.0
C397 C 0.17017 0.82097 0.47858 0.0
C398 C 0.17886 0.7462 0.51032 0.0
C399 C 0.25779 0.81656 0.49886 0.0
O400 O 0.1631 0.82964 0.49205 0.0
O401 O 0.19163 0.80221 0.47814 0.0
O402 O 0.24713 0.79082 0.49575 0.0
O403 O 0.23935 0.83431 0.50525 0.0
C404 C 0.1861 0.82892 0.53189 0.0
O405 O 0.20669 0.75278 0.51098 0.0
O406 O 0.16179 0.76762 0.50624 0.0
In407 In 0.20394 0.70741 0.75299 0.0
O408 O 0.17833 0.66855 0.76442 0.0
O409 O 0.18386 0.70876 0.7775 0.0
C410 C 0.18024 0.68195 0.72725 0.0
C411 C 0.26149 0.69541 0.76185 0.0
C412 C 0.19575 0.76565 0.74478 0.0
O413 O 0.20812 0.68056 0.73048 0.0
O414 O 0.16433 0.69617 0.73702 0.0
O415 O 0.21442 0.74867 0.73795 0.0
O416 O 0.18216 0.75357 0.75605 0.0
C417 C 0.1735 0.68226 0.77701 0.0
O418 O 0.24642 0.71701 0.76742 0.0
O419 O 0.24795 0.68065 0.75143 0.0
In420 In 0.80554 0.19838 0.50003 0.0
O421 O 0.79678 0.24186 0.51363 0.0
O422 O 0.83267 0.24203 0.49731 0.0
C423 C 0.75004 0.17754 0.49235 0.0
C424 C 0.82339 0.16889 0.52598 0.0
C425 C 0.83626 0.18546 0.47387 0.0
O426 O 0.7561 0.20539 0.49252 0.0
O427 O 0.7716 0.16066 0.49636 0.0
O428 O 0.84579 0.17858 0.48727 0.0
O429 O 0.81146 0.19973 0.47367 0.0
C430 C 0.81834 0.25632 0.5076 0.0
O431 O 0.83513 0.16427 0.51283 0.0
O432 O 0.80244 0.18821 0.52603 0.0
In433 In 0.7917 0.29918 0.7509 0.0
O434 O 0.83009 0.32353 0.7387 0.0
O435 O 0.79012 0.31496 0.72558 0.0
C436 C 0.81831 0.32109 0.77675 0.0
C437 C 0.8049 0.24132 0.74353 0.0
C438 C 0.7342 0.31447 0.75825 0.0
O439 O 0.81759 0.33543 0.76407 0.0
O440 O 0.80557 0.29557 0.77642 0.0
O441 O 0.74736 0.29184 0.76398 0.0
O442 O 0.74954 0.32867 0.7483 0.0
C443 C 0.81653 0.32596 0.72584 0.0
O444 O 0.7824 0.25499 0.73789 0.0
O445 O 0.81998 0.25646 0.75321 0.0
In446 In 0.70418 0.29356 0.0018 0.0
O447 O 0.71522 0.25122 0.01592 0.0
O448 O 0.68059 0.2483 0.99886 0.0
C449 C 0.76234 0.30444 0.99385 0.0
C450 C 0.67907 0.31874 0.02722 0.0
C451 C 0.67604 0.32066 0.97761 0.0
O452 O 0.74965 0.317 0.00527 0.0
O453 O 0.74607 0.28544 0.98681 0.0
O454 O 0.68115 0.3339 0.99032 0.0
O455 O 0.68493 0.29364 0.97709 0.0
C456 C 0.69511 0.23521 0.00953 0.0
O457 O 0.66392 0.30376 0.01743 0.0
O458 O 0.70693 0.32116 0.02414 0.0
In459 In 0.69502 0.19504 0.25222 0.0
O460 O 0.6568 0.17098 0.26484 0.0
O461 O 0.6889 0.19482 0.27861 0.0
C462 C 0.67776 0.16413 0.22668 0.0
C463 C 0.75268 0.17947 0.25913 0.0
C464 C 0.6784 0.25192 0.24459 0.0
O465 O 0.67084 0.15601 0.24029 0.0
O466 O 0.69388 0.18764 0.22595 0.0
O467 O 0.70305 0.24043 0.24018 0.0
O468 O 0.66277 0.23519 0.25328 0.0
C469 C 0.66551 0.17843 0.27829 0.0
O470 O 0.74099 0.20387 0.2637 0.0
O471 O 0.73567 0.16352 0.25071 0.0
C472 C 0.12712 0.88885 0.31181 0.0
C473 C 0.10059 0.89998 0.3049 0.0
C474 C 0.14861 0.87291 0.30309 0.0
C475 C 0.14319 0.86738 0.28711 0.0
C476 C 0.11563 0.87686 0.28027 0.0
C477 C 0.09474 0.8933 0.28922 0.0
C478 C 0.1778 0.86332 0.31082 0.0
C479 C 0.10882 0.87084 0.26335 0.0
C480 C 0.21475 0.86151 0.26317 0.0
C481 C 0.21956 0.83023 0.26288 0.0
C482 C 0.18923 0.87381 0.27046 0.0
C483 C 0.16772 0.85432 0.2774 0.0
C484 C 0.17145 0.82264 0.27626 0.0
C485 C 0.19755 0.81093 0.26913 0.0
C486 C 0.18627 0.90774 0.27154 0.0
C487 C 0.14861 0.80117 0.2832 0.0
H488 H 0.13145 0.89318 0.32402 0.0
H489 H 0.07439 0.90189 0.28374 0.0
H490 H 0.1817 0.83883 0.30903 0.0
H491 H 0.19711 0.8755 0.30546 0.0
H492 H 0.17785 0.86802 0.32352 0.0
H493 H 0.08483 0.87576 0.26039 0.0
H494 H 0.12354 0.88519 0.25596 0.0
H495 H 0.11376 0.84696 0.26038 0.0
H496 H 0.23169 0.87654 0.25834 0.0
H497 H 0.2011 0.78672 0.26883 0.0
H498 H 0.18822 0.91487 0.28388 0.0
H499 H 0.16369 0.91504 0.26733 0.0
H500 H 0.20392 0.91968 0.2647 0.0
H501 H 0.15005 0.80207 0.29607 0.0
H502 H 0.15252 0.77749 0.27942 0.0
H503 H 0.12527 0.80788 0.27989 0.0
C504 C 0.10336 0.59096 0.53939 0.0
C505 C 0.10291 0.59204 0.55568 0.0
C506 C 0.11809 0.61347 0.53075 0.0
C507 C 0.13199 0.63792 0.53863 0.0
C508 C 0.13233 0.63858 0.5551 0.0
C509 C 0.118 0.61543 0.56344 0.0
C510 C 0.11786 0.61166 0.51322 0.0
C511 C 0.14645 0.66452 0.56392 0.0
C512 C 0.18601 0.6927 0.51898 0.0
C513 C 0.16668 0.71701 0.51576 0.0
C514 C 0.17483 0.66611 0.52579 0.0
C515 C 0.14376 0.66419 0.52974 0.0
C516 C 0.12403 0.68833 0.52606 0.0
C517 C 0.13569 0.71432 0.51898 0.0
C518 C 0.19638 0.64052 0.52922 0.0
C519 C 0.09082 0.68734 0.53027 0.0
H520 H 0.09187 0.57267 0.53343 0.0
H521 H 0.1174 0.61634 0.57604 0.0
H522 H 0.10324 0.62977 0.50843 0.0
H523 H 0.141 0.61526 0.50856 0.0
H524 H 0.10926 0.58956 0.50898 0.0
H525 H 0.1462 0.66081 0.5767 0.0
H526 H 0.17021 0.66794 0.56015 0.0
H527 H 0.13393 0.68565 0.56134 0.0
H528 H 0.20998 0.69468 0.51645 0.0
H529 H 0.12066 0.73309 0.51656 0.0
H530 H 0.18703 0.61889 0.5248 0.0
H531 H 0.19922 0.63813 0.54198 0.0
H532 H 0.21903 0.64423 0.52394 0.0
H533 H 0.08003 0.66695 0.52521 0.0
H534 H 0.07835 0.70758 0.52612 0.0
H535 H 0.08833 0.68586 0.54309 0.0
C536 C 0.37588 0.60092 0.81008 0.0
C537 C 0.40668 0.60834 0.80943 0.0
C538 C 0.35433 0.61779 0.80187 0.0
C539 C 0.36387 0.6425 0.79264 0.0
C540 C 0.39496 0.65024 0.79201 0.0
C541 C 0.41603 0.63314 0.80052 0.0
C542 C 0.32133 0.60904 0.80302 0.0
C543 C 0.40596 0.67621 0.78216 0.0
C544 C 0.30709 0.66224 0.76126 0.0
C545 C 0.2908 0.6856 0.76839 0.0
C546 C 0.33227 0.64925 0.76861 0.0
C547 C 0.34109 0.65968 0.78352 0.0
C548 C 0.32579 0.68445 0.79035 0.0
C549 C 0.30088 0.69724 0.78265 0.0
C550 C 0.34829 0.62318 0.76084 0.0
C551 C 0.33442 0.69611 0.80625 0.0
H552 H 0.36861 0.58198 0.81713 0.0
H553 H 0.43991 0.63875 0.79994 0.0
H554 H 0.30777 0.62855 0.80715 0.0
H555 H 0.3126 0.60269 0.79137 0.0
H556 H 0.31761 0.58979 0.81107 0.0
H557 H 0.43079 0.67973 0.7832 0.0
H558 H 0.40038 0.67192 0.76976 0.0
H559 H 0.39425 0.69735 0.78558 0.0
H560 H 0.29948 0.65332 0.75018 0.0
H561 H 0.28834 0.71531 0.78821 0.0
H562 H 0.3432 0.60199 0.76721 0.0
H563 H 0.37318 0.62651 0.76121 0.0
H564 H 0.34117 0.6203 0.74854 0.0
H565 H 0.32842 0.67901 0.81517 0.0
H566 H 0.32264 0.71755 0.80915 0.0
H567 H 0.35921 0.69986 0.807 0.0
C568 C 0.41116 0.87761 0.04294 0.0
C569 C 0.40097 0.90483 0.0494 0.0
C570 C 0.39104 0.85769 0.03565 0.0
C571 C 0.35996 0.8653 0.03466 0.0
C572 C 0.34979 0.89354 0.04032 0.0
C573 C 0.37045 0.91299 0.0477 0.0
C574 C 0.40285 0.82782 0.0297 0.0
C575 C 0.31691 0.90258 0.03927 0.0
C576 C 0.3168 0.81321 0.00762 0.0
C577 C 0.30662 0.79118 0.01809 0.0
C578 C 0.33229 0.83892 0.01293 0.0
C579 C 0.33807 0.84227 0.02904 0.0
C580 C 0.32604 0.82111 0.03971 0.0
C581 C 0.31024 0.79592 0.0341 0.0
C582 C 0.34415 0.86141 0.00125 0.0
C583 C 0.33185 0.82376 0.05697 0.0
H584 H 0.43487 0.87154 0.04393 0.0
H585 H 0.36245 0.93399 0.05271 0.0
H586 H 0.39268 0.8091 0.0365 0.0
H587 H 0.39622 0.82453 0.01737 0.0
H588 H 0.4279 0.82613 0.03058 0.0
H589 H 0.31348 0.92682 0.04209 0.0
H590 H 0.30791 0.8981 0.02744 0.0
H591 H 0.30341 0.88887 0.04755 0.0
H592 H 0.31381 0.80974 0.99523 0.0
H593 H 0.30232 0.77901 0.04225 0.0
H594 H 0.36895 0.85838 -9e-05 0.0
H595 H 0.34023 0.88486 0.00532 0.0
H596 H 0.33338 0.85851 0.98966 0.0
H597 H 0.35627 0.81997 0.05934 0.0
H598 H 0.31856 0.80709 0.0638 0.0
H599 H 0.32617 0.84676 0.06115 0.0
C600 C 0.11966 0.5921 0.95044 0.0
C601 C 0.08974 0.60041 0.947 0.0
C602 C 0.13878 0.61124 0.95889 0.0
C603 C 0.12755 0.63918 0.96443 0.0
C604 C 0.09716 0.64745 0.96145 0.0
C605 C 0.07866 0.62807 0.95263 0.0
C606 C 0.17115 0.60163 0.96174 0.0
C607 C 0.08431 0.67681 0.96744 0.0
C608 C 0.17799 0.66893 0.99642 0.0
C609 C 0.19756 0.68765 0.98797 0.0
C610 C 0.1531 0.65511 0.98919 0.0
C611 C 0.14823 0.65963 0.97308 0.0
C612 C 0.16655 0.68038 0.96482 0.0
C613 C 0.19088 0.69442 0.97243 0.0
C614 C 0.13353 0.63383 0.99851 0.0
C615 C 0.16233 0.68558 0.9476 0.0
H616 H 0.12823 0.57046 0.94654 0.0
H617 H 0.05566 0.63484 0.94995 0.0
H618 H 0.18694 0.61881 0.957 0.0
H619 H 0.17551 0.59997 0.97442 0.0
H620 H 0.17649 0.57949 0.95632 0.0
H621 H 0.05968 0.67895 0.96503 0.0
H622 H 0.08804 0.67866 0.98017 0.0
H623 H 0.09621 0.69609 0.96192 0.0
H624 H 0.18295 0.66393 0.0085 0.0
H625 H 0.20599 0.70889 0.96587 0.0
H626 H 0.13952 0.61017 0.99557 0.0
H627 H 0.10925 0.63705 0.99563 0.0
H628 H 0.13667 0.63703 0.01123 0.0
H629 H 0.16994 0.66525 0.94113 0.0
H630 H 0.17554 0.70531 0.94339 0.0
H631 H 0.1381 0.68918 0.94477 0.0
C632 C 0.38301 0.61651 0.18968 0.0
C633 C 0.3944 0.59008 0.1965 0.0
C634 C 0.36841 0.63855 0.19863 0.0
C635 C 0.36449 0.6338 0.21478 0.0
C636 C 0.37405 0.6063 0.22158 0.0
C637 C 0.38913 0.58482 0.21237 0.0
C638 C 0.35866 0.66763 0.19093 0.0
C639 C 0.36968 0.60018 0.23869 0.0
C640 C 0.36343 0.70628 0.23806 0.0
C641 C 0.33231 0.71212 0.23912 0.0
C642 C 0.37416 0.68009 0.23077 0.0
C643 C 0.35324 0.65897 0.22464 0.0
C644 C 0.32177 0.66376 0.22661 0.0
C645 C 0.31163 0.6905 0.23371 0.0
C646 C 0.40791 0.67601 0.22879 0.0
C647 C 0.29882 0.64137 0.22056 0.0
H648 H 0.38624 0.62038 0.17735 0.0
H649 H 0.39791 0.56452 0.21777 0.0
H650 H 0.33447 0.67226 0.19341 0.0
H651 H 0.37201 0.68673 0.19574 0.0
H652 H 0.36188 0.66709 0.17812 0.0
H653 H 0.37409 0.57617 0.24167 0.0
H654 H 0.38541 0.61452 0.24554 0.0
H655 H 0.3463 0.60606 0.24231 0.0
H656 H 0.37952 0.7229 0.24225 0.0
H657 H 0.28754 0.69485 0.23461 0.0
H658 H 0.41376 0.67727 0.21625 0.0
H659 H 0.41498 0.65345 0.23302 0.0
H660 H 0.42115 0.69349 0.23511 0.0
H661 H 0.29817 0.64236 0.20768 0.0
H662 H 0.2757 0.64608 0.22504 0.0
H663 H 0.3053 0.61803 0.22386 0.0
C664 C 0.37855 0.8841 0.44398 0.0
C665 C 0.40555 0.89503 0.45051 0.0
C666 C 0.3578 0.86764 0.45288 0.0
C667 C 0.36454 0.86115 0.46862 0.0
C668 C 0.39281 0.8699 0.47495 0.0
C669 C 0.41287 0.88708 0.46587 0.0
C670 C 0.3278 0.85891 0.4457 0.0
C671 C 0.40118 0.86259 0.49154 0.0
C672 C 0.2946 0.85776 0.49378 0.0
C673 C 0.28784 0.82684 0.49352 0.0
C674 C 0.32042 0.86903 0.48635 0.0
C675 C 0.34036 0.84879 0.47879 0.0
C676 C 0.33495 0.8173 0.47955 0.0
C677 C 0.30845 0.80667 0.48676 0.0
C678 C 0.32511 0.90281 0.48567 0.0
C679 C 0.35626 0.79498 0.47207 0.0
H680 H 0.37314 0.88924 0.43197 0.0
H681 H 0.43363 0.89537 0.47106 0.0
H682 H 0.3235 0.83444 0.4473 0.0
H683 H 0.30923 0.87129 0.45161 0.0
H684 H 0.3268 0.86411 0.43307 0.0
H685 H 0.42576 0.86582 0.49375 0.0
H686 H 0.38843 0.87756 0.49954 0.0
H687 H 0.39501 0.83895 0.49441 0.0
H688 H 0.27878 0.87346 0.49903 0.0
H689 H 0.30342 0.78271 0.48666 0.0
H690 H 0.32283 0.91064 0.47346 0.0
H691 H 0.34826 0.90876 0.48963 0.0
H692 H 0.30851 0.91531 0.49293 0.0
H693 H 0.35327 0.79555 0.45926 0.0
H694 H 0.35201 0.77155 0.47613 0.0
H695 H 0.38017 0.80101 0.47459 0.0
C696 C 0.12399 0.91478 0.7055 0.0
C697 C 0.09555 0.90399 0.70071 0.0
C698 C 0.14417 0.89617 0.71375 0.0
C699 C 0.13589 0.86595 0.717 0.0
C700 C 0.10708 0.85511 0.71241 0.0
C701 C 0.08718 0.87435 0.70453 0.0
C702 C 0.17446 0.90864 0.71876 0.0
C703 C 0.09739 0.82295 0.71558 0.0
C704 C 0.19137 0.80204 0.72285 0.0
C705 C 0.18658 0.7953 0.73857 0.0
C706 C 0.17665 0.82656 0.71583 0.0
C707 C 0.15725 0.84502 0.72486 0.0
C708 C 0.1548 0.84005 0.74107 0.0
C709 C 0.16923 0.81497 0.74772 0.0
C710 C 0.17961 0.83087 0.69848 0.0
C711 C 0.13503 0.85973 0.75118 0.0
H712 H 0.13077 0.93758 0.70253 0.0
H713 H 0.06497 0.86603 0.7013 0.0
H714 H 0.17812 0.90445 0.73134 0.0
H715 H 0.19286 0.89692 0.7124 0.0
H716 H 0.17639 0.93327 0.71653 0.0
H717 H 0.07441 0.81795 0.71098 0.0
H718 H 0.11368 0.807 0.71019 0.0
H719 H 0.09742 0.81859 0.72828 0.0
H720 H 0.20476 0.78684 0.71575 0.0
H721 H 0.16576 0.80995 0.75993 0.0
H722 H 0.18327 0.855 0.69561 0.0
H723 H 0.15827 0.82371 0.69272 0.0
H724 H 0.19854 0.81743 0.69353 0.0
H725 H 0.13818 0.88393 0.74825 0.0
H726 H 0.13992 0.85646 0.76374 0.0
H727 H 0.11089 0.85407 0.74909 0.0
C728 C 0.63014 0.42389 0.80293 0.0
C729 C 0.59967 0.41641 0.80557 0.0
C730 C 0.64909 0.40499 0.79424 0.0
C731 C 0.63714 0.37835 0.78752 0.0
C732 C 0.60617 0.37119 0.78953 0.0
C733 C 0.58788 0.39008 0.79871 0.0
C734 C 0.68213 0.41328 0.79254 0.0
C735 C 0.59248 0.34337 0.7822 0.0
C736 C 0.68886 0.34784 0.75616 0.0
C737 C 0.7055 0.32633 0.7645 0.0
C738 C 0.66466 0.36327 0.76314 0.0
C739 C 0.65769 0.35765 0.77894 0.0
C740 C 0.67332 0.33469 0.78711 0.0
C741 C 0.69681 0.319 0.7797 0.0
C742 C 0.64783 0.38688 0.75389 0.0
C743 C 0.66701 0.3284 0.80407 0.0
H744 H 0.63935 0.44458 0.80772 0.0
H745 H 0.56449 0.38384 0.80074 0.0
H746 H 0.69655 0.39483 0.79718 0.0
H747 H 0.68788 0.41609 0.78007 0.0
H748 H 0.68796 0.4345 0.79876 0.0
H749 H 0.56748 0.34259 0.78359 0.0
H750 H 0.59797 0.34256 0.76961 0.0
H751 H 0.60228 0.32284 0.78759 0.0
H752 H 0.69543 0.35336 0.74435 0.0
H753 H 0.70974 0.30246 0.78621 0.0
H754 H 0.65495 0.40971 0.75776 0.0
H755 H 0.62308 0.385 0.75587 0.0
H756 H 0.65236 0.38489 0.74122 0.0
H757 H 0.67453 0.34797 0.81117 0.0
H758 H 0.67898 0.3079 0.80828 0.0
H759 H 0.64239 0.32548 0.80607 0.0
C760 C 0.62799 0.08201 0.04684 0.0
C761 C 0.60209 0.09225 0.05466 0.0
C762 C 0.64689 0.10227 0.03885 0.0
C763 C 0.63974 0.13342 0.03884 0.0
C764 C 0.6139 0.14388 0.04697 0.0
C765 C 0.59536 0.12315 0.05473 0.0
C766 C 0.67413 0.09034 0.03023 0.0
C767 C 0.60566 0.17699 0.04737 0.0
C768 C 0.69583 0.19585 0.03026 0.0
C769 C 0.68583 0.20547 0.01561 0.0
C770 C 0.68235 0.17098 0.03763 0.0
C771 C 0.65856 0.15534 0.03006 0.0
C772 C 0.65018 0.16345 0.01473 0.0
C773 C 0.66384 0.18854 0.0077 0.0
C774 C 0.69194 0.163 0.05397 0.0
C775 C 0.62519 0.14707 0.00618 0.0
H776 H 0.63312 0.05807 0.0467 0.0
H777 H 0.57561 0.13116 0.06098 0.0
H778 H 0.67164 0.09496 0.01761 0.0
H779 H 0.69493 0.10211 0.0342 0.0
H780 H 0.67721 0.06565 0.03188 0.0
H781 H 0.5853 0.18148 0.05458 0.0
H782 H 0.62484 0.19038 0.05208 0.0
H783 H 0.60121 0.18519 0.03539 0.0
H784 H 0.71287 0.20885 0.03641 0.0
H785 H 0.65623 0.19576 0.99631 0.0
H786 H 0.69485 0.13824 0.05521 0.0
H787 H 0.67401 0.17006 0.06225 0.0
H788 H 0.71342 0.17433 0.05734 0.0
H789 H 0.62822 0.12228 0.00711 0.0
H790 H 0.62431 0.15334 0.99368 0.0
H791 H 0.60307 0.15274 0.01155 0.0
C792 C 0.86982 0.08386 0.30523 0.0
C793 C 0.90069 0.08967 0.30303 0.0
C794 C 0.84775 0.1008 0.29743 0.0
C795 C 0.85681 0.12383 0.287 0.0
C796 C 0.88799 0.1298 0.28471 0.0
C797 C 0.90962 0.11276 0.29288 0.0
C798 C 0.81471 0.09402 0.30037 0.0
C799 C 0.89846 0.15386 0.27352 0.0
C800 C 0.79573 0.14321 0.25777 0.0
C801 C 0.78228 0.16848 0.26473 0.0
C802 C 0.82133 0.12956 0.26438 0.0
C803 C 0.83338 0.1412 0.27842 0.0
C804 C 0.82085 0.16767 0.28504 0.0
C805 C 0.79553 0.18116 0.27804 0.0
C806 C 0.83441 0.1017 0.2568 0.0
C807 C 0.83288 0.18058 0.30009 0.0
H808 H 0.86293 0.06625 0.31324 0.0
H809 H 0.93354 0.11711 0.29112 0.0
H810 H 0.80293 0.1147 0.30443 0.0
H811 H 0.80362 0.08681 0.28939 0.0
H812 H 0.81149 0.07598 0.30919 0.0
H813 H 0.92353 0.15588 0.27317 0.0
H814 H 0.89016 0.1486 0.26164 0.0
H815 H 0.88878 0.17606 0.27684 0.0
H816 H 0.78565 0.13349 0.24741 0.0
H817 H 0.78512 0.20066 0.28347 0.0
H818 H 0.82937 0.08164 0.26408 0.0
H819 H 0.8594 0.10358 0.2559 0.0
H820 H 0.82493 0.0978 0.245 0.0
H821 H 0.82771 0.16484 0.30976 0.0
H822 H 0.82274 0.20292 0.30284 0.0
H823 H 0.85785 0.18307 0.29956 0.0
C824 C 0.8887 0.40601 0.54723 0.0
C825 C 0.91557 0.39548 0.55412 0.0
C826 C 0.87032 0.38675 0.53829 0.0
C827 C 0.87861 0.35609 0.53652 0.0
C828 C 0.9058 0.3454 0.54328 0.0
C829 C 0.92411 0.36529 0.55177 0.0
C830 C 0.84183 0.39907 0.53094 0.0
C831 C 0.91534 0.31275 0.54179 0.0
C832 C 0.82153 0.29403 0.529 0.0
C833 C 0.82908 0.28549 0.5138 0.0
C834 C 0.83633 0.31821 0.53631 0.0
C835 C 0.85867 0.3346 0.52805 0.0
C836 C 0.86447 0.32766 0.51226 0.0
C837 C 0.84988 0.30287 0.50537 0.0
C838 C 0.82982 0.32455 0.55324 0.0
C839 C 0.88746 0.34519 0.50293 0.0
H840 H 0.88167 0.42918 0.54905 0.0
H841 H 0.94519 0.35705 0.55663 0.0
H842 H 0.84128 0.39346 0.51836 0.0
H843 H 0.8217 0.38841 0.53635 0.0
H844 H 0.83994 0.42395 0.53229 0.0
H845 H 0.9369 0.30796 0.54798 0.0
H846 H 0.89745 0.29781 0.54658 0.0
H847 H 0.91824 0.30675 0.52935 0.0
H848 H 0.80552 0.28055 0.53557 0.0
H849 H 0.85557 0.29642 0.49356 0.0
H850 H 0.82602 0.34902 0.55515 0.0
H851 H 0.84971 0.31789 0.56036 0.0
H852 H 0.80971 0.31195 0.5575 0.0
H853 H 0.88457 0.36982 0.50478 0.0
H854 H 0.88571 0.34031 0.49028 0.0
H855 H 0.91061 0.33914 0.50686 0.0
C856 C 0.59463 0.09768 0.46725 0.0
C857 C 0.59289 0.0978 0.45098 0.0
C858 C 0.61764 0.11356 0.475 0.0
C859 C 0.63976 0.12919 0.46622 0.0
C860 C 0.63741 0.13023 0.4498 0.0
C861 C 0.61378 0.11472 0.44238 0.0
C862 C 0.61902 0.11251 0.49254 0.0
C863 C 0.66086 0.14616 0.44 0.0
C864 C 0.69565 0.18387 0.4847 0.0
C865 C 0.72096 0.1652 0.48675 0.0
C866 C 0.66856 0.17227 0.47851 0.0
C867 C 0.66715 0.14155 0.47399 0.0
C868 C 0.69257 0.12259 0.47625 0.0
C869 C 0.71904 0.13459 0.48275 0.0
C870 C 0.64165 0.19294 0.47658 0.0
C871 C 0.69217 0.08981 0.47134 0.0
H872 H 0.57826 0.08475 0.47387 0.0
H873 H 0.61252 0.11455 0.42979 0.0
H874 H 0.63849 0.09841 0.49624 0.0
H875 H 0.62263 0.1355 0.49735 0.0
H876 H 0.59805 0.1029 0.49767 0.0
H877 H 0.65452 0.14675 0.4275 0.0
H878 H 0.66416 0.16965 0.44414 0.0
H879 H 0.68293 0.13438 0.44114 0.0
H880 H 0.69707 0.20753 0.48785 0.0
H881 H 0.73861 0.1201 0.48425 0.0
H882 H 0.62132 0.18278 0.48207 0.0
H883 H 0.63652 0.19586 0.46404 0.0
H884 H 0.64564 0.21556 0.48179 0.0
H885 H 0.67349 0.0777 0.47728 0.0
H886 H 0.71379 0.07809 0.47403 0.0
H887 H 0.68796 0.08817 0.45864 0.0
C888 C 0.90312 0.1252 0.69894 0.0
C889 C 0.89629 0.09441 0.70015 0.0
C890 C 0.88547 0.14693 0.70654 0.0
C891 C 0.86057 0.13759 0.71573 0.0
C892 C 0.85348 0.1065 0.71697 0.0
C893 C 0.87135 0.08523 0.70905 0.0
C894 C 0.89356 0.1799 0.70476 0.0
C895 C 0.82733 0.09575 0.72681 0.0
C896 C 0.83868 0.19646 0.74554 0.0
C897 C 0.81524 0.21164 0.73782 0.0
C898 C 0.85233 0.17092 0.73894 0.0
C899 C 0.84252 0.16063 0.72418 0.0
C900 C 0.81764 0.17478 0.71678 0.0
C901 C 0.80413 0.20007 0.72376 0.0
C902 C 0.87848 0.15614 0.74731 0.0
C903 C 0.80665 0.16458 0.70099 0.0
H904 H 0.92214 0.13232 0.69187 0.0
H905 H 0.86618 0.06138 0.71004 0.0
H906 H 0.87385 0.19262 0.70015 0.0
H907 H 0.89928 0.18969 0.71627 0.0
H908 H 0.91309 0.1834 0.69682 0.0
H909 H 0.82449 0.07084 0.72633 0.0
H910 H 0.83098 0.10254 0.7391 0.0
H911 H 0.80599 0.10654 0.72289 0.0
H912 H 0.84717 0.20523 0.75649 0.0
H913 H 0.78602 0.21177 0.71775 0.0
H914 H 0.89988 0.16118 0.74108 0.0
H915 H 0.87568 0.13124 0.74744 0.0
H916 H 0.88071 0.16426 0.75949 0.0
H917 H 0.82393 0.17025 0.6921 0.0
H918 H 0.78497 0.17555 0.69767 0.0
H919 H 0.80351 0.13973 0.70076 0.0
C920 C 0.91539 0.37331 0.95668 0.0
C921 C 0.90503 0.39931 0.94904 0.0
C922 C 0.89525 0.35464 0.9649 0.0
C923 C 0.86409 0.36209 0.96531 0.0
C924 C 0.85355 0.38821 0.95751 0.0
C925 C 0.87417 0.40653 0.94952 0.0
C926 C 0.90728 0.32711 0.97319 0.0
C927 C 0.82043 0.39678 0.95753 0.0
C928 C 0.80152 0.30567 0.97299 0.0
C929 C 0.79197 0.31456 0.98785 0.0
C930 C 0.82638 0.31964 0.96584 0.0
C931 C 0.84212 0.34281 0.97382 0.0
C932 C 0.83405 0.35013 0.9893 0.0
C933 C 0.80893 0.33598 0.99611 0.0
C934 C 0.83427 0.31122 0.94931 0.0
C935 C 0.85055 0.37442 0.99826 0.0
H936 H 0.9393 0.36781 0.95639 0.0
H937 H 0.86604 0.42635 0.94341 0.0
H938 H 0.90211 0.32865 0.98579 0.0
H939 H 0.89593 0.30651 0.96872 0.0
H940 H 0.93213 0.32447 0.97174 0.0
H941 H 0.81594 0.41768 0.95077 0.0
H942 H 0.80671 0.37817 0.95251 0.0
H943 H 0.81255 0.40033 0.96965 0.0
H944 H 0.78851 0.28905 0.96657 0.0
H945 H 0.80176 0.34275 0.00766 0.0
H946 H 0.85906 0.30804 0.94803 0.0
H947 H 0.82751 0.32983 0.9414 0.0
H948 H 0.82261 0.29025 0.9455 0.0
H949 H 0.87541 0.37153 0.99719 0.0
H950 H 0.84442 0.37436 0.01079 0.0
H951 H 0.84475 0.39685 0.99335 0.0
C952 C 0.57945 0.36154 0.19569 0.0
C953 C 0.58436 0.39265 0.19715 0.0
C954 C 0.59705 0.3408 0.20403 0.0
C955 C 0.61982 0.35149 0.21427 0.0
C956 C 0.62489 0.38292 0.2158 0.0
C957 C 0.60721 0.40317 0.2071 0.0
C958 C 0.59126 0.30743 0.20189 0.0
C959 C 0.64864 0.39511 0.22677 0.0
C960 C 0.64093 0.29399 0.24498 0.0
C961 C 0.66668 0.2807 0.23837 0.0
C962 C 0.62652 0.31847 0.23774 0.0
C963 C 0.63789 0.32949 0.22344 0.0
C964 C 0.66485 0.31721 0.21717 0.0
C965 C 0.67908 0.29306 0.2248 0.0
C966 C 0.59817 0.33136 0.24495 0.0
C967 C 0.67752 0.32816 0.20187 0.0
H968 H 0.56201 0.35342 0.18784 0.0
H969 H 0.61085 0.42728 0.20829 0.0
H970 H 0.61236 0.29593 0.19817 0.0
H971 H 0.58427 0.29723 0.21311 0.0
H972 H 0.57333 0.30286 0.19312 0.0
H973 H 0.64996 0.42016 0.22648 0.0
H974 H 0.6435 0.38788 0.23883 0.0
H975 H 0.67118 0.38577 0.22374 0.0
H976 H 0.6314 0.2846 0.25554 0.0
H977 H 0.69895 0.28277 0.21963 0.0
H978 H 0.57824 0.32503 0.23779 0.0
H979 H 0.59929 0.35639 0.24524 0.0
H980 H 0.5945 0.32295 0.25698 0.0
H981 H 0.66197 0.32158 0.1923 0.0
H982 H 0.70024 0.31852 0.19942 0.0
H983 H 0.67921 0.35314 0.20179 0.0
C984 C 0.07694 0.88234 0.40501 0.0
C985 C 0.09126 0.90821 0.39911 0.0
C986 C 0.09002 0.86556 0.41712 0.0
C987 C 0.11794 0.87503 0.42358 0.0
C988 C 0.13302 0.90048 0.41732 0.0
C989 C 0.11957 0.91668 0.40512 0.0
C990 C 0.07335 0.83841 0.42341 0.0
C991 C 0.16283 0.9113 0.42391 0.0
C992 C 0.13433 0.85665 0.46581 0.0
C993 C 0.15557 0.83328 0.46447 0.0
C994 C 0.12166 0.87012 0.45258 0.0
C995 C 0.13025 0.85981 0.43763 0.0
C996 C 0.15112 0.8357 0.43619 0.0
C997 C 0.16365 0.82277 0.44966 0.0
C998 C 0.09958 0.89588 0.4546 0.0
C999 C 0.16056 0.82393 0.42045 0.0
H1000 H 0.05492 0.8758 0.40058 0.0
H1001 H 0.13104 0.9363 0.40044 0.0
H1002 H 0.08874 0.81866 0.42408 0.0
H1003 H 0.06537 0.84323 0.43539 0.0
H1004 H 0.05346 0.83228 0.41615 0.0
H1005 H 0.1725 0.93036 0.41714 0.0
H1006 H 0.15958 0.91881 0.43611 0.0
H1007 H 0.1795 0.89257 0.42408 0.0
H1008 H 0.12803 0.86488 0.47723 0.0
H1009 H 0.18004 0.80467 0.44858 0.0
H1010 H 0.0779 0.89055 0.44867 0.0
H1011 H 0.10881 0.9166 0.44912 0.0
H1012 H 0.09479 0.90077 0.46703 0.0
H1013 H 0.14029 0.8174 0.41358 0.0
H1014 H 0.17585 0.80409 0.42134 0.0
H1015 H 0.17238 0.84197 0.41388 0.0
C1016 C 0.099 0.57297 0.6676 0.0
C1017 C 0.09841 0.58296 0.65211 0.0
C1018 C 0.11298 0.59006 0.67929 0.0
C1019 C 0.12642 0.61811 0.67549 0.0
C1020 C 0.12579 0.62851 0.65993 0.0
C1021 C 0.11188 0.61075 0.6484 0.0
C1022 C 0.11322 0.57814 0.69575 0.0
C1023 C 0.13974 0.6584 0.65547 0.0
C1024 C 0.13657 0.67191 0.70949 0.0
C1025 C 0.16704 0.66721 0.71338 0.0
C1026 C 0.12333 0.6569 0.69681 0.0
C1027 C 0.14092 0.63647 0.68793 0.0
C1028 C 0.17188 0.63217 0.6916 0.0
C1029 C 0.18462 0.64771 0.70425 0.0
C1030 C 0.09031 0.6623 0.69317 0.0
C1031 C 0.1913 0.6104 0.68248 0.0
H1032 H 0.0881 0.55187 0.67066 0.0
H1033 H 0.11178 0.61853 0.63645 0.0
H1034 H 0.13686 0.57641 0.70004 0.0
H1035 H 0.10111 0.59404 0.70354 0.0
H1036 H 0.10238 0.55558 0.6967 0.0
H1037 H 0.13711 0.66339 0.64288 0.0
H1038 H 0.12908 0.67689 0.66225 0.0
H1039 H 0.16422 0.65842 0.65837 0.0
H1040 H 0.12294 0.68712 0.71646 0.0
H1041 H 0.20819 0.64402 0.70721 0.0
H1042 H 0.07725 0.64124 0.69513 0.0
H1043 H 0.08752 0.66851 0.68075 0.0
H1044 H 0.08039 0.68047 0.70048 0.0
H1045 H 0.18253 0.58709 0.68396 0.0
H1046 H 0.21536 0.61089 0.68626 0.0
H1047 H 0.19025 0.61575 0.66989 0.0
C1048 C 0.39751 0.62487 0.90044 0.0
C1049 C 0.4231 0.60767 0.90427 0.0
C1050 C 0.37981 0.63842 0.91208 0.0
C1051 C 0.38783 0.63446 0.92789 0.0
C1052 C 0.4138 0.61736 0.93181 0.0
C1053 C 0.43112 0.6042 0.91995 0.0
C1054 C 0.35238 0.6567 0.90747 0.0
C1055 C 0.42299 0.61246 0.94855 0.0
C1056 C 0.3581 0.68784 0.9589 0.0
C1057 C 0.33451 0.67081 0.96539 0.0
C1058 C 0.37526 0.67656 0.94646 0.0
C1059 C 0.36873 0.64752 0.94043 0.0
C1060 C 0.34468 0.6304 0.94682 0.0
C1061 C 0.32782 0.64228 0.95921 0.0
C1062 C 0.40068 0.6955 0.93992 0.0
C1063 C 0.33712 0.59929 0.94074 0.0
H1064 H 0.39138 0.62781 0.88832 0.0
H1065 H 0.45059 0.59052 0.923 0.0
H1066 H 0.33164 0.64625 0.91237 0.0
H1067 H 0.35407 0.67983 0.91236 0.0
H1068 H 0.34976 0.65837 0.89465 0.0
H1069 H 0.44424 0.59919 0.9496 0.0
H1070 H 0.42626 0.63451 0.95445 0.0
H1071 H 0.40472 0.60036 0.95483 0.0
H1072 H 0.36329 0.70996 0.96361 0.0
H1073 H 0.30957 0.62905 0.96417 0.0
H1074 H 0.39763 0.69847 0.9272 0.0
H1075 H 0.42262 0.6838 0.94169 0.0
H1076 H 0.40197 0.71815 0.94545 0.0
H1077 H 0.33247 0.60029 0.92807 0.0
H1078 H 0.31714 0.58929 0.94666 0.0
H1079 H 0.35677 0.58402 0.94242 0.0
C1080 C 0.3803 0.9184 0.15004 0.0
C1081 C 0.40395 0.903 0.14259 0.0
C1082 C 0.36389 0.90477 0.16211 0.0
C1083 C 0.37135 0.87506 0.16682 0.0
C1084 C 0.39392 0.85876 0.15869 0.0
C1085 C 0.40999 0.87295 0.14668 0.0
C1086 C 0.33997 0.9229 0.17048 0.0
C1087 C 0.40236 0.82695 0.16328 0.0
C1088 C 0.3617 0.8554 0.20937 0.0
C1089 C 0.33528 0.83786 0.20919 0.0
C1090 C 0.3734 0.86781 0.19567 0.0
C1091 C 0.35836 0.8625 0.18138 0.0
C1092 C 0.33151 0.84501 0.1811 0.0
C1093 C 0.32023 0.83289 0.19505 0.0
C1094 C 0.40206 0.88642 0.19648 0.0
C1095 C 0.31495 0.83889 0.16606 0.0
H1096 H 0.37567 0.9417 0.147 0.0
H1097 H 0.42794 0.86081 0.14078 0.0
H1098 H 0.31905 0.90935 0.172 0.0
H1099 H 0.34829 0.92897 0.18226 0.0
H1100 H 0.33419 0.94403 0.16419 0.0
H1101 H 0.41774 0.81619 0.15469 0.0
H1102 H 0.41389 0.82729 0.17475 0.0
H1103 H 0.38178 0.81277 0.1645 0.0
H1104 H 0.3734 0.85937 0.22027 0.0
H1105 H 0.29981 0.81931 0.19486 0.0
H1106 H 0.3979 0.90929 0.19167 0.0
H1107 H 0.41997 0.87577 0.18929 0.0
H1108 H 0.41067 0.88884 0.20856 0.0
H1109 H 0.3088 0.86049 0.16035 0.0
H1110 H 0.29401 0.82543 0.16787 0.0
H1111 H 0.32996 0.82646 0.15793 0.0
C1112 C 0.11416 0.58752 0.84939 0.0
C1113 C 0.08329 0.59213 0.85232 0.0
C1114 C 0.12921 0.60391 0.83778 0.0
C1115 C 0.11286 0.62515 0.82879 0.0
C1116 C 0.08188 0.63051 0.832 0.0
C1117 C 0.06748 0.614 0.8438 0.0
C1118 C 0.16237 0.59787 0.83484 0.0
C1119 C 0.06366 0.65281 0.82257 0.0
C1120 C 0.15694 0.68222 0.8048 0.0
C1121 C 0.15737 0.66819 0.79018 0.0
C1122 C 0.14243 0.66855 0.81751 0.0
C1123 C 0.12776 0.6404 0.81544 0.0
C1124 C 0.12775 0.62639 0.80064 0.0
C1125 C 0.14272 0.64039 0.7882 0.0
C1126 C 0.14315 0.68399 0.83316 0.0
C1127 C 0.1121 0.5965 0.79795 0.0
H1128 H 0.12649 0.57085 0.85611 0.0
H1129 H 0.04353 0.61739 0.84595 0.0
H1130 H 0.1653 0.58782 0.82312 0.0
H1131 H 0.17533 0.61933 0.83506 0.0
H1132 H 0.17227 0.58222 0.84357 0.0
H1133 H 0.04031 0.65567 0.82715 0.0
H1134 H 0.07502 0.67515 0.82248 0.0
H1135 H 0.06221 0.64498 0.81033 0.0
H1136 H 0.16834 0.70369 0.80638 0.0
H1137 H 0.1429 0.62953 0.7769 0.0
H1138 H 0.1546 0.66926 0.84178 0.0
H1139 H 0.11974 0.68784 0.8374 0.0
H1140 H 0.15516 0.70602 0.83277 0.0
H1141 H 0.12256 0.57885 0.80536 0.0
H1142 H 0.1134 0.58909 0.78562 0.0
H1143 H 0.08791 0.59817 0.80132 0.0
C1144 C 0.37535 0.56564 0.09446 0.0
C1145 C 0.39821 0.5813 0.10242 0.0
C1146 C 0.35872 0.57962 0.08256 0.0
C1147 C 0.36501 0.61002 0.07863 0.0
C1148 C 0.38733 0.62625 0.08702 0.0
C1149 C 0.40377 0.61164 0.09877 0.0
C1150 C 0.33527 0.56152 0.0738 0.0
C1151 C 0.3944 0.65882 0.0833 0.0
C1152 C 0.3491 0.63815 0.03779 0.0
C1153 C 0.32215 0.65432 0.03989 0.0
C1154 C 0.36286 0.62301 0.05024 0.0
C1155 C 0.34952 0.62442 0.0652 0.0
C1156 C 0.32206 0.64037 0.06735 0.0
C1157 C 0.30858 0.655 0.05462 0.0
C1158 C 0.39193 0.60589 0.04745 0.0
C1159 C 0.30733 0.64255 0.08315 0.0
H1160 H 0.37122 0.54209 0.09716 0.0
H1161 H 0.42121 0.62387 0.10503 0.0
H1162 H 0.31329 0.57364 0.07368 0.0
H1163 H 0.34248 0.55876 0.06152 0.0
H1164 H 0.33176 0.53877 0.07892 0.0
H1165 H 0.411 0.66877 0.09156 0.0
H1166 H 0.40381 0.66047 0.07137 0.0
H1167 H 0.37338 0.67252 0.08358 0.0
H1168 H 0.35956 0.63744 0.02639 0.0
H1169 H 0.28776 0.66755 0.05629 0.0
H1170 H 0.38949 0.58218 0.05141 0.0
H1171 H 0.41055 0.6162 0.05431 0.0
H1172 H 0.39858 0.60582 0.03499 0.0
H1173 H 0.30322 0.61964 0.08791 0.0
H1174 H 0.28546 0.65493 0.08276 0.0
H1175 H 0.32274 0.65435 0.09135 0.0
C1176 C 0.42526 0.87832 0.35101 0.0
C1177 C 0.40947 0.90209 0.35811 0.0
C1178 C 0.41217 0.86162 0.33886 0.0
C1179 C 0.38261 0.86892 0.33371 0.0
C1180 C 0.36598 0.89184 0.34138 0.0
C1181 C 0.37963 0.90817 0.35348 0.0
C1182 C 0.43062 0.83735 0.33097 0.0
C1183 C 0.33434 0.90017 0.33628 0.0
C1184 C 0.36374 0.8564 0.29121 0.0
C1185 C 0.34583 0.83029 0.29178 0.0
C1186 C 0.37608 0.86891 0.30477 0.0
C1187 C 0.37037 0.85498 0.31929 0.0
C1188 C 0.35265 0.82835 0.31994 0.0
C1189 C 0.34056 0.81628 0.30614 0.0
C1190 C 0.39493 0.8973 0.30357 0.0
C1191 C 0.34615 0.81291 0.33522 0.0
H1192 H 0.44842 0.87368 0.35443 0.0
H1193 H 0.36717 0.92621 0.35911 0.0
H1194 H 0.41714 0.81634 0.32973 0.0
H1195 H 0.43688 0.8449 0.3191 0.0
H1196 H 0.45172 0.83208 0.33747 0.0
H1197 H 0.3234 0.91634 0.3444 0.0
H1198 H 0.33518 0.91061 0.32456 0.0
H1199 H 0.31997 0.87968 0.33539 0.0
H1200 H 0.36793 0.86732 0.28014 0.0
H1201 H 0.3267 0.79609 0.30663 0.0
H1202 H 0.41769 0.89343 0.30865 0.0
H1203 H 0.38412 0.91575 0.31031 0.0
H1204 H 0.39774 0.90495 0.29135 0.0
H1205 H 0.36767 0.80729 0.34122 0.0
H1206 H 0.33278 0.79186 0.3337 0.0
H1207 H 0.3334 0.82841 0.34296 0.0
C1208 C 0.11887 0.90334 0.61024 0.0
C1209 C 0.08838 0.90955 0.60682 0.0
C1210 C 0.13799 0.89001 0.59914 0.0
C1211 C 0.12616 0.88202 0.58441 0.0
C1212 C 0.09532 0.88757 0.58099 0.0
C1213 C 0.07697 0.90163 0.59212 0.0
C1214 C 0.17092 0.88491 0.60308 0.0
C1215 C 0.0817 0.87897 0.56547 0.0
C1216 C 0.17335 0.87396 0.54794 0.0
C1217 C 0.17513 0.84252 0.54647 0.0
C1218 C 0.15925 0.8872 0.56086 0.0
C1219 C 0.14591 0.86848 0.5723 0.0
C1220 C 0.14881 0.8367 0.57119 0.0
C1221 C 0.16376 0.82409 0.55834 0.0
C1222 C 0.15733 0.92119 0.56185 0.0
C1223 C 0.13435 0.81597 0.58298 0.0
H1224 H 0.12788 0.90889 0.62161 0.0
H1225 H 0.05374 0.90691 0.58913 0.0
H1226 H 0.17661 0.86062 0.60193 0.0
H1227 H 0.18546 0.8974 0.59475 0.0
H1228 H 0.1766 0.89239 0.61506 0.0
H1229 H 0.05691 0.88311 0.56502 0.0
H1230 H 0.09262 0.89217 0.55606 0.0
H1231 H 0.08591 0.85473 0.56302 0.0
H1232 H 0.18237 0.88821 0.5388 0.0
H1233 H 0.16499 0.79974 0.55716 0.0
H1234 H 0.16376 0.92905 0.57365 0.0
H1235 H 0.13366 0.9285 0.55972 0.0
H1236 H 0.1722 0.93244 0.55319 0.0
H1237 H 0.14039 0.82299 0.59497 0.0
H1238 H 0.14122 0.79205 0.58131 0.0
H1239 H 0.10934 0.81743 0.58193 0.0
C1240 C 0.62397 0.41987 0.90518 0.0
C1241 C 0.59303 0.41661 0.90194 0.0
C1242 C 0.63793 0.40259 0.91682 0.0
C1243 C 0.6204 0.38186 0.92554 0.0
C1244 C 0.58932 0.3779 0.92203 0.0
C1245 C 0.57603 0.39524 0.9102 0.0
C1246 C 0.67123 0.40713 0.92008 0.0
C1247 C 0.56984 0.35623 0.93117 0.0
C1248 C 0.66076 0.32221 0.94962 0.0
C1249 C 0.66126 0.33584 0.96434 0.0
C1250 C 0.64751 0.3369 0.93684 0.0
C1251 C 0.63419 0.36568 0.93892 0.0
C1252 C 0.63428 0.37933 0.95382 0.0
C1253 C 0.64798 0.36432 0.96633 0.0
C1254 C 0.6481 0.32181 0.92109 0.0
C1255 C 0.62 0.40988 0.95654 0.0
H1256 H 0.63719 0.43619 0.89869 0.0
H1257 H 0.55203 0.39291 0.90781 0.0
H1258 H 0.67425 0.41682 0.93188 0.0
H1259 H 0.68323 0.38512 0.91986 0.0
H1260 H 0.68209 0.42248 0.91152 0.0
H1261 H 0.54651 0.35453 0.9264 0.0
H1262 H 0.58016 0.3334 0.93121 0.0
H1263 H 0.56842 0.36384 0.94345 0.0
H1264 H 0.67111 0.30023 0.94803 0.0
H1265 H 0.64823 0.37488 0.97771 0.0
H1266 H 0.66042 0.33627 0.91267 0.0
H1267 H 0.62469 0.319 0.91663 0.0
H1268 H 0.65918 0.2993 0.92145 0.0
H1269 H 0.63151 0.42716 0.94931 0.0
H1270 H 0.62128 0.41699 0.96891 0.0
H1271 H 0.59586 0.40941 0.95295 0.0
C1272 C 0.58487 0.10087 0.15484 0.0
C1273 C 0.59814 0.07569 0.14767 0.0
C1274 C 0.59946 0.11586 0.16711 0.0
C1275 C 0.62801 0.10543 0.17232 0.0
C1276 C 0.64196 0.08062 0.16482 0.0
C1277 C 0.62683 0.06601 0.15259 0.0
C1278 C 0.58381 0.14221 0.17484 0.0
C1279 C 0.67248 0.06899 0.17 0.0
C1280 C 0.67384 0.15867 0.1978 0.0
C1281 C 0.66666 0.14811 0.21272 0.0
C1282 C 0.66194 0.14461 0.18448 0.0
C1283 C 0.64239 0.11949 0.18618 0.0
C1284 C 0.63559 0.10838 0.20121 0.0
C1285 C 0.64783 0.12282 0.2143 0.0
C1286 C 0.66974 0.15702 0.16863 0.0
C1287 C 0.61482 0.08163 0.2035 0.0
H1288 H 0.56253 0.10822 0.15123 0.0
H1289 H 0.63733 0.04678 0.14695 0.0
H1290 H 0.57841 0.13639 0.18708 0.0
H1291 H 0.59903 0.16215 0.1751 0.0
H1292 H 0.56248 0.14859 0.16883 0.0
H1293 H 0.68106 0.05069 0.16235 0.0
H1294 H 0.68927 0.08764 0.17015 0.0
H1295 H 0.67083 0.06017 0.18205 0.0
H1296 H 0.68841 0.17821 0.19652 0.0
H1297 H 0.64223 0.11456 0.22581 0.0
H1298 H 0.64894 0.16556 0.16288 0.0
H1299 H 0.67906 0.13886 0.16115 0.0
H1300 H 0.68648 0.17571 0.16927 0.0
H1301 H 0.59195 0.08699 0.19891 0.0
H1302 H 0.61264 0.07517 0.21593 0.0
H1303 H 0.62338 0.06189 0.19688 0.0
C1304 C 0.89594 0.09079 0.40267 0.0
C1305 C 0.92033 0.10357 0.39458 0.0
C1306 C 0.88145 0.10663 0.41467 0.0
C1307 C 0.89155 0.13599 0.41864 0.0
C1308 C 0.91529 0.14954 0.41007 0.0
C1309 C 0.92947 0.13311 0.39816 0.0
C1310 C 0.85627 0.09135 0.42357 0.0
C1311 C 0.92647 0.18091 0.41388 0.0
C1312 C 0.83947 0.1815 0.44487 0.0
C1313 C 0.8519 0.17553 0.45956 0.0
C1314 C 0.85271 0.16964 0.43133 0.0
C1315 C 0.87887 0.15133 0.43257 0.0
C1316 C 0.89207 0.14612 0.44734 0.0
C1317 C 0.87845 0.15832 0.46065 0.0
C1318 C 0.83813 0.17582 0.41577 0.0
C1319 C 0.91999 0.12672 0.44916 0.0
H1320 H 0.88901 0.06784 0.4001 0.0
H1321 H 0.94807 0.14321 0.39179 0.0
H1322 H 0.86365 0.08726 0.43573 0.0
H1323 H 0.83603 0.10615 0.42405 0.0
H1324 H 0.84963 0.06941 0.41831 0.0
H1325 H 0.94309 0.18928 0.4052 0.0
H1326 H 0.90721 0.19694 0.41443 0.0
H1327 H 0.93744 0.18086 0.42549 0.0
H1328 H 0.81896 0.19483 0.44397 0.0
H1329 H 0.88819 0.15368 0.47197 0.0
H1330 H 0.82884 0.15452 0.41092 0.0
H1331 H 0.85522 0.18434 0.4074 0.0
H1332 H 0.81946 0.19255 0.41664 0.0
H1333 H 0.91488 0.10328 0.44541 0.0
H1334 H 0.92829 0.12612 0.46135 0.0
H1335 H 0.93845 0.13525 0.4416 0.0
C1336 C 0.91496 0.37686 0.65301 0.0
C1337 C 0.91034 0.40723 0.6491 0.0
C1338 C 0.89752 0.36289 0.66458 0.0
C1339 C 0.87519 0.37984 0.67254 0.0
C1340 C 0.8697 0.41022 0.66825 0.0
C1341 C 0.88728 0.42352 0.65651 0.0
C1342 C 0.90379 0.33034 0.6687 0.0
C1343 C 0.84628 0.4291 0.67655 0.0
C1344 C 0.81748 0.33831 0.69743 0.0
C1345 C 0.83082 0.34032 0.71219 0.0
C1346 C 0.83157 0.35115 0.68436 0.0
C1347 C 0.85945 0.36658 0.68619 0.0
C1348 C 0.87274 0.36904 0.70113 0.0
C1349 C 0.85834 0.35574 0.71393 0.0
C1350 C 0.8169 0.34788 0.66859 0.0
C1351 C 0.9023 0.38555 0.70359 0.0
H1352 H 0.93257 0.36414 0.64715 0.0
H1353 H 0.88385 0.44709 0.6536 0.0
H1354 H 0.91345 0.32907 0.6806 0.0
H1355 H 0.88243 0.31715 0.66871 0.0
H1356 H 0.91994 0.31958 0.66049 0.0
H1357 H 0.84307 0.4515 0.67099 0.0
H1358 H 0.82419 0.41718 0.6768 0.0
H1359 H 0.85338 0.43267 0.6888 0.0
H1360 H 0.79624 0.32632 0.69604 0.0
H1361 H 0.86868 0.35747 0.72533 0.0
H1362 H 0.8323 0.33551 0.66063 0.0
H1363 H 0.81288 0.37046 0.66341 0.0
H1364 H 0.795 0.33559 0.66916 0.0
H1365 H 0.92055 0.37444 0.69682 0.0
H1366 H 0.90916 0.38615 0.71602 0.0
H1367 H 0.90038 0.4091 0.6993 0.0
C1368 C 0.6059 0.08549 0.35071 0.0
C1369 C 0.58048 0.09825 0.35793 0.0
C1370 C 0.62079 0.10051 0.33857 0.0
C1371 C 0.61002 0.12899 0.33354 0.0
C1372 C 0.58517 0.14258 0.34122 0.0
C1373 C 0.57066 0.12702 0.35332 0.0
C1374 C 0.6472 0.08526 0.33065 0.0
C1375 C 0.5732 0.17303 0.33627 0.0
C1376 C 0.66162 0.17495 0.30727 0.0
C1377 C 0.65029 0.16751 0.29252 0.0
C1378 C 0.64836 0.1631 0.3208 0.0
C1379 C 0.62328 0.14335 0.31949 0.0
C1380 C 0.61137 0.13631 0.30463 0.0
C1381 C 0.62501 0.1485 0.29132 0.0
C1382 C 0.66158 0.17118 0.33646 0.0
C1383 C 0.58462 0.11534 0.30275 0.0
H1384 H 0.61339 0.06313 0.35409 0.0
H1385 H 0.55127 0.13715 0.35902 0.0
H1386 H 0.64093 0.07947 0.3185 0.0
H1387 H 0.66689 0.10078 0.3301 0.0
H1388 H 0.65423 0.06425 0.3367 0.0
H1389 H 0.55544 0.18162 0.34428 0.0
H1390 H 0.59187 0.18976 0.33576 0.0
H1391 H 0.5634 0.17132 0.32442 0.0
H1392 H 0.68116 0.18966 0.30825 0.0
H1393 H 0.61615 0.14271 0.27995 0.0
H1394 H 0.67074 0.1506 0.34211 0.0
H1395 H 0.64366 0.18028 0.34419 0.0
H1396 H 0.68004 0.18812 0.33554 0.0
H1397 H 0.59042 0.09265 0.30733 0.0
H1398 H 0.57753 0.11293 0.29041 0.0
H1399 H 0.56509 0.12382 0.30957 0.0
C1400 C 0.8675 0.06976 0.60051 0.0
C1401 C 0.89505 0.07991 0.60678 0.0
C1402 C 0.85383 0.08477 0.58797 0.0
C1403 C 0.86792 0.11069 0.58163 0.0
C1404 C 0.895 0.12183 0.58832 0.0
C1405 C 0.90831 0.10623 0.60076 0.0
C1406 C 0.82493 0.07223 0.58114 0.0
C1407 C 0.9106 0.14953 0.58194 0.0
C1408 C 0.85488 0.12981 0.53916 0.0
C1409 C 0.83386 0.15341 0.5402 0.0
C1410 C 0.86573 0.11539 0.55256 0.0
C1411 C 0.8555 0.12502 0.56736 0.0
C1412 C 0.83409 0.14869 0.56848 0.0
C1413 C 0.8234 0.16254 0.55486 0.0
C1414 C 0.88839 0.09005 0.55089 0.0
C1415 C 0.82288 0.15972 0.58407 0.0
H1416 H 0.85686 0.04972 0.60525 0.0
H1417 H 0.92979 0.11404 0.60536 0.0
H1418 H 0.8074 0.09012 0.58048 0.0
H1419 H 0.82919 0.06432 0.56909 0.0
H1420 H 0.81583 0.05305 0.58802 0.0
H1421 H 0.93006 0.15671 0.58927 0.0
H1422 H 0.91901 0.14481 0.57003 0.0
H1423 H 0.89437 0.16857 0.58108 0.0
H1424 H 0.86295 0.12262 0.52784 0.0
H1425 H 0.8072 0.18085 0.55571 0.0
H1426 H 0.87975 0.06938 0.55667 0.0
H1427 H 0.90992 0.0963 0.55673 0.0
H1428 H 0.8933 0.08465 0.53853 0.0
H1429 H 0.81288 0.14072 0.59073 0.0
H1430 H 0.80562 0.17783 0.58292 0.0
H1431 H 0.84216 0.16855 0.591 0.0
C1432 C 0.88132 0.40878 0.85103 0.0
C1433 C 0.90996 0.39804 0.85548 0.0
C1434 C 0.86473 0.39457 0.83918 0.0
C1435 C 0.87729 0.36936 0.8314 0.0
C1436 C 0.90562 0.3577 0.8362 0.0
C1437 C 0.92147 0.372 0.84828 0.0
C1438 C 0.83434 0.40737 0.83454 0.0
C1439 C 0.91986 0.33098 0.8281 0.0
C1440 C 0.82752 0.32064 0.80544 0.0
C1441 C 0.83324 0.33323 0.79078 0.0
C1442 C 0.84147 0.33232 0.81884 0.0
C1443 C 0.86198 0.35674 0.81744 0.0
C1444 C 0.868 0.36932 0.80262 0.0
C1445 C 0.85333 0.35758 0.78949 0.0
C1446 C 0.83409 0.31874 0.83448 0.0
C1447 C 0.89009 0.39509 0.80063 0.0
H1448 H 0.87231 0.42906 0.85634 0.0
H1449 H 0.94325 0.36313 0.85186 0.0
H1450 H 0.83604 0.41777 0.82284 0.0
H1451 H 0.81716 0.38913 0.83382 0.0
H1452 H 0.82625 0.4248 0.84285 0.0
H1453 H 0.94112 0.32354 0.83386 0.0
H1454 H 0.90384 0.31169 0.8278 0.0
H1455 H 0.92509 0.33702 0.81587 0.0
H1456 H 0.81185 0.3019 0.80646 0.0
H1457 H 0.8579 0.36725 0.77815 0.0
H1458 H 0.8248 0.33639 0.8423 0.0
H1459 H 0.85499 0.30996 0.84002 0.0
H1460 H 0.81739 0.30005 0.83359 0.0
H1461 H 0.88233 0.41501 0.80736 0.0
H1462 H 0.89273 0.40183 0.78826 0.0
H1463 H 0.91262 0.38856 0.80526 0.0
C1464 C 0.60601 0.38416 0.10606 0.0
C1465 C 0.59129 0.41141 0.10257 0.0
C1466 C 0.62139 0.36788 0.09447 0.0
C1467 C 0.62214 0.3792 0.07908 0.0
C1468 C 0.60763 0.40683 0.07554 0.0
C1469 C 0.59228 0.4225 0.08729 0.0
C1470 C 0.63655 0.33843 0.09865 0.0
C1471 C 0.60793 0.41967 0.05926 0.0
C1472 C 0.6818 0.35279 0.05037 0.0
C1473 C 0.66508 0.33291 0.04101 0.0
C1474 C 0.66831 0.3675 0.06306 0.0
C1475 C 0.63746 0.36197 0.06651 0.0
C1476 C 0.62073 0.34126 0.05736 0.0
C1477 C 0.63472 0.32706 0.04467 0.0
C1478 C 0.68681 0.38961 0.07249 0.0
C1479 C 0.58784 0.33461 0.06075 0.0
H1480 H 0.60559 0.3756 0.11786 0.0
H1481 H 0.58046 0.44319 0.08441 0.0
H1482 H 0.62651 0.31976 0.09174 0.0
H1483 H 0.66098 0.33943 0.0957 0.0
H1484 H 0.63424 0.33293 0.11119 0.0
H1485 H 0.59644 0.44195 0.05856 0.0
H1486 H 0.6316 0.42233 0.05517 0.0
H1487 H 0.59645 0.40386 0.05117 0.0
H1488 H 0.7053 0.35736 0.04758 0.0
H1489 H 0.62176 0.31156 0.03753 0.0
H1490 H 0.6858 0.38369 0.08501 0.0
H1491 H 0.6772 0.41263 0.07123 0.0
H1492 H 0.71092 0.39016 0.06881 0.0
H1493 H 0.58509 0.3276 0.07305 0.0
H1494 H 0.57858 0.31656 0.05313 0.0
H1495 H 0.57415 0.35535 0.05906 0.0
loop_
_geom_bond_atom_site_label_1
_geom_bond_atom_site_label_2
_geom_bond_distance
_geom_bond_site_symmetry_2
_ccdc_geom_bond_type
C0 C1 1.384 . S
C0 C2 1.384 . S
C0 H28 0.931 . S
C1 C0 1.384 . S
C1 C4 1.382 . S
C2 C0 1.384 . S
C2 C3 1.381 . S
C2 H29 0.930 . S
C3 C2 1.381 . S
C3 C5 1.381 . S
C3 C6 1.487 . S
C4 C1 1.382 . S
C4 C5 1.387 . S
C4 H30 0.930 . S
C5 C3 1.381 . S
C5 C4 1.387 . S
C5 H31 0.931 1_565 S
C6 C3 1.487 . S
C6 C13 1.399 . S
C6 N44 1.343 1_565 S
C7 C8 1.384 . S
C7 C9 1.384 . S
C7 H32 0.931 . S
C8 C7 1.384 . S
C8 C11 1.382 . S
C9 C7 1.384 . S
C9 C10 1.381 . S
C9 H33 0.930 . S
C10 C9 1.381 . S
C10 C12 1.381 . S
C10 C13 1.487 . S
C11 C8 1.382 . S
C11 C12 1.387 . S
C11 H34 0.930 . S
C12 C10 1.381 . S
C12 C11 1.387 . S
C12 H35 0.931 . S
C13 C6 1.399 . S
C13 C10 1.487 . S
C13 N45 1.331 1_455 S
C14 C15 1.384 . S
C14 C16 1.384 . S
C14 H36 0.931 . S
C15 C14 1.384 . S
C15 C18 1.382 . S
C16 C14 1.384 . S
C16 C17 1.381 . S
C16 H37 0.930 . S
C17 C16 1.381 . S
C17 C19 1.381 . S
C17 C20 1.487 . S
C18 C15 1.382 . S
C18 C19 1.387 . S
C18 H38 0.930 . S
C19 C17 1.381 . S
C19 C18 1.387 . S
C19 H39 0.931 1_545 S
C20 C17 1.487 . S
C20 C27 1.399 . S
C20 N45 1.354 1_545 S
C21 C22 1.384 . S
C21 C23 1.384 . S
C21 H40 0.931 . S
C22 C21 1.384 . S
C22 C25 1.382 . S
C23 C21 1.384 . S
C23 C24 1.381 . S
C23 H41 0.930 . S
C24 C23 1.381 . S
C24 C26 1.381 . S
C24 C27 1.487 . S
C25 C22 1.382 . S
C25 C26 1.387 . S
C25 H42 0.930 . S
C26 C24 1.381 . S
C26 C25 1.387 . S
C26 H43 0.931 . S
C27 C20 1.399 . S
C27 C24 1.487 . S
C27 N44 1.343 1_655 S
H28 C0 0.931 . S
H29 C2 0.930 . S
H30 C4 0.930 . S
H31 C5 0.931 1_545 S
H32 C7 0.931 . S
H33 C9 0.930 . S
H34 C11 0.930 . S
H35 C12 0.931 . S
H36 C14 0.931 . S
H37 C16 0.930 . S
H38 C18 0.930 . S
H39 C19 0.931 1_565 S
H40 C21 0.931 . S
H41 C23 0.930 . S
H42 C25 0.930 . S
H43 C26 0.931 . S
N44 C6 1.343 1_545 S
N44 C27 1.343 1_455 S
N45 C13 1.331 1_655 S
N45 C20 1.354 1_565 S
C46 C47 1.384 . S
C46 C48 1.384 . S
C46 H74 0.931 . S
C47 C46 1.384 . S
C47 C50 1.382 . S
C48 C46 1.384 . S
C48 C49 1.381 . S
C48 H75 0.930 . S
C49 C48 1.381 . S
C49 C51 1.381 . S
C49 C52 1.487 . S
C50 C47 1.382 . S
C50 C51 1.387 . S
C50 H76 0.930 . S
C51 C49 1.381 . S
C51 C50 1.387 . S
C51 H77 0.931 1_655 S
C52 C49 1.487 . S
C52 C59 1.399 . S
C52 N90 1.343 1_655 S
C53 C54 1.384 . S
C53 C55 1.384 . S
C53 H78 0.931 . S
C54 C53 1.384 . S
C54 C57 1.382 . S
C55 C53 1.384 . S
C55 C56 1.381 . S
C55 H79 0.930 . S
C56 C55 1.381 . S
C56 C58 1.381 . S
C56 C59 1.487 . S
C57 C54 1.382 . S
C57 C58 1.387 . S
C57 H80 0.930 . S
C58 C56 1.381 . S
C58 C57 1.387 . S
C58 H81 0.931 . S
C59 C52 1.399 . S
C59 C56 1.487 . S
C59 N91 1.343 . S
C60 C61 1.384 . S
C60 C62 1.384 . S
C60 H82 0.931 . S
C61 C60 1.384 . S
C61 C64 1.382 . S
C62 C60 1.384 . S
C62 C63 1.381 . S
C62 H83 0.930 . S
C63 C62 1.381 . S
C63 C65 1.381 . S
C63 C66 1.487 . S
C64 C61 1.382 . S
C64 C65 1.387 . S
C64 H84 0.930 . S
C65 C63 1.381 . S
C65 C64 1.387 . S
C65 H85 0.931 1_455 S
C66 C63 1.487 . S
C66 C73 1.399 . S
C66 N91 1.343 1_455 S
C67 C68 1.384 . S
C67 C69 1.384 . S
C67 H86 0.931 . S
C68 C67 1.384 . S
C68 C71 1.382 . S
C69 C67 1.384 . S
C69 C70 1.381 . S
C69 H87 0.930 . S
C70 C69 1.381 . S
C70 C72 1.381 . S
C70 C73 1.487 . S
C71 C68 1.382 . S
C71 C72 1.387 . S
C71 H88 0.930 . S
C72 C70 1.381 . S
C72 C71 1.387 . S
C72 H89 0.931 . S
C73 C66 1.399 . S
C73 C70 1.487 . S
C73 N90 1.343 . S
H74 C46 0.931 . S
H75 C48 0.930 . S
H76 C50 0.930 . S
H77 C51 0.931 1_455 S
H78 C53 0.931 . S
H79 C55 0.930 . S
H80 C57 0.930 . S
H81 C58 0.931 . S
H82 C60 0.931 . S
H83 C62 0.930 . S
H84 C64 0.930 . S
H85 C65 0.931 1_655 S
H86 C67 0.931 . S
H87 C69 0.930 . S
H88 C71 0.930 . S
H89 C72 0.931 . S
N90 C52 1.343 1_455 S
N90 C73 1.343 . S
N91 C59 1.343 . S
N91 C66 1.343 1_655 S
C92 C93 1.384 . S
C92 C94 1.384 . S
C92 H120 0.931 . S
C93 C92 1.384 . S
C93 C96 1.382 . S
C94 C92 1.384 . S
C94 C95 1.381 . S
C94 H121 0.930 . S
C95 C94 1.381 . S
C95 C97 1.381 . S
C95 C98 1.487 . S
C96 C93 1.382 . S
C96 C97 1.387 . S
C96 H122 0.930 . S
C97 C95 1.381 . S
C97 C96 1.387 . S
C97 H123 0.931 . S
C98 C95 1.487 . S
C98 C105 1.399 . S
C98 N136 1.343 . S
C99 C100 1.384 . S
C99 C101 1.384 . S
C99 H124 0.931 . S
C100 C99 1.384 . S
C100 C103 1.382 . S
C101 C99 1.384 . S
C101 C102 1.381 . S
C101 H125 0.930 . S
C102 C101 1.381 . S
C102 C104 1.381 . S
C102 C105 1.487 . S
C103 C100 1.382 . S
C103 C104 1.387 . S
C103 H126 0.930 . S
C104 C102 1.381 . S
C104 C103 1.387 . S
C104 H127 0.931 . S
C105 C98 1.399 . S
C105 C102 1.487 . S
C105 N137 1.343 . S
C106 C107 1.384 . S
C106 C108 1.384 . S
C106 H128 0.931 . S
C107 C106 1.384 . S
C107 C110 1.382 . S
C108 C106 1.384 . S
C108 C109 1.381 . S
C108 H129 0.930 . S
C109 C108 1.381 . S
C109 C111 1.381 . S
C109 C112 1.487 . S
C110 C107 1.382 . S
C110 C111 1.387 . S
C110 H130 0.930 . S
C111 C109 1.381 . S
C111 C110 1.387 . S
C111 H131 0.931 . S
C112 C109 1.487 . S
C112 C119 1.399 . S
C112 N137 1.343 . S
C113 C114 1.384 . S
C113 C115 1.384 . S
C113 H132 0.931 . S
C114 C113 1.384 . S
C114 C117 1.382 . S
C115 C113 1.384 . S
C115 C116 1.381 . S
C115 H133 0.930 . S
C116 C115 1.381 . S
C116 C118 1.381 . S
C116 C119 1.487 . S
C117 C114 1.382 . S
C117 C118 1.387 . S
C117 H134 0.930 . S
C118 C116 1.381 . S
C118 C117 1.387 . S
C118 H135 0.931 . S
C119 C112 1.399 . S
C119 C116 1.487 . S
C119 N136 1.343 . S
H120 C92 0.931 . S
H121 C94 0.930 . S
H122 C96 0.930 . S
H123 C97 0.931 . S
H124 C99 0.931 . S
H125 C101 0.930 . S
H126 C103 0.930 . S
H127 C104 0.931 . S
H128 C106 0.931 . S
H129 C108 0.930 . S
H130 C110 0.930 . S
H131 C111 0.931 . S
H132 C113 0.931 . S
H133 C115 0.930 . S
H134 C117 0.930 . S
H135 C118 0.931 . S
N136 C98 1.343 . S
N136 C119 1.343 . S
N137 C105 1.343 . S
N137 C112 1.343 . S
C138 C139 1.384 . S
C138 C140 1.384 . S
C138 H166 0.931 . S
C139 C138 1.384 . S
C139 C142 1.382 . S
C140 C138 1.384 . S
C140 C141 1.381 . S
C140 H167 0.930 . S
C141 C140 1.381 . S
C141 C143 1.381 . S
C141 C144 1.487 . S
C142 C139 1.382 . S
C142 C143 1.387 . S
C142 H168 0.930 . S
C143 C141 1.381 . S
C143 C142 1.387 . S
C143 H169 0.931 . S
C144 C141 1.487 . S
C144 C151 1.399 . S
C144 N182 1.343 1_565 S
C145 C146 1.384 . S
C145 C147 1.384 . S
C145 H170 0.931 . S
C146 C145 1.384 . S
C146 C149 1.382 . S
C147 C145 1.384 . S
C147 C148 1.381 . S
C147 H171 0.930 . S
C148 C147 1.381 . S
C148 C150 1.381 . S
C148 C151 1.487 . S
C149 C146 1.382 . S
C149 C150 1.387 . S
C149 H172 0.930 . S
C150 C148 1.381 . S
C150 C149 1.387 . S
C150 H173 0.931 . S
C151 C144 1.399 . S
C151 C148 1.487 . S
C151 N183 1.347 . S
C152 C153 1.384 . S
C152 C154 1.384 . S
C152 H174 0.931 . S
C153 C152 1.384 . S
C153 C156 1.382 . S
C154 C152 1.384 . S
C154 C155 1.381 . S
C154 H175 0.930 . S
C155 C154 1.381 . S
C155 C157 1.381 . S
C155 C158 1.487 . S
C156 C153 1.382 . S
C156 C157 1.387 . S
C156 H176 0.930 . S
C157 C155 1.381 . S
C157 C156 1.387 . S
C157 H177 0.931 . S
C158 C155 1.487 . S
C158 C165 1.399 . S
C158 N183 1.339 1_545 S
C159 C160 1.384 . S
C159 C161 1.384 . S
C159 H178 0.931 . S
C160 C159 1.384 . S
C160 C163 1.382 . S
C161 C159 1.384 . S
C161 C162 1.381 . S
C161 H179 0.930 . S
C162 C161 1.381 . S
C162 C164 1.381 . S
C162 C165 1.487 . S
C163 C160 1.382 . S
C163 C164 1.387 . S
C163 H180 0.930 . S
C164 C162 1.381 . S
C164 C163 1.387 . S
C164 H181 0.931 . S
C165 C158 1.399 . S
C165 C162 1.487 . S
C165 N182 1.343 . S
H166 C138 0.931 . S
H167 C140 0.930 . S
H168 C142 0.930 . S
H169 C143 0.931 . S
H170 C145 0.931 . S
H171 C147 0.930 . S
H172 C149 0.930 . S
H173 C150 0.931 . S
H174 C152 0.931 . S
H175 C154 0.930 . S
H176 C156 0.930 . S
H177 C157 0.931 . S
H178 C159 0.931 . S
H179 C161 0.930 . S
H180 C163 0.930 . S
H181 C164 0.931 . S
N182 C144 1.343 1_545 S
N182 C165 1.343 . S
N183 C151 1.347 . S
N183 C158 1.339 1_565 S
C184 C185 1.384 . S
C184 C186 1.384 . S
C184 H212 0.931 . S
C185 C184 1.384 . S
C185 C188 1.382 . S
C186 C184 1.384 . S
C186 C187 1.381 . S
C186 H213 0.930 . S
C187 C186 1.381 . S
C187 C189 1.381 . S
C187 C190 1.487 . S
C188 C185 1.382 . S
C188 C189 1.387 . S
C188 H214 0.930 . S
C189 C187 1.381 . S
C189 C188 1.387 . S
C189 H215 0.931 . S
C190 C187 1.487 . S
C190 C197 1.399 . S
C190 N228 1.343 . S
C191 C192 1.384 . S
C191 C193 1.384 . S
C191 H216 0.931 . S
C192 C191 1.384 . S
C192 C195 1.382 . S
C193 C191 1.384 . S
C193 C194 1.381 . S
C193 H217 0.930 . S
C194 C193 1.381 . S
C194 C196 1.381 . S
C194 C197 1.487 . S
C195 C192 1.382 . S
C195 C196 1.387 . S
C195 H218 0.930 . S
C196 C194 1.381 . S
C196 C195 1.387 . S
C196 H219 0.931 . S
C197 C190 1.399 . S
C197 C194 1.487 . S
C197 N229 1.343 1_455 S
C198 C199 1.384 . S
C198 C200 1.384 . S
C198 H220 0.931 . S
C199 C198 1.384 . S
C199 C202 1.382 . S
C200 C198 1.384 . S
C200 C201 1.381 . S
C200 H221 0.930 . S
C201 C200 1.381 . S
C201 C203 1.381 . S
C201 C204 1.487 . S
C202 C199 1.382 . S
C202 C203 1.387 . S
C202 H222 0.930 . S
C203 C201 1.381 . S
C203 C202 1.387 . S
C203 H223 0.931 . S
C204 C201 1.487 . S
C204 C211 1.399 . S
C204 N229 1.343 . S
C205 C206 1.384 . S
C205 C207 1.384 . S
C205 H224 0.931 . S
C206 C205 1.384 . S
C206 C209 1.382 . S
C207 C205 1.384 . S
C207 C208 1.381 . S
C207 H225 0.930 . S
C208 C207 1.381 . S
C208 C210 1.381 . S
C208 C211 1.487 . S
C209 C206 1.382 . S
C209 C210 1.387 . S
C209 H226 0.930 . S
C210 C208 1.381 . S
C210 C209 1.387 . S
C210 H227 0.931 . S
C211 C204 1.399 . S
C211 C208 1.487 . S
C211 N228 1.343 1_655 S
H212 C184 0.931 . S
H213 C186 0.930 . S
H214 C188 0.930 . S
H215 C189 0.931 . S
H216 C191 0.931 . S
H217 C193 0.930 . S
H218 C195 0.930 . S
H219 C196 0.931 . S
H220 C198 0.931 . S
H221 C200 0.930 . S
H222 C202 0.930 . S
H223 C203 0.931 . S
H224 C205 0.931 . S
H225 C207 0.930 . S
H226 C209 0.930 . S
H227 C210 0.931 . S
N228 C190 1.343 . S
N228 C211 1.343 1_455 S
N229 C197 1.343 1_655 S
N229 C204 1.343 . S
C230 C231 1.384 . S
C230 C232 1.384 . S
C230 H258 0.931 . S
C231 C230 1.384 . S
C231 C234 1.382 . S
C232 C230 1.384 . S
C232 C233 1.381 . S
C232 H259 0.930 . S
C233 C232 1.381 . S
C233 C235 1.381 . S
C233 C236 1.487 . S
C234 C231 1.382 . S
C234 C235 1.387 . S
C234 H260 0.930 . S
C235 C233 1.381 . S
C235 C234 1.387 . S
C235 H261 0.931 . S
C236 C233 1.487 . S
C236 C243 1.399 . S
C236 N274 1.343 . S
C237 C238 1.384 . S
C237 C239 1.384 . S
C237 H262 0.931 . S
C238 C237 1.384 . S
C238 C241 1.382 . S
C239 C237 1.384 . S
C239 C240 1.381 . S
C239 H263 0.930 . S
C240 C239 1.381 . S
C240 C242 1.381 . S
C240 C243 1.487 . S
C241 C238 1.382 . S
C241 C242 1.387 . S
C241 H264 0.930 . S
C242 C240 1.381 . S
C242 C241 1.387 . S
C242 H265 0.931 . S
C243 C236 1.399 . S
C243 C240 1.487 . S
C243 N275 1.343 . S
C244 C245 1.384 . S
C244 C246 1.384 . S
C244 H266 0.931 . S
C245 C244 1.384 . S
C245 C248 1.382 . S
C246 C244 1.384 . S
C246 C247 1.381 . S
C246 H267 0.930 . S
C247 C246 1.381 . S
C247 C249 1.381 . S
C247 C250 1.487 . S
C248 C245 1.382 . S
C248 C249 1.387 . S
C248 H268 0.930 . S
C249 C247 1.381 . S
C249 C248 1.387 . S
C249 H269 0.931 . S
C250 C247 1.487 . S
C250 C257 1.399 . S
C250 N275 1.343 . S
C251 C252 1.384 . S
C251 C253 1.384 . S
C251 H270 0.931 . S
C252 C251 1.384 . S
C252 C255 1.382 . S
C253 C251 1.384 . S
C253 C254 1.381 . S
C253 H271 0.930 . S
C254 C253 1.381 . S
C254 C256 1.381 . S
C254 C257 1.487 . S
C255 C252 1.382 . S
C255 C256 1.387 . S
C255 H272 0.930 . S
C256 C254 1.381 . S
C256 C255 1.387 . S
C256 H273 0.931 . S
C257 C250 1.399 . S
C257 C254 1.487 . S
C257 N274 1.343 . S
H258 C230 0.931 . S
H259 C232 0.930 . S
H260 C234 0.930 . S
H261 C235 0.931 . S
H262 C237 0.931 . S
H263 C239 0.930 . S
H264 C241 0.930 . S
H265 C242 0.931 . S
H266 C244 0.931 . S
H267 C246 0.930 . S
H268 C248 0.930 . S
H269 C249 0.931 . S
H270 C251 0.931 . S
H271 C253 0.930 . S
H272 C255 0.930 . S
H273 C256 0.931 . S
N274 C236 1.343 . S
N274 C257 1.343 . S
N275 C243 1.343 . S
N275 C250 1.343 . S
C276 C277 1.384 . S
C276 C278 1.384 . S
C276 H304 0.931 . S
C277 C276 1.384 . S
C277 C280 1.382 . S
C278 C276 1.384 . S
C278 C279 1.381 . S
C278 H305 0.930 . S
C279 C278 1.381 . S
C279 C281 1.381 . S
C279 C282 1.487 . S
C280 C277 1.382 . S
C280 C281 1.387 . S
C280 H306 0.930 . S
C281 C279 1.381 . S
C281 C280 1.387 . S
C281 H307 0.931 1_565 S
C282 C279 1.487 . S
C282 C289 1.399 . S
C282 N320 1.343 1_565 S
C283 C284 1.384 . S
C283 C285 1.384 . S
C283 H308 0.931 . S
C284 C283 1.384 . S
C284 C287 1.382 . S
C285 C283 1.384 . S
C285 C286 1.381 . S
C285 H309 0.930 . S
C286 C285 1.381 . S
C286 C288 1.381 . S
C286 C289 1.487 . S
C287 C284 1.382 . S
C287 C288 1.387 . S
C287 H310 0.930 . S
C288 C286 1.381 . S
C288 C287 1.387 . S
C288 H311 0.931 . S
C289 C282 1.399 . S
C289 C286 1.487 . S
C289 N321 1.343 . S
C290 C291 1.384 . S
C290 C292 1.384 . S
C290 H312 0.931 . S
C291 C290 1.384 . S
C291 C294 1.382 . S
C292 C290 1.384 . S
C292 C293 1.381 . S
C292 H313 0.930 . S
C293 C292 1.381 . S
C293 C295 1.381 . S
C293 C296 1.487 . S
C294 C291 1.382 . S
C294 C295 1.387 . S
C294 H314 0.930 . S
C295 C293 1.381 . S
C295 C294 1.387 . S
C295 H315 0.931 1_545 S
C296 C293 1.487 . S
C296 C303 1.399 . S
C296 N321 1.343 1_545 S
C297 C298 1.384 . S
C297 C299 1.384 . S
C297 H316 0.931 . S
C298 C297 1.384 . S
C298 C301 1.382 . S
C299 C297 1.384 . S
C299 C300 1.381 . S
C299 H317 0.930 . S
C300 C299 1.381 . S
C300 C302 1.381 . S
C300 C303 1.487 . S
C301 C298 1.382 . S
C301 C302 1.387 . S
C301 H318 0.930 . S
C302 C300 1.381 . S
C302 C301 1.387 . S
C302 H319 0.931 . S
C303 C296 1.399 . S
C303 C300 1.487 . S
C303 N320 1.343 . S
H304 C276 0.931 . S
H305 C278 0.930 . S
H306 C280 0.930 . S
H307 C281 0.931 1_545 S
H308 C283 0.931 . S
H309 C285 0.930 . S
H310 C287 0.930 . S
H311 C288 0.931 . S
H312 C290 0.931 . S
H313 C292 0.930 . S
H314 C294 0.930 . S
H315 C295 0.931 1_565 S
H316 C297 0.931 . S
H317 C299 0.930 . S
H318 C301 0.930 . S
H319 C302 0.931 . S
N320 C282 1.343 1_545 S
N320 C303 1.343 . S
N321 C289 1.343 . S
N321 C296 1.343 1_565 S
C322 C323 1.384 . S
C322 C324 1.384 . S
C322 H350 0.931 . S
C323 C322 1.384 . S
C323 C326 1.382 . S
C324 C322 1.384 . S
C324 C325 1.381 . S
C324 H351 0.930 . S
C325 C324 1.381 . S
C325 C327 1.381 . S
C325 C328 1.487 . S
C326 C323 1.382 . S
C326 C327 1.387 . S
C326 H352 0.930 . S
C327 C325 1.381 . S
C327 C326 1.387 . S
C327 H353 0.931 1_455 S
C328 C325 1.487 . S
C328 C335 1.399 . S
C328 N366 1.343 1_455 S
C329 C330 1.384 . S
C329 C331 1.384 . S
C329 H354 0.931 . S
C330 C329 1.384 . S
C330 C333 1.382 . S
C331 C329 1.384 . S
C331 C332 1.381 . S
C331 H355 0.930 . S
C332 C331 1.381 . S
C332 C334 1.381 . S
C332 C335 1.487 . S
C333 C330 1.382 . S
C333 C334 1.387 . S
C333 H356 0.930 . S
C334 C332 1.381 . S
C334 C333 1.387 . S
C334 H357 0.931 . S
C335 C328 1.399 . S
C335 C332 1.487 . S
C335 N367 1.343 1_565 S
C336 C337 1.384 . S
C336 C338 1.384 . S
C336 H358 0.931 . S
C337 C336 1.384 . S
C337 C340 1.382 . S
C338 C336 1.384 . S
C338 C339 1.381 . S
C338 H359 0.930 . S
C339 C338 1.381 . S
C339 C341 1.381 . S
C339 C342 1.487 . S
C340 C337 1.382 . S
C340 C341 1.387 . S
C340 H360 0.930 . S
C341 C339 1.381 . S
C341 C340 1.387 . S
C341 H361 0.931 1_655 S
C342 C339 1.487 . S
C342 C349 1.399 . S
C342 N367 1.343 1_655 S
C343 C344 1.384 . S
C343 C345 1.384 . S
C343 H362 0.931 . S
C344 C343 1.384 . S
C344 C347 1.382 . S
C345 C343 1.384 . S
C345 C346 1.381 . S
C345 H363 0.930 . S
C346 C345 1.381 . S
C346 C348 1.381 . S
C346 C349 1.487 . S
C347 C344 1.382 . S
C347 C348 1.387 . S
C347 H364 0.930 . S
C348 C346 1.381 . S
C348 C347 1.387 . S
C348 H365 0.931 . S
C349 C342 1.399 . S
C349 C346 1.487 . S
C349 N366 1.343 1_545 S
H350 C322 0.931 . S
H351 C324 0.930 . S
H352 C326 0.930 . S
H353 C327 0.931 1_655 S
H354 C329 0.931 . S
H355 C331 0.930 . S
H356 C333 0.930 . S
H357 C334 0.931 . S
H358 C336 0.931 . S
H359 C338 0.930 . S
H360 C340 0.930 . S
H361 C341 0.931 1_455 S
H362 C343 0.931 . S
H363 C345 0.930 . S
H364 C347 0.930 . S
H365 C348 0.931 . S
N366 C328 1.343 1_655 S
N366 C349 1.343 1_565 S
N367 C335 1.343 1_545 S
N367 C342 1.343 1_455 S
In368 O369 2.294 . S
In368 O370 2.326 . S
In368 O374 2.266 1_554 S
In368 O375 2.326 1_554 S
In368 O376 2.266 1_554 S
In368 O377 2.326 1_554 S
In368 O379 2.294 . S
In368 O380 2.326 . S
O369 In368 2.294 . S
O369 C378 1.240 . S
O370 In368 2.326 . S
O370 C378 1.252 . S
C371 O374 1.252 . S
C371 O375 1.260 . S
C372 O379 1.240 . S
C372 O380 1.252 . S
C373 O376 1.252 . S
C373 O377 1.260 . S
O374 In368 2.266 1_556 S
O374 C371 1.252 . S
O375 In368 2.326 1_556 S
O375 C371 1.260 . S
O376 In368 2.266 1_556 S
O376 C373 1.252 . S
O377 In368 2.326 1_556 S
O377 C373 1.260 . S
C378 O369 1.240 . S
C378 O370 1.252 . S
O379 In368 2.294 . S
O379 C372 1.240 . S
O380 In368 2.326 . S
O380 C372 1.252 . S
In381 O382 2.294 . S
In381 O383 2.326 . S
In381 O387 2.266 . S
In381 O388 2.326 . S
In381 O389 2.266 . S
In381 O390 2.326 . S
In381 O392 2.294 . S
In381 O393 2.326 . S
O382 In381 2.294 . S
O382 C391 1.240 . S
O383 In381 2.326 . S
O383 C391 1.252 . S
C384 O387 1.252 . S
C384 O388 1.260 . S
C385 O392 1.240 . S
C385 O393 1.252 . S
C386 O389 1.252 . S
C386 O390 1.260 . S
O387 In381 2.266 . S
O387 C384 1.252 . S
O388 In381 2.326 . S
O388 C384 1.260 . S
O389 In381 2.266 . S
O389 C386 1.252 . S
O390 In381 2.326 . S
O390 C386 1.260 . S
C391 O382 1.240 . S
C391 O383 1.252 . S
O392 In381 2.294 . S
O392 C385 1.240 . S
O393 In381 2.326 . S
O393 C385 1.252 . S
In394 O395 2.294 . S
In394 O396 2.326 . S
In394 O400 2.266 . S
In394 O401 2.326 . S
In394 O402 2.266 . S
In394 O403 2.326 . S
In394 O405 2.294 . S
In394 O406 2.326 . S
O395 In394 2.294 . S
O395 C404 1.240 . S
O396 In394 2.326 . S
O396 C404 1.252 . S
C397 O400 1.252 . S
C397 O401 1.260 . S
C398 O405 1.240 . S
C398 O406 1.252 . S
C399 O402 1.252 . S
C399 O403 1.260 . S
O400 In394 2.266 . S
O400 C397 1.252 . S
O401 In394 2.326 . S
O401 C397 1.260 . S
O402 In394 2.266 . S
O402 C399 1.252 . S
O403 In394 2.326 . S
O403 C399 1.260 . S
C404 O395 1.240 . S
C404 O396 1.252 . S
O405 In394 2.294 . S
O405 C398 1.240 . S
O406 In394 2.326 . S
O406 C398 1.252 . S
In407 O408 2.294 . S
In407 O409 2.326 . S
In407 O413 2.266 . S
In407 O414 2.326 . S
In407 O415 2.266 . S
In407 O416 2.326 . S
In407 O418 2.294 . S
In407 O419 2.326 . S
O408 In407 2.294 . S
O408 C417 1.240 . S
O409 In407 2.326 . S
O409 C417 1.252 . S
C410 O413 1.252 . S
C410 O414 1.260 . S
C411 O418 1.240 . S
C411 O419 1.252 . S
C412 O415 1.252 . S
C412 O416 1.260 . S
O413 In407 2.266 . S
O413 C410 1.252 . S
O414 In407 2.326 . S
O414 C410 1.260 . S
O415 In407 2.266 . S
O415 C412 1.252 . S
O416 In407 2.326 . S
O416 C412 1.260 . S
C417 O408 1.240 . S
C417 O409 1.252 . S
O418 In407 2.294 . S
O418 C411 1.240 . S
O419 In407 2.326 . S
O419 C411 1.252 . S
In420 O421 2.294 . S
In420 O422 2.326 . S
In420 O426 2.266 . S
In420 O427 2.326 . S
In420 O428 2.266 . S
In420 O429 2.326 . S
In420 O431 2.294 . S
In420 O432 2.326 . S
O421 In420 2.294 . S
O421 C430 1.240 . S
O422 In420 2.326 . S
O422 C430 1.252 . S
C423 O426 1.252 . S
C423 O427 1.260 . S
C424 O431 1.240 . S
C424 O432 1.252 . S
C425 O428 1.252 . S
C425 O429 1.260 . S
O426 In420 2.266 . S
O426 C423 1.252 . S
O427 In420 2.326 . S
O427 C423 1.260 . S
O428 In420 2.266 . S
O428 C425 1.252 . S
O429 In420 2.326 . S
O429 C425 1.260 . S
C430 O421 1.240 . S
C430 O422 1.252 . S
O431 In420 2.294 . S
O431 C424 1.240 . S
O432 In420 2.326 . S
O432 C424 1.252 . S
In433 O434 2.294 . S
In433 O435 2.326 . S
In433 O439 2.266 . S
In433 O440 2.326 . S
In433 O441 2.266 . S
In433 O442 2.326 . S
In433 O444 2.294 . S
In433 O445 2.326 . S
O434 In433 2.294 . S
O434 C443 1.240 . S
O435 In433 2.326 . S
O435 C443 1.252 . S
C436 O439 1.252 . S
C436 O440 1.260 . S
C437 O444 1.240 . S
C437 O445 1.252 . S
C438 O441 1.252 . S
C438 O442 1.260 . S
O439 In433 2.266 . S
O439 C436 1.252 . S
O440 In433 2.326 . S
O440 C436 1.260 . S
O441 In433 2.266 . S
O441 C438 1.252 . S
O442 In433 2.326 . S
O442 C438 1.260 . S
C443 O434 1.240 . S
C443 O435 1.252 . S
O444 In433 2.294 . S
O444 C437 1.240 . S
O445 In433 2.326 . S
O445 C437 1.252 . S
In446 O447 2.294 . S
In446 O448 2.326 . S
In446 O452 2.266 1_554 S
In446 O453 2.326 1_554 S
In446 O454 2.266 1_554 S
In446 O455 2.326 1_554 S
In446 O457 2.294 . S
In446 O458 2.326 . S
O447 In446 2.294 . S
O447 C456 1.240 . S
O448 In446 2.326 . S
O448 C456 1.252 . S
C449 O452 1.252 . S
C449 O453 1.260 . S
C450 O457 1.240 . S
C450 O458 1.252 . S
C451 O454 1.252 . S
C451 O455 1.260 . S
O452 In446 2.266 1_556 S
O452 C449 1.252 . S
O453 In446 2.326 1_556 S
O453 C449 1.260 . S
O454 In446 2.266 1_556 S
O454 C451 1.252 . S
O455 In446 2.326 1_556 S
O455 C451 1.260 . S
C456 O447 1.240 . S
C456 O448 1.252 . S
O457 In446 2.294 . S
O457 C450 1.240 . S
O458 In446 2.326 . S
O458 C450 1.252 . S
In459 O460 2.294 . S
In459 O461 2.326 . S
In459 O465 2.266 . S
In459 O466 2.326 . S
In459 O467 2.266 . S
In459 O468 2.326 . S
In459 O470 2.294 . S
In459 O471 2.326 . S
O460 In459 2.294 . S
O460 C469 1.240 . S
O461 In459 2.326 . S
O461 C469 1.252 . S
C462 O465 1.252 . S
C462 O466 1.260 . S
C463 O470 1.240 . S
C463 O471 1.252 . S
C464 O467 1.252 . S
C464 O468 1.260 . S
O465 In459 2.266 . S
O465 C462 1.252 . S
O466 In459 2.326 . S
O466 C462 1.260 . S
O467 In459 2.266 . S
O467 C464 1.252 . S
O468 In459 2.326 . S
O468 C464 1.260 . S
C469 O460 1.240 . S
C469 O461 1.252 . S
O470 In459 2.294 . S
O470 C463 1.240 . S
O471 In459 2.326 . S
O471 C463 1.252 . S
C472 C473 1.391 . S
C472 C474 1.394 . S
C472 H488 0.931 . S
C473 C472 1.391 . S
C473 C477 1.376 . S
C474 C472 1.394 . S
C474 C475 1.369 . S
C474 C478 1.531 . S
C475 C474 1.369 . S
C475 C476 1.410 . S
C475 C483 1.503 . S
C476 C475 1.410 . S
C476 C477 1.392 . S
C476 C479 1.511 . S
C477 C473 1.376 . S
C477 C476 1.392 . S
C477 H489 0.929 . S
C478 C474 1.531 . S
C478 H490 0.960 . S
C478 H491 0.962 . S
C478 H492 0.960 . S
C479 C476 1.511 . S
C479 H493 0.961 . S
C479 H494 0.961 . S
C479 H495 0.961 . S
C480 C481 1.370 . S
C480 C482 1.363 . S
C480 H496 0.931 . S
C481 C480 1.370 . S
C481 C485 1.408 . S
C482 C480 1.363 . S
C482 C483 1.370 . S
C482 C486 1.524 . S
C483 C475 1.503 . S
C483 C482 1.370 . S
C483 C484 1.403 . S
C484 C483 1.403 . S
C484 C485 1.404 . S
C484 C487 1.539 . S
C485 C481 1.408 . S
C485 C484 1.404 . S
C485 H497 0.930 . S
C486 C482 1.524 . S
C486 H498 0.956 . S
C486 H499 0.961 . S
C486 H500 0.961 . S
C487 C484 1.539 . S
C487 H501 0.958 . S
C487 H502 0.961 . S
C487 H503 0.960 . S
H488 C472 0.931 . S
H489 C477 0.929 . S
H490 C478 0.960 . S
H491 C478 0.962 . S
H492 C478 0.960 . S
H493 C479 0.961 . S
H494 C479 0.961 . S
H495 C479 0.961 . S
H496 C480 0.931 . S
H497 C485 0.930 . S
H498 C486 0.956 . S
H499 C486 0.961 . S
H500 C486 0.961 . S
H501 C487 0.958 . S
H502 C487 0.961 . S
H503 C487 0.960 . S
C504 C505 1.391 . S
C504 C506 1.394 . S
C504 H520 0.931 . S
C505 C504 1.391 . S
C505 C509 1.376 . S
C506 C504 1.394 . S
C506 C507 1.369 . S
C506 C510 1.531 . S
C507 C506 1.369 . S
C507 C508 1.410 . S
C507 C515 1.503 . S
C508 C507 1.410 . S
C508 C509 1.392 . S
C508 C511 1.511 . S
C509 C505 1.376 . S
C509 C508 1.392 . S
C509 H521 0.929 . S
C510 C506 1.531 . S
C510 H522 0.960 . S
C510 H523 0.962 . S
C510 H524 0.960 . S
C511 C508 1.511 . S
C511 H525 0.961 . S
C511 H526 0.961 . S
C511 H527 0.961 . S
C512 C513 1.370 . S
C512 C514 1.363 . S
C512 H528 0.931 . S
C513 C512 1.370 . S
C513 C517 1.408 . S
C514 C512 1.363 . S
C514 C515 1.370 . S
C514 C518 1.524 . S
C515 C507 1.503 . S
C515 C514 1.370 . S
C515 C516 1.403 . S
C516 C515 1.403 . S
C516 C517 1.404 . S
C516 C519 1.539 . S
C517 C513 1.408 . S
C517 C516 1.404 . S
C517 H529 0.930 . S
C518 C514 1.524 . S
C518 H530 0.956 . S
C518 H531 0.961 . S
C518 H532 0.961 . S
C519 C516 1.539 . S
C519 H533 0.958 . S
C519 H534 0.961 . S
C519 H535 0.960 . S
H520 C504 0.931 . S
H521 C509 0.929 . S
H522 C510 0.960 . S
H523 C510 0.962 . S
H524 C510 0.960 . S
H525 C511 0.961 . S
H526 C511 0.961 . S
H527 C511 0.961 . S
H528 C512 0.931 . S
H529 C517 0.930 . S
H530 C518 0.956 . S
H531 C518 0.961 . S
H532 C518 0.961 . S
H533 C519 0.958 . S
H534 C519 0.961 . S
H535 C519 0.960 . S
C536 C537 1.391 . S
C536 C538 1.394 . S
C536 H552 0.931 . S
C537 C536 1.391 . S
C537 C541 1.376 . S
C538 C536 1.394 . S
C538 C539 1.369 . S
C538 C542 1.531 . S
C539 C538 1.369 . S
C539 C540 1.410 . S
C539 C547 1.503 . S
C540 C539 1.410 . S
C540 C541 1.392 . S
C540 C543 1.511 . S
C541 C537 1.376 . S
C541 C540 1.392 . S
C541 H553 0.929 . S
C542 C538 1.531 . S
C542 H554 0.960 . S
C542 H555 0.962 . S
C542 H556 0.960 . S
C543 C540 1.511 . S
C543 H557 0.961 . S
C543 H558 0.961 . S
C543 H559 0.961 . S
C544 C545 1.370 . S
C544 C546 1.363 . S
C544 H560 0.931 . S
C545 C544 1.370 . S
C545 C549 1.408 . S
C546 C544 1.363 . S
C546 C547 1.370 . S
C546 C550 1.524 . S
C547 C539 1.503 . S
C547 C546 1.370 . S
C547 C548 1.403 . S
C548 C547 1.403 . S
C548 C549 1.404 . S
C548 C551 1.539 . S
C549 C545 1.408 . S
C549 C548 1.404 . S
C549 H561 0.930 . S
C550 C546 1.524 . S
C550 H562 0.956 . S
C550 H563 0.961 . S
C550 H564 0.961 . S
C551 C548 1.539 . S
C551 H565 0.958 . S
C551 H566 0.961 . S
C551 H567 0.960 . S
H552 C536 0.931 . S
H553 C541 0.929 . S
H554 C542 0.960 . S
H555 C542 0.962 . S
H556 C542 0.960 . S
H557 C543 0.961 . S
H558 C543 0.961 . S
H559 C543 0.961 . S
H560 C544 0.931 . S
H561 C549 0.930 . S
H562 C550 0.956 . S
H563 C550 0.961 . S
H564 C550 0.961 . S
H565 C551 0.958 . S
H566 C551 0.961 . S
H567 C551 0.960 . S
C568 C569 1.391 . S
C568 C570 1.394 . S
C568 H584 0.931 . S
C569 C568 1.391 . S
C569 C573 1.376 . S
C570 C568 1.394 . S
C570 C571 1.369 . S
C570 C574 1.531 . S
C571 C570 1.369 . S
C571 C572 1.410 . S
C571 C579 1.503 . S
C572 C571 1.410 . S
C572 C573 1.392 . S
C572 C575 1.511 . S
C573 C569 1.376 . S
C573 C572 1.392 . S
C573 H585 0.929 . S
C574 C570 1.531 . S
C574 H586 0.960 . S
C574 H587 0.962 . S
C574 H588 0.960 . S
C575 C572 1.511 . S
C575 H589 0.961 . S
C575 H590 0.961 . S
C575 H591 0.961 . S
C576 C577 1.370 . S
C576 C578 1.363 . S
C576 H592 0.931 1_554 S
C577 C576 1.370 . S
C577 C581 1.408 . S
C578 C576 1.363 . S
C578 C579 1.370 . S
C578 C582 1.524 . S
C579 C571 1.503 . S
C579 C578 1.370 . S
C579 C580 1.403 . S
C580 C579 1.403 . S
C580 C581 1.404 . S
C580 C583 1.539 . S
C581 C577 1.408 . S
C581 C580 1.404 . S
C581 H593 0.930 . S
C582 C578 1.524 . S
C582 H594 0.956 . S
C582 H595 0.961 . S
C582 H596 0.961 1_554 S
C583 C580 1.539 . S
C583 H597 0.958 . S
C583 H598 0.961 . S
C583 H599 0.960 . S
H584 C568 0.931 . S
H585 C573 0.929 . S
H586 C574 0.960 . S
H587 C574 0.962 . S
H588 C574 0.960 . S
H589 C575 0.961 . S
H590 C575 0.961 . S
H591 C575 0.961 . S
H592 C576 0.931 1_556 S
H593 C581 0.930 . S
H594 C582 0.956 . S
H595 C582 0.961 . S
H596 C582 0.961 1_556 S
H597 C583 0.958 . S
H598 C583 0.961 . S
H599 C583 0.960 . S
C600 C601 1.391 . S
C600 C602 1.394 . S
C600 H616 0.931 . S
C601 C600 1.391 . S
C601 C605 1.376 . S
C602 C600 1.394 . S
C602 C603 1.369 . S
C602 C606 1.531 . S
C603 C602 1.369 . S
C603 C604 1.410 . S
C603 C611 1.503 . S
C604 C603 1.410 . S
C604 C605 1.392 . S
C604 C607 1.511 . S
C605 C601 1.376 . S
C605 C604 1.392 . S
C605 H617 0.929 . S
C606 C602 1.531 . S
C606 H618 0.960 . S
C606 H619 0.962 . S
C606 H620 0.960 . S
C607 C604 1.511 . S
C607 H621 0.961 . S
C607 H622 0.961 . S
C607 H623 0.961 . S
C608 C609 1.370 . S
C608 C610 1.363 . S
C608 H624 0.931 1_556 S
C609 C608 1.370 . S
C609 C613 1.408 . S
C610 C608 1.363 . S
C610 C611 1.370 . S
C610 C614 1.557 . S
C611 C603 1.503 . S
C611 C610 1.370 . S
C611 C612 1.403 . S
C612 C611 1.403 . S
C612 C613 1.404 . S
C612 C615 1.539 . S
C613 C609 1.408 . S
C613 C612 1.404 . S
C613 H625 0.930 . S
C614 C610 1.557 . S
C614 H626 0.980 . S
C614 H627 0.961 . S
C614 H628 0.906 1_556 S
C615 C612 1.539 . S
C615 H629 0.958 . S
C615 H630 0.961 . S
C615 H631 0.960 . S
H616 C600 0.931 . S
H617 C605 0.929 . S
H618 C606 0.960 . S
H619 C606 0.962 . S
H620 C606 0.960 . S
H621 C607 0.961 . S
H622 C607 0.961 . S
H623 C607 0.961 . S
H624 C608 0.931 1_554 S
H625 C613 0.930 . S
H626 C614 0.980 . S
H627 C614 0.961 . S
H628 C614 0.906 1_554 S
H629 C615 0.958 . S
H630 C615 0.961 . S
H631 C615 0.960 . S
C632 C633 1.391 . S
C632 C634 1.394 . S
C632 H648 0.931 . S
C633 C632 1.391 . S
C633 C637 1.376 . S
C634 C632 1.394 . S
C634 C635 1.369 . S
C634 C638 1.531 . S
C635 C634 1.369 . S
C635 C636 1.410 . S
C635 C643 1.503 . S
C636 C635 1.410 . S
C636 C637 1.392 . S
C636 C639 1.511 . S
C637 C633 1.376 . S
C637 C636 1.392 . S
C637 H649 0.929 . S
C638 C634 1.531 . S
C638 H650 0.960 . S
C638 H651 0.962 . S
C638 H652 0.960 . S
C639 C636 1.511 . S
C639 H653 0.961 . S
C639 H654 0.961 . S
C639 H655 0.961 . S
C640 C641 1.370 . S
C640 C642 1.363 . S
C640 H656 0.931 . S
C641 C640 1.370 . S
C641 C645 1.408 . S
C642 C640 1.363 . S
C642 C643 1.370 . S
C642 C646 1.524 . S
C643 C635 1.503 . S
C643 C642 1.370 . S
C643 C644 1.403 . S
C644 C643 1.403 . S
C644 C645 1.404 . S
C644 C647 1.539 . S
C645 C641 1.408 . S
C645 C644 1.404 . S
C645 H657 0.930 . S
C646 C642 1.524 . S
C646 H658 0.956 . S
C646 H659 0.961 . S
C646 H660 0.961 . S
C647 C644 1.539 . S
C647 H661 0.958 . S
C647 H662 0.961 . S
C647 H663 0.960 . S
H648 C632 0.931 . S
H649 C637 0.929 . S
H650 C638 0.960 . S
H651 C638 0.962 . S
H652 C638 0.960 . S
H653 C639 0.961 . S
H654 C639 0.961 . S
H655 C639 0.961 . S
H656 C640 0.931 . S
H657 C645 0.930 . S
H658 C646 0.956 . S
H659 C646 0.961 . S
H660 C646 0.961 . S
H661 C647 0.958 . S
H662 C647 0.961 . S
H663 C647 0.960 . S
C664 C665 1.391 . S
C664 C666 1.394 . S
C664 H680 0.931 . S
C665 C664 1.391 . S
C665 C669 1.376 . S
C666 C664 1.394 . S
C666 C667 1.369 . S
C666 C670 1.531 . S
C667 C666 1.369 . S
C667 C668 1.410 . S
C667 C675 1.503 . S
C668 C667 1.410 . S
C668 C669 1.392 . S
C668 C671 1.511 . S
C669 C665 1.376 . S
C669 C668 1.392 . S
C669 H681 0.929 . S
C670 C666 1.531 . S
C670 H682 0.960 . S
C670 H683 0.962 . S
C670 H684 0.960 . S
C671 C668 1.511 . S
C671 H685 0.961 . S
C671 H686 0.961 . S
C671 H687 0.961 . S
C672 C673 1.370 . S
C672 C674 1.363 . S
C672 H688 0.931 . S
C673 C672 1.370 . S
C673 C677 1.408 . S
C674 C672 1.363 . S
C674 C675 1.370 . S
C674 C678 1.524 . S
C675 C667 1.503 . S
C675 C674 1.370 . S
C675 C676 1.403 . S
C676 C675 1.403 . S
C676 C677 1.404 . S
C676 C679 1.539 . S
C677 C673 1.408 . S
C677 C676 1.404 . S
C677 H689 0.930 . S
C678 C674 1.524 . S
C678 H690 0.956 . S
C678 H691 0.961 . S
C678 H692 0.961 . S
C679 C676 1.539 . S
C679 H693 0.958 . S
C679 H694 0.961 . S
C679 H695 0.960 . S
H680 C664 0.931 . S
H681 C669 0.929 . S
H682 C670 0.960 . S
H683 C670 0.962 . S
H684 C670 0.960 . S
H685 C671 0.961 . S
H686 C671 0.961 . S
H687 C671 0.961 . S
H688 C672 0.931 . S
H689 C677 0.930 . S
H690 C678 0.956 . S
H691 C678 0.961 . S
H692 C678 0.961 . S
H693 C679 0.958 . S
H694 C679 0.961 . S
H695 C679 0.960 . S
C696 C697 1.391 . S
C696 C698 1.394 . S
C696 H712 0.931 . S
C697 C696 1.391 . S
C697 C701 1.376 . S
C698 C696 1.394 . S
C698 C699 1.369 . S
C698 C702 1.531 . S
C699 C698 1.369 . S
C699 C700 1.410 . S
C699 C707 1.503 . S
C700 C699 1.410 . S
C700 C701 1.392 . S
C700 C703 1.511 . S
C701 C697 1.376 . S
C701 C700 1.392 . S
C701 H713 0.929 . S
C702 C698 1.531 . S
C702 H714 0.960 . S
C702 H715 0.962 . S
C702 H716 0.960 . S
C703 C700 1.511 . S
C703 H717 0.961 . S
C703 H718 0.961 . S
C703 H719 0.961 . S
C704 C705 1.370 . S
C704 C706 1.363 . S
C704 H720 0.931 . S
C705 C704 1.370 . S
C705 C709 1.408 . S
C706 C704 1.363 . S
C706 C707 1.370 . S
C706 C710 1.524 . S
C707 C699 1.503 . S
C707 C706 1.370 . S
C707 C708 1.403 . S
C708 C707 1.403 . S
C708 C709 1.404 . S
C708 C711 1.539 . S
C709 C705 1.408 . S
C709 C708 1.404 . S
C709 H721 0.930 . S
C710 C706 1.524 . S
C710 H722 0.956 . S
C710 H723 0.961 . S
C710 H724 0.961 . S
C711 C708 1.539 . S
C711 H725 0.958 . S
C711 H726 0.961 . S
C711 H727 0.960 . S
H712 C696 0.931 . S
H713 C701 0.929 . S
H714 C702 0.960 . S
H715 C702 0.962 . S
H716 C702 0.960 . S
H717 C703 0.961 . S
H718 C703 0.961 . S
H719 C703 0.961 . S
H720 C704 0.931 . S
H721 C709 0.930 . S
H722 C710 0.956 . S
H723 C710 0.961 . S
H724 C710 0.961 . S
H725 C711 0.958 . S
H726 C711 0.961 . S
H727 C711 0.960 . S
C728 C729 1.391 . S
C728 C730 1.394 . S
C728 H744 0.931 . S
C729 C728 1.391 . S
C729 C733 1.376 . S
C730 C728 1.394 . S
C730 C731 1.369 . S
C730 C734 1.531 . S
C731 C730 1.369 . S
C731 C732 1.410 . S
C731 C739 1.503 . S
C732 C731 1.410 . S
C732 C733 1.392 . S
C732 C735 1.511 . S
C733 C729 1.376 . S
C733 C732 1.392 . S
C733 H745 0.929 . S
C734 C730 1.531 . S
C734 H746 0.960 . S
C734 H747 0.962 . S
C734 H748 0.960 . S
C735 C732 1.511 . S
C735 H749 0.961 . S
C735 H750 0.961 . S
C735 H751 0.961 . S
C736 C737 1.370 . S
C736 C738 1.363 . S
C736 H752 0.931 . S
C737 C736 1.370 . S
C737 C741 1.408 . S
C738 C736 1.363 . S
C738 C739 1.370 . S
C738 C742 1.524 . S
C739 C731 1.503 . S
C739 C738 1.370 . S
C739 C740 1.403 . S
C740 C739 1.403 . S
C740 C741 1.404 . S
C740 C743 1.539 . S
C741 C737 1.408 . S
C741 C740 1.404 . S
C741 H753 0.930 . S
C742 C738 1.524 . S
C742 H754 0.956 . S
C742 H755 0.961 . S
C742 H756 0.961 . S
C743 C740 1.539 . S
C743 H757 0.958 . S
C743 H758 0.961 . S
C743 H759 0.960 . S
H744 C728 0.931 . S
H745 C733 0.929 . S
H746 C734 0.960 . S
H747 C734 0.962 . S
H748 C734 0.960 . S
H749 C735 0.961 . S
H750 C735 0.961 . S
H751 C735 0.961 . S
H752 C736 0.931 . S
H753 C741 0.930 . S
H754 C742 0.956 . S
H755 C742 0.961 . S
H756 C742 0.961 . S
H757 C743 0.958 . S
H758 C743 0.961 . S
H759 C743 0.960 . S
C760 C761 1.391 . S
C760 C762 1.394 . S
C760 H776 0.931 . S
C761 C760 1.391 . S
C761 C765 1.376 . S
C762 C760 1.394 . S
C762 C763 1.369 . S
C762 C766 1.531 . S
C763 C762 1.369 . S
C763 C764 1.410 . S
C763 C771 1.503 . S
C764 C763 1.410 . S
C764 C765 1.392 . S
C764 C767 1.511 . S
C765 C761 1.376 . S
C765 C764 1.392 . S
C765 H777 0.929 . S
C766 C762 1.531 . S
C766 H778 0.960 . S
C766 H779 0.962 . S
C766 H780 0.960 . S
C767 C764 1.511 . S
C767 H781 0.961 . S
C767 H782 0.961 . S
C767 H783 0.961 . S
C768 C769 1.370 . S
C768 C770 1.363 . S
C768 H784 0.931 . S
C769 C768 1.370 . S
C769 C773 1.408 . S
C770 C768 1.363 . S
C770 C771 1.370 . S
C770 C774 1.524 . S
C771 C763 1.503 . S
C771 C770 1.370 . S
C771 C772 1.403 . S
C772 C771 1.403 . S
C772 C773 1.404 . S
C772 C775 1.531 1_554 S
C773 C769 1.408 . S
C773 C772 1.404 . S
C773 H785 0.930 1_554 S
C774 C770 1.524 . S
C774 H786 0.956 . S
C774 H787 0.961 . S
C774 H788 0.961 . S
C775 C772 1.531 1_556 S
C775 H789 0.967 . S
C775 H790 0.969 . S
C775 H791 0.952 1_556 S
H776 C760 0.931 . S
H777 C765 0.929 . S
H778 C766 0.960 . S
H779 C766 0.962 . S
H780 C766 0.960 . S
H781 C767 0.961 . S
H782 C767 0.961 . S
H783 C767 0.961 . S
H784 C768 0.931 . S
H785 C773 0.930 1_556 S
H786 C774 0.956 . S
H787 C774 0.961 . S
H788 C774 0.961 . S
H789 C775 0.967 . S
H790 C775 0.969 . S
H791 C775 0.952 1_554 S
C792 C793 1.391 . S
C792 C794 1.394 . S
C792 H808 0.931 . S
C793 C792 1.391 . S
C793 C797 1.376 . S
C794 C792 1.394 . S
C794 C795 1.369 . S
C794 C798 1.531 . S
C795 C794 1.369 . S
C795 C796 1.410 . S
C795 C803 1.503 . S
C796 C795 1.410 . S
C796 C797 1.392 . S
C796 C799 1.511 . S
C797 C793 1.376 . S
C797 C796 1.392 . S
C797 H809 0.929 . S
C798 C794 1.531 . S
C798 H810 0.960 . S
C798 H811 0.962 . S
C798 H812 0.960 . S
C799 C796 1.511 . S
C799 H813 0.961 . S
C799 H814 0.961 . S
C799 H815 0.961 . S
C800 C801 1.370 . S
C800 C802 1.363 . S
C800 H816 0.931 . S
C801 C800 1.370 . S
C801 C805 1.408 . S
C802 C800 1.363 . S
C802 C803 1.370 . S
C802 C806 1.524 . S
C803 C795 1.503 . S
C803 C802 1.370 . S
C803 C804 1.403 . S
C804 C803 1.403 . S
C804 C805 1.404 . S
C804 C807 1.539 . S
C805 C801 1.408 . S
C805 C804 1.404 . S
C805 H817 0.930 . S
C806 C802 1.524 . S
C806 H818 0.956 . S
C806 H819 0.961 . S
C806 H820 0.961 . S
C807 C804 1.539 . S
C807 H821 0.958 . S
C807 H822 0.961 . S
C807 H823 0.960 . S
H808 C792 0.931 . S
H809 C797 0.929 . S
H810 C798 0.960 . S
H811 C798 0.962 . S
H812 C798 0.960 . S
H813 C799 0.961 . S
H814 C799 0.961 . S
H815 C799 0.961 . S
H816 C800 0.931 . S
H817 C805 0.930 . S
H818 C806 0.956 . S
H819 C806 0.961 . S
H820 C806 0.961 . S
H821 C807 0.958 . S
H822 C807 0.961 . S
H823 C807 0.960 . S
C824 C825 1.391 . S
C824 C826 1.394 . S
C824 H840 0.931 . S
C825 C824 1.391 . S
C825 C829 1.376 . S
C826 C824 1.394 . S
C826 C827 1.369 . S
C826 C830 1.531 . S
C827 C826 1.369 . S
C827 C828 1.410 . S
C827 C835 1.503 . S
C828 C827 1.410 . S
C828 C829 1.392 . S
C828 C831 1.511 . S
C829 C825 1.376 . S
C829 C828 1.392 . S
C829 H841 0.929 . S
C830 C826 1.531 . S
C830 H842 0.960 . S
C830 H843 0.962 . S
C830 H844 0.960 . S
C831 C828 1.511 . S
C831 H845 0.961 . S
C831 H846 0.961 . S
C831 H847 0.961 . S
C832 C833 1.370 . S
C832 C834 1.363 . S
C832 H848 0.931 . S
C833 C832 1.370 . S
C833 C837 1.408 . S
C834 C832 1.363 . S
C834 C835 1.370 . S
C834 C838 1.524 . S
C835 C827 1.503 . S
C835 C834 1.370 . S
C835 C836 1.403 . S
C836 C835 1.403 . S
C836 C837 1.404 . S
C836 C839 1.539 . S
C837 C833 1.408 . S
C837 C836 1.404 . S
C837 H849 0.930 . S
C838 C834 1.524 . S
C838 H850 0.956 . S
C838 H851 0.961 . S
C838 H852 0.961 . S
C839 C836 1.539 . S
C839 H853 0.958 . S
C839 H854 0.961 . S
C839 H855 0.960 . S
H840 C824 0.931 . S
H841 C829 0.929 . S
H842 C830 0.960 . S
H843 C830 0.962 . S
H844 C830 0.960 . S
H845 C831 0.961 . S
H846 C831 0.961 . S
H847 C831 0.961 . S
H848 C832 0.931 . S
H849 C837 0.930 . S
H850 C838 0.956 . S
H851 C838 0.961 . S
H852 C838 0.961 . S
H853 C839 0.958 . S
H854 C839 0.961 . S
H855 C839 0.960 . S
C856 C857 1.391 . S
C856 C858 1.394 . S
C856 H872 0.931 . S
C857 C856 1.391 . S
C857 C861 1.376 . S
C858 C856 1.394 . S
C858 C859 1.369 . S
C858 C862 1.531 . S
C859 C858 1.369 . S
C859 C860 1.410 . S
C859 C867 1.503 . S
C860 C859 1.410 . S
C860 C861 1.392 . S
C860 C863 1.511 . S
C861 C857 1.376 . S
C861 C860 1.392 . S
C861 H873 0.929 . S
C862 C858 1.531 . S
C862 H874 0.960 . S
C862 H875 0.962 . S
C862 H876 0.960 . S
C863 C860 1.511 . S
C863 H877 0.961 . S
C863 H878 0.961 . S
C863 H879 0.961 . S
C864 C865 1.370 . S
C864 C866 1.363 . S
C864 H880 0.931 . S
C865 C864 1.370 . S
C865 C869 1.408 . S
C866 C864 1.363 . S
C866 C867 1.370 . S
C866 C870 1.524 . S
C867 C859 1.503 . S
C867 C866 1.370 . S
C867 C868 1.403 . S
C868 C867 1.403 . S
C868 C869 1.404 . S
C868 C871 1.539 . S
C869 C865 1.408 . S
C869 C868 1.404 . S
C869 H881 0.930 . S
C870 C866 1.524 . S
C870 H882 0.956 . S
C870 H883 0.961 . S
C870 H884 0.961 . S
C871 C868 1.539 . S
C871 H885 0.958 . S
C871 H886 0.961 . S
C871 H887 0.960 . S
H872 C856 0.931 . S
H873 C861 0.929 . S
H874 C862 0.960 . S
H875 C862 0.962 . S
H876 C862 0.960 . S
H877 C863 0.961 . S
H878 C863 0.961 . S
H879 C863 0.961 . S
H880 C864 0.931 . S
H881 C869 0.930 . S
H882 C870 0.956 . S
H883 C870 0.961 . S
H884 C870 0.961 . S
H885 C871 0.958 . S
H886 C871 0.961 . S
H887 C871 0.960 . S
C888 C889 1.391 . S
C888 C890 1.394 . S
C888 H904 0.931 . S
C889 C888 1.391 . S
C889 C893 1.376 . S
C890 C888 1.394 . S
C890 C891 1.369 . S
C890 C894 1.531 . S
C891 C890 1.369 . S
C891 C892 1.410 . S
C891 C899 1.503 . S
C892 C891 1.410 . S
C892 C893 1.392 . S
C892 C895 1.511 . S
C893 C889 1.376 . S
C893 C892 1.392 . S
C893 H905 0.929 . S
C894 C890 1.531 . S
C894 H906 0.960 . S
C894 H907 0.962 . S
C894 H908 0.960 . S
C895 C892 1.511 . S
C895 H909 0.961 . S
C895 H910 0.961 . S
C895 H911 0.961 . S
C896 C897 1.370 . S
C896 C898 1.363 . S
C896 H912 0.931 . S
C897 C896 1.370 . S
C897 C901 1.408 . S
C898 C896 1.363 . S
C898 C899 1.370 . S
C898 C902 1.524 . S
C899 C891 1.503 . S
C899 C898 1.370 . S
C899 C900 1.403 . S
C900 C899 1.403 . S
C900 C901 1.404 . S
C900 C903 1.539 . S
C901 C897 1.408 . S
C901 C900 1.404 . S
C901 H913 0.930 . S
C902 C898 1.524 . S
C902 H914 0.956 . S
C902 H915 0.961 . S
C902 H916 0.961 . S
C903 C900 1.539 . S
C903 H917 0.958 . S
C903 H918 0.961 . S
C903 H919 0.960 . S
H904 C888 0.931 . S
H905 C893 0.929 . S
H906 C894 0.960 . S
H907 C894 0.962 . S
H908 C894 0.960 . S
H909 C895 0.961 . S
H910 C895 0.961 . S
H911 C895 0.961 . S
H912 C896 0.931 . S
H913 C901 0.930 . S
H914 C902 0.956 . S
H915 C902 0.961 . S
H916 C902 0.961 . S
H917 C903 0.958 . S
H918 C903 0.961 . S
H919 C903 0.960 . S
C920 C921 1.391 . S
C920 C922 1.394 . S
C920 H936 0.931 . S
C921 C920 1.391 . S
C921 C925 1.376 . S
C922 C920 1.394 . S
C922 C923 1.369 . S
C922 C926 1.531 . S
C923 C922 1.369 . S
C923 C924 1.410 . S
C923 C931 1.503 . S
C924 C923 1.410 . S
C924 C925 1.392 . S
C924 C927 1.511 . S
C925 C921 1.376 . S
C925 C924 1.392 . S
C925 H937 0.929 . S
C926 C922 1.531 . S
C926 H938 0.960 . S
C926 H939 0.962 . S
C926 H940 0.960 . S
C927 C924 1.511 . S
C927 H941 0.961 . S
C927 H942 0.961 . S
C927 H943 0.961 . S
C928 C929 1.370 . S
C928 C930 1.363 . S
C928 H944 0.931 . S
C929 C928 1.370 . S
C929 C933 1.408 . S
C930 C928 1.363 . S
C930 C931 1.370 . S
C930 C934 1.524 . S
C931 C923 1.503 . S
C931 C930 1.370 . S
C931 C932 1.403 . S
C932 C931 1.403 . S
C932 C933 1.404 . S
C932 C935 1.539 1_556 S
C933 C929 1.408 . S
C933 C932 1.404 . S
C933 H945 0.930 1_556 S
C934 C930 1.524 . S
C934 H946 0.956 . S
C934 H947 0.961 . S
C934 H948 0.961 . S
C935 C932 1.539 1_554 S
C935 H949 0.958 . S
C935 H950 0.961 . S
C935 H951 0.960 . S
H936 C920 0.931 . S
H937 C925 0.929 . S
H938 C926 0.960 . S
H939 C926 0.962 . S
H940 C926 0.960 . S
H941 C927 0.961 . S
H942 C927 0.961 . S
H943 C927 0.961 . S
H944 C928 0.931 . S
H945 C933 0.930 1_554 S
H946 C934 0.956 . S
H947 C934 0.961 . S
H948 C934 0.961 . S
H949 C935 0.958 . S
H950 C935 0.961 . S
H951 C935 0.960 . S
C952 C953 1.391 . S
C952 C954 1.394 . S
C952 H968 0.931 . S
C953 C952 1.391 . S
C953 C957 1.376 . S
C954 C952 1.394 . S
C954 C955 1.369 . S
C954 C958 1.531 . S
C955 C954 1.369 . S
C955 C956 1.410 . S
C955 C963 1.503 . S
C956 C955 1.410 . S
C956 C957 1.392 . S
C956 C959 1.511 . S
C957 C953 1.376 . S
C957 C956 1.392 . S
C957 H969 0.929 . S
C958 C954 1.531 . S
C958 H970 0.960 . S
C958 H971 0.962 . S
C958 H972 0.960 . S
C959 C956 1.511 . S
C959 H973 0.961 . S
C959 H974 0.961 . S
C959 H975 0.961 . S
C960 C961 1.370 . S
C960 C962 1.363 . S
C960 H976 0.931 . S
C961 C960 1.370 . S
C961 C965 1.408 . S
C962 C960 1.363 . S
C962 C963 1.370 . S
C962 C966 1.524 . S
C963 C955 1.503 . S
C963 C962 1.370 . S
C963 C964 1.403 . S
C964 C963 1.403 . S
C964 C965 1.404 . S
C964 C967 1.539 . S
C965 C961 1.408 . S
C965 C964 1.404 . S
C965 H977 0.930 . S
C966 C962 1.524 . S
C966 H978 0.956 . S
C966 H979 0.961 . S
C966 H980 0.961 . S
C967 C964 1.539 . S
C967 H981 0.958 . S
C967 H982 0.961 . S
C967 H983 0.960 . S
H968 C952 0.931 . S
H969 C957 0.929 . S
H970 C958 0.960 . S
H971 C958 0.962 . S
H972 C958 0.960 . S
H973 C959 0.961 . S
H974 C959 0.961 . S
H975 C959 0.961 . S
H976 C960 0.931 . S
H977 C965 0.930 . S
H978 C966 0.956 . S
H979 C966 0.961 . S
H980 C966 0.961 . S
H981 C967 0.958 . S
H982 C967 0.961 . S
H983 C967 0.960 . S
C984 C985 1.391 . S
C984 C986 1.394 . S
C984 H1000 0.931 . S
C985 C984 1.391 . S
C985 C989 1.376 . S
C986 C984 1.394 . S
C986 C987 1.369 . S
C986 C990 1.531 . S
C987 C986 1.369 . S
C987 C988 1.410 . S
C987 C995 1.503 . S
C988 C987 1.410 . S
C988 C989 1.392 . S
C988 C991 1.511 . S
C989 C985 1.376 . S
C989 C988 1.392 . S
C989 H1001 0.929 . S
C990 C986 1.531 . S
C990 H1002 0.960 . S
C990 H1003 0.962 . S
C990 H1004 0.960 . S
C991 C988 1.511 . S
C991 H1005 0.961 . S
C991 H1006 0.961 . S
C991 H1007 0.961 . S
C992 C993 1.370 . S
C992 C994 1.363 . S
C992 H1008 0.931 . S
C993 C992 1.370 . S
C993 C997 1.408 . S
C994 C992 1.363 . S
C994 C995 1.370 . S
C994 C998 1.524 . S
C995 C987 1.503 . S
C995 C994 1.370 . S
C995 C996 1.403 . S
C996 C995 1.403 . S
C996 C997 1.404 . S
C996 C999 1.539 . S
C997 C993 1.408 . S
C997 C996 1.404 . S
C997 H1009 0.930 . S
C998 C994 1.524 . S
C998 H1010 0.956 . S
C998 H1011 0.961 . S
C998 H1012 0.961 . S
C999 C996 1.539 . S
C999 H1013 0.958 . S
C999 H1014 0.961 . S
C999 H1015 0.960 . S
H1000 C984 0.931 . S
H1001 C989 0.929 . S
H1002 C990 0.960 . S
H1003 C990 0.962 . S
H1004 C990 0.960 . S
H1005 C991 0.961 . S
H1006 C991 0.961 . S
H1007 C991 0.961 . S
H1008 C992 0.931 . S
H1009 C997 0.930 . S
H1010 C998 0.956 . S
H1011 C998 0.961 . S
H1012 C998 0.961 . S
H1013 C999 0.958 . S
H1014 C999 0.961 . S
H1015 C999 0.960 . S
C1016 C1017 1.391 . S
C1016 C1018 1.394 . S
C1016 H1032 0.931 . S
C1017 C1016 1.391 . S
C1017 C1021 1.376 . S
C1018 C1016 1.394 . S
C1018 C1019 1.369 . S
C1018 C1022 1.531 . S
C1019 C1018 1.369 . S
C1019 C1020 1.410 . S
C1019 C1027 1.503 . S
C1020 C1019 1.410 . S
C1020 C1021 1.392 . S
C1020 C1023 1.511 . S
C1021 C1017 1.376 . S
C1021 C1020 1.392 . S
C1021 H1033 0.929 . S
C1022 C1018 1.531 . S
C1022 H1034 0.960 . S
C1022 H1035 0.962 . S
C1022 H1036 0.960 . S
C1023 C1020 1.511 . S
C1023 H1037 0.961 . S
C1023 H1038 0.961 . S
C1023 H1039 0.961 . S
C1024 C1025 1.370 . S
C1024 C1026 1.363 . S
C1024 H1040 0.931 . S
C1025 C1024 1.370 . S
C1025 C1029 1.408 . S
C1026 C1024 1.363 . S
C1026 C1027 1.370 . S
C1026 C1030 1.524 . S
C1027 C1019 1.503 . S
C1027 C1026 1.370 . S
C1027 C1028 1.403 . S
C1028 C1027 1.403 . S
C1028 C1029 1.404 . S
C1028 C1031 1.539 . S
C1029 C1025 1.408 . S
C1029 C1028 1.404 . S
C1029 H1041 0.930 . S
C1030 C1026 1.524 . S
C1030 H1042 0.956 . S
C1030 H1043 0.961 . S
C1030 H1044 0.961 . S
C1031 C1028 1.539 . S
C1031 H1045 0.958 . S
C1031 H1046 0.961 . S
C1031 H1047 0.960 . S
H1032 C1016 0.931 . S
H1033 C1021 0.929 . S
H1034 C1022 0.960 . S
H1035 C1022 0.962 . S
H1036 C1022 0.960 . S
H1037 C1023 0.961 . S
H1038 C1023 0.961 . S
H1039 C1023 0.961 . S
H1040 C1024 0.931 . S
H1041 C1029 0.930 . S
H1042 C1030 0.956 . S
H1043 C1030 0.961 . S
H1044 C1030 0.961 . S
H1045 C1031 0.958 . S
H1046 C1031 0.961 . S
H1047 C1031 0.960 . S
C1048 C1049 1.391 . S
C1048 C1050 1.394 . S
C1048 H1064 0.931 . S
C1049 C1048 1.391 . S
C1049 C1053 1.376 . S
C1050 C1048 1.394 . S
C1050 C1051 1.369 . S
C1050 C1054 1.531 . S
C1051 C1050 1.369 . S
C1051 C1052 1.410 . S
C1051 C1059 1.503 . S
C1052 C1051 1.410 . S
C1052 C1053 1.392 . S
C1052 C1055 1.511 . S
C1053 C1049 1.376 . S
C1053 C1052 1.392 . S
C1053 H1065 0.929 . S
C1054 C1050 1.531 . S
C1054 H1066 0.960 . S
C1054 H1067 0.962 . S
C1054 H1068 0.960 . S
C1055 C1052 1.511 . S
C1055 H1069 0.961 . S
C1055 H1070 0.961 . S
C1055 H1071 0.961 . S
C1056 C1057 1.370 . S
C1056 C1058 1.363 . S
C1056 H1072 0.931 . S
C1057 C1056 1.370 . S
C1057 C1061 1.408 . S
C1058 C1056 1.363 . S
C1058 C1059 1.370 . S
C1058 C1062 1.524 . S
C1059 C1051 1.503 . S
C1059 C1058 1.370 . S
C1059 C1060 1.403 . S
C1060 C1059 1.403 . S
C1060 C1061 1.404 . S
C1060 C1063 1.539 . S
C1061 C1057 1.408 . S
C1061 C1060 1.404 . S
C1061 H1073 0.930 . S
C1062 C1058 1.524 . S
C1062 H1074 0.956 . S
C1062 H1075 0.961 . S
C1062 H1076 0.961 . S
C1063 C1060 1.539 . S
C1063 H1077 0.958 . S
C1063 H1078 0.961 . S
C1063 H1079 0.960 . S
H1064 C1048 0.931 . S
H1065 C1053 0.929 . S
H1066 C1054 0.960 . S
H1067 C1054 0.962 . S
H1068 C1054 0.960 . S
H1069 C1055 0.961 . S
H1070 C1055 0.961 . S
H1071 C1055 0.961 . S
H1072 C1056 0.931 . S
H1073 C1061 0.930 . S
H1074 C1062 0.956 . S
H1075 C1062 0.961 . S
H1076 C1062 0.961 . S
H1077 C1063 0.958 . S
H1078 C1063 0.961 . S
H1079 C1063 0.960 . S
C1080 C1081 1.391 . S
C1080 C1082 1.394 . S
C1080 H1096 0.931 . S
C1081 C1080 1.391 . S
C1081 C1085 1.376 . S
C1082 C1080 1.394 . S
C1082 C1083 1.369 . S
C1082 C1086 1.531 . S
C1083 C1082 1.369 . S
C1083 C1084 1.410 . S
C1083 C1091 1.503 . S
C1084 C1083 1.410 . S
C1084 C1085 1.392 . S
C1084 C1087 1.511 . S
C1085 C1081 1.376 . S
C1085 C1084 1.392 . S
C1085 H1097 0.929 . S
C1086 C1082 1.531 . S
C1086 H1098 0.960 . S
C1086 H1099 0.962 . S
C1086 H1100 0.960 . S
C1087 C1084 1.511 . S
C1087 H1101 0.961 . S
C1087 H1102 0.961 . S
C1087 H1103 0.961 . S
C1088 C1089 1.370 . S
C1088 C1090 1.363 . S
C1088 H1104 0.931 . S
C1089 C1088 1.370 . S
C1089 C1093 1.408 . S
C1090 C1088 1.363 . S
C1090 C1091 1.370 . S
C1090 C1094 1.524 . S
C1091 C1083 1.503 . S
C1091 C1090 1.370 . S
C1091 C1092 1.403 . S
C1092 C1091 1.403 . S
C1092 C1093 1.404 . S
C1092 C1095 1.539 . S
C1093 C1089 1.408 . S
C1093 C1092 1.404 . S
C1093 H1105 0.930 . S
C1094 C1090 1.524 . S
C1094 H1106 0.956 . S
C1094 H1107 0.961 . S
C1094 H1108 0.961 . S
C1095 C1092 1.539 . S
C1095 H1109 0.958 . S
C1095 H1110 0.961 . S
C1095 H1111 0.960 . S
H1096 C1080 0.931 . S
H1097 C1085 0.929 . S
H1098 C1086 0.960 . S
H1099 C1086 0.962 . S
H1100 C1086 0.960 . S
H1101 C1087 0.961 . S
H1102 C1087 0.961 . S
H1103 C1087 0.961 . S
H1104 C1088 0.931 . S
H1105 C1093 0.930 . S
H1106 C1094 0.956 . S
H1107 C1094 0.961 . S
H1108 C1094 0.961 . S
H1109 C1095 0.958 . S
H1110 C1095 0.961 . S
H1111 C1095 0.960 . S
C1112 C1113 1.391 . S
C1112 C1114 1.394 . S
C1112 H1128 0.931 . S
C1113 C1112 1.391 . S
C1113 C1117 1.376 . S
C1114 C1112 1.394 . S
C1114 C1115 1.369 . S
C1114 C1118 1.531 . S
C1115 C1114 1.369 . S
C1115 C1116 1.410 . S
C1115 C1123 1.503 . S
C1116 C1115 1.410 . S
C1116 C1117 1.392 . S
C1116 C1119 1.511 . S
C1117 C1113 1.376 . S
C1117 C1116 1.392 . S
C1117 H1129 0.929 . S
C1118 C1114 1.531 . S
C1118 H1130 0.960 . S
C1118 H1131 0.962 . S
C1118 H1132 0.960 . S
C1119 C1116 1.511 . S
C1119 H1133 0.961 . S
C1119 H1134 0.961 . S
C1119 H1135 0.961 . S
C1120 C1121 1.370 . S
C1120 C1122 1.363 . S
C1120 H1136 0.931 . S
C1121 C1120 1.370 . S
C1121 C1125 1.408 . S
C1122 C1120 1.363 . S
C1122 C1123 1.370 . S
C1122 C1126 1.524 . S
C1123 C1115 1.503 . S
C1123 C1122 1.370 . S
C1123 C1124 1.403 . S
C1124 C1123 1.403 . S
C1124 C1125 1.404 . S
C1124 C1127 1.539 . S
C1125 C1121 1.408 . S
C1125 C1124 1.404 . S
C1125 H1137 0.930 . S
C1126 C1122 1.524 . S
C1126 H1138 0.956 . S
C1126 H1139 0.961 . S
C1126 H1140 0.961 . S
C1127 C1124 1.539 . S
C1127 H1141 0.958 . S
C1127 H1142 0.961 . S
C1127 H1143 0.960 . S
H1128 C1112 0.931 . S
H1129 C1117 0.929 . S
H1130 C1118 0.960 . S
H1131 C1118 0.962 . S
H1132 C1118 0.960 . S
H1133 C1119 0.961 . S
H1134 C1119 0.961 . S
H1135 C1119 0.961 . S
H1136 C1120 0.931 . S
H1137 C1125 0.930 . S
H1138 C1126 0.956 . S
H1139 C1126 0.961 . S
H1140 C1126 0.961 . S
H1141 C1127 0.958 . S
H1142 C1127 0.961 . S
H1143 C1127 0.960 . S
C1144 C1145 1.391 . S
C1144 C1146 1.394 . S
C1144 H1160 0.931 . S
C1145 C1144 1.391 . S
C1145 C1149 1.376 . S
C1146 C1144 1.394 . S
C1146 C1147 1.369 . S
C1146 C1150 1.531 . S
C1147 C1146 1.369 . S
C1147 C1148 1.410 . S
C1147 C1155 1.503 . S
C1148 C1147 1.410 . S
C1148 C1149 1.392 . S
C1148 C1151 1.511 . S
C1149 C1145 1.376 . S
C1149 C1148 1.392 . S
C1149 H1161 0.929 . S
C1150 C1146 1.531 . S
C1150 H1162 0.960 . S
C1150 H1163 0.962 . S
C1150 H1164 0.960 . S
C1151 C1148 1.511 . S
C1151 H1165 0.961 . S
C1151 H1166 0.961 . S
C1151 H1167 0.961 . S
C1152 C1153 1.370 . S
C1152 C1154 1.363 . S
C1152 H1168 0.931 . S
C1153 C1152 1.370 . S
C1153 C1157 1.408 . S
C1154 C1152 1.363 . S
C1154 C1155 1.370 . S
C1154 C1158 1.524 . S
C1155 C1147 1.503 . S
C1155 C1154 1.370 . S
C1155 C1156 1.403 . S
C1156 C1155 1.403 . S
C1156 C1157 1.404 . S
C1156 C1159 1.539 . S
C1157 C1153 1.408 . S
C1157 C1156 1.404 . S
C1157 H1169 0.930 . S
C1158 C1154 1.524 . S
C1158 H1170 0.956 . S
C1158 H1171 0.961 . S
C1158 H1172 0.961 . S
C1159 C1156 1.539 . S
C1159 H1173 0.958 . S
C1159 H1174 0.961 . S
C1159 H1175 0.960 . S
H1160 C1144 0.931 . S
H1161 C1149 0.929 . S
H1162 C1150 0.960 . S
H1163 C1150 0.962 . S
H1164 C1150 0.960 . S
H1165 C1151 0.961 . S
H1166 C1151 0.961 . S
H1167 C1151 0.961 . S
H1168 C1152 0.931 . S
H1169 C1157 0.930 . S
H1170 C1158 0.956 . S
H1171 C1158 0.961 . S
H1172 C1158 0.961 . S
H1173 C1159 0.958 . S
H1174 C1159 0.961 . S
H1175 C1159 0.960 . S
C1176 C1177 1.391 . S
C1176 C1178 1.394 . S
C1176 H1192 0.931 . S
C1177 C1176 1.391 . S
C1177 C1181 1.376 . S
C1178 C1176 1.394 . S
C1178 C1179 1.369 . S
C1178 C1182 1.531 . S
C1179 C1178 1.369 . S
C1179 C1180 1.410 . S
C1179 C1187 1.503 . S
C1180 C1179 1.410 . S
C1180 C1181 1.392 . S
C1180 C1183 1.511 . S
C1181 C1177 1.376 . S
C1181 C1180 1.392 . S
C1181 H1193 0.929 . S
C1182 C1178 1.531 . S
C1182 H1194 0.960 . S
C1182 H1195 0.962 . S
C1182 H1196 0.960 . S
C1183 C1180 1.511 . S
C1183 H1197 0.961 . S
C1183 H1198 0.961 . S
C1183 H1199 0.961 . S
C1184 C1185 1.370 . S
C1184 C1186 1.363 . S
C1184 H1200 0.931 . S
C1185 C1184 1.370 . S
C1185 C1189 1.408 . S
C1186 C1184 1.363 . S
C1186 C1187 1.370 . S
C1186 C1190 1.524 . S
C1187 C1179 1.503 . S
C1187 C1186 1.370 . S
C1187 C1188 1.403 . S
C1188 C1187 1.403 . S
C1188 C1189 1.404 . S
C1188 C1191 1.539 . S
C1189 C1185 1.408 . S
C1189 C1188 1.404 . S
C1189 H1201 0.930 . S
C1190 C1186 1.524 . S
C1190 H1202 0.956 . S
C1190 H1203 0.961 . S
C1190 H1204 0.961 . S
C1191 C1188 1.539 . S
C1191 H1205 0.958 . S
C1191 H1206 0.961 . S
C1191 H1207 0.960 . S
H1192 C1176 0.931 . S
H1193 C1181 0.929 . S
H1194 C1182 0.960 . S
H1195 C1182 0.962 . S
H1196 C1182 0.960 . S
H1197 C1183 0.961 . S
H1198 C1183 0.961 . S
H1199 C1183 0.961 . S
H1200 C1184 0.931 . S
H1201 C1189 0.930 . S
H1202 C1190 0.956 . S
H1203 C1190 0.961 . S
H1204 C1190 0.961 . S
H1205 C1191 0.958 . S
H1206 C1191 0.961 . S
H1207 C1191 0.960 . S
C1208 C1209 1.391 . S
C1208 C1210 1.394 . S
C1208 H1224 0.931 . S
C1209 C1208 1.391 . S
C1209 C1213 1.376 . S
C1210 C1208 1.394 . S
C1210 C1211 1.369 . S
C1210 C1214 1.531 . S
C1211 C1210 1.369 . S
C1211 C1212 1.410 . S
C1211 C1219 1.503 . S
C1212 C1211 1.410 . S
C1212 C1213 1.392 . S
C1212 C1215 1.511 . S
C1213 C1209 1.376 . S
C1213 C1212 1.392 . S
C1213 H1225 0.929 . S
C1214 C1210 1.531 . S
C1214 H1226 0.960 . S
C1214 H1227 0.962 . S
C1214 H1228 0.960 . S
C1215 C1212 1.511 . S
C1215 H1229 0.961 . S
C1215 H1230 0.961 . S
C1215 H1231 0.961 . S
C1216 C1217 1.370 . S
C1216 C1218 1.363 . S
C1216 H1232 0.931 . S
C1217 C1216 1.370 . S
C1217 C1221 1.408 . S
C1218 C1216 1.363 . S
C1218 C1219 1.370 . S
C1218 C1222 1.524 . S
C1219 C1211 1.503 . S
C1219 C1218 1.370 . S
C1219 C1220 1.403 . S
C1220 C1219 1.403 . S
C1220 C1221 1.404 . S
C1220 C1223 1.539 . S
C1221 C1217 1.408 . S
C1221 C1220 1.404 . S
C1221 H1233 0.930 . S
C1222 C1218 1.524 . S
C1222 H1234 0.956 . S
C1222 H1235 0.961 . S
C1222 H1236 0.961 . S
C1223 C1220 1.539 . S
C1223 H1237 0.958 . S
C1223 H1238 0.961 . S
C1223 H1239 0.960 . S
H1224 C1208 0.931 . S
H1225 C1213 0.929 . S
H1226 C1214 0.960 . S
H1227 C1214 0.962 . S
H1228 C1214 0.960 . S
H1229 C1215 0.961 . S
H1230 C1215 0.961 . S
H1231 C1215 0.961 . S
H1232 C1216 0.931 . S
H1233 C1221 0.930 . S
H1234 C1222 0.956 . S
H1235 C1222 0.961 . S
H1236 C1222 0.961 . S
H1237 C1223 0.958 . S
H1238 C1223 0.961 . S
H1239 C1223 0.960 . S
C1240 C1241 1.391 . S
C1240 C1242 1.394 . S
C1240 H1256 0.931 . S
C1241 C1240 1.391 . S
C1241 C1245 1.376 . S
C1242 C1240 1.394 . S
C1242 C1243 1.369 . S
C1242 C1246 1.531 . S
C1243 C1242 1.369 . S
C1243 C1244 1.410 . S
C1243 C1251 1.503 . S
C1244 C1243 1.410 . S
C1244 C1245 1.392 . S
C1244 C1247 1.511 . S
C1245 C1241 1.376 . S
C1245 C1244 1.392 . S
C1245 H1257 0.929 . S
C1246 C1242 1.531 . S
C1246 H1258 0.960 . S
C1246 H1259 0.962 . S
C1246 H1260 0.960 . S
C1247 C1244 1.511 . S
C1247 H1261 0.961 . S
C1247 H1262 0.961 . S
C1247 H1263 0.961 . S
C1248 C1249 1.370 . S
C1248 C1250 1.363 . S
C1248 H1264 0.931 . S
C1249 C1248 1.370 . S
C1249 C1253 1.408 . S
C1250 C1248 1.363 . S
C1250 C1251 1.370 . S
C1250 C1254 1.524 . S
C1251 C1243 1.503 . S
C1251 C1250 1.370 . S
C1251 C1252 1.403 . S
C1252 C1251 1.403 . S
C1252 C1253 1.404 . S
C1252 C1255 1.539 . S
C1253 C1249 1.408 . S
C1253 C1252 1.404 . S
C1253 H1265 0.930 . S
C1254 C1250 1.524 . S
C1254 H1266 0.956 . S
C1254 H1267 0.961 . S
C1254 H1268 0.961 . S
C1255 C1252 1.539 . S
C1255 H1269 0.958 . S
C1255 H1270 0.961 . S
C1255 H1271 0.960 . S
H1256 C1240 0.931 . S
H1257 C1245 0.929 . S
H1258 C1246 0.960 . S
H1259 C1246 0.962 . S
H1260 C1246 0.960 . S
H1261 C1247 0.961 . S
H1262 C1247 0.961 . S
H1263 C1247 0.961 . S
H1264 C1248 0.931 . S
H1265 C1253 0.930 . S
H1266 C1254 0.956 . S
H1267 C1254 0.961 . S
H1268 C1254 0.961 . S
H1269 C1255 0.958 . S
H1270 C1255 0.961 . S
H1271 C1255 0.960 . S
C1272 C1273 1.391 . S
C1272 C1274 1.394 . S
C1272 H1288 0.931 . S
C1273 C1272 1.391 . S
C1273 C1277 1.376 . S
C1274 C1272 1.394 . S
C1274 C1275 1.369 . S
C1274 C1278 1.531 . S
C1275 C1274 1.369 . S
C1275 C1276 1.410 . S
C1275 C1283 1.503 . S
C1276 C1275 1.410 . S
C1276 C1277 1.392 . S
C1276 C1279 1.511 . S
C1277 C1273 1.376 . S
C1277 C1276 1.392 . S
C1277 H1289 0.929 . S
C1278 C1274 1.531 . S
C1278 H1290 0.960 . S
C1278 H1291 0.962 . S
C1278 H1292 0.960 . S
C1279 C1276 1.511 . S
C1279 H1293 0.961 . S
C1279 H1294 0.961 . S
C1279 H1295 0.961 . S
C1280 C1281 1.370 . S
C1280 C1282 1.363 . S
C1280 H1296 0.931 . S
C1281 C1280 1.370 . S
C1281 C1285 1.408 . S
C1282 C1280 1.363 . S
C1282 C1283 1.370 . S
C1282 C1286 1.524 . S
C1283 C1275 1.503 . S
C1283 C1282 1.370 . S
C1283 C1284 1.403 . S
C1284 C1283 1.403 . S
C1284 C1285 1.404 . S
C1284 C1287 1.539 . S
C1285 C1281 1.408 . S
C1285 C1284 1.404 . S
C1285 H1297 0.930 . S
C1286 C1282 1.524 . S
C1286 H1298 0.956 . S
C1286 H1299 0.961 . S
C1286 H1300 0.961 . S
C1287 C1284 1.539 . S
C1287 H1301 0.958 . S
C1287 H1302 0.961 . S
C1287 H1303 0.960 . S
H1288 C1272 0.931 . S
H1289 C1277 0.929 . S
H1290 C1278 0.960 . S
H1291 C1278 0.962 . S
H1292 C1278 0.960 . S
H1293 C1279 0.961 . S
H1294 C1279 0.961 . S
H1295 C1279 0.961 . S
H1296 C1280 0.931 . S
H1297 C1285 0.930 . S
H1298 C1286 0.956 . S
H1299 C1286 0.961 . S
H1300 C1286 0.961 . S
H1301 C1287 0.958 . S
H1302 C1287 0.961 . S
H1303 C1287 0.960 . S
C1304 C1305 1.391 . S
C1304 C1306 1.394 . S
C1304 H1320 0.931 . S
C1305 C1304 1.391 . S
C1305 C1309 1.376 . S
C1306 C1304 1.394 . S
C1306 C1307 1.369 . S
C1306 C1310 1.531 . S
C1307 C1306 1.369 . S
C1307 C1308 1.410 . S
C1307 C1315 1.503 . S
C1308 C1307 1.410 . S
C1308 C1309 1.392 . S
C1308 C1311 1.511 . S
C1309 C1305 1.376 . S
C1309 C1308 1.392 . S
C1309 H1321 0.929 . S
C1310 C1306 1.531 . S
C1310 H1322 0.960 . S
C1310 H1323 0.962 . S
C1310 H1324 0.960 . S
C1311 C1308 1.511 . S
C1311 H1325 0.961 . S
C1311 H1326 0.961 . S
C1311 H1327 0.961 . S
C1312 C1313 1.370 . S
C1312 C1314 1.363 . S
C1312 H1328 0.931 . S
C1313 C1312 1.370 . S
C1313 C1317 1.408 . S
C1314 C1312 1.363 . S
C1314 C1315 1.370 . S
C1314 C1318 1.524 . S
C1315 C1307 1.503 . S
C1315 C1314 1.370 . S
C1315 C1316 1.403 . S
C1316 C1315 1.403 . S
C1316 C1317 1.404 . S
C1316 C1319 1.539 . S
C1317 C1313 1.408 . S
C1317 C1316 1.404 . S
C1317 H1329 0.930 . S
C1318 C1314 1.524 . S
C1318 H1330 0.956 . S
C1318 H1331 0.961 . S
C1318 H1332 0.961 . S
C1319 C1316 1.539 . S
C1319 H1333 0.958 . S
C1319 H1334 0.961 . S
C1319 H1335 0.960 . S
H1320 C1304 0.931 . S
H1321 C1309 0.929 . S
H1322 C1310 0.960 . S
H1323 C1310 0.962 . S
H1324 C1310 0.960 . S
H1325 C1311 0.961 . S
H1326 C1311 0.961 . S
H1327 C1311 0.961 . S
H1328 C1312 0.931 . S
H1329 C1317 0.930 . S
H1330 C1318 0.956 . S
H1331 C1318 0.961 . S
H1332 C1318 0.961 . S
H1333 C1319 0.958 . S
H1334 C1319 0.961 . S
H1335 C1319 0.960 . S
C1336 C1337 1.391 . S
C1336 C1338 1.394 . S
C1336 H1352 0.931 . S
C1337 C1336 1.391 . S
C1337 C1341 1.376 . S
C1338 C1336 1.394 . S
C1338 C1339 1.369 . S
C1338 C1342 1.531 . S
C1339 C1338 1.369 . S
C1339 C1340 1.410 . S
C1339 C1347 1.503 . S
C1340 C1339 1.410 . S
C1340 C1341 1.392 . S
C1340 C1343 1.511 . S
C1341 C1337 1.376 . S
C1341 C1340 1.392 . S
C1341 H1353 0.929 . S
C1342 C1338 1.531 . S
C1342 H1354 0.960 . S
C1342 H1355 0.962 . S
C1342 H1356 0.960 . S
C1343 C1340 1.511 . S
C1343 H1357 0.961 . S
C1343 H1358 0.961 . S
C1343 H1359 0.961 . S
C1344 C1345 1.370 . S
C1344 C1346 1.363 . S
C1344 H1360 0.931 . S
C1345 C1344 1.370 . S
C1345 C1349 1.408 . S
C1346 C1344 1.363 . S
C1346 C1347 1.370 . S
C1346 C1350 1.524 . S
C1347 C1339 1.503 . S
C1347 C1346 1.370 . S
C1347 C1348 1.403 . S
C1348 C1347 1.403 . S
C1348 C1349 1.404 . S
C1348 C1351 1.539 . S
C1349 C1345 1.408 . S
C1349 C1348 1.404 . S
C1349 H1361 0.930 . S
C1350 C1346 1.524 . S
C1350 H1362 0.956 . S
C1350 H1363 0.961 . S
C1350 H1364 0.961 . S
C1351 C1348 1.539 . S
C1351 H1365 0.958 . S
C1351 H1366 0.961 . S
C1351 H1367 0.960 . S
H1352 C1336 0.931 . S
H1353 C1341 0.929 . S
H1354 C1342 0.960 . S
H1355 C1342 0.962 . S
H1356 C1342 0.960 . S
H1357 C1343 0.961 . S
H1358 C1343 0.961 . S
H1359 C1343 0.961 . S
H1360 C1344 0.931 . S
H1361 C1349 0.930 . S
H1362 C1350 0.956 . S
H1363 C1350 0.961 . S
H1364 C1350 0.961 . S
H1365 C1351 0.958 . S
H1366 C1351 0.961 . S
H1367 C1351 0.960 . S
C1368 C1369 1.391 . S
C1368 C1370 1.394 . S
C1368 H1384 0.931 . S
C1369 C1368 1.391 . S
C1369 C1373 1.376 . S
C1370 C1368 1.394 . S
C1370 C1371 1.369 . S
C1370 C1374 1.531 . S
C1371 C1370 1.369 . S
C1371 C1372 1.410 . S
C1371 C1379 1.503 . S
C1372 C1371 1.410 . S
C1372 C1373 1.392 . S
C1372 C1375 1.511 . S
C1373 C1369 1.376 . S
C1373 C1372 1.392 . S
C1373 H1385 0.929 . S
C1374 C1370 1.531 . S
C1374 H1386 0.960 . S
C1374 H1387 0.962 . S
C1374 H1388 0.960 . S
C1375 C1372 1.511 . S
C1375 H1389 0.961 . S
C1375 H1390 0.961 . S
C1375 H1391 0.961 . S
C1376 C1377 1.370 . S
C1376 C1378 1.363 . S
C1376 H1392 0.931 . S
C1377 C1376 1.370 . S
C1377 C1381 1.408 . S
C1378 C1376 1.363 . S
C1378 C1379 1.370 . S
C1378 C1382 1.524 . S
C1379 C1371 1.503 . S
C1379 C1378 1.370 . S
C1379 C1380 1.403 . S
C1380 C1379 1.403 . S
C1380 C1381 1.404 . S
C1380 C1383 1.539 . S
C1381 C1377 1.408 . S
C1381 C1380 1.404 . S
C1381 H1393 0.930 . S
C1382 C1378 1.524 . S
C1382 H1394 0.956 . S
C1382 H1395 0.961 . S
C1382 H1396 0.961 . S
C1383 C1380 1.539 . S
C1383 H1397 0.958 . S
C1383 H1398 0.961 . S
C1383 H1399 0.960 . S
H1384 C1368 0.931 . S
H1385 C1373 0.929 . S
H1386 C1374 0.960 . S
H1387 C1374 0.962 . S
H1388 C1374 0.960 . S
H1389 C1375 0.961 . S
H1390 C1375 0.961 . S
H1391 C1375 0.961 . S
H1392 C1376 0.931 . S
H1393 C1381 0.930 . S
H1394 C1382 0.956 . S
H1395 C1382 0.961 . S
H1396 C1382 0.961 . S
H1397 C1383 0.958 . S
H1398 C1383 0.961 . S
H1399 C1383 0.960 . S
C1400 C1401 1.391 . S
C1400 C1402 1.394 . S
C1400 H1416 0.931 . S
C1401 C1400 1.391 . S
C1401 C1405 1.376 . S
C1402 C1400 1.394 . S
C1402 C1403 1.369 . S
C1402 C1406 1.531 . S
C1403 C1402 1.369 . S
C1403 C1404 1.410 . S
C1403 C1411 1.503 . S
C1404 C1403 1.410 . S
C1404 C1405 1.392 . S
C1404 C1407 1.511 . S
C1405 C1401 1.376 . S
C1405 C1404 1.392 . S
C1405 H1417 0.929 . S
C1406 C1402 1.531 . S
C1406 H1418 0.960 . S
C1406 H1419 0.962 . S
C1406 H1420 0.960 . S
C1407 C1404 1.511 . S
C1407 H1421 0.961 . S
C1407 H1422 0.961 . S
C1407 H1423 0.961 . S
C1408 C1409 1.370 . S
C1408 C1410 1.363 . S
C1408 H1424 0.931 . S
C1409 C1408 1.370 . S
C1409 C1413 1.408 . S
C1410 C1408 1.363 . S
C1410 C1411 1.370 . S
C1410 C1414 1.524 . S
C1411 C1403 1.503 . S
C1411 C1410 1.370 . S
C1411 C1412 1.403 . S
C1412 C1411 1.403 . S
C1412 C1413 1.404 . S
C1412 C1415 1.539 . S
C1413 C1409 1.408 . S
C1413 C1412 1.404 . S
C1413 H1425 0.930 . S
C1414 C1410 1.524 . S
C1414 H1426 0.956 . S
C1414 H1427 0.961 . S
C1414 H1428 0.961 . S
C1415 C1412 1.539 . S
C1415 H1429 0.958 . S
C1415 H1430 0.961 . S
C1415 H1431 0.960 . S
H1416 C1400 0.931 . S
H1417 C1405 0.929 . S
H1418 C1406 0.960 . S
H1419 C1406 0.962 . S
H1420 C1406 0.960 . S
H1421 C1407 0.961 . S
H1422 C1407 0.961 . S
H1423 C1407 0.961 . S
H1424 C1408 0.931 . S
H1425 C1413 0.930 . S
H1426 C1414 0.956 . S
H1427 C1414 0.961 . S
H1428 C1414 0.961 . S
H1429 C1415 0.958 . S
H1430 C1415 0.961 . S
H1431 C1415 0.960 . S
C1432 C1433 1.391 . S
C1432 C1434 1.394 . S
C1432 H1448 0.931 . S
C1433 C1432 1.391 . S
C1433 C1437 1.376 . S
C1434 C1432 1.394 . S
C1434 C1435 1.369 . S
C1434 C1438 1.531 . S
C1435 C1434 1.369 . S
C1435 C1436 1.410 . S
C1435 C1443 1.503 . S
C1436 C1435 1.410 . S
C1436 C1437 1.392 . S
C1436 C1439 1.511 . S
C1437 C1433 1.376 . S
C1437 C1436 1.392 . S
C1437 H1449 0.929 . S
C1438 C1434 1.531 . S
C1438 H1450 0.960 . S
C1438 H1451 0.962 . S
C1438 H1452 0.960 . S
C1439 C1436 1.511 . S
C1439 H1453 0.961 . S
C1439 H1454 0.961 . S
C1439 H1455 0.961 . S
C1440 C1441 1.370 . S
C1440 C1442 1.363 . S
C1440 H1456 0.931 . S
C1441 C1440 1.370 . S
C1441 C1445 1.408 . S
C1442 C1440 1.363 . S
C1442 C1443 1.370 . S
C1442 C1446 1.524 . S
C1443 C1435 1.503 . S
C1443 C1442 1.370 . S
C1443 C1444 1.403 . S
C1444 C1443 1.403 . S
C1444 C1445 1.404 . S
C1444 C1447 1.539 . S
C1445 C1441 1.408 . S
C1445 C1444 1.404 . S
C1445 H1457 0.930 . S
C1446 C1442 1.524 . S
C1446 H1458 0.956 . S
C1446 H1459 0.961 . S
C1446 H1460 0.961 . S
C1447 C1444 1.539 . S
C1447 H1461 0.958 . S
C1447 H1462 0.961 . S
C1447 H1463 0.960 . S
H1448 C1432 0.931 . S
H1449 C1437 0.929 . S
H1450 C1438 0.960 . S
H1451 C1438 0.962 . S
H1452 C1438 0.960 . S
H1453 C1439 0.961 . S
H1454 C1439 0.961 . S
H1455 C1439 0.961 . S
H1456 C1440 0.931 . S
H1457 C1445 0.930 . S
H1458 C1446 0.956 . S
H1459 C1446 0.961 . S
H1460 C1446 0.961 . S
H1461 C1447 0.958 . S
H1462 C1447 0.961 . S
H1463 C1447 0.960 . S
C1464 C1465 1.391 . S
C1464 C1466 1.394 . S
C1464 H1480 0.931 . S
C1465 C1464 1.391 . S
C1465 C1469 1.376 . S
C1466 C1464 1.394 . S
C1466 C1467 1.369 . S
C1466 C1470 1.531 . S
C1467 C1466 1.369 . S
C1467 C1468 1.410 . S
C1467 C1475 1.503 . S
C1468 C1467 1.410 . S
C1468 C1469 1.392 . S
C1468 C1471 1.511 . S
C1469 C1465 1.376 . S
C1469 C1468 1.392 . S
C1469 H1481 0.929 . S
C1470 C1466 1.531 . S
C1470 H1482 0.960 . S
C1470 H1483 0.962 . S
C1470 H1484 0.960 . S
C1471 C1468 1.511 . S
C1471 H1485 0.961 . S
C1471 H1486 0.961 . S
C1471 H1487 0.961 . S
C1472 C1473 1.370 . S
C1472 C1474 1.363 . S
C1472 H1488 0.931 . S
C1473 C1472 1.370 . S
C1473 C1477 1.408 . S
C1474 C1472 1.363 . S
C1474 C1475 1.370 . S
C1474 C1478 1.524 . S
C1475 C1467 1.503 . S
C1475 C1474 1.370 . S
C1475 C1476 1.403 . S
C1476 C1475 1.403 . S
C1476 C1477 1.404 . S
C1476 C1479 1.539 . S
C1477 C1473 1.408 . S
C1477 C1476 1.404 . S
C1477 H1489 0.930 . S
C1478 C1474 1.524 . S
C1478 H1490 0.956 . S
C1478 H1491 0.961 . S
C1478 H1492 0.961 . S
C1479 C1476 1.539 . S
C1479 H1493 0.958 . S
C1479 H1494 0.961 . S
C1479 H1495 0.960 . S
H1480 C1464 0.931 . S
H1481 C1469 0.929 . S
H1482 C1470 0.960 . S
H1483 C1470 0.962 . S
H1484 C1470 0.960 . S
H1485 C1471 0.961 . S
H1486 C1471 0.961 . S
H1487 C1471 0.961 . S
H1488 C1472 0.931 . S
H1489 C1477 0.930 . S
H1490 C1478 0.956 . S
H1491 C1478 0.961 . S
H1492 C1478 0.961 . S
H1493 C1479 0.958 . S
H1494 C1479 0.961 . S
H1495 C1479 0.960 . S
C481 C384 1.330 . S
C473 C8 1.303 . S
C513 C398 1.314 . S
C505 C61 1.290 . S
C545 C411 1.324 . S
C537 C107 1.286 . S
C569 C139 1.291 . S
C577 C378 1.325 . S
C601 C192 1.300 . S
C609 C371 1.337 . S
C633 C238 1.304 . S
C641 C391 1.334 . S
C673 C399 1.332 . S
C665 C284 1.320 . S
C705 C412 1.327 . S
C697 C330 1.335 . S
C729 C100 1.294 . S
C737 C438 1.328 . S
C769 C456 1.319 . S
C761 C160 1.321 . S
C793 C15 1.292 . S
C801 C463 1.327 . S
C833 C430 1.327 . S
C825 C54 1.332 . S
C857 C291 1.298 . S
C865 C423 1.329 . S
C889 C337 1.288 . S
C897 C437 1.327 . S
C929 C449 1.329 . S
C921 C199 1.333 . S
C953 C245 1.296 . S
C961 C464 1.332 . S
C993 C397 1.736 . S
C985 C1 1.757 . S
C1025 C410 1.741 . S
C1017 C68 1.725 . S
C1049 C114 1.746 . S
C1057 C373 1.724 . S
C1081 C146 1.749 . S
C1089 C385 1.721 . S
C1113 C185 1.720 . S
C1121 C417 1.714 . S
C1153 C372 1.718 . S
C1145 C231 1.746 . S
C1185 C386 1.737 . S
C1177 C277 1.748 . S
C1217 C404 1.719 . S
C1209 C323 1.750 . S
C1249 C451 1.735 . S
C1241 C93 1.733 . S
C1281 C462 1.733 . S
C1273 C153 1.729 . S
C1305 C22 1.728 . S
C1313 C425 1.724 . S
C1345 C443 1.712 . S
C1337 C47 1.738 . S
C1377 C469 1.707 . S
C1369 C298 1.722 . S
C1401 C344 1.741 . S
C1409 C424 1.712 . S
C1441 C436 1.725 . S
C1433 C206 1.728 . S
C1473 C450 1.713 . S
C1465 C252 1.740 . S
