# Generated by pormake.
# Topology apo, (3,6)-cn, num edge types: 1
# Building blocks:
#     Node 0, Type 0, BuildingBlock: VETTIZ_charged_linker_0, # of connection points: 3
#     Node 1, Type 0, BuildingBlock: VETTIZ_charged_linker_0, # of connection points: 3
#     Node 2, Type 0, BuildingBlock: VETTIZ_charged_linker_0, # of connection points: 3
#     Node 3, Type 0, BuildingBlock: VETTIZ_charged_linker_0, # of connection points: 3
#     Node 4, Type 0, BuildingBlock: VETTIZ_charged_linker_0, # of connection points: 3
#     Node 5, Type 0, BuildingBlock: VETTIZ_charged_linker_0, # of connection points: 3
#     Node 6, Type 0, BuildingBlock: VETTIZ_charged_linker_0, # of connection points: 3
#     Node 7, Type 0, BuildingBlock: VETTIZ_charged_linker_0, # of connection points: 3
#     Node 8, Type 1, BuildingBlock: KUMBUR_clean_sbu_1, # of connection points: 6
#     Node 9, Type 1, BuildingBlock: KUMBUR_clean_sbu_1, # of connection points: 6
#     Node 10, Type 1, BuildingBlock: KUMBUR_clean_sbu_1, # of connection points: 6
#     Node 11, Type 1, BuildingBlock: KUMBUR_clean_sbu_1, # of connection points: 6
#     Edge 12, Type (0, 1), BuildingBlock: XUDNAN_clean_linker_2, # of connection points: 2
#     Edge 13, Type (0, 1), BuildingBlock: XUDNAN_clean_linker_2, # of connection points: 2
#     Edge 14, Type (0, 1), BuildingBlock: XUDNAN_clean_linker_2, # of connection points: 2
#     Edge 15, Type (0, 1), BuildingBlock: XUDNAN_clean_linker_2, # of connection points: 2
#     Edge 16, Type (0, 1), BuildingBlock: XUDNAN_clean_linker_2, # of connection points: 2
#     Edge 17, Type (0, 1), BuildingBlock: XUDNAN_clean_linker_2, # of connection points: 2
#     Edge 18, Type (0, 1), BuildingBlock: XUDNAN_clean_linker_2, # of connection points: 2
#     Edge 19, Type (0, 1), BuildingBlock: XUDNAN_clean_linker_2, # of connection points: 2
#     Edge 20, Type (0, 1), BuildingBlock: XUDNAN_clean_linker_2, # of connection points: 2
#     Edge 21, Type (0, 1), BuildingBlock: XUDNAN_clean_linker_2, # of connection points: 2
#     Edge 22, Type (0, 1), BuildingBlock: XUDNAN_clean_linker_2, # of connection points: 2
#     Edge 23, Type (0, 1), BuildingBlock: XUDNAN_clean_linker_2, # of connection points: 2
#     Edge 24, Type (0, 1), BuildingBlock: XUDNAN_clean_linker_2, # of connection points: 2
#     Edge 25, Type (0, 1), BuildingBlock: XUDNAN_clean_linker_2, # of connection points: 2
#     Edge 26, Type (0, 1), BuildingBlock: XUDNAN_clean_linker_2, # of connection points: 2
#     Edge 27, Type (0, 1), BuildingBlock: XUDNAN_clean_linker_2, # of connection points: 2
#     Edge 28, Type (0, 1), BuildingBlock: XUDNAN_clean_linker_2, # of connection points: 2
#     Edge 29, Type (0, 1), BuildingBlock: XUDNAN_clean_linker_2, # of connection points: 2
#     Edge 30, Type (0, 1), BuildingBlock: XUDNAN_clean_linker_2, # of connection points: 2
#     Edge 31, Type (0, 1), BuildingBlock: XUDNAN_clean_linker_2, # of connection points: 2
#     Edge 32, Type (0, 1), BuildingBlock: XUDNAN_clean_linker_2, # of connection points: 2
#     Edge 33, Type (0, 1), BuildingBlock: XUDNAN_clean_linker_2, # of connection points: 2
#     Edge 34, Type (0, 1), BuildingBlock: XUDNAN_clean_linker_2, # of connection points: 2
#     Edge 35, Type (0, 1), BuildingBlock: XUDNAN_clean_linker_2, # of connection points: 2
# Relax obj value: 0.010
# Max RMSD: 0.096
# Mean RMSD: 0.076
data_MOF--net-apo--node1-KUMBUR_clean_sbu_1--node2-VETTIZ_charged_linker_0--edge1-XUDNAN_clean_linker_2
_symmetry_space_group_name_H-M    P1
_symmetry_Int_Tables_number       1
_symmetry_cell_setting            triclinic
loop_
_symmetry_equiv_pos_as_xyz
'x, y, z'
_cell_length_a     29.007473
_cell_length_b     51.92016
_cell_length_c     63.26064
_cell_angle_alpha  90.038257
_cell_angle_beta   90.044327
_cell_angle_gamma 90.404948
loop_
_atom_site_label
_atom_site_type_symbol
_atom_site_fract_x
_atom_site_fract_y
_atom_site_fract_z
_atom_type_partial_charge
C0 C 0.30398 0.36338 0.49016 0.0
C1 C 0.32475 0.38264 0.50278 0.0
C2 C 0.33696 0.40633 0.49335 0.0
C3 C 0.30957 0.3912 0.45938 0.0
C4 C 0.29671 0.36808 0.46854 0.0
C5 C 0.2754 0.34984 0.45264 0.0
H6 H 0.21361 0.32754 0.35051 0.0
C7 C 0.29833 0.38999 0.43666 0.0
C8 C 0.27803 0.36582 0.43252 0.0
H9 H 0.20006 0.27468 0.40288 0.0
H10 H 0.23093 0.30734 0.42675 0.0
H11 H 0.18085 0.3791 0.37519 0.0
H12 H 0.31061 0.34417 0.36057 0.0
H13 H 0.32165 0.37738 0.36006 0.0
H14 H 0.28066 0.36359 0.34168 0.0
H15 H 0.20474 0.37775 0.34905 0.0
H16 H 0.21808 0.40392 0.36681 0.0
C17 C 0.22501 0.34439 0.45933 0.0
C18 C 0.30573 0.32551 0.45133 0.0
C19 C 0.33886 0.46575 0.38894 0.0
C20 C 0.33464 0.46962 0.36702 0.0
C21 C 0.31515 0.45003 0.35442 0.0
C22 C 0.29967 0.42699 0.36351 0.0
C23 C 0.30404 0.42334 0.38544 0.0
C24 C 0.32364 0.44246 0.39775 0.0
C25 C 0.3266 0.43481 0.42066 0.0
C26 C 0.30538 0.40796 0.42002 0.0
C27 C 0.29199 0.40154 0.3994 0.0
C28 C 0.29684 0.45376 0.43367 0.0
C29 C 0.37825 0.4343 0.42699 0.0
C30 C 0.21728 0.32284 0.36711 0.0
C31 C 0.20503 0.29839 0.37476 0.0
C32 C 0.20936 0.29341 0.3966 0.0
C33 C 0.22758 0.31231 0.41035 0.0
C34 C 0.24153 0.33637 0.40213 0.0
C35 C 0.23578 0.34119 0.38082 0.0
C36 C 0.25365 0.3671 0.37428 0.0
C37 C 0.27091 0.3774 0.3952 0.0
C38 C 0.26379 0.35952 0.41159 0.0
C39 C 0.2125 0.3829 0.36572 0.0
C40 C 0.29349 0.36307 0.35822 0.0
H41 H 0.33978 0.4291 0.46572 0.0
H42 H 0.29423 0.34494 0.49686 0.0
H43 H 0.34294 0.33084 0.45179 0.0
H44 H 0.301 0.31476 0.43643 0.0
H45 H 0.29873 0.31236 0.46481 0.0
H46 H 0.20834 0.36231 0.46507 0.0
H47 H 0.22354 0.33001 0.47232 0.0
H48 H 0.20326 0.33755 0.44614 0.0
H49 H 0.35418 0.48041 0.39898 0.0
H50 H 0.31115 0.45272 0.33754 0.0
H51 H 0.28479 0.41296 0.35305 0.0
H52 H 0.2658 0.45969 0.4246 0.0
H53 H 0.31661 0.4715 0.4377 0.0
H54 H 0.28303 0.44514 0.44834 0.0
H55 H 0.40004 0.42795 0.41352 0.0
H56 H 0.3857 0.42039 0.43972 0.0
H57 H 0.39059 0.45371 0.43189 0.0
H58 H 0.35187 0.42175 0.50271 0.0
C59 C 0.32956 0.41067 0.47182 0.0
C60 C 0.29356 0.18252 0.86836 0.0
C61 C 0.31091 0.2046 0.87861 0.0
C62 C 0.29881 0.20908 0.89987 0.0
C63 C 0.25474 0.1693 0.90064 0.0
C64 C 0.26588 0.16511 0.87968 0.0
C65 C 0.24628 0.14009 0.87152 0.0
H66 H 0.14034 0.02618 0.89202 0.0
C67 C 0.22749 0.14699 0.90815 0.0
C68 C 0.22261 0.12971 0.8912 0.0
H69 H 0.18837 0.05463 0.83178 0.0
H70 H 0.21139 0.095 0.84804 0.0
H71 H 0.22256 0.04886 0.92113 0.0
H72 H 0.08925 0.07805 0.90403 0.0
H73 H 0.09868 0.0872 0.93037 0.0
H74 H 0.09612 0.05343 0.92363 0.0
H75 H 0.1696 0.03543 0.93099 0.0
H76 H 0.19784 0.0621 0.94403 0.0
C77 C 0.28693 0.1229 0.86451 0.0
C78 C 0.21131 0.1462 0.8537 0.0
C79 C 0.17171 0.14388 0.98434 0.0
C80 C 0.1486 0.12488 0.99618 0.0
C81 C 0.13684 0.10132 0.98645 0.0
C82 C 0.14756 0.09678 0.9652 0.0
C83 C 0.17061 0.11594 0.95352 0.0
C84 C 0.18261 0.13894 0.96315 0.0
C85 C 0.20874 0.15658 0.9485 0.0
C86 C 0.20885 0.14076 0.92829 0.0
C87 C 0.1865 0.117 0.93135 0.0
C88 C 0.25802 0.16051 0.95756 0.0
C89 C 0.18083 0.1817 0.94597 0.0
C90 C 0.15611 0.04113 0.88245 0.0
C91 C 0.16334 0.03734 0.86075 0.0
C92 C 0.18283 0.05729 0.84857 0.0
C93 C 0.19621 0.0806 0.85805 0.0
C94 C 0.18954 0.08403 0.87989 0.0
C95 C 0.16883 0.06468 0.8916 0.0
C96 C 0.16141 0.07241 0.91424 0.0
C97 C 0.18216 0.09932 0.91433 0.0
C98 C 0.19928 0.10586 0.89426 0.0
C99 C 0.1889 0.05373 0.9285 0.0
C100 C 0.10876 0.07267 0.91851 0.0
H101 H 0.26307 0.1961 0.92706 0.0
H102 H 0.30246 0.17847 0.85207 0.0
H103 H 0.19515 0.16535 0.85612 0.0
H104 H 0.182 0.13247 0.85333 0.0
H105 H 0.22832 0.14648 0.83798 0.0
H106 H 0.31536 0.1238 0.87631 0.0
H107 H 0.30104 0.12939 0.84907 0.0
H108 H 0.27759 0.10235 0.86323 0.0
H109 H 0.18199 0.16197 0.99154 0.0
H110 H 0.11898 0.08643 0.9953 0.0
H111 H 0.13762 0.07847 0.95872 0.0
H112 H 0.26922 0.14346 0.96684 0.0
H113 H 0.25969 0.1775 0.96822 0.0
H114 H 0.28447 0.1626 0.9451 0.0
H115 H 0.14332 0.17734 0.94466 0.0
H116 H 0.18958 0.19244 0.93145 0.0
H117 H 0.18586 0.19459 0.95982 0.0
H118 H 0.31109 0.22616 0.90802 0.0
C119 C 0.2708 0.19162 0.9109 0.0
C120 C 0.80301 0.15069 0.53789 0.0
C121 C 0.82896 0.13361 0.52545 0.0
C122 C 0.84671 0.11115 0.53483 0.0
C123 C 0.81341 0.12312 0.56854 0.0
C124 C 0.79535 0.14498 0.55929 0.0
C125 C 0.76712 0.16051 0.57463 0.0
H126 H 0.68844 0.17495 0.67495 0.0
C127 C 0.7992 0.1227 0.59096 0.0
C128 C 0.77165 0.14453 0.59461 0.0
H129 H 0.65903 0.22436 0.62173 0.0
H130 H 0.70648 0.19735 0.59917 0.0
H131 H 0.66955 0.12447 0.65172 0.0
H132 H 0.79302 0.1668 0.66561 0.0
H133 H 0.80728 0.13439 0.66931 0.0
H134 H 0.76203 0.14838 0.68499 0.0
H135 H 0.69752 0.12236 0.67692 0.0
H136 H 0.71123 0.10066 0.65551 0.0
C137 C 0.71679 0.16122 0.56654 0.0
C138 C 0.78987 0.18738 0.57703 0.0
C139 C 0.85943 0.05341 0.64126 0.0
C140 C 0.85251 0.04957 0.66309 0.0
C141 C 0.82067 0.06509 0.67389 0.0
C142 C 0.79794 0.08498 0.66362 0.0
C143 C 0.80677 0.08961 0.64217 0.0
C144 C 0.83614 0.07367 0.63112 0.0
C145 C 0.83983 0.0816 0.6082 0.0
C146 C 0.80911 0.10535 0.60775 0.0
C147 C 0.79035 0.10983 0.62777 0.0
C148 C 0.82011 0.05946 0.59439 0.0
C149 C 0.89083 0.08846 0.60356 0.0
C150 C 0.69133 0.17993 0.65838 0.0
C151 C 0.66912 0.20161 0.65011 0.0
C152 C 0.67565 0.2077 0.62855 0.0
C153 C 0.70297 0.19191 0.61547 0.0
C154 C 0.72389 0.16982 0.62406 0.0
C155 C 0.71759 0.16435 0.64522 0.0
C156 C 0.74094 0.14018 0.65204 0.0
C157 C 0.76275 0.13174 0.63151 0.0
C158 C 0.75315 0.14909 0.61509 0.0
C159 C 0.70321 0.12087 0.6596 0.0
C160 C 0.77757 0.14755 0.66896 0.0
H161 H 0.85381 0.08853 0.56249 0.0
H162 H 0.78829 0.16788 0.53103 0.0
H163 H 0.82799 0.18563 0.57823 0.0
H164 H 0.77908 0.19749 0.59152 0.0
H165 H 0.78208 0.19974 0.56317 0.0
H166 H 0.70662 0.14233 0.55956 0.0
H167 H 0.71256 0.17615 0.55413 0.0
H168 H 0.69162 0.16469 0.57927 0.0
H169 H 0.88337 0.04155 0.63252 0.0
H170 H 0.81381 0.06205 0.69055 0.0
H171 H 0.77503 0.09629 0.67303 0.0
H172 H 0.79243 0.04871 0.60287 0.0
H173 H 0.84732 0.04543 0.59015 0.0
H174 H 0.80339 0.06648 0.5798 0.0
H175 H 0.90577 0.10007 0.61671 0.0
H176 H 0.89531 0.10034 0.58925 0.0
H177 H 0.91186 0.07078 0.60187 0.0
H178 H 0.86696 0.09779 0.52559 0.0
C179 C 0.83918 0.10586 0.55627 0.0
C180 C 0.80834 0.32663 0.15794 0.0
C181 C 0.83071 0.30497 0.1496 0.0
C182 C 0.82578 0.2996 0.12782 0.0
C183 C 0.77897 0.33801 0.12324 0.0
C184 C 0.78339 0.34282 0.14461 0.0
C185 C 0.75971 0.36704 0.15132 0.0
H186 H 0.62243 0.46789 0.12979 0.0
C187 C 0.75134 0.35926 0.11399 0.0
C188 C 0.74033 0.37629 0.13044 0.0
H189 H 0.68391 0.44522 0.1892 0.0
H190 H 0.72369 0.41097 0.17212 0.0
H191 H 0.71857 0.45955 0.10237 0.0
H192 H 0.60063 0.40965 0.11175 0.0
H193 H 0.61488 0.4109 0.08463 0.0
H194 H 0.59736 0.43981 0.09793 0.0
H195 H 0.66471 0.46517 0.08922 0.0
H196 H 0.70708 0.44346 0.07848 0.0
C197 C 0.7968 0.38587 0.16024 0.0
C198 C 0.72108 0.35945 0.16716 0.0
C199 C 0.71206 0.35931 0.0356 0.0
C200 C 0.6885 0.37665 0.02244 0.0
C201 C 0.67052 0.39935 0.03137 0.0
C202 C 0.67514 0.40445 0.05311 0.0
C203 C 0.69843 0.3868 0.06609 0.0
C204 C 0.71695 0.36483 0.0572 0.0
C205 C 0.74241 0.34878 0.07315 0.0
C206 C 0.73569 0.3645 0.09313 0.0
C207 C 0.70945 0.38672 0.089 0.0
C208 C 0.79374 0.34766 0.06652 0.0
C209 C 0.71835 0.32214 0.07457 0.0
C210 C 0.64482 0.45557 0.13895 0.0
C211 C 0.64904 0.45887 0.16103 0.0
C212 C 0.679 0.44268 0.17234 0.0
C213 C 0.7023 0.42274 0.16234 0.0
C214 C 0.69608 0.41869 0.14062 0.0
C215 C 0.66872 0.43523 0.12907 0.0
C216 C 0.668 0.42791 0.1059 0.0
C217 C 0.69788 0.40378 0.10585 0.0
C218 C 0.7138 0.39859 0.12633 0.0
C219 C 0.6904 0.45015 0.09316 0.0
C220 C 0.61761 0.42184 0.09952 0.0
H221 H 0.79789 0.31104 0.09815 0.0
H222 H 0.81026 0.33112 0.17464 0.0
H223 H 0.70506 0.34065 0.16276 0.0
H224 H 0.69209 0.3731 0.16735 0.0
H225 H 0.73496 0.35752 0.18344 0.0
H226 H 0.83122 0.38234 0.15308 0.0
H227 H 0.80053 0.38375 0.17763 0.0
H228 H 0.78953 0.40625 0.15646 0.0
H229 H 0.72694 0.34192 0.02915 0.0
H230 H 0.65212 0.41296 0.02157 0.0
H231 H 0.66027 0.4219 0.059 0.0
H232 H 0.80513 0.36626 0.05945 0.0
H233 H 0.79948 0.33231 0.05459 0.0
H234 H 0.81719 0.34461 0.08003 0.0
H235 H 0.68021 0.32428 0.07417 0.0
H236 H 0.7258 0.31194 0.08946 0.0
H237 H 0.72834 0.30966 0.06108 0.0
H238 H 0.84266 0.28309 0.1209 0.0
C239 C 0.80004 0.31599 0.11461 0.0
C240 C 0.67401 0.55321 0.65563 0.0
C241 C 0.64258 0.53446 0.64859 0.0
C242 C 0.63047 0.53352 0.62706 0.0
C243 C 0.67924 0.5708 0.62007 0.0
C244 C 0.69177 0.57116 0.64119 0.0
C245 C 0.72358 0.59324 0.6464 0.0
H246 H 0.82215 0.70586 0.61757 0.0
C247 C 0.70142 0.59325 0.60964 0.0
C248 C 0.72742 0.60643 0.62506 0.0
H249 H 0.83477 0.66586 0.67738 0.0
H250 H 0.78919 0.63082 0.66378 0.0
H251 H 0.84644 0.65756 0.59093 0.0
H252 H 0.71598 0.69096 0.60682 0.0
H253 H 0.71573 0.68358 0.57962 0.0
H254 H 0.75796 0.70586 0.58984 0.0
H255 H 0.82291 0.68353 0.57582 0.0
H256 H 0.81 0.65028 0.56957 0.0
C257 C 0.77038 0.5821 0.65377 0.0
C258 C 0.69936 0.61045 0.66299 0.0
C259 C 0.67229 0.61215 0.53152 0.0
C260 C 0.68735 0.63212 0.51801 0.0
C261 C 0.71641 0.65154 0.52636 0.0
C262 C 0.72968 0.65137 0.54763 0.0
C263 C 0.71411 0.6315 0.56091 0.0
C264 C 0.68615 0.61221 0.55283 0.0
C265 C 0.67337 0.5926 0.56946 0.0
C266 C 0.699 0.60312 0.58866 0.0
C267 C 0.72241 0.62605 0.58352 0.0
C268 C 0.69219 0.56611 0.56249 0.0
C269 C 0.62041 0.59325 0.57248 0.0
C270 C 0.81574 0.68953 0.62779 0.0
C271 C 0.83168 0.68924 0.64886 0.0
C272 C 0.82193 0.66731 0.66136 0.0
C273 C 0.7957 0.64671 0.65336 0.0
C274 C 0.7792 0.6477 0.63251 0.0
C275 C 0.79034 0.66854 0.61993 0.0
C276 C 0.77281 0.66537 0.59768 0.0
C277 C 0.74796 0.63957 0.59921 0.0
C278 C 0.75117 0.62954 0.61974 0.0
C279 C 0.81494 0.66428 0.58259 0.0
C280 C 0.73899 0.68762 0.59304 0.0
H281 H 0.63796 0.55007 0.59654 0.0
H282 H 0.68336 0.55438 0.67219 0.0
H283 H 0.66235 0.61294 0.65889 0.0
H284 H 0.71378 0.63011 0.66388 0.0
H285 H 0.70108 0.60166 0.67897 0.0
H286 H 0.77681 0.56288 0.6466 0.0
H287 H 0.77138 0.57975 0.67121 0.0
H288 H 0.80008 0.59408 0.6487 0.0
H289 H 0.64975 0.59699 0.52575 0.0
H290 H 0.72955 0.66682 0.51635 0.0
H291 H 0.75161 0.66678 0.5529 0.0
H292 H 0.72712 0.56826 0.55543 0.0
H293 H 0.66941 0.55707 0.55042 0.0
H294 H 0.6965 0.5526 0.57579 0.0
H295 H 0.60723 0.61322 0.57085 0.0
H296 H 0.60945 0.58708 0.5884 0.0
H297 H 0.60262 0.58111 0.56048 0.0
H298 H 0.60591 0.51924 0.62147 0.0
C299 C 0.64883 0.55152 0.61271 0.0
C300 C 0.6982 0.82056 0.15031 0.0
C301 C 0.68384 0.79757 0.14038 0.0
C302 C 0.6952 0.79366 0.11894 0.0
C303 C 0.73322 0.83531 0.11755 0.0
C304 C 0.72275 0.83908 0.13863 0.0
C305 C 0.74052 0.86462 0.14665 0.0
H306 H 0.87054 0.97146 0.12953 0.0
C307 C 0.7586 0.85824 0.10988 0.0
C308 C 0.76299 0.87555 0.12686 0.0
H309 H 0.80147 0.94915 0.18715 0.0
H310 H 0.76637 0.91264 0.16923 0.0
H311 H 0.90159 0.91583 0.11479 0.0
H312 H 0.78284 0.96133 0.09966 0.0
H313 H 0.79535 0.94366 0.07675 0.0
H314 H 0.8372 0.96651 0.08683 0.0
H315 H 0.90405 0.94486 0.0994 0.0
H316 H 0.89276 0.91411 0.08729 0.0
C317 C 0.77624 0.85921 0.16427 0.0
C318 C 0.6989 0.88094 0.15388 0.0
C319 C 0.81271 0.86224 0.03341 0.0
C320 C 0.83686 0.88104 0.02173 0.0
C321 C 0.85054 0.90404 0.0319 0.0
C322 C 0.84059 0.90822 0.05329 0.0
C323 C 0.81669 0.88921 0.06477 0.0
C324 C 0.8029 0.86677 0.05479 0.0
C325 C 0.77718 0.84895 0.06945 0.0
C326 C 0.77757 0.86449 0.08981 0.0
C327 C 0.8011 0.88793 0.087 0.0
C328 C 0.80522 0.82376 0.07152 0.0
C329 C 0.72769 0.84519 0.06067 0.0
C330 C 0.84745 0.95879 0.13816 0.0
C331 C 0.83889 0.96287 0.15973 0.0
C332 C 0.80833 0.94628 0.17048 0.0
C333 C 0.78847 0.925 0.1601 0.0
C334 C 0.7992 0.92039 0.13874 0.0
C335 C 0.82708 0.93765 0.12798 0.0
C336 C 0.8335 0.93032 0.10519 0.0
C337 C 0.80651 0.90521 0.10423 0.0
C338 C 0.78691 0.8993 0.12397 0.0
C339 C 0.88565 0.92616 0.10125 0.0
C340 C 0.81147 0.95152 0.09126 0.0
H341 H 0.72698 0.80816 0.09126 0.0
H342 H 0.6898 0.82429 0.1667 0.0
H343 H 0.66806 0.87689 0.14392 0.0
H344 H 0.7051 0.90186 0.15218 0.0
H345 H 0.68953 0.87664 0.17054 0.0
H346 H 0.79879 0.84285 0.15977 0.0
H347 H 0.75881 0.85405 0.17933 0.0
H348 H 0.79991 0.87552 0.16721 0.0
H349 H 0.80124 0.84448 0.02604 0.0
H350 H 0.86969 0.91869 0.02337 0.0
H351 H 0.85229 0.92602 0.06009 0.0
H352 H 0.84292 0.8278 0.07078 0.0
H353 H 0.79672 0.81008 0.05856 0.0
H354 H 0.80012 0.81403 0.08687 0.0
H355 H 0.71484 0.86332 0.05345 0.0
H356 H 0.70224 0.84039 0.07304 0.0
H357 H 0.7267 0.83003 0.04827 0.0
H358 H 0.68543 0.77598 0.11097 0.0
C359 C 0.71963 0.81235 0.10751 0.0
C360 C 0.19468 0.96093 0.37148 0.0
C361 C 0.17307 0.98205 0.38098 0.0
C362 C 0.15922 0.98047 0.40225 0.0
C363 C 0.18962 0.93714 0.40444 0.0
C364 C 0.20209 0.93863 0.38338 0.0
C365 C 0.22215 0.91389 0.37533 0.0
H366 H 0.3003 0.79443 0.39539 0.0
C367 C 0.20226 0.9113 0.41223 0.0
C368 C 0.22089 0.89752 0.39519 0.0
H369 H 0.28867 0.83274 0.33472 0.0
H370 H 0.25649 0.86969 0.35182 0.0
H371 H 0.32762 0.84483 0.4249 0.0
H372 H 0.1998 0.80719 0.40837 0.0
H373 H 0.19305 0.81892 0.43419 0.0
H374 H 0.23631 0.79491 0.42885 0.0
H375 H 0.3127 0.81256 0.43267 0.0
H376 H 0.29455 0.83984 0.44798 0.0
C377 C 0.27212 0.91947 0.36797 0.0
C378 C 0.18995 0.90301 0.3578 0.0
C379 C 0.18138 0.88929 0.48995 0.0
C380 C 0.18899 0.86678 0.50167 0.0
C381 C 0.20623 0.84479 0.49142 0.0
C382 C 0.21664 0.84536 0.46977 0.0
C383 C 0.20909 0.86806 0.45819 0.0
C384 C 0.19109 0.88941 0.46825 0.0
C385 C 0.18296 0.91136 0.45323 0.0
C386 C 0.19983 0.89985 0.43259 0.0
C387 C 0.21558 0.87459 0.43561 0.0
C388 C 0.21325 0.93442 0.46042 0.0
C389 C 0.13052 0.91699 0.45268 0.0
C390 C 0.29046 0.8105 0.38555 0.0
C391 C 0.29781 0.81028 0.36345 0.0
C392 C 0.28485 0.83222 0.35173 0.0
C393 C 0.26545 0.8537 0.36168 0.0
C394 C 0.25796 0.85332 0.38361 0.0
C395 C 0.26974 0.83181 0.39512 0.0
C396 C 0.25574 0.83398 0.418 0.0
C397 C 0.23461 0.86067 0.41836 0.0
C398 C 0.23671 0.872 0.39824 0.0
C399 C 0.29976 0.83261 0.43176 0.0
C400 C 0.21959 0.81262 0.4228 0.0
H401 H 0.15669 0.95813 0.43028 0.0
H402 H 0.20464 0.96156 0.35498 0.0
H403 H 0.15408 0.91017 0.35954 0.0
H404 H 0.18646 0.88179 0.35853 0.0
H405 H 0.20218 0.90867 0.34182 0.0
H406 H 0.2905 0.93178 0.37971 0.0
H407 H 0.27233 0.9298 0.3526 0.0
H408 H 0.2931 0.90195 0.36639 0.0
H409 H 0.16755 0.90631 0.49749 0.0
H410 H 0.21228 0.82729 0.50029 0.0
H411 H 0.23024 0.82812 0.46288 0.0
H412 H 0.24832 0.92781 0.46493 0.0
H413 H 0.19797 0.94412 0.47439 0.0
H414 H 0.21873 0.94888 0.4479 0.0
H415 H 0.10984 0.89938 0.45623 0.0
H416 H 0.11852 0.92311 0.43687 0.0
H417 H 0.1211 0.93187 0.4645 0.0
H418 H 0.14222 0.9966 0.40973 0.0
C419 C 0.16767 0.95816 0.41409 0.0
C420 C 0.22008 0.68365 0.86318 0.0
C421 C 0.2067 0.70826 0.86983 0.0
C422 C 0.20906 0.71433 0.89157 0.0
C423 C 0.2392 0.67168 0.8992 0.0
C424 C 0.23618 0.66591 0.87792 0.0
C425 C 0.25252 0.63935 0.87279 0.0
H426 H 0.32512 0.52341 0.90522 0.0
C427 C 0.25728 0.64854 0.91011 0.0
C428 C 0.2647 0.62961 0.89459 0.0
H429 H 0.31305 0.5522 0.84104 0.0
H430 H 0.28571 0.59225 0.85425 0.0
H431 H 0.37938 0.57276 0.91991 0.0
H432 H 0.23687 0.55084 0.92607 0.0
H433 H 0.25399 0.56463 0.95026 0.0
H434 H 0.28217 0.53592 0.94091 0.0
H435 H 0.36034 0.54964 0.93912 0.0
H436 H 0.36174 0.58371 0.9448 0.0
C437 C 0.29557 0.64173 0.8583 0.0
C438 C 0.21162 0.62411 0.86298 0.0
C439 C 0.2857 0.64805 0.98986 0.0
C440 C 0.29918 0.62843 1.00387 0.0
C441 C 0.30758 0.60358 0.99591 0.0
C442 C 0.30303 0.59825 0.97433 0.0
C443 C 0.28965 0.61793 0.96046 0.0
C444 C 0.28064 0.64229 0.96824 0.0
C445 C 0.26418 0.66023 0.95108 0.0
C446 C 0.26681 0.6429 0.93171 0.0
C447 C 0.28192 0.61816 0.93739 0.0
C448 C 0.29819 0.68321 0.94963 0.0
C449 C 0.214 0.66802 0.95618 0.0
C450 C 0.31728 0.53824 0.89381 0.0
C451 C 0.32124 0.53387 0.87182 0.0
C452 C 0.30939 0.55413 0.85796 0.0
C453 C 0.29417 0.57784 0.86571 0.0
C454 C 0.29175 0.58194 0.88761 0.0
C455 C 0.30386 0.56245 0.90126 0.0
C456 C 0.30369 0.57116 0.92399 0.0
C457 C 0.28851 0.59898 0.92166 0.0
C458 C 0.28079 0.60492 0.90037 0.0
C459 C 0.35363 0.56912 0.93262 0.0
C460 C 0.26761 0.55477 0.93613 0.0
H461 H 0.22699 0.70193 0.92258 0.0
H462 H 0.21793 0.6781 0.8467 0.0
H463 H 0.17916 0.62807 0.87173 0.0
H464 H 0.21597 0.60304 0.86374 0.0
H465 H 0.20617 0.62968 0.84622 0.0
H466 H 0.31291 0.66082 0.86 0.0
H467 H 0.28616 0.63942 0.84138 0.0
H468 H 0.32264 0.62765 0.86239 0.0
H469 H 0.27825 0.66719 0.99567 0.0
H470 H 0.31797 0.58823 1.00645 0.0
H471 H 0.30999 0.57894 0.96932 0.0
H472 H 0.33441 0.67635 0.95026 0.0
H473 H 0.29308 0.69679 0.96299 0.0
H474 H 0.2951 0.69395 0.93467 0.0
H475 H 0.19463 0.65163 0.96333 0.0
H476 H 0.19411 0.67322 0.94195 0.0
H477 H 0.21318 0.6843 0.96756 0.0
H478 H 0.19903 0.73322 0.8971 0.0
C479 C 0.2254 0.69618 0.9063 0.0
Tb480 Tb 0.05557 0.13922 0.23979 0.0
C481 C 0.84814 0.13507 0.26659 0.0
N482 N 0.87948 0.15443 0.2693 0.0
C483 C 0.82379 0.18512 0.25709 0.0
C484 C 0.80371 0.13995 0.25854 0.0
C485 C 0.86713 0.17942 0.26548 0.0
C486 C 0.7921 0.16528 0.25339 0.0
C487 C 0.82789 0.08994 0.27118 0.0
C488 C 0.85994 0.11035 0.27283 0.0
C489 C 0.78397 0.09463 0.26274 0.0
C490 C 0.77196 0.11955 0.25637 0.0
Tb491 Tb 0.94942 0.14198 0.28277 0.0
N492 N 0.90295 0.10643 0.28073 0.0
C493 C 0.84091 0.06548 0.27821 0.0
C494 C 0.91542 0.08278 0.28814 0.0
C495 C 0.88479 0.06192 0.28678 0.0
H496 H 0.89021 0.19521 0.26919 0.0
H497 H 0.89499 0.04313 0.29243 0.0
H498 H 0.12194 0.09039 0.25387 0.0
H499 H 0.09655 0.23256 0.20745 0.0
H500 H 0.94902 0.07985 0.29497 0.0
H501 H 0.81725 0.04928 0.27723 0.0
H502 H 0.04563 0.19587 0.21684 0.0
H503 H 0.8146 0.20488 0.25379 0.0
H504 H 0.75891 0.07916 0.26122 0.0
H505 H 0.73774 0.12293 0.25013 0.0
H506 H 0.20501 0.08287 0.26013 0.0
H507 H 0.75835 0.16982 0.24712 0.0
H508 H 0.18021 0.23036 0.21506 0.0
N509 N 0.13118 0.13003 0.2463 0.0
C510 C 0.16176 0.14932 0.24247 0.0
C511 C 0.19329 0.10172 0.25531 0.0
C512 C 0.20945 0.14585 0.2455 0.0
C513 C 0.14634 0.10607 0.25185 0.0
C514 C 0.22496 0.12179 0.25237 0.0
N515 N 0.09941 0.174 0.23059 0.0
C516 C 0.08188 0.19505 0.22052 0.0
C517 C 0.17592 0.19219 0.22874 0.0
C518 C 0.14535 0.17202 0.23411 0.0
C519 C 0.1579 0.21439 0.21938 0.0
C520 C 0.1107 0.21572 0.21508 0.0
H521 H 0.26134 0.11833 0.25488 0.0
H522 H 0.27684 0.16397 0.24325 0.0
H523 H 0.2474 0.20466 0.22868 0.0
O524 O 0.04687 0.14354 0.20677 0.0
O525 O 0.05485 0.17433 0.2588 0.0
O526 O 0.01242 0.16523 0.28942 0.0
O527 O 0.07427 0.10874 0.21991 0.0
O528 O 0.98614 0.15403 0.23291 0.0
O529 O 0.9623 0.17516 0.26265 0.0
O530 O 0.9496 0.13157 0.31493 0.0
O531 O 0.94231 0.1174 0.25425 0.0
O532 O 0.01694 0.10595 0.25023 0.0
O533 O 0.91136 0.16427 0.30441 0.0
O534 O 0.00474 0.11504 0.2903 0.0
O535 O 0.07251 0.1257 0.27199 0.0
C536 C 0.04621 0.1773 0.27916 0.0
C537 C 0.10484 0.1222 0.18705 0.0
C538 C 0.13097 0.1258 0.15049 0.0
C539 C 0.17624 0.12079 0.15712 0.0
C540 C 0.15042 0.11687 0.1932 0.0
C541 C 0.18585 0.11649 0.17837 0.0
C542 C 0.09536 0.12692 0.16558 0.0
C543 C 0.96779 0.17417 0.2421 0.0
C544 C 0.06695 0.12176 0.2027 0.0
C545 C 0.24008 0.16617 0.24089 0.0
C546 C 0.22333 0.18932 0.23254 0.0
C547 C 0.97363 0.10253 0.24566 0.0
C548 C 0.88343 0.14205 0.3346 0.0
C549 C 0.85356 0.13698 0.37051 0.0
C550 C 0.81308 0.12595 0.36212 0.0
C551 C 0.84233 0.13152 0.32661 0.0
C552 C 0.88877 0.14493 0.35658 0.0
C553 C 0.80753 0.12337 0.34031 0.0
C554 C 0.05009 0.11553 0.28828 0.0
C555 C 0.92143 0.1497 0.32042 0.0
H556 H 0.20423 0.12012 0.1458 0.0
H557 H 0.15892 0.11254 0.20936 0.0
H558 H 0.22077 0.11244 0.18334 0.0
H559 H 0.06028 0.13061 0.16055 0.0
H560 H 0.78524 0.11988 0.37242 0.0
H561 H 0.8369 0.1297 0.30987 0.0
H562 H 0.92045 0.15314 0.36283 0.0
H563 H 0.77598 0.11518 0.33399 0.0
Tb564 Tb 0.44806 0.36074 0.74508 0.0
C565 C 0.65256 0.38731 0.76405 0.0
N566 N 0.6297 0.36448 0.76616 0.0
C567 C 0.69202 0.34254 0.7491 0.0
C568 C 0.69571 0.38868 0.75387 0.0
C569 C 0.64943 0.3421 0.75943 0.0
C570 C 0.71515 0.36594 0.74618 0.0
C571 C 0.65479 0.43353 0.76999 0.0
C572 C 0.63261 0.40946 0.77222 0.0
C573 C 0.69773 0.43496 0.7598 0.0
C574 C 0.71819 0.4126 0.75182 0.0
Tb575 Tb 0.56133 0.36672 0.78387 0.0
N576 N 0.59077 0.40744 0.78181 0.0
C577 C 0.63301 0.45544 0.77797 0.0
C578 C 0.56979 0.42865 0.79004 0.0
C579 C 0.5904 0.45297 0.78807 0.0
H580 H 0.63323 0.32369 0.76234 0.0
H581 H 0.57348 0.4698 0.79443 0.0
H582 H 0.37111 0.4071 0.7535 0.0
H583 H 0.42128 0.26074 0.72595 0.0
H584 H 0.53725 0.42701 0.79814 0.0
H585 H 0.64884 0.47432 0.77647 0.0
H586 H 0.46379 0.30222 0.72688 0.0
H587 H 0.70726 0.32478 0.74362 0.0
H588 H 0.71535 0.45329 0.75795 0.0
H589 H 0.75134 0.41403 0.74401 0.0
H590 H 0.29027 0.40997 0.76542 0.0
H591 H 0.74826 0.36618 0.73826 0.0
H592 H 0.34185 0.25822 0.74018 0.0
N593 N 0.37261 0.36615 0.75468 0.0
C594 C 0.34703 0.34423 0.75625 0.0
C595 C 0.30602 0.39133 0.76324 0.0
C596 C 0.30011 0.34493 0.762 0.0
C597 C 0.3521 0.38963 0.75692 0.0
C598 C 0.28009 0.36884 0.76616 0.0
N599 N 0.4116 0.32175 0.74381 0.0
C600 C 0.43027 0.3008 0.73406 0.0
C601 C 0.3405 0.29843 0.74929 0.0
C602 C 0.36693 0.3213 0.75016 0.0
C603 C 0.36095 0.2762 0.74112 0.0
C604 C 0.40583 0.27751 0.73315 0.0
H605 H 0.24416 0.37022 0.77066 0.0
H606 H 0.23822 0.32204 0.76695 0.0
H607 H 0.27357 0.28132 0.75563 0.0
O608 O 0.47173 0.35777 0.71373 0.0
O609 O 0.45534 0.32966 0.76851 0.0
O610 O 0.49759 0.34883 0.79538 0.0
O611 O 0.40328 0.37084 0.72024 0.0
O612 O 0.5181 0.34719 0.73838 0.0
O613 O 0.55271 0.33014 0.76751 0.0
O614 O 0.57642 0.37823 0.81484 0.0
O615 O 0.55673 0.38698 0.75313 0.0
O616 O 0.48069 0.3984 0.74843 0.0
O617 O 0.60476 0.34318 0.80249 0.0
O618 O 0.49906 0.385 0.79545 0.0
O619 O 0.44169 0.39106 0.76976 0.0
C620 C 0.47089 0.33031 0.78808 0.0
C621 C 0.43695 0.3846 0.68828 0.0
C622 C 0.42133 0.39542 0.65138 0.0
C623 C 0.44297 0.41949 0.65459 0.0
C624 C 0.45796 0.40868 0.69119 0.0
C625 C 0.4612 0.42599 0.67437 0.0
C626 C 0.4188 0.37802 0.66842 0.0
C627 C 0.5386 0.32801 0.7479 0.0
C628 C 0.43333 0.36596 0.70564 0.0
C629 C 0.27422 0.32194 0.7624 0.0
C630 C 0.29431 0.29876 0.75591 0.0
C631 C 0.52503 0.40333 0.74679 0.0
C632 C 0.64363 0.36378 0.83141 0.0
C633 C 0.67823 0.36785 0.86659 0.0
C634 C 0.71798 0.3785 0.85725 0.0
C635 C 0.68362 0.37428 0.82238 0.0
C636 C 0.64125 0.36042 0.85345 0.0
C637 C 0.72068 0.3815 0.83529 0.0
C638 C 0.45949 0.39453 0.78892 0.0
C639 C 0.60206 0.35845 0.81879 0.0
H640 H 0.44507 0.4335 0.64195 0.0
H641 H 0.47157 0.41403 0.70643 0.0
H642 H 0.47754 0.44459 0.67672 0.0
H643 H 0.40302 0.35921 0.66624 0.0
H644 H 0.74715 0.38425 0.8669 0.0
H645 H 0.68594 0.37723 0.80549 0.0
H646 H 0.6099 0.35276 0.86044 0.0
H647 H 0.75148 0.38968 0.82827 0.0
Tb648 Tb 0.05251 0.86571 0.73686 0.0
C649 C 0.84736 0.84601 0.7606 0.0
N650 N 0.87541 0.86683 0.76337 0.0
C651 C 0.81513 0.8945 0.75086 0.0
C652 C 0.80247 0.84857 0.75229 0.0
C653 C 0.85876 0.89106 0.7598 0.0
C654 C 0.78709 0.87313 0.74678 0.0
C655 C 0.83296 0.8006 0.76704 0.0
C656 C 0.86237 0.82229 0.76767 0.0
C657 C 0.78872 0.8029 0.75822 0.0
C658 C 0.77368 0.82678 0.75068 0.0
Tb659 Tb 0.94593 0.8582 0.77821 0.0
N660 N 0.90526 0.82077 0.77608 0.0
C661 C 0.84864 0.77741 0.77567 0.0
C662 C 0.92009 0.79856 0.78535 0.0
C663 C 0.89232 0.77643 0.78497 0.0
H664 H 0.87816 0.90799 0.7643 0.0
H665 H 0.90443 0.75872 0.79199 0.0
H666 H 0.14175 0.84295 0.76308 0.0
H667 H 0.0345 0.95732 0.69685 0.0
H668 H 0.95344 0.79795 0.79295 0.0
H669 H 0.82708 0.76028 0.7755 0.0
H670 H 0.0221 0.91059 0.70173 0.0
H671 H 0.80267 0.91371 0.74766 0.0
H672 H 0.76568 0.78641 0.75744 0.0
H673 H 0.73916 0.82836 0.74427 0.0
H674 H 0.2096 0.86041 0.78235 0.0
H675 H 0.7529 0.87591 0.7403 0.0
H676 H 0.0902 0.98073 0.71962 0.0
N677 N 0.11785 0.87978 0.75374 0.0
C678 C 0.12723 0.90536 0.75262 0.0
C679 C 0.18646 0.8733 0.77419 0.0
C680 C 0.16518 0.91627 0.76332 0.0
C681 C 0.1482 0.86344 0.76328 0.0
C682 C 0.1945 0.8999 0.77456 0.0
N683 N 0.06586 0.90821 0.72868 0.0
C684 C 0.04499 0.92082 0.71234 0.0
C685 C 0.10928 0.94665 0.7372 0.0
C686 C 0.09958 0.92023 0.7399 0.0
C687 C 0.084 0.96036 0.72216 0.0
C688 C 0.05256 0.94721 0.70927 0.0
H689 H 0.22409 0.9075 0.78303 0.0
H690 H 0.20179 0.95184 0.77027 0.0
H691 H 0.153 0.97847 0.74717 0.0
O692 O 0.08681 0.86926 0.70753 0.0
O693 O 0.05999 0.87442 0.77073 0.0
O694 O 0.99103 0.89208 0.78007 0.0
O695 O 0.08622 0.83352 0.7243 0.0
O696 O 0.98557 0.88321 0.72869 0.0
O697 O 0.95502 0.89465 0.76099 0.0
O698 O 0.9602 0.85133 0.8103 0.0
O699 O 0.95387 0.82905 0.75292 0.0
O700 O 0.9848 0.85292 0.7259 0.0
O701 O 0.89691 0.8691 0.80098 0.0
O702 O 0.00869 0.83683 0.78585 0.0
O703 O 0.04814 0.82923 0.75435 0.0
C704 C 0.03605 0.89116 0.78152 0.0
C705 C 0.08935 0.83107 0.68682 0.0
C706 C 0.09933 0.82846 0.64831 0.0
C707 C 0.08226 0.80297 0.64899 0.0
C708 C 0.0724 0.80565 0.68689 0.0
C709 C 0.06848 0.79188 0.66806 0.0
C710 C 0.10212 0.84244 0.66746 0.0
C711 C 0.96096 0.89874 0.74063 0.0
C712 C 0.09764 0.8451 0.70688 0.0
C713 C 0.17324 0.94293 0.7619 0.0
C714 C 0.14535 0.95811 0.7488 0.0
C715 C 0.96296 0.83233 0.7327 0.0
C716 C 0.92814 0.88112 0.83392 0.0
C717 C 0.92152 0.89168 0.87143 0.0
C718 C 0.9399 0.9163 0.86713 0.0
C719 C 0.94606 0.90579 0.82994 0.0
C720 C 0.91582 0.87417 0.8546 0.0
C721 C 0.95195 0.92325 0.84652 0.0
C722 C 0.03931 0.82425 0.77443 0.0
C723 C 0.92263 0.86225 0.81678 0.0
H724 H 0.08058 0.79116 0.63492 0.0
H725 H 0.06249 0.79626 0.70149 0.0
H726 H 0.05555 0.77227 0.6683 0.0
H727 H 0.11469 0.86212 0.66749 0.0
H728 H 0.94555 0.93011 0.87971 0.0
H729 H 0.95543 0.91157 0.81409 0.0
H730 H 0.90136 0.85518 0.85748 0.0
H731 H 0.966 0.94221 0.8434 0.0
Tb732 Tb 0.44656 0.64083 0.24163 0.0
C733 C 0.64113 0.67962 0.27123 0.0
N734 N 0.62433 0.65578 0.26681 0.0
C735 C 0.69294 0.64574 0.24749 0.0
C736 C 0.68421 0.68782 0.26338 0.0
C737 C 0.65005 0.63846 0.25574 0.0
C738 C 0.70997 0.6706 0.25119 0.0
C739 C 0.63112 0.72066 0.28877 0.0
C740 C 0.61491 0.69571 0.28377 0.0
C741 C 0.67353 0.72924 0.28057 0.0
C742 C 0.70017 0.71279 0.26804 0.0
Tb743 Tb 0.55572 0.6452 0.28191 0.0
N744 N 0.57465 0.68646 0.29184 0.0
C745 C 0.60494 0.73591 0.3024 0.0
C746 C 0.5511 0.70056 0.30653 0.0
C747 C 0.56508 0.72567 0.31154 0.0
H748 H 0.63729 0.61911 0.25317 0.0
H749 H 0.54565 0.73689 0.32283 0.0
H750 H 0.37367 0.68662 0.25864 0.0
H751 H 0.41422 0.53992 0.22777 0.0
H752 H 0.52218 0.69245 0.31498 0.0
H753 H 0.61609 0.75522 0.30658 0.0
H754 H 0.45433 0.58183 0.22295 0.0
H755 H 0.71295 0.63214 0.23841 0.0
H756 H 0.68645 0.74838 0.28417 0.0
H757 H 0.73313 0.71953 0.26209 0.0
H758 H 0.30443 0.68851 0.28098 0.0
H759 H 0.74322 0.67618 0.24481 0.0
H760 H 0.34645 0.53693 0.25144 0.0
N761 N 0.37921 0.64569 0.2603 0.0
C762 C 0.35637 0.62348 0.26504 0.0
C763 C 0.31915 0.67005 0.27695 0.0
C764 C 0.3155 0.62359 0.27708 0.0
C765 C 0.35918 0.66888 0.26468 0.0
C766 C 0.29778 0.64728 0.28362 0.0
N767 N 0.4112 0.6016 0.24459 0.0
C768 C 0.42515 0.58045 0.23348 0.0
C769 C 0.34832 0.57739 0.25975 0.0
C770 C 0.37227 0.60071 0.25648 0.0
C771 C 0.36414 0.55521 0.24952 0.0
C772 C 0.40238 0.55683 0.23611 0.0
H773 H 0.26648 0.64824 0.29291 0.0
H774 H 0.2616 0.59984 0.29088 0.0
H775 H 0.29051 0.55932 0.27574 0.0
O776 O 0.45274 0.6361 0.2086 0.0
O777 O 0.46236 0.61002 0.26443 0.0
O778 O 0.48887 0.63146 0.29354 0.0
O779 O 0.39143 0.65174 0.22209 0.0
O780 O 0.51155 0.62343 0.23087 0.0
O781 O 0.55095 0.61116 0.26134 0.0
O782 O 0.58779 0.64667 0.31199 0.0
O783 O 0.56395 0.66073 0.24963 0.0
O784 O 0.4912 0.67486 0.24074 0.0
O785 O 0.58589 0.61117 0.29356 0.0
O786 O 0.48981 0.66225 0.29104 0.0
O787 O 0.45377 0.67661 0.26068 0.0
C788 C 0.46473 0.61274 0.28496 0.0
C789 C 0.40863 0.664 0.18709 0.0
C790 C 0.38712 0.67188 0.15022 0.0
C791 C 0.3966 0.69826 0.15327 0.0
C792 C 0.41689 0.69041 0.18991 0.0
C793 C 0.41156 0.70736 0.17296 0.0
C794 C 0.39419 0.65485 0.16726 0.0
C795 C 0.53967 0.60804 0.24123 0.0
C796 C 0.41239 0.64567 0.20473 0.0
C797 C 0.29271 0.60019 0.28141 0.0
C798 C 0.30907 0.57712 0.27273 0.0
C799 C 0.53615 0.67496 0.23812 0.0
C800 C 0.62424 0.60904 0.32783 0.0
C801 C 0.6474 0.60497 0.365 0.0
C802 C 0.67429 0.58352 0.35938 0.0
C803 C 0.65061 0.58735 0.32284 0.0
C804 C 0.62252 0.61772 0.34892 0.0
C805 C 0.67557 0.57476 0.33853 0.0
C806 C 0.46287 0.67859 0.28111 0.0
C807 C 0.59882 0.62251 0.31094 0.0
H808 H 0.39121 0.71201 0.14067 0.0
H809 H 0.42753 0.69785 0.20517 0.0
H810 H 0.41825 0.72772 0.17518 0.0
H811 H 0.38798 0.63438 0.16524 0.0
H812 H 0.69505 0.57363 0.37101 0.0
H813 H 0.65245 0.58031 0.30674 0.0
H814 H 0.60115 0.63408 0.35279 0.0
H815 H 0.69634 0.55824 0.33449 0.0
H816 H 0.08959 1.00295 0.37178 0.0
H817 H 0.23627 0.0128 0.36144 0.0
H818 H 0.22105 0.05079 0.33883 0.0
H819 H 0.05714 0.01669 0.31922 0.0
H820 H 0.00458 0.03296 0.32614 0.0
H821 H 0.02731 0.00852 0.34332 0.0
H822 H 0.02786 0.04094 0.37452 0.0
H823 H 0.0051 0.0655 0.3574 0.0
H824 H 0.05791 0.07126 0.37173 0.0
H825 H 0.18939 0.08715 0.31692 0.0
H826 H 0.14381 0.11652 0.29465 0.0
H827 H 0.01775 0.08031 0.31717 0.0
C828 C 0.1184 0.01349 0.36504 0.0
C829 C 0.16408 0.00543 0.36848 0.0
C830 C 0.20109 0.01902 0.35902 0.0
C831 C 0.19276 0.04058 0.34627 0.0
C832 C 0.14721 0.04801 0.34302 0.0
C833 C 0.11062 0.03474 0.35198 0.0
C834 C 0.06488 0.0453 0.34456 0.0
C835 C 0.03685 0.02464 0.3326 0.0
C836 C 0.03732 0.05641 0.36316 0.0
C837 C 0.08145 0.06638 0.32986 0.0
C838 C 0.12899 0.06793 0.32945 0.0
C839 C 0.15213 0.0859 0.31694 0.0
C840 C 0.12595 0.1023 0.30413 0.0
C841 C 0.07725 0.10013 0.30349 0.0
C842 C 0.0549 0.08233 0.31699 0.0
H843 H 0.30753 0.51119 0.83219 0.0
H844 H 0.38066 0.50021 0.8917 0.0
H845 H 0.41382 0.46066 0.87784 0.0
H846 H 0.29051 0.44362 0.81758 0.0
H847 H 0.30394 0.44922 0.79014 0.0
H848 H 0.27836 0.47442 0.80574 0.0
H849 H 0.34608 0.50501 0.7959 0.0
H850 H 0.37161 0.47984 0.78032 0.0
H851 H 0.40444 0.49509 0.80111 0.0
H852 H 0.44266 0.42383 0.85778 0.0
H853 H 0.47338 0.39431 0.83128 0.0
H854 H 0.39259 0.43212 0.78256 0.0
C855 C 0.33048 0.50071 0.84248 0.0
C856 C 0.34014 0.50908 0.86344 0.0
C857 C 0.37046 0.49415 0.87603 0.0
C858 C 0.3901 0.47156 0.86821 0.0
C859 C 0.38018 0.46425 0.84756 0.0
C860 C 0.35179 0.47852 0.83469 0.0
C861 C 0.35151 0.46795 0.81227 0.0
C862 C 0.30319 0.45822 0.80608 0.0
C863 C 0.36949 0.48818 0.79647 0.0
C864 C 0.38491 0.44578 0.81458 0.0
C865 C 0.39992 0.44374 0.83525 0.0
C866 C 0.43129 0.42522 0.84153 0.0
C867 C 0.44871 0.40861 0.82622 0.0
C868 C 0.43564 0.41085 0.80466 0.0
C869 C 0.40269 0.42951 0.79886 0.0
H870 H 0.66899 0.48691 0.66302 0.0
H871 H 0.56353 0.54508 0.66915 0.0
H872 H 0.52415 0.51873 0.69641 0.0
H873 H 0.59231 0.43201 0.66899 0.0
H874 H 0.63327 0.41319 0.68371 0.0
H875 H 0.6533 0.43676 0.6649 0.0
H876 H 0.70214 0.45914 0.69431 0.0
H877 H 0.68233 0.43504 0.71267 0.0
H878 H 0.67434 0.46871 0.71854 0.0
H879 H 0.49614 0.48628 0.72257 0.0
H880 H 0.47858 0.44851 0.74491 0.0
H881 H 0.60226 0.41096 0.72226 0.0
C882 C 0.63754 0.49391 0.67015 0.0
C883 C 0.6189 0.51786 0.66412 0.0
C884 C 0.57791 0.52668 0.67364 0.0
C885 C 0.55554 0.51192 0.68914 0.0
C886 C 0.57479 0.48843 0.69493 0.0
C887 C 0.61469 0.47935 0.68567 0.0
C888 C 0.62731 0.45315 0.69448 0.0
C889 C 0.62648 0.43257 0.67697 0.0
C890 C 0.67433 0.4541 0.70567 0.0
C891 C 0.5884 0.44898 0.71014 0.0
C892 C 0.55858 0.46963 0.71013 0.0
C893 C 0.51928 0.47003 0.72276 0.0
C894 C 0.50962 0.44852 0.7354 0.0
C895 C 0.53901 0.42687 0.73527 0.0
C896 C 0.57942 0.42736 0.7228 0.0
H897 H 0.80702 0.00407 0.18296 0.0
H898 H 0.93157 0.96562 0.16258 0.0
H899 H 0.97868 0.99707 0.18255 0.0
H900 H 0.85491 0.06921 0.1791 0.0
H901 H 0.82441 0.08099 0.20192 0.0
H902 H 0.79995 0.05531 0.18625 0.0
H903 H 0.79442 0.026 0.21959 0.0
H904 H 0.8171 0.05239 0.23488 0.0
H905 H 0.84511 0.02152 0.23568 0.0
H906 H 0.0118 0.03034 0.20585 0.0
H907 H 0.03111 0.06664 0.22897 0.0
H908 H 0.88627 0.08714 0.23243 0.0
C909 C 0.84421 1.00242 0.18278 0.0
C910 C 0.86592 0.98249 0.17136 0.0
C911 C 0.91455 0.98087 0.17121 0.0
C912 C 0.94149 0.99855 0.18254 0.0
C913 C 0.91923 0.01795 0.19369 0.0
C914 C 0.87182 0.02032 0.19371 0.0
C915 C 0.85717 0.04356 0.20661 0.0
C916 C 0.83267 0.06345 0.19262 0.0
C917 C 0.82668 0.03534 0.22531 0.0
C918 C 0.90378 0.05356 0.21406 0.0
C919 C 0.93887 0.03826 0.20647 0.0
C920 C 0.98476 0.04276 0.21162 0.0
C921 C 0.99536 0.06363 0.22472 0.0
C922 C 0.96039 0.08021 0.23229 0.0
C923 C 0.91386 0.07497 0.22689 0.0
H924 H 0.86632 0.99801 0.6543 0.0
H925 H 0.89736 0.05809 0.69998 0.0
H926 H 0.92917 0.02582 0.72431 0.0
H927 H 0.83051 0.95103 0.69006 0.0
H928 H 0.85692 0.92395 0.67711 0.0
H929 H 0.84043 0.95173 0.66193 0.0
H930 H 0.92387 0.95662 0.64786 0.0
H931 H 0.94058 0.9286 0.66276 0.0
H932 H 0.97112 0.95864 0.66633 0.0
H933 H 0.94694 0.9875 0.74554 0.0
H934 H 0.96276 0.94477 0.76067 0.0
H935 H 0.92644 0.90877 0.70102 0.0
C936 C 0.88106 0.00435 0.66917 0.0
C937 C 0.87895 0.03046 0.67541 0.0
C938 C 0.89808 0.0381 0.69507 0.0
C939 C 0.91627 0.01995 0.70898 0.0
C940 C 0.91587 0.99425 0.70286 0.0
C941 C 0.89992 0.98639 0.68327 0.0
C942 C 0.90274 0.95732 0.68107 0.0
C943 C 0.85479 0.94531 0.67732 0.0
C944 C 0.9366 0.94986 0.66346 0.0
C945 C 0.92141 0.95022 0.70269 0.0
C946 C 0.92841 0.97189 0.71498 0.0
C947 C 0.94266 0.97038 0.73595 0.0
C948 C 0.95129 0.94606 0.74445 0.0
C949 C 0.94662 0.92368 0.73188 0.0
C950 C 0.93088 0.92573 0.71082 0.0
H951 H 0.63665 0.51105 0.15317 0.0
H952 H 0.59987 0.44959 0.1966 0.0
H953 H 0.56573 0.48114 0.22087 0.0
H954 H 0.66863 0.55676 0.19087 0.0
H955 H 0.64394 0.58437 0.17798 0.0
H956 H 0.66174 0.55705 0.16254 0.0
H957 H 0.57989 0.55297 0.14646 0.0
H958 H 0.562 0.58058 0.16161 0.0
H959 H 0.53069 0.55059 0.16376 0.0
H960 H 0.54665 0.51879 0.24276 0.0
H961 H 0.53178 0.56107 0.25907 0.0
H962 H 0.57334 0.5992 0.2011 0.0
C963 C 0.62019 0.50426 0.1675 0.0
C964 C 0.62142 0.47788 0.17313 0.0
C965 C 0.59995 0.46973 0.19213 0.0
C966 C 0.58036 0.48749 0.20601 0.0
C967 C 0.58156 0.5134 0.20055 0.0
C968 C 0.59979 0.52186 0.18156 0.0
C969 C 0.5974 0.55106 0.18008 0.0
C970 C 0.64581 0.563 0.17773 0.0
C971 C 0.56559 0.55928 0.1619 0.0
C972 C 0.57645 0.55755 0.20144 0.0
C973 C 0.56795 0.53543 0.21297 0.0
C974 C 0.55219 0.53625 0.23375 0.0
C975 C 0.54426 0.56032 0.24295 0.0
C976 C 0.55121 0.58324 0.23128 0.0
C977 C 0.56727 0.58186 0.21021 0.0
H978 H 0.38738 0.47623 0.33145 0.0
H979 H 0.31549 0.51822 0.38059 0.0
H980 H 0.33873 0.55935 0.36395 0.0
H981 H 0.48357 0.5203 0.32743 0.0
H982 H 0.48925 0.51672 0.29921 0.0
H983 H 0.46646 0.49058 0.31482 0.0
H984 H 0.39324 0.48954 0.29141 0.0
H985 H 0.41555 0.51584 0.27584 0.0
H986 H 0.35978 0.5184 0.28828 0.0
H987 H 0.3703 0.59546 0.34263 0.0
H988 H 0.41056 0.62482 0.31836 0.0
H989 H 0.46117 0.56008 0.28234 0.0
C990 C 0.37635 0.49411 0.3386 0.0
C991 C 0.3496 0.49416 0.35727 0.0
C992 C 0.33633 0.51786 0.36639 0.0
C993 C 0.34909 0.54125 0.35699 0.0
C994 C 0.37527 0.54053 0.33855 0.0
C995 C 0.38906 0.51764 0.32949 0.0
C996 C 0.41828 0.52238 0.30999 0.0
C997 C 0.46729 0.51187 0.31305 0.0
C998 C 0.39531 0.51086 0.2902 0.0
C999 C 0.4184 0.55154 0.30941 0.0
C1000 C 0.39347 0.56152 0.3261 0.0
C1001 C 0.38997 0.58787 0.32953 0.0
C1002 C 0.41328 0.60447 0.31576 0.0
C1003 C 0.43934 0.59478 0.29872 0.0
C1004 C 0.44132 0.56796 0.29528 0.0
H1005 H 0.09876 0.02868 0.83013 0.0
H1006 H 0.19931 0.99042 0.86961 0.0
H1007 H 0.17855 0.94852 0.85322 0.0
H1008 H 0.01315 0.97949 0.83395 0.0
H1009 H 0.99269 0.98227 0.80711 0.0
H1010 H 0.01706 0.0099 0.82039 0.0
H1011 H 0.07614 0.01621 0.79078 0.0
H1012 H 0.0536 0.98873 0.77665 0.0
H1013 H 0.11387 0.99028 0.78358 0.0
H1014 H 0.14855 0.91123 0.83157 0.0
H1015 H 0.10634 0.88049 0.80849 0.0
H1016 H 0.02119 0.94264 0.78547 0.0
C1017 C 0.11647 0.01143 0.83515 0.0
C1018 C 0.15085 0.01254 0.8509 0.0
C1019 C 0.17298 0.98973 0.85747 0.0
C1020 C 0.1615 0.96597 0.84823 0.0
C1021 C 0.12735 0.96544 0.83272 0.0
C1022 C 0.10477 0.98752 0.8264 0.0
C1023 C 0.06791 0.9815 0.81014 0.0
C1024 C 0.01984 0.9887 0.81839 0.0
C1025 C 0.0785 0.99497 0.78903 0.0
C1026 C 0.07327 0.95261 0.80833 0.0
C1027 C 0.10822 0.94376 0.82122 0.0
C1028 C 0.12076 0.91789 0.82159 0.0
C1029 C 0.09676 0.90062 0.80848 0.0
C1030 C 0.06032 0.9093 0.79552 0.0
C1031 C 0.04837 0.93554 0.79554 0.0
H1032 H 0.16608 0.09266 0.02919 0.0
H1033 H 0.10791 0.16709 0.01408 0.0
H1034 H 0.09082 0.17424 0.05202 0.0
H1035 H 0.08687 0.07554 0.0716 0.0
H1036 H 0.13122 0.06069 0.08731 0.0
H1037 H 0.13571 0.06084 0.05891 0.0
H1038 H 0.21606 0.08282 0.06151 0.0
H1039 H 0.21194 0.0826 0.08988 0.0
H1040 H 0.22215 0.11248 0.07612 0.0
H1041 H 0.08163 0.17329 0.09203 0.0
H1042 H 0.08791 0.16602 0.13073 0.0
H1043 H 0.15429 0.09289 0.11898 0.0
C1044 C 0.14911 0.11029 0.03385 0.0
C1045 C 0.13783 0.12923 0.01877 0.0
C1046 C 0.11677 0.15236 0.02547 0.0
C1047 C 0.10669 0.15649 0.04692 0.0
C1048 C 0.11821 0.13736 0.06141 0.0
C1049 C 0.13933 0.11481 0.05514 0.0
C1050 C 0.15104 0.098 0.07385 0.0
C1051 C 0.12462 0.07224 0.07285 0.0
C1052 C 0.2034 0.09374 0.07543 0.0
C1053 C 0.13374 0.1147 0.0917 0.0
C1054 C 0.11424 0.13716 0.08427 0.0
C1055 C 0.09671 0.15573 0.09801 0.0
C1056 C 0.10019 0.15144 0.11989 0.0
C1057 C 0.12164 0.12897 0.12767 0.0
C1058 C 0.13783 0.11026 0.11336 0.0
H1059 H 0.40065 0.39773 0.52566 0.0
H1060 H 0.2685 0.35876 0.53192 0.0
H1061 H 0.28084 0.35535 0.57051 0.0
H1062 H 0.46145 0.36242 0.56689 0.0
H1063 H 0.49293 0.39054 0.57562 0.0
H1064 H 0.47537 0.3877 0.54839 0.0
H1065 H 0.43342 0.43149 0.55107 0.0
H1066 H 0.45063 0.43442 0.57831 0.0
H1067 H 0.39049 0.43606 0.5713 0.0
H1068 H 0.3052 0.3594 0.60883 0.0
H1069 H 0.33995 0.36968 0.64348 0.0
H1070 H 0.45606 0.4061 0.61183 0.0
C1071 C 0.37428 0.38839 0.53509 0.0
C1072 C 0.33351 0.37856 0.52572 0.0
C1073 C 0.30025 0.36616 0.53867 0.0
C1074 C 0.30686 0.36426 0.56062 0.0
C1075 C 0.347 0.37473 0.56936 0.0
C1076 C 0.38025 0.38641 0.55695 0.0
C1077 C 0.41939 0.39713 0.57023 0.0
C1078 C 0.46498 0.38363 0.56497 0.0
C1079 C 0.42371 0.42651 0.56756 0.0
C1080 C 0.40263 0.39008 0.59212 0.0
C1081 C 0.36098 0.37703 0.59131 0.0
C1082 C 0.33809 0.36933 0.60962 0.0
C1083 C 0.35825 0.37517 0.62925 0.0
C1084 C 0.40091 0.38863 0.63046 0.0
C1085 C 0.4233 0.39598 0.61154 0.0
H1086 H 0.7052 0.40848 0.98845 0.0
H1087 H 0.65823 0.33157 1.00481 0.0
H1088 H 0.64871 0.32129 0.96686 0.0
H1089 H 0.62984 0.41783 0.94328 0.0
H1090 H 0.67293 0.43464 0.92797 0.0
H1091 H 0.67428 0.43628 0.95642 0.0
H1092 H 0.75824 0.4196 0.95634 0.0
H1093 H 0.75715 0.4179 0.92791 0.0
H1094 H 0.77121 0.38971 0.94317 0.0
H1095 H 0.64385 0.31946 0.92708 0.0
H1096 H 0.64819 0.32539 0.88835 0.0
H1097 H 0.7011 0.40293 0.89765 0.0
C1098 C 0.69251 0.38957 0.98401 0.0
C1099 C 0.68227 0.37083 0.99957 0.0
C1100 C 0.66648 0.34615 0.99314 0.0
C1101 C 0.66078 0.34019 0.97164 0.0
C1102 C 0.67139 0.35903 0.95669 0.0
C1103 C 0.68722 0.38317 0.96257 0.0
C1104 C 0.69781 0.39958 0.94331 0.0
C1105 C 0.66686 0.4235 0.94271 0.0
C1106 C 0.74916 0.40714 0.94265 0.0
C1107 C 0.68561 0.38089 0.9257 0.0
C1108 C 0.66998 0.3577 0.93377 0.0
C1109 C 0.65613 0.33753 0.9206 0.0
C1110 C 0.65857 0.3411 0.89862 0.0
C1111 C 0.67517 0.36455 0.88996 0.0
C1112 C 0.68879 0.38467 0.90378 0.0
H1113 H 0.81869 0.10048 0.49203 0.0
H1114 H 0.8579 0.17897 0.50763 0.0
H1115 H 0.87269 0.18783 0.46977 0.0
H1116 H 0.90169 0.09076 0.44997 0.0
H1117 H 0.86218 0.07232 0.43387 0.0
H1118 H 0.85665 0.07193 0.46224 0.0
H1119 H 0.77178 0.08671 0.45903 0.0
H1120 H 0.77698 0.08703 0.43068 0.0
H1121 H 0.75879 0.1156 0.44446 0.0
H1122 H 0.88314 0.18795 0.43005 0.0
H1123 H 0.88216 0.18043 0.39141 0.0
H1124 H 0.83422 0.10217 0.40191 0.0
C1125 C 0.83083 0.11945 0.48748 0.0
C1126 C 0.83744 0.13902 0.50274 0.0
C1127 C 0.85245 0.16376 0.49616 0.0
C1128 C 0.86121 0.1689 0.47473 0.0
C1129 C 0.85448 0.14914 0.46009 0.0
C1130 C 0.83924 0.12497 0.46617 0.0
C1131 C 0.83265 0.10743 0.44726 0.0
C1132 C 0.86524 0.08424 0.44841 0.0
C1133 C 0.78204 0.09869 0.44524 0.0
C1134 C 0.8462 0.12555 0.42954 0.0
C1135 C 0.85927 0.14941 0.43726 0.0
C1136 C 0.87301 0.16933 0.42384 0.0
C1137 C 0.8726 0.16485 0.40194 0.0
C1138 C 0.85804 0.14076 0.39369 0.0
C1139 C 0.8452 0.12084 0.40777 0.0
H1140 H 0.83126 0.91556 0.989 0.0
H1141 H 0.86905 0.83677 1.00343 0.0
H1142 H 0.89164 0.83018 0.96615 0.0
H1143 H 0.78574 0.90292 0.9363 0.0
H1144 H 0.80787 0.93273 0.92567 0.0
H1145 H 0.79235 0.93068 0.95319 0.0
H1146 H 0.87436 0.94616 0.96373 0.0
H1147 H 0.89017 0.94819 0.93627 0.0
H1148 H 0.92381 0.92887 0.95413 0.0
H1149 H 0.91453 0.83313 0.92772 0.0
H1150 H 0.93437 0.84503 0.89105 0.0
H1151 H 0.88012 0.92168 0.90175 0.0
C1152 C 0.84426 0.8969 0.98433 0.0
C1153 C 0.84841 0.87667 0.99914 0.0
C1154 C 0.86506 0.85246 0.99231 0.0
C1155 C 0.87817 0.84857 0.9712 0.0
C1156 C 0.87413 0.86903 0.95708 0.0
C1157 C 0.85731 0.89267 0.96334 0.0
C1158 C 0.85726 0.91168 0.9452 0.0
C1159 C 0.80787 0.91998 0.93977 0.0
C1160 C 0.88825 0.9351 0.95013 0.0
C1161 C 0.87758 0.89522 0.92785 0.0
C1162 C 0.88687 0.87064 0.93497 0.0
C1163 C 0.90693 0.85223 0.92191 0.0
C1164 C 0.91786 0.85915 0.90106 0.0
C1165 C 0.90872 0.88428 0.89342 0.0
C1166 C 0.88802 0.9024 0.90708 0.0
H1167 H 0.67842 0.59144 0.49011 0.0
H1168 H 0.66552 0.67457 0.49423 0.0
H1169 H 0.65009 0.67652 0.45596 0.0
H1170 H 0.73516 0.58917 0.44137 0.0
H1171 H 0.70549 0.56088 0.43174 0.0
H1172 H 0.71271 0.56569 0.45973 0.0
H1173 H 0.6244 0.5618 0.46513 0.0
H1174 H 0.6169 0.55678 0.43714 0.0
H1175 H 0.58644 0.58235 0.45027 0.0
H1176 H 0.64292 0.66988 0.41668 0.0
H1177 H 0.64113 0.6549 0.37973 0.0
H1178 H 0.65206 0.57579 0.40151 0.0
C1179 C 0.67136 0.61001 0.4831 0.0
C1180 C 0.67368 0.63287 0.49527 0.0
C1181 C 0.66491 0.6568 0.48526 0.0
C1182 C 0.65573 0.65812 0.46352 0.0
C1183 C 0.65472 0.63531 0.45194 0.0
C1184 C 0.66172 0.61167 0.46141 0.0
C1185 C 0.66004 0.59013 0.44524 0.0
C1186 C 0.70609 0.57562 0.44448 0.0
C1187 C 0.61952 0.57168 0.44971 0.0
C1188 C 0.65214 0.60542 0.42517 0.0
C1189 C 0.64907 0.63143 0.42937 0.0
C1190 C 0.64441 0.64948 0.41322 0.0
C1191 C 0.64313 0.64072 0.39222 0.0
C1192 C 0.64623 0.61408 0.38745 0.0
C1193 C 0.65013 0.59631 0.40436 0.0
H1194 H 0.35326 0.6645 0.02415 0.0
H1195 H 0.25581 0.60231 0.03533 0.0
H1196 H 0.26664 0.60731 0.07388 0.0
H1197 H 0.4315 0.64673 0.06515 0.0
H1198 H 0.44623 0.6793 0.07255 0.0
H1199 H 0.4286 0.67221 0.04586 0.0
H1200 H 0.36378 0.70611 0.04859 0.0
H1201 H 0.38139 0.71342 0.07526 0.0
H1202 H 0.32263 0.70398 0.06988 0.0
H1203 H 0.28882 0.61832 0.1109 0.0
H1204 H 0.3213 0.63434 0.14438 0.0
H1205 H 0.4083 0.68795 0.10955 0.0
C1206 C 0.3337 0.65229 0.0348 0.0
C1207 C 0.30338 0.63316 0.02689 0.0
C1208 C 0.27906 0.6171 0.04118 0.0
C1209 C 0.28498 0.61982 0.06305 0.0
C1210 C 0.31565 0.63855 0.07039 0.0
C1211 C 0.33971 0.65452 0.05675 0.0
C1212 C 0.37211 0.67226 0.06885 0.0
C1213 C 0.42259 0.66732 0.06274 0.0
C1214 C 0.35919 0.70063 0.06544 0.0
C1215 C 0.36238 0.66379 0.09138 0.0
C1216 C 0.32957 0.6444 0.09185 0.0
C1217 C 0.31474 0.63342 0.11074 0.0
C1218 C 0.33381 0.64251 0.12971 0.0
C1219 C 0.36784 0.66229 0.12975 0.0
C1220 C 0.38215 0.67299 0.1102 0.0
H1221 H 0.12505 0.83747 0.5225 0.0
H1222 H 0.23184 0.89501 0.53221 0.0
H1223 H 0.21873 0.89298 0.57092 0.0
H1224 H 0.04827 0.86155 0.564 0.0
H1225 H 0.02884 0.82976 0.57138 0.0
H1226 H 0.04635 0.83616 0.54456 0.0
H1227 H 0.10537 0.799 0.54668 0.0
H1228 H 0.08816 0.79255 0.57351 0.0
H1229 H 0.14784 0.79909 0.56751 0.0
H1230 H 0.19846 0.88154 0.60857 0.0
H1231 H 0.16919 0.86431 0.64216 0.0
H1232 H 0.0687 0.81804 0.6076 0.0
C1233 C 0.1454 0.84969 0.53286 0.0
C1234 C 0.17961 0.86628 0.5246 0.0
C1235 C 0.20549 0.8822 0.53841 0.0
C1236 C 0.19829 0.88115 0.56034 0.0
C1237 C 0.16444 0.86444 0.56807 0.0
C1238 C 0.13792 0.84929 0.55472 0.0
C1239 C 0.10353 0.83316 0.56704 0.0
C1240 C 0.0538 0.84061 0.56141 0.0
C1241 C 0.11174 0.80424 0.56347 0.0
C1242 C 0.11564 0.84109 0.58943 0.0
C1243 C 0.15097 0.85904 0.58969 0.0
C1244 C 0.17005 0.86792 0.60856 0.0
C1245 C 0.15272 0.85811 0.62767 0.0
C1246 C 0.116 0.83984 0.6279 0.0
C1247 C 0.09703 0.83166 0.60833 0.0
H1248 H 0.13246 0.26335 0.37767 0.0
H1249 H 0.24489 0.28803 0.33695 0.0
H1250 H 0.21598 0.25979 0.3087 0.0
H1251 H 0.13226 0.19526 0.35882 0.0
H1252 H 0.07043 0.19223 0.36055 0.0
H1253 H 0.101 0.21348 0.37831 0.0
H1254 H 0.04945 0.25128 0.36628 0.0
H1255 H 0.01917 0.23023 0.34829 0.0
H1256 H 0.04623 0.25926 0.33859 0.0
H1257 H 0.17118 0.23389 0.28364 0.0
H1258 H 0.11889 0.20553 0.26416 0.0
H1259 H 0.03813 0.19289 0.32102 0.0
C1260 C 0.15143 0.26234 0.36296 0.0
C1261 C 0.19042 0.27831 0.35937 0.0
C1262 C 0.2143 0.27649 0.33989 0.0
C1263 C 0.1983 0.26043 0.32375 0.0
C1264 C 0.15885 0.24579 0.32742 0.0
C1265 C 0.13618 0.246 0.34662 0.0
C1266 C 0.09438 0.22817 0.34602 0.0
C1267 C 0.09986 0.20596 0.36187 0.0
C1268 C 0.04967 0.24314 0.35003 0.0
C1269 C 0.09679 0.21853 0.32336 0.0
C1270 C 0.13416 0.22921 0.31301 0.0
C1271 C 0.14248 0.2248 0.2917 0.0
C1272 C 0.11246 0.20848 0.28072 0.0
C1273 C 0.07497 0.1962 0.29101 0.0
C1274 C 0.06684 0.20158 0.31267 0.0
H1275 H 0.30302 0.2238 0.83824 0.0
H1276 H 0.39039 0.22602 0.89396 0.0
H1277 H 0.44243 0.25689 0.87614 0.0
H1278 H 0.39495 0.22841 0.79904 0.0
H1279 H 0.36227 0.24896 0.78177 0.0
H1280 H 0.3329 0.22612 0.79851 0.0
H1281 H 0.28435 0.26301 0.81411 0.0
H1282 H 0.3142 0.28641 0.7981 0.0
H1283 H 0.31289 0.29016 0.82635 0.0
H1284 H 0.48308 0.28862 0.85307 0.0
H1285 H 0.50987 0.31955 0.82624 0.0
H1286 H 0.3973 0.29632 0.78508 0.0
C1287 C 0.33347 0.23052 0.84656 0.0
C1288 C 0.34263 0.22257 0.86751 0.0
C1289 C 0.3824 0.23211 0.87801 0.0
C1290 C 0.41233 0.24949 0.86797 0.0
C1291 C 0.4021 0.2571 0.84741 0.0
C1292 C 0.36372 0.24794 0.83678 0.0
C1293 C 0.3597 0.26012 0.81509 0.0
C1294 C 0.36264 0.23968 0.79757 0.0
C1295 C 0.31513 0.27584 0.81332 0.0
C1296 C 0.4019 0.27749 0.8152 0.0
C1297 C 0.42577 0.27544 0.83401 0.0
C1298 C 0.46482 0.29029 0.83822 0.0
C1299 C 0.47965 0.30788 0.82286 0.0
C1300 C 0.45558 0.31051 0.80346 0.0
C1301 C 0.41657 0.29478 0.79957 0.0
H1302 H 0.66006 0.25476 0.65206 0.0
H1303 H 0.61069 0.18368 0.68066 0.0
H1304 H 0.57267 0.20845 0.70864 0.0
H1305 H 0.68233 0.28925 0.69851 0.0
H1306 H 0.66066 0.31974 0.6894 0.0
H1307 H 0.68297 0.29683 0.6707 0.0
H1308 H 0.60595 0.29761 0.64991 0.0
H1309 H 0.5837 0.32087 0.66837 0.0
H1310 H 0.55261 0.29124 0.66362 0.0
H1311 H 0.54987 0.23997 0.73624 0.0
H1312 H 0.52905 0.27769 0.75814 0.0
H1313 H 0.58309 0.32878 0.70985 0.0
C1314 C 0.64031 0.24444 0.66389 0.0
C1315 C 0.63956 0.21719 0.66443 0.0
C1316 C 0.61321 0.20449 0.68026 0.0
C1317 C 0.59121 0.21838 0.6962 0.0
C1318 C 0.5945 0.24507 0.69582 0.0
C1319 C 0.61705 0.25809 0.67977 0.0
C1320 C 0.61457 0.28699 0.68316 0.0
C1321 C 0.66302 0.29889 0.68559 0.0
C1322 C 0.58759 0.29994 0.66519 0.0
C1323 C 0.58814 0.28797 0.70383 0.0
C1324 C 0.57761 0.26351 0.711 0.0
C1325 C 0.55685 0.25927 0.73058 0.0
C1326 C 0.54558 0.28068 0.74298 0.0
C1327 C 0.5539 0.30586 0.73541 0.0
C1328 C 0.57556 0.30959 0.71566 0.0
H1329 H 0.83959 0.25173 0.15019 0.0
H1330 H 0.88795 0.32157 0.1812 0.0
H1331 H 0.92961 0.29556 0.2073 0.0
H1332 H 0.82261 0.21439 0.19625 0.0
H1333 H 0.84362 0.1847 0.18523 0.0
H1334 H 0.81855 0.2086 0.1682 0.0
H1335 H 0.8929 0.20943 0.14548 0.0
H1336 H 0.91805 0.18541 0.16242 0.0
H1337 H 0.94772 0.21556 0.15803 0.0
H1338 H 0.9594 0.26267 0.2321 0.0
H1339 H 0.98275 0.22413 0.25221 0.0
H1340 H 0.92217 0.17503 0.20402 0.0
C1341 C 0.85965 0.26155 0.16221 0.0
C1342 C 0.85967 0.28878 0.16379 0.0
C1343 C 0.88622 0.30078 0.17992 0.0
C1344 C 0.91037 0.28618 0.19477 0.0
C1345 C 0.90857 0.25949 0.19314 0.0
C1346 C 0.88462 0.2472 0.17712 0.0
C1347 C 0.88824 0.21813 0.17928 0.0
C1348 C 0.8404 0.20574 0.18243 0.0
C1349 C 0.91322 0.20645 0.16016 0.0
C1350 C 0.91726 0.21615 0.19919 0.0
C1351 C 0.92822 0.2403 0.20697 0.0
C1352 C 0.95182 0.24364 0.22598 0.0
C1353 C 0.96472 0.2217 0.23733 0.0
C1354 C 0.95474 0.19679 0.22946 0.0
C1355 C 0.93103 0.19395 0.21008 0.0
H1356 H 0.83188 0.70686 0.69009 0.0
H1357 H 0.89074 0.723 0.62827 0.0
H1358 H 0.92929 0.76148 0.64286 0.0
H1359 H 0.81298 0.77113 0.70606 0.0
H1360 H 0.82888 0.76489 0.73305 0.0
H1361 H 0.80557 0.73935 0.71715 0.0
H1362 H 0.87823 0.71222 0.72595 0.0
H1363 H 0.90143 0.73839 0.74145 0.0
H1364 H 0.9346 0.72514 0.72 0.0
H1365 H 0.95818 0.79962 0.66389 0.0
H1366 H 0.98096 0.83219 0.69028 0.0
H1367 H 0.91038 0.78839 0.73905 0.0
C1368 C 0.8536 0.718 0.67958 0.0
C1369 C 0.85757 0.71173 0.65786 0.0
C1370 C 0.8858 0.72753 0.6448 0.0
C1371 C 0.90833 0.74938 0.65299 0.0
C1372 C 0.90313 0.755 0.67438 0.0
C1373 C 0.87716 0.7395 0.68756 0.0
C1374 C 0.87732 0.74965 0.70999 0.0
C1375 C 0.82825 0.75669 0.71693 0.0
C1376 C 0.89921 0.73019 0.72524 0.0
C1377 C 0.9074 0.77341 0.70741 0.0
C1378 C 0.92148 0.77629 0.68668 0.0
C1379 C 0.94785 0.79735 0.68022 0.0
C1380 C 0.96062 0.81577 0.69539 0.0
C1381 C 0.94779 0.81286 0.7169 0.0
C1382 C 0.9208 0.7913 0.72287 0.0
H1383 H 0.69555 0.78068 0.18141 0.0
H1384 H 0.60993 0.76981 0.12572 0.0
H1385 H 0.56567 0.73607 0.14429 0.0
H1386 H 0.69885 0.71392 0.19614 0.0
H1387 H 0.69623 0.71974 0.22411 0.0
H1388 H 0.72214 0.7434 0.20698 0.0
H1389 H 0.66683 0.77845 0.22066 0.0
H1390 H 0.64132 0.75536 0.23846 0.0
H1391 H 0.60549 0.77263 0.22007 0.0
H1392 H 0.53081 0.70348 0.16856 0.0
H1393 H 0.50541 0.67543 0.19788 0.0
H1394 H 0.60988 0.70881 0.23848 0.0
C1395 C 0.66722 0.77138 0.17319 0.0
C1396 C 0.65649 0.77781 0.15201 0.0
C1397 C 0.61943 0.76493 0.14178 0.0
C1398 C 0.5939 0.74581 0.15222 0.0
C1399 C 0.60569 0.73977 0.17296 0.0
C1400 C 0.64123 0.75224 0.18341 0.0
C1401 C 0.64666 0.74198 0.20571 0.0
C1402 C 0.69377 0.729 0.20839 0.0
C1403 C 0.63964 0.76338 0.2222 0.0
C1404 C 0.60778 0.72231 0.20632 0.0
C1405 C 0.58504 0.72115 0.18714 0.0
C1406 C 0.54808 0.70442 0.18372 0.0
C1407 C 0.53347 0.6888 0.20048 0.0
C1408 C 0.5551 0.69024 0.22046 0.0
C1409 C 0.59316 0.70698 0.22332 0.0
H1410 H 0.3493 0.80775 0.3262 0.0
H1411 H 0.29018 0.75945 0.37567 0.0
H1412 H 0.32587 0.7217 0.35963 0.0
H1413 H 0.32706 0.76036 0.28398 0.0
H1414 H 0.37887 0.76862 0.26972 0.0
H1415 H 0.35006 0.79267 0.28535 0.0
H1416 H 0.42577 0.80126 0.30609 0.0
H1417 H 0.45466 0.77717 0.29057 0.0
H1418 H 0.45426 0.7748 0.31899 0.0
H1419 H 0.37486 0.69043 0.34137 0.0
H1420 H 0.42447 0.66521 0.31808 0.0
H1421 H 0.43961 0.73007 0.27573 0.0
C1422 C 0.34294 0.78928 0.33358 0.0
C1423 C 0.31756 0.7871 0.35273 0.0
C1424 C 0.31091 0.76226 0.36166 0.0
C1425 C 0.33058 0.74046 0.35247 0.0
C1426 C 0.35566 0.74346 0.33391 0.0
C1427 C 0.36105 0.76704 0.32421 0.0
C1428 C 0.38863 0.76444 0.30386 0.0
C1429 C 0.3594 0.77197 0.28458 0.0
C1430 C 0.43348 0.78037 0.30495 0.0
C1431 C 0.39854 0.73576 0.30398 0.0
C1432 C 0.37969 0.72432 0.32175 0.0
C1433 C 0.38816 0.69885 0.32695 0.0
C1434 C 0.4161 0.68454 0.31351 0.0
C1435 C 0.43376 0.69512 0.29457 0.0
C1436 C 0.42495 0.7212 0.2897 0.0
H1437 H 0.13279 0.74149 0.87214 0.0
H1438 H 0.24426 0.71738 0.83101 0.0
H1439 H 0.21242 0.74359 0.80217 0.0
H1440 H 0.04444 0.74163 0.83377 0.0
H1441 H 0.01646 0.77031 0.8432 0.0
H1442 H 0.04857 0.75052 0.86127 0.0
H1443 H 0.09894 0.78981 0.87207 0.0
H1444 H 0.06644 0.80981 0.85428 0.0
H1445 H 0.12827 0.80817 0.8519 0.0
H1446 H 0.16559 0.76907 0.77694 0.0
H1447 H 0.11206 0.79741 0.75795 0.0
H1448 H 0.03316 0.80765 0.81572 0.0
C1449 C 0.15099 0.74217 0.85722 0.0
C1450 C 0.19065 0.72705 0.85376 0.0
C1451 C 0.21327 0.72834 0.83391 0.0
C1452 C 0.19556 0.74323 0.81743 0.0
C1453 C 0.15555 0.75712 0.82108 0.0
C1454 C 0.13397 0.75721 0.84056 0.0
C1455 C 0.09142 0.77402 0.84013 0.0
C1456 C 0.04764 0.75816 0.84487 0.0
C1457 C 0.0966 0.79681 0.85551 0.0
C1458 C 0.09229 0.78298 0.81731 0.0
C1459 C 0.1294 0.77281 0.80661 0.0
C1460 C 0.13675 0.7775 0.78521 0.0
C1461 C 0.10597 0.79359 0.77454 0.0
C1462 C 0.06864 0.80514 0.78535 0.0
C1463 C 0.06152 0.79938 0.80698 0.0
loop_
_geom_bond_atom_site_label_1
_geom_bond_atom_site_label_2
_geom_bond_distance
_geom_bond_site_symmetry_2
_ccdc_geom_bond_type
C0 C1 1.391 . S
C0 C4 1.391 . S
C0 H42 0.948 . S
C1 C0 1.391 . S
C1 C2 1.391 . S
C2 C1 1.391 . S
C2 H58 0.947 . S
C2 C59 1.392 . S
C3 C4 1.391 . S
C3 C7 1.397 . S
C3 C59 1.419 . S
C4 C0 1.391 . S
C4 C3 1.391 . S
C4 C5 1.399 . S
C5 C4 1.399 . S
C5 C8 1.396 . S
C5 C17 1.453 . S
C5 C18 1.684 . S
H6 C30 0.948 . S
C7 C3 1.397 . S
C7 C8 1.394 . S
C7 C26 1.723 . S
C8 C5 1.396 . S
C8 C7 1.394 . S
C8 C38 1.723 . S
H9 C32 0.947 . S
H10 C33 0.948 . S
H11 C39 0.982 . S
H12 C40 0.979 . S
H13 C40 0.980 . S
H14 C40 0.983 . S
H15 C39 0.979 . S
H16 C39 0.977 . S
C17 C5 1.453 . S
C17 H46 0.982 . S
C17 H47 0.979 . S
C17 H48 0.977 . S
C18 C5 1.684 . S
C18 H43 0.979 . S
C18 H44 0.980 . S
C18 H45 0.983 . S
C19 C20 1.391 . S
C19 C24 1.391 . S
C19 H49 0.948 . S
C20 C19 1.391 . S
C20 C21 1.391 . S
C21 C20 1.391 . S
C21 C22 1.392 . S
C21 H50 0.947 . S
C22 C21 1.392 . S
C22 C23 1.419 . S
C22 H51 0.948 . S
C23 C22 1.419 . S
C23 C24 1.391 . S
C23 C27 1.397 . S
C24 C19 1.391 . S
C24 C23 1.391 . S
C24 C25 1.399 . S
C25 C24 1.399 . S
C25 C26 1.396 . S
C25 C28 1.453 . S
C25 C29 1.684 . S
C26 C7 1.723 . S
C26 C25 1.396 . S
C26 C27 1.394 . S
C27 C23 1.397 . S
C27 C26 1.394 . S
C27 C37 1.723 . S
C28 C25 1.453 . S
C28 H52 0.982 . S
C28 H53 0.979 . S
C28 H54 0.977 . S
C29 C25 1.684 . S
C29 H55 0.979 . S
C29 H56 0.980 . S
C29 H57 0.983 . S
C30 H6 0.948 . S
C30 C31 1.391 . S
C30 C35 1.391 . S
C31 C30 1.391 . S
C31 C32 1.391 . S
C32 H9 0.947 . S
C32 C31 1.391 . S
C32 C33 1.392 . S
C33 H10 0.948 . S
C33 C32 1.392 . S
C33 C34 1.419 . S
C34 C33 1.419 . S
C34 C35 1.391 . S
C34 C38 1.397 . S
C35 C30 1.391 . S
C35 C34 1.391 . S
C35 C36 1.399 . S
C36 C35 1.399 . S
C36 C37 1.396 . S
C36 C39 1.453 . S
C36 C40 1.684 . S
C37 C27 1.723 . S
C37 C36 1.396 . S
C37 C38 1.394 . S
C38 C8 1.723 . S
C38 C34 1.397 . S
C38 C37 1.394 . S
C39 H11 0.982 . S
C39 H15 0.979 . S
C39 H16 0.977 . S
C39 C36 1.453 . S
C40 H12 0.979 . S
C40 H13 0.980 . S
C40 H14 0.983 . S
C40 C36 1.684 . S
H41 C59 0.948 . S
H42 C0 0.948 . S
H43 C18 0.979 . S
H44 C18 0.980 . S
H45 C18 0.983 . S
H46 C17 0.982 . S
H47 C17 0.979 . S
H48 C17 0.977 . S
H49 C19 0.948 . S
H50 C21 0.947 . S
H51 C22 0.948 . S
H52 C28 0.982 . S
H53 C28 0.979 . S
H54 C28 0.977 . S
H55 C29 0.979 . S
H56 C29 0.980 . S
H57 C29 0.983 . S
H58 C2 0.947 . S
C59 C2 1.392 . S
C59 C3 1.419 . S
C59 H41 0.948 . S
C60 C61 1.391 . S
C60 C64 1.391 . S
C60 H102 0.948 . S
C61 C60 1.391 . S
C61 C62 1.391 . S
C62 C61 1.391 . S
C62 H118 0.947 . S
C62 C119 1.392 . S
C63 C64 1.391 . S
C63 C67 1.397 . S
C63 C119 1.419 . S
C64 C60 1.391 . S
C64 C63 1.391 . S
C64 C65 1.399 . S
C65 C64 1.399 . S
C65 C68 1.396 . S
C65 C77 1.453 . S
C65 C78 1.684 . S
H66 C90 0.948 . S
C67 C63 1.397 . S
C67 C68 1.394 . S
C67 C86 1.723 . S
C68 C65 1.396 . S
C68 C67 1.394 . S
C68 C98 1.723 . S
H69 C92 0.947 . S
H70 C93 0.948 . S
H71 C99 0.982 . S
H72 C100 0.979 . S
H73 C100 0.980 . S
H74 C100 0.983 . S
H75 C99 0.979 . S
H76 C99 0.977 . S
C77 C65 1.453 . S
C77 H106 0.982 . S
C77 H107 0.979 . S
C77 H108 0.977 . S
C78 C65 1.684 . S
C78 H103 0.979 . S
C78 H104 0.980 . S
C78 H105 0.983 . S
C79 C80 1.391 . S
C79 C84 1.391 . S
C79 H109 0.948 . S
C80 C79 1.391 . S
C80 C81 1.391 . S
C81 C80 1.391 . S
C81 C82 1.392 . S
C81 H110 0.947 . S
C82 C81 1.392 . S
C82 C83 1.419 . S
C82 H111 0.948 . S
C83 C82 1.419 . S
C83 C84 1.391 . S
C83 C87 1.397 . S
C84 C79 1.391 . S
C84 C83 1.391 . S
C84 C85 1.399 . S
C85 C84 1.399 . S
C85 C86 1.396 . S
C85 C88 1.453 . S
C85 C89 1.684 . S
C86 C67 1.723 . S
C86 C85 1.396 . S
C86 C87 1.394 . S
C87 C83 1.397 . S
C87 C86 1.394 . S
C87 C97 1.723 . S
C88 C85 1.453 . S
C88 H112 0.982 . S
C88 H113 0.979 . S
C88 H114 0.977 . S
C89 C85 1.684 . S
C89 H115 0.979 . S
C89 H116 0.980 . S
C89 H117 0.983 . S
C90 H66 0.948 . S
C90 C91 1.391 . S
C90 C95 1.391 . S
C91 C90 1.391 . S
C91 C92 1.391 . S
C92 H69 0.947 . S
C92 C91 1.391 . S
C92 C93 1.392 . S
C93 H70 0.948 . S
C93 C92 1.392 . S
C93 C94 1.419 . S
C94 C93 1.419 . S
C94 C95 1.391 . S
C94 C98 1.397 . S
C95 C90 1.391 . S
C95 C94 1.391 . S
C95 C96 1.399 . S
C96 C95 1.399 . S
C96 C97 1.396 . S
C96 C99 1.453 . S
C96 C100 1.684 . S
C97 C87 1.723 . S
C97 C96 1.396 . S
C97 C98 1.394 . S
C98 C68 1.723 . S
C98 C94 1.397 . S
C98 C97 1.394 . S
C99 H71 0.982 . S
C99 H75 0.979 . S
C99 H76 0.977 . S
C99 C96 1.453 . S
C100 H72 0.979 . S
C100 H73 0.980 . S
C100 H74 0.983 . S
C100 C96 1.684 . S
H101 C119 0.948 . S
H102 C60 0.948 . S
H103 C78 0.979 . S
H104 C78 0.980 . S
H105 C78 0.983 . S
H106 C77 0.982 . S
H107 C77 0.979 . S
H108 C77 0.977 . S
H109 C79 0.948 . S
H110 C81 0.947 . S
H111 C82 0.948 . S
H112 C88 0.982 . S
H113 C88 0.979 . S
H114 C88 0.977 . S
H115 C89 0.979 . S
H116 C89 0.980 . S
H117 C89 0.983 . S
H118 C62 0.947 . S
C119 C62 1.392 . S
C119 C63 1.419 . S
C119 H101 0.948 . S
C120 C121 1.391 . S
C120 C124 1.391 . S
C120 H162 0.948 . S
C121 C120 1.391 . S
C121 C122 1.391 . S
C122 C121 1.391 . S
C122 H178 0.947 . S
C122 C179 1.392 . S
C123 C124 1.391 . S
C123 C127 1.397 . S
C123 C179 1.419 . S
C124 C120 1.391 . S
C124 C123 1.391 . S
C124 C125 1.399 . S
C125 C124 1.399 . S
C125 C128 1.396 . S
C125 C137 1.453 . S
C125 C138 1.684 . S
H126 C150 0.948 . S
C127 C123 1.397 . S
C127 C128 1.394 . S
C127 C146 1.723 . S
C128 C125 1.396 . S
C128 C127 1.394 . S
C128 C158 1.723 . S
H129 C152 0.947 . S
H130 C153 0.948 . S
H131 C159 0.982 . S
H132 C160 0.979 . S
H133 C160 0.980 . S
H134 C160 0.983 . S
H135 C159 0.979 . S
H136 C159 0.977 . S
C137 C125 1.453 . S
C137 H166 0.982 . S
C137 H167 0.979 . S
C137 H168 0.977 . S
C138 C125 1.684 . S
C138 H163 0.979 . S
C138 H164 0.980 . S
C138 H165 0.983 . S
C139 C140 1.391 . S
C139 C144 1.391 . S
C139 H169 0.948 . S
C140 C139 1.391 . S
C140 C141 1.391 . S
C141 C140 1.391 . S
C141 C142 1.392 . S
C141 H170 0.947 . S
C142 C141 1.392 . S
C142 C143 1.419 . S
C142 H171 0.948 . S
C143 C142 1.419 . S
C143 C144 1.391 . S
C143 C147 1.397 . S
C144 C139 1.391 . S
C144 C143 1.391 . S
C144 C145 1.399 . S
C145 C144 1.399 . S
C145 C146 1.396 . S
C145 C148 1.453 . S
C145 C149 1.684 . S
C146 C127 1.723 . S
C146 C145 1.396 . S
C146 C147 1.394 . S
C147 C143 1.397 . S
C147 C146 1.394 . S
C147 C157 1.723 . S
C148 C145 1.453 . S
C148 H172 0.982 . S
C148 H173 0.979 . S
C148 H174 0.977 . S
C149 C145 1.684 . S
C149 H175 0.979 . S
C149 H176 0.980 . S
C149 H177 0.983 . S
C150 H126 0.948 . S
C150 C151 1.391 . S
C150 C155 1.391 . S
C151 C150 1.391 . S
C151 C152 1.391 . S
C152 H129 0.947 . S
C152 C151 1.391 . S
C152 C153 1.392 . S
C153 H130 0.948 . S
C153 C152 1.392 . S
C153 C154 1.419 . S
C154 C153 1.419 . S
C154 C155 1.391 . S
C154 C158 1.397 . S
C155 C150 1.391 . S
C155 C154 1.391 . S
C155 C156 1.399 . S
C156 C155 1.399 . S
C156 C157 1.396 . S
C156 C159 1.453 . S
C156 C160 1.684 . S
C157 C147 1.723 . S
C157 C156 1.396 . S
C157 C158 1.394 . S
C158 C128 1.723 . S
C158 C154 1.397 . S
C158 C157 1.394 . S
C159 H131 0.982 . S
C159 H135 0.979 . S
C159 H136 0.977 . S
C159 C156 1.453 . S
C160 H132 0.979 . S
C160 H133 0.980 . S
C160 H134 0.983 . S
C160 C156 1.684 . S
H161 C179 0.948 . S
H162 C120 0.948 . S
H163 C138 0.979 . S
H164 C138 0.980 . S
H165 C138 0.983 . S
H166 C137 0.982 . S
H167 C137 0.979 . S
H168 C137 0.977 . S
H169 C139 0.948 . S
H170 C141 0.947 . S
H171 C142 0.948 . S
H172 C148 0.982 . S
H173 C148 0.979 . S
H174 C148 0.977 . S
H175 C149 0.979 . S
H176 C149 0.980 . S
H177 C149 0.983 . S
H178 C122 0.947 . S
C179 C122 1.392 . S
C179 C123 1.419 . S
C179 H161 0.948 . S
C180 C181 1.391 . S
C180 C184 1.391 . S
C180 H222 0.948 . S
C181 C180 1.391 . S
C181 C182 1.391 . S
C182 C181 1.391 . S
C182 H238 0.947 . S
C182 C239 1.392 . S
C183 C184 1.391 . S
C183 C187 1.397 . S
C183 C239 1.419 . S
C184 C180 1.391 . S
C184 C183 1.391 . S
C184 C185 1.399 . S
C185 C184 1.399 . S
C185 C188 1.396 . S
C185 C197 1.453 . S
C185 C198 1.684 . S
H186 C210 0.948 . S
C187 C183 1.397 . S
C187 C188 1.394 . S
C187 C206 1.723 . S
C188 C185 1.396 . S
C188 C187 1.394 . S
C188 C218 1.723 . S
H189 C212 0.947 . S
H190 C213 0.948 . S
H191 C219 0.982 . S
H192 C220 0.979 . S
H193 C220 0.980 . S
H194 C220 0.983 . S
H195 C219 0.979 . S
H196 C219 0.977 . S
C197 C185 1.453 . S
C197 H226 0.982 . S
C197 H227 0.979 . S
C197 H228 0.977 . S
C198 C185 1.684 . S
C198 H223 0.979 . S
C198 H224 0.980 . S
C198 H225 0.983 . S
C199 C200 1.391 . S
C199 C204 1.391 . S
C199 H229 0.948 . S
C200 C199 1.391 . S
C200 C201 1.391 . S
C201 C200 1.391 . S
C201 C202 1.392 . S
C201 H230 0.947 . S
C202 C201 1.392 . S
C202 C203 1.419 . S
C202 H231 0.948 . S
C203 C202 1.419 . S
C203 C204 1.391 . S
C203 C207 1.397 . S
C204 C199 1.391 . S
C204 C203 1.391 . S
C204 C205 1.399 . S
C205 C204 1.399 . S
C205 C206 1.396 . S
C205 C208 1.453 . S
C205 C209 1.684 . S
C206 C187 1.723 . S
C206 C205 1.396 . S
C206 C207 1.394 . S
C207 C203 1.397 . S
C207 C206 1.394 . S
C207 C217 1.723 . S
C208 C205 1.453 . S
C208 H232 0.982 . S
C208 H233 0.979 . S
C208 H234 0.977 . S
C209 C205 1.684 . S
C209 H235 0.979 . S
C209 H236 0.980 . S
C209 H237 0.983 . S
C210 H186 0.948 . S
C210 C211 1.391 . S
C210 C215 1.391 . S
C211 C210 1.391 . S
C211 C212 1.391 . S
C212 H189 0.947 . S
C212 C211 1.391 . S
C212 C213 1.392 . S
C213 H190 0.948 . S
C213 C212 1.392 . S
C213 C214 1.419 . S
C214 C213 1.419 . S
C214 C215 1.391 . S
C214 C218 1.397 . S
C215 C210 1.391 . S
C215 C214 1.391 . S
C215 C216 1.399 . S
C216 C215 1.399 . S
C216 C217 1.396 . S
C216 C219 1.453 . S
C216 C220 1.684 . S
C217 C207 1.723 . S
C217 C216 1.396 . S
C217 C218 1.394 . S
C218 C188 1.723 . S
C218 C214 1.397 . S
C218 C217 1.394 . S
C219 H191 0.982 . S
C219 H195 0.979 . S
C219 H196 0.977 . S
C219 C216 1.453 . S
C220 H192 0.979 . S
C220 H193 0.980 . S
C220 H194 0.983 . S
C220 C216 1.684 . S
H221 C239 0.948 . S
H222 C180 0.948 . S
H223 C198 0.979 . S
H224 C198 0.980 . S
H225 C198 0.983 . S
H226 C197 0.982 . S
H227 C197 0.979 . S
H228 C197 0.977 . S
H229 C199 0.948 . S
H230 C201 0.947 . S
H231 C202 0.948 . S
H232 C208 0.982 . S
H233 C208 0.979 . S
H234 C208 0.977 . S
H235 C209 0.979 . S
H236 C209 0.980 . S
H237 C209 0.983 . S
H238 C182 0.947 . S
C239 C182 1.392 . S
C239 C183 1.419 . S
C239 H221 0.948 . S
C240 C241 1.391 . S
C240 C244 1.391 . S
C240 H282 0.948 . S
C241 C240 1.391 . S
C241 C242 1.391 . S
C242 C241 1.391 . S
C242 H298 0.947 . S
C242 C299 1.392 . S
C243 C244 1.391 . S
C243 C247 1.397 . S
C243 C299 1.419 . S
C244 C240 1.391 . S
C244 C243 1.391 . S
C244 C245 1.399 . S
C245 C244 1.399 . S
C245 C248 1.396 . S
C245 C257 1.453 . S
C245 C258 1.684 . S
H246 C270 0.948 . S
C247 C243 1.397 . S
C247 C248 1.394 . S
C247 C266 1.723 . S
C248 C245 1.396 . S
C248 C247 1.394 . S
C248 C278 1.723 . S
H249 C272 0.947 . S
H250 C273 0.948 . S
H251 C279 0.982 . S
H252 C280 0.979 . S
H253 C280 0.980 . S
H254 C280 0.983 . S
H255 C279 0.979 . S
H256 C279 0.977 . S
C257 C245 1.453 . S
C257 H286 0.982 . S
C257 H287 0.979 . S
C257 H288 0.977 . S
C258 C245 1.684 . S
C258 H283 0.979 . S
C258 H284 0.980 . S
C258 H285 0.983 . S
C259 C260 1.391 . S
C259 C264 1.391 . S
C259 H289 0.948 . S
C260 C259 1.391 . S
C260 C261 1.391 . S
C261 C260 1.391 . S
C261 C262 1.392 . S
C261 H290 0.947 . S
C262 C261 1.392 . S
C262 C263 1.419 . S
C262 H291 0.948 . S
C263 C262 1.419 . S
C263 C264 1.391 . S
C263 C267 1.397 . S
C264 C259 1.391 . S
C264 C263 1.391 . S
C264 C265 1.399 . S
C265 C264 1.399 . S
C265 C266 1.396 . S
C265 C268 1.453 . S
C265 C269 1.684 . S
C266 C247 1.723 . S
C266 C265 1.396 . S
C266 C267 1.394 . S
C267 C263 1.397 . S
C267 C266 1.394 . S
C267 C277 1.723 . S
C268 C265 1.453 . S
C268 H292 0.982 . S
C268 H293 0.979 . S
C268 H294 0.977 . S
C269 C265 1.684 . S
C269 H295 0.979 . S
C269 H296 0.980 . S
C269 H297 0.983 . S
C270 H246 0.948 . S
C270 C271 1.391 . S
C270 C275 1.391 . S
C271 C270 1.391 . S
C271 C272 1.391 . S
C272 H249 0.947 . S
C272 C271 1.391 . S
C272 C273 1.392 . S
C273 H250 0.948 . S
C273 C272 1.392 . S
C273 C274 1.419 . S
C274 C273 1.419 . S
C274 C275 1.391 . S
C274 C278 1.397 . S
C275 C270 1.391 . S
C275 C274 1.391 . S
C275 C276 1.399 . S
C276 C275 1.399 . S
C276 C277 1.396 . S
C276 C279 1.453 . S
C276 C280 1.684 . S
C277 C267 1.723 . S
C277 C276 1.396 . S
C277 C278 1.394 . S
C278 C248 1.723 . S
C278 C274 1.397 . S
C278 C277 1.394 . S
C279 H251 0.982 . S
C279 H255 0.979 . S
C279 H256 0.977 . S
C279 C276 1.453 . S
C280 H252 0.979 . S
C280 H253 0.980 . S
C280 H254 0.983 . S
C280 C276 1.684 . S
H281 C299 0.948 . S
H282 C240 0.948 . S
H283 C258 0.979 . S
H284 C258 0.980 . S
H285 C258 0.983 . S
H286 C257 0.982 . S
H287 C257 0.979 . S
H288 C257 0.977 . S
H289 C259 0.948 . S
H290 C261 0.947 . S
H291 C262 0.948 . S
H292 C268 0.982 . S
H293 C268 0.979 . S
H294 C268 0.977 . S
H295 C269 0.979 . S
H296 C269 0.980 . S
H297 C269 0.983 . S
H298 C242 0.947 . S
C299 C242 1.392 . S
C299 C243 1.419 . S
C299 H281 0.948 . S
C300 C301 1.391 . S
C300 C304 1.391 . S
C300 H342 0.948 . S
C301 C300 1.391 . S
C301 C302 1.391 . S
C302 C301 1.391 . S
C302 H358 0.947 . S
C302 C359 1.392 . S
C303 C304 1.391 . S
C303 C307 1.397 . S
C303 C359 1.419 . S
C304 C300 1.391 . S
C304 C303 1.391 . S
C304 C305 1.399 . S
C305 C304 1.399 . S
C305 C308 1.396 . S
C305 C317 1.453 . S
C305 C318 1.684 . S
H306 C330 0.948 . S
C307 C303 1.397 . S
C307 C308 1.394 . S
C307 C326 1.723 . S
C308 C305 1.396 . S
C308 C307 1.394 . S
C308 C338 1.723 . S
H309 C332 0.947 . S
H310 C333 0.948 . S
H311 C339 0.982 . S
H312 C340 0.979 . S
H313 C340 0.980 . S
H314 C340 0.983 . S
H315 C339 0.979 . S
H316 C339 0.977 . S
C317 C305 1.453 . S
C317 H346 0.982 . S
C317 H347 0.979 . S
C317 H348 0.977 . S
C318 C305 1.684 . S
C318 H343 0.979 . S
C318 H344 0.980 . S
C318 H345 0.983 . S
C319 C320 1.391 . S
C319 C324 1.391 . S
C319 H349 0.948 . S
C320 C319 1.391 . S
C320 C321 1.391 . S
C321 C320 1.391 . S
C321 C322 1.392 . S
C321 H350 0.947 . S
C322 C321 1.392 . S
C322 C323 1.419 . S
C322 H351 0.948 . S
C323 C322 1.419 . S
C323 C324 1.391 . S
C323 C327 1.397 . S
C324 C319 1.391 . S
C324 C323 1.391 . S
C324 C325 1.399 . S
C325 C324 1.399 . S
C325 C326 1.396 . S
C325 C328 1.453 . S
C325 C329 1.684 . S
C326 C307 1.723 . S
C326 C325 1.396 . S
C326 C327 1.394 . S
C327 C323 1.397 . S
C327 C326 1.394 . S
C327 C337 1.723 . S
C328 C325 1.453 . S
C328 H352 0.982 . S
C328 H353 0.979 . S
C328 H354 0.977 . S
C329 C325 1.684 . S
C329 H355 0.979 . S
C329 H356 0.980 . S
C329 H357 0.983 . S
C330 H306 0.948 . S
C330 C331 1.391 . S
C330 C335 1.391 . S
C331 C330 1.391 . S
C331 C332 1.391 . S
C332 H309 0.947 . S
C332 C331 1.391 . S
C332 C333 1.392 . S
C333 H310 0.948 . S
C333 C332 1.392 . S
C333 C334 1.419 . S
C334 C333 1.419 . S
C334 C335 1.391 . S
C334 C338 1.397 . S
C335 C330 1.391 . S
C335 C334 1.391 . S
C335 C336 1.399 . S
C336 C335 1.399 . S
C336 C337 1.396 . S
C336 C339 1.453 . S
C336 C340 1.684 . S
C337 C327 1.723 . S
C337 C336 1.396 . S
C337 C338 1.394 . S
C338 C308 1.723 . S
C338 C334 1.397 . S
C338 C337 1.394 . S
C339 H311 0.982 . S
C339 H315 0.979 . S
C339 H316 0.977 . S
C339 C336 1.453 . S
C340 H312 0.979 . S
C340 H313 0.980 . S
C340 H314 0.983 . S
C340 C336 1.684 . S
H341 C359 0.948 . S
H342 C300 0.948 . S
H343 C318 0.979 . S
H344 C318 0.980 . S
H345 C318 0.983 . S
H346 C317 0.982 . S
H347 C317 0.979 . S
H348 C317 0.977 . S
H349 C319 0.948 . S
H350 C321 0.947 . S
H351 C322 0.948 . S
H352 C328 0.982 . S
H353 C328 0.979 . S
H354 C328 0.977 . S
H355 C329 0.979 . S
H356 C329 0.980 . S
H357 C329 0.983 . S
H358 C302 0.947 . S
C359 C302 1.392 . S
C359 C303 1.419 . S
C359 H341 0.948 . S
C360 C361 1.391 . S
C360 C364 1.391 . S
C360 H402 0.948 . S
C361 C360 1.391 . S
C361 C362 1.391 . S
C362 C361 1.391 . S
C362 H418 0.947 . S
C362 C419 1.392 . S
C363 C364 1.391 . S
C363 C367 1.397 . S
C363 C419 1.419 . S
C364 C360 1.391 . S
C364 C363 1.391 . S
C364 C365 1.399 . S
C365 C364 1.399 . S
C365 C368 1.396 . S
C365 C377 1.453 . S
C365 C378 1.684 . S
H366 C390 0.948 . S
C367 C363 1.397 . S
C367 C368 1.394 . S
C367 C386 1.723 . S
C368 C365 1.396 . S
C368 C367 1.394 . S
C368 C398 1.723 . S
H369 C392 0.947 . S
H370 C393 0.948 . S
H371 C399 0.982 . S
H372 C400 0.979 . S
H373 C400 0.980 . S
H374 C400 0.983 . S
H375 C399 0.979 . S
H376 C399 0.977 . S
C377 C365 1.453 . S
C377 H406 0.982 . S
C377 H407 0.979 . S
C377 H408 0.977 . S
C378 C365 1.684 . S
C378 H403 0.979 . S
C378 H404 0.980 . S
C378 H405 0.983 . S
C379 C380 1.391 . S
C379 C384 1.391 . S
C379 H409 0.948 . S
C380 C379 1.391 . S
C380 C381 1.391 . S
C381 C380 1.391 . S
C381 C382 1.392 . S
C381 H410 0.947 . S
C382 C381 1.392 . S
C382 C383 1.419 . S
C382 H411 0.948 . S
C383 C382 1.419 . S
C383 C384 1.391 . S
C383 C387 1.397 . S
C384 C379 1.391 . S
C384 C383 1.391 . S
C384 C385 1.399 . S
C385 C384 1.399 . S
C385 C386 1.396 . S
C385 C388 1.453 . S
C385 C389 1.684 . S
C386 C367 1.723 . S
C386 C385 1.396 . S
C386 C387 1.394 . S
C387 C383 1.397 . S
C387 C386 1.394 . S
C387 C397 1.723 . S
C388 C385 1.453 . S
C388 H412 0.982 . S
C388 H413 0.979 . S
C388 H414 0.977 . S
C389 C385 1.684 . S
C389 H415 0.979 . S
C389 H416 0.980 . S
C389 H417 0.983 . S
C390 H366 0.948 . S
C390 C391 1.391 . S
C390 C395 1.391 . S
C391 C390 1.391 . S
C391 C392 1.391 . S
C392 H369 0.947 . S
C392 C391 1.391 . S
C392 C393 1.392 . S
C393 H370 0.948 . S
C393 C392 1.392 . S
C393 C394 1.419 . S
C394 C393 1.419 . S
C394 C395 1.391 . S
C394 C398 1.397 . S
C395 C390 1.391 . S
C395 C394 1.391 . S
C395 C396 1.399 . S
C396 C395 1.399 . S
C396 C397 1.396 . S
C396 C399 1.453 . S
C396 C400 1.684 . S
C397 C387 1.723 . S
C397 C396 1.396 . S
C397 C398 1.394 . S
C398 C368 1.723 . S
C398 C394 1.397 . S
C398 C397 1.394 . S
C399 H371 0.982 . S
C399 H375 0.979 . S
C399 H376 0.977 . S
C399 C396 1.453 . S
C400 H372 0.979 . S
C400 H373 0.980 . S
C400 H374 0.983 . S
C400 C396 1.684 . S
H401 C419 0.948 . S
H402 C360 0.948 . S
H403 C378 0.979 . S
H404 C378 0.980 . S
H405 C378 0.983 . S
H406 C377 0.982 . S
H407 C377 0.979 . S
H408 C377 0.977 . S
H409 C379 0.948 . S
H410 C381 0.947 . S
H411 C382 0.948 . S
H412 C388 0.982 . S
H413 C388 0.979 . S
H414 C388 0.977 . S
H415 C389 0.979 . S
H416 C389 0.980 . S
H417 C389 0.983 . S
H418 C362 0.947 . S
C419 C362 1.392 . S
C419 C363 1.419 . S
C419 H401 0.948 . S
C420 C421 1.391 . S
C420 C424 1.391 . S
C420 H462 0.948 . S
C421 C420 1.391 . S
C421 C422 1.391 . S
C422 C421 1.391 . S
C422 H478 0.947 . S
C422 C479 1.392 . S
C423 C424 1.391 . S
C423 C427 1.397 . S
C423 C479 1.419 . S
C424 C420 1.391 . S
C424 C423 1.391 . S
C424 C425 1.399 . S
C425 C424 1.399 . S
C425 C428 1.396 . S
C425 C437 1.453 . S
C425 C438 1.684 . S
H426 C450 0.948 . S
C427 C423 1.397 . S
C427 C428 1.394 . S
C427 C446 1.723 . S
C428 C425 1.396 . S
C428 C427 1.394 . S
C428 C458 1.723 . S
H429 C452 0.947 . S
H430 C453 0.948 . S
H431 C459 0.982 . S
H432 C460 0.979 . S
H433 C460 0.980 . S
H434 C460 0.983 . S
H435 C459 0.979 . S
H436 C459 0.977 . S
C437 C425 1.453 . S
C437 H466 0.982 . S
C437 H467 0.979 . S
C437 H468 0.977 . S
C438 C425 1.684 . S
C438 H463 0.979 . S
C438 H464 0.980 . S
C438 H465 0.983 . S
C439 C440 1.391 . S
C439 C444 1.391 . S
C439 H469 0.948 . S
C440 C439 1.391 . S
C440 C441 1.391 . S
C441 C440 1.391 . S
C441 C442 1.392 . S
C441 H470 0.947 . S
C442 C441 1.392 . S
C442 C443 1.419 . S
C442 H471 0.948 . S
C443 C442 1.419 . S
C443 C444 1.391 . S
C443 C447 1.397 . S
C444 C439 1.391 . S
C444 C443 1.391 . S
C444 C445 1.399 . S
C445 C444 1.399 . S
C445 C446 1.396 . S
C445 C448 1.453 . S
C445 C449 1.684 . S
C446 C427 1.723 . S
C446 C445 1.396 . S
C446 C447 1.394 . S
C447 C443 1.397 . S
C447 C446 1.394 . S
C447 C457 1.723 . S
C448 C445 1.453 . S
C448 H472 0.982 . S
C448 H473 0.979 . S
C448 H474 0.977 . S
C449 C445 1.684 . S
C449 H475 0.979 . S
C449 H476 0.980 . S
C449 H477 0.983 . S
C450 H426 0.948 . S
C450 C451 1.391 . S
C450 C455 1.391 . S
C451 C450 1.391 . S
C451 C452 1.391 . S
C452 H429 0.947 . S
C452 C451 1.391 . S
C452 C453 1.392 . S
C453 H430 0.948 . S
C453 C452 1.392 . S
C453 C454 1.419 . S
C454 C453 1.419 . S
C454 C455 1.391 . S
C454 C458 1.397 . S
C455 C450 1.391 . S
C455 C454 1.391 . S
C455 C456 1.399 . S
C456 C455 1.399 . S
C456 C457 1.396 . S
C456 C459 1.453 . S
C456 C460 1.684 . S
C457 C447 1.723 . S
C457 C456 1.396 . S
C457 C458 1.394 . S
C458 C428 1.723 . S
C458 C454 1.397 . S
C458 C457 1.394 . S
C459 H431 0.982 . S
C459 H435 0.979 . S
C459 H436 0.977 . S
C459 C456 1.453 . S
C460 H432 0.979 . S
C460 H433 0.980 . S
C460 H434 0.983 . S
C460 C456 1.684 . S
H461 C479 0.948 . S
H462 C420 0.948 . S
H463 C438 0.979 . S
H464 C438 0.980 . S
H465 C438 0.983 . S
H466 C437 0.982 . S
H467 C437 0.979 . S
H468 C437 0.977 . S
H469 C439 0.948 . S
H470 C441 0.947 . S
H471 C442 0.948 . S
H472 C448 0.982 . S
H473 C448 0.979 . S
H474 C448 0.977 . S
H475 C449 0.979 . S
H476 C449 0.980 . S
H477 C449 0.983 . S
H478 C422 0.947 . S
C479 C422 1.392 . S
C479 C423 1.419 . S
C479 H461 0.948 . S
Tb480 N509 2.617 . S
Tb480 N515 2.572 . S
Tb480 O524 2.465 . S
Tb480 O525 2.387 . S
Tb480 O527 2.428 . S
Tb480 O528 2.318 . S
Tb480 O532 2.349 . S
Tb480 O535 2.393 . S
Tb480 C544 2.802 . S
C481 N482 1.379 . S
C481 C484 1.416 . S
C481 C488 1.424 . S
N482 C481 1.379 . S
N482 C485 1.334 . S
N482 Tb491 2.617 . S
C483 C485 1.390 . S
C483 C486 1.339 . S
C483 H503 0.930 . S
C484 C481 1.416 . S
C484 C486 1.416 . S
C484 C490 1.448 . S
C485 N482 1.334 . S
C485 C483 1.390 . S
C485 H496 0.930 . S
C486 C483 1.339 . S
C486 C484 1.416 . S
C486 H507 0.930 . S
C487 C488 1.413 . S
C487 C489 1.427 . S
C487 C493 1.416 . S
C488 C481 1.424 . S
C488 C487 1.413 . S
C488 N492 1.361 . S
C489 C487 1.427 . S
C489 C490 1.328 . S
C489 H504 0.929 . S
C490 C484 1.448 . S
C490 C489 1.328 . S
C490 H505 0.930 . S
Tb491 N482 2.617 . S
Tb491 N492 2.572 . S
Tb491 O526 2.344 1_655 S
Tb491 O529 2.393 . S
Tb491 O530 2.465 . S
Tb491 O531 2.387 . S
Tb491 O533 2.428 . S
Tb491 O534 2.308 1_655 S
Tb491 C555 2.802 . S
N492 C488 1.361 . S
N492 Tb491 2.572 . S
N492 C494 1.340 . S
C493 C487 1.416 . S
C493 C495 1.332 . S
C493 H501 0.931 . S
C494 N492 1.340 . S
C494 C495 1.407 . S
C494 H500 0.930 . S
C495 C493 1.332 . S
C495 C494 1.407 . S
C495 H497 0.929 . S
H496 C485 0.930 . S
H497 C495 0.929 . S
H498 C513 0.930 . S
H499 C520 0.929 . S
H500 C494 0.930 . S
H501 C493 0.931 . S
H502 C516 0.930 . S
H503 C483 0.930 . S
H504 C489 0.929 . S
H505 C490 0.930 . S
H506 C511 0.930 . S
H507 C486 0.930 . S
H508 C519 0.931 . S
N509 Tb480 2.617 . S
N509 C510 1.379 . S
N509 C513 1.334 . S
C510 N509 1.379 . S
C510 C512 1.416 . S
C510 C518 1.424 . S
C511 H506 0.930 . S
C511 C513 1.390 . S
C511 C514 1.339 . S
C512 C510 1.416 . S
C512 C514 1.416 . S
C512 C545 1.448 . S
C513 H498 0.930 . S
C513 N509 1.334 . S
C513 C511 1.390 . S
C514 C511 1.339 . S
C514 C512 1.416 . S
C514 H521 0.930 . S
N515 Tb480 2.572 . S
N515 C516 1.340 . S
N515 C518 1.361 . S
C516 H502 0.930 . S
C516 N515 1.340 . S
C516 C520 1.407 . S
C517 C518 1.413 . S
C517 C519 1.416 . S
C517 C546 1.427 . S
C518 C510 1.424 . S
C518 N515 1.361 . S
C518 C517 1.413 . S
C519 H508 0.931 . S
C519 C517 1.416 . S
C519 C520 1.332 . S
C520 H499 0.929 . S
C520 C516 1.407 . S
C520 C519 1.332 . S
H521 C514 0.930 . S
H522 C545 0.930 . S
H523 C546 0.929 . S
O524 Tb480 2.465 . S
O524 C544 1.264 . S
O525 Tb480 2.387 . S
O525 C536 1.264 . S
O526 Tb491 2.344 1_455 S
O526 C536 1.250 . S
O527 Tb480 2.428 . S
O527 C544 1.256 . S
O528 Tb480 2.318 . S
O528 C543 1.255 1_455 S
O529 Tb491 2.393 . S
O529 C543 1.248 . S
O530 Tb491 2.465 . S
O530 C555 1.264 . S
O531 Tb491 2.387 . S
O531 C547 1.264 . S
O532 Tb480 2.349 . S
O532 C547 1.243 1_455 S
O533 Tb491 2.428 . S
O533 C555 1.256 . S
O534 Tb491 2.308 1_455 S
O534 C554 1.266 . S
O535 Tb480 2.393 . S
O535 C554 1.248 . S
C536 O525 1.264 . S
C536 O526 1.250 . S
C537 C540 1.399 . S
C537 C542 1.383 . S
C537 C544 1.496 . S
C538 C539 1.399 . S
C538 C542 1.389 . S
C539 C538 1.399 . S
C539 C541 1.380 . S
C539 H556 0.929 . S
C540 C537 1.399 . S
C540 C541 1.392 . S
C540 H557 0.929 . S
C541 C539 1.380 . S
C541 C540 1.392 . S
C541 H558 0.929 . S
C542 C537 1.383 . S
C542 C538 1.389 . S
C542 H559 0.931 . S
C543 O528 1.255 1_655 S
C543 O529 1.248 . S
C544 Tb480 2.802 . S
C544 O524 1.264 . S
C544 O527 1.256 . S
C544 C537 1.496 . S
C545 C512 1.448 . S
C545 H522 0.930 . S
C545 C546 1.328 . S
C546 C517 1.427 . S
C546 H523 0.929 . S
C546 C545 1.328 . S
C547 O531 1.264 . S
C547 O532 1.243 1_655 S
C548 C551 1.399 . S
C548 C552 1.383 . S
C548 C555 1.496 . S
C549 C550 1.399 . S
C549 C552 1.389 . S
C550 C549 1.399 . S
C550 C553 1.380 . S
C550 H560 0.929 . S
C551 C548 1.399 . S
C551 C553 1.392 . S
C551 H561 0.929 . S
C552 C548 1.383 . S
C552 C549 1.389 . S
C552 H562 0.931 . S
C553 C550 1.380 . S
C553 C551 1.392 . S
C553 H563 0.929 . S
C554 O534 1.266 . S
C554 O535 1.248 . S
C555 Tb491 2.802 . S
C555 O530 1.264 . S
C555 O533 1.256 . S
C555 C548 1.496 . S
H556 C539 0.929 . S
H557 C540 0.929 . S
H558 C541 0.929 . S
H559 C542 0.931 . S
H560 C550 0.929 . S
H561 C551 0.929 . S
H562 C552 0.931 . S
H563 C553 0.929 . S
Tb564 N593 2.617 . S
Tb564 N599 2.572 . S
Tb564 O608 2.465 . S
Tb564 O609 2.387 . S
Tb564 O611 2.428 . S
Tb564 O612 2.308 . S
Tb564 O616 2.349 . S
Tb564 O619 2.393 . S
Tb564 C628 2.802 . S
C565 N566 1.379 . S
C565 C568 1.416 . S
C565 C572 1.424 . S
N566 C565 1.379 . S
N566 C569 1.334 . S
N566 Tb575 2.617 . S
C567 C569 1.390 . S
C567 C570 1.339 . S
C567 H587 0.930 . S
C568 C565 1.416 . S
C568 C570 1.416 . S
C568 C574 1.448 . S
C569 N566 1.334 . S
C569 C567 1.390 . S
C569 H580 0.930 . S
C570 C567 1.339 . S
C570 C568 1.416 . S
C570 H591 0.930 . S
C571 C572 1.413 . S
C571 C573 1.427 . S
C571 C577 1.416 . S
C572 C565 1.424 . S
C572 C571 1.413 . S
C572 N576 1.361 . S
C573 C571 1.427 . S
C573 C574 1.328 . S
C573 H588 0.929 . S
C574 C568 1.448 . S
C574 C573 1.328 . S
C574 H589 0.930 . S
Tb575 N566 2.617 . S
Tb575 N576 2.572 . S
Tb575 O610 2.349 . S
Tb575 O613 2.393 . S
Tb575 O614 2.465 . S
Tb575 O615 2.387 . S
Tb575 O617 2.428 . S
Tb575 O618 2.308 . S
Tb575 C639 2.802 . S
N576 C572 1.361 . S
N576 Tb575 2.572 . S
N576 C578 1.340 . S
C577 C571 1.416 . S
C577 C579 1.332 . S
C577 H585 0.931 . S
C578 N576 1.340 . S
C578 C579 1.407 . S
C578 H584 0.930 . S
C579 C577 1.332 . S
C579 C578 1.407 . S
C579 H581 0.929 . S
H580 C569 0.930 . S
H581 C579 0.929 . S
H582 C597 0.930 . S
H583 C604 0.929 . S
H584 C578 0.930 . S
H585 C577 0.931 . S
H586 C600 0.930 . S
H587 C567 0.930 . S
H588 C573 0.929 . S
H589 C574 0.930 . S
H590 C595 0.930 . S
H591 C570 0.930 . S
H592 C603 0.931 . S
N593 Tb564 2.617 . S
N593 C594 1.379 . S
N593 C597 1.334 . S
C594 N593 1.379 . S
C594 C596 1.416 . S
C594 C602 1.424 . S
C595 H590 0.930 . S
C595 C597 1.390 . S
C595 C598 1.339 . S
C596 C594 1.416 . S
C596 C598 1.416 . S
C596 C629 1.448 . S
C597 H582 0.930 . S
C597 N593 1.334 . S
C597 C595 1.390 . S
C598 C595 1.339 . S
C598 C596 1.416 . S
C598 H605 0.930 . S
N599 Tb564 2.572 . S
N599 C600 1.340 . S
N599 C602 1.361 . S
C600 H586 0.930 . S
C600 N599 1.340 . S
C600 C604 1.407 . S
C601 C602 1.413 . S
C601 C603 1.416 . S
C601 C630 1.427 . S
C602 C594 1.424 . S
C602 N599 1.361 . S
C602 C601 1.413 . S
C603 H592 0.931 . S
C603 C601 1.416 . S
C603 C604 1.332 . S
C604 H583 0.929 . S
C604 C600 1.407 . S
C604 C603 1.332 . S
H605 C598 0.930 . S
H606 C629 0.930 . S
H607 C630 0.929 . S
O608 Tb564 2.465 . S
O608 C628 1.264 . S
O609 Tb564 2.387 . S
O609 C620 1.264 . S
O610 Tb575 2.349 . S
O610 C620 1.243 . S
O611 Tb564 2.428 . S
O611 C628 1.256 . S
O612 Tb564 2.308 . S
O612 C627 1.266 . S
O613 Tb575 2.393 . S
O613 C627 1.248 . S
O614 Tb575 2.465 . S
O614 C639 1.264 . S
O615 Tb575 2.387 . S
O615 C631 1.264 . S
O616 Tb564 2.349 . S
O616 C631 1.243 . S
O617 Tb575 2.428 . S
O617 C639 1.256 . S
O618 Tb575 2.308 . S
O618 C638 1.266 . S
O619 Tb564 2.393 . S
O619 C638 1.248 . S
C620 O609 1.264 . S
C620 O610 1.243 . S
C621 C624 1.399 . S
C621 C626 1.383 . S
C621 C628 1.496 . S
C622 C623 1.399 . S
C622 C626 1.389 . S
C623 C622 1.399 . S
C623 C625 1.380 . S
C623 H640 0.929 . S
C624 C621 1.399 . S
C624 C625 1.392 . S
C624 H641 0.929 . S
C625 C623 1.380 . S
C625 C624 1.392 . S
C625 H642 0.929 . S
C626 C621 1.383 . S
C626 C622 1.389 . S
C626 H643 0.931 . S
C627 O612 1.266 . S
C627 O613 1.248 . S
C628 Tb564 2.802 . S
C628 O608 1.264 . S
C628 O611 1.256 . S
C628 C621 1.496 . S
C629 C596 1.448 . S
C629 H606 0.930 . S
C629 C630 1.328 . S
C630 C601 1.427 . S
C630 H607 0.929 . S
C630 C629 1.328 . S
C631 O615 1.264 . S
C631 O616 1.243 . S
C632 C635 1.399 . S
C632 C636 1.383 . S
C632 C639 1.496 . S
C633 C634 1.399 . S
C633 C636 1.389 . S
C634 C633 1.399 . S
C634 C637 1.380 . S
C634 H644 0.929 . S
C635 C632 1.399 . S
C635 C637 1.392 . S
C635 H645 0.929 . S
C636 C632 1.383 . S
C636 C633 1.389 . S
C636 H646 0.931 . S
C637 C634 1.380 . S
C637 C635 1.392 . S
C637 H647 0.929 . S
C638 O618 1.266 . S
C638 O619 1.248 . S
C639 Tb575 2.802 . S
C639 O614 1.264 . S
C639 O617 1.256 . S
C639 C632 1.496 . S
H640 C623 0.929 . S
H641 C624 0.929 . S
H642 C625 0.929 . S
H643 C626 0.931 . S
H644 C634 0.929 . S
H645 C635 0.929 . S
H646 C636 0.931 . S
H647 C637 0.929 . S
Tb648 N677 2.617 . S
Tb648 N683 2.572 . S
Tb648 O692 2.465 . S
Tb648 O693 2.387 . S
Tb648 O695 2.428 . S
Tb648 O696 2.308 . S
Tb648 O700 2.349 . S
Tb648 O703 2.393 . S
Tb648 C712 2.802 . S
C649 N650 1.379 . S
C649 C652 1.416 . S
C649 C656 1.424 . S
N650 C649 1.379 . S
N650 C653 1.334 . S
N650 Tb659 2.617 . S
C651 C653 1.390 . S
C651 C654 1.339 . S
C651 H671 0.930 . S
C652 C649 1.416 . S
C652 C654 1.416 . S
C652 C658 1.448 . S
C653 N650 1.334 . S
C653 C651 1.390 . S
C653 H664 0.930 . S
C654 C651 1.339 . S
C654 C652 1.416 . S
C654 H675 0.930 . S
C655 C656 1.413 . S
C655 C657 1.427 . S
C655 C661 1.416 . S
C656 C649 1.424 . S
C656 C655 1.413 . S
C656 N660 1.361 . S
C657 C655 1.427 . S
C657 C658 1.328 . S
C657 H672 0.929 . S
C658 C652 1.448 . S
C658 C657 1.328 . S
C658 H673 0.930 . S
Tb659 N650 2.617 . S
Tb659 N660 2.572 . S
Tb659 O694 2.349 1_655 S
Tb659 O697 2.393 . S
Tb659 O698 2.465 . S
Tb659 O699 2.387 . S
Tb659 O701 2.428 . S
Tb659 O702 2.308 1_655 S
Tb659 C723 2.802 . S
N660 C656 1.361 . S
N660 Tb659 2.572 . S
N660 C662 1.340 . S
C661 C655 1.416 . S
C661 C663 1.332 . S
C661 H669 0.931 . S
C662 N660 1.340 . S
C662 C663 1.407 . S
C662 H668 0.930 . S
C663 C661 1.332 . S
C663 C662 1.407 . S
C663 H665 0.929 . S
H664 C653 0.930 . S
H665 C663 0.929 . S
H666 C681 0.930 . S
H667 C688 0.929 . S
H668 C662 0.930 . S
H669 C661 0.931 . S
H670 C684 0.930 . S
H671 C651 0.930 . S
H672 C657 0.929 . S
H673 C658 0.930 . S
H674 C679 0.930 . S
H675 C654 0.930 . S
H676 C687 0.931 . S
N677 Tb648 2.617 . S
N677 C678 1.379 . S
N677 C681 1.334 . S
C678 N677 1.379 . S
C678 C680 1.416 . S
C678 C686 1.424 . S
C679 H674 0.930 . S
C679 C681 1.390 . S
C679 C682 1.339 . S
C680 C678 1.416 . S
C680 C682 1.416 . S
C680 C713 1.448 . S
C681 H666 0.930 . S
C681 N677 1.334 . S
C681 C679 1.390 . S
C682 C679 1.339 . S
C682 C680 1.416 . S
C682 H689 0.930 . S
N683 Tb648 2.572 . S
N683 C684 1.340 . S
N683 C686 1.361 . S
C684 H670 0.930 . S
C684 N683 1.340 . S
C684 C688 1.407 . S
C685 C686 1.413 . S
C685 C687 1.416 . S
C685 C714 1.427 . S
C686 C678 1.424 . S
C686 N683 1.361 . S
C686 C685 1.413 . S
C687 H676 0.931 . S
C687 C685 1.416 . S
C687 C688 1.332 . S
C688 H667 0.929 . S
C688 C684 1.407 . S
C688 C687 1.332 . S
H689 C682 0.930 . S
H690 C713 0.930 . S
H691 C714 0.929 . S
O692 Tb648 2.465 . S
O692 C712 1.264 . S
O693 Tb648 2.387 . S
O693 C704 1.264 . S
O694 Tb659 2.349 1_455 S
O694 C704 1.243 . S
O695 Tb648 2.428 . S
O695 C712 1.256 . S
O696 Tb648 2.308 . S
O696 C711 1.266 1_455 S
O697 Tb659 2.393 . S
O697 C711 1.248 . S
O698 Tb659 2.465 . S
O698 C723 1.264 . S
O699 Tb659 2.387 . S
O699 C715 1.264 . S
O700 Tb648 2.349 . S
O700 C715 1.243 1_455 S
O701 Tb659 2.428 . S
O701 C723 1.256 . S
O702 Tb659 2.308 1_455 S
O702 C722 1.266 . S
O703 Tb648 2.393 . S
O703 C722 1.248 . S
C704 O693 1.264 . S
C704 O694 1.243 . S
C705 C708 1.399 . S
C705 C710 1.383 . S
C705 C712 1.496 . S
C706 C707 1.399 . S
C706 C710 1.389 . S
C707 C706 1.399 . S
C707 C709 1.380 . S
C707 H724 0.929 . S
C708 C705 1.399 . S
C708 C709 1.392 . S
C708 H725 0.929 . S
C709 C707 1.380 . S
C709 C708 1.392 . S
C709 H726 0.929 . S
C710 C705 1.383 . S
C710 C706 1.389 . S
C710 H727 0.931 . S
C711 O696 1.266 1_655 S
C711 O697 1.248 . S
C712 Tb648 2.802 . S
C712 O692 1.264 . S
C712 O695 1.256 . S
C712 C705 1.496 . S
C713 C680 1.448 . S
C713 H690 0.930 . S
C713 C714 1.328 . S
C714 C685 1.427 . S
C714 H691 0.929 . S
C714 C713 1.328 . S
C715 O699 1.264 . S
C715 O700 1.243 1_655 S
C716 C719 1.399 . S
C716 C720 1.383 . S
C716 C723 1.496 . S
C717 C718 1.399 . S
C717 C720 1.389 . S
C718 C717 1.399 . S
C718 C721 1.380 . S
C718 H728 0.929 . S
C719 C716 1.399 . S
C719 C721 1.392 . S
C719 H729 0.929 . S
C720 C716 1.383 . S
C720 C717 1.389 . S
C720 H730 0.931 . S
C721 C718 1.380 . S
C721 C719 1.392 . S
C721 H731 0.929 . S
C722 O702 1.266 . S
C722 O703 1.248 . S
C723 Tb659 2.802 . S
C723 O698 1.264 . S
C723 O701 1.256 . S
C723 C716 1.496 . S
H724 C707 0.929 . S
H725 C708 0.929 . S
H726 C709 0.929 . S
H727 C710 0.931 . S
H728 C718 0.929 . S
H729 C719 0.929 . S
H730 C720 0.931 . S
H731 C721 0.929 . S
Tb732 N761 2.617 . S
Tb732 N767 2.572 . S
Tb732 O776 2.465 . S
Tb732 O777 2.387 . S
Tb732 O779 2.428 . S
Tb732 O780 2.308 . S
Tb732 O784 2.349 . S
Tb732 O787 2.393 . S
Tb732 C796 2.802 . S
C733 N734 1.379 . S
C733 C736 1.416 . S
C733 C740 1.424 . S
N734 C733 1.379 . S
N734 C737 1.334 . S
N734 Tb743 2.617 . S
C735 C737 1.390 . S
C735 C738 1.339 . S
C735 H755 0.930 . S
C736 C733 1.416 . S
C736 C738 1.416 . S
C736 C742 1.448 . S
C737 N734 1.334 . S
C737 C735 1.390 . S
C737 H748 0.930 . S
C738 C735 1.339 . S
C738 C736 1.416 . S
C738 H759 0.930 . S
C739 C740 1.413 . S
C739 C741 1.427 . S
C739 C745 1.416 . S
C740 C733 1.424 . S
C740 C739 1.413 . S
C740 N744 1.361 . S
C741 C739 1.427 . S
C741 C742 1.328 . S
C741 H756 0.929 . S
C742 C736 1.448 . S
C742 C741 1.328 . S
C742 H757 0.930 . S
Tb743 N734 2.617 . S
Tb743 N744 2.572 . S
Tb743 O778 2.349 . S
Tb743 O781 2.393 . S
Tb743 O782 2.465 . S
Tb743 O783 2.387 . S
Tb743 O785 2.428 . S
Tb743 O786 2.308 . S
Tb743 C807 2.802 . S
N744 C740 1.361 . S
N744 Tb743 2.572 . S
N744 C746 1.340 . S
C745 C739 1.416 . S
C745 C747 1.332 . S
C745 H753 0.931 . S
C746 N744 1.340 . S
C746 C747 1.407 . S
C746 H752 0.930 . S
C747 C745 1.332 . S
C747 C746 1.407 . S
C747 H749 0.929 . S
H748 C737 0.930 . S
H749 C747 0.929 . S
H750 C765 0.930 . S
H751 C772 0.929 . S
H752 C746 0.930 . S
H753 C745 0.931 . S
H754 C768 0.930 . S
H755 C735 0.930 . S
H756 C741 0.929 . S
H757 C742 0.930 . S
H758 C763 0.930 . S
H759 C738 0.930 . S
H760 C771 0.931 . S
N761 Tb732 2.617 . S
N761 C762 1.379 . S
N761 C765 1.334 . S
C762 N761 1.379 . S
C762 C764 1.416 . S
C762 C770 1.424 . S
C763 H758 0.930 . S
C763 C765 1.390 . S
C763 C766 1.339 . S
C764 C762 1.416 . S
C764 C766 1.416 . S
C764 C797 1.448 . S
C765 H750 0.930 . S
C765 N761 1.334 . S
C765 C763 1.390 . S
C766 C763 1.339 . S
C766 C764 1.416 . S
C766 H773 0.930 . S
N767 Tb732 2.572 . S
N767 C768 1.340 . S
N767 C770 1.361 . S
C768 H754 0.930 . S
C768 N767 1.340 . S
C768 C772 1.407 . S
C769 C770 1.413 . S
C769 C771 1.416 . S
C769 C798 1.427 . S
C770 C762 1.424 . S
C770 N767 1.361 . S
C770 C769 1.413 . S
C771 H760 0.931 . S
C771 C769 1.416 . S
C771 C772 1.332 . S
C772 H751 0.929 . S
C772 C768 1.407 . S
C772 C771 1.332 . S
H773 C766 0.930 . S
H774 C797 0.930 . S
H775 C798 0.929 . S
O776 Tb732 2.465 . S
O776 C796 1.264 . S
O777 Tb732 2.387 . S
O777 C788 1.264 . S
O778 Tb743 2.349 . S
O778 C788 1.243 . S
O779 Tb732 2.428 . S
O779 C796 1.256 . S
O780 Tb732 2.308 . S
O780 C795 1.266 . S
O781 Tb743 2.393 . S
O781 C795 1.248 . S
O782 Tb743 2.465 . S
O782 C807 1.264 . S
O783 Tb743 2.387 . S
O783 C799 1.264 . S
O784 Tb732 2.349 . S
O784 C799 1.243 . S
O785 Tb743 2.428 . S
O785 C807 1.256 . S
O786 Tb743 2.308 . S
O786 C806 1.266 . S
O787 Tb732 2.393 . S
O787 C806 1.248 . S
C788 O777 1.264 . S
C788 O778 1.243 . S
C789 C792 1.399 . S
C789 C794 1.383 . S
C789 C796 1.496 . S
C790 C791 1.399 . S
C790 C794 1.389 . S
C791 C790 1.399 . S
C791 C793 1.380 . S
C791 H808 0.929 . S
C792 C789 1.399 . S
C792 C793 1.392 . S
C792 H809 0.929 . S
C793 C791 1.380 . S
C793 C792 1.392 . S
C793 H810 0.929 . S
C794 C789 1.383 . S
C794 C790 1.389 . S
C794 H811 0.931 . S
C795 O780 1.266 . S
C795 O781 1.248 . S
C796 Tb732 2.802 . S
C796 O776 1.264 . S
C796 O779 1.256 . S
C796 C789 1.496 . S
C797 C764 1.448 . S
C797 H774 0.930 . S
C797 C798 1.328 . S
C798 C769 1.427 . S
C798 H775 0.929 . S
C798 C797 1.328 . S
C799 O783 1.264 . S
C799 O784 1.243 . S
C800 C803 1.399 . S
C800 C804 1.383 . S
C800 C807 1.496 . S
C801 C802 1.399 . S
C801 C804 1.389 . S
C802 C801 1.399 . S
C802 C805 1.380 . S
C802 H812 0.929 . S
C803 C800 1.399 . S
C803 C805 1.392 . S
C803 H813 0.929 . S
C804 C800 1.383 . S
C804 C801 1.389 . S
C804 H814 0.931 . S
C805 C802 1.380 . S
C805 C803 1.392 . S
C805 H815 0.929 . S
C806 O786 1.266 . S
C806 O787 1.248 . S
C807 Tb743 2.802 . S
C807 O782 1.264 . S
C807 O785 1.256 . S
C807 C800 1.496 . S
H808 C791 0.929 . S
H809 C792 0.929 . S
H810 C793 0.929 . S
H811 C794 0.931 . S
H812 C802 0.929 . S
H813 C803 0.929 . S
H814 C804 0.931 . S
H815 C805 0.929 . S
H816 C828 0.930 1_565 S
H817 C830 0.916 1_565 S
H818 C831 0.930 . S
H819 C835 0.959 . S
H820 C835 0.959 1_655 S
H821 C835 0.961 . S
H822 C836 0.960 . S
H823 C836 0.961 . S
H824 C836 0.959 . S
H825 C839 0.929 . S
H826 C840 0.931 . S
H827 C842 0.930 . S
C828 H816 0.930 1_545 S
C828 C829 1.399 1_545 S
C828 C833 1.399 . S
C829 C828 1.399 1_565 S
C829 C830 1.362 1_565 S
C830 H817 0.916 1_545 S
C830 C829 1.362 1_545 S
C830 C831 1.418 . S
C831 H818 0.930 . S
C831 C830 1.418 . S
C831 C832 1.390 . S
C832 C831 1.390 . S
C832 C833 1.394 . S
C832 C838 1.465 . S
C833 C828 1.399 . S
C833 C832 1.394 . S
C833 C834 1.516 . S
C834 C833 1.516 . S
C834 C835 1.502 . S
C834 C836 1.561 . S
C834 C837 1.526 . S
C835 H819 0.959 . S
C835 H820 0.959 1_455 S
C835 H821 0.961 . S
C835 C834 1.502 . S
C836 H822 0.960 . S
C836 H823 0.961 . S
C836 H824 0.959 . S
C836 C834 1.561 . S
C837 C834 1.526 . S
C837 C838 1.396 . S
C837 C842 1.390 . S
C838 C832 1.465 . S
C838 C837 1.396 . S
C838 C839 1.399 . S
C839 H825 0.929 . S
C839 C838 1.399 . S
C839 C840 1.385 . S
C840 H826 0.931 . S
C840 C839 1.385 . S
C840 C841 1.389 . S
C841 C840 1.389 . S
C841 C842 1.387 . S
C842 H827 0.930 . S
C842 C837 1.390 . S
C842 C841 1.387 . S
H843 C855 0.930 . S
H844 C857 0.930 . S
H845 C858 0.930 . S
H846 C862 0.959 . S
H847 C862 0.959 . S
H848 C862 0.961 . S
H849 C863 0.960 . S
H850 C863 0.961 . S
H851 C863 0.959 . S
H852 C866 0.929 . S
H853 C867 0.931 . S
H854 C869 0.930 . S
C855 H843 0.930 . S
C855 C856 1.399 . S
C855 C860 1.399 . S
C856 C855 1.399 . S
C856 C857 1.376 . S
C857 H844 0.930 . S
C857 C856 1.376 . S
C857 C858 1.388 . S
C858 H845 0.930 . S
C858 C857 1.388 . S
C858 C859 1.390 . S
C859 C858 1.390 . S
C859 C860 1.394 . S
C859 C865 1.465 . S
C860 C855 1.399 . S
C860 C859 1.394 . S
C860 C861 1.516 . S
C861 C860 1.516 . S
C861 C862 1.502 . S
C861 C863 1.561 . S
C861 C864 1.526 . S
C862 H846 0.959 . S
C862 H847 0.959 . S
C862 H848 0.961 . S
C862 C861 1.502 . S
C863 H849 0.960 . S
C863 H850 0.961 . S
C863 H851 0.959 . S
C863 C861 1.561 . S
C864 C861 1.526 . S
C864 C865 1.396 . S
C864 C869 1.390 . S
C865 C859 1.465 . S
C865 C864 1.396 . S
C865 C866 1.399 . S
C866 H852 0.929 . S
C866 C865 1.399 . S
C866 C867 1.385 . S
C867 H853 0.931 . S
C867 C866 1.385 . S
C867 C868 1.389 . S
C868 C867 1.389 . S
C868 C869 1.387 . S
C869 H854 0.930 . S
C869 C864 1.390 . S
C869 C868 1.387 . S
H870 C882 0.930 . S
H871 C884 0.930 . S
H872 C885 0.930 . S
H873 C889 0.959 . S
H874 C889 0.959 . S
H875 C889 0.961 . S
H876 C890 0.960 . S
H877 C890 0.961 . S
H878 C890 0.959 . S
H879 C893 0.929 . S
H880 C894 0.931 . S
H881 C896 0.930 . S
C882 H870 0.930 . S
C882 C883 1.399 . S
C882 C887 1.399 . S
C883 C882 1.399 . S
C883 C884 1.376 . S
C884 H871 0.930 . S
C884 C883 1.376 . S
C884 C885 1.388 . S
C885 H872 0.930 . S
C885 C884 1.388 . S
C885 C886 1.390 . S
C886 C885 1.390 . S
C886 C887 1.394 . S
C886 C892 1.465 . S
C887 C882 1.399 . S
C887 C886 1.394 . S
C887 C888 1.516 . S
C888 C887 1.516 . S
C888 C889 1.502 . S
C888 C890 1.561 . S
C888 C891 1.526 . S
C889 H873 0.959 . S
C889 H874 0.959 . S
C889 H875 0.961 . S
C889 C888 1.502 . S
C890 H876 0.960 . S
C890 H877 0.961 . S
C890 H878 0.959 . S
C890 C888 1.561 . S
C891 C888 1.526 . S
C891 C892 1.396 . S
C891 C896 1.390 . S
C892 C886 1.465 . S
C892 C891 1.396 . S
C892 C893 1.399 . S
C893 H879 0.929 . S
C893 C892 1.399 . S
C893 C894 1.385 . S
C894 H880 0.931 . S
C894 C893 1.385 . S
C894 C895 1.389 . S
C895 C894 1.389 . S
C895 C896 1.387 . S
C896 H881 0.930 . S
C896 C891 1.390 . S
C896 C895 1.387 . S
H897 C909 0.930 . S
H898 C911 0.930 . S
H899 C912 0.930 . S
H900 C916 0.959 . S
H901 C916 0.959 . S
H902 C916 0.961 . S
H903 C917 0.960 . S
H904 C917 0.961 . S
H905 C917 0.959 . S
H906 C920 0.929 . S
H907 C921 0.931 . S
H908 C923 0.930 . S
C909 H897 0.930 . S
C909 C910 1.399 1_545 S
C909 C914 1.399 . S
C910 C909 1.399 1_565 S
C910 C911 1.376 . S
C911 H898 0.930 . S
C911 C910 1.376 . S
C911 C912 1.388 . S
C912 H899 0.930 . S
C912 C911 1.388 . S
C912 C913 1.390 1_565 S
C913 C912 1.390 1_545 S
C913 C914 1.394 . S
C913 C919 1.465 . S
C914 C909 1.399 . S
C914 C913 1.394 . S
C914 C915 1.516 . S
C915 C914 1.516 . S
C915 C916 1.502 . S
C915 C917 1.561 . S
C915 C918 1.526 . S
C916 H900 0.959 . S
C916 H901 0.959 . S
C916 H902 0.961 . S
C916 C915 1.502 . S
C917 H903 0.960 . S
C917 H904 0.961 . S
C917 H905 0.959 . S
C917 C915 1.561 . S
C918 C915 1.526 . S
C918 C919 1.396 . S
C918 C923 1.390 . S
C919 C913 1.465 . S
C919 C918 1.396 . S
C919 C920 1.399 . S
C920 H906 0.929 . S
C920 C919 1.399 . S
C920 C921 1.385 . S
C921 H907 0.931 . S
C921 C920 1.385 . S
C921 C922 1.389 . S
C922 C921 1.389 . S
C922 C923 1.387 . S
C923 H908 0.930 . S
C923 C918 1.390 . S
C923 C922 1.387 . S
H924 C936 0.930 . S
H925 C938 0.930 . S
H926 C939 0.930 . S
H927 C943 0.959 . S
H928 C943 0.959 . S
H929 C943 0.961 . S
H930 C944 0.960 . S
H931 C944 0.961 . S
H932 C944 0.959 . S
H933 C947 0.929 . S
H934 C948 0.931 . S
H935 C950 0.930 . S
C936 H924 0.930 . S
C936 C937 1.399 1_565 S
C936 C941 1.399 . S
C937 C936 1.399 1_545 S
C937 C938 1.376 . S
C938 H925 0.930 . S
C938 C937 1.376 . S
C938 C939 1.388 . S
C939 H926 0.930 . S
C939 C938 1.388 . S
C939 C940 1.390 1_545 S
C940 C939 1.390 1_565 S
C940 C941 1.394 . S
C940 C946 1.465 . S
C941 C936 1.399 . S
C941 C940 1.394 . S
C941 C942 1.516 . S
C942 C941 1.516 . S
C942 C943 1.502 . S
C942 C944 1.561 . S
C942 C945 1.526 . S
C943 H927 0.959 . S
C943 H928 0.959 . S
C943 H929 0.961 . S
C943 C942 1.502 . S
C944 H930 0.960 . S
C944 H931 0.961 . S
C944 H932 0.959 . S
C944 C942 1.561 . S
C945 C942 1.526 . S
C945 C946 1.396 . S
C945 C950 1.390 . S
C946 C940 1.465 . S
C946 C945 1.396 . S
C946 C947 1.399 . S
C947 H933 0.929 . S
C947 C946 1.399 . S
C947 C948 1.385 . S
C948 H934 0.931 . S
C948 C947 1.385 . S
C948 C949 1.389 . S
C949 C948 1.389 . S
C949 C950 1.387 . S
C950 H935 0.930 . S
C950 C945 1.390 . S
C950 C949 1.387 . S
H951 C963 0.930 . S
H952 C965 0.930 . S
H953 C966 0.930 . S
H954 C970 0.959 . S
H955 C970 0.959 . S
H956 C970 0.961 . S
H957 C971 0.960 . S
H958 C971 0.961 . S
H959 C971 0.959 . S
H960 C974 0.929 . S
H961 C975 0.931 . S
H962 C977 0.930 . S
C963 H951 0.930 . S
C963 C964 1.399 . S
C963 C968 1.399 . S
C964 C963 1.399 . S
C964 C965 1.376 . S
C965 H952 0.930 . S
C965 C964 1.376 . S
C965 C966 1.388 . S
C966 H953 0.930 . S
C966 C965 1.388 . S
C966 C967 1.390 . S
C967 C966 1.390 . S
C967 C968 1.394 . S
C967 C973 1.465 . S
C968 C963 1.399 . S
C968 C967 1.394 . S
C968 C969 1.516 . S
C969 C968 1.516 . S
C969 C970 1.502 . S
C969 C971 1.561 . S
C969 C972 1.526 . S
C970 H954 0.959 . S
C970 H955 0.959 . S
C970 H956 0.961 . S
C970 C969 1.502 . S
C971 H957 0.960 . S
C971 H958 0.961 . S
C971 H959 0.959 . S
C971 C969 1.561 . S
C972 C969 1.526 . S
C972 C973 1.396 . S
C972 C977 1.390 . S
C973 C967 1.465 . S
C973 C972 1.396 . S
C973 C974 1.399 . S
C974 H960 0.929 . S
C974 C973 1.399 . S
C974 C975 1.385 . S
C975 H961 0.931 . S
C975 C974 1.385 . S
C975 C976 1.389 . S
C976 C975 1.389 . S
C976 C977 1.387 . S
C977 H962 0.930 . S
C977 C972 1.390 . S
C977 C976 1.387 . S
H978 C990 0.930 . S
H979 C992 0.930 . S
H980 C993 0.930 . S
H981 C997 0.959 . S
H982 C997 0.959 . S
H983 C997 0.961 . S
H984 C998 0.960 . S
H985 C998 0.961 . S
H986 C998 0.959 . S
H987 C1001 0.929 . S
H988 C1002 0.931 . S
H989 C1004 0.930 . S
C990 H978 0.930 . S
C990 C991 1.399 . S
C990 C995 1.399 . S
C991 C990 1.399 . S
C991 C992 1.376 . S
C992 H979 0.930 . S
C992 C991 1.376 . S
C992 C993 1.388 . S
C993 H980 0.930 . S
C993 C992 1.388 . S
C993 C994 1.390 . S
C994 C993 1.390 . S
C994 C995 1.394 . S
C994 C1000 1.465 . S
C995 C990 1.399 . S
C995 C994 1.394 . S
C995 C996 1.516 . S
C996 C995 1.516 . S
C996 C997 1.502 . S
C996 C998 1.561 . S
C996 C999 1.526 . S
C997 H981 0.959 . S
C997 H982 0.959 . S
C997 H983 0.961 . S
C997 C996 1.502 . S
C998 H984 0.960 . S
C998 H985 0.961 . S
C998 H986 0.959 . S
C998 C996 1.561 . S
C999 C996 1.526 . S
C999 C1000 1.396 . S
C999 C1004 1.390 . S
C1000 C994 1.465 . S
C1000 C999 1.396 . S
C1000 C1001 1.399 . S
C1001 H987 0.929 . S
C1001 C1000 1.399 . S
C1001 C1002 1.385 . S
C1002 H988 0.931 . S
C1002 C1001 1.385 . S
C1002 C1003 1.389 . S
C1003 C1002 1.389 . S
C1003 C1004 1.387 . S
C1004 H989 0.930 . S
C1004 C999 1.390 . S
C1004 C1003 1.387 . S
H1005 C1017 0.930 . S
H1006 C1019 0.930 . S
H1007 C1020 0.930 . S
H1008 C1024 0.959 . S
H1009 C1024 0.949 1_655 S
H1010 C1024 0.965 . S
H1011 C1025 0.993 . S
H1012 C1025 0.956 1_565 S
H1013 C1025 0.955 1_565 S
H1014 C1028 0.929 . S
H1015 C1029 0.931 . S
H1016 C1031 0.930 . S
C1017 H1005 0.930 . S
C1017 C1018 1.399 . S
C1017 C1022 1.399 1_545 S
C1018 C1017 1.399 . S
C1018 C1019 1.376 1_545 S
C1019 H1006 0.930 . S
C1019 C1018 1.376 1_565 S
C1019 C1020 1.388 . S
C1020 H1007 0.930 . S
C1020 C1019 1.388 . S
C1020 C1021 1.390 . S
C1021 C1020 1.390 . S
C1021 C1022 1.394 . S
C1021 C1027 1.465 . S
C1022 C1017 1.399 1_565 S
C1022 C1021 1.394 . S
C1022 C1023 1.516 . S
C1023 C1022 1.516 . S
C1023 C1024 1.502 . S
C1023 C1025 1.539 1_565 S
C1023 C1026 1.526 . S
C1024 H1008 0.959 . S
C1024 H1009 0.949 1_455 S
C1024 H1010 0.965 . S
C1024 C1023 1.502 . S
C1025 H1011 0.993 . S
C1025 H1012 0.956 1_545 S
C1025 H1013 0.955 1_545 S
C1025 C1023 1.539 1_545 S
C1026 C1023 1.526 . S
C1026 C1027 1.396 . S
C1026 C1031 1.390 . S
C1027 C1021 1.465 . S
C1027 C1026 1.396 . S
C1027 C1028 1.399 . S
C1028 H1014 0.929 . S
C1028 C1027 1.399 . S
C1028 C1029 1.385 . S
C1029 H1015 0.931 . S
C1029 C1028 1.385 . S
C1029 C1030 1.389 . S
C1030 C1029 1.389 . S
C1030 C1031 1.387 . S
C1031 H1016 0.930 . S
C1031 C1026 1.390 . S
C1031 C1030 1.387 . S
H1032 C1044 0.930 . S
H1033 C1046 0.930 . S
H1034 C1047 0.930 . S
H1035 C1051 0.959 . S
H1036 C1051 0.959 . S
H1037 C1051 0.961 . S
H1038 C1052 0.960 . S
H1039 C1052 0.961 . S
H1040 C1052 0.959 . S
H1041 C1055 0.929 . S
H1042 C1056 0.931 . S
H1043 C1058 0.930 . S
C1044 H1032 0.930 . S
C1044 C1045 1.399 . S
C1044 C1049 1.399 . S
C1045 C1044 1.399 . S
C1045 C1046 1.376 . S
C1046 H1033 0.930 . S
C1046 C1045 1.376 . S
C1046 C1047 1.388 . S
C1047 H1034 0.930 . S
C1047 C1046 1.388 . S
C1047 C1048 1.390 . S
C1048 C1047 1.390 . S
C1048 C1049 1.394 . S
C1048 C1054 1.465 . S
C1049 C1044 1.399 . S
C1049 C1048 1.394 . S
C1049 C1050 1.516 . S
C1050 C1049 1.516 . S
C1050 C1051 1.502 . S
C1050 C1052 1.561 . S
C1050 C1053 1.526 . S
C1051 H1035 0.959 . S
C1051 H1036 0.959 . S
C1051 H1037 0.961 . S
C1051 C1050 1.502 . S
C1052 H1038 0.960 . S
C1052 H1039 0.961 . S
C1052 H1040 0.959 . S
C1052 C1050 1.561 . S
C1053 C1050 1.526 . S
C1053 C1054 1.396 . S
C1053 C1058 1.390 . S
C1054 C1048 1.465 . S
C1054 C1053 1.396 . S
C1054 C1055 1.399 . S
C1055 H1041 0.929 . S
C1055 C1054 1.399 . S
C1055 C1056 1.385 . S
C1056 H1042 0.931 . S
C1056 C1055 1.385 . S
C1056 C1057 1.389 . S
C1057 C1056 1.389 . S
C1057 C1058 1.387 . S
C1058 H1043 0.930 . S
C1058 C1053 1.390 . S
C1058 C1057 1.387 . S
H1059 C1071 0.930 . S
H1060 C1073 0.930 . S
H1061 C1074 0.930 . S
H1062 C1078 0.959 . S
H1063 C1078 0.959 . S
H1064 C1078 0.961 . S
H1065 C1079 0.960 . S
H1066 C1079 0.961 . S
H1067 C1079 0.959 . S
H1068 C1082 0.929 . S
H1069 C1083 0.931 . S
H1070 C1085 0.930 . S
C1071 H1059 0.930 . S
C1071 C1072 1.399 . S
C1071 C1076 1.399 . S
C1072 C1071 1.399 . S
C1072 C1073 1.376 . S
C1073 H1060 0.930 . S
C1073 C1072 1.376 . S
C1073 C1074 1.388 . S
C1074 H1061 0.930 . S
C1074 C1073 1.388 . S
C1074 C1075 1.390 . S
C1075 C1074 1.390 . S
C1075 C1076 1.394 . S
C1075 C1081 1.465 . S
C1076 C1071 1.399 . S
C1076 C1075 1.394 . S
C1076 C1077 1.516 . S
C1077 C1076 1.516 . S
C1077 C1078 1.502 . S
C1077 C1079 1.561 . S
C1077 C1080 1.526 . S
C1078 H1062 0.959 . S
C1078 H1063 0.959 . S
C1078 H1064 0.961 . S
C1078 C1077 1.502 . S
C1079 H1065 0.960 . S
C1079 H1066 0.961 . S
C1079 H1067 0.959 . S
C1079 C1077 1.561 . S
C1080 C1077 1.526 . S
C1080 C1081 1.396 . S
C1080 C1085 1.390 . S
C1081 C1075 1.465 . S
C1081 C1080 1.396 . S
C1081 C1082 1.399 . S
C1082 H1068 0.929 . S
C1082 C1081 1.399 . S
C1082 C1083 1.385 . S
C1083 H1069 0.931 . S
C1083 C1082 1.385 . S
C1083 C1084 1.389 . S
C1084 C1083 1.389 . S
C1084 C1085 1.387 . S
C1085 H1070 0.930 . S
C1085 C1080 1.390 . S
C1085 C1084 1.387 . S
H1086 C1098 0.930 . S
H1087 C1100 0.930 . S
H1088 C1101 0.930 . S
H1089 C1105 0.959 . S
H1090 C1105 0.959 . S
H1091 C1105 0.961 . S
H1092 C1106 0.960 . S
H1093 C1106 0.961 . S
H1094 C1106 0.959 . S
H1095 C1109 0.929 . S
H1096 C1110 0.931 . S
H1097 C1112 0.930 . S
C1098 H1086 0.930 . S
C1098 C1099 1.399 . S
C1098 C1103 1.399 . S
C1099 C1098 1.399 . S
C1099 C1100 1.376 . S
C1100 H1087 0.930 . S
C1100 C1099 1.376 . S
C1100 C1101 1.388 . S
C1101 H1088 0.930 . S
C1101 C1100 1.388 . S
C1101 C1102 1.390 . S
C1102 C1101 1.390 . S
C1102 C1103 1.394 . S
C1102 C1108 1.465 . S
C1103 C1098 1.399 . S
C1103 C1102 1.394 . S
C1103 C1104 1.516 . S
C1104 C1103 1.516 . S
C1104 C1105 1.502 . S
C1104 C1106 1.561 . S
C1104 C1107 1.526 . S
C1105 H1089 0.959 . S
C1105 H1090 0.959 . S
C1105 H1091 0.961 . S
C1105 C1104 1.502 . S
C1106 H1092 0.960 . S
C1106 H1093 0.961 . S
C1106 H1094 0.959 . S
C1106 C1104 1.561 . S
C1107 C1104 1.526 . S
C1107 C1108 1.396 . S
C1107 C1112 1.390 . S
C1108 C1102 1.465 . S
C1108 C1107 1.396 . S
C1108 C1109 1.399 . S
C1109 H1095 0.929 . S
C1109 C1108 1.399 . S
C1109 C1110 1.385 . S
C1110 H1096 0.931 . S
C1110 C1109 1.385 . S
C1110 C1111 1.389 . S
C1111 C1110 1.389 . S
C1111 C1112 1.387 . S
C1112 H1097 0.930 . S
C1112 C1107 1.390 . S
C1112 C1111 1.387 . S
H1113 C1125 0.930 . S
H1114 C1127 0.930 . S
H1115 C1128 0.930 . S
H1116 C1132 0.959 . S
H1117 C1132 0.959 . S
H1118 C1132 0.961 . S
H1119 C1133 0.960 . S
H1120 C1133 0.961 . S
H1121 C1133 0.959 . S
H1122 C1136 0.929 . S
H1123 C1137 0.931 . S
H1124 C1139 0.930 . S
C1125 H1113 0.930 . S
C1125 C1126 1.399 . S
C1125 C1130 1.399 . S
C1126 C1125 1.399 . S
C1126 C1127 1.376 . S
C1127 H1114 0.930 . S
C1127 C1126 1.376 . S
C1127 C1128 1.388 . S
C1128 H1115 0.930 . S
C1128 C1127 1.388 . S
C1128 C1129 1.390 . S
C1129 C1128 1.390 . S
C1129 C1130 1.394 . S
C1129 C1135 1.465 . S
C1130 C1125 1.399 . S
C1130 C1129 1.394 . S
C1130 C1131 1.516 . S
C1131 C1130 1.516 . S
C1131 C1132 1.502 . S
C1131 C1133 1.561 . S
C1131 C1134 1.526 . S
C1132 H1116 0.959 . S
C1132 H1117 0.959 . S
C1132 H1118 0.961 . S
C1132 C1131 1.502 . S
C1133 H1119 0.960 . S
C1133 H1120 0.961 . S
C1133 H1121 0.959 . S
C1133 C1131 1.561 . S
C1134 C1131 1.526 . S
C1134 C1135 1.396 . S
C1134 C1139 1.390 . S
C1135 C1129 1.465 . S
C1135 C1134 1.396 . S
C1135 C1136 1.399 . S
C1136 H1122 0.929 . S
C1136 C1135 1.399 . S
C1136 C1137 1.385 . S
C1137 H1123 0.931 . S
C1137 C1136 1.385 . S
C1137 C1138 1.389 . S
C1138 C1137 1.389 . S
C1138 C1139 1.387 . S
C1139 H1124 0.930 . S
C1139 C1134 1.390 . S
C1139 C1138 1.387 . S
H1140 C1152 0.930 . S
H1141 C1154 0.930 . S
H1142 C1155 0.930 . S
H1143 C1159 0.959 . S
H1144 C1159 0.959 . S
H1145 C1159 0.961 . S
H1146 C1160 0.960 . S
H1147 C1160 0.961 . S
H1148 C1160 0.959 . S
H1149 C1163 0.929 . S
H1150 C1164 0.931 . S
H1151 C1166 0.930 . S
C1152 H1140 0.930 . S
C1152 C1153 1.399 . S
C1152 C1157 1.399 . S
C1153 C1152 1.399 . S
C1153 C1154 1.376 . S
C1154 H1141 0.930 . S
C1154 C1153 1.376 . S
C1154 C1155 1.388 . S
C1155 H1142 0.930 . S
C1155 C1154 1.388 . S
C1155 C1156 1.390 . S
C1156 C1155 1.390 . S
C1156 C1157 1.394 . S
C1156 C1162 1.465 . S
C1157 C1152 1.399 . S
C1157 C1156 1.394 . S
C1157 C1158 1.516 . S
C1158 C1157 1.516 . S
C1158 C1159 1.502 . S
C1158 C1160 1.561 . S
C1158 C1161 1.526 . S
C1159 H1143 0.959 . S
C1159 H1144 0.959 . S
C1159 H1145 0.961 . S
C1159 C1158 1.502 . S
C1160 H1146 0.960 . S
C1160 H1147 0.961 . S
C1160 H1148 0.959 . S
C1160 C1158 1.561 . S
C1161 C1158 1.526 . S
C1161 C1162 1.396 . S
C1161 C1166 1.390 . S
C1162 C1156 1.465 . S
C1162 C1161 1.396 . S
C1162 C1163 1.399 . S
C1163 H1149 0.929 . S
C1163 C1162 1.399 . S
C1163 C1164 1.385 . S
C1164 H1150 0.931 . S
C1164 C1163 1.385 . S
C1164 C1165 1.389 . S
C1165 C1164 1.389 . S
C1165 C1166 1.387 . S
C1166 H1151 0.930 . S
C1166 C1161 1.390 . S
C1166 C1165 1.387 . S
H1167 C1179 0.930 . S
H1168 C1181 0.930 . S
H1169 C1182 0.930 . S
H1170 C1186 0.959 . S
H1171 C1186 0.959 . S
H1172 C1186 0.961 . S
H1173 C1187 0.960 . S
H1174 C1187 0.961 . S
H1175 C1187 0.959 . S
H1176 C1190 0.929 . S
H1177 C1191 0.931 . S
H1178 C1193 0.930 . S
C1179 H1167 0.930 . S
C1179 C1180 1.399 . S
C1179 C1184 1.399 . S
C1180 C1179 1.399 . S
C1180 C1181 1.376 . S
C1181 H1168 0.930 . S
C1181 C1180 1.376 . S
C1181 C1182 1.388 . S
C1182 H1169 0.930 . S
C1182 C1181 1.388 . S
C1182 C1183 1.390 . S
C1183 C1182 1.390 . S
C1183 C1184 1.394 . S
C1183 C1189 1.465 . S
C1184 C1179 1.399 . S
C1184 C1183 1.394 . S
C1184 C1185 1.516 . S
C1185 C1184 1.516 . S
C1185 C1186 1.502 . S
C1185 C1187 1.561 . S
C1185 C1188 1.526 . S
C1186 H1170 0.959 . S
C1186 H1171 0.959 . S
C1186 H1172 0.961 . S
C1186 C1185 1.502 . S
C1187 H1173 0.960 . S
C1187 H1174 0.961 . S
C1187 H1175 0.959 . S
C1187 C1185 1.561 . S
C1188 C1185 1.526 . S
C1188 C1189 1.396 . S
C1188 C1193 1.390 . S
C1189 C1183 1.465 . S
C1189 C1188 1.396 . S
C1189 C1190 1.399 . S
C1190 H1176 0.929 . S
C1190 C1189 1.399 . S
C1190 C1191 1.385 . S
C1191 H1177 0.931 . S
C1191 C1190 1.385 . S
C1191 C1192 1.389 . S
C1192 C1191 1.389 . S
C1192 C1193 1.387 . S
C1193 H1178 0.930 . S
C1193 C1188 1.390 . S
C1193 C1192 1.387 . S
H1194 C1206 0.930 . S
H1195 C1208 0.930 . S
H1196 C1209 0.930 . S
H1197 C1213 0.959 . S
H1198 C1213 0.959 . S
H1199 C1213 0.961 . S
H1200 C1214 0.960 . S
H1201 C1214 0.961 . S
H1202 C1214 0.959 . S
H1203 C1217 0.929 . S
H1204 C1218 0.931 . S
H1205 C1220 0.930 . S
C1206 H1194 0.930 . S
C1206 C1207 1.399 . S
C1206 C1211 1.399 . S
C1207 C1206 1.399 . S
C1207 C1208 1.376 . S
C1208 H1195 0.930 . S
C1208 C1207 1.376 . S
C1208 C1209 1.388 . S
C1209 H1196 0.930 . S
C1209 C1208 1.388 . S
C1209 C1210 1.390 . S
C1210 C1209 1.390 . S
C1210 C1211 1.394 . S
C1210 C1216 1.465 . S
C1211 C1206 1.399 . S
C1211 C1210 1.394 . S
C1211 C1212 1.516 . S
C1212 C1211 1.516 . S
C1212 C1213 1.502 . S
C1212 C1214 1.561 . S
C1212 C1215 1.526 . S
C1213 H1197 0.959 . S
C1213 H1198 0.959 . S
C1213 H1199 0.961 . S
C1213 C1212 1.502 . S
C1214 H1200 0.960 . S
C1214 H1201 0.961 . S
C1214 H1202 0.959 . S
C1214 C1212 1.561 . S
C1215 C1212 1.526 . S
C1215 C1216 1.396 . S
C1215 C1220 1.390 . S
C1216 C1210 1.465 . S
C1216 C1215 1.396 . S
C1216 C1217 1.399 . S
C1217 H1203 0.929 . S
C1217 C1216 1.399 . S
C1217 C1218 1.385 . S
C1218 H1204 0.931 . S
C1218 C1217 1.385 . S
C1218 C1219 1.389 . S
C1219 C1218 1.389 . S
C1219 C1220 1.387 . S
C1220 H1205 0.930 . S
C1220 C1215 1.390 . S
C1220 C1219 1.387 . S
H1221 C1233 0.930 . S
H1222 C1235 0.930 . S
H1223 C1236 0.930 . S
H1224 C1240 0.959 . S
H1225 C1240 0.959 . S
H1226 C1240 0.961 . S
H1227 C1241 0.960 . S
H1228 C1241 0.961 . S
H1229 C1241 0.959 . S
H1230 C1244 0.929 . S
H1231 C1245 0.931 . S
H1232 C1247 0.930 . S
C1233 H1221 0.930 . S
C1233 C1234 1.399 . S
C1233 C1238 1.399 . S
C1234 C1233 1.399 . S
C1234 C1235 1.376 . S
C1235 H1222 0.930 . S
C1235 C1234 1.376 . S
C1235 C1236 1.388 . S
C1236 H1223 0.930 . S
C1236 C1235 1.388 . S
C1236 C1237 1.390 . S
C1237 C1236 1.390 . S
C1237 C1238 1.394 . S
C1237 C1243 1.465 . S
C1238 C1233 1.399 . S
C1238 C1237 1.394 . S
C1238 C1239 1.516 . S
C1239 C1238 1.516 . S
C1239 C1240 1.502 . S
C1239 C1241 1.561 . S
C1239 C1242 1.526 . S
C1240 H1224 0.959 . S
C1240 H1225 0.959 . S
C1240 H1226 0.961 . S
C1240 C1239 1.502 . S
C1241 H1227 0.960 . S
C1241 H1228 0.961 . S
C1241 H1229 0.959 . S
C1241 C1239 1.561 . S
C1242 C1239 1.526 . S
C1242 C1243 1.396 . S
C1242 C1247 1.390 . S
C1243 C1237 1.465 . S
C1243 C1242 1.396 . S
C1243 C1244 1.399 . S
C1244 H1230 0.929 . S
C1244 C1243 1.399 . S
C1244 C1245 1.385 . S
C1245 H1231 0.931 . S
C1245 C1244 1.385 . S
C1245 C1246 1.389 . S
C1246 C1245 1.389 . S
C1246 C1247 1.387 . S
C1247 H1232 0.930 . S
C1247 C1242 1.390 . S
C1247 C1246 1.387 . S
H1248 C1260 0.930 . S
H1249 C1262 0.930 . S
H1250 C1263 0.930 . S
H1251 C1267 0.959 . S
H1252 C1267 0.959 . S
H1253 C1267 0.961 . S
H1254 C1268 0.960 . S
H1255 C1268 0.961 . S
H1256 C1268 0.959 . S
H1257 C1271 0.929 . S
H1258 C1272 0.931 . S
H1259 C1274 0.930 . S
C1260 H1248 0.930 . S
C1260 C1261 1.399 . S
C1260 C1265 1.399 . S
C1261 C1260 1.399 . S
C1261 C1262 1.376 . S
C1262 H1249 0.930 . S
C1262 C1261 1.376 . S
C1262 C1263 1.388 . S
C1263 H1250 0.930 . S
C1263 C1262 1.388 . S
C1263 C1264 1.390 . S
C1264 C1263 1.390 . S
C1264 C1265 1.394 . S
C1264 C1270 1.465 . S
C1265 C1260 1.399 . S
C1265 C1264 1.394 . S
C1265 C1266 1.516 . S
C1266 C1265 1.516 . S
C1266 C1267 1.502 . S
C1266 C1268 1.561 . S
C1266 C1269 1.526 . S
C1267 H1251 0.959 . S
C1267 H1252 0.959 . S
C1267 H1253 0.961 . S
C1267 C1266 1.502 . S
C1268 H1254 0.960 . S
C1268 H1255 0.961 . S
C1268 H1256 0.959 . S
C1268 C1266 1.561 . S
C1269 C1266 1.526 . S
C1269 C1270 1.396 . S
C1269 C1274 1.390 . S
C1270 C1264 1.465 . S
C1270 C1269 1.396 . S
C1270 C1271 1.399 . S
C1271 H1257 0.929 . S
C1271 C1270 1.399 . S
C1271 C1272 1.385 . S
C1272 H1258 0.931 . S
C1272 C1271 1.385 . S
C1272 C1273 1.389 . S
C1273 C1272 1.389 . S
C1273 C1274 1.387 . S
C1274 H1259 0.930 . S
C1274 C1269 1.390 . S
C1274 C1273 1.387 . S
H1275 C1287 0.930 . S
H1276 C1289 0.930 . S
H1277 C1290 0.930 . S
H1278 C1294 0.959 . S
H1279 C1294 0.959 . S
H1280 C1294 0.961 . S
H1281 C1295 0.960 . S
H1282 C1295 0.961 . S
H1283 C1295 0.959 . S
H1284 C1298 0.929 . S
H1285 C1299 0.931 . S
H1286 C1301 0.930 . S
C1287 H1275 0.930 . S
C1287 C1288 1.399 . S
C1287 C1292 1.399 . S
C1288 C1287 1.399 . S
C1288 C1289 1.376 . S
C1289 H1276 0.930 . S
C1289 C1288 1.376 . S
C1289 C1290 1.388 . S
C1290 H1277 0.930 . S
C1290 C1289 1.388 . S
C1290 C1291 1.390 . S
C1291 C1290 1.390 . S
C1291 C1292 1.394 . S
C1291 C1297 1.465 . S
C1292 C1287 1.399 . S
C1292 C1291 1.394 . S
C1292 C1293 1.516 . S
C1293 C1292 1.516 . S
C1293 C1294 1.502 . S
C1293 C1295 1.561 . S
C1293 C1296 1.526 . S
C1294 H1278 0.959 . S
C1294 H1279 0.959 . S
C1294 H1280 0.961 . S
C1294 C1293 1.502 . S
C1295 H1281 0.960 . S
C1295 H1282 0.961 . S
C1295 H1283 0.959 . S
C1295 C1293 1.561 . S
C1296 C1293 1.526 . S
C1296 C1297 1.396 . S
C1296 C1301 1.390 . S
C1297 C1291 1.465 . S
C1297 C1296 1.396 . S
C1297 C1298 1.399 . S
C1298 H1284 0.929 . S
C1298 C1297 1.399 . S
C1298 C1299 1.385 . S
C1299 H1285 0.931 . S
C1299 C1298 1.385 . S
C1299 C1300 1.389 . S
C1300 C1299 1.389 . S
C1300 C1301 1.387 . S
C1301 H1286 0.930 . S
C1301 C1296 1.390 . S
C1301 C1300 1.387 . S
H1302 C1314 0.930 . S
H1303 C1316 0.930 . S
H1304 C1317 0.930 . S
H1305 C1321 0.959 . S
H1306 C1321 0.959 . S
H1307 C1321 0.961 . S
H1308 C1322 0.960 . S
H1309 C1322 0.961 . S
H1310 C1322 0.959 . S
H1311 C1325 0.929 . S
H1312 C1326 0.931 . S
H1313 C1328 0.930 . S
C1314 H1302 0.930 . S
C1314 C1315 1.399 . S
C1314 C1319 1.399 . S
C1315 C1314 1.399 . S
C1315 C1316 1.376 . S
C1316 H1303 0.930 . S
C1316 C1315 1.376 . S
C1316 C1317 1.388 . S
C1317 H1304 0.930 . S
C1317 C1316 1.388 . S
C1317 C1318 1.390 . S
C1318 C1317 1.390 . S
C1318 C1319 1.394 . S
C1318 C1324 1.465 . S
C1319 C1314 1.399 . S
C1319 C1318 1.394 . S
C1319 C1320 1.516 . S
C1320 C1319 1.516 . S
C1320 C1321 1.502 . S
C1320 C1322 1.561 . S
C1320 C1323 1.526 . S
C1321 H1305 0.959 . S
C1321 H1306 0.959 . S
C1321 H1307 0.961 . S
C1321 C1320 1.502 . S
C1322 H1308 0.960 . S
C1322 H1309 0.961 . S
C1322 H1310 0.959 . S
C1322 C1320 1.561 . S
C1323 C1320 1.526 . S
C1323 C1324 1.396 . S
C1323 C1328 1.390 . S
C1324 C1318 1.465 . S
C1324 C1323 1.396 . S
C1324 C1325 1.399 . S
C1325 H1311 0.929 . S
C1325 C1324 1.399 . S
C1325 C1326 1.385 . S
C1326 H1312 0.931 . S
C1326 C1325 1.385 . S
C1326 C1327 1.389 . S
C1327 C1326 1.389 . S
C1327 C1328 1.387 . S
C1328 H1313 0.930 . S
C1328 C1323 1.390 . S
C1328 C1327 1.387 . S
H1329 C1341 0.930 . S
H1330 C1343 0.930 . S
H1331 C1344 0.930 . S
H1332 C1348 0.959 . S
H1333 C1348 0.959 . S
H1334 C1348 0.961 . S
H1335 C1349 0.960 . S
H1336 C1349 0.961 . S
H1337 C1349 0.959 . S
H1338 C1352 0.929 . S
H1339 C1353 0.931 . S
H1340 C1355 0.930 . S
C1341 H1329 0.930 . S
C1341 C1342 1.399 . S
C1341 C1346 1.399 . S
C1342 C1341 1.399 . S
C1342 C1343 1.376 . S
C1343 H1330 0.930 . S
C1343 C1342 1.376 . S
C1343 C1344 1.388 . S
C1344 H1331 0.930 . S
C1344 C1343 1.388 . S
C1344 C1345 1.390 . S
C1345 C1344 1.390 . S
C1345 C1346 1.394 . S
C1345 C1351 1.465 . S
C1346 C1341 1.399 . S
C1346 C1345 1.394 . S
C1346 C1347 1.516 . S
C1347 C1346 1.516 . S
C1347 C1348 1.502 . S
C1347 C1349 1.561 . S
C1347 C1350 1.526 . S
C1348 H1332 0.959 . S
C1348 H1333 0.959 . S
C1348 H1334 0.961 . S
C1348 C1347 1.502 . S
C1349 H1335 0.960 . S
C1349 H1336 0.961 . S
C1349 H1337 0.959 . S
C1349 C1347 1.561 . S
C1350 C1347 1.526 . S
C1350 C1351 1.396 . S
C1350 C1355 1.390 . S
C1351 C1345 1.465 . S
C1351 C1350 1.396 . S
C1351 C1352 1.399 . S
C1352 H1338 0.929 . S
C1352 C1351 1.399 . S
C1352 C1353 1.385 . S
C1353 H1339 0.931 . S
C1353 C1352 1.385 . S
C1353 C1354 1.389 . S
C1354 C1353 1.389 . S
C1354 C1355 1.387 . S
C1355 H1340 0.930 . S
C1355 C1350 1.390 . S
C1355 C1354 1.387 . S
H1356 C1368 0.930 . S
H1357 C1370 0.930 . S
H1358 C1371 0.930 . S
H1359 C1375 0.959 . S
H1360 C1375 0.959 . S
H1361 C1375 0.961 . S
H1362 C1376 0.960 . S
H1363 C1376 0.961 . S
H1364 C1376 0.959 . S
H1365 C1379 0.929 . S
H1366 C1380 0.931 . S
H1367 C1382 0.930 . S
C1368 H1356 0.930 . S
C1368 C1369 1.399 . S
C1368 C1373 1.399 . S
C1369 C1368 1.399 . S
C1369 C1370 1.376 . S
C1370 H1357 0.930 . S
C1370 C1369 1.376 . S
C1370 C1371 1.388 . S
C1371 H1358 0.930 . S
C1371 C1370 1.388 . S
C1371 C1372 1.390 . S
C1372 C1371 1.390 . S
C1372 C1373 1.394 . S
C1372 C1378 1.465 . S
C1373 C1368 1.399 . S
C1373 C1372 1.394 . S
C1373 C1374 1.516 . S
C1374 C1373 1.516 . S
C1374 C1375 1.502 . S
C1374 C1376 1.561 . S
C1374 C1377 1.526 . S
C1375 H1359 0.959 . S
C1375 H1360 0.959 . S
C1375 H1361 0.961 . S
C1375 C1374 1.502 . S
C1376 H1362 0.960 . S
C1376 H1363 0.961 . S
C1376 H1364 0.959 . S
C1376 C1374 1.561 . S
C1377 C1374 1.526 . S
C1377 C1378 1.396 . S
C1377 C1382 1.390 . S
C1378 C1372 1.465 . S
C1378 C1377 1.396 . S
C1378 C1379 1.399 . S
C1379 H1365 0.929 . S
C1379 C1378 1.399 . S
C1379 C1380 1.385 . S
C1380 H1366 0.931 . S
C1380 C1379 1.385 . S
C1380 C1381 1.389 . S
C1381 C1380 1.389 . S
C1381 C1382 1.387 . S
C1382 H1367 0.930 . S
C1382 C1377 1.390 . S
C1382 C1381 1.387 . S
H1383 C1395 0.930 . S
H1384 C1397 0.930 . S
H1385 C1398 0.930 . S
H1386 C1402 0.959 . S
H1387 C1402 0.959 . S
H1388 C1402 0.961 . S
H1389 C1403 0.960 . S
H1390 C1403 0.961 . S
H1391 C1403 0.959 . S
H1392 C1406 0.929 . S
H1393 C1407 0.931 . S
H1394 C1409 0.930 . S
C1395 H1383 0.930 . S
C1395 C1396 1.399 . S
C1395 C1400 1.399 . S
C1396 C1395 1.399 . S
C1396 C1397 1.376 . S
C1397 H1384 0.930 . S
C1397 C1396 1.376 . S
C1397 C1398 1.388 . S
C1398 H1385 0.930 . S
C1398 C1397 1.388 . S
C1398 C1399 1.390 . S
C1399 C1398 1.390 . S
C1399 C1400 1.394 . S
C1399 C1405 1.465 . S
C1400 C1395 1.399 . S
C1400 C1399 1.394 . S
C1400 C1401 1.516 . S
C1401 C1400 1.516 . S
C1401 C1402 1.502 . S
C1401 C1403 1.561 . S
C1401 C1404 1.526 . S
C1402 H1386 0.959 . S
C1402 H1387 0.959 . S
C1402 H1388 0.961 . S
C1402 C1401 1.502 . S
C1403 H1389 0.960 . S
C1403 H1390 0.961 . S
C1403 H1391 0.959 . S
C1403 C1401 1.561 . S
C1404 C1401 1.526 . S
C1404 C1405 1.396 . S
C1404 C1409 1.390 . S
C1405 C1399 1.465 . S
C1405 C1404 1.396 . S
C1405 C1406 1.399 . S
C1406 H1392 0.929 . S
C1406 C1405 1.399 . S
C1406 C1407 1.385 . S
C1407 H1393 0.931 . S
C1407 C1406 1.385 . S
C1407 C1408 1.389 . S
C1408 C1407 1.389 . S
C1408 C1409 1.387 . S
C1409 H1394 0.930 . S
C1409 C1404 1.390 . S
C1409 C1408 1.387 . S
H1410 C1422 0.930 . S
H1411 C1424 0.930 . S
H1412 C1425 0.930 . S
H1413 C1429 0.959 . S
H1414 C1429 0.959 . S
H1415 C1429 0.961 . S
H1416 C1430 0.960 . S
H1417 C1430 0.961 . S
H1418 C1430 0.959 . S
H1419 C1433 0.929 . S
H1420 C1434 0.931 . S
H1421 C1436 0.930 . S
C1422 H1410 0.930 . S
C1422 C1423 1.399 . S
C1422 C1427 1.399 . S
C1423 C1422 1.399 . S
C1423 C1424 1.376 . S
C1424 H1411 0.930 . S
C1424 C1423 1.376 . S
C1424 C1425 1.388 . S
C1425 H1412 0.930 . S
C1425 C1424 1.388 . S
C1425 C1426 1.390 . S
C1426 C1425 1.390 . S
C1426 C1427 1.394 . S
C1426 C1432 1.465 . S
C1427 C1422 1.399 . S
C1427 C1426 1.394 . S
C1427 C1428 1.516 . S
C1428 C1427 1.516 . S
C1428 C1429 1.502 . S
C1428 C1430 1.561 . S
C1428 C1431 1.526 . S
C1429 H1413 0.959 . S
C1429 H1414 0.959 . S
C1429 H1415 0.961 . S
C1429 C1428 1.502 . S
C1430 H1416 0.960 . S
C1430 H1417 0.961 . S
C1430 H1418 0.959 . S
C1430 C1428 1.561 . S
C1431 C1428 1.526 . S
C1431 C1432 1.396 . S
C1431 C1436 1.390 . S
C1432 C1426 1.465 . S
C1432 C1431 1.396 . S
C1432 C1433 1.399 . S
C1433 H1419 0.929 . S
C1433 C1432 1.399 . S
C1433 C1434 1.385 . S
C1434 H1420 0.931 . S
C1434 C1433 1.385 . S
C1434 C1435 1.389 . S
C1435 C1434 1.389 . S
C1435 C1436 1.387 . S
C1436 H1421 0.930 . S
C1436 C1431 1.390 . S
C1436 C1435 1.387 . S
H1437 C1449 0.930 . S
H1438 C1451 0.930 . S
H1439 C1452 0.930 . S
H1440 C1456 0.959 . S
H1441 C1456 0.959 . S
H1442 C1456 0.961 . S
H1443 C1457 0.960 . S
H1444 C1457 0.961 . S
H1445 C1457 0.959 . S
H1446 C1460 0.929 . S
H1447 C1461 0.931 . S
H1448 C1463 0.930 . S
C1449 H1437 0.930 . S
C1449 C1450 1.399 . S
C1449 C1454 1.399 . S
C1450 C1449 1.399 . S
C1450 C1451 1.376 . S
C1451 H1438 0.930 . S
C1451 C1450 1.376 . S
C1451 C1452 1.388 . S
C1452 H1439 0.930 . S
C1452 C1451 1.388 . S
C1452 C1453 1.390 . S
C1453 C1452 1.390 . S
C1453 C1454 1.394 . S
C1453 C1459 1.465 . S
C1454 C1449 1.399 . S
C1454 C1453 1.394 . S
C1454 C1455 1.516 . S
C1455 C1454 1.516 . S
C1455 C1456 1.502 . S
C1455 C1457 1.561 . S
C1455 C1458 1.526 . S
C1456 H1440 0.959 . S
C1456 H1441 0.959 . S
C1456 H1442 0.961 . S
C1456 C1455 1.502 . S
C1457 H1443 0.960 . S
C1457 H1444 0.961 . S
C1457 H1445 0.959 . S
C1457 C1455 1.561 . S
C1458 C1455 1.526 . S
C1458 C1459 1.396 . S
C1458 C1463 1.390 . S
C1459 C1453 1.465 . S
C1459 C1458 1.396 . S
C1459 C1460 1.399 . S
C1460 H1446 0.929 . S
C1460 C1459 1.399 . S
C1460 C1461 1.385 . S
C1461 H1447 0.931 . S
C1461 C1460 1.385 . S
C1461 C1462 1.389 . S
C1462 C1461 1.389 . S
C1462 C1463 1.387 . S
C1463 H1448 0.930 . S
C1463 C1458 1.390 . S
C1463 C1462 1.387 . S
C829 C361 1.465 . S
C841 C554 1.438 . S
C868 C638 1.459 . S
C856 C451 1.460 . S
C895 C631 1.458 . S
C883 C241 1.397 . S
C910 C331 1.425 . S
C922 C547 1.468 . S
C949 C711 1.424 . S
C937 C140 1.395 . S
C976 C795 1.435 . S
C964 C211 1.403 . S
C991 C20 1.389 . S
C1003 C788 1.462 . S
C1018 C91 1.427 . S
C1030 C704 1.448 . S
C1057 C538 1.354 . S
C1045 C80 1.499 1_554 S
C1084 C622 1.314 . S
C1072 C1 1.504 . S
C1111 C633 1.350 . S
C1099 C200 1.521 1_556 S
C1138 C549 1.342 . S
C1126 C121 1.526 . S
C1165 C717 1.338 . S
C1153 C320 1.466 1_556 S
C1180 C260 1.450 . S
C1192 C801 1.390 . S
C1219 C790 1.419 . S
C1207 C440 1.497 1_554 S
C1234 C380 1.525 . S
C1246 C706 1.392 . S
C1273 C536 1.585 . S
C1261 C31 1.564 . S
C1300 C620 1.568 . S
C1288 C61 1.557 . S
C1315 C151 1.567 . S
C1327 C627 1.539 . S
C1354 C543 1.533 . S
C1342 C181 1.562 . S
C1381 C715 1.564 . S
C1369 C271 1.551 . S
C1396 C301 1.569 . S
C1408 C799 1.566 . S
C1423 C391 1.536 . S
C1435 C806 1.570 . S
C1450 C421 1.571 . S
C1462 C722 1.534 . S
