# Generated by pormake.
# Topology ptr, (4,4)-cn, num edge types: 1
# Building blocks:
#     Node 0, Type 0, BuildingBlock: NAHDIM_clean_sbu_0, # of connection points: 4
#     Node 1, Type 0, BuildingBlock: NAHDIM_clean_sbu_0, # of connection points: 4
#     Node 2, Type 0, BuildingBlock: NAHDIM_clean_sbu_0, # of connection points: 4
#     Node 3, Type 0, BuildingBlock: NAHDIM_clean_sbu_0, # of connection points: 4
#     Node 4, Type 0, BuildingBlock: NAHDIM_clean_sbu_0, # of connection points: 4
#     Node 5, Type 0, BuildingBlock: NAHDIM_clean_sbu_0, # of connection points: 4
#     Node 6, Type 0, BuildingBlock: NAHDIM_clean_sbu_0, # of connection points: 4
#     Node 7, Type 0, BuildingBlock: NAHDIM_clean_sbu_0, # of connection points: 4
#     Node 8, Type 0, BuildingBlock: NAHDIM_clean_sbu_0, # of connection points: 4
#     Node 9, Type 0, BuildingBlock: NAHDIM_clean_sbu_0, # of connection points: 4
#     Node 10, Type 0, BuildingBlock: NAHDIM_clean_sbu_0, # of connection points: 4
#     Node 11, Type 0, BuildingBlock: NAHDIM_clean_sbu_0, # of connection points: 4
#     Node 12, Type 0, BuildingBlock: NAHDIM_clean_sbu_0, # of connection points: 4
#     Node 13, Type 0, BuildingBlock: NAHDIM_clean_sbu_0, # of connection points: 4
#     Node 14, Type 0, BuildingBlock: NAHDIM_clean_sbu_0, # of connection points: 4
#     Node 15, Type 0, BuildingBlock: NAHDIM_clean_sbu_0, # of connection points: 4
#     Node 16, Type 0, BuildingBlock: NAHDIM_clean_sbu_0, # of connection points: 4
#     Node 17, Type 0, BuildingBlock: NAHDIM_clean_sbu_0, # of connection points: 4
#     Node 18, Type 1, BuildingBlock: GIZVER_clean_linker_0, # of connection points: 4
#     Node 19, Type 1, BuildingBlock: GIZVER_clean_linker_0, # of connection points: 4
#     Node 20, Type 1, BuildingBlock: GIZVER_clean_linker_0, # of connection points: 4
#     Node 21, Type 1, BuildingBlock: GIZVER_clean_linker_0, # of connection points: 4
#     Node 22, Type 1, BuildingBlock: GIZVER_clean_linker_0, # of connection points: 4
#     Node 23, Type 1, BuildingBlock: GIZVER_clean_linker_0, # of connection points: 4
#     Node 24, Type 1, BuildingBlock: GIZVER_clean_linker_0, # of connection points: 4
#     Node 25, Type 1, BuildingBlock: GIZVER_clean_linker_0, # of connection points: 4
#     Node 26, Type 1, BuildingBlock: GIZVER_clean_linker_0, # of connection points: 4
#     Node 27, Type 1, BuildingBlock: GIZVER_clean_linker_0, # of connection points: 4
#     Node 28, Type 1, BuildingBlock: GIZVER_clean_linker_0, # of connection points: 4
#     Node 29, Type 1, BuildingBlock: GIZVER_clean_linker_0, # of connection points: 4
#     Node 30, Type 1, BuildingBlock: GIZVER_clean_linker_0, # of connection points: 4
#     Node 31, Type 1, BuildingBlock: GIZVER_clean_linker_0, # of connection points: 4
#     Node 32, Type 1, BuildingBlock: GIZVER_clean_linker_0, # of connection points: 4
#     Node 33, Type 1, BuildingBlock: GIZVER_clean_linker_0, # of connection points: 4
#     Node 34, Type 1, BuildingBlock: GIZVER_clean_linker_0, # of connection points: 4
#     Node 35, Type 1, BuildingBlock: GIZVER_clean_linker_0, # of connection points: 4
#     Edge 36, Type (0, 1), BuildingBlock: OJICUG_clean_linker_0, # of connection points: 2
#     Edge 37, Type (0, 1), BuildingBlock: OJICUG_clean_linker_0, # of connection points: 2
#     Edge 38, Type (0, 1), BuildingBlock: OJICUG_clean_linker_0, # of connection points: 2
#     Edge 39, Type (0, 1), BuildingBlock: OJICUG_clean_linker_0, # of connection points: 2
#     Edge 40, Type (0, 1), BuildingBlock: OJICUG_clean_linker_0, # of connection points: 2
#     Edge 41, Type (0, 1), BuildingBlock: OJICUG_clean_linker_0, # of connection points: 2
#     Edge 42, Type (0, 1), BuildingBlock: OJICUG_clean_linker_0, # of connection points: 2
#     Edge 43, Type (0, 1), BuildingBlock: OJICUG_clean_linker_0, # of connection points: 2
#     Edge 44, Type (0, 1), BuildingBlock: OJICUG_clean_linker_0, # of connection points: 2
#     Edge 45, Type (0, 1), BuildingBlock: OJICUG_clean_linker_0, # of connection points: 2
#     Edge 46, Type (0, 1), BuildingBlock: OJICUG_clean_linker_0, # of connection points: 2
#     Edge 47, Type (0, 1), BuildingBlock: OJICUG_clean_linker_0, # of connection points: 2
#     Edge 48, Type (0, 1), BuildingBlock: OJICUG_clean_linker_0, # of connection points: 2
#     Edge 49, Type (0, 1), BuildingBlock: OJICUG_clean_linker_0, # of connection points: 2
#     Edge 50, Type (0, 1), BuildingBlock: OJICUG_clean_linker_0, # of connection points: 2
#     Edge 51, Type (0, 1), BuildingBlock: OJICUG_clean_linker_0, # of connection points: 2
#     Edge 52, Type (0, 1), BuildingBlock: OJICUG_clean_linker_0, # of connection points: 2
#     Edge 53, Type (0, 1), BuildingBlock: OJICUG_clean_linker_0, # of connection points: 2
#     Edge 54, Type (0, 1), BuildingBlock: OJICUG_clean_linker_0, # of connection points: 2
#     Edge 55, Type (0, 1), BuildingBlock: OJICUG_clean_linker_0, # of connection points: 2
#     Edge 56, Type (0, 1), BuildingBlock: OJICUG_clean_linker_0, # of connection points: 2
#     Edge 57, Type (0, 1), BuildingBlock: OJICUG_clean_linker_0, # of connection points: 2
#     Edge 58, Type (0, 1), BuildingBlock: OJICUG_clean_linker_0, # of connection points: 2
#     Edge 59, Type (0, 1), BuildingBlock: OJICUG_clean_linker_0, # of connection points: 2
#     Edge 60, Type (0, 1), BuildingBlock: OJICUG_clean_linker_0, # of connection points: 2
#     Edge 61, Type (0, 1), BuildingBlock: OJICUG_clean_linker_0, # of connection points: 2
#     Edge 62, Type (0, 1), BuildingBlock: OJICUG_clean_linker_0, # of connection points: 2
#     Edge 63, Type (0, 1), BuildingBlock: OJICUG_clean_linker_0, # of connection points: 2
#     Edge 64, Type (0, 1), BuildingBlock: OJICUG_clean_linker_0, # of connection points: 2
#     Edge 65, Type (0, 1), BuildingBlock: OJICUG_clean_linker_0, # of connection points: 2
#     Edge 66, Type (0, 1), BuildingBlock: OJICUG_clean_linker_0, # of connection points: 2
#     Edge 67, Type (0, 1), BuildingBlock: OJICUG_clean_linker_0, # of connection points: 2
#     Edge 68, Type (0, 1), BuildingBlock: OJICUG_clean_linker_0, # of connection points: 2
#     Edge 69, Type (0, 1), BuildingBlock: OJICUG_clean_linker_0, # of connection points: 2
#     Edge 70, Type (0, 1), BuildingBlock: OJICUG_clean_linker_0, # of connection points: 2
#     Edge 71, Type (0, 1), BuildingBlock: OJICUG_clean_linker_0, # of connection points: 2
#     Edge 72, Type (0, 1), BuildingBlock: OJICUG_clean_linker_0, # of connection points: 2
#     Edge 73, Type (0, 1), BuildingBlock: OJICUG_clean_linker_0, # of connection points: 2
#     Edge 74, Type (0, 1), BuildingBlock: OJICUG_clean_linker_0, # of connection points: 2
#     Edge 75, Type (0, 1), BuildingBlock: OJICUG_clean_linker_0, # of connection points: 2
#     Edge 76, Type (0, 1), BuildingBlock: OJICUG_clean_linker_0, # of connection points: 2
#     Edge 77, Type (0, 1), BuildingBlock: OJICUG_clean_linker_0, # of connection points: 2
#     Edge 78, Type (0, 1), BuildingBlock: OJICUG_clean_linker_0, # of connection points: 2
#     Edge 79, Type (0, 1), BuildingBlock: OJICUG_clean_linker_0, # of connection points: 2
#     Edge 80, Type (0, 1), BuildingBlock: OJICUG_clean_linker_0, # of connection points: 2
#     Edge 81, Type (0, 1), BuildingBlock: OJICUG_clean_linker_0, # of connection points: 2
#     Edge 82, Type (0, 1), BuildingBlock: OJICUG_clean_linker_0, # of connection points: 2
#     Edge 83, Type (0, 1), BuildingBlock: OJICUG_clean_linker_0, # of connection points: 2
#     Edge 84, Type (0, 1), BuildingBlock: OJICUG_clean_linker_0, # of connection points: 2
#     Edge 85, Type (0, 1), BuildingBlock: OJICUG_clean_linker_0, # of connection points: 2
#     Edge 86, Type (0, 1), BuildingBlock: OJICUG_clean_linker_0, # of connection points: 2
#     Edge 87, Type (0, 1), BuildingBlock: OJICUG_clean_linker_0, # of connection points: 2
#     Edge 88, Type (0, 1), BuildingBlock: OJICUG_clean_linker_0, # of connection points: 2
#     Edge 89, Type (0, 1), BuildingBlock: OJICUG_clean_linker_0, # of connection points: 2
#     Edge 90, Type (0, 1), BuildingBlock: OJICUG_clean_linker_0, # of connection points: 2
#     Edge 91, Type (0, 1), BuildingBlock: OJICUG_clean_linker_0, # of connection points: 2
#     Edge 92, Type (0, 1), BuildingBlock: OJICUG_clean_linker_0, # of connection points: 2
#     Edge 93, Type (0, 1), BuildingBlock: OJICUG_clean_linker_0, # of connection points: 2
#     Edge 94, Type (0, 1), BuildingBlock: OJICUG_clean_linker_0, # of connection points: 2
#     Edge 95, Type (0, 1), BuildingBlock: OJICUG_clean_linker_0, # of connection points: 2
#     Edge 96, Type (0, 1), BuildingBlock: OJICUG_clean_linker_0, # of connection points: 2
#     Edge 97, Type (0, 1), BuildingBlock: OJICUG_clean_linker_0, # of connection points: 2
#     Edge 98, Type (0, 1), BuildingBlock: OJICUG_clean_linker_0, # of connection points: 2
#     Edge 99, Type (0, 1), BuildingBlock: OJICUG_clean_linker_0, # of connection points: 2
#     Edge 100, Type (0, 1), BuildingBlock: OJICUG_clean_linker_0, # of connection points: 2
#     Edge 101, Type (0, 1), BuildingBlock: OJICUG_clean_linker_0, # of connection points: 2
#     Edge 102, Type (0, 1), BuildingBlock: OJICUG_clean_linker_0, # of connection points: 2
#     Edge 103, Type (0, 1), BuildingBlock: OJICUG_clean_linker_0, # of connection points: 2
#     Edge 104, Type (0, 1), BuildingBlock: OJICUG_clean_linker_0, # of connection points: 2
#     Edge 105, Type (0, 1), BuildingBlock: OJICUG_clean_linker_0, # of connection points: 2
#     Edge 106, Type (0, 1), BuildingBlock: OJICUG_clean_linker_0, # of connection points: 2
#     Edge 107, Type (0, 1), BuildingBlock: OJICUG_clean_linker_0, # of connection points: 2
# Relax obj value: 0.076
# Max RMSD: 0.213
# Mean RMSD: 0.115
data_MOF--net-ptr--node1-NAHDIM_clean_sbu_0--node2-GIZVER_clean_linker_0--edge1-OJICUG_clean_linker_0
_symmetry_space_group_name_H-M    P1
_symmetry_Int_Tables_number       1
_symmetry_cell_setting            triclinic
loop_
_symmetry_equiv_pos_as_xyz
'x, y, z'
_cell_length_a     59.754287
_cell_length_b     58.70043
_cell_length_c     35.039296
_cell_angle_alpha  92.232482
_cell_angle_beta   89.347802
_cell_angle_gamma 121.82714
loop_
_atom_site_label
_atom_site_type_symbol
_atom_site_fract_x
_atom_site_fract_y
_atom_site_fract_z
_atom_type_partial_charge
C0 C 0.06056 0.37453 0.99325 0.0
O1 O 0.04326 0.35703 0.96817 0.0
O2 O 0.99249 0.35101 -0.00041 0.0
Zn3 Zn 0.02177 0.38991 0.00561 0.0
O4 O 0.01729 0.40571 0.05477 0.0
C5 C 1.00221 0.40742 0.9458 0.0
O6 O 0.9795 0.39048 0.96127 0.0
O7 O 0.05585 0.39089 0.01088 0.0
C8 C 0.01097 0.42317 0.05953 0.0
O9 O 1.00588 0.43265 0.02971 0.0
C10 C 0.9691 0.34052 0.01198 0.0
O11 O 0.9619 0.3557 0.02985 0.0
O12 O 0.02322 0.41077 0.96021 0.0
C13 C 0.69476 0.6481 0.01147 0.0
O14 O 0.69747 0.67058 0.02518 0.0
O15 O 0.65033 0.66914 0.01302 0.0
Zn16 Zn 0.63908 0.63025 0.00671 0.0
O17 O 0.61994 0.61535 0.95674 0.0
C18 C 0.59882 0.61205 0.06427 0.0
O19 O 0.59413 0.62909 0.04854 0.0
O20 O 0.67181 0.62823 0.00325 0.0
C21 C 0.59616 0.59643 0.95126 0.0
O22 O 0.58103 0.58487 0.98066 0.0
C23 C 0.63861 0.68031 0.00078 0.0
O24 O 0.61588 0.66582 0.98277 0.0
O25 O 0.617 0.60904 0.05092 0.0
C26 C 0.3691 0.05274 0.01965 0.0
O27 O 0.34768 0.03194 0.03286 0.0
O28 O 0.34793 0.98453 0.00993 0.0
Zn29 Zn 0.38628 0.01467 0.0076 0.0
O30 O 0.40377 0.01267 0.95883 0.0
C31 C 0.40119 0.99091 0.06442 0.0
O32 O 0.38291 0.96872 0.04677 0.0
O33 O 0.38802 0.05011 0.00865 0.0
C34 C 0.41232 0.99716 0.95187 0.0
O35 O 0.40927 0.97986 0.97717 0.0
C36 C 0.33686 0.96135 -0.00654 0.0
O37 O 0.35071 0.95501 0.97111 0.0
O38 O 0.40601 0.01338 0.05309 0.0
C39 C 0.97007 0.64937 0.00257 0.0
O40 O 0.99009 0.6699 0.02071 0.0
O41 O 0.03761 0.66429 -0.00353 0.0
Zn42 Zn 1.00451 0.62764 -0.00644 0.0
O43 O 1.0068 0.60912 0.94588 0.0
C44 C 0.02172 0.60483 0.04829 0.0
O45 O 0.04219 0.61457 0.02568 0.0
O46 O 0.97208 0.62993 0.98986 0.0
C47 C 1.00154 0.58516 0.94207 0.0
O48 O 0.9933 0.56968 0.97155 0.0
C49 C 0.04255 0.68396 0.97632 0.0
O50 O 0.02478 0.68157 0.95202 0.0
O51 O 1.00271 0.60769 0.03999 0.0
C52 C 0.32446 0.37526 0.99119 0.0
O53 O 0.32402 0.3568 0.96818 0.0
O54 O 0.36997 0.35358 0.00012 0.0
Zn55 Zn 0.37924 0.39202 0.00358 0.0
O56 O 0.40021 0.40909 0.05164 0.0
C57 C 0.42308 0.41586 0.95267 0.0
O58 O 0.43366 0.40919 0.97927 0.0
O59 O 0.34596 0.39261 0.0078 0.0
C60 C 0.41755 0.43372 0.05796 0.0
O61 O 0.42343 0.45086 0.03095 0.0
C62 C 0.38413 0.34606 0.01539 0.0
O63 O 0.4056 0.36375 0.03432 0.0
O64 O 0.39982 0.41097 0.95718 0.0
C65 C 0.62352 0.95017 0.00818 0.0
O66 O 0.59825 0.94114 0.00535 0.0
O67 O 0.6611 0.03919 0.00405 0.0
Zn68 Zn 0.62847 1.00199 0.00576 0.0
O69 O 0.60556 0.99793 0.05087 0.0
C70 C 0.58815 0.99704 0.95373 0.0
O71 O 0.58023 0.00501 0.98366 0.0
O72 O 0.63997 0.97534 0.00871 0.0
C73 C 0.60959 0.01689 0.07419 0.0
O74 O 0.63003 0.04115 0.06956 0.0
C75 C 0.68184 0.04608 0.02321 0.0
O76 O 0.68157 0.02908 0.0468 0.0
O77 O 0.60782 0.99437 0.957 0.0
C78 C 0.7236 0.70984 0.32626 0.0
O79 O 0.70755 0.69556 0.29779 0.0
O80 O 0.65546 0.69879 0.33029 0.0
Zn81 Zn 0.69086 0.73346 0.33588 0.0
O82 O 0.69062 0.75637 0.38002 0.0
C83 C 0.69669 0.77326 0.2824 0.0
O84 O 0.68902 0.78255 0.31105 0.0
O85 O 0.71976 0.72627 0.34558 0.0
C86 C 0.67009 0.7509 0.39864 0.0
O87 O 0.64735 0.72948 0.38864 0.0
C88 C 0.64817 0.67768 0.34853 0.0
O89 O 0.66443 0.67746 0.37322 0.0
O90 O 0.69878 0.75307 0.287 0.0
C91 C 0.35958 0.98272 0.35453 0.0
O92 O 0.36024 0.00512 0.36248 0.0
O93 O 0.30926 0.99633 0.35195 0.0
Zn94 Zn 0.30256 0.9588 0.34963 0.0
O95 O 0.2852 0.94047 0.29975 0.0
C96 C 0.26215 0.93962 0.40736 0.0
O97 O 0.25648 0.95587 0.39142 0.0
O98 O 0.33741 0.96095 0.34975 0.0
C99 C 0.26112 0.92307 0.29255 0.0
O100 O 0.24376 0.9154 0.32004 0.0
C101 C 0.2944 0.00353 0.33823 0.0
O102 O 0.27207 0.9856 0.32137 0.0
O103 O 0.2809 0.93752 0.39412 0.0
C104 C 0.02666 0.38413 0.35577 0.0
O105 O 1.00682 0.36428 0.37337 0.0
O106 O 0.01285 0.31378 0.34645 0.0
Zn107 Zn 0.04826 0.34867 0.34426 0.0
O108 O 0.06816 0.3486 0.29749 0.0
C109 C 0.0763 0.33416 0.3921 0.0
O110 O 0.06894 0.31579 0.36446 0.0
O111 O 0.0451 0.38138 0.34272 0.0
C112 C 0.06456 0.32767 0.27951 0.0
O113 O 0.04596 0.30391 0.29051 0.0
C114 C 0.99159 0.30782 0.32955 0.0
O115 O 0.99126 0.32535 0.30775 0.0
O116 O 0.06967 0.35142 0.39027 0.0
C117 C 0.6251 0.97083 0.35932 0.0
O118 O 0.64491 0.99035 0.37922 0.0
O119 O 0.69315 0.98611 0.34185 0.0
Zn120 Zn 0.6596 0.94952 0.34371 0.0
O121 O 0.65742 0.92783 0.29708 0.0
C122 C 0.67182 0.94605 0.41988 0.0
O123 O 0.67988 0.97163 0.41909 0.0
O124 O 0.62731 0.95216 0.34382 0.0
C125 C 0.67689 0.92625 0.2861 0.0
O126 O 0.69887 0.93882 0.30626 0.0
C127 C 0.69626 0.007 0.32693 0.0
O128 O 0.67635 0.00599 0.30967 0.0
O129 O 0.66117 0.93124 0.3901 0.0
C130 C 0.9945 0.71438 0.31719 0.0
O131 O 0.99499 0.70103 0.28656 0.0
O132 O 0.04446 0.69248 0.3254 0.0
Zn133 Zn 0.04965 0.72941 0.33201 0.0
O134 O 0.06979 0.74482 0.38087 0.0
C135 C 0.06479 0.73858 0.25547 0.0
O136 O 0.04546 0.7133 0.25391 0.0
O137 O 0.01499 0.72741 0.33825 0.0
C138 C 0.08528 0.76932 0.39086 0.0
O139 O 0.08996 0.78811 0.36714 0.0
C140 C 0.02426 0.67015 0.3339 0.0
O141 O 1.00347 0.66946 0.34806 0.0
O142 O 0.07058 0.75144 0.28744 0.0
C143 C 0.31701 0.2968 0.32541 0.0
O144 O 0.3375 0.31617 0.30815 0.0
O145 O 0.33848 0.36624 0.33152 0.0
Zn146 Zn 0.30041 0.33583 0.33651 0.0
O147 O 0.2854 0.33928 0.38669 0.0
C148 C 0.27918 0.35494 0.28059 0.0
O149 O 0.29594 0.37838 0.29701 0.0
O150 O 0.29923 0.30077 0.33802 0.0
C151 C 0.26613 0.3426 0.39116 0.0
O152 O 0.25518 0.34577 0.3612 0.0
C153 C 0.3485 0.39017 0.34497 0.0
O154 O 0.33355 0.39695 0.36366 0.0
O155 O 0.27785 0.33406 0.29244 0.0
C156 C 0.38492 0.03175 0.65864 0.0
O157 O 0.36533 0.01317 0.63734 0.0
O158 O 0.31839 0.01446 0.67106 0.0
Zn159 Zn 0.35014 0.05231 0.67323 0.0
O160 O 0.35011 0.07067 0.72262 0.0
C161 C 0.32981 0.07089 0.61577 0.0
O162 O 0.30745 0.05469 0.63262 0.0
O163 O 0.38285 0.05037 0.67469 0.0
C164 C 0.34521 0.08915 0.72798 0.0
O165 O 0.33863 0.09793 0.69888 0.0
C166 C 0.29599 0.00719 0.68525 0.0
O167 O 0.29207 0.02509 0.70235 0.0
O168 O 0.35086 0.07318 0.62814 0.0
C169 C 0.01654 0.30535 0.67658 0.0
O170 O 0.01671 0.32445 0.69763 0.0
O171 O 0.96158 0.31628 0.67709 0.0
Zn172 Zn 0.95919 0.28078 0.67235 0.0
O173 O 0.93533 0.25818 0.62862 0.0
C174 C 0.92291 0.24334 0.72859 0.0
O175 O 0.90512 0.23349 0.70108 0.0
O176 O 0.99486 0.28585 0.6632 0.0
C177 C 0.92156 0.26448 0.60949 0.0
O178 O 0.92166 0.28636 0.61927 0.0
C179 C 0.97537 0.33637 0.65652 0.0
O180 O 0.98978 0.33486 0.62911 0.0
O181 O 0.94612 0.26259 0.72199 0.0
C182 C 0.69998 0.71602 0.67928 0.0
O183 O 0.6813 0.6974 0.70002 0.0
O184 O 0.68145 0.64499 0.67161 0.0
Zn185 Zn 0.71784 0.67801 0.66703 0.0
O186 O 0.73376 0.6729 0.61912 0.0
C187 C 0.74158 0.65997 0.71685 0.0
O188 O 0.73091 0.63994 0.69134 0.0
O189 O 0.71704 0.71199 0.66384 0.0
C190 C 0.75762 0.67947 0.61532 0.0
O191 O 0.77417 0.6912 0.64418 0.0
C192 C 0.66006 0.63993 0.65616 0.0
O193 O 0.6599 0.65774 0.63481 0.0
O194 O 0.739 0.67988 0.71255 0.0
C195 C 0.29447 0.3088 0.68555 0.0
O196 O 0.31512 0.32981 0.70185 0.0
O197 O 0.36038 0.32893 0.67351 0.0
Zn198 Zn 0.33063 0.29037 0.67535 0.0
O199 O 0.333 0.26922 0.63077 0.0
C200 C 0.33364 0.25469 0.72924 0.0
O201 O 0.32717 0.23739 0.70029 0.0
O202 O 0.29624 0.28911 0.67338 0.0
C203 C 0.31248 0.24951 0.61509 0.0
O204 O 0.28922 0.24264 0.62856 0.0
C205 C 0.38363 0.33598 0.66361 0.0
O206 O 0.38846 0.31749 0.65173 0.0
O207 O 0.33505 0.27679 0.72455 0.0
C208 C 0.65685 0.03432 0.6611 0.0
O209 O 0.65831 0.01859 0.6348 0.0
O210 O 0.71142 0.02094 0.67838 0.0
Zn211 Zn 0.71349 0.05633 0.67597 0.0
O212 O 0.73477 0.08002 0.72082 0.0
C213 C 0.75185 0.07484 0.61664 0.0
O214 O 0.76228 0.06551 0.63932 0.0
O215 O 0.67739 0.05111 0.68022 0.0
C216 C 0.753 0.07842 0.73629 0.0
O217 O 0.75906 0.06143 0.72169 0.0
C218 C 0.69399 1.00036 0.69548 0.0
O219 O 0.67481 1.00094 0.71324 0.0
O220 O 0.73062 0.07345 0.6265 0.0
C221 C 0.97704 0.61371 0.64483 0.0
O222 O 0.99468 0.63199 0.62255 0.0
O223 O 0.99887 0.68293 0.657 0.0
Zn224 Zn 0.96063 0.65227 0.65823 0.0
O225 O 0.94087 0.65425 0.70397 0.0
C226 C 0.92068 0.65046 0.60763 0.0
O227 O 0.90838 0.64978 0.63927 0.0
O228 O 0.96044 0.6179 0.66154 0.0
C229 C 0.93904 0.67381 0.71651 0.0
O230 O 0.9516 0.69679 0.69943 0.0
C231 C 0.013 0.70255 0.68031 0.0
O232 O 1.00274 0.70572 0.71189 0.0
O233 O 0.94238 0.65132 0.60942 0.0
H234 H 0.1397 0.31407 0.15473 0.0
H235 H 0.14569 0.33744 0.03804 0.0
H236 H 0.1058 0.35897 0.12106 0.0
H237 H 0.15107 0.29214 0.10207 0.0
H238 H 0.15665 0.30445 0.05489 0.0
H239 H 0.18355 0.32219 0.15599 0.0
H240 H 0.26353 0.36965 0.11921 0.0
H241 H 0.20062 0.33613 0.03619 0.0
C242 C 0.13635 0.32465 0.13307 0.0
C243 C 0.12251 0.3373 0.14244 0.0
C244 C 0.14545 0.32523 0.09567 0.0
C245 C 0.13972 0.33784 0.06726 0.0
C246 C 0.12563 0.35032 0.07644 0.0
C247 C 0.11763 0.35035 0.11417 0.0
C248 C 0.15957 0.31076 0.0857 0.0
C249 C 0.18865 0.32815 0.09514 0.0
C250 C 0.19754 0.33179 0.13327 0.0
C251 C 0.22456 0.34731 0.14205 0.0
C252 C 0.24263 0.35895 0.11251 0.0
C253 C 0.23429 0.35477 0.07428 0.0
C254 C 0.2072 0.33963 0.06572 0.0
H255 H 0.71717 0.84743 0.13494 0.0
H256 H 0.68304 0.81291 0.02373 0.0
H257 H 0.67978 0.76283 0.11232 0.0
H258 H 0.72811 0.87568 0.07592 0.0
H259 H 0.7086 0.86107 0.03343 0.0
H260 H 0.6995 0.87132 0.13927 0.0
H261 H 0.64897 0.90051 0.11746 0.0
H262 H 0.67908 0.8759 0.02339 0.0
C263 C 0.70576 0.83016 0.11588 0.0
C264 C 0.69805 0.80471 0.12862 0.0
C265 C 0.69943 0.83332 0.07854 0.0
C266 C 0.68697 0.81073 0.05305 0.0
C267 C 0.68082 0.78555 0.06508 0.0
C268 C 0.68564 0.78261 0.10295 0.0
C269 C 0.70784 0.86097 0.06517 0.0
C270 C 0.68996 0.87048 0.07965 0.0
C271 C 0.6884 0.87499 0.11909 0.0
C272 C 0.67326 0.88524 0.13301 0.0
C273 C 0.6597 0.89133 0.10709 0.0
C274 C 0.66189 0.88824 0.06769 0.0
C275 C 0.67693 0.8777 0.05392 0.0
H276 H 0.16342 0.80102 0.14608 0.0
H277 H 0.16283 0.78944 0.024 0.0
H278 H 0.09068 0.76436 0.083 0.0
H279 H 0.20018 0.80017 0.10892 0.0
H280 H 0.20225 0.80424 0.05867 0.0
H281 H 0.20609 0.83765 0.15371 0.0
H282 H 0.26041 0.91627 0.11415 0.0
H283 H 0.22535 0.84858 0.03435 0.0
C284 C 0.15303 0.7958 0.11898 0.0
C285 C 0.12544 0.78283 0.11858 0.0
C286 C 0.16692 0.79947 0.08465 0.0
C287 C 0.15272 0.78916 0.05002 0.0
C288 C 0.12518 0.77632 0.04948 0.0
C289 C 0.11203 0.77492 0.0834 0.0
C290 C 0.19607 0.80989 0.08567 0.0
C291 C 0.21256 0.83993 0.09285 0.0
C292 C 0.21575 0.85082 0.1303 0.0
C293 C 0.23305 0.87834 0.1381 0.0
C294 C 0.24662 0.89509 0.10791 0.0
C295 C 0.24438 0.88464 0.07049 0.0
C296 C 0.22695 0.85698 0.063 0.0
H297 H 0.38104 0.21595 0.85723 0.0
H298 H 0.39054 0.23748 0.97747 0.0
H299 H 0.34866 0.26037 0.90505 0.0
H300 H 0.41727 0.21804 0.90023 0.0
H301 H 0.41303 0.21735 0.9507 0.0
H302 H 0.38216 0.17905 0.85807 0.0
H303 H 0.34782 0.10248 0.90852 0.0
H304 H 0.39038 0.17451 0.97895 0.0
C305 C 0.37636 0.22401 0.88215 0.0
C306 C 0.36285 0.23729 0.87725 0.0
C307 C 0.38556 0.223 0.91855 0.0
C308 C 0.38208 0.23662 0.94986 0.0
C309 C 0.36905 0.25049 0.94507 0.0
C310 C 0.35853 0.24956 0.90909 0.0
C311 C 0.40213 0.21068 0.92296 0.0
C312 C 0.38588 0.18033 0.91946 0.0
C313 C 0.37692 0.16735 0.88332 0.0
C314 C 0.36311 0.13929 0.8791 0.0
C315 C 0.35805 0.12417 0.91156 0.0
C316 C 0.36835 0.13668 0.94735 0.0
C317 C 0.38196 0.16479 0.95142 0.0
H318 H 0.872 0.17367 0.87977 0.0
H319 H 0.87621 0.20733 0.9931 0.0
H320 H 0.91843 0.25852 0.90081 0.0
H321 H 0.85943 0.14617 0.94129 0.0
H322 H 0.85296 0.15951 0.98368 0.0
H323 H 0.83186 0.14241 0.87903 0.0
H324 H 0.75043 0.10658 0.90391 0.0
H325 H 0.80761 0.14179 -0.00456 0.0
C326 C 0.87778 0.19071 0.89901 0.0
C327 C 0.8946 0.21639 0.88535 0.0
C328 C 0.86975 0.18711 0.93746 0.0
C329 C 0.88077 0.20975 0.96296 0.0
C330 C 0.89892 0.23535 0.94973 0.0
C331 C 0.90493 0.23856 0.91091 0.0
C332 C 0.85199 0.15904 0.95195 0.0
C333 C 0.82355 0.14591 0.93854 0.0
C334 C 0.81694 0.13869 0.89966 0.0
C335 C 0.79076 0.1255 0.88696 0.0
C336 C 0.77077 0.11839 0.91362 0.0
C337 C 0.77652 0.12363 0.95286 0.0
C338 C 0.80304 0.1379 0.96516 0.0
H339 H 0.84332 0.63524 0.83655 0.0
H340 H 0.85282 0.62889 0.95652 0.0
H341 H 0.92061 0.67285 0.8857 0.0
H342 H 0.80763 0.59777 0.878 0.0
H343 H 0.80992 0.60303 0.92861 0.0
H344 H 0.8038 0.63047 0.83658 0.0
H345 H 0.75949 0.66169 0.88807 0.0
H346 H 0.79112 0.62664 0.95807 0.0
C347 C 0.85574 0.6411 0.86172 0.0
C348 C 0.88316 0.65643 0.85749 0.0
C349 C 0.84447 0.63204 0.8977 0.0
C350 C 0.86117 0.63739 0.92924 0.0
C351 C 0.88867 0.65217 0.92504 0.0
C352 C 0.89945 0.66253 0.88946 0.0
C353 C 0.81494 0.61359 0.90123 0.0
C354 C 0.80062 0.62838 0.89799 0.0
C355 C 0.79656 0.63547 0.86194 0.0
C356 C 0.78222 0.64802 0.85816 0.0
C357 C 0.7718 0.65334 0.89089 0.0
C358 C 0.77468 0.64543 0.92677 0.0
C359 C 0.78933 0.63321 0.9304 0.0
H360 H 0.81163 0.64941 0.47315 0.0
H361 H 0.80785 0.66916 0.35684 0.0
H362 H 0.7745 0.69265 0.44786 0.0
H363 H 0.81362 0.62274 0.41193 0.0
H364 H 0.8235 0.6401 0.36846 0.0
H365 H 0.84398 0.63931 0.46869 0.0
H366 H 0.92638 0.68698 0.44383 0.0
H367 H 0.86939 0.67405 0.35846 0.0
C368 C 0.80676 0.65947 0.45263 0.0
C369 C 0.79294 0.67162 0.46484 0.0
C370 C 0.81268 0.65882 0.41367 0.0
C371 C 0.80435 0.6704 0.38705 0.0
C372 C 0.79082 0.68294 0.39939 0.0
C373 C 0.78559 0.68368 0.43827 0.0
C374 C 0.82497 0.6431 0.40009 0.0
C375 C 0.85343 0.65632 0.41283 0.0
C376 C 0.85963 0.6521 0.44956 0.0
C377 C 0.88594 0.66308 0.4609 0.0
C378 C 0.90604 0.67865 0.43534 0.0
C379 C 0.90034 0.68248 0.39831 0.0
C380 C 0.87395 0.67145 0.38721 0.0
H381 H 0.35524 0.159 0.48585 0.0
H382 H 0.33621 0.13565 0.3667 0.0
H383 H 0.30909 0.0758 0.45123 0.0
H384 H 0.37885 0.19143 0.4328 0.0
H385 H 0.36636 0.18224 0.3849 0.0
H386 H 0.34543 0.19064 0.48472 0.0
H387 H 0.30714 0.22978 0.44586 0.0
H388 H 0.34261 0.20183 0.36435 0.0
C389 C 0.34478 0.1437 0.46359 0.0
C390 C 0.33082 0.11665 0.47314 0.0
C391 C 0.34559 0.1509 0.42541 0.0
C392 C 0.33417 0.13051 0.39644 0.0
C393 C 0.32111 0.10344 0.40587 0.0
C394 C 0.31867 0.09675 0.44418 0.0
C395 C 0.36043 0.18018 0.41539 0.0
C396 C 0.34437 0.19297 0.42332 0.0
C397 C 0.33854 0.19677 0.4612 0.0
C398 C 0.32448 0.20933 0.46923 0.0
C399 C 0.31668 0.21871 0.43924 0.0
C400 C 0.32347 0.21656 0.40141 0.0
C401 C 0.33707 0.20333 0.39346 0.0
H402 H 0.83509 0.1298 0.4803 0.0
H403 H 0.81742 0.11639 0.35983 0.0
H404 H 0.75501 0.08209 0.44152 0.0
H405 H 0.86932 0.13749 0.42942 0.0
H406 H 0.86227 0.1391 0.38059 0.0
H407 H 0.86213 0.17206 0.47674 0.0
H408 H 0.91279 0.25126 0.43774 0.0
H409 H 0.88857 0.18362 0.36024 0.0
C410 C 0.82095 0.12253 0.45708 0.0
C411 C 0.79399 0.10726 0.46547 0.0
C412 C 0.82966 0.12764 0.41904 0.0
C413 C 0.81098 0.11465 0.38919 0.0
C414 C 0.78409 0.09804 0.39739 0.0
C415 C 0.77573 0.09545 0.43533 0.0
C416 C 0.85892 0.14378 0.41041 0.0
C417 C 0.87154 0.17393 0.4167 0.0
C418 C 0.87188 0.1849 0.45331 0.0
C419 C 0.88644 0.21267 0.46105 0.0
C420 C 0.9004 0.22983 0.43152 0.0
C421 C 0.90136 0.2195 0.39526 0.0
C422 C 0.88689 0.19157 0.38783 0.0
H423 H 0.04597 0.54875 0.1854 0.0
H424 H 0.04181 0.56684 0.30463 0.0
H425 H 0.01123 0.59406 0.21927 0.0
H426 H 0.0752 0.54721 0.23736 0.0
H427 H 0.06634 0.54673 0.28623 0.0
H428 H 0.03912 0.50892 0.19128 0.0
H429 H 1.00408 0.4321 0.2408 0.0
H430 H 0.04483 0.50369 0.31249 0.0
C431 C 0.03894 0.55646 0.20786 0.0
C432 C 0.02653 0.57012 0.19787 0.0
C433 C 0.04332 0.55383 0.24645 0.0
C434 C 0.03679 0.56689 0.27502 0.0
C435 C 0.02517 0.58136 0.26515 0.0
C436 C 0.01926 0.582 0.22683 0.0
C437 C 0.05811 0.54036 0.25672 0.0
C438 C 0.0413 0.50996 0.25284 0.0
C439 C 0.03323 0.49714 0.21642 0.0
C440 C 0.01975 0.4691 0.21178 0.0
C441 C 0.014 0.45375 0.24416 0.0
C442 C 0.02351 0.46604 0.2803 0.0
C443 C 0.03685 0.49415 0.28471 0.0
H444 H 0.53613 0.52689 0.19868 0.0
H445 H 0.54519 0.55206 0.31769 0.0
H446 H 0.57793 0.61021 0.23024 0.0
H447 H 0.53109 0.49654 0.25549 0.0
H448 H 0.52461 0.50543 0.3017 0.0
H449 H 0.49901 0.48992 0.19928 0.0
H450 H 0.41846 0.44584 0.2329 0.0
H451 H 0.47929 0.48378 0.31886 0.0
C452 C 0.54186 0.54235 0.22076 0.0
C453 C 0.55573 0.56914 0.21022 0.0
C454 C 0.53642 0.53577 0.25943 0.0
C455 C 0.54748 0.55673 0.28774 0.0
C456 C 0.56268 0.5837 0.27737 0.0
C457 C 0.56567 0.58957 0.23858 0.0
C458 C 0.52199 0.50664 0.27061 0.0
C459 C 0.49284 0.4911 0.26025 0.0
C460 C 0.48473 0.48434 0.22168 0.0
C461 C 0.45801 0.46842 0.21169 0.0
C462 C 0.43917 0.4587 0.24046 0.0
C463 C 0.44668 0.46378 0.27894 0.0
C464 C 0.47349 0.48033 0.28899 0.0
H465 H 0.50852 0.97151 0.1864 0.0
H466 H 0.51144 0.95521 0.30441 0.0
H467 H 0.58303 1.00207 0.24234 0.0
H468 H 0.47039 0.93034 0.22182 0.0
H469 H 0.46993 0.9333 0.27259 0.0
H470 H 0.46566 0.96143 0.1811 0.0
H471 H 0.4259 0.9978 0.23229 0.0
H472 H 0.4558 0.9614 0.30312 0.0
C473 C 0.5197 0.97458 0.21221 0.0
C474 C 0.54732 0.98915 0.2108 0.0
C475 C 0.50651 0.96294 0.2462 0.0
C476 C 0.52135 0.96541 0.27872 0.0
C477 C 0.54898 0.97975 0.27752 0.0
C478 C 0.56176 0.99218 0.24385 0.0
C479 C 0.47681 0.94514 0.24633 0.0
C480 C 0.46371 0.96106 0.24274 0.0
C481 C 0.45951 0.96773 0.20647 0.0
C482 C 0.44636 0.98148 0.20263 0.0
C483 C 0.43742 0.98858 0.23537 0.0
C484 C 0.44035 0.98105 0.27156 0.0
C485 C 0.4539 0.96765 0.27526 0.0
H486 H 0.47338 0.97675 0.81303 0.0
H487 H 0.46986 0.99295 0.69503 0.0
H488 H 0.43634 0.01918 0.78194 0.0
H489 H 0.47533 0.94817 0.7551 0.0
H490 H 0.48448 0.96347 0.70999 0.0
H491 H 0.50654 0.96947 0.81207 0.0
H492 H 0.58841 0.01375 0.78389 0.0
H493 H 0.5304 0.99447 0.69674 0.0
C494 C 0.46834 0.98605 0.79153 0.0
C495 C 0.45517 0.9992 0.80245 0.0
C496 C 0.47431 0.98415 0.75295 0.0
C497 C 0.46634 0.99515 0.72497 0.0
C498 C 0.45304 0.00823 0.73555 0.0
C499 C 0.44783 0.01032 0.77419 0.0
C500 C 0.48645 0.96789 0.74136 0.0
C501 C 0.5151 0.98161 0.75344 0.0
C502 C 0.52181 0.98041 0.79146 0.0
C503 C 0.54823 0.99205 0.80256 0.0
C504 C 0.56797 0.00497 0.77546 0.0
C505 C 0.56178 0.00576 0.73731 0.0
C506 C 0.53529 0.99418 0.72633 0.0
H507 H 0.03021 0.49101 0.80832 0.0
H508 H 0.01151 0.46422 0.69013 0.0
H509 H 0.9842 0.40712 0.77889 0.0
H510 H 0.05564 0.52102 0.75187 0.0
H511 H 0.04125 0.51103 0.70511 0.0
H512 H 0.03032 0.52873 0.80545 0.0
H513 H 0.98593 0.56202 0.76847 0.0
H514 H 0.01229 0.52542 0.68572 0.0
C515 C 0.01998 0.47511 0.78678 0.0
C516 C 1.00577 0.44846 0.79803 0.0
C517 C 0.02124 0.48111 0.74795 0.0
C518 C 0.00961 0.45991 0.7202 0.0
C519 C 0.99623 0.43312 0.73121 0.0
C520 C 0.99383 0.42772 0.77017 0.0
C521 C 0.03653 0.50996 0.73604 0.0
C522 C 0.02166 0.52388 0.74481 0.0
C523 C 0.02026 0.53187 0.78273 0.0
C524 C 0.00723 0.54541 0.79133 0.0
C525 C 0.99553 0.55102 0.76181 0.0
C526 C 0.9975 0.54425 0.72367 0.0
C527 C 0.01043 0.53044 0.7152 0.0
H528 H 0.51194 0.47135 0.82206 0.0
H529 H 0.49853 0.44939 0.70204 0.0
H530 H 0.43365 0.41753 0.77986 0.0
H531 H 0.54795 0.47493 0.77582 0.0
H532 H 0.54268 0.4746 0.72575 0.0
H533 H 0.54698 0.51104 0.81912 0.0
H534 H 0.58403 0.58778 0.76885 0.0
H535 H 0.56045 0.51709 0.69824 0.0
C536 C 0.49865 0.46153 0.79807 0.0
C537 C 0.47155 0.4456 0.80491 0.0
C538 C 0.50859 0.46399 0.76081 0.0
C539 C 0.49103 0.44889 0.73051 0.0
C540 C 0.46393 0.43209 0.73725 0.0
C541 C 0.45439 0.43124 0.77426 0.0
C542 C 0.53803 0.48013 0.75418 0.0
C543 C 0.54948 0.51012 0.75768 0.0
C544 C 0.55236 0.52269 0.79385 0.0
C545 C 0.56451 0.55063 0.79816 0.0
C546 C 0.57388 0.5661 0.76569 0.0
C547 C 0.57322 0.55428 0.72988 0.0
C548 C 0.56048 0.5262 0.72575 0.0
H549 H 0.70669 0.88627 0.53317 0.0
H550 H 0.71119 0.89588 0.65593 0.0
H551 H 0.67149 0.92502 0.5912 0.0
H552 H 0.74018 0.88316 0.57347 0.0
H553 H 0.73585 0.87972 0.62377 0.0
H554 H 0.70255 0.84602 0.52918 0.0
H555 H 0.67508 0.76732 0.56819 0.0
H556 H 0.71585 0.83551 0.64606 0.0
C557 C 0.70064 0.89149 0.5596 0.0
C558 C 0.68744 0.90536 0.55819 0.0
C559 C 0.70818 0.88668 0.59497 0.0
C560 C 0.70338 0.89716 0.62887 0.0
C561 C 0.69013 0.911 0.62746 0.0
C562 C 0.68108 0.91368 0.59232 0.0
C563 C 0.725 0.87441 0.59606 0.0
C564 C 0.70916 0.84423 0.58925 0.0
C565 C 0.69932 0.83309 0.55245 0.0
C566 C 0.68662 0.80534 0.54482 0.0
C567 C 0.6836 0.7886 0.57439 0.0
C568 C 0.69435 0.79935 0.61071 0.0
C569 C 0.70689 0.82714 0.61825 0.0
H570 H 0.20215 0.85249 0.53923 0.0
H571 H 0.20268 0.87448 0.6581 0.0
H572 H 0.23512 0.93478 0.57387 0.0
H573 H 0.19397 0.82095 0.59388 0.0
H574 H 0.18641 0.8286 0.64028 0.0
H575 H 0.16205 0.81999 0.53716 0.0
H576 H 0.08199 0.7656 0.56618 0.0
H577 H 0.14115 0.79973 0.65477 0.0
C578 C 0.20519 0.86721 0.56136 0.0
C579 C 0.21736 0.89415 0.55181 0.0
C580 C 0.19776 0.85952 0.5993 0.0
C581 C 0.20592 0.87973 0.62838 0.0
C582 C 0.2197 0.90689 0.61913 0.0
C583 C 0.22406 0.91376 0.58083 0.0
C584 C 0.18413 0.83021 0.60921 0.0
C585 C 0.15512 0.81398 0.5979 0.0
C586 C 0.14757 0.81068 0.55909 0.0
C587 C 0.12132 0.79349 0.54764 0.0
C588 C 0.10233 0.77927 0.57506 0.0
C589 C 0.10934 0.78104 0.61347 0.0
C590 C 0.13566 0.79882 0.62514 0.0
H591 H 0.17678 0.30454 0.51327 0.0
H592 H 0.17882 0.29254 0.63317 0.0
H593 H 0.25091 0.3375 0.57169 0.0
H594 H 0.13774 0.26752 0.54912 0.0
H595 H 0.13762 0.26968 0.59997 0.0
H596 H 0.13961 0.30517 0.51149 0.0
H597 H 0.09225 0.33321 0.56172 0.0
H598 H 0.11834 0.29236 0.62999 0.0
C599 C 0.18785 0.30907 0.53959 0.0
C600 C 0.21549 0.323 0.53836 0.0
C601 C 0.1744 0.29902 0.57404 0.0
C602 C 0.18894 0.30194 0.60717 0.0
C603 C 0.21653 0.31566 0.60617 0.0
C604 C 0.22959 0.32713 0.57227 0.0
C605 C 0.14463 0.28195 0.57413 0.0
C606 C 0.13208 0.29852 0.57167 0.0
C607 C 0.13083 0.30858 0.53647 0.0
C608 C 0.11678 0.32146 0.53264 0.0
C609 C 0.10449 0.3248 0.56479 0.0
C610 C 0.10483 0.31425 0.59977 0.0
C611 C 0.11885 0.30133 0.60329 0.0
C612 C 0.01863 0.42473 0.12961 0.0
C613 C 0.01123 0.43386 0.09857 0.0
H614 H 0.02761 0.42896 0.18905 0.0
C615 C 1.00528 0.45387 0.10522 0.0
H616 H 0.02346 0.40942 0.12558 0.0
C617 C 0.00729 0.46492 0.14213 0.0
C618 C 0.01528 0.45613 0.173 0.0
H619 H 0.99946 0.46129 0.08188 0.0
H620 H 1.00285 0.48049 0.14645 0.0
C621 C 0.02076 0.43579 0.16624 0.0
C622 C 0.58758 0.57799 0.1138 0.0
C623 C 0.58467 0.59824 0.09904 0.0
H624 H 0.58016 0.55246 0.16058 0.0
C625 C 0.56939 0.60636 0.11912 0.0
H626 H 0.59906 0.57115 0.09883 0.0
C627 C 0.55868 0.59571 0.1544 0.0
C628 C 0.56273 0.57648 0.17002 0.0
H629 H 0.56666 0.62182 0.10845 0.0
H630 H 0.54803 0.60321 0.1702 0.0
C631 C 0.57658 0.5671 0.14894 0.0
C632 C 0.41353 0.96532 0.10561 0.0
C633 C 0.41534 0.98953 0.09772 0.0
H634 H 0.4224 0.944 0.14479 0.0
C635 C 0.42987 0.01194 0.12272 0.0
H636 H 0.40266 0.94776 0.08671 0.0
C637 C 0.44115 0.00974 0.15602 0.0
C638 C 0.43843 0.98522 0.16462 0.0
H639 H 0.4317 0.0309 0.11732 0.0
H640 H 0.45138 0.02699 0.17565 0.0
C641 C 0.42508 0.96323 0.13863 0.0
C642 C 0.43572 0.02133 0.8934 0.0
C643 C 0.42519 0.99835 0.91513 0.0
H644 H 0.4546 0.04013 0.84177 0.0
C645 C 0.42662 0.97642 0.90104 0.0
H646 H 0.43532 0.03874 0.90383 0.0
C647 C 0.43721 0.97697 0.86502 0.0
C648 C 0.44695 0.99965 0.84263 0.0
H649 H 0.41867 0.95843 0.91722 0.0
H650 H 0.43674 0.9592 0.85417 0.0
C651 C 0.44672 0.02209 0.85779 0.0
C652 C 0.97968 0.41273 0.89025 0.0
C653 C 1.00308 0.42072 0.91032 0.0
H654 H 0.96229 0.41557 0.83894 0.0
C655 C 0.02727 0.44036 0.89498 0.0
H656 H 0.96071 0.39778 0.90134 0.0
C657 C 0.02809 0.45079 0.85939 0.0
C658 C 1.00477 0.44154 0.83843 0.0
H659 H 0.04563 0.44708 0.9099 0.0
H660 H 0.04702 0.46498 0.84737 0.0
C661 C 0.98054 0.42292 0.85457 0.0
C662 C 0.60398 0.59761 0.88117 0.0
C663 C 0.58671 0.58611 0.91185 0.0
H664 H 0.61076 0.59523 0.82179 0.0
C665 C 0.56118 0.56391 0.90451 0.0
H666 H 0.6238 0.6147 0.88574 0.0
C667 C 0.55348 0.55288 0.86734 0.0
C668 C 0.57117 0.56386 0.8369 0.0
H669 H 0.54739 0.55466 0.92755 0.0
H670 H 0.53386 0.53549 0.86253 0.0
C671 C 0.59637 0.58656 0.84426 0.0
C672 C 0.99833 0.54848 0.8984 0.0
C673 C 1.00419 0.57494 0.90415 0.0
H674 H 0.99481 0.5183 0.85786 0.0
C675 C 0.01233 0.59178 0.87295 0.0
H676 H 0.99215 0.53507 0.92194 0.0
C677 C 0.01385 0.58224 0.83667 0.0
C678 C 0.00728 0.55562 0.83062 0.0
H679 H 0.01725 0.61235 0.87636 0.0
H680 H 0.02003 0.59569 0.81317 0.0
C681 C 0.99996 0.53891 0.86187 0.0
C682 C 0.42542 0.433 0.88748 0.0
C683 C 0.43707 0.42664 0.91646 0.0
H684 H 0.42753 0.44456 0.82973 0.0
C685 C 0.46148 0.42912 0.90961 0.0
H686 H 0.40675 0.43153 0.89193 0.0
C687 C 0.47333 0.43649 0.87389 0.0
C688 C 0.46103 0.44158 0.84432 0.0
H689 H 0.47102 0.42445 0.93137 0.0
H690 H 0.49149 0.43696 0.86893 0.0
C691 C 0.43729 0.4404 0.85182 0.0
C692 C 0.58435 0.98452 0.88413 0.0
C693 C 0.57563 0.99303 0.91583 0.0
H694 H 0.58205 0.977 0.82371 0.0
C695 C 0.55584 0.99882 0.91044 0.0
H696 H 0.5993 0.97957 0.88727 0.0
C697 C 0.54593 0.99735 0.87378 0.0
C698 C 0.55574 0.99017 0.84196 0.0
H699 H 0.54859 0.00528 0.93434 0.0
H700 H 0.53147 1.00291 0.87012 0.0
C701 C 0.5745 0.98309 0.84767 0.0
C702 C 0.59973 0.02985 0.13836 0.0
C703 C 0.59218 0.01114 0.10749 0.0
H704 H 0.59123 0.03762 0.19533 0.0
C705 C 0.56838 0.98625 0.10951 0.0
H706 H 0.61791 0.04924 0.13762 0.0
C707 C 0.55303 0.97975 0.14233 0.0
C708 C 0.56125 0.99791 0.17395 0.0
H709 H 0.56191 0.97147 0.0861 0.0
H710 H 0.53539 0.95997 0.14365 0.0
C711 C 0.58449 0.02323 0.17137 0.0
C712 C 0.04403 0.5925 0.09619 0.0
C713 C 0.02168 0.59265 0.08449 0.0
H714 H 0.06312 0.58527 0.14129 0.0
C715 C 0.99986 0.58248 0.10879 0.0
H716 H 0.06113 0.60009 0.07807 0.0
C717 C 1.00091 0.57372 0.14483 0.0
C718 C 0.02381 0.57499 0.15741 0.0
H719 H 0.98222 0.58203 0.10048 0.0
H720 H 0.98407 0.56673 0.16339 0.0
C721 C 0.0451 0.58378 0.13231 0.0
C722 C 0.42181 0.42415 0.12524 0.0
C723 C 0.42969 0.44282 0.09641 0.0
H724 H 0.42486 0.41767 0.184 0.0
C725 C 0.44837 0.47001 0.10524 0.0
H726 H 0.40767 0.40301 0.11942 0.0
C727 C 0.45831 0.4784 0.14254 0.0
C728 C 0.44951 0.45975 0.17151 0.0
H729 H 0.45493 0.48485 0.08358 0.0
H730 H 0.4722 0.49952 0.14901 0.0
C731 C 0.43157 0.43252 0.16232 0.0
C732 C 0.69583 0.7917 0.44158 0.0
C733 C 0.67249 0.76691 0.4337 0.0
H734 H 0.71837 0.82351 0.4829 0.0
C735 C 0.6524 0.75663 0.461 0.0
H736 H 0.71158 0.80024 0.42098 0.0
C737 C 0.65633 0.76997 0.49653 0.0
C738 C 0.68026 0.79399 0.50515 0.0
H739 H 0.63416 0.73763 0.45572 0.0
H740 H 0.64108 0.761 0.51783 0.0
C741 C 0.69962 0.80517 0.4769 0.0
C742 C 0.23149 0.93211 0.46124 0.0
C743 C 0.24821 0.92549 0.44206 0.0
H744 H 0.20843 0.9271 0.51105 0.0
C745 C 0.2525 0.90632 0.45747 0.0
H746 H 0.22767 0.9467 0.45006 0.0
C747 C 0.24123 0.8949 0.49223 0.0
C748 C 0.22568 0.90265 0.5123 0.0
H749 H 0.26515 0.90067 0.44322 0.0
H750 H 0.24573 0.88104 0.5043 0.0
C751 C 0.22046 0.92091 0.49612 0.0
C752 C 0.09855 0.35278 0.45585 0.0
C753 C 0.09015 0.33317 0.42609 0.0
H754 H 0.11455 0.36499 0.51256 0.0
C755 C 0.0938 0.3116 0.42992 0.0
H756 H 0.09633 0.36983 0.45356 0.0
C757 C 0.104 0.3087 0.46373 0.0
C758 C 0.11101 0.32745 0.49443 0.0
H759 H 0.08769 0.29621 0.40743 0.0
H760 H 0.10491 0.29089 0.46651 0.0
C761 C 0.10898 0.35 0.48963 0.0
C762 C 0.07938 0.30742 0.22851 0.0
C763 C 0.08122 0.33022 0.24642 0.0
H764 H 0.09154 0.2919 0.18168 0.0
C765 C 0.09888 0.3556 0.232 0.0
H766 H 0.06614 0.28762 0.23915 0.0
C767 C 0.1134 0.35799 0.19932 0.0
C768 C 0.11076 0.33512 0.18054 0.0
H769 H 0.10095 0.37359 0.24528 0.0
H770 H 0.12616 0.37769 0.18801 0.0
C771 C 0.09412 0.30987 0.19591 0.0
C772 C 0.7099 0.77511 0.21416 0.0
C773 C 0.70067 0.78451 0.24411 0.0
H774 H 0.71705 0.77479 0.15428 0.0
C775 C 0.69378 0.80342 0.23644 0.0
H776 H 0.71576 0.76087 0.21917 0.0
C777 C 0.69449 0.81137 0.19906 0.0
C778 C 0.70209 0.80054 0.16882 0.0
H779 H 0.68676 0.81118 0.25896 0.0
H780 H 0.68772 0.82481 0.19356 0.0
C781 C 0.71065 0.78308 0.17696 0.0
C782 C 0.22677 0.89308 0.24308 0.0
C783 C 0.2533 0.91126 0.25334 0.0
H784 H 0.19941 0.86844 0.19825 0.0
C785 C 0.27281 0.91809 0.22566 0.0
H786 H 0.2113 0.88737 0.26384 0.0
C787 C 0.26606 0.90721 0.18861 0.0
C788 C 0.23959 0.88937 0.17799 0.0
H789 H 0.29347 0.93178 0.23258 0.0
H790 H 0.28174 0.91259 0.1683 0.0
C791 C 0.21997 0.88218 0.20566 0.0
C792 C 0.69834 0.9159 0.23214 0.0
C793 C 0.67547 0.91269 0.24903 0.0
H794 H 0.71564 0.90996 0.18197 0.0
C795 C 0.6514 0.89788 0.22897 0.0
H796 H 0.71717 0.92717 0.24692 0.0
C797 C 0.65046 0.88774 0.19197 0.0
C798 C 0.67358 0.8923 0.17418 0.0
H799 H 0.63335 0.89475 0.2414 0.0
H800 H 0.63174 0.87697 0.17685 0.0
C801 C 0.69743 0.90588 0.195 0.0
C802 C 0.10172 0.77765 0.22124 0.0
C803 C 0.08025 0.7509 0.2208 0.0
H804 H 0.133 0.80898 0.18903 0.0
C805 C 0.07393 0.73523 0.18681 0.0
H806 H 0.10716 0.79018 0.24714 0.0
C807 C 0.08866 0.74582 0.1541 0.0
C808 C 0.11001 0.77256 0.15412 0.0
H809 H 0.05775 0.7145 0.18544 0.0
H810 H 0.08353 0.73273 0.12882 0.0
C811 C 0.11656 0.78838 0.18812 0.0
C812 C 0.24247 0.3279 0.23305 0.0
C813 C 0.26273 0.35302 0.24786 0.0
H814 H 0.21395 0.30647 0.18814 0.0
C815 C 0.26784 0.37634 0.23011 0.0
H816 H 0.23788 0.30956 0.24628 0.0
C817 C 0.25415 0.37451 0.19695 0.0
C818 C 0.23483 0.34937 0.18112 0.0
H819 H 0.28317 0.396 0.24091 0.0
H820 H 0.25936 0.39273 0.18277 0.0
C821 C 0.22855 0.3261 0.20005 0.0
C822 C 0.23364 0.34422 0.43568 0.0
C823 C 0.2544 0.33985 0.42942 0.0
H824 H 0.20533 0.34287 0.47525 0.0
C825 C 0.26294 0.33115 0.45962 0.0
H826 H 0.22663 0.35096 0.41296 0.0
C827 C 0.25054 0.32614 0.49489 0.0
C828 C 0.2295 0.33009 0.50122 0.0
H829 H 0.27872 0.32735 0.45576 0.0
H830 H 0.25699 0.31828 0.5168 0.0
C831 C 0.22134 0.33944 0.47128 0.0
C832 C 0.68804 0.95222 0.48684 0.0
C833 C 0.6759 0.93514 0.45465 0.0
H834 H 0.70162 0.95625 0.54414 0.0
C835 C 0.66823 0.908 0.4561 0.0
H836 H 0.69447 0.97326 0.48664 0.0
C837 C 0.67232 0.89814 0.48944 0.0
C838 C 0.68392 0.91525 0.52182 0.0
H839 H 0.659 0.89439 0.43159 0.0
H840 H 0.66598 0.87715 0.4902 0.0
C841 C 0.69206 0.94243 0.5199 0.0
C842 C 0.08985 0.75541 0.45506 0.0
C843 C 0.09634 0.77614 0.43008 0.0
H844 H 0.09291 0.74478 0.51147 0.0
C845 C 0.11248 0.80295 0.44351 0.0
H846 H 0.07767 0.73453 0.44566 0.0
C847 C 0.12128 0.80881 0.48159 0.0
C848 C 0.11383 0.78794 0.50672 0.0
H849 H 0.11792 0.81935 0.42487 0.0
H850 H 0.13324 0.82956 0.49166 0.0
C851 C 0.09846 0.76124 0.49288 0.0
C852 C 0.34342 0.12205 0.77418 0.0
C853 C 0.34844 0.10144 0.76674 0.0
H854 H 0.34378 0.15006 0.81584 0.0
C855 C 0.35752 0.09303 0.79663 0.0
H856 H 0.3364 0.12897 0.7517 0.0
C857 C 0.36191 0.10515 0.83294 0.0
C858 C 0.35709 0.12586 0.84054 0.0
H859 H 0.36177 0.07734 0.79193 0.0
H860 H 0.36979 0.09869 0.85484 0.0
C861 C 0.34773 0.13418 0.8108 0.0
C862 C 0.93522 0.24481 0.79685 0.0
C863 C 0.91581 0.23384 0.76792 0.0
H864 H 0.94375 0.24744 0.85649 0.0
C865 C 0.8896 0.21498 0.77749 0.0
H866 H 0.95565 0.25913 0.79045 0.0
C867 C 0.8828 0.20828 0.81557 0.0
C868 C 0.90207 0.22042 0.84462 0.0
H869 H 0.87422 0.20607 0.75582 0.0
H870 H 0.86232 0.19454 0.8225 0.0
C871 C 0.92842 0.23818 0.83473 0.0
C872 C 0.76495 0.67901 0.77972 0.0
C873 C 0.7548 0.65841 0.75119 0.0
H874 H 0.78217 0.69212 0.83566 0.0
C875 C 0.75618 0.63559 0.75666 0.0
H876 H 0.7644 0.69696 0.77624 0.0
C877 C 0.7663 0.63281 0.7907 0.0
C878 C 0.7753 0.65282 0.81999 0.0
H879 H 0.74864 0.6194 0.73518 0.0
H880 H 0.76588 0.61439 0.79475 0.0
C881 C 0.7751 0.67623 0.81376 0.0
C882 C 0.74861 0.66246 0.54749 0.0
C883 C 0.76667 0.6749 0.57796 0.0
H884 H 0.74291 0.65131 0.48799 0.0
C885 C 0.79332 0.68366 0.57179 0.0
H886 H 0.7279 0.65515 0.55128 0.0
C887 C 0.80189 0.68126 0.53529 0.0
C888 C 0.78393 0.6702 0.50458 0.0
H889 H 0.80767 0.69312 0.59481 0.0
H890 H 0.82265 0.68915 0.53068 0.0
C891 C 0.75716 0.66017 0.51124 0.0
C892 C 0.35411 0.10496 0.56595 0.0
C893 C 0.33017 0.08511 0.58161 0.0
H894 H 0.37301 0.13104 0.51939 0.0
C895 C 0.30642 0.07806 0.56335 0.0
H896 H 0.37272 0.11097 0.57953 0.0
C897 C 0.30664 0.08947 0.52904 0.0
C898 C 0.33058 0.10844 0.51257 0.0
H899 H 0.28764 0.06294 0.57473 0.0
H900 H 0.28811 0.08284 0.51465 0.0
C901 C 0.3543 0.11665 0.53179 0.0
C902 C 0.89993 0.25996 0.54642 0.0
C903 C 0.90849 0.24917 0.57372 0.0
H904 H 0.88593 0.25664 0.48914 0.0
C905 C 0.90663 0.22466 0.56509 0.0
H906 H 0.90104 0.27878 0.55228 0.0
C907 C 0.89792 0.21201 0.52914 0.0
C908 C 0.89093 0.22363 0.50098 0.0
H909 H 0.91291 0.21574 0.5856 0.0
H910 H 0.89814 0.19393 0.52275 0.0
C911 C 0.89136 0.24736 0.51027 0.0
C912 C 0.2928 0.2204 0.55598 0.0
C913 C 0.31478 0.23609 0.58008 0.0
H914 H 0.27872 0.19947 0.50172 0.0
C915 C 0.33934 0.24026 0.56916 0.0
H916 H 0.27361 0.21677 0.56366 0.0
C917 C 0.34214 0.23004 0.534 0.0
C918 C 0.32049 0.21574 0.50898 0.0
H919 H 0.35659 0.25211 0.58729 0.0
H920 H 0.36151 0.23454 0.52551 0.0
C921 C 0.29569 0.2105 0.52059 0.0
C922 C 0.78682 0.0859 0.56792 0.0
C923 C 0.76383 0.08526 0.57913 0.0
H924 H 0.81431 0.0932 0.52327 0.0
C925 C 0.75188 0.09364 0.55355 0.0
H926 H 0.79655 0.07961 0.58695 0.0
C927 C 0.7622 0.10161 0.51712 0.0
C928 C 0.7847 0.10143 0.50547 0.0
H929 H 0.73424 0.09354 0.56135 0.0
H930 H 0.75234 0.10759 0.4978 0.0
C931 C 0.79715 0.09389 0.5315 0.0
C932 C 0.88931 0.65612 0.56778 0.0
C933 C 0.91012 0.65155 0.57018 0.0
H934 H 0.86537 0.66354 0.53127 0.0
C935 C 0.92148 0.64892 0.53632 0.0
H936 H 0.88009 0.65817 0.59338 0.0
C937 C 0.91289 0.65169 0.50096 0.0
C938 C 0.89291 0.65747 0.49852 0.0
H939 H 0.93728 0.64502 0.53708 0.0
H940 H 0.92218 0.64963 0.47545 0.0
C941 C 0.88079 0.65908 0.53225 0.0
C942 C 0.92936 0.69209 0.776 0.0
C943 C 0.92293 0.67037 0.75052 0.0
H944 H 0.92173 0.70462 0.83048 0.0
C945 C 0.90171 0.64471 0.75885 0.0
H946 H 0.94568 0.71205 0.77024 0.0
C947 C 0.88774 0.64062 0.79264 0.0
C948 C 0.89501 0.66202 0.81909 0.0
H949 H 0.89622 0.62764 0.73955 0.0
H950 H 0.87209 0.62045 0.79897 0.0
C951 C 0.91571 0.68787 0.81033 0.0
C952 C 0.35315 0.27068 0.79439 0.0
C953 C 0.34105 0.24965 0.76669 0.0
H954 H 0.3703 0.28349 0.85 0.0
C955 C 0.33681 0.22441 0.77501 0.0
H956 H 0.35715 0.29051 0.78876 0.0
C957 C 0.3441 0.22024 0.81076 0.0
C958 C 0.35578 0.24127 0.83862 0.0
H959 H 0.32767 0.20786 0.75411 0.0
H960 H 0.34022 0.20052 0.81683 0.0
C961 C 0.36059 0.26661 0.82968 0.0
C962 C 0.75571 0.10826 0.79135 0.0
C963 C 0.76509 0.0933 0.77275 0.0
H964 H 0.75673 0.13041 0.84204 0.0
C965 C 0.78484 0.0912 0.79061 0.0
H966 H 0.7406 0.1104 0.7783 0.0
C967 C 0.7941 0.10275 0.82709 0.0
C968 C 0.78372 0.11652 0.84641 0.0
H969 H 0.79255 0.0799 0.77698 0.0
H970 H 0.80849 0.09982 0.84085 0.0
C971 C 0.76486 0.11966 0.82787 0.0
C972 C 0.08305 0.34865 -0.00302 0.0
C973 C 0.08245 0.37181 0.00668 0.0
H974 H 0.09788 0.3238 0.0115 0.0
C975 C 0.1008 0.39059 0.03361 0.0
H976 H 0.06933 0.33389 0.97611 0.0
C977 C 0.1173 0.38491 0.05348 0.0
C978 C 0.11573 0.36034 0.0469 0.0
H979 H 0.10117 0.40884 0.04128 0.0
H980 H 0.12976 0.39876 0.07622 0.0
C981 C 0.09957 0.34294 0.01701 0.0
C982 C 0.67708 0.72565 0.01773 0.0
C983 C 0.65005 0.70922 0.0094 0.0
H984 H 0.70813 0.76346 0.04076 0.0
C985 C 0.63407 0.72018 0.01283 0.0
H986 H 0.68995 0.71788 0.01484 0.0
C987 C 0.6446 0.74645 0.02774 0.0
C988 C 0.67123 0.76202 0.03871 0.0
H989 H 0.61316 0.70793 0.00653 0.0
H990 H 0.63162 0.75386 0.03326 0.0
C991 C 0.68757 0.75181 0.03212 0.0
C992 C 0.30155 0.91326 0.00244 0.0
C993 C 0.30991 0.9406 0.00483 0.0
H994 H 0.27392 0.87384 0.02145 0.0
C995 C 0.29348 0.94821 0.02245 0.0
H996 H 0.31375 0.90676 0.98888 0.0
C997 C 0.2704 0.92928 0.04036 0.0
C998 C 0.2635 0.90241 0.04165 0.0
H999 H 0.29916 0.96907 0.02413 0.0
H1000 H 0.2589 0.93604 0.05552 0.0
C1001 C 0.27859 0.89433 0.02086 0.0
C1002 C 0.34559 0.07648 0.00629 0.0
C1003 C 0.36939 0.07737 0.01086 0.0
H1004 H 0.32661 0.09526 0.98255 0.0
C1005 C 0.39316 0.10093 0.00205 0.0
H1006 H 0.32695 0.05865 0.0129 0.0
C1007 C 0.39293 0.12215 0.98564 0.0
C1008 C 0.36894 0.11997 0.97728 0.0
H1009 H 0.41182 0.1023 0.0056 0.0
H1010 H 0.41134 0.13911 0.97613 0.0
C1011 C 0.34535 0.09749 0.98921 0.0
C1012 C 0.95888 0.29446 -0.00573 0.0
C1013 C 0.94985 0.31173 0.00355 0.0
H1014 H 0.94913 0.25597 0.97118 0.0
C1015 C 0.92265 0.30165 0.00152 0.0
H1016 H 0.97966 0.30154 -0.00404 0.0
C1017 C 0.90513 0.27543 0.98723 0.0
C1018 C 0.9146 0.25892 0.97561 0.0
H1019 H 0.91515 0.31454 0.00851 0.0
H1020 H 0.8846 0.26872 0.98283 0.0
C1021 C 0.9414 0.26829 0.98058 0.0
C1022 C 0.71598 0.62291 0.9892 0.0
C1023 C 0.7181 0.64748 -0.0014 0.0
H1024 H 0.73321 0.60317 0.95987 0.0
C1025 C 0.7417 0.67151 0.99074 0.0
H1026 H 0.6981 0.60408 -0.00486 0.0
C1027 C 0.76162 0.67093 0.97028 0.0
C1028 C 0.75853 0.64635 0.95824 0.0
H1029 H 0.74395 0.69077 -0.00236 0.0
H1030 H 0.77861 0.68964 0.96152 0.0
C1031 C 0.73615 0.62236 0.96939 0.0
C1032 C 0.9229 0.6267 0.98255 0.0
C1033 C 0.94698 0.65052 0.99124 0.0
H1034 H 0.88496 0.60878 0.95579 0.0
C1035 C 0.94968 0.67527 0.98432 0.0
H1036 H 0.92026 0.60737 0.98783 0.0
C1037 C 0.92957 0.67606 0.96556 0.0
C1038 C 0.90625 0.65213 0.95435 0.0
H1039 H 0.96806 0.69394 0.99067 0.0
H1040 H 0.93286 0.69525 0.95763 0.0
C1041 C 0.90261 0.62752 0.96459 0.0
C1042 C 0.35331 0.29824 -0.0057 0.0
C1043 C 0.3785 0.31867 0.00691 0.0
H1044 H 0.33004 0.2594 0.96681 0.0
C1045 C 0.39893 0.31348 0.00717 0.0
H1046 H 0.33705 0.30147 -0.00544 0.0
C1047 C 0.39502 0.28952 0.99079 0.0
C1048 C 0.37053 0.27027 0.9743 0.0
H1049 H 0.41852 0.32879 0.01707 0.0
H1050 H 0.41183 0.28728 0.98782 0.0
C1051 C 0.34928 0.27411 0.97861 0.0
C1052 C 0.73123 0.07384 0.02403 0.0
C1053 C 0.70704 0.0706 0.01347 0.0
H1054 H 0.77262 0.0937 0.01319 0.0
C1055 C 0.70716 0.08922 0.98933 0.0
H1056 H 0.73186 0.05999 0.04286 0.0
C1057 C 0.73059 0.10883 0.97287 0.0
C1058 C 0.75433 0.11003 0.97991 0.0
H1059 H 0.68892 0.08761 0.98119 0.0
H1060 H 0.7298 0.12168 0.95226 0.0
C1061 C 0.75469 0.09336 0.00729 0.0
C1062 C 0.65948 0.9404 0.01294 0.0
C1063 C 0.63261 0.93164 0.01556 0.0
H1064 H 0.68972 0.93262 0.02635 0.0
C1065 C 0.61491 0.90588 0.0288 0.0
H1066 H 0.67356 0.96006 0.00255 0.0
C1067 C 0.62423 0.89029 0.0425 0.0
C1068 C 0.65129 0.89993 0.04237 0.0
H1069 H 0.5941 0.89851 0.03108 0.0
H1070 H 0.61054 0.87151 0.05557 0.0
C1071 C 0.66871 0.92459 0.02606 0.0
C1072 C 0.08984 0.7111 -0.00493 0.0
C1073 C 0.06682 0.71013 0.98424 0.0
H1074 H 0.12752 0.73408 0.02261 0.0
C1075 C 0.06623 0.73374 0.98644 0.0
H1076 H 0.09079 0.69315 0.99329 0.0
C1077 C 0.08719 0.75717 0.00366 0.0
C1078 C 0.10916 0.75732 0.01796 0.0
H1079 H 0.04864 0.73343 0.97827 0.0
H1080 H 0.08521 0.77432 0.00899 0.0
C1081 C 0.11101 0.73463 0.01132 0.0
C1082 C 0.2753 0.34874 -0.00285 0.0
C1083 C 0.2996 0.3728 0.00391 0.0
H1084 H 0.23507 0.32421 0.0142 0.0
C1085 C 0.30035 0.39307 0.02759 0.0
H1086 H 0.27402 0.33281 0.97878 0.0
C1087 C 0.27797 0.38825 0.04744 0.0
C1088 C 0.25448 0.36303 0.04416 0.0
H1089 H 0.31866 0.41203 0.03285 0.0
H1090 H 0.2796 0.4035 0.06769 0.0
C1091 C 0.2529 0.34386 0.01721 0.0
C1092 C 0.76438 0.72379 0.36384 0.0
C1093 C 0.74453 0.70528 0.33838 0.0
H1094 H 0.79555 0.73158 0.40198 0.0
C1095 C 0.74372 0.68153 0.32743 0.0
H1096 H 0.76586 0.74249 0.37229 0.0
C1097 C 0.76084 0.67529 0.34454 0.0
C1098 C 0.77907 0.69279 0.37258 0.0
H1099 H 0.72876 0.66697 0.30764 0.0
H1100 H 0.75836 0.65588 0.33812 0.0
C1101 C 0.78155 0.71767 0.38059 0.0
C1102 C 0.32734 0.05226 0.3492 0.0
C1103 C 0.30088 0.03123 0.34604 0.0
H1104 H 0.3544 0.09268 0.3692 0.0
C1105 C 0.28095 0.03635 0.35523 0.0
H1106 H 0.34304 0.0488 0.3421 0.0
C1107 C 0.28749 0.06138 0.37121 0.0
C1108 C 0.314 0.08174 0.37699 0.0
H1109 H 0.2604 0.0204 0.3532 0.0
H1110 H 0.27194 0.06416 0.38175 0.0
C1111 C 0.33384 0.07742 0.36419 0.0
C1112 C 0.94277 0.2815 0.33925 0.0
C1113 C 0.96687 0.28265 0.33857 0.0
H1114 H 0.90262 0.26008 0.35802 0.0
C1115 C 0.96763 0.26049 0.35053 0.0
H1116 H 0.94165 0.29834 0.33036 0.0
C1117 C 0.94514 0.23833 0.3652 0.0
C1118 C 0.92165 0.23818 0.3688 0.0
H1119 H 0.98592 0.2608 0.35014 0.0
H1120 H 0.94667 0.22228 0.37653 0.0
C1121 C 0.92041 0.25959 0.3548 0.0
C1122 C 0.04921 0.43196 0.33732 0.0
C1123 C 0.0258 0.40788 0.34555 0.0
H1124 H 0.06666 0.47007 0.31144 0.0
C1125 C 1.00155 0.4057 0.3392 0.0
H1126 H 0.06818 0.43424 0.34217 0.0
C1127 C 1.0007 0.42613 0.32124 0.0
C1128 C 0.0241 0.44931 0.31029 0.0
H1129 H 0.98319 0.38736 0.3452 0.0
H1130 H 0.98177 0.42301 0.31337 0.0
C1131 C 0.04837 0.4526 0.32017 0.0
C1132 C 0.61861 0.62748 0.34567 0.0
C1133 C 0.62279 0.65283 0.33845 0.0
H1134 H 0.59566 0.58519 0.33211 0.0
C1135 C 0.60351 0.65424 0.31796 0.0
H1136 H 0.63302 0.62574 0.36165 0.0
C1137 C 0.58186 0.63101 0.30182 0.0
C1138 C 0.57925 0.60594 0.30534 0.0
H1139 H 0.60588 0.67344 0.3126 0.0
H1140 H 0.56828 0.63291 0.28398 0.0
C1141 C 0.59704 0.60419 0.32911 0.0
C1142 C 0.40607 0.00762 0.33168 0.0
C1143 C 0.38385 0.98347 0.34303 0.0
H1144 H 0.442 0.0258 0.30004 0.0
C1145 C 0.3837 0.95951 0.33788 0.0
H1146 H 0.40686 0.02644 0.33541 0.0
C1147 C 0.4041 0.9593 0.31829 0.0
C1148 C 0.42478 0.98298 0.30318 0.0
H1149 H 0.36697 0.94064 0.34668 0.0
H1150 H 0.4024 0.94024 0.31186 0.0
C1151 C 0.42626 0.00733 0.31159 0.0
C1152 C 0.57884 0.9501 0.336 0.0
C1153 C 0.60275 0.97317 0.34775 0.0
H1154 H 0.54247 0.93428 0.30538 0.0
C1155 C 0.60642 0.99854 0.34258 0.0
H1156 H 0.57549 0.9303 0.3398 0.0
C1157 C 0.58765 1.0008 0.32242 0.0
C1158 C 0.56471 0.97773 0.30798 0.0
H1159 H 0.62471 0.01665 0.35121 0.0
H1160 H 0.59184 0.02057 0.3159 0.0
C1161 C 0.55986 0.95236 0.31658 0.0
C1162 C 0.99972 0.62145 0.3137 0.0
C1163 C 0.02355 0.64506 0.32414 0.0
H1164 H 0.98152 0.58214 0.28665 0.0
C1165 C 0.04714 0.64527 0.32153 0.0
H1166 H 0.98125 0.62075 0.3154 0.0
C1167 C 0.04715 0.62295 0.30622 0.0
C1168 C 0.02365 0.60025 0.29257 0.0
H1169 H 0.06576 0.66316 0.32969 0.0
H1170 H 0.06581 0.62431 0.30206 0.0
C1171 C 0.99981 0.59931 0.29754 0.0
C1172 C 0.38444 0.43793 0.33471 0.0
C1173 C 0.37616 0.41066 0.33616 0.0
H1174 H 0.41411 0.47677 0.31546 0.0
C1175 C 0.39391 0.40274 0.32567 0.0
H1176 H 0.37118 0.44462 0.34257 0.0
C1177 C 0.41865 0.42127 0.31134 0.0
C1178 C 0.42602 0.448 0.30684 0.0
H1179 H 0.38818 0.38192 0.32676 0.0
H1180 H 0.43116 0.41423 0.30075 0.0
C1181 C 0.40909 0.45642 0.31966 0.0
C1182 C 0.33962 0.27134 0.33363 0.0
C1183 C 0.31668 0.27244 0.33617 0.0
H1184 H 0.35965 0.25223 0.35214 0.0
C1185 C 0.29432 0.25142 0.35345 0.0
H1186 H 0.35713 0.28709 0.32022 0.0
C1187 C 0.29568 0.23129 0.37122 0.0
C1188 C 0.31947 0.23183 0.37229 0.0
H1189 H 0.27619 0.25138 0.35532 0.0
H1190 H 0.27868 0.21641 0.38661 0.0
C1191 C 0.34101 0.25121 0.35162 0.0
C1192 C 0.7446 0.03396 0.33998 0.0
C1193 C 0.72079 0.03296 0.33528 0.0
H1194 H 0.78411 0.05647 0.36205 0.0
C1195 C 0.71994 0.05605 0.3441 0.0
H1196 H 0.74575 0.01642 0.33329 0.0
C1197 C 0.74177 0.0788 0.36113 0.0
C1198 C 0.76493 0.07899 0.36843 0.0
H1199 H 0.70175 0.05572 0.34096 0.0
H1200 H 0.73996 0.09545 0.37111 0.0
C1201 C 0.76661 0.05693 0.35604 0.0
C1202 C 0.96927 0.72611 0.36264 0.0
C1203 C 0.96926 0.71029 0.33148 0.0
H1204 H 0.94692 0.7301 0.40766 0.0
C1205 C 0.94505 0.68847 0.3177 0.0
H1206 H 0.98752 0.74332 0.37356 0.0
C1207 C 0.92172 0.68092 0.33733 0.0
C1208 C 0.9223 0.69515 0.37087 0.0
H1209 H 0.94436 0.67599 0.29359 0.0
H1210 H 0.90373 0.66264 0.3282 0.0
C1211 C 0.94601 0.71864 0.38208 0.0
C1212 C 0.4056 0.00408 0.66189 0.0
C1213 C 0.40676 0.02835 0.67011 0.0
H1214 H 0.41999 0.97877 0.67607 0.0
C1215 C 0.42723 0.04801 0.6938 0.0
H1216 H 0.39022 0.98859 0.6435 0.0
C1217 C 0.44434 0.04243 0.7121 0.0
C1218 C 0.44137 0.01711 0.70705 0.0
H1219 H 0.42897 0.06708 0.70028 0.0
H1220 H 0.45863 0.05717 0.73248 0.0
C1221 C 0.42279 0.9985 0.68027 0.0
C1222 C 1.00064 0.38666 0.65879 0.0
C1223 C 0.97783 0.36215 0.66745 0.0
H1224 H 0.02434 0.4289 0.67232 0.0
C1225 C 0.95869 0.36238 0.69081 0.0
H1226 H 0.01566 0.38708 0.64067 0.0
C1227 C 0.96344 0.38629 0.7083 0.0
C1228 C 0.98757 0.41038 0.70317 0.0
H1229 H 0.94068 0.34385 0.69738 0.0
H1230 H 0.94911 0.38562 0.72821 0.0
C1231 C 1.00553 0.41064 0.67666 0.0
C1232 C 0.63544 0.59225 0.67481 0.0
C1233 C 0.63525 0.61531 0.66618 0.0
H1234 H 0.61495 0.55399 0.7004 0.0
C1235 C 0.61207 0.61558 0.67167 0.0
H1236 H 0.65303 0.5915 0.67058 0.0
C1237 C 0.59035 0.5942 0.6892 0.0
C1238 C 0.59132 0.57201 0.70048 0.0
H1239 H 0.61147 0.63316 0.66531 0.0
H1240 H 0.57354 0.59581 0.69641 0.0
C1241 C 0.61354 0.57065 0.69142 0.0
C1242 C 0.67498 0.73841 0.66715 0.0
C1243 C 0.69916 0.73982 0.66925 0.0
H1244 H 0.65447 0.75659 0.64662 0.0
C1245 C 0.72218 0.76318 0.65778 0.0
H1246 H 0.6569 0.7206 0.67562 0.0
C1247 C 0.72084 0.78403 0.64231 0.0
C1248 C 0.6964 0.78164 0.63738 0.0
H1249 H 0.74109 0.76484 0.65924 0.0
H1250 H 0.73863 0.80109 0.63149 0.0
C1251 C 0.67356 0.75901 0.6508 0.0
C1252 C 0.24865 0.97426 0.66901 0.0
C1253 C 0.27384 0.97944 0.67784 0.0
H1254 H 0.21098 0.94629 0.64319 0.0
C1255 C 0.27851 0.95838 0.67488 0.0
H1256 H 0.24463 0.99023 0.67092 0.0
C1257 C 0.25898 0.93309 0.66045 0.0
C1258 C 0.23474 0.92868 0.64791 0.0
H1259 H 0.29775 0.96187 0.68171 0.0
H1260 H 0.26375 0.91779 0.65556 0.0
C1261 C 0.22933 0.94912 0.65354 0.0
C1262 C 0.04173 0.2846 0.65364 0.0
C1263 C 0.04144 0.3077 0.66477 0.0
H1264 H 0.06295 0.26877 0.62549 0.0
C1265 C 0.06439 0.33304 0.66076 0.0
H1266 H 0.02435 0.26482 0.65674 0.0
C1267 C 0.08638 0.33527 0.64254 0.0
C1268 C 0.08593 0.31218 0.62902 0.0
H1269 H 0.06469 0.35116 0.66909 0.0
H1270 H 0.10307 0.35502 0.63676 0.0
C1271 C 0.0639 0.28683 0.63623 0.0
C1272 C 0.27381 0.33513 0.67126 0.0
C1273 C 0.27137 0.31012 0.67457 0.0
H1274 H 0.25776 0.35653 0.64682 0.0
C1275 C 0.24788 0.28673 0.66232 0.0
H1276 H 0.29165 0.35351 0.6805 0.0
C1277 C 0.22824 0.28849 0.64394 0.0
C1278 C 0.23198 0.31366 0.63701 0.0
H1279 H 0.24537 0.26717 0.6648 0.0
H1280 H 0.21128 0.27032 0.632 0.0
C1281 C 0.25438 0.3369 0.65221 0.0
C1282 C 0.71671 0.97552 0.68184 0.0
C1283 C 0.69334 0.97496 0.68987 0.0
H1284 H 0.73386 0.9543 0.65741 0.0
C1285 C 0.66917 0.95037 0.68689 0.0
H1286 H 0.73563 0.99419 0.68436 0.0
C1287 C 0.66817 0.92754 0.67124 0.0
C1288 C 0.69137 0.92895 0.65918 0.0
H1289 H 0.65087 0.94936 0.693 0.0
H1290 H 0.64915 0.90963 0.66489 0.0
C1291 C 0.71574 0.95259 0.66701 0.0
C1292 C 0.05263 0.74968 0.68212 0.0
C1293 C 0.04046 0.72251 0.66999 0.0
H1294 H 0.08475 0.79011 0.67359 0.0
C1295 C 0.05387 0.71478 0.64472 0.0
H1296 H 0.04271 0.75616 0.70165 0.0
C1297 C 0.07794 0.73396 0.62957 0.0
C1298 C 0.08901 0.76134 0.63895 0.0
H1299 H 0.04517 0.69397 0.63528 0.0
H1300 H 0.08704 0.72759 0.60828 0.0
C1301 C 0.07673 0.76906 0.6664 0.0
C1302 C 0.9597 0.57083 0.67849 0.0
C1303 C 0.97936 0.59097 0.65619 0.0
H1304 H 0.94976 0.5392 0.71644 0.0
C1305 C 1.00265 0.59105 0.64932 0.0
H1306 H 0.94135 0.56991 0.68379 0.0
C1307 C 0.00742 0.57334 0.66805 0.0
C1308 C 0.98893 0.55527 0.69373 0.0
H1309 H 0.0181 0.60616 0.63199 0.0
H1310 H 0.02654 0.57555 0.66523 0.0
C1311 C 0.96441 0.5531 0.69697 0.0
C1312 C 0.43179 0.37009 0.6728 0.0
C1313 C 0.40557 0.36373 0.67281 0.0
H1314 H 0.47124 0.39734 0.69304 0.0
C1315 C 0.4002 0.38313 0.68675 0.0
H1316 H 0.43664 0.3557 0.66192 0.0
C1317 C 0.42008 0.40707 0.70418 0.0
C1318 C 0.44568 0.41205 0.70806 0.0
H1319 H 0.38029 0.37908 0.68658 0.0
H1320 H 0.415 0.42077 0.71725 0.0
C1321 C 0.4517 0.39407 0.69034 0.0
C1322 C 0.60739 0.00603 0.66233 0.0
C1323 C 0.63102 0.02986 0.67308 0.0
H1324 H 0.56629 0.97981 0.67421 0.0
C1325 C 0.63004 0.04808 0.69925 0.0
H1326 H 0.60746 0.99167 0.64206 0.0
C1327 C 0.60651 0.04141 0.71721 0.0
C1328 C 0.58347 0.01639 0.70943 0.0
H1329 H 0.6478 0.06682 0.70769 0.0
H1330 H 0.60674 0.05492 0.7394 0.0
C1331 C 0.58375 0.99932 0.68046 0.0
loop_
_geom_bond_atom_site_label_1
_geom_bond_atom_site_label_2
_geom_bond_distance
_geom_bond_site_symmetry_2
_ccdc_geom_bond_type
C0 O1 1.160 . S
C0 O7 1.185 . S
O1 C0 1.160 . S
O2 Zn3 1.899 1_656 S
O2 C10 1.284 . S
Zn3 O2 1.899 1_454 S
Zn3 O4 2.032 . S
Zn3 O7 2.086 . S
Zn3 O12 1.977 1_554 S
O4 Zn3 2.032 . S
O4 C8 1.278 1_455 S
C5 O6 1.203 1_455 S
C5 O12 1.267 . S
O6 C5 1.203 1_655 S
O7 C0 1.185 . S
O7 Zn3 2.086 . S
C8 O4 1.278 1_655 S
C8 O9 1.211 . S
O9 C8 1.211 . S
C10 O2 1.284 . S
C10 O11 1.273 1_556 S
O11 C10 1.273 1_554 S
O12 Zn3 1.977 1_556 S
O12 C5 1.267 . S
C13 O14 1.160 . S
C13 O20 1.185 1_556 S
O14 C13 1.160 . S
O15 Zn16 1.899 . S
O15 C23 1.284 . S
Zn16 O15 1.899 . S
Zn16 O17 2.032 1_554 S
Zn16 O20 2.086 . S
Zn16 O25 1.977 . S
O17 Zn16 2.032 1_556 S
O17 C21 1.278 . S
C18 O19 1.203 . S
C18 O25 1.267 . S
O19 C18 1.203 . S
O20 C13 1.185 1_554 S
O20 Zn16 2.086 . S
C21 O17 1.278 . S
C21 O22 1.211 . S
O22 C21 1.211 . S
C23 O15 1.284 . S
C23 O24 1.273 . S
O24 C23 1.273 . S
O25 Zn16 1.977 . S
O25 C18 1.267 . S
C26 O27 1.160 . S
C26 O33 1.185 1_556 S
O27 C26 1.160 . S
O28 Zn29 1.899 1_565 S
O28 C36 1.284 . S
Zn29 O28 1.899 1_545 S
Zn29 O30 2.032 1_554 S
Zn29 O33 2.086 . S
Zn29 O38 1.977 . S
O30 Zn29 2.032 1_556 S
O30 C34 1.278 1_545 S
C31 O32 1.203 1_545 S
C31 O38 1.267 . S
O32 C31 1.203 1_565 S
O33 C26 1.185 1_554 S
O33 Zn29 2.086 . S
C34 O30 1.278 1_565 S
C34 O35 1.211 . S
O35 C34 1.211 . S
C36 O28 1.284 . S
C36 O37 1.273 . S
O37 C36 1.273 . S
O38 Zn29 1.977 . S
O38 C31 1.267 . S
C39 O40 1.160 . S
C39 O46 1.185 1_556 S
O40 C39 1.160 . S
O41 Zn42 1.899 1_455 S
O41 C49 1.284 . S
Zn42 O41 1.899 1_655 S
Zn42 O43 2.032 1_554 S
Zn42 O46 2.086 . S
Zn42 O51 1.977 . S
O43 Zn42 2.032 1_556 S
O43 C47 1.278 1_655 S
C44 O45 1.203 1_655 S
C44 O51 1.267 . S
O45 C44 1.203 1_455 S
O46 C39 1.185 1_554 S
O46 Zn42 2.086 . S
C47 O43 1.278 1_455 S
C47 O48 1.211 . S
O48 C47 1.211 . S
C49 O41 1.284 . S
C49 O50 1.273 . S
O50 C49 1.273 . S
O51 Zn42 1.977 . S
O51 C44 1.267 . S
C52 O53 1.160 . S
C52 O59 1.185 . S
O53 C52 1.160 . S
O54 Zn55 1.899 1_556 S
O54 C62 1.284 . S
Zn55 O54 1.899 1_554 S
Zn55 O56 2.032 . S
Zn55 O59 2.086 . S
Zn55 O64 1.977 1_554 S
O56 Zn55 2.032 . S
O56 C60 1.278 . S
C57 O58 1.203 . S
C57 O64 1.267 . S
O58 C57 1.203 . S
O59 C52 1.185 . S
O59 Zn55 2.086 . S
C60 O56 1.278 . S
C60 O61 1.211 . S
O61 C60 1.211 . S
C62 O54 1.284 . S
C62 O63 1.273 1_556 S
O63 C62 1.273 1_554 S
O64 Zn55 1.977 1_556 S
O64 C57 1.267 . S
C65 O66 1.160 . S
C65 O72 1.185 . S
O66 C65 1.160 . S
O67 Zn68 1.899 1_546 S
O67 C75 1.284 . S
Zn68 O67 1.899 1_564 S
Zn68 O69 2.032 . S
Zn68 O72 2.086 . S
Zn68 O77 1.977 1_554 S
O69 Zn68 2.032 . S
O69 C73 1.278 1_565 S
C70 O71 1.203 1_565 S
C70 O77 1.267 . S
O71 C70 1.203 1_545 S
O72 C65 1.185 . S
O72 Zn68 2.086 . S
C73 O69 1.278 1_545 S
C73 O74 1.211 . S
O74 C73 1.211 . S
C75 O67 1.284 . S
C75 O76 1.273 1_556 S
O76 C75 1.273 1_554 S
O77 Zn68 1.977 1_556 S
O77 C70 1.267 . S
C78 O79 1.160 . S
C78 O85 1.185 . S
O79 C78 1.160 . S
O80 Zn81 1.899 . S
O80 C88 1.284 . S
Zn81 O80 1.899 . S
Zn81 O82 2.032 . S
Zn81 O85 2.086 . S
Zn81 O90 1.977 . S
O82 Zn81 2.032 . S
O82 C86 1.278 . S
C83 O84 1.203 . S
C83 O90 1.267 . S
O84 C83 1.203 . S
O85 C78 1.185 . S
O85 Zn81 2.086 . S
C86 O82 1.278 . S
C86 O87 1.211 . S
O87 C86 1.211 . S
C88 O80 1.284 . S
C88 O89 1.273 . S
O89 C88 1.273 . S
O90 Zn81 1.977 . S
O90 C83 1.267 . S
C91 O92 1.160 1_565 S
C91 O98 1.185 . S
O92 C91 1.160 1_545 S
O93 Zn94 1.899 1_545 S
O93 C101 1.284 . S
Zn94 O93 1.899 1_565 S
Zn94 O95 2.032 . S
Zn94 O98 2.086 . S
Zn94 O103 1.977 . S
O95 Zn94 2.032 . S
O95 C99 1.278 . S
C96 O97 1.203 . S
C96 O103 1.267 . S
O97 C96 1.203 . S
O98 C91 1.185 . S
O98 Zn94 2.086 . S
C99 O95 1.278 . S
C99 O100 1.211 . S
O100 C99 1.211 . S
C101 O93 1.284 . S
C101 O102 1.273 . S
O102 C101 1.273 . S
O103 Zn94 1.977 . S
O103 C96 1.267 . S
C104 O105 1.160 1_455 S
C104 O111 1.185 . S
O105 C104 1.160 1_655 S
O106 Zn107 1.899 1_655 S
O106 C114 1.284 . S
Zn107 O106 1.899 1_455 S
Zn107 O108 2.032 . S
Zn107 O111 2.086 . S
Zn107 O116 1.977 . S
O108 Zn107 2.032 . S
O108 C112 1.278 . S
C109 O110 1.203 . S
C109 O116 1.267 . S
O110 C109 1.203 . S
O111 C104 1.185 . S
O111 Zn107 2.086 . S
C112 O108 1.278 . S
C112 O113 1.211 . S
O113 C112 1.211 . S
C114 O106 1.284 . S
C114 O115 1.273 . S
O115 C114 1.273 . S
O116 Zn107 1.977 . S
O116 C109 1.267 . S
C117 O118 1.160 1_565 S
C117 O124 1.185 . S
O118 C117 1.160 1_545 S
O119 Zn120 1.899 1_545 S
O119 C127 1.284 . S
Zn120 O119 1.899 1_565 S
Zn120 O121 2.032 . S
Zn120 O124 2.086 . S
Zn120 O129 1.977 . S
O121 Zn120 2.032 . S
O121 C125 1.278 . S
C122 O123 1.203 . S
C122 O129 1.267 . S
O123 C122 1.203 . S
O124 C117 1.185 . S
O124 Zn120 2.086 . S
C125 O121 1.278 . S
C125 O126 1.211 . S
O126 C125 1.211 . S
C127 O119 1.284 . S
C127 O128 1.273 . S
O128 C127 1.273 . S
O129 Zn120 1.977 . S
O129 C122 1.267 . S
C130 O131 1.160 . S
C130 O137 1.185 . S
O131 C130 1.160 . S
O132 Zn133 1.898 . S
O132 C140 1.290 . S
Zn133 O132 1.898 . S
Zn133 O134 2.032 . S
Zn133 O137 2.086 1_455 S
Zn133 O142 1.977 . S
O134 Zn133 2.032 . S
O134 C138 1.278 . S
C135 O136 1.203 . S
C135 O142 1.267 . S
O136 C135 1.203 . S
O137 C130 1.185 . S
O137 Zn133 2.086 1_655 S
C138 O134 1.278 . S
C138 O139 1.211 . S
O139 C138 1.211 . S
C140 O132 1.290 . S
C140 O141 1.273 . S
O141 C140 1.273 . S
O142 Zn133 1.977 . S
O142 C135 1.267 . S
C143 O144 1.160 . S
C143 O150 1.185 . S
O144 C143 1.160 . S
O145 Zn146 1.899 . S
O145 C153 1.284 . S
Zn146 O145 1.899 . S
Zn146 O147 2.032 . S
Zn146 O150 2.086 . S
Zn146 O155 1.977 . S
O147 Zn146 2.032 . S
O147 C151 1.278 . S
C148 O149 1.203 . S
C148 O155 1.267 . S
O149 C148 1.203 . S
O150 C143 1.185 . S
O150 Zn146 2.086 . S
C151 O147 1.278 . S
C151 O152 1.211 . S
O152 C151 1.211 . S
C153 O145 1.284 . S
C153 O154 1.273 . S
O154 C153 1.273 . S
O155 Zn146 1.977 . S
O155 C148 1.267 . S
C156 O157 1.160 1_545 S
C156 O163 1.185 . S
O157 C156 1.160 1_565 S
O158 Zn159 1.899 1_565 S
O158 C166 1.284 . S
Zn159 O158 1.899 1_545 S
Zn159 O160 2.032 . S
Zn159 O163 2.086 . S
Zn159 O168 1.977 . S
O160 Zn159 2.032 . S
O160 C164 1.278 . S
C161 O162 1.203 . S
C161 O168 1.267 . S
O162 C161 1.203 . S
O163 C156 1.185 . S
O163 Zn159 2.086 . S
C164 O160 1.278 . S
C164 O165 1.211 . S
O165 C164 1.211 . S
C166 O158 1.284 . S
C166 O167 1.273 . S
O167 C166 1.273 . S
O168 Zn159 1.977 . S
O168 C161 1.267 . S
C169 O170 1.160 . S
C169 O176 1.185 . S
O170 C169 1.160 . S
O171 Zn172 1.888 . S
O171 C179 1.326 . S
Zn172 O171 1.888 . S
Zn172 O173 2.032 . S
Zn172 O176 2.086 1_655 S
Zn172 O181 1.977 . S
O173 Zn172 2.032 . S
O173 C177 1.278 . S
C174 O175 1.203 . S
C174 O181 1.267 . S
O175 C174 1.203 . S
O176 C169 1.185 . S
O176 Zn172 2.086 1_455 S
C177 O173 1.278 . S
C177 O178 1.211 . S
O178 C177 1.211 . S
C179 O171 1.326 . S
C179 O180 1.273 . S
O180 C179 1.273 . S
O181 Zn172 1.977 . S
O181 C174 1.267 . S
C182 O183 1.160 . S
C182 O189 1.185 . S
O183 C182 1.160 . S
O184 Zn185 1.899 . S
O184 C192 1.284 . S
Zn185 O184 1.899 . S
Zn185 O186 2.032 . S
Zn185 O189 2.086 . S
Zn185 O194 1.977 . S
O186 Zn185 2.032 . S
O186 C190 1.278 . S
C187 O188 1.203 . S
C187 O194 1.267 . S
O188 C187 1.203 . S
O189 C182 1.185 . S
O189 Zn185 2.086 . S
C190 O186 1.278 . S
C190 O191 1.211 . S
O191 C190 1.211 . S
C192 O184 1.284 . S
C192 O193 1.273 . S
O193 C192 1.273 . S
O194 Zn185 1.977 . S
O194 C187 1.267 . S
C195 O196 1.160 . S
C195 O202 1.185 . S
O196 C195 1.160 . S
O197 Zn198 1.899 . S
O197 C205 1.284 . S
Zn198 O197 1.899 . S
Zn198 O199 2.032 . S
Zn198 O202 2.086 . S
Zn198 O207 1.977 . S
O199 Zn198 2.032 . S
O199 C203 1.278 . S
C200 O201 1.203 . S
C200 O207 1.267 . S
O201 C200 1.203 . S
O202 C195 1.185 . S
O202 Zn198 2.086 . S
C203 O199 1.278 . S
C203 O204 1.211 . S
O204 C203 1.211 . S
C205 O197 1.284 . S
C205 O206 1.273 . S
O206 C205 1.273 . S
O207 Zn198 1.977 . S
O207 C200 1.267 . S
C208 O209 1.160 1_545 S
C208 O215 1.185 . S
O209 C208 1.160 1_565 S
O210 Zn211 1.899 1_565 S
O210 C218 1.284 . S
Zn211 O210 1.899 1_545 S
Zn211 O212 2.032 . S
Zn211 O215 2.086 . S
Zn211 O220 1.977 . S
O212 Zn211 2.032 . S
O212 C216 1.278 . S
C213 O214 1.203 . S
C213 O220 1.267 . S
O214 C213 1.203 . S
O215 C208 1.185 . S
O215 Zn211 2.086 . S
C216 O212 1.278 . S
C216 O217 1.211 . S
O217 C216 1.211 . S
C218 O210 1.284 . S
C218 O219 1.273 . S
O219 C218 1.273 . S
O220 Zn211 1.977 . S
O220 C213 1.267 . S
C221 O222 1.160 1_655 S
C221 O228 1.185 . S
O222 C221 1.160 1_455 S
O223 Zn224 1.899 1_455 S
O223 C231 1.284 . S
Zn224 O223 1.899 1_655 S
Zn224 O225 2.032 . S
Zn224 O228 2.086 . S
Zn224 O233 1.977 . S
O225 Zn224 2.032 . S
O225 C229 1.278 . S
C226 O227 1.203 . S
C226 O233 1.267 . S
O227 C226 1.203 . S
O228 C221 1.185 . S
O228 Zn224 2.086 . S
C229 O225 1.278 . S
C229 O230 1.211 . S
O230 C229 1.211 . S
C231 O223 1.284 . S
C231 O232 1.273 . S
O232 C231 1.273 . S
O233 Zn224 1.977 . S
O233 C226 1.267 . S
H234 C242 0.930 . S
H235 C245 0.930 . S
H236 C247 0.930 . S
H237 C248 0.970 . S
H238 C248 0.970 . S
H239 C250 0.930 . S
H240 C252 0.930 . S
H241 C254 0.930 . S
C242 H234 0.930 . S
C242 C243 1.382 . S
C242 C244 1.426 . S
C243 C242 1.382 . S
C243 C247 1.389 . S
C244 C242 1.426 . S
C244 C245 1.375 . S
C244 C248 1.532 . S
C245 H235 0.930 . S
C245 C244 1.375 . S
C245 C246 1.416 . S
C246 C245 1.416 . S
C246 C247 1.371 . S
C247 H236 0.930 . S
C247 C243 1.389 . S
C247 C246 1.371 . S
C248 H237 0.970 . S
C248 H238 0.970 . S
C248 C244 1.532 . S
C248 C249 1.499 . S
C249 C248 1.499 . S
C249 C250 1.370 . S
C249 C254 1.415 . S
C250 H239 0.930 . S
C250 C249 1.370 . S
C250 C251 1.407 . S
C251 C250 1.407 . S
C251 C252 1.365 . S
C252 H240 0.930 . S
C252 C251 1.365 . S
C252 C253 1.393 . S
C253 C252 1.393 . S
C253 C254 1.387 . S
C254 H241 0.930 . S
C254 C249 1.415 . S
C254 C253 1.387 . S
H255 C263 0.930 . S
H256 C266 0.930 . S
H257 C268 0.930 . S
H258 C269 0.970 . S
H259 C269 0.970 . S
H260 C271 0.930 . S
H261 C273 0.930 . S
H262 C275 0.930 . S
C263 H255 0.930 . S
C263 C264 1.382 . S
C263 C265 1.426 . S
C264 C263 1.382 . S
C264 C268 1.389 . S
C265 C263 1.426 . S
C265 C266 1.375 . S
C265 C269 1.532 . S
C266 H256 0.930 . S
C266 C265 1.375 . S
C266 C267 1.416 . S
C267 C266 1.416 . S
C267 C268 1.371 . S
C268 H257 0.930 . S
C268 C264 1.389 . S
C268 C267 1.371 . S
C269 H258 0.970 . S
C269 H259 0.970 . S
C269 C265 1.532 . S
C269 C270 1.499 . S
C270 C269 1.499 . S
C270 C271 1.370 . S
C270 C275 1.415 . S
C271 H260 0.930 . S
C271 C270 1.370 . S
C271 C272 1.407 . S
C272 C271 1.407 . S
C272 C273 1.365 . S
C273 H261 0.930 . S
C273 C272 1.365 . S
C273 C274 1.393 . S
C274 C273 1.393 . S
C274 C275 1.387 . S
C275 H262 0.930 . S
C275 C270 1.415 . S
C275 C274 1.387 . S
H276 C284 0.930 . S
H277 C287 0.930 . S
H278 C289 0.930 . S
H279 C290 0.970 . S
H280 C290 0.970 . S
H281 C292 0.930 . S
H282 C294 0.930 . S
H283 C296 0.930 . S
C284 H276 0.930 . S
C284 C285 1.382 . S
C284 C286 1.426 . S
C285 C284 1.382 . S
C285 C289 1.389 . S
C286 C284 1.426 . S
C286 C287 1.375 . S
C286 C290 1.532 . S
C287 H277 0.930 . S
C287 C286 1.375 . S
C287 C288 1.416 . S
C288 C287 1.416 . S
C288 C289 1.371 . S
C289 H278 0.930 . S
C289 C285 1.389 . S
C289 C288 1.371 . S
C290 H279 0.970 . S
C290 H280 0.970 . S
C290 C286 1.532 . S
C290 C291 1.499 . S
C291 C290 1.499 . S
C291 C292 1.370 . S
C291 C296 1.415 . S
C292 H281 0.930 . S
C292 C291 1.370 . S
C292 C293 1.407 . S
C293 C292 1.407 . S
C293 C294 1.365 . S
C294 H282 0.930 . S
C294 C293 1.365 . S
C294 C295 1.393 . S
C295 C294 1.393 . S
C295 C296 1.387 . S
C296 H283 0.930 . S
C296 C291 1.415 . S
C296 C295 1.387 . S
H297 C305 0.930 . S
H298 C308 0.930 . S
H299 C310 0.930 . S
H300 C311 0.970 . S
H301 C311 0.970 . S
H302 C313 0.930 . S
H303 C315 0.930 . S
H304 C317 0.930 . S
C305 H297 0.930 . S
C305 C306 1.382 . S
C305 C307 1.426 . S
C306 C305 1.382 . S
C306 C310 1.389 . S
C307 C305 1.426 . S
C307 C308 1.375 . S
C307 C311 1.532 . S
C308 H298 0.930 . S
C308 C307 1.375 . S
C308 C309 1.416 . S
C309 C308 1.416 . S
C309 C310 1.371 . S
C310 H299 0.930 . S
C310 C306 1.389 . S
C310 C309 1.371 . S
C311 H300 0.970 . S
C311 H301 0.970 . S
C311 C307 1.532 . S
C311 C312 1.499 . S
C312 C311 1.499 . S
C312 C313 1.370 . S
C312 C317 1.415 . S
C313 H302 0.930 . S
C313 C312 1.370 . S
C313 C314 1.407 . S
C314 C313 1.407 . S
C314 C315 1.365 . S
C315 H303 0.930 . S
C315 C314 1.365 . S
C315 C316 1.393 . S
C316 C315 1.393 . S
C316 C317 1.387 . S
C317 H304 0.930 . S
C317 C312 1.415 . S
C317 C316 1.387 . S
H318 C326 0.930 . S
H319 C329 0.930 . S
H320 C331 0.930 . S
H321 C332 0.970 . S
H322 C332 0.970 . S
H323 C334 0.930 . S
H324 C336 0.930 . S
H325 C338 0.930 . S
C326 H318 0.930 . S
C326 C327 1.382 . S
C326 C328 1.426 . S
C327 C326 1.382 . S
C327 C331 1.389 . S
C328 C326 1.426 . S
C328 C329 1.375 . S
C328 C332 1.532 . S
C329 H319 0.930 . S
C329 C328 1.375 . S
C329 C330 1.416 . S
C330 C329 1.416 . S
C330 C331 1.371 . S
C331 H320 0.930 . S
C331 C327 1.389 . S
C331 C330 1.371 . S
C332 H321 0.970 . S
C332 H322 0.970 . S
C332 C328 1.532 . S
C332 C333 1.499 . S
C333 C332 1.499 . S
C333 C334 1.370 . S
C333 C338 1.415 . S
C334 H323 0.930 . S
C334 C333 1.370 . S
C334 C335 1.407 . S
C335 C334 1.407 . S
C335 C336 1.365 . S
C336 H324 0.930 . S
C336 C335 1.365 . S
C336 C337 1.393 . S
C337 C336 1.393 . S
C337 C338 1.387 . S
C338 H325 0.930 . S
C338 C333 1.415 . S
C338 C337 1.387 . S
H339 C347 0.930 . S
H340 C350 0.930 . S
H341 C352 0.930 . S
H342 C353 0.970 . S
H343 C353 0.970 . S
H344 C355 0.930 . S
H345 C357 0.930 . S
H346 C359 0.930 . S
C347 H339 0.930 . S
C347 C348 1.382 . S
C347 C349 1.426 . S
C348 C347 1.382 . S
C348 C352 1.389 . S
C349 C347 1.426 . S
C349 C350 1.375 . S
C349 C353 1.532 . S
C350 H340 0.930 . S
C350 C349 1.375 . S
C350 C351 1.416 . S
C351 C350 1.416 . S
C351 C352 1.371 . S
C352 H341 0.930 . S
C352 C348 1.389 . S
C352 C351 1.371 . S
C353 H342 0.970 . S
C353 H343 0.970 . S
C353 C349 1.532 . S
C353 C354 1.499 . S
C354 C353 1.499 . S
C354 C355 1.370 . S
C354 C359 1.415 . S
C355 H344 0.930 . S
C355 C354 1.370 . S
C355 C356 1.407 . S
C356 C355 1.407 . S
C356 C357 1.365 . S
C357 H345 0.930 . S
C357 C356 1.365 . S
C357 C358 1.393 . S
C358 C357 1.393 . S
C358 C359 1.387 . S
C359 H346 0.930 . S
C359 C354 1.415 . S
C359 C358 1.387 . S
H360 C368 0.930 . S
H361 C371 0.930 . S
H362 C373 0.930 . S
H363 C374 0.970 . S
H364 C374 0.970 . S
H365 C376 0.930 . S
H366 C378 0.930 . S
H367 C380 0.930 . S
C368 H360 0.930 . S
C368 C369 1.382 . S
C368 C370 1.426 . S
C369 C368 1.382 . S
C369 C373 1.389 . S
C370 C368 1.426 . S
C370 C371 1.375 . S
C370 C374 1.532 . S
C371 H361 0.930 . S
C371 C370 1.375 . S
C371 C372 1.416 . S
C372 C371 1.416 . S
C372 C373 1.371 . S
C373 H362 0.930 . S
C373 C369 1.389 . S
C373 C372 1.371 . S
C374 H363 0.970 . S
C374 H364 0.970 . S
C374 C370 1.532 . S
C374 C375 1.499 . S
C375 C374 1.499 . S
C375 C376 1.370 . S
C375 C380 1.415 . S
C376 H365 0.930 . S
C376 C375 1.370 . S
C376 C377 1.407 . S
C377 C376 1.407 . S
C377 C378 1.365 . S
C378 H366 0.930 . S
C378 C377 1.365 . S
C378 C379 1.393 . S
C379 C378 1.393 . S
C379 C380 1.387 . S
C380 H367 0.930 . S
C380 C375 1.415 . S
C380 C379 1.387 . S
H381 C389 0.930 . S
H382 C392 0.930 . S
H383 C394 0.930 . S
H384 C395 0.970 . S
H385 C395 0.970 . S
H386 C397 0.930 . S
H387 C399 0.930 . S
H388 C401 0.930 . S
C389 H381 0.930 . S
C389 C390 1.382 . S
C389 C391 1.426 . S
C390 C389 1.382 . S
C390 C394 1.389 . S
C391 C389 1.426 . S
C391 C392 1.375 . S
C391 C395 1.532 . S
C392 H382 0.930 . S
C392 C391 1.375 . S
C392 C393 1.416 . S
C393 C392 1.416 . S
C393 C394 1.371 . S
C394 H383 0.930 . S
C394 C390 1.389 . S
C394 C393 1.371 . S
C395 H384 0.970 . S
C395 H385 0.970 . S
C395 C391 1.532 . S
C395 C396 1.499 . S
C396 C395 1.499 . S
C396 C397 1.370 . S
C396 C401 1.415 . S
C397 H386 0.930 . S
C397 C396 1.370 . S
C397 C398 1.407 . S
C398 C397 1.407 . S
C398 C399 1.365 . S
C399 H387 0.930 . S
C399 C398 1.365 . S
C399 C400 1.393 . S
C400 C399 1.393 . S
C400 C401 1.387 . S
C401 H388 0.930 . S
C401 C396 1.415 . S
C401 C400 1.387 . S
H402 C410 0.930 . S
H403 C413 0.930 . S
H404 C415 0.930 . S
H405 C416 0.970 . S
H406 C416 0.970 . S
H407 C418 0.930 . S
H408 C420 0.930 . S
H409 C422 0.930 . S
C410 H402 0.930 . S
C410 C411 1.382 . S
C410 C412 1.426 . S
C411 C410 1.382 . S
C411 C415 1.389 . S
C412 C410 1.426 . S
C412 C413 1.375 . S
C412 C416 1.532 . S
C413 H403 0.930 . S
C413 C412 1.375 . S
C413 C414 1.416 . S
C414 C413 1.416 . S
C414 C415 1.371 . S
C415 H404 0.930 . S
C415 C411 1.389 . S
C415 C414 1.371 . S
C416 H405 0.970 . S
C416 H406 0.970 . S
C416 C412 1.532 . S
C416 C417 1.499 . S
C417 C416 1.499 . S
C417 C418 1.370 . S
C417 C422 1.415 . S
C418 H407 0.930 . S
C418 C417 1.370 . S
C418 C419 1.407 . S
C419 C418 1.407 . S
C419 C420 1.365 . S
C420 H408 0.930 . S
C420 C419 1.365 . S
C420 C421 1.393 . S
C421 C420 1.393 . S
C421 C422 1.387 . S
C422 H409 0.930 . S
C422 C417 1.415 . S
C422 C421 1.387 . S
H423 C431 0.930 . S
H424 C434 0.930 . S
H425 C436 0.930 . S
H426 C437 0.970 . S
H427 C437 0.970 . S
H428 C439 0.930 . S
H429 C441 0.930 . S
H430 C443 0.930 . S
C431 H423 0.930 . S
C431 C432 1.382 . S
C431 C433 1.426 . S
C432 C431 1.382 . S
C432 C436 1.389 1_455 S
C433 C431 1.426 . S
C433 C434 1.375 . S
C433 C437 1.532 . S
C434 H424 0.930 . S
C434 C433 1.375 . S
C434 C435 1.416 . S
C435 C434 1.416 . S
C435 C436 1.371 1_455 S
C436 H425 0.930 . S
C436 C432 1.389 1_655 S
C436 C435 1.371 1_655 S
C437 H426 0.970 . S
C437 H427 0.970 . S
C437 C433 1.532 . S
C437 C438 1.499 . S
C438 C437 1.499 . S
C438 C439 1.370 . S
C438 C443 1.415 . S
C439 H428 0.930 . S
C439 C438 1.370 . S
C439 C440 1.407 . S
C440 C439 1.407 . S
C440 C441 1.365 1_455 S
C441 H429 0.930 . S
C441 C440 1.365 1_655 S
C441 C442 1.393 1_655 S
C442 C441 1.393 1_455 S
C442 C443 1.387 . S
C443 H430 0.930 . S
C443 C438 1.415 . S
C443 C442 1.387 . S
H444 C452 0.930 . S
H445 C455 0.930 . S
H446 C457 0.930 . S
H447 C458 0.970 . S
H448 C458 0.970 . S
H449 C460 0.930 . S
H450 C462 0.930 . S
H451 C464 0.930 . S
C452 H444 0.930 . S
C452 C453 1.382 . S
C452 C454 1.426 . S
C453 C452 1.382 . S
C453 C457 1.389 . S
C454 C452 1.426 . S
C454 C455 1.375 . S
C454 C458 1.532 . S
C455 H445 0.930 . S
C455 C454 1.375 . S
C455 C456 1.416 . S
C456 C455 1.416 . S
C456 C457 1.371 . S
C457 H446 0.930 . S
C457 C453 1.389 . S
C457 C456 1.371 . S
C458 H447 0.970 . S
C458 H448 0.970 . S
C458 C454 1.532 . S
C458 C459 1.499 . S
C459 C458 1.499 . S
C459 C460 1.370 . S
C459 C464 1.415 . S
C460 H449 0.930 . S
C460 C459 1.370 . S
C460 C461 1.407 . S
C461 C460 1.407 . S
C461 C462 1.365 . S
C462 H450 0.930 . S
C462 C461 1.365 . S
C462 C463 1.393 . S
C463 C462 1.393 . S
C463 C464 1.387 . S
C464 H451 0.930 . S
C464 C459 1.415 . S
C464 C463 1.387 . S
H465 C473 0.930 . S
H466 C476 0.930 . S
H467 C478 0.930 . S
H468 C479 0.970 . S
H469 C479 0.970 . S
H470 C481 0.930 . S
H471 C483 0.930 . S
H472 C485 0.930 . S
C473 H465 0.930 . S
C473 C474 1.382 . S
C473 C475 1.426 . S
C474 C473 1.382 . S
C474 C478 1.389 1_565 S
C475 C473 1.426 . S
C475 C476 1.375 . S
C475 C479 1.532 . S
C476 H466 0.930 . S
C476 C475 1.375 . S
C476 C477 1.416 . S
C477 C476 1.416 . S
C477 C478 1.371 1_565 S
C478 H467 0.930 . S
C478 C474 1.389 1_545 S
C478 C477 1.371 1_545 S
C479 H468 0.970 . S
C479 H469 0.970 . S
C479 C475 1.532 . S
C479 C480 1.499 . S
C480 C479 1.499 . S
C480 C481 1.370 . S
C480 C485 1.415 . S
C481 H470 0.930 . S
C481 C480 1.370 . S
C481 C482 1.412 . S
C482 C481 1.412 . S
C482 C483 1.362 1_565 S
C483 H471 0.930 . S
C483 C482 1.362 1_545 S
C483 C484 1.393 1_545 S
C484 C483 1.393 1_565 S
C484 C485 1.387 . S
C485 H472 0.930 . S
C485 C480 1.415 . S
C485 C484 1.387 . S
H486 C494 0.930 . S
H487 C497 0.930 . S
H488 C499 0.930 . S
H489 C500 0.970 . S
H490 C500 0.970 . S
H491 C502 0.930 . S
H492 C504 0.930 . S
H493 C506 0.930 . S
C494 H486 0.930 . S
C494 C495 1.382 . S
C494 C496 1.426 . S
C495 C494 1.382 . S
C495 C499 1.389 1_565 S
C496 C494 1.426 . S
C496 C497 1.375 . S
C496 C500 1.532 . S
C497 H487 0.930 . S
C497 C496 1.375 . S
C497 C498 1.416 . S
C498 C497 1.416 . S
C498 C499 1.371 1_565 S
C499 H488 0.930 . S
C499 C495 1.389 1_545 S
C499 C498 1.371 1_545 S
C500 H489 0.970 . S
C500 H490 0.970 . S
C500 C496 1.532 . S
C500 C501 1.499 . S
C501 C500 1.499 . S
C501 C502 1.370 . S
C501 C506 1.415 . S
C502 H491 0.930 . S
C502 C501 1.370 . S
C502 C503 1.407 . S
C503 C502 1.407 . S
C503 C504 1.365 1_565 S
C504 H492 0.930 . S
C504 C503 1.365 1_545 S
C504 C505 1.393 1_545 S
C505 C504 1.393 1_565 S
C505 C506 1.387 . S
C506 H493 0.930 . S
C506 C501 1.415 . S
C506 C505 1.387 . S
H507 C515 0.930 . S
H508 C518 0.930 . S
H509 C520 0.930 . S
H510 C521 0.970 . S
H511 C521 0.970 . S
H512 C523 0.930 . S
H513 C525 0.930 . S
H514 C527 0.930 . S
C515 H507 0.930 . S
C515 C516 1.382 . S
C515 C517 1.426 . S
C516 C515 1.382 . S
C516 C520 1.389 1_455 S
C517 C515 1.426 . S
C517 C518 1.375 . S
C517 C521 1.532 . S
C518 H508 0.930 . S
C518 C517 1.375 . S
C518 C519 1.416 . S
C519 C518 1.416 . S
C519 C520 1.371 1_455 S
C520 H509 0.930 . S
C520 C516 1.389 1_655 S
C520 C519 1.371 1_655 S
C521 H510 0.970 . S
C521 H511 0.970 . S
C521 C517 1.532 . S
C521 C522 1.499 . S
C522 C521 1.499 . S
C522 C523 1.370 . S
C522 C527 1.415 . S
C523 H512 0.930 . S
C523 C522 1.370 . S
C523 C524 1.407 . S
C524 C523 1.407 . S
C524 C525 1.365 1_455 S
C525 H513 0.930 . S
C525 C524 1.365 1_655 S
C525 C526 1.393 1_655 S
C526 C525 1.393 1_455 S
C526 C527 1.387 . S
C527 H514 0.930 . S
C527 C522 1.415 . S
C527 C526 1.387 . S
H528 C536 0.930 . S
H529 C539 0.930 . S
H530 C541 0.930 . S
H531 C542 0.970 . S
H532 C542 0.970 . S
H533 C544 0.930 . S
H534 C546 0.930 . S
H535 C548 0.930 . S
C536 H528 0.930 . S
C536 C537 1.382 . S
C536 C538 1.426 . S
C537 C536 1.382 . S
C537 C541 1.389 . S
C538 C536 1.426 . S
C538 C539 1.375 . S
C538 C542 1.532 . S
C539 H529 0.930 . S
C539 C538 1.375 . S
C539 C540 1.416 . S
C540 C539 1.416 . S
C540 C541 1.371 . S
C541 H530 0.930 . S
C541 C537 1.389 . S
C541 C540 1.371 . S
C542 H531 0.970 . S
C542 H532 0.970 . S
C542 C538 1.532 . S
C542 C543 1.499 . S
C543 C542 1.499 . S
C543 C544 1.370 . S
C543 C548 1.415 . S
C544 H533 0.930 . S
C544 C543 1.370 . S
C544 C545 1.407 . S
C545 C544 1.407 . S
C545 C546 1.365 . S
C546 H534 0.930 . S
C546 C545 1.365 . S
C546 C547 1.393 . S
C547 C546 1.393 . S
C547 C548 1.387 . S
C548 H535 0.930 . S
C548 C543 1.415 . S
C548 C547 1.387 . S
H549 C557 0.930 . S
H550 C560 0.930 . S
H551 C562 0.930 . S
H552 C563 0.970 . S
H553 C563 0.970 . S
H554 C565 0.930 . S
H555 C567 0.930 . S
H556 C569 0.930 . S
C557 H549 0.930 . S
C557 C558 1.382 . S
C557 C559 1.426 . S
C558 C557 1.382 . S
C558 C562 1.389 . S
C559 C557 1.426 . S
C559 C560 1.375 . S
C559 C563 1.532 . S
C560 H550 0.930 . S
C560 C559 1.375 . S
C560 C561 1.416 . S
C561 C560 1.416 . S
C561 C562 1.371 . S
C562 H551 0.930 . S
C562 C558 1.389 . S
C562 C561 1.371 . S
C563 H552 0.970 . S
C563 H553 0.970 . S
C563 C559 1.532 . S
C563 C564 1.499 . S
C564 C563 1.499 . S
C564 C565 1.370 . S
C564 C569 1.415 . S
C565 H554 0.930 . S
C565 C564 1.370 . S
C565 C566 1.407 . S
C566 C565 1.407 . S
C566 C567 1.365 . S
C567 H555 0.930 . S
C567 C566 1.365 . S
C567 C568 1.393 . S
C568 C567 1.393 . S
C568 C569 1.387 . S
C569 H556 0.930 . S
C569 C564 1.415 . S
C569 C568 1.387 . S
H570 C578 0.930 . S
H571 C581 0.930 . S
H572 C583 0.930 . S
H573 C584 0.970 . S
H574 C584 0.970 . S
H575 C586 0.930 . S
H576 C588 0.930 . S
H577 C590 0.930 . S
C578 H570 0.930 . S
C578 C579 1.382 . S
C578 C580 1.426 . S
C579 C578 1.382 . S
C579 C583 1.389 . S
C580 C578 1.426 . S
C580 C581 1.375 . S
C580 C584 1.532 . S
C581 H571 0.930 . S
C581 C580 1.375 . S
C581 C582 1.416 . S
C582 C581 1.416 . S
C582 C583 1.371 . S
C583 H572 0.930 . S
C583 C579 1.389 . S
C583 C582 1.371 . S
C584 H573 0.970 . S
C584 H574 0.970 . S
C584 C580 1.532 . S
C584 C585 1.499 . S
C585 C584 1.499 . S
C585 C586 1.370 . S
C585 C590 1.415 . S
C586 H575 0.930 . S
C586 C585 1.370 . S
C586 C587 1.407 . S
C587 C586 1.407 . S
C587 C588 1.365 . S
C588 H576 0.930 . S
C588 C587 1.365 . S
C588 C589 1.393 . S
C589 C588 1.393 . S
C589 C590 1.387 . S
C590 H577 0.930 . S
C590 C585 1.415 . S
C590 C589 1.387 . S
H591 C599 0.930 . S
H592 C602 0.930 . S
H593 C604 0.930 . S
H594 C605 0.970 . S
H595 C605 0.970 . S
H596 C607 0.930 . S
H597 C609 0.930 . S
H598 C611 0.930 . S
C599 H591 0.930 . S
C599 C600 1.382 . S
C599 C601 1.426 . S
C600 C599 1.382 . S
C600 C604 1.389 . S
C601 C599 1.426 . S
C601 C602 1.375 . S
C601 C605 1.532 . S
C602 H592 0.930 . S
C602 C601 1.375 . S
C602 C603 1.416 . S
C603 C602 1.416 . S
C603 C604 1.371 . S
C604 H593 0.930 . S
C604 C600 1.389 . S
C604 C603 1.371 . S
C605 H594 0.970 . S
C605 H595 0.970 . S
C605 C601 1.532 . S
C605 C606 1.499 . S
C606 C605 1.499 . S
C606 C607 1.370 . S
C606 C611 1.415 . S
C607 H596 0.930 . S
C607 C606 1.370 . S
C607 C608 1.407 . S
C608 C607 1.407 . S
C608 C609 1.365 . S
C609 H597 0.930 . S
C609 C608 1.365 . S
C609 C610 1.393 . S
C610 C609 1.393 . S
C610 C611 1.387 . S
C611 H598 0.930 . S
C611 C606 1.415 . S
C611 C610 1.387 . S
C612 C613 1.387 1_455 S
C612 H616 0.950 . S
C612 C621 1.390 . S
C613 C612 1.387 1_655 S
C613 C615 1.387 . S
H614 C621 0.950 . S
C615 C613 1.387 . S
C615 C617 1.390 . S
C615 H619 0.950 . S
H616 C612 0.950 . S
C617 C615 1.390 . S
C617 C618 1.387 . S
C617 H620 0.950 . S
C618 C617 1.387 . S
C618 C621 1.387 1_655 S
H619 C615 0.950 . S
H620 C617 0.950 . S
C621 C612 1.390 . S
C621 H614 0.950 . S
C621 C618 1.387 1_455 S
C622 C623 1.387 . S
C622 H626 0.950 . S
C622 C631 1.390 . S
C623 C622 1.387 . S
C623 C625 1.387 . S
H624 C631 0.950 . S
C625 C623 1.387 . S
C625 C627 1.390 . S
C625 H629 0.950 . S
H626 C622 0.950 . S
C627 C625 1.390 . S
C627 C628 1.387 . S
C627 H630 0.950 . S
C628 C627 1.387 . S
C628 C631 1.387 . S
H629 C625 0.950 . S
H630 C627 0.950 . S
C631 C622 1.390 . S
C631 H624 0.950 . S
C631 C628 1.387 . S
C632 C633 1.387 1_565 S
C632 H636 0.950 . S
C632 C641 1.390 . S
C633 C632 1.387 1_545 S
C633 C635 1.387 . S
H634 C641 0.950 . S
C635 C633 1.387 . S
C635 C637 1.390 . S
C635 H639 0.950 . S
H636 C632 0.950 . S
C637 C635 1.390 . S
C637 C638 1.387 . S
C637 H640 0.950 . S
C638 C637 1.387 . S
C638 C641 1.387 1_545 S
H639 C635 0.950 . S
H640 C637 0.950 . S
C641 C632 1.390 . S
C641 H634 0.950 . S
C641 C638 1.387 1_565 S
C642 C643 1.387 1_545 S
C642 H646 0.950 . S
C642 C651 1.390 . S
C643 C642 1.387 1_565 S
C643 C645 1.387 . S
H644 C651 0.950 . S
C645 C643 1.387 . S
C645 C647 1.390 . S
C645 H649 0.950 . S
H646 C642 0.950 . S
C647 C645 1.390 . S
C647 C648 1.387 . S
C647 H650 0.950 . S
C648 C647 1.387 . S
C648 C651 1.387 1_565 S
H649 C645 0.950 . S
H650 C647 0.950 . S
C651 C642 1.390 . S
C651 H644 0.950 . S
C651 C648 1.387 1_545 S
C652 C653 1.387 1_655 S
C652 H656 0.950 . S
C652 C661 1.390 . S
C653 C652 1.387 1_455 S
C653 C655 1.387 . S
H654 C661 0.950 . S
C655 C653 1.387 . S
C655 C657 1.390 . S
C655 H659 0.950 . S
H656 C652 0.950 . S
C657 C655 1.390 . S
C657 C658 1.387 . S
C657 H660 0.950 . S
C658 C657 1.387 . S
C658 C661 1.387 1_455 S
H659 C655 0.950 . S
H660 C657 0.950 . S
C661 C652 1.390 . S
C661 H654 0.950 . S
C661 C658 1.387 1_655 S
C662 C663 1.387 . S
C662 H666 0.950 . S
C662 C671 1.390 . S
C663 C662 1.387 . S
C663 C665 1.387 . S
H664 C671 0.950 . S
C665 C663 1.387 . S
C665 C667 1.390 . S
C665 H669 0.950 . S
H666 C662 0.950 . S
C667 C665 1.390 . S
C667 C668 1.387 . S
C667 H670 0.950 . S
C668 C667 1.387 . S
C668 C671 1.387 . S
H669 C665 0.950 . S
H670 C667 0.950 . S
C671 C662 1.390 . S
C671 H664 0.950 . S
C671 C668 1.387 . S
C672 C673 1.387 1_655 S
C672 H676 0.950 . S
C672 C681 1.390 . S
C673 C672 1.387 1_455 S
C673 C675 1.387 . S
H674 C681 0.950 . S
C675 C673 1.387 . S
C675 C677 1.390 . S
C675 H679 0.950 . S
H676 C672 0.950 . S
C677 C675 1.390 . S
C677 C678 1.387 . S
C677 H680 0.950 . S
C678 C677 1.387 . S
C678 C681 1.387 1_455 S
H679 C675 0.950 . S
H680 C677 0.950 . S
C681 C672 1.390 . S
C681 H674 0.950 . S
C681 C678 1.387 1_655 S
C682 C683 1.387 . S
C682 H686 0.950 . S
C682 C691 1.390 . S
C683 C682 1.387 . S
C683 C685 1.387 . S
H684 C691 0.950 . S
C685 C683 1.387 . S
C685 C687 1.390 . S
C685 H689 0.950 . S
H686 C682 0.950 . S
C687 C685 1.390 . S
C687 C688 1.387 . S
C687 H690 0.950 . S
C688 C687 1.387 . S
C688 C691 1.387 . S
H689 C685 0.950 . S
H690 C687 0.950 . S
C691 C682 1.390 . S
C691 H684 0.950 . S
C691 C688 1.387 . S
C692 C693 1.387 . S
C692 H696 0.950 . S
C692 C701 1.390 . S
C693 C692 1.387 . S
C693 C695 1.387 1_565 S
H694 C701 0.950 . S
C695 C693 1.387 1_545 S
C695 C697 1.390 . S
C695 H699 0.950 . S
H696 C692 0.950 . S
C697 C695 1.390 . S
C697 C698 1.387 1_545 S
C697 H700 0.950 . S
C698 C697 1.387 1_565 S
C698 C701 1.387 . S
H699 C695 0.950 . S
H700 C697 0.950 . S
C701 C692 1.390 . S
C701 H694 0.950 . S
C701 C698 1.387 . S
C702 C703 1.387 . S
C702 H706 0.950 . S
C702 C711 1.390 . S
C703 C702 1.387 . S
C703 C705 1.387 1_545 S
H704 C711 0.950 . S
C705 C703 1.387 1_565 S
C705 C707 1.390 . S
C705 H709 0.950 . S
H706 C702 0.950 . S
C707 C705 1.390 . S
C707 C708 1.387 1_565 S
C707 H710 0.950 . S
C708 C707 1.387 1_545 S
C708 C711 1.387 . S
H709 C705 0.950 . S
H710 C707 0.950 . S
C711 C702 1.390 . S
C711 H704 0.950 . S
C711 C708 1.387 . S
C712 C713 1.387 1_455 S
C712 H716 0.950 . S
C712 C721 1.390 . S
C713 C712 1.387 1_655 S
C713 C715 1.387 . S
H714 C721 0.950 . S
C715 C713 1.387 . S
C715 C717 1.390 . S
C715 H719 0.950 . S
H716 C712 0.950 . S
C717 C715 1.390 . S
C717 C718 1.387 . S
C717 H720 0.950 . S
C718 C717 1.387 . S
C718 C721 1.387 1_655 S
H719 C715 0.950 . S
H720 C717 0.950 . S
C721 C712 1.390 . S
C721 H714 0.950 . S
C721 C718 1.387 1_455 S
C722 C723 1.387 . S
C722 H726 0.950 . S
C722 C731 1.390 . S
C723 C722 1.387 . S
C723 C725 1.387 . S
H724 C731 0.950 . S
C725 C723 1.387 . S
C725 C727 1.390 . S
C725 H729 0.950 . S
H726 C722 0.950 . S
C727 C725 1.390 . S
C727 C728 1.387 . S
C727 H730 0.950 . S
C728 C727 1.387 . S
C728 C731 1.387 . S
H729 C725 0.950 . S
H730 C727 0.950 . S
C731 C722 1.390 . S
C731 H724 0.950 . S
C731 C728 1.387 . S
C732 C733 1.387 . S
C732 H736 0.950 . S
C732 C741 1.390 . S
C733 C732 1.387 . S
C733 C735 1.387 . S
H734 C741 0.950 . S
C735 C733 1.387 . S
C735 C737 1.390 . S
C735 H739 0.950 . S
H736 C732 0.950 . S
C737 C735 1.390 . S
C737 C738 1.387 . S
C737 H740 0.950 . S
C738 C737 1.387 . S
C738 C741 1.387 . S
H739 C735 0.950 . S
H740 C737 0.950 . S
C741 C732 1.390 . S
C741 H734 0.950 . S
C741 C738 1.387 . S
C742 C743 1.387 . S
C742 H746 0.950 . S
C742 C751 1.390 . S
C743 C742 1.387 . S
C743 C745 1.387 . S
H744 C751 0.950 . S
C745 C743 1.387 . S
C745 C747 1.390 . S
C745 H749 0.950 . S
H746 C742 0.950 . S
C747 C745 1.390 . S
C747 C748 1.387 . S
C747 H750 0.950 . S
C748 C747 1.387 . S
C748 C751 1.387 . S
H749 C745 0.950 . S
H750 C747 0.950 . S
C751 C742 1.390 . S
C751 H744 0.950 . S
C751 C748 1.387 . S
C752 C753 1.387 . S
C752 H756 0.950 . S
C752 C761 1.390 . S
C753 C752 1.387 . S
C753 C755 1.387 . S
H754 C761 0.950 . S
C755 C753 1.387 . S
C755 C757 1.390 . S
C755 H759 0.950 . S
H756 C752 0.950 . S
C757 C755 1.390 . S
C757 C758 1.387 . S
C757 H760 0.950 . S
C758 C757 1.387 . S
C758 C761 1.387 . S
H759 C755 0.950 . S
H760 C757 0.950 . S
C761 C752 1.390 . S
C761 H754 0.950 . S
C761 C758 1.387 . S
C762 C763 1.387 . S
C762 H766 0.950 . S
C762 C771 1.390 . S
C763 C762 1.387 . S
C763 C765 1.387 . S
H764 C771 0.950 . S
C765 C763 1.387 . S
C765 C767 1.390 . S
C765 H769 0.950 . S
H766 C762 0.950 . S
C767 C765 1.390 . S
C767 C768 1.387 . S
C767 H770 0.950 . S
C768 C767 1.387 . S
C768 C771 1.387 . S
H769 C765 0.950 . S
H770 C767 0.950 . S
C771 C762 1.390 . S
C771 H764 0.950 . S
C771 C768 1.387 . S
C772 C773 1.387 . S
C772 H776 0.950 . S
C772 C781 1.390 . S
C773 C772 1.387 . S
C773 C775 1.387 . S
H774 C781 0.950 . S
C775 C773 1.387 . S
C775 C777 1.390 . S
C775 H779 0.950 . S
H776 C772 0.950 . S
C777 C775 1.390 . S
C777 C778 1.387 . S
C777 H780 0.950 . S
C778 C777 1.387 . S
C778 C781 1.387 . S
H779 C775 0.950 . S
H780 C777 0.950 . S
C781 C772 1.390 . S
C781 H774 0.950 . S
C781 C778 1.387 . S
C782 C783 1.387 . S
C782 H786 0.950 . S
C782 C791 1.390 . S
C783 C782 1.387 . S
C783 C785 1.387 . S
H784 C791 0.950 . S
C785 C783 1.387 . S
C785 C787 1.390 . S
C785 H789 0.950 . S
H786 C782 0.950 . S
C787 C785 1.390 . S
C787 C788 1.387 . S
C787 H790 0.950 . S
C788 C787 1.387 . S
C788 C791 1.387 . S
H789 C785 0.950 . S
H790 C787 0.950 . S
C791 C782 1.390 . S
C791 H784 0.950 . S
C791 C788 1.387 . S
C792 C793 1.387 . S
C792 H796 0.950 . S
C792 C801 1.390 . S
C793 C792 1.387 . S
C793 C795 1.387 . S
H794 C801 0.950 . S
C795 C793 1.387 . S
C795 C797 1.390 . S
C795 H799 0.950 . S
H796 C792 0.950 . S
C797 C795 1.390 . S
C797 C798 1.387 . S
C797 H800 0.950 . S
C798 C797 1.387 . S
C798 C801 1.387 . S
H799 C795 0.950 . S
H800 C797 0.950 . S
C801 C792 1.390 . S
C801 H794 0.950 . S
C801 C798 1.387 . S
C802 C803 1.387 . S
C802 H806 0.950 . S
C802 C811 1.390 . S
C803 C802 1.387 . S
C803 C805 1.387 . S
H804 C811 0.950 . S
C805 C803 1.387 . S
C805 C807 1.390 . S
C805 H809 0.950 . S
H806 C802 0.950 . S
C807 C805 1.390 . S
C807 C808 1.387 . S
C807 H810 0.950 . S
C808 C807 1.387 . S
C808 C811 1.387 . S
H809 C805 0.950 . S
H810 C807 0.950 . S
C811 C802 1.390 . S
C811 H804 0.950 . S
C811 C808 1.387 . S
C812 C813 1.387 . S
C812 H816 0.950 . S
C812 C821 1.390 . S
C813 C812 1.387 . S
C813 C815 1.387 . S
H814 C821 0.950 . S
C815 C813 1.387 . S
C815 C817 1.390 . S
C815 H819 0.950 . S
H816 C812 0.950 . S
C817 C815 1.390 . S
C817 C818 1.387 . S
C817 H820 0.950 . S
C818 C817 1.387 . S
C818 C821 1.387 . S
H819 C815 0.950 . S
H820 C817 0.950 . S
C821 C812 1.390 . S
C821 H814 0.950 . S
C821 C818 1.387 . S
C822 C823 1.387 . S
C822 H826 0.950 . S
C822 C831 1.390 . S
C823 C822 1.387 . S
C823 C825 1.387 . S
H824 C831 0.950 . S
C825 C823 1.387 . S
C825 C827 1.390 . S
C825 H829 0.950 . S
H826 C822 0.950 . S
C827 C825 1.390 . S
C827 C828 1.387 . S
C827 H830 0.950 . S
C828 C827 1.387 . S
C828 C831 1.387 . S
H829 C825 0.950 . S
H830 C827 0.950 . S
C831 C822 1.390 . S
C831 H824 0.950 . S
C831 C828 1.387 . S
C832 C833 1.387 . S
C832 H836 0.950 . S
C832 C841 1.390 . S
C833 C832 1.387 . S
C833 C835 1.387 . S
H834 C841 0.950 . S
C835 C833 1.387 . S
C835 C837 1.390 . S
C835 H839 0.950 . S
H836 C832 0.950 . S
C837 C835 1.390 . S
C837 C838 1.387 . S
C837 H840 0.950 . S
C838 C837 1.387 . S
C838 C841 1.387 . S
H839 C835 0.950 . S
H840 C837 0.950 . S
C841 C832 1.390 . S
C841 H834 0.950 . S
C841 C838 1.387 . S
C842 C843 1.387 . S
C842 H846 0.950 . S
C842 C851 1.390 . S
C843 C842 1.387 . S
C843 C845 1.387 . S
H844 C851 0.950 . S
C845 C843 1.387 . S
C845 C847 1.390 . S
C845 H849 0.950 . S
H846 C842 0.950 . S
C847 C845 1.390 . S
C847 C848 1.387 . S
C847 H850 0.950 . S
C848 C847 1.387 . S
C848 C851 1.387 . S
H849 C845 0.950 . S
H850 C847 0.950 . S
C851 C842 1.390 . S
C851 H844 0.950 . S
C851 C848 1.387 . S
C852 C853 1.387 . S
C852 H856 0.950 . S
C852 C861 1.390 . S
C853 C852 1.387 . S
C853 C855 1.387 . S
H854 C861 0.950 . S
C855 C853 1.387 . S
C855 C857 1.390 . S
C855 H859 0.950 . S
H856 C852 0.950 . S
C857 C855 1.390 . S
C857 C858 1.387 . S
C857 H860 0.950 . S
C858 C857 1.387 . S
C858 C861 1.387 . S
H859 C855 0.950 . S
H860 C857 0.950 . S
C861 C852 1.390 . S
C861 H854 0.950 . S
C861 C858 1.387 . S
C862 C863 1.387 . S
C862 H866 0.950 . S
C862 C871 1.390 . S
C863 C862 1.387 . S
C863 C865 1.387 . S
H864 C871 0.950 . S
C865 C863 1.387 . S
C865 C867 1.390 . S
C865 H869 0.950 . S
H866 C862 0.950 . S
C867 C865 1.390 . S
C867 C868 1.387 . S
C867 H870 0.950 . S
C868 C867 1.387 . S
C868 C871 1.387 . S
H869 C865 0.950 . S
H870 C867 0.950 . S
C871 C862 1.390 . S
C871 H864 0.950 . S
C871 C868 1.387 . S
C872 C873 1.387 . S
C872 H876 0.950 . S
C872 C881 1.390 . S
C873 C872 1.387 . S
C873 C875 1.387 . S
H874 C881 0.950 . S
C875 C873 1.387 . S
C875 C877 1.390 . S
C875 H879 0.950 . S
H876 C872 0.950 . S
C877 C875 1.390 . S
C877 C878 1.387 . S
C877 H880 0.950 . S
C878 C877 1.387 . S
C878 C881 1.387 . S
H879 C875 0.950 . S
H880 C877 0.950 . S
C881 C872 1.390 . S
C881 H874 0.950 . S
C881 C878 1.387 . S
C882 C883 1.387 . S
C882 H886 0.950 . S
C882 C891 1.390 . S
C883 C882 1.387 . S
C883 C885 1.387 . S
H884 C891 0.950 . S
C885 C883 1.387 . S
C885 C887 1.390 . S
C885 H889 0.950 . S
H886 C882 0.950 . S
C887 C885 1.390 . S
C887 C888 1.387 . S
C887 H890 0.950 . S
C888 C887 1.387 . S
C888 C891 1.387 . S
H889 C885 0.950 . S
H890 C887 0.950 . S
C891 C882 1.390 . S
C891 H884 0.950 . S
C891 C888 1.387 . S
C892 C893 1.387 . S
C892 H896 0.950 . S
C892 C901 1.390 . S
C893 C892 1.387 . S
C893 C895 1.387 . S
H894 C901 0.950 . S
C895 C893 1.387 . S
C895 C897 1.390 . S
C895 H899 0.950 . S
H896 C892 0.950 . S
C897 C895 1.390 . S
C897 C898 1.387 . S
C897 H900 0.950 . S
C898 C897 1.387 . S
C898 C901 1.387 . S
H899 C895 0.950 . S
H900 C897 0.950 . S
C901 C892 1.390 . S
C901 H894 0.950 . S
C901 C898 1.387 . S
C902 C903 1.387 . S
C902 H906 0.950 . S
C902 C911 1.390 . S
C903 C902 1.387 . S
C903 C905 1.387 . S
H904 C911 0.950 . S
C905 C903 1.387 . S
C905 C907 1.390 . S
C905 H909 0.950 . S
H906 C902 0.950 . S
C907 C905 1.390 . S
C907 C908 1.387 . S
C907 H910 0.950 . S
C908 C907 1.387 . S
C908 C911 1.387 . S
H909 C905 0.950 . S
H910 C907 0.950 . S
C911 C902 1.390 . S
C911 H904 0.950 . S
C911 C908 1.387 . S
C912 C913 1.387 . S
C912 H916 0.950 . S
C912 C921 1.390 . S
C913 C912 1.387 . S
C913 C915 1.387 . S
H914 C921 0.950 . S
C915 C913 1.387 . S
C915 C917 1.390 . S
C915 H919 0.950 . S
H916 C912 0.950 . S
C917 C915 1.390 . S
C917 C918 1.387 . S
C917 H920 0.950 . S
C918 C917 1.387 . S
C918 C921 1.387 . S
H919 C915 0.950 . S
H920 C917 0.950 . S
C921 C912 1.390 . S
C921 H914 0.950 . S
C921 C918 1.387 . S
C922 C923 1.387 . S
C922 H926 0.950 . S
C922 C931 1.390 . S
C923 C922 1.387 . S
C923 C925 1.387 . S
H924 C931 0.950 . S
C925 C923 1.387 . S
C925 C927 1.390 . S
C925 H929 0.950 . S
H926 C922 0.950 . S
C927 C925 1.390 . S
C927 C928 1.387 . S
C927 H930 0.950 . S
C928 C927 1.387 . S
C928 C931 1.387 . S
H929 C925 0.950 . S
H930 C927 0.950 . S
C931 C922 1.390 . S
C931 H924 0.950 . S
C931 C928 1.387 . S
C932 C933 1.387 . S
C932 H936 0.950 . S
C932 C941 1.390 . S
C933 C932 1.387 . S
C933 C935 1.387 . S
H934 C941 0.950 . S
C935 C933 1.387 . S
C935 C937 1.390 . S
C935 H939 0.950 . S
H936 C932 0.950 . S
C937 C935 1.390 . S
C937 C938 1.387 . S
C937 H940 0.950 . S
C938 C937 1.387 . S
C938 C941 1.387 . S
H939 C935 0.950 . S
H940 C937 0.950 . S
C941 C932 1.390 . S
C941 H934 0.950 . S
C941 C938 1.387 . S
C942 C943 1.387 . S
C942 H946 0.950 . S
C942 C951 1.390 . S
C943 C942 1.387 . S
C943 C945 1.387 . S
H944 C951 0.950 . S
C945 C943 1.387 . S
C945 C947 1.390 . S
C945 H949 0.950 . S
H946 C942 0.950 . S
C947 C945 1.390 . S
C947 C948 1.387 . S
C947 H950 0.950 . S
C948 C947 1.387 . S
C948 C951 1.387 . S
H949 C945 0.950 . S
H950 C947 0.950 . S
C951 C942 1.390 . S
C951 H944 0.950 . S
C951 C948 1.387 . S
C952 C953 1.387 . S
C952 H956 0.950 . S
C952 C961 1.390 . S
C953 C952 1.387 . S
C953 C955 1.387 . S
H954 C961 0.950 . S
C955 C953 1.387 . S
C955 C957 1.390 . S
C955 H959 0.950 . S
H956 C952 0.950 . S
C957 C955 1.390 . S
C957 C958 1.387 . S
C957 H960 0.950 . S
C958 C957 1.387 . S
C958 C961 1.387 . S
H959 C955 0.950 . S
H960 C957 0.950 . S
C961 C952 1.390 . S
C961 H954 0.950 . S
C961 C958 1.387 . S
C962 C963 1.387 . S
C962 H966 0.950 . S
C962 C971 1.390 . S
C963 C962 1.387 . S
C963 C965 1.387 . S
H964 C971 0.950 . S
C965 C963 1.387 . S
C965 C967 1.390 . S
C965 H969 0.950 . S
H966 C962 0.950 . S
C967 C965 1.390 . S
C967 C968 1.387 . S
C967 H970 0.950 . S
C968 C967 1.387 . S
C968 C971 1.387 . S
H969 C965 0.950 . S
H970 C967 0.950 . S
C971 C962 1.390 . S
C971 H964 0.950 . S
C971 C968 1.387 . S
C972 C973 1.387 . S
C972 H976 0.950 . S
C972 C981 1.390 . S
C973 C972 1.387 . S
C973 C975 1.387 . S
H974 C981 0.950 . S
C975 C973 1.387 . S
C975 C977 1.390 . S
C975 H979 0.950 . S
H976 C972 0.950 . S
C977 C975 1.390 . S
C977 C978 1.387 . S
C977 H980 0.950 . S
C978 C977 1.387 . S
C978 C981 1.387 . S
H979 C975 0.950 . S
H980 C977 0.950 . S
C981 C972 1.390 . S
C981 H974 0.950 . S
C981 C978 1.387 . S
C982 C983 1.387 . S
C982 H986 0.950 . S
C982 C991 1.390 . S
C983 C982 1.387 . S
C983 C985 1.387 . S
H984 C991 0.950 . S
C985 C983 1.387 . S
C985 C987 1.390 . S
C985 H989 0.950 1_554 S
H986 C982 0.950 . S
C987 C985 1.390 . S
C987 C988 1.387 . S
C987 H990 0.950 . S
C988 C987 1.387 . S
C988 C991 1.387 . S
H989 C985 0.950 1_556 S
H990 C987 0.950 . S
C991 C982 1.390 . S
C991 H984 0.950 . S
C991 C988 1.387 . S
C992 C993 1.387 . S
C992 H996 0.950 . S
C992 C1001 1.390 . S
C993 C992 1.387 . S
C993 C995 1.387 . S
H994 C1001 0.950 . S
C995 C993 1.387 . S
C995 C997 1.390 . S
C995 H999 0.950 . S
H996 C992 0.950 . S
C997 C995 1.390 . S
C997 C998 1.387 . S
C997 H1000 0.950 . S
C998 C997 1.387 . S
C998 C1001 1.387 . S
H999 C995 0.950 . S
H1000 C997 0.950 . S
C1001 C992 1.390 . S
C1001 H994 0.950 . S
C1001 C998 1.387 . S
C1002 C1003 1.387 1_554 S
C1002 H1006 0.950 . S
C1002 C1011 1.390 1_554 S
C1003 C1002 1.387 1_556 S
C1003 C1005 1.387 . S
H1004 C1011 0.950 1_554 S
C1005 C1003 1.387 . S
C1005 C1007 1.390 . S
C1005 H1009 0.950 . S
H1006 C1002 0.950 . S
C1007 C1005 1.390 . S
C1007 C1008 1.387 . S
C1007 H1010 0.950 . S
C1008 C1007 1.387 . S
C1008 C1011 1.387 . S
H1009 C1005 0.950 . S
H1010 C1007 0.950 . S
C1011 C1002 1.390 1_556 S
C1011 H1004 0.950 1_556 S
C1011 C1008 1.387 . S
C1012 C1013 1.387 . S
C1012 H1016 0.950 1_556 S
C1012 C1021 1.390 . S
C1013 C1012 1.387 . S
C1013 C1015 1.387 . S
H1014 C1021 0.950 . S
C1015 C1013 1.387 . S
C1015 C1017 1.390 . S
C1015 H1019 0.950 . S
H1016 C1012 0.950 1_554 S
C1017 C1015 1.390 . S
C1017 C1018 1.387 . S
C1017 H1020 0.950 . S
C1018 C1017 1.387 . S
C1018 C1021 1.387 . S
H1019 C1015 0.950 . S
H1020 C1017 0.950 . S
C1021 C1012 1.390 . S
C1021 H1014 0.950 . S
C1021 C1018 1.387 . S
C1022 C1023 1.387 . S
C1022 H1026 0.950 . S
C1022 C1031 1.390 . S
C1023 C1022 1.387 . S
C1023 C1025 1.390 . S
H1024 C1031 0.950 . S
C1025 C1023 1.390 . S
C1025 C1027 1.392 . S
C1025 H1029 0.945 1_556 S
H1026 C1022 0.950 . S
C1027 C1025 1.392 . S
C1027 C1028 1.387 . S
C1027 H1030 0.944 1_556 S
C1028 C1027 1.387 . S
C1028 C1031 1.387 . S
H1029 C1025 0.945 1_554 S
H1030 C1027 0.944 1_554 S
C1031 C1022 1.390 . S
C1031 H1024 0.950 . S
C1031 C1028 1.387 . S
C1032 C1033 1.387 . S
C1032 H1036 0.950 . S
C1032 C1041 1.390 . S
C1033 C1032 1.387 . S
C1033 C1035 1.387 . S
H1034 C1041 0.950 . S
C1035 C1033 1.387 . S
C1035 C1037 1.390 . S
C1035 H1039 0.950 . S
H1036 C1032 0.950 . S
C1037 C1035 1.390 . S
C1037 C1038 1.387 . S
C1037 H1040 0.950 . S
C1038 C1037 1.387 . S
C1038 C1041 1.387 . S
H1039 C1035 0.950 . S
H1040 C1037 0.950 . S
C1041 C1032 1.390 . S
C1041 H1034 0.950 . S
C1041 C1038 1.387 . S
C1042 C1043 1.387 . S
C1042 H1046 0.950 . S
C1042 C1051 1.390 . S
C1043 C1042 1.387 . S
C1043 C1045 1.387 . S
H1044 C1051 0.950 . S
C1045 C1043 1.387 . S
C1045 C1047 1.390 . S
C1045 H1049 0.950 . S
H1046 C1042 0.950 . S
C1047 C1045 1.390 . S
C1047 C1048 1.387 . S
C1047 H1050 0.950 . S
C1048 C1047 1.387 . S
C1048 C1051 1.387 . S
H1049 C1045 0.950 . S
H1050 C1047 0.950 . S
C1051 C1042 1.390 . S
C1051 H1044 0.950 . S
C1051 C1048 1.387 . S
C1052 C1053 1.387 . S
C1052 H1056 0.950 . S
C1052 C1061 1.390 . S
C1053 C1052 1.387 . S
C1053 C1055 1.387 . S
H1054 C1061 0.950 . S
C1055 C1053 1.387 . S
C1055 C1057 1.390 . S
C1055 H1059 0.950 . S
H1056 C1052 0.950 . S
C1057 C1055 1.390 . S
C1057 C1058 1.387 . S
C1057 H1060 0.950 . S
C1058 C1057 1.387 . S
C1058 C1061 1.387 . S
H1059 C1055 0.950 . S
H1060 C1057 0.950 . S
C1061 C1052 1.390 . S
C1061 H1054 0.950 . S
C1061 C1058 1.387 . S
C1062 C1063 1.387 . S
C1062 H1066 0.950 . S
C1062 C1071 1.390 . S
C1063 C1062 1.387 . S
C1063 C1065 1.387 . S
H1064 C1071 0.950 . S
C1065 C1063 1.387 . S
C1065 C1067 1.390 . S
C1065 H1069 0.950 1_554 S
H1066 C1062 0.950 . S
C1067 C1065 1.390 . S
C1067 C1068 1.387 . S
C1067 H1070 0.950 . S
C1068 C1067 1.387 . S
C1068 C1071 1.387 . S
H1069 C1065 0.950 1_556 S
H1070 C1067 0.950 . S
C1071 C1062 1.390 . S
C1071 H1064 0.950 . S
C1071 C1068 1.387 . S
C1072 C1073 1.387 . S
C1072 H1076 0.950 . S
C1072 C1081 1.390 . S
C1073 C1072 1.387 . S
C1073 C1075 1.387 . S
H1074 C1081 0.950 . S
C1075 C1073 1.387 . S
C1075 C1077 1.390 . S
C1075 H1079 0.950 1_554 S
H1076 C1072 0.950 . S
C1077 C1075 1.390 . S
C1077 C1078 1.387 . S
C1077 H1080 0.950 . S
C1078 C1077 1.387 . S
C1078 C1081 1.387 . S
H1079 C1075 0.950 1_556 S
H1080 C1077 0.950 . S
C1081 C1072 1.390 . S
C1081 H1074 0.950 . S
C1081 C1078 1.387 . S
C1082 C1083 1.387 . S
C1082 H1086 0.950 1_554 S
C1082 C1091 1.390 . S
C1083 C1082 1.387 . S
C1083 C1085 1.387 . S
H1084 C1091 0.950 . S
C1085 C1083 1.387 . S
C1085 C1087 1.390 . S
C1085 H1089 0.950 . S
H1086 C1082 0.950 1_556 S
C1087 C1085 1.390 . S
C1087 C1088 1.387 . S
C1087 H1090 0.950 . S
C1088 C1087 1.387 . S
C1088 C1091 1.387 . S
H1089 C1085 0.950 . S
H1090 C1087 0.950 . S
C1091 C1082 1.390 . S
C1091 H1084 0.950 . S
C1091 C1088 1.387 . S
C1092 C1093 1.387 . S
C1092 H1096 0.950 . S
C1092 C1101 1.390 . S
C1093 C1092 1.387 . S
C1093 C1095 1.387 . S
H1094 C1101 0.950 . S
C1095 C1093 1.387 . S
C1095 C1097 1.390 . S
C1095 H1099 0.950 . S
H1096 C1092 0.950 . S
C1097 C1095 1.390 . S
C1097 C1098 1.387 . S
C1097 H1100 0.950 . S
C1098 C1097 1.387 . S
C1098 C1101 1.387 . S
H1099 C1095 0.950 . S
H1100 C1097 0.950 . S
C1101 C1092 1.390 . S
C1101 H1094 0.950 . S
C1101 C1098 1.387 . S
C1102 C1103 1.387 . S
C1102 H1106 0.950 . S
C1102 C1111 1.390 . S
C1103 C1102 1.387 . S
C1103 C1105 1.387 . S
H1104 C1111 0.950 . S
C1105 C1103 1.387 . S
C1105 C1107 1.390 . S
C1105 H1109 0.950 . S
H1106 C1102 0.950 . S
C1107 C1105 1.390 . S
C1107 C1108 1.387 . S
C1107 H1110 0.950 . S
C1108 C1107 1.387 . S
C1108 C1111 1.387 . S
H1109 C1105 0.950 . S
H1110 C1107 0.950 . S
C1111 C1102 1.390 . S
C1111 H1104 0.950 . S
C1111 C1108 1.387 . S
C1112 C1113 1.387 . S
C1112 H1116 0.950 . S
C1112 C1121 1.390 . S
C1113 C1112 1.387 . S
C1113 C1115 1.387 . S
H1114 C1121 0.950 . S
C1115 C1113 1.387 . S
C1115 C1117 1.390 . S
C1115 H1119 0.950 . S
H1116 C1112 0.950 . S
C1117 C1115 1.390 . S
C1117 C1118 1.387 . S
C1117 H1120 0.950 . S
C1118 C1117 1.387 . S
C1118 C1121 1.387 . S
H1119 C1115 0.950 . S
H1120 C1117 0.950 . S
C1121 C1112 1.390 . S
C1121 H1114 0.950 . S
C1121 C1118 1.387 . S
C1122 C1123 1.387 . S
C1122 H1126 0.950 . S
C1122 C1131 1.390 . S
C1123 C1122 1.387 . S
C1123 C1125 1.387 . S
H1124 C1131 0.952 . S
C1125 C1123 1.387 . S
C1125 C1127 1.390 . S
C1125 H1129 0.950 . S
H1126 C1122 0.950 . S
C1127 C1125 1.390 . S
C1127 C1128 1.387 . S
C1127 H1130 0.950 . S
C1128 C1127 1.387 . S
C1128 C1131 1.387 . S
H1129 C1125 0.950 . S
H1130 C1127 0.950 . S
C1131 C1122 1.390 . S
C1131 H1124 0.952 . S
C1131 C1128 1.387 . S
C1132 C1133 1.387 . S
C1132 H1136 0.950 . S
C1132 C1141 1.390 . S
C1133 C1132 1.387 . S
C1133 C1135 1.387 . S
H1134 C1141 0.950 . S
C1135 C1133 1.387 . S
C1135 C1137 1.390 . S
C1135 H1139 0.950 . S
H1136 C1132 0.950 . S
C1137 C1135 1.390 . S
C1137 C1138 1.387 . S
C1137 H1140 0.950 . S
C1138 C1137 1.387 . S
C1138 C1141 1.387 . S
H1139 C1135 0.950 . S
H1140 C1137 0.950 . S
C1141 C1132 1.390 . S
C1141 H1134 0.950 . S
C1141 C1138 1.387 . S
C1142 C1143 1.387 1_545 S
C1142 H1146 0.950 . S
C1142 C1151 1.390 . S
C1143 C1142 1.387 1_565 S
C1143 C1145 1.387 . S
H1144 C1151 0.950 . S
C1145 C1143 1.387 . S
C1145 C1147 1.390 . S
C1145 H1149 0.950 . S
H1146 C1142 0.950 . S
C1147 C1145 1.390 . S
C1147 C1148 1.387 . S
C1147 H1150 0.950 . S
C1148 C1147 1.387 . S
C1148 C1151 1.387 1_565 S
H1149 C1145 0.950 . S
H1150 C1147 0.950 . S
C1151 C1142 1.390 . S
C1151 H1144 0.950 . S
C1151 C1148 1.387 1_545 S
C1152 C1153 1.387 . S
C1152 H1156 0.950 . S
C1152 C1161 1.390 . S
C1153 C1152 1.387 . S
C1153 C1155 1.387 1_565 S
H1154 C1161 0.950 . S
C1155 C1153 1.387 1_545 S
C1155 C1157 1.390 . S
C1155 H1159 0.950 . S
H1156 C1152 0.950 . S
C1157 C1155 1.390 . S
C1157 C1158 1.387 1_545 S
C1157 H1160 0.950 . S
C1158 C1157 1.387 1_565 S
C1158 C1161 1.387 . S
H1159 C1155 0.950 . S
H1160 C1157 0.950 . S
C1161 C1152 1.390 . S
C1161 H1154 0.950 . S
C1161 C1158 1.387 . S
C1162 C1163 1.387 . S
C1162 H1166 0.950 . S
C1162 C1171 1.390 . S
C1163 C1162 1.387 . S
C1163 C1165 1.393 . S
H1164 C1171 0.950 . S
C1165 C1163 1.393 . S
C1165 C1167 1.401 1_455 S
C1165 H1169 0.934 1_455 S
H1166 C1162 0.950 . S
C1167 C1165 1.401 1_655 S
C1167 C1168 1.387 1_655 S
C1167 H1170 0.950 . S
C1168 C1167 1.387 1_455 S
C1168 C1171 1.387 . S
H1169 C1165 0.934 1_655 S
H1170 C1167 0.950 . S
C1171 C1162 1.390 . S
C1171 H1164 0.950 . S
C1171 C1168 1.387 . S
C1172 C1173 1.387 . S
C1172 H1176 0.950 . S
C1172 C1181 1.390 . S
C1173 C1172 1.387 . S
C1173 C1175 1.387 . S
H1174 C1181 0.950 . S
C1175 C1173 1.387 . S
C1175 C1177 1.390 . S
C1175 H1179 0.950 . S
H1176 C1172 0.950 . S
C1177 C1175 1.390 . S
C1177 C1178 1.387 . S
C1177 H1180 0.950 . S
C1178 C1177 1.387 . S
C1178 C1181 1.387 . S
H1179 C1175 0.950 . S
H1180 C1177 0.950 . S
C1181 C1172 1.390 . S
C1181 H1174 0.950 . S
C1181 C1178 1.387 . S
C1182 C1183 1.387 . S
C1182 H1186 0.950 . S
C1182 C1191 1.390 . S
C1183 C1182 1.387 . S
C1183 C1185 1.387 . S
H1184 C1191 0.950 . S
C1185 C1183 1.387 . S
C1185 C1187 1.390 . S
C1185 H1189 0.950 . S
H1186 C1182 0.950 . S
C1187 C1185 1.390 . S
C1187 C1188 1.387 . S
C1187 H1190 0.950 . S
C1188 C1187 1.387 . S
C1188 C1191 1.387 . S
H1189 C1185 0.950 . S
H1190 C1187 0.950 . S
C1191 C1182 1.390 . S
C1191 H1184 0.950 . S
C1191 C1188 1.387 . S
C1192 C1193 1.387 . S
C1192 H1196 0.950 . S
C1192 C1201 1.390 . S
C1193 C1192 1.387 . S
C1193 C1195 1.387 . S
H1194 C1201 0.950 . S
C1195 C1193 1.387 . S
C1195 C1197 1.390 . S
C1195 H1199 0.950 . S
H1196 C1192 0.950 . S
C1197 C1195 1.390 . S
C1197 C1198 1.387 . S
C1197 H1200 0.950 . S
C1198 C1197 1.387 . S
C1198 C1201 1.387 . S
H1199 C1195 0.950 . S
H1200 C1197 0.950 . S
C1201 C1192 1.390 . S
C1201 H1194 0.950 . S
C1201 C1198 1.387 . S
C1202 C1203 1.387 . S
C1202 H1206 0.950 . S
C1202 C1211 1.390 . S
C1203 C1202 1.387 . S
C1203 C1205 1.387 . S
H1204 C1211 0.950 . S
C1205 C1203 1.387 . S
C1205 C1207 1.390 . S
C1205 H1209 0.950 . S
H1206 C1202 0.950 . S
C1207 C1205 1.390 . S
C1207 C1208 1.387 . S
C1207 H1210 0.950 . S
C1208 C1207 1.387 . S
C1208 C1211 1.387 . S
H1209 C1205 0.950 . S
H1210 C1207 0.950 . S
C1211 C1202 1.390 . S
C1211 H1204 0.950 . S
C1211 C1208 1.387 . S
C1212 C1213 1.387 1_565 S
C1212 H1216 0.950 . S
C1212 C1221 1.390 . S
C1213 C1212 1.387 1_545 S
C1213 C1215 1.387 . S
H1214 C1221 0.950 . S
C1215 C1213 1.387 . S
C1215 C1217 1.390 . S
C1215 H1219 0.950 . S
H1216 C1212 0.950 . S
C1217 C1215 1.390 . S
C1217 C1218 1.387 . S
C1217 H1220 0.950 . S
C1218 C1217 1.387 . S
C1218 C1221 1.387 1_545 S
H1219 C1215 0.950 . S
H1220 C1217 0.950 . S
C1221 C1212 1.390 . S
C1221 H1214 0.950 . S
C1221 C1218 1.387 1_565 S
C1222 C1223 1.387 1_455 S
C1222 H1226 0.950 . S
C1222 C1231 1.390 . S
C1223 C1222 1.387 1_655 S
C1223 C1225 1.387 . S
H1224 C1231 0.950 . S
C1225 C1223 1.387 . S
C1225 C1227 1.390 . S
C1225 H1229 0.950 . S
H1226 C1222 0.950 . S
C1227 C1225 1.390 . S
C1227 C1228 1.387 . S
C1227 H1230 0.950 . S
C1228 C1227 1.387 . S
C1228 C1231 1.387 1_655 S
H1229 C1225 0.950 . S
H1230 C1227 0.950 . S
C1231 C1222 1.390 . S
C1231 H1224 0.950 . S
C1231 C1228 1.387 1_455 S
C1232 C1233 1.387 . S
C1232 H1236 0.950 . S
C1232 C1241 1.390 . S
C1233 C1232 1.387 . S
C1233 C1235 1.387 . S
H1234 C1241 0.950 . S
C1235 C1233 1.387 . S
C1235 C1237 1.390 . S
C1235 H1239 0.950 . S
H1236 C1232 0.950 . S
C1237 C1235 1.390 . S
C1237 C1238 1.387 . S
C1237 H1240 0.950 . S
C1238 C1237 1.387 . S
C1238 C1241 1.387 . S
H1239 C1235 0.950 . S
H1240 C1237 0.950 . S
C1241 C1232 1.390 . S
C1241 H1234 0.950 . S
C1241 C1238 1.387 . S
C1242 C1243 1.387 . S
C1242 H1246 0.950 . S
C1242 C1251 1.390 . S
C1243 C1242 1.387 . S
C1243 C1245 1.387 . S
H1244 C1251 0.950 . S
C1245 C1243 1.387 . S
C1245 C1247 1.390 . S
C1245 H1249 0.950 . S
H1246 C1242 0.950 . S
C1247 C1245 1.390 . S
C1247 C1248 1.387 . S
C1247 H1250 0.950 . S
C1248 C1247 1.387 . S
C1248 C1251 1.387 . S
H1249 C1245 0.950 . S
H1250 C1247 0.950 . S
C1251 C1242 1.390 . S
C1251 H1244 0.950 . S
C1251 C1248 1.387 . S
C1252 C1253 1.387 . S
C1252 H1256 0.950 . S
C1252 C1261 1.390 . S
C1253 C1252 1.387 . S
C1253 C1255 1.387 . S
H1254 C1261 0.950 . S
C1255 C1253 1.387 . S
C1255 C1257 1.390 . S
C1255 H1259 0.950 . S
H1256 C1252 0.950 . S
C1257 C1255 1.390 . S
C1257 C1258 1.387 . S
C1257 H1260 0.950 . S
C1258 C1257 1.387 . S
C1258 C1261 1.387 . S
H1259 C1255 0.950 . S
H1260 C1257 0.950 . S
C1261 C1252 1.390 . S
C1261 H1254 0.950 . S
C1261 C1258 1.387 . S
C1262 C1263 1.387 . S
C1262 H1266 0.950 . S
C1262 C1271 1.390 . S
C1263 C1262 1.387 . S
C1263 C1265 1.387 . S
H1264 C1271 0.950 . S
C1265 C1263 1.387 . S
C1265 C1267 1.390 . S
C1265 H1269 0.950 . S
H1266 C1262 0.950 . S
C1267 C1265 1.390 . S
C1267 C1268 1.387 . S
C1267 H1270 0.950 . S
C1268 C1267 1.387 . S
C1268 C1271 1.387 . S
H1269 C1265 0.950 . S
H1270 C1267 0.950 . S
C1271 C1262 1.390 . S
C1271 H1264 0.950 . S
C1271 C1268 1.387 . S
C1272 C1273 1.387 . S
C1272 H1276 0.950 . S
C1272 C1281 1.390 . S
C1273 C1272 1.387 . S
C1273 C1275 1.387 . S
H1274 C1281 0.950 . S
C1275 C1273 1.387 . S
C1275 C1277 1.390 . S
C1275 H1279 0.950 . S
H1276 C1272 0.950 . S
C1277 C1275 1.390 . S
C1277 C1278 1.387 . S
C1277 H1280 0.950 . S
C1278 C1277 1.387 . S
C1278 C1281 1.387 . S
H1279 C1275 0.950 . S
H1280 C1277 0.950 . S
C1281 C1272 1.390 . S
C1281 H1274 0.950 . S
C1281 C1278 1.387 . S
C1282 C1283 1.387 . S
C1282 H1286 0.950 . S
C1282 C1291 1.390 . S
C1283 C1282 1.387 . S
C1283 C1285 1.387 . S
H1284 C1291 0.950 . S
C1285 C1283 1.387 . S
C1285 C1287 1.390 . S
C1285 H1289 0.950 . S
H1286 C1282 0.950 . S
C1287 C1285 1.390 . S
C1287 C1288 1.387 . S
C1287 H1290 0.950 . S
C1288 C1287 1.387 . S
C1288 C1291 1.387 . S
H1289 C1285 0.950 . S
H1290 C1287 0.950 . S
C1291 C1282 1.390 . S
C1291 H1284 0.950 . S
C1291 C1288 1.387 . S
C1292 C1293 1.387 . S
C1292 H1296 0.950 . S
C1292 C1301 1.390 . S
C1293 C1292 1.387 . S
C1293 C1295 1.387 . S
H1294 C1301 0.950 . S
C1295 C1293 1.387 . S
C1295 C1297 1.390 . S
C1295 H1299 0.950 . S
H1296 C1292 0.950 . S
C1297 C1295 1.390 . S
C1297 C1298 1.387 . S
C1297 H1300 0.950 . S
C1298 C1297 1.387 . S
C1298 C1301 1.387 . S
H1299 C1295 0.950 . S
H1300 C1297 0.950 . S
C1301 C1292 1.390 . S
C1301 H1294 0.950 . S
C1301 C1298 1.387 . S
C1302 C1303 1.387 . S
C1302 H1306 0.950 . S
C1302 C1311 1.390 . S
C1303 C1302 1.387 . S
C1303 C1305 1.387 1_655 S
H1304 C1311 0.950 . S
C1305 C1303 1.387 1_455 S
C1305 C1307 1.390 . S
C1305 H1309 0.950 . S
H1306 C1302 0.950 . S
C1307 C1305 1.390 . S
C1307 C1308 1.387 1_455 S
C1307 H1310 0.950 . S
C1308 C1307 1.387 1_655 S
C1308 C1311 1.387 . S
H1309 C1305 0.950 . S
H1310 C1307 0.950 . S
C1311 C1302 1.390 . S
C1311 H1304 0.950 . S
C1311 C1308 1.387 . S
C1312 C1313 1.387 . S
C1312 H1316 0.950 . S
C1312 C1321 1.390 . S
C1313 C1312 1.387 . S
C1313 C1315 1.387 . S
H1314 C1321 0.950 . S
C1315 C1313 1.387 . S
C1315 C1317 1.390 . S
C1315 H1319 0.950 . S
H1316 C1312 0.950 . S
C1317 C1315 1.390 . S
C1317 C1318 1.387 . S
C1317 H1320 0.950 . S
C1318 C1317 1.387 . S
C1318 C1321 1.387 . S
H1319 C1315 0.950 . S
H1320 C1317 0.950 . S
C1321 C1312 1.390 . S
C1321 H1314 0.950 . S
C1321 C1318 1.387 . S
C1322 C1323 1.387 1_565 S
C1322 H1326 0.950 . S
C1322 C1331 1.390 . S
C1323 C1322 1.387 1_545 S
C1323 C1325 1.387 . S
H1324 C1331 0.950 . S
C1325 C1323 1.387 . S
C1325 C1327 1.390 . S
C1325 H1329 0.950 . S
H1326 C1322 0.950 . S
C1327 C1325 1.390 . S
C1327 C1328 1.387 . S
C1327 H1330 0.950 . S
C1328 C1327 1.387 . S
C1328 C1331 1.387 1_545 S
H1329 C1325 0.950 . S
H1330 C1327 0.950 . S
C1331 C1322 1.390 . S
C1331 H1324 0.950 . S
C1331 C1328 1.387 1_565 S
C613 C8 1.512 . S
C618 C440 1.533 1_655 S
C623 C18 1.528 . S
C628 C453 1.530 . S
C638 C482 1.522 1_545 S
C633 C31 1.517 . S
C643 C34 1.511 . S
C648 C495 1.540 . S
C653 C5 1.530 . S
C658 C516 1.542 . S
C663 C21 1.521 . S
C668 C545 1.522 . S
C673 C47 1.509 . S
C678 C524 1.524 . S
C688 C537 1.521 . S
C683 C57 1.515 . S
C698 C503 1.520 . S
C693 C70 1.520 . S
C703 C73 1.501 . S
C708 C474 1.547 1_545 S
C718 C432 1.537 1_655 S
C713 C44 1.518 . S
C723 C60 1.511 . S
C728 C461 1.529 . S
C733 C86 1.552 . S
C738 C566 1.546 . S
C743 C96 1.548 . S
C748 C579 1.547 . S
C758 C608 1.518 . S
C753 C109 1.584 . S
C763 C112 1.563 . S
C768 C243 1.598 . S
C773 C83 1.586 . S
C778 C264 1.587 . S
C783 C99 1.542 . S
C788 C293 1.537 . S
C793 C125 1.521 . S
C798 C272 1.544 . S
C803 C135 1.530 . S
C808 C285 1.530 . S
C818 C251 1.549 . S
C813 C148 1.555 . S
C828 C600 1.551 . S
C823 C151 1.556 . S
C838 C558 1.528 . S
C833 C122 1.554 . S
C848 C587 1.556 . S
C843 C138 1.538 . S
C853 C164 1.533 . S
C858 C314 1.530 . S
C863 C174 1.542 . S
C868 C327 1.549 . S
C873 C187 1.575 . S
C878 C356 1.518 . S
C883 C190 1.578 . S
C888 C369 1.613 . S
C898 C390 1.580 . S
C893 C161 1.584 . S
C908 C419 1.542 . S
C903 C177 1.550 . S
C918 C398 1.567 . S
C913 C203 1.540 . S
C928 C411 1.527 . S
C923 C213 1.534 . S
C933 C226 1.558 . S
C938 C377 1.546 . S
C948 C348 1.539 . S
C943 C229 1.541 . S
C953 C200 1.556 . S
C958 C306 1.542 . S
C968 C335 1.553 . S
C963 C216 1.534 . S
C978 C246 1.355 . S
C973 C0 1.382 . S
C983 C23 1.395 . S
C988 C267 1.285 . S
C998 C295 1.317 . S
C993 C36 1.446 . S
C1008 C316 1.328 . S
C1003 C26 1.396 . S
C1018 C330 1.311 . S
C1013 C10 1.422 . S
C1028 C358 1.280 . S
C1023 C13 1.367 . S
C1033 C39 1.407 . S
C1038 C351 1.291 . S
C1043 C62 1.416 . S
C1048 C309 1.226 . S
C1053 C75 1.454 . S
C1058 C337 1.367 . S
C1063 C65 1.427 . S
C1068 C274 1.416 . S
C1078 C288 1.254 . S
C1073 C49 1.445 . S
C1083 C52 1.391 . S
C1088 C253 1.368 . S
C1098 C372 1.345 . S
C1093 C78 1.393 . S
C1103 C101 1.435 . S
C1108 C393 1.323 . S
C1113 C114 1.456 . S
C1118 C421 1.325 . S
C1128 C442 1.286 . S
C1123 C104 1.364 . S
C1133 C88 1.408 . S
C1138 C456 1.293 . S
C1143 C91 1.332 . S
C1148 C484 1.257 . S
C1153 C117 1.360 . S
C1158 C477 1.249 . S
C1163 C140 1.371 . S
C1168 C435 1.226 . S
C1178 C463 1.351 . S
C1173 C153 1.444 . S
C1183 C143 1.407 . S
C1188 C400 1.379 . S
C1193 C127 1.470 . S
C1198 C414 1.277 . S
C1208 C379 1.392 . S
C1203 C130 1.419 . S
C1218 C498 1.273 1_545 S
C1213 C156 1.361 . S
C1223 C179 1.359 . S
C1228 C519 1.243 1_655 S
C1233 C192 1.423 . S
C1238 C547 1.305 . S
C1248 C568 1.299 . S
C1243 C182 1.383 . S
C1258 C582 1.329 . S
C1253 C166 1.449 . S
C1263 C169 1.402 . S
C1268 C610 1.310 . S
C1273 C195 1.416 . S
C1278 C603 1.281 . S
C1283 C218 1.457 . S
C1288 C561 1.270 . S
C1298 C589 1.370 . S
C1293 C231 1.467 . S
C1308 C526 1.316 1_655 S
C1303 C221 1.364 . S
C1318 C540 1.251 . S
C1313 C205 1.430 . S
C1323 C208 1.340 . S
C1328 C505 1.284 1_545 S
