# Generated by pormake.
# Topology rtl, (3,6)-cn, num edge types: 1
# Building blocks:
#     Node 0, Type 0, BuildingBlock: BETDAH_clean_linker_0, # of connection points: 3
#     Node 1, Type 0, BuildingBlock: BETDAH_clean_linker_0, # of connection points: 3
#     Node 2, Type 0, BuildingBlock: BETDAH_clean_linker_0, # of connection points: 3
#     Node 3, Type 0, BuildingBlock: BETDAH_clean_linker_0, # of connection points: 3
#     Node 4, Type 1, BuildingBlock: KUMBOL_clean_sbu_1, # of connection points: 6
#     Node 5, Type 1, BuildingBlock: KUMBOL_clean_sbu_1, # of connection points: 6
#     Edge 6, Type (0, 1), BuildingBlock: KIFKEQ_clean_linker_1, # of connection points: 2
#     Edge 7, Type (0, 1), BuildingBlock: KIFKEQ_clean_linker_1, # of connection points: 2
#     Edge 8, Type (0, 1), BuildingBlock: KIFKEQ_clean_linker_1, # of connection points: 2
#     Edge 9, Type (0, 1), BuildingBlock: KIFKEQ_clean_linker_1, # of connection points: 2
#     Edge 10, Type (0, 1), BuildingBlock: KIFKEQ_clean_linker_1, # of connection points: 2
#     Edge 11, Type (0, 1), BuildingBlock: KIFKEQ_clean_linker_1, # of connection points: 2
#     Edge 12, Type (0, 1), BuildingBlock: KIFKEQ_clean_linker_1, # of connection points: 2
#     Edge 13, Type (0, 1), BuildingBlock: KIFKEQ_clean_linker_1, # of connection points: 2
#     Edge 14, Type (0, 1), BuildingBlock: KIFKEQ_clean_linker_1, # of connection points: 2
#     Edge 15, Type (0, 1), BuildingBlock: KIFKEQ_clean_linker_1, # of connection points: 2
#     Edge 16, Type (0, 1), BuildingBlock: KIFKEQ_clean_linker_1, # of connection points: 2
#     Edge 17, Type (0, 1), BuildingBlock: KIFKEQ_clean_linker_1, # of connection points: 2
# Relax obj value: 0.049
# Max RMSD: 0.218
# Mean RMSD: 0.157
data_MOF--net-rtl--node1-KUMBOL_clean_sbu_1--node2-BETDAH_clean_linker_0--edge1-KIFKEQ_clean_linker_1
_symmetry_space_group_name_H-M    P1
_symmetry_Int_Tables_number       1
_symmetry_cell_setting            triclinic
loop_
_symmetry_equiv_pos_as_xyz
'x, y, z'
_cell_length_a     35.898015
_cell_length_b     35.786948
_cell_length_c     27.598393
_cell_angle_alpha  78.752488
_cell_angle_beta   100.85781
_cell_angle_gamma 91.142829
loop_
_atom_site_label
_atom_site_type_symbol
_atom_site_fract_x
_atom_site_fract_y
_atom_site_fract_z
_atom_type_partial_charge
H0 H 0.14811 0.88882 0.99517 0.0
H1 H 0.23597 0.83482 0.11565 0.0
H2 H 0.2412 0.83053 0.96253 0.0
C3 C 0.17387 0.87165 0.00844 0.0
C4 C 0.19221 0.86001 0.97309 0.0
C5 C 0.18904 0.86274 0.06014 0.0
C6 C 0.22364 0.84232 0.076 0.0
C7 C 0.24236 0.83032 0.04133 0.0
C8 C 0.22662 0.8392 0.98962 0.0
N9 N 0.27774 0.81088 0.06004 0.0
C10 C 0.29218 0.78349 0.0388 0.0
H11 H 0.64452 0.64615 0.64646 0.0
H12 H 0.71914 0.73037 0.58431 0.0
H13 H 0.69072 0.73198 0.72852 0.0
C14 C 0.6623 0.67074 0.64939 0.0
C15 C 0.66565 0.68674 0.69247 0.0
C16 C 0.6815 0.686 0.61012 0.0
C17 C 0.7043 0.71822 0.61427 0.0
C18 C 0.70764 0.73469 0.65731 0.0
C19 C 0.68824 0.71887 0.69582 0.0
N20 N 0.72932 0.76767 0.66329 0.0
C21 C 0.75679 0.78276 0.63593 0.0
H22 H 0.88134 0.14401 0.09819 0.0
H23 H 0.78775 0.20029 0.13284 0.0
H24 H 0.79229 0.19745 0.9791 0.0
C25 C 0.85534 0.16088 0.08548 0.0
C26 C 0.83985 0.17005 0.0339 0.0
C27 C 0.83704 0.1718 0.12138 0.0
C28 C 0.80233 0.19215 0.10541 0.0
C29 C 0.78623 0.20118 0.05384 0.0
C30 C 0.80492 0.18988 0.01866 0.0
N31 N 0.75046 0.21997 0.03581 0.0
C32 C 0.73614 0.2475 0.05697 0.0
H33 H 0.39377 0.37367 0.46054 0.0
H34 H 0.31177 0.29477 0.51418 0.0
H35 H 0.33035 0.30528 0.36268 0.0
C36 C 0.37305 0.3519 0.45394 0.0
C37 C 0.36434 0.34199 0.40636 0.0
C38 C 0.35447 0.3349 0.49301 0.0
C39 C 0.32618 0.3079 0.48419 0.0
C40 C 0.31765 0.29722 0.43685 0.0
C41 C 0.33688 0.31418 0.39865 0.0
N42 N 0.29062 0.26911 0.42569 0.0
C43 C 0.26562 0.2517 0.45567 0.0
C44 C 0.94389 0.12158 0.50435 0.0
C45 C 0.87961 0.10152 0.47758 0.0
C46 C 0.9165 0.09353 0.50621 0.0
C47 C 0.87119 0.13726 0.44582 0.0
C48 C 0.93537 0.15768 0.47307 0.0
C49 C 0.89896 0.16525 0.44361 0.0
N50 N 0.9794 0.113 0.53168 0.0
C51 C 1.00722 0.13952 0.53111 0.0
C52 C 0.96396 0.18487 0.47165 0.0
C53 C 0.99997 0.17579 0.50098 0.0
Gd54 Gd 0.03703 0.97807 0.51456 0.0
Gd55 Gd 0.9893 0.05122 0.57981 0.0
N56 N 0.92568 0.0588 0.53654 0.0
C57 C 0.85199 0.07364 0.4825 0.0
C58 C 0.89778 0.03321 0.54511 0.0
C59 C 0.86093 0.03968 0.51725 0.0
H60 H 0.90312 1.00828 0.57449 0.0
H61 H 0.83923 0.01878 0.5234 0.0
H62 H 0.12481 0.0174 0.53359 0.0
H63 H 0.03494 0.13271 0.55413 0.0
H64 H 0.18683 1.00116 0.5878 0.0
H65 H 0.82334 0.07867 0.4612 0.0
H66 H 0.84311 0.14368 0.42323 0.0
H67 H 0.98652 0.89858 0.52793 0.0
H68 H 0.95853 0.2129 0.44803 0.0
H69 H 0.02217 0.1967 0.50035 0.0
H70 H 0.17461 0.87206 0.67075 0.0
H71 H 0.89199 0.1927 0.41901 0.0
H72 H 0.05604 0.81076 0.63079 0.0
H73 H 0.99448 0.83242 0.57599 0.0
N74 N 0.04249 0.91431 0.55644 0.0
C75 C 0.07691 0.90278 0.58521 0.0
C76 C 0.01323 0.88952 0.55239 0.0
C77 C 0.05266 0.83982 0.60986 0.0
C78 C 0.01781 0.85197 0.57913 0.0
C79 C 0.08276 0.86526 0.61317 0.0
H80 H 0.12307 0.82587 0.66609 0.0
N81 N 0.09913 0.96546 0.56157 0.0
C82 C 0.1059 0.92914 0.58821 0.0
C83 C 0.17061 0.94481 0.61961 0.0
C84 C 0.14162 0.91814 0.6187 0.0
C85 C 0.12828 0.99046 0.55931 0.0
C86 C 0.16409 0.98088 0.58908 0.0
O87 O 0.99152 0.06608 0.49682 0.0
O88 O 0.98356 0.0094 0.47011 0.0
O89 O 0.06606 0.98951 0.4509 0.0
O90 O 0.03477 0.93764 0.465 0.0
O91 O 0.96856 0.99012 0.58796 0.0
O92 O 0.97445 0.97079 0.51443 0.0
O93 O 0.0368 0.96314 0.59802 0.0
O94 O 0.04252 0.01987 0.62532 0.0
O95 O 0.9616 0.04307 0.64472 0.0
O96 O 0.99281 0.09427 0.62582 0.0
O97 O 0.05968 0.0384 0.5085 0.0
O98 O 0.05178 0.05976 0.58016 0.0
C99 C 0.97766 0.0463 0.46256 0.0
C100 C 0.9588 0.96812 0.55445 0.0
C101 C 0.03793 0.9633 0.38094 0.0
C102 C 0.04473 0.9544 0.29743 0.0
C103 C 0.98533 0.97891 0.31081 0.0
C104 C 1.00059 0.9766 0.36168 0.0
C105 C 1.00702 0.96764 0.27892 0.0
C106 C 0.05999 0.95274 0.34877 0.0
C107 C 0.05386 0.9588 0.4348 0.0
C108 C 0.14744 0.88086 0.64687 0.0
C109 C 0.11812 0.85451 0.64409 0.0
H110 H 0.19843 0.93747 0.64254 0.0
C111 C 0.04981 0.98321 0.6323 0.0
C112 C 0.06856 0.06113 0.5413 0.0
C113 C 0.99117 0.07225 0.71124 0.0
C114 C 0.98512 0.08268 0.79437 0.0
C115 C 0.04524 0.06075 0.77986 0.0
C116 C 0.02923 0.06115 0.72962 0.0
C117 C 0.02354 0.07168 0.81198 0.0
C118 C 0.96915 0.08251 0.74367 0.0
C119 C 0.97429 0.07461 0.65797 0.0
H120 H 0.95637 0.98892 0.29618 0.0
H121 H 0.98314 0.98465 0.38605 0.0
H122 H 0.99387 0.96862 0.24002 0.0
H123 H 0.08903 0.94318 0.36404 0.0
H124 H 0.07474 0.05245 0.79381 0.0
H125 H 0.04663 0.05331 0.70503 0.0
H126 H 0.03718 0.07217 0.85032 0.0
H127 H 0.93958 0.09035 0.72915 0.0
C128 C 0.62589 0.57449 0.04989 0.0
C129 C 0.60915 0.63948 0.00686 0.0
C130 C 0.59964 0.60458 0.03525 0.0
C131 C 0.64472 0.64332 0.99237 0.0
C132 C 0.66174 0.57837 0.03575 0.0
C133 C 0.67094 0.61288 0.00681 0.0
N134 N 0.61575 0.54089 0.07628 0.0
C135 C 0.64043 0.51056 0.09129 0.0
C136 C 0.68706 0.54718 0.05042 0.0
C137 C 0.6764 0.51319 0.07849 0.0
Gd138 Gd 0.47371 0.49253 1.00257 0.0
Gd139 Gd 0.55463 0.53877 0.09474 0.0
N140 N 0.56491 0.59972 0.04866 0.0
C141 C 0.58279 0.66968 0.99435 0.0
C142 C 0.54056 0.63013 0.0401 0.0
C143 C 0.54866 0.66518 0.01186 0.0
H144 H 0.51542 0.62826 0.0562 0.0
H145 H 0.52883 0.68892 1.00438 0.0
H146 H 0.5109 0.4032 0.05049 0.0
H147 H 0.63254 0.48449 0.11371 0.0
H148 H 0.49409 0.34443 0.10342 0.0
H149 H 0.58901 0.69693 0.97262 0.0
H150 H 0.65232 0.66982 0.97022 0.0
H151 H 0.39695 0.54947 0.9753 0.0
H152 H 0.71485 0.54904 0.04028 0.0
H153 H 0.69587 0.48902 0.09031 0.0
H154 H 0.3681 0.36902 0.12517 0.0
H155 H 0.69825 0.61631 0.9953 0.0
H156 H 0.31026 0.49057 0.04578 0.0
H157 H 0.33238 0.54835 0.99452 0.0
N158 N 0.41142 0.4935 0.01649 0.0
C159 C 0.39955 0.46105 0.04356 0.0
C160 C 0.38773 0.52442 0.9984 0.0
C161 C 0.33863 0.49096 0.03756 0.0
C162 C 0.35106 0.5237 0.00878 0.0
C163 C 0.36291 0.45909 0.05532 0.0
H164 H 0.32389 0.42377 0.09451 0.0
N165 N 0.46036 0.43335 0.05042 0.0
C166 C 0.42474 0.43019 0.06117 0.0
C167 C 0.43917 0.36575 0.10678 0.0
C168 C 0.4135 0.39653 0.09046 0.0
C169 C 0.48445 0.40249 0.06342 0.0
C170 C 0.47456 0.36858 0.09254 0.0
O171 O 0.5635 0.53485 0.01668 0.0
O172 O 0.50422 0.54353 0.96732 0.0
O173 O 0.4793 0.4574 0.94822 0.0
O174 O 0.43129 0.49586 0.93438 0.0
O175 O 0.49454 0.56349 0.07721 0.0
O176 O 0.46906 0.55612 0.99614 0.0
O177 O 0.46501 0.49558 0.081 0.0
O178 O 0.52448 0.48753 0.13006 0.0
O179 O 0.54989 0.57119 0.15241 0.0
O180 O 0.59905 0.5352 0.16082 0.0
O181 O 0.53344 0.46696 0.02063 0.0
O182 O 0.56024 0.47523 0.10104 0.0
C183 C 0.5411 0.54781 0.97356 0.0
C184 C 0.46983 0.57304 0.03462 0.0
C185 C 0.45338 0.48383 0.86377 0.0
C186 C 0.44432 0.47109 0.77846 0.0
C187 C 0.47385 0.52978 0.79748 0.0
C188 C 0.47003 0.51866 0.84759 0.0
C189 C 0.46104 0.5063 0.76308 0.0
C190 C 0.44059 0.46011 0.82923 0.0
C191 C 0.44917 0.47201 0.91652 0.0
C192 C 0.37708 0.39457 0.10242 0.0
C193 C 0.35186 0.42573 0.08488 0.0
H194 H 0.43163 0.33942 0.12937 0.0
C195 C 0.48763 0.48315 0.12414 0.0
C196 C 0.55871 0.45786 0.06278 0.0
C197 C 0.57941 0.54293 0.23483 0.0
C198 C 0.59203 0.55194 0.32203 0.0
C199 C 0.56487 0.49279 0.30099 0.0
C200 C 0.56556 0.50654 0.25033 0.0
C201 C 0.57819 0.5151 0.33665 0.0
C202 C 0.59238 0.56564 0.27059 0.0
C203 C 0.58125 0.55709 0.18166 0.0
H204 H 0.48661 0.55679 0.7852 0.0
H205 H 0.47984 0.53731 0.87361 0.0
H206 H 0.46382 0.516 0.72425 0.0
H207 H 0.42819 0.43297 0.8421 0.0
H208 H 0.55437 0.46455 0.31276 0.0
H209 H 0.55573 0.48861 0.22337 0.0
H210 H 0.57821 0.5031 0.37583 0.0
H211 H 0.60255 0.59395 0.25815 0.0
H212 H 0.193 0.25241 0.41047 0.0
H213 H 0.27164 0.20041 0.54368 0.0
H214 H 0.14409 0.20788 0.43458 0.0
H215 H 0.22257 0.1555 0.56824 0.0
H216 H 0.10962 0.10068 0.60876 0.0
H217 H 0.15655 0.15008 0.59258 0.0
H218 H 0.13931 0.1375 0.43755 0.0
H219 H 0.09275 0.08847 0.45348 0.0
C220 C 0.19943 0.2319 0.44557 0.0
C221 C 0.23573 0.22979 0.4755 0.0
C222 C 0.17162 0.20623 0.45914 0.0
C223 C 0.17961 0.17792 0.50302 0.0
C224 C 0.21554 0.17711 0.53436 0.0
C225 C 0.24355 0.20274 0.52045 0.0
C226 C 0.11589 0.10854 0.57124 0.0
C227 C 0.09743 0.09067 0.53238 0.0
C228 C 0.14283 0.13668 0.56208 0.0
C229 C 0.15139 0.14788 0.51372 0.0
C230 C 0.13294 0.12991 0.47504 0.0
C231 C 0.10645 0.10157 0.48429 0.0
H232 H 0.34165 0.78645 0.97511 0.0
H233 H 0.28734 0.71 0.08058 0.0
H234 H 0.38263 0.73383 0.96954 0.0
H235 H 0.32793 0.65741 0.07516 0.0
H236 H 0.44409 0.59535 0.1113 0.0
H237 H 0.39733 0.64508 0.10606 0.0
H238 H 0.38406 0.66922 0.94417 0.0
H239 H 0.43122 0.6192 0.94943 0.0
C240 C 0.33792 0.75812 0.99602 0.0
C241 C 0.31143 0.75191 0.02801 0.0
C242 C 0.36129 0.72807 0.99292 0.0
C243 C 0.35876 0.69157 0.02234 0.0
C244 C 0.33091 0.68529 0.05257 0.0
C245 C 0.30747 0.71522 0.05536 0.0
C246 C 0.43125 0.61125 0.07456 0.0
C247 C 0.4413 0.60335 0.03078 0.0
C248 C 0.40419 0.63952 0.07152 0.0
C249 C 0.38678 0.6609 0.02466 0.0
C250 C 0.39704 0.65326 0.98079 0.0
C251 C 0.42388 0.62457 0.98381 0.0
H252 H 0.75245 0.83577 0.55029 0.0
H253 H 0.83004 0.77719 0.68039 0.0
H254 H 0.80317 0.87877 0.52721 0.0
H255 H 0.88084 0.81974 0.65755 0.0
H256 H 0.93851 0.93652 0.64361 0.0
H257 H 0.89116 0.88812 0.65883 0.0
H258 H 0.86673 0.8838 0.50073 0.0
H259 H 0.91416 0.9327 0.48535 0.0
C260 C 0.78068 0.83155 0.57307 0.0
C261 C 0.7877 0.80322 0.61677 0.0
C262 C 0.80968 0.8561 0.55999 0.0
C263 C 0.84594 0.85291 0.59086 0.0
C264 C 0.85311 0.82328 0.63339 0.0
C265 C 0.82422 0.7987 0.64621 0.0
C266 C 0.92306 0.92529 0.61205 0.0
C267 C 0.93008 0.93846 0.56328 0.0
C268 C 0.89615 0.89727 0.62084 0.0
C269 C 0.87534 0.88189 0.58103 0.0
C270 C 0.88221 0.89517 0.53214 0.0
C271 C 0.90946 0.92302 0.52339 0.0
H272 H 0.73861 0.32047 0.01186 0.0
H273 H 0.68911 0.24523 0.12376 0.0
H274 H 0.69797 0.37291 0.01756 0.0
H275 H 0.6481 0.29776 0.12967 0.0
H276 H 0.60011 0.41376 0.14784 0.0
H277 H 0.64712 0.36371 0.15247 0.0
H278 H 0.62787 0.38337 0.99025 0.0
H279 H 0.58126 0.43304 0.98558 0.0
C280 C 0.71954 0.31551 0.0385 0.0
C281 C 0.71693 0.27917 0.0676 0.0
C282 C 0.69608 0.34535 0.04148 0.0
C283 C 0.66955 0.33936 0.07367 0.0
C284 C 0.6684 0.30329 0.10475 0.0
C285 C 0.69179 0.27329 0.10145 0.0
C286 C 0.60605 0.40737 0.11324 0.0
C287 C 0.587 0.42736 0.06634 0.0
C288 C 0.63282 0.37867 0.11591 0.0
C289 C 0.6414 0.36982 0.07173 0.0
C290 C 0.62232 0.38989 0.02497 0.0
C291 C 0.59533 0.41814 0.0223 0.0
H292 H 0.21964 0.88606 0.14861 0.0
H293 H 0.11216 0.86749 0.05575 0.0
H294 H 0.18581 0.90753 0.20749 0.0
H295 H 0.07892 0.89117 0.11315 0.0
H296 H 0.04354 0.98317 0.1971 0.0
H297 H 0.07866 0.95992 0.14113 0.0
H298 H 0.13475 0.87486 0.26488 0.0
H299 H 0.09813 0.89623 0.32068 0.0
C300 C 0.18894 0.88627 0.14074 0.0
C301 C 0.16877 0.87517 0.09699 0.0
C302 C 0.16965 0.89884 0.17435 0.0
C303 C 0.12989 0.90127 0.16442 0.0
C304 C 0.10966 0.89003 0.12115 0.0
C305 C 0.12882 0.87672 0.08814 0.0
C306 C 0.06287 0.95914 0.21249 0.0
C307 C 0.06765 0.94155 0.26363 0.0
C308 C 0.08317 0.94607 0.1804 0.0
C309 C 0.10931 0.91568 0.19886 0.0
C310 C 0.11495 0.89859 0.24996 0.0
C311 C 0.09408 0.9111 0.28191 0.0
H312 H 0.69389 0.67326 0.79372 0.0
H313 H 0.59293 0.66066 0.68538 0.0
H314 H 0.66279 0.64152 0.8617 0.0
H315 H 0.56231 0.62782 0.75313 0.0
H316 H 0.50752 0.60188 0.89378 0.0
H317 H 0.53686 0.63784 0.8263 0.0
H318 H 0.64259 0.57666 0.89173 0.0
H319 H 0.61314 0.54053 0.95849 0.0
C320 C 0.66497 0.66399 0.78444 0.0
C321 C 0.64597 0.66934 0.7341 0.0
C322 C 0.6473 0.64543 0.82333 0.0
C323 C 0.61017 0.63189 0.81279 0.0
C324 C 0.59083 0.63811 0.76257 0.0
C325 C 0.60853 0.65657 0.7237 0.0
C326 C 0.53692 0.59593 0.89337 0.0
C327 C 0.55812 0.56856 0.93151 0.0
C328 C 0.55375 0.61656 0.85484 0.0
C329 C 0.59214 0.61031 0.85382 0.0
C330 C 0.61317 0.58268 0.89187 0.0
C331 C 0.59628 0.56193 0.93009 0.0
H332 H 0.90964 0.18234 0.16554 0.0
H333 H 0.80405 0.13368 0.19811 0.0
H334 H 0.94191 0.15353 0.24997 0.0
H335 H 0.8363 0.10511 0.28357 0.0
H336 H 0.92086 0.01838 0.39918 0.0
H337 H 0.88395 0.0527 0.31966 0.0
H338 H 0.9472 0.15448 0.33885 0.0
H339 H 0.9848 0.11982 0.41698 0.0
C340 C 0.89321 0.16606 0.19128 0.0
C341 C 0.85441 0.16013 0.17533 0.0
C342 C 0.91164 0.14965 0.23972 0.0
C343 C 0.89173 0.12677 0.2734 0.0
C344 C 0.85249 0.1222 0.25822 0.0
C345 C 0.83393 0.13891 0.20963 0.0
C346 C 0.92694 0.04801 0.38608 0.0
C347 C 0.95565 0.06647 0.41414 0.0
C348 C 0.90549 0.06782 0.341 0.0
C349 C 0.91253 0.10639 0.32302 0.0
C350 C 0.94122 0.12474 0.35139 0.0
C351 C 0.96261 0.10496 0.3963 0.0
H352 H 0.42443 0.32947 0.55161 0.0
H353 H 0.30972 0.36644 0.545 0.0
H354 H 0.4458 0.35708 0.62593 0.0
H355 H 0.33111 0.39564 0.61852 0.0
H356 H 0.37955 0.42848 0.76951 0.0
H357 H 0.35721 0.38932 0.70688 0.0
H358 H 0.45572 0.41992 0.63961 0.0
H359 H 0.47883 0.45714 0.70337 0.0
C360 C 0.40374 0.3432 0.56662 0.0
C361 C 0.36551 0.34603 0.54264 0.0
C362 C 0.41598 0.35937 0.60888 0.0
C363 C 0.39037 0.37935 0.62776 0.0
C364 C 0.35163 0.38034 0.60528 0.0
C365 C 0.3393 0.36367 0.56317 0.0
C366 C 0.39673 0.42628 0.74184 0.0
C367 C 0.43096 0.44613 0.74145 0.0
C368 C 0.38369 0.40416 0.70556 0.0
C369 C 0.40461 0.40131 0.66809 0.0
C370 C 0.43905 0.42082 0.66825 0.0
C371 C 0.45209 0.44274 0.70448 0.0
H372 H 0.68085 0.61015 0.60748 0.0
H373 H 0.66992 0.72129 0.51027 0.0
H374 H 0.66036 0.58057 0.53477 0.0
H375 H 0.65071 0.6911 0.4369 0.0
H376 H 0.65215 0.60139 0.32482 0.0
H377 H 0.67751 0.63655 0.39129 0.0
H378 H 0.59123 0.58965 0.47401 0.0
H379 H 0.56456 0.55613 0.40708 0.0
C380 C 0.67448 0.62828 0.57053 0.0
C381 C 0.67622 0.66819 0.56484 0.0
C382 C 0.66287 0.61127 0.52894 0.0
C383 C 0.65343 0.63363 0.48049 0.0
C384 C 0.6578 0.67331 0.47402 0.0
C385 C 0.66895 0.69051 0.51595 0.0
C386 C 0.63803 0.59914 0.35661 0.0
C387 C 0.60647 0.5754 0.36066 0.0
C388 C 0.65274 0.61916 0.39472 0.0
C389 C 0.63658 0.61534 0.43788 0.0
C390 C 0.60457 0.59254 0.44139 0.0
C391 C 0.58949 0.57313 0.40312 0.0
H392 H 0.91667 0.16747 0.03713 0.0
H393 H 0.80945 0.14653 0.9455 0.0
H394 H 0.95019 0.14504 0.97908 0.0
H395 H 0.84348 0.12612 0.88606 0.0
H396 H 0.92886 0.13808 0.77089 0.0
H397 H 0.89208 0.1586 0.82716 0.0
H398 H 0.95347 0.07767 0.95182 0.0
H399 H 0.98893 0.05537 0.89553 0.0
C400 C 0.90014 0.15797 1.00485 0.0
C401 C 0.86019 0.15847 0.99655 0.0
C402 C 0.91945 0.14536 0.97147 0.0
C403 C 0.89937 0.13371 0.92839 0.0
C404 C 0.85956 0.13515 0.91901 0.0
C405 C 0.84014 0.14708 0.95295 0.0
C406 C 0.93409 0.12395 0.81002 0.0
C407 C 0.9621 0.09498 0.82845 0.0
C408 C 0.91311 0.13596 0.84223 0.0
C409 C 0.92015 0.11981 0.89371 0.0
C410 C 0.94786 0.09084 0.91228 0.0
C411 C 0.96833 0.0783 0.87998 0.0
H412 H 0.3333 0.36367 0.3061 0.0
H413 H 0.4387 0.3638 0.41189 0.0
H414 H 0.36395 0.39564 0.23835 0.0
H415 H 0.46867 0.3981 0.34462 0.0
H416 H 0.5209 0.42829 0.20314 0.0
H417 H 0.49168 0.39256 0.27072 0.0
H418 H 0.387 0.45644 0.20782 0.0
H419 H 0.41611 0.49148 0.14021 0.0
C420 C 0.36305 0.37037 0.315 0.0
C421 C 0.38341 0.36109 0.36469 0.0
C422 C 0.38052 0.38929 0.27615 0.0
C423 C 0.41877 0.39983 0.28593 0.0
C424 C 0.43929 0.39018 0.33549 0.0
C425 C 0.42189 0.37095 0.3743 0.0
C426 C 0.49177 0.43484 0.20416 0.0
C427 C 0.47078 0.46265 0.16648 0.0
C428 C 0.47497 0.41439 0.24286 0.0
C429 C 0.43687 0.42145 0.24479 0.0
C430 C 0.41613 0.44963 0.20717 0.0
C431 C 0.43287 0.46991 0.16849 0.0
H432 H 0.22481 0.89976 0.89711 0.0
H433 H 0.12051 0.84711 0.92829 0.0
H434 H 0.19237 0.92802 0.81155 0.0
H435 H 0.0881 0.87532 0.84358 0.0
H436 H 0.10435 0.01284 0.69702 0.0
H437 H 0.14212 0.9791 0.7763 0.0
H438 H 0.08487 0.87473 0.75408 0.0
H439 H 0.04644 0.90864 0.67614 0.0
C440 C 0.19522 0.89355 0.88519 0.0
C441 C 0.1751 0.87128 0.91907 0.0
C442 C 0.17655 0.91005 0.83657 0.0
C443 C 0.13761 0.90413 0.82096 0.0
C444 C 0.11814 0.88022 0.85422 0.0
C445 C 0.13664 0.86411 0.90275 0.0
C446 C 0.09976 0.98276 0.70936 0.0
C447 C 0.07245 0.96337 0.68051 0.0
C448 C 0.12173 0.96332 0.75431 0.0
C449 C 0.11657 0.9242 0.77136 0.0
C450 C 0.08937 0.90489 0.74217 0.0
C451 C 0.06752 0.92427 0.69737 0.0
loop_
_geom_bond_atom_site_label_1
_geom_bond_atom_site_label_2
_geom_bond_distance
_geom_bond_site_symmetry_2
_ccdc_geom_bond_type
H0 C3 0.929 . S
H1 C6 0.929 . S
H2 C8 0.930 . S
C3 H0 0.929 . S
C3 C4 1.398 1_554 S
C3 C5 1.396 . S
C4 C3 1.398 1_556 S
C4 C8 1.407 . S
C5 C3 1.396 . S
C5 C6 1.394 . S
C6 H1 0.929 . S
C6 C5 1.394 . S
C6 C7 1.382 . S
C7 C6 1.382 . S
C7 C8 1.392 1_554 S
C7 N9 1.420 . S
C8 H2 0.930 . S
C8 C4 1.407 . S
C8 C7 1.392 1_556 S
N9 C7 1.420 . S
N9 C10 1.244 . S
C10 N9 1.244 . S
H11 C14 0.929 . S
H12 C17 0.929 . S
H13 C19 0.930 . S
C14 H11 0.929 . S
C14 C15 1.398 . S
C14 C16 1.396 . S
C15 C14 1.398 . S
C15 C19 1.407 . S
C16 C14 1.396 . S
C16 C17 1.394 . S
C17 H12 0.929 . S
C17 C16 1.394 . S
C17 C18 1.382 . S
C18 C17 1.382 . S
C18 C19 1.392 . S
C18 N20 1.420 . S
C19 H13 0.930 . S
C19 C15 1.407 . S
C19 C18 1.392 . S
N20 C18 1.420 . S
N20 C21 1.244 . S
C21 N20 1.244 . S
H22 C25 0.929 . S
H23 C28 0.929 . S
H24 C30 0.930 1_556 S
C25 H22 0.929 . S
C25 C26 1.398 . S
C25 C27 1.396 . S
C26 C25 1.398 . S
C26 C30 1.407 . S
C27 C25 1.396 . S
C27 C28 1.394 . S
C28 H23 0.929 . S
C28 C27 1.394 . S
C28 C29 1.382 . S
C29 C28 1.382 . S
C29 C30 1.392 . S
C29 N31 1.420 . S
C30 H24 0.930 1_554 S
C30 C26 1.407 . S
C30 C29 1.392 . S
N31 C29 1.420 . S
N31 C32 1.244 . S
C32 N31 1.244 . S
H33 C36 0.929 . S
H34 C39 0.929 . S
H35 C41 0.930 . S
C36 H33 0.929 . S
C36 C37 1.398 . S
C36 C38 1.396 . S
C37 C36 1.398 . S
C37 C41 1.407 . S
C38 C36 1.396 . S
C38 C39 1.394 . S
C39 H34 0.929 . S
C39 C38 1.394 . S
C39 C40 1.382 . S
C40 C39 1.382 . S
C40 C41 1.392 . S
C40 N42 1.420 . S
C41 H35 0.930 . S
C41 C37 1.407 . S
C41 C40 1.392 . S
N42 C40 1.420 . S
N42 C43 1.244 . S
C43 N42 1.244 . S
C44 C46 1.422 . S
C44 C48 1.415 . S
C44 N50 1.369 . S
C45 C46 1.421 . S
C45 C47 1.417 . S
C45 C57 1.422 . S
C46 C44 1.422 . S
C46 C45 1.421 . S
C46 N56 1.359 . S
C47 C45 1.417 . S
C47 C49 1.329 . S
C47 H66 0.930 . S
C48 C44 1.415 . S
C48 C49 1.437 . S
C48 C52 1.413 . S
C49 C47 1.329 . S
C49 C48 1.437 . S
C49 H71 0.929 . S
N50 C44 1.369 . S
N50 C51 1.338 1_655 S
N50 Gd55 2.622 . S
C51 N50 1.338 1_455 S
C51 C53 1.378 . S
C51 H63 0.929 . S
C52 C48 1.413 . S
C52 C53 1.348 1_655 S
C52 H68 0.931 . S
C53 C51 1.378 . S
C53 C52 1.348 1_455 S
C53 H69 0.930 . S
Gd54 N74 2.622 . S
Gd54 N81 2.570 . S
Gd54 O88 2.353 1_465 S
Gd54 O89 2.468 . S
Gd54 O90 2.427 . S
Gd54 O92 2.388 1_455 S
Gd54 O93 2.386 . S
Gd54 O97 2.307 1_565 S
Gd54 C107 2.805 . S
Gd55 N50 2.622 . S
Gd55 N56 2.570 . S
Gd55 O87 2.386 . S
Gd55 O91 2.307 1_545 S
Gd55 O94 2.353 1_655 S
Gd55 O95 2.468 . S
Gd55 O96 2.427 . S
Gd55 O98 2.388 1_655 S
Gd55 C119 2.805 . S
N56 C46 1.359 . S
N56 Gd55 2.570 . S
N56 C58 1.343 . S
C57 C45 1.422 . S
C57 C59 1.321 . S
C57 H65 0.931 . S
C58 N56 1.343 . S
C58 C59 1.390 . S
C58 H60 0.931 . S
C59 C57 1.321 . S
C59 C58 1.390 . S
C59 H61 0.930 . S
H60 C58 0.931 . S
H61 C59 0.930 . S
H62 C85 0.931 . S
H63 C51 0.929 . S
H64 C86 0.930 . S
H65 C57 0.931 . S
H66 C47 0.930 . S
H67 C76 0.929 1_655 S
H68 C52 0.931 . S
H69 C53 0.930 . S
H70 C108 0.930 . S
H71 C49 0.929 . S
H72 C77 0.931 . S
H73 C78 0.930 1_655 S
N74 Gd54 2.622 . S
N74 C75 1.369 . S
N74 C76 1.338 . S
C75 N74 1.369 . S
C75 C79 1.415 . S
C75 C82 1.422 . S
C76 H67 0.929 1_455 S
C76 N74 1.338 . S
C76 C78 1.378 . S
C77 H72 0.931 . S
C77 C78 1.348 . S
C77 C79 1.413 . S
C78 H73 0.930 1_455 S
C78 C76 1.378 . S
C78 C77 1.348 . S
C79 C75 1.415 . S
C79 C77 1.413 . S
C79 C109 1.437 . S
H80 C109 0.929 . S
N81 Gd54 2.570 . S
N81 C82 1.359 . S
N81 C85 1.343 . S
C82 C75 1.422 . S
C82 N81 1.359 . S
C82 C84 1.421 . S
C83 C84 1.422 . S
C83 C86 1.321 . S
C83 H110 0.931 . S
C84 C82 1.421 . S
C84 C83 1.422 . S
C84 C108 1.417 . S
C85 H62 0.931 . S
C85 N81 1.343 . S
C85 C86 1.390 . S
C86 H64 0.930 . S
C86 C83 1.321 . S
C86 C85 1.390 . S
O87 Gd55 2.386 . S
O87 C99 1.265 . S
O88 Gd54 2.353 1_645 S
O88 C99 1.242 . S
O89 Gd54 2.468 . S
O89 C107 1.263 . S
O90 Gd54 2.427 . S
O90 C107 1.252 . S
O91 Gd55 2.307 1_565 S
O91 C100 1.261 . S
O92 Gd54 2.388 1_655 S
O92 C100 1.252 . S
O93 Gd54 2.386 . S
O93 C111 1.265 . S
O94 Gd55 2.353 1_455 S
O94 C111 1.242 1_545 S
O95 Gd55 2.468 . S
O95 C119 1.263 . S
O96 Gd55 2.427 . S
O96 C119 1.252 . S
O97 Gd54 2.307 1_545 S
O97 C112 1.261 . S
O98 Gd55 2.388 1_455 S
O98 C112 1.252 . S
C99 O87 1.265 . S
C99 O88 1.242 . S
C100 O91 1.261 . S
C100 O92 1.252 . S
C101 C104 1.394 . S
C101 C106 1.370 . S
C101 C107 1.500 . S
C102 C105 1.383 . S
C102 C106 1.395 . S
C103 C104 1.396 . S
C103 C105 1.365 . S
C103 H120 0.929 . S
C104 C101 1.394 . S
C104 C103 1.396 . S
C104 H121 0.930 . S
C105 C102 1.383 . S
C105 C103 1.365 . S
C105 H122 0.931 . S
C106 C101 1.370 . S
C106 C102 1.395 . S
C106 H123 0.930 . S
C107 Gd54 2.805 . S
C107 O89 1.263 . S
C107 O90 1.252 . S
C107 C101 1.500 . S
C108 H70 0.930 . S
C108 C84 1.417 . S
C108 C109 1.329 . S
C109 C79 1.437 . S
C109 H80 0.929 . S
C109 C108 1.329 . S
H110 C83 0.931 . S
C111 O93 1.265 . S
C111 O94 1.242 1_565 S
C112 O97 1.261 . S
C112 O98 1.252 . S
C113 C116 1.394 . S
C113 C118 1.370 . S
C113 C119 1.500 . S
C114 C117 1.383 . S
C114 C118 1.395 . S
C115 C116 1.396 . S
C115 C117 1.365 . S
C115 H124 0.929 . S
C116 C113 1.394 . S
C116 C115 1.396 . S
C116 H125 0.930 . S
C117 C114 1.383 . S
C117 C115 1.365 . S
C117 H126 0.931 . S
C118 C113 1.370 . S
C118 C114 1.395 . S
C118 H127 0.930 . S
C119 Gd55 2.805 . S
C119 O95 1.263 . S
C119 O96 1.252 . S
C119 C113 1.500 . S
H120 C103 0.929 . S
H121 C104 0.930 . S
H122 C105 0.931 . S
H123 C106 0.930 . S
H124 C115 0.929 . S
H125 C116 0.930 . S
H126 C117 0.931 . S
H127 C118 0.930 . S
C128 C130 1.422 . S
C128 C132 1.415 . S
C128 N134 1.369 . S
C129 C130 1.421 . S
C129 C131 1.417 . S
C129 C141 1.422 . S
C130 C128 1.422 . S
C130 C129 1.421 . S
C130 N140 1.359 . S
C131 C129 1.417 . S
C131 C133 1.329 . S
C131 H150 0.930 . S
C132 C128 1.415 . S
C132 C133 1.437 . S
C132 C136 1.413 . S
C133 C131 1.329 . S
C133 C132 1.437 . S
C133 H155 0.929 . S
N134 C128 1.369 . S
N134 C135 1.338 . S
N134 Gd139 2.622 . S
C135 N134 1.338 . S
C135 C137 1.378 . S
C135 H147 0.929 . S
C136 C132 1.413 . S
C136 C137 1.348 . S
C136 H152 0.931 . S
C137 C135 1.378 . S
C137 C136 1.348 . S
C137 H153 0.930 . S
Gd138 N158 2.621 . S
Gd138 N165 2.570 . S
Gd138 O172 2.354 1_554 S
Gd138 O173 2.470 1_554 S
Gd138 O174 2.429 1_554 S
Gd138 O176 2.387 . S
Gd138 O177 2.383 . S
Gd138 O181 2.306 . S
Gd138 C191 2.808 1_554 S
Gd139 N134 2.622 . S
Gd139 N140 2.570 . S
Gd139 O171 2.386 . S
Gd139 O175 2.307 . S
Gd139 O178 2.353 . S
Gd139 O179 2.468 . S
Gd139 O180 2.427 . S
Gd139 O182 2.388 . S
Gd139 C203 2.805 . S
N140 C130 1.359 . S
N140 Gd139 2.570 . S
N140 C142 1.343 . S
C141 C129 1.422 . S
C141 C143 1.321 . S
C141 H149 0.931 . S
C142 N140 1.343 . S
C142 C143 1.390 . S
C142 H144 0.931 . S
C143 C141 1.321 . S
C143 C142 1.390 . S
C143 H145 0.930 . S
H144 C142 0.931 . S
H145 C143 0.930 . S
H146 C169 0.931 . S
H147 C135 0.929 . S
H148 C170 0.930 . S
H149 C141 0.931 . S
H150 C131 0.930 . S
H151 C160 0.929 . S
H152 C136 0.931 . S
H153 C137 0.930 . S
H154 C192 0.930 . S
H155 C133 0.929 . S
H156 C161 0.931 . S
H157 C162 0.930 . S
N158 Gd138 2.621 . S
N158 C159 1.369 . S
N158 C160 1.338 1_554 S
C159 N158 1.369 . S
C159 C163 1.415 . S
C159 C166 1.422 . S
C160 H151 0.929 . S
C160 N158 1.338 1_556 S
C160 C162 1.379 . S
C161 H156 0.931 . S
C161 C162 1.346 1_554 S
C161 C163 1.413 . S
C162 H157 0.930 . S
C162 C160 1.379 . S
C162 C161 1.346 1_556 S
C163 C159 1.415 . S
C163 C161 1.413 . S
C163 C193 1.437 . S
H164 C193 0.929 . S
N165 Gd138 2.570 . S
N165 C166 1.359 . S
N165 C169 1.343 . S
C166 C159 1.422 . S
C166 N165 1.359 . S
C166 C168 1.421 . S
C167 C168 1.422 . S
C167 C170 1.321 . S
C167 H194 0.931 . S
C168 C166 1.421 . S
C168 C167 1.422 . S
C168 C192 1.417 . S
C169 H146 0.931 . S
C169 N165 1.343 . S
C169 C170 1.390 . S
C170 H148 0.930 . S
C170 C167 1.321 . S
C170 C169 1.390 . S
O171 Gd139 2.386 . S
O171 C183 1.265 1_554 S
O172 Gd138 2.354 1_556 S
O172 C183 1.242 . S
O173 Gd138 2.470 1_556 S
O173 C191 1.263 . S
O174 Gd138 2.429 1_556 S
O174 C191 1.252 . S
O175 Gd139 2.307 . S
O175 C184 1.261 . S
O176 Gd138 2.387 . S
O176 C184 1.252 . S
O177 Gd138 2.383 . S
O177 C195 1.265 . S
O178 Gd139 2.353 . S
O178 C195 1.242 . S
O179 Gd139 2.468 . S
O179 C203 1.263 . S
O180 Gd139 2.427 . S
O180 C203 1.252 . S
O181 Gd138 2.306 . S
O181 C196 1.261 . S
O182 Gd139 2.388 . S
O182 C196 1.252 . S
C183 O171 1.265 1_556 S
C183 O172 1.242 . S
C184 O175 1.261 . S
C184 O176 1.252 . S
C185 C188 1.394 . S
C185 C190 1.370 . S
C185 C191 1.500 . S
C186 C189 1.383 . S
C186 C190 1.395 . S
C187 C188 1.396 . S
C187 C189 1.365 . S
C187 H204 0.929 . S
C188 C185 1.394 . S
C188 C187 1.396 . S
C188 H205 0.930 . S
C189 C186 1.383 . S
C189 C187 1.365 . S
C189 H206 0.931 . S
C190 C185 1.370 . S
C190 C186 1.395 . S
C190 H207 0.930 . S
C191 Gd138 2.808 1_556 S
C191 O173 1.263 . S
C191 O174 1.252 . S
C191 C185 1.500 . S
C192 H154 0.930 . S
C192 C168 1.417 . S
C192 C193 1.329 . S
C193 C163 1.437 . S
C193 H164 0.929 . S
C193 C192 1.329 . S
H194 C167 0.931 . S
C195 O177 1.265 . S
C195 O178 1.242 . S
C196 O181 1.261 . S
C196 O182 1.252 . S
C197 C200 1.394 . S
C197 C202 1.370 . S
C197 C203 1.500 . S
C198 C201 1.383 . S
C198 C202 1.395 . S
C199 C200 1.396 . S
C199 C201 1.365 . S
C199 H208 0.929 . S
C200 C197 1.394 . S
C200 C199 1.396 . S
C200 H209 0.930 . S
C201 C198 1.383 . S
C201 C199 1.365 . S
C201 H210 0.931 . S
C202 C197 1.370 . S
C202 C198 1.395 . S
C202 H211 0.930 . S
C203 Gd139 2.805 . S
C203 O179 1.263 . S
C203 O180 1.252 . S
C203 C197 1.500 . S
H204 C187 0.929 . S
H205 C188 0.930 . S
H206 C189 0.931 . S
H207 C190 0.930 . S
H208 C199 0.929 . S
H209 C200 0.930 . S
H210 C201 0.931 . S
H211 C202 0.930 . S
H212 C220 0.950 . S
H213 C225 0.950 . S
H214 C222 0.950 . S
H215 C224 0.950 . S
H216 C226 0.950 . S
H217 C228 0.950 . S
H218 C230 0.950 . S
H219 C231 0.950 . S
C220 H212 0.950 . S
C220 C221 1.386 . S
C220 C222 1.391 . S
C221 C220 1.386 . S
C221 C225 1.393 . S
C222 H214 0.950 . S
C222 C220 1.391 . S
C222 C223 1.400 . S
C223 C222 1.400 . S
C223 C224 1.398 . S
C223 C229 1.491 . S
C224 H215 0.950 . S
C224 C223 1.398 . S
C224 C225 1.391 . S
C225 H213 0.950 . S
C225 C221 1.393 . S
C225 C224 1.391 . S
C226 H216 0.950 . S
C226 C227 1.386 . S
C226 C228 1.391 . S
C227 C226 1.386 . S
C227 C231 1.393 . S
C228 H217 0.950 . S
C228 C226 1.391 . S
C228 C229 1.400 . S
C229 C223 1.491 . S
C229 C228 1.400 . S
C229 C230 1.398 . S
C230 H218 0.950 . S
C230 C229 1.398 . S
C230 C231 1.391 . S
C231 H219 0.950 . S
C231 C227 1.393 . S
C231 C230 1.391 . S
H232 C240 0.950 . S
H233 C245 0.950 . S
H234 C242 0.950 . S
H235 C244 0.950 . S
H236 C246 0.950 . S
H237 C248 0.950 . S
H238 C250 0.950 . S
H239 C251 0.950 . S
C240 H232 0.950 . S
C240 C241 1.386 . S
C240 C242 1.391 . S
C241 C240 1.386 . S
C241 C245 1.393 . S
C242 H234 0.950 . S
C242 C240 1.391 . S
C242 C243 1.400 . S
C243 C242 1.400 . S
C243 C244 1.398 . S
C243 C249 1.491 . S
C244 H235 0.950 . S
C244 C243 1.398 . S
C244 C245 1.391 . S
C245 H233 0.950 . S
C245 C241 1.393 . S
C245 C244 1.391 . S
C246 H236 0.950 . S
C246 C247 1.386 . S
C246 C248 1.391 . S
C247 C246 1.386 . S
C247 C251 1.393 . S
C248 H237 0.950 . S
C248 C246 1.391 . S
C248 C249 1.400 . S
C249 C243 1.491 . S
C249 C248 1.400 . S
C249 C250 1.398 . S
C250 H238 0.950 . S
C250 C249 1.398 . S
C250 C251 1.391 . S
C251 H239 0.950 . S
C251 C247 1.393 . S
C251 C250 1.391 . S
H252 C260 0.950 . S
H253 C265 0.950 . S
H254 C262 0.950 . S
H255 C264 0.950 . S
H256 C266 0.950 . S
H257 C268 0.950 . S
H258 C270 0.950 . S
H259 C271 0.950 . S
C260 H252 0.950 . S
C260 C261 1.386 . S
C260 C262 1.391 . S
C261 C260 1.386 . S
C261 C265 1.393 . S
C262 H254 0.950 . S
C262 C260 1.391 . S
C262 C263 1.400 . S
C263 C262 1.400 . S
C263 C264 1.398 . S
C263 C269 1.491 . S
C264 H255 0.950 . S
C264 C263 1.398 . S
C264 C265 1.391 . S
C265 H253 0.950 . S
C265 C261 1.393 . S
C265 C264 1.391 . S
C266 H256 0.950 . S
C266 C267 1.386 . S
C266 C268 1.391 . S
C267 C266 1.386 . S
C267 C271 1.393 . S
C268 H257 0.950 . S
C268 C266 1.391 . S
C268 C269 1.400 . S
C269 C263 1.491 . S
C269 C268 1.400 . S
C269 C270 1.398 . S
C270 H258 0.950 . S
C270 C269 1.398 . S
C270 C271 1.391 . S
C271 H259 0.950 . S
C271 C267 1.393 . S
C271 C270 1.391 . S
H272 C280 0.950 1_556 S
H273 C285 0.950 . S
H274 C282 0.950 1_556 S
H275 C284 0.950 . S
H276 C286 0.950 . S
H277 C288 0.950 . S
H278 C290 0.950 1_556 S
H279 C291 0.950 1_556 S
C280 H272 0.950 1_554 S
C280 C281 1.386 . S
C280 C282 1.391 . S
C281 C280 1.386 . S
C281 C285 1.393 . S
C282 H274 0.950 1_554 S
C282 C280 1.391 . S
C282 C283 1.400 . S
C283 C282 1.400 . S
C283 C284 1.398 . S
C283 C289 1.491 . S
C284 H275 0.950 . S
C284 C283 1.398 . S
C284 C285 1.391 . S
C285 H273 0.950 . S
C285 C281 1.393 . S
C285 C284 1.391 . S
C286 H276 0.950 . S
C286 C287 1.386 . S
C286 C288 1.391 . S
C287 C286 1.386 . S
C287 C291 1.393 . S
C288 H277 0.950 . S
C288 C286 1.391 . S
C288 C289 1.400 . S
C289 C283 1.491 . S
C289 C288 1.400 . S
C289 C290 1.398 . S
C290 H278 0.950 1_554 S
C290 C289 1.398 . S
C290 C291 1.391 . S
C291 H279 0.950 1_554 S
C291 C287 1.393 . S
C291 C290 1.391 . S
H292 C300 0.950 . S
H293 C305 0.950 . S
H294 C302 0.950 . S
H295 C304 0.950 . S
H296 C306 0.950 . S
H297 C308 0.950 . S
H298 C310 0.950 . S
H299 C311 0.950 . S
C300 H292 0.950 . S
C300 C301 1.386 . S
C300 C302 1.391 . S
C301 C300 1.386 . S
C301 C305 1.393 . S
C302 H294 0.950 . S
C302 C300 1.391 . S
C302 C303 1.400 . S
C303 C302 1.400 . S
C303 C304 1.398 . S
C303 C309 1.491 . S
C304 H295 0.950 . S
C304 C303 1.398 . S
C304 C305 1.391 . S
C305 H293 0.950 . S
C305 C301 1.393 . S
C305 C304 1.391 . S
C306 H296 0.950 . S
C306 C307 1.386 . S
C306 C308 1.391 . S
C307 C306 1.386 . S
C307 C311 1.393 . S
C308 H297 0.950 . S
C308 C306 1.391 . S
C308 C309 1.400 . S
C309 C303 1.491 . S
C309 C308 1.400 . S
C309 C310 1.398 . S
C310 H298 0.950 . S
C310 C309 1.398 . S
C310 C311 1.391 . S
C311 H299 0.950 . S
C311 C307 1.393 . S
C311 C310 1.391 . S
H312 C320 0.950 . S
H313 C325 0.950 . S
H314 C322 0.950 . S
H315 C324 0.950 . S
H316 C326 0.950 . S
H317 C328 0.950 . S
H318 C330 0.950 . S
H319 C331 0.950 . S
C320 H312 0.950 . S
C320 C321 1.386 . S
C320 C322 1.391 . S
C321 C320 1.386 . S
C321 C325 1.393 . S
C322 H314 0.950 . S
C322 C320 1.391 . S
C322 C323 1.400 . S
C323 C322 1.400 . S
C323 C324 1.398 . S
C323 C329 1.491 . S
C324 H315 0.950 . S
C324 C323 1.398 . S
C324 C325 1.391 . S
C325 H313 0.950 . S
C325 C321 1.393 . S
C325 C324 1.391 . S
C326 H316 0.950 . S
C326 C327 1.386 . S
C326 C328 1.391 . S
C327 C326 1.386 . S
C327 C331 1.393 . S
C328 H317 0.950 . S
C328 C326 1.391 . S
C328 C329 1.400 . S
C329 C323 1.491 . S
C329 C328 1.400 . S
C329 C330 1.398 . S
C330 H318 0.950 . S
C330 C329 1.398 . S
C330 C331 1.391 . S
C331 H319 0.950 . S
C331 C327 1.393 . S
C331 C330 1.391 . S
H332 C340 0.950 . S
H333 C345 0.950 . S
H334 C342 0.950 . S
H335 C344 0.950 . S
H336 C346 0.950 . S
H337 C348 0.950 . S
H338 C350 0.950 . S
H339 C351 0.950 . S
C340 H332 0.950 . S
C340 C341 1.386 . S
C340 C342 1.391 . S
C341 C340 1.386 . S
C341 C345 1.393 . S
C342 H334 0.950 . S
C342 C340 1.391 . S
C342 C343 1.400 . S
C343 C342 1.400 . S
C343 C344 1.398 . S
C343 C349 1.491 . S
C344 H335 0.950 . S
C344 C343 1.398 . S
C344 C345 1.391 . S
C345 H333 0.950 . S
C345 C341 1.393 . S
C345 C344 1.391 . S
C346 H336 0.950 . S
C346 C347 1.386 . S
C346 C348 1.391 . S
C347 C346 1.386 . S
C347 C351 1.393 . S
C348 H337 0.950 . S
C348 C346 1.391 . S
C348 C349 1.400 . S
C349 C343 1.491 . S
C349 C348 1.400 . S
C349 C350 1.398 . S
C350 H338 0.950 . S
C350 C349 1.398 . S
C350 C351 1.391 . S
C351 H339 0.950 . S
C351 C347 1.393 . S
C351 C350 1.391 . S
H352 C360 0.950 . S
H353 C365 0.950 . S
H354 C362 0.950 . S
H355 C364 0.950 . S
H356 C366 0.950 . S
H357 C368 0.950 . S
H358 C370 0.950 . S
H359 C371 0.950 . S
C360 H352 0.950 . S
C360 C361 1.386 . S
C360 C362 1.391 . S
C361 C360 1.386 . S
C361 C365 1.393 . S
C362 H354 0.950 . S
C362 C360 1.391 . S
C362 C363 1.400 . S
C363 C362 1.400 . S
C363 C364 1.398 . S
C363 C369 1.491 . S
C364 H355 0.950 . S
C364 C363 1.398 . S
C364 C365 1.391 . S
C365 H353 0.950 . S
C365 C361 1.393 . S
C365 C364 1.391 . S
C366 H356 0.950 . S
C366 C367 1.386 . S
C366 C368 1.391 . S
C367 C366 1.386 . S
C367 C371 1.393 . S
C368 H357 0.950 . S
C368 C366 1.391 . S
C368 C369 1.400 . S
C369 C363 1.491 . S
C369 C368 1.400 . S
C369 C370 1.398 . S
C370 H358 0.950 . S
C370 C369 1.398 . S
C370 C371 1.391 . S
C371 H359 0.950 . S
C371 C367 1.393 . S
C371 C370 1.391 . S
H372 C380 0.950 . S
H373 C385 0.950 . S
H374 C382 0.950 . S
H375 C384 0.950 . S
H376 C386 0.950 . S
H377 C388 0.950 . S
H378 C390 0.950 . S
H379 C391 0.950 . S
C380 H372 0.950 . S
C380 C381 1.386 . S
C380 C382 1.391 . S
C381 C380 1.386 . S
C381 C385 1.393 . S
C382 H374 0.950 . S
C382 C380 1.391 . S
C382 C383 1.400 . S
C383 C382 1.400 . S
C383 C384 1.398 . S
C383 C389 1.491 . S
C384 H375 0.950 . S
C384 C383 1.398 . S
C384 C385 1.391 . S
C385 H373 0.950 . S
C385 C381 1.393 . S
C385 C384 1.391 . S
C386 H376 0.950 . S
C386 C387 1.386 . S
C386 C388 1.391 . S
C387 C386 1.386 . S
C387 C391 1.393 . S
C388 H377 0.950 . S
C388 C386 1.391 . S
C388 C389 1.400 . S
C389 C383 1.491 . S
C389 C388 1.400 . S
C389 C390 1.398 . S
C390 H378 0.950 . S
C390 C389 1.398 . S
C390 C391 1.391 . S
C391 H379 0.950 . S
C391 C387 1.393 . S
C391 C390 1.391 . S
H392 C400 0.950 1_554 S
H393 C405 0.950 . S
H394 C402 0.950 . S
H395 C404 0.950 . S
H396 C406 0.950 . S
H397 C408 0.950 . S
H398 C410 0.950 . S
H399 C411 0.950 . S
C400 H392 0.950 1_556 S
C400 C401 1.386 . S
C400 C402 1.391 . S
C401 C400 1.386 . S
C401 C405 1.393 . S
C402 H394 0.950 . S
C402 C400 1.391 . S
C402 C403 1.400 . S
C403 C402 1.400 . S
C403 C404 1.398 . S
C403 C409 1.491 . S
C404 H395 0.950 . S
C404 C403 1.398 . S
C404 C405 1.391 . S
C405 H393 0.950 . S
C405 C401 1.393 . S
C405 C404 1.391 . S
C406 H396 0.950 . S
C406 C407 1.386 . S
C406 C408 1.391 . S
C407 C406 1.386 . S
C407 C411 1.393 . S
C408 H397 0.950 . S
C408 C406 1.391 . S
C408 C409 1.400 . S
C409 C403 1.491 . S
C409 C408 1.400 . S
C409 C410 1.398 . S
C410 H398 0.950 . S
C410 C409 1.398 . S
C410 C411 1.391 . S
C411 H399 0.950 . S
C411 C407 1.393 . S
C411 C410 1.391 . S
H412 C420 0.950 . S
H413 C425 0.950 . S
H414 C422 0.950 . S
H415 C424 0.950 . S
H416 C426 0.950 . S
H417 C428 0.950 . S
H418 C430 0.950 . S
H419 C431 0.950 . S
C420 H412 0.950 . S
C420 C421 1.386 . S
C420 C422 1.391 . S
C421 C420 1.386 . S
C421 C425 1.393 . S
C422 H414 0.950 . S
C422 C420 1.391 . S
C422 C423 1.400 . S
C423 C422 1.400 . S
C423 C424 1.398 . S
C423 C429 1.491 . S
C424 H415 0.950 . S
C424 C423 1.398 . S
C424 C425 1.391 . S
C425 H413 0.950 . S
C425 C421 1.393 . S
C425 C424 1.391 . S
C426 H416 0.950 . S
C426 C427 1.386 . S
C426 C428 1.391 . S
C427 C426 1.386 . S
C427 C431 1.393 . S
C428 H417 0.950 . S
C428 C426 1.391 . S
C428 C429 1.400 . S
C429 C423 1.491 . S
C429 C428 1.400 . S
C429 C430 1.398 . S
C430 H418 0.950 . S
C430 C429 1.398 . S
C430 C431 1.391 . S
C431 H419 0.950 . S
C431 C427 1.393 . S
C431 C430 1.391 . S
H432 C440 0.950 . S
H433 C445 0.950 . S
H434 C442 0.950 . S
H435 C444 0.950 . S
H436 C446 0.950 . S
H437 C448 0.950 . S
H438 C450 0.950 . S
H439 C451 0.950 . S
C440 H432 0.950 . S
C440 C441 1.386 . S
C440 C442 1.391 . S
C441 C440 1.386 . S
C441 C445 1.393 . S
C442 H434 0.950 . S
C442 C440 1.391 . S
C442 C443 1.400 . S
C443 C442 1.400 . S
C443 C444 1.398 . S
C443 C449 1.491 . S
C444 H435 0.950 . S
C444 C443 1.398 . S
C444 C445 1.391 . S
C445 H433 0.950 . S
C445 C441 1.393 . S
C445 C444 1.391 . S
C446 H436 0.950 . S
C446 C447 1.386 . S
C446 C448 1.391 . S
C447 C446 1.386 . S
C447 C451 1.393 . S
C448 H437 0.950 . S
C448 C446 1.391 . S
C448 C449 1.400 . S
C449 C443 1.491 . S
C449 C448 1.400 . S
C449 C450 1.398 . S
C450 H438 0.950 . S
C450 C449 1.398 . S
C450 C451 1.391 . S
C451 H439 0.950 . S
C451 C447 1.393 . S
C451 C450 1.391 . S
C227 C112 1.640 . S
C221 C43 1.667 . S
C241 C10 1.660 . S
C247 C184 1.637 . S
C261 C21 1.671 . S
C267 C100 1.659 . S
C281 C32 1.635 . S
C287 C196 1.622 . S
C307 C102 1.425 . S
C301 C5 1.601 . S
C327 C183 1.708 . S
C321 C15 1.710 . S
C341 C27 1.642 . S
C347 C99 1.656 . S
C361 C38 1.600 . S
C367 C186 1.453 . S
C387 C198 1.373 . S
C381 C16 1.558 . S
C407 C114 1.358 . S
C401 C26 1.559 1_556 S
C427 C195 1.631 . S
C421 C37 1.616 . S
C441 C4 1.566 . S
C447 C111 1.585 . S
