# Generated by pormake.
# Topology pyr, (3,6)-cn, num edge types: 1
# Building blocks:
#     Node 0, Type 0, BuildingBlock: BELTOD_clean_linker_0, # of connection points: 3
#     Node 1, Type 0, BuildingBlock: BELTOD_clean_linker_0, # of connection points: 3
#     Node 2, Type 0, BuildingBlock: BELTOD_clean_linker_0, # of connection points: 3
#     Node 3, Type 0, BuildingBlock: BELTOD_clean_linker_0, # of connection points: 3
#     Node 4, Type 0, BuildingBlock: BELTOD_clean_linker_0, # of connection points: 3
#     Node 5, Type 0, BuildingBlock: BELTOD_clean_linker_0, # of connection points: 3
#     Node 6, Type 0, BuildingBlock: BELTOD_clean_linker_0, # of connection points: 3
#     Node 7, Type 0, BuildingBlock: BELTOD_clean_linker_0, # of connection points: 3
#     Node 8, Type 1, BuildingBlock: PAMTOO_clean_sbu_0, # of connection points: 6
#     Node 9, Type 1, BuildingBlock: PAMTOO_clean_sbu_0, # of connection points: 6
#     Node 10, Type 1, BuildingBlock: PAMTOO_clean_sbu_0, # of connection points: 6
#     Node 11, Type 1, BuildingBlock: PAMTOO_clean_sbu_0, # of connection points: 6
#     Edge 12, Type (0, 1), BuildingBlock: TEMPAE_clean_linker_10, # of connection points: 2
#     Edge 13, Type (0, 1), BuildingBlock: TEMPAE_clean_linker_10, # of connection points: 2
#     Edge 14, Type (0, 1), BuildingBlock: TEMPAE_clean_linker_10, # of connection points: 2
#     Edge 15, Type (0, 1), BuildingBlock: TEMPAE_clean_linker_10, # of connection points: 2
#     Edge 16, Type (0, 1), BuildingBlock: TEMPAE_clean_linker_10, # of connection points: 2
#     Edge 17, Type (0, 1), BuildingBlock: TEMPAE_clean_linker_10, # of connection points: 2
#     Edge 18, Type (0, 1), BuildingBlock: TEMPAE_clean_linker_10, # of connection points: 2
#     Edge 19, Type (0, 1), BuildingBlock: TEMPAE_clean_linker_10, # of connection points: 2
#     Edge 20, Type (0, 1), BuildingBlock: TEMPAE_clean_linker_10, # of connection points: 2
#     Edge 21, Type (0, 1), BuildingBlock: TEMPAE_clean_linker_10, # of connection points: 2
#     Edge 22, Type (0, 1), BuildingBlock: TEMPAE_clean_linker_10, # of connection points: 2
#     Edge 23, Type (0, 1), BuildingBlock: TEMPAE_clean_linker_10, # of connection points: 2
#     Edge 24, Type (0, 1), BuildingBlock: TEMPAE_clean_linker_10, # of connection points: 2
#     Edge 25, Type (0, 1), BuildingBlock: TEMPAE_clean_linker_10, # of connection points: 2
#     Edge 26, Type (0, 1), BuildingBlock: TEMPAE_clean_linker_10, # of connection points: 2
#     Edge 27, Type (0, 1), BuildingBlock: TEMPAE_clean_linker_10, # of connection points: 2
#     Edge 28, Type (0, 1), BuildingBlock: TEMPAE_clean_linker_10, # of connection points: 2
#     Edge 29, Type (0, 1), BuildingBlock: TEMPAE_clean_linker_10, # of connection points: 2
#     Edge 30, Type (0, 1), BuildingBlock: TEMPAE_clean_linker_10, # of connection points: 2
#     Edge 31, Type (0, 1), BuildingBlock: TEMPAE_clean_linker_10, # of connection points: 2
#     Edge 32, Type (0, 1), BuildingBlock: TEMPAE_clean_linker_10, # of connection points: 2
#     Edge 33, Type (0, 1), BuildingBlock: TEMPAE_clean_linker_10, # of connection points: 2
#     Edge 34, Type (0, 1), BuildingBlock: TEMPAE_clean_linker_10, # of connection points: 2
#     Edge 35, Type (0, 1), BuildingBlock: TEMPAE_clean_linker_10, # of connection points: 2
# Relax obj value: 0.100
# Max RMSD: 0.161
# Mean RMSD: 0.069
data_MOF--net-pyr--node1-PAMTOO_clean_sbu_0--node2-BELTOD_clean_linker_0--edge1-TEMPAE_clean_linker_10
_symmetry_space_group_name_H-M    P1
_symmetry_Int_Tables_number       1
_symmetry_cell_setting            triclinic
loop_
_symmetry_equiv_pos_as_xyz
'x, y, z'
_cell_length_a     42.036302
_cell_length_b     45.212939
_cell_length_c     45.209673
_cell_angle_alpha  89.921324
_cell_angle_beta   90.172312
_cell_angle_gamma 102.29008
loop_
_atom_site_label
_atom_site_type_symbol
_atom_site_fract_x
_atom_site_fract_y
_atom_site_fract_z
_atom_type_partial_charge
P0 P 0.37825 0.31098 0.23436 0.0
H1 H 0.44148 0.29431 0.23638 0.0
H2 H 0.46343 0.25557 0.21044 0.0
H3 H 0.3752 0.23252 0.15854 0.0
H4 H 0.35343 0.27117 0.18453 0.0
H5 H 0.32076 0.33192 0.25338 0.0
H6 H 0.27904 0.35108 0.22684 0.0
H7 H 0.33272 0.35063 0.14546 0.0
H8 H 0.37425 0.33048 0.17232 0.0
H9 H 0.38728 0.30645 0.29883 0.0
H10 H 0.32015 0.2633 0.2317 0.0
O11 O 0.40721 0.33782 0.24938 0.0
H12 H 0.35481 0.27482 0.33681 0.0
H13 H 0.28805 0.23155 0.26919 0.0
C14 C 0.39626 0.28625 0.21177 0.0
C15 C 0.4272 0.2814 0.21894 0.0
C16 C 0.43957 0.25907 0.20433 0.0
C17 C 0.42107 0.24111 0.1824 0.0
C18 C 0.39024 0.24635 0.17498 0.0
C19 C 0.37781 0.26852 0.18977 0.0
C20 C 0.34995 0.32865 0.21462 0.0
C21 C 0.32362 0.33587 0.22982 0.0
C22 C 0.29989 0.3472 0.21462 0.0
C23 C 0.30233 0.35215 0.18392 0.0
C24 C 0.32977 0.34647 0.16899 0.0
C25 C 0.35355 0.33502 0.18431 0.0
C26 C 0.35589 0.28732 0.26256 0.0
C27 C 0.36566 0.29013 0.29227 0.0
C28 C 0.34718 0.27202 0.31389 0.0
C29 C 0.3187 0.25098 0.30598 0.0
C30 C 0.3095 0.24796 0.27605 0.0
C31 C 0.32797 0.26591 0.25457 0.0
P32 P 0.21934 0.80554 0.68557 0.0
H33 H 0.28124 0.83407 0.71203 0.0
H34 H 0.29939 0.84276 0.76297 0.0
H35 H 0.2065 0.79147 0.7935 0.0
H36 H 0.18823 0.78326 0.74196 0.0
H37 H 0.25403 0.79135 0.63366 0.0
H38 H 0.27437 0.74701 0.62029 0.0
H39 H 0.21993 0.69713 0.69219 0.0
H40 H 0.20035 0.74252 0.70608 0.0
H41 H 0.17947 0.83741 0.72134 0.0
H42 H 0.17087 0.78836 0.63896 0.0
O43 O 0.24251 0.83381 0.66663 0.0
H44 H 0.13145 0.85678 0.70904 0.0
H45 H 0.12362 0.80904 0.6257 0.0
C46 C 0.23306 0.8089 0.72333 0.0
C47 C 0.26478 0.82457 0.72963 0.0
C48 C 0.27528 0.82917 0.75883 0.0
C49 C 0.25432 0.81789 0.78232 0.0
C50 C 0.22304 0.80074 0.77587 0.0
C51 C 0.21259 0.79606 0.7465 0.0
C52 C 0.22616 0.77039 0.67118 0.0
C53 C 0.24584 0.77076 0.64623 0.0
C54 C 0.25729 0.74512 0.63843 0.0
C55 C 0.24908 0.71842 0.65533 0.0
C56 C 0.2272 0.71745 0.67901 0.0
C57 C 0.21581 0.74331 0.68687 0.0
C58 C 0.17839 0.81079 0.68137 0.0
C59 C 0.16651 0.82973 0.70112 0.0
C60 C 0.13923 0.84124 0.69384 0.0
C61 C 0.12393 0.83485 0.6662 0.0
C62 C 0.13453 0.81417 0.64733 0.0
C63 C 0.16162 0.80231 0.65486 0.0
P64 P 0.66708 0.33533 0.81912 0.0
H65 H 0.7342 0.33092 0.83044 0.0
H66 H 0.77755 0.35897 0.86148 0.0
H67 H 0.71348 0.41556 0.89188 0.0
H68 H 0.6696 0.38686 0.86054 0.0
H69 H 0.64692 0.26984 0.80992 0.0
H70 H 0.62086 0.22818 0.84137 0.0
H71 H 0.60559 0.29199 0.90819 0.0
H72 H 0.63312 0.33382 0.87668 0.0
H73 H 0.6801 0.39976 0.8017 0.0
H74 H 0.60656 0.31943 0.78495 0.0
O75 O 0.68627 0.31864 0.79391 0.0
H76 H 0.65641 0.42686 0.76378 0.0
H77 H 0.58358 0.3458 0.74579 0.0
C78 C 0.69876 0.35721 0.84248 0.0
C79 C 0.72937 0.34954 0.84347 0.0
C80 C 0.75433 0.36572 0.86127 0.0
C81 C 0.74933 0.38993 0.87891 0.0
C82 C 0.71826 0.3971 0.87857 0.0
C83 C 0.69319 0.38083 0.86054 0.0
C84 C 0.64235 0.30514 0.84091 0.0
C85 C 0.63778 0.27505 0.83121 0.0
C86 C 0.62254 0.25104 0.84932 0.0
C87 C 0.61105 0.25637 0.87765 0.0
C88 C 0.61458 0.28675 0.88684 0.0
C89 C 0.63006 0.31083 0.86867 0.0
C90 C 0.64455 0.3577 0.7971 0.0
C91 C 0.65825 0.3881 0.79048 0.0
C92 C 0.64498 0.40348 0.76814 0.0
C93 C 0.61807 0.38867 0.75113 0.0
C94 C 0.60389 0.35837 0.75846 0.0
C95 C 0.617 0.34315 0.78107 0.0
P96 P 0.84589 0.68422 0.31209 0.0
H97 H 0.88042 0.74412 0.29249 0.0
H98 H 0.90695 0.78969 0.31929 0.0
H99 H 0.89498 0.73928 0.40116 0.0
H100 H 0.86872 0.69363 0.37408 0.0
H101 H 0.82262 0.62473 0.28535 0.0
H102 H 0.8454 0.59611 0.24822 0.0
H103 H 0.93527 0.66348 0.24994 0.0
H104 H 0.91244 0.69159 0.28782 0.0
H105 H 0.78873 0.69987 0.33807 0.0
H106 H 0.83744 0.62531 0.34391 0.0
O107 O 0.82502 0.7 0.28738 0.0
H108 H 0.74666 0.67407 0.37171 0.0
H109 H 0.7946 0.59862 0.3771 0.0
C110 C 0.87221 0.71544 0.33123 0.0
C111 C 0.884 0.74268 0.31613 0.0
C112 C 0.89893 0.76887 0.33157 0.0
C113 C 0.90262 0.76841 0.36253 0.0
C114 C 0.8926 0.74055 0.37736 0.0
C115 C 0.87753 0.71435 0.36186 0.0
C116 C 0.86606 0.65992 0.29022 0.0
C117 C 0.84762 0.63288 0.27852 0.0
C118 C 0.86056 0.61673 0.2568 0.0
C119 C 0.89221 0.62745 0.2457 0.0
C120 C 0.91099 0.6542 0.25808 0.0
C121 C 0.89797 0.67034 0.27991 0.0
C122 C 0.81575 0.66419 0.33775 0.0
C123 C 0.79018 0.67771 0.34638 0.0
C124 C 0.76598 0.66281 0.36558 0.0
C125 C 0.76672 0.6339 0.37679 0.0
C126 C 0.79313 0.62081 0.36893 0.0
C127 C 0.81753 0.63592 0.34971 0.0
P128 P 0.70592 0.82272 0.87276 0.0
H129 H 0.67242 0.81503 0.92895 0.0
H130 H 0.61992 0.82515 0.94304 0.0
H131 H 0.5935 0.82813 0.85084 0.0
H132 H 0.64612 0.81797 0.83688 0.0
H133 H 0.76783 0.83252 0.90383 0.0
H134 H 0.80058 0.79825 0.92239 0.0
H135 H 0.72446 0.72173 0.89807 0.0
H136 H 0.69096 0.75662 0.88056 0.0
H137 H 0.69726 0.86522 0.82705 0.0
H138 H 0.73102 0.78163 0.83209 0.0
O139 O 0.72203 0.85752 0.88497 0.0
H140 H 0.71325 0.87057 0.77518 0.0
H141 H 0.74718 0.78697 0.78019 0.0
C142 C 0.66343 0.81619 0.88193 0.0
C143 C 0.65477 0.81645 0.91178 0.0
C144 C 0.62462 0.82221 0.91981 0.0
C145 C 0.60276 0.828 0.898 0.0
C146 C 0.61007 0.82424 0.8681 0.0
C147 C 0.64024 0.81841 0.86012 0.0
C148 C 0.7269 0.79708 0.891 0.0
C149 C 0.75777 0.80841 0.90309 0.0
C150 C 0.77668 0.78874 0.9134 0.0
C151 C 0.76539 0.75723 0.91124 0.0
C152 C 0.73379 0.74588 0.9002 0.0
C153 C 0.71464 0.76573 0.89018 0.0
C154 C 0.71312 0.82322 0.83354 0.0
C155 C 0.70754 0.84772 0.81684 0.0
C156 C 0.71647 0.85063 0.78714 0.0
C157 C 0.73146 0.82915 0.77367 0.0
C158 C 0.73579 0.80389 0.7901 0.0
C159 C 0.72653 0.80086 0.81981 0.0
P160 P 0.87374 0.30387 0.31937 0.0
H161 H 0.85464 0.36194 0.32501 0.0
H162 H 0.81002 0.37701 0.35146 0.0
H163 H 0.78647 0.2891 0.39333 0.0
H164 H 0.83054 0.274 0.36629 0.0
H165 H 0.93077 0.30554 0.35716 0.0
H166 H 0.95301 0.26564 0.38124 0.0
H167 H 0.87396 0.19816 0.34524 0.0
H168 H 0.85198 0.23793 0.32137 0.0
H169 H 0.80588 0.29899 0.29932 0.0
H170 H 0.89344 0.27467 0.26706 0.0
O171 O 0.90403 0.33255 0.30993 0.0
H172 H 0.77517 0.27193 0.2585 0.0
H173 H 0.86233 0.24689 0.22607 0.0
C174 C 0.84632 0.31708 0.34409 0.0
C175 C 0.84043 0.34623 0.34051 0.0
C176 C 0.81487 0.35479 0.35563 0.0
C177 C 0.79459 0.3342 0.37443 0.0
C178 C 0.8014 0.30536 0.37876 0.0
C179 C 0.82689 0.29683 0.36358 0.0
C180 C 0.89024 0.27464 0.3369 0.0
C181 C 0.91841 0.28213 0.35433 0.0
C182 C 0.93096 0.25936 0.36819 0.0
C183 C 0.91542 0.22875 0.36483 0.0
C184 C 0.88686 0.22146 0.34771 0.0
C185 C 0.87428 0.24421 0.33405 0.0
C186 C 0.85203 0.28861 0.28648 0.0
C187 C 0.81872 0.28817 0.28334 0.0
C188 C 0.80103 0.27254 0.25997 0.0
C189 C 0.81624 0.25694 0.23934 0.0
C190 C 0.84998 0.25882 0.24156 0.0
C191 C 0.86774 0.27459 0.26499 0.0
P192 P 0.38146 0.66244 0.19753 0.0
H193 H 0.36175 0.6575 0.13588 0.0
H194 H 0.31061 0.6367 0.11048 0.0
H195 H 0.26381 0.6133 0.19478 0.0
H196 H 0.31536 0.63476 0.22016 0.0
H197 H 0.4434 0.70642 0.20007 0.0
H198 H 0.45948 0.75948 0.1849 0.0
H199 H 0.3585 0.76162 0.16977 0.0
H200 H 0.34262 0.70874 0.18544 0.0
H201 H 0.37468 0.60088 0.21905 0.0
H202 H 0.39894 0.69033 0.25676 0.0
O203 O 0.40895 0.64992 0.17721 0.0
H204 H 0.38839 0.57926 0.26581 0.0
H205 H 0.41247 0.66871 0.30397 0.0
C206 C 0.3426 0.64722 0.1799 0.0
C207 C 0.34053 0.6478 0.14895 0.0
C208 C 0.31122 0.63574 0.1344 0.0
C209 C 0.28303 0.62289 0.15047 0.0
C210 C 0.28496 0.62306 0.18165 0.0
C211 C 0.31448 0.63515 0.19623 0.0
C212 C 0.39183 0.70339 0.19376 0.0
C213 C 0.42465 0.71849 0.19413 0.0
C214 C 0.43385 0.74881 0.1851 0.0
C215 C 0.41039 0.76485 0.17555 0.0
C216 C 0.3773 0.75014 0.17699 0.0
C217 C 0.36814 0.71975 0.18597 0.0
C218 C 0.38549 0.64723 0.23432 0.0
C219 C 0.38236 0.61587 0.23761 0.0
C220 C 0.39051 0.60352 0.26433 0.0
C221 C 0.40185 0.62221 0.28868 0.0
C222 C 0.40369 0.65361 0.28576 0.0
C223 C 0.39588 0.66603 0.25875 0.0
P224 P 0.17079 0.3346 0.7258 0.0
H225 H 0.14635 0.27058 0.73959 0.0
H226 H 0.11824 0.22758 0.71069 0.0
H227 H 0.11009 0.28768 0.6378 0.0
H228 H 0.1357 0.33086 0.66819 0.0
H229 H 0.21385 0.39447 0.73513 0.0
H230 H 0.25686 0.42549 0.70522 0.0
H231 H 0.23685 0.35932 0.63523 0.0
H232 H 0.19463 0.3284 0.6651 0.0
H233 H 0.13587 0.31306 0.77978 0.0
H234 H 0.15572 0.39626 0.72998 0.0
O235 O 0.19506 0.31826 0.74661 0.0
H236 H 0.11219 0.33801 0.81947 0.0
H237 H 0.13279 0.42165 0.77011 0.0
C238 C 0.14436 0.30396 0.70573 0.0
C239 C 0.13809 0.2746 0.71753 0.0
C240 C 0.12232 0.24979 0.70063 0.0
C241 C 0.11276 0.25351 0.67115 0.0
C242 C 0.11702 0.28341 0.66021 0.0
C243 C 0.13202 0.30834 0.67755 0.0
C244 C 0.19895 0.35994 0.70177 0.0
C245 C 0.21776 0.38715 0.7129 0.0
C246 C 0.2428 0.40469 0.69594 0.0
C247 C 0.24994 0.39522 0.66753 0.0
C248 C 0.23135 0.36784 0.65658 0.0
C249 C 0.20668 0.3502 0.67367 0.0
C250 C 0.14827 0.3528 0.75203 0.0
C251 C 0.13485 0.33666 0.7772 0.0
C252 C 0.12128 0.351 0.79997 0.0
C253 C 0.12095 0.38202 0.79828 0.0
C254 C 0.13319 0.39789 0.77243 0.0
C255 C 0.14633 0.38334 0.74939 0.0
Dy256 Dy 0.03982 0.02081 0.49191 0.0
Dy257 Dy 0.96888 1.0121 0.52549 0.0
C258 C 0.02828 0.06755 0.54289 0.0
O259 O 0.03659 0.98104 0.52165 0.0
O260 O 0.99861 0.98924 0.55534 0.0
O261 O 0.09173 0.02341 0.49342 0.0
O262 O 0.06702 0.02435 0.45131 0.0
O263 O 0.96797 0.968 0.50268 0.0
O264 O 1.00446 0.98592 0.46606 0.0
O265 O 0.9653 0.03728 0.48347 0.0
O266 O 0.01894 0.05942 0.47654 0.0
O267 O 0.91652 0.99865 0.52251 0.0
O268 O 0.93947 0.01786 0.56315 0.0
C269 C 0.02193 0.9757 0.54729 0.0
O270 O 0.04915 0.05433 0.52925 0.0
O271 O 0.99662 0.05749 0.54063 0.0
C272 C 0.12108 0.05159 0.45475 0.0
C273 C 0.17006 0.09775 0.43115 0.0
C274 C 0.14135 0.10453 0.4426 0.0
C275 C 0.117 0.08158 0.45433 0.0
C276 C 0.15002 0.04489 0.44428 0.0
C277 C 0.17437 0.06777 0.4326 0.0
C278 C 0.09493 0.02689 0.46486 0.0
C279 C 0.98112 0.96461 0.47692 0.0
C280 C 0.98799 0.05853 0.47183 0.0
C281 C 0.89069 0.98177 0.5674 0.0
C282 C 0.8514 0.93942 0.60462 0.0
C283 C 0.8779 0.93183 0.58978 0.0
C284 C 0.89755 0.95297 0.57135 0.0
C285 C 0.86371 0.98902 0.58135 0.0
C286 C 0.84418 0.96802 0.59983 0.0
C287 C 0.91233 1.00506 0.55014 0.0
H288 H 0.13719 0.12735 0.44153 0.0
H289 H 0.09471 0.08709 0.46241 0.0
H290 H 0.15355 0.02183 0.44462 0.0
H291 H 0.19641 0.06194 0.42436 0.0
H292 H 0.88411 0.91004 0.59331 0.0
H293 H 0.91849 0.94715 0.56075 0.0
H294 H 0.85814 1.01117 0.57845 0.0
H295 H 0.82369 0.9743 0.61077 0.0
Dy296 Dy 0.46403 0.01965 0.02848 0.0
Dy297 Dy 0.53639 0.02616 0.05841 0.0
C298 C 0.47747 0.97061 0.07505 0.0
O299 O 0.46355 0.04329 0.07175 0.0
O300 O 0.51745 0.06583 0.07398 0.0
O301 O 0.4118 1.00803 0.03331 0.0
O302 O 0.43332 0.02628 0.99185 0.0
O303 O 0.54421 0.05696 1.01878 0.0
O304 O 0.49249 0.06527 1.01423 0.0
O305 O 0.53068 0.98613 0.02891 0.0
O306 O 0.49059 0.99498 0.99748 0.0
O307 O 0.58794 0.02779 0.05521 0.0
O308 O 0.56558 0.03011 0.09814 0.0
C309 C 0.48717 0.06493 0.08143 0.0
O310 O 0.46291 0.97495 0.05018 0.0
O311 O 0.50204 0.9912 0.08521 0.0
C312 C 0.38537 0.98909 0.98928 0.0
C313 C 0.34812 0.94399 0.95328 0.0
C314 C 0.37387 0.93769 0.97036 0.0
C315 C 0.39248 0.96016 0.98815 0.0
C316 C 0.35907 0.99516 0.97309 0.0
C317 C 0.34055 0.97277 0.95519 0.0
C318 C 0.40666 1.01354 1.00557 0.0
C319 C 0.52379 0.07278 1.00824 0.0
C320 C 0.51389 0.98084 1.00426 0.0
C321 C 0.61987 0.05629 0.09276 0.0
C322 C 0.67059 0.10307 0.11312 0.0
C323 C 0.65302 0.10702 0.08738 0.0
C324 C 0.62775 0.08383 0.07732 0.0
C325 C 0.63753 0.05213 0.11813 0.0
C326 C 0.66257 0.07528 0.12829 0.0
C327 C 0.59267 0.03194 0.08359 0.0
H328 H 0.38047 0.91584 0.969 0.0
H329 H 0.41297 0.95523 1.00037 0.0
H330 H 0.35338 0.01743 0.9737 0.0
H331 H 0.32068 0.97811 0.94239 0.0
H332 H 0.65871 0.12805 0.07507 0.0
H333 H 0.61421 0.08751 0.05771 0.0
H334 H 0.63156 0.03109 0.13044 0.0
H335 H 0.67503 0.07165 0.14855 0.0
Dy336 Dy 0.5079 0.47831 0.50491 0.0
Dy337 Dy 0.51227 0.54232 0.53917 0.0
C338 C 0.53737 0.48759 0.57009 0.0
O339 O 0.46596 0.46897 0.53634 0.0
O340 O 0.46043 0.51761 0.54482 0.0
O341 O 0.50292 0.42977 0.50487 0.0
O342 O 0.50847 0.4545 0.46354 0.0
O343 O 0.50542 0.54977 0.49067 0.0
O344 O 0.47479 0.50322 0.48052 0.0
O345 O 0.56332 0.54622 0.52309 0.0
O346 O 0.553 0.50905 0.4876 0.0
O347 O 0.50159 0.58683 0.53803 0.0
O348 O 0.52467 0.57234 0.57668 0.0
C349 C 0.44951 0.4882 0.54704 0.0
O350 O 0.54148 0.47734 0.54347 0.0
O351 O 0.5213 0.50929 0.57375 0.0
C352 C 0.53643 0.41519 0.46845 0.0
C353 C 0.5911 0.39334 0.44996 0.0
C354 C 0.59248 0.41073 0.47585 0.0
C355 C 0.56545 0.42169 0.48493 0.0
C356 C 0.53473 0.39747 0.44287 0.0
C357 C 0.56189 0.38664 0.43365 0.0
C358 C 0.50901 0.42893 0.47665 0.0
C359 C 0.48388 0.5321 0.47394 0.0
C360 C 0.57225 0.53271 0.49973 0.0
C361 C 0.48528 0.60217 0.58364 0.0
C362 C 0.43144 0.61915 0.61061 0.0
C363 C 0.45385 0.6401 0.59378 0.0
C364 C 0.48054 0.63171 0.58058 0.0
C365 C 0.46352 0.58125 0.60089 0.0
C366 C 0.43696 0.58973 0.61445 0.0
C367 C 0.51013 0.59257 0.56546 0.0
H368 H 0.61477 0.41663 0.48862 0.0
H369 H 0.56745 0.43579 0.50449 0.0
H370 H 0.51263 0.39249 0.42975 0.0
H371 H 0.5601 0.37314 0.4137 0.0
H372 H 0.45011 0.66271 0.58966 0.0
H373 H 0.49672 0.64795 0.56687 0.0
H374 H 0.46646 0.55811 0.60311 0.0
H375 H 0.42046 0.57308 0.62746 0.0
Dy376 Dy 0.0111 0.53873 1.00311 0.0
Dy377 Dy 0.00866 0.47615 0.04011 0.0
C378 C 0.97971 0.52988 0.06854 0.0
O379 O 0.06262 0.54251 1.01882 0.0
O380 O 0.05197 0.50904 0.05749 0.0
O381 O 0.02163 0.58752 0.9998 0.0
O382 O 1.00257 0.56012 0.96197 0.0
O383 O 0.04346 0.47507 1.0026 0.0
O384 O 0.02274 0.50518 0.97061 0.0
O385 O 0.96566 0.46625 1.00957 0.0
O386 O 0.95868 0.51459 1.00244 0.0
O387 O 1.00469 0.42772 0.04062 0.0
O388 O 0.01076 0.45291 0.08165 0.0
C389 C 0.07142 0.53132 0.04371 0.0
O390 O 0.99635 0.54852 0.04903 0.0
O391 O 0.97611 0.50034 0.06584 0.0
C392 C 0.98336 0.6044 0.96934 0.0
C393 C 0.93122 0.63327 0.95929 0.0
C394 C 0.93476 0.61985 0.98682 0.0
C395 C 0.9605 0.60533 0.99175 0.0
C396 C 0.98012 0.61807 0.942 0.0
C397 C 0.95422 0.63236 0.93698 0.0
C398 C 0.00896 0.58714 0.97341 0.0
C399 C 0.03947 0.48424 0.97551 0.0
C400 C 0.94797 0.48516 1.0003 0.0
C401 C 0.04008 0.41459 0.07672 0.0
C402 C 0.09782 0.39747 0.09502 0.0
C403 C 0.09459 0.40752 0.06594 0.0
C404 C 0.06611 0.41617 0.05693 0.0
C405 C 0.04276 0.40367 0.10544 0.0
C406 C 0.07137 0.39521 0.11454 0.0
C407 C 0.01184 0.42741 0.06871 0.0
H408 H 0.91722 0.62001 1.0043 0.0
H409 H 0.96223 0.59441 1.01287 0.0
H410 H 0.99735 0.61729 0.92439 0.0
H411 H 0.95223 0.6428 0.91566 0.0
H412 H 0.11426 0.4091 0.0502 0.0
H413 H 0.06482 0.42485 0.03471 0.0
H414 H 0.02314 0.40268 0.12114 0.0
H415 H 0.07318 0.38798 0.13722 0.0
C416 C 0.31279 0.21689 0.35031 0.0
C417 C 0.29844 0.23197 0.32856 0.0
C418 C 0.2935 0.19652 0.36988 0.0
C419 C 0.25915 0.19121 0.36756 0.0
C420 C 0.2446 0.20743 0.34651 0.0
C421 C 0.26443 0.22763 0.3273 0.0
C422 C 0.30985 0.17966 0.3921 0.0
C423 C 0.20805 0.20251 0.34343 0.0
C424 C 0.2079 0.1149 0.38908 0.0
C425 C 0.19454 0.12142 0.41607 0.0
C426 C 0.22968 0.13725 0.37354 0.0
C427 C 0.23831 0.16691 0.38523 0.0
C428 C 0.22552 0.17354 0.41279 0.0
C429 C 0.20369 0.15069 0.42787 0.0
C430 C 0.24264 0.12932 0.34412 0.0
C431 C 0.23434 0.20488 0.42596 0.0
H432 H 0.33907 0.22009 0.35127 0.0
H433 H 0.25327 0.23969 0.31087 0.0
H434 H 0.29948 0.1811 0.41445 0.0
H435 H 0.30529 0.15535 0.38602 0.0
H436 H 0.33658 0.18858 0.39314 0.0
H437 H 0.20065 0.21847 0.32742 0.0
H438 H 0.19804 0.17905 0.33579 0.0
H439 H 0.19683 0.20522 0.36516 0.0
H440 H 0.20054 0.09246 0.37961 0.0
H441 H 0.19368 0.15575 0.44888 0.0
H442 H 0.26963 0.13551 0.34408 0.0
H443 H 0.23393 0.14248 0.32624 0.0
H444 H 0.23485 0.10485 0.33887 0.0
H445 H 0.26118 0.21257 0.42732 0.0
H446 H 0.22394 0.20586 0.44842 0.0
H447 H 0.2252 0.22109 0.41146 0.0
C448 C 0.24298 0.83776 0.83189 0.0
C449 C 0.26433 0.82681 0.81309 0.0
C450 C 0.25417 0.85249 0.8584 0.0
C451 C 0.28749 0.85654 0.86605 0.0
C452 C 0.30842 0.84314 0.84851 0.0
C453 C 0.29652 0.82829 0.82228 0.0
C454 C 0.23097 0.86605 0.87679 0.0
C455 C 0.3441 0.84683 0.85596 0.0
C456 C 0.32689 0.93055 0.90255 0.0
C457 C 0.33098 0.92152 0.9317 0.0
C458 C 0.31243 0.90958 0.88117 0.0
C459 C 0.30153 0.8788 0.88919 0.0
C460 C 0.30501 0.86957 0.91874 0.0
C461 C 0.31997 0.89107 0.93967 0.0
C462 C 0.30948 0.9203 0.84979 0.0
C463 C 0.29329 0.83703 0.9281 0.0
H464 H 0.21808 0.83678 0.82493 0.0
H465 H 0.31292 0.81925 0.80812 0.0
H466 H 0.23464 0.86237 0.90071 0.0
H467 H 0.23575 0.89085 0.87296 0.0
H468 H 0.20515 0.85636 0.87101 0.0
H469 H 0.35586 0.83148 0.8427 0.0
H470 H 0.35685 0.87052 0.85144 0.0
H471 H 0.34745 0.84238 0.87977 0.0
H472 H 0.33587 0.95398 0.89624 0.0
H473 H 0.323 0.88413 0.96228 0.0
H474 H 0.28364 0.91484 0.84263 0.0
H475 H 0.32324 0.90838 0.83461 0.0
H476 H 0.31889 0.94507 0.84733 0.0
H477 H 0.26723 0.82911 0.9222 0.0
H478 H 0.29624 0.83387 0.95225 0.0
H479 H 0.30705 0.82243 0.9161 0.0
C480 C 0.6279 0.42466 0.70733 0.0
C481 C 0.60604 0.40413 0.72502 0.0
C482 C 0.61725 0.43877 0.68242 0.0
C483 C 0.58388 0.43204 0.67437 0.0
C484 C 0.56164 0.41138 0.69199 0.0
C485 C 0.57288 0.3979 0.71705 0.0
C486 C 0.64188 0.46078 0.66456 0.0
C487 C 0.52589 0.40332 0.68426 0.0
C488 C 0.5504 0.48722 0.62466 0.0
C489 C 0.55011 0.4738 0.5966 0.0
C490 C 0.56151 0.47408 0.64997 0.0
C491 C 0.5723 0.44652 0.64748 0.0
C492 C 0.57205 0.43285 0.61921 0.0
C493 C 0.56121 0.44669 0.5942 0.0
C494 C 0.56173 0.48977 0.67944 0.0
C495 C 0.58293 0.40336 0.61541 0.0
H496 H 0.65364 0.42939 0.71256 0.0
H497 H 0.55549 0.38254 0.73052 0.0
H498 H 0.6427 0.45225 0.64164 0.0
H499 H 0.63457 0.48292 0.66313 0.0
H500 H 0.66675 0.46445 0.67421 0.0
H501 H 0.51173 0.38659 0.69988 0.0
H502 H 0.51561 0.42398 0.68442 0.0
H503 H 0.52262 0.39381 0.66157 0.0
H504 H 0.54201 0.50816 0.62691 0.0
H505 H 0.56096 0.43593 0.57277 0.0
H506 H 0.58673 0.49471 0.68881 0.0
H507 H 0.54591 0.4747 0.69531 0.0
H508 H 0.55315 0.51131 0.67768 0.0
H509 H 0.60853 0.40593 0.62291 0.0
H510 H 0.58114 0.39549 0.59208 0.0
H511 H 0.56783 0.38559 0.62939 0.0
C512 C 0.88405 0.59974 0.19678 0.0
C513 C 0.90475 0.61166 0.22035 0.0
C514 C 0.89542 0.58553 0.17244 0.0
C515 C 0.92844 0.58302 0.17133 0.0
C516 C 0.94944 0.59476 0.19512 0.0
C517 C 0.93742 0.60893 0.21921 0.0
C518 C 0.87213 0.57363 0.1476 0.0
C519 C 0.98476 0.59256 0.19501 0.0
C520 C 0.95228 0.52488 0.11866 0.0
C521 C 0.96551 0.54299 0.09455 0.0
C522 C 0.94024 0.53753 0.14374 0.0
C523 C 0.94118 0.56907 0.14485 0.0
C524 C 0.95415 0.58737 0.12043 0.0
C525 C 0.96616 0.5742 0.09576 0.0
C526 C 0.92671 0.51712 0.1692 0.0
C527 C 0.95548 0.62101 0.12038 0.0
H528 H 0.85894 0.60211 0.19697 0.0
H529 H 0.95364 0.61769 0.23731 0.0
H530 H 0.88063 0.58573 0.12677 0.0
H531 H 0.87153 0.54927 0.14388 0.0
H532 H 0.84698 0.5764 0.15216 0.0
H533 H 0.99775 0.60199 0.21547 0.0
H534 H 0.98667 0.56857 0.19276 0.0
H535 H 0.99728 0.605 0.1757 0.0
H536 H 0.95172 0.50082 0.11815 0.0
H537 H 0.97616 0.58854 0.07735 0.0
H538 H 0.90107 0.5185 0.17334 0.0
H539 H 0.94069 0.52476 0.18966 0.0
H540 H 0.92763 0.49311 0.16503 0.0
H541 H 0.93066 0.6253 0.12324 0.0
H542 H 0.96594 0.63209 0.0996 0.0
H543 H 0.97044 0.63183 0.13927 0.0
C544 C 0.43036 0.21152 0.13764 0.0
C545 C 0.4331 0.21599 0.16829 0.0
C546 C 0.44036 0.18705 0.12422 0.0
C547 C 0.45311 0.16644 0.14194 0.0
C548 C 0.45623 0.17101 0.17287 0.0
C549 C 0.44628 0.1958 0.18567 0.0
C550 C 0.43697 0.1831 0.09111 0.0
C551 C 0.46944 0.14936 0.1925 0.0
C552 C 0.44752 0.08799 0.10976 0.0
C553 C 0.47915 0.09 0.09894 0.0
C554 C 0.43894 0.11248 0.12442 0.0
C555 C 0.46247 0.13972 0.12811 0.0
C556 C 0.49461 0.1417 0.1178 0.0
C557 C 0.50261 0.11676 0.10345 0.0
C558 C 0.4045 0.10941 0.13541 0.0
C559 C 0.52031 0.17043 0.12118 0.0
H560 H 0.42045 0.22724 0.12413 0.0
H561 H 0.44803 0.19896 0.20943 0.0
H562 H 0.4609 0.18229 0.08123 0.0
H563 H 0.42014 0.16128 0.08595 0.0
H564 H 0.42756 0.20165 0.08041 0.0
H565 H 0.47104 0.15653 0.21604 0.0
H566 H 0.45355 0.12643 0.19097 0.0
H567 H 0.49403 0.14752 0.18495 0.0
H568 H 0.42928 0.06736 0.10648 0.0
H569 H 0.52707 0.11858 0.09506 0.0
H570 H 0.39261 0.12568 0.12358 0.0
H571 H 0.40462 0.115 0.1593 0.0
H572 H 0.38957 0.08622 0.1321 0.0
H573 H 0.51288 0.18906 0.10877 0.0
H574 H 0.54447 0.16792 0.11295 0.0
H575 H 0.52279 0.17731 0.14476 0.0
C576 C 0.07441 0.84053 0.63712 0.0
C577 C 0.10104 0.85331 0.65511 0.0
C578 C 0.05643 0.85892 0.62229 0.0
C579 C 0.06547 0.89077 0.62544 0.0
C580 C 0.09077 0.90359 0.64522 0.0
C581 C 0.10826 0.88474 0.65974 0.0
C582 C 0.02929 0.84439 0.60168 0.0
C583 C 0.10129 0.93744 0.64916 0.0
C584 C 0.0581 0.94018 0.55928 0.0
C585 C 0.0318 0.95311 0.56715 0.0
C586 C 0.06858 0.91928 0.57775 0.0
C587 C 0.05233 0.9109 0.60483 0.0
C588 C 0.02528 0.92324 0.6127 0.0
C589 C 0.01536 0.94432 0.59377 0.0
C590 C 0.09765 0.90675 0.56855 0.0
C591 C 0.00728 0.91466 0.64132 0.0
H592 H 0.06841 0.81624 0.63376 0.0
H593 H 0.12905 0.89497 0.67322 0.0
H594 H 0.0078 0.85472 0.60444 0.0
H595 H 0.0376 0.84827 0.57845 0.0
H596 H 0.02173 0.8196 0.6054 0.0
H597 H 0.11824 0.94354 0.66815 0.0
H598 H 0.11377 0.94761 0.62882 0.0
H599 H 0.07988 0.94773 0.65262 0.0
H600 H 0.07096 0.94668 0.53875 0.0
H601 H 0.99486 0.95402 0.59994 0.0
H602 H 0.09119 0.88165 0.56834 0.0
H603 H 0.11771 0.91363 0.58478 0.0
H604 H 0.10681 0.91475 0.54629 0.0
H605 H 1.00024 0.88967 0.64346 0.0
H606 H 0.98504 0.92413 0.64297 0.0
H607 H 0.02348 0.92313 0.66027 0.0
C608 C 0.80843 0.41451 0.88615 0.0
C609 C 0.77663 0.4072 0.89747 0.0
C610 C 0.83493 0.42874 0.90374 0.0
C611 C 0.82975 0.43599 0.93357 0.0
C612 C 0.7976 0.42953 0.94495 0.0
C613 C 0.77145 0.41528 0.92678 0.0
C614 C 0.86867 0.43538 0.89053 0.0
C615 C 0.79093 0.43686 0.97658 0.0
C616 C 0.90346 0.44156 0.98435 0.0
C617 C 0.91603 0.47292 0.98555 0.0
C618 C 0.87487 0.42939 0.9684 0.0
C619 C 0.85828 0.44895 0.95304 0.0
C620 C 0.87025 0.48068 0.95487 0.0
C621 C 0.89887 0.49226 0.97111 0.0
C622 C 0.86298 0.39546 0.96724 0.0
C623 C 0.85343 0.50239 0.93886 0.0
H624 H 0.81269 0.40893 0.8634 0.0
H625 H 0.74708 0.40959 0.93586 0.0
H626 H 0.8801 0.45971 0.8932 0.0
H627 H 0.88423 0.42226 0.90242 0.0
H628 H 0.86847 0.42958 0.86665 0.0
H629 H 0.76446 0.43226 0.98155 0.0
H630 H 0.80276 0.42315 0.99176 0.0
H631 H 0.80154 0.46102 0.98134 0.0
H632 H 0.91631 0.42632 0.99547 0.0
H633 H 0.90826 0.51651 0.97179 0.0
H634 H 0.8646 0.3874 0.94424 0.0
H635 H 0.83702 0.38918 0.97387 0.0
H636 H 0.87734 0.38343 0.98188 0.0
H637 H 0.85506 0.49917 0.91463 0.0
H638 H 0.86433 0.5264 0.94418 0.0
H639 H 0.8272 0.49771 0.94463 0.0
C640 C 0.74591 0.60068 0.42076 0.0
C641 C 0.73966 0.61759 0.39613 0.0
C642 C 0.72048 0.58589 0.43929 0.0
C643 C 0.68795 0.58804 0.43314 0.0
C644 C 0.6815 0.60488 0.40822 0.0
C645 C 0.70729 0.61928 0.39006 0.0
C646 C 0.72843 0.5681 0.46554 0.0
C647 C 0.64724 0.60771 0.40068 0.0
C648 C 0.61508 0.52994 0.46175 0.0
C649 C 0.60388 0.54566 0.48496 0.0
C650 C 0.64309 0.54296 0.44551 0.0
C651 C 0.66043 0.57257 0.45244 0.0
C652 C 0.64999 0.58814 0.47653 0.0
C653 C 0.62195 0.5745 0.49253 0.0
C654 C 0.65341 0.52537 0.42022 0.0
C655 C 0.66771 0.61973 0.48471 0.0
H656 H 0.77077 0.59939 0.42589 0.0
H657 H 0.70197 0.63172 0.37081 0.0
H658 H 0.72069 0.57764 0.48625 0.0
H659 H 0.71478 0.54428 0.46402 0.0
H660 H 0.75485 0.56828 0.46714 0.0
H661 H 0.6463 0.6219 0.38075 0.0
H662 H 0.63172 0.58495 0.39669 0.0
H663 H 0.63653 0.61783 0.41955 0.0
H664 H 0.60157 0.50755 0.45578 0.0
H665 H 0.61361 0.58692 0.51036 0.0
H666 H 0.67958 0.52484 0.42228 0.0
H667 H 0.65025 0.53676 0.39899 0.0
H668 H 0.63905 0.50173 0.41922 0.0
H669 H 0.69407 0.62047 0.48773 0.0
H670 H 0.65808 0.62791 0.5053 0.0
H671 H 0.66531 0.63557 0.46647 0.0
C672 C 0.26429 0.34824 0.14053 0.0
C673 C 0.27541 0.36172 0.16764 0.0
C674 C 0.23667 0.35467 0.12652 0.0
C675 C 0.21962 0.37483 0.14011 0.0
C676 C 0.23137 0.38931 0.16692 0.0
C677 C 0.25922 0.38273 0.18025 0.0
C678 C 0.22508 0.33909 0.09774 0.0
C679 C 0.21384 0.41094 0.1821 0.0
C680 C 0.15889 0.40924 0.09682 0.0
C681 C 0.12914 0.39069 0.10536 0.0
C682 C 0.18861 0.4039 0.10734 0.0
C683 C 0.18857 0.37967 0.12718 0.0
C684 C 0.15869 0.36064 0.13562 0.0
C685 C 0.12936 0.36629 0.12449 0.0
C686 C 0.21999 0.42455 0.09768 0.0
C687 C 0.15766 0.33465 0.15687 0.0
H688 H 0.27642 0.33175 0.13076 0.0
H689 H 0.26801 0.39368 0.2009 0.0
H690 H 0.20127 0.32331 0.10115 0.0
H691 H 0.22134 0.35595 0.08095 0.0
H692 H 0.24253 0.32606 0.08883 0.0
H693 H 0.2269 0.42127 0.2022 0.0
H694 H 0.21093 0.42932 0.16672 0.0
H695 H 0.18907 0.39877 0.18861 0.0
H696 H 0.15898 0.42844 0.08243 0.0
H697 H 0.10654 0.35159 0.13086 0.0
H698 H 0.23678 0.41104 0.08845 0.0
H699 H 0.23233 0.43707 0.11705 0.0
H700 H 0.21594 0.44122 0.08077 0.0
H701 H 0.1724 0.31897 0.14818 0.0
H702 H 0.13246 0.32166 0.1608 0.0
H703 H 0.16847 0.34337 0.1784 0.0
C704 C 0.6023 0.23177 0.9283 0.0
C705 C 0.59655 0.23027 0.89761 0.0
C706 C 0.59022 0.20688 0.94698 0.0
C707 C 0.57217 0.17949 0.93483 0.0
C708 C 0.56597 0.1779 0.90397 0.0
C709 C 0.57795 0.20322 0.88589 0.0
C710 C 0.59717 0.20981 0.97974 0.0
C711 C 0.54695 0.14923 0.88994 0.0
C712 C 0.56781 0.10551 0.9776 0.0
C713 C 0.53639 0.10025 0.98975 0.0
C714 C 0.57972 0.13111 0.95979 0.0
C715 C 0.56002 0.1524 0.95424 0.0
C716 C 0.52847 0.14745 0.96683 0.0
C717 C 0.51699 0.12143 0.98417 0.0
C718 C 0.61331 0.13517 0.9466 0.0
C719 C 0.50677 0.16968 0.96198 0.0
H720 H 0.61695 0.2522 0.93778 0.0
H721 H 0.57264 0.20174 0.86241 0.0
H722 H 0.57407 0.20412 0.99236 0.0
H723 H 0.61215 0.19351 0.98657 0.0
H724 H 0.61026 0.23297 0.986 0.0
H725 H 0.54429 0.15151 0.86564 0.0
H726 H 0.5593 0.13028 0.89434 0.0
H727 H 0.52233 0.143 0.89986 0.0
H728 H 0.58304 0.08936 0.98165 0.0
H729 H 0.4928 0.11785 0.99359 0.0
H730 H 0.62863 0.15708 0.95381 0.0
H731 H 0.61169 0.13582 0.92211 0.0
H732 H 0.62566 0.1167 0.95302 0.0
H733 H 0.51938 0.19256 0.96943 0.0
H734 H 0.48332 0.16313 0.97401 0.0
H735 H 0.50151 0.1713 0.93805 0.0
C736 C 0.90458 0.82371 0.37188 0.0
C737 C 0.91516 0.79717 0.37929 0.0
C738 C 0.91534 0.85083 0.3877 0.0
C739 C 0.93748 0.85173 0.41154 0.0
C740 C 0.94841 0.82508 0.41908 0.0
C741 C 0.93702 0.79815 0.40301 0.0
C742 C 0.90271 0.87849 0.37903 0.0
C743 C 0.9722 0.82503 0.44414 0.0
C744 C 0.9868 0.92939 0.43496 0.0
C745 C 0.96987 0.93581 0.46009 0.0
C746 C 0.97682 0.90205 0.41925 0.0
C747 C 0.94899 0.88054 0.4286 0.0
C748 C 0.93176 0.88691 0.4539 0.0
C749 C 0.94245 0.91429 0.46936 0.0
C750 C 0.99611 0.89618 0.39259 0.0
C751 C 0.90182 0.86484 0.46457 0.0
H752 H 0.88726 0.82316 0.35398 0.0
H753 H 0.94556 0.77791 0.40882 0.0
H754 H 0.88997 0.88622 0.39805 0.0
H755 H 0.92331 0.89729 0.37314 0.0
H756 H 0.88561 0.87414 0.35997 0.0
H757 H 0.97866 0.80262 0.44706 0.0
H758 H 0.99482 0.84225 0.43999 0.0
H759 H 0.96169 0.83126 0.46512 0.0
H760 H 0.00813 0.94565 0.42763 0.0
H761 H 0.92911 0.91889 0.4887 0.0
H762 H 0.98037 0.89346 0.37261 0.0
H763 H 1.00459 0.87475 0.39562 0.0
H764 H 0.01761 0.91478 0.38856 0.0
H765 H 0.88305 0.86091 0.44687 0.0
H766 H 0.8912 0.87302 0.48465 0.0
H767 H 0.90794 0.84269 0.46965 0.0
C768 C 0.2787 0.67957 0.67442 0.0
C769 C 0.26675 0.6936 0.65031 0.0
C770 C 0.30167 0.6615 0.67031 0.0
C771 C 0.31347 0.658 0.64154 0.0
C772 C 0.29936 0.6698 0.61692 0.0
C773 C 0.27583 0.68709 0.6216 0.0
C774 C 0.31519 0.64827 0.69702 0.0
C775 C 0.31122 0.6666 0.58583 0.0
C776 C 0.40274 0.65739 0.63206 0.0
C777 C 0.40157 0.62771 0.62238 0.0
C778 C 0.37425 0.66719 0.63914 0.0
C779 C 0.34381 0.64656 0.63747 0.0
C780 C 0.34258 0.616 0.62984 0.0
C781 C 0.37143 0.60703 0.62197 0.0
C782 C 0.37669 0.70006 0.64707 0.0
C783 C 0.31074 0.59306 0.62875 0.0
H784 H 0.27193 0.68433 0.69674 0.0
H785 H 0.26598 0.69706 0.60277 0.0
H786 H 0.31858 0.62505 0.69231 0.0
H787 H 0.33938 0.6624 0.70273 0.0
H788 H 0.29906 0.64747 0.71655 0.0
H789 H 0.29554 0.67434 0.56895 0.0
H790 H 0.33635 0.68029 0.5835 0.0
H791 H 0.31208 0.64272 0.58116 0.0
H792 H 0.42594 0.67332 0.63336 0.0
H793 H 0.37007 0.58409 0.61439 0.0
H794 H 0.36544 0.70188 0.66897 0.0
H795 H 0.36311 0.71081 0.63059 0.0
H796 H 0.40228 0.71306 0.64778 0.0
H797 H 0.29537 0.5956 0.64811 0.0
H798 H 0.31456 0.56949 0.62824 0.0
H799 H 0.29706 0.59679 0.60856 0.0
C800 C 0.77848 0.8339 0.73923 0.0
C801 C 0.74588 0.83532 0.74386 0.0
C802 C 0.79486 0.84601 0.71354 0.0
C803 C 0.77812 0.85972 0.69205 0.0
C804 C 0.74442 0.85865 0.69538 0.0
C805 C 0.7287 0.84656 0.72137 0.0
C806 C 0.8308 0.84671 0.71084 0.0
C807 C 0.72561 0.87261 0.67273 0.0
C808 C 0.82653 0.92966 0.65447 0.0
C809 C 0.83256 0.91855 0.6266 0.0
C810 C 0.80893 0.91062 0.67586 0.0
C811 C 0.79686 0.87967 0.66918 0.0
C812 C 0.80289 0.86821 0.64109 0.0
C813 C 0.8209 0.88783 0.62011 0.0
C814 C 0.80337 0.92368 0.70569 0.0
C815 C 0.79016 0.83539 0.63321 0.0
H816 H 0.79191 0.82538 0.75663 0.0
H817 H 0.70335 0.84725 0.72475 0.0
H818 H 0.83696 0.84083 0.68807 0.0
H819 H 0.8448 0.86994 0.71554 0.0
H820 H 0.83885 0.83089 0.72661 0.0
H821 H 0.69889 0.86539 0.67596 0.0
H822 H 0.73241 0.89764 0.67457 0.0
H823 H 0.73168 0.8665 0.64999 0.0
H824 H 0.83603 0.9533 0.65969 0.0
H825 H 0.82547 0.87928 0.59849 0.0
H826 H 0.81362 0.91148 0.72344 0.0
H827 H 0.77689 0.92065 0.70988 0.0
H828 H 0.81469 0.94817 0.70737 0.0
H829 H 0.79961 0.82061 0.64909 0.0
H830 H 0.79713 0.83003 0.61048 0.0
H831 H 0.76322 0.82977 0.63491 0.0
C832 C 0.80644 0.23618 0.18777 0.0
C833 C 0.79638 0.23675 0.21728 0.0
C834 C 0.78796 0.21627 0.16723 0.0
C835 C 0.75905 0.19633 0.17661 0.0
C836 C 0.74877 0.19696 0.20634 0.0
C837 C 0.76752 0.21716 0.22626 0.0
C838 C 0.79944 0.21638 0.13563 0.0
C839 C 0.71825 0.17585 0.21731 0.0
C840 C 0.691 0.15787 0.12579 0.0
C841 C 0.69599 0.12815 0.12529 0.0
C842 C 0.71268 0.18093 0.14075 0.0
C843 C 0.73972 0.17401 0.15587 0.0
C844 C 0.74591 0.14451 0.15402 0.0
C845 C 0.7241 0.122 0.13857 0.0
C846 C 0.7055 0.21223 0.14193 0.0
C847 C 0.77443 0.13618 0.16992 0.0
H848 H 0.82866 0.25142 0.18075 0.0
H849 H 0.75996 0.21711 0.24917 0.0
H850 H 0.80462 0.194 0.13003 0.0
H851 H 0.78001 0.22025 0.12036 0.0
H852 H 0.82177 0.23407 0.13162 0.0
H853 H 0.71343 0.17955 0.24103 0.0
H854 H 0.69691 0.17904 0.20416 0.0
H855 H 0.72043 0.152 0.2144 0.0
H856 H 0.66928 0.16285 0.11576 0.0
H857 H 0.72856 0.09927 0.13768 0.0
H858 H 0.72788 0.22969 0.1376 0.0
H859 H 0.69686 0.21645 0.16438 0.0
H860 H 0.68651 0.21506 0.12565 0.0
H861 H 0.79723 0.1528 0.1649 0.0
H862 H 0.7777 0.11321 0.16386 0.0
H863 H 0.77053 0.13676 0.19417 0.0
C864 C 0.43337 0.58804 0.31453 0.0
C865 C 0.41303 0.60895 0.31633 0.0
C866 C 0.44442 0.57538 0.34011 0.0
C867 C 0.43457 0.5833 0.36847 0.0
C868 C 0.41379 0.6042 0.37045 0.0
C869 C 0.40357 0.61697 0.34447 0.0
C870 C 0.46706 0.55378 0.33675 0.0
C871 C 0.40222 0.61301 0.40008 0.0
C872 C 0.44234 0.5297 0.43284 0.0
C873 C 0.47087 0.54499 0.44706 0.0
C874 C 0.42992 0.5421 0.40769 0.0
C875 C 0.4467 0.57025 0.39595 0.0
C876 C 0.47564 0.58563 0.41013 0.0
C877 C 0.48712 0.57303 0.43553 0.0
C878 C 0.39875 0.52509 0.3937 0.0
C879 C 0.49479 0.61532 0.39823 0.0
H880 H 0.44121 0.58197 0.29297 0.0
H881 H 0.3877 0.6329 0.34615 0.0
H882 H 0.49028 0.56281 0.34854 0.0
H883 H 0.4561 0.53165 0.34696 0.0
H884 H 0.47257 0.54997 0.31322 0.0
H885 H 0.38527 0.62869 0.39792 0.0
H886 H 0.38969 0.59247 0.41219 0.0
H887 H 0.42336 0.6241 0.41374 0.0
H888 H 0.42944 0.50815 0.44158 0.0
H889 H 0.50927 0.58504 0.44614 0.0
H890 H 0.40342 0.5189 0.37063 0.0
H891 H 0.38071 0.53977 0.39272 0.0
H892 H 0.38792 0.50411 0.40603 0.0
H893 H 0.5023 0.61232 0.37511 0.0
H894 H 0.51692 0.62438 0.41161 0.0
H895 H 0.47934 0.63237 0.39785 0.0
C896 C 0.12676 0.42576 0.83408 0.0
C897 C 0.10892 0.39775 0.82384 0.0
C898 C 0.11658 0.44011 0.85896 0.0
C899 C 0.08752 0.42648 0.87392 0.0
C900 C 0.0692 0.39839 0.86345 0.0
C901 C 0.08019 0.38433 0.83879 0.0
C902 C 0.13716 0.46979 0.86944 0.0
C903 C 0.03781 0.38321 0.87825 0.0
C904 C 0.07311 0.44936 0.95372 0.0
C905 C 0.05282 0.47006 0.94969 0.0
C906 C 0.08488 0.43533 0.92938 0.0
C907 C 0.07596 0.4418 0.90014 0.0
C908 C 0.05558 0.46273 0.89596 0.0
C909 C 0.04446 0.47663 0.92062 0.0
C910 C 0.10678 0.41345 0.93497 0.0
C911 C 0.0451 0.47019 0.86536 0.0
H912 H 0.14919 0.43616 0.823 0.0
H913 H 0.06606 0.36285 0.83098 0.0
H914 H 0.12272 0.48766 0.86879 0.0
H915 H 0.14468 0.46765 0.89275 0.0
H916 H 0.15933 0.47725 0.85576 0.0
H917 H 0.02623 0.36156 0.86737 0.0
H918 H 0.04243 0.37858 0.9018 0.0
H919 H 0.02037 0.39851 0.87784 0.0
H920 H 0.07982 0.44404 0.97596 0.0
H921 H 0.02871 0.49242 0.91705 0.0
H922 H 0.13007 0.42092 0.92291 0.0
H923 H 0.09515 0.39072 0.92641 0.0
H924 H 0.11221 0.41139 0.95885 0.0
H925 H 0.06678 0.47939 0.85162 0.0
H926 H 0.02925 0.48695 0.86575 0.0
H927 H 0.03167 0.44929 0.85436 0.0
C928 C 0.57454 0.87075 0.89156 0.0
C929 C 0.57668 0.84394 0.90637 0.0
C930 C 0.55755 0.89122 0.90392 0.0
C931 C 0.54224 0.88459 0.93169 0.0
C932 C 0.54099 0.85596 0.94493 0.0
C933 C 0.55843 0.83598 0.93218 0.0
C934 C 0.55949 0.92144 0.88899 0.0
C935 C 0.52424 0.84772 0.97419 0.0
C936 C 0.55167 0.94995 0.9854 0.0
C937 C 0.52091 0.95717 0.98439 0.0
C938 C 0.55877 0.92658 0.96811 0.0
C939 C 0.53433 0.90961 0.94959 0.0
C940 C 0.50318 0.91684 0.94828 0.0
C941 C 0.49689 0.94079 0.96559 0.0
C942 C 0.59253 0.92 0.96983 0.0
C943 C 0.47645 0.89896 0.92911 0.0
H944 H 0.58869 0.87722 0.87168 0.0
H945 H 0.55957 0.81505 0.94346 0.0
H946 H 0.53598 0.92873 0.8905 0.0
H947 H 0.57821 0.93879 0.9003 0.0
H948 H 0.56633 0.92079 0.86532 0.0
H949 H 0.51958 0.82295 0.97836 0.0
H950 H 0.53993 0.85936 0.99229 0.0
H951 H 0.5008 0.85523 0.97507 0.0
H952 H 0.57036 0.9627 0.99975 0.0
H953 H 0.47294 0.94613 0.96502 0.0
H954 H 0.60367 0.92167 0.94751 0.0
H955 H 0.59108 0.89658 0.97792 0.0
H956 H 0.60891 0.93583 0.98482 0.0
H957 H 0.48478 0.8988 0.90586 0.0
H958 H 0.454 0.90822 0.92967 0.0
H959 H 0.47034 0.87508 0.9367 0.0
C960 C 0.93845 0.20714 0.40907 0.0
C961 C 0.92852 0.2044 0.37938 0.0
C962 C 0.94931 0.18358 0.42348 0.0
C963 C 0.95042 0.15675 0.40776 0.0
C964 C 0.94114 0.15415 0.3776 0.0
C965 C 0.93022 0.17798 0.3638 0.0
C966 C 0.95881 0.1871 0.45573 0.0
C967 C 0.94228 0.126 0.36004 0.0
C968 C 1.00193 0.10483 0.4399 0.0
C969 C 0.97832 0.08278 0.45409 0.0
C970 C 0.99318 0.12883 0.42439 0.0
C971 C 0.96008 0.13094 0.4232 0.0
C972 C 0.93611 0.10858 0.43716 0.0
C973 C 0.9455 0.08473 0.45234 0.0
C974 C 0.01938 0.15213 0.40957 0.0
C975 C 0.90057 0.11013 0.43647 0.0
H976 H 0.93688 0.2274 0.42127 0.0
H977 H 0.92297 0.17595 0.34073 0.0
H978 H 0.94233 0.16967 0.46903 0.0
H979 H 0.98389 0.18351 0.45889 0.0
H980 H 0.95766 0.2098 0.46448 0.0
H981 H 0.93558 0.12809 0.33646 0.0
H982 H 0.96706 0.12119 0.3611 0.0
H983 H 0.92529 0.10625 0.36978 0.0
H984 H 0.02734 0.1035 0.44109 0.0
H985 H 0.92708 0.0679 0.4633 0.0
H986 H 0.02024 0.17474 0.41945 0.0
H987 H 0.01368 0.15376 0.38572 0.0
H988 H 0.04384 0.1467 0.41174 0.0
H989 H 0.8973 0.13142 0.44702 0.0
H990 H 0.88492 0.09073 0.44812 0.0
H991 H 0.89203 0.11042 0.41326 0.0
C992 C 0.25268 0.59192 0.10883 0.0
C993 C 0.25204 0.60925 0.13453 0.0
C994 C 0.22398 0.57934 0.09319 0.0
C995 C 0.19363 0.58413 0.10335 0.0
C996 C 0.19273 0.60152 0.12931 0.0
C997 C 0.22185 0.61378 0.14458 0.0
C998 C 0.22614 0.56071 0.06587 0.0
C999 C 0.16096 0.60724 0.14094 0.0
C1000 C 0.12164 0.57307 0.04937 0.0
C1001 C 0.1036 0.54445 0.05761 0.0
C1002 C 0.15094 0.58624 0.06399 0.0
C1003 C 0.16277 0.57033 0.08722 0.0
C1004 C 0.14502 0.54116 0.09513 0.0
C1005 C 0.11571 0.5287 0.0804 0.0
C1006 C 0.16903 0.6174 0.05485 0.0
C1007 C 0.15681 0.52313 0.11942 0.0
H1008 H 0.27572 0.58782 0.10106 0.0
H1009 H 0.22101 0.62736 0.16418 0.0
H1010 H 0.21169 0.53736 0.06902 0.0
H1011 H 0.21559 0.5705 0.04661 0.0
H1012 H 0.25161 0.55949 0.06056 0.0
H1013 H 0.16435 0.62155 0.16113 0.0
H1014 H 0.14893 0.61857 0.12372 0.0
H1015 H 0.14423 0.5854 0.14621 0.0
H1016 H 0.1125 0.58551 0.03194 0.0
H1017 H 0.10219 0.50648 0.08688 0.0
H1018 H 0.19422 0.61667 0.04818 0.0
H1019 H 0.17086 0.63313 0.0739 0.0
H1020 H 0.15691 0.62669 0.03621 0.0
H1021 H 0.18177 0.52017 0.11444 0.0
H1022 H 0.14072 0.50041 0.12235 0.0
H1023 H 0.15803 0.53559 0.14065 0.0
C1024 C 0.3083 0.42338 0.66334 0.0
C1025 C 0.27786 0.41261 0.64996 0.0
C1026 C 0.33554 0.43744 0.64657 0.0
C1027 C 0.33231 0.44115 0.61563 0.0
C1028 C 0.30137 0.43134 0.6022 0.0
C1029 C 0.27463 0.41706 0.61944 0.0
C1030 C 0.36806 0.44733 0.6618 0.0
C1031 C 0.29665 0.4353 0.56943 0.0
C1032 C 0.40024 0.49603 0.57526 0.0
C1033 C 0.41852 0.4763 0.56326 0.0
C1034 C 0.3719 0.48498 0.59194 0.0
C1035 C 0.36168 0.45345 0.59709 0.0
C1036 C 0.37986 0.43345 0.58481 0.0
C1037 C 0.40787 0.44506 0.56803 0.0
C1038 C 0.35326 0.50717 0.60445 0.0
C1039 C 0.37002 0.3997 0.5898 0.0
H1040 H 0.31115 0.41979 0.68682 0.0
H1041 H 0.25113 0.40915 0.60897 0.0
H1042 H 0.38537 0.43403 0.65319 0.0
H1043 H 0.37849 0.4715 0.65696 0.0
H1044 H 0.36625 0.44427 0.68617 0.0
H1045 H 0.27069 0.42839 0.56269 0.0
H1046 H 0.30585 0.4593 0.56304 0.0
H1047 H 0.31091 0.42154 0.55687 0.0
H1048 H 0.40821 0.52021 0.57191 0.0
H1049 H 0.42174 0.42953 0.55903 0.0
H1050 H 0.35604 0.50809 0.62886 0.0
H1051 H 0.32689 0.49974 0.59952 0.0
H1052 H 0.36197 0.53036 0.59548 0.0
H1053 H 0.36999 0.39472 0.61385 0.0
H1054 H 0.38659 0.38715 0.57861 0.0
H1055 H 0.34491 0.39103 0.58151 0.0
C1056 C 0.82037 0.74451 0.91047 0.0
C1057 C 0.78751 0.73669 0.9188 0.0
C1058 C 0.84208 0.72607 0.91779 0.0
C1059 C 0.83062 0.69884 0.93351 0.0
C1060 C 0.79737 0.6904 0.94151 0.0
C1061 C 0.77617 0.7095 0.93411 0.0
C1062 C 0.87736 0.73586 0.90881 0.0
C1063 C 0.78431 0.66137 0.95807 0.0
C1064 C 0.88546 0.64254 0.92762 0.0
C1065 C 0.90368 0.64826 0.9538 0.0
C1066 C 0.86046 0.65781 0.92136 0.0
C1067 C 0.85383 0.67953 0.94164 0.0
C1068 C 0.8715 0.68472 0.96852 0.0
C1069 C 0.89614 0.6689 0.97434 0.0
C1070 C 0.84189 0.65141 0.89262 0.0
C1071 C 0.86535 0.70794 0.99055 0.0
H1072 H 0.82918 0.76509 0.89798 0.0
H1073 H 0.75085 0.70338 0.9407 0.0
H1074 H 0.89323 0.73802 0.92869 0.0
H1075 H 0.88427 0.71849 0.89432 0.0
H1076 H 0.88237 0.75785 0.89686 0.0
H1077 H 0.75763 0.65758 0.9618 0.0
H1078 H 0.78954 0.64183 0.9456 0.0
H1079 H 0.79668 0.66186 0.97982 0.0
H1080 H 0.89092 0.62622 0.91193 0.0
H1081 H 0.91033 0.67346 0.99453 0.0
H1082 H 0.8477 0.67163 0.8781 0.0
H1083 H 0.81529 0.64666 0.89679 0.0
H1084 H 0.8479 0.63189 0.8806 0.0
H1085 H 0.87225 0.73088 0.98066 0.0
H1086 H 0.87943 0.70763 1.01134 0.0
H1087 H 0.83908 0.70392 0.99604 0.0
C1088 C 0.40314 0.81865 0.16854 0.0
C1089 C 0.42051 0.79601 0.16252 0.0
C1090 C 0.41192 0.84761 0.1555 0.0
C1091 C 0.43862 0.85424 0.13572 0.0
C1092 C 0.45634 0.83155 0.12967 0.0
C1093 C 0.44715 0.80288 0.14312 0.0
C1094 C 0.39245 0.8711 0.16276 0.0
C1095 C 0.48476 0.83739 0.10856 0.0
C1096 C 0.44316 0.91776 0.07888 0.0
C1097 C 0.46668 0.94133 0.09128 0.0
C1098 C 0.43361 0.88957 0.0932 0.0
C1099 C 0.44769 0.88461 0.12081 0.0
C1100 C 0.47107 0.90843 0.13368 0.0
C1101 C 0.48034 0.93637 0.11877 0.0
C1102 C 0.40878 0.86489 0.07848 0.0
C1103 C 0.48662 0.90427 0.1631 0.0
H1104 H 0.38272 0.81379 0.18365 0.0
H1105 H 0.46045 0.78552 0.13782 0.0
H1106 H 0.40874 0.89171 0.17179 0.0
H1107 H 0.38118 0.8779 0.14233 0.0
H1108 H 0.3729 0.86274 0.17909 0.0
H1109 H 0.49646 0.81764 0.10662 0.0
H1110 H 0.47645 0.84283 0.08628 0.0
H1111 H 0.50333 0.85724 0.11605 0.0
H1112 H 0.43243 0.92113 0.05764 0.0
H1113 H 0.49847 0.9543 0.12866 0.0
H1114 H 0.38782 0.85709 0.09348 0.0
H1115 H 0.41972 0.8451 0.07392 0.0
H1116 H 0.39958 0.87248 0.05734 0.0
H1117 H 0.46755 0.89726 0.18014 0.0
H1118 H 0.50349 0.92526 0.1707 0.0
H1119 H 0.50039 0.88597 0.16141 0.0
C1120 C 0.07763 0.22764 0.62863 0.0
C1121 C 0.09973 0.22636 0.65183 0.0
C1122 C 0.06623 0.20254 0.61003 0.0
C1123 C 0.0763 0.17494 0.61504 0.0
C1124 C 0.09822 0.17329 0.63852 0.0
C1125 C 0.11001 0.19896 0.65617 0.0
C1126 C 0.04341 0.20559 0.58491 0.0
C1127 C 0.10923 0.14427 0.64514 0.0
C1128 C 0.02277 0.10164 0.58557 0.0
C1129 C 0.04066 0.09506 0.56118 0.0
C1130 C 0.03413 0.12735 0.6033 0.0
C1131 C 0.0637 0.14766 0.59604 0.0
C1132 C 0.08155 0.14142 0.57106 0.0
C1133 C 0.0701 0.11501 0.55424 0.0
C1134 C 0.01474 0.13249 0.63014 0.0
C1135 C 0.11268 0.16277 0.56195 0.0
H1136 H 0.06891 0.24822 0.62499 0.0
H1137 H 0.12771 0.19746 0.67324 0.0
H1138 H 0.05348 0.1993 0.56372 0.0
H1139 H 0.01961 0.18981 0.58827 0.0
H1140 H 0.03921 0.22895 0.58289 0.0
H1141 H 0.12525 0.14623 0.66494 0.0
H1142 H 0.08776 0.12559 0.64884 0.0
H1143 H 0.12267 0.13784 0.62595 0.0
H1144 H 1.0001 0.08627 0.59121 0.0
H1145 H 0.08391 0.11028 0.53526 0.0
H1146 H 0.00738 0.15456 0.62831 0.0
H1147 H 0.03004 0.13341 0.65031 0.0
H1148 H 0.99251 0.11441 0.63304 0.0
H1149 H 0.10821 0.18589 0.55872 0.0
H1150 H 0.12285 0.15552 0.54119 0.0
H1151 H 0.13119 0.16419 0.57971 0.0
C1152 C 0.76629 0.37099 0.39937 0.0
C1153 C 0.76516 0.34203 0.38776 0.0
C1154 C 0.73813 0.37909 0.41036 0.0
C1155 C 0.70815 0.3577 0.40977 0.0
C1156 C 0.70696 0.32827 0.39859 0.0
C1157 C 0.73544 0.32082 0.38766 0.0
C1158 C 0.74034 0.41069 0.42219 0.0
C1159 C 0.67544 0.30485 0.39757 0.0
C1160 C 0.63975 0.37086 0.45944 0.0
C1161 C 0.6205 0.38325 0.43953 0.0
C1162 C 0.66827 0.36227 0.45005 0.0
C1163 C 0.67782 0.36636 0.42007 0.0
C1164 C 0.65839 0.37873 0.39983 0.0
C1165 C 0.6299 0.38695 0.4098 0.0
C1166 C 0.6882 0.34888 0.47219 0.0
C1167 C 0.66789 0.38359 0.36772 0.0
H1168 H 0.78923 0.38738 0.39979 0.0
H1169 H 0.73423 0.29856 0.37827 0.0
H1170 H 0.72461 0.42246 0.40885 0.0
H1171 H 0.73131 0.40965 0.44528 0.0
H1172 H 0.76563 0.4244 0.42176 0.0
H1173 H 0.67892 0.28259 0.3894 0.0
H1174 H 0.66441 0.30169 0.41992 0.0
H1175 H 0.6578 0.31276 0.38284 0.0
H1176 H 0.63238 0.36773 0.48239 0.0
H1177 H 0.61533 0.39691 0.39443 0.0
H1178 H 0.71317 0.36309 0.47356 0.0
H1179 H 0.6905 0.32602 0.46487 0.0
H1180 H 0.67729 0.34701 0.49465 0.0
H1181 H 0.69211 0.39912 0.36601 0.0
H1182 H 0.65002 0.3933 0.35481 0.0
H1183 H 0.66997 0.36181 0.35747 0.0
loop_
_geom_bond_atom_site_label_1
_geom_bond_atom_site_label_2
_geom_bond_distance
_geom_bond_site_symmetry_2
_ccdc_geom_bond_type
P0 O11 1.490 . S
P0 C14 1.812 . S
P0 C20 1.803 . S
P0 C26 1.819 . S
H1 C15 0.941 . S
H2 C16 0.939 . S
H3 C18 0.940 . S
H4 C19 0.940 . S
H5 C21 0.939 . S
H6 C22 0.942 . S
H7 C24 0.940 . S
H8 C25 0.939 . S
H9 C27 0.941 . S
H10 C31 0.939 . S
O11 P0 1.490 . S
H12 C28 0.939 . S
H13 C30 0.940 . S
C14 P0 1.812 . S
C14 C15 1.389 . S
C14 C19 1.391 . S
C15 H1 0.941 . S
C15 C14 1.389 . S
C15 C16 1.397 . S
C16 H2 0.939 . S
C16 C15 1.397 . S
C16 C17 1.378 . S
C17 C16 1.378 . S
C17 C18 1.378 . S
C18 H3 0.940 . S
C18 C17 1.378 . S
C18 C19 1.396 . S
C19 H4 0.940 . S
C19 C14 1.391 . S
C19 C18 1.396 . S
C20 P0 1.803 . S
C20 C21 1.378 . S
C20 C25 1.400 . S
C21 H5 0.939 . S
C21 C20 1.378 . S
C21 C22 1.361 . S
C22 H6 0.942 . S
C22 C21 1.361 . S
C22 C23 1.369 . S
C23 C22 1.369 . S
C23 C24 1.404 . S
C24 H7 0.940 . S
C24 C23 1.404 . S
C24 C25 1.389 . S
C25 H8 0.939 . S
C25 C20 1.400 . S
C25 C24 1.389 . S
C26 P0 1.819 . S
C26 C27 1.391 . S
C26 C31 1.391 . S
C27 H9 0.941 . S
C27 C26 1.391 . S
C27 C28 1.396 . S
C28 H12 0.939 . S
C28 C27 1.396 . S
C28 C29 1.397 . S
C29 C28 1.397 . S
C29 C30 1.385 . S
C30 H13 0.940 . S
C30 C29 1.385 . S
C30 C31 1.388 . S
C31 H10 0.939 . S
C31 C26 1.391 . S
C31 C30 1.388 . S
P32 O43 1.490 . S
P32 C46 1.812 . S
P32 C52 1.803 . S
P32 C58 1.819 . S
H33 C47 0.941 . S
H34 C48 0.939 . S
H35 C50 0.940 . S
H36 C51 0.940 . S
H37 C53 0.939 . S
H38 C54 0.942 . S
H39 C56 0.940 . S
H40 C57 0.939 . S
H41 C59 0.941 . S
H42 C63 0.939 . S
O43 P32 1.490 . S
H44 C60 0.939 . S
H45 C62 0.940 . S
C46 P32 1.812 . S
C46 C47 1.389 . S
C46 C51 1.391 . S
C47 H33 0.941 . S
C47 C46 1.389 . S
C47 C48 1.397 . S
C48 H34 0.939 . S
C48 C47 1.397 . S
C48 C49 1.378 . S
C49 C48 1.378 . S
C49 C50 1.378 . S
C50 H35 0.940 . S
C50 C49 1.378 . S
C50 C51 1.396 . S
C51 H36 0.940 . S
C51 C46 1.391 . S
C51 C50 1.396 . S
C52 P32 1.803 . S
C52 C53 1.378 . S
C52 C57 1.400 . S
C53 H37 0.939 . S
C53 C52 1.378 . S
C53 C54 1.361 . S
C54 H38 0.942 . S
C54 C53 1.361 . S
C54 C55 1.369 . S
C55 C54 1.369 . S
C55 C56 1.404 . S
C56 H39 0.940 . S
C56 C55 1.404 . S
C56 C57 1.389 . S
C57 H40 0.939 . S
C57 C52 1.400 . S
C57 C56 1.389 . S
C58 P32 1.819 . S
C58 C59 1.391 . S
C58 C63 1.391 . S
C59 H41 0.941 . S
C59 C58 1.391 . S
C59 C60 1.396 . S
C60 H44 0.939 . S
C60 C59 1.396 . S
C60 C61 1.397 . S
C61 C60 1.397 . S
C61 C62 1.385 . S
C62 H45 0.940 . S
C62 C61 1.385 . S
C62 C63 1.388 . S
C63 H42 0.939 . S
C63 C58 1.391 . S
C63 C62 1.388 . S
P64 O75 1.490 . S
P64 C78 1.812 . S
P64 C84 1.803 . S
P64 C90 1.819 . S
H65 C79 0.941 . S
H66 C80 0.939 . S
H67 C82 0.940 . S
H68 C83 0.940 . S
H69 C85 0.939 . S
H70 C86 0.942 . S
H71 C88 0.940 . S
H72 C89 0.939 . S
H73 C91 0.941 . S
H74 C95 0.939 . S
O75 P64 1.490 . S
H76 C92 0.939 . S
H77 C94 0.940 . S
C78 P64 1.812 . S
C78 C79 1.389 . S
C78 C83 1.391 . S
C79 H65 0.941 . S
C79 C78 1.389 . S
C79 C80 1.397 . S
C80 H66 0.939 . S
C80 C79 1.397 . S
C80 C81 1.378 . S
C81 C80 1.378 . S
C81 C82 1.378 . S
C82 H67 0.940 . S
C82 C81 1.378 . S
C82 C83 1.396 . S
C83 H68 0.940 . S
C83 C78 1.391 . S
C83 C82 1.396 . S
C84 P64 1.803 . S
C84 C85 1.378 . S
C84 C89 1.400 . S
C85 H69 0.939 . S
C85 C84 1.378 . S
C85 C86 1.361 . S
C86 H70 0.942 . S
C86 C85 1.361 . S
C86 C87 1.369 . S
C87 C86 1.369 . S
C87 C88 1.404 . S
C88 H71 0.940 . S
C88 C87 1.404 . S
C88 C89 1.389 . S
C89 H72 0.939 . S
C89 C84 1.400 . S
C89 C88 1.389 . S
C90 P64 1.819 . S
C90 C91 1.391 . S
C90 C95 1.391 . S
C91 H73 0.941 . S
C91 C90 1.391 . S
C91 C92 1.396 . S
C92 H76 0.939 . S
C92 C91 1.396 . S
C92 C93 1.397 . S
C93 C92 1.397 . S
C93 C94 1.385 . S
C94 H77 0.940 . S
C94 C93 1.385 . S
C94 C95 1.388 . S
C95 H74 0.939 . S
C95 C90 1.391 . S
C95 C94 1.388 . S
P96 O107 1.490 . S
P96 C110 1.812 . S
P96 C116 1.803 . S
P96 C122 1.819 . S
H97 C111 0.941 . S
H98 C112 0.939 . S
H99 C114 0.940 . S
H100 C115 0.940 . S
H101 C117 0.939 . S
H102 C118 0.942 . S
H103 C120 0.940 . S
H104 C121 0.939 . S
H105 C123 0.941 . S
H106 C127 0.939 . S
O107 P96 1.490 . S
H108 C124 0.939 . S
H109 C126 0.940 . S
C110 P96 1.812 . S
C110 C111 1.389 . S
C110 C115 1.391 . S
C111 H97 0.941 . S
C111 C110 1.389 . S
C111 C112 1.397 . S
C112 H98 0.939 . S
C112 C111 1.397 . S
C112 C113 1.378 . S
C113 C112 1.378 . S
C113 C114 1.378 . S
C114 H99 0.940 . S
C114 C113 1.378 . S
C114 C115 1.396 . S
C115 H100 0.940 . S
C115 C110 1.391 . S
C115 C114 1.396 . S
C116 P96 1.803 . S
C116 C117 1.378 . S
C116 C121 1.400 . S
C117 H101 0.939 . S
C117 C116 1.378 . S
C117 C118 1.361 . S
C118 H102 0.942 . S
C118 C117 1.361 . S
C118 C119 1.369 . S
C119 C118 1.369 . S
C119 C120 1.404 . S
C120 H103 0.940 . S
C120 C119 1.404 . S
C120 C121 1.389 . S
C121 H104 0.939 . S
C121 C116 1.400 . S
C121 C120 1.389 . S
C122 P96 1.819 . S
C122 C123 1.391 . S
C122 C127 1.391 . S
C123 H105 0.941 . S
C123 C122 1.391 . S
C123 C124 1.396 . S
C124 H108 0.939 . S
C124 C123 1.396 . S
C124 C125 1.397 . S
C125 C124 1.397 . S
C125 C126 1.385 . S
C126 H109 0.940 . S
C126 C125 1.385 . S
C126 C127 1.388 . S
C127 H106 0.939 . S
C127 C122 1.391 . S
C127 C126 1.388 . S
P128 O139 1.490 . S
P128 C142 1.812 . S
P128 C148 1.803 . S
P128 C154 1.819 . S
H129 C143 0.941 . S
H130 C144 0.939 . S
H131 C146 0.940 . S
H132 C147 0.940 . S
H133 C149 0.939 . S
H134 C150 0.942 . S
H135 C152 0.940 . S
H136 C153 0.939 . S
H137 C155 0.941 . S
H138 C159 0.939 . S
O139 P128 1.490 . S
H140 C156 0.939 . S
H141 C158 0.940 . S
C142 P128 1.812 . S
C142 C143 1.389 . S
C142 C147 1.391 . S
C143 H129 0.941 . S
C143 C142 1.389 . S
C143 C144 1.397 . S
C144 H130 0.939 . S
C144 C143 1.397 . S
C144 C145 1.378 . S
C145 C144 1.378 . S
C145 C146 1.378 . S
C146 H131 0.940 . S
C146 C145 1.378 . S
C146 C147 1.396 . S
C147 H132 0.940 . S
C147 C142 1.391 . S
C147 C146 1.396 . S
C148 P128 1.803 . S
C148 C149 1.378 . S
C148 C153 1.400 . S
C149 H133 0.939 . S
C149 C148 1.378 . S
C149 C150 1.361 . S
C150 H134 0.942 . S
C150 C149 1.361 . S
C150 C151 1.369 . S
C151 C150 1.369 . S
C151 C152 1.404 . S
C152 H135 0.940 . S
C152 C151 1.404 . S
C152 C153 1.389 . S
C153 H136 0.939 . S
C153 C148 1.400 . S
C153 C152 1.389 . S
C154 P128 1.819 . S
C154 C155 1.391 . S
C154 C159 1.391 . S
C155 H137 0.941 . S
C155 C154 1.391 . S
C155 C156 1.396 . S
C156 H140 0.939 . S
C156 C155 1.396 . S
C156 C157 1.397 . S
C157 C156 1.397 . S
C157 C158 1.385 . S
C158 H141 0.940 . S
C158 C157 1.385 . S
C158 C159 1.388 . S
C159 H138 0.939 . S
C159 C154 1.391 . S
C159 C158 1.388 . S
P160 O171 1.490 . S
P160 C174 1.812 . S
P160 C180 1.803 . S
P160 C186 1.819 . S
H161 C175 0.941 . S
H162 C176 0.939 . S
H163 C178 0.940 . S
H164 C179 0.940 . S
H165 C181 0.939 . S
H166 C182 0.942 . S
H167 C184 0.940 . S
H168 C185 0.939 . S
H169 C187 0.941 . S
H170 C191 0.939 . S
O171 P160 1.490 . S
H172 C188 0.939 . S
H173 C190 0.940 . S
C174 P160 1.812 . S
C174 C175 1.389 . S
C174 C179 1.391 . S
C175 H161 0.941 . S
C175 C174 1.389 . S
C175 C176 1.397 . S
C176 H162 0.939 . S
C176 C175 1.397 . S
C176 C177 1.378 . S
C177 C176 1.378 . S
C177 C178 1.378 . S
C178 H163 0.940 . S
C178 C177 1.378 . S
C178 C179 1.396 . S
C179 H164 0.940 . S
C179 C174 1.391 . S
C179 C178 1.396 . S
C180 P160 1.803 . S
C180 C181 1.378 . S
C180 C185 1.400 . S
C181 H165 0.939 . S
C181 C180 1.378 . S
C181 C182 1.361 . S
C182 H166 0.942 . S
C182 C181 1.361 . S
C182 C183 1.369 . S
C183 C182 1.369 . S
C183 C184 1.404 . S
C184 H167 0.940 . S
C184 C183 1.404 . S
C184 C185 1.389 . S
C185 H168 0.939 . S
C185 C180 1.400 . S
C185 C184 1.389 . S
C186 P160 1.819 . S
C186 C187 1.391 . S
C186 C191 1.391 . S
C187 H169 0.941 . S
C187 C186 1.391 . S
C187 C188 1.396 . S
C188 H172 0.939 . S
C188 C187 1.396 . S
C188 C189 1.397 . S
C189 C188 1.397 . S
C189 C190 1.385 . S
C190 H173 0.940 . S
C190 C189 1.385 . S
C190 C191 1.388 . S
C191 H170 0.939 . S
C191 C186 1.391 . S
C191 C190 1.388 . S
P192 O203 1.490 . S
P192 C206 1.812 . S
P192 C212 1.803 . S
P192 C218 1.819 . S
H193 C207 0.941 . S
H194 C208 0.939 . S
H195 C210 0.940 . S
H196 C211 0.940 . S
H197 C213 0.939 . S
H198 C214 0.942 . S
H199 C216 0.940 . S
H200 C217 0.939 . S
H201 C219 0.941 . S
H202 C223 0.939 . S
O203 P192 1.490 . S
H204 C220 0.939 . S
H205 C222 0.940 . S
C206 P192 1.812 . S
C206 C207 1.389 . S
C206 C211 1.391 . S
C207 H193 0.941 . S
C207 C206 1.389 . S
C207 C208 1.397 . S
C208 H194 0.939 . S
C208 C207 1.397 . S
C208 C209 1.378 . S
C209 C208 1.378 . S
C209 C210 1.378 . S
C210 H195 0.940 . S
C210 C209 1.378 . S
C210 C211 1.396 . S
C211 H196 0.940 . S
C211 C206 1.391 . S
C211 C210 1.396 . S
C212 P192 1.803 . S
C212 C213 1.378 . S
C212 C217 1.400 . S
C213 H197 0.939 . S
C213 C212 1.378 . S
C213 C214 1.361 . S
C214 H198 0.942 . S
C214 C213 1.361 . S
C214 C215 1.369 . S
C215 C214 1.369 . S
C215 C216 1.404 . S
C216 H199 0.940 . S
C216 C215 1.404 . S
C216 C217 1.389 . S
C217 H200 0.939 . S
C217 C212 1.400 . S
C217 C216 1.389 . S
C218 P192 1.819 . S
C218 C219 1.391 . S
C218 C223 1.391 . S
C219 H201 0.941 . S
C219 C218 1.391 . S
C219 C220 1.396 . S
C220 H204 0.939 . S
C220 C219 1.396 . S
C220 C221 1.397 . S
C221 C220 1.397 . S
C221 C222 1.385 . S
C222 H205 0.940 . S
C222 C221 1.385 . S
C222 C223 1.388 . S
C223 H202 0.939 . S
C223 C218 1.391 . S
C223 C222 1.388 . S
P224 O235 1.490 . S
P224 C238 1.812 . S
P224 C244 1.803 . S
P224 C250 1.819 . S
H225 C239 0.941 . S
H226 C240 0.939 . S
H227 C242 0.940 . S
H228 C243 0.940 . S
H229 C245 0.939 . S
H230 C246 0.942 . S
H231 C248 0.940 . S
H232 C249 0.939 . S
H233 C251 0.941 . S
H234 C255 0.939 . S
O235 P224 1.490 . S
H236 C252 0.939 . S
H237 C254 0.940 . S
C238 P224 1.812 . S
C238 C239 1.389 . S
C238 C243 1.391 . S
C239 H225 0.941 . S
C239 C238 1.389 . S
C239 C240 1.397 . S
C240 H226 0.939 . S
C240 C239 1.397 . S
C240 C241 1.378 . S
C241 C240 1.378 . S
C241 C242 1.378 . S
C242 H227 0.940 . S
C242 C241 1.378 . S
C242 C243 1.396 . S
C243 H228 0.940 . S
C243 C238 1.391 . S
C243 C242 1.396 . S
C244 P224 1.803 . S
C244 C245 1.378 . S
C244 C249 1.400 . S
C245 H229 0.939 . S
C245 C244 1.378 . S
C245 C246 1.361 . S
C246 H230 0.942 . S
C246 C245 1.361 . S
C246 C247 1.369 . S
C247 C246 1.369 . S
C247 C248 1.404 . S
C248 H231 0.940 . S
C248 C247 1.404 . S
C248 C249 1.389 . S
C249 H232 0.939 . S
C249 C244 1.400 . S
C249 C248 1.389 . S
C250 P224 1.819 . S
C250 C251 1.391 . S
C250 C255 1.391 . S
C251 H233 0.941 . S
C251 C250 1.391 . S
C251 C252 1.396 . S
C252 H236 0.939 . S
C252 C251 1.396 . S
C252 C253 1.397 . S
C253 C252 1.397 . S
C253 C254 1.385 . S
C254 H237 0.940 . S
C254 C253 1.385 . S
C254 C255 1.388 . S
C255 H234 0.939 . S
C255 C250 1.391 . S
C255 C254 1.388 . S
Dy256 O259 2.307 1_545 S
Dy256 O261 2.395 . S
Dy256 O262 2.379 . S
Dy256 O264 2.339 1_545 S
Dy256 O266 2.298 . S
Dy256 O270 2.275 . S
Dy256 C278 2.738 . S
Dy257 O260 2.298 1_655 S
Dy257 O263 2.275 . S
Dy257 O265 2.307 1_565 S
Dy257 O267 2.395 . S
Dy257 O268 2.379 . S
Dy257 O271 2.339 1_565 S
Dy257 C287 2.738 . S
C258 O270 1.254 . S
C258 O271 1.257 1_455 S
O259 Dy256 2.307 1_565 S
O259 C269 1.266 . S
O260 Dy257 2.298 1_455 S
O260 C269 1.236 . S
O261 Dy256 2.395 . S
O261 C278 1.255 . S
O262 Dy256 2.379 . S
O262 C278 1.249 . S
O263 Dy257 2.275 . S
O263 C279 1.254 . S
O264 Dy256 2.339 1_565 S
O264 C279 1.257 1_455 S
O265 Dy257 2.307 1_545 S
O265 C280 1.266 . S
O266 Dy256 2.298 . S
O266 C280 1.236 1_455 S
O267 Dy257 2.395 . S
O267 C287 1.255 . S
O268 Dy257 2.379 . S
O268 C287 1.249 . S
C269 O259 1.266 . S
C269 O260 1.236 . S
O270 Dy256 2.275 . S
O270 C258 1.254 . S
O271 Dy257 2.339 1_545 S
O271 C258 1.257 1_655 S
C272 C275 1.344 . S
C272 C276 1.328 . S
C272 C278 1.516 . S
C273 C274 1.304 . S
C273 C277 1.323 . S
C274 C273 1.304 . S
C274 C275 1.371 . S
C274 H288 0.930 . S
C275 C272 1.344 . S
C275 C274 1.371 . S
C275 H289 0.931 . S
C276 C272 1.328 . S
C276 C277 1.433 . S
C276 H290 0.931 . S
C277 C273 1.323 . S
C277 C276 1.433 . S
C277 H291 0.933 . S
C278 Dy256 2.738 . S
C278 O261 1.255 . S
C278 O262 1.249 . S
C278 C272 1.516 . S
C279 O263 1.254 . S
C279 O264 1.257 1_655 S
C280 O265 1.266 . S
C280 O266 1.236 1_655 S
C281 C284 1.344 . S
C281 C285 1.328 . S
C281 C287 1.516 . S
C282 C283 1.304 . S
C282 C286 1.323 . S
C283 C282 1.304 . S
C283 C284 1.371 . S
C283 H292 0.930 . S
C284 C281 1.344 . S
C284 C283 1.371 . S
C284 H293 0.931 . S
C285 C281 1.328 . S
C285 C286 1.433 . S
C285 H294 0.931 . S
C286 C282 1.323 . S
C286 C285 1.433 . S
C286 H295 0.933 . S
C287 Dy257 2.738 . S
C287 O267 1.255 . S
C287 O268 1.249 . S
C287 C281 1.516 . S
H288 C274 0.930 . S
H289 C275 0.931 . S
H290 C276 0.931 . S
H291 C277 0.933 . S
H292 C283 0.930 . S
H293 C284 0.931 . S
H294 C285 0.931 . S
H295 C286 0.933 . S
Dy296 O299 2.333 1_556 S
Dy296 O301 2.363 1_545 S
Dy296 O302 2.374 1_545 S
Dy296 O304 2.368 . S
Dy296 O306 2.276 1_545 S
Dy296 O310 2.253 1_546 S
Dy296 C318 2.717 1_545 S
Dy297 O300 2.298 . S
Dy297 O303 2.275 1_554 S
Dy297 O305 2.307 1_544 S
Dy297 O307 2.395 . S
Dy297 O308 2.379 . S
Dy297 O311 2.339 1_545 S
Dy297 C327 2.738 . S
C298 O310 1.254 . S
C298 O311 1.257 . S
O299 Dy296 2.333 1_554 S
O299 C309 1.266 . S
O300 Dy297 2.298 . S
O300 C309 1.236 . S
O301 Dy296 2.363 1_565 S
O301 C318 1.255 . S
O302 Dy296 2.374 1_565 S
O302 C318 1.249 . S
O303 Dy297 2.275 1_556 S
O303 C319 1.254 . S
O304 Dy296 2.368 . S
O304 C319 1.257 . S
O305 Dy297 2.307 1_566 S
O305 C320 1.266 . S
O306 Dy296 2.276 1_565 S
O306 C320 1.236 . S
O307 Dy297 2.395 . S
O307 C327 1.255 . S
O308 Dy297 2.379 . S
O308 C327 1.249 . S
C309 O299 1.266 . S
C309 O300 1.236 . S
O310 Dy296 2.253 1_564 S
O310 C298 1.254 . S
O311 Dy297 2.339 1_565 S
O311 C298 1.257 . S
C312 C315 1.344 . S
C312 C316 1.328 . S
C312 C318 1.516 . S
C313 C314 1.304 . S
C313 C317 1.323 . S
C314 C313 1.304 . S
C314 C315 1.371 . S
C314 H328 0.930 . S
C315 C312 1.344 . S
C315 C314 1.371 . S
C315 H329 0.931 . S
C316 C312 1.328 . S
C316 C317 1.433 . S
C316 H330 0.931 . S
C317 C313 1.323 . S
C317 C316 1.433 . S
C317 H331 0.933 . S
C318 Dy296 2.717 1_565 S
C318 O301 1.255 . S
C318 O302 1.249 . S
C318 C312 1.516 . S
C319 O303 1.254 . S
C319 O304 1.257 . S
C320 O305 1.266 . S
C320 O306 1.236 . S
C321 C324 1.344 . S
C321 C325 1.328 . S
C321 C327 1.516 . S
C322 C323 1.304 . S
C322 C326 1.323 . S
C323 C322 1.304 . S
C323 C324 1.371 . S
C323 H332 0.930 . S
C324 C321 1.344 . S
C324 C323 1.371 . S
C324 H333 0.931 . S
C325 C321 1.328 . S
C325 C326 1.433 . S
C325 H334 0.931 . S
C326 C322 1.323 . S
C326 C325 1.433 . S
C326 H335 0.933 . S
C327 Dy297 2.738 . S
C327 O307 1.255 . S
C327 O308 1.249 . S
C327 C321 1.516 . S
H328 C314 0.930 . S
H329 C315 0.931 . S
H330 C316 0.931 . S
H331 C317 0.933 . S
H332 C323 0.930 . S
H333 C324 0.931 . S
H334 C325 0.931 . S
H335 C326 0.933 . S
Dy336 O339 2.307 . S
Dy336 O341 2.395 . S
Dy336 O342 2.379 . S
Dy336 O344 2.339 . S
Dy336 O346 2.298 . S
Dy336 O350 2.275 . S
Dy336 C358 2.738 . S
Dy337 O340 2.298 . S
Dy337 O343 2.275 . S
Dy337 O345 2.307 . S
Dy337 O347 2.395 . S
Dy337 O348 2.379 . S
Dy337 O351 2.339 . S
Dy337 C367 2.738 . S
C338 O350 1.254 . S
C338 O351 1.257 . S
O339 Dy336 2.307 . S
O339 C349 1.266 . S
O340 Dy337 2.298 . S
O340 C349 1.236 . S
O341 Dy336 2.395 . S
O341 C358 1.255 . S
O342 Dy336 2.379 . S
O342 C358 1.249 . S
O343 Dy337 2.275 . S
O343 C359 1.254 . S
O344 Dy336 2.339 . S
O344 C359 1.257 . S
O345 Dy337 2.307 . S
O345 C360 1.266 . S
O346 Dy336 2.298 . S
O346 C360 1.236 . S
O347 Dy337 2.395 . S
O347 C367 1.255 . S
O348 Dy337 2.379 . S
O348 C367 1.249 . S
C349 O339 1.266 . S
C349 O340 1.236 . S
O350 Dy336 2.275 . S
O350 C338 1.254 . S
O351 Dy337 2.339 . S
O351 C338 1.257 . S
C352 C355 1.344 . S
C352 C356 1.328 . S
C352 C358 1.516 . S
C353 C354 1.304 . S
C353 C357 1.323 . S
C354 C353 1.304 . S
C354 C355 1.371 . S
C354 H368 0.930 . S
C355 C352 1.344 . S
C355 C354 1.371 . S
C355 H369 0.931 . S
C356 C352 1.328 . S
C356 C357 1.433 . S
C356 H370 0.931 . S
C357 C353 1.323 . S
C357 C356 1.433 . S
C357 H371 0.933 . S
C358 Dy336 2.738 . S
C358 O341 1.255 . S
C358 O342 1.249 . S
C358 C352 1.516 . S
C359 O343 1.254 . S
C359 O344 1.257 . S
C360 O345 1.266 . S
C360 O346 1.236 . S
C361 C364 1.344 . S
C361 C365 1.328 . S
C361 C367 1.516 . S
C362 C363 1.304 . S
C362 C366 1.323 . S
C363 C362 1.304 . S
C363 C364 1.371 . S
C363 H372 0.930 . S
C364 C361 1.344 . S
C364 C363 1.371 . S
C364 H373 0.931 . S
C365 C361 1.328 . S
C365 C366 1.433 . S
C365 H374 0.931 . S
C366 C362 1.323 . S
C366 C365 1.433 . S
C366 H375 0.933 . S
C367 Dy337 2.738 . S
C367 O347 1.255 . S
C367 O348 1.249 . S
C367 C361 1.516 . S
H368 C354 0.930 . S
H369 C355 0.931 . S
H370 C356 0.931 . S
H371 C357 0.933 . S
H372 C363 0.930 . S
H373 C364 0.931 . S
H374 C365 0.931 . S
H375 C366 0.933 . S
Dy376 O379 2.307 1_656 S
Dy376 O381 2.395 . S
Dy376 O382 2.379 . S
Dy376 O384 2.339 1_655 S
Dy376 O386 2.298 . S
Dy376 O390 2.275 1_556 S
Dy376 C398 2.738 . S
Dy377 O380 2.298 . S
Dy377 O383 2.275 1_554 S
Dy377 O385 2.307 1_455 S
Dy377 O387 2.395 . S
Dy377 O388 2.379 . S
Dy377 O391 2.339 1_455 S
Dy377 C407 2.738 . S
C378 O390 1.254 . S
C378 O391 1.257 . S
O379 Dy376 2.307 1_454 S
O379 C389 1.266 . S
O380 Dy377 2.298 . S
O380 C389 1.236 . S
O381 Dy376 2.395 . S
O381 C398 1.255 . S
O382 Dy376 2.379 . S
O382 C398 1.249 . S
O383 Dy377 2.275 1_556 S
O383 C399 1.254 . S
O384 Dy376 2.339 1_455 S
O384 C399 1.257 . S
O385 Dy377 2.307 1_655 S
O385 C400 1.266 1_554 S
O386 Dy376 2.298 . S
O386 C400 1.236 . S
O387 Dy377 2.395 . S
O387 C407 1.255 . S
O388 Dy377 2.379 . S
O388 C407 1.249 . S
C389 O379 1.266 . S
C389 O380 1.236 . S
O390 Dy376 2.275 1_554 S
O390 C378 1.254 . S
O391 Dy377 2.339 1_655 S
O391 C378 1.257 . S
C392 C395 1.344 . S
C392 C396 1.328 . S
C392 C398 1.516 . S
C393 C394 1.304 . S
C393 C397 1.323 . S
C394 C393 1.304 . S
C394 C395 1.371 . S
C394 H408 0.930 . S
C395 C392 1.344 . S
C395 C394 1.371 . S
C395 H409 0.931 . S
C396 C392 1.328 . S
C396 C397 1.433 . S
C396 H410 0.931 . S
C397 C393 1.323 . S
C397 C396 1.433 . S
C397 H411 0.933 . S
C398 Dy376 2.738 . S
C398 O381 1.255 . S
C398 O382 1.249 . S
C398 C392 1.516 . S
C399 O383 1.254 . S
C399 O384 1.257 . S
C400 O385 1.266 1_556 S
C400 O386 1.236 . S
C401 C404 1.344 . S
C401 C405 1.328 . S
C401 C407 1.516 . S
C402 C403 1.304 . S
C402 C406 1.323 . S
C403 C402 1.304 . S
C403 C404 1.371 . S
C403 H412 0.930 . S
C404 C401 1.344 . S
C404 C403 1.371 . S
C404 H413 0.931 . S
C405 C401 1.328 . S
C405 C406 1.433 . S
C405 H414 0.931 . S
C406 C402 1.323 . S
C406 C405 1.433 . S
C406 H415 0.933 . S
C407 Dy377 2.738 . S
C407 O387 1.255 . S
C407 O388 1.249 . S
C407 C401 1.516 . S
H408 C394 0.930 . S
H409 C395 0.931 . S
H410 C396 0.931 . S
H411 C397 0.933 . S
H412 C403 0.930 . S
H413 C404 0.931 . S
H414 C405 0.931 . S
H415 C406 0.933 . S
C416 C417 1.391 . S
C416 C418 1.394 . S
C416 H432 0.931 . S
C417 C416 1.391 . S
C417 C421 1.376 . S
C418 C416 1.394 . S
C418 C419 1.369 . S
C418 C422 1.531 . S
C419 C418 1.369 . S
C419 C420 1.410 . S
C419 C427 1.503 . S
C420 C419 1.410 . S
C420 C421 1.392 . S
C420 C423 1.511 . S
C421 C417 1.376 . S
C421 C420 1.392 . S
C421 H433 0.929 . S
C422 C418 1.531 . S
C422 H434 0.960 . S
C422 H435 0.962 . S
C422 H436 0.960 . S
C423 C420 1.511 . S
C423 H437 0.961 . S
C423 H438 0.961 . S
C423 H439 0.961 . S
C424 C425 1.370 . S
C424 C426 1.363 . S
C424 H440 0.931 . S
C425 C424 1.370 . S
C425 C429 1.408 . S
C426 C424 1.363 . S
C426 C427 1.370 . S
C426 C430 1.524 . S
C427 C419 1.503 . S
C427 C426 1.370 . S
C427 C428 1.403 . S
C428 C427 1.403 . S
C428 C429 1.404 . S
C428 C431 1.539 . S
C429 C425 1.408 . S
C429 C428 1.404 . S
C429 H441 0.930 . S
C430 C426 1.524 . S
C430 H442 0.956 . S
C430 H443 0.961 . S
C430 H444 0.961 . S
C431 C428 1.539 . S
C431 H445 0.958 . S
C431 H446 0.961 . S
C431 H447 0.960 . S
H432 C416 0.931 . S
H433 C421 0.929 . S
H434 C422 0.960 . S
H435 C422 0.962 . S
H436 C422 0.960 . S
H437 C423 0.961 . S
H438 C423 0.961 . S
H439 C423 0.961 . S
H440 C424 0.931 . S
H441 C429 0.930 . S
H442 C430 0.956 . S
H443 C430 0.961 . S
H444 C430 0.961 . S
H445 C431 0.958 . S
H446 C431 0.961 . S
H447 C431 0.960 . S
C448 C449 1.391 . S
C448 C450 1.394 . S
C448 H464 0.931 . S
C449 C448 1.391 . S
C449 C453 1.376 . S
C450 C448 1.394 . S
C450 C451 1.369 . S
C450 C454 1.531 . S
C451 C450 1.369 . S
C451 C452 1.410 . S
C451 C459 1.503 . S
C452 C451 1.410 . S
C452 C453 1.392 . S
C452 C455 1.511 . S
C453 C449 1.376 . S
C453 C452 1.392 . S
C453 H465 0.929 . S
C454 C450 1.531 . S
C454 H466 0.960 . S
C454 H467 0.962 . S
C454 H468 0.960 . S
C455 C452 1.511 . S
C455 H469 0.961 . S
C455 H470 0.961 . S
C455 H471 0.961 . S
C456 C457 1.370 . S
C456 C458 1.363 . S
C456 H472 0.931 . S
C457 C456 1.370 . S
C457 C461 1.408 . S
C458 C456 1.363 . S
C458 C459 1.370 . S
C458 C462 1.524 . S
C459 C451 1.503 . S
C459 C458 1.370 . S
C459 C460 1.403 . S
C460 C459 1.403 . S
C460 C461 1.404 . S
C460 C463 1.539 . S
C461 C457 1.408 . S
C461 C460 1.404 . S
C461 H473 0.930 . S
C462 C458 1.524 . S
C462 H474 0.956 . S
C462 H475 0.961 . S
C462 H476 0.961 . S
C463 C460 1.539 . S
C463 H477 0.958 . S
C463 H478 0.961 . S
C463 H479 0.960 . S
H464 C448 0.931 . S
H465 C453 0.929 . S
H466 C454 0.960 . S
H467 C454 0.962 . S
H468 C454 0.960 . S
H469 C455 0.961 . S
H470 C455 0.961 . S
H471 C455 0.961 . S
H472 C456 0.931 . S
H473 C461 0.930 . S
H474 C462 0.956 . S
H475 C462 0.961 . S
H476 C462 0.961 . S
H477 C463 0.958 . S
H478 C463 0.961 . S
H479 C463 0.960 . S
C480 C481 1.391 . S
C480 C482 1.394 . S
C480 H496 0.931 . S
C481 C480 1.391 . S
C481 C485 1.376 . S
C482 C480 1.394 . S
C482 C483 1.369 . S
C482 C486 1.531 . S
C483 C482 1.369 . S
C483 C484 1.410 . S
C483 C491 1.503 . S
C484 C483 1.410 . S
C484 C485 1.392 . S
C484 C487 1.511 . S
C485 C481 1.376 . S
C485 C484 1.392 . S
C485 H497 0.929 . S
C486 C482 1.531 . S
C486 H498 0.960 . S
C486 H499 0.962 . S
C486 H500 0.960 . S
C487 C484 1.511 . S
C487 H501 0.961 . S
C487 H502 0.961 . S
C487 H503 0.961 . S
C488 C489 1.370 . S
C488 C490 1.363 . S
C488 H504 0.931 . S
C489 C488 1.370 . S
C489 C493 1.408 . S
C490 C488 1.363 . S
C490 C491 1.370 . S
C490 C494 1.524 . S
C491 C483 1.503 . S
C491 C490 1.370 . S
C491 C492 1.403 . S
C492 C491 1.403 . S
C492 C493 1.404 . S
C492 C495 1.539 . S
C493 C489 1.408 . S
C493 C492 1.404 . S
C493 H505 0.930 . S
C494 C490 1.524 . S
C494 H506 0.956 . S
C494 H507 0.961 . S
C494 H508 0.961 . S
C495 C492 1.539 . S
C495 H509 0.958 . S
C495 H510 0.961 . S
C495 H511 0.960 . S
H496 C480 0.931 . S
H497 C485 0.929 . S
H498 C486 0.960 . S
H499 C486 0.962 . S
H500 C486 0.960 . S
H501 C487 0.961 . S
H502 C487 0.961 . S
H503 C487 0.961 . S
H504 C488 0.931 . S
H505 C493 0.930 . S
H506 C494 0.956 . S
H507 C494 0.961 . S
H508 C494 0.961 . S
H509 C495 0.958 . S
H510 C495 0.961 . S
H511 C495 0.960 . S
C512 C513 1.391 . S
C512 C514 1.394 . S
C512 H528 0.931 . S
C513 C512 1.391 . S
C513 C517 1.376 . S
C514 C512 1.394 . S
C514 C515 1.369 . S
C514 C518 1.531 . S
C515 C514 1.369 . S
C515 C516 1.410 . S
C515 C523 1.503 . S
C516 C515 1.410 . S
C516 C517 1.392 . S
C516 C519 1.511 . S
C517 C513 1.376 . S
C517 C516 1.392 . S
C517 H529 0.929 . S
C518 C514 1.531 . S
C518 H530 0.960 . S
C518 H531 0.962 . S
C518 H532 0.960 . S
C519 C516 1.511 . S
C519 H533 0.961 . S
C519 H534 0.961 . S
C519 H535 0.961 . S
C520 C521 1.370 . S
C520 C522 1.363 . S
C520 H536 0.931 . S
C521 C520 1.370 . S
C521 C525 1.408 . S
C522 C520 1.363 . S
C522 C523 1.370 . S
C522 C526 1.524 . S
C523 C515 1.503 . S
C523 C522 1.370 . S
C523 C524 1.403 . S
C524 C523 1.403 . S
C524 C525 1.404 . S
C524 C527 1.539 . S
C525 C521 1.408 . S
C525 C524 1.404 . S
C525 H537 0.930 . S
C526 C522 1.524 . S
C526 H538 0.956 . S
C526 H539 0.961 . S
C526 H540 0.961 . S
C527 C524 1.539 . S
C527 H541 0.958 . S
C527 H542 0.961 . S
C527 H543 0.960 . S
H528 C512 0.931 . S
H529 C517 0.929 . S
H530 C518 0.960 . S
H531 C518 0.962 . S
H532 C518 0.960 . S
H533 C519 0.961 . S
H534 C519 0.961 . S
H535 C519 0.961 . S
H536 C520 0.931 . S
H537 C525 0.930 . S
H538 C526 0.956 . S
H539 C526 0.961 . S
H540 C526 0.961 . S
H541 C527 0.958 . S
H542 C527 0.961 . S
H543 C527 0.960 . S
C544 C545 1.391 . S
C544 C546 1.394 . S
C544 H560 0.931 . S
C545 C544 1.391 . S
C545 C549 1.376 . S
C546 C544 1.394 . S
C546 C547 1.369 . S
C546 C550 1.531 . S
C547 C546 1.369 . S
C547 C548 1.410 . S
C547 C555 1.503 . S
C548 C547 1.410 . S
C548 C549 1.392 . S
C548 C551 1.511 . S
C549 C545 1.376 . S
C549 C548 1.392 . S
C549 H561 0.929 . S
C550 C546 1.531 . S
C550 H562 0.960 . S
C550 H563 0.962 . S
C550 H564 0.960 . S
C551 C548 1.511 . S
C551 H565 0.961 . S
C551 H566 0.961 . S
C551 H567 0.961 . S
C552 C553 1.370 . S
C552 C554 1.363 . S
C552 H568 0.931 . S
C553 C552 1.370 . S
C553 C557 1.408 . S
C554 C552 1.363 . S
C554 C555 1.370 . S
C554 C558 1.524 . S
C555 C547 1.503 . S
C555 C554 1.370 . S
C555 C556 1.403 . S
C556 C555 1.403 . S
C556 C557 1.404 . S
C556 C559 1.539 . S
C557 C553 1.408 . S
C557 C556 1.404 . S
C557 H569 0.930 . S
C558 C554 1.524 . S
C558 H570 0.956 . S
C558 H571 0.961 . S
C558 H572 0.961 . S
C559 C556 1.539 . S
C559 H573 0.958 . S
C559 H574 0.961 . S
C559 H575 0.960 . S
H560 C544 0.931 . S
H561 C549 0.929 . S
H562 C550 0.960 . S
H563 C550 0.962 . S
H564 C550 0.960 . S
H565 C551 0.961 . S
H566 C551 0.961 . S
H567 C551 0.961 . S
H568 C552 0.931 . S
H569 C557 0.930 . S
H570 C558 0.956 . S
H571 C558 0.961 . S
H572 C558 0.961 . S
H573 C559 0.958 . S
H574 C559 0.961 . S
H575 C559 0.960 . S
C576 C577 1.391 . S
C576 C578 1.394 . S
C576 H592 0.931 . S
C577 C576 1.391 . S
C577 C581 1.376 . S
C578 C576 1.394 . S
C578 C579 1.369 . S
C578 C582 1.531 . S
C579 C578 1.369 . S
C579 C580 1.410 . S
C579 C587 1.503 . S
C580 C579 1.410 . S
C580 C581 1.392 . S
C580 C583 1.511 . S
C581 C577 1.376 . S
C581 C580 1.392 . S
C581 H593 0.929 . S
C582 C578 1.531 . S
C582 H594 0.960 . S
C582 H595 0.962 . S
C582 H596 0.960 1_455 S
C583 C580 1.511 . S
C583 H597 0.961 . S
C583 H598 0.961 . S
C583 H599 0.961 . S
C584 C585 1.370 . S
C584 C586 1.363 . S
C584 H600 0.931 . S
C585 C584 1.370 . S
C585 C589 1.408 . S
C586 C584 1.363 . S
C586 C587 1.370 . S
C586 C590 1.524 . S
C587 C579 1.503 . S
C587 C586 1.370 . S
C587 C588 1.403 . S
C588 C587 1.403 . S
C588 C589 1.404 . S
C588 C591 1.539 . S
C589 C585 1.408 . S
C589 C588 1.404 . S
C589 H601 0.930 . S
C590 C586 1.524 . S
C590 H602 0.956 . S
C590 H603 0.961 . S
C590 H604 0.961 . S
C591 C588 1.539 . S
C591 H605 0.958 . S
C591 H606 0.961 . S
C591 H607 0.960 . S
H592 C576 0.931 . S
H593 C581 0.929 . S
H594 C582 0.960 . S
H595 C582 0.962 . S
H596 C582 0.960 1_655 S
H597 C583 0.961 . S
H598 C583 0.961 . S
H599 C583 0.961 . S
H600 C584 0.931 . S
H601 C589 0.930 . S
H602 C590 0.956 . S
H603 C590 0.961 . S
H604 C590 0.961 . S
H605 C591 0.958 . S
H606 C591 0.961 . S
H607 C591 0.960 . S
C608 C609 1.391 . S
C608 C610 1.394 . S
C608 H624 0.931 . S
C609 C608 1.391 . S
C609 C613 1.376 . S
C610 C608 1.394 . S
C610 C611 1.369 . S
C610 C614 1.531 . S
C611 C610 1.369 . S
C611 C612 1.410 . S
C611 C619 1.503 . S
C612 C611 1.410 . S
C612 C613 1.392 . S
C612 C615 1.511 . S
C613 C609 1.376 . S
C613 C612 1.392 . S
C613 H625 0.929 . S
C614 C610 1.531 . S
C614 H626 0.960 . S
C614 H627 0.962 . S
C614 H628 0.960 . S
C615 C612 1.511 . S
C615 H629 0.961 . S
C615 H630 0.961 . S
C615 H631 0.961 . S
C616 C617 1.370 . S
C616 C618 1.363 . S
C616 H632 0.931 . S
C617 C616 1.370 . S
C617 C621 1.408 . S
C618 C616 1.363 . S
C618 C619 1.370 . S
C618 C622 1.524 . S
C619 C611 1.503 . S
C619 C618 1.370 . S
C619 C620 1.403 . S
C620 C619 1.403 . S
C620 C621 1.404 . S
C620 C623 1.539 . S
C621 C617 1.408 . S
C621 C620 1.404 . S
C621 H633 0.930 . S
C622 C618 1.524 . S
C622 H634 0.956 . S
C622 H635 0.961 . S
C622 H636 0.961 . S
C623 C620 1.539 . S
C623 H637 0.958 . S
C623 H638 0.961 . S
C623 H639 0.960 . S
H624 C608 0.931 . S
H625 C613 0.929 . S
H626 C614 0.960 . S
H627 C614 0.962 . S
H628 C614 0.960 . S
H629 C615 0.961 . S
H630 C615 0.961 . S
H631 C615 0.961 . S
H632 C616 0.931 . S
H633 C621 0.930 . S
H634 C622 0.956 . S
H635 C622 0.961 . S
H636 C622 0.961 . S
H637 C623 0.958 . S
H638 C623 0.961 . S
H639 C623 0.960 . S
C640 C641 1.391 . S
C640 C642 1.394 . S
C640 H656 0.931 . S
C641 C640 1.391 . S
C641 C645 1.376 . S
C642 C640 1.394 . S
C642 C643 1.369 . S
C642 C646 1.531 . S
C643 C642 1.369 . S
C643 C644 1.410 . S
C643 C651 1.503 . S
C644 C643 1.410 . S
C644 C645 1.392 . S
C644 C647 1.511 . S
C645 C641 1.376 . S
C645 C644 1.392 . S
C645 H657 0.929 . S
C646 C642 1.531 . S
C646 H658 0.960 . S
C646 H659 0.962 . S
C646 H660 0.960 . S
C647 C644 1.511 . S
C647 H661 0.961 . S
C647 H662 0.961 . S
C647 H663 0.961 . S
C648 C649 1.370 . S
C648 C650 1.363 . S
C648 H664 0.931 . S
C649 C648 1.370 . S
C649 C653 1.408 . S
C650 C648 1.363 . S
C650 C651 1.370 . S
C650 C654 1.524 . S
C651 C643 1.503 . S
C651 C650 1.370 . S
C651 C652 1.403 . S
C652 C651 1.403 . S
C652 C653 1.404 . S
C652 C655 1.539 . S
C653 C649 1.408 . S
C653 C652 1.404 . S
C653 H665 0.930 . S
C654 C650 1.524 . S
C654 H666 0.956 . S
C654 H667 0.961 . S
C654 H668 0.961 . S
C655 C652 1.539 . S
C655 H669 0.958 . S
C655 H670 0.961 . S
C655 H671 0.960 . S
H656 C640 0.931 . S
H657 C645 0.929 . S
H658 C646 0.960 . S
H659 C646 0.962 . S
H660 C646 0.960 . S
H661 C647 0.961 . S
H662 C647 0.961 . S
H663 C647 0.961 . S
H664 C648 0.931 . S
H665 C653 0.930 . S
H666 C654 0.956 . S
H667 C654 0.961 . S
H668 C654 0.961 . S
H669 C655 0.958 . S
H670 C655 0.961 . S
H671 C655 0.960 . S
C672 C673 1.391 . S
C672 C674 1.394 . S
C672 H688 0.931 . S
C673 C672 1.391 . S
C673 C677 1.376 . S
C674 C672 1.394 . S
C674 C675 1.369 . S
C674 C678 1.531 . S
C675 C674 1.369 . S
C675 C676 1.410 . S
C675 C683 1.503 . S
C676 C675 1.410 . S
C676 C677 1.392 . S
C676 C679 1.511 . S
C677 C673 1.376 . S
C677 C676 1.392 . S
C677 H689 0.929 . S
C678 C674 1.531 . S
C678 H690 0.960 . S
C678 H691 0.962 . S
C678 H692 0.960 . S
C679 C676 1.511 . S
C679 H693 0.961 . S
C679 H694 0.961 . S
C679 H695 0.961 . S
C680 C681 1.370 . S
C680 C682 1.363 . S
C680 H696 0.931 . S
C681 C680 1.370 . S
C681 C685 1.408 . S
C682 C680 1.363 . S
C682 C683 1.370 . S
C682 C686 1.524 . S
C683 C675 1.503 . S
C683 C682 1.370 . S
C683 C684 1.403 . S
C684 C683 1.403 . S
C684 C685 1.404 . S
C684 C687 1.539 . S
C685 C681 1.408 . S
C685 C684 1.404 . S
C685 H697 0.930 . S
C686 C682 1.524 . S
C686 H698 0.956 . S
C686 H699 0.961 . S
C686 H700 0.961 . S
C687 C684 1.539 . S
C687 H701 0.958 . S
C687 H702 0.961 . S
C687 H703 0.960 . S
H688 C672 0.931 . S
H689 C677 0.929 . S
H690 C678 0.960 . S
H691 C678 0.962 . S
H692 C678 0.960 . S
H693 C679 0.961 . S
H694 C679 0.961 . S
H695 C679 0.961 . S
H696 C680 0.931 . S
H697 C685 0.930 . S
H698 C686 0.956 . S
H699 C686 0.961 . S
H700 C686 0.961 . S
H701 C687 0.958 . S
H702 C687 0.961 . S
H703 C687 0.960 . S
C704 C705 1.391 . S
C704 C706 1.394 . S
C704 H720 0.931 . S
C705 C704 1.391 . S
C705 C709 1.376 . S
C706 C704 1.394 . S
C706 C707 1.369 . S
C706 C710 1.531 . S
C707 C706 1.369 . S
C707 C708 1.410 . S
C707 C715 1.503 . S
C708 C707 1.410 . S
C708 C709 1.392 . S
C708 C711 1.511 . S
C709 C705 1.376 . S
C709 C708 1.392 . S
C709 H721 0.929 . S
C710 C706 1.531 . S
C710 H722 0.960 . S
C710 H723 0.962 . S
C710 H724 0.960 . S
C711 C708 1.511 . S
C711 H725 0.961 . S
C711 H726 0.961 . S
C711 H727 0.961 . S
C712 C713 1.370 . S
C712 C714 1.363 . S
C712 H728 0.931 . S
C713 C712 1.370 . S
C713 C717 1.408 . S
C714 C712 1.363 . S
C714 C715 1.370 . S
C714 C718 1.524 . S
C715 C707 1.503 . S
C715 C714 1.370 . S
C715 C716 1.403 . S
C716 C715 1.403 . S
C716 C717 1.404 . S
C716 C719 1.539 . S
C717 C713 1.408 . S
C717 C716 1.404 . S
C717 H729 0.930 . S
C718 C714 1.524 . S
C718 H730 0.956 . S
C718 H731 0.961 . S
C718 H732 0.961 . S
C719 C716 1.539 . S
C719 H733 0.958 . S
C719 H734 0.961 . S
C719 H735 0.960 . S
H720 C704 0.931 . S
H721 C709 0.929 . S
H722 C710 0.960 . S
H723 C710 0.962 . S
H724 C710 0.960 . S
H725 C711 0.961 . S
H726 C711 0.961 . S
H727 C711 0.961 . S
H728 C712 0.931 . S
H729 C717 0.930 . S
H730 C718 0.956 . S
H731 C718 0.961 . S
H732 C718 0.961 . S
H733 C719 0.958 . S
H734 C719 0.961 . S
H735 C719 0.960 . S
C736 C737 1.391 . S
C736 C738 1.394 . S
C736 H752 0.931 . S
C737 C736 1.391 . S
C737 C741 1.376 . S
C738 C736 1.394 . S
C738 C739 1.369 . S
C738 C742 1.531 . S
C739 C738 1.369 . S
C739 C740 1.410 . S
C739 C747 1.503 . S
C740 C739 1.410 . S
C740 C741 1.392 . S
C740 C743 1.511 . S
C741 C737 1.376 . S
C741 C740 1.392 . S
C741 H753 0.929 . S
C742 C738 1.531 . S
C742 H754 0.960 . S
C742 H755 0.962 . S
C742 H756 0.960 . S
C743 C740 1.511 . S
C743 H757 0.961 1_655 S
C743 H758 0.961 . S
C743 H759 0.961 . S
C744 C745 1.370 . S
C744 C746 1.363 . S
C744 H760 0.931 . S
C745 C744 1.370 . S
C745 C749 1.408 . S
C746 C744 1.363 . S
C746 C747 1.370 . S
C746 C750 1.524 . S
C747 C739 1.503 . S
C747 C746 1.370 . S
C747 C748 1.403 . S
C748 C747 1.403 . S
C748 C749 1.404 . S
C748 C751 1.539 . S
C749 C745 1.408 . S
C749 C748 1.404 . S
C749 H761 0.930 . S
C750 C746 1.524 . S
C750 H762 0.956 . S
C750 H763 0.961 . S
C750 H764 0.961 . S
C751 C748 1.539 . S
C751 H765 0.958 . S
C751 H766 0.961 . S
C751 H767 0.960 . S
H752 C736 0.931 . S
H753 C741 0.929 . S
H754 C742 0.960 . S
H755 C742 0.962 . S
H756 C742 0.960 . S
H757 C743 0.961 1_455 S
H758 C743 0.961 . S
H759 C743 0.961 . S
H760 C744 0.931 . S
H761 C749 0.930 . S
H762 C750 0.956 . S
H763 C750 0.961 . S
H764 C750 0.961 . S
H765 C751 0.958 . S
H766 C751 0.961 . S
H767 C751 0.960 . S
C768 C769 1.391 . S
C768 C770 1.394 . S
C768 H784 0.931 . S
C769 C768 1.391 . S
C769 C773 1.376 . S
C770 C768 1.394 . S
C770 C771 1.369 . S
C770 C774 1.531 . S
C771 C770 1.369 . S
C771 C772 1.410 . S
C771 C779 1.503 . S
C772 C771 1.410 . S
C772 C773 1.392 . S
C772 C775 1.511 . S
C773 C769 1.376 . S
C773 C772 1.392 . S
C773 H785 0.929 . S
C774 C770 1.531 . S
C774 H786 0.960 . S
C774 H787 0.962 . S
C774 H788 0.960 . S
C775 C772 1.511 . S
C775 H789 0.961 . S
C775 H790 0.961 . S
C775 H791 0.961 . S
C776 C777 1.370 . S
C776 C778 1.363 . S
C776 H792 0.931 . S
C777 C776 1.370 . S
C777 C781 1.408 . S
C778 C776 1.363 . S
C778 C779 1.370 . S
C778 C782 1.524 . S
C779 C771 1.503 . S
C779 C778 1.370 . S
C779 C780 1.403 . S
C780 C779 1.403 . S
C780 C781 1.404 . S
C780 C783 1.539 . S
C781 C777 1.408 . S
C781 C780 1.404 . S
C781 H793 0.930 . S
C782 C778 1.524 . S
C782 H794 0.956 . S
C782 H795 0.961 . S
C782 H796 0.961 . S
C783 C780 1.539 . S
C783 H797 0.958 . S
C783 H798 0.961 . S
C783 H799 0.960 . S
H784 C768 0.931 . S
H785 C773 0.929 . S
H786 C774 0.960 . S
H787 C774 0.962 . S
H788 C774 0.960 . S
H789 C775 0.961 . S
H790 C775 0.961 . S
H791 C775 0.961 . S
H792 C776 0.931 . S
H793 C781 0.930 . S
H794 C782 0.956 . S
H795 C782 0.961 . S
H796 C782 0.961 . S
H797 C783 0.958 . S
H798 C783 0.961 . S
H799 C783 0.960 . S
C800 C801 1.391 . S
C800 C802 1.394 . S
C800 H816 0.931 . S
C801 C800 1.391 . S
C801 C805 1.376 . S
C802 C800 1.394 . S
C802 C803 1.369 . S
C802 C806 1.531 . S
C803 C802 1.369 . S
C803 C804 1.410 . S
C803 C811 1.503 . S
C804 C803 1.410 . S
C804 C805 1.392 . S
C804 C807 1.511 . S
C805 C801 1.376 . S
C805 C804 1.392 . S
C805 H817 0.929 . S
C806 C802 1.531 . S
C806 H818 0.960 . S
C806 H819 0.962 . S
C806 H820 0.960 . S
C807 C804 1.511 . S
C807 H821 0.961 . S
C807 H822 0.961 . S
C807 H823 0.961 . S
C808 C809 1.370 . S
C808 C810 1.363 . S
C808 H824 0.931 . S
C809 C808 1.370 . S
C809 C813 1.408 . S
C810 C808 1.363 . S
C810 C811 1.370 . S
C810 C814 1.524 . S
C811 C803 1.503 . S
C811 C810 1.370 . S
C811 C812 1.403 . S
C812 C811 1.403 . S
C812 C813 1.404 . S
C812 C815 1.539 . S
C813 C809 1.408 . S
C813 C812 1.404 . S
C813 H825 0.930 . S
C814 C810 1.524 . S
C814 H826 0.956 . S
C814 H827 0.961 . S
C814 H828 0.961 . S
C815 C812 1.539 . S
C815 H829 0.958 . S
C815 H830 0.961 . S
C815 H831 0.960 . S
H816 C800 0.931 . S
H817 C805 0.929 . S
H818 C806 0.960 . S
H819 C806 0.962 . S
H820 C806 0.960 . S
H821 C807 0.961 . S
H822 C807 0.961 . S
H823 C807 0.961 . S
H824 C808 0.931 . S
H825 C813 0.930 . S
H826 C814 0.956 . S
H827 C814 0.961 . S
H828 C814 0.961 . S
H829 C815 0.958 . S
H830 C815 0.961 . S
H831 C815 0.960 . S
C832 C833 1.391 . S
C832 C834 1.394 . S
C832 H848 0.931 . S
C833 C832 1.391 . S
C833 C837 1.376 . S
C834 C832 1.394 . S
C834 C835 1.369 . S
C834 C838 1.531 . S
C835 C834 1.369 . S
C835 C836 1.410 . S
C835 C843 1.503 . S
C836 C835 1.410 . S
C836 C837 1.392 . S
C836 C839 1.511 . S
C837 C833 1.376 . S
C837 C836 1.392 . S
C837 H849 0.929 . S
C838 C834 1.531 . S
C838 H850 0.960 . S
C838 H851 0.962 . S
C838 H852 0.960 . S
C839 C836 1.511 . S
C839 H853 0.961 . S
C839 H854 0.961 . S
C839 H855 0.961 . S
C840 C841 1.370 . S
C840 C842 1.363 . S
C840 H856 0.931 . S
C841 C840 1.370 . S
C841 C845 1.408 . S
C842 C840 1.363 . S
C842 C843 1.370 . S
C842 C846 1.524 . S
C843 C835 1.503 . S
C843 C842 1.370 . S
C843 C844 1.403 . S
C844 C843 1.403 . S
C844 C845 1.404 . S
C844 C847 1.539 . S
C845 C841 1.408 . S
C845 C844 1.404 . S
C845 H857 0.930 . S
C846 C842 1.524 . S
C846 H858 0.956 . S
C846 H859 0.961 . S
C846 H860 0.961 . S
C847 C844 1.539 . S
C847 H861 0.958 . S
C847 H862 0.961 . S
C847 H863 0.960 . S
H848 C832 0.931 . S
H849 C837 0.929 . S
H850 C838 0.960 . S
H851 C838 0.962 . S
H852 C838 0.960 . S
H853 C839 0.961 . S
H854 C839 0.961 . S
H855 C839 0.961 . S
H856 C840 0.931 . S
H857 C845 0.930 . S
H858 C846 0.956 . S
H859 C846 0.961 . S
H860 C846 0.961 . S
H861 C847 0.958 . S
H862 C847 0.961 . S
H863 C847 0.960 . S
C864 C865 1.391 . S
C864 C866 1.394 . S
C864 H880 0.931 . S
C865 C864 1.391 . S
C865 C869 1.376 . S
C866 C864 1.394 . S
C866 C867 1.369 . S
C866 C870 1.531 . S
C867 C866 1.369 . S
C867 C868 1.410 . S
C867 C875 1.503 . S
C868 C867 1.410 . S
C868 C869 1.392 . S
C868 C871 1.511 . S
C869 C865 1.376 . S
C869 C868 1.392 . S
C869 H881 0.929 . S
C870 C866 1.531 . S
C870 H882 0.960 . S
C870 H883 0.962 . S
C870 H884 0.960 . S
C871 C868 1.511 . S
C871 H885 0.961 . S
C871 H886 0.961 . S
C871 H887 0.961 . S
C872 C873 1.370 . S
C872 C874 1.363 . S
C872 H888 0.931 . S
C873 C872 1.370 . S
C873 C877 1.408 . S
C874 C872 1.363 . S
C874 C875 1.370 . S
C874 C878 1.524 . S
C875 C867 1.503 . S
C875 C874 1.370 . S
C875 C876 1.403 . S
C876 C875 1.403 . S
C876 C877 1.404 . S
C876 C879 1.539 . S
C877 C873 1.408 . S
C877 C876 1.404 . S
C877 H889 0.930 . S
C878 C874 1.524 . S
C878 H890 0.956 . S
C878 H891 0.961 . S
C878 H892 0.961 . S
C879 C876 1.539 . S
C879 H893 0.958 . S
C879 H894 0.961 . S
C879 H895 0.960 . S
H880 C864 0.931 . S
H881 C869 0.929 . S
H882 C870 0.960 . S
H883 C870 0.962 . S
H884 C870 0.960 . S
H885 C871 0.961 . S
H886 C871 0.961 . S
H887 C871 0.961 . S
H888 C872 0.931 . S
H889 C877 0.930 . S
H890 C878 0.956 . S
H891 C878 0.961 . S
H892 C878 0.961 . S
H893 C879 0.958 . S
H894 C879 0.961 . S
H895 C879 0.960 . S
C896 C897 1.391 . S
C896 C898 1.394 . S
C896 H912 0.931 . S
C897 C896 1.391 . S
C897 C901 1.376 . S
C898 C896 1.394 . S
C898 C899 1.369 . S
C898 C902 1.531 . S
C899 C898 1.369 . S
C899 C900 1.410 . S
C899 C907 1.503 . S
C900 C899 1.410 . S
C900 C901 1.392 . S
C900 C903 1.511 . S
C901 C897 1.376 . S
C901 C900 1.392 . S
C901 H913 0.929 . S
C902 C898 1.531 . S
C902 H914 0.960 . S
C902 H915 0.962 . S
C902 H916 0.960 . S
C903 C900 1.511 . S
C903 H917 0.961 . S
C903 H918 0.961 . S
C903 H919 0.961 . S
C904 C905 1.370 . S
C904 C906 1.363 . S
C904 H920 0.931 . S
C905 C904 1.370 . S
C905 C909 1.408 . S
C906 C904 1.363 . S
C906 C907 1.370 . S
C906 C910 1.524 . S
C907 C899 1.503 . S
C907 C906 1.370 . S
C907 C908 1.403 . S
C908 C907 1.403 . S
C908 C909 1.404 . S
C908 C911 1.539 . S
C909 C905 1.408 . S
C909 C908 1.404 . S
C909 H921 0.930 . S
C910 C906 1.524 . S
C910 H922 0.956 . S
C910 H923 0.961 . S
C910 H924 0.961 . S
C911 C908 1.539 . S
C911 H925 0.958 . S
C911 H926 0.961 . S
C911 H927 0.960 . S
H912 C896 0.931 . S
H913 C901 0.929 . S
H914 C902 0.960 . S
H915 C902 0.962 . S
H916 C902 0.960 . S
H917 C903 0.961 . S
H918 C903 0.961 . S
H919 C903 0.961 . S
H920 C904 0.931 . S
H921 C909 0.930 . S
H922 C910 0.956 . S
H923 C910 0.961 . S
H924 C910 0.961 . S
H925 C911 0.958 . S
H926 C911 0.961 . S
H927 C911 0.960 . S
C928 C929 1.391 . S
C928 C930 1.394 . S
C928 H944 0.931 . S
C929 C928 1.391 . S
C929 C933 1.376 . S
C930 C928 1.394 . S
C930 C931 1.369 . S
C930 C934 1.531 . S
C931 C930 1.369 . S
C931 C932 1.410 . S
C931 C939 1.503 . S
C932 C931 1.410 . S
C932 C933 1.392 . S
C932 C935 1.511 . S
C933 C929 1.376 . S
C933 C932 1.392 . S
C933 H945 0.929 . S
C934 C930 1.531 . S
C934 H946 0.960 . S
C934 H947 0.962 . S
C934 H948 0.960 . S
C935 C932 1.511 . S
C935 H949 0.961 . S
C935 H950 0.961 . S
C935 H951 0.961 . S
C936 C937 1.370 . S
C936 C938 1.363 . S
C936 H952 0.931 . S
C937 C936 1.370 . S
C937 C941 1.408 . S
C938 C936 1.363 . S
C938 C939 1.370 . S
C938 C942 1.524 . S
C939 C931 1.503 . S
C939 C938 1.370 . S
C939 C940 1.403 . S
C940 C939 1.403 . S
C940 C941 1.404 . S
C940 C943 1.539 . S
C941 C937 1.408 . S
C941 C940 1.404 . S
C941 H953 0.930 . S
C942 C938 1.524 . S
C942 H954 0.956 . S
C942 H955 0.961 . S
C942 H956 0.961 . S
C943 C940 1.539 . S
C943 H957 0.958 . S
C943 H958 0.961 . S
C943 H959 0.960 . S
H944 C928 0.931 . S
H945 C933 0.929 . S
H946 C934 0.960 . S
H947 C934 0.962 . S
H948 C934 0.960 . S
H949 C935 0.961 . S
H950 C935 0.961 . S
H951 C935 0.961 . S
H952 C936 0.931 . S
H953 C941 0.930 . S
H954 C942 0.956 . S
H955 C942 0.961 . S
H956 C942 0.961 . S
H957 C943 0.958 . S
H958 C943 0.961 . S
H959 C943 0.960 . S
C960 C961 1.391 . S
C960 C962 1.394 . S
C960 H976 0.931 . S
C961 C960 1.391 . S
C961 C965 1.376 . S
C962 C960 1.394 . S
C962 C963 1.369 . S
C962 C966 1.531 . S
C963 C962 1.369 . S
C963 C964 1.410 . S
C963 C971 1.503 . S
C964 C963 1.410 . S
C964 C965 1.392 . S
C964 C967 1.511 . S
C965 C961 1.376 . S
C965 C964 1.392 . S
C965 H977 0.929 . S
C966 C962 1.531 . S
C966 H978 0.960 . S
C966 H979 0.962 1_655 S
C966 H980 0.960 . S
C967 C964 1.511 . S
C967 H981 0.961 . S
C967 H982 0.961 . S
C967 H983 0.961 . S
C968 C969 1.370 . S
C968 C970 1.363 . S
C968 H984 0.931 . S
C969 C968 1.370 . S
C969 C973 1.408 . S
C970 C968 1.363 . S
C970 C971 1.370 . S
C970 C974 1.524 . S
C971 C963 1.503 . S
C971 C970 1.370 . S
C971 C972 1.403 . S
C972 C971 1.403 . S
C972 C973 1.404 . S
C972 C975 1.539 . S
C973 C969 1.408 . S
C973 C972 1.404 . S
C973 H985 0.930 . S
C974 C970 1.524 . S
C974 H986 0.956 . S
C974 H987 0.961 . S
C974 H988 0.961 . S
C975 C972 1.539 . S
C975 H989 0.958 . S
C975 H990 0.961 . S
C975 H991 0.960 . S
H976 C960 0.931 . S
H977 C965 0.929 . S
H978 C966 0.960 . S
H979 C966 0.962 1_455 S
H980 C966 0.960 . S
H981 C967 0.961 . S
H982 C967 0.961 . S
H983 C967 0.961 . S
H984 C968 0.931 . S
H985 C973 0.930 . S
H986 C974 0.956 . S
H987 C974 0.961 . S
H988 C974 0.961 . S
H989 C975 0.958 . S
H990 C975 0.961 . S
H991 C975 0.960 . S
C992 C993 1.391 . S
C992 C994 1.394 . S
C992 H1008 0.931 . S
C993 C992 1.391 . S
C993 C997 1.376 . S
C994 C992 1.394 . S
C994 C995 1.369 . S
C994 C998 1.531 . S
C995 C994 1.369 . S
C995 C996 1.410 . S
C995 C1003 1.503 . S
C996 C995 1.410 . S
C996 C997 1.392 . S
C996 C999 1.511 . S
C997 C993 1.376 . S
C997 C996 1.392 . S
C997 H1009 0.929 . S
C998 C994 1.531 . S
C998 H1010 0.960 . S
C998 H1011 0.962 . S
C998 H1012 0.960 . S
C999 C996 1.511 . S
C999 H1013 0.961 . S
C999 H1014 0.961 . S
C999 H1015 0.961 . S
C1000 C1001 1.370 . S
C1000 C1002 1.363 . S
C1000 H1016 0.931 . S
C1001 C1000 1.370 . S
C1001 C1005 1.408 . S
C1002 C1000 1.363 . S
C1002 C1003 1.370 . S
C1002 C1006 1.524 . S
C1003 C995 1.503 . S
C1003 C1002 1.370 . S
C1003 C1004 1.403 . S
C1004 C1003 1.403 . S
C1004 C1005 1.404 . S
C1004 C1007 1.539 . S
C1005 C1001 1.408 . S
C1005 C1004 1.404 . S
C1005 H1017 0.930 . S
C1006 C1002 1.524 . S
C1006 H1018 0.956 . S
C1006 H1019 0.961 . S
C1006 H1020 0.961 . S
C1007 C1004 1.539 . S
C1007 H1021 0.958 . S
C1007 H1022 0.961 . S
C1007 H1023 0.960 . S
H1008 C992 0.931 . S
H1009 C997 0.929 . S
H1010 C998 0.960 . S
H1011 C998 0.962 . S
H1012 C998 0.960 . S
H1013 C999 0.961 . S
H1014 C999 0.961 . S
H1015 C999 0.961 . S
H1016 C1000 0.931 . S
H1017 C1005 0.930 . S
H1018 C1006 0.956 . S
H1019 C1006 0.961 . S
H1020 C1006 0.961 . S
H1021 C1007 0.958 . S
H1022 C1007 0.961 . S
H1023 C1007 0.960 . S
C1024 C1025 1.391 . S
C1024 C1026 1.394 . S
C1024 H1040 0.931 . S
C1025 C1024 1.391 . S
C1025 C1029 1.376 . S
C1026 C1024 1.394 . S
C1026 C1027 1.369 . S
C1026 C1030 1.531 . S
C1027 C1026 1.369 . S
C1027 C1028 1.410 . S
C1027 C1035 1.503 . S
C1028 C1027 1.410 . S
C1028 C1029 1.392 . S
C1028 C1031 1.511 . S
C1029 C1025 1.376 . S
C1029 C1028 1.392 . S
C1029 H1041 0.929 . S
C1030 C1026 1.531 . S
C1030 H1042 0.960 . S
C1030 H1043 0.962 . S
C1030 H1044 0.960 . S
C1031 C1028 1.511 . S
C1031 H1045 0.961 . S
C1031 H1046 0.961 . S
C1031 H1047 0.961 . S
C1032 C1033 1.370 . S
C1032 C1034 1.363 . S
C1032 H1048 0.931 . S
C1033 C1032 1.370 . S
C1033 C1037 1.408 . S
C1034 C1032 1.363 . S
C1034 C1035 1.370 . S
C1034 C1038 1.524 . S
C1035 C1027 1.503 . S
C1035 C1034 1.370 . S
C1035 C1036 1.403 . S
C1036 C1035 1.403 . S
C1036 C1037 1.404 . S
C1036 C1039 1.539 . S
C1037 C1033 1.408 . S
C1037 C1036 1.404 . S
C1037 H1049 0.930 . S
C1038 C1034 1.524 . S
C1038 H1050 0.956 . S
C1038 H1051 0.961 . S
C1038 H1052 0.961 . S
C1039 C1036 1.539 . S
C1039 H1053 0.958 . S
C1039 H1054 0.961 . S
C1039 H1055 0.960 . S
H1040 C1024 0.931 . S
H1041 C1029 0.929 . S
H1042 C1030 0.960 . S
H1043 C1030 0.962 . S
H1044 C1030 0.960 . S
H1045 C1031 0.961 . S
H1046 C1031 0.961 . S
H1047 C1031 0.961 . S
H1048 C1032 0.931 . S
H1049 C1037 0.930 . S
H1050 C1038 0.956 . S
H1051 C1038 0.961 . S
H1052 C1038 0.961 . S
H1053 C1039 0.958 . S
H1054 C1039 0.961 . S
H1055 C1039 0.960 . S
C1056 C1057 1.391 . S
C1056 C1058 1.394 . S
C1056 H1072 0.931 . S
C1057 C1056 1.391 . S
C1057 C1061 1.376 . S
C1058 C1056 1.394 . S
C1058 C1059 1.369 . S
C1058 C1062 1.531 . S
C1059 C1058 1.369 . S
C1059 C1060 1.410 . S
C1059 C1067 1.503 . S
C1060 C1059 1.410 . S
C1060 C1061 1.392 . S
C1060 C1063 1.511 . S
C1061 C1057 1.376 . S
C1061 C1060 1.392 . S
C1061 H1073 0.929 . S
C1062 C1058 1.531 . S
C1062 H1074 0.960 . S
C1062 H1075 0.962 . S
C1062 H1076 0.960 . S
C1063 C1060 1.511 . S
C1063 H1077 0.961 . S
C1063 H1078 0.961 . S
C1063 H1079 0.961 . S
C1064 C1065 1.370 . S
C1064 C1066 1.363 . S
C1064 H1080 0.931 . S
C1065 C1064 1.370 . S
C1065 C1069 1.408 . S
C1066 C1064 1.363 . S
C1066 C1067 1.370 . S
C1066 C1070 1.524 . S
C1067 C1059 1.503 . S
C1067 C1066 1.370 . S
C1067 C1068 1.403 . S
C1068 C1067 1.403 . S
C1068 C1069 1.404 . S
C1068 C1071 1.539 . S
C1069 C1065 1.408 . S
C1069 C1068 1.404 . S
C1069 H1081 0.930 . S
C1070 C1066 1.524 . S
C1070 H1082 0.956 . S
C1070 H1083 0.961 . S
C1070 H1084 0.961 . S
C1071 C1068 1.539 . S
C1071 H1085 0.958 . S
C1071 H1086 0.961 . S
C1071 H1087 0.960 . S
H1072 C1056 0.931 . S
H1073 C1061 0.929 . S
H1074 C1062 0.960 . S
H1075 C1062 0.962 . S
H1076 C1062 0.960 . S
H1077 C1063 0.961 . S
H1078 C1063 0.961 . S
H1079 C1063 0.961 . S
H1080 C1064 0.931 . S
H1081 C1069 0.930 . S
H1082 C1070 0.956 . S
H1083 C1070 0.961 . S
H1084 C1070 0.961 . S
H1085 C1071 0.958 . S
H1086 C1071 0.961 . S
H1087 C1071 0.960 . S
C1088 C1089 1.391 . S
C1088 C1090 1.394 . S
C1088 H1104 0.931 . S
C1089 C1088 1.391 . S
C1089 C1093 1.376 . S
C1090 C1088 1.394 . S
C1090 C1091 1.369 . S
C1090 C1094 1.531 . S
C1091 C1090 1.369 . S
C1091 C1092 1.410 . S
C1091 C1099 1.503 . S
C1092 C1091 1.410 . S
C1092 C1093 1.392 . S
C1092 C1095 1.511 . S
C1093 C1089 1.376 . S
C1093 C1092 1.392 . S
C1093 H1105 0.929 . S
C1094 C1090 1.531 . S
C1094 H1106 0.960 . S
C1094 H1107 0.962 . S
C1094 H1108 0.960 . S
C1095 C1092 1.511 . S
C1095 H1109 0.961 . S
C1095 H1110 0.961 . S
C1095 H1111 0.961 . S
C1096 C1097 1.370 . S
C1096 C1098 1.363 . S
C1096 H1112 0.931 . S
C1097 C1096 1.370 . S
C1097 C1101 1.408 . S
C1098 C1096 1.363 . S
C1098 C1099 1.370 . S
C1098 C1102 1.524 . S
C1099 C1091 1.503 . S
C1099 C1098 1.370 . S
C1099 C1100 1.403 . S
C1100 C1099 1.403 . S
C1100 C1101 1.404 . S
C1100 C1103 1.539 . S
C1101 C1097 1.408 . S
C1101 C1100 1.404 . S
C1101 H1113 0.930 . S
C1102 C1098 1.524 . S
C1102 H1114 0.956 . S
C1102 H1115 0.961 . S
C1102 H1116 0.961 . S
C1103 C1100 1.539 . S
C1103 H1117 0.958 . S
C1103 H1118 0.961 . S
C1103 H1119 0.960 . S
H1104 C1088 0.931 . S
H1105 C1093 0.929 . S
H1106 C1094 0.960 . S
H1107 C1094 0.962 . S
H1108 C1094 0.960 . S
H1109 C1095 0.961 . S
H1110 C1095 0.961 . S
H1111 C1095 0.961 . S
H1112 C1096 0.931 . S
H1113 C1101 0.930 . S
H1114 C1102 0.956 . S
H1115 C1102 0.961 . S
H1116 C1102 0.961 . S
H1117 C1103 0.958 . S
H1118 C1103 0.961 . S
H1119 C1103 0.960 . S
C1120 C1121 1.391 . S
C1120 C1122 1.394 . S
C1120 H1136 0.931 . S
C1121 C1120 1.391 . S
C1121 C1125 1.376 . S
C1122 C1120 1.394 . S
C1122 C1123 1.369 . S
C1122 C1126 1.531 . S
C1123 C1122 1.369 . S
C1123 C1124 1.410 . S
C1123 C1131 1.503 . S
C1124 C1123 1.410 . S
C1124 C1125 1.392 . S
C1124 C1127 1.511 . S
C1125 C1121 1.376 . S
C1125 C1124 1.392 . S
C1125 H1137 0.929 . S
C1126 C1122 1.531 . S
C1126 H1138 0.960 . S
C1126 H1139 0.962 . S
C1126 H1140 0.960 1_455 S
C1127 C1124 1.511 . S
C1127 H1141 0.961 . S
C1127 H1142 0.961 . S
C1127 H1143 0.961 . S
C1128 C1129 1.370 . S
C1128 C1130 1.363 . S
C1128 H1144 0.931 . S
C1129 C1128 1.370 . S
C1129 C1133 1.408 . S
C1130 C1128 1.363 . S
C1130 C1131 1.370 . S
C1130 C1134 1.524 . S
C1131 C1123 1.503 . S
C1131 C1130 1.370 . S
C1131 C1132 1.403 . S
C1132 C1131 1.403 . S
C1132 C1133 1.404 . S
C1132 C1135 1.539 . S
C1133 C1129 1.408 . S
C1133 C1132 1.404 . S
C1133 H1145 0.930 . S
C1134 C1130 1.524 . S
C1134 H1146 0.956 . S
C1134 H1147 0.961 . S
C1134 H1148 0.961 . S
C1135 C1132 1.539 . S
C1135 H1149 0.958 . S
C1135 H1150 0.961 . S
C1135 H1151 0.960 . S
H1136 C1120 0.931 . S
H1137 C1125 0.929 . S
H1138 C1126 0.960 . S
H1139 C1126 0.962 . S
H1140 C1126 0.960 1_655 S
H1141 C1127 0.961 . S
H1142 C1127 0.961 . S
H1143 C1127 0.961 . S
H1144 C1128 0.931 . S
H1145 C1133 0.930 . S
H1146 C1134 0.956 . S
H1147 C1134 0.961 . S
H1148 C1134 0.961 . S
H1149 C1135 0.958 . S
H1150 C1135 0.961 . S
H1151 C1135 0.960 . S
C1152 C1153 1.391 . S
C1152 C1154 1.394 . S
C1152 H1168 0.931 . S
C1153 C1152 1.391 . S
C1153 C1157 1.376 . S
C1154 C1152 1.394 . S
C1154 C1155 1.369 . S
C1154 C1158 1.531 . S
C1155 C1154 1.369 . S
C1155 C1156 1.410 . S
C1155 C1163 1.503 . S
C1156 C1155 1.410 . S
C1156 C1157 1.392 . S
C1156 C1159 1.511 . S
C1157 C1153 1.376 . S
C1157 C1156 1.392 . S
C1157 H1169 0.929 . S
C1158 C1154 1.531 . S
C1158 H1170 0.960 . S
C1158 H1171 0.962 . S
C1158 H1172 0.960 . S
C1159 C1156 1.511 . S
C1159 H1173 0.961 . S
C1159 H1174 0.961 . S
C1159 H1175 0.961 . S
C1160 C1161 1.370 . S
C1160 C1162 1.363 . S
C1160 H1176 0.931 . S
C1161 C1160 1.370 . S
C1161 C1165 1.408 . S
C1162 C1160 1.363 . S
C1162 C1163 1.370 . S
C1162 C1166 1.524 . S
C1163 C1155 1.503 . S
C1163 C1162 1.370 . S
C1163 C1164 1.403 . S
C1164 C1163 1.403 . S
C1164 C1165 1.404 . S
C1164 C1167 1.539 . S
C1165 C1161 1.408 . S
C1165 C1164 1.404 . S
C1165 H1177 0.930 . S
C1166 C1162 1.524 . S
C1166 H1178 0.956 . S
C1166 H1179 0.961 . S
C1166 H1180 0.961 . S
C1167 C1164 1.539 . S
C1167 H1181 0.958 . S
C1167 H1182 0.961 . S
C1167 H1183 0.960 . S
H1168 C1152 0.931 . S
H1169 C1157 0.929 . S
H1170 C1158 0.960 . S
H1171 C1158 0.962 . S
H1172 C1158 0.960 . S
H1173 C1159 0.961 . S
H1174 C1159 0.961 . S
H1175 C1159 0.961 . S
H1176 C1160 0.931 . S
H1177 C1165 0.930 . S
H1178 C1166 0.956 . S
H1179 C1166 0.961 . S
H1180 C1166 0.961 . S
H1181 C1167 0.958 . S
H1182 C1167 0.961 . S
H1183 C1167 0.960 . S
C417 C29 1.186 . S
C425 C273 1.168 . S
C449 C49 1.090 . S
C457 C313 1.109 . S
C489 C338 2.429 . S
C481 C93 2.426 . S
C513 C119 2.338 . S
C521 C378 2.336 . S
C553 C309 1.676 . S
C545 C17 1.674 . S
C585 C269 1.744 . S
C577 C61 1.553 . S
C617 C400 1.689 . S
C609 C81 1.692 . S
C649 C360 1.718 . S
C641 C125 1.696 . S
C673 C23 1.295 . S
C681 C402 1.311 . S
C713 C319 2.128 . S
C705 C87 2.133 . S
C737 C113 2.185 . S
C745 C279 2.180 . S
C769 C55 1.224 . S
C777 C362 1.335 . S
C809 C282 1.155 . S
C801 C157 1.097 . S
C833 C189 1.185 . S
C841 C322 1.181 . S
C865 C221 2.410 . S
C873 C359 2.389 . S
C897 C253 2.407 . S
C905 C399 2.408 . S
C929 C145 1.618 . S
C937 C320 1.768 . S
C969 C280 1.710 . S
C961 C183 1.692 . S
C1001 C389 1.720 . S
C993 C209 1.728 . S
C1033 C349 1.689 . S
C1025 C247 1.650 . S
C1057 C151 1.190 . S
C1065 C393 1.312 . S
C1097 C298 2.116 . S
C1089 C215 2.127 . S
C1129 C258 2.155 . S
C1121 C241 2.136 . S
C1153 C177 1.344 . S
C1161 C353 1.340 . S
