# Generated by pormake.
# Topology zzz, (3,6)-cn, num edge types: 1
# Building blocks:
#     Node 0, Type 0, BuildingBlock: BETDIP_clean_linker_0, # of connection points: 3
#     Node 1, Type 0, BuildingBlock: BETDIP_clean_linker_0, # of connection points: 3
#     Node 2, Type 0, BuildingBlock: BETDIP_clean_linker_0, # of connection points: 3
#     Node 3, Type 0, BuildingBlock: BETDIP_clean_linker_0, # of connection points: 3
#     Node 4, Type 0, BuildingBlock: BETDIP_clean_linker_0, # of connection points: 3
#     Node 5, Type 0, BuildingBlock: BETDIP_clean_linker_0, # of connection points: 3
#     Node 6, Type 0, BuildingBlock: BETDIP_clean_linker_0, # of connection points: 3
#     Node 7, Type 0, BuildingBlock: BETDIP_clean_linker_0, # of connection points: 3
#     Node 8, Type 1, BuildingBlock: PAMTUU_clean_sbu_0, # of connection points: 6
#     Node 9, Type 1, BuildingBlock: PAMTUU_clean_sbu_0, # of connection points: 6
#     Node 10, Type 1, BuildingBlock: PAMTUU_clean_sbu_0, # of connection points: 6
#     Node 11, Type 1, BuildingBlock: PAMTUU_clean_sbu_0, # of connection points: 6
#     Edge 12, Type (0, 1), BuildingBlock: ZUJKAS_clean_linker_0, # of connection points: 2
#     Edge 13, Type (0, 1), BuildingBlock: ZUJKAS_clean_linker_0, # of connection points: 2
#     Edge 14, Type (0, 1), BuildingBlock: ZUJKAS_clean_linker_0, # of connection points: 2
#     Edge 15, Type (0, 1), BuildingBlock: ZUJKAS_clean_linker_0, # of connection points: 2
#     Edge 16, Type (0, 1), BuildingBlock: ZUJKAS_clean_linker_0, # of connection points: 2
#     Edge 17, Type (0, 1), BuildingBlock: ZUJKAS_clean_linker_0, # of connection points: 2
#     Edge 18, Type (0, 1), BuildingBlock: ZUJKAS_clean_linker_0, # of connection points: 2
#     Edge 19, Type (0, 1), BuildingBlock: ZUJKAS_clean_linker_0, # of connection points: 2
#     Edge 20, Type (0, 1), BuildingBlock: ZUJKAS_clean_linker_0, # of connection points: 2
#     Edge 21, Type (0, 1), BuildingBlock: ZUJKAS_clean_linker_0, # of connection points: 2
#     Edge 22, Type (0, 1), BuildingBlock: ZUJKAS_clean_linker_0, # of connection points: 2
#     Edge 23, Type (0, 1), BuildingBlock: ZUJKAS_clean_linker_0, # of connection points: 2
#     Edge 24, Type (0, 1), BuildingBlock: ZUJKAS_clean_linker_0, # of connection points: 2
#     Edge 25, Type (0, 1), BuildingBlock: ZUJKAS_clean_linker_0, # of connection points: 2
#     Edge 26, Type (0, 1), BuildingBlock: ZUJKAS_clean_linker_0, # of connection points: 2
#     Edge 27, Type (0, 1), BuildingBlock: ZUJKAS_clean_linker_0, # of connection points: 2
#     Edge 28, Type (0, 1), BuildingBlock: ZUJKAS_clean_linker_0, # of connection points: 2
#     Edge 29, Type (0, 1), BuildingBlock: ZUJKAS_clean_linker_0, # of connection points: 2
#     Edge 30, Type (0, 1), BuildingBlock: ZUJKAS_clean_linker_0, # of connection points: 2
#     Edge 31, Type (0, 1), BuildingBlock: ZUJKAS_clean_linker_0, # of connection points: 2
#     Edge 32, Type (0, 1), BuildingBlock: ZUJKAS_clean_linker_0, # of connection points: 2
#     Edge 33, Type (0, 1), BuildingBlock: ZUJKAS_clean_linker_0, # of connection points: 2
#     Edge 34, Type (0, 1), BuildingBlock: ZUJKAS_clean_linker_0, # of connection points: 2
#     Edge 35, Type (0, 1), BuildingBlock: ZUJKAS_clean_linker_0, # of connection points: 2
# Relax obj value: 0.183
# Max RMSD: 0.202
# Mean RMSD: 0.120
data_MOF--net-zzz--node1-PAMTUU_clean_sbu_0--node2-BETDIP_clean_linker_0--edge1-ZUJKAS_clean_linker_0
_symmetry_space_group_name_H-M    P1
_symmetry_Int_Tables_number       1
_symmetry_cell_setting            triclinic
loop_
_symmetry_equiv_pos_as_xyz
'x, y, z'
_cell_length_a     66.758542
_cell_length_b     70.390755
_cell_length_c     19.623738
_cell_angle_alpha  99.134547
_cell_angle_beta   90.037209
_cell_angle_gamma 91.625891
loop_
_atom_site_label
_atom_site_type_symbol
_atom_site_fract_x
_atom_site_fract_y
_atom_site_fract_z
_atom_type_partial_charge
H0 H 0.78321 0.52122 0.4289 0.0
H1 H 0.76743 0.49053 0.22772 0.0
H2 H 0.82458 0.48206 0.31781 0.0
H3 H 0.76074 0.53161 0.24267 0.0
C4 C 0.74891 0.52527 0.27064 0.0
C5 C 0.78688 0.51091 0.38391 0.0
C6 C 0.80546 0.50159 0.38064 0.0
C7 C 0.77323 0.50704 0.32782 0.0
C8 C 0.77815 0.49371 0.26976 0.0
C9 C 0.79652 0.48449 0.26554 0.0
C10 C 0.81 0.48853 0.32132 0.0
N11 N 0.7546 0.51649 0.32824 0.0
H12 H 0.98949 0.75127 0.46905 0.0
H13 H 1.00589 0.7434 0.25388 0.0
H14 H 0.02074 0.79657 0.38596 0.0
H15 H 0.97201 0.72716 0.25605 0.0
C16 C 0.97846 0.71774 0.28861 0.0
C17 C 0.99666 0.75658 0.42597 0.0
C18 C 1.00546 0.77517 0.43499 0.0
C19 C 0.99666 0.74505 0.36047 0.0
C20 C 1.00565 0.75223 0.30438 0.0
C21 C 0.01467 0.77069 0.31347 0.0
C22 C 0.01455 0.78196 0.37897 0.0
N23 N 0.98795 0.72615 0.3515 0.0
H24 H 0.77705 0.99167 0.4153 0.0
H25 H 0.7947 0.01755 0.23914 0.0
H26 H 0.73652 0.02793 0.32763 0.0
H27 H 0.80189 0.97735 0.21973 0.0
C28 C 0.81328 0.98424 0.25576 0.0
C29 C 0.77372 0.00086 0.37764 0.0
C30 C 0.75507 0.01008 0.3794 0.0
C31 C 0.78794 0.00335 0.32594 0.0
C32 C 0.78358 0.01531 0.27753 0.0
C33 C 0.76524 0.02443 0.27825 0.0
C34 C 0.75112 0.02163 0.32895 0.0
N35 N 0.80662 0.99386 0.32106 0.0
H36 H 0.55637 0.77785 0.27786 0.0
H37 H 0.54905 0.76083 0.05743 0.0
H38 H 0.55241 0.71795 0.18934 0.0
H39 H 0.57261 0.78811 0.06595 0.0
C40 C 0.56318 0.7979 0.09937 0.0
C41 C 0.55479 0.76674 0.23304 0.0
C42 C 0.55469 0.74721 0.24103 0.0
C43 C 0.55341 0.77183 0.16646 0.0
C44 C 0.55091 0.75719 0.10862 0.0
C45 C 0.5507 0.73779 0.11699 0.0
C46 C 0.55278 0.733 0.18291 0.0
N47 N 0.55435 0.79161 0.15832 0.0
H48 H 0.28284 0.51328 0.17426 0.0
H49 H 0.28813 0.47525 0.32539 0.0
H50 H 0.23729 0.46969 0.18962 0.0
H51 H 0.29865 0.50897 0.38433 0.0
C52 C 0.31112 0.50803 0.34839 0.0
C53 C 0.2773 0.5011 0.19697 0.0
C54 C 0.25887 0.49179 0.17414 0.0
C55 C 0.28817 0.49499 0.25129 0.0
C56 C 0.28031 0.47971 0.28244 0.0
C57 C 0.26216 0.47042 0.25973 0.0
C58 C 0.25184 0.47627 0.20487 0.0
N59 N 0.30661 0.5044 0.27623 0.0
H60 H 0.06507 0.25788 0.12419 0.0
H61 H 0.04063 0.26677 0.33012 0.0
H62 H 0.05511 0.20995 0.23254 0.0
H63 H 0.02258 0.29021 0.25993 0.0
C64 C 0.03752 0.29661 0.257 0.0
C65 C 0.06034 0.25226 0.17009 0.0
C66 C 0.06099 0.23242 0.17196 0.0
C67 C 0.05306 0.26477 0.2272 0.0
C68 C 0.04632 0.25728 0.2859 0.0
C69 C 0.04746 0.23758 0.28832 0.0
C70 C 0.05493 0.22533 0.23157 0.0
N71 N 0.05308 0.2849 0.22616 0.0
H72 H 0.28005 0.01527 0.18439 0.0
H73 H 0.26632 0.9749 0.3227 0.0
H74 H 0.32581 0.97901 0.24194 0.0
H75 H 0.23563 0.97456 0.24665 0.0
C76 C 0.23424 0.98955 0.26988 0.0
C77 C 0.28467 0.00405 0.21246 0.0
C78 C 0.30458 0.99763 0.20688 0.0
C79 C 0.27072 0.99581 0.25448 0.0
C80 C 0.27693 0.9812 0.2904 0.0
C81 C 0.29671 0.97495 0.28622 0.0
C82 C 0.31035 0.98337 0.24462 0.0
N83 N 0.25071 0.00251 0.26301 0.0
H84 H 0.51025 0.23909 0.31173 0.0
H85 H 0.52555 0.25535 0.5279 0.0
H86 H 0.51273 0.29863 0.40474 0.0
H87 H 0.5421 0.22711 0.50642 0.0
C88 C 0.53096 0.21766 0.47686 0.0
C89 C 0.51274 0.25002 0.35666 0.0
C90 C 0.51062 0.26956 0.3513 0.0
C91 C 0.51822 0.24462 0.42023 0.0
C92 C 0.52165 0.25908 0.47825 0.0
C93 C 0.51941 0.27853 0.47282 0.0
C94 C 0.51388 0.28353 0.40949 0.0
N95 N 0.51957 0.22468 0.42515 0.0
Tb96 Tb 0.0156 0.01011 0.7424 0.0
Tb97 Tb 0.04456 0.99869 0.86273 0.0
C98 C 0.99799 0.00264 0.88367 0.0
C99 C 0.99406 0.03985 0.62475 0.0
C100 C 0.9965 0.07674 0.58529 0.0
C101 C 0.97979 0.07113 0.62173 0.0
C102 C 0.97855 0.05285 0.64094 0.0
C103 C 1.01046 0.04518 0.58629 0.0
C104 C 1.0116 0.06338 0.56653 0.0
C105 C 0.99375 0.02168 0.65357 0.0
O106 O 0.02286 0.03663 0.81269 0.0
O107 O 0.05217 0.02874 0.86119 0.0
O108 O 0.06186 0.99513 0.76714 0.0
O109 O 0.04604 0.01642 0.71042 0.0
O110 O 0.0522 0.99959 0.96735 0.0
O111 O 0.06945 0.98343 0.8867 0.0
O112 O 0.02703 0.9729 0.82385 0.0
O113 O 0.0198 0.97918 0.7156 0.0
O114 O 0.99571 0.99923 0.81631 0.0
O115 O 0.01584 0.00678 0.91149 0.0
C116 C 0.03976 0.04161 0.84611 0.0
O117 O 1.00866 0.0102 0.63795 0.0
O118 O 0.9893 0.02339 0.71887 0.0
C119 C 0.06169 0.00614 0.71895 0.0
C120 C 0.06257 0.96875 0.98209 0.0
C121 C 0.05759 0.93121 0.01304 0.0
C122 C 0.07664 0.94042 0.01754 0.0
C123 C 0.07911 0.95905 1.00184 0.0
C124 C 0.04343 0.95989 0.98028 0.0
C125 C 0.04096 0.94132 0.99578 0.0
C126 C 0.06558 0.98646 0.95237 0.0
C127 C 0.02172 0.96701 0.75948 0.0
H128 H 0.96796 0.08107 0.63756 0.0
H129 H 0.96577 0.0491 0.67063 0.0
H130 H 0.02267 0.0355 0.57278 0.0
H131 H 0.02446 0.06704 0.53708 0.0
H132 H 0.08975 0.93294 0.03029 0.0
H133 H 0.09403 0.96554 1.00224 0.0
H134 H 0.03048 0.96704 0.96422 0.0
H135 H 0.02605 0.93475 0.99301 0.0
Tb136 Tb 0.51793 0.99053 0.71137 0.0
Tb137 Tb 0.53564 0.02005 0.8431 0.0
C138 C 0.53281 0.97598 0.84308 0.0
C139 C 0.48568 0.95341 0.60895 0.0
C140 C 0.45053 0.92997 0.59287 0.0
C141 C 0.46722 0.92536 0.55012 0.0
C142 C 0.48462 0.93707 0.55793 0.0
C143 C 0.46964 0.95736 0.65455 0.0
C144 C 0.45219 0.94586 0.64635 0.0
C145 C 0.50329 0.96651 0.6139 0.0
O146 O 0.4914 0.00118 0.77033 0.0
O147 O 0.50566 0.01273 0.87636 0.0
O148 O 0.51771 0.03583 0.77972 0.0
O149 O 0.52439 0.01789 0.67621 0.0
O150 O 0.54686 0.02646 0.94462 0.0
O151 O 0.54372 0.04871 0.88189 0.0
O152 O 0.56003 0.01754 0.76846 0.0
O153 O 0.55052 0.98931 0.69918 0.0
O154 O 0.51785 0.97545 0.79959 0.0
O155 O 0.54489 0.99121 0.85503 0.0
C156 C 0.4898 0.00734 0.83727 0.0
O157 O 0.49953 0.98485 0.62353 0.0
O158 O 0.51765 0.96263 0.6541 0.0
C159 C 0.51996 0.03446 0.71285 0.0
C160 C 0.57259 0.05015 0.94826 0.0
C161 C 0.61284 0.06318 0.95349 0.0
C162 C 0.59795 0.07483 0.98757 0.0
C163 C 0.5779 0.06838 0.98454 0.0
C164 C 0.58744 0.03845 0.9149 0.0
C165 C 0.60737 0.0449 0.91742 0.0
C166 C 0.55149 0.04419 0.93774 0.0
C167 C 0.56412 0.00286 0.72073 0.0
H168 H 0.46661 0.91307 0.50921 0.0
H169 H 0.49704 0.93364 0.52306 0.0
H170 H 0.47032 0.96976 0.695 0.0
H171 H 0.43966 0.95013 0.67972 0.0
H172 H 0.6018 0.08895 0.01585 0.0
H173 H 0.56654 0.07771 0.00951 0.0
H174 H 0.58357 0.02439 0.88609 0.0
H175 H 0.61855 0.03543 0.89198 0.0
Tb176 Tb 0.51868 0.49979 0.85725 0.0
Tb177 Tb 0.54464 0.51512 0.73198 0.0
C178 C 0.49854 0.50518 0.71712 0.0
C179 C 0.50054 0.46663 0.97233 0.0
C180 C 0.50158 0.42996 0.01371 0.0
C181 C 0.48775 0.44365 0.043 0.0
C182 C 0.48722 0.46179 0.02237 0.0
C183 C 0.51445 0.45312 0.9432 0.0
C184 C 0.51496 0.43496 0.96356 0.0
C185 C 0.49929 0.48534 0.94809 0.0
O186 O 0.52686 0.47447 0.786 0.0
O187 O 0.55323 0.48532 0.72448 0.0
O188 O 0.56306 0.51997 0.82612 0.0
O189 O 0.55002 0.49621 0.88131 0.0
O190 O 0.54808 0.51912 0.62827 0.0
O191 O 0.56947 0.5314 0.70565 0.0
O192 O 0.52532 0.5379 0.77623 0.0
O193 O 0.52232 0.53099 0.88603 0.0
O194 O 0.49701 0.50821 0.78481 0.0
O195 O 0.51615 0.50307 0.68722 0.0
C196 C 0.54253 0.47144 0.74577 0.0
O197 O 0.51467 0.49718 0.96185 0.0
O198 O 0.49333 0.48439 0.8844 0.0
C199 C 0.56462 0.50842 0.87233 0.0
C200 C 0.56172 0.55004 0.62037 0.0
C201 C 0.55959 0.58671 0.57924 0.0
C202 C 0.56988 0.57173 0.53889 0.0
C203 C 0.57091 0.55358 0.55928 0.0
C204 C 0.55136 0.56488 0.66064 0.0
C205 C 0.55027 0.58299 0.6403 0.0
C206 C 0.56329 0.53106 0.64262 0.0
C207 C 0.52202 0.54329 0.84208 0.0
H208 H 0.47706 0.44022 0.08104 0.0
H209 H 0.47626 0.47196 0.04497 0.0
H210 H 0.52483 0.45659 0.90434 0.0
H211 H 0.52596 0.42491 0.94047 0.0
H212 H 0.57698 0.57397 0.49109 0.0
H213 H 0.57896 0.54233 0.52744 0.0
H214 H 0.54429 0.56253 0.7083 0.0
H215 H 0.54242 0.59419 0.67309 0.0
Tb216 Tb 0.04076 0.52208 0.73361 0.0
Tb217 Tb 0.02521 0.49341 0.83693 0.0
C218 C 0.02277 0.53868 0.87788 0.0
C219 C 0.06805 0.52988 0.5854 0.0
C220 C 0.09583 0.50566 0.50978 0.0
C221 C 0.10204 0.5238 0.54549 0.0
C222 C 0.08825 0.53581 0.58311 0.0
C223 C 0.06162 0.51248 0.54458 0.0
C224 C 0.07539 0.50046 0.50744 0.0
C225 C 0.05513 0.53914 0.64133 0.0
O226 O 0.06759 0.51214 0.78079 0.0
O227 O 0.05421 0.50407 0.8803 0.0
O228 O 0.0457 0.47765 0.76435 0.0
O229 O 0.03805 0.49314 0.67573 0.0
O230 O 1.01353 0.48708 0.9306 0.0
O231 O 0.01913 0.46454 0.84565 0.0
O232 O 1.00147 0.49431 0.76027 0.0
O233 O 1.00824 0.52437 0.73499 0.0
O234 O 0.03544 0.54142 0.82882 0.0
O235 O 0.01463 0.52164 0.88215 0.0
C236 C 0.06977 0.50866 0.84445 0.0
O237 O 0.03664 0.53265 0.64042 0.0
O238 O 0.06292 0.54083 0.70305 0.0
C239 C 0.04466 0.47795 0.69807 0.0
C240 C 0.9901 0.46123 0.90791 0.0
C241 C 0.95103 0.44504 0.90143 0.0
C242 C 0.96685 0.43566 0.92832 0.0
C243 C 0.98631 0.44367 0.93121 0.0
C244 C 0.97439 0.47057 0.88084 0.0
C245 C 0.95504 0.46256 0.87761 0.0
C246 C 1.01064 0.46892 0.90542 0.0
C247 C 0.99574 0.50964 0.73569 0.0
H248 H 0.11775 0.52816 0.54825 0.0
H249 H 0.09362 0.54904 0.61453 0.0
H250 H 0.04616 0.50741 0.54495 0.0
H251 H 0.07016 0.48671 0.47928 0.0
H252 H 0.96418 0.42213 0.94694 0.0
H253 H 0.99838 0.43613 0.95108 0.0
H254 H 0.97712 0.48407 0.862 0.0
H255 H 0.94312 0.47036 0.858 0.0
H256 H 0.22514 0.0243 0.35174 0.0
H257 H 0.1959 0.03065 0.42769 0.0
H258 H 0.17423 0.9722 0.36459 0.0
H259 H 0.20299 0.96599 0.28847 0.0
H260 H 0.14418 0.99705 0.36672 0.0
H261 H 0.18698 0.0129 0.61297 0.0
H262 H 0.19356 0.02793 0.55003 0.0
H263 H 0.19841 0.00264 0.53272 0.0
C264 C 0.21406 0.01289 0.35389 0.0
C265 C 0.21638 0.99463 0.31403 0.0
C266 C 0.19741 0.01646 0.39781 0.0
C267 C 0.18288 0.00182 0.40291 0.0
C268 C 0.18513 0.98376 0.36198 0.0
H269 H 0.09623 0.9858 0.71808 0.0
H270 H 0.1251 0.98631 0.64174 0.0
C271 C 0.20163 0.98022 0.31837 0.0
C272 C 0.16523 0.00494 0.45019 0.0
H273 H 0.15181 0.01492 0.6203 0.0
C274 C 0.14587 0.00111 0.42214 0.0
C275 C 0.16733 0.00997 0.52276 0.0
C276 C 0.18767 0.01345 0.55674 0.0
C277 C 0.12871 0.00189 0.4642 0.0
C278 C 0.13078 0.00704 0.53673 0.0
C279 C 0.15012 0.0111 0.56481 0.0
C280 C 0.11321 0.00734 0.58442 0.0
C281 C 0.10858 0.99641 0.43059 0.0
C282 C 0.09686 0.01918 0.57872 0.0
C283 C 0.08018 0.01884 0.62224 0.0
C284 C 0.0795 0.00677 0.67305 0.0
C285 C 0.09609 0.99523 0.67953 0.0
C286 C 0.11271 0.99555 0.63591 0.0
H287 H 0.11012 0.98817 0.37774 0.0
H288 H 0.0994 0.9876 0.46176 0.0
H289 H 0.10039 0.00967 0.42641 0.0
H290 H 0.09698 0.02874 0.5406 0.0
H291 H 0.06782 0.02806 0.61595 0.0
H292 H 0.5047 0.1886 0.41714 0.0
H293 H 0.50095 0.15597 0.44601 0.0
H294 H 0.5478 0.16919 0.59904 0.0
H295 H 0.55174 0.2016 0.5699 0.0
H296 H 0.55207 0.13371 0.51733 0.0
H297 H 0.47467 0.14146 0.62026 0.0
H298 H 0.47797 0.14643 0.53387 0.0
H299 H 0.49006 0.16181 0.60471 0.0
C300 C 0.5142 0.18451 0.45681 0.0
C301 C 0.52851 0.19766 0.49142 0.0
C302 C 0.51197 0.1659 0.47357 0.0
C303 C 0.52393 0.16018 0.52535 0.0
C304 C 0.53837 0.17325 0.55905 0.0
H305 H 0.51189 0.07099 0.77521 0.0
H306 H 0.51198 0.10032 0.72354 0.0
C307 C 0.5406 0.19178 0.5424 0.0
C308 C 0.52164 0.14062 0.54491 0.0
H309 H 0.48935 0.1113 0.6186 0.0
C310 C 0.5383 0.12874 0.53896 0.0
C311 C 0.50374 0.13423 0.57388 0.0
C312 C 0.48561 0.14666 0.58424 0.0
C313 C 0.53768 0.1108 0.56199 0.0
C314 C 0.51977 0.10437 0.5908 0.0
C315 C 0.50301 0.11615 0.59596 0.0
C316 C 0.51859 0.08613 0.62032 0.0
C317 C 0.55647 0.09925 0.55781 0.0
C318 C 0.52186 0.06824 0.57928 0.0
C319 C 0.52188 0.05135 0.60881 0.0
C320 C 0.5185 0.05201 0.67993 0.0
C321 C 0.51459 0.06989 0.72033 0.0
C322 C 0.51461 0.08672 0.69083 0.0
H323 H 0.57 0.10807 0.54892 0.0
H324 H 0.55873 0.09311 0.60592 0.0
H325 H 0.55505 0.08714 0.51421 0.0
H326 H 0.52459 0.06736 0.52449 0.0
H327 H 0.52484 0.03784 0.57608 0.0
H328 H 0.34774 0.50254 0.28113 0.0
H329 H 0.38094 0.50133 0.33544 0.0
H330 H 0.35396 0.51337 0.53662 0.0
H331 H 0.32107 0.51446 0.48311 0.0
H332 H 0.40296 0.52932 0.43349 0.0
H333 H 0.38383 0.4635 0.54415 0.0
H334 H 0.36913 0.4711 0.47661 0.0
H335 H 0.36604 0.48216 0.56497 0.0
C336 C 0.34896 0.50503 0.33688 0.0
C337 C 0.33176 0.50851 0.37789 0.0
C338 C 0.36792 0.50432 0.3679 0.0
C339 C 0.36995 0.5069 0.44029 0.0
C340 C 0.35282 0.51093 0.48083 0.0
H341 H 0.45949 0.50917 0.75982 0.0
H342 H 0.4294 0.50942 0.68885 0.0
C343 C 0.33401 0.51166 0.45008 0.0
C344 C 0.38974 0.50532 0.47442 0.0
H345 H 0.41319 0.48125 0.58886 0.0
C346 C 0.40531 0.51867 0.46677 0.0
C347 C 0.39286 0.49144 0.51805 0.0
C348 C 0.37716 0.47611 0.52606 0.0
C349 C 0.42351 0.519 0.50368 0.0
C350 C 0.42642 0.50539 0.54866 0.0
C351 C 0.41101 0.49177 0.55488 0.0
C352 C 0.44503 0.50533 0.5913 0.0
C353 C 0.43915 0.53442 0.49627 0.0
C354 C 0.46396 0.50268 0.56045 0.0
C355 C 0.48128 0.50253 0.60106 0.0
C356 C 0.4801 0.50491 0.67362 0.0
C357 C 0.46107 0.50732 0.70426 0.0
C358 C 0.44379 0.50746 0.66363 0.0
H359 H 0.43277 0.54648 0.47383 0.0
H360 H 0.44609 0.5403 0.54697 0.0
H361 H 0.45114 0.52812 0.46138 0.0
H362 H 0.46536 0.50056 0.50481 0.0
H363 H 0.4956 0.50055 0.57544 0.0
H364 H 0.07389 0.31554 0.28839 0.0
H365 H 0.07949 0.34716 0.35996 0.0
H366 H 0.0156 0.35421 0.37591 0.0
H367 H 1.00995 0.32246 0.30638 0.0
H368 H 0.06882 0.38436 0.35096 0.0
H369 H 0.03269 0.35963 0.57633 0.0
H370 H 0.03924 0.34324 0.49987 0.0
H371 H 0.01644 0.35642 0.50235 0.0
C372 C 0.06106 0.32393 0.30664 0.0
C373 C 0.04145 0.31653 0.29247 0.0
C374 C 0.06428 0.34198 0.3475 0.0
C375 C 0.04796 0.35285 0.37457 0.0
C376 C 0.02842 0.34587 0.35709 0.0
H377 H 0.03801 0.47124 0.55866 0.0
H378 H 0.0423 0.44122 0.47958 0.0
C379 C 0.0252 0.3278 0.31701 0.0
C380 C 0.05116 0.37109 0.42336 0.0
H381 H 0.03784 0.39356 0.58314 0.0
C382 C 0.06222 0.38636 0.402 0.0
C383 C 0.04301 0.37353 0.49064 0.0
C384 C 0.03238 0.35727 0.51898 0.0
C385 C 0.06456 0.40428 0.44513 0.0
C386 C 0.0552 0.40707 0.51056 0.0
C387 C 0.04486 0.39154 0.53276 0.0
C388 C 0.0551 0.42606 0.55622 0.0
C389 C 0.07714 0.41995 0.42035 0.0
C390 C 0.06077 0.42761 0.62588 0.0
C391 C 0.05798 0.44468 0.67158 0.0
C392 C 0.0495 0.46058 0.64848 0.0
C393 C 0.04463 0.45929 0.57813 0.0
C394 C 0.04725 0.44215 0.53258 0.0
H395 H 0.08853 0.41383 0.38246 0.0
H396 H 0.06732 0.42905 0.3942 0.0
H397 H 0.08492 0.42926 0.46392 0.0
H398 H 0.06683 0.41539 0.64539 0.0
H399 H 0.06203 0.44523 0.72534 0.0
H400 H 0.84707 0.00334 0.32008 0.0
H401 H 0.87994 0.00814 0.26664 0.0
H402 H 0.85833 0.97568 0.07465 0.0
H403 H 0.82584 0.97077 0.12736 0.0
H404 H 0.90718 0.97773 0.1896 0.0
H405 H 0.87902 0.02942 0.0285 0.0
H406 H 0.86632 0.02455 0.10543 0.0
H407 H 0.86395 0.00776 0.02655 0.0
C408 C 0.84943 0.99714 0.26668 0.0
C409 C 0.83383 0.98669 0.22788 0.0
C410 C 0.86819 0.99989 0.23616 0.0
C411 C 0.87156 0.99245 0.16628 0.0
C412 C 0.85608 0.98175 0.12828 0.0
H413 H 0.95952 0.99117 0.84436 0.0
H414 H 0.93014 0.98929 0.91726 0.0
C415 C 0.83752 0.97889 0.15866 0.0
C416 C 0.891 0.99585 0.13175 0.0
H417 H 0.91102 0.01667 1.00009 0.0
C418 C 0.90815 0.98645 0.1488 0.0
C419 C 0.89223 0.0071 0.07812 0.0
C420 C 0.87447 0.01794 0.05868 0.0
C421 C 0.92621 0.98737 0.11183 0.0
C422 C 0.92735 0.99838 0.05719 0.0
C423 C 0.91028 0.00817 0.04159 0.0
C424 C 0.9457 0.99934 0.01357 0.0
C425 C 0.94359 0.97579 0.12966 0.0
C426 C 0.96443 0.00577 0.0428 0.0
C427 C 0.98142 0.00673 1.00099 0.0
C428 C 0.98006 0.00153 0.92874 0.0
C429 C 0.96125 0.9953 0.89965 0.0
C430 C 0.94434 0.99423 0.94144 0.0
H431 H 0.93867 0.96426 0.15909 0.0
H432 H 0.95144 0.96909 0.08242 0.0
H433 H 0.95445 0.98545 0.16228 0.0
H434 H 0.9659 0.01029 0.09797 0.0
H435 H 0.99558 0.01173 0.02534 0.0
H436 H 0.53751 0.82606 0.15789 0.0
H437 H 0.53221 0.85734 0.12092 0.0
H438 H 0.57792 0.84515 0.9662 0.0
H439 H 0.58285 0.81384 1.00158 0.0
H440 H 0.55686 0.88911 0.11302 0.0
H441 H 0.53075 0.85652 0.85153 0.0
H442 H 0.53365 0.84256 0.92025 0.0
H443 H 0.55508 0.84868 0.87158 0.0
C444 C 0.54645 0.83012 0.11619 0.0
C445 C 0.56049 0.81746 0.08217 0.0
C446 C 0.54343 0.84799 0.09512 0.0
C447 C 0.55437 0.85346 0.03976 0.0
C448 C 0.56892 0.84109 0.00777 0.0
H449 H 0.56563 0.96774 0.91722 0.0
H450 H 0.57079 0.93869 0.96872 0.0
C451 C 0.57181 0.82324 0.02834 0.0
C452 C 0.55044 0.87187 0.01426 0.0
H453 H 0.53823 0.89017 0.86899 0.0
C454 C 0.55267 0.88936 0.05977 0.0
C455 C 0.54468 0.87223 0.945 0.0
C456 C 0.54069 0.85399 0.89444 0.0
C457 C 0.54971 0.90716 0.03754 0.0
C458 C 0.54478 0.90752 0.96751 0.0
C459 C 0.54222 0.88999 0.92247 0.0
C460 C 0.54156 0.92575 0.93971 0.0
C461 C 0.5515 0.92535 0.08965 0.0
C462 C 0.52361 0.92811 0.90508 0.0
C463 C 0.52078 0.9445 0.87471 0.0
C464 C 0.53581 0.95906 0.87833 0.0
C465 C 0.55369 0.95688 0.91391 0.0
C466 C 0.5566 0.94032 0.94382 0.0
H467 H 0.54957 0.92237 0.14323 0.0
H468 H 0.56664 0.93203 0.08605 0.0
H469 H 0.54022 0.93589 0.07973 0.0
H470 H 0.51177 0.91713 0.90101 0.0
H471 H 0.50677 0.94569 0.84802 0.0
H472 H 0.73607 0.54279 0.16702 0.0
H473 H 0.70387 0.53891 0.10656 0.0
H474 H 0.68334 0.49937 0.24013 0.0
H475 H 0.71564 0.5036 0.30209 0.0
H476 H 0.68757 0.50665 0.033 0.0
H477 H 0.63575 0.53402 0.24497 0.0
H478 H 0.66256 0.5378 0.25255 0.0
H479 H 0.65128 0.51489 0.26219 0.0
C480 C 0.72459 0.53348 0.1843 0.0
C481 C 0.72838 0.52364 0.23971 0.0
C482 C 0.70617 0.53121 0.14942 0.0
C483 C 0.69095 0.51898 0.1688 0.0
C484 C 0.69459 0.50922 0.22485 0.0
H485 H 0.57258 0.48808 0.97755 0.0
H486 H 0.60285 0.48977 0.04915 0.0
C487 C 0.71311 0.51159 0.26021 0.0
C488 C 0.67186 0.51597 0.12768 0.0
H489 H 0.62099 0.52109 0.13729 0.0
C490 C 0.67303 0.50982 0.05601 0.0
C491 C 0.65276 0.51995 0.1573 0.0
C492 C 0.65042 0.52719 0.23335 0.0
C493 C 0.65586 0.50769 0.01343 0.0
C494 C 0.63684 0.5121 0.04274 0.0
C495 C 0.63554 0.51779 0.1146 0.0
C496 C 0.61826 0.51123 0.99939 0.0
C497 C 0.65824 0.50052 0.93731 0.0
C498 C 0.6166 0.5229 0.94785 0.0
C499 C 0.59927 0.52199 0.90674 0.0
C500 C 0.58308 0.50943 0.9162 0.0
C501 C 0.58471 0.49789 0.96839 0.0
C502 C 0.60203 0.49886 0.00964 0.0
H503 H 0.67246 0.49282 0.92627 0.0
H504 H 0.64555 0.49069 0.91705 0.0
H505 H 0.6585 0.51297 0.90899 0.0
H506 H 0.62871 0.53284 0.9396 0.0
H507 H 0.5986 0.53118 0.8675 0.0
H508 H 0.96542 0.6999 0.1642 0.0
H509 H 0.97091 0.6668 0.10977 0.0
H510 H 1.00084 0.65582 0.29392 0.0
H511 H 0.99574 0.6892 0.34821 0.0
H512 H 0.0225 0.64422 0.18095 0.0
H513 H 0.94489 0.61604 0.13307 0.0
H514 H 0.94885 0.63801 0.09904 0.0
H515 H 0.95073 0.63815 0.19073 0.0
C516 C 0.97287 0.69032 0.19349 0.0
C517 C 0.98012 0.69708 0.26033 0.0
C518 C 0.97588 0.67136 0.16253 0.0
C519 C 0.98597 0.65868 0.19814 0.0
C520 C 0.99287 0.6653 0.26567 0.0
H521 H 0.99897 0.53914 0.99225 0.0
H522 H 0.99042 0.56706 0.07736 0.0
C523 C 0.98993 0.68436 0.29665 0.0
C524 C 0.99084 0.63918 0.16218 0.0
H525 H 0.97039 0.59933 0.0613 0.0
C526 C 1.01106 0.63427 0.15577 0.0
C527 C 0.97594 0.62601 0.13018 0.0
C528 C 0.95388 0.62974 0.13924 0.0
C529 C 0.01685 0.61707 0.11518 0.0
C530 C 1.00206 0.60465 0.07873 0.0
C531 C 0.98176 0.60901 0.08827 0.0
C532 C 1.00741 0.58763 0.02789 0.0
C533 C 0.0388 0.61247 0.11133 0.0
C534 C 0.01951 0.58997 0.9712 0.0
C535 C 0.02448 0.57409 0.92267 0.0
C536 C 0.01725 0.5555 0.92929 0.0
C537 C 1.00484 0.55323 0.98558 0.0
C538 C 0.99993 0.56916 0.03433 0.0
H539 H 0.04706 0.61969 0.15793 0.0
H540 H 0.04099 0.59672 0.1059 0.0
H541 H 0.0455 0.61775 0.06584 0.0
H542 H 0.025 0.60414 0.96411 0.0
H543 H 0.03392 0.57645 0.87977 0.0
H544 H 1.00909 0.23661 0.33398 0.0
H545 H 0.99522 0.21481 0.40936 0.0
H546 H 0.05484 0.19661 0.44687 0.0
H547 H 0.06861 0.21816 0.37128 0.0
H548 H 1.0027 0.17478 0.36762 0.0
H549 H 0.02717 0.19965 0.6377 0.0
H550 H 0.0253 0.21572 0.57476 0.0
H551 H 0.04662 0.2007 0.57505 0.0
C552 C 0.01922 0.22853 0.36078 0.0
C553 C 0.03986 0.22903 0.34746 0.0
C554 C 1.01132 0.21606 0.40346 0.0
C555 C 0.02404 0.20425 0.4341 0.0
C556 C 0.04481 0.20588 0.42487 0.0
H557 H 0.03051 0.09953 0.58904 0.0
H558 H 0.0342 0.13147 0.55666 0.0
C559 C 0.05267 0.21812 0.38163 0.0
C560 C 0.01573 0.18785 0.46471 0.0
H561 H 0.01841 0.16601 0.60752 0.0
C562 C 1.00568 0.17299 0.42055 0.0
C563 C 0.0199 0.18555 0.53341 0.0
C564 C 0.03019 0.20133 0.58326 0.0
C565 C 1.00079 0.15535 0.4419 0.0
C566 C 1.00557 0.15276 0.51007 0.0
C567 C 0.01477 0.16801 0.55529 0.0
C568 C 1.00276 0.13384 0.53332 0.0
C569 C 0.99178 0.13927 0.38978 0.0
C570 C 0.9838 0.12464 0.53192 0.0
C571 C 0.9817 0.10612 0.54884 0.0
C572 C 0.9985 0.09658 0.5685 0.0
C573 C 0.01734 0.1062 0.57235 0.0
C574 C 0.01944 0.12459 0.55476 0.0
H575 H 0.99346 0.1422 0.33604 0.0
H576 H 0.99887 0.12539 0.39347 0.0
H577 H 0.97554 0.13768 0.40008 0.0
H578 H 0.97066 0.13167 0.51688 0.0
H579 H 0.96698 0.09917 0.54517 0.0
H580 H 0.28526 0.96997 0.41744 0.0
H581 H 0.30072 0.94953 0.49084 0.0
H582 H 0.34032 0.92773 0.32484 0.0
H583 H 0.32364 0.9465 0.24913 0.0
H584 H 0.33329 0.90098 0.40339 0.0
H585 H 0.35254 0.9706 0.5727 0.0
H586 H 0.32643 0.96397 0.56467 0.0
H587 H 0.34 0.96983 0.49115 0.0
C588 C 0.29676 0.96033 0.39561 0.0
C589 C 0.30363 0.96039 0.32776 0.0
C590 C 0.30578 0.94882 0.43813 0.0
C591 C 0.32223 0.9377 0.41432 0.0
C592 C 0.32785 0.93641 0.34488 0.0
H593 H 0.4346 0.91695 0.46505 0.0
H594 H 0.39953 0.9103 0.43716 0.0
C595 C 0.31851 0.94746 0.30187 0.0
C596 C 0.33552 0.92956 0.46232 0.0
H597 H 0.37048 0.94409 0.58796 0.0
C598 C 0.3411 0.91028 0.44497 0.0
C599 C 0.34562 0.94163 0.51722 0.0
C600 C 0.341 0.96267 0.53749 0.0
C601 C 0.35772 0.90334 0.47624 0.0
C602 C 0.36884 0.91596 0.52633 0.0
C603 C 0.36187 0.93446 0.5494 0.0
C604 C 0.38986 0.91244 0.54328 0.0
C605 C 0.36402 0.88299 0.4523 0.0
C606 C 0.39629 0.91491 0.61226 0.0
C607 C 0.41657 0.91858 0.62859 0.0
C608 C 0.43063 0.92026 0.5762 0.0
C609 C 0.42435 0.91568 0.50694 0.0
C610 C 0.40417 0.91177 0.49071 0.0
H611 H 0.35086 0.87342 0.43515 0.0
H612 H 0.37423 0.88278 0.40758 0.0
H613 H 0.37205 0.8772 0.49379 0.0
H614 H 0.38547 0.91556 0.6536 0.0
H615 H 0.42097 0.92151 0.68245 0.0
H616 H 0.49471 0.30704 0.52494 0.0
H617 H 0.50462 0.33777 0.59431 0.0
H618 H 0.56378 0.3167 0.62001 0.0
H619 H 0.55395 0.28589 0.54859 0.0
H620 H 0.52043 0.35146 0.7222 0.0
H621 H 0.57451 0.36126 0.51374 0.0
H622 H 0.55618 0.34171 0.50471 0.0
H623 H 0.5782 0.34091 0.55674 0.0
C624 C 0.50966 0.30879 0.54709 0.0
C625 C 0.52365 0.29425 0.53095 0.0
C626 C 0.51532 0.32634 0.58665 0.0
C627 C 0.53509 0.3297 0.61079 0.0
C628 C 0.54857 0.31453 0.60052 0.0
H629 H 0.55574 0.44779 0.83026 0.0
H630 H 0.55834 0.41274 0.80345 0.0
C631 C 0.54289 0.29688 0.56059 0.0
C632 C 0.54172 0.34966 0.63944 0.0
H633 H 0.5696 0.38781 0.59948 0.0
C634 C 0.53143 0.35938 0.69624 0.0
C635 C 0.55587 0.35998 0.60459 0.0
C636 C 0.56676 0.35055 0.54125 0.0
C637 C 0.53419 0.37929 0.71731 0.0
C638 C 0.54808 0.38969 0.68162 0.0
C639 C 0.55903 0.3798 0.62681 0.0
C640 C 0.54999 0.41102 0.69595 0.0
C641 C 0.52126 0.38912 0.7748 0.0
C642 C 0.54592 0.42184 0.64332 0.0
C643 C 0.54503 0.44191 0.65821 0.0
C644 C 0.54809 0.45134 0.72593 0.0
C645 C 0.55332 0.44069 0.77762 0.0
C646 C 0.55458 0.42069 0.76253 0.0
H647 H 0.50821 0.37987 0.78529 0.0
H648 H 0.53029 0.39241 0.82291 0.0
H649 H 0.51558 0.40284 0.76227 0.0
H650 H 0.54242 0.4147 0.59146 0.0
H651 H 0.54072 0.44991 0.61793 0.0
H652 H 0.25327 0.4781 0.39516 0.0
H653 H 0.22413 0.46514 0.44682 0.0
H654 H 0.21715 0.42062 0.26902 0.0
H655 H 0.24599 0.43443 0.21543 0.0
H656 H 0.18774 0.44167 0.27258 0.0
H657 H 0.19375 0.42811 0.53761 0.0
H658 H 0.20811 0.44982 0.53569 0.0
H659 H 0.2156 0.42769 0.48314 0.0
C660 C 0.24625 0.46489 0.3688 0.0
C661 C 0.25154 0.45749 0.30086 0.0
C662 C 0.22952 0.4573 0.39873 0.0
C663 C 0.21812 0.44195 0.36162 0.0
C664 C 0.22554 0.43257 0.29845 0.0
H665 H 0.09722 0.46757 0.52218 0.0
H666 H 0.12354 0.44499 0.48073 0.0
C667 C 0.24204 0.44043 0.26783 0.0
C668 C 0.19647 0.44021 0.37785 0.0
H669 H 0.16542 0.45016 0.51603 0.0
C670 C 0.18276 0.44264 0.32558 0.0
C671 C 0.18948 0.44107 0.44631 0.0
C672 C 0.20259 0.43629 0.50343 0.0
C673 C 0.16334 0.44877 0.34157 0.0
C674 C 0.15762 0.45282 0.41138 0.0
C675 C 0.17012 0.44764 0.46253 0.0
C676 C 0.14083 0.46561 0.4326 0.0
C677 C 0.1497 0.45246 0.28404 0.0
C678 C 0.14196 0.48462 0.41923 0.0
C679 C 0.12708 0.49751 0.44271 0.0
C680 C 0.11078 0.4916 0.48006 0.0
C681 C 0.10949 0.47243 0.49255 0.0
C682 C 0.12452 0.45955 0.46938 0.0
H683 H 0.15297 0.44271 0.23526 0.0
H684 H 0.13369 0.45047 0.29739 0.0
H685 H 0.15222 0.46748 0.27472 0.0
H686 H 0.15465 0.48964 0.39191 0.0
H687 H 0.12842 0.51215 0.43228 0.0
H688 H 0.99739 0.7705 0.18707 0.0
H689 H 1.0071 0.79103 0.10209 0.0
H690 H 0.05925 0.81156 0.22502 0.0
H691 H 0.05002 0.79066 0.30828 0.0
H692 H 1.00728 0.82888 0.13968 0.0
H693 H 0.08195 0.80974 0.03554 0.0
H694 H 0.06668 0.79347 0.07754 0.0
H695 H 0.08225 0.81191 0.12773 0.0
C696 C 1.01137 0.77878 0.19429 0.0
C697 C 0.02285 0.77918 0.25455 0.0
C698 C 0.01686 0.79056 0.14591 0.0
C699 C 0.03396 0.80277 0.15692 0.0
C700 C 0.04624 0.802 0.21444 0.0
H701 H 0.07471 0.91405 0.11355 0.0
H702 H 0.06908 0.88097 0.13481 0.0
C703 C 0.04081 0.79022 0.26253 0.0
C704 C 0.03705 0.81872 0.11665 0.0
H705 H 0.07349 0.8436 0.04275 0.0
C706 C 0.02158 0.83183 0.1167 0.0
C707 C 0.05573 0.82261 0.08699 0.0
C708 C 0.0725 0.80854 0.08133 0.0
C709 C 0.02472 0.84934 0.09239 0.0
C710 C 0.04378 0.85373 0.06673 0.0
C711 C 0.05894 0.84021 0.06308 0.0
C712 C 0.0486 0.87294 0.04893 0.0
C713 C 1.00801 0.86352 0.09823 0.0
C714 C 0.03921 0.87917 0.99286 0.0
C715 C 0.04238 0.89802 0.98063 0.0
C716 C 0.05503 0.91094 0.02425 0.0
C717 C 0.06496 0.90442 0.07894 0.0
C718 C 0.06176 0.88556 0.09112 0.0
H719 H 0.99522 0.85908 0.12891 0.0
H720 H 1.01359 0.87802 0.1226 0.0
H721 H 1.0024 0.86467 0.04585 0.0
H722 H 0.02919 0.86953 0.95928 0.0
H723 H 0.03487 0.90251 0.93712 0.0
H724 H 0.77416 0.01688 0.14023 0.0
H725 H 0.76078 0.03258 0.04851 0.0
H726 H 0.73015 0.07251 0.20035 0.0
H727 H 0.74463 0.05786 0.29218 0.0
H728 H 0.72362 0.02964 0.02431 0.0
H729 H 0.74069 0.10707 0.06398 0.0
H730 H 0.75531 0.09082 0.10505 0.0
H731 H 0.73296 0.10118 0.14552 0.0
C732 C 0.76531 0.02955 0.15434 0.0
C733 C 0.76016 0.03591 0.2236 0.0
C734 C 0.75763 0.0385 0.10168 0.0
C735 C 0.74453 0.05384 0.11721 0.0
C736 C 0.7406 0.06105 0.18667 0.0
H737 H 0.63308 0.0793 0.06963 0.0
H738 H 0.66932 0.08162 0.08527 0.0
C739 C 0.74852 0.05233 0.23931 0.0
C740 C 0.73146 0.05932 0.0628 0.0
H741 H 0.70514 0.0975 0.02794 0.0
C742 C 0.72013 0.04452 0.02276 0.0
C743 C 0.72701 0.0787 0.05978 0.0
C744 C 0.73987 0.09528 0.09547 0.0
C745 C 0.70285 0.04845 0.98773 0.0
C746 C 0.69693 0.06776 0.9924 0.0
C747 C 0.70957 0.0827 0.02534 0.0
C748 C 0.67599 0.07201 0.97757 0.0
C749 C 0.68993 0.03175 0.95257 0.0
C750 C 0.66781 0.06694 0.91114 0.0
C751 C 0.64704 0.06542 0.90219 0.0
C752 C 0.63426 0.06918 0.9595 0.0
C753 C 0.64254 0.07632 0.02459 0.0
C754 C 0.66327 0.0777 0.03354 0.0
H755 H 0.69598 0.01759 0.95884 0.0
H756 H 0.6745 0.03259 0.97377 0.0
H757 H 0.68897 0.03237 0.89652 0.0
H758 H 0.67744 0.06277 0.86721 0.0
H759 H 0.64098 0.06025 0.85117 0.0
H760 H 0.5171 0.72939 0.03814 0.0
H761 H 0.50819 0.69782 0.97032 0.0
H762 H 0.56764 0.67843 0.00304 0.0
H763 H 0.57653 0.70987 0.07005 0.0
H764 H 0.55083 0.6634 0.87099 0.0
H765 H 0.50024 0.6546 0.0901 0.0
H766 H 0.49583 0.67474 0.04663 0.0
H767 H 0.51861 0.67406 0.09474 0.0
C768 C 0.52845 0.71861 0.02812 0.0
C769 C 0.54747 0.72192 0.05894 0.0
C770 C 0.52331 0.70056 0.99021 0.0
C771 C 0.53715 0.68572 0.98303 0.0
C772 C 0.55673 0.68968 0.00821 0.0
H773 H 0.52998 0.56396 0.97006 0.0
H774 H 0.53121 0.59914 1.00093 0.0
C775 C 0.56184 0.70763 0.04615 0.0
C776 C 0.53084 0.66551 0.95757 0.0
H777 H 0.50383 0.6277 0.00415 0.0
C778 C 0.54034 0.65561 0.89936 0.0
C779 C 0.51744 0.65537 0.99575 0.0
C780 C 0.50751 0.66512 0.0606 0.0
C781 C 0.53712 0.63572 0.87897 0.0
C782 C 0.52377 0.62556 0.9174 0.0
C783 C 0.51396 0.63556 0.97473 0.0
C784 C 0.52074 0.60438 0.90126 0.0
C785 C 0.5487 0.62568 0.81828 0.0
C786 C 0.5136 0.59572 0.83624 0.0
C787 C 0.513 0.57573 0.81853 0.0
C788 C 0.51925 0.564 0.86587 0.0
C789 C 0.52503 0.57263 0.93268 0.0
C790 C 0.52581 0.59271 0.95018 0.0
H791 H 0.56188 0.63449 0.80593 0.0
H792 H 0.554 0.61156 0.82827 0.0
H793 H 0.53879 0.6231 0.77213 0.0
H794 H 0.50908 0.60443 0.79841 0.0
H795 H 0.50821 0.56946 0.76687 0.0
H796 H 0.78814 0.48843 0.13147 0.0
H797 H 0.80255 0.47087 0.02709 0.0
H798 H 0.83404 0.43538 0.14955 0.0
H799 H 0.8183 0.45166 0.25319 0.0
H800 H 0.83936 0.47475 0.00751 0.0
H801 H 0.82608 0.39689 0.98257 0.0
H802 H 0.81067 0.41359 0.03735 0.0
H803 H 0.83357 0.40519 0.06998 0.0
C804 C 0.79736 0.47629 0.13606 0.0
C805 C 0.80235 0.47172 0.20117 0.0
C806 C 0.80567 0.46628 0.07607 0.0
C807 C 0.81936 0.45171 0.07999 0.0
C808 C 0.82318 0.44621 0.14441 0.0
H809 H 0.93269 0.43092 0.00746 0.0
H810 H 0.89676 0.42688 0.02373 0.0
C811 C 0.81454 0.45592 0.20419 0.0
C812 C 0.83294 0.44542 0.02141 0.0
H813 H 0.86101 0.40725 0.95401 0.0
C814 C 0.84353 0.45987 0.99349 0.0
C815 C 0.83834 0.42601 1.00224 0.0
C816 C 0.82633 0.40959 0.02423 0.0
C817 C 0.86086 0.4558 0.9545 0.0
C818 C 0.86766 0.43671 0.9427 0.0
C819 C 0.85588 0.42191 0.96392 0.0
C820 C 0.88866 0.43298 0.92277 0.0
C821 C 0.87288 0.47232 0.93267 0.0
C822 C 0.89599 0.43658 0.85899 0.0
C823 C 0.9166 0.43903 0.84968 0.0
C824 C 0.93006 0.43775 0.90392 0.0
C825 C 0.92273 0.43199 0.96473 0.0
C826 C 0.90217 0.42963 0.97404 0.0
H827 H 0.86622 0.4865 0.95105 0.0
H828 H 0.88844 0.47264 0.95296 0.0
H829 H 0.87364 0.47037 0.87552 0.0
H830 H 0.88576 0.43898 0.81855 0.0
H831 H 0.92191 0.44307 0.80168 0.0
H832 H 0.03828 0.22168 0.05726 0.0
H833 H 0.0394 0.19032 0.98242 0.0
H834 H 0.09502 0.17894 0.07819 0.0
H835 H 0.09359 0.21005 0.15424 0.0
H836 H 0.06643 0.16699 0.89123 0.0
H837 H 0.05368 0.14055 0.14046 0.0
H838 H 0.05195 0.16558 0.13193 0.0
H839 H 0.07605 0.15517 0.13773 0.0
C840 C 0.05122 0.21286 0.05982 0.0
C841 C 0.06589 0.2182 0.11108 0.0
C842 C 0.05178 0.1949 0.01746 0.0
C843 C 0.06706 0.18216 0.02596 0.0
C844 C 0.08295 0.18847 0.07161 0.0
H845 H 0.07239 0.05774 0.92074 0.0
H846 H 0.08039 0.09193 0.95755 0.0
C847 C 0.08227 0.2063 0.11443 0.0
C848 C 0.06468 0.16151 0.99591 0.0
H849 H 0.05647 0.11711 0.04157 0.0
C850 C 0.06435 0.15605 0.92394 0.0
C851 C 0.06167 0.1473 0.03884 0.0
C852 C 0.06066 0.15239 0.11649 0.0
C853 C 0.06141 0.13665 0.89377 0.0
C854 C 0.05847 0.12248 0.93685 0.0
C855 C 0.05888 0.12798 0.0087 0.0
C856 C 0.05439 0.10187 0.90915 0.0
C857 C 0.06167 0.13145 0.8162 0.0
C858 C 0.03705 0.09609 0.87 0.0
C859 C 0.03237 0.07653 0.84906 0.0
C860 C 0.0449 0.06236 0.86726 0.0
C861 C 0.06237 0.06823 0.9059 0.0
C862 C 0.06701 0.08778 0.92684 0.0
H863 H 0.06932 0.14284 0.79169 0.0
H864 H 0.06927 0.11764 0.80002 0.0
H865 H 0.04602 0.12973 0.79656 0.0
H866 H 0.02685 0.10669 0.85708 0.0
H867 H 0.01881 0.07256 0.81925 0.0
H868 H 0.30709 0.99087 0.0659 0.0
H869 H 0.33733 0.99475 0.99708 0.0
H870 H 0.36794 0.0236 0.17962 0.0
H871 H 0.33795 0.01943 0.24827 0.0
H872 H 0.36348 0.02554 0.97104 0.0
H873 H 0.40214 0.97664 0.11989 0.0
H874 H 0.37542 0.97978 0.1242 0.0
H875 H 0.39218 0.99736 0.1727 0.0
C876 C 0.32005 0.99866 0.09067 0.0
C877 C 0.32007 0.00507 0.16231 0.0
C878 C 0.33741 1.00071 0.05147 0.0
C879 C 0.35516 0.00908 0.08329 0.0
C880 C 0.35465 0.01674 0.15393 0.0
H881 H 0.48044 0.02047 0.97246 0.0
H882 H 0.44764 0.02124 0.02756 0.0
C883 C 0.33739 0.01461 0.19303 0.0
C884 C 0.37451 0.00861 0.04435 0.0
H885 H 0.42218 0.99184 0.04359 0.0
C886 C 0.37629 0.01811 0.98668 0.0
C887 C 0.39128 0.9988 0.06424 0.0
C888 C 0.39018 0.9874 0.12319 0.0
C889 C 0.39448 0.01859 0.95005 0.0
C890 C 0.41133 0.009 0.97064 0.0
C891 C 0.40941 0.9993 0.02773 0.0
C892 C 0.43124 0.00908 0.93503 0.0
C893 C 0.39562 0.02989 0.89092 0.0
C894 C 0.43322 0.00188 0.86429 0.0
C895 C 0.4521 0.00148 0.83227 0.0
C896 C 0.46954 0.00811 0.87032 0.0
C897 C 0.46747 0.01525 0.94115 0.0
C898 C 0.44863 0.01569 0.97296 0.0
H899 H 0.38353 0.04051 0.89354 0.0
H900 H 0.41032 0.03766 0.89036 0.0
H901 H 0.39388 0.01984 0.84153 0.0
H902 H 0.42021 0.99624 0.8339 0.0
H903 H 0.45301 0.99578 0.77783 0.0
H904 H 0.53531 0.26978 0.24122 0.0
H905 H 0.53353 0.29244 0.15838 0.0
H906 H 0.47533 0.30959 0.23658 0.0
H907 H 0.47703 0.28686 0.3185 0.0
H908 H 0.48012 0.31103 0.09248 0.0
H909 H 0.54209 0.34874 0.25475 0.0
H910 H 0.54689 0.32459 0.21405 0.0
H911 H 0.52794 0.32872 0.27928 0.0
C912 C 0.52172 0.27765 0.23802 0.0
C913 C 0.50624 0.27651 0.28574 0.0
C914 C 0.52082 0.2908 0.19146 0.0
C915 C 0.50449 0.30302 0.19244 0.0
C916 C 0.4881 0.30037 0.23499 0.0
H917 H 0.49762 0.42128 0.14438 0.0
H918 H 0.49835 0.38967 0.18061 0.0
C919 C 0.48899 0.28726 0.28142 0.0
C920 C 0.50558 0.32034 0.15775 0.0
H921 H 0.52947 0.36429 0.16743 0.0
C922 C 0.49106 0.32259 0.10808 0.0
C923 C 0.51962 0.33559 0.17935 0.0
C924 C 0.53494 0.33447 0.23515 0.0
C925 C 0.49007 0.33976 0.07997 0.0
C926 C 0.5041 0.35499 0.10172 0.0
C927 C 0.5188 0.35258 0.15054 0.0
C928 C 0.50312 0.37401 0.07807 0.0
C929 C 0.47353 0.34176 0.02942 0.0
C930 C 0.50567 0.37579 0.00832 0.0
C931 C 0.50513 0.3939 0.9873 0.0
C932 C 0.5021 0.41062 0.03568 0.0
C933 C 0.49966 0.40873 0.10553 0.0
C934 C 0.50021 0.39066 0.12643 0.0
H935 H 0.46153 0.3305 0.02938 0.0
H936 H 0.46675 0.35612 0.04155 0.0
H937 H 0.47984 0.34037 0.97663 0.0
H938 H 0.50828 0.36321 0.97019 0.0
H939 H 0.50689 0.39477 0.93304 0.0
H940 H 0.24779 0.47354 0.04654 0.0
H941 H 0.21768 0.47923 0.98218 0.0
H942 H 0.20653 0.52983 0.13073 0.0
H943 H 0.237 0.52435 0.19397 0.0
H944 H 0.18104 0.47732 0.03239 0.0
H945 H 0.1919 0.54925 0.95568 0.0
H946 H 0.21236 0.53627 0.98468 0.0
H947 H 0.19586 0.54946 0.04624 0.0
C948 C 0.23943 0.4864 0.06345 0.0
C949 C 0.24507 0.49878 0.12431 0.0
C950 C 0.22203 0.48951 0.02718 0.0
C951 C 0.20969 0.50503 0.05102 0.0
C952 C 0.21589 0.51801 0.10993 0.0
H953 H 0.08034 0.50266 0.97468 0.0
H954 H 0.11394 0.50234 0.02398 0.0
C955 C 0.23344 0.51495 0.14599 0.0
C956 C 0.18943 0.50625 0.01883 0.0
H957 H 0.15848 0.53593 0.94773 0.0
C958 C 0.17622 0.49013 0.01353 0.0
C959 C 0.18296 0.52287 0.99369 0.0
C960 C 0.19657 0.54038 0.99466 0.0
C961 C 0.15688 0.49021 0.98481 0.0
C962 C 0.15016 0.50703 0.9617 0.0
C963 C 0.16344 0.52308 0.96595 0.0
C964 C 0.12952 0.5081 0.93243 0.0
C965 C 0.14395 0.47207 0.97839 0.0
C966 C 0.12682 0.51208 0.86507 0.0
C967 C 0.10751 0.51241 0.8367 0.0
C968 C 0.09035 0.50884 0.8751 0.0
C969 C 0.0931 0.50529 0.94311 0.0
C970 C 0.1124 0.505 0.97141 0.0
H971 H 0.15306 0.45917 0.97986 0.0
H972 H 0.13334 0.47324 0.02227 0.0
H973 H 0.13512 0.46985 0.92966 0.0
H974 H 0.1397 0.51462 0.83387 0.0
H975 H 0.10607 0.51528 0.78435 0.0
H976 H 0.03539 0.78716 0.52624 0.0
H977 H 0.03665 0.81773 0.60572 0.0
H978 H 0.97451 0.82617 0.56144 0.0
H979 H 0.97318 0.79533 0.48363 0.0
H980 H 0.03188 0.84958 0.55103 0.0
H981 H 0.97746 0.8493 0.76348 0.0
H982 H 0.98609 0.82741 0.71269 0.0
H983 H 0.9665 0.84067 0.68043 0.0
C984 C 0.02175 0.79505 0.53672 0.0
C985 C 1.0041 0.78883 0.49997 0.0
C986 C 0.0225 0.81261 0.5815 0.0
C987 C 1.00567 0.8243 0.5897 0.0
C988 C 0.98756 0.81728 0.55729 0.0
H989 H 1.00983 0.94856 0.63138 0.0
H990 H 1.00536 0.91386 0.59335 0.0
C991 C 0.98677 0.79961 0.51295 0.0
C992 C 1.00806 0.84489 0.62113 0.0
H993 H 0.98821 0.8804 0.73858 0.0
C994 C 0.02247 0.85623 0.59267 0.0
C995 C 0.99583 0.85362 0.67543 0.0
C996 C 0.98074 0.84208 0.71026 0.0
C997 C 0.02472 0.87607 0.61582 0.0
C998 C 1.01188 0.88497 0.66787 0.0
C999 C 0.99782 0.8736 0.69786 0.0
C1000 C 1.01312 0.90604 0.69217 0.0
C1001 C 0.04094 0.88729 0.58455 0.0
C1002 C 0.01831 0.91317 0.76088 0.0
C1003 C 0.02077 0.93298 0.78286 0.0
C1004 C 0.01802 0.94609 0.73656 0.0
C1005 C 1.01223 0.9389 0.66822 0.0
C1006 C 1.00973 0.91906 0.64635 0.0
H1007 H 0.05267 0.87774 0.55936 0.0
H1008 H 0.03422 0.89472 0.54464 0.0
H1009 H 0.04818 0.89835 0.62428 0.0
H1010 H 0.02094 0.90338 0.79714 0.0
H1011 H 0.02516 0.93796 0.83598 0.0
H1012 H 0.73319 0.03816 0.45418 0.0
H1013 H 0.70224 0.03442 0.51766 0.0
H1014 H 0.70846 0.97289 0.48352 0.0
H1015 H 0.73952 0.97655 0.4183 0.0
H1016 H 0.66771 0.01076 0.45138 0.0
H1017 H 0.69355 0.98903 0.6968 0.0
H1018 H 0.70965 0.00231 0.64593 0.0
H1019 H 0.70405 0.97728 0.617 0.0
C1020 C 0.72821 0.02381 0.46104 0.0
C1021 C 0.73887 0.00764 0.43063 0.0
C1022 C 0.71044 0.0217 0.49735 0.0
C1023 C 0.70289 0.00339 0.5053 0.0
C1024 C 0.71402 0.9872 0.47851 0.0
H1025 H 0.57759 0.9777 0.60908 0.0
H1026 H 0.61103 0.9767 0.55717 0.0
C1027 C 0.73187 0.98931 0.44158 0.0
C1028 C 0.68266 0.00145 0.53691 0.0
H1029 H 0.65867 0.9915 0.68204 0.0
C1030 C 0.66573 0.00639 0.50156 0.0
C1031 C 0.68003 0.99594 0.60269 0.0
C1032 C 0.69772 0.9909 0.64342 0.0
C1033 C 0.64637 0.00601 0.53009 0.0
C1034 C 0.64371 1.00052 0.59594 0.0
C1035 C 0.66063 0.99558 0.63142 0.0
C1036 C 0.62353 1.00051 0.62936 0.0
C1037 C 0.62891 0.01199 0.49033 0.0
C1038 C 0.61936 0.01406 0.68791 0.0
C1039 C 0.60017 0.01478 0.71742 0.0
C1040 C 0.58467 0.00179 0.68977 0.0
C1041 C 0.58904 0.98796 0.63191 0.0
C1042 C 0.6082 0.98739 0.60199 0.0
H1043 H 0.63387 0.01903 0.44615 0.0
H1044 H 0.61952 0.99908 0.46986 0.0
H1045 H 0.61938 0.02205 0.52464 0.0
H1046 H 0.63088 0.02435 0.71009 0.0
H1047 H 0.5975 0.02563 0.76184 0.0
H1048 H 0.52461 0.74239 0.32999 0.0
H1049 H 0.52463 0.71961 0.41252 0.0
H1050 H 0.58785 0.7116 0.37813 0.0
H1051 H 0.58781 0.73453 0.29677 0.0
H1052 H 0.533 0.68262 0.36486 0.0
H1053 H 0.58448 0.70923 0.5821 0.0
H1054 H 0.57445 0.72491 0.52684 0.0
H1055 H 0.59575 0.7105 0.49993 0.0
C1056 C 0.5387 0.73662 0.34338 0.0
C1057 C 0.55631 0.74053 0.30843 0.0
C1058 C 0.53867 0.72341 0.38979 0.0
C1059 C 0.55626 0.71391 0.40198 0.0
C1060 C 0.57419 0.71902 0.37111 0.0
H1061 H 0.58946 0.60688 0.52336 0.0
H1062 H 0.58753 0.63824 0.48518 0.0
C1063 C 0.57421 0.73222 0.3248 0.0
C1064 C 0.55528 0.69657 0.43678 0.0
H1065 H 0.57765 0.67499 0.56017 0.0
C1066 C 0.5425 0.6811 0.40844 0.0
C1067 C 0.56783 0.69445 0.49307 0.0
C1068 C 0.58126 0.71074 0.52769 0.0
C1069 C 0.54246 0.66341 0.43302 0.0
C1070 C 0.55533 0.66115 0.4883 0.0
C1071 C 0.56781 0.67672 0.51771 0.0
C1072 C 0.55655 0.64248 0.51432 0.0
C1073 C 0.52926 0.64701 0.39761 0.0
C1074 C 0.53984 0.63453 0.54421 0.0
C1075 C 0.54084 0.61652 0.56566 0.0
C1076 C 0.55861 0.60609 0.55781 0.0
C1077 C 0.57544 0.61432 0.52908 0.0
C1078 C 0.57442 0.63234 0.5078 0.0
H1079 H 0.52369 0.64975 0.34679 0.0
H1080 H 0.53746 0.63334 0.38965 0.0
H1081 H 0.51608 0.64511 0.43055 0.0
H1082 H 0.52596 0.6422 0.55055 0.0
H1083 H 0.52756 0.61062 0.58719 0.0
H1084 H 0.81967 0.47632 0.4588 0.0
H1085 H 0.85028 0.47967 0.52899 0.0
H1086 H 0.85878 0.53803 0.49084 0.0
H1087 H 0.82772 0.53479 0.42218 0.0
H1088 H 0.8868 0.48482 0.48258 0.0
H1089 H 0.87305 0.54561 0.69197 0.0
H1090 H 0.85315 0.5337 0.63761 0.0
H1091 H 0.86925 0.55151 0.60738 0.0
C1092 C 0.82768 0.4901 0.46763 0.0
C1093 C 0.82104 0.50542 0.43616 0.0
C1094 C 0.84533 0.49197 0.50722 0.0
C1095 C 0.85698 0.50916 0.51611 0.0
C1096 C 0.84996 0.52475 0.48663 0.0
H1097 H 0.97873 0.53828 0.67625 0.0
H1098 H 0.9453 0.53829 0.62453 0.0
C1099 C 0.83213 0.52293 0.44741 0.0
C1100 C 0.87719 0.50996 0.55056 0.0
H1101 H 0.90668 0.53514 0.67916 0.0
C1102 C 0.89102 0.49578 0.52592 0.0
C1103 C 0.88299 0.52431 0.60685 0.0
C1104 C 0.86878 0.53954 0.638 0.0
C1105 C 0.91029 0.4956 0.55516 0.0
C1106 C 0.91605 0.50985 0.61166 0.0
C1107 C 0.90235 0.52417 0.63603 0.0
C1108 C 0.93621 0.51009 0.64576 0.0
C1109 C 0.92452 0.48035 0.52403 0.0
C1110 C 0.94229 0.4944 0.67635 0.0
C1111 C 0.96145 0.49433 0.70592 0.0
C1112 C 0.97507 0.51001 0.70615 0.0
C1113 C 0.96876 0.5259 0.67694 0.0
C1114 C 0.94958 0.52596 0.64736 0.0
H1115 H 0.91998 0.47387 0.47071 0.0
H1116 H 0.94005 0.48636 0.52273 0.0
H1117 H 0.92453 0.46867 0.55591 0.0
H1118 H 0.93219 0.48213 0.67728 0.0
H1119 H 0.96561 0.48188 0.72828 0.0
loop_
_geom_bond_atom_site_label_1
_geom_bond_atom_site_label_2
_geom_bond_distance
_geom_bond_site_symmetry_2
_ccdc_geom_bond_type
H0 C5 0.930 . S
H1 C8 0.930 . S
H2 C10 0.930 . S
H3 C4 1.016 . S
C4 H3 1.016 . S
C4 N11 1.286 . S
C5 H0 0.930 . S
C5 C6 1.397 . S
C5 C7 1.361 . S
C6 C5 1.397 . S
C6 C10 1.390 . S
C7 C5 1.361 . S
C7 C8 1.393 . S
C7 N11 1.413 . S
C8 H1 0.930 . S
C8 C7 1.393 . S
C8 C9 1.399 . S
C9 C8 1.399 . S
C9 C10 1.381 . S
C10 H2 0.930 . S
C10 C6 1.390 . S
C10 C9 1.381 . S
N11 C4 1.286 . S
N11 C7 1.413 . S
H12 C17 0.934 . S
H13 C20 0.930 . S
H14 C22 0.930 . S
H15 C16 1.016 . S
C16 H15 1.016 . S
C16 N23 1.262 1_655 S
C17 H12 0.934 . S
C17 C18 1.397 . S
C17 C19 1.361 . S
C18 C17 1.397 . S
C18 C22 1.390 . S
C19 C17 1.361 . S
C19 C20 1.393 . S
C19 N23 1.405 1_655 S
C20 H13 0.930 . S
C20 C19 1.393 . S
C20 C21 1.399 . S
C21 C20 1.399 . S
C21 C22 1.381 . S
C22 H14 0.930 . S
C22 C18 1.390 . S
C22 C21 1.381 . S
N23 C16 1.262 1_455 S
N23 C19 1.405 1_455 S
H24 C29 0.930 . S
H25 C32 0.930 . S
H26 C34 0.930 . S
H27 C28 1.023 . S
C28 H27 1.023 . S
C28 N35 1.273 1_565 S
C29 H24 0.930 . S
C29 C30 1.406 . S
C29 C31 1.361 . S
C30 C29 1.406 . S
C30 C34 1.393 1_545 S
C31 C29 1.361 . S
C31 C32 1.393 . S
C31 N35 1.413 . S
C32 H25 0.930 . S
C32 C31 1.393 . S
C32 C33 1.402 . S
C33 C32 1.402 . S
C33 C34 1.377 1_545 S
C34 H26 0.930 . S
C34 C30 1.393 1_565 S
C34 C33 1.377 1_565 S
N35 C28 1.273 1_545 S
N35 C31 1.413 . S
H36 C41 0.930 . S
H37 C44 0.930 . S
H38 C46 0.930 . S
H39 C40 1.016 . S
C40 H39 1.016 . S
C40 N47 1.286 1_556 S
C41 H36 0.930 . S
C41 C42 1.397 . S
C41 C43 1.361 . S
C42 C41 1.397 . S
C42 C46 1.390 . S
C43 C41 1.361 . S
C43 C44 1.393 1_554 S
C43 N47 1.413 . S
C44 H37 0.930 . S
C44 C43 1.393 1_556 S
C44 C45 1.399 . S
C45 C44 1.399 . S
C45 C46 1.381 1_556 S
C46 H38 0.930 . S
C46 C42 1.390 . S
C46 C45 1.381 1_554 S
N47 C40 1.286 1_554 S
N47 C43 1.413 . S
H48 C53 0.930 . S
H49 C56 0.930 . S
H50 C58 0.930 . S
H51 C52 1.016 . S
C52 H51 1.016 . S
C52 N59 1.286 . S
C53 H48 0.930 . S
C53 C54 1.397 . S
C53 C55 1.361 . S
C54 C53 1.397 . S
C54 C58 1.390 . S
C55 C53 1.361 . S
C55 C56 1.393 . S
C55 N59 1.413 . S
C56 H49 0.930 . S
C56 C55 1.393 . S
C56 C57 1.399 . S
C57 C56 1.399 . S
C57 C58 1.381 . S
C58 H50 0.930 . S
C58 C54 1.390 . S
C58 C57 1.381 . S
N59 C52 1.286 . S
N59 C55 1.413 . S
H60 C65 0.930 . S
H61 C68 0.930 . S
H62 C70 0.930 . S
H63 C64 1.016 . S
C64 H63 1.016 . S
C64 N71 1.286 . S
C65 H60 0.930 . S
C65 C66 1.397 . S
C65 C67 1.361 . S
C66 C65 1.397 . S
C66 C70 1.390 . S
C67 C65 1.361 . S
C67 C68 1.393 . S
C67 N71 1.413 . S
C68 H61 0.930 . S
C68 C67 1.393 . S
C68 C69 1.399 . S
C69 C68 1.399 . S
C69 C70 1.381 . S
C70 H62 0.930 . S
C70 C66 1.390 . S
C70 C69 1.381 . S
N71 C64 1.286 . S
N71 C67 1.413 . S
H72 C77 0.930 . S
H73 C80 0.930 . S
H74 C82 0.930 . S
H75 C76 1.029 . S
C76 H75 1.029 . S
C76 N83 1.271 1_565 S
C77 H72 0.930 . S
C77 C78 1.410 . S
C77 C79 1.361 . S
C78 C77 1.410 . S
C78 C82 1.374 1_545 S
C79 C77 1.361 . S
C79 C80 1.393 . S
C79 N83 1.413 . S
C80 H73 0.930 . S
C80 C79 1.393 . S
C80 C81 1.404 . S
C81 C80 1.404 . S
C81 C82 1.383 1_545 S
C82 H74 0.930 . S
C82 C78 1.374 1_565 S
C82 C81 1.383 1_565 S
N83 C76 1.271 1_545 S
N83 C79 1.413 . S
H84 C89 0.930 . S
H85 C92 0.930 . S
H86 C94 0.930 . S
H87 C88 1.016 . S
C88 H87 1.016 . S
C88 N95 1.286 . S
C89 H84 0.930 . S
C89 C90 1.397 . S
C89 C91 1.361 . S
C90 C89 1.397 . S
C90 C94 1.390 . S
C91 C89 1.361 . S
C91 C92 1.393 . S
C91 N95 1.413 . S
C92 H85 0.930 . S
C92 C91 1.393 . S
C92 C93 1.399 . S
C93 C92 1.399 . S
C93 C94 1.381 . S
C94 H86 0.930 . S
C94 C90 1.390 . S
C94 C93 1.381 . S
N95 C88 1.286 . S
N95 C91 1.413 . S
Tb96 C105 2.768 . S
Tb96 O106 2.325 . S
Tb96 O109 2.303 . S
Tb96 O113 2.322 1_445 S
Tb96 O114 2.349 1_455 S
Tb96 O117 2.415 . S
Tb96 O118 2.399 1_455 S
Tb97 O107 2.322 1_565 S
Tb97 O108 2.349 . S
Tb97 O110 2.415 . S
Tb97 O111 2.399 . S
Tb97 O112 2.325 . S
Tb97 O115 2.303 1_455 S
Tb97 C126 2.764 . S
C98 O114 1.261 . S
C98 O115 1.257 1_545 S
C99 C102 1.338 1_455 S
C99 C103 1.350 . S
C99 C105 1.503 . S
C100 C101 1.414 . S
C100 C104 1.266 1_655 S
C101 C100 1.414 . S
C101 C102 1.429 . S
C101 H128 0.932 . S
C102 C99 1.338 1_655 S
C102 C101 1.429 . S
C102 H129 0.930 . S
C103 C99 1.350 . S
C103 C104 1.394 . S
C103 H130 0.932 . S
C104 C100 1.266 1_455 S
C104 C103 1.394 . S
C104 H131 0.929 . S
C105 Tb96 2.768 . S
C105 C99 1.503 . S
C105 O117 1.288 . S
C105 O118 1.218 1_455 S
O106 Tb96 2.325 . S
O106 C116 1.236 . S
O107 Tb97 2.322 1_545 S
O107 C116 1.257 . S
O108 Tb97 2.349 . S
O108 C119 1.261 . S
O109 Tb96 2.303 . S
O109 C119 1.257 1_545 S
O110 Tb97 2.415 . S
O110 C126 1.239 . S
O111 Tb97 2.399 . S
O111 C126 1.263 . S
O112 Tb97 2.325 . S
O112 C127 1.236 . S
O113 Tb96 2.322 1_665 S
O113 C127 1.257 1_655 S
O114 Tb96 2.349 1_655 S
O114 C98 1.261 . S
O115 Tb97 2.303 1_655 S
O115 C98 1.257 1_565 S
C116 O106 1.236 . S
C116 O107 1.257 . S
O117 Tb96 2.415 . S
O117 C105 1.288 . S
O118 Tb96 2.399 1_655 S
O118 C105 1.218 1_655 S
C119 O108 1.261 . S
C119 O109 1.257 1_565 S
C120 C123 1.358 . S
C120 C124 1.332 . S
C120 C126 1.504 . S
C121 C122 1.372 1_554 S
C121 C125 1.306 1_554 S
C122 C121 1.372 1_556 S
C122 C123 1.429 . S
C122 H132 0.932 . S
C123 C120 1.358 . S
C123 C122 1.429 . S
C123 H133 0.930 . S
C124 C120 1.332 . S
C124 C125 1.394 . S
C124 H134 0.932 . S
C125 C121 1.306 1_556 S
C125 C124 1.394 . S
C125 H135 0.929 . S
C126 Tb97 2.764 . S
C126 O110 1.239 . S
C126 O111 1.263 . S
C126 C120 1.504 . S
C127 O112 1.236 . S
C127 O113 1.257 1_455 S
H128 C101 0.932 . S
H129 C102 0.930 . S
H130 C103 0.932 . S
H131 C104 0.929 . S
H132 C122 0.932 . S
H133 C123 0.930 . S
H134 C124 0.932 . S
H135 C125 0.929 . S
Tb136 C145 2.764 . S
Tb136 O146 2.325 . S
Tb136 O149 2.303 1_565 S
Tb136 O153 2.322 . S
Tb136 O154 2.349 . S
Tb136 O157 2.415 1_565 S
Tb136 O158 2.399 . S
Tb137 O147 2.322 . S
Tb137 O148 2.349 . S
Tb137 O150 2.415 1_545 S
Tb137 O151 2.399 . S
Tb137 O152 2.325 . S
Tb137 O155 2.303 1_545 S
Tb137 C166 2.764 . S
C138 O154 1.261 . S
C138 O155 1.257 . S
C139 C142 1.358 . S
C139 C143 1.332 1_565 S
C139 C145 1.504 . S
C140 C141 1.373 . S
C140 C144 1.308 1_565 S
C141 C140 1.373 . S
C141 C142 1.429 . S
C141 H168 0.932 . S
C142 C139 1.358 . S
C142 C141 1.429 . S
C142 H169 0.930 . S
C143 C139 1.332 1_545 S
C143 C144 1.394 . S
C143 H170 0.932 . S
C144 C140 1.308 1_545 S
C144 C143 1.394 . S
C144 H171 0.929 . S
C145 Tb136 2.764 . S
C145 C139 1.504 . S
C145 O157 1.239 1_565 S
C145 O158 1.263 . S
O146 Tb136 2.325 . S
O146 C156 1.236 1_565 S
O147 Tb137 2.322 . S
O147 C156 1.257 . S
O148 Tb137 2.349 . S
O148 C159 1.261 . S
O149 Tb136 2.303 1_545 S
O149 C159 1.257 . S
O150 Tb137 2.415 1_565 S
O150 C166 1.239 1_565 S
O151 Tb137 2.399 . S
O151 C166 1.263 . S
O152 Tb137 2.325 . S
O152 C167 1.236 1_545 S
O153 Tb136 2.322 . S
O153 C167 1.257 . S
O154 Tb136 2.349 . S
O154 C138 1.261 . S
O155 Tb137 2.303 1_565 S
O155 C138 1.257 . S
C156 O146 1.236 1_545 S
C156 O147 1.257 . S
O157 Tb136 2.415 1_545 S
O157 C145 1.239 1_545 S
O158 Tb136 2.399 . S
O158 C145 1.263 . S
C159 O148 1.261 . S
C159 O149 1.257 . S
C160 C163 1.358 1_556 S
C160 C164 1.332 1_545 S
C160 C166 1.504 . S
C161 C162 1.373 . S
C161 C165 1.308 1_545 S
C162 C161 1.373 . S
C162 C163 1.429 . S
C162 H172 0.932 . S
C163 C160 1.358 1_554 S
C163 C162 1.429 . S
C163 H173 0.930 . S
C164 C160 1.332 1_565 S
C164 C165 1.394 1_556 S
C164 H174 0.932 . S
C165 C161 1.308 1_565 S
C165 C164 1.394 1_554 S
C165 H175 0.929 1_554 S
C166 Tb137 2.764 . S
C166 O150 1.239 1_545 S
C166 O151 1.263 . S
C166 C160 1.504 . S
C167 O152 1.236 1_565 S
C167 O153 1.257 . S
H168 C141 0.932 . S
H169 C142 0.930 . S
H170 C143 0.932 . S
H171 C144 0.929 . S
H172 C162 0.932 . S
H173 C163 0.930 . S
H174 C164 0.932 . S
H175 C165 0.929 1_556 S
Tb176 C185 2.764 . S
Tb176 O186 2.325 . S
Tb176 O189 2.303 . S
Tb176 O193 2.322 . S
Tb176 O194 2.349 . S
Tb176 O197 2.415 . S
Tb176 O198 2.399 . S
Tb177 O187 2.322 . S
Tb177 O188 2.349 . S
Tb177 O190 2.415 . S
Tb177 O191 2.399 . S
Tb177 O192 2.325 . S
Tb177 O195 2.303 . S
Tb177 C206 2.764 . S
C178 O194 1.261 . S
C178 O195 1.257 . S
C179 C182 1.358 1_556 S
C179 C183 1.332 1_556 S
C179 C185 1.504 . S
C180 C181 1.373 . S
C180 C184 1.308 . S
C181 C180 1.373 . S
C181 C182 1.429 . S
C181 H208 0.932 . S
C182 C179 1.358 1_554 S
C182 C181 1.429 . S
C182 H209 0.930 1_554 S
C183 C179 1.332 1_554 S
C183 C184 1.394 . S
C183 H210 0.932 1_554 S
C184 C180 1.308 . S
C184 C183 1.394 . S
C184 H211 0.929 . S
C185 Tb176 2.764 . S
C185 C179 1.504 . S
C185 O197 1.239 . S
C185 O198 1.263 . S
O186 Tb176 2.325 . S
O186 C196 1.236 . S
O187 Tb177 2.322 . S
O187 C196 1.257 . S
O188 Tb177 2.349 . S
O188 C199 1.261 . S
O189 Tb176 2.303 . S
O189 C199 1.257 . S
O190 Tb177 2.415 . S
O190 C206 1.239 . S
O191 Tb177 2.399 . S
O191 C206 1.263 . S
O192 Tb177 2.325 . S
O192 C207 1.236 . S
O193 Tb176 2.322 . S
O193 C207 1.257 . S
O194 Tb176 2.349 . S
O194 C178 1.261 . S
O195 Tb177 2.303 . S
O195 C178 1.257 . S
C196 O186 1.236 . S
C196 O187 1.257 . S
O197 Tb176 2.415 . S
O197 C185 1.239 . S
O198 Tb176 2.399 . S
O198 C185 1.263 . S
C199 O188 1.261 . S
C199 O189 1.257 . S
C200 C203 1.358 . S
C200 C204 1.332 . S
C200 C206 1.504 . S
C201 C202 1.373 . S
C201 C205 1.308 . S
C202 C201 1.373 . S
C202 C203 1.429 . S
C202 H212 0.932 . S
C203 C200 1.358 . S
C203 C202 1.429 . S
C203 H213 0.930 . S
C204 C200 1.332 . S
C204 C205 1.394 . S
C204 H214 0.932 . S
C205 C201 1.308 . S
C205 C204 1.394 . S
C205 H215 0.929 . S
C206 Tb177 2.764 . S
C206 O190 1.239 . S
C206 O191 1.263 . S
C206 C200 1.504 . S
C207 O192 1.236 . S
C207 O193 1.257 . S
H208 C181 0.932 . S
H209 C182 0.930 1_556 S
H210 C183 0.932 1_556 S
H211 C184 0.929 . S
H212 C202 0.932 . S
H213 C203 0.930 . S
H214 C204 0.932 . S
H215 C205 0.929 . S
Tb216 C225 2.764 . S
Tb216 O226 2.325 . S
Tb216 O229 2.303 . S
Tb216 O233 2.322 1_455 S
Tb216 O234 2.349 . S
Tb216 O237 2.415 . S
Tb216 O238 2.399 . S
Tb217 O227 2.322 . S
Tb217 O228 2.349 . S
Tb217 O230 2.415 1_455 S
Tb217 O231 2.399 1_455 S
Tb217 O232 2.325 1_455 S
Tb217 O235 2.303 . S
Tb217 C246 2.764 1_455 S
C218 O234 1.261 . S
C218 O235 1.257 . S
C219 C222 1.358 . S
C219 C223 1.332 . S
C219 C225 1.504 . S
C220 C221 1.373 . S
C220 C224 1.308 . S
C221 C220 1.373 . S
C221 C222 1.429 . S
C221 H248 0.932 . S
C222 C219 1.358 . S
C222 C221 1.429 . S
C222 H249 0.930 . S
C223 C219 1.332 . S
C223 C224 1.394 . S
C223 H250 0.932 . S
C224 C220 1.308 . S
C224 C223 1.394 . S
C224 H251 0.929 . S
C225 Tb216 2.764 . S
C225 C219 1.504 . S
C225 O237 1.239 . S
C225 O238 1.263 . S
O226 Tb216 2.325 . S
O226 C236 1.236 . S
O227 Tb217 2.322 . S
O227 C236 1.257 . S
O228 Tb217 2.349 . S
O228 C239 1.261 . S
O229 Tb216 2.303 . S
O229 C239 1.257 . S
O230 Tb217 2.415 1_655 S
O230 C246 1.239 . S
O231 Tb217 2.399 1_655 S
O231 C246 1.263 . S
O232 Tb217 2.325 1_655 S
O232 C247 1.236 . S
O233 Tb216 2.322 1_655 S
O233 C247 1.257 . S
O234 Tb216 2.349 . S
O234 C218 1.261 . S
O235 Tb217 2.303 . S
O235 C218 1.257 . S
C236 O226 1.236 . S
C236 O227 1.257 . S
O237 Tb216 2.415 . S
O237 C225 1.239 . S
O238 Tb216 2.399 . S
O238 C225 1.263 . S
C239 O228 1.261 . S
C239 O229 1.257 . S
C240 C243 1.358 . S
C240 C244 1.332 . S
C240 C246 1.504 . S
C241 C242 1.373 . S
C241 C245 1.308 . S
C242 C241 1.373 . S
C242 C243 1.429 1_554 S
C242 H252 0.932 . S
C243 C240 1.358 . S
C243 C242 1.429 1_556 S
C243 H253 0.930 . S
C244 C240 1.332 . S
C244 C245 1.394 1_556 S
C244 H254 0.932 . S
C245 C241 1.308 . S
C245 C244 1.394 1_554 S
C245 H255 0.929 . S
C246 Tb217 2.764 1_655 S
C246 O230 1.239 . S
C246 O231 1.263 . S
C246 C240 1.504 . S
C247 O232 1.236 . S
C247 O233 1.257 . S
H248 C221 0.932 . S
H249 C222 0.930 . S
H250 C223 0.932 . S
H251 C224 0.929 . S
H252 C242 0.932 . S
H253 C243 0.930 . S
H254 C244 0.932 . S
H255 C245 0.929 . S
H256 C264 0.929 . S
H257 C266 0.930 . S
H258 C268 0.930 . S
H259 C271 0.929 . S
H260 C274 0.930 . S
H261 C276 0.952 1_565 S
H262 C276 0.991 . S
H263 C276 0.934 1_565 S
C264 H256 0.929 . S
C264 C265 1.400 . S
C264 C266 1.384 . S
C265 C264 1.400 . S
C265 C271 1.365 1_545 S
C266 H257 0.930 . S
C266 C264 1.384 . S
C266 C267 1.372 . S
C267 C266 1.372 . S
C267 C268 1.400 1_545 S
C267 C272 1.490 . S
C268 H258 0.930 . S
C268 C267 1.400 1_565 S
C268 C271 1.386 . S
H269 C285 0.930 . S
H270 C286 0.931 . S
C271 H259 0.929 . S
C271 C265 1.365 1_565 S
C271 C268 1.386 . S
C272 C267 1.490 . S
C272 C274 1.395 . S
C272 C275 1.416 . S
H273 C279 0.921 1_565 S
C274 H260 0.930 . S
C274 C272 1.395 . S
C274 C277 1.403 . S
C275 C272 1.416 . S
C275 C276 1.522 . S
C275 C279 1.399 . S
C276 H261 0.952 1_545 S
C276 H262 0.991 . S
C276 H263 0.934 1_545 S
C276 C275 1.522 . S
C277 C274 1.403 . S
C277 C278 1.392 . S
C277 C281 1.495 . S
C278 C277 1.392 . S
C278 C279 1.393 . S
C278 C280 1.478 . S
C279 H273 0.921 1_545 S
C279 C275 1.399 . S
C279 C278 1.393 . S
C280 C278 1.478 . S
C280 C282 1.381 . S
C280 C286 1.383 1_545 S
C281 C277 1.495 . S
C281 H287 0.959 . S
C281 H288 0.961 1_545 S
C281 H289 0.960 . S
C282 C280 1.381 . S
C282 C283 1.394 . S
C282 H290 0.930 . S
C283 C282 1.394 . S
C283 C284 1.383 . S
C283 H291 0.929 . S
C284 C283 1.383 . S
C284 C285 1.377 1_545 S
C285 H269 0.930 . S
C285 C284 1.377 1_565 S
C285 C286 1.379 . S
C286 H270 0.931 . S
C286 C280 1.383 1_565 S
C286 C285 1.379 . S
H287 C281 0.959 . S
H288 C281 0.961 1_565 S
H289 C281 0.960 . S
H290 C282 0.930 . S
H291 C283 0.929 . S
H292 C300 0.929 . S
H293 C302 0.930 . S
H294 C304 0.930 . S
H295 C307 0.929 . S
H296 C310 0.930 . S
H297 C312 0.960 . S
H298 C312 0.960 . S
H299 C312 0.960 . S
C300 H292 0.929 . S
C300 C301 1.377 . S
C300 C302 1.384 . S
C301 C300 1.377 . S
C301 C307 1.390 . S
C302 H293 0.930 . S
C302 C300 1.384 . S
C302 C303 1.372 . S
C303 C302 1.372 . S
C303 C304 1.400 . S
C303 C308 1.490 . S
C304 H294 0.930 . S
C304 C303 1.400 . S
C304 C307 1.386 . S
H305 C321 0.930 . S
H306 C322 0.931 . S
C307 H295 0.929 . S
C307 C301 1.390 . S
C307 C304 1.386 . S
C308 C303 1.490 . S
C308 C310 1.395 . S
C308 C311 1.403 . S
H309 C315 0.930 . S
C310 H296 0.930 . S
C310 C308 1.395 . S
C310 C313 1.403 . S
C311 C308 1.403 . S
C311 C312 1.524 . S
C311 C315 1.400 . S
C312 H297 0.960 . S
C312 H298 0.960 . S
C312 H299 0.960 . S
C312 C311 1.524 . S
C313 C310 1.403 . S
C313 C314 1.392 . S
C313 C317 1.495 . S
C314 C313 1.392 . S
C314 C315 1.385 . S
C314 C316 1.478 . S
C315 H309 0.930 . S
C315 C311 1.400 . S
C315 C314 1.385 . S
C316 C314 1.478 . S
C316 C318 1.381 . S
C316 C322 1.383 . S
C317 C313 1.495 . S
C317 H323 0.959 . S
C317 H324 0.961 . S
C317 H325 0.960 . S
C318 C316 1.381 . S
C318 C319 1.394 . S
C318 H326 0.930 . S
C319 C318 1.394 . S
C319 C320 1.383 . S
C319 H327 0.929 . S
C320 C319 1.383 . S
C320 C321 1.377 . S
C321 H305 0.930 . S
C321 C320 1.377 . S
C321 C322 1.379 . S
C322 H306 0.931 . S
C322 C316 1.383 . S
C322 C321 1.379 . S
H323 C317 0.959 . S
H324 C317 0.961 . S
H325 C317 0.960 . S
H326 C318 0.930 . S
H327 C319 0.929 . S
H328 C336 0.929 . S
H329 C338 0.930 . S
H330 C340 0.930 . S
H331 C343 0.929 . S
H332 C346 0.930 . S
H333 C348 0.960 . S
H334 C348 0.960 . S
H335 C348 0.960 . S
C336 H328 0.929 . S
C336 C337 1.377 . S
C336 C338 1.384 . S
C337 C336 1.377 . S
C337 C343 1.390 . S
C338 H329 0.930 . S
C338 C336 1.384 . S
C338 C339 1.372 . S
C339 C338 1.372 . S
C339 C340 1.400 . S
C339 C344 1.490 . S
C340 H330 0.930 . S
C340 C339 1.400 . S
C340 C343 1.386 . S
H341 C357 0.930 . S
H342 C358 0.931 . S
C343 H331 0.929 . S
C343 C337 1.390 . S
C343 C340 1.386 . S
C344 C339 1.490 . S
C344 C346 1.395 . S
C344 C347 1.403 . S
H345 C351 0.930 . S
C346 H332 0.930 . S
C346 C344 1.395 . S
C346 C349 1.403 . S
C347 C344 1.403 . S
C347 C348 1.524 . S
C347 C351 1.400 . S
C348 H333 0.960 . S
C348 H334 0.960 . S
C348 H335 0.960 . S
C348 C347 1.524 . S
C349 C346 1.403 . S
C349 C350 1.392 . S
C349 C353 1.495 . S
C350 C349 1.392 . S
C350 C351 1.385 . S
C350 C352 1.478 . S
C351 H345 0.930 . S
C351 C347 1.400 . S
C351 C350 1.385 . S
C352 C350 1.478 . S
C352 C354 1.381 . S
C352 C358 1.383 . S
C353 C349 1.495 . S
C353 H359 0.959 . S
C353 H360 0.961 . S
C353 H361 0.960 . S
C354 C352 1.381 . S
C354 C355 1.394 . S
C354 H362 0.930 . S
C355 C354 1.394 . S
C355 C356 1.383 . S
C355 H363 0.929 . S
C356 C355 1.383 . S
C356 C357 1.377 . S
C357 H341 0.930 . S
C357 C356 1.377 . S
C357 C358 1.379 . S
C358 H342 0.931 . S
C358 C352 1.383 . S
C358 C357 1.379 . S
H359 C353 0.959 . S
H360 C353 0.961 . S
H361 C353 0.960 . S
H362 C354 0.930 . S
H363 C355 0.929 . S
H364 C372 0.929 . S
H365 C374 0.930 . S
H366 C376 0.930 . S
H367 C379 0.929 . S
H368 C382 0.930 . S
H369 C384 0.960 . S
H370 C384 0.960 . S
H371 C384 0.960 . S
C372 H364 0.929 . S
C372 C373 1.377 . S
C372 C374 1.384 . S
C373 C372 1.377 . S
C373 C379 1.390 . S
C374 H365 0.930 . S
C374 C372 1.384 . S
C374 C375 1.372 . S
C375 C374 1.372 . S
C375 C376 1.400 . S
C375 C380 1.490 . S
C376 H366 0.930 . S
C376 C375 1.400 . S
C376 C379 1.386 . S
H377 C393 0.930 1_655 S
H378 C394 0.931 1_655 S
C379 H367 0.929 . S
C379 C373 1.390 . S
C379 C376 1.386 . S
C380 C375 1.490 . S
C380 C382 1.395 . S
C380 C383 1.403 . S
H381 C387 0.930 . S
C382 H368 0.930 . S
C382 C380 1.395 . S
C382 C385 1.403 . S
C383 C380 1.403 . S
C383 C384 1.524 . S
C383 C387 1.400 . S
C384 H369 0.960 . S
C384 H370 0.960 . S
C384 H371 0.960 . S
C384 C383 1.524 . S
C385 C382 1.403 . S
C385 C386 1.392 . S
C385 C389 1.495 . S
C386 C385 1.392 . S
C386 C387 1.385 . S
C386 C388 1.478 . S
C387 H381 0.930 . S
C387 C383 1.400 . S
C387 C386 1.385 . S
C388 C386 1.478 . S
C388 C390 1.381 . S
C388 C394 1.383 . S
C389 C385 1.495 . S
C389 H395 0.959 . S
C389 H396 0.961 . S
C389 H397 0.960 . S
C390 C388 1.381 . S
C390 C391 1.394 . S
C390 H398 0.930 . S
C391 C390 1.394 . S
C391 C392 1.383 . S
C391 H399 0.929 . S
C392 C391 1.383 . S
C392 C393 1.377 . S
C393 H377 0.930 1_455 S
C393 C392 1.377 . S
C393 C394 1.379 . S
C394 H378 0.931 1_455 S
C394 C388 1.383 . S
C394 C393 1.379 . S
H395 C389 0.959 . S
H396 C389 0.961 . S
H397 C389 0.960 . S
H398 C390 0.930 . S
H399 C391 0.929 . S
H400 C408 0.929 . S
H401 C410 0.930 . S
H402 C412 0.930 . S
H403 C415 0.929 . S
H404 C418 0.930 . S
H405 C420 0.960 . S
H406 C420 0.960 . S
H407 C420 1.000 . S
C408 H400 0.929 . S
C408 C409 1.384 . S
C408 C410 1.384 . S
C409 C408 1.384 . S
C409 C415 1.384 1_545 S
C410 H401 0.930 . S
C410 C408 1.384 . S
C410 C411 1.386 . S
C411 C410 1.386 . S
C411 C412 1.383 1_545 S
C411 C416 1.492 . S
C412 H402 0.930 . S
C412 C411 1.383 1_565 S
C412 C415 1.386 . S
H413 C429 0.930 . S
H414 C430 0.931 . S
C415 H403 0.929 . S
C415 C409 1.384 1_565 S
C415 C412 1.386 . S
C416 C411 1.492 . S
C416 C418 1.393 1_545 S
C416 C419 1.404 . S
H417 C423 0.930 1_556 S
C418 H404 0.930 . S
C418 C416 1.393 1_565 S
C418 C421 1.403 . S
C419 C416 1.404 . S
C419 C420 1.524 . S
C419 C423 1.400 . S
C420 H405 0.960 . S
C420 H406 0.960 . S
C420 H407 1.000 . S
C420 C419 1.524 . S
C421 C418 1.403 . S
C421 C422 1.392 . S
C421 C425 1.495 . S
C422 C421 1.392 . S
C422 C423 1.385 1_565 S
C422 C424 1.478 . S
C423 H417 0.930 1_554 S
C423 C419 1.400 . S
C423 C422 1.385 1_545 S
C424 C422 1.478 . S
C424 C426 1.381 1_565 S
C424 C430 1.383 1_554 S
C425 C421 1.495 . S
C425 H431 0.959 . S
C425 H432 0.961 . S
C425 H433 0.982 . S
C426 C424 1.381 1_545 S
C426 C427 1.394 1_554 S
C426 H434 0.930 . S
C427 C426 1.394 1_556 S
C427 C428 1.383 1_545 S
C427 H435 0.929 . S
C428 C427 1.383 1_565 S
C428 C429 1.377 . S
C429 H413 0.930 . S
C429 C428 1.377 . S
C429 C430 1.379 . S
C430 H414 0.931 . S
C430 C424 1.383 1_556 S
C430 C429 1.379 . S
H431 C425 0.959 . S
H432 C425 0.961 . S
H433 C425 0.982 . S
H434 C426 0.930 . S
H435 C427 0.929 . S
H436 C444 0.929 . S
H437 C446 0.930 . S
H438 C448 0.930 . S
H439 C451 0.929 1_554 S
H440 C454 0.930 . S
H441 C456 0.960 . S
H442 C456 0.960 . S
H443 C456 0.960 . S
C444 H436 0.929 . S
C444 C445 1.377 . S
C444 C446 1.384 . S
C445 C444 1.377 . S
C445 C451 1.390 . S
C446 H437 0.930 . S
C446 C444 1.384 . S
C446 C447 1.372 . S
C447 C446 1.372 . S
C447 C448 1.400 . S
C447 C452 1.490 . S
C448 H438 0.930 . S
C448 C447 1.400 . S
C448 C451 1.386 . S
H449 C465 0.930 . S
H450 C466 0.931 . S
C451 H439 0.929 1_556 S
C451 C445 1.390 . S
C451 C448 1.386 . S
C452 C447 1.490 . S
C452 C454 1.395 . S
C452 C455 1.403 . S
H453 C459 0.930 . S
C454 H440 0.930 . S
C454 C452 1.395 . S
C454 C457 1.403 . S
C455 C452 1.403 . S
C455 C456 1.524 . S
C455 C459 1.400 . S
C456 H441 0.960 . S
C456 H442 0.960 . S
C456 H443 0.960 . S
C456 C455 1.524 . S
C457 C454 1.403 . S
C457 C458 1.392 . S
C457 C461 1.495 . S
C458 C457 1.392 . S
C458 C459 1.385 . S
C458 C460 1.478 . S
C459 H453 0.930 . S
C459 C455 1.400 . S
C459 C458 1.385 . S
C460 C458 1.478 . S
C460 C462 1.381 . S
C460 C466 1.383 . S
C461 C457 1.495 . S
C461 H467 0.959 . S
C461 H468 0.961 . S
C461 H469 0.960 . S
C462 C460 1.381 . S
C462 C463 1.394 . S
C462 H470 0.930 . S
C463 C462 1.394 . S
C463 C464 1.383 . S
C463 H471 0.929 . S
C464 C463 1.383 . S
C464 C465 1.377 . S
C465 H449 0.930 . S
C465 C464 1.377 . S
C465 C466 1.379 . S
C466 H450 0.931 . S
C466 C460 1.383 . S
C466 C465 1.379 . S
H467 C461 0.959 . S
H468 C461 0.961 . S
H469 C461 0.960 . S
H470 C462 0.930 . S
H471 C463 0.929 . S
H472 C480 0.929 . S
H473 C482 0.930 . S
H474 C484 0.930 . S
H475 C487 0.929 . S
H476 C490 0.930 . S
H477 C492 0.960 . S
H478 C492 0.960 . S
H479 C492 0.960 . S
C480 H472 0.929 . S
C480 C481 1.377 . S
C480 C482 1.384 . S
C481 C480 1.377 . S
C481 C487 1.390 . S
C482 H473 0.930 . S
C482 C480 1.384 . S
C482 C483 1.372 . S
C483 C482 1.372 . S
C483 C484 1.400 . S
C483 C488 1.490 . S
C484 H474 0.930 . S
C484 C483 1.400 . S
C484 C487 1.386 . S
H485 C501 0.930 . S
H486 C502 0.931 1_554 S
C487 H475 0.929 . S
C487 C481 1.390 . S
C487 C484 1.386 . S
C488 C483 1.490 . S
C488 C490 1.395 . S
C488 C491 1.403 . S
H489 C495 0.930 . S
C490 H476 0.930 . S
C490 C488 1.395 . S
C490 C493 1.403 . S
C491 C488 1.403 . S
C491 C492 1.524 . S
C491 C495 1.400 . S
C492 H477 0.960 . S
C492 H478 0.960 . S
C492 H479 0.960 . S
C492 C491 1.524 . S
C493 C490 1.403 . S
C493 C494 1.392 . S
C493 C497 1.495 1_554 S
C494 C493 1.392 . S
C494 C495 1.385 . S
C494 C496 1.478 1_554 S
C495 H489 0.930 . S
C495 C491 1.400 . S
C495 C494 1.385 . S
C496 C494 1.478 1_556 S
C496 C498 1.381 . S
C496 C502 1.383 . S
C497 C493 1.495 1_556 S
C497 H503 0.959 . S
C497 H504 0.961 . S
C497 H505 0.960 . S
C498 C496 1.381 . S
C498 C499 1.394 . S
C498 H506 0.930 . S
C499 C498 1.394 . S
C499 C500 1.383 . S
C499 H507 0.929 . S
C500 C499 1.383 . S
C500 C501 1.377 . S
C501 H485 0.930 . S
C501 C500 1.377 . S
C501 C502 1.379 . S
C502 H486 0.931 1_556 S
C502 C496 1.383 . S
C502 C501 1.379 . S
H503 C497 0.959 . S
H504 C497 0.961 . S
H505 C497 0.960 . S
H506 C498 0.930 . S
H507 C499 0.929 . S
H508 C516 0.929 . S
H509 C518 0.930 . S
H510 C520 0.930 . S
H511 C523 0.922 1_455 S
H512 C526 0.930 . S
H513 C528 0.960 . S
H514 C528 0.960 . S
H515 C528 0.960 . S
C516 H508 0.929 . S
C516 C517 1.377 . S
C516 C518 1.384 . S
C517 C516 1.377 . S
C517 C523 1.402 . S
C518 H509 0.930 . S
C518 C516 1.384 . S
C518 C519 1.372 . S
C519 C518 1.372 . S
C519 C520 1.400 1_655 S
C519 C524 1.491 1_655 S
C520 H510 0.930 . S
C520 C519 1.400 1_455 S
C520 C523 1.382 1_455 S
H521 C537 0.930 . S
H522 C538 0.931 1_554 S
C523 H511 0.922 1_655 S
C523 C517 1.402 . S
C523 C520 1.382 1_655 S
C524 C519 1.491 1_455 S
C524 C526 1.392 . S
C524 C527 1.405 1_455 S
H525 C531 0.930 . S
C526 H512 0.930 . S
C526 C524 1.392 . S
C526 C529 1.403 . S
C527 C524 1.405 1_655 S
C527 C528 1.524 . S
C527 C531 1.400 . S
C528 H513 0.960 . S
C528 H514 0.960 . S
C528 H515 0.960 . S
C528 C527 1.524 . S
C529 C526 1.403 . S
C529 C530 1.392 . S
C529 C533 1.495 1_554 S
C530 C529 1.392 . S
C530 C531 1.385 1_455 S
C530 C532 1.478 1_554 S
C531 H525 0.930 . S
C531 C527 1.400 . S
C531 C530 1.385 1_655 S
C532 C530 1.478 1_556 S
C532 C534 1.381 . S
C532 C538 1.383 . S
C533 C529 1.495 1_556 S
C533 H539 0.959 . S
C533 H540 0.961 . S
C533 H541 0.960 . S
C534 C532 1.381 . S
C534 C535 1.394 . S
C534 H542 0.930 1_455 S
C535 C534 1.394 . S
C535 C536 1.383 . S
C535 H543 0.929 1_455 S
C536 C535 1.383 . S
C536 C537 1.377 . S
C537 H521 0.930 . S
C537 C536 1.377 . S
C537 C538 1.379 . S
C538 H522 0.931 1_556 S
C538 C532 1.383 . S
C538 C537 1.379 . S
H539 C533 0.959 . S
H540 C533 0.961 . S
H541 C533 0.960 . S
H542 C534 0.930 1_655 S
H543 C535 0.929 1_655 S
H544 C552 0.929 . S
H545 C554 0.930 . S
H546 C556 0.930 . S
H547 C559 0.929 . S
H548 C562 0.930 . S
H549 C564 0.960 . S
H550 C564 0.960 . S
H551 C564 0.960 . S
C552 H544 0.929 . S
C552 C553 1.377 . S
C552 C554 1.384 . S
C553 C552 1.377 . S
C553 C559 1.390 . S
C554 H545 0.930 . S
C554 C552 1.384 . S
C554 C555 1.372 . S
C555 C554 1.372 . S
C555 C556 1.400 . S
C555 C560 1.490 . S
C556 H546 0.930 . S
C556 C555 1.400 . S
C556 C559 1.386 . S
H557 C573 0.930 . S
H558 C574 0.931 . S
C559 H547 0.929 . S
C559 C553 1.390 . S
C559 C556 1.386 . S
C560 C555 1.490 . S
C560 C562 1.395 . S
C560 C563 1.403 . S
H561 C567 0.930 . S
C562 H548 0.930 . S
C562 C560 1.395 . S
C562 C565 1.403 . S
C563 C560 1.403 . S
C563 C564 1.524 . S
C563 C567 1.400 . S
C564 H549 0.960 . S
C564 H550 0.960 . S
C564 H551 0.960 . S
C564 C563 1.524 . S
C565 C562 1.403 . S
C565 C566 1.392 . S
C565 C569 1.495 . S
C566 C565 1.392 . S
C566 C567 1.385 . S
C566 C568 1.478 . S
C567 H561 0.930 . S
C567 C563 1.400 . S
C567 C566 1.385 . S
C568 C566 1.478 . S
C568 C570 1.381 1_455 S
C568 C574 1.383 . S
C569 C565 1.495 . S
C569 H575 0.959 . S
C569 H576 0.961 . S
C569 H577 0.960 1_455 S
C570 C568 1.381 1_655 S
C570 C571 1.394 . S
C570 H578 0.930 . S
C571 C570 1.394 . S
C571 C572 1.383 . S
C571 H579 0.929 . S
C572 C571 1.383 . S
C572 C573 1.377 1_655 S
C573 H557 0.930 . S
C573 C572 1.377 1_455 S
C573 C574 1.379 . S
C574 H558 0.931 . S
C574 C568 1.383 . S
C574 C573 1.379 . S
H575 C569 0.959 . S
H576 C569 0.961 . S
H577 C569 0.960 1_655 S
H578 C570 0.930 . S
H579 C571 0.929 . S
H580 C588 0.929 . S
H581 C590 0.930 . S
H582 C592 0.930 . S
H583 C595 0.929 . S
H584 C598 0.930 . S
H585 C600 0.960 . S
H586 C600 0.960 . S
H587 C600 0.960 . S
C588 H580 0.929 . S
C588 C589 1.377 . S
C588 C590 1.384 . S
C589 C588 1.377 . S
C589 C595 1.390 1_545 S
C590 H581 0.930 . S
C590 C588 1.384 . S
C590 C591 1.372 1_545 S
C591 C590 1.372 1_565 S
C591 C592 1.400 . S
C591 C596 1.490 . S
C592 H582 0.930 . S
C592 C591 1.400 . S
C592 C595 1.386 . S
H593 C609 0.930 . S
H594 C610 0.931 . S
C595 H583 0.929 . S
C595 C589 1.390 1_565 S
C595 C592 1.386 . S
C596 C591 1.490 . S
C596 C598 1.395 . S
C596 C599 1.403 1_565 S
H597 C603 0.911 1_545 S
C598 H584 0.930 . S
C598 C596 1.395 . S
C598 C601 1.403 . S
C599 C596 1.403 1_545 S
C599 C600 1.524 . S
C599 C603 1.385 1_545 S
C600 H585 0.960 . S
C600 H586 0.960 . S
C600 H587 0.960 . S
C600 C599 1.524 . S
C601 C598 1.403 . S
C601 C602 1.392 . S
C601 C605 1.495 . S
C602 C601 1.392 . S
C602 C603 1.421 . S
C602 C604 1.478 . S
C603 H597 0.911 1_565 S
C603 C599 1.385 1_565 S
C603 C602 1.421 . S
C604 C602 1.478 . S
C604 C606 1.381 . S
C604 C610 1.383 . S
C605 C601 1.495 . S
C605 H611 0.959 . S
C605 H612 0.961 . S
C605 H613 0.960 . S
C606 C604 1.381 . S
C606 C607 1.394 . S
C606 H614 0.926 1_565 S
C607 C606 1.394 . S
C607 C608 1.383 . S
C607 H615 0.929 . S
C608 C607 1.383 . S
C608 C609 1.377 . S
C609 H593 0.930 . S
C609 C608 1.377 . S
C609 C610 1.379 . S
C610 H594 0.931 . S
C610 C604 1.383 . S
C610 C609 1.379 . S
H611 C605 0.959 . S
H612 C605 0.961 . S
H613 C605 0.960 . S
H614 C606 0.926 1_545 S
H615 C607 0.929 . S
H616 C624 0.929 . S
H617 C626 0.930 . S
H618 C628 0.930 . S
H619 C631 0.929 . S
H620 C634 0.930 . S
H621 C636 0.960 . S
H622 C636 0.960 . S
H623 C636 0.960 . S
C624 H616 0.929 . S
C624 C625 1.377 . S
C624 C626 1.384 . S
C625 C624 1.377 . S
C625 C631 1.390 . S
C626 H617 0.930 . S
C626 C624 1.384 . S
C626 C627 1.372 . S
C627 C626 1.372 . S
C627 C628 1.400 . S
C627 C632 1.490 . S
C628 H618 0.930 . S
C628 C627 1.400 . S
C628 C631 1.386 . S
H629 C645 0.930 . S
H630 C646 0.931 . S
C631 H619 0.929 . S
C631 C625 1.390 . S
C631 C628 1.386 . S
C632 C627 1.490 . S
C632 C634 1.395 . S
C632 C635 1.403 . S
H633 C639 0.930 . S
C634 H620 0.930 . S
C634 C632 1.395 . S
C634 C637 1.403 . S
C635 C632 1.403 . S
C635 C636 1.524 . S
C635 C639 1.400 . S
C636 H621 0.960 . S
C636 H622 0.960 . S
C636 H623 0.960 . S
C636 C635 1.524 . S
C637 C634 1.403 . S
C637 C638 1.392 . S
C637 C641 1.495 . S
C638 C637 1.392 . S
C638 C639 1.385 . S
C638 C640 1.478 . S
C639 H633 0.930 . S
C639 C635 1.400 . S
C639 C638 1.385 . S
C640 C638 1.478 . S
C640 C642 1.381 . S
C640 C646 1.383 . S
C641 C637 1.495 . S
C641 H647 0.959 . S
C641 H648 0.961 . S
C641 H649 0.960 . S
C642 C640 1.381 . S
C642 C643 1.394 . S
C642 H650 0.930 . S
C643 C642 1.394 . S
C643 C644 1.383 . S
C643 H651 0.929 . S
C644 C643 1.383 . S
C644 C645 1.377 . S
C645 H629 0.930 . S
C645 C644 1.377 . S
C645 C646 1.379 . S
C646 H630 0.931 . S
C646 C640 1.383 . S
C646 C645 1.379 . S
H647 C641 0.959 . S
H648 C641 0.961 . S
H649 C641 0.960 . S
H650 C642 0.930 . S
H651 C643 0.929 . S
H652 C660 0.929 . S
H653 C662 0.930 . S
H654 C664 0.930 . S
H655 C667 0.929 . S
H656 C670 0.930 . S
H657 C672 0.960 . S
H658 C672 0.960 . S
H659 C672 0.960 . S
C660 H652 0.929 . S
C660 C661 1.377 . S
C660 C662 1.384 . S
C661 C660 1.377 . S
C661 C667 1.390 . S
C662 H653 0.930 . S
C662 C660 1.384 . S
C662 C663 1.372 . S
C663 C662 1.372 . S
C663 C664 1.400 . S
C663 C668 1.490 . S
C664 H654 0.930 . S
C664 C663 1.400 . S
C664 C667 1.386 . S
H665 C681 0.930 . S
H666 C682 0.931 . S
C667 H655 0.929 . S
C667 C661 1.390 . S
C667 C664 1.386 . S
C668 C663 1.490 . S
C668 C670 1.395 . S
C668 C671 1.403 . S
H669 C675 0.930 . S
C670 H656 0.930 . S
C670 C668 1.395 . S
C670 C673 1.403 . S
C671 C668 1.403 . S
C671 C672 1.524 . S
C671 C675 1.400 . S
C672 H657 0.960 . S
C672 H658 0.960 . S
C672 H659 0.960 . S
C672 C671 1.524 . S
C673 C670 1.403 . S
C673 C674 1.392 . S
C673 C677 1.495 . S
C674 C673 1.392 . S
C674 C675 1.385 . S
C674 C676 1.478 . S
C675 H669 0.930 . S
C675 C671 1.400 . S
C675 C674 1.385 . S
C676 C674 1.478 . S
C676 C678 1.381 . S
C676 C682 1.383 . S
C677 C673 1.495 . S
C677 H683 0.959 . S
C677 H684 0.961 . S
C677 H685 0.960 . S
C678 C676 1.381 . S
C678 C679 1.394 . S
C678 H686 0.930 . S
C679 C678 1.394 . S
C679 C680 1.383 . S
C679 H687 0.929 . S
C680 C679 1.383 . S
C680 C681 1.377 . S
C681 H665 0.930 . S
C681 C680 1.377 . S
C681 C682 1.379 . S
C682 H666 0.931 . S
C682 C676 1.383 . S
C682 C681 1.379 . S
H683 C677 0.959 . S
H684 C677 0.961 . S
H685 C677 0.960 . S
H686 C678 0.930 . S
H687 C679 0.929 . S
H688 C696 0.929 . S
H689 C698 0.930 . S
H690 C700 0.930 . S
H691 C703 0.929 . S
H692 C706 0.930 . S
H693 C708 0.960 . S
H694 C708 0.960 . S
H695 C708 0.960 . S
C696 H688 0.929 . S
C696 C697 1.377 . S
C696 C698 1.384 . S
C697 C696 1.377 . S
C697 C703 1.390 1_655 S
C698 H689 0.930 . S
C698 C696 1.384 . S
C698 C699 1.372 1_655 S
C699 C698 1.372 1_455 S
C699 C700 1.400 . S
C699 C704 1.490 . S
C700 H690 0.930 . S
C700 C699 1.400 . S
C700 C703 1.386 . S
H701 C717 0.930 . S
H702 C718 0.931 . S
C703 H691 0.929 . S
C703 C697 1.390 1_455 S
C703 C700 1.386 . S
C704 C699 1.490 . S
C704 C706 1.395 1_455 S
C704 C707 1.403 . S
H705 C711 0.930 . S
C706 H692 0.930 . S
C706 C704 1.395 1_655 S
C706 C709 1.403 . S
C707 C704 1.403 . S
C707 C708 1.524 . S
C707 C711 1.400 . S
C708 H693 0.960 . S
C708 H694 0.960 . S
C708 H695 0.960 . S
C708 C707 1.524 . S
C709 C706 1.403 . S
C709 C710 1.392 1_655 S
C709 C713 1.495 . S
C710 C709 1.392 1_455 S
C710 C711 1.385 . S
C710 C712 1.478 . S
C711 H705 0.930 . S
C711 C707 1.400 . S
C711 C710 1.385 . S
C712 C710 1.478 . S
C712 C714 1.381 . S
C712 C718 1.383 . S
C713 C709 1.495 . S
C713 H719 0.959 . S
C713 H720 0.961 . S
C713 H721 0.960 . S
C714 C712 1.381 . S
C714 C715 1.394 1_554 S
C714 H722 0.930 1_554 S
C715 C714 1.394 1_556 S
C715 C716 1.383 1_556 S
C715 H723 0.929 . S
C716 C715 1.383 1_554 S
C716 C717 1.377 . S
C717 H701 0.930 . S
C717 C716 1.377 . S
C717 C718 1.379 . S
C718 H702 0.931 . S
C718 C712 1.383 . S
C718 C717 1.379 . S
H719 C713 0.959 . S
H720 C713 0.961 . S
H721 C713 0.960 . S
H722 C714 0.930 1_556 S
H723 C715 0.929 . S
H724 C732 0.929 . S
H725 C734 0.930 . S
H726 C736 0.930 . S
H727 C739 0.929 . S
H728 C742 0.930 . S
H729 C744 0.960 . S
H730 C744 0.960 . S
H731 C744 0.960 . S
C732 H724 0.929 . S
C732 C733 1.384 . S
C732 C734 1.384 . S
C733 C732 1.384 . S
C733 C739 1.374 1_565 S
C734 H725 0.930 . S
C734 C732 1.384 . S
C734 C735 1.372 1_565 S
C735 C734 1.372 1_545 S
C735 C736 1.400 . S
C735 C740 1.490 . S
C736 H726 0.930 . S
C736 C735 1.400 . S
C736 C739 1.386 . S
H737 C753 0.930 . S
H738 C754 0.931 . S
C739 H727 0.929 . S
C739 C733 1.374 1_545 S
C739 C736 1.386 . S
C740 C735 1.490 . S
C740 C742 1.395 1_545 S
C740 C743 1.403 . S
H741 C747 0.930 . S
C742 H728 0.930 . S
C742 C740 1.395 1_565 S
C742 C745 1.403 . S
C743 C740 1.403 . S
C743 C744 1.524 . S
C743 C747 1.400 . S
C744 H729 0.960 . S
C744 H730 0.960 . S
C744 H731 0.960 . S
C744 C743 1.524 . S
C745 C742 1.403 . S
C745 C746 1.392 1_565 S
C745 C749 1.495 . S
C746 C745 1.392 1_545 S
C746 C747 1.385 . S
C746 C748 1.478 . S
C747 H741 0.930 . S
C747 C743 1.400 . S
C747 C746 1.385 . S
C748 C746 1.478 . S
C748 C750 1.381 . S
C748 C754 1.383 . S
C749 C745 1.495 . S
C749 H755 0.959 . S
C749 H756 0.961 . S
C749 H757 0.960 . S
C750 C748 1.381 . S
C750 C751 1.394 . S
C750 H758 0.944 . S
C751 C750 1.394 . S
C751 C752 1.383 . S
C751 H759 0.929 1_554 S
C752 C751 1.383 . S
C752 C753 1.377 . S
C753 H737 0.930 . S
C753 C752 1.377 . S
C753 C754 1.379 . S
C754 H738 0.931 . S
C754 C748 1.383 . S
C754 C753 1.379 . S
H755 C749 0.959 . S
H756 C749 0.961 . S
H757 C749 0.960 . S
H758 C750 0.944 . S
H759 C751 0.929 1_556 S
H760 C768 0.929 . S
H761 C770 0.930 . S
H762 C772 0.930 . S
H763 C775 0.929 . S
H764 C778 0.930 . S
H765 C780 0.960 . S
H766 C780 0.960 . S
H767 C780 0.960 . S
C768 H760 0.929 . S
C768 C769 1.377 . S
C768 C770 1.384 . S
C769 C768 1.377 . S
C769 C775 1.390 . S
C770 H761 0.930 . S
C770 C768 1.384 . S
C770 C771 1.372 . S
C771 C770 1.372 . S
C771 C772 1.400 . S
C771 C776 1.490 . S
C772 H762 0.930 . S
C772 C771 1.400 . S
C772 C775 1.386 . S
H773 C789 0.930 . S
H774 C790 0.931 . S
C775 H763 0.929 . S
C775 C769 1.390 . S
C775 C772 1.386 . S
C776 C771 1.490 . S
C776 C778 1.395 . S
C776 C779 1.403 . S
H777 C783 0.930 . S
C778 H764 0.930 . S
C778 C776 1.395 . S
C778 C781 1.403 . S
C779 C776 1.403 . S
C779 C780 1.524 1_556 S
C779 C783 1.400 . S
C780 H765 0.960 . S
C780 H766 0.960 . S
C780 H767 0.960 . S
C780 C779 1.524 1_554 S
C781 C778 1.403 . S
C781 C782 1.392 . S
C781 C785 1.495 . S
C782 C781 1.392 . S
C782 C783 1.385 . S
C782 C784 1.478 . S
C783 H777 0.930 . S
C783 C779 1.400 . S
C783 C782 1.385 . S
C784 C782 1.478 . S
C784 C786 1.381 . S
C784 C790 1.383 . S
C785 C781 1.495 . S
C785 H791 0.959 . S
C785 H792 0.961 . S
C785 H793 0.960 . S
C786 C784 1.381 . S
C786 C787 1.394 . S
C786 H794 0.930 . S
C787 C786 1.394 . S
C787 C788 1.383 . S
C787 H795 0.929 . S
C788 C787 1.383 . S
C788 C789 1.377 . S
C789 H773 0.930 . S
C789 C788 1.377 . S
C789 C790 1.379 . S
C790 H774 0.931 . S
C790 C784 1.383 . S
C790 C789 1.379 . S
H791 C785 0.959 . S
H792 C785 0.961 . S
H793 C785 0.960 . S
H794 C786 0.930 . S
H795 C787 0.929 . S
H796 C804 0.929 . S
H797 C806 0.930 . S
H798 C808 0.930 . S
H799 C811 0.929 . S
H800 C814 0.930 . S
H801 C816 0.960 . S
H802 C816 0.960 . S
H803 C816 0.960 . S
C804 H796 0.929 . S
C804 C805 1.377 . S
C804 C806 1.384 . S
C805 C804 1.377 . S
C805 C811 1.390 . S
C806 H797 0.930 . S
C806 C804 1.384 . S
C806 C807 1.372 . S
C807 C806 1.372 . S
C807 C808 1.400 . S
C807 C812 1.490 . S
C808 H798 0.930 . S
C808 C807 1.400 . S
C808 C811 1.386 . S
H809 C825 0.930 . S
H810 C826 0.931 . S
C811 H799 0.929 . S
C811 C805 1.390 . S
C811 C808 1.386 . S
C812 C807 1.490 . S
C812 C814 1.395 . S
C812 C815 1.403 . S
H813 C819 0.930 . S
C814 H800 0.930 . S
C814 C812 1.395 . S
C814 C817 1.403 . S
C815 C812 1.403 . S
C815 C816 1.524 . S
C815 C819 1.400 . S
C816 H801 0.960 . S
C816 H802 0.960 . S
C816 H803 0.960 . S
C816 C815 1.524 . S
C817 C814 1.403 . S
C817 C818 1.392 . S
C817 C821 1.495 . S
C818 C817 1.392 . S
C818 C819 1.385 . S
C818 C820 1.478 . S
C819 H813 0.930 . S
C819 C815 1.400 . S
C819 C818 1.385 . S
C820 C818 1.478 . S
C820 C822 1.381 . S
C820 C826 1.383 . S
C821 C817 1.495 . S
C821 H827 0.959 . S
C821 H828 0.961 . S
C821 H829 0.960 . S
C822 C820 1.381 . S
C822 C823 1.394 . S
C822 H830 0.930 . S
C823 C822 1.394 . S
C823 C824 1.383 . S
C823 H831 0.929 1_554 S
C824 C823 1.383 . S
C824 C825 1.377 . S
C825 H809 0.930 . S
C825 C824 1.377 . S
C825 C826 1.379 . S
C826 H810 0.931 . S
C826 C820 1.383 . S
C826 C825 1.379 . S
H827 C821 0.959 . S
H828 C821 0.961 . S
H829 C821 0.960 . S
H830 C822 0.930 . S
H831 C823 0.929 1_556 S
H832 C840 0.929 . S
H833 C842 0.930 1_556 S
H834 C844 0.930 . S
H835 C847 0.929 . S
H836 C850 0.930 . S
H837 C852 0.960 . S
H838 C852 0.960 . S
H839 C852 0.960 . S
C840 H832 0.929 . S
C840 C841 1.377 . S
C840 C842 1.384 . S
C841 C840 1.377 . S
C841 C847 1.390 . S
C842 H833 0.930 1_554 S
C842 C840 1.384 . S
C842 C843 1.372 . S
C843 C842 1.372 . S
C843 C844 1.400 . S
C843 C848 1.490 . S
C844 H834 0.930 . S
C844 C843 1.400 . S
C844 C847 1.386 . S
H845 C861 0.930 . S
H846 C862 0.931 . S
C847 H835 0.929 . S
C847 C841 1.390 . S
C847 C844 1.386 . S
C848 C843 1.490 . S
C848 C850 1.395 1_554 S
C848 C851 1.403 . S
H849 C855 0.930 . S
C850 H836 0.930 . S
C850 C848 1.395 1_556 S
C850 C853 1.403 . S
C851 C848 1.403 . S
C851 C852 1.524 . S
C851 C855 1.400 . S
C852 H837 0.960 . S
C852 H838 0.960 . S
C852 H839 0.960 . S
C852 C851 1.524 . S
C853 C850 1.403 . S
C853 C854 1.392 . S
C853 C857 1.495 . S
C854 C853 1.392 . S
C854 C855 1.385 1_556 S
C854 C856 1.478 . S
C855 H849 0.930 . S
C855 C851 1.400 . S
C855 C854 1.385 1_554 S
C856 C854 1.478 . S
C856 C858 1.381 . S
C856 C862 1.383 . S
C857 C853 1.495 . S
C857 H863 0.959 . S
C857 H864 0.961 . S
C857 H865 0.960 . S
C858 C856 1.381 . S
C858 C859 1.394 . S
C858 H866 0.930 . S
C859 C858 1.394 . S
C859 C860 1.383 . S
C859 H867 0.929 . S
C860 C859 1.383 . S
C860 C861 1.377 . S
C861 H845 0.930 . S
C861 C860 1.377 . S
C861 C862 1.379 . S
C862 H846 0.931 . S
C862 C856 1.383 . S
C862 C861 1.379 . S
H863 C857 0.959 . S
H864 C857 0.961 . S
H865 C857 0.960 . S
H866 C858 0.930 . S
H867 C859 0.929 . S
H868 C876 0.929 . S
H869 C878 0.930 . S
H870 C880 0.930 . S
H871 C883 0.929 . S
H872 C886 0.930 . S
H873 C888 0.962 . S
H874 C888 0.992 . S
H875 C888 0.934 1_545 S
C876 H868 0.929 . S
C876 C877 1.365 1_566 S
C876 C878 1.384 . S
C877 C876 1.365 1_544 S
C877 C883 1.403 . S
C878 H869 0.930 . S
C878 C876 1.384 . S
C878 C879 1.345 1_566 S
C879 C878 1.345 1_544 S
C879 C880 1.426 . S
C879 C884 1.493 1_554 S
C880 H870 0.930 . S
C880 C879 1.426 . S
C880 C883 1.386 . S
H881 C897 0.930 . S
H882 C898 0.931 . S
C883 H871 0.929 . S
C883 C877 1.403 . S
C883 C880 1.386 . S
C884 C879 1.493 1_556 S
C884 C886 1.395 . S
C884 C887 1.403 1_556 S
H885 C891 0.930 1_554 S
C886 H872 0.930 . S
C886 C884 1.395 . S
C886 C889 1.403 . S
C887 C884 1.403 1_554 S
C887 C888 1.515 1_545 S
C887 C891 1.400 1_554 S
C888 H873 0.962 . S
C888 H874 0.992 . S
C888 H875 0.934 1_565 S
C888 C887 1.515 1_565 S
C889 C886 1.403 . S
C889 C890 1.392 . S
C889 C893 1.495 . S
C890 C889 1.392 . S
C890 C891 1.385 . S
C890 C892 1.478 . S
C891 H885 0.930 1_556 S
C891 C887 1.400 1_556 S
C891 C890 1.385 . S
C892 C890 1.478 . S
C892 C894 1.381 1_545 S
C892 C898 1.383 . S
C893 C889 1.495 . S
C893 H899 0.959 . S
C893 H900 0.961 . S
C893 H901 0.960 1_545 S
C894 C892 1.381 1_565 S
C894 C895 1.394 . S
C894 H902 0.930 . S
C895 C894 1.394 . S
C895 C896 1.383 1_565 S
C895 H903 0.929 . S
C896 C895 1.383 1_545 S
C896 C897 1.377 . S
C897 H881 0.930 . S
C897 C896 1.377 . S
C897 C898 1.379 . S
C898 H882 0.931 . S
C898 C892 1.383 . S
C898 C897 1.379 . S
H899 C893 0.959 . S
H900 C893 0.961 . S
H901 C893 0.960 1_565 S
H902 C894 0.930 . S
H903 C895 0.929 . S
H904 C912 0.929 . S
H905 C914 0.930 . S
H906 C916 0.930 . S
H907 C919 0.929 . S
H908 C922 0.930 . S
H909 C924 0.960 . S
H910 C924 0.960 . S
H911 C924 0.960 . S
C912 H904 0.929 . S
C912 C913 1.377 . S
C912 C914 1.384 . S
C913 C912 1.377 . S
C913 C919 1.390 . S
C914 H905 0.930 . S
C914 C912 1.384 . S
C914 C915 1.372 . S
C915 C914 1.372 . S
C915 C916 1.400 . S
C915 C920 1.490 . S
C916 H906 0.930 . S
C916 C915 1.400 . S
C916 C919 1.386 . S
H917 C933 0.930 . S
H918 C934 0.931 . S
C919 H907 0.929 . S
C919 C913 1.390 . S
C919 C916 1.386 . S
C920 C915 1.490 . S
C920 C922 1.395 . S
C920 C923 1.403 . S
H921 C927 0.930 . S
C922 H908 0.930 . S
C922 C920 1.395 . S
C922 C925 1.403 . S
C923 C920 1.403 . S
C923 C924 1.524 . S
C923 C927 1.400 . S
C924 H909 0.960 . S
C924 H910 0.960 . S
C924 H911 0.960 . S
C924 C923 1.524 . S
C925 C922 1.403 . S
C925 C926 1.392 . S
C925 C929 1.495 . S
C926 C925 1.392 . S
C926 C927 1.385 . S
C926 C928 1.478 . S
C927 H921 0.930 . S
C927 C923 1.400 . S
C927 C926 1.385 . S
C928 C926 1.478 . S
C928 C930 1.381 . S
C928 C934 1.383 . S
C929 C925 1.495 . S
C929 H935 0.959 . S
C929 H936 0.961 . S
C929 H937 0.960 . S
C930 C928 1.381 . S
C930 C931 1.394 . S
C930 H938 0.930 . S
C931 C930 1.394 . S
C931 C932 1.383 . S
C931 H939 0.929 . S
C932 C931 1.383 . S
C932 C933 1.377 . S
C933 H917 0.930 . S
C933 C932 1.377 . S
C933 C934 1.379 . S
C934 H918 0.931 . S
C934 C928 1.383 . S
C934 C933 1.379 . S
H935 C929 0.959 . S
H936 C929 0.961 . S
H937 C929 0.960 . S
H938 C930 0.930 . S
H939 C931 0.929 . S
H940 C948 0.929 . S
H941 C950 0.930 . S
H942 C952 0.930 . S
H943 C955 0.929 . S
H944 C958 0.930 . S
H945 C960 0.960 . S
H946 C960 0.960 1_556 S
H947 C960 0.960 . S
C948 H940 0.929 . S
C948 C949 1.377 1_556 S
C948 C950 1.384 . S
C949 C948 1.377 1_554 S
C949 C955 1.390 . S
C950 H941 0.930 . S
C950 C948 1.384 . S
C950 C951 1.372 . S
C951 C950 1.372 . S
C951 C952 1.400 1_556 S
C951 C956 1.490 . S
C952 H942 0.930 . S
C952 C951 1.400 1_554 S
C952 C955 1.386 . S
H953 C969 0.930 . S
H954 C970 0.931 1_554 S
C955 H943 0.929 . S
C955 C949 1.390 . S
C955 C952 1.386 . S
C956 C951 1.490 . S
C956 C958 1.395 . S
C956 C959 1.403 . S
H957 C963 0.930 . S
C958 H944 0.930 . S
C958 C956 1.395 . S
C958 C961 1.403 . S
C959 C956 1.403 . S
C959 C960 1.524 1_556 S
C959 C963 1.400 . S
C960 H945 0.960 . S
C960 H946 0.960 1_554 S
C960 H947 0.960 . S
C960 C959 1.524 1_554 S
C961 C958 1.403 . S
C961 C962 1.392 . S
C961 C965 1.495 . S
C962 C961 1.392 . S
C962 C963 1.385 . S
C962 C964 1.478 . S
C963 H957 0.930 . S
C963 C959 1.400 . S
C963 C962 1.385 . S
C964 C962 1.478 . S
C964 C966 1.381 . S
C964 C970 1.383 . S
C965 C961 1.495 . S
C965 H971 0.959 . S
C965 H972 0.961 . S
C965 H973 0.960 . S
C966 C964 1.381 . S
C966 C967 1.394 . S
C966 H974 0.930 . S
C967 C966 1.394 . S
C967 C968 1.383 . S
C967 H975 0.929 . S
C968 C967 1.383 . S
C968 C969 1.377 . S
C969 H953 0.930 . S
C969 C968 1.377 . S
C969 C970 1.379 . S
C970 H954 0.931 1_556 S
C970 C964 1.383 . S
C970 C969 1.379 . S
H971 C965 0.959 . S
H972 C965 0.961 . S
H973 C965 0.960 . S
H974 C966 0.930 . S
H975 C967 0.929 . S
H976 C984 0.929 . S
H977 C986 0.930 . S
H978 C988 0.930 . S
H979 C991 0.929 . S
H980 C994 0.930 . S
H981 C996 0.960 . S
H982 C996 0.960 . S
H983 C996 0.960 . S
C984 H976 0.929 . S
C984 C985 1.377 1_455 S
C984 C986 1.384 . S
C985 C984 1.377 1_655 S
C985 C991 1.390 . S
C986 H977 0.930 . S
C986 C984 1.384 . S
C986 C987 1.372 1_455 S
C987 C986 1.372 1_655 S
C987 C988 1.400 . S
C987 C992 1.490 . S
C988 H978 0.930 . S
C988 C987 1.400 . S
C988 C991 1.386 . S
H989 C1005 0.930 . S
H990 C1006 0.931 . S
C991 H979 0.929 . S
C991 C985 1.390 . S
C991 C988 1.386 . S
C992 C987 1.490 . S
C992 C994 1.395 1_655 S
C992 C995 1.403 . S
H993 C999 0.930 . S
C994 H980 0.930 . S
C994 C992 1.395 1_455 S
C994 C997 1.403 . S
C995 C992 1.403 . S
C995 C996 1.524 . S
C995 C999 1.400 . S
C996 H981 0.960 . S
C996 H982 0.960 . S
C996 H983 0.960 . S
C996 C995 1.524 . S
C997 C994 1.403 . S
C997 C998 1.398 . S
C997 C1001 1.495 . S
C998 C997 1.398 . S
C998 C999 1.379 1_455 S
C998 C1000 1.478 . S
C999 H993 0.930 . S
C999 C995 1.400 . S
C999 C998 1.379 1_655 S
C1000 C998 1.478 . S
C1000 C1002 1.430 . S
C1000 C1006 1.334 1_455 S
C1001 C997 1.495 . S
C1001 H1007 0.959 . S
C1001 H1008 0.961 . S
C1001 H1009 0.960 . S
C1002 C1000 1.430 . S
C1002 C1003 1.394 . S
C1002 H1010 0.930 . S
C1003 C1002 1.394 . S
C1003 C1004 1.383 . S
C1003 H1011 0.929 . S
C1004 C1003 1.383 . S
C1004 C1005 1.377 1_455 S
C1005 H989 0.930 . S
C1005 C1004 1.377 1_655 S
C1005 C1006 1.379 . S
C1006 H990 0.931 . S
C1006 C1000 1.334 1_655 S
C1006 C1005 1.379 . S
H1007 C1001 0.959 . S
H1008 C1001 0.961 . S
H1009 C1001 0.960 . S
H1010 C1002 0.930 . S
H1011 C1003 0.929 . S
H1012 C1020 0.929 . S
H1013 C1022 0.930 . S
H1014 C1024 0.930 . S
H1015 C1027 0.929 . S
H1016 C1030 0.930 . S
H1017 C1032 0.960 . S
H1018 C1032 0.960 . S
H1019 C1032 0.960 . S
C1020 H1012 0.929 . S
C1020 C1021 1.367 1_545 S
C1020 C1022 1.384 . S
C1021 C1020 1.367 1_565 S
C1021 C1027 1.400 . S
C1022 H1013 0.930 . S
C1022 C1020 1.384 . S
C1022 C1023 1.351 1_545 S
C1023 C1022 1.351 1_565 S
C1023 C1024 1.420 . S
C1023 C1028 1.490 . S
C1024 H1014 0.930 . S
C1024 C1023 1.420 . S
C1024 C1027 1.386 . S
H1025 C1041 0.930 . S
H1026 C1042 0.931 . S
C1027 H1015 0.929 . S
C1027 C1021 1.400 . S
C1027 C1024 1.386 . S
C1028 C1023 1.490 . S
C1028 C1030 1.373 1_565 S
C1028 C1031 1.425 . S
H1029 C1035 0.930 . S
C1030 H1016 0.930 . S
C1030 C1028 1.373 1_545 S
C1030 C1033 1.403 . S
C1031 C1028 1.425 . S
C1031 C1032 1.524 . S
C1031 C1035 1.400 . S
C1032 H1017 0.960 . S
C1032 H1018 0.960 . S
C1032 H1019 0.960 . S
C1032 C1031 1.524 . S
C1033 C1030 1.403 . S
C1033 C1034 1.371 1_545 S
C1033 C1037 1.495 . S
C1034 C1033 1.371 1_565 S
C1034 C1035 1.406 . S
C1034 C1036 1.480 . S
C1035 H1029 0.930 . S
C1035 C1031 1.400 . S
C1035 C1034 1.406 . S
C1036 C1034 1.480 . S
C1036 C1038 1.381 1_565 S
C1036 C1042 1.383 . S
C1037 C1033 1.495 . S
C1037 H1043 0.959 . S
C1037 H1044 0.961 . S
C1037 H1045 0.960 . S
C1038 C1036 1.381 1_545 S
C1038 C1039 1.394 . S
C1038 H1046 0.930 . S
C1039 C1038 1.394 . S
C1039 C1040 1.383 1_545 S
C1039 H1047 0.929 . S
C1040 C1039 1.383 1_565 S
C1040 C1041 1.377 . S
C1041 H1025 0.930 . S
C1041 C1040 1.377 . S
C1041 C1042 1.379 . S
C1042 H1026 0.931 . S
C1042 C1036 1.383 . S
C1042 C1041 1.379 . S
H1043 C1037 0.959 . S
H1044 C1037 0.961 . S
H1045 C1037 0.960 . S
H1046 C1038 0.930 . S
H1047 C1039 0.929 . S
H1048 C1056 0.929 . S
H1049 C1058 0.930 . S
H1050 C1060 0.930 . S
H1051 C1063 0.929 . S
H1052 C1066 0.930 . S
H1053 C1068 0.960 . S
H1054 C1068 0.960 . S
H1055 C1068 0.960 . S
C1056 H1048 0.929 . S
C1056 C1057 1.377 . S
C1056 C1058 1.384 . S
C1057 C1056 1.377 . S
C1057 C1063 1.390 . S
C1058 H1049 0.930 . S
C1058 C1056 1.384 . S
C1058 C1059 1.372 . S
C1059 C1058 1.372 . S
C1059 C1060 1.400 . S
C1059 C1064 1.490 . S
C1060 H1050 0.930 . S
C1060 C1059 1.400 . S
C1060 C1063 1.386 . S
H1061 C1077 0.930 . S
H1062 C1078 0.931 . S
C1063 H1051 0.929 . S
C1063 C1057 1.390 . S
C1063 C1060 1.386 . S
C1064 C1059 1.490 . S
C1064 C1066 1.395 . S
C1064 C1067 1.403 . S
H1065 C1071 0.930 . S
C1066 H1052 0.930 . S
C1066 C1064 1.395 . S
C1066 C1069 1.403 . S
C1067 C1064 1.403 . S
C1067 C1068 1.524 . S
C1067 C1071 1.400 . S
C1068 H1053 0.960 . S
C1068 H1054 0.960 . S
C1068 H1055 0.960 . S
C1068 C1067 1.524 . S
C1069 C1066 1.403 . S
C1069 C1070 1.392 . S
C1069 C1073 1.495 . S
C1070 C1069 1.392 . S
C1070 C1071 1.385 . S
C1070 C1072 1.478 . S
C1071 H1065 0.930 . S
C1071 C1067 1.400 . S
C1071 C1070 1.385 . S
C1072 C1070 1.478 . S
C1072 C1074 1.381 . S
C1072 C1078 1.383 . S
C1073 C1069 1.495 . S
C1073 H1079 0.959 . S
C1073 H1080 0.961 . S
C1073 H1081 0.960 . S
C1074 C1072 1.381 . S
C1074 C1075 1.394 . S
C1074 H1082 0.930 . S
C1075 C1074 1.394 . S
C1075 C1076 1.383 . S
C1075 H1083 0.929 . S
C1076 C1075 1.383 . S
C1076 C1077 1.377 . S
C1077 H1061 0.930 . S
C1077 C1076 1.377 . S
C1077 C1078 1.379 . S
C1078 H1062 0.931 . S
C1078 C1072 1.383 . S
C1078 C1077 1.379 . S
H1079 C1073 0.959 . S
H1080 C1073 0.961 . S
H1081 C1073 0.960 . S
H1082 C1074 0.930 . S
H1083 C1075 0.929 . S
H1084 C1092 0.929 . S
H1085 C1094 0.930 . S
H1086 C1096 0.930 . S
H1087 C1099 0.929 . S
H1088 C1102 0.930 . S
H1089 C1104 0.960 . S
H1090 C1104 0.960 . S
H1091 C1104 0.960 . S
C1092 H1084 0.929 . S
C1092 C1093 1.377 . S
C1092 C1094 1.384 . S
C1093 C1092 1.377 . S
C1093 C1099 1.390 . S
C1094 H1085 0.930 . S
C1094 C1092 1.384 . S
C1094 C1095 1.372 . S
C1095 C1094 1.372 . S
C1095 C1096 1.400 . S
C1095 C1100 1.490 . S
C1096 H1086 0.930 . S
C1096 C1095 1.400 . S
C1096 C1099 1.386 . S
H1097 C1113 0.930 . S
H1098 C1114 0.931 . S
C1099 H1087 0.929 . S
C1099 C1093 1.390 . S
C1099 C1096 1.386 . S
C1100 C1095 1.490 . S
C1100 C1102 1.395 . S
C1100 C1103 1.403 . S
H1101 C1107 0.930 . S
C1102 H1088 0.930 . S
C1102 C1100 1.395 . S
C1102 C1105 1.403 . S
C1103 C1100 1.403 . S
C1103 C1104 1.524 . S
C1103 C1107 1.400 . S
C1104 H1089 0.960 . S
C1104 H1090 0.960 . S
C1104 H1091 0.960 . S
C1104 C1103 1.524 . S
C1105 C1102 1.403 . S
C1105 C1106 1.392 . S
C1105 C1109 1.495 . S
C1106 C1105 1.392 . S
C1106 C1107 1.385 . S
C1106 C1108 1.478 . S
C1107 H1101 0.930 . S
C1107 C1103 1.400 . S
C1107 C1106 1.385 . S
C1108 C1106 1.478 . S
C1108 C1110 1.381 . S
C1108 C1114 1.383 . S
C1109 C1105 1.495 . S
C1109 H1115 0.959 . S
C1109 H1116 0.961 . S
C1109 H1117 0.960 . S
C1110 C1108 1.381 . S
C1110 C1111 1.394 . S
C1110 H1118 0.930 . S
C1111 C1110 1.394 . S
C1111 C1112 1.383 . S
C1111 H1119 0.929 . S
C1112 C1111 1.383 . S
C1112 C1113 1.377 . S
C1113 H1097 0.930 . S
C1113 C1112 1.377 . S
C1113 C1114 1.379 . S
C1114 H1098 0.931 . S
C1114 C1108 1.383 . S
C1114 C1113 1.379 . S
H1115 C1109 0.959 . S
H1116 C1109 0.961 . S
H1117 C1109 0.960 . S
H1118 C1110 0.930 . S
H1119 C1111 0.929 . S
C265 C76 1.756 1_545 S
C284 C119 1.858 1_545 S
C320 C159 1.667 . S
C301 C88 1.669 . S
C356 C178 1.878 . S
C337 C52 1.771 . S
C392 C239 1.365 . S
C373 C64 1.288 . S
C428 C98 1.863 1_565 S
C409 C28 1.754 1_545 S
C445 C40 1.678 . S
C464 C138 1.672 . S
C481 C4 1.769 . S
C500 C199 1.865 . S
C517 C16 1.294 . S
C536 C218 1.339 . S
C572 C100 0.665 . S
C553 C69 0.635 . S
C608 C140 0.274 . S
C589 C81 0.306 . S
C644 C196 0.582 . S
C625 C93 0.649 . S
C661 C57 0.310 . S
C680 C220 0.297 . S
C697 C21 0.647 . S
C716 C121 0.598 . S
C752 C161 0.149 . S
C733 C33 0.322 1_565 S
C788 C207 0.613 . S
C769 C45 0.662 . S
C805 C9 0.344 . S
C824 C241 0.214 . S
C841 C66 1.407 . S
C860 C116 1.512 . S
C877 C78 2.044 . S
C896 C156 2.203 . S
C932 C180 1.451 . S
C913 C90 1.431 . S
C968 C236 2.208 . S
C949 C54 2.047 . S
C985 C18 1.409 . S
C1004 C127 1.515 . S
C1040 C167 2.203 . S
C1021 C30 2.043 1_565 S
C1076 C201 1.456 . S
C1057 C42 1.433 . S
C1093 C6 2.046 . S
C1112 C247 2.197 . S
