# Generated by pormake.
# Topology zzz, (3,6)-cn, num edge types: 1
# Building blocks:
#     Node 0, Type 0, BuildingBlock: PAMTOO_clean_linker_0, # of connection points: 3
#     Node 1, Type 0, BuildingBlock: PAMTOO_clean_linker_0, # of connection points: 3
#     Node 2, Type 0, BuildingBlock: PAMTOO_clean_linker_0, # of connection points: 3
#     Node 3, Type 0, BuildingBlock: PAMTOO_clean_linker_0, # of connection points: 3
#     Node 4, Type 0, BuildingBlock: PAMTOO_clean_linker_0, # of connection points: 3
#     Node 5, Type 0, BuildingBlock: PAMTOO_clean_linker_0, # of connection points: 3
#     Node 6, Type 0, BuildingBlock: PAMTOO_clean_linker_0, # of connection points: 3
#     Node 7, Type 0, BuildingBlock: PAMTOO_clean_linker_0, # of connection points: 3
#     Node 8, Type 1, BuildingBlock: PAMTUU_clean_sbu_0, # of connection points: 6
#     Node 9, Type 1, BuildingBlock: PAMTUU_clean_sbu_0, # of connection points: 6
#     Node 10, Type 1, BuildingBlock: PAMTUU_clean_sbu_0, # of connection points: 6
#     Node 11, Type 1, BuildingBlock: PAMTUU_clean_sbu_0, # of connection points: 6
#     Edge 12, Type (0, 1), BuildingBlock: XIVTED_clean_linker_0, # of connection points: 2
#     Edge 13, Type (0, 1), BuildingBlock: XIVTED_clean_linker_0, # of connection points: 2
#     Edge 14, Type (0, 1), BuildingBlock: XIVTED_clean_linker_0, # of connection points: 2
#     Edge 15, Type (0, 1), BuildingBlock: XIVTED_clean_linker_0, # of connection points: 2
#     Edge 16, Type (0, 1), BuildingBlock: XIVTED_clean_linker_0, # of connection points: 2
#     Edge 17, Type (0, 1), BuildingBlock: XIVTED_clean_linker_0, # of connection points: 2
#     Edge 18, Type (0, 1), BuildingBlock: XIVTED_clean_linker_0, # of connection points: 2
#     Edge 19, Type (0, 1), BuildingBlock: XIVTED_clean_linker_0, # of connection points: 2
#     Edge 20, Type (0, 1), BuildingBlock: XIVTED_clean_linker_0, # of connection points: 2
#     Edge 21, Type (0, 1), BuildingBlock: XIVTED_clean_linker_0, # of connection points: 2
#     Edge 22, Type (0, 1), BuildingBlock: XIVTED_clean_linker_0, # of connection points: 2
#     Edge 23, Type (0, 1), BuildingBlock: XIVTED_clean_linker_0, # of connection points: 2
#     Edge 24, Type (0, 1), BuildingBlock: XIVTED_clean_linker_0, # of connection points: 2
#     Edge 25, Type (0, 1), BuildingBlock: XIVTED_clean_linker_0, # of connection points: 2
#     Edge 26, Type (0, 1), BuildingBlock: XIVTED_clean_linker_0, # of connection points: 2
#     Edge 27, Type (0, 1), BuildingBlock: XIVTED_clean_linker_0, # of connection points: 2
#     Edge 28, Type (0, 1), BuildingBlock: XIVTED_clean_linker_0, # of connection points: 2
#     Edge 29, Type (0, 1), BuildingBlock: XIVTED_clean_linker_0, # of connection points: 2
#     Edge 30, Type (0, 1), BuildingBlock: XIVTED_clean_linker_0, # of connection points: 2
#     Edge 31, Type (0, 1), BuildingBlock: XIVTED_clean_linker_0, # of connection points: 2
#     Edge 32, Type (0, 1), BuildingBlock: XIVTED_clean_linker_0, # of connection points: 2
#     Edge 33, Type (0, 1), BuildingBlock: XIVTED_clean_linker_0, # of connection points: 2
#     Edge 34, Type (0, 1), BuildingBlock: XIVTED_clean_linker_0, # of connection points: 2
#     Edge 35, Type (0, 1), BuildingBlock: XIVTED_clean_linker_0, # of connection points: 2
# Relax obj value: 0.214
# Max RMSD: 0.225
# Mean RMSD: 0.119
data_MOF--net-zzz--node1-PAMTUU_clean_sbu_0--node2-PAMTOO_clean_linker_0--edge1-XIVTED_clean_linker_0
_symmetry_space_group_name_H-M    P1
_symmetry_Int_Tables_number       1
_symmetry_cell_setting            triclinic
loop_
_symmetry_equiv_pos_as_xyz
'x, y, z'
_cell_length_a     51.232739
_cell_length_b     54.672062
_cell_length_c     15.677
_cell_angle_alpha  101.31971
_cell_angle_beta   90.078536
_cell_angle_gamma 90.87553
loop_
_atom_site_label
_atom_site_type_symbol
_atom_site_fract_x
_atom_site_fract_y
_atom_site_fract_z
_atom_type_partial_charge
H0 H 0.81772 0.54665 0.43339 0.0
H1 H 0.74137 0.53851 0.31806 0.0
H2 H 0.76236 0.49471 0.50806 0.0
H3 H 0.7109 0.46984 0.35201 0.0
C4 C 0.71639 0.48707 0.32836 0.0
O5 O 0.72413 0.50522 0.39996 0.0
H6 H 0.73313 0.48187 0.28346 0.0
C7 C 0.79816 0.53869 0.43102 0.0
C8 C 0.79249 0.52093 0.48236 0.0
C9 C 0.78007 0.5451 0.37198 0.0
C10 C 0.75534 0.53382 0.36409 0.0
C11 C 0.74876 0.51546 0.41134 0.0
C12 C 0.76747 0.50873 0.47061 0.0
H13 H 0.01841 0.80446 0.43045 0.0
H14 H 1.00475 0.73155 0.27425 0.0
H15 H 0.96926 0.75167 0.52693 0.0
H16 H 0.97885 0.69337 0.47952 0.0
C17 C 0.98782 0.69589 0.41723 0.0
O18 O 0.97561 0.71547 0.39028 0.0
H19 H 1.00903 0.69995 0.42935 0.0
C20 C 1.01006 0.78577 0.42293 0.0
C21 C 0.99376 0.78004 0.48788 0.0
C22 C 1.014 0.76857 0.34557 0.0
C23 C 1.00214 0.74488 0.33443 0.0
C24 C 0.9866 0.73852 0.40086 0.0
C25 C 0.982 0.75629 0.47712 0.0
H26 H 0.71711 0.95197 0.31834 0.0
H27 H 0.79732 0.96098 0.25048 0.0
H28 H 0.76727 0.00369 0.48944 0.0
H29 H 0.82554 0.02876 0.39668 0.0
C30 C 0.81865 0.01311 0.3449 0.0
O31 O 0.8098 0.99381 0.38467 0.0
H32 H 0.8021 0.0206 0.31217 0.0
C33 C 0.73619 0.96036 0.33498 0.0
C34 C 0.73906 0.97817 0.41269 0.0
C35 C 0.75665 0.95467 0.27484 0.0
C36 C 0.78137 0.96527 0.29606 0.0
C37 C 0.78545 0.98307 0.37186 0.0
C38 C 0.76427 0.98959 0.43119 0.0
H39 H 0.50919 0.69952 0.20988 0.0
H40 H 0.5041 0.75029 0.0331 0.0
H41 H 0.54849 0.77077 0.27119 0.0
H42 H 0.52074 0.81502 0.22541 0.0
C43 C 0.51676 0.8071 0.15562 0.0
O44 O 0.53189 0.78616 0.12993 0.0
H45 H 0.49565 0.80182 0.14989 0.0
C46 C 0.51316 0.71775 0.19464 0.0
C47 C 0.52933 0.73448 0.25036 0.0
C48 C 0.50415 0.72298 0.11599 0.0
C49 C 0.51056 0.74613 0.09447 0.0
C50 C 0.52584 0.76384 0.15164 0.0
C51 C 0.53575 0.75771 0.22899 0.0
H52 H 0.21434 0.46356 0.29607 0.0
H53 H 0.29294 0.47713 0.38995 0.0
H54 H 0.2705 0.4979 0.14964 0.0
H55 H 0.34235 0.48845 0.19645 0.0
C56 C 0.33248 0.48419 0.25499 0.0
O57 O 0.30961 0.49801 0.26828 0.0
H58 H 0.32782 0.46383 0.23919 0.0
C59 C 0.2342 0.46941 0.28564 0.0
C60 C 0.23968 0.47984 0.21219 0.0
C61 C 0.25315 0.46849 0.34993 0.0
C62 C 0.27837 0.47742 0.34003 0.0
C63 C 0.28509 0.48774 0.26855 0.0
C64 C 0.26563 0.48922 0.20407 0.0
H65 H 1.01197 0.19954 0.21818 0.0
H66 H 1.01739 0.27353 0.37361 0.0
H67 H 0.05875 0.25555 0.1305 0.0
H68 H 0.08507 0.3034 0.26019 0.0
C69 C 0.07015 0.29977 0.30775 0.0
O70 O 0.04738 0.29139 0.26351 0.0
H71 H 0.07825 0.28545 0.34175 0.0
C72 C 0.01889 0.21875 0.22693 0.0
C73 C 0.03567 0.22557 0.16518 0.0
C74 C 1.01235 0.23571 0.3025 0.0
C75 C 0.02224 0.26023 0.31524 0.0
C76 C 0.0386 0.26752 0.25238 0.0
C77 C 0.04563 0.25007 0.17778 0.0
H78 H 0.31856 0.04872 0.26634 0.0
H79 H 0.24275 0.04558 0.38154 0.0
H80 H 0.26403 0.99038 0.15719 0.0
H81 H 0.23639 0.98948 0.37582 0.0
C82 C 0.21969 0.99053 0.33112 0.0
O83 O 0.22584 0.00653 0.27447 0.0
H84 H 0.21698 0.97138 0.29206 0.0
C85 C 0.29915 0.04045 0.265 0.0
C86 C 0.29369 0.01903 0.20204 0.0
C87 C 0.28123 0.04999 0.33055 0.0
C88 C 0.25658 0.03856 0.33066 0.0
C89 C 0.25005 0.01713 0.26915 0.0
C90 C 0.26872 0.0072 0.2041 0.0
H91 H 0.52007 0.30217 0.43652 0.0
H92 H 0.53152 0.25009 0.60556 0.0
H93 H 0.48588 0.22866 0.37018 0.0
H94 H 0.46723 0.20389 0.51928 0.0
C95 C 0.48552 0.20683 0.55844 0.0
O96 O 0.50561 0.21311 0.5073 0.0
H97 H 0.48218 0.22246 0.61448 0.0
C98 C 0.51748 0.28358 0.45041 0.0
C99 C 0.50216 0.2662 0.39411 0.0
C100 C 0.52806 0.27818 0.52665 0.0
C101 C 0.52361 0.25447 0.5463 0.0
C102 C 0.50875 0.23633 0.48937 0.0
C103 C 0.49772 0.24235 0.41335 0.0
Tb104 Tb 0.99703 0.01055 0.75411 0.0
Tb105 Tb 0.0361 0.99568 0.89909 0.0
C106 C 0.97564 0.00263 0.93674 0.0
C107 C 0.96833 0.04876 0.61215 0.0
C108 C 0.96866 0.09665 0.57036 0.0
C109 C 0.94513 0.08298 0.57014 0.0
C110 C 0.945 0.05925 0.59096 0.0
C111 C 0.99189 0.06211 0.61111 0.0
C112 C 0.99208 0.08575 0.58994 0.0
C113 C 0.96754 0.02564 0.64658 0.0
O114 O 0.01949 0.04425 0.80418 0.0
O115 O 0.03376 0.03609 0.93487 0.0
O116 O 0.06218 0.00805 0.8043 0.0
O117 O 0.03441 1.00036 0.68707 0.0
O118 O 0.04432 0.99342 0.02893 0.0
O119 O 0.07061 0.97836 0.92579 0.0
O120 O 0.02751 0.96222 0.80282 0.0
O121 O 0.98767 0.97157 0.75347 0.0
O122 O 0.97497 0.01623 0.87626 0.0
O123 O 0.99635 0.98928 0.94492 0.0
C124 C 0.02955 0.05164 0.88219 0.0
O125 O 0.98639 0.00998 0.62383 0.0
O126 O 0.96312 0.02906 0.72958 0.0
C127 C 0.05827 0.00435 0.71955 0.0
C128 C 0.06183 0.95405 0.02913 0.0
C129 C 0.05758 0.90552 0.06494 0.0
C130 C 0.07562 0.92309 0.11087 0.0
C131 C 0.07786 0.94714 0.09252 0.0
C132 C 0.04367 0.93677 0.98434 0.0
C133 C 0.04188 0.91271 1.0007 0.0
C134 C 0.06402 0.97878 0.00622 0.0
C135 C 1.00484 0.95516 0.76681 0.0
H136 H 0.92672 0.09088 0.55629 0.0
H137 H 0.92657 0.0494 0.59314 0.0
H138 H 1.01009 0.0545 0.62863 0.0
H139 H 1.01061 0.09549 0.58913 0.0
H140 H 0.08772 0.91847 0.16192 0.0
H141 H 0.09194 0.96031 0.12799 0.0
H142 H 0.03088 0.94188 0.93608 0.0
H143 H 0.02817 0.89977 0.96238 0.0
Tb144 Tb 0.50346 0.98548 0.72424 0.0
Tb145 Tb 0.52928 0.01434 0.90239 0.0
C146 C 0.52493 0.95553 0.86128 0.0
C147 C 0.45875 0.98479 0.55418 0.0
C148 C 0.42084 0.02159 0.55326 0.0
C149 C 0.41345 0.99735 0.56265 0.0
C150 C 0.43222 0.97914 0.56318 0.0
C151 C 0.46581 0.00826 0.53623 0.0
C152 C 0.44709 0.02653 0.5365 0.0
C153 C 0.47864 0.96959 0.58679 0.0
O154 O 0.47062 0.00229 0.80551 0.0
O155 O 0.48937 0.00578 0.93948 0.0
O156 O 0.50936 0.04342 0.85059 0.0
O157 O 0.51108 0.02368 0.70888 0.0
O158 O 0.53731 0.01678 0.0353 0.0
O159 O 0.55142 0.04502 0.96786 0.0
O160 O 0.56107 0.01051 0.80614 0.0
O161 O 0.54531 0.97828 0.70184 0.0
O162 O 0.50752 0.95638 0.80035 0.0
O163 O 0.53926 0.97525 0.89469 0.0
C164 C 0.46831 0.00432 0.89038 0.0
O165 O 0.50265 0.97786 0.58738 0.0
O166 O 0.47276 0.96317 0.66031 0.0
C167 C 0.50848 0.04415 0.76745 0.0
C168 C 0.58188 0.0274 0.05032 0.0
C169 C 0.62822 0.99987 0.02978 0.0
C170 C 0.62518 0.02011 0.98789 0.0
C171 C 0.60226 0.0338 0.99821 0.0
C172 C 0.58628 0.00914 0.1002 0.0
C173 C 0.60918 0.99544 0.08975 0.0
C174 C 0.55479 0.03434 0.03443 0.0
C175 C 0.56472 0.99322 0.73585 0.0
H176 H 0.39321 0.99262 0.5723 0.0
H177 H 0.4262 0.96124 0.577 0.0
H178 H 0.48606 0.01323 0.52828 0.0
H179 H 0.45346 0.04489 0.52813 0.0
H180 H 0.63968 0.02438 0.94259 0.0
H181 H 0.59971 0.04796 0.95945 0.0
H182 H 0.57112 0.00401 0.14184 0.0
H183 H 0.61151 0.98074 0.12633 0.0
Tb184 Tb 0.49919 0.49159 0.89507 0.0
Tb185 Tb 0.53868 0.5095 0.75144 0.0
C186 C 0.47879 0.49843 0.70908 0.0
C187 C 0.47183 0.45041 0.03656 0.0
C188 C 0.47383 0.40454 0.09546 0.0
C189 C 0.44994 0.41667 0.09074 0.0
C190 C 0.44898 0.4393 0.0616 0.0
C191 C 0.49578 0.43866 0.04208 0.0
C192 C 0.49679 0.41604 0.07148 0.0
C193 C 0.46995 0.47258 0.99598 0.0
O194 O 0.5255 0.46128 0.85194 0.0
O195 O 0.53785 0.46867 0.71841 0.0
O196 O 0.56486 0.50058 0.85218 0.0
O197 O 0.53597 0.5034 0.96611 0.0
O198 O 0.54822 0.51107 0.62193 0.0
O199 O 0.57153 0.53082 0.72856 0.0
O200 O 0.52683 0.54248 0.84199 0.0
O201 O 0.48826 0.53013 0.89636 0.0
O202 O 0.47837 0.48458 0.76911 0.0
O203 O 0.4989 0.5133 0.70346 0.0
C204 C 0.5352 0.45366 0.77427 0.0
O205 O 0.48615 0.49118 0.02257 0.0
O206 O 0.46814 0.46754 0.91162 0.0
C207 C 0.56015 0.50237 0.93607 0.0
C208 C 0.56505 0.55114 0.61128 0.0
C209 C 0.56305 0.5973 0.5541 0.0
C210 C 0.58695 0.58514 0.55859 0.0
C211 C 0.5879 0.56235 0.58676 0.0
C212 C 0.54115 0.56315 0.60735 0.0
C213 C 0.54014 0.58588 0.5788 0.0
C214 C 0.5666 0.52782 0.64567 0.0
C215 C 0.50391 0.5476 0.87742 0.0
H216 H 0.43178 0.40836 0.10717 0.0
H217 H 0.43023 0.44781 0.05645 0.0
H218 H 0.51365 0.44674 0.02218 0.0
H219 H 0.51562 0.40759 0.07535 0.0
H220 H 0.60509 0.5934 0.54174 0.0
H221 H 0.6066 0.55361 0.59044 0.0
H222 H 0.52325 0.55502 0.62683 0.0
H223 H 0.52131 0.59433 0.57526 0.0
Tb224 Tb 0.02536 0.51539 0.79434 0.0
Tb225 Tb 1.00272 0.47995 0.91803 0.0
C226 C 0.99983 0.53809 0.96745 0.0
C227 C 0.07838 0.54033 0.69617 0.0
C228 C 0.12682 0.51685 0.68884 0.0
C229 C 0.11969 0.53361 0.76431 0.0
C230 C 0.09562 0.54535 0.76798 0.0
C231 C 0.08728 0.52638 0.61714 0.0
C232 C 0.11124 0.51456 0.61371 0.0
C233 C 0.05 0.54251 0.71059 0.0
O234 O 0.05644 0.51214 0.88977 0.0
O235 O 0.04513 0.47452 0.92212 0.0
O236 O 1.01077 0.45346 0.80017 0.0
O237 O 0.03753 0.47795 0.73281 0.0
O238 O 1.00397 0.46997 0.04094 0.0
O239 O 0.97492 0.454 0.94617 0.0
O240 O 0.96776 0.49218 0.85537 0.0
O241 O 0.98572 0.50757 0.74186 0.0
O242 O 0.99993 0.53874 0.88474 0.0
O243 O 1.00656 0.51778 0.99355 0.0
C244 C 0.06275 0.49226 0.92089 0.0
O245 O 0.03622 0.52305 0.67301 0.0
O246 O 0.04291 0.55015 0.79119 0.0
C247 C 0.02713 0.45616 0.73834 0.0
C248 C 0.95982 0.47281 0.0837 0.0
C249 C 0.9201 0.50811 0.12638 0.0
C250 C 0.91403 0.48349 0.08414 0.0
C251 C 0.93372 0.466 0.06294 0.0
C252 C 0.96529 0.49633 0.13625 0.0
C253 C 0.94571 0.51391 0.15631 0.0
C254 C 0.98072 0.45979 0.02878 0.0
C255 C 0.96523 0.50005 0.78126 0.0
H256 H 0.13175 0.5362 0.82227 0.0
H257 H 0.0896 0.55637 0.82973 0.0
H258 H 0.07462 0.52248 0.56052 0.0
H259 H 0.11695 0.50253 0.55341 0.0
H260 H 0.89424 0.47801 0.06376 0.0
H261 H 0.92887 0.44796 0.02312 0.0
H262 H 0.98514 0.50213 0.15476 0.0
H263 H 0.95112 0.53251 0.19016 0.0
H264 H 0.21537 0.01462 0.50338 0.0
H265 H 0.05966 0.99268 0.5391 0.0
H266 H 0.16746 0.98169 0.28382 0.0
H267 H 0.11014 0.01601 0.76136 0.0
H268 H 0.09772 0.99195 0.44339 0.0
H269 H 0.17634 0.01935 0.59577 0.0
C270 C 0.19656 0.00877 0.47412 0.0
C271 C 0.19489 0.99772 0.38521 0.0
C272 C 0.1005 0.99731 0.51308 0.0
C273 C 0.14964 0.00282 0.49189 0.0
C274 C 0.07866 0.99775 0.56813 0.0
C275 C 0.08138 0.00436 0.65932 0.0
C276 C 0.12554 0.0037 0.54861 0.0
C277 C 0.10679 0.01071 0.69197 0.0
C278 C 0.17421 0.01129 0.52725 0.0
C279 C 0.1698 0.9904 0.35166 0.0
N280 N 0.12765 0.01023 0.63712 0.0
N281 N 0.14835 0.99294 0.40474 0.0
H282 H 0.49298 0.20062 0.72757 0.0
H283 H 0.50692 0.05182 0.59997 0.0
H284 H 0.49071 0.15905 0.46404 0.0
H285 H 0.50342 0.09187 0.86566 0.0
H286 H 0.50238 0.09099 0.55 0.0
H287 H 0.4988 0.16155 0.7797 0.0
C288 C 0.49394 0.18326 0.68059 0.0
C289 C 0.49141 0.1831 0.59117 0.0
C290 C 0.50257 0.0913 0.61927 0.0
C291 C 0.49788 0.13814 0.65056 0.0
C292 C 0.50506 0.06881 0.64812 0.0
C293 C 0.50539 0.06831 0.7375 0.0
C294 C 0.50055 0.1138 0.67991 0.0
C295 C 0.5032 0.09121 0.79621 0.0
C296 C 0.49716 0.16093 0.71045 0.0
C297 C 0.49269 0.16002 0.5334 0.0
N298 N 0.50091 0.11296 0.76644 0.0
N299 N 0.49577 0.13854 0.56399 0.0
H300 H 0.37102 0.52104 0.29381 0.0
H301 H 0.43449 0.46808 0.69284 0.0
H302 H 0.3385 0.45894 0.39142 0.0
H303 H 0.47068 0.52606 0.5808 0.0
H304 H 0.39803 0.46627 0.58998 0.0
H305 H 0.40559 0.52539 0.40529 0.0
C306 C 0.37086 0.50857 0.33962 0.0
C307 C 0.35161 0.48961 0.33275 0.0
C308 C 0.41389 0.47944 0.58781 0.0
C309 C 0.3917 0.49427 0.46117 0.0
C310 C 0.43487 0.48049 0.64686 0.0
C311 C 0.45607 0.49722 0.64625 0.0
C312 C 0.41369 0.49529 0.52694 0.0
C313 C 0.45503 0.51278 0.58434 0.0
C314 C 0.39079 0.51093 0.40306 0.0
C315 C 0.35271 0.47392 0.39405 0.0
N316 N 0.43439 0.51143 0.52776 0.0
N317 N 0.37233 0.4765 0.45484 0.0
H318 H 0.04848 0.30374 0.46901 0.0
H319 H 0.05697 0.45315 0.59062 0.0
H320 H 0.079 0.34868 0.29391 0.0
H321 H 1.01419 0.40754 0.74015 0.0
H322 H 0.06816 0.41531 0.48585 0.0
H323 H 0.03855 0.34183 0.57412 0.0
C324 C 0.05315 0.3217 0.4531 0.0
C325 C 0.06479 0.32317 0.37343 0.0
C326 C 0.05631 0.41365 0.54163 0.0
C327 C 0.05346 0.36684 0.49276 0.0
C328 C 0.04995 0.43523 0.60159 0.0
C329 C 0.03452 0.43359 0.67434 0.0
C330 C 0.04735 0.39025 0.55486 0.0
C331 C 0.02603 0.40983 0.68503 0.0
C332 C 0.04748 0.34343 0.51285 0.0
C333 C 0.07028 0.34684 0.35523 0.0
N334 N 0.03258 0.38917 0.62615 0.0
N335 N 0.06466 0.36778 0.41462 0.0
H336 H 0.86767 0.99368 0.37013 0.0
H337 H 0.92672 0.02172 0.92183 0.0
H338 H 0.82191 0.01839 0.17359 0.0
H339 H 0.97061 0.98281 0.08706 0.0
H340 H 0.88891 0.02143 0.01664 0.0
H341 H 0.90563 0.9896 0.27147 0.0
C342 C 0.8654 0.99771 0.30564 0.0
C343 C 0.84122 0.006 0.28015 0.0
C344 C 0.90674 0.01288 0.03244 0.0
C345 C 0.8851 0.00219 0.16709 0.0
C346 C 0.92854 0.0131 0.9781 0.0
C347 C 0.95225 0.0023 0.99567 0.0
C348 C 0.90828 0.00201 0.10661 0.0
C349 C 0.95292 0.99138 0.07017 0.0
C350 C 0.88719 0.99559 0.24943 0.0
C351 C 0.83987 0.0116 0.19623 0.0
N352 N 0.93147 0.99164 0.12276 0.0
N353 N 0.86132 0.00977 0.14362 0.0
H354 H 0.49639 0.81019 0.9954 0.0
H355 H 0.55635 0.94708 0.99523 0.0
H356 H 0.5491 0.84879 0.19256 0.0
H357 H 0.49922 0.91043 0.80872 0.0
H358 H 0.55742 0.90974 0.0595 0.0
H359 H 0.50089 0.8448 0.91711 0.0
C360 C 0.50916 0.82585 0.02158 0.0
C361 C 0.52215 0.82674 0.10106 0.0
C362 C 0.54477 0.90978 0.00413 0.0
C363 C 0.52736 0.8666 0.01212 0.0
C364 C 0.54419 0.93114 0.96709 0.0
C365 C 0.52758 0.9321 0.89629 0.0
C366 C 0.52866 0.88905 0.97043 0.0
C367 C 0.51229 0.91072 0.8632 0.0
C368 C 0.51165 0.84567 0.97714 0.0
C369 C 0.53858 0.84743 0.13185 0.0
N370 N 0.51312 0.89023 0.90065 0.0
N371 N 0.54054 0.86658 0.08785 0.0
H372 H 0.71626 0.50251 0.17005 0.0
H373 H 0.55936 0.49984 0.11122 0.0
H374 H 0.66337 0.48789 0.36778 0.0
H375 H 0.61325 0.50494 0.90423 0.0
H376 H 0.59656 0.49898 0.20963 0.0
H377 H 0.67873 0.50768 0.07777 0.0
C378 C 0.69673 0.50081 0.19483 0.0
C379 C 0.69316 0.49473 0.27731 0.0
C380 C 0.60029 0.50037 0.14278 0.0
C381 C 0.64957 0.50037 0.17045 0.0
C382 C 0.57895 0.5009 0.08618 0.0
C383 C 0.58284 0.50246 0.99834 0.0
C384 C 0.62606 0.50156 0.11235 0.0
C385 C 0.60897 0.50368 0.97082 0.0
C386 C 0.67521 0.50357 0.14161 0.0
C387 C 0.6672 0.49265 0.3051 0.0
N388 N 0.62935 0.50322 0.02714 0.0
N389 N 0.64656 0.4953 0.25199 0.0
H390 H 0.98578 0.64805 0.44406 0.0
H391 H 0.98678 0.58425 0.93795 0.0
H392 H 0.98566 0.68972 0.23736 0.0
H393 H 1.0009 0.54441 0.14512 0.0
H394 H 0.98076 0.62245 0.04665 0.0
H395 H 0.98574 0.60922 0.33517 0.0
C396 C 0.98533 0.64899 0.37568 0.0
C397 C 0.9852 0.67212 0.3498 0.0
C398 C 0.98501 0.6053 0.06826 0.0
C399 C 0.98569 0.62784 0.22471 0.0
C400 C 0.98842 0.58345 0.00623 0.0
C401 C 0.9944 0.56103 0.03233 0.0
C402 C 0.98751 0.60473 0.1571 0.0
C403 C 0.99623 0.56118 0.12182 0.0
C404 C 0.98545 0.62686 0.31358 0.0
C405 C 0.98532 0.67232 0.26034 0.0
N406 N 0.99287 0.58267 0.18087 0.0
N407 N 0.98552 0.65053 0.20105 0.0
H408 H 0.02818 0.23421 0.46726 0.0
H409 H 0.93928 0.11392 0.44858 0.0
H410 H 0.96433 0.2134 0.28734 0.0
H411 H 0.99852 0.13753 0.64492 0.0
H412 H 0.94275 0.15445 0.40684 0.0
H413 H 1.0118 0.2044 0.55328 0.0
C414 C 1.01007 0.22413 0.44809 0.0
C415 C 0.99766 0.22599 0.36998 0.0
C416 C 0.95479 0.15092 0.45981 0.0
C417 C 0.97937 0.19132 0.46557 0.0
C418 C 0.95276 0.12773 0.4839 0.0
C419 C 0.96894 0.12206 0.54945 0.0
C420 C 0.97335 0.16858 0.50081 0.0
C421 C 0.98617 0.14077 0.59228 0.0
C422 C 1.00089 0.20686 0.49643 0.0
C423 C 0.97448 0.2123 0.34707 0.0
N424 N 0.98817 0.16304 0.56644 0.0
N425 N 0.96639 0.19514 0.39358 0.0
H426 H 0.27457 0.0475 0.50167 0.0
H427 H 0.41715 0.05881 0.45877 0.0
H428 H 0.31123 0.09277 0.33843 0.0
H429 H 0.37995 0.03051 0.66735 0.0
H430 H 0.38016 0.08572 0.45341 0.0
H431 H 0.30981 0.05822 0.60594 0.0
C432 C 0.28938 0.06073 0.48943 0.0
C433 C 0.29112 0.06774 0.40818 0.0
C434 C 0.38024 0.07409 0.50194 0.0
C435 C 0.33221 0.07884 0.52474 0.0
C436 C 0.40145 0.05859 0.50479 0.0
C437 C 0.40107 0.04144 0.56064 0.0
C438 C 0.35818 0.07186 0.55337 0.0
C439 C 0.38037 0.04244 0.61978 0.0
C440 C 0.30985 0.06665 0.54892 0.0
C441 C 0.31019 0.08565 0.39812 0.0
N442 N 0.35942 0.05683 0.61298 0.0
N443 N 0.33085 0.08963 0.45359 0.0
H444 H 0.51562 0.29624 0.69607 0.0
H445 H 0.5372 0.41995 0.88156 0.0
H446 H 0.56771 0.30864 0.4927 0.0
H447 H 0.55033 0.42655 0.61484 0.0
H448 H 0.54414 0.37531 0.84133 0.0
H449 H 0.52401 0.33897 0.77267 0.0
C450 C 0.52984 0.3076 0.66977 0.0
C451 C 0.54081 0.29904 0.58778 0.0
C452 C 0.54543 0.38645 0.79147 0.0
C453 C 0.55017 0.34817 0.67365 0.0
C454 C 0.5416 0.41206 0.81431 0.0
C455 C 0.54257 0.42707 0.75092 0.0
C456 C 0.55016 0.37558 0.70436 0.0
C457 C 0.54901 0.41572 0.66557 0.0
C458 C 0.53453 0.33216 0.71317 0.0
C459 C 0.55871 0.3147 0.55563 0.0
N460 N 0.55232 0.39059 0.64462 0.0
N461 N 0.56225 0.33875 0.59733 0.0
H462 H 0.22077 0.43052 0.38043 0.0
H463 H 0.17592 0.53043 0.75266 0.0
H464 H 0.26747 0.4929 0.51297 0.0
H465 H 0.12982 0.46689 0.62671 0.0
H466 H 0.2154 0.50626 0.71577 0.0
H467 H 0.19596 0.43157 0.51374 0.0
C468 C 0.22628 0.44397 0.43828 0.0
C469 C 0.24518 0.46252 0.43433 0.0
C470 C 0.19663 0.49731 0.69805 0.0
C471 C 0.21663 0.46428 0.58574 0.0
C472 C 0.17411 0.51118 0.71898 0.0
C473 C 0.14988 0.50102 0.68786 0.0
C474 C 0.1947 0.47356 0.64372 0.0
C475 C 0.14843 0.4758 0.64721 0.0
C476 C 0.21222 0.44452 0.51463 0.0
C477 C 0.25241 0.47875 0.51199 0.0
N478 N 0.17062 0.46311 0.62398 0.0
N479 N 0.23754 0.4798 0.58389 0.0
H480 H 0.06346 0.78758 0.34381 0.0
H481 H 1.01252 0.87725 0.05865 0.0
H482 H 0.99348 0.77195 0.18885 0.0
H483 H 0.09476 0.87562 0.1193 0.0
H484 H 1.00677 0.83677 0.09715 0.0
H485 H 0.07799 0.81654 0.25203 0.0
C486 C 0.05171 0.78951 0.28805 0.0
C487 C 0.0272 0.77759 0.27387 0.0
C488 C 0.02618 0.84505 0.10073 0.0
C489 C 0.04307 0.81127 0.17128 0.0
C490 C 0.02957 0.86828 0.07843 0.0
C491 C 0.05424 0.88016 0.08556 0.0
C492 C 0.0474 0.83366 0.13282 0.0
C493 C 0.07526 0.86759 0.11442 0.0
C494 C 0.05988 0.80616 0.23614 0.0
C495 C 1.01252 0.78081 0.20163 0.0
N496 N 0.07128 0.84519 0.13826 0.0
N497 N 0.02035 0.79788 0.15429 0.0
H498 H 0.77449 0.96876 0.12671 0.0
H499 H 0.62927 0.94903 0.01466 0.0
H500 H 0.72369 0.91458 0.21106 0.0
H501 H 0.67891 0.01241 0.99754 0.0
H502 H 0.66806 0.92348 0.01288 0.0
H503 H 0.74678 0.96755 1.00086 0.0
C504 C 0.7582 0.95564 0.11711 0.0
C505 C 0.7502 0.94317 0.1832 0.0
C506 C 0.67036 0.9428 0.00687 0.0
C507 C 0.7179 0.94275 0.0413 0.0
C508 C 0.64829 0.95753 0.00951 0.0
C509 C 0.65094 0.98323 0.01091 0.0
C510 C 0.69519 0.95392 0.00625 0.0
C511 C 0.67589 0.99287 0.99903 0.0
C512 C 0.74218 0.95515 0.04502 0.0
C513 C 0.72948 0.92584 0.16449 0.0
N514 N 0.69709 0.97834 0.99922 0.0
N515 N 0.71321 0.92697 0.09706 0.0
H516 H 0.46239 0.69365 0.14223 0.0
H517 H 0.5219 0.58374 0.79551 0.0
H518 H 0.51981 0.70356 0.95086 0.0
H519 H 0.46814 0.57187 0.99566 0.0
H520 H 0.51311 0.62809 0.83005 0.0
H521 H 0.45516 0.65054 0.06594 0.0
C522 C 0.47269 0.68702 0.082 0.0
C523 C 0.492 0.70204 0.05338 0.0
C524 C 0.503 0.61587 0.86614 0.0
C525 C 0.48439 0.65262 0.96725 0.0
C526 C 0.50813 0.59047 0.84683 0.0
C527 C 0.49621 0.5741 0.89433 0.0
C528 C 0.48603 0.62525 0.93444 0.0
C529 C 0.47802 0.58387 0.9583 0.0
C530 C 0.46879 0.66232 0.03908 0.0
C531 C 0.5048 0.69261 0.97522 0.0
N532 N 0.47382 0.60892 0.97759 0.0
N533 N 0.5012 0.66831 0.93596 0.0
H534 H 0.77418 0.53375 0.19552 0.0
H535 H 0.91397 0.54789 0.26258 0.0
H536 H 0.80824 0.5893 0.40002 0.0
H537 H 0.88069 0.51395 0.01333 0.0
H538 H 0.87706 0.57542 0.28892 0.0
H539 H 0.8094 0.54085 0.09991 0.0
C540 C 0.78837 0.54842 0.2192 0.0
C541 C 0.78952 0.55965 0.3076 0.0
C542 C 0.87798 0.56236 0.22741 0.0
C543 C 0.83053 0.56678 0.20046 0.0
C544 C 0.89917 0.54646 0.21246 0.0
C545 C 0.89987 0.52764 0.13747 0.0
C546 C 0.85687 0.55883 0.16861 0.0
C547 C 0.8802 0.52715 0.07456 0.0
C548 C 0.80879 0.55232 0.16457 0.0
C549 C 0.80773 0.57912 0.33339 0.0
N550 N 0.85912 0.54198 0.09263 0.0
N551 N 0.8284 0.58128 0.28133 0.0
H552 H 0.08077 0.19982 0.15172 0.0
H553 H 0.05957 0.07372 0.02209 0.0
H554 H 1.00744 0.20461 0.02207 0.0
H555 H 1.01511 0.09066 0.80734 0.0
H556 H 0.06839 0.11821 0.07228 0.0
H557 H 0.08576 0.15727 0.06826 0.0
C558 C 0.06628 0.19222 0.1029 0.0
C559 C 0.04374 0.20561 0.09311 0.0
C560 C 0.0573 0.11221 0.01287 0.0
C561 C 0.0484 0.15668 1.0017 0.0
C562 C 0.05193 0.08677 0.9849 0.0
C563 C 0.03643 0.07841 0.91076 0.0
C564 C 0.04691 0.12948 0.96681 0.0
C565 C 0.02711 0.09622 0.865 0.0
C566 C 0.06878 0.16775 0.05689 0.0
C567 C 0.02519 0.19484 0.03063 0.0
N568 N 0.03213 0.12092 0.89459 0.0
N569 N 0.02774 0.17084 0.98802 0.0
H570 H 0.30075 0.01997 0.02676 0.0
H571 H 0.45605 1.00175 0.05963 0.0
H572 H 0.33911 0.99903 0.24531 0.0
H573 H 0.41896 0.00752 0.81751 0.0
H574 H 0.41307 1.00152 0.12702 0.0
H575 H 0.3425 0.01511 0.94659 0.0
C576 C 0.31766 0.01346 0.0568 0.0
C577 C 0.31602 0.00926 0.1425 0.0
C578 C 0.41418 0.00281 0.05908 0.0
C579 C 0.36455 0.00485 0.0523 0.0
C580 C 0.43893 0.00307 0.02031 0.0
C581 C 0.44157 0.00474 0.93218 0.0
C582 C 0.39135 0.00447 0.01046 0.0
C583 C 0.4182 0.00623 0.8855 0.0
C584 C 0.34167 0.01105 0.01141 0.0
C585 C 0.33911 0.00191 0.17891 0.0
N586 N 0.39428 0.0062 0.92505 0.0
N587 N 0.36216 1.00019 0.13442 0.0
H588 H 0.45444 0.28665 0.38795 0.0
H589 H 0.5056 0.36439 0.03667 0.0
H590 H 0.52476 0.26964 0.23987 0.0
H591 H 0.44394 0.38819 0.22037 0.0
H592 H 0.50782 0.32522 0.08928 0.0
H593 H 0.44408 0.31799 0.30118 0.0
C594 C 0.46698 0.2886 0.334 0.0
C595 C 0.49025 0.27522 0.32002 0.0
C596 C 0.49367 0.33895 0.11757 0.0
C597 C 0.4793 0.31197 0.22327 0.0
C598 C 0.49254 0.36151 0.08816 0.0
C599 C 0.47474 0.37999 0.12454 0.0
C600 C 0.47682 0.3346 0.18384 0.0
C601 C 0.45787 0.37462 0.18954 0.0
C602 C 0.46138 0.30689 0.28568 0.0
C603 C 0.50637 0.2792 0.25149 0.0
N604 N 0.45944 0.35258 0.21727 0.0
N605 N 0.50083 0.29747 0.20662 0.0
H606 H 0.22218 0.52051 0.14449 0.0
H607 H 0.08527 0.45196 0.97383 0.0
H608 H 0.20402 0.44324 0.14255 0.0
H609 H 0.10308 0.52771 0.95152 0.0
H610 H 0.12911 0.44885 0.03306 0.0
H611 H 0.1803 0.52376 0.06907 0.0
C612 C 0.20979 0.50407 0.12667 0.0
C613 C 0.21702 0.48153 0.15051 0.0
C614 C 0.12359 0.46619 0.01505 0.0
C615 C 0.16825 0.48529 0.06538 0.0
C616 C 0.09832 0.46801 0.98114 0.0
C617 C 0.09003 0.49014 0.95695 0.0
C618 C 0.14119 0.48668 0.02612 0.0
C619 C 0.10833 0.51017 0.96844 0.0
C620 C 0.18562 0.50601 0.08432 0.0
C621 C 0.19953 0.46108 0.12643 0.0
N622 N 0.13278 0.50801 1.00218 0.0
N623 N 0.17623 0.46351 0.08642 0.0
H624 H 0.02414 0.79705 0.62938 0.0
H625 H 0.96044 0.93165 0.68858 0.0
H626 H 0.95215 0.81066 0.506 0.0
H627 H 0.03614 0.91665 0.7866 0.0
H628 H 0.95252 0.88655 0.64427 0.0
H629 H 0.0232 0.83938 0.71637 0.0
C630 C 1.00754 0.80867 0.62362 0.0
C631 C 0.98804 0.80043 0.56156 0.0
C632 C 0.97073 0.89321 0.67635 0.0
C633 C 0.98747 0.84924 0.65679 0.0
C634 C 0.97532 0.91895 0.70121 0.0
C635 C 0.99909 0.92805 0.74072 0.0
C636 C 0.99 0.87649 0.69142 0.0
C637 C 0.01755 0.91065 0.75613 0.0
C638 C 1.00718 0.83297 0.67207 0.0
C639 C 0.96731 0.81635 0.55435 0.0
N640 N 1.01266 0.88582 0.73114 0.0
N641 N 0.96779 0.84022 0.60021 0.0
H642 H 0.68972 0.98624 0.35571 0.0
H643 H 0.61286 0.00934 0.80748 0.0
H644 H 0.73145 0.98547 0.5941 0.0
H645 H 0.57777 0.97318 0.56496 0.0
H646 H 0.65579 0.00739 0.73578 0.0
H647 H 0.64869 0.98921 0.43523 0.0
C648 C 0.69043 0.98677 0.4251 0.0
C649 C 0.71456 0.98496 0.46708 0.0
C650 C 0.63873 0.99981 0.6983 0.0
C651 C 0.66654 0.98906 0.56048 0.0
C652 C 0.6141 1.00092 0.73928 0.0
C653 C 0.59135 0.9913 0.69295 0.0
C654 C 0.64083 0.98964 0.60893 0.0
C655 C 0.59451 0.98072 0.60416 0.0
C656 C 0.66675 0.98847 0.4706 0.0
C657 C 0.71363 0.9867 0.55813 0.0
N658 N 0.6185 0.98045 0.56533 0.0
N659 N 0.69014 0.98859 0.60151 0.0
H660 H 0.50639 0.73069 0.40386 0.0
H661 H 0.5928 0.61285 0.42738 0.0
H662 H 0.57684 0.71356 0.25663 0.0
H663 H 0.53086 0.63746 0.6091 0.0
H664 H 0.5896 0.65164 0.37365 0.0
H665 H 0.51779 0.69999 0.49205 0.0
C666 C 0.52491 0.72131 0.39301 0.0
C667 C 0.54097 0.72503 0.32406 0.0
C668 C 0.57686 0.64868 0.42585 0.0
C669 C 0.55347 0.68875 0.4212 0.0
C670 C 0.57872 0.62646 0.45698 0.0
C671 C 0.56197 0.62154 0.52288 0.0
C672 C 0.55793 0.66624 0.45993 0.0
C673 C 0.54384 0.63998 0.55703 0.0
C674 C 0.53122 0.70344 0.44231 0.0
C675 C 0.56425 0.71165 0.31043 0.0
N676 N 0.54217 0.66132 0.52475 0.0
N677 N 0.56956 0.6938 0.35734 0.0
H678 H 0.82305 0.55553 0.58952 0.0
H679 H 0.92095 0.47068 0.79165 0.0
H680 H 0.81234 0.47581 0.51603 0.0
H681 H 0.94757 0.53298 0.68231 0.0
H682 H 0.87744 0.47368 0.72597 0.0
H683 H 0.86394 0.54932 0.66177 0.0
C684 C 0.829 0.5366 0.58944 0.0
C685 C 0.81398 0.5162 0.54441 0.0
C686 C 0.89285 0.48663 0.71636 0.0
C687 C 0.86146 0.509 0.63058 0.0
C688 C 0.91772 0.48504 0.75422 0.0
C689 C 0.93829 0.50156 0.74265 0.0
C690 C 0.88801 0.50543 0.66882 0.0
C691 C 0.93263 0.51971 0.69301 0.0
C692 C 0.85257 0.53314 0.63076 0.0
C693 C 0.82294 0.4922 0.54936 0.0
N694 N 0.90818 0.52134 0.65936 0.0
N695 N 0.84604 0.48927 0.5912 0.0
loop_
_geom_bond_atom_site_label_1
_geom_bond_atom_site_label_2
_geom_bond_distance
_geom_bond_site_symmetry_2
_ccdc_geom_bond_type
H0 C7 0.929 . S
H1 C10 0.930 . S
H2 C12 0.929 . S
H3 C4 0.969 . S
C4 H3 0.969 . S
C4 O5 1.550 . S
C4 H6 0.973 . S
O5 C4 1.550 . S
O5 C11 1.412 . S
H6 C4 0.973 . S
C7 H0 0.929 . S
C7 C8 1.400 . S
C7 C9 1.364 . S
C8 C7 1.400 . S
C8 C12 1.377 . S
C9 C7 1.364 . S
C9 C10 1.374 . S
C10 H1 0.930 . S
C10 C9 1.374 . S
C10 C11 1.383 . S
C11 O5 1.412 . S
C11 C10 1.383 . S
C11 C12 1.394 . S
C12 H2 0.929 . S
C12 C8 1.377 . S
C12 C11 1.394 . S
H13 C20 0.931 . S
H14 C23 0.930 . S
H15 C25 0.931 . S
H16 C17 0.969 . S
C17 H16 0.969 . S
C17 O18 1.550 1_455 S
C17 H19 0.973 1_455 S
O18 C17 1.550 1_655 S
O18 C24 1.415 . S
H19 C17 0.973 1_655 S
C20 H13 0.931 . S
C20 C21 1.399 . S
C20 C22 1.364 . S
C21 C20 1.399 . S
C21 C25 1.377 . S
C22 C20 1.364 . S
C22 C23 1.375 . S
C23 H14 0.930 . S
C23 C22 1.375 . S
C23 C24 1.383 . S
C24 O18 1.415 . S
C24 C23 1.383 . S
C24 C25 1.394 . S
C25 H15 0.931 . S
C25 C21 1.377 . S
C25 C24 1.394 . S
H26 C33 0.928 1_565 S
H27 C36 0.937 . S
H28 C38 0.925 1_565 S
H29 C30 0.969 . S
C30 H29 0.969 . S
C30 O31 1.550 1_545 S
C30 H32 0.973 1_545 S
O31 C30 1.550 1_565 S
O31 C37 1.404 1_565 S
H32 C30 0.973 1_565 S
C33 H26 0.928 1_545 S
C33 C34 1.402 . S
C33 C35 1.363 . S
C34 C33 1.402 . S
C34 C38 1.377 . S
C35 C33 1.363 . S
C35 C36 1.374 1_545 S
C36 H27 0.937 . S
C36 C35 1.374 1_565 S
C36 C37 1.389 1_565 S
C37 O31 1.404 1_545 S
C37 C36 1.389 1_545 S
C37 C38 1.389 . S
C38 H28 0.925 1_545 S
C38 C34 1.377 . S
C38 C37 1.389 . S
H39 C46 0.929 . S
H40 C49 0.930 . S
H41 C51 0.929 . S
H42 C43 0.969 . S
C43 H42 0.969 . S
C43 O44 1.550 1_556 S
C43 H45 0.973 . S
O44 C43 1.550 1_554 S
O44 C50 1.412 . S
H45 C43 0.973 . S
C46 H39 0.929 . S
C46 C47 1.400 . S
C46 C48 1.364 1_554 S
C47 C46 1.400 . S
C47 C51 1.377 . S
C48 C46 1.364 1_556 S
C48 C49 1.374 . S
C49 H40 0.930 . S
C49 C48 1.374 . S
C49 C50 1.383 1_556 S
C50 O44 1.412 . S
C50 C49 1.383 1_554 S
C50 C51 1.394 . S
C51 H41 0.929 . S
C51 C47 1.377 . S
C51 C50 1.394 . S
H52 C59 0.929 . S
H53 C62 0.930 . S
H54 C64 0.929 . S
H55 C56 0.969 . S
C56 H55 0.969 . S
C56 O57 1.550 . S
C56 H58 0.973 . S
O57 C56 1.550 . S
O57 C63 1.412 . S
H58 C56 0.973 . S
C59 H52 0.929 . S
C59 C60 1.400 . S
C59 C61 1.364 . S
C60 C59 1.400 . S
C60 C64 1.377 . S
C61 C59 1.364 . S
C61 C62 1.374 . S
C62 H53 0.930 . S
C62 C61 1.374 . S
C62 C63 1.383 . S
C63 O57 1.412 . S
C63 C62 1.383 . S
C63 C64 1.394 . S
C64 H54 0.929 . S
C64 C60 1.377 . S
C64 C63 1.394 . S
H65 C72 0.929 . S
H66 C75 0.931 . S
H67 C77 0.931 . S
H68 C69 0.969 . S
C69 H68 0.969 . S
C69 O70 1.550 1_455 S
C69 H71 0.973 1_455 S
O70 C69 1.550 1_655 S
O70 C76 1.412 1_655 S
H71 C69 0.973 1_655 S
C72 H65 0.929 . S
C72 C73 1.400 . S
C72 C74 1.364 . S
C73 C72 1.400 . S
C73 C77 1.377 . S
C74 C72 1.364 . S
C74 C75 1.374 . S
C75 H66 0.931 . S
C75 C74 1.374 . S
C75 C76 1.383 . S
C76 O70 1.412 1_455 S
C76 C75 1.383 . S
C76 C77 1.394 . S
C77 H67 0.931 . S
C77 C73 1.377 . S
C77 C76 1.394 . S
H78 C85 0.928 1_565 S
H79 C88 0.922 . S
H80 C90 0.932 1_565 S
H81 C82 0.969 . S
C82 H81 0.969 . S
C82 O83 1.550 1_545 S
C82 H84 0.973 1_545 S
O83 C82 1.550 1_565 S
O83 C89 1.403 1_565 S
H84 C82 0.973 1_565 S
C85 H78 0.928 1_545 S
C85 C86 1.397 . S
C85 C87 1.365 . S
C86 C85 1.397 . S
C86 C90 1.377 . S
C87 C85 1.365 . S
C87 C88 1.374 1_545 S
C88 H79 0.922 . S
C88 C87 1.374 1_565 S
C88 C89 1.376 1_565 S
C89 O83 1.403 1_545 S
C89 C88 1.376 1_545 S
C89 C90 1.400 . S
C90 H80 0.932 1_545 S
C90 C86 1.377 . S
C90 C89 1.400 . S
H91 C98 0.929 . S
H92 C101 0.930 . S
H93 C103 0.929 . S
H94 C95 0.969 . S
C95 H94 0.969 . S
C95 O96 1.550 . S
C95 H97 0.973 . S
O96 C95 1.550 . S
O96 C102 1.412 . S
H97 C95 0.973 . S
C98 H91 0.929 . S
C98 C99 1.400 . S
C98 C100 1.364 . S
C99 C98 1.400 . S
C99 C103 1.377 . S
C100 C98 1.364 . S
C100 C101 1.374 . S
C101 H92 0.930 . S
C101 C100 1.374 . S
C101 C102 1.383 . S
C102 O96 1.412 . S
C102 C101 1.383 . S
C102 C103 1.394 . S
C103 H93 0.929 . S
C103 C99 1.377 . S
C103 C102 1.394 . S
Tb104 C113 2.764 . S
Tb104 O114 2.325 . S
Tb104 O117 2.303 1_655 S
Tb104 O121 2.322 1_545 S
Tb104 O122 2.349 . S
Tb104 O125 2.415 . S
Tb104 O126 2.399 . S
Tb105 O115 2.322 1_565 S
Tb105 O116 2.349 . S
Tb105 O118 2.415 . S
Tb105 O119 2.399 . S
Tb105 O120 2.325 . S
Tb105 O123 2.303 1_455 S
Tb105 C134 2.764 . S
C106 O122 1.265 . S
C106 O123 1.256 1_545 S
C107 C110 1.358 . S
C107 C111 1.332 . S
C107 C113 1.504 . S
C108 C109 1.373 . S
C108 C112 1.308 . S
C109 C108 1.373 . S
C109 C110 1.429 . S
C109 H136 0.932 . S
C110 C107 1.358 . S
C110 C109 1.429 . S
C110 H137 0.930 . S
C111 C107 1.332 . S
C111 C112 1.394 . S
C111 H138 0.932 1_655 S
C112 C108 1.308 . S
C112 C111 1.394 . S
C112 H139 0.929 1_655 S
C113 Tb104 2.764 . S
C113 C107 1.504 . S
C113 O125 1.239 . S
C113 O126 1.263 . S
O114 Tb104 2.325 . S
O114 C124 1.236 1_655 S
O115 Tb105 2.322 1_545 S
O115 C124 1.257 . S
O116 Tb105 2.349 . S
O116 C127 1.259 . S
O117 Tb104 2.303 1_455 S
O117 C127 1.258 1_545 S
O118 Tb105 2.415 . S
O118 C134 1.239 . S
O119 Tb105 2.399 . S
O119 C134 1.263 . S
O120 Tb105 2.325 . S
O120 C135 1.236 1_455 S
O121 Tb104 2.322 1_565 S
O121 C135 1.257 . S
O122 Tb104 2.349 . S
O122 C106 1.265 . S
O123 Tb105 2.303 1_655 S
O123 C106 1.256 1_565 S
C124 O114 1.236 1_455 S
C124 O115 1.257 . S
O125 Tb104 2.415 . S
O125 C113 1.239 . S
O126 Tb104 2.399 . S
O126 C113 1.263 . S
C127 O116 1.259 . S
C127 O117 1.258 1_565 S
C128 C131 1.358 . S
C128 C132 1.332 . S
C128 C134 1.504 1_554 S
C129 C130 1.373 . S
C129 C133 1.308 . S
C130 C129 1.373 . S
C130 C131 1.429 . S
C130 H140 0.932 . S
C131 C128 1.358 . S
C131 C130 1.429 . S
C131 H141 0.930 . S
C132 C128 1.332 . S
C132 C133 1.394 . S
C132 H142 0.932 1_455 S
C133 C129 1.308 . S
C133 C132 1.394 . S
C133 H143 0.929 1_455 S
C134 Tb105 2.764 . S
C134 O118 1.239 . S
C134 O119 1.263 . S
C134 C128 1.504 1_556 S
C135 O120 1.236 1_655 S
C135 O121 1.257 . S
H136 C109 0.932 . S
H137 C110 0.930 . S
H138 C111 0.932 1_455 S
H139 C112 0.929 1_455 S
H140 C130 0.932 . S
H141 C131 0.930 . S
H142 C132 0.932 1_655 S
H143 C133 0.929 1_655 S
Tb144 C153 2.764 . S
Tb144 O154 2.325 . S
Tb144 O157 2.303 1_565 S
Tb144 O161 2.322 . S
Tb144 O162 2.349 . S
Tb144 O165 2.415 1_565 S
Tb144 O166 2.399 . S
Tb145 O155 2.322 . S
Tb145 O156 2.349 . S
Tb145 O158 2.415 1_545 S
Tb145 O159 2.399 1_556 S
Tb145 O160 2.325 . S
Tb145 O163 2.303 1_545 S
Tb145 C174 2.764 1_556 S
C146 O162 1.261 . S
C146 O163 1.257 . S
C147 C150 1.358 . S
C147 C151 1.332 1_565 S
C147 C153 1.504 . S
C148 C149 1.373 . S
C148 C152 1.308 1_565 S
C149 C148 1.373 . S
C149 C150 1.429 . S
C149 H176 0.932 . S
C150 C147 1.358 . S
C150 C149 1.429 . S
C150 H177 0.930 . S
C151 C147 1.332 1_545 S
C151 C152 1.394 . S
C151 H178 0.932 . S
C152 C148 1.308 1_545 S
C152 C151 1.394 . S
C152 H179 0.929 . S
C153 Tb144 2.764 . S
C153 C147 1.504 . S
C153 O165 1.239 1_565 S
C153 O166 1.263 . S
O154 Tb144 2.325 . S
O154 C164 1.236 1_565 S
O155 Tb145 2.322 . S
O155 C164 1.257 . S
O156 Tb145 2.349 . S
O156 C167 1.261 . S
O157 Tb144 2.303 1_545 S
O157 C167 1.257 . S
O158 Tb145 2.415 1_565 S
O158 C174 1.239 1_566 S
O159 Tb145 2.399 1_554 S
O159 C174 1.263 . S
O160 Tb145 2.325 . S
O160 C175 1.236 1_545 S
O161 Tb144 2.322 . S
O161 C175 1.257 . S
O162 Tb144 2.349 . S
O162 C146 1.261 . S
O163 Tb145 2.303 1_565 S
O163 C146 1.257 . S
C164 O154 1.236 1_545 S
C164 O155 1.257 . S
O165 Tb144 2.415 1_545 S
O165 C153 1.239 1_545 S
O166 Tb144 2.399 . S
O166 C153 1.263 . S
C167 O156 1.261 . S
C167 O157 1.257 . S
C168 C171 1.358 . S
C168 C172 1.332 1_545 S
C168 C174 1.504 . S
C169 C170 1.373 . S
C169 C173 1.308 1_545 S
C170 C169 1.373 . S
C170 C171 1.429 . S
C170 H180 0.932 . S
C171 C168 1.358 . S
C171 C170 1.429 . S
C171 H181 0.930 . S
C172 C168 1.332 1_565 S
C172 C173 1.394 . S
C172 H182 0.932 . S
C173 C169 1.308 1_565 S
C173 C172 1.394 . S
C173 H183 0.929 . S
C174 Tb145 2.764 1_554 S
C174 O158 1.239 1_544 S
C174 O159 1.263 . S
C174 C168 1.504 . S
C175 O160 1.236 1_565 S
C175 O161 1.257 . S
H176 C149 0.932 . S
H177 C150 0.930 . S
H178 C151 0.932 . S
H179 C152 0.929 . S
H180 C170 0.932 . S
H181 C171 0.930 . S
H182 C172 0.932 . S
H183 C173 0.929 . S
Tb184 C193 2.764 1_556 S
Tb184 O194 2.325 . S
Tb184 O197 2.303 . S
Tb184 O201 2.322 . S
Tb184 O202 2.349 . S
Tb184 O205 2.415 1_556 S
Tb184 O206 2.399 . S
Tb185 O195 2.322 . S
Tb185 O196 2.349 . S
Tb185 O198 2.415 . S
Tb185 O199 2.399 . S
Tb185 O200 2.325 . S
Tb185 O203 2.303 . S
Tb185 C214 2.764 . S
C186 O202 1.261 . S
C186 O203 1.257 . S
C187 C190 1.358 . S
C187 C191 1.332 . S
C187 C193 1.504 . S
C188 C189 1.373 . S
C188 C192 1.308 . S
C189 C188 1.373 . S
C189 C190 1.429 . S
C189 H216 0.932 . S
C190 C187 1.358 . S
C190 C189 1.429 . S
C190 H217 0.930 . S
C191 C187 1.332 . S
C191 C192 1.394 . S
C191 H218 0.932 . S
C192 C188 1.308 . S
C192 C191 1.394 . S
C192 H219 0.929 . S
C193 Tb184 2.764 1_554 S
C193 C187 1.504 . S
C193 O205 1.239 . S
C193 O206 1.263 1_554 S
O194 Tb184 2.325 . S
O194 C204 1.236 . S
O195 Tb185 2.322 . S
O195 C204 1.257 . S
O196 Tb185 2.349 . S
O196 C207 1.261 . S
O197 Tb184 2.303 . S
O197 C207 1.257 . S
O198 Tb185 2.415 . S
O198 C214 1.239 . S
O199 Tb185 2.399 . S
O199 C214 1.263 . S
O200 Tb185 2.325 . S
O200 C215 1.236 . S
O201 Tb184 2.322 . S
O201 C215 1.257 . S
O202 Tb184 2.349 . S
O202 C186 1.261 . S
O203 Tb185 2.303 . S
O203 C186 1.257 . S
C204 O194 1.236 . S
C204 O195 1.257 . S
O205 Tb184 2.415 1_554 S
O205 C193 1.239 . S
O206 Tb184 2.399 . S
O206 C193 1.263 1_556 S
C207 O196 1.261 . S
C207 O197 1.257 . S
C208 C211 1.358 . S
C208 C212 1.332 . S
C208 C214 1.504 . S
C209 C210 1.373 . S
C209 C213 1.308 . S
C210 C209 1.373 . S
C210 C211 1.429 . S
C210 H220 0.932 . S
C211 C208 1.358 . S
C211 C210 1.429 . S
C211 H221 0.930 . S
C212 C208 1.332 . S
C212 C213 1.394 . S
C212 H222 0.932 . S
C213 C209 1.308 . S
C213 C212 1.394 . S
C213 H223 0.929 . S
C214 Tb185 2.764 . S
C214 O198 1.239 . S
C214 O199 1.263 . S
C214 C208 1.504 . S
C215 O200 1.236 . S
C215 O201 1.257 . S
H216 C189 0.932 . S
H217 C190 0.930 . S
H218 C191 0.932 . S
H219 C192 0.929 . S
H220 C210 0.932 . S
H221 C211 0.930 . S
H222 C212 0.932 . S
H223 C213 0.929 . S
Tb224 C233 2.764 . S
Tb224 O234 2.325 . S
Tb224 O237 2.303 . S
Tb224 O241 2.322 1_455 S
Tb224 O242 2.349 . S
Tb224 O245 2.415 . S
Tb224 O246 2.399 . S
Tb225 O235 2.322 1_655 S
Tb225 O236 2.349 . S
Tb225 O238 2.415 1_556 S
Tb225 O239 2.399 . S
Tb225 O240 2.325 . S
Tb225 O243 2.303 . S
Tb225 C254 2.764 1_556 S
C226 O242 1.261 . S
C226 O243 1.257 1_455 S
C227 C230 1.358 . S
C227 C231 1.332 . S
C227 C233 1.504 . S
C228 C229 1.373 . S
C228 C232 1.308 . S
C229 C228 1.373 . S
C229 C230 1.429 . S
C229 H256 0.932 . S
C230 C227 1.358 . S
C230 C229 1.429 . S
C230 H257 0.930 . S
C231 C227 1.332 . S
C231 C232 1.394 . S
C231 H258 0.932 . S
C232 C228 1.308 . S
C232 C231 1.394 . S
C232 H259 0.929 . S
C233 Tb224 2.764 . S
C233 C227 1.504 . S
C233 O245 1.239 . S
C233 O246 1.263 . S
O234 Tb224 2.325 . S
O234 C244 1.236 . S
O235 Tb225 2.322 1_455 S
O235 C244 1.257 . S
O236 Tb225 2.349 . S
O236 C247 1.261 . S
O237 Tb224 2.303 . S
O237 C247 1.257 1_455 S
O238 Tb225 2.415 1_554 S
O238 C254 1.239 . S
O239 Tb225 2.399 . S
O239 C254 1.263 1_556 S
O240 Tb225 2.325 . S
O240 C255 1.236 . S
O241 Tb224 2.322 1_655 S
O241 C255 1.257 . S
O242 Tb224 2.349 . S
O242 C226 1.261 . S
O243 Tb225 2.303 . S
O243 C226 1.257 1_655 S
C244 O234 1.236 . S
C244 O235 1.257 . S
O245 Tb224 2.415 . S
O245 C233 1.239 . S
O246 Tb224 2.399 . S
O246 C233 1.263 . S
C247 O236 1.261 . S
C247 O237 1.257 1_655 S
C248 C251 1.358 . S
C248 C252 1.332 . S
C248 C254 1.504 . S
C249 C250 1.373 . S
C249 C253 1.308 . S
C250 C249 1.373 . S
C250 C251 1.429 . S
C250 H260 0.932 . S
C251 C248 1.358 . S
C251 C250 1.429 . S
C251 H261 0.930 . S
C252 C248 1.332 . S
C252 C253 1.394 . S
C252 H262 0.932 . S
C253 C249 1.308 . S
C253 C252 1.394 . S
C253 H263 0.929 . S
C254 Tb225 2.764 1_554 S
C254 O238 1.239 . S
C254 O239 1.263 1_554 S
C254 C248 1.504 . S
C255 O240 1.236 . S
C255 O241 1.257 . S
H256 C229 0.932 . S
H257 C230 0.930 . S
H258 C231 0.932 . S
H259 C232 0.929 . S
H260 C250 0.932 . S
H261 C251 0.930 . S
H262 C252 0.932 . S
H263 C253 0.929 . S
H264 C270 0.930 . S
H265 C274 0.930 . S
H266 C279 0.929 . S
H267 C277 0.929 . S
H268 C272 0.929 . S
H269 C278 0.929 . S
C270 H264 0.930 . S
C270 C271 1.368 1_565 S
C270 C278 1.378 . S
C271 C270 1.368 1_545 S
C271 C279 1.432 . S
C272 H268 0.929 . S
C272 C274 1.378 . S
C272 C276 1.350 . S
C273 C276 1.460 . S
C273 C278 1.316 1_545 S
C273 N281 1.467 . S
C274 H265 0.930 . S
C274 C272 1.378 . S
C274 C275 1.367 . S
C275 C274 1.367 . S
C275 C277 1.433 1_545 S
C276 C272 1.350 . S
C276 C273 1.460 . S
C276 N280 1.427 1_545 S
C277 H267 0.929 . S
C277 C275 1.433 1_565 S
C277 N280 1.384 . S
C278 H269 0.929 . S
C278 C270 1.378 . S
C278 C273 1.316 1_565 S
C279 H266 0.929 . S
C279 C271 1.432 . S
C279 N281 1.384 . S
N280 C276 1.427 1_565 S
N280 C277 1.384 . S
N281 C273 1.467 . S
N281 C279 1.384 . S
H282 C288 0.930 . S
H283 C292 0.930 . S
H284 C297 0.929 . S
H285 C295 0.929 . S
H286 C290 0.929 . S
H287 C296 0.929 . S
C288 H282 0.930 . S
C288 C289 1.367 . S
C288 C296 1.378 . S
C289 C288 1.367 . S
C289 C297 1.433 . S
C290 H286 0.929 . S
C290 C292 1.378 . S
C290 C294 1.350 . S
C291 C294 1.463 . S
C291 C296 1.350 . S
C291 N299 1.427 . S
C292 H283 0.930 . S
C292 C290 1.378 . S
C292 C293 1.367 . S
C293 C292 1.367 . S
C293 C295 1.433 . S
C294 C290 1.350 . S
C294 C291 1.463 . S
C294 N298 1.427 . S
C295 H285 0.929 . S
C295 C293 1.433 . S
C295 N298 1.384 . S
C296 H287 0.929 . S
C296 C288 1.378 . S
C296 C291 1.350 . S
C297 H284 0.929 . S
C297 C289 1.433 . S
C297 N299 1.384 . S
N298 C294 1.427 . S
N298 C295 1.384 . S
N299 C291 1.427 . S
N299 C297 1.384 . S
H300 C306 0.930 . S
H301 C310 0.930 . S
H302 C315 0.929 . S
H303 C313 0.929 . S
H304 C308 0.929 . S
H305 C314 0.929 . S
C306 H300 0.930 . S
C306 C307 1.367 . S
C306 C314 1.378 . S
C307 C306 1.367 . S
C307 C315 1.433 . S
C308 H304 0.929 . S
C308 C310 1.378 . S
C308 C312 1.350 . S
C309 C312 1.463 . S
C309 C314 1.350 . S
C309 N317 1.427 . S
C310 H301 0.930 . S
C310 C308 1.378 . S
C310 C311 1.367 . S
C311 C310 1.367 . S
C311 C313 1.433 . S
C312 C308 1.350 . S
C312 C309 1.463 . S
C312 N316 1.427 . S
C313 H303 0.929 . S
C313 C311 1.433 . S
C313 N316 1.384 . S
C314 H305 0.929 . S
C314 C306 1.378 . S
C314 C309 1.350 . S
C315 H302 0.929 . S
C315 C307 1.433 . S
C315 N317 1.384 . S
N316 C312 1.427 . S
N316 C313 1.384 . S
N317 C309 1.427 . S
N317 C315 1.384 . S
H318 C324 0.930 1_655 S
H319 C328 0.930 . S
H320 C333 0.929 . S
H321 C331 0.928 1_655 S
H322 C326 0.929 . S
H323 C332 0.928 1_655 S
C324 H318 0.930 1_455 S
C324 C325 1.367 . S
C324 C332 1.378 . S
C325 C324 1.367 . S
C325 C333 1.433 . S
C326 H322 0.929 . S
C326 C328 1.378 . S
C326 C330 1.350 . S
C327 C330 1.463 . S
C327 C332 1.350 . S
C327 N335 1.427 . S
C328 H319 0.930 . S
C328 C326 1.378 . S
C328 C329 1.367 . S
C329 C328 1.367 . S
C329 C331 1.434 . S
C330 C326 1.350 . S
C330 C327 1.463 . S
C330 N334 1.428 . S
C331 H321 0.928 1_455 S
C331 C329 1.434 . S
C331 N334 1.384 . S
C332 H323 0.928 1_455 S
C332 C324 1.378 . S
C332 C327 1.350 . S
C333 H320 0.929 . S
C333 C325 1.433 . S
C333 N335 1.384 . S
N334 C330 1.428 . S
N334 C331 1.384 . S
N335 C327 1.427 . S
N335 C333 1.384 . S
H336 C342 0.930 . S
H337 C346 0.930 . S
H338 C351 0.929 . S
H339 C349 0.929 . S
H340 C344 0.929 . S
H341 C350 0.929 . S
C342 H336 0.930 . S
C342 C343 1.385 . S
C342 C350 1.378 . S
C343 C342 1.385 . S
C343 C351 1.411 1_565 S
C344 H340 0.929 . S
C344 C346 1.378 1_554 S
C344 C348 1.350 1_545 S
C345 C348 1.463 . S
C345 C350 1.350 . S
C345 N353 1.427 1_565 S
C346 H337 0.930 . S
C346 C344 1.378 1_556 S
C346 C347 1.367 1_545 S
C347 C346 1.367 1_565 S
C347 C349 1.433 1_556 S
C348 C344 1.350 1_565 S
C348 C345 1.463 . S
C348 N352 1.427 . S
C349 H339 0.929 . S
C349 C347 1.433 1_554 S
C349 N352 1.384 . S
C350 H341 0.929 . S
C350 C342 1.378 . S
C350 C345 1.350 . S
C351 H338 0.929 . S
C351 C343 1.411 1_545 S
C351 N353 1.384 . S
N352 C348 1.427 . S
N352 C349 1.384 . S
N353 C345 1.427 1_545 S
N353 C351 1.384 . S
H354 C360 0.930 . S
H355 C364 0.930 . S
H356 C369 0.929 . S
H357 C367 0.929 . S
H358 C362 0.929 1_554 S
H359 C368 0.929 . S
C360 H354 0.930 . S
C360 C361 1.367 . S
C360 C368 1.378 . S
C361 C360 1.367 . S
C361 C369 1.433 1_556 S
C362 H358 0.929 1_556 S
C362 C364 1.378 . S
C362 C366 1.350 . S
C363 C366 1.463 . S
C363 C368 1.350 . S
C363 N371 1.427 . S
C364 H355 0.930 . S
C364 C362 1.378 . S
C364 C365 1.367 . S
C365 C364 1.367 . S
C365 C367 1.433 . S
C366 C362 1.350 . S
C366 C363 1.463 . S
C366 N370 1.427 . S
C367 H357 0.929 . S
C367 C365 1.433 . S
C367 N370 1.384 . S
C368 H359 0.929 . S
C368 C360 1.378 . S
C368 C363 1.350 . S
C369 H356 0.929 . S
C369 C361 1.433 1_554 S
C369 N371 1.384 1_554 S
N370 C366 1.427 . S
N370 C367 1.384 . S
N371 C363 1.427 . S
N371 C369 1.384 1_556 S
H372 C378 0.930 . S
H373 C382 0.930 . S
H374 C387 0.929 . S
H375 C385 0.929 1_556 S
H376 C380 0.929 . S
H377 C386 0.929 . S
C378 H372 0.930 . S
C378 C379 1.367 . S
C378 C386 1.378 . S
C379 C378 1.367 . S
C379 C387 1.433 . S
C380 H376 0.929 . S
C380 C382 1.378 . S
C380 C384 1.350 . S
C381 C384 1.463 . S
C381 C386 1.350 . S
C381 N389 1.427 . S
C382 H373 0.930 . S
C382 C380 1.378 . S
C382 C383 1.367 1_554 S
C383 C382 1.367 1_556 S
C383 C385 1.433 1_556 S
C384 C380 1.350 . S
C384 C381 1.463 . S
C384 N388 1.427 . S
C385 H375 0.929 1_554 S
C385 C383 1.433 1_554 S
C385 N388 1.384 . S
C386 H377 0.929 . S
C386 C378 1.378 . S
C386 C381 1.350 . S
C387 H374 0.929 . S
C387 C379 1.433 . S
C387 N389 1.384 . S
N388 C384 1.427 . S
N388 C385 1.384 . S
N389 C381 1.427 . S
N389 C387 1.384 . S
H390 C396 0.930 . S
H391 C400 0.930 . S
H392 C405 0.929 . S
H393 C403 0.929 . S
H394 C398 0.929 . S
H395 C404 0.929 . S
C396 H390 0.930 . S
C396 C397 1.367 . S
C396 C404 1.378 . S
C397 C396 1.367 . S
C397 C405 1.433 1_655 S
C398 H394 0.929 . S
C398 C400 1.378 1_554 S
C398 C402 1.334 1_455 S
C399 C402 1.464 . S
C399 C404 1.350 . S
C399 N407 1.427 1_655 S
C400 H391 0.930 . S
C400 C398 1.378 1_556 S
C400 C401 1.346 1_455 S
C401 C400 1.346 1_655 S
C401 C403 1.456 1_556 S
C402 C398 1.334 1_655 S
C402 C399 1.464 . S
C402 N406 1.443 . S
C403 H393 0.929 . S
C403 C401 1.456 1_554 S
C403 N406 1.384 . S
C404 H395 0.929 . S
C404 C396 1.378 . S
C404 C399 1.350 . S
C405 H392 0.929 . S
C405 C397 1.433 1_455 S
C405 N407 1.384 . S
N406 C402 1.443 . S
N406 C403 1.384 . S
N407 C399 1.427 1_455 S
N407 C405 1.384 . S
H408 C414 0.930 . S
H409 C418 0.930 . S
H410 C423 0.929 . S
H411 C421 0.929 . S
H412 C416 0.929 . S
H413 C422 0.929 . S
C414 H408 0.930 . S
C414 C415 1.364 1_655 S
C414 C422 1.378 . S
C415 C414 1.364 1_455 S
C415 C423 1.431 1_455 S
C416 H412 0.929 . S
C416 C418 1.378 . S
C416 C420 1.350 . S
C417 C420 1.463 . S
C417 C422 1.350 . S
C417 N425 1.427 . S
C418 H409 0.930 . S
C418 C416 1.378 . S
C418 C419 1.367 . S
C419 C418 1.367 . S
C419 C421 1.433 . S
C420 C416 1.350 . S
C420 C417 1.463 . S
C420 N424 1.427 . S
C421 H411 0.929 . S
C421 C419 1.433 . S
C421 N424 1.384 . S
C422 H413 0.929 . S
C422 C414 1.378 . S
C422 C417 1.350 . S
C423 H410 0.929 . S
C423 C415 1.431 1_655 S
C423 N425 1.384 . S
N424 C420 1.427 . S
N424 C421 1.384 . S
N425 C417 1.427 . S
N425 C423 1.384 . S
H426 C432 0.930 . S
H427 C436 0.930 . S
H428 C441 0.929 . S
H429 C439 0.929 . S
H430 C434 0.929 . S
H431 C440 0.929 . S
C432 H426 0.930 . S
C432 C433 1.367 1_565 S
C432 C440 1.378 . S
C433 C432 1.367 1_545 S
C433 C441 1.433 . S
C434 H430 0.929 . S
C434 C436 1.378 . S
C434 C438 1.350 1_545 S
C435 C438 1.463 . S
C435 C440 1.350 . S
C435 N443 1.427 1_565 S
C436 H427 0.930 . S
C436 C434 1.378 . S
C436 C437 1.367 1_545 S
C437 C436 1.367 1_565 S
C437 C439 1.433 . S
C438 C434 1.350 1_565 S
C438 C435 1.463 . S
C438 N442 1.427 . S
C439 H429 0.929 . S
C439 C437 1.433 . S
C439 N442 1.384 . S
C440 H431 0.929 . S
C440 C432 1.378 . S
C440 C435 1.350 . S
C441 H428 0.929 . S
C441 C433 1.433 . S
C441 N443 1.384 . S
N442 C438 1.427 . S
N442 C439 1.384 . S
N443 C435 1.427 1_545 S
N443 C441 1.384 . S
H444 C450 0.930 . S
H445 C454 0.930 . S
H446 C459 0.929 . S
H447 C457 0.929 . S
H448 C452 0.929 . S
H449 C458 0.929 . S
C450 H444 0.930 . S
C450 C451 1.367 . S
C450 C458 1.378 . S
C451 C450 1.367 . S
C451 C459 1.433 . S
C452 H448 0.929 . S
C452 C454 1.378 . S
C452 C456 1.350 . S
C453 C456 1.463 . S
C453 C458 1.350 . S
C453 N461 1.427 . S
C454 H445 0.930 . S
C454 C452 1.378 . S
C454 C455 1.367 . S
C455 C454 1.367 . S
C455 C457 1.433 . S
C456 C452 1.350 . S
C456 C453 1.463 . S
C456 N460 1.427 . S
C457 H447 0.929 . S
C457 C455 1.433 . S
C457 N460 1.384 . S
C458 H449 0.929 . S
C458 C450 1.378 . S
C458 C453 1.350 . S
C459 H446 0.929 . S
C459 C451 1.433 . S
C459 N461 1.384 . S
N460 C456 1.427 . S
N460 C457 1.384 . S
N461 C453 1.427 . S
N461 C459 1.384 . S
H462 C468 0.930 . S
H463 C472 0.930 . S
H464 C477 0.929 . S
H465 C475 0.929 . S
H466 C470 0.929 . S
H467 C476 0.929 . S
C468 H462 0.930 . S
C468 C469 1.367 . S
C468 C476 1.378 . S
C469 C468 1.367 . S
C469 C477 1.433 . S
C470 H466 0.929 . S
C470 C472 1.378 . S
C470 C474 1.350 . S
C471 C474 1.463 . S
C471 C476 1.350 . S
C471 N479 1.427 . S
C472 H463 0.930 . S
C472 C470 1.378 . S
C472 C473 1.367 . S
C473 C472 1.367 . S
C473 C475 1.433 . S
C474 C470 1.350 . S
C474 C471 1.463 . S
C474 N478 1.427 . S
C475 H465 0.929 . S
C475 C473 1.433 . S
C475 N478 1.384 . S
C476 H467 0.929 . S
C476 C468 1.378 . S
C476 C471 1.350 . S
C477 H464 0.929 . S
C477 C469 1.433 . S
C477 N479 1.384 . S
N478 C474 1.427 . S
N478 C475 1.384 . S
N479 C471 1.427 . S
N479 C477 1.384 . S
H480 C486 0.930 . S
H481 C490 0.930 . S
H482 C495 0.929 . S
H483 C493 0.929 . S
H484 C488 0.929 1_655 S
H485 C494 0.929 . S
C486 H480 0.930 . S
C486 C487 1.369 . S
C486 C494 1.378 . S
C487 C486 1.369 . S
C487 C495 1.432 1_455 S
C488 H484 0.929 1_455 S
C488 C490 1.378 . S
C488 C492 1.350 . S
C489 C492 1.463 . S
C489 C494 1.350 . S
C489 N497 1.427 1_455 S
C490 H481 0.930 . S
C490 C488 1.378 . S
C490 C491 1.367 . S
C491 C490 1.367 . S
C491 C493 1.433 . S
C492 C488 1.350 . S
C492 C489 1.463 . S
C492 N496 1.427 . S
C493 H483 0.929 . S
C493 C491 1.433 . S
C493 N496 1.384 . S
C494 H485 0.929 . S
C494 C486 1.378 . S
C494 C489 1.350 . S
C495 H482 0.929 . S
C495 C487 1.432 1_655 S
C495 N497 1.384 . S
N496 C492 1.427 . S
N496 C493 1.384 . S
N497 C489 1.427 1_655 S
N497 C495 1.384 . S
H498 C504 0.930 . S
H499 C508 0.955 . S
H500 C513 0.929 . S
H501 C511 0.929 . S
H502 C506 0.929 . S
H503 C512 0.929 . S
C504 H498 0.930 . S
C504 C505 1.327 1_545 S
C504 C512 1.378 . S
C505 C504 1.327 1_565 S
C505 C513 1.461 . S
C506 H502 0.929 . S
C506 C508 1.392 . S
C506 C510 1.350 1_565 S
C507 C510 1.463 . S
C507 C512 1.350 . S
C507 N515 1.427 1_545 S
C508 H499 0.955 . S
C508 C506 1.392 . S
C508 C509 1.330 1_565 S
C509 C508 1.330 1_545 S
C509 C511 1.433 . S
C510 C506 1.350 1_545 S
C510 C507 1.463 . S
C510 N514 1.427 . S
C511 H501 0.929 . S
C511 C509 1.433 . S
C511 N514 1.384 . S
C512 H503 0.929 . S
C512 C504 1.378 . S
C512 C507 1.350 . S
C513 H500 0.929 . S
C513 C505 1.461 . S
C513 N515 1.384 . S
N514 C510 1.427 . S
N514 C511 1.384 . S
N515 C507 1.427 1_565 S
N515 C513 1.384 . S
H516 C522 0.930 1_554 S
H517 C526 0.930 . S
H518 C531 0.929 . S
H519 C529 0.929 . S
H520 C524 0.929 . S
H521 C530 0.929 1_554 S
C522 H516 0.930 1_556 S
C522 C523 1.367 . S
C522 C530 1.378 . S
C523 C522 1.367 . S
C523 C531 1.433 . S
C524 H520 0.929 . S
C524 C526 1.378 . S
C524 C528 1.350 . S
C525 C528 1.463 . S
C525 C530 1.350 . S
C525 N533 1.427 . S
C526 H517 0.930 . S
C526 C524 1.378 . S
C526 C527 1.367 . S
C527 C526 1.367 . S
C527 C529 1.433 . S
C528 C524 1.350 . S
C528 C525 1.463 . S
C528 N532 1.427 . S
C529 H519 0.929 . S
C529 C527 1.433 . S
C529 N532 1.384 . S
C530 H521 0.929 1_556 S
C530 C522 1.378 . S
C530 C525 1.350 . S
C531 H518 0.929 . S
C531 C523 1.433 . S
C531 N533 1.384 . S
N532 C528 1.427 . S
N532 C529 1.384 . S
N533 C525 1.427 . S
N533 C531 1.384 . S
H534 C540 0.930 . S
H535 C544 0.930 . S
H536 C549 0.929 . S
H537 C547 0.929 . S
H538 C542 0.929 . S
H539 C548 0.929 . S
C540 H534 0.930 . S
C540 C541 1.367 . S
C540 C548 1.378 . S
C541 C540 1.367 . S
C541 C549 1.433 . S
C542 H538 0.929 . S
C542 C544 1.378 . S
C542 C546 1.350 . S
C543 C546 1.463 . S
C543 C548 1.350 . S
C543 N551 1.427 . S
C544 H535 0.930 . S
C544 C542 1.378 . S
C544 C545 1.367 . S
C545 C544 1.367 . S
C545 C547 1.433 . S
C546 C542 1.350 . S
C546 C543 1.463 . S
C546 N550 1.427 . S
C547 H537 0.929 . S
C547 C545 1.433 . S
C547 N550 1.384 . S
C548 H539 0.929 . S
C548 C540 1.378 . S
C548 C543 1.350 . S
C549 H536 0.929 . S
C549 C541 1.433 . S
C549 N551 1.384 . S
N550 C546 1.427 . S
N550 C547 1.384 . S
N551 C543 1.427 . S
N551 C549 1.384 . S
H552 C558 0.930 . S
H553 C562 0.927 1_655 S
H554 C567 0.929 . S
H555 C565 0.929 . S
H556 C560 0.929 . S
H557 C566 0.929 . S
C558 H552 0.930 . S
C558 C559 1.367 1_556 S
C558 C566 1.378 . S
C559 C558 1.367 1_554 S
C559 C567 1.433 1_455 S
C560 H556 0.929 . S
C560 C562 1.377 1_655 S
C560 C564 1.350 1_654 S
C561 C564 1.463 1_554 S
C561 C566 1.350 1_554 S
C561 N569 1.427 1_455 S
C562 H553 0.927 1_455 S
C562 C560 1.377 1_455 S
C562 C563 1.371 1_554 S
C563 C562 1.371 1_556 S
C563 C565 1.433 . S
C564 C560 1.350 1_456 S
C564 C561 1.463 1_556 S
C564 N568 1.427 . S
C565 H555 0.929 . S
C565 C563 1.433 . S
C565 N568 1.384 . S
C566 H557 0.929 . S
C566 C558 1.378 . S
C566 C561 1.350 1_556 S
C567 H554 0.929 . S
C567 C559 1.433 1_655 S
C567 N569 1.384 . S
N568 C564 1.427 . S
N568 C565 1.384 . S
N569 C561 1.427 1_655 S
N569 C567 1.384 . S
H570 C576 0.930 . S
H571 C580 0.930 . S
H572 C585 0.929 . S
H573 C583 0.929 . S
H574 C578 0.929 1_554 S
H575 C584 0.929 . S
C576 H570 0.930 . S
C576 C577 1.367 1_556 S
C576 C584 1.378 . S
C577 C576 1.367 1_554 S
C577 C585 1.433 1_545 S
C578 H574 0.929 1_556 S
C578 C580 1.378 . S
C578 C582 1.350 1_565 S
C579 C582 1.463 . S
C579 C584 1.350 . S
C579 N587 1.427 1_546 S
C580 H571 0.930 . S
C580 C578 1.378 . S
C580 C581 1.367 1_565 S
C581 C580 1.367 1_545 S
C581 C583 1.433 . S
C582 C578 1.350 1_545 S
C582 C579 1.463 . S
C582 N586 1.427 . S
C583 H573 0.929 . S
C583 C581 1.433 . S
C583 N586 1.384 . S
C584 H575 0.929 . S
C584 C576 1.378 . S
C584 C579 1.350 . S
C585 H572 0.929 . S
C585 C577 1.433 1_565 S
C585 N587 1.384 . S
N586 C582 1.427 . S
N586 C583 1.384 . S
N587 C579 1.427 1_564 S
N587 C585 1.384 . S
H588 C594 0.930 . S
H589 C598 0.930 . S
H590 C603 0.929 . S
H591 C601 0.929 . S
H592 C596 0.929 . S
H593 C602 0.929 . S
C594 H588 0.930 . S
C594 C595 1.367 . S
C594 C602 1.378 . S
C595 C594 1.367 . S
C595 C603 1.433 . S
C596 H592 0.929 . S
C596 C598 1.378 . S
C596 C600 1.350 . S
C597 C600 1.463 . S
C597 C602 1.350 . S
C597 N605 1.427 . S
C598 H589 0.930 . S
C598 C596 1.378 . S
C598 C599 1.367 . S
C599 C598 1.367 . S
C599 C601 1.433 . S
C600 C596 1.350 . S
C600 C597 1.463 . S
C600 N604 1.427 . S
C601 H591 0.929 . S
C601 C599 1.433 . S
C601 N604 1.384 . S
C602 H593 0.929 . S
C602 C594 1.378 . S
C602 C597 1.350 . S
C603 H590 0.929 . S
C603 C595 1.433 . S
C603 N605 1.384 . S
N604 C600 1.427 . S
N604 C601 1.384 . S
N605 C597 1.427 . S
N605 C603 1.384 . S
H606 C612 0.930 . S
H607 C616 0.930 . S
H608 C621 0.927 1_554 S
H609 C619 0.929 . S
H610 C614 0.929 . S
H611 C620 0.929 . S
C612 H606 0.930 . S
C612 C613 1.367 . S
C612 C620 1.378 1_554 S
C613 C612 1.367 . S
C613 C621 1.434 1_554 S
C614 H610 0.929 . S
C614 C616 1.378 . S
C614 C618 1.350 . S
C615 C618 1.463 . S
C615 C620 1.350 . S
C615 N623 1.427 . S
C616 H607 0.930 . S
C616 C614 1.378 . S
C616 C617 1.367 . S
C617 C616 1.367 . S
C617 C619 1.433 . S
C618 C614 1.350 . S
C618 C615 1.463 . S
C618 N622 1.427 . S
C619 H609 0.929 . S
C619 C617 1.433 . S
C619 N622 1.384 . S
C620 H611 0.929 . S
C620 C612 1.378 1_556 S
C620 C615 1.350 . S
C621 H608 0.927 1_556 S
C621 C613 1.434 1_556 S
C621 N623 1.385 . S
N622 C618 1.427 . S
N622 C619 1.384 . S
N623 C615 1.427 . S
N623 C621 1.385 . S
H624 C630 0.930 . S
H625 C634 0.930 . S
H626 C639 0.929 . S
H627 C637 0.929 . S
H628 C632 0.929 . S
H629 C638 0.929 . S
C630 H624 0.930 . S
C630 C631 1.367 1_455 S
C630 C638 1.378 . S
C631 C630 1.367 1_655 S
C631 C639 1.433 . S
C632 H628 0.929 . S
C632 C634 1.378 . S
C632 C636 1.350 . S
C633 C636 1.463 . S
C633 C638 1.350 1_655 S
C633 N641 1.427 . S
C634 H625 0.930 . S
C634 C632 1.378 . S
C634 C635 1.367 . S
C635 C634 1.367 . S
C635 C637 1.433 1_655 S
C636 C632 1.350 . S
C636 C633 1.463 . S
C636 N640 1.427 1_655 S
C637 H627 0.929 . S
C637 C635 1.433 1_455 S
C637 N640 1.384 . S
C638 H629 0.929 . S
C638 C630 1.378 . S
C638 C633 1.350 1_455 S
C639 H626 0.929 . S
C639 C631 1.433 . S
C639 N641 1.384 . S
N640 C636 1.427 1_455 S
N640 C637 1.384 . S
N641 C633 1.427 . S
N641 C639 1.384 . S
H642 C648 0.930 . S
H643 C652 0.930 . S
H644 C657 0.929 . S
H645 C655 0.929 . S
H646 C650 0.929 . S
H647 C656 0.929 . S
C648 H642 0.930 . S
C648 C649 1.347 1_545 S
C648 C656 1.378 . S
C649 C648 1.347 1_565 S
C649 C657 1.456 . S
C650 H646 0.929 . S
C650 C652 1.378 . S
C650 C654 1.350 . S
C651 C654 1.463 . S
C651 C656 1.350 1_565 S
C651 N659 1.427 . S
C652 H643 0.930 . S
C652 C650 1.378 . S
C652 C653 1.367 . S
C653 C652 1.367 . S
C653 C655 1.433 1_565 S
C654 C650 1.350 . S
C654 C651 1.463 . S
C654 N658 1.427 1_565 S
C655 H645 0.929 . S
C655 C653 1.433 1_545 S
C655 N658 1.384 . S
C656 H647 0.929 . S
C656 C648 1.378 . S
C656 C651 1.350 1_545 S
C657 H644 0.929 . S
C657 C649 1.456 . S
C657 N659 1.384 . S
N658 C654 1.427 1_545 S
N658 C655 1.384 . S
N659 C651 1.427 . S
N659 C657 1.384 . S
H660 C666 0.930 . S
H661 C670 0.930 . S
H662 C675 0.929 . S
H663 C673 0.929 . S
H664 C668 0.929 . S
H665 C674 0.929 . S
C666 H660 0.930 . S
C666 C667 1.367 . S
C666 C674 1.378 . S
C667 C666 1.367 . S
C667 C675 1.433 . S
C668 H664 0.929 . S
C668 C670 1.378 . S
C668 C672 1.350 . S
C669 C672 1.463 . S
C669 C674 1.350 . S
C669 N677 1.427 . S
C670 H661 0.930 . S
C670 C668 1.378 . S
C670 C671 1.367 . S
C671 C670 1.367 . S
C671 C673 1.433 . S
C672 C668 1.350 . S
C672 C669 1.463 . S
C672 N676 1.427 . S
C673 H663 0.929 . S
C673 C671 1.433 . S
C673 N676 1.384 . S
C674 H665 0.929 . S
C674 C666 1.378 . S
C674 C669 1.350 . S
C675 H662 0.929 . S
C675 C667 1.433 . S
C675 N677 1.384 . S
N676 C672 1.427 . S
N676 C673 1.384 . S
N677 C669 1.427 . S
N677 C675 1.384 . S
H678 C684 0.930 . S
H679 C688 0.930 . S
H680 C693 0.929 . S
H681 C691 0.929 . S
H682 C686 0.929 . S
H683 C692 0.929 . S
C684 H678 0.930 . S
C684 C685 1.367 . S
C684 C692 1.378 . S
C685 C684 1.367 . S
C685 C693 1.433 . S
C686 H682 0.929 . S
C686 C688 1.378 . S
C686 C690 1.350 . S
C687 C690 1.463 . S
C687 C692 1.350 . S
C687 N695 1.427 . S
C688 H679 0.930 . S
C688 C686 1.378 . S
C688 C689 1.367 . S
C689 C688 1.367 . S
C689 C691 1.433 . S
C690 C686 1.350 . S
C690 C687 1.463 . S
C690 N694 1.427 . S
C691 H681 0.929 . S
C691 C689 1.433 . S
C691 N694 1.384 . S
C692 H683 0.929 . S
C692 C684 1.378 . S
C692 C687 1.350 . S
C693 H680 0.929 . S
C693 C685 1.433 . S
C693 N695 1.384 . S
N694 C690 1.427 . S
N694 C691 1.384 . S
N695 C687 1.427 . S
N695 C693 1.384 . S
C271 C82 1.721 . S
C275 C127 2.016 1_545 S
C293 C167 1.734 . S
C289 C95 1.689 . S
C311 C186 2.020 . S
C307 C56 1.772 . S
C329 C247 1.420 1_455 S
C325 C69 1.223 . S
C347 C106 2.009 1_565 S
C343 C30 1.735 1_565 S
C361 C43 1.655 . S
C365 C146 1.740 . S
C379 C4 1.706 . S
C383 C207 2.019 . S
C397 C17 1.252 1_655 S
C401 C226 1.412 1_655 S
C419 C108 0.876 . S
C415 C74 0.886 . S
C437 C148 0.352 . S
C433 C87 0.383 . S
C455 C204 0.945 . S
C451 C100 0.873 . S
C469 C61 0.480 . S
C473 C228 0.468 . S
C487 C22 0.878 1_455 S
C491 C129 0.870 . S
C509 C169 0.350 . S
C505 C35 0.385 1_565 S
C527 C215 0.934 . S
C523 C48 0.866 . S
C541 C9 0.473 . S
C545 C249 0.444 . S
C559 C73 1.475 . S
C563 C124 1.600 . S
C577 C86 2.162 . S
C581 C164 2.356 . S
C599 C188 1.510 . S
C595 C99 1.498 . S
C617 C244 2.347 . S
C613 C60 2.150 . S
C631 C21 1.474 . S
C635 C135 1.617 . S
C653 C175 2.357 . S
C649 C34 2.143 1_565 S
C671 C209 1.520 . S
C667 C47 1.514 . S
C685 C8 2.139 . S
C689 C255 2.344 . S
