# Generated by pormake.
# Topology anh, (6,3)-cn, num edge types: 1
# Building blocks:
#     Node 0, Type 0, BuildingBlock: INOVEN_clean_sbu_0, # of connection points: 6
#     Node 1, Type 0, BuildingBlock: INOVEN_clean_sbu_0, # of connection points: 6
#     Node 2, Type 0, BuildingBlock: INOVEN_clean_sbu_0, # of connection points: 6
#     Node 3, Type 1, BuildingBlock: PAMTOO_clean_linker_0, # of connection points: 3
#     Node 4, Type 1, BuildingBlock: PAMTOO_clean_linker_0, # of connection points: 3
#     Node 5, Type 1, BuildingBlock: PAMTOO_clean_linker_0, # of connection points: 3
#     Node 6, Type 1, BuildingBlock: PAMTOO_clean_linker_0, # of connection points: 3
#     Node 7, Type 1, BuildingBlock: PAMTOO_clean_linker_0, # of connection points: 3
#     Node 8, Type 1, BuildingBlock: PAMTOO_clean_linker_0, # of connection points: 3
#     Edge 9, Type (0, 1), BuildingBlock: AJUNOK_clean_linker_0, # of connection points: 2
#     Edge 10, Type (0, 1), BuildingBlock: AJUNOK_clean_linker_0, # of connection points: 2
#     Edge 11, Type (0, 1), BuildingBlock: AJUNOK_clean_linker_0, # of connection points: 2
#     Edge 12, Type (0, 1), BuildingBlock: AJUNOK_clean_linker_0, # of connection points: 2
#     Edge 13, Type (0, 1), BuildingBlock: AJUNOK_clean_linker_0, # of connection points: 2
#     Edge 14, Type (0, 1), BuildingBlock: AJUNOK_clean_linker_0, # of connection points: 2
#     Edge 15, Type (0, 1), BuildingBlock: AJUNOK_clean_linker_0, # of connection points: 2
#     Edge 16, Type (0, 1), BuildingBlock: AJUNOK_clean_linker_0, # of connection points: 2
#     Edge 17, Type (0, 1), BuildingBlock: AJUNOK_clean_linker_0, # of connection points: 2
#     Edge 18, Type (0, 1), BuildingBlock: AJUNOK_clean_linker_0, # of connection points: 2
#     Edge 19, Type (0, 1), BuildingBlock: AJUNOK_clean_linker_0, # of connection points: 2
#     Edge 20, Type (0, 1), BuildingBlock: AJUNOK_clean_linker_0, # of connection points: 2
#     Edge 21, Type (0, 1), BuildingBlock: AJUNOK_clean_linker_0, # of connection points: 2
#     Edge 22, Type (0, 1), BuildingBlock: AJUNOK_clean_linker_0, # of connection points: 2
#     Edge 23, Type (0, 1), BuildingBlock: AJUNOK_clean_linker_0, # of connection points: 2
#     Edge 24, Type (0, 1), BuildingBlock: AJUNOK_clean_linker_0, # of connection points: 2
#     Edge 25, Type (0, 1), BuildingBlock: AJUNOK_clean_linker_0, # of connection points: 2
#     Edge 26, Type (0, 1), BuildingBlock: AJUNOK_clean_linker_0, # of connection points: 2
# Relax obj value: 0.222
# Max RMSD: 0.215
# Mean RMSD: 0.136
data_MOF--net-anh--node1-INOVEN_clean_sbu_0--node2-PAMTOO_clean_linker_0--edge1-AJUNOK_clean_linker_0
_symmetry_space_group_name_H-M    P1
_symmetry_Int_Tables_number       1
_symmetry_cell_setting            triclinic
loop_
_symmetry_equiv_pos_as_xyz
'x, y, z'
_cell_length_a     24.733823
_cell_length_b     29.967963
_cell_length_c     35.880698
_cell_angle_alpha  88.473766
_cell_angle_beta   91.57844
_cell_angle_gamma 133.1906
loop_
_atom_site_label
_atom_site_type_symbol
_atom_site_fract_x
_atom_site_fract_y
_atom_site_fract_z
_atom_type_partial_charge
Gd0 Gd 0.15927 0.51233 0.15828 0.0
Gd1 Gd 1.05849 0.5299 0.15922 0.0
C2 C 0.23522 0.65317 0.16242 0.0
C3 C 0.26066 0.51638 0.13896 0.0
C4 C 0.33469 0.55043 0.1556 0.0
C5 C 0.34494 0.52503 0.1851 0.0
C6 C 0.39779 0.60664 0.14005 0.0
C7 C 0.47031 0.5863 0.16489 0.0
C8 C 0.4677 0.62707 0.14698 0.0
C9 C 0.41546 0.54717 0.19188 0.0
C10 C 0.13532 0.51008 0.23121 0.0
C11 C 0.98104 0.38922 0.16138 0.0
C12 C 0.97917 0.54921 0.18103 0.0
C13 C 0.90355 0.50306 0.19486 0.0
C14 C 0.84955 0.44891 0.17494 0.0
C15 C 0.88447 0.51212 0.22832 0.0
C16 C 0.75545 0.43003 0.21169 0.0
C17 C 0.80984 0.47381 0.23757 0.0
C18 C 0.77535 0.41154 0.18391 0.0
C19 C 1.07907 0.512 0.08909 0.0
O20 O 0.24508 0.61552 0.16948 0.0
O21 O 0.1677 0.63029 0.15435 0.0
O22 O 0.20351 0.47026 0.15824 0.0
O23 O 0.25046 0.54942 0.12226 0.0
O24 O 0.17801 0.50387 0.21846 0.0
O25 O 0.10706 0.51736 0.20485 0.0
O26 O 0.9732 0.42704 0.17022 0.0
O27 O 1.0472 0.41218 0.15056 0.0
O28 O 0.9879 0.54647 0.14556 0.0
O29 O 1.02915 0.55835 0.20267 0.0
O30 O 1.01503 0.48708 0.10218 0.0
O31 O 0.12827 0.54459 0.11413 0.0
H32 H 0.29837 0.48487 0.20027 0.0
H33 H 0.39256 0.6306 0.11943 0.0
H34 H 0.51364 0.66435 0.13002 0.0
H35 H 0.41972 0.52125 0.21118 0.0
H36 H 0.86369 0.4383 0.15053 0.0
H37 H 0.92632 0.5515 0.24545 0.0
H38 H 0.79516 0.48647 0.26049 0.0
H39 H 0.73426 0.37556 0.16463 0.0
Gd40 Gd 0.70079 0.03281 0.48137 0.0
Gd41 Gd 0.60396 0.05439 0.47958 0.0
C42 C 0.51799 0.91321 0.47715 0.0
C43 C 0.75916 0.98883 0.49628 0.0
C44 C 0.72913 0.92607 0.49941 0.0
C45 C 0.71779 0.89378 0.46765 0.0
C46 C 0.71233 0.89811 0.53466 0.0
C47 C 0.67779 0.80855 0.50676 0.0
C48 C 0.68673 0.83995 0.53827 0.0
C49 C 0.6925 0.83553 0.47134 0.0
C50 C 0.67443 0.05191 0.41227 0.0
C51 C 0.78701 0.17457 0.47993 0.0
C52 C 0.54715 0.09977 0.46549 0.0
C53 C 0.57533 0.16139 0.47069 0.0
C54 C 0.58092 0.18241 0.50643 0.0
C55 C 0.59847 0.20037 0.43977 0.0
C56 C 0.62721 0.27851 0.47994 0.0
C57 C 0.6247 0.25857 0.44438 0.0
C58 C 0.60649 0.24028 0.51096 0.0
C59 C 0.63123 0.03728 0.54921 0.0
O60 O 0.58432 0.9341 0.48673 0.0
O61 O 0.51241 0.95304 0.46819 0.0
O62 O 0.75976 1.00794 0.46298 0.0
O63 O 0.7392 1.00502 0.52209 0.0
O64 O 0.73871 0.07383 0.42378 0.0
O65 O 0.6264 1.01842 0.43699 0.0
O66 O 0.71909 0.15223 0.47376 0.0
O67 O 0.79543 0.13614 0.4877 0.0
O68 O 0.53232 0.06777 0.49568 0.0
O69 O 0.58061 0.09556 0.44026 0.0
O70 O 0.56642 1.01336 0.53713 0.0
O71 O 0.67907 0.06995 0.52413 0.0
H72 H 0.72998 0.91395 0.44004 0.0
H73 H 0.72071 0.92182 0.55965 0.0
H74 H 0.67767 0.82089 0.56601 0.0
H75 H 0.68647 0.81228 0.44668 0.0
H76 H 0.56437 0.15389 0.53094 0.0
H77 H 0.59591 0.18571 0.41197 0.0
H78 H 0.64211 0.28761 0.42005 0.0
H79 H 0.60716 0.25406 0.53871 0.0
Gd80 Gd 0.75674 0.64922 0.84388 0.0
Gd81 Gd 0.64962 0.52111 0.84579 0.0
C82 C 0.57142 0.58005 0.84868 0.0
C83 C 0.8254 0.76116 0.82605 0.0
C84 C 0.8016 0.79515 0.82193 0.0
C85 C 0.79671 0.82001 0.85299 0.0
C86 C 0.78226 0.80219 0.78655 0.0
C87 C 0.75389 0.85807 0.81317 0.0
C88 C 0.75843 0.83294 0.78227 0.0
C89 C 0.773 0.85105 0.84865 0.0
C90 C 0.72282 0.60361 0.91318 0.0
C91 C 0.83562 0.59072 0.84667 0.0
C92 C 0.5827 0.40898 0.8606 0.0
C93 C 0.59989 0.37197 0.851 0.0
C94 C 0.61124 0.36647 0.81378 0.0
C95 C 0.60617 0.34237 0.87926 0.0
C96 C 0.62986 0.29924 0.83317 0.0
C97 C 0.62113 0.30645 0.87047 0.0
C98 C 0.62553 0.33016 0.80499 0.0
C99 C 0.6728 0.56337 0.77573 0.0
O100 O 0.64395 0.63128 0.8427 0.0
O101 O 0.55944 0.52885 0.85365 0.0
O102 O 0.82698 0.74431 0.85973 0.0
O103 O 0.79876 0.71874 0.8014 0.0
O104 O 0.79077 0.64772 0.9026 0.0
O105 O 0.67726 0.58586 0.88713 0.0
O106 O 0.76223 0.539 0.847 0.0
O107 O 0.84889 0.6427 0.84467 0.0
O108 O 0.56292 0.42483 0.83301 0.0
O109 O 0.62809 0.45332 0.88431 0.0
O110 O 0.60838 0.51765 0.78925 0.0
O111 O 0.72381 0.58421 0.79969 0.0
H112 H 0.81096 0.81538 0.8807 0.0
H113 H 0.78562 0.78393 0.76201 0.0
H114 H 0.74483 0.8381 0.75451 0.0
H115 H 0.76907 0.86912 0.87307 0.0
H116 H 0.60822 0.38961 0.79133 0.0
H117 H 0.59845 0.34634 0.90815 0.0
H118 H 0.62328 0.28256 0.89274 0.0
H119 H 0.6324 0.32567 0.77605 0.0
H120 H 0.74212 0.15644 0.25362 0.0
H121 H 0.54732 0.96539 0.24101 0.0
H122 H 0.66803 0.07716 0.14388 0.0
H123 H 0.47166 0.947 0.13888 0.0
C124 C 0.476 0.92745 0.16418 0.0
O125 O 0.55158 0.96042 0.17011 0.0
H126 H 0.45503 0.93563 0.18749 0.0
C127 C 0.70318 0.11757 0.23561 0.0
C128 C 0.71448 0.12595 0.19678 0.0
C129 C 0.64502 0.06006 0.25201 0.0
C130 C 0.59352 1.00955 0.22891 0.0
C131 C 0.60007 1.01417 0.19011 0.0
C132 C 0.66089 0.07314 0.17377 0.0
H133 H 0.68001 0.65422 0.61216 0.0
H134 H 0.7125 0.5306 0.60758 0.0
H135 H 0.69086 0.59697 0.50616 0.0
H136 H 0.61395 0.47934 0.50034 0.0
C137 C 0.6382 0.46928 0.52148 0.0
O138 O 0.70428 0.52396 0.53438 0.0
H139 H 0.59826 0.44299 0.54477 0.0
C140 C 0.68646 0.62804 0.59604 0.0
C141 C 0.68303 0.62916 0.55696 0.0
C142 C 0.69767 0.59313 0.61463 0.0
C143 C 0.70662 0.55966 0.59369 0.0
C144 C 0.70407 0.5612 0.55459 0.0
C145 C 0.69398 0.59695 0.53636 0.0
H146 H 1.04892 0.56548 0.92527 0.0
H147 H 0.21356 0.55511 0.92373 0.0
H148 H 0.15499 0.595 0.82092 0.0
H149 H 0.27142 0.53435 0.88881 0.0
C150 C 0.30755 0.57754 0.87225 0.0
O151 O 0.25515 0.58077 0.85319 0.0
H152 H 0.33749 0.61366 0.89378 0.0
C153 C 0.0874 0.56855 0.90873 0.0
C154 C 0.09037 0.58082 0.87023 0.0
C155 C 0.13092 0.55968 0.9274 0.0
C156 C 0.18346 0.56364 0.90803 0.0
C157 C 0.19779 0.57728 0.86958 0.0
C158 C 0.14819 0.58514 0.85053 0.0
H159 H 1.00901 0.40454 0.39367 0.0
H160 H 0.21045 0.59447 0.39935 0.0
H161 H 0.10945 0.48785 0.5007 0.0
H162 H 0.22094 0.6418 0.51251 0.0
C163 C 0.23334 0.64807 0.48231 0.0
O164 O 0.22732 0.60036 0.47101 0.0
H165 H 0.18967 0.64389 0.4678 0.0
C166 C 1.05226 0.4442 0.41036 0.0
C167 C 1.05009 0.43802 0.44938 0.0
C168 C 0.10883 0.50001 0.39218 0.0
C169 C 0.16545 0.55176 0.41331 0.0
C170 C 0.16695 0.54878 0.45235 0.0
C171 C 0.10884 0.49114 0.4706 0.0
H172 H 0.68191 0.97455 0.71089 0.0
H173 H 0.67881 0.11585 0.71637 0.0
H174 H 0.69935 0.0479 0.81727 0.0
H175 H 0.61952 0.08603 0.83241 0.0
C176 C 0.6282 0.10709 0.80456 0.0
O177 O 0.69117 0.12502 0.78903 0.0
H178 H 0.57846 0.07152 0.78705 0.0
C179 C 0.68328 1.00511 0.72739 0.0
C180 C 0.69179 1.00623 0.76643 0.0
C181 C 0.6792 0.04471 0.70916 0.0
C182 C 0.6825 0.08537 0.73015 0.0
C183 C 0.68934 0.08624 0.76907 0.0
C184 C 0.69436 0.04697 0.78716 0.0
H185 H 0.67967 0.50237 0.08414 0.0
H186 H 0.47972 0.43241 0.0267 0.0
H187 H 0.46609 0.35762 0.13285 0.0
H188 H 0.34366 0.34138 0.13029 0.0
C189 C 0.36039 0.36947 0.10455 0.0
O190 O 0.39213 0.3578 0.08043 0.0
H191 H 0.3085 0.35355 0.09155 0.0
C192 C 0.61984 0.47114 0.08267 0.0
C193 C 0.57707 0.4304 0.11253 0.0
C194 C 0.58569 0.47177 0.05101 0.0
C195 C 0.508 0.43227 0.05022 0.0
C196 C 0.46567 0.39137 0.07964 0.0
C197 C 0.49988 0.38893 0.11 0.0
C198 C 0.49342 0.51814 0.15977 0.0
C199 C 0.48419 0.55466 0.14127 0.0
C200 C 0.45547 0.45905 0.1472 0.0
C201 C 0.41147 0.43655 0.11451 0.0
H202 H 0.5194 0.53096 0.18717 0.0
H203 H 0.45628 0.42938 0.16452 0.0
S204 S 0.40133 0.52531 0.04626 0.0
N205 N 0.45104 0.57232 0.08136 0.0
N206 N 0.38104 0.4617 0.05797 0.0
C207 C 0.41575 0.47741 0.09175 0.0
C208 C 0.45364 0.53724 0.10462 0.0
C209 C 0.9271 0.2713 0.48683 0.0
C210 C 0.85405 0.24377 0.47666 0.0
C211 C 0.99018 0.33509 0.48117 0.0
C212 C 0.98368 0.37496 0.46519 0.0
H213 H 0.93609 0.24304 0.49836 0.0
H214 H 1.0448 0.35263 0.48764 0.0
S215 S 0.8067 0.32837 0.43431 0.0
N216 N 0.78098 0.26419 0.45039 0.0
N217 N 0.89745 0.38165 0.44026 0.0
C218 C 0.91099 0.3484 0.45617 0.0
C219 C 0.84717 0.28394 0.46175 0.0
C220 C 0.67 0.86911 0.78436 0.0
C221 C 0.73143 0.89297 0.80745 0.0
C222 C 0.65481 0.90482 0.77322 0.0
C223 C 0.70061 0.96605 0.78453 0.0
H224 H 0.63476 0.82302 0.77376 0.0
H225 H 0.60831 0.88499 0.75442 0.0
S226 S 0.86436 0.04851 0.84794 0.0
N227 N 0.83489 0.98006 0.84371 0.0
N228 N 0.80677 0.0474 0.82254 0.0
C229 C 0.7593 0.98918 0.80963 0.0
C230 C 0.77463 0.95262 0.82111 0.0
C231 C 0.62822 0.37403 0.18789 0.0
C232 C 0.69682 0.429 0.2006 0.0
C233 C 0.58693 0.37471 0.16089 0.0
C234 C 0.61279 0.43038 0.14616 0.0
H235 H 0.61072 0.3306 0.19565 0.0
H236 H 0.5378 0.33148 0.14933 0.0
S237 S 0.7805 0.58658 0.1763 0.0
N238 N 0.78286 0.5405 0.20064 0.0
N239 N 0.70329 0.54121 0.15126 0.0
C240 C 0.67615 0.4853 0.16217 0.0
C241 C 0.71839 0.48473 0.18938 0.0
C242 C 0.37836 0.82461 0.46816 0.0
C243 C 0.44828 0.8446 0.47636 0.0
C244 C 0.31173 0.76192 0.46837 0.0
C245 C 0.31 0.71446 0.47634 0.0
H246 H 0.37439 0.8579 0.46215 0.0
H247 H 0.26021 0.75059 0.46306 0.0
S248 S 0.47683 0.73999 0.49917 0.0
N249 N 0.51083 0.80989 0.49217 0.0
N250 N 0.38609 0.69295 0.49291 0.0
C251 C 0.37941 0.73338 0.48433 0.0
C252 C 0.4479 0.79771 0.48408 0.0
C253 C 0.5865 0.20874 0.79755 0.0
C254 C 0.6366 0.25523 0.82344 0.0
C255 C 0.58596 0.16258 0.79059 0.0
C256 C 0.63578 0.16125 0.80909 0.0
H257 H 0.54541 0.20665 0.7836 0.0
H258 H 0.54473 0.12664 0.77136 0.0
S259 S 0.78386 0.27635 0.87601 0.0
N260 N 0.74162 0.3001 0.86515 0.0
N261 N 0.74031 0.21304 0.85214 0.0
C262 C 0.68841 0.20901 0.83369 0.0
C263 C 0.68884 0.25598 0.8409 0.0
C264 C 0.71627 0.75174 0.49771 0.0
C265 C 0.66479 0.75279 0.51202 0.0
C266 C 0.71861 0.70857 0.51053 0.0
C267 C 0.66947 0.66518 0.53799 0.0
H268 H 0.75886 0.78744 0.47877 0.0
H269 H 0.76248 0.71202 0.50086 0.0
S270 S 0.51263 0.63929 0.57719 0.0
N271 N 0.55545 0.70029 0.54998 0.0
N272 N 0.55913 0.61839 0.57374 0.0
C273 C 0.61269 0.66161 0.54943 0.0
C274 C 0.6105 0.70565 0.53649 0.0
C275 C 0.97018 0.63124 0.87148 0.0
C276 C 0.90307 0.5901 0.84923 0.0
C277 C 1.02861 0.62957 0.87576 0.0
C278 C 1.03125 0.58854 0.85722 0.0
H279 H 0.97723 0.66508 0.88747 0.0
H280 H 1.07333 0.66166 0.89519 0.0
S281 S 0.87298 0.47022 0.79325 0.0
N282 N 0.84731 0.50542 0.80731 0.0
N283 N 0.95335 0.50406 0.81402 0.0
C284 C 0.96508 0.54776 0.83412 0.0
C285 C 0.90412 0.54831 0.83049 0.0
C286 C 0.35605 0.75411 0.18991 0.0
C287 C 0.30122 0.72235 0.16128 0.0
C288 C 0.41454 0.81938 0.1899 0.0
C289 C 0.42292 0.8564 0.16065 0.0
H290 H 0.35202 0.72851 0.21337 0.0
H291 H 0.45214 0.84119 0.21366 0.0
S292 S 0.29896 0.79551 0.07691 0.0
N293 N 0.26282 0.73356 0.10176 0.0
N294 N 0.37173 0.85378 0.10099 0.0
C295 C 0.37006 0.82447 0.13114 0.0
C296 C 0.31001 0.75854 0.1316 0.0
C297 C 0.68687 0.37374 0.5155 0.0
C298 C 0.64349 0.33573 0.48489 0.0
C299 C 0.68914 0.41979 0.52575 0.0
C300 C 0.64918 0.43014 0.50536 0.0
H301 H 0.71615 0.36572 0.53282 0.0
H302 H 0.71929 0.44537 0.55087 0.0
S303 S 0.53314 0.34747 0.42084 0.0
N304 N 0.56364 0.31439 0.43289 0.0
N305 N 0.5697 0.40199 0.45159 0.0
C306 C 0.60982 0.39535 0.47324 0.0
C307 C 0.60694 0.34814 0.46299 0.0
C308 C 0.42522 0.52669 0.85286 0.0
C309 C 0.50388 0.58044 0.85044 0.0
C310 C 0.36506 0.5263 0.85576 0.0
C311 C 0.37377 0.57944 0.85618 0.0
H312 H 0.40882 0.48269 0.85332 0.0
H313 H 0.30946 0.48203 0.85934 0.0
S314 S 0.56671 0.73541 0.85196 0.0
N315 N 0.58325 0.69072 0.84914 0.0
N316 N 0.47586 0.6898 0.85502 0.0
C317 C 0.45235 0.63361 0.85362 0.0
C318 C 0.51388 0.63412 0.85055 0.0
C319 C 0.84593 0.28759 0.14838 0.0
C320 C 0.91549 0.32016 0.1667 0.0
C321 C 0.78276 0.22423 0.15593 0.0
C322 C 0.78494 0.19008 0.18295 0.0
H323 H 0.83985 0.31157 0.1283 0.0
H324 H 0.73087 0.20269 0.1417 0.0
S325 S 0.95256 0.25407 0.24005 0.0
N326 N 0.98097 0.31254 0.21363 0.0
N327 N 0.86531 0.196 0.22781 0.0
C328 C 0.8548 0.22246 0.20103 0.0
C329 C 0.91873 0.28635 0.19304 0.0
C330 C 1.03541 0.48963 0.02196 0.0
C331 C 0.09456 0.52113 0.04802 0.0
C332 C 1.04776 0.50138 0.98333 0.0
C333 C 0.11995 0.54527 0.96871 0.0
H334 H 0.97868 0.45623 0.03149 0.0
H335 H 1.00002 0.47602 0.96471 0.0
S336 S 0.29467 0.63939 0.02479 0.0
N337 N 0.22862 0.59706 0.05607 0.0
N338 N 0.25178 0.61963 0.98392 0.0
C339 C 0.17977 0.57599 -0.00559 0.0
C340 C 0.16713 0.56387 0.03381 0.0
C341 C 0.66861 0.09768 0.35537 0.0
C342 C 0.65645 0.04899 0.3726 0.0
C343 C 0.66061 0.09915 0.31659 0.0
C344 C 0.64196 0.05266 0.29358 0.0
H345 H 0.68603 0.13552 0.37187 0.0
H346 H 0.67103 0.13789 0.3045 0.0
S347 S 0.60109 0.91351 0.3269 0.0
N348 N 0.6203 0.95152 0.36527 0.0
N349 N 0.60909 0.95504 0.29227 0.0
C350 C 0.62714 1.00249 0.31117 0.0
C351 C 0.63379 1.00064 0.35071 0.0
C352 C 0.74743 0.59935 0.71713 0.0
C353 C 0.68266 0.57635 0.73514 0.0
C354 C 0.75221 0.6044 0.67796 0.0
C355 C 0.69289 0.5876 0.65582 0.0
H356 H 0.79363 0.6117 0.73325 0.0
H357 H 0.80247 0.62157 0.6649 0.0
S358 S 0.51273 0.52724 0.6895 0.0
N359 N 0.55909 0.53847 0.72778 0.0
N360 N 0.56844 0.54821 0.65467 0.0
C361 C 0.6288 0.56595 0.67361 0.0
C362 C 0.62366 0.56036 0.71316 0.0
C363 C 0.59293 0.9892 0.61252 0.0
C364 C 0.64799 0.03873 0.58932 0.0
C365 C 0.60424 0.99088 0.6512 0.0
C366 C 0.67031 0.04277 0.66809 0.0
H367 H 0.54039 0.94898 0.6007 0.0
H368 H 0.56031 0.95197 0.66814 0.0
S369 S 0.83265 0.18371 0.61996 0.0
N370 N 0.77229 0.1402 0.58603 0.0
N371 N 0.79238 0.14397 0.65894 0.0
C372 C 0.72626 0.09219 0.64527 0.0
C373 C 0.71546 0.08998 0.60578 0.0
C374 C 0.64271 0.57362 0.96651 0.0
C375 C 0.69939 0.58012 0.95128 0.0
C376 C 0.60955 0.5417 -1e-05 0.0
C377 C 0.63004 0.51316 0.01874 0.0
H378 H 0.62258 0.59207 0.95191 0.0
H379 H 0.56582 0.53773 0.01061 0.0
S380 S 0.77773 0.5186 0.98967 0.0
N381 N 0.77808 0.55924 0.95751 0.0
N382 N 0.71287 0.49545 0.01946 0.0
C383 C 0.68892 0.52142 0.00419 0.0
C384 C 0.72417 0.5557 0.97057 0.0
C385 C 0.11088 0.46073 0.29287 0.0
C386 C 0.12041 0.50547 0.27133 0.0
C387 C 0.10558 0.45874 0.33172 0.0
C388 C 0.11112 0.50224 0.3507 0.0
H389 H 0.10851 0.42736 0.27957 0.0
H390 H 0.09929 0.42385 0.34713 0.0
S391 S 0.13557 0.62858 0.30694 0.0
N392 N 0.13381 0.59363 0.27138 0.0
N393 N 0.12508 0.59073 0.34479 0.0
C394 C 0.11972 0.54688 0.32941 0.0
C395 C 0.12379 0.54817 0.2896 0.0
loop_
_geom_bond_atom_site_label_1
_geom_bond_atom_site_label_2
_geom_bond_distance
_geom_bond_site_symmetry_2
_ccdc_geom_bond_type
Gd0 C3 2.818 . S
Gd0 O20 2.377 . S
Gd0 O22 2.448 . S
Gd0 O23 2.506 . S
Gd0 O24 2.435 . S
Gd0 O25 2.717 1_455 S
Gd0 O27 2.395 1_455 S
Gd0 O31 2.327 . S
Gd1 C12 2.818 . S
Gd1 O21 2.395 1_655 S
Gd1 O25 2.327 . S
Gd1 O26 2.377 . S
Gd1 O28 2.448 . S
Gd1 O29 2.506 . S
Gd1 O30 2.435 . S
Gd1 O31 2.717 1_655 S
C2 O20 1.240 . S
C2 O21 1.240 . S
C3 Gd0 2.818 . S
C3 C4 1.510 . S
C3 O22 1.249 . S
C3 O23 1.252 . S
C4 C3 1.510 . S
C4 C5 1.404 . S
C4 C6 1.352 . S
C5 C4 1.404 . S
C5 C9 1.389 . S
C5 H32 0.930 . S
C6 C4 1.352 . S
C6 C8 1.374 . S
C6 H33 0.931 . S
C7 C8 1.359 . S
C7 C9 1.364 . S
C8 C6 1.374 . S
C8 C7 1.359 . S
C8 H34 0.931 . S
C9 C5 1.389 . S
C9 C7 1.364 . S
C9 H35 0.931 . S
C10 O24 1.256 . S
C10 O25 1.257 1_455 S
C11 O26 1.240 . S
C11 O27 1.240 . S
C12 Gd1 2.818 . S
C12 C13 1.510 . S
C12 O28 1.249 . S
C12 O29 1.252 . S
C13 C12 1.510 . S
C13 C14 1.404 . S
C13 C15 1.352 . S
C14 C13 1.404 . S
C14 C18 1.389 . S
C14 H36 0.930 . S
C15 C13 1.352 . S
C15 C17 1.374 . S
C15 H37 0.931 . S
C16 C17 1.359 . S
C16 C18 1.364 . S
C17 C15 1.374 . S
C17 C16 1.359 . S
C17 H38 0.931 . S
C18 C14 1.389 . S
C18 C16 1.364 . S
C18 H39 0.931 . S
C19 O30 1.256 1_455 S
C19 O31 1.257 . S
O20 Gd0 2.377 . S
O20 C2 1.240 . S
O21 Gd1 2.395 1_455 S
O21 C2 1.240 . S
O22 Gd0 2.448 . S
O22 C3 1.249 . S
O23 Gd0 2.506 . S
O23 C3 1.252 . S
O24 Gd0 2.435 . S
O24 C10 1.256 . S
O25 Gd0 2.717 1_655 S
O25 Gd1 2.327 . S
O25 C10 1.257 1_655 S
O26 Gd1 2.377 . S
O26 C11 1.240 . S
O27 Gd0 2.395 1_655 S
O27 C11 1.240 . S
O28 Gd1 2.448 . S
O28 C12 1.249 . S
O29 Gd1 2.506 . S
O29 C12 1.252 . S
O30 Gd1 2.435 . S
O30 C19 1.256 1_655 S
O31 Gd0 2.327 . S
O31 Gd1 2.717 1_455 S
O31 C19 1.257 . S
H32 C5 0.930 . S
H33 C6 0.931 . S
H34 C8 0.931 . S
H35 C9 0.931 . S
H36 C14 0.930 . S
H37 C15 0.931 . S
H38 C17 0.931 . S
H39 C18 0.931 . S
Gd40 C43 2.818 1_545 S
Gd40 O60 2.377 1_545 S
Gd40 O62 2.448 1_545 S
Gd40 O63 2.506 1_545 S
Gd40 O64 2.435 . S
Gd40 O65 2.717 . S
Gd40 O67 2.395 . S
Gd40 O71 2.327 . S
Gd41 C52 2.818 . S
Gd41 O61 2.395 1_545 S
Gd41 O65 2.327 . S
Gd41 O66 2.377 . S
Gd41 O68 2.448 . S
Gd41 O69 2.506 . S
Gd41 O70 2.435 . S
Gd41 O71 2.717 . S
C42 O60 1.240 . S
C42 O61 1.240 . S
C43 Gd40 2.818 1_565 S
C43 C44 1.510 . S
C43 O62 1.249 . S
C43 O63 1.252 . S
C44 C43 1.510 . S
C44 C45 1.404 . S
C44 C46 1.352 . S
C45 C44 1.404 . S
C45 C49 1.389 . S
C45 H72 0.930 . S
C46 C44 1.352 . S
C46 C48 1.374 . S
C46 H73 0.931 . S
C47 C48 1.359 . S
C47 C49 1.364 . S
C48 C46 1.374 . S
C48 C47 1.359 . S
C48 H74 0.931 . S
C49 C45 1.389 . S
C49 C47 1.364 . S
C49 H75 0.931 . S
C50 O64 1.256 . S
C50 O65 1.257 . S
C51 O66 1.240 . S
C51 O67 1.240 . S
C52 Gd41 2.818 . S
C52 C53 1.510 . S
C52 O68 1.249 . S
C52 O69 1.252 . S
C53 C52 1.510 . S
C53 C54 1.404 . S
C53 C55 1.352 . S
C54 C53 1.404 . S
C54 C58 1.389 . S
C54 H76 0.930 . S
C55 C53 1.352 . S
C55 C57 1.374 . S
C55 H77 0.931 . S
C56 C57 1.359 . S
C56 C58 1.364 . S
C57 C55 1.374 . S
C57 C56 1.359 . S
C57 H78 0.931 . S
C58 C54 1.389 . S
C58 C56 1.364 . S
C58 H79 0.931 . S
C59 O70 1.256 . S
C59 O71 1.257 . S
O60 Gd40 2.377 1_565 S
O60 C42 1.240 . S
O61 Gd41 2.395 1_565 S
O61 C42 1.240 . S
O62 Gd40 2.448 1_565 S
O62 C43 1.249 . S
O63 Gd40 2.506 1_565 S
O63 C43 1.252 . S
O64 Gd40 2.435 . S
O64 C50 1.256 . S
O65 Gd40 2.717 . S
O65 Gd41 2.327 . S
O65 C50 1.257 . S
O66 Gd41 2.377 . S
O66 C51 1.240 . S
O67 Gd40 2.395 . S
O67 C51 1.240 . S
O68 Gd41 2.448 . S
O68 C52 1.249 . S
O69 Gd41 2.506 . S
O69 C52 1.252 . S
O70 Gd41 2.435 . S
O70 C59 1.256 . S
O71 Gd40 2.327 . S
O71 Gd41 2.717 . S
O71 C59 1.257 . S
H72 C45 0.930 . S
H73 C46 0.931 . S
H74 C48 0.931 . S
H75 C49 0.931 . S
H76 C54 0.930 . S
H77 C55 0.931 . S
H78 C57 0.931 . S
H79 C58 0.931 . S
Gd80 C83 2.818 . S
Gd80 O100 2.377 . S
Gd80 O102 2.448 . S
Gd80 O103 2.506 . S
Gd80 O104 2.435 . S
Gd80 O105 2.717 . S
Gd80 O107 2.395 . S
Gd80 O111 2.327 . S
Gd81 C92 2.818 . S
Gd81 O101 2.395 . S
Gd81 O105 2.327 . S
Gd81 O106 2.377 . S
Gd81 O108 2.448 . S
Gd81 O109 2.506 . S
Gd81 O110 2.435 . S
Gd81 O111 2.717 . S
C82 O100 1.240 . S
C82 O101 1.240 . S
C83 Gd80 2.818 . S
C83 C84 1.510 . S
C83 O102 1.249 . S
C83 O103 1.252 . S
C84 C83 1.510 . S
C84 C85 1.404 . S
C84 C86 1.352 . S
C85 C84 1.404 . S
C85 C89 1.389 . S
C85 H112 0.930 . S
C86 C84 1.352 . S
C86 C88 1.374 . S
C86 H113 0.931 . S
C87 C88 1.359 . S
C87 C89 1.364 . S
C88 C86 1.374 . S
C88 C87 1.359 . S
C88 H114 0.931 . S
C89 C85 1.389 . S
C89 C87 1.364 . S
C89 H115 0.931 . S
C90 O104 1.256 . S
C90 O105 1.257 . S
C91 O106 1.240 . S
C91 O107 1.240 . S
C92 Gd81 2.818 . S
C92 C93 1.510 . S
C92 O108 1.249 . S
C92 O109 1.252 . S
C93 C92 1.510 . S
C93 C94 1.404 . S
C93 C95 1.352 . S
C94 C93 1.404 . S
C94 C98 1.389 . S
C94 H116 0.930 . S
C95 C93 1.352 . S
C95 C97 1.374 . S
C95 H117 0.931 . S
C96 C97 1.359 . S
C96 C98 1.364 . S
C97 C95 1.374 . S
C97 C96 1.359 . S
C97 H118 0.931 . S
C98 C94 1.389 . S
C98 C96 1.364 . S
C98 H119 0.931 . S
C99 O110 1.256 . S
C99 O111 1.257 . S
O100 Gd80 2.377 . S
O100 C82 1.240 . S
O101 Gd81 2.395 . S
O101 C82 1.240 . S
O102 Gd80 2.448 . S
O102 C83 1.249 . S
O103 Gd80 2.506 . S
O103 C83 1.252 . S
O104 Gd80 2.435 . S
O104 C90 1.256 . S
O105 Gd80 2.717 . S
O105 Gd81 2.327 . S
O105 C90 1.257 . S
O106 Gd81 2.377 . S
O106 C91 1.240 . S
O107 Gd80 2.395 . S
O107 C91 1.240 . S
O108 Gd81 2.448 . S
O108 C92 1.249 . S
O109 Gd81 2.506 . S
O109 C92 1.252 . S
O110 Gd81 2.435 . S
O110 C99 1.256 . S
O111 Gd80 2.327 . S
O111 Gd81 2.717 . S
O111 C99 1.257 . S
H112 C85 0.930 . S
H113 C86 0.931 . S
H114 C88 0.931 . S
H115 C89 0.931 . S
H116 C94 0.930 . S
H117 C95 0.931 . S
H118 C97 0.931 . S
H119 C98 0.931 . S
H120 C127 0.929 . S
H121 C130 0.930 . S
H122 C132 0.929 . S
H123 C124 0.969 . S
C124 H123 0.969 . S
C124 O125 1.550 . S
C124 H126 0.973 . S
O125 C124 1.550 . S
O125 C131 1.412 . S
H126 C124 0.973 . S
C127 H120 0.929 . S
C127 C128 1.400 . S
C127 C129 1.364 . S
C128 C127 1.400 . S
C128 C132 1.377 . S
C129 C127 1.364 . S
C129 C130 1.374 1_545 S
C130 H121 0.930 . S
C130 C129 1.374 1_565 S
C130 C131 1.383 . S
C131 O125 1.412 . S
C131 C130 1.383 . S
C131 C132 1.394 1_565 S
C132 H122 0.929 . S
C132 C128 1.377 . S
C132 C131 1.394 1_545 S
H133 C140 0.929 . S
H134 C143 0.930 . S
H135 C145 0.929 . S
H136 C137 0.969 . S
C137 H136 0.969 . S
C137 O138 1.550 . S
C137 H139 0.973 . S
O138 C137 1.550 . S
O138 C144 1.412 . S
H139 C137 0.973 . S
C140 H133 0.929 . S
C140 C141 1.400 . S
C140 C142 1.364 . S
C141 C140 1.400 . S
C141 C145 1.377 . S
C142 C140 1.364 . S
C142 C143 1.374 . S
C143 H134 0.930 . S
C143 C142 1.374 . S
C143 C144 1.383 . S
C144 O138 1.412 . S
C144 C143 1.383 . S
C144 C145 1.394 . S
C145 H135 0.929 . S
C145 C141 1.377 . S
C145 C144 1.394 . S
H146 C153 0.937 . S
H147 C156 0.930 . S
H148 C158 0.929 . S
H149 C150 0.969 . S
C150 H149 0.969 . S
C150 O151 1.550 . S
C150 H152 0.973 . S
O151 C150 1.550 . S
O151 C157 1.412 . S
H152 C150 0.973 . S
C153 H146 0.937 . S
C153 C154 1.400 . S
C153 C155 1.364 . S
C154 C153 1.400 . S
C154 C158 1.377 . S
C155 C153 1.364 . S
C155 C156 1.374 . S
C156 H147 0.930 . S
C156 C155 1.374 . S
C156 C157 1.383 . S
C157 O151 1.412 . S
C157 C156 1.383 . S
C157 C158 1.394 . S
C158 H148 0.929 . S
C158 C154 1.377 . S
C158 C157 1.394 . S
H159 C166 0.929 . S
H160 C169 0.930 . S
H161 C171 0.929 . S
H162 C163 0.969 . S
C163 H162 0.969 . S
C163 O164 1.550 . S
C163 H165 0.973 . S
O164 C163 1.550 . S
O164 C170 1.412 . S
H165 C163 0.973 . S
C166 H159 0.929 . S
C166 C167 1.400 . S
C166 C168 1.364 1_655 S
C167 C166 1.400 . S
C167 C171 1.377 1_655 S
C168 C166 1.364 1_455 S
C168 C169 1.374 . S
C169 H160 0.930 . S
C169 C168 1.374 . S
C169 C170 1.383 . S
C170 O164 1.412 . S
C170 C169 1.383 . S
C170 C171 1.394 . S
C171 H161 0.929 . S
C171 C167 1.377 1_455 S
C171 C170 1.394 . S
H172 C179 0.929 . S
H173 C182 0.930 . S
H174 C184 0.929 . S
H175 C176 0.969 . S
C176 H175 0.969 . S
C176 O177 1.550 . S
C176 H178 0.973 . S
O177 C176 1.550 . S
O177 C183 1.412 . S
H178 C176 0.973 . S
C179 H172 0.929 . S
C179 C180 1.400 . S
C179 C181 1.364 1_565 S
C180 C179 1.400 . S
C180 C184 1.377 . S
C181 C179 1.364 1_545 S
C181 C182 1.374 . S
C182 H173 0.930 . S
C182 C181 1.374 . S
C182 C183 1.383 . S
C183 O177 1.412 . S
C183 C182 1.383 . S
C183 C184 1.394 1_545 S
C184 H174 0.929 . S
C184 C180 1.377 . S
C184 C183 1.394 1_565 S
H185 C192 0.929 . S
H186 C195 0.930 . S
H187 C197 0.929 . S
H188 C189 0.969 . S
C189 H188 0.969 . S
C189 O190 1.550 . S
C189 H191 0.973 . S
O190 C189 1.550 . S
O190 C196 1.412 . S
H191 C189 0.973 . S
C192 H185 0.929 . S
C192 C193 1.400 . S
C192 C194 1.364 . S
C193 C192 1.400 . S
C193 C197 1.377 . S
C194 C192 1.364 . S
C194 C195 1.374 . S
C195 H186 0.930 . S
C195 C194 1.374 . S
C195 C196 1.383 . S
C196 O190 1.412 . S
C196 C195 1.383 . S
C196 C197 1.394 . S
C197 H187 0.929 . S
C197 C193 1.377 . S
C197 C196 1.394 . S
C198 C199 1.369 . S
C198 C200 1.419 . S
C198 H202 0.930 . S
C199 C198 1.369 . S
C199 C208 1.429 . S
C200 C198 1.419 . S
C200 C201 1.363 . S
C200 H203 0.929 . S
C201 C200 1.363 . S
C201 C207 1.428 . S
H202 C198 0.930 . S
H203 C200 0.929 . S
S204 N205 1.613 . S
S204 N206 1.610 . S
N205 S204 1.613 . S
N205 C208 1.350 . S
N206 S204 1.610 . S
N206 C207 1.351 . S
C207 C201 1.428 . S
C207 N206 1.351 . S
C207 C208 1.434 . S
C208 C199 1.429 . S
C208 N205 1.350 . S
C208 C207 1.434 . S
C209 C210 1.369 . S
C209 C211 1.419 . S
C209 H213 0.930 . S
C210 C209 1.369 . S
C210 C219 1.429 . S
C211 C209 1.419 . S
C211 C212 1.363 . S
C211 H214 0.929 . S
C212 C211 1.363 . S
C212 C218 1.428 . S
H213 C209 0.930 . S
H214 C211 0.929 . S
S215 N216 1.613 . S
S215 N217 1.610 . S
N216 S215 1.613 . S
N216 C219 1.350 . S
N217 S215 1.610 . S
N217 C218 1.351 . S
C218 C212 1.428 . S
C218 N217 1.351 . S
C218 C219 1.434 . S
C219 C210 1.429 . S
C219 N216 1.350 . S
C219 C218 1.434 . S
C220 C221 1.369 . S
C220 C222 1.419 . S
C220 H224 0.930 . S
C221 C220 1.369 . S
C221 C230 1.429 . S
C222 C220 1.419 . S
C222 C223 1.363 . S
C222 H225 0.929 . S
C223 C222 1.363 . S
C223 C229 1.428 . S
H224 C220 0.930 . S
H225 C222 0.929 . S
S226 N227 1.613 1_545 S
S226 N228 1.610 . S
N227 S226 1.613 1_565 S
N227 C230 1.350 . S
N228 S226 1.610 . S
N228 C229 1.351 1_545 S
C229 C223 1.428 . S
C229 N228 1.351 1_565 S
C229 C230 1.434 . S
C230 C221 1.429 . S
C230 N227 1.350 . S
C230 C229 1.434 . S
C231 C232 1.369 . S
C231 C233 1.419 . S
C231 H235 0.930 . S
C232 C231 1.369 . S
C232 C241 1.429 . S
C233 C231 1.419 . S
C233 C234 1.363 . S
C233 H236 0.929 . S
C234 C233 1.363 . S
C234 C240 1.428 . S
H235 C231 0.930 . S
H236 C233 0.929 . S
S237 N238 1.613 . S
S237 N239 1.610 . S
N238 S237 1.613 . S
N238 C241 1.350 . S
N239 S237 1.610 . S
N239 C240 1.351 . S
C240 C234 1.428 . S
C240 N239 1.351 . S
C240 C241 1.434 . S
C241 C232 1.429 . S
C241 N238 1.350 . S
C241 C240 1.434 . S
C242 C243 1.369 . S
C242 C244 1.419 . S
C242 H246 0.930 . S
C243 C242 1.369 . S
C243 C252 1.429 . S
C244 C242 1.419 . S
C244 C245 1.363 . S
C244 H247 0.929 . S
C245 C244 1.363 . S
C245 C251 1.428 . S
H246 C242 0.930 . S
H247 C244 0.929 . S
S248 N249 1.613 . S
S248 N250 1.610 . S
N249 S248 1.613 . S
N249 C252 1.350 . S
N250 S248 1.610 . S
N250 C251 1.351 . S
C251 C245 1.428 . S
C251 N250 1.351 . S
C251 C252 1.434 . S
C252 C243 1.429 . S
C252 N249 1.350 . S
C252 C251 1.434 . S
C253 C254 1.369 . S
C253 C255 1.419 . S
C253 H257 0.930 . S
C254 C253 1.369 . S
C254 C263 1.429 . S
C255 C253 1.419 . S
C255 C256 1.363 . S
C255 H258 0.929 . S
C256 C255 1.363 . S
C256 C262 1.428 . S
H257 C253 0.930 . S
H258 C255 0.929 . S
S259 N260 1.613 . S
S259 N261 1.610 . S
N260 S259 1.613 . S
N260 C263 1.350 . S
N261 S259 1.610 . S
N261 C262 1.351 . S
C262 C256 1.428 . S
C262 N261 1.351 . S
C262 C263 1.434 . S
C263 C254 1.429 . S
C263 N260 1.350 . S
C263 C262 1.434 . S
C264 C265 1.369 . S
C264 C266 1.419 . S
C264 H268 0.930 . S
C265 C264 1.369 . S
C265 C274 1.429 . S
C266 C264 1.419 . S
C266 C267 1.363 . S
C266 H269 0.929 . S
C267 C266 1.363 . S
C267 C273 1.428 . S
H268 C264 0.930 . S
H269 C266 0.929 . S
S270 N271 1.613 . S
S270 N272 1.610 . S
N271 S270 1.613 . S
N271 C274 1.350 . S
N272 S270 1.610 . S
N272 C273 1.351 . S
C273 C267 1.428 . S
C273 N272 1.351 . S
C273 C274 1.434 . S
C274 C265 1.429 . S
C274 N271 1.350 . S
C274 C273 1.434 . S
C275 C276 1.369 . S
C275 C277 1.419 . S
C275 H279 0.930 . S
C276 C275 1.369 . S
C276 C285 1.429 . S
C277 C275 1.419 . S
C277 C278 1.363 . S
C277 H280 0.929 . S
C278 C277 1.363 . S
C278 C284 1.428 . S
H279 C275 0.930 . S
H280 C277 0.929 . S
S281 N282 1.613 . S
S281 N283 1.610 . S
N282 S281 1.613 . S
N282 C285 1.350 . S
N283 S281 1.610 . S
N283 C284 1.351 . S
C284 C278 1.428 . S
C284 N283 1.351 . S
C284 C285 1.434 . S
C285 C276 1.429 . S
C285 N282 1.350 . S
C285 C284 1.434 . S
C286 C287 1.369 . S
C286 C288 1.419 . S
C286 H290 0.930 . S
C287 C286 1.369 . S
C287 C296 1.429 . S
C288 C286 1.419 . S
C288 C289 1.363 . S
C288 H291 0.929 . S
C289 C288 1.363 . S
C289 C295 1.428 . S
H290 C286 0.930 . S
H291 C288 0.929 . S
S292 N293 1.613 . S
S292 N294 1.610 . S
N293 S292 1.613 . S
N293 C296 1.350 . S
N294 S292 1.610 . S
N294 C295 1.351 . S
C295 C289 1.428 . S
C295 N294 1.351 . S
C295 C296 1.434 . S
C296 C287 1.429 . S
C296 N293 1.350 . S
C296 C295 1.434 . S
C297 C298 1.369 . S
C297 C299 1.419 . S
C297 H301 0.930 . S
C298 C297 1.369 . S
C298 C307 1.429 . S
C299 C297 1.419 . S
C299 C300 1.363 . S
C299 H302 0.929 . S
C300 C299 1.363 . S
C300 C306 1.428 . S
H301 C297 0.930 . S
H302 C299 0.929 . S
S303 N304 1.613 . S
S303 N305 1.610 . S
N304 S303 1.613 . S
N304 C307 1.350 . S
N305 S303 1.610 . S
N305 C306 1.351 . S
C306 C300 1.428 . S
C306 N305 1.351 . S
C306 C307 1.434 . S
C307 C298 1.429 . S
C307 N304 1.350 . S
C307 C306 1.434 . S
C308 C309 1.369 . S
C308 C310 1.419 . S
C308 H312 0.930 . S
C309 C308 1.369 . S
C309 C318 1.429 . S
C310 C308 1.419 . S
C310 C311 1.363 . S
C310 H313 0.929 . S
C311 C310 1.363 . S
C311 C317 1.428 . S
H312 C308 0.930 . S
H313 C310 0.929 . S
S314 N315 1.613 . S
S314 N316 1.610 . S
N315 S314 1.613 . S
N315 C318 1.350 . S
N316 S314 1.610 . S
N316 C317 1.351 . S
C317 C311 1.428 . S
C317 N316 1.351 . S
C317 C318 1.434 . S
C318 C309 1.429 . S
C318 N315 1.350 . S
C318 C317 1.434 . S
C319 C320 1.369 . S
C319 C321 1.419 . S
C319 H323 0.930 . S
C320 C319 1.369 . S
C320 C329 1.429 . S
C321 C319 1.419 . S
C321 C322 1.363 . S
C321 H324 0.929 . S
C322 C321 1.363 . S
C322 C328 1.428 . S
H323 C319 0.930 . S
H324 C321 0.929 . S
S325 N326 1.613 . S
S325 N327 1.610 . S
N326 S325 1.613 . S
N326 C329 1.350 . S
N327 S325 1.610 . S
N327 C328 1.351 . S
C328 C322 1.428 . S
C328 N327 1.351 . S
C328 C329 1.434 . S
C329 C320 1.429 . S
C329 N326 1.350 . S
C329 C328 1.434 . S
C330 C331 1.369 1_655 S
C330 C332 1.419 1_554 S
C330 H334 0.930 . S
C331 C330 1.369 1_455 S
C331 C340 1.429 . S
C332 C330 1.419 1_556 S
C332 C333 1.363 1_655 S
C332 H335 0.929 . S
C333 C332 1.363 1_455 S
C333 C339 1.428 1_556 S
H334 C330 0.930 . S
H335 C332 0.929 . S
S336 N337 1.613 . S
S336 N338 1.637 . S
N337 S336 1.613 . S
N337 C340 1.350 . S
N338 S336 1.637 . S
N338 C339 1.358 . S
C339 C333 1.428 1_554 S
C339 N338 1.358 . S
C339 C340 1.434 . S
C340 C331 1.429 . S
C340 N337 1.350 . S
C340 C339 1.434 . S
C341 C342 1.369 . S
C341 C343 1.419 . S
C341 H345 0.930 . S
C342 C341 1.369 . S
C342 C351 1.429 1_545 S
C343 C341 1.419 . S
C343 C344 1.363 . S
C343 H346 0.929 . S
C344 C343 1.363 . S
C344 C350 1.428 1_545 S
H345 C341 0.930 . S
H346 C343 0.929 . S
S347 N348 1.613 . S
S347 N349 1.610 . S
N348 S347 1.613 . S
N348 C351 1.350 . S
N349 S347 1.610 . S
N349 C350 1.351 . S
C350 C344 1.428 1_565 S
C350 N349 1.351 . S
C350 C351 1.434 . S
C351 C342 1.429 1_565 S
C351 N348 1.350 . S
C351 C350 1.434 . S
C352 C353 1.369 . S
C352 C354 1.419 . S
C352 H356 0.930 . S
C353 C352 1.369 . S
C353 C362 1.429 . S
C354 C352 1.419 . S
C354 C355 1.363 . S
C354 H357 0.929 . S
C355 C354 1.363 . S
C355 C361 1.428 . S
H356 C352 0.930 . S
H357 C354 0.929 . S
S358 N359 1.613 . S
S358 N360 1.610 . S
N359 S358 1.613 . S
N359 C362 1.350 . S
N360 S358 1.610 . S
N360 C361 1.351 . S
C361 C355 1.428 . S
C361 N360 1.351 . S
C361 C362 1.434 . S
C362 C353 1.429 . S
C362 N359 1.350 . S
C362 C361 1.434 . S
C363 C364 1.369 1_565 S
C363 C365 1.419 . S
C363 H367 0.930 . S
C364 C363 1.369 1_545 S
C364 C373 1.429 . S
C365 C363 1.419 . S
C365 C366 1.363 1_565 S
C365 H368 0.929 . S
C366 C365 1.363 1_545 S
C366 C372 1.428 . S
H367 C363 0.930 . S
H368 C365 0.929 . S
S369 N370 1.613 . S
S369 N371 1.610 . S
N370 S369 1.613 . S
N370 C373 1.350 . S
N371 S369 1.610 . S
N371 C372 1.351 . S
C372 C366 1.428 . S
C372 N371 1.351 . S
C372 C373 1.434 . S
C373 C364 1.429 . S
C373 N370 1.350 . S
C373 C372 1.434 . S
C374 C375 1.369 . S
C374 C376 1.419 . S
C374 H378 0.930 . S
C375 C374 1.369 . S
C375 C384 1.429 . S
C376 C374 1.419 . S
C376 C377 1.363 1_556 S
C376 H379 0.932 . S
C377 C376 1.363 1_554 S
C377 C383 1.428 . S
H378 C374 0.930 . S
H379 C376 0.932 . S
S380 N381 1.613 1_554 S
S380 N382 1.610 . S
N381 S380 1.613 1_556 S
N381 C384 1.350 . S
N382 S380 1.610 . S
N382 C383 1.351 . S
C383 C377 1.428 . S
C383 N382 1.351 . S
C383 C384 1.434 1_554 S
C384 C375 1.429 . S
C384 N381 1.350 . S
C384 C383 1.434 1_556 S
C385 C386 1.369 . S
C385 C387 1.419 . S
C385 H389 0.930 . S
C386 C385 1.369 . S
C386 C395 1.429 1_655 S
C387 C385 1.419 . S
C387 C388 1.363 1_655 S
C387 H390 0.929 . S
C388 C387 1.363 1_455 S
C388 C394 1.428 . S
H389 C385 0.930 . S
H390 C387 0.929 . S
S391 N392 1.613 . S
S391 N393 1.610 . S
N392 S391 1.613 . S
N392 C395 1.350 . S
N393 S391 1.610 . S
N393 C394 1.351 . S
C394 C388 1.428 . S
C394 N393 1.351 . S
C394 C395 1.434 . S
C395 C386 1.429 1_455 S
C395 N392 1.350 . S
C395 C394 1.434 . S
C199 C7 0.983 . S
C201 C189 1.118 . S
C210 C51 1.877 . S
C212 C167 1.837 . S
C221 C87 1.354 . S
C223 C180 1.389 . S
C232 C16 0.721 . S
C234 C193 0.724 . S
C245 C163 1.871 . S
C243 C42 2.057 . S
C256 C176 1.373 . S
C254 C96 1.395 . S
C265 C47 1.141 . S
C267 C141 1.158 . S
C276 C91 3.086 . S
C278 C154 3.042 1_655 S
C287 C2 2.077 . S
C289 C124 1.915 . S
C300 C137 1.453 . S
C298 C56 1.435 . S
C311 C150 2.894 . S
C309 C82 3.088 . S
C320 C11 1.886 . S
C322 C128 1.872 . S
C333 C155 1.778 . S
C331 C19 1.730 . S
C342 C50 1.444 . S
C344 C129 1.476 . S
C353 C99 1.500 . S
C355 C142 1.615 . S
C366 C181 1.536 . S
C364 C59 1.465 . S
C377 C194 1.294 . S
C375 C90 1.309 . S
C386 C10 1.401 1_655 S
C388 C168 1.457 . S
