# Generated by pormake.
# Topology pts, (4,4)-cn, num edge types: 1
# Building blocks:
#     Node 0, Type 0, BuildingBlock: MIFKUJ_clean_linker_1, # of connection points: 4
#     Node 1, Type 0, BuildingBlock: MIFKUJ_clean_linker_1, # of connection points: 4
#     Node 2, Type 1, BuildingBlock: UXUYUI_clean_sbu_0, # of connection points: 4
#     Node 3, Type 1, BuildingBlock: UXUYUI_clean_sbu_0, # of connection points: 4
#     Edge 4, Type (0, 1), None
#     Edge 5, Type (0, 1), None
#     Edge 6, Type (0, 1), None
#     Edge 7, Type (0, 1), None
#     Edge 8, Type (0, 1), None
#     Edge 9, Type (0, 1), None
#     Edge 10, Type (0, 1), None
#     Edge 11, Type (0, 1), None
# Relax obj value: 0.001
# Max RMSD: 0.016
# Mean RMSD: 0.014
data_MOF--net-pts--node1-UXUYUI_clean_sbu_0--node2-MIFKUJ_clean_linker_1--edge1-none
_symmetry_space_group_name_H-M    P1
_symmetry_Int_Tables_number       1
_symmetry_cell_setting            triclinic
loop_
_symmetry_equiv_pos_as_xyz
'x, y, z'
_cell_length_a     22.167793
_cell_length_b     22.167736
_cell_length_c     30.007942
_cell_angle_alpha  90.155283
_cell_angle_beta   90.15589
_cell_angle_gamma 90.143498
loop_
_atom_site_label
_atom_site_type_symbol
_atom_site_fract_x
_atom_site_fract_y
_atom_site_fract_z
_atom_type_partial_charge
H0 H 0.59798 0.93276 0.10133 0.0
H1 H 0.68797 0.93418 0.14822 0.0
H2 H 0.74883 0.09625 0.08208 0.0
H3 H 0.65706 0.09616 0.03679 0.0
H4 H 0.50897 0.0085 0.09717 0.0
H5 H 0.65604 0.93673 0.99283 0.0
H6 H 0.74773 0.93652 0.9478 0.0
H7 H 0.68899 0.09999 0.8827 0.0
H8 H 0.59883 0.1013 0.92917 0.0
H9 H 0.42029 0.10132 0.92834 0.0
H10 H 0.32853 0.10141 0.88282 0.0
H11 H 0.26796 0.93942 0.94883 0.0
H12 H 0.36033 0.93861 0.99352 0.0
H13 H 0.50897 0.02471 0.93242 0.0
H14 H 0.36885 0.10244 0.04285 0.0
H15 H 0.27765 0.10357 0.08833 0.0
H16 H 0.32099 0.92541 0.13733 0.0
H17 H 0.41327 0.92602 0.09309 0.0
C18 C 0.62093 0.01397 0.06518 0.0
C19 C 0.63066 0.96866 0.09696 0.0
C20 C 0.68248 0.96927 0.12352 0.0
C21 C 0.7259 0.01521 0.11886 0.0
C22 C 0.71609 0.06055 0.08692 0.0
C23 C 0.66399 0.06011 0.06053 0.0
C24 C 0.56443 0.01418 0.03842 0.0
C25 C 0.50914 0.01126 0.06107 0.0
C26 C 0.56437 0.01923 0.99136 0.0
C27 C 0.62083 0.01944 0.9648 0.0
C28 C 0.66337 0.97301 0.96933 0.0
C29 C 0.71545 0.97254 0.94313 0.0
C30 C 0.72579 0.01823 0.91155 0.0
C31 C 0.68299 0.06459 0.9071 0.0
C32 C 0.63112 0.06514 0.93341 0.0
C33 C 0.397 0.02043 0.96482 0.0
C34 C 0.38731 0.06576 0.933 0.0
C35 C 0.33495 0.06574 0.90696 0.0
C36 C 0.29109 0.0205 0.91239 0.0
C37 C 0.30062 0.97532 0.94439 0.0
C38 C 0.35331 0.97497 0.97006 0.0
C39 C 0.45381 0.01955 0.99123 0.0
C40 C 0.50904 0.02215 0.96852 0.0
C41 C 0.454 0.01424 0.03819 0.0
C42 C 0.39761 0.01409 0.06455 0.0
C43 C 0.35844 0.06363 0.06333 0.0
C44 C 0.30611 0.06397 0.08921 0.0
C45 C 0.29169 0.01453 0.11663 0.0
C46 C 0.33101 0.96475 0.11735 0.0
C47 C 0.38365 0.96479 0.09186 0.0
H48 H 0.09642 0.43118 0.42713 0.0
H49 H 0.09499 0.34118 0.38024 0.0
H50 H 0.9329 0.28034 0.44636 0.0
H51 H 0.933 0.37211 0.49166 0.0
H52 H 0.02069 0.5202 0.4313 0.0
H53 H 0.09246 0.37312 0.53566 0.0
H54 H 0.09266 0.28142 0.58069 0.0
H55 H 0.9291 0.34011 0.64568 0.0
H56 H 0.92782 0.43028 0.59923 0.0
H57 H 0.92793 0.60886 0.60017 0.0
H58 H 0.9279 0.70061 0.64569 0.0
H59 H 0.08986 0.76116 0.57964 0.0
H60 H 0.09063 0.6688 0.53495 0.0
H61 H 1.00449 0.52016 0.59605 0.0
H62 H 0.92677 0.66032 0.48565 0.0
H63 H 0.92564 0.75151 0.44016 0.0
H64 H 0.10377 0.70817 0.39114 0.0
H65 H 0.10318 0.61589 0.43537 0.0
C66 C 0.0152 0.40823 0.46328 0.0
C67 C 0.06051 0.3985 0.4315 0.0
C68 C 0.05989 0.34668 0.40494 0.0
C69 C 0.01395 0.30326 0.40959 0.0
C70 C 0.96861 0.31308 0.44153 0.0
C71 C 0.96906 0.36518 0.46792 0.0
C72 C 0.015 0.46473 0.49004 0.0
C73 C 0.01793 0.52002 0.4674 0.0
C74 C 0.00995 0.46477 0.5371 0.0
C75 C 0.00972 0.40831 0.56365 0.0
C76 C 0.05616 0.36578 0.55914 0.0
C77 C 0.05661 0.3137 0.58533 0.0
C78 C 0.0109 0.30334 0.61688 0.0
C79 C 0.96452 0.34612 0.62131 0.0
C80 C 0.96399 0.39801 0.59501 0.0
C81 C 0.00881 0.63214 0.56366 0.0
C82 C 0.9635 0.64183 0.5955 0.0
C83 C 0.96355 0.69418 0.62154 0.0
C84 C 0.00879 0.73804 0.61611 0.0
C85 C 0.05395 0.72851 0.58409 0.0
C86 C 0.05428 0.67582 0.55842 0.0
C87 C 0.00967 0.57534 0.53724 0.0
C88 C 0.00704 0.5201 0.55994 0.0
C89 C 0.01496 0.57516 0.49028 0.0
C90 C 0.01512 0.63155 0.46393 0.0
C91 C 0.96558 0.67072 0.46516 0.0
C92 C 0.96523 0.72305 0.43927 0.0
C93 C 0.01466 0.73747 0.41185 0.0
C94 C 0.06444 0.69815 0.41112 0.0
C95 C 0.06441 0.64551 0.43661 0.0
Li96 Li 0.01181 0.07385 0.29213 0.0
Li97 Li 0.01059 0.96515 0.2935 0.0
Li98 Li 0.064 0.01857 0.23497 0.0
Li99 Li 0.95531 0.01735 0.23633 0.0
C100 C 0.1015 0.01754 0.34313 0.0
N101 N 0.14095 0.01442 0.43056 0.0
C102 C 0.06086 0.02684 0.37802 0.0
C103 C 0.16224 1.00679 0.35275 0.0
C104 C 0.08167 0.02505 0.42197 0.0
C105 C 0.1813 1.00535 0.39716 0.0
C106 C 0.88932 0.98954 0.31145 0.0
C107 C 0.82688 0.90071 0.30468 0.0
N108 N 0.78471 0.92713 0.33111 0.0
C109 C 0.84543 0.01579 0.33857 0.0
C110 C 0.88006 0.9315 0.29439 0.0
C111 C 0.79283 0.98352 0.34811 0.0
C112 C 0.95986 0.17264 0.33761 0.0
N113 N 0.01303 0.14545 0.32766 0.0
C114 C 0.06761 0.21899 0.37007 0.0
C115 C 0.06639 0.16769 0.34306 0.0
C116 C 0.01343 0.24817 0.38111 0.0
C117 C 0.95899 0.22434 0.36437 0.0
H118 H 0.91813 0.15408 0.32472 0.0
H119 H 0.10813 0.14528 0.33476 0.0
C120 C 0.03912 0.84523 0.31538 0.0
N121 N 0.0119 0.89583 0.33101 0.0
C122 C 0.04044 0.79292 0.34118 0.0
C123 C 0.98666 0.84615 0.39909 0.0
C124 C 0.98576 0.89717 0.37193 0.0
C125 C 0.01404 0.79284 0.38378 0.0
H126 H 0.05948 0.84547 0.28268 0.0
H127 H 0.96404 0.93785 0.38356 0.0
C128 C 0.03961 0.13983 0.21701 0.0
N129 N 0.10202 0.24444 0.19736 0.0
C130 C 0.01336 0.18372 0.18989 0.0
C131 C 0.09765 0.14909 0.23408 0.0
C132 C 0.04563 0.23632 0.18035 0.0
C133 C 0.12844 0.20228 0.22378 0.0
C134 C 0.01162 0.92765 0.18533 0.0
C135 C 1.00232 0.96829 0.15044 0.0
C136 C 0.02236 0.86691 0.17571 0.0
C137 C 1.0041 0.94749 0.10649 0.0
C138 C 0.0238 0.84785 0.13131 0.0
N139 N 0.01473 0.8882 0.0979 0.0
C140 C 0.18392 0.99004 0.21309 0.0
C141 C 0.13198 0.04341 0.15654 0.0
C142 C 0.23624 0.98873 0.18729 0.0
N143 N 0.13333 0.01725 0.19746 0.0
C144 C 0.18301 0.04252 0.12939 0.0
C145 C 0.23632 0.01514 0.14469 0.0
H146 H 0.18368 0.96968 0.24579 0.0
H147 H 0.09131 0.06513 0.14491 0.0
C148 C 0.85652 0.06929 0.19085 0.0
N149 N 0.8837 0.01612 0.2008 0.0
C150 C 0.80482 0.07017 0.16408 0.0
C151 C 0.81016 0.96154 0.15839 0.0
C152 C 0.86146 0.96276 0.1854 0.0
C153 C 0.781 0.01573 0.14735 0.0
H154 H 0.87508 0.11103 0.20374 0.0
H155 H 0.88387 0.92102 0.19371 0.0
O156 O 0.08236 0.0189 0.29972 0.0
O157 O 0.94095 0.02084 0.3019 0.0
O158 O 0.00831 0.0882 0.22656 0.0
O159 O 0.01026 0.94679 0.22874 0.0
H160 H 0.01376 0.03551 0.37133 0.0
H161 H 0.19437 0.99967 0.32618 0.0
H162 H 0.05067 0.03215 0.44926 0.0
H163 H 0.22819 0.99704 0.40506 0.0
H164 H 0.81915 0.85578 0.29168 0.0
H165 H 0.85198 0.06065 0.35211 0.0
H166 H 0.91357 0.9103 0.2735 0.0
H167 H 0.75846 1.0033 0.36905 0.0
H168 H 0.11058 0.23508 0.38264 0.0
H169 H 0.91621 0.24578 0.3714 0.0
H170 H 0.06116 0.75278 0.32752 0.0
H171 H 0.96652 0.84876 0.43186 0.0
H172 H 0.9685 0.17717 0.17635 0.0
H173 H 0.11885 0.11559 0.25497 0.0
H174 H 0.02585 0.27069 0.15941 0.0
H175 H 0.17337 0.21001 0.23678 0.0
H176 H 0.99365 0.0154 0.15713 0.0
H177 H 0.02948 0.83478 0.20229 0.0
H178 H 0.99701 0.97849 0.07921 0.0
H179 H 0.0321 0.80097 0.1234 0.0
H180 H 0.27637 0.96801 0.20095 0.0
H181 H 0.18041 0.06267 0.09662 0.0
H182 H 0.78339 0.11295 0.15705 0.0
H183 H 0.79407 0.91858 0.14582 0.0
Li184 Li 0.95379 0.01576 0.79445 0.0
Li185 Li 0.06307 0.01603 0.79317 0.0
Li186 Li 0.01337 0.07536 0.734 0.0
Li187 Li 0.01319 0.96608 0.7353 0.0
C188 C 0.03699 0.1189 0.83303 0.0
N189 N 0.09852 0.18039 0.89924 0.0
C190 C 0.01939 0.11305 0.8775 0.0
C191 C 0.08559 0.15626 0.82216 0.0
C192 C 0.05112 0.14451 0.91051 0.0
C193 C 0.11624 0.18686 0.85615 0.0
C194 C 0.03128 0.91122 0.83204 0.0
C195 C 0.10529 0.83974 0.85785 0.0
N196 N 0.07999 0.84123 0.89908 0.0
C197 C 1.00563 0.91162 0.87455 0.0
C198 C 0.08114 0.87458 0.82347 0.0
C199 C 0.03104 0.87606 0.90804 0.0
C200 C 0.85432 0.96318 0.83888 0.0
N201 N 0.8829 0.01597 0.82966 0.0
C202 C 0.81114 0.0712 0.87266 0.0
C203 C 0.86229 0.06945 0.84565 0.0
C204 C 0.78064 0.01736 0.88306 0.0
C205 C 0.80285 0.96281 0.86565 0.0
H206 H 0.87177 0.9213 0.82561 0.0
H207 H 0.88598 0.11075 0.8377 0.0
C208 C 0.18736 0.02757 0.81218 0.0
N209 N 0.13288 0.01696 0.83137 0.0
C210 C 0.23972 0.02932 0.83812 0.0
C211 C 0.17911 0.00967 0.9033 0.0
C212 C 0.12788 0.00894 0.87616 0.0
C213 C 0.23597 0.01987 0.88428 0.0
H214 H 0.19018 0.035 0.77667 0.0
H215 H 0.08408 1.00268 0.89102 0.0
C216 C 0.91028 0.992 0.69546 0.0
N217 N 0.84884 0.93024 0.62933 0.0
C218 C 0.91604 0.00955 0.65097 0.0
C219 C 0.87302 0.94333 0.70639 0.0
C220 C 0.88461 0.9777 0.61801 0.0
C221 C 0.84245 0.91257 0.67245 0.0
C222 C 0.11797 0.99798 0.69643 0.0
C223 C 0.1175 0.02364 0.65392 0.0
C224 C 0.1547 0.94818 0.70499 0.0
C225 C 0.15309 0.99829 0.62042 0.0
C226 C 0.18957 0.9241 0.67059 0.0
N227 N 0.18801 0.94941 0.62936 0.0
C228 C 0.06592 0.17487 0.68962 0.0
C229 C 0.95966 0.16679 0.68273 0.0
C230 C 0.06629 0.22633 0.66285 0.0
N231 N 0.01313 0.14624 0.69878 0.0
C232 C 0.95793 0.21794 0.65571 0.0
C233 C 0.01176 0.24849 0.64537 0.0
H234 H 0.10778 0.15746 0.70293 0.0
H235 H 0.91837 0.14306 0.69063 0.0
C236 C 1.00175 0.84177 0.71632 0.0
N237 N 0.01233 0.89625 0.69712 0.0
C238 C 1.00001 0.7894 0.69038 0.0
C239 C 0.01962 0.85002 0.6252 0.0
C240 C 0.02033 0.90125 0.65233 0.0
C241 C 0.00944 0.79316 0.64422 0.0
H242 H 0.99433 0.83895 0.75182 0.0
H243 H 0.02657 0.94505 0.63746 0.0
O244 O 0.00739 0.08746 0.80035 0.0
O245 O 0.00695 0.94561 0.79879 0.0
O246 O 0.94171 0.0217 0.7281 0.0
O247 O 0.08356 0.02225 0.7297 0.0
H248 H 0.98226 0.08379 0.88652 0.0
H249 H 0.09993 0.16097 0.78792 0.0
H250 H 0.03828 0.14012 0.9451 0.0
H251 H 0.15421 0.21563 0.84828 0.0
H252 H 0.14409 0.81142 0.85174 0.0
H253 H 0.96714 0.93981 0.88184 0.0
H254 H 0.10092 0.87302 0.79061 0.0
H255 H 0.01199 0.87632 0.94119 0.0
H256 H 0.79617 0.11419 0.88573 0.0
H257 H 0.78036 0.92035 0.87219 0.0
H258 H 0.28278 0.03718 0.82215 0.0
H259 H 0.17419 1.00327 0.93888 0.0
H260 H 0.94521 0.04672 0.64191 0.0
H261 H 0.8684 0.92903 0.74065 0.0
H262 H 0.88892 0.99051 0.5834 0.0
H263 H 0.81377 0.87456 0.68036 0.0
H264 H 0.08923 0.06207 0.64664 0.0
H265 H 0.15631 0.9284 0.73784 0.0
H266 H 0.15278 0.01735 0.58727 0.0
H267 H 0.21795 0.88535 0.67669 0.0
H268 H 0.10875 0.24886 0.65635 0.0
H269 H 0.91495 0.23288 0.6426 0.0
H270 H 0.99217 0.74634 0.70635 0.0
H271 H 0.026 0.85493 0.58962 0.0
loop_
_geom_bond_atom_site_label_1
_geom_bond_atom_site_label_2
_geom_bond_distance
_geom_bond_site_symmetry_2
_ccdc_geom_bond_type
H0 C19 0.949 . S
H1 C20 0.950 . S
H2 C22 0.950 . S
H3 C23 0.950 . S
H4 C25 0.950 . S
H5 C28 0.950 . S
H6 C29 0.950 . S
H7 C31 0.951 . S
H8 C32 0.949 . S
H9 C34 0.949 . S
H10 C35 0.950 . S
H11 C37 0.950 . S
H12 C38 0.950 . S
H13 C40 0.950 . S
H14 C43 0.950 . S
H15 C44 0.950 . S
H16 C46 0.951 . S
H17 C47 0.949 . S
C18 C19 1.376 1_545 S
C18 C23 1.386 . S
C18 C24 1.483 . S
C19 H0 0.949 . S
C19 C18 1.376 1_565 S
C19 C20 1.397 . S
C20 H1 0.950 . S
C20 C19 1.397 . S
C20 C21 1.391 1_565 S
C21 C20 1.391 1_545 S
C21 C22 1.405 . S
C22 H2 0.950 . S
C22 C21 1.405 . S
C22 C23 1.367 . S
C23 H3 0.950 . S
C23 C18 1.386 . S
C23 C22 1.367 . S
C24 C18 1.483 . S
C24 C25 1.382 1_545 S
C24 C26 1.403 1_554 S
C25 H4 0.950 . S
C25 C24 1.382 1_565 S
C25 C41 1.411 1_565 S
C26 C24 1.403 1_556 S
C26 C27 1.489 . S
C26 C40 1.411 . S
C27 C26 1.489 . S
C27 C28 1.383 1_545 S
C27 C32 1.382 . S
C28 H5 0.950 . S
C28 C27 1.383 1_565 S
C28 C29 1.395 . S
C29 H6 0.950 . S
C29 C28 1.395 . S
C29 C30 1.288 1_565 S
C30 C29 1.288 1_545 S
C30 C31 1.392 . S
C31 H7 0.951 . S
C31 C30 1.392 . S
C31 C32 1.392 . S
C32 H8 0.949 . S
C32 C27 1.382 . S
C32 C31 1.392 . S
C33 C34 1.376 . S
C33 C38 1.386 1_545 S
C33 C39 1.483 . S
C34 H9 0.949 . S
C34 C33 1.376 . S
C34 C35 1.397 . S
C35 H10 0.950 . S
C35 C34 1.397 . S
C35 C36 1.391 . S
C36 C35 1.391 . S
C36 C37 1.405 1_545 S
C37 H11 0.950 . S
C37 C36 1.405 1_565 S
C37 C38 1.367 . S
C38 H12 0.950 . S
C38 C33 1.386 1_565 S
C38 C37 1.367 . S
C39 C33 1.483 . S
C39 C40 1.382 . S
C39 C41 1.403 1_556 S
C40 H13 0.950 . S
C40 C26 1.411 . S
C40 C39 1.382 . S
C41 C25 1.411 1_545 S
C41 C39 1.403 1_554 S
C41 C42 1.489 . S
C42 C41 1.489 . S
C42 C43 1.397 . S
C42 C47 1.368 1_545 S
C43 H14 0.950 . S
C43 C42 1.397 . S
C43 C44 1.395 . S
C44 H15 0.950 . S
C44 C43 1.395 . S
C44 C45 1.288 . S
C45 C44 1.288 . S
C45 C46 1.392 1_545 S
C46 H16 0.951 . S
C46 C45 1.392 1_565 S
C46 C47 1.392 . S
C47 H17 0.949 . S
C47 C42 1.368 1_565 S
C47 C46 1.392 . S
H48 C67 0.949 . S
H49 C68 0.950 . S
H50 C70 0.950 . S
H51 C71 0.950 . S
H52 C73 0.950 . S
H53 C76 0.950 . S
H54 C77 0.950 . S
H55 C79 0.951 . S
H56 C80 0.949 . S
H57 C82 0.949 . S
H58 C83 0.950 . S
H59 C85 0.950 . S
H60 C86 0.950 . S
H61 C88 0.950 . S
H62 C91 0.950 . S
H63 C92 0.950 . S
H64 C94 0.951 . S
H65 C95 0.949 . S
C66 C67 1.376 . S
C66 C71 1.386 1_455 S
C66 C72 1.483 . S
C67 H48 0.949 . S
C67 C66 1.376 . S
C67 C68 1.397 . S
C68 H49 0.950 . S
C68 C67 1.397 . S
C68 C69 1.391 . S
C69 C68 1.391 . S
C69 C70 1.405 1_455 S
C70 H50 0.950 . S
C70 C69 1.405 1_655 S
C70 C71 1.367 . S
C71 H51 0.950 . S
C71 C66 1.386 1_655 S
C71 C70 1.367 . S
C72 C66 1.483 . S
C72 C73 1.382 . S
C72 C74 1.403 . S
C73 H52 0.950 . S
C73 C72 1.382 . S
C73 C89 1.411 . S
C74 C72 1.403 . S
C74 C75 1.489 . S
C74 C88 1.411 1_455 S
C75 C74 1.489 . S
C75 C76 1.396 . S
C75 C80 1.368 1_455 S
C76 H53 0.950 . S
C76 C75 1.396 . S
C76 C77 1.395 . S
C77 H54 0.950 . S
C77 C76 1.395 . S
C77 C78 1.288 . S
C78 C77 1.288 . S
C78 C79 1.392 1_455 S
C79 H55 0.951 . S
C79 C78 1.392 1_655 S
C79 C80 1.392 . S
C80 H56 0.949 . S
C80 C75 1.368 1_655 S
C80 C79 1.392 . S
C81 C82 1.376 1_455 S
C81 C86 1.386 . S
C81 C87 1.483 . S
C82 H57 0.949 . S
C82 C81 1.376 1_655 S
C82 C83 1.397 . S
C83 H58 0.950 . S
C83 C82 1.397 . S
C83 C84 1.391 1_655 S
C84 C83 1.391 1_455 S
C84 C85 1.405 . S
C85 H59 0.950 . S
C85 C84 1.405 . S
C85 C86 1.367 . S
C86 H60 0.950 . S
C86 C81 1.386 . S
C86 C85 1.367 . S
C87 C81 1.483 . S
C87 C88 1.382 1_455 S
C87 C89 1.403 . S
C88 H61 0.950 . S
C88 C74 1.411 1_655 S
C88 C87 1.382 1_655 S
C89 C73 1.411 . S
C89 C87 1.403 . S
C89 C90 1.489 . S
C90 C89 1.489 . S
C90 C91 1.383 1_455 S
C90 C95 1.382 . S
C91 H62 0.950 . S
C91 C90 1.383 1_655 S
C91 C92 1.395 . S
C92 H63 0.950 . S
C92 C91 1.395 . S
C92 C93 1.288 1_655 S
C93 C92 1.288 1_455 S
C93 C94 1.392 . S
C94 H64 0.951 . S
C94 C93 1.392 . S
C94 C95 1.392 . S
C95 H65 0.949 . S
C95 C90 1.382 . S
C95 C94 1.392 . S
Li96 N113 1.990 . S
Li96 O156 1.956 . S
Li96 O157 1.970 1_455 S
Li96 O158 1.961 . S
Li97 N121 1.991 . S
Li97 O156 1.970 1_565 S
Li97 O157 1.956 1_465 S
Li97 O159 1.961 . S
Li98 N143 1.990 . S
Li98 O156 1.961 . S
Li98 O158 1.956 . S
Li98 O159 1.970 1_545 S
Li99 N149 1.991 . S
Li99 O157 1.961 . S
Li99 O158 1.970 1_655 S
Li99 O159 1.956 1_645 S
C100 C102 1.348 1_545 S
C100 C103 1.356 . S
C100 O156 1.325 . S
N101 C104 1.314 1_545 S
N101 C105 1.279 . S
C102 C100 1.348 1_565 S
C102 C104 1.353 . S
C102 H160 0.929 . S
C103 C100 1.356 . S
C103 C105 1.358 . S
C103 H161 0.930 . S
C104 N101 1.314 1_565 S
C104 C102 1.353 . S
C104 H162 0.930 . S
C105 N101 1.279 . S
C105 C103 1.358 . S
C105 H163 0.930 . S
C106 C109 1.348 . S
C106 C110 1.356 1_545 S
C106 O157 1.325 . S
C107 N108 1.270 1_565 S
C107 C110 1.358 . S
C107 H164 0.930 . S
N108 C107 1.270 1_545 S
N108 C111 1.324 . S
C109 C106 1.348 . S
C109 C111 1.353 . S
C109 H165 0.929 . S
C110 C106 1.356 1_565 S
C110 C107 1.358 . S
C110 H166 0.930 . S
C111 N108 1.324 . S
C111 C109 1.353 . S
C111 H167 0.930 . S
C112 N113 1.314 1_655 S
C112 C117 1.353 . S
C112 H118 0.930 . S
N113 Li96 1.990 . S
N113 C112 1.314 1_455 S
N113 C115 1.279 . S
C114 C115 1.358 . S
C114 C116 1.356 . S
C114 H168 0.930 . S
C115 N113 1.279 . S
C115 C114 1.358 . S
C115 H119 0.930 . S
C116 C114 1.356 . S
C116 C117 1.348 1_455 S
C117 C112 1.353 . S
C117 C116 1.348 1_655 S
C117 H169 0.929 . S
H118 C112 0.930 . S
H119 C115 0.930 . S
C120 N121 1.321 . S
C120 C122 1.353 . S
C120 H126 0.930 . S
N121 Li97 1.991 . S
N121 C120 1.321 . S
N121 C124 1.273 1_455 S
C122 C120 1.353 . S
C122 C125 1.348 . S
C122 H170 0.929 . S
C123 C124 1.358 . S
C123 C125 1.356 1_655 S
C123 H171 0.930 . S
C124 N121 1.273 1_655 S
C124 C123 1.358 . S
C124 H127 0.930 . S
C125 C122 1.348 . S
C125 C123 1.356 1_455 S
H126 C120 0.930 . S
H127 C124 0.930 . S
C128 C130 1.348 1_455 S
C128 C131 1.356 . S
C128 O158 1.325 . S
N129 C132 1.314 1_455 S
N129 C133 1.279 . S
C130 C128 1.348 1_655 S
C130 C132 1.353 . S
C130 H172 0.929 . S
C131 C128 1.356 . S
C131 C133 1.358 . S
C131 H173 0.930 . S
C132 N129 1.314 1_655 S
C132 C130 1.353 . S
C132 H174 0.930 . S
C133 N129 1.279 . S
C133 C131 1.358 . S
C133 H175 0.930 . S
C134 C135 1.348 . S
C134 C136 1.356 1_455 S
C134 O159 1.325 . S
C135 C134 1.348 . S
C135 C137 1.353 . S
C135 H176 0.929 . S
C136 C134 1.356 1_655 S
C136 C138 1.358 . S
C136 H177 0.930 . S
C137 C135 1.353 . S
C137 N139 1.320 . S
C137 H178 0.930 . S
C138 C136 1.358 . S
C138 N139 1.274 1_655 S
C138 H179 0.930 . S
N139 C137 1.320 . S
N139 C138 1.274 1_455 S
C140 C142 1.353 . S
C140 N143 1.314 1_565 S
C140 H146 0.930 . S
C141 N143 1.279 . S
C141 C144 1.358 . S
C141 H147 0.930 . S
C142 C140 1.353 . S
C142 C145 1.348 1_565 S
C142 H180 0.929 . S
N143 Li98 1.990 . S
N143 C140 1.314 1_545 S
N143 C141 1.279 . S
C144 C141 1.358 . S
C144 C145 1.356 . S
C144 H181 0.930 . S
C145 C142 1.348 1_545 S
C145 C144 1.356 . S
H146 C140 0.930 . S
H147 C141 0.930 . S
C148 N149 1.323 . S
C148 C150 1.353 . S
C148 H154 0.930 . S
N149 Li99 1.991 . S
N149 C148 1.323 . S
N149 C152 1.271 1_545 S
C150 C148 1.353 . S
C150 C153 1.348 . S
C150 H182 0.929 . S
C151 C152 1.358 . S
C151 C153 1.356 1_565 S
C151 H183 0.930 . S
C152 N149 1.271 1_565 S
C152 C151 1.358 . S
C152 H155 0.930 . S
C153 C150 1.348 . S
C153 C151 1.356 1_545 S
H154 C148 0.930 . S
H155 C152 0.930 . S
O156 Li96 1.956 . S
O156 Li97 1.970 1_545 S
O156 Li98 1.961 . S
O156 C100 1.325 . S
O157 Li96 1.970 1_655 S
O157 Li97 1.956 1_645 S
O157 Li99 1.961 . S
O157 C106 1.325 . S
O158 Li96 1.961 . S
O158 Li98 1.956 . S
O158 Li99 1.970 1_455 S
O158 C128 1.325 . S
O159 Li97 1.961 . S
O159 Li98 1.970 1_565 S
O159 Li99 1.956 1_465 S
O159 C134 1.325 . S
H160 C102 0.929 . S
H161 C103 0.930 . S
H162 C104 0.930 . S
H163 C105 0.930 . S
H164 C107 0.930 . S
H165 C109 0.929 . S
H166 C110 0.930 . S
H167 C111 0.930 . S
H168 C114 0.930 . S
H169 C117 0.929 . S
H170 C122 0.929 . S
H171 C123 0.930 . S
H172 C130 0.929 . S
H173 C131 0.930 . S
H174 C132 0.930 . S
H175 C133 0.930 . S
H176 C135 0.929 . S
H177 C136 0.930 . S
H178 C137 0.930 . S
H179 C138 0.930 . S
H180 C142 0.929 . S
H181 C144 0.930 . S
H182 C150 0.929 . S
H183 C151 0.930 . S
Li184 N201 1.990 . S
Li184 O244 1.956 1_655 S
Li184 O245 1.970 1_645 S
Li184 O246 1.961 . S
Li185 N209 1.991 . S
Li185 O244 1.970 . S
Li185 O245 1.956 1_545 S
Li185 O247 1.961 . S
Li186 N231 1.991 . S
Li186 O244 1.961 . S
Li186 O246 1.956 1_455 S
Li186 O247 1.970 . S
Li187 N237 1.990 . S
Li187 O245 1.961 . S
Li187 O246 1.970 1_465 S
Li187 O247 1.956 1_565 S
C188 C190 1.348 . S
C188 C191 1.356 1_455 S
C188 O244 1.325 . S
N189 C192 1.324 . S
N189 C193 1.271 1_455 S
C190 C188 1.348 . S
C190 C192 1.353 . S
C190 H248 0.929 . S
C191 C188 1.356 1_655 S
C191 C193 1.358 . S
C191 H249 0.930 . S
C192 N189 1.324 . S
C192 C190 1.353 . S
C192 H250 0.930 . S
C193 N189 1.271 1_655 S
C193 C191 1.358 . S
C193 H251 0.930 . S
C194 C197 1.348 1_455 S
C194 C198 1.356 . S
C194 O245 1.325 . S
C195 N196 1.279 . S
C195 C198 1.358 . S
C195 H252 0.930 . S
N196 C195 1.279 . S
N196 C199 1.314 1_455 S
C197 C194 1.348 1_655 S
C197 C199 1.353 . S
C197 H253 0.929 . S
C198 C194 1.356 . S
C198 C195 1.358 . S
C198 H254 0.930 . S
C199 N196 1.314 1_655 S
C199 C197 1.353 . S
C199 H255 0.930 . S
C200 N201 1.314 1_565 S
C200 C205 1.353 . S
C200 H206 0.930 . S
N201 Li184 1.990 . S
N201 C200 1.314 1_545 S
N201 C203 1.279 . S
C202 C203 1.358 . S
C202 C204 1.356 . S
C202 H256 0.930 . S
C203 N201 1.279 . S
C203 C202 1.358 . S
C203 H207 0.930 . S
C204 C202 1.356 . S
C204 C205 1.348 1_545 S
C205 C200 1.353 . S
C205 C204 1.348 1_565 S
C205 H257 0.929 . S
H206 C200 0.930 . S
H207 C203 0.930 . S
C208 N209 1.321 . S
C208 C210 1.353 . S
C208 H214 0.930 . S
N209 Li185 1.991 . S
N209 C208 1.321 . S
N209 C212 1.273 1_545 S
C210 C208 1.353 . S
C210 C213 1.348 . S
C210 H258 0.929 . S
C211 C212 1.358 . S
C211 C213 1.356 1_565 S
C211 H259 0.930 . S
C212 N209 1.273 1_565 S
C212 C211 1.358 . S
C212 H215 0.930 . S
C213 C210 1.348 . S
C213 C211 1.356 1_545 S
H214 C208 0.930 . S
H215 C212 0.930 . S
C216 C218 1.348 1_545 S
C216 C219 1.356 . S
C216 O246 1.325 . S
N217 C220 1.314 1_545 S
N217 C221 1.279 . S
C218 C216 1.348 1_565 S
C218 C220 1.353 . S
C218 H260 0.929 . S
C219 C216 1.356 . S
C219 C221 1.358 . S
C219 H261 0.930 . S
C220 N217 1.314 1_565 S
C220 C218 1.353 . S
C220 H262 0.930 . S
C221 N217 1.279 . S
C221 C219 1.358 . S
C221 H263 0.930 . S
C222 C223 1.348 . S
C222 C224 1.356 1_545 S
C222 O247 1.325 . S
C223 C222 1.348 . S
C223 C225 1.353 . S
C223 H264 0.929 . S
C224 C222 1.356 1_565 S
C224 C226 1.358 . S
C224 H265 0.930 . S
C225 C223 1.353 . S
C225 N227 1.320 . S
C225 H266 0.930 . S
C226 C224 1.358 . S
C226 N227 1.274 1_565 S
C226 H267 0.930 . S
N227 C225 1.320 . S
N227 C226 1.274 1_545 S
C228 C230 1.353 . S
C228 N231 1.323 . S
C228 H234 0.930 . S
C229 N231 1.271 1_655 S
C229 C232 1.358 . S
C229 H235 0.930 . S
C230 C228 1.353 . S
C230 C233 1.348 . S
C230 H268 0.929 . S
N231 Li186 1.991 . S
N231 C228 1.323 . S
N231 C229 1.271 1_455 S
C232 C229 1.358 . S
C232 C233 1.356 1_655 S
C232 H269 0.930 . S
C233 C230 1.348 . S
C233 C232 1.356 1_455 S
H234 C228 0.930 . S
H235 C229 0.930 . S
C236 N237 1.314 1_655 S
C236 C238 1.353 . S
C236 H242 0.930 . S
N237 Li187 1.990 . S
N237 C236 1.314 1_455 S
N237 C240 1.279 . S
C238 C236 1.353 . S
C238 C241 1.348 1_655 S
C238 H270 0.929 . S
C239 C240 1.358 . S
C239 C241 1.356 . S
C239 H271 0.930 . S
C240 N237 1.279 . S
C240 C239 1.358 . S
C240 H243 0.930 . S
C241 C238 1.348 1_455 S
C241 C239 1.356 . S
H242 C236 0.930 . S
H243 C240 0.930 . S
O244 Li184 1.956 1_455 S
O244 Li185 1.970 . S
O244 Li186 1.961 . S
O244 C188 1.325 . S
O245 Li184 1.970 1_465 S
O245 Li185 1.956 1_565 S
O245 Li187 1.961 . S
O245 C194 1.325 . S
O246 Li184 1.961 . S
O246 Li186 1.956 1_655 S
O246 Li187 1.970 1_645 S
O246 C216 1.325 . S
O247 Li185 1.961 . S
O247 Li186 1.970 . S
O247 Li187 1.956 1_545 S
O247 C222 1.325 . S
H248 C190 0.929 . S
H249 C191 0.930 . S
H250 C192 0.930 . S
H251 C193 0.930 . S
H252 C195 0.930 . S
H253 C197 0.929 . S
H254 C198 0.930 . S
H255 C199 0.930 . S
H256 C202 0.930 . S
H257 C205 0.929 . S
H258 C210 0.929 . S
H259 C211 0.930 . S
H260 C218 0.929 . S
H261 C219 0.930 . S
H262 C220 0.930 . S
H263 C221 0.930 . S
H264 C223 0.929 . S
H265 C224 0.930 . S
H266 C225 0.930 . S
H267 C226 0.930 . S
H268 C230 0.929 . S
H269 C232 0.930 . S
H270 C238 0.929 . S
H271 C239 0.930 . S
C145 C45 1.513 . S
C233 C78 1.514 . S
C153 C21 1.516 . S
C241 C84 1.517 . S
C213 C36 1.517 . S
C116 C69 1.517 . S
C204 C30 1.514 . S
C93 C125 1.514 . S
