# Generated by pormake.
# Topology ssa, (4,4)-cn, num edge types: 1
# Building blocks:
#     Node 0, Type 0, BuildingBlock: KOZSID_clean_sbu_0, # of connection points: 4
#     Node 1, Type 0, BuildingBlock: KOZSID_clean_sbu_0, # of connection points: 4
#     Node 2, Type 0, BuildingBlock: KOZSID_clean_sbu_0, # of connection points: 4
#     Node 3, Type 0, BuildingBlock: KOZSID_clean_sbu_0, # of connection points: 4
#     Node 4, Type 0, BuildingBlock: KOZSID_clean_sbu_0, # of connection points: 4
#     Node 5, Type 0, BuildingBlock: KOZSID_clean_sbu_0, # of connection points: 4
#     Node 6, Type 1, BuildingBlock: NAWXER_clean_linker_0, # of connection points: 4
#     Node 7, Type 1, BuildingBlock: NAWXER_clean_linker_0, # of connection points: 4
#     Node 8, Type 1, BuildingBlock: NAWXER_clean_linker_0, # of connection points: 4
#     Node 9, Type 1, BuildingBlock: NAWXER_clean_linker_0, # of connection points: 4
#     Node 10, Type 1, BuildingBlock: NAWXER_clean_linker_0, # of connection points: 4
#     Node 11, Type 1, BuildingBlock: NAWXER_clean_linker_0, # of connection points: 4
#     Edge 12, Type (0, 1), BuildingBlock: EZIPEK_clean_linker_0, # of connection points: 2
#     Edge 13, Type (0, 1), BuildingBlock: EZIPEK_clean_linker_0, # of connection points: 2
#     Edge 14, Type (0, 1), BuildingBlock: EZIPEK_clean_linker_0, # of connection points: 2
#     Edge 15, Type (0, 1), BuildingBlock: EZIPEK_clean_linker_0, # of connection points: 2
#     Edge 16, Type (0, 1), BuildingBlock: EZIPEK_clean_linker_0, # of connection points: 2
#     Edge 17, Type (0, 1), BuildingBlock: EZIPEK_clean_linker_0, # of connection points: 2
#     Edge 18, Type (0, 1), BuildingBlock: EZIPEK_clean_linker_0, # of connection points: 2
#     Edge 19, Type (0, 1), BuildingBlock: EZIPEK_clean_linker_0, # of connection points: 2
#     Edge 20, Type (0, 1), BuildingBlock: EZIPEK_clean_linker_0, # of connection points: 2
#     Edge 21, Type (0, 1), BuildingBlock: EZIPEK_clean_linker_0, # of connection points: 2
#     Edge 22, Type (0, 1), BuildingBlock: EZIPEK_clean_linker_0, # of connection points: 2
#     Edge 23, Type (0, 1), BuildingBlock: EZIPEK_clean_linker_0, # of connection points: 2
#     Edge 24, Type (0, 1), BuildingBlock: EZIPEK_clean_linker_0, # of connection points: 2
#     Edge 25, Type (0, 1), BuildingBlock: EZIPEK_clean_linker_0, # of connection points: 2
#     Edge 26, Type (0, 1), BuildingBlock: EZIPEK_clean_linker_0, # of connection points: 2
#     Edge 27, Type (0, 1), BuildingBlock: EZIPEK_clean_linker_0, # of connection points: 2
#     Edge 28, Type (0, 1), BuildingBlock: EZIPEK_clean_linker_0, # of connection points: 2
#     Edge 29, Type (0, 1), BuildingBlock: EZIPEK_clean_linker_0, # of connection points: 2
#     Edge 30, Type (0, 1), BuildingBlock: EZIPEK_clean_linker_0, # of connection points: 2
#     Edge 31, Type (0, 1), BuildingBlock: EZIPEK_clean_linker_0, # of connection points: 2
#     Edge 32, Type (0, 1), BuildingBlock: EZIPEK_clean_linker_0, # of connection points: 2
#     Edge 33, Type (0, 1), BuildingBlock: EZIPEK_clean_linker_0, # of connection points: 2
#     Edge 34, Type (0, 1), BuildingBlock: EZIPEK_clean_linker_0, # of connection points: 2
#     Edge 35, Type (0, 1), BuildingBlock: EZIPEK_clean_linker_0, # of connection points: 2
# Relax obj value: 0.007
# Max RMSD: 0.025
# Mean RMSD: 0.013
data_MOF--net-ssa--node1-KOZSID_clean_sbu_0--node2-NAWXER_clean_linker_0--edge1-EZIPEK_clean_linker_0
_symmetry_space_group_name_H-M    P1
_symmetry_Int_Tables_number       1
_symmetry_cell_setting            triclinic
loop_
_symmetry_equiv_pos_as_xyz
'x, y, z'
_cell_length_a     49.94578
_cell_length_b     51.368589
_cell_length_c     35.563244
_cell_angle_alpha  87.217853
_cell_angle_beta   89.897104
_cell_angle_gamma 122.733
loop_
_atom_site_label
_atom_site_type_symbol
_atom_site_fract_x
_atom_site_fract_y
_atom_site_fract_z
_atom_type_partial_charge
C0 C 0.95225 0.51261 0.99569 0.0
C1 C 0.92712 0.51 0.0161 0.0
C2 C 0.92864 0.50031 0.05217 0.0
C3 C 0.95458 0.49768 0.05171 0.0
N4 N 0.96945 0.5051 0.01767 0.0
Co5 Co 0.00827 0.50527 0.00488 0.0
N6 N 0.0025 0.47866 0.05095 0.0
C7 C 0.98308 0.47306 0.08085 0.0
C8 C 0.98555 0.4561 0.10997 0.0
C9 C 0.00844 0.45117 0.09819 0.0
C10 C 0.01867 0.46534 0.0622 0.0
N11 N 0.04757 0.50599 0.99213 0.0
C12 C 0.05836 0.48851 0.00663 0.0
C13 C 0.08581 0.49527 0.98734 0.0
C14 C 0.09335 0.51885 0.9612 0.0
C15 C 0.06991 0.52481 0.96547 0.0
N16 N 0.01366 0.53139 0.95869 0.0
C17 C 0.04016 0.54812 0.93653 0.0
C18 C 0.0358 0.56173 0.905 0.0
C19 C 0.00464 0.55306 0.90745 0.0
C20 C 0.99179 0.53489 0.94075 0.0
N21 N 0.03348 0.5427 0.03329 0.0
C22 C 0.06777 0.59479 0.07607 0.0
C23 C 0.04783 0.59406 0.04798 0.0
C24 C 0.03067 0.56767 0.02709 0.0
C25 C 0.07029 0.56922 0.08231 0.0
C26 C 0.05305 0.54359 0.0607 0.0
N27 N 0.98271 0.46813 0.97638 0.0
C28 C 0.97338 0.44249 0.91834 0.0
C29 C 0.94249 0.41946 0.93102 0.0
C30 C 0.93272 0.42027 0.96764 0.0
C31 C 0.9533 0.44463 0.98998 0.0
C32 C 0.99298 0.46668 0.94129 0.0
H33 H 0.94491 0.44503 0.01774 0.0
H34 H 0.01604 0.48473 0.92996 0.0
H35 H 0.01482 0.56736 0.00633 0.0
H36 H 0.05517 0.5243 0.06694 0.0
C37 C 0.96223 0.48332 0.08016 0.0
C38 C 0.95948 0.52284 0.95577 0.0
C39 C 0.04707 0.46988 0.04253 0.0
C40 C 0.06579 0.54467 0.94156 0.0
H41 H 0.90942 0.51436 0.00587 0.0
H42 H 0.91199 0.49452 0.07543 0.0
H43 H 0.97269 0.4487 0.13689 0.0
H44 H 0.01754 0.43973 0.11509 0.0
H45 H 0.0998 0.48526 0.99287 0.0
H46 H 0.11327 0.52996 0.94108 0.0
H47 H 0.05264 0.57475 0.88179 0.0
H48 H 0.99282 0.55926 0.88685 0.0
H49 H 0.04525 0.61352 0.04259 0.0
H50 H 0.08544 0.569 0.10394 0.0
H51 H 0.98184 0.44241 0.89031 0.0
H52 H 0.90907 0.40263 0.97852 0.0
C53 C 0.54787 0.01897 0.56773 0.0
C54 C 0.54673 0.00835 0.60477 0.0
C55 C 0.51832 0.98079 0.61024 0.0
C56 C 0.50347 0.97633 0.57669 0.0
N57 N 0.52092 0.99906 0.5497 0.0
Co58 Co 0.50579 0.00472 0.49943 0.0
N59 N 0.46231 0.96639 0.50958 0.0
C60 C 0.45238 0.94657 0.54039 0.0
C61 C 0.4222 0.92091 0.53813 0.0
C62 C 0.41244 0.92417 0.50343 0.0
C63 C 0.43731 0.95182 0.48658 0.0
N64 N 0.49036 0.01124 0.44992 0.0
C65 C 0.46219 0.99307 0.4333 0.0
C66 C 0.46129 0.006 0.39854 0.0
C67 C 0.49023 0.03306 0.39259 0.0
C68 C 0.507 0.03513 0.42401 0.0
N69 N 0.54953 0.04231 0.48866 0.0
C70 C 0.56029 0.06054 0.45646 0.0
C71 C 0.59168 0.08423 0.45702 0.0
C72 C 0.6014 0.08128 0.49194 0.0
C73 C 0.57514 0.05605 0.51087 0.0
N74 N 0.51885 0.97888 0.47545 0.0
C75 C 0.5317 0.93915 0.4389 0.0
C76 C 0.53609 0.96564 0.41994 0.0
C77 C 0.53004 0.98526 0.43874 0.0
C78 C 0.52193 0.93338 0.47683 0.0
C79 C 0.51548 0.9533 0.49438 0.0
N80 N 0.49295 0.03057 0.52353 0.0
C81 C 0.50052 0.08071 0.52996 0.0
C82 C 0.48925 0.07303 0.56777 0.0
C83 C 0.47302 0.0412 0.57869 0.0
C84 C 0.47559 0.02075 0.55676 0.0
C85 C 0.50315 0.05976 0.50909 0.0
H86 H 0.46398 0.9973 0.56767 0.0
H87 H 0.51418 0.06791 0.48169 0.0
H88 H 0.53411 0.00515 0.42267 0.0
H89 H 0.50737 0.94726 0.52309 0.0
C90 C 0.47221 0.9524 0.57066 0.0
C91 C 0.57461 0.04844 0.55116 0.0
C92 C 0.43664 0.96247 0.44804 0.0
C93 C 0.5395 0.05683 0.42791 0.0
H94 H 0.56412 0.01959 0.62613 0.0
H95 H 0.50899 0.9664 0.63615 0.0
H96 H 0.40915 0.90176 0.55889 0.0
H97 H 0.38984 0.90773 0.49153 0.0
H98 H 0.4421 0.99628 0.37895 0.0
H99 H 0.49857 0.04858 0.36758 0.0
H100 H 0.60546 0.10234 0.4353 0.0
H101 H 0.6247 0.09684 0.50292 0.0
H102 H 0.54399 0.97106 0.39059 0.0
H103 H 0.51859 0.91318 0.49257 0.0
H104 H 0.50755 0.10258 0.51571 0.0
H105 H 0.45849 0.03164 0.60431 0.0
C106 C 0.55794 0.53644 0.94381 0.0
C107 C 0.56647 0.55561 0.91127 0.0
C108 C 0.5423 0.56016 0.90502 0.0
C109 C 0.5205 0.54355 0.93396 0.0
N110 N 0.52957 0.52925 0.95887 0.0
Co111 Co 0.50373 0.5004 0.00305 0.0
N112 N 0.4673 0.5056 0.99277 0.0
C113 C 0.46645 0.52437 0.96542 0.0
C114 C 0.43994 0.52586 0.96764 0.0
C115 C 0.42299 0.50729 0.99859 0.0
C116 C 0.44001 0.49514 0.01328 0.0
N117 N 0.47738 0.47031 0.04602 0.0
C118 C 0.44763 0.46053 0.05895 0.0
C119 C 0.43748 0.43803 0.08826 0.0
C120 C 0.46202 0.43408 0.09477 0.0
C121 C 0.48552 0.45406 0.06891 0.0
N122 N 0.54074 0.49637 0.01454 0.0
C123 C 0.5429 0.48011 0.04413 0.0
C124 C 0.57082 0.481 0.04411 0.0
C125 C 0.58737 0.49859 0.01241 0.0
C126 C 0.5685 0.50747 0.99485 0.0
N127 N 0.52095 0.53553 0.03668 0.0
C128 C 0.53803 0.58298 0.08612 0.0
C129 C 0.53501 0.55535 0.09884 0.0
C130 C 0.52653 0.53207 0.0738 0.0
C131 C 0.53381 0.5871 0.04808 0.0
C132 C 0.52562 0.56339 0.02399 0.0
N133 N 0.48638 0.46535 0.9694 0.0
C134 C 0.48089 0.41775 0.9522 0.0
C135 C 0.46615 0.41798 0.91906 0.0
C136 C 0.46053 0.44154 0.91206 0.0
C137 C 0.47104 0.46503 0.93727 0.0
C138 C 0.49044 0.44129 0.97699 0.0
H139 H 0.46687 0.48286 0.92987 0.0
H140 H 0.50143 0.43969 0.00186 0.0
H141 H 0.52395 0.51125 0.08528 0.0
H142 H 0.52252 0.56795 0.99539 0.0
C143 C 0.49129 0.54083 0.93854 0.0
C144 C 0.5769 0.52455 0.95824 0.0
C145 C 0.42944 0.47397 0.04693 0.0
C146 C 0.51638 0.46021 0.0677 0.0
H147 H 0.58768 0.56481 0.89352 0.0
H148 H 0.54056 0.57352 0.88176 0.0
H149 H 0.43398 0.53938 0.9494 0.0
H150 H 0.40078 0.50347 0.00927 0.0
H151 H 0.4151 0.42653 0.10422 0.0
H152 H 0.46301 0.41922 0.1166 0.0
H153 H 0.57755 0.46882 0.06362 0.0
H154 H 0.61018 0.5033 0.00261 0.0
H155 H 0.53837 0.55146 0.12819 0.0
H156 H 0.53623 0.60836 0.03715 0.0
H157 H 0.48522 0.39955 0.95879 0.0
H158 H 0.4488 0.44221 0.88677 0.0
C159 C 0.93892 0.43723 0.50963 0.0
C160 C 0.91055 0.41694 0.49267 0.0
C161 C 0.91368 0.42826 0.45611 0.0
C162 C 0.94357 0.45484 0.4529 0.0
N163 N 0.9594 0.46096 0.48515 0.0
Co164 Co 0.00224 0.49791 0.49393 0.0
N165 N 1.00101 0.52084 0.44772 0.0
C166 C 0.98082 0.50803 0.41934 0.0
C167 C 0.98642 0.52892 0.39005 0.0
C168 C 0.01216 0.55654 0.40016 0.0
C169 C 0.02086 0.55094 0.43523 0.0
N170 N 0.04504 0.53503 0.50327 0.0
C171 C 0.0602 0.56434 0.48737 0.0
C172 C 0.08952 0.58332 0.50329 0.0
C173 C 0.09334 0.56502 0.52907 0.0
C174 C 0.06611 0.53608 0.52778 0.0
N175 N 0.00379 0.4748 0.53946 0.0
C176 C 0.02998 0.48155 0.55819 0.0
C177 C 0.0236 0.46106 0.58834 0.0
C178 C 0.99135 0.44011 0.58859 0.0
C179 C 0.97993 0.44918 0.55854 0.0
N180 N 0.02173 0.48094 0.46387 0.0
C181 C 0.04922 0.45755 0.41902 0.0
C182 C 0.02534 0.43815 0.44612 0.0
C183 C 0.01196 0.45036 0.4684 0.0
C184 C 0.05883 0.48858 0.41465 0.0
C185 C 0.04465 0.49962 0.43705 0.0
N186 N 0.98212 0.51426 0.52397 0.0
C187 C 0.97219 0.52805 0.58397 0.0
C188 C 0.9464 0.52856 0.56946 0.0
C189 C 0.94018 0.52366 0.53124 0.0
C190 C 0.95778 0.51595 0.5093 0.0
C191 C 0.99019 0.52152 0.5605 0.0
H192 H 0.95074 0.5102 0.48081 0.0
H193 H 0.00979 0.52112 0.5724 0.0
H194 H 0.9935 0.43499 0.48895 0.0
H195 H 0.05175 0.52313 0.43206 0.0
C196 C 0.95511 0.47717 0.42287 0.0
C197 C 0.94658 0.43239 0.54811 0.0
C198 C 0.05047 0.57368 0.45304 0.0
C199 C 0.05842 0.51022 0.55134 0.0
H200 H 0.88982 0.39616 0.5053 0.0
H201 H 0.89572 0.41898 0.43497 0.0
H202 H 0.97328 0.52465 0.36448 0.0
H203 H 0.02383 0.57811 0.38308 0.0
H204 H 0.107 0.60749 0.49561 0.0
H205 H 0.11353 0.57201 0.5467 0.0
H206 H 0.04011 0.46209 0.60881 0.0
H207 H 0.97775 0.42059 0.60872 0.0
H208 H 0.01714 0.41387 0.44995 0.0
H209 H 0.07696 0.50415 0.39364 0.0
H210 H 0.97792 0.532 0.61334 0.0
H211 H 0.92063 0.52416 0.5189 0.0
C212 C 0.46396 1.00038 0.07957 0.0
C213 C 0.46501 0.01742 0.1093 0.0
C214 C 0.4945 0.04411 0.10747 0.0
C215 C 0.5096 0.04194 0.07672 0.0
N216 N 0.49145 0.01557 0.0586 0.0
Co217 Co 0.50342 0.00367 0.01158 0.0
N218 N 0.54751 0.04169 0.01067 0.0
C219 C 0.5605 0.06281 0.03719 0.0
C220 C 0.59181 0.08563 0.02957 0.0
C221 C 0.59913 0.0789 0.99591 0.0
C222 C 0.57162 0.05242 0.98479 0.0
N223 N 0.51501 0.9928 0.96327 0.0
C224 C 0.54086 0.01021 0.93973 0.0
C225 C 0.53775 0.99581 0.90653 0.0
C226 C 0.50898 0.9683 0.9092 0.0
C227 C 0.49602 0.96762 0.9435 0.0
N228 N 0.45977 0.96475 0.01368 0.0
C229 C 0.44813 0.9417 0.9896 0.0
C230 C 0.41836 0.91677 0.99993 0.0
C231 C 0.41069 0.9241 0.03293 0.0
C232 C 0.43628 0.95326 0.04069 0.0
N233 N 0.48816 0.02625 0.98126 0.0
C234 C 0.47129 0.05973 0.93329 0.0
C235 C 0.45808 0.02827 0.92929 0.0
C236 C 0.46668 0.01202 0.95357 0.0
C237 C 0.49192 0.074 0.96252 0.0
C238 C 0.49992 0.05689 0.98619 0.0
N239 N 0.51866 0.98095 0.04188 0.0
C240 C 0.52328 0.93666 0.05198 0.0
C241 C 0.53625 0.94654 0.08699 0.0
C242 C 0.54116 0.97418 0.09886 0.0
C243 C 0.53239 0.99102 0.07591 0.0
C244 C 0.51473 0.95412 0.02998 0.0
H245 H 0.53652 0.01183 0.08664 0.0
H246 H 0.50456 0.94513 0.00376 0.0
H247 H 0.45611 0.98812 0.94889 0.0
H248 H 0.51635 0.06912 0.00755 0.0
C249 C 0.54172 0.06256 0.06651 0.0
C250 C 0.43742 0.96885 0.07438 0.0
C251 C 0.56846 0.04065 0.94748 0.0
C252 C 0.46561 0.94438 0.9573 0.0
H253 H 0.44672 0.01075 0.13084 0.0
H254 H 0.50417 0.06238 0.12702 0.0
H255 H 0.60706 0.10555 0.0457 0.0
H256 H 0.62168 0.0927 0.9804 0.0
H257 H 0.55431 0.00444 0.88259 0.0
H258 H 0.49838 0.95122 0.88817 0.0
H259 H 0.40406 0.89566 0.98539 0.0
H260 H 0.38886 0.90956 0.04959 0.0
H261 H 0.4417 0.01648 0.90707 0.0
H262 H 0.5024 0.09842 0.96647 0.0
H263 H 0.51921 0.91524 0.042 0.0
H264 H 0.55127 0.98247 0.12596 0.0
C265 C 0.51779 0.56499 0.48556 0.0
C266 C 0.50968 0.585 0.49861 0.0
C267 C 0.48993 0.57022 0.52944 0.0
C268 C 0.4868 0.54204 0.53326 0.0
N269 N 0.50381 0.53806 0.50712 0.0
Co270 Co 0.50248 0.499 0.49908 0.0
N271 N 0.47157 0.47643 0.54287 0.0
C272 C 0.45974 0.48816 0.56618 0.0
C273 C 0.44191 0.46835 0.59615 0.0
C274 C 0.44294 0.44263 0.5923 0.0
C275 C 0.46116 0.44816 0.55981 0.0
N276 N 0.50012 0.45964 0.48994 0.0
C277 C 0.48472 0.43209 0.51014 0.0
C278 C 0.4887 0.4104 0.4937 0.0
C279 C 0.50802 0.42506 0.46244 0.0
C280 C 0.51453 0.45466 0.46147 0.0
N281 N 0.53453 0.52183 0.45649 0.0
C282 C 0.54809 0.51072 0.43494 0.0
C283 C 0.57002 0.5322 0.40868 0.0
C284 C 0.57016 0.55849 0.41339 0.0
C285 C 0.54802 0.55136 0.44217 0.0
N286 N 0.53782 0.51114 0.534 0.0
C287 C 0.58405 0.52238 0.58697 0.0
C288 C 0.58358 0.50986 0.55292 0.0
C289 C 0.56054 0.50464 0.52688 0.0
C290 C 0.56207 0.53055 0.59355 0.0
C291 C 0.5393 0.52479 0.5668 0.0
N292 N 0.46705 0.48683 0.46411 0.0
C293 C 0.44566 0.47391 0.40191 0.0
C294 C 0.41893 0.47389 0.41316 0.0
C295 C 0.41611 0.47966 0.45034 0.0
C296 C 0.44026 0.48598 0.47522 0.0
C297 C 0.46922 0.48025 0.42772 0.0
H298 H 0.43685 0.49051 0.5031 0.0
H299 H 0.48918 0.48019 0.41734 0.0
H300 H 0.56103 0.49449 0.5017 0.0
H301 H 0.52282 0.53107 0.57358 0.0
C302 C 0.46715 0.51844 0.56018 0.0
C303 C 0.538 0.57215 0.45194 0.0
C304 C 0.46909 0.4265 0.54697 0.0
C305 C 0.53726 0.47924 0.43746 0.0
H306 H 0.51672 0.60769 0.48675 0.0
H307 H 0.47849 0.57867 0.54641 0.0
H308 H 0.43045 0.47254 0.61881 0.0
H309 H 0.43211 0.42244 0.61176 0.0
H310 H 0.47972 0.38687 0.50423 0.0
H311 H 0.5175 0.41571 0.44376 0.0
H312 H 0.58332 0.52879 0.38759 0.0
H313 H 0.58391 0.58006 0.39648 0.0
H314 H 0.60057 0.50357 0.54677 0.0
H315 H 0.56211 0.54075 0.61952 0.0
H316 H 0.4485 0.46942 0.37319 0.0
H317 H 0.39555 0.47971 0.45999 0.0
C318 C 0.32132 0.4771 0.15018 0.0
C319 C 0.31962 0.45147 0.1351 0.0
C320 C 0.29606 0.4731 0.17234 0.0
C321 C 0.2684 0.44353 0.17904 0.0
C322 C 0.29186 0.42184 0.14191 0.0
C323 C 0.26619 0.418 0.16314 0.0
C324 C 0.242 0.43943 0.20287 0.0
C325 C 0.30988 0.43363 0.28186 0.0
C326 C 0.32171 0.45559 0.30941 0.0
C327 C 0.28501 0.42946 0.2594 0.0
C328 C 0.27211 0.44768 0.26362 0.0
C329 C 0.30889 0.47377 0.31368 0.0
C330 C 0.28431 0.46983 0.29102 0.0
C331 C 0.24432 0.4424 0.24214 0.0
C332 C 0.11467 0.41184 0.29312 0.0
C333 C 0.12436 0.43543 0.31827 0.0
C334 C 0.13705 0.41229 0.26879 0.0
C335 C 0.16938 0.43625 0.26952 0.0
C336 C 0.15667 0.45911 0.3192 0.0
C337 C 0.17899 0.45938 0.29527 0.0
C338 C 0.19379 0.43713 0.2448 0.0
C339 C 0.13421 0.45626 0.16801 0.0
C340 C 0.12382 0.4397 0.13526 0.0
C341 C 0.15581 0.45445 0.19107 0.0
C342 C 0.16641 0.43485 0.18296 0.0
C343 C 0.13438 0.4202 0.12684 0.0
C344 C 0.15529 0.41764 0.15063 0.0
C345 C 0.19173 0.43493 0.20519 0.0
H346 H 0.34244 0.50015 0.14526 0.0
H347 H 0.29808 0.49308 0.18427 0.0
H348 H 0.2901 0.40174 0.13071 0.0
H349 H 0.24498 0.39502 0.16804 0.0
H350 H 0.31939 0.41926 0.27842 0.0
H351 H 0.27528 0.41133 0.23971 0.0
H352 H 0.31771 0.49078 0.33486 0.0
H353 H 0.27461 0.48397 0.29512 0.0
H354 H 0.08984 0.39326 0.29225 0.0
H355 H 0.12919 0.39389 0.24964 0.0
H356 H 0.1646 0.47743 0.3385 0.0
H357 H 0.20381 0.47795 0.29654 0.0
H358 H 0.1269 0.47195 0.17463 0.0
H359 H 0.16517 0.46955 0.21422 0.0
H360 H 0.12713 0.40765 0.10136 0.0
H361 H 0.16348 0.4028 0.14318 0.0
N362 N 0.21592 0.4359 0.18589 0.0
N363 N 0.22011 0.44109 0.26144 0.0
C364 C 0.86148 0.30805 0.81196 0.0
C365 C 0.85271 0.32452 0.83376 0.0
C366 C 0.83933 0.28513 0.78905 0.0
C367 C 0.80823 0.27868 0.78714 0.0
C368 C 0.8215 0.3178 0.83222 0.0
C369 C 0.79941 0.29497 0.80919 0.0
C370 C 0.78427 0.25374 0.76409 0.0
C371 C 0.82486 0.329 0.66057 0.0
C372 C 0.85486 0.33369 0.65341 0.0
C373 C 0.80267 0.30435 0.6849 0.0
C374 C 0.81015 0.28407 0.70228 0.0
C375 C 0.86249 0.3136 0.67122 0.0
C376 C 0.84009 0.28869 0.6951 0.0
C377 C 0.78536 0.25628 0.72441 0.0
C378 C 0.66187 0.15556 0.67022 0.0
C379 C 0.67035 0.13826 0.64952 0.0
C380 C 0.68377 0.17839 0.69324 0.0
C381 C 0.71336 0.18218 0.69943 0.0
C382 C 0.70106 0.14384 0.65347 0.0
C383 C 0.72208 0.1651 0.67882 0.0
C384 C 0.73684 0.20673 0.72327 0.0
C385 C 0.69586 0.13902 0.83902 0.0
C386 C 0.66357 0.12856 0.83554 0.0
C387 C 0.71898 0.16254 0.81414 0.0
C388 C 0.71038 0.17661 0.78599 0.0
C389 C 0.65493 0.14206 0.80678 0.0
C390 C 0.6782 0.16666 0.78342 0.0
C391 C 0.73561 0.2041 0.7632 0.0
H392 H 0.88538 0.31276 0.81299 0.0
H393 H 0.84632 0.27206 0.77344 0.0
H394 H 0.81426 0.33018 0.84896 0.0
H395 H 0.7754 0.29001 0.80855 0.0
H396 H 0.81853 0.34416 0.6469 0.0
H397 H 0.77941 0.30072 0.6896 0.0
H398 H 0.88544 0.31674 0.66575 0.0
H399 H 0.84583 0.27257 0.70708 0.0
H400 H 0.63869 0.15234 0.66731 0.0
H401 H 0.6777 0.19344 0.7056 0.0
H402 H 0.70869 0.1316 0.63712 0.0
H403 H 0.74543 0.16871 0.68174 0.0
H404 H 0.7032 0.12933 0.86136 0.0
H405 H 0.74375 0.17037 0.81755 0.0
H406 H 0.63028 0.13489 0.80404 0.0
H407 H 0.67098 0.17892 0.76515 0.0
N408 N 0.75943 0.22777 0.78197 0.0
N409 N 0.76169 0.23275 0.70552 0.0
C410 C 0.58185 0.69338 0.20873 0.0
C411 C 0.55748 0.6791 0.18286 0.0
C412 C 0.58478 0.71696 0.23002 0.0
C413 C 0.56284 0.726 0.22652 0.0
C414 C 0.53599 0.68857 0.17875 0.0
C415 C 0.53866 0.71182 0.20037 0.0
C416 C 0.56547 0.75111 0.24839 0.0
C417 C 0.53317 0.67591 0.34542 0.0
C418 C 0.56091 0.6773 0.35639 0.0
C419 C 0.53527 0.69991 0.32271 0.0
C420 C 0.56511 0.72584 0.31119 0.0
C421 C 0.59082 0.70329 0.3447 0.0
C422 C 0.59289 0.72776 0.32291 0.0
C423 C 0.56695 0.75125 0.28799 0.0
C424 C 0.53275 0.84397 0.32197 0.0
C425 C 0.55106 0.85658 0.35378 0.0
C426 C 0.53665 0.82413 0.30045 0.0
C427 C 0.55987 0.81747 0.30942 0.0
C428 C 0.5734 0.84906 0.36367 0.0
C429 C 0.57783 0.82976 0.34162 0.0
C430 C 0.56419 0.79625 0.28693 0.0
C431 C 0.58174 0.87468 0.20714 0.0
C432 C 0.55909 0.86525 0.17909 0.0
C433 C 0.58402 0.85261 0.22895 0.0
C434 C 0.56332 0.82086 0.22329 0.0
C435 C 0.53918 0.8337 0.17258 0.0
C436 C 0.54139 0.81168 0.1944 0.0
C437 C 0.56421 0.79694 0.24706 0.0
H438 H 0.59882 0.68654 0.21202 0.0
H439 H 0.60459 0.72851 0.24848 0.0
H440 H 0.51708 0.67788 0.15884 0.0
H441 H 0.52169 0.71862 0.19679 0.0
H442 H 0.5099 0.65606 0.35419 0.0
H443 H 0.51364 0.69832 0.31422 0.0
H444 H 0.61246 0.70472 0.35278 0.0
H445 H 0.6161 0.7479 0.31461 0.0
H446 H 0.5151 0.84917 0.31413 0.0
H447 H 0.52126 0.81382 0.27701 0.0
H448 H 0.58753 0.85831 0.38834 0.0
H449 H 0.59541 0.82454 0.34964 0.0
H450 H 0.59731 0.89902 0.21235 0.0
H451 H 0.60164 0.86028 0.25049 0.0
H452 H 0.52162 0.82614 0.15097 0.0
H453 H 0.52538 0.78736 0.18934 0.0
N454 N 0.56426 0.77405 0.2295 0.0
N455 N 0.56591 0.77353 0.30579 0.0
C456 C 0.87307 0.55978 0.69941 0.0
C457 C 0.86115 0.53712 0.67207 0.0
C458 C 0.85298 0.55936 0.72745 0.0
C459 C 0.82078 0.53532 0.73035 0.0
C460 C 0.82996 0.51084 0.67962 0.0
C461 C 0.80978 0.51061 0.70702 0.0
C462 C 0.79779 0.53616 0.75579 0.0
C463 C 0.85879 0.51684 0.83016 0.0
C464 C 0.86961 0.53343 0.86286 0.0
C465 C 0.83631 0.51809 0.80813 0.0
C466 C 0.82536 0.53726 0.81722 0.0
C467 C 0.85806 0.55184 0.87266 0.0
C468 C 0.83648 0.554 0.84989 0.0
C469 C 0.80034 0.53807 0.79542 0.0
C470 C 0.6805 0.50858 0.86291 0.0
C471 C 0.68006 0.53539 0.86742 0.0
C472 C 0.70428 0.50989 0.84045 0.0
C473 C 0.72824 0.53807 0.82256 0.0
C474 C 0.70429 0.56367 0.84977 0.0
C475 C 0.7285 0.56508 0.82805 0.0
C476 C 0.75296 0.53904 0.79849 0.0
C477 C 0.69562 0.55788 0.71374 0.0
C478 C 0.67637 0.53188 0.69287 0.0
C479 C 0.7193 0.55924 0.7361 0.0
C480 C 0.72356 0.53434 0.73852 0.0
C481 C 0.68054 0.50696 0.69535 0.0
C482 C 0.70405 0.50824 0.71792 0.0
C483 C 0.75023 0.53652 0.75927 0.0
H484 H 0.89793 0.57806 0.69977 0.0
H485 H 0.86246 0.57809 0.74636 0.0
H486 H 0.82043 0.48991 0.66487 0.0
H487 H 0.78542 0.49088 0.71014 0.0
H488 H 0.86702 0.50211 0.82237 0.0
H489 H 0.82692 0.50324 0.78479 0.0
H490 H 0.86581 0.56458 0.89799 0.0
H491 H 0.82818 0.56856 0.85814 0.0
H492 H 0.66214 0.48657 0.87638 0.0
H493 H 0.70389 0.48887 0.83684 0.0
H494 H 0.70448 0.58464 0.85296 0.0
H495 H 0.74726 0.58719 0.81524 0.0
H496 H 0.69289 0.57744 0.71182 0.0
H497 H 0.73499 0.58018 0.7503 0.0
H498 H 0.66599 0.4868 0.67925 0.0
H499 H 0.70732 0.48901 0.71892 0.0
N500 N 0.77262 0.53505 0.73952 0.0
N501 N 0.77768 0.53945 0.81511 0.0
C502 C 0.1583 0.68587 0.20501 0.0
C503 C 0.14406 0.69302 0.17578 0.0
C504 C 0.1786 0.70856 0.22936 0.0
C505 C 0.18492 0.73876 0.22485 0.0
C506 C 0.14998 0.72302 0.17152 0.0
C507 C 0.17053 0.74579 0.19563 0.0
C508 C 0.20881 0.76376 0.24798 0.0
C509 C 0.12776 0.69582 0.32818 0.0
C510 C 0.13685 0.68446 0.35895 0.0
C511 C 0.15093 0.7209 0.3049 0.0
C512 C 0.18354 0.73444 0.31159 0.0
C513 C 0.16926 0.69863 0.36637 0.0
C514 C 0.19233 0.72332 0.34296 0.0
C515 C 0.20891 0.76115 0.28781 0.0
C516 C 0.32195 0.88694 0.32546 0.0
C517 C 0.33451 0.8771 0.35395 0.0
C518 C 0.29712 0.86525 0.3039 0.0
C519 C 0.2849 0.8334 0.30999 0.0
C520 C 0.32188 0.84532 0.36065 0.0
C521 C 0.29724 0.82367 0.33894 0.0
C522 C 0.25881 0.80989 0.28722 0.0
C523 C 0.34197 0.8708 0.2085 0.0
C524 C 0.33733 0.89016 0.1833 0.0
C525 C 0.31659 0.84573 0.22924 0.0
C526 C 0.28544 0.8382 0.2244 0.0
C527 C 0.30528 0.8794 0.17518 0.0
C528 C 0.27984 0.85429 0.19597 0.0
C529 C 0.25858 0.81255 0.24749 0.0
H530 H 0.15408 0.66286 0.20857 0.0
H531 H 0.19004 0.70274 0.25103 0.0
H532 H 0.13928 0.72894 0.14901 0.0
H533 H 0.17539 0.76901 0.1913 0.0
H534 H 0.10282 0.68509 0.32202 0.0
H535 H 0.14332 0.72969 0.28185 0.0
H536 H 0.17671 0.69005 0.38987 0.0
H537 H 0.2172 0.73346 0.34911 0.0
H538 H 0.33129 0.91138 0.3201 0.0
H539 H 0.28743 0.87337 0.28258 0.0
H540 H 0.3312 0.83732 0.38264 0.0
H541 H 0.28806 0.79927 0.34447 0.0
H542 H 0.365 0.87406 0.21214 0.0
H543 H 0.32133 0.83204 0.24892 0.0
H544 H 0.29908 0.8895 0.1523 0.0
H545 H 0.25572 0.84756 0.18994 0.0
N546 N 0.23353 0.78952 0.22949 0.0
N547 N 0.23403 0.78428 0.30564 0.0
C548 C 0.4302 0.12983 0.80402 0.0
C549 C 0.45248 0.13953 0.83253 0.0
C550 C 0.42849 0.15173 0.78105 0.0
C551 C 0.44904 0.18353 0.78641 0.0
C552 C 0.47274 0.1712 0.83816 0.0
C553 C 0.47086 0.19304 0.81544 0.0
C554 C 0.44758 0.20712 0.76264 0.0
C555 C 0.48662 0.16681 0.6878 0.0
C556 C 0.46667 0.1503 0.65859 0.0
C557 C 0.48052 0.18536 0.7089 0.0
C558 C 0.45421 0.18758 0.7013 0.0
C559 C 0.44042 0.15253 0.65074 0.0
C560 C 0.4344 0.17131 0.67178 0.0
C561 C 0.44845 0.20813 0.72291 0.0
C562 C 0.46812 0.33296 0.68179 0.0
C563 C 0.45224 0.32581 0.64764 0.0
C564 C 0.46636 0.30959 0.70552 0.0
C565 C 0.44702 0.27831 0.6968 0.0
C566 C 0.43387 0.29477 0.63812 0.0
C567 C 0.43101 0.27123 0.66266 0.0
C568 C 0.44542 0.25307 0.72105 0.0
C569 C 0.42085 0.30511 0.79819 0.0
C570 C 0.44396 0.32021 0.82528 0.0
C571 C 0.42044 0.2824 0.77745 0.0
C572 C 0.44331 0.2748 0.78346 0.0
C573 C 0.46615 0.31199 0.832 0.0
C574 C 0.4657 0.28932 0.81145 0.0
C575 C 0.4445 0.25192 0.76098 0.0
H576 H 0.41431 0.10539 0.79954 0.0
H577 H 0.41102 0.14384 0.75932 0.0
H578 H 0.48996 0.17897 0.86018 0.0
H579 H 0.48678 0.21744 0.82019 0.0
H580 H 0.50712 0.16553 0.69403 0.0
H581 H 0.49666 0.19834 0.73082 0.0
H582 H 0.4249 0.14005 0.62813 0.0
H583 H 0.41423 0.17303 0.66516 0.0
H584 H 0.48283 0.35681 0.68942 0.0
H585 H 0.48074 0.31627 0.73021 0.0
H586 H 0.42178 0.28879 0.61167 0.0
H587 H 0.4165 0.24745 0.65474 0.0
H588 H 0.40347 0.31117 0.79285 0.0
H589 H 0.40258 0.27107 0.75649 0.0
H590 H 0.48405 0.32338 0.85293 0.0
H591 H 0.48339 0.28366 0.81675 0.0
N592 N 0.44584 0.22912 0.78005 0.0
N593 N 0.44712 0.23091 0.7037 0.0
C594 C 0.09913 0.48517 0.07422 0.0
C595 C 0.06817 0.46161 0.06312 0.0
C596 C 0.0736 0.42263 0.09903 0.0
C597 C 0.10513 0.44605 0.10789 0.0
N598 N 0.15098 0.49742 0.09305 0.0
N599 N 0.02969 0.40711 0.05724 0.0
C600 C 0.11882 0.47662 0.09206 0.0
C601 C 0.05668 0.43002 0.07295 0.0
N602 N 0.10971 0.51583 0.06915 0.0
N603 N 0.05924 0.39378 0.11674 0.0
H604 H 0.01684 0.41175 0.03798 0.0
H605 H 0.02179 0.38373 0.06066 0.0
H606 H 0.07066 0.38765 0.13639 0.0
H607 H 0.03519 0.37682 0.11432 0.0
H608 H 0.13017 0.53327 0.08141 0.0
H609 H 0.09727 0.52396 0.05507 0.0
H610 H 0.1626 0.5191 0.07856 0.0
H611 H 0.16647 0.49174 0.10471 0.0
C612 C 0.62052 0.06478 0.5951 0.0
C613 C 0.60022 0.07173 0.57547 0.0
C614 C 0.63161 0.12442 0.59698 0.0
C615 C 0.64742 0.11551 0.62267 0.0
N616 N 0.65042 0.07343 0.65146 0.0
N617 N 0.5828 0.10707 0.56476 0.0
C618 C 0.64025 0.08463 0.62315 0.0
C619 C 0.60464 0.10123 0.57852 0.0
N620 N 0.62112 0.0394 0.58699 0.0
N621 N 0.64304 0.15501 0.58881 0.0
H622 H 0.56202 0.09038 0.55227 0.0
H623 H 0.58391 0.1275 0.56946 0.0
H624 H 0.66423 0.17285 0.59939 0.0
H625 H 0.63358 0.16245 0.56797 0.0
H626 H 0.63748 0.03487 0.59852 0.0
H627 H 0.60733 0.02466 0.56616 0.0
H628 H 0.64336 0.05025 0.65436 0.0
H629 H 0.66266 0.08618 0.67434 0.0
C630 C 0.52028 0.6011 0.1397 0.0
C631 C 0.54418 0.60709 0.11263 0.0
C632 C 0.57682 0.66089 0.13081 0.0
C633 C 0.55408 0.65403 0.15998 0.0
N634 N 0.5079 0.61574 0.19775 0.0
N635 N 0.59789 0.64076 0.08744 0.0
C636 C 0.52696 0.6235 0.16617 0.0
C637 C 0.57333 0.63644 0.10973 0.0
N638 N 0.49059 0.57474 0.13887 0.0
N639 N 0.60095 0.6909 0.12208 0.0
H640 H 0.59623 0.62327 0.07186 0.0
H641 H 0.62074 0.66066 0.08711 0.0
H642 H 0.60416 0.70953 0.13653 0.0
H643 H 0.61612 0.69764 0.09847 0.0
H644 H 0.47133 0.57068 0.15545 0.0
H645 H 0.48438 0.5584 0.11888 0.0
H646 H 0.48965 0.59305 0.20557 0.0
H647 H 0.51232 0.63146 0.21809 0.0
C648 C 0.93537 0.56118 0.61035 0.0
C649 C 0.9246 0.53252 0.59392 0.0
C650 C 0.87014 0.51482 0.6136 0.0
C651 C 0.88165 0.53914 0.63851 0.0
N652 N 0.91955 0.59427 0.63465 0.0
N653 N 0.88064 0.48035 0.58327 0.0
C654 C 0.91303 0.56518 0.6302 0.0
C655 C 0.89168 0.50884 0.59656 0.0
N656 N 0.96666 0.58479 0.60659 0.0
N657 N 0.8401 0.50138 0.6005 0.0
H658 H 0.89543 0.47429 0.57126 0.0
H659 H 0.85697 0.46199 0.58754 0.0
H660 H 0.82584 0.50995 0.60631 0.0
H661 H 0.83162 0.48535 0.57968 0.0
H662 H 0.97646 0.60455 0.62196 0.0
H663 H 0.98319 0.58399 0.58961 0.0
H664 H 0.94103 0.61448 0.62614 0.0
H665 H 0.90158 0.59801 0.64138 0.0
C666 C 0.38338 0.95043 0.10308 0.0
C667 C 0.4126 0.95206 0.10514 0.0
C668 C 0.39724 0.92791 0.16895 0.0
C669 C 0.36536 0.91866 0.16241 0.0
N670 N 0.33945 0.94424 0.13987 0.0
N671 N 0.44818 0.94314 0.14121 0.0
C672 C 0.36109 0.93634 0.13398 0.0
C673 C 0.41991 0.94122 0.13855 0.0
N674 N 0.3768 0.9622 0.07177 0.0
N675 N 0.4069 0.92868 0.20494 0.0
H676 H 0.46558 0.95282 0.11956 0.0
H677 H 0.45311 0.93293 0.16393 0.0
H678 H 0.39169 0.924 0.22806 0.0
H679 H 0.43061 0.93797 0.2116 0.0
H680 H 0.35442 0.95861 0.06746 0.0
H681 H 0.39305 0.97379 0.04915 0.0
H682 H 0.3372 0.95944 0.12169 0.0
H683 H 0.32723 0.93912 0.16577 0.0
C684 C 0.43334 0.37437 0.58176 0.0
C685 C 0.46439 0.40042 0.57284 0.0
C686 C 0.48713 0.37495 0.60756 0.0
C687 C 0.45617 0.35109 0.62113 0.0
N688 N 0.40005 0.33169 0.62684 0.0
N689 N 0.52079 0.42819 0.58352 0.0
C690 C 0.42924 0.35171 0.60976 0.0
C691 C 0.49131 0.40153 0.58766 0.0
N692 N 0.40785 0.37102 0.56315 0.0
N693 N 0.51236 0.37171 0.61221 0.0
H694 H 0.52463 0.44842 0.56997 0.0
H695 H 0.54074 0.4311 0.59682 0.0
H696 H 0.51007 0.35186 0.62495 0.0
H697 H 0.5348 0.3872 0.59973 0.0
H698 H 0.38512 0.35094 0.56599 0.0
H699 H 0.41003 0.38721 0.54243 0.0
H700 H 0.38037 0.33324 0.62203 0.0
H701 H 0.39625 0.31559 0.64861 0.0
C702 C 0.56779 0.9278 0.40386 0.0
C703 C 0.53698 0.91746 0.41872 0.0
C704 C 0.51682 0.86589 0.39596 0.0
C705 C 0.54651 0.87743 0.3769 0.0
N706 N 0.59849 0.92127 0.35688 0.0
N707 N 0.48062 0.87823 0.42249 0.0
C708 C 0.57158 0.90893 0.37928 0.0
C709 C 0.51102 0.88689 0.41307 0.0
N710 N 0.59361 0.95525 0.41407 0.0
N711 N 0.49449 0.83474 0.39876 0.0
H712 H 0.47515 0.89304 0.43436 0.0
H713 H 0.46059 0.85736 0.4152 0.0
H714 H 0.49812 0.8185 0.38742 0.0
H715 H 0.47375 0.82482 0.41553 0.0
H716 H 0.61698 0.96243 0.40705 0.0
H717 H 0.5919 0.9694 0.43271 0.0
H718 H 0.61603 0.94488 0.35465 0.0
H719 H 0.60192 0.9085 0.33775 0.0
C720 C 0.6357 0.54986 0.94316 0.0
C721 C 0.60362 0.52809 0.93444 0.0
C722 C 0.6219 0.51486 0.87879 0.0
C723 C 0.65386 0.5336 0.89017 0.0
N724 N 0.69058 0.56461 0.93742 0.0
N725 N 0.56611 0.4857 0.89791 0.0
C726 C 0.66066 0.55005 0.92349 0.0
C727 C 0.59669 0.50938 0.90337 0.0
N728 N 0.64231 0.57055 0.96996 0.0
N729 N 0.61561 0.50328 0.84383 0.0
H730 H 0.54686 0.48102 0.91507 0.0
H731 H 0.56044 0.46901 0.87856 0.0
H732 H 0.63345 0.50762 0.82442 0.0
H733 H 0.59298 0.49208 0.8327 0.0
H734 H 0.66528 0.589 0.97482 0.0
H735 H 0.62457 0.57081 0.98513 0.0
H736 H 0.69606 0.57422 0.9636 0.0
H737 H 0.7093 0.56451 0.92457 0.0
C738 C 0.09719 0.60431 0.40662 0.0
C739 C 0.07396 0.6033 0.43092 0.0
C740 C 0.09258 0.65676 0.40892 0.0
C741 C 0.11309 0.65605 0.38186 0.0
N742 N 0.12885 0.62631 0.34878 0.0
N743 N 0.04706 0.62735 0.45257 0.0
C744 C 0.11341 0.62888 0.37877 0.0
C745 C 0.07087 0.6292 0.43123 0.0
N746 N 0.10512 0.58278 0.41112 0.0
N747 N 0.09461 0.68393 0.41419 0.0
H748 H 0.03174 0.6081 0.47052 0.0
H749 H 0.04129 0.64404 0.4508 0.0
H750 H 0.10999 0.70439 0.39811 0.0
H751 H 0.08277 0.68678 0.43615 0.0
H752 H 0.12377 0.58412 0.39603 0.0
H753 H 0.09644 0.56623 0.43341 0.0
H754 H 0.12698 0.60569 0.34307 0.0
H755 H 0.1407 0.64374 0.3274 0.0
C756 C 0.48152 0.0891 0.87099 0.0
C757 C 0.46443 0.07803 0.90613 0.0
C758 C 0.43828 0.10614 0.89228 0.0
C759 C 0.45485 0.11665 0.85681 0.0
N760 N 0.48792 0.11449 0.80924 0.0
N761 N 0.42265 0.07096 0.94782 0.0
C762 C 0.47511 0.10692 0.84516 0.0
C763 C 0.44161 0.08506 0.91607 0.0
N764 N 0.50469 0.08348 0.86293 0.0
N765 N 0.42001 0.11697 0.90353 0.0
H766 H 0.42471 0.05562 0.96602 0.0
H767 H 0.40331 0.07248 0.95475 0.0
H768 H 0.41588 0.13132 0.88617 0.0
H769 H 0.41037 0.11324 0.9307 0.0
H770 H 0.52074 0.09404 0.84007 0.0
H771 H 0.50928 0.06958 0.88049 0.0
H772 H 0.50002 0.10535 0.79754 0.0
H773 H 0.48449 0.12828 0.7899 0.0
C774 C 0.36477 0.43969 0.38678 0.0
C775 C 0.39428 0.46865 0.38581 0.0
C776 C 0.37786 0.48688 0.33103 0.0
C777 C 0.34711 0.4593 0.33462 0.0
N778 N 0.30947 0.41133 0.36952 0.0
N779 N 0.42699 0.52184 0.36161 0.0
C780 C 0.34005 0.4361 0.36342 0.0
C781 C 0.40035 0.49283 0.35913 0.0
N782 N 0.36061 0.41544 0.4095 0.0
N783 N 0.3858 0.50705 0.30031 0.0
H784 H 0.44357 0.52719 0.38245 0.0
H785 H 0.43112 0.54117 0.34537 0.0
H786 H 0.36998 0.50329 0.27896 0.0
H787 H 0.40885 0.52595 0.29422 0.0
H788 H 0.34092 0.39286 0.40845 0.0
H789 H 0.37811 0.41732 0.42726 0.0
H790 H 0.30225 0.39552 0.39267 0.0
H791 H 0.29062 0.40792 0.35321 0.0
C792 C 0.90902 0.40355 0.87321 0.0
C793 C 0.92008 0.39515 0.90554 0.0
C794 C 0.88527 0.34021 0.89215 0.0
C795 C 0.87622 0.34885 0.85831 0.0
N796 N 0.88379 0.38891 0.81298 0.0
N797 N 0.92351 0.35616 0.94169 0.0
C798 C 0.88933 0.3806 0.84781 0.0
C799 C 0.90952 0.36363 0.91388 0.0
N800 N 0.91638 0.43326 0.86739 0.0
N801 N 0.86999 0.30964 0.90418 0.0
H802 H 0.94165 0.37268 0.95782 0.0
H803 H 0.91927 0.33405 0.94646 0.0
H804 H 0.85216 0.29182 0.88905 0.0
H805 H 0.87302 0.3021 0.9306 0.0
H806 H 0.90586 0.43986 0.84705 0.0
H807 H 0.93105 0.45096 0.88486 0.0
H808 H 0.89552 0.41176 0.80201 0.0
H809 H 0.86953 0.37279 0.79357 0.0
C810 C 0.90698 0.49848 0.92326 0.0
C811 C 0.93585 0.5256 0.93295 0.0
C812 C 0.92223 0.55761 0.89497 0.0
C813 C 0.89227 0.53077 0.88749 0.0
N814 N 0.85295 0.47664 0.90317 0.0
N815 N 0.96568 0.58105 0.93783 0.0
C816 C 0.88369 0.50141 0.90412 0.0
C817 C 0.94182 0.55523 0.92191 0.0
N818 N 0.90193 0.46993 0.93191 0.0
N819 N 0.93269 0.58514 0.87526 0.0
H820 H 0.96907 0.60286 0.93326 0.0
H821 H 0.97999 0.5801 0.95847 0.0
H822 H 0.91972 0.58766 0.85408 0.0
H823 H 0.95566 0.60458 0.87726 0.0
H824 H 0.88281 0.44952 0.92216 0.0
H825 H 0.91831 0.46685 0.94618 0.0
H826 H 0.84468 0.45551 0.91799 0.0
H827 H 0.83485 0.47813 0.89089 0.0
C828 C 0.41608 0.9244 0.39703 0.0
C829 C 0.41061 0.9413 0.42296 0.0
C830 C 0.35489 0.91527 0.40482 0.0
C831 C 0.36095 0.90001 0.37698 0.0
N832 N 0.39854 0.89431 0.34159 0.0
N833 N 0.37687 0.95713 0.44738 0.0
C834 C 0.39195 0.90581 0.37164 0.0
C835 C 0.3806 0.93806 0.42554 0.0
N836 N 0.44403 0.92544 0.39741 0.0
N837 N 0.32437 0.90706 0.41254 0.0
H838 H 0.39507 0.97372 0.46341 0.0
H839 H 0.35666 0.95825 0.44732 0.0
H840 H 0.30488 0.89043 0.39805 0.0
H841 H 0.31796 0.91482 0.43528 0.0
H842 H 0.44809 0.91106 0.38211 0.0
H843 H 0.46237 0.93902 0.41536 0.0
H844 H 0.42142 0.90037 0.33387 0.0
H845 H 0.38151 0.88078 0.32225 0.0
C846 C 0.43242 0.36241 0.90258 0.0
C847 C 0.45693 0.39347 0.89198 0.0
C848 C 0.46692 0.37656 0.83311 0.0
C849 C 0.44576 0.34529 0.84641 0.0
N850 N 0.4093 0.30772 0.89424 0.0
N851 N 0.499 0.43045 0.84818 0.0
C852 C 0.42853 0.33799 0.88115 0.0
C853 C 0.47434 0.40073 0.85725 0.0
N854 N 0.41245 0.35644 0.9327 0.0
N855 N 0.47977 0.38308 0.79728 0.0
H856 H 0.50475 0.44899 0.86448 0.0
H857 H 0.51516 0.43655 0.82579 0.0
H858 H 0.47527 0.36589 0.77911 0.0
H859 H 0.4927 0.40533 0.78438 0.0
H860 H 0.39223 0.33469 0.93984 0.0
H861 H 0.41444 0.3739 0.94865 0.0
H862 H 0.39912 0.30097 0.92136 0.0
H863 H 0.405 0.2892 0.87868 0.0
C864 C 0.08639 0.43938 0.40858 0.0
C865 C 0.06406 0.44595 0.39414 0.0
C866 C 0.07941 0.44329 0.32958 0.0
C867 C 0.10105 0.43577 0.34404 0.0
N868 N 0.1193 0.41895 0.39686 0.0
N869 N 0.03342 0.44626 0.34209 0.0
C870 C 0.10259 0.43128 0.38348 0.0
C871 C 0.05863 0.44524 0.35495 0.0
N872 N 0.09345 0.44252 0.44586 0.0
N873 N 0.07991 0.45029 0.29189 0.0
H874 H 0.01759 0.44741 0.36007 0.0
H875 H 0.0264 0.4429 0.31426 0.0
H876 H 0.09492 0.44941 0.27231 0.0
H877 H 0.0673 0.4594 0.28039 0.0
H878 H 0.11222 0.44164 0.45705 0.0
H879 H 0.08212 0.44835 0.46523 0.0
H880 H 0.11883 0.41236 0.42513 0.0
H881 H 0.1312 0.41253 0.37916 0.0
C882 C 0.61366 0.05575 0.90072 0.0
C883 C 0.59158 0.06174 0.91661 0.0
C884 C 0.61974 0.11301 0.8838 0.0
C885 C 0.63902 0.10541 0.86375 0.0
N886 N 0.64903 0.06617 0.84754 0.0
N887 N 0.56918 0.09323 0.91603 0.0
C888 C 0.6345 0.07576 0.87057 0.0
C889 C 0.59315 0.08944 0.90568 0.0
N890 N 0.61541 0.03158 0.91501 0.0
N891 N 0.62774 0.143 0.88378 0.0
H892 H 0.54887 0.076 0.93125 0.0
H893 H 0.56797 0.11197 0.90605 0.0
H894 H 0.64839 0.1615 0.87042 0.0
H895 H 0.61589 0.14992 0.90073 0.0
H896 H 0.63325 0.02811 0.90682 0.0
H897 H 0.6007 0.0166 0.93732 0.0
H898 H 0.64414 0.04367 0.84939 0.0
H899 H 0.66338 0.07958 0.82417 0.0
C900 C 0.53293 0.59497 0.38993 0.0
C901 C 0.54644 0.59951 0.42598 0.0
C902 C 0.57014 0.65539 0.41649 0.0
C903 C 0.55822 0.65104 0.37955 0.0
N904 N 0.5363 0.61784 0.32753 0.0
N905 N 0.58501 0.63444 0.46899 0.0
C906 C 0.54212 0.62114 0.36511 0.0
C907 C 0.5675 0.62992 0.43769 0.0
N908 N 0.51052 0.56581 0.37981 0.0
N909 N 0.58232 0.68323 0.43224 0.0
H910 H 0.58361 0.61619 0.48512 0.0
H911 H 0.60294 0.65634 0.4768 0.0
H912 H 0.58369 0.70225 0.41827 0.0
H913 H 0.58825 0.68654 0.46044 0.0
H914 H 0.49794 0.56151 0.35514 0.0
H915 H 0.50245 0.54602 0.39751 0.0
H916 H 0.52739 0.59694 0.31484 0.0
H917 H 0.54356 0.63666 0.30832 0.0
C918 C 0.50255 0.12768 0.58227 0.0
C919 C 0.49115 0.09649 0.59433 0.0
C920 C 0.46944 0.10337 0.65227 0.0
C921 C 0.47423 0.13138 0.63596 0.0
N922 N 0.49598 0.17084 0.5849 0.0
N923 N 0.48832 0.06899 0.65259 0.0
C924 C 0.49082 0.14366 0.60069 0.0
C925 C 0.48141 0.08801 0.63293 0.0
N926 N 0.52894 0.14402 0.559 0.0
N927 N 0.453 0.09104 0.68589 0.0
H928 H 0.50223 0.06181 0.64063 0.0
H929 H 0.4844 0.06422 0.68161 0.0
H930 H 0.4438 0.10158 0.701 0.0
H931 H 0.44627 0.06908 0.69699 0.0
H932 H 0.53995 0.16762 0.5518 0.0
H933 H 0.54282 0.13523 0.5525 0.0
H934 H 0.50504 0.17886 0.55742 0.0
H935 H 0.48924 0.18419 0.5982 0.0
C936 C 0.40468 0.47747 0.10712 0.0
C937 C 0.40087 0.46705 0.07008 0.0
C938 C 0.34403 0.44779 0.07474 0.0
C939 C 0.3473 0.45575 0.11292 0.0
N940 N 0.37935 0.47063 0.1681 0.0
N941 N 0.36544 0.43516 0.02256 0.0
C942 C 0.37726 0.46839 0.12994 0.0
C943 C 0.37003 0.44988 0.05515 0.0
N944 N 0.43447 0.49663 0.12029 0.0
N945 N 0.31674 0.43968 0.05652 0.0
H946 H 0.38391 0.43596 0.00765 0.0
H947 H 0.34294 0.41988 0.01236 0.0
H948 H 0.29756 0.43899 0.06932 0.0
H949 H 0.31444 0.43668 0.02767 0.0
H950 H 0.43856 0.50718 0.14577 0.0
H951 H 0.4552 0.50416 0.10434 0.0
H952 H 0.39999 0.4768 0.1824 0.0
H953 H 0.3596 0.46312 0.18598 0.0
C954 C 0.91183 0.41432 0.6071 0.0
C955 C 0.92202 0.40687 0.57436 0.0
C956 C 0.88585 0.35155 0.59166 0.0
C957 C 0.87792 0.35899 0.62615 0.0
N958 N 0.88776 0.39743 0.66999 0.0
N959 N 0.92443 0.36874 0.54004 0.0
C960 C 0.89208 0.39042 0.6348 0.0
C961 C 0.9107 0.37556 0.56793 0.0
N962 N 0.92078 0.44423 0.61148 0.0
N963 N 0.86894 0.3217 0.58089 0.0
H964 H 0.94299 0.3857 0.5223 0.0
H965 H 0.91939 0.34649 0.53676 0.0
H966 H 0.85008 0.30348 0.5971 0.0
H967 H 0.87159 0.31558 0.55429 0.0
H968 H 0.91151 0.4507 0.63271 0.0
H969 H 0.93553 0.4623 0.5919 0.0
H970 H 0.90015 0.41985 0.67923 0.0
H971 H 0.87391 0.38055 0.69126 0.0
C972 C 0.57163 0.92768 0.1056 0.0
C973 C 0.54329 0.92715 0.11188 0.0
C974 C 0.52865 0.89029 0.1662 0.0
C975 C 0.55504 0.88813 0.1573 0.0
N976 N 0.60003 0.90197 0.11657 0.0
N977 N 0.49244 0.90497 0.14442 0.0
C978 C 0.57624 0.9062 0.12655 0.0
C979 C 0.52116 0.90772 0.14128 0.0
N980 N 0.59434 0.9491 0.08009 0.0
N981 N 0.51113 0.87615 0.19888 0.0
H982 H 0.48601 0.91723 0.1265 0.0
H983 H 0.47392 0.88866 0.16264 0.0
H984 H 0.51595 0.86316 0.21785 0.0
H985 H 0.4937 0.87955 0.20888 0.0
H986 H 0.61693 0.95288 0.077 0.0
H987 H 0.5915 0.96491 0.06393 0.0
H988 H 0.61401 0.91182 0.09194 0.0
H989 H 0.60441 0.88678 0.13163 0.0
C990 C 0.59706 0.50652 0.64887 0.0
C991 C 0.60739 0.52651 0.61572 0.0
C992 C 0.66302 0.54972 0.6328 0.0
C993 C 0.65262 0.53112 0.66708 0.0
N994 N 0.60994 0.49647 0.71142 0.0
N995 N 0.64932 0.57143 0.57992 0.0
C996 C 0.61965 0.5109 0.67624 0.0
C997 C 0.64015 0.54946 0.60886 0.0
N998 N 0.56593 0.48256 0.65352 0.0
N999 N 0.69464 0.56661 0.62232 0.0
H1000 H 0.63316 0.57205 0.56194 0.0
H1001 H 0.67248 0.59066 0.57588 0.0
H1002 H 0.71219 0.56735 0.63893 0.0
H1003 H 0.70321 0.57782 0.59578 0.0
H1004 H 0.5578 0.46507 0.67483 0.0
H1005 H 0.54853 0.47868 0.63437 0.0
H1006 H 0.58628 0.48401 0.72111 0.0
H1007 H 0.62586 0.49926 0.73222 0.0
C1008 C 0.11886 0.64414 0.08986 0.0
C1009 C 0.08626 0.62205 0.09935 0.0
C1010 C 0.09128 0.64684 0.1586 0.0
C1011 C 0.12375 0.66926 0.1488 0.0
N1012 N 0.16775 0.69225 0.10352 0.0
N1013 N 0.03991 0.60425 0.13945 0.0
C1014 C 0.13729 0.66884 0.11385 0.0
C1015 C 0.07199 0.62405 0.13273 0.0
N1016 N 0.13238 0.64085 0.05844 0.0
N1017 N 0.07919 0.64693 0.19312 0.0
H1018 H 0.02527 0.58674 0.12169 0.0
H1019 H 0.02723 0.60628 0.16109 0.0
H1020 H 0.09219 0.66403 0.21204 0.0
H1021 H 0.05696 0.6293 0.20409 0.0
H1022 H 0.15675 0.65359 0.05219 0.0
H1023 H 0.11929 0.62406 0.0392 0.0
H1024 H 0.17795 0.69543 0.07681 0.0
H1025 H 0.18251 0.7099 0.12104 0.0
loop_
_geom_bond_atom_site_label_1
_geom_bond_atom_site_label_2
_geom_bond_distance
_geom_bond_site_symmetry_2
_ccdc_geom_bond_type
C0 C1 1.443 . S
C0 N4 1.376 1_556 S
C0 C38 1.389 . S
C1 C0 1.443 . S
C1 C2 1.340 1_556 S
C1 H41 0.951 . S
C2 C1 1.340 1_554 S
C2 C3 1.439 . S
C2 H42 0.950 . S
C3 C2 1.439 . S
C3 N4 1.374 . S
C3 C37 1.395 . S
N4 C0 1.376 1_554 S
N4 C3 1.374 . S
N4 Co5 1.970 1_655 S
Co5 N4 1.970 1_455 S
Co5 N6 2.022 1_455 S
Co5 N11 2.046 1_554 S
Co5 N16 1.968 1_554 S
Co5 N21 2.300 . S
Co5 N27 2.265 1_454 S
N6 Co5 2.022 1_655 S
N6 C7 1.376 . S
N6 C10 1.383 1_655 S
C7 N6 1.376 . S
C7 C8 1.446 . S
C7 C37 1.391 . S
C8 C7 1.446 . S
C8 C9 1.339 1_655 S
C8 H43 0.949 . S
C9 C8 1.339 1_455 S
C9 C10 1.439 . S
C9 H44 0.950 . S
C10 N6 1.383 1_455 S
C10 C9 1.439 . S
C10 C39 1.392 . S
N11 Co5 2.046 1_556 S
N11 C12 1.376 1_556 S
N11 C15 1.374 . S
C12 N11 1.376 1_554 S
C12 C13 1.443 . S
C12 C39 1.389 . S
C13 C12 1.443 . S
C13 C14 1.340 1_554 S
C13 H45 0.951 . S
C14 C13 1.340 1_556 S
C14 C15 1.439 . S
C14 H46 0.950 . S
C15 N11 1.374 . S
C15 C14 1.439 . S
C15 C40 1.395 . S
N16 Co5 1.968 1_556 S
N16 C17 1.376 . S
N16 C20 1.383 1_455 S
C17 N16 1.376 . S
C17 C18 1.446 . S
C17 C40 1.391 . S
C18 C17 1.446 . S
C18 C19 1.339 1_455 S
C18 H47 0.949 . S
C19 C18 1.339 1_655 S
C19 C20 1.439 . S
C19 H48 0.950 . S
C20 N16 1.383 1_655 S
C20 C19 1.439 . S
C20 C38 1.392 . S
N21 Co5 2.300 . S
N21 C24 1.332 . S
N21 C26 1.332 . S
C22 C23 1.386 . S
C22 C25 1.388 . S
C23 C22 1.386 . S
C23 C24 1.382 . S
C23 H49 0.950 . S
C24 N21 1.332 . S
C24 C23 1.382 . S
C24 H35 0.952 1_554 S
C25 C22 1.388 . S
C25 C26 1.382 . S
C25 H50 0.950 . S
C26 N21 1.332 . S
C26 C25 1.382 . S
C26 H36 0.948 . S
N27 Co5 2.265 1_656 S
N27 C31 1.332 . S
N27 C32 1.332 . S
C28 C29 1.388 . S
C28 C32 1.382 . S
C28 H51 0.950 . S
C29 C28 1.388 . S
C29 C30 1.386 . S
C30 C29 1.386 . S
C30 C31 1.382 . S
C30 H52 0.950 . S
C31 N27 1.332 . S
C31 C30 1.382 . S
C31 H33 0.952 1_556 S
C32 N27 1.332 . S
C32 C28 1.382 . S
C32 H34 0.948 . S
H33 C31 0.952 1_554 S
H34 C32 0.948 . S
H35 C24 0.952 1_556 S
H36 C26 0.948 . S
C37 C3 1.395 . S
C37 C7 1.391 . S
C38 C0 1.389 . S
C38 C20 1.392 . S
C39 C10 1.392 . S
C39 C12 1.389 . S
C40 C15 1.395 . S
C40 C17 1.391 . S
H41 C1 0.951 . S
H42 C2 0.950 . S
H43 C8 0.949 . S
H44 C9 0.950 . S
H45 C13 0.951 . S
H46 C14 0.950 . S
H47 C18 0.949 . S
H48 C19 0.950 . S
H49 C23 0.950 . S
H50 C25 0.950 . S
H51 C28 0.950 . S
H52 C30 0.950 . S
C53 C54 1.443 . S
C53 N57 1.376 1_545 S
C53 C91 1.389 . S
C54 C53 1.443 . S
C54 C55 1.340 1_545 S
C54 H94 0.951 . S
C55 C54 1.340 1_565 S
C55 C56 1.439 . S
C55 H95 0.950 . S
C56 C55 1.439 . S
C56 N57 1.374 . S
C56 C90 1.395 . S
N57 C53 1.376 1_565 S
N57 C56 1.374 . S
N57 Co58 2.001 1_565 S
Co58 N57 2.001 1_545 S
Co58 N59 1.980 1_545 S
Co58 N64 2.016 . S
Co58 N69 2.010 . S
Co58 N74 2.255 1_545 S
Co58 N80 2.310 . S
N59 Co58 1.980 1_565 S
N59 C60 1.376 . S
N59 C63 1.383 . S
C60 N59 1.376 . S
C60 C61 1.446 . S
C60 C90 1.391 . S
C61 C60 1.446 . S
C61 C62 1.339 . S
C61 H96 0.949 . S
C62 C61 1.339 . S
C62 C63 1.439 . S
C62 H97 0.950 . S
C63 N59 1.383 . S
C63 C62 1.439 . S
C63 C92 1.392 . S
N64 Co58 2.016 . S
N64 C65 1.376 1_545 S
N64 C68 1.374 . S
C65 N64 1.376 1_565 S
C65 C66 1.443 . S
C65 C92 1.389 . S
C66 C65 1.443 . S
C66 C67 1.340 1_565 S
C66 H98 0.951 . S
C67 C66 1.340 1_545 S
C67 C68 1.439 . S
C67 H99 0.950 . S
C68 N64 1.374 . S
C68 C67 1.439 . S
C68 C93 1.395 . S
N69 Co58 2.010 . S
N69 C70 1.376 . S
N69 C73 1.383 . S
C70 N69 1.376 . S
C70 C71 1.446 . S
C70 C93 1.391 . S
C71 C70 1.446 . S
C71 C72 1.339 . S
C71 H100 0.949 . S
C72 C71 1.339 . S
C72 C73 1.439 . S
C72 H101 0.950 . S
C73 N69 1.383 . S
C73 C72 1.439 . S
C73 C91 1.392 . S
N74 Co58 2.255 1_565 S
N74 C77 1.332 . S
N74 C79 1.332 . S
C75 C76 1.386 . S
C75 C78 1.388 . S
C76 C75 1.386 . S
C76 C77 1.382 . S
C76 H102 0.950 . S
C77 N74 1.332 . S
C77 C76 1.382 . S
C77 H88 0.952 1_565 S
C78 C75 1.388 . S
C78 C79 1.382 . S
C78 H103 0.950 . S
C79 N74 1.332 . S
C79 C78 1.382 . S
C79 H89 0.948 . S
N80 Co58 2.310 . S
N80 C84 1.332 . S
N80 C85 1.332 . S
C81 C82 1.388 . S
C81 C85 1.382 . S
C81 H104 0.950 . S
C82 C81 1.388 . S
C82 C83 1.386 . S
C83 C82 1.386 . S
C83 C84 1.382 . S
C83 H105 0.950 . S
C84 N80 1.332 . S
C84 C83 1.382 . S
C84 H86 0.952 1_545 S
C85 N80 1.332 . S
C85 C81 1.382 . S
C85 H87 0.948 . S
H86 C84 0.952 1_565 S
H87 C85 0.948 . S
H88 C77 0.952 1_545 S
H89 C79 0.948 . S
C90 C56 1.395 . S
C90 C60 1.391 . S
C91 C53 1.389 . S
C91 C73 1.392 . S
C92 C63 1.392 . S
C92 C65 1.389 . S
C93 C68 1.395 . S
C93 C70 1.391 . S
H94 C54 0.951 . S
H95 C55 0.950 . S
H96 C61 0.949 . S
H97 C62 0.950 . S
H98 C66 0.951 . S
H99 C67 0.950 . S
H100 C71 0.949 . S
H101 C72 0.950 . S
H102 C76 0.950 . S
H103 C78 0.950 . S
H104 C81 0.950 . S
H105 C83 0.950 . S
C106 C107 1.443 . S
C106 N110 1.376 . S
C106 C144 1.389 . S
C107 C106 1.443 . S
C107 C108 1.340 . S
C107 H147 0.951 . S
C108 C107 1.340 . S
C108 C109 1.439 . S
C108 H148 0.950 . S
C109 C108 1.439 . S
C109 N110 1.374 . S
C109 C143 1.395 . S
N110 C106 1.376 . S
N110 C109 1.374 . S
N110 Co111 1.988 1_556 S
Co111 N110 1.988 1_554 S
Co111 N112 1.990 1_554 S
Co111 N117 2.029 . S
Co111 N122 2.000 . S
Co111 N127 2.295 . S
Co111 N133 2.270 1_554 S
N112 Co111 1.990 1_556 S
N112 C113 1.376 . S
N112 C116 1.383 1_556 S
C113 N112 1.376 . S
C113 C114 1.446 . S
C113 C143 1.391 . S
C114 C113 1.446 . S
C114 C115 1.339 . S
C114 H149 0.949 . S
C115 C114 1.339 . S
C115 C116 1.439 1_556 S
C115 H150 0.950 1_556 S
C116 N112 1.383 1_554 S
C116 C115 1.439 1_554 S
C116 C145 1.392 . S
N117 Co111 2.029 . S
N117 C118 1.376 . S
N117 C121 1.374 . S
C118 N117 1.376 . S
C118 C119 1.443 . S
C118 C145 1.389 . S
C119 C118 1.443 . S
C119 C120 1.340 . S
C119 H151 0.951 . S
C120 C119 1.340 . S
C120 C121 1.439 . S
C120 H152 0.950 . S
C121 N117 1.374 . S
C121 C120 1.439 . S
C121 C146 1.395 . S
N122 Co111 2.000 . S
N122 C123 1.376 . S
N122 C126 1.383 1_554 S
C123 N122 1.376 . S
C123 C124 1.446 . S
C123 C146 1.391 . S
C124 C123 1.446 . S
C124 C125 1.339 . S
C124 H153 0.949 . S
C125 C124 1.339 . S
C125 C126 1.439 1_554 S
C125 H154 0.950 1_554 S
C126 N122 1.383 1_556 S
C126 C125 1.439 1_556 S
C126 C144 1.392 . S
N127 Co111 2.295 . S
N127 C130 1.332 . S
N127 C132 1.332 . S
C128 C129 1.386 . S
C128 C131 1.388 . S
C129 C128 1.386 . S
C129 C130 1.382 . S
C129 H155 0.950 . S
C130 N127 1.332 . S
C130 C129 1.382 . S
C130 H141 0.952 . S
C131 C128 1.388 . S
C131 C132 1.382 . S
C131 H156 0.950 . S
C132 N127 1.332 . S
C132 C131 1.382 . S
C132 H142 0.948 . S
N133 Co111 2.270 1_556 S
N133 C137 1.332 . S
N133 C138 1.332 . S
C134 C135 1.388 . S
C134 C138 1.382 . S
C134 H157 0.950 . S
C135 C134 1.388 . S
C135 C136 1.386 . S
C136 C135 1.386 . S
C136 C137 1.382 . S
C136 H158 0.950 . S
C137 N133 1.332 . S
C137 C136 1.382 . S
C137 H139 0.952 . S
C138 N133 1.332 . S
C138 C134 1.382 . S
C138 H140 0.971 . S
H139 C137 0.952 . S
H140 C138 0.971 . S
H141 C130 0.952 . S
H142 C132 0.948 . S
C143 C109 1.395 . S
C143 C113 1.391 . S
C144 C106 1.389 . S
C144 C126 1.392 . S
C145 C116 1.392 . S
C145 C118 1.389 . S
C146 C121 1.395 . S
C146 C123 1.391 . S
H147 C107 0.951 . S
H148 C108 0.950 . S
H149 C114 0.949 . S
H150 C115 0.950 1_554 S
H151 C119 0.951 . S
H152 C120 0.950 . S
H153 C124 0.949 . S
H154 C125 0.950 1_556 S
H155 C129 0.950 . S
H156 C131 0.950 . S
H157 C134 0.950 . S
H158 C136 0.950 . S
C159 C160 1.443 . S
C159 N163 1.376 . S
C159 C197 1.389 . S
C160 C159 1.443 . S
C160 C161 1.340 . S
C160 H200 0.951 . S
C161 C160 1.340 . S
C161 C162 1.439 . S
C161 H201 0.950 . S
C162 C161 1.439 . S
C162 N163 1.374 . S
C162 C196 1.395 . S
N163 C159 1.376 . S
N163 C162 1.374 . S
N163 Co164 1.982 1_655 S
Co164 N163 1.982 1_455 S
Co164 N165 1.978 1_455 S
Co164 N170 2.034 . S
Co164 N175 2.012 . S
Co164 N180 2.314 . S
Co164 N186 2.251 1_455 S
N165 Co164 1.978 1_655 S
N165 C166 1.376 . S
N165 C169 1.383 1_655 S
C166 N165 1.376 . S
C166 C167 1.446 . S
C166 C196 1.391 . S
C167 C166 1.446 . S
C167 C168 1.339 1_655 S
C167 H202 0.949 . S
C168 C167 1.339 1_455 S
C168 C169 1.439 . S
C168 H203 0.950 . S
C169 N165 1.383 1_455 S
C169 C168 1.439 . S
C169 C198 1.392 . S
N170 Co164 2.034 . S
N170 C171 1.376 . S
N170 C174 1.374 . S
C171 N170 1.376 . S
C171 C172 1.443 . S
C171 C198 1.389 . S
C172 C171 1.443 . S
C172 C173 1.340 . S
C172 H204 0.951 . S
C173 C172 1.340 . S
C173 C174 1.439 . S
C173 H205 0.950 . S
C174 N170 1.374 . S
C174 C173 1.439 . S
C174 C199 1.395 . S
N175 Co164 2.012 . S
N175 C176 1.376 . S
N175 C179 1.383 1_455 S
C176 N175 1.376 . S
C176 C177 1.446 . S
C176 C199 1.391 . S
C177 C176 1.446 . S
C177 C178 1.339 1_455 S
C177 H206 0.949 . S
C178 C177 1.339 1_655 S
C178 C179 1.439 . S
C178 H207 0.950 . S
C179 N175 1.383 1_655 S
C179 C178 1.439 . S
C179 C197 1.392 . S
N180 Co164 2.314 . S
N180 C183 1.332 . S
N180 C185 1.332 . S
C181 C182 1.386 . S
C181 C184 1.388 . S
C182 C181 1.386 . S
C182 C183 1.382 . S
C182 H208 0.950 . S
C183 N180 1.332 . S
C183 C182 1.382 . S
C183 H194 0.952 . S
C184 C181 1.388 . S
C184 C185 1.382 . S
C184 H209 0.950 . S
C185 N180 1.332 . S
C185 C184 1.382 . S
C185 H195 0.948 . S
N186 Co164 2.251 1_655 S
N186 C190 1.332 . S
N186 C191 1.332 . S
C187 C188 1.388 . S
C187 C191 1.382 . S
C187 H210 0.950 . S
C188 C187 1.388 . S
C188 C189 1.386 . S
C189 C188 1.386 . S
C189 C190 1.382 . S
C189 H211 0.950 . S
C190 N186 1.332 . S
C190 C189 1.382 . S
C190 H192 0.952 . S
C191 N186 1.332 . S
C191 C187 1.382 . S
C191 H193 0.948 . S
H192 C190 0.952 . S
H193 C191 0.948 . S
H194 C183 0.952 . S
H195 C185 0.948 . S
C196 C162 1.395 . S
C196 C166 1.391 . S
C197 C159 1.389 . S
C197 C179 1.392 . S
C198 C169 1.392 . S
C198 C171 1.389 . S
C199 C174 1.395 . S
C199 C176 1.391 . S
H200 C160 0.951 . S
H201 C161 0.950 . S
H202 C167 0.949 . S
H203 C168 0.950 . S
H204 C172 0.951 . S
H205 C173 0.950 . S
H206 C177 0.949 . S
H207 C178 0.950 . S
H208 C182 0.950 . S
H209 C184 0.950 . S
H210 C187 0.950 . S
H211 C189 0.950 . S
C212 C213 1.443 . S
C212 N216 1.376 1_565 S
C212 C250 1.389 . S
C213 C212 1.443 . S
C213 C214 1.340 1_565 S
C213 H253 0.951 . S
C214 C213 1.340 1_545 S
C214 C215 1.439 . S
C214 H254 0.950 . S
C215 C214 1.439 . S
C215 N216 1.374 . S
C215 C249 1.395 . S
N216 C212 1.376 1_545 S
N216 C215 1.374 . S
N216 Co217 2.041 . S
Co217 N216 2.041 . S
Co217 N218 2.014 . S
Co217 N223 1.976 1_544 S
Co217 N228 1.976 1_544 S
Co217 N233 2.298 1_554 S
Co217 N239 2.267 1_545 S
N218 Co217 2.014 . S
N218 C219 1.376 . S
N218 C222 1.383 1_554 S
C219 N218 1.376 . S
C219 C220 1.446 . S
C219 C249 1.391 . S
C220 C219 1.446 . S
C220 C221 1.339 1_554 S
C220 H255 0.949 . S
C221 C220 1.339 1_556 S
C221 C222 1.439 . S
C221 H256 0.950 . S
C222 N218 1.383 1_556 S
C222 C221 1.439 . S
C222 C251 1.392 . S
N223 Co217 1.976 1_566 S
N223 C224 1.376 1_565 S
N223 C227 1.374 . S
C224 N223 1.376 1_545 S
C224 C225 1.443 . S
C224 C251 1.389 . S
C225 C224 1.443 . S
C225 C226 1.340 1_545 S
C225 H257 0.951 . S
C226 C225 1.340 1_565 S
C226 C227 1.439 . S
C226 H258 0.950 . S
C227 N223 1.374 . S
C227 C226 1.439 . S
C227 C252 1.395 . S
N228 Co217 1.976 1_566 S
N228 C229 1.376 . S
N228 C232 1.383 1_556 S
C229 N228 1.376 . S
C229 C230 1.446 . S
C229 C252 1.391 . S
C230 C229 1.446 . S
C230 C231 1.339 1_556 S
C230 H259 0.949 . S
C231 C230 1.339 1_554 S
C231 C232 1.439 . S
C231 H260 0.950 . S
C232 N228 1.383 1_554 S
C232 C231 1.439 . S
C232 C250 1.392 . S
N233 Co217 2.298 1_556 S
N233 C236 1.332 . S
N233 C238 1.332 . S
C234 C235 1.386 . S
C234 C237 1.388 . S
C235 C234 1.386 . S
C235 C236 1.382 . S
C235 H261 0.950 . S
C236 N233 1.332 . S
C236 C235 1.382 . S
C236 H247 0.952 1_545 S
C237 C234 1.388 . S
C237 C238 1.382 . S
C237 H262 0.950 . S
C238 N233 1.332 . S
C238 C237 1.382 . S
C238 H248 0.948 . S
N239 Co217 2.267 1_565 S
N239 C243 1.332 . S
N239 C244 1.332 . S
C240 C241 1.388 . S
C240 C244 1.382 . S
C240 H263 0.950 . S
C241 C240 1.388 . S
C241 C242 1.386 . S
C242 C241 1.386 . S
C242 C243 1.382 . S
C242 H264 0.950 . S
C243 N239 1.332 . S
C243 C242 1.382 . S
C243 H245 0.952 1_565 S
C244 N239 1.332 . S
C244 C240 1.382 . S
C244 H246 0.948 . S
H245 C243 0.952 1_545 S
H246 C244 0.948 . S
H247 C236 0.952 1_565 S
H248 C238 0.948 . S
C249 C215 1.395 . S
C249 C219 1.391 . S
C250 C212 1.389 . S
C250 C232 1.392 . S
C251 C222 1.392 . S
C251 C224 1.389 . S
C252 C227 1.395 . S
C252 C229 1.391 . S
H253 C213 0.951 . S
H254 C214 0.950 . S
H255 C220 0.949 . S
H256 C221 0.950 . S
H257 C225 0.951 . S
H258 C226 0.950 . S
H259 C230 0.949 . S
H260 C231 0.950 . S
H261 C235 0.950 . S
H262 C237 0.950 . S
H263 C240 0.950 . S
H264 C242 0.950 . S
C265 C266 1.443 . S
C265 N269 1.376 . S
C265 C303 1.389 . S
C266 C265 1.443 . S
C266 C267 1.340 . S
C266 H306 0.951 . S
C267 C266 1.340 . S
C267 C268 1.439 . S
C267 H307 0.950 . S
C268 C267 1.439 . S
C268 N269 1.374 . S
C268 C302 1.395 . S
N269 C265 1.376 . S
N269 C268 1.374 . S
N269 Co270 2.008 . S
Co270 N269 2.008 . S
Co270 N271 1.995 . S
Co270 N276 2.008 . S
Co270 N281 1.995 . S
Co270 N286 2.282 . S
Co270 N292 2.282 . S
N271 Co270 1.995 . S
N271 C272 1.376 . S
N271 C275 1.383 . S
C272 N271 1.376 . S
C272 C273 1.446 . S
C272 C302 1.391 . S
C273 C272 1.446 . S
C273 C274 1.339 . S
C273 H308 0.949 . S
C274 C273 1.339 . S
C274 C275 1.439 . S
C274 H309 0.950 . S
C275 N271 1.383 . S
C275 C274 1.439 . S
C275 C304 1.392 . S
N276 Co270 2.008 . S
N276 C277 1.376 . S
N276 C280 1.374 . S
C277 N276 1.376 . S
C277 C278 1.443 . S
C277 C304 1.389 . S
C278 C277 1.443 . S
C278 C279 1.340 . S
C278 H310 0.951 . S
C279 C278 1.340 . S
C279 C280 1.439 . S
C279 H311 0.950 . S
C280 N276 1.374 . S
C280 C279 1.439 . S
C280 C305 1.395 . S
N281 Co270 1.995 . S
N281 C282 1.376 . S
N281 C285 1.383 . S
C282 N281 1.376 . S
C282 C283 1.446 . S
C282 C305 1.391 . S
C283 C282 1.446 . S
C283 C284 1.339 . S
C283 H312 0.949 . S
C284 C283 1.339 . S
C284 C285 1.439 . S
C284 H313 0.950 . S
C285 N281 1.383 . S
C285 C284 1.439 . S
C285 C303 1.392 . S
N286 Co270 2.282 . S
N286 C289 1.332 . S
N286 C291 1.332 . S
C287 C288 1.386 . S
C287 C290 1.388 . S
C288 C287 1.386 . S
C288 C289 1.382 . S
C288 H314 0.950 . S
C289 N286 1.332 . S
C289 C288 1.382 . S
C289 H300 0.952 . S
C290 C287 1.388 . S
C290 C291 1.382 . S
C290 H315 0.950 . S
C291 N286 1.332 . S
C291 C290 1.382 . S
C291 H301 0.948 . S
N292 Co270 2.282 . S
N292 C296 1.332 . S
N292 C297 1.332 . S
C293 C294 1.388 . S
C293 C297 1.382 . S
C293 H316 0.950 . S
C294 C293 1.388 . S
C294 C295 1.386 . S
C295 C294 1.386 . S
C295 C296 1.382 . S
C295 H317 0.950 . S
C296 N292 1.332 . S
C296 C295 1.382 . S
C296 H298 0.952 . S
C297 N292 1.332 . S
C297 C293 1.382 . S
C297 H299 0.948 . S
H298 C296 0.952 . S
H299 C297 0.948 . S
H300 C289 0.952 . S
H301 C291 0.948 . S
C302 C268 1.395 . S
C302 C272 1.391 . S
C303 C265 1.389 . S
C303 C285 1.392 . S
C304 C275 1.392 . S
C304 C277 1.389 . S
C305 C280 1.395 . S
C305 C282 1.391 . S
H306 C266 0.951 . S
H307 C267 0.950 . S
H308 C273 0.949 . S
H309 C274 0.950 . S
H310 C278 0.951 . S
H311 C279 0.950 . S
H312 C283 0.949 . S
H313 C284 0.950 . S
H314 C288 0.950 . S
H315 C290 0.950 . S
H316 C293 0.950 . S
H317 C295 0.950 . S
C318 C319 1.384 . S
C318 C320 1.384 . S
C318 H346 0.931 . S
C319 C318 1.384 . S
C319 C322 1.382 . S
C320 C318 1.384 . S
C320 C321 1.381 . S
C320 H347 0.930 . S
C321 C320 1.381 . S
C321 C323 1.381 . S
C321 C324 1.487 . S
C322 C319 1.382 . S
C322 C323 1.387 . S
C322 H348 0.930 . S
C323 C321 1.381 . S
C323 C322 1.387 . S
C323 H349 0.931 . S
C324 C321 1.487 . S
C324 C331 1.399 . S
C324 N362 1.343 . S
C325 C326 1.384 . S
C325 C327 1.384 . S
C325 H350 0.931 . S
C326 C325 1.384 . S
C326 C329 1.382 . S
C327 C325 1.384 . S
C327 C328 1.381 . S
C327 H351 0.930 . S
C328 C327 1.381 . S
C328 C330 1.381 . S
C328 C331 1.487 . S
C329 C326 1.382 . S
C329 C330 1.387 . S
C329 H352 0.930 . S
C330 C328 1.381 . S
C330 C329 1.387 . S
C330 H353 0.931 . S
C331 C324 1.399 . S
C331 C328 1.487 . S
C331 N363 1.343 . S
C332 C333 1.384 . S
C332 C334 1.384 . S
C332 H354 0.931 . S
C333 C332 1.384 . S
C333 C336 1.382 . S
C334 C332 1.384 . S
C334 C335 1.381 . S
C334 H355 0.930 . S
C335 C334 1.381 . S
C335 C337 1.381 . S
C335 C338 1.487 . S
C336 C333 1.382 . S
C336 C337 1.387 . S
C336 H356 0.930 . S
C337 C335 1.381 . S
C337 C336 1.387 . S
C337 H357 0.931 . S
C338 C335 1.487 . S
C338 C345 1.399 . S
C338 N363 1.343 . S
C339 C340 1.384 . S
C339 C341 1.384 . S
C339 H358 0.931 . S
C340 C339 1.384 . S
C340 C343 1.382 . S
C341 C339 1.384 . S
C341 C342 1.381 . S
C341 H359 0.930 . S
C342 C341 1.381 . S
C342 C344 1.381 . S
C342 C345 1.487 . S
C343 C340 1.382 . S
C343 C344 1.387 . S
C343 H360 0.930 . S
C344 C342 1.381 . S
C344 C343 1.387 . S
C344 H361 0.931 . S
C345 C338 1.399 . S
C345 C342 1.487 . S
C345 N362 1.343 . S
H346 C318 0.931 . S
H347 C320 0.930 . S
H348 C322 0.930 . S
H349 C323 0.931 . S
H350 C325 0.931 . S
H351 C327 0.930 . S
H352 C329 0.930 . S
H353 C330 0.931 . S
H354 C332 0.931 . S
H355 C334 0.930 . S
H356 C336 0.930 . S
H357 C337 0.931 . S
H358 C339 0.931 . S
H359 C341 0.930 . S
H360 C343 0.930 . S
H361 C344 0.931 . S
N362 C324 1.343 . S
N362 C345 1.343 . S
N363 C331 1.343 . S
N363 C338 1.343 . S
C364 C365 1.384 . S
C364 C366 1.384 . S
C364 H392 0.931 . S
C365 C364 1.384 . S
C365 C368 1.382 . S
C366 C364 1.384 . S
C366 C367 1.381 . S
C366 H393 0.930 . S
C367 C366 1.381 . S
C367 C369 1.381 . S
C367 C370 1.487 . S
C368 C365 1.382 . S
C368 C369 1.387 . S
C368 H394 0.930 . S
C369 C367 1.381 . S
C369 C368 1.387 . S
C369 H395 0.931 . S
C370 C367 1.487 . S
C370 C377 1.399 . S
C370 N408 1.343 . S
C371 C372 1.384 . S
C371 C373 1.384 . S
C371 H396 0.931 . S
C372 C371 1.384 . S
C372 C375 1.382 . S
C373 C371 1.384 . S
C373 C374 1.381 . S
C373 H397 0.930 . S
C374 C373 1.381 . S
C374 C376 1.381 . S
C374 C377 1.487 . S
C375 C372 1.382 . S
C375 C376 1.387 . S
C375 H398 0.930 . S
C376 C374 1.381 . S
C376 C375 1.387 . S
C376 H399 0.931 . S
C377 C370 1.399 . S
C377 C374 1.487 . S
C377 N409 1.343 . S
C378 C379 1.384 . S
C378 C380 1.384 . S
C378 H400 0.931 . S
C379 C378 1.384 . S
C379 C382 1.382 . S
C380 C378 1.384 . S
C380 C381 1.381 . S
C380 H401 0.930 . S
C381 C380 1.381 . S
C381 C383 1.381 . S
C381 C384 1.487 . S
C382 C379 1.382 . S
C382 C383 1.387 . S
C382 H402 0.930 . S
C383 C381 1.381 . S
C383 C382 1.387 . S
C383 H403 0.931 . S
C384 C381 1.487 . S
C384 C391 1.399 . S
C384 N409 1.343 . S
C385 C386 1.384 . S
C385 C387 1.384 . S
C385 H404 0.931 . S
C386 C385 1.384 . S
C386 C389 1.382 . S
C387 C385 1.384 . S
C387 C388 1.381 . S
C387 H405 0.930 . S
C388 C387 1.381 . S
C388 C390 1.381 . S
C388 C391 1.487 . S
C389 C386 1.382 . S
C389 C390 1.387 . S
C389 H406 0.930 . S
C390 C388 1.381 . S
C390 C389 1.387 . S
C390 H407 0.931 . S
C391 C384 1.399 . S
C391 C388 1.487 . S
C391 N408 1.343 . S
H392 C364 0.931 . S
H393 C366 0.930 . S
H394 C368 0.930 . S
H395 C369 0.931 . S
H396 C371 0.931 . S
H397 C373 0.930 . S
H398 C375 0.930 . S
H399 C376 0.931 . S
H400 C378 0.931 . S
H401 C380 0.930 . S
H402 C382 0.930 . S
H403 C383 0.931 . S
H404 C385 0.931 . S
H405 C387 0.930 . S
H406 C389 0.930 . S
H407 C390 0.931 . S
N408 C370 1.343 . S
N408 C391 1.343 . S
N409 C377 1.343 . S
N409 C384 1.343 . S
C410 C411 1.384 . S
C410 C412 1.384 . S
C410 H438 0.931 . S
C411 C410 1.384 . S
C411 C414 1.382 . S
C412 C410 1.384 . S
C412 C413 1.381 . S
C412 H439 0.930 . S
C413 C412 1.381 . S
C413 C415 1.381 . S
C413 C416 1.487 . S
C414 C411 1.382 . S
C414 C415 1.387 . S
C414 H440 0.930 . S
C415 C413 1.381 . S
C415 C414 1.387 . S
C415 H441 0.931 . S
C416 C413 1.487 . S
C416 C423 1.399 . S
C416 N454 1.343 . S
C417 C418 1.384 . S
C417 C419 1.384 . S
C417 H442 0.931 . S
C418 C417 1.384 . S
C418 C421 1.382 . S
C419 C417 1.384 . S
C419 C420 1.381 . S
C419 H443 0.930 . S
C420 C419 1.381 . S
C420 C422 1.381 . S
C420 C423 1.487 . S
C421 C418 1.382 . S
C421 C422 1.387 . S
C421 H444 0.930 . S
C422 C420 1.381 . S
C422 C421 1.387 . S
C422 H445 0.931 . S
C423 C416 1.399 . S
C423 C420 1.487 . S
C423 N455 1.343 . S
C424 C425 1.384 . S
C424 C426 1.384 . S
C424 H446 0.931 . S
C425 C424 1.384 . S
C425 C428 1.382 . S
C426 C424 1.384 . S
C426 C427 1.381 . S
C426 H447 0.930 . S
C427 C426 1.381 . S
C427 C429 1.381 . S
C427 C430 1.487 . S
C428 C425 1.382 . S
C428 C429 1.387 . S
C428 H448 0.930 . S
C429 C427 1.381 . S
C429 C428 1.387 . S
C429 H449 0.931 . S
C430 C427 1.487 . S
C430 C437 1.399 . S
C430 N455 1.343 . S
C431 C432 1.384 . S
C431 C433 1.384 . S
C431 H450 0.931 . S
C432 C431 1.384 . S
C432 C435 1.382 . S
C433 C431 1.384 . S
C433 C434 1.381 . S
C433 H451 0.930 . S
C434 C433 1.381 . S
C434 C436 1.381 . S
C434 C437 1.487 . S
C435 C432 1.382 . S
C435 C436 1.387 . S
C435 H452 0.930 . S
C436 C434 1.381 . S
C436 C435 1.387 . S
C436 H453 0.931 . S
C437 C430 1.399 . S
C437 C434 1.487 . S
C437 N454 1.343 . S
H438 C410 0.931 . S
H439 C412 0.930 . S
H440 C414 0.930 . S
H441 C415 0.931 . S
H442 C417 0.931 . S
H443 C419 0.930 . S
H444 C421 0.930 . S
H445 C422 0.931 . S
H446 C424 0.931 . S
H447 C426 0.930 . S
H448 C428 0.930 . S
H449 C429 0.931 . S
H450 C431 0.931 . S
H451 C433 0.930 . S
H452 C435 0.930 . S
H453 C436 0.931 . S
N454 C416 1.343 . S
N454 C437 1.343 . S
N455 C423 1.343 . S
N455 C430 1.343 . S
C456 C457 1.384 . S
C456 C458 1.384 . S
C456 H484 0.931 . S
C457 C456 1.384 . S
C457 C460 1.382 . S
C458 C456 1.384 . S
C458 C459 1.381 . S
C458 H485 0.930 . S
C459 C458 1.381 . S
C459 C461 1.381 . S
C459 C462 1.487 . S
C460 C457 1.382 . S
C460 C461 1.387 . S
C460 H486 0.930 . S
C461 C459 1.381 . S
C461 C460 1.387 . S
C461 H487 0.931 . S
C462 C459 1.487 . S
C462 C469 1.399 . S
C462 N500 1.343 . S
C463 C464 1.384 . S
C463 C465 1.384 . S
C463 H488 0.931 . S
C464 C463 1.384 . S
C464 C467 1.382 . S
C465 C463 1.384 . S
C465 C466 1.381 . S
C465 H489 0.930 . S
C466 C465 1.381 . S
C466 C468 1.381 . S
C466 C469 1.487 . S
C467 C464 1.382 . S
C467 C468 1.387 . S
C467 H490 0.930 . S
C468 C466 1.381 . S
C468 C467 1.387 . S
C468 H491 0.931 . S
C469 C462 1.399 . S
C469 C466 1.487 . S
C469 N501 1.343 . S
C470 C471 1.384 . S
C470 C472 1.384 . S
C470 H492 0.931 . S
C471 C470 1.384 . S
C471 C474 1.382 . S
C472 C470 1.384 . S
C472 C473 1.381 . S
C472 H493 0.930 . S
C473 C472 1.381 . S
C473 C475 1.381 . S
C473 C476 1.487 . S
C474 C471 1.382 . S
C474 C475 1.387 . S
C474 H494 0.930 . S
C475 C473 1.381 . S
C475 C474 1.387 . S
C475 H495 0.931 . S
C476 C473 1.487 . S
C476 C483 1.399 . S
C476 N501 1.343 . S
C477 C478 1.384 . S
C477 C479 1.384 . S
C477 H496 0.931 . S
C478 C477 1.384 . S
C478 C481 1.382 . S
C479 C477 1.384 . S
C479 C480 1.381 . S
C479 H497 0.930 . S
C480 C479 1.381 . S
C480 C482 1.381 . S
C480 C483 1.487 . S
C481 C478 1.382 . S
C481 C482 1.387 . S
C481 H498 0.930 . S
C482 C480 1.381 . S
C482 C481 1.387 . S
C482 H499 0.931 . S
C483 C476 1.399 . S
C483 C480 1.487 . S
C483 N500 1.343 . S
H484 C456 0.931 . S
H485 C458 0.930 . S
H486 C460 0.930 . S
H487 C461 0.931 . S
H488 C463 0.931 . S
H489 C465 0.930 . S
H490 C467 0.930 . S
H491 C468 0.931 . S
H492 C470 0.931 . S
H493 C472 0.930 . S
H494 C474 0.930 . S
H495 C475 0.931 . S
H496 C477 0.931 . S
H497 C479 0.930 . S
H498 C481 0.930 . S
H499 C482 0.931 . S
N500 C462 1.343 . S
N500 C483 1.343 . S
N501 C469 1.343 . S
N501 C476 1.343 . S
C502 C503 1.384 . S
C502 C504 1.384 . S
C502 H530 0.931 . S
C503 C502 1.384 . S
C503 C506 1.382 . S
C504 C502 1.384 . S
C504 C505 1.381 . S
C504 H531 0.930 . S
C505 C504 1.381 . S
C505 C507 1.381 . S
C505 C508 1.487 . S
C506 C503 1.382 . S
C506 C507 1.387 . S
C506 H532 0.930 . S
C507 C505 1.381 . S
C507 C506 1.387 . S
C507 H533 0.931 . S
C508 C505 1.487 . S
C508 C515 1.399 . S
C508 N546 1.343 . S
C509 C510 1.384 . S
C509 C511 1.384 . S
C509 H534 0.931 . S
C510 C509 1.384 . S
C510 C513 1.382 . S
C511 C509 1.384 . S
C511 C512 1.381 . S
C511 H535 0.930 . S
C512 C511 1.381 . S
C512 C514 1.381 . S
C512 C515 1.487 . S
C513 C510 1.382 . S
C513 C514 1.387 . S
C513 H536 0.930 . S
C514 C512 1.381 . S
C514 C513 1.387 . S
C514 H537 0.931 . S
C515 C508 1.399 . S
C515 C512 1.487 . S
C515 N547 1.343 . S
C516 C517 1.384 . S
C516 C518 1.384 . S
C516 H538 0.931 . S
C517 C516 1.384 . S
C517 C520 1.382 . S
C518 C516 1.384 . S
C518 C519 1.381 . S
C518 H539 0.930 . S
C519 C518 1.381 . S
C519 C521 1.381 . S
C519 C522 1.487 . S
C520 C517 1.382 . S
C520 C521 1.387 . S
C520 H540 0.930 . S
C521 C519 1.381 . S
C521 C520 1.387 . S
C521 H541 0.931 . S
C522 C519 1.487 . S
C522 C529 1.399 . S
C522 N547 1.343 . S
C523 C524 1.384 . S
C523 C525 1.384 . S
C523 H542 0.931 . S
C524 C523 1.384 . S
C524 C527 1.382 . S
C525 C523 1.384 . S
C525 C526 1.381 . S
C525 H543 0.930 . S
C526 C525 1.381 . S
C526 C528 1.381 . S
C526 C529 1.487 . S
C527 C524 1.382 . S
C527 C528 1.387 . S
C527 H544 0.930 . S
C528 C526 1.381 . S
C528 C527 1.387 . S
C528 H545 0.931 . S
C529 C522 1.399 . S
C529 C526 1.487 . S
C529 N546 1.343 . S
H530 C502 0.931 . S
H531 C504 0.930 . S
H532 C506 0.930 . S
H533 C507 0.931 . S
H534 C509 0.931 . S
H535 C511 0.930 . S
H536 C513 0.930 . S
H537 C514 0.931 . S
H538 C516 0.931 . S
H539 C518 0.930 . S
H540 C520 0.930 . S
H541 C521 0.931 . S
H542 C523 0.931 . S
H543 C525 0.930 . S
H544 C527 0.930 . S
H545 C528 0.931 . S
N546 C508 1.343 . S
N546 C529 1.343 . S
N547 C515 1.343 . S
N547 C522 1.343 . S
C548 C549 1.384 . S
C548 C550 1.384 . S
C548 H576 0.931 . S
C549 C548 1.384 . S
C549 C552 1.382 . S
C550 C548 1.384 . S
C550 C551 1.381 . S
C550 H577 0.930 . S
C551 C550 1.381 . S
C551 C553 1.381 . S
C551 C554 1.487 . S
C552 C549 1.382 . S
C552 C553 1.387 . S
C552 H578 0.930 . S
C553 C551 1.381 . S
C553 C552 1.387 . S
C553 H579 0.931 . S
C554 C551 1.487 . S
C554 C561 1.399 . S
C554 N592 1.343 . S
C555 C556 1.384 . S
C555 C557 1.384 . S
C555 H580 0.931 . S
C556 C555 1.384 . S
C556 C559 1.382 . S
C557 C555 1.384 . S
C557 C558 1.381 . S
C557 H581 0.930 . S
C558 C557 1.381 . S
C558 C560 1.381 . S
C558 C561 1.487 . S
C559 C556 1.382 . S
C559 C560 1.387 . S
C559 H582 0.930 . S
C560 C558 1.381 . S
C560 C559 1.387 . S
C560 H583 0.931 . S
C561 C554 1.399 . S
C561 C558 1.487 . S
C561 N593 1.343 . S
C562 C563 1.384 . S
C562 C564 1.384 . S
C562 H584 0.931 . S
C563 C562 1.384 . S
C563 C566 1.382 . S
C564 C562 1.384 . S
C564 C565 1.381 . S
C564 H585 0.930 . S
C565 C564 1.381 . S
C565 C567 1.381 . S
C565 C568 1.487 . S
C566 C563 1.382 . S
C566 C567 1.387 . S
C566 H586 0.930 . S
C567 C565 1.381 . S
C567 C566 1.387 . S
C567 H587 0.931 . S
C568 C565 1.487 . S
C568 C575 1.399 . S
C568 N593 1.343 . S
C569 C570 1.384 . S
C569 C571 1.384 . S
C569 H588 0.931 . S
C570 C569 1.384 . S
C570 C573 1.382 . S
C571 C569 1.384 . S
C571 C572 1.381 . S
C571 H589 0.930 . S
C572 C571 1.381 . S
C572 C574 1.381 . S
C572 C575 1.487 . S
C573 C570 1.382 . S
C573 C574 1.387 . S
C573 H590 0.930 . S
C574 C572 1.381 . S
C574 C573 1.387 . S
C574 H591 0.931 . S
C575 C568 1.399 . S
C575 C572 1.487 . S
C575 N592 1.343 . S
H576 C548 0.931 . S
H577 C550 0.930 . S
H578 C552 0.930 . S
H579 C553 0.931 . S
H580 C555 0.931 . S
H581 C557 0.930 . S
H582 C559 0.930 . S
H583 C560 0.931 . S
H584 C562 0.931 . S
H585 C564 0.930 . S
H586 C566 0.930 . S
H587 C567 0.931 . S
H588 C569 0.931 . S
H589 C571 0.930 . S
H590 C573 0.930 . S
H591 C574 0.931 . S
N592 C554 1.343 . S
N592 C575 1.343 . S
N593 C561 1.343 . S
N593 C568 1.343 . S
C594 C595 1.363 . S
C594 C600 1.379 . S
C594 N602 1.356 . S
C595 C594 1.363 . S
C595 C601 1.363 . S
C596 C597 1.363 . S
C596 C601 1.379 . S
C596 N603 1.356 . S
C597 C596 1.363 . S
C597 C600 1.363 . S
N598 C600 1.356 . S
N598 H610 0.984 . S
N598 H611 0.985 . S
N599 C601 1.356 . S
N599 H604 0.984 . S
N599 H605 0.985 . S
C600 C594 1.379 . S
C600 C597 1.363 . S
C600 N598 1.356 . S
C601 C595 1.363 . S
C601 C596 1.379 . S
C601 N599 1.356 . S
N602 C594 1.356 . S
N602 H608 0.984 . S
N602 H609 0.984 . S
N603 C596 1.356 . S
N603 H606 0.984 . S
N603 H607 0.985 . S
H604 N599 0.984 . S
H605 N599 0.985 . S
H606 N603 0.984 . S
H607 N603 0.985 . S
H608 N602 0.984 . S
H609 N602 0.984 . S
H610 N598 0.984 . S
H611 N598 0.985 . S
C612 C613 1.363 . S
C612 C618 1.379 . S
C612 N620 1.356 . S
C613 C612 1.363 . S
C613 C619 1.363 . S
C614 C615 1.363 . S
C614 C619 1.379 . S
C614 N621 1.356 . S
C615 C614 1.363 . S
C615 C618 1.363 . S
N616 C618 1.356 . S
N616 H628 0.984 . S
N616 H629 0.985 . S
N617 C619 1.356 . S
N617 H622 0.984 . S
N617 H623 0.985 . S
C618 C612 1.379 . S
C618 C615 1.363 . S
C618 N616 1.356 . S
C619 C613 1.363 . S
C619 C614 1.379 . S
C619 N617 1.356 . S
N620 C612 1.356 . S
N620 H626 0.984 . S
N620 H627 0.984 . S
N621 C614 1.356 . S
N621 H624 0.984 . S
N621 H625 0.985 . S
H622 N617 0.984 . S
H623 N617 0.985 . S
H624 N621 0.984 . S
H625 N621 0.985 . S
H626 N620 0.984 . S
H627 N620 0.984 . S
H628 N616 0.984 . S
H629 N616 0.985 . S
C630 C631 1.363 . S
C630 C636 1.379 . S
C630 N638 1.356 . S
C631 C630 1.363 . S
C631 C637 1.363 . S
C632 C633 1.363 . S
C632 C637 1.379 . S
C632 N639 1.356 . S
C633 C632 1.363 . S
C633 C636 1.363 . S
N634 C636 1.356 . S
N634 H646 0.984 . S
N634 H647 0.985 . S
N635 C637 1.356 . S
N635 H640 0.984 . S
N635 H641 0.985 . S
C636 C630 1.379 . S
C636 C633 1.363 . S
C636 N634 1.356 . S
C637 C631 1.363 . S
C637 C632 1.379 . S
C637 N635 1.356 . S
N638 C630 1.356 . S
N638 H644 0.984 . S
N638 H645 0.984 . S
N639 C632 1.356 . S
N639 H642 0.984 . S
N639 H643 0.985 . S
H640 N635 0.984 . S
H641 N635 0.985 . S
H642 N639 0.984 . S
H643 N639 0.985 . S
H644 N638 0.984 . S
H645 N638 0.984 . S
H646 N634 0.984 . S
H647 N634 0.985 . S
C648 C649 1.363 . S
C648 C654 1.379 . S
C648 N656 1.356 . S
C649 C648 1.363 . S
C649 C655 1.363 . S
C650 C651 1.363 . S
C650 C655 1.379 . S
C650 N657 1.356 . S
C651 C650 1.363 . S
C651 C654 1.363 . S
N652 C654 1.356 . S
N652 H664 0.984 . S
N652 H665 0.985 . S
N653 C655 1.356 . S
N653 H658 0.984 . S
N653 H659 0.985 . S
C654 C648 1.379 . S
C654 C651 1.363 . S
C654 N652 1.356 . S
C655 C649 1.363 . S
C655 C650 1.379 . S
C655 N653 1.356 . S
N656 C648 1.356 . S
N656 H662 0.984 . S
N656 H663 0.984 . S
N657 C650 1.356 . S
N657 H660 0.984 . S
N657 H661 0.985 . S
H658 N653 0.984 . S
H659 N653 0.985 . S
H660 N657 0.984 . S
H661 N657 0.985 . S
H662 N656 0.984 . S
H663 N656 0.984 . S
H664 N652 0.984 . S
H665 N652 0.985 . S
C666 C667 1.363 . S
C666 C672 1.379 . S
C666 N674 1.356 . S
C667 C666 1.363 . S
C667 C673 1.363 . S
C668 C669 1.363 . S
C668 C673 1.379 . S
C668 N675 1.356 . S
C669 C668 1.363 . S
C669 C672 1.363 . S
N670 C672 1.356 . S
N670 H682 0.984 . S
N670 H683 0.985 . S
N671 C673 1.356 . S
N671 H676 0.984 . S
N671 H677 0.985 . S
C672 C666 1.379 . S
C672 C669 1.363 . S
C672 N670 1.356 . S
C673 C667 1.363 . S
C673 C668 1.379 . S
C673 N671 1.356 . S
N674 C666 1.356 . S
N674 H680 0.984 . S
N674 H681 0.984 . S
N675 C668 1.356 . S
N675 H678 0.984 . S
N675 H679 0.985 . S
H676 N671 0.984 . S
H677 N671 0.985 . S
H678 N675 0.984 . S
H679 N675 0.985 . S
H680 N674 0.984 . S
H681 N674 0.984 . S
H682 N670 0.984 . S
H683 N670 0.985 . S
C684 C685 1.363 . S
C684 C690 1.379 . S
C684 N692 1.356 . S
C685 C684 1.363 . S
C685 C691 1.363 . S
C686 C687 1.363 . S
C686 C691 1.379 . S
C686 N693 1.356 . S
C687 C686 1.363 . S
C687 C690 1.363 . S
N688 C690 1.356 . S
N688 H700 0.984 . S
N688 H701 0.985 . S
N689 C691 1.356 . S
N689 H694 0.984 . S
N689 H695 0.985 . S
C690 C684 1.379 . S
C690 C687 1.363 . S
C690 N688 1.356 . S
C691 C685 1.363 . S
C691 C686 1.379 . S
C691 N689 1.356 . S
N692 C684 1.356 . S
N692 H698 0.984 . S
N692 H699 0.984 . S
N693 C686 1.356 . S
N693 H696 0.984 . S
N693 H697 0.985 . S
H694 N689 0.984 . S
H695 N689 0.985 . S
H696 N693 0.984 . S
H697 N693 0.985 . S
H698 N692 0.984 . S
H699 N692 0.984 . S
H700 N688 0.984 . S
H701 N688 0.985 . S
C702 C703 1.363 . S
C702 C708 1.379 . S
C702 N710 1.356 . S
C703 C702 1.363 . S
C703 C709 1.363 . S
C704 C705 1.363 . S
C704 C709 1.379 . S
C704 N711 1.356 . S
C705 C704 1.363 . S
C705 C708 1.363 . S
N706 C708 1.356 . S
N706 H718 0.984 . S
N706 H719 0.985 . S
N707 C709 1.356 . S
N707 H712 0.984 . S
N707 H713 0.985 . S
C708 C702 1.379 . S
C708 C705 1.363 . S
C708 N706 1.356 . S
C709 C703 1.363 . S
C709 C704 1.379 . S
C709 N707 1.356 . S
N710 C702 1.356 . S
N710 H716 0.984 . S
N710 H717 0.984 . S
N711 C704 1.356 . S
N711 H714 0.984 . S
N711 H715 0.985 . S
H712 N707 0.984 . S
H713 N707 0.985 . S
H714 N711 0.984 . S
H715 N711 0.985 . S
H716 N710 0.984 . S
H717 N710 0.984 . S
H718 N706 0.984 . S
H719 N706 0.985 . S
C720 C721 1.363 . S
C720 C726 1.379 . S
C720 N728 1.356 . S
C721 C720 1.363 . S
C721 C727 1.363 . S
C722 C723 1.363 . S
C722 C727 1.379 . S
C722 N729 1.356 . S
C723 C722 1.363 . S
C723 C726 1.363 . S
N724 C726 1.356 . S
N724 H736 0.984 . S
N724 H737 0.985 . S
N725 C727 1.356 . S
N725 H730 0.984 . S
N725 H731 0.985 . S
C726 C720 1.379 . S
C726 C723 1.363 . S
C726 N724 1.356 . S
C727 C721 1.363 . S
C727 C722 1.379 . S
C727 N725 1.356 . S
N728 C720 1.356 . S
N728 H734 0.984 1_556 S
N728 H735 0.984 . S
N729 C722 1.356 . S
N729 H732 0.984 . S
N729 H733 0.985 . S
H730 N725 0.984 . S
H731 N725 0.985 . S
H732 N729 0.984 . S
H733 N729 0.985 . S
H734 N728 0.984 1_554 S
H735 N728 0.984 . S
H736 N724 0.984 . S
H737 N724 0.985 . S
C738 C739 1.363 . S
C738 C744 1.379 . S
C738 N746 1.356 . S
C739 C738 1.363 . S
C739 C745 1.363 . S
C740 C741 1.363 . S
C740 C745 1.379 . S
C740 N747 1.356 . S
C741 C740 1.363 . S
C741 C744 1.363 . S
N742 C744 1.356 . S
N742 H754 0.984 . S
N742 H755 0.985 . S
N743 C745 1.356 . S
N743 H748 0.984 . S
N743 H749 0.985 . S
C744 C738 1.379 . S
C744 C741 1.363 . S
C744 N742 1.356 . S
C745 C739 1.363 . S
C745 C740 1.379 . S
C745 N743 1.356 . S
N746 C738 1.356 . S
N746 H752 0.984 . S
N746 H753 0.984 . S
N747 C740 1.356 . S
N747 H750 0.984 . S
N747 H751 0.985 . S
H748 N743 0.984 . S
H749 N743 0.985 . S
H750 N747 0.984 . S
H751 N747 0.985 . S
H752 N746 0.984 . S
H753 N746 0.984 . S
H754 N742 0.984 . S
H755 N742 0.985 . S
C756 C757 1.363 . S
C756 C762 1.379 . S
C756 N764 1.356 . S
C757 C756 1.363 . S
C757 C763 1.363 . S
C758 C759 1.363 . S
C758 C763 1.379 . S
C758 N765 1.356 . S
C759 C758 1.363 . S
C759 C762 1.363 . S
N760 C762 1.356 . S
N760 H772 0.984 . S
N760 H773 0.985 . S
N761 C763 1.356 . S
N761 H766 0.984 . S
N761 H767 0.985 . S
C762 C756 1.379 . S
C762 C759 1.363 . S
C762 N760 1.356 . S
C763 C757 1.363 . S
C763 C758 1.379 . S
C763 N761 1.356 . S
N764 C756 1.356 . S
N764 H770 0.984 . S
N764 H771 0.984 . S
N765 C758 1.356 . S
N765 H768 0.984 . S
N765 H769 0.985 . S
H766 N761 0.984 . S
H767 N761 0.985 . S
H768 N765 0.984 . S
H769 N765 0.985 . S
H770 N764 0.984 . S
H771 N764 0.984 . S
H772 N760 0.984 . S
H773 N760 0.985 . S
C774 C775 1.363 . S
C774 C780 1.379 . S
C774 N782 1.356 . S
C775 C774 1.363 . S
C775 C781 1.363 . S
C776 C777 1.363 . S
C776 C781 1.379 . S
C776 N783 1.356 . S
C777 C776 1.363 . S
C777 C780 1.363 . S
N778 C780 1.356 . S
N778 H790 0.984 . S
N778 H791 0.985 . S
N779 C781 1.356 . S
N779 H784 0.984 . S
N779 H785 0.985 . S
C780 C774 1.379 . S
C780 C777 1.363 . S
C780 N778 1.356 . S
C781 C775 1.363 . S
C781 C776 1.379 . S
C781 N779 1.356 . S
N782 C774 1.356 . S
N782 H788 0.984 . S
N782 H789 0.984 . S
N783 C776 1.356 . S
N783 H786 0.984 . S
N783 H787 0.985 . S
H784 N779 0.984 . S
H785 N779 0.985 . S
H786 N783 0.984 . S
H787 N783 0.985 . S
H788 N782 0.984 . S
H789 N782 0.984 . S
H790 N778 0.984 . S
H791 N778 0.985 . S
C792 C793 1.363 . S
C792 C798 1.379 . S
C792 N800 1.356 . S
C793 C792 1.363 . S
C793 C799 1.363 . S
C794 C795 1.363 . S
C794 C799 1.379 . S
C794 N801 1.356 . S
C795 C794 1.363 . S
C795 C798 1.363 . S
N796 C798 1.356 . S
N796 H808 0.984 . S
N796 H809 0.985 . S
N797 C799 1.356 . S
N797 H802 0.984 . S
N797 H803 0.985 . S
C798 C792 1.379 . S
C798 C795 1.363 . S
C798 N796 1.356 . S
C799 C793 1.363 . S
C799 C794 1.379 . S
C799 N797 1.356 . S
N800 C792 1.356 . S
N800 H806 0.984 . S
N800 H807 0.984 . S
N801 C794 1.356 . S
N801 H804 0.984 . S
N801 H805 0.985 . S
H802 N797 0.984 . S
H803 N797 0.985 . S
H804 N801 0.984 . S
H805 N801 0.985 . S
H806 N800 0.984 . S
H807 N800 0.984 . S
H808 N796 0.984 . S
H809 N796 0.985 . S
C810 C811 1.363 . S
C810 C816 1.379 . S
C810 N818 1.356 . S
C811 C810 1.363 . S
C811 C817 1.363 . S
C812 C813 1.363 . S
C812 C817 1.379 . S
C812 N819 1.356 . S
C813 C812 1.363 . S
C813 C816 1.363 . S
N814 C816 1.356 . S
N814 H826 0.984 . S
N814 H827 0.985 . S
N815 C817 1.356 . S
N815 H820 0.984 . S
N815 H821 0.985 . S
C816 C810 1.379 . S
C816 C813 1.363 . S
C816 N814 1.356 . S
C817 C811 1.363 . S
C817 C812 1.379 . S
C817 N815 1.356 . S
N818 C810 1.356 . S
N818 H824 0.984 . S
N818 H825 0.984 . S
N819 C812 1.356 . S
N819 H822 0.984 . S
N819 H823 0.985 . S
H820 N815 0.984 . S
H821 N815 0.985 . S
H822 N819 0.984 . S
H823 N819 0.985 . S
H824 N818 0.984 . S
H825 N818 0.984 . S
H826 N814 0.984 . S
H827 N814 0.985 . S
C828 C829 1.363 . S
C828 C834 1.379 . S
C828 N836 1.356 . S
C829 C828 1.363 . S
C829 C835 1.363 . S
C830 C831 1.363 . S
C830 C835 1.379 . S
C830 N837 1.356 . S
C831 C830 1.363 . S
C831 C834 1.363 . S
N832 C834 1.356 . S
N832 H844 0.984 . S
N832 H845 0.985 . S
N833 C835 1.356 . S
N833 H838 0.984 . S
N833 H839 0.985 . S
C834 C828 1.379 . S
C834 C831 1.363 . S
C834 N832 1.356 . S
C835 C829 1.363 . S
C835 C830 1.379 . S
C835 N833 1.356 . S
N836 C828 1.356 . S
N836 H842 0.984 . S
N836 H843 0.984 . S
N837 C830 1.356 . S
N837 H840 0.984 . S
N837 H841 0.985 . S
H838 N833 0.984 . S
H839 N833 0.985 . S
H840 N837 0.984 . S
H841 N837 0.985 . S
H842 N836 0.984 . S
H843 N836 0.984 . S
H844 N832 0.984 . S
H845 N832 0.985 . S
C846 C847 1.363 . S
C846 C852 1.379 . S
C846 N854 1.356 . S
C847 C846 1.363 . S
C847 C853 1.363 . S
C848 C849 1.363 . S
C848 C853 1.379 . S
C848 N855 1.356 . S
C849 C848 1.363 . S
C849 C852 1.363 . S
N850 C852 1.356 . S
N850 H862 0.984 . S
N850 H863 0.985 . S
N851 C853 1.356 . S
N851 H856 0.984 . S
N851 H857 0.985 . S
C852 C846 1.379 . S
C852 C849 1.363 . S
C852 N850 1.356 . S
C853 C847 1.363 . S
C853 C848 1.379 . S
C853 N851 1.356 . S
N854 C846 1.356 . S
N854 H860 0.984 . S
N854 H861 0.984 . S
N855 C848 1.356 . S
N855 H858 0.984 . S
N855 H859 0.985 . S
H856 N851 0.984 . S
H857 N851 0.985 . S
H858 N855 0.984 . S
H859 N855 0.985 . S
H860 N854 0.984 . S
H861 N854 0.984 . S
H862 N850 0.984 . S
H863 N850 0.985 . S
C864 C865 1.363 . S
C864 C870 1.379 . S
C864 N872 1.356 . S
C865 C864 1.363 . S
C865 C871 1.363 . S
C866 C867 1.363 . S
C866 C871 1.379 . S
C866 N873 1.356 . S
C867 C866 1.363 . S
C867 C870 1.363 . S
N868 C870 1.356 . S
N868 H880 0.984 . S
N868 H881 0.985 . S
N869 C871 1.356 . S
N869 H874 0.984 . S
N869 H875 0.985 . S
C870 C864 1.379 . S
C870 C867 1.363 . S
C870 N868 1.356 . S
C871 C865 1.363 . S
C871 C866 1.379 . S
C871 N869 1.356 . S
N872 C864 1.356 . S
N872 H878 0.984 . S
N872 H879 0.984 . S
N873 C866 1.356 . S
N873 H876 0.984 . S
N873 H877 0.985 . S
H874 N869 0.984 . S
H875 N869 0.985 . S
H876 N873 0.984 . S
H877 N873 0.985 . S
H878 N872 0.984 . S
H879 N872 0.984 . S
H880 N868 0.984 . S
H881 N868 0.985 . S
C882 C883 1.363 . S
C882 C888 1.379 . S
C882 N890 1.356 . S
C883 C882 1.363 . S
C883 C889 1.363 . S
C884 C885 1.363 . S
C884 C889 1.379 . S
C884 N891 1.356 . S
C885 C884 1.363 . S
C885 C888 1.363 . S
N886 C888 1.356 . S
N886 H898 0.984 . S
N886 H899 0.985 . S
N887 C889 1.356 . S
N887 H892 0.984 . S
N887 H893 0.985 . S
C888 C882 1.379 . S
C888 C885 1.363 . S
C888 N886 1.356 . S
C889 C883 1.363 . S
C889 C884 1.379 . S
C889 N887 1.356 . S
N890 C882 1.356 . S
N890 H896 0.984 . S
N890 H897 0.984 . S
N891 C884 1.356 . S
N891 H894 0.984 . S
N891 H895 0.985 . S
H892 N887 0.984 . S
H893 N887 0.985 . S
H894 N891 0.984 . S
H895 N891 0.985 . S
H896 N890 0.984 . S
H897 N890 0.984 . S
H898 N886 0.984 . S
H899 N886 0.985 . S
C900 C901 1.363 . S
C900 C906 1.379 . S
C900 N908 1.356 . S
C901 C900 1.363 . S
C901 C907 1.363 . S
C902 C903 1.363 . S
C902 C907 1.379 . S
C902 N909 1.356 . S
C903 C902 1.363 . S
C903 C906 1.363 . S
N904 C906 1.356 . S
N904 H916 0.984 . S
N904 H917 0.985 . S
N905 C907 1.356 . S
N905 H910 0.984 . S
N905 H911 0.985 . S
C906 C900 1.379 . S
C906 C903 1.363 . S
C906 N904 1.356 . S
C907 C901 1.363 . S
C907 C902 1.379 . S
C907 N905 1.356 . S
N908 C900 1.356 . S
N908 H914 0.984 . S
N908 H915 0.984 . S
N909 C902 1.356 . S
N909 H912 0.984 . S
N909 H913 0.985 . S
H910 N905 0.984 . S
H911 N905 0.985 . S
H912 N909 0.984 . S
H913 N909 0.985 . S
H914 N908 0.984 . S
H915 N908 0.984 . S
H916 N904 0.984 . S
H917 N904 0.985 . S
C918 C919 1.363 . S
C918 C924 1.379 . S
C918 N926 1.356 . S
C919 C918 1.363 . S
C919 C925 1.363 . S
C920 C921 1.363 . S
C920 C925 1.379 . S
C920 N927 1.356 . S
C921 C920 1.363 . S
C921 C924 1.363 . S
N922 C924 1.356 . S
N922 H934 0.984 . S
N922 H935 0.985 . S
N923 C925 1.356 . S
N923 H928 0.984 . S
N923 H929 0.985 . S
C924 C918 1.379 . S
C924 C921 1.363 . S
C924 N922 1.356 . S
C925 C919 1.363 . S
C925 C920 1.379 . S
C925 N923 1.356 . S
N926 C918 1.356 . S
N926 H932 0.984 . S
N926 H933 0.984 . S
N927 C920 1.356 . S
N927 H930 0.984 . S
N927 H931 0.985 . S
H928 N923 0.984 . S
H929 N923 0.985 . S
H930 N927 0.984 . S
H931 N927 0.985 . S
H932 N926 0.984 . S
H933 N926 0.984 . S
H934 N922 0.984 . S
H935 N922 0.985 . S
C936 C937 1.363 . S
C936 C942 1.379 . S
C936 N944 1.356 . S
C937 C936 1.363 . S
C937 C943 1.363 . S
C938 C939 1.363 . S
C938 C943 1.379 . S
C938 N945 1.356 . S
C939 C938 1.363 . S
C939 C942 1.363 . S
N940 C942 1.356 . S
N940 H952 0.984 . S
N940 H953 0.985 . S
N941 C943 1.356 . S
N941 H946 0.984 . S
N941 H947 0.985 1_554 S
C942 C936 1.379 . S
C942 C939 1.363 . S
C942 N940 1.356 . S
C943 C937 1.363 . S
C943 C938 1.379 . S
C943 N941 1.356 . S
N944 C936 1.356 . S
N944 H950 0.984 . S
N944 H951 0.984 . S
N945 C938 1.356 . S
N945 H948 0.984 . S
N945 H949 0.985 . S
H946 N941 0.984 . S
H947 N941 0.985 1_556 S
H948 N945 0.984 . S
H949 N945 0.985 . S
H950 N944 0.984 . S
H951 N944 0.984 . S
H952 N940 0.984 . S
H953 N940 0.985 . S
C954 C955 1.363 . S
C954 C960 1.379 . S
C954 N962 1.356 . S
C955 C954 1.363 . S
C955 C961 1.363 . S
C956 C957 1.363 . S
C956 C961 1.379 . S
C956 N963 1.356 . S
C957 C956 1.363 . S
C957 C960 1.363 . S
N958 C960 1.356 . S
N958 H970 0.984 . S
N958 H971 0.985 . S
N959 C961 1.356 . S
N959 H964 0.984 . S
N959 H965 0.985 . S
C960 C954 1.379 . S
C960 C957 1.363 . S
C960 N958 1.356 . S
C961 C955 1.363 . S
C961 C956 1.379 . S
C961 N959 1.356 . S
N962 C954 1.356 . S
N962 H968 0.984 . S
N962 H969 0.984 . S
N963 C956 1.356 . S
N963 H966 0.984 . S
N963 H967 0.985 . S
H964 N959 0.984 . S
H965 N959 0.985 . S
H966 N963 0.984 . S
H967 N963 0.985 . S
H968 N962 0.984 . S
H969 N962 0.984 . S
H970 N958 0.984 . S
H971 N958 0.985 . S
C972 C973 1.363 . S
C972 C978 1.379 . S
C972 N980 1.356 . S
C973 C972 1.363 . S
C973 C979 1.363 . S
C974 C975 1.363 . S
C974 C979 1.379 . S
C974 N981 1.356 . S
C975 C974 1.363 . S
C975 C978 1.363 . S
N976 C978 1.356 . S
N976 H988 0.984 . S
N976 H989 0.985 . S
N977 C979 1.356 . S
N977 H982 0.984 . S
N977 H983 0.985 . S
C978 C972 1.379 . S
C978 C975 1.363 . S
C978 N976 1.356 . S
C979 C973 1.363 . S
C979 C974 1.379 . S
C979 N977 1.356 . S
N980 C972 1.356 . S
N980 H986 0.984 . S
N980 H987 0.984 . S
N981 C974 1.356 . S
N981 H984 0.984 . S
N981 H985 0.985 . S
H982 N977 0.984 . S
H983 N977 0.985 . S
H984 N981 0.984 . S
H985 N981 0.985 . S
H986 N980 0.984 . S
H987 N980 0.984 . S
H988 N976 0.984 . S
H989 N976 0.985 . S
C990 C991 1.363 . S
C990 C996 1.379 . S
C990 N998 1.356 . S
C991 C990 1.363 . S
C991 C997 1.363 . S
C992 C993 1.363 . S
C992 C997 1.379 . S
C992 N999 1.356 . S
C993 C992 1.363 . S
C993 C996 1.363 . S
N994 C996 1.356 . S
N994 H1006 0.984 . S
N994 H1007 0.985 . S
N995 C997 1.356 . S
N995 H1000 0.984 . S
N995 H1001 0.985 . S
C996 C990 1.379 . S
C996 C993 1.363 . S
C996 N994 1.356 . S
C997 C991 1.363 . S
C997 C992 1.379 . S
C997 N995 1.356 . S
N998 C990 1.356 . S
N998 H1004 0.984 . S
N998 H1005 0.984 . S
N999 C992 1.356 . S
N999 H1002 0.984 . S
N999 H1003 0.985 . S
H1000 N995 0.984 . S
H1001 N995 0.985 . S
H1002 N999 0.984 . S
H1003 N999 0.985 . S
H1004 N998 0.984 . S
H1005 N998 0.984 . S
H1006 N994 0.984 . S
H1007 N994 0.985 . S
C1008 C1009 1.363 . S
C1008 C1014 1.379 . S
C1008 N1016 1.356 . S
C1009 C1008 1.363 . S
C1009 C1015 1.363 . S
C1010 C1011 1.363 . S
C1010 C1015 1.379 . S
C1010 N1017 1.356 . S
C1011 C1010 1.363 . S
C1011 C1014 1.363 . S
N1012 C1014 1.356 . S
N1012 H1024 0.984 . S
N1012 H1025 0.985 . S
N1013 C1015 1.356 . S
N1013 H1018 0.984 . S
N1013 H1019 0.985 . S
C1014 C1008 1.379 . S
C1014 C1011 1.363 . S
C1014 N1012 1.356 . S
C1015 C1009 1.363 . S
C1015 C1010 1.379 . S
C1015 N1013 1.356 . S
N1016 C1008 1.356 . S
N1016 H1022 0.984 . S
N1016 H1023 0.984 . S
N1017 C1010 1.356 . S
N1017 H1020 0.984 . S
N1017 H1021 0.985 . S
H1018 N1013 0.984 . S
H1019 N1013 0.985 . S
H1020 N1017 0.984 . S
H1021 N1017 0.985 . S
H1022 N1016 0.984 . S
H1023 N1016 0.984 . S
H1024 N1012 0.984 . S
H1025 N1012 0.985 . S
C595 C39 1.805 . S
C597 C340 1.774 . S
C613 C91 1.756 . S
C615 C379 1.738 . S
C633 C411 1.593 . S
C631 C128 1.639 . S
C651 C457 1.551 . S
C649 C188 1.585 . S
C669 C524 1.671 . S
C667 C250 1.686 . S
C687 C563 1.751 . S
C685 C304 1.787 . S
C703 C75 1.693 . S
C705 C425 1.659 . S
C721 C144 1.792 . S
C723 C471 1.762 . S
C741 C510 1.690 . S
C739 C198 1.730 . S
C759 C549 1.562 . S
C757 C234 1.610 . S
C775 C294 1.569 . S
C777 C326 1.535 . S
C795 C365 1.559 . S
C793 C29 1.588 . S
C813 C464 1.774 . S
C811 C38 1.805 . S
C829 C92 1.756 . S
C831 C517 1.720 . S
C849 C570 1.593 . S
C847 C135 1.639 . S
C865 C181 1.585 . S
C867 C333 1.551 . S
C883 C251 1.686 . S
C885 C386 1.653 . S
C901 C303 1.787 . S
C903 C418 1.751 . S
C919 C82 1.693 . S
C921 C556 1.659 . S
C939 C319 1.762 . S
C937 C145 1.792 . S
C955 C197 1.730 . S
C957 C372 1.708 . S
C973 C241 1.610 . S
C975 C432 1.562 . S
C991 C287 1.569 . S
C993 C478 1.535 . S
C1009 C22 1.588 . S
C1011 C503 1.576 . S
