# Generated by pormake.
# Topology pto, (3,4)-cn, num edge types: 1
# Building blocks:
#     Node 0, Type 0, BuildingBlock: ESEHIV_clean_linker_0, # of connection points: 3
#     Node 1, Type 0, BuildingBlock: ESEHIV_clean_linker_0, # of connection points: 3
#     Node 2, Type 0, BuildingBlock: ESEHIV_clean_linker_0, # of connection points: 3
#     Node 3, Type 0, BuildingBlock: ESEHIV_clean_linker_0, # of connection points: 3
#     Node 4, Type 0, BuildingBlock: ESEHIV_clean_linker_0, # of connection points: 3
#     Node 5, Type 0, BuildingBlock: ESEHIV_clean_linker_0, # of connection points: 3
#     Node 6, Type 0, BuildingBlock: ESEHIV_clean_linker_0, # of connection points: 3
#     Node 7, Type 0, BuildingBlock: ESEHIV_clean_linker_0, # of connection points: 3
#     Node 8, Type 1, BuildingBlock: KOZSID_clean_sbu_0, # of connection points: 4
#     Node 9, Type 1, BuildingBlock: KOZSID_clean_sbu_0, # of connection points: 4
#     Node 10, Type 1, BuildingBlock: KOZSID_clean_sbu_0, # of connection points: 4
#     Node 11, Type 1, BuildingBlock: KOZSID_clean_sbu_0, # of connection points: 4
#     Node 12, Type 1, BuildingBlock: KOZSID_clean_sbu_0, # of connection points: 4
#     Node 13, Type 1, BuildingBlock: KOZSID_clean_sbu_0, # of connection points: 4
#     Edge 14, Type (0, 1), None
#     Edge 15, Type (0, 1), None
#     Edge 16, Type (0, 1), None
#     Edge 17, Type (0, 1), None
#     Edge 18, Type (0, 1), None
#     Edge 19, Type (0, 1), None
#     Edge 20, Type (0, 1), None
#     Edge 21, Type (0, 1), None
#     Edge 22, Type (0, 1), None
#     Edge 23, Type (0, 1), None
#     Edge 24, Type (0, 1), None
#     Edge 25, Type (0, 1), None
#     Edge 26, Type (0, 1), None
#     Edge 27, Type (0, 1), None
#     Edge 28, Type (0, 1), None
#     Edge 29, Type (0, 1), None
#     Edge 30, Type (0, 1), None
#     Edge 31, Type (0, 1), None
#     Edge 32, Type (0, 1), None
#     Edge 33, Type (0, 1), None
#     Edge 34, Type (0, 1), None
#     Edge 35, Type (0, 1), None
#     Edge 36, Type (0, 1), None
#     Edge 37, Type (0, 1), None
# Relax obj value: 0.000
# Max RMSD: 0.062
# Mean RMSD: 0.027
data_MOF--net-pto--node1-KOZSID_clean_sbu_0--node2-ESEHIV_clean_linker_0--edge1-none
_symmetry_space_group_name_H-M    P1
_symmetry_Int_Tables_number       1
_symmetry_cell_setting            triclinic
loop_
_symmetry_equiv_pos_as_xyz
'x, y, z'
_cell_length_a     17.536865
_cell_length_b     21.762467
_cell_length_c     20.083407
_cell_angle_alpha  85.059688
_cell_angle_beta   80.334762
_cell_angle_gamma 96.05932
loop_
_atom_site_label
_atom_site_type_symbol
_atom_site_fract_x
_atom_site_fract_y
_atom_site_fract_z
_atom_type_partial_charge
H0 H 0.25531 0.35132 0.22058 0.0
H1 H 0.33466 0.18957 0.30906 0.0
H2 H 0.21049 0.3037 0.43819 0.0
C3 C 0.25815 0.32078 0.26532 0.0
C4 C 0.22464 0.33476 0.3306 0.0
C5 C 0.30585 0.27273 0.25785 0.0
C6 C 0.30233 0.22873 0.31378 0.0
C7 C 0.26307 0.23676 0.37827 0.0
C8 C 0.23056 0.29289 0.38714 0.0
H9 H 0.25585 0.72798 0.85547 0.0
H10 H 0.32207 0.91933 0.77834 0.0
H11 H 0.15303 0.80735 0.69261 0.0
C12 C 0.24911 0.76744 0.82099 0.0
C13 C 0.19731 0.76047 0.77538 0.0
C14 C 0.29142 0.82481 0.82389 0.0
C15 C 0.28725 0.87531 0.77715 0.0
C16 C 0.2388 0.8692 0.72852 0.0
C17 C 0.19206 0.81198 0.72887 0.0
H18 H 0.69957 0.90728 0.29236 0.0
H19 H 0.86915 0.81249 0.37755 0.0
H20 H 0.77575 0.74314 0.21091 0.0
C21 C 0.73747 0.87103 0.29096 0.0
C22 C 0.73309 0.82654 0.24465 0.0
C23 C 0.78664 0.86649 0.3389 0.0
C24 C 0.83115 0.81637 0.34046 0.0
C25 C 0.82538 0.77037 0.29581 0.0
C26 C 0.77897 0.77757 0.24636 0.0
H27 H 0.70388 0.20577 0.83938 0.0
H28 H 0.92731 0.29293 0.72851 0.0
H29 H 0.80796 0.37411 0.89617 0.0
C30 C 0.75116 0.24336 0.8302 0.0
C31 C 0.74899 0.28942 0.8751 0.0
C32 C 0.81444 0.24403 0.77579 0.0
C33 C 0.87651 0.29345 0.76712 0.0
C34 C 0.87236 0.34349 0.80816 0.0
C35 C 0.80916 0.33882 0.86218 0.0
H36 H 0.71187 0.91235 0.81267 0.0
H37 H 0.79643 0.75544 0.90556 0.0
H38 H 0.85429 0.80637 0.68797 0.0
C39 C 0.74844 0.87547 0.80964 0.0
C40 C 0.79315 0.86969 0.74678 0.0
C41 C 0.74556 0.83239 0.86609 0.0
C42 C 0.79454 0.78507 0.86001 0.0
C43 C 0.83177 0.77154 0.79549 0.0
C44 C 0.82962 0.815 0.73874 0.0
H45 H 0.72087 0.18987 0.35968 0.0
H46 H 0.78992 0.37973 0.27808 0.0
H47 H 0.88561 0.30457 0.44725 0.0
C48 C 0.75421 0.23438 0.3616 0.0
C49 C 0.79979 0.24196 0.41243 0.0
C50 C 0.752 0.28374 0.31271 0.0
C51 C 0.79438 0.34119 0.31472 0.0
C52 C 0.84478 0.34907 0.3612 0.0
C53 C 0.84704 0.29917 0.41071 0.0
H54 H 0.20316 0.29624 0.73541 0.0
H55 H 0.37284 0.20385 0.82366 0.0
H56 H 0.29136 0.36671 0.90402 0.0
C57 C 0.24072 0.29309 0.77292 0.0
C58 C 0.24355 0.33874 0.8185 0.0
C59 C 0.28634 0.24347 0.77523 0.0
C60 C 0.33463 0.23985 0.82401 0.0
C61 C 0.33699 0.28445 0.87049 0.0
C62 C 0.28994 0.33254 0.86813 0.0
H63 H 0.11363 0.81095 0.38664 0.0
H64 H 0.25001 0.73643 0.22317 0.0
H65 H 0.33925 0.90566 0.29159 0.0
C66 C 0.1669 0.81284 0.34997 0.0
C67 C 0.22528 0.86417 0.34485 0.0
C68 C 0.17775 0.76375 0.30888 0.0
C69 C 0.24372 0.77138 0.2574 0.0
C70 C 0.3018 0.82239 0.24878 0.0
C71 C 0.29307 0.86774 0.29466 0.0
C72 C 0.09974 0.66696 0.38676 0.0
C73 C 0.11098 0.69056 0.44698 0.0
C74 C 0.0675 0.65058 0.49841 0.0
C75 C 0.03692 0.60226 0.46814 0.0
N76 N 0.05615 0.60997 0.3998 0.0
Co77 Co 0.01744 0.55239 0.33673 0.0
N78 N 0.94314 0.49982 0.41227 0.0
C79 C 0.92961 0.51093 0.47791 0.0
C80 C 0.87107 0.47045 0.51762 0.0
C81 C 0.84824 0.42922 0.47521 0.0
C82 C 0.89467 0.44697 0.41192 0.0
N83 N 0.9826 0.49341 0.2736 0.0
C84 C 0.94214 0.43557 0.28816 0.0
C85 C 0.95033 0.40245 0.23162 0.0
C86 C -0.00434 0.44081 0.17961 0.0
C87 C 0.01442 0.49436 0.20736 0.0
N88 N 0.08601 0.60882 0.26073 0.0
C89 C 0.0948 0.60043 0.19402 0.0
C90 C 0.1175 0.65421 0.1515 0.0
C91 C 0.12297 0.69978 0.19342 0.0
C92 C 0.10841 0.67082 0.25953 0.0
N93 N 0.10089 0.49778 0.34752 0.0
C94 C 0.18629 0.39351 0.33932 0.0
C95 C 0.20584 0.44614 0.29108 0.0
C96 C 0.16311 0.49721 0.29614 0.0
C97 C 0.12913 0.39828 0.39593 0.0
C98 C 0.08955 0.45098 0.39997 0.0
N99 N 0.93487 0.60545 0.32538 0.0
C100 C 0.88837 0.67933 0.25026 0.0
C101 C 0.86103 0.71191 0.30507 0.0
C102 C 0.86315 0.68562 0.37042 0.0
C103 C 0.89966 0.63276 0.37935 0.0
C104 C 0.92258 0.62509 0.26193 0.0
H105 H 0.90167 0.61687 0.43036 0.0
H106 H 0.94318 0.60165 0.21883 0.0
H107 H 0.18006 0.53484 0.25656 0.0
H108 H 0.04758 0.45121 0.44517 0.0
C109 C 0.9772 0.5569 0.50082 0.0
C110 C 0.12348 0.70287 0.31905 0.0
C111 C 0.89617 0.40962 0.35476 0.0
C112 C 0.06451 0.54518 0.17324 0.0
H113 H 0.14326 0.73348 0.4546 0.0
H114 H 0.05427 0.65891 0.55108 0.0
H115 H 0.84949 0.46959 0.57147 0.0
H116 H 0.80417 0.38954 0.49003 0.0
H117 H 0.92801 0.35477 0.22836 0.0
H118 H 0.01536 0.43 0.1284 0.0
H119 H 0.12328 0.66025 0.09676 0.0
H120 H 0.13733 0.74893 0.17694 0.0
H121 H 0.25311 0.44815 0.24848 0.0
H122 H 0.11215 0.36074 0.4364 0.0
H123 H 0.88588 0.69627 0.1985 0.0
H124 H 0.83782 0.70615 0.41493 0.0
C125 C 0.10653 0.66769 0.84419 0.0
C126 C 0.09732 0.69713 0.90333 0.0
C127 C 0.05607 0.6548 0.95373 0.0
C128 C 0.04057 0.60261 0.92259 0.0
N129 N 0.07074 0.60815 0.85554 0.0
Co130 Co 0.038 0.55193 0.78875 0.0
N131 N 0.97083 0.49162 0.86201 0.0
C132 C 0.96396 0.49561 0.92963 0.0
C133 C 0.94496 0.43947 0.96844 0.0
C134 C 0.93989 0.39688 0.92313 0.0
C135 C 0.95099 0.42981 0.85911 0.0
N136 N 0.00134 0.49682 0.72219 0.0
C137 C 0.95815 0.43947 0.73216 0.0
C138 C 0.95058 0.41747 0.67047 0.0
C139 C -0.00482 0.45912 0.62122 0.0
C140 C 0.02297 0.50676 0.65406 0.0
N141 N 0.1105 0.609 0.71596 0.0
C142 C 0.12664 0.60028 0.64972 0.0
C143 C 0.18278 0.64422 0.61213 0.0
C144 C 0.20079 0.68516 0.65661 0.0
C145 C 0.15434 0.66369 0.719 0.0
N146 N 0.12288 0.49965 0.79678 0.0
C147 C 0.20314 0.39532 0.81173 0.0
C148 C 0.19826 0.42277 0.74756 0.0
C149 C 0.15888 0.47459 0.7413 0.0
C150 C 0.17413 0.42539 0.86817 0.0
C151 C 0.13686 0.47853 0.85921 0.0
N152 N 0.953 0.60565 0.7808 0.0
C153 C 0.92109 0.70265 0.729 0.0
C154 C 0.86964 0.71174 0.7881 0.0
C155 C 0.85432 0.66159 0.83997 0.0
C156 C 0.89634 0.60998 0.83557 0.0
C157 C 0.95925 0.64897 0.72563 0.0
H158 H 0.88402 0.57508 0.87822 0.0
H159 H -0.00342 0.64501 0.67858 0.0
H160 H 0.15635 0.49183 0.69091 0.0
H161 H 0.11616 0.50013 0.90358 0.0
C162 C -0.00673 0.54934 0.95405 0.0
C163 C 0.1493 0.69859 0.7784 0.0
C164 C 0.93215 0.40151 0.79848 0.0
C165 C 0.0818 0.55417 0.62403 0.0
H166 H 0.11619 0.74494 0.90943 0.0
H167 H 0.03622 0.66221 0.0061 0.0
H168 H 0.94118 0.43013 0.02279 0.0
H169 H 0.92661 0.34711 0.93592 0.0
H170 H 0.92031 0.37454 0.66053 0.0
H171 H 0.01063 0.45249 0.56823 0.0
H172 H 0.2055 0.6477 0.55824 0.0
H173 H 0.24171 0.72698 0.64377 0.0
H174 H 0.22426 0.40425 0.70189 0.0
H175 H 0.17804 0.40749 0.91928 0.0
H176 H 0.93463 0.73713 0.6854 0.0
H177 H 0.81101 0.66157 0.88504 0.0
C178 C 0.31344 0.94565 0.62895 0.0
C179 C 0.37856 0.914 0.62339 0.0
C180 C 0.43434 0.94808 0.57495 0.0
C181 C 0.40046 0.99841 0.55378 0.0
N182 N 0.32636 0.99866 0.58516 0.0
Co183 Co 0.25251 0.05695 0.55889 0.0
N184 N 0.33464 0.10627 0.48659 0.0
C185 C 0.40986 0.09645 0.47231 0.0
C186 C 0.45586 0.14169 0.42716 0.0
C187 C 0.40674 0.18296 0.41127 0.0
C188 C 0.33237 0.159 0.44535 0.0
N189 N 0.17796 0.11444 0.53212 0.0
C190 C 0.18666 0.16181 0.48116 0.0
C191 C 0.12009 0.19169 0.4855 0.0
C192 C 0.07136 0.16634 0.54332 0.0
C193 C 0.10811 0.11999 0.56944 0.0
N194 N 0.17142 1.0098 0.63402 0.0
C195 C 0.1044 0.0303 0.66089 0.0
C196 C 0.06487 0.99492 0.71861 0.0
C197 C 0.10974 0.94882 0.72974 0.0
C198 C 0.1747 0.9594 0.67841 0.0
N199 N 0.28007 0.1145 0.62486 0.0
C200 C 0.28767 0.19825 0.72357 0.0
C201 C 0.28843 0.13429 0.74023 0.0
C202 C 0.28517 0.09333 0.69002 0.0
C203 C 0.28911 0.21944 0.65593 0.0
C204 C 0.28578 0.17739 0.60797 0.0
N205 N 0.22512 0.999 0.49174 0.0
C206 C 0.19789 0.89314 0.46456 0.0
C207 C 0.21858 0.91165 0.39489 0.0
C208 C 0.23706 0.97554 0.37452 0.0
C209 C 0.23825 1.01821 0.42338 0.0
C210 C 0.20175 0.93697 0.51151 0.0
H211 H 0.25228 0.06644 0.40486 0.0
H212 H 0.18763 0.91905 0.56366 0.0
H213 H 0.28403 0.04452 0.70484 0.0
H214 H 0.28475 0.19703 0.55794 0.0
C215 C 0.43556 0.045 0.50319 0.0
C216 C 0.24051 0.92287 0.67619 0.0
C217 C 0.26075 0.18673 0.43575 0.0
C218 C 0.07911 0.0815 0.6291 0.0
H219 H 0.3847 0.87017 0.65056 0.0
H220 H 0.49206 0.93662 0.55613 0.0
H221 H 0.51796 0.14486 0.40874 0.0
H222 H 0.4241 0.22557 0.37773 0.0
H223 H 0.10714 0.2292 0.45224 0.0
H224 H 0.01599 0.181 0.56351 0.0
H225 H 0.00975 1.00169 0.74878 0.0
H226 H 0.09726 0.91267 0.77192 0.0
H227 H 0.28896 0.11575 0.79192 0.0
H228 H 0.29189 0.26858 0.63983 0.0
H229 H 0.18241 0.84446 0.4832 0.0
H230 H 0.25154 0.99252 0.32107 0.0
C231 C 0.39219 0.88504 0.14334 0.0
C232 C 0.35591 0.93878 0.14853 0.0
C233 C 0.39226 0.98075 0.09478 0.0
C234 C 0.44785 0.95065 0.05917 0.0
N235 N 0.44808 0.89206 0.08649 0.0
Co236 Co 0.50545 0.8294 0.04015 0.0
N237 N 0.58129 0.8939 0.98163 0.0
C238 C 0.57433 0.95496 0.97364 0.0
C239 C 0.64252 0.9899 0.94206 0.0
C240 C 0.69495 0.94801 0.92896 0.0
C241 C 0.65464 0.88909 0.9497 0.0
N242 N 0.55994 0.76607 0.99228 0.0
C243 C 0.6267 0.77236 0.94575 0.0
C244 C 0.63299 0.71761 0.91465 0.0
C245 C 0.57054 0.6759 0.9446 0.0
C246 C 0.52804 0.7072 0.99073 0.0
N247 N 0.43219 0.76505 0.10173 0.0
C248 C 0.42463 0.70354 0.09638 0.0
C249 C 0.39613 0.66896 0.15759 0.0
C250 C 0.38372 0.71141 0.20353 0.0
C251 C 0.40009 0.76991 0.16697 0.0
N252 N 0.43705 0.83023 0.97291 0.0
C253 C 0.34138 0.83055 0.87541 0.0
C254 C 0.30892 0.82105 0.94462 0.0
C255 C 0.35787 0.82186 0.99273 0.0
C256 C 0.42207 0.84051 0.85569 0.0
C257 C 0.46887 0.83939 0.90516 0.0
N258 N 0.57432 0.82918 0.1059 0.0
C259 C 0.6414 0.7724 0.17992 0.0
C260 C 0.6768 0.82804 0.19753 0.0
C261 C 0.65795 0.88441 0.16946 0.0
C262 C 0.60539 0.88387 0.12472 0.0
C263 C 0.59244 0.77408 0.13271 0.0
H264 H 0.59095 0.92774 0.10451 0.0
H265 H 0.56906 0.7306 0.11818 0.0
H266 H 0.33176 0.8152 0.04585 0.0
H267 H 0.53096 0.84522 0.88809 0.0
C268 C 0.50829 0.97813 0.007 0.0
C269 C 0.37032 0.82723 0.19068 0.0
C270 C 0.68136 0.83051 0.92664 0.0
C271 C 0.46541 0.68012 0.04039 0.0
H272 H 0.30758 0.9473 0.18615 0.0
H273 H 0.38053 0.02802 0.0837 0.0
H274 H 0.65372 0.03993 0.93165 0.0
H275 H 0.75488 0.95951 0.90347 0.0
H276 H 0.67599 0.70769 0.8733 0.0
H277 H 0.55834 0.62811 0.93454 0.0
H278 H 0.39068 0.61894 0.16859 0.0
H279 H 0.36103 0.70032 0.25726 0.0
H280 H 0.24631 0.8128 0.96124 0.0
H281 H 0.44877 0.84702 0.80243 0.0
H282 H 0.65112 0.72743 0.20211 0.0
H283 H 0.68408 0.92865 0.18104 0.0
C284 C 0.86783 0.94867 0.64631 0.0
C285 C 0.93787 0.92364 0.64374 0.0
C286 C 0.98664 0.95194 0.58679 0.0
C287 C 0.94567 0.99454 0.55936 0.0
N288 N 0.87369 0.9954 0.5953 0.0
Co289 Co 0.79408 0.04558 0.56509 0.0
N290 N 0.87493 0.10216 0.49947 0.0
C291 C 0.94478 0.08661 0.47216 0.0
C292 C 0.98442 0.12822 0.41954 0.0
C293 C 0.93723 0.17371 0.41358 0.0
C294 C 0.87039 0.1566 0.4624 0.0
N295 N 0.71552 0.09587 0.53362 0.0
C296 C 0.72539 0.15432 0.5009 0.0
C297 C 0.65416 0.17661 0.50049 0.0
C298 C 0.59805 0.12995 0.53166 0.0
C299 C 0.63756 0.08168 0.54917 0.0
N300 N 0.71301 0.98781 0.62932 0.0
C301 C 0.63575 0.98349 0.62935 0.0
C302 C 0.59358 0.93494 0.67244 0.0
C303 C 0.64747 0.90586 0.70075 0.0
C304 C 0.72 0.93941 0.67474 0.0
N305 N 0.80318 0.10148 0.63689 0.0
C306 C 0.81252 0.19397 0.72782 0.0
C307 C 0.74074 0.16706 0.71495 0.0
C308 C 0.73736 0.12059 0.6714 0.0
C309 C 0.88 0.17151 0.69485 0.0
C310 C 0.87384 0.1252 0.64996 0.0
N311 N 0.7841 0.99019 0.49396 0.0
C312 C 0.78343 0.8871 0.45914 0.0
C313 C 0.78534 0.91011 0.39183 0.0
C314 C 0.78341 0.97408 0.37681 0.0
C315 C 0.78252 1.0133 0.4287 0.0
C316 C 0.78274 0.9275 0.50893 0.0
H317 H 0.7821 0.06235 0.41571 0.0
H318 H 0.78258 0.9072 0.5593 0.0
H319 H 0.68064 0.10137 0.66481 0.0
H320 H 0.92579 0.10848 0.62541 0.0
C321 C 0.97384 0.03573 0.50129 0.0
C322 C 0.79427 0.91974 0.6896 0.0
C323 C 0.80015 0.18819 0.46465 0.0
C324 C 0.60456 0.028 0.59139 0.0
H325 H 0.95266 0.88731 0.67756 0.0
H326 H 0.04531 0.94281 0.56798 0.0
H327 H 0.0414 0.12623 0.38971 0.0
H328 H 0.94945 0.21339 0.37546 0.0
H329 H 0.64376 0.22208 0.48027 0.0
H330 H 0.53626 0.13274 0.54426 0.0
H331 H 0.53115 0.92183 0.68189 0.0
H332 H 0.63455 0.86358 0.7352 0.0
H333 H 0.68635 0.18239 0.73714 0.0
H334 H 0.9371 0.18905 0.70372 0.0
H335 H 0.7821 0.83783 0.47371 0.0
H336 H 0.78399 0.99382 0.32532 0.0
C337 C 0.42537 0.33442 0.18087 0.0
C338 C 0.41869 0.38789 0.2144 0.0
C339 C 0.48127 0.43017 0.18662 0.0
C340 C 0.52443 0.4004 0.13949 0.0
N341 N 0.49282 0.342 0.13508 0.0
Co342 Co 0.54992 0.27997 0.08735 0.0
N343 N 0.62486 0.3456 0.02906 0.0
C344 C 0.63241 0.40662 0.03698 0.0
C345 C 0.66326 0.44304 0.97743 0.0
C346 C 0.67701 0.40233 0.92983 0.0
C347 C 0.65912 0.34281 0.96389 0.0
N348 N 0.6097 0.21881 0.04112 0.0
C349 C 0.66532 0.22704 0.98413 0.0
C350 C 0.70193 0.17358 0.97751 0.0
C351 C 0.66555 0.13045 0.03027 0.0
C352 C 0.60992 0.1598 0.06706 0.0
N353 N 0.47296 0.21427 0.14258 0.0
C354 C 0.48094 0.15338 0.15011 0.0
C355 C 0.41267 0.11768 0.18009 0.0
C356 C 0.35904 0.15881 0.19209 0.0
C357 C 0.39876 0.21814 0.17313 0.0
N358 N 0.48468 0.28114 0.01867 0.0
C359 C 0.39033 0.28292 0.9203 0.0
C360 C 0.40755 0.22646 0.9495 0.0
C361 C 0.45595 0.22668 0.99769 0.0
C362 C 0.42311 0.33842 0.94048 0.0
C363 C 0.46796 0.3364 0.99102 0.0
N364 N 0.61471 0.27778 0.15746 0.0
C365 C 0.62422 0.26566 0.27597 0.0
C366 C 0.70511 0.27667 0.25904 0.0
C367 C 0.74046 0.28702 0.19047 0.0
C368 C 0.69414 0.28657 0.14029 0.0
C369 C 0.58008 0.26717 0.22454 0.0
H370 H 0.72243 0.29404 0.08772 0.0
H371 H 0.51773 0.26066 0.23964 0.0
H372 H 0.46927 0.18268 0.01857 0.0
H373 H 0.48965 0.37967 0.00729 0.0
C374 C 0.5891 0.42838 0.0927 0.0
C375 C 0.37081 0.2759 0.19757 0.0
C376 C 0.68582 0.28546 0.93746 0.0
C377 C 0.54838 0.13117 0.11773 0.0
H378 H 0.37594 0.39646 0.25656 0.0
H379 H 0.49365 0.4771 0.19934 0.0
H380 H 0.66848 0.4932 0.96827 0.0
H381 H 0.69939 0.41537 0.87635 0.0
H382 H 0.75012 0.16593 0.93923 0.0
H383 H 0.67686 0.08281 0.0395 0.0
H384 H 0.40235 0.06768 0.1906 0.0
H385 H 0.29872 0.14653 0.21623 0.0
H386 H 0.38312 0.18232 0.93627 0.0
H387 H 0.41434 0.38349 0.91784 0.0
H388 H 0.59524 0.25841 0.32862 0.0
H389 H 0.80328 0.296 0.17593 0.0
loop_
_geom_bond_atom_site_label_1
_geom_bond_atom_site_label_2
_geom_bond_distance
_geom_bond_site_symmetry_2
_ccdc_geom_bond_type
H0 C3 0.931 . S
H1 C6 0.928 . S
H2 C8 0.930 . S
C3 H0 0.931 . S
C3 C4 1.413 . S
C3 C5 1.360 . S
C4 C3 1.413 . S
C4 C8 1.429 . S
C5 C3 1.360 . S
C5 C6 1.372 . S
C6 H1 0.928 . S
C6 C5 1.372 . S
C6 C7 1.404 . S
C7 C6 1.404 . S
C7 C8 1.391 . S
C8 H2 0.930 . S
C8 C4 1.429 . S
C8 C7 1.391 . S
H9 C12 0.931 . S
H10 C15 0.928 . S
H11 C17 0.930 . S
C12 H9 0.931 . S
C12 C13 1.413 . S
C12 C14 1.360 . S
C13 C12 1.413 . S
C13 C17 1.429 . S
C14 C12 1.360 . S
C14 C15 1.372 . S
C15 H10 0.928 . S
C15 C14 1.372 . S
C15 C16 1.404 . S
C16 C15 1.404 . S
C16 C17 1.391 . S
C17 H11 0.930 . S
C17 C13 1.429 . S
C17 C16 1.391 . S
H18 C21 0.931 . S
H19 C24 0.928 . S
H20 C26 0.930 . S
C21 H18 0.931 . S
C21 C22 1.413 . S
C21 C23 1.360 . S
C22 C21 1.413 . S
C22 C26 1.429 . S
C23 C21 1.360 . S
C23 C24 1.372 . S
C24 H19 0.928 . S
C24 C23 1.372 . S
C24 C25 1.404 . S
C25 C24 1.404 . S
C25 C26 1.391 . S
C26 H20 0.930 . S
C26 C22 1.429 . S
C26 C25 1.391 . S
H27 C30 0.931 . S
H28 C33 0.928 . S
H29 C35 0.930 . S
C30 H27 0.931 . S
C30 C31 1.413 . S
C30 C32 1.360 . S
C31 C30 1.413 . S
C31 C35 1.429 . S
C32 C30 1.360 . S
C32 C33 1.372 . S
C33 H28 0.928 . S
C33 C32 1.372 . S
C33 C34 1.404 . S
C34 C33 1.404 . S
C34 C35 1.391 . S
C35 H29 0.930 . S
C35 C31 1.429 . S
C35 C34 1.391 . S
H36 C39 0.931 . S
H37 C42 0.928 . S
H38 C44 0.930 . S
C39 H36 0.931 . S
C39 C40 1.413 . S
C39 C41 1.360 . S
C40 C39 1.413 . S
C40 C44 1.429 . S
C41 C39 1.360 . S
C41 C42 1.372 . S
C42 H37 0.928 . S
C42 C41 1.372 . S
C42 C43 1.404 . S
C43 C42 1.404 . S
C43 C44 1.391 . S
C44 H38 0.930 . S
C44 C40 1.429 . S
C44 C43 1.391 . S
H45 C48 0.931 . S
H46 C51 0.928 . S
H47 C53 0.930 . S
C48 H45 0.931 . S
C48 C49 1.413 . S
C48 C50 1.360 . S
C49 C48 1.413 . S
C49 C53 1.429 . S
C50 C48 1.360 . S
C50 C51 1.372 . S
C51 H46 0.928 . S
C51 C50 1.372 . S
C51 C52 1.404 . S
C52 C51 1.404 . S
C52 C53 1.391 . S
C53 H47 0.930 . S
C53 C49 1.429 . S
C53 C52 1.391 . S
H54 C57 0.931 . S
H55 C60 0.928 . S
H56 C62 0.930 . S
C57 H54 0.931 . S
C57 C58 1.413 . S
C57 C59 1.360 . S
C58 C57 1.413 . S
C58 C62 1.429 . S
C59 C57 1.360 . S
C59 C60 1.372 . S
C60 H55 0.928 . S
C60 C59 1.372 . S
C60 C61 1.404 . S
C61 C60 1.404 . S
C61 C62 1.391 . S
C62 H56 0.930 . S
C62 C58 1.429 . S
C62 C61 1.391 . S
H63 C66 0.931 . S
H64 C69 0.928 . S
H65 C71 0.930 . S
C66 H63 0.931 . S
C66 C67 1.413 . S
C66 C68 1.360 . S
C67 C66 1.413 . S
C67 C71 1.429 . S
C68 C66 1.360 . S
C68 C69 1.372 . S
C69 H64 0.928 . S
C69 C68 1.372 . S
C69 C70 1.404 . S
C70 C69 1.404 . S
C70 C71 1.391 . S
C71 H65 0.930 . S
C71 C67 1.429 . S
C71 C70 1.391 . S
C72 C73 1.443 . S
C72 N76 1.376 . S
C72 C110 1.389 . S
C73 C72 1.443 . S
C73 C74 1.340 . S
C73 H113 0.951 . S
C74 C73 1.340 . S
C74 C75 1.439 . S
C74 H114 0.950 . S
C75 C74 1.439 . S
C75 N76 1.374 . S
C75 C109 1.395 . S
N76 C72 1.376 . S
N76 C75 1.374 . S
N76 Co77 2.008 . S
Co77 N76 2.008 . S
Co77 N78 1.995 1_455 S
Co77 N83 2.008 . S
Co77 N88 1.995 . S
Co77 N93 2.282 . S
Co77 N99 2.282 1_455 S
N78 Co77 1.995 1_655 S
N78 C79 1.376 . S
N78 C82 1.383 . S
C79 N78 1.376 . S
C79 C80 1.446 . S
C79 C109 1.391 1_655 S
C80 C79 1.446 . S
C80 C81 1.339 . S
C80 H115 0.949 . S
C81 C80 1.339 . S
C81 C82 1.439 . S
C81 H116 0.950 . S
C82 N78 1.383 . S
C82 C81 1.439 . S
C82 C111 1.392 . S
N83 Co77 2.008 . S
N83 C84 1.376 1_455 S
N83 C87 1.374 . S
C84 N83 1.376 1_655 S
C84 C85 1.443 . S
C84 C111 1.389 . S
C85 C84 1.443 . S
C85 C86 1.340 . S
C85 H117 0.951 . S
C86 C85 1.340 . S
C86 C87 1.439 1_655 S
C86 H118 0.950 . S
C87 N83 1.374 . S
C87 C86 1.439 1_455 S
C87 C112 1.395 . S
N88 Co77 1.995 . S
N88 C89 1.376 . S
N88 C92 1.383 . S
C89 N88 1.376 . S
C89 C90 1.446 . S
C89 C112 1.391 . S
C90 C89 1.446 . S
C90 C91 1.339 . S
C90 H119 0.949 . S
C91 C90 1.339 . S
C91 C92 1.439 . S
C91 H120 0.950 . S
C92 N88 1.383 . S
C92 C91 1.439 . S
C92 C110 1.392 . S
N93 Co77 2.282 . S
N93 C96 1.332 . S
N93 C98 1.332 . S
C94 C95 1.386 . S
C94 C97 1.388 . S
C95 C94 1.386 . S
C95 C96 1.382 . S
C95 H121 0.950 . S
C96 N93 1.332 . S
C96 C95 1.382 . S
C96 H107 0.952 . S
C97 C94 1.388 . S
C97 C98 1.382 . S
C97 H122 0.950 . S
C98 N93 1.332 . S
C98 C97 1.382 . S
C98 H108 0.948 . S
N99 Co77 2.282 1_655 S
N99 C103 1.332 . S
N99 C104 1.332 . S
C100 C101 1.388 . S
C100 C104 1.382 . S
C100 H123 0.950 . S
C101 C100 1.388 . S
C101 C102 1.386 . S
C102 C101 1.386 . S
C102 C103 1.382 . S
C102 H124 0.950 . S
C103 N99 1.332 . S
C103 C102 1.382 . S
C103 H105 0.952 . S
C104 N99 1.332 . S
C104 C100 1.382 . S
C104 H106 0.948 . S
H105 C103 0.952 . S
H106 C104 0.948 . S
H107 C96 0.952 . S
H108 C98 0.948 . S
C109 C75 1.395 . S
C109 C79 1.391 1_455 S
C110 C72 1.389 . S
C110 C92 1.392 . S
C111 C82 1.392 . S
C111 C84 1.389 . S
C112 C87 1.395 . S
C112 C89 1.391 . S
H113 C73 0.951 . S
H114 C74 0.950 . S
H115 C80 0.949 . S
H116 C81 0.950 . S
H117 C85 0.951 . S
H118 C86 0.950 . S
H119 C90 0.949 . S
H120 C91 0.950 . S
H121 C95 0.950 . S
H122 C97 0.950 . S
H123 C100 0.950 . S
H124 C102 0.950 . S
C125 C126 1.443 . S
C125 N129 1.376 . S
C125 C163 1.389 . S
C126 C125 1.443 . S
C126 C127 1.340 . S
C126 H166 0.951 . S
C127 C126 1.340 . S
C127 C128 1.439 . S
C127 H167 0.950 . S
C128 C127 1.439 . S
C128 N129 1.374 . S
C128 C162 1.395 . S
N129 C125 1.376 . S
N129 C128 1.374 . S
N129 Co130 2.008 . S
Co130 N129 2.008 . S
Co130 N131 1.995 1_455 S
Co130 N136 2.008 1_455 S
Co130 N141 1.995 . S
Co130 N146 2.282 . S
Co130 N152 2.282 1_455 S
N131 Co130 1.995 1_655 S
N131 C132 1.376 . S
N131 C135 1.383 . S
C132 N131 1.376 . S
C132 C133 1.446 . S
C132 C162 1.391 1_655 S
C133 C132 1.446 . S
C133 C134 1.339 . S
C133 H168 0.949 . S
C134 C133 1.339 . S
C134 C135 1.439 . S
C134 H169 0.950 . S
C135 N131 1.383 . S
C135 C134 1.439 . S
C135 C164 1.392 . S
N136 Co130 2.008 1_655 S
N136 C137 1.376 . S
N136 C140 1.374 1_655 S
C137 N136 1.376 . S
C137 C138 1.443 . S
C137 C164 1.389 . S
C138 C137 1.443 . S
C138 C139 1.340 . S
C138 H170 0.951 . S
C139 C138 1.340 . S
C139 C140 1.439 1_655 S
C139 H171 0.950 . S
C140 N136 1.374 1_455 S
C140 C139 1.439 1_455 S
C140 C165 1.395 . S
N141 Co130 1.995 . S
N141 C142 1.376 . S
N141 C145 1.383 . S
C142 N141 1.376 . S
C142 C143 1.446 . S
C142 C165 1.391 . S
C143 C142 1.446 . S
C143 C144 1.339 . S
C143 H172 0.949 . S
C144 C143 1.339 . S
C144 C145 1.439 . S
C144 H173 0.950 . S
C145 N141 1.383 . S
C145 C144 1.439 . S
C145 C163 1.392 . S
N146 Co130 2.282 . S
N146 C149 1.332 . S
N146 C151 1.332 . S
C147 C148 1.386 . S
C147 C150 1.388 . S
C148 C147 1.386 . S
C148 C149 1.382 . S
C148 H174 0.950 . S
C149 N146 1.332 . S
C149 C148 1.382 . S
C149 H160 0.952 . S
C150 C147 1.388 . S
C150 C151 1.382 . S
C150 H175 0.950 . S
C151 N146 1.332 . S
C151 C150 1.382 . S
C151 H161 0.948 . S
N152 Co130 2.282 1_655 S
N152 C156 1.332 . S
N152 C157 1.332 . S
C153 C154 1.388 . S
C153 C157 1.382 . S
C153 H176 0.950 . S
C154 C153 1.388 . S
C154 C155 1.386 . S
C155 C154 1.386 . S
C155 C156 1.382 . S
C155 H177 0.950 . S
C156 N152 1.332 . S
C156 C155 1.382 . S
C156 H158 0.952 . S
C157 N152 1.332 . S
C157 C153 1.382 . S
C157 H159 0.948 . S
H158 C156 0.952 . S
H159 C157 0.948 . S
H160 C149 0.952 . S
H161 C151 0.948 . S
C162 C128 1.395 . S
C162 C132 1.391 1_455 S
C163 C125 1.389 . S
C163 C145 1.392 . S
C164 C135 1.392 . S
C164 C137 1.389 . S
C165 C140 1.395 . S
C165 C142 1.391 . S
H166 C126 0.951 . S
H167 C127 0.950 . S
H168 C133 0.949 . S
H169 C134 0.950 . S
H170 C138 0.951 . S
H171 C139 0.950 . S
H172 C143 0.949 . S
H173 C144 0.950 . S
H174 C148 0.950 . S
H175 C150 0.950 . S
H176 C153 0.950 . S
H177 C155 0.950 . S
C178 C179 1.443 . S
C178 N182 1.376 . S
C178 C216 1.389 . S
C179 C178 1.443 . S
C179 C180 1.340 . S
C179 H219 0.951 . S
C180 C179 1.340 . S
C180 C181 1.439 . S
C180 H220 0.950 . S
C181 C180 1.439 . S
C181 N182 1.374 . S
C181 C215 1.395 1_565 S
N182 C178 1.376 . S
N182 C181 1.374 . S
N182 Co183 2.008 1_565 S
Co183 N182 2.008 1_545 S
Co183 N184 1.995 . S
Co183 N189 2.008 . S
Co183 N194 1.995 1_545 S
Co183 N199 2.282 . S
Co183 N205 2.282 1_545 S
N184 Co183 1.995 . S
N184 C185 1.376 . S
N184 C188 1.383 . S
C185 N184 1.376 . S
C185 C186 1.446 . S
C185 C215 1.391 . S
C186 C185 1.446 . S
C186 C187 1.339 . S
C186 H221 0.949 . S
C187 C186 1.339 . S
C187 C188 1.439 . S
C187 H222 0.950 . S
C188 N184 1.383 . S
C188 C187 1.439 . S
C188 C217 1.392 . S
N189 Co183 2.008 . S
N189 C190 1.376 . S
N189 C193 1.374 . S
C190 N189 1.376 . S
C190 C191 1.443 . S
C190 C217 1.389 . S
C191 C190 1.443 . S
C191 C192 1.340 . S
C191 H223 0.951 . S
C192 C191 1.340 . S
C192 C193 1.439 . S
C192 H224 0.950 1_455 S
C193 N189 1.374 . S
C193 C192 1.439 . S
C193 C218 1.395 . S
N194 Co183 1.995 1_565 S
N194 C195 1.376 . S
N194 C198 1.383 . S
C195 N194 1.376 . S
C195 C196 1.446 . S
C195 C218 1.391 1_565 S
C196 C195 1.446 . S
C196 C197 1.339 . S
C196 H225 0.949 1_455 S
C197 C196 1.339 . S
C197 C198 1.439 . S
C197 H226 0.950 . S
C198 N194 1.383 . S
C198 C197 1.439 . S
C198 C216 1.392 . S
N199 Co183 2.282 . S
N199 C202 1.332 . S
N199 C204 1.332 . S
C200 C201 1.386 . S
C200 C203 1.388 . S
C201 C200 1.386 . S
C201 C202 1.382 . S
C201 H227 0.950 . S
C202 N199 1.332 . S
C202 C201 1.382 . S
C202 H213 0.952 . S
C203 C200 1.388 . S
C203 C204 1.382 . S
C203 H228 0.950 . S
C204 N199 1.332 . S
C204 C203 1.382 . S
C204 H214 0.948 . S
N205 Co183 2.282 1_565 S
N205 C209 1.332 . S
N205 C210 1.332 . S
C206 C207 1.388 . S
C206 C210 1.382 . S
C206 H229 0.950 . S
C207 C206 1.388 . S
C207 C208 1.386 . S
C208 C207 1.386 . S
C208 C209 1.382 . S
C208 H230 0.950 . S
C209 N205 1.332 . S
C209 C208 1.382 . S
C209 H211 0.952 . S
C210 N205 1.332 . S
C210 C206 1.382 . S
C210 H212 0.948 . S
H211 C209 0.952 . S
H212 C210 0.948 . S
H213 C202 0.952 . S
H214 C204 0.948 . S
C215 C181 1.395 1_545 S
C215 C185 1.391 . S
C216 C178 1.389 . S
C216 C198 1.392 . S
C217 C188 1.392 . S
C217 C190 1.389 . S
C218 C193 1.395 . S
C218 C195 1.391 1_545 S
H219 C179 0.951 . S
H220 C180 0.950 . S
H221 C186 0.949 . S
H222 C187 0.950 . S
H223 C191 0.951 . S
H224 C192 0.950 1_655 S
H225 C196 0.949 1_655 S
H226 C197 0.950 . S
H227 C201 0.950 . S
H228 C203 0.950 . S
H229 C206 0.950 . S
H230 C208 0.950 . S
C231 C232 1.443 . S
C231 N235 1.376 . S
C231 C269 1.389 . S
C232 C231 1.443 . S
C232 C233 1.340 . S
C232 H272 0.951 . S
C233 C232 1.340 . S
C233 C234 1.439 . S
C233 H273 0.950 . S
C234 C233 1.439 . S
C234 N235 1.374 . S
C234 C268 1.395 . S
N235 C231 1.376 . S
N235 C234 1.374 . S
N235 Co236 2.008 . S
Co236 N235 2.008 . S
Co236 N237 1.995 1_554 S
Co236 N242 2.008 1_554 S
Co236 N247 1.995 . S
Co236 N252 2.282 1_554 S
Co236 N258 2.282 . S
N237 Co236 1.995 1_556 S
N237 C238 1.376 . S
N237 C241 1.383 . S
C238 N237 1.376 . S
C238 C239 1.446 . S
C238 C268 1.391 1_556 S
C239 C238 1.446 . S
C239 C240 1.339 . S
C239 H274 0.949 1_565 S
C240 C239 1.339 . S
C240 C241 1.439 . S
C240 H275 0.950 . S
C241 N237 1.383 . S
C241 C240 1.439 . S
C241 C270 1.392 . S
N242 Co236 2.008 1_556 S
N242 C243 1.376 . S
N242 C246 1.374 . S
C243 N242 1.376 . S
C243 C244 1.443 . S
C243 C270 1.389 . S
C244 C243 1.443 . S
C244 C245 1.340 . S
C244 H276 0.951 . S
C245 C244 1.340 . S
C245 C246 1.439 . S
C245 H277 0.950 . S
C246 N242 1.374 . S
C246 C245 1.439 . S
C246 C271 1.395 1_556 S
N247 Co236 1.995 . S
N247 C248 1.376 . S
N247 C251 1.383 . S
C248 N247 1.376 . S
C248 C249 1.446 . S
C248 C271 1.391 . S
C249 C248 1.446 . S
C249 C250 1.339 . S
C249 H278 0.949 . S
C250 C249 1.339 . S
C250 C251 1.439 . S
C250 H279 0.950 . S
C251 N247 1.383 . S
C251 C250 1.439 . S
C251 C269 1.392 . S
N252 Co236 2.282 1_556 S
N252 C255 1.332 . S
N252 C257 1.332 . S
C253 C254 1.386 . S
C253 C256 1.388 . S
C254 C253 1.386 . S
C254 C255 1.382 . S
C254 H280 0.950 . S
C255 N252 1.332 . S
C255 C254 1.382 . S
C255 H266 0.952 . S
C256 C253 1.388 . S
C256 C257 1.382 . S
C256 H281 0.950 . S
C257 N252 1.332 . S
C257 C256 1.382 . S
C257 H267 0.948 . S
N258 Co236 2.282 . S
N258 C262 1.332 . S
N258 C263 1.332 . S
C259 C260 1.388 . S
C259 C263 1.382 . S
C259 H282 0.950 . S
C260 C259 1.388 . S
C260 C261 1.386 . S
C261 C260 1.386 . S
C261 C262 1.382 . S
C261 H283 0.950 . S
C262 N258 1.332 . S
C262 C261 1.382 . S
C262 H264 0.952 . S
C263 N258 1.332 . S
C263 C259 1.382 . S
C263 H265 0.948 . S
H264 C262 0.952 . S
H265 C263 0.948 . S
H266 C255 0.952 . S
H267 C257 0.948 . S
C268 C234 1.395 . S
C268 C238 1.391 1_554 S
C269 C231 1.389 . S
C269 C251 1.392 . S
C270 C241 1.392 . S
C270 C243 1.389 . S
C271 C246 1.395 1_554 S
C271 C248 1.391 . S
H272 C232 0.951 . S
H273 C233 0.950 . S
H274 C239 0.949 1_545 S
H275 C240 0.950 . S
H276 C244 0.951 . S
H277 C245 0.950 . S
H278 C249 0.949 . S
H279 C250 0.950 . S
H280 C254 0.950 . S
H281 C256 0.950 . S
H282 C259 0.950 . S
H283 C261 0.950 . S
C284 C285 1.443 . S
C284 N288 1.376 . S
C284 C322 1.389 . S
C285 C284 1.443 . S
C285 C286 1.340 1_655 S
C285 H325 0.951 . S
C286 C285 1.340 1_455 S
C286 C287 1.439 1_465 S
C286 H326 0.950 . S
C287 C286 1.439 1_645 S
C287 N288 1.374 1_545 S
C287 C321 1.395 1_655 S
N288 C284 1.376 . S
N288 C287 1.374 1_565 S
N288 Co289 2.008 1_565 S
Co289 N288 2.008 1_545 S
Co289 N290 1.995 . S
Co289 N295 2.008 . S
Co289 N300 1.995 1_545 S
Co289 N305 2.282 . S
Co289 N311 2.282 1_545 S
N290 Co289 1.995 . S
N290 C291 1.376 1_655 S
N290 C294 1.383 . S
C291 N290 1.376 1_455 S
C291 C292 1.446 . S
C291 C321 1.391 . S
C292 C291 1.446 . S
C292 C293 1.339 1_455 S
C292 H327 0.949 . S
C293 C292 1.339 1_655 S
C293 C294 1.439 . S
C293 H328 0.950 1_655 S
C294 N290 1.383 . S
C294 C293 1.439 . S
C294 C323 1.392 . S
N295 Co289 2.008 . S
N295 C296 1.376 . S
N295 C299 1.374 . S
C296 N295 1.376 . S
C296 C297 1.443 . S
C296 C323 1.389 . S
C297 C296 1.443 . S
C297 C298 1.340 . S
C297 H329 0.951 . S
C298 C297 1.340 . S
C298 C299 1.439 . S
C298 H330 0.950 . S
C299 N295 1.374 . S
C299 C298 1.439 . S
C299 C324 1.395 . S
N300 Co289 1.995 1_565 S
N300 C301 1.376 . S
N300 C304 1.383 . S
C301 N300 1.376 . S
C301 C302 1.446 . S
C301 C324 1.391 1_565 S
C302 C301 1.446 . S
C302 C303 1.339 . S
C302 H331 0.949 . S
C303 C302 1.339 . S
C303 C304 1.439 . S
C303 H332 0.950 . S
C304 N300 1.383 . S
C304 C303 1.439 . S
C304 C322 1.392 . S
N305 Co289 2.282 . S
N305 C308 1.332 . S
N305 C310 1.332 . S
C306 C307 1.386 . S
C306 C309 1.388 . S
C307 C306 1.386 . S
C307 C308 1.382 . S
C307 H333 0.950 . S
C308 N305 1.332 . S
C308 C307 1.382 . S
C308 H319 0.952 . S
C309 C306 1.388 . S
C309 C310 1.382 . S
C309 H334 0.950 . S
C310 N305 1.332 . S
C310 C309 1.382 . S
C310 H320 0.948 . S
N311 Co289 2.282 1_565 S
N311 C315 1.332 . S
N311 C316 1.332 . S
C312 C313 1.388 . S
C312 C316 1.382 . S
C312 H335 0.950 . S
C313 C312 1.388 . S
C313 C314 1.386 . S
C314 C313 1.386 . S
C314 C315 1.382 . S
C314 H336 0.950 . S
C315 N311 1.332 . S
C315 C314 1.382 . S
C315 H317 0.952 . S
C316 N311 1.332 . S
C316 C312 1.382 . S
C316 H318 0.948 . S
H317 C315 0.952 . S
H318 C316 0.948 . S
H319 C308 0.952 . S
H320 C310 0.948 . S
C321 C287 1.395 1_455 S
C321 C291 1.391 . S
C322 C284 1.389 . S
C322 C304 1.392 . S
C323 C294 1.392 . S
C323 C296 1.389 . S
C324 C299 1.395 . S
C324 C301 1.391 1_545 S
H325 C285 0.951 . S
H326 C286 0.950 . S
H327 C292 0.949 . S
H328 C293 0.950 1_455 S
H329 C297 0.951 . S
H330 C298 0.950 . S
H331 C302 0.949 . S
H332 C303 0.950 . S
H333 C307 0.950 . S
H334 C309 0.950 . S
H335 C312 0.950 . S
H336 C314 0.950 . S
C337 C338 1.443 . S
C337 N341 1.376 . S
C337 C375 1.389 . S
C338 C337 1.443 . S
C338 C339 1.340 . S
C338 H378 0.951 . S
C339 C338 1.340 . S
C339 C340 1.439 . S
C339 H379 0.950 . S
C340 C339 1.439 . S
C340 N341 1.374 . S
C340 C374 1.395 . S
N341 C337 1.376 . S
N341 C340 1.374 . S
N341 Co342 2.008 . S
Co342 N341 2.008 . S
Co342 N343 1.995 . S
Co342 N348 2.008 . S
Co342 N353 1.995 . S
Co342 N358 2.282 . S
Co342 N364 2.282 . S
N343 Co342 1.995 . S
N343 C344 1.376 . S
N343 C347 1.383 1_554 S
C344 N343 1.376 . S
C344 C345 1.446 1_554 S
C344 C374 1.391 . S
C345 C344 1.446 1_556 S
C345 C346 1.339 . S
C345 H380 0.949 . S
C346 C345 1.339 . S
C346 C347 1.439 . S
C346 H381 0.950 . S
C347 N343 1.383 1_556 S
C347 C346 1.439 . S
C347 C376 1.392 . S
N348 Co342 2.008 . S
N348 C349 1.376 1_554 S
N348 C352 1.374 . S
C349 N348 1.376 1_556 S
C349 C350 1.443 . S
C349 C376 1.389 . S
C350 C349 1.443 . S
C350 C351 1.340 . S
C350 H382 0.951 . S
C351 C350 1.340 . S
C351 C352 1.439 1_556 S
C351 H383 0.950 . S
C352 N348 1.374 . S
C352 C351 1.439 1_554 S
C352 C377 1.395 . S
N353 Co342 1.995 . S
N353 C354 1.376 . S
N353 C357 1.383 . S
C354 N353 1.376 . S
C354 C355 1.446 . S
C354 C377 1.391 . S
C355 C354 1.446 . S
C355 C356 1.339 . S
C355 H384 0.949 . S
C356 C355 1.339 . S
C356 C357 1.439 . S
C356 H385 0.950 . S
C357 N353 1.383 . S
C357 C356 1.439 . S
C357 C375 1.392 . S
N358 Co342 2.282 . S
N358 C361 1.332 1_554 S
N358 C363 1.332 1_554 S
C359 C360 1.386 . S
C359 C362 1.388 . S
C360 C359 1.386 . S
C360 C361 1.382 . S
C360 H386 0.950 . S
C361 N358 1.332 1_556 S
C361 C360 1.382 . S
C361 H372 0.952 1_556 S
C362 C359 1.388 . S
C362 C363 1.382 . S
C362 H387 0.950 . S
C363 N358 1.332 1_556 S
C363 C362 1.382 . S
C363 H373 0.948 . S
N364 Co342 2.282 . S
N364 C368 1.332 . S
N364 C369 1.332 . S
C365 C366 1.388 . S
C365 C369 1.382 . S
C365 H388 0.950 . S
C366 C365 1.388 . S
C366 C367 1.386 . S
C367 C366 1.386 . S
C367 C368 1.382 . S
C367 H389 0.950 . S
C368 N364 1.332 . S
C368 C367 1.382 . S
C368 H370 0.952 . S
C369 N364 1.332 . S
C369 C365 1.382 . S
C369 H371 0.948 . S
H370 C368 0.952 . S
H371 C369 0.948 . S
H372 C361 0.952 1_554 S
H373 C363 0.948 . S
C374 C340 1.395 . S
C374 C344 1.391 . S
C375 C337 1.389 . S
C375 C357 1.392 . S
C376 C347 1.392 . S
C376 C349 1.389 . S
C377 C352 1.395 . S
C377 C354 1.391 . S
H378 C338 0.951 . S
H379 C339 0.950 . S
H380 C345 0.949 . S
H381 C346 0.950 . S
H382 C350 0.951 . S
H383 C351 0.950 . S
H384 C355 0.949 . S
H385 C356 0.950 . S
H386 C360 0.950 . S
H387 C362 0.950 . S
H388 C365 0.950 . S
H389 C367 0.950 . S
C94 C4 1.628 . S
C163 C13 1.602 . S
C101 C25 1.616 . S
C164 C34 1.611 . S
C217 C7 1.646 . S
C253 C14 1.545 . S
C23 C313 1.583 . S
C376 C31 1.550 . S
C216 C16 1.616 . S
C22 C260 1.547 . S
C306 C32 1.589 . S
C375 C5 1.552 . S
C43 C154 1.630 . S
C111 C52 1.602 . S
C58 C147 1.622 . S
C68 C110 1.609 . S
C322 C40 1.608 . S
C366 C50 1.543 . S
C200 C59 1.641 . S
C70 C269 1.541 . S
C323 C49 1.582 . S
C359 C61 1.534 . S
C207 C67 1.656 . S
C41 C270 1.544 . S
