# Generated by pormake.
# Topology csq, (4,8)-cn, num edge types: 1
# Building blocks:
#     Node 0, Type 0, BuildingBlock: IZENUY_clean_linker_0, # of connection points: 4
#     Node 1, Type 0, BuildingBlock: IZENUY_clean_linker_0, # of connection points: 4
#     Node 2, Type 0, BuildingBlock: IZENUY_clean_linker_0, # of connection points: 4
#     Node 3, Type 0, BuildingBlock: IZENUY_clean_linker_0, # of connection points: 4
#     Node 4, Type 0, BuildingBlock: IZENUY_clean_linker_0, # of connection points: 4
#     Node 5, Type 0, BuildingBlock: IZENUY_clean_linker_0, # of connection points: 4
#     Node 6, Type 1, BuildingBlock: TAGTUT_clean_sbu_3, # of connection points: 8
#     Node 7, Type 1, BuildingBlock: TAGTUT_clean_sbu_3, # of connection points: 8
#     Node 8, Type 1, BuildingBlock: TAGTUT_clean_sbu_3, # of connection points: 8
#     Edge 9, Type (0, 1), BuildingBlock: EZIPEK_clean_linker_0, # of connection points: 2
#     Edge 10, Type (0, 1), BuildingBlock: EZIPEK_clean_linker_0, # of connection points: 2
#     Edge 11, Type (0, 1), BuildingBlock: EZIPEK_clean_linker_0, # of connection points: 2
#     Edge 12, Type (0, 1), BuildingBlock: EZIPEK_clean_linker_0, # of connection points: 2
#     Edge 13, Type (0, 1), BuildingBlock: EZIPEK_clean_linker_0, # of connection points: 2
#     Edge 14, Type (0, 1), BuildingBlock: EZIPEK_clean_linker_0, # of connection points: 2
#     Edge 15, Type (0, 1), BuildingBlock: EZIPEK_clean_linker_0, # of connection points: 2
#     Edge 16, Type (0, 1), BuildingBlock: EZIPEK_clean_linker_0, # of connection points: 2
#     Edge 17, Type (0, 1), BuildingBlock: EZIPEK_clean_linker_0, # of connection points: 2
#     Edge 18, Type (0, 1), BuildingBlock: EZIPEK_clean_linker_0, # of connection points: 2
#     Edge 19, Type (0, 1), BuildingBlock: EZIPEK_clean_linker_0, # of connection points: 2
#     Edge 20, Type (0, 1), BuildingBlock: EZIPEK_clean_linker_0, # of connection points: 2
#     Edge 21, Type (0, 1), BuildingBlock: EZIPEK_clean_linker_0, # of connection points: 2
#     Edge 22, Type (0, 1), BuildingBlock: EZIPEK_clean_linker_0, # of connection points: 2
#     Edge 23, Type (0, 1), BuildingBlock: EZIPEK_clean_linker_0, # of connection points: 2
#     Edge 24, Type (0, 1), BuildingBlock: EZIPEK_clean_linker_0, # of connection points: 2
#     Edge 25, Type (0, 1), BuildingBlock: EZIPEK_clean_linker_0, # of connection points: 2
#     Edge 26, Type (0, 1), BuildingBlock: EZIPEK_clean_linker_0, # of connection points: 2
#     Edge 27, Type (0, 1), BuildingBlock: EZIPEK_clean_linker_0, # of connection points: 2
#     Edge 28, Type (0, 1), BuildingBlock: EZIPEK_clean_linker_0, # of connection points: 2
#     Edge 29, Type (0, 1), BuildingBlock: EZIPEK_clean_linker_0, # of connection points: 2
#     Edge 30, Type (0, 1), BuildingBlock: EZIPEK_clean_linker_0, # of connection points: 2
#     Edge 31, Type (0, 1), BuildingBlock: EZIPEK_clean_linker_0, # of connection points: 2
#     Edge 32, Type (0, 1), BuildingBlock: EZIPEK_clean_linker_0, # of connection points: 2
# Relax obj value: 0.055
# Max RMSD: 0.129
# Mean RMSD: 0.120
data_MOF--net-csq--node1-TAGTUT_clean_sbu_3--node2-IZENUY_clean_linker_0--edge1-EZIPEK_clean_linker_0
_symmetry_space_group_name_H-M    P1
_symmetry_Int_Tables_number       1
_symmetry_cell_setting            triclinic
loop_
_symmetry_equiv_pos_as_xyz
'x, y, z'
_cell_length_a     44.943674
_cell_length_b     44.333082
_cell_length_c     14.042634
_cell_angle_alpha  94.213127
_cell_angle_beta   94.863838
_cell_angle_gamma 119.7665
loop_
_atom_site_label
_atom_site_type_symbol
_atom_site_fract_x
_atom_site_fract_y
_atom_site_fract_z
_atom_type_partial_charge
H0 H 0.20146 0.46901 0.03026 0.0
H1 H 0.21158 0.51249 0.32467 0.0
H2 H 0.11748 0.47594 0.13125 0.0
H3 H 0.29894 0.5007 0.29525 0.0
H4 H 0.29733 0.49897 0.98696 0.0
H5 H 0.38527 0.5098 0.16413 0.0
N6 N 0.24622 0.50023 0.19564 0.0
N7 N 0.26152 0.49811 0.12745 0.0
C8 C 0.19134 0.47743 0.08729 0.0
C9 C 0.15753 0.47134 0.07023 0.0
C10 C 0.21171 0.49376 0.17801 0.0
C11 C 0.19698 0.50212 0.25306 0.0
C12 C 0.16283 0.49565 0.23609 0.0
C13 C 0.14399 0.48149 0.14387 0.0
C14 C 0.31196 0.50394 0.23209 0.0
C15 C 0.34447 0.5063 0.23949 0.0
C16 C 0.29541 0.50297 0.14065 0.0
C17 C 0.31113 0.50285 0.05804 0.0
C18 C 0.34357 0.50522 0.06724 0.0
C19 C 0.36081 0.50937 0.15813 0.0
H20 H 0.71171 0.21555 0.96907 0.0
H21 H 0.72438 0.23014 0.28048 0.0
H22 H 0.63629 0.1389 0.12 0.0
H23 H 0.80962 0.31284 0.2211 0.0
H24 H 0.79286 0.30344 0.91024 0.0
H25 H 0.88665 0.38835 0.07055 0.0
N26 N 0.75215 0.26058 0.13169 0.0
N27 N 0.76419 0.27366 0.05863 0.0
C28 C 0.70193 0.20751 0.03617 0.0
C29 C 0.67142 0.1751 0.03491 0.0
C30 C 0.72046 0.22838 0.12555 0.0
C31 C 0.70898 0.21569 0.21183 0.0
C32 C 0.67893 0.18316 0.20896 0.0
C33 C 0.65928 0.16441 0.12111 0.0
C34 C 0.8177 0.32297 0.15425 0.0
C35 C 0.85019 0.35331 0.15632 0.0
C36 C 0.79642 0.30532 0.06499 0.0
C37 C 0.80827 0.31785 0.97894 0.0
C38 C 0.84096 0.34753 0.98122 0.0
C39 C 0.8611 0.36565 0.06961 0.0
H40 H 0.54341 0.72765 0.91227 0.0
H41 H 0.51718 0.71637 0.20134 0.0
H42 H 0.53067 0.63825 0.04354 0.0
H43 H 0.53999 0.81285 0.16542 0.0
H44 H 0.53146 0.81198 0.85632 0.0
H45 H 0.54053 0.89865 0.04229 0.0
N46 N 0.53044 0.75811 0.06598 0.0
N47 N 0.5336 0.77519 -0.00319 0.0
C48 C 0.53744 0.71307 0.97333 0.0
C49 C 0.53721 0.68127 0.96821 0.0
C50 C 0.52987 0.72572 0.05735 0.0
C51 C 0.52271 0.70654 0.13625 0.0
C52 C 0.52347 0.67515 0.132 0.0
C53 C 0.53037 0.66265 0.04748 0.0
C54 C 0.53862 0.82484 0.10194 0.0
C55 C 0.54073 0.85742 0.11354 0.0
C56 C 0.5353 0.80817 0.00914 0.0
C57 C 0.53411 0.82467 0.928 0.0
C58 C 0.53564 0.85727 0.93973 0.0
C59 C 0.53918 0.87347 0.03272 0.0
H60 H 0.73 0.52919 0.91932 0.0
H61 H 0.7603 0.57118 0.22145 0.0
H62 H 0.66386 0.55245 0.07443 0.0
H63 H 0.84265 0.57273 0.14678 0.0
H64 H 0.8154 0.52351 0.85068 0.0
H65 H 0.91857 0.56564 -0.00051 0.0
N66 N 0.78261 0.55436 0.06812 0.0
N67 N 0.79165 0.54544 -0.00568 0.0
C68 C 0.72513 0.53907 0.9855 0.0
C69 C 0.69437 0.53997 0.98696 0.0
C70 C 0.7498 0.55177 0.06914 0.0
C71 C 0.74216 0.56285 0.15583 0.0
C72 C 0.71071 0.56237 0.15785 0.0
C73 C 0.68789 0.55227 0.07274 0.0
C74 C 0.84974 0.5657 0.0804 0.0
C75 C 0.88272 0.57006 0.08121 0.0
C76 C 0.82539 0.54995 -0.004 0.0
C77 C 0.83455 0.5377 0.91378 0.0
C78 C 0.86852 0.54353 0.91474 0.0
C79 C 0.89259 0.56157 -0.00281 0.0
H80 H 0.196 0.72094 0.00043 0.0
H81 H 0.21483 0.74698 0.30993 0.0
H82 H 0.12701 0.6491 0.1758 0.0
H83 H 0.30231 0.81766 0.20887 0.0
H84 H 0.25725 0.82202 0.93028 0.0
H85 H 0.35517 0.90857 0.06597 0.0
N86 N 0.23895 0.7706 0.15025 0.0
N87 N 0.2456 0.78347 0.07338 0.0
C88 C 0.18886 0.71442 0.07104 0.0
C89 C 0.15952 0.68216 0.07877 0.0
C90 C 0.2091 0.7378 0.15477 0.0
C91 C 0.1996 0.7288 0.24556 0.0
C92 C 0.16984 0.69704 0.2533 0.0
C93 C 0.15007 0.67372 0.16988 0.0
C94 C 0.30325 0.83157 0.14785 0.0
C95 C 0.33155 0.86536 0.14774 0.0
C96 C 0.27572 0.81634 0.07094 0.0
C97 C 0.27798 0.83401 -0.00949 0.0
C98 C 0.30731 0.86676 0.98728 0.0
C99 C 0.33306 0.88272 0.06748 0.0
H100 H 0.50633 0.20812 0.06728 0.0
H101 H 0.47664 0.19886 0.35295 0.0
H102 H 0.49694 0.12274 0.2122 0.0
H103 H 0.47888 0.28678 0.27282 0.0
H104 H 0.47949 0.27443 0.96504 0.0
H105 H 0.47488 0.36157 0.10337 0.0
N106 N 0.48486 0.23564 0.2038 0.0
N107 N 0.48378 0.24729 0.12585 0.0
C108 C 0.50075 0.19462 0.13043 0.0
C109 C 0.50213 0.16381 0.13046 0.0
C110 C 0.49022 0.20673 0.20873 0.0
C111 C 0.48421 0.18941 0.29151 0.0
C112 C 0.48744 0.15942 0.29348 0.0
C113 C 0.49568 0.14657 0.21211 0.0
C114 C 0.47777 0.29524 0.20281 0.0
C115 C 0.47688 0.3261 0.19683 0.0
C116 C 0.47941 0.27674 0.11966 0.0
C117 C 0.47836 0.28861 0.02952 0.0
C118 C 0.47619 0.31905 0.02327 0.0
C119 C 0.47569 0.33762 0.10737 0.0
C120 C 0.06389 0.48887 0.48691 0.0
C121 C 0.04889 0.43409 0.79906 0.0
C122 C 0.94548 0.42241 0.76196 0.0
Mg123 Mg 0.03002 0.53553 0.40274 0.0
Mg124 Mg 0.01598 0.58363 0.56301 0.0
O125 O 0.00562 0.53861 0.51159 0.0
Mg126 Mg 0.01583 0.51182 0.60138 0.0
O127 O 0.02632 0.48347 0.68608 0.0
Mg128 Mg 1.00225 0.43681 0.60425 0.0
Mg129 Mg 0.01932 0.4842 0.81496 0.0
C130 C 0.96582 0.53708 0.70174 0.0
O131 O 0.05634 0.56098 0.70865 0.0
O132 O 0.99935 0.55815 0.32391 0.0
O133 O 0.04794 0.54088 0.85325 0.0
O134 O 0.07554 0.59221 0.44602 0.0
O135 O 0.99273 0.59212 0.4384 0.0
O136 O 0.07066 0.62028 0.57694 0.0
O137 O 0.97624 0.46058 0.50654 0.0
O138 O 0.98334 0.47962 0.36285 0.0
C139 C 0.96758 0.45539 0.41497 0.0
C140 C 0.98796 0.57847 0.35122 0.0
O141 O 0.97296 0.51263 0.68332 0.0
O142 O 0.03346 0.42152 0.71214 0.0
O143 O 0.98286 0.56742 0.67432 0.0
O144 O 0.95528 0.41379 0.68717 0.0
O145 O 0.04629 0.4575 0.85045 0.0
O146 O 0.9652 0.45049 0.81949 0.0
O147 O 0.05591 0.51273 0.50417 0.0
O148 O 0.04887 0.46063 0.52475 0.0
C149 C 0.08745 0.61922 0.50921 0.0
C150 C 0.06226 0.56576 0.80153 0.0
C151 C 0.49404 0.0592 0.48093 0.0
C152 C 0.60255 0.06536 0.3835 0.0
C153 C 0.55297 0.95392 0.41825 0.0
Mg154 Mg 0.44747 0.01586 0.6362 0.0
Mg155 Mg 0.47957 0.99179 0.81442 0.0
O156 O 0.46959 0.98844 0.68053 0.0
Mg157 Mg 0.50903 0.00698 0.6044 0.0
O158 O 0.54603 0.02607 0.52394 0.0
Mg159 Mg 0.5191 0.00711 0.39336 0.0
Mg160 Mg 0.58507 0.02146 0.55125 0.0
C161 C 0.51846 0.95306 0.74047 0.0
O162 O 0.5515 0.04695 0.728 0.0
O163 O 0.40213 0.97975 0.71733 0.0
O164 O 0.59922 0.0448 0.69898 0.0
O165 O 0.4744 0.05839 0.7667 0.0
O166 O 0.42654 0.96522 0.83901 0.0
O167 O 0.50558 0.04631 0.87079 0.0
O168 O 0.471 0.96977 0.46942 0.0
O169 O 0.42574 0.97498 0.50303 0.0
C170 C 0.43914 0.96156 0.44964 0.0
C171 C 0.40009 0.96335 0.79049 0.0
O172 O 0.52075 0.96461 0.65814 0.0
O173 O 0.57049 0.04888 0.34586 0.0
O174 O 0.50637 0.96241 0.80912 0.0
O175 O 0.53481 0.96524 0.37651 0.0
O176 O 0.61387 0.05781 0.45916 0.0
O177 O 0.57274 0.9695 0.4978 0.0
O178 O 0.49444 0.04752 0.56119 0.0
O179 O 0.50314 0.04856 0.40826 0.0
C180 C 0.49739 0.06791 0.84003 0.0
C181 C 0.58376 0.0566 0.74901 0.0
C182 C 0.53485 0.57565 0.74319 0.0
C183 C 0.42891 0.47456 0.85345 0.0
C184 C 0.47182 0.40918 0.76498 0.0
Mg185 Mg 0.57584 0.57617 0.56805 0.0
Mg186 Mg 0.53478 0.51894 0.3739 0.0
O187 O 0.54832 0.52581 0.50704 0.0
Mg188 Mg 0.51233 0.50611 0.59534 0.0
O189 O 0.47904 0.48939 0.68867 0.0
Mg190 Mg 0.50969 0.4987 0.80997 0.0
Mg191 Mg 0.43919 0.4449 0.66119 0.0
C192 C 0.49356 0.44139 0.43061 0.0
O193 O 0.46709 0.50308 0.49407 0.0
O194 O 0.61713 0.58144 0.46787 0.0
O195 O 0.42079 0.45314 0.52493 0.0
O196 O 0.55003 0.59542 0.45857 0.0
O197 O 0.58667 0.54038 0.33885 0.0
O198 O 0.51436 0.55281 0.34262 0.0
O199 O 0.55283 0.50593 0.70969 0.0
O200 O 0.59813 0.55565 0.68093 0.0
C201 C 0.58545 0.52842 0.72468 0.0
C202 C 0.6154 0.56462 0.3868 0.0
O203 O 0.49618 0.45178 0.52029 0.0
O204 O 0.46179 0.4914 0.88211 0.0
O205 O 0.50322 0.46211 0.36575 0.0
O206 O 0.49184 0.43968 0.81197 0.0
O207 O 0.41499 0.4541 0.77393 0.0
O208 O 0.45105 0.40454 0.6902 0.0
O209 O 0.53158 0.5623 0.65718 0.0
O210 O 0.52741 0.55684 0.81162 0.0
C211 C 0.52644 0.58378 0.38593 0.0
C212 C 0.43448 0.48001 0.4799 0.0
C213 C 0.11722 0.4637 0.33671 0.0
C214 C 0.1431 0.49631 0.31545 0.0
C215 C 0.12118 0.52547 0.42001 0.0
C216 C 0.09096 0.4925 0.4246 0.0
N217 N 0.05812 0.43005 0.36187 0.0
N218 N 0.1679 0.55885 0.32846 0.0
C219 C 0.08844 0.46151 0.37625 0.0
C220 C 0.14459 0.52745 0.35456 0.0
N221 N 0.11973 0.43445 0.31707 0.0
N222 N 0.12918 0.55444 0.4819 0.0
H223 H 0.1861 0.56121 0.28355 0.0
H224 H 0.16747 0.58185 0.3465 0.0
H225 H 0.11473 0.55423 0.5362 0.0
H226 H 0.15289 0.57758 0.48715 0.0
H227 H 0.10302 0.41047 0.33931 0.0
H228 H 0.14073 0.43522 0.28828 0.0
H229 H 0.05472 0.40821 0.31819 0.0
H230 H 0.03509 0.42633 0.38266 0.0
C231 C 0.68094 0.13916 0.29979 0.0
C232 C 0.66979 0.16376 0.2924 0.0
C233 C 0.61921 0.12725 0.36836 0.0
C234 C 0.62615 0.09933 0.35343 0.0
N235 N 0.66372 0.07827 0.30671 0.0
N236 N 0.63042 0.18361 0.32509 0.0
C237 C 0.65745 0.10532 0.32145 0.0
C238 C 0.6399 0.15884 0.33067 0.0
N239 N 0.71343 0.14794 0.28149 0.0
N240 N 0.59356 0.12389 0.42036 0.0
H241 H 0.64635 0.2076 0.30137 0.0
H242 H 0.60659 0.17986 0.33996 0.0
H243 H 0.57831 0.10144 0.45144 0.0
H244 H 0.58944 0.14446 0.44031 0.0
H245 H 0.72422 0.13218 0.29181 0.0
H246 H 0.73079 0.17273 0.26491 0.0
H247 H 0.68445 0.08018 0.27414 0.0
H248 H 0.64667 0.05292 0.32041 0.0
C249 C 0.4886 0.61999 0.20448 0.0
C250 C 0.51751 0.65458 0.21473 0.0
C251 C 0.53825 0.64517 0.3698 0.0
C252 C 0.5164 0.60839 0.34408 0.0
N253 N 0.46295 0.56187 0.25386 0.0
N254 N 0.57095 0.70026 0.30886 0.0
C255 C 0.48885 0.5961 0.26687 0.0
C256 C 0.54238 0.66751 0.29869 0.0
N257 N 0.46088 0.61044 0.13616 0.0
N258 N 0.55361 0.65897 0.46265 0.0
H259 H 0.57548 0.71755 0.25817 0.0
H260 H 0.59148 0.70907 0.36439 0.0
H261 H 0.54721 0.64385 0.51915 0.0
H262 H 0.5681 0.68588 0.48538 0.0
H263 H 0.4377 0.58671 0.12978 0.0
H264 H 0.46005 0.62777 0.09102 0.0
H265 H 0.4455 0.54972 0.19083 0.0
H266 H 0.45892 0.54571 0.30754 0.0
C267 C 0.93732 0.60764 0.19191 0.0
C268 C 0.90525 0.5758 0.1711 0.0
C269 C 0.92644 0.54819 0.28062 0.0
C270 C 0.96009 0.57799 0.28811 0.0
N271 N 0.99861 0.63622 0.25334 0.0
N272 N 0.86931 0.51463 0.18968 0.0
C273 C 0.96582 0.60805 0.24545 0.0
C274 C 0.89954 0.54594 0.21535 0.0
N275 N 0.94026 0.63706 0.15859 0.0
N276 N 0.92001 0.52227 0.33712 0.0
H277 H 0.84815 0.51175 0.14481 0.0
H278 H 0.8659 0.4909 0.20829 0.0
H279 H 0.93911 0.52224 0.38476 0.0
H280 H 0.89518 0.50216 0.34292 0.0
H281 H 0.96213 0.66188 0.17596 0.0
H282 H 0.91932 0.63688 0.11956 0.0
H283 H 0.00521 0.65788 0.21715 0.0
H284 H 0.01989 0.6369 0.29176 0.0
C285 C 0.39502 0.89976 0.21225 0.0
C286 C 0.36009 0.8835 0.23046 0.0
C287 C 0.38138 0.90765 0.39971 0.0
C288 C 0.41447 0.93139 0.37565 0.0
N289 N 0.45065 0.95259 0.25013 0.0
N290 N 0.32031 0.87787 0.34403 0.0
C291 C 0.42111 0.92785 0.27976 0.0
C292 C 0.35318 0.88857 0.32522 0.0
N293 N 0.40316 0.8888 0.13021 0.0
N294 N 0.37687 0.90326 0.49359 0.0
H295 H 0.29879 0.86649 0.29095 0.0
H296 H 0.3151 0.88405 0.41138 0.0
H297 H 0.39765 0.91532 0.54916 0.0
H298 H 0.35359 0.88449 0.51376 0.0
H299 H 0.42864 0.89838 0.11736 0.0
H300 H 0.38465 0.8675 0.08088 0.0
H301 H 0.45509 0.9523 0.17847 0.0
H302 H 0.46843 0.97551 0.29444 0.0
C303 C 0.51252 0.37265 0.33524 0.0
C304 C 0.47931 0.34834 0.28416 0.0
C305 C 0.45381 0.37826 0.36856 0.0
C306 C 0.4876 0.40605 0.40291 0.0
N307 N 0.54909 0.42916 0.43353 0.0
N308 N 0.41765 0.3245 0.25828 0.0
C309 C 0.51692 0.40261 0.39274 0.0
C310 C 0.44955 0.3497 0.3043 0.0
N311 N 0.53981 0.36753 0.32619 0.0
N312 N 0.42621 0.37965 0.39735 0.0
H313 H 0.41386 0.30248 0.21444 0.0
H314 H 0.39518 0.32566 0.26132 0.0
H315 H 0.4295 0.4002 0.44673 0.0
H316 H 0.4006 0.35951 0.37948 0.0
H317 H 0.56408 0.38259 0.36722 0.0
H318 H 0.53775 0.34653 0.2817 0.0
H319 H 0.5722 0.43081 0.41985 0.0
H320 H 0.55279 0.45049 0.48041 0.0
C321 C 0.49933 0.86642 0.81202 0.0
C322 C 0.53264 0.87518 0.85674 0.0
C323 C 0.55868 0.93126 0.79082 0.0
C324 C 0.52505 0.92398 0.75531 0.0
N325 N 0.46517 0.88145 0.7028 0.0
N326 N 0.59449 0.9105 0.86829 0.0
C327 C 0.496 0.89023 0.75558 0.0
C328 C 0.56257 0.9058 0.83835 0.0
N329 N 0.47076 0.83662 0.82923 0.0
N330 N 0.58648 0.96309 0.78267 0.0
H331 H 0.59757 0.89193 0.90268 0.0
H332 H 0.61759 0.93112 0.85319 0.0
H333 H 0.584 0.98094 0.74317 0.0
H334 H 0.61157 0.97208 0.81554 0.0
H335 H 0.44547 0.83081 0.80903 0.0
H336 H 0.47237 0.81815 0.86788 0.0
H337 H 0.44342 0.85643 0.69331 0.0
H338 H 0.46243 0.89866 0.66091 0.0
C339 C 0.63282 0.50237 0.91397 0.0
C340 C 0.66718 0.52704 0.9019 0.0
C341 C 0.64455 0.53535 0.74905 0.0
C342 C 0.61109 0.52113 0.7785 0.0
N343 N 0.57433 0.49055 0.89715 0.0
N344 N 0.70568 0.56916 0.8055 0.0
C345 C 0.60505 0.50357 0.86196 0.0
C346 C 0.67326 0.54376 0.81787 0.0
N347 N 0.62701 0.47903 0.97829 0.0
N348 N 0.64886 0.54019 0.65528 0.0
H349 H 0.7276 0.57728 0.85529 0.0
H350 H 0.71012 0.58415 0.74883 0.0
H351 H 0.62785 0.5314 0.60138 0.0
H352 H 0.67252 0.54844 0.62999 0.0
H353 H 0.60235 0.45869 0.98477 0.0
H354 H 0.64728 0.47796 0.01711 0.0
H355 H 0.5704 0.48082 0.96312 0.0
H356 H 0.55388 0.49247 0.86574 0.0
C357 C 0.10768 0.65544 0.95026 0.0
C358 C 0.13821 0.65661 -0.00808 0.0
C359 C 0.12213 0.60181 0.89097 0.0
C360 C 0.0908 0.59979 0.85269 0.0
N361 N 0.05758 0.62801 0.82568 0.0
N362 N 0.17852 0.6358 -0.01068 0.0
C363 C 0.0849 0.62785 0.87563 0.0
C364 C 0.1468 0.63139 0.95765 0.0
N365 N 0.09991 0.67998 0.98487 0.0
N366 N 0.12759 0.57472 0.86574 0.0
H367 H 0.19679 0.65673 0.0399 0.0
H368 H 0.1879 0.62032 0.96103 0.0
H369 H 0.11122 0.55387 0.81222 0.0
H370 H 0.14751 0.57204 0.89951 0.0
H371 H 0.07626 0.67846 0.96615 0.0
H372 H 0.11674 0.70134 0.03647 0.0
H373 H 0.05312 0.6489 0.8327 0.0
H374 H 0.04102 0.60822 0.77023 0.0
C375 C 0.53597 0.14019 0.05321 0.0
C376 C 0.50898 0.14816 0.04422 0.0
C377 C 0.49352 0.12176 0.87683 0.0
C378 C 0.51083 0.10315 0.897 0.0
N379 N 0.55729 0.10259 -0.00416 0.0
N380 N 0.45922 0.14304 0.94492 0.0
C381 C 0.53518 0.11507 0.98236 0.0
C382 C 0.4873 0.13868 0.95476 0.0
N383 N 0.56232 0.15698 0.12838 0.0
N384 N 0.48347 0.1237 0.78416 0.0
H385 H 0.45138 0.15254 0.00174 0.0
H386 H 0.44152 0.13349 0.88179 0.0
H387 H 0.49102 0.11462 0.72559 0.0
H388 H 0.47229 0.13874 0.76735 0.0
H389 H 0.58417 0.15442 0.13504 0.0
H390 H 0.56381 0.17624 0.17931 0.0
H391 H 0.57187 0.10623 0.06182 0.0
H392 H 0.56114 0.08867 0.94011 0.0
C393 C 0.35216 0.46143 0.97469 0.0
C394 C 0.35782 0.496 0.98624 0.0
C395 C 0.40845 0.51595 0.90156 0.0
C396 C 0.40597 0.48274 0.90481 0.0
N397 N 0.37709 0.42443 0.94936 0.0
N398 N 0.39025 0.55629 0.96089 0.0
C399 C 0.37801 0.45546 0.94178 0.0
C400 C 0.38547 0.52324 0.94852 0.0
N401 N 0.32226 0.43456 -0.00244 0.0
N402 N 0.43194 0.53999 0.85109 0.0
H403 H 0.37256 0.56162 -0.00943 0.0
H404 H 0.41211 0.5784 0.94553 0.0
H405 H 0.4493 0.53578 0.81569 0.0
H406 H 0.43266 0.56314 0.83804 0.0
H407 H 0.31507 0.40826 0.9838 0.0
H408 H 0.30299 0.43842 0.02218 0.0
H409 H 0.35936 0.40475 0.98474 0.0
H410 H 0.39601 0.41945 0.92727 0.0
C411 C 0.88001 0.34509 0.87132 0.0
C412 C 0.85762 0.35761 0.8934 0.0
C413 C 0.88552 0.4047 0.79444 0.0
C414 C 0.91234 0.39674 0.79122 0.0
N415 N 0.93591 0.35955 0.82676 0.0
N416 N 0.83549 0.39626 0.86939 0.0
C417 C 0.9094 0.36641 0.82729 0.0
C418 C 0.85888 0.38618 0.85123 0.0
N419 N 0.87363 0.31333 0.89556 0.0
N420 N 0.88583 0.42992 0.74346 0.0
H421 H 0.81512 0.38205 0.90797 0.0
H422 H 0.83647 0.41869 0.84819 0.0
H423 H 0.90509 0.44344 0.70092 0.0
H424 H 0.86594 0.43557 0.7371 0.0
H425 H 0.88717 0.3012 0.8739 0.0
H426 H 0.85244 0.29748 0.92937 0.0
H427 H 0.93714 0.34049 0.86319 0.0
H428 H 0.9581 0.37441 0.7955 0.0
C429 C 0.88739 0.5433 0.75027 0.0
C430 C 0.88042 0.52873 0.83761 0.0
C431 C 0.92588 0.51377 0.82899 0.0
C432 C 0.93365 0.52923 0.74306 0.0
N433 N 0.91189 0.54467 0.60254 0.0
N434 N 0.88301 0.48791 0.93696 0.0
C435 C 0.91103 0.53931 0.69708 0.0
C436 C 0.89578 0.50897 0.8671 0.0
N437 N 0.87343 0.56285 0.72105 0.0
N438 N 0.9485 0.50654 0.87885 0.0
H439 H 0.86116 0.48467 0.96625 0.0
H440 H 0.89188 0.47136 0.95789 0.0
H441 H 0.97213 0.51227 0.85707 0.0
H442 H 0.94534 0.4981 0.94652 0.0
H443 H 0.88112 0.57757 0.66401 0.0
H444 H 0.85555 0.56585 0.7571 0.0
H445 H 0.89415 0.54942 0.56381 0.0
H446 H 0.92771 0.5403 0.56014 0.0
C447 C 0.32941 0.8741 0.83056 0.0
C448 C 0.31419 0.88465 0.89965 0.0
C449 C 0.3443 0.94451 0.85778 0.0
C450 C 0.36588 0.93569 0.80929 0.0
N451 N 0.37797 0.89189 0.74146 0.0
N452 N 0.30042 0.9268 0.96574 0.0
C453 C 0.35752 0.90019 0.79101 0.0
C454 C 0.3188 0.91881 0.90651 0.0
N455 N 0.3178 0.8393 0.80594 0.0
N456 N 0.34934 0.97759 0.86042 0.0
H457 H 0.28106 0.90757 -0.00106 0.0
H458 H 0.30432 0.95185 0.98277 0.0
H459 H 0.36838 0.99678 0.82653 0.0
H460 H 0.33357 0.98551 0.89063 0.0
H461 H 0.32598 0.82962 0.75042 0.0
H462 H 0.29717 0.81976 0.83425 0.0
H463 H 0.376 0.8674 0.73605 0.0
H464 H 0.39847 0.91023 0.70985 0.0
C465 C 0.50534 0.35909 0.90103 0.0
C466 C 0.47453 0.33292 0.93063 0.0
C467 C 0.44033 0.35168 0.83322 0.0
C468 C 0.47131 0.37874 0.80544 0.0
N469 N 0.53153 0.40173 0.79029 0.0
N470 N 0.41261 0.29713 0.90243 0.0
C471 C 0.50326 0.38015 0.83171 0.0
C472 C 0.44198 0.32663 0.8879 0.0
N473 N 0.53663 0.36499 0.94309 0.0
N474 N 0.40989 0.3516 0.81576 0.0
H475 H 0.41336 0.27872 0.94334 0.0
H476 H 0.38816 0.28923 0.8663 0.0
H477 H 0.40714 0.36977 0.77885 0.0
H478 H 0.38775 0.33514 0.84503 0.0
H479 H 0.56022 0.38645 0.93409 0.0
H480 H 0.5388 0.34902 -0.00909 0.0
H481 H 0.55497 0.4022 0.80066 0.0
H482 H 0.53043 0.41689 0.73812 0.0
C483 C 0.13881 0.46827 0.89364 0.0
C484 C 0.13423 0.4519 0.97855 0.0
C485 C 0.07363 0.40997 0.91474 0.0
C486 C 0.07741 0.42879 0.83565 0.0
N487 N 0.11484 0.46541 0.72935 0.0
N488 N 0.10206 0.40023 0.05418 0.0
C489 C 0.11074 0.45394 0.81751 0.0
C490 C 0.10321 0.41997 0.98289 0.0
N491 N 0.16853 0.49903 0.889 0.0
N492 N 0.0414 0.38432 0.92745 0.0
H493 H 0.12378 0.40728 0.10408 0.0
H494 H 0.08088 0.3757 0.05846 0.0
H495 H 0.01986 0.3762 0.87567 0.0
H496 H 0.03596 0.37209 -0.0106 0.0
H497 H 0.17147 0.5143 0.83372 0.0
H498 H 0.18968 0.51047 0.94333 0.0
H499 H 0.13888 0.48207 0.70907 0.0
H500 H 0.09423 0.4552 0.67338 0.0
C501 C 0.65512 0.1167 0.95099 0.0
C502 C 0.65425 0.14824 0.94871 0.0
C503 C 0.61006 0.12071 0.80716 0.0
C504 C 0.6064 0.08761 0.82119 0.0
N505 N 0.62275 0.05342 0.91484 0.0
N506 N 0.62783 0.17922 0.88147 0.0
C507 C 0.62835 0.08542 0.89525 0.0
C508 C 0.63095 0.15007 0.87844 0.0
N509 N 0.68148 0.11679 0.00746 0.0
N510 N 0.59522 0.12468 0.72367 0.0
H511 H 0.64345 0.20161 0.93116 0.0
H512 H 0.60821 0.18011 0.83877 0.0
H513 H 0.58133 0.10437 0.66698 0.0
H514 H 0.60005 0.14905 0.70656 0.0
H515 H 0.68503 0.09528 0.00639 0.0
H516 H 0.70176 0.13958 0.04814 0.0
H517 H 0.63593 0.0501 0.97406 0.0
H518 H 0.60244 0.02994 0.87741 0.0
C519 C 0.518 0.64747 0.8024 0.0
C520 C 0.54455 0.66645 0.88157 0.0
C521 C 0.57366 0.63458 0.83663 0.0
C522 C 0.54492 0.61279 0.76559 0.0
N523 N 0.49881 0.60793 0.65294 0.0
N524 N 0.60294 0.68735 0.95354 0.0
C525 C 0.52033 0.62273 0.73828 0.0
C526 C 0.57454 0.66341 0.89054 0.0
N527 N 0.48932 0.65083 0.79319 0.0
N528 N 0.59888 0.62632 0.85547 0.0
H529 H 0.60355 0.70854 -0.00662 0.0
H530 H 0.62649 0.68797 0.96019 0.0
H531 H 0.59922 0.60615 0.81312 0.0
H532 H 0.6187 0.63865 0.91344 0.0
H533 H 0.46716 0.63423 0.74443 0.0
H534 H 0.48699 0.66916 0.83782 0.0
H535 H 0.48219 0.61628 0.62592 0.0
H536 H 0.50066 0.59033 0.60393 0.0
C537 C 0.50988 0.14847 0.44871 0.0
C538 C 0.48156 0.13934 0.37709 0.0
C539 C 0.45435 0.07808 0.40589 0.0
C540 C 0.48442 0.08648 0.46951 0.0
N541 N 0.53414 0.13024 0.57817 0.0
N542 N 0.42226 0.09939 0.31197 0.0
C543 C 0.50979 0.12205 0.50071 0.0
C544 C 0.45194 0.10541 0.36549 0.0
N545 N 0.53787 0.18164 0.46141 0.0
N546 N 0.42921 0.04382 0.37994 0.0
H547 H 0.42064 0.11944 0.28168 0.0
H548 H 0.39883 0.07585 0.30493 0.0
H549 H 0.42997 0.02365 0.41154 0.0
H550 H 0.40847 0.03533 0.32552 0.0
H551 H 0.56125 0.18893 0.50326 0.0
H552 H 0.53796 0.20165 0.42649 0.0
H553 H 0.55206 0.15583 0.60891 0.0
H554 H 0.53371 0.11111 0.61787 0.0
C555 C 0.35649 0.46398 0.31121 0.0
C556 C 0.35938 0.49739 0.32306 0.0
C557 C 0.40849 0.51778 0.4494 0.0
C558 C 0.41001 0.48701 0.42243 0.0
N559 N 0.38746 0.43237 0.31863 0.0
N560 N 0.3892 0.55715 0.39922 0.0
C561 C 0.3843 0.46029 0.35141 0.0
C562 C 0.38553 0.52457 0.39172 0.0
N563 N 0.32774 0.43632 0.2577 0.0
N564 N 0.42755 0.5396 0.53225 0.0
H565 H 0.37161 0.56226 0.36087 0.0
H566 H 0.4105 0.57912 0.43948 0.0
H567 H 0.44347 0.53483 0.57945 0.0
H568 H 0.42462 0.56037 0.55924 0.0
H569 H 0.32292 0.41067 0.25204 0.0
H570 H 0.30714 0.43868 0.22694 0.0
H571 H 0.37114 0.4137 0.26055 0.0
H572 H 0.40865 0.42994 0.34292 0.0
C573 C 0.90719 0.3707 0.2479 0.0
C574 C 0.87576 0.37089 0.24558 0.0
C575 C 0.90257 0.41867 0.38077 0.0
C576 C 0.93556 0.4231 0.368 0.0
N577 N 0.96941 0.40623 0.27712 0.0
N578 N 0.84301 0.39541 0.30833 0.0
C579 C 0.93791 0.39959 0.29914 0.0
C580 C 0.87301 0.39446 0.31318 0.0
N581 N 0.90775 0.34346 0.19758 0.0
N582 N 0.89964 0.43843 0.45476 0.0
H583 H 0.82078 0.37759 0.26126 0.0
H584 H 0.84071 0.41494 0.34694 0.0
H585 H 0.92077 0.45769 0.50266 0.0
H586 H 0.87594 0.43393 0.47318 0.0
H587 H 0.92943 0.34055 0.20233 0.0
H588 H 0.88535 0.32201 0.15913 0.0
H589 H 0.97247 0.39179 0.22079 0.0
H590 H 0.99235 0.42852 0.30845 0.0
C591 C 0.57881 0.90262 0.25222 0.0
C592 C 0.54523 0.87573 0.21063 0.0
C593 C 0.52023 0.89261 0.33749 0.0
C594 C 0.55264 0.92366 0.36583 0.0
N595 N 0.61329 0.9592 0.34965 0.0
N596 N 0.48362 0.8436 0.21309 0.0
C597 C 0.58237 0.92857 0.32507 0.0
C598 C 0.51582 0.8698 0.25426 0.0
N599 N 0.60716 0.90356 0.2206 0.0
N600 N 0.49377 0.88543 0.39006 0.0
H601 H 0.47969 0.82579 0.15376 0.0
H602 H 0.46076 0.84052 0.23452 0.0
H603 H 0.49683 0.90184 0.45195 0.0
H604 H 0.47014 0.862 0.37799 0.0
H605 H 0.6324 0.92052 0.25416 0.0
H606 H 0.60517 0.88505 0.16615 0.0
H607 H 0.63445 0.96613 0.31277 0.0
H608 H 0.61743 0.97891 0.40328 0.0
C609 C 0.69742 0.59981 0.26689 0.0
C610 C 0.69812 0.56835 0.24802 0.0
C611 C 0.65285 0.53969 0.3501 0.0
C612 C 0.64758 0.56881 0.35326 0.0
N613 N 0.66555 0.62755 0.32049 0.0
N614 N 0.67871 0.50889 0.27534 0.0
C615 C 0.67066 0.59958 0.31542 0.0
C616 C 0.67717 0.53878 0.29327 0.0
N617 N 0.72197 0.62946 0.23566 0.0
N618 N 0.6342 0.51269 0.40076 0.0
H619 H 0.69738 0.50796 0.2379 0.0
H620 H 0.66092 0.48472 0.29405 0.0
H621 H 0.61504 0.51169 0.4396 0.0
H622 H 0.63923 0.49251 0.41028 0.0
H623 H 0.7248 0.65412 0.2515 0.0
H624 H 0.74153 0.62963 0.20007 0.0
H625 H 0.67907 0.64947 0.28595 0.0
H626 H 0.64645 0.62819 0.35646 0.0
C627 C 0.16768 0.66951 0.40492 0.0
C628 C 0.15729 0.68857 0.34754 0.0
C629 C 0.10876 0.67481 0.43724 0.0
C630 C 0.11653 0.65195 0.48539 0.0
N631 N 0.15939 0.63862 0.5455 0.0
N632 N 0.12614 0.71939 0.32945 0.0
C633 C 0.14831 0.65327 0.47963 0.0
C634 C 0.1307 0.69486 0.3715 0.0
N635 N 0.19462 0.66527 0.3842 0.0
N636 N 0.07907 0.67524 0.44866 0.0
H637 H 0.14176 0.73403 0.28018 0.0
H638 H 0.10911 0.72745 0.34914 0.0
H639 H 0.06335 0.6624 0.49972 0.0
H640 H 0.06948 0.68768 0.40642 0.0
H641 H 0.20113 0.64857 0.41669 0.0
H642 H 0.20975 0.67768 0.33137 0.0
H643 H 0.18377 0.64108 0.55124 0.0
H644 H 0.14492 0.62668 0.60008 0.0
loop_
_geom_bond_atom_site_label_1
_geom_bond_atom_site_label_2
_geom_bond_distance
_geom_bond_site_symmetry_2
_ccdc_geom_bond_type
H0 C8 0.940 . S
H1 C11 0.940 . S
H2 C13 0.940 . S
H3 C14 0.940 . S
H4 C17 0.940 . S
H5 C19 0.940 . S
N6 N7 1.190 . S
N6 C10 1.477 . S
N7 N6 1.190 . S
N7 C16 1.477 . S
C8 H0 0.940 . S
C8 C9 1.390 . S
C8 C10 1.322 . S
C9 C8 1.390 . S
C9 C13 1.370 . S
C10 N6 1.477 . S
C10 C8 1.322 . S
C10 C11 1.447 . S
C11 H1 0.940 . S
C11 C10 1.447 . S
C11 C12 1.373 . S
C12 C11 1.373 . S
C12 C13 1.417 . S
C13 H2 0.940 . S
C13 C9 1.370 . S
C13 C12 1.417 . S
C14 H3 0.940 . S
C14 C15 1.390 . S
C14 C16 1.322 . S
C15 C14 1.390 . S
C15 C19 1.370 . S
C16 N7 1.477 . S
C16 C14 1.322 . S
C16 C17 1.447 . S
C17 H4 0.940 . S
C17 C16 1.447 . S
C17 C18 1.373 . S
C18 C17 1.373 . S
C18 C19 1.417 . S
C19 H5 0.940 . S
C19 C15 1.370 . S
C19 C18 1.417 . S
H20 C28 0.940 1_556 S
H21 C31 0.940 . S
H22 C33 0.940 . S
H23 C34 0.940 . S
H24 C37 0.940 1_556 S
H25 C39 0.940 . S
N26 N27 1.190 . S
N26 C30 1.477 . S
N27 N26 1.190 . S
N27 C36 1.477 . S
C28 H20 0.940 1_554 S
C28 C29 1.390 . S
C28 C30 1.322 . S
C29 C28 1.390 . S
C29 C33 1.370 . S
C30 N26 1.477 . S
C30 C28 1.322 . S
C30 C31 1.447 . S
C31 H21 0.940 . S
C31 C30 1.447 . S
C31 C32 1.373 . S
C32 C31 1.373 . S
C32 C33 1.417 . S
C33 H22 0.940 . S
C33 C29 1.370 . S
C33 C32 1.417 . S
C34 H23 0.940 . S
C34 C35 1.390 . S
C34 C36 1.322 . S
C35 C34 1.390 . S
C35 C39 1.370 . S
C36 N27 1.477 . S
C36 C34 1.322 . S
C36 C37 1.447 . S
C37 H24 0.940 1_554 S
C37 C36 1.447 . S
C37 C38 1.373 . S
C38 C37 1.373 . S
C38 C39 1.417 . S
C39 H25 0.940 . S
C39 C35 1.370 . S
C39 C38 1.417 . S
H40 C48 0.940 . S
H41 C51 0.940 . S
H42 C53 0.940 . S
H43 C54 0.940 . S
H44 C57 0.940 . S
H45 C59 0.940 . S
N46 N47 1.190 1_554 S
N46 C50 1.477 . S
N47 N46 1.190 1_556 S
N47 C56 1.477 1_556 S
C48 H40 0.940 . S
C48 C49 1.390 . S
C48 C50 1.322 1_556 S
C49 C48 1.390 . S
C49 C53 1.370 1_556 S
C50 N46 1.477 . S
C50 C48 1.322 1_554 S
C50 C51 1.447 . S
C51 H41 0.940 . S
C51 C50 1.447 . S
C51 C52 1.373 . S
C52 C51 1.373 . S
C52 C53 1.417 . S
C53 H42 0.940 . S
C53 C49 1.370 1_554 S
C53 C52 1.417 . S
C54 H43 0.940 . S
C54 C55 1.390 . S
C54 C56 1.322 . S
C55 C54 1.390 . S
C55 C59 1.370 . S
C56 N47 1.477 1_554 S
C56 C54 1.322 . S
C56 C57 1.447 1_554 S
C57 H44 0.940 . S
C57 C56 1.447 1_556 S
C57 C58 1.373 . S
C58 C57 1.373 . S
C58 C59 1.417 1_556 S
C59 H45 0.940 . S
C59 C55 1.370 . S
C59 C58 1.417 1_554 S
H60 C68 0.940 . S
H61 C71 0.940 . S
H62 C73 0.940 1_556 S
H63 C74 0.940 . S
H64 C77 0.940 . S
H65 C79 0.940 . S
N66 N67 1.190 1_554 S
N66 C70 1.477 . S
N67 N66 1.190 1_556 S
N67 C76 1.477 . S
C68 H60 0.940 . S
C68 C69 1.390 . S
C68 C70 1.322 1_556 S
C69 C68 1.390 . S
C69 C73 1.370 1_556 S
C70 N66 1.477 . S
C70 C68 1.322 1_554 S
C70 C71 1.447 . S
C71 H61 0.940 . S
C71 C70 1.447 . S
C71 C72 1.373 . S
C72 C71 1.373 . S
C72 C73 1.417 . S
C73 H62 0.940 1_554 S
C73 C69 1.370 1_554 S
C73 C72 1.417 . S
C74 H63 0.940 . S
C74 C75 1.390 . S
C74 C76 1.322 1_554 S
C75 C74 1.390 . S
C75 C79 1.370 . S
C76 N67 1.477 . S
C76 C74 1.322 1_556 S
C76 C77 1.447 . S
C77 H64 0.940 . S
C77 C76 1.447 . S
C77 C78 1.373 . S
C78 C77 1.373 . S
C78 C79 1.417 1_556 S
C79 H65 0.940 . S
C79 C75 1.370 . S
C79 C78 1.417 1_554 S
H80 C88 0.940 1_556 S
H81 C91 0.940 . S
H82 C93 0.940 . S
H83 C94 0.940 . S
H84 C97 0.940 1_556 S
H85 C99 0.940 . S
N86 N87 1.190 . S
N86 C90 1.477 . S
N87 N86 1.190 . S
N87 C96 1.477 . S
C88 H80 0.940 1_554 S
C88 C89 1.390 . S
C88 C90 1.322 . S
C89 C88 1.390 . S
C89 C93 1.370 . S
C90 N86 1.477 . S
C90 C88 1.322 . S
C90 C91 1.447 . S
C91 H81 0.940 . S
C91 C90 1.447 . S
C91 C92 1.373 . S
C92 C91 1.373 . S
C92 C93 1.417 . S
C93 H82 0.940 . S
C93 C89 1.370 . S
C93 C92 1.417 . S
C94 H83 0.940 . S
C94 C95 1.390 . S
C94 C96 1.322 . S
C95 C94 1.390 . S
C95 C99 1.370 . S
C96 N87 1.477 . S
C96 C94 1.322 . S
C96 C97 1.447 . S
C97 H84 0.940 1_554 S
C97 C96 1.447 . S
C97 C98 1.373 . S
C98 C97 1.373 . S
C98 C99 1.417 . S
C99 H85 0.940 . S
C99 C95 1.370 . S
C99 C98 1.417 . S
H100 C108 0.940 . S
H101 C111 0.940 . S
H102 C113 0.940 . S
H103 C114 0.940 . S
H104 C117 0.940 . S
H105 C119 0.940 . S
N106 N107 1.190 . S
N106 C110 1.477 . S
N107 N106 1.190 . S
N107 C116 1.477 . S
C108 H100 0.940 . S
C108 C109 1.390 . S
C108 C110 1.322 . S
C109 C108 1.390 . S
C109 C113 1.370 . S
C110 N106 1.477 . S
C110 C108 1.322 . S
C110 C111 1.447 . S
C111 H101 0.940 . S
C111 C110 1.447 . S
C111 C112 1.373 . S
C112 C111 1.373 . S
C112 C113 1.417 . S
C113 H102 0.940 . S
C113 C109 1.370 . S
C113 C112 1.417 . S
C114 H103 0.940 . S
C114 C115 1.390 . S
C114 C116 1.322 . S
C115 C114 1.390 . S
C115 C119 1.370 . S
C116 N107 1.477 . S
C116 C114 1.322 . S
C116 C117 1.447 . S
C117 H104 0.940 . S
C117 C116 1.447 . S
C117 C118 1.373 . S
C118 C117 1.373 . S
C118 C119 1.417 . S
C119 H105 0.940 . S
C119 C115 1.370 . S
C119 C118 1.417 . S
C120 O147 1.312 . S
C120 O148 1.208 . S
C121 O142 1.331 . S
C121 O145 1.244 . S
C122 O144 1.264 . S
C122 O146 1.273 . S
Mg123 O125 1.936 1_455 S
Mg123 O132 2.081 1_455 S
Mg123 O134 2.023 . S
Mg123 O138 2.031 1_455 S
Mg123 O147 2.291 . S
Mg124 O125 1.963 . S
Mg124 O135 1.942 . S
Mg124 O136 1.955 1_655 S
Mg124 O143 1.986 . S
O125 Mg123 1.936 1_655 S
O125 Mg124 1.963 . S
O125 Mg126 1.915 1_655 S
Mg126 O125 1.915 1_455 S
Mg126 O127 1.915 . S
Mg126 O131 2.013 . S
Mg126 O137 2.114 1_455 S
Mg126 O141 2.013 1_455 S
Mg126 O147 2.114 . S
O127 Mg126 1.915 . S
O127 Mg128 1.936 . S
O127 Mg129 1.963 . S
Mg128 O127 1.936 . S
Mg128 O137 2.291 1_455 S
Mg128 O142 2.081 . S
Mg128 O144 2.023 1_455 S
Mg128 O148 2.031 . S
Mg129 O127 1.963 . S
Mg129 O133 1.986 . S
Mg129 O145 1.942 . S
Mg129 O146 1.955 1_455 S
C130 O141 1.191 . S
C130 O143 1.307 . S
O131 Mg126 2.013 . S
O131 C150 1.191 . S
O132 Mg123 2.081 1_655 S
O132 C140 1.331 . S
O133 Mg129 1.986 . S
O133 C150 1.307 . S
O134 Mg123 2.023 . S
O134 C149 1.264 . S
O135 Mg124 1.942 . S
O135 C140 1.244 . S
O136 Mg124 1.955 1_455 S
O136 C149 1.273 . S
O137 Mg126 2.114 1_655 S
O137 Mg128 2.291 1_655 S
O137 C139 1.312 . S
O138 Mg123 2.031 1_655 S
O138 C139 1.208 . S
C139 O137 1.312 . S
C139 O138 1.208 . S
C140 O132 1.331 . S
C140 O135 1.244 . S
O141 Mg126 2.013 1_655 S
O141 C130 1.191 . S
O142 C121 1.331 . S
O142 Mg128 2.081 . S
O143 Mg124 1.986 . S
O143 C130 1.307 . S
O144 C122 1.264 . S
O144 Mg128 2.023 1_655 S
O145 C121 1.244 . S
O145 Mg129 1.942 . S
O146 C122 1.273 . S
O146 Mg129 1.955 1_655 S
O147 C120 1.312 . S
O147 Mg123 2.291 . S
O147 Mg126 2.114 . S
O148 C120 1.208 . S
O148 Mg128 2.031 . S
C149 O134 1.264 . S
C149 O136 1.273 . S
C150 O131 1.191 . S
C150 O133 1.307 . S
C151 O178 1.312 . S
C151 O179 1.208 . S
C152 O173 1.331 . S
C152 O176 1.244 . S
C153 O175 1.264 . S
C153 O177 1.273 . S
Mg154 O156 1.917 1_545 S
Mg154 O163 2.081 1_545 S
Mg154 O165 2.023 . S
Mg154 O169 2.031 1_545 S
Mg154 O178 2.291 . S
Mg155 O156 1.968 1_545 S
Mg155 O166 1.942 1_545 S
Mg155 O167 1.955 . S
Mg155 O174 1.986 1_545 S
O156 Mg154 1.917 1_565 S
O156 Mg155 1.968 1_565 S
O156 Mg157 1.917 1_565 S
Mg157 O156 1.917 1_545 S
Mg157 O158 1.915 . S
Mg157 O162 2.013 . S
Mg157 O168 2.114 1_545 S
Mg157 O172 2.013 1_545 S
Mg157 O178 2.114 . S
O158 Mg157 1.915 . S
O158 Mg159 1.936 . S
O158 Mg160 1.963 . S
Mg159 O158 1.936 . S
Mg159 O168 2.291 1_545 S
Mg159 O173 2.081 . S
Mg159 O175 2.023 1_545 S
Mg159 O179 2.031 . S
Mg160 O158 1.963 . S
Mg160 O164 1.986 . S
Mg160 O176 1.942 . S
Mg160 O177 1.955 1_545 S
C161 O172 1.191 . S
C161 O174 1.307 . S
O162 Mg157 2.013 . S
O162 C181 1.191 . S
O163 Mg154 2.081 1_565 S
O163 C171 1.331 . S
O164 Mg160 1.986 . S
O164 C181 1.307 . S
O165 Mg154 2.023 . S
O165 C180 1.264 . S
O166 Mg155 1.942 1_565 S
O166 C171 1.244 . S
O167 Mg155 1.955 . S
O167 C180 1.273 . S
O168 Mg157 2.114 1_565 S
O168 Mg159 2.291 1_565 S
O168 C170 1.312 . S
O169 Mg154 2.031 1_565 S
O169 C170 1.208 . S
C170 O168 1.312 . S
C170 O169 1.208 . S
C171 O163 1.331 . S
C171 O166 1.244 . S
O172 Mg157 2.013 1_565 S
O172 C161 1.191 . S
O173 C152 1.331 . S
O173 Mg159 2.081 . S
O174 Mg155 1.986 1_565 S
O174 C161 1.307 . S
O175 C153 1.264 . S
O175 Mg159 2.023 1_565 S
O176 C152 1.244 . S
O176 Mg160 1.942 . S
O177 C153 1.273 . S
O177 Mg160 1.955 1_565 S
O178 C151 1.312 . S
O178 Mg154 2.291 . S
O178 Mg157 2.114 . S
O179 C151 1.208 . S
O179 Mg159 2.031 . S
C180 O165 1.264 . S
C180 O167 1.273 . S
C181 O162 1.191 . S
C181 O164 1.307 . S
C182 O209 1.312 . S
C182 O210 1.208 . S
C183 O204 1.331 . S
C183 O207 1.244 . S
C184 O206 1.264 . S
C184 O208 1.273 . S
Mg185 O187 1.936 . S
Mg185 O194 2.081 . S
Mg185 O196 2.023 . S
Mg185 O200 2.031 . S
Mg185 O209 2.291 . S
Mg186 O187 1.963 . S
Mg186 O197 1.942 . S
Mg186 O198 1.955 . S
Mg186 O205 1.986 . S
O187 Mg185 1.936 . S
O187 Mg186 1.963 . S
O187 Mg188 1.915 . S
Mg188 O187 1.915 . S
Mg188 O189 1.915 . S
Mg188 O193 2.013 . S
Mg188 O199 2.114 . S
Mg188 O203 2.013 . S
Mg188 O209 2.114 . S
O189 Mg188 1.915 . S
O189 Mg190 1.936 . S
O189 Mg191 1.963 . S
Mg190 O189 1.936 . S
Mg190 O199 2.291 . S
Mg190 O204 2.081 . S
Mg190 O206 2.023 . S
Mg190 O210 2.031 . S
Mg191 O189 1.963 . S
Mg191 O195 1.986 . S
Mg191 O207 1.942 . S
Mg191 O208 1.955 . S
C192 O203 1.191 . S
C192 O205 1.307 . S
O193 Mg188 2.013 . S
O193 C212 1.191 . S
O194 Mg185 2.081 . S
O194 C202 1.331 . S
O195 Mg191 1.986 . S
O195 C212 1.307 . S
O196 Mg185 2.023 . S
O196 C211 1.264 . S
O197 Mg186 1.942 . S
O197 C202 1.244 . S
O198 Mg186 1.955 . S
O198 C211 1.273 . S
O199 Mg188 2.114 . S
O199 Mg190 2.291 . S
O199 C201 1.312 . S
O200 Mg185 2.031 . S
O200 C201 1.208 . S
C201 O199 1.312 . S
C201 O200 1.208 . S
C202 O194 1.331 . S
C202 O197 1.244 . S
O203 Mg188 2.013 . S
O203 C192 1.191 . S
O204 C183 1.331 . S
O204 Mg190 2.081 . S
O205 Mg186 1.986 . S
O205 C192 1.307 . S
O206 C184 1.264 . S
O206 Mg190 2.023 . S
O207 C183 1.244 . S
O207 Mg191 1.942 . S
O208 C184 1.273 . S
O208 Mg191 1.955 . S
O209 C182 1.312 . S
O209 Mg185 2.291 . S
O209 Mg188 2.114 . S
O210 C182 1.208 . S
O210 Mg190 2.031 . S
C211 O196 1.264 . S
C211 O198 1.273 . S
C212 O193 1.191 . S
C212 O195 1.307 . S
C213 C214 1.363 . S
C213 C219 1.379 . S
C213 N221 1.356 . S
C214 C213 1.363 . S
C214 C220 1.363 . S
C215 C216 1.363 . S
C215 C220 1.379 . S
C215 N222 1.356 . S
C216 C215 1.363 . S
C216 C219 1.363 . S
N217 C219 1.356 . S
N217 H229 0.984 . S
N217 H230 0.985 . S
N218 C220 1.356 . S
N218 H223 0.984 . S
N218 H224 0.985 . S
C219 C213 1.379 . S
C219 C216 1.363 . S
C219 N217 1.356 . S
C220 C214 1.363 . S
C220 C215 1.379 . S
C220 N218 1.356 . S
N221 C213 1.356 . S
N221 H227 0.984 . S
N221 H228 0.984 . S
N222 C215 1.356 . S
N222 H225 0.984 . S
N222 H226 0.985 . S
H223 N218 0.984 . S
H224 N218 0.985 . S
H225 N222 0.984 . S
H226 N222 0.985 . S
H227 N221 0.984 . S
H228 N221 0.984 . S
H229 N217 0.984 . S
H230 N217 0.985 . S
C231 C232 1.363 . S
C231 C237 1.379 . S
C231 N239 1.356 . S
C232 C231 1.363 . S
C232 C238 1.363 . S
C233 C234 1.363 . S
C233 C238 1.379 . S
C233 N240 1.356 . S
C234 C233 1.363 . S
C234 C237 1.363 . S
N235 C237 1.356 . S
N235 H247 0.984 . S
N235 H248 0.985 . S
N236 C238 1.356 . S
N236 H241 0.984 . S
N236 H242 0.985 . S
C237 C231 1.379 . S
C237 C234 1.363 . S
C237 N235 1.356 . S
C238 C232 1.363 . S
C238 C233 1.379 . S
C238 N236 1.356 . S
N239 C231 1.356 . S
N239 H245 0.984 . S
N239 H246 0.984 . S
N240 C233 1.356 . S
N240 H243 0.984 . S
N240 H244 0.985 . S
H241 N236 0.984 . S
H242 N236 0.985 . S
H243 N240 0.984 . S
H244 N240 0.985 . S
H245 N239 0.984 . S
H246 N239 0.984 . S
H247 N235 0.984 . S
H248 N235 0.985 . S
C249 C250 1.363 . S
C249 C255 1.379 . S
C249 N257 1.356 . S
C250 C249 1.363 . S
C250 C256 1.363 . S
C251 C252 1.363 . S
C251 C256 1.379 . S
C251 N258 1.356 . S
C252 C251 1.363 . S
C252 C255 1.363 . S
N253 C255 1.356 . S
N253 H265 0.984 . S
N253 H266 0.985 . S
N254 C256 1.356 . S
N254 H259 0.984 . S
N254 H260 0.985 . S
C255 C249 1.379 . S
C255 C252 1.363 . S
C255 N253 1.356 . S
C256 C250 1.363 . S
C256 C251 1.379 . S
C256 N254 1.356 . S
N257 C249 1.356 . S
N257 H263 0.984 . S
N257 H264 0.984 . S
N258 C251 1.356 . S
N258 H261 0.984 . S
N258 H262 0.985 . S
H259 N254 0.984 . S
H260 N254 0.985 . S
H261 N258 0.984 . S
H262 N258 0.985 . S
H263 N257 0.984 . S
H264 N257 0.984 . S
H265 N253 0.984 . S
H266 N253 0.985 . S
C267 C268 1.363 . S
C267 C273 1.379 . S
C267 N275 1.356 . S
C268 C267 1.363 . S
C268 C274 1.363 . S
C269 C270 1.363 . S
C269 C274 1.379 . S
C269 N276 1.356 . S
C270 C269 1.363 . S
C270 C273 1.363 . S
N271 C273 1.356 . S
N271 H283 0.984 . S
N271 H284 0.985 . S
N272 C274 1.356 . S
N272 H277 0.984 . S
N272 H278 0.985 . S
C273 C267 1.379 . S
C273 C270 1.363 . S
C273 N271 1.356 . S
C274 C268 1.363 . S
C274 C269 1.379 . S
C274 N272 1.356 . S
N275 C267 1.356 . S
N275 H281 0.984 . S
N275 H282 0.984 . S
N276 C269 1.356 . S
N276 H279 0.984 . S
N276 H280 0.985 . S
H277 N272 0.984 . S
H278 N272 0.985 . S
H279 N276 0.984 . S
H280 N276 0.985 . S
H281 N275 0.984 . S
H282 N275 0.984 . S
H283 N271 0.984 . S
H284 N271 0.985 . S
C285 C286 1.363 . S
C285 C291 1.379 . S
C285 N293 1.356 . S
C286 C285 1.363 . S
C286 C292 1.363 . S
C287 C288 1.363 . S
C287 C292 1.379 . S
C287 N294 1.356 . S
C288 C287 1.363 . S
C288 C291 1.363 . S
N289 C291 1.356 . S
N289 H301 0.984 . S
N289 H302 0.985 . S
N290 C292 1.356 . S
N290 H295 0.984 . S
N290 H296 0.985 . S
C291 C285 1.379 . S
C291 C288 1.363 . S
C291 N289 1.356 . S
C292 C286 1.363 . S
C292 C287 1.379 . S
C292 N290 1.356 . S
N293 C285 1.356 . S
N293 H299 0.984 . S
N293 H300 0.984 . S
N294 C287 1.356 . S
N294 H297 0.984 . S
N294 H298 0.985 . S
H295 N290 0.984 . S
H296 N290 0.985 . S
H297 N294 0.984 . S
H298 N294 0.985 . S
H299 N293 0.984 . S
H300 N293 0.984 . S
H301 N289 0.984 . S
H302 N289 0.985 . S
C303 C304 1.363 . S
C303 C309 1.379 . S
C303 N311 1.356 . S
C304 C303 1.363 . S
C304 C310 1.363 . S
C305 C306 1.363 . S
C305 C310 1.379 . S
C305 N312 1.356 . S
C306 C305 1.363 . S
C306 C309 1.363 . S
N307 C309 1.356 . S
N307 H319 0.984 . S
N307 H320 0.985 . S
N308 C310 1.356 . S
N308 H313 0.984 . S
N308 H314 0.985 . S
C309 C303 1.379 . S
C309 C306 1.363 . S
C309 N307 1.356 . S
C310 C304 1.363 . S
C310 C305 1.379 . S
C310 N308 1.356 . S
N311 C303 1.356 . S
N311 H317 0.984 . S
N311 H318 0.984 . S
N312 C305 1.356 . S
N312 H315 0.984 . S
N312 H316 0.985 . S
H313 N308 0.984 . S
H314 N308 0.985 . S
H315 N312 0.984 . S
H316 N312 0.985 . S
H317 N311 0.984 . S
H318 N311 0.984 . S
H319 N307 0.984 . S
H320 N307 0.985 . S
C321 C322 1.363 . S
C321 C327 1.379 . S
C321 N329 1.356 . S
C322 C321 1.363 . S
C322 C328 1.363 . S
C323 C324 1.363 . S
C323 C328 1.379 . S
C323 N330 1.356 . S
C324 C323 1.363 . S
C324 C327 1.363 . S
N325 C327 1.356 . S
N325 H337 0.984 . S
N325 H338 0.985 . S
N326 C328 1.356 . S
N326 H331 0.984 . S
N326 H332 0.985 . S
C327 C321 1.379 . S
C327 C324 1.363 . S
C327 N325 1.356 . S
C328 C322 1.363 . S
C328 C323 1.379 . S
C328 N326 1.356 . S
N329 C321 1.356 . S
N329 H335 0.984 1_556 S
N329 H336 0.984 . S
N330 C323 1.356 . S
N330 H333 0.984 . S
N330 H334 0.985 . S
H331 N326 0.984 . S
H332 N326 0.985 . S
H333 N330 0.984 . S
H334 N330 0.985 . S
H335 N329 0.984 1_554 S
H336 N329 0.984 . S
H337 N325 0.984 . S
H338 N325 0.985 . S
C339 C340 1.363 . S
C339 C345 1.379 . S
C339 N347 1.356 . S
C340 C339 1.363 . S
C340 C346 1.363 . S
C341 C342 1.363 . S
C341 C346 1.379 . S
C341 N348 1.356 . S
C342 C341 1.363 . S
C342 C345 1.363 . S
N343 C345 1.356 . S
N343 H355 0.984 . S
N343 H356 0.985 . S
N344 C346 1.356 . S
N344 H349 0.984 . S
N344 H350 0.985 . S
C345 C339 1.379 . S
C345 C342 1.363 . S
C345 N343 1.356 . S
C346 C340 1.363 . S
C346 C341 1.379 . S
C346 N344 1.356 . S
N347 C339 1.356 . S
N347 H353 0.984 . S
N347 H354 0.984 . S
N348 C341 1.356 . S
N348 H351 0.984 . S
N348 H352 0.985 . S
H349 N344 0.984 . S
H350 N344 0.985 . S
H351 N348 0.984 . S
H352 N348 0.985 . S
H353 N347 0.984 . S
H354 N347 0.984 . S
H355 N343 0.984 . S
H356 N343 0.985 . S
C357 C358 1.363 . S
C357 C363 1.379 . S
C357 N365 1.356 . S
C358 C357 1.363 . S
C358 C364 1.363 . S
C359 C360 1.363 . S
C359 C364 1.379 . S
C359 N366 1.356 . S
C360 C359 1.363 . S
C360 C363 1.363 . S
N361 C363 1.356 . S
N361 H373 0.984 . S
N361 H374 0.985 . S
N362 C364 1.356 1_554 S
N362 H367 0.984 . S
N362 H368 0.985 . S
C363 C357 1.379 . S
C363 C360 1.363 . S
C363 N361 1.356 . S
C364 C358 1.363 . S
C364 C359 1.379 . S
C364 N362 1.356 1_556 S
N365 C357 1.356 . S
N365 H371 0.984 . S
N365 H372 0.984 . S
N366 C359 1.356 . S
N366 H369 0.984 . S
N366 H370 0.985 . S
H367 N362 0.984 . S
H368 N362 0.985 . S
H369 N366 0.984 . S
H370 N366 0.985 . S
H371 N365 0.984 . S
H372 N365 0.984 . S
H373 N361 0.984 . S
H374 N361 0.985 . S
C375 C376 1.363 . S
C375 C381 1.379 . S
C375 N383 1.356 . S
C376 C375 1.363 . S
C376 C382 1.363 1_554 S
C377 C378 1.363 . S
C377 C382 1.379 . S
C377 N384 1.356 . S
C378 C377 1.363 . S
C378 C381 1.363 1_556 S
N379 C381 1.356 . S
N379 H391 0.984 . S
N379 H392 0.985 1_554 S
N380 C382 1.356 . S
N380 H385 0.984 . S
N380 H386 0.985 . S
C381 C375 1.379 . S
C381 C378 1.363 1_554 S
C381 N379 1.356 . S
C382 C376 1.363 1_556 S
C382 C377 1.379 . S
C382 N380 1.356 . S
N383 C375 1.356 . S
N383 H389 0.984 . S
N383 H390 0.984 . S
N384 C377 1.356 . S
N384 H387 0.984 . S
N384 H388 0.985 . S
H385 N380 0.984 . S
H386 N380 0.985 . S
H387 N384 0.984 . S
H388 N384 0.985 . S
H389 N383 0.984 . S
H390 N383 0.984 . S
H391 N379 0.984 . S
H392 N379 0.985 1_556 S
C393 C394 1.363 1_556 S
C393 C399 1.379 . S
C393 N401 1.356 1_556 S
C394 C393 1.363 1_554 S
C394 C400 1.363 . S
C395 C396 1.363 . S
C395 C400 1.379 1_556 S
C395 N402 1.356 . S
C396 C395 1.363 . S
C396 C399 1.363 . S
N397 C399 1.356 . S
N397 H409 0.984 . S
N397 H410 0.985 . S
N398 C400 1.356 . S
N398 H403 0.984 . S
N398 H404 0.985 . S
C399 C393 1.379 . S
C399 C396 1.363 . S
C399 N397 1.356 . S
C400 C394 1.363 . S
C400 C395 1.379 1_554 S
C400 N398 1.356 . S
N401 C393 1.356 1_554 S
N401 H407 0.984 1_554 S
N401 H408 0.984 . S
N402 C395 1.356 . S
N402 H405 0.984 . S
N402 H406 0.985 . S
H403 N398 0.984 . S
H404 N398 0.985 . S
H405 N402 0.984 . S
H406 N402 0.985 . S
H407 N401 0.984 1_556 S
H408 N401 0.984 . S
H409 N397 0.984 . S
H410 N397 0.985 . S
C411 C412 1.363 . S
C411 C417 1.379 . S
C411 N419 1.356 . S
C412 C411 1.363 . S
C412 C418 1.363 . S
C413 C414 1.363 . S
C413 C418 1.379 . S
C413 N420 1.356 . S
C414 C413 1.363 . S
C414 C417 1.363 . S
N415 C417 1.356 . S
N415 H427 0.984 . S
N415 H428 0.985 . S
N416 C418 1.356 1_554 S
N416 H421 0.984 . S
N416 H422 0.985 . S
C417 C411 1.379 . S
C417 C414 1.363 . S
C417 N415 1.356 . S
C418 C412 1.363 . S
C418 C413 1.379 . S
C418 N416 1.356 1_556 S
N419 C411 1.356 . S
N419 H425 0.984 . S
N419 H426 0.984 . S
N420 C413 1.356 . S
N420 H423 0.984 . S
N420 H424 0.985 . S
H421 N416 0.984 . S
H422 N416 0.985 . S
H423 N420 0.984 . S
H424 N420 0.985 . S
H425 N419 0.984 . S
H426 N419 0.984 . S
H427 N415 0.984 . S
H428 N415 0.985 . S
C429 C430 1.363 . S
C429 C435 1.379 . S
C429 N437 1.356 . S
C430 C429 1.363 . S
C430 C436 1.363 . S
C431 C432 1.363 . S
C431 C436 1.379 . S
C431 N438 1.356 . S
C432 C431 1.363 . S
C432 C435 1.363 . S
N433 C435 1.356 . S
N433 H445 0.984 . S
N433 H446 0.985 . S
N434 C436 1.356 . S
N434 H439 0.984 . S
N434 H440 0.985 1_556 S
C435 C429 1.379 . S
C435 C432 1.363 . S
C435 N433 1.356 . S
C436 C430 1.363 . S
C436 C431 1.379 . S
C436 N434 1.356 . S
N437 C429 1.356 . S
N437 H443 0.984 . S
N437 H444 0.984 . S
N438 C431 1.356 . S
N438 H441 0.984 . S
N438 H442 0.985 . S
H439 N434 0.984 . S
H440 N434 0.985 1_554 S
H441 N438 0.984 . S
H442 N438 0.985 . S
H443 N437 0.984 . S
H444 N437 0.984 . S
H445 N433 0.984 . S
H446 N433 0.985 . S
C447 C448 1.363 . S
C447 C453 1.379 . S
C447 N455 1.356 . S
C448 C447 1.363 . S
C448 C454 1.363 . S
C449 C450 1.363 . S
C449 C454 1.379 . S
C449 N456 1.356 . S
C450 C449 1.363 . S
C450 C453 1.363 . S
N451 C453 1.356 . S
N451 H463 0.984 . S
N451 H464 0.985 . S
N452 C454 1.356 1_554 S
N452 H457 0.984 . S
N452 H458 0.985 . S
C453 C447 1.379 . S
C453 C450 1.363 . S
C453 N451 1.356 . S
C454 C448 1.363 . S
C454 C449 1.379 . S
C454 N452 1.356 1_556 S
N455 C447 1.356 . S
N455 H461 0.984 . S
N455 H462 0.984 . S
N456 C449 1.356 . S
N456 H459 0.984 . S
N456 H460 0.985 1_565 S
H457 N452 0.984 . S
H458 N452 0.985 . S
H459 N456 0.984 . S
H460 N456 0.985 1_545 S
H461 N455 0.984 . S
H462 N455 0.984 . S
H463 N451 0.984 . S
H464 N451 0.985 . S
C465 C466 1.363 1_556 S
C465 C471 1.379 . S
C465 N473 1.356 1_556 S
C466 C465 1.363 1_554 S
C466 C472 1.363 1_554 S
C467 C468 1.363 . S
C467 C472 1.379 . S
C467 N474 1.356 . S
C468 C467 1.363 . S
C468 C471 1.363 . S
N469 C471 1.356 . S
N469 H481 0.984 . S
N469 H482 0.985 . S
N470 C472 1.350 1_554 S
N470 H475 0.993 . S
N470 H476 0.982 1_554 S
C471 C465 1.379 . S
C471 C468 1.363 . S
C471 N469 1.356 . S
C472 C466 1.363 1_556 S
C472 C467 1.379 . S
C472 N470 1.350 1_556 S
N473 C465 1.356 1_554 S
N473 H479 0.984 . S
N473 H480 0.984 . S
N474 C467 1.356 . S
N474 H477 0.984 . S
N474 H478 0.985 . S
H475 N470 0.993 . S
H476 N470 0.982 1_556 S
H477 N474 0.984 . S
H478 N474 0.985 . S
H479 N473 0.984 . S
H480 N473 0.984 . S
H481 N469 0.984 . S
H482 N469 0.985 . S
C483 C484 1.363 . S
C483 C489 1.379 1_554 S
C483 N491 1.356 . S
C484 C483 1.363 . S
C484 C490 1.363 1_554 S
C485 C486 1.363 . S
C485 C490 1.379 . S
C485 N492 1.356 . S
C486 C485 1.363 . S
C486 C489 1.363 . S
N487 C489 1.356 . S
N487 H499 0.984 . S
N487 H500 0.985 . S
N488 C490 1.356 1_554 S
N488 H493 0.984 . S
N488 H494 0.985 1_554 S
C489 C483 1.379 1_556 S
C489 C486 1.363 . S
C489 N487 1.356 . S
C490 C484 1.363 1_556 S
C490 C485 1.379 . S
C490 N488 1.356 1_556 S
N491 C483 1.356 . S
N491 H497 0.984 . S
N491 H498 0.984 . S
N492 C485 1.356 . S
N492 H495 0.984 . S
N492 H496 0.985 . S
H493 N488 0.984 . S
H494 N488 0.985 1_556 S
H495 N492 0.984 . S
H496 N492 0.985 . S
H497 N491 0.984 . S
H498 N491 0.984 . S
H499 N487 0.984 . S
H500 N487 0.985 . S
C501 C502 1.363 . S
C501 C507 1.379 . S
C501 N509 1.356 . S
C502 C501 1.363 . S
C502 C508 1.363 . S
C503 C504 1.363 . S
C503 C508 1.379 . S
C503 N510 1.356 . S
C504 C503 1.363 . S
C504 C507 1.363 . S
N505 C507 1.356 . S
N505 H517 0.984 . S
N505 H518 0.985 . S
N506 C508 1.356 . S
N506 H511 0.984 . S
N506 H512 0.985 . S
C507 C501 1.379 . S
C507 C504 1.363 . S
C507 N505 1.356 . S
C508 C502 1.363 . S
C508 C503 1.379 . S
C508 N506 1.356 . S
N509 C501 1.356 . S
N509 H515 0.984 . S
N509 H516 0.984 . S
N510 C503 1.356 . S
N510 H513 0.984 . S
N510 H514 0.985 . S
H511 N506 0.984 . S
H512 N506 0.985 . S
H513 N510 0.984 . S
H514 N510 0.985 . S
H515 N509 0.984 . S
H516 N509 0.984 . S
H517 N505 0.984 . S
H518 N505 0.985 . S
C519 C520 1.363 . S
C519 C525 1.379 . S
C519 N527 1.356 . S
C520 C519 1.363 . S
C520 C526 1.363 . S
C521 C522 1.363 . S
C521 C526 1.379 . S
C521 N528 1.356 . S
C522 C521 1.363 . S
C522 C525 1.363 . S
N523 C525 1.356 . S
N523 H535 0.984 . S
N523 H536 0.985 . S
N524 C526 1.356 . S
N524 H529 0.984 . S
N524 H530 0.985 . S
C525 C519 1.379 . S
C525 C522 1.363 . S
C525 N523 1.356 . S
C526 C520 1.363 . S
C526 C521 1.379 . S
C526 N524 1.356 . S
N527 C519 1.356 . S
N527 H533 0.984 . S
N527 H534 0.984 . S
N528 C521 1.356 . S
N528 H531 0.984 . S
N528 H532 0.985 . S
H529 N524 0.984 . S
H530 N524 0.985 . S
H531 N528 0.984 . S
H532 N528 0.985 . S
H533 N527 0.984 . S
H534 N527 0.984 . S
H535 N523 0.984 . S
H536 N523 0.985 . S
C537 C538 1.363 . S
C537 C543 1.379 . S
C537 N545 1.356 . S
C538 C537 1.363 . S
C538 C544 1.363 . S
C539 C540 1.363 . S
C539 C544 1.379 . S
C539 N546 1.356 . S
C540 C539 1.363 . S
C540 C543 1.363 . S
N541 C543 1.356 . S
N541 H553 0.984 . S
N541 H554 0.985 . S
N542 C544 1.356 . S
N542 H547 0.984 . S
N542 H548 0.985 . S
C543 C537 1.379 . S
C543 C540 1.363 . S
C543 N541 1.356 . S
C544 C538 1.363 . S
C544 C539 1.379 . S
C544 N542 1.356 . S
N545 C537 1.356 . S
N545 H551 0.984 . S
N545 H552 0.984 . S
N546 C539 1.356 . S
N546 H549 0.984 . S
N546 H550 0.985 . S
H547 N542 0.984 . S
H548 N542 0.985 . S
H549 N546 0.984 . S
H550 N546 0.985 . S
H551 N545 0.984 . S
H552 N545 0.984 . S
H553 N541 0.984 . S
H554 N541 0.985 . S
C555 C556 1.363 . S
C555 C561 1.379 . S
C555 N563 1.356 . S
C556 C555 1.363 . S
C556 C562 1.363 . S
C557 C558 1.363 . S
C557 C562 1.379 . S
C557 N564 1.356 . S
C558 C557 1.363 . S
C558 C561 1.363 . S
N559 C561 1.356 . S
N559 H571 0.984 . S
N559 H572 0.985 . S
N560 C562 1.356 . S
N560 H565 0.984 . S
N560 H566 0.985 . S
C561 C555 1.379 . S
C561 C558 1.363 . S
C561 N559 1.356 . S
C562 C556 1.363 . S
C562 C557 1.379 . S
C562 N560 1.356 . S
N563 C555 1.356 . S
N563 H569 0.984 . S
N563 H570 0.984 . S
N564 C557 1.356 . S
N564 H567 0.984 . S
N564 H568 0.985 . S
H565 N560 0.984 . S
H566 N560 0.985 . S
H567 N564 0.984 . S
H568 N564 0.985 . S
H569 N563 0.984 . S
H570 N563 0.984 . S
H571 N559 0.984 . S
H572 N559 0.985 . S
C573 C574 1.363 . S
C573 C579 1.379 . S
C573 N581 1.356 . S
C574 C573 1.363 . S
C574 C580 1.363 . S
C575 C576 1.363 . S
C575 C580 1.379 . S
C575 N582 1.356 . S
C576 C575 1.363 . S
C576 C579 1.363 . S
N577 C579 1.356 . S
N577 H589 0.984 . S
N577 H590 0.985 . S
N578 C580 1.356 . S
N578 H583 0.984 . S
N578 H584 0.985 . S
C579 C573 1.379 . S
C579 C576 1.363 . S
C579 N577 1.356 . S
C580 C574 1.363 . S
C580 C575 1.379 . S
C580 N578 1.356 . S
N581 C573 1.356 . S
N581 H587 0.984 . S
N581 H588 0.984 . S
N582 C575 1.356 . S
N582 H585 0.984 . S
N582 H586 0.985 . S
H583 N578 0.984 . S
H584 N578 0.985 . S
H585 N582 0.984 . S
H586 N582 0.985 . S
H587 N581 0.984 . S
H588 N581 0.984 . S
H589 N577 0.984 . S
H590 N577 0.985 . S
C591 C592 1.363 . S
C591 C597 1.379 . S
C591 N599 1.356 . S
C592 C591 1.363 . S
C592 C598 1.363 . S
C593 C594 1.363 . S
C593 C598 1.379 . S
C593 N600 1.356 . S
C594 C593 1.363 . S
C594 C597 1.363 . S
N595 C597 1.356 . S
N595 H607 0.984 . S
N595 H608 0.985 . S
N596 C598 1.356 . S
N596 H601 0.984 . S
N596 H602 0.985 . S
C597 C591 1.379 . S
C597 C594 1.363 . S
C597 N595 1.356 . S
C598 C592 1.363 . S
C598 C593 1.379 . S
C598 N596 1.356 . S
N599 C591 1.356 . S
N599 H605 0.984 . S
N599 H606 0.984 . S
N600 C593 1.356 . S
N600 H603 0.984 . S
N600 H604 0.985 . S
H601 N596 0.984 . S
H602 N596 0.985 . S
H603 N600 0.984 . S
H604 N600 0.985 . S
H605 N599 0.984 . S
H606 N599 0.984 . S
H607 N595 0.984 . S
H608 N595 0.985 . S
C609 C610 1.363 . S
C609 C615 1.379 . S
C609 N617 1.356 . S
C610 C609 1.363 . S
C610 C616 1.363 . S
C611 C612 1.363 . S
C611 C616 1.379 . S
C611 N618 1.356 . S
C612 C611 1.363 . S
C612 C615 1.363 . S
N613 C615 1.356 . S
N613 H625 0.984 . S
N613 H626 0.985 . S
N614 C616 1.356 . S
N614 H619 0.984 . S
N614 H620 0.985 . S
C615 C609 1.379 . S
C615 C612 1.363 . S
C615 N613 1.356 . S
C616 C610 1.363 . S
C616 C611 1.379 . S
C616 N614 1.356 . S
N617 C609 1.356 . S
N617 H623 0.984 . S
N617 H624 0.984 . S
N618 C611 1.356 . S
N618 H621 0.984 . S
N618 H622 0.985 . S
H619 N614 0.984 . S
H620 N614 0.985 . S
H621 N618 0.984 . S
H622 N618 0.985 . S
H623 N617 0.984 . S
H624 N617 0.984 . S
H625 N613 0.984 . S
H626 N613 0.985 . S
C627 C628 1.363 . S
C627 C633 1.379 . S
C627 N635 1.356 . S
C628 C627 1.363 . S
C628 C634 1.363 . S
C629 C630 1.363 . S
C629 C634 1.379 . S
C629 N636 1.356 . S
C630 C629 1.363 . S
C630 C633 1.363 . S
N631 C633 1.356 . S
N631 H643 0.984 . S
N631 H644 0.985 . S
N632 C634 1.356 . S
N632 H637 0.984 . S
N632 H638 0.985 . S
C633 C627 1.379 . S
C633 C630 1.363 . S
C633 N631 1.356 . S
C634 C628 1.363 . S
C634 C629 1.379 . S
C634 N632 1.356 . S
N635 C627 1.356 . S
N635 H641 0.984 . S
N635 H642 0.984 . S
N636 C629 1.356 . S
N636 H639 0.984 . S
N636 H640 0.985 . S
H637 N632 0.984 . S
H638 N632 0.985 . S
H639 N636 0.984 . S
H640 N636 0.985 . S
H641 N635 0.984 . S
H642 N635 0.984 . S
H643 N631 0.984 . S
H644 N631 0.985 . S
C214 C12 1.804 . S
C216 C120 1.773 . S
C232 C32 1.556 . S
C234 C152 1.580 . S
C252 C211 1.826 . S
C250 C52 1.869 . S
C270 C140 1.503 . S
C268 C75 1.472 . S
C286 C95 1.706 . S
C288 C170 1.688 . S
C306 C192 1.493 . S
C304 C115 1.365 . S
C324 C161 1.789 . S
C322 C58 1.747 . S
C340 C69 1.424 . S
C342 C201 1.489 . S
C360 C150 1.717 . S
C358 C89 1.654 1_556 S
C376 C109 1.551 . S
C378 C180 1.573 . S
C394 C18 1.786 . S
C396 C183 1.750 . S
C414 C122 1.650 . S
C412 C38 1.629 1_556 S
C432 C130 1.705 . S
C430 C78 1.693 . S
C450 C171 1.528 . S
C448 C98 1.523 1_556 S
C468 C184 1.810 . S
C466 C118 1.857 . S
C486 C121 1.484 . S
C484 C9 1.495 . S
C504 C181 1.620 . S
C502 C29 1.634 1_556 S
C520 C49 1.383 . S
C522 C182 1.429 . S
C540 C151 1.697 . S
C538 C112 1.705 . S
C558 C212 1.438 . S
C556 C15 1.385 . S
C576 C139 1.620 . S
C574 C35 1.660 . S
C594 C153 1.571 . S
C592 C55 1.581 . S
C610 C72 1.765 . S
C612 C202 1.717 . S
C628 C92 1.620 . S
C630 C149 1.628 . S
