# Generated by pormake.
# Topology eea, (3,6)-cn, num edge types: 1
# Building blocks:
#     Node 0, Type 0, BuildingBlock: BETDIP_clean_linker_0, # of connection points: 3
#     Node 1, Type 0, BuildingBlock: BETDIP_clean_linker_0, # of connection points: 3
#     Node 2, Type 0, BuildingBlock: BETDIP_clean_linker_0, # of connection points: 3
#     Node 3, Type 0, BuildingBlock: BETDIP_clean_linker_0, # of connection points: 3
#     Node 4, Type 0, BuildingBlock: BETDIP_clean_linker_0, # of connection points: 3
#     Node 5, Type 0, BuildingBlock: BETDIP_clean_linker_0, # of connection points: 3
#     Node 6, Type 0, BuildingBlock: BETDIP_clean_linker_0, # of connection points: 3
#     Node 7, Type 0, BuildingBlock: BETDIP_clean_linker_0, # of connection points: 3
#     Node 8, Type 0, BuildingBlock: BETDIP_clean_linker_0, # of connection points: 3
#     Node 9, Type 0, BuildingBlock: BETDIP_clean_linker_0, # of connection points: 3
#     Node 10, Type 0, BuildingBlock: BETDIP_clean_linker_0, # of connection points: 3
#     Node 11, Type 0, BuildingBlock: BETDIP_clean_linker_0, # of connection points: 3
#     Node 12, Type 0, BuildingBlock: BETDIP_clean_linker_0, # of connection points: 3
#     Node 13, Type 0, BuildingBlock: BETDIP_clean_linker_0, # of connection points: 3
#     Node 14, Type 0, BuildingBlock: BETDIP_clean_linker_0, # of connection points: 3
#     Node 15, Type 0, BuildingBlock: BETDIP_clean_linker_0, # of connection points: 3
#     Node 16, Type 0, BuildingBlock: BETDIP_clean_linker_0, # of connection points: 3
#     Node 17, Type 0, BuildingBlock: BETDIP_clean_linker_0, # of connection points: 3
#     Node 18, Type 1, BuildingBlock: KUMBUR_clean_sbu_0, # of connection points: 6
#     Node 19, Type 1, BuildingBlock: KUMBUR_clean_sbu_0, # of connection points: 6
#     Node 20, Type 1, BuildingBlock: KUMBUR_clean_sbu_0, # of connection points: 6
#     Node 21, Type 1, BuildingBlock: KUMBUR_clean_sbu_0, # of connection points: 6
#     Node 22, Type 1, BuildingBlock: KUMBUR_clean_sbu_0, # of connection points: 6
#     Node 23, Type 1, BuildingBlock: KUMBUR_clean_sbu_0, # of connection points: 6
#     Node 24, Type 1, BuildingBlock: KUMBUR_clean_sbu_0, # of connection points: 6
#     Node 25, Type 1, BuildingBlock: KUMBUR_clean_sbu_0, # of connection points: 6
#     Node 26, Type 1, BuildingBlock: KUMBUR_clean_sbu_0, # of connection points: 6
#     Edge 27, Type (0, 1), BuildingBlock: XUDNAN_clean_linker_2, # of connection points: 2
#     Edge 28, Type (0, 1), BuildingBlock: XUDNAN_clean_linker_2, # of connection points: 2
#     Edge 29, Type (0, 1), BuildingBlock: XUDNAN_clean_linker_2, # of connection points: 2
#     Edge 30, Type (0, 1), BuildingBlock: XUDNAN_clean_linker_2, # of connection points: 2
#     Edge 31, Type (0, 1), BuildingBlock: XUDNAN_clean_linker_2, # of connection points: 2
#     Edge 32, Type (0, 1), BuildingBlock: XUDNAN_clean_linker_2, # of connection points: 2
#     Edge 33, Type (0, 1), BuildingBlock: XUDNAN_clean_linker_2, # of connection points: 2
#     Edge 34, Type (0, 1), BuildingBlock: XUDNAN_clean_linker_2, # of connection points: 2
#     Edge 35, Type (0, 1), BuildingBlock: XUDNAN_clean_linker_2, # of connection points: 2
#     Edge 36, Type (0, 1), BuildingBlock: XUDNAN_clean_linker_2, # of connection points: 2
#     Edge 37, Type (0, 1), BuildingBlock: XUDNAN_clean_linker_2, # of connection points: 2
#     Edge 38, Type (0, 1), BuildingBlock: XUDNAN_clean_linker_2, # of connection points: 2
#     Edge 39, Type (0, 1), BuildingBlock: XUDNAN_clean_linker_2, # of connection points: 2
#     Edge 40, Type (0, 1), BuildingBlock: XUDNAN_clean_linker_2, # of connection points: 2
#     Edge 41, Type (0, 1), BuildingBlock: XUDNAN_clean_linker_2, # of connection points: 2
#     Edge 42, Type (0, 1), BuildingBlock: XUDNAN_clean_linker_2, # of connection points: 2
#     Edge 43, Type (0, 1), BuildingBlock: XUDNAN_clean_linker_2, # of connection points: 2
#     Edge 44, Type (0, 1), BuildingBlock: XUDNAN_clean_linker_2, # of connection points: 2
#     Edge 45, Type (0, 1), BuildingBlock: XUDNAN_clean_linker_2, # of connection points: 2
#     Edge 46, Type (0, 1), BuildingBlock: XUDNAN_clean_linker_2, # of connection points: 2
#     Edge 47, Type (0, 1), BuildingBlock: XUDNAN_clean_linker_2, # of connection points: 2
#     Edge 48, Type (0, 1), BuildingBlock: XUDNAN_clean_linker_2, # of connection points: 2
#     Edge 49, Type (0, 1), BuildingBlock: XUDNAN_clean_linker_2, # of connection points: 2
#     Edge 50, Type (0, 1), BuildingBlock: XUDNAN_clean_linker_2, # of connection points: 2
#     Edge 51, Type (0, 1), BuildingBlock: XUDNAN_clean_linker_2, # of connection points: 2
#     Edge 52, Type (0, 1), BuildingBlock: XUDNAN_clean_linker_2, # of connection points: 2
#     Edge 53, Type (0, 1), BuildingBlock: XUDNAN_clean_linker_2, # of connection points: 2
#     Edge 54, Type (0, 1), BuildingBlock: XUDNAN_clean_linker_2, # of connection points: 2
#     Edge 55, Type (0, 1), BuildingBlock: XUDNAN_clean_linker_2, # of connection points: 2
#     Edge 56, Type (0, 1), BuildingBlock: XUDNAN_clean_linker_2, # of connection points: 2
#     Edge 57, Type (0, 1), BuildingBlock: XUDNAN_clean_linker_2, # of connection points: 2
#     Edge 58, Type (0, 1), BuildingBlock: XUDNAN_clean_linker_2, # of connection points: 2
#     Edge 59, Type (0, 1), BuildingBlock: XUDNAN_clean_linker_2, # of connection points: 2
#     Edge 60, Type (0, 1), BuildingBlock: XUDNAN_clean_linker_2, # of connection points: 2
#     Edge 61, Type (0, 1), BuildingBlock: XUDNAN_clean_linker_2, # of connection points: 2
#     Edge 62, Type (0, 1), BuildingBlock: XUDNAN_clean_linker_2, # of connection points: 2
#     Edge 63, Type (0, 1), BuildingBlock: XUDNAN_clean_linker_2, # of connection points: 2
#     Edge 64, Type (0, 1), BuildingBlock: XUDNAN_clean_linker_2, # of connection points: 2
#     Edge 65, Type (0, 1), BuildingBlock: XUDNAN_clean_linker_2, # of connection points: 2
#     Edge 66, Type (0, 1), BuildingBlock: XUDNAN_clean_linker_2, # of connection points: 2
#     Edge 67, Type (0, 1), BuildingBlock: XUDNAN_clean_linker_2, # of connection points: 2
#     Edge 68, Type (0, 1), BuildingBlock: XUDNAN_clean_linker_2, # of connection points: 2
#     Edge 69, Type (0, 1), BuildingBlock: XUDNAN_clean_linker_2, # of connection points: 2
#     Edge 70, Type (0, 1), BuildingBlock: XUDNAN_clean_linker_2, # of connection points: 2
#     Edge 71, Type (0, 1), BuildingBlock: XUDNAN_clean_linker_2, # of connection points: 2
#     Edge 72, Type (0, 1), BuildingBlock: XUDNAN_clean_linker_2, # of connection points: 2
#     Edge 73, Type (0, 1), BuildingBlock: XUDNAN_clean_linker_2, # of connection points: 2
#     Edge 74, Type (0, 1), BuildingBlock: XUDNAN_clean_linker_2, # of connection points: 2
#     Edge 75, Type (0, 1), BuildingBlock: XUDNAN_clean_linker_2, # of connection points: 2
#     Edge 76, Type (0, 1), BuildingBlock: XUDNAN_clean_linker_2, # of connection points: 2
#     Edge 77, Type (0, 1), BuildingBlock: XUDNAN_clean_linker_2, # of connection points: 2
#     Edge 78, Type (0, 1), BuildingBlock: XUDNAN_clean_linker_2, # of connection points: 2
#     Edge 79, Type (0, 1), BuildingBlock: XUDNAN_clean_linker_2, # of connection points: 2
#     Edge 80, Type (0, 1), BuildingBlock: XUDNAN_clean_linker_2, # of connection points: 2
# Relax obj value: 0.025
# Max RMSD: 0.166
# Mean RMSD: 0.120
data_MOF--net-eea--node1-KUMBUR_clean_sbu_0--node2-BETDIP_clean_linker_0--edge1-XUDNAN_clean_linker_2
_symmetry_space_group_name_H-M    P1
_symmetry_Int_Tables_number       1
_symmetry_cell_setting            triclinic
loop_
_symmetry_equiv_pos_as_xyz
'x, y, z'
_cell_length_a     54.179354
_cell_length_b     55.659314
_cell_length_c     66.536576
_cell_angle_alpha  90.135687
_cell_angle_beta   89.997633
_cell_angle_gamma 120.00413
loop_
_atom_site_label
_atom_site_type_symbol
_atom_site_fract_x
_atom_site_fract_y
_atom_site_fract_z
_atom_type_partial_charge
H0 H 0.20787 0.08191 0.38784 0.0
H1 H 0.2391 0.1415 0.43637 0.0
H2 H 0.23079 0.06163 0.44469 0.0
H3 H 0.24808 0.17238 0.41163 0.0
C4 C 0.23027 0.16118 0.4014 0.0
C5 C 0.2163 0.08773 0.40295 0.0
C6 C 0.21834 0.06835 0.41534 0.0
C7 C 0.22411 0.11437 0.4102 0.0
C8 C 0.23411 0.12161 0.43012 0.0
C9 C 0.23613 0.10239 0.44256 0.0
C10 C 0.22864 0.07614 0.43502 0.0
N11 N 0.21939 0.13241 0.39769 0.0
H12 H 0.93044 0.12329 0.38099 0.0
H13 H 0.88503 0.09697 0.43719 0.0
H14 H 0.94849 0.18242 0.42856 0.0
H15 H 0.89054 0.05862 0.42861 0.0
C16 C 0.88151 0.05544 0.41359 0.0
C17 C 0.92664 0.128 0.3961 0.0
C18 C 0.94197 0.15543 0.40338 0.0
C19 C 0.90627 0.10663 0.4083 0.0
C20 C 0.90103 0.11311 0.4278 0.0
C21 C 0.9164 0.14033 0.43532 0.0
C22 C 0.93678 0.16127 0.42298 0.0
N23 N 0.89089 0.07888 0.40076 0.0
H24 H 0.89111 0.8095 0.38311 0.0
H25 H 0.92792 0.7905 0.43363 0.0
H26 H 0.84411 0.78084 0.43823 0.0
H27 H 0.94272 0.77363 0.40468 0.0
C28 C 0.9527 0.79355 0.39705 0.0
C29 C 0.8899 0.8032 0.39865 0.0
C30 C 0.86485 0.79515 0.40975 0.0
C31 C 0.91264 0.80125 0.40714 0.0
C32 C 0.91049 0.79213 0.42715 0.0
C33 C 0.88591 0.78477 0.43869 0.0
C34 C 0.86332 0.78652 0.42975 0.0
N35 N 0.93733 0.80809 0.39535 0.0
H36 H 0.09177 0.20336 0.65056 0.0
H37 H 0.14184 0.22426 0.59646 0.0
H38 H 0.06818 0.23446 0.59941 0.0
H39 H 0.17796 0.23853 0.62166 0.0
C40 C 0.16806 0.21978 0.6307 0.0
C41 C 0.09535 0.21048 0.63513 0.0
C42 C 0.07694 0.21818 0.62603 0.0
C43 C 0.11933 0.21344 0.62478 0.0
C44 C 0.12405 0.22301 0.60476 0.0
C45 C 0.10538 0.23014 0.59521 0.0
C46 C 0.08209 0.22796 0.60616 0.0
N47 N 0.13828 0.20655 0.63475 0.0
H48 H 0.81413 0.89124 0.65313 0.0
H49 H 0.78873 0.91367 0.59855 0.0
H50 H 0.80053 0.84303 0.59896 0.0
H51 H 0.76042 0.91951 0.62491 0.0
C52 C 0.77948 0.93407 0.63314 0.0
C53 C 0.80887 0.88749 0.6373 0.0
C54 C 0.80854 0.86488 0.62742 0.0
C55 C 0.80113 0.90469 0.62712 0.0
C56 C 0.79407 0.90002 0.60668 0.0
C57 C 0.7937 0.87778 0.59657 0.0
C58 C 0.80064 0.86005 0.60696 0.0
N59 N 0.80038 0.92659 0.63757 0.0
H60 H 0.13109 0.9157 0.65151 0.0
H61 H 0.11092 0.86569 0.59831 0.0
H62 H 0.18413 0.94784 0.59898 0.0
H63 H 0.08583 0.83019 0.62099 0.0
C64 C 0.07725 0.83941 0.63122 0.0
C65 C 0.13616 0.91336 0.63614 0.0
C66 C 0.15997 0.93516 0.62655 0.0
C67 C 0.11858 0.88824 0.62626 0.0
C68 C 0.12493 0.88462 0.60636 0.0
C69 C 0.14865 0.90607 0.5964 0.0
C70 C 0.16604 0.9312 0.60665 0.0
N71 N 0.09373 0.86797 0.63644 0.0
H72 H 0.88154 0.41566 0.71992 0.0
H73 H 0.89652 0.46412 0.77398 0.0
H74 H 0.90927 0.39422 0.77412 0.0
H75 H 0.87038 0.47891 0.75935 0.0
C76 C 0.8729 0.47818 0.74322 0.0
C77 C 0.88725 0.41929 0.7357 0.0
C78 C 0.89571 0.40248 0.7458 0.0
C79 C 0.88693 0.44137 0.74571 0.0
C80 C 0.89546 0.44666 0.76605 0.0
C81 C 0.90299 0.42934 0.77637 0.0
C82 C 0.90298 0.40733 0.7662 0.0
N83 N 0.87914 0.45841 0.73463 0.0
H84 H 0.60178 0.46429 0.72171 0.0
H85 H 0.54441 0.44867 0.77107 0.0
H86 H 0.62289 0.52613 0.76771 0.0
H87 H 0.51358 0.41256 0.75358 0.0
C88 C 0.52438 0.40739 0.74211 0.0
C89 C 0.59674 0.4711 0.73561 0.0
C90 C 0.6156 0.49763 0.74337 0.0
C91 C 0.57097 0.45326 0.74531 0.0
C92 C 0.56406 0.46204 0.76327 0.0
C93 C 0.58253 0.48858 0.77121 0.0
C94 C 0.60825 0.50605 0.76124 0.0
N95 N 0.55291 0.42676 0.73645 0.0
H96 H 0.56235 0.14426 0.71405 0.0
H97 H 0.59556 0.12141 0.76437 0.0
H98 H 0.51584 0.12072 0.76979 0.0
H99 H 0.64026 0.16759 0.74401 0.0
C100 C 0.63393 0.1522 0.73211 0.0
C101 C 0.56036 0.1377 0.72957 0.0
C102 C 0.53655 0.13327 0.74096 0.0
C103 C 0.58188 0.134 0.73809 0.0
C104 C 0.57932 0.12515 0.75813 0.0
C105 C 0.55519 0.11963 0.76966 0.0
C106 C 0.53399 0.1239 0.7609 0.0
N107 N 0.60491 0.13727 0.72588 0.0
H108 H 0.75968 0.54281 0.98713 0.0
H109 H 0.81597 0.56941 0.93613 0.0
H110 H 0.74025 0.57647 0.9356 0.0
H111 H 0.8484 0.57981 0.963 0.0
C112 C 0.83751 0.55958 0.97017 0.0
C113 C 0.76469 0.55098 0.97199 0.0
C114 C 0.74739 0.55978 0.96245 0.0
C115 C 0.78956 0.55445 0.96255 0.0
C116 C 0.79665 0.56637 0.94319 0.0
C117 C 0.77918 0.57463 0.9331 0.0
C118 C 0.75433 0.57064 0.94291 0.0
N119 N 0.80732 0.54612 0.97276 0.0
H120 H 0.48577 0.2271 0.98446 0.0
H121 H 0.45329 0.26109 0.94079 0.0
H122 H 0.4573 0.18804 0.92641 0.0
H123 H 0.43625 0.26994 0.97155 0.0
C124 C 0.45724 0.28045 0.97846 0.0
C125 C 0.47647 0.22593 0.96982 0.0
C126 C 0.47248 0.20498 0.95613 0.0
C127 C 0.46887 0.24575 0.96462 0.0
C128 C 0.45815 0.24522 0.94527 0.0
C129 C 0.45405 0.2245 0.93147 0.0
C130 C 0.46072 0.20417 0.93709 0.0
N131 N 0.47364 0.26702 0.97857 0.0
H132 H 0.79941 0.25234 0.98219 0.0
H133 H 0.77015 0.20065 0.92921 0.0
H134 H 0.85217 0.2749 0.92942 0.0
H135 H 0.74899 0.16664 0.9553 0.0
C136 C 0.73976 0.17678 0.96396 0.0
C137 C 0.80273 0.24832 0.96677 0.0
C138 C 0.8285 0.26642 0.95704 0.0
C139 C 0.78183 0.22412 0.95706 0.0
C140 C 0.78642 0.21873 0.93706 0.0
C141 C 0.81152 0.23734 0.92684 0.0
C142 C 0.83243 0.2609 0.93703 0.0
N143 N 0.75619 0.20592 0.96753 0.0
H144 H 0.54497 0.76106 0.06173 0.0
H145 H 0.58986 0.82183 0.1075 0.0
H146 H 0.58572 0.74294 0.11046 0.0
H147 H 0.58564 0.85065 0.08734 0.0
C148 C 0.5675 0.83885 0.07754 0.0
C149 C 0.55712 0.76683 0.07558 0.0
C150 C 0.56369 0.74818 0.08517 0.0
C151 C 0.5663 0.79329 0.0834 0.0
C152 C 0.58293 0.80166 0.10094 0.0
C153 C 0.59035 0.78372 0.11054 0.0
C154 C 0.58034 0.75687 0.1028 0.0
N155 N 0.55755 0.81037 0.07343 0.0
H156 H 0.27105 0.80098 0.0466 0.0
H157 H 0.22521 0.76986 0.1022 0.0
H158 H 0.29417 0.854 0.09856 0.0
H159 H 0.21632 0.72787 0.08867 0.0
C160 C 0.2111 0.7305 0.07337 0.0
C161 C 0.26825 0.80391 0.06237 0.0
C162 C 0.28564 0.82991 0.07145 0.0
C163 C 0.24658 0.7819 0.0734 0.0
C164 C 0.24231 0.78629 0.09368 0.0
C165 C 0.25959 0.81215 0.10296 0.0
C166 C 0.28125 0.83374 0.09172 0.0
N167 N 0.22808 0.75635 0.06341 0.0
H168 H 0.22538 0.47522 0.04789 0.0
H169 H 0.25737 0.45213 0.0991 0.0
H170 H 0.17359 0.44289 0.10082 0.0
H171 H 0.27575 0.43787 0.07127 0.0
C172 C 0.28582 0.45796 0.06389 0.0
C173 C 0.22272 0.46769 0.06319 0.0
C174 C 0.19688 0.45933 0.07334 0.0
C175 C 0.24446 0.46464 0.07229 0.0
C176 C 0.2406 0.45431 0.09204 0.0
C177 C 0.21522 0.44659 0.10266 0.0
C178 C 0.19345 0.44904 0.09303 0.0
N179 N 0.27 0.47198 0.06143 0.0
H180 H 0.43073 0.87108 0.31655 0.0
H181 H 0.48527 0.90313 0.26487 0.0
H182 H 0.40631 0.9041 0.26694 0.0
H183 H 0.52024 0.91248 0.28935 0.0
C184 C 0.50986 0.89343 0.29802 0.0
C185 C 0.43516 0.88079 0.30188 0.0
C186 C 0.41548 0.88707 0.29299 0.0
C187 C 0.46088 0.88745 0.29222 0.0
C188 C 0.46632 0.89943 0.2729 0.0
C189 C 0.44651 0.90511 0.26343 0.0
C190 C 0.42154 0.89946 0.27389 0.0
N191 N 0.48 0.88045 0.30186 0.0
H192 H 0.15376 0.55646 0.3157 0.0
H193 H 0.13977 0.59341 0.26346 0.0
H194 H 0.11088 0.50628 0.26377 0.0
H195 H 0.18343 0.63002 0.27463 0.0
C196 C 0.17605 0.62984 0.28986 0.0
C197 C 0.1458 0.55451 0.30049 0.0
C198 C 0.1317 0.52836 0.29102 0.0
C199 C 0.14938 0.57819 0.29048 0.0
C200 C 0.13836 0.57551 0.27094 0.0
C201 C 0.12445 0.5497 0.26118 0.0
C202 C 0.12118 0.52621 0.27134 0.0
N203 N 0.16276 0.60433 0.30052 0.0
H204 H 0.45267 0.58057 0.3192 0.0
H205 H 0.43139 0.53142 0.2653 0.0
H206 H 0.50621 0.61224 0.26683 0.0
H207 H 0.4073 0.49558 0.28906 0.0
C208 C 0.39765 0.50487 0.29821 0.0
C209 C 0.45769 0.57821 0.30382 0.0
C210 C 0.48227 0.59957 0.29451 0.0
C211 C 0.43936 0.55348 0.29359 0.0
C212 C 0.44574 0.54997 0.27364 0.0
C213 C 0.46983 0.57125 0.26394 0.0
C214 C 0.48792 0.5958 0.27448 0.0
N215 N 0.41376 0.53355 0.30331 0.0
Tb216 Tb 0.49368 0.99625 0.99053 0.0
C217 C 0.55156 0.08681 0.05507 0.0
C218 C 0.60068 0.09768 0.0544 0.0
C219 C 0.58927 0.13324 0.06383 0.0
C220 C 0.57141 0.0788 0.05154 0.0
C221 C 0.56009 0.11394 0.06166 0.0
C222 C 0.60955 0.12512 0.06018 0.0
C223 C 0.51033 0.10012 0.06496 0.0
N224 N 0.52369 0.06748 0.0529 0.0
C225 C 0.50299 0.07341 0.05852 0.0
C226 C 0.53902 0.12059 0.06632 0.0
Tb227 Tb 0.51356 0.0247 0.04117 0.0
N228 N 0.56186 0.05212 0.04603 0.0
C229 C 0.58058 0.04246 0.04452 0.0
C230 C 0.62003 0.08826 0.05174 0.0
C231 C 0.60988 0.06042 0.04703 0.0
H232 H 0.48075 0.05779 0.05741 0.0
H233 H 0.62461 0.05278 0.04524 0.0
H234 H 0.63196 0.14003 0.06228 0.0
H235 H 0.49386 0.10489 0.06885 0.0
H236 H 0.57332 0.0211 0.04077 0.0
H237 H 0.38251 0.96549 0.98161 0.0
H238 H 0.64272 0.10212 0.05367 0.0
H239 H 0.52925 0.96467 0.97686 0.0
H240 H 0.4333 0.99816 0.98795 0.0
H241 H 0.51822 0.91816 0.96545 0.0
H242 H 0.59632 0.15428 0.06871 0.0
H243 H 0.36622 0.91632 0.97376 0.0
H244 H 0.37892 0.87945 0.96636 0.0
H245 H 0.54466 0.14123 0.07139 0.0
H246 H 0.41594 0.86655 0.96182 0.0
N247 N 0.44592 0.96773 0.98457 0.0
C248 C 0.42667 0.97681 0.98459 0.0
C249 C 0.38861 0.93057 0.97662 0.0
C250 C 0.40866 0.92182 0.97527 0.0
C251 C 0.39774 0.95831 0.98098 0.0
C252 C 0.43749 0.94118 0.97929 0.0
H253 H 0.46804 0.88098 0.96118 0.0
N254 N 0.48571 0.95388 0.97952 0.0
C255 C 0.5011 0.92231 0.96858 0.0
C256 C 0.45816 0.93401 0.97655 0.0
C257 C 0.50727 0.94871 0.97499 0.0
C258 C 0.47275 0.90136 0.96624 0.0
C259 C 0.45085 0.90718 0.96995 0.0
O260 O 0.51746 0.00726 0.96368 0.0
O261 O 0.5259 0.02656 0.01018 0.0
O262 O 0.51235 0.0565 0.02261 0.0
O263 O 0.48321 0.02919 0.99612 0.0
O264 O 0.53965 0.01095 0.98825 0.0
O265 O 0.48167 0.01373 0.96715 0.0
O266 O 0.48975 0.01317 0.06805 0.0
O267 O 0.48099 0.99498 0.02139 0.0
O268 O 0.49188 0.96387 0.00984 0.0
O269 O 0.5236 0.99148 0.03483 0.0
O270 O 0.46812 0.01155 0.04347 0.0
O271 O 0.52514 0.00634 0.0642 0.0
C272 C 0.54827 0.02889 1.00255 0.0
C273 C 0.49285 0.00652 0.93412 0.0
C274 C 0.49777 0.01754 0.89815 0.0
C275 C 0.50551 0.0257 0.91836 0.0
C276 C 0.47707 0.98975 0.89413 0.0
C277 C 0.47224 0.97906 0.92969 0.0
C278 C 0.46442 0.97077 0.90979 0.0
C279 C 0.49669 0.05282 1.00635 0.0
C280 C 0.50145 0.01557 0.95505 0.0
C281 C 0.42206 0.88736 0.96676 0.0
C282 C 0.40099 0.8947 0.96935 0.0
C283 C 0.4592 0.99418 0.02881 0.0
C284 C 0.51468 0.0138 0.09737 0.0
C285 C 0.50153 0.99513 0.11338 0.0
C286 C 0.50964 0.0036 0.13353 0.0
C287 C 0.53125 0.03115 0.1372 0.0
C288 C 0.53624 0.041 0.10151 0.0
C289 C 0.54444 0.04958 0.12131 0.0
C290 C 0.5091 0.96753 0.02507 0.0
C291 C 0.50562 0.00461 0.0765 0.0
H292 H 0.52116 0.04702 0.92191 0.0
H293 H 0.47094 0.98248 0.87885 0.0
H294 H 0.46223 0.96404 0.94154 0.0
H295 H 0.44859 0.94947 0.90647 0.0
H296 H 0.48518 0.97399 0.11006 0.0
H297 H 0.53769 0.03873 0.15239 0.0
H298 H 0.54669 0.05561 0.08948 0.0
H299 H 0.56098 0.07069 0.12438 0.0
Tb300 Tb 0.0291 0.50438 0.99414 0.0
C301 C 0.93133 0.46475 0.05495 0.0
C302 C 0.91678 0.49927 0.05353 0.0
C303 C 0.88209 0.45154 0.06183 0.0
C304 C 0.93786 0.49163 0.0515 0.0
C305 C 0.90353 0.44442 0.06058 0.0
C306 C 0.88872 0.47896 0.05831 0.0
C307 C 0.92088 0.41236 0.06497 0.0
N308 N 0.95269 0.45886 0.05373 0.0
C309 C 0.94817 0.43336 0.05952 0.0
C310 C 0.89836 0.4178 0.06526 0.0
Tb311 Tb 0.99632 0.49402 0.04342 0.0
N312 N 0.96519 0.51052 0.04684 0.0
C313 C 0.97326 0.53803 0.04545 0.0
C314 C 0.92467 0.52715 0.05105 0.0
C315 C 0.95313 0.54666 0.04727 0.0
H316 H 0.9654 0.4289 0.05921 0.0
H317 H 0.95958 0.56836 0.04563 0.0
H318 H 0.87214 0.48434 0.05972 0.0
H319 H 0.91725 0.392 0.06895 0.0
H320 H 0.99502 0.55351 0.04235 0.0
H321 H 0.07362 0.43656 0.98799 0.0
H322 H 0.90912 0.53388 0.05237 0.0
H323 H 0.0541 0.56744 0.97522 0.0
H324 H 0.03552 0.44784 0.99193 0.0
H325 H 0.10035 0.60666 0.96475 0.0
H326 H 0.86052 0.43618 0.06595 0.0
H327 H 0.12335 0.47399 0.98265 0.0
H328 H 0.15747 0.5246 0.97617 0.0
H329 H 0.87727 0.40154 0.06958 0.0
H330 H 0.16486 0.57134 0.96984 0.0
N331 N 0.06316 0.49156 0.98998 0.0
C332 C 0.05699 0.46453 0.98977 0.0
C333 C 0.10665 0.47913 0.98454 0.0
C334 C 0.11253 0.50653 0.98306 0.0
C335 C 0.07862 0.45796 0.98747 0.0
C336 C 0.08999 0.51203 0.98572 0.0
H337 H 0.1435 0.6021 0.96516 0.0
N338 N 0.07099 0.54132 0.9828 0.0
C339 C 0.09896 0.58752 0.96972 0.0
C340 C 0.09408 0.53799 0.98196 0.0
C341 C 0.07274 0.5652 0.97573 0.0
C342 C 0.12328 0.58491 0.97004 0.0
C343 C 0.12089 0.55964 0.9757 0.0
O344 O 0.01467 0.5123 0.96698 0.0
O345 O 0.99477 0.50212 0.01209 0.0
O346 O 0.96714 0.45892 0.02417 0.0
O347 O 0.99989 0.46006 1.00083 0.0
O348 O 0.00994 0.53086 0.98998 0.0
O349 O 0.01506 0.47418 0.97127 0.0
O350 O 1.00728 0.48313 0.07087 0.0
O351 O 0.03049 0.49559 0.0256 0.0
O352 O 0.05872 0.53967 0.01243 0.0
O353 O 0.02847 0.53829 0.03814 0.0
O354 O 0.01364 0.46636 0.04787 0.0
O355 O 0.01155 0.52347 0.06681 0.0
C356 C 0.99096 0.52032 1.0038 0.0
C357 C 0.02078 0.49136 0.93823 0.0
C358 C 0.01025 0.48296 0.90245 0.0
C359 C 1.00105 0.4807 0.92246 0.0
C360 C 0.03965 0.49624 0.89844 0.0
C361 C 0.05002 0.50433 0.93406 0.0
C362 C 0.05937 0.50677 0.9142 0.0
C363 C 0.97483 0.44703 0.0101 0.0
C364 C 0.01016 0.48925 0.95877 0.0
C365 C 0.14399 0.55491 0.9744 0.0
C366 C 0.13978 0.52832 0.97801 0.0
C367 C 0.03288 0.4766 0.0342 0.0
C368 C 1.00376 0.50558 0.09983 0.0
C369 C 0.02336 0.514 0.11573 0.0
C370 C 0.01443 0.51285 0.13575 0.0
C371 C 0.98536 0.50291 0.13957 0.0
C372 C 0.97491 0.49585 0.10389 0.0
C373 C 0.9658 0.49451 0.12371 0.0
C374 C 0.05254 0.55109 0.02764 0.0
C375 C 0.01407 0.50679 0.07926 0.0
H376 H 0.97847 0.47097 0.92578 0.0
H377 H 0.04736 0.49807 0.88319 0.0
H378 H 0.06553 0.51261 0.94605 0.0
H379 H 0.08196 0.51682 0.91102 0.0
H380 H 0.04558 0.52112 0.11247 0.0
H381 H 0.9778 0.50204 0.15476 0.0
H382 H 0.95952 0.48928 0.09182 0.0
H383 H 0.9435 0.48701 0.1268 0.0
Tb384 Tb 0.53505 0.51918 0.04163 0.0
C385 C 0.47415 0.55146 0.9796 0.0
C386 C 0.42526 0.51416 0.98141 0.0
C387 C 0.43565 0.56063 0.97248 0.0
C388 C 0.45471 0.52409 0.98347 0.0
C389 C 0.46498 0.57 0.97364 0.0
C390 C 0.4158 0.53272 0.97637 0.0
C391 C 0.51438 0.60486 0.96884 0.0
N392 N 0.50222 0.55956 0.98079 0.0
C393 C 0.52238 0.5856 0.97472 0.0
C394 C 0.48556 0.59714 0.96853 0.0
Tb395 Tb 0.5134 0.527 0.99145 0.0
N396 N 0.46482 0.50687 0.9881 0.0
C397 C 0.44646 0.47889 0.98942 0.0
C398 C 0.40632 0.48579 0.98395 0.0
C399 C 0.41702 0.46803 0.98765 0.0
H400 H 0.54471 0.59179 0.97505 0.0
H401 H 0.40259 0.44597 0.98927 0.0
H402 H 0.39325 0.52558 0.97495 0.0
H403 H 0.53043 0.62564 0.96455 0.0
H404 H 0.45419 0.46478 0.99243 0.0
H405 H 0.64663 0.59718 0.0475 0.0
H406 H 0.38352 0.47732 0.98262 0.0
H407 H 0.50095 0.45573 0.06044 0.0
H408 H 0.59553 0.58009 0.04272 0.0
H409 H 0.51262 0.42084 0.07281 0.0
H410 H 0.42812 0.5746 0.96812 0.0
H411 H 0.6636 0.56423 0.05455 0.0
H412 H 0.65149 0.51539 0.06262 0.0
H413 H 0.4794 0.61206 0.96389 0.0
H414 H 0.61479 0.467 0.06945 0.0
N415 N 0.58324 0.53745 0.04611 0.0
C416 C 0.60239 0.5653 0.04573 0.0
C417 C 0.64105 0.55652 0.05234 0.0
C418 C 0.62117 0.5283 0.05431 0.0
C419 C 0.63153 0.57517 0.04846 0.0
C420 C 0.5921 0.51938 0.05116 0.0
H421 H 0.56279 0.43159 0.07369 0.0
N422 N 0.54398 0.48567 0.05363 0.0
C423 C 0.52945 0.44085 0.06777 0.0
C424 C 0.57165 0.49241 0.0551 0.0
C425 C 0.52293 0.46073 0.06076 0.0
C426 C 0.55777 0.44694 0.06814 0.0
C427 C 0.57938 0.47325 0.06224 0.0
O428 O 0.51115 0.50857 0.06839 0.0
O429 O 0.50218 0.51769 0.02258 0.0
O430 O 0.51467 0.5596 0.01019 0.0
O431 O 0.5457 0.56258 0.03568 0.0
O432 O 0.48912 0.48926 0.04479 0.0
O433 O 0.54861 0.54866 0.06504 0.0
O434 O 0.53535 0.5393 0.96383 0.0
O435 O 0.54671 0.52862 0.01034 0.0
O436 O 0.53283 0.48511 0.02366 0.0
O437 O 0.50453 0.48444 0.99677 0.0
O438 O 0.55875 0.55779 0.98834 0.0
O439 O 0.50047 0.49774 0.96804 0.0
C440 C 0.48005 0.49841 0.03056 0.0
C441 C 0.53665 0.53021 0.0979 0.0
C442 C 0.53161 0.53518 0.13398 0.0
C443 C 0.52466 0.53741 0.11391 0.0
C444 C 0.55072 0.52553 0.13772 0.0
C445 C 0.55583 0.52088 0.10198 0.0
C446 C 0.56275 0.5185 0.1218 0.0
C447 C 0.53156 0.57256 0.02564 0.0
C448 C 0.52837 0.53201 0.07713 0.0
C449 C 0.60836 0.48146 0.06419 0.0
C450 C 0.62924 0.50901 0.06031 0.0
C451 C 0.56822 0.5489 1.00247 0.0
C452 C 0.50711 0.51665 0.93541 0.0
C453 C 0.52192 0.51748 0.9178 0.0
C454 C 0.51159 0.51965 0.89887 0.0
C455 C 0.48631 0.52075 0.8977 0.0
C456 C 0.4816 0.51727 0.93383 0.0
C457 C 0.47132 0.51936 0.9151 0.0
C458 C 0.51706 0.47343 0.00744 0.0
C459 C 0.51859 0.51553 0.95526 0.0
H460 H 0.50968 0.54445 0.11072 0.0
H461 H 0.55683 0.52392 0.15294 0.0
H462 H 0.56544 0.51544 0.08992 0.0
H463 H 0.57759 0.51129 0.12484 0.0
H464 H 0.54161 0.51694 0.91883 0.0
H465 H 0.47806 0.52246 0.88326 0.0
H466 H 0.46955 0.51608 0.94702 0.0
H467 H 0.4517 0.51996 0.91407 0.0
Tb468 Tb 0.15088 0.3199 0.32223 0.0
C469 C 0.21027 0.40955 0.38699 0.0
C470 C 0.25977 0.422 0.3847 0.0
C471 C 0.24734 0.45642 0.39538 0.0
C472 C 0.23056 0.40245 0.38247 0.0
C473 C 0.21828 0.43642 0.39391 0.0
C474 C 0.26808 0.44921 0.39078 0.0
C475 C 0.16839 0.42095 0.39897 0.0
N476 N 0.18254 0.38957 0.38548 0.0
C477 C 0.16158 0.39452 0.39219 0.0
C478 C 0.19686 0.44212 0.39959 0.0
Tb479 Tb 0.1732 0.3474 0.37296 0.0
N480 N 0.22155 0.37599 0.37665 0.0
C481 C 0.24086 0.36718 0.37421 0.0
C482 C 0.27965 0.41346 0.38112 0.0
C483 C 0.27011 0.38581 0.37613 0.0
H484 H 0.1395 0.37833 0.39161 0.0
H485 H 0.28528 0.37884 0.37362 0.0
H486 H 0.29042 0.46464 0.39236 0.0
H487 H 0.15168 0.42497 0.4037 0.0
H488 H 0.23405 0.346 0.3702 0.0
H489 H 0.03782 0.2818 0.31475 0.0
H490 H 0.30231 0.42785 0.38254 0.0
H491 H 0.19004 0.29272 0.3065 0.0
H492 H 0.08793 0.3169 0.32066 0.0
H493 H 0.18213 0.24775 0.29407 0.0
H494 H 0.25399 0.47729 0.40048 0.0
H495 H 0.02477 0.2336 0.3062 0.0
H496 H 0.04082 0.19948 0.29767 0.0
H497 H 0.20209 0.46254 0.40492 0.0
H498 H 0.08021 0.19027 0.29175 0.0
N499 N 0.10351 0.28888 0.31647 0.0
C500 C 0.08277 0.29602 0.31706 0.0
C501 C 0.0469 0.24895 0.30889 0.0
C502 C 0.0684 0.2422 0.30687 0.0
C503 C 0.05419 0.27613 0.31366 0.0
C504 C 0.09682 0.26295 0.31067 0.0
H505 H 0.13305 0.20831 0.29004 0.0
N506 N 0.1458 0.27903 0.30995 0.0
C507 C 0.1641 0.25029 0.29773 0.0
C508 C 0.1188 0.25787 0.30712 0.0
C509 C 0.16848 0.27586 0.30474 0.0
C510 C 0.13638 0.22805 0.29553 0.0
C511 C 0.11327 0.23178 0.29997 0.0
O512 O 0.17409 0.33414 0.29528 0.0
O513 O 0.18343 0.35084 0.34148 0.0
O514 O 0.1679 0.37805 0.35561 0.0
O515 O 0.13663 0.34947 0.33047 0.0
O516 O 0.19701 0.33661 0.31848 0.0
O517 O 0.13624 0.33677 0.30005 0.0
O518 O 0.15102 0.335 0.40045 0.0
O519 O 0.14018 0.31758 0.3536 0.0
O520 O 0.15137 0.28767 0.34048 0.0
O521 O 0.18431 0.31524 0.36491 0.0
O522 O 0.12748 0.33148 0.37768 0.0
O523 O 0.18699 0.32949 0.3949 0.0
C524 C 0.20567 0.35413 0.33302 0.0
C525 C 0.14777 0.33193 0.26648 0.0
C526 C 0.15374 0.34291 0.23049 0.0
C527 C 0.16077 0.35112 0.25077 0.0
C528 C 0.13332 0.31505 0.22637 0.0
C529 C 0.12741 0.30442 0.26192 0.0
C530 C 0.12024 0.29608 0.24197 0.0
C531 C 0.14883 0.37275 0.34124 0.0
C532 C 0.15635 0.34082 0.28743 0.0
C533 C 0.08496 0.21055 0.29708 0.0
C534 C 0.06254 0.21578 0.30047 0.0
C535 C 0.11843 0.31492 0.36256 0.0
C536 C 0.17785 0.33603 0.42871 0.0
C537 C 0.16383 0.31788 0.44483 0.0
C538 C 0.17255 0.32618 0.4649 0.0
C539 C 0.19568 0.35304 0.4684 0.0
C540 C 0.20085 0.36258 0.43266 0.0
C541 C 0.20969 0.37098 0.4524 0.0
C542 C 0.16981 0.29146 0.3549 0.0
C543 C 0.16793 0.32702 0.40795 0.0
H544 H 0.17624 0.37245 0.25443 0.0
H545 H 0.12776 0.30768 0.21105 0.0
H546 H 0.11719 0.28937 0.27373 0.0
H547 H 0.10464 0.27474 0.23856 0.0
H548 H 0.14628 0.29725 0.44165 0.0
H549 H 0.20269 0.36049 0.48355 0.0
H550 H 0.21193 0.37682 0.42053 0.0
H551 H 0.22738 0.39159 0.45534 0.0
Tb552 Tb 0.69401 0.83135 0.33016 0.0
C553 C 0.60119 0.80565 0.3936 0.0
C554 C 0.59074 0.84281 0.38976 0.0
C555 C 0.554 0.79778 0.40181 0.0
C556 C 0.60974 0.83251 0.38821 0.0
C557 C 0.57343 0.78806 0.4009 0.0
C558 C 0.56264 0.82513 0.39621 0.0
C559 C 0.58694 0.75348 0.40725 0.0
N560 N 0.62063 0.79717 0.39251 0.0
C561 C 0.61425 0.77177 0.39994 0.0
C562 C 0.56631 0.76151 0.4075 0.0
Tb563 Tb 0.66451 0.82812 0.37964 0.0
N564 N 0.63705 0.84885 0.3821 0.0
C565 C 0.64729 0.87649 0.37866 0.0
C566 C 0.60071 0.87067 0.38515 0.0
C567 C 0.62923 0.88766 0.37983 0.0
H568 H 0.62992 0.76523 0.39977 0.0
H569 H 0.63731 0.90936 0.37652 0.0
H570 H 0.54763 0.83256 0.39732 0.0
H571 H 0.58183 0.73318 0.41266 0.0
H572 H 0.66916 0.89003 0.3744 0.0
H573 H 0.72491 0.75297 0.32828 0.0
H574 H 0.58677 0.87937 0.38602 0.0
H575 H 0.72742 0.89649 0.31398 0.0
H576 H 0.69159 0.77068 0.33214 0.0
H577 H 0.77573 0.93112 0.30275 0.0
H578 H 0.53247 0.78451 0.4072 0.0
H579 H 0.77566 0.78528 0.32053 0.0
H580 H 0.81388 0.83357 0.31133 0.0
H581 H 0.5452 0.74734 0.41321 0.0
H582 H 0.82776 0.88214 0.30435 0.0
N583 N 0.72339 0.81293 0.32776 0.0
C584 C 0.71373 0.7851 0.32895 0.0
C585 C 0.76119 0.79324 0.32242 0.0
C586 C 0.77051 0.82142 0.31972 0.0
C587 C 0.73255 0.77494 0.32672 0.0
C588 C 0.75085 0.83071 0.32251 0.0
H589 H 0.81363 0.91871 0.30102 0.0
N590 N 0.73807 0.86503 0.31938 0.0
C591 C 0.77115 0.91053 0.30701 0.0
C592 C 0.75842 0.8577 0.31799 0.0
C593 C 0.74376 0.89081 0.31334 0.0
C594 C 0.79251 0.90349 0.30613 0.0
C595 C 0.78615 0.87663 0.3113 0.0
O596 O 0.68605 0.84109 0.30116 0.0
O597 O 0.66287 0.8349 0.34797 0.0
O598 O 0.63146 0.79377 0.36252 0.0
O599 O 0.65802 0.78874 0.33671 0.0
O600 O 0.67875 0.86079 0.32429 0.0
O601 O 0.67676 0.79962 0.30845 0.0
O602 O 0.67855 0.81922 0.40659 0.0
O603 O 0.6951 0.82354 0.36166 0.0
O604 O 0.72747 0.86381 0.34891 0.0
O605 O 0.69904 0.87023 0.37198 0.0
O606 O 0.67608 0.79598 0.38438 0.0
O607 O 0.68148 0.85887 0.40215 0.0
C608 C 0.66053 0.8533 0.33861 0.0
C609 C 0.69116 0.81499 0.27511 0.0
C610 C 0.69207 0.81649 0.2385 0.0
C611 C 0.67922 0.81674 0.2568 0.0
C612 C 0.71688 0.81452 0.23858 0.0
C613 C 0.7155 0.81216 0.27483 0.0
C614 C 0.72839 0.81215 0.25669 0.0
C615 C 0.63416 0.77962 0.34745 0.0
C616 C 0.67811 0.81632 0.29423 0.0
C617 C 0.80629 0.86791 0.30943 0.0
C618 C 0.79841 0.84027 0.31345 0.0
C619 C 0.69463 0.80319 0.37029 0.0
C620 C 0.67665 0.84238 0.43548 0.0
C621 C 0.69659 0.84799 0.45079 0.0
C622 C 0.68891 0.8467 0.47111 0.0
C623 C 0.66072 0.83948 0.47587 0.0
C624 C 0.6487 0.83539 0.44045 0.0
C625 C 0.64081 0.83392 0.46059 0.0
C626 C 0.72386 0.87846 0.3631 0.0
C627 C 0.68549 0.84309 0.41457 0.0
H628 H 0.66022 0.81858 0.25678 0.0
H629 H 0.72703 0.81429 0.22461 0.0
H630 H 0.72453 0.80974 0.28849 0.0
H631 H 0.74726 0.81015 0.25669 0.0
H632 H 0.71806 0.85299 0.44682 0.0
H633 H 0.65419 0.8386 0.49136 0.0
H634 H 0.63306 0.83102 0.42883 0.0
H635 H 0.61922 0.82852 0.46439 0.0
Tb636 Tb 0.19462 0.83821 0.37306 0.0
C637 C 0.15081 0.88861 0.30999 0.0
C638 C 0.1 0.85695 0.3086 0.0
C639 C 0.11891 0.90584 0.30125 0.0
C640 C 0.12793 0.86226 0.31221 0.0
C641 C 0.14673 0.91069 0.30412 0.0
C642 C 0.09556 0.87899 0.30349 0.0
C643 C 0.19791 0.94005 0.30298 0.0
N644 N 0.17726 0.89234 0.31288 0.0
C645 C 0.20082 0.91742 0.30871 0.0
C646 C 0.17074 0.93678 0.30092 0.0
Tb647 Tb 0.17997 0.85443 0.32317 0.0
N648 N 0.13322 0.84162 0.31709 0.0
C649 C 0.11142 0.81466 0.31716 0.0
C650 C 0.07748 0.8296 0.30982 0.0
C651 C 0.08328 0.80833 0.31386 0.0
H652 H 0.22193 0.92026 0.31041 0.0
H653 H 0.06607 0.78702 0.31452 0.0
H654 H 0.07424 0.87539 0.30084 0.0
H655 H 0.21663 0.96003 0.30022 0.0
H656 H 0.1153 0.79786 0.32035 0.0
H657 H 0.30862 0.90622 0.37965 0.0
H658 H 0.05568 0.82464 0.30726 0.0
H659 H 0.15346 0.77296 0.38726 0.0
H660 H 0.25897 0.89495 0.37485 0.0
H661 H 0.15938 0.73366 0.39788 0.0
H662 H 0.11527 0.92256 0.2969 0.0
H663 H 0.3196 0.86888 0.38646 0.0
H664 H 0.30157 0.81823 0.39307 0.0
H665 H 0.16854 0.95433 0.29646 0.0
H666 H 0.26085 0.7711 0.39801 0.0
N667 N 0.24159 0.85133 0.37824 0.0
C668 C 0.26323 0.87834 0.37786 0.0
C669 C 0.29767 0.86376 0.38436 0.0
C670 C 0.27533 0.83636 0.38594 0.0
C671 C 0.29154 0.88489 0.38057 0.0
C672 C 0.24722 0.83084 0.3829 0.0
H673 H 0.20766 0.73944 0.40024 0.0
N674 N 0.19792 0.8006 0.38323 0.0
C675 C 0.1779 0.75344 0.39433 0.0
C676 C 0.22453 0.80446 0.38546 0.0
C677 C 0.17463 0.77578 0.38834 0.0
C678 C 0.20518 0.75676 0.39559 0.0
C679 C 0.22897 0.78264 0.39143 0.0
O680 O 0.17004 0.82729 0.39951 0.0
O681 O 0.1655 0.84298 0.35367 0.0
O682 O 0.18362 0.88721 0.34314 0.0
O683 O 0.21001 0.88299 0.36929 0.0
O684 O 0.14794 0.81229 0.3744 0.0
O685 O 0.20988 0.86573 0.39765 0.0
O686 O 0.2051 0.86564 0.29693 0.0
O687 O 0.20896 0.84933 0.3425 0.0
O688 O 0.18919 0.80452 0.35329 0.0
O689 O 0.1632 0.80948 0.32723 0.0
O690 O 0.22663 0.88063 0.32234 0.0
O691 O 0.16576 0.82668 0.29876 0.0
C692 C 0.14186 0.8245 0.36051 0.0
C693 C 0.19547 0.8455 0.42979 0.0
C694 C 0.19383 0.85296 0.46594 0.0
C695 C 0.18755 0.85653 0.44596 0.0
C696 C 0.20818 0.83813 0.46938 0.0
C697 C 0.20981 0.83089 0.43362 0.0
C698 C 0.21607 0.82721 0.45332 0.0
C699 C 0.19906 0.89646 0.35973 0.0
C700 C 0.18852 0.84946 0.40912 0.0
C701 C 0.25694 0.78765 0.39366 0.0
C702 C 0.28011 0.81449 0.39088 0.0
C703 C 0.23267 0.86792 0.33584 0.0
C704 C 0.18046 0.84657 0.26654 0.0
C705 C 0.19514 0.84243 0.25072 0.0
C706 C 0.18892 0.84507 0.23055 0.0
C707 C 0.16774 0.85201 0.22653 0.0
C708 C 0.15948 0.85351 0.26219 0.0
C709 C 0.15321 0.85622 0.24226 0.0
C710 C 0.17307 0.79518 0.33696 0.0
C711 C 0.18716 0.84315 0.2874 0.0
H712 H 0.17625 0.86763 0.44295 0.0
H713 H 0.21379 0.83537 0.48448 0.0
H714 H 0.2162 0.82238 0.42146 0.0
H715 H 0.22723 0.81597 0.45616 0.0
H716 H 0.21112 0.83676 0.25416 0.0
H717 H 0.16269 0.8546 0.21122 0.0
H718 H 0.14791 0.85672 0.27413 0.0
H719 H 0.13703 0.86164 0.23898 0.0
Tb720 Tb 0.83051 0.66221 0.65944 0.0
C721 C 0.89538 0.74207 0.72927 0.0
C722 C 0.94407 0.75236 0.72532 0.0
C723 C 0.93431 0.78625 0.74097 0.0
C724 C 0.91455 0.73442 0.72265 0.0
C725 C 0.90491 0.76785 0.73884 0.0
C726 C 0.95387 0.77853 0.7342 0.0
C727 C 0.85564 0.75446 0.74461 0.0
N728 N 0.86725 0.72376 0.72687 0.0
C729 C 0.84729 0.72911 0.73505 0.0
C730 C 0.8846 0.77406 0.74632 0.0
Tb731 Tb 0.85555 0.68297 0.71084 0.0
N732 N 0.90418 0.70899 0.71415 0.0
C733 C 0.92232 0.69943 0.70933 0.0
C734 C 0.96277 0.74325 0.71933 0.0
C735 C 0.95181 0.71654 0.71153 0.0
H736 H 0.82486 0.7141 0.73367 0.0
H737 H 0.96606 0.70911 0.70713 0.0
H738 H 0.97648 0.79271 0.73623 0.0
H739 H 0.83976 0.75886 0.75063 0.0
H740 H 0.91443 0.67894 0.70321 0.0
H741 H 0.71924 0.63286 0.66627 0.0
H742 H 0.98561 0.75645 0.72101 0.0
H743 H 0.86009 0.63464 0.63126 0.0
H744 H 0.77088 0.66478 0.66765 0.0
H745 H 0.84541 0.59024 0.61383 0.0
H746 H 0.9421 0.80627 0.74814 0.0
H747 H 0.70022 0.58445 0.65481 0.0
H748 H 0.70988 0.54833 0.63986 0.0
H749 H 0.89103 0.79366 0.75377 0.0
H750 H 0.74443 0.53662 0.6254 0.0
N751 N 0.78171 0.63472 0.65769 0.0
C752 C 0.7632 0.64383 0.66254 0.0
C753 C 0.72306 0.5984 0.65541 0.0
C754 C 0.742 0.58978 0.64904 0.0
C755 C 0.73371 0.62573 0.6618 0.0
C756 C 0.77151 0.60873 0.65028 0.0
H757 H 0.79509 0.55245 0.6151 0.0
N758 N 0.81866 0.62183 0.64272 0.0
C759 C 0.82983 0.59319 0.62197 0.0
C760 C 0.79076 0.60204 0.64242 0.0
C761 C 0.83806 0.61834 0.63182 0.0
C762 C 0.80144 0.57187 0.62279 0.0
C763 C 0.78134 0.57636 0.63274 0.0
O764 O 0.85258 0.6795 0.6324 0.0
O765 O 0.86471 0.68962 0.67919 0.0
O766 O 0.85387 0.71745 0.69672 0.0
O767 O 0.82117 0.69409 0.67101 0.0
O768 O 0.87581 0.67693 0.65382 0.0
O769 O 0.81477 0.68095 0.63968 0.0
O770 O 0.8359 0.67063 0.73938 0.0
O771 O 0.82167 0.65542 0.69115 0.0
O772 O 0.83573 0.6286 0.67173 0.0
O773 O 0.86425 0.65044 0.70004 0.0
O774 O 0.81012 0.66801 0.71625 0.0
O775 O 0.86734 0.66023 0.72954 0.0
C776 C 0.88595 0.69248 0.66945 0.0
C777 C 0.82375 0.67748 0.60527 0.0
C778 C 0.8286 0.6875 0.56912 0.0
C779 C 0.83742 0.69583 0.58919 0.0
C780 C 0.80601 0.66032 0.56562 0.0
C781 C 0.80088 0.65086 0.60128 0.0
C782 C 0.79219 0.64233 0.58158 0.0
C783 C 0.83601 0.7162 0.68262 0.0
C784 C 0.83401 0.68601 0.62604 0.0
C785 C 0.75211 0.55665 0.63251 0.0
C786 C 0.73244 0.56334 0.64072 0.0
C787 C 0.80023 0.65201 0.70085 0.0
C788 C 0.86418 0.66563 0.76461 0.0
C789 C 0.84693 0.65338 0.78165 0.0
C790 C 0.85934 0.65676 0.80082 0.0
C791 C 0.88906 0.67275 0.80283 0.0
C792 C 0.89386 0.68199 0.76707 0.0
C793 C 0.90614 0.68548 0.78607 0.0
C794 C 0.85204 0.6296 0.68696 0.0
C795 C 0.8512 0.65946 0.74434 0.0
H796 H 0.85469 0.71658 0.59241 0.0
H797 H 0.7991 0.65269 0.5505 0.0
H798 H 0.78976 0.63661 0.61336 0.0
H799 H 0.77476 0.62158 0.57864 0.0
H800 H 0.82401 0.64075 0.77994 0.0
H801 H 0.89901 0.67574 0.81745 0.0
H802 H 0.90764 0.6917 0.75429 0.0
H803 H 0.92903 0.69796 0.7878 0.0
Tb804 Tb 0.35942 0.16877 0.66165 0.0
C805 C 0.26989 0.14032 0.72684 0.0
C806 C 0.25443 0.17391 0.72252 0.0
C807 C 0.22152 0.12812 0.73574 0.0
C808 C 0.27553 0.16626 0.72085 0.0
C809 C 0.24308 0.12114 0.73483 0.0
C810 C 0.22717 0.15447 0.72956 0.0
C811 C 0.26181 0.09074 0.74201 0.0
N812 N 0.29137 0.13453 0.72584 0.0
C813 C 0.2881 0.11056 0.73405 0.0
C814 C 0.23908 0.09589 0.74217 0.0
Tb815 Tb 0.33334 0.16791 0.71203 0.0
N816 N 0.3022 0.18445 0.71433 0.0
C817 C 0.30971 0.21142 0.71055 0.0
C818 C 0.26157 0.20103 0.71754 0.0
C819 C 0.28945 0.21996 0.71179 0.0
H820 H 0.30552 0.10637 0.73388 0.0
H821 H 0.29535 0.24113 0.70823 0.0
H822 H 0.21057 0.15984 0.73075 0.0
H823 H 0.25911 0.07152 0.74801 0.0
H824 H 0.33106 0.22636 0.70597 0.0
H825 H 0.39691 0.09525 0.66738 0.0
H826 H 0.24595 0.2077 0.71849 0.0
H827 H 0.38687 0.22893 0.63797 0.0
H828 H 0.36153 0.11043 0.66926 0.0
H829 H 0.43274 0.2626 0.62253 0.0
H830 H 0.20065 0.11357 0.74163 0.0
H831 H 0.44603 0.12781 0.65607 0.0
H832 H 0.48118 0.17481 0.64229 0.0
H833 H 0.21878 0.08055 0.74842 0.0
H834 H 0.49097 0.22046 0.62999 0.0
N835 N 0.39031 0.15183 0.65972 0.0
C836 C 0.38276 0.12503 0.66423 0.0
C837 C 0.43055 0.13469 0.65687 0.0
C838 C 0.43768 0.16153 0.65108 0.0
C839 C 0.40283 0.11624 0.6632 0.0
C840 C 0.41677 0.16946 0.65259 0.0
H841 H 0.47285 0.25324 0.62223 0.0
N842 N 0.40106 0.20108 0.64681 0.0
C843 C 0.43017 0.24374 0.62915 0.0
C844 C 0.42235 0.19504 0.64586 0.0
C845 C 0.40418 0.22457 0.63787 0.0
C846 C 0.45278 0.23841 0.62905 0.0
C847 C 0.4489 0.2136 0.63719 0.0
O848 O 0.3435 0.17367 0.63406 0.0
O849 O 0.32819 0.17112 0.68028 0.0
O850 O 0.30078 0.13113 0.69644 0.0
O851 O 0.32787 0.12611 0.6713 0.0
O852 O 0.34166 0.19599 0.65576 0.0
O853 O 0.3431 0.13566 0.64101 0.0
O854 O 0.34839 0.16242 0.73979 0.0
O855 O 0.36485 0.16615 0.69342 0.0
O856 O 0.3915 0.20672 0.67637 0.0
O857 O 0.36487 0.21064 0.70256 0.0
O858 O 0.3519 0.14125 0.71787 0.0
O859 O 0.34887 0.20052 0.73312 0.0
C860 C 0.32427 0.18839 0.67064 0.0
C861 C 0.34754 0.14888 0.60686 0.0
C862 C 0.33676 0.14268 0.57096 0.0
C863 C 0.32854 0.14343 0.59092 0.0
C864 C 0.36459 0.14795 0.56722 0.0
C865 C 0.37512 0.15387 0.60287 0.0
C866 C 0.3836 0.15352 0.5831 0.0
C867 C 0.30421 0.11646 0.68214 0.0
C868 C 0.33805 0.1495 0.62744 0.0
C869 C 0.4703 0.20639 0.6364 0.0
C870 C 0.46472 0.18039 0.64338 0.0
C871 C 0.36946 0.14935 0.70307 0.0
C872 C 0.34335 0.18639 0.76713 0.0
C873 C 0.36261 0.1949 0.78328 0.0
C874 C 0.35298 0.19342 0.80312 0.0
C875 C 0.32387 0.18343 0.80662 0.0
C876 C 0.31447 0.17698 0.77089 0.0
C877 C 0.3048 0.17545 0.79054 0.0
C878 C 0.38796 0.22097 0.69098 0.0
C879 C 0.35362 0.18642 0.74667 0.0
H880 H 0.30735 0.13989 0.5941 0.0
H881 H 0.3715 0.14718 0.55207 0.0
H882 H 0.39001 0.15791 0.61494 0.0
H883 H 0.4049 0.15734 0.5801 0.0
H884 H 0.38496 0.20217 0.78045 0.0
H885 H 0.31599 0.18224 0.82176 0.0
H886 H 0.29939 0.17073 0.75873 0.0
H887 H 0.28244 0.16804 0.79332 0.0
Tb888 Tb 0.86148 0.16788 0.70487 0.0
C889 C 0.8175 0.22462 0.6471 0.0
C890 C 0.76645 0.19518 0.64464 0.0
C891 C 0.78769 0.24513 0.64129 0.0
C892 C 0.79378 0.19868 0.64789 0.0
C893 C 0.81491 0.24821 0.64352 0.0
C894 C 0.76347 0.2186 0.64177 0.0
C895 C 0.86626 0.27572 0.64335 0.0
N896 N 0.84331 0.22655 0.64918 0.0
C897 C 0.8677 0.25165 0.64674 0.0
C898 C 0.83975 0.27404 0.64188 0.0
Tb899 Tb 0.84352 0.18617 0.65621 0.0
N900 N 0.79771 0.1767 0.65054 0.0
C901 C 0.77526 0.15037 0.64823 0.0
C902 C 0.74313 0.16823 0.64369 0.0
C903 C 0.74766 0.14572 0.64509 0.0
H904 H 0.88839 0.25348 0.64809 0.0
H905 H 0.7299 0.12475 0.64386 0.0
H906 H 0.74262 0.21638 0.63947 0.0
H907 H 0.88562 0.29557 0.64194 0.0
H908 H 0.77834 0.13276 0.64935 0.0
H909 H 0.97484 0.23267 0.71735 0.0
H910 H 0.72176 0.16459 0.64128 0.0
H911 H 0.81854 0.10105 0.7148 0.0
H912 H 0.92589 0.22295 0.71171 0.0
H913 H 0.82284 0.06012 0.72266 0.0
H914 H 0.78519 0.26301 0.63871 0.0
H915 H 0.9847 0.19399 0.7206 0.0
H916 H 0.96544 0.14253 0.72328 0.0
H917 H 0.83869 0.2927 0.63919 0.0
H918 H 0.92383 0.09537 0.72508 0.0
N919 N 0.90784 0.17906 0.71071 0.0
C920 C 0.92966 0.20576 0.71296 0.0
C921 C 0.96308 0.18957 0.71799 0.0
C922 C 0.9404 0.16227 0.71724 0.0
C923 C 0.95758 0.21143 0.71622 0.0
C924 C 0.91272 0.15772 0.71368 0.0
H925 H 0.87047 0.06456 0.72555 0.0
N926 N 0.86338 0.12861 0.71261 0.0
C927 C 0.84181 0.08008 0.72043 0.0
C928 C 0.88956 0.13146 0.71477 0.0
C929 C 0.83949 0.10343 0.71603 0.0
C930 C 0.86872 0.08263 0.72196 0.0
C931 C 0.89306 0.10862 0.71933 0.0
O932 O 0.83705 0.15636 0.73137 0.0
O933 O 0.83105 0.17223 0.68658 0.0
O934 O 0.84716 0.21624 0.67885 0.0
O935 O 0.87883 0.2129 0.70083 0.0
O936 O 0.81494 0.14196 0.70785 0.0
O937 O 0.87616 0.19537 0.72958 0.0
O938 O 0.86653 0.19771 0.62903 0.0
O939 O 0.87406 0.18179 0.67443 0.0
O940 O 0.85591 0.13626 0.68275 0.0
O941 O 0.82581 0.14115 0.65997 0.0
O942 O 0.8899 0.21157 0.65277 0.0
O943 O 0.82819 0.15802 0.63202 0.0
C944 C 0.80805 0.15356 0.69406 0.0
C945 C 0.8616 0.17508 0.76178 0.0
C946 C 0.85844 0.18208 0.79788 0.0
C947 C 0.85316 0.18603 0.77773 0.0
C948 C 0.87234 0.16692 0.80172 0.0
C949 C 0.8755 0.16015 0.76598 0.0
C950 C 0.88082 0.15612 0.78587 0.0
C951 C 0.86679 0.22657 0.69314 0.0
C952 C 0.8549 0.17879 0.74098 0.0
C953 C 0.92064 0.11268 0.72179 0.0
C954 C 0.94432 0.13951 0.72075 0.0
C955 C 0.89695 0.20014 0.66656 0.0
C956 C 0.84028 0.17723 0.59937 0.0
C957 C 0.85475 0.17363 0.58313 0.0
C958 C 0.84708 0.17524 0.56314 0.0
C959 C 0.8246 0.18052 0.55972 0.0
C960 C 0.8181 0.18269 0.59562 0.0
C961 C 0.81032 0.18428 0.57587 0.0
C962 C 0.8365 0.12656 0.66822 0.0
C963 C 0.84853 0.17475 0.62 0.0
H964 H 0.84211 0.19728 0.7744 0.0
H965 H 0.87714 0.1638 0.81697 0.0
H966 H 0.8821 0.15153 0.75392 0.0
H967 H 0.8916 0.1446 0.78903 0.0
H968 H 0.87174 0.16919 0.5861 0.0
H969 H 0.81836 0.18222 0.54456 0.0
H970 H 0.80678 0.18561 0.60792 0.0
H971 H 0.79318 0.18851 0.57304 0.0
H972 H 0.33769 0.84069 0.05623 0.0
H973 H 0.28132 0.87459 0.06143 0.0
H974 H 0.31807 0.91846 0.04624 0.0
H975 H 0.3997 0.9006 0.07042 0.0
H976 H 0.42336 0.8969 0.05327 0.0
H977 H 0.3913 0.86668 0.0616 0.0
H978 H 0.37641 0.85316 0.02466 0.0
H979 H 0.40783 0.88386 0.01586 0.0
H980 H 0.37291 0.87699 0.00828 0.0
H981 H 0.36238 0.96038 0.03597 0.0
H982 H 0.41174 0.99793 0.03001 0.0
H983 H 0.44049 0.93797 0.0298 0.0
C984 C 0.33292 0.85712 0.05352 0.0
C985 C 0.30655 0.85424 0.05966 0.0
C986 C 0.30125 0.87638 0.05655 0.0
C987 C 0.32199 0.90132 0.04792 0.0
C988 C 0.348 0.90386 0.04241 0.0
C989 C 0.35358 0.88237 0.04491 0.0
C990 C 0.38431 0.89164 0.03929 0.0
C991 C 0.40062 0.88879 0.05721 0.0
C992 C 0.38545 0.87545 0.02093 0.0
C993 C 0.39533 0.92192 0.0341 0.0
C994 C 0.37383 0.92834 0.03582 0.0
C995 C 0.3792 0.95547 0.03399 0.0
C996 C 0.40726 0.97667 0.03063 0.0
C997 C 0.42962 0.97069 0.0287 0.0
C998 C 0.42354 0.9429 0.03025 0.0
H999 H 0.18804 0.50239 0.06187 0.0
H1000 H 0.14901 0.41283 0.0623 0.0
H1001 H 0.10478 0.40838 0.04816 0.0
H1002 H 0.12674 0.5043 0.07766 0.0
H1003 H 0.13264 0.53327 0.06221 0.0
H1004 H 0.16241 0.52975 0.07023 0.0
H1005 H 0.17752 0.53223 0.03335 0.0
H1006 H 0.14715 0.53435 0.02462 0.0
H1007 H 0.15332 0.50724 0.01547 0.0
H1008 H 0.06341 0.4128 0.03872 0.0
H1009 H 0.02673 0.42592 0.03317 0.0
H1010 H 0.09116 0.51289 0.03686 0.0
C1011 C 0.17034 0.48196 0.05847 0.0
C1012 C 0.17193 0.45787 0.06289 0.0
C1013 C 0.1482 0.43143 0.05881 0.0
C1014 C 0.12304 0.42874 0.05077 0.0
C1015 C 0.12185 0.45272 0.04685 0.0
C1016 C 0.14479 0.47888 0.05048 0.0
C1017 C 0.13679 0.50102 0.04619 0.0
C1018 C 0.13982 0.51808 0.06521 0.0
C1019 C 0.15475 0.51984 0.02887 0.0
C1020 C 0.10565 0.48313 0.04008 0.0
C1021 C 0.09768 0.45532 0.04057 0.0
C1022 C 0.06952 0.43448 0.03772 0.0
C1023 C 0.04883 0.44211 0.03456 0.0
C1024 C 0.05632 0.47033 0.03372 0.0
C1025 C 0.08517 0.49119 0.0364 0.0
H1026 H 0.59058 0.71678 0.08472 0.0
H1027 H 0.51273 0.71502 0.06609 0.0
H1028 H 0.49738 0.67098 0.04849 0.0
H1029 H 0.60198 0.68757 0.04114 0.0
H1030 H 0.61315 0.66618 0.05407 0.0
H1031 H 0.61864 0.69784 0.06552 0.0
H1032 H 0.59072 0.67064 0.09708 0.0
H1033 H 0.58545 0.63893 0.08582 0.0
H1034 H 0.5552 0.64145 0.09424 0.0
H1035 H 0.49214 0.62985 0.0305 0.0
H1036 H 0.4934 0.5894 0.0172 0.0
H1037 H 0.57166 0.61376 0.05028 0.0
C1038 C 0.57006 0.70697 0.07728 0.0
C1039 C 0.55328 0.71998 0.07645 0.0
C1040 C 0.52659 0.70622 0.06641 0.0
C1041 C 0.51749 0.68099 0.05647 0.0
C1042 C 0.53488 0.66927 0.0571 0.0
C1043 C 0.56025 0.68134 0.06763 0.0
C1044 C 0.57439 0.66372 0.06623 0.0
C1045 C 0.60378 0.67979 0.05614 0.0
C1046 C 0.57656 0.65305 0.08709 0.0
C1047 C 0.55323 0.64022 0.05294 0.0
C1048 C 0.5308 0.64414 0.04772 0.0
C1049 C 0.50929 0.62623 0.03476 0.0
C1050 C 0.51032 0.60332 0.0272 0.0
C1051 C 0.53247 0.59814 0.03286 0.0
C1052 C 0.55429 0.61698 0.04586 0.0
H1053 H 0.82922 0.3106 0.97719 0.0
H1054 H 0.88227 0.27572 0.96065 0.0
H1055 H 0.92417 0.31635 0.97527 0.0
H1056 H 0.87924 0.37975 0.96499 0.0
H1057 H 0.87104 0.39567 0.9856 0.0
H1058 H 0.84415 0.3625 0.97603 0.0
H1059 H 0.83725 0.34141 0.01164 0.0
H1060 H 0.86416 0.3746 0.02133 0.0
H1061 H 0.86759 0.34433 0.025 0.0
H1062 H 0.96083 0.36161 0.98847 0.0
H1063 H 0.9909 0.40972 0.99994 0.0
H1064 H 0.91572 0.41729 0.00869 0.0
C1065 C 0.84958 0.31135 0.97711 0.0
C1066 C 0.85253 0.28997 0.96783 0.0
C1067 C 0.87958 0.29188 0.96763 0.0
C1068 C 0.90348 0.31482 0.97597 0.0
C1069 C 0.90011 0.33583 0.98457 0.0
C1070 C 0.87391 0.3344 0.98536 0.0
C1071 C 0.87694 0.36095 0.99437 0.0
C1072 C 0.86727 0.37558 0.97935 0.0
C1073 C 0.8605 0.35495 0.01427 0.0
C1074 C 0.90896 0.37765 0.99794 0.0
C1075 C 0.9217 0.36248 0.99232 0.0
C1076 C 0.9511 0.37362 0.99309 0.0
C1077 C 0.96805 0.40109 0.9995 0.0
C1078 C 0.95574 0.41734 1.0051 0.0
C1079 C 0.92569 0.40525 1.00469 0.0
H1080 H 0.69403 0.51782 0.9753 0.0
H1081 H 0.74902 0.6071 0.97319 0.0
H1082 H 0.71029 0.61337 0.9868 0.0
H1083 H 0.63138 0.51643 0.95944 0.0
H1084 H 0.60726 0.48879 0.97576 0.0
H1085 H 0.6401 0.49085 0.96799 0.0
H1086 H 0.65303 0.49037 1.00505 0.0
H1087 H 0.62117 0.48987 0.01361 0.0
H1088 H 0.65575 0.51694 0.02188 0.0
H1089 H 0.66479 0.6107 0.99523 0.0
H1090 H 0.61507 0.59911 1.00096 0.0
H1091 H 0.58808 0.51152 1.00038 0.0
C1092 C 0.698 0.53858 0.97829 0.0
C1093 C 0.72465 0.56206 0.97342 0.0
C1094 C 0.72889 0.58893 0.977 0.0
C1095 C 0.707 0.59268 0.98472 0.0
C1096 C 0.68081 0.56932 0.98894 0.0
C1097 C 0.67614 0.54274 0.98609 0.0
C1098 C 0.64524 0.52142 0.99089 0.0
C1099 C 0.63011 0.50331 0.97242 0.0
C1100 C 0.64367 0.50356 0.00893 0.0
C1101 C 0.63323 0.54025 0.99618 0.0
C1102 C 0.65432 0.5678 0.99492 0.0
C1103 C 0.64827 0.58925 0.99688 0.0
C1104 C 0.61997 0.58249 1.0001 0.0
C1105 C 0.598 0.55456 1.00193 0.0
C1106 C 0.60472 0.53309 1.00001 0.0
H1107 H 0.46493 0.17721 0.99195 0.0
H1108 H 0.50012 0.18634 0.93196 0.0
H1109 H 0.51228 0.15019 0.93935 0.0
H1110 H 0.51834 0.16467 0.01733 0.0
H1111 H 0.49259 0.13969 0.03446 0.0
H1112 H 0.48808 0.16763 0.02509 0.0
H1113 H 0.43772 0.132 0.01202 0.0
H1114 H 0.4421 0.104 0.0213 0.0
H1115 H 0.43359 0.10477 0.99521 0.0
H1116 H 0.5172 0.11111 0.9518 0.0
H1117 H 0.51627 0.07172 0.96938 0.0
H1118 H 0.47998 0.08832 0.02202 0.0
C1119 C 0.47567 0.17195 0.98052 0.0
C1120 C 0.48132 0.18443 0.96129 0.0
C1121 C 0.49506 0.17671 0.94664 0.0
C1122 C 0.5023 0.15637 0.95075 0.0
C1123 C 0.49598 0.14415 0.96967 0.0
C1124 C 0.48324 0.15173 0.98442 0.0
C1125 C 0.47792 0.13445 1.00326 0.0
C1126 C 0.49527 0.1527 0.02109 0.0
C1127 C 0.44593 0.11782 0.00823 0.0
C1128 C 0.48903 0.11555 0.99653 0.0
C1129 C 0.49943 0.12168 0.97711 0.0
C1130 C 0.50941 0.10628 0.96707 0.0
C1131 C 0.5086 0.08387 0.97709 0.0
C1132 C 0.498 0.07717 0.99691 0.0
C1133 C 0.48847 0.09338 0.00692 0.0
H1134 H 0.70995 0.12041 0.96691 0.0
H1135 H 0.70474 0.19377 0.98123 0.0
H1136 H 0.65598 0.16403 0.9945 0.0
H1137 H 0.63906 0.078 0.95066 0.0
H1138 H 0.63462 0.04651 0.96165 0.0
H1139 H 0.66953 0.07357 0.9543 0.0
H1140 H 0.68821 0.07508 0.99046 0.0
H1141 H 0.6533 0.04791 0.99786 0.0
H1142 H 0.67034 0.08029 0.01146 0.0
H1143 H 0.60595 0.12584 1.00317 0.0
H1144 H 0.56029 0.08288 0.00839 0.0
H1145 H 0.59888 0.03415 0.99082 0.0
C1146 C 0.69861 0.13019 0.97304 0.0
C1147 C 0.71112 0.15939 0.97305 0.0
C1148 C 0.69566 0.17147 0.98115 0.0
C1149 C 0.66793 0.15472 0.98871 0.0
C1150 C 0.65611 0.12594 0.98833 0.0
C1151 C 0.67112 0.11379 0.98092 0.0
C1152 C 0.65346 0.08239 0.98196 0.0
C1153 C 0.6489 0.06936 0.96089 0.0
C1154 C 0.66715 0.07074 0.99628 0.0
C1155 C 0.62587 0.0787 0.99056 0.0
C1156 C 0.62784 0.10407 0.99417 0.0
C1157 C 0.60446 0.1059 1.00087 0.0
C1158 C 0.57852 0.08125 1.00398 0.0
C1159 C 0.57619 0.05499 1.00091 0.0
C1160 C 0.60024 0.05388 0.99394 0.0
H1161 H 0.8952 0.58647 0.97345 0.0
H1162 H 0.82 0.50663 0.98431 0.0
H1163 H 0.85078 0.48783 0.99535 0.0
H1164 H 0.93926 0.56196 0.95401 0.0
H1165 H 0.97137 0.5883 0.96593 0.0
H1166 H 0.94333 0.59543 0.95975 0.0
H1167 H 0.94147 0.60865 0.99685 0.0
H1168 H 0.96944 0.60143 1.00324 0.0
H1169 H 0.93597 0.58419 0.01648 0.0
H1170 H 0.89098 0.47714 1.00285 0.0
H1171 H 0.93591 0.47648 0.00788 0.0
H1172 H 0.98435 0.56401 0.99367 0.0
C1173 C 0.88519 0.56507 0.97832 0.0
C1174 C 0.85519 0.54802 0.97803 0.0
C1175 C 0.8429 0.52013 0.98449 0.0
C1176 C 0.86026 0.50928 0.99075 0.0
C1177 C 0.88986 0.52666 0.99068 0.0
C1178 C 0.90215 0.55408 0.98482 0.0
C1179 C 0.9344 0.56851 0.98595 0.0
C1180 C 0.94787 0.57917 0.96517 0.0
C1181 C 0.946 0.59209 1.00156 0.0
C1182 C 0.93851 0.54485 0.99291 0.0
C1183 C 0.91262 0.52083 0.9956 0.0
C1184 C 0.91128 0.49601 1.00114 0.0
C1185 C 0.93695 0.49585 1.00412 0.0
C1186 C 0.96365 0.52044 1.00195 0.0
C1187 C 0.96425 0.54507 0.99598 0.0
H1188 H 0.47124 0.31331 0.01193 0.0
H1189 H 0.47415 0.31517 0.94688 0.0
H1190 H 0.49481 0.36613 0.94751 0.0
H1191 H 0.44847 0.36181 0.0173 0.0
H1192 H 0.46886 0.37814 0.03966 0.0
H1193 H 0.45794 0.34249 0.03427 0.0
H1194 H 0.51058 0.3541 0.03631 0.0
H1195 H 0.52156 0.38982 0.0417 0.0
H1196 H 0.53703 0.38136 0.02081 0.0
H1197 H 0.51049 0.41541 0.95492 0.0
H1198 H 0.51986 0.46042 0.96863 0.0
H1199 H 0.50574 0.42685 0.02889 0.0
C1200 C 0.47692 0.32471 0.99793 0.0
C1201 C 0.47167 0.3108 0.97935 0.0
C1202 C 0.47845 0.32585 0.9612 0.0
C1203 C 0.49021 0.35468 0.96144 0.0
C1204 C 0.49488 0.36796 0.97998 0.0
C1205 C 0.48849 0.35355 0.99793 0.0
C1206 C 0.4933 0.37259 0.01565 0.0
C1207 C 0.46549 0.36319 0.0274 0.0
C1208 C 0.51704 0.37458 0.02943 0.0
C1209 C 0.50269 0.39971 1.00482 0.0
C1210 C 0.50376 0.3966 0.98428 0.0
C1211 C 0.51009 0.41821 0.97099 0.0
C1212 C 0.51519 0.44361 0.9789 0.0
C1213 C 0.51388 0.44717 0.99986 0.0
C1214 C 0.50787 0.42503 0.01295 0.0
H1215 H 0.18077 0.67713 0.08683 0.0
H1216 H 0.18663 0.72972 0.03692 0.0
H1217 H 0.14535 0.68984 0.02073 0.0
H1218 H 0.1624 0.61607 0.057 0.0
H1219 H 0.13839 0.59219 0.07548 0.0
H1220 H 0.168 0.62498 0.08332 0.0
H1221 H 0.13323 0.63649 0.10205 0.0
H1222 H 0.1035 0.6038 0.09413 0.0
H1223 H 0.10402 0.63571 0.08849 0.0
H1224 H 0.10288 0.64446 0.01023 0.0
H1225 H 0.0644 0.59601 1.00502 0.0
H1226 H 0.08701 0.57195 0.06082 0.0
C1227 C 0.17333 0.68019 0.07248 0.0
C1228 C 0.1869 0.70653 0.06313 0.0
C1229 C 0.17666 0.70976 0.04434 0.0
C1230 C 0.15314 0.68723 0.03507 0.0
C1231 C 0.14016 0.66156 0.04472 0.0
C1232 C 0.15001 0.65783 0.06294 0.0
C1233 C 0.13267 0.62788 0.06985 0.0
C1234 C 0.15149 0.6145 0.0715 0.0
C1235 C 0.11746 0.62587 0.08982 0.0
C1236 C 0.11152 0.61535 0.05269 0.0
C1237 C 0.11611 0.63522 0.03843 0.0
C1238 C 0.0993 0.62872 0.02121 0.0
C1239 C 0.07766 0.60115 0.01827 0.0
C1240 C 0.07321 0.58034 0.03231 0.0
C1241 C 0.09002 0.58759 0.0499 0.0
H1242 H 0.31554 0.43062 0.06052 0.0
H1243 H 0.32271 0.51068 0.04982 0.0
H1244 H 0.37274 0.52936 0.03889 0.0
H1245 H 0.38458 0.45483 0.0801 0.0
H1246 H 0.38994 0.42874 0.06808 0.0
H1247 H 0.35443 0.42137 0.07408 0.0
H1248 H 0.33945 0.40863 0.03684 0.0
H1249 H 0.37496 0.41598 0.03068 0.0
H1250 H 0.35937 0.43335 0.01742 0.0
H1251 H 0.42335 0.5402 0.03202 0.0
H1252 H 0.46901 0.54147 0.02741 0.0
H1253 H 0.42855 0.45377 0.04054 0.0
C1254 C 0.32759 0.45202 0.05568 0.0
C1255 C 0.31525 0.46921 0.056 0.0
C1256 C 0.33165 0.4971 0.0496 0.0
C1257 C 0.36011 0.50789 0.0434 0.0
C1258 C 0.37172 0.49043 0.04347 0.0
C1259 C 0.35585 0.46298 0.04921 0.0
C1260 C 0.37341 0.44864 0.04808 0.0
C1261 C 0.37572 0.43776 0.06882 0.0
C1262 C 0.36105 0.42526 0.03232 0.0
C1263 C 0.40189 0.47247 0.04134 0.0
C1264 C 0.40045 0.49638 0.03872 0.0
C1265 C 0.42445 0.5214 0.03355 0.0
C1266 C 0.4504 0.52191 0.03075 0.0
C1267 C 0.45223 0.49751 0.03263 0.0
C1268 C 0.42764 0.47259 0.03836 0.0
H1269 H 0.58246 0.89308 0.08177 0.0
H1270 H 0.522 0.81697 0.05139 0.0
H1271 H 0.49991 0.8415 0.03526 0.0
H1272 H 0.53327 0.91815 0.09104 0.0
H1273 H 0.55958 0.95396 0.0867 0.0
H1274 H 0.57034 0.9303 0.0962 0.0
H1275 H 0.6057 0.94274 0.06654 0.0
H1276 H 0.59505 0.96643 0.05697 0.0
H1277 H 0.59276 0.93909 0.04111 0.0
H1278 H 0.48453 0.87431 0.02231 0.0
H1279 H 0.47751 0.9133 0.013 0.0
H1280 H 0.54857 0.96828 0.05134 0.0
C1281 C 0.56453 0.88162 0.07174 0.0
C1282 C 0.55397 0.8532 0.0678 0.0
C1283 C 0.53049 0.83879 0.05462 0.0
C1284 C 0.51776 0.85252 0.0454 0.0
C1285 C 0.52873 0.88059 0.04957 0.0
C1286 C 0.55158 0.895 0.06242 0.0
C1287 C 0.55947 0.92515 0.06416 0.0
C1288 C 0.55542 0.9323 0.08581 0.0
C1289 C 0.59006 0.94448 0.05675 0.0
C1290 C 0.53771 0.9255 0.0501 0.0
C1291 C 0.52007 0.89956 0.04193 0.0
C1292 C 0.49831 0.89474 0.02854 0.0
C1293 C 0.49461 0.91709 0.02324 0.0
C1294 C 0.51276 0.94398 0.03117 0.0
C1295 C 0.5344 0.94805 0.04492 0.0
H1296 H 0.99272 0.16359 0.38755 0.0
H1297 H 0.93902 0.20055 0.39211 0.0
H1298 H 0.97676 0.24348 0.37656 0.0
H1299 H 0.05515 0.22146 0.40168 0.0
H1300 H 0.07856 0.21697 0.38478 0.0
H1301 H 0.04573 0.18732 0.3927 0.0
H1302 H 0.03128 0.17458 0.3556 0.0
H1303 H 0.06365 0.20466 0.34723 0.0
H1304 H 0.02947 0.19933 0.33919 0.0
H1305 H 0.02217 0.28452 0.36729 0.0
H1306 H 0.07237 0.32097 0.36273 0.0
H1307 H 0.09778 0.25855 0.36197 0.0
C1308 C 0.98864 0.1804 0.3845 0.0
C1309 C 0.96283 0.17872 0.39072 0.0
C1310 C 0.95852 0.2014 0.38722 0.0
C1311 C 0.97982 0.22582 0.37837 0.0
C1312 C 1.00539 0.22729 0.37297 0.0
C1313 C 0.00989 0.20513 0.37565 0.0
C1314 C 0.04046 0.21337 0.37037 0.0
C1315 C 0.05587 0.20956 0.38846 0.0
C1316 C 0.04127 0.19702 0.352 0.0
C1317 C 0.05268 0.24388 0.36533 0.0
C1318 C 0.03188 0.25129 0.36675 0.0
C1319 C 0.03844 0.27884 0.36541 0.0
C1320 C 0.06697 0.29941 0.36286 0.0
C1321 C 0.08859 0.29238 0.36114 0.0
C1322 C 0.08136 0.26423 0.36217 0.0
H1323 H 0.8532 0.83586 0.39674 0.0
H1324 H 0.81685 0.7469 0.40223 0.0
H1325 H 0.77056 0.73959 0.39005 0.0
H1326 H 0.79173 0.83771 0.41413 0.0
H1327 H 0.79557 0.86451 0.3971 0.0
H1328 H 0.8265 0.86284 0.40492 0.0
H1329 H 0.83884 0.86199 0.36796 0.0
H1330 H 0.80697 0.86116 0.35906 0.0
H1331 H 0.81451 0.83414 0.35191 0.0
H1332 H 0.72731 0.74169 0.38163 0.0
H1333 H 0.68949 0.75299 0.3747 0.0
H1334 H 0.75275 0.84044 0.37239 0.0
C1335 C 0.83558 0.8149 0.39491 0.0
C1336 C 0.83856 0.79184 0.40017 0.0
C1337 C 0.81496 0.76472 0.39809 0.0
C1338 C 0.78862 0.7604 0.39122 0.0
C1339 C 0.78609 0.78344 0.38648 0.0
C1340 C 0.80886 0.81019 0.38813 0.0
C1341 C 0.79967 0.83117 0.38282 0.0
C1342 C 0.8036 0.85017 0.40082 0.0
C1343 C 0.81594 0.84816 0.36432 0.0
C1344 C 0.76823 0.81199 0.37816 0.0
C1345 C 0.76095 0.78455 0.38055 0.0
C1346 C 0.73282 0.76301 0.37918 0.0
C1347 C 0.71148 0.76959 0.37528 0.0
C1348 C 0.71834 0.79738 0.37223 0.0
C1349 C 0.74712 0.81891 0.37372 0.0
H1350 H 0.22845 0.05083 0.37879 0.0
H1351 H 0.18694 0.0207 0.43649 0.0
H1352 H 0.17695 0.97372 0.42784 0.0
H1353 H 0.17824 0.9865 0.35023 0.0
H1354 H 0.2061 0.98882 0.33414 0.0
H1355 H 0.20824 0.01995 0.34411 0.0
H1356 H 0.2579 0.03431 0.35909 0.0
H1357 H 0.25565 0.00303 0.34943 0.0
H1358 H 0.26166 0.01095 0.37588 0.0
H1359 H 0.17626 0.9318 0.41521 0.0
H1360 H 0.17933 0.89477 0.39698 0.0
H1361 H 0.21819 0.94978 0.34627 0.0
C1362 C 0.21666 0.03419 0.38937 0.0
C1363 C 0.20894 0.03958 0.40848 0.0
C1364 C 0.19369 0.01725 0.42197 0.0
C1365 C 0.18775 0.99043 0.41716 0.0
C1366 C 0.19663 0.98602 0.39861 0.0
C1367 C 0.21017 0.00701 0.38469 0.0
C1368 C 0.2178 0.99638 0.36597 0.0
C1369 C 0.20163 0.99801 0.34752 0.0
C1370 C 0.25018 0.01211 0.36239 0.0
C1371 C 0.2072 0.96647 0.37193 0.0
C1372 C 0.19515 0.9611 0.39087 0.0
C1373 C 0.18528 0.93559 0.40026 0.0
C1374 C 0.18742 0.91483 0.38992 0.0
C1375 C 0.19913 0.91961 0.37038 0.0
C1376 C 0.20898 0.94567 0.36117 0.0
H1377 H 0.54112 0.6325 0.29197 0.0
H1378 H 0.46704 0.62767 0.32123 0.0
H1379 H 0.49814 0.67189 0.33848 0.0
H1380 H 0.59074 0.66404 0.33311 0.0
H1381 H 0.62029 0.68642 0.31719 0.0
H1382 H 0.59252 0.65355 0.30775 0.0
H1383 H 0.58416 0.67849 0.27794 0.0
H1384 H 0.61191 0.71143 0.28728 0.0
H1385 H 0.57667 0.70606 0.28291 0.0
H1386 H 0.53657 0.71693 0.35196 0.0
H1387 H 0.57977 0.76049 0.36056 0.0
H1388 H 0.62976 0.73804 0.32187 0.0
C1389 C 0.53132 0.64073 0.30192 0.0
C1390 C 0.50143 0.6262 0.30529 0.0
C1391 C 0.48979 0.63781 0.31866 0.0
C1392 C 0.5073 0.66313 0.32844 0.0
C1393 C 0.5365 0.67684 0.32467 0.0
C1394 C 0.54848 0.66617 0.3117 0.0
C1395 C 0.58047 0.68562 0.30992 0.0
C1396 C 0.59697 0.67156 0.31744 0.0
C1397 C 0.58879 0.69601 0.28822 0.0
C1398 C 0.58453 0.70893 0.32391 0.0
C1399 C 0.55883 0.70326 0.33229 0.0
C1400 C 0.55683 0.72152 0.34557 0.0
C1401 C 0.58169 0.74626 0.35044 0.0
C1402 C 0.60844 0.75277 0.3421 0.0
C1403 C 0.60975 0.73374 0.32858 0.0
H1404 H 0.39152 0.92006 0.29863 0.0
H1405 H 0.37701 0.83729 0.30982 0.0
H1406 H 0.32958 0.82375 0.32403 0.0
H1407 H 0.35525 0.92423 0.34446 0.0
H1408 H 0.34117 0.9435 0.33197 0.0
H1409 H 0.37454 0.94695 0.32389 0.0
H1410 H 0.35466 0.93328 0.28763 0.0
H1411 H 0.32126 0.92969 0.29566 0.0
H1412 H 0.32195 0.90107 0.28347 0.0
H1413 H 0.28135 0.81794 0.33344 0.0
H1414 H 0.2384 0.82146 0.33966 0.0
H1415 H 0.28545 0.90887 0.32485 0.0
C1416 C 0.37846 0.89917 0.30426 0.0
C1417 C 0.38798 0.87971 0.30311 0.0
C1418 C 0.37029 0.8526 0.31071 0.0
C1419 C 0.34327 0.84471 0.31875 0.0
C1420 C 0.33436 0.86429 0.3194 0.0
C1421 C 0.35163 0.89109 0.31263 0.0
C1422 C 0.33689 0.90806 0.31473 0.0
C1423 C 0.35293 0.93211 0.32965 0.0
C1424 C 0.33349 0.91864 0.29415 0.0
C1425 C 0.30832 0.88644 0.32316 0.0
C1426 C 0.30724 0.8613 0.32577 0.0
C1427 C 0.28229 0.83774 0.33197 0.0
C1428 C 0.25795 0.83997 0.33565 0.0
C1429 C 0.25881 0.86572 0.33365 0.0
C1430 C 0.28439 0.88912 0.32718 0.0
H1431 H 0.1714 0.52131 0.31221 0.0
H1432 H 0.08298 0.47813 0.293 0.0
H1433 H 0.07684 0.43459 0.30716 0.0
H1434 H 0.18597 0.46888 0.30003 0.0
H1435 H 0.20858 0.47365 0.32131 0.0
H1436 H 0.20546 0.50236 0.31205 0.0
H1437 H 0.19 0.50941 0.3474 0.0
H1438 H 0.19311 0.48066 0.35678 0.0
H1439 H 0.16008 0.48076 0.35961 0.0
H1440 H 0.08133 0.39518 0.31957 0.0
H1441 H 0.09606 0.36184 0.33015 0.0
H1442 H 0.18133 0.4297 0.34248 0.0
C1443 C 0.15058 0.50282 0.31148 0.0
C1444 C 0.12764 0.50307 0.30148 0.0
C1445 C 0.10088 0.47834 0.30043 0.0
C1446 C 0.09713 0.45357 0.30856 0.0
C1447 C 0.12028 0.45383 0.31787 0.0
C1448 C 0.14646 0.47779 0.31956 0.0
C1449 C 0.16831 0.47175 0.32902 0.0
C1450 C 0.19356 0.47962 0.31474 0.0
C1451 C 0.17847 0.48653 0.34942 0.0
C1452 C 0.15053 0.44055 0.33169 0.0
C1453 C 0.12282 0.43079 0.32533 0.0
C1454 C 0.10283 0.40259 0.32487 0.0
C1455 C 0.11145 0.3838 0.33077 0.0
C1456 C 0.13978 0.39322 0.3371 0.0
C1457 C 0.15941 0.42201 0.33799 0.0
H1458 H 0.36788 0.44829 0.29935 0.0
H1459 H 0.36166 0.52059 0.31549 0.0
H1460 H 0.3124 0.49001 0.32756 0.0
H1461 H 0.29751 0.40627 0.28162 0.0
H1462 H 0.29297 0.3744 0.29193 0.0
H1463 H 0.32802 0.40195 0.28536 0.0
H1464 H 0.34558 0.40191 0.32162 0.0
H1465 H 0.31054 0.3743 0.32828 0.0
H1466 H 0.32699 0.40608 0.34261 0.0
H1467 H 0.26208 0.45112 0.33518 0.0
H1468 H 0.21652 0.40747 0.33978 0.0
H1469 H 0.25648 0.36047 0.32087 0.0
C1470 C 0.35619 0.45765 0.30558 0.0
C1471 C 0.36858 0.4868 0.30647 0.0
C1472 C 0.35267 0.49832 0.31473 0.0
C1473 C 0.32464 0.48109 0.32161 0.0
C1474 C 0.31296 0.45239 0.32038 0.0
C1475 C 0.32839 0.44076 0.3128 0.0
C1476 C 0.31091 0.40933 0.31308 0.0
C1477 C 0.30713 0.39729 0.29173 0.0
C1478 C 0.32431 0.39719 0.32724 0.0
C1479 C 0.28298 0.40505 0.32143 0.0
C1480 C 0.28456 0.43013 0.32559 0.0
C1481 C 0.26088 0.43139 0.33239 0.0
C1482 C 0.23506 0.40643 0.33512 0.0
C1483 C 0.23323 0.3805 0.33151 0.0
C1484 C 0.2575 0.37997 0.32434 0.0
H1485 H 0.568 0.91962 0.29952 0.0
H1486 H 0.4922 0.84322 0.31667 0.0
H1487 H 0.52243 0.82538 0.3303 0.0
H1488 H 0.60963 0.89014 0.28399 0.0
H1489 H 0.64273 0.91759 0.29401 0.0
H1490 H 0.6152 0.92479 0.2864 0.0
H1491 H 0.61568 0.94441 0.32188 0.0
H1492 H 0.64328 0.93728 0.32956 0.0
H1493 H 0.6106 0.92322 0.34367 0.0
H1494 H 0.56116 0.81455 0.33975 0.0
H1495 H 0.60482 0.81246 0.34562 0.0
H1496 H 0.65593 0.89679 0.32424 0.0
C1497 C 0.5578 0.8992 0.30629 0.0
C1498 C 0.52773 0.88282 0.30703 0.0
C1499 C 0.51515 0.85621 0.31598 0.0
C1500 C 0.53218 0.8459 0.32376 0.0
C1501 C 0.56178 0.86254 0.3227 0.0
C1502 C 0.57449 0.88874 0.31435 0.0
C1503 C 0.60676 0.90233 0.31489 0.0
C1504 C 0.61931 0.9091 0.29355 0.0
C1505 C 0.61985 0.92836 0.3283 0.0
C1506 C 0.61024 0.87942 0.32433 0.0
C1507 C 0.58403 0.85668 0.3288 0.0
C1508 C 0.58177 0.83249 0.33669 0.0
C1509 C 0.60685 0.83156 0.34017 0.0
C1510 C 0.63401 0.85483 0.33622 0.0
C1511 C 0.63553 0.87893 0.32796 0.0
H1512 H 0.19062 0.66133 0.32434 0.0
H1513 H 0.14869 0.64865 0.26667 0.0
H1514 H 0.13941 0.68702 0.27398 0.0
H1515 H 0.14644 0.68263 0.35287 0.0
H1516 H 0.17623 0.70894 0.36685 0.0
H1517 H 0.17672 0.67849 0.35822 0.0
H1518 H 0.22461 0.70964 0.33994 0.0
H1519 H 0.22416 0.74007 0.34863 0.0
H1520 H 0.22698 0.73508 0.32213 0.0
H1521 H 0.13586 0.72717 0.28692 0.0
H1522 H 0.14223 0.76971 0.30305 0.0
H1523 H 0.19053 0.7595 0.35108 0.0
C1524 C 0.17908 0.66647 0.3135 0.0
C1525 C 0.16988 0.65199 0.2951 0.0
C1526 C 0.1556 0.65954 0.2809 0.0
C1527 C 0.15017 0.68116 0.28496 0.0
C1528 C 0.15965 0.69529 0.30315 0.0
C1529 C 0.17415 0.68857 0.31711 0.0
C1530 C 0.18423 0.70877 0.33464 0.0
C1531 C 0.17005 0.69381 0.35431 0.0
C1532 C 0.21693 0.72431 0.33642 0.0
C1533 C 0.1735 0.72804 0.32816 0.0
C1534 C 0.15888 0.71951 0.31018 0.0
C1535 C 0.14725 0.73408 0.30103 0.0
C1536 C 0.15105 0.7583 0.31034 0.0
C1537 C 0.16681 0.76806 0.32845 0.0
C1538 C 0.17796 0.75248 0.33748 0.0
H1539 H 0.8501 0.03605 0.3779 0.0
H1540 H 0.86414 0.00982 0.43608 0.0
H1541 H 0.82724 0.96168 0.42854 0.0
H1542 H 0.77467 0.99212 0.37712 0.0
H1543 H 0.77214 0.98395 0.3507 0.0
H1544 H 0.80098 0.01635 0.35988 0.0
H1545 H 0.83746 0.0048 0.34396 0.0
H1546 H 0.80868 0.97231 0.33476 0.0
H1547 H 0.83609 0.97267 0.35031 0.0
H1548 H 0.7874 0.91721 0.41609 0.0
H1549 H 0.7466 0.8782 0.39884 0.0
H1550 H 0.75752 0.93147 0.34821 0.0
C1551 C 0.84559 0.02008 0.3889 0.0
C1552 C 0.86008 0.02665 0.4076 0.0
C1553 C 0.85338 0.00523 0.42167 0.0
C1554 C 0.83247 0.9778 0.41752 0.0
C1555 C 0.81838 0.97194 0.39913 0.0
C1556 C 0.82464 0.99232 0.38495 0.0
C1557 C 0.80542 0.98018 0.36663 0.0
C1558 C 0.78722 0.99398 0.3634 0.0
C1559 C 0.82297 0.98264 0.3478 0.0
C1560 C 0.78715 0.95005 0.37298 0.0
C1561 C 0.7952 0.94586 0.39177 0.0
C1562 C 0.78104 0.92017 0.4013 0.0
C1563 C 0.75789 0.89819 0.39146 0.0
C1564 C 0.74919 0.90195 0.37228 0.0
C1565 C 0.7641 0.92811 0.3628 0.0
H1566 H 0.97967 0.7641 0.39145 0.0
H1567 H 0.99057 0.84595 0.38259 0.0
H1568 H 0.03961 0.86262 0.36998 0.0
H1569 H 0.0484 0.78486 0.409 0.0
H1570 H 0.05152 0.75786 0.3963 0.0
H1571 H 0.01693 0.75224 0.40323 0.0
H1572 H 1.00015 0.7405 0.36616 0.0
H1573 H 0.03474 0.74601 0.35917 0.0
H1574 H 0.02031 0.76497 0.34666 0.0
H1575 H 0.08961 0.87108 0.36154 0.0
H1576 H 0.13414 0.86986 0.35655 0.0
H1577 H 0.08922 0.78173 0.36896 0.0
C1578 C 0.99226 0.78545 0.38659 0.0
C1579 C 0.98132 0.80372 0.38795 0.0
C1580 C 0.99845 0.83154 0.38155 0.0
C1581 C 0.02634 0.84117 0.3744 0.0
C1582 C 0.03661 0.82262 0.37346 0.0
C1583 C 0.01988 0.79523 0.37918 0.0
C1584 C 0.03593 0.77953 0.37721 0.0
C1585 C 0.03834 0.76795 0.39765 0.0
C1586 C 0.02194 0.75638 0.36136 0.0
C1587 C 0.06465 0.80248 0.37009 0.0
C1588 C 0.0647 0.8272 0.36792 0.0
C1589 C 0.08951 0.85164 0.36274 0.0
C1590 C 0.11476 0.85073 0.35976 0.0
C1591 C 0.11497 0.82547 0.36155 0.0
C1592 C 0.08952 0.80116 0.36688 0.0
H1593 H 0.24693 0.21592 0.40555 0.0
H1594 H 0.18461 0.14048 0.37543 0.0
H1595 H 0.16261 0.16577 0.36034 0.0
H1596 H 0.19957 0.24148 0.41716 0.0
H1597 H 0.22561 0.27734 0.41272 0.0
H1598 H 0.23693 0.25353 0.4209 0.0
H1599 H 0.27022 0.26627 0.38997 0.0
H1600 H 0.25908 0.29021 0.38176 0.0
H1601 H 0.25564 0.2631 0.36511 0.0
H1602 H 0.14648 0.19878 0.34938 0.0
H1603 H 0.13819 0.23755 0.34232 0.0
H1604 H 0.21167 0.29216 0.37889 0.0
C1605 C 0.22875 0.20482 0.39568 0.0
C1606 C 0.21751 0.17629 0.39162 0.0
C1607 C 0.19364 0.16235 0.37872 0.0
C1608 C 0.18097 0.17653 0.3701 0.0
C1609 C 0.19245 0.20463 0.3745 0.0
C1610 C 0.21588 0.21868 0.38692 0.0
C1611 C 0.22393 0.24885 0.38928 0.0
C1612 C 0.22134 0.25569 0.41133 0.0
C1613 C 0.254 0.26825 0.38103 0.0
C1614 C 0.20132 0.24953 0.37629 0.0
C1615 C 0.18336 0.22378 0.36795 0.0
C1616 C 0.16058 0.2191 0.35567 0.0
C1617 C 0.15615 0.24136 0.35166 0.0
C1618 C 0.17456 0.2681 0.35975 0.0
C1619 C 0.19731 0.27207 0.37236 0.0
H1620 H 0.64152 0.55433 0.73886 0.0
H1621 H 0.65231 0.48389 0.72484 0.0
H1622 H 0.69899 0.5155 0.7095 0.0
H1623 H 0.67785 0.59574 0.69415 0.0
H1624 H 0.694 0.62797 0.70793 0.0
H1625 H 0.65999 0.59962 0.71572 0.0
H1626 H 0.6802 0.60152 0.75139 0.0
H1627 H 0.71418 0.62989 0.74375 0.0
H1628 H 0.71192 0.59897 0.75415 0.0
H1629 H 0.74631 0.55518 0.69819 0.0
H1630 H 0.79046 0.59962 0.69237 0.0
H1631 H 0.74958 0.64427 0.71467 0.0
C1632 C 0.6536 0.54545 0.73252 0.0
C1633 C 0.64307 0.5165 0.73306 0.0
C1634 C 0.65957 0.50588 0.72436 0.0
C1635 C 0.68621 0.5237 0.71566 0.0
C1636 C 0.69609 0.55213 0.71571 0.0
C1637 C 0.68025 0.56293 0.72389 0.0
C1638 C 0.69639 0.59436 0.72313 0.0
C1639 C 0.68114 0.60505 0.70942 0.0
C1640 C 0.70094 0.60691 0.74437 0.0
C1641 C 0.72417 0.59959 0.71391 0.0
C1642 C 0.72341 0.57497 0.70939 0.0
C1643 C 0.74697 0.57456 0.70139 0.0
C1644 C 0.77196 0.59995 0.69803 0.0
C1645 C 0.77317 0.62539 0.70254 0.0
C1646 C 0.74899 0.6251 0.71071 0.0
H1647 H 0.47782 0.10119 0.74212 0.0
H1648 H 0.54663 0.17967 0.72036 0.0
H1649 H 0.51147 0.19153 0.70711 0.0
H1650 H 0.42971 0.08901 0.69945 0.0
H1651 H 0.39817 0.07347 0.71487 0.0
H1652 H 0.42869 0.07059 0.72198 0.0
H1653 H 0.42972 0.0922 0.75676 0.0
H1654 H 0.39926 0.09517 0.74973 0.0
H1655 H 0.43158 0.12543 0.75795 0.0
H1656 H 0.46911 0.19665 0.69882 0.0
H1657 H 0.42254 0.19327 0.69395 0.0
H1658 H 0.3804 0.11042 0.71903 0.0
C1659 C 0.48544 0.12081 0.7345 0.0
C1660 C 0.51501 0.13952 0.73227 0.0
C1661 C 0.52412 0.16492 0.72207 0.0
C1662 C 0.5043 0.17188 0.71456 0.0
C1663 C 0.47536 0.15309 0.71712 0.0
C1664 C 0.46589 0.12794 0.72663 0.0
C1665 C 0.43355 0.11157 0.72741 0.0
C1666 C 0.42185 0.08455 0.7152 0.0
C1667 C 0.42291 0.10576 0.74926 0.0
C1668 C 0.42637 0.13178 0.71739 0.0
C1669 C 0.45084 0.15558 0.71154 0.0
C1670 C 0.4498 0.17784 0.70292 0.0
C1671 C 0.4231 0.17564 0.70005 0.0
C1672 C 0.39764 0.15113 0.70528 0.0
C1673 C 0.39946 0.1291 0.71433 0.0
H1674 H 0.85488 0.35917 0.72348 0.0
H1675 H 0.94184 0.39571 0.74512 0.0
H1676 H 0.94483 0.35595 0.73161 0.0
H1677 H 0.83422 0.29102 0.73627 0.0
H1678 H 0.81201 0.2748 0.7146 0.0
H1679 H 0.81744 0.30766 0.72351 0.0
H1680 H 0.83629 0.32976 0.68838 0.0
H1681 H 0.8296 0.29641 0.67956 0.0
H1682 H 0.86456 0.32646 0.67681 0.0
H1683 H 0.93693 0.31064 0.71971 0.0
H1684 H 0.91935 0.26275 0.70803 0.0
H1685 H 0.83764 0.25505 0.69326 0.0
C1686 C 0.87475 0.35905 0.72481 0.0
C1687 C 0.89819 0.3804 0.73525 0.0
C1688 C 0.92368 0.37942 0.73719 0.0
C1689 C 0.9256 0.35702 0.72952 0.0
C1690 C 0.90188 0.33585 0.71986 0.0
C1691 C 0.877 0.3367 0.71725 0.0
C1692 C 0.85407 0.31018 0.70752 0.0
C1693 C 0.8279 0.29503 0.7213 0.0
C1694 C 0.84566 0.31607 0.68683 0.0
C1695 C 0.86981 0.29419 0.70555 0.0
C1696 C 0.89738 0.30947 0.71272 0.0
C1697 C 0.91554 0.29857 0.71377 0.0
C1698 C 0.90528 0.27128 0.70728 0.0
C1699 C 0.8772 0.25529 0.69977 0.0
C1700 C 0.85934 0.26699 0.69873 0.0
H1701 H 0.2185 0.97062 0.6244 0.0
H1702 H 0.14193 0.96162 0.65255 0.0
H1703 H 0.17089 0.00541 0.67081 0.0
H1704 H 0.26601 1.00164 0.66631 0.0
H1705 H 0.29579 0.02567 0.65121 0.0
H1706 H 0.26937 0.99289 0.64074 0.0
H1707 H 0.2607 0.01843 0.61146 0.0
H1708 H 0.28722 0.05127 0.62179 0.0
H1709 H 0.25166 0.04481 0.61704 0.0
H1710 H 0.20759 0.05008 0.68598 0.0
H1711 H 0.24946 0.09433 0.69561 0.0
H1712 H 0.30265 0.07625 0.65676 0.0
C1713 C 0.20772 0.97789 0.63427 0.0
C1714 C 0.1778 0.96219 0.63718 0.0
C1715 C 0.16479 0.97262 0.6504 0.0
C1716 C 0.18106 0.99767 0.66077 0.0
C1717 C 0.21038 0.01239 0.65767 0.0
C1718 C 0.22362 0.0031 0.64461 0.0
C1719 C 0.25543 0.02353 0.64357 0.0
C1720 C 0.27266 0.01013 0.6509 0.0
C1721 C 0.26426 0.0352 0.6222 0.0
C1722 C 0.25791 0.04567 0.65812 0.0
C1723 C 0.23164 0.03867 0.66614 0.0
C1724 C 0.2283 0.05576 0.67983 0.0
C1725 C 0.25236 0.08086 0.68532 0.0
C1726 C 0.27955 0.08881 0.67714 0.0
C1727 C 0.28226 0.0708 0.66339 0.0
H1728 H 0.02378 0.17476 0.63622 0.0
H1729 H 0.0783 0.26385 0.64104 0.0
H1730 H 0.03924 0.26745 0.65724 0.0
H1731 H 0.96216 0.17559 0.62262 0.0
H1732 H 0.93751 0.14519 0.63654 0.0
H1733 H 0.97082 0.14895 0.62813 0.0
H1734 H 0.98252 0.14246 0.66459 0.0
H1735 H 0.94969 0.13955 0.6735 0.0
H1736 H 0.9833 0.16537 0.68406 0.0
H1737 H 0.99343 0.26277 0.6676 0.0
H1738 H 0.94315 0.24998 0.67215 0.0
H1739 H 0.91688 0.16348 0.66252 0.0
C1740 C 0.02756 0.19484 0.64126 0.0
C1741 C 0.05409 0.21907 0.63771 0.0
C1742 C 0.0582 0.24512 0.64389 0.0
C1743 C 0.03617 0.24731 0.65314 0.0
C1744 C 0.01008 0.2232 0.65618 0.0
C1745 C 1.0056 0.19739 0.65054 0.0
C1746 C 0.97464 0.1752 0.65393 0.0
C1747 C 0.96045 0.16038 0.63413 0.0
C1748 C 0.9724 0.15441 0.66998 0.0
C1749 C 0.96226 0.19277 0.66153 0.0
C1750 C 0.9833 0.22037 0.6629 0.0
C1751 C 0.97693 0.24116 0.66723 0.0
C1752 C 0.94835 0.23374 0.66982 0.0
C1753 C 0.92641 0.2057 0.6686 0.0
C1754 C 0.93346 0.18487 0.66463 0.0
H1755 H 0.78408 0.80807 0.62424 0.0
H1756 H 0.85067 0.87972 0.65569 0.0
H1757 H 0.86286 0.8491 0.67468 0.0
H1758 H 0.76204 0.76004 0.6655 0.0
H1759 H 0.75654 0.73108 0.65009 0.0
H1760 H 0.75212 0.75844 0.63946 0.0
H1761 H 0.78889 0.76609 0.61168 0.0
H1762 H 0.79326 0.73864 0.62214 0.0
H1763 H 0.82386 0.77267 0.61875 0.0
H1764 H 0.86862 0.81092 0.68975 0.0
H1765 H 0.86902 0.76819 0.69864 0.0
H1766 H 0.79936 0.72149 0.65686 0.0
C1767 C 0.80137 0.81741 0.635 0.0
C1768 C 0.81625 0.84637 0.63854 0.0
C1769 C 0.83854 0.85759 0.65295 0.0
C1770 C 0.84574 0.84037 0.66377 0.0
C1771 C 0.83056 0.81196 0.65996 0.0
C1772 C 0.80896 0.80056 0.64584 0.0
C1773 C 0.79658 0.76946 0.64418 0.0
C1774 C 0.76494 0.75384 0.65017 0.0
C1775 C 0.80092 0.76125 0.62293 0.0
C1776 C 0.81472 0.76522 0.6595 0.0
C1777 C 0.83405 0.78997 0.66852 0.0
C1778 C 0.85346 0.79138 0.68287 0.0
C1779 C 0.8534 0.76691 0.6879 0.0
C1780 C 0.83408 0.74135 0.67859 0.0
C1781 C 0.81433 0.7406 0.66435 0.0
H1782 H 0.04539 0.78289 0.62998 0.0
H1783 H 0.04533 0.85556 0.6536 0.0
H1784 H 0.9975 0.82559 0.66799 0.0
H1785 H 0.97311 0.7454 0.61578 0.0
H1786 H 0.96765 0.71195 0.62317 0.0
H1787 H 1.00257 0.73894 0.61579 0.0
H1788 H 0.02321 0.73424 0.6498 0.0
H1789 H 0.98827 0.70718 0.65723 0.0
H1790 H 1.00772 0.73734 0.67296 0.0
H1791 H 0.94785 0.78802 0.67711 0.0
H1792 H 0.90126 0.7457 0.68134 0.0
H1793 H 0.93426 0.69693 0.65373 0.0
C1794 C 0.03538 0.79242 0.63836 0.0
C1795 C 0.04908 0.82151 0.64069 0.0
C1796 C 0.03533 0.83331 0.65169 0.0
C1797 C 1.00814 0.81644 0.65994 0.0
C1798 C 0.99512 0.78781 0.65727 0.0
C1799 C 1.00838 0.77585 0.64691 0.0
C1800 C 0.98947 0.74459 0.64579 0.0
C1801 C 0.98281 0.73465 0.62383 0.0
C1802 C 1.00298 0.72998 0.65712 0.0
C1803 C 0.9632 0.74093 0.65658 0.0
C1804 C 0.96693 0.76609 0.66319 0.0
C1805 C 0.94496 0.76814 0.67242 0.0
C1806 C 0.91852 0.74387 0.67492 0.0
C1807 C 0.91441 0.71779 0.66863 0.0
C1808 C 0.93708 0.71648 0.65925 0.0
H1809 H 0.22597 0.24782 0.63216 0.0
H1810 H 0.15218 0.17016 0.64983 0.0
H1811 H 0.18404 0.1542 0.66358 0.0
H1812 H 0.26956 0.22085 0.61665 0.0
H1813 H 0.30219 0.24929 0.6264 0.0
H1814 H 0.27357 0.25492 0.61889 0.0
H1815 H 0.27358 0.27453 0.65429 0.0
H1816 H 0.30223 0.26894 0.66191 0.0
H1817 H 0.26963 0.2539 0.67619 0.0
H1818 H 0.22456 0.14548 0.6729 0.0
H1819 H 0.26972 0.14576 0.67847 0.0
H1820 H 0.317 0.23012 0.65648 0.0
C1821 C 0.21654 0.22754 0.63908 0.0
C1822 C 0.18663 0.21022 0.63993 0.0
C1823 C 0.17503 0.18382 0.64909 0.0
C1824 C 0.19298 0.17459 0.65692 0.0
C1825 C 0.22245 0.19214 0.65571 0.0
C1826 C 0.23412 0.2182 0.64719 0.0
C1827 C 0.26641 0.23298 0.64752 0.0
C1828 C 0.27864 0.2399 0.62609 0.0
C1829 C 0.27868 0.25914 0.66076 0.0
C1830 C 0.27117 0.21093 0.65702 0.0
C1831 C 0.24559 0.18754 0.66172 0.0
C1832 C 0.24467 0.16394 0.66967 0.0
C1833 C 0.27052 0.16435 0.67295 0.0
C1834 C 0.29697 0.18836 0.6687 0.0
C1835 C 0.29712 0.21177 0.66043 0.0
H1836 H 0.82592 0.97892 0.65114 0.0
H1837 H 0.74147 0.95089 0.62681 0.0
H1838 H 0.74691 0.99686 0.63371 0.0
H1839 H 0.82321 0.023 0.69138 0.0
H1840 H 0.86029 0.04859 0.68801 0.0
H1841 H 0.84796 0.01279 0.68219 0.0
H1842 H 0.86996 0.02886 0.6465 0.0
H1843 H 0.88052 0.06429 0.65254 0.0
H1844 H 0.85815 0.04772 0.63101 0.0
H1845 H 0.76165 0.04537 0.64169 0.0
H1846 H 0.78422 0.09429 0.6516 0.0
H1847 H 0.85943 0.09211 0.67151 0.0
C1848 C 0.8085 0.98242 0.64748 0.0
C1849 C 0.78315 0.96139 0.63853 0.0
C1850 C 0.76095 0.96677 0.63375 0.0
C1851 C 0.76386 0.99277 0.63759 0.0
C1852 C 0.78913 0.01315 0.64625 0.0
C1853 C 0.81106 0.00838 0.65124 0.0
C1854 C 0.83617 0.03431 0.66 0.0
C1855 C 0.84221 0.02935 0.6817 0.0
C1856 C 0.86277 0.04438 0.64672 0.0
C1857 C 0.82477 0.05426 0.65922 0.0
C1858 C 0.79766 0.04151 0.65109 0.0
C1859 C 0.78282 0.0556 0.64817 0.0
C1860 C 0.79596 0.08351 0.65374 0.0
C1861 C 0.82364 0.09712 0.66227 0.0
C1862 C 0.83819 0.08221 0.66512 0.0
H1863 H 0.46925 0.36699 0.74864 0.0
H1864 H 0.54311 0.38663 0.71186 0.0
H1865 H 0.51587 0.34158 0.69446 0.0
H1866 H 0.44528 0.29416 0.75442 0.0
H1867 H 0.40796 0.28352 0.75312 0.0
H1868 H 0.43317 0.31742 0.76264 0.0
H1869 H 0.41592 0.33993 0.73621 0.0
H1870 H 0.3907 0.30609 0.72659 0.0
H1871 H 0.41631 0.33213 0.70994 0.0
H1872 H 0.481 0.29408 0.68147 0.0
H1873 H 0.44106 0.24751 0.6738 0.0
H1874 H 0.3891 0.25881 0.71838 0.0
C1875 C 0.47963 0.36176 0.7369 0.0
C1876 C 0.50827 0.38032 0.73159 0.0
C1877 C 0.5212 0.3728 0.71619 0.0
C1878 C 0.50589 0.34724 0.7062 0.0
C1879 C 0.47767 0.32943 0.71177 0.0
C1880 C 0.46464 0.33632 0.72676 0.0
C1881 C 0.43411 0.31331 0.72992 0.0
C1882 C 0.4299 0.3014 0.75129 0.0
C1883 C 0.41302 0.32348 0.72539 0.0
C1884 C 0.43203 0.29246 0.71434 0.0
C1885 C 0.45741 0.30217 0.70407 0.0
C1886 C 0.46093 0.28638 0.68929 0.0
C1887 C 0.43796 0.25994 0.68493 0.0
C1888 C 0.41162 0.24951 0.69518 0.0
C1889 C 0.40877 0.26615 0.71008 0.0
H1890 H 0.6904 0.19077 0.72704 0.0
H1891 H 0.62731 0.10529 0.71397 0.0
H1892 H 0.66486 0.09776 0.69933 0.0
H1893 H 0.73203 0.20068 0.68023 0.0
H1894 H 0.76611 0.22264 0.69198 0.0
H1895 H 0.73476 0.22281 0.70092 0.0
H1896 H 0.74241 0.21057 0.73685 0.0
H1897 H 0.77447 0.21147 0.72859 0.0
H1898 H 0.74686 0.18092 0.74081 0.0
H1899 H 0.70989 0.09738 0.69196 0.0
H1900 H 0.75896 0.1058 0.68788 0.0
H1901 H 0.79281 0.193 0.70081 0.0
C1902 C 0.68453 0.17063 0.72077 0.0
C1903 C 0.656 0.14856 0.72162 0.0
C1904 C 0.64898 0.12248 0.71332 0.0
C1905 C 0.67018 0.11803 0.705 0.0
C1906 C 0.69817 0.1401 0.70456 0.0
C1907 C 0.70534 0.16609 0.71179 0.0
C1908 C 0.73715 0.18612 0.70965 0.0
C1909 C 0.74286 0.20946 0.69481 0.0
C1910 C 0.75103 0.19795 0.7302 0.0
C1911 C 0.7469 0.16695 0.70107 0.0
C1912 C 0.72401 0.14045 0.69835 0.0
C1913 C 0.72785 0.11823 0.69325 0.0
C1914 C 0.75573 0.12316 0.69097 0.0
C1915 C 0.77938 0.15022 0.69301 0.0
C1916 C 0.77492 0.17244 0.69801 0.0
H1917 H 0.86751 0.52149 0.75607 0.0
H1918 H 0.87097 0.47988 0.70184 0.0
H1919 H 0.86574 0.51403 0.68123 0.0
H1920 H 0.81561 0.5391 0.7386 0.0
H1921 H 0.83242 0.57236 0.75105 0.0
H1922 H 0.83577 0.54423 0.76135 0.0
H1923 H 0.89084 0.57503 0.76051 0.0
H1924 H 0.88756 0.60316 0.75015 0.0
H1925 H 0.90828 0.5908 0.73717 0.0
H1926 H 0.85962 0.55291 0.66664 0.0
H1927 H 0.85487 0.59398 0.65949 0.0
H1928 H 0.85647 0.61 0.72337 0.0
C1929 C 0.86707 0.51955 0.73985 0.0
C1930 C 0.86955 0.4981 0.73053 0.0
C1931 C 0.86909 0.49621 0.70928 0.0
C1932 C 0.8661 0.51548 0.69746 0.0
C1933 C 0.86378 0.5365 0.70716 0.0
C1934 C 0.86435 0.53868 0.72788 0.0
C1935 C 0.86199 0.56341 0.73465 0.0
C1936 C 0.83483 0.55421 0.74715 0.0
C1937 C 0.88877 0.58434 0.7463 0.0
C1938 C 0.86007 0.57486 0.71452 0.0
C1939 C 0.86093 0.55902 0.69881 0.0
C1940 C 0.85897 0.56547 0.67884 0.0
C1941 C 0.8561 0.58874 0.67489 0.0
C1942 C 0.85546 0.60531 0.6908 0.0
C1943 C 0.85747 0.59814 0.71082 0.0
H1944 H 0.4967 0.94433 0.24529 0.0
H1945 H 0.40654 0.88971 0.23346 0.0
H1946 H 0.41307 0.90786 0.19897 0.0
H1947 H 0.50467 1.0022 0.21737 0.0
H1948 H 0.53949 0.01178 0.20773 0.0
H1949 H 0.52799 0.99409 0.23145 0.0
H1950 H 0.53765 0.95563 0.21848 0.0
H1951 H 0.54927 0.97326 0.19473 0.0
H1952 H 0.52108 0.93756 0.19548 0.0
H1953 H 0.42893 0.93313 0.16596 0.0
H1954 H 0.45305 0.96351 0.13702 0.0
H1955 H 0.53343 0.99997 0.16944 0.0
C1956 C 0.47837 0.93593 0.2354 0.0
C1957 C 0.45101 0.91573 0.24231 0.0
C1958 C 0.42761 0.90559 0.22881 0.0
C1959 C 0.43113 0.91561 0.20907 0.0
C1960 C 0.45825 0.93566 0.20284 0.0
C1961 C 0.48151 0.94563 0.21556 0.0
C1962 C 0.5083 0.96747 0.20514 0.0
C1963 C 0.52084 0.99555 0.21608 0.0
C1964 C 0.53038 0.9579 0.20335 0.0
C1965 C 0.49637 0.96846 0.18471 0.0
C1966 C 0.46748 0.94988 0.18368 0.0
C1967 C 0.45163 0.94757 0.16653 0.0
C1968 C 0.46562 0.96483 0.15006 0.0
C1969 C 0.49527 0.98423 0.15074 0.0
C1970 C 0.51073 0.98569 0.16836 0.0
H1971 H 0.07257 0.51003 0.24591 0.0
H1972 H 0.15096 0.58463 0.22959 0.0
H1973 H 0.13163 0.58286 0.19569 0.0
H1974 H 0.06034 0.47566 0.19707 0.0
H1975 H 0.02223 0.46088 0.19835 0.0
H1976 H 0.04267 0.46746 0.22111 0.0
H1977 H 0.02175 0.49725 0.23462 0.0
H1978 H 1.00141 0.49094 0.21185 0.0
H1979 H 0.02542 0.52603 0.21992 0.0
H1980 H 0.10334 0.57402 0.16402 0.0
H1981 H 0.06814 0.55835 0.13649 0.0
H1982 H 1.00837 0.48886 0.17298 0.0
C1983 C 0.08583 0.52574 0.2351 0.0
C1984 C 0.11327 0.54752 0.24043 0.0
C1985 C 0.12976 0.56794 0.22593 0.0
C1986 C 0.11903 0.56704 0.20661 0.0
C1987 C 0.09178 0.54554 0.20195 0.0
C1988 C 0.07542 0.52518 0.21572 0.0
C1989 C 0.04654 0.50471 0.20698 0.0
C1990 C 0.04273 0.47544 0.20581 0.0
C1991 C 0.02236 0.50475 0.21906 0.0
C1992 C 0.04914 0.51692 0.18622 0.0
C1993 C 0.07545 0.5404 0.18362 0.0
C1994 C 0.08274 0.55552 0.16582 0.0
C1995 C 0.06263 0.54637 0.15022 0.0
C1996 C 0.0355 0.52228 0.15249 0.0
C1997 C 0.02879 0.50746 0.1708 0.0
H1998 H 0.47436 0.5291 0.24593 0.0
H1999 H 0.47949 0.60798 0.23381 0.0
H2000 H 0.49288 0.60585 0.19862 0.0
H2001 H 0.53479 0.5422 0.21743 0.0
H2002 H 0.52024 0.50719 0.20825 0.0
H2003 H 0.5084 0.51349 0.23193 0.0
H2004 H 0.45608 0.48693 0.21946 0.0
H2005 H 0.46776 0.48043 0.19574 0.0
H2006 H 0.44674 0.49729 0.19634 0.0
H2007 H 0.50804 0.59641 0.1653 0.0
H2008 H 0.52539 0.58102 0.13645 0.0
H2009 H 0.51122 0.50854 0.17016 0.0
C2010 C 0.4778 0.54562 0.23572 0.0
C2011 C 0.47579 0.56866 0.24251 0.0
C2012 C 0.481 0.59019 0.22888 0.0
C2013 C 0.48849 0.58911 0.20886 0.0
C2014 C 0.49078 0.56636 0.2027 0.0
C2015 C 0.48561 0.545 0.2157 0.0
C2016 C 0.49127 0.5238 0.20556 0.0
C2017 C 0.5151 0.52155 0.21644 0.0
C2018 C 0.46382 0.49543 0.20419 0.0
C2019 C 0.50083 0.53681 0.18496 0.0
C2020 C 0.50006 0.56118 0.18356 0.0
C2021 C 0.50851 0.57723 0.16616 0.0
C2022 C 0.51821 0.56825 0.14981 0.0
C2023 C 0.51963 0.54355 0.15099 0.0
C2024 C 0.51057 0.5276 0.16881 0.0
H2025 H 0.94711 0.47625 0.79274 0.0
H2026 H 0.87986 0.39316 0.80738 0.0
H2027 H 0.89833 0.39909 0.84212 0.0
H2028 H 1.00095 0.47256 0.81885 0.0
H2029 H 0.01916 0.50803 0.82751 0.0
H2030 H 0.99863 0.49893 0.80465 0.0
H2031 H 0.9688 0.51986 0.81863 0.0
H2032 H 0.98949 0.52937 0.84147 0.0
H2033 H 0.95122 0.50827 0.84257 0.0
H2034 H 0.92609 0.41249 0.8741 0.0
H2035 H 0.96138 0.4325 0.90154 0.0
H2036 H 0.01146 0.50668 0.86601 0.0
C2037 C 0.93589 0.45969 0.80349 0.0
C2038 C 0.91191 0.4344 0.79763 0.0
C2039 C 0.89816 0.41274 0.81178 0.0
C2040 C 0.90846 0.41594 0.83148 0.0
C2041 C 0.93261 0.44088 0.8367 0.0
C2042 C 0.94612 0.46244 0.82316 0.0
C2043 C 0.97295 0.48622 0.83217 0.0
C2044 C 0.99948 0.49174 0.82007 0.0
C2045 C 0.97045 0.51248 0.83381 0.0
C2046 C 0.97268 0.47443 0.8527 0.0
C2047 C 0.94905 0.44839 0.85507 0.0
C2048 C 0.94451 0.43299 0.87253 0.0
C2049 C 0.96463 0.44455 0.88804 0.0
C2050 C 0.98909 0.47116 0.88593 0.0
C2051 C 0.99306 0.48623 0.868 0.0
H2052 H 0.56054 0.46071 0.80688 0.0
H2053 H 0.58699 0.53913 0.77701 0.0
H2054 H 0.57461 0.55648 0.8073 0.0
H2055 H 0.50043 0.45658 0.83237 0.0
H2056 H 0.50542 0.44173 0.85498 0.0
H2057 H 0.51737 0.43578 0.83121 0.0
H2058 H 0.56823 0.45534 0.84578 0.0
H2059 H 0.55646 0.46152 0.86957 0.0
H2060 H 0.58616 0.48958 0.85675 0.0
H2061 H 0.55699 0.56453 0.83978 0.0
H2062 H 0.53528 0.56277 0.87287 0.0
H2063 H 0.5214 0.47994 0.88248 0.0
C2064 C 0.56367 0.48151 0.80673 0.0
C2065 C 0.57485 0.49863 0.7896 0.0
C2066 C 0.57882 0.52579 0.79004 0.0
C2067 C 0.57178 0.53581 0.80715 0.0
C2068 C 0.56094 0.5185 0.82379 0.0
C2069 C 0.55693 0.49195 0.82379 0.0
C2070 C 0.54441 0.4775 0.8436 0.0
C2071 C 0.51517 0.45135 0.84034 0.0
C2072 C 0.56505 0.47059 0.85457 0.0
C2073 C 0.5416 0.49993 0.85458 0.0
C2074 C 0.55132 0.52342 0.84285 0.0
C2075 C 0.54963 0.54642 0.84922 0.0
C2076 C 0.53733 0.54527 0.86797 0.0
C2077 C 0.52715 0.52142 0.88019 0.0
C2078 C 0.52963 0.49861 0.87353 0.0
H2079 H 0.50638 0.07964 0.78827 0.0
H2080 H 0.59666 0.13535 0.79873 0.0
H2081 H 0.59164 0.11653 0.83301 0.0
H2082 H 0.48297 0.08431 0.83885 0.0
H2083 H 0.45544 0.04833 0.83923 0.0
H2084 H 0.46609 0.06681 0.81575 0.0
H2085 H 0.4766 0.0296 0.80127 0.0
H2086 H 0.46611 0.01107 0.82471 0.0
H2087 H 0.50086 0.0218 0.8144 0.0
H2088 H 0.57693 0.09031 0.86598 0.0
H2089 H 0.5539 0.05875 0.89461 0.0
H2090 H 0.47288 0.02154 0.86304 0.0
C2091 C 0.52506 0.08824 0.79784 0.0
C2092 C 0.55196 0.10902 0.79068 0.0
C2093 C 0.57589 0.11921 0.80368 0.0
C2094 C 0.57322 0.10877 0.82326 0.0
C2095 C 0.54644 0.08819 0.82975 0.0
C2096 C 0.52276 0.0781 0.81744 0.0
C2097 C 0.49651 0.05552 0.82786 0.0
C2098 C 0.47392 0.06428 0.83058 0.0
C2099 C 0.48431 0.02786 0.81637 0.0
C2100 C 0.50917 0.05421 0.84786 0.0
C2101 C 0.53797 0.0733 0.84871 0.0
C2102 C 0.55433 0.07546 0.86553 0.0
C2103 C 0.54098 0.05752 0.88181 0.0
C2104 C 0.51149 0.03757 0.88123 0.0
C2105 C 0.49549 0.03626 0.864 0.0
H2106 H 0.15639 0.26572 0.57646 0.0
H2107 H 0.06523 0.21735 0.56571 0.0
H2108 H 0.07255 0.23533 0.53106 0.0
H2109 H 0.16901 0.32518 0.54879 0.0
H2110 H 0.20283 0.33203 0.53879 0.0
H2111 H 0.19064 0.31459 0.56254 0.0
H2112 H 0.19587 0.27358 0.54924 0.0
H2113 H 0.20822 0.29096 0.52546 0.0
H2114 H 0.17803 0.25627 0.52632 0.0
H2115 H 0.08958 0.26011 0.49786 0.0
H2116 H 0.11499 0.28962 0.46881 0.0
H2117 H 0.19533 0.32032 0.50055 0.0
C2118 C 0.13798 0.25855 0.56675 0.0
C2119 C 0.11018 0.24014 0.57395 0.0
C2120 C 0.08669 0.23173 0.56074 0.0
C2121 C 0.09065 0.24169 0.54094 0.0
C2122 C 0.11826 0.25999 0.53443 0.0
C2123 C 0.14155 0.26826 0.5469 0.0
C2124 C 0.16892 0.28862 0.53632 0.0
C2125 C 0.18371 0.31677 0.54727 0.0
C2126 C 0.18894 0.27663 0.53421 0.0
C2127 C 0.15734 0.29076 0.51605 0.0
C2128 C 0.12808 0.27401 0.51524 0.0
C2129 C 0.11254 0.27309 0.49826 0.0
C2130 C 0.12724 0.28984 0.48173 0.0
C2131 C 0.15728 0.30736 0.48219 0.0
C2132 C 0.17238 0.30748 0.49964 0.0
H2133 H 0.74454 0.83653 0.58021 0.0
H2134 H 0.82385 0.91066 0.56541 0.0
H2135 H 0.80712 0.90827 0.53044 0.0
H2136 H 0.73214 0.8014 0.53007 0.0
H2137 H 0.69428 0.78828 0.53131 0.0
H2138 H 0.71436 0.79327 0.55407 0.0
H2139 H 0.69545 0.82443 0.5682 0.0
H2140 H 0.67567 0.81989 0.54543 0.0
H2141 H 0.70095 0.85432 0.55408 0.0
H2142 H 0.77995 0.90087 0.49856 0.0
H2143 H 0.74439 0.88889 0.47161 0.0
H2144 H 0.68198 0.81982 0.50715 0.0
C2145 C 0.75866 0.85159 0.56933 0.0
C2146 C 0.78566 0.87343 0.57516 0.0
C2147 C 0.8033 0.89353 0.56093 0.0
C2148 C 0.79396 0.89233 0.54113 0.0
C2149 C 0.76686 0.87096 0.5359 0.0
C2150 C 0.74949 0.85083 0.54953 0.0
C2151 C 0.72034 0.83167 0.5406 0.0
C2152 C 0.71497 0.80189 0.53891 0.0
C2153 C 0.69672 0.83266 0.55281 0.0
C2154 C 0.72376 0.84467 0.52006 0.0
C2155 C 0.75088 0.86705 0.51757 0.0
C2156 C 0.75878 0.88311 0.5002 0.0
C2157 C 0.73844 0.8761 0.48496 0.0
C2158 C 0.71042 0.85333 0.48721 0.0
C2159 C 0.70316 0.8374 0.50501 0.0
H2160 H 0.14735 0.86058 0.57889 0.0
H2161 H 0.16406 0.94373 0.56572 0.0
H2162 H 0.17575 0.93864 0.53066 0.0
H2163 H 0.2034 0.86361 0.54934 0.0
H2164 H 0.18338 0.82811 0.54087 0.0
H2165 H 0.17519 0.83785 0.5647 0.0
H2166 H 0.12267 0.81794 0.55356 0.0
H2167 H 0.13069 0.80807 0.52969 0.0
H2168 H 0.11498 0.82996 0.53055 0.0
H2169 H 0.18689 0.92493 0.49717 0.0
H2170 H 0.19763 0.90401 0.4681 0.0
H2171 H 0.17276 0.82948 0.50292 0.0
C2172 C 0.15313 0.8776 0.56857 0.0
C2173 C 0.15487 0.9026 0.57511 0.0
C2174 C 0.16294 0.92451 0.56117 0.0
C2175 C 0.16942 0.92175 0.54117 0.0
C2176 C 0.1677 0.89692 0.53528 0.0
C2177 C 0.15973 0.87521 0.54856 0.0
C2178 C 0.16033 0.85101 0.53856 0.0
C2179 C 0.18186 0.84479 0.54899 0.0
C2180 C 0.13039 0.82522 0.53806 0.0
C2181 C 0.17022 0.86263 0.51766 0.0
C2182 C 0.17416 0.88905 0.51602 0.0
C2183 C 0.18369 0.90416 0.49824 0.0
C2184 C 0.18959 0.89203 0.48176 0.0
C2185 C 0.18604 0.86507 0.48315 0.0
C2186 C 0.17598 0.85021 0.50137 0.0
H2187 H 0.58208 0.75784 0.14709 0.0
H2188 H 0.64083 0.83188 0.11423 0.0
H2189 H 0.67221 0.84932 0.14402 0.0
H2190 H 0.5899 0.79203 0.19502 0.0
H2191 H 0.58774 0.76375 0.20956 0.0
H2192 H 0.56972 0.75696 0.18569 0.0
H2193 H 0.59635 0.73193 0.17322 0.0
H2194 H 0.61427 0.73846 0.19709 0.0
H2195 H 0.63474 0.7498 0.17421 0.0
H2196 H 0.69817 0.85774 0.17655 0.0
H2197 H 0.71677 0.85695 0.2104 0.0
H2198 H 0.64034 0.77874 0.22289 0.0
C2199 C 0.60162 0.77765 0.1462 0.0
C2200 C 0.60913 0.79357 0.12842 0.0
C2201 C 0.63468 0.81952 0.1278 0.0
C2202 C 0.65261 0.82956 0.1446 0.0
C2203 C 0.64454 0.8135 0.16196 0.0
C2204 C 0.61963 0.78816 0.16295 0.0
C2205 C 0.61601 0.77509 0.18348 0.0
C2206 C 0.58925 0.77177 0.19406 0.0
C2207 C 0.61531 0.74717 0.1819 0.0
C2208 C 0.64296 0.79688 0.19377 0.0
C2209 C 0.65912 0.81884 0.18104 0.0
C2210 C 0.68558 0.84085 0.18675 0.0
C2211 C 0.69595 0.84027 0.20592 0.0
C2212 C 0.67972 0.81802 0.21915 0.0
C2213 C 0.65279 0.79623 0.2131 0.0
H2214 H 0.2083 0.79836 0.12056 0.0
H2215 H 0.29896 0.83812 0.13287 0.0
H2216 H 0.29061 0.84924 0.16732 0.0
H2217 H 0.19622 0.84695 0.14663 0.0
H2218 H 0.16168 0.82169 0.15612 0.0
H2219 H 0.1745 0.81519 0.13294 0.0
H2220 H 0.16734 0.76882 0.14715 0.0
H2221 H 0.15432 0.7751 0.17035 0.0
H2222 H 0.18389 0.76882 0.17065 0.0
H2223 H 0.27249 0.85755 0.20005 0.0
H2224 H 0.24618 0.86314 0.2283 0.0
H2225 H 0.16728 0.81788 0.19462 0.0
C2226 C 0.22632 0.80895 0.13063 0.0
C2227 C 0.25429 0.81725 0.12407 0.0
C2228 C 0.27739 0.83166 0.13756 0.0
C2229 C 0.27283 0.83796 0.15717 0.0
C2230 C 0.24505 0.82977 0.16308 0.0
C2231 C 0.22217 0.81555 0.15021 0.0
C2232 C 0.1946 0.81018 0.15998 0.0
C2233 C 0.18096 0.82435 0.14821 0.0
C2234 C 0.17381 0.77887 0.16216 0.0
C2235 C 0.20556 0.82384 0.18026 0.0
C2236 C 0.23468 0.83483 0.18182 0.0
C2237 C 0.24965 0.84885 0.19905 0.0
C2238 C 0.23449 0.85181 0.21506 0.0
C2239 C 0.20464 0.84093 0.21375 0.0
C2240 C 0.19011 0.82666 0.19608 0.0
H2241 H 0.16642 0.40415 0.1198 0.0
H2242 H 0.25498 0.46361 0.13309 0.0
H2243 H 0.24884 0.44433 0.16727 0.0
H2244 H 0.13899 0.40706 0.16916 0.0
H2245 H 0.11272 0.37064 0.16912 0.0
H2246 H 0.12415 0.38929 0.14574 0.0
H2247 H 0.13789 0.35374 0.13247 0.0
H2248 H 0.12664 0.33506 0.15582 0.0
H2249 H 0.16232 0.34737 0.14674 0.0
H2250 H 0.23329 0.41736 0.19988 0.0
H2251 H 0.20956 0.38541 0.22816 0.0
H2252 H 0.13038 0.34575 0.19425 0.0
C2253 C 0.18448 0.41347 0.12994 0.0
C2254 C 0.21126 0.43543 0.12358 0.0
C2255 C 0.23437 0.44652 0.13736 0.0
C2256 C 0.23104 0.43584 0.15691 0.0
C2257 C 0.2044 0.41416 0.1626 0.0
C2258 C 0.18149 0.40322 0.14955 0.0
C2259 C 0.15515 0.37984 0.15932 0.0
C2260 C 0.13135 0.38716 0.16093 0.0
C2261 C 0.14491 0.35238 0.1479 0.0
C2262 C 0.1669 0.37913 0.17984 0.0
C2263 C 0.19534 0.39908 0.18146 0.0
C2264 C 0.21093 0.40185 0.19884 0.0
C2265 C 0.19716 0.38368 0.21493 0.0
C2266 C 0.16795 0.36296 0.21364 0.0
C2267 C 0.15275 0.36102 0.1958 0.0
H2268 H 0.81074 0.56834 0.90237 0.0
H2269 H 0.7674 0.61397 0.91762 0.0
H2270 H 0.77912 0.63575 0.88446 0.0
H2271 H 0.86956 0.62667 0.87844 0.0
H2272 H 0.87432 0.60595 0.85966 0.0
H2273 H 0.85981 0.59129 0.88387 0.0
H2274 H 0.81553 0.55117 0.86647 0.0
H2275 H 0.82981 0.56586 0.8422 0.0
H2276 H 0.79481 0.55909 0.84935 0.0
H2277 H 0.79541 0.65305 0.84935 0.0
H2278 H 0.82084 0.66913 0.81687 0.0
H2279 H 0.85872 0.61743 0.82592 0.0
C2280 C 0.80374 0.58298 0.89896 0.0
C2281 C 0.78725 0.5885 0.91284 0.0
C2282 C 0.77882 0.60803 0.90728 0.0
C2283 C 0.78566 0.6209 0.8884 0.0
C2284 C 0.80162 0.61475 0.87518 0.0
C2285 C 0.81106 0.59669 0.88034 0.0
C2286 C 0.82996 0.5955 0.86396 0.0
C2287 C 0.8602 0.60545 0.87196 0.0
C2288 C 0.81673 0.56615 0.85497 0.0
C2289 C 0.82971 0.61581 0.84888 0.0
C2290 C 0.81273 0.62623 0.85548 0.0
C2291 C 0.80886 0.64511 0.84406 0.0
C2292 C 0.82322 0.65402 0.82562 0.0
C2293 C 0.84159 0.64446 0.81898 0.0
C2294 C 0.84469 0.62497 0.83071 0.0
H2295 H 0.40804 0.18242 0.9122 0.0
H2296 H 0.47666 0.26714 0.90469 0.0
H2297 H 0.4596 0.26776 0.87027 0.0
H2298 H 0.40659 0.15917 0.86098 0.0
H2299 H 0.36828 0.13826 0.86016 0.0
H2300 H 0.38684 0.14402 0.88372 0.0
H2301 H 0.35626 0.16327 0.89917 0.0
H2302 H 0.3376 0.15753 0.87568 0.0
H2303 H 0.3551 0.19157 0.88696 0.0
H2304 H 0.43516 0.25891 0.83663 0.0
H2305 H 0.4027 0.24263 0.80725 0.0
H2306 H 0.34861 0.16462 0.83747 0.0
C2307 C 0.41954 0.20097 0.90319 0.0
C2308 C 0.44371 0.2247 0.91092 0.0
C2309 C 0.45804 0.24881 0.89894 0.0
C2310 C 0.4486 0.24929 0.8794 0.0
C2311 C 0.42463 0.22556 0.87219 0.0
C2312 C 0.41012 0.20194 0.88378 0.0
C2313 C 0.38411 0.17976 0.87287 0.0
C2314 C 0.38662 0.15377 0.86922 0.0
C2315 C 0.35665 0.17263 0.88436 0.0
C2316 C 0.38618 0.19463 0.85337 0.0
C2317 C 0.40993 0.22088 0.85315 0.0
C2318 C 0.41646 0.23843 0.83665 0.0
C2319 C 0.39803 0.22901 0.82003 0.0
C2320 C 0.3732 0.20249 0.8202 0.0
C2321 C 0.36736 0.18509 0.83706 0.0
H2322 H 0.80676 0.19007 0.9096 0.0
H2323 H 0.8279 0.2744 0.89605 0.0
H2324 H 0.83966 0.26857 0.86116 0.0
H2325 H 0.86306 0.19149 0.88171 0.0
H2326 H 0.8429 0.15615 0.87294 0.0
H2327 H 0.83364 0.16593 0.89634 0.0
H2328 H 0.78202 0.14727 0.8836 0.0
H2329 H 0.79108 0.13728 0.86018 0.0
H2330 H 0.77614 0.15984 0.86017 0.0
H2331 H 0.8514 0.25449 0.82823 0.0
H2332 H 0.86326 0.2335 0.79981 0.0
H2333 H 0.83511 0.15831 0.83455 0.0
C2334 C 0.81334 0.20708 0.89915 0.0
C2335 C 0.8163 0.23267 0.90549 0.0
C2336 C 0.82556 0.25467 0.8915 0.0
C2337 C 0.8322 0.25151 0.87164 0.0
C2338 C 0.82956 0.22623 0.86594 0.0
C2339 C 0.82036 0.20436 0.87925 0.0
C2340 C 0.82092 0.17993 0.86954 0.0
C2341 C 0.84135 0.17298 0.88081 0.0
C2342 C 0.79074 0.15458 0.8683 0.0
C2343 C 0.83224 0.19163 0.84882 0.0
C2344 C 0.8368 0.21826 0.84701 0.0
C2345 C 0.84769 0.23355 0.82942 0.0
C2346 C 0.85424 0.22138 0.8133 0.0
C2347 C 0.85009 0.1942 0.81483 0.0
C2348 C 0.83876 0.17918 0.83288 0.0
H2349 H 0.28702 0.14309 0.45785 0.0
H2350 H 0.20457 0.07456 0.47493 0.0
H2351 H 0.22021 0.0802 0.51036 0.0
H2352 H 0.32699 0.12507 0.48867 0.0
H2353 H 0.3537 0.15993 0.49544 0.0
H2354 H 0.33496 0.15347 0.47193 0.0
H2355 H 0.31894 0.18876 0.48145 0.0
H2356 H 0.33791 0.19558 0.50493 0.0
H2357 H 0.30053 0.18484 0.50485 0.0
H2358 H 0.24599 0.08979 0.54287 0.0
H2359 H 0.28022 0.10305 0.57082 0.0
H2360 H 0.34649 0.1656 0.53305 0.0
C2361 C 0.27211 0.12991 0.46922 0.0
C2362 C 0.24454 0.10862 0.46387 0.0
C2363 C 0.22571 0.0911 0.47891 0.0
C2364 C 0.23439 0.09418 0.49901 0.0
C2365 C 0.26198 0.11487 0.5038 0.0
C2366 C 0.28056 0.13256 0.4894 0.0
C2367 C 0.30978 0.15149 0.49834 0.0
C2368 C 0.3327 0.14722 0.48798 0.0
C2369 C 0.31722 0.18198 0.49733 0.0
C2370 C 0.30488 0.14113 0.51983 0.0
C2371 C 0.27706 0.12023 0.52268 0.0
C2372 C 0.26771 0.10646 0.54095 0.0
C2373 C 0.28732 0.11423 0.55677 0.0
C2374 C 0.31602 0.13553 0.55423 0.0
C2375 C 0.32475 0.1492 0.53548 0.0
H2376 H 0.86508 0.12525 0.45365 0.0
H2377 H 0.95642 0.17101 0.46372 0.0
H2378 H 0.94863 0.18384 0.49775 0.0
H2379 H 0.8501 0.1734 0.47857 0.0
H2380 H 0.81679 0.14725 0.48916 0.0
H2381 H 0.82941 0.14052 0.46597 0.0
H2382 H 0.82624 0.09637 0.4814 0.0
H2383 H 0.81351 0.10291 0.50464 0.0
H2384 H 0.8446 0.09903 0.50463 0.0
H2385 H 0.93095 0.19228 0.53054 0.0
H2386 H 0.90476 0.1969 0.55929 0.0
H2387 H 0.82484 0.14609 0.52789 0.0
C2388 C 0.8834 0.13768 0.46313 0.0
C2389 C 0.91138 0.14709 0.45605 0.0
C2390 C 0.93483 0.16373 0.46878 0.0
C2391 C 0.9306 0.17101 0.48816 0.0
C2392 C 0.90278 0.16161 0.49462 0.0
C2393 C 0.87957 0.14536 0.48248 0.0
C2394 C 0.85194 0.13883 0.49281 0.0
C2395 C 0.83614 0.15071 0.48092 0.0
C2396 C 0.83296 0.10742 0.49606 0.0
C2397 C 0.86325 0.15402 0.5126 0.0
C2398 C 0.89262 0.16686 0.51339 0.0
C2399 C 0.90793 0.18222 0.53011 0.0
C2400 C 0.89285 0.18461 0.54643 0.0
C2401 C 0.86272 0.17185 0.54592 0.0
C2402 C 0.84786 0.15631 0.52871 0.0
H2403 H 0.83777 0.74421 0.45771 0.0
H2404 H 0.92794 0.80139 0.46769 0.0
H2405 H 0.92336 0.78338 0.50219 0.0
H2406 H 0.81513 0.75201 0.50744 0.0
H2407 H 0.78729 0.71619 0.50868 0.0
H2408 H 0.79801 0.73337 0.48472 0.0
H2409 H 0.80789 0.69503 0.47177 0.0
H2410 H 0.79735 0.6778 0.4957 0.0
H2411 H 0.83196 0.68761 0.48555 0.0
H2412 H 0.90877 0.75763 0.53567 0.0
H2413 H 0.88545 0.72748 0.56493 0.0
H2414 H 0.80418 0.69095 0.53365 0.0
C2415 C 0.85657 0.75342 0.46715 0.0
C2416 C 0.88327 0.77432 0.45976 0.0
C2417 C 0.90732 0.78507 0.47271 0.0
C2418 C 0.90489 0.77512 0.49245 0.0
C2419 C 0.87821 0.75461 0.49918 0.0
C2420 C 0.85446 0.74408 0.48692 0.0
C2421 C 0.82815 0.7223 0.49771 0.0
C2422 C 0.80583 0.73153 0.49976 0.0
C2423 C 0.81561 0.69402 0.48705 0.0
C2424 C 0.84082 0.72193 0.5179 0.0
C2425 C 0.86973 0.74062 0.51849 0.0
C2426 C 0.88606 0.74316 0.53542 0.0
C2427 C 0.87253 0.72603 0.55207 0.0
C2428 C 0.84283 0.70666 0.5518 0.0
C2429 C 0.82693 0.70507 0.53444 0.0
loop_
_geom_bond_atom_site_label_1
_geom_bond_atom_site_label_2
_geom_bond_distance
_geom_bond_site_symmetry_2
_ccdc_geom_bond_type
H0 C5 0.930 . S
H1 C8 0.930 . S
H2 C10 0.930 . S
H3 C4 1.016 . S
C4 H3 1.016 . S
C4 N11 1.286 . S
C5 H0 0.930 . S
C5 C6 1.397 . S
C5 C7 1.361 . S
C6 C5 1.397 . S
C6 C10 1.390 . S
C7 C5 1.361 . S
C7 C8 1.393 . S
C7 N11 1.413 . S
C8 H1 0.930 . S
C8 C7 1.393 . S
C8 C9 1.399 . S
C9 C8 1.399 . S
C9 C10 1.381 . S
C10 H2 0.930 . S
C10 C6 1.390 . S
C10 C9 1.381 . S
N11 C4 1.286 . S
N11 C7 1.413 . S
H12 C17 0.930 . S
H13 C20 0.930 . S
H14 C22 0.930 . S
H15 C16 1.016 . S
C16 H15 1.016 . S
C16 N23 1.286 . S
C17 H12 0.930 . S
C17 C18 1.397 . S
C17 C19 1.361 . S
C18 C17 1.397 . S
C18 C22 1.390 . S
C19 C17 1.361 . S
C19 C20 1.393 . S
C19 N23 1.413 . S
C20 H13 0.930 . S
C20 C19 1.393 . S
C20 C21 1.399 . S
C21 C20 1.399 . S
C21 C22 1.381 . S
C22 H14 0.930 . S
C22 C18 1.390 . S
C22 C21 1.381 . S
N23 C16 1.286 . S
N23 C19 1.413 . S
H24 C29 0.930 . S
H25 C32 0.930 . S
H26 C34 0.930 . S
H27 C28 1.016 . S
C28 H27 1.016 . S
C28 N35 1.286 . S
C29 H24 0.930 . S
C29 C30 1.397 . S
C29 C31 1.361 . S
C30 C29 1.397 . S
C30 C34 1.390 . S
C31 C29 1.361 . S
C31 C32 1.393 . S
C31 N35 1.413 . S
C32 H25 0.930 . S
C32 C31 1.393 . S
C32 C33 1.399 . S
C33 C32 1.399 . S
C33 C34 1.381 . S
C34 H26 0.930 . S
C34 C30 1.390 . S
C34 C33 1.381 . S
N35 C28 1.286 . S
N35 C31 1.413 . S
H36 C41 0.930 . S
H37 C44 0.930 . S
H38 C46 0.930 . S
H39 C40 1.016 . S
C40 H39 1.016 . S
C40 N47 1.286 . S
C41 H36 0.930 . S
C41 C42 1.397 . S
C41 C43 1.361 . S
C42 C41 1.397 . S
C42 C46 1.390 . S
C43 C41 1.361 . S
C43 C44 1.393 . S
C43 N47 1.413 . S
C44 H37 0.930 . S
C44 C43 1.393 . S
C44 C45 1.399 . S
C45 C44 1.399 . S
C45 C46 1.381 . S
C46 H38 0.930 . S
C46 C42 1.390 . S
C46 C45 1.381 . S
N47 C40 1.286 . S
N47 C43 1.413 . S
H48 C53 0.930 . S
H49 C56 0.930 . S
H50 C58 0.930 . S
H51 C52 1.016 . S
C52 H51 1.016 . S
C52 N59 1.286 . S
C53 H48 0.930 . S
C53 C54 1.397 . S
C53 C55 1.361 . S
C54 C53 1.397 . S
C54 C58 1.390 . S
C55 C53 1.361 . S
C55 C56 1.393 . S
C55 N59 1.413 . S
C56 H49 0.930 . S
C56 C55 1.393 . S
C56 C57 1.399 . S
C57 C56 1.399 . S
C57 C58 1.381 . S
C58 H50 0.930 . S
C58 C54 1.390 . S
C58 C57 1.381 . S
N59 C52 1.286 . S
N59 C55 1.413 . S
H60 C65 0.930 . S
H61 C68 0.930 . S
H62 C70 0.930 . S
H63 C64 1.016 . S
C64 H63 1.016 . S
C64 N71 1.286 . S
C65 H60 0.930 . S
C65 C66 1.397 . S
C65 C67 1.361 . S
C66 C65 1.397 . S
C66 C70 1.390 . S
C67 C65 1.361 . S
C67 C68 1.393 . S
C67 N71 1.413 . S
C68 H61 0.930 . S
C68 C67 1.393 . S
C68 C69 1.399 . S
C69 C68 1.399 . S
C69 C70 1.381 . S
C70 H62 0.930 . S
C70 C66 1.390 . S
C70 C69 1.381 . S
N71 C64 1.286 . S
N71 C67 1.413 . S
H72 C77 0.930 . S
H73 C80 0.930 . S
H74 C82 0.930 . S
H75 C76 1.016 . S
C76 H75 1.016 . S
C76 N83 1.286 . S
C77 H72 0.930 . S
C77 C78 1.397 . S
C77 C79 1.361 . S
C78 C77 1.397 . S
C78 C82 1.390 . S
C79 C77 1.361 . S
C79 C80 1.393 . S
C79 N83 1.413 . S
C80 H73 0.930 . S
C80 C79 1.393 . S
C80 C81 1.399 . S
C81 C80 1.399 . S
C81 C82 1.381 . S
C82 H74 0.930 . S
C82 C78 1.390 . S
C82 C81 1.381 . S
N83 C76 1.286 . S
N83 C79 1.413 . S
H84 C89 0.930 . S
H85 C92 0.930 . S
H86 C94 0.930 . S
H87 C88 1.016 . S
C88 H87 1.016 . S
C88 N95 1.286 . S
C89 H84 0.930 . S
C89 C90 1.397 . S
C89 C91 1.361 . S
C90 C89 1.397 . S
C90 C94 1.390 . S
C91 C89 1.361 . S
C91 C92 1.393 . S
C91 N95 1.413 . S
C92 H85 0.930 . S
C92 C91 1.393 . S
C92 C93 1.399 . S
C93 C92 1.399 . S
C93 C94 1.381 . S
C94 H86 0.930 . S
C94 C90 1.390 . S
C94 C93 1.381 . S
N95 C88 1.286 . S
N95 C91 1.413 . S
H96 C101 0.930 . S
H97 C104 0.930 . S
H98 C106 0.930 . S
H99 C100 1.016 . S
C100 H99 1.016 . S
C100 N107 1.286 . S
C101 H96 0.930 . S
C101 C102 1.397 . S
C101 C103 1.361 . S
C102 C101 1.397 . S
C102 C106 1.390 . S
C103 C101 1.361 . S
C103 C104 1.393 . S
C103 N107 1.413 . S
C104 H97 0.930 . S
C104 C103 1.393 . S
C104 C105 1.399 . S
C105 C104 1.399 . S
C105 C106 1.381 . S
C106 H98 0.930 . S
C106 C102 1.390 . S
C106 C105 1.381 . S
N107 C100 1.286 . S
N107 C103 1.413 . S
H108 C113 0.930 . S
H109 C116 0.930 . S
H110 C118 0.930 . S
H111 C112 1.016 . S
C112 H111 1.016 . S
C112 N119 1.286 . S
C113 H108 0.930 . S
C113 C114 1.397 . S
C113 C115 1.361 . S
C114 C113 1.397 . S
C114 C118 1.390 . S
C115 C113 1.361 . S
C115 C116 1.393 . S
C115 N119 1.413 . S
C116 H109 0.930 . S
C116 C115 1.393 . S
C116 C117 1.399 . S
C117 C116 1.399 . S
C117 C118 1.381 . S
C118 H110 0.930 . S
C118 C114 1.390 . S
C118 C117 1.381 . S
N119 C112 1.286 . S
N119 C115 1.413 . S
H120 C125 0.930 . S
H121 C128 0.930 . S
H122 C130 0.930 . S
H123 C124 1.016 . S
C124 H123 1.016 . S
C124 N131 1.286 . S
C125 H120 0.930 . S
C125 C126 1.397 . S
C125 C127 1.361 . S
C126 C125 1.397 . S
C126 C130 1.390 . S
C127 C125 1.361 . S
C127 C128 1.393 . S
C127 N131 1.413 . S
C128 H121 0.930 . S
C128 C127 1.393 . S
C128 C129 1.399 . S
C129 C128 1.399 . S
C129 C130 1.381 . S
C130 H122 0.930 . S
C130 C126 1.390 . S
C130 C129 1.381 . S
N131 C124 1.286 . S
N131 C127 1.413 . S
H132 C137 0.930 . S
H133 C140 0.930 . S
H134 C142 0.930 . S
H135 C136 1.016 . S
C136 H135 1.016 . S
C136 N143 1.286 . S
C137 H132 0.930 . S
C137 C138 1.397 . S
C137 C139 1.361 . S
C138 C137 1.397 . S
C138 C142 1.390 . S
C139 C137 1.361 . S
C139 C140 1.393 . S
C139 N143 1.413 . S
C140 H133 0.930 . S
C140 C139 1.393 . S
C140 C141 1.399 . S
C141 C140 1.399 . S
C141 C142 1.381 . S
C142 H134 0.930 . S
C142 C138 1.390 . S
C142 C141 1.381 . S
N143 C136 1.286 . S
N143 C139 1.413 . S
H144 C149 0.930 . S
H145 C152 0.930 . S
H146 C154 0.930 . S
H147 C148 1.016 . S
C148 H147 1.016 . S
C148 N155 1.286 . S
C149 H144 0.930 . S
C149 C150 1.397 . S
C149 C151 1.361 . S
C150 C149 1.397 . S
C150 C154 1.390 . S
C151 C149 1.361 . S
C151 C152 1.393 . S
C151 N155 1.413 . S
C152 H145 0.930 . S
C152 C151 1.393 . S
C152 C153 1.399 . S
C153 C152 1.399 . S
C153 C154 1.381 . S
C154 H146 0.930 . S
C154 C150 1.390 . S
C154 C153 1.381 . S
N155 C148 1.286 . S
N155 C151 1.413 . S
H156 C161 0.930 . S
H157 C164 0.930 . S
H158 C166 0.930 . S
H159 C160 1.016 . S
C160 H159 1.016 . S
C160 N167 1.286 . S
C161 H156 0.930 . S
C161 C162 1.397 . S
C161 C163 1.361 . S
C162 C161 1.397 . S
C162 C166 1.390 . S
C163 C161 1.361 . S
C163 C164 1.393 . S
C163 N167 1.413 . S
C164 H157 0.930 . S
C164 C163 1.393 . S
C164 C165 1.399 . S
C165 C164 1.399 . S
C165 C166 1.381 . S
C166 H158 0.930 . S
C166 C162 1.390 . S
C166 C165 1.381 . S
N167 C160 1.286 . S
N167 C163 1.413 . S
H168 C173 0.930 . S
H169 C176 0.930 . S
H170 C178 0.930 . S
H171 C172 1.016 . S
C172 H171 1.016 . S
C172 N179 1.286 . S
C173 H168 0.930 . S
C173 C174 1.397 . S
C173 C175 1.361 . S
C174 C173 1.397 . S
C174 C178 1.390 . S
C175 C173 1.361 . S
C175 C176 1.393 . S
C175 N179 1.413 . S
C176 H169 0.930 . S
C176 C175 1.393 . S
C176 C177 1.399 . S
C177 C176 1.399 . S
C177 C178 1.381 . S
C178 H170 0.930 . S
C178 C174 1.390 . S
C178 C177 1.381 . S
N179 C172 1.286 . S
N179 C175 1.413 . S
H180 C185 0.930 . S
H181 C188 0.930 . S
H182 C190 0.930 . S
H183 C184 1.016 . S
C184 H183 1.016 . S
C184 N191 1.286 . S
C185 H180 0.930 . S
C185 C186 1.397 . S
C185 C187 1.361 . S
C186 C185 1.397 . S
C186 C190 1.390 . S
C187 C185 1.361 . S
C187 C188 1.393 . S
C187 N191 1.413 . S
C188 H181 0.930 . S
C188 C187 1.393 . S
C188 C189 1.399 . S
C189 C188 1.399 . S
C189 C190 1.381 . S
C190 H182 0.930 . S
C190 C186 1.390 . S
C190 C189 1.381 . S
N191 C184 1.286 . S
N191 C187 1.413 . S
H192 C197 0.930 . S
H193 C200 0.930 . S
H194 C202 0.930 . S
H195 C196 1.016 . S
C196 H195 1.016 . S
C196 N203 1.286 . S
C197 H192 0.930 . S
C197 C198 1.397 . S
C197 C199 1.361 . S
C198 C197 1.397 . S
C198 C202 1.390 . S
C199 C197 1.361 . S
C199 C200 1.393 . S
C199 N203 1.413 . S
C200 H193 0.930 . S
C200 C199 1.393 . S
C200 C201 1.399 . S
C201 C200 1.399 . S
C201 C202 1.381 . S
C202 H194 0.930 . S
C202 C198 1.390 . S
C202 C201 1.381 . S
N203 C196 1.286 . S
N203 C199 1.413 . S
H204 C209 0.930 . S
H205 C212 0.930 . S
H206 C214 0.930 . S
H207 C208 1.016 . S
C208 H207 1.016 . S
C208 N215 1.286 . S
C209 H204 0.930 . S
C209 C210 1.397 . S
C209 C211 1.361 . S
C210 C209 1.397 . S
C210 C214 1.390 . S
C211 C209 1.361 . S
C211 C212 1.393 . S
C211 N215 1.413 . S
C212 H205 0.930 . S
C212 C211 1.393 . S
C212 C213 1.399 . S
C213 C212 1.399 . S
C213 C214 1.381 . S
C214 H206 0.930 . S
C214 C210 1.390 . S
C214 C213 1.381 . S
N215 C208 1.286 . S
N215 C211 1.413 . S
Tb216 N247 2.660 . S
Tb216 N254 2.600 . S
Tb216 O260 2.546 . S
Tb216 O261 2.610 1_566 S
Tb216 O263 2.320 1_565 S
Tb216 O264 2.552 1_565 S
Tb216 O265 2.413 1_565 S
Tb216 O267 2.362 1_556 S
Tb216 O268 2.421 . S
Tb216 C280 2.832 1_565 S
C217 C220 1.432 . S
C217 C221 1.414 . S
C217 N224 1.359 . S
C218 C220 1.417 . S
C218 C222 1.432 . S
C218 C230 1.410 . S
C219 C221 1.444 . S
C219 C222 1.317 . S
C219 H242 0.929 . S
C220 C217 1.432 . S
C220 C218 1.417 . S
C220 N228 1.360 . S
C221 C217 1.414 . S
C221 C219 1.444 . S
C221 C226 1.385 . S
C222 C218 1.432 . S
C222 C219 1.317 . S
C222 H234 0.930 . S
C223 C225 1.392 . S
C223 C226 1.370 . S
C223 H235 0.931 . S
N224 C217 1.359 . S
N224 C225 1.327 . S
N224 Tb227 2.600 . S
C225 C223 1.392 . S
C225 N224 1.327 . S
C225 H232 0.930 . S
C226 C221 1.385 . S
C226 C223 1.370 . S
C226 H245 0.930 . S
Tb227 N224 2.600 . S
Tb227 N228 2.660 . S
Tb227 O261 2.362 . S
Tb227 O262 2.421 . S
Tb227 O266 2.546 . S
Tb227 O267 2.610 1_545 S
Tb227 O269 2.320 1_545 S
Tb227 O270 2.552 1_545 S
Tb227 O271 2.413 1_545 S
Tb227 C291 2.833 . S
N228 C220 1.360 . S
N228 Tb227 2.660 . S
N228 C229 1.305 . S
C229 N228 1.305 . S
C229 C231 1.407 . S
C229 H236 0.930 . S
C230 C218 1.410 . S
C230 C231 1.345 . S
C230 H238 0.930 . S
C231 C229 1.407 . S
C231 C230 1.345 . S
C231 H233 0.930 . S
H232 C225 0.930 . S
H233 C231 0.930 . S
H234 C222 0.930 . S
H235 C223 0.931 . S
H236 C229 0.930 . S
H237 C251 0.930 . S
H238 C230 0.930 . S
H239 C257 0.930 . S
H240 C248 0.930 . S
H241 C255 0.931 . S
H242 C219 0.929 . S
H243 C249 0.930 . S
H244 C282 0.930 . S
H245 C226 0.930 . S
H246 C281 0.929 . S
N247 Tb216 2.660 . S
N247 C248 1.305 . S
N247 C252 1.360 . S
C248 H240 0.930 . S
C248 N247 1.305 . S
C248 C251 1.407 . S
C249 H243 0.930 . S
C249 C250 1.410 . S
C249 C251 1.345 . S
C250 C249 1.410 . S
C250 C252 1.417 . S
C250 C282 1.432 . S
C251 H237 0.930 . S
C251 C248 1.407 . S
C251 C249 1.345 . S
C252 N247 1.360 . S
C252 C250 1.417 . S
C252 C256 1.432 . S
H253 C258 0.930 . S
N254 Tb216 2.600 . S
N254 C256 1.359 . S
N254 C257 1.327 . S
C255 H241 0.931 . S
C255 C257 1.392 . S
C255 C258 1.370 . S
C256 C252 1.432 . S
C256 N254 1.359 . S
C256 C259 1.414 . S
C257 H239 0.930 . S
C257 N254 1.327 . S
C257 C255 1.392 . S
C258 H253 0.930 . S
C258 C255 1.370 . S
C258 C259 1.385 . S
C259 C256 1.414 . S
C259 C258 1.385 . S
C259 C281 1.444 . S
O260 Tb216 2.546 . S
O260 C280 1.245 1_565 S
O261 Tb216 2.610 1_544 S
O261 Tb227 2.362 . S
O261 C272 1.283 1_554 S
O262 Tb227 2.421 . S
O262 C279 1.262 . S
O263 Tb216 2.320 1_545 S
O263 C279 1.260 1_556 S
O264 Tb216 2.552 1_545 S
O264 C272 1.243 . S
O265 Tb216 2.413 1_545 S
O265 C280 1.261 . S
O266 Tb227 2.546 . S
O266 C291 1.251 . S
O267 Tb216 2.362 1_554 S
O267 Tb227 2.610 1_565 S
O267 C283 1.283 . S
O268 Tb216 2.421 . S
O268 C290 1.261 1_556 S
O269 Tb227 2.320 1_565 S
O269 C290 1.260 . S
O270 Tb227 2.552 1_565 S
O270 C283 1.243 . S
O271 Tb227 2.413 1_565 S
O271 C291 1.256 1_565 S
C272 O261 1.283 1_556 S
C272 O264 1.243 . S
C273 C275 1.382 . S
C273 C277 1.393 1_545 S
C273 C280 1.501 . S
C274 C275 1.400 . S
C274 C276 1.384 . S
C275 C273 1.382 . S
C275 C274 1.400 . S
C275 H292 0.930 . S
C276 C274 1.384 . S
C276 C278 1.392 1_545 S
C276 H293 0.931 . S
C277 C273 1.393 1_565 S
C277 C278 1.401 . S
C277 H294 0.930 . S
C278 C276 1.392 1_565 S
C278 C277 1.401 . S
C278 H295 0.930 . S
C279 O262 1.262 . S
C279 O263 1.260 1_554 S
C280 Tb216 2.832 1_545 S
C280 O260 1.245 1_545 S
C280 O265 1.261 . S
C280 C273 1.501 . S
C281 H246 0.929 . S
C281 C259 1.444 . S
C281 C282 1.317 . S
C282 H244 0.930 . S
C282 C250 1.432 . S
C282 C281 1.317 . S
C283 O267 1.283 . S
C283 O270 1.243 . S
C284 C285 1.382 1_545 S
C284 C288 1.393 . S
C284 C291 1.500 . S
C285 C284 1.382 1_565 S
C285 C286 1.400 . S
C285 H296 0.930 . S
C286 C285 1.400 . S
C286 C287 1.384 . S
C287 C286 1.384 . S
C287 C289 1.392 1_565 S
C287 H297 0.931 . S
C288 C284 1.393 . S
C288 C289 1.401 . S
C288 H298 0.930 . S
C289 C287 1.392 1_545 S
C289 C288 1.401 . S
C289 H299 0.930 . S
C290 O268 1.261 1_554 S
C290 O269 1.260 . S
C291 Tb227 2.833 . S
C291 O266 1.251 . S
C291 O271 1.256 1_545 S
C291 C284 1.500 . S
H292 C275 0.930 . S
H293 C276 0.931 . S
H294 C277 0.930 . S
H295 C278 0.930 . S
H296 C285 0.930 . S
H297 C287 0.931 . S
H298 C288 0.930 . S
H299 C289 0.930 . S
Tb300 N331 2.660 . S
Tb300 N338 2.600 . S
Tb300 O344 2.546 . S
Tb300 O345 2.610 1_456 S
Tb300 O347 2.320 1_455 S
Tb300 O348 2.552 1_455 S
Tb300 O349 2.419 . S
Tb300 O351 2.362 1_556 S
Tb300 O352 2.395 1_556 S
Tb300 C364 2.833 . S
C301 C304 1.432 . S
C301 C305 1.414 . S
C301 N308 1.359 . S
C302 C304 1.417 . S
C302 C306 1.432 . S
C302 C314 1.410 . S
C303 C305 1.444 . S
C303 C306 1.317 . S
C303 H326 0.929 . S
C304 C301 1.432 . S
C304 C302 1.417 . S
C304 N312 1.360 . S
C305 C301 1.414 . S
C305 C303 1.444 . S
C305 C310 1.385 . S
C306 C302 1.432 . S
C306 C303 1.317 . S
C306 H318 0.930 . S
C307 C309 1.392 . S
C307 C310 1.370 . S
C307 H319 0.931 . S
N308 C301 1.359 . S
N308 C309 1.327 . S
N308 Tb311 2.600 . S
C309 C307 1.392 . S
C309 N308 1.327 . S
C309 H316 0.930 . S
C310 C305 1.385 . S
C310 C307 1.370 . S
C310 H329 0.930 . S
Tb311 N308 2.600 . S
Tb311 N312 2.660 . S
Tb311 O345 2.362 . S
Tb311 O346 2.421 . S
Tb311 O350 2.546 . S
Tb311 O351 2.610 1_655 S
Tb311 O353 2.320 1_655 S
Tb311 O354 2.552 1_655 S
Tb311 O355 2.413 1_655 S
Tb311 C375 2.833 . S
N312 C304 1.360 . S
N312 Tb311 2.660 . S
N312 C313 1.305 . S
C313 N312 1.305 . S
C313 C315 1.407 . S
C313 H320 0.930 . S
C314 C302 1.410 . S
C314 C315 1.345 . S
C314 H322 0.930 . S
C315 C313 1.407 . S
C315 C314 1.345 . S
C315 H317 0.930 . S
H316 C309 0.930 . S
H317 C315 0.930 . S
H318 C306 0.930 . S
H319 C307 0.931 . S
H320 C313 0.930 . S
H321 C335 0.930 . S
H322 C314 0.930 . S
H323 C341 0.930 . S
H324 C332 0.930 . S
H325 C339 0.931 . S
H326 C303 0.929 . S
H327 C333 0.930 . S
H328 C366 0.930 . S
H329 C310 0.930 . S
H330 C365 0.929 . S
N331 Tb300 2.660 . S
N331 C332 1.305 . S
N331 C336 1.360 . S
C332 H324 0.930 . S
C332 N331 1.305 . S
C332 C335 1.407 . S
C333 H327 0.930 . S
C333 C334 1.410 . S
C333 C335 1.345 . S
C334 C333 1.410 . S
C334 C336 1.417 . S
C334 C366 1.432 . S
C335 H321 0.930 . S
C335 C332 1.407 . S
C335 C333 1.345 . S
C336 N331 1.360 . S
C336 C334 1.417 . S
C336 C340 1.432 . S
H337 C342 0.930 . S
N338 Tb300 2.600 . S
N338 C340 1.359 . S
N338 C341 1.327 . S
C339 H325 0.931 . S
C339 C341 1.392 . S
C339 C342 1.370 . S
C340 C336 1.432 . S
C340 N338 1.359 . S
C340 C343 1.414 . S
C341 H323 0.930 . S
C341 N338 1.327 . S
C341 C339 1.392 . S
C342 H337 0.930 . S
C342 C339 1.370 . S
C342 C343 1.385 . S
C343 C340 1.414 . S
C343 C342 1.385 . S
C343 C365 1.444 . S
O344 Tb300 2.546 . S
O344 C364 1.251 . S
O345 Tb300 2.610 1_654 S
O345 Tb311 2.362 . S
O345 C356 1.283 1_554 S
O346 Tb311 2.421 . S
O346 C363 1.262 . S
O347 Tb300 2.320 1_655 S
O347 C363 1.260 1_556 S
O348 Tb300 2.552 1_655 S
O348 C356 1.243 . S
O349 Tb300 2.419 . S
O349 C364 1.255 . S
O350 Tb311 2.546 . S
O350 C375 1.251 . S
O351 Tb300 2.362 1_554 S
O351 Tb311 2.610 1_455 S
O351 C367 1.283 . S
O352 Tb300 2.395 1_554 S
O352 C374 1.314 . S
O353 Tb311 2.320 1_455 S
O353 C374 1.260 . S
O354 Tb311 2.552 1_455 S
O354 C367 1.243 . S
O355 Tb311 2.413 1_455 S
O355 C375 1.256 1_455 S
C356 O345 1.283 1_556 S
C356 O348 1.243 . S
C357 C359 1.382 1_455 S
C357 C361 1.393 . S
C357 C364 1.500 . S
C358 C359 1.400 . S
C358 C360 1.384 . S
C359 C357 1.382 1_655 S
C359 C358 1.400 . S
C359 H376 0.930 . S
C360 C358 1.384 . S
C360 C362 1.392 1_655 S
C360 H377 0.931 . S
C361 C357 1.393 . S
C361 C362 1.401 . S
C361 H378 0.930 . S
C362 C360 1.392 1_455 S
C362 C361 1.401 . S
C362 H379 0.930 . S
C363 O346 1.262 . S
C363 O347 1.260 1_554 S
C364 Tb300 2.833 . S
C364 O344 1.251 . S
C364 O349 1.255 . S
C364 C357 1.500 . S
C365 H330 0.929 . S
C365 C343 1.444 . S
C365 C366 1.317 . S
C366 H328 0.930 . S
C366 C334 1.432 . S
C366 C365 1.317 . S
C367 O351 1.283 . S
C367 O354 1.243 . S
C368 C369 1.382 . S
C368 C372 1.393 1_455 S
C368 C375 1.500 1_455 S
C369 C368 1.382 . S
C369 C370 1.400 . S
C369 H380 0.930 . S
C370 C369 1.400 . S
C370 C371 1.384 . S
C371 C370 1.384 . S
C371 C373 1.392 1_455 S
C371 H381 0.931 . S
C372 C368 1.393 1_655 S
C372 C373 1.401 . S
C372 H382 0.930 . S
C373 C371 1.392 1_655 S
C373 C372 1.401 . S
C373 H383 0.930 . S
C374 O352 1.314 . S
C374 O353 1.260 . S
C375 Tb311 2.833 . S
C375 O350 1.251 . S
C375 O355 1.256 1_655 S
C375 C368 1.500 1_655 S
H376 C359 0.930 . S
H377 C360 0.931 . S
H378 C361 0.930 . S
H379 C362 0.930 . S
H380 C369 0.930 . S
H381 C371 0.931 . S
H382 C372 0.930 . S
H383 C373 0.930 . S
Tb384 N415 2.660 . S
Tb384 N422 2.600 . S
Tb384 O428 2.546 . S
Tb384 O429 2.610 . S
Tb384 O431 2.320 . S
Tb384 O432 2.552 . S
Tb384 O433 2.413 . S
Tb384 O435 2.362 . S
Tb384 O436 2.421 . S
Tb384 C448 2.833 . S
C385 C388 1.432 . S
C385 C389 1.414 . S
C385 N392 1.359 . S
C386 C388 1.417 . S
C386 C390 1.432 . S
C386 C398 1.410 . S
C387 C389 1.444 . S
C387 C390 1.317 . S
C387 H410 0.929 . S
C388 C385 1.432 . S
C388 C386 1.417 . S
C388 N396 1.360 . S
C389 C385 1.414 . S
C389 C387 1.444 . S
C389 C394 1.385 . S
C390 C386 1.432 . S
C390 C387 1.317 . S
C390 H402 0.930 . S
C391 C393 1.392 . S
C391 C394 1.370 . S
C391 H403 0.931 . S
N392 C385 1.359 . S
N392 C393 1.327 . S
N392 Tb395 2.600 . S
C393 C391 1.392 . S
C393 N392 1.327 . S
C393 H400 0.930 . S
C394 C389 1.385 . S
C394 C391 1.370 . S
C394 H413 0.930 . S
Tb395 N392 2.600 . S
Tb395 N396 2.660 . S
Tb395 O429 2.362 1_556 S
Tb395 O430 2.421 1_556 S
Tb395 O434 2.546 . S
Tb395 O435 2.610 1_556 S
Tb395 O437 2.320 . S
Tb395 O438 2.552 . S
Tb395 O439 2.413 . S
Tb395 C459 2.833 . S
N396 C388 1.360 . S
N396 Tb395 2.660 . S
N396 C397 1.305 . S
C397 N396 1.305 . S
C397 C399 1.407 . S
C397 H404 0.930 . S
C398 C386 1.410 . S
C398 C399 1.345 . S
C398 H406 0.930 . S
C399 C397 1.407 . S
C399 C398 1.345 . S
C399 H401 0.930 . S
H400 C393 0.930 . S
H401 C399 0.930 . S
H402 C390 0.930 . S
H403 C391 0.931 . S
H404 C397 0.930 . S
H405 C419 0.930 . S
H406 C398 0.930 . S
H407 C425 0.930 . S
H408 C416 0.930 . S
H409 C423 0.931 . S
H410 C387 0.929 . S
H411 C417 0.930 . S
H412 C450 0.930 . S
H413 C394 0.930 . S
H414 C449 0.929 . S
N415 Tb384 2.660 . S
N415 C416 1.305 . S
N415 C420 1.360 . S
C416 H408 0.930 . S
C416 N415 1.305 . S
C416 C419 1.407 . S
C417 H411 0.930 . S
C417 C418 1.410 . S
C417 C419 1.345 . S
C418 C417 1.410 . S
C418 C420 1.417 . S
C418 C450 1.432 . S
C419 H405 0.930 . S
C419 C416 1.407 . S
C419 C417 1.345 . S
C420 N415 1.360 . S
C420 C418 1.417 . S
C420 C424 1.432 . S
H421 C426 0.930 . S
N422 Tb384 2.600 . S
N422 C424 1.359 . S
N422 C425 1.327 . S
C423 H409 0.931 . S
C423 C425 1.392 . S
C423 C426 1.370 . S
C424 C420 1.432 . S
C424 N422 1.359 . S
C424 C427 1.414 . S
C425 H407 0.930 . S
C425 N422 1.327 . S
C425 C423 1.392 . S
C426 H421 0.930 . S
C426 C423 1.370 . S
C426 C427 1.385 . S
C427 C424 1.414 . S
C427 C426 1.385 . S
C427 C449 1.444 . S
O428 Tb384 2.546 . S
O428 C448 1.251 . S
O429 Tb384 2.610 . S
O429 Tb395 2.362 1_554 S
O429 C440 1.283 . S
O430 Tb395 2.421 1_554 S
O430 C447 1.262 . S
O431 Tb384 2.320 . S
O431 C447 1.260 . S
O432 Tb384 2.552 . S
O432 C440 1.243 . S
O433 Tb384 2.413 . S
O433 C448 1.256 . S
O434 Tb395 2.546 . S
O434 C459 1.251 . S
O435 Tb384 2.362 . S
O435 Tb395 2.610 1_554 S
O435 C451 1.283 1_554 S
O436 Tb384 2.421 . S
O436 C458 1.262 . S
O437 Tb395 2.320 . S
O437 C458 1.260 1_556 S
O438 Tb395 2.552 . S
O438 C451 1.243 . S
O439 Tb395 2.413 . S
O439 C459 1.256 . S
C440 O429 1.283 . S
C440 O432 1.243 . S
C441 C443 1.382 . S
C441 C445 1.393 . S
C441 C448 1.500 . S
C442 C443 1.400 . S
C442 C444 1.384 . S
C443 C441 1.382 . S
C443 C442 1.400 . S
C443 H460 0.930 . S
C444 C442 1.384 . S
C444 C446 1.392 . S
C444 H461 0.931 . S
C445 C441 1.393 . S
C445 C446 1.401 . S
C445 H462 0.930 . S
C446 C444 1.392 . S
C446 C445 1.401 . S
C446 H463 0.930 . S
C447 O430 1.262 . S
C447 O431 1.260 . S
C448 Tb384 2.833 . S
C448 O428 1.251 . S
C448 O433 1.256 . S
C448 C441 1.500 . S
C449 H414 0.929 . S
C449 C427 1.444 . S
C449 C450 1.317 . S
C450 H412 0.930 . S
C450 C418 1.432 . S
C450 C449 1.317 . S
C451 O435 1.283 1_556 S
C451 O438 1.243 . S
C452 C453 1.382 . S
C452 C456 1.393 . S
C452 C459 1.500 . S
C453 C452 1.382 . S
C453 C454 1.400 . S
C453 H464 0.930 . S
C454 C453 1.400 . S
C454 C455 1.384 . S
C455 C454 1.384 . S
C455 C457 1.392 . S
C455 H465 0.931 . S
C456 C452 1.393 . S
C456 C457 1.401 . S
C456 H466 0.930 . S
C457 C455 1.392 . S
C457 C456 1.401 . S
C457 H467 0.930 . S
C458 O436 1.262 . S
C458 O437 1.260 1_554 S
C459 Tb395 2.833 . S
C459 O434 1.251 . S
C459 O439 1.256 . S
C459 C452 1.500 . S
H460 C443 0.930 . S
H461 C444 0.931 . S
H462 C445 0.930 . S
H463 C446 0.930 . S
H464 C453 0.930 . S
H465 C455 0.931 . S
H466 C456 0.930 . S
H467 C457 0.930 . S
Tb468 N499 2.660 . S
Tb468 N506 2.600 . S
Tb468 O512 2.546 . S
Tb468 O513 2.610 . S
Tb468 O515 2.320 . S
Tb468 O516 2.552 . S
Tb468 O517 2.413 . S
Tb468 O519 2.362 . S
Tb468 O520 2.421 . S
Tb468 C532 2.833 . S
C469 C472 1.432 . S
C469 C473 1.414 . S
C469 N476 1.359 . S
C470 C472 1.417 . S
C470 C474 1.432 . S
C470 C482 1.410 . S
C471 C473 1.444 . S
C471 C474 1.317 . S
C471 H494 0.929 . S
C472 C469 1.432 . S
C472 C470 1.417 . S
C472 N480 1.360 . S
C473 C469 1.414 . S
C473 C471 1.444 . S
C473 C478 1.385 . S
C474 C470 1.432 . S
C474 C471 1.317 . S
C474 H486 0.930 . S
C475 C477 1.392 . S
C475 C478 1.370 . S
C475 H487 0.931 . S
N476 C469 1.359 . S
N476 C477 1.327 . S
N476 Tb479 2.600 . S
C477 C475 1.392 . S
C477 N476 1.327 . S
C477 H484 0.930 . S
C478 C473 1.385 . S
C478 C475 1.370 . S
C478 H497 0.930 . S
Tb479 N476 2.600 . S
Tb479 N480 2.660 . S
Tb479 O513 2.362 . S
Tb479 O514 2.421 . S
Tb479 O518 2.546 . S
Tb479 O519 2.610 . S
Tb479 O521 2.320 . S
Tb479 O522 2.552 . S
Tb479 O523 2.413 . S
Tb479 C543 2.833 . S
N480 C472 1.360 . S
N480 Tb479 2.660 . S
N480 C481 1.305 . S
C481 N480 1.305 . S
C481 C483 1.407 . S
C481 H488 0.930 . S
C482 C470 1.410 . S
C482 C483 1.345 . S
C482 H490 0.930 . S
C483 C481 1.407 . S
C483 C482 1.345 . S
C483 H485 0.930 . S
H484 C477 0.930 . S
H485 C483 0.930 . S
H486 C474 0.930 . S
H487 C475 0.931 . S
H488 C481 0.930 . S
H489 C503 0.930 . S
H490 C482 0.930 . S
H491 C509 0.930 . S
H492 C500 0.930 . S
H493 C507 0.931 . S
H494 C471 0.929 . S
H495 C501 0.930 1_655 S
H496 C534 0.930 . S
H497 C478 0.930 . S
H498 C533 0.929 . S
N499 Tb468 2.660 . S
N499 C500 1.305 . S
N499 C504 1.360 . S
C500 H492 0.930 . S
C500 N499 1.305 . S
C500 C503 1.407 . S
C501 H495 0.930 1_455 S
C501 C502 1.410 . S
C501 C503 1.345 . S
C502 C501 1.410 . S
C502 C504 1.417 . S
C502 C534 1.432 . S
C503 H489 0.930 . S
C503 C500 1.407 . S
C503 C501 1.345 . S
C504 N499 1.360 . S
C504 C502 1.417 . S
C504 C508 1.432 . S
H505 C510 0.930 . S
N506 Tb468 2.600 . S
N506 C508 1.359 . S
N506 C509 1.327 . S
C507 H493 0.931 . S
C507 C509 1.392 . S
C507 C510 1.370 . S
C508 C504 1.432 . S
C508 N506 1.359 . S
C508 C511 1.414 . S
C509 H491 0.930 . S
C509 N506 1.327 . S
C509 C507 1.392 . S
C510 H505 0.930 . S
C510 C507 1.370 . S
C510 C511 1.385 . S
C511 C508 1.414 . S
C511 C510 1.385 . S
C511 C533 1.444 . S
O512 Tb468 2.546 . S
O512 C532 1.251 . S
O513 Tb468 2.610 . S
O513 Tb479 2.362 . S
O513 C524 1.283 . S
O514 Tb479 2.421 . S
O514 C531 1.262 . S
O515 Tb468 2.320 . S
O515 C531 1.260 . S
O516 Tb468 2.552 . S
O516 C524 1.243 . S
O517 Tb468 2.413 . S
O517 C532 1.256 . S
O518 Tb479 2.546 . S
O518 C543 1.251 . S
O519 Tb468 2.362 . S
O519 Tb479 2.610 . S
O519 C535 1.283 . S
O520 Tb468 2.421 . S
O520 C542 1.262 . S
O521 Tb479 2.320 . S
O521 C542 1.260 . S
O522 Tb479 2.552 . S
O522 C535 1.243 . S
O523 Tb479 2.413 . S
O523 C543 1.256 . S
C524 O513 1.283 . S
C524 O516 1.243 . S
C525 C527 1.382 . S
C525 C529 1.393 . S
C525 C532 1.500 . S
C526 C527 1.400 . S
C526 C528 1.384 . S
C527 C525 1.382 . S
C527 C526 1.400 . S
C527 H544 0.930 . S
C528 C526 1.384 . S
C528 C530 1.392 . S
C528 H545 0.931 . S
C529 C525 1.393 . S
C529 C530 1.401 . S
C529 H546 0.930 . S
C530 C528 1.392 . S
C530 C529 1.401 . S
C530 H547 0.930 . S
C531 O514 1.262 . S
C531 O515 1.260 . S
C532 Tb468 2.833 . S
C532 O512 1.251 . S
C532 O517 1.256 . S
C532 C525 1.500 . S
C533 H498 0.929 . S
C533 C511 1.444 . S
C533 C534 1.317 . S
C534 H496 0.930 . S
C534 C502 1.432 . S
C534 C533 1.317 . S
C535 O519 1.283 . S
C535 O522 1.243 . S
C536 C537 1.382 . S
C536 C540 1.393 . S
C536 C543 1.500 . S
C537 C536 1.382 . S
C537 C538 1.400 . S
C537 H548 0.930 . S
C538 C537 1.400 . S
C538 C539 1.384 . S
C539 C538 1.384 . S
C539 C541 1.392 . S
C539 H549 0.931 . S
C540 C536 1.393 . S
C540 C541 1.401 . S
C540 H550 0.930 . S
C541 C539 1.392 . S
C541 C540 1.401 . S
C541 H551 0.930 . S
C542 O520 1.262 . S
C542 O521 1.260 . S
C543 Tb479 2.833 . S
C543 O518 1.251 . S
C543 O523 1.256 . S
C543 C536 1.500 . S
H544 C527 0.930 . S
H545 C528 0.931 . S
H546 C529 0.930 . S
H547 C530 0.930 . S
H548 C537 0.930 . S
H549 C539 0.931 . S
H550 C540 0.930 . S
H551 C541 0.930 . S
Tb552 N583 2.660 . S
Tb552 N590 2.600 . S
Tb552 O596 2.546 . S
Tb552 O597 2.610 . S
Tb552 O599 2.320 . S
Tb552 O600 2.552 . S
Tb552 O601 2.413 . S
Tb552 O603 2.362 . S
Tb552 O604 2.421 . S
Tb552 C616 2.833 . S
C553 C556 1.432 . S
C553 C557 1.414 . S
C553 N560 1.359 . S
C554 C556 1.417 . S
C554 C558 1.432 . S
C554 C566 1.410 . S
C555 C557 1.444 . S
C555 C558 1.317 . S
C555 H578 0.929 . S
C556 C553 1.432 . S
C556 C554 1.417 . S
C556 N564 1.360 . S
C557 C553 1.414 . S
C557 C555 1.444 . S
C557 C562 1.385 . S
C558 C554 1.432 . S
C558 C555 1.317 . S
C558 H570 0.930 . S
C559 C561 1.392 . S
C559 C562 1.370 . S
C559 H571 0.931 . S
N560 C553 1.359 . S
N560 C561 1.327 . S
N560 Tb563 2.600 . S
C561 C559 1.392 . S
C561 N560 1.327 . S
C561 H568 0.930 . S
C562 C557 1.385 . S
C562 C559 1.370 . S
C562 H581 0.930 . S
Tb563 N560 2.600 . S
Tb563 N564 2.660 . S
Tb563 O597 2.362 . S
Tb563 O598 2.421 . S
Tb563 O602 2.546 . S
Tb563 O603 2.610 . S
Tb563 O605 2.320 . S
Tb563 O606 2.552 . S
Tb563 O607 2.413 . S
Tb563 C627 2.833 . S
N564 C556 1.360 . S
N564 Tb563 2.660 . S
N564 C565 1.305 . S
C565 N564 1.305 . S
C565 C567 1.407 . S
C565 H572 0.930 . S
C566 C554 1.410 . S
C566 C567 1.345 . S
C566 H574 0.930 . S
C567 C565 1.407 . S
C567 C566 1.345 . S
C567 H569 0.930 . S
H568 C561 0.930 . S
H569 C567 0.930 . S
H570 C558 0.930 . S
H571 C559 0.931 . S
H572 C565 0.930 . S
H573 C587 0.930 . S
H574 C566 0.930 . S
H575 C593 0.930 . S
H576 C584 0.930 . S
H577 C591 0.931 . S
H578 C555 0.929 . S
H579 C585 0.930 . S
H580 C618 0.930 . S
H581 C562 0.930 . S
H582 C617 0.929 . S
N583 Tb552 2.660 . S
N583 C584 1.305 . S
N583 C588 1.360 . S
C584 H576 0.930 . S
C584 N583 1.305 . S
C584 C587 1.407 . S
C585 H579 0.930 . S
C585 C586 1.410 . S
C585 C587 1.345 . S
C586 C585 1.410 . S
C586 C588 1.417 . S
C586 C618 1.432 . S
C587 H573 0.930 . S
C587 C584 1.407 . S
C587 C585 1.345 . S
C588 N583 1.360 . S
C588 C586 1.417 . S
C588 C592 1.432 . S
H589 C594 0.930 . S
N590 Tb552 2.600 . S
N590 C592 1.359 . S
N590 C593 1.327 . S
C591 H577 0.931 . S
C591 C593 1.392 . S
C591 C594 1.370 . S
C592 C588 1.432 . S
C592 N590 1.359 . S
C592 C595 1.414 . S
C593 H575 0.930 . S
C593 N590 1.327 . S
C593 C591 1.392 . S
C594 H589 0.930 . S
C594 C591 1.370 . S
C594 C595 1.385 . S
C595 C592 1.414 . S
C595 C594 1.385 . S
C595 C617 1.444 . S
O596 Tb552 2.546 . S
O596 C616 1.251 . S
O597 Tb552 2.610 . S
O597 Tb563 2.362 . S
O597 C608 1.283 . S
O598 Tb563 2.421 . S
O598 C615 1.262 . S
O599 Tb552 2.320 . S
O599 C615 1.260 . S
O600 Tb552 2.552 . S
O600 C608 1.243 . S
O601 Tb552 2.413 . S
O601 C616 1.256 . S
O602 Tb563 2.546 . S
O602 C627 1.251 . S
O603 Tb552 2.362 . S
O603 Tb563 2.610 . S
O603 C619 1.283 . S
O604 Tb552 2.421 . S
O604 C626 1.262 . S
O605 Tb563 2.320 . S
O605 C626 1.260 . S
O606 Tb563 2.552 . S
O606 C619 1.243 . S
O607 Tb563 2.413 . S
O607 C627 1.256 . S
C608 O597 1.283 . S
C608 O600 1.243 . S
C609 C611 1.382 . S
C609 C613 1.393 . S
C609 C616 1.500 . S
C610 C611 1.400 . S
C610 C612 1.384 . S
C611 C609 1.382 . S
C611 C610 1.400 . S
C611 H628 0.930 . S
C612 C610 1.384 . S
C612 C614 1.392 . S
C612 H629 0.931 . S
C613 C609 1.393 . S
C613 C614 1.401 . S
C613 H630 0.930 . S
C614 C612 1.392 . S
C614 C613 1.401 . S
C614 H631 0.930 . S
C615 O598 1.262 . S
C615 O599 1.260 . S
C616 Tb552 2.833 . S
C616 O596 1.251 . S
C616 O601 1.256 . S
C616 C609 1.500 . S
C617 H582 0.929 . S
C617 C595 1.444 . S
C617 C618 1.317 . S
C618 H580 0.930 . S
C618 C586 1.432 . S
C618 C617 1.317 . S
C619 O603 1.283 . S
C619 O606 1.243 . S
C620 C621 1.382 . S
C620 C624 1.393 . S
C620 C627 1.500 . S
C621 C620 1.382 . S
C621 C622 1.400 . S
C621 H632 0.930 . S
C622 C621 1.400 . S
C622 C623 1.384 . S
C623 C622 1.384 . S
C623 C625 1.392 . S
C623 H633 0.931 . S
C624 C620 1.393 . S
C624 C625 1.401 . S
C624 H634 0.930 . S
C625 C623 1.392 . S
C625 C624 1.401 . S
C625 H635 0.930 . S
C626 O604 1.262 . S
C626 O605 1.260 . S
C627 Tb563 2.833 . S
C627 O602 1.251 . S
C627 O607 1.256 . S
C627 C620 1.500 . S
H628 C611 0.930 . S
H629 C612 0.931 . S
H630 C613 0.930 . S
H631 C614 0.930 . S
H632 C621 0.930 . S
H633 C623 0.931 . S
H634 C624 0.930 . S
H635 C625 0.930 . S
Tb636 N667 2.660 . S
Tb636 N674 2.600 . S
Tb636 O680 2.546 . S
Tb636 O681 2.610 . S
Tb636 O683 2.320 . S
Tb636 O684 2.552 . S
Tb636 O685 2.413 . S
Tb636 O687 2.362 . S
Tb636 O688 2.421 . S
Tb636 C700 2.833 . S
C637 C640 1.432 . S
C637 C641 1.414 . S
C637 N644 1.359 . S
C638 C640 1.417 . S
C638 C642 1.432 . S
C638 C650 1.410 . S
C639 C641 1.444 . S
C639 C642 1.317 . S
C639 H662 0.929 . S
C640 C637 1.432 . S
C640 C638 1.417 . S
C640 N648 1.360 . S
C641 C637 1.414 . S
C641 C639 1.444 . S
C641 C646 1.385 . S
C642 C638 1.432 . S
C642 C639 1.317 . S
C642 H654 0.930 . S
C643 C645 1.392 . S
C643 C646 1.370 . S
C643 H655 0.931 . S
N644 C637 1.359 . S
N644 C645 1.327 . S
N644 Tb647 2.600 . S
C645 C643 1.392 . S
C645 N644 1.327 . S
C645 H652 0.930 . S
C646 C641 1.385 . S
C646 C643 1.370 . S
C646 H665 0.930 . S
Tb647 N644 2.600 . S
Tb647 N648 2.660 . S
Tb647 O681 2.362 . S
Tb647 O682 2.421 . S
Tb647 O686 2.546 . S
Tb647 O687 2.610 . S
Tb647 O689 2.320 . S
Tb647 O690 2.552 . S
Tb647 O691 2.413 . S
Tb647 C711 2.833 . S
N648 C640 1.360 . S
N648 Tb647 2.660 . S
N648 C649 1.305 . S
C649 N648 1.305 . S
C649 C651 1.407 . S
C649 H656 0.930 . S
C650 C638 1.410 . S
C650 C651 1.345 . S
C650 H658 0.930 . S
C651 C649 1.407 . S
C651 C650 1.345 . S
C651 H653 0.930 . S
H652 C645 0.930 . S
H653 C651 0.930 . S
H654 C642 0.930 . S
H655 C643 0.931 . S
H656 C649 0.930 . S
H657 C671 0.930 . S
H658 C650 0.930 . S
H659 C677 0.930 . S
H660 C668 0.930 . S
H661 C675 0.931 . S
H662 C639 0.929 . S
H663 C669 0.930 . S
H664 C702 0.930 . S
H665 C646 0.930 . S
H666 C701 0.929 . S
N667 Tb636 2.660 . S
N667 C668 1.305 . S
N667 C672 1.360 . S
C668 H660 0.930 . S
C668 N667 1.305 . S
C668 C671 1.407 . S
C669 H663 0.930 . S
C669 C670 1.410 . S
C669 C671 1.345 . S
C670 C669 1.410 . S
C670 C672 1.417 . S
C670 C702 1.432 . S
C671 H657 0.930 . S
C671 C668 1.407 . S
C671 C669 1.345 . S
C672 N667 1.360 . S
C672 C670 1.417 . S
C672 C676 1.432 . S
H673 C678 0.930 . S
N674 Tb636 2.600 . S
N674 C676 1.359 . S
N674 C677 1.327 . S
C675 H661 0.931 . S
C675 C677 1.392 . S
C675 C678 1.370 . S
C676 C672 1.432 . S
C676 N674 1.359 . S
C676 C679 1.414 . S
C677 H659 0.930 . S
C677 N674 1.327 . S
C677 C675 1.392 . S
C678 H673 0.930 . S
C678 C675 1.370 . S
C678 C679 1.385 . S
C679 C676 1.414 . S
C679 C678 1.385 . S
C679 C701 1.444 . S
O680 Tb636 2.546 . S
O680 C700 1.251 . S
O681 Tb636 2.610 . S
O681 Tb647 2.362 . S
O681 C692 1.283 . S
O682 Tb647 2.421 . S
O682 C699 1.262 . S
O683 Tb636 2.320 . S
O683 C699 1.260 . S
O684 Tb636 2.552 . S
O684 C692 1.243 . S
O685 Tb636 2.413 . S
O685 C700 1.256 . S
O686 Tb647 2.546 . S
O686 C711 1.251 . S
O687 Tb636 2.362 . S
O687 Tb647 2.610 . S
O687 C703 1.283 . S
O688 Tb636 2.421 . S
O688 C710 1.262 . S
O689 Tb647 2.320 . S
O689 C710 1.260 . S
O690 Tb647 2.552 . S
O690 C703 1.243 . S
O691 Tb647 2.413 . S
O691 C711 1.256 . S
C692 O681 1.283 . S
C692 O684 1.243 . S
C693 C695 1.382 . S
C693 C697 1.393 . S
C693 C700 1.500 . S
C694 C695 1.400 . S
C694 C696 1.384 . S
C695 C693 1.382 . S
C695 C694 1.400 . S
C695 H712 0.930 . S
C696 C694 1.384 . S
C696 C698 1.392 . S
C696 H713 0.931 . S
C697 C693 1.393 . S
C697 C698 1.401 . S
C697 H714 0.930 . S
C698 C696 1.392 . S
C698 C697 1.401 . S
C698 H715 0.930 . S
C699 O682 1.262 . S
C699 O683 1.260 . S
C700 Tb636 2.833 . S
C700 O680 1.251 . S
C700 O685 1.256 . S
C700 C693 1.500 . S
C701 H666 0.929 . S
C701 C679 1.444 . S
C701 C702 1.317 . S
C702 H664 0.930 . S
C702 C670 1.432 . S
C702 C701 1.317 . S
C703 O687 1.283 . S
C703 O690 1.243 . S
C704 C705 1.382 . S
C704 C708 1.393 . S
C704 C711 1.500 . S
C705 C704 1.382 . S
C705 C706 1.400 . S
C705 H716 0.930 . S
C706 C705 1.400 . S
C706 C707 1.384 . S
C707 C706 1.384 . S
C707 C709 1.392 . S
C707 H717 0.931 . S
C708 C704 1.393 . S
C708 C709 1.401 . S
C708 H718 0.930 . S
C709 C707 1.392 . S
C709 C708 1.401 . S
C709 H719 0.930 . S
C710 O688 1.262 . S
C710 O689 1.260 . S
C711 Tb647 2.833 . S
C711 O686 1.251 . S
C711 O691 1.256 . S
C711 C704 1.500 . S
H712 C695 0.930 . S
H713 C696 0.931 . S
H714 C697 0.930 . S
H715 C698 0.930 . S
H716 C705 0.930 . S
H717 C707 0.931 . S
H718 C708 0.930 . S
H719 C709 0.930 . S
Tb720 N751 2.660 . S
Tb720 N758 2.600 . S
Tb720 O764 2.546 . S
Tb720 O765 2.610 . S
Tb720 O767 2.320 . S
Tb720 O768 2.552 . S
Tb720 O769 2.413 . S
Tb720 O771 2.362 . S
Tb720 O772 2.421 . S
Tb720 C784 2.833 . S
C721 C724 1.432 . S
C721 C725 1.414 . S
C721 N728 1.359 . S
C722 C724 1.417 . S
C722 C726 1.432 . S
C722 C734 1.410 . S
C723 C725 1.444 . S
C723 C726 1.317 . S
C723 H746 0.929 . S
C724 C721 1.432 . S
C724 C722 1.417 . S
C724 N732 1.360 . S
C725 C721 1.414 . S
C725 C723 1.444 . S
C725 C730 1.385 . S
C726 C722 1.432 . S
C726 C723 1.317 . S
C726 H738 0.930 . S
C727 C729 1.392 . S
C727 C730 1.370 . S
C727 H739 0.931 . S
N728 C721 1.359 . S
N728 C729 1.327 . S
N728 Tb731 2.600 . S
C729 C727 1.392 . S
C729 N728 1.327 . S
C729 H736 0.930 . S
C730 C725 1.385 . S
C730 C727 1.370 . S
C730 H749 0.930 . S
Tb731 N728 2.600 . S
Tb731 N732 2.660 . S
Tb731 O765 2.362 . S
Tb731 O766 2.421 . S
Tb731 O770 2.546 . S
Tb731 O771 2.610 . S
Tb731 O773 2.320 . S
Tb731 O774 2.552 . S
Tb731 O775 2.413 . S
Tb731 C795 2.833 . S
N732 C724 1.360 . S
N732 Tb731 2.660 . S
N732 C733 1.305 . S
C733 N732 1.305 . S
C733 C735 1.407 . S
C733 H740 0.930 . S
C734 C722 1.410 . S
C734 C735 1.345 . S
C734 H742 0.930 . S
C735 C733 1.407 . S
C735 C734 1.345 . S
C735 H737 0.930 . S
H736 C729 0.930 . S
H737 C735 0.930 . S
H738 C726 0.930 . S
H739 C727 0.931 . S
H740 C733 0.930 . S
H741 C755 0.930 . S
H742 C734 0.930 . S
H743 C761 0.930 . S
H744 C752 0.930 . S
H745 C759 0.931 . S
H746 C723 0.929 . S
H747 C753 0.930 . S
H748 C786 0.930 . S
H749 C730 0.930 . S
H750 C785 0.929 . S
N751 Tb720 2.660 . S
N751 C752 1.305 . S
N751 C756 1.360 . S
C752 H744 0.930 . S
C752 N751 1.305 . S
C752 C755 1.407 . S
C753 H747 0.930 . S
C753 C754 1.410 . S
C753 C755 1.345 . S
C754 C753 1.410 . S
C754 C756 1.417 . S
C754 C786 1.432 . S
C755 H741 0.930 . S
C755 C752 1.407 . S
C755 C753 1.345 . S
C756 N751 1.360 . S
C756 C754 1.417 . S
C756 C760 1.432 . S
H757 C762 0.930 . S
N758 Tb720 2.600 . S
N758 C760 1.359 . S
N758 C761 1.327 . S
C759 H745 0.931 . S
C759 C761 1.392 . S
C759 C762 1.370 . S
C760 C756 1.432 . S
C760 N758 1.359 . S
C760 C763 1.414 . S
C761 H743 0.930 . S
C761 N758 1.327 . S
C761 C759 1.392 . S
C762 H757 0.930 . S
C762 C759 1.370 . S
C762 C763 1.385 . S
C763 C760 1.414 . S
C763 C762 1.385 . S
C763 C785 1.444 . S
O764 Tb720 2.546 . S
O764 C784 1.251 . S
O765 Tb720 2.610 . S
O765 Tb731 2.362 . S
O765 C776 1.283 . S
O766 Tb731 2.421 . S
O766 C783 1.262 . S
O767 Tb720 2.320 . S
O767 C783 1.260 . S
O768 Tb720 2.552 . S
O768 C776 1.243 . S
O769 Tb720 2.413 . S
O769 C784 1.256 . S
O770 Tb731 2.546 . S
O770 C795 1.251 . S
O771 Tb720 2.362 . S
O771 Tb731 2.610 . S
O771 C787 1.283 . S
O772 Tb720 2.421 . S
O772 C794 1.262 . S
O773 Tb731 2.320 . S
O773 C794 1.260 . S
O774 Tb731 2.552 . S
O774 C787 1.243 . S
O775 Tb731 2.413 . S
O775 C795 1.256 . S
C776 O765 1.283 . S
C776 O768 1.243 . S
C777 C779 1.382 . S
C777 C781 1.393 . S
C777 C784 1.500 . S
C778 C779 1.400 . S
C778 C780 1.384 . S
C779 C777 1.382 . S
C779 C778 1.400 . S
C779 H796 0.930 . S
C780 C778 1.384 . S
C780 C782 1.392 . S
C780 H797 0.931 . S
C781 C777 1.393 . S
C781 C782 1.401 . S
C781 H798 0.930 . S
C782 C780 1.392 . S
C782 C781 1.401 . S
C782 H799 0.930 . S
C783 O766 1.262 . S
C783 O767 1.260 . S
C784 Tb720 2.833 . S
C784 O764 1.251 . S
C784 O769 1.256 . S
C784 C777 1.500 . S
C785 H750 0.929 . S
C785 C763 1.444 . S
C785 C786 1.317 . S
C786 H748 0.930 . S
C786 C754 1.432 . S
C786 C785 1.317 . S
C787 O771 1.283 . S
C787 O774 1.243 . S
C788 C789 1.382 . S
C788 C792 1.393 . S
C788 C795 1.500 . S
C789 C788 1.382 . S
C789 C790 1.400 . S
C789 H800 0.930 . S
C790 C789 1.400 . S
C790 C791 1.384 . S
C791 C790 1.384 . S
C791 C793 1.392 . S
C791 H801 0.931 . S
C792 C788 1.393 . S
C792 C793 1.401 . S
C792 H802 0.930 . S
C793 C791 1.392 . S
C793 C792 1.401 . S
C793 H803 0.930 . S
C794 O772 1.262 . S
C794 O773 1.260 . S
C795 Tb731 2.833 . S
C795 O770 1.251 . S
C795 O775 1.256 . S
C795 C788 1.500 . S
H796 C779 0.930 . S
H797 C780 0.931 . S
H798 C781 0.930 . S
H799 C782 0.930 . S
H800 C789 0.930 . S
H801 C791 0.931 . S
H802 C792 0.930 . S
H803 C793 0.930 . S
Tb804 N835 2.660 . S
Tb804 N842 2.600 . S
Tb804 O848 2.546 . S
Tb804 O849 2.610 . S
Tb804 O851 2.320 . S
Tb804 O852 2.552 . S
Tb804 O853 2.413 . S
Tb804 O855 2.362 . S
Tb804 O856 2.421 . S
Tb804 C868 2.833 . S
C805 C808 1.432 . S
C805 C809 1.414 . S
C805 N812 1.359 . S
C806 C808 1.417 . S
C806 C810 1.432 . S
C806 C818 1.410 . S
C807 C809 1.444 . S
C807 C810 1.317 . S
C807 H830 0.929 . S
C808 C805 1.432 . S
C808 C806 1.417 . S
C808 N816 1.360 . S
C809 C805 1.414 . S
C809 C807 1.444 . S
C809 C814 1.385 . S
C810 C806 1.432 . S
C810 C807 1.317 . S
C810 H822 0.930 . S
C811 C813 1.392 . S
C811 C814 1.370 . S
C811 H823 0.931 . S
N812 C805 1.359 . S
N812 C813 1.327 . S
N812 Tb815 2.600 . S
C813 C811 1.392 . S
C813 N812 1.327 . S
C813 H820 0.930 . S
C814 C809 1.385 . S
C814 C811 1.370 . S
C814 H833 0.930 . S
Tb815 N812 2.600 . S
Tb815 N816 2.660 . S
Tb815 O849 2.362 . S
Tb815 O850 2.421 . S
Tb815 O854 2.546 . S
Tb815 O855 2.610 . S
Tb815 O857 2.320 . S
Tb815 O858 2.552 . S
Tb815 O859 2.413 . S
Tb815 C879 2.833 . S
N816 C808 1.360 . S
N816 Tb815 2.660 . S
N816 C817 1.305 . S
C817 N816 1.305 . S
C817 C819 1.407 . S
C817 H824 0.930 . S
C818 C806 1.410 . S
C818 C819 1.345 . S
C818 H826 0.930 . S
C819 C817 1.407 . S
C819 C818 1.345 . S
C819 H821 0.930 . S
H820 C813 0.930 . S
H821 C819 0.930 . S
H822 C810 0.930 . S
H823 C811 0.931 . S
H824 C817 0.930 . S
H825 C839 0.930 . S
H826 C818 0.930 . S
H827 C845 0.930 . S
H828 C836 0.930 . S
H829 C843 0.931 . S
H830 C807 0.929 . S
H831 C837 0.930 . S
H832 C870 0.930 . S
H833 C814 0.930 . S
H834 C869 0.929 . S
N835 Tb804 2.660 . S
N835 C836 1.305 . S
N835 C840 1.360 . S
C836 H828 0.930 . S
C836 N835 1.305 . S
C836 C839 1.407 . S
C837 H831 0.930 . S
C837 C838 1.410 . S
C837 C839 1.345 . S
C838 C837 1.410 . S
C838 C840 1.417 . S
C838 C870 1.432 . S
C839 H825 0.930 . S
C839 C836 1.407 . S
C839 C837 1.345 . S
C840 N835 1.360 . S
C840 C838 1.417 . S
C840 C844 1.432 . S
H841 C846 0.930 . S
N842 Tb804 2.600 . S
N842 C844 1.359 . S
N842 C845 1.327 . S
C843 H829 0.931 . S
C843 C845 1.392 . S
C843 C846 1.370 . S
C844 C840 1.432 . S
C844 N842 1.359 . S
C844 C847 1.414 . S
C845 H827 0.930 . S
C845 N842 1.327 . S
C845 C843 1.392 . S
C846 H841 0.930 . S
C846 C843 1.370 . S
C846 C847 1.385 . S
C847 C844 1.414 . S
C847 C846 1.385 . S
C847 C869 1.444 . S
O848 Tb804 2.546 . S
O848 C868 1.251 . S
O849 Tb804 2.610 . S
O849 Tb815 2.362 . S
O849 C860 1.283 . S
O850 Tb815 2.421 . S
O850 C867 1.262 . S
O851 Tb804 2.320 . S
O851 C867 1.260 . S
O852 Tb804 2.552 . S
O852 C860 1.243 . S
O853 Tb804 2.413 . S
O853 C868 1.256 . S
O854 Tb815 2.546 . S
O854 C879 1.251 . S
O855 Tb804 2.362 . S
O855 Tb815 2.610 . S
O855 C871 1.283 . S
O856 Tb804 2.421 . S
O856 C878 1.262 . S
O857 Tb815 2.320 . S
O857 C878 1.260 . S
O858 Tb815 2.552 . S
O858 C871 1.243 . S
O859 Tb815 2.413 . S
O859 C879 1.256 . S
C860 O849 1.283 . S
C860 O852 1.243 . S
C861 C863 1.382 . S
C861 C865 1.393 . S
C861 C868 1.500 . S
C862 C863 1.400 . S
C862 C864 1.384 . S
C863 C861 1.382 . S
C863 C862 1.400 . S
C863 H880 0.930 . S
C864 C862 1.384 . S
C864 C866 1.392 . S
C864 H881 0.931 . S
C865 C861 1.393 . S
C865 C866 1.401 . S
C865 H882 0.930 . S
C866 C864 1.392 . S
C866 C865 1.401 . S
C866 H883 0.930 . S
C867 O850 1.262 . S
C867 O851 1.260 . S
C868 Tb804 2.833 . S
C868 O848 1.251 . S
C868 O853 1.256 . S
C868 C861 1.500 . S
C869 H834 0.929 . S
C869 C847 1.444 . S
C869 C870 1.317 . S
C870 H832 0.930 . S
C870 C838 1.432 . S
C870 C869 1.317 . S
C871 O855 1.283 . S
C871 O858 1.243 . S
C872 C873 1.382 . S
C872 C876 1.393 . S
C872 C879 1.500 . S
C873 C872 1.382 . S
C873 C874 1.400 . S
C873 H884 0.930 . S
C874 C873 1.400 . S
C874 C875 1.384 . S
C875 C874 1.384 . S
C875 C877 1.392 . S
C875 H885 0.931 . S
C876 C872 1.393 . S
C876 C877 1.401 . S
C876 H886 0.930 . S
C877 C875 1.392 . S
C877 C876 1.401 . S
C877 H887 0.930 . S
C878 O856 1.262 . S
C878 O857 1.260 . S
C879 Tb815 2.833 . S
C879 O854 1.251 . S
C879 O859 1.256 . S
C879 C872 1.500 . S
H880 C863 0.930 . S
H881 C864 0.931 . S
H882 C865 0.930 . S
H883 C866 0.930 . S
H884 C873 0.930 . S
H885 C875 0.931 . S
H886 C876 0.930 . S
H887 C877 0.930 . S
Tb888 N919 2.660 . S
Tb888 N926 2.600 . S
Tb888 O932 2.546 . S
Tb888 O933 2.610 . S
Tb888 O935 2.320 . S
Tb888 O936 2.552 . S
Tb888 O937 2.413 . S
Tb888 O939 2.362 . S
Tb888 O940 2.421 . S
Tb888 C952 2.833 . S
C889 C892 1.432 . S
C889 C893 1.414 . S
C889 N896 1.359 . S
C890 C892 1.417 . S
C890 C894 1.432 . S
C890 C902 1.410 . S
C891 C893 1.444 . S
C891 C894 1.317 . S
C891 H914 0.929 . S
C892 C889 1.432 . S
C892 C890 1.417 . S
C892 N900 1.360 . S
C893 C889 1.414 . S
C893 C891 1.444 . S
C893 C898 1.385 . S
C894 C890 1.432 . S
C894 C891 1.317 . S
C894 H906 0.930 . S
C895 C897 1.392 . S
C895 C898 1.370 . S
C895 H907 0.931 . S
N896 C889 1.359 . S
N896 C897 1.327 . S
N896 Tb899 2.600 . S
C897 C895 1.392 . S
C897 N896 1.327 . S
C897 H904 0.930 . S
C898 C893 1.385 . S
C898 C895 1.370 . S
C898 H917 0.930 . S
Tb899 N896 2.600 . S
Tb899 N900 2.660 . S
Tb899 O933 2.362 . S
Tb899 O934 2.421 . S
Tb899 O938 2.546 . S
Tb899 O939 2.610 . S
Tb899 O941 2.320 . S
Tb899 O942 2.552 . S
Tb899 O943 2.413 . S
Tb899 C963 2.833 . S
N900 C892 1.360 . S
N900 Tb899 2.660 . S
N900 C901 1.305 . S
C901 N900 1.305 . S
C901 C903 1.407 . S
C901 H908 0.930 . S
C902 C890 1.410 . S
C902 C903 1.345 . S
C902 H910 0.930 . S
C903 C901 1.407 . S
C903 C902 1.345 . S
C903 H905 0.930 . S
H904 C897 0.930 . S
H905 C903 0.930 . S
H906 C894 0.930 . S
H907 C895 0.931 . S
H908 C901 0.930 . S
H909 C923 0.930 . S
H910 C902 0.930 . S
H911 C929 0.930 . S
H912 C920 0.930 . S
H913 C927 0.931 . S
H914 C891 0.929 . S
H915 C921 0.930 1_455 S
H916 C954 0.930 1_455 S
H917 C898 0.930 . S
H918 C953 0.929 . S
N919 Tb888 2.660 . S
N919 C920 1.305 . S
N919 C924 1.360 . S
C920 H912 0.930 . S
C920 N919 1.305 . S
C920 C923 1.407 . S
C921 H915 0.930 1_655 S
C921 C922 1.410 . S
C921 C923 1.345 . S
C922 C921 1.410 . S
C922 C924 1.417 . S
C922 C954 1.432 . S
C923 H909 0.930 . S
C923 C920 1.407 . S
C923 C921 1.345 . S
C924 N919 1.360 . S
C924 C922 1.417 . S
C924 C928 1.432 . S
H925 C930 0.930 . S
N926 Tb888 2.600 . S
N926 C928 1.359 . S
N926 C929 1.327 . S
C927 H913 0.931 . S
C927 C929 1.392 . S
C927 C930 1.370 . S
C928 C924 1.432 . S
C928 N926 1.359 . S
C928 C931 1.414 . S
C929 H911 0.930 . S
C929 N926 1.327 . S
C929 C927 1.392 . S
C930 H925 0.930 . S
C930 C927 1.370 . S
C930 C931 1.385 . S
C931 C928 1.414 . S
C931 C930 1.385 . S
C931 C953 1.444 . S
O932 Tb888 2.546 . S
O932 C952 1.251 . S
O933 Tb888 2.610 . S
O933 Tb899 2.362 . S
O933 C944 1.283 . S
O934 Tb899 2.421 . S
O934 C951 1.262 . S
O935 Tb888 2.320 . S
O935 C951 1.260 . S
O936 Tb888 2.552 . S
O936 C944 1.243 . S
O937 Tb888 2.413 . S
O937 C952 1.256 . S
O938 Tb899 2.546 . S
O938 C963 1.251 . S
O939 Tb888 2.362 . S
O939 Tb899 2.610 . S
O939 C955 1.283 . S
O940 Tb888 2.421 . S
O940 C962 1.262 . S
O941 Tb899 2.320 . S
O941 C962 1.260 . S
O942 Tb899 2.552 . S
O942 C955 1.243 . S
O943 Tb899 2.413 . S
O943 C963 1.256 . S
C944 O933 1.283 . S
C944 O936 1.243 . S
C945 C947 1.382 . S
C945 C949 1.393 . S
C945 C952 1.500 . S
C946 C947 1.400 . S
C946 C948 1.384 . S
C947 C945 1.382 . S
C947 C946 1.400 . S
C947 H964 0.930 . S
C948 C946 1.384 . S
C948 C950 1.392 . S
C948 H965 0.931 . S
C949 C945 1.393 . S
C949 C950 1.401 . S
C949 H966 0.930 . S
C950 C948 1.392 . S
C950 C949 1.401 . S
C950 H967 0.930 . S
C951 O934 1.262 . S
C951 O935 1.260 . S
C952 Tb888 2.833 . S
C952 O932 1.251 . S
C952 O937 1.256 . S
C952 C945 1.500 . S
C953 H918 0.929 . S
C953 C931 1.444 . S
C953 C954 1.317 . S
C954 H916 0.930 1_655 S
C954 C922 1.432 . S
C954 C953 1.317 . S
C955 O939 1.283 . S
C955 O942 1.243 . S
C956 C957 1.382 . S
C956 C960 1.393 . S
C956 C963 1.500 . S
C957 C956 1.382 . S
C957 C958 1.400 . S
C957 H968 0.930 . S
C958 C957 1.400 . S
C958 C959 1.384 . S
C959 C958 1.384 . S
C959 C961 1.392 . S
C959 H969 0.931 . S
C960 C956 1.393 . S
C960 C961 1.401 . S
C960 H970 0.930 . S
C961 C959 1.392 . S
C961 C960 1.401 . S
C961 H971 0.930 . S
C962 O940 1.262 . S
C962 O941 1.260 . S
C963 Tb899 2.833 . S
C963 O938 1.251 . S
C963 O943 1.256 . S
C963 C956 1.500 . S
H964 C947 0.930 . S
H965 C948 0.931 . S
H966 C949 0.930 . S
H967 C950 0.930 . S
H968 C957 0.930 . S
H969 C959 0.931 . S
H970 C960 0.930 . S
H971 C961 0.930 . S
H972 C984 0.930 . S
H973 C986 0.930 . S
H974 C987 0.930 . S
H975 C991 0.959 . S
H976 C991 0.959 . S
H977 C991 0.961 . S
H978 C992 0.960 . S
H979 C992 0.961 . S
H980 C992 0.959 . S
H981 C995 0.929 1_556 S
H982 C996 0.931 1_556 S
H983 C998 0.930 . S
C984 H972 0.930 . S
C984 C985 1.399 . S
C984 C989 1.399 . S
C985 C984 1.399 . S
C985 C986 1.376 . S
C986 H973 0.930 . S
C986 C985 1.376 . S
C986 C987 1.388 . S
C987 H974 0.930 . S
C987 C986 1.388 . S
C987 C988 1.390 . S
C988 C987 1.390 . S
C988 C989 1.394 . S
C988 C994 1.465 . S
C989 C984 1.399 . S
C989 C988 1.394 . S
C989 C990 1.516 . S
C990 C989 1.516 . S
C990 C991 1.502 . S
C990 C992 1.561 . S
C990 C993 1.526 . S
C991 H975 0.959 . S
C991 H976 0.959 . S
C991 H977 0.961 . S
C991 C990 1.502 . S
C992 H978 0.960 . S
C992 H979 0.961 . S
C992 H980 0.959 . S
C992 C990 1.561 . S
C993 C990 1.526 . S
C993 C994 1.396 . S
C993 C998 1.390 . S
C994 C988 1.465 . S
C994 C993 1.396 . S
C994 C995 1.399 . S
C995 H981 0.929 1_554 S
C995 C994 1.399 . S
C995 C996 1.385 . S
C996 H982 0.931 1_554 S
C996 C995 1.385 . S
C996 C997 1.389 . S
C997 C996 1.389 . S
C997 C998 1.387 . S
C998 H983 0.930 . S
C998 C993 1.390 . S
C998 C997 1.387 . S
H999 C1011 0.930 . S
H1000 C1013 0.930 . S
H1001 C1014 0.930 . S
H1002 C1018 0.959 . S
H1003 C1018 0.959 . S
H1004 C1018 0.961 . S
H1005 C1019 0.960 . S
H1006 C1019 0.961 . S
H1007 C1019 0.959 . S
H1008 C1022 0.929 . S
H1009 C1023 0.931 . S
H1010 C1025 0.930 . S
C1011 H999 0.930 . S
C1011 C1012 1.399 . S
C1011 C1016 1.399 . S
C1012 C1011 1.399 . S
C1012 C1013 1.376 . S
C1013 H1000 0.930 . S
C1013 C1012 1.376 . S
C1013 C1014 1.388 . S
C1014 H1001 0.930 . S
C1014 C1013 1.388 . S
C1014 C1015 1.390 . S
C1015 C1014 1.390 . S
C1015 C1016 1.394 . S
C1015 C1021 1.465 . S
C1016 C1011 1.399 . S
C1016 C1015 1.394 . S
C1016 C1017 1.516 . S
C1017 C1016 1.516 . S
C1017 C1018 1.502 . S
C1017 C1019 1.561 . S
C1017 C1020 1.526 . S
C1018 H1002 0.959 . S
C1018 H1003 0.959 . S
C1018 H1004 0.961 . S
C1018 C1017 1.502 . S
C1019 H1005 0.960 . S
C1019 H1006 0.961 . S
C1019 H1007 0.959 . S
C1019 C1017 1.561 . S
C1020 C1017 1.526 . S
C1020 C1021 1.396 . S
C1020 C1025 1.390 . S
C1021 C1015 1.465 . S
C1021 C1020 1.396 . S
C1021 C1022 1.399 . S
C1022 H1008 0.929 . S
C1022 C1021 1.399 . S
C1022 C1023 1.385 . S
C1023 H1009 0.931 . S
C1023 C1022 1.385 . S
C1023 C1024 1.389 . S
C1024 C1023 1.389 . S
C1024 C1025 1.387 . S
C1025 H1010 0.930 . S
C1025 C1020 1.390 . S
C1025 C1024 1.387 . S
H1026 C1038 0.930 . S
H1027 C1040 0.930 . S
H1028 C1041 0.930 . S
H1029 C1045 0.959 . S
H1030 C1045 0.959 . S
H1031 C1045 0.961 . S
H1032 C1046 0.960 . S
H1033 C1046 0.961 . S
H1034 C1046 0.959 . S
H1035 C1049 0.929 . S
H1036 C1050 0.931 . S
H1037 C1052 0.930 . S
C1038 H1026 0.930 . S
C1038 C1039 1.399 . S
C1038 C1043 1.399 . S
C1039 C1038 1.399 . S
C1039 C1040 1.376 . S
C1040 H1027 0.930 . S
C1040 C1039 1.376 . S
C1040 C1041 1.388 . S
C1041 H1028 0.930 . S
C1041 C1040 1.388 . S
C1041 C1042 1.390 . S
C1042 C1041 1.390 . S
C1042 C1043 1.394 . S
C1042 C1048 1.465 . S
C1043 C1038 1.399 . S
C1043 C1042 1.394 . S
C1043 C1044 1.516 . S
C1044 C1043 1.516 . S
C1044 C1045 1.502 . S
C1044 C1046 1.561 . S
C1044 C1047 1.526 . S
C1045 H1029 0.959 . S
C1045 H1030 0.959 . S
C1045 H1031 0.961 . S
C1045 C1044 1.502 . S
C1046 H1032 0.960 . S
C1046 H1033 0.961 . S
C1046 H1034 0.959 . S
C1046 C1044 1.561 . S
C1047 C1044 1.526 . S
C1047 C1048 1.396 . S
C1047 C1052 1.390 . S
C1048 C1042 1.465 . S
C1048 C1047 1.396 . S
C1048 C1049 1.399 . S
C1049 H1035 0.929 . S
C1049 C1048 1.399 . S
C1049 C1050 1.385 . S
C1050 H1036 0.931 . S
C1050 C1049 1.385 . S
C1050 C1051 1.389 . S
C1051 C1050 1.389 . S
C1051 C1052 1.387 . S
C1052 H1037 0.930 . S
C1052 C1047 1.390 . S
C1052 C1051 1.387 . S
H1053 C1065 0.930 . S
H1054 C1067 0.930 . S
H1055 C1068 0.930 . S
H1056 C1072 0.959 1_556 S
H1057 C1072 0.959 . S
H1058 C1072 0.961 . S
H1059 C1073 0.960 . S
H1060 C1073 0.961 . S
H1061 C1073 0.959 . S
H1062 C1076 0.929 . S
H1063 C1077 0.931 . S
H1064 C1079 0.930 . S
C1065 H1053 0.930 . S
C1065 C1066 1.399 . S
C1065 C1070 1.399 . S
C1066 C1065 1.399 . S
C1066 C1067 1.376 . S
C1067 H1054 0.930 . S
C1067 C1066 1.376 . S
C1067 C1068 1.388 . S
C1068 H1055 0.930 . S
C1068 C1067 1.388 . S
C1068 C1069 1.390 . S
C1069 C1068 1.390 . S
C1069 C1070 1.394 . S
C1069 C1075 1.465 . S
C1070 C1065 1.399 . S
C1070 C1069 1.394 . S
C1070 C1071 1.522 . S
C1071 C1070 1.522 . S
C1071 C1072 1.500 1_556 S
C1071 C1073 1.555 1_556 S
C1071 C1074 1.528 . S
C1072 H1056 0.959 1_554 S
C1072 H1057 0.959 . S
C1072 H1058 0.961 . S
C1072 C1071 1.500 1_554 S
C1073 H1059 0.960 . S
C1073 H1060 0.961 . S
C1073 H1061 0.959 . S
C1073 C1071 1.555 1_554 S
C1074 C1071 1.528 . S
C1074 C1075 1.396 . S
C1074 C1079 1.390 1_556 S
C1075 C1069 1.465 . S
C1075 C1074 1.396 . S
C1075 C1076 1.399 . S
C1076 H1062 0.929 . S
C1076 C1075 1.399 . S
C1076 C1077 1.385 . S
C1077 H1063 0.931 . S
C1077 C1076 1.385 . S
C1077 C1078 1.389 . S
C1078 C1077 1.389 . S
C1078 C1079 1.387 1_556 S
C1079 H1064 0.930 . S
C1079 C1074 1.390 1_554 S
C1079 C1078 1.387 1_554 S
H1080 C1092 0.930 . S
H1081 C1094 0.930 . S
H1082 C1095 0.930 . S
H1083 C1099 0.959 . S
H1084 C1099 0.959 . S
H1085 C1099 0.961 . S
H1086 C1100 0.960 . S
H1087 C1100 0.961 . S
H1088 C1100 0.959 . S
H1089 C1103 0.929 1_554 S
H1090 C1104 0.931 . S
H1091 C1106 0.930 . S
C1092 H1080 0.930 . S
C1092 C1093 1.399 . S
C1092 C1097 1.399 . S
C1093 C1092 1.399 . S
C1093 C1094 1.376 . S
C1094 H1081 0.930 . S
C1094 C1093 1.376 . S
C1094 C1095 1.388 . S
C1095 H1082 0.930 . S
C1095 C1094 1.388 . S
C1095 C1096 1.390 . S
C1096 C1095 1.390 . S
C1096 C1097 1.394 . S
C1096 C1102 1.465 . S
C1097 C1092 1.399 . S
C1097 C1096 1.394 . S
C1097 C1098 1.516 . S
C1098 C1097 1.516 . S
C1098 C1099 1.502 . S
C1098 C1100 1.561 . S
C1098 C1101 1.526 . S
C1099 H1083 0.959 . S
C1099 H1084 0.959 . S
C1099 H1085 0.961 . S
C1099 C1098 1.502 . S
C1100 H1086 0.960 . S
C1100 H1087 0.961 . S
C1100 H1088 0.959 . S
C1100 C1098 1.561 . S
C1101 C1098 1.526 . S
C1101 C1102 1.396 . S
C1101 C1106 1.390 . S
C1102 C1096 1.465 . S
C1102 C1101 1.396 . S
C1102 C1103 1.399 . S
C1103 H1089 0.929 1_556 S
C1103 C1102 1.399 . S
C1103 C1104 1.385 1_556 S
C1104 H1090 0.931 . S
C1104 C1103 1.385 1_554 S
C1104 C1105 1.389 1_554 S
C1105 C1104 1.389 1_556 S
C1105 C1106 1.387 . S
C1106 H1091 0.930 . S
C1106 C1101 1.390 . S
C1106 C1105 1.387 . S
H1107 C1119 0.930 . S
H1108 C1121 0.930 . S
H1109 C1122 0.930 . S
H1110 C1126 0.959 . S
H1111 C1126 0.959 . S
H1112 C1126 0.961 . S
H1113 C1127 0.960 . S
H1114 C1127 0.961 1_554 S
H1115 C1127 0.959 . S
H1116 C1130 0.929 . S
H1117 C1131 0.931 . S
H1118 C1133 0.930 . S
C1119 H1107 0.930 . S
C1119 C1120 1.399 . S
C1119 C1124 1.399 . S
C1120 C1119 1.399 . S
C1120 C1121 1.376 . S
C1121 H1108 0.930 . S
C1121 C1120 1.376 . S
C1121 C1122 1.388 . S
C1122 H1109 0.930 . S
C1122 C1121 1.388 . S
C1122 C1123 1.390 . S
C1123 C1122 1.390 . S
C1123 C1124 1.394 . S
C1123 C1129 1.465 . S
C1124 C1119 1.399 . S
C1124 C1123 1.394 . S
C1124 C1125 1.516 . S
C1125 C1124 1.516 . S
C1125 C1126 1.502 1_556 S
C1125 C1127 1.561 . S
C1125 C1128 1.526 . S
C1126 H1110 0.959 . S
C1126 H1111 0.959 . S
C1126 H1112 0.961 . S
C1126 C1125 1.502 1_554 S
C1127 H1113 0.960 . S
C1127 H1114 0.961 1_556 S
C1127 H1115 0.959 . S
C1127 C1125 1.561 . S
C1128 C1125 1.526 . S
C1128 C1129 1.396 . S
C1128 C1133 1.390 1_556 S
C1129 C1123 1.465 . S
C1129 C1128 1.396 . S
C1129 C1130 1.399 . S
C1130 H1116 0.929 . S
C1130 C1129 1.399 . S
C1130 C1131 1.385 . S
C1131 H1117 0.931 . S
C1131 C1130 1.385 . S
C1131 C1132 1.389 . S
C1132 C1131 1.389 . S
C1132 C1133 1.387 1_556 S
C1133 H1118 0.930 . S
C1133 C1128 1.390 1_554 S
C1133 C1132 1.387 1_554 S
H1134 C1146 0.930 . S
H1135 C1148 0.918 1_554 S
H1136 C1149 0.930 . S
H1137 C1153 0.959 . S
H1138 C1153 0.959 . S
H1139 C1153 0.961 . S
H1140 C1154 0.960 . S
H1141 C1154 0.961 . S
H1142 C1154 0.959 . S
H1143 C1157 0.929 . S
H1144 C1158 0.931 . S
H1145 C1160 0.930 . S
C1146 H1134 0.930 . S
C1146 C1147 1.399 . S
C1146 C1151 1.399 . S
C1147 C1146 1.399 . S
C1147 C1148 1.376 . S
C1148 H1135 0.918 1_556 S
C1148 C1147 1.376 . S
C1148 C1149 1.388 1_556 S
C1149 H1136 0.930 . S
C1149 C1148 1.388 1_554 S
C1149 C1150 1.390 1_554 S
C1150 C1149 1.390 1_556 S
C1150 C1151 1.394 . S
C1150 C1156 1.465 . S
C1151 C1146 1.399 . S
C1151 C1150 1.394 . S
C1151 C1152 1.516 . S
C1152 C1151 1.516 . S
C1152 C1153 1.502 . S
C1152 C1154 1.561 . S
C1152 C1155 1.526 . S
C1153 H1137 0.959 . S
C1153 H1138 0.959 . S
C1153 H1139 0.961 . S
C1153 C1152 1.502 . S
C1154 H1140 0.960 . S
C1154 H1141 0.961 . S
C1154 H1142 0.959 . S
C1154 C1152 1.561 . S
C1155 C1152 1.526 . S
C1155 C1156 1.396 . S
C1155 C1160 1.390 . S
C1156 C1150 1.465 . S
C1156 C1155 1.396 . S
C1156 C1157 1.399 1_556 S
C1157 H1143 0.929 . S
C1157 C1156 1.399 1_554 S
C1157 C1158 1.385 . S
C1158 H1144 0.931 . S
C1158 C1157 1.385 . S
C1158 C1159 1.389 1_554 S
C1159 C1158 1.389 1_556 S
C1159 C1160 1.387 . S
C1160 H1145 0.930 . S
C1160 C1155 1.390 . S
C1160 C1159 1.387 . S
H1161 C1173 0.930 . S
H1162 C1175 0.930 . S
H1163 C1176 0.930 . S
H1164 C1180 0.959 . S
H1165 C1180 0.959 1_554 S
H1166 C1180 0.961 . S
H1167 C1181 0.960 . S
H1168 C1181 0.961 . S
H1169 C1181 0.959 . S
H1170 C1184 0.929 . S
H1171 C1185 0.931 . S
H1172 C1187 0.930 1_554 S
C1173 H1161 0.930 . S
C1173 C1174 1.399 . S
C1173 C1178 1.399 . S
C1174 C1173 1.399 . S
C1174 C1175 1.376 . S
C1175 H1162 0.930 . S
C1175 C1174 1.376 . S
C1175 C1176 1.388 . S
C1176 H1163 0.930 . S
C1176 C1175 1.388 . S
C1176 C1177 1.390 . S
C1177 C1176 1.390 . S
C1177 C1178 1.394 . S
C1177 C1183 1.465 . S
C1178 C1173 1.399 . S
C1178 C1177 1.394 . S
C1178 C1179 1.516 . S
C1179 C1178 1.516 . S
C1179 C1180 1.502 . S
C1179 C1181 1.561 1_556 S
C1179 C1182 1.526 . S
C1180 H1164 0.959 . S
C1180 H1165 0.959 1_556 S
C1180 H1166 0.961 . S
C1180 C1179 1.502 . S
C1181 H1167 0.960 . S
C1181 H1168 0.961 . S
C1181 H1169 0.959 . S
C1181 C1179 1.561 1_554 S
C1182 C1179 1.526 . S
C1182 C1183 1.396 . S
C1182 C1187 1.390 . S
C1183 C1177 1.465 . S
C1183 C1182 1.396 . S
C1183 C1184 1.399 . S
C1184 H1170 0.929 . S
C1184 C1183 1.399 . S
C1184 C1185 1.385 . S
C1185 H1171 0.931 . S
C1185 C1184 1.385 . S
C1185 C1186 1.389 . S
C1186 C1185 1.389 . S
C1186 C1187 1.387 . S
C1187 H1172 0.930 1_556 S
C1187 C1182 1.390 . S
C1187 C1186 1.387 . S
H1188 C1200 0.897 1_554 S
H1189 C1202 0.930 . S
H1190 C1203 0.930 . S
H1191 C1207 0.959 . S
H1192 C1207 0.959 . S
H1193 C1207 0.961 . S
H1194 C1208 0.960 . S
H1195 C1208 0.961 . S
H1196 C1208 0.959 . S
H1197 C1211 0.929 . S
H1198 C1212 0.931 . S
H1199 C1214 0.930 . S
C1200 H1188 0.897 1_556 S
C1200 C1201 1.399 . S
C1200 C1205 1.399 . S
C1201 C1200 1.399 . S
C1201 C1202 1.376 . S
C1202 H1189 0.930 . S
C1202 C1201 1.376 . S
C1202 C1203 1.388 . S
C1203 H1190 0.930 . S
C1203 C1202 1.388 . S
C1203 C1204 1.390 . S
C1204 C1203 1.390 . S
C1204 C1205 1.394 . S
C1204 C1210 1.465 . S
C1205 C1200 1.399 . S
C1205 C1204 1.394 . S
C1205 C1206 1.516 1_556 S
C1206 C1205 1.516 1_554 S
C1206 C1207 1.502 . S
C1206 C1208 1.561 . S
C1206 C1209 1.526 1_554 S
C1207 H1191 0.959 . S
C1207 H1192 0.959 . S
C1207 H1193 0.961 . S
C1207 C1206 1.502 . S
C1208 H1194 0.960 . S
C1208 H1195 0.961 . S
C1208 H1196 0.959 . S
C1208 C1206 1.561 . S
C1209 C1206 1.526 1_556 S
C1209 C1210 1.396 . S
C1209 C1214 1.390 1_556 S
C1210 C1204 1.465 . S
C1210 C1209 1.396 . S
C1210 C1211 1.399 . S
C1211 H1197 0.929 . S
C1211 C1210 1.399 . S
C1211 C1212 1.385 . S
C1212 H1198 0.931 . S
C1212 C1211 1.385 . S
C1212 C1213 1.389 . S
C1213 C1212 1.389 . S
C1213 C1214 1.387 1_556 S
C1214 H1199 0.930 . S
C1214 C1209 1.390 1_554 S
C1214 C1213 1.387 1_554 S
H1215 C1227 0.930 . S
H1216 C1229 0.930 . S
H1217 C1230 0.930 . S
H1218 C1234 0.959 . S
H1219 C1234 0.959 . S
H1220 C1234 0.961 . S
H1221 C1235 0.960 . S
H1222 C1235 0.961 . S
H1223 C1235 0.959 . S
H1224 C1238 0.929 1_556 S
H1225 C1239 0.931 1_556 S
H1226 C1241 0.930 . S
C1227 H1215 0.930 . S
C1227 C1228 1.399 . S
C1227 C1232 1.399 . S
C1228 C1227 1.399 . S
C1228 C1229 1.376 . S
C1229 H1216 0.930 . S
C1229 C1228 1.376 . S
C1229 C1230 1.388 . S
C1230 H1217 0.930 . S
C1230 C1229 1.388 . S
C1230 C1231 1.390 . S
C1231 C1230 1.390 . S
C1231 C1232 1.394 . S
C1231 C1237 1.465 . S
C1232 C1227 1.399 . S
C1232 C1231 1.394 . S
C1232 C1233 1.516 . S
C1233 C1232 1.516 . S
C1233 C1234 1.502 . S
C1233 C1235 1.561 . S
C1233 C1236 1.526 . S
C1234 H1218 0.959 . S
C1234 H1219 0.959 . S
C1234 H1220 0.961 . S
C1234 C1233 1.502 . S
C1235 H1221 0.960 . S
C1235 H1222 0.961 . S
C1235 H1223 0.959 . S
C1235 C1233 1.561 . S
C1236 C1233 1.526 . S
C1236 C1237 1.396 . S
C1236 C1241 1.390 . S
C1237 C1231 1.465 . S
C1237 C1236 1.396 . S
C1237 C1238 1.399 . S
C1238 H1224 0.929 1_554 S
C1238 C1237 1.399 . S
C1238 C1239 1.385 . S
C1239 H1225 0.931 1_554 S
C1239 C1238 1.385 . S
C1239 C1240 1.389 . S
C1240 C1239 1.389 . S
C1240 C1241 1.387 . S
C1241 H1226 0.930 . S
C1241 C1236 1.390 . S
C1241 C1240 1.387 . S
H1242 C1254 0.930 . S
H1243 C1256 0.930 . S
H1244 C1257 0.930 . S
H1245 C1261 0.959 . S
H1246 C1261 0.959 1_556 S
H1247 C1261 0.966 . S
H1248 C1262 0.960 . S
H1249 C1262 0.961 1_556 S
H1250 C1262 0.959 . S
H1251 C1265 0.929 . S
H1252 C1266 0.931 . S
H1253 C1268 0.930 . S
C1254 H1242 0.930 . S
C1254 C1255 1.399 . S
C1254 C1259 1.399 . S
C1255 C1254 1.399 . S
C1255 C1256 1.376 . S
C1256 H1243 0.930 . S
C1256 C1255 1.376 . S
C1256 C1257 1.388 . S
C1257 H1244 0.930 . S
C1257 C1256 1.388 . S
C1257 C1258 1.390 . S
C1258 C1257 1.390 . S
C1258 C1259 1.394 . S
C1258 C1264 1.465 . S
C1259 C1254 1.399 . S
C1259 C1258 1.394 . S
C1259 C1260 1.516 . S
C1260 C1259 1.516 . S
C1260 C1261 1.502 . S
C1260 C1262 1.561 . S
C1260 C1263 1.526 . S
C1261 H1245 0.959 . S
C1261 H1246 0.959 1_554 S
C1261 H1247 0.966 . S
C1261 C1260 1.502 . S
C1262 H1248 0.960 . S
C1262 H1249 0.961 1_554 S
C1262 H1250 0.959 . S
C1262 C1260 1.561 . S
C1263 C1260 1.526 . S
C1263 C1264 1.396 . S
C1263 C1268 1.390 . S
C1264 C1258 1.465 . S
C1264 C1263 1.396 . S
C1264 C1265 1.399 . S
C1265 H1251 0.929 . S
C1265 C1264 1.399 . S
C1265 C1266 1.385 . S
C1266 H1252 0.931 . S
C1266 C1265 1.385 . S
C1266 C1267 1.389 . S
C1267 C1266 1.389 . S
C1267 C1268 1.387 . S
C1268 H1253 0.930 . S
C1268 C1263 1.390 . S
C1268 C1267 1.387 . S
H1269 C1281 0.930 . S
H1270 C1283 0.930 . S
H1271 C1284 0.930 . S
H1272 C1288 0.959 . S
H1273 C1288 0.959 . S
H1274 C1288 0.961 . S
H1275 C1289 0.960 . S
H1276 C1289 0.961 . S
H1277 C1289 0.959 . S
H1278 C1292 0.929 . S
H1279 C1293 0.931 . S
H1280 C1295 0.930 . S
C1281 H1269 0.930 . S
C1281 C1282 1.399 . S
C1281 C1286 1.399 . S
C1282 C1281 1.399 . S
C1282 C1283 1.376 . S
C1283 H1270 0.930 . S
C1283 C1282 1.376 . S
C1283 C1284 1.388 . S
C1284 H1271 0.930 . S
C1284 C1283 1.388 . S
C1284 C1285 1.390 . S
C1285 C1284 1.390 . S
C1285 C1286 1.394 . S
C1285 C1291 1.465 . S
C1286 C1281 1.399 . S
C1286 C1285 1.394 . S
C1286 C1287 1.516 . S
C1287 C1286 1.516 . S
C1287 C1288 1.502 . S
C1287 C1289 1.561 . S
C1287 C1290 1.526 . S
C1288 H1272 0.959 . S
C1288 H1273 0.959 . S
C1288 H1274 0.961 . S
C1288 C1287 1.502 . S
C1289 H1275 0.960 . S
C1289 H1276 0.961 . S
C1289 H1277 0.959 . S
C1289 C1287 1.561 . S
C1290 C1287 1.526 . S
C1290 C1291 1.396 . S
C1290 C1295 1.390 . S
C1291 C1285 1.465 . S
C1291 C1290 1.396 . S
C1291 C1292 1.399 . S
C1292 H1278 0.929 . S
C1292 C1291 1.399 . S
C1292 C1293 1.385 . S
C1293 H1279 0.931 . S
C1293 C1292 1.385 . S
C1293 C1294 1.389 . S
C1294 C1293 1.389 . S
C1294 C1295 1.387 . S
C1295 H1280 0.930 . S
C1295 C1290 1.390 . S
C1295 C1294 1.387 . S
H1296 C1308 0.930 . S
H1297 C1310 0.930 . S
H1298 C1311 0.930 . S
H1299 C1315 0.959 . S
H1300 C1315 0.959 . S
H1301 C1315 0.961 . S
H1302 C1316 0.960 . S
H1303 C1316 0.961 . S
H1304 C1316 0.959 . S
H1305 C1319 0.929 . S
H1306 C1320 0.931 . S
H1307 C1322 0.930 . S
C1308 H1296 0.930 . S
C1308 C1309 1.399 . S
C1308 C1313 1.399 . S
C1309 C1308 1.399 . S
C1309 C1310 1.376 . S
C1310 H1297 0.930 . S
C1310 C1309 1.376 . S
C1310 C1311 1.388 . S
C1311 H1298 0.930 . S
C1311 C1310 1.388 . S
C1311 C1312 1.390 . S
C1312 C1311 1.390 . S
C1312 C1313 1.394 . S
C1312 C1318 1.465 1_655 S
C1313 C1308 1.399 . S
C1313 C1312 1.394 . S
C1313 C1314 1.516 1_655 S
C1314 C1313 1.516 1_455 S
C1314 C1315 1.502 . S
C1314 C1316 1.561 . S
C1314 C1317 1.526 . S
C1315 H1299 0.959 . S
C1315 H1300 0.959 . S
C1315 H1301 0.961 . S
C1315 C1314 1.502 . S
C1316 H1302 0.960 . S
C1316 H1303 0.961 . S
C1316 H1304 0.959 . S
C1316 C1314 1.561 . S
C1317 C1314 1.526 . S
C1317 C1318 1.396 . S
C1317 C1322 1.390 . S
C1318 C1312 1.465 1_455 S
C1318 C1317 1.396 . S
C1318 C1319 1.399 . S
C1319 H1305 0.929 . S
C1319 C1318 1.399 . S
C1319 C1320 1.385 . S
C1320 H1306 0.931 . S
C1320 C1319 1.385 . S
C1320 C1321 1.389 . S
C1321 C1320 1.389 . S
C1321 C1322 1.387 . S
C1322 H1307 0.930 . S
C1322 C1317 1.390 . S
C1322 C1321 1.387 . S
H1323 C1335 0.930 . S
H1324 C1337 0.930 . S
H1325 C1338 0.930 . S
H1326 C1342 0.959 . S
H1327 C1342 0.959 . S
H1328 C1342 0.961 . S
H1329 C1343 0.960 . S
H1330 C1343 0.961 . S
H1331 C1343 0.959 . S
H1332 C1346 0.929 . S
H1333 C1347 0.931 . S
H1334 C1349 0.930 . S
C1335 H1323 0.930 . S
C1335 C1336 1.399 . S
C1335 C1340 1.399 . S
C1336 C1335 1.399 . S
C1336 C1337 1.376 . S
C1337 H1324 0.930 . S
C1337 C1336 1.376 . S
C1337 C1338 1.388 . S
C1338 H1325 0.930 . S
C1338 C1337 1.388 . S
C1338 C1339 1.390 . S
C1339 C1338 1.390 . S
C1339 C1340 1.394 . S
C1339 C1345 1.465 . S
C1340 C1335 1.399 . S
C1340 C1339 1.394 . S
C1340 C1341 1.516 . S
C1341 C1340 1.516 . S
C1341 C1342 1.502 . S
C1341 C1343 1.561 . S
C1341 C1344 1.526 . S
C1342 H1326 0.959 . S
C1342 H1327 0.959 . S
C1342 H1328 0.961 . S
C1342 C1341 1.502 . S
C1343 H1329 0.960 . S
C1343 H1330 0.961 . S
C1343 H1331 0.959 . S
C1343 C1341 1.561 . S
C1344 C1341 1.526 . S
C1344 C1345 1.396 . S
C1344 C1349 1.390 . S
C1345 C1339 1.465 . S
C1345 C1344 1.396 . S
C1345 C1346 1.399 . S
C1346 H1332 0.929 . S
C1346 C1345 1.399 . S
C1346 C1347 1.385 . S
C1347 H1333 0.931 . S
C1347 C1346 1.385 . S
C1347 C1348 1.389 . S
C1348 C1347 1.389 . S
C1348 C1349 1.387 . S
C1349 H1334 0.930 . S
C1349 C1344 1.390 . S
C1349 C1348 1.387 . S
H1350 C1362 0.930 . S
H1351 C1364 0.930 . S
H1352 C1365 0.930 . S
H1353 C1369 0.959 . S
H1354 C1369 0.959 . S
H1355 C1369 0.961 . S
H1356 C1370 0.960 . S
H1357 C1370 0.961 . S
H1358 C1370 0.959 . S
H1359 C1373 0.929 . S
H1360 C1374 0.931 . S
H1361 C1376 0.930 . S
C1362 H1350 0.930 . S
C1362 C1363 1.399 . S
C1362 C1367 1.399 . S
C1363 C1362 1.399 . S
C1363 C1364 1.376 . S
C1364 H1351 0.930 . S
C1364 C1363 1.376 . S
C1364 C1365 1.388 . S
C1365 H1352 0.930 . S
C1365 C1364 1.388 . S
C1365 C1366 1.390 . S
C1366 C1365 1.390 . S
C1366 C1367 1.394 . S
C1366 C1372 1.465 1_545 S
C1367 C1362 1.399 . S
C1367 C1366 1.394 . S
C1367 C1368 1.516 . S
C1368 C1367 1.516 . S
C1368 C1369 1.502 . S
C1368 C1370 1.561 . S
C1368 C1371 1.526 1_545 S
C1369 H1353 0.959 . S
C1369 H1354 0.959 . S
C1369 H1355 0.961 . S
C1369 C1368 1.502 . S
C1370 H1356 0.960 . S
C1370 H1357 0.961 . S
C1370 H1358 0.959 . S
C1370 C1368 1.561 . S
C1371 C1368 1.526 1_565 S
C1371 C1372 1.396 . S
C1371 C1376 1.390 . S
C1372 C1366 1.465 1_565 S
C1372 C1371 1.396 . S
C1372 C1373 1.399 . S
C1373 H1359 0.929 . S
C1373 C1372 1.399 . S
C1373 C1374 1.385 . S
C1374 H1360 0.931 . S
C1374 C1373 1.385 . S
C1374 C1375 1.389 . S
C1375 C1374 1.389 . S
C1375 C1376 1.387 . S
C1376 H1361 0.930 . S
C1376 C1371 1.390 . S
C1376 C1375 1.387 . S
H1377 C1389 0.930 . S
H1378 C1391 0.930 . S
H1379 C1392 0.930 . S
H1380 C1396 0.959 . S
H1381 C1396 0.959 . S
H1382 C1396 0.961 . S
H1383 C1397 0.960 . S
H1384 C1397 0.961 . S
H1385 C1397 0.959 . S
H1386 C1400 0.929 . S
H1387 C1401 0.931 . S
H1388 C1403 0.930 . S
C1389 H1377 0.930 . S
C1389 C1390 1.399 . S
C1389 C1394 1.399 . S
C1390 C1389 1.399 . S
C1390 C1391 1.376 . S
C1391 H1378 0.930 . S
C1391 C1390 1.376 . S
C1391 C1392 1.388 . S
C1392 H1379 0.930 . S
C1392 C1391 1.388 . S
C1392 C1393 1.390 . S
C1393 C1392 1.390 . S
C1393 C1394 1.394 . S
C1393 C1399 1.465 . S
C1394 C1389 1.399 . S
C1394 C1393 1.394 . S
C1394 C1395 1.516 . S
C1395 C1394 1.516 . S
C1395 C1396 1.502 . S
C1395 C1397 1.561 . S
C1395 C1398 1.526 . S
C1396 H1380 0.959 . S
C1396 H1381 0.959 . S
C1396 H1382 0.961 . S
C1396 C1395 1.502 . S
C1397 H1383 0.960 . S
C1397 H1384 0.961 . S
C1397 H1385 0.959 . S
C1397 C1395 1.561 . S
C1398 C1395 1.526 . S
C1398 C1399 1.396 . S
C1398 C1403 1.390 . S
C1399 C1393 1.465 . S
C1399 C1398 1.396 . S
C1399 C1400 1.399 . S
C1400 H1386 0.929 . S
C1400 C1399 1.399 . S
C1400 C1401 1.385 . S
C1401 H1387 0.931 . S
C1401 C1400 1.385 . S
C1401 C1402 1.389 . S
C1402 C1401 1.389 . S
C1402 C1403 1.387 . S
C1403 H1388 0.930 . S
C1403 C1398 1.390 . S
C1403 C1402 1.387 . S
H1404 C1416 0.930 . S
H1405 C1418 0.930 . S
H1406 C1419 0.930 . S
H1407 C1423 0.959 . S
H1408 C1423 0.959 . S
H1409 C1423 0.961 . S
H1410 C1424 0.960 . S
H1411 C1424 0.961 . S
H1412 C1424 0.959 . S
H1413 C1427 0.929 . S
H1414 C1428 0.931 . S
H1415 C1430 0.930 . S
C1416 H1404 0.930 . S
C1416 C1417 1.399 . S
C1416 C1421 1.399 . S
C1417 C1416 1.399 . S
C1417 C1418 1.376 . S
C1418 H1405 0.930 . S
C1418 C1417 1.376 . S
C1418 C1419 1.388 . S
C1419 H1406 0.930 . S
C1419 C1418 1.388 . S
C1419 C1420 1.390 . S
C1420 C1419 1.390 . S
C1420 C1421 1.394 . S
C1420 C1426 1.465 . S
C1421 C1416 1.399 . S
C1421 C1420 1.394 . S
C1421 C1422 1.516 . S
C1422 C1421 1.516 . S
C1422 C1423 1.502 . S
C1422 C1424 1.561 . S
C1422 C1425 1.526 . S
C1423 H1407 0.959 . S
C1423 H1408 0.959 . S
C1423 H1409 0.961 . S
C1423 C1422 1.502 . S
C1424 H1410 0.960 . S
C1424 H1411 0.961 . S
C1424 H1412 0.959 . S
C1424 C1422 1.561 . S
C1425 C1422 1.526 . S
C1425 C1426 1.396 . S
C1425 C1430 1.390 . S
C1426 C1420 1.465 . S
C1426 C1425 1.396 . S
C1426 C1427 1.399 . S
C1427 H1413 0.929 . S
C1427 C1426 1.399 . S
C1427 C1428 1.385 . S
C1428 H1414 0.931 . S
C1428 C1427 1.385 . S
C1428 C1429 1.389 . S
C1429 C1428 1.389 . S
C1429 C1430 1.387 . S
C1430 H1415 0.930 . S
C1430 C1425 1.390 . S
C1430 C1429 1.387 . S
H1431 C1443 0.930 . S
H1432 C1445 0.930 . S
H1433 C1446 0.930 . S
H1434 C1450 0.959 . S
H1435 C1450 0.959 . S
H1436 C1450 0.961 . S
H1437 C1451 0.960 . S
H1438 C1451 0.961 . S
H1439 C1451 0.959 . S
H1440 C1454 0.929 . S
H1441 C1455 0.931 . S
H1442 C1457 0.930 . S
C1443 H1431 0.930 . S
C1443 C1444 1.399 . S
C1443 C1448 1.399 . S
C1444 C1443 1.399 . S
C1444 C1445 1.376 . S
C1445 H1432 0.930 . S
C1445 C1444 1.376 . S
C1445 C1446 1.388 . S
C1446 H1433 0.930 . S
C1446 C1445 1.388 . S
C1446 C1447 1.390 . S
C1447 C1446 1.390 . S
C1447 C1448 1.394 . S
C1447 C1453 1.465 . S
C1448 C1443 1.399 . S
C1448 C1447 1.394 . S
C1448 C1449 1.516 . S
C1449 C1448 1.516 . S
C1449 C1450 1.502 . S
C1449 C1451 1.561 . S
C1449 C1452 1.526 . S
C1450 H1434 0.959 . S
C1450 H1435 0.959 . S
C1450 H1436 0.961 . S
C1450 C1449 1.502 . S
C1451 H1437 0.960 . S
C1451 H1438 0.961 . S
C1451 H1439 0.959 . S
C1451 C1449 1.561 . S
C1452 C1449 1.526 . S
C1452 C1453 1.396 . S
C1452 C1457 1.390 . S
C1453 C1447 1.465 . S
C1453 C1452 1.396 . S
C1453 C1454 1.399 . S
C1454 H1440 0.929 . S
C1454 C1453 1.399 . S
C1454 C1455 1.385 . S
C1455 H1441 0.931 . S
C1455 C1454 1.385 . S
C1455 C1456 1.389 . S
C1456 C1455 1.389 . S
C1456 C1457 1.387 . S
C1457 H1442 0.930 . S
C1457 C1452 1.390 . S
C1457 C1456 1.387 . S
H1458 C1470 0.930 . S
H1459 C1472 0.930 . S
H1460 C1473 0.930 . S
H1461 C1477 0.959 . S
H1462 C1477 0.959 . S
H1463 C1477 0.961 . S
H1464 C1478 0.960 . S
H1465 C1478 0.961 . S
H1466 C1478 0.959 . S
H1467 C1481 0.929 . S
H1468 C1482 0.931 . S
H1469 C1484 0.930 . S
C1470 H1458 0.930 . S
C1470 C1471 1.399 . S
C1470 C1475 1.399 . S
C1471 C1470 1.399 . S
C1471 C1472 1.376 . S
C1472 H1459 0.930 . S
C1472 C1471 1.376 . S
C1472 C1473 1.388 . S
C1473 H1460 0.930 . S
C1473 C1472 1.388 . S
C1473 C1474 1.390 . S
C1474 C1473 1.390 . S
C1474 C1475 1.394 . S
C1474 C1480 1.465 . S
C1475 C1470 1.399 . S
C1475 C1474 1.394 . S
C1475 C1476 1.516 . S
C1476 C1475 1.516 . S
C1476 C1477 1.502 . S
C1476 C1478 1.561 . S
C1476 C1479 1.526 . S
C1477 H1461 0.959 . S
C1477 H1462 0.959 . S
C1477 H1463 0.961 . S
C1477 C1476 1.502 . S
C1478 H1464 0.960 . S
C1478 H1465 0.961 . S
C1478 H1466 0.959 . S
C1478 C1476 1.561 . S
C1479 C1476 1.526 . S
C1479 C1480 1.396 . S
C1479 C1484 1.390 . S
C1480 C1474 1.465 . S
C1480 C1479 1.396 . S
C1480 C1481 1.399 . S
C1481 H1467 0.929 . S
C1481 C1480 1.399 . S
C1481 C1482 1.385 . S
C1482 H1468 0.931 . S
C1482 C1481 1.385 . S
C1482 C1483 1.389 . S
C1483 C1482 1.389 . S
C1483 C1484 1.387 . S
C1484 H1469 0.930 . S
C1484 C1479 1.390 . S
C1484 C1483 1.387 . S
H1485 C1497 0.930 . S
H1486 C1499 0.930 . S
H1487 C1500 0.930 . S
H1488 C1504 0.959 . S
H1489 C1504 0.959 . S
H1490 C1504 0.961 . S
H1491 C1505 0.960 . S
H1492 C1505 0.961 . S
H1493 C1505 0.959 . S
H1494 C1508 0.929 . S
H1495 C1509 0.931 . S
H1496 C1511 0.930 . S
C1497 H1485 0.930 . S
C1497 C1498 1.399 . S
C1497 C1502 1.399 . S
C1498 C1497 1.399 . S
C1498 C1499 1.376 . S
C1499 H1486 0.930 . S
C1499 C1498 1.376 . S
C1499 C1500 1.388 . S
C1500 H1487 0.930 . S
C1500 C1499 1.388 . S
C1500 C1501 1.390 . S
C1501 C1500 1.390 . S
C1501 C1502 1.394 . S
C1501 C1507 1.465 . S
C1502 C1497 1.399 . S
C1502 C1501 1.394 . S
C1502 C1503 1.516 . S
C1503 C1502 1.516 . S
C1503 C1504 1.502 . S
C1503 C1505 1.561 . S
C1503 C1506 1.526 . S
C1504 H1488 0.959 . S
C1504 H1489 0.959 . S
C1504 H1490 0.961 . S
C1504 C1503 1.502 . S
C1505 H1491 0.960 . S
C1505 H1492 0.961 . S
C1505 H1493 0.959 . S
C1505 C1503 1.561 . S
C1506 C1503 1.526 . S
C1506 C1507 1.396 . S
C1506 C1511 1.390 . S
C1507 C1501 1.465 . S
C1507 C1506 1.396 . S
C1507 C1508 1.399 . S
C1508 H1494 0.929 . S
C1508 C1507 1.399 . S
C1508 C1509 1.385 . S
C1509 H1495 0.931 . S
C1509 C1508 1.385 . S
C1509 C1510 1.389 . S
C1510 C1509 1.389 . S
C1510 C1511 1.387 . S
C1511 H1496 0.930 . S
C1511 C1506 1.390 . S
C1511 C1510 1.387 . S
H1512 C1524 0.930 . S
H1513 C1526 0.930 . S
H1514 C1527 0.930 . S
H1515 C1531 0.959 . S
H1516 C1531 0.959 . S
H1517 C1531 0.961 . S
H1518 C1532 0.960 . S
H1519 C1532 0.961 . S
H1520 C1532 0.959 . S
H1521 C1535 0.929 . S
H1522 C1536 0.931 . S
H1523 C1538 0.930 . S
C1524 H1512 0.930 . S
C1524 C1525 1.399 . S
C1524 C1529 1.399 . S
C1525 C1524 1.399 . S
C1525 C1526 1.376 . S
C1526 H1513 0.930 . S
C1526 C1525 1.376 . S
C1526 C1527 1.388 . S
C1527 H1514 0.930 . S
C1527 C1526 1.388 . S
C1527 C1528 1.390 . S
C1528 C1527 1.390 . S
C1528 C1529 1.394 . S
C1528 C1534 1.465 . S
C1529 C1524 1.399 . S
C1529 C1528 1.394 . S
C1529 C1530 1.516 . S
C1530 C1529 1.516 . S
C1530 C1531 1.502 . S
C1530 C1532 1.561 . S
C1530 C1533 1.526 . S
C1531 H1515 0.959 . S
C1531 H1516 0.959 . S
C1531 H1517 0.961 . S
C1531 C1530 1.502 . S
C1532 H1518 0.960 . S
C1532 H1519 0.961 . S
C1532 H1520 0.959 . S
C1532 C1530 1.561 . S
C1533 C1530 1.526 . S
C1533 C1534 1.396 . S
C1533 C1538 1.390 . S
C1534 C1528 1.465 . S
C1534 C1533 1.396 . S
C1534 C1535 1.399 . S
C1535 H1521 0.929 . S
C1535 C1534 1.399 . S
C1535 C1536 1.385 . S
C1536 H1522 0.931 . S
C1536 C1535 1.385 . S
C1536 C1537 1.389 . S
C1537 C1536 1.389 . S
C1537 C1538 1.387 . S
C1538 H1523 0.930 . S
C1538 C1533 1.390 . S
C1538 C1537 1.387 . S
H1539 C1551 0.930 . S
H1540 C1553 0.930 . S
H1541 C1554 0.930 . S
H1542 C1558 0.959 . S
H1543 C1558 0.959 . S
H1544 C1558 0.961 . S
H1545 C1559 0.960 . S
H1546 C1559 0.961 . S
H1547 C1559 0.959 . S
H1548 C1562 0.929 . S
H1549 C1563 0.931 . S
H1550 C1565 0.930 . S
C1551 H1539 0.930 . S
C1551 C1552 1.399 . S
C1551 C1556 1.399 1_545 S
C1552 C1551 1.399 . S
C1552 C1553 1.376 . S
C1553 H1540 0.930 . S
C1553 C1552 1.376 . S
C1553 C1554 1.388 1_545 S
C1554 H1541 0.930 . S
C1554 C1553 1.388 1_565 S
C1554 C1555 1.390 . S
C1555 C1554 1.390 . S
C1555 C1556 1.394 . S
C1555 C1561 1.465 . S
C1556 C1551 1.399 1_565 S
C1556 C1555 1.394 . S
C1556 C1557 1.516 . S
C1557 C1556 1.516 . S
C1557 C1558 1.502 . S
C1557 C1559 1.561 . S
C1557 C1560 1.526 . S
C1558 H1542 0.959 . S
C1558 H1543 0.959 . S
C1558 H1544 0.961 . S
C1558 C1557 1.502 . S
C1559 H1545 0.960 . S
C1559 H1546 0.961 . S
C1559 H1547 0.959 . S
C1559 C1557 1.561 . S
C1560 C1557 1.526 . S
C1560 C1561 1.396 . S
C1560 C1565 1.390 . S
C1561 C1555 1.465 . S
C1561 C1560 1.396 . S
C1561 C1562 1.399 . S
C1562 H1548 0.929 . S
C1562 C1561 1.399 . S
C1562 C1563 1.385 . S
C1563 H1549 0.931 . S
C1563 C1562 1.385 . S
C1563 C1564 1.389 . S
C1564 C1563 1.389 . S
C1564 C1565 1.387 . S
C1565 H1550 0.930 . S
C1565 C1560 1.390 . S
C1565 C1564 1.387 . S
H1566 C1578 0.930 1_655 S
H1567 C1580 0.930 . S
H1568 C1581 0.930 . S
H1569 C1585 0.959 . S
H1570 C1585 0.959 . S
H1571 C1585 0.961 . S
H1572 C1586 0.960 . S
H1573 C1586 0.961 . S
H1574 C1586 0.959 . S
H1575 C1589 0.929 . S
H1576 C1590 0.931 . S
H1577 C1592 0.930 . S
C1578 H1566 0.930 1_455 S
C1578 C1579 1.399 1_455 S
C1578 C1583 1.399 . S
C1579 C1578 1.399 1_655 S
C1579 C1580 1.376 1_655 S
C1580 H1567 0.930 . S
C1580 C1579 1.376 1_455 S
C1580 C1581 1.388 . S
C1581 H1568 0.930 . S
C1581 C1580 1.388 . S
C1581 C1582 1.390 . S
C1582 C1581 1.390 . S
C1582 C1583 1.394 . S
C1582 C1588 1.465 . S
C1583 C1578 1.399 . S
C1583 C1582 1.394 . S
C1583 C1584 1.516 . S
C1584 C1583 1.516 . S
C1584 C1585 1.502 . S
C1584 C1586 1.561 . S
C1584 C1587 1.526 . S
C1585 H1569 0.959 . S
C1585 H1570 0.959 . S
C1585 H1571 0.961 . S
C1585 C1584 1.502 . S
C1586 H1572 0.960 . S
C1586 H1573 0.961 . S
C1586 H1574 0.959 . S
C1586 C1584 1.561 . S
C1587 C1584 1.526 . S
C1587 C1588 1.396 . S
C1587 C1592 1.390 . S
C1588 C1582 1.465 . S
C1588 C1587 1.396 . S
C1588 C1589 1.399 . S
C1589 H1575 0.929 . S
C1589 C1588 1.399 . S
C1589 C1590 1.385 . S
C1590 H1576 0.931 . S
C1590 C1589 1.385 . S
C1590 C1591 1.389 . S
C1591 C1590 1.389 . S
C1591 C1592 1.387 . S
C1592 H1577 0.930 . S
C1592 C1587 1.390 . S
C1592 C1591 1.387 . S
H1593 C1605 0.930 . S
H1594 C1607 0.930 . S
H1595 C1608 0.930 . S
H1596 C1612 0.959 . S
H1597 C1612 0.959 . S
H1598 C1612 0.961 . S
H1599 C1613 0.960 . S
H1600 C1613 0.961 . S
H1601 C1613 0.959 . S
H1602 C1616 0.929 . S
H1603 C1617 0.931 . S
H1604 C1619 0.930 . S
C1605 H1593 0.930 . S
C1605 C1606 1.399 . S
C1605 C1610 1.399 . S
C1606 C1605 1.399 . S
C1606 C1607 1.376 . S
C1607 H1594 0.930 . S
C1607 C1606 1.376 . S
C1607 C1608 1.388 . S
C1608 H1595 0.930 . S
C1608 C1607 1.388 . S
C1608 C1609 1.390 . S
C1609 C1608 1.390 . S
C1609 C1610 1.394 . S
C1609 C1615 1.465 . S
C1610 C1605 1.399 . S
C1610 C1609 1.394 . S
C1610 C1611 1.516 . S
C1611 C1610 1.516 . S
C1611 C1612 1.502 . S
C1611 C1613 1.561 . S
C1611 C1614 1.526 . S
C1612 H1596 0.959 . S
C1612 H1597 0.959 . S
C1612 H1598 0.961 . S
C1612 C1611 1.502 . S
C1613 H1599 0.960 . S
C1613 H1600 0.961 . S
C1613 H1601 0.959 . S
C1613 C1611 1.561 . S
C1614 C1611 1.526 . S
C1614 C1615 1.396 . S
C1614 C1619 1.390 . S
C1615 C1609 1.465 . S
C1615 C1614 1.396 . S
C1615 C1616 1.399 . S
C1616 H1602 0.929 . S
C1616 C1615 1.399 . S
C1616 C1617 1.385 . S
C1617 H1603 0.931 . S
C1617 C1616 1.385 . S
C1617 C1618 1.389 . S
C1618 C1617 1.389 . S
C1618 C1619 1.387 . S
C1619 H1604 0.930 . S
C1619 C1614 1.390 . S
C1619 C1618 1.387 . S
H1620 C1632 0.930 . S
H1621 C1634 0.930 . S
H1622 C1635 0.930 . S
H1623 C1639 0.959 . S
H1624 C1639 0.959 . S
H1625 C1639 0.961 . S
H1626 C1640 0.960 . S
H1627 C1640 0.961 . S
H1628 C1640 0.959 . S
H1629 C1643 0.929 . S
H1630 C1644 0.931 . S
H1631 C1646 0.930 . S
C1632 H1620 0.930 . S
C1632 C1633 1.399 . S
C1632 C1637 1.399 . S
C1633 C1632 1.399 . S
C1633 C1634 1.376 . S
C1634 H1621 0.930 . S
C1634 C1633 1.376 . S
C1634 C1635 1.388 . S
C1635 H1622 0.930 . S
C1635 C1634 1.388 . S
C1635 C1636 1.390 . S
C1636 C1635 1.390 . S
C1636 C1637 1.394 . S
C1636 C1642 1.465 . S
C1637 C1632 1.399 . S
C1637 C1636 1.394 . S
C1637 C1638 1.516 . S
C1638 C1637 1.516 . S
C1638 C1639 1.502 . S
C1638 C1640 1.561 . S
C1638 C1641 1.526 . S
C1639 H1623 0.959 . S
C1639 H1624 0.959 . S
C1639 H1625 0.961 . S
C1639 C1638 1.502 . S
C1640 H1626 0.960 . S
C1640 H1627 0.961 . S
C1640 H1628 0.959 . S
C1640 C1638 1.561 . S
C1641 C1638 1.526 . S
C1641 C1642 1.396 . S
C1641 C1646 1.390 . S
C1642 C1636 1.465 . S
C1642 C1641 1.396 . S
C1642 C1643 1.399 . S
C1643 H1629 0.929 . S
C1643 C1642 1.399 . S
C1643 C1644 1.385 . S
C1644 H1630 0.931 . S
C1644 C1643 1.385 . S
C1644 C1645 1.389 . S
C1645 C1644 1.389 . S
C1645 C1646 1.387 . S
C1646 H1631 0.930 . S
C1646 C1641 1.390 . S
C1646 C1645 1.387 . S
H1647 C1659 0.930 . S
H1648 C1661 0.930 . S
H1649 C1662 0.930 . S
H1650 C1666 0.959 . S
H1651 C1666 0.959 . S
H1652 C1666 0.961 . S
H1653 C1667 0.960 . S
H1654 C1667 0.961 . S
H1655 C1667 0.959 . S
H1656 C1670 0.929 . S
H1657 C1671 0.931 . S
H1658 C1673 0.930 . S
C1659 H1647 0.930 . S
C1659 C1660 1.399 . S
C1659 C1664 1.399 . S
C1660 C1659 1.399 . S
C1660 C1661 1.376 . S
C1661 H1648 0.930 . S
C1661 C1660 1.376 . S
C1661 C1662 1.388 . S
C1662 H1649 0.930 . S
C1662 C1661 1.388 . S
C1662 C1663 1.390 . S
C1663 C1662 1.390 . S
C1663 C1664 1.394 . S
C1663 C1669 1.465 . S
C1664 C1659 1.399 . S
C1664 C1663 1.394 . S
C1664 C1665 1.516 . S
C1665 C1664 1.516 . S
C1665 C1666 1.502 . S
C1665 C1667 1.561 . S
C1665 C1668 1.526 . S
C1666 H1650 0.959 . S
C1666 H1651 0.959 . S
C1666 H1652 0.961 . S
C1666 C1665 1.502 . S
C1667 H1653 0.960 . S
C1667 H1654 0.961 . S
C1667 H1655 0.959 . S
C1667 C1665 1.561 . S
C1668 C1665 1.526 . S
C1668 C1669 1.396 . S
C1668 C1673 1.390 . S
C1669 C1663 1.465 . S
C1669 C1668 1.396 . S
C1669 C1670 1.399 . S
C1670 H1656 0.929 . S
C1670 C1669 1.399 . S
C1670 C1671 1.385 . S
C1671 H1657 0.931 . S
C1671 C1670 1.385 . S
C1671 C1672 1.389 . S
C1672 C1671 1.389 . S
C1672 C1673 1.387 . S
C1673 H1658 0.930 . S
C1673 C1668 1.390 . S
C1673 C1672 1.387 . S
H1674 C1686 0.930 . S
H1675 C1688 0.930 . S
H1676 C1689 0.930 . S
H1677 C1693 0.959 . S
H1678 C1693 0.959 . S
H1679 C1693 0.961 . S
H1680 C1694 0.960 . S
H1681 C1694 0.961 . S
H1682 C1694 0.959 . S
H1683 C1697 0.929 . S
H1684 C1698 0.931 . S
H1685 C1700 0.930 . S
C1686 H1674 0.930 . S
C1686 C1687 1.399 . S
C1686 C1691 1.399 . S
C1687 C1686 1.399 . S
C1687 C1688 1.376 . S
C1688 H1675 0.930 . S
C1688 C1687 1.376 . S
C1688 C1689 1.388 . S
C1689 H1676 0.930 . S
C1689 C1688 1.388 . S
C1689 C1690 1.390 . S
C1690 C1689 1.390 . S
C1690 C1691 1.394 . S
C1690 C1696 1.465 . S
C1691 C1686 1.399 . S
C1691 C1690 1.394 . S
C1691 C1692 1.516 . S
C1692 C1691 1.516 . S
C1692 C1693 1.502 . S
C1692 C1694 1.561 . S
C1692 C1695 1.526 . S
C1693 H1677 0.959 . S
C1693 H1678 0.959 . S
C1693 H1679 0.961 . S
C1693 C1692 1.502 . S
C1694 H1680 0.960 . S
C1694 H1681 0.961 . S
C1694 H1682 0.959 . S
C1694 C1692 1.561 . S
C1695 C1692 1.526 . S
C1695 C1696 1.396 . S
C1695 C1700 1.390 . S
C1696 C1690 1.465 . S
C1696 C1695 1.396 . S
C1696 C1697 1.399 . S
C1697 H1683 0.929 . S
C1697 C1696 1.399 . S
C1697 C1698 1.385 . S
C1698 H1684 0.931 . S
C1698 C1697 1.385 . S
C1698 C1699 1.389 . S
C1699 C1698 1.389 . S
C1699 C1700 1.387 . S
C1700 H1685 0.930 . S
C1700 C1695 1.390 . S
C1700 C1699 1.387 . S
H1701 C1713 0.930 . S
H1702 C1715 0.930 . S
H1703 C1716 0.930 . S
H1704 C1720 0.959 . S
H1705 C1720 0.959 . S
H1706 C1720 0.961 . S
H1707 C1721 0.960 1_565 S
H1708 C1721 0.961 . S
H1709 C1721 0.959 . S
H1710 C1724 0.929 . S
H1711 C1725 0.931 . S
H1712 C1727 0.930 . S
C1713 H1701 0.930 . S
C1713 C1714 1.399 . S
C1713 C1718 1.399 . S
C1714 C1713 1.399 . S
C1714 C1715 1.376 . S
C1715 H1702 0.930 . S
C1715 C1714 1.376 . S
C1715 C1716 1.388 . S
C1716 H1703 0.930 . S
C1716 C1715 1.388 . S
C1716 C1717 1.390 . S
C1717 C1716 1.390 . S
C1717 C1718 1.394 . S
C1717 C1723 1.465 1_565 S
C1718 C1713 1.399 . S
C1718 C1717 1.394 . S
C1718 C1719 1.515 1_565 S
C1719 C1718 1.515 1_545 S
C1719 C1720 1.488 1_545 S
C1719 C1721 1.568 . S
C1719 C1722 1.537 . S
C1720 H1704 0.959 . S
C1720 H1705 0.959 . S
C1720 H1706 0.961 . S
C1720 C1719 1.488 1_565 S
C1721 H1707 0.960 1_545 S
C1721 H1708 0.961 . S
C1721 H1709 0.959 . S
C1721 C1719 1.568 . S
C1722 C1719 1.537 . S
C1722 C1723 1.396 . S
C1722 C1727 1.390 . S
C1723 C1717 1.465 1_545 S
C1723 C1722 1.396 . S
C1723 C1724 1.399 . S
C1724 H1710 0.929 . S
C1724 C1723 1.399 . S
C1724 C1725 1.385 . S
C1725 H1711 0.931 . S
C1725 C1724 1.385 . S
C1725 C1726 1.389 . S
C1726 C1725 1.389 . S
C1726 C1727 1.387 . S
C1727 H1712 0.930 . S
C1727 C1722 1.390 . S
C1727 C1726 1.387 . S
H1728 C1740 0.930 . S
H1729 C1742 0.930 . S
H1730 C1743 0.930 . S
H1731 C1747 0.959 . S
H1732 C1747 0.959 . S
H1733 C1747 0.961 . S
H1734 C1748 0.973 . S
H1735 C1748 0.961 . S
H1736 C1748 0.959 1_455 S
H1737 C1751 0.929 1_455 S
H1738 C1752 0.931 . S
H1739 C1754 0.930 . S
C1740 H1728 0.930 . S
C1740 C1741 1.399 . S
C1740 C1745 1.399 . S
C1741 C1740 1.399 . S
C1741 C1742 1.376 . S
C1742 H1729 0.930 . S
C1742 C1741 1.376 . S
C1742 C1743 1.388 . S
C1743 H1730 0.930 . S
C1743 C1742 1.388 . S
C1743 C1744 1.390 . S
C1744 C1743 1.390 . S
C1744 C1745 1.394 . S
C1744 C1750 1.465 1_455 S
C1745 C1740 1.399 . S
C1745 C1744 1.394 . S
C1745 C1746 1.516 1_455 S
C1746 C1745 1.516 1_655 S
C1746 C1747 1.502 . S
C1746 C1748 1.561 . S
C1746 C1749 1.526 . S
C1747 H1731 0.959 . S
C1747 H1732 0.959 . S
C1747 H1733 0.961 . S
C1747 C1746 1.502 . S
C1748 H1734 0.973 . S
C1748 H1735 0.961 . S
C1748 H1736 0.959 1_655 S
C1748 C1746 1.561 . S
C1749 C1746 1.526 . S
C1749 C1750 1.396 . S
C1749 C1754 1.390 . S
C1750 C1744 1.465 1_655 S
C1750 C1749 1.396 . S
C1750 C1751 1.399 . S
C1751 H1737 0.929 1_655 S
C1751 C1750 1.399 . S
C1751 C1752 1.385 . S
C1752 H1738 0.931 . S
C1752 C1751 1.385 . S
C1752 C1753 1.389 . S
C1753 C1752 1.389 . S
C1753 C1754 1.387 . S
C1754 H1739 0.930 . S
C1754 C1749 1.390 . S
C1754 C1753 1.387 . S
H1755 C1767 0.930 . S
H1756 C1769 0.930 . S
H1757 C1770 0.930 . S
H1758 C1774 0.959 . S
H1759 C1774 0.959 . S
H1760 C1774 0.961 . S
H1761 C1775 0.960 . S
H1762 C1775 0.961 . S
H1763 C1775 0.959 . S
H1764 C1778 0.929 . S
H1765 C1779 0.931 . S
H1766 C1781 0.930 . S
C1767 H1755 0.930 . S
C1767 C1768 1.399 . S
C1767 C1772 1.399 . S
C1768 C1767 1.399 . S
C1768 C1769 1.376 . S
C1769 H1756 0.930 . S
C1769 C1768 1.376 . S
C1769 C1770 1.388 . S
C1770 H1757 0.930 . S
C1770 C1769 1.388 . S
C1770 C1771 1.390 . S
C1771 C1770 1.390 . S
C1771 C1772 1.394 . S
C1771 C1777 1.465 . S
C1772 C1767 1.399 . S
C1772 C1771 1.394 . S
C1772 C1773 1.516 . S
C1773 C1772 1.516 . S
C1773 C1774 1.502 . S
C1773 C1775 1.561 . S
C1773 C1776 1.526 . S
C1774 H1758 0.959 . S
C1774 H1759 0.959 . S
C1774 H1760 0.961 . S
C1774 C1773 1.502 . S
C1775 H1761 0.960 . S
C1775 H1762 0.961 . S
C1775 H1763 0.959 . S
C1775 C1773 1.561 . S
C1776 C1773 1.526 . S
C1776 C1777 1.396 . S
C1776 C1781 1.390 . S
C1777 C1771 1.465 . S
C1777 C1776 1.396 . S
C1777 C1778 1.399 . S
C1778 H1764 0.929 . S
C1778 C1777 1.399 . S
C1778 C1779 1.385 . S
C1779 H1765 0.931 . S
C1779 C1778 1.385 . S
C1779 C1780 1.389 . S
C1780 C1779 1.389 . S
C1780 C1781 1.387 . S
C1781 H1766 0.930 . S
C1781 C1776 1.390 . S
C1781 C1780 1.387 . S
H1782 C1794 0.930 . S
H1783 C1796 0.930 . S
H1784 C1797 0.930 . S
H1785 C1801 0.959 . S
H1786 C1801 0.959 . S
H1787 C1801 0.961 . S
H1788 C1802 0.960 . S
H1789 C1802 0.961 . S
H1790 C1802 0.959 . S
H1791 C1805 0.929 . S
H1792 C1806 0.931 . S
H1793 C1808 0.930 . S
C1794 H1782 0.930 . S
C1794 C1795 1.399 1_655 S
C1794 C1799 1.399 . S
C1795 C1794 1.399 1_455 S
C1795 C1796 1.376 . S
C1796 H1783 0.930 . S
C1796 C1795 1.376 . S
C1796 C1797 1.388 1_455 S
C1797 H1784 0.930 . S
C1797 C1796 1.388 1_655 S
C1797 C1798 1.390 . S
C1798 C1797 1.390 . S
C1798 C1799 1.394 . S
C1798 C1804 1.465 . S
C1799 C1794 1.399 . S
C1799 C1798 1.394 . S
C1799 C1800 1.516 . S
C1800 C1799 1.516 . S
C1800 C1801 1.502 . S
C1800 C1802 1.561 . S
C1800 C1803 1.526 . S
C1801 H1785 0.959 . S
C1801 H1786 0.959 . S
C1801 H1787 0.961 . S
C1801 C1800 1.502 . S
C1802 H1788 0.960 . S
C1802 H1789 0.961 . S
C1802 H1790 0.959 . S
C1802 C1800 1.561 . S
C1803 C1800 1.526 . S
C1803 C1804 1.396 . S
C1803 C1808 1.390 . S
C1804 C1798 1.465 . S
C1804 C1803 1.396 . S
C1804 C1805 1.399 . S
C1805 H1791 0.929 . S
C1805 C1804 1.399 . S
C1805 C1806 1.385 . S
C1806 H1792 0.931 . S
C1806 C1805 1.385 . S
C1806 C1807 1.389 . S
C1807 C1806 1.389 . S
C1807 C1808 1.387 . S
C1808 H1793 0.930 . S
C1808 C1803 1.390 . S
C1808 C1807 1.387 . S
H1809 C1821 0.930 . S
H1810 C1823 0.930 . S
H1811 C1824 0.930 . S
H1812 C1828 0.959 . S
H1813 C1828 0.959 . S
H1814 C1828 0.961 . S
H1815 C1829 0.960 . S
H1816 C1829 0.961 . S
H1817 C1829 0.959 . S
H1818 C1832 0.929 . S
H1819 C1833 0.931 . S
H1820 C1835 0.930 . S
C1821 H1809 0.930 . S
C1821 C1822 1.399 . S
C1821 C1826 1.399 . S
C1822 C1821 1.399 . S
C1822 C1823 1.376 . S
C1823 H1810 0.930 . S
C1823 C1822 1.376 . S
C1823 C1824 1.388 . S
C1824 H1811 0.930 . S
C1824 C1823 1.388 . S
C1824 C1825 1.390 . S
C1825 C1824 1.390 . S
C1825 C1826 1.394 . S
C1825 C1831 1.465 . S
C1826 C1821 1.399 . S
C1826 C1825 1.394 . S
C1826 C1827 1.516 . S
C1827 C1826 1.516 . S
C1827 C1828 1.502 . S
C1827 C1829 1.561 . S
C1827 C1830 1.526 . S
C1828 H1812 0.959 . S
C1828 H1813 0.959 . S
C1828 H1814 0.961 . S
C1828 C1827 1.502 . S
C1829 H1815 0.960 . S
C1829 H1816 0.961 . S
C1829 H1817 0.959 . S
C1829 C1827 1.561 . S
C1830 C1827 1.526 . S
C1830 C1831 1.396 . S
C1830 C1835 1.390 . S
C1831 C1825 1.465 . S
C1831 C1830 1.396 . S
C1831 C1832 1.399 . S
C1832 H1818 0.929 . S
C1832 C1831 1.399 . S
C1832 C1833 1.385 . S
C1833 H1819 0.931 . S
C1833 C1832 1.385 . S
C1833 C1834 1.389 . S
C1834 C1833 1.389 . S
C1834 C1835 1.387 . S
C1835 H1820 0.930 . S
C1835 C1830 1.390 . S
C1835 C1834 1.387 . S
H1836 C1848 0.930 1_565 S
H1837 C1850 0.930 1_565 S
H1838 C1851 0.930 . S
H1839 C1855 0.959 . S
H1840 C1855 0.959 . S
H1841 C1855 0.961 . S
H1842 C1856 0.960 . S
H1843 C1856 0.961 . S
H1844 C1856 0.959 . S
H1845 C1859 0.929 . S
H1846 C1860 0.931 . S
H1847 C1862 0.930 . S
C1848 H1836 0.930 1_545 S
C1848 C1849 1.399 1_545 S
C1848 C1853 1.399 . S
C1849 C1848 1.399 1_565 S
C1849 C1850 1.376 1_565 S
C1850 H1837 0.930 1_545 S
C1850 C1849 1.376 1_545 S
C1850 C1851 1.388 . S
C1851 H1838 0.930 . S
C1851 C1850 1.388 . S
C1851 C1852 1.390 . S
C1852 C1851 1.390 . S
C1852 C1853 1.394 . S
C1852 C1858 1.465 . S
C1853 C1848 1.399 . S
C1853 C1852 1.394 . S
C1853 C1854 1.516 . S
C1854 C1853 1.516 . S
C1854 C1855 1.502 . S
C1854 C1856 1.561 . S
C1854 C1857 1.526 . S
C1855 H1839 0.959 . S
C1855 H1840 0.959 . S
C1855 H1841 0.961 . S
C1855 C1854 1.502 . S
C1856 H1842 0.960 . S
C1856 H1843 0.961 . S
C1856 H1844 0.959 . S
C1856 C1854 1.561 . S
C1857 C1854 1.526 . S
C1857 C1858 1.396 . S
C1857 C1862 1.390 . S
C1858 C1852 1.465 . S
C1858 C1857 1.396 . S
C1858 C1859 1.399 . S
C1859 H1845 0.929 . S
C1859 C1858 1.399 . S
C1859 C1860 1.385 . S
C1860 H1846 0.931 . S
C1860 C1859 1.385 . S
C1860 C1861 1.389 . S
C1861 C1860 1.389 . S
C1861 C1862 1.387 . S
C1862 H1847 0.930 . S
C1862 C1857 1.390 . S
C1862 C1861 1.387 . S
H1863 C1875 0.930 . S
H1864 C1877 0.930 . S
H1865 C1878 0.930 . S
H1866 C1882 0.959 . S
H1867 C1882 0.959 . S
H1868 C1882 0.961 . S
H1869 C1883 0.960 . S
H1870 C1883 0.961 . S
H1871 C1883 0.959 . S
H1872 C1886 0.929 . S
H1873 C1887 0.931 . S
H1874 C1889 0.930 . S
C1875 H1863 0.930 . S
C1875 C1876 1.399 . S
C1875 C1880 1.399 . S
C1876 C1875 1.399 . S
C1876 C1877 1.376 . S
C1877 H1864 0.930 . S
C1877 C1876 1.376 . S
C1877 C1878 1.388 . S
C1878 H1865 0.930 . S
C1878 C1877 1.388 . S
C1878 C1879 1.390 . S
C1879 C1878 1.390 . S
C1879 C1880 1.394 . S
C1879 C1885 1.465 . S
C1880 C1875 1.399 . S
C1880 C1879 1.394 . S
C1880 C1881 1.516 . S
C1881 C1880 1.516 . S
C1881 C1882 1.502 . S
C1881 C1883 1.561 . S
C1881 C1884 1.526 . S
C1882 H1866 0.959 . S
C1882 H1867 0.959 . S
C1882 H1868 0.961 . S
C1882 C1881 1.502 . S
C1883 H1869 0.960 . S
C1883 H1870 0.961 . S
C1883 H1871 0.959 . S
C1883 C1881 1.561 . S
C1884 C1881 1.526 . S
C1884 C1885 1.396 . S
C1884 C1889 1.390 . S
C1885 C1879 1.465 . S
C1885 C1884 1.396 . S
C1885 C1886 1.399 . S
C1886 H1872 0.929 . S
C1886 C1885 1.399 . S
C1886 C1887 1.385 . S
C1887 H1873 0.931 . S
C1887 C1886 1.385 . S
C1887 C1888 1.389 . S
C1888 C1887 1.389 . S
C1888 C1889 1.387 . S
C1889 H1874 0.930 . S
C1889 C1884 1.390 . S
C1889 C1888 1.387 . S
H1890 C1902 0.930 . S
H1891 C1904 0.930 . S
H1892 C1905 0.930 . S
H1893 C1909 0.959 . S
H1894 C1909 0.959 . S
H1895 C1909 0.961 . S
H1896 C1910 0.960 . S
H1897 C1910 0.961 . S
H1898 C1910 0.959 . S
H1899 C1913 0.929 . S
H1900 C1914 0.931 . S
H1901 C1916 0.930 . S
C1902 H1890 0.930 . S
C1902 C1903 1.399 . S
C1902 C1907 1.399 . S
C1903 C1902 1.399 . S
C1903 C1904 1.376 . S
C1904 H1891 0.930 . S
C1904 C1903 1.376 . S
C1904 C1905 1.388 . S
C1905 H1892 0.930 . S
C1905 C1904 1.388 . S
C1905 C1906 1.390 . S
C1906 C1905 1.390 . S
C1906 C1907 1.394 . S
C1906 C1912 1.465 . S
C1907 C1902 1.399 . S
C1907 C1906 1.394 . S
C1907 C1908 1.516 . S
C1908 C1907 1.516 . S
C1908 C1909 1.502 . S
C1908 C1910 1.561 . S
C1908 C1911 1.526 . S
C1909 H1893 0.959 . S
C1909 H1894 0.959 . S
C1909 H1895 0.961 . S
C1909 C1908 1.502 . S
C1910 H1896 0.960 . S
C1910 H1897 0.961 . S
C1910 H1898 0.959 . S
C1910 C1908 1.561 . S
C1911 C1908 1.526 . S
C1911 C1912 1.396 . S
C1911 C1916 1.390 . S
C1912 C1906 1.465 . S
C1912 C1911 1.396 . S
C1912 C1913 1.399 . S
C1913 H1899 0.929 . S
C1913 C1912 1.399 . S
C1913 C1914 1.385 . S
C1914 H1900 0.931 . S
C1914 C1913 1.385 . S
C1914 C1915 1.389 . S
C1915 C1914 1.389 . S
C1915 C1916 1.387 . S
C1916 H1901 0.930 . S
C1916 C1911 1.390 . S
C1916 C1915 1.387 . S
H1917 C1929 0.930 . S
H1918 C1931 0.930 . S
H1919 C1932 0.930 . S
H1920 C1936 0.959 . S
H1921 C1936 0.959 . S
H1922 C1936 0.961 . S
H1923 C1937 0.960 . S
H1924 C1937 0.961 . S
H1925 C1937 0.959 . S
H1926 C1940 0.929 . S
H1927 C1941 0.931 . S
H1928 C1943 0.930 . S
C1929 H1917 0.930 . S
C1929 C1930 1.399 . S
C1929 C1934 1.399 . S
C1930 C1929 1.399 . S
C1930 C1931 1.376 . S
C1931 H1918 0.930 . S
C1931 C1930 1.376 . S
C1931 C1932 1.388 . S
C1932 H1919 0.930 . S
C1932 C1931 1.388 . S
C1932 C1933 1.390 . S
C1933 C1932 1.390 . S
C1933 C1934 1.394 . S
C1933 C1939 1.465 . S
C1934 C1929 1.399 . S
C1934 C1933 1.394 . S
C1934 C1935 1.516 . S
C1935 C1934 1.516 . S
C1935 C1936 1.502 . S
C1935 C1937 1.561 . S
C1935 C1938 1.526 . S
C1936 H1920 0.959 . S
C1936 H1921 0.959 . S
C1936 H1922 0.961 . S
C1936 C1935 1.502 . S
C1937 H1923 0.960 . S
C1937 H1924 0.961 . S
C1937 H1925 0.959 . S
C1937 C1935 1.561 . S
C1938 C1935 1.526 . S
C1938 C1939 1.396 . S
C1938 C1943 1.390 . S
C1939 C1933 1.465 . S
C1939 C1938 1.396 . S
C1939 C1940 1.399 . S
C1940 H1926 0.929 . S
C1940 C1939 1.399 . S
C1940 C1941 1.385 . S
C1941 H1927 0.931 . S
C1941 C1940 1.385 . S
C1941 C1942 1.389 . S
C1942 C1941 1.389 . S
C1942 C1943 1.387 . S
C1943 H1928 0.930 . S
C1943 C1938 1.390 . S
C1943 C1942 1.387 . S
H1944 C1956 0.930 . S
H1945 C1958 0.930 . S
H1946 C1959 0.930 . S
H1947 C1963 0.959 . S
H1948 C1963 0.959 . S
H1949 C1963 0.961 . S
H1950 C1964 0.960 . S
H1951 C1964 0.961 . S
H1952 C1964 0.959 . S
H1953 C1967 0.929 . S
H1954 C1968 0.931 . S
H1955 C1970 0.930 . S
C1956 H1944 0.930 . S
C1956 C1957 1.399 . S
C1956 C1961 1.399 . S
C1957 C1956 1.399 . S
C1957 C1958 1.376 . S
C1958 H1945 0.930 . S
C1958 C1957 1.376 . S
C1958 C1959 1.388 . S
C1959 H1946 0.930 . S
C1959 C1958 1.388 . S
C1959 C1960 1.390 . S
C1960 C1959 1.390 . S
C1960 C1961 1.394 . S
C1960 C1966 1.465 . S
C1961 C1956 1.399 . S
C1961 C1960 1.394 . S
C1961 C1962 1.516 . S
C1962 C1961 1.516 . S
C1962 C1963 1.502 . S
C1962 C1964 1.561 . S
C1962 C1965 1.526 . S
C1963 H1947 0.959 . S
C1963 H1948 0.959 . S
C1963 H1949 0.961 . S
C1963 C1962 1.502 . S
C1964 H1950 0.960 . S
C1964 H1951 0.961 . S
C1964 H1952 0.959 . S
C1964 C1962 1.561 . S
C1965 C1962 1.526 . S
C1965 C1966 1.396 . S
C1965 C1970 1.390 . S
C1966 C1960 1.465 . S
C1966 C1965 1.396 . S
C1966 C1967 1.399 . S
C1967 H1953 0.929 . S
C1967 C1966 1.399 . S
C1967 C1968 1.385 . S
C1968 H1954 0.931 . S
C1968 C1967 1.385 . S
C1968 C1969 1.389 . S
C1969 C1968 1.389 . S
C1969 C1970 1.387 . S
C1970 H1955 0.930 . S
C1970 C1965 1.390 . S
C1970 C1969 1.387 . S
H1971 C1983 0.930 . S
H1972 C1985 0.930 . S
H1973 C1986 0.930 . S
H1974 C1990 0.959 . S
H1975 C1990 0.959 . S
H1976 C1990 0.961 . S
H1977 C1991 0.960 . S
H1978 C1991 0.961 . S
H1979 C1991 0.959 . S
H1980 C1994 0.929 . S
H1981 C1995 0.931 . S
H1982 C1997 0.930 . S
C1983 H1971 0.930 . S
C1983 C1984 1.399 . S
C1983 C1988 1.399 . S
C1984 C1983 1.399 . S
C1984 C1985 1.376 . S
C1985 H1972 0.930 . S
C1985 C1984 1.376 . S
C1985 C1986 1.388 . S
C1986 H1973 0.930 . S
C1986 C1985 1.388 . S
C1986 C1987 1.390 . S
C1987 C1986 1.390 . S
C1987 C1988 1.394 . S
C1987 C1993 1.465 . S
C1988 C1983 1.399 . S
C1988 C1987 1.394 . S
C1988 C1989 1.516 . S
C1989 C1988 1.516 . S
C1989 C1990 1.502 . S
C1989 C1991 1.561 . S
C1989 C1992 1.526 . S
C1990 H1974 0.959 . S
C1990 H1975 0.959 . S
C1990 H1976 0.961 . S
C1990 C1989 1.502 . S
C1991 H1977 0.960 . S
C1991 H1978 0.961 . S
C1991 H1979 0.959 . S
C1991 C1989 1.561 . S
C1992 C1989 1.526 . S
C1992 C1993 1.396 . S
C1992 C1997 1.390 . S
C1993 C1987 1.465 . S
C1993 C1992 1.396 . S
C1993 C1994 1.399 . S
C1994 H1980 0.929 . S
C1994 C1993 1.399 . S
C1994 C1995 1.385 . S
C1995 H1981 0.931 . S
C1995 C1994 1.385 . S
C1995 C1996 1.389 . S
C1996 C1995 1.389 . S
C1996 C1997 1.387 . S
C1997 H1982 0.930 . S
C1997 C1992 1.390 . S
C1997 C1996 1.387 . S
H1998 C2010 0.930 . S
H1999 C2012 0.930 . S
H2000 C2013 0.930 . S
H2001 C2017 0.959 . S
H2002 C2017 0.959 . S
H2003 C2017 0.961 . S
H2004 C2018 0.960 . S
H2005 C2018 0.961 . S
H2006 C2018 0.959 . S
H2007 C2021 0.929 . S
H2008 C2022 0.931 . S
H2009 C2024 0.930 . S
C2010 H1998 0.930 . S
C2010 C2011 1.399 . S
C2010 C2015 1.399 . S
C2011 C2010 1.399 . S
C2011 C2012 1.376 . S
C2012 H1999 0.930 . S
C2012 C2011 1.376 . S
C2012 C2013 1.388 . S
C2013 H2000 0.930 . S
C2013 C2012 1.388 . S
C2013 C2014 1.390 . S
C2014 C2013 1.390 . S
C2014 C2015 1.394 . S
C2014 C2020 1.465 . S
C2015 C2010 1.399 . S
C2015 C2014 1.394 . S
C2015 C2016 1.516 . S
C2016 C2015 1.516 . S
C2016 C2017 1.502 . S
C2016 C2018 1.561 . S
C2016 C2019 1.526 . S
C2017 H2001 0.959 . S
C2017 H2002 0.959 . S
C2017 H2003 0.961 . S
C2017 C2016 1.502 . S
C2018 H2004 0.960 . S
C2018 H2005 0.961 . S
C2018 H2006 0.959 . S
C2018 C2016 1.561 . S
C2019 C2016 1.526 . S
C2019 C2020 1.396 . S
C2019 C2024 1.390 . S
C2020 C2014 1.465 . S
C2020 C2019 1.396 . S
C2020 C2021 1.399 . S
C2021 H2007 0.929 . S
C2021 C2020 1.399 . S
C2021 C2022 1.385 . S
C2022 H2008 0.931 . S
C2022 C2021 1.385 . S
C2022 C2023 1.389 . S
C2023 C2022 1.389 . S
C2023 C2024 1.387 . S
C2024 H2009 0.930 . S
C2024 C2019 1.390 . S
C2024 C2023 1.387 . S
H2025 C2037 0.930 . S
H2026 C2039 0.930 . S
H2027 C2040 0.930 . S
H2028 C2044 0.959 . S
H2029 C2044 0.959 . S
H2030 C2044 0.961 . S
H2031 C2045 0.960 . S
H2032 C2045 0.961 . S
H2033 C2045 0.959 . S
H2034 C2048 0.929 . S
H2035 C2049 0.931 . S
H2036 C2051 0.930 . S
C2037 H2025 0.930 . S
C2037 C2038 1.399 . S
C2037 C2042 1.399 . S
C2038 C2037 1.399 . S
C2038 C2039 1.376 . S
C2039 H2026 0.930 . S
C2039 C2038 1.376 . S
C2039 C2040 1.388 . S
C2040 H2027 0.930 . S
C2040 C2039 1.388 . S
C2040 C2041 1.390 . S
C2041 C2040 1.390 . S
C2041 C2042 1.394 . S
C2041 C2047 1.465 . S
C2042 C2037 1.399 . S
C2042 C2041 1.394 . S
C2042 C2043 1.516 . S
C2043 C2042 1.516 . S
C2043 C2044 1.502 . S
C2043 C2045 1.561 . S
C2043 C2046 1.526 . S
C2044 H2028 0.959 . S
C2044 H2029 0.959 . S
C2044 H2030 0.961 . S
C2044 C2043 1.502 . S
C2045 H2031 0.960 . S
C2045 H2032 0.961 . S
C2045 H2033 0.959 . S
C2045 C2043 1.561 . S
C2046 C2043 1.526 . S
C2046 C2047 1.396 . S
C2046 C2051 1.390 . S
C2047 C2041 1.465 . S
C2047 C2046 1.396 . S
C2047 C2048 1.399 . S
C2048 H2034 0.929 . S
C2048 C2047 1.399 . S
C2048 C2049 1.385 . S
C2049 H2035 0.931 . S
C2049 C2048 1.385 . S
C2049 C2050 1.389 . S
C2050 C2049 1.389 . S
C2050 C2051 1.387 . S
C2051 H2036 0.930 . S
C2051 C2046 1.390 . S
C2051 C2050 1.387 . S
H2052 C2064 0.930 . S
H2053 C2066 0.930 . S
H2054 C2067 0.930 . S
H2055 C2071 0.959 . S
H2056 C2071 0.959 . S
H2057 C2071 0.961 . S
H2058 C2072 0.960 . S
H2059 C2072 0.961 . S
H2060 C2072 0.959 . S
H2061 C2075 0.929 . S
H2062 C2076 0.931 . S
H2063 C2078 0.930 . S
C2064 H2052 0.930 . S
C2064 C2065 1.399 . S
C2064 C2069 1.399 . S
C2065 C2064 1.399 . S
C2065 C2066 1.376 . S
C2066 H2053 0.930 . S
C2066 C2065 1.376 . S
C2066 C2067 1.388 . S
C2067 H2054 0.930 . S
C2067 C2066 1.388 . S
C2067 C2068 1.390 . S
C2068 C2067 1.390 . S
C2068 C2069 1.394 . S
C2068 C2074 1.465 . S
C2069 C2064 1.399 . S
C2069 C2068 1.394 . S
C2069 C2070 1.516 . S
C2070 C2069 1.516 . S
C2070 C2071 1.502 . S
C2070 C2072 1.561 . S
C2070 C2073 1.526 . S
C2071 H2055 0.959 . S
C2071 H2056 0.959 . S
C2071 H2057 0.961 . S
C2071 C2070 1.502 . S
C2072 H2058 0.960 . S
C2072 H2059 0.961 . S
C2072 H2060 0.959 . S
C2072 C2070 1.561 . S
C2073 C2070 1.526 . S
C2073 C2074 1.396 . S
C2073 C2078 1.390 . S
C2074 C2068 1.465 . S
C2074 C2073 1.396 . S
C2074 C2075 1.399 . S
C2075 H2061 0.929 . S
C2075 C2074 1.399 . S
C2075 C2076 1.385 . S
C2076 H2062 0.931 . S
C2076 C2075 1.385 . S
C2076 C2077 1.389 . S
C2077 C2076 1.389 . S
C2077 C2078 1.387 . S
C2078 H2063 0.930 . S
C2078 C2073 1.390 . S
C2078 C2077 1.387 . S
H2079 C2091 0.930 . S
H2080 C2093 0.930 . S
H2081 C2094 0.930 . S
H2082 C2098 0.959 . S
H2083 C2098 0.959 . S
H2084 C2098 0.961 . S
H2085 C2099 0.960 . S
H2086 C2099 0.961 . S
H2087 C2099 0.959 . S
H2088 C2102 0.929 . S
H2089 C2103 0.931 . S
H2090 C2105 0.930 . S
C2091 H2079 0.930 . S
C2091 C2092 1.399 . S
C2091 C2096 1.399 . S
C2092 C2091 1.399 . S
C2092 C2093 1.376 . S
C2093 H2080 0.930 . S
C2093 C2092 1.376 . S
C2093 C2094 1.388 . S
C2094 H2081 0.930 . S
C2094 C2093 1.388 . S
C2094 C2095 1.390 . S
C2095 C2094 1.390 . S
C2095 C2096 1.394 . S
C2095 C2101 1.465 . S
C2096 C2091 1.399 . S
C2096 C2095 1.394 . S
C2096 C2097 1.516 . S
C2097 C2096 1.516 . S
C2097 C2098 1.502 . S
C2097 C2099 1.561 . S
C2097 C2100 1.526 . S
C2098 H2082 0.959 . S
C2098 H2083 0.959 . S
C2098 H2084 0.961 . S
C2098 C2097 1.502 . S
C2099 H2085 0.960 . S
C2099 H2086 0.961 . S
C2099 H2087 0.959 . S
C2099 C2097 1.561 . S
C2100 C2097 1.526 . S
C2100 C2101 1.396 . S
C2100 C2105 1.390 . S
C2101 C2095 1.465 . S
C2101 C2100 1.396 . S
C2101 C2102 1.399 . S
C2102 H2088 0.929 . S
C2102 C2101 1.399 . S
C2102 C2103 1.385 . S
C2103 H2089 0.931 . S
C2103 C2102 1.385 . S
C2103 C2104 1.389 . S
C2104 C2103 1.389 . S
C2104 C2105 1.387 . S
C2105 H2090 0.930 . S
C2105 C2100 1.390 . S
C2105 C2104 1.387 . S
H2106 C2118 0.930 . S
H2107 C2120 0.930 . S
H2108 C2121 0.930 . S
H2109 C2125 0.959 . S
H2110 C2125 0.959 . S
H2111 C2125 0.961 . S
H2112 C2126 0.960 . S
H2113 C2126 0.961 . S
H2114 C2126 0.959 . S
H2115 C2129 0.929 . S
H2116 C2130 0.931 . S
H2117 C2132 0.930 . S
C2118 H2106 0.930 . S
C2118 C2119 1.399 . S
C2118 C2123 1.399 . S
C2119 C2118 1.399 . S
C2119 C2120 1.376 . S
C2120 H2107 0.930 . S
C2120 C2119 1.376 . S
C2120 C2121 1.388 . S
C2121 H2108 0.930 . S
C2121 C2120 1.388 . S
C2121 C2122 1.390 . S
C2122 C2121 1.390 . S
C2122 C2123 1.394 . S
C2122 C2128 1.465 . S
C2123 C2118 1.399 . S
C2123 C2122 1.394 . S
C2123 C2124 1.516 . S
C2124 C2123 1.516 . S
C2124 C2125 1.502 . S
C2124 C2126 1.561 . S
C2124 C2127 1.526 . S
C2125 H2109 0.959 . S
C2125 H2110 0.959 . S
C2125 H2111 0.961 . S
C2125 C2124 1.502 . S
C2126 H2112 0.960 . S
C2126 H2113 0.961 . S
C2126 H2114 0.959 . S
C2126 C2124 1.561 . S
C2127 C2124 1.526 . S
C2127 C2128 1.396 . S
C2127 C2132 1.390 . S
C2128 C2122 1.465 . S
C2128 C2127 1.396 . S
C2128 C2129 1.399 . S
C2129 H2115 0.929 . S
C2129 C2128 1.399 . S
C2129 C2130 1.385 . S
C2130 H2116 0.931 . S
C2130 C2129 1.385 . S
C2130 C2131 1.389 . S
C2131 C2130 1.389 . S
C2131 C2132 1.387 . S
C2132 H2117 0.930 . S
C2132 C2127 1.390 . S
C2132 C2131 1.387 . S
H2133 C2145 0.930 . S
H2134 C2147 0.930 . S
H2135 C2148 0.930 . S
H2136 C2152 0.959 . S
H2137 C2152 0.959 . S
H2138 C2152 0.961 . S
H2139 C2153 0.960 . S
H2140 C2153 0.961 . S
H2141 C2153 0.959 . S
H2142 C2156 0.929 . S
H2143 C2157 0.931 . S
H2144 C2159 0.930 . S
C2145 H2133 0.930 . S
C2145 C2146 1.399 . S
C2145 C2150 1.399 . S
C2146 C2145 1.399 . S
C2146 C2147 1.376 . S
C2147 H2134 0.930 . S
C2147 C2146 1.376 . S
C2147 C2148 1.388 . S
C2148 H2135 0.930 . S
C2148 C2147 1.388 . S
C2148 C2149 1.390 . S
C2149 C2148 1.390 . S
C2149 C2150 1.394 . S
C2149 C2155 1.465 . S
C2150 C2145 1.399 . S
C2150 C2149 1.394 . S
C2150 C2151 1.516 . S
C2151 C2150 1.516 . S
C2151 C2152 1.502 . S
C2151 C2153 1.561 . S
C2151 C2154 1.526 . S
C2152 H2136 0.959 . S
C2152 H2137 0.959 . S
C2152 H2138 0.961 . S
C2152 C2151 1.502 . S
C2153 H2139 0.960 . S
C2153 H2140 0.961 . S
C2153 H2141 0.959 . S
C2153 C2151 1.561 . S
C2154 C2151 1.526 . S
C2154 C2155 1.396 . S
C2154 C2159 1.390 . S
C2155 C2149 1.465 . S
C2155 C2154 1.396 . S
C2155 C2156 1.399 . S
C2156 H2142 0.929 . S
C2156 C2155 1.399 . S
C2156 C2157 1.385 . S
C2157 H2143 0.931 . S
C2157 C2156 1.385 . S
C2157 C2158 1.389 . S
C2158 C2157 1.389 . S
C2158 C2159 1.387 . S
C2159 H2144 0.930 . S
C2159 C2154 1.390 . S
C2159 C2158 1.387 . S
H2160 C2172 0.930 . S
H2161 C2174 0.930 . S
H2162 C2175 0.930 . S
H2163 C2179 0.959 . S
H2164 C2179 0.959 . S
H2165 C2179 0.961 . S
H2166 C2180 0.960 . S
H2167 C2180 0.961 . S
H2168 C2180 0.959 . S
H2169 C2183 0.929 . S
H2170 C2184 0.931 . S
H2171 C2186 0.930 . S
C2172 H2160 0.930 . S
C2172 C2173 1.399 . S
C2172 C2177 1.399 . S
C2173 C2172 1.399 . S
C2173 C2174 1.376 . S
C2174 H2161 0.930 . S
C2174 C2173 1.376 . S
C2174 C2175 1.388 . S
C2175 H2162 0.930 . S
C2175 C2174 1.388 . S
C2175 C2176 1.390 . S
C2176 C2175 1.390 . S
C2176 C2177 1.394 . S
C2176 C2182 1.465 . S
C2177 C2172 1.399 . S
C2177 C2176 1.394 . S
C2177 C2178 1.516 . S
C2178 C2177 1.516 . S
C2178 C2179 1.502 . S
C2178 C2180 1.561 . S
C2178 C2181 1.526 . S
C2179 H2163 0.959 . S
C2179 H2164 0.959 . S
C2179 H2165 0.961 . S
C2179 C2178 1.502 . S
C2180 H2166 0.960 . S
C2180 H2167 0.961 . S
C2180 H2168 0.959 . S
C2180 C2178 1.561 . S
C2181 C2178 1.526 . S
C2181 C2182 1.396 . S
C2181 C2186 1.390 . S
C2182 C2176 1.465 . S
C2182 C2181 1.396 . S
C2182 C2183 1.399 . S
C2183 H2169 0.929 . S
C2183 C2182 1.399 . S
C2183 C2184 1.385 . S
C2184 H2170 0.931 . S
C2184 C2183 1.385 . S
C2184 C2185 1.389 . S
C2185 C2184 1.389 . S
C2185 C2186 1.387 . S
C2186 H2171 0.930 . S
C2186 C2181 1.390 . S
C2186 C2185 1.387 . S
H2187 C2199 0.930 . S
H2188 C2201 0.930 . S
H2189 C2202 0.930 . S
H2190 C2206 0.959 . S
H2191 C2206 0.959 . S
H2192 C2206 0.961 . S
H2193 C2207 0.960 . S
H2194 C2207 0.961 . S
H2195 C2207 0.959 . S
H2196 C2210 0.929 . S
H2197 C2211 0.931 . S
H2198 C2213 0.930 . S
C2199 H2187 0.930 . S
C2199 C2200 1.399 . S
C2199 C2204 1.399 . S
C2200 C2199 1.399 . S
C2200 C2201 1.376 . S
C2201 H2188 0.930 . S
C2201 C2200 1.376 . S
C2201 C2202 1.388 . S
C2202 H2189 0.930 . S
C2202 C2201 1.388 . S
C2202 C2203 1.390 . S
C2203 C2202 1.390 . S
C2203 C2204 1.394 . S
C2203 C2209 1.465 . S
C2204 C2199 1.399 . S
C2204 C2203 1.394 . S
C2204 C2205 1.516 . S
C2205 C2204 1.516 . S
C2205 C2206 1.502 . S
C2205 C2207 1.561 . S
C2205 C2208 1.526 . S
C2206 H2190 0.959 . S
C2206 H2191 0.959 . S
C2206 H2192 0.961 . S
C2206 C2205 1.502 . S
C2207 H2193 0.960 . S
C2207 H2194 0.961 . S
C2207 H2195 0.959 . S
C2207 C2205 1.561 . S
C2208 C2205 1.526 . S
C2208 C2209 1.396 . S
C2208 C2213 1.390 . S
C2209 C2203 1.465 . S
C2209 C2208 1.396 . S
C2209 C2210 1.399 . S
C2210 H2196 0.929 . S
C2210 C2209 1.399 . S
C2210 C2211 1.385 . S
C2211 H2197 0.931 . S
C2211 C2210 1.385 . S
C2211 C2212 1.389 . S
C2212 C2211 1.389 . S
C2212 C2213 1.387 . S
C2213 H2198 0.930 . S
C2213 C2208 1.390 . S
C2213 C2212 1.387 . S
H2214 C2226 0.930 . S
H2215 C2228 0.930 . S
H2216 C2229 0.930 . S
H2217 C2233 0.959 . S
H2218 C2233 0.959 . S
H2219 C2233 0.961 . S
H2220 C2234 0.960 . S
H2221 C2234 0.961 . S
H2222 C2234 0.959 . S
H2223 C2237 0.929 . S
H2224 C2238 0.931 . S
H2225 C2240 0.930 . S
C2226 H2214 0.930 . S
C2226 C2227 1.399 . S
C2226 C2231 1.399 . S
C2227 C2226 1.399 . S
C2227 C2228 1.376 . S
C2228 H2215 0.930 . S
C2228 C2227 1.376 . S
C2228 C2229 1.388 . S
C2229 H2216 0.930 . S
C2229 C2228 1.388 . S
C2229 C2230 1.390 . S
C2230 C2229 1.390 . S
C2230 C2231 1.394 . S
C2230 C2236 1.465 . S
C2231 C2226 1.399 . S
C2231 C2230 1.394 . S
C2231 C2232 1.516 . S
C2232 C2231 1.516 . S
C2232 C2233 1.502 . S
C2232 C2234 1.561 . S
C2232 C2235 1.526 . S
C2233 H2217 0.959 . S
C2233 H2218 0.959 . S
C2233 H2219 0.961 . S
C2233 C2232 1.502 . S
C2234 H2220 0.960 . S
C2234 H2221 0.961 . S
C2234 H2222 0.959 . S
C2234 C2232 1.561 . S
C2235 C2232 1.526 . S
C2235 C2236 1.396 . S
C2235 C2240 1.390 . S
C2236 C2230 1.465 . S
C2236 C2235 1.396 . S
C2236 C2237 1.399 . S
C2237 H2223 0.929 . S
C2237 C2236 1.399 . S
C2237 C2238 1.385 . S
C2238 H2224 0.931 . S
C2238 C2237 1.385 . S
C2238 C2239 1.389 . S
C2239 C2238 1.389 . S
C2239 C2240 1.387 . S
C2240 H2225 0.930 . S
C2240 C2235 1.390 . S
C2240 C2239 1.387 . S
H2241 C2253 0.930 . S
H2242 C2255 0.930 . S
H2243 C2256 0.930 . S
H2244 C2260 0.959 . S
H2245 C2260 0.959 . S
H2246 C2260 0.961 . S
H2247 C2261 0.960 . S
H2248 C2261 0.961 . S
H2249 C2261 0.959 . S
H2250 C2264 0.929 . S
H2251 C2265 0.931 . S
H2252 C2267 0.930 . S
C2253 H2241 0.930 . S
C2253 C2254 1.399 . S
C2253 C2258 1.399 . S
C2254 C2253 1.399 . S
C2254 C2255 1.376 . S
C2255 H2242 0.930 . S
C2255 C2254 1.376 . S
C2255 C2256 1.388 . S
C2256 H2243 0.930 . S
C2256 C2255 1.388 . S
C2256 C2257 1.390 . S
C2257 C2256 1.390 . S
C2257 C2258 1.394 . S
C2257 C2263 1.465 . S
C2258 C2253 1.399 . S
C2258 C2257 1.394 . S
C2258 C2259 1.516 . S
C2259 C2258 1.516 . S
C2259 C2260 1.502 . S
C2259 C2261 1.561 . S
C2259 C2262 1.526 . S
C2260 H2244 0.959 . S
C2260 H2245 0.959 . S
C2260 H2246 0.961 . S
C2260 C2259 1.502 . S
C2261 H2247 0.960 . S
C2261 H2248 0.961 . S
C2261 H2249 0.959 . S
C2261 C2259 1.561 . S
C2262 C2259 1.526 . S
C2262 C2263 1.396 . S
C2262 C2267 1.390 . S
C2263 C2257 1.465 . S
C2263 C2262 1.396 . S
C2263 C2264 1.399 . S
C2264 H2250 0.929 . S
C2264 C2263 1.399 . S
C2264 C2265 1.385 . S
C2265 H2251 0.931 . S
C2265 C2264 1.385 . S
C2265 C2266 1.389 . S
C2266 C2265 1.389 . S
C2266 C2267 1.387 . S
C2267 H2252 0.930 . S
C2267 C2262 1.390 . S
C2267 C2266 1.387 . S
H2268 C2280 0.930 . S
H2269 C2282 0.930 . S
H2270 C2283 0.930 . S
H2271 C2287 0.959 . S
H2272 C2287 0.959 . S
H2273 C2287 0.961 . S
H2274 C2288 0.960 . S
H2275 C2288 0.961 . S
H2276 C2288 0.959 . S
H2277 C2291 0.929 . S
H2278 C2292 0.931 . S
H2279 C2294 0.930 . S
C2280 H2268 0.930 . S
C2280 C2281 1.399 . S
C2280 C2285 1.399 . S
C2281 C2280 1.399 . S
C2281 C2282 1.376 . S
C2282 H2269 0.930 . S
C2282 C2281 1.376 . S
C2282 C2283 1.388 . S
C2283 H2270 0.930 . S
C2283 C2282 1.388 . S
C2283 C2284 1.390 . S
C2284 C2283 1.390 . S
C2284 C2285 1.394 . S
C2284 C2290 1.465 . S
C2285 C2280 1.399 . S
C2285 C2284 1.394 . S
C2285 C2286 1.516 . S
C2286 C2285 1.516 . S
C2286 C2287 1.502 . S
C2286 C2288 1.561 . S
C2286 C2289 1.526 . S
C2287 H2271 0.959 . S
C2287 H2272 0.959 . S
C2287 H2273 0.961 . S
C2287 C2286 1.502 . S
C2288 H2274 0.960 . S
C2288 H2275 0.961 . S
C2288 H2276 0.959 . S
C2288 C2286 1.561 . S
C2289 C2286 1.526 . S
C2289 C2290 1.396 . S
C2289 C2294 1.390 . S
C2290 C2284 1.465 . S
C2290 C2289 1.396 . S
C2290 C2291 1.399 . S
C2291 H2277 0.929 . S
C2291 C2290 1.399 . S
C2291 C2292 1.385 . S
C2292 H2278 0.931 . S
C2292 C2291 1.385 . S
C2292 C2293 1.389 . S
C2293 C2292 1.389 . S
C2293 C2294 1.387 . S
C2294 H2279 0.930 . S
C2294 C2289 1.390 . S
C2294 C2293 1.387 . S
H2295 C2307 0.930 . S
H2296 C2309 0.930 . S
H2297 C2310 0.930 . S
H2298 C2314 0.959 . S
H2299 C2314 0.959 . S
H2300 C2314 0.961 . S
H2301 C2315 0.960 . S
H2302 C2315 0.961 . S
H2303 C2315 0.959 . S
H2304 C2318 0.929 . S
H2305 C2319 0.931 . S
H2306 C2321 0.930 . S
C2307 H2295 0.930 . S
C2307 C2308 1.399 . S
C2307 C2312 1.399 . S
C2308 C2307 1.399 . S
C2308 C2309 1.376 . S
C2309 H2296 0.930 . S
C2309 C2308 1.376 . S
C2309 C2310 1.388 . S
C2310 H2297 0.930 . S
C2310 C2309 1.388 . S
C2310 C2311 1.390 . S
C2311 C2310 1.390 . S
C2311 C2312 1.394 . S
C2311 C2317 1.465 . S
C2312 C2307 1.399 . S
C2312 C2311 1.394 . S
C2312 C2313 1.516 . S
C2313 C2312 1.516 . S
C2313 C2314 1.502 . S
C2313 C2315 1.561 . S
C2313 C2316 1.526 . S
C2314 H2298 0.959 . S
C2314 H2299 0.959 . S
C2314 H2300 0.961 . S
C2314 C2313 1.502 . S
C2315 H2301 0.960 . S
C2315 H2302 0.961 . S
C2315 H2303 0.959 . S
C2315 C2313 1.561 . S
C2316 C2313 1.526 . S
C2316 C2317 1.396 . S
C2316 C2321 1.390 . S
C2317 C2311 1.465 . S
C2317 C2316 1.396 . S
C2317 C2318 1.399 . S
C2318 H2304 0.929 . S
C2318 C2317 1.399 . S
C2318 C2319 1.385 . S
C2319 H2305 0.931 . S
C2319 C2318 1.385 . S
C2319 C2320 1.389 . S
C2320 C2319 1.389 . S
C2320 C2321 1.387 . S
C2321 H2306 0.930 . S
C2321 C2316 1.390 . S
C2321 C2320 1.387 . S
H2322 C2334 0.930 . S
H2323 C2336 0.930 . S
H2324 C2337 0.930 . S
H2325 C2341 0.959 . S
H2326 C2341 0.959 . S
H2327 C2341 0.961 . S
H2328 C2342 0.960 . S
H2329 C2342 0.961 . S
H2330 C2342 0.959 . S
H2331 C2345 0.929 . S
H2332 C2346 0.931 . S
H2333 C2348 0.930 . S
C2334 H2322 0.930 . S
C2334 C2335 1.399 . S
C2334 C2339 1.399 . S
C2335 C2334 1.399 . S
C2335 C2336 1.376 . S
C2336 H2323 0.930 . S
C2336 C2335 1.376 . S
C2336 C2337 1.388 . S
C2337 H2324 0.930 . S
C2337 C2336 1.388 . S
C2337 C2338 1.390 . S
C2338 C2337 1.390 . S
C2338 C2339 1.394 . S
C2338 C2344 1.465 . S
C2339 C2334 1.399 . S
C2339 C2338 1.394 . S
C2339 C2340 1.516 . S
C2340 C2339 1.516 . S
C2340 C2341 1.502 . S
C2340 C2342 1.561 . S
C2340 C2343 1.526 . S
C2341 H2325 0.959 . S
C2341 H2326 0.959 . S
C2341 H2327 0.961 . S
C2341 C2340 1.502 . S
C2342 H2328 0.960 . S
C2342 H2329 0.961 . S
C2342 H2330 0.959 . S
C2342 C2340 1.561 . S
C2343 C2340 1.526 . S
C2343 C2344 1.396 . S
C2343 C2348 1.390 . S
C2344 C2338 1.465 . S
C2344 C2343 1.396 . S
C2344 C2345 1.399 . S
C2345 H2331 0.929 . S
C2345 C2344 1.399 . S
C2345 C2346 1.385 . S
C2346 H2332 0.931 . S
C2346 C2345 1.385 . S
C2346 C2347 1.389 . S
C2347 C2346 1.389 . S
C2347 C2348 1.387 . S
C2348 H2333 0.930 . S
C2348 C2343 1.390 . S
C2348 C2347 1.387 . S
H2349 C2361 0.930 . S
H2350 C2363 0.930 . S
H2351 C2364 0.930 . S
H2352 C2368 0.959 . S
H2353 C2368 0.959 . S
H2354 C2368 0.961 . S
H2355 C2369 0.960 . S
H2356 C2369 0.961 . S
H2357 C2369 0.959 . S
H2358 C2372 0.929 . S
H2359 C2373 0.931 . S
H2360 C2375 0.930 . S
C2361 H2349 0.930 . S
C2361 C2362 1.399 . S
C2361 C2366 1.399 . S
C2362 C2361 1.399 . S
C2362 C2363 1.376 . S
C2363 H2350 0.930 . S
C2363 C2362 1.376 . S
C2363 C2364 1.388 . S
C2364 H2351 0.930 . S
C2364 C2363 1.388 . S
C2364 C2365 1.390 . S
C2365 C2364 1.390 . S
C2365 C2366 1.394 . S
C2365 C2371 1.465 . S
C2366 C2361 1.399 . S
C2366 C2365 1.394 . S
C2366 C2367 1.516 . S
C2367 C2366 1.516 . S
C2367 C2368 1.502 . S
C2367 C2369 1.561 . S
C2367 C2370 1.526 . S
C2368 H2352 0.959 . S
C2368 H2353 0.959 . S
C2368 H2354 0.961 . S
C2368 C2367 1.502 . S
C2369 H2355 0.960 . S
C2369 H2356 0.961 . S
C2369 H2357 0.959 . S
C2369 C2367 1.561 . S
C2370 C2367 1.526 . S
C2370 C2371 1.396 . S
C2370 C2375 1.390 . S
C2371 C2365 1.465 . S
C2371 C2370 1.396 . S
C2371 C2372 1.399 . S
C2372 H2358 0.929 . S
C2372 C2371 1.399 . S
C2372 C2373 1.385 . S
C2373 H2359 0.931 . S
C2373 C2372 1.385 . S
C2373 C2374 1.389 . S
C2374 C2373 1.389 . S
C2374 C2375 1.387 . S
C2375 H2360 0.930 . S
C2375 C2370 1.390 . S
C2375 C2374 1.387 . S
H2376 C2388 0.930 . S
H2377 C2390 0.930 . S
H2378 C2391 0.930 . S
H2379 C2395 0.959 . S
H2380 C2395 0.959 . S
H2381 C2395 0.961 . S
H2382 C2396 0.960 . S
H2383 C2396 0.961 . S
H2384 C2396 0.959 . S
H2385 C2399 0.929 . S
H2386 C2400 0.931 . S
H2387 C2402 0.930 . S
C2388 H2376 0.930 . S
C2388 C2389 1.399 . S
C2388 C2393 1.399 . S
C2389 C2388 1.399 . S
C2389 C2390 1.376 . S
C2390 H2377 0.930 . S
C2390 C2389 1.376 . S
C2390 C2391 1.388 . S
C2391 H2378 0.930 . S
C2391 C2390 1.388 . S
C2391 C2392 1.390 . S
C2392 C2391 1.390 . S
C2392 C2393 1.394 . S
C2392 C2398 1.465 . S
C2393 C2388 1.399 . S
C2393 C2392 1.394 . S
C2393 C2394 1.516 . S
C2394 C2393 1.516 . S
C2394 C2395 1.502 . S
C2394 C2396 1.561 . S
C2394 C2397 1.526 . S
C2395 H2379 0.959 . S
C2395 H2380 0.959 . S
C2395 H2381 0.961 . S
C2395 C2394 1.502 . S
C2396 H2382 0.960 . S
C2396 H2383 0.961 . S
C2396 H2384 0.959 . S
C2396 C2394 1.561 . S
C2397 C2394 1.526 . S
C2397 C2398 1.396 . S
C2397 C2402 1.390 . S
C2398 C2392 1.465 . S
C2398 C2397 1.396 . S
C2398 C2399 1.399 . S
C2399 H2385 0.929 . S
C2399 C2398 1.399 . S
C2399 C2400 1.385 . S
C2400 H2386 0.931 . S
C2400 C2399 1.385 . S
C2400 C2401 1.389 . S
C2401 C2400 1.389 . S
C2401 C2402 1.387 . S
C2402 H2387 0.930 . S
C2402 C2397 1.390 . S
C2402 C2401 1.387 . S
H2403 C2415 0.930 . S
H2404 C2417 0.930 . S
H2405 C2418 0.930 . S
H2406 C2422 0.959 . S
H2407 C2422 0.959 . S
H2408 C2422 0.961 . S
H2409 C2423 0.960 . S
H2410 C2423 0.961 . S
H2411 C2423 0.959 . S
H2412 C2426 0.929 . S
H2413 C2427 0.931 . S
H2414 C2429 0.930 . S
C2415 H2403 0.930 . S
C2415 C2416 1.399 . S
C2415 C2420 1.399 . S
C2416 C2415 1.399 . S
C2416 C2417 1.376 . S
C2417 H2404 0.930 . S
C2417 C2416 1.376 . S
C2417 C2418 1.388 . S
C2418 H2405 0.930 . S
C2418 C2417 1.388 . S
C2418 C2419 1.390 . S
C2419 C2418 1.390 . S
C2419 C2420 1.394 . S
C2419 C2425 1.465 . S
C2420 C2415 1.399 . S
C2420 C2419 1.394 . S
C2420 C2421 1.516 . S
C2421 C2420 1.516 . S
C2421 C2422 1.502 . S
C2421 C2423 1.561 . S
C2421 C2424 1.526 . S
C2422 H2406 0.959 . S
C2422 H2407 0.959 . S
C2422 H2408 0.961 . S
C2422 C2421 1.502 . S
C2423 H2409 0.960 . S
C2423 H2410 0.961 . S
C2423 H2411 0.959 . S
C2423 C2421 1.561 . S
C2424 C2421 1.526 . S
C2424 C2425 1.396 . S
C2424 C2429 1.390 . S
C2425 C2419 1.465 . S
C2425 C2424 1.396 . S
C2425 C2426 1.399 . S
C2426 H2412 0.929 . S
C2426 C2425 1.399 . S
C2426 C2427 1.385 . S
C2427 H2413 0.931 . S
C2427 C2426 1.385 . S
C2427 C2428 1.389 . S
C2428 C2427 1.389 . S
C2428 C2429 1.387 . S
C2429 H2414 0.930 . S
C2429 C2424 1.390 . S
C2429 C2428 1.387 . S
C985 C162 1.458 . S
C997 C283 1.431 . S
C1012 C174 1.472 . S
C1024 C367 1.441 . S
C1039 C150 1.439 . S
C1051 C447 1.455 . S
C1066 C138 1.407 . S
C1078 C363 1.415 1_556 S
C1105 C451 1.393 . S
C1093 C114 1.429 . S
C1120 C126 1.390 . S
C1132 C279 1.410 1_556 S
C1159 C272 1.475 . S
C1147 C136 1.515 . S
C1186 C356 1.468 . S
C1174 C112 1.509 . S
C1201 C124 1.484 . S
C1213 C458 1.507 1_556 S
C1228 C160 1.499 . S
C1240 C374 1.422 . S
C1255 C172 1.444 . S
C1267 C440 1.380 . S
C1294 C290 1.388 . S
C1282 C148 1.465 . S
C1321 C535 1.422 . S
C1309 C18 1.454 . S
C1336 C30 1.465 . S
C1348 C619 1.421 . S
C1363 C6 1.427 . S
C1375 C699 1.446 . S
C1390 C210 1.435 . S
C1402 C615 1.427 . S
C1417 C186 1.436 . S
C1429 C703 1.372 . S
C1444 C198 1.393 . S
C1456 C531 1.378 . S
C1471 C208 1.515 . S
C1483 C524 1.475 . S
C1498 C184 1.506 . S
C1510 C608 1.464 . S
C1537 C710 1.486 . S
C1525 C196 1.478 . S
C1552 C16 1.453 . S
C1564 C626 1.466 . S
C1591 C692 1.437 . S
C1579 C28 1.473 . S
C1606 C4 1.486 . S
C1618 C542 1.421 . S
C1645 C787 1.414 . S
C1633 C90 1.455 . S
C1660 C102 1.467 . S
C1672 C871 1.389 . S
C1699 C951 1.418 . S
C1687 C78 1.437 . S
C1726 C867 1.426 . S
C1714 C66 1.435 . S
C1753 C955 1.365 . S
C1741 C42 1.420 . S
C1768 C54 1.413 . S
C1780 C783 1.399 . S
C1795 C64 1.513 . S
C1807 C776 1.466 . S
C1822 C40 1.535 . S
C1834 C860 1.505 . S
C1861 C962 1.503 . S
C1849 C52 1.482 . S
C1876 C88 1.500 . S
C1888 C878 1.423 . S
C1903 C100 1.472 . S
C1915 C944 1.412 . S
C1930 C76 1.483 . S
C1942 C794 1.405 . S
C1957 C189 1.572 . S
C1969 C286 1.495 . S
C1996 C370 1.494 . S
C1984 C201 1.640 . S
C2011 C213 1.562 . S
C2023 C442 1.446 . S
C2038 C81 1.585 . S
C2050 C358 1.458 . S
C2065 C93 1.563 . S
C2077 C454 1.417 . S
C2104 C274 1.324 . S
C2092 C105 1.543 . S
C2119 C45 1.553 . S
C2131 C538 1.462 . S
C2146 C57 1.637 . S
C2158 C622 1.473 . S
C2173 C69 1.565 . S
C2185 C694 1.449 . S
C2200 C153 1.592 . S
C2212 C610 1.327 . S
C2239 C706 1.445 . S
C2227 C165 1.567 . S
C2254 C177 1.546 . S
C2266 C526 1.406 . S
C2281 C117 1.542 . S
C2293 C790 1.416 . S
C2308 C129 1.639 . S
C2320 C874 1.517 . S
C2347 C946 1.445 . S
C2335 C141 1.562 . S
C2362 C9 1.589 . S
C2374 C862 1.460 . S
C2389 C21 1.584 . S
C2401 C958 1.495 . S
C2416 C33 1.548 . S
C2428 C778 1.401 . S
