# Generated by pormake.
# Topology llk, (3,12)-cn, num edge types: 1
# Building blocks:
#     Node 0, Type 0, BuildingBlock: BETDAH_clean_linker_0, # of connection points: 3
#     Node 1, Type 0, BuildingBlock: BETDAH_clean_linker_0, # of connection points: 3
#     Node 2, Type 0, BuildingBlock: BETDAH_clean_linker_0, # of connection points: 3
#     Node 3, Type 0, BuildingBlock: BETDAH_clean_linker_0, # of connection points: 3
#     Node 4, Type 0, BuildingBlock: BETDAH_clean_linker_0, # of connection points: 3
#     Node 5, Type 0, BuildingBlock: BETDAH_clean_linker_0, # of connection points: 3
#     Node 6, Type 0, BuildingBlock: BETDAH_clean_linker_0, # of connection points: 3
#     Node 7, Type 0, BuildingBlock: BETDAH_clean_linker_0, # of connection points: 3
#     Node 8, Type 0, BuildingBlock: BETDAH_clean_linker_0, # of connection points: 3
#     Node 9, Type 0, BuildingBlock: BETDAH_clean_linker_0, # of connection points: 3
#     Node 10, Type 0, BuildingBlock: BETDAH_clean_linker_0, # of connection points: 3
#     Node 11, Type 0, BuildingBlock: BETDAH_clean_linker_0, # of connection points: 3
#     Node 12, Type 0, BuildingBlock: BETDAH_clean_linker_0, # of connection points: 3
#     Node 13, Type 0, BuildingBlock: BETDAH_clean_linker_0, # of connection points: 3
#     Node 14, Type 0, BuildingBlock: BETDAH_clean_linker_0, # of connection points: 3
#     Node 15, Type 0, BuildingBlock: BETDAH_clean_linker_0, # of connection points: 3
#     Node 16, Type 0, BuildingBlock: BETDAH_clean_linker_0, # of connection points: 3
#     Node 17, Type 0, BuildingBlock: BETDAH_clean_linker_0, # of connection points: 3
#     Node 18, Type 0, BuildingBlock: BETDAH_clean_linker_0, # of connection points: 3
#     Node 19, Type 0, BuildingBlock: BETDAH_clean_linker_0, # of connection points: 3
#     Node 20, Type 0, BuildingBlock: BETDAH_clean_linker_0, # of connection points: 3
#     Node 21, Type 0, BuildingBlock: BETDAH_clean_linker_0, # of connection points: 3
#     Node 22, Type 0, BuildingBlock: BETDAH_clean_linker_0, # of connection points: 3
#     Node 23, Type 0, BuildingBlock: BETDAH_clean_linker_0, # of connection points: 3
#     Node 24, Type 1, BuildingBlock: EZIPEK_clean_sbu_0, # of connection points: 12
#     Node 25, Type 1, BuildingBlock: EZIPEK_clean_sbu_0, # of connection points: 12
#     Node 26, Type 1, BuildingBlock: EZIPEK_clean_sbu_0, # of connection points: 12
#     Node 27, Type 1, BuildingBlock: EZIPEK_clean_sbu_0, # of connection points: 12
#     Node 28, Type 1, BuildingBlock: EZIPEK_clean_sbu_0, # of connection points: 12
#     Node 29, Type 1, BuildingBlock: EZIPEK_clean_sbu_0, # of connection points: 12
#     Edge 30, Type (0, 1), None
#     Edge 31, Type (0, 1), None
#     Edge 32, Type (0, 1), None
#     Edge 33, Type (0, 1), None
#     Edge 34, Type (0, 1), None
#     Edge 35, Type (0, 1), None
#     Edge 36, Type (0, 1), None
#     Edge 37, Type (0, 1), None
#     Edge 38, Type (0, 1), None
#     Edge 39, Type (0, 1), None
#     Edge 40, Type (0, 1), None
#     Edge 41, Type (0, 1), None
#     Edge 42, Type (0, 1), None
#     Edge 43, Type (0, 1), None
#     Edge 44, Type (0, 1), None
#     Edge 45, Type (0, 1), None
#     Edge 46, Type (0, 1), None
#     Edge 47, Type (0, 1), None
#     Edge 48, Type (0, 1), None
#     Edge 49, Type (0, 1), None
#     Edge 50, Type (0, 1), None
#     Edge 51, Type (0, 1), None
#     Edge 52, Type (0, 1), None
#     Edge 53, Type (0, 1), None
#     Edge 54, Type (0, 1), None
#     Edge 55, Type (0, 1), None
#     Edge 56, Type (0, 1), None
#     Edge 57, Type (0, 1), None
#     Edge 58, Type (0, 1), None
#     Edge 59, Type (0, 1), None
#     Edge 60, Type (0, 1), None
#     Edge 61, Type (0, 1), None
#     Edge 62, Type (0, 1), None
#     Edge 63, Type (0, 1), None
#     Edge 64, Type (0, 1), None
#     Edge 65, Type (0, 1), None
#     Edge 66, Type (0, 1), None
#     Edge 67, Type (0, 1), None
#     Edge 68, Type (0, 1), None
#     Edge 69, Type (0, 1), None
#     Edge 70, Type (0, 1), None
#     Edge 71, Type (0, 1), None
#     Edge 72, Type (0, 1), None
#     Edge 73, Type (0, 1), None
#     Edge 74, Type (0, 1), None
#     Edge 75, Type (0, 1), None
#     Edge 76, Type (0, 1), None
#     Edge 77, Type (0, 1), None
#     Edge 78, Type (0, 1), None
#     Edge 79, Type (0, 1), None
#     Edge 80, Type (0, 1), None
#     Edge 81, Type (0, 1), None
#     Edge 82, Type (0, 1), None
#     Edge 83, Type (0, 1), None
#     Edge 84, Type (0, 1), None
#     Edge 85, Type (0, 1), None
#     Edge 86, Type (0, 1), None
#     Edge 87, Type (0, 1), None
#     Edge 88, Type (0, 1), None
#     Edge 89, Type (0, 1), None
#     Edge 90, Type (0, 1), None
#     Edge 91, Type (0, 1), None
#     Edge 92, Type (0, 1), None
#     Edge 93, Type (0, 1), None
#     Edge 94, Type (0, 1), None
#     Edge 95, Type (0, 1), None
#     Edge 96, Type (0, 1), None
#     Edge 97, Type (0, 1), None
#     Edge 98, Type (0, 1), None
#     Edge 99, Type (0, 1), None
#     Edge 100, Type (0, 1), None
#     Edge 101, Type (0, 1), None
# Relax obj value: 0.076
# Max RMSD: 0.166
# Mean RMSD: 0.122
data_MOF--net-llk--node1-EZIPEK_clean_sbu_0--node2-BETDAH_clean_linker_0--edge1-none
_symmetry_space_group_name_H-M    P1
_symmetry_Int_Tables_number       1
_symmetry_cell_setting            triclinic
loop_
_symmetry_equiv_pos_as_xyz
'x, y, z'
_cell_length_a     23.540184
_cell_length_b     23.679808
_cell_length_c     24.061733
_cell_angle_alpha  89.818542
_cell_angle_beta   89.914281
_cell_angle_gamma 89.951254
loop_
_atom_site_label
_atom_site_type_symbol
_atom_site_fract_x
_atom_site_fract_y
_atom_site_fract_z
_atom_type_partial_charge
H0 H 0.04947 0.25651 0.42546 0.0
H1 H 0.02306 0.35249 0.27673 0.0
H2 H 0.01924 0.17008 0.27199 0.0
C3 C 0.04033 0.25762 0.38144 0.0
C4 C 0.03216 0.20701 0.35328 0.0
C5 C 0.03441 0.30982 0.35553 0.0
C6 C 0.02678 0.31201 0.29744 0.0
C7 C 0.02318 0.26148 0.26645 0.0
C8 C 0.0245 0.20893 0.29505 0.0
N9 N 0.01689 0.26183 0.20726 0.0
C10 C 0.01647 0.30985 0.17292 0.0
H11 H 0.60437 0.04075 0.2613 0.0
H12 H 0.75335 0.0112 0.35762 0.0
H13 H 0.76308 0.01144 0.1779 0.0
C14 C 0.64932 0.03155 0.26271 0.0
C15 C 0.67923 0.02469 0.21243 0.0
C16 C 0.67481 0.02426 0.31496 0.0
C17 C 0.73331 0.01612 0.31743 0.0
C18 C 0.76569 0.01348 0.26812 0.0
C19 C 0.73837 0.0162 0.2156 0.0
N20 N 0.82558 0.00692 0.2706 0.0
C21 C 0.85645 0.00877 0.32004 0.0
H22 H 0.008 0.59028 0.26199 0.0
H23 H 0.02856 0.74218 0.35492 0.0
H24 H 0.02348 0.74834 0.17524 0.0
C25 C 0.01401 0.63553 0.26236 0.0
C26 C 0.01659 0.66475 0.21168 0.0
C27 C 0.01972 0.66248 0.31374 0.0
C28 C 0.02457 0.72124 0.31519 0.0
C29 C 0.02507 0.75278 0.26543 0.0
C30 C 0.02179 0.72426 0.21354 0.0
N31 N 0.02966 0.81285 0.2667 0.0
C32 C 0.02999 0.84519 0.31542 0.0
H33 H 0.26462 0.05624 0.41656 0.0
H34 H 0.36195 0.02175 0.27116 0.0
H35 H 0.17882 0.01073 0.26636 0.0
C36 C 0.26618 0.04469 0.37319 0.0
C37 C 0.21583 0.03097 0.34608 0.0
C38 C 0.3188 0.03741 0.34774 0.0
C39 C 0.32097 0.02677 0.29103 0.0
C40 C 0.27021 0.02005 0.2608 0.0
C41 C 0.2175 0.02025 0.28878 0.0
N42 N 0.27171 0.01029 0.20294 0.0
C43 C 0.32199 0.01221 0.17277 0.0
H44 H 0.00657 0.75741 0.59665 0.0
H45 H 0.01485 0.66304 0.74813 0.0
H46 H 0.01607 0.84562 0.75165 0.0
C47 C 0.01063 0.75685 0.64141 0.0
C48 C 0.01387 0.80776 0.66983 0.0
C49 C 0.01331 0.70503 0.66846 0.0
C50 C 0.0138 0.70339 0.72685 0.0
C51 C 0.01346 0.75426 0.75743 0.0
C52 C 0.01457 0.80651 0.72848 0.0
N53 N 0.01273 0.75438 0.81677 0.0
C54 C 0.01014 0.70616 0.85047 0.0
H55 H 0.2637 0.96773 0.60482 0.0
H56 H 0.36648 0.98626 0.74787 0.0
H57 H 0.18285 0.99739 0.76223 0.0
C58 C 0.26633 0.97459 0.64901 0.0
C59 C 0.21525 0.98391 0.67915 0.0
C60 C 0.32097 0.97793 0.67322 0.0
C61 C 0.32454 0.98398 0.72965 0.0
C62 C 0.27506 0.98916 0.7621 0.0
C63 C 0.22032 0.99019 0.73705 0.0
N64 N 0.28081 0.99581 0.81996 0.0
C65 C 0.33402 0.99611 0.84513 0.0
H66 H 0.98576 0.42084 0.76138 0.0
H67 H 0.01671 0.27053 0.66856 0.0
H68 H 0.01438 0.26469 0.84816 0.0
C69 C 0.99511 0.37612 0.76097 0.0
C70 C 1.00159 0.34751 0.81145 0.0
C71 C 1.0032 0.34965 0.70981 0.0
C72 C 0.01125 0.29122 0.70827 0.0
C73 C 0.01342 0.25979 0.75802 0.0
C74 C 0.01007 0.28837 0.80982 0.0
N75 N 0.02042 0.19998 0.7568 0.0
C76 C 0.02088 0.16765 0.7081 0.0
H77 H 0.76684 0.99304 0.59549 0.0
H78 H 0.67008 0.99153 0.74609 0.0
H79 H 0.85417 0.99252 0.75207 0.0
C80 C 0.76588 0.99328 0.64037 0.0
C81 C 0.81821 0.99397 0.66943 0.0
C82 C 0.71216 0.99313 0.66694 0.0
C83 C 0.71078 0.99181 0.72508 0.0
C84 C 0.76186 0.99109 0.75606 0.0
C85 C 0.8153 0.99237 0.72805 0.0
N86 N 0.76077 0.98941 0.81539 0.0
C87 C 0.71156 0.99057 0.84828 0.0
H88 H 0.42998 0.25639 0.02074 0.0
H89 H 0.2827 0.35556 0.9896 0.0
H90 H 0.27138 0.1726 0.98823 0.0
C91 C 0.38524 0.2579 0.01074 0.0
C92 C 0.35537 0.20626 1.00337 0.0
C93 C 0.35997 0.31178 1.00382 0.0
C94 C 0.30215 0.31443 0.99474 0.0
C95 C 0.26975 0.26461 0.99062 0.0
C96 C 0.29638 0.21052 0.99381 0.0
N97 N 0.21037 0.26878 0.98179 0.0
C98 C 0.18104 0.32005 0.98448 0.0
H99 H 0.4326 0.75728 0.99704 0.0
H100 H 0.28158 0.65939 0.00746 0.0
H101 H 0.27159 0.84246 0.00999 0.0
C102 C 0.38686 0.75617 1.00131 0.0
C103 C 0.35659 0.808 0.00533 0.0
C104 C 0.36042 0.70251 0.00406 0.0
C105 C 0.30183 0.70039 0.00573 0.0
C106 C 0.26957 0.75057 0.00668 0.0
C107 C 0.29683 0.80431 0.00724 0.0
N108 N 0.20951 0.74722 0.00857 0.0
C109 C 0.18026 0.69593 0.00935 0.0
H110 H 0.77129 0.40323 0.03569 0.0
H111 H 0.67165 0.26761 0.97379 0.0
H112 H 0.85497 0.26041 0.96307 0.0
C113 C 0.7691 0.36243 0.01592 0.0
C114 C 0.81948 0.33714 0.99749 0.0
C115 C 0.7158 0.33936 0.00451 0.0
C116 C 0.71294 0.28561 0.9826 0.0
C117 C 0.76313 0.25551 0.97087 0.0
C118 C 0.81665 0.28213 0.97591 0.0
N119 N 0.75943 0.19851 0.95436 0.0
C120 C 0.71129 0.1674 0.96774 0.0
H121 H 0.77077 0.61061 0.99507 0.0
H122 H 0.6704 0.74451 0.05997 0.0
H123 H 0.8538 0.75262 0.06961 0.0
C124 C 0.76846 0.65103 0.01564 0.0
C125 C 0.81882 0.6763 0.03401 0.0
C126 C 0.71499 0.67376 0.02756 0.0
C127 C 0.71181 0.72691 0.05062 0.0
C128 C 0.7618 0.75696 0.0628 0.0
C129 C 0.81559 0.73085 0.05676 0.0
N130 N 0.75747 0.81359 0.08035 0.0
C131 C 0.70973 0.84488 0.06589 0.0
H132 H 0.54905 0.75674 0.92553 0.0
H133 H 0.52302 0.85262 0.77667 0.0
H134 H 0.51944 0.67019 0.77201 0.0
C135 C 0.54007 0.75781 0.88148 0.0
C136 C 0.53212 0.70716 0.85333 0.0
C137 C 0.53422 0.81 0.85551 0.0
C138 C 0.52671 0.81215 0.79741 0.0
C139 C 0.52321 0.7616 0.76645 0.0
C140 C 0.52456 0.70906 0.79508 0.0
N141 N 0.517 0.76194 0.70724 0.0
C142 C 0.51653 0.80998 0.67291 0.0
H143 H 0.10445 0.54061 0.76134 0.0
H144 H 0.25337 0.51095 0.85769 0.0
H145 H 0.26311 0.5109 0.67797 0.0
C146 C 0.14939 0.53133 0.76275 0.0
C147 C 0.17928 0.52432 0.71249 0.0
C148 C 0.17485 0.52405 0.81501 0.0
C149 C 0.23334 0.51586 0.81749 0.0
C150 C 0.26573 0.51313 0.76819 0.0
C151 C 0.23841 0.51576 0.71567 0.0
N152 N 0.32561 0.50659 0.7707 0.0
C153 C 0.35649 0.50904 0.82011 0.0
H154 H 0.50705 0.0906 0.76194 0.0
H155 H 0.52829 0.24245 0.85481 0.0
H156 H 0.52357 0.24852 0.67511 0.0
C157 C 0.51333 0.13582 0.76229 0.0
C158 C 0.51622 0.16498 0.7116 0.0
C159 C 0.51914 0.16277 0.81366 0.0
C160 C 0.52422 0.22151 0.81508 0.0
C161 C 0.52492 0.25302 0.76531 0.0
C162 C 0.52166 0.22447 0.71343 0.0
N163 N 0.52974 0.31306 0.76656 0.0
C164 C 0.53004 0.34539 0.8153 0.0
H165 H 0.76466 0.55643 0.91661 0.0
H166 H 0.86193 0.5217 0.7712 0.0
H167 H 0.67881 0.51075 0.76647 0.0
C168 C 0.76621 0.54482 0.87325 0.0
C169 C 0.71586 0.53107 0.84616 0.0
C170 C 0.81881 0.53747 0.84779 0.0
C171 C 0.82097 0.52678 0.79108 0.0
C172 C 0.77019 0.52005 0.76088 0.0
C173 C 0.7175 0.5203 0.78887 0.0
N174 N 0.77165 0.51023 0.70302 0.0
C175 C 0.8219 0.51211 0.67281 0.0
H176 H 0.50614 0.25753 0.0967 0.0
H177 H 0.51501 0.16314 0.24811 0.0
H178 H 0.51609 0.34573 0.25168 0.0
C179 C 0.51037 0.25698 0.14144 0.0
C180 C 0.5137 0.30787 0.16987 0.0
C181 C 0.51325 0.20517 0.16846 0.0
C182 C 0.51385 0.2035 0.22685 0.0
C183 C 0.5135 0.25437 0.25744 0.0
C184 C 0.51454 0.30661 0.22851 0.0
N185 N 0.51285 0.25449 0.31678 0.0
C186 C 0.51021 0.20628 0.35047 0.0
H187 H 0.76375 0.46789 0.10484 0.0
H188 H 0.86652 0.48602 0.24791 0.0
H189 H 0.68288 0.49717 0.26231 0.0
C190 C 0.76636 0.47465 0.14904 0.0
C191 C 0.71527 0.48387 0.1792 0.0
C192 C 0.82101 0.4779 0.17326 0.0
C193 C 0.82458 0.48382 0.2297 0.0
C194 C 0.77509 0.48897 0.26215 0.0
C195 C 0.72034 0.49004 0.23712 0.0
N196 N 0.78087 0.49552 0.32003 0.0
C197 C 0.83409 0.49599 0.34516 0.0
H198 H 0.4869 0.92118 0.26131 0.0
H199 H 0.51703 0.7707 0.1685 0.0
H200 H 0.51419 0.76481 0.3481 0.0
C201 C 0.49592 0.87641 0.26091 0.0
C202 C 0.502 0.84772 0.31139 0.0
C203 C 0.5039 0.8499 0.20974 0.0
C204 C 0.51166 0.79142 0.20821 0.0
C205 C 0.51357 0.75997 0.25795 0.0
C206 C 0.51017 0.78854 0.30976 0.0
N207 N 0.52025 0.70012 0.25675 0.0
C208 C 0.52077 0.66776 0.20808 0.0
H209 H 0.26688 0.49308 0.09553 0.0
H210 H 0.1701 0.49118 0.24612 0.0
H211 H 0.35419 0.49232 0.25211 0.0
C212 C 0.26592 0.49322 0.1404 0.0
C213 C 0.31824 0.49389 0.16947 0.0
C214 C 0.21219 0.49297 0.16696 0.0
C215 C 0.2108 0.49154 0.22511 0.0
C216 C 0.26188 0.49081 0.25609 0.0
C217 C 0.31532 0.49219 0.22809 0.0
N218 N 0.2608 0.48901 0.31543 0.0
C219 C 0.21159 0.4901 0.34834 0.0
H220 H 0.93027 0.75627 0.52018 0.0
H221 H 0.78285 0.8555 0.48991 0.0
H222 H 0.77144 0.67254 0.48856 0.0
C223 C 0.88548 0.75778 0.51042 0.0
C224 C 0.85556 0.70615 0.50324 0.0
C225 C 0.86017 0.81167 0.5037 0.0
C226 C 0.8023 0.81435 0.49489 0.0
C227 C 0.76986 0.76456 0.49089 0.0
C228 C 0.7965 0.71045 0.49398 0.0
N229 N 0.71044 0.7688 0.48233 0.0
C230 C 0.68116 0.82012 0.4849 0.0
H231 H 0.93246 0.25715 0.49675 0.0
H232 H 0.7814 0.15936 0.50749 0.0
H233 H 0.77154 0.34244 0.50997 0.0
C234 C 0.88673 0.25606 0.5011 0.0
C235 C 0.85649 0.30791 0.50517 0.0
C236 C 0.86026 0.20242 0.50394 0.0
C237 C 0.80167 0.20034 0.5057 0.0
C238 C 0.76946 0.25056 0.50666 0.0
C239 C 0.79675 0.30427 0.50717 0.0
N240 N 0.7094 0.2473 0.50863 0.0
C241 C 0.68013 0.19605 0.50941 0.0
H242 H 0.27139 0.9036 0.53504 0.0
H243 H 0.17181 0.76798 0.47307 0.0
H244 H 0.35516 0.76035 0.46332 0.0
C245 C 0.26921 0.8628 0.51527 0.0
C246 C 0.3196 0.83739 0.49704 0.0
C247 C 0.21592 0.83975 0.50381 0.0
C248 C 0.21308 0.78602 0.48191 0.0
C249 C 0.26327 0.75572 0.47069 0.0
C250 C 0.31681 0.78227 0.47573 0.0
N251 N 0.25947 0.69836 0.4555 0.0
C252 C 0.21182 0.66763 0.47116 0.0
H253 H 0.27065 0.11104 0.49421 0.0
H254 H 0.17011 0.24483 0.55907 0.0
H255 H 0.35347 0.25257 0.56984 0.0
C256 C 0.2683 0.15146 0.51479 0.0
C257 C 0.31862 0.17661 0.53342 0.0
C258 C 0.2148 0.17418 0.52664 0.0
C259 C 0.21156 0.22732 0.54976 0.0
C260 C 0.26151 0.25717 0.56253 0.0
C261 C 0.31531 0.23102 0.55648 0.0
N262 N 0.25723 0.31333 0.58155 0.0
C263 C 0.20875 0.34476 0.56994 0.0
C264 C 0.01751 0.8598 0.63522 0.0
C265 C 0.03045 0.8833 0.36259 0.0
C266 C 0.02103 0.12956 0.66098 0.0
C267 C 0.02988 0.15479 0.38809 0.0
C268 C 0.89602 0.1504 0.50902 0.0
C269 C 0.89672 0.86334 0.50214 0.0
C270 C 0.16469 0.13747 0.52195 0.0
C271 C 0.16561 0.87633 0.50794 0.0
C272 C 0.16523 0.0227 0.38155 0.0
C273 C 0.89449 0.01158 0.36679 0.0
C274 C 0.16148 0.99286 0.64525 0.0
C275 C 0.87289 0.99734 0.63525 0.0
Eu276 Eu 0.02809 0.90196 0.50039 0.0
O277 O 0.97743 0.96189 0.45373 0.0
O278 O 0.07128 0.95256 0.55987 0.0
Eu279 Eu 0.91686 0.00695 0.50407 0.0
Eu280 Eu 0.12641 0.00698 0.51428 0.0
O281 O 0.97418 0.9544 0.55191 0.0
O282 O 0.07809 0.96131 0.45519 0.0
Eu283 Eu 0.01811 0.99623 0.61966 0.0
Eu284 Eu 0.02889 0.01733 0.40356 0.0
O285 O 0.97163 0.05071 0.56278 0.0
O286 O 0.9779 0.0613 0.46442 0.0
O287 O 0.07542 0.06216 0.46663 0.0
O288 O 0.07163 0.05115 0.57036 0.0
Eu289 Eu 0.02652 0.11187 0.52257 0.0
O290 O 0.02481 0.85121 0.58056 0.0
O291 O 0.02887 0.86112 0.4139 0.0
O292 O 0.02415 0.15172 0.60968 0.0
O293 O 0.02906 0.16351 0.44314 0.0
O294 O 0.87535 0.09759 0.50057 0.0
O295 O 0.87515 0.91648 0.50448 0.0
O296 O 0.17771 0.08369 0.517 0.0
O297 O 0.17798 0.93005 0.5149 0.0
O298 O 0.11353 0.02559 0.35961 0.0
O299 O 0.94871 0.01821 0.3532 0.0
O300 O 0.10759 0.98674 0.66477 0.0
O301 O 0.92545 0.99305 0.65813 0.0
O302 O 0.11196 0.15793 0.5268 0.0
O303 O 0.94885 0.16245 0.52256 0.0
O304 O 0.1134 0.85591 0.5 0.0
O305 O 0.95102 0.85069 0.4973 0.0
O306 O 0.03167 0.93826 0.35033 0.0
O307 O 0.0287 0.10437 0.36372 0.0
O308 O 0.01311 0.90997 0.65953 0.0
O309 O 0.0183 0.07471 0.67337 0.0
O310 O 0.86328 1.00441 0.58108 0.0
O311 O 0.87359 1.00615 0.41842 0.0
O312 O 0.17405 1.00579 0.59313 0.0
O313 O 0.17661 0.01324 0.43507 0.0
C314 C 0.5076 0.88577 0.15961 0.0
C315 C 0.51607 0.15457 0.13311 0.0
C316 C 0.53244 0.86035 0.89177 0.0
C317 C 0.52136 0.12739 0.86442 0.0
C318 C 0.66461 0.99307 0.88747 0.0
C319 C 0.6447 0.02268 0.15979 0.0
C320 C 0.38152 0.99842 0.88158 0.0
C321 C 0.37007 0.01329 0.13656 0.0
C322 C 0.39054 0.15192 1.00212 0.0
C323 C 0.66474 0.13391 0.98689 0.0
C324 C 0.39137 0.86215 0.01078 0.0
C325 C 0.66362 0.88077 0.05042 0.0
Eu326 Eu 0.51096 0.01923 0.11666 0.0
O327 O 0.56886 0.06384 0.06152 0.0
O328 O 0.46681 0.96161 0.06455 0.0
Eu329 Eu 0.62831 0.00834 0.02162 0.0
Eu330 Eu 0.41175 0.00699 0.00909 0.0
O331 O 0.56781 0.96466 0.07211 0.0
O332 O 0.46725 0.06337 0.05237 0.0
Eu333 Eu 0.52438 0.9021 0.02557 0.0
Eu334 Eu 0.52428 0.11225 1.00045 0.0
O335 O 0.57546 0.95304 0.97225 0.0
O336 O 0.57419 0.04925 0.96171 0.0
O337 O 0.47258 0.05112 0.95724 0.0
O338 O 0.47315 0.95205 0.96936 0.0
Eu339 Eu 0.5242 0.99518 0.90912 0.0
O340 O 0.50716 0.94116 0.16907 0.0
O341 O 0.50628 0.1046 0.15626 0.0
O342 O 0.52639 0.91057 0.86806 0.0
O343 O 0.52493 0.07213 0.85532 0.0
O344 O 0.67882 0.99636 0.94123 0.0
O345 O 0.66889 0.0191 0.10919 0.0
O346 O 0.36409 0.00669 0.93248 0.0
O347 O 0.35697 0.00686 0.08377 0.0
O348 O 0.44546 0.1631 0.99659 0.0
O349 O 0.6113 0.15295 0.98171 0.0
O350 O 0.44568 0.85102 0.02075 0.0
O351 O 0.61053 0.8603 0.04689 0.0
O352 O 0.43581 0.99177 0.86417 0.0
O353 O 0.61165 0.99281 0.86702 0.0
O354 O 0.42238 0.02002 0.15743 0.0
O355 O 0.58895 0.02272 0.16892 0.0
O356 O 0.52744 0.16382 0.07924 0.0
O357 O 0.51991 0.15181 0.91434 0.0
O358 O 0.51328 0.86152 0.11003 0.0
O359 O 0.53464 0.8507 0.94669 0.0
O360 O 0.67957 0.93284 0.03977 0.0
O361 O 0.68015 0.08449 0.00696 0.0
O362 O 0.36971 0.91528 0.00535 0.0
O363 O 0.36885 0.09874 0.00711 0.0
C364 C 0.01572 0.35708 0.13397 0.0
C365 C 1.00245 0.38291 0.86302 0.0
C366 C 0.01514 0.62984 0.15947 0.0
C367 C 0.00804 0.65861 0.88855 0.0
C368 C 0.87067 0.64021 0.03234 0.0
C369 C 0.87088 0.37362 0.99723 0.0
C370 C 0.14207 0.64864 0.01192 0.0
C371 C 0.14234 0.36689 0.98921 0.0
C372 C 0.13784 0.52165 0.86508 0.0
C373 C 0.86886 0.53196 0.88364 0.0
C374 C 0.15939 0.49556 0.13168 0.0
C375 C 0.87247 0.48246 0.13743 0.0
Eu376 Eu 0.00839 0.39873 0.9992 0.0
O377 O 0.95806 0.46058 0.95543 0.0
O378 O 0.06226 0.45231 0.04966 0.0
Eu379 Eu 0.90844 0.50739 0.01223 0.0
Eu380 Eu 0.11698 0.50772 1.00134 0.0
O381 O 0.96381 0.45154 0.05619 0.0
O382 O 0.05638 0.46182 0.95256 0.0
Eu383 Eu 0.01606 0.49528 0.11507 0.0
Eu384 Eu 0.00454 0.51919 0.90503 0.0
O385 O 0.96335 0.55216 0.06765 0.0
O386 O 0.95818 0.56547 0.96652 0.0
O387 O 0.05607 0.56358 0.96402 0.0
O388 O 0.062 0.5516 0.05978 0.0
Eu389 Eu 0.00837 0.61581 0.02175 0.0
O390 O 0.01162 0.34511 0.07955 0.0
O391 O 0.00525 0.35835 0.91303 0.0
O392 O 0.01231 0.65466 0.10939 0.0
O393 O 0.00785 0.67047 0.94297 0.0
O394 O 0.85926 0.58524 0.03233 0.0
O395 O 0.8591 0.42855 0.99696 0.0
O396 O 0.16109 0.59562 1.00329 0.0
O397 O 0.16168 0.42044 0.99196 0.0
O398 O 0.08278 0.52378 0.85397 0.0
O399 O 0.92034 0.52825 0.86123 0.0
O400 O 0.10686 0.49213 0.15426 0.0
O401 O 0.92615 0.48638 0.15782 0.0
O402 O 0.08903 0.66407 0.02159 0.0
O403 O 0.92277 0.6622 0.02812 0.0
O404 O 0.08875 0.35058 0.99133 0.0
O405 O 0.92319 0.35188 0.99898 0.0
O406 O 1.0017 0.43885 0.85409 0.0
O407 O 0.00707 0.60704 0.86618 0.0
O408 O 0.01867 0.40872 0.1558 0.0
O409 O 0.01688 0.57395 0.16797 0.0
O410 O 0.85862 0.48719 0.08492 0.0
O411 O 0.8572 0.52632 0.93725 0.0
O412 O 0.1701 0.5018 0.07775 0.0
O413 O 0.16017 0.5152 0.91591 0.0
C414 C 0.51737 0.35988 0.13526 0.0
C415 C 0.52099 0.62964 0.16097 0.0
C416 C 0.53048 0.38343 0.86252 0.0
C417 C 0.52996 0.65491 0.88816 0.0
C418 C 0.66528 0.52276 0.88163 0.0
C419 C 0.66148 0.49279 0.14529 0.0
C420 C 0.39453 0.51178 0.86685 0.0
C421 C 0.37292 0.49734 0.13529 0.0
C422 C 0.39617 0.65049 0.00907 0.0
C423 C 0.66484 0.63719 0.0226 0.0
C424 C 0.39657 0.36342 1.00222 0.0
C425 C 0.66551 0.37605 0.00838 0.0
Eu426 Eu 0.51812 0.49629 0.11962 0.0
O427 O 0.57173 0.55109 0.07032 0.0
O428 O 0.47422 0.45438 0.05184 0.0
Eu429 Eu 0.62641 0.50683 0.01431 0.0
Eu430 Eu 0.4169 0.50704 0.00413 0.0
O431 O 0.57117 0.45246 0.05977 0.0
O432 O 0.47161 0.55082 0.06282 0.0
Eu433 Eu 0.52803 0.40182 1.00038 0.0
Eu434 Eu 0.52663 0.61186 0.02263 0.0
O435 O 0.57802 0.46118 0.95518 0.0
O436 O 0.57556 0.56215 0.96664 0.0
O437 O 0.47797 0.56133 0.96446 0.0
O438 O 0.4775 0.46193 0.95379 0.0
Eu439 Eu 0.52894 0.51743 0.9036 0.0
O440 O 0.51308 0.41007 0.15955 0.0
O441 O 0.5183 0.57478 0.17336 0.0
O442 O 0.53169 0.4384 0.85031 0.0
O443 O 0.52868 0.6045 0.86378 0.0
O444 O 0.67666 0.5132 0.93513 0.0
O445 O 0.67404 0.50555 0.09314 0.0
O446 O 0.37364 0.50626 0.91848 0.0
O447 O 0.36331 0.50447 0.08112 0.0
O448 O 0.44903 0.66253 0.02252 0.0
O449 O 0.61214 0.65775 0.02731 0.0
O450 O 0.45085 0.3507 0.99727 0.0
O451 O 0.61329 0.35566 1.00039 0.0
O452 O 0.44875 0.5184 0.85325 0.0
O453 O 0.61359 0.52571 0.85969 0.0
O454 O 0.42548 0.49304 0.15814 0.0
O455 O 0.60757 0.48679 0.16481 0.0
O456 O 0.52412 0.65179 0.10968 0.0
O457 O 0.52931 0.6636 0.94322 0.0
O458 O 0.52461 0.35123 0.0806 0.0
O459 O 0.52889 0.36116 0.91379 0.0
O460 O 0.67793 0.4298 0.01509 0.0
O461 O 0.67778 0.58342 0.0174 0.0
O462 O 0.37508 0.41659 0.0046 0.0
O463 O 0.37546 0.59769 1.00067 0.0
C464 C 0.00699 0.38553 0.65971 0.0
C465 C 0.0326 0.36011 0.39185 0.0
C466 C 0.01608 0.65438 0.63317 0.0
C467 C 0.02188 0.62707 0.36451 0.0
C468 C 0.89069 0.65177 0.50204 0.0
C469 C 0.89127 0.36202 0.51066 0.0
C470 C 0.1651 0.63339 0.48829 0.0
C471 C 0.16305 0.38023 0.55223 0.0
C472 C 0.16465 0.49254 0.38756 0.0
C473 C 0.8816 0.49832 0.38162 0.0
C474 C 0.14473 0.52224 0.65987 0.0
C475 C 0.87 0.51316 0.63662 0.0
Eu476 Eu 0.02421 0.40187 0.52568 0.0
O477 O 0.97305 0.45186 0.46945 0.0
O478 O 0.06765 0.46437 0.57233 0.0
Eu479 Eu 0.91177 0.50684 0.50913 0.0
Eu480 Eu 0.12832 0.5076 0.52171 0.0
O481 O 0.96676 0.46155 0.56469 0.0
O482 O 0.07556 0.45244 0.47223 0.0
Eu483 Eu 0.01091 0.51897 0.61691 0.0
Eu484 Eu 0.02426 0.49484 0.40926 0.0
O485 O 0.96736 0.56315 0.55255 0.0
O486 O 0.9727 0.55093 0.45733 0.0
O487 O 0.07433 0.54884 0.46189 0.0
O488 O 0.06885 0.56324 0.56159 0.0
Eu489 Eu 0.02447 0.61191 0.50056 0.0
O490 O 0.01249 0.36131 0.61009 0.0
O491 O 0.03489 0.35047 0.44679 0.0
O492 O 0.0273 0.66358 0.57928 0.0
O493 O 0.02059 0.6515 0.41443 0.0
O494 O 0.86894 0.59862 0.5071 0.0
O495 O 0.86966 0.41517 0.50532 0.0
O496 O 0.18035 0.58363 0.50759 0.0
O497 O 0.17928 0.43204 0.54072 0.0
O498 O 0.11169 0.49247 0.36711 0.0
O499 O 0.93589 0.49148 0.36426 0.0
O500 O 0.08899 0.52237 0.66904 0.0
O501 O 0.92229 0.51985 0.65756 0.0
O502 O 0.11173 0.65263 0.4831 0.0
O503 O 0.94565 0.66285 0.4965 0.0
O504 O 0.10992 0.35991 0.54849 0.0
O505 O 0.94556 0.35084 0.52063 0.0
O506 O 0.02636 0.41031 0.36816 0.0
O507 O 0.02511 0.57179 0.35543 0.0
O508 O 0.00692 0.4409 0.66925 0.0
O509 O 0.0064 0.60442 0.65641 0.0
O510 O 0.85695 0.50674 0.58381 0.0
O511 O 0.86416 0.5067 0.43249 0.0
O512 O 0.1689 0.51851 0.60927 0.0
O513 O 0.17886 0.4956 0.44134 0.0
C514 C 0.51573 0.85722 0.63397 0.0
C515 C 0.50268 0.88308 0.363 0.0
C516 C 0.51491 0.13003 0.65943 0.0
C517 C 0.50807 0.15874 0.38854 0.0
C518 C 0.37045 0.14043 0.53194 0.0
C519 C 0.37102 0.87379 0.49693 0.0
C520 C 0.64196 0.14877 0.51197 0.0
C521 C 0.64243 0.867 0.48945 0.0
C522 C 0.63781 0.02182 0.36505 0.0
C523 C 0.36885 0.03198 0.38359 0.0
C524 C 0.65935 0.99575 0.63166 0.0
C525 C 0.37243 0.98254 0.63739 0.0
Eu526 Eu 0.50845 0.89888 0.49919 0.0
O527 O 0.4581 0.96074 0.45546 0.0
O528 O 0.56225 0.95248 0.54967 0.0
Eu529 Eu 0.40841 0.00757 0.5122 0.0
Eu530 Eu 0.61697 0.00786 0.50133 0.0
O531 O 0.4638 0.9517 0.55615 0.0
O532 O 0.55642 0.96195 0.45252 0.0
Eu533 Eu 0.51601 0.99544 0.61506 0.0
Eu534 Eu 0.50454 0.01933 0.40502 0.0
O535 O 0.46326 0.05233 0.56768 0.0
O536 O 0.45813 0.06563 0.46647 0.0
O537 O 0.55602 0.06372 0.46404 0.0
O538 O 0.56192 0.05174 0.55974 0.0
Eu539 Eu 0.50826 0.11596 0.52173 0.0
O540 O 0.51163 0.84526 0.57955 0.0
O541 O 0.50548 0.85849 0.41301 0.0
O542 O 0.51206 0.15483 0.60934 0.0
O543 O 0.50784 0.17061 0.44296 0.0
O544 O 0.35902 0.08546 0.53192 0.0
O545 O 0.35926 0.92872 0.49665 0.0
O546 O 0.66101 0.09577 0.5033 0.0
O547 O 0.66174 0.92057 0.49214 0.0
O548 O 0.58276 0.02399 0.35396 0.0
O549 O 0.42034 0.0283 0.36119 0.0
O550 O 0.60683 0.99231 0.65424 0.0
O551 O 0.4261 0.98644 0.65778 0.0
O552 O 0.58892 0.16419 0.52166 0.0
O553 O 0.4226 0.16237 0.52792 0.0
O554 O 0.58883 0.8507 0.4915 0.0
O555 O 0.4233 0.85202 0.49883 0.0
O556 O 0.50179 0.93901 0.35411 0.0
O557 O 0.50708 0.10718 0.36617 0.0
O558 O 0.51866 0.90887 0.65579 0.0
O559 O 0.51677 0.07414 0.66796 0.0
O560 O 0.35857 0.98737 0.58489 0.0
O561 O 0.35719 0.02638 0.4372 0.0
O562 O 0.67007 1.00201 0.57774 0.0
O563 O 0.66015 0.01534 0.41587 0.0
loop_
_geom_bond_atom_site_label_1
_geom_bond_atom_site_label_2
_geom_bond_distance
_geom_bond_site_symmetry_2
_ccdc_geom_bond_type
H0 C3 0.929 . S
H1 C6 0.929 . S
H2 C8 0.930 . S
C3 H0 0.929 . S
C3 C4 1.398 . S
C3 C5 1.396 . S
C4 C3 1.398 . S
C4 C8 1.407 . S
C5 C3 1.396 . S
C5 C6 1.394 . S
C6 H1 0.929 . S
C6 C5 1.394 . S
C6 C7 1.382 . S
C7 C6 1.382 . S
C7 C8 1.392 . S
C7 N9 1.420 . S
C8 H2 0.930 . S
C8 C4 1.407 . S
C8 C7 1.392 . S
N9 C7 1.420 . S
N9 C10 1.244 . S
C10 N9 1.244 . S
H11 C14 0.929 . S
H12 C17 0.929 . S
H13 C19 0.930 . S
C14 H11 0.929 . S
C14 C15 1.398 1_545 S
C14 C16 1.397 . S
C15 C14 1.398 1_565 S
C15 C19 1.408 . S
C16 C14 1.397 . S
C16 C17 1.393 1_545 S
C17 H12 0.929 . S
C17 C16 1.393 1_565 S
C17 C18 1.382 . S
C18 C17 1.382 . S
C18 C19 1.392 . S
C18 N20 1.420 . S
C19 H13 0.930 . S
C19 C15 1.408 . S
C19 C18 1.392 . S
N20 C18 1.420 . S
N20 C21 1.244 1_565 S
C21 N20 1.244 1_545 S
H22 C25 0.929 1_655 S
H23 C28 0.929 . S
H24 C30 0.930 . S
C25 H22 0.929 1_455 S
C25 C26 1.398 . S
C25 C27 1.396 . S
C26 C25 1.398 . S
C26 C30 1.407 . S
C27 C25 1.396 . S
C27 C28 1.394 . S
C28 H23 0.929 . S
C28 C27 1.394 . S
C28 C29 1.382 . S
C29 C28 1.382 . S
C29 C30 1.392 . S
C29 N31 1.420 . S
C30 H24 0.930 . S
C30 C26 1.407 . S
C30 C29 1.392 . S
N31 C29 1.420 . S
N31 C32 1.244 . S
C32 N31 1.244 . S
H33 C36 0.929 . S
H34 C39 0.929 . S
H35 C41 0.930 . S
C36 H33 0.929 . S
C36 C37 1.398 . S
C36 C38 1.397 . S
C37 C36 1.398 . S
C37 C41 1.407 1_545 S
C38 C36 1.397 . S
C38 C39 1.392 1_545 S
C39 H34 0.929 . S
C39 C38 1.392 1_565 S
C39 C40 1.382 . S
C40 C39 1.382 . S
C40 C41 1.392 . S
C40 N42 1.420 . S
C41 H35 0.930 . S
C41 C37 1.407 1_565 S
C41 C40 1.392 . S
N42 C40 1.420 . S
N42 C43 1.244 1_565 S
C43 N42 1.244 1_545 S
H44 C47 0.929 . S
H45 C50 0.929 . S
H46 C52 0.930 . S
C47 H44 0.929 . S
C47 C48 1.398 . S
C47 C49 1.396 . S
C48 C47 1.398 . S
C48 C52 1.407 . S
C49 C47 1.396 . S
C49 C50 1.394 . S
C50 H45 0.929 . S
C50 C49 1.394 . S
C50 C51 1.382 . S
C51 C50 1.382 . S
C51 C52 1.392 . S
C51 N53 1.420 . S
C52 H46 0.930 . S
C52 C48 1.407 . S
C52 C51 1.392 . S
N53 C51 1.420 . S
N53 C54 1.244 . S
C54 N53 1.244 . S
H55 C58 0.929 . S
H56 C61 0.929 . S
H57 C63 0.930 . S
C58 H55 0.929 . S
C58 C59 1.398 1_565 S
C58 C60 1.396 1_565 S
C59 C58 1.398 1_545 S
C59 C63 1.407 . S
C60 C58 1.396 1_545 S
C60 C61 1.394 . S
C61 H56 0.929 . S
C61 C60 1.394 . S
C61 C62 1.382 . S
C62 C61 1.382 . S
C62 C63 1.392 . S
C62 N64 1.420 . S
C63 H57 0.930 . S
C63 C59 1.407 . S
C63 C62 1.392 . S
N64 C62 1.420 . S
N64 C65 1.236 1_545 S
C65 N64 1.236 1_565 S
H66 C69 0.929 1_655 S
H67 C72 0.929 . S
H68 C74 0.930 . S
C69 H66 0.929 1_455 S
C69 C70 1.398 . S
C69 C71 1.396 . S
C70 C69 1.398 . S
C70 C74 1.407 . S
C71 C69 1.396 . S
C71 C72 1.394 . S
C72 H67 0.929 . S
C72 C71 1.394 . S
C72 C73 1.382 . S
C73 C72 1.382 . S
C73 C74 1.392 . S
C73 N75 1.420 . S
C74 H68 0.930 . S
C74 C70 1.407 . S
C74 C73 1.392 . S
N75 C73 1.420 . S
N75 C76 1.244 . S
C76 N75 1.244 . S
H77 C80 0.929 . S
H78 C83 0.929 . S
H79 C85 0.930 . S
C80 H77 0.929 . S
C80 C81 1.398 1_545 S
C80 C82 1.395 1_545 S
C81 C80 1.398 1_565 S
C81 C85 1.407 . S
C82 C80 1.395 1_565 S
C82 C83 1.397 . S
C83 H78 0.929 . S
C83 C82 1.397 . S
C83 C84 1.382 . S
C84 C83 1.382 . S
C84 C85 1.392 . S
C84 N86 1.420 . S
C85 H79 0.930 . S
C85 C81 1.407 . S
C85 C84 1.392 . S
N86 C84 1.420 . S
N86 C87 1.244 1_565 S
C87 N86 1.244 1_545 S
H88 C91 0.929 . S
H89 C94 0.929 . S
H90 C96 0.930 . S
C91 H88 0.929 . S
C91 C92 1.398 . S
C91 C93 1.396 . S
C92 C91 1.398 . S
C92 C96 1.407 1_554 S
C93 C91 1.396 . S
C93 C94 1.394 1_554 S
C94 H89 0.929 . S
C94 C93 1.394 1_556 S
C94 C95 1.382 . S
C95 C94 1.382 . S
C95 C96 1.392 . S
C95 N97 1.420 . S
C96 H90 0.930 . S
C96 C92 1.407 1_556 S
C96 C95 1.392 . S
N97 C95 1.420 . S
N97 C98 1.244 1_556 S
C98 N97 1.244 1_554 S
H99 C102 0.929 1_556 S
H100 C105 0.929 . S
H101 C107 0.930 . S
C102 H99 0.929 1_554 S
C102 C103 1.398 . S
C102 C104 1.396 . S
C103 C102 1.398 . S
C103 C107 1.407 . S
C104 C102 1.396 . S
C104 C105 1.394 . S
C105 H100 0.929 . S
C105 C104 1.394 . S
C105 C106 1.382 . S
C106 C105 1.382 . S
C106 C107 1.392 . S
C106 N108 1.420 . S
C107 H101 0.930 . S
C107 C103 1.407 . S
C107 C106 1.392 . S
N108 C106 1.420 . S
N108 C109 1.244 . S
C109 N108 1.244 . S
H110 C113 0.929 . S
H111 C116 0.929 . S
H112 C118 0.930 . S
C113 H110 0.929 . S
C113 C114 1.398 . S
C113 C115 1.396 . S
C114 C113 1.398 . S
C114 C118 1.407 1_554 S
C115 C113 1.396 . S
C115 C116 1.394 1_554 S
C116 H111 0.929 . S
C116 C115 1.394 1_556 S
C116 C117 1.382 . S
C117 C116 1.382 . S
C117 C118 1.392 . S
C117 N119 1.420 . S
C118 H112 0.930 . S
C118 C114 1.407 1_556 S
C118 C117 1.392 . S
N119 C117 1.420 . S
N119 C120 1.244 1_556 S
C120 N119 1.244 1_554 S
H121 C124 0.929 1_556 S
H122 C127 0.929 . S
H123 C129 0.930 . S
C124 H121 0.929 1_554 S
C124 C125 1.398 . S
C124 C126 1.396 . S
C125 C124 1.398 . S
C125 C129 1.407 . S
C126 C124 1.396 . S
C126 C127 1.394 . S
C127 H122 0.929 . S
C127 C126 1.394 . S
C127 C128 1.382 . S
C128 C127 1.382 . S
C128 C129 1.392 . S
C128 N130 1.420 . S
C129 H123 0.930 . S
C129 C125 1.407 . S
C129 C128 1.392 . S
N130 C128 1.420 . S
N130 C131 1.244 . S
C131 N130 1.244 . S
H132 C135 0.929 . S
H133 C138 0.929 . S
H134 C140 0.930 . S
C135 H132 0.929 . S
C135 C136 1.398 . S
C135 C137 1.396 . S
C136 C135 1.398 . S
C136 C140 1.407 . S
C137 C135 1.396 . S
C137 C138 1.394 . S
C138 H133 0.929 . S
C138 C137 1.394 . S
C138 C139 1.382 . S
C139 C138 1.382 . S
C139 C140 1.392 . S
C139 N141 1.420 . S
C140 H134 0.930 . S
C140 C136 1.407 . S
C140 C139 1.392 . S
N141 C139 1.420 . S
N141 C142 1.244 . S
C142 N141 1.244 . S
H143 C146 0.929 . S
H144 C149 0.929 . S
H145 C151 0.930 . S
C146 H143 0.929 . S
C146 C147 1.398 . S
C146 C148 1.396 . S
C147 C146 1.398 . S
C147 C151 1.407 . S
C148 C146 1.396 . S
C148 C149 1.394 . S
C149 H144 0.929 . S
C149 C148 1.394 . S
C149 C150 1.382 . S
C150 C149 1.382 . S
C150 C151 1.392 . S
C150 N152 1.420 . S
C151 H145 0.930 . S
C151 C147 1.407 . S
C151 C150 1.392 . S
N152 C150 1.420 . S
N152 C153 1.244 . S
C153 N152 1.244 . S
H154 C157 0.929 . S
H155 C160 0.929 . S
H156 C162 0.930 . S
C157 H154 0.929 . S
C157 C158 1.398 . S
C157 C159 1.396 . S
C158 C157 1.398 . S
C158 C162 1.407 . S
C159 C157 1.396 . S
C159 C160 1.394 . S
C160 H155 0.929 . S
C160 C159 1.394 . S
C160 C161 1.382 . S
C161 C160 1.382 . S
C161 C162 1.392 . S
C161 N163 1.420 . S
C162 H156 0.930 . S
C162 C158 1.407 . S
C162 C161 1.392 . S
N163 C161 1.420 . S
N163 C164 1.244 . S
C164 N163 1.244 . S
H165 C168 0.929 . S
H166 C171 0.929 . S
H167 C173 0.930 . S
C168 H165 0.929 . S
C168 C169 1.398 . S
C168 C170 1.396 . S
C169 C168 1.398 . S
C169 C173 1.407 . S
C170 C168 1.396 . S
C170 C171 1.394 . S
C171 H166 0.929 . S
C171 C170 1.394 . S
C171 C172 1.382 . S
C172 C171 1.382 . S
C172 C173 1.392 . S
C172 N174 1.420 . S
C173 H167 0.930 . S
C173 C169 1.407 . S
C173 C172 1.392 . S
N174 C172 1.420 . S
N174 C175 1.244 . S
C175 N174 1.244 . S
H176 C179 0.929 . S
H177 C182 0.929 . S
H178 C184 0.930 . S
C179 H176 0.929 . S
C179 C180 1.398 . S
C179 C181 1.396 . S
C180 C179 1.398 . S
C180 C184 1.407 . S
C181 C179 1.396 . S
C181 C182 1.394 . S
C182 H177 0.929 . S
C182 C181 1.394 . S
C182 C183 1.382 . S
C183 C182 1.382 . S
C183 C184 1.392 . S
C183 N185 1.420 . S
C184 H178 0.930 . S
C184 C180 1.407 . S
C184 C183 1.392 . S
N185 C183 1.420 . S
N185 C186 1.244 . S
C186 N185 1.244 . S
H187 C190 0.929 . S
H188 C193 0.929 . S
H189 C195 0.930 . S
C190 H187 0.929 . S
C190 C191 1.398 . S
C190 C192 1.396 . S
C191 C190 1.398 . S
C191 C195 1.407 . S
C192 C190 1.396 . S
C192 C193 1.394 . S
C193 H188 0.929 . S
C193 C192 1.394 . S
C193 C194 1.382 . S
C194 C193 1.382 . S
C194 C195 1.392 . S
C194 N196 1.420 . S
C195 H189 0.930 . S
C195 C191 1.407 . S
C195 C194 1.392 . S
N196 C194 1.420 . S
N196 C197 1.244 . S
C197 N196 1.244 . S
H198 C201 0.929 . S
H199 C204 0.929 . S
H200 C206 0.930 . S
C201 H198 0.929 . S
C201 C202 1.398 . S
C201 C203 1.396 . S
C202 C201 1.398 . S
C202 C206 1.407 . S
C203 C201 1.396 . S
C203 C204 1.394 . S
C204 H199 0.929 . S
C204 C203 1.394 . S
C204 C205 1.382 . S
C205 C204 1.382 . S
C205 C206 1.392 . S
C205 N207 1.420 . S
C206 H200 0.930 . S
C206 C202 1.407 . S
C206 C205 1.392 . S
N207 C205 1.420 . S
N207 C208 1.244 . S
C208 N207 1.244 . S
H209 C212 0.929 . S
H210 C215 0.929 . S
H211 C217 0.930 . S
C212 H209 0.929 . S
C212 C213 1.398 . S
C212 C214 1.396 . S
C213 C212 1.398 . S
C213 C217 1.407 . S
C214 C212 1.396 . S
C214 C215 1.394 . S
C215 H210 0.929 . S
C215 C214 1.394 . S
C215 C216 1.382 . S
C216 C215 1.382 . S
C216 C217 1.392 . S
C216 N218 1.420 . S
C217 H211 0.930 . S
C217 C213 1.407 . S
C217 C216 1.392 . S
N218 C216 1.420 . S
N218 C219 1.244 . S
C219 N218 1.244 . S
H220 C223 0.929 . S
H221 C226 0.929 . S
H222 C228 0.930 . S
C223 H220 0.929 . S
C223 C224 1.398 . S
C223 C225 1.396 . S
C224 C223 1.398 . S
C224 C228 1.407 . S
C225 C223 1.396 . S
C225 C226 1.394 . S
C226 H221 0.929 . S
C226 C225 1.394 . S
C226 C227 1.382 . S
C227 C226 1.382 . S
C227 C228 1.392 . S
C227 N229 1.420 . S
C228 H222 0.930 . S
C228 C224 1.407 . S
C228 C227 1.392 . S
N229 C227 1.420 . S
N229 C230 1.244 . S
C230 N229 1.244 . S
H231 C234 0.929 . S
H232 C237 0.929 . S
H233 C239 0.930 . S
C234 H231 0.929 . S
C234 C235 1.398 . S
C234 C236 1.396 . S
C235 C234 1.398 . S
C235 C239 1.407 . S
C236 C234 1.396 . S
C236 C237 1.394 . S
C237 H232 0.929 . S
C237 C236 1.394 . S
C237 C238 1.382 . S
C238 C237 1.382 . S
C238 C239 1.392 . S
C238 N240 1.420 . S
C239 H233 0.930 . S
C239 C235 1.407 . S
C239 C238 1.392 . S
N240 C238 1.420 . S
N240 C241 1.244 . S
C241 N240 1.244 . S
H242 C245 0.929 . S
H243 C248 0.929 . S
H244 C250 0.930 . S
C245 H242 0.929 . S
C245 C246 1.398 . S
C245 C247 1.396 . S
C246 C245 1.398 . S
C246 C250 1.407 . S
C247 C245 1.396 . S
C247 C248 1.394 . S
C248 H243 0.929 . S
C248 C247 1.394 . S
C248 C249 1.382 . S
C249 C248 1.382 . S
C249 C250 1.392 . S
C249 N251 1.420 . S
C250 H244 0.930 . S
C250 C246 1.407 . S
C250 C249 1.392 . S
N251 C249 1.420 . S
N251 C252 1.244 . S
C252 N251 1.244 . S
H253 C256 0.929 . S
H254 C259 0.929 . S
H255 C261 0.930 . S
C256 H253 0.929 . S
C256 C257 1.398 . S
C256 C258 1.396 . S
C257 C256 1.398 . S
C257 C261 1.407 . S
C258 C256 1.396 . S
C258 C259 1.394 . S
C259 H254 0.929 . S
C259 C258 1.394 . S
C259 C260 1.382 . S
C260 C259 1.382 . S
C260 C261 1.392 . S
C260 N262 1.420 . S
C261 H255 0.930 . S
C261 C257 1.407 . S
C261 C260 1.392 . S
N262 C260 1.420 . S
N262 C263 1.244 . S
C263 N262 1.244 . S
C264 O290 1.283 . S
C264 O308 1.283 . S
C265 O291 1.283 . S
C265 O306 1.283 . S
C266 O292 1.283 . S
C266 O309 1.283 . S
C267 O293 1.283 . S
C267 O307 1.283 . S
C268 O294 1.283 . S
C268 O303 1.283 . S
C269 O295 1.283 . S
C269 O305 1.283 . S
C270 O296 1.283 . S
C270 O302 1.283 . S
C271 O297 1.283 . S
C271 O304 1.283 . S
C272 O298 1.283 . S
C272 O313 1.283 . S
C273 O299 1.283 . S
C273 O311 1.283 . S
C274 O300 1.283 . S
C274 O312 1.283 . S
C275 O301 1.283 . S
C275 O310 1.283 . S
Eu276 O277 2.370 1_455 S
Eu276 O278 2.370 . S
Eu276 O281 2.370 1_455 S
Eu276 O282 2.370 . S
Eu276 O290 2.363 . S
Eu276 O291 2.363 . S
Eu276 O304 2.363 . S
Eu276 O305 2.363 1_455 S
O277 Eu276 2.370 1_655 S
O277 Eu279 2.370 1_565 S
O277 Eu284 2.370 1_665 S
O278 Eu276 2.370 . S
O278 Eu280 2.370 1_565 S
O278 Eu283 2.360 1_565 S
Eu279 O277 2.370 1_545 S
Eu279 O281 2.370 1_545 S
Eu279 O285 2.370 . S
Eu279 O286 2.370 . S
Eu279 O294 2.363 . S
Eu279 O295 2.363 1_545 S
Eu279 O310 2.363 . S
Eu279 O311 2.363 . S
Eu280 O278 2.370 1_545 S
Eu280 O282 2.370 1_545 S
Eu280 O287 2.370 . S
Eu280 O288 2.370 . S
Eu280 O296 2.363 . S
Eu280 O297 2.363 1_545 S
Eu280 O312 2.363 . S
Eu280 O313 2.363 . S
O281 Eu276 2.370 1_655 S
O281 Eu279 2.370 1_565 S
O281 Eu283 2.360 1_665 S
O282 Eu276 2.370 . S
O282 Eu280 2.370 1_565 S
O282 Eu284 2.370 1_565 S
Eu283 O278 2.360 1_545 S
Eu283 O281 2.360 1_445 S
Eu283 O285 2.380 1_455 S
Eu283 O288 2.380 . S
Eu283 O300 2.363 . S
Eu283 O301 2.363 1_455 S
Eu283 O308 2.346 1_545 S
Eu283 O309 2.380 . S
Eu284 O277 2.370 1_445 S
Eu284 O282 2.370 1_545 S
Eu284 O286 2.370 1_455 S
Eu284 O287 2.370 . S
Eu284 O298 2.363 . S
Eu284 O299 2.363 1_455 S
Eu284 O306 2.363 1_545 S
Eu284 O307 2.363 . S
O285 Eu279 2.370 . S
O285 Eu283 2.380 1_655 S
O285 Eu289 2.370 1_655 S
O286 Eu279 2.370 . S
O286 Eu284 2.370 1_655 S
O286 Eu289 2.370 1_655 S
O287 Eu280 2.370 . S
O287 Eu284 2.370 . S
O287 Eu289 2.370 . S
O288 Eu280 2.370 . S
O288 Eu283 2.380 . S
O288 Eu289 2.370 . S
Eu289 O285 2.370 1_455 S
Eu289 O286 2.370 1_455 S
Eu289 O287 2.370 . S
Eu289 O288 2.370 . S
Eu289 O292 2.363 . S
Eu289 O293 2.363 . S
Eu289 O302 2.363 . S
Eu289 O303 2.363 1_455 S
O290 C264 1.283 . S
O290 Eu276 2.363 . S
O291 C265 1.283 . S
O291 Eu276 2.363 . S
O292 C266 1.283 . S
O292 Eu289 2.363 . S
O293 C267 1.283 . S
O293 Eu289 2.363 . S
O294 C268 1.283 . S
O294 Eu279 2.363 . S
O295 C269 1.283 . S
O295 Eu279 2.363 1_565 S
O296 C270 1.283 . S
O296 Eu280 2.363 . S
O297 C271 1.283 . S
O297 Eu280 2.363 1_565 S
O298 C272 1.283 . S
O298 Eu284 2.363 . S
O299 C273 1.283 . S
O299 Eu284 2.363 1_655 S
O300 C274 1.283 . S
O300 Eu283 2.363 . S
O301 C275 1.283 . S
O301 Eu283 2.363 1_655 S
O302 C270 1.283 . S
O302 Eu289 2.363 . S
O303 C268 1.283 . S
O303 Eu289 2.363 1_655 S
O304 C271 1.283 . S
O304 Eu276 2.363 . S
O305 C269 1.283 . S
O305 Eu276 2.363 1_655 S
O306 C265 1.283 . S
O306 Eu284 2.363 1_565 S
O307 C267 1.283 . S
O307 Eu284 2.363 . S
O308 C264 1.283 . S
O308 Eu283 2.346 1_565 S
O309 C266 1.283 . S
O309 Eu283 2.380 . S
O310 C275 1.283 . S
O310 Eu279 2.363 . S
O311 C273 1.283 . S
O311 Eu279 2.363 . S
O312 C274 1.283 . S
O312 Eu280 2.363 . S
O313 C272 1.283 . S
O313 Eu280 2.363 . S
C314 O340 1.283 . S
C314 O358 1.283 . S
C315 O341 1.283 . S
C315 O356 1.283 . S
C316 O342 1.283 . S
C316 O359 1.283 . S
C317 O343 1.283 . S
C317 O357 1.283 . S
C318 O344 1.283 1_565 S
C318 O353 1.283 . S
C319 O345 1.283 . S
C319 O355 1.283 . S
C320 O346 1.283 1_565 S
C320 O352 1.283 . S
C321 O347 1.283 . S
C321 O354 1.283 . S
C322 O348 1.283 . S
C322 O363 1.283 . S
C323 O349 1.283 . S
C323 O361 1.283 . S
C324 O350 1.283 . S
C324 O362 1.283 . S
C325 O351 1.283 . S
C325 O360 1.283 . S
Eu326 O327 2.370 . S
Eu326 O328 2.370 1_545 S
Eu326 O331 2.370 1_545 S
Eu326 O332 2.370 . S
Eu326 O340 2.363 1_545 S
Eu326 O341 2.363 . S
Eu326 O354 2.363 . S
Eu326 O355 2.363 . S
O327 Eu326 2.370 . S
O327 Eu329 2.370 . S
O327 Eu334 2.370 . S
O328 Eu326 2.370 1_565 S
O328 Eu330 2.370 1_565 S
O328 Eu333 2.370 . S
Eu329 O327 2.370 . S
Eu329 O331 2.370 1_545 S
Eu329 O335 2.370 1_544 S
Eu329 O336 2.370 1_554 S
Eu329 O344 2.363 1_554 S
Eu329 O345 2.363 . S
Eu329 O360 2.363 1_545 S
Eu329 O361 2.363 . S
Eu330 O328 2.370 1_545 S
Eu330 O332 2.370 . S
Eu330 O337 2.370 1_554 S
Eu330 O338 2.370 1_544 S
Eu330 O346 2.363 1_554 S
Eu330 O347 2.363 . S
Eu330 O362 2.363 1_545 S
Eu330 O363 2.363 . S
O331 Eu326 2.370 1_565 S
O331 Eu329 2.370 1_565 S
O331 Eu333 2.370 . S
O332 Eu326 2.370 . S
O332 Eu330 2.370 . S
O332 Eu334 2.370 . S
Eu333 O328 2.370 . S
Eu333 O331 2.370 . S
Eu333 O335 2.370 1_554 S
Eu333 O338 2.370 1_554 S
Eu333 O350 2.363 . S
Eu333 O351 2.363 . S
Eu333 O358 2.363 . S
Eu333 O359 2.363 1_554 S
Eu334 O327 2.370 . S
Eu334 O332 2.370 . S
Eu334 O336 2.370 1_554 S
Eu334 O337 2.370 1_554 S
Eu334 O348 2.363 . S
Eu334 O349 2.363 . S
Eu334 O356 2.363 . S
Eu334 O357 2.363 1_554 S
O335 Eu329 2.370 1_566 S
O335 Eu333 2.370 1_556 S
O335 Eu339 2.372 . S
O336 Eu329 2.370 1_556 S
O336 Eu334 2.370 1_556 S
O336 Eu339 2.368 1_545 S
O337 Eu330 2.370 1_556 S
O337 Eu334 2.370 1_556 S
O337 Eu339 2.368 1_545 S
O338 Eu330 2.370 1_566 S
O338 Eu333 2.370 1_556 S
O338 Eu339 2.372 . S
Eu339 O335 2.372 . S
Eu339 O336 2.368 1_565 S
Eu339 O337 2.368 1_565 S
Eu339 O338 2.372 . S
Eu339 O342 2.366 . S
Eu339 O343 2.360 1_565 S
Eu339 O352 2.363 . S
Eu339 O353 2.363 . S
O340 C314 1.283 . S
O340 Eu326 2.363 1_565 S
O341 C315 1.283 . S
O341 Eu326 2.363 . S
O342 C316 1.283 . S
O342 Eu339 2.366 . S
O343 C317 1.283 . S
O343 Eu339 2.360 1_545 S
O344 C318 1.283 1_545 S
O344 Eu329 2.363 1_556 S
O345 C319 1.283 . S
O345 Eu329 2.363 . S
O346 C320 1.283 1_545 S
O346 Eu330 2.363 1_556 S
O347 C321 1.283 . S
O347 Eu330 2.363 . S
O348 C322 1.283 . S
O348 Eu334 2.363 . S
O349 C323 1.283 . S
O349 Eu334 2.363 . S
O350 C324 1.283 . S
O350 Eu333 2.363 . S
O351 C325 1.283 . S
O351 Eu333 2.363 . S
O352 C320 1.283 . S
O352 Eu339 2.363 . S
O353 C318 1.283 . S
O353 Eu339 2.363 . S
O354 C321 1.283 . S
O354 Eu326 2.363 . S
O355 C319 1.283 . S
O355 Eu326 2.363 . S
O356 C315 1.283 . S
O356 Eu334 2.363 . S
O357 C317 1.283 . S
O357 Eu334 2.363 1_556 S
O358 C314 1.283 . S
O358 Eu333 2.363 . S
O359 C316 1.283 . S
O359 Eu333 2.363 1_556 S
O360 C325 1.283 . S
O360 Eu329 2.363 1_565 S
O361 C323 1.283 . S
O361 Eu329 2.363 . S
O362 C324 1.283 . S
O362 Eu330 2.363 1_565 S
O363 C322 1.283 . S
O363 Eu330 2.363 . S
C364 O390 1.283 . S
C364 O408 1.283 . S
C365 O391 1.283 . S
C365 O406 1.283 . S
C366 O392 1.283 . S
C366 O409 1.283 . S
C367 O393 1.283 . S
C367 O407 1.283 . S
C368 O394 1.283 . S
C368 O403 1.283 . S
C369 O395 1.283 . S
C369 O405 1.283 . S
C370 O396 1.283 . S
C370 O402 1.283 . S
C371 O397 1.283 . S
C371 O404 1.283 . S
C372 O398 1.283 . S
C372 O413 1.283 . S
C373 O399 1.283 . S
C373 O411 1.283 . S
C374 O400 1.283 . S
C374 O412 1.283 . S
C375 O401 1.283 . S
C375 O410 1.283 . S
Eu376 O377 2.370 1_454 S
Eu376 O378 2.370 . S
Eu376 O381 2.370 1_455 S
Eu376 O382 2.370 1_554 S
Eu376 O390 2.363 . S
Eu376 O391 2.363 1_554 S
Eu376 O404 2.363 . S
Eu376 O405 2.363 1_455 S
O377 Eu376 2.370 1_656 S
O377 Eu379 2.370 1_556 S
O377 Eu384 2.362 1_655 S
O378 Eu376 2.370 . S
O378 Eu380 2.370 . S
O378 Eu383 2.370 . S
Eu379 O377 2.370 1_554 S
Eu379 O381 2.370 . S
Eu379 O385 2.370 . S
Eu379 O386 2.370 1_554 S
Eu379 O394 2.363 . S
Eu379 O395 2.363 . S
Eu379 O410 2.363 . S
Eu379 O411 2.363 1_554 S
Eu380 O378 2.370 . S
Eu380 O382 2.370 1_554 S
Eu380 O387 2.370 1_554 S
Eu380 O388 2.370 . S
Eu380 O396 2.363 . S
Eu380 O397 2.363 . S
Eu380 O412 2.363 . S
Eu380 O413 2.363 1_554 S
O381 Eu376 2.370 1_655 S
O381 Eu379 2.370 . S
O381 Eu383 2.370 1_655 S
O382 Eu376 2.370 1_556 S
O382 Eu380 2.370 1_556 S
O382 Eu384 2.379 . S
Eu383 O378 2.370 . S
Eu383 O381 2.370 1_455 S
Eu383 O385 2.370 1_455 S
Eu383 O388 2.370 . S
Eu383 O400 2.363 . S
Eu383 O401 2.363 1_455 S
Eu383 O408 2.363 . S
Eu383 O409 2.363 . S
Eu384 O377 2.362 1_455 S
Eu384 O382 2.379 . S
Eu384 O386 2.362 1_455 S
Eu384 O387 2.379 . S
Eu384 O398 2.377 . S
Eu384 O399 2.348 1_455 S
Eu384 O406 2.363 . S
Eu384 O407 2.363 . S
O385 Eu379 2.370 . S
O385 Eu383 2.370 1_655 S
O385 Eu389 2.370 1_655 S
O386 Eu379 2.370 1_556 S
O386 Eu384 2.362 1_655 S
O386 Eu389 2.370 1_656 S
O387 Eu380 2.370 1_556 S
O387 Eu384 2.379 . S
O387 Eu389 2.370 1_556 S
O388 Eu380 2.370 . S
O388 Eu383 2.370 . S
O388 Eu389 2.370 . S
Eu389 O385 2.370 1_455 S
Eu389 O386 2.370 1_454 S
Eu389 O387 2.370 1_554 S
Eu389 O388 2.370 . S
Eu389 O392 2.363 . S
Eu389 O393 2.363 1_554 S
Eu389 O402 2.363 . S
Eu389 O403 2.363 1_455 S
O390 C364 1.283 . S
O390 Eu376 2.363 . S
O391 C365 1.283 . S
O391 Eu376 2.363 1_556 S
O392 C366 1.283 . S
O392 Eu389 2.363 . S
O393 C367 1.283 . S
O393 Eu389 2.363 1_556 S
O394 C368 1.283 . S
O394 Eu379 2.363 . S
O395 C369 1.283 . S
O395 Eu379 2.363 . S
O396 C370 1.283 . S
O396 Eu380 2.363 . S
O397 C371 1.283 . S
O397 Eu380 2.363 . S
O398 C372 1.283 . S
O398 Eu384 2.377 . S
O399 C373 1.283 . S
O399 Eu384 2.348 1_655 S
O400 C374 1.283 . S
O400 Eu383 2.363 . S
O401 C375 1.283 . S
O401 Eu383 2.363 1_655 S
O402 C370 1.283 . S
O402 Eu389 2.363 . S
O403 C368 1.283 . S
O403 Eu389 2.363 1_655 S
O404 C371 1.283 . S
O404 Eu376 2.363 . S
O405 C369 1.283 . S
O405 Eu376 2.363 1_655 S
O406 C365 1.283 . S
O406 Eu384 2.363 . S
O407 C367 1.283 . S
O407 Eu384 2.363 . S
O408 C364 1.283 . S
O408 Eu383 2.363 . S
O409 C366 1.283 . S
O409 Eu383 2.363 . S
O410 C375 1.283 . S
O410 Eu379 2.363 . S
O411 C373 1.283 . S
O411 Eu379 2.363 1_556 S
O412 C374 1.283 . S
O412 Eu380 2.363 . S
O413 C372 1.283 . S
O413 Eu380 2.363 1_556 S
C414 O440 1.283 . S
C414 O458 1.283 . S
C415 O441 1.283 . S
C415 O456 1.283 . S
C416 O442 1.283 . S
C416 O459 1.283 . S
C417 O443 1.283 . S
C417 O457 1.283 . S
C418 O444 1.283 . S
C418 O453 1.283 . S
C419 O445 1.283 . S
C419 O455 1.283 . S
C420 O446 1.283 . S
C420 O452 1.283 . S
C421 O447 1.283 . S
C421 O454 1.283 . S
C422 O448 1.283 . S
C422 O463 1.283 . S
C423 O449 1.283 . S
C423 O461 1.283 . S
C424 O450 1.283 . S
C424 O462 1.283 . S
C425 O451 1.283 . S
C425 O460 1.283 . S
Eu426 O427 2.370 . S
Eu426 O428 2.370 . S
Eu426 O431 2.370 . S
Eu426 O432 2.370 . S
Eu426 O440 2.363 . S
Eu426 O441 2.363 . S
Eu426 O454 2.363 . S
Eu426 O455 2.363 . S
O427 Eu426 2.370 . S
O427 Eu429 2.370 . S
O427 Eu434 2.370 . S
O428 Eu426 2.370 . S
O428 Eu430 2.370 . S
O428 Eu433 2.370 . S
Eu429 O427 2.370 . S
Eu429 O431 2.370 . S
Eu429 O435 2.370 1_554 S
Eu429 O436 2.370 1_554 S
Eu429 O444 2.363 1_554 S
Eu429 O445 2.363 . S
Eu429 O460 2.363 . S
Eu429 O461 2.363 . S
Eu430 O428 2.370 . S
Eu430 O432 2.370 . S
Eu430 O437 2.370 1_554 S
Eu430 O438 2.370 1_554 S
Eu430 O446 2.363 1_554 S
Eu430 O447 2.363 . S
Eu430 O462 2.363 . S
Eu430 O463 2.363 . S
O431 Eu426 2.370 . S
O431 Eu429 2.370 . S
O431 Eu433 2.370 . S
O432 Eu426 2.370 . S
O432 Eu430 2.370 . S
O432 Eu434 2.370 . S
Eu433 O428 2.370 . S
Eu433 O431 2.370 . S
Eu433 O435 2.370 1_554 S
Eu433 O438 2.370 1_554 S
Eu433 O450 2.363 . S
Eu433 O451 2.363 . S
Eu433 O458 2.363 . S
Eu433 O459 2.363 1_554 S
Eu434 O427 2.370 . S
Eu434 O432 2.370 . S
Eu434 O436 2.370 1_554 S
Eu434 O437 2.370 1_554 S
Eu434 O448 2.363 . S
Eu434 O449 2.363 . S
Eu434 O456 2.363 . S
Eu434 O457 2.363 1_554 S
O435 Eu429 2.370 1_556 S
O435 Eu433 2.370 1_556 S
O435 Eu439 2.370 . S
O436 Eu429 2.370 1_556 S
O436 Eu434 2.370 1_556 S
O436 Eu439 2.370 . S
O437 Eu430 2.370 1_556 S
O437 Eu434 2.370 1_556 S
O437 Eu439 2.370 . S
O438 Eu430 2.370 1_556 S
O438 Eu433 2.370 1_556 S
O438 Eu439 2.370 . S
Eu439 O435 2.370 . S
Eu439 O436 2.370 . S
Eu439 O437 2.370 . S
Eu439 O438 2.370 . S
Eu439 O442 2.363 . S
Eu439 O443 2.363 . S
Eu439 O452 2.363 . S
Eu439 O453 2.363 . S
O440 C414 1.283 . S
O440 Eu426 2.363 . S
O441 C415 1.283 . S
O441 Eu426 2.363 . S
O442 C416 1.283 . S
O442 Eu439 2.363 . S
O443 C417 1.283 . S
O443 Eu439 2.363 . S
O444 C418 1.283 . S
O444 Eu429 2.363 1_556 S
O445 C419 1.283 . S
O445 Eu429 2.363 . S
O446 C420 1.283 . S
O446 Eu430 2.363 1_556 S
O447 C421 1.283 . S
O447 Eu430 2.363 . S
O448 C422 1.283 . S
O448 Eu434 2.363 . S
O449 C423 1.283 . S
O449 Eu434 2.363 . S
O450 C424 1.283 . S
O450 Eu433 2.363 . S
O451 C425 1.283 . S
O451 Eu433 2.363 . S
O452 C420 1.283 . S
O452 Eu439 2.363 . S
O453 C418 1.283 . S
O453 Eu439 2.363 . S
O454 C421 1.283 . S
O454 Eu426 2.363 . S
O455 C419 1.283 . S
O455 Eu426 2.363 . S
O456 C415 1.283 . S
O456 Eu434 2.363 . S
O457 C417 1.283 . S
O457 Eu434 2.363 1_556 S
O458 C414 1.283 . S
O458 Eu433 2.363 . S
O459 C416 1.283 . S
O459 Eu433 2.363 1_556 S
O460 C425 1.283 . S
O460 Eu429 2.363 . S
O461 C423 1.283 . S
O461 Eu429 2.363 . S
O462 C424 1.283 . S
O462 Eu430 2.363 . S
O463 C422 1.283 . S
O463 Eu430 2.363 . S
C464 O490 1.283 . S
C464 O508 1.283 . S
C465 O491 1.283 . S
C465 O506 1.283 . S
C466 O492 1.283 . S
C466 O509 1.283 . S
C467 O493 1.283 . S
C467 O507 1.283 . S
C468 O494 1.283 . S
C468 O503 1.283 . S
C469 O495 1.283 . S
C469 O505 1.283 . S
C470 O496 1.283 . S
C470 O502 1.283 . S
C471 O497 1.283 . S
C471 O504 1.283 . S
C472 O498 1.283 . S
C472 O513 1.283 . S
C473 O499 1.283 . S
C473 O511 1.283 . S
C474 O500 1.283 . S
C474 O512 1.283 . S
C475 O501 1.283 . S
C475 O510 1.283 . S
Eu476 O477 2.370 1_455 S
Eu476 O478 2.370 . S
Eu476 O481 2.370 1_455 S
Eu476 O482 2.370 . S
Eu476 O490 2.363 . S
Eu476 O491 2.363 . S
Eu476 O504 2.363 . S
Eu476 O505 2.363 1_455 S
O477 Eu476 2.370 1_655 S
O477 Eu479 2.370 . S
O477 Eu484 2.370 1_655 S
O478 Eu476 2.370 . S
O478 Eu480 2.370 . S
O478 Eu483 2.370 . S
Eu479 O477 2.370 . S
Eu479 O481 2.370 . S
Eu479 O485 2.370 . S
Eu479 O486 2.370 . S
Eu479 O494 2.363 . S
Eu479 O495 2.363 . S
Eu479 O510 2.363 . S
Eu479 O511 2.363 . S
Eu480 O478 2.370 . S
Eu480 O482 2.370 . S
Eu480 O487 2.370 . S
Eu480 O488 2.370 . S
Eu480 O496 2.363 . S
Eu480 O497 2.363 . S
Eu480 O512 2.363 . S
Eu480 O513 2.363 . S
O481 Eu476 2.370 1_655 S
O481 Eu479 2.370 . S
O481 Eu483 2.370 1_655 S
O482 Eu476 2.370 . S
O482 Eu480 2.370 . S
O482 Eu484 2.370 . S
Eu483 O478 2.370 . S
Eu483 O481 2.370 1_455 S
Eu483 O485 2.370 1_455 S
Eu483 O488 2.370 . S
Eu483 O500 2.363 . S
Eu483 O501 2.363 1_455 S
Eu483 O508 2.363 . S
Eu483 O509 2.363 . S
Eu484 O477 2.370 1_455 S
Eu484 O482 2.370 . S
Eu484 O486 2.370 1_455 S
Eu484 O487 2.370 . S
Eu484 O498 2.363 . S
Eu484 O499 2.363 1_455 S
Eu484 O506 2.363 . S
Eu484 O507 2.363 . S
O485 Eu479 2.370 . S
O485 Eu483 2.370 1_655 S
O485 Eu489 2.370 1_655 S
O486 Eu479 2.370 . S
O486 Eu484 2.370 1_655 S
O486 Eu489 2.370 1_655 S
O487 Eu480 2.370 . S
O487 Eu484 2.370 . S
O487 Eu489 2.370 . S
O488 Eu480 2.370 . S
O488 Eu483 2.370 . S
O488 Eu489 2.370 . S
Eu489 O485 2.370 1_455 S
Eu489 O486 2.370 1_455 S
Eu489 O487 2.370 . S
Eu489 O488 2.370 . S
Eu489 O492 2.363 . S
Eu489 O493 2.363 . S
Eu489 O502 2.363 . S
Eu489 O503 2.363 1_455 S
O490 C464 1.283 . S
O490 Eu476 2.363 . S
O491 C465 1.283 . S
O491 Eu476 2.363 . S
O492 C466 1.283 . S
O492 Eu489 2.363 . S
O493 C467 1.283 . S
O493 Eu489 2.363 . S
O494 C468 1.283 . S
O494 Eu479 2.363 . S
O495 C469 1.283 . S
O495 Eu479 2.363 . S
O496 C470 1.283 . S
O496 Eu480 2.363 . S
O497 C471 1.283 . S
O497 Eu480 2.363 . S
O498 C472 1.283 . S
O498 Eu484 2.363 . S
O499 C473 1.283 . S
O499 Eu484 2.363 1_655 S
O500 C474 1.283 . S
O500 Eu483 2.363 . S
O501 C475 1.283 . S
O501 Eu483 2.363 1_655 S
O502 C470 1.283 . S
O502 Eu489 2.363 . S
O503 C468 1.283 . S
O503 Eu489 2.363 1_655 S
O504 C471 1.283 . S
O504 Eu476 2.363 . S
O505 C469 1.283 . S
O505 Eu476 2.363 1_655 S
O506 C465 1.283 . S
O506 Eu484 2.363 . S
O507 C467 1.283 . S
O507 Eu484 2.363 . S
O508 C464 1.283 . S
O508 Eu483 2.363 . S
O509 C466 1.283 . S
O509 Eu483 2.363 . S
O510 C475 1.283 . S
O510 Eu479 2.363 . S
O511 C473 1.283 . S
O511 Eu479 2.363 . S
O512 C474 1.283 . S
O512 Eu480 2.363 . S
O513 C472 1.283 . S
O513 Eu480 2.363 . S
C514 O540 1.283 . S
C514 O558 1.283 . S
C515 O541 1.283 . S
C515 O556 1.283 . S
C516 O542 1.283 . S
C516 O559 1.283 . S
C517 O543 1.283 . S
C517 O557 1.283 . S
C518 O544 1.283 . S
C518 O553 1.283 . S
C519 O545 1.283 . S
C519 O555 1.283 . S
C520 O546 1.283 . S
C520 O552 1.283 . S
C521 O547 1.283 . S
C521 O554 1.283 . S
C522 O548 1.283 . S
C522 O563 1.283 . S
C523 O549 1.283 . S
C523 O561 1.283 . S
C524 O550 1.283 . S
C524 O562 1.283 . S
C525 O551 1.283 . S
C525 O560 1.283 . S
Eu526 O527 2.370 . S
Eu526 O528 2.370 . S
Eu526 O531 2.370 . S
Eu526 O532 2.370 . S
Eu526 O540 2.363 . S
Eu526 O541 2.363 . S
Eu526 O554 2.363 . S
Eu526 O555 2.363 . S
O527 Eu526 2.370 . S
O527 Eu529 2.370 1_565 S
O527 Eu534 2.370 1_565 S
O528 Eu526 2.370 . S
O528 Eu530 2.370 1_565 S
O528 Eu533 2.361 1_565 S
Eu529 O527 2.370 1_545 S
Eu529 O531 2.370 1_545 S
Eu529 O535 2.370 . S
Eu529 O536 2.370 . S
Eu529 O544 2.363 . S
Eu529 O545 2.363 1_545 S
Eu529 O560 2.363 . S
Eu529 O561 2.363 . S
Eu530 O528 2.370 1_545 S
Eu530 O532 2.370 1_545 S
Eu530 O537 2.370 . S
Eu530 O538 2.370 . S
Eu530 O546 2.363 . S
Eu530 O547 2.363 1_545 S
Eu530 O562 2.363 . S
Eu530 O563 2.363 . S
O531 Eu526 2.370 . S
O531 Eu529 2.370 1_565 S
O531 Eu533 2.361 1_565 S
O532 Eu526 2.370 . S
O532 Eu530 2.370 1_565 S
O532 Eu534 2.370 1_565 S
Eu533 O528 2.361 1_545 S
Eu533 O531 2.361 1_545 S
Eu533 O535 2.379 . S
Eu533 O538 2.379 . S
Eu533 O550 2.363 . S
Eu533 O551 2.363 . S
Eu533 O558 2.348 1_545 S
Eu533 O559 2.378 . S
Eu534 O527 2.370 1_545 S
Eu534 O532 2.370 1_545 S
Eu534 O536 2.370 . S
Eu534 O537 2.370 . S
Eu534 O548 2.363 . S
Eu534 O549 2.363 . S
Eu534 O556 2.363 1_545 S
Eu534 O557 2.363 . S
O535 Eu529 2.370 . S
O535 Eu533 2.379 . S
O535 Eu539 2.370 . S
O536 Eu529 2.370 . S
O536 Eu534 2.370 . S
O536 Eu539 2.370 . S
O537 Eu530 2.370 . S
O537 Eu534 2.370 . S
O537 Eu539 2.370 . S
O538 Eu530 2.370 . S
O538 Eu533 2.379 . S
O538 Eu539 2.370 . S
Eu539 O535 2.370 . S
Eu539 O536 2.370 . S
Eu539 O537 2.370 . S
Eu539 O538 2.370 . S
Eu539 O542 2.363 . S
Eu539 O543 2.363 . S
Eu539 O552 2.363 . S
Eu539 O553 2.363 . S
O540 C514 1.283 . S
O540 Eu526 2.363 . S
O541 C515 1.283 . S
O541 Eu526 2.363 . S
O542 C516 1.283 . S
O542 Eu539 2.363 . S
O543 C517 1.283 . S
O543 Eu539 2.363 . S
O544 C518 1.283 . S
O544 Eu529 2.363 . S
O545 C519 1.283 . S
O545 Eu529 2.363 1_565 S
O546 C520 1.283 . S
O546 Eu530 2.363 . S
O547 C521 1.283 . S
O547 Eu530 2.363 1_565 S
O548 C522 1.283 . S
O548 Eu534 2.363 . S
O549 C523 1.283 . S
O549 Eu534 2.363 . S
O550 C524 1.283 . S
O550 Eu533 2.363 . S
O551 C525 1.283 . S
O551 Eu533 2.363 . S
O552 C520 1.283 . S
O552 Eu539 2.363 . S
O553 C518 1.283 . S
O553 Eu539 2.363 . S
O554 C521 1.283 . S
O554 Eu526 2.363 . S
O555 C519 1.283 . S
O555 Eu526 2.363 . S
O556 C515 1.283 . S
O556 Eu534 2.363 1_565 S
O557 C517 1.283 . S
O557 Eu534 2.363 . S
O558 C514 1.283 . S
O558 Eu533 2.348 1_565 S
O559 C516 1.283 . S
O559 Eu533 2.378 . S
O560 C525 1.283 . S
O560 Eu529 2.363 . S
O561 C523 1.283 . S
O561 Eu529 2.363 . S
O562 C524 1.283 . S
O562 Eu530 2.363 . S
O563 C522 1.283 . S
O563 Eu530 2.363 . S
C270 C258 1.577 . S
C236 C268 1.902 . S
C269 C225 1.901 . S
C247 C271 1.578 . S
C315 C181 1.812 . S
C375 C192 1.633 . S
C203 C314 1.783 . S
C374 C214 2.052 . S
C137 C316 1.858 . S
C372 C148 1.856 . S
C159 C317 1.930 . S
C170 C373 1.563 . S
C423 C126 1.577 . S
C104 C422 1.902 . S
C93 C424 1.901 . S
C425 C115 1.578 . S
C49 C466 1.812 . S
C60 C525 1.633 . S
C71 C464 1.783 . S
C82 C524 2.051 1_565 S
C465 C5 1.858 . S
C522 C16 1.857 . S
C27 C467 1.930 . S
C523 C38 1.563 . S
C267 C4 1.607 . S
C21 C273 1.508 . S
C32 C265 1.547 . S
C37 C272 1.358 . S
C48 C264 1.584 . S
C274 C59 1.413 . S
C76 C266 1.536 . S
C275 C81 1.748 1_545 S
C321 C43 1.463 . S
C10 C364 1.549 . S
C319 C15 1.597 1_545 S
C366 C26 1.722 . S
C65 C320 1.434 . S
C365 C70 1.582 . S
C318 C87 1.508 1_565 S
C367 C54 1.524 . S
C371 C98 1.462 . S
C109 C370 1.463 . S
C322 C92 1.600 . S
C369 C114 1.369 . S
C131 C325 1.425 . S
C125 C368 1.374 . S
C324 C103 1.600 . S
C323 C120 1.422 . S
C417 C136 1.607 . S
C420 C153 1.508 . S
C164 C416 1.547 . S
C418 C169 1.358 . S
C414 C180 1.584 . S
C191 C419 1.412 . S
C208 C415 1.536 . S
C421 C213 1.748 . S
C475 C175 1.463 . S
C142 C514 1.549 . S
C474 C147 1.597 . S
C516 C158 1.722 . S
C473 C197 1.434 . S
C202 C515 1.580 . S
C472 C219 1.508 . S
C517 C186 1.523 . S
C521 C230 1.462 . S
C241 C520 1.463 . S
C468 C224 1.600 . S
C246 C519 1.369 . S
C471 C263 1.425 . S
C518 C257 1.374 . S
C469 C235 1.600 . S
C252 C470 1.422 . S
