# Generated by pormake.
# Topology tsx, (6,3)-cn, num edge types: 1
# Building blocks:
#     Node 0, Type 0, BuildingBlock: VOLQOD_clean_sbu_1, # of connection points: 6
#     Node 1, Type 0, BuildingBlock: VOLQOD_clean_sbu_1, # of connection points: 6
#     Node 2, Type 1, BuildingBlock: CUQRIR_clean_linker_1, # of connection points: 3
#     Node 3, Type 1, BuildingBlock: CUQRIR_clean_linker_1, # of connection points: 3
#     Node 4, Type 1, BuildingBlock: CUQRIR_clean_linker_1, # of connection points: 3
#     Node 5, Type 1, BuildingBlock: CUQRIR_clean_linker_1, # of connection points: 3
#     Edge 6, Type (0, 1), BuildingBlock: EZIPEK_clean_linker_0, # of connection points: 2
#     Edge 7, Type (0, 1), BuildingBlock: EZIPEK_clean_linker_0, # of connection points: 2
#     Edge 8, Type (0, 1), BuildingBlock: EZIPEK_clean_linker_0, # of connection points: 2
#     Edge 9, Type (0, 1), BuildingBlock: EZIPEK_clean_linker_0, # of connection points: 2
#     Edge 10, Type (0, 1), BuildingBlock: EZIPEK_clean_linker_0, # of connection points: 2
#     Edge 11, Type (0, 1), BuildingBlock: EZIPEK_clean_linker_0, # of connection points: 2
#     Edge 12, Type (0, 1), BuildingBlock: EZIPEK_clean_linker_0, # of connection points: 2
#     Edge 13, Type (0, 1), BuildingBlock: EZIPEK_clean_linker_0, # of connection points: 2
#     Edge 14, Type (0, 1), BuildingBlock: EZIPEK_clean_linker_0, # of connection points: 2
#     Edge 15, Type (0, 1), BuildingBlock: EZIPEK_clean_linker_0, # of connection points: 2
#     Edge 16, Type (0, 1), BuildingBlock: EZIPEK_clean_linker_0, # of connection points: 2
#     Edge 17, Type (0, 1), BuildingBlock: EZIPEK_clean_linker_0, # of connection points: 2
# Relax obj value: 0.079
# Max RMSD: 0.140
# Mean RMSD: 0.123
data_MOF--net-tsx--node1-VOLQOD_clean_sbu_1--node2-CUQRIR_clean_linker_1--edge1-EZIPEK_clean_linker_0
_symmetry_space_group_name_H-M    P1
_symmetry_Int_Tables_number       1
_symmetry_cell_setting            triclinic
loop_
_symmetry_equiv_pos_as_xyz
'x, y, z'
_cell_length_a     13.762807
_cell_length_b     14.119729
_cell_length_c     26.311883
_cell_angle_alpha  78.313867
_cell_angle_beta   89.76481
_cell_angle_gamma 90.073148
loop_
_atom_site_label
_atom_site_type_symbol
_atom_site_fract_x
_atom_site_fract_y
_atom_site_fract_z
_atom_type_partial_charge
O0 O 0.1138 0.98435 0.09153 0.0
Zn1 Zn 0.12798 0.05446 0.0183 0.0
O2 O 1.0024 0.06739 -0.01066 0.0
Zn3 Zn 0.98809 0.95706 0.95861 0.0
Zn4 Zn 0.90491 0.07697 0.03886 0.0
Zn5 Zn 0.01242 0.18423 0.93936 0.0
O6 O 0.97607 1.00941 0.88219 0.0
O7 O 0.05237 0.15242 0.87205 0.0
O8 O 0.21386 0.99634 0.97044 0.0
O9 O 0.1144 0.87902 0.96207 0.0
O10 O 0.8725 0.87345 -0.00893 0.0
O11 O 0.81748 0.95748 0.04829 0.0
O12 O 0.82599 0.20504 0.01191 0.0
O13 O 0.18114 0.18148 0.02549 0.0
O14 O 0.88603 0.24974 0.93159 0.0
O15 O 0.09872 0.27971 0.96469 0.0
C16 C 0.05427 1.01216 0.12287 0.0
C17 C 0.02176 0.08037 0.85433 0.0
C18 C 0.81344 0.88334 0.02738 0.0
C19 C 0.19794 0.91899 0.95424 0.0
C20 C 0.82438 0.25924 0.96623 0.0
C21 C 0.16073 0.26589 0.00108 0.0
O22 O 0.97775 0.06149 0.10743 0.0
O23 O 0.62171 0.40735 0.61697 0.0
Zn24 Zn 0.653 0.44024 0.53947 0.0
O25 O 0.53993 0.49089 0.5017 0.0
Zn26 Zn 0.49279 0.40554 0.45939 0.0
Zn27 Zn 0.43937 0.50572 0.54885 0.0
Zn28 Zn 0.56964 0.61473 0.45947 0.0
O29 O 0.48357 0.48161 0.38499 0.0
O30 O 0.59246 0.59894 0.38681 0.0
O31 O 0.71234 0.3379 0.50442 0.0
O32 O 0.59175 0.3057 0.45538 0.0
O33 O 0.37726 0.32617 0.49278 0.0
O34 O 0.36137 0.38332 0.56523 0.0
O35 O 0.35125 0.61713 0.51481 0.0
O36 O 0.75103 0.54419 0.53816 0.0
O37 O 0.44944 0.6977 0.45341 0.0
O38 O 0.68627 0.67476 0.4885 0.0
C39 C 0.57055 0.46265 0.6395 0.0
C40 C 0.53966 0.5497 0.36205 0.0
C41 C 0.34123 0.32109 0.53804 0.0
C42 C 0.67774 0.29079 0.47184 0.0
C43 C 0.36718 0.68667 0.47625 0.0
C44 C 0.75271 0.63426 0.51917 0.0
O45 O 0.50398 0.51714 0.61566 0.0
C46 C 0.9884 0.96706 0.41208 0.0
N47 N 0.0552 0.93448 0.38182 0.0
N48 N 0.95107 0.05277 0.38815 0.0
C49 C 0.94616 0.90781 0.46045 0.0
C50 C 0.99576 0.07097 0.34147 0.0
N51 N 0.05726 0.99817 0.33684 0.0
C52 C 0.97485 0.15668 0.29878 0.0
H53 H 0.86729 0.89759 0.45472 0.0
H54 H 0.95344 0.948 0.49208 0.0
H55 H 0.98122 0.83617 0.47071 0.0
H56 H 0.94408 0.21747 0.31451 0.0
H57 H 0.92185 0.13523 0.27149 0.0
H58 H 0.04232 0.18086 0.27667 0.0
C59 C 0.09233 0.92166 0.59043 0.0
N60 N 0.11318 0.98323 0.62227 0.0
N61 N 0.02809 0.85276 0.61284 0.0
C62 C 0.13527 0.92875 0.53749 0.0
C63 C 0.01338 0.87232 0.66049 0.0
N64 N 0.06219 0.95314 0.66583 0.0
C65 C 0.94949 0.8123 0.70128 0.0
H66 H 0.1141 0.99813 0.51253 0.0
H67 H 0.11328 0.86709 0.52014 0.0
H68 H 0.21531 0.92867 0.5397 0.0
H69 H 0.96707 0.82437 0.74059 0.0
H70 H 0.9582 0.73452 0.70034 0.0
H71 H 0.87223 0.83109 0.69273 0.0
C72 C 0.54668 0.65429 0.89489 0.0
N73 N 0.58675 0.58278 0.87401 0.0
N74 N 0.48264 0.70739 0.86155 0.0
C75 C 0.57791 0.67983 0.9452 0.0
C76 C 0.49093 0.67033 0.81816 0.0
N77 N 0.55113 0.59297 0.8261 0.0
C78 C 0.4425 0.71134 0.76729 0.0
H79 H 0.51368 0.69199 0.96843 0.0
H80 H 0.61984 0.74826 0.93686 0.0
H81 H 0.62629 0.62468 0.96784 0.0
H82 H 0.40533 0.78062 0.76827 0.0
H83 H 0.389 0.65852 0.75807 0.0
H84 H 0.49767 0.72336 0.73574 0.0
C85 C 0.47594 0.53886 0.07294 0.0
N86 N 0.52916 0.58244 0.10493 0.0
N87 N 0.38534 0.51437 0.09289 0.0
C88 C 0.52478 0.48445 0.03624 0.0
C89 C 0.39312 0.52914 0.14237 0.0
N90 N 0.47728 0.57561 0.14825 0.0
C91 C 0.33505 0.4765 0.18863 0.0
H92 H 0.60495 0.48819 0.03837 0.0
H93 H 0.50374 0.51293 -0.00406 0.0
H94 H 0.50212 0.40737 0.04568 0.0
H95 H 0.3038 0.40801 0.1817 0.0
H96 H 0.27795 0.52471 0.19892 0.0
H97 H 0.38083 0.45602 0.22362 0.0
C98 C 0.25537 0.42206 0.98785 0.0
C99 C 0.20025 0.34887 0.02052 0.0
C100 C 0.22022 0.43585 0.09088 0.0
C101 C 0.30385 0.47964 0.06565 0.0
N102 N 0.34003 0.57559 0.98227 0.0
N103 N 0.11177 0.29961 0.10171 0.0
C104 C 0.30318 0.49234 0.01099 0.0
C105 C 0.17724 0.35921 0.07187 0.0
N106 N 0.26197 0.4238 0.93588 0.0
N107 N 0.16853 0.48245 0.12249 0.0
H108 H 0.07197 0.24717 0.08799 0.0
H109 H 0.09998 0.3018 0.14068 0.0
H110 H 0.18812 0.55209 0.12643 0.0
H111 H 0.10089 0.45822 0.13796 0.0
H112 H 0.29763 0.47729 0.90965 0.0
H113 H 0.23171 0.37078 0.91843 0.0
H114 H 0.34804 0.58849 0.94239 0.0
H115 H 0.36017 0.63299 -0.00046 0.0
C116 C 0.37503 0.90094 0.92248 0.0
C117 C 0.27316 0.87843 0.92235 0.0
C118 C 0.30914 0.75404 0.87209 0.0
C119 C 0.41008 0.77404 0.87393 0.0
N120 N 0.53026 0.89422 0.87846 0.0
N121 N 0.14946 0.82296 0.8694 0.0
C122 C 0.43992 0.8572 0.89162 0.0
C123 C 0.24176 0.81715 0.88866 0.0
N124 N 0.41223 0.95961 0.953 0.0
N125 N 0.27621 0.67324 0.85667 0.0
H126 H 0.10072 0.87633 0.87469 0.0
H127 H 0.12695 0.78517 0.84132 0.0
H128 H 0.32181 0.62165 0.84653 0.0
H129 H 0.20349 0.65189 0.85998 0.0
H130 H 0.48621 0.97356 0.95489 0.0
H131 H 0.37365 0.98604 0.98103 0.0
H132 H 0.55396 0.9604 0.88559 0.0
H133 H 0.57714 0.86294 0.85524 0.0
C134 C 0.77184 0.70806 0.06655 0.0
C135 C 0.7405 0.80506 0.0475 0.0
C136 C 0.5705 0.75312 0.06593 0.0
C137 C 0.60161 0.65725 0.08663 0.0
N138 N 0.73049 0.54218 0.10743 0.0
N139 N 0.6106 0.92212 0.03504 0.0
C140 C 0.70207 0.63449 0.08696 0.0
C141 C 0.6401 0.82812 0.04932 0.0
N142 N 0.8687 0.68656 0.06575 0.0
N143 N 0.47346 0.77128 0.05895 0.0
H144 H 0.65508 0.97766 0.01559 0.0
H145 H 0.54284 0.94612 0.04478 0.0
H146 H 0.4201 0.71849 0.06912 0.0
H147 H 0.44505 0.83708 0.04016 0.0
H148 H 0.89671 0.61683 0.07285 0.0
H149 H 0.92288 0.73904 0.05721 0.0
H150 H 0.80202 0.52025 0.11468 0.0
H151 H 0.68082 0.48625 0.11816 0.0
C152 C 0.79861 0.43799 0.94145 0.0
C153 C 0.7577 0.34339 0.95255 0.0
C154 C 0.60064 0.41149 0.92088 0.0
C155 C 0.645 0.50248 0.90137 0.0
N156 N 0.78552 0.60519 0.8955 0.0
N157 N 0.62067 0.23839 0.94978 0.0
C158 C 0.74399 0.51657 0.91255 0.0
C159 C 0.65874 0.32963 0.94162 0.0
N160 N 0.889 0.45259 0.95989 0.0
N161 N 0.50209 0.40536 0.92318 0.0
H162 H 0.66024 0.17717 0.96664 0.0
H163 H 0.55198 0.22319 0.93691 0.0
H164 H 0.45979 0.46737 0.91465 0.0
H165 H 0.46422 0.34325 0.9406 0.0
H166 H 0.92043 0.52046 0.95737 0.0
H167 H 0.9294 0.3968 0.98216 0.0
H168 H 0.8598 0.61839 0.89673 0.0
H169 H 0.74542 0.66552 0.87808 0.0
C170 C 0.7952 0.77329 0.56099 0.0
C171 C 0.82611 0.69352 0.53986 0.0
C172 C 0.99164 0.71356 0.57132 0.0
C173 C 0.96194 0.79952 0.58647 0.0
N174 N 0.84388 0.92678 0.57873 0.0
N175 N 0.95857 0.59759 0.51695 0.0
C176 C 0.86589 0.83367 0.57664 0.0
C177 C 0.92592 0.66594 0.54292 0.0
N178 N 0.69885 0.78938 0.56874 0.0
N179 N 0.08228 0.67786 0.58418 0.0
H180 H 0.91337 0.56439 0.49401 0.0
H181 H 0.0318 0.58092 0.51395 0.0
H182 H 0.13153 0.71324 0.60405 0.0
H183 H 0.10578 0.61077 0.57834 0.0
H184 H 0.67491 0.84226 0.58835 0.0
H185 H 0.6436 0.74349 0.56142 0.0
H186 H 0.77649 0.95796 0.56792 0.0
H187 H 0.89793 0.97588 0.58328 0.0
C188 C 0.82311 0.18227 0.47948 0.0
C189 C 0.74066 0.22111 0.45066 0.0
C190 C 0.78789 0.12849 0.38467 0.0
C191 C 0.87945 0.10994 0.40849 0.0
N192 N 0.99211 0.14403 0.4719 0.0
N193 N 0.65718 0.2424 0.36671 0.0
C194 C 0.89957 0.14443 0.45391 0.0
C195 C 0.72547 0.19715 0.4007 0.0
N196 N 0.82667 0.1756 0.53178 0.0
N197 N 0.75995 0.08012 0.34725 0.0
H198 H 0.61361 0.29905 0.37257 0.0
H199 H 0.65207 0.2314 0.3288 0.0
H200 H 0.80374 0.02818 0.33563 0.0
H201 H 0.68988 0.08453 0.33203 0.0
H202 H 0.88337 0.14058 0.5536 0.0
H203 H 0.76724 0.19 0.55371 0.0
H204 H 0.01044 0.17564 0.50306 0.0
H205 H 0.05073 0.12286 0.45164 0.0
C206 C 0.33089 0.146 0.58158 0.0
C207 C 0.28324 0.2352 0.56235 0.0
C208 C 0.12772 0.16237 0.59472 0.0
C209 C 0.17259 0.07017 0.60836 0.0
N210 N 0.31687 0.97264 0.61317 0.0
N211 N 0.13655 0.32883 0.54748 0.0
C212 C 0.27454 0.06185 0.60172 0.0
C213 C 0.18188 0.24389 0.56875 0.0
N214 N 0.43025 0.1425 0.58173 0.0
N215 N 0.03233 0.17172 0.60603 0.0
H216 H 0.17408 0.3902 0.52847 0.0
H217 H 0.06143 0.337 0.54524 0.0
H218 H 0.9885 0.11198 0.61809 0.0
H219 H 0.99778 0.23773 0.60474 0.0
H220 H 0.47008 0.0829 0.6002 0.0
H221 H 0.47382 0.20217 0.56664 0.0
H222 H 0.38845 0.95913 0.60393 0.0
H223 H 0.27786 0.90991 0.62821 0.0
C224 C 0.291 0.85144 0.45079 0.0
C225 C 0.28575 0.75034 0.45306 0.0
C226 C 0.12814 0.77088 0.40831 0.0
C227 C 0.13591 0.87251 0.40275 0.0
N228 N 0.22369 1.01134 0.41862 0.0
N229 N 0.20894 0.61537 0.42553 0.0
C230 C 0.21785 0.91327 0.42353 0.0
C231 C 0.2068 0.7104 0.42963 0.0
N232 N 0.36387 0.88745 0.47674 0.0
N233 N 0.04349 0.73179 0.39518 0.0
H234 H 0.26522 0.56841 0.44009 0.0
H235 H 0.15927 0.58486 0.40374 0.0
H236 H 0.98459 0.77413 0.38011 0.0
H237 H 0.02828 0.65799 0.40369 0.0
H238 H 0.36928 0.95904 0.48066 0.0
H239 H 0.41677 0.84379 0.49802 0.0
H240 H 0.28408 0.04785 0.42854 0.0
H241 H 0.16919 0.05816 0.40173 0.0
C242 C 0.14937 0.02961 0.20168 0.0
C243 C 0.07256 0.98553 0.17906 0.0
C244 C 0.99935 0.92725 0.26399 0.0
C245 C 0.07465 0.97318 0.28707 0.0
N246 N 0.23216 0.04703 0.28052 0.0
N247 N 0.94457 0.86706 0.18904 0.0
C248 C 0.15407 1.01619 0.25664 0.0
C249 C 1.00473 0.92517 0.21054 0.0
N250 N 0.21359 0.08932 0.17075 0.0
N251 N 0.91795 0.89405 0.29179 0.0
H252 H 0.94714 0.86451 0.14967 0.0
H253 H 0.89959 0.81473 0.21099 0.0
H254 H 0.90868 0.89703 0.33062 0.0
H255 H 0.85587 0.87109 0.27521 0.0
H256 H 0.26375 0.13288 0.18477 0.0
H257 H 0.21318 0.09985 0.13039 0.0
H258 H 0.29647 0.07197 0.26143 0.0
H259 H 0.23505 0.03914 0.32059 0.0
C260 C 0.96138 0.08409 0.76627 0.0
C261 C 0.04085 0.07547 0.8002 0.0
C262 C 0.13767 0.99705 0.74277 0.0
C263 C 0.05628 1.00017 0.70969 0.0
N264 N 0.8847 0.03303 0.69445 0.0
N265 N 0.21156 0.04899 0.81617 0.0
C266 C 0.96664 0.04111 0.72229 0.0
C267 C 0.13174 0.041 0.7866 0.0
N268 N 0.88158 0.13547 0.77596 0.0
N269 N 0.21612 0.94216 0.73558 0.0
H270 H 0.2085 0.07959 0.84904 0.0
H271 H 0.2819 0.03294 0.80594 0.0
H272 H 0.21728 0.90047 0.70724 0.0
H273 H 0.27462 0.92872 0.76096 0.0
H274 H 0.82452 0.15392 0.75002 0.0
H275 H 0.87724 0.16832 0.80807 0.0
H276 H 0.81514 0.04892 0.70592 0.0
H277 H 0.88468 1.00418 0.66134 0.0
C278 C 0.51455 0.42961 0.73109 0.0
C279 C 0.58743 0.4664 0.6946 0.0
C280 C 0.65417 0.56331 0.7538 0.0
C281 C 0.57366 0.53608 0.78757 0.0
N282 N 0.42078 0.45265 0.80529 0.0
N283 N 0.7405 0.54767 0.67486 0.0
C284 C 0.50345 0.46951 0.77612 0.0
C285 C 0.66261 0.52582 0.70754 0.0
N286 N 0.45534 0.35715 0.72194 0.0
N287 N 0.71643 0.63279 0.76353 0.0
H288 H 0.74771 0.52034 0.64111 0.0
H289 H 0.80125 0.58622 0.68255 0.0
H290 H 0.70804 0.66499 0.79548 0.0
H291 H 0.77244 0.66319 0.73892 0.0
H292 H 0.40595 0.32033 0.74898 0.0
H293 H 0.46284 0.32745 0.68887 0.0
H294 H 0.36168 0.41327 0.79616 0.0
H295 H 0.40738 0.48611 0.8362 0.0
C296 C 0.59726 0.51397 0.27846 0.0
C297 C 0.54232 0.57311 0.30494 0.0
C298 C 0.47395 0.65745 0.22248 0.0
C299 C 0.51478 0.58612 0.19791 0.0
N300 N 0.59374 0.43109 0.2073 0.0
N301 N 0.42877 0.70322 0.30362 0.0
C302 C 0.57291 0.51133 0.22671 0.0
C303 C 0.48192 0.64689 0.27725 0.0
N304 N 0.67121 0.45895 0.30303 0.0
N305 N 0.42422 0.73269 0.19346 0.0
H306 H 0.43517 0.69865 0.34354 0.0
H307 H 0.37515 0.75114 0.28668 0.0
H308 H 0.41296 0.73807 0.15395 0.0
H309 H 0.39967 0.79217 0.20757 0.0
H310 H 0.71834 0.42018 0.28377 0.0
H311 H 0.6909 0.4602 0.34117 0.0
H312 H 0.62809 0.37045 0.22895 0.0
H313 H 0.56603 0.4203 0.17212 0.0
loop_
_geom_bond_atom_site_label_1
_geom_bond_atom_site_label_2
_geom_bond_distance
_geom_bond_site_symmetry_2
_ccdc_geom_bond_type
O0 Zn1 1.953 . S
O0 C16 1.225 . S
Zn1 O0 1.953 . S
Zn1 O2 1.949 1_565 S
Zn1 O8 1.919 . S
Zn1 O13 1.924 1_565 S
O2 Zn1 1.949 1_545 S
O2 Zn3 1.923 1_544 S
O2 Zn4 1.950 1_455 S
O2 Zn5 1.945 1_554 S
Zn3 O2 1.923 1_566 S
Zn3 O6 1.933 . S
Zn3 O9 1.941 . S
Zn3 O10 1.965 1_455 S
Zn4 O2 1.950 1_655 S
Zn4 O11 1.938 1_545 S
Zn4 O12 1.906 . S
Zn4 O22 1.953 . S
Zn5 O2 1.945 1_556 S
Zn5 O7 1.932 . S
Zn5 O14 1.977 1_455 S
Zn5 O15 1.910 . S
O6 Zn3 1.933 . S
O6 C17 1.226 1_565 S
O7 Zn5 1.932 . S
O7 C17 1.307 . S
O8 Zn1 1.919 . S
O8 C19 1.255 1_554 S
O9 Zn3 1.941 . S
O9 C19 1.282 . S
O10 Zn3 1.965 1_655 S
O10 C18 1.303 1_556 S
O11 Zn4 1.938 1_565 S
O11 C18 1.247 . S
O12 Zn4 1.906 . S
O12 C20 1.304 1_554 S
O13 Zn1 1.924 1_545 S
O13 C21 1.311 . S
O14 Zn5 1.977 1_655 S
O14 C20 1.272 . S
O15 Zn5 1.910 . S
O15 C21 1.231 1_556 S
C16 O0 1.225 . S
C16 O22 1.298 1_465 S
C17 O6 1.226 1_545 S
C17 O7 1.307 . S
C18 O10 1.303 1_554 S
C18 O11 1.247 . S
C19 O8 1.255 1_556 S
C19 O9 1.282 . S
C20 O12 1.304 1_556 S
C20 O14 1.272 . S
C21 O13 1.311 . S
C21 O15 1.231 1_554 S
O22 Zn4 1.953 . S
O22 C16 1.298 1_645 S
O23 Zn24 1.953 . S
O23 C39 1.225 . S
Zn24 O23 1.953 . S
Zn24 O25 1.949 . S
Zn24 O31 1.919 . S
Zn24 O36 1.924 . S
O25 Zn24 1.949 . S
O25 Zn26 1.923 . S
O25 Zn27 1.950 . S
O25 Zn28 1.945 . S
Zn26 O25 1.923 . S
Zn26 O29 1.933 . S
Zn26 O32 1.941 . S
Zn26 O33 1.965 . S
Zn27 O25 1.950 . S
Zn27 O34 1.938 . S
Zn27 O35 1.906 . S
Zn27 O45 1.953 . S
Zn28 O25 1.945 . S
Zn28 O30 1.932 . S
Zn28 O37 1.977 . S
Zn28 O38 1.910 . S
O29 Zn26 1.933 . S
O29 C40 1.226 . S
O30 Zn28 1.932 . S
O30 C40 1.307 . S
O31 Zn24 1.919 . S
O31 C42 1.253 . S
O32 Zn26 1.941 . S
O32 C42 1.283 . S
O33 Zn26 1.965 . S
O33 C41 1.303 . S
O34 Zn27 1.938 . S
O34 C41 1.247 . S
O35 Zn27 1.906 . S
O35 C43 1.304 . S
O36 Zn24 1.924 . S
O36 C44 1.311 . S
O37 Zn28 1.977 . S
O37 C43 1.272 . S
O38 Zn28 1.910 . S
O38 C44 1.231 . S
C39 O23 1.225 . S
C39 O45 1.298 . S
C40 O29 1.226 . S
C40 O30 1.307 . S
C41 O33 1.303 . S
C41 O34 1.247 . S
C42 O31 1.253 . S
C42 O32 1.283 . S
C43 O35 1.304 . S
C43 O37 1.272 . S
C44 O36 1.311 . S
C44 O38 1.231 . S
O45 Zn27 1.953 . S
O45 C39 1.298 . S
C46 N47 1.317 1_545 S
C46 N48 1.348 1_455 S
C46 C49 1.485 1_545 S
N47 C46 1.317 1_565 S
N47 N51 1.370 1_565 S
N48 C46 1.348 1_655 S
N48 C50 1.346 . S
C49 C46 1.485 1_565 S
C49 H53 0.960 1_455 S
C49 H54 0.961 1_565 S
C49 H55 0.960 . S
C50 N48 1.346 . S
C50 N51 1.307 1_655 S
C50 C52 1.486 . S
N51 N47 1.370 1_545 S
N51 C50 1.307 1_455 S
C52 C50 1.486 . S
C52 H56 0.960 . S
C52 H57 0.960 . S
C52 H58 0.959 . S
H53 C49 0.960 1_655 S
H54 C49 0.961 1_545 S
H55 C49 0.960 . S
H56 C52 0.960 . S
H57 C52 0.960 . S
H58 C52 0.959 . S
C59 N60 1.317 . S
C59 N61 1.348 1_445 S
C59 C62 1.485 . S
N60 C59 1.317 . S
N60 N64 1.370 . S
N61 C59 1.348 1_665 S
N61 C63 1.346 . S
C62 C59 1.485 . S
C62 H66 0.960 . S
C62 H67 0.961 1_545 S
C62 H68 0.960 . S
C63 N61 1.346 . S
C63 N64 1.307 1_665 S
C63 C65 1.486 . S
N64 N60 1.370 . S
N64 C63 1.307 1_445 S
C65 C63 1.486 . S
C65 H69 0.960 . S
C65 H70 0.960 . S
C65 H71 0.959 . S
H66 C62 0.960 . S
H67 C62 0.961 1_565 S
H68 C62 0.960 . S
H69 C65 0.960 . S
H70 C65 0.960 . S
H71 C65 0.959 . S
C72 N73 1.317 . S
C72 N74 1.348 . S
C72 C75 1.485 1_556 S
N73 C72 1.317 . S
N73 N77 1.370 . S
N74 C72 1.348 . S
N74 C76 1.346 . S
C75 C72 1.485 1_554 S
C75 H79 0.960 . S
C75 H80 0.961 . S
C75 H81 0.960 . S
C76 N74 1.346 . S
C76 N77 1.307 . S
C76 C78 1.486 . S
N77 N73 1.370 . S
N77 C76 1.307 . S
C78 C76 1.486 . S
C78 H82 0.960 . S
C78 H83 0.960 . S
C78 H84 0.959 . S
H79 C75 0.960 . S
H80 C75 0.961 . S
H81 C75 0.960 . S
H82 C78 0.960 . S
H83 C78 0.960 . S
H84 C78 0.959 . S
C85 N86 1.317 . S
C85 N87 1.348 . S
C85 C88 1.485 1_554 S
N86 C85 1.317 . S
N86 N90 1.370 . S
N87 C85 1.348 . S
N87 C89 1.346 . S
C88 C85 1.485 1_556 S
C88 H92 0.960 . S
C88 H93 0.961 . S
C88 H94 0.960 . S
C89 N87 1.346 . S
C89 N90 1.307 . S
C89 C91 1.486 . S
N90 N86 1.370 . S
N90 C89 1.307 . S
C91 C89 1.486 . S
C91 H95 0.960 . S
C91 H96 0.960 . S
C91 H97 0.959 . S
H92 C88 0.960 . S
H93 C88 0.961 . S
H94 C88 0.960 . S
H95 C91 0.960 . S
H96 C91 0.960 . S
H97 C91 0.959 . S
C98 C99 1.363 1_556 S
C98 C104 1.379 1_556 S
C98 N106 1.356 . S
C99 C98 1.363 1_554 S
C99 C105 1.363 . S
C100 C101 1.363 . S
C100 C105 1.379 . S
C100 N107 1.356 . S
C101 C100 1.363 . S
C101 C104 1.363 . S
N102 C104 1.356 1_556 S
N102 H114 0.984 . S
N102 H115 0.985 1_556 S
N103 C105 1.356 . S
N103 H108 0.984 . S
N103 H109 0.985 . S
C104 C98 1.379 1_554 S
C104 C101 1.363 . S
C104 N102 1.356 1_554 S
C105 C99 1.363 . S
C105 C100 1.379 . S
C105 N103 1.356 . S
N106 C98 1.356 . S
N106 H112 0.984 . S
N106 H113 0.984 . S
N107 C100 1.356 . S
N107 H110 0.984 . S
N107 H111 0.985 . S
H108 N103 0.984 . S
H109 N103 0.985 . S
H110 N107 0.984 . S
H111 N107 0.985 . S
H112 N106 0.984 . S
H113 N106 0.984 . S
H114 N102 0.984 . S
H115 N102 0.985 1_554 S
C116 C117 1.363 1_554 S
C116 C122 1.379 1_554 S
C116 N124 1.356 . S
C117 C116 1.363 1_556 S
C117 C123 1.363 . S
C118 C119 1.363 . S
C118 C123 1.379 . S
C118 N125 1.356 . S
C119 C118 1.363 . S
C119 C122 1.363 . S
N120 C122 1.356 1_554 S
N120 H132 0.984 . S
N120 H133 0.985 1_554 S
N121 C123 1.356 . S
N121 H126 0.984 . S
N121 H127 0.985 . S
C122 C116 1.379 1_556 S
C122 C119 1.363 . S
C122 N120 1.356 1_556 S
C123 C117 1.363 . S
C123 C118 1.379 . S
C123 N121 1.356 . S
N124 C116 1.356 . S
N124 H130 0.984 . S
N124 H131 0.984 . S
N125 C118 1.356 . S
N125 H128 0.984 . S
N125 H129 0.985 . S
H126 N121 0.984 . S
H127 N121 0.985 . S
H128 N125 0.984 . S
H129 N125 0.985 . S
H130 N124 0.984 . S
H131 N124 0.984 . S
H132 N120 0.984 . S
H133 N120 0.985 1_556 S
C134 C135 1.363 . S
C134 C140 1.379 . S
C134 N142 1.356 . S
C135 C134 1.363 . S
C135 C141 1.363 . S
C136 C137 1.363 . S
C136 C141 1.379 . S
C136 N143 1.356 . S
C137 C136 1.363 . S
C137 C140 1.363 . S
N138 C140 1.356 . S
N138 H150 0.984 . S
N138 H151 0.985 . S
N139 C141 1.356 1_556 S
N139 H144 0.984 . S
N139 H145 0.985 . S
C140 C134 1.379 . S
C140 C137 1.363 . S
C140 N138 1.356 . S
C141 C135 1.363 . S
C141 C136 1.379 . S
C141 N139 1.356 1_554 S
N142 C134 1.356 . S
N142 H148 0.984 . S
N142 H149 0.984 . S
N143 C136 1.356 . S
N143 H146 0.984 . S
N143 H147 0.985 1_554 S
H144 N139 0.984 . S
H145 N139 0.985 . S
H146 N143 0.984 . S
H147 N143 0.985 1_556 S
H148 N142 0.984 . S
H149 N142 0.984 . S
H150 N138 0.984 . S
H151 N138 0.985 . S
C152 C153 1.363 . S
C152 C158 1.379 . S
C152 N160 1.356 . S
C153 C152 1.363 . S
C153 C159 1.363 . S
C154 C155 1.363 . S
C154 C159 1.379 . S
C154 N161 1.356 . S
C155 C154 1.363 . S
C155 C158 1.363 . S
N156 C158 1.356 . S
N156 H168 0.984 . S
N156 H169 0.985 . S
N157 C159 1.356 1_554 S
N157 H162 0.984 . S
N157 H163 0.985 . S
C158 C152 1.379 . S
C158 C155 1.363 . S
C158 N156 1.356 . S
C159 C153 1.363 . S
C159 C154 1.379 . S
C159 N157 1.356 1_556 S
N160 C152 1.356 . S
N160 H166 0.984 . S
N160 H167 0.984 . S
N161 C154 1.356 . S
N161 H164 0.984 . S
N161 H165 0.985 . S
H162 N157 0.984 . S
H163 N157 0.985 . S
H164 N161 0.984 . S
H165 N161 0.985 . S
H166 N160 0.984 . S
H167 N160 0.984 . S
H168 N156 0.984 . S
H169 N156 0.985 . S
C170 C171 1.363 . S
C170 C176 1.379 . S
C170 N178 1.356 . S
C171 C170 1.363 . S
C171 C177 1.363 . S
C172 C173 1.363 . S
C172 C177 1.379 . S
C172 N179 1.356 1_655 S
C173 C172 1.363 . S
C173 C176 1.363 . S
N174 C176 1.356 . S
N174 H186 0.984 . S
N174 H187 0.985 . S
N175 C177 1.356 . S
N175 H180 0.984 . S
N175 H181 0.985 . S
C176 C170 1.379 . S
C176 C173 1.363 . S
C176 N174 1.356 . S
C177 C171 1.363 . S
C177 C172 1.379 . S
C177 N175 1.356 . S
N178 C170 1.356 . S
N178 H184 0.984 . S
N178 H185 0.984 . S
N179 C172 1.356 1_455 S
N179 H182 0.984 . S
N179 H183 0.985 . S
H180 N175 0.984 . S
H181 N175 0.985 . S
H182 N179 0.984 . S
H183 N179 0.985 . S
H184 N178 0.984 . S
H185 N178 0.984 . S
H186 N174 0.984 . S
H187 N174 0.985 . S
C188 C189 1.363 . S
C188 C194 1.379 . S
C188 N196 1.356 . S
C189 C188 1.363 . S
C189 C195 1.363 . S
C190 C191 1.363 . S
C190 C195 1.379 . S
C190 N197 1.356 . S
C191 C190 1.363 . S
C191 C194 1.363 . S
N192 C194 1.356 . S
N192 H204 0.984 1_655 S
N192 H205 0.985 1_655 S
N193 C195 1.356 . S
N193 H198 0.984 . S
N193 H199 0.985 . S
C194 C188 1.379 . S
C194 C191 1.363 . S
C194 N192 1.356 . S
C195 C189 1.363 . S
C195 C190 1.379 . S
C195 N193 1.356 . S
N196 C188 1.356 . S
N196 H202 0.984 . S
N196 H203 0.984 . S
N197 C190 1.356 . S
N197 H200 0.984 . S
N197 H201 0.985 . S
H198 N193 0.984 . S
H199 N193 0.985 . S
H200 N197 0.984 . S
H201 N197 0.985 . S
H202 N196 0.984 . S
H203 N196 0.984 . S
H204 N192 0.984 1_455 S
H205 N192 0.985 1_455 S
C206 C207 1.363 . S
C206 C212 1.379 . S
C206 N214 1.356 . S
C207 C206 1.363 . S
C207 C213 1.363 . S
C208 C209 1.363 . S
C208 C213 1.379 . S
C208 N215 1.356 . S
C209 C208 1.363 . S
C209 C212 1.363 . S
N210 C212 1.356 . S
N210 H222 0.984 . S
N210 H223 0.985 . S
N211 C213 1.356 . S
N211 H216 0.984 . S
N211 H217 0.985 . S
C212 C206 1.379 . S
C212 C209 1.363 . S
C212 N210 1.356 . S
C213 C207 1.363 . S
C213 C208 1.379 . S
C213 N211 1.356 . S
N214 C206 1.356 . S
N214 H220 0.984 . S
N214 H221 0.984 . S
N215 C208 1.356 . S
N215 H218 0.984 . S
N215 H219 0.985 . S
H216 N211 0.984 . S
H217 N211 0.985 . S
H218 N215 0.984 . S
H219 N215 0.985 . S
H220 N214 0.984 . S
H221 N214 0.984 . S
H222 N210 0.984 . S
H223 N210 0.985 . S
C224 C225 1.363 . S
C224 C230 1.379 . S
C224 N232 1.356 . S
C225 C224 1.363 . S
C225 C231 1.363 . S
C226 C227 1.363 . S
C226 C231 1.379 . S
C226 N233 1.356 . S
C227 C226 1.363 . S
C227 C230 1.363 . S
N228 C230 1.356 . S
N228 H240 0.984 . S
N228 H241 0.985 1_565 S
N229 C231 1.356 . S
N229 H234 0.984 . S
N229 H235 0.985 . S
C230 C224 1.379 . S
C230 C227 1.363 . S
C230 N228 1.356 . S
C231 C225 1.363 . S
C231 C226 1.379 . S
C231 N229 1.356 . S
N232 C224 1.356 . S
N232 H238 0.984 . S
N232 H239 0.984 . S
N233 C226 1.356 . S
N233 H236 0.984 1_455 S
N233 H237 0.985 . S
H234 N229 0.984 . S
H235 N229 0.985 . S
H236 N233 0.984 1_655 S
H237 N233 0.985 . S
H238 N232 0.984 . S
H239 N232 0.984 . S
H240 N228 0.984 . S
H241 N228 0.985 1_545 S
C242 C243 1.363 1_545 S
C242 C248 1.379 . S
C242 N250 1.356 . S
C243 C242 1.363 1_565 S
C243 C249 1.363 1_455 S
C244 C245 1.363 1_655 S
C244 C249 1.379 . S
C244 N251 1.356 . S
C245 C244 1.363 1_455 S
C245 C248 1.363 1_565 S
N246 C248 1.356 . S
N246 H258 0.984 . S
N246 H259 0.985 . S
N247 C249 1.356 . S
N247 H252 0.984 . S
N247 H253 0.985 . S
C248 C242 1.379 . S
C248 C245 1.363 1_545 S
C248 N246 1.356 . S
C249 C243 1.363 1_655 S
C249 C244 1.379 . S
C249 N247 1.356 . S
N250 C242 1.356 . S
N250 H256 0.984 . S
N250 H257 0.984 . S
N251 C244 1.356 . S
N251 H254 0.984 . S
N251 H255 0.985 . S
H252 N247 0.984 . S
H253 N247 0.985 . S
H254 N251 0.984 . S
H255 N251 0.985 . S
H256 N250 0.984 . S
H257 N250 0.984 . S
H258 N246 0.984 . S
H259 N246 0.985 . S
C260 C261 1.363 1_655 S
C260 C266 1.379 . S
C260 N268 1.356 . S
C261 C260 1.363 1_455 S
C261 C267 1.363 1_545 S
C262 C263 1.363 1_565 S
C262 C267 1.379 . S
C262 N269 1.356 . S
C263 C262 1.363 1_545 S
C263 C266 1.363 1_455 S
N264 C266 1.356 . S
N264 H276 0.984 . S
N264 H277 0.985 . S
N265 C267 1.356 . S
N265 H270 0.984 . S
N265 H271 0.985 . S
C266 C260 1.379 . S
C266 C263 1.363 1_655 S
C266 N264 1.356 . S
C267 C261 1.363 1_565 S
C267 C262 1.379 . S
C267 N265 1.356 . S
N268 C260 1.356 . S
N268 H274 0.984 . S
N268 H275 0.984 . S
N269 C262 1.356 . S
N269 H272 0.984 . S
N269 H273 0.985 . S
H270 N265 0.984 . S
H271 N265 0.985 . S
H272 N269 0.984 . S
H273 N269 0.985 . S
H274 N268 0.984 . S
H275 N268 0.984 . S
H276 N264 0.984 . S
H277 N264 0.985 . S
C278 C279 1.363 . S
C278 C284 1.379 . S
C278 N286 1.356 . S
C279 C278 1.363 . S
C279 C285 1.363 . S
C280 C281 1.363 . S
C280 C285 1.379 . S
C280 N287 1.356 . S
C281 C280 1.363 . S
C281 C284 1.363 . S
N282 C284 1.356 . S
N282 H294 0.984 . S
N282 H295 0.985 . S
N283 C285 1.356 . S
N283 H288 0.984 . S
N283 H289 0.985 . S
C284 C278 1.379 . S
C284 C281 1.363 . S
C284 N282 1.356 . S
C285 C279 1.363 . S
C285 C280 1.379 . S
C285 N283 1.356 . S
N286 C278 1.356 . S
N286 H292 0.984 . S
N286 H293 0.984 . S
N287 C280 1.356 . S
N287 H290 0.984 . S
N287 H291 0.985 . S
H288 N283 0.984 . S
H289 N283 0.985 . S
H290 N287 0.984 . S
H291 N287 0.985 . S
H292 N286 0.984 . S
H293 N286 0.984 . S
H294 N282 0.984 . S
H295 N282 0.985 . S
C296 C297 1.363 . S
C296 C302 1.379 . S
C296 N304 1.356 . S
C297 C296 1.363 . S
C297 C303 1.363 . S
C298 C299 1.363 . S
C298 C303 1.379 . S
C298 N305 1.356 . S
C299 C298 1.363 . S
C299 C302 1.363 . S
N300 C302 1.356 . S
N300 H312 0.984 . S
N300 H313 0.985 . S
N301 C303 1.356 . S
N301 H306 0.984 . S
N301 H307 0.985 . S
C302 C296 1.379 . S
C302 C299 1.363 . S
C302 N300 1.356 . S
C303 C297 1.363 . S
C303 C298 1.379 . S
C303 N301 1.356 . S
N304 C296 1.356 . S
N304 H310 0.984 . S
N304 H311 0.984 . S
N305 C298 1.356 . S
N305 H308 0.984 . S
N305 H309 0.985 . S
H306 N301 0.984 . S
H307 N301 0.985 . S
H308 N305 0.984 . S
H309 N305 0.985 . S
H310 N304 0.984 . S
H311 N304 0.984 . S
H312 N300 0.984 . S
H313 N300 0.985 . S
C101 N87 1.436 . S
C99 C21 1.440 . S
C117 C19 1.434 . S
C119 N74 1.440 . S
C135 C18 1.478 . S
C137 N86 1.508 . S
C153 C20 1.512 . S
C155 N73 1.514 . S
C171 C44 1.440 . S
C173 N61 1.436 . S
C189 C42 1.435 . S
C191 N48 1.440 . S
C209 N60 1.508 . S
C207 C41 1.478 . S
C227 N47 1.514 . S
C225 C43 1.512 . S
C243 C16 1.529 . S
C245 N51 1.512 1_565 S
C261 C17 1.502 . S
C263 N64 1.489 . S
C281 N77 1.512 . S
C279 C39 1.529 . S
C297 C40 1.502 . S
C299 N90 1.489 . S
