# Generated by pormake.
# Topology anh, (6,3)-cn, num edge types: 1
# Building blocks:
#     Node 0, Type 0, BuildingBlock: BETFAJ_clean_sbu_0, # of connection points: 6
#     Node 1, Type 0, BuildingBlock: BETFAJ_clean_sbu_0, # of connection points: 6
#     Node 2, Type 0, BuildingBlock: BETFAJ_clean_sbu_0, # of connection points: 6
#     Node 3, Type 1, BuildingBlock: BETDAH_clean_linker_0, # of connection points: 3
#     Node 4, Type 1, BuildingBlock: BETDAH_clean_linker_0, # of connection points: 3
#     Node 5, Type 1, BuildingBlock: BETDAH_clean_linker_0, # of connection points: 3
#     Node 6, Type 1, BuildingBlock: BETDAH_clean_linker_0, # of connection points: 3
#     Node 7, Type 1, BuildingBlock: BETDAH_clean_linker_0, # of connection points: 3
#     Node 8, Type 1, BuildingBlock: BETDAH_clean_linker_0, # of connection points: 3
#     Edge 9, Type (0, 1), BuildingBlock: EZIPEK_clean_linker_0, # of connection points: 2
#     Edge 10, Type (0, 1), BuildingBlock: EZIPEK_clean_linker_0, # of connection points: 2
#     Edge 11, Type (0, 1), BuildingBlock: EZIPEK_clean_linker_0, # of connection points: 2
#     Edge 12, Type (0, 1), BuildingBlock: EZIPEK_clean_linker_0, # of connection points: 2
#     Edge 13, Type (0, 1), BuildingBlock: EZIPEK_clean_linker_0, # of connection points: 2
#     Edge 14, Type (0, 1), BuildingBlock: EZIPEK_clean_linker_0, # of connection points: 2
#     Edge 15, Type (0, 1), BuildingBlock: EZIPEK_clean_linker_0, # of connection points: 2
#     Edge 16, Type (0, 1), BuildingBlock: EZIPEK_clean_linker_0, # of connection points: 2
#     Edge 17, Type (0, 1), BuildingBlock: EZIPEK_clean_linker_0, # of connection points: 2
#     Edge 18, Type (0, 1), BuildingBlock: EZIPEK_clean_linker_0, # of connection points: 2
#     Edge 19, Type (0, 1), BuildingBlock: EZIPEK_clean_linker_0, # of connection points: 2
#     Edge 20, Type (0, 1), BuildingBlock: EZIPEK_clean_linker_0, # of connection points: 2
#     Edge 21, Type (0, 1), BuildingBlock: EZIPEK_clean_linker_0, # of connection points: 2
#     Edge 22, Type (0, 1), BuildingBlock: EZIPEK_clean_linker_0, # of connection points: 2
#     Edge 23, Type (0, 1), BuildingBlock: EZIPEK_clean_linker_0, # of connection points: 2
#     Edge 24, Type (0, 1), BuildingBlock: EZIPEK_clean_linker_0, # of connection points: 2
#     Edge 25, Type (0, 1), BuildingBlock: EZIPEK_clean_linker_0, # of connection points: 2
#     Edge 26, Type (0, 1), BuildingBlock: EZIPEK_clean_linker_0, # of connection points: 2
# Relax obj value: 0.213
# Max RMSD: 0.214
# Mean RMSD: 0.121
data_MOF--net-anh--node1-BETFAJ_clean_sbu_0--node2-BETDAH_clean_linker_0--edge1-EZIPEK_clean_linker_0
_symmetry_space_group_name_H-M    P1
_symmetry_Int_Tables_number       1
_symmetry_cell_setting            triclinic
loop_
_symmetry_equiv_pos_as_xyz
'x, y, z'
_cell_length_a     24.346951
_cell_length_b     30.060916
_cell_length_c     36.284272
_cell_angle_alpha  94.175074
_cell_angle_beta   91.071587
_cell_angle_gamma 132.80686
loop_
_atom_site_label
_atom_site_type_symbol
_atom_site_fract_x
_atom_site_fract_y
_atom_site_fract_z
_atom_type_partial_charge
Sm0 Sm 0.1601 0.5584 0.15682 0.0
Sm1 Sm 1.06278 0.5795 0.16709 0.0
C2 C 0.25419 0.55055 0.13192 0.0
C3 C 0.30148 0.5718 0.10103 0.0
C4 C 0.2727 0.56442 0.0649 0.0
C5 C 0.30656 0.56386 0.03452 0.0
C6 C 0.36844 0.56925 0.04008 0.0
C7 C 0.40623 0.59109 0.07632 0.0
C8 C 0.37172 0.59063 0.10662 0.0
C9 C 0.12644 0.5511 0.22955 0.0
C10 C 0.24135 0.70204 0.16599 0.0
C11 C 0.98273 0.60454 0.18933 0.0
C12 C 0.90145 0.56674 0.1912 0.0
C13 C 0.86101 0.52171 0.21573 0.0
C14 C 0.78263 0.48103 0.21367 0.0
C15 C 0.74401 0.4845 0.1868 0.0
C16 C 0.78441 0.53132 0.16376 0.0
C17 C 0.86252 0.57232 0.16607 0.0
C18 C 1.06344 0.54869 0.09302 0.0
C19 C 0.98276 0.43846 0.16052 0.0
O20 O 0.18167 0.50902 0.1227 0.0
O21 O 0.27445 0.59145 0.15907 0.0
O22 O 0.14178 0.59054 0.20972 0.0
O23 O 0.1314 0.51553 0.21136 0.0
O24 O 0.25171 0.66422 0.16216 0.0
O25 O 0.17298 0.68068 0.16735 0.0
O26 O 1.0151 0.59484 0.21197 0.0
O27 O 1.00546 0.61189 0.15605 0.0
O28 O 0.12033 0.58592 0.11613 0.0
O29 O 1.00279 0.52545 0.10881 0.0
O30 O 0.98099 0.47783 0.17719 0.0
O31 O 1.04282 0.45907 0.14377 0.0
H32 H 0.22015 0.55311 0.06003 0.0
H33 H 0.27873 0.55218 0.00722 0.0
H34 H 0.45715 0.60052 0.08243 0.0
H35 H 0.39643 0.59918 0.13442 0.0
H36 H 0.88946 0.51649 0.23564 0.0
H37 H 0.75202 0.44543 0.23186 0.0
H38 H 0.75516 0.53483 0.14308 0.0
H39 H 0.89231 0.60689 0.14717 0.0
Sm40 Sm 0.70562 0.07507 0.47344 0.0
Sm41 Sm 0.60364 0.09095 0.46991 0.0
C42 C 0.77896 0.04151 0.48933 0.0
C43 C 0.76001 0.98666 0.50014 0.0
C44 C 0.70239 0.94897 0.52329 0.0
C45 C 0.68616 0.8975 0.53371 0.0
C46 C 0.7267 0.88291 0.52067 0.0
C47 C 0.78362 0.92017 0.49731 0.0
C48 C 0.80028 0.97185 0.48717 0.0
C49 C 0.67853 0.08592 0.40214 0.0
C50 C 0.52235 0.95151 0.46206 0.0
C51 C 0.5283 0.1245 0.46145 0.0
C52 C 0.5421 0.1781 0.47691 0.0
C53 C 0.51495 0.19891 0.45695 0.0
C54 C 0.52998 0.25105 0.47125 0.0
C55 C 0.57193 0.28251 0.50575 0.0
C56 C 0.59907 0.26162 0.52569 0.0
C57 C 0.58468 0.20997 0.51125 0.0
C58 C 0.63362 0.08172 0.54165 0.0
C59 C 0.787 0.21543 0.47389 0.0
O60 O 0.77026 0.07 0.51362 0.0
O61 O 0.75587 0.03778 0.45554 0.0
O62 O 0.62847 0.05397 0.42407 0.0
O63 O 0.74409 0.11133 0.41711 0.0
O64 O 0.5894 0.97521 0.47575 0.0
O65 O 0.51474 0.98825 0.45169 0.0
O66 O 0.57541 0.1349 0.43835 0.0
O67 O 0.51334 0.08768 0.48517 0.0
O68 O 0.68226 0.11464 0.51933 0.0
O69 O 0.56727 0.04919 0.52482 0.0
O70 O 0.71733 0.19116 0.46686 0.0
O71 O 0.79935 0.18031 0.48093 0.0
H72 H 0.67027 0.95944 0.53339 0.0
H73 H 0.64198 0.86896 0.55172 0.0
H74 H 0.81533 0.90934 0.48712 0.0
H75 H 0.8447 1.00034 0.46926 0.0
H76 H 0.48262 0.1751 0.43027 0.0
H77 H 0.50901 0.2669 0.45551 0.0
H78 H 0.63186 0.28564 0.55225 0.0
H79 H 0.60698 0.195 0.52684 0.0
Sm80 Sm 0.6712 0.60445 0.85776 0.0
Sm81 Sm 0.56273 0.47362 0.83508 0.0
C82 C 0.77083 0.72407 0.85445 0.0
C83 C 0.76478 0.76835 0.84715 0.0
C84 C 0.69805 0.7552 0.85207 0.0
C85 C 0.68875 0.79311 0.83992 0.0
C86 C 0.74575 0.84444 0.82241 0.0
C87 C 0.81271 0.85788 0.81787 0.0
C88 C 0.82213 0.82014 0.83018 0.0
C89 C 0.60833 0.53736 0.91692 0.0
C90 C 0.48514 0.53528 0.85021 0.0
C91 C 0.49081 0.35701 0.81755 0.0
C92 C 0.51481 0.32321 0.81293 0.0
C93 C 0.48212 0.27245 0.83214 0.0
C94 C 0.50294 0.23913 0.82681 0.0
C95 C 0.55642 0.25602 0.80201 0.0
C96 C 0.59034 0.30749 0.7835 0.0
C97 C 0.56987 0.34083 0.78891 0.0
C98 C 0.60089 0.54048 0.77666 0.0
C99 C 0.74997 0.54318 0.85272 0.0
O100 O 0.74693 0.68371 0.82617 0.0
O101 O 0.74969 0.70017 0.88584 0.0
O102 O 0.62963 0.52613 0.88954 0.0
O103 O 0.62335 0.58764 0.91503 0.0
O104 O 0.55776 0.58709 0.84959 0.0
O105 O 0.47275 0.48393 0.84857 0.0
O106 O 0.49711 0.37961 0.85114 0.0
O107 O 0.51146 0.39456 0.79318 0.0
O108 O 0.64544 0.55194 0.80255 0.0
O109 O 0.5323 0.4945 0.78281 0.0
O110 O 0.67805 0.49223 0.84089 0.0
O111 O 0.76194 0.59371 0.86196 0.0
H112 H 0.6524 0.71478 0.86437 0.0
H113 H 0.63659 0.78185 0.84358 0.0
H114 H 0.85721 0.89714 0.80435 0.0
H115 H 0.87336 0.83039 0.82544 0.0
H116 H 0.43986 0.25817 0.85089 0.0
H117 H 0.47628 0.19947 0.84133 0.0
H118 H 0.63176 0.32118 0.76432 0.0
H119 H 0.59649 0.37991 0.77381 0.0
H120 H 0.50917 0.94785 0.24943 0.0
H121 H 0.69453 0.13258 0.2284 0.0
H122 H 0.53008 0.99703 0.13864 0.0
C123 C 0.53907 0.98161 0.22998 0.0
C124 C 0.51136 0.96425 0.19242 0.0
C125 C 0.60411 0.042 0.24308 0.0
C126 C 0.64392 0.0862 0.21813 0.0
C127 C 0.61783 0.07046 0.18024 0.0
C128 C 0.55105 1.00938 0.16768 0.0
N129 N 0.65667 0.11436 0.1541 0.0
C130 C 0.72158 0.17693 0.16173 0.0
H131 H 0.61024 0.46996 0.62284 0.0
H132 H 0.69025 0.64686 0.61125 0.0
H133 H 0.67261 0.54017 0.51742 0.0
C134 C 0.62993 0.50565 0.60571 0.0
C135 C 0.63847 0.49873 0.56831 0.0
C136 C 0.64874 0.5591 0.62141 0.0
C137 C 0.67484 0.60534 0.59905 0.0
C138 C 0.68301 0.59819 0.56132 0.0
C139 C 0.6654 0.54523 0.54636 0.0
N140 N 0.7113 0.64397 0.53779 0.0
C141 C 0.70604 0.68706 0.54306 0.0
H142 H 0.97975 0.53819 0.93294 0.0
H143 H 0.1539 0.53583 0.92432 0.0
H144 H 1.05476 0.54011 0.82529 0.0
C145 C 1.01471 0.53797 0.91499 0.0
C146 C 1.00648 0.53966 0.87669 0.0
C147 C 1.06709 0.53725 0.93169 0.0
C148 C 0.11467 0.53638 0.91037 0.0
C149 C 0.11309 0.53707 0.87167 0.0
C150 C 1.05747 0.53874 0.85492 0.0
N151 N 0.16539 0.53669 0.85007 0.0
C152 C 0.22527 0.53614 0.85816 0.0
H153 H 0.27595 0.69298 0.3814 0.0
H154 H 0.08303 0.51352 0.4063 0.0
H155 H 0.21998 0.66293 0.49435 0.0
C156 C 0.24057 0.6627 0.40184 0.0
C157 C 0.25698 0.68638 0.43935 0.0
C158 C 0.17715 0.60137 0.38982 0.0
C159 C 0.13137 0.56103 0.41587 0.0
C160 C 0.14698 0.58253 0.45388 0.0
C161 C 0.20911 0.64565 0.46531 0.0
N162 N 0.10083 0.54263 0.48106 0.0
C163 C 1.03919 0.4791 0.47456 0.0
H164 H 0.64057 0.14357 0.70088 0.0
H165 H 0.66912 0.01807 0.71106 0.0
H166 H 0.63353 0.08669 0.80692 0.0
C167 C 0.64625 0.1185 0.71797 0.0
C168 C 0.63728 0.12018 0.75578 0.0
C169 C 0.65718 0.0816 0.70142 0.0
C170 C 0.66252 0.04777 0.72373 0.0
C171 C 0.65517 0.05054 0.76222 0.0
C172 C 0.64198 0.08636 0.7777 0.0
N173 N 0.65466 0.01506 0.78629 0.0
C174 C 0.68121 0.98648 0.78039 0.0
H175 H 0.58566 0.41984 0.07485 0.0
H176 H 0.39675 0.3744 0.01577 0.0
H177 H 0.38032 0.32929 0.12713 0.0
C178 C 0.52717 0.39768 0.07329 0.0
C179 C 0.48539 0.37162 0.10403 0.0
C180 C 0.49587 0.40028 0.04191 0.0
C181 C 0.42075 0.372 0.04015 0.0
C182 C 0.37949 0.34848 0.07114 0.0
C183 C 0.4107 0.34557 0.10261 0.0
N184 N 0.31636 0.34206 0.07364 0.0
C185 C 0.31762 0.38298 0.05696 0.0
C186 C 0.31113 0.47732 -0.00285 0.0
C187 C 0.37848 0.53541 0.01282 0.0
C188 C 0.41639 0.48989 0.04241 0.0
C189 C 0.33996 0.43311 0.03778 0.0
N190 N 0.21738 0.36886 0.00376 0.0
N191 N 0.50891 0.58986 0.02074 0.0
C192 C 0.28801 0.42497 0.01229 0.0
C193 C 0.43633 0.53805 0.02349 0.0
N194 N 0.27139 0.47329 0.96806 0.0
N195 N 0.46758 0.50015 0.06734 0.0
H196 H 0.52151 0.62643 0.00917 0.0
H197 H 0.55406 0.59375 0.02718 0.0
H198 H 0.45373 0.46796 0.08435 0.0
H199 H 0.52159 0.54299 0.07378 0.0
H200 H 0.29209 0.51239 0.95631 0.0
H201 H 0.22277 0.43207 0.95422 0.0
H202 H 0.17539 0.3616 0.98779 0.0
H203 H 0.20024 0.32988 0.01399 0.0
C204 C 0.85207 0.32572 0.49434 0.0
C205 C 0.85219 0.28355 0.47372 0.0
C206 C 0.97772 0.37104 0.45479 0.0
C207 C 0.97434 0.41252 0.47279 0.0
N208 N 0.90249 0.42901 0.50444 0.0
N209 N 0.90966 0.26756 0.42787 0.0
C210 C 0.90956 0.38964 0.49085 0.0
C211 C 0.91374 0.30667 0.4523 0.0
N212 N 0.79941 0.30527 0.51895 0.0
N213 N 1.04268 0.39304 0.44044 0.0
H214 H 0.86351 0.22074 0.42415 0.0
H215 H 0.94853 0.282 0.40858 0.0
H216 H 0.0895 0.4396 0.44058 0.0
H217 H 1.05217 0.36538 0.43098 0.0
H218 H 0.80049 0.33412 0.53738 0.0
H219 H 0.7588 0.25968 0.5238 0.0
H220 H 0.8533 0.41468 0.51427 0.0
H221 H 0.94376 0.47593 0.50297 0.0
C222 C 0.77526 0.94308 0.82709 0.0
C223 C 0.73487 0.88378 0.80849 0.0
C224 C 0.66496 0.89539 0.76713 0.0
C225 C 0.7064 0.95489 0.7854 0.0
N226 N 0.81245 0.04114 0.82629 0.0
N227 N 0.65329 0.80847 0.756 0.0
C228 C 0.76551 0.98062 0.81321 0.0
C229 C 0.6833 0.86143 0.77696 0.0
N230 N 0.8199 0.96233 0.85916 0.0
N231 N 0.60669 0.87077 0.74119 0.0
H232 H 0.6658 0.7827 0.7623 0.0
H233 H 0.62108 0.79263 0.73074 0.0
H234 H 0.59443 0.89565 0.73222 0.0
H235 H 0.56837 0.82513 0.72996 0.0
H236 H 0.84402 1.00211 0.87626 0.0
H237 H 0.82805 0.93608 0.87048 0.0
H238 H 0.86107 0.06426 0.84396 0.0
H239 H 0.80659 0.06972 0.81662 0.0
C240 C 0.62295 0.45737 0.18847 0.0
C241 C 0.66111 0.43822 0.18045 0.0
C242 C 0.55296 0.35144 0.13894 0.0
C243 C 0.52622 0.38089 0.1388 0.0
N244 N 0.53092 0.45952 0.1656 0.0
N245 N 0.66121 0.36396 0.15053 0.0
C246 C 0.55808 0.43198 0.16519 0.0
C247 C 0.62465 0.38302 0.15739 0.0
N248 N 0.65125 0.50171 0.21723 0.0
N249 N 0.51113 0.29486 0.11973 0.0
H250 H 0.71313 0.38529 0.16426 0.0
H251 H 0.64164 0.32881 0.13005 0.0
H252 H 0.45873 0.27207 0.10575 0.0
H253 H 0.52478 0.26876 0.12058 0.0
H254 H 0.62341 0.51497 0.22637 0.0
H255 H 0.69954 0.52084 0.23412 0.0
H256 H 0.55797 0.50145 0.18082 0.0
H257 H 0.48266 0.4417 0.14946 0.0
C258 C 0.4439 0.84452 0.48345 0.0
C259 C 0.45456 0.88317 0.45775 0.0
C260 C 0.32693 0.7954 0.42872 0.0
C261 C 0.32208 0.75464 0.44943 0.0
N262 N 0.38663 0.7418 0.49217 0.0
N263 N 0.41095 0.88615 0.39817 0.0
C264 C 0.38358 0.77953 0.47567 0.0
C265 C 0.3973 0.85608 0.42823 0.0
N266 N 0.48836 0.86911 0.51617 0.0
N267 N 0.26416 0.77654 0.40959 0.0
H268 H 0.46406 0.92731 0.39399 0.0
H269 H 0.37209 0.86586 0.37495 0.0
H270 H 0.21084 0.73344 0.41072 0.0
H271 H 0.2642 0.80621 0.39633 0.0
H272 H 0.47866 0.84265 0.5368 0.0
H273 H 0.52849 0.91581 0.52479 0.0
H274 H 0.4339 0.75802 0.50861 0.0
H275 H 0.34539 0.69441 0.48649 0.0
C276 C 0.5221 0.16142 0.77115 0.0
C277 C 0.57468 0.21838 0.79366 0.0
C278 C 0.66885 0.21076 0.7923 0.0
C279 C 0.61497 0.15253 0.77132 0.0
N280 N 0.48607 0.06631 0.74788 0.0
N281 N 0.69249 0.2921 0.83166 0.0
C282 C 0.54017 0.12594 0.76302 0.0
C283 C 0.64646 0.24147 0.80611 0.0
N284 N 0.45643 0.14257 0.75599 0.0
N285 N 0.74192 0.23762 0.79784 0.0
H286 H 0.6777 0.31559 0.8423 0.0
H287 H 0.74236 0.30786 0.84461 0.0
H288 H 0.75993 0.21596 0.78868 0.0
H289 H 0.78563 0.28279 0.80918 0.0
H290 H 0.42013 0.1051 0.7359 0.0
H291 H 0.44089 0.16718 0.76105 0.0
H292 H 0.42902 0.04245 0.74479 0.0
H293 H 0.49718 0.03881 0.74157 0.0
C294 C 0.7572 0.8365 0.56068 0.0
C295 C 0.71084 0.82884 0.53149 0.0
C296 C 0.65191 0.7234 0.51438 0.0
C297 C 0.70068 0.73207 0.54244 0.0
N298 N 0.7877 0.78986 0.59714 0.0
N299 N 0.60404 0.76318 0.48568 0.0
C300 C 0.74935 0.78644 0.56729 0.0
C301 C 0.65458 0.77144 0.51008 0.0
N302 N 0.81038 0.89233 0.58109 0.0
N303 N 0.6054 0.67012 0.4909 0.0
H304 H 0.60577 0.79799 0.4812 0.0
H305 H 0.55715 0.72111 0.47174 0.0
H306 H 0.59939 0.63289 0.49443 0.0
H307 H 0.57501 0.66327 0.46705 0.0
H308 H 0.85187 0.90344 0.59993 0.0
H309 H 0.81497 0.92899 0.57814 0.0
H310 H 0.81905 0.82591 0.61834 0.0
H311 H 0.78386 0.75412 0.60212 0.0
C312 C 0.82021 0.50317 0.83311 0.0
C313 C 0.81787 0.5434 0.85639 0.0
C314 C 0.94776 0.58968 0.88384 0.0
C315 C 0.94538 0.54443 0.86453 0.0
N316 N 0.86572 0.45107 0.8234 0.0
N317 N 0.88108 0.61621 0.91149 0.0
C318 C 0.87755 0.49948 0.83993 0.0
C319 C 0.88263 0.58429 0.88352 0.0
N320 N 0.76942 0.46963 0.80268 0.0
N321 N 1.01449 0.64036 0.90244 0.0
H322 H 0.83472 0.61105 0.91481 0.0
H323 H 0.92156 0.64153 0.93415 0.0
H324 H 1.06284 0.64746 0.90256 0.0
H325 H 1.02399 0.67816 0.91381 0.0
H326 H 0.77126 0.44423 0.78257 0.0
H327 H 0.73088 0.47287 0.79525 0.0
H328 H 0.81501 0.41285 0.80878 0.0
H329 H 0.90511 0.44742 0.82686 0.0
C330 C 0.36843 0.79641 0.14697 0.0
C331 C 0.30838 0.77021 0.17001 0.0
C332 C 0.37367 0.87409 0.1987 0.0
C333 C 0.43913 0.89878 0.18066 0.0
N334 N 0.50151 0.87966 0.14123 0.0
N335 N 0.26438 0.78584 0.22422 0.0
C336 C 0.43719 0.85896 0.15559 0.0
C337 C 0.31353 0.80956 0.19746 0.0
N338 N 0.35918 0.76246 0.11601 0.0
N339 N 0.36857 0.9124 0.21692 0.0
H340 H 0.22325 0.73929 0.22663 0.0
H341 H 0.27044 0.81284 0.24678 0.0
H342 H 0.41051 0.95977 0.21755 0.0
H343 H 0.31946 0.89687 0.22773 0.0
H344 H 0.39852 0.78087 0.09651 0.0
H345 H 0.30876 0.71787 0.10757 0.0
H346 H 0.50491 0.8509 0.12609 0.0
H347 H 0.55308 0.92444 0.14721 0.0
C348 C 0.66325 0.39567 0.52356 0.0
C349 C 0.58841 0.33797 0.52105 0.0
C350 C 0.5453 0.38663 0.54611 0.0
C351 C 0.62112 0.44321 0.5522 0.0
N352 N 0.75359 0.4998 0.55321 0.0
N353 N 0.46002 0.27647 0.5358 0.0
C354 C 0.68058 0.44729 0.54273 0.0
C355 C 0.52979 0.33281 0.53393 0.0
N356 N 0.71726 0.40149 0.50664 0.0
N357 N 0.4881 0.38462 0.55088 0.0
H358 H 0.44653 0.23587 0.52742 0.0
H359 H 0.41747 0.26991 0.54869 0.0
H360 H 0.49723 0.42318 0.55967 0.0
H361 H 0.43179 0.34581 0.54302 0.0
H362 H 0.77079 0.44351 0.5042 0.0
H363 H 0.70659 0.36478 0.49196 0.0
H364 H 0.79879 0.50318 0.55054 0.0
H365 H 0.76862 0.53847 0.56774 0.0
C366 C 0.3488 0.49113 0.87034 0.0
C367 C 0.41748 0.53548 0.85272 0.0
C368 C 0.3631 0.58433 0.84371 0.0
C369 C 0.29166 0.53649 0.85758 0.0
N370 N 0.21668 0.43748 0.87822 0.0
N371 N 0.47593 0.61921 0.81582 0.0
C372 C 0.2852 0.48816 0.86897 0.0
C373 C 0.42032 0.58069 0.83791 0.0
N374 N 0.34499 0.45306 0.89094 0.0
N375 N 0.37783 0.63521 0.83617 0.0
H376 H 0.51585 0.6176 0.80908 0.0
H377 H 0.47753 0.64811 0.80063 0.0
H378 H 0.33866 0.63917 0.83881 0.0
H379 H 0.43074 0.67527 0.83069 0.0
H380 H 0.3016 0.42412 0.90749 0.0
H381 H 0.38943 0.45552 0.8951 0.0
H382 H 0.20349 0.39727 0.88225 0.0
H383 H 0.17129 0.43431 0.87895 0.0
C384 C 0.92531 0.33134 0.17184 0.0
C385 C 0.91591 0.37054 0.16057 0.0
C386 C 0.77796 0.28313 0.15599 0.0
C387 C 0.78785 0.24321 0.16356 0.0
N388 N 0.8712 0.22757 0.17419 0.0
N389 N 0.83175 0.37909 0.13451 0.0
C390 C 0.86165 0.26687 0.17012 0.0
C391 C 0.8417 0.34516 0.15084 0.0
N392 N 0.99434 0.35576 0.18607 0.0
N393 N 0.70736 0.26197 0.15412 0.0
H394 H 0.87625 0.42346 0.12866 0.0
H395 H 0.77978 0.36112 0.12307 0.0
H396 H 0.6594 0.21685 0.15714 0.0
H397 H 0.69715 0.29032 0.15301 0.0
H398 H 1.00316 0.3308 0.19869 0.0
H399 H 1.04208 0.40219 0.1884 0.0
H400 H 0.92325 0.24058 0.17451 0.0
H401 H 0.82616 0.18077 0.17465 0.0
C402 C 0.1137 0.59997 0.03416 0.0
C403 C 1.0668 0.54545 0.0517 0.0
C404 C 1.02194 0.48482 -0.00976 0.0
C405 C 1.07241 0.53936 0.9732 0.0
N406 N 0.17608 0.64842 0.97944 0.0
N407 N 0.98462 0.43598 0.04687 0.0
C408 C 0.12165 0.59673 -0.00457 0.0
C409 C 1.02317 0.48784 0.02981 0.0
N410 N 0.14642 0.65464 0.05378 0.0
N411 N 0.97139 0.43009 0.96846 0.0
H412 H 0.98306 0.43603 0.07554 0.0
H413 H 0.95884 0.3935 0.03299 0.0
H414 H 0.97133 0.42587 0.93965 0.0
H415 H 0.92683 0.38943 0.97857 0.0
H416 H 0.17472 0.69481 0.04168 0.0
H417 H 0.13852 0.65908 0.08144 0.0
H418 H 0.21921 0.69068 -0.00534 0.0
H419 H 0.18218 0.6481 0.95107 0.0
C420 C 0.64776 0.10938 0.34454 0.0
C421 C 0.66181 0.07646 0.36135 0.0
C422 C 0.65317 0.03129 0.29992 0.0
C423 C 0.62938 0.05789 0.2835 0.0
N424 N 0.59218 0.11457 0.29098 0.0
N425 N 0.6675 0.99922 0.35575 0.0
C426 C 0.62366 0.09509 0.30599 0.0
C427 C 0.66173 0.03551 0.33923 0.0
N428 N 0.65952 0.1555 0.36514 0.0
N429 N 0.66949 1.00338 0.27789 0.0
H430 H 0.67378 1.00088 0.38447 0.0
H431 H 0.65951 0.96382 0.34112 0.0
H432 H 0.66522 1.00048 0.24898 0.0
H433 H 0.69415 0.98845 0.28823 0.0
H434 H 0.65743 0.18515 0.35365 0.0
H435 H 0.67855 0.16784 0.39325 0.0
H436 H 0.5791 0.13608 0.30689 0.0
H437 H 0.57301 0.10462 0.26299 0.0
C438 C 0.58492 0.56608 0.71536 0.0
C439 C 0.62131 0.55442 0.73803 0.0
C440 C 0.69245 0.56729 0.68628 0.0
C441 C 0.64608 0.56712 0.66208 0.0
N442 N 0.54234 0.56067 0.65283 0.0
N443 N 0.69578 0.52773 0.74055 0.0
C444 C 0.59112 0.56566 0.67641 0.0
C445 C 0.67221 0.5514 0.72258 0.0
N446 N 0.5449 0.57796 0.73107 0.0
N447 N 0.7551 0.58144 0.67431 0.0
H448 H 0.6753 0.50756 0.7649 0.0
H449 H 0.72772 0.52014 0.72854 0.0
H450 H 0.7718 0.5938 0.6478 0.0
H451 H 0.79432 0.58727 0.69199 0.0
H452 H 0.52323 0.59251 0.71652 0.0
H453 H 0.53946 0.57875 0.75947 0.0
H454 H 0.49582 0.55246 0.66142 0.0
H455 H 0.54498 0.56015 0.62418 0.0
C456 C 0.71474 0.10881 0.60196 0.0
C457 C 0.64678 0.08728 0.5833 0.0
C458 C 0.5846 0.04827 0.64039 0.0
C459 C 0.653 0.07439 0.66 0.0
N460 N 0.78647 0.13704 0.661 0.0
N461 N 0.53159 0.06404 0.59275 0.0
C462 C 0.71901 0.10636 0.64115 0.0
C463 C 0.5855 0.06442 0.60467 0.0
N464 N 0.77568 0.13239 0.58297 0.0
N465 N 0.5187 1.00949 0.65645 0.0
H466 H 0.53686 0.08592 0.57018 0.0
H467 H 0.48871 0.05143 0.60875 0.0
H468 H 0.5161 0.9963 0.68268 0.0
H469 H 0.46647 0.98581 0.64203 0.0
H470 H 0.82106 0.13898 0.59363 0.0
H471 H 0.78138 0.14517 0.55653 0.0
H472 H 0.83811 0.16768 0.65007 0.0
H473 H 0.79105 0.13458 0.68927 0.0
C474 C 0.62604 0.53465 0.98548 0.0
C475 C 0.58511 0.50416 0.95018 0.0
C476 C 0.51152 0.40644 0.97503 0.0
C477 C 0.54058 0.43662 0.0114 0.0
N478 N 0.62153 0.53232 0.05189 0.0
N479 N 0.47282 0.4116 0.9158 0.0
C480 C 0.59752 0.50167 0.017 0.0
C481 C 0.52395 0.44006 0.94597 0.0
N482 N 0.69246 0.59429 -0.01102 0.0
N483 N 0.469 0.34505 0.96852 0.0
H484 H 0.47683 0.43565 0.89526 0.0
H485 H 0.42277 0.36574 0.9135 0.0
H486 H 0.45939 0.31926 -0.01034 0.0
H487 H 0.45043 0.32182 0.94179 0.0
H488 H 0.72776 0.61669 0.01358 0.0
H489 H 0.7158 0.61953 0.96648 0.0
H490 H 0.65638 0.57952 0.05683 0.0
H491 H 0.60204 0.51075 0.07587 0.0
C492 C 0.08194 0.55238 0.29134 0.0
C493 C 0.13721 0.5615 0.27073 0.0
C494 C 0.20816 0.58223 0.32876 0.0
C495 C 0.15841 0.58126 0.3492 0.0
N496 N 1.05432 0.57531 0.34955 0.0
N497 N 0.26076 0.59675 0.27004 0.0
C498 C 0.09674 0.56878 0.33043 0.0
C499 C 0.20244 0.57939 0.28948 0.0
N500 N 1.01438 0.5264 0.27381 0.0
N501 N 0.26038 0.58512 0.34692 0.0
H502 H 0.26049 0.5979 0.2414 0.0
H503 H 0.31259 0.61608 0.28275 0.0
H504 H 0.26543 0.58656 0.37571 0.0
H505 H 0.29331 0.57996 0.33327 0.0
H506 H 0.96906 0.51285 0.28789 0.0
H507 H 1.00133 0.51307 0.24535 0.0
H508 H 1.01426 0.57358 0.33658 0.0
H509 H 1.06335 0.58764 0.37814 0.0
loop_
_geom_bond_atom_site_label_1
_geom_bond_atom_site_label_2
_geom_bond_distance
_geom_bond_site_symmetry_2
_ccdc_geom_bond_type
Sm0 C2 2.846 . S
Sm0 O20 2.543 . S
Sm0 O21 2.450 . S
Sm0 O22 2.681 . S
Sm0 O23 2.464 . S
Sm0 O24 2.396 . S
Sm0 O28 2.386 . S
Sm0 O31 2.408 1_455 S
Sm1 C11 2.863 . S
Sm1 O22 2.376 1_655 S
Sm1 O25 2.395 1_655 S
Sm1 O26 2.557 . S
Sm1 O27 2.467 . S
Sm1 O28 2.666 1_655 S
Sm1 O29 2.463 . S
Sm1 O30 2.395 . S
C2 Sm0 2.846 . S
C2 C3 1.506 . S
C2 O20 1.261 . S
C2 O21 1.242 . S
C3 C2 1.506 . S
C3 C4 1.358 . S
C3 C8 1.382 . S
C4 C3 1.358 . S
C4 C5 1.385 . S
C4 H32 0.930 . S
C5 C4 1.385 . S
C5 C6 1.395 . S
C5 H33 0.929 . S
C6 C5 1.395 . S
C6 C7 1.335 . S
C7 C6 1.335 . S
C7 C8 1.398 . S
C7 H34 0.930 . S
C8 C3 1.382 . S
C8 C7 1.398 . S
C8 H35 0.929 . S
C9 O22 1.271 . S
C9 O23 1.251 . S
C10 O24 1.252 . S
C10 O25 1.272 . S
C11 Sm1 2.863 . S
C11 C12 1.506 . S
C11 O26 1.261 . S
C11 O27 1.242 . S
C12 C11 1.506 . S
C12 C13 1.358 . S
C12 C17 1.382 . S
C13 C12 1.358 . S
C13 C14 1.385 . S
C13 H36 0.930 . S
C14 C13 1.385 . S
C14 C15 1.395 . S
C14 H37 0.929 . S
C15 C14 1.395 . S
C15 C16 1.335 . S
C16 C15 1.335 . S
C16 C17 1.398 . S
C16 H38 0.930 . S
C17 C12 1.382 . S
C17 C16 1.398 . S
C17 H39 0.929 . S
C18 O28 1.271 . S
C18 O29 1.237 1_455 S
C19 O30 1.252 . S
C19 O31 1.272 . S
O20 Sm0 2.543 . S
O20 C2 1.261 . S
O21 Sm0 2.450 . S
O21 C2 1.242 . S
O22 Sm0 2.681 . S
O22 Sm1 2.376 1_455 S
O22 C9 1.271 . S
O23 Sm0 2.464 . S
O23 C9 1.251 . S
O24 Sm0 2.396 . S
O24 C10 1.252 . S
O25 Sm1 2.395 1_455 S
O25 C10 1.272 . S
O26 Sm1 2.557 . S
O26 C11 1.261 . S
O27 Sm1 2.467 . S
O27 C11 1.242 . S
O28 Sm0 2.386 . S
O28 Sm1 2.666 1_455 S
O28 C18 1.271 . S
O29 Sm1 2.463 . S
O29 C18 1.237 1_655 S
O30 Sm1 2.395 . S
O30 C19 1.252 . S
O31 Sm0 2.408 1_655 S
O31 C19 1.272 . S
H32 C4 0.930 . S
H33 C5 0.929 . S
H34 C7 0.930 . S
H35 C8 0.929 . S
H36 C13 0.930 . S
H37 C14 0.929 . S
H38 C16 0.930 . S
H39 C17 0.929 . S
Sm40 C42 2.846 1_545 S
Sm40 O60 2.543 1_545 S
Sm40 O61 2.450 1_545 S
Sm40 O62 2.681 . S
Sm40 O63 2.464 . S
Sm40 O64 2.396 1_545 S
Sm40 O68 2.386 . S
Sm40 O71 2.408 . S
Sm41 C51 2.846 . S
Sm41 O62 2.386 . S
Sm41 O65 2.408 1_545 S
Sm41 O66 2.543 . S
Sm41 O67 2.450 . S
Sm41 O68 2.681 . S
Sm41 O69 2.464 . S
Sm41 O70 2.396 . S
C42 Sm40 2.846 1_565 S
C42 C43 1.506 . S
C42 O60 1.261 . S
C42 O61 1.242 . S
C43 C42 1.506 . S
C43 C44 1.358 . S
C43 C48 1.382 . S
C44 C43 1.358 . S
C44 C45 1.385 . S
C44 H72 0.930 . S
C45 C44 1.385 . S
C45 C46 1.395 . S
C45 H73 0.929 . S
C46 C45 1.395 . S
C46 C47 1.335 . S
C47 C46 1.335 . S
C47 C48 1.398 . S
C47 H74 0.930 . S
C48 C43 1.382 . S
C48 C47 1.398 . S
C48 H75 0.929 . S
C49 O62 1.271 . S
C49 O63 1.251 . S
C50 O64 1.252 . S
C50 O65 1.272 . S
C51 Sm41 2.846 . S
C51 C52 1.506 . S
C51 O66 1.261 . S
C51 O67 1.242 . S
C52 C51 1.506 . S
C52 C53 1.358 . S
C52 C57 1.382 . S
C53 C52 1.358 . S
C53 C54 1.385 . S
C53 H76 0.930 . S
C54 C53 1.385 . S
C54 C55 1.395 . S
C54 H77 0.929 . S
C55 C54 1.395 . S
C55 C56 1.335 . S
C56 C55 1.335 . S
C56 C57 1.398 . S
C56 H78 0.930 . S
C57 C52 1.382 . S
C57 C56 1.398 . S
C57 H79 0.929 . S
C58 O68 1.271 . S
C58 O69 1.251 . S
C59 O70 1.252 . S
C59 O71 1.272 . S
O60 Sm40 2.543 1_565 S
O60 C42 1.261 . S
O61 Sm40 2.450 1_565 S
O61 C42 1.242 . S
O62 Sm40 2.681 . S
O62 Sm41 2.386 . S
O62 C49 1.271 . S
O63 Sm40 2.464 . S
O63 C49 1.251 . S
O64 Sm40 2.396 1_565 S
O64 C50 1.252 . S
O65 Sm41 2.408 1_565 S
O65 C50 1.272 . S
O66 Sm41 2.543 . S
O66 C51 1.261 . S
O67 Sm41 2.450 . S
O67 C51 1.242 . S
O68 Sm40 2.386 . S
O68 Sm41 2.681 . S
O68 C58 1.271 . S
O69 Sm41 2.464 . S
O69 C58 1.251 . S
O70 Sm41 2.396 . S
O70 C59 1.252 . S
O71 Sm40 2.408 . S
O71 C59 1.272 . S
H72 C44 0.930 . S
H73 C45 0.929 . S
H74 C47 0.930 . S
H75 C48 0.929 . S
H76 C53 0.930 . S
H77 C54 0.929 . S
H78 C56 0.930 . S
H79 C57 0.929 . S
Sm80 C82 2.846 . S
Sm80 O100 2.543 . S
Sm80 O101 2.450 . S
Sm80 O102 2.681 . S
Sm80 O103 2.464 . S
Sm80 O104 2.396 . S
Sm80 O108 2.386 . S
Sm80 O111 2.408 . S
Sm81 C91 2.846 . S
Sm81 O102 2.386 . S
Sm81 O105 2.408 . S
Sm81 O106 2.543 . S
Sm81 O107 2.450 . S
Sm81 O108 2.681 . S
Sm81 O109 2.464 . S
Sm81 O110 2.396 . S
C82 Sm80 2.846 . S
C82 C83 1.506 . S
C82 O100 1.261 . S
C82 O101 1.242 . S
C83 C82 1.506 . S
C83 C84 1.358 . S
C83 C88 1.382 . S
C84 C83 1.358 . S
C84 C85 1.385 . S
C84 H112 0.930 . S
C85 C84 1.385 . S
C85 C86 1.395 . S
C85 H113 0.929 . S
C86 C85 1.395 . S
C86 C87 1.335 . S
C87 C86 1.335 . S
C87 C88 1.398 . S
C87 H114 0.930 . S
C88 C83 1.382 . S
C88 C87 1.398 . S
C88 H115 0.929 . S
C89 O102 1.271 . S
C89 O103 1.251 . S
C90 O104 1.252 . S
C90 O105 1.272 . S
C91 Sm81 2.846 . S
C91 C92 1.506 . S
C91 O106 1.261 . S
C91 O107 1.242 . S
C92 C91 1.506 . S
C92 C93 1.358 . S
C92 C97 1.382 . S
C93 C92 1.358 . S
C93 C94 1.385 . S
C93 H116 0.930 . S
C94 C93 1.385 . S
C94 C95 1.395 . S
C94 H117 0.929 . S
C95 C94 1.395 . S
C95 C96 1.335 . S
C96 C95 1.335 . S
C96 C97 1.398 . S
C96 H118 0.930 . S
C97 C92 1.382 . S
C97 C96 1.398 . S
C97 H119 0.929 . S
C98 O108 1.271 . S
C98 O109 1.251 . S
C99 O110 1.252 . S
C99 O111 1.272 . S
O100 Sm80 2.543 . S
O100 C82 1.261 . S
O101 Sm80 2.450 . S
O101 C82 1.242 . S
O102 Sm80 2.681 . S
O102 Sm81 2.386 . S
O102 C89 1.271 . S
O103 Sm80 2.464 . S
O103 C89 1.251 . S
O104 Sm80 2.396 . S
O104 C90 1.252 . S
O105 Sm81 2.408 . S
O105 C90 1.272 . S
O106 Sm81 2.543 . S
O106 C91 1.261 . S
O107 Sm81 2.450 . S
O107 C91 1.242 . S
O108 Sm80 2.386 . S
O108 Sm81 2.681 . S
O108 C98 1.271 . S
O109 Sm81 2.464 . S
O109 C98 1.251 . S
O110 Sm81 2.396 . S
O110 C99 1.252 . S
O111 Sm80 2.408 . S
O111 C99 1.272 . S
H112 C84 0.930 . S
H113 C85 0.929 . S
H114 C87 0.930 . S
H115 C88 0.929 . S
H116 C93 0.930 . S
H117 C94 0.929 . S
H118 C96 0.930 . S
H119 C97 0.929 . S
H120 C123 0.929 . S
H121 C126 0.929 . S
H122 C128 0.930 1_565 S
C123 H120 0.929 . S
C123 C124 1.398 . S
C123 C125 1.396 1_565 S
C124 C123 1.398 . S
C124 C128 1.407 1_565 S
C125 C123 1.396 1_545 S
C125 C126 1.394 . S
C126 H121 0.929 . S
C126 C125 1.394 . S
C126 C127 1.382 . S
C127 C126 1.382 . S
C127 C128 1.392 . S
C127 N129 1.420 . S
C128 H122 0.930 1_545 S
C128 C124 1.407 1_545 S
C128 C127 1.392 . S
N129 C127 1.420 . S
N129 C130 1.244 . S
C130 N129 1.244 . S
H131 C134 0.929 . S
H132 C137 0.929 . S
H133 C139 0.930 . S
C134 H131 0.929 . S
C134 C135 1.398 . S
C134 C136 1.396 . S
C135 C134 1.398 . S
C135 C139 1.407 . S
C136 C134 1.396 . S
C136 C137 1.394 . S
C137 H132 0.929 . S
C137 C136 1.394 . S
C137 C138 1.382 . S
C138 C137 1.382 . S
C138 C139 1.392 . S
C138 N140 1.420 . S
C139 H133 0.930 . S
C139 C135 1.407 . S
C139 C138 1.392 . S
N140 C138 1.420 . S
N140 C141 1.244 . S
C141 N140 1.244 . S
H142 C145 0.929 1_655 S
H143 C148 0.929 . S
H144 C150 0.930 . S
C145 H142 0.929 1_455 S
C145 C146 1.398 1_455 S
C145 C147 1.396 . S
C146 C145 1.398 1_655 S
C146 C150 1.407 1_655 S
C147 C145 1.396 . S
C147 C148 1.394 . S
C148 H143 0.929 . S
C148 C147 1.394 . S
C148 C149 1.382 . S
C149 C148 1.382 . S
C149 C150 1.392 . S
C149 N151 1.420 . S
C150 H144 0.930 . S
C150 C146 1.407 1_455 S
C150 C149 1.392 . S
N151 C149 1.420 . S
N151 C152 1.244 . S
C152 N151 1.244 . S
H153 C156 0.929 . S
H154 C159 0.929 . S
H155 C161 0.930 . S
C156 H153 0.929 . S
C156 C157 1.398 . S
C156 C158 1.396 . S
C157 C156 1.398 . S
C157 C161 1.407 . S
C158 C156 1.396 . S
C158 C159 1.394 1_455 S
C159 H154 0.929 . S
C159 C158 1.394 1_655 S
C159 C160 1.382 . S
C160 C159 1.382 . S
C160 C161 1.392 1_655 S
C160 N162 1.420 . S
C161 H155 0.930 . S
C161 C157 1.407 . S
C161 C160 1.392 1_455 S
N162 C160 1.420 . S
N162 C163 1.244 . S
C163 N162 1.244 . S
H164 C167 0.929 . S
H165 C170 0.929 1_565 S
H166 C172 0.930 . S
C167 H164 0.929 . S
C167 C168 1.398 . S
C167 C169 1.396 . S
C168 C167 1.398 . S
C168 C172 1.407 . S
C169 C167 1.396 . S
C169 C170 1.394 . S
C170 H165 0.929 1_545 S
C170 C169 1.394 . S
C170 C171 1.382 . S
C171 C170 1.382 . S
C171 C172 1.392 . S
C171 N173 1.440 . S
C172 H166 0.930 . S
C172 C168 1.407 . S
C172 C171 1.392 . S
N173 C171 1.440 . S
N173 C174 1.225 1_545 S
C174 N173 1.225 1_565 S
H175 C178 0.929 . S
H176 C181 0.929 . S
H177 C183 0.930 . S
C178 H175 0.929 . S
C178 C179 1.398 . S
C178 C180 1.396 . S
C179 C178 1.398 . S
C179 C183 1.407 . S
C180 C178 1.396 . S
C180 C181 1.394 . S
C181 H176 0.929 . S
C181 C180 1.394 . S
C181 C182 1.382 . S
C182 C181 1.382 . S
C182 C183 1.392 . S
C182 N184 1.420 . S
C183 H177 0.930 . S
C183 C179 1.407 . S
C183 C182 1.392 . S
N184 C182 1.420 . S
N184 C185 1.244 . S
C185 N184 1.244 . S
C186 C187 1.363 . S
C186 C192 1.379 . S
C186 N194 1.356 . S
C187 C186 1.363 . S
C187 C193 1.363 . S
C188 C189 1.363 . S
C188 C193 1.379 . S
C188 N195 1.356 . S
C189 C188 1.363 . S
C189 C192 1.363 . S
N190 C192 1.356 . S
N190 H202 0.984 . S
N190 H203 0.985 . S
N191 C193 1.356 . S
N191 H196 0.984 . S
N191 H197 0.985 . S
C192 C186 1.379 . S
C192 C189 1.363 . S
C192 N190 1.356 . S
C193 C187 1.363 . S
C193 C188 1.379 . S
C193 N191 1.356 . S
N194 C186 1.356 . S
N194 H200 0.984 . S
N194 H201 0.984 . S
N195 C188 1.356 . S
N195 H198 0.984 . S
N195 H199 0.985 . S
H196 N191 0.984 . S
H197 N191 0.985 . S
H198 N195 0.984 . S
H199 N195 0.985 . S
H200 N194 0.984 . S
H201 N194 0.984 . S
H202 N190 0.984 . S
H203 N190 0.985 . S
C204 C205 1.363 . S
C204 C210 1.379 . S
C204 N212 1.356 . S
C205 C204 1.363 . S
C205 C211 1.363 . S
C206 C207 1.363 . S
C206 C211 1.379 . S
C206 N213 1.356 . S
C207 C206 1.363 . S
C207 C210 1.363 . S
N208 C210 1.356 . S
N208 H220 0.984 . S
N208 H221 0.985 . S
N209 C211 1.356 . S
N209 H214 0.984 . S
N209 H215 0.985 . S
C210 C204 1.379 . S
C210 C207 1.363 . S
C210 N208 1.356 . S
C211 C205 1.363 . S
C211 C206 1.379 . S
C211 N209 1.356 . S
N212 C204 1.356 . S
N212 H218 0.984 . S
N212 H219 0.984 . S
N213 C206 1.356 . S
N213 H216 0.984 . S
N213 H217 0.985 . S
H214 N209 0.984 . S
H215 N209 0.985 . S
H216 N213 0.984 . S
H217 N213 0.985 . S
H218 N212 0.984 . S
H219 N212 0.984 . S
H220 N208 0.984 . S
H221 N208 0.985 . S
C222 C223 1.363 . S
C222 C228 1.379 . S
C222 N230 1.356 . S
C223 C222 1.363 . S
C223 C229 1.363 . S
C224 C225 1.363 . S
C224 C229 1.379 . S
C224 N231 1.356 . S
C225 C224 1.363 . S
C225 C228 1.363 . S
N226 C228 1.356 . S
N226 H238 0.984 . S
N226 H239 0.985 . S
N227 C229 1.356 . S
N227 H232 0.984 . S
N227 H233 0.985 . S
C228 C222 1.379 . S
C228 C225 1.363 . S
C228 N226 1.356 . S
C229 C223 1.363 . S
C229 C224 1.379 . S
C229 N227 1.356 . S
N230 C222 1.356 . S
N230 H236 0.984 . S
N230 H237 0.984 . S
N231 C224 1.356 . S
N231 H234 0.984 . S
N231 H235 0.985 . S
H232 N227 0.984 . S
H233 N227 0.985 . S
H234 N231 0.984 . S
H235 N231 0.985 . S
H236 N230 0.984 . S
H237 N230 0.984 . S
H238 N226 0.984 . S
H239 N226 0.985 . S
C240 C241 1.363 . S
C240 C246 1.379 . S
C240 N248 1.356 . S
C241 C240 1.363 . S
C241 C247 1.363 . S
C242 C243 1.363 . S
C242 C247 1.379 . S
C242 N249 1.356 . S
C243 C242 1.363 . S
C243 C246 1.363 . S
N244 C246 1.356 . S
N244 H256 0.984 . S
N244 H257 0.985 . S
N245 C247 1.356 . S
N245 H250 0.984 . S
N245 H251 0.985 . S
C246 C240 1.379 . S
C246 C243 1.363 . S
C246 N244 1.356 . S
C247 C241 1.363 . S
C247 C242 1.379 . S
C247 N245 1.356 . S
N248 C240 1.356 . S
N248 H254 0.984 . S
N248 H255 0.984 . S
N249 C242 1.356 . S
N249 H252 0.984 . S
N249 H253 0.985 . S
H250 N245 0.984 . S
H251 N245 0.985 . S
H252 N249 0.984 . S
H253 N249 0.985 . S
H254 N248 0.984 . S
H255 N248 0.984 . S
H256 N244 0.984 . S
H257 N244 0.985 . S
C258 C259 1.363 . S
C258 C264 1.379 . S
C258 N266 1.356 . S
C259 C258 1.363 . S
C259 C265 1.363 . S
C260 C261 1.363 . S
C260 C265 1.379 . S
C260 N267 1.356 . S
C261 C260 1.363 . S
C261 C264 1.363 . S
N262 C264 1.356 . S
N262 H274 0.984 . S
N262 H275 0.985 . S
N263 C265 1.356 . S
N263 H268 0.984 . S
N263 H269 0.985 . S
C264 C258 1.379 . S
C264 C261 1.363 . S
C264 N262 1.356 . S
C265 C259 1.363 . S
C265 C260 1.379 . S
C265 N263 1.356 . S
N266 C258 1.356 . S
N266 H272 0.984 . S
N266 H273 0.984 . S
N267 C260 1.356 . S
N267 H270 0.984 . S
N267 H271 0.985 . S
H268 N263 0.984 . S
H269 N263 0.985 . S
H270 N267 0.984 . S
H271 N267 0.985 . S
H272 N266 0.984 . S
H273 N266 0.984 . S
H274 N262 0.984 . S
H275 N262 0.985 . S
C276 C277 1.363 . S
C276 C282 1.379 . S
C276 N284 1.356 . S
C277 C276 1.363 . S
C277 C283 1.363 . S
C278 C279 1.363 . S
C278 C283 1.379 . S
C278 N285 1.356 . S
C279 C278 1.363 . S
C279 C282 1.363 . S
N280 C282 1.356 . S
N280 H292 0.984 . S
N280 H293 0.985 . S
N281 C283 1.356 . S
N281 H286 0.984 . S
N281 H287 0.985 . S
C282 C276 1.379 . S
C282 C279 1.363 . S
C282 N280 1.356 . S
C283 C277 1.363 . S
C283 C278 1.379 . S
C283 N281 1.356 . S
N284 C276 1.356 . S
N284 H290 0.984 . S
N284 H291 0.984 . S
N285 C278 1.356 . S
N285 H288 0.984 . S
N285 H289 0.985 . S
H286 N281 0.984 . S
H287 N281 0.985 . S
H288 N285 0.984 . S
H289 N285 0.985 . S
H290 N284 0.984 . S
H291 N284 0.984 . S
H292 N280 0.984 . S
H293 N280 0.985 . S
C294 C295 1.363 . S
C294 C300 1.379 . S
C294 N302 1.356 . S
C295 C294 1.363 . S
C295 C301 1.363 . S
C296 C297 1.363 . S
C296 C301 1.379 . S
C296 N303 1.356 . S
C297 C296 1.363 . S
C297 C300 1.363 . S
N298 C300 1.356 . S
N298 H310 0.984 . S
N298 H311 0.985 . S
N299 C301 1.356 . S
N299 H304 0.984 . S
N299 H305 0.985 . S
C300 C294 1.379 . S
C300 C297 1.363 . S
C300 N298 1.356 . S
C301 C295 1.363 . S
C301 C296 1.379 . S
C301 N299 1.356 . S
N302 C294 1.356 . S
N302 H308 0.984 . S
N302 H309 0.984 . S
N303 C296 1.356 . S
N303 H306 0.984 . S
N303 H307 0.985 . S
H304 N299 0.984 . S
H305 N299 0.985 . S
H306 N303 0.984 . S
H307 N303 0.985 . S
H308 N302 0.984 . S
H309 N302 0.984 . S
H310 N298 0.984 . S
H311 N298 0.985 . S
C312 C313 1.363 . S
C312 C318 1.379 . S
C312 N320 1.356 . S
C313 C312 1.363 . S
C313 C319 1.363 . S
C314 C315 1.363 . S
C314 C319 1.379 . S
C314 N321 1.356 . S
C315 C314 1.363 . S
C315 C318 1.363 . S
N316 C318 1.356 . S
N316 H328 0.984 . S
N316 H329 0.985 . S
N317 C319 1.356 . S
N317 H322 0.984 . S
N317 H323 0.985 . S
C318 C312 1.379 . S
C318 C315 1.363 . S
C318 N316 1.356 . S
C319 C313 1.363 . S
C319 C314 1.379 . S
C319 N317 1.356 . S
N320 C312 1.356 . S
N320 H326 0.984 . S
N320 H327 0.984 . S
N321 C314 1.356 . S
N321 H324 0.984 . S
N321 H325 0.985 . S
H322 N317 0.984 . S
H323 N317 0.985 . S
H324 N321 0.984 . S
H325 N321 0.985 . S
H326 N320 0.984 . S
H327 N320 0.984 . S
H328 N316 0.984 . S
H329 N316 0.985 . S
C330 C331 1.363 . S
C330 C336 1.379 . S
C330 N338 1.356 . S
C331 C330 1.363 . S
C331 C337 1.363 . S
C332 C333 1.363 . S
C332 C337 1.379 . S
C332 N339 1.356 . S
C333 C332 1.363 . S
C333 C336 1.363 . S
N334 C336 1.356 . S
N334 H346 0.984 . S
N334 H347 0.985 . S
N335 C337 1.356 . S
N335 H340 0.984 . S
N335 H341 0.985 . S
C336 C330 1.379 . S
C336 C333 1.363 . S
C336 N334 1.356 . S
C337 C331 1.363 . S
C337 C332 1.379 . S
C337 N335 1.356 . S
N338 C330 1.356 . S
N338 H344 0.984 . S
N338 H345 0.984 . S
N339 C332 1.356 . S
N339 H342 0.984 . S
N339 H343 0.985 . S
H340 N335 0.984 . S
H341 N335 0.985 . S
H342 N339 0.984 . S
H343 N339 0.985 . S
H344 N338 0.984 . S
H345 N338 0.984 . S
H346 N334 0.984 . S
H347 N334 0.985 . S
C348 C349 1.363 . S
C348 C354 1.379 . S
C348 N356 1.356 . S
C349 C348 1.363 . S
C349 C355 1.363 . S
C350 C351 1.363 . S
C350 C355 1.379 . S
C350 N357 1.356 . S
C351 C350 1.363 . S
C351 C354 1.363 . S
N352 C354 1.356 . S
N352 H364 0.984 . S
N352 H365 0.985 . S
N353 C355 1.356 . S
N353 H358 0.984 . S
N353 H359 0.985 . S
C354 C348 1.379 . S
C354 C351 1.363 . S
C354 N352 1.356 . S
C355 C349 1.363 . S
C355 C350 1.379 . S
C355 N353 1.356 . S
N356 C348 1.356 . S
N356 H362 0.984 . S
N356 H363 0.984 . S
N357 C350 1.356 . S
N357 H360 0.984 . S
N357 H361 0.985 . S
H358 N353 0.984 . S
H359 N353 0.985 . S
H360 N357 0.984 . S
H361 N357 0.985 . S
H362 N356 0.984 . S
H363 N356 0.984 . S
H364 N352 0.984 . S
H365 N352 0.985 . S
C366 C367 1.363 . S
C366 C372 1.379 . S
C366 N374 1.356 . S
C367 C366 1.363 . S
C367 C373 1.363 . S
C368 C369 1.363 . S
C368 C373 1.379 . S
C368 N375 1.356 . S
C369 C368 1.363 . S
C369 C372 1.363 . S
N370 C372 1.356 . S
N370 H382 0.984 . S
N370 H383 0.985 . S
N371 C373 1.356 . S
N371 H376 0.984 . S
N371 H377 0.985 . S
C372 C366 1.379 . S
C372 C369 1.363 . S
C372 N370 1.356 . S
C373 C367 1.363 . S
C373 C368 1.379 . S
C373 N371 1.356 . S
N374 C366 1.356 . S
N374 H380 0.984 . S
N374 H381 0.984 . S
N375 C368 1.356 . S
N375 H378 0.984 . S
N375 H379 0.985 . S
H376 N371 0.984 . S
H377 N371 0.985 . S
H378 N375 0.984 . S
H379 N375 0.985 . S
H380 N374 0.984 . S
H381 N374 0.984 . S
H382 N370 0.984 . S
H383 N370 0.985 . S
C384 C385 1.363 . S
C384 C390 1.379 . S
C384 N392 1.356 . S
C385 C384 1.363 . S
C385 C391 1.363 . S
C386 C387 1.363 . S
C386 C391 1.379 . S
C386 N393 1.356 . S
C387 C386 1.363 . S
C387 C390 1.363 . S
N388 C390 1.356 . S
N388 H400 0.984 . S
N388 H401 0.985 . S
N389 C391 1.356 . S
N389 H394 0.984 . S
N389 H395 0.985 . S
C390 C384 1.379 . S
C390 C387 1.363 . S
C390 N388 1.356 . S
C391 C385 1.363 . S
C391 C386 1.379 . S
C391 N389 1.356 . S
N392 C384 1.356 . S
N392 H398 0.984 . S
N392 H399 0.984 . S
N393 C386 1.356 . S
N393 H396 0.984 . S
N393 H397 0.985 . S
H394 N389 0.984 . S
H395 N389 0.985 . S
H396 N393 0.984 . S
H397 N393 0.985 . S
H398 N392 0.984 . S
H399 N392 0.984 . S
H400 N388 0.984 . S
H401 N388 0.985 . S
C402 C403 1.363 . S
C402 C408 1.384 . S
C402 N410 1.356 . S
C403 C402 1.363 . S
C403 C409 1.363 . S
C404 C405 1.363 1_554 S
C404 C409 1.379 . S
C404 N411 1.356 1_554 S
C405 C404 1.363 1_556 S
C405 C408 1.361 1_556 S
N406 C408 1.352 1_556 S
N406 H418 0.984 . S
N406 H419 0.985 . S
N407 C409 1.356 . S
N407 H412 0.984 . S
N407 H413 0.985 . S
C408 C402 1.384 . S
C408 C405 1.361 1_554 S
C408 N406 1.352 1_554 S
C409 C403 1.363 . S
C409 C404 1.379 . S
C409 N407 1.356 . S
N410 C402 1.356 . S
N410 H416 0.984 . S
N410 H417 0.984 . S
N411 C404 1.356 1_556 S
N411 H414 0.984 . S
N411 H415 0.985 . S
H412 N407 0.984 . S
H413 N407 0.985 . S
H414 N411 0.984 . S
H415 N411 0.985 . S
H416 N410 0.984 . S
H417 N410 0.984 . S
H418 N406 0.984 . S
H419 N406 0.985 . S
C420 C421 1.363 . S
C420 C426 1.379 . S
C420 N428 1.356 . S
C421 C420 1.363 . S
C421 C427 1.363 1_545 S
C422 C423 1.363 1_565 S
C422 C427 1.379 . S
C422 N429 1.356 . S
C423 C422 1.363 1_545 S
C423 C426 1.363 . S
N424 C426 1.356 . S
N424 H436 0.984 . S
N424 H437 0.985 . S
N425 C427 1.356 . S
N425 H430 0.984 . S
N425 H431 0.985 . S
C426 C420 1.379 . S
C426 C423 1.363 . S
C426 N424 1.356 . S
C427 C421 1.363 1_565 S
C427 C422 1.379 . S
C427 N425 1.356 . S
N428 C420 1.356 . S
N428 H434 0.984 . S
N428 H435 0.984 . S
N429 C422 1.356 . S
N429 H432 0.984 . S
N429 H433 0.985 . S
H430 N425 0.984 . S
H431 N425 0.985 . S
H432 N429 0.984 . S
H433 N429 0.985 . S
H434 N428 0.984 . S
H435 N428 0.984 . S
H436 N424 0.984 . S
H437 N424 0.985 . S
C438 C439 1.363 . S
C438 C444 1.379 . S
C438 N446 1.356 . S
C439 C438 1.363 . S
C439 C445 1.363 . S
C440 C441 1.363 . S
C440 C445 1.379 . S
C440 N447 1.356 . S
C441 C440 1.363 . S
C441 C444 1.363 . S
N442 C444 1.356 . S
N442 H454 0.984 . S
N442 H455 0.985 . S
N443 C445 1.356 . S
N443 H448 0.984 . S
N443 H449 0.985 . S
C444 C438 1.379 . S
C444 C441 1.363 . S
C444 N442 1.356 . S
C445 C439 1.363 . S
C445 C440 1.379 . S
C445 N443 1.356 . S
N446 C438 1.356 . S
N446 H452 0.984 . S
N446 H453 0.984 . S
N447 C440 1.356 . S
N447 H450 0.984 . S
N447 H451 0.985 . S
H448 N443 0.984 . S
H449 N443 0.985 . S
H450 N447 0.984 . S
H451 N447 0.985 . S
H452 N446 0.984 . S
H453 N446 0.984 . S
H454 N442 0.984 . S
H455 N442 0.985 . S
C456 C457 1.363 . S
C456 C462 1.379 . S
C456 N464 1.356 1_545 S
C457 C456 1.363 . S
C457 C463 1.363 . S
C458 C459 1.363 . S
C458 C463 1.379 . S
C458 N465 1.356 . S
C459 C458 1.363 . S
C459 C462 1.363 . S
N460 C462 1.356 1_565 S
N460 H472 0.984 . S
N460 H473 0.985 . S
N461 C463 1.356 . S
N461 H466 0.984 . S
N461 H467 0.985 . S
C462 C456 1.379 . S
C462 C459 1.363 . S
C462 N460 1.356 1_545 S
C463 C457 1.363 . S
C463 C458 1.379 . S
C463 N461 1.356 . S
N464 C456 1.356 1_565 S
N464 H470 0.984 . S
N464 H471 0.984 . S
N465 C458 1.356 . S
N465 H468 0.984 . S
N465 H469 0.985 . S
H466 N461 0.984 . S
H467 N461 0.985 . S
H468 N465 0.984 . S
H469 N465 0.985 . S
H470 N464 0.984 . S
H471 N464 0.984 . S
H472 N460 0.984 . S
H473 N460 0.985 . S
C474 C475 1.363 . S
C474 C480 1.379 1_556 S
C474 N482 1.356 . S
C475 C474 1.363 . S
C475 C481 1.363 . S
C476 C477 1.363 1_556 S
C476 C481 1.379 . S
C476 N483 1.356 . S
C477 C476 1.363 1_554 S
C477 C480 1.363 . S
N478 C480 1.356 . S
N478 H490 0.984 . S
N478 H491 0.985 . S
N479 C481 1.356 . S
N479 H484 0.984 . S
N479 H485 0.985 . S
C480 C474 1.379 1_554 S
C480 C477 1.363 . S
C480 N478 1.356 . S
C481 C475 1.363 . S
C481 C476 1.379 . S
C481 N479 1.356 . S
N482 C474 1.356 . S
N482 H488 0.984 . S
N482 H489 0.984 . S
N483 C476 1.356 . S
N483 H486 0.984 1_556 S
N483 H487 0.985 . S
H484 N479 0.984 . S
H485 N479 0.985 . S
H486 N483 0.984 1_554 S
H487 N483 0.985 . S
H488 N482 0.984 . S
H489 N482 0.984 . S
H490 N478 0.984 . S
H491 N478 0.985 . S
C492 C493 1.363 1_655 S
C492 C498 1.379 . S
C492 N500 1.356 . S
C493 C492 1.363 1_455 S
C493 C499 1.363 . S
C494 C495 1.363 . S
C494 C499 1.379 . S
C494 N501 1.356 . S
C495 C494 1.363 . S
C495 C498 1.363 1_455 S
N496 C498 1.356 . S
N496 H508 0.984 . S
N496 H509 0.985 . S
N497 C499 1.356 . S
N497 H502 0.984 . S
N497 H503 0.985 . S
C498 C492 1.379 . S
C498 C495 1.363 1_655 S
C498 N496 1.356 . S
C499 C493 1.363 . S
C499 C494 1.379 . S
C499 N497 1.356 . S
N500 C492 1.356 . S
N500 H506 0.984 . S
N500 H507 0.984 . S
N501 C494 1.356 . S
N501 H504 0.984 . S
N501 H505 0.985 . S
H502 N497 0.984 . S
H503 N497 0.985 . S
H504 N501 0.984 . S
H505 N501 0.985 . S
H506 N500 0.984 . S
H507 N500 0.984 . S
H508 N496 0.984 . S
H509 N496 0.985 . S
C187 C6 1.124 . S
C189 C185 1.246 . S
C205 C59 1.968 . S
C207 C163 1.908 . S
C223 C86 1.416 . S
C225 C174 1.468 . S
C241 C15 0.692 . S
C243 C179 0.634 . S
C261 C157 1.871 . S
C259 C50 1.919 . S
C279 C168 1.273 . S
C277 C95 1.247 . S
C295 C46 1.381 . S
C297 C141 1.414 . S
C313 C99 3.083 . S
C315 C146 3.039 . S
C331 C10 1.946 . S
C333 C124 1.922 . S
C351 C135 1.282 . S
C349 C55 1.243 . S
C369 C152 3.043 . S
C367 C90 3.090 . S
C385 C19 1.982 . S
C387 C130 1.945 . S
C405 C147 1.757 . S
C403 C18 1.718 . S
C421 C49 1.383 . S
C423 C125 1.451 . S
C439 C98 1.498 . S
C441 C136 1.535 . S
C459 C169 1.499 . S
C457 C58 1.489 . S
C477 C180 1.192 . S
C475 C89 1.194 . S
C493 C9 1.362 . S
C495 C158 1.409 . S
