# Generated by pormake.
# Topology anh, (6,3)-cn, num edge types: 1
# Building blocks:
#     Node 0, Type 0, BuildingBlock: HISSIN_clean_sbu_0, # of connection points: 6
#     Node 1, Type 0, BuildingBlock: HISSIN_clean_sbu_0, # of connection points: 6
#     Node 2, Type 0, BuildingBlock: HISSIN_clean_sbu_0, # of connection points: 6
#     Node 3, Type 1, BuildingBlock: QEWDON_clean_linker_0, # of connection points: 3
#     Node 4, Type 1, BuildingBlock: QEWDON_clean_linker_0, # of connection points: 3
#     Node 5, Type 1, BuildingBlock: QEWDON_clean_linker_0, # of connection points: 3
#     Node 6, Type 1, BuildingBlock: QEWDON_clean_linker_0, # of connection points: 3
#     Node 7, Type 1, BuildingBlock: QEWDON_clean_linker_0, # of connection points: 3
#     Node 8, Type 1, BuildingBlock: QEWDON_clean_linker_0, # of connection points: 3
#     Edge 9, Type (0, 1), BuildingBlock: XUDNAN_clean_linker_2, # of connection points: 2
#     Edge 10, Type (0, 1), BuildingBlock: XUDNAN_clean_linker_2, # of connection points: 2
#     Edge 11, Type (0, 1), BuildingBlock: XUDNAN_clean_linker_2, # of connection points: 2
#     Edge 12, Type (0, 1), BuildingBlock: XUDNAN_clean_linker_2, # of connection points: 2
#     Edge 13, Type (0, 1), BuildingBlock: XUDNAN_clean_linker_2, # of connection points: 2
#     Edge 14, Type (0, 1), BuildingBlock: XUDNAN_clean_linker_2, # of connection points: 2
#     Edge 15, Type (0, 1), BuildingBlock: XUDNAN_clean_linker_2, # of connection points: 2
#     Edge 16, Type (0, 1), BuildingBlock: XUDNAN_clean_linker_2, # of connection points: 2
#     Edge 17, Type (0, 1), BuildingBlock: XUDNAN_clean_linker_2, # of connection points: 2
#     Edge 18, Type (0, 1), BuildingBlock: XUDNAN_clean_linker_2, # of connection points: 2
#     Edge 19, Type (0, 1), BuildingBlock: XUDNAN_clean_linker_2, # of connection points: 2
#     Edge 20, Type (0, 1), BuildingBlock: XUDNAN_clean_linker_2, # of connection points: 2
#     Edge 21, Type (0, 1), BuildingBlock: XUDNAN_clean_linker_2, # of connection points: 2
#     Edge 22, Type (0, 1), BuildingBlock: XUDNAN_clean_linker_2, # of connection points: 2
#     Edge 23, Type (0, 1), BuildingBlock: XUDNAN_clean_linker_2, # of connection points: 2
#     Edge 24, Type (0, 1), BuildingBlock: XUDNAN_clean_linker_2, # of connection points: 2
#     Edge 25, Type (0, 1), BuildingBlock: XUDNAN_clean_linker_2, # of connection points: 2
#     Edge 26, Type (0, 1), BuildingBlock: XUDNAN_clean_linker_2, # of connection points: 2
# Relax obj value: 0.216
# Max RMSD: 0.136
# Mean RMSD: 0.120
data_MOF--net-anh--node1-HISSIN_clean_sbu_0--node2-QEWDON_clean_linker_0--edge1-XUDNAN_clean_linker_2
_symmetry_space_group_name_H-M    P1
_symmetry_Int_Tables_number       1
_symmetry_cell_setting            triclinic
loop_
_symmetry_equiv_pos_as_xyz
'x, y, z'
_cell_length_a     31.200237
_cell_length_b     31.14454
_cell_length_c     48.882007
_cell_angle_alpha  97.066774
_cell_angle_beta   92.610871
_cell_angle_gamma 119.961
loop_
_atom_site_label
_atom_site_type_symbol
_atom_site_fract_x
_atom_site_fract_y
_atom_site_fract_z
_atom_type_partial_charge
Eu0 Eu 0.18823 0.601 0.15572 0.0
Eu1 Eu 0.25258 0.72245 0.17611 0.0
C2 C 0.21693 0.64732 0.22195 0.0
C3 C 1.08273 0.47981 0.11569 0.0
C4 C 1.04101 0.43872 0.12311 0.0
C5 C 1.02972 0.48099 0.07801 0.0
C6 C 0.99372 0.42043 0.10903 0.0
C7 C 1.07705 0.49979 0.09242 0.0
C8 C 0.98707 0.44259 0.08693 0.0
C9 C 1.12948 0.50602 0.13492 0.0
O10 O 0.30536 0.69776 0.16023 0.0
O11 O 0.26647 0.61649 0.16776 0.0
C12 C 0.30685 0.65723 0.16353 0.0
O13 O 0.21912 0.63607 0.11803 0.0
O14 O 0.31361 0.78533 0.20419 0.0
O15 O 0.27462 0.79958 0.17191 0.0
O16 O 0.22654 0.71249 0.13119 0.0
C17 C 0.2249 0.67841 0.11199 0.0
O18 O 1.13435 0.63006 0.15159 0.0
O19 O 0.17453 0.7029 0.18334 0.0
O20 O 0.24188 0.69281 0.21608 0.0
O21 O 0.1703 0.53537 0.12491 0.0
O22 O 1.12659 0.52672 0.15907 0.0
O23 O 0.19339 0.60707 0.2026 0.0
C24 C 0.36266 0.85168 0.1812 0.0
C25 C 0.36851 0.85396 0.15293 0.0
C26 C 0.45203 0.90546 0.19316 0.0
C27 C 0.4159 0.88251 0.14493 0.0
C28 C 0.40478 0.87773 0.20118 0.0
C29 C 0.45802 0.90813 0.165 0.0
C30 C 0.31412 0.8185 0.19014 0.0
C31 C 1.1339 0.66699 0.16773 0.0
H32 H 1.04449 0.423 0.1411 0.0
H33 H 1.02634 0.49848 0.06086 0.0
H34 H 0.96216 0.39155 0.11708 0.0
H35 H 1.10869 0.53172 0.08628 0.0
H36 H 0.33667 0.8335 0.13702 0.0
H37 H 0.48384 0.92602 0.2091 0.0
H38 H 0.4197 0.88467 0.12314 0.0
H39 H 0.40116 0.87613 0.22303 0.0
Eu40 Eu 0.73655 0.14417 0.48848 0.0
Eu41 Eu 0.69365 0.21642 0.51331 0.0
C42 C 0.72887 0.16413 0.55414 0.0
C43 C 0.73363 1.02887 0.45478 0.0
C44 C 0.68527 1.01042 0.44169 0.0
C45 C 0.71302 0.9436 0.45734 0.0
C46 C 0.6503 0.95915 0.43782 0.0
C47 C 0.74814 0.99496 0.46111 0.0
C48 C 0.66293 0.92577 0.44746 0.0
C49 C 0.76428 1.08214 0.46725 0.0
O50 O 0.7768 0.27062 0.51587 0.0
O51 O 0.80303 0.22222 0.49078 0.0
C52 C 0.81122 0.26586 0.50351 0.0
O53 O 0.70074 0.15755 0.45142 0.0
O54 O 0.69965 0.28005 0.54134 0.0
O55 O 0.63268 0.23121 0.51236 0.0
O56 O 0.70826 0.23216 0.47052 0.0
C57 C 0.70126 0.19935 0.44889 0.0
O58 O 0.65635 1.0884 0.49337 0.0
O59 O 0.62498 0.14131 0.49609 0.0
O60 O 0.69603 0.17704 0.54806 0.0
O61 O 0.7609 0.11408 0.45373 0.0
O62 O 0.76185 1.0915 0.49366 0.0
O63 O 0.75619 0.15962 0.5355 0.0
C64 C 0.66033 0.31667 0.51839 0.0
C65 C 0.70531 0.35658 0.51245 0.0
C66 C 0.61515 0.35193 0.49819 0.0
C67 C 0.70514 0.39455 0.4999 0.0
C68 C 0.61541 0.31468 0.5111 0.0
C69 C 0.65993 0.39226 0.49253 0.0
C70 C 0.65827 0.27388 0.52925 0.0
C71 C 0.6184 0.09583 0.49345 0.0
H72 H 0.67312 1.03595 0.43675 0.0
H73 H 0.72397 0.91851 0.46452 0.0
H74 H 0.61227 0.94674 0.43 0.0
H75 H 0.78529 1.00854 0.47124 0.0
H76 H 0.74043 0.35837 0.51739 0.0
H77 H 0.57991 0.35003 0.49348 0.0
H78 H 0.74014 0.42575 0.49612 0.0
H79 H 0.58033 0.28394 0.5152 0.0
Eu80 Eu 0.60858 0.53555 0.82983 0.0
Eu81 Eu 0.72794 0.58891 0.83322 0.0
C82 C 0.67288 0.56542 0.88981 0.0
C83 C 0.48828 0.51829 0.80006 0.0
C84 C 0.50137 0.56894 0.80546 0.0
C85 C 0.43316 0.50561 0.75907 0.0
C86 C 0.4802 0.58752 0.78818 0.0
C87 C 0.45422 0.48682 0.77662 0.0
C88 C 0.44585 0.55626 0.76469 0.0
C89 C 0.51356 0.49965 0.81724 0.0
O90 O 0.69785 0.50501 0.82393 0.0
O91 O 0.62226 0.4741 0.84048 0.0
C92 C 0.65901 0.46821 0.83239 0.0
O93 O 0.63134 0.51568 0.78989 0.0
O94 O 0.804 0.6231 0.85383 0.0
O95 O 0.78974 0.60704 0.80894 0.0
O96 O 0.69625 0.59315 0.79155 0.0
C97 C 0.65979 0.55171 0.77695 0.0
O98 O 0.63817 0.6175 0.82394 0.0
O99 O 0.71997 0.65665 0.84296 0.0
O100 O 0.71382 0.57952 0.87786 0.0
O101 O 0.53825 0.48217 0.80386 0.0
O102 O 0.53847 0.52805 0.84093 0.0
O103 O 0.62942 0.55016 0.8758 0.0
C104 C 0.84415 0.5851 0.8299 0.0
C105 C 0.84027 0.55457 0.80503 0.0
C106 C 0.88805 0.55187 0.85395 0.0
C107 C 0.86074 0.52366 0.80458 0.0
C108 C 0.86777 0.58296 0.85441 0.0
C109 C 0.88548 0.52261 0.82895 0.0
C110 C 0.82076 0.61637 0.83067 0.0
C111 C 0.68128 0.65895 0.83343 0.0
H112 H 0.52812 0.5945 0.82307 0.0
H113 H 0.40701 0.48055 0.74116 0.0
H114 H 0.49 0.62634 0.79381 0.0
H115 H 0.44429 0.44783 0.77175 0.0
H116 H 0.82185 0.55483 0.78578 0.0
H117 H 0.90805 0.55276 0.87293 0.0
H118 H 0.85872 0.50178 0.78501 0.0
H119 H 0.87109 0.60575 0.8739 0.0
H120 H 0.71206 0.34433 0.25976 0.0
C121 C 0.7084 0.31176 0.2466 0.0
C122 C 0.70606 0.27163 0.25852 0.0
C123 C 0.70594 0.3098 0.21758 0.0
H124 H 0.69538 0.19705 0.24946 0.0
C125 C 0.70103 0.22971 0.24088 0.0
C126 C 0.6986 0.22731 0.21202 0.0
C127 C 0.70157 0.26757 0.20066 0.0
C128 C 0.70424 0.34919 0.20391 0.0
H129 H 0.69799 0.26471 0.17825 0.0
C130 C 0.72767 0.36171 0.17992 0.0
C131 C 0.71742 0.38881 0.16232 0.0
C132 C 0.67434 0.36921 0.21208 0.0
H133 H 0.65539 0.36006 0.23037 0.0
C134 C 0.66666 0.39934 0.19577 0.0
H135 H 0.75307 0.34873 0.17453 0.0
C136 C 0.68735 0.40848 0.17078 0.0
H137 H 0.67902 0.42996 0.15793 0.0
H138 H 0.64312 0.41418 0.20203 0.0
H139 H 0.45421 0.57871 0.61327 0.0
C140 C 0.47287 0.57312 0.59621 0.0
C141 C 0.50621 0.55586 0.60031 0.0
C142 C 0.46465 0.58397 0.57002 0.0
H143 H 0.55804 0.53814 0.58187 0.0
C144 C 0.53194 0.55094 0.5785 0.0
C145 C 0.5244 0.56208 0.55248 0.0
C146 C 0.4896 0.57692 0.54815 0.0
C147 C 0.43413 0.60714 0.56524 0.0
H148 H 0.48322 0.58481 0.52784 0.0
C149 C 0.4535 0.64796 0.55104 0.0
C150 C 0.42447 0.66735 0.54205 0.0
C151 C 0.38546 0.58738 0.57227 0.0
H152 H 0.36956 0.55574 0.58328 0.0
C153 C 0.35627 0.60726 0.56388 0.0
H154 H 0.4913 0.66353 0.54583 0.0
C155 C 0.37531 0.64654 0.54833 0.0
H156 H 0.35199 0.66068 0.54139 0.0
H157 H 0.31843 0.59142 0.5689 0.0
H158 H 0.31615 0.75124 0.90582 0.0
C159 C 0.28483 0.71476 0.89662 0.0
C160 C 0.25449 0.68169 0.91388 0.0
C161 C 0.27481 0.70043 0.86753 0.0
H162 H 0.18725 0.61241 0.91524 0.0
C163 C 0.21286 0.6352 0.9018 0.0
C164 C 0.20206 0.61999 0.87288 0.0
C165 C 0.23465 0.65227 0.85616 0.0
C166 C 0.30305 0.73586 0.84835 0.0
H167 H 0.22712 0.64088 0.8339 0.0
C168 C 0.30973 0.7169 0.82234 0.0
C169 C 0.32797 0.747 0.80177 0.0
C170 C 0.31888 0.78734 0.85433 0.0
H171 H 0.31381 0.80339 0.87397 0.0
C172 C 0.33985 0.81836 0.83441 0.0
H173 H 0.30046 0.67805 0.81784 0.0
C174 C 0.34418 0.7983 0.80812 0.0
H175 H 0.35975 0.82255 0.79279 0.0
H176 H 0.35186 0.8579 0.83919 0.0
H177 H 0.17421 0.64666 0.4352 0.0
C178 C 0.20916 0.68021 0.4439 0.0
C179 C 0.24572 0.70347 0.42628 0.0
C180 C 0.2159 0.70186 0.472 0.0
H181 H 0.31816 0.76717 0.42368 0.0
C182 C 0.29002 0.74875 0.43714 0.0
C183 C 0.29747 0.77204 0.46476 0.0
C184 C 0.2607 0.74796 0.48215 0.0
C185 C 0.17479 0.67876 0.49004 0.0
H186 H 0.26729 0.76564 0.50361 0.0
C187 C 1.14053 0.62602 0.48643 0.0
C188 C 1.10118 0.6056 0.50317 0.0
C189 C 0.16848 0.71024 0.51067 0.0
H190 H 0.19206 0.75071 0.5136 0.0
C191 C 1.13088 0.69032 0.52763 0.0
H192 H 1.14415 0.60096 0.47057 0.0
C193 C 1.09782 0.63873 0.5241 0.0
H194 H 1.06965 0.62486 0.53804 0.0
H195 H 1.12712 0.71519 0.54358 0.0
H196 H 0.6917 1.04921 0.75279 0.0
C197 C 0.69246 1.08189 0.76401 0.0
C198 C 0.70449 0.12358 0.75069 0.0
C199 C 0.67689 1.08039 0.7907 0.0
H200 H 0.711 0.19635 0.75436 0.0
C201 C 0.70262 0.16478 0.76478 0.0
C202 C 0.68729 0.1646 0.79134 0.0
C203 C 0.67539 0.12254 0.80427 0.0
C204 C 0.65477 1.03253 0.80273 0.0
H205 H 0.66359 0.12205 0.82479 0.0
C206 C 0.67515 1.00038 0.80151 0.0
C207 C 0.65103 0.95456 0.8123 0.0
C208 C 0.61035 1.01773 0.81477 0.0
H209 H 0.59269 1.04016 0.81542 0.0
C210 C 0.58713 0.97332 0.82561 0.0
H211 H 0.70907 1.01068 0.79217 0.0
C212 C 0.60716 0.94216 0.82446 0.0
H213 H 0.58826 0.90815 0.83341 0.0
H214 H 0.5531 0.96282 0.83486 0.0
H215 H 0.66844 0.60215 0.1045 0.0
C216 C 0.70557 0.61169 0.11253 0.0
C217 C 0.73786 0.60973 0.09383 0.0
C218 C 0.71995 0.62427 0.14138 0.0
H219 H 0.81065 0.61947 0.09005 0.0
C220 C 0.78583 0.62122 0.10435 0.0
C221 C 0.80194 0.63454 0.13312 0.0
C222 C 0.76879 0.63644 0.1514 0.0
C223 C 0.68247 0.62052 0.16085 0.0
H224 H 0.78086 0.64654 0.17353 0.0
C225 C 0.64425 0.63122 0.15405 0.0
C226 C 0.60694 0.62333 0.17173 0.0
C227 C 0.6828 0.60265 0.18589 0.0
H228 H 0.71012 0.59257 0.19165 0.0
C229 C 0.64689 0.59582 0.20357 0.0
H230 H 0.64308 0.6451 0.13496 0.0
C231 C 0.60936 0.60589 0.19662 0.0
H232 H 0.58245 0.60053 0.21104 0.0
H233 H 0.64789 0.5821 0.22276 0.0
H234 H 0.33332 0.58806 0.17644 0.0
H235 H 0.39035 0.72894 0.14517 0.0
H236 H 0.4707 0.73316 0.14146 0.0
H237 H 0.44682 0.62273 0.2182 0.0
H238 H 0.43977 0.56119 0.21126 0.0
H239 H 0.38547 0.56757 0.21018 0.0
H240 H 0.35608 0.51763 0.16001 0.0
H241 H 0.41038 0.51118 0.16093 0.0
H242 H 0.39728 0.53863 0.13371 0.0
H243 H 0.54666 0.72349 0.14189 0.0
H244 H 0.6126 0.70245 0.14888 0.0
H245 H 0.5076 0.56829 0.17995 0.0
C246 C 0.36254 0.61957 0.1686 0.0
C247 C 0.35496 0.65803 0.16102 0.0
C248 C 0.39472 0.69887 0.15115 0.0
C249 C 0.44073 0.70161 0.14886 0.0
C250 C 0.44707 0.66335 0.15657 0.0
C251 C 0.40915 0.62315 0.16635 0.0
C252 C 0.42656 0.58808 0.17422 0.0
C253 C 0.42454 0.58472 0.20531 0.0
C254 C 0.39574 0.53578 0.15614 0.0
C255 C 0.48011 0.61506 0.16758 0.0
C256 C 0.49107 0.65819 0.15719 0.0
C257 C 0.53837 0.68964 0.14992 0.0
C258 C 0.57563 0.67718 0.15378 0.0
C259 C 0.56579 0.63375 0.16502 0.0
C260 C 0.51687 0.6021 0.17159 0.0
H261 H 0.83534 0.36501 0.51356 0.0
H262 H 0.89843 0.27106 0.49074 0.0
H263 H 0.97871 0.34671 0.48699 0.0
H264 H 0.89594 0.45158 0.46673 0.0
H265 H 0.9054 0.50568 0.4903 0.0
H266 H 0.85347 0.4443 0.492 0.0
H267 H 0.88284 0.45471 0.54402 0.0
H268 H 0.93473 0.51623 0.54258 0.0
H269 H 0.94555 0.4695 0.55443 0.0
H270 H 1.05354 0.43433 0.48622 0.0
H271 H 1.11502 0.52478 0.4889 0.0
H272 H 1.00088 0.56014 0.50932 0.0
C273 C 0.86613 0.36027 0.50805 0.0
C274 C 0.86043 0.31182 0.50268 0.0
C275 C 0.90167 0.30758 0.49505 0.0
C276 C 0.94753 0.35043 0.49284 0.0
C277 C 0.95173 0.39753 0.49803 0.0
C278 C 0.91201 0.4026 0.50541 0.0
C279 C 0.92578 0.45726 0.50937 0.0
C280 C 0.89321 0.46515 0.48834 0.0
C281 C 0.92201 0.47549 0.53939 0.0
C282 C 0.97957 0.48226 0.50335 0.0
C283 C 0.99399 0.44731 0.49687 0.0
C284 C 1.04244 0.46194 0.49114 0.0
C285 C 1.07714 0.51356 0.49249 0.0
C286 C 1.06341 0.55027 0.49946 0.0
C287 C 1.01342 0.53367 0.50443 0.0
H288 H 0.61202 0.68116 0.81236 0.0
H289 H 0.76608 0.75203 0.84903 0.0
H290 H 0.77835 0.83531 0.84404 0.0
H291 H 0.63309 0.7612 0.76283 0.0
H292 H 0.57955 0.76789 0.7657 0.0
H293 H 0.577 0.71081 0.77221 0.0
H294 H 0.55244 0.71738 0.82035 0.0
H295 H 0.55289 0.77517 0.81858 0.0
H296 H 0.59095 0.77254 0.84608 0.0
H297 H 0.77245 0.91323 0.83572 0.0
H298 H 0.7466 0.97502 0.82825 0.0
H299 H 0.59753 0.85218 0.79672 0.0
C300 C 0.64844 0.71405 0.81934 0.0
C301 C 0.68798 0.7095 0.83113 0.0
C302 C 0.73495 0.75403 0.83995 0.0
C303 C 0.74245 0.80175 0.83708 0.0
C304 C 0.70273 0.80482 0.82525 0.0
C305 C 0.65665 0.762 0.81666 0.0
C306 C 0.61938 0.77529 0.80571 0.0
C307 C 0.60105 0.75235 0.77482 0.0
C308 C 0.57629 0.75901 0.82365 0.0
C309 C 0.6512 0.83208 0.8095 0.0
C310 C 0.6994 0.84878 0.82064 0.0
C311 C 0.73476 0.90026 0.82682 0.0
C312 C 0.71993 0.93522 0.82227 0.0
C313 C 0.67006 0.9187 0.81184 0.0
C314 C 0.63596 0.86626 0.80474 0.0
H315 H 1.04358 0.60461 0.1347 0.0
H316 H 1.11758 0.73485 0.2003 0.0
H317 H 1.0409 0.73972 0.19976 0.0
H318 H 0.97634 0.64789 0.09687 0.0
H319 H 0.92085 0.58725 0.08715 0.0
H320 H 0.98071 0.59204 0.09313 0.0
H321 H 0.94893 0.53344 0.12966 0.0
H322 H 0.88858 0.52781 0.12527 0.0
H323 H 0.92391 0.54963 0.15907 0.0
H324 H 0.95469 0.73071 0.19131 0.0
H325 H 0.86912 0.70983 0.17509 0.0
H326 H 0.8516 0.58535 0.1153 0.0
C327 C 1.04379 0.63414 0.14905 0.0
C328 C 1.08704 0.66931 0.16757 0.0
C329 C 1.08524 0.70736 0.18587 0.0
C330 C 1.04168 0.71044 0.18575 0.0
C331 C 0.99983 0.67527 0.16718 0.0
C332 C 1.00069 0.63794 0.14915 0.0
C333 C 0.95106 0.60511 0.13104 0.0
C334 C 0.9576 0.60814 0.10021 0.0
C335 C 0.92672 0.55076 0.13655 0.0
C336 C 0.92212 0.62984 0.14137 0.0
C337 C 0.95076 0.67016 0.16236 0.0
C338 C 0.93201 0.69905 0.17493 0.0
C339 C 0.88312 0.68672 0.16565 0.0
C340 C 0.85319 0.64595 0.14382 0.0
C341 C 0.87333 0.6171 0.13179 0.0
H342 H 0.58315 0.99431 0.47545 0.0
H343 H 0.53527 0.09803 0.50697 0.0
H344 H 0.44952 1.0269 0.50517 0.0
H345 H 0.47196 0.90916 0.42728 0.0
H346 H 0.47232 0.85365 0.4339 0.0
H347 H 0.52986 0.91285 0.43789 0.0
H348 H 0.54792 0.90173 0.48743 0.0
H349 H 0.48795 0.84522 0.48602 0.0
H350 H 0.50636 0.89827 0.51267 0.0
H351 H 0.36808 0.9431 0.50092 0.0
H352 H 0.2974 0.85528 0.49034 0.0
H353 H 0.39684 0.80618 0.45985 0.0
C354 C 0.55465 1.00215 0.48188 0.0
C355 C 0.56637 1.05213 0.49138 0.0
C356 C 0.52758 1.06035 0.49951 0.0
C357 C 0.47858 1.02005 0.49866 0.0
C358 C 0.46833 0.97136 0.48932 0.0
C359 C 0.50514 0.96234 0.48072 0.0
C360 C 0.48402 0.90644 0.47141 0.0
C361 C 0.48989 0.89484 0.4408 0.0
C362 C 0.50818 0.88681 0.4905 0.0
C363 C 0.42961 0.88555 0.47538 0.0
C364 C 0.42143 0.92351 0.48628 0.0
C365 C 0.37421 0.9132 0.49228 0.0
C366 C 0.33429 0.86309 0.4864 0.0
C367 C 0.34146 0.82375 0.47428 0.0
C368 C 0.39006 0.83539 0.46901 0.0
H369 H 0.72646 0.44227 0.81371 0.0
H370 H 0.58547 0.38126 0.84786 0.0
H371 H 0.58041 0.29882 0.8442 0.0
H372 H 0.69389 0.335 0.76392 0.0
H373 H 0.75458 0.34126 0.76778 0.0
H374 H 0.74879 0.39611 0.77489 0.0
H375 H 0.79546 0.41827 0.8243 0.0
H376 H 0.802 0.36382 0.8172 0.0
H377 H 0.77329 0.37212 0.847 0.0
H378 H 0.58928 0.22138 0.83485 0.0
H379 H 0.60912 0.15564 0.81903 0.0
H380 H 0.7446 0.26728 0.79107 0.0
C381 C 0.69458 0.41179 0.82067 0.0
C382 C 0.65629 0.41861 0.83115 0.0
C383 C 0.61531 0.37731 0.83981 0.0
C384 C 0.61218 0.33026 0.83785 0.0
C385 C 0.65039 0.32485 0.82724 0.0
C386 C 0.69084 0.3646 0.8188 0.0
C387 C 0.72601 0.3486 0.80715 0.0
C388 C 0.73108 0.35565 0.77663 0.0
C389 C 0.77722 0.3774 0.82498 0.0
C390 C 0.69856 0.29327 0.80979 0.0
C391 C 0.65533 0.28045 0.82174 0.0
C392 C 0.62327 0.23122 0.82569 0.0
C393 C 0.63512 0.19406 0.8168 0.0
C394 C 0.67863 0.20587 0.80386 0.0
C395 C 0.71095 0.2566 0.80076 0.0
H396 H 0.65869 0.88984 0.49542 0.0
H397 H 0.57498 0.85499 0.41454 0.0
H398 H 0.50193 0.7846 0.43007 0.0
H399 H 0.60191 0.75823 0.50888 0.0
H400 H 0.60419 0.77879 0.5453 0.0
H401 H 0.65087 0.81971 0.52564 0.0
H402 H 0.62946 0.8888 0.54139 0.0
H403 H 0.58186 0.84734 0.56032 0.0
H404 H 0.56632 0.87508 0.53427 0.0
H405 H 0.4356 0.72221 0.45682 0.0
H406 H 0.38652 0.66863 0.49043 0.0
H407 H 0.51412 0.7529 0.5538 0.0
C408 C 0.62585 0.86615 0.48046 0.0
C409 C 0.62286 0.87723 0.45358 0.0
C410 C 0.57823 0.84663 0.43513 0.0
C411 C 0.53663 0.80667 0.44378 0.0
C412 C 0.5404 0.79819 0.47092 0.0
C413 C 0.58421 0.82696 0.48884 0.0
C414 C 0.57819 0.81357 0.51758 0.0
C415 C 0.61069 0.79123 0.52476 0.0
C416 C 0.58962 0.8589 0.53965 0.0
C417 C 0.52357 0.77423 0.5135 0.0
C418 C 0.50228 0.76494 0.48644 0.0
C419 C 0.45213 0.72888 0.47798 0.0
C420 C 0.42423 0.69935 0.49729 0.0
C421 C 0.44667 0.7069 0.52462 0.0
C422 C 0.49607 0.74651 0.53302 0.0
H423 H 0.95256 0.53702 0.79363 0.0
H424 H 0.89237 0.46175 0.86298 0.0
H425 H 0.96558 0.45214 0.87076 0.0
H426 H 1.03909 0.47909 0.77629 0.0
H427 H 1.08584 0.53985 0.76969 0.0
H428 H 1.02065 0.5173 0.76007 0.0
H429 H 1.03134 0.59853 0.78864 0.0
H430 H 1.09561 0.62084 0.79821 0.0
H431 H 1.05596 0.61529 0.82494 0.0
H432 H 1.0531 0.47506 0.88067 0.0
H433 H 1.14285 0.5326 0.8943 0.0
H434 H 0.14818 0.60428 0.82268 0.0
C435 C 0.95344 0.51548 0.80919 0.0
C436 C 0.91712 0.4998 0.82756 0.0
C437 C 0.9199 0.47361 0.84855 0.0
C438 C 0.96129 0.46777 0.85296 0.0
C439 C 0.9995 0.48855 0.83627 0.0
C440 C 0.99549 0.51142 0.81443 0.0
C441 C 1.04559 0.54305 0.80464 0.0
C442 C 1.04792 0.51832 0.77598 0.0
C443 C 1.05779 0.59757 0.80418 0.0
C444 C 1.07908 0.54029 0.82681 0.0
C445 C 1.05186 0.50586 0.84355 0.0
C446 C 1.0747 0.50161 0.86744 0.0
C447 C 1.12581 0.53538 0.87534 0.0
C448 C 0.15315 0.57478 0.86022 0.0
C449 C 1.12964 0.57478 0.83477 0.0
H450 H 0.48085 0.98356 0.13626 0.0
H451 H 0.54607 0.91305 0.17959 0.0
H452 H 0.62928 0.98804 0.18196 0.0
H453 H 0.6037 1.07529 0.10387 0.0
H454 H 0.58734 0.12328 0.10987 0.0
H455 H 0.53916 1.05826 0.09942 0.0
H456 H 0.49588 1.065 0.1423 0.0
H457 H 0.54361 0.12911 0.15296 0.0
H458 H 0.53047 1.08496 0.17652 0.0
H459 H 0.69467 1.07528 0.19533 0.0
H460 H 0.73492 0.16414 0.21737 0.0
H461 H 0.62853 0.18135 0.16692 0.0
C462 C 0.51333 0.98298 0.14449 0.0
C463 C 0.50759 0.94298 0.15758 0.0
C464 C 0.55013 0.94351 0.16927 0.0
C465 C 0.59755 0.98592 0.17055 0.0
C466 C 0.60171 1.02725 0.15991 0.0
C467 C 0.56071 1.02567 0.14641 0.0
C468 C 0.57205 1.0778 0.14282 0.0
C469 C 0.5758 1.08401 0.11217 0.0
C470 C 0.53327 1.08986 0.15439 0.0
C471 C 0.62273 0.10919 0.15991 0.0
C472 C 0.64049 1.07944 0.16826 0.0
C473 C 0.6821 0.09912 0.18814 0.0
C474 C 0.70448 0.14953 0.20079 0.0
C475 C 0.68476 0.17948 0.19377 0.0
C476 C 0.64522 0.15968 0.17206 0.0
H477 H 0.71145 0.48876 0.51757 0.0
H478 H 0.60191 0.3892 0.44797 0.0
H479 H 0.57204 0.44844 0.44619 0.0
H480 H 0.64461 0.50493 0.55401 0.0
H481 H 0.68046 0.57072 0.569 0.0
H482 H 0.71178 0.53929 0.55603 0.0
H483 H 0.75412 0.60359 0.52321 0.0
H484 H 0.72365 0.63655 0.53666 0.0
H485 H 0.71691 0.61606 0.49979 0.0
H486 H 0.53069 0.49134 0.46458 0.0
H487 H 0.48837 0.51749 0.49817 0.0
H488 H 0.62315 0.59373 0.5565 0.0
C489 C 0.68383 0.48173 0.50072 0.0
C490 C 0.65871 0.43484 0.48305 0.0
C491 C 0.62158 0.42526 0.46164 0.0
C492 C 0.6045 0.4589 0.46049 0.0
C493 C 0.62538 0.50208 0.48071 0.0
C494 C 0.66583 0.51475 0.49987 0.0
C495 C 0.67372 0.55563 0.52332 0.0
C496 C 0.67773 0.54167 0.55223 0.0
C497 C 0.71983 0.60594 0.52056 0.0
C498 C 0.62652 0.557 0.5171 0.0
C499 C 0.60062 0.52823 0.49161 0.0
C500 C 0.55152 0.51571 0.48397 0.0
C501 C 0.52755 0.5305 0.50325 0.0
C502 C 0.55259 0.55717 0.52995 0.0
C503 C 0.60342 0.57316 0.53616 0.0
H504 H 0.4862 0.64998 0.75109 0.0
H505 H 0.34744 0.50806 0.74216 0.0
H506 H 0.30149 0.5492 0.72983 0.0
H507 H 0.4459 0.70677 0.79405 0.0
H508 H 0.48272 0.76769 0.78395 0.0
H509 H 0.50082 0.72167 0.77783 0.0
H510 H 0.50107 0.73522 0.72555 0.0
H511 H 0.47684 0.77671 0.73285 0.0
H512 H 0.44369 0.72156 0.70639 0.0
H513 H 0.26886 0.60492 0.73701 0.0
H514 H 0.25461 0.66435 0.76732 0.0
H515 H 0.41184 0.77436 0.77751 0.0
C516 C 0.44621 0.62746 0.74561 0.0
C517 C 0.42047 0.57617 0.74817 0.0
C518 C 0.36834 0.54741 0.74022 0.0
C519 C 0.34181 0.57072 0.73316 0.0
C520 C 0.36773 0.62288 0.7344 0.0
C521 C 0.41916 0.65094 0.74034 0.0
C522 C 0.43714 0.70624 0.74907 0.0
C523 C 0.46838 0.72683 0.77793 0.0
C524 C 0.46641 0.73673 0.72714 0.0
C525 C 0.38796 0.70451 0.75008 0.0
C526 C 0.34829 0.65647 0.73992 0.0
C527 C 0.2995 0.64282 0.74421 0.0
C528 C 0.29163 0.67686 0.7615 0.0
C529 C 0.33245 0.72361 0.77467 0.0
C530 C 0.38023 0.73925 0.76695 0.0
H531 H 0.8983 0.35279 0.08101 0.0
H532 H 0.95985 0.50859 0.07168 0.0
H533 H 0.87742 0.49931 0.07341 0.0
H534 H 0.75787 0.30822 0.05086 0.0
H535 H 0.73616 0.26722 0.07636 0.0
H536 H 0.79039 0.27684 0.06015 0.0
H537 H 0.8409 0.30324 0.10878 0.0
H538 H 0.78771 0.29466 0.12503 0.0
H539 H 0.84492 0.35465 0.13255 0.0
H540 H 0.80708 0.48862 0.09834 0.0
H541 H 0.75427 0.47207 0.13615 0.0
H542 H 0.72933 0.32086 0.12774 0.0
C543 C 0.89394 0.38443 0.07835 0.0
C544 C 0.93604 0.43176 0.07714 0.0
C545 C 0.92863 0.47186 0.07283 0.0
C546 C 0.88167 0.46706 0.07394 0.0
C547 C 0.84243 0.42207 0.07935 0.0
C548 C 0.84745 0.38047 0.08025 0.0
C549 C 0.80348 0.33991 0.09157 0.0
C550 C 0.76998 0.29542 0.06834 0.0
C551 C 0.82032 0.32222 0.11592 0.0
C552 C 0.77768 0.36835 0.10107 0.0
C553 C 0.79928 0.41491 0.09282 0.0
C554 C 0.78881 0.45167 0.10416 0.0
C555 C 0.75858 0.44196 0.1257 0.0
C556 C 0.73854 0.3955 0.13538 0.0
C557 C 0.74513 0.35721 0.12123 0.0
H558 H 0.2253 0.61772 0.06638 0.0
H559 H 0.24488 0.7653 0.0933 0.0
H560 H 0.26251 0.78559 0.04639 0.0
H561 H 0.32246 0.65698 0.02106 0.0
H562 H 0.28747 0.60088 -0.0046 0.0
H563 H 0.27823 0.59862 0.03143 0.0
H564 H 0.18354 0.56262 0.01862 0.0
H565 H 0.19242 0.56424 0.98257 0.0
H566 H 0.16316 0.5961 -0.00087 0.0
H567 H 0.27494 0.78854 -0.00428 0.0
H568 H 0.27541 0.77123 0.94495 0.0
H569 H 0.25015 0.62308 0.952 0.0
C570 C 0.23337 0.65436 0.06248 0.0
C571 C 0.23363 0.68983 0.08356 0.0
C572 C 0.24429 0.73734 0.07749 0.0
C573 C 0.25467 0.74939 0.05094 0.0
C574 C 0.25448 0.71367 0.03069 0.0
C575 C 0.24391 0.66705 0.03615 0.0
C576 C 0.24418 0.63461 0.01054 0.0
C577 C 0.28556 0.62205 0.01488 0.0
C578 C 0.19277 0.58657 0.00223 0.0
C579 C 0.25562 0.66987 -0.0103 0.0
C580 C 0.26196 0.71551 0.00172 0.0
C581 C 0.27053 0.75311 0.98614 0.0
C582 C 0.27114 0.74315 0.95737 0.0
C583 C 0.26291 0.69589 0.94459 0.0
C584 C 0.2565 0.65955 0.96122 0.0
H585 H 0.73311 0.17802 0.4002 0.0
H586 H 0.65473 0.24928 0.43597 0.0
H587 H 0.64894 0.27735 0.39162 0.0
H588 H 0.80672 0.27559 0.3622 0.0
H589 H 0.80505 0.23382 0.33262 0.0
H590 H 0.80012 0.216 0.36653 0.0
H591 H 0.71679 0.13373 0.34773 0.0
H592 H 0.72177 0.15104 0.31369 0.0
H593 H 0.66674 0.13706 0.33013 0.0
H594 H 0.65163 0.29784 0.34343 0.0
H595 H 0.66178 0.30824 0.29451 0.0
H596 H 0.7456 0.23093 0.29149 0.0
C597 C 0.71396 0.1987 0.39844 0.0
C598 C 0.69389 0.21106 0.42133 0.0
C599 C 0.67017 0.23928 0.41857 0.0
C600 C 0.66674 0.25546 0.3935 0.0
C601 C 0.68784 0.24372 0.37147 0.0
C602 C 0.71105 0.21606 0.37365 0.0
C603 C 0.73241 0.21045 0.34714 0.0
C604 C 0.78946 0.23547 0.35245 0.0
C605 C 0.70795 0.15476 0.33389 0.0
C606 C 0.71726 0.2389 0.32975 0.0
C607 C 0.69139 0.25759 0.3441 0.0
C608 C 0.67222 0.28374 0.33201 0.0
C609 C 0.6787 0.28999 0.30424 0.0
C610 C 0.70456 0.27055 0.28892 0.0
C611 C 0.72501 0.24574 0.30231 0.0
H612 H 0.64774 0.62067 0.75288 0.0
H613 H 0.62811 0.47145 0.73691 0.0
H614 H 0.58001 0.45443 0.69145 0.0
H615 H 0.5249 0.58357 0.72286 0.0
H616 H 0.54377 0.63992 0.7083 0.0
H617 H 0.57923 0.64182 0.73905 0.0
H618 H 0.65943 0.67851 0.71468 0.0
H619 H 0.6242 0.67729 0.68409 0.0
H620 H 0.65938 0.64568 0.68159 0.0
H621 H 0.53135 0.45135 0.64959 0.0
H622 H 0.49469 0.46703 0.609 0.0
H623 H 0.5441 0.618 0.65105 0.0
C624 C 0.63473 0.5852 0.73928 0.0
C625 C 0.64235 0.54761 0.74789 0.0
C626 C 0.62321 0.50083 0.73026 0.0
C627 C 0.59543 0.49066 0.70463 0.0
C628 C 0.5867 0.52755 0.69715 0.0
C629 C 0.60628 0.57416 0.71362 0.0
C630 C 0.59041 0.60659 0.70052 0.0
C631 C 0.55764 0.61869 0.71877 0.0
C632 C 0.63608 0.65486 0.69487 0.0
C633 C 0.56021 0.57133 0.67375 0.0
C634 C 0.5578 0.5256 0.67269 0.0
C635 C 0.53292 0.48694 0.65009 0.0
C636 C 0.51196 0.49602 0.62726 0.0
C637 C 0.51642 0.54348 0.62711 0.0
C638 C 0.53944 0.58112 0.65097 0.0
H639 H 0.68199 0.17707 0.59744 0.0
H640 H 0.78646 0.12857 0.5761 0.0
H641 H 0.7912 0.1107 0.62395 0.0
H642 H 0.73902 0.23847 0.66663 0.0
H643 H 0.68036 0.2193 0.68002 0.0
H644 H 0.68578 0.22768 0.6443 0.0
H645 H 0.61207 0.13655 0.62836 0.0
H646 H 0.60647 0.12783 0.66403 0.0
H647 H 0.615 1.08506 0.63974 0.0
H648 H 0.78279 0.09766 0.67547 0.0
H649 H 0.76482 1.0943 0.72444 0.0
H650 H 0.66542 0.1508 0.70965 0.0
C651 C 0.70603 0.16271 0.60262 0.0
C652 C 0.73387 0.15424 0.58284 0.0
C653 C 0.76483 0.13551 0.59083 0.0
C654 C 0.76763 0.12514 0.61796 0.0
C655 C 0.73929 0.13374 0.63685 0.0
C656 C 0.70924 0.1523 0.62937 0.0
C657 C 0.68253 0.15884 0.65313 0.0
C658 C 0.69786 0.21436 0.66151 0.0
C659 C 0.62566 0.12505 0.64588 0.0
C660 C 0.70218 0.14124 0.67538 0.0
C661 C 0.73477 0.12667 0.66579 0.0
C662 C 0.75736 0.1091 0.68308 0.0
C663 C 0.74679 0.10708 0.71082 0.0
C664 C 0.71421 0.12286 0.72104 0.0
C665 C 0.6913 0.13942 0.70276 0.0
H666 H 0.75354 0.62072 0.93073 0.0
H667 H 0.59594 0.50757 0.91739 0.0
H668 H 0.59689 0.5045 0.96748 0.0
H669 H 0.78939 0.57197 0.98586 0.0
H670 H 0.83265 0.63323 0.00559 0.0
H671 H 0.82078 0.62528 0.96835 0.0
H672 H 0.79633 0.6938 0.97359 0.0
H673 H 0.80828 0.70206 0.01082 0.0
H674 H 0.74832 0.68742 -0.00522 0.0
H675 H 0.61419 0.51256 0.01854 0.0
H676 H 0.64541 0.53556 0.06834 0.0
H677 H 0.79078 0.64772 0.05007 0.0
C678 C 0.71938 0.59508 0.93837 0.0
C679 C 0.67466 0.56427 0.92008 0.0
C680 C 0.63058 0.5317 0.93095 0.0
C681 C 0.63077 0.52947 0.95938 0.0
C682 C 0.67523 0.56036 0.97685 0.0
C683 C 0.71868 0.5929 0.96691 0.0
C684 C 0.76071 0.62364 -0.00943 0.0
C685 C 0.80341 0.61287 0.98739 0.0
C686 C 0.7795 0.68007 -0.00745 0.0
C687 C 0.73394 0.60327 0.01526 0.0
C688 C 0.68481 0.56644 0.00674 0.0
C689 C 0.65248 0.54171 0.02552 0.0
C690 C 0.67054 0.5554 0.05386 0.0
C691 C 0.72041 0.59409 0.06337 0.0
C692 C 0.75257 0.61786 0.04361 0.0
H693 H 0.25214 0.72386 0.26598 0.0
H694 H 0.17812 0.56117 0.24597 0.0
H695 H 0.177 0.5566 0.29632 0.0
H696 H 0.33034 0.74022 0.32641 0.0
H697 H 0.32488 0.79091 0.34459 0.0
H698 H 0.3195 0.78048 0.30722 0.0
H699 H 0.2331 0.77376 0.30466 0.0
H700 H 0.23826 0.78432 0.34201 0.0
H701 H 0.18498 0.72905 0.3222 0.0
H702 H 0.1854 0.57168 0.35008 0.0
H703 H 0.20145 0.60428 0.40063 0.0
H704 H 0.2675 0.75639 0.38314 0.0
C705 C 0.23573 0.68703 0.27195 0.0
C706 C 0.2154 0.64281 0.25187 0.0
C707 C 0.194 0.5956 0.26091 0.0
C708 C 0.19324 0.59268 0.28947 0.0
C709 C 0.21383 0.63728 0.30865 0.0
C710 C 0.2345 0.68349 0.30009 0.0
C711 C 0.25386 0.72611 0.32439 0.0
C712 C 0.3105 0.7615 0.32572 0.0
C713 C 0.22586 0.75499 0.32324 0.0
C714 C 0.24124 0.69694 0.34818 0.0
C715 C 0.21819 0.64576 0.33889 0.0
C716 C 0.20335 0.6117 0.35746 0.0
C717 C 0.21243 0.63054 0.38614 0.0
C718 C 0.23616 0.68299 0.39598 0.0
C719 C 0.2503 0.71622 0.37651 0.0
loop_
_geom_bond_atom_site_label_1
_geom_bond_atom_site_label_2
_geom_bond_distance
_geom_bond_site_symmetry_2
_ccdc_geom_bond_type
Eu0 C9 2.828 . S
Eu0 O11 2.392 1_655 S
Eu0 O13 2.418 . S
Eu0 O18 2.373 . S
Eu0 O21 2.488 . S
Eu0 O22 2.471 . S
Eu0 O23 2.349 1_655 S
Eu1 O10 2.373 . S
Eu1 O14 2.488 . S
Eu1 O15 2.471 . S
Eu1 O16 2.349 . S
Eu1 O19 2.392 1_455 S
Eu1 O20 2.418 . S
Eu1 C30 2.828 . S
C2 O20 1.244 . S
C2 O23 1.265 . S
C3 C4 1.379 . S
C3 C7 1.373 . S
C3 C9 1.505 . S
C4 C3 1.379 . S
C4 C6 1.369 . S
C4 H32 0.930 . S
C5 C7 1.383 . S
C5 C8 1.382 . S
C5 H33 0.930 . S
C6 C4 1.369 . S
C6 C8 1.392 . S
C6 H34 0.930 . S
C7 C3 1.373 . S
C7 C5 1.383 . S
C7 H35 0.931 . S
C8 C5 1.382 . S
C8 C6 1.392 . S
C9 Eu0 2.828 . S
C9 C3 1.505 . S
C9 O21 1.249 . S
C9 O22 1.244 . S
O10 Eu1 2.373 . S
O10 C12 1.258 . S
O11 Eu0 2.392 1_455 S
O11 C12 1.242 . S
C12 O10 1.258 . S
C12 O11 1.242 . S
O13 Eu0 2.418 . S
O13 C17 1.244 1_655 S
O14 Eu1 2.488 . S
O14 C30 1.249 . S
O15 Eu1 2.471 . S
O15 C30 1.244 . S
O16 Eu1 2.349 . S
O16 C17 1.265 . S
C17 O13 1.244 1_455 S
C17 O16 1.265 . S
O18 Eu0 2.373 . S
O18 C31 1.258 . S
O19 Eu1 2.392 1_655 S
O19 C31 1.242 . S
O20 Eu1 2.418 . S
O20 C2 1.244 . S
O21 Eu0 2.488 . S
O21 C9 1.249 . S
O22 Eu0 2.471 . S
O22 C9 1.244 . S
O23 Eu0 2.349 1_455 S
O23 C2 1.265 . S
C24 C25 1.379 . S
C24 C28 1.373 . S
C24 C30 1.505 . S
C25 C24 1.379 . S
C25 C27 1.369 . S
C25 H36 0.930 . S
C26 C28 1.383 . S
C26 C29 1.382 . S
C26 H37 0.930 . S
C27 C25 1.369 . S
C27 C29 1.392 . S
C27 H38 0.930 . S
C28 C24 1.373 . S
C28 C26 1.383 . S
C28 H39 0.931 . S
C29 C26 1.382 . S
C29 C27 1.392 . S
C30 Eu1 2.828 . S
C30 O14 1.249 . S
C30 O15 1.244 . S
C30 C24 1.505 . S
C31 O18 1.258 . S
C31 O19 1.242 . S
H32 C4 0.930 . S
H33 C5 0.930 . S
H34 C6 0.930 . S
H35 C7 0.931 . S
H36 C25 0.930 . S
H37 C26 0.930 . S
H38 C27 0.930 . S
H39 C28 0.931 . S
Eu40 C49 2.828 1_545 S
Eu40 O51 2.392 . S
Eu40 O53 2.418 . S
Eu40 O58 2.373 1_545 S
Eu40 O61 2.488 1_545 S
Eu40 O62 2.471 1_545 S
Eu40 O63 2.349 . S
Eu41 O50 2.373 . S
Eu41 O54 2.488 . S
Eu41 O55 2.471 . S
Eu41 O56 2.349 . S
Eu41 O59 2.392 1_545 S
Eu41 O60 2.418 . S
Eu41 C70 2.828 . S
C42 O60 1.244 . S
C42 O63 1.265 . S
C43 C44 1.379 . S
C43 C47 1.373 . S
C43 C49 1.505 . S
C44 C43 1.379 . S
C44 C46 1.369 . S
C44 H72 0.930 . S
C45 C47 1.383 . S
C45 C48 1.382 . S
C45 H73 0.930 . S
C46 C44 1.369 . S
C46 C48 1.392 . S
C46 H74 0.930 . S
C47 C43 1.373 . S
C47 C45 1.383 . S
C47 H75 0.931 . S
C48 C45 1.382 . S
C48 C46 1.392 . S
C49 Eu40 2.828 1_565 S
C49 C43 1.505 . S
C49 O61 1.249 . S
C49 O62 1.244 . S
O50 Eu41 2.373 . S
O50 C52 1.258 . S
O51 Eu40 2.392 . S
O51 C52 1.242 . S
C52 O50 1.258 . S
C52 O51 1.242 . S
O53 Eu40 2.418 . S
O53 C57 1.244 . S
O54 Eu41 2.488 . S
O54 C70 1.249 . S
O55 Eu41 2.471 . S
O55 C70 1.244 . S
O56 Eu41 2.349 . S
O56 C57 1.265 . S
C57 O53 1.244 . S
C57 O56 1.265 . S
O58 Eu40 2.373 1_565 S
O58 C71 1.258 . S
O59 Eu41 2.392 1_565 S
O59 C71 1.242 . S
O60 Eu41 2.418 . S
O60 C42 1.244 . S
O61 Eu40 2.488 1_565 S
O61 C49 1.249 . S
O62 Eu40 2.471 1_565 S
O62 C49 1.244 . S
O63 Eu40 2.349 . S
O63 C42 1.265 . S
C64 C65 1.379 . S
C64 C68 1.373 . S
C64 C70 1.505 . S
C65 C64 1.379 . S
C65 C67 1.369 . S
C65 H76 0.930 . S
C66 C68 1.383 . S
C66 C69 1.382 . S
C66 H77 0.930 . S
C67 C65 1.369 . S
C67 C69 1.392 . S
C67 H78 0.930 . S
C68 C64 1.373 . S
C68 C66 1.383 . S
C68 H79 0.931 . S
C69 C66 1.382 . S
C69 C67 1.392 . S
C70 Eu41 2.828 . S
C70 O54 1.249 . S
C70 O55 1.244 . S
C70 C64 1.505 . S
C71 O58 1.258 . S
C71 O59 1.242 . S
H72 C44 0.930 . S
H73 C45 0.930 . S
H74 C46 0.930 . S
H75 C47 0.931 . S
H76 C65 0.930 . S
H77 C66 0.930 . S
H78 C67 0.930 . S
H79 C68 0.931 . S
Eu80 C89 2.828 . S
Eu80 O91 2.392 . S
Eu80 O93 2.418 . S
Eu80 O98 2.373 . S
Eu80 O101 2.488 . S
Eu80 O102 2.471 . S
Eu80 O103 2.349 . S
Eu81 O90 2.373 . S
Eu81 O94 2.488 . S
Eu81 O95 2.471 . S
Eu81 O96 2.349 . S
Eu81 O99 2.392 . S
Eu81 O100 2.418 . S
Eu81 C110 2.828 . S
C82 O100 1.244 . S
C82 O103 1.265 . S
C83 C84 1.379 . S
C83 C87 1.373 . S
C83 C89 1.505 . S
C84 C83 1.379 . S
C84 C86 1.369 . S
C84 H112 0.930 . S
C85 C87 1.383 . S
C85 C88 1.382 . S
C85 H113 0.930 . S
C86 C84 1.369 . S
C86 C88 1.392 . S
C86 H114 0.930 . S
C87 C83 1.373 . S
C87 C85 1.383 . S
C87 H115 0.931 . S
C88 C85 1.382 . S
C88 C86 1.392 . S
C89 Eu80 2.828 . S
C89 C83 1.505 . S
C89 O101 1.249 . S
C89 O102 1.244 . S
O90 Eu81 2.373 . S
O90 C92 1.258 . S
O91 Eu80 2.392 . S
O91 C92 1.242 . S
C92 O90 1.258 . S
C92 O91 1.242 . S
O93 Eu80 2.418 . S
O93 C97 1.244 . S
O94 Eu81 2.488 . S
O94 C110 1.249 . S
O95 Eu81 2.471 . S
O95 C110 1.244 . S
O96 Eu81 2.349 . S
O96 C97 1.265 . S
C97 O93 1.244 . S
C97 O96 1.265 . S
O98 Eu80 2.373 . S
O98 C111 1.258 . S
O99 Eu81 2.392 . S
O99 C111 1.242 . S
O100 Eu81 2.418 . S
O100 C82 1.244 . S
O101 Eu80 2.488 . S
O101 C89 1.249 . S
O102 Eu80 2.471 . S
O102 C89 1.244 . S
O103 Eu80 2.349 . S
O103 C82 1.265 . S
C104 C105 1.379 . S
C104 C108 1.373 . S
C104 C110 1.505 . S
C105 C104 1.379 . S
C105 C107 1.369 . S
C105 H116 0.930 . S
C106 C108 1.383 . S
C106 C109 1.382 . S
C106 H117 0.930 . S
C107 C105 1.369 . S
C107 C109 1.392 . S
C107 H118 0.930 . S
C108 C104 1.373 . S
C108 C106 1.383 . S
C108 H119 0.931 . S
C109 C106 1.382 . S
C109 C107 1.392 . S
C110 Eu81 2.828 . S
C110 O94 1.249 . S
C110 O95 1.244 . S
C110 C104 1.505 . S
C111 O98 1.258 . S
C111 O99 1.242 . S
H112 C84 0.930 . S
H113 C85 0.930 . S
H114 C86 0.930 . S
H115 C87 0.931 . S
H116 C105 0.930 . S
H117 C106 0.930 . S
H118 C107 0.930 . S
H119 C108 0.931 . S
H120 C121 0.949 . S
C121 H120 0.949 . S
C121 C122 1.395 . S
C121 C123 1.391 . S
C122 C121 1.395 . S
C122 C125 1.390 . S
C123 C121 1.391 . S
C123 C127 1.387 . S
C123 C128 1.491 . S
H124 C125 0.950 1_565 S
C125 C122 1.390 . S
C125 H124 0.950 1_545 S
C125 C126 1.378 1_545 S
C126 C125 1.378 1_565 S
C126 C127 1.409 1_565 S
C127 C123 1.387 . S
C127 C126 1.409 1_545 S
C127 H129 0.951 . S
C128 C123 1.491 . S
C128 C130 1.382 . S
C128 C132 1.404 . S
H129 C127 0.951 . S
C130 C128 1.382 . S
C130 C131 1.390 . S
C130 H135 0.949 . S
C131 C130 1.390 . S
C131 C136 1.399 . S
C132 C128 1.404 . S
C132 H133 0.950 . S
C132 C134 1.375 . S
H133 C132 0.950 . S
C134 C132 1.375 . S
C134 C136 1.382 . S
C134 H138 0.950 . S
H135 C130 0.949 . S
C136 C131 1.399 . S
C136 C134 1.382 . S
C136 H137 0.952 . S
H137 C136 0.952 . S
H138 C134 0.950 . S
H139 C140 0.949 . S
C140 H139 0.949 . S
C140 C141 1.395 . S
C140 C142 1.391 . S
C141 C140 1.395 . S
C141 C144 1.390 . S
C142 C140 1.391 . S
C142 C146 1.387 . S
C142 C147 1.491 . S
H143 C144 0.950 . S
C144 C141 1.390 . S
C144 H143 0.950 . S
C144 C145 1.378 . S
C145 C144 1.378 . S
C145 C146 1.409 . S
C146 C142 1.387 . S
C146 C145 1.409 . S
C146 H148 0.951 . S
C147 C142 1.491 . S
C147 C149 1.382 . S
C147 C151 1.404 . S
H148 C146 0.951 . S
C149 C147 1.382 . S
C149 C150 1.390 . S
C149 H154 0.949 . S
C150 C149 1.390 . S
C150 C155 1.399 . S
C151 C147 1.404 . S
C151 H152 0.950 . S
C151 C153 1.375 . S
H152 C151 0.950 . S
C153 C151 1.375 . S
C153 C155 1.382 . S
C153 H157 0.950 . S
H154 C149 0.949 . S
C155 C150 1.399 . S
C155 C153 1.382 . S
C155 H156 0.952 . S
H156 C155 0.952 . S
H157 C153 0.950 . S
H158 C159 0.949 . S
C159 H158 0.949 . S
C159 C160 1.395 . S
C159 C161 1.391 . S
C160 C159 1.395 . S
C160 C163 1.390 . S
C161 C159 1.391 . S
C161 C165 1.387 . S
C161 C166 1.491 . S
H162 C163 0.950 1_655 S
C163 C160 1.390 . S
C163 H162 0.950 1_455 S
C163 C164 1.378 1_455 S
C164 C163 1.378 1_655 S
C164 C165 1.409 1_655 S
C165 C161 1.387 . S
C165 C164 1.409 1_455 S
C165 H167 0.951 . S
C166 C161 1.491 . S
C166 C168 1.382 . S
C166 C170 1.404 . S
H167 C165 0.951 . S
C168 C166 1.382 . S
C168 C169 1.390 . S
C168 H173 0.949 . S
C169 C168 1.390 . S
C169 C174 1.399 . S
C170 C166 1.404 . S
C170 H171 0.950 . S
C170 C172 1.375 . S
H171 C170 0.950 . S
C172 C170 1.375 . S
C172 C174 1.382 . S
C172 H176 0.950 . S
H173 C168 0.949 . S
C174 C169 1.399 . S
C174 C172 1.382 . S
C174 H175 0.952 . S
H175 C174 0.952 . S
H176 C172 0.950 . S
H177 C178 0.949 1_655 S
C178 H177 0.949 1_455 S
C178 C179 1.395 . S
C178 C180 1.391 . S
C179 C178 1.395 . S
C179 C182 1.390 . S
C180 C178 1.391 . S
C180 C184 1.387 . S
C180 C185 1.491 1_455 S
H181 C182 0.950 . S
C182 C179 1.390 . S
C182 H181 0.950 . S
C182 C183 1.378 . S
C183 C182 1.378 . S
C183 C184 1.409 . S
C184 C180 1.387 . S
C184 C183 1.409 . S
C184 H186 0.951 . S
C185 C180 1.491 1_655 S
C185 C187 1.382 . S
C185 C189 1.404 . S
H186 C184 0.951 . S
C187 C185 1.382 . S
C187 C188 1.390 . S
C187 H192 0.949 . S
C188 C187 1.390 . S
C188 C193 1.399 . S
C189 C185 1.404 . S
C189 H190 0.950 . S
C189 C191 1.375 . S
H190 C189 0.950 . S
C191 C189 1.375 . S
C191 C193 1.382 . S
C191 H195 0.950 . S
H192 C187 0.949 . S
C193 C188 1.399 . S
C193 C191 1.382 . S
C193 H194 0.952 . S
H194 C193 0.952 . S
H195 C191 0.950 . S
H196 C197 0.949 . S
C197 H196 0.949 . S
C197 C198 1.395 . S
C197 C199 1.391 . S
C198 C197 1.395 . S
C198 C201 1.390 . S
C199 C197 1.391 . S
C199 C203 1.387 . S
C199 C204 1.491 . S
H200 C201 0.950 . S
C201 C198 1.390 . S
C201 H200 0.950 . S
C201 C202 1.378 . S
C202 C201 1.378 . S
C202 C203 1.409 . S
C203 C199 1.387 . S
C203 C202 1.409 . S
C203 H205 0.951 . S
C204 C199 1.491 . S
C204 C206 1.382 1_545 S
C204 C208 1.404 1_545 S
H205 C203 0.951 . S
C206 C204 1.382 1_565 S
C206 C207 1.390 . S
C206 H211 0.949 . S
C207 C206 1.390 . S
C207 C212 1.399 . S
C208 C204 1.404 1_565 S
C208 H209 0.950 1_565 S
C208 C210 1.375 . S
H209 C208 0.950 1_545 S
C210 C208 1.375 . S
C210 C212 1.382 . S
C210 H214 0.950 . S
H211 C206 0.949 . S
C212 C207 1.399 . S
C212 C210 1.382 . S
C212 H213 0.952 . S
H213 C212 0.952 . S
H214 C210 0.950 . S
H215 C216 0.949 . S
C216 H215 0.949 . S
C216 C217 1.395 . S
C216 C218 1.391 . S
C217 C216 1.395 . S
C217 C220 1.390 . S
C218 C216 1.391 . S
C218 C222 1.387 . S
C218 C223 1.491 . S
H219 C220 0.950 . S
C220 C217 1.390 . S
C220 H219 0.950 . S
C220 C221 1.378 . S
C221 C220 1.378 . S
C221 C222 1.409 . S
C222 C218 1.387 . S
C222 C221 1.409 . S
C222 H224 0.951 . S
C223 C218 1.491 . S
C223 C225 1.382 . S
C223 C227 1.404 . S
H224 C222 0.951 . S
C225 C223 1.382 . S
C225 C226 1.390 . S
C225 H230 0.949 . S
C226 C225 1.390 . S
C226 C231 1.399 . S
C227 C223 1.404 . S
C227 H228 0.950 . S
C227 C229 1.375 . S
H228 C227 0.950 . S
C229 C227 1.375 . S
C229 C231 1.382 . S
C229 H233 0.950 . S
H230 C225 0.949 . S
C231 C226 1.399 . S
C231 C229 1.382 . S
C231 H232 0.952 . S
H232 C231 0.952 . S
H233 C229 0.950 . S
H234 C246 0.930 . S
H235 C248 0.930 . S
H236 C249 0.930 . S
H237 C253 0.959 . S
H238 C253 0.959 . S
H239 C253 0.961 . S
H240 C254 0.960 . S
H241 C254 0.961 . S
H242 C254 0.959 . S
H243 C257 0.929 . S
H244 C258 0.931 . S
H245 C260 0.930 . S
C246 H234 0.930 . S
C246 C247 1.399 . S
C246 C251 1.399 . S
C247 C246 1.399 . S
C247 C248 1.376 . S
C248 H235 0.930 . S
C248 C247 1.376 . S
C248 C249 1.388 . S
C249 H236 0.930 . S
C249 C248 1.388 . S
C249 C250 1.390 . S
C250 C249 1.390 . S
C250 C251 1.394 . S
C250 C256 1.465 . S
C251 C246 1.399 . S
C251 C250 1.394 . S
C251 C252 1.516 . S
C252 C251 1.516 . S
C252 C253 1.502 . S
C252 C254 1.561 . S
C252 C255 1.526 . S
C253 H237 0.959 . S
C253 H238 0.959 . S
C253 H239 0.961 . S
C253 C252 1.502 . S
C254 H240 0.960 . S
C254 H241 0.961 . S
C254 H242 0.959 . S
C254 C252 1.561 . S
C255 C252 1.526 . S
C255 C256 1.396 . S
C255 C260 1.390 . S
C256 C250 1.465 . S
C256 C255 1.396 . S
C256 C257 1.399 . S
C257 H243 0.929 . S
C257 C256 1.399 . S
C257 C258 1.385 . S
C258 H244 0.931 . S
C258 C257 1.385 . S
C258 C259 1.389 . S
C259 C258 1.389 . S
C259 C260 1.387 . S
C260 H245 0.930 . S
C260 C255 1.390 . S
C260 C259 1.387 . S
H261 C273 0.930 . S
H262 C275 0.930 . S
H263 C276 0.930 . S
H264 C280 0.959 . S
H265 C280 0.959 . S
H266 C280 0.961 . S
H267 C281 0.960 . S
H268 C281 0.961 . S
H269 C281 0.959 . S
H270 C284 0.929 . S
H271 C285 0.931 . S
H272 C287 0.930 . S
C273 H261 0.930 . S
C273 C274 1.399 . S
C273 C278 1.399 . S
C274 C273 1.399 . S
C274 C275 1.376 . S
C275 H262 0.930 . S
C275 C274 1.376 . S
C275 C276 1.388 . S
C276 H263 0.930 . S
C276 C275 1.388 . S
C276 C277 1.390 . S
C277 C276 1.390 . S
C277 C278 1.394 . S
C277 C283 1.465 . S
C278 C273 1.399 . S
C278 C277 1.394 . S
C278 C279 1.516 . S
C279 C278 1.516 . S
C279 C280 1.502 . S
C279 C281 1.561 . S
C279 C282 1.526 . S
C280 H264 0.959 . S
C280 H265 0.959 . S
C280 H266 0.961 . S
C280 C279 1.502 . S
C281 H267 0.960 . S
C281 H268 0.961 . S
C281 H269 0.959 . S
C281 C279 1.561 . S
C282 C279 1.526 . S
C282 C283 1.396 . S
C282 C287 1.390 . S
C283 C277 1.465 . S
C283 C282 1.396 . S
C283 C284 1.399 . S
C284 H270 0.929 . S
C284 C283 1.399 . S
C284 C285 1.385 . S
C285 H271 0.931 . S
C285 C284 1.385 . S
C285 C286 1.389 . S
C286 C285 1.389 . S
C286 C287 1.387 . S
C287 H272 0.930 . S
C287 C282 1.390 . S
C287 C286 1.387 . S
H288 C300 0.930 . S
H289 C302 0.930 . S
H290 C303 0.930 . S
H291 C307 0.959 . S
H292 C307 0.959 . S
H293 C307 0.961 . S
H294 C308 0.960 . S
H295 C308 0.961 . S
H296 C308 0.959 . S
H297 C311 0.929 . S
H298 C312 0.931 . S
H299 C314 0.930 . S
C300 H288 0.930 . S
C300 C301 1.399 . S
C300 C305 1.399 . S
C301 C300 1.399 . S
C301 C302 1.376 . S
C302 H289 0.930 . S
C302 C301 1.376 . S
C302 C303 1.388 . S
C303 H290 0.930 . S
C303 C302 1.388 . S
C303 C304 1.390 . S
C304 C303 1.390 . S
C304 C305 1.394 . S
C304 C310 1.465 . S
C305 C300 1.399 . S
C305 C304 1.394 . S
C305 C306 1.516 . S
C306 C305 1.516 . S
C306 C307 1.502 . S
C306 C308 1.561 . S
C306 C309 1.526 . S
C307 H291 0.959 . S
C307 H292 0.959 . S
C307 H293 0.961 . S
C307 C306 1.502 . S
C308 H294 0.960 . S
C308 H295 0.961 . S
C308 H296 0.959 . S
C308 C306 1.561 . S
C309 C306 1.526 . S
C309 C310 1.396 . S
C309 C314 1.390 . S
C310 C304 1.465 . S
C310 C309 1.396 . S
C310 C311 1.399 . S
C311 H297 0.929 . S
C311 C310 1.399 . S
C311 C312 1.385 . S
C312 H298 0.931 . S
C312 C311 1.385 . S
C312 C313 1.389 . S
C313 C312 1.389 . S
C313 C314 1.387 . S
C314 H299 0.930 . S
C314 C309 1.390 . S
C314 C313 1.387 . S
H315 C327 0.930 . S
H316 C329 0.930 . S
H317 C330 0.930 . S
H318 C334 0.959 . S
H319 C334 0.959 . S
H320 C334 0.961 . S
H321 C335 0.960 . S
H322 C335 0.961 . S
H323 C335 0.959 . S
H324 C338 0.929 . S
H325 C339 0.931 . S
H326 C341 0.930 . S
C327 H315 0.930 . S
C327 C328 1.399 . S
C327 C332 1.399 . S
C328 C327 1.399 . S
C328 C329 1.376 . S
C329 H316 0.930 . S
C329 C328 1.376 . S
C329 C330 1.388 . S
C330 H317 0.930 . S
C330 C329 1.388 . S
C330 C331 1.390 . S
C331 C330 1.390 . S
C331 C332 1.394 . S
C331 C337 1.465 . S
C332 C327 1.399 . S
C332 C331 1.394 . S
C332 C333 1.516 . S
C333 C332 1.516 . S
C333 C334 1.502 . S
C333 C335 1.561 . S
C333 C336 1.526 . S
C334 H318 0.959 . S
C334 H319 0.959 . S
C334 H320 0.961 . S
C334 C333 1.502 . S
C335 H321 0.960 . S
C335 H322 0.961 . S
C335 H323 0.959 . S
C335 C333 1.561 . S
C336 C333 1.526 . S
C336 C337 1.396 . S
C336 C341 1.390 . S
C337 C331 1.465 . S
C337 C336 1.396 . S
C337 C338 1.399 . S
C338 H324 0.929 . S
C338 C337 1.399 . S
C338 C339 1.385 . S
C339 H325 0.931 . S
C339 C338 1.385 . S
C339 C340 1.389 . S
C340 C339 1.389 . S
C340 C341 1.387 . S
C341 H326 0.930 . S
C341 C336 1.390 . S
C341 C340 1.387 . S
H342 C354 0.930 . S
H343 C356 0.930 . S
H344 C357 0.930 . S
H345 C361 0.959 . S
H346 C361 0.959 . S
H347 C361 0.961 . S
H348 C362 0.960 . S
H349 C362 0.961 . S
H350 C362 0.959 . S
H351 C365 0.929 . S
H352 C366 0.931 . S
H353 C368 0.930 . S
C354 H342 0.930 . S
C354 C355 1.399 . S
C354 C359 1.399 . S
C355 C354 1.399 . S
C355 C356 1.376 . S
C356 H343 0.930 . S
C356 C355 1.376 . S
C356 C357 1.388 . S
C357 H344 0.930 . S
C357 C356 1.388 . S
C357 C358 1.390 . S
C358 C357 1.390 . S
C358 C359 1.394 . S
C358 C364 1.465 . S
C359 C354 1.399 . S
C359 C358 1.394 . S
C359 C360 1.516 . S
C360 C359 1.516 . S
C360 C361 1.502 . S
C360 C362 1.561 . S
C360 C363 1.526 . S
C361 H345 0.959 . S
C361 H346 0.959 . S
C361 H347 0.961 . S
C361 C360 1.502 . S
C362 H348 0.960 . S
C362 H349 0.961 . S
C362 H350 0.959 . S
C362 C360 1.561 . S
C363 C360 1.526 . S
C363 C364 1.396 . S
C363 C368 1.390 . S
C364 C358 1.465 . S
C364 C363 1.396 . S
C364 C365 1.399 . S
C365 H351 0.929 . S
C365 C364 1.399 . S
C365 C366 1.385 . S
C366 H352 0.931 . S
C366 C365 1.385 . S
C366 C367 1.389 . S
C367 C366 1.389 . S
C367 C368 1.387 . S
C368 H353 0.930 . S
C368 C363 1.390 . S
C368 C367 1.387 . S
H369 C381 0.930 . S
H370 C383 0.930 . S
H371 C384 0.930 . S
H372 C388 0.959 . S
H373 C388 0.959 . S
H374 C388 0.961 . S
H375 C389 0.960 . S
H376 C389 0.961 . S
H377 C389 0.959 . S
H378 C392 0.929 . S
H379 C393 0.931 . S
H380 C395 0.930 . S
C381 H369 0.930 . S
C381 C382 1.399 . S
C381 C386 1.399 . S
C382 C381 1.399 . S
C382 C383 1.376 . S
C383 H370 0.930 . S
C383 C382 1.376 . S
C383 C384 1.388 . S
C384 H371 0.930 . S
C384 C383 1.388 . S
C384 C385 1.390 . S
C385 C384 1.390 . S
C385 C386 1.394 . S
C385 C391 1.465 . S
C386 C381 1.399 . S
C386 C385 1.394 . S
C386 C387 1.516 . S
C387 C386 1.516 . S
C387 C388 1.502 . S
C387 C389 1.561 . S
C387 C390 1.526 . S
C388 H372 0.959 . S
C388 H373 0.959 . S
C388 H374 0.961 . S
C388 C387 1.502 . S
C389 H375 0.960 . S
C389 H376 0.961 . S
C389 H377 0.959 . S
C389 C387 1.561 . S
C390 C387 1.526 . S
C390 C391 1.396 . S
C390 C395 1.390 . S
C391 C385 1.465 . S
C391 C390 1.396 . S
C391 C392 1.399 . S
C392 H378 0.929 . S
C392 C391 1.399 . S
C392 C393 1.385 . S
C393 H379 0.931 . S
C393 C392 1.385 . S
C393 C394 1.389 . S
C394 C393 1.389 . S
C394 C395 1.387 . S
C395 H380 0.930 . S
C395 C390 1.390 . S
C395 C394 1.387 . S
H396 C408 0.930 . S
H397 C410 0.930 . S
H398 C411 0.930 . S
H399 C415 0.959 . S
H400 C415 0.959 . S
H401 C415 0.961 . S
H402 C416 0.960 . S
H403 C416 0.961 . S
H404 C416 0.959 . S
H405 C419 0.929 . S
H406 C420 0.931 . S
H407 C422 0.930 . S
C408 H396 0.930 . S
C408 C409 1.399 . S
C408 C413 1.399 . S
C409 C408 1.399 . S
C409 C410 1.376 . S
C410 H397 0.930 . S
C410 C409 1.376 . S
C410 C411 1.388 . S
C411 H398 0.930 . S
C411 C410 1.388 . S
C411 C412 1.390 . S
C412 C411 1.390 . S
C412 C413 1.394 . S
C412 C418 1.465 . S
C413 C408 1.399 . S
C413 C412 1.394 . S
C413 C414 1.516 . S
C414 C413 1.516 . S
C414 C415 1.502 . S
C414 C416 1.561 . S
C414 C417 1.526 . S
C415 H399 0.959 . S
C415 H400 0.959 . S
C415 H401 0.961 . S
C415 C414 1.502 . S
C416 H402 0.960 . S
C416 H403 0.961 . S
C416 H404 0.959 . S
C416 C414 1.561 . S
C417 C414 1.526 . S
C417 C418 1.396 . S
C417 C422 1.390 . S
C418 C412 1.465 . S
C418 C417 1.396 . S
C418 C419 1.399 . S
C419 H405 0.929 . S
C419 C418 1.399 . S
C419 C420 1.385 . S
C420 H406 0.931 . S
C420 C419 1.385 . S
C420 C421 1.389 . S
C421 C420 1.389 . S
C421 C422 1.387 . S
C422 H407 0.930 . S
C422 C417 1.390 . S
C422 C421 1.387 . S
H423 C435 0.930 . S
H424 C437 0.930 . S
H425 C438 0.930 . S
H426 C442 0.959 . S
H427 C442 0.959 . S
H428 C442 0.961 . S
H429 C443 0.960 . S
H430 C443 0.961 . S
H431 C443 0.959 . S
H432 C446 0.929 . S
H433 C447 0.931 . S
H434 C449 0.930 1_455 S
C435 H423 0.930 . S
C435 C436 1.399 . S
C435 C440 1.399 . S
C436 C435 1.399 . S
C436 C437 1.376 . S
C437 H424 0.930 . S
C437 C436 1.376 . S
C437 C438 1.388 . S
C438 H425 0.930 . S
C438 C437 1.388 . S
C438 C439 1.390 . S
C439 C438 1.390 . S
C439 C440 1.394 . S
C439 C445 1.465 . S
C440 C435 1.399 . S
C440 C439 1.394 . S
C440 C441 1.516 . S
C441 C440 1.516 . S
C441 C442 1.502 . S
C441 C443 1.561 . S
C441 C444 1.526 . S
C442 H426 0.959 . S
C442 H427 0.959 . S
C442 H428 0.961 . S
C442 C441 1.502 . S
C443 H429 0.960 . S
C443 H430 0.961 . S
C443 H431 0.959 . S
C443 C441 1.561 . S
C444 C441 1.526 . S
C444 C445 1.396 . S
C444 C449 1.390 . S
C445 C439 1.465 . S
C445 C444 1.396 . S
C445 C446 1.399 . S
C446 H432 0.929 . S
C446 C445 1.399 . S
C446 C447 1.385 . S
C447 H433 0.931 . S
C447 C446 1.385 . S
C447 C448 1.389 . S
C448 C447 1.389 . S
C448 C449 1.387 . S
C449 H434 0.930 1_655 S
C449 C444 1.390 . S
C449 C448 1.387 . S
H450 C462 0.930 . S
H451 C464 0.930 . S
H452 C465 0.930 . S
H453 C469 0.959 . S
H454 C469 0.959 . S
H455 C469 0.961 . S
H456 C470 0.960 . S
H457 C470 0.961 . S
H458 C470 0.959 . S
H459 C473 0.929 . S
H460 C474 0.931 . S
H461 C476 0.935 . S
C462 H450 0.930 . S
C462 C463 1.399 . S
C462 C467 1.399 . S
C463 C462 1.399 . S
C463 C464 1.376 . S
C464 H451 0.930 . S
C464 C463 1.376 . S
C464 C465 1.388 . S
C465 H452 0.930 . S
C465 C464 1.388 . S
C465 C466 1.390 . S
C466 C465 1.390 . S
C466 C467 1.394 . S
C466 C472 1.465 . S
C467 C462 1.399 . S
C467 C466 1.394 . S
C467 C468 1.516 . S
C468 C467 1.516 . S
C468 C469 1.502 . S
C468 C470 1.561 . S
C468 C471 1.526 . S
C469 H453 0.959 . S
C469 H454 0.959 . S
C469 H455 0.961 . S
C469 C468 1.502 . S
C470 H456 0.960 . S
C470 H457 0.961 . S
C470 H458 0.959 . S
C470 C468 1.561 . S
C471 C468 1.526 . S
C471 C472 1.396 . S
C471 C476 1.390 . S
C472 C466 1.465 . S
C472 C471 1.396 . S
C472 C473 1.399 . S
C473 H459 0.929 . S
C473 C472 1.399 . S
C473 C474 1.385 . S
C474 H460 0.931 . S
C474 C473 1.385 . S
C474 C475 1.389 . S
C475 C474 1.389 . S
C475 C476 1.387 . S
C476 H461 0.935 . S
C476 C471 1.390 . S
C476 C475 1.387 . S
H477 C489 0.930 . S
H478 C491 0.930 . S
H479 C492 0.930 . S
H480 C496 0.959 . S
H481 C496 0.959 . S
H482 C496 0.961 . S
H483 C497 0.960 . S
H484 C497 0.961 . S
H485 C497 0.959 . S
H486 C500 0.929 . S
H487 C501 0.931 . S
H488 C503 0.930 . S
C489 H477 0.930 . S
C489 C490 1.399 . S
C489 C494 1.399 . S
C490 C489 1.399 . S
C490 C491 1.376 . S
C491 H478 0.930 . S
C491 C490 1.376 . S
C491 C492 1.388 . S
C492 H479 0.930 . S
C492 C491 1.388 . S
C492 C493 1.390 . S
C493 C492 1.390 . S
C493 C494 1.394 . S
C493 C499 1.465 . S
C494 C489 1.399 . S
C494 C493 1.394 . S
C494 C495 1.516 . S
C495 C494 1.516 . S
C495 C496 1.502 . S
C495 C497 1.561 . S
C495 C498 1.526 . S
C496 H480 0.959 . S
C496 H481 0.959 . S
C496 H482 0.961 . S
C496 C495 1.502 . S
C497 H483 0.960 . S
C497 H484 0.961 . S
C497 H485 0.959 . S
C497 C495 1.561 . S
C498 C495 1.526 . S
C498 C499 1.396 . S
C498 C503 1.390 . S
C499 C493 1.465 . S
C499 C498 1.396 . S
C499 C500 1.399 . S
C500 H486 0.929 . S
C500 C499 1.399 . S
C500 C501 1.385 . S
C501 H487 0.931 . S
C501 C500 1.385 . S
C501 C502 1.389 . S
C502 C501 1.389 . S
C502 C503 1.387 . S
C503 H488 0.930 . S
C503 C498 1.390 . S
C503 C502 1.387 . S
H504 C516 0.930 . S
H505 C518 0.930 . S
H506 C519 0.930 . S
H507 C523 0.959 . S
H508 C523 0.959 . S
H509 C523 0.961 . S
H510 C524 0.960 . S
H511 C524 0.961 . S
H512 C524 0.959 . S
H513 C527 0.929 . S
H514 C528 0.931 . S
H515 C530 0.930 . S
C516 H504 0.930 . S
C516 C517 1.399 . S
C516 C521 1.399 . S
C517 C516 1.399 . S
C517 C518 1.376 . S
C518 H505 0.930 . S
C518 C517 1.376 . S
C518 C519 1.388 . S
C519 H506 0.930 . S
C519 C518 1.388 . S
C519 C520 1.390 . S
C520 C519 1.390 . S
C520 C521 1.394 . S
C520 C526 1.465 . S
C521 C516 1.399 . S
C521 C520 1.394 . S
C521 C522 1.516 . S
C522 C521 1.516 . S
C522 C523 1.502 . S
C522 C524 1.561 . S
C522 C525 1.526 . S
C523 H507 0.959 . S
C523 H508 0.959 . S
C523 H509 0.961 . S
C523 C522 1.502 . S
C524 H510 0.960 . S
C524 H511 0.961 . S
C524 H512 0.959 . S
C524 C522 1.561 . S
C525 C522 1.526 . S
C525 C526 1.396 . S
C525 C530 1.390 . S
C526 C520 1.465 . S
C526 C525 1.396 . S
C526 C527 1.399 . S
C527 H513 0.929 . S
C527 C526 1.399 . S
C527 C528 1.385 . S
C528 H514 0.931 . S
C528 C527 1.385 . S
C528 C529 1.389 . S
C529 C528 1.389 . S
C529 C530 1.387 . S
C530 H515 0.930 . S
C530 C525 1.390 . S
C530 C529 1.387 . S
H531 C543 0.930 . S
H532 C545 0.930 . S
H533 C546 0.930 . S
H534 C550 0.959 . S
H535 C550 0.959 . S
H536 C550 0.961 . S
H537 C551 0.960 . S
H538 C551 0.961 . S
H539 C551 0.959 . S
H540 C554 0.929 . S
H541 C555 0.931 . S
H542 C557 0.930 . S
C543 H531 0.930 . S
C543 C544 1.399 . S
C543 C548 1.399 . S
C544 C543 1.399 . S
C544 C545 1.376 . S
C545 H532 0.930 . S
C545 C544 1.376 . S
C545 C546 1.388 . S
C546 H533 0.930 . S
C546 C545 1.388 . S
C546 C547 1.390 . S
C547 C546 1.390 . S
C547 C548 1.394 . S
C547 C553 1.465 . S
C548 C543 1.399 . S
C548 C547 1.394 . S
C548 C549 1.516 . S
C549 C548 1.516 . S
C549 C550 1.502 . S
C549 C551 1.561 . S
C549 C552 1.526 . S
C550 H534 0.959 . S
C550 H535 0.959 . S
C550 H536 0.961 . S
C550 C549 1.502 . S
C551 H537 0.960 . S
C551 H538 0.961 . S
C551 H539 0.959 . S
C551 C549 1.561 . S
C552 C549 1.526 . S
C552 C553 1.396 . S
C552 C557 1.390 . S
C553 C547 1.465 . S
C553 C552 1.396 . S
C553 C554 1.399 . S
C554 H540 0.929 . S
C554 C553 1.399 . S
C554 C555 1.385 . S
C555 H541 0.931 . S
C555 C554 1.385 . S
C555 C556 1.389 . S
C556 C555 1.389 . S
C556 C557 1.387 . S
C557 H542 0.930 . S
C557 C552 1.390 . S
C557 C556 1.387 . S
H558 C570 0.930 . S
H559 C572 0.930 . S
H560 C573 0.930 . S
H561 C577 0.959 . S
H562 C577 0.959 . S
H563 C577 0.961 . S
H564 C578 0.960 . S
H565 C578 0.961 1_556 S
H566 C578 0.959 . S
H567 C581 0.929 . S
H568 C582 0.931 . S
H569 C584 0.930 . S
C570 H558 0.930 . S
C570 C571 1.399 . S
C570 C575 1.399 . S
C571 C570 1.399 . S
C571 C572 1.376 . S
C572 H559 0.930 . S
C572 C571 1.376 . S
C572 C573 1.388 . S
C573 H560 0.930 . S
C573 C572 1.388 . S
C573 C574 1.390 . S
C574 C573 1.390 . S
C574 C575 1.394 . S
C574 C580 1.465 1_554 S
C575 C570 1.399 . S
C575 C574 1.394 . S
C575 C576 1.516 . S
C576 C575 1.516 . S
C576 C577 1.502 . S
C576 C578 1.561 1_455 S
C576 C579 1.526 1_554 S
C577 H561 0.959 . S
C577 H562 0.959 . S
C577 H563 0.961 . S
C577 C576 1.502 . S
C578 H564 0.960 . S
C578 H565 0.961 1_554 S
C578 H566 0.959 . S
C578 C576 1.561 1_655 S
C579 C576 1.526 1_556 S
C579 C580 1.396 . S
C579 C584 1.390 . S
C580 C574 1.465 1_556 S
C580 C579 1.396 . S
C580 C581 1.399 . S
C581 H567 0.929 . S
C581 C580 1.399 . S
C581 C582 1.385 . S
C582 H568 0.931 . S
C582 C581 1.385 . S
C582 C583 1.389 . S
C583 C582 1.389 . S
C583 C584 1.387 . S
C584 H569 0.930 . S
C584 C579 1.390 . S
C584 C583 1.387 . S
H585 C597 0.930 1_565 S
H586 C599 0.930 . S
H587 C600 0.930 . S
H588 C604 0.959 1_545 S
H589 C604 0.959 . S
H590 C604 0.961 . S
H591 C605 0.960 . S
H592 C605 0.961 . S
H593 C605 0.959 . S
H594 C608 0.929 . S
H595 C609 0.931 . S
H596 C611 0.905 1_565 S
C597 H585 0.930 1_545 S
C597 C598 1.399 . S
C597 C602 1.399 . S
C598 C597 1.399 . S
C598 C599 1.376 . S
C599 H586 0.930 . S
C599 C598 1.376 . S
C599 C600 1.388 . S
C600 H587 0.930 . S
C600 C599 1.388 . S
C600 C601 1.390 . S
C601 C600 1.390 . S
C601 C602 1.394 . S
C601 C607 1.465 . S
C602 C597 1.399 . S
C602 C601 1.394 . S
C602 C603 1.516 1_545 S
C603 C602 1.516 1_565 S
C603 C604 1.502 . S
C603 C605 1.561 . S
C603 C606 1.526 1_565 S
C604 H588 0.959 1_565 S
C604 H589 0.959 . S
C604 H590 0.961 . S
C604 C603 1.502 . S
C605 H591 0.960 . S
C605 H592 0.961 . S
C605 H593 0.959 . S
C605 C603 1.561 . S
C606 C603 1.526 1_545 S
C606 C607 1.396 . S
C606 C611 1.390 . S
C607 C601 1.465 . S
C607 C606 1.396 . S
C607 C608 1.399 . S
C608 H594 0.929 . S
C608 C607 1.399 . S
C608 C609 1.385 . S
C609 H595 0.931 . S
C609 C608 1.385 . S
C609 C610 1.389 . S
C610 C609 1.389 . S
C610 C611 1.387 . S
C611 H596 0.905 1_545 S
C611 C606 1.390 . S
C611 C610 1.387 . S
H612 C624 0.930 . S
H613 C626 0.930 . S
H614 C627 0.930 . S
H615 C631 0.959 . S
H616 C631 0.959 . S
H617 C631 0.961 . S
H618 C632 0.960 . S
H619 C632 0.961 . S
H620 C632 0.959 . S
H621 C635 0.929 . S
H622 C636 0.931 . S
H623 C638 0.930 . S
C624 H612 0.930 . S
C624 C625 1.399 . S
C624 C629 1.399 . S
C625 C624 1.399 . S
C625 C626 1.376 . S
C626 H613 0.930 . S
C626 C625 1.376 . S
C626 C627 1.388 . S
C627 H614 0.930 . S
C627 C626 1.388 . S
C627 C628 1.390 . S
C628 C627 1.390 . S
C628 C629 1.394 . S
C628 C634 1.465 . S
C629 C624 1.399 . S
C629 C628 1.394 . S
C629 C630 1.516 . S
C630 C629 1.516 . S
C630 C631 1.502 . S
C630 C632 1.561 . S
C630 C633 1.526 . S
C631 H615 0.959 . S
C631 H616 0.959 . S
C631 H617 0.961 . S
C631 C630 1.502 . S
C632 H618 0.960 . S
C632 H619 0.961 . S
C632 H620 0.959 . S
C632 C630 1.561 . S
C633 C630 1.526 . S
C633 C634 1.396 . S
C633 C638 1.390 . S
C634 C628 1.465 . S
C634 C633 1.396 . S
C634 C635 1.399 . S
C635 H621 0.929 . S
C635 C634 1.399 . S
C635 C636 1.385 . S
C636 H622 0.931 . S
C636 C635 1.385 . S
C636 C637 1.389 . S
C637 C636 1.389 . S
C637 C638 1.387 . S
C638 H623 0.930 . S
C638 C633 1.390 . S
C638 C637 1.387 . S
H639 C651 0.930 . S
H640 C653 0.930 . S
H641 C654 0.930 . S
H642 C658 0.959 . S
H643 C658 0.959 . S
H644 C658 0.961 . S
H645 C659 0.960 . S
H646 C659 0.961 . S
H647 C659 0.959 . S
H648 C662 0.929 . S
H649 C663 0.931 . S
H650 C665 0.930 . S
C651 H639 0.930 . S
C651 C652 1.399 . S
C651 C656 1.399 . S
C652 C651 1.399 . S
C652 C653 1.376 . S
C653 H640 0.930 . S
C653 C652 1.376 . S
C653 C654 1.388 . S
C654 H641 0.930 . S
C654 C653 1.388 . S
C654 C655 1.390 . S
C655 C654 1.390 . S
C655 C656 1.394 . S
C655 C661 1.465 . S
C656 C651 1.399 . S
C656 C655 1.394 . S
C656 C657 1.516 . S
C657 C656 1.516 . S
C657 C658 1.502 . S
C657 C659 1.561 1_545 S
C657 C660 1.526 . S
C658 H642 0.959 . S
C658 H643 0.959 . S
C658 H644 0.961 . S
C658 C657 1.502 . S
C659 H645 0.960 . S
C659 H646 0.961 . S
C659 H647 0.959 . S
C659 C657 1.561 1_565 S
C660 C657 1.526 . S
C660 C661 1.396 . S
C660 C665 1.390 . S
C661 C655 1.465 . S
C661 C660 1.396 . S
C661 C662 1.399 . S
C662 H648 0.929 . S
C662 C661 1.399 . S
C662 C663 1.385 . S
C663 H649 0.931 . S
C663 C662 1.385 . S
C663 C664 1.389 . S
C664 C663 1.389 . S
C664 C665 1.387 . S
C665 H650 0.930 . S
C665 C660 1.390 . S
C665 C664 1.387 . S
H666 C678 0.930 . S
H667 C680 0.930 . S
H668 C681 0.930 . S
H669 C685 0.959 . S
H670 C685 0.959 . S
H671 C685 0.961 1_556 S
H672 C686 0.960 . S
H673 C686 0.961 1_554 S
H674 C686 0.959 . S
H675 C689 0.929 . S
H676 C690 0.931 . S
H677 C692 0.930 . S
C678 H666 0.930 . S
C678 C679 1.399 . S
C678 C683 1.399 . S
C679 C678 1.399 . S
C679 C680 1.376 . S
C680 H667 0.930 . S
C680 C679 1.376 . S
C680 C681 1.388 . S
C681 H668 0.930 . S
C681 C680 1.388 . S
C681 C682 1.390 . S
C682 C681 1.390 . S
C682 C683 1.394 . S
C682 C688 1.465 1_556 S
C683 C678 1.399 . S
C683 C682 1.394 . S
C683 C684 1.516 . S
C684 C683 1.516 . S
C684 C685 1.502 1_556 S
C684 C686 1.561 . S
C684 C687 1.526 1_556 S
C685 H669 0.959 . S
C685 H670 0.959 . S
C685 H671 0.961 1_554 S
C685 C684 1.502 1_554 S
C686 H672 0.960 . S
C686 H673 0.961 1_556 S
C686 H674 0.959 . S
C686 C684 1.561 . S
C687 C684 1.526 1_554 S
C687 C688 1.396 . S
C687 C692 1.390 . S
C688 C682 1.465 1_554 S
C688 C687 1.396 . S
C688 C689 1.399 . S
C689 H675 0.929 . S
C689 C688 1.399 . S
C689 C690 1.385 . S
C690 H676 0.931 . S
C690 C689 1.385 . S
C690 C691 1.389 . S
C691 C690 1.389 . S
C691 C692 1.387 . S
C692 H677 0.930 . S
C692 C687 1.390 . S
C692 C691 1.387 . S
H693 C705 0.930 . S
H694 C707 0.930 . S
H695 C708 0.930 . S
H696 C712 0.959 . S
H697 C712 0.959 . S
H698 C712 0.961 . S
H699 C713 0.960 . S
H700 C713 0.961 . S
H701 C713 0.959 . S
H702 C716 0.929 . S
H703 C717 0.931 . S
H704 C719 0.930 . S
C705 H693 0.930 . S
C705 C706 1.399 . S
C705 C710 1.399 . S
C706 C705 1.399 . S
C706 C707 1.376 1_455 S
C707 H694 0.930 . S
C707 C706 1.376 1_655 S
C707 C708 1.388 . S
C708 H695 0.930 . S
C708 C707 1.388 . S
C708 C709 1.390 1_655 S
C709 C708 1.390 1_455 S
C709 C710 1.394 . S
C709 C715 1.465 . S
C710 C705 1.399 . S
C710 C709 1.394 . S
C710 C711 1.516 . S
C711 C710 1.516 . S
C711 C712 1.502 . S
C711 C713 1.561 . S
C711 C714 1.526 . S
C712 H696 0.959 . S
C712 H697 0.959 . S
C712 H698 0.961 . S
C712 C711 1.502 . S
C713 H699 0.960 . S
C713 H700 0.961 . S
C713 H701 0.959 . S
C713 C711 1.561 . S
C714 C711 1.526 . S
C714 C715 1.396 . S
C714 C719 1.390 . S
C715 C709 1.465 . S
C715 C714 1.396 . S
C715 C716 1.399 1_455 S
C716 H702 0.929 . S
C716 C715 1.399 1_655 S
C716 C717 1.385 . S
C717 H703 0.931 . S
C717 C716 1.385 . S
C717 C718 1.389 1_655 S
C718 C717 1.389 1_455 S
C718 C719 1.387 . S
C719 H704 0.930 . S
C719 C714 1.390 . S
C719 C718 1.387 . S
C247 C12 3.079 . S
C259 C226 2.997 . S
C274 C52 3.076 . S
C286 C188 3.013 . S
C301 C111 3.110 . S
C313 C207 2.998 . S
C328 C31 3.032 . S
C340 C221 2.997 . S
C367 C183 2.973 . S
C355 C71 3.038 . S
C394 C202 2.938 . S
C382 C92 2.995 . S
C409 C48 0.751 . S
C421 C150 0.572 . S
C436 C109 0.336 . S
C448 C164 0.154 . S
C463 C29 0.362 . S
C475 C126 0.296 . S
C502 C145 0.165 . S
C490 C69 0.258 . S
C529 C169 0.590 . S
C517 C88 0.318 . S
C544 C8 0.546 . S
C556 C131 0.417 . S
C583 C160 1.317 . S
C571 C17 1.338 . S
C598 C57 1.319 . S
C610 C122 1.304 . S
C625 C97 1.334 . S
C637 C141 1.306 . S
C664 C198 1.718 . S
C652 C42 1.722 . S
C691 C217 1.740 . S
C679 C82 1.742 . S
C706 C2 1.752 . S
C718 C179 1.755 . S
