# Generated by pormake.
# Topology anh, (6,3)-cn, num edge types: 1
# Building blocks:
#     Node 0, Type 0, BuildingBlock: MIFKUJ_clean_sbu_0, # of connection points: 6
#     Node 1, Type 0, BuildingBlock: MIFKUJ_clean_sbu_0, # of connection points: 6
#     Node 2, Type 0, BuildingBlock: MIFKUJ_clean_sbu_0, # of connection points: 6
#     Node 3, Type 1, BuildingBlock: ESEHIV_clean_linker_0, # of connection points: 3
#     Node 4, Type 1, BuildingBlock: ESEHIV_clean_linker_0, # of connection points: 3
#     Node 5, Type 1, BuildingBlock: ESEHIV_clean_linker_0, # of connection points: 3
#     Node 6, Type 1, BuildingBlock: ESEHIV_clean_linker_0, # of connection points: 3
#     Node 7, Type 1, BuildingBlock: ESEHIV_clean_linker_0, # of connection points: 3
#     Node 8, Type 1, BuildingBlock: ESEHIV_clean_linker_0, # of connection points: 3
#     Edge 9, Type (0, 1), BuildingBlock: CIFDUS_clean_linker_0, # of connection points: 2
#     Edge 10, Type (0, 1), BuildingBlock: CIFDUS_clean_linker_0, # of connection points: 2
#     Edge 11, Type (0, 1), BuildingBlock: CIFDUS_clean_linker_0, # of connection points: 2
#     Edge 12, Type (0, 1), BuildingBlock: CIFDUS_clean_linker_0, # of connection points: 2
#     Edge 13, Type (0, 1), BuildingBlock: CIFDUS_clean_linker_0, # of connection points: 2
#     Edge 14, Type (0, 1), BuildingBlock: CIFDUS_clean_linker_0, # of connection points: 2
#     Edge 15, Type (0, 1), BuildingBlock: CIFDUS_clean_linker_0, # of connection points: 2
#     Edge 16, Type (0, 1), BuildingBlock: CIFDUS_clean_linker_0, # of connection points: 2
#     Edge 17, Type (0, 1), BuildingBlock: CIFDUS_clean_linker_0, # of connection points: 2
#     Edge 18, Type (0, 1), BuildingBlock: CIFDUS_clean_linker_0, # of connection points: 2
#     Edge 19, Type (0, 1), BuildingBlock: CIFDUS_clean_linker_0, # of connection points: 2
#     Edge 20, Type (0, 1), BuildingBlock: CIFDUS_clean_linker_0, # of connection points: 2
#     Edge 21, Type (0, 1), BuildingBlock: CIFDUS_clean_linker_0, # of connection points: 2
#     Edge 22, Type (0, 1), BuildingBlock: CIFDUS_clean_linker_0, # of connection points: 2
#     Edge 23, Type (0, 1), BuildingBlock: CIFDUS_clean_linker_0, # of connection points: 2
#     Edge 24, Type (0, 1), BuildingBlock: CIFDUS_clean_linker_0, # of connection points: 2
#     Edge 25, Type (0, 1), BuildingBlock: CIFDUS_clean_linker_0, # of connection points: 2
#     Edge 26, Type (0, 1), BuildingBlock: CIFDUS_clean_linker_0, # of connection points: 2
# Relax obj value: 0.135
# Max RMSD: 0.187
# Mean RMSD: 0.153
data_MOF--net-anh--node1-MIFKUJ_clean_sbu_0--node2-ESEHIV_clean_linker_0--edge1-CIFDUS_clean_linker_0
_symmetry_space_group_name_H-M    P1
_symmetry_Int_Tables_number       1
_symmetry_cell_setting            triclinic
loop_
_symmetry_equiv_pos_as_xyz
'x, y, z'
_cell_length_a     25.369533
_cell_length_b     25.60822
_cell_length_c     42.499759
_cell_angle_alpha  94.147306
_cell_angle_beta   90.639783
_cell_angle_gamma 119.43845
loop_
_atom_site_label
_atom_site_type_symbol
_atom_site_fract_x
_atom_site_fract_y
_atom_site_fract_z
_atom_type_partial_charge
Zn0 Zn 0.0359 0.53711 0.1426 0.0
Zn1 Zn 0.90117 0.40908 0.13508 0.0
C2 C 0.13421 0.5114 0.15386 0.0
O3 O 0.14242 0.54569 0.18005 0.0
C4 C 0.79626 0.42656 0.13179 0.0
O5 O 0.77224 0.37187 0.11772 0.0
O6 O 0.09729 0.6248 0.15099 0.0
O7 O 0.98644 0.52617 0.10247 0.0
O8 O 0.94048 0.42686 0.09361 0.0
C9 C 0.14547 0.6494 0.13599 0.0
O10 O 0.15189 0.61881 0.11159 0.0
O11 O 0.08855 0.49747 0.13519 0.0
C12 C 0.8127 0.30869 0.15948 0.0
O13 O 0.82725 0.35268 0.18171 0.0
O14 O 0.84009 0.32073 0.13388 0.0
O15 O 0.95444 0.41977 0.17321 0.0
O16 O 0.99372 0.51717 0.18348 0.0
O17 O 0.85222 0.45395 0.14116 0.0
C18 C 0.96211 0.47863 0.08349 0.0
C19 C 0.97332 0.46533 0.19305 0.0
Zn20 Zn 0.52682 0.04589 0.48996 0.0
Zn21 Zn 0.48438 0.87913 0.50395 0.0
C22 C 0.656 0.12803 0.48104 0.0
O23 O 0.66557 0.11526 0.50919 0.0
C24 C 0.37084 0.78423 0.48169 0.0
O25 O 0.40786 0.76649 0.47017 0.0
O26 O 0.47806 0.08804 0.49411 0.0
O27 O 0.4787 0.96499 0.46659 0.0
O28 O 0.51787 0.90608 0.46193 0.0
C29 C 0.48289 0.12681 0.4756 0.0
O30 O 0.5146 0.13393 0.45046 0.0
O31 O 0.6025 0.10132 0.46838 0.0
C32 C 0.47366 0.77812 0.53316 0.0
O33 O 0.42607 0.7792 0.54427 0.0
O34 O 0.50778 0.81808 0.51551 0.0
O35 O 0.51548 0.94325 0.54114 0.0
O36 O 0.54705 0.03966 0.53468 0.0
O37 O 0.39275 0.83519 0.49758 0.0
C38 C 0.50702 0.94426 0.4504 0.0
C39 C 0.5383 -0.00189 0.55214 0.0
Zn40 Zn 0.67658 0.63477 0.8355 0.0
Zn41 Zn 0.54539 0.67105 0.84012 0.0
C42 C 0.67001 0.52038 0.83287 0.0
O43 O 0.71198 0.54976 0.85573 0.0
C44 C 0.58473 0.79885 0.84721 0.0
O45 O 0.54877 0.78356 0.87089 0.0
O46 O 0.76647 0.67321 0.83367 0.0
O47 O 0.64325 0.67042 0.8068 0.0
O48 O 0.54461 0.61988 0.8025 0.0
C49 C 0.78598 0.65755 0.80943 0.0
O50 O 0.74797 0.6276 0.78506 0.0
O51 O 0.64488 0.54699 0.82048 0.0
C52 C 0.43832 0.64906 0.87235 0.0
O53 O 0.47583 0.66885 0.89744 0.0
O54 O 0.45845 0.64757 0.84528 0.0
O55 O 0.57594 0.65493 0.88025 0.0
O56 O 0.65455 0.63853 0.88092 0.0
O57 O 0.59186 0.75875 0.83151 0.0
C58 C 0.59496 0.63065 0.79187 0.0
C59 C 0.61341 0.64456 0.89489 0.0
H60 H 0.4347 0.85561 0.2517 0.0
H61 H 0.59424 0.02913 0.26774 0.0
H62 H 0.5028 0.97004 0.17554 0.0
C63 C 0.46879 0.89685 0.24273 0.0
C64 C 0.46398 0.90704 0.21101 0.0
C65 C 0.51567 0.94084 0.26326 0.0
C66 C 0.55819 0.99483 0.2518 0.0
C67 C 0.55391 0.00579 0.22029 0.0
C68 C 0.50739 0.96119 0.19969 0.0
H69 H 0.50924 0.53984 0.62251 0.0
H70 H 0.48974 0.36363 0.62214 0.0
H71 H 0.43338 0.41655 0.53949 0.0
C72 C 0.49655 0.49641 0.6101 0.0
C73 C 0.47156 0.48327 0.57916 0.0
C74 C 0.50199 0.45304 0.62585 0.0
C75 C 0.48391 0.39642 0.61003 0.0
C76 C 0.46037 0.38307 0.57845 0.0
C77 C 0.45301 0.42651 0.56344 0.0
H78 H 0.92394 0.49496 0.88593 0.0
H79 H 0.07743 0.47296 0.90644 0.0
H80 H 0.07017 0.55632 0.82317 0.0
C81 C 0.96632 0.49799 0.879 0.0
C82 C 0.99193 0.52411 0.85126 0.0
C83 C 0.99684 0.47902 0.89878 0.0
C84 C 0.05292 0.48575 0.89048 0.0
C85 C 0.0804 0.51455 0.86356 0.0
C86 C 0.04883 0.53227 0.84347 0.0
H87 H 0.90644 0.3915 0.37957 0.0
H88 H 0.07269 0.55982 0.39028 0.0
H89 H 0.00508 0.45712 0.47024 0.0
C90 C 0.94402 0.42577 0.39463 0.0
C91 C 0.9489 0.41777 0.4268 0.0
C92 C 0.98784 0.47729 0.38141 0.0
C93 C 0.03733 0.52114 0.40059 0.0
C94 C 0.0441 0.5136 0.43241 0.0
C95 C 0.99978 0.4621 0.4455 0.0
H96 H 0.63747 0.22186 0.73151 0.0
H97 H 0.62653 0.05106 0.74145 0.0
H98 H 0.65209 0.16989 0.82392 0.0
C99 C 0.63828 0.18956 0.74632 0.0
C100 C 0.64678 0.20314 0.77931 0.0
C101 C 0.63064 0.1346 0.73236 0.0
C102 C 0.63212 0.09341 0.75193 0.0
C103 C 0.63929 0.10532 0.78492 0.0
C104 C 0.64674 0.16043 0.79846 0.0
H105 H 0.42881 0.55642 0.0728 0.0
H106 H 0.58559 0.53347 0.0707 0.0
H107 H 0.47413 0.48453 0.15066 0.0
C108 C 0.45804 0.54222 0.08358 0.0
C109 C 0.44435 0.51873 0.11318 0.0
C110 C 0.50881 0.54786 0.06788 0.0
C111 C 0.54767 0.53188 0.08294 0.0
C112 C 0.53641 0.51011 0.11292 0.0
C113 C 0.48415 0.50297 0.12793 0.0
H114 H 0.23898 0.5387 0.1871 0.0
H115 H 0.13991 0.45529 0.09772 0.0
H116 H 0.22529 0.44569 0.07844 0.0
H117 H 0.33105 0.46845 0.08521 0.0
H118 H 0.43129 0.55294 0.17399 0.0
H119 H 0.34226 0.55366 0.19541 0.0
C120 C 0.23564 0.51768 0.16353 0.0
C121 C 0.18292 0.49817 0.14385 0.0
C122 C 0.28534 0.5127 0.15243 0.0
C123 C 0.17967 0.47085 0.11342 0.0
C124 C 0.22868 0.46551 0.10231 0.0
C125 C 0.33328 0.48662 0.10936 0.0
C126 C 0.38807 0.51123 0.12787 0.0
C127 C 0.28218 0.48747 0.12133 0.0
C128 C 0.38979 0.53359 0.15927 0.0
C129 C 0.33897 0.53439 0.17143 0.0
H130 H 0.77749 0.18666 0.49679 0.0
H131 H 0.64432 0.18483 0.43185 0.0
H132 H 0.72249 0.27476 0.41033 0.0
H133 H 0.8271 0.35625 0.41145 0.0
H134 H 0.96291 0.35432 0.47288 0.0
H135 H 0.88478 0.26485 0.49494 0.0
C136 C 0.76569 0.20569 0.47776 0.0
C137 C 0.705 0.17907 0.4661 0.0
C138 C 0.8111 0.25737 0.4652 0.0
C139 C 0.69059 0.20416 0.44129 0.0
C140 C 0.73525 0.25587 0.42904 0.0
C141 C 0.84026 0.33589 0.42919 0.0
C142 C 0.90131 0.36272 0.44038 0.0
C143 C 0.7955 0.28314 0.441 0.0
C144 C 0.91639 0.33591 0.46412 0.0
C145 C 0.87173 0.28415 0.47656 0.0
H146 H 0.56004 0.88729 0.86789 0.0
H147 H 0.66681 0.8478 0.80204 0.0
H148 H 0.69943 0.94353 0.77969 0.0
H149 H 0.68998 0.03355 0.77547 0.0
H150 H 0.57764 0.06969 0.83877 0.0
H151 H 0.5565 0.98126 0.86612 0.0
C152 C 0.59111 0.89993 0.84894 0.0
C153 C 0.61041 0.86005 0.83645 0.0
C154 C 0.60873 0.95454 0.83573 0.0
C155 C 0.65079 0.87733 0.81193 0.0
C156 C 0.66947 0.93209 0.7991 0.0
C157 C 0.66105 0.02224 0.79535 0.0
C158 C 0.63482 0.05784 0.80476 0.0
C159 C 0.64743 0.97023 0.81026 0.0
C160 C 0.59872 0.04338 0.83108 0.0
C161 C 0.58609 0.9924 0.84655 0.0
H162 H 0.67587 0.37129 0.14034 0.0
H163 H 0.83016 0.54587 0.13058 0.0
H164 H 0.76309 0.58929 0.12772 0.0
H165 H 0.65931 0.57449 0.1217 0.0
H166 H 0.50564 0.40008 0.13247 0.0
H167 H 0.57367 0.35983 0.14198 0.0
C168 C 0.69489 0.41905 0.13803 0.0
C169 C 0.75781 0.45523 0.1352 0.0
C170 C 0.65608 0.44358 0.13659 0.0
C171 C 0.78195 0.51714 0.13275 0.0
C172 C 0.74353 0.54184 0.13097 0.0
C173 C 0.64091 0.52802 0.12688 0.0
C174 C 0.57748 0.49015 0.12624 0.0
C175 C 0.68038 0.50513 0.132 0.0
C176 C 0.55416 0.43016 0.13308 0.0
C177 C 0.59308 0.40702 0.13817 0.0
H178 H 0.31261 0.66508 0.48666 0.0
H179 H 0.2825 0.81167 0.46772 0.0
H180 H 0.17509 0.74022 0.4538 0.0
H181 H 0.09311 0.63501 0.44154 0.0
H182 H 0.12337 0.4893 0.46244 0.0
H183 H 0.22728 0.56143 0.48185 0.0
C184 C 0.2822 0.68126 0.47982 0.0
C185 C 0.30507 0.74309 0.47761 0.0
C186 C 0.2208 0.64014 0.47233 0.0
C187 C 0.26553 0.76407 0.4694 0.0
C188 C 0.20435 0.72327 0.46137 0.0
C189 C 0.12223 0.61935 0.45103 0.0
C190 C 0.10109 0.55715 0.45046 0.0
C191 C 0.18191 0.66109 0.46198 0.0
C192 C 0.13874 0.53702 0.46289 0.0
C193 C 0.19824 0.57819 0.47366 0.0
H194 H 0.72393 0.45746 0.85081 0.0
H195 H 0.5848 0.44569 0.78648 0.0
H196 H 0.5644 0.34605 0.76479 0.0
H197 H 0.58697 0.26275 0.7637 0.0
H198 H 0.72821 0.27651 0.82712 0.0
H199 H 0.74619 0.37453 0.84985 0.0
C200 C 0.68884 0.43304 0.83217 0.0
C201 C 0.6558 0.45902 0.82041 0.0
C202 C 0.67763 0.37601 0.81968 0.0
C203 C 0.61082 0.42676 0.79608 0.0
C204 C 0.59917 0.36977 0.78362 0.0
C205 C 0.62195 0.28734 0.78236 0.0
C206 C 0.65618 0.26214 0.79365 0.0
C207 C 0.63251 0.34409 0.79513 0.0
C208 C 0.70063 0.29432 0.81823 0.0
C209 C 0.71123 0.35061 0.83112 0.0
H210 H 0.38892 0.66206 0.53591 0.0
H211 H 0.58202 0.78257 0.54264 0.0
H212 H 0.59899 0.69993 0.5553 0.0
H213 H 0.55792 0.59491 0.56792 0.0
H214 H 0.36524 0.47342 0.55851 0.0
H215 H 0.34867 0.55468 0.54276 0.0
C216 C 0.43465 0.66999 0.54013 0.0
C217 C 0.4842 0.72812 0.53903 0.0
C218 C 0.44394 0.62217 0.54663 0.0
C219 C 0.54335 0.73802 0.54366 0.0
C220 C 0.55299 0.69091 0.55087 0.0
C221 C 0.51252 0.5863 0.56186 0.0
C222 C 0.46275 0.52885 0.56437 0.0
C223 C 0.50356 0.63305 0.55285 0.0
C224 C 0.40403 0.51749 0.55646 0.0
C225 C 0.39461 0.56393 0.54775 0.0
H226 H 0.81309 0.57884 0.77788 0.0
H227 H 0.88263 0.72653 0.85076 0.0
H228 H 0.96011 0.70238 0.86731 0.0
H229 H 0.99583 0.62893 0.86687 0.0
H230 H 0.92152 0.47712 0.79682 0.0
H231 H 0.85778 0.51297 0.77312 0.0
C232 C 0.84639 0.60695 0.79672 0.0
C233 C 0.84193 0.65409 0.8133 0.0
C234 C 0.88901 0.59119 0.80695 0.0
C235 C 0.88508 0.68982 0.8378 0.0
C236 C 0.92903 0.67576 0.84741 0.0
C237 C 0.96667 0.60481 0.84592 0.0
C238 C 0.96273 0.55079 0.83341 0.0
C239 C 0.92953 0.62496 0.83309 0.0
C240 C 0.92494 0.51904 0.80652 0.0
C241 C 0.88853 0.53941 0.79316 0.0
H242 H 0.26129 0.70458 0.11668 0.0
H243 H 0.14793 0.72079 0.18741 0.0
H244 H 0.23674 0.80376 0.21602 0.0
H245 H 0.34708 0.86591 0.22348 0.0
H246 H 0.46141 0.85142 0.15323 0.0
H247 H 0.37171 0.77356 0.12176 0.0
C248 C 0.25587 0.72689 0.13806 0.0
C249 C 0.19801 0.70598 0.15002 0.0
C250 C 0.30735 0.77431 0.15468 0.0
C251 C 0.19188 0.73561 0.17774 0.0
C252 C 0.2427 0.78295 0.19423 0.0
C253 C 0.35215 0.84569 0.20121 0.0
C254 C 0.41036 0.86327 0.19079 0.0
C255 C 0.30067 0.80154 0.18336 0.0
C256 C 0.41678 0.83803 0.16166 0.0
C257 C 0.36561 0.79361 0.14377 0.0
H258 H 0.42587 0.13055 0.52879 0.0
H259 H 0.50357 0.22693 0.44706 0.0
H260 H 0.49723 0.31319 0.47067 0.0
H261 H 0.48395 0.36607 0.51753 0.0
H262 H 0.40719 0.27042 0.59956 0.0
H263 H 0.39964 0.17913 0.57286 0.0
C264 C 0.44036 0.16995 0.51584 0.0
C265 C 0.4662 0.17266 0.48645 0.0
C266 C 0.43794 0.21995 0.52986 0.0
C267 C 0.48402 0.22379 0.46985 0.0
C268 C 0.48076 0.27335 0.48342 0.0
C269 C 0.46404 0.32491 0.52933 0.0
C270 C 0.44708 0.32542 0.56072 0.0
C271 C 0.45997 0.2727 0.51389 0.0
C272 C 0.42197 0.27169 0.57568 0.0
C273 C 0.41731 0.21938 0.56037 0.0
H274 H 0.3482 0.5963 0.82608 0.0
H275 H 0.38197 0.65195 0.92608 0.0
H276 H 0.27404 0.61415 0.9319 0.0
H277 H 0.17098 0.56687 0.90873 0.0
H278 H 0.13537 0.50929 0.80912 0.0
H279 H 0.24381 0.54705 0.8029 0.0
C280 C 0.33198 0.60028 0.84914 0.0
C281 C 0.37309 0.62704 0.8756 0.0
C282 C 0.26979 0.57814 0.85237 0.0
C283 C 0.35133 0.63163 0.90533 0.0
C284 C 0.28964 0.60998 0.9087 0.0
C285 C 0.18671 0.5615 0.88573 0.0
C286 C 0.14524 0.53454 0.85948 0.0
C287 C 0.24859 0.58312 0.88242 0.0
C288 C 0.16655 0.52977 0.82966 0.0
C289 C 0.22839 0.55127 0.82613 0.0
H290 H 0.73394 0.27801 0.20558 0.0
H291 H 0.78073 0.20252 0.12376 0.0
H292 H 0.7014 0.10126 0.13403 0.0
H293 H 0.62216 0.03397 0.16843 0.0
H294 H 0.57786 0.11256 0.24995 0.0
H295 H 0.65278 0.21309 0.23752 0.0
C296 C 0.72691 0.23951 0.1899 0.0
C297 C 0.76354 0.24759 0.16418 0.0
C298 C 0.68167 0.18202 0.19595 0.0
C299 C 0.75319 0.19731 0.14385 0.0
C300 C 0.70792 0.13949 0.14972 0.0
C301 C 0.62863 0.07331 0.18313 0.0
C302 C 0.59535 0.06611 0.21027 0.0
C303 C 0.67231 0.13124 0.17597 0.0
C304 C 0.60384 0.11717 0.22924 0.0
C305 C 0.64651 0.17458 0.22214 0.0
H306 H 0.95129 0.3964 0.03611 0.0
H307 H 0.97061 0.57323 0.05405 0.0
H308 H 0.97488 0.5851 -0.0025 0.0
H309 H 0.98156 0.54881 0.94358 0.0
H310 H 0.97153 0.37632 0.92583 0.0
H311 H 0.95425 0.35846 0.9817 0.0
C312 C 0.95575 0.43722 0.02759 0.0
C313 C 0.96088 0.48397 0.04919 0.0
C314 C 0.95974 0.44437 -0.00487 0.0
C315 C 0.96711 0.53682 0.03788 0.0
C316 C 0.9694 0.54359 0.00557 0.0
C317 C 0.97412 0.50676 0.95192 0.0
C318 C 0.97689 0.46348 0.93087 0.0
C319 C 0.96681 0.49812 0.98408 0.0
C320 C 0.96891 0.40981 0.94181 0.0
C321 C 0.95944 0.39987 0.97367 0.0
H322 H 0.51524 0.87197 0.40294 0.0
H323 H 0.5163 0.0401 0.42236 0.0
H324 H 0.52271 0.05541 0.36625 0.0
H325 H 0.52191 0.01817 0.31148 0.0
H326 H 0.5123 0.8463 0.29103 0.0
H327 H 0.51434 0.83448 0.34774 0.0
C328 C 0.51777 0.91234 0.39489 0.0
C329 C 0.51621 0.95541 0.41679 0.0
C330 C 0.51894 0.91955 0.36241 0.0
C331 C 0.51818 0.00682 0.406 0.0
C332 C 0.52145 0.01536 0.3739 0.0
C333 C 0.52088 0.97843 0.31952 0.0
C334 C 0.51739 0.93331 0.29733 0.0
C335 C 0.52097 0.97163 0.3519 0.0
C336 C 0.51485 0.88144 0.30784 0.0
C337 C 0.51624 0.87486 0.34017 0.0
H338 H 0.51415 0.51588 0.77057 0.0
H339 H 0.67942 0.67106 0.74768 0.0
H340 H 0.67079 0.62377 0.69434 0.0
H341 H 0.60656 0.54627 0.65207 0.0
H342 H 0.44097 0.3916 0.67485 0.0
H343 H 0.45998 0.42976 0.73069 0.0
C344 C 0.5488 0.53872 0.75403 0.0
C345 C 0.59662 0.59722 0.7626 0.0
C346 C 0.54328 0.51142 0.72346 0.0
C347 C 0.64202 0.62608 0.74139 0.0
C348 C 0.63692 0.59922 0.71089 0.0
C349 C 0.5757 0.52026 0.66951 0.0
C350 C 0.52216 0.4668 0.6596 0.0
C351 C 0.58638 0.54308 0.70132 0.0
C352 C 0.48249 0.43288 0.68214 0.0
C353 C 0.49304 0.455 0.71394 0.0
H354 H 0.61235 0.10871 0.58268 0.0
H355 H 0.49494 0.92251 0.59899 0.0
H356 H 0.51179 0.94885 0.65592 0.0
H357 H 0.55647 0.02471 0.7008 0.0
H358 H 0.68064 0.20982 0.68504 0.0
H359 H 0.66265 0.18405 0.62807 0.0
C360 C 0.59062 0.07385 0.59869 0.0
C361 C 0.55222 0.01376 0.58656 0.0
C362 C 0.60094 0.08917 0.63146 0.0
C363 C 0.52488 0.96906 0.60764 0.0
C364 C 0.53423 0.98412 0.64022 0.0
C365 C 0.58074 0.05946 0.68506 0.0
C366 C 0.62 0.11924 0.69748 0.0
C367 C 0.57185 0.04404 0.65236 0.0
C368 C 0.64936 0.16364 0.67638 0.0
C369 C 0.63958 0.14884 0.64372 0.0
H370 H 0.50799 0.59405 0.92386 0.0
H371 H 0.70081 0.67147 0.94136 0.0
H372 H 0.68582 0.65261 -0.00279 0.0
H373 H 0.61745 0.61267 0.04052 0.0
H374 H 0.42364 0.52491 0.02057 0.0
H375 H 0.43985 0.55179 0.96652 0.0
C376 C 0.54682 0.60758 0.94 0.0
C377 C 0.60546 0.6348 0.9287 0.0
C378 C 0.53769 0.59522 0.97167 0.0
C379 C 0.65525 0.65053 0.94962 0.0
C380 C 0.64666 0.63985 0.98149 0.0
C381 C 0.57855 0.59866 0.02438 0.0
C382 C 0.51932 0.5669 0.03506 0.0
C383 C 0.58797 0.61176 0.99271 0.0
C384 C 0.46983 0.55059 0.01362 0.0
C385 C 0.47895 0.56527 0.98244 0.0
H386 H 0.99875 0.55046 0.2419 0.0
H387 H 0.94356 0.36245 0.22104 0.0
H388 H 0.94136 0.34928 0.27733 0.0
H389 H 0.95794 0.39157 0.33245 0.0
H390 H 0.01047 0.57873 0.35354 0.0
H391 H 0.01126 0.59181 0.29714 0.0
C392 C 0.98627 0.5066 0.24965 0.0
C393 C 0.97175 0.45768 0.22725 0.0
C394 C 0.9847 0.49915 0.28209 0.0
C395 C 0.9552 0.40102 0.23774 0.0
C396 C 0.95385 0.39336 0.26995 0.0
C397 C 0.96856 0.43498 0.32473 0.0
C398 C 0.98416 0.48408 0.34718 0.0
C399 C 0.96871 0.44213 0.29232 0.0
C400 C 0.99893 0.54034 0.33673 0.0
C401 C 0.99923 0.54783 0.3045 0.0
loop_
_geom_bond_atom_site_label_1
_geom_bond_atom_site_label_2
_geom_bond_distance
_geom_bond_site_symmetry_2
_ccdc_geom_bond_type
Zn0 O6 1.969 . S
Zn0 O7 1.965 . S
Zn0 O11 2.024 . S
Zn0 O16 1.969 . S
Zn1 O8 1.969 . S
Zn1 O14 1.969 . S
Zn1 O15 1.965 . S
Zn1 O17 2.024 . S
C2 O3 1.229 . S
C2 O11 1.058 . S
O3 C2 1.229 . S
C4 O5 1.229 . S
C4 O17 1.058 . S
O5 C4 1.229 . S
O6 Zn0 1.969 . S
O6 C9 1.267 . S
O7 Zn0 1.965 . S
O7 C18 1.260 1_455 S
O8 Zn1 1.969 . S
O8 C18 1.258 . S
C9 O6 1.267 . S
C9 O10 1.228 . S
O10 C9 1.228 . S
O11 Zn0 2.024 . S
O11 C2 1.058 . S
C12 O13 1.228 . S
C12 O14 1.267 . S
O13 C12 1.228 . S
O14 Zn1 1.969 . S
O14 C12 1.267 . S
O15 Zn1 1.965 . S
O15 C19 1.260 1_655 S
O16 Zn0 1.969 . S
O16 C19 1.258 . S
O17 Zn1 2.024 . S
O17 C4 1.058 . S
C18 O7 1.260 1_655 S
C18 O8 1.258 . S
C19 O15 1.260 1_455 S
C19 O16 1.258 . S
Zn20 O26 1.969 . S
Zn20 O27 1.965 . S
Zn20 O31 2.024 . S
Zn20 O36 1.969 . S
Zn21 O28 1.969 . S
Zn21 O34 1.969 . S
Zn21 O35 1.965 . S
Zn21 O37 2.024 . S
C22 O23 1.229 . S
C22 O31 1.058 . S
O23 C22 1.229 . S
C24 O25 1.229 . S
C24 O37 1.058 . S
O25 C24 1.229 . S
O26 Zn20 1.969 . S
O26 C29 1.267 . S
O27 Zn20 1.965 . S
O27 C38 1.260 . S
O28 Zn21 1.969 . S
O28 C38 1.258 1_565 S
C29 O26 1.267 . S
C29 O30 1.228 . S
O30 C29 1.228 . S
O31 Zn20 2.024 . S
O31 C22 1.058 . S
C32 O33 1.228 . S
C32 O34 1.267 . S
O33 C32 1.228 . S
O34 Zn21 1.969 . S
O34 C32 1.267 . S
O35 Zn21 1.965 . S
O35 C39 1.260 1_565 S
O36 Zn20 1.969 . S
O36 C39 1.258 . S
O37 Zn21 2.024 . S
O37 C24 1.058 . S
C38 O27 1.260 . S
C38 O28 1.258 1_545 S
C39 O35 1.260 1_545 S
C39 O36 1.258 . S
Zn40 O46 1.969 . S
Zn40 O47 1.965 . S
Zn40 O51 2.024 . S
Zn40 O56 1.969 . S
Zn41 O48 1.969 . S
Zn41 O54 1.969 . S
Zn41 O55 1.965 . S
Zn41 O57 2.024 . S
C42 O43 1.229 . S
C42 O51 1.058 . S
O43 C42 1.229 . S
C44 O45 1.229 . S
C44 O57 1.058 . S
O45 C44 1.229 . S
O46 Zn40 1.969 . S
O46 C49 1.267 . S
O47 Zn40 1.965 . S
O47 C58 1.260 . S
O48 Zn41 1.969 . S
O48 C58 1.258 . S
C49 O46 1.267 . S
C49 O50 1.228 . S
O50 C49 1.228 . S
O51 Zn40 2.024 . S
O51 C42 1.058 . S
C52 O53 1.228 . S
C52 O54 1.267 . S
O53 C52 1.228 . S
O54 Zn41 1.969 . S
O54 C52 1.267 . S
O55 Zn41 1.965 . S
O55 C59 1.260 . S
O56 Zn40 1.969 . S
O56 C59 1.258 . S
O57 Zn41 2.024 . S
O57 C44 1.058 . S
C58 O47 1.260 . S
C58 O48 1.258 . S
C59 O55 1.260 . S
C59 O56 1.258 . S
H60 C63 0.931 . S
H61 C66 0.928 . S
H62 C68 0.930 . S
C63 H60 0.931 . S
C63 C64 1.413 . S
C63 C65 1.360 1_565 S
C64 C63 1.413 . S
C64 C68 1.429 1_565 S
C65 C63 1.360 1_545 S
C65 C66 1.372 . S
C66 H61 0.928 . S
C66 C65 1.372 . S
C66 C67 1.404 . S
C67 C66 1.404 . S
C67 C68 1.391 . S
C68 H62 0.930 . S
C68 C64 1.429 1_545 S
C68 C67 1.391 . S
H69 C72 0.931 . S
H70 C75 0.928 . S
H71 C77 0.930 . S
C72 H69 0.931 . S
C72 C73 1.413 . S
C72 C74 1.360 . S
C73 C72 1.413 . S
C73 C77 1.429 . S
C74 C72 1.360 . S
C74 C75 1.372 . S
C75 H70 0.928 . S
C75 C74 1.372 . S
C75 C76 1.404 . S
C76 C75 1.404 . S
C76 C77 1.391 . S
C77 H71 0.930 . S
C77 C73 1.429 . S
C77 C76 1.391 . S
H78 C81 0.931 . S
H79 C84 0.928 . S
H80 C86 0.930 . S
C81 H78 0.931 . S
C81 C82 1.413 . S
C81 C83 1.360 1_655 S
C82 C81 1.413 . S
C82 C86 1.429 1_655 S
C83 C81 1.360 1_455 S
C83 C84 1.372 . S
C84 H79 0.928 . S
C84 C83 1.372 . S
C84 C85 1.404 . S
C85 C84 1.404 . S
C85 C86 1.391 . S
C86 H80 0.930 . S
C86 C82 1.429 1_455 S
C86 C85 1.391 . S
H87 C90 0.931 . S
H88 C93 0.928 . S
H89 C95 0.930 . S
C90 H87 0.931 . S
C90 C91 1.413 . S
C90 C92 1.360 1_655 S
C91 C90 1.413 . S
C91 C95 1.429 1_655 S
C92 C90 1.360 1_455 S
C92 C93 1.372 . S
C93 H88 0.928 . S
C93 C92 1.372 . S
C93 C94 1.404 . S
C94 C93 1.404 . S
C94 C95 1.391 . S
C95 H89 0.930 . S
C95 C91 1.429 1_455 S
C95 C94 1.391 . S
H96 C99 0.931 . S
H97 C102 0.928 . S
H98 C104 0.930 . S
C99 H96 0.931 . S
C99 C100 1.413 . S
C99 C101 1.360 . S
C100 C99 1.413 . S
C100 C104 1.429 . S
C101 C99 1.360 . S
C101 C102 1.372 1_545 S
C102 H97 0.928 . S
C102 C101 1.372 1_565 S
C102 C103 1.404 . S
C103 C102 1.404 . S
C103 C104 1.391 1_565 S
C104 H98 0.930 . S
C104 C100 1.429 . S
C104 C103 1.391 1_545 S
H105 C108 0.931 . S
H106 C111 0.928 . S
H107 C113 0.930 . S
C108 H105 0.931 . S
C108 C109 1.413 . S
C108 C110 1.360 . S
C109 C108 1.413 . S
C109 C113 1.429 . S
C110 C108 1.360 . S
C110 C111 1.372 . S
C111 H106 0.928 . S
C111 C110 1.372 . S
C111 C112 1.404 . S
C112 C111 1.404 . S
C112 C113 1.391 . S
C113 H107 0.930 . S
C113 C109 1.429 . S
C113 C112 1.391 . S
H114 C120 0.930 . S
H115 C123 0.930 . S
H116 C124 0.930 . S
H117 C125 0.930 . S
H118 C128 0.930 . S
H119 C129 0.930 . S
C120 H114 0.930 . S
C120 C121 1.355 . S
C120 C122 1.415 . S
C121 C120 1.355 . S
C121 C123 1.419 . S
C122 C120 1.415 . S
C122 C127 1.425 . S
C122 C129 1.409 . S
C123 H115 0.930 . S
C123 C121 1.419 . S
C123 C124 1.362 . S
C124 H116 0.930 . S
C124 C123 1.362 . S
C124 C127 1.409 . S
C125 H117 0.930 . S
C125 C126 1.355 . S
C125 C127 1.415 . S
C126 C125 1.355 . S
C126 C128 1.419 . S
C127 C122 1.425 . S
C127 C124 1.409 . S
C127 C125 1.415 . S
C128 H118 0.930 . S
C128 C126 1.419 . S
C128 C129 1.362 . S
C129 H119 0.930 . S
C129 C122 1.409 . S
C129 C128 1.362 . S
H130 C136 0.930 . S
H131 C139 0.930 . S
H132 C140 0.930 . S
H133 C141 0.930 . S
H134 C144 0.930 . S
H135 C145 0.930 . S
C136 H130 0.930 . S
C136 C137 1.355 . S
C136 C138 1.415 . S
C137 C136 1.355 . S
C137 C139 1.419 . S
C138 C136 1.415 . S
C138 C143 1.425 . S
C138 C145 1.409 . S
C139 H131 0.930 . S
C139 C137 1.419 . S
C139 C140 1.362 . S
C140 H132 0.930 . S
C140 C139 1.362 . S
C140 C143 1.409 . S
C141 H133 0.930 . S
C141 C142 1.355 . S
C141 C143 1.415 . S
C142 C141 1.355 . S
C142 C144 1.419 . S
C143 C138 1.425 . S
C143 C140 1.409 . S
C143 C141 1.415 . S
C144 H134 0.930 . S
C144 C142 1.419 . S
C144 C145 1.362 . S
C145 H135 0.930 . S
C145 C138 1.409 . S
C145 C144 1.362 . S
H146 C152 0.930 . S
H147 C155 0.930 . S
H148 C156 0.930 . S
H149 C157 0.930 . S
H150 C160 0.930 . S
H151 C161 0.930 . S
C152 H146 0.930 . S
C152 C153 1.355 . S
C152 C154 1.415 . S
C153 C152 1.355 . S
C153 C155 1.419 . S
C154 C152 1.415 . S
C154 C159 1.425 . S
C154 C161 1.409 . S
C155 H147 0.930 . S
C155 C153 1.419 . S
C155 C156 1.362 . S
C156 H148 0.930 . S
C156 C155 1.362 . S
C156 C159 1.409 . S
C157 H149 0.930 . S
C157 C158 1.355 . S
C157 C159 1.415 . S
C158 C157 1.355 . S
C158 C160 1.419 . S
C159 C154 1.425 . S
C159 C156 1.409 . S
C159 C157 1.415 . S
C160 H150 0.930 . S
C160 C158 1.419 . S
C160 C161 1.362 . S
C161 H151 0.930 . S
C161 C154 1.409 . S
C161 C160 1.362 . S
H162 C168 0.930 . S
H163 C171 0.930 . S
H164 C172 0.930 . S
H165 C173 0.930 . S
H166 C176 0.930 . S
H167 C177 0.930 . S
C168 H162 0.930 . S
C168 C169 1.355 . S
C168 C170 1.415 . S
C169 C168 1.355 . S
C169 C171 1.419 . S
C170 C168 1.415 . S
C170 C175 1.425 . S
C170 C177 1.409 . S
C171 H163 0.930 . S
C171 C169 1.419 . S
C171 C172 1.362 . S
C172 H164 0.930 . S
C172 C171 1.362 . S
C172 C175 1.409 . S
C173 H165 0.930 . S
C173 C174 1.355 . S
C173 C175 1.415 . S
C174 C173 1.355 . S
C174 C176 1.419 . S
C175 C170 1.425 . S
C175 C172 1.409 . S
C175 C173 1.415 . S
C176 H166 0.930 . S
C176 C174 1.419 . S
C176 C177 1.362 . S
C177 H167 0.930 . S
C177 C170 1.409 . S
C177 C176 1.362 . S
H178 C184 0.930 . S
H179 C187 0.930 . S
H180 C188 0.930 . S
H181 C189 0.930 . S
H182 C192 0.930 . S
H183 C193 0.930 . S
C184 H178 0.930 . S
C184 C185 1.355 . S
C184 C186 1.415 . S
C185 C184 1.355 . S
C185 C187 1.419 . S
C186 C184 1.415 . S
C186 C191 1.425 . S
C186 C193 1.409 . S
C187 H179 0.930 . S
C187 C185 1.419 . S
C187 C188 1.362 . S
C188 H180 0.930 . S
C188 C187 1.362 . S
C188 C191 1.409 . S
C189 H181 0.930 . S
C189 C190 1.355 . S
C189 C191 1.415 . S
C190 C189 1.355 . S
C190 C192 1.419 . S
C191 C186 1.425 . S
C191 C188 1.409 . S
C191 C189 1.415 . S
C192 H182 0.930 . S
C192 C190 1.419 . S
C192 C193 1.362 . S
C193 H183 0.930 . S
C193 C186 1.409 . S
C193 C192 1.362 . S
H194 C200 0.930 . S
H195 C203 0.930 . S
H196 C204 0.930 . S
H197 C205 0.930 . S
H198 C208 0.930 . S
H199 C209 0.930 . S
C200 H194 0.930 . S
C200 C201 1.355 . S
C200 C202 1.415 . S
C201 C200 1.355 . S
C201 C203 1.419 . S
C202 C200 1.415 . S
C202 C207 1.425 . S
C202 C209 1.409 . S
C203 H195 0.930 . S
C203 C201 1.419 . S
C203 C204 1.362 . S
C204 H196 0.930 . S
C204 C203 1.362 . S
C204 C207 1.409 . S
C205 H197 0.930 . S
C205 C206 1.355 . S
C205 C207 1.415 . S
C206 C205 1.355 . S
C206 C208 1.419 . S
C207 C202 1.425 . S
C207 C204 1.409 . S
C207 C205 1.415 . S
C208 H198 0.930 . S
C208 C206 1.419 . S
C208 C209 1.362 . S
C209 H199 0.930 . S
C209 C202 1.409 . S
C209 C208 1.362 . S
H210 C216 0.930 . S
H211 C219 0.930 . S
H212 C220 0.930 . S
H213 C221 0.930 . S
H214 C224 0.930 . S
H215 C225 0.930 . S
C216 H210 0.930 . S
C216 C217 1.355 . S
C216 C218 1.415 . S
C217 C216 1.355 . S
C217 C219 1.419 . S
C218 C216 1.415 . S
C218 C223 1.425 . S
C218 C225 1.409 . S
C219 H211 0.930 . S
C219 C217 1.419 . S
C219 C220 1.362 . S
C220 H212 0.930 . S
C220 C219 1.362 . S
C220 C223 1.409 . S
C221 H213 0.930 . S
C221 C222 1.355 . S
C221 C223 1.415 . S
C222 C221 1.355 . S
C222 C224 1.419 . S
C223 C218 1.425 . S
C223 C220 1.409 . S
C223 C221 1.415 . S
C224 H214 0.930 . S
C224 C222 1.419 . S
C224 C225 1.362 . S
C225 H215 0.930 . S
C225 C218 1.409 . S
C225 C224 1.362 . S
H226 C232 0.930 . S
H227 C235 0.930 . S
H228 C236 0.930 . S
H229 C237 0.930 . S
H230 C240 0.930 . S
H231 C241 0.930 . S
C232 H226 0.930 . S
C232 C233 1.355 . S
C232 C234 1.415 . S
C233 C232 1.355 . S
C233 C235 1.419 . S
C234 C232 1.415 . S
C234 C239 1.425 . S
C234 C241 1.409 . S
C235 H227 0.930 . S
C235 C233 1.419 . S
C235 C236 1.362 . S
C236 H228 0.930 . S
C236 C235 1.362 . S
C236 C239 1.409 . S
C237 H229 0.930 . S
C237 C238 1.355 . S
C237 C239 1.415 . S
C238 C237 1.355 . S
C238 C240 1.419 . S
C239 C234 1.425 . S
C239 C236 1.409 . S
C239 C237 1.415 . S
C240 H230 0.930 . S
C240 C238 1.419 . S
C240 C241 1.362 . S
C241 H231 0.930 . S
C241 C234 1.409 . S
C241 C240 1.362 . S
H242 C248 0.930 . S
H243 C251 0.930 . S
H244 C252 0.930 . S
H245 C253 0.930 . S
H246 C256 0.930 . S
H247 C257 0.930 . S
C248 H242 0.930 . S
C248 C249 1.355 . S
C248 C250 1.415 . S
C249 C248 1.355 . S
C249 C251 1.419 . S
C250 C248 1.415 . S
C250 C255 1.425 . S
C250 C257 1.409 . S
C251 H243 0.930 . S
C251 C249 1.419 . S
C251 C252 1.362 . S
C252 H244 0.930 . S
C252 C251 1.362 . S
C252 C255 1.409 . S
C253 H245 0.930 . S
C253 C254 1.355 . S
C253 C255 1.415 . S
C254 C253 1.355 . S
C254 C256 1.419 . S
C255 C250 1.425 . S
C255 C252 1.409 . S
C255 C253 1.415 . S
C256 H246 0.930 . S
C256 C254 1.419 . S
C256 C257 1.362 . S
C257 H247 0.930 . S
C257 C250 1.409 . S
C257 C256 1.362 . S
H258 C264 0.930 . S
H259 C267 0.930 . S
H260 C268 0.930 . S
H261 C269 0.930 . S
H262 C272 0.930 . S
H263 C273 0.930 . S
C264 H258 0.930 . S
C264 C265 1.355 . S
C264 C266 1.415 . S
C265 C264 1.355 . S
C265 C267 1.419 . S
C266 C264 1.415 . S
C266 C271 1.425 . S
C266 C273 1.409 . S
C267 H259 0.930 . S
C267 C265 1.419 . S
C267 C268 1.362 . S
C268 H260 0.930 . S
C268 C267 1.362 . S
C268 C271 1.409 . S
C269 H261 0.930 . S
C269 C270 1.355 . S
C269 C271 1.415 . S
C270 C269 1.355 . S
C270 C272 1.419 . S
C271 C266 1.425 . S
C271 C268 1.409 . S
C271 C269 1.415 . S
C272 H262 0.930 . S
C272 C270 1.419 . S
C272 C273 1.362 . S
C273 H263 0.930 . S
C273 C266 1.409 . S
C273 C272 1.362 . S
H274 C280 0.930 . S
H275 C283 0.930 . S
H276 C284 0.930 . S
H277 C285 0.930 . S
H278 C288 0.930 . S
H279 C289 0.930 . S
C280 H274 0.930 . S
C280 C281 1.355 . S
C280 C282 1.415 . S
C281 C280 1.355 . S
C281 C283 1.419 . S
C282 C280 1.415 . S
C282 C287 1.425 . S
C282 C289 1.409 . S
C283 H275 0.930 . S
C283 C281 1.419 . S
C283 C284 1.362 . S
C284 H276 0.930 . S
C284 C283 1.362 . S
C284 C287 1.409 . S
C285 H277 0.930 . S
C285 C286 1.355 . S
C285 C287 1.415 . S
C286 C285 1.355 . S
C286 C288 1.419 . S
C287 C282 1.425 . S
C287 C284 1.409 . S
C287 C285 1.415 . S
C288 H278 0.930 . S
C288 C286 1.419 . S
C288 C289 1.362 . S
C289 H279 0.930 . S
C289 C282 1.409 . S
C289 C288 1.362 . S
H290 C296 0.930 . S
H291 C299 0.930 . S
H292 C300 0.930 . S
H293 C301 0.930 . S
H294 C304 0.930 . S
H295 C305 0.930 . S
C296 H290 0.930 . S
C296 C297 1.355 . S
C296 C298 1.415 . S
C297 C296 1.355 . S
C297 C299 1.419 . S
C298 C296 1.415 . S
C298 C303 1.425 . S
C298 C305 1.409 . S
C299 H291 0.930 . S
C299 C297 1.419 . S
C299 C300 1.362 . S
C300 H292 0.930 . S
C300 C299 1.362 . S
C300 C303 1.409 . S
C301 H293 0.930 . S
C301 C302 1.355 . S
C301 C303 1.415 . S
C302 C301 1.355 . S
C302 C304 1.419 . S
C303 C298 1.425 . S
C303 C300 1.409 . S
C303 C301 1.415 . S
C304 H294 0.930 . S
C304 C302 1.419 . S
C304 C305 1.362 . S
C305 H295 0.930 . S
C305 C298 1.409 . S
C305 C304 1.362 . S
H306 C312 0.930 . S
H307 C315 0.930 . S
H308 C316 0.930 . S
H309 C317 0.930 . S
H310 C320 0.930 . S
H311 C321 0.934 1_655 S
C312 H306 0.930 . S
C312 C313 1.355 . S
C312 C314 1.415 . S
C313 C312 1.355 . S
C313 C315 1.419 . S
C314 C312 1.415 . S
C314 C319 1.425 . S
C314 C321 1.409 . S
C315 H307 0.930 . S
C315 C313 1.419 . S
C315 C316 1.362 . S
C316 H308 0.930 . S
C316 C315 1.362 . S
C316 C319 1.409 . S
C317 H309 0.930 . S
C317 C318 1.355 . S
C317 C319 1.415 1_556 S
C318 C317 1.355 . S
C318 C320 1.419 . S
C319 C314 1.425 . S
C319 C316 1.409 . S
C319 C317 1.415 1_554 S
C320 H310 0.930 . S
C320 C318 1.419 . S
C320 C321 1.362 1_556 S
C321 H311 0.934 1_455 S
C321 C314 1.409 . S
C321 C320 1.362 1_554 S
H322 C328 0.930 . S
H323 C331 0.930 . S
H324 C332 0.930 . S
H325 C333 0.930 . S
H326 C336 0.930 . S
H327 C337 0.930 . S
C328 H322 0.930 . S
C328 C329 1.355 1_565 S
C328 C330 1.415 . S
C329 C328 1.355 1_545 S
C329 C331 1.419 . S
C330 C328 1.415 . S
C330 C335 1.425 1_565 S
C330 C337 1.409 . S
C331 H323 0.930 . S
C331 C329 1.419 . S
C331 C332 1.362 . S
C332 H324 0.930 . S
C332 C331 1.362 . S
C332 C335 1.409 . S
C333 H325 0.930 . S
C333 C334 1.355 . S
C333 C335 1.415 . S
C334 C333 1.355 . S
C334 C336 1.419 1_545 S
C335 C330 1.425 1_545 S
C335 C332 1.409 . S
C335 C333 1.415 . S
C336 H326 0.930 . S
C336 C334 1.419 1_565 S
C336 C337 1.362 . S
C337 H327 0.930 . S
C337 C330 1.409 . S
C337 C336 1.362 . S
H338 C344 0.930 . S
H339 C347 0.930 . S
H340 C348 0.930 . S
H341 C349 0.930 . S
H342 C352 0.930 . S
H343 C353 0.930 . S
C344 H338 0.930 . S
C344 C345 1.355 . S
C344 C346 1.415 . S
C345 C344 1.355 . S
C345 C347 1.419 . S
C346 C344 1.415 . S
C346 C351 1.425 . S
C346 C353 1.409 . S
C347 H339 0.930 . S
C347 C345 1.419 . S
C347 C348 1.362 . S
C348 H340 0.930 . S
C348 C347 1.362 . S
C348 C351 1.409 . S
C349 H341 0.930 . S
C349 C350 1.355 . S
C349 C351 1.415 . S
C350 C349 1.355 . S
C350 C352 1.419 . S
C351 C346 1.425 . S
C351 C348 1.409 . S
C351 C349 1.415 . S
C352 H342 0.930 . S
C352 C350 1.419 . S
C352 C353 1.362 . S
C353 H343 0.930 . S
C353 C346 1.409 . S
C353 C352 1.362 . S
H354 C360 0.930 . S
H355 C363 0.930 . S
H356 C364 0.930 . S
H357 C365 0.930 . S
H358 C368 0.930 . S
H359 C369 0.930 . S
C360 H354 0.930 . S
C360 C361 1.355 . S
C360 C362 1.415 . S
C361 C360 1.355 . S
C361 C363 1.419 1_545 S
C362 C360 1.415 . S
C362 C367 1.425 1_545 S
C362 C369 1.409 . S
C363 H355 0.930 . S
C363 C361 1.419 1_565 S
C363 C364 1.362 . S
C364 H356 0.930 . S
C364 C363 1.362 . S
C364 C367 1.409 . S
C365 H357 0.930 . S
C365 C366 1.355 1_565 S
C365 C367 1.415 . S
C366 C365 1.355 1_545 S
C366 C368 1.419 . S
C367 C362 1.425 1_565 S
C367 C364 1.409 . S
C367 C365 1.415 . S
C368 H358 0.930 . S
C368 C366 1.419 . S
C368 C369 1.362 . S
C369 H359 0.930 . S
C369 C362 1.409 . S
C369 C368 1.362 . S
H370 C376 0.930 . S
H371 C379 0.930 . S
H372 C380 0.930 . S
H373 C381 0.930 . S
H374 C384 0.930 . S
H375 C385 0.930 . S
C376 H370 0.930 . S
C376 C377 1.355 . S
C376 C378 1.415 . S
C377 C376 1.355 . S
C377 C379 1.419 . S
C378 C376 1.415 . S
C378 C383 1.425 . S
C378 C385 1.409 . S
C379 H371 0.930 . S
C379 C377 1.419 . S
C379 C380 1.362 . S
C380 H372 0.930 . S
C380 C379 1.362 . S
C380 C383 1.409 . S
C381 H373 0.930 . S
C381 C382 1.355 . S
C381 C383 1.415 1_554 S
C382 C381 1.355 . S
C382 C384 1.419 . S
C383 C378 1.425 . S
C383 C380 1.409 . S
C383 C381 1.415 1_556 S
C384 H374 0.930 . S
C384 C382 1.419 . S
C384 C385 1.362 1_554 S
C385 H375 0.930 . S
C385 C378 1.409 . S
C385 C384 1.362 1_556 S
H386 C392 0.930 . S
H387 C395 0.925 . S
H388 C396 0.930 . S
H389 C397 0.930 . S
H390 C400 0.930 . S
H391 C401 0.930 . S
C392 H386 0.930 . S
C392 C393 1.351 . S
C392 C394 1.415 . S
C393 C392 1.351 . S
C393 C395 1.432 1_455 S
C394 C392 1.415 . S
C394 C399 1.425 . S
C394 C401 1.409 . S
C395 H387 0.925 . S
C395 C393 1.432 1_655 S
C395 C396 1.360 1_655 S
C396 H388 0.930 . S
C396 C395 1.360 1_455 S
C396 C399 1.409 . S
C397 H389 0.930 . S
C397 C398 1.355 . S
C397 C399 1.415 . S
C398 C397 1.355 . S
C398 C400 1.419 . S
C399 C394 1.425 . S
C399 C396 1.409 . S
C399 C397 1.415 . S
C400 H390 0.930 . S
C400 C398 1.419 . S
C400 C401 1.362 . S
C401 H391 0.930 . S
C401 C394 1.409 . S
C401 C400 1.362 . S
C121 C2 1.383 . S
C126 C109 1.484 . S
C137 C22 1.325 . S
C142 C91 1.480 . S
C153 C44 1.389 . S
C158 C103 1.483 . S
C169 C4 1.419 . S
C174 C112 1.573 . S
C190 C94 1.548 . S
C185 C24 1.506 . S
C206 C100 1.549 . S
C201 C42 1.498 . S
C217 C32 1.301 . S
C222 C73 1.289 . S
C233 C49 1.268 . S
C238 C82 1.321 . S
C249 C9 1.288 . S
C254 C64 1.305 . S
C270 C76 1.274 . S
C265 C29 1.237 . S
C286 C85 1.298 . S
C281 C52 1.169 . S
C297 C12 1.265 . S
C302 C67 1.273 . S
C318 C83 1.431 . S
C313 C18 1.419 1_455 S
C329 C38 1.438 . S
C334 C65 1.433 . S
C345 C58 1.397 . S
C350 C74 1.431 . S
C366 C101 1.511 . S
C361 C39 1.509 . S
C382 C110 1.499 . S
C377 C59 1.473 . S
C393 C19 1.452 . S
C398 C92 1.500 . S
