# Generated by pormake.
# Topology zzz, (3,6)-cn, num edge types: 1
# Building blocks:
#     Node 0, Type 0, BuildingBlock: ESEHIV_clean_linker_0, # of connection points: 3
#     Node 1, Type 0, BuildingBlock: ESEHIV_clean_linker_0, # of connection points: 3
#     Node 2, Type 0, BuildingBlock: ESEHIV_clean_linker_0, # of connection points: 3
#     Node 3, Type 0, BuildingBlock: ESEHIV_clean_linker_0, # of connection points: 3
#     Node 4, Type 0, BuildingBlock: ESEHIV_clean_linker_0, # of connection points: 3
#     Node 5, Type 0, BuildingBlock: ESEHIV_clean_linker_0, # of connection points: 3
#     Node 6, Type 0, BuildingBlock: ESEHIV_clean_linker_0, # of connection points: 3
#     Node 7, Type 0, BuildingBlock: ESEHIV_clean_linker_0, # of connection points: 3
#     Node 8, Type 1, BuildingBlock: GEDQOX_clean_sbu_0, # of connection points: 6
#     Node 9, Type 1, BuildingBlock: GEDQOX_clean_sbu_0, # of connection points: 6
#     Node 10, Type 1, BuildingBlock: GEDQOX_clean_sbu_0, # of connection points: 6
#     Node 11, Type 1, BuildingBlock: GEDQOX_clean_sbu_0, # of connection points: 6
#     Edge 12, Type (0, 1), BuildingBlock: XIVTED_clean_linker_0, # of connection points: 2
#     Edge 13, Type (0, 1), BuildingBlock: XIVTED_clean_linker_0, # of connection points: 2
#     Edge 14, Type (0, 1), BuildingBlock: XIVTED_clean_linker_0, # of connection points: 2
#     Edge 15, Type (0, 1), BuildingBlock: XIVTED_clean_linker_0, # of connection points: 2
#     Edge 16, Type (0, 1), BuildingBlock: XIVTED_clean_linker_0, # of connection points: 2
#     Edge 17, Type (0, 1), BuildingBlock: XIVTED_clean_linker_0, # of connection points: 2
#     Edge 18, Type (0, 1), BuildingBlock: XIVTED_clean_linker_0, # of connection points: 2
#     Edge 19, Type (0, 1), BuildingBlock: XIVTED_clean_linker_0, # of connection points: 2
#     Edge 20, Type (0, 1), BuildingBlock: XIVTED_clean_linker_0, # of connection points: 2
#     Edge 21, Type (0, 1), BuildingBlock: XIVTED_clean_linker_0, # of connection points: 2
#     Edge 22, Type (0, 1), BuildingBlock: XIVTED_clean_linker_0, # of connection points: 2
#     Edge 23, Type (0, 1), BuildingBlock: XIVTED_clean_linker_0, # of connection points: 2
#     Edge 24, Type (0, 1), BuildingBlock: XIVTED_clean_linker_0, # of connection points: 2
#     Edge 25, Type (0, 1), BuildingBlock: XIVTED_clean_linker_0, # of connection points: 2
#     Edge 26, Type (0, 1), BuildingBlock: XIVTED_clean_linker_0, # of connection points: 2
#     Edge 27, Type (0, 1), BuildingBlock: XIVTED_clean_linker_0, # of connection points: 2
#     Edge 28, Type (0, 1), BuildingBlock: XIVTED_clean_linker_0, # of connection points: 2
#     Edge 29, Type (0, 1), BuildingBlock: XIVTED_clean_linker_0, # of connection points: 2
#     Edge 30, Type (0, 1), BuildingBlock: XIVTED_clean_linker_0, # of connection points: 2
#     Edge 31, Type (0, 1), BuildingBlock: XIVTED_clean_linker_0, # of connection points: 2
#     Edge 32, Type (0, 1), BuildingBlock: XIVTED_clean_linker_0, # of connection points: 2
#     Edge 33, Type (0, 1), BuildingBlock: XIVTED_clean_linker_0, # of connection points: 2
#     Edge 34, Type (0, 1), BuildingBlock: XIVTED_clean_linker_0, # of connection points: 2
#     Edge 35, Type (0, 1), BuildingBlock: XIVTED_clean_linker_0, # of connection points: 2
# Relax obj value: 0.314
# Max RMSD: 0.320
# Mean RMSD: 0.195
data_MOF--net-zzz--node1-GEDQOX_clean_sbu_0--node2-ESEHIV_clean_linker_0--edge1-XIVTED_clean_linker_0
_symmetry_space_group_name_H-M    P1
_symmetry_Int_Tables_number       1
_symmetry_cell_setting            triclinic
loop_
_symmetry_equiv_pos_as_xyz
'x, y, z'
_cell_length_a     48.84408
_cell_length_b     45.825604
_cell_length_c     17.949237
_cell_angle_alpha  79.528277
_cell_angle_beta   90.716495
_cell_angle_gamma 104.50982
loop_
_atom_site_label
_atom_site_type_symbol
_atom_site_fract_x
_atom_site_fract_y
_atom_site_fract_z
_atom_type_partial_charge
H0 H 0.81685 0.47251 0.1759 0.0
H1 H 0.7492 0.4604 0.01876 0.0
H2 H 0.74586 0.50968 0.19927 0.0
C3 C 0.79612 0.47478 0.1578 0.0
C4 C 0.78208 0.49091 0.19695 0.0
C5 C 0.7849 0.46418 0.09221 0.0
C6 C 0.75843 0.46857 0.06872 0.0
C7 C 0.74449 0.48514 0.10681 0.0
C8 C 0.7565 0.49658 0.17036 0.0
H9 H 0.01678 0.79459 0.34833 0.0
H10 H 0.02342 0.75318 0.15553 0.0
H11 H 0.99559 0.69653 0.37407 0.0
C12 C 0.01462 0.77441 0.32305 0.0
C13 C 0.00465 0.74555 0.36885 0.0
C14 C 0.02092 0.77763 0.24578 0.0
C15 C 0.01914 0.75108 0.21558 0.0
C16 C 0.01108 0.72165 0.26148 0.0
C17 C 0.00282 0.71891 0.33831 0.0
H18 H 0.70753 0.0248 0.12228 0.0
H19 H 0.78315 0.04854 0.98186 0.0
H20 H 0.77475 0.98155 0.1888 0.0
C21 C 0.72858 0.02232 0.11182 0.0
C22 C 0.73936 1.00147 0.16331 0.0
C23 C 0.74419 0.03942 0.04638 0.0
C24 C 0.77099 0.0353 0.03232 0.0
C25 C 0.78229 0.01445 0.08319 0.0
C26 C 0.76649 0.99792 0.14955 0.0
H27 H 0.61209 0.77873 0.38773 0.0
H28 H 0.54764 0.8242 0.4187 0.0
H29 H 0.61028 0.86264 0.23749 0.0
C30 C 0.604 0.79889 0.37253 0.0
C31 C 0.61381 0.81999 0.30543 0.0
C32 C 0.58067 0.80048 0.41498 0.0
C33 C 0.56728 0.82439 0.391 0.0
C34 C 0.57813 0.84691 0.32636 0.0
C35 C 0.60252 0.84559 0.28786 0.0
H36 H 0.22786 0.59656 0.51932 0.0
H37 H 0.29251 0.60429 0.68467 0.0
H38 H 0.30053 0.56255 0.49192 0.0
C39 C 0.24846 0.59398 0.53803 0.0
C40 C 0.26344 0.57951 0.49674 0.0
C41 C 0.25853 0.60255 0.60654 0.0
C42 C 0.28451 0.5975 0.63214 0.0
C43 C 0.30006 0.58351 0.59057 0.0
C44 C 0.28922 0.57429 0.52316 0.0
H45 H 0.02607 0.27427 0.34369 0.0
H46 H 0.0192 0.31417 0.53889 0.0
H47 H 0.04699 0.3722 0.32188 0.0
C48 C 0.02811 0.29423 0.36982 0.0
C49 C 0.03802 0.3233 0.32503 0.0
C50 C 0.02185 0.29048 0.44725 0.0
C51 C 0.02348 0.3167 0.47869 0.0
C52 C 0.03146 0.34637 0.43387 0.0
C53 C 0.03977 0.34964 0.35682 0.0
H54 H 0.32991 0.0428 0.50434 0.0
H55 H 0.25917 0.01629 0.66188 0.0
H56 H 0.25633 0.07626 0.44728 0.0
C57 C 0.30856 0.04338 0.51864 0.0
C58 C 0.2948 0.06177 0.46875 0.0
C59 C 0.29557 0.0265 0.58749 0.0
C60 C 0.26849 0.02837 0.60694 0.0
C61 C 0.25373 0.04599 0.55679 0.0
C62 C 0.26711 0.06254 0.48695 0.0
H63 H 0.43466 0.30258 0.35206 0.0
H64 H 0.47233 0.2431 0.25111 0.0
H65 H 0.42979 0.21168 0.47111 0.0
C66 C 0.4381 0.28005 0.35321 0.0
C67 C 0.4307 0.2577 0.41901 0.0
C68 C 0.45299 0.27524 0.292 0.0
C69 C 0.45949 0.24659 0.29585 0.0
C70 C 0.45054 0.2231 0.3603 0.0
C71 C 0.43536 0.22882 0.4198 0.0
Nd72 Nd 0.00627 0.01615 0.79148 0.0
Nd73 Nd 0.03751 0.053 0.90452 0.0
C74 C 0.97422 0.97253 0.72672 0.0
C75 C 0.97503 0.94197 0.71218 0.0
C76 C 0.94987 0.91874 0.71634 0.0
C77 C 0.95003 0.89005 0.69971 0.0
C78 C 0.97539 0.88398 0.67811 0.0
C79 C 0.00069 0.90721 0.6758 0.0
C80 C 0.00053 0.9358 0.69294 0.0
C81 C 0.06204 0.044 0.75042 0.0
C82 C 0.03883 0.98279 0.93259 0.0
C83 C 0.06974 0.09678 0.96844 0.0
C84 C 0.06883 0.12731 0.98304 0.0
C85 C 0.09394 0.15059 0.97916 0.0
C86 C 0.09367 0.17926 0.9957 0.0
C87 C 0.06823 0.18528 0.01694 0.0
C88 C 0.04298 0.16198 0.019 0.0
C89 C 0.04326 0.13341 1.00194 0.0
C90 C 0.98185 0.02477 0.94577 0.0
C91 C 0.00459 0.08626 0.76423 0.0
O92 O 0.9704 0.97468 0.79735 0.0
O93 O 0.99287 0.99621 0.68934 0.0
O94 O 0.04168 0.04187 0.70304 0.0
O95 O 0.05273 0.03081 0.8164 0.0
O96 O 0.01909 0.97976 0.88161 0.0
O97 O 0.05243 0.00981 0.94666 0.0
O98 O 0.07328 0.0946 0.8977 0.0
O99 O 0.0513 0.07303 0.00633 0.0
O100 O 0.00204 0.0279 0.99361 0.0
O101 O 0.99112 0.03799 0.87985 0.0
O102 O 0.02446 0.08932 0.81481 0.0
O103 O 0.99106 0.05923 0.75004 0.0
H104 H 0.92999 0.92288 0.73174 0.0
H105 H 0.93019 0.87269 0.70355 0.0
H106 H 0.02061 0.90373 0.6585 0.0
H107 H 0.0203 0.95327 0.68986 0.0
H108 H 0.11387 0.14649 0.96401 0.0
H109 H 0.11347 0.19666 0.99205 0.0
H110 H 0.023 0.16542 0.03601 0.0
H111 H 0.02353 0.11591 0.0048 0.0
Nd112 Nd 0.52849 0.01035 0.78594 0.0
Nd113 Nd 0.51563 0.06267 0.86933 0.0
C114 C 0.54423 0.96242 0.75628 0.0
C115 C 0.56199 0.95669 0.69739 0.0
C116 C 0.58305 0.94118 0.71894 0.0
C117 C 0.60179 0.93792 0.66455 0.0
C118 C 0.59965 0.94993 0.58748 0.0
C119 C 0.57805 0.96478 0.56587 0.0
C120 C 0.5595 0.96828 0.62029 0.0
C121 C 0.51855 0.05847 0.6803 0.0
C122 C 0.58091 0.06835 0.81007 0.0
C123 C 0.50432 0.11045 0.91311 0.0
C124 C 0.48044 0.11319 0.95804 0.0
C125 C 0.48115 0.14037 0.98417 0.0
C126 C 0.45871 0.14222 0.02952 0.0
C127 C 0.4352 0.11688 0.04922 0.0
C128 C 0.43455 0.08984 0.02179 0.0
C129 C 0.45694 0.08802 0.97681 0.0
C130 C 0.51631 0.00789 0.96255 0.0
C131 C 0.46361 0.00836 0.83211 0.0
O132 O 0.55775 0.97995 0.80192 0.0
O133 O 0.52002 0.96833 0.73574 0.0
O134 O 0.52509 0.03495 0.6614 0.0
O135 O 0.51864 0.0555 0.75123 0.0
O136 O 0.57257 0.04214 0.78544 0.0
O137 O 0.56345 0.08098 0.84153 0.0
O138 O 0.49804 0.10335 0.84632 0.0
O139 O 0.52096 0.09482 0.95006 0.0
O140 O 0.5008 0.02565 0.97652 0.0
O141 O 0.53218 0.02063 0.90464 0.0
O142 O 0.47197 0.03747 0.83877 0.0
O143 O 0.48155 0.99158 0.82447 0.0
H144 H 0.58539 0.93218 0.77815 0.0
H145 H 0.61809 0.92621 0.68283 0.0
H146 H 0.57612 0.9747 0.50709 0.0
H147 H 0.54368 0.98069 0.60214 0.0
H148 H 0.49916 0.16002 0.97019 0.0
H149 H 0.4598 0.16344 0.04929 0.0
H150 H 0.41711 0.06968 0.03697 0.0
H151 H 0.45614 0.06674 0.95759 0.0
Nd152 Nd 0.51237 0.55008 0.92328 0.0
Nd153 Nd 0.53512 0.5288 0.79996 0.0
C154 C 0.49725 0.58275 0.01346 0.0
C155 C 0.51713 0.60837 0.0397 0.0
C156 C 0.50956 0.63571 0.04194 0.0
C157 C 0.53003 0.66152 0.05516 0.0
C158 C 0.5584 0.66035 0.06601 0.0
C159 C 0.56573 0.63274 0.06507 0.0
C160 C 0.54537 0.60709 0.05167 0.0
C161 C 0.56428 0.53826 0.95057 0.0
C162 C 0.54578 0.60094 0.77749 0.0
C163 C 0.55752 0.4973 0.71991 0.0
C164 C 0.54605 0.46564 0.70797 0.0
C165 C 0.53696 0.4415 0.77001 0.0
C166 C 0.51932 0.41359 0.75928 0.0
C167 C 0.51038 0.40941 0.68648 0.0
C168 C 0.5215 0.43265 0.62393 0.0
C169 C 0.53916 0.46052 0.63463 0.0
C170 C 0.48401 0.54136 0.76748 0.0
C171 C 0.49588 0.47817 0.9388 0.0
O172 O 0.49294 0.5874 0.94077 0.0
O173 O 0.50137 0.55563 0.03847 0.0
O174 O 0.54348 0.5299 0.99963 0.0
O175 O 0.55777 0.55273 0.88935 0.0
O176 O 0.52641 0.59424 0.83267 0.0
O177 O 0.55694 0.57957 0.76005 0.0
O178 O 0.5654 0.50083 0.78837 0.0
O179 O 0.54288 0.51647 0.68992 0.0
O180 O 0.50485 0.5472 0.71872 0.0
O181 O 0.48951 0.52745 0.8312 0.0
O182 O 0.51616 0.48391 0.88616 0.0
O183 O 0.48614 0.5006 0.95582 0.0
H184 H 0.48805 0.63734 0.03143 0.0
H185 H 0.52368 0.68243 0.05668 0.0
H186 H 0.5874 0.63119 0.07245 0.0
H187 H 0.552 0.58652 0.0482 0.0
H188 H 0.54204 0.44468 0.82736 0.0
H189 H 0.51142 0.396 0.80847 0.0
H190 H 0.51579 0.42971 0.56677 0.0
H191 H 0.54601 0.47874 0.58595 0.0
Nd192 Nd 0.01464 0.55628 0.79347 0.0
Nd193 Nd 0.02795 0.50941 0.90996 0.0
C194 C 0.98881 0.5937 0.70792 0.0
C195 C 0.96404 0.58585 0.66153 0.0
C196 C 0.94894 0.60744 0.63253 0.0
C197 C 0.92479 0.59893 0.59052 0.0
C198 C 0.91544 0.56867 0.57741 0.0
C199 C 0.93086 0.54727 0.60669 0.0
C200 C 0.9548 0.55575 0.64846 0.0
C201 C 0.03122 0.51182 0.73326 0.0
C202 C 0.96426 0.49496 0.86592 0.0
C203 C 0.05427 0.47268 0.9961 0.0
C204 C 0.0793 0.48129 0.04116 0.0
C205 C 0.09543 0.46049 0.06823 0.0
C206 C 0.11989 0.46982 0.10847 0.0
C207 C 0.12854 0.50011 0.12182 0.0
C208 C 0.11208 0.52069 0.0945 0.0
C209 C 0.08786 0.51143 0.05434 0.0
C210 C 0.01145 0.55408 0.96945 0.0
C211 C 0.07831 0.57046 0.83663 0.0
O212 O 0.98383 0.585 0.78101 0.0
O213 O 0.01159 0.58728 0.68525 0.0
O214 O 0.03936 0.54091 0.70607 0.0
O215 O 0.01463 0.50683 0.7901 0.0
O216 O 0.971 0.52439 0.83544 0.0
O217 O 0.98391 0.48102 0.89137 0.0
O218 O 0.0588 0.48073 0.92276 0.0
O219 O 0.03149 0.47906 0.0189 0.0
O220 O 0.00318 0.52502 0.99691 0.0
O221 O 0.02814 0.55887 0.91295 0.0
O222 O 0.07157 0.54091 0.86584 0.0
O223 O 0.05854 0.58453 0.81344 0.0
H224 H 0.9557 0.63072 0.64272 0.0
H225 H 0.91329 0.6159 0.56915 0.0
H226 H 0.9247 0.52398 0.59645 0.0
H227 H 0.96617 0.53871 0.67072 0.0
H228 H 0.08924 0.43722 0.0578 0.0
H229 H 0.13219 0.45346 0.12822 0.0
H230 H 0.11765 0.54396 0.10499 0.0
H231 H 0.07575 0.52789 0.03341 0.0
H232 H 0.22895 0.09483 0.52486 0.0
H233 H 0.10286 0.02078 0.82609 0.0
H234 H 0.21216 1.00046 0.6408 0.0
H235 H 0.08829 0.07728 0.61704 0.0
H236 H 0.14988 0.02286 0.77619 0.0
H237 H 0.18266 0.09707 0.57169 0.0
C238 C 0.21562 0.07452 0.55946 0.0
C239 C 0.22488 0.0475 0.57952 0.0
C240 C 0.13644 0.03503 0.74167 0.0
C241 C 0.17257 0.05055 0.63533 0.0
C242 C 0.10976 0.03407 0.77021 0.0
C243 C 0.0917 0.04874 0.72526 0.0
C244 C 0.14532 0.05133 0.66845 0.0
C245 C 0.10163 0.06554 0.65311 0.0
C246 C 0.18934 0.07599 0.58657 0.0
C247 C 0.2066 0.02214 0.62558 0.0
N248 N 0.1279 0.06645 0.62675 0.0
N249 N 0.18157 0.02443 0.65264 0.0
H250 H 0.50503 0.2175 0.3492 0.0
H251 H 0.47927 0.08943 0.70294 0.0
H252 H 0.41985 0.16444 0.41375 0.0
H253 H 0.53807 0.08211 0.53447 0.0
H254 H 0.46247 0.12643 0.60815 0.0
H255 H 0.52293 0.17533 0.42089 0.0
C256 C 0.49006 0.19658 0.3758 0.0
C257 C 0.46089 0.19467 0.37614 0.0
C258 C 0.47916 0.11678 0.59229 0.0
C259 C 0.48126 0.14741 0.46106 0.0
C260 C 0.48894 0.09602 0.64641 0.0
C261 C 0.51015 0.08292 0.62641 0.0
C262 C 0.49127 0.12514 0.51844 0.0
C263 C 0.52167 0.09181 0.5519 0.0
C264 C 0.50031 0.17276 0.41757 0.0
C265 C 0.44252 0.16707 0.41284 0.0
N266 N 0.51235 0.11271 0.50062 0.0
N267 N 0.453 0.14499 0.4558 0.0
H268 H 0.34907 0.59306 0.50833 0.0
H269 H 0.43528 0.5287 0.85614 0.0
H270 H 0.31292 0.56101 0.73564 0.0
H271 H 0.47042 0.56798 0.63005 0.0
H272 H 0.38991 0.53935 0.81511 0.0
H273 H 0.39355 0.58277 0.55349 0.0
C274 C 0.3505 0.58374 0.56779 0.0
C275 C 0.32728 0.57782 0.61824 0.0
C276 C 0.40761 0.54561 0.77469 0.0
C277 C 0.37827 0.56612 0.67079 0.0
C278 C 0.4334 0.5395 0.79804 0.0
C279 C 0.45646 0.54732 0.74622 0.0
C280 C 0.4051 0.55954 0.69917 0.0
C281 C 0.45311 0.56141 0.67176 0.0
C282 C 0.37595 0.578 0.59373 0.0
C283 C 0.33044 0.56617 0.69499 0.0
N284 N 0.42794 0.56699 0.65052 0.0
N285 N 0.35547 0.56059 0.71898 0.0
H286 H 0.99058 0.35072 0.53009 0.0
H287 H 0.06494 0.51825 0.60733 0.0
H288 H 0.07042 0.40294 0.42039 0.0
H289 H 0.00172 0.45158 0.7572 0.0
H290 H 0.06528 0.4794 0.52937 0.0
H291 H 0.99154 0.39102 0.6022 0.0
C292 C 0.00838 0.37073 0.52106 0.0
C293 C 0.03073 0.37309 0.46993 0.0
C294 C 0.05145 0.47329 0.57949 0.0
C295 C 0.03178 0.41983 0.5525 0.0
C296 C 0.05125 0.4954 0.62402 0.0
C297 C 0.03323 0.48812 0.68879 0.0
C298 C 0.03321 0.44385 0.59936 0.0
C299 C 0.01596 0.4582 0.70785 0.0
C300 C 0.0089 0.39378 0.56243 0.0
C301 C 0.05277 0.40008 0.45921 0.0
N302 N 0.01623 0.4373 0.6631 0.0
N303 N 0.05283 0.42238 0.50049 0.0
H304 H 0.80251 0.00893 0.94649 0.0
H305 H 0.9584 0.00925 0.08955 0.0
H306 H 0.8259 0.00926 0.17903 0.0
H307 H 0.93663 0.02201 0.85426 0.0
H308 H 0.90857 1.0015 0.12598 0.0
H309 H 0.85008 0.00623 0.91463 0.0
C310 C 0.81769 0.00842 0.99093 0.0
C311 C 0.81035 0.00985 0.06533 0.0
C312 C 0.91466 0.00575 0.06642 0.0
C313 C 0.86491 0.00646 0.02928 0.0
C314 C 0.94306 0.01009 0.04561 0.0
C315 C 0.95161 0.01661 0.96877 0.0
C316 C 0.89472 0.00784 0.00992 0.0
C317 C 0.93092 0.0173 0.91414 0.0
C318 C 0.84482 0.00674 0.97274 0.0
C319 C 0.83066 0.00824 0.12096 0.0
N320 N 0.90346 0.01319 0.93576 0.0
N321 N 0.85711 0.00691 0.10166 0.0
H322 H 0.56663 0.89875 0.36386 0.0
H323 H 0.53607 0.9598 0.93729 0.0
H324 H 0.55308 0.842 0.19335 0.0
H325 H 0.50789 0.99732 0.11687 0.0
H326 H 0.54655 0.9187 0.03186 0.0
H327 H 0.54789 0.93723 0.27768 0.0
C328 C 0.55901 0.8941 0.30926 0.0
C329 C 0.56127 0.86725 0.28557 0.0
C330 C 0.53792 0.93582 0.05069 0.0
C331 C 0.54088 0.91113 0.18643 0.0
C332 C 0.53211 0.95936 0.99663 0.0
C333 C 0.52121 0.98199 0.01917 0.0
C334 C 0.53336 0.9352 0.12826 0.0
C335 C 0.51619 0.98017 0.0971 0.0
C336 C 0.54854 0.91604 0.25997 0.0
C337 C 0.5516 0.86243 0.21369 0.0
N338 N 0.52263 0.95739 0.14904 0.0
N339 N 0.54227 0.88428 0.16642 0.0
H340 H 0.69384 0.44467 0.09758 0.0
H341 H 0.61633 0.56768 0.88325 0.0
H342 H 0.73583 0.54103 0.04891 0.0
H343 H 0.57306 0.48978 0.04931 0.0
H344 H 0.66137 0.55408 0.91521 0.0
H345 H 0.64967 0.45688 0.05118 0.0
C346 C 0.69366 0.46834 0.07668 0.0
C347 C 0.71811 0.49198 0.0775 0.0
C348 C 0.6419 0.53998 0.9441 0.0
C349 C 0.66842 0.50595 0.02337 0.0
C350 C 0.61636 0.54762 0.9258 0.0
C351 C 0.59124 0.52994 0.96442 0.0
C352 C 0.64191 0.51408 0.99966 0.0
C353 C 0.59214 0.50415 0.01902 0.0
C354 C 0.66863 0.47527 0.05042 0.0
C355 C 0.71714 0.52231 0.04968 0.0
N356 N 0.61709 0.49688 0.03487 0.0
N357 N 0.69262 0.5285 0.02335 0.0
H358 H 0.05207 0.7165 0.1669 0.0
H359 H 0.97772 0.54817 0.09516 0.0
H360 H 0.97198 0.6651 0.27658 0.0
H361 H 0.04085 0.6143 0.94391 0.0
H362 H 0.97732 0.58752 0.1716 0.0
H363 H 0.05113 0.67558 0.09684 0.0
C364 C 0.03422 0.69653 0.17635 0.0
C365 C 0.01179 0.69458 0.22681 0.0
C366 C 0.99114 0.59339 0.12151 0.0
C367 C 0.01076 0.64715 0.14663 0.0
C368 C 0.99138 0.571 0.07786 0.0
C369 C 0.00939 0.57798 0.01316 0.0
C370 C 0.00935 0.62281 0.10081 0.0
C371 C 0.02662 0.60789 0.99326 0.0
C372 C 0.03372 0.67314 0.13617 0.0
C373 C 0.98969 0.66764 0.23819 0.0
N374 N 0.02632 0.62907 0.03716 0.0
N375 N 0.98964 0.645 0.19805 0.0
H376 H 0.04233 0.2414 0.42987 0.0
H377 H 0.00478 0.13868 0.8152 0.0
H378 H 0.98618 0.26774 0.57489 0.0
H379 H 0.99174 0.09746 0.61558 0.0
H380 H 0.00294 0.18806 0.73725 0.0
H381 H 0.03014 0.19004 0.50496 0.0
C382 C 0.02705 0.23646 0.4765 0.0
C383 C 0.01487 0.25915 0.49473 0.0
C384 C -0.00016 0.16798 0.71116 0.0
C385 C 0.00205 0.20038 0.58312 0.0
C386 C 0.001 0.13997 0.7552 0.0
C387 C -0.00147 0.11421 0.72126 0.0
C388 C 0.99716 0.17022 0.63271 0.0
C389 C 0.99365 0.11687 0.6436 0.0
C390 C 0.02028 0.20707 0.51953 0.0
C391 C 0.99633 0.25127 0.55876 0.0
N392 N 0.99385 0.14469 0.60133 0.0
N393 N 0.99075 0.22256 0.60146 0.0
H394 H 0.32543 0.98682 0.55668 0.0
H395 H 0.43735 0.9605 0.76272 0.0
H396 H 0.30275 0.027 0.73866 0.0
H397 H 0.42027 0.02795 0.8824 0.0
H398 H 0.38864 0.95031 0.72076 0.0
H399 H 0.36063 0.96844 0.63549 0.0
C400 C 0.32741 0.99102 0.61424 0.0
C401 C 0.31164 0.00899 0.64072 0.0
C402 C 0.39544 0.96727 0.75637 0.0
C403 C 0.35176 0.98768 0.73241 0.0
C404 C 0.42318 0.97273 0.78134 0.0
C405 C 0.43307 0.99586 0.82382 0.0
C406 C 0.37782 0.98538 0.77355 0.0
C407 C 0.41373 0.01062 0.84755 0.0
C408 C 0.34739 0.98021 0.65985 0.0
C409 C 0.31464 0.0134 0.7159 0.0
N410 N 0.3872 0.00555 0.82092 0.0
N411 N 0.33483 0.00345 0.75851 0.0
H412 H 0.45207 0.24082 0.55729 0.0
H413 H 0.50426 0.34972 0.75943 0.0
H414 H 0.39952 0.29762 0.44673 0.0
H415 H 0.46598 0.40581 0.59162 0.0
H416 H 0.47111 0.30419 0.73089 0.0
H417 H 0.46103 0.27114 0.65458 0.0
C418 C 0.44129 0.25891 0.55493 0.0
C419 C 0.42591 0.2674 0.49146 0.0
C420 C 0.46999 0.32633 0.69964 0.0
C421 C 0.43703 0.30344 0.6032 0.0
C422 C 0.48883 0.35246 0.71663 0.0
C423 C 0.48872 0.38157 0.67553 0.0
C424 C 0.45135 0.32937 0.63991 0.0
C425 C 0.46778 0.38374 0.62207 0.0
C426 C 0.4467 0.27668 0.61112 0.0
C427 C 0.41255 0.29108 0.49281 0.0
N428 N 0.45033 0.35799 0.60487 0.0
N429 N 0.41922 0.30896 0.54631 0.0
H430 H 0.22638 0.6437 0.56514 0.0
H431 H 0.10146 0.62765 0.75247 0.0
H432 H 0.2472 0.58325 0.75867 0.0
H433 H 0.12394 0.55061 0.89247 0.0
H434 H 0.15106 0.64895 0.71199 0.0
H435 H 0.18593 0.6475 0.63647 0.0
C436 C 0.22286 0.63196 0.62362 0.0
C437 C 0.23973 0.61252 0.65536 0.0
C438 C 0.14526 0.62738 0.75143 0.0
C439 C 0.19342 0.61684 0.73845 0.0
C440 C 0.1169 0.61537 0.77525 0.0
C441 C 0.10845 0.58676 0.82368 0.0
C442 C 0.16509 0.61037 0.77565 0.0
C443 C 0.12938 0.57225 0.85303 0.0
C444 C 0.19975 0.63428 0.66491 0.0
C445 C 0.23461 0.5983 0.73167 0.0
N446 N 0.15663 0.58395 0.82752 0.0
N447 N 0.21151 0.60015 0.76997 0.0
H448 H 0.05668 0.79908 0.118 0.0
H449 H 0.05184 0.97215 0.08122 0.0
H450 H 0.00145 0.82762 0.26101 0.0
H451 H 0.03819 0.92987 0.88327 0.0
H452 H 0.05265 0.92223 0.15819 0.0
H453 H 0.06708 0.85055 0.03908 0.0
C454 C 0.0468 0.81593 0.13327 0.0
C455 C 0.02827 0.80875 0.19715 0.0
C456 C 0.05015 0.92423 0.09755 0.0
C457 C 0.04134 0.86772 0.10941 0.0
C458 C 0.04982 0.95255 0.05378 0.0
C459 C 0.04466 0.95482 0.97632 0.0
C460 C 0.04605 0.89845 0.06294 0.0
C461 C 0.04191 0.92879 0.94321 0.0
C462 C 0.05304 0.84529 0.08862 0.0
C463 C 0.01657 0.83198 0.2143 0.0
N464 N 0.04254 0.90148 0.98689 0.0
N465 N 0.02349 0.86042 0.1711 0.0
H466 H 0.74473 0.04523 0.89143 0.0
H467 H 0.62276 0.05808 0.72674 0.0
H468 H 0.71361 0.07923 0.07368 0.0
H469 H 0.60942 0.10711 0.90107 0.0
H470 H 0.67164 0.06459 0.76058 0.0
H471 H 0.71361 0.06784 0.80565 0.0
C472 C 0.73165 0.05792 0.91314 0.0
C473 C 0.73096 0.05933 0.99049 0.0
C474 C 0.65862 0.07488 0.79046 0.0
C475 C 0.69388 0.08388 0.89349 0.0
C476 C 0.63041 0.07106 0.7709 0.0
C477 C 0.61174 0.08116 0.81283 0.0
C478 C 0.66815 0.08862 0.85322 0.0
C479 C 0.62294 0.09839 0.86818 0.0
C480 C 0.71338 0.07047 0.86422 0.0
C481 C 0.71395 0.07652 0.01505 0.0
N482 N 0.65024 0.10083 0.88816 0.0
N483 N 0.69564 0.08749 0.96717 0.0
H484 H 0.6086 0.83388 0.14987 0.0
H485 H 0.60079 0.66328 0.16818 0.0
H486 H 0.6513 0.78239 0.3175 0.0
H487 H 0.56613 0.71973 0.99229 0.0
H488 H 0.63226 0.70946 0.20006 0.0
H489 H 0.6099 0.79894 0.06628 0.0
C490 C 0.61917 0.81592 0.16916 0.0
C491 C 0.6278 0.80987 0.2444 0.0
C492 C 0.61824 0.71177 0.15337 0.0
C493 C 0.62785 0.7685 0.14841 0.0
C494 C 0.60018 0.68538 0.13526 0.0
C495 C 0.58019 0.68776 0.07905 0.0
C496 C 0.61605 0.74072 0.11553 0.0
C497 C 0.58049 0.71693 0.03794 0.0
C498 C 0.61952 0.79549 0.12081 0.0
C499 C 0.64221 0.78662 0.26253 0.0
N500 N 0.59775 0.74227 0.05789 0.0
N501 N 0.64054 0.7658 0.21645 0.0
H502 H 0.78857 0.47451 0.93635 0.0
H503 H 0.92039 0.51031 0.78773 0.0
H504 H 0.82285 0.42899 0.13402 0.0
H505 H 0.93949 0.44288 0.96777 0.0
H506 H 0.87072 0.49112 0.82289 0.0
H507 H 0.8267 0.46936 0.85921 0.0
C508 C 0.80382 0.46294 0.96371 0.0
C509 C 0.80304 0.45338 0.04277 0.0
C510 C 0.88531 0.47957 0.85373 0.0
C511 C 0.8484 0.44965 0.95483 0.0
C512 C 0.91395 0.49087 0.83378 0.0
C513 C 0.93409 0.47865 0.87611 0.0
C514 C 0.87671 0.45603 0.91736 0.0
C515 C 0.9246 0.45321 0.9343 0.0
C516 C 0.82617 0.46065 0.91945 0.0
C517 C 0.82334 0.43814 0.07391 0.0
N518 N 0.8966 0.44322 0.95445 0.0
N519 N 0.84561 0.43752 0.03025 0.0
H520 H 0.00621 0.31606 0.20113 0.0
H521 H 0.1086 0.22037 0.09501 0.0
H522 H 0.09133 0.32663 0.27778 0.0
H523 H 0.02765 0.21832 0.99364 0.0
H524 H 0.10599 0.26583 0.14396 0.0
H525 H 0.01719 0.28908 0.10413 0.0
C526 C 0.02772 0.31426 0.19457 0.0
C527 C 0.04795 0.32374 0.24723 0.0
C528 C 0.08894 0.25572 0.11014 0.0
C529 C 0.06028 0.29124 0.13945 0.0
C530 C 0.09046 0.22969 0.08172 0.0
C531 C 0.06814 0.21498 0.04063 0.0
C532 C 0.06479 0.26718 0.09838 0.0
C533 C 0.04507 0.22822 0.02659 0.0
C534 C 0.03385 0.29824 0.1402 0.0
C535 C 0.07524 0.31997 0.23773 0.0
N536 N 0.04384 0.25323 0.05618 0.0
N537 N 0.08041 0.30329 0.18645 0.0
H538 H 0.28091 0.05886 0.32147 0.0
H539 H 0.43983 0.14271 0.17688 0.0
H540 H 0.34477 0.10489 0.45785 0.0
H541 H 0.37793 0.0927 0.0418 0.0
H542 H 0.40255 0.13791 0.27087 0.0
H543 H 0.31302 0.07994 0.20957 0.0
C544 C 0.30137 0.07415 0.32722 0.0
C545 C 0.31039 0.08004 0.39862 0.0
C546 C 0.39702 0.12828 0.22025 0.0
C547 C 0.34734 0.10366 0.27212 0.0
C548 C 0.41832 0.13119 0.1662 0.0
C549 C 0.41214 0.11769 0.1017 0.0
C550 C 0.36929 0.11162 0.21008 0.0
C551 C 0.38383 0.10282 0.09152 0.0
C552 C 0.3198 0.08596 0.26369 0.0
C553 C 0.33719 0.0997 0.40359 0.0
N554 N 0.36354 0.09988 0.1455 0.0
N555 N 0.35485 0.11047 0.34146 0.0
H556 H 0.44605 0.28135 0.13668 0.0
H557 H 0.47928 0.46235 0.08824 0.0
H558 H 0.48447 0.33134 0.30876 0.0
H559 H 0.4925 0.42283 0.89575 0.0
H560 H 0.47105 0.41155 0.16879 0.0
H561 H 0.45585 0.33028 0.04435 0.0
C562 C 0.45708 0.30242 0.15455 0.0
C563 C 0.4642 0.30232 0.23067 0.0
C564 C 0.4756 0.41394 0.10876 0.0
C565 C 0.47437 0.35804 0.12696 0.0
C566 C 0.47998 0.44288 0.06263 0.0
C567 C 0.48676 0.44684 0.98519 0.0
C568 C 0.47744 0.38854 0.07723 0.0
C569 C 0.48769 0.42074 0.95535 0.0
C570 C 0.4624 0.33029 0.10222 0.0
C571 C 0.47824 0.33037 0.25096 0.0
N572 N 0.483 0.39261 1.00128 0.0
N573 N 0.48236 0.35701 0.20006 0.0
H574 H 0.25214 0.52065 0.47243 0.0
H575 H 0.16762 0.55583 0.09635 0.0
H576 H 0.24443 0.61094 0.37157 0.0
H577 H 0.14791 0.46792 0.24734 0.0
H578 H 0.20547 0.57477 0.1788 0.0
H579 H 0.22368 0.49976 0.37135 0.0
C580 C 0.24498 0.53612 0.42794 0.0
C581 C 0.25047 0.56749 0.43004 0.0
C582 C 0.19301 0.55125 0.19339 0.0
C583 C 0.2181 0.54392 0.31516 0.0
C584 C 0.17128 0.54043 0.14665 0.0
C585 C 0.15407 0.51039 0.16572 0.0
C586 C 0.19787 0.53185 0.25936 0.0
C587 C 0.16055 0.49123 0.2303 0.0
C588 C 0.22862 0.5242 0.37082 0.0
C589 C 0.24048 0.58659 0.37186 0.0
N590 N 0.1818 0.50237 0.27522 0.0
N591 N 0.22468 0.57449 0.31685 0.0
H592 H 0.03671 0.75314 0.49216 0.0
H593 H 0.93483 0.84906 0.6002 0.0
H594 H 0.95152 0.7429 0.41622 0.0
H595 H 0.01586 0.85079 0.70078 0.0
H596 H 0.93725 0.80366 0.55073 0.0
H597 H 0.02599 0.78018 0.58936 0.0
C598 C 0.01526 0.75506 0.49888 0.0
C599 C 0.99491 0.7456 0.44649 0.0
C600 C 0.95435 0.81368 0.58449 0.0
C601 C 0.98287 0.77815 0.55447 0.0
C602 C 0.95295 0.83968 0.61321 0.0
C603 C 0.97535 0.85429 0.65421 0.0
C604 C 0.97848 0.80216 0.59587 0.0
C605 C -0.00162 0.84097 0.6679 0.0
C606 C 0.00926 0.77109 0.55338 0.0
C607 C 0.96768 0.74953 0.45613 0.0
N608 N -0.00049 0.816 0.63803 0.0
N609 N 0.96266 0.7662 0.50756 0.0
H610 H 0.75283 0.99585 0.3132 0.0
H611 H 0.59005 0.93595 0.44596 0.0
H612 H 0.68495 0.96739 0.16565 0.0
H613 H 0.65728 0.96142 0.59794 0.0
H614 H 0.62533 0.93995 0.3469 0.0
H615 H 0.71946 0.97551 0.42258 0.0
C616 C 0.73106 0.98464 0.30414 0.0
C617 C 0.72147 0.98366 0.23051 0.0
C618 C 0.63244 0.94435 0.40213 0.0
C619 C 0.68317 0.96086 0.35447 0.0
C620 C 0.61227 0.94215 0.45859 0.0
C621 C 0.62073 0.94867 0.53 0.0
C622 C 0.66139 0.95359 0.41671 0.0
C623 C 0.64981 0.95614 0.54371 0.0
C624 C 0.71197 0.97323 0.36637 0.0
C625 C 0.69304 0.96902 0.22159 0.0
N626 N 0.66911 0.95882 0.48727 0.0
N627 N 0.67484 0.95858 0.28265 0.0
H628 H 0.5542 0.7441 0.39021 0.0
H629 H 0.5422 0.65498 0.81731 0.0
H630 H 0.58079 0.79402 0.57093 0.0
H631 H 0.56257 0.61748 0.62763 0.0
H632 H 0.54736 0.70491 0.73271 0.0
H633 H 0.5457 0.6959 0.48173 0.0
C634 C 0.55734 0.74488 0.44977 0.0
C635 C 0.56792 0.77305 0.47326 0.0
C636 C 0.55088 0.68576 0.70998 0.0
C637 C 0.55886 0.7179 0.57818 0.0
C638 C 0.54802 0.65732 0.75806 0.0
C639 C 0.55217 0.63205 0.72955 0.0
C640 C 0.55709 0.68869 0.63244 0.0
C641 C 0.55951 0.63636 0.65229 0.0
C642 C 0.55292 0.71739 0.50171 0.0
C643 C 0.57222 0.77279 0.55084 0.0
N644 N 0.56138 0.66397 0.60636 0.0
N645 N 0.56776 0.74557 0.60076 0.0
H646 H 0.79592 0.5506 0.2161 0.0
H647 H 0.87457 0.51434 0.60229 0.0
H648 H 0.7994 0.4597 0.3248 0.0
H649 H 0.89873 0.60137 0.44837 0.0
H650 H 0.83735 0.49632 0.5172 0.0
H651 H 0.82416 0.57155 0.31759 0.0
C652 C 0.80218 0.53508 0.26222 0.0
C653 C 0.79553 0.50347 0.2624 0.0
C654 C 0.85065 0.51945 0.50249 0.0
C655 C 0.82752 0.52705 0.3778 0.0
C656 C 0.87199 0.52974 0.55078 0.0
C657 C 0.89026 0.55922 0.5317 0.0
C658 C 0.84728 0.53883 0.43486 0.0
C659 C 0.88523 0.57848 0.46539 0.0
C660 C 0.81837 0.547 0.31961 0.0
C661 C 0.8043 0.48424 0.32271 0.0
N662 N 0.86435 0.56784 0.41892 0.0
N663 N 0.81991 0.49634 0.37797 0.0
loop_
_geom_bond_atom_site_label_1
_geom_bond_atom_site_label_2
_geom_bond_distance
_geom_bond_site_symmetry_2
_ccdc_geom_bond_type
H0 C3 0.931 . S
H1 C6 0.928 . S
H2 C8 0.930 . S
C3 H0 0.931 . S
C3 C4 1.413 . S
C3 C5 1.360 1_554 S
C4 C3 1.413 . S
C4 C8 1.429 . S
C5 C3 1.360 1_556 S
C5 C6 1.372 . S
C6 H1 0.928 . S
C6 C5 1.372 . S
C6 C7 1.404 1_556 S
C7 C6 1.404 1_554 S
C7 C8 1.391 . S
C8 H2 0.930 . S
C8 C4 1.429 . S
C8 C7 1.391 . S
H9 C12 0.931 . S
H10 C15 0.928 . S
H11 C17 0.930 . S
C12 H9 0.931 . S
C12 C13 1.413 . S
C12 C14 1.360 1_554 S
C13 C12 1.413 . S
C13 C17 1.429 . S
C14 C12 1.360 1_556 S
C14 C15 1.372 . S
C15 H10 0.928 . S
C15 C14 1.372 . S
C15 C16 1.404 1_556 S
C16 C15 1.404 1_554 S
C16 C17 1.391 . S
C17 H11 0.930 . S
C17 C13 1.429 . S
C17 C16 1.391 . S
H18 C21 0.931 . S
H19 C24 0.928 . S
H20 C26 0.930 . S
C21 H18 0.931 . S
C21 C22 1.413 . S
C21 C23 1.360 1_554 S
C22 C21 1.413 . S
C22 C26 1.429 . S
C23 C21 1.360 1_556 S
C23 C24 1.372 . S
C24 H19 0.928 . S
C24 C23 1.372 . S
C24 C25 1.404 . S
C25 C24 1.404 . S
C25 C26 1.391 1_556 S
C26 H20 0.930 . S
C26 C22 1.429 . S
C26 C25 1.391 1_554 S
H27 C30 0.931 . S
H28 C33 0.928 . S
H29 C35 0.930 . S
C30 H27 0.931 . S
C30 C31 1.413 . S
C30 C32 1.360 . S
C31 C30 1.413 . S
C31 C35 1.429 . S
C32 C30 1.360 . S
C32 C33 1.372 . S
C33 H28 0.928 . S
C33 C32 1.372 . S
C33 C34 1.404 . S
C34 C33 1.404 . S
C34 C35 1.391 . S
C35 H29 0.930 . S
C35 C31 1.429 . S
C35 C34 1.391 . S
H36 C39 0.931 . S
H37 C42 0.928 . S
H38 C44 0.930 . S
C39 H36 0.931 . S
C39 C40 1.413 . S
C39 C41 1.360 . S
C40 C39 1.413 . S
C40 C44 1.429 . S
C41 C39 1.360 . S
C41 C42 1.372 . S
C42 H37 0.928 . S
C42 C41 1.372 . S
C42 C43 1.404 . S
C43 C42 1.404 . S
C43 C44 1.391 . S
C44 H38 0.930 . S
C44 C40 1.429 . S
C44 C43 1.391 . S
H45 C48 0.931 . S
H46 C51 0.928 . S
H47 C53 0.930 . S
C48 H45 0.931 . S
C48 C49 1.413 . S
C48 C50 1.360 . S
C49 C48 1.413 . S
C49 C53 1.429 . S
C50 C48 1.360 . S
C50 C51 1.372 . S
C51 H46 0.928 . S
C51 C50 1.372 . S
C51 C52 1.404 . S
C52 C51 1.404 . S
C52 C53 1.391 . S
C53 H47 0.930 . S
C53 C49 1.429 . S
C53 C52 1.391 . S
H54 C57 0.931 . S
H55 C60 0.928 . S
H56 C62 0.930 . S
C57 H54 0.931 . S
C57 C58 1.413 . S
C57 C59 1.360 . S
C58 C57 1.413 . S
C58 C62 1.429 . S
C59 C57 1.360 . S
C59 C60 1.372 . S
C60 H55 0.928 . S
C60 C59 1.372 . S
C60 C61 1.404 . S
C61 C60 1.404 . S
C61 C62 1.391 . S
C62 H56 0.930 . S
C62 C58 1.429 . S
C62 C61 1.391 . S
H63 C66 0.931 . S
H64 C69 0.928 . S
H65 C71 0.930 . S
C66 H63 0.931 . S
C66 C67 1.413 . S
C66 C68 1.360 . S
C67 C66 1.413 . S
C67 C71 1.429 . S
C68 C66 1.360 . S
C68 C69 1.372 . S
C69 H64 0.928 . S
C69 C68 1.372 . S
C69 C70 1.404 . S
C70 C69 1.404 . S
C70 C71 1.391 . S
C71 H65 0.930 . S
C71 C67 1.429 . S
C71 C70 1.391 . S
Nd72 C74 2.836 1_445 S
Nd72 O92 2.500 1_445 S
Nd72 O93 2.492 1_545 S
Nd72 O94 2.487 . S
Nd72 O95 2.682 . S
Nd72 O96 2.410 1_545 S
Nd72 O101 2.414 1_455 S
Nd72 O103 2.424 . S
Nd73 C83 2.836 1_556 S
Nd73 O95 2.414 . S
Nd73 O97 2.424 1_545 S
Nd73 O98 2.500 . S
Nd73 O99 2.492 1_556 S
Nd73 O100 2.487 1_455 S
Nd73 O101 2.682 1_455 S
Nd73 O102 2.410 . S
C74 Nd72 2.836 1_665 S
C74 C75 1.498 . S
C74 O92 1.258 . S
C74 O93 1.239 1_655 S
C75 C74 1.498 . S
C75 C76 1.366 . S
C75 C80 1.407 1_655 S
C76 C75 1.366 . S
C76 C77 1.392 . S
C76 H104 0.930 . S
C77 C76 1.392 . S
C77 C78 1.398 . S
C77 H105 0.929 . S
C78 C77 1.398 . S
C78 C79 1.352 . S
C79 C78 1.352 . S
C79 C80 1.384 1_655 S
C79 H106 0.930 1_655 S
C80 C75 1.407 1_455 S
C80 C79 1.384 1_455 S
C80 H107 0.929 . S
C81 O94 1.241 . S
C81 O95 1.273 . S
C82 O96 1.251 . S
C82 O97 1.268 . S
C83 Nd73 2.836 1_554 S
C83 C84 1.498 . S
C83 O98 1.258 1_554 S
C83 O99 1.239 . S
C84 C83 1.498 . S
C84 C85 1.366 . S
C84 C89 1.407 . S
C85 C84 1.366 . S
C85 C86 1.392 . S
C85 H108 0.930 . S
C86 C85 1.392 . S
C86 C87 1.398 . S
C86 H109 0.929 . S
C87 C86 1.398 . S
C87 C88 1.352 . S
C88 C87 1.352 . S
C88 C89 1.384 . S
C88 H110 0.930 . S
C89 C84 1.407 . S
C89 C88 1.384 . S
C89 H111 0.929 . S
C90 O100 1.241 . S
C90 O101 1.273 . S
C91 O102 1.251 . S
C91 O103 1.268 . S
O92 Nd72 2.500 1_665 S
O92 C74 1.258 . S
O93 Nd72 2.492 1_565 S
O93 C74 1.239 1_455 S
O94 Nd72 2.487 . S
O94 C81 1.241 . S
O95 Nd72 2.682 . S
O95 Nd73 2.414 . S
O95 C81 1.273 . S
O96 Nd72 2.410 1_565 S
O96 C82 1.251 . S
O97 Nd73 2.424 1_565 S
O97 C82 1.268 . S
O98 Nd73 2.500 . S
O98 C83 1.258 1_556 S
O99 Nd73 2.492 1_554 S
O99 C83 1.239 . S
O100 Nd73 2.487 1_655 S
O100 C90 1.241 . S
O101 Nd72 2.414 1_655 S
O101 Nd73 2.682 1_655 S
O101 C90 1.273 . S
O102 Nd73 2.410 . S
O102 C91 1.251 . S
O103 Nd72 2.424 . S
O103 C91 1.268 . S
H104 C76 0.930 . S
H105 C77 0.929 . S
H106 C79 0.930 1_455 S
H107 C80 0.929 . S
H108 C85 0.930 . S
H109 C86 0.929 . S
H110 C88 0.930 . S
H111 C89 0.929 . S
Nd112 C114 2.836 1_545 S
Nd112 O132 2.500 1_545 S
Nd112 O133 2.492 . S
Nd112 O134 2.487 . S
Nd112 O135 2.682 . S
Nd112 O136 2.410 . S
Nd112 O141 2.412 1_545 S
Nd112 O143 2.424 . S
Nd113 C123 2.836 1_556 S
Nd113 O135 2.414 . S
Nd113 O137 2.424 . S
Nd113 O138 2.500 . S
Nd113 O139 2.492 1_556 S
Nd113 O140 2.487 1_546 S
Nd113 O141 2.662 1_545 S
Nd113 O142 2.410 . S
C114 Nd112 2.836 1_565 S
C114 C115 1.498 . S
C114 O132 1.258 . S
C114 O133 1.239 1_565 S
C115 C114 1.498 . S
C115 C116 1.366 . S
C115 C120 1.407 . S
C116 C115 1.366 . S
C116 C117 1.392 . S
C116 H144 0.930 . S
C117 C116 1.392 . S
C117 C118 1.398 . S
C117 H145 0.929 . S
C118 C117 1.398 . S
C118 C119 1.352 . S
C119 C118 1.352 . S
C119 C120 1.384 . S
C119 H146 0.930 . S
C120 C115 1.407 . S
C120 C119 1.384 . S
C120 H147 0.929 1_565 S
C121 O134 1.241 . S
C121 O135 1.273 . S
C122 O136 1.251 . S
C122 O137 1.268 . S
C123 Nd113 2.836 1_554 S
C123 C124 1.498 . S
C123 O138 1.258 1_554 S
C123 O139 1.239 . S
C124 C123 1.498 . S
C124 C125 1.366 . S
C124 C129 1.407 . S
C125 C124 1.366 . S
C125 C126 1.392 . S
C125 H148 0.930 1_554 S
C126 C125 1.392 . S
C126 C127 1.398 . S
C126 H149 0.929 . S
C127 C126 1.398 . S
C127 C128 1.352 . S
C128 C127 1.352 . S
C128 C129 1.384 . S
C128 H150 0.930 . S
C129 C124 1.407 . S
C129 C128 1.384 . S
C129 H151 0.929 . S
C130 O140 1.241 1_556 S
C130 O141 1.280 . S
C131 O142 1.251 . S
C131 O143 1.268 . S
O132 Nd112 2.500 1_565 S
O132 C114 1.258 . S
O133 Nd112 2.492 . S
O133 C114 1.239 1_545 S
O134 Nd112 2.487 . S
O134 C121 1.241 . S
O135 Nd112 2.682 . S
O135 Nd113 2.414 . S
O135 C121 1.273 . S
O136 Nd112 2.410 . S
O136 C122 1.251 . S
O137 Nd113 2.424 . S
O137 C122 1.268 . S
O138 Nd113 2.500 . S
O138 C123 1.258 1_556 S
O139 Nd113 2.492 1_554 S
O139 C123 1.239 . S
O140 Nd113 2.487 1_564 S
O140 C130 1.241 1_554 S
O141 Nd112 2.412 1_565 S
O141 Nd113 2.662 1_565 S
O141 C130 1.280 . S
O142 Nd113 2.410 . S
O142 C131 1.251 . S
O143 Nd112 2.424 . S
O143 C131 1.268 . S
H144 C116 0.930 . S
H145 C117 0.929 . S
H146 C119 0.930 . S
H147 C120 0.929 1_545 S
H148 C125 0.930 1_556 S
H149 C126 0.929 . S
H150 C128 0.930 . S
H151 C129 0.929 . S
Nd152 C154 2.836 . S
Nd152 O172 2.500 . S
Nd152 O173 2.497 . S
Nd152 O174 2.487 . S
Nd152 O175 2.682 . S
Nd152 O176 2.410 . S
Nd152 O181 2.414 . S
Nd152 O183 2.424 . S
Nd153 C163 2.836 . S
Nd153 O175 2.414 . S
Nd153 O177 2.424 . S
Nd153 O178 2.500 . S
Nd153 O179 2.492 . S
Nd153 O180 2.487 . S
Nd153 O181 2.682 . S
Nd153 O182 2.410 . S
C154 Nd152 2.836 . S
C154 C155 1.498 1_556 S
C154 O172 1.258 . S
C154 O173 1.240 . S
C155 C154 1.498 1_554 S
C155 C156 1.366 1_554 S
C155 C160 1.407 . S
C156 C155 1.366 1_556 S
C156 C157 1.393 . S
C156 H184 0.930 . S
C157 C156 1.393 . S
C157 C158 1.398 1_556 S
C157 H185 0.930 . S
C158 C157 1.398 1_554 S
C158 C159 1.352 . S
C159 C158 1.352 . S
C159 C160 1.384 . S
C159 H186 0.930 . S
C160 C155 1.407 . S
C160 C159 1.384 . S
C160 H187 0.929 . S
C161 O174 1.241 . S
C161 O175 1.273 . S
C162 O176 1.251 . S
C162 O177 1.268 . S
C163 Nd153 2.836 . S
C163 C164 1.498 . S
C163 O178 1.258 . S
C163 O179 1.239 . S
C164 C163 1.498 . S
C164 C165 1.366 . S
C164 C169 1.407 . S
C165 C164 1.366 . S
C165 C166 1.392 . S
C165 H188 0.930 . S
C166 C165 1.392 . S
C166 C167 1.398 . S
C166 H189 0.929 . S
C167 C166 1.398 . S
C167 C168 1.352 . S
C168 C167 1.352 . S
C168 C169 1.384 . S
C168 H190 0.930 . S
C169 C164 1.407 . S
C169 C168 1.384 . S
C169 H191 0.929 . S
C170 O180 1.241 . S
C170 O181 1.273 . S
C171 O182 1.251 . S
C171 O183 1.268 . S
O172 Nd152 2.500 . S
O172 C154 1.258 . S
O173 Nd152 2.497 . S
O173 C154 1.240 . S
O174 Nd152 2.487 . S
O174 C161 1.241 . S
O175 Nd152 2.682 . S
O175 Nd153 2.414 . S
O175 C161 1.273 . S
O176 Nd152 2.410 . S
O176 C162 1.251 . S
O177 Nd153 2.424 . S
O177 C162 1.268 . S
O178 Nd153 2.500 . S
O178 C163 1.258 . S
O179 Nd153 2.492 . S
O179 C163 1.239 . S
O180 Nd153 2.487 . S
O180 C170 1.241 . S
O181 Nd152 2.414 . S
O181 Nd153 2.682 . S
O181 C170 1.273 . S
O182 Nd153 2.410 . S
O182 C171 1.251 . S
O183 Nd152 2.424 . S
O183 C171 1.268 . S
H184 C156 0.930 . S
H185 C157 0.930 . S
H186 C159 0.930 . S
H187 C160 0.929 . S
H188 C165 0.930 . S
H189 C166 0.929 . S
H190 C168 0.930 . S
H191 C169 0.929 . S
Nd192 C194 2.836 1_455 S
Nd192 O212 2.500 1_455 S
Nd192 O213 2.492 1_455 S
Nd192 O214 2.487 . S
Nd192 O215 2.682 . S
Nd192 O216 2.410 1_455 S
Nd192 O221 2.414 . S
Nd192 O223 2.424 . S
Nd193 C203 2.836 1_556 S
Nd193 O215 2.414 . S
Nd193 O217 2.424 1_455 S
Nd193 O218 2.495 1_556 S
Nd193 O219 2.492 1_556 S
Nd193 O220 2.487 . S
Nd193 O221 2.682 . S
Nd193 O222 2.410 . S
C194 Nd192 2.836 1_655 S
C194 C195 1.498 . S
C194 O212 1.258 . S
C194 O213 1.239 . S
C195 C194 1.498 . S
C195 C196 1.366 . S
C195 C200 1.407 . S
C196 C195 1.366 . S
C196 C197 1.392 . S
C196 H224 0.930 . S
C197 C196 1.392 . S
C197 C198 1.398 . S
C197 H225 0.929 . S
C198 C197 1.398 . S
C198 C199 1.352 . S
C199 C198 1.352 . S
C199 C200 1.384 . S
C199 H226 0.930 . S
C200 C195 1.407 . S
C200 C199 1.384 . S
C200 H227 0.929 . S
C201 O214 1.241 . S
C201 O215 1.273 . S
C202 O216 1.251 . S
C202 O217 1.268 . S
C203 Nd193 2.836 1_554 S
C203 C204 1.498 . S
C203 O218 1.269 . S
C203 O219 1.239 . S
C204 C203 1.498 . S
C204 C205 1.366 . S
C204 C209 1.407 . S
C205 C204 1.366 . S
C205 C206 1.392 . S
C205 H228 0.930 . S
C206 C205 1.392 . S
C206 C207 1.398 . S
C206 H229 0.929 . S
C207 C206 1.398 . S
C207 C208 1.352 . S
C208 C207 1.352 . S
C208 C209 1.384 . S
C208 H230 0.930 . S
C209 C204 1.407 . S
C209 C208 1.384 . S
C209 H231 0.929 . S
C210 O220 1.241 . S
C210 O221 1.273 . S
C211 O222 1.251 . S
C211 O223 1.268 . S
O212 Nd192 2.500 1_655 S
O212 C194 1.258 . S
O213 Nd192 2.492 1_655 S
O213 C194 1.239 . S
O214 Nd192 2.487 . S
O214 C201 1.241 . S
O215 Nd192 2.682 . S
O215 Nd193 2.414 . S
O215 C201 1.273 . S
O216 Nd192 2.410 1_655 S
O216 C202 1.251 . S
O217 Nd193 2.424 1_655 S
O217 C202 1.268 . S
O218 Nd193 2.495 1_554 S
O218 C203 1.269 . S
O219 Nd193 2.492 1_554 S
O219 C203 1.239 . S
O220 Nd193 2.487 . S
O220 C210 1.241 . S
O221 Nd192 2.414 . S
O221 Nd193 2.682 . S
O221 C210 1.273 . S
O222 Nd193 2.410 . S
O222 C211 1.251 . S
O223 Nd192 2.424 . S
O223 C211 1.268 . S
H224 C196 0.930 . S
H225 C197 0.929 . S
H226 C199 0.930 . S
H227 C200 0.929 . S
H228 C205 0.930 . S
H229 C206 0.929 . S
H230 C208 0.930 . S
H231 C209 0.929 . S
H232 C238 0.930 . S
H233 C242 0.930 . S
H234 C247 0.929 . S
H235 C245 0.929 . S
H236 C240 0.929 . S
H237 C246 0.929 . S
C238 H232 0.930 . S
C238 C239 1.367 . S
C238 C246 1.378 . S
C239 C238 1.367 . S
C239 C247 1.433 . S
C240 H236 0.929 . S
C240 C242 1.378 . S
C240 C244 1.350 . S
C241 C244 1.463 . S
C241 C246 1.350 . S
C241 N249 1.427 . S
C242 H233 0.930 . S
C242 C240 1.378 . S
C242 C243 1.367 . S
C243 C242 1.367 . S
C243 C245 1.433 . S
C244 C240 1.350 . S
C244 C241 1.463 . S
C244 N248 1.427 . S
C245 H235 0.929 . S
C245 C243 1.433 . S
C245 N248 1.384 . S
C246 H237 0.929 . S
C246 C238 1.378 . S
C246 C241 1.350 . S
C247 H234 0.929 . S
C247 C239 1.433 . S
C247 N249 1.384 . S
N248 C244 1.427 . S
N248 C245 1.384 . S
N249 C241 1.427 . S
N249 C247 1.384 . S
H250 C256 0.930 . S
H251 C260 0.930 . S
H252 C265 0.929 . S
H253 C263 0.929 . S
H254 C258 0.929 . S
H255 C264 0.929 . S
C256 H250 0.930 . S
C256 C257 1.367 . S
C256 C264 1.378 . S
C257 C256 1.367 . S
C257 C265 1.433 . S
C258 H254 0.929 . S
C258 C260 1.378 . S
C258 C262 1.350 . S
C259 C262 1.463 . S
C259 C264 1.350 . S
C259 N267 1.427 . S
C260 H251 0.930 . S
C260 C258 1.378 . S
C260 C261 1.367 . S
C261 C260 1.367 . S
C261 C263 1.433 . S
C262 C258 1.350 . S
C262 C259 1.463 . S
C262 N266 1.427 . S
C263 H253 0.929 . S
C263 C261 1.433 . S
C263 N266 1.384 . S
C264 H255 0.929 . S
C264 C256 1.378 . S
C264 C259 1.350 . S
C265 H252 0.929 . S
C265 C257 1.433 . S
C265 N267 1.384 . S
N266 C262 1.427 . S
N266 C263 1.384 . S
N267 C259 1.427 . S
N267 C265 1.384 . S
H268 C274 0.930 . S
H269 C278 0.930 . S
H270 C283 0.929 . S
H271 C281 0.929 . S
H272 C276 0.929 . S
H273 C282 0.929 . S
C274 H268 0.930 . S
C274 C275 1.367 . S
C274 C282 1.378 . S
C275 C274 1.367 . S
C275 C283 1.433 . S
C276 H272 0.929 . S
C276 C278 1.378 . S
C276 C280 1.350 . S
C277 C280 1.463 . S
C277 C282 1.350 . S
C277 N285 1.427 . S
C278 H269 0.930 . S
C278 C276 1.378 . S
C278 C279 1.367 . S
C279 C278 1.367 . S
C279 C281 1.433 . S
C280 C276 1.350 . S
C280 C277 1.463 . S
C280 N284 1.427 . S
C281 H271 0.929 . S
C281 C279 1.433 . S
C281 N284 1.384 . S
C282 H273 0.929 . S
C282 C274 1.378 . S
C282 C277 1.350 . S
C283 H270 0.929 . S
C283 C275 1.433 . S
C283 N285 1.384 . S
N284 C280 1.427 . S
N284 C281 1.384 . S
N285 C277 1.427 . S
N285 C283 1.384 . S
H286 C292 0.930 . S
H287 C296 0.930 . S
H288 C301 0.929 . S
H289 C299 0.929 . S
H290 C294 0.929 . S
H291 C300 0.929 . S
C292 H286 0.930 . S
C292 C293 1.367 . S
C292 C300 1.378 . S
C293 C292 1.367 . S
C293 C301 1.433 . S
C294 H290 0.929 . S
C294 C296 1.378 . S
C294 C298 1.350 . S
C295 C298 1.463 . S
C295 C300 1.350 . S
C295 N303 1.427 . S
C296 H287 0.930 . S
C296 C294 1.378 . S
C296 C297 1.367 . S
C297 C296 1.367 . S
C297 C299 1.433 . S
C298 C294 1.350 . S
C298 C295 1.463 . S
C298 N302 1.427 . S
C299 H289 0.929 . S
C299 C297 1.433 . S
C299 N302 1.384 . S
C300 H291 0.929 . S
C300 C292 1.378 . S
C300 C295 1.350 . S
C301 H288 0.929 . S
C301 C293 1.433 . S
C301 N303 1.384 . S
N302 C298 1.427 . S
N302 C299 1.384 . S
N303 C295 1.427 . S
N303 C301 1.384 . S
H304 C310 0.930 . S
H305 C314 0.930 . S
H306 C319 0.930 1_554 S
H307 C317 0.940 . S
H308 C312 0.929 . S
H309 C318 0.929 . S
C310 H304 0.930 . S
C310 C311 1.367 . S
C310 C318 1.378 . S
C311 C310 1.367 . S
C311 C319 1.433 1_565 S
C312 H308 0.929 . S
C312 C314 1.378 . S
C312 C316 1.350 . S
C313 C316 1.463 1_565 S
C313 C318 1.350 . S
C313 N321 1.427 1_565 S
C314 H305 0.930 . S
C314 C312 1.378 . S
C314 C315 1.367 . S
C315 C314 1.367 . S
C315 C317 1.422 1_545 S
C316 C312 1.350 . S
C316 C313 1.463 1_545 S
C316 N320 1.427 1_545 S
C317 H307 0.940 . S
C317 C315 1.422 1_565 S
C317 N320 1.383 . S
C318 H309 0.929 . S
C318 C310 1.378 . S
C318 C313 1.350 . S
C319 H306 0.930 1_556 S
C319 C311 1.433 1_545 S
C319 N321 1.383 . S
N320 C316 1.427 1_565 S
N320 C317 1.383 . S
N321 C313 1.427 1_545 S
N321 C319 1.383 . S
H322 C328 0.930 . S
H323 C332 0.930 . S
H324 C337 0.929 . S
H325 C335 0.929 . S
H326 C330 0.929 . S
H327 C336 0.929 . S
C328 H322 0.930 . S
C328 C329 1.367 . S
C328 C336 1.378 . S
C329 C328 1.367 . S
C329 C337 1.433 . S
C330 H326 0.929 . S
C330 C332 1.378 1_554 S
C330 C334 1.350 . S
C331 C334 1.463 . S
C331 C336 1.350 . S
C331 N339 1.427 . S
C332 H323 0.930 . S
C332 C330 1.378 1_556 S
C332 C333 1.367 . S
C333 C332 1.367 . S
C333 C335 1.433 1_556 S
C334 C330 1.350 . S
C334 C331 1.463 . S
C334 N338 1.427 . S
C335 H325 0.929 . S
C335 C333 1.433 1_554 S
C335 N338 1.384 . S
C336 H327 0.929 . S
C336 C328 1.378 . S
C336 C331 1.350 . S
C337 H324 0.929 . S
C337 C329 1.433 . S
C337 N339 1.384 . S
N338 C334 1.427 . S
N338 C335 1.384 . S
N339 C331 1.427 . S
N339 C337 1.384 . S
H340 C346 0.930 . S
H341 C350 0.930 . S
H342 C355 0.929 . S
H343 C353 0.929 . S
H344 C348 0.929 . S
H345 C354 0.929 . S
C346 H340 0.930 . S
C346 C347 1.367 . S
C346 C354 1.378 . S
C347 C346 1.367 . S
C347 C355 1.433 1_556 S
C348 H344 0.929 . S
C348 C350 1.378 . S
C348 C352 1.350 . S
C349 C352 1.463 . S
C349 C354 1.350 . S
C349 N357 1.427 1_556 S
C350 H341 0.930 . S
C350 C348 1.378 . S
C350 C351 1.367 . S
C351 C350 1.367 . S
C351 C353 1.433 . S
C352 C348 1.350 . S
C352 C349 1.463 . S
C352 N356 1.427 . S
C353 H343 0.929 . S
C353 C351 1.433 . S
C353 N356 1.384 . S
C354 H345 0.929 . S
C354 C346 1.378 . S
C354 C349 1.350 . S
C355 H342 0.929 . S
C355 C347 1.433 1_554 S
C355 N357 1.384 . S
N356 C352 1.427 . S
N356 C353 1.384 . S
N357 C349 1.427 1_554 S
N357 C355 1.384 . S
H358 C364 0.930 . S
H359 C368 0.930 . S
H360 C373 0.929 . S
H361 C371 0.929 1_455 S
H362 C366 0.929 1_554 S
H363 C372 0.929 . S
C364 H358 0.930 . S
C364 C365 1.367 1_556 S
C364 C372 1.378 . S
C365 C364 1.367 1_554 S
C365 C373 1.433 . S
C366 H362 0.929 1_556 S
C366 C368 1.378 . S
C366 C370 1.350 . S
C367 C370 1.463 . S
C367 C372 1.350 . S
C367 N375 1.427 1_556 S
C368 H359 0.930 . S
C368 C366 1.378 . S
C368 C369 1.367 . S
C369 C368 1.367 . S
C369 C371 1.433 . S
C370 C366 1.350 . S
C370 C367 1.463 . S
C370 N374 1.427 . S
C371 H361 0.929 1_655 S
C371 C369 1.433 . S
C371 N374 1.384 . S
C372 H363 0.929 . S
C372 C364 1.378 . S
C372 C367 1.350 . S
C373 H360 0.929 . S
C373 C365 1.433 . S
C373 N375 1.384 . S
N374 C370 1.427 . S
N374 C371 1.384 . S
N375 C367 1.427 1_554 S
N375 C373 1.384 . S
H376 C382 0.930 . S
H377 C386 0.930 . S
H378 C391 0.929 . S
H379 C389 0.929 . S
H380 C384 0.929 . S
H381 C390 0.929 . S
C382 H376 0.930 . S
C382 C383 1.367 . S
C382 C390 1.378 . S
C383 C382 1.367 . S
C383 C391 1.433 . S
C384 H380 0.929 . S
C384 C386 1.378 . S
C384 C388 1.350 . S
C385 C388 1.463 . S
C385 C390 1.350 . S
C385 N393 1.427 . S
C386 H377 0.930 . S
C386 C384 1.378 . S
C386 C387 1.367 . S
C387 C386 1.367 . S
C387 C389 1.433 . S
C388 C384 1.350 . S
C388 C385 1.463 . S
C388 N392 1.427 . S
C389 H379 0.929 . S
C389 C387 1.433 . S
C389 N392 1.384 . S
C390 H381 0.929 . S
C390 C382 1.378 . S
C390 C385 1.350 . S
C391 H378 0.929 . S
C391 C383 1.433 . S
C391 N393 1.384 . S
N392 C388 1.427 . S
N392 C389 1.384 . S
N393 C385 1.427 . S
N393 C391 1.384 . S
H394 C400 0.930 . S
H395 C404 0.930 . S
H396 C409 0.929 . S
H397 C407 0.929 . S
H398 C402 0.929 . S
H399 C408 0.929 . S
C400 H394 0.930 . S
C400 C401 1.367 . S
C400 C408 1.378 . S
C401 C400 1.367 . S
C401 C409 1.433 . S
C402 H398 0.929 . S
C402 C404 1.378 . S
C402 C406 1.350 . S
C403 C406 1.463 . S
C403 C408 1.350 . S
C403 N411 1.427 . S
C404 H395 0.930 . S
C404 C402 1.378 . S
C404 C405 1.367 . S
C405 C404 1.367 . S
C405 C407 1.433 . S
C406 C402 1.350 . S
C406 C403 1.463 . S
C406 N410 1.427 . S
C407 H397 0.929 . S
C407 C405 1.433 . S
C407 N410 1.384 . S
C408 H399 0.929 . S
C408 C400 1.378 . S
C408 C403 1.350 . S
C409 H396 0.929 . S
C409 C401 1.433 . S
C409 N411 1.384 . S
N410 C406 1.427 . S
N410 C407 1.384 . S
N411 C403 1.427 . S
N411 C409 1.384 . S
H412 C418 0.930 . S
H413 C422 0.930 . S
H414 C427 0.929 . S
H415 C425 0.929 . S
H416 C420 0.929 . S
H417 C426 0.929 . S
C418 H412 0.930 . S
C418 C419 1.367 . S
C418 C426 1.378 . S
C419 C418 1.367 . S
C419 C427 1.433 . S
C420 H416 0.929 . S
C420 C422 1.378 . S
C420 C424 1.350 . S
C421 C424 1.463 . S
C421 C426 1.350 . S
C421 N429 1.427 . S
C422 H413 0.930 . S
C422 C420 1.378 . S
C422 C423 1.367 . S
C423 C422 1.367 . S
C423 C425 1.433 . S
C424 C420 1.350 . S
C424 C421 1.463 . S
C424 N428 1.427 . S
C425 H415 0.929 . S
C425 C423 1.433 . S
C425 N428 1.384 . S
C426 H417 0.929 . S
C426 C418 1.378 . S
C426 C421 1.350 . S
C427 H414 0.929 . S
C427 C419 1.433 . S
C427 N429 1.384 . S
N428 C424 1.427 . S
N428 C425 1.384 . S
N429 C421 1.427 . S
N429 C427 1.384 . S
H430 C436 0.930 . S
H431 C440 0.930 . S
H432 C445 0.929 . S
H433 C443 0.929 . S
H434 C438 0.929 . S
H435 C444 0.929 . S
C436 H430 0.930 . S
C436 C437 1.367 . S
C436 C444 1.378 . S
C437 C436 1.367 . S
C437 C445 1.433 . S
C438 H434 0.929 . S
C438 C440 1.378 . S
C438 C442 1.350 . S
C439 C442 1.463 . S
C439 C444 1.350 . S
C439 N447 1.427 . S
C440 H431 0.930 . S
C440 C438 1.378 . S
C440 C441 1.367 . S
C441 C440 1.367 . S
C441 C443 1.433 . S
C442 C438 1.350 . S
C442 C439 1.463 . S
C442 N446 1.427 . S
C443 H433 0.929 . S
C443 C441 1.433 . S
C443 N446 1.384 . S
C444 H435 0.929 . S
C444 C436 1.378 . S
C444 C439 1.350 . S
C445 H432 0.929 . S
C445 C437 1.433 . S
C445 N447 1.384 . S
N446 C442 1.427 . S
N446 C443 1.384 . S
N447 C439 1.427 . S
N447 C445 1.384 . S
H448 C454 0.930 1_554 S
H449 C458 0.930 . S
H450 C463 0.929 . S
H451 C461 0.929 . S
H452 C456 0.929 . S
H453 C462 0.929 . S
C454 H448 0.930 1_556 S
C454 C455 1.367 . S
C454 C462 1.378 . S
C455 C454 1.367 . S
C455 C463 1.433 . S
C456 H452 0.929 . S
C456 C458 1.378 . S
C456 C460 1.350 . S
C457 C460 1.463 . S
C457 C462 1.350 . S
C457 N465 1.427 . S
C458 H449 0.930 . S
C458 C456 1.378 . S
C458 C459 1.367 1_655 S
C459 C458 1.367 1_455 S
C459 C461 1.433 . S
C460 C456 1.350 . S
C460 C457 1.463 . S
C460 N464 1.427 . S
C461 H451 0.929 . S
C461 C459 1.433 . S
C461 N464 1.384 1_455 S
C462 H453 0.929 . S
C462 C454 1.378 . S
C462 C457 1.350 . S
C463 H450 0.929 . S
C463 C455 1.433 . S
C463 N465 1.384 . S
N464 C460 1.427 . S
N464 C461 1.384 1_655 S
N465 C457 1.427 . S
N465 C463 1.384 . S
H466 C472 0.930 1_554 S
H467 C476 0.930 . S
H468 C481 0.929 1_545 S
H469 C479 0.929 . S
H470 C474 0.929 . S
H471 C480 0.929 . S
C472 H466 0.930 1_556 S
C472 C473 1.367 . S
C472 C480 1.378 . S
C473 C472 1.367 . S
C473 C481 1.433 . S
C474 H470 0.929 . S
C474 C476 1.378 . S
C474 C478 1.350 . S
C475 C478 1.463 . S
C475 C480 1.350 1_545 S
C475 N483 1.427 . S
C476 H467 0.930 . S
C476 C474 1.378 . S
C476 C477 1.367 . S
C477 C476 1.367 . S
C477 C479 1.433 . S
C478 C474 1.350 . S
C478 C475 1.463 . S
C478 N482 1.427 . S
C479 H469 0.929 . S
C479 C477 1.433 . S
C479 N482 1.384 . S
C480 H471 0.929 . S
C480 C472 1.378 . S
C480 C475 1.350 1_565 S
C481 H468 0.929 1_565 S
C481 C473 1.433 . S
C481 N483 1.384 1_565 S
N482 C478 1.427 . S
N482 C479 1.384 . S
N483 C475 1.427 . S
N483 C481 1.384 1_545 S
H484 C490 0.930 . S
H485 C494 0.930 . S
H486 C499 0.929 . S
H487 C497 0.929 1_556 S
H488 C492 0.929 . S
H489 C498 0.929 . S
C490 H484 0.930 . S
C490 C491 1.367 . S
C490 C498 1.378 . S
C491 C490 1.367 . S
C491 C499 1.433 . S
C492 H488 0.929 . S
C492 C494 1.378 . S
C492 C496 1.350 . S
C493 C496 1.463 . S
C493 C498 1.350 . S
C493 N501 1.427 . S
C494 H485 0.930 . S
C494 C492 1.378 . S
C494 C495 1.367 . S
C495 C494 1.367 . S
C495 C497 1.433 . S
C496 C492 1.350 . S
C496 C493 1.463 . S
C496 N500 1.427 . S
C497 H487 0.929 1_554 S
C497 C495 1.433 . S
C497 N500 1.384 . S
C498 H489 0.929 . S
C498 C490 1.378 . S
C498 C493 1.350 . S
C499 H486 0.929 . S
C499 C491 1.433 . S
C499 N501 1.384 . S
N500 C496 1.427 . S
N500 C497 1.384 . S
N501 C493 1.427 . S
N501 C499 1.384 . S
H502 C508 0.930 1_554 S
H503 C512 0.930 . S
H504 C517 0.929 . S
H505 C515 0.929 . S
H506 C510 0.929 . S
H507 C516 0.929 1_554 S
C508 H502 0.930 1_556 S
C508 C509 1.367 . S
C508 C516 1.378 . S
C509 C508 1.367 . S
C509 C517 1.433 . S
C510 H506 0.929 . S
C510 C512 1.378 . S
C510 C514 1.350 . S
C511 C514 1.463 . S
C511 C516 1.350 . S
C511 N519 1.427 . S
C512 H503 0.930 . S
C512 C510 1.378 . S
C512 C513 1.367 . S
C513 C512 1.367 . S
C513 C515 1.433 . S
C514 C510 1.350 . S
C514 C511 1.463 . S
C514 N518 1.427 . S
C515 H505 0.929 . S
C515 C513 1.433 . S
C515 N518 1.384 . S
C516 H507 0.929 1_556 S
C516 C508 1.378 . S
C516 C511 1.350 . S
C517 H504 0.929 . S
C517 C509 1.433 . S
C517 N519 1.384 . S
N518 C514 1.427 . S
N518 C515 1.384 . S
N519 C511 1.427 . S
N519 C517 1.384 . S
H520 C526 0.930 . S
H521 C530 0.930 . S
H522 C535 0.929 . S
H523 C533 0.929 . S
H524 C528 0.929 . S
H525 C534 0.929 . S
C526 H520 0.930 . S
C526 C527 1.367 . S
C526 C534 1.378 . S
C527 C526 1.367 . S
C527 C535 1.433 . S
C528 H524 0.929 . S
C528 C530 1.378 . S
C528 C532 1.350 . S
C529 C532 1.463 . S
C529 C534 1.350 . S
C529 N537 1.427 . S
C530 H521 0.930 . S
C530 C528 1.378 . S
C530 C531 1.367 . S
C531 C530 1.367 . S
C531 C533 1.433 . S
C532 C528 1.350 . S
C532 C529 1.463 . S
C532 N536 1.427 . S
C533 H523 0.929 . S
C533 C531 1.433 . S
C533 N536 1.384 . S
C534 H525 0.929 . S
C534 C526 1.378 . S
C534 C529 1.350 . S
C535 H522 0.929 . S
C535 C527 1.433 . S
C535 N537 1.384 . S
N536 C532 1.427 . S
N536 C533 1.384 . S
N537 C529 1.427 . S
N537 C535 1.384 . S
H538 C544 0.930 . S
H539 C548 0.930 . S
H540 C553 0.929 . S
H541 C551 0.929 . S
H542 C546 0.929 . S
H543 C552 0.929 . S
C544 H538 0.930 . S
C544 C545 1.367 . S
C544 C552 1.378 . S
C545 C544 1.367 . S
C545 C553 1.433 . S
C546 H542 0.929 . S
C546 C548 1.378 . S
C546 C550 1.350 . S
C547 C550 1.463 . S
C547 C552 1.350 . S
C547 N555 1.427 . S
C548 H539 0.930 . S
C548 C546 1.378 . S
C548 C549 1.367 . S
C549 C548 1.367 . S
C549 C551 1.433 . S
C550 C546 1.350 . S
C550 C547 1.463 . S
C550 N554 1.427 . S
C551 H541 0.929 . S
C551 C549 1.433 . S
C551 N554 1.384 . S
C552 H543 0.929 . S
C552 C544 1.378 . S
C552 C547 1.350 . S
C553 H540 0.929 . S
C553 C545 1.433 . S
C553 N555 1.384 . S
N554 C550 1.427 . S
N554 C551 1.384 . S
N555 C547 1.427 . S
N555 C553 1.384 . S
H556 C562 0.930 . S
H557 C566 0.930 . S
H558 C571 0.929 . S
H559 C569 0.929 . S
H560 C564 0.929 . S
H561 C570 0.929 . S
C562 H556 0.930 . S
C562 C563 1.367 . S
C562 C570 1.378 . S
C563 C562 1.367 . S
C563 C571 1.433 . S
C564 H560 0.929 . S
C564 C566 1.378 . S
C564 C568 1.350 . S
C565 C568 1.463 . S
C565 C570 1.350 . S
C565 N573 1.427 . S
C566 H557 0.930 . S
C566 C564 1.378 . S
C566 C567 1.367 1_554 S
C567 C566 1.367 1_556 S
C567 C569 1.433 . S
C568 C564 1.350 . S
C568 C565 1.463 . S
C568 N572 1.427 1_554 S
C569 H559 0.929 . S
C569 C567 1.433 . S
C569 N572 1.384 . S
C570 H561 0.929 . S
C570 C562 1.378 . S
C570 C565 1.350 . S
C571 H558 0.929 . S
C571 C563 1.433 . S
C571 N573 1.384 . S
N572 C568 1.427 1_556 S
N572 C569 1.384 . S
N573 C565 1.427 . S
N573 C571 1.384 . S
H574 C580 0.930 . S
H575 C584 0.930 . S
H576 C589 0.929 . S
H577 C587 0.929 . S
H578 C582 0.929 . S
H579 C588 0.929 . S
C580 H574 0.930 . S
C580 C581 1.367 . S
C580 C588 1.378 . S
C581 C580 1.367 . S
C581 C589 1.433 . S
C582 H578 0.929 . S
C582 C584 1.378 . S
C582 C586 1.350 . S
C583 C586 1.463 . S
C583 C588 1.350 . S
C583 N591 1.427 . S
C584 H575 0.930 . S
C584 C582 1.378 . S
C584 C585 1.367 . S
C585 C584 1.367 . S
C585 C587 1.433 . S
C586 C582 1.350 . S
C586 C583 1.463 . S
C586 N590 1.427 . S
C587 H577 0.929 . S
C587 C585 1.433 . S
C587 N590 1.384 . S
C588 H579 0.929 . S
C588 C580 1.378 . S
C588 C583 1.350 . S
C589 H576 0.929 . S
C589 C581 1.433 . S
C589 N591 1.384 . S
N590 C586 1.427 . S
N590 C587 1.384 . S
N591 C583 1.427 . S
N591 C589 1.384 . S
H592 C598 0.930 . S
H593 C602 0.930 . S
H594 C607 0.929 . S
H595 C605 0.929 . S
H596 C600 0.929 . S
H597 C606 0.929 . S
C598 H592 0.930 . S
C598 C599 1.367 . S
C598 C606 1.378 . S
C599 C598 1.367 . S
C599 C607 1.433 . S
C600 H596 0.929 . S
C600 C602 1.378 . S
C600 C604 1.350 . S
C601 C604 1.463 . S
C601 C606 1.350 . S
C601 N609 1.427 . S
C602 H593 0.930 . S
C602 C600 1.378 . S
C602 C603 1.367 . S
C603 C602 1.367 . S
C603 C605 1.433 . S
C604 C600 1.350 . S
C604 C601 1.463 . S
C604 N608 1.427 . S
C605 H595 0.929 . S
C605 C603 1.433 . S
C605 N608 1.384 . S
C606 H597 0.929 . S
C606 C598 1.378 . S
C606 C601 1.350 . S
C607 H594 0.929 . S
C607 C599 1.433 . S
C607 N609 1.384 . S
N608 C604 1.427 . S
N608 C605 1.384 . S
N609 C601 1.427 . S
N609 C607 1.384 . S
H610 C616 0.930 . S
H611 C620 0.930 . S
H612 C625 0.929 . S
H613 C623 0.929 . S
H614 C618 0.929 . S
H615 C624 0.929 . S
C616 H610 0.930 . S
C616 C617 1.367 . S
C616 C624 1.378 . S
C617 C616 1.367 . S
C617 C625 1.433 . S
C618 H614 0.929 . S
C618 C620 1.378 . S
C618 C622 1.350 . S
C619 C622 1.463 . S
C619 C624 1.350 . S
C619 N627 1.427 . S
C620 H611 0.930 . S
C620 C618 1.378 . S
C620 C621 1.367 . S
C621 C620 1.367 . S
C621 C623 1.433 . S
C622 C618 1.350 . S
C622 C619 1.463 . S
C622 N626 1.427 . S
C623 H613 0.929 . S
C623 C621 1.433 . S
C623 N626 1.384 . S
C624 H615 0.929 . S
C624 C616 1.378 . S
C624 C619 1.350 . S
C625 H612 0.929 . S
C625 C617 1.433 . S
C625 N627 1.384 . S
N626 C622 1.427 . S
N626 C623 1.384 . S
N627 C619 1.427 . S
N627 C625 1.384 . S
H628 C634 0.930 . S
H629 C638 0.930 . S
H630 C643 0.929 . S
H631 C641 0.929 . S
H632 C636 0.929 . S
H633 C642 0.929 . S
C634 H628 0.930 . S
C634 C635 1.367 . S
C634 C642 1.378 . S
C635 C634 1.367 . S
C635 C643 1.433 . S
C636 H632 0.929 . S
C636 C638 1.378 . S
C636 C640 1.350 . S
C637 C640 1.463 . S
C637 C642 1.350 . S
C637 N645 1.427 . S
C638 H629 0.930 . S
C638 C636 1.378 . S
C638 C639 1.367 . S
C639 C638 1.367 . S
C639 C641 1.433 . S
C640 C636 1.350 . S
C640 C637 1.463 . S
C640 N644 1.427 . S
C641 H631 0.929 . S
C641 C639 1.433 . S
C641 N644 1.384 . S
C642 H633 0.929 . S
C642 C634 1.378 . S
C642 C637 1.350 . S
C643 H630 0.929 . S
C643 C635 1.433 . S
C643 N645 1.384 . S
N644 C640 1.427 . S
N644 C641 1.384 . S
N645 C637 1.427 . S
N645 C643 1.384 . S
H646 C652 0.930 . S
H647 C656 0.930 . S
H648 C661 0.929 . S
H649 C659 0.929 . S
H650 C654 0.929 . S
H651 C660 0.929 . S
C652 H646 0.930 . S
C652 C653 1.367 . S
C652 C660 1.378 . S
C653 C652 1.367 . S
C653 C661 1.433 . S
C654 H650 0.929 . S
C654 C656 1.378 . S
C654 C658 1.350 . S
C655 C658 1.463 . S
C655 C660 1.350 . S
C655 N663 1.427 . S
C656 H647 0.930 . S
C656 C654 1.378 . S
C656 C657 1.367 . S
C657 C656 1.367 . S
C657 C659 1.433 . S
C658 C654 1.350 . S
C658 C655 1.463 . S
C658 N662 1.427 . S
C659 H649 0.929 . S
C659 C657 1.433 . S
C659 N662 1.384 . S
C660 H651 0.929 . S
C660 C652 1.378 . S
C660 C655 1.350 . S
C661 H648 0.929 . S
C661 C653 1.433 . S
C661 N663 1.384 . S
N662 C658 1.427 . S
N662 C659 1.384 . S
N663 C655 1.427 . S
N663 C661 1.384 . S
C239 C61 1.269 . S
C243 C81 1.236 . S
C261 C121 1.458 . S
C257 C70 1.497 . S
C279 C170 1.298 . S
C275 C43 1.320 . S
C297 C201 1.713 . S
C293 C52 1.768 . S
C315 C90 1.222 . S
C311 C25 1.272 . S
C329 C34 1.497 . S
C333 C130 1.465 . S
C347 C7 1.318 1_556 S
C351 C161 1.284 . S
C365 C16 1.775 . S
C369 C210 1.713 1_655 S
C387 C91 0.786 . S
C383 C50 0.778 . S
C405 C131 0.880 . S
C401 C59 0.870 . S
C423 C167 0.667 . S
C419 C67 0.673 . S
C437 C41 0.984 . S
C441 C211 1.023 . S
C455 C14 0.757 . S
C459 C82 0.781 . S
C477 C122 0.893 . S
C473 C23 0.851 . S
C495 C158 0.657 . S
C491 C31 0.664 . S
C509 C5 0.958 . S
C513 C202 1.025 . S
C527 C49 1.723 . S
C531 C87 1.767 . S
C545 C58 1.626 . S
C549 C127 1.607 . S
C567 C171 2.060 . S
C563 C68 1.897 . S
C585 C207 1.470 . S
C581 C40 1.476 . S
C599 C13 1.733 . S
C603 C78 1.764 . S
C621 C118 1.599 . S
C617 C22 1.631 . S
C639 C162 2.062 . S
C635 C32 1.876 . S
C653 C4 1.472 . S
C657 C198 1.471 . S
