# Generated by pormake.
# Topology tsx, (6,3)-cn, num edge types: 1
# Building blocks:
#     Node 0, Type 0, BuildingBlock: CIFDUS_clean_sbu_1, # of connection points: 6
#     Node 1, Type 0, BuildingBlock: CIFDUS_clean_sbu_1, # of connection points: 6
#     Node 2, Type 1, BuildingBlock: ESEHIV_clean_linker_0, # of connection points: 3
#     Node 3, Type 1, BuildingBlock: ESEHIV_clean_linker_0, # of connection points: 3
#     Node 4, Type 1, BuildingBlock: ESEHIV_clean_linker_0, # of connection points: 3
#     Node 5, Type 1, BuildingBlock: ESEHIV_clean_linker_0, # of connection points: 3
#     Edge 6, Type (0, 1), BuildingBlock: FUNLAD_clean_linker_0, # of connection points: 2
#     Edge 7, Type (0, 1), BuildingBlock: FUNLAD_clean_linker_0, # of connection points: 2
#     Edge 8, Type (0, 1), BuildingBlock: FUNLAD_clean_linker_0, # of connection points: 2
#     Edge 9, Type (0, 1), BuildingBlock: FUNLAD_clean_linker_0, # of connection points: 2
#     Edge 10, Type (0, 1), BuildingBlock: FUNLAD_clean_linker_0, # of connection points: 2
#     Edge 11, Type (0, 1), BuildingBlock: FUNLAD_clean_linker_0, # of connection points: 2
#     Edge 12, Type (0, 1), BuildingBlock: FUNLAD_clean_linker_0, # of connection points: 2
#     Edge 13, Type (0, 1), BuildingBlock: FUNLAD_clean_linker_0, # of connection points: 2
#     Edge 14, Type (0, 1), BuildingBlock: FUNLAD_clean_linker_0, # of connection points: 2
#     Edge 15, Type (0, 1), BuildingBlock: FUNLAD_clean_linker_0, # of connection points: 2
#     Edge 16, Type (0, 1), BuildingBlock: FUNLAD_clean_linker_0, # of connection points: 2
#     Edge 17, Type (0, 1), BuildingBlock: FUNLAD_clean_linker_0, # of connection points: 2
# Relax obj value: 0.128
# Max RMSD: 0.156
# Mean RMSD: 0.118
data_MOF--net-tsx--node1-CIFDUS_clean_sbu_1--node2-ESEHIV_clean_linker_0--edge1-FUNLAD_clean_linker_0
_symmetry_space_group_name_H-M    P1
_symmetry_Int_Tables_number       1
_symmetry_cell_setting            triclinic
loop_
_symmetry_equiv_pos_as_xyz
'x, y, z'
_cell_length_a     18.714062
_cell_length_b     25.006233
_cell_length_c     40.755395
_cell_angle_alpha  97.866768
_cell_angle_beta   95.125519
_cell_angle_gamma 92.238467
loop_
_atom_site_label
_atom_site_type_symbol
_atom_site_fract_x
_atom_site_fract_y
_atom_site_fract_z
_atom_type_partial_charge
O0 O 1.03138 0.09173 0.00765 0.0
Mn1 Mn 0.08463 0.0187 0.00553 0.0
O2 O 0.92056 0.07068 0.98123 0.0
Mn3 Mn 0.93609 7e-05 0.96432 0.0
O4 O 0.13703 0.94537 0.00295 0.0
O5 O 0.17898 0.06191 0.01531 0.0
Mn6 Mn 0.23368 0.0345 0.04566 0.0
O7 O 0.07489 0.01872 0.05657 0.0
O8 O 0.24877 0.96424 0.02808 0.0
O9 O 0.0949 0.018 0.95454 0.0
O10 O 0.98704 -0.00998 0.92731 0.0
O11 O 0.28711 0.09193 0.03491 0.0
O12 O 0.18457 0.04183 0.08328 0.0
C13 C 0.93878 0.94075 0.99752 0.0
C14 C 0.96736 0.10426 0.99816 0.0
C15 C 0.20051 0.93113 0.01185 0.0
C16 C 0.23062 0.09773 0.01523 0.0
C17 C 0.11755 0.0306 0.08342 0.0
C18 C 0.05381 0.00254 0.92759 0.0
O19 O 0.99053 0.97556 0.99582 0.0
O20 O 0.8829 0.94397 0.97692 0.0
O21 O 0.52256 0.60674 0.50787 0.0
Mn22 Mn 0.57486 0.53355 0.50721 0.0
O23 O 0.40677 0.58422 0.48904 0.0
Mn24 Mn 0.41998 0.51348 0.47181 0.0
O25 O 0.62571 0.46022 0.50588 0.0
O26 O 0.67026 0.57626 0.51329 0.0
Mn27 Mn 0.72617 0.55042 0.54412 0.0
O28 O 0.57055 0.53864 0.55892 0.0
O29 O 0.73899 0.47865 0.52893 0.0
O30 O 0.57781 0.52739 0.45548 0.0
O31 O 0.46471 0.50307 0.43288 0.0
O32 O 0.78062 0.60472 0.53094 0.0
O33 O 0.68198 0.56289 0.58299 0.0
C34 C 0.43308 0.45394 0.50467 0.0
C35 C 0.45686 0.61892 0.50173 0.0
C36 C 0.68901 0.44549 0.5143 0.0
C37 C 0.72341 0.61028 0.51164 0.0
C38 C 0.61536 0.55267 0.5848 0.0
C39 C 0.53138 0.51244 0.43028 0.0
O40 O 0.48095 0.49064 0.50131 0.0
O41 O 0.37318 0.45603 0.48658 0.0
H42 H 0.95371 0.06577 0.38596 0.0
H43 H 0.12539 0.95658 0.3818 0.0
H44 H 1.03499 0.00379 0.47442 0.0
C45 C 0.98977 0.04013 0.39817 0.0
C46 C 0.98762 0.03758 0.43225 0.0
C47 C 1.03941 0.01141 0.37979 0.0
C48 C 0.08688 0.97885 0.39583 0.0
C49 C 0.08556 0.9757 0.43004 0.0
C50 C 1.0357 0.00529 0.448 0.0
H51 H 1.02701 0.94865 0.61082 0.0
H52 H 0.16965 0.0889 0.64134 0.0
H53 H 0.0909 0.04596 0.53808 0.0
C54 C 0.05783 0.98295 0.60472 0.0
C55 C 0.05448 -0.00707 0.57153 0.0
C56 C 0.09886 0.01748 0.63016 0.0
C57 C 0.1383 0.06168 0.62186 0.0
C58 C 0.13618 0.07216 0.58879 0.0
C59 C 0.09391 0.03766 0.56357 0.0
H60 H 0.4556 0.53893 0.88057 0.0
H61 H 0.62946 0.43255 0.87366 0.0
H62 H 0.56225 0.49243 0.96966 0.0
C63 C 0.4947 0.51523 0.89256 0.0
C64 C 0.50183 0.51851 0.92743 0.0
C65 C 0.54071 0.48473 0.87303 0.0
C66 C 0.59435 0.45671 0.88871 0.0
C67 C 0.60269 0.45913 0.92356 0.0
C68 C 0.55578 0.48989 0.94279 0.0
H69 H 0.50989 0.46716 0.12587 0.0
H70 H 0.68588 0.58514 0.13501 0.0
H71 H 0.56974 0.53211 0.0392 0.0
C72 C 0.5441 0.49405 0.11463 0.0
C73 C 0.53242 0.49632 0.08029 0.0
C74 C 0.59967 0.52555 0.13455 0.0
C75 C 0.6449 0.55896 0.11957 0.0
C76 C 0.6349 0.56161 0.08523 0.0
C77 C 0.57854 0.5299 0.06562 0.0
C78 C 0.18685 0.18813 0.00837 0.0
C79 C 0.22784 0.14471 0.99721 0.0
C80 C 0.20774 0.24085 0.0037 0.0
C81 C 0.2701 0.25052 0.98786 0.0
C82 C 0.3044 0.20604 0.9727 0.0
C83 C 0.28401 0.15365 0.97768 0.0
C84 C 0.30765 0.30501 0.99105 0.0
C85 C 0.30691 0.3416 0.01862 0.0
C86 C 0.36094 0.38774 0.02929 0.0
C87 C 0.34962 0.42401 0.05762 0.0
C88 C 0.40399 0.46128 0.07299 0.0
C89 C 0.47141 0.46338 0.06045 0.0
H90 H 0.43882 0.36525 0.99373 0.0
C91 C 0.48143 0.43008 0.03073 0.0
C92 C 0.42694 0.39238 0.01532 0.0
H93 H 0.53289 0.43087 0.02057 0.0
H94 H 0.14378 0.18225 0.02381 0.0
H95 H 0.1781 0.27402 0.01456 0.0
H96 H 0.35182 0.21209 0.95994 0.0
H97 H 0.31684 0.12076 0.96914 0.0
H98 H 0.34529 0.31107 0.97299 0.0
H99 H 0.26941 0.33444 0.03659 0.0
H100 H 0.29955 0.42182 0.06895 0.0
H101 H 0.39416 0.48717 0.09554 0.0
C102 C 0.28319 0.85676 0.01944 0.0
C103 C 0.22012 0.87416 0.00357 0.0
C104 C 0.30549 0.80454 0.01098 0.0
C105 C 0.26504 0.7677 0.98646 0.0
C106 C 0.20135 0.7847 0.97088 0.0
C107 C 0.17884 0.83728 0.97943 0.0
C108 C 0.29119 0.71343 0.97457 0.0
C109 C 0.34122 0.68842 0.99216 0.0
C110 C 0.37743 0.63977 0.9779 0.0
C111 C 0.44802 0.63203 0.99061 0.0
C112 C 0.48736 0.59075 0.97539 0.0
C113 C 0.4566 0.55586 0.94729 0.0
H114 H 0.28975 0.60571 0.94158 0.0
C115 C 0.3841 0.56105 0.93617 0.0
C116 C 0.34494 0.60255 0.95124 0.0
H117 H 0.35816 0.5339 0.91511 0.0
H118 H 0.31651 0.88389 0.0382 0.0
H119 H 0.35601 0.79436 0.02297 0.0
H120 H 0.16945 0.75749 0.95162 0.0
H121 H 0.13034 0.84942 0.96652 0.0
H122 H 0.27098 0.69515 0.9496 0.0
H123 H 0.36116 0.70639 0.0172 0.0
H124 H 0.47416 0.65974 0.01137 0.0
H125 H 0.54308 0.58815 0.98451 0.0
C126 C 0.87997 0.89959 0.03998 0.0
C127 C 0.93826 0.9009 0.02074 0.0
C128 C 0.8605 0.85253 0.05245 0.0
C129 C 0.89838 0.80554 0.0454 0.0
C130 C 0.96157 0.80865 0.02935 0.0
C131 C 0.98126 0.85616 0.01686 0.0
C132 C 0.86866 0.75255 0.05209 0.0
C133 C 0.79745 0.73959 0.04617 0.0
C134 C 0.76059 0.68888 0.05284 0.0
C135 C 0.68748 0.67904 0.04138 0.0
C136 C 0.64755 0.63589 0.05036 0.0
C137 C 0.67981 0.60141 0.07105 0.0
H138 H 0.84975 0.65875 0.08181 0.0
C139 C 0.75383 0.60942 0.08113 0.0
C140 C 0.79385 0.65275 0.07224 0.0
H141 H 0.78034 0.58317 0.0969 0.0
H142 H 0.84595 0.93367 0.04313 0.0
H143 H 0.8131 0.85198 0.06587 0.0
H144 H 0.99227 0.77315 0.02409 0.0
H145 H 1.02573 0.85613 0.0016 0.0
H146 H 0.90591 0.72346 0.05975 0.0
H147 H 0.76322 0.76833 0.03563 0.0
H148 H 0.66025 0.7061 0.0264 0.0
H149 H 0.59053 0.6314 0.04263 0.0
C150 C 0.97532 0.2028 0.99297 0.0
C151 C 0.9442 0.15972 0.00641 0.0
C152 C 0.93992 0.25125 0.99262 0.0
C153 C 0.87306 0.25718 0.00588 0.0
C154 C 0.84584 0.21568 0.02193 0.0
C155 C 0.88046 0.16722 0.02179 0.0
C156 C 0.82702 0.30344 1.00131 0.0
C157 C 0.82621 0.32922 0.97429 0.0
C158 C 0.77029 0.36698 0.96506 0.0
C159 C 0.7838 0.39998 0.94082 0.0
C160 C 0.73025 0.43118 0.92826 0.0
C161 C 0.66133 0.42995 0.93944 0.0
H162 H 0.68802 0.3413 0.99504 0.0
C163 C 0.64814 0.39834 0.96443 0.0
C164 C 0.70185 0.36707 0.97708 0.0
H165 H 0.59527 0.39581 0.9731 0.0
H166 H 1.02407 0.19766 0.98067 0.0
H167 H 0.96372 0.28305 0.98095 0.0
H168 H 0.79497 0.21923 0.03263 0.0
H169 H 0.85522 0.13432 0.03207 0.0
H170 H 0.78743 0.31218 0.01892 0.0
H171 H 0.86588 0.32003 0.95674 0.0
H172 H 0.83567 0.40074 0.93096 0.0
H173 H 0.7425 0.45568 0.90933 0.0
C174 C 0.70005 0.70504 0.50634 0.0
C175 C 0.72238 0.65508 0.49182 0.0
C176 C 0.7329 0.75339 0.49986 0.0
C177 C 0.78858 0.7522 0.47863 0.0
C178 C 0.80292 0.70237 0.46061 0.0
C179 C 0.77027 0.65424 0.46721 0.0
C180 C 0.84304 0.79807 0.48052 0.0
C181 C 0.83534 0.84872 0.49553 0.0
C182 C 0.89837 0.88611 0.50883 0.0
C183 C 0.89208 0.94237 0.51171 0.0
C184 C 0.94607 0.97777 0.52987 0.0
C185 C 1.00627 0.95733 0.54614 0.0
H186 H 0.9672 0.82305 0.52245 0.0
C187 C 1.01401 0.90132 0.54209 0.0
C188 C 0.96107 0.8661 0.52342 0.0
H189 H 0.05968 0.88466 0.55465 0.0
H190 H 0.66431 0.70666 0.52592 0.0
H191 H 0.71994 0.79063 0.51439 0.0
H192 H 0.8451 0.70003 0.44398 0.0
H193 H 0.78928 0.61617 0.45611 0.0
H194 H 0.89553 0.78786 0.47275 0.0
H195 H 0.78259 0.86185 0.50104 0.0
H196 H 0.84408 0.95884 0.50105 0.0
H197 H 0.93852 0.02084 0.53302 0.0
C198 C 0.76819 0.36943 0.52269 0.0
C199 C 0.70583 0.38793 0.50694 0.0
C200 C 0.78754 0.3163 0.51467 0.0
C201 C 0.7448 0.28001 0.4907 0.0
C202 C 0.68176 0.29815 0.47534 0.0
C203 C 0.66213 0.35148 0.48353 0.0
C204 C 0.76886 0.22538 0.47868 0.0
C205 C 0.81535 0.19861 0.49691 0.0
C206 C 0.85312 0.15096 0.48251 0.0
C207 C 0.92114 0.14152 0.49753 0.0
C208 C 0.96356 0.10263 0.48213 0.0
C209 C 0.93845 0.072 0.45147 0.0
H210 H 0.7724 0.12157 0.44159 0.0
C211 C 0.8681 0.07834 0.43784 0.0
C212 C 0.82575 0.11731 0.4532 0.0
H213 H 0.84651 0.05417 0.41471 0.0
H214 H 0.80315 0.39635 0.54089 0.0
H215 H 0.83776 0.30485 0.52633 0.0
H216 H 0.64834 0.27128 0.45647 0.0
H217 H 0.6141 0.36457 0.47075 0.0
H218 H 0.75106 0.20889 0.4531 0.0
H219 H 0.83213 0.21516 0.52259 0.0
H220 H 0.94326 0.16635 0.52035 0.0
H221 H 1.01748 0.09876 0.49333 0.0
C222 C 0.40932 0.41293 0.5544 0.0
C223 C 0.44314 0.41038 0.52497 0.0
C224 C 0.39018 0.36551 0.56679 0.0
C225 C 0.40314 0.31469 0.54936 0.0
C226 C 0.44436 0.31274 0.52211 0.0
C227 C 0.46368 0.3603 0.5098 0.0
C228 C 0.3681 0.26371 0.55667 0.0
C229 C 0.30275 0.26258 0.5682 0.0
C230 C 0.26137 0.21251 0.57254 0.0
C231 C 0.21011 0.21647 0.59574 0.0
C232 C 0.16861 0.17107 0.60039 0.0
C233 C 0.17651 0.12067 0.58152 0.0
H234 H 0.30578 0.158 0.5342 0.0
C235 C 0.22601 0.11671 0.55745 0.0
C236 C 0.26846 0.16223 0.55308 0.0
H237 H 0.23298 0.07823 0.5426 0.0
H238 H 0.39208 0.45116 0.56618 0.0
H239 H 0.36139 0.36874 0.58879 0.0
H240 H 0.45605 0.27423 0.50852 0.0
H241 H 0.48816 0.3574 0.48656 0.0
H242 H 0.3937 0.22614 0.54971 0.0
H243 H 0.27703 0.30028 0.5746 0.0
H244 H 0.20266 0.25482 0.61066 0.0
H245 H 0.13032 0.17529 0.61889 0.0
C246 C 0.36784 0.68682 0.51612 0.0
C247 C 0.43662 0.6757 0.50669 0.0
C248 C 0.33836 0.73609 0.51212 0.0
C249 C 0.37717 0.77581 0.49857 0.0
C250 C 0.44825 0.76615 0.49152 0.0
C251 C 0.47803 0.7166 0.49575 0.0
C252 C 0.34164 0.82328 0.48703 0.0
C253 C 0.27928 0.84119 0.49758 0.0
C254 C 0.23275 0.87833 0.48072 0.0
C255 C 0.1601 0.87903 0.48691 0.0
C256 C 0.1126 0.9103 0.47035 0.0
C257 C 0.13658 0.94222 0.44734 0.0
H258 H 0.31293 0.91284 0.45299 0.0
C259 C 0.20951 0.94246 0.44147 0.0
C260 C 0.25722 0.91098 0.45801 0.0
H261 H 0.22992 0.96749 0.42435 0.0
H262 H 0.33472 0.65584 0.52453 0.0
H263 H 0.28316 0.7406 0.51735 0.0
H264 H 0.47942 0.7958 0.48096 0.0
H265 H 0.5309 0.70877 0.48793 0.0
H266 H 0.365 0.84051 0.46718 0.0
H267 H 0.25766 0.82476 0.51814 0.0
H268 H 0.13943 0.85418 0.50408 0.0
H269 H 0.0566 0.90869 0.47508 0.0
C270 C 0.12888 0.05834 0.14477 0.0
C271 C 0.09042 0.029 0.11635 0.0
C272 C 0.11088 0.05221 0.17652 0.0
C273 C 0.05344 0.01666 0.18085 0.0
C274 C 1.01369 -0.01181 0.15243 0.0
C275 C 1.03154 -0.00534 0.1204 0.0
C276 C 1.03798 0.00593 0.21468 0.0
C277 C 0.05452 0.04263 0.24208 0.0
C278 C 0.04736 0.0323 0.27676 0.0
C279 C 0.04468 0.07692 0.30149 0.0
C280 C 0.04226 0.06991 0.33475 0.0
C281 C 0.04316 0.018 0.34427 0.0
H282 H 0.05268 0.94485 0.26802 0.0
C283 C 0.04671 0.97315 0.31968 0.0
C284 C 0.04859 0.98015 0.28619 0.0
H285 H 0.04745 0.93267 0.32632 0.0
H286 H 0.1746 0.08511 0.14254 0.0
H287 H 0.14438 0.07375 0.19757 0.0
H288 H 0.96958 0.96019 0.15502 0.0
H289 H 1.00137 0.97106 0.09898 0.0
H290 H 1.01235 0.96705 0.21689 0.0
H291 H 0.0735 0.08315 0.23915 0.0
H292 H 0.04478 0.11758 0.29508 0.0
H293 H 0.04069 0.10537 0.35316 0.0
C294 C 0.05371 0.96017 0.86884 0.0
C295 C 0.08309 -0.00048 0.89496 0.0
C296 C 0.07277 0.96068 0.83661 0.0
C297 C 0.12039 0.00155 0.82949 0.0
C298 C 0.15361 0.03877 0.85602 0.0
C299 C 0.13524 0.03773 0.88859 0.0
C300 C 0.13399 0.00709 0.7946 0.0
C301 C 0.08399 -0.00898 0.76875 0.0
C302 C 0.09117 -0.00218 0.73344 0.0
C303 C 1.02891 -0.00992 0.71102 0.0
C304 C 1.03171 -0.00411 0.6776 0.0
C305 C 0.09709 0.00935 0.66557 0.0
H306 H 0.20664 0.01572 0.73752 0.0
C307 C 0.15982 0.01653 0.68782 0.0
C308 C 0.15704 0.01067 0.7214 0.0
H309 H 0.21122 0.02624 0.6792 0.0
H310 H 1.01471 0.92938 0.87322 0.0
H311 H 0.04893 0.92944 0.8173 0.0
H312 H 0.1915 0.07008 0.85135 0.0
H313 H 0.15897 0.06835 0.90837 0.0
H314 H 0.18351 0.02832 0.79072 0.0
H315 H 1.03238 0.97419 0.77377 0.0
H316 H 0.9774 0.98002 0.71945 0.0
H317 H 0.98219 -0.0091 0.66132 0.0
C318 C 0.53836 0.51697 0.62528 0.0
C319 C 0.59156 0.55404 0.61851 0.0
C320 C 0.52627 0.51212 0.65828 0.0
C321 C 0.56681 0.54491 0.685 0.0
C322 C 0.61653 0.58415 0.67782 0.0
C323 C 0.629 0.58852 0.64509 0.0
C324 C 0.56427 0.53768 0.72059 0.0
C325 C 0.51954 0.50276 0.73225 0.0
C326 C 0.52571 0.49548 0.76799 0.0
C327 C 0.46365 0.48511 0.78351 0.0
C328 C 0.46841 0.48062 0.81751 0.0
C329 C 0.53557 0.48539 0.83648 0.0
H330 H 0.64224 0.50455 0.77534 0.0
C331 C 0.59786 0.49349 0.82058 0.0
C332 C 0.59304 0.49841 0.78674 0.0
H333 H 0.65034 0.4975 0.83449 0.0
H334 H 0.50914 0.48962 0.60523 0.0
H335 H 0.4874 0.4813 0.66247 0.0
H336 H 0.6482 0.61031 0.69771 0.0
H337 H 0.66997 0.6178 0.64064 0.0
H338 H 0.60309 0.56235 0.73837 0.0
H339 H 0.47642 0.48024 0.71597 0.0
H340 H 0.41128 0.48185 0.76952 0.0
H341 H 0.41953 0.4737 0.82902 0.0
C342 C 0.60833 0.53833 0.38663 0.0
C343 C 0.55416 0.50491 0.39625 0.0
C344 C 0.62096 0.53518 0.35296 0.0
C345 C 0.58017 0.49786 0.32861 0.0
C346 C 0.52937 0.46252 0.33888 0.0
C347 C 0.51633 0.4661 0.37214 0.0
C348 C 0.58282 0.49678 0.29214 0.0
C349 C 0.63032 0.5252 0.2775 0.0
C350 C 0.62249 0.52569 0.24091 0.0
C351 C 0.68362 0.52834 0.22351 0.0
C352 C 0.67654 0.52788 0.18895 0.0
C353 C 0.60807 0.52557 0.17123 0.0
H354 H 0.50586 0.52473 0.23608 0.0
C355 C 0.54708 0.52448 0.18893 0.0
C356 C 0.55415 0.52461 0.22329 0.0
H357 H 0.49362 0.52443 0.17631 0.0
H358 H 0.63818 0.56865 0.40479 0.0
H359 H 0.66042 0.5634 0.3462 0.0
H360 H 0.49745 0.43312 0.32088 0.0
H361 H 0.47496 0.43921 0.37888 0.0
H362 H 0.54143 0.47142 0.27621 0.0
H363 H 0.67605 0.54753 0.29201 0.0
H364 H 0.73684 0.52979 0.23656 0.0
H365 H 0.72468 0.52868 0.17608 0.0
loop_
_geom_bond_atom_site_label_1
_geom_bond_atom_site_label_2
_geom_bond_distance
_geom_bond_site_symmetry_2
_ccdc_geom_bond_type
O0 Mn1 2.163 1_655 S
O0 C14 1.244 1_554 S
Mn1 O0 2.163 1_455 S
Mn1 O4 2.160 1_544 S
Mn1 O5 2.222 . S
Mn1 O7 2.173 . S
Mn1 O9 2.149 1_554 S
Mn1 O19 2.220 1_444 S
O2 Mn3 2.087 . S
O2 C14 1.256 . S
Mn3 O2 2.087 . S
Mn3 O10 2.089 . S
Mn3 O19 2.290 1_545 S
Mn3 O20 2.251 1_545 S
O4 Mn1 2.160 1_566 S
O4 C15 1.239 1_556 S
O5 Mn1 2.222 . S
O5 Mn6 2.290 . S
O5 C16 1.278 . S
Mn6 O5 2.290 . S
Mn6 O8 2.089 1_545 S
Mn6 O11 2.251 . S
Mn6 O12 2.087 . S
O7 Mn1 2.173 . S
O7 C17 1.244 . S
O8 Mn6 2.089 1_565 S
O8 C15 1.256 . S
O9 Mn1 2.149 1_556 S
O9 C18 1.239 . S
O10 Mn3 2.089 . S
O10 C18 1.256 1_655 S
O11 Mn6 2.251 . S
O11 C16 1.241 . S
O12 Mn6 2.087 . S
O12 C17 1.256 . S
C13 O19 1.278 1_554 S
C13 O20 1.241 1_554 S
C14 O0 1.244 1_556 S
C14 O2 1.256 . S
C15 O4 1.239 1_554 S
C15 O8 1.256 . S
C16 O5 1.278 . S
C16 O11 1.241 . S
C17 O7 1.244 . S
C17 O12 1.256 . S
C18 O9 1.239 . S
C18 O10 1.256 1_455 S
O19 Mn1 2.220 1_666 S
O19 Mn3 2.290 1_565 S
O19 C13 1.278 1_556 S
O20 Mn3 2.251 1_565 S
O20 C13 1.241 1_556 S
O21 Mn22 2.163 . S
O21 C35 1.244 . S
Mn22 O21 2.163 . S
Mn22 O25 2.160 . S
Mn22 O26 2.221 . S
Mn22 O28 2.163 . S
Mn22 O30 2.160 . S
Mn22 O40 2.221 . S
O23 Mn24 2.087 . S
O23 C35 1.256 . S
Mn24 O23 2.087 . S
Mn24 O31 2.089 . S
Mn24 O40 2.290 . S
Mn24 O41 2.251 . S
O25 Mn22 2.160 . S
O25 C36 1.239 . S
O26 Mn22 2.221 . S
O26 Mn27 2.290 . S
O26 C37 1.278 . S
Mn27 O26 2.290 . S
Mn27 O29 2.089 . S
Mn27 O32 2.251 . S
Mn27 O33 2.087 . S
O28 Mn22 2.163 . S
O28 C38 1.244 . S
O29 Mn27 2.089 . S
O29 C36 1.256 . S
O30 Mn22 2.160 . S
O30 C39 1.239 . S
O31 Mn24 2.089 . S
O31 C39 1.256 . S
O32 Mn27 2.251 . S
O32 C37 1.241 . S
O33 Mn27 2.087 . S
O33 C38 1.256 . S
C34 O40 1.278 . S
C34 O41 1.241 . S
C35 O21 1.244 . S
C35 O23 1.256 . S
C36 O25 1.239 . S
C36 O29 1.256 . S
C37 O26 1.278 . S
C37 O32 1.241 . S
C38 O28 1.244 . S
C38 O33 1.256 . S
C39 O30 1.239 . S
C39 O31 1.256 . S
O40 Mn22 2.221 . S
O40 Mn24 2.290 . S
O40 C34 1.278 . S
O41 Mn24 2.251 . S
O41 C34 1.241 . S
H42 C45 0.931 1_655 S
H43 C48 0.928 . S
H44 C50 0.930 . S
C45 H42 0.931 1_455 S
C45 C46 1.413 . S
C45 C47 1.366 . S
C46 C45 1.413 . S
C46 C50 1.429 . S
C47 C45 1.366 . S
C47 C48 1.365 1_545 S
C48 H43 0.928 . S
C48 C47 1.365 1_565 S
C48 C49 1.404 . S
C49 C48 1.404 . S
C49 C50 1.391 1_565 S
C50 H44 0.930 . S
C50 C46 1.429 . S
C50 C49 1.391 1_545 S
H51 C54 0.931 . S
H52 C57 0.928 . S
H53 C59 0.930 . S
C54 H51 0.931 . S
C54 C55 1.413 . S
C54 C56 1.360 1_655 S
C55 C54 1.413 . S
C55 C59 1.438 . S
C56 C54 1.360 1_455 S
C56 C57 1.372 . S
C57 H52 0.928 . S
C57 C56 1.372 . S
C57 C58 1.404 . S
C58 C57 1.404 . S
C58 C59 1.382 1_455 S
C59 H53 0.930 . S
C59 C55 1.438 . S
C59 C58 1.382 1_655 S
H60 C63 0.931 . S
H61 C66 0.928 . S
H62 C68 0.930 . S
C63 H60 0.931 . S
C63 C64 1.413 . S
C63 C65 1.360 . S
C64 C63 1.413 . S
C64 C68 1.429 . S
C65 C63 1.360 . S
C65 C66 1.372 . S
C66 H61 0.928 . S
C66 C65 1.372 . S
C66 C67 1.404 . S
C67 C66 1.404 . S
C67 C68 1.391 . S
C68 H62 0.930 . S
C68 C64 1.429 . S
C68 C67 1.391 . S
H69 C72 0.931 . S
H70 C75 0.928 . S
H71 C77 0.930 . S
C72 H69 0.931 . S
C72 C73 1.413 . S
C72 C74 1.360 . S
C73 C72 1.413 . S
C73 C77 1.429 . S
C74 C72 1.360 . S
C74 C75 1.372 . S
C75 H70 0.928 . S
C75 C74 1.372 . S
C75 C76 1.404 . S
C76 C75 1.404 . S
C76 C77 1.391 . S
C77 H71 0.930 . S
C77 C73 1.429 . S
C77 C76 1.391 . S
C78 C79 1.386 . S
C78 C80 1.383 . S
C78 H94 0.951 . S
C79 C78 1.386 . S
C79 C83 1.383 1_554 S
C80 C78 1.383 . S
C80 C81 1.402 . S
C80 H95 0.951 . S
C81 C80 1.402 . S
C81 C82 1.375 1_554 S
C81 C84 1.481 . S
C82 C81 1.375 1_556 S
C82 C83 1.367 . S
C82 H96 0.951 . S
C83 C79 1.383 1_556 S
C83 C82 1.367 . S
C83 H97 0.950 . S
C84 C81 1.481 . S
C84 C85 1.297 . S
C84 H98 0.950 . S
C85 C84 1.297 . S
C85 C86 1.479 . S
C85 H99 0.950 . S
C86 C85 1.479 . S
C86 C87 1.375 . S
C86 C92 1.404 . S
C87 C86 1.375 . S
C87 C88 1.369 . S
C87 H100 0.950 . S
C88 C87 1.369 . S
C88 C89 1.392 . S
C88 H101 0.951 . S
C89 C88 1.392 . S
C89 C91 1.384 . S
H90 C92 0.949 . S
C91 C89 1.384 . S
C91 C92 1.385 . S
C91 H93 0.950 . S
C92 C86 1.404 . S
C92 H90 0.949 . S
C92 C91 1.385 . S
H93 C91 0.950 . S
H94 C78 0.951 . S
H95 C80 0.951 . S
H96 C82 0.951 . S
H97 C83 0.950 . S
H98 C84 0.950 . S
H99 C85 0.950 . S
H100 C87 0.950 . S
H101 C88 0.951 . S
C102 C103 1.368 1_554 S
C102 C104 1.383 . S
C102 H118 0.951 . S
C103 C102 1.368 1_556 S
C103 C107 1.407 . S
C104 C102 1.383 . S
C104 C105 1.402 1_554 S
C104 H119 0.951 . S
C105 C104 1.402 1_556 S
C105 C106 1.375 . S
C105 C108 1.481 . S
C106 C105 1.375 . S
C106 C107 1.367 . S
C106 H120 0.951 . S
C107 C103 1.407 . S
C107 C106 1.367 . S
C107 H121 0.950 . S
C108 C105 1.481 . S
C108 C109 1.297 . S
C108 H122 0.950 . S
C109 C108 1.297 . S
C109 C110 1.479 . S
C109 H123 0.950 1_556 S
C110 C109 1.479 . S
C110 C111 1.375 . S
C110 C116 1.404 . S
C111 C110 1.375 . S
C111 C112 1.369 . S
C111 H124 0.950 1_556 S
C112 C111 1.369 . S
C112 C113 1.392 . S
C112 H125 0.951 . S
C113 C112 1.392 . S
C113 C115 1.384 . S
H114 C116 0.949 . S
C115 C113 1.384 . S
C115 C116 1.385 . S
C115 H117 0.950 . S
C116 C110 1.404 . S
C116 H114 0.949 . S
C116 C115 1.385 . S
H117 C115 0.950 . S
H118 C102 0.951 . S
H119 C104 0.951 . S
H120 C106 0.951 . S
H121 C107 0.950 . S
H122 C108 0.950 . S
H123 C109 0.950 1_554 S
H124 C111 0.950 1_554 S
H125 C112 0.951 . S
C126 C127 1.386 . S
C126 C128 1.383 . S
C126 H142 0.951 . S
C127 C126 1.386 . S
C127 C131 1.383 1_554 S
C128 C126 1.383 . S
C128 C129 1.402 . S
C128 H143 0.951 . S
C129 C128 1.402 . S
C129 C130 1.371 1_554 S
C129 C132 1.481 . S
C130 C129 1.371 1_556 S
C130 C131 1.368 . S
C130 H144 0.954 . S
C131 C127 1.383 1_556 S
C131 C130 1.368 . S
C131 H145 0.950 . S
C132 C129 1.481 . S
C132 C133 1.297 . S
C132 H146 0.950 . S
C133 C132 1.297 . S
C133 C134 1.479 . S
C133 H147 0.950 . S
C134 C133 1.479 . S
C134 C135 1.375 . S
C134 C140 1.404 . S
C135 C134 1.375 . S
C135 C136 1.369 . S
C135 H148 0.950 . S
C136 C135 1.369 . S
C136 C137 1.392 . S
C136 H149 0.951 . S
C137 C136 1.392 . S
C137 C139 1.384 . S
H138 C140 0.949 . S
C139 C137 1.384 . S
C139 C140 1.385 . S
C139 H141 0.950 . S
C140 C134 1.404 . S
C140 H138 0.949 . S
C140 C139 1.385 . S
H141 C139 0.950 . S
H142 C126 0.951 . S
H143 C128 0.951 . S
H144 C130 0.954 . S
H145 C131 0.950 . S
H146 C132 0.950 . S
H147 C133 0.950 . S
H148 C135 0.950 . S
H149 C136 0.951 . S
C150 C151 1.386 . S
C150 C152 1.383 . S
C150 H166 0.951 . S
C151 C150 1.386 . S
C151 C155 1.383 . S
C152 C150 1.383 . S
C152 C153 1.402 . S
C152 H167 0.951 . S
C153 C152 1.402 . S
C153 C154 1.375 . S
C153 C156 1.481 . S
C154 C153 1.375 . S
C154 C155 1.367 . S
C154 H168 0.951 . S
C155 C151 1.383 . S
C155 C154 1.367 . S
C155 H169 0.950 . S
C156 C153 1.481 . S
C156 C157 1.297 . S
C156 H170 0.950 . S
C157 C156 1.297 . S
C157 C158 1.479 . S
C157 H171 0.950 . S
C158 C157 1.479 . S
C158 C159 1.375 . S
C158 C164 1.404 . S
C159 C158 1.375 . S
C159 C160 1.369 . S
C159 H172 0.950 . S
C160 C159 1.369 . S
C160 C161 1.392 . S
C160 H173 0.951 . S
C161 C160 1.392 . S
C161 C163 1.384 . S
H162 C164 0.949 . S
C163 C161 1.384 . S
C163 C164 1.385 . S
C163 H165 0.950 . S
C164 C158 1.404 . S
C164 H162 0.949 . S
C164 C163 1.385 . S
H165 C163 0.950 . S
H166 C150 0.951 . S
H167 C152 0.951 . S
H168 C154 0.951 . S
H169 C155 0.950 . S
H170 C156 0.950 . S
H171 C157 0.950 . S
H172 C159 0.950 . S
H173 C160 0.951 . S
C174 C175 1.386 . S
C174 C176 1.383 . S
C174 H190 0.951 . S
C175 C174 1.386 . S
C175 C179 1.383 . S
C176 C174 1.383 . S
C176 C177 1.402 . S
C176 H191 0.951 . S
C177 C176 1.402 . S
C177 C178 1.375 . S
C177 C180 1.481 . S
C178 C177 1.375 . S
C178 C179 1.367 . S
C178 H192 0.951 . S
C179 C175 1.383 . S
C179 C178 1.367 . S
C179 H193 0.950 . S
C180 C177 1.481 . S
C180 C181 1.297 . S
C180 H194 0.950 . S
C181 C180 1.297 . S
C181 C182 1.479 . S
C181 H195 0.950 . S
C182 C181 1.479 . S
C182 C183 1.375 . S
C182 C188 1.404 . S
C183 C182 1.375 . S
C183 C184 1.369 1_565 S
C183 H196 0.950 . S
C184 C183 1.369 1_545 S
C184 C185 1.392 . S
C184 H197 0.951 . S
C185 C184 1.392 . S
C185 C187 1.384 1_545 S
H186 C188 0.949 . S
C187 C185 1.384 1_565 S
C187 C188 1.385 . S
C187 H189 0.950 . S
C188 C182 1.404 . S
C188 H186 0.949 . S
C188 C187 1.385 . S
H189 C187 0.950 . S
H190 C174 0.951 . S
H191 C176 0.951 . S
H192 C178 0.951 . S
H193 C179 0.950 . S
H194 C180 0.950 . S
H195 C181 0.950 . S
H196 C183 0.950 . S
H197 C184 0.951 . S
C198 C199 1.386 . S
C198 C200 1.383 . S
C198 H214 0.951 . S
C199 C198 1.386 . S
C199 C203 1.383 . S
C200 C198 1.383 . S
C200 C201 1.402 . S
C200 H215 0.951 . S
C201 C200 1.402 . S
C201 C202 1.375 . S
C201 C204 1.481 . S
C202 C201 1.375 . S
C202 C203 1.367 . S
C202 H216 0.951 . S
C203 C199 1.383 . S
C203 C202 1.367 . S
C203 H217 0.950 . S
C204 C201 1.481 . S
C204 C205 1.297 . S
C204 H218 0.950 . S
C205 C204 1.297 . S
C205 C206 1.479 . S
C205 H219 0.950 . S
C206 C205 1.479 . S
C206 C207 1.375 . S
C206 C212 1.404 . S
C207 C206 1.375 . S
C207 C208 1.369 . S
C207 H220 0.950 . S
C208 C207 1.369 . S
C208 C209 1.392 . S
C208 H221 0.951 1_655 S
C209 C208 1.392 . S
C209 C211 1.384 . S
H210 C212 0.949 . S
C211 C209 1.384 . S
C211 C212 1.385 . S
C211 H213 0.950 . S
C212 C206 1.404 . S
C212 H210 0.949 . S
C212 C211 1.385 . S
H213 C211 0.950 . S
H214 C198 0.951 . S
H215 C200 0.951 . S
H216 C202 0.951 . S
H217 C203 0.950 . S
H218 C204 0.950 . S
H219 C205 0.950 . S
H220 C207 0.950 . S
H221 C208 0.951 1_455 S
C222 C223 1.386 . S
C222 C224 1.383 . S
C222 H238 0.951 . S
C223 C222 1.386 . S
C223 C227 1.383 . S
C224 C222 1.383 . S
C224 C225 1.402 . S
C224 H239 0.951 . S
C225 C224 1.402 . S
C225 C226 1.375 . S
C225 C228 1.481 . S
C226 C225 1.375 . S
C226 C227 1.367 . S
C226 H240 0.951 . S
C227 C223 1.383 . S
C227 C226 1.367 . S
C227 H241 0.950 . S
C228 C225 1.481 . S
C228 C229 1.297 . S
C228 H242 0.950 . S
C229 C228 1.297 . S
C229 C230 1.479 . S
C229 H243 0.950 . S
C230 C229 1.479 . S
C230 C231 1.375 . S
C230 C236 1.404 . S
C231 C230 1.375 . S
C231 C232 1.369 . S
C231 H244 0.950 . S
C232 C231 1.369 . S
C232 C233 1.392 . S
C232 H245 0.951 . S
C233 C232 1.392 . S
C233 C235 1.384 . S
H234 C236 0.949 . S
C235 C233 1.384 . S
C235 C236 1.385 . S
C235 H237 0.950 . S
C236 C230 1.404 . S
C236 H234 0.949 . S
C236 C235 1.385 . S
H237 C235 0.950 . S
H238 C222 0.951 . S
H239 C224 0.951 . S
H240 C226 0.951 . S
H241 C227 0.950 . S
H242 C228 0.950 . S
H243 C229 0.950 . S
H244 C231 0.950 . S
H245 C232 0.951 . S
C246 C247 1.386 . S
C246 C248 1.383 . S
C246 H262 0.951 . S
C247 C246 1.386 . S
C247 C251 1.383 . S
C248 C246 1.383 . S
C248 C249 1.402 . S
C248 H263 0.951 . S
C249 C248 1.402 . S
C249 C250 1.375 . S
C249 C252 1.481 . S
C250 C249 1.375 . S
C250 C251 1.367 . S
C250 H264 0.951 . S
C251 C247 1.383 . S
C251 C250 1.367 . S
C251 H265 0.950 . S
C252 C249 1.481 . S
C252 C253 1.297 . S
C252 H266 0.950 . S
C253 C252 1.297 . S
C253 C254 1.479 . S
C253 H267 0.950 . S
C254 C253 1.479 . S
C254 C255 1.375 . S
C254 C260 1.404 . S
C255 C254 1.375 . S
C255 C256 1.369 . S
C255 H268 0.950 . S
C256 C255 1.369 . S
C256 C257 1.392 . S
C256 H269 0.951 . S
C257 C256 1.392 . S
C257 C259 1.384 . S
H258 C260 0.949 . S
C259 C257 1.384 . S
C259 C260 1.385 . S
C259 H261 0.950 . S
C260 C254 1.404 . S
C260 H258 0.949 . S
C260 C259 1.385 . S
H261 C259 0.950 . S
H262 C246 0.951 . S
H263 C248 0.951 . S
H264 C250 0.951 . S
H265 C251 0.950 . S
H266 C252 0.950 . S
H267 C253 0.950 . S
H268 C255 0.950 . S
H269 C256 0.951 . S
C270 C271 1.386 . S
C270 C272 1.383 . S
C270 H286 0.951 1_455 S
C271 C270 1.386 . S
C271 C275 1.383 1_545 S
C272 C270 1.383 . S
C272 C273 1.402 1_545 S
C272 H287 0.951 1_455 S
C273 C272 1.402 1_565 S
C273 C274 1.375 . S
C273 C276 1.481 . S
C274 C273 1.375 . S
C274 C275 1.367 . S
C274 H288 0.951 . S
C275 C271 1.383 1_565 S
C275 C274 1.367 . S
C275 H289 0.950 . S
C276 C273 1.481 . S
C276 C277 1.297 1_565 S
C276 H290 0.950 . S
C277 C276 1.297 1_545 S
C277 C278 1.479 1_545 S
C277 H291 0.950 1_455 S
C278 C277 1.479 1_565 S
C278 C279 1.375 1_465 S
C278 C284 1.404 . S
C279 C278 1.375 1_645 S
C279 C280 1.369 . S
C279 H292 0.950 . S
C280 C279 1.369 . S
C280 C281 1.391 1_645 S
C280 H293 0.952 . S
C281 C280 1.391 1_465 S
C281 C283 1.384 . S
H282 C284 0.949 . S
C283 C281 1.384 . S
C283 C284 1.385 . S
C283 H285 0.950 . S
C284 C278 1.404 . S
C284 H282 0.949 . S
C284 C283 1.385 . S
H285 C283 0.950 . S
H286 C270 0.951 1_655 S
H287 C272 0.951 1_655 S
H288 C274 0.951 . S
H289 C275 0.950 . S
H290 C276 0.950 . S
H291 C277 0.950 1_655 S
H292 C279 0.950 . S
H293 C280 0.952 . S
C294 C295 1.386 1_655 S
C294 C296 1.383 . S
C294 H310 0.955 . S
C295 C294 1.386 1_455 S
C295 C299 1.383 . S
C296 C294 1.383 . S
C296 C297 1.402 1_655 S
C296 H311 0.951 . S
C297 C296 1.402 1_455 S
C297 C298 1.375 . S
C297 C300 1.481 . S
C298 C297 1.375 . S
C298 C299 1.367 . S
C298 H312 0.951 . S
C299 C295 1.383 . S
C299 C298 1.367 . S
C299 H313 0.950 . S
C300 C297 1.481 . S
C300 C301 1.297 1_455 S
C300 H314 0.950 . S
C301 C300 1.297 1_655 S
C301 C302 1.479 . S
C301 H315 0.950 . S
C302 C301 1.479 . S
C302 C303 1.375 . S
C302 C308 1.404 1_655 S
C303 C302 1.375 . S
C303 C304 1.369 . S
C303 H316 0.950 . S
C304 C303 1.369 . S
C304 C305 1.402 . S
C304 H317 0.951 . S
C305 C304 1.402 . S
C305 C307 1.376 1_655 S
H306 C308 0.949 . S
C307 C305 1.376 1_455 S
C307 C308 1.385 . S
C307 H309 0.950 . S
C308 C302 1.404 1_455 S
C308 H306 0.949 . S
C308 C307 1.385 . S
H309 C307 0.950 . S
H310 C294 0.955 . S
H311 C296 0.951 . S
H312 C298 0.951 . S
H313 C299 0.950 . S
H314 C300 0.950 . S
H315 C301 0.950 . S
H316 C303 0.950 . S
H317 C304 0.951 . S
C318 C319 1.386 . S
C318 C320 1.383 . S
C318 H334 0.951 . S
C319 C318 1.386 . S
C319 C323 1.383 . S
C320 C318 1.383 . S
C320 C321 1.402 . S
C320 H335 0.951 . S
C321 C320 1.402 . S
C321 C322 1.375 . S
C321 C324 1.481 . S
C322 C321 1.375 . S
C322 C323 1.367 . S
C322 H336 0.951 . S
C323 C319 1.383 . S
C323 C322 1.367 . S
C323 H337 0.950 . S
C324 C321 1.481 . S
C324 C325 1.297 . S
C324 H338 0.950 . S
C325 C324 1.297 . S
C325 C326 1.479 . S
C325 H339 0.950 . S
C326 C325 1.479 . S
C326 C327 1.375 . S
C326 C332 1.404 . S
C327 C326 1.375 . S
C327 C328 1.369 . S
C327 H340 0.950 . S
C328 C327 1.369 . S
C328 C329 1.392 . S
C328 H341 0.951 . S
C329 C328 1.392 . S
C329 C331 1.384 . S
H330 C332 0.949 . S
C331 C329 1.384 . S
C331 C332 1.385 . S
C331 H333 0.950 . S
C332 C326 1.404 . S
C332 H330 0.949 . S
C332 C331 1.385 . S
H333 C331 0.950 . S
H334 C318 0.951 . S
H335 C320 0.951 . S
H336 C322 0.951 . S
H337 C323 0.950 . S
H338 C324 0.950 . S
H339 C325 0.950 . S
H340 C327 0.950 . S
H341 C328 0.951 . S
C342 C343 1.386 . S
C342 C344 1.383 . S
C342 H358 0.951 . S
C343 C342 1.386 . S
C343 C347 1.383 . S
C344 C342 1.383 . S
C344 C345 1.402 . S
C344 H359 0.951 . S
C345 C344 1.402 . S
C345 C346 1.375 . S
C345 C348 1.481 . S
C346 C345 1.375 . S
C346 C347 1.367 . S
C346 H360 0.951 . S
C347 C343 1.383 . S
C347 C346 1.367 . S
C347 H361 0.950 . S
C348 C345 1.481 . S
C348 C349 1.297 . S
C348 H362 0.950 . S
C349 C348 1.297 . S
C349 C350 1.479 . S
C349 H363 0.950 . S
C350 C349 1.479 . S
C350 C351 1.375 . S
C350 C356 1.404 . S
C351 C350 1.375 . S
C351 C352 1.369 . S
C351 H364 0.950 . S
C352 C351 1.369 . S
C352 C353 1.392 . S
C352 H365 0.951 . S
C353 C352 1.392 . S
C353 C355 1.384 . S
H354 C356 0.949 . S
C355 C353 1.384 . S
C355 C356 1.385 . S
C355 H357 0.950 . S
C356 C350 1.404 . S
C356 H354 0.949 . S
C356 C355 1.385 . S
H357 C355 0.950 . S
H358 C342 0.951 . S
H359 C344 0.951 . S
H360 C346 0.951 . S
H361 C347 0.950 . S
H362 C348 0.950 . S
H363 C349 0.950 . S
H364 C351 0.950 . S
H365 C352 0.951 . S
C89 C73 1.298 . S
C79 C16 1.122 . S
C103 C15 1.413 1_556 S
C113 C64 1.417 . S
C127 C13 1.224 . S
C137 C76 1.410 . S
C151 C14 1.226 . S
C161 C67 1.283 . S
C175 C37 1.083 . S
C185 C55 1.307 . S
C199 C36 1.419 . S
C209 C46 1.422 1_655 S
C233 C58 1.408 . S
C223 C34 1.219 . S
C257 C49 1.321 . S
C247 C35 1.284 . S
C271 C17 1.517 . S
C281 C47 1.541 1_565 S
C295 C18 1.374 . S
C305 C56 1.416 1_655 S
C329 C65 1.545 . S
C319 C38 1.485 . S
C343 C39 1.347 . S
C353 C74 1.396 . S
