# Generated by pormake.
# Topology pth, (4,4)-cn, num edge types: 1
# Building blocks:
#     Node 0, Type 0, BuildingBlock: QUQFOY_clean_sbu_1, # of connection points: 4
#     Node 1, Type 0, BuildingBlock: QUQFOY_clean_sbu_1, # of connection points: 4
#     Node 2, Type 0, BuildingBlock: QUQFOY_clean_sbu_1, # of connection points: 4
#     Node 3, Type 1, BuildingBlock: NAHDIM_clean_linker_0, # of connection points: 4
#     Node 4, Type 1, BuildingBlock: NAHDIM_clean_linker_0, # of connection points: 4
#     Node 5, Type 1, BuildingBlock: NAHDIM_clean_linker_0, # of connection points: 4
#     Edge 6, Type (0, 1), BuildingBlock: ZUJKAS_clean_linker_0, # of connection points: 2
#     Edge 7, Type (0, 1), BuildingBlock: ZUJKAS_clean_linker_0, # of connection points: 2
#     Edge 8, Type (0, 1), BuildingBlock: ZUJKAS_clean_linker_0, # of connection points: 2
#     Edge 9, Type (0, 1), BuildingBlock: ZUJKAS_clean_linker_0, # of connection points: 2
#     Edge 10, Type (0, 1), BuildingBlock: ZUJKAS_clean_linker_0, # of connection points: 2
#     Edge 11, Type (0, 1), BuildingBlock: ZUJKAS_clean_linker_0, # of connection points: 2
#     Edge 12, Type (0, 1), BuildingBlock: ZUJKAS_clean_linker_0, # of connection points: 2
#     Edge 13, Type (0, 1), BuildingBlock: ZUJKAS_clean_linker_0, # of connection points: 2
#     Edge 14, Type (0, 1), BuildingBlock: ZUJKAS_clean_linker_0, # of connection points: 2
#     Edge 15, Type (0, 1), BuildingBlock: ZUJKAS_clean_linker_0, # of connection points: 2
#     Edge 16, Type (0, 1), BuildingBlock: ZUJKAS_clean_linker_0, # of connection points: 2
#     Edge 17, Type (0, 1), BuildingBlock: ZUJKAS_clean_linker_0, # of connection points: 2
# Relax obj value: 0.026
# Max RMSD: 0.121
# Mean RMSD: 0.079
data_MOF--net-pth--node1-QUQFOY_clean_sbu_1--node2-NAHDIM_clean_linker_0--edge1-ZUJKAS_clean_linker_0
_symmetry_space_group_name_H-M    P1
_symmetry_Int_Tables_number       1
_symmetry_cell_setting            triclinic
loop_
_symmetry_equiv_pos_as_xyz
'x, y, z'
_cell_length_a     37.25866
_cell_length_b     40.315781
_cell_length_c     101.05099
_cell_angle_alpha  89.753742
_cell_angle_beta   90.60706
_cell_angle_gamma 120.04959
loop_
_atom_site_label
_atom_site_type_symbol
_atom_site_fract_x
_atom_site_fract_y
_atom_site_fract_z
_atom_type_partial_charge
O0 O 0.0468 0.07602 0.06593 0.0
Cd1 Cd 0.99558 0.04078 0.07707 0.0
Cd2 Cd 0.03093 0.99692 0.07652 0.0
O3 O 0.07891 0.04265 0.06693 0.0
O4 O 0.97537 0.07506 0.08346 0.0
O5 O -0.00029 0.04715 0.09684 0.0
C6 C 0.98533 0.07019 0.09528 0.0
C7 C 0.04283 0.96829 0.09476 0.0
C8 C 0.07775 0.07222 0.06317 0.0
C9 C 0.94688 0.96547 0.06353 0.0
O10 O 0.97834 0.96174 0.06569 0.0
O11 O 0.94625 0.99484 0.06774 0.0
O12 O 0.05144 0.96267 0.08294 0.0
O13 O 0.02896 0.99167 0.09628 0.0
O14 O 0.99924 0.05848 0.41838 0.0
Cd15 Cd 0.04722 0.06894 0.406 0.0
Cd16 Cd 0.01006 0.99239 0.40629 0.0
O17 O 0.96363 0.99566 0.41623 0.0
O18 O 0.06713 0.12144 0.39906 0.0
O19 O 0.03796 0.06958 0.38642 0.0
C20 C 0.05357 0.10619 0.38757 0.0
C21 C 0.99331 0.94835 0.38912 0.0
C22 C 0.96721 0.02646 0.42086 0.0
C23 C 0.09581 0.03757 0.4186 0.0
O24 O 0.06345 0.00515 0.41673 0.0
O25 O 0.09726 0.06792 0.41436 0.0
O26 O 0.98651 0.93766 0.40132 0.0
O27 O 0.00847 0.98434 0.38657 0.0
O28 O 0.945 0.98138 0.72669 0.0
Cd29 Cd 0.98377 0.96952 0.73794 0.0
Cd30 Cd 0.03004 0.04575 0.74011 0.0
O31 O 0.97981 0.04351 0.73054 0.0
O32 O 0.95034 0.91565 0.74403 0.0
O33 O 0.97643 0.96546 0.75764 0.0
C34 C 0.95472 0.9288 0.75591 0.0
C35 C 0.0583 0.08642 0.7583 0.0
C36 C 0.94892 0.01439 0.72538 0.0
C37 C 0.06809 0.00568 0.72606 0.0
O38 O 0.07131 0.03762 0.7291 0.0
O39 O 0.03591 0.9745 0.7292 0.0
O40 O 0.06267 0.09951 0.74642 0.0
O41 O 0.03704 0.04976 0.75996 0.0
C42 C 0.98357 0.62738 0.32404 0.0
C43 C 0.00741 0.66031 0.31429 0.0
C44 C 0.99851 0.62529 0.29381 0.0
C45 C 0.03852 0.63106 0.29199 0.0
C46 C 0.04492 0.60605 0.28404 0.0
C47 C 0.01054 0.57455 0.27787 0.0
C48 C 0.97022 0.56898 0.27957 0.0
C49 C 0.96487 0.5949 0.28736 0.0
C50 C 0.08841 0.61331 0.28219 0.0
C51 C 0.93276 0.5355 0.27326 0.0
C52 C 0.01029 0.30795 0.30481 0.0
C53 C 0.00013 0.33194 0.29606 0.0
C54 C 0.02884 0.39864 0.28919 0.0
C55 C 0.99138 0.39351 0.28383 0.0
C56 C 0.9897 0.42386 0.27759 0.0
C57 C 0.02629 0.45993 0.27651 0.0
C58 C 0.0639 0.46537 0.28204 0.0
C59 C 0.0646 0.43463 0.28837 0.0
C60 C 0.9489 0.41722 0.27198 0.0
C61 C 0.10344 0.50347 0.28104 0.0
C62 C 0.03693 0.40776 0.19297 0.0
C63 C 0.9985 0.40113 0.19754 0.0
C64 C 0.99481 0.43061 0.20352 0.0
C65 C 0.03046 0.46729 0.20508 0.0
C66 C 0.06881 0.47448 0.19986 0.0
C67 C 0.0714 0.44461 0.1937 0.0
C68 C 0.95307 0.42229 0.20851 0.0
C69 C 0.10729 0.51332 0.20123 0.0
C70 C 0.97531 0.69937 0.20586 0.0
C71 C 0.00757 0.7022 0.19599 0.0
C72 C 0.00125 0.63925 0.19499 0.0
C73 C 0.96805 0.60193 0.19626 0.0
C74 C 0.97375 0.57308 0.20197 0.0
C75 C 0.01391 0.58182 0.20618 0.0
C76 C 0.04808 0.619 0.2041 0.0
C77 C 0.04135 0.64743 0.19856 0.0
C78 C 0.93671 0.53364 0.20391 0.0
C79 C 0.09149 0.62888 0.20804 0.0
C80 C 0.01678 0.54735 0.26969 0.0
C81 C 0.02007 0.51827 0.27618 0.0
C82 C 0.02537 0.49136 0.26909 0.0
C83 C 0.02771 0.49347 0.25513 0.0
C84 C 0.03361 0.46717 0.24772 0.0
C85 C 0.03436 0.46858 0.23397 0.0
C86 C 0.02913 0.49629 0.22708 0.0
C87 C 0.02821 0.497 0.21308 0.0
C88 C 0.02366 0.52533 0.20653 0.0
C89 C 0.01964 0.55299 0.21363 0.0
C90 C 0.0199 0.5524 0.22764 0.0
C91 C 0.01538 0.57949 0.23509 0.0
C92 C 0.01502 0.5783 0.24885 0.0
C93 C 0.01856 0.54965 0.25571 0.0
C94 C 0.02377 0.52242 0.24842 0.0
C95 C 0.02447 0.52382 0.23437 0.0
C96 C 0.06267 0.34818 0.20364 0.0
C97 C 0.02894 0.34421 0.19392 0.0
O98 O 0.99141 0.6487 0.30162 0.0
O99 O 0.99378 0.66667 0.19017 0.0
O100 O 0.04152 0.37915 0.18778 0.0
O101 O 0.03175 0.36977 0.29517 0.0
H102 H 0.04062 0.66833 0.31467 0.0
H103 H 0.98702 0.60245 0.32132 0.0
H104 H 0.95005 0.61828 0.32387 0.0
H105 H 0.99595 0.63634 0.33425 0.0
H106 H 0.06491 0.65541 0.29655 0.0
H107 H 0.93417 0.59097 0.28874 0.0
H108 H 0.09117 0.5895 0.28669 0.0
H109 H 0.11213 0.64068 0.2868 0.0
H110 H 0.09511 0.61403 0.27147 0.0
H111 H 0.90326 0.53323 0.27656 0.0
H112 H 0.93222 0.50836 0.27569 0.0
H113 H 0.93457 0.53874 0.26234 0.0
H114 H 0.98653 0.31906 0.28622 0.0
H115 H 0.96821 0.29312 0.32039 0.0
H116 H 0.04493 0.32437 0.30638 0.0
H117 H 0.01064 0.28596 0.29806 0.0
H118 H 0.96333 0.3659 0.28443 0.0
H119 H 0.09329 0.43841 0.29257 0.0
H120 H 0.95063 0.41904 0.26102 0.0
H121 H 0.94255 0.43981 0.27551 0.0
H122 H 0.92255 0.38876 0.27476 0.0
H123 H 0.13037 0.50284 0.28559 0.0
H124 H 0.0995 0.52588 0.28605 0.0
H125 H 0.11028 0.51184 0.27048 0.0
H126 H 6e-05 0.33504 0.19961 0.0
H127 H 0.97138 0.37296 0.19643 0.0
H128 H 0.10075 0.4495 0.1899 0.0
H129 H 0.95325 0.42168 0.21949 0.0
H130 H 0.92754 0.39431 0.20486 0.0
H131 H 0.94666 0.44528 0.20538 0.0
H132 H 0.13484 0.51418 0.19674 0.0
H133 H 0.11396 0.52105 0.21186 0.0
H134 H 0.10208 0.53534 0.19639 0.0
H135 H 0.03709 0.71163 0.20153 0.0
H136 H 0.98582 0.72765 0.2106 0.0
H137 H 0.97097 0.67843 0.21375 0.0
H138 H 0.94498 0.68971 0.20083 0.0
H139 H 0.93736 0.59583 0.19322 0.0
H140 H 0.06737 0.67596 0.197 0.0
H141 H 0.93324 0.52619 0.2146 0.0
H142 H 0.94161 0.51212 0.19866 0.0
H143 H 0.90748 0.53156 0.2002 0.0
H144 H 0.11518 0.65762 0.20442 0.0
H145 H 0.09849 0.6071 0.20409 0.0
H146 H 0.09389 0.62855 0.219 0.0
H147 H 0.018 0.51628 0.28689 0.0
H148 H 0.03749 0.44502 0.25245 0.0
H149 H 0.03885 0.44746 0.22882 0.0
H150 H 0.02279 0.52561 0.1958 0.0
H151 H 0.01191 0.60189 0.23037 0.0
H152 H 0.01149 0.59992 0.25403 0.0
H153 H 0.09233 0.35762 0.1984 0.0
H154 H 0.05308 0.32039 0.20862 0.0
H155 H 0.06787 0.36973 0.21135 0.0
C156 C 0.38143 0.94279 0.65956 0.0
C157 C 0.37843 0.97508 0.65259 0.0
C158 C 0.39453 0.97966 0.62939 0.0
C159 C 0.41658 0.0191 0.62693 0.0
C160 C 0.44728 0.03429 0.6172 0.0
C161 C 0.45646 0.00942 0.61001 0.0
C162 C 0.43301 0.96933 0.61218 0.0
C163 C 0.40165 0.95491 0.62171 0.0
C164 C 0.47081 0.07702 0.61494 0.0
C165 C 0.44231 0.94186 0.60493 0.0
C166 C 0.69996 0.1521 0.65752 0.0
C167 C 0.68997 0.11527 0.65022 0.0
C168 C 0.67286 0.10681 0.62697 0.0
C169 C 0.65027 0.0669 0.62568 0.0
C170 C 0.61828 0.04946 0.61625 0.0
C171 C 0.60813 0.07256 0.60822 0.0
C172 C 0.63236 0.11303 0.60912 0.0
C173 C 0.66514 0.12965 0.61834 0.0
C174 C 0.59406 0.00631 0.61533 0.0
C175 C 0.62211 0.13874 0.60097 0.0
C176 C 0.67044 0.07746 0.52266 0.0
C177 C 0.6488 0.04039 0.52797 0.0
C178 C 0.6116 0.02803 0.5348 0.0
C179 C 0.59615 0.05348 0.53642 0.0
C180 C 0.61723 0.09037 0.53065 0.0
C181 C 0.65389 0.10166 0.52366 0.0
C182 C 0.58908 0.98801 0.54042 0.0
C183 C 0.6015 0.11813 0.53209 0.0
C184 C 0.26131 0.95754 0.53439 0.0
C185 C 0.30152 0.98518 0.52731 0.0
C186 C 0.36442 0.98042 0.52859 0.0
C187 C 0.37715 0.9539 0.53137 0.0
C188 C 0.41722 0.96585 0.53624 0.0
C189 C 0.44515 0.00537 0.53824 0.0
C190 C 0.43344 0.03253 0.53452 0.0
C191 C 0.39323 0.01978 0.52963 0.0
C192 C 0.42908 0.93622 0.53982 0.0
C193 C 0.46293 0.07495 0.53619 0.0
C194 C 0.49357 0.0255 0.60145 0.0
C195 C 0.53215 0.04115 0.60775 0.0
C196 C 0.56863 0.05456 0.60056 0.0
C197 C 0.56665 0.05138 0.58661 0.0
C198 C 0.60238 0.06254 0.57908 0.0
C199 C 0.60003 0.05962 0.56534 0.0
C200 C 0.5618 0.04531 0.55862 0.0
C201 C 0.55903 0.04218 0.54465 0.0
C202 C 0.52069 0.02873 0.53827 0.0
C203 C 0.48475 0.01808 0.5455 0.0
C204 C 0.48673 0.02021 0.55948 0.0
C205 C 0.45099 0.00914 0.56706 0.0
C206 C 0.45314 0.01092 0.58081 0.0
C207 C 0.49113 0.02415 0.5875 0.0
C208 C 0.52774 0.03652 0.58006 0.0
C209 C 0.52542 0.03395 0.56604 0.0
C210 C 0.77587 0.12358 0.52417 0.0
C211 C 0.73912 0.08467 0.52008 0.0
O212 O 0.36729 0.96515 0.63945 0.0
O213 O 0.32414 0.96697 0.52512 0.0
O214 O 0.70684 0.0905 0.51625 0.0
O215 O 0.70042 0.12365 0.63701 0.0
H216 H 0.40956 0.00144 0.65334 0.0
H217 H 0.40528 0.93832 0.6547 0.0
H218 H 0.35123 0.91557 0.65906 0.0
H219 H 0.39057 0.95028 0.67011 0.0
H220 H 0.41015 0.03794 0.6328 0.0
H221 H 0.38402 0.92442 0.62368 0.0
H222 H 0.50209 0.08941 0.61955 0.0
H223 H 0.45482 0.09129 0.61933 0.0
H224 H 0.47492 0.08347 0.60418 0.0
H225 H 0.42389 0.91208 0.60871 0.0
H226 H 0.47577 0.95117 0.60589 0.0
H227 H 0.43515 0.94177 0.59425 0.0
H228 H 0.65588 0.09545 0.6512 0.0
H229 H 0.69176 0.146 0.66814 0.0
H230 H 0.68166 0.16434 0.65313 0.0
H231 H 0.73344 0.17376 0.65674 0.0
H232 H 0.65705 0.04947 0.6323 0.0
H233 H 0.68313 0.16052 0.61943 0.0
H234 H 0.58682 0.99693 0.60485 0.0
H235 H 0.56426 0.9954 0.62061 0.0
H236 H 0.61124 0.99317 0.6199 0.0
H237 H 0.64193 0.16945 0.60365 0.0
H238 H 0.58913 0.13049 0.60234 0.0
H239 H 0.62648 0.13535 0.59033 0.0
H240 H 0.73065 0.06548 0.52885 0.0
H241 H 0.66074 0.02104 0.52668 0.0
H242 H 0.67055 0.12996 0.51929 0.0
H243 H 0.59067 0.98951 0.55139 0.0
H244 H 0.60257 0.97041 0.53707 0.0
H245 H 0.55582 0.97345 0.53747 0.0
H246 H 0.62278 0.14651 0.52764 0.0
H247 H 0.5975 0.12222 0.54272 0.0
H248 H 0.57068 0.10614 0.52719 0.0
H249 H 0.3184 0.00998 0.53415 0.0
H250 H 0.24228 0.97132 0.53601 0.0
H251 H 0.26871 0.94971 0.54418 0.0
H252 H 0.24285 0.93083 0.52856 0.0
H253 H 0.35497 0.92363 0.53024 0.0
H254 H 0.38431 0.0406 0.52681 0.0
H255 H 0.43265 0.9357 0.55073 0.0
H256 H 0.45939 0.94389 0.53537 0.0
H257 H 0.40548 0.90704 0.53645 0.0
H258 H 0.44972 0.09246 0.53234 0.0
H259 H 0.49227 0.08331 0.53094 0.0
H260 H 0.47069 0.08168 0.54684 0.0
H261 H 0.53382 0.04283 0.61848 0.0
H262 H 0.63254 0.07359 0.58375 0.0
H263 H 0.62862 0.0688 0.56006 0.0
H264 H 0.51886 0.02682 0.52755 0.0
H265 H 0.42084 0.99874 0.56248 0.0
H266 H 0.42467 0.00192 0.58615 0.0
H267 H 0.7874 0.14326 0.51554 0.0
H268 H 0.80164 0.1204 0.52837 0.0
H269 H 0.766 0.13676 0.53191 0.0
C270 C 0.6167 0.64006 0.83416 0.0
C271 C 0.64541 0.67038 0.84424 0.0
C272 C 0.62577 0.62985 0.8639 0.0
C273 C 0.59398 0.63596 0.86841 0.0
C274 C 0.56364 0.60994 0.87704 0.0
C275 C 0.56496 0.57705 0.88121 0.0
C276 C 0.59788 0.57161 0.87715 0.0
C277 C 0.62823 0.59845 0.86866 0.0
C278 C 0.52956 0.61714 0.88148 0.0
C279 C 0.60022 0.53687 0.88146 0.0
C280 C 0.34655 0.42375 0.83129 0.0
C281 C 0.34062 0.39183 0.84085 0.0
C282 C 0.36013 0.41926 0.86278 0.0
C283 C 0.39011 0.40954 0.86642 0.0
C284 C 0.42212 0.43243 0.87532 0.0
C285 C 0.42391 0.46556 0.8807 0.0
C286 C 0.39239 0.47425 0.87758 0.0
C287 C 0.36052 0.45062 0.86873 0.0
C288 C 0.45462 0.42182 0.87873 0.0
C289 C 0.3932 0.50918 0.88325 0.0
C290 C 0.34736 0.40601 0.96245 0.0
C291 C 0.37906 0.39748 0.9603 0.0
C292 C 0.41743 0.42536 0.95525 0.0
C293 C 0.42415 0.46242 0.9524 0.0
C294 C 0.39334 0.4718 0.95549 0.0
C295 C 0.35535 0.44342 0.96058 0.0
C296 C 0.45018 0.41485 0.95243 0.0
C297 C 0.39986 0.51128 0.95282 0.0
C298 C 0.73398 0.70683 0.95531 0.0
C299 C 0.6983 0.69791 0.96469 0.0
C300 C 0.6421 0.63133 0.964 0.0
C301 C 0.63753 0.59539 0.96146 0.0
C302 C 0.60074 0.56591 0.95587 0.0
C303 C 0.56774 0.57266 0.95293 0.0
C304 C 0.57114 0.60811 0.95636 0.0
C305 C 0.60827 0.63706 0.96196 0.0
C306 C 0.59774 0.52813 0.95259 0.0
C307 C 0.53603 0.61579 0.9537 0.0
C308 C 0.53034 0.54725 0.88907 0.0
C309 C 0.49512 0.52026 0.88217 0.0
C310 C 0.46026 0.49249 0.88883 0.0
C311 C 0.46039 0.49123 0.90279 0.0
C312 C 0.42581 0.46368 0.90979 0.0
C313 C 0.426 0.46313 0.92355 0.0
C314 C 0.4609 0.48996 0.93085 0.0
C315 C 0.4612 0.48991 0.94485 0.0
C316 C 0.49642 0.51683 0.95181 0.0
C317 C 0.5315 0.54424 0.94511 0.0
C318 C 0.53167 0.545 0.9311 0.0
C319 C 0.56628 0.5726 0.92406 0.0
C320 C 0.56598 0.57339 0.9103 0.0
C321 C 0.53115 0.54652 0.90304 0.0
C322 C 0.49599 0.51838 0.90993 0.0
C323 C 0.49625 0.51769 0.92397 0.0
C324 C 0.24773 0.33063 0.95555 0.0
C325 C 0.28846 0.34058 0.9626 0.0
O326 O 0.65381 0.65301 0.85477 0.0
O327 O 0.67945 0.65971 0.96842 0.0
O328 O 0.3087 0.37894 0.96618 0.0
O329 O 0.3312 0.39937 0.85332 0.0
H330 H 0.62993 0.68601 0.84784 0.0
H331 H 0.58645 0.62012 0.83876 0.0
H332 H 0.63085 0.62319 0.8306 0.0
H333 H 0.61069 0.6539 0.82555 0.0
H334 H 0.5925 0.66089 0.86525 0.0
H335 H 0.65313 0.59419 0.86525 0.0
H336 H 0.49953 0.59493 0.87717 0.0
H337 H 0.53505 0.64578 0.87839 0.0
H338 H 0.52677 0.61492 0.89242 0.0
H339 H 0.62803 0.53698 0.87755 0.0
H340 H 0.57206 0.51047 0.87799 0.0
H341 H 0.60094 0.53568 0.89243 0.0
H342 H 0.37049 0.3918 0.84106 0.0
H343 H 0.35278 0.41742 0.82115 0.0
H344 H 0.37346 0.4514 0.83456 0.0
H345 H 0.31868 0.42704 0.831 0.0
H346 H 0.38873 0.38428 0.86218 0.0
H347 H 0.33679 0.45747 0.86597 0.0
H348 H 0.45803 0.42114 0.88964 0.0
H349 H 0.48502 0.44394 0.87477 0.0
H350 H 0.44697 0.39352 0.87458 0.0
H351 H 0.36607 0.51165 0.87998 0.0
H352 H 0.42199 0.53538 0.88017 0.0
H353 H 0.39357 0.50803 0.89423 0.0
H354 H 0.30688 0.33472 0.95534 0.0
H355 H 0.37376 0.36902 0.96239 0.0
H356 H 0.33097 0.44988 0.96258 0.0
H357 H 0.45452 0.41497 0.94157 0.0
H358 H 0.44177 0.38608 0.95634 0.0
H359 H 0.4803 0.43647 0.95687 0.0
H360 H 0.37381 0.51462 0.95647 0.0
H361 H 0.40303 0.51695 0.94201 0.0
H362 H 0.42906 0.53321 0.95765 0.0
H363 H 0.67649 0.70417 0.9591 0.0
H364 H 0.74993 0.7375 0.95236 0.0
H365 H 0.72165 0.68905 0.94622 0.0
H366 H 0.75688 0.70043 0.96005 0.0
H367 H 0.66352 0.591 0.96339 0.0
H368 H 0.61082 0.66414 0.96463 0.0
H369 H 0.59631 0.52443 0.94168 0.0
H370 H 0.56878 0.50415 0.9567 0.0
H371 H 0.62463 0.52624 0.95651 0.0
H372 H 0.54281 0.64419 0.9575 0.0
H373 H 0.50725 0.5932 0.95839 0.0
H374 H 0.53002 0.61467 0.94288 0.0
H375 H 0.49462 0.52122 0.87143 0.0
H376 H 0.39811 0.44236 0.90471 0.0
H377 H 0.39833 0.44137 0.92838 0.0
H378 H 0.49636 0.51668 0.96255 0.0
H379 H 0.59401 0.59405 0.92909 0.0
H380 H 0.59339 0.59534 0.90541 0.0
H381 H 0.23075 0.29988 0.95267 0.0
H382 H 0.25433 0.34817 0.94644 0.0
H383 H 0.22765 0.33654 0.96202 0.0
H384 H 0.96403 0.12569 0.09426 0.0
H385 H 0.96779 0.16787 0.1121 0.0
H386 H 0.00443 0.10763 0.13949 0.0
H387 H 0.00186 0.06578 0.12154 0.0
H388 H 0.92897 0.15607 0.13558 0.0
H389 H 0.09826 0.21716 0.14358 0.0
H390 H 0.07098 0.18711 0.12959 0.0
H391 H 0.06819 0.16612 0.14555 0.0
C392 C 0.97262 0.12116 0.10409 0.0
C393 C 0.98307 0.09261 0.10646 0.0
C394 C 0.97471 0.14532 0.11429 0.0
C395 C 0.9872 0.14141 0.12707 0.0
C396 C 0.99572 0.11175 0.12963 0.0
H397 H 0.97156 0.26777 0.19493 0.0
H398 H 0.96028 0.21731 0.1792 0.0
C399 C 0.99394 0.08769 0.11939 0.0
C400 C 0.99239 0.1693 0.1375 0.0
H401 H 0.06428 0.23838 0.15794 0.0
C402 C 0.9585 0.174 0.14051 0.0
C403 C 0.03116 0.19308 0.14375 0.0
C404 C 0.06936 0.19098 0.14039 0.0
C405 C 0.96233 0.20195 0.14956 0.0
C406 C 0.00089 0.22522 0.156 0.0
C407 C 0.0347 0.22035 0.15305 0.0
C408 C 0.00729 0.25564 0.16553 0.0
C409 C 0.92543 0.20713 0.15178 0.0
C410 C 0.03831 0.29375 0.16329 0.0
C411 C 0.0451 0.3225 0.17232 0.0
C412 C 0.02061 0.31374 0.18371 0.0
C413 C 0.99006 0.27545 0.18605 0.0
C414 C 0.98351 0.24666 0.17706 0.0
H415 H 0.90239 0.19465 0.14357 0.0
H416 H 0.90982 0.19232 0.16105 0.0
H417 H 0.93512 0.23792 0.15277 0.0
H418 H 0.05735 0.30125 0.15453 0.0
H419 H 0.06963 0.35155 0.17044 0.0
H420 H 0.89081 0.96483 0.42674 0.0
H421 H 0.83856 0.96387 0.44156 0.0
H422 H 0.91924 0.08408 0.4498 0.0
H423 H 0.97068 0.0856 0.43484 0.0
H424 H 0.84196 0.9778 0.4675 0.0
H425 H 0.81313 0.08231 0.44122 0.0
H426 H 0.84085 0.06129 0.43373 0.0
H427 H 0.86757 0.10266 0.44435 0.0
C428 C 0.89717 0.99113 0.43161 0.0
C429 C 0.9348 0.02537 0.42952 0.0
C430 C 0.86731 0.99052 0.44007 0.0
C431 C 0.87459 0.02411 0.44656 0.0
C432 C 0.91232 0.05809 0.44459 0.0
H433 H 0.7983 0.06352 0.52058 0.0
H434 H 0.82412 0.04238 0.50232 0.0
C435 C 0.9419 0.05882 0.43608 0.0
C436 C 0.84407 0.02379 0.45594 0.0
H437 H 0.7987 0.07565 0.46473 0.0
C438 C 0.83177 0.99868 0.46678 0.0
C439 C 0.82969 0.05018 0.45484 0.0
C440 C 0.83814 0.07528 0.44281 0.0
C441 C 0.80792 0.00113 0.477 0.0
C442 C 0.79739 0.03038 0.47657 0.0
C443 C 0.8073 0.05365 0.46526 0.0
C444 C 0.77888 0.03941 0.488 0.0
C445 C 0.79457 0.97243 0.48813 0.0
C446 C 0.74538 0.04572 0.48607 0.0
C447 C 0.73173 0.05952 0.49638 0.0
C448 C 0.75108 0.06697 0.50894 0.0
C449 C 0.78318 0.05871 0.511 0.0
C450 C 0.79748 0.04587 0.5006 0.0
H451 H 0.78981 0.94448 0.48454 0.0
H452 H 0.81939 0.98304 0.49581 0.0
H453 H 0.76544 0.96765 0.49274 0.0
H454 H 0.73042 0.04093 0.47646 0.0
H455 H 0.70654 0.06494 0.49438 0.0
H456 H 0.94021 0.94675 0.78064 0.0
H457 H 0.89603 0.90196 0.79769 0.0
H458 H 0.877 0.80677 0.77332 0.0
H459 H 0.92009 0.85123 0.75614 0.0
H460 H 0.80528 0.80062 0.78075 0.0
H461 H 0.90749 0.83339 0.8248 0.0
H462 H 0.90833 0.87491 0.81795 0.0
H463 H 0.92754 0.84963 0.80839 0.0
C464 C 0.92728 0.9163 0.77905 0.0
C465 C 0.93331 0.90247 0.76702 0.0
C466 C 0.90226 0.89073 0.78884 0.0
C467 C 0.88349 0.851 0.78683 0.0
C468 C 0.89121 0.8373 0.77509 0.0
H469 H 0.71512 0.66492 0.83911 0.0
H470 H 0.77565 0.70892 0.82593 0.0
C471 C 0.91579 0.86276 0.76526 0.0
C472 C 0.85194 0.8237 0.79615 0.0
H473 H 0.83421 0.79583 0.82854 0.0
C474 C 0.81182 0.79934 0.79117 0.0
C475 C 0.86049 0.82191 0.80974 0.0
C476 C 0.90341 0.84609 0.81553 0.0
C477 C 0.77979 0.77394 0.79942 0.0
C478 C 0.78789 0.77328 0.81308 0.0
C479 C 0.82816 0.79677 0.81807 0.0
C480 C 0.75418 0.74903 0.82226 0.0
C481 C 0.73735 0.74809 0.79351 0.0
C482 C 0.72274 0.75758 0.8247 0.0
C483 C 0.68846 0.73276 0.83223 0.0
C484 C 0.68515 0.69909 0.83755 0.0
C485 C 0.71725 0.69102 0.83534 0.0
C486 C 0.75171 0.71602 0.82782 0.0
H487 H 0.73843 0.74609 0.78257 0.0
H488 H 0.72343 0.7188 0.79774 0.0
H489 H 0.71671 0.75968 0.79587 0.0
H490 H 0.72418 0.78295 0.82046 0.0
H491 H 0.6639 0.73936 0.83359 0.0
H492 H 0.05924 0.90968 0.09378 0.0
H493 H 0.05682 0.86852 0.1119 0.0
H494 H 0.03207 0.93605 0.13938 0.0
H495 H 0.03311 0.97681 0.12116 0.0
H496 H 0.1005 0.88077 0.13445 0.0
H497 H 0.93553 0.82989 0.14592 0.0
H498 H 0.96025 0.85755 0.13133 0.0
H499 H 0.96857 0.88088 0.14712 0.0
C500 C 0.05355 0.91601 0.10369 0.0
C501 C 0.04596 0.9463 0.10602 0.0
C502 C 0.0522 0.89242 0.11404 0.0
C503 C 0.04342 0.8987 0.12695 0.0
C504 C 0.03781 0.93006 0.12944 0.0
H505 H 0.06798 0.77786 0.19546 0.0
H506 H 0.07788 0.82671 0.17912 0.0
C507 C 0.03873 0.9535 0.11904 0.0
C508 C 0.03915 0.87165 0.13763 0.0
H509 H 0.9707 0.80818 0.15992 0.0
C510 C 0.07218 0.86497 0.14005 0.0
C511 C 0.00188 0.85059 0.14477 0.0
C512 C 0.96437 0.85473 0.1421 0.0
C513 C 0.06894 0.83772 0.14938 0.0
C514 C 0.03202 0.8173 0.15672 0.0
C515 C 0.99907 0.82409 0.15434 0.0
C516 C 0.02637 0.78788 0.16662 0.0
C517 C 0.10455 0.83017 0.15096 0.0
C518 C 0.99341 0.75012 0.16523 0.0
C519 C 0.9875 0.72231 0.1746 0.0
C520 C 0.01472 0.73168 0.18549 0.0
C521 C 0.04724 0.76967 0.18699 0.0
C522 C 0.05298 0.79753 0.17765 0.0
H523 H 0.12538 0.84038 0.14227 0.0
H524 H 0.12319 0.84565 0.15982 0.0
H525 H 0.09313 0.79913 0.15234 0.0
H526 H 0.97224 0.74217 0.15687 0.0
H527 H 0.96154 0.6935 0.17338 0.0
H528 H 0.16009 0.10125 0.43018 0.0
H529 H 0.21032 0.10297 0.44641 0.0
H530 H 0.15895 0.98111 0.44194 0.0
H531 H 0.10871 0.97902 0.42578 0.0
H532 H 0.18205 0.0589 0.47015 0.0
H533 H 0.28602 0.02412 0.4421 0.0
H534 H 0.25595 0.04285 0.4343 0.0
H535 H 0.23186 0.99294 0.43856 0.0
C536 C 0.16012 0.07496 0.43242 0.0
C537 C 0.13023 0.03993 0.42676 0.0
C538 C 0.18882 0.07603 0.44169 0.0
C539 C 0.18856 0.04224 0.44526 0.0
C540 C 0.16014 0.00761 0.43914 0.0
H541 H 0.26443 0.94222 0.50504 0.0
H542 H 0.24301 0.96172 0.48487 0.0
C543 C 0.13123 0.00643 0.42998 0.0
C544 C 0.21396 0.04192 0.45655 0.0
H545 H 0.28386 0.01463 0.46559 0.0
C546 C 0.20495 0.04996 0.46918 0.0
C547 C 0.24351 0.03003 0.45519 0.0
C548 C 0.25526 0.0223 0.44179 0.0
C549 C 0.2229 0.04422 0.48059 0.0
C550 C 0.25155 0.03109 0.47928 0.0
C551 C 0.26189 0.02466 0.46658 0.0
C552 C 0.26826 0.02076 0.49097 0.0
C553 C 0.20906 0.05007 0.49394 0.0
C554 C 0.29058 0.04771 0.50093 0.0
C555 C 0.3022 0.03644 0.51255 0.0
C556 C 0.29232 0.99819 0.5143 0.0
C557 C 0.27203 0.97178 0.504 0.0
C558 C 0.25999 0.98294 0.49246 0.0
H559 H 0.18004 0.05141 0.49321 0.0
H560 H 0.20384 0.02661 0.50085 0.0
H561 H 0.23352 0.07753 0.49825 0.0
H562 H 0.29823 0.07726 0.49984 0.0
H563 H 0.31824 0.05746 0.52028 0.0
H564 H 0.09001 0.16349 0.7585 0.0
H565 H 0.13261 0.20884 0.7757 0.0
H566 H 0.11777 0.11544 0.80044 0.0
H567 H 0.07411 0.06948 0.78327 0.0
H568 H 0.11585 0.17667 0.81445 0.0
H569 H 0.25141 0.22878 0.78144 0.0
H570 H 0.20852 0.23039 0.77387 0.0
H571 H 0.20331 0.18493 0.77832 0.0
C572 C 0.09533 0.15248 0.76765 0.0
C573 C 0.07924 0.11297 0.76946 0.0
C574 C 0.11974 0.17845 0.77746 0.0
C575 C 0.12904 0.16549 0.78919 0.0
C576 C 0.1111 0.12595 0.7914 0.0
H577 H 0.34738 0.33004 0.83322 0.0
H578 H 0.29434 0.2703 0.82308 0.0
C579 C 0.08624 0.09979 0.78159 0.0
C580 C 0.1598 0.19359 0.79861 0.0
H581 H 0.25951 0.26747 0.80021 0.0
C582 C 0.14742 0.19632 0.81143 0.0
C583 C 0.20118 0.21857 0.79473 0.0
C584 C 0.21709 0.21535 0.78139 0.0
C585 C 0.17502 0.22467 0.8203 0.0
C586 C 0.21565 0.25123 0.81608 0.0
C587 C 0.22831 0.24734 0.80343 0.0
C588 C 0.24543 0.28429 0.82427 0.0
C589 C 0.16043 0.22579 0.83407 0.0
C590 C 0.23537 0.31168 0.8286 0.0
C591 C 0.26557 0.34568 0.83456 0.0
C592 C 0.30657 0.35322 0.83602 0.0
C593 C 0.31613 0.32512 0.83214 0.0
C594 C 0.28584 0.29098 0.82636 0.0
H595 H 0.1351 0.1971 0.83714 0.0
H596 H 0.18618 0.23589 0.84141 0.0
H597 H 0.14806 0.24574 0.83422 0.0
H598 H 0.20472 0.30764 0.82684 0.0
H599 H 0.25733 0.36676 0.83754 0.0
H600 H 0.88162 0.95993 0.71141 0.0
H601 H 0.83227 0.96946 0.69801 0.0
H602 H 0.89739 0.08945 0.70823 0.0
H603 H 0.9465 0.08032 0.72167 0.0
H604 H 0.8099 0.05254 0.71072 0.0
H605 H 0.85832 0.02584 0.66184 0.0
H606 H 0.84485 0.98938 0.67422 0.0
H607 H 0.88983 0.03577 0.6766 0.0
C608 C 0.88539 0.98834 0.71082 0.0
C609 C 0.91813 0.01941 0.71757 0.0
C610 C 0.85731 0.99373 0.70311 0.0
C611 C 0.86158 0.03024 0.70202 0.0
C612 C 0.89372 0.06109 0.70892 0.0
H613 H 0.77302 0.13889 0.64861 0.0
H614 H 0.81158 0.11377 0.66079 0.0
C615 C 0.92178 0.05578 0.71658 0.0
C616 C 0.83261 0.03672 0.69379 0.0
H617 H 0.80434 0.0403 0.6618 0.0
C618 C 0.80835 0.04957 0.70003 0.0
C619 C 0.83109 0.0331 0.67985 0.0
C620 C 0.85757 0.02054 0.67266 0.0
C621 C 0.78305 0.05957 0.69268 0.0
C622 C 0.78158 0.05607 0.67873 0.0
C623 C 0.80538 0.04267 0.6725 0.0
C624 C 0.75752 0.06853 0.67045 0.0
C625 C 0.75935 0.07519 0.69988 0.0
C626 C 0.7143 0.05076 0.67161 0.0
C627 C 0.69234 0.06515 0.66472 0.0
C628 C 0.71317 0.09724 0.65643 0.0
C629 C 0.75625 0.11402 0.65488 0.0
C630 C 0.77822 0.0997 0.66181 0.0
H631 H 0.7708 0.08377 0.7102 0.0
H632 H 0.76162 0.10039 0.69461 0.0
H633 H 0.72613 0.05277 0.70029 0.0
H634 H 0.69771 0.0263 0.67807 0.0
H635 H 0.65916 0.05172 0.6661 0.0
H636 H 0.93543 0.89656 0.05519 0.0
H637 H 0.8815 0.8507 0.04035 0.0
H638 H 0.82507 0.92148 0.03885 0.0
H639 H 0.87925 0.96796 0.05372 0.0
H640 H 0.79104 0.81023 0.04242 0.0
H641 H 0.85263 0.9106 -0.00036 0.0
H642 H 0.88276 0.91773 0.01455 0.0
H643 H 0.84096 0.92774 0.01447 0.0
C644 C 0.91143 0.90236 0.05181 0.0
C645 C 0.91191 0.93616 0.05554 0.0
C646 C 0.88055 0.87601 0.04336 0.0
C647 C 0.84967 0.88297 0.03842 0.0
C648 C 0.84899 0.91589 0.04247 0.0
H649 H 0.68758 0.75839 0.97132 0.0
H650 H 0.71728 0.80199 0.99025 0.0
C651 C 0.87987 0.94231 0.05099 0.0
C652 C 0.81983 0.85656 0.02845 0.0
H653 H 0.79829 0.84839 0.99535 0.0
C654 C 0.79216 0.8186 0.03214 0.0
C655 C 0.82136 0.86774 0.0151 0.0
C656 C 0.85111 0.90807 0.0106 0.0
C657 C 0.76661 0.79116 0.02274 0.0
C658 C 0.76967 0.80186 0.00926 0.0
C659 C 0.79607 0.84023 0.00568 0.0
C660 C 0.74832 0.77337 0.99858 0.0
C661 C 0.73686 0.75095 0.02732 0.0
C662 C 0.75597 0.74288 0.99698 0.0
C663 C 0.73886 0.71788 0.98625 0.0
C664 C 0.71413 0.72314 0.97684 0.0
C665 C 0.70627 0.75352 0.97849 0.0
C666 C 0.72321 0.77841 0.98927 0.0
H667 H 0.72796 0.75067 0.0378 0.0
H668 H 0.70829 0.73731 0.0211 0.0
H669 H 0.75213 0.73341 0.02667 0.0
H670 H 0.77624 0.7391 0.0038 0.0
H671 H 0.74575 0.69494 0.98513 0.0
H672 H 0.00403 0.96055 0.36232 0.0
H673 H 0.99837 0.91461 0.34541 0.0
H674 H 0.96361 0.82772 0.37545 0.0
H675 H 0.96793 0.87271 0.39219 0.0
H676 H 0.04326 0.88082 0.34351 0.0
H677 H 0.87977 0.76737 0.34749 0.0
H678 H 0.89907 0.81415 0.35477 0.0
H679 H 0.90392 0.77746 0.36352 0.0
C680 C 0.99437 0.93141 0.36525 0.0
C681 C 0.98631 0.92025 0.37859 0.0
C682 C 0.9912 0.90522 0.35559 0.0
C683 C 0.97981 0.86746 0.3591 0.0
C684 C 0.97118 0.85626 0.37239 0.0
H685 H 0.05802 0.71697 0.33143 0.0
H686 H 0.05044 0.76963 0.34 0.0
C687 C 0.97404 0.88222 0.382 0.0
C688 C 0.98063 0.84055 0.34928 0.0
H689 H 0.92716 0.74698 0.3395 0.0
C690 C 0.01754 0.85178 0.34241 0.0
C691 C 0.94684 0.8029 0.34756 0.0
C692 C 0.90506 0.78997 0.35362 0.0
C693 C 0.02256 0.82561 0.33465 0.0
C694 C 0.99026 0.78691 0.33407 0.0
C695 C 0.95231 0.77642 0.34014 0.0
C696 C 0.99615 0.75635 0.32811 0.0
C697 C 0.06268 0.8397 0.32731 0.0
C698 C 0.96739 0.73047 0.31888 0.0
C699 C 0.97128 0.69985 0.31414 0.0
C700 C 0.00435 0.69487 0.31842 0.0
C701 C 0.03295 0.72077 0.32768 0.0
C702 C 0.02879 0.75103 0.33251 0.0
H703 H 0.07647 0.87044 0.32465 0.0
H704 H 0.0853 0.83701 0.3338 0.0
H705 H 0.05811 0.82294 0.31813 0.0
H706 H 0.94157 0.73361 0.3155 0.0
H707 H 0.94809 0.67979 0.30729 0.0
H708 H 0.13817 0.06641 0.71589 0.0
H709 H 0.19262 0.06443 0.70318 0.0
H710 H 0.12852 0.94135 0.70669 0.0
H711 H 0.07397 0.9429 0.71943 0.0
H712 H 0.21669 0.98076 0.71267 0.0
H713 H 0.17866 0.02347 0.66441 0.0
H714 H 0.18531 0.05374 0.67834 0.0
H715 H 0.14257 0.00546 0.67796 0.0
C716 C 0.13562 0.03889 0.71397 0.0
C717 C 0.1016 0.00478 0.71863 0.0
C718 C 0.16666 0.03784 0.70666 0.0
C719 C 0.16421 0.00272 0.70389 0.0
C720 C 0.13076 0.96871 0.7087 0.0
H721 H 0.29338 0.9361 0.64946 0.0
H722 H 0.24257 0.94501 0.66184 0.0
C723 C 0.09962 0.96968 0.71595 0.0
C724 C 0.19667 0.00126 0.69607 0.0
H725 H 0.23741 0.01559 0.66507 0.0
C726 C 0.22137 0.98848 0.70228 0.0
C727 C 0.20232 0.01111 0.6825 0.0
C728 C 0.17569 0.02397 0.67532 0.0
C729 C 0.25177 0.98531 0.69525 0.0
C730 C 0.25762 0.99541 0.68171 0.0
C731 C 0.23288 0.00812 0.67549 0.0
C732 C 0.2885 0.99175 0.67377 0.0
C733 C 0.27686 0.97045 0.70226 0.0
C734 C 0.33101 0.01551 0.67629 0.0
C735 C 0.36002 0.01067 0.66919 0.0
C736 C 0.34698 0.98221 0.65938 0.0
C737 C 0.30431 0.9587 0.6568 0.0
C738 C 0.27533 0.96368 0.66386 0.0
H739 H 0.26338 0.95733 0.71197 0.0
H740 H 0.27898 0.94882 0.69607 0.0
H741 H 0.30882 0.99453 0.70402 0.0
H742 H 0.34168 0.03746 0.68386 0.0
H743 H 0.39267 0.02879 0.6715 0.0
H744 H 0.09032 0.14289 0.05664 0.0
H745 H 0.14085 0.1888 0.0412 0.0
H746 H 0.19159 0.11452 0.03549 0.0
H747 H 0.14091 0.06807 0.05099 0.0
H748 H 0.23321 0.22587 0.04064 0.0
H749 H 0.14991 0.12906 0.99805 0.0
H750 H 0.12568 0.1231 0.01393 0.0
H751 H 0.16462 0.10988 0.01185 0.0
C752 C 0.11245 0.13638 0.05222 0.0
C753 C 0.1113 0.10162 0.05493 0.0
C754 C 0.14141 0.16275 0.04345 0.0
C755 C 0.16959 0.15481 0.03715 0.0
C756 C 0.1698 0.12093 0.04021 0.0
H757 H 0.30099 0.27951 0.96601 0.0
H758 H 0.28102 0.23556 0.98489 0.0
C759 C 0.14092 0.09453 0.04908 0.0
C760 C 0.19641 0.18097 0.02671 0.0
H761 H 0.20343 0.19092 0.99317 0.0
C762 C 0.22725 0.21815 0.03025 0.0
C763 C 0.18859 0.17061 0.01321 0.0
C764 C 0.15532 0.13109 0.00893 0.0
C765 C 0.24965 0.24578 0.02058 0.0
C766 C 0.24009 0.23609 0.00705 0.0
C767 C 0.21067 0.19832 0.00354 0.0
C768 C 0.25711 0.26525 0.99641 0.0
C769 C 0.28294 0.28514 0.02495 0.0
C770 C 0.25041 0.29656 0.99665 0.0
C771 C 0.26199 0.32173 0.98595 0.0
C772 C 0.28014 0.31586 0.97474 0.0
C773 C 0.28741 0.28486 0.97458 0.0
C774 C 0.27601 0.25978 0.98534 0.0
H775 H 0.29646 0.28397 0.03467 0.0
H776 H 0.30825 0.29849 0.0176 0.0
H777 H 0.26911 0.30375 0.02611 0.0
H778 H 0.23473 0.30071 0.00489 0.0
H779 H 0.25554 0.3451 0.98623 0.0
H780 H 0.08415 0.18339 0.38731 0.0
H781 H 0.07328 0.22078 0.37033 0.0
H782 H 0.0102 0.12023 0.34565 0.0
H783 H 0.02036 0.08227 0.36273 0.0
H784 H 0.0932 0.2353 0.3432 0.0
H785 H 0.92288 0.15251 0.35139 0.0
H786 H 0.95946 0.14969 0.36251 0.0
H787 H 0.94639 0.12465 0.34697 0.0
C788 C 0.06843 0.16925 0.3782 0.0
C789 C 0.05264 0.12972 0.37644 0.0
C790 C 0.06232 0.19072 0.3685 0.0
C791 C 0.04027 0.17311 0.35686 0.0
C792 C 0.02663 0.13417 0.35469 0.0
H793 H 0.91544 0.26099 0.296 0.0
H794 H 0.94211 0.21468 0.31032 0.0
C795 C 0.03267 0.11259 0.36442 0.0
C796 C 0.02931 0.19511 0.34751 0.0
H797 H 0.9471 0.20185 0.33567 0.0
C798 C 0.06126 0.22792 0.34147 0.0
C799 C 0.9876 0.18537 0.34528 0.0
C800 C 0.95203 0.15134 0.35194 0.0
C801 C 0.05261 0.25142 0.33331 0.0
C802 C 0.01096 0.24216 0.33139 0.0
C803 C 0.97901 0.20884 0.33713 0.0
C804 C -0.00052 0.26712 0.32397 0.0
C805 C 0.08817 0.28543 0.3267 0.0
C806 C 0.0232 0.31714 0.32849 0.0
C807 C 0.00702 0.34773 0.32063 0.0
C808 C 0.97172 0.32586 0.30609 0.0
C809 C 0.9385 0.2732 0.30382 0.0
C810 C 0.95691 0.24511 0.31225 0.0
H811 H 0.11495 0.28087 0.32534 0.0
H812 H 0.07887 0.29127 0.31689 0.0
H813 H 0.09881 0.3111 0.33306 0.0
H814 H 0.04654 0.32872 0.33623 0.0
H815 H 0.02278 0.37821 0.32258 0.0
loop_
_geom_bond_atom_site_label_1
_geom_bond_atom_site_label_2
_geom_bond_distance
_geom_bond_site_symmetry_2
_ccdc_geom_bond_type
O0 Cd1 2.223 1_455 S
O0 C8 1.315 . S
Cd1 O0 2.223 1_655 S
Cd1 O4 2.297 . S
Cd1 O5 2.439 1_655 S
Cd1 O11 2.240 1_545 S
Cd2 O3 2.240 1_565 S
Cd2 O10 2.223 . S
Cd2 O12 2.297 . S
Cd2 O13 2.439 . S
O3 Cd2 2.240 1_545 S
O3 C8 1.279 . S
O4 Cd1 2.297 . S
O4 C6 1.247 1_655 S
O5 Cd1 2.439 1_455 S
O5 C6 1.208 . S
C6 O4 1.247 1_455 S
C6 O5 1.208 . S
C7 O12 1.247 . S
C7 O13 1.208 . S
C8 O0 1.315 . S
C8 O3 1.279 . S
C9 O10 1.315 1_655 S
C9 O11 1.279 . S
O10 Cd2 2.223 . S
O10 C9 1.315 1_455 S
O11 Cd1 2.240 1_565 S
O11 C9 1.279 . S
O12 Cd2 2.297 . S
O12 C7 1.247 . S
O13 Cd2 2.439 . S
O13 C7 1.208 . S
O14 Cd15 2.223 . S
O14 C22 1.315 1_455 S
Cd15 O14 2.223 . S
Cd15 O18 2.297 . S
Cd15 O19 2.439 . S
Cd15 O25 2.240 . S
Cd16 O17 2.240 1_565 S
Cd16 O24 2.223 1_655 S
Cd16 O26 2.297 1_655 S
Cd16 O27 2.439 1_655 S
O17 Cd16 2.240 1_545 S
O17 C22 1.279 . S
O18 Cd15 2.297 . S
O18 C20 1.247 . S
O19 Cd15 2.439 . S
O19 C20 1.208 . S
C20 O18 1.247 . S
C20 O19 1.208 . S
C21 O26 1.247 . S
C21 O27 1.208 . S
C22 O14 1.315 1_655 S
C22 O17 1.279 . S
C23 O24 1.315 1_545 S
C23 O25 1.279 . S
O24 Cd16 2.223 1_455 S
O24 C23 1.315 1_565 S
O25 Cd15 2.240 . S
O25 C23 1.279 . S
O26 Cd16 2.297 1_455 S
O26 C21 1.247 . S
O27 Cd16 2.439 1_455 S
O27 C21 1.208 . S
O28 Cd29 2.223 . S
O28 C36 1.315 1_565 S
Cd29 O28 2.223 . S
Cd29 O32 2.297 . S
Cd29 O33 2.439 . S
Cd29 O39 2.240 1_665 S
Cd30 O31 2.240 1_455 S
Cd30 O38 2.223 . S
Cd30 O40 2.297 . S
Cd30 O41 2.439 . S
O31 Cd30 2.240 1_655 S
O31 C36 1.279 . S
O32 Cd29 2.297 . S
O32 C34 1.247 . S
O33 Cd29 2.439 . S
O33 C34 1.208 . S
C34 O32 1.247 . S
C34 O33 1.208 . S
C35 O40 1.247 . S
C35 O41 1.208 . S
C36 O28 1.315 1_545 S
C36 O31 1.279 . S
C37 O38 1.315 . S
C37 O39 1.279 . S
O38 Cd30 2.223 . S
O38 C37 1.315 . S
O39 Cd29 2.240 1_445 S
O39 C37 1.279 . S
O40 Cd30 2.297 . S
O40 C35 1.247 . S
O41 Cd30 2.439 . S
O41 C35 1.208 . S
C42 C43 1.560 . S
C42 H103 0.959 . S
C42 H104 0.959 . S
C42 H105 0.960 . S
C43 C42 1.560 . S
C43 O98 1.426 . S
C43 H102 0.980 1_655 S
C44 C45 1.407 1_655 S
C44 C49 1.418 . S
C44 O98 1.334 . S
C45 C44 1.407 1_455 S
C45 C46 1.360 . S
C45 H106 0.929 . S
C46 C45 1.360 . S
C46 C47 1.401 . S
C46 C50 1.527 . S
C47 C46 1.401 . S
C47 C48 1.405 1_455 S
C47 C80 1.587 . S
C48 C47 1.405 1_655 S
C48 C49 1.332 . S
C48 C51 1.496 . S
C49 C44 1.418 . S
C49 C48 1.332 . S
C49 H107 0.929 . S
C50 C46 1.527 . S
C50 H108 0.959 . S
C50 H109 0.961 . S
C50 H110 0.961 . S
C51 C48 1.496 . S
C51 H111 0.960 . S
C51 H112 0.960 . S
C51 H113 0.961 . S
C52 C53 1.517 . S
C52 H115 0.961 . S
C52 H116 0.960 . S
C52 H117 0.959 . S
C53 C52 1.517 . S
C53 O101 1.468 . S
C53 H114 0.980 . S
C54 C55 1.349 . S
C54 C59 1.367 . S
C54 O101 1.408 . S
C55 C54 1.349 . S
C55 C56 1.407 . S
C55 H118 0.930 . S
C56 C55 1.407 . S
C56 C57 1.449 . S
C56 C60 1.535 1_455 S
C57 C56 1.449 . S
C57 C58 1.384 . S
C57 C82 1.553 . S
C58 C57 1.384 . S
C58 C59 1.364 . S
C58 C61 1.450 . S
C59 C54 1.367 . S
C59 C58 1.364 . S
C59 H119 0.931 . S
C60 C56 1.535 1_655 S
C60 H120 0.959 . S
C60 H121 0.961 . S
C60 H122 0.959 . S
C61 C58 1.450 . S
C61 H123 0.960 . S
C61 H124 0.960 . S
C61 H125 0.960 . S
C62 C63 1.309 . S
C62 C67 1.304 . S
C62 O100 1.435 . S
C63 C62 1.309 . S
C63 C64 1.476 . S
C63 H127 0.930 1_455 S
C64 C63 1.476 . S
C64 C65 1.400 . S
C64 C68 1.567 1_455 S
C65 C64 1.400 . S
C65 C66 1.373 . S
C65 C87 1.432 . S
C66 C65 1.373 . S
C66 C67 1.339 . S
C66 C69 1.530 . S
C67 C62 1.304 . S
C67 C66 1.339 . S
C67 H128 0.930 . S
C68 C64 1.567 1_655 S
C68 H129 0.961 . S
C68 H130 0.960 . S
C68 H131 0.958 . S
C69 C66 1.530 . S
C69 H132 0.961 . S
C69 H133 0.960 . S
C69 H134 0.960 . S
C70 C71 1.508 1_655 S
C70 H136 0.961 . S
C70 H137 0.961 . S
C70 H138 0.959 . S
C71 C70 1.508 1_455 S
C71 O99 1.407 1_455 S
C71 H135 0.988 . S
C72 C73 1.288 . S
C72 C77 1.377 1_655 S
C72 O99 1.393 . S
C73 C72 1.288 . S
C73 C74 1.369 . S
C73 H139 0.932 . S
C74 C73 1.369 . S
C74 C75 1.398 1_655 S
C74 C78 1.527 . S
C75 C74 1.398 1_455 S
C75 C76 1.380 . S
C75 C89 1.497 . S
C76 C75 1.380 . S
C76 C77 1.383 . S
C76 C79 1.603 . S
C77 C72 1.377 1_455 S
C77 C76 1.383 . S
C77 H140 0.929 . S
C78 C74 1.527 . S
C78 H141 0.961 . S
C78 H142 0.959 . S
C78 H143 0.959 . S
C79 C76 1.603 . S
C79 H144 0.960 . S
C79 H145 0.962 . S
C79 H146 0.961 . S
C80 C47 1.587 . S
C80 C81 1.360 . S
C80 C93 1.412 . S
C81 C80 1.360 . S
C81 C82 1.365 . S
C81 H147 0.929 . S
C82 C57 1.553 . S
C82 C81 1.365 . S
C82 C83 1.404 . S
C83 C82 1.404 . S
C83 C84 1.395 . S
C83 C94 1.451 . S
C84 C83 1.395 . S
C84 C85 1.322 . S
C84 H148 0.930 . S
C85 C84 1.322 . S
C85 C86 1.459 . S
C85 H149 0.929 . S
C86 C85 1.459 . S
C86 C87 1.445 . S
C86 C95 1.395 . S
C87 C65 1.432 . S
C87 C86 1.445 . S
C87 C88 1.370 . S
C88 C87 1.370 . S
C88 C89 1.438 . S
C88 H150 0.930 . S
C89 C75 1.497 . S
C89 C88 1.438 . S
C89 C90 1.360 . S
C90 C89 1.360 . S
C90 C91 1.401 . S
C90 C95 1.446 . S
C91 C90 1.401 . S
C91 C92 1.347 . S
C91 H151 0.929 . S
C92 C91 1.347 . S
C92 C93 1.455 . S
C92 H152 0.930 . S
C93 C80 1.412 . S
C93 C92 1.455 . S
C93 C94 1.331 . S
C94 C83 1.451 . S
C94 C93 1.331 . S
C94 C95 1.497 . S
C95 C86 1.395 . S
C95 C90 1.446 . S
C95 C94 1.497 . S
C96 C97 1.582 . S
C96 H153 0.962 . S
C96 H154 0.959 . S
C96 H155 0.958 . S
C97 C96 1.582 . S
C97 O100 1.458 . S
C97 H126 0.980 . S
O98 C43 1.426 . S
O98 C44 1.334 . S
O99 C71 1.407 1_655 S
O99 C72 1.393 . S
O100 C62 1.435 . S
O100 C97 1.458 . S
O101 C53 1.468 . S
O101 C54 1.408 . S
H102 C43 0.980 1_455 S
H103 C42 0.959 . S
H104 C42 0.959 . S
H105 C42 0.960 . S
H106 C45 0.929 . S
H107 C49 0.929 . S
H108 C50 0.959 . S
H109 C50 0.961 . S
H110 C50 0.961 . S
H111 C51 0.960 . S
H112 C51 0.960 . S
H113 C51 0.961 . S
H114 C53 0.980 . S
H115 C52 0.961 . S
H116 C52 0.960 . S
H117 C52 0.959 . S
H118 C55 0.930 . S
H119 C59 0.931 . S
H120 C60 0.959 . S
H121 C60 0.961 . S
H122 C60 0.959 . S
H123 C61 0.960 . S
H124 C61 0.960 . S
H125 C61 0.960 . S
H126 C97 0.980 . S
H127 C63 0.930 1_655 S
H128 C67 0.930 . S
H129 C68 0.961 . S
H130 C68 0.960 . S
H131 C68 0.958 . S
H132 C69 0.961 . S
H133 C69 0.960 . S
H134 C69 0.960 . S
H135 C71 0.988 . S
H136 C70 0.961 . S
H137 C70 0.961 . S
H138 C70 0.959 . S
H139 C73 0.932 . S
H140 C77 0.929 . S
H141 C78 0.961 . S
H142 C78 0.959 . S
H143 C78 0.959 . S
H144 C79 0.960 . S
H145 C79 0.962 . S
H146 C79 0.961 . S
H147 C81 0.929 . S
H148 C84 0.930 . S
H149 C85 0.929 . S
H150 C88 0.930 . S
H151 C91 0.929 . S
H152 C92 0.930 . S
H153 C96 0.962 . S
H154 C96 0.959 . S
H155 C96 0.958 . S
C156 C157 1.560 1_565 S
C156 H217 0.959 . S
C156 H218 0.959 . S
C156 H219 0.960 . S
C157 C156 1.560 1_545 S
C157 O212 1.426 1_545 S
C157 H216 0.980 . S
C158 C159 1.407 . S
C158 C163 1.418 1_545 S
C158 O212 1.334 1_545 S
C159 C158 1.407 . S
C159 C160 1.360 . S
C159 H220 0.929 . S
C160 C159 1.360 . S
C160 C161 1.401 . S
C160 C164 1.527 . S
C161 C160 1.401 . S
C161 C162 1.405 1_545 S
C161 C194 1.587 . S
C162 C161 1.405 1_565 S
C162 C163 1.332 . S
C162 C165 1.496 . S
C163 C158 1.418 1_565 S
C163 C162 1.332 . S
C163 H221 0.929 . S
C164 C160 1.527 . S
C164 H222 0.959 . S
C164 H223 0.961 . S
C164 H224 0.961 . S
C165 C162 1.496 . S
C165 H225 0.960 . S
C165 H226 0.960 . S
C165 H227 0.961 . S
C166 C167 1.517 . S
C166 H229 0.961 . S
C166 H230 0.960 . S
C166 H231 0.959 . S
C167 C166 1.517 . S
C167 O215 1.468 . S
C167 H228 0.980 . S
C168 C169 1.349 . S
C168 C173 1.367 . S
C168 O215 1.408 . S
C169 C168 1.349 . S
C169 C170 1.407 . S
C169 H232 0.930 . S
C170 C169 1.407 . S
C170 C171 1.449 . S
C170 C174 1.535 1_545 S
C171 C170 1.449 . S
C171 C172 1.384 . S
C171 C196 1.553 . S
C172 C171 1.384 . S
C172 C173 1.364 . S
C172 C175 1.450 . S
C173 C168 1.367 . S
C173 C172 1.364 . S
C173 H233 0.931 . S
C174 C170 1.535 1_565 S
C174 H234 0.959 . S
C174 H235 0.961 . S
C174 H236 0.959 . S
C175 C172 1.450 . S
C175 H237 0.960 . S
C175 H238 0.960 . S
C175 H239 0.960 . S
C176 C177 1.309 . S
C176 C181 1.304 . S
C176 O214 1.435 . S
C177 C176 1.309 . S
C177 C178 1.476 . S
C177 H241 0.930 . S
C178 C177 1.476 . S
C178 C179 1.400 . S
C178 C182 1.567 1_545 S
C179 C178 1.400 . S
C179 C180 1.373 . S
C179 C201 1.432 . S
C180 C179 1.373 . S
C180 C181 1.339 . S
C180 C183 1.530 . S
C181 C176 1.304 . S
C181 C180 1.339 . S
C181 H242 0.930 . S
C182 C178 1.567 1_565 S
C182 H243 0.961 . S
C182 H244 0.960 . S
C182 H245 0.958 . S
C183 C180 1.530 . S
C183 H246 0.961 . S
C183 H247 0.960 . S
C183 H248 0.960 . S
C184 C185 1.530 1_565 S
C184 H250 0.961 1_565 S
C184 H251 0.961 . S
C184 H252 0.959 . S
C185 C184 1.530 1_545 S
C185 O213 1.412 1_545 S
C185 H249 0.980 . S
C186 C187 1.288 1_545 S
C186 C191 1.377 . S
C186 O213 1.393 1_545 S
C187 C186 1.288 1_565 S
C187 C188 1.369 . S
C187 H253 0.932 . S
C188 C187 1.369 . S
C188 C189 1.398 1_565 S
C188 C192 1.527 . S
C189 C188 1.398 1_545 S
C189 C190 1.380 . S
C189 C203 1.497 . S
C190 C189 1.380 . S
C190 C191 1.383 . S
C190 C193 1.603 . S
C191 C186 1.377 . S
C191 C190 1.383 . S
C191 H254 0.929 . S
C192 C188 1.527 . S
C192 H255 0.961 . S
C192 H256 0.959 . S
C192 H257 0.959 . S
C193 C190 1.603 . S
C193 H258 0.960 . S
C193 H259 0.962 . S
C193 H260 0.961 . S
C194 C161 1.587 . S
C194 C195 1.360 . S
C194 C207 1.412 . S
C195 C194 1.360 . S
C195 C196 1.365 . S
C195 H261 0.929 . S
C196 C171 1.553 . S
C196 C195 1.365 . S
C196 C197 1.404 . S
C197 C196 1.404 . S
C197 C198 1.395 . S
C197 C208 1.451 . S
C198 C197 1.395 . S
C198 C199 1.322 . S
C198 H262 0.930 . S
C199 C198 1.322 . S
C199 C200 1.459 . S
C199 H263 0.929 . S
C200 C199 1.459 . S
C200 C201 1.445 . S
C200 C209 1.395 . S
C201 C179 1.432 . S
C201 C200 1.445 . S
C201 C202 1.370 . S
C202 C201 1.370 . S
C202 C203 1.438 . S
C202 H264 0.930 . S
C203 C189 1.497 . S
C203 C202 1.438 . S
C203 C204 1.360 . S
C204 C203 1.360 . S
C204 C205 1.401 . S
C204 C209 1.446 . S
C205 C204 1.401 . S
C205 C206 1.347 . S
C205 H265 0.929 . S
C206 C205 1.347 . S
C206 C207 1.455 . S
C206 H266 0.930 . S
C207 C194 1.412 . S
C207 C206 1.455 . S
C207 C208 1.331 . S
C208 C197 1.451 . S
C208 C207 1.331 . S
C208 C209 1.497 . S
C209 C200 1.395 . S
C209 C204 1.446 . S
C209 C208 1.497 . S
C210 C211 1.582 . S
C210 H267 0.962 . S
C210 H268 0.959 . S
C210 H269 0.958 . S
C211 C210 1.582 . S
C211 O214 1.458 . S
C211 H240 0.980 . S
O212 C157 1.426 1_565 S
O212 C158 1.334 1_565 S
O213 C185 1.412 1_565 S
O213 C186 1.393 1_565 S
O214 C176 1.435 . S
O214 C211 1.458 . S
O215 C167 1.468 . S
O215 C168 1.408 . S
H216 C157 0.980 . S
H217 C156 0.959 . S
H218 C156 0.959 . S
H219 C156 0.960 . S
H220 C159 0.929 . S
H221 C163 0.929 . S
H222 C164 0.959 . S
H223 C164 0.961 . S
H224 C164 0.961 . S
H225 C165 0.960 . S
H226 C165 0.960 . S
H227 C165 0.961 . S
H228 C167 0.980 . S
H229 C166 0.961 . S
H230 C166 0.960 . S
H231 C166 0.959 . S
H232 C169 0.930 . S
H233 C173 0.931 . S
H234 C174 0.959 . S
H235 C174 0.961 . S
H236 C174 0.959 . S
H237 C175 0.960 . S
H238 C175 0.960 . S
H239 C175 0.960 . S
H240 C211 0.980 . S
H241 C177 0.930 . S
H242 C181 0.930 . S
H243 C182 0.961 . S
H244 C182 0.960 . S
H245 C182 0.958 . S
H246 C183 0.961 . S
H247 C183 0.960 . S
H248 C183 0.960 . S
H249 C185 0.980 . S
H250 C184 0.961 1_545 S
H251 C184 0.961 . S
H252 C184 0.959 . S
H253 C187 0.932 . S
H254 C191 0.929 . S
H255 C192 0.961 . S
H256 C192 0.959 . S
H257 C192 0.959 . S
H258 C193 0.960 . S
H259 C193 0.962 . S
H260 C193 0.961 . S
H261 C195 0.929 . S
H262 C198 0.930 . S
H263 C199 0.929 . S
H264 C202 0.930 . S
H265 C205 0.929 . S
H266 C206 0.930 . S
H267 C210 0.962 . S
H268 C210 0.959 . S
H269 C210 0.958 . S
C270 C271 1.560 . S
C270 H331 0.959 . S
C270 H332 0.959 . S
C270 H333 0.960 . S
C271 C270 1.560 . S
C271 O326 1.426 . S
C271 H330 0.980 . S
C272 C273 1.407 . S
C272 C277 1.418 . S
C272 O326 1.334 . S
C273 C272 1.407 . S
C273 C274 1.360 . S
C273 H334 0.929 . S
C274 C273 1.360 . S
C274 C275 1.401 . S
C274 C278 1.527 . S
C275 C274 1.401 . S
C275 C276 1.405 . S
C275 C308 1.587 . S
C276 C275 1.405 . S
C276 C277 1.332 . S
C276 C279 1.496 . S
C277 C272 1.418 . S
C277 C276 1.332 . S
C277 H335 0.929 . S
C278 C274 1.527 . S
C278 H336 0.959 . S
C278 H337 0.961 . S
C278 H338 0.961 . S
C279 C276 1.496 . S
C279 H339 0.960 . S
C279 H340 0.960 . S
C279 H341 0.961 . S
C280 C281 1.517 . S
C280 H343 0.961 . S
C280 H344 0.960 . S
C280 H345 0.959 . S
C281 C280 1.517 . S
C281 O329 1.468 . S
C281 H342 0.980 . S
C282 C283 1.349 . S
C282 C287 1.367 . S
C282 O329 1.408 . S
C283 C282 1.349 . S
C283 C284 1.407 . S
C283 H346 0.930 . S
C284 C283 1.407 . S
C284 C285 1.449 . S
C284 C288 1.535 . S
C285 C284 1.449 . S
C285 C286 1.384 . S
C285 C310 1.553 . S
C286 C285 1.384 . S
C286 C287 1.364 . S
C286 C289 1.450 . S
C287 C282 1.367 . S
C287 C286 1.364 . S
C287 H347 0.931 . S
C288 C284 1.535 . S
C288 H348 0.959 . S
C288 H349 0.961 . S
C288 H350 0.959 . S
C289 C286 1.450 . S
C289 H351 0.960 . S
C289 H352 0.960 . S
C289 H353 0.960 . S
C290 C291 1.309 . S
C290 C295 1.304 . S
C290 O328 1.435 . S
C291 C290 1.309 . S
C291 C292 1.476 . S
C291 H355 0.930 . S
C292 C291 1.476 . S
C292 C293 1.400 . S
C292 C296 1.567 . S
C293 C292 1.400 . S
C293 C294 1.373 . S
C293 C315 1.432 . S
C294 C293 1.373 . S
C294 C295 1.339 . S
C294 C297 1.530 . S
C295 C290 1.304 . S
C295 C294 1.339 . S
C295 H356 0.930 . S
C296 C292 1.567 . S
C296 H357 0.961 . S
C296 H358 0.960 . S
C296 H359 0.958 . S
C297 C294 1.530 . S
C297 H360 0.961 . S
C297 H361 0.960 . S
C297 H362 0.960 . S
C298 C299 1.530 . S
C298 H364 0.961 . S
C298 H365 0.961 . S
C298 H366 0.959 . S
C299 C298 1.530 . S
C299 O327 1.412 . S
C299 H363 0.980 . S
C300 C301 1.288 . S
C300 C305 1.377 . S
C300 O327 1.393 . S
C301 C300 1.288 . S
C301 C302 1.369 . S
C301 H367 0.932 . S
C302 C301 1.369 . S
C302 C303 1.398 . S
C302 C306 1.527 . S
C303 C302 1.398 . S
C303 C304 1.380 . S
C303 C317 1.497 . S
C304 C303 1.380 . S
C304 C305 1.383 . S
C304 C307 1.603 . S
C305 C300 1.377 . S
C305 C304 1.383 . S
C305 H368 0.929 . S
C306 C302 1.527 . S
C306 H369 0.961 . S
C306 H370 0.959 . S
C306 H371 0.959 . S
C307 C304 1.603 . S
C307 H372 0.960 . S
C307 H373 0.962 . S
C307 H374 0.961 . S
C308 C275 1.587 . S
C308 C309 1.360 . S
C308 C321 1.412 . S
C309 C308 1.360 . S
C309 C310 1.365 . S
C309 H375 0.929 . S
C310 C285 1.553 . S
C310 C309 1.365 . S
C310 C311 1.404 . S
C311 C310 1.404 . S
C311 C312 1.395 . S
C311 C322 1.451 . S
C312 C311 1.395 . S
C312 C313 1.322 . S
C312 H376 0.930 . S
C313 C312 1.322 . S
C313 C314 1.459 . S
C313 H377 0.929 . S
C314 C313 1.459 . S
C314 C315 1.445 . S
C314 C323 1.395 . S
C315 C293 1.432 . S
C315 C314 1.445 . S
C315 C316 1.370 . S
C316 C315 1.370 . S
C316 C317 1.438 . S
C316 H378 0.930 . S
C317 C303 1.497 . S
C317 C316 1.438 . S
C317 C318 1.360 . S
C318 C317 1.360 . S
C318 C319 1.401 . S
C318 C323 1.446 . S
C319 C318 1.401 . S
C319 C320 1.347 . S
C319 H379 0.929 . S
C320 C319 1.347 . S
C320 C321 1.455 . S
C320 H380 0.930 . S
C321 C308 1.412 . S
C321 C320 1.455 . S
C321 C322 1.331 . S
C322 C311 1.451 . S
C322 C321 1.331 . S
C322 C323 1.497 . S
C323 C314 1.395 . S
C323 C318 1.446 . S
C323 C322 1.497 . S
C324 C325 1.582 . S
C324 H381 0.962 . S
C324 H382 0.959 . S
C324 H383 0.958 . S
C325 C324 1.582 . S
C325 O328 1.458 . S
C325 H354 0.980 . S
O326 C271 1.426 . S
O326 C272 1.334 . S
O327 C299 1.412 . S
O327 C300 1.393 . S
O328 C290 1.435 . S
O328 C325 1.458 . S
O329 C281 1.468 . S
O329 C282 1.408 . S
H330 C271 0.980 . S
H331 C270 0.959 . S
H332 C270 0.959 . S
H333 C270 0.960 . S
H334 C273 0.929 . S
H335 C277 0.929 . S
H336 C278 0.959 . S
H337 C278 0.961 . S
H338 C278 0.961 . S
H339 C279 0.960 . S
H340 C279 0.960 . S
H341 C279 0.961 . S
H342 C281 0.980 . S
H343 C280 0.961 . S
H344 C280 0.960 . S
H345 C280 0.959 . S
H346 C283 0.930 . S
H347 C287 0.931 . S
H348 C288 0.959 . S
H349 C288 0.961 . S
H350 C288 0.959 . S
H351 C289 0.960 . S
H352 C289 0.960 . S
H353 C289 0.960 . S
H354 C325 0.980 . S
H355 C291 0.930 . S
H356 C295 0.930 . S
H357 C296 0.961 . S
H358 C296 0.960 . S
H359 C296 0.958 . S
H360 C297 0.961 . S
H361 C297 0.960 . S
H362 C297 0.960 . S
H363 C299 0.980 . S
H364 C298 0.961 . S
H365 C298 0.961 . S
H366 C298 0.959 . S
H367 C301 0.932 . S
H368 C305 0.929 . S
H369 C306 0.961 . S
H370 C306 0.959 . S
H371 C306 0.959 . S
H372 C307 0.960 . S
H373 C307 0.962 . S
H374 C307 0.961 . S
H375 C309 0.929 . S
H376 C312 0.930 . S
H377 C313 0.929 . S
H378 C316 0.930 . S
H379 C319 0.929 . S
H380 C320 0.930 . S
H381 C324 0.962 . S
H382 C324 0.959 . S
H383 C324 0.958 . S
H384 C392 0.929 . S
H385 C394 0.930 . S
H386 C396 0.930 . S
H387 C399 0.923 . S
H388 C402 0.930 . S
H389 C404 0.960 . S
H390 C404 0.960 . S
H391 C404 0.960 . S
C392 H384 0.929 . S
C392 C393 1.377 . S
C392 C394 1.384 . S
C393 C392 1.377 . S
C393 C399 1.390 . S
C394 H385 0.930 . S
C394 C392 1.384 . S
C394 C395 1.372 . S
C395 C394 1.372 . S
C395 C396 1.400 . S
C395 C400 1.490 . S
C396 H386 0.930 . S
C396 C395 1.400 . S
C396 C399 1.386 . S
H397 C413 0.930 . S
H398 C414 0.931 . S
C399 H387 0.923 . S
C399 C393 1.390 . S
C399 C396 1.386 . S
C400 C395 1.490 . S
C400 C402 1.395 1_455 S
C400 C403 1.403 . S
H401 C407 0.930 . S
C402 H388 0.930 . S
C402 C400 1.395 1_655 S
C402 C405 1.403 . S
C403 C400 1.403 . S
C403 C404 1.524 . S
C403 C407 1.400 . S
C404 H389 0.960 . S
C404 H390 0.960 . S
C404 H391 0.960 . S
C404 C403 1.524 . S
C405 C402 1.403 . S
C405 C406 1.392 . S
C405 C409 1.495 . S
C406 C405 1.392 . S
C406 C407 1.385 1_655 S
C406 C408 1.478 . S
C407 H401 0.930 . S
C407 C403 1.400 . S
C407 C406 1.385 1_455 S
C408 C406 1.478 . S
C408 C410 1.381 1_655 S
C408 C414 1.383 . S
C409 C405 1.495 . S
C409 H415 0.959 . S
C409 H416 0.961 . S
C409 H417 0.960 . S
C410 C408 1.381 1_455 S
C410 C411 1.394 . S
C410 H418 0.930 . S
C411 C410 1.394 . S
C411 C412 1.383 1_455 S
C411 H419 0.929 . S
C412 C411 1.383 1_655 S
C412 C413 1.377 . S
C413 H397 0.930 . S
C413 C412 1.377 . S
C413 C414 1.379 . S
C414 H398 0.931 . S
C414 C408 1.383 . S
C414 C413 1.379 . S
H415 C409 0.959 . S
H416 C409 0.961 . S
H417 C409 0.960 . S
H418 C410 0.930 . S
H419 C411 0.929 . S
H420 C428 0.929 . S
H421 C430 0.930 . S
H422 C432 0.930 . S
H423 C435 0.929 . S
H424 C438 0.930 . S
H425 C440 0.960 . S
H426 C440 0.960 . S
H427 C440 0.960 . S
C428 H420 0.929 . S
C428 C429 1.377 1_565 S
C428 C430 1.384 . S
C429 C428 1.377 1_545 S
C429 C435 1.390 . S
C430 H421 0.930 . S
C430 C428 1.384 . S
C430 C431 1.372 1_565 S
C431 C430 1.372 1_545 S
C431 C432 1.400 . S
C431 C436 1.490 . S
C432 H422 0.930 . S
C432 C431 1.400 . S
C432 C435 1.386 . S
H433 C449 0.930 . S
H434 C450 0.931 . S
C435 H423 0.929 . S
C435 C429 1.390 . S
C435 C432 1.386 . S
C436 C431 1.490 . S
C436 C438 1.395 1_545 S
C436 C439 1.403 . S
H437 C443 0.930 . S
C438 H424 0.930 . S
C438 C436 1.395 1_565 S
C438 C441 1.403 . S
C439 C436 1.403 . S
C439 C440 1.524 . S
C439 C443 1.400 . S
C440 H425 0.960 . S
C440 H426 0.960 . S
C440 H427 0.960 . S
C440 C439 1.524 . S
C441 C438 1.403 . S
C441 C442 1.392 1_565 S
C441 C445 1.495 . S
C442 C441 1.392 1_545 S
C442 C443 1.385 . S
C442 C444 1.478 . S
C443 H437 0.930 . S
C443 C439 1.400 . S
C443 C442 1.385 . S
C444 C442 1.478 . S
C444 C446 1.381 1_545 S
C444 C450 1.383 . S
C445 C441 1.495 . S
C445 H451 0.959 . S
C445 H452 0.961 . S
C445 H453 0.960 . S
C446 C444 1.381 1_565 S
C446 C447 1.394 . S
C446 H454 0.930 . S
C447 C446 1.394 . S
C447 C448 1.383 1_565 S
C447 H455 0.929 . S
C448 C447 1.383 1_545 S
C448 C449 1.377 . S
C449 H433 0.930 . S
C449 C448 1.377 . S
C449 C450 1.379 . S
C450 H434 0.931 . S
C450 C444 1.383 . S
C450 C449 1.379 . S
H451 C445 0.959 . S
H452 C445 0.961 . S
H453 C445 0.960 . S
H454 C446 0.930 . S
H455 C447 0.929 . S
H456 C464 0.929 . S
H457 C466 0.930 . S
H458 C468 0.930 . S
H459 C471 0.929 . S
H460 C474 0.930 . S
H461 C476 0.960 . S
H462 C476 0.960 . S
H463 C476 0.960 . S
C464 H456 0.929 . S
C464 C465 1.377 . S
C464 C466 1.384 . S
C465 C464 1.377 . S
C465 C471 1.390 . S
C466 H457 0.930 . S
C466 C464 1.384 . S
C466 C467 1.372 . S
C467 C466 1.372 . S
C467 C468 1.400 . S
C467 C472 1.490 . S
C468 H458 0.930 . S
C468 C467 1.400 . S
C468 C471 1.386 . S
H469 C485 0.930 . S
H470 C486 0.931 . S
C471 H459 0.929 . S
C471 C465 1.390 . S
C471 C468 1.386 . S
C472 C467 1.490 . S
C472 C474 1.395 . S
C472 C475 1.403 . S
H473 C479 0.930 . S
C474 H460 0.930 . S
C474 C472 1.395 . S
C474 C477 1.403 . S
C475 C472 1.403 . S
C475 C476 1.524 . S
C475 C479 1.400 . S
C476 H461 0.960 . S
C476 H462 0.960 . S
C476 H463 0.960 . S
C476 C475 1.524 . S
C477 C474 1.403 . S
C477 C478 1.392 . S
C477 C481 1.495 . S
C478 C477 1.392 . S
C478 C479 1.385 . S
C478 C480 1.478 . S
C479 H473 0.930 . S
C479 C475 1.400 . S
C479 C478 1.385 . S
C480 C478 1.478 . S
C480 C482 1.381 . S
C480 C486 1.383 . S
C481 C477 1.495 . S
C481 H487 0.959 . S
C481 H488 0.961 . S
C481 H489 0.960 . S
C482 C480 1.381 . S
C482 C483 1.394 . S
C482 H490 0.930 . S
C483 C482 1.394 . S
C483 C484 1.383 . S
C483 H491 0.929 . S
C484 C483 1.383 . S
C484 C485 1.377 . S
C485 H469 0.930 . S
C485 C484 1.377 . S
C485 C486 1.379 . S
C486 H470 0.931 . S
C486 C480 1.383 . S
C486 C485 1.379 . S
H487 C481 0.959 . S
H488 C481 0.961 . S
H489 C481 0.960 . S
H490 C482 0.930 . S
H491 C483 0.929 . S
H492 C500 0.929 . S
H493 C502 0.930 . S
H494 C504 0.930 . S
H495 C507 0.929 . S
H496 C510 0.930 . S
H497 C512 0.960 . S
H498 C512 0.960 1_655 S
H499 C512 0.960 . S
C500 H492 0.929 . S
C500 C501 1.377 1_655 S
C500 C502 1.384 . S
C501 C500 1.377 1_455 S
C501 C507 1.390 . S
C502 H493 0.930 . S
C502 C500 1.384 . S
C502 C503 1.372 1_655 S
C503 C502 1.372 1_455 S
C503 C504 1.400 . S
C503 C508 1.490 . S
C504 H494 0.930 . S
C504 C503 1.400 . S
C504 C507 1.386 . S
H505 C521 0.930 . S
H506 C522 0.931 . S
C507 H495 0.929 . S
C507 C501 1.390 . S
C507 C504 1.386 . S
C508 C503 1.490 . S
C508 C510 1.395 . S
C508 C511 1.403 . S
H509 C515 0.930 . S
C510 H496 0.930 . S
C510 C508 1.395 . S
C510 C513 1.403 . S
C511 C508 1.403 . S
C511 C512 1.524 . S
C511 C515 1.400 . S
C512 H497 0.960 . S
C512 H498 0.960 1_455 S
C512 H499 0.960 . S
C512 C511 1.524 . S
C513 C510 1.403 . S
C513 C514 1.392 . S
C513 C517 1.495 . S
C514 C513 1.392 . S
C514 C515 1.385 . S
C514 C516 1.478 . S
C515 H509 0.930 . S
C515 C511 1.400 . S
C515 C514 1.385 . S
C516 C514 1.478 . S
C516 C518 1.381 1_455 S
C516 C522 1.383 . S
C517 C513 1.495 . S
C517 H523 0.959 . S
C517 H524 0.961 . S
C517 H525 0.960 1_455 S
C518 C516 1.381 1_655 S
C518 C519 1.394 . S
C518 H526 0.930 . S
C519 C518 1.394 . S
C519 C520 1.383 1_655 S
C519 H527 0.929 . S
C520 C519 1.383 1_455 S
C520 C521 1.377 . S
C521 H505 0.930 . S
C521 C520 1.377 . S
C521 C522 1.379 . S
C522 H506 0.931 . S
C522 C516 1.383 . S
C522 C521 1.379 . S
H523 C517 0.959 . S
H524 C517 0.961 . S
H525 C517 0.960 1_655 S
H526 C518 0.930 . S
H527 C519 0.929 . S
H528 C536 0.929 . S
H529 C538 0.930 . S
H530 C540 0.930 . S
H531 C543 0.929 . S
H532 C546 0.930 . S
H533 C548 0.960 . S
H534 C548 0.960 1_545 S
H535 C548 0.960 . S
C536 H528 0.929 . S
C536 C537 1.377 . S
C536 C538 1.384 . S
C537 C536 1.377 . S
C537 C543 1.390 1_545 S
C538 H529 0.930 . S
C538 C536 1.384 . S
C538 C539 1.372 . S
C539 C538 1.372 . S
C539 C540 1.400 1_545 S
C539 C544 1.490 . S
C540 H530 0.930 . S
C540 C539 1.400 1_565 S
C540 C543 1.386 . S
H541 C557 0.930 1_565 S
H542 C558 0.931 1_565 S
C543 H531 0.929 . S
C543 C537 1.390 1_565 S
C543 C540 1.386 . S
C544 C539 1.490 . S
C544 C546 1.395 . S
C544 C547 1.403 . S
H545 C551 0.930 1_565 S
C546 H532 0.930 . S
C546 C544 1.395 . S
C546 C549 1.403 . S
C547 C544 1.403 . S
C547 C548 1.524 1_545 S
C547 C551 1.400 . S
C548 H533 0.960 . S
C548 H534 0.960 1_565 S
C548 H535 0.960 . S
C548 C547 1.524 1_565 S
C549 C546 1.403 . S
C549 C550 1.392 . S
C549 C553 1.495 . S
C550 C549 1.392 . S
C550 C551 1.385 . S
C550 C552 1.478 . S
C551 H545 0.930 1_545 S
C551 C547 1.400 . S
C551 C550 1.385 . S
C552 C550 1.478 . S
C552 C554 1.381 . S
C552 C558 1.383 . S
C553 C549 1.495 . S
C553 H559 0.959 . S
C553 H560 0.961 . S
C553 H561 0.960 . S
C554 C552 1.381 . S
C554 C555 1.394 . S
C554 H562 0.930 . S
C555 C554 1.394 . S
C555 C556 1.383 . S
C555 H563 0.929 . S
C556 C555 1.383 . S
C556 C557 1.377 . S
C557 H541 0.930 1_545 S
C557 C556 1.377 . S
C557 C558 1.379 . S
C558 H542 0.931 1_545 S
C558 C552 1.383 . S
C558 C557 1.379 . S
H559 C553 0.959 . S
H560 C553 0.961 . S
H561 C553 0.960 . S
H562 C554 0.930 . S
H563 C555 0.929 . S
H564 C572 0.929 . S
H565 C574 0.930 . S
H566 C576 0.930 . S
H567 C579 0.929 . S
H568 C582 0.930 . S
H569 C584 0.960 . S
H570 C584 0.960 . S
H571 C584 0.960 . S
C572 H564 0.929 . S
C572 C573 1.377 . S
C572 C574 1.384 . S
C573 C572 1.377 . S
C573 C579 1.390 . S
C574 H565 0.930 . S
C574 C572 1.384 . S
C574 C575 1.372 . S
C575 C574 1.372 . S
C575 C576 1.400 . S
C575 C580 1.490 . S
C576 H566 0.930 . S
C576 C575 1.400 . S
C576 C579 1.386 . S
H577 C593 0.930 . S
H578 C594 0.931 . S
C579 H567 0.929 . S
C579 C573 1.390 . S
C579 C576 1.386 . S
C580 C575 1.490 . S
C580 C582 1.395 . S
C580 C583 1.403 . S
H581 C587 0.930 . S
C582 H568 0.930 . S
C582 C580 1.395 . S
C582 C585 1.403 . S
C583 C580 1.403 . S
C583 C584 1.524 . S
C583 C587 1.400 . S
C584 H569 0.960 . S
C584 H570 0.960 . S
C584 H571 0.960 . S
C584 C583 1.524 . S
C585 C582 1.403 . S
C585 C586 1.392 . S
C585 C589 1.495 . S
C586 C585 1.392 . S
C586 C587 1.385 . S
C586 C588 1.478 . S
C587 H581 0.930 . S
C587 C583 1.400 . S
C587 C586 1.385 . S
C588 C586 1.478 . S
C588 C590 1.381 . S
C588 C594 1.383 . S
C589 C585 1.495 . S
C589 H595 0.959 . S
C589 H596 0.961 . S
C589 H597 0.960 . S
C590 C588 1.381 . S
C590 C591 1.394 . S
C590 H598 0.930 . S
C591 C590 1.394 . S
C591 C592 1.383 . S
C591 H599 0.929 . S
C592 C591 1.383 . S
C592 C593 1.377 . S
C593 H577 0.930 . S
C593 C592 1.377 . S
C593 C594 1.379 . S
C594 H578 0.931 . S
C594 C588 1.383 . S
C594 C593 1.379 . S
H595 C589 0.959 . S
H596 C589 0.961 . S
H597 C589 0.960 . S
H598 C590 0.930 . S
H599 C591 0.929 . S
H600 C608 0.929 . S
H601 C610 0.930 . S
H602 C612 0.930 . S
H603 C615 0.929 . S
H604 C618 0.930 . S
H605 C620 0.960 . S
H606 C620 0.960 1_565 S
H607 C620 0.960 . S
C608 H600 0.929 . S
C608 C609 1.377 1_565 S
C608 C610 1.384 . S
C609 C608 1.377 1_545 S
C609 C615 1.390 . S
C610 H601 0.930 . S
C610 C608 1.384 . S
C610 C611 1.372 1_565 S
C611 C610 1.372 1_545 S
C611 C612 1.400 . S
C611 C616 1.490 . S
C612 H602 0.930 . S
C612 C611 1.400 . S
C612 C615 1.386 . S
H613 C629 0.930 . S
H614 C630 0.931 . S
C615 H603 0.929 . S
C615 C609 1.390 . S
C615 C612 1.386 . S
C616 C611 1.490 . S
C616 C618 1.395 . S
C616 C619 1.403 . S
H617 C623 0.930 . S
C618 H604 0.930 . S
C618 C616 1.395 . S
C618 C621 1.403 . S
C619 C616 1.403 . S
C619 C620 1.524 . S
C619 C623 1.400 . S
C620 H605 0.960 . S
C620 H606 0.960 1_545 S
C620 H607 0.960 . S
C620 C619 1.524 . S
C621 C618 1.403 . S
C621 C622 1.392 . S
C621 C625 1.495 . S
C622 C621 1.392 . S
C622 C623 1.385 . S
C622 C624 1.478 . S
C623 H617 0.930 . S
C623 C619 1.400 . S
C623 C622 1.385 . S
C624 C622 1.478 . S
C624 C626 1.381 . S
C624 C630 1.383 . S
C625 C621 1.495 . S
C625 H631 0.959 . S
C625 H632 0.961 . S
C625 H633 0.960 . S
C626 C624 1.381 . S
C626 C627 1.394 . S
C626 H634 0.930 1_545 S
C627 C626 1.394 . S
C627 C628 1.383 . S
C627 H635 0.929 1_545 S
C628 C627 1.383 . S
C628 C629 1.377 . S
C629 H613 0.930 . S
C629 C628 1.377 . S
C629 C630 1.379 . S
C630 H614 0.931 . S
C630 C624 1.383 . S
C630 C629 1.379 . S
H631 C625 0.959 . S
H632 C625 0.961 . S
H633 C625 0.960 . S
H634 C626 0.930 1_565 S
H635 C627 0.929 1_565 S
H636 C644 0.929 . S
H637 C646 0.930 . S
H638 C648 0.930 . S
H639 C651 0.929 . S
H640 C654 0.930 . S
H641 C656 0.960 . S
H642 C656 0.960 . S
H643 C656 0.960 . S
C644 H636 0.929 . S
C644 C645 1.377 . S
C644 C646 1.384 . S
C645 C644 1.377 . S
C645 C651 1.390 . S
C646 H637 0.930 . S
C646 C644 1.384 . S
C646 C647 1.372 . S
C647 C646 1.372 . S
C647 C648 1.400 . S
C647 C652 1.490 . S
C648 H638 0.930 . S
C648 C647 1.400 . S
C648 C651 1.386 . S
H649 C665 0.930 . S
H650 C666 0.931 . S
C651 H639 0.929 . S
C651 C645 1.390 . S
C651 C648 1.386 . S
C652 C647 1.490 . S
C652 C654 1.395 . S
C652 C655 1.403 . S
H653 C659 0.930 . S
C654 H640 0.930 . S
C654 C652 1.395 . S
C654 C657 1.403 . S
C655 C652 1.403 . S
C655 C656 1.524 . S
C655 C659 1.400 . S
C656 H641 0.960 . S
C656 H642 0.960 . S
C656 H643 0.960 . S
C656 C655 1.524 . S
C657 C654 1.403 . S
C657 C658 1.392 . S
C657 C661 1.495 . S
C658 C657 1.392 . S
C658 C659 1.385 . S
C658 C660 1.460 1_554 S
C659 H653 0.930 . S
C659 C655 1.400 . S
C659 C658 1.385 . S
C660 C658 1.460 1_556 S
C660 C662 1.407 . S
C660 C666 1.376 1_556 S
C661 C657 1.495 . S
C661 H667 0.959 . S
C661 H668 0.961 . S
C661 H669 0.960 . S
C662 C660 1.407 . S
C662 C663 1.394 . S
C662 H670 0.930 . S
C663 C662 1.394 . S
C663 C664 1.383 . S
C663 H671 0.929 . S
C664 C663 1.383 . S
C664 C665 1.377 . S
C665 H649 0.930 . S
C665 C664 1.377 . S
C665 C666 1.379 1_556 S
C666 H650 0.931 . S
C666 C660 1.376 1_554 S
C666 C665 1.379 1_554 S
H667 C661 0.959 . S
H668 C661 0.961 . S
H669 C661 0.960 . S
H670 C662 0.930 . S
H671 C663 0.929 . S
H672 C680 0.929 . S
H673 C682 0.930 . S
H674 C684 0.930 . S
H675 C687 0.929 . S
H676 C690 0.930 . S
H677 C692 0.960 . S
H678 C692 0.960 . S
H679 C692 0.960 . S
C680 H672 0.929 . S
C680 C681 1.377 . S
C680 C682 1.384 . S
C681 C680 1.377 . S
C681 C687 1.390 . S
C682 H673 0.930 . S
C682 C680 1.384 . S
C682 C683 1.372 . S
C683 C682 1.372 . S
C683 C684 1.400 . S
C683 C688 1.490 . S
C684 H674 0.930 . S
C684 C683 1.400 . S
C684 C687 1.386 . S
H685 C701 0.930 . S
H686 C702 0.931 . S
C687 H675 0.929 . S
C687 C681 1.390 . S
C687 C684 1.386 . S
C688 C683 1.490 . S
C688 C690 1.395 . S
C688 C691 1.403 1_455 S
H689 C695 0.930 . S
C690 H676 0.930 . S
C690 C688 1.395 . S
C690 C693 1.403 . S
C691 C688 1.403 1_655 S
C691 C692 1.524 . S
C691 C695 1.400 . S
C692 H677 0.960 . S
C692 H678 0.960 . S
C692 H679 0.960 . S
C692 C691 1.524 . S
C693 C690 1.403 . S
C693 C694 1.392 . S
C693 C697 1.495 . S
C694 C693 1.392 . S
C694 C695 1.385 1_455 S
C694 C696 1.478 . S
C695 H689 0.930 . S
C695 C691 1.400 . S
C695 C694 1.385 1_655 S
C696 C694 1.478 . S
C696 C698 1.381 . S
C696 C702 1.383 . S
C697 C693 1.495 . S
C697 H703 0.959 . S
C697 H704 0.961 . S
C697 H705 0.960 . S
C698 C696 1.381 . S
C698 C699 1.394 1_455 S
C698 H706 0.930 1_455 S
C699 C698 1.394 1_655 S
C699 C700 1.383 1_655 S
C699 H707 0.929 . S
C700 C699 1.383 1_455 S
C700 C701 1.377 . S
C701 H685 0.930 . S
C701 C700 1.377 . S
C701 C702 1.379 . S
C702 H686 0.931 . S
C702 C696 1.383 . S
C702 C701 1.379 . S
H703 C697 0.959 . S
H704 C697 0.961 . S
H705 C697 0.960 . S
H706 C698 0.930 1_655 S
H707 C699 0.929 . S
H708 C716 0.929 . S
H709 C718 0.930 . S
H710 C720 0.930 1_565 S
H711 C723 0.929 1_565 S
H712 C726 0.930 1_565 S
H713 C728 0.960 . S
H714 C728 0.960 . S
H715 C728 0.960 . S
C716 H708 0.929 . S
C716 C717 1.377 . S
C716 C718 1.384 . S
C717 C716 1.377 . S
C717 C723 1.390 . S
C718 H709 0.930 . S
C718 C716 1.384 . S
C718 C719 1.372 . S
C719 C718 1.372 . S
C719 C720 1.400 . S
C719 C724 1.490 . S
C720 H710 0.930 1_545 S
C720 C719 1.400 . S
C720 C723 1.386 . S
H721 C737 0.930 . S
H722 C738 0.931 . S
C723 H711 0.929 1_545 S
C723 C717 1.390 . S
C723 C720 1.386 . S
C724 C719 1.490 . S
C724 C726 1.395 . S
C724 C727 1.403 . S
H725 C731 0.930 . S
C726 H712 0.930 1_545 S
C726 C724 1.395 . S
C726 C729 1.403 . S
C727 C724 1.403 . S
C727 C728 1.524 . S
C727 C731 1.400 . S
C728 H713 0.960 . S
C728 H714 0.960 . S
C728 H715 0.960 . S
C728 C727 1.524 . S
C729 C726 1.403 . S
C729 C730 1.392 . S
C729 C733 1.495 1_545 S
C730 C729 1.392 . S
C730 C731 1.385 . S
C730 C732 1.478 . S
C731 H725 0.930 . S
C731 C727 1.400 . S
C731 C730 1.385 . S
C732 C730 1.478 . S
C732 C734 1.381 . S
C732 C738 1.383 1_545 S
C733 C729 1.495 1_565 S
C733 H739 0.959 . S
C733 H740 0.961 . S
C733 H741 0.960 1_565 S
C734 C732 1.381 . S
C734 C735 1.394 . S
C734 H742 0.930 . S
C735 C734 1.394 . S
C735 C736 1.383 . S
C735 H743 0.929 . S
C736 C735 1.383 . S
C736 C737 1.377 1_545 S
C737 H721 0.930 . S
C737 C736 1.377 1_565 S
C737 C738 1.379 . S
C738 H722 0.931 . S
C738 C732 1.383 1_565 S
C738 C737 1.379 . S
H739 C733 0.959 . S
H740 C733 0.961 . S
H741 C733 0.960 1_545 S
H742 C734 0.930 . S
H743 C735 0.929 . S
H744 C752 0.929 . S
H745 C754 0.930 . S
H746 C756 0.930 . S
H747 C759 0.929 . S
H748 C762 0.930 . S
H749 C764 0.960 1_556 S
H750 C764 0.960 . S
H751 C764 0.960 . S
C752 H744 0.929 . S
C752 C753 1.377 . S
C752 C754 1.384 . S
C753 C752 1.377 . S
C753 C759 1.390 . S
C754 H745 0.930 . S
C754 C752 1.384 . S
C754 C755 1.372 . S
C755 C754 1.372 . S
C755 C756 1.400 . S
C755 C760 1.490 . S
C756 H746 0.930 . S
C756 C755 1.400 . S
C756 C759 1.386 . S
H757 C773 0.930 . S
H758 C774 0.931 . S
C759 H747 0.929 . S
C759 C753 1.390 . S
C759 C756 1.386 . S
C760 C755 1.490 . S
C760 C762 1.395 . S
C760 C763 1.403 . S
H761 C767 0.930 1_556 S
C762 H748 0.930 . S
C762 C760 1.395 . S
C762 C765 1.403 . S
C763 C760 1.403 . S
C763 C764 1.524 . S
C763 C767 1.400 . S
C764 H749 0.960 1_554 S
C764 H750 0.960 . S
C764 H751 0.960 . S
C764 C763 1.524 . S
C765 C762 1.403 . S
C765 C766 1.392 . S
C765 C769 1.495 . S
C766 C765 1.392 . S
C766 C767 1.385 . S
C766 C768 1.478 1_554 S
C767 H761 0.930 1_554 S
C767 C763 1.400 . S
C767 C766 1.385 . S
C768 C766 1.478 1_556 S
C768 C770 1.381 . S
C768 C774 1.383 . S
C769 C765 1.495 . S
C769 H775 0.959 . S
C769 H776 0.961 . S
C769 H777 0.960 . S
C770 C768 1.381 . S
C770 C771 1.394 . S
C770 H778 0.930 1_556 S
C771 C770 1.394 . S
C771 C772 1.383 . S
C771 H779 0.929 . S
C772 C771 1.383 . S
C772 C773 1.377 . S
C773 H757 0.930 . S
C773 C772 1.377 . S
C773 C774 1.379 . S
C774 H758 0.931 . S
C774 C768 1.383 . S
C774 C773 1.379 . S
H775 C769 0.959 . S
H776 C769 0.961 . S
H777 C769 0.960 . S
H778 C770 0.930 1_554 S
H779 C771 0.929 . S
H780 C788 0.929 . S
H781 C790 0.930 . S
H782 C792 0.930 . S
H783 C795 0.929 . S
H784 C798 0.930 . S
H785 C800 0.960 . S
H786 C800 0.960 . S
H787 C800 0.960 . S
C788 H780 0.929 . S
C788 C789 1.377 . S
C788 C790 1.384 . S
C789 C788 1.377 . S
C789 C795 1.390 1_455 S
C790 H781 0.930 . S
C790 C788 1.384 . S
C790 C791 1.372 . S
C791 C790 1.372 . S
C791 C792 1.400 1_455 S
C791 C796 1.490 . S
C792 H782 0.930 . S
C792 C791 1.400 1_655 S
C792 C795 1.386 . S
H793 C809 0.930 . S
H794 C810 0.931 . S
C795 H783 0.929 . S
C795 C789 1.390 1_655 S
C795 C792 1.386 . S
C796 C791 1.490 . S
C796 C798 1.395 . S
C796 C799 1.403 1_455 S
H797 C803 0.930 . S
C798 H784 0.930 . S
C798 C796 1.395 . S
C798 C801 1.403 . S
C799 C796 1.403 1_655 S
C799 C800 1.524 . S
C799 C803 1.400 . S
C800 H785 0.960 . S
C800 H786 0.960 . S
C800 H787 0.960 . S
C800 C799 1.524 . S
C801 C798 1.403 . S
C801 C802 1.392 . S
C801 C805 1.495 . S
C802 C801 1.392 . S
C802 C803 1.385 1_455 S
C802 C804 1.478 . S
C803 H797 0.930 . S
C803 C799 1.400 . S
C803 C802 1.385 1_655 S
C804 C802 1.478 . S
C804 C806 1.381 . S
C804 C810 1.383 1_455 S
C805 C801 1.495 . S
C805 H811 0.959 . S
C805 H812 0.961 . S
C805 H813 0.960 . S
C806 C804 1.381 . S
C806 C807 1.394 . S
C806 H814 0.930 . S
C807 C806 1.394 . S
C807 C808 1.383 . S
C807 H815 0.929 . S
C808 C807 1.383 . S
C808 C809 1.377 1_455 S
C809 H793 0.930 . S
C809 C808 1.377 1_655 S
C809 C810 1.379 . S
C810 H794 0.931 . S
C810 C804 1.383 1_655 S
C810 C809 1.379 . S
H811 C805 0.959 . S
H812 C805 0.961 . S
H813 C805 0.960 . S
H814 C806 0.930 . S
H815 C807 0.929 . S
C412 C97 1.218 1_655 S
C393 C6 1.568 . S
C429 C22 1.678 . S
C448 C211 1.267 . S
C465 C34 1.049 . S
C484 C271 0.813 . S
C501 C7 1.396 . S
C520 C71 1.182 . S
C556 C185 1.212 . S
C537 C23 1.507 . S
C573 C35 1.216 . S
C592 C281 0.866 . S
C628 C167 0.929 . S
C609 C36 1.613 . S
C645 C9 1.776 . S
C664 C299 1.429 . S
C700 C43 1.116 1_455 S
C681 C21 1.295 . S
C736 C157 1.051 . S
C717 C37 1.417 . S
C772 C325 1.519 . S
C753 C8 1.941 . S
C789 C20 1.467 . S
C808 C53 0.934 . S
