# Generated by pormake.
# Topology tsx, (6,3)-cn, num edge types: 1
# Building blocks:
#     Node 0, Type 0, BuildingBlock: VOLQOD_clean_sbu_1, # of connection points: 6
#     Node 1, Type 0, BuildingBlock: VOLQOD_clean_sbu_1, # of connection points: 6
#     Node 2, Type 1, BuildingBlock: KAKCAD_clean_linker_0, # of connection points: 3
#     Node 3, Type 1, BuildingBlock: KAKCAD_clean_linker_0, # of connection points: 3
#     Node 4, Type 1, BuildingBlock: KAKCAD_clean_linker_0, # of connection points: 3
#     Node 5, Type 1, BuildingBlock: KAKCAD_clean_linker_0, # of connection points: 3
#     Edge 6, Type (0, 1), BuildingBlock: XUDNAN_clean_linker_2, # of connection points: 2
#     Edge 7, Type (0, 1), BuildingBlock: XUDNAN_clean_linker_2, # of connection points: 2
#     Edge 8, Type (0, 1), BuildingBlock: XUDNAN_clean_linker_2, # of connection points: 2
#     Edge 9, Type (0, 1), BuildingBlock: XUDNAN_clean_linker_2, # of connection points: 2
#     Edge 10, Type (0, 1), BuildingBlock: XUDNAN_clean_linker_2, # of connection points: 2
#     Edge 11, Type (0, 1), BuildingBlock: XUDNAN_clean_linker_2, # of connection points: 2
#     Edge 12, Type (0, 1), BuildingBlock: XUDNAN_clean_linker_2, # of connection points: 2
#     Edge 13, Type (0, 1), BuildingBlock: XUDNAN_clean_linker_2, # of connection points: 2
#     Edge 14, Type (0, 1), BuildingBlock: XUDNAN_clean_linker_2, # of connection points: 2
#     Edge 15, Type (0, 1), BuildingBlock: XUDNAN_clean_linker_2, # of connection points: 2
#     Edge 16, Type (0, 1), BuildingBlock: XUDNAN_clean_linker_2, # of connection points: 2
#     Edge 17, Type (0, 1), BuildingBlock: XUDNAN_clean_linker_2, # of connection points: 2
# Relax obj value: 0.075
# Max RMSD: 0.108
# Mean RMSD: 0.083
data_MOF--net-tsx--node1-VOLQOD_clean_sbu_1--node2-KAKCAD_clean_linker_0--edge1-XUDNAN_clean_linker_2
_symmetry_space_group_name_H-M    P1
_symmetry_Int_Tables_number       1
_symmetry_cell_setting            triclinic
loop_
_symmetry_equiv_pos_as_xyz
'x, y, z'
_cell_length_a     24.839311
_cell_length_b     25.724545
_cell_length_c     49.310386
_cell_angle_alpha  90.655695
_cell_angle_beta   90.018601
_cell_angle_gamma 90.040563
loop_
_atom_site_label
_atom_site_type_symbol
_atom_site_fract_x
_atom_site_fract_y
_atom_site_fract_z
_atom_type_partial_charge
O0 O 0.07524 0.00378 0.06981 0.0
Zn1 Zn 0.08176 0.0029 0.02912 0.0
O2 O 0.0126 0.02139 0.01292 0.0
Zn3 Zn 0.9919 0.96796 0.98647 0.0
Zn4 Zn 0.9565 0.02686 0.04081 0.0
Zn5 Zn 0.02039 0.0882 0.9951 0.0
O6 O 0.98946 0.99662 0.94854 0.0
O7 O 0.00737 0.08062 0.95493 0.0
O8 O 0.10757 0.93219 0.01639 0.0
O9 O 0.04421 0.90849 0.98691 0.0
O10 O 0.91997 0.93649 0.99565 0.0
O11 O 0.90204 0.96941 0.03649 0.0
O12 O 0.91585 0.09516 0.03798 0.0
O13 O 0.13915 0.0555 0.02069 0.0
O14 O 0.96624 0.1394 0.00899 0.0
O15 O 0.09389 0.11927 0.00109 0.0
C16 C 0.03688 0.01229 0.08643 0.0
C17 C 0.9959 0.04231 0.93938 0.0
C18 C 0.89091 0.93852 0.01691 0.0
C19 C 0.08777 0.8994 0.99959 0.0
C20 C 0.92638 0.13658 0.02507 0.0
C21 C 0.13738 0.10084 0.01067 0.0
O22 O 0.98922 0.02181 0.07828 0.0
O23 O 0.55313 0.45609 0.57806 0.0
Zn24 Zn 0.57212 0.46367 0.5385 0.0
O25 O 0.50834 0.48143 0.51756 0.0
Zn26 Zn 0.49015 0.42118 0.4951 0.0
Zn27 Zn 0.44904 0.49847 0.5421 0.0
Zn28 Zn 0.52236 0.54172 0.49475 0.0
O29 O 0.49952 0.43808 0.45572 0.0
O30 O 0.52517 0.52098 0.45498 0.0
O31 O 0.60559 0.39612 0.52608 0.0
O32 O 0.54006 0.36119 0.50135 0.0
O33 O 0.41485 0.39645 0.50228 0.0
O34 O 0.38643 0.45058 0.53473 0.0
O35 O 0.42078 0.57081 0.5363 0.0
O36 O 0.62771 0.51966 0.53511 0.0
O37 O 0.46408 0.5956 0.49924 0.0
O38 O 0.59288 0.57547 0.50573 0.0
C39 C 0.51237 0.46967 0.59209 0.0
C40 C 0.51434 0.47824 0.44282 0.0
C41 C 0.37857 0.41225 0.51863 0.0
C42 C 0.58601 0.35813 0.51259 0.0
C43 C 0.42836 0.60327 0.51737 0.0
C44 C 0.63046 0.5616 0.52172 0.0
O45 O 0.47042 0.48898 0.5813 0.0
C46 C 0.03435 0.96372 0.29726 0.0
C47 C 0.04649 0.01173 0.28549 0.0
C48 C 0.02904 0.95984 0.32539 0.0
C49 C 0.03452 0.00416 0.34204 0.0
C50 C 0.04546 0.0524 0.33022 0.0
C51 C 0.05206 0.05604 0.30215 0.0
C52 C 0.02946 -0.00011 0.37177 0.0
C53 C 0.0639 0.96693 0.38612 0.0
C54 C 0.05942 0.96237 0.41443 0.0
C55 C 0.01893 0.99041 0.42811 0.0
C56 C 0.98416 0.02351 0.41395 0.0
C57 C 0.99017 0.02857 0.38578 0.0
C58 C 0.94081 0.05194 0.42847 0.0
C59 C 0.9077 0.02608 0.44709 0.0
C60 C 0.93145 0.10477 0.42335 0.0
C61 C 0.88941 0.13108 0.43635 0.0
C62 C 0.85559 0.10494 0.45454 0.0
C63 C 0.09729 0.92882 0.42969 0.0
C64 C 0.11375 0.88053 0.41894 0.0
C65 C 0.11772 0.94506 0.45503 0.0
C66 C 0.15373 0.91377 0.46925 0.0
C67 C 0.17042 0.86576 0.45835 0.0
C68 C 0.15003 0.84945 0.43306 0.0
C69 C 0.86533 0.05227 0.4599 0.0
H70 H 0.03017 0.92906 0.28474 0.0
H71 H 0.02041 0.92232 0.33415 0.0
H72 H 0.04994 0.08699 0.34275 0.0
H73 H 0.06138 0.09344 0.29341 0.0
H74 H 0.09512 0.94598 0.37523 0.0
H75 H 0.96314 0.05351 0.37457 0.0
H76 H 0.01437 0.98653 0.44985 0.0
H77 H 0.91377 0.98525 0.45126 0.0
H78 H 0.95663 0.12574 0.40926 0.0
H79 H 0.88251 0.17155 0.43163 0.0
H80 H 0.09811 0.8664 0.39972 0.0
H81 H 0.10662 0.9824 0.46371 0.0
H82 H 0.84007 0.03128 0.47395 0.0
H83 H 0.16152 0.81222 0.42437 0.0
H84 H 0.16923 0.92756 0.48856 0.0
C85 C 0.98288 0.08322 0.72236 0.0
C86 C 0.97607 0.04113 0.74001 0.0
C87 C 0.98513 0.07532 0.69434 0.0
C88 C 0.98217 0.02492 0.68305 0.0
C89 C 0.97603 0.98268 0.70068 0.0
C90 C 0.97248 0.99072 0.72873 0.0
C91 C 0.98546 0.01679 0.65305 0.0
C92 C 0.01767 0.04952 0.63712 0.0
C93 C 0.01904 0.0439 0.60881 0.0
C94 C 0.98981 0.00381 0.59626 0.0
C95 C 0.95888 0.96958 0.61179 0.0
C96 C 0.95604 0.97684 0.64006 0.0
C97 C 0.93059 0.92548 0.5985 0.0
C98 C 0.87666 0.91446 0.60477 0.0
C99 C 0.95803 0.89327 0.57992 0.0
C100 C 0.93241 0.85013 0.5683 0.0
C101 C 0.8787 0.83872 0.57482 0.0
C102 C 0.04983 0.08123 0.59239 0.0
C103 C 0.02406 0.10947 0.57193 0.0
C104 C 0.10422 0.09104 0.59816 0.0
C105 C 0.13215 0.12935 0.58411 0.0
C106 C 0.10585 0.15905 0.56439 0.0
C107 C 0.05173 0.14849 0.5582 0.0
C108 C 0.85084 0.87163 0.59291 0.0
H109 H 0.98697 0.12257 0.73008 0.0
H110 H 0.98879 0.10908 0.68157 0.0
H111 H 0.97439 0.94318 0.69292 0.0
H112 H 0.96645 0.95725 0.74148 0.0
H113 H 0.0414 0.08004 0.64661 0.0
H114 H 0.93098 0.95111 0.65186 0.0
H115 H 0.99126 0.99921 0.57438 0.0
H116 H 0.85452 0.93893 0.61889 0.0
H117 H -0.00024 0.90072 0.57488 0.0
H118 H 0.95467 0.82553 0.5543 0.0
H119 H 0.98199 0.10266 0.56728 0.0
H120 H 0.12485 0.06957 0.61383 0.0
H121 H 0.80952 0.86343 0.59845 0.0
H122 H 0.03072 0.17091 0.54304 0.0
H123 H 0.17374 0.13715 0.5894 0.0
C124 C 0.52493 0.41896 0.80905 0.0
C125 C 0.5066 0.45801 0.79152 0.0
C126 C 0.52275 0.42575 0.83717 0.0
C127 C 0.50375 0.47249 0.84879 0.0
C128 C 0.48696 0.51219 0.83126 0.0
C129 C 0.48766 0.5048 0.80312 0.0
C130 C 0.50054 0.47926 0.87895 0.0
C131 C 0.53739 0.45417 0.89614 0.0
C132 C 0.53321 0.45859 0.92452 0.0
C133 C 0.49243 0.48972 0.93584 0.0
C134 C 0.45624 0.51612 0.91909 0.0
C135 C 0.46004 0.51027 0.89083 0.0
C136 C 0.41441 0.55028 0.93102 0.0
C137 C 0.37913 0.53164 0.95094 0.0
C138 C 0.40916 0.6017 0.92217 0.0
C139 C 0.36909 0.63391 0.9329 0.0
C140 C 0.33297 0.61498 0.95234 0.0
C141 C 0.57184 0.43089 0.94225 0.0
C142 C 0.58647 0.37922 0.93636 0.0
C143 C 0.59519 0.45609 0.96482 0.0
C144 C 0.63347 0.43063 0.98067 0.0
C145 C 0.64898 0.37934 0.97438 0.0
C146 C 0.62453 0.35372 0.95225 0.0
C147 C 0.33834 0.56361 0.96132 0.0
H148 H 0.54114 0.3828 0.80117 0.0
H149 H 0.53531 0.39372 0.84972 0.0
H150 H 0.47315 0.54926 0.83916 0.0
H151 H 0.47244 0.53575 0.79058 0.0
H152 H 0.57026 0.43186 0.88751 0.0
H153 H 0.43031 0.52911 0.87824 0.0
H154 H 0.48891 0.49364 0.95768 0.0
H155 H 0.38237 0.49204 0.958 0.0
H156 H 0.43615 0.61697 0.90694 0.0
H157 H 0.36546 0.67324 0.92549 0.0
H158 H 0.56868 0.35855 0.91931 0.0
H159 H 0.58494 0.49599 0.96981 0.0
H160 H 0.31098 0.54824 0.97634 0.0
H161 H 0.63603 0.31443 0.94666 0.0
H162 H 0.65133 0.45126 0.9977 0.0
C163 C 0.52443 0.54502 0.23278 0.0
C164 C 0.52304 0.49465 0.24363 0.0
C165 C 0.51841 0.55262 0.20485 0.0
C166 C 0.51153 0.51 0.187 0.0
C167 C 0.50997 0.45977 0.19795 0.0
C168 C 0.5149 0.4523 0.2258 0.0
C169 C 0.50734 0.51727 0.15706 0.0
C170 C 0.53743 0.55606 0.14398 0.0
C171 C 0.53666 0.56029 0.11558 0.0
C172 C 0.50583 0.52507 0.10015 0.0
C173 C 0.47539 0.4864 0.11275 0.0
C174 C 0.47545 0.4834 0.14115 0.0
C175 C 0.44572 0.44733 0.09622 0.0
C176 C 0.39269 0.43348 0.10288 0.0
C177 C 0.47125 0.42196 0.07434 0.0
C178 C 0.44482 0.38246 0.05992 0.0
C179 C 0.39215 0.36795 0.06691 0.0
C180 C 0.56915 0.60053 0.10182 0.0
C181 C 0.56913 0.65223 0.1113 0.0
C182 C 0.59978 0.58752 0.07879 0.0
C183 C 0.62955 0.62542 0.0654 0.0
C184 C 0.62918 0.67733 0.07465 0.0
C185 C 0.59871 0.69029 0.0978 0.0
C186 C 0.36607 0.39434 0.08829 0.0
H187 H 0.53104 0.57865 0.24576 0.0
H188 H 0.51914 0.59197 0.19731 0.0
H189 H 0.50584 0.42573 0.18501 0.0
H190 H 0.51224 0.41297 0.23326 0.0
H191 H 0.5633 0.5817 0.15572 0.0
H192 H 0.45157 0.4536 0.15078 0.0
H193 H 0.50503 0.52808 0.07824 0.0
H194 H 0.37198 0.45265 0.11954 0.0
H195 H 0.51229 0.4316 0.0689 0.0
H196 H 0.46572 0.36294 0.04343 0.0
H197 H 0.54542 0.66342 0.12885 0.0
H198 H 0.60125 0.5478 0.07127 0.0
H199 H 0.32565 0.38362 0.09429 0.0
H200 H 0.59705 0.72999 0.10529 0.0
H201 H 0.6535 0.61381 0.04802 0.0
H202 H 0.14021 0.20678 0.01346 0.0
H203 H 0.24268 0.07032 0.01387 0.0
H204 H 0.32183 0.12619 0.02293 0.0
H205 H 0.2396 0.29948 0.98449 0.0
H206 H 0.217 0.35165 0.00637 0.0
H207 H 0.17032 0.30209 0.99529 0.0
H208 H 0.14648 0.28307 0.04537 0.0
H209 H 0.19325 0.33214 0.05661 0.0
H210 H 0.19949 0.26658 0.06873 0.0
H211 H 0.38787 0.19559 0.03635 0.0
H212 H 0.43497 0.27246 0.0553 0.0
H213 H 0.28852 0.36298 0.04797 0.0
C214 C 0.17956 0.18883 0.0146 0.0
C215 C 0.18554 0.13434 0.0126 0.0
C216 C 0.23738 0.11207 0.01514 0.0
C217 C 0.28254 0.14349 0.02018 0.0
C218 C 0.27505 0.19702 0.02275 0.0
C219 C 0.22483 0.21952 0.02006 0.0
C220 C 0.22652 0.27709 0.02677 0.0
C221 C 0.21254 0.30948 0.00173 0.0
C222 C 0.18924 0.29046 0.0508 0.0
C223 C 0.28518 0.28316 0.03441 0.0
C224 C 0.31275 0.23679 0.03143 0.0
C225 C 0.36689 0.23228 0.03842 0.0
C226 C 0.39333 0.27614 0.04909 0.0
C227 C 0.36537 0.3236 0.05301 0.0
C228 C 0.31083 0.32715 0.0452 0.0
H229 H 0.19621 0.88023 0.00131 0.0
H230 H 0.04189 0.80655 0.98589 0.0
H231 H 0.08796 0.72344 0.97587 0.0
H232 H 0.26386 0.81838 0.94687 0.0
H233 H 0.32715 0.81204 0.96441 0.0
H234 H 0.28194 0.86412 0.97332 0.0
H235 H 0.2822 0.83421 0.02334 0.0
H236 H 0.32747 0.78194 0.01456 0.0
H237 H 0.26444 0.76805 0.03108 0.0
H238 H 0.15065 0.64918 0.96628 0.0
H239 H 0.22613 0.59098 0.95373 0.0
H240 H 0.33968 0.7143 0.9726 0.0
C241 C 0.17218 0.84633 0.99627 0.0
C242 C 0.11554 0.84951 0.99462 0.0
C243 C 0.08537 0.80478 0.98729 0.0
C244 C 0.11113 0.7574 0.98172 0.0
C245 C 0.16708 0.7556 0.98327 0.0
C246 C 0.19732 0.79897 0.9901 0.0
C247 C 0.25704 0.78769 0.98807 0.0
C248 C 0.28406 0.82262 0.9669 0.0
C249 C 0.28439 0.7933 0.01592 0.0
C250 C 0.25559 0.73146 0.97868 0.0
C251 C 0.20333 0.7134 0.97654 0.0
C252 C 0.19176 0.6628 0.96796 0.0
C253 C 0.23477 0.63001 0.96098 0.0
C254 C 0.28846 0.6483 0.96223 0.0
C255 C 0.2989 0.6995 0.97143 0.0
H256 H 0.83843 0.91101 0.06342 0.0
H257 H 0.84106 0.8826 0.97647 0.0
H258 H 0.76918 0.817 0.98145 0.0
H259 H 0.82413 0.78068 0.0818 0.0
H260 H 0.78063 0.79347 0.11036 0.0
H261 H 0.82786 0.84215 0.09965 0.0
H262 H 0.75012 0.90851 0.09461 0.0
H263 H 0.70257 0.86 0.10538 0.0
H264 H 0.69313 0.89233 0.07349 0.0
H265 H 0.70091 0.75111 0.99621 0.0
H266 H 0.64294 0.6881 0.01974 0.0
H267 H 0.68836 0.75712 0.09722 0.0
C268 C 0.82318 0.89178 0.04534 0.0
C269 C 0.84507 0.90221 0.01952 0.0
C270 C 0.82478 0.87533 0.99645 0.0
C271 C 0.78386 0.83814 0.99906 0.0
C272 C 0.76381 0.82821 0.02487 0.0
C273 C 0.7828 0.85422 0.04761 0.0
C274 C 0.75725 0.83373 0.07323 0.0
C275 C 0.80002 0.81116 0.09238 0.0
C276 C 0.72377 0.87618 0.08752 0.0
C277 C 0.72159 0.7915 0.06139 0.0
C278 C 0.72547 0.78935 0.03345 0.0
C279 C 0.69744 0.75251 0.01809 0.0
C280 C 0.66497 0.71662 0.03167 0.0
C281 C 0.66119 0.71745 0.06036 0.0
C282 C 0.68962 0.75586 0.07528 0.0
H283 H 0.81667 0.13529 0.02341 0.0
H284 H 0.95432 0.23849 0.02815 0.0
H285 H 0.89434 0.31428 0.02279 0.0
H286 H 0.75697 0.19733 0.97063 0.0
H287 H 0.68818 0.18825 0.98121 0.0
H288 H 0.73912 0.1432 0.99174 0.0
H289 H 0.71434 0.16008 0.0421 0.0
H290 H 0.66276 0.20496 0.03171 0.0
H291 H 0.71408 0.22571 0.05532 0.0
H292 H 0.82248 0.37701 0.01064 0.0
H293 H 0.74475 0.422 0.99051 0.0
H294 H 0.65352 0.27811 0.99157 0.0
C295 C 0.83366 0.17406 0.02447 0.0
C296 C 0.88976 0.18145 0.02679 0.0
C297 C 0.91124 0.23238 0.0268 0.0
C298 C 0.87749 0.27555 0.02385 0.0
C299 C 0.82243 0.26703 0.02066 0.0
C300 C 0.80055 0.21754 0.02094 0.0
C301 C 0.74151 0.21843 0.01318 0.0
C302 C 0.73087 0.18483 0.98768 0.0
C303 C 0.70608 0.20129 0.037 0.0
C304 C 0.73422 0.27574 0.00747 0.0
C305 C 0.78102 0.30324 0.01254 0.0
C306 C 0.78527 0.35611 0.00708 0.0
C307 C 0.74083 0.38138 0.99571 0.0
C308 C 0.69297 0.35365 0.98959 0.0
C309 C 0.68953 0.30035 0.99606 0.0
H310 H 0.63371 0.66775 0.5196 0.0
H311 H 0.73262 0.53207 0.53435 0.0
H312 H 0.80988 0.58903 0.54536 0.0
H313 H 0.74057 0.75225 0.49177 0.0
H314 H 0.71471 0.80933 0.50882 0.0
H315 H 0.66944 0.75805 0.49842 0.0
H316 H 0.63454 0.7511 0.54777 0.0
H317 H 0.67981 0.80206 0.55834 0.0
H318 H 0.68182 0.73993 0.57484 0.0
H319 H 0.87419 0.66007 0.55769 0.0
H320 H 0.91993 0.74051 0.573 0.0
H321 H 0.77806 0.83003 0.55236 0.0
C322 C 0.67205 0.65014 0.52447 0.0
C323 C 0.67758 0.59563 0.52583 0.0
C324 C 0.72779 0.57382 0.5331 0.0
C325 C 0.77188 0.60581 0.53926 0.0
C326 C 0.76489 0.65947 0.53827 0.0
C327 C 0.71621 0.68154 0.53117 0.0
C328 C 0.71791 0.74017 0.53423 0.0
C329 C 0.71021 0.76649 0.50666 0.0
C330 C 0.67605 0.75942 0.55504 0.0
C331 C 0.77475 0.74747 0.54468 0.0
C332 C 0.80146 0.70051 0.54639 0.0
C333 C 0.85391 0.69714 0.55621 0.0
C334 C 0.87959 0.74298 0.56478 0.0
C335 C 0.8525 0.79133 0.56378 0.0
C336 C 0.79959 0.79351 0.55338 0.0
H337 H 0.69573 0.34959 0.51302 0.0
H338 H 0.54922 0.26021 0.5012 0.0
H339 H 0.60338 0.18264 0.48951 0.0
H340 H 0.7628 0.29846 0.45695 0.0
H341 H 0.82866 0.2979 0.4723 0.0
H342 H 0.77912 0.34417 0.4837 0.0
H343 H 0.78915 0.31134 0.53294 0.0
H344 H 0.83908 0.26507 0.52171 0.0
H345 H 0.78041 0.24317 0.53981 0.0
H346 H 0.67279 0.11706 0.47565 0.0
H347 H 0.75229 0.06929 0.45852 0.0
H348 H 0.85338 0.20229 0.47776 0.0
C349 C 0.67512 0.31331 0.50868 0.0
C350 C 0.61835 0.31064 0.50831 0.0
C351 C 0.59273 0.26294 0.50172 0.0
C352 C 0.62313 0.21867 0.49517 0.0
C353 C 0.67905 0.22288 0.49515 0.0
C354 C 0.70484 0.269 0.50168 0.0
C355 C 0.76509 0.26457 0.49758 0.0
C356 C 0.78505 0.30358 0.47637 0.0
C357 C 0.7952 0.27143 0.52462 0.0
C358 C 0.76899 0.20918 0.4871 0.0
C359 C 0.71904 0.18551 0.48631 0.0
C360 C 0.71221 0.13496 0.47645 0.0
C361 C 0.75757 0.10809 0.46686 0.0
C362 C 0.80891 0.13209 0.46689 0.0
C363 C 0.81458 0.18307 0.47744 0.0
H364 H 0.36393 0.30808 0.51196 0.0
H365 H 0.27909 0.45131 0.53059 0.0
H366 H 0.19521 0.40144 0.53787 0.0
H367 H 0.24987 0.23552 0.47999 0.0
H368 H 0.26953 0.17551 0.49569 0.0
H369 H 0.31989 0.22296 0.48696 0.0
H370 H 0.3538 0.22419 0.53668 0.0
H371 H 0.3036 0.177 0.54556 0.0
H372 H 0.30693 0.23814 0.56372 0.0
H373 H 0.12329 0.33578 0.54709 0.0
H374 H 0.07106 0.25921 0.56178 0.0
H375 H 0.20474 0.15879 0.54012 0.0
C376 C 0.32723 0.32899 0.51674 0.0
C377 C 0.32747 0.38347 0.52029 0.0
C378 C 0.27937 0.40953 0.52757 0.0
C379 C 0.23159 0.38159 0.53157 0.0
C380 C 0.2329 0.32767 0.52847 0.0
C381 C 0.2796 0.3016 0.52139 0.0
C382 C 0.27223 0.24329 0.52288 0.0
C383 C 0.27823 0.21783 0.4947 0.0
C384 C 0.31145 0.21928 0.54344 0.0
C385 C 0.21465 0.24064 0.53272 0.0
C386 C 0.19219 0.28965 0.53512 0.0
C387 C 0.14019 0.29719 0.545 0.0
C388 C 0.11081 0.25356 0.5532 0.0
C389 C 0.13399 0.20336 0.55193 0.0
C390 C 0.18615 0.19684 0.54113 0.0
H391 H 0.41037 0.66321 0.47279 0.0
H392 H 0.363 0.64462 0.55686 0.0
H393 H 0.29617 0.71497 0.55186 0.0
H394 H 0.39161 0.80521 0.46947 0.0
H395 H 0.36526 0.80163 0.43543 0.0
H396 H 0.41363 0.75429 0.44663 0.0
H397 H 0.34762 0.68018 0.43336 0.0
H398 H 0.29893 0.72718 0.42235 0.0
H399 H 0.28067 0.68002 0.44749 0.0
H400 H 0.23019 0.783 0.53674 0.0
H401 H 0.16877 0.84193 0.51234 0.0
H402 H 0.25814 0.81409 0.438 0.0
C403 C 0.38685 0.67471 0.49035 0.0
C404 C 0.39221 0.64872 0.51529 0.0
C405 C 0.35971 0.66413 0.53758 0.0
C406 C 0.32175 0.70412 0.53496 0.0
C407 C 0.31672 0.72816 0.50991 0.0
C408 C 0.34844 0.71407 0.488 0.0
C409 C 0.33233 0.74313 0.46275 0.0
C410 C 0.37846 0.77815 0.453 0.0
C411 C 0.31378 0.70536 0.44017 0.0
C412 C 0.28587 0.77498 0.47372 0.0
C413 C 0.27793 0.76638 0.50104 0.0
C414 C 0.23635 0.79042 0.51541 0.0
C415 C 0.20178 0.82389 0.50142 0.0
C416 C 0.20873 0.8325 0.47331 0.0
C417 C 0.25165 0.80796 0.45945 0.0
H418 H 0.96835 0.99054 0.12854 0.0
H419 H 0.1324 0.03693 0.11051 0.0
H420 H 0.15229 0.04265 0.15951 0.0
H421 H 0.94917 0.07062 0.18755 0.0
H422 H 0.91178 0.02238 0.20594 0.0
H423 H 0.90999 0.02249 0.16943 0.0
H424 H 0.94232 0.92675 0.16818 0.0
H425 H 0.94402 0.92627 0.2047 0.0
H426 H 0.00344 0.90934 0.18558 0.0
H427 H 0.15307 0.04792 0.21027 0.0
H428 H 0.13712 0.0438 0.25978 0.0
H429 H 0.97502 0.9878 0.24501 0.0
C430 C 0.00842 0.00189 0.13495 0.0
C431 C 0.0488 0.01355 0.11578 0.0
C432 C 0.10095 0.02765 0.12488 0.0
C433 C 0.11257 0.03122 0.15265 0.0
C434 C 0.07185 0.01974 0.17104 0.0
C435 C 0.02106 0.0046 0.16262 0.0
C436 C 0.98514 0.99276 0.18661 0.0
C437 C 0.93613 0.02925 0.18742 0.0
C438 C 0.96773 0.93537 0.18624 0.0
C439 C 0.0235 0.00424 0.20981 0.0
C440 C 0.07313 0.02029 0.20036 0.0
C441 C 0.11458 0.03492 0.21792 0.0
C442 C 0.10518 0.03268 0.24592 0.0
C443 C 0.05509 0.01524 0.25596 0.0
C444 C 0.01382 0.00078 0.23769 0.0
H445 H 0.01917 0.97595 0.89713 0.0
H446 H 0.9566 0.12964 0.91581 0.0
H447 H 0.94229 0.14503 0.86694 0.0
H448 H 0.09238 0.01511 0.8375 0.0
H449 H 0.07972 0.95522 0.81926 0.0
H450 H 0.08276 0.95548 0.85575 0.0
H451 H 0.98776 0.91394 0.85758 0.0
H452 H 0.98431 0.91382 0.82109 0.0
H453 H 0.93237 0.94537 0.84076 0.0
H454 H 0.93113 0.14204 0.81645 0.0
H455 H 0.93235 0.12516 0.76731 0.0
H456 H 0.01158 0.97704 0.78108 0.0
C457 C 0.00221 0.0127 0.89087 0.0
C458 C 0.98852 0.05151 0.91014 0.0
C459 C 0.96735 0.09948 0.90129 0.0
C460 C 0.95887 0.10846 0.87363 0.0
C461 C 0.97269 0.0694 0.85512 0.0
C462 C 0.99468 0.02279 0.8633 0.0
C463 C 0.00855 0.98841 0.83914 0.0
C464 C 0.06947 0.97796 0.83784 0.0
C465 C 0.97631 0.93737 0.83969 0.0
C466 C 0.99039 0.02279 0.81615 0.0
C467 C 0.96927 0.06902 0.82584 0.0
C468 C 0.94842 0.10634 0.80857 0.0
C469 C 0.94979 0.09649 0.78058 0.0
C470 C 0.97287 0.05005 0.76995 0.0
C471 C 0.99318 0.01275 0.78823 0.0
H472 H 0.51672 0.53875 0.63465 0.0
H473 H 0.50696 0.37464 0.61452 0.0
H474 H 0.50312 0.3536 0.66339 0.0
H475 H 0.60442 0.5225 0.69289 0.0
H476 H 0.57377 0.57449 0.71222 0.0
H477 H 0.57397 0.57656 0.67572 0.0
H478 H 0.47011 0.58612 0.67578 0.0
H479 H 0.46959 0.58379 0.71227 0.0
H480 H 0.42955 0.53837 0.69279 0.0
H481 H 0.49523 0.35115 0.71398 0.0
H482 H 0.49283 0.36571 0.76323 0.0
H483 H 0.51879 0.53108 0.7509 0.0
C484 C 0.51377 0.4985 0.6407 0.0
C485 C 0.51175 0.45812 0.62115 0.0
C486 C 0.50847 0.40584 0.62945 0.0
C487 C 0.50614 0.39364 0.65706 0.0
C488 C 0.50807 0.43425 0.67598 0.0
C489 C 0.51264 0.48557 0.66823 0.0
C490 C 0.51611 0.52151 0.69275 0.0
C491 C 0.5703 0.55046 0.69343 0.0
C492 C 0.4685 0.55969 0.69343 0.0
C493 C 0.51219 0.48241 0.71544 0.0
C494 C 0.50695 0.43244 0.70529 0.0
C495 C 0.50038 0.39002 0.72221 0.0
C496 C 0.49965 0.39877 0.75031 0.0
C497 C 0.50659 0.44953 0.76143 0.0
C498 C 0.51291 0.49177 0.74347 0.0
H499 H 0.48853 0.54903 0.40349 0.0
H500 H 0.55777 0.39634 0.41577 0.0
H501 H 0.57229 0.38665 0.36644 0.0
H502 H 0.41553 0.51257 0.34339 0.0
H503 H 0.4247 0.57415 0.32693 0.0
H504 H 0.42367 0.57117 0.36339 0.0
H505 H 0.51694 0.61619 0.36537 0.0
H506 H 0.51835 0.6191 0.32888 0.0
H507 H 0.57264 0.58828 0.34685 0.0
H508 H 0.58086 0.39384 0.31643 0.0
H509 H 0.57409 0.41262 0.26785 0.0
H510 H 0.49004 0.55671 0.28692 0.0
C511 C 0.50719 0.51387 0.3957 0.0
C512 C 0.52252 0.47354 0.4133 0.0
C513 C 0.54579 0.42758 0.40251 0.0
C514 C 0.55445 0.42187 0.37459 0.0
C515 C 0.53875 0.46213 0.35771 0.0
C516 C 0.51488 0.50693 0.36771 0.0
C517 C 0.49824 0.54242 0.34482 0.0
C518 C 0.43689 0.55053 0.34463 0.0
C519 C 0.52835 0.59459 0.3466 0.0
C520 C 0.51657 0.5105 0.32047 0.0
C521 C 0.54057 0.46478 0.32848 0.0
C522 C 0.56146 0.42918 0.30985 0.0
C523 C 0.55688 0.44006 0.28221 0.0
C524 C 0.5305 0.4857 0.27325 0.0
C525 C 0.5107 0.5216 0.29286 0.0
loop_
_geom_bond_atom_site_label_1
_geom_bond_atom_site_label_2
_geom_bond_distance
_geom_bond_site_symmetry_2
_ccdc_geom_bond_type
O0 Zn1 1.953 . S
O0 C16 1.225 1_565 S
Zn1 O0 1.953 . S
Zn1 O2 1.949 1_565 S
Zn1 O8 1.919 . S
Zn1 O13 1.924 1_565 S
O2 Zn1 1.949 1_545 S
O2 Zn3 1.923 1_444 S
O2 Zn4 1.950 1_455 S
O2 Zn5 1.945 1_554 S
Zn3 O2 1.923 1_666 S
Zn3 O6 1.933 . S
Zn3 O9 1.941 1_655 S
Zn3 O10 1.958 1_556 S
Zn4 O2 1.950 1_655 S
Zn4 O11 1.938 1_545 S
Zn4 O12 1.906 . S
Zn4 O22 1.953 . S
Zn5 O2 1.945 1_556 S
Zn5 O7 1.932 . S
Zn5 O14 1.977 1_455 S
Zn5 O15 1.910 1_556 S
O6 Zn3 1.933 . S
O6 C17 1.226 1_665 S
O7 Zn5 1.932 . S
O7 C17 1.307 . S
O8 Zn1 1.919 . S
O8 C19 1.253 . S
O9 Zn3 1.941 1_455 S
O9 C19 1.283 1_556 S
O10 Zn3 1.958 1_554 S
O10 C18 1.331 . S
O11 Zn4 1.938 1_565 S
O11 C18 1.247 . S
O12 Zn4 1.906 . S
O12 C20 1.304 . S
O13 Zn1 1.924 1_545 S
O13 C21 1.311 . S
O14 Zn5 1.977 1_655 S
O14 C20 1.272 1_556 S
O15 Zn5 1.910 1_554 S
O15 C21 1.231 . S
C16 O0 1.225 1_545 S
C16 O22 1.298 1_455 S
C17 O6 1.226 1_445 S
C17 O7 1.307 . S
C18 O10 1.331 . S
C18 O11 1.247 . S
C19 O8 1.253 . S
C19 O9 1.283 1_554 S
C20 O12 1.304 . S
C20 O14 1.272 1_554 S
C21 O13 1.311 . S
C21 O15 1.231 . S
O22 Zn4 1.953 . S
O22 C16 1.298 1_655 S
O23 Zn24 1.953 . S
O23 C39 1.225 . S
Zn24 O23 1.953 . S
Zn24 O25 1.949 . S
Zn24 O31 1.919 . S
Zn24 O36 1.924 . S
O25 Zn24 1.949 . S
O25 Zn26 1.923 . S
O25 Zn27 1.950 . S
O25 Zn28 1.945 . S
Zn26 O25 1.923 . S
Zn26 O29 1.933 . S
Zn26 O32 1.941 . S
Zn26 O33 1.965 . S
Zn27 O25 1.950 . S
Zn27 O34 1.938 . S
Zn27 O35 1.906 . S
Zn27 O45 1.953 . S
Zn28 O25 1.945 . S
Zn28 O30 1.932 . S
Zn28 O37 1.977 . S
Zn28 O38 1.910 . S
O29 Zn26 1.933 . S
O29 C40 1.226 . S
O30 Zn28 1.932 . S
O30 C40 1.307 . S
O31 Zn24 1.919 . S
O31 C42 1.253 . S
O32 Zn26 1.941 . S
O32 C42 1.283 . S
O33 Zn26 1.965 . S
O33 C41 1.303 . S
O34 Zn27 1.938 . S
O34 C41 1.247 . S
O35 Zn27 1.906 . S
O35 C43 1.304 . S
O36 Zn24 1.924 . S
O36 C44 1.311 . S
O37 Zn28 1.977 . S
O37 C43 1.272 . S
O38 Zn28 1.910 . S
O38 C44 1.231 . S
C39 O23 1.225 . S
C39 O45 1.298 . S
C40 O29 1.226 . S
C40 O30 1.307 . S
C41 O33 1.303 . S
C41 O34 1.247 . S
C42 O31 1.253 . S
C42 O32 1.283 . S
C43 O35 1.304 . S
C43 O37 1.272 . S
C44 O36 1.311 . S
C44 O38 1.231 . S
O45 Zn27 1.953 . S
O45 C39 1.298 . S
C46 C47 1.391 1_455 S
C46 C48 1.397 . S
C46 H70 0.931 . S
C47 C46 1.391 1_655 S
C47 C51 1.392 1_665 S
C48 C46 1.397 . S
C48 C49 1.384 . S
C48 H71 0.930 . S
C49 C48 1.384 . S
C49 C50 1.377 1_565 S
C49 C52 1.481 . S
C50 C49 1.377 1_545 S
C50 C51 1.389 . S
C50 H72 0.929 . S
C51 C47 1.392 1_445 S
C51 C50 1.389 . S
C51 H73 0.931 . S
C52 C49 1.481 . S
C52 C53 1.394 . S
C52 C57 1.383 1_465 S
C53 C52 1.394 . S
C53 C54 1.401 . S
C53 H74 0.930 . S
C54 C53 1.401 . S
C54 C55 1.366 1_455 S
C54 C63 1.511 . S
C55 C54 1.366 1_655 S
C55 C56 1.402 1_565 S
C55 H76 0.932 . S
C56 C55 1.402 1_545 S
C56 C57 1.361 . S
C56 C58 1.500 . S
C57 C52 1.383 1_645 S
C57 C56 1.361 . S
C57 H75 0.931 . S
C58 C56 1.500 . S
C58 C59 1.371 . S
C58 C60 1.365 . S
C59 C58 1.371 . S
C59 C69 1.386 . S
C59 H77 0.931 . S
C60 C58 1.365 . S
C60 C61 1.409 . S
C60 H78 0.929 . S
C61 C60 1.409 . S
C61 C62 1.380 . S
C61 H79 0.930 . S
C62 C61 1.380 . S
C62 C69 1.357 . S
C63 C54 1.511 . S
C63 C64 1.341 . S
C63 C65 1.371 . S
C64 C63 1.341 . S
C64 C68 1.394 . S
C64 H80 0.930 . S
C65 C63 1.371 . S
C65 C66 1.392 . S
C65 H81 0.931 . S
C66 C65 1.392 . S
C66 C67 1.331 . S
C66 H84 0.932 . S
C67 C66 1.331 . S
C67 C68 1.336 . S
C68 C64 1.394 . S
C68 C67 1.336 . S
C68 H83 0.929 . S
C69 C59 1.386 . S
C69 C62 1.357 . S
C69 H82 0.928 . S
H70 C46 0.931 . S
H71 C48 0.930 . S
H72 C50 0.929 . S
H73 C51 0.931 . S
H74 C53 0.930 . S
H75 C57 0.931 . S
H76 C55 0.932 . S
H77 C59 0.931 . S
H78 C60 0.929 . S
H79 C61 0.930 . S
H80 C64 0.930 . S
H81 C65 0.931 . S
H82 C69 0.928 . S
H83 C68 0.929 . S
H84 C66 0.932 . S
C85 C86 1.386 . S
C85 C87 1.397 . S
C85 H109 0.931 . S
C86 C85 1.386 . S
C86 C90 1.397 1_545 S
C87 C85 1.397 . S
C87 C88 1.384 . S
C87 H110 0.930 . S
C88 C87 1.384 . S
C88 C89 1.377 1_545 S
C88 C91 1.481 . S
C89 C88 1.377 1_565 S
C89 C90 1.389 . S
C89 H111 0.929 . S
C90 C86 1.397 1_565 S
C90 C89 1.389 . S
C90 H112 0.931 . S
C91 C88 1.481 . S
C91 C92 1.387 . S
C91 C96 1.390 1_445 S
C92 C91 1.387 . S
C92 C93 1.401 . S
C92 H113 0.930 . S
C93 C92 1.401 . S
C93 C94 1.376 . S
C93 C102 1.511 . S
C94 C93 1.376 . S
C94 C95 1.392 1_445 S
C94 H115 0.931 . S
C95 C94 1.392 1_665 S
C95 C96 1.361 . S
C95 C97 1.500 . S
C96 C91 1.390 1_665 S
C96 C95 1.361 . S
C96 H114 0.931 . S
C97 C95 1.500 . S
C97 C98 1.371 . S
C97 C99 1.365 . S
C98 C97 1.371 . S
C98 C108 1.386 . S
C98 H116 0.931 . S
C99 C97 1.365 . S
C99 C100 1.409 . S
C99 H117 0.929 . S
C100 C99 1.409 . S
C100 C101 1.380 . S
C100 H118 0.930 . S
C101 C100 1.380 . S
C101 C108 1.357 . S
C102 C93 1.511 . S
C102 C103 1.341 . S
C102 C104 1.371 . S
C103 C102 1.341 . S
C103 C107 1.394 . S
C103 H119 0.930 . S
C104 C102 1.371 . S
C104 C105 1.392 . S
C104 H120 0.931 . S
C105 C104 1.392 . S
C105 C106 1.331 . S
C105 H123 0.932 . S
C106 C105 1.331 . S
C106 C107 1.336 . S
C107 C103 1.394 . S
C107 C106 1.336 . S
C107 H122 0.929 . S
C108 C98 1.386 . S
C108 C101 1.357 . S
C108 H121 0.928 . S
H109 C85 0.931 . S
H110 C87 0.930 . S
H111 C89 0.929 . S
H112 C90 0.931 . S
H113 C92 0.930 . S
H114 C96 0.931 . S
H115 C94 0.931 . S
H116 C98 0.931 . S
H117 C99 0.929 . S
H118 C100 0.930 . S
H119 C103 0.930 . S
H120 C104 0.931 . S
H121 C108 0.928 . S
H122 C107 0.929 . S
H123 C105 0.932 . S
C124 C125 1.386 . S
C124 C126 1.397 . S
C124 H148 0.931 . S
C125 C124 1.386 . S
C125 C129 1.397 . S
C126 C124 1.397 . S
C126 C127 1.384 . S
C126 H149 0.930 . S
C127 C126 1.384 . S
C127 C128 1.377 . S
C127 C130 1.481 . S
C128 C127 1.377 . S
C128 C129 1.389 . S
C128 H150 0.929 . S
C129 C125 1.397 . S
C129 C128 1.389 . S
C129 H151 0.931 . S
C130 C127 1.481 . S
C130 C131 1.387 . S
C130 C135 1.390 . S
C131 C130 1.387 . S
C131 C132 1.401 . S
C131 H152 0.930 . S
C132 C131 1.401 . S
C132 C133 1.376 . S
C132 C141 1.511 . S
C133 C132 1.376 . S
C133 C134 1.392 . S
C133 H154 0.931 . S
C134 C133 1.392 . S
C134 C135 1.361 . S
C134 C136 1.500 . S
C135 C130 1.390 . S
C135 C134 1.361 . S
C135 H153 0.931 . S
C136 C134 1.500 . S
C136 C137 1.371 . S
C136 C138 1.365 . S
C137 C136 1.371 . S
C137 C147 1.386 . S
C137 H155 0.931 . S
C138 C136 1.365 . S
C138 C139 1.409 . S
C138 H156 0.929 . S
C139 C138 1.409 . S
C139 C140 1.380 . S
C139 H157 0.930 . S
C140 C139 1.380 . S
C140 C147 1.357 . S
C141 C132 1.511 . S
C141 C142 1.341 . S
C141 C143 1.371 . S
C142 C141 1.341 . S
C142 C146 1.394 . S
C142 H158 0.930 . S
C143 C141 1.371 . S
C143 C144 1.392 . S
C143 H159 0.931 . S
C144 C143 1.392 . S
C144 C145 1.331 . S
C144 H162 0.932 . S
C145 C144 1.331 . S
C145 C146 1.336 . S
C146 C142 1.394 . S
C146 C145 1.336 . S
C146 H161 0.929 . S
C147 C137 1.386 . S
C147 C140 1.357 . S
C147 H160 0.928 . S
H148 C124 0.931 . S
H149 C126 0.930 . S
H150 C128 0.929 . S
H151 C129 0.931 . S
H152 C131 0.930 . S
H153 C135 0.931 . S
H154 C133 0.931 . S
H155 C137 0.931 . S
H156 C138 0.929 . S
H157 C139 0.930 . S
H158 C142 0.930 . S
H159 C143 0.931 . S
H160 C147 0.928 . S
H161 C146 0.929 . S
H162 C144 0.932 . S
C163 C164 1.386 . S
C163 C165 1.397 . S
C163 H187 0.931 . S
C164 C163 1.386 . S
C164 C168 1.397 . S
C165 C163 1.397 . S
C165 C166 1.384 . S
C165 H188 0.930 . S
C166 C165 1.384 . S
C166 C167 1.377 . S
C166 C169 1.481 . S
C167 C166 1.377 . S
C167 C168 1.389 . S
C167 H189 0.929 . S
C168 C164 1.397 . S
C168 C167 1.389 . S
C168 H190 0.931 . S
C169 C166 1.481 . S
C169 C170 1.387 . S
C169 C174 1.390 . S
C170 C169 1.387 . S
C170 C171 1.401 . S
C170 H191 0.930 . S
C171 C170 1.401 . S
C171 C172 1.376 . S
C171 C180 1.511 . S
C172 C171 1.376 . S
C172 C173 1.392 . S
C172 H193 0.931 . S
C173 C172 1.392 . S
C173 C174 1.361 . S
C173 C175 1.500 . S
C174 C169 1.390 . S
C174 C173 1.361 . S
C174 H192 0.931 . S
C175 C173 1.500 . S
C175 C176 1.371 . S
C175 C177 1.365 . S
C176 C175 1.371 . S
C176 C186 1.386 . S
C176 H194 0.931 . S
C177 C175 1.365 . S
C177 C178 1.409 . S
C177 H195 0.929 . S
C178 C177 1.409 . S
C178 C179 1.380 . S
C178 H196 0.930 . S
C179 C178 1.380 . S
C179 C186 1.357 . S
C180 C171 1.511 . S
C180 C181 1.341 . S
C180 C182 1.371 . S
C181 C180 1.341 . S
C181 C185 1.394 . S
C181 H197 0.930 . S
C182 C180 1.371 . S
C182 C183 1.392 . S
C182 H198 0.931 . S
C183 C182 1.392 . S
C183 C184 1.331 . S
C183 H201 0.932 . S
C184 C183 1.331 . S
C184 C185 1.336 . S
C185 C181 1.394 . S
C185 C184 1.336 . S
C185 H200 0.929 . S
C186 C176 1.386 . S
C186 C179 1.357 . S
C186 H199 0.928 . S
H187 C163 0.931 . S
H188 C165 0.930 . S
H189 C167 0.929 . S
H190 C168 0.931 . S
H191 C170 0.930 . S
H192 C174 0.931 . S
H193 C172 0.931 . S
H194 C176 0.931 . S
H195 C177 0.929 . S
H196 C178 0.930 . S
H197 C181 0.930 . S
H198 C182 0.931 . S
H199 C186 0.928 . S
H200 C185 0.929 . S
H201 C183 0.932 . S
H202 C214 0.919 1_556 S
H203 C216 0.930 . S
H204 C217 0.930 . S
H205 C221 0.959 1_554 S
H206 C221 0.959 . S
H207 C221 0.961 . S
H208 C222 0.960 1_556 S
H209 C222 0.961 1_556 S
H210 C222 0.959 . S
H211 C225 0.929 . S
H212 C226 0.931 . S
H213 C228 0.930 . S
C214 H202 0.919 1_554 S
C214 C215 1.399 . S
C214 C219 1.399 . S
C215 C214 1.399 . S
C215 C216 1.376 . S
C216 H203 0.930 . S
C216 C215 1.376 . S
C216 C217 1.388 . S
C217 H204 0.930 . S
C217 C216 1.388 . S
C217 C218 1.390 . S
C218 C217 1.390 . S
C218 C219 1.394 . S
C218 C224 1.465 . S
C219 C214 1.399 . S
C219 C218 1.394 . S
C219 C220 1.516 . S
C220 C219 1.516 . S
C220 C221 1.502 1_554 S
C220 C222 1.561 . S
C220 C223 1.526 . S
C221 H205 0.959 1_556 S
C221 H206 0.959 . S
C221 H207 0.961 . S
C221 C220 1.502 1_556 S
C222 H208 0.960 1_554 S
C222 H209 0.961 1_554 S
C222 H210 0.959 . S
C222 C220 1.561 . S
C223 C220 1.526 . S
C223 C224 1.396 . S
C223 C228 1.390 . S
C224 C218 1.465 . S
C224 C223 1.396 . S
C224 C225 1.399 . S
C225 H211 0.929 . S
C225 C224 1.399 . S
C225 C226 1.385 . S
C226 H212 0.931 . S
C226 C225 1.385 . S
C226 C227 1.389 . S
C227 C226 1.389 . S
C227 C228 1.387 . S
C228 H213 0.930 . S
C228 C223 1.390 . S
C228 C227 1.387 . S
H229 C241 0.930 . S
H230 C243 0.930 . S
H231 C244 0.930 . S
H232 C248 0.959 . S
H233 C248 0.959 . S
H234 C248 0.961 . S
H235 C249 0.960 . S
H236 C249 0.961 . S
H237 C249 0.959 . S
H238 C252 0.929 . S
H239 C253 0.931 . S
H240 C255 0.930 1_554 S
C241 H229 0.930 . S
C241 C242 1.399 1_554 S
C241 C246 1.401 . S
C242 C241 1.399 1_556 S
C242 C243 1.376 . S
C243 H230 0.930 . S
C243 C242 1.376 . S
C243 C244 1.388 . S
C244 H231 0.930 . S
C244 C243 1.388 . S
C244 C245 1.390 . S
C245 C244 1.390 . S
C245 C246 1.388 1_556 S
C245 C251 1.465 . S
C246 C241 1.401 . S
C246 C245 1.388 1_554 S
C246 C247 1.519 . S
C247 C246 1.519 . S
C247 C248 1.502 . S
C247 C249 1.561 . S
C247 C250 1.526 1_554 S
C248 H232 0.959 . S
C248 H233 0.959 . S
C248 H234 0.961 . S
C248 C247 1.502 . S
C249 H235 0.960 . S
C249 H236 0.961 . S
C249 H237 0.959 . S
C249 C247 1.561 . S
C250 C247 1.526 1_556 S
C250 C251 1.396 . S
C250 C255 1.390 . S
C251 C245 1.465 . S
C251 C250 1.396 . S
C251 C252 1.399 . S
C252 H238 0.929 . S
C252 C251 1.399 . S
C252 C253 1.385 . S
C253 H239 0.931 . S
C253 C252 1.385 . S
C253 C254 1.389 . S
C254 C253 1.389 . S
C254 C255 1.387 . S
C255 H240 0.930 1_556 S
C255 C250 1.390 . S
C255 C254 1.387 . S
H256 C268 0.930 . S
H257 C270 0.930 1_556 S
H258 C271 0.930 1_556 S
H259 C275 0.959 . S
H260 C275 0.959 . S
H261 C275 0.961 . S
H262 C276 0.960 . S
H263 C276 0.961 . S
H264 C276 0.959 . S
H265 C279 0.930 . S
H266 C280 0.931 . S
H267 C282 0.930 . S
C268 H256 0.930 . S
C268 C269 1.399 . S
C268 C273 1.399 . S
C269 C268 1.399 . S
C269 C270 1.376 . S
C270 H257 0.930 1_554 S
C270 C269 1.376 . S
C270 C271 1.388 . S
C271 H258 0.930 1_554 S
C271 C270 1.388 . S
C271 C272 1.390 . S
C272 C271 1.390 . S
C272 C273 1.394 . S
C272 C278 1.465 . S
C273 C268 1.399 . S
C273 C272 1.394 . S
C273 C274 1.516 . S
C274 C273 1.516 . S
C274 C275 1.502 . S
C274 C276 1.561 . S
C274 C277 1.526 . S
C275 H259 0.959 . S
C275 H260 0.959 . S
C275 H261 0.961 . S
C275 C274 1.502 . S
C276 H262 0.960 . S
C276 H263 0.961 . S
C276 H264 0.959 . S
C276 C274 1.561 . S
C277 C274 1.526 . S
C277 C278 1.396 . S
C277 C282 1.390 . S
C278 C272 1.465 . S
C278 C277 1.396 . S
C278 C279 1.399 . S
C279 H265 0.930 . S
C279 C278 1.399 . S
C279 C280 1.385 . S
C280 H266 0.931 . S
C280 C279 1.385 . S
C280 C281 1.389 . S
C281 C280 1.389 . S
C281 C282 1.387 . S
C282 H267 0.930 . S
C282 C277 1.390 . S
C282 C281 1.387 . S
H283 C295 0.930 . S
H284 C297 0.930 . S
H285 C298 0.930 . S
H286 C302 0.959 . S
H287 C302 0.959 . S
H288 C302 0.961 . S
H289 C303 0.960 . S
H290 C303 0.961 . S
H291 C303 0.959 . S
H292 C306 0.929 . S
H293 C307 0.931 . S
H294 C309 0.930 1_554 S
C295 H283 0.930 . S
C295 C296 1.399 1_554 S
C295 C300 1.406 . S
C296 C295 1.399 1_556 S
C296 C297 1.376 . S
C297 H284 0.930 . S
C297 C296 1.376 . S
C297 C298 1.388 . S
C298 H285 0.930 . S
C298 C297 1.388 . S
C298 C299 1.390 . S
C299 C298 1.390 . S
C299 C300 1.376 1_556 S
C299 C305 1.465 . S
C300 C295 1.406 . S
C300 C299 1.376 1_554 S
C300 C301 1.525 . S
C301 C300 1.525 . S
C301 C302 1.502 . S
C301 C303 1.561 . S
C301 C304 1.526 1_554 S
C302 H286 0.959 . S
C302 H287 0.959 . S
C302 H288 0.961 . S
C302 C301 1.502 . S
C303 H289 0.960 . S
C303 H290 0.961 . S
C303 H291 0.959 . S
C303 C301 1.561 . S
C304 C301 1.526 1_556 S
C304 C305 1.396 . S
C304 C309 1.390 . S
C305 C299 1.465 . S
C305 C304 1.396 . S
C305 C306 1.399 . S
C306 H292 0.929 . S
C306 C305 1.399 . S
C306 C307 1.385 . S
C307 H293 0.931 . S
C307 C306 1.385 . S
C307 C308 1.389 . S
C308 C307 1.389 . S
C308 C309 1.387 . S
C309 H294 0.930 1_556 S
C309 C304 1.390 . S
C309 C308 1.387 . S
H310 C322 0.930 . S
H311 C324 0.930 . S
H312 C325 0.930 . S
H313 C329 0.959 . S
H314 C329 0.959 . S
H315 C329 0.961 . S
H316 C330 0.960 . S
H317 C330 0.961 . S
H318 C330 0.959 . S
H319 C333 0.929 . S
H320 C334 0.931 . S
H321 C336 0.930 . S
C322 H310 0.930 . S
C322 C323 1.399 . S
C322 C327 1.399 . S
C323 C322 1.399 . S
C323 C324 1.376 . S
C324 H311 0.930 . S
C324 C323 1.376 . S
C324 C325 1.388 . S
C325 H312 0.930 . S
C325 C324 1.388 . S
C325 C326 1.390 . S
C326 C325 1.390 . S
C326 C327 1.394 . S
C326 C332 1.465 . S
C327 C322 1.399 . S
C327 C326 1.394 . S
C327 C328 1.516 . S
C328 C327 1.516 . S
C328 C329 1.502 . S
C328 C330 1.561 . S
C328 C331 1.526 . S
C329 H313 0.959 . S
C329 H314 0.959 . S
C329 H315 0.961 . S
C329 C328 1.502 . S
C330 H316 0.960 . S
C330 H317 0.961 . S
C330 H318 0.959 . S
C330 C328 1.561 . S
C331 C328 1.526 . S
C331 C332 1.396 . S
C331 C336 1.390 . S
C332 C326 1.465 . S
C332 C331 1.396 . S
C332 C333 1.399 . S
C333 H319 0.929 . S
C333 C332 1.399 . S
C333 C334 1.385 . S
C334 H320 0.931 . S
C334 C333 1.385 . S
C334 C335 1.389 . S
C335 C334 1.389 . S
C335 C336 1.387 . S
C336 H321 0.930 . S
C336 C331 1.390 . S
C336 C335 1.387 . S
H337 C349 0.930 . S
H338 C351 0.930 . S
H339 C352 0.930 . S
H340 C356 0.959 . S
H341 C356 0.959 . S
H342 C356 0.961 . S
H343 C357 0.960 . S
H344 C357 0.961 . S
H345 C357 0.959 . S
H346 C360 0.929 . S
H347 C361 0.931 . S
H348 C363 0.930 . S
C349 H337 0.930 . S
C349 C350 1.399 . S
C349 C354 1.399 . S
C350 C349 1.399 . S
C350 C351 1.376 . S
C351 H338 0.930 . S
C351 C350 1.376 . S
C351 C352 1.388 . S
C352 H339 0.930 . S
C352 C351 1.388 . S
C352 C353 1.390 . S
C353 C352 1.390 . S
C353 C354 1.394 . S
C353 C359 1.465 . S
C354 C349 1.399 . S
C354 C353 1.394 . S
C354 C355 1.516 . S
C355 C354 1.516 . S
C355 C356 1.502 . S
C355 C357 1.561 . S
C355 C358 1.526 . S
C356 H340 0.959 . S
C356 H341 0.959 . S
C356 H342 0.961 . S
C356 C355 1.502 . S
C357 H343 0.960 . S
C357 H344 0.961 . S
C357 H345 0.959 . S
C357 C355 1.561 . S
C358 C355 1.526 . S
C358 C359 1.396 . S
C358 C363 1.390 . S
C359 C353 1.465 . S
C359 C358 1.396 . S
C359 C360 1.399 . S
C360 H346 0.929 . S
C360 C359 1.399 . S
C360 C361 1.385 . S
C361 H347 0.931 . S
C361 C360 1.385 . S
C361 C362 1.389 . S
C362 C361 1.389 . S
C362 C363 1.387 . S
C363 H348 0.930 . S
C363 C358 1.390 . S
C363 C362 1.387 . S
H364 C376 0.930 . S
H365 C378 0.930 . S
H366 C379 0.930 . S
H367 C383 0.959 . S
H368 C383 0.959 . S
H369 C383 0.961 . S
H370 C384 0.960 . S
H371 C384 0.961 . S
H372 C384 0.959 . S
H373 C387 0.929 . S
H374 C388 0.931 . S
H375 C390 0.930 . S
C376 H364 0.930 . S
C376 C377 1.399 . S
C376 C381 1.399 . S
C377 C376 1.399 . S
C377 C378 1.376 . S
C378 H365 0.930 . S
C378 C377 1.376 . S
C378 C379 1.388 . S
C379 H366 0.930 . S
C379 C378 1.388 . S
C379 C380 1.390 . S
C380 C379 1.390 . S
C380 C381 1.394 . S
C380 C386 1.465 . S
C381 C376 1.399 . S
C381 C380 1.394 . S
C381 C382 1.516 . S
C382 C381 1.516 . S
C382 C383 1.502 . S
C382 C384 1.561 . S
C382 C385 1.526 . S
C383 H367 0.959 . S
C383 H368 0.959 . S
C383 H369 0.961 . S
C383 C382 1.502 . S
C384 H370 0.960 . S
C384 H371 0.961 . S
C384 H372 0.959 . S
C384 C382 1.561 . S
C385 C382 1.526 . S
C385 C386 1.396 . S
C385 C390 1.390 . S
C386 C380 1.465 . S
C386 C385 1.396 . S
C386 C387 1.399 . S
C387 H373 0.929 . S
C387 C386 1.399 . S
C387 C388 1.385 . S
C388 H374 0.931 . S
C388 C387 1.385 . S
C388 C389 1.389 . S
C389 C388 1.389 . S
C389 C390 1.387 . S
C390 H375 0.930 . S
C390 C385 1.390 . S
C390 C389 1.387 . S
H391 C403 0.930 . S
H392 C405 0.930 . S
H393 C406 0.930 . S
H394 C410 0.959 . S
H395 C410 0.959 . S
H396 C410 0.961 . S
H397 C411 0.960 . S
H398 C411 0.961 . S
H399 C411 0.959 . S
H400 C414 0.929 . S
H401 C415 0.931 . S
H402 C417 0.930 . S
C403 H391 0.930 . S
C403 C404 1.399 . S
C403 C408 1.399 . S
C404 C403 1.399 . S
C404 C405 1.376 . S
C405 H392 0.930 . S
C405 C404 1.376 . S
C405 C406 1.388 . S
C406 H393 0.930 . S
C406 C405 1.388 . S
C406 C407 1.390 . S
C407 C406 1.390 . S
C407 C408 1.394 . S
C407 C413 1.465 . S
C408 C403 1.399 . S
C408 C407 1.394 . S
C408 C409 1.516 . S
C409 C408 1.516 . S
C409 C410 1.502 . S
C409 C411 1.561 . S
C409 C412 1.526 . S
C410 H394 0.959 . S
C410 H395 0.959 . S
C410 H396 0.961 . S
C410 C409 1.502 . S
C411 H397 0.960 . S
C411 H398 0.961 . S
C411 H399 0.959 . S
C411 C409 1.561 . S
C412 C409 1.526 . S
C412 C413 1.396 . S
C412 C417 1.390 . S
C413 C407 1.465 . S
C413 C412 1.396 . S
C413 C414 1.399 . S
C414 H400 0.929 . S
C414 C413 1.399 . S
C414 C415 1.385 . S
C415 H401 0.931 . S
C415 C414 1.385 . S
C415 C416 1.389 . S
C416 C415 1.389 . S
C416 C417 1.387 . S
C417 H402 0.930 . S
C417 C412 1.390 . S
C417 C416 1.387 . S
H418 C430 0.930 . S
H419 C432 0.930 . S
H420 C433 0.930 . S
H421 C437 0.959 . S
H422 C437 0.959 . S
H423 C437 0.961 . S
H424 C438 0.960 . S
H425 C438 0.961 . S
H426 C438 0.959 . S
H427 C441 0.929 . S
H428 C442 0.931 . S
H429 C444 0.930 . S
C430 H418 0.930 . S
C430 C431 1.399 1_665 S
C430 C435 1.399 1_655 S
C431 C430 1.399 1_445 S
C431 C432 1.376 . S
C432 H419 0.930 . S
C432 C431 1.376 . S
C432 C433 1.388 . S
C433 H420 0.930 . S
C433 C432 1.388 . S
C433 C434 1.390 . S
C434 C433 1.390 . S
C434 C435 1.394 1_545 S
C434 C440 1.465 . S
C435 C430 1.399 1_455 S
C435 C434 1.394 1_565 S
C435 C436 1.516 1_455 S
C436 C435 1.516 1_655 S
C436 C437 1.502 . S
C436 C438 1.561 1_655 S
C436 C439 1.526 . S
C437 H421 0.959 . S
C437 H422 0.959 . S
C437 H423 0.961 . S
C437 C436 1.502 . S
C438 H424 0.960 . S
C438 H425 0.961 . S
C438 H426 0.959 . S
C438 C436 1.561 1_455 S
C439 C436 1.526 . S
C439 C440 1.396 1_665 S
C439 C444 1.390 . S
C440 C434 1.465 . S
C440 C439 1.396 1_445 S
C440 C441 1.399 . S
C441 H427 0.929 . S
C441 C440 1.399 . S
C441 C442 1.385 . S
C442 H428 0.931 . S
C442 C441 1.385 . S
C442 C443 1.389 . S
C443 C442 1.389 . S
C443 C444 1.387 1_445 S
C444 H429 0.930 . S
C444 C439 1.390 . S
C444 C443 1.387 1_665 S
H445 C457 0.930 . S
H446 C459 0.930 . S
H447 C460 0.930 . S
H448 C464 0.959 . S
H449 C464 0.959 1_565 S
H450 C464 0.961 1_565 S
H451 C465 0.960 . S
H452 C465 0.961 . S
H453 C465 0.959 . S
H454 C468 0.929 . S
H455 C469 0.931 . S
H456 C471 0.930 . S
C457 H445 0.930 . S
C457 C458 1.399 1_565 S
C457 C462 1.399 . S
C458 C457 1.399 1_545 S
C458 C459 1.376 1_455 S
C459 H446 0.930 . S
C459 C458 1.376 1_655 S
C459 C460 1.388 . S
C460 H447 0.930 . S
C460 C459 1.388 . S
C460 C461 1.390 . S
C461 C460 1.390 . S
C461 C462 1.394 1_645 S
C461 C467 1.465 . S
C462 C457 1.399 . S
C462 C461 1.394 1_465 S
C462 C463 1.516 . S
C463 C462 1.516 . S
C463 C464 1.502 1_565 S
C463 C465 1.561 . S
C463 C466 1.526 . S
C464 H448 0.959 . S
C464 H449 0.959 1_545 S
C464 H450 0.961 1_545 S
C464 C463 1.502 1_545 S
C465 H451 0.960 . S
C465 H452 0.961 . S
C465 H453 0.959 . S
C465 C463 1.561 . S
C466 C463 1.526 . S
C466 C467 1.396 1_465 S
C466 C471 1.390 . S
C467 C461 1.465 . S
C467 C466 1.396 1_645 S
C467 C468 1.399 . S
C468 H454 0.929 . S
C468 C467 1.399 . S
C468 C469 1.385 . S
C469 H455 0.931 . S
C469 C468 1.385 . S
C469 C470 1.389 1_655 S
C470 C469 1.389 1_455 S
C470 C471 1.387 1_545 S
C471 H456 0.930 . S
C471 C466 1.390 . S
C471 C470 1.387 1_565 S
H472 C484 0.930 . S
H473 C486 0.930 . S
H474 C487 0.930 . S
H475 C491 0.959 . S
H476 C491 0.959 . S
H477 C491 0.961 . S
H478 C492 0.960 . S
H479 C492 0.961 . S
H480 C492 0.959 . S
H481 C495 0.929 . S
H482 C496 0.931 . S
H483 C498 0.930 . S
C484 H472 0.930 . S
C484 C485 1.399 . S
C484 C489 1.399 . S
C485 C484 1.399 . S
C485 C486 1.376 . S
C486 H473 0.930 . S
C486 C485 1.376 . S
C486 C487 1.388 . S
C487 H474 0.930 . S
C487 C486 1.388 . S
C487 C488 1.390 . S
C488 C487 1.390 . S
C488 C489 1.394 . S
C488 C494 1.465 . S
C489 C484 1.399 . S
C489 C488 1.394 . S
C489 C490 1.516 . S
C490 C489 1.516 . S
C490 C491 1.502 . S
C490 C492 1.561 . S
C490 C493 1.526 . S
C491 H475 0.959 . S
C491 H476 0.959 . S
C491 H477 0.961 . S
C491 C490 1.502 . S
C492 H478 0.960 . S
C492 H479 0.961 . S
C492 H480 0.959 . S
C492 C490 1.561 . S
C493 C490 1.526 . S
C493 C494 1.396 . S
C493 C498 1.390 . S
C494 C488 1.465 . S
C494 C493 1.396 . S
C494 C495 1.399 . S
C495 H481 0.929 . S
C495 C494 1.399 . S
C495 C496 1.385 . S
C496 H482 0.931 . S
C496 C495 1.385 . S
C496 C497 1.389 . S
C497 C496 1.389 . S
C497 C498 1.387 . S
C498 H483 0.930 . S
C498 C493 1.390 . S
C498 C497 1.387 . S
H499 C511 0.930 . S
H500 C513 0.930 . S
H501 C514 0.930 . S
H502 C518 0.959 . S
H503 C518 0.959 . S
H504 C518 0.961 . S
H505 C519 0.960 . S
H506 C519 0.961 . S
H507 C519 0.959 . S
H508 C522 0.929 . S
H509 C523 0.931 . S
H510 C525 0.930 . S
C511 H499 0.930 . S
C511 C512 1.399 . S
C511 C516 1.399 . S
C512 C511 1.399 . S
C512 C513 1.376 . S
C513 H500 0.930 . S
C513 C512 1.376 . S
C513 C514 1.388 . S
C514 H501 0.930 . S
C514 C513 1.388 . S
C514 C515 1.390 . S
C515 C514 1.390 . S
C515 C516 1.394 . S
C515 C521 1.465 . S
C516 C511 1.399 . S
C516 C515 1.394 . S
C516 C517 1.516 . S
C517 C516 1.516 . S
C517 C518 1.502 . S
C517 C519 1.561 . S
C517 C520 1.526 . S
C518 H502 0.959 . S
C518 H503 0.959 . S
C518 H504 0.961 . S
C518 C517 1.502 . S
C519 H505 0.960 . S
C519 H506 0.961 . S
C519 H507 0.959 . S
C519 C517 1.561 . S
C520 C517 1.526 . S
C520 C521 1.396 . S
C520 C525 1.390 . S
C521 C515 1.465 . S
C521 C520 1.396 . S
C521 C522 1.399 . S
C522 H508 0.929 . S
C522 C521 1.399 . S
C522 C523 1.385 . S
C523 H509 0.931 . S
C523 C522 1.385 . S
C523 C524 1.389 . S
C524 C523 1.389 . S
C524 C525 1.387 . S
C525 H510 0.930 . S
C525 C520 1.390 . S
C525 C524 1.387 . S
C227 C179 1.420 . S
C215 C21 1.465 . S
C242 C19 1.443 1_556 S
C254 C140 1.416 . S
C269 C18 1.386 . S
C281 C184 1.433 . S
C296 C20 1.429 1_556 S
C308 C145 1.407 . S
C323 C44 1.465 . S
C335 C101 1.421 . S
C350 C42 1.444 . S
C362 C62 1.416 . S
C389 C106 1.394 . S
C377 C41 1.431 . S
C416 C67 1.440 . S
C404 C43 1.435 . S
C431 C16 1.486 . S
C443 C47 1.485 1_445 S
C458 C17 1.444 . S
C470 C86 1.450 . S
C497 C125 1.485 . S
C485 C39 1.484 . S
C512 C40 1.453 . S
C524 C164 1.454 . S
