# Generated by pormake.
# Topology bpr, (3,3)-cn, num edge types: 1
# Building blocks:
#     Node 0, Type 0, BuildingBlock: WUSLED_clean_sbu_0, # of connection points: 3
#     Node 1, Type 0, BuildingBlock: WUSLED_clean_sbu_0, # of connection points: 3
#     Node 2, Type 0, BuildingBlock: WUSLED_clean_sbu_0, # of connection points: 3
#     Node 3, Type 0, BuildingBlock: WUSLED_clean_sbu_0, # of connection points: 3
#     Node 4, Type 0, BuildingBlock: WUSLED_clean_sbu_0, # of connection points: 3
#     Node 5, Type 0, BuildingBlock: WUSLED_clean_sbu_0, # of connection points: 3
#     Node 6, Type 0, BuildingBlock: WUSLED_clean_sbu_0, # of connection points: 3
#     Node 7, Type 0, BuildingBlock: WUSLED_clean_sbu_0, # of connection points: 3
#     Node 8, Type 0, BuildingBlock: WUSLED_clean_sbu_0, # of connection points: 3
#     Node 9, Type 0, BuildingBlock: WUSLED_clean_sbu_0, # of connection points: 3
#     Node 10, Type 0, BuildingBlock: WUSLED_clean_sbu_0, # of connection points: 3
#     Node 11, Type 0, BuildingBlock: WUSLED_clean_sbu_0, # of connection points: 3
#     Node 12, Type 0, BuildingBlock: WUSLED_clean_sbu_0, # of connection points: 3
#     Node 13, Type 0, BuildingBlock: WUSLED_clean_sbu_0, # of connection points: 3
#     Node 14, Type 0, BuildingBlock: WUSLED_clean_sbu_0, # of connection points: 3
#     Node 15, Type 0, BuildingBlock: WUSLED_clean_sbu_0, # of connection points: 3
#     Node 16, Type 0, BuildingBlock: WUSLED_clean_sbu_0, # of connection points: 3
#     Node 17, Type 0, BuildingBlock: WUSLED_clean_sbu_0, # of connection points: 3
#     Node 18, Type 0, BuildingBlock: WUSLED_clean_sbu_0, # of connection points: 3
#     Node 19, Type 0, BuildingBlock: WUSLED_clean_sbu_0, # of connection points: 3
#     Node 20, Type 0, BuildingBlock: WUSLED_clean_sbu_0, # of connection points: 3
#     Node 21, Type 0, BuildingBlock: WUSLED_clean_sbu_0, # of connection points: 3
#     Node 22, Type 0, BuildingBlock: WUSLED_clean_sbu_0, # of connection points: 3
#     Node 23, Type 0, BuildingBlock: WUSLED_clean_sbu_0, # of connection points: 3
#     Node 24, Type 0, BuildingBlock: WUSLED_clean_sbu_0, # of connection points: 3
#     Node 25, Type 0, BuildingBlock: WUSLED_clean_sbu_0, # of connection points: 3
#     Node 26, Type 0, BuildingBlock: WUSLED_clean_sbu_0, # of connection points: 3
#     Node 27, Type 0, BuildingBlock: WUSLED_clean_sbu_0, # of connection points: 3
#     Node 28, Type 0, BuildingBlock: WUSLED_clean_sbu_0, # of connection points: 3
#     Node 29, Type 0, BuildingBlock: WUSLED_clean_sbu_0, # of connection points: 3
#     Node 30, Type 0, BuildingBlock: WUSLED_clean_sbu_0, # of connection points: 3
#     Node 31, Type 0, BuildingBlock: WUSLED_clean_sbu_0, # of connection points: 3
#     Node 32, Type 0, BuildingBlock: WUSLED_clean_sbu_0, # of connection points: 3
#     Node 33, Type 0, BuildingBlock: WUSLED_clean_sbu_0, # of connection points: 3
#     Node 34, Type 0, BuildingBlock: WUSLED_clean_sbu_0, # of connection points: 3
#     Node 35, Type 0, BuildingBlock: WUSLED_clean_sbu_0, # of connection points: 3
#     Node 36, Type 0, BuildingBlock: WUSLED_clean_sbu_0, # of connection points: 3
#     Node 37, Type 0, BuildingBlock: WUSLED_clean_sbu_0, # of connection points: 3
#     Node 38, Type 0, BuildingBlock: WUSLED_clean_sbu_0, # of connection points: 3
#     Node 39, Type 0, BuildingBlock: WUSLED_clean_sbu_0, # of connection points: 3
#     Node 40, Type 0, BuildingBlock: WUSLED_clean_sbu_0, # of connection points: 3
#     Node 41, Type 0, BuildingBlock: WUSLED_clean_sbu_0, # of connection points: 3
#     Node 42, Type 0, BuildingBlock: WUSLED_clean_sbu_0, # of connection points: 3
#     Node 43, Type 0, BuildingBlock: WUSLED_clean_sbu_0, # of connection points: 3
#     Node 44, Type 0, BuildingBlock: WUSLED_clean_sbu_0, # of connection points: 3
#     Node 45, Type 0, BuildingBlock: WUSLED_clean_sbu_0, # of connection points: 3
#     Node 46, Type 0, BuildingBlock: WUSLED_clean_sbu_0, # of connection points: 3
#     Node 47, Type 0, BuildingBlock: WUSLED_clean_sbu_0, # of connection points: 3
#     Node 48, Type 1, BuildingBlock: KAKCAD_clean_linker_0, # of connection points: 3
#     Node 49, Type 1, BuildingBlock: KAKCAD_clean_linker_0, # of connection points: 3
#     Node 50, Type 1, BuildingBlock: KAKCAD_clean_linker_0, # of connection points: 3
#     Node 51, Type 1, BuildingBlock: KAKCAD_clean_linker_0, # of connection points: 3
#     Node 52, Type 1, BuildingBlock: KAKCAD_clean_linker_0, # of connection points: 3
#     Node 53, Type 1, BuildingBlock: KAKCAD_clean_linker_0, # of connection points: 3
#     Node 54, Type 1, BuildingBlock: KAKCAD_clean_linker_0, # of connection points: 3
#     Node 55, Type 1, BuildingBlock: KAKCAD_clean_linker_0, # of connection points: 3
#     Node 56, Type 1, BuildingBlock: KAKCAD_clean_linker_0, # of connection points: 3
#     Node 57, Type 1, BuildingBlock: KAKCAD_clean_linker_0, # of connection points: 3
#     Node 58, Type 1, BuildingBlock: KAKCAD_clean_linker_0, # of connection points: 3
#     Node 59, Type 1, BuildingBlock: KAKCAD_clean_linker_0, # of connection points: 3
#     Node 60, Type 1, BuildingBlock: KAKCAD_clean_linker_0, # of connection points: 3
#     Node 61, Type 1, BuildingBlock: KAKCAD_clean_linker_0, # of connection points: 3
#     Node 62, Type 1, BuildingBlock: KAKCAD_clean_linker_0, # of connection points: 3
#     Node 63, Type 1, BuildingBlock: KAKCAD_clean_linker_0, # of connection points: 3
#     Node 64, Type 1, BuildingBlock: KAKCAD_clean_linker_0, # of connection points: 3
#     Node 65, Type 1, BuildingBlock: KAKCAD_clean_linker_0, # of connection points: 3
#     Node 66, Type 1, BuildingBlock: KAKCAD_clean_linker_0, # of connection points: 3
#     Node 67, Type 1, BuildingBlock: KAKCAD_clean_linker_0, # of connection points: 3
#     Node 68, Type 1, BuildingBlock: KAKCAD_clean_linker_0, # of connection points: 3
#     Node 69, Type 1, BuildingBlock: KAKCAD_clean_linker_0, # of connection points: 3
#     Node 70, Type 1, BuildingBlock: KAKCAD_clean_linker_0, # of connection points: 3
#     Node 71, Type 1, BuildingBlock: KAKCAD_clean_linker_0, # of connection points: 3
#     Node 72, Type 1, BuildingBlock: KAKCAD_clean_linker_0, # of connection points: 3
#     Node 73, Type 1, BuildingBlock: KAKCAD_clean_linker_0, # of connection points: 3
#     Node 74, Type 1, BuildingBlock: KAKCAD_clean_linker_0, # of connection points: 3
#     Node 75, Type 1, BuildingBlock: KAKCAD_clean_linker_0, # of connection points: 3
#     Node 76, Type 1, BuildingBlock: KAKCAD_clean_linker_0, # of connection points: 3
#     Node 77, Type 1, BuildingBlock: KAKCAD_clean_linker_0, # of connection points: 3
#     Node 78, Type 1, BuildingBlock: KAKCAD_clean_linker_0, # of connection points: 3
#     Node 79, Type 1, BuildingBlock: KAKCAD_clean_linker_0, # of connection points: 3
#     Node 80, Type 1, BuildingBlock: KAKCAD_clean_linker_0, # of connection points: 3
#     Node 81, Type 1, BuildingBlock: KAKCAD_clean_linker_0, # of connection points: 3
#     Node 82, Type 1, BuildingBlock: KAKCAD_clean_linker_0, # of connection points: 3
#     Node 83, Type 1, BuildingBlock: KAKCAD_clean_linker_0, # of connection points: 3
#     Node 84, Type 1, BuildingBlock: KAKCAD_clean_linker_0, # of connection points: 3
#     Node 85, Type 1, BuildingBlock: KAKCAD_clean_linker_0, # of connection points: 3
#     Node 86, Type 1, BuildingBlock: KAKCAD_clean_linker_0, # of connection points: 3
#     Node 87, Type 1, BuildingBlock: KAKCAD_clean_linker_0, # of connection points: 3
#     Node 88, Type 1, BuildingBlock: KAKCAD_clean_linker_0, # of connection points: 3
#     Node 89, Type 1, BuildingBlock: KAKCAD_clean_linker_0, # of connection points: 3
#     Node 90, Type 1, BuildingBlock: KAKCAD_clean_linker_0, # of connection points: 3
#     Node 91, Type 1, BuildingBlock: KAKCAD_clean_linker_0, # of connection points: 3
#     Node 92, Type 1, BuildingBlock: KAKCAD_clean_linker_0, # of connection points: 3
#     Node 93, Type 1, BuildingBlock: KAKCAD_clean_linker_0, # of connection points: 3
#     Node 94, Type 1, BuildingBlock: KAKCAD_clean_linker_0, # of connection points: 3
#     Node 95, Type 1, BuildingBlock: KAKCAD_clean_linker_0, # of connection points: 3
#     Edge 96, Type (0, 1), BuildingBlock: ZUJKAS_clean_linker_0, # of connection points: 2
#     Edge 97, Type (0, 1), BuildingBlock: ZUJKAS_clean_linker_0, # of connection points: 2
#     Edge 98, Type (0, 1), BuildingBlock: ZUJKAS_clean_linker_0, # of connection points: 2
#     Edge 99, Type (0, 1), BuildingBlock: ZUJKAS_clean_linker_0, # of connection points: 2
#     Edge 100, Type (0, 1), BuildingBlock: ZUJKAS_clean_linker_0, # of connection points: 2
#     Edge 101, Type (0, 1), BuildingBlock: ZUJKAS_clean_linker_0, # of connection points: 2
#     Edge 102, Type (0, 1), BuildingBlock: ZUJKAS_clean_linker_0, # of connection points: 2
#     Edge 103, Type (0, 1), BuildingBlock: ZUJKAS_clean_linker_0, # of connection points: 2
#     Edge 104, Type (0, 1), BuildingBlock: ZUJKAS_clean_linker_0, # of connection points: 2
#     Edge 105, Type (0, 1), BuildingBlock: ZUJKAS_clean_linker_0, # of connection points: 2
#     Edge 106, Type (0, 1), BuildingBlock: ZUJKAS_clean_linker_0, # of connection points: 2
#     Edge 107, Type (0, 1), BuildingBlock: ZUJKAS_clean_linker_0, # of connection points: 2
#     Edge 108, Type (0, 1), BuildingBlock: ZUJKAS_clean_linker_0, # of connection points: 2
#     Edge 109, Type (0, 1), BuildingBlock: ZUJKAS_clean_linker_0, # of connection points: 2
#     Edge 110, Type (0, 1), BuildingBlock: ZUJKAS_clean_linker_0, # of connection points: 2
#     Edge 111, Type (0, 1), BuildingBlock: ZUJKAS_clean_linker_0, # of connection points: 2
#     Edge 112, Type (0, 1), BuildingBlock: ZUJKAS_clean_linker_0, # of connection points: 2
#     Edge 113, Type (0, 1), BuildingBlock: ZUJKAS_clean_linker_0, # of connection points: 2
#     Edge 114, Type (0, 1), BuildingBlock: ZUJKAS_clean_linker_0, # of connection points: 2
#     Edge 115, Type (0, 1), BuildingBlock: ZUJKAS_clean_linker_0, # of connection points: 2
#     Edge 116, Type (0, 1), BuildingBlock: ZUJKAS_clean_linker_0, # of connection points: 2
#     Edge 117, Type (0, 1), BuildingBlock: ZUJKAS_clean_linker_0, # of connection points: 2
#     Edge 118, Type (0, 1), BuildingBlock: ZUJKAS_clean_linker_0, # of connection points: 2
#     Edge 119, Type (0, 1), BuildingBlock: ZUJKAS_clean_linker_0, # of connection points: 2
#     Edge 120, Type (0, 1), BuildingBlock: ZUJKAS_clean_linker_0, # of connection points: 2
#     Edge 121, Type (0, 1), BuildingBlock: ZUJKAS_clean_linker_0, # of connection points: 2
#     Edge 122, Type (0, 1), BuildingBlock: ZUJKAS_clean_linker_0, # of connection points: 2
#     Edge 123, Type (0, 1), BuildingBlock: ZUJKAS_clean_linker_0, # of connection points: 2
#     Edge 124, Type (0, 1), BuildingBlock: ZUJKAS_clean_linker_0, # of connection points: 2
#     Edge 125, Type (0, 1), BuildingBlock: ZUJKAS_clean_linker_0, # of connection points: 2
#     Edge 126, Type (0, 1), BuildingBlock: ZUJKAS_clean_linker_0, # of connection points: 2
#     Edge 127, Type (0, 1), BuildingBlock: ZUJKAS_clean_linker_0, # of connection points: 2
#     Edge 128, Type (0, 1), BuildingBlock: ZUJKAS_clean_linker_0, # of connection points: 2
#     Edge 129, Type (0, 1), BuildingBlock: ZUJKAS_clean_linker_0, # of connection points: 2
#     Edge 130, Type (0, 1), BuildingBlock: ZUJKAS_clean_linker_0, # of connection points: 2
#     Edge 131, Type (0, 1), BuildingBlock: ZUJKAS_clean_linker_0, # of connection points: 2
#     Edge 132, Type (0, 1), BuildingBlock: ZUJKAS_clean_linker_0, # of connection points: 2
#     Edge 133, Type (0, 1), BuildingBlock: ZUJKAS_clean_linker_0, # of connection points: 2
#     Edge 134, Type (0, 1), BuildingBlock: ZUJKAS_clean_linker_0, # of connection points: 2
#     Edge 135, Type (0, 1), BuildingBlock: ZUJKAS_clean_linker_0, # of connection points: 2
#     Edge 136, Type (0, 1), BuildingBlock: ZUJKAS_clean_linker_0, # of connection points: 2
#     Edge 137, Type (0, 1), BuildingBlock: ZUJKAS_clean_linker_0, # of connection points: 2
#     Edge 138, Type (0, 1), BuildingBlock: ZUJKAS_clean_linker_0, # of connection points: 2
#     Edge 139, Type (0, 1), BuildingBlock: ZUJKAS_clean_linker_0, # of connection points: 2
#     Edge 140, Type (0, 1), BuildingBlock: ZUJKAS_clean_linker_0, # of connection points: 2
#     Edge 141, Type (0, 1), BuildingBlock: ZUJKAS_clean_linker_0, # of connection points: 2
#     Edge 142, Type (0, 1), BuildingBlock: ZUJKAS_clean_linker_0, # of connection points: 2
#     Edge 143, Type (0, 1), BuildingBlock: ZUJKAS_clean_linker_0, # of connection points: 2
#     Edge 144, Type (0, 1), BuildingBlock: ZUJKAS_clean_linker_0, # of connection points: 2
#     Edge 145, Type (0, 1), BuildingBlock: ZUJKAS_clean_linker_0, # of connection points: 2
#     Edge 146, Type (0, 1), BuildingBlock: ZUJKAS_clean_linker_0, # of connection points: 2
#     Edge 147, Type (0, 1), BuildingBlock: ZUJKAS_clean_linker_0, # of connection points: 2
#     Edge 148, Type (0, 1), BuildingBlock: ZUJKAS_clean_linker_0, # of connection points: 2
#     Edge 149, Type (0, 1), BuildingBlock: ZUJKAS_clean_linker_0, # of connection points: 2
#     Edge 150, Type (0, 1), BuildingBlock: ZUJKAS_clean_linker_0, # of connection points: 2
#     Edge 151, Type (0, 1), BuildingBlock: ZUJKAS_clean_linker_0, # of connection points: 2
#     Edge 152, Type (0, 1), BuildingBlock: ZUJKAS_clean_linker_0, # of connection points: 2
#     Edge 153, Type (0, 1), BuildingBlock: ZUJKAS_clean_linker_0, # of connection points: 2
#     Edge 154, Type (0, 1), BuildingBlock: ZUJKAS_clean_linker_0, # of connection points: 2
#     Edge 155, Type (0, 1), BuildingBlock: ZUJKAS_clean_linker_0, # of connection points: 2
#     Edge 156, Type (0, 1), BuildingBlock: ZUJKAS_clean_linker_0, # of connection points: 2
#     Edge 157, Type (0, 1), BuildingBlock: ZUJKAS_clean_linker_0, # of connection points: 2
#     Edge 158, Type (0, 1), BuildingBlock: ZUJKAS_clean_linker_0, # of connection points: 2
#     Edge 159, Type (0, 1), BuildingBlock: ZUJKAS_clean_linker_0, # of connection points: 2
#     Edge 160, Type (0, 1), BuildingBlock: ZUJKAS_clean_linker_0, # of connection points: 2
#     Edge 161, Type (0, 1), BuildingBlock: ZUJKAS_clean_linker_0, # of connection points: 2
#     Edge 162, Type (0, 1), BuildingBlock: ZUJKAS_clean_linker_0, # of connection points: 2
#     Edge 163, Type (0, 1), BuildingBlock: ZUJKAS_clean_linker_0, # of connection points: 2
#     Edge 164, Type (0, 1), BuildingBlock: ZUJKAS_clean_linker_0, # of connection points: 2
#     Edge 165, Type (0, 1), BuildingBlock: ZUJKAS_clean_linker_0, # of connection points: 2
#     Edge 166, Type (0, 1), BuildingBlock: ZUJKAS_clean_linker_0, # of connection points: 2
#     Edge 167, Type (0, 1), BuildingBlock: ZUJKAS_clean_linker_0, # of connection points: 2
#     Edge 168, Type (0, 1), BuildingBlock: ZUJKAS_clean_linker_0, # of connection points: 2
#     Edge 169, Type (0, 1), BuildingBlock: ZUJKAS_clean_linker_0, # of connection points: 2
#     Edge 170, Type (0, 1), BuildingBlock: ZUJKAS_clean_linker_0, # of connection points: 2
#     Edge 171, Type (0, 1), BuildingBlock: ZUJKAS_clean_linker_0, # of connection points: 2
#     Edge 172, Type (0, 1), BuildingBlock: ZUJKAS_clean_linker_0, # of connection points: 2
#     Edge 173, Type (0, 1), BuildingBlock: ZUJKAS_clean_linker_0, # of connection points: 2
#     Edge 174, Type (0, 1), BuildingBlock: ZUJKAS_clean_linker_0, # of connection points: 2
#     Edge 175, Type (0, 1), BuildingBlock: ZUJKAS_clean_linker_0, # of connection points: 2
#     Edge 176, Type (0, 1), BuildingBlock: ZUJKAS_clean_linker_0, # of connection points: 2
#     Edge 177, Type (0, 1), BuildingBlock: ZUJKAS_clean_linker_0, # of connection points: 2
#     Edge 178, Type (0, 1), BuildingBlock: ZUJKAS_clean_linker_0, # of connection points: 2
#     Edge 179, Type (0, 1), BuildingBlock: ZUJKAS_clean_linker_0, # of connection points: 2
#     Edge 180, Type (0, 1), BuildingBlock: ZUJKAS_clean_linker_0, # of connection points: 2
#     Edge 181, Type (0, 1), BuildingBlock: ZUJKAS_clean_linker_0, # of connection points: 2
#     Edge 182, Type (0, 1), BuildingBlock: ZUJKAS_clean_linker_0, # of connection points: 2
#     Edge 183, Type (0, 1), BuildingBlock: ZUJKAS_clean_linker_0, # of connection points: 2
#     Edge 184, Type (0, 1), BuildingBlock: ZUJKAS_clean_linker_0, # of connection points: 2
#     Edge 185, Type (0, 1), BuildingBlock: ZUJKAS_clean_linker_0, # of connection points: 2
#     Edge 186, Type (0, 1), BuildingBlock: ZUJKAS_clean_linker_0, # of connection points: 2
#     Edge 187, Type (0, 1), BuildingBlock: ZUJKAS_clean_linker_0, # of connection points: 2
#     Edge 188, Type (0, 1), BuildingBlock: ZUJKAS_clean_linker_0, # of connection points: 2
#     Edge 189, Type (0, 1), BuildingBlock: ZUJKAS_clean_linker_0, # of connection points: 2
#     Edge 190, Type (0, 1), BuildingBlock: ZUJKAS_clean_linker_0, # of connection points: 2
#     Edge 191, Type (0, 1), BuildingBlock: ZUJKAS_clean_linker_0, # of connection points: 2
#     Edge 192, Type (0, 1), BuildingBlock: ZUJKAS_clean_linker_0, # of connection points: 2
#     Edge 193, Type (0, 1), BuildingBlock: ZUJKAS_clean_linker_0, # of connection points: 2
#     Edge 194, Type (0, 1), BuildingBlock: ZUJKAS_clean_linker_0, # of connection points: 2
#     Edge 195, Type (0, 1), BuildingBlock: ZUJKAS_clean_linker_0, # of connection points: 2
#     Edge 196, Type (0, 1), BuildingBlock: ZUJKAS_clean_linker_0, # of connection points: 2
#     Edge 197, Type (0, 1), BuildingBlock: ZUJKAS_clean_linker_0, # of connection points: 2
#     Edge 198, Type (0, 1), BuildingBlock: ZUJKAS_clean_linker_0, # of connection points: 2
#     Edge 199, Type (0, 1), BuildingBlock: ZUJKAS_clean_linker_0, # of connection points: 2
#     Edge 200, Type (0, 1), BuildingBlock: ZUJKAS_clean_linker_0, # of connection points: 2
#     Edge 201, Type (0, 1), BuildingBlock: ZUJKAS_clean_linker_0, # of connection points: 2
#     Edge 202, Type (0, 1), BuildingBlock: ZUJKAS_clean_linker_0, # of connection points: 2
#     Edge 203, Type (0, 1), BuildingBlock: ZUJKAS_clean_linker_0, # of connection points: 2
#     Edge 204, Type (0, 1), BuildingBlock: ZUJKAS_clean_linker_0, # of connection points: 2
#     Edge 205, Type (0, 1), BuildingBlock: ZUJKAS_clean_linker_0, # of connection points: 2
#     Edge 206, Type (0, 1), BuildingBlock: ZUJKAS_clean_linker_0, # of connection points: 2
#     Edge 207, Type (0, 1), BuildingBlock: ZUJKAS_clean_linker_0, # of connection points: 2
#     Edge 208, Type (0, 1), BuildingBlock: ZUJKAS_clean_linker_0, # of connection points: 2
#     Edge 209, Type (0, 1), BuildingBlock: ZUJKAS_clean_linker_0, # of connection points: 2
#     Edge 210, Type (0, 1), BuildingBlock: ZUJKAS_clean_linker_0, # of connection points: 2
#     Edge 211, Type (0, 1), BuildingBlock: ZUJKAS_clean_linker_0, # of connection points: 2
#     Edge 212, Type (0, 1), BuildingBlock: ZUJKAS_clean_linker_0, # of connection points: 2
#     Edge 213, Type (0, 1), BuildingBlock: ZUJKAS_clean_linker_0, # of connection points: 2
#     Edge 214, Type (0, 1), BuildingBlock: ZUJKAS_clean_linker_0, # of connection points: 2
#     Edge 215, Type (0, 1), BuildingBlock: ZUJKAS_clean_linker_0, # of connection points: 2
#     Edge 216, Type (0, 1), BuildingBlock: ZUJKAS_clean_linker_0, # of connection points: 2
#     Edge 217, Type (0, 1), BuildingBlock: ZUJKAS_clean_linker_0, # of connection points: 2
#     Edge 218, Type (0, 1), BuildingBlock: ZUJKAS_clean_linker_0, # of connection points: 2
#     Edge 219, Type (0, 1), BuildingBlock: ZUJKAS_clean_linker_0, # of connection points: 2
#     Edge 220, Type (0, 1), BuildingBlock: ZUJKAS_clean_linker_0, # of connection points: 2
#     Edge 221, Type (0, 1), BuildingBlock: ZUJKAS_clean_linker_0, # of connection points: 2
#     Edge 222, Type (0, 1), BuildingBlock: ZUJKAS_clean_linker_0, # of connection points: 2
#     Edge 223, Type (0, 1), BuildingBlock: ZUJKAS_clean_linker_0, # of connection points: 2
#     Edge 224, Type (0, 1), BuildingBlock: ZUJKAS_clean_linker_0, # of connection points: 2
#     Edge 225, Type (0, 1), BuildingBlock: ZUJKAS_clean_linker_0, # of connection points: 2
#     Edge 226, Type (0, 1), BuildingBlock: ZUJKAS_clean_linker_0, # of connection points: 2
#     Edge 227, Type (0, 1), BuildingBlock: ZUJKAS_clean_linker_0, # of connection points: 2
#     Edge 228, Type (0, 1), BuildingBlock: ZUJKAS_clean_linker_0, # of connection points: 2
#     Edge 229, Type (0, 1), BuildingBlock: ZUJKAS_clean_linker_0, # of connection points: 2
#     Edge 230, Type (0, 1), BuildingBlock: ZUJKAS_clean_linker_0, # of connection points: 2
#     Edge 231, Type (0, 1), BuildingBlock: ZUJKAS_clean_linker_0, # of connection points: 2
#     Edge 232, Type (0, 1), BuildingBlock: ZUJKAS_clean_linker_0, # of connection points: 2
#     Edge 233, Type (0, 1), BuildingBlock: ZUJKAS_clean_linker_0, # of connection points: 2
#     Edge 234, Type (0, 1), BuildingBlock: ZUJKAS_clean_linker_0, # of connection points: 2
#     Edge 235, Type (0, 1), BuildingBlock: ZUJKAS_clean_linker_0, # of connection points: 2
#     Edge 236, Type (0, 1), BuildingBlock: ZUJKAS_clean_linker_0, # of connection points: 2
#     Edge 237, Type (0, 1), BuildingBlock: ZUJKAS_clean_linker_0, # of connection points: 2
#     Edge 238, Type (0, 1), BuildingBlock: ZUJKAS_clean_linker_0, # of connection points: 2
#     Edge 239, Type (0, 1), BuildingBlock: ZUJKAS_clean_linker_0, # of connection points: 2
# Relax obj value: 0.091
# Max RMSD: 0.078
# Mean RMSD: 0.073
data_MOF--net-bpr--node1-WUSLED_clean_sbu_0--node2-KAKCAD_clean_linker_0--edge1-ZUJKAS_clean_linker_0
_symmetry_space_group_name_H-M    P1
_symmetry_Int_Tables_number       1
_symmetry_cell_setting            triclinic
loop_
_symmetry_equiv_pos_as_xyz
'x, y, z'
_cell_length_a     148.90611
_cell_length_b     149.20301
_cell_length_c     149.94738
_cell_angle_alpha  90.501174
_cell_angle_beta   90.133788
_cell_angle_gamma 90.077427
loop_
_atom_site_label
_atom_site_type_symbol
_atom_site_fract_x
_atom_site_fract_y
_atom_site_fract_z
_atom_type_partial_charge
C0 C 0.01058 0.37781 0.26894 0.0
C1 C 0.01203 0.37758 0.27818 0.0
C2 C 0.99688 0.38306 0.28082 0.0
C3 C 1.00526 0.38019 0.28406 0.0
C4 C 0.99544 0.38322 0.27154 0.0
C5 C 1.00225 0.38061 0.26564 0.0
U6 U 0.03421 0.3697 0.26614 0.0
O7 O 0.04052 0.36031 0.25667 0.0
O8 O 0.04525 0.37426 0.25758 0.0
C9 C 0.04576 0.36654 0.25333 0.0
C10 C 0.01788 0.37533 0.26284 0.0
C11 C 0.04614 0.3671 0.24355 0.0
C12 C 0.03943 0.36544 0.22882 0.0
C13 C 0.03874 0.36491 0.23812 0.0
C14 C 0.05483 0.37049 0.23034 0.0
C15 C 0.04748 0.36828 0.22484 0.0
C16 C 0.05417 0.36989 0.23959 0.0
C17 C 0.04744 0.36508 0.28738 0.0
C18 C 0.06304 0.36035 0.28701 0.0
C19 C 0.05574 0.36331 0.30117 0.0
C20 C 0.0478 0.36543 0.2967 0.0
C21 C 0.06347 0.3608 0.29638 0.0
C22 C 0.05508 0.3625 0.28254 0.0
C23 C 0.03914 0.36767 0.28281 0.0
O24 O 0.02488 0.38069 0.26319 0.0
O25 O 0.02007 0.36679 0.26287 0.0
O26 O 0.0352 0.36131 0.2781 0.0
O27 O 0.0395 0.37538 0.27866 0.0
H28 H 0.01846 0.37547 0.28084 0.0
H29 H 0.00666 0.38013 0.29115 0.0
H30 H 0.98903 0.3853 0.26883 0.0
H31 H 1.00103 0.38082 0.25852 0.0
H32 H 0.03364 0.36375 0.22475 0.0
H33 H 0.03245 0.36278 0.24105 0.0
H34 H 0.06117 0.37256 0.22747 0.0
H35 H 0.05995 0.37159 0.24367 0.0
H36 H 0.06889 0.35852 0.28314 0.0
H37 H 0.05582 0.36358 0.30839 0.0
H38 H 0.04195 0.3674 0.30053 0.0
H39 H 0.0549 0.36224 0.27532 0.0
C40 C 0.87208 0.74482 0.53084 0.0
C41 C 0.87043 0.7427 0.53978 0.0
C42 C 0.87099 0.72679 0.53618 0.0
C43 C 0.8699 0.73378 0.54243 0.0
C44 C 0.87247 0.72894 0.52717 0.0
C45 C 0.87304 0.7379 0.52453 0.0
U46 U 0.87038 0.76903 0.53743 0.0
O47 O 0.86538 0.78093 0.53044 0.0
O48 O 0.87932 0.78051 0.53522 0.0
C49 C 0.87323 0.78497 0.53073 0.0
C50 C 0.87294 0.75424 0.52824 0.0
C51 C 0.87632 0.78895 0.52238 0.0
C52 C 0.88181 0.78766 0.50718 0.0
C53 C 0.8786 0.78364 0.51495 0.0
C54 C 0.88042 0.80229 0.51421 0.0
C55 C 0.88283 0.79704 0.50675 0.0
C56 C 0.87721 0.79828 0.52194 0.0
C57 C 0.86332 0.77472 0.561 0.0
C58 C 0.86346 0.79023 0.56601 0.0
C59 C 0.85861 0.77853 0.57604 0.0
C60 C 0.86012 0.77211 0.56936 0.0
C61 C 0.86031 0.78766 0.57445 0.0
C62 C 0.86494 0.78381 0.55934 0.0
C63 C 0.8651 0.76796 0.55407 0.0
O64 O 0.86536 0.75875 0.52805 0.0
O65 O 0.87946 0.75862 0.53229 0.0
O66 O 0.87355 0.76733 0.55164 0.0
O67 O 0.8595 0.768 0.54728 0.0
H68 H 0.86961 0.74797 0.54473 0.0
H69 H 0.86861 0.73235 0.54938 0.0
H70 H 0.87338 0.72369 0.52222 0.0
H71 H 0.87431 0.73944 0.5176 0.0
H72 H 0.88366 0.78344 0.50157 0.0
H73 H 0.87797 0.77641 0.51521 0.0
H74 H 0.88097 0.80953 0.51405 0.0
H75 H 0.87545 0.80246 0.52761 0.0
H76 H 0.86471 0.79721 0.56453 0.0
H77 H 0.85627 0.77633 0.5825 0.0
H78 H 0.85886 0.7651 0.57074 0.0
H79 H 0.86739 0.78594 0.55289 0.0
C80 C 0.48286 0.63612 0.73895 0.0
C81 C 0.47379 0.63664 0.73651 0.0
C82 C 0.47796 0.63766 0.72085 0.0
C83 C 0.47135 0.63737 0.72755 0.0
C84 C 0.48706 0.63717 0.72336 0.0
C85 C 0.48949 0.63641 0.73235 0.0
U86 U 0.47619 0.63796 0.76309 0.0
O87 O 0.47879 0.62929 0.77455 0.0
O88 O 0.48335 0.6433 0.77486 0.0
C89 C 0.48341 0.63549 0.77885 0.0
C90 C 0.48537 0.63538 0.7484 0.0
C91 C 0.49208 0.63264 0.78255 0.0
C92 C 0.50569 0.62368 0.78184 0.0
C93 C 0.49773 0.6267 0.77791 0.0
C94 C 0.50257 0.63274 0.79497 0.0
C95 C 0.50816 0.62663 0.79045 0.0
C96 C 0.4946 0.6357 0.79105 0.0
C97 C 0.45233 0.6449 0.76859 0.0
C98 C 0.4471 0.645 0.78391 0.0
C99 C 0.4372 0.64981 0.77202 0.0
C100 C 0.44399 0.64816 0.7658 0.0
C101 C 0.43866 0.64822 0.78115 0.0
C102 C 0.45388 0.64337 0.77768 0.0
C103 C 0.45936 0.64302 0.762 0.0
O104 O 0.48547 0.643 0.75287 0.0
O105 O 0.48136 0.62887 0.75271 0.0
O106 O 0.4619 0.6346 0.76148 0.0
O107 O 0.46613 0.64869 0.76203 0.0
H108 H 0.46858 0.63645 0.74153 0.0
H109 H 0.46428 0.63757 0.72587 0.0
H110 H 0.49232 0.63749 0.71839 0.0
H111 H 0.49653 0.63607 0.73414 0.0
H112 H 0.50991 0.61905 0.77817 0.0
H113 H 0.49593 0.6243 0.7713 0.0
H114 H 0.50422 0.63505 0.80164 0.0
H115 H 0.49031 0.64027 0.79474 0.0
H116 H 0.44841 0.64359 0.79086 0.0
H117 H 0.43082 0.65239 0.7697 0.0
H118 H 0.44271 0.64941 0.7588 0.0
H119 H 0.4603 0.64083 0.77993 0.0
C120 C 0.63899 0.2687 0.03343 0.0
C121 C 0.64351 0.27118 0.04129 0.0
C122 C 0.64026 0.28689 0.03852 0.0
C123 C 0.64417 0.28019 0.04379 0.0
C124 C 0.63584 0.28437 0.03057 0.0
C125 C 0.6352 0.27533 0.02805 0.0
U126 U 0.64032 0.24467 0.04054 0.0
O127 O 0.63123 0.23323 0.03837 0.0
O128 O 0.64521 0.23249 0.03378 0.0
C129 C 0.63731 0.22856 0.03403 0.0
C130 C 0.63788 0.25917 0.03112 0.0
C131 C 0.63428 0.22431 0.02569 0.0
C132 C 0.62969 0.22502 0.01016 0.0
C133 C 0.63257 0.22932 0.018 0.0
C134 C 0.63019 0.21072 0.01769 0.0
C135 C 0.62851 0.21565 0.00991 0.0
C136 C 0.63306 0.21501 0.02549 0.0
C137 C 0.64753 0.23947 0.06408 0.0
C138 C 0.6497 0.22399 0.06844 0.0
C139 C 0.64947 0.23575 0.07969 0.0
C140 C 0.64814 0.24214 0.07304 0.0
C141 C 0.65021 0.2266 0.07747 0.0
C142 C 0.64834 0.23037 0.06181 0.0
C143 C 0.64572 0.24612 0.05715 0.0
O144 O 0.64536 0.25449 0.03091 0.0
O145 O 0.63135 0.25512 0.03538 0.0
O146 O 0.63725 0.24673 0.05476 0.0
O147 O 0.65127 0.24597 0.05034 0.0
H148 H 0.64645 0.26613 0.04554 0.0
H149 H 0.64774 0.28189 0.04988 0.0
H150 H 0.63267 0.28936 0.02641 0.0
H151 H 0.63163 0.27352 0.022 0.0
H152 H 0.62851 0.229 1.00427 0.0
H153 H 0.63348 0.23653 0.01807 0.0
H154 H 0.62919 0.20353 0.01779 0.0
H155 H 0.6343 0.21106 0.0314 0.0
H156 H 0.65038 0.21703 0.06648 0.0
H157 H 0.64972 0.23798 0.08658 0.0
H158 H 0.64746 0.24914 0.0749 0.0
H159 H 0.64785 0.22819 0.05492 0.0
C160 C 0.01125 0.63166 0.24291 0.0
C161 C 0.01266 0.63143 0.23367 0.0
C162 C 0.99736 0.62615 0.23129 0.0
C163 C 0.00578 0.62869 0.22791 0.0
C164 C 0.99594 0.62652 0.24057 0.0
C165 C 1.00286 0.62923 0.24634 0.0
U166 U 0.03499 0.63969 0.24547 0.0
O167 O 0.04145 0.64918 0.25479 0.0
O168 O 0.04605 0.63519 0.25407 0.0
C169 C 0.04667 0.64297 0.2582 0.0
C170 C 0.01864 0.63423 0.24891 0.0
C171 C 0.04714 0.64256 0.26799 0.0
C172 C 0.04049 0.64421 0.28271 0.0
C173 C 0.03974 0.64466 0.27341 0.0
C174 C 0.05597 0.63944 0.28121 0.0
C175 C 0.04862 0.64156 0.2867 0.0
C176 C 0.05523 0.63995 0.27196 0.0
C177 C 0.04819 0.64381 0.22419 0.0
C178 C 0.0638 0.64856 0.22455 0.0
C179 C 0.0566 0.64502 0.21043 0.0
C180 C 0.04862 0.64307 0.21489 0.0
C181 C 0.0643 0.64773 0.21521 0.0
C182 C 0.0558 0.64659 0.22901 0.0
C183 C 0.03986 0.64138 0.22877 0.0
O184 O 0.02559 0.62882 0.24865 0.0
O185 O 0.0209 0.64275 0.2487 0.0
O186 O 0.03601 0.64785 0.23337 0.0
O187 O 0.04014 0.63374 0.23305 0.0
H188 H 0.0191 0.63332 0.23091 0.0
H189 H 0.00705 0.62862 0.2208 0.0
H190 H 0.98955 0.62454 0.24337 0.0
H191 H 1.00168 0.62936 0.25347 0.0
H192 H 0.03471 0.64583 0.28678 0.0
H193 H 0.0334 0.64664 0.27047 0.0
H194 H 0.06236 0.63751 0.28408 0.0
H195 H 0.06102 0.63832 0.26788 0.0
H196 H 0.06963 0.65056 0.22842 0.0
H197 H 0.05673 0.64444 0.20323 0.0
H198 H 0.0428 0.64094 0.21108 0.0
H199 H 0.05557 0.64714 0.23622 0.0
C200 C 0.6392 0.74214 0.47667 0.0
C201 C 0.64348 0.73989 0.46864 0.0
C202 C 0.64058 0.72406 0.47122 0.0
C203 C 0.64419 0.73094 0.46596 0.0
C204 C 0.63642 0.72635 0.47935 0.0
C205 C 0.63573 0.73533 0.48204 0.0
U206 U 0.64056 0.7665 0.47045 0.0
O207 O 0.63124 0.77769 0.47267 0.0
O208 O 0.64499 0.77845 0.47797 0.0
C209 C 0.63697 0.78214 0.47773 0.0
C210 C 0.63799 0.75158 0.4792 0.0
C211 C 0.63352 0.7858 0.48626 0.0
C212 C 0.62109 0.78955 0.49614 0.0
C213 C 0.62434 0.78535 0.48843 0.0
C214 C 0.63613 0.79458 0.49978 0.0
C215 C 0.62694 0.79429 0.50185 0.0
C216 C 0.63938 0.79043 0.49205 0.0
C217 C 0.64852 0.77253 0.44728 0.0
C218 C 0.64803 0.78795 0.4423 0.0
C219 C 0.6539 0.77635 0.43253 0.0
C220 C 0.6523 0.76996 0.4391 0.0
C221 C 0.65174 0.78542 0.43403 0.0
C222 C 0.64645 0.78156 0.44887 0.0
C223 C 0.64659 0.76575 0.45404 0.0
O224 O 0.64543 0.75631 0.47981 0.0
O225 O 0.63156 0.75571 0.47485 0.0
O226 O 0.63806 0.76488 0.45608 0.0
O227 O 0.65189 0.76591 0.46106 0.0
H228 H 0.64619 0.74508 0.4644 0.0
H229 H 0.64755 0.7294 0.45973 0.0
H230 H 0.63348 0.72123 0.48351 0.0
H231 H 0.63235 0.73697 0.48824 0.0
H232 H 0.61398 0.78914 0.4976 0.0
H233 H 0.61962 0.78189 0.4841 0.0
H234 H 0.64079 0.79829 0.50398 0.0
H235 H 0.64645 0.79101 0.49049 0.0
H236 H 0.64617 0.79485 0.44364 0.0
H237 H 0.65686 0.77419 0.42628 0.0
H238 H 0.65396 0.763 0.43779 0.0
H239 H 0.6435 0.78364 0.45515 0.0
C240 C 0.50167 0.3798 0.74293 0.0
C241 C 0.50024 0.37977 0.73368 0.0
C242 C 0.51547 0.38516 0.73128 0.0
C243 C 0.50706 0.38244 0.72791 0.0
C244 C 0.51688 0.38516 0.74057 0.0
C245 C 0.51002 0.38249 0.74635 0.0
U246 U 0.47814 0.37132 0.74526 0.0
O247 O 0.4719 0.36164 0.75433 0.0
O248 O 0.46696 0.3755 0.75387 0.0
C249 C 0.46646 0.36767 0.75778 0.0
C250 C 0.49436 0.37715 0.7489 0.0
C251 C 0.46601 0.36797 0.76755 0.0
C252 C 0.47287 0.37046 0.78208 0.0
C253 C 0.47359 0.36999 0.77277 0.0
C254 C 0.45702 0.36686 0.78095 0.0
C255 C 0.46454 0.36897 0.78625 0.0
C256 C 0.45775 0.36637 0.77168 0.0
C257 C 0.46519 0.36671 0.72375 0.0
C258 C 0.44898 0.36488 0.72322 0.0
C259 C 0.45791 0.36192 0.71003 0.0
C260 C 0.46571 0.36407 0.71479 0.0
C261 C 0.44944 0.36243 0.71415 0.0
C262 C 0.4568 0.36699 0.72799 0.0
C263 C 0.47341 0.36938 0.72849 0.0
O264 O 0.48729 0.38241 0.74865 0.0
O265 O 0.49227 0.36859 0.7486 0.0
O266 O 0.4774 0.36304 0.73304 0.0
O267 O 0.47295 0.37705 0.73285 0.0
H268 H 0.49381 0.37774 0.73093 0.0
H269 H 0.50568 0.3825 0.72082 0.0
H270 H 0.5233 0.38713 0.74337 0.0
H271 H 0.51122 0.38254 0.75348 0.0
H272 H 0.47876 0.37215 0.78599 0.0
H273 H 0.48001 0.37127 0.76965 0.0
H274 H 0.45056 0.36553 0.78396 0.0
H275 H 0.45185 0.36478 0.76773 0.0
H276 H 0.44257 0.36542 0.72658 0.0
H277 H 0.45852 0.35989 0.70311 0.0
H278 H 0.47214 0.36376 0.71144 0.0
H279 H 0.45629 0.36899 0.73493 0.0
C280 C 0.88016 0.23951 1.00015 0.0
C281 C 0.88105 0.23027 0.99866 0.0
C282 C 0.88565 0.2282 0.01409 0.0
C283 C 0.88379 0.22466 0.00556 0.0
C284 C 0.88467 0.23747 0.01557 0.0
C285 C 0.88196 0.24309 0.00864 0.0
U286 U 0.87217 0.24159 0.9765 0.0
O287 O 0.86209 0.25023 0.97021 0.0
O288 O 0.87611 0.25065 0.96571 0.0
C289 C 0.86803 0.25415 0.96507 0.0
C290 C 0.87737 0.24536 0.99282 0.0
C291 C 0.86769 0.26397 0.96488 0.0
C292 C 0.86833 0.27852 0.97225 0.0
C293 C 0.86867 0.26915 0.97267 0.0
C294 C 0.86608 0.27754 0.95626 0.0
C295 C 0.86701 0.28282 0.96403 0.0
C296 C 0.86641 0.26821 0.95669 0.0
C297 C 0.86892 0.21999 0.96315 0.0
C298 C 0.8669 0.21974 0.94707 0.0
C299 C 0.86487 0.20615 0.95557 0.0
C300 C 0.86685 0.21085 0.96342 0.0
C301 C 0.86497 0.21051 0.94728 0.0
C302 C 0.86885 0.22445 0.95495 0.0
C303 C 0.87126 0.22474 0.97145 0.0
O304 O 0.88285 0.24539 0.98596 0.0
O305 O 0.86888 0.24465 0.9905 0.0
O306 O 0.8646 0.22894 0.97541 0.0
O307 O 0.8787 0.22948 0.9712 0.0
H308 H 0.87964 0.22739 0.99215 0.0
H309 H 0.88434 0.21753 1.00423 0.0
H310 H 0.88612 0.2404 0.02205 0.0
H311 H 0.88129 0.25023 0.00989 0.0
H312 H 0.86901 0.28238 0.97837 0.0
H313 H 0.86969 0.26595 0.97905 0.0
H314 H 0.86524 0.28062 0.9498 0.0
H315 H 0.8657 0.2643 0.9506 0.0
H316 H 0.86711 0.22329 0.9408 0.0
H317 H 0.86324 0.19909 0.95599 0.0
H318 H 0.86681 0.20733 0.96971 0.0
H319 H 0.8704 0.23154 0.95464 0.0
C320 C 0.24302 0.02782 0.37278 0.0
C321 C 0.24055 0.03686 0.37216 0.0
C322 C 0.22476 0.03267 0.37181 0.0
C323 C 0.23151 0.03927 0.37171 0.0
C324 C 0.22726 0.0236 0.37226 0.0
C325 C 0.23634 0.02119 0.37277 0.0
U326 U 0.26711 0.035 0.37115 0.0
O327 O 0.27877 0.03261 0.3798 0.0
O328 O 0.27912 0.02835 0.36574 0.0
C329 C 0.28326 0.02841 0.37349 0.0
C330 C 0.25255 0.02541 0.37344 0.0
C331 C 0.28751 0.01998 0.37613 0.0
C332 C 0.2867 1.00448 0.3809 0.0
C333 C 0.28241 0.01236 0.37821 0.0
C334 C 0.30115 0.01181 0.37944 0.0
C335 C 0.29613 1.00412 0.38154 0.0
C336 C 0.29687 0.01964 0.37675 0.0
C337 C 0.27225 0.05893 0.36493 0.0
C338 C 0.28777 0.06386 0.3643 0.0
C339 C 0.27574 0.07435 0.36126 0.0
C340 C 0.26942 0.06757 0.36268 0.0
C341 C 0.28499 0.07257 0.36207 0.0
C342 C 0.28145 0.0571 0.36572 0.0
C343 C 0.26562 0.05185 0.36656 0.0
O344 O 0.25698 0.02556 0.36587 0.0
O345 O 0.2569 0.02935 0.38004 0.0
O346 O 0.26518 0.04915 0.37487 0.0
O347 O 0.26567 0.04521 0.36075 0.0
H348 H 0.24563 0.04207 0.37206 0.0
H349 H 0.22981 0.0463 0.37121 0.0
H350 H 0.2222 0.01838 0.37239 0.0
H351 H 0.23814 0.01418 0.37322 0.0
H352 H 0.28264 0.99866 0.38241 0.0
H353 H 0.27515 0.01253 0.37777 0.0
H354 H 0.3084 0.01183 0.38002 0.0
H355 H 0.30089 0.02549 0.37523 0.0
H356 H 0.29482 0.0623 0.3651 0.0
H357 H 0.2734 0.08096 0.35946 0.0
H358 H 0.26234 0.06907 0.36204 0.0
H359 H 0.28373 0.05046 0.36749 0.0
C360 C 0.24022 0.0123 0.63481 0.0
C361 C 0.23096 0.01389 0.63432 0.0
C362 C 0.22832 0.99828 0.63024 0.0
C363 C 0.22506 0.00695 0.63205 0.0
C364 C 0.23763 0.99672 0.63076 0.0
C365 C 0.24354 1.00369 0.63303 0.0
U366 U 0.24327 0.03643 0.64147 0.0
O367 O 0.25237 0.0431 0.65099 0.0
O368 O 0.25265 0.04679 0.63683 0.0
C369 C 0.25635 0.0478 0.64475 0.0
C370 C 0.24637 0.01968 0.63708 0.0
C371 C 0.2662 0.04779 0.64492 0.0
C372 C 0.28053 0.04005 0.64563 0.0
C373 C 0.27113 0.0398 0.64534 0.0
C374 C 0.28009 0.05627 0.64495 0.0
C375 C 0.28512 0.04831 0.64549 0.0
C376 C 0.27073 0.05601 0.64469 0.0
C377 C 0.22237 0.05071 0.64442 0.0
C378 C 0.2232 0.0669 0.64602 0.0
C379 C 0.209 0.05923 0.6481 0.0
C380 C 0.21318 0.05102 0.64637 0.0
C381 C 0.21395 0.06727 0.64789 0.0
C382 C 0.22738 0.05867 0.64433 0.0
C383 C 0.22662 0.04205 0.64243 0.0
O384 O 0.24649 0.02624 0.6313 0.0
O385 O 0.24593 0.02251 0.6454 0.0
O386 O 0.23082 0.03831 0.64915 0.0
O387 O 0.23119 0.04172 0.63494 0.0
H388 H 0.22829 0.02052 0.63564 0.0
H389 H 0.21796 0.00843 0.63157 0.0
H390 H 0.24035 0.9901 0.62951 0.0
H391 H 0.25068 1.00236 0.6334 0.0
H392 H 0.28419 0.03381 0.64609 0.0
H393 H 0.26771 0.03339 0.6455 0.0
H394 H 0.2834 0.06273 0.64464 0.0
H395 H 0.26702 0.06223 0.6443 0.0
H396 H 0.2272 0.07296 0.6459 0.0
H397 H 0.20186 0.05931 0.64942 0.0
H398 H 0.20922 0.04492 0.64647 0.0
H399 H 0.23451 0.05853 0.6429 0.0
C400 C 0.24042 1.00041 0.87725 0.0
C401 C 0.23111 0.99903 0.87751 0.0
C402 C 0.22886 0.0144 0.88255 0.0
C403 C 0.22538 0.00596 0.88014 0.0
C404 C 0.23821 0.0158 0.88215 0.0
C405 C 0.24395 0.00883 0.87954 0.0
U406 U 0.24282 0.9765 0.86971 0.0
O407 O 0.25209 0.96979 0.86043 0.0
O408 O 0.25151 0.9656 0.87444 0.0
C409 C 0.25562 0.9648 0.86673 0.0
C410 C 0.2464 0.99296 0.87483 0.0
C411 C 0.26549 0.96444 0.86718 0.0
C412 C 0.28028 0.97083 0.86458 0.0
C413 C 0.27091 0.97152 0.86419 0.0
C414 C 0.27888 0.95608 0.87108 0.0
C415 C 0.28436 0.9631 0.86805 0.0
C416 C 0.26954 0.95675 0.87063 0.0
C417 C 0.22113 0.96333 0.86582 0.0
C418 C 0.22043 0.94708 0.86487 0.0
C419 C 0.20721 0.95595 0.86166 0.0
C420 C 0.21209 0.96379 0.8633 0.0
C421 C 0.21127 0.94749 0.86256 0.0
C422 C 0.22533 0.95494 0.86647 0.0
C423 C 0.22597 0.97164 0.86805 0.0
O424 O 0.24616 0.98617 0.88035 0.0
O425 O 0.24608 0.99048 0.8664 0.0
O426 O 0.23058 0.97523 0.86153 0.0
O427 O 0.23033 0.97159 0.87568 0.0
H428 H 0.22828 0.99256 0.87573 0.0
H429 H 0.21821 1.00471 0.88024 0.0
H430 H 0.24109 0.02221 0.88402 0.0
H431 H 0.25113 0.00999 0.8794 0.0
H432 H 0.28434 0.97636 0.86225 0.0
H433 H 0.26792 0.97756 0.86155 0.0
H434 H 0.28181 0.94999 0.87366 0.0
H435 H 0.26548 0.95121 0.87294 0.0
H436 H 0.22375 0.94069 0.86568 0.0
H437 H 0.20022 0.95652 0.85973 0.0
H438 H 0.20877 0.97022 0.86271 0.0
H439 H 0.23233 0.95448 0.8684 0.0
C440 C 0.24146 0.98346 0.13726 0.0
C441 C 0.23904 0.97438 0.13756 0.0
C442 C 0.2233 0.97846 0.13916 0.0
C443 C 0.23005 0.97191 0.13845 0.0
C444 C 0.22577 0.98757 0.13888 0.0
C445 C 0.23479 0.99004 0.13794 0.0
U446 U 0.26578 0.9768 0.13843 0.0
O447 O 0.27725 0.97966 0.12975 0.0
O448 O 0.27766 0.98381 0.14384 0.0
C449 C 0.2816 0.98412 0.13601 0.0
C450 C 0.25095 0.98601 0.13644 0.0
C451 C 0.28522 0.99288 0.13341 0.0
C452 C 0.28436 0.00659 0.12481 0.0
C453 C 0.28049 0.99855 0.12764 0.0
C454 C 0.29757 1.00351 0.13374 0.0
C455 C 0.29298 0.00912 0.12777 0.0
C456 C 0.29373 0.99546 0.13651 0.0
C457 C 0.27137 0.95275 0.14432 0.0
C458 C 0.28679 0.94802 0.14656 0.0
C459 C 0.27488 0.93695 0.14573 0.0
C460 C 0.26859 0.94378 0.14454 0.0
C461 C 0.28406 0.93899 0.14674 0.0
C462 C 0.2805 0.95484 0.14533 0.0
C463 C 0.26474 0.95984 0.1428 0.0
O464 O 0.25553 0.9859 0.14394 0.0
O465 O 0.25523 0.98221 0.12975 0.0
O466 O 0.26419 0.96264 0.13453 0.0
O467 O 0.26476 0.96642 0.1487 0.0
H468 H 0.24412 0.96921 0.13707 0.0
H469 H 0.22839 0.96484 0.13849 0.0
H470 H 0.22076 0.99279 0.1395 0.0
H471 H 0.23656 0.99709 0.13778 0.0
H472 H 0.28063 0.01082 0.12029 0.0
H473 H 0.27387 0.99671 0.12522 0.0
H474 H 0.30426 1.00521 0.13606 0.0
H475 H 0.29748 0.99116 0.14095 0.0
H476 H 0.29382 0.94979 0.1472 0.0
H477 H 0.27256 0.93007 0.14591 0.0
H478 H 0.26156 0.94207 0.14375 0.0
H479 H 0.28276 0.96174 0.1451 0.0
C480 C 0.37228 0.24432 0.03025 0.0
C481 C 0.37085 0.24183 0.03913 0.0
C482 C 0.37021 0.22611 0.03468 0.0
C483 C 0.36986 0.23282 0.04133 0.0
C484 C 0.37158 0.22866 0.02577 0.0
C485 C 0.37261 0.23771 0.02357 0.0
U486 U 0.37116 0.26848 0.0375 0.0
O487 O 0.38039 0.27978 0.03545 0.0
O488 O 0.36646 0.2806 0.03069 0.0
C489 C 0.37442 0.28441 0.03097 0.0
C490 C 0.37343 0.25382 0.02802 0.0
C491 C 0.37763 0.28824 0.02258 0.0
C492 C 0.38163 0.28683 0.00693 0.0
C493 C 0.37847 0.28299 0.01482 0.0
C494 C 0.38315 0.30115 0.01455 0.0
C495 C 0.38403 0.29596 0.00673 0.0
C496 C 0.37997 0.29732 0.0224 0.0
C497 C 0.36392 0.27393 0.06111 0.0
C498 C 0.36167 0.28938 0.06578 0.0
C499 C 0.36181 0.27756 0.07677 0.0
C500 C 0.36323 0.27121 0.07 0.0
C501 C 0.36103 0.28671 0.07473 0.0
C502 C 0.36314 0.28304 0.05903 0.0
C503 C 0.36571 0.26727 0.05407 0.0
O504 O 0.36597 0.25852 0.02787 0.0
O505 O 0.38001 0.2579 0.03229 0.0
O506 O 0.37418 0.26658 0.05173 0.0
O507 O 0.36019 0.26745 0.04722 0.0
H508 H 0.37058 0.24687 0.04437 0.0
H509 H 0.36897 0.2311 0.04828 0.0
H510 H 0.37178 0.22368 0.02047 0.0
H511 H 0.37367 0.23954 0.01668 0.0
H512 H 0.3823 0.28265 1.00104 0.0
H513 H 0.37672 0.27594 0.01488 0.0
H514 H 0.3848 0.30823 0.01459 0.0
H515 H 0.37934 0.30146 0.02834 0.0
H516 H 0.36122 0.29639 0.06402 0.0
H517 H 0.36128 0.27529 0.08359 0.0
H518 H 0.36385 0.2642 0.0717 0.0
H519 H 0.36374 0.28526 0.05219 0.0
C520 C 1.00094 0.87986 0.24259 0.0
C521 C 0.99925 0.88021 0.2334 0.0
C522 C 0.01456 0.88524 0.23075 0.0
C523 C 0.00598 0.88289 0.22754 0.0
C524 C 0.01622 0.88486 0.23999 0.0
C525 C 0.00945 0.88218 0.24587 0.0
U526 U 0.9773 0.87173 0.24549 0.0
O527 O 0.97125 0.86179 0.25439 0.0
O528 O 0.96661 0.87576 0.25479 0.0
C529 C 0.96614 0.86777 0.25838 0.0
C530 C 0.99375 0.87714 0.24868 0.0
C531 C 0.96617 0.86763 0.26816 0.0
C532 C 0.974 0.8674 0.2824 0.0
C533 C 0.97421 0.86764 0.27307 0.0
C534 C 0.95773 0.86726 0.28195 0.0
C535 C 0.96574 0.86716 0.28695 0.0
C536 C 0.95795 0.86747 0.27266 0.0
C537 C 0.96333 0.86798 0.22452 0.0
C538 C 0.94731 0.865 0.22516 0.0
C539 C 0.95506 0.86449 0.21097 0.0
C540 C 0.96313 0.86661 0.21527 0.0
C541 C 0.94705 0.86372 0.21586 0.0
C542 C 0.9554 0.86709 0.22946 0.0
C543 C 0.97181 0.87047 0.22889 0.0
O544 O 0.98679 0.88254 0.24886 0.0
O545 O 0.99149 0.86863 0.24816 0.0
O546 O 0.97596 0.86394 0.23302 0.0
O547 O 0.9716 0.87797 0.23354 0.0
H548 H 0.99268 0.87847 0.23076 0.0
H549 H 1.00442 0.88325 0.22049 0.0
H550 H 0.02278 0.88653 0.24267 0.0
H551 H 0.01086 0.88193 0.25295 0.0
H552 H 0.98029 0.86727 0.28604 0.0
H553 H 0.98063 0.86779 0.26968 0.0
H554 H 0.95125 0.86727 0.28523 0.0
H555 H 0.95169 0.86753 0.26897 0.0
H556 H 0.94127 0.86437 0.22912 0.0
H557 H 0.95507 0.86365 0.20379 0.0
H558 H 0.9692 0.86728 0.21136 0.0
H559 H 0.95546 0.86809 0.23663 0.0
C560 C 0.13981 0.76941 0.53379 0.0
C561 C 0.14563 0.77194 0.54075 0.0
C562 C 0.14079 0.78746 0.5395 0.0
C563 C 0.14616 0.78087 0.54353 0.0
C564 C 0.13504 0.7849 0.53246 0.0
C565 C 0.13456 0.77595 0.52963 0.0
U566 U 0.1415 0.7451 0.54008 0.0
O567 O 0.13269 0.73358 0.53737 0.0
O568 O 0.14672 0.7333 0.53287 0.0
C569 C 0.13888 0.72925 0.53283 0.0
C570 C 0.13887 0.75992 0.53121 0.0
C571 C 0.13601 0.72539 0.52423 0.0
C572 C 0.12776 0.72622 0.51026 0.0
C573 C 0.13073 0.73026 0.51821 0.0
C574 C 0.13548 0.71253 0.51424 0.0
C575 C 0.13007 0.71729 0.50822 0.0
C576 C 0.13841 0.71655 0.52217 0.0
C577 C 0.14862 0.73925 0.56354 0.0
C578 C 0.15081 0.72369 0.56759 0.0
C579 C 0.15063 0.73524 0.57906 0.0
C580 C 0.14927 0.74175 0.57254 0.0
C581 C 0.15136 0.72612 0.57667 0.0
C582 C 0.14942 0.7302 0.56109 0.0
C583 C 0.14675 0.74605 0.55677 0.0
O584 O 0.14641 0.75535 0.53083 0.0
O585 O 0.13238 0.75563 0.53529 0.0
O586 O 0.13829 0.74657 0.55432 0.0
O587 O 0.15235 0.7462 0.55001 0.0
H588 H 0.1497 0.76698 0.5441 0.0
H589 H 0.15077 0.78261 0.54887 0.0
H590 H 0.13072 0.78977 0.52928 0.0
H591 H 0.12997 0.7741 0.5243 0.0
H592 H 0.12366 0.73008 0.50572 0.0
H593 H 0.12885 0.73712 0.51968 0.0
H594 H 0.13727 0.70561 0.51294 0.0
H595 H 0.14246 0.7127 0.52676 0.0
H596 H 0.15147 0.71676 0.5655 0.0
H597 H 0.15091 0.73733 0.58599 0.0
H598 H 0.1486 0.74871 0.57454 0.0
H599 H 0.14891 0.72815 0.55416 0.0
C600 C 0.99137 0.63308 0.74932 0.0
C601 C 0.98218 0.63411 0.74757 0.0
C602 C 0.97956 0.6384 0.76303 0.0
C603 C 0.97633 0.63677 0.75435 0.0
C604 C 0.98878 0.63726 0.76479 0.0
C605 C 0.99465 0.63464 0.75797 0.0
U606 U 0.99441 0.62439 0.72592 0.0
O607 O 1.00339 0.62868 0.71513 0.0
O608 O 1.00394 0.61483 0.71999 0.0
C609 C 0.00759 0.62094 0.71486 0.0
C610 C 0.99749 0.6304 0.74212 0.0
C611 C 0.01746 0.62145 0.71494 0.0
C612 C 0.03188 0.61994 0.72242 0.0
C613 C 0.02249 0.61955 0.72263 0.0
C614 C 0.03128 0.62434 0.70691 0.0
C615 C 0.03637 0.62234 0.71455 0.0
C616 C 0.02192 0.62387 0.70711 0.0
C617 C 0.9733 0.61919 0.71242 0.0
C618 C 0.97349 0.61669 0.69639 0.0
C619 C 0.95986 0.61403 0.70477 0.0
C620 C 0.96428 0.61654 0.71263 0.0
C621 C 0.96439 0.61415 0.69655 0.0
C622 C 0.97792 0.61916 0.70427 0.0
C623 C 0.97773 0.6221 0.7207 0.0
O624 O 0.99738 0.62182 0.74007 0.0
O625 O 0.99729 0.6356 0.73509 0.0
O626 O 0.98194 0.62983 0.72031 0.0
O627 O 0.98235 0.61589 0.72486 0.0
H628 H 0.97953 0.63286 0.74093 0.0
H629 H 0.96925 0.63745 0.75282 0.0
H630 H 0.99147 0.63852 0.7714 0.0
H631 H 1.00173 0.63387 0.75943 0.0
H632 H 0.03562 0.61845 0.72843 0.0
H633 H 0.01917 0.61774 0.72878 0.0
H634 H 0.03455 0.62609 0.70072 0.0
H635 H 0.01815 0.62536 0.70111 0.0
H636 H 0.97719 0.61676 0.69018 0.0
H637 H 0.95282 0.61221 0.70509 0.0
H638 H 0.96062 0.61653 0.71887 0.0
H639 H 0.98493 0.62112 0.70401 0.0
C640 C 0.1289 0.2473 0.48957 0.0
C641 C 0.13087 0.2452 0.48065 0.0
C642 C 0.13551 0.2606 0.47808 0.0
C643 C 0.13417 0.25178 0.47496 0.0
C644 C 0.13347 0.26269 0.48702 0.0
C645 C 0.13021 0.25607 0.49273 0.0
U646 U 0.11893 0.22434 0.49198 0.0
O647 O 0.12189 0.21333 0.50114 0.0
O648 O 0.10832 0.21907 0.5007 0.0
C649 C 0.11384 0.21353 0.50471 0.0
C650 C 0.1254 0.24033 0.49549 0.0
C651 C 0.11364 0.21372 0.51449 0.0
C652 C 0.11878 0.21975 0.52872 0.0
C653 C 0.11864 0.22005 0.51939 0.0
C654 C 0.10872 0.20697 0.5283 0.0
C655 C 0.11388 0.21316 0.53327 0.0
C656 C 0.10862 0.20725 0.519 0.0
C657 C 0.11517 0.21086 0.47054 0.0
C658 C 0.11083 0.19516 0.4706 0.0
C659 C 0.11325 0.20277 0.45659 0.0
C660 C 0.11525 0.21068 0.46121 0.0
C661 C 0.11115 0.19488 0.46122 0.0
C662 C 0.11284 0.2031 0.47523 0.0
C663 C 0.1179 0.21907 0.47527 0.0
O664 O 0.11676 0.23871 0.49466 0.0
O665 O 0.13028 0.23299 0.4958 0.0
O666 O 0.12522 0.21835 0.48012 0.0
O667 O 0.11144 0.2235 0.47932 0.0
H668 H 0.12981 0.23847 0.47807 0.0
H669 H 0.13553 0.25 0.46808 0.0
H670 H 0.13448 0.26941 0.48961 0.0
H671 H 0.1287 0.25779 0.4996 0.0
H672 H 0.12275 0.22466 0.53236 0.0
H673 H 0.12254 0.22512 0.516 0.0
H674 H 0.10497 0.20173 0.53159 0.0
H675 H 0.10474 0.20231 0.51531 0.0
H676 H 0.10931 0.18919 0.47437 0.0
H677 H 0.1134 0.20281 0.44936 0.0
H678 H 0.11701 0.21663 0.45751 0.0
H679 H 0.11277 0.20315 0.48246 0.0
C680 C 0.49032 0.38787 0.23154 0.0
C681 C 0.48803 0.38993 0.22272 0.0
C682 C 0.47215 0.38951 0.22651 0.0
C683 C 0.47904 0.39072 0.22022 0.0
C684 C 0.47449 0.38747 0.23536 0.0
C685 C 0.48352 0.38666 0.23786 0.0
U686 U 0.51459 0.39006 0.22515 0.0
O687 O 0.52637 0.39522 0.23245 0.0
O688 O 0.52623 0.38134 0.22745 0.0
C689 C 0.53051 0.38745 0.2322 0.0
C690 C 0.49981 0.38702 0.23408 0.0
C691 C 0.53422 0.38438 0.2407 0.0
C692 C 0.5324 0.37808 0.25547 0.0
C693 C 0.52866 0.38106 0.24745 0.0
C694 C 0.54726 0.38177 0.25002 0.0
C695 C 0.54175 0.37843 0.25685 0.0
C696 C 0.54352 0.38471 0.24203 0.0
C697 C 0.52027 0.39803 0.20193 0.0
C698 C 0.53568 0.40139 0.19788 0.0
C699 C 0.52421 0.40032 0.18642 0.0
C700 C 0.51778 0.39848 0.19293 0.0
C701 C 0.53324 0.40178 0.18882 0.0
C702 C 0.52926 0.39949 0.20437 0.0
C703 C 0.51354 0.39577 0.20869 0.0
O704 O 0.50422 0.38071 0.22977 0.0
O705 O 0.50424 0.39464 0.23458 0.0
O706 O 0.5133 0.40115 0.21567 0.0
O707 O 0.51318 0.38724 0.21078 0.0
H708 H 0.49322 0.39088 0.21775 0.0
H709 H 0.47749 0.39214 0.21331 0.0
H710 H 0.46936 0.38658 0.24038 0.0
H711 H 0.48519 0.3851 0.2447 0.0
H712 H 0.52799 0.37562 0.26063 0.0
H713 H 0.52145 0.38077 0.24652 0.0
H714 H 0.55449 0.382 0.25081 0.0
H715 H 0.5479 0.38722 0.23685 0.0
H716 H 0.5426 0.40235 0.19992 0.0
H717 H 0.52211 0.40065 0.17951 0.0
H718 H 0.51087 0.39734 0.19094 0.0
H719 H 0.53132 0.39908 0.21129 0.0
C720 C 0.37995 0.76354 0.98721 0.0
C721 C 0.3798 0.76511 0.97801 0.0
C722 C 0.3747 0.74983 0.97523 0.0
C723 C 0.37718 0.75833 0.97207 0.0
C724 C 0.37479 0.74831 0.98449 0.0
C725 C 0.3774 0.75512 0.99043 0.0
U726 U 0.38992 0.78647 0.99044 0.0
O727 O 0.38652 0.7976 0.99949 0.0
O728 O 0.40001 0.79168 0.9999 0.0
C729 C 0.39434 0.79736 1.00356 0.0
C730 C 0.38293 0.77064 0.99338 0.0
C731 C 0.39404 0.79736 0.01334 0.0
C732 C 0.38809 0.79181 0.02733 0.0
C733 C 0.3885 0.79141 0.018 0.0
C734 C 0.39893 0.80395 0.02738 0.0
C735 C 0.39328 0.79812 0.03211 0.0
C736 C 0.3993 0.80357 0.01808 0.0
C737 C 0.39599 0.79958 0.96962 0.0
C738 C 0.39973 0.81542 0.97008 0.0
C739 C 0.40147 0.80693 0.95634 0.0
C740 C 0.39844 0.79922 0.96062 0.0
C741 C 0.40208 0.81513 0.961 0.0
C742 C 0.39674 0.80769 0.97437 0.0
C743 C 0.39251 0.79148 0.97392 0.0
O744 O 0.39163 0.77215 0.99338 0.0
O745 O 0.37814 0.77803 0.99314 0.0
O746 O 0.38483 0.79248 0.97811 0.0
O747 O 0.39843 0.78684 0.97846 0.0
H748 H 0.38174 0.77158 0.97541 0.0
H749 H 0.37706 0.75977 0.96501 0.0
H750 H 0.37301 0.74182 0.98712 0.0
H751 H 0.37752 0.7538 0.99752 0.0
H752 H 0.38374 0.78719 0.03079 0.0
H753 H 0.38443 0.78654 0.01443 0.0
H754 H 0.4029 0.80898 0.03084 0.0
H755 H 0.4036 0.80822 0.01458 0.0
H756 H 0.40021 0.82162 0.97387 0.0
H757 H 0.40313 0.80652 0.94932 0.0
H758 H 0.39789 0.793 0.95687 0.0
H759 H 0.39492 0.80806 0.98136 0.0
C760 C 0.01957 0.38834 0.77917 0.0
C761 C 0.02197 0.39221 0.78739 0.0
C762 C 0.03777 0.38944 0.78429 0.0
C763 C 0.03098 0.39279 0.78992 0.0
C764 C 0.03533 0.38569 0.77599 0.0
C765 C 0.02629 0.38513 0.77346 0.0
U766 U 0.99534 0.39008 0.78594 0.0
O767 O 0.98392 0.38094 0.78385 0.0
O768 O 0.98329 0.39472 0.77885 0.0
C769 C 0.97938 0.38682 0.7792 0.0
C770 C 0.01006 0.38731 0.77678 0.0
C771 C 0.97548 0.38344 0.77082 0.0
C772 C 0.97659 0.37973 0.75505 0.0
C773 C 0.98053 0.38298 0.76293 0.0
C774 C 0.9626 0.37733 0.76292 0.0
C775 C 0.96758 0.37686 0.75497 0.0
C776 C 0.96653 0.3806 0.77076 0.0
C777 C 0.98973 0.39781 0.80935 0.0
C778 C 0.97416 0.39975 0.81371 0.0
C779 C 0.98589 0.39996 0.82494 0.0
C780 C 0.99234 0.39864 0.81829 0.0
C781 C 0.97671 0.40045 0.82274 0.0
C782 C 0.9806 0.39841 0.80708 0.0
C783 C 0.99646 0.39589 0.80247 0.0
O784 O 0.00585 0.38094 0.78109 0.0
O785 O 1.00546 0.39483 0.77642 0.0
O786 O 0.99636 0.40126 0.79556 0.0
O787 O 0.99716 0.38739 0.80023 0.0
H788 H 0.01685 0.39471 0.79189 0.0
H789 H 0.03262 0.39585 0.79629 0.0
H790 H 0.04038 0.38297 0.77154 0.0
H791 H 0.02453 0.38207 0.76711 0.0
H792 H 0.98061 0.37938 0.74905 0.0
H793 H 0.98748 0.38511 0.76289 0.0
H794 H 0.95561 0.37531 0.76306 0.0
H795 H 0.96254 0.38093 0.7768 0.0
H796 H 0.96717 0.40023 0.81176 0.0
H797 H 0.98808 0.40034 0.83183 0.0
H798 H 0.99936 0.39813 0.82015 0.0
H799 H 0.97847 0.39775 0.8002 0.0
C800 C 0.37988 0.24671 0.52181 0.0
C801 C 0.37981 0.2453 0.53104 0.0
C802 C 0.37421 0.26043 0.53353 0.0
C803 C 0.37699 0.25209 0.53685 0.0
C804 C 0.37423 0.26178 0.52425 0.0
C805 C 0.37706 0.25497 0.51843 0.0
U806 U 0.38991 0.22376 0.51885 0.0
O807 O 0.38666 0.21264 0.50971 0.0
O808 O 0.40015 0.21862 0.50956 0.0
C809 C 0.3945 0.21301 0.50572 0.0
C810 C 0.38301 0.23959 0.51576 0.0
C811 C 0.39429 0.21319 0.49592 0.0
C812 C 0.38726 0.2175 0.48196 0.0
C813 C 0.38752 0.21777 0.49128 0.0
C814 C 0.4007 0.20836 0.48181 0.0
C815 C 0.39382 0.21275 0.47712 0.0
C816 C 0.40091 0.20857 0.49112 0.0
C817 C 0.39547 0.21061 0.53985 0.0
C818 C 0.39822 0.19456 0.53993 0.0
C819 C 0.40123 0.2035 0.55318 0.0
C820 C 0.39844 0.21119 0.5487 0.0
C821 C 0.40105 0.19509 0.54888 0.0
C822 C 0.39549 0.20227 0.53544 0.0
C823 C 0.39216 0.2187 0.53541 0.0
O824 O 0.3917 0.23809 0.51601 0.0
O825 O 0.3782 0.2322 0.51589 0.0
O826 O 0.38455 0.21775 0.53104 0.0
O827 O 0.39821 0.22331 0.53102 0.0
H828 H 0.38196 0.23894 0.53375 0.0
H829 H 0.37692 0.25078 0.54394 0.0
H830 H 0.37222 0.26816 0.52149 0.0
H831 H 0.37711 0.25616 0.51131 0.0
H832 H 0.38193 0.22102 0.47852 0.0
H833 H 0.38239 0.22145 0.49487 0.0
H834 H 0.40578 0.20455 0.47828 0.0
H835 H 0.40619 0.20501 0.49459 0.0
H836 H 0.39811 0.18819 0.53642 0.0
H837 H 0.40327 0.20411 0.5601 0.0
H838 H 0.39846 0.21758 0.5522 0.0
H839 H 0.39328 0.20171 0.52856 0.0
C840 C 0.48933 0.62196 0.27922 0.0
C841 C 0.48688 0.62239 0.28825 0.0
C842 C 0.47108 0.62155 0.28413 0.0
C843 C 0.47784 0.62223 0.29068 0.0
C844 C 0.47358 0.62097 0.2751 0.0
C845 C 0.48264 0.62121 0.27267 0.0
U846 U 0.51374 0.61855 0.28523 0.0
O847 O 0.52503 0.61302 0.27747 0.0
O848 O 0.52567 0.62679 0.28276 0.0
C849 C 0.52947 0.62064 0.2777 0.0
C850 C 0.49885 0.62222 0.27665 0.0
C851 C 0.53296 0.62379 0.26912 0.0
C852 C 0.53176 0.6331 0.25595 0.0
C853 C 0.52803 0.62973 0.2638 0.0
C854 C 0.54524 0.6244 0.25854 0.0
C855 C 0.54044 0.63053 0.25328 0.0
C856 C 0.54152 0.62108 0.26639 0.0
C857 C 0.51979 0.61059 0.3084 0.0
C858 C 0.53524 0.60711 0.31225 0.0
C859 C 0.52401 0.6084 0.32387 0.0
C860 C 0.51747 0.61024 0.31743 0.0
C861 C 0.53297 0.60686 0.32135 0.0
C862 C 0.5287 0.60899 0.30583 0.0
C863 C 0.51297 0.61296 0.30174 0.0
O864 O 0.50371 0.62834 0.28078 0.0
O865 O 0.50282 0.61437 0.27616 0.0
O866 O 0.51239 0.60755 0.2948 0.0
O867 O 0.5128 0.62148 0.2996 0.0
H868 H 0.49196 0.62286 0.29341 0.0
H869 H 0.47612 0.62255 0.29769 0.0
H870 H 0.46851 0.62049 0.26992 0.0
H871 H 0.48443 0.62083 0.26568 0.0
H872 H 0.52788 0.63774 0.25199 0.0
H873 H 0.52137 0.63187 0.26578 0.0
H874 H 0.55198 0.62237 0.25673 0.0
H875 H 0.54542 0.61651 0.27043 0.0
H876 H 0.5421 0.60607 0.31011 0.0
H877 H 0.52205 0.60817 0.33081 0.0
H878 H 0.51062 0.61148 0.31952 0.0
H879 H 0.53063 0.60933 0.29888 0.0
C880 C 0.12103 0.78167 0.99458 0.0
C881 C 0.11922 0.79057 0.99225 0.0
C882 C 0.11955 0.78649 0.9765 0.0
C883 C 0.11851 0.79296 0.9833 0.0
C884 C 0.12131 0.77756 0.97888 0.0
C885 C 0.12204 0.77517 0.98786 0.0
U886 U 0.11896 0.78854 0.01863 0.0
O887 O 0.11379 0.7815 0.03039 0.0
O888 O 0.12773 0.78633 0.0302 0.0
C889 C 0.1216 0.78174 0.0345 0.0
C890 C 0.12185 0.77925 1.00401 0.0
C891 C 0.12465 0.77323 0.03828 0.0
C892 C 0.13056 0.75815 0.03663 0.0
C893 C 0.12755 0.76614 0.03282 0.0
C894 C 0.12774 0.76432 0.05137 0.0
C895 C 0.13067 0.75715 0.04596 0.0
C896 C 0.12476 0.77228 0.04756 0.0
C897 C 0.11132 0.81216 0.02407 0.0
C898 C 0.10831 0.81668 0.03936 0.0
C899 C 0.10912 0.82787 0.02777 0.0
C900 C 0.11082 0.82114 0.02145 0.0
C901 C 0.10787 0.82571 0.0368 0.0
C902 C 0.11006 0.80996 0.03305 0.0
C903 C 0.11344 0.80518 0.01745 0.0
O904 O 0.12824 0.78352 0.00838 0.0
O905 O 0.11422 0.77897 0.0084 0.0
O906 O 0.10796 0.79826 0.01731 0.0
O907 O 0.12195 0.80289 0.01709 0.0
H908 H 0.11842 0.79568 0.99737 0.0
H909 H 0.11731 0.79993 0.98172 0.0
H910 H 0.12205 0.7724 0.97381 0.0
H911 H 0.12341 0.76826 0.98956 0.0
H912 H 0.1327 0.75272 0.03229 0.0
H913 H 0.1275 0.76679 0.02562 0.0
H914 H 0.12788 0.76383 0.05857 0.0
H915 H 0.12258 0.77772 0.05186 0.0
H916 H 0.1075 0.81481 0.04628 0.0
H917 H 0.10875 0.83476 0.02559 0.0
H918 H 0.1118 0.82294 0.01454 0.0
H919 H 0.11051 0.80306 0.0352 0.0
C920 C 0.74809 0.99264 0.63179 0.0
C921 C 0.74622 0.98361 0.63351 0.0
C922 C 0.76173 0.98119 0.638 0.0
C923 C 0.75297 0.97794 0.63661 0.0
C924 C 0.76358 0.99026 0.63624 0.0
C925 C 0.7568 0.99595 0.63318 0.0
U926 U 0.72494 0.99515 0.622 0.0
O927 O 0.71401 1.00455 0.62494 0.0
O928 O 0.71973 1.00394 0.61146 0.0
C929 C 0.71424 0.0081 0.61695 0.0
C930 C 0.741 0.99854 0.6284 0.0
C931 C 0.71455 0.01793 0.61679 0.0
C932 C 0.72073 0.0321 0.62206 0.0
C933 C 0.72095 0.02272 0.62179 0.0
C934 C 0.70788 0.03194 0.6121 0.0
C935 C 0.71412 0.0368 0.61728 0.0
C936 C 0.7081 0.02258 0.61187 0.0
C937 C 0.71109 0.9739 0.61815 0.0
C938 C 0.69818 0.97232 0.6083 0.0
C939 C 0.70002 0.96226 0.62077 0.0
C940 C 0.70799 0.96663 0.62313 0.0
C941 C 0.69504 0.96506 0.61332 0.0
C942 C 0.70612 0.97675 0.61072 0.0
C943 C 0.7194 0.97848 0.62096 0.0
O944 O 0.73933 0.99769 0.61982 0.0
O945 O 0.73368 0.99885 0.63328 0.0
O946 O 0.71873 0.98339 0.62824 0.0
O947 O 0.72408 0.98237 0.61464 0.0
H948 H 0.73954 0.98093 0.63239 0.0
H949 H 0.75136 0.97096 0.63776 0.0
H950 H 0.77025 0.99297 0.63731 0.0
H951 H 0.75835 1.00291 0.63186 0.0
H952 H 0.72567 0.03566 0.62604 0.0
H953 H 0.72602 0.01921 0.62561 0.0
H954 H 0.70263 0.03535 0.60844 0.0
H955 H 0.70309 0.01897 0.60799 0.0
H956 H 0.69443 0.97466 0.60258 0.0
H957 H 0.69782 0.95662 0.6247 0.0
H958 H 0.71173 0.96434 0.62889 0.0
H959 H 0.70833 0.98242 0.60683 0.0
C960 C 0.76196 0.99264 0.37629 0.0
C961 C 0.76337 0.98335 0.37633 0.0
C962 C 0.74808 0.98081 0.37111 0.0
C963 C 0.75651 0.97749 0.37375 0.0
C964 C 0.74673 0.99015 0.37101 0.0
C965 C 0.75362 0.99602 0.37359 0.0
U966 U 0.78516 0.99547 0.38572 0.0
O967 O 0.79634 1.00435 0.38219 0.0
O968 O 0.79071 1.00487 0.39572 0.0
C969 C 0.79624 0.0085 0.38996 0.0
C970 C 0.76917 0.99872 0.37918 0.0
C971 C 0.79622 0.01835 0.38969 0.0
C972 C 0.7921 0.03236 0.38263 0.0
C973 C 0.79163 0.02301 0.38298 0.0
C974 C 0.80147 0.03251 0.39587 0.0
C975 C 0.79708 0.03721 0.38904 0.0
C976 C 0.80106 0.02317 0.39617 0.0
C977 C 0.79812 0.97407 0.39094 0.0
C978 C 0.81402 0.97403 0.39457 0.0
C979 C 0.80556 0.96014 0.39463 0.0
C980 C 0.7978 0.96481 0.39227 0.0
C981 C 0.81379 0.96467 0.39568 0.0
C982 C 0.80624 0.97869 0.39222 0.0
C983 C 0.79003 0.97873 0.38788 0.0
O984 O 0.77089 0.99863 0.38778 0.0
O985 O 0.77646 0.99842 0.37425 0.0
O986 O 0.79088 0.98301 0.38031 0.0
O987 O 0.78569 0.98336 0.394 0.0
H988 H 0.76979 0.98063 0.37838 0.0
H989 H 0.75783 0.97035 0.37378 0.0
H990 H 0.74029 0.99291 0.36909 0.0
H991 H 0.75243 1.00318 0.37355 0.0
H992 H 0.78858 0.03581 0.37735 0.0
H993 H 0.78779 0.01941 0.37795 0.0
H994 H 0.80545 0.03605 0.40084 0.0
H995 H 0.80464 0.01968 0.4014 0.0
H996 H 0.82027 0.9777 0.39525 0.0
H997 H 0.80511 0.95297 0.39559 0.0
H998 H 0.79156 0.96115 0.39135 0.0
H999 H 0.80659 0.98587 0.39121 0.0
C1000 C 0.78255 0.99024 0.12478 0.0
C1001 C 0.79156 0.9876 0.12554 0.0
C1002 C 0.78713 0.97192 0.12463 0.0
C1003 C 0.79382 0.97853 0.12552 0.0
C1004 C 0.77812 0.97459 0.12373 0.0
C1005 C 0.77585 0.98369 0.12384 0.0
U1006 U 0.78924 0.01428 0.12083 0.0
O1007 O 0.78191 0.02559 0.11497 0.0
O1008 O 0.78695 0.02653 0.12872 0.0
C1009 C 0.78219 0.03032 0.1224 0.0
C1010 C 0.78016 0.9998 0.12482 0.0
C1011 C 0.77365 0.03427 0.12529 0.0
C1012 C 0.75862 0.03293 0.1314 0.0
C1013 C 0.76662 0.02894 0.1285 0.0
C1014 C 0.76465 0.04757 0.12786 0.0
C1015 C 0.75755 0.0423 0.1311 0.0
C1016 C 0.77262 0.04358 0.12498 0.0
C1017 C 0.81272 0.01937 0.1127 0.0
C1018 C 0.81694 0.03463 0.10905 0.0
C1019 C 0.82828 0.023 0.1096 0.0
C1020 C 0.82169 0.01672 0.11181 0.0
C1021 C 0.82598 0.03203 0.10822 0.0
C1022 C 0.81037 0.02835 0.1113 0.0
C1023 C 0.80588 0.01281 0.11531 0.0
O1024 O 0.78438 1.00475 0.13081 0.0
O1025 O 0.77981 1.00354 0.11692 0.0
O1026 O 0.7989 0.0122 0.10995 0.0
O1027 O 0.80366 0.01306 0.12379 0.0
H1028 H 0.79685 0.99257 0.12615 0.0
H1029 H 0.80083 0.97668 0.12608 0.0
H1030 H 0.77283 0.96964 0.12308 0.0
H1031 H 0.76887 0.98562 0.1232 0.0
H1032 H 0.75325 0.02868 0.13379 0.0
H1033 H 0.76734 0.02172 0.12878 0.0
H1034 H 0.76412 0.0548 0.12768 0.0
H1035 H 0.77802 0.04779 0.12257 0.0
H1036 H 0.81497 0.04155 0.10817 0.0
H1037 H 0.83518 0.02079 0.10894 0.0
H1038 H 0.82361 0.00981 0.11288 0.0
H1039 H 0.80346 0.03052 0.11203 0.0
C1040 C 0.72838 0.98815 0.88952 0.0
C1041 C 0.71936 0.98597 0.89106 0.0
C1042 C 0.72305 0.97007 0.8908 0.0
C1043 C 0.71671 0.97702 0.89167 0.0
C1044 C 0.73211 0.97232 0.88933 0.0
C1045 C 0.73475 0.9813 0.88869 0.0
U1046 U 0.72265 0.01264 0.89206 0.0
O1047 O 0.73064 0.02413 0.89696 0.0
O1048 O 0.72508 0.02415 0.88337 0.0
C1049 C 0.73041 0.02813 0.88919 0.0
C1050 C 0.73111 0.99757 0.88877 0.0
C1051 C 0.73908 0.03141 0.88576 0.0
C1052 C 0.75045 0.03213 0.87416 0.0
C1053 C 0.74254 0.02842 0.87754 0.0
C1054 C 0.75175 0.04161 0.8873 0.0
C1055 C 0.75509 0.03881 0.87897 0.0
C1056 C 0.7438 0.03797 0.89064 0.0
C1057 C 0.69941 0.01901 0.9003 0.0
C1058 C 0.69545 0.03449 0.90349 0.0
C1059 C 0.68381 0.02316 0.90245 0.0
C1060 C 0.69032 0.01664 0.90072 0.0
C1061 C 0.6863 0.03217 0.90381 0.0
C1062 C 0.70195 0.02797 0.90171 0.0
C1063 C 0.70612 0.01217 0.89803 0.0
O1064 O 0.72684 1.00212 0.88261 0.0
O1065 O 0.7318 1.00195 0.89639 0.0
O1066 O 0.7132 0.01188 0.90327 0.0
O1067 O 0.70814 0.01162 0.88952 0.0
H1068 H 0.71435 0.9912 0.89173 0.0
H1069 H 0.70966 0.97554 0.89266 0.0
H1070 H 0.73718 0.96715 0.88874 0.0
H1071 H 0.74175 0.98289 0.88754 0.0
H1072 H 0.75293 0.02979 0.86776 0.0
H1073 H 0.73908 0.02332 0.87366 0.0
H1074 H 0.75512 0.04682 0.89111 0.0
H1075 H 0.74124 0.04039 0.89697 0.0
H1076 H 0.69757 0.04139 0.90439 0.0
H1077 H 0.67682 0.02115 0.90273 0.0
H1078 H 0.68825 0.00975 0.89962 0.0
H1079 H 0.70895 0.02993 0.90131 0.0
C1080 C 0.62827 0.74762 0.99098 0.0
C1081 C 0.6268 0.74715 0.98175 0.0
C1082 C 0.63473 0.76127 0.97979 0.0
C1083 C 0.62997 0.75392 0.97621 0.0
C1084 C 0.63609 0.76176 0.98908 0.0
C1085 C 0.6329 0.75497 0.99463 0.0
U1086 U 0.61909 0.72431 0.99244 0.0
O1087 O 0.62295 0.71282 1.00071 0.0
O1088 O 0.60916 0.71803 1.00123 0.0
C1089 C 0.61504 0.7124 1.00456 0.0
C1090 C 0.62534 0.74021 0.99666 0.0
C1091 C 0.61519 0.71169 0.01432 0.0
C1092 C 0.61598 0.7184 0.02913 0.0
C1093 C 0.61593 0.7193 0.01984 0.0
C1094 C 0.61466 0.70228 0.0274 0.0
C1095 C 0.6153 0.70986 0.03301 0.0
C1096 C 0.61459 0.7032 0.01815 0.0
C1097 C 0.61442 0.71206 0.97055 0.0
C1098 C 0.61114 0.69612 0.97001 0.0
C1099 C 0.61128 0.70474 0.95639 0.0
C1100 C 0.61334 0.71248 0.96129 0.0
C1101 C 0.61029 0.69644 0.96067 0.0
C1102 C 0.61318 0.70388 0.97492 0.0
C1103 C 0.61721 0.72011 0.97552 0.0
O1104 O 0.61671 0.73837 0.9963 0.0
O1105 O 0.63043 0.73303 0.99615 0.0
O1106 O 0.62483 0.71935 0.97987 0.0
O1107 O 0.6109 0.7241 0.98019 0.0
H1108 H 0.62326 0.74149 0.97881 0.0
H1109 H 0.62867 0.7534 0.96912 0.0
H1110 H 0.63979 0.7673 0.99203 0.0
H1111 H 0.63414 0.75539 1.00174 0.0
H1112 H 0.61642 0.72437 0.03326 0.0
H1113 H 0.61643 0.72592 0.01696 0.0
H1114 H 0.61432 0.6956 0.03014 0.0
H1115 H 0.61408 0.69725 0.01397 0.0
H1116 H 0.61051 0.68983 0.97351 0.0
H1117 H 0.61053 0.70524 0.94922 0.0
H1118 H 0.61424 0.71876 0.95783 0.0
H1119 H 0.614 0.70346 0.98208 0.0
C1120 C 0.98985 0.11999 0.77841 0.0
C1121 C 0.98716 0.11345 0.78452 0.0
C1122 C 0.97179 0.11898 0.78397 0.0
C1123 C 0.97821 0.11291 0.78722 0.0
C1124 C 0.9745 0.12544 0.77773 0.0
C1125 C 0.98346 0.12593 0.77498 0.0
U1126 U 0.01423 0.11798 0.78494 0.0
O1127 O 0.02613 0.11339 0.77756 0.0
O1128 O 0.02566 0.12709 0.783 0.0
C1129 C 0.0301 0.12125 0.77811 0.0
C1130 C 0.99938 0.12105 0.77607 0.0
C1131 C 0.03382 0.12466 0.76976 0.0
C1132 C 0.03201 0.13086 0.75494 0.0
C1133 C 0.02825 0.12768 0.76286 0.0
C1134 C 0.04691 0.12802 0.76081 0.0
C1135 C 0.0414 0.13101 0.75382 0.0
C1136 C 0.04315 0.12488 0.7687 0.0
C1137 C 0.02026 0.10959 0.80785 0.0
C1138 C 0.03596 0.10772 0.81182 0.0
C1139 C 0.02449 0.10689 0.82324 0.0
C1140 C 0.01787 0.10835 0.81678 0.0
C1141 C 0.03362 0.10666 0.82084 0.0
C1142 C 0.02934 0.10921 0.80539 0.0
C1143 C 0.01336 0.11174 0.8012 0.0
O1144 O 1.00365 0.12729 0.78065 0.0
O1145 O 1.00399 0.11357 0.77525 0.0
O1146 O 0.01326 0.10656 0.79406 0.0
O1147 O 0.01269 0.1203 0.79935 0.0
H1148 H 0.992 0.10884 0.78731 0.0
H1149 H 0.97634 0.10776 0.79192 0.0
H1150 H 0.96977 0.1303 0.77518 0.0
H1151 H 0.98544 0.13108 0.77032 0.0
H1152 H 0.02759 0.13305 0.74965 0.0
H1153 H 0.02101 0.12754 0.76359 0.0
H1154 H 0.05416 0.12819 0.76022 0.0
H1155 H 0.04754 0.1226 0.77399 0.0
H1156 H 0.04291 0.10746 0.80973 0.0
H1157 H 0.02247 0.1062 0.83013 0.0
H1158 H 0.01089 0.10869 0.81879 0.0
H1159 H 0.0313 0.11018 0.79852 0.0
C1160 C 0.88028 0.26294 0.48765 0.0
C1161 C 0.87901 0.26481 0.47858 0.0
C1162 C 0.87412 0.24947 0.47584 0.0
C1163 C 0.87593 0.25815 0.47274 0.0
C1164 C 0.87545 0.2476 0.48494 0.0
C1165 C 0.8785 0.25431 0.4908 0.0
U1166 U 0.89036 0.28586 0.49063 0.0
O1167 O 0.88718 0.29699 0.49973 0.0
O1168 O 0.90069 0.29107 0.49987 0.0
C1169 C 0.89506 0.29667 0.50371 0.0
C1170 C 0.88358 0.26997 0.49373 0.0
C1171 C 0.89491 0.29656 0.51352 0.0
C1172 C 0.88758 0.293 0.52752 0.0
C1173 C 0.88785 0.2925 0.51821 0.0
C1174 C 0.90159 0.3013 0.52758 0.0
C1175 C 0.89441 0.29748 0.5323 0.0
C1176 C 0.90181 0.30086 0.51827 0.0
C1177 C 0.89522 0.29905 0.46947 0.0
C1178 C 0.8988 0.31494 0.46962 0.0
C1179 C 0.8987 0.30662 0.45566 0.0
C1180 C 0.89643 0.29882 0.46022 0.0
C1181 C 0.89976 0.3148 0.46029 0.0
C1182 C 0.89654 0.30711 0.47418 0.0
C1183 C 0.89219 0.29093 0.47402 0.0
O1184 O 0.89226 0.2715 0.49333 0.0
O1185 O 0.87876 0.27736 0.49382 0.0
O1186 O 0.88467 0.29179 0.47853 0.0
O1187 O 0.89841 0.28647 0.47834 0.0
H1188 H 0.88043 0.27143 0.47602 0.0
H1189 H 0.87511 0.25976 0.46575 0.0
H1190 H 0.87406 0.24099 0.48753 0.0
H1191 H 0.87947 0.25275 0.49778 0.0
H1192 H 0.88202 0.28993 0.53099 0.0
H1193 H 0.88248 0.28907 0.51468 0.0
H1194 H 0.90689 0.30487 0.53106 0.0
H1195 H 0.90731 0.30402 0.51477 0.0
H1196 H 0.8995 0.32114 0.47337 0.0
H1197 H 0.89955 0.30626 0.4485 0.0
H1198 H 0.89547 0.29263 0.4565 0.0
H1199 H 0.89563 0.30738 0.48135 0.0
C1200 C 0.51067 0.87841 0.76726 0.0
C1201 C 0.51219 0.8788 0.77649 0.0
C1202 C 0.49682 0.88375 0.77894 0.0
C1203 C 0.50535 0.88146 0.78227 0.0
C1204 C 0.49532 0.88333 0.76966 0.0
C1205 C 0.50221 0.88067 0.76387 0.0
U1206 U 0.53427 0.87014 0.76485 0.0
O1207 O 0.54054 0.86027 0.75588 0.0
O1208 O 0.54534 0.8742 0.75607 0.0
C1209 C 0.54585 0.86626 0.75225 0.0
C1210 C 0.51799 0.87571 0.76127 0.0
C1211 C 0.54616 0.86624 0.74247 0.0
C1212 C 0.53882 0.86602 0.72797 0.0
C1213 C 0.53829 0.86615 0.7373 0.0
C1214 C 0.55507 0.86618 0.72896 0.0
C1215 C 0.54723 0.86598 0.7237 0.0
C1216 C 0.55452 0.86629 0.73824 0.0
C1217 C 0.54724 0.86605 0.78644 0.0
C1218 C 0.56346 0.86447 0.78728 0.0
C1219 C 0.55425 0.86098 0.8001 0.0
C1220 C 0.54655 0.86314 0.79525 0.0
C1221 C 0.56282 0.86173 0.79621 0.0
C1222 C 0.55573 0.8666 0.78242 0.0
C1223 C 0.53906 0.86863 0.78161 0.0
O1224 O 0.52501 0.88106 0.76146 0.0
O1225 O 0.52015 0.86718 0.76159 0.0
O1226 O 0.53505 0.86217 0.77712 0.0
O1227 O 0.53956 0.87619 0.77719 0.0
H1228 H 0.51871 0.87709 0.77921 0.0
H1229 H 0.5068 0.88185 0.78934 0.0
H1230 H 0.48881 0.88497 0.7669 0.0
H1231 H 0.50093 0.88039 0.75676 0.0
H1232 H 0.53266 0.86581 0.72412 0.0
H1233 H 0.53176 0.86615 0.74047 0.0
H1234 H 0.56165 0.86634 0.7259 0.0
H1235 H 0.56066 0.86641 0.74214 0.0
H1236 H 0.56994 0.8652 0.7841 0.0
H1237 H 0.5535 0.85872 0.8069 0.0
H1238 H 0.54004 0.86261 0.79843 0.0
H1239 H 0.55638 0.86879 0.77558 0.0
C1240 C 0.98442 0.13835 0.23889 0.0
C1241 C 0.97788 0.14451 0.23615 0.0
C1242 C 0.97967 0.13961 0.22074 0.0
C1243 C 0.97556 0.14518 0.22715 0.0
C1244 C 0.98633 0.13355 0.2235 0.0
C1245 C 0.98869 0.13294 0.2325 0.0
U1246 U 0.97676 0.13958 0.26286 0.0
O1247 O 0.97825 0.13 0.27382 0.0
O1248 O 0.9837 0.14363 0.27521 0.0
C1249 C 0.98301 0.13561 0.27872 0.0
C1250 C 0.98633 0.13706 0.24842 0.0
C1251 C 0.99127 0.13193 0.28257 0.0
C1252 C 0.00689 0.1274 0.28134 0.0
C1253 C 0.9991 0.13092 0.27747 0.0
C1254 C 0.99903 0.12582 0.29538 0.0
C1255 C 0.00692 0.1248 0.29035 0.0
C1256 C 0.99128 0.12935 0.29152 0.0
C1257 C 0.95334 0.14767 0.26817 0.0
C1258 C 0.948 0.14708 0.28344 0.0
C1259 C 0.93827 0.15269 0.27177 0.0
C1260 C 0.94507 0.15124 0.2655 0.0
C1261 C 0.93963 0.15056 0.2808 0.0
C1262 C 0.95479 0.14565 0.27718 0.0
C1263 C 0.96036 0.14584 0.26156 0.0
O1264 O 0.98681 0.14441 0.25331 0.0
O1265 O 0.98163 0.13067 0.25217 0.0
O1266 O 0.96236 0.13732 0.26051 0.0
O1267 O 0.96748 0.15103 0.26213 0.0
H1268 H 0.97441 0.14866 0.241 0.0
H1269 H 0.97031 0.14981 0.22525 0.0
H1270 H 0.98964 0.12922 0.2187 0.0
H1271 H 0.99372 0.12811 0.23451 0.0
H1272 H 0.01284 0.12663 0.27728 0.0
H1273 H 0.99918 0.13285 0.27052 0.0
H1274 H 0.99887 0.12402 0.30236 0.0
H1275 H 0.98529 0.13011 0.29554 0.0
H1276 H 0.94931 0.14549 0.29035 0.0
H1277 H 0.93188 0.1553 0.26952 0.0
H1278 H 0.94385 0.15281 0.25856 0.0
H1279 H 0.96116 0.14291 0.27935 0.0
C1280 C 0.51169 0.13129 0.74377 0.0
C1281 C 0.51339 0.13053 0.7346 0.0
C1282 C 0.49811 0.12534 0.732 0.0
C1283 C 0.50667 0.12757 0.72877 0.0
C1284 C 0.49641 0.12619 0.74121 0.0
C1285 C 0.50317 0.12913 0.74705 0.0
U1286 U 0.53516 0.13999 0.74649 0.0
O1287 O 0.5411 0.15023 0.75533 0.0
O1288 O 0.54608 0.13639 0.75566 0.0
C1289 C 0.54643 0.14445 0.75925 0.0
C1290 C 0.51887 0.13429 0.74983 0.0
C1291 C 0.54653 0.14476 0.76903 0.0
C1292 C 0.53901 0.14374 0.78335 0.0
C1293 C 0.53868 0.14345 0.77401 0.0
C1294 C 0.55502 0.14663 0.78273 0.0
C1295 C 0.5472 0.14536 0.78781 0.0
C1296 C 0.55468 0.14634 0.77343 0.0
C1297 C 0.54861 0.14362 0.7252 0.0
C1298 C 0.5648 0.14562 0.72496 0.0
C1299 C 0.55601 0.14822 0.7116 0.0
C1300 C 0.54818 0.14607 0.71622 0.0
C1301 C 0.56443 0.14791 0.71588 0.0
C1302 C 0.55694 0.14351 0.72959 0.0
C1303 C 0.54032 0.14106 0.72982 0.0
O1304 O 0.52596 0.12904 0.74998 0.0
O1305 O 0.52094 0.14283 0.74928 0.0
O1306 O 0.53613 0.14759 0.734 0.0
O1307 O 0.54078 0.13365 0.73448 0.0
H1308 H 0.51994 0.13222 0.73195 0.0
H1309 H 0.50816 0.12713 0.72171 0.0
H1310 H 0.4899 0.12446 0.7439 0.0
H1311 H 0.50176 0.12968 0.75412 0.0
H1312 H 0.53286 0.1428 0.78706 0.0
H1313 H 0.53233 0.1422 0.77069 0.0
H1314 H 0.56147 0.1477 0.78593 0.0
H1315 H 0.5608 0.14731 0.76967 0.0
H1316 H 0.57117 0.14525 0.72844 0.0
H1317 H 0.55547 0.15012 0.70467 0.0
H1318 H 0.54179 0.14625 0.71276 0.0
H1319 H 0.55738 0.14167 0.73655 0.0
C1320 C 0.13927 0.2424 0.97853 0.0
C1321 C 0.14304 0.23995 0.9703 0.0
C1322 C 0.14108 0.22416 0.97379 0.0
C1323 C 0.14395 0.23092 0.96796 0.0
C1324 C 0.13742 0.22666 0.98209 0.0
C1325 C 0.13653 0.23572 0.98444 0.0
U1326 U 0.13956 0.26649 0.97127 0.0
O1327 O 0.12982 0.27737 0.9733 0.0
O1328 O 0.14367 0.27891 0.97815 0.0
C1329 C 0.13554 0.28233 0.97785 0.0
C1330 C 0.1378 0.25189 0.98071 0.0
C1331 C 0.13213 0.2861 0.98625 0.0
C1332 C 0.1283 0.2847 1.00192 0.0
C1333 C 0.13158 0.28091 0.994 0.0
C1334 C 0.12604 0.29882 0.99437 0.0
C1335 C 0.12547 0.2937 1.00218 0.0
C1336 C 0.12934 0.29505 0.98649 0.0
C1337 C 0.1466 0.27204 0.94777 0.0
C1338 C 0.14551 0.28739 0.94265 0.0
C1339 C 0.15127 0.27581 0.93277 0.0
C1340 C 0.15009 0.26946 0.93948 0.0
C1341 C 0.14893 0.28484 0.93427 0.0
C1342 C 0.14436 0.28104 0.94935 0.0
C1343 C 0.14517 0.26534 0.95473 0.0
O1344 O 0.14508 0.25689 0.9809 0.0
O1345 O 0.13111 0.2556 0.97638 0.0
O1346 O 0.13674 0.26419 0.95705 0.0
O1347 O 0.15065 0.26594 0.9616 0.0
H1348 H 0.14513 0.24504 0.96563 0.0
H1349 H 0.14665 0.22925 0.96145 0.0
H1350 H 0.13521 0.22162 0.98676 0.0
H1351 H 0.13358 0.23751 0.99081 0.0
H1352 H 0.12787 0.28057 0.0078 0.0
H1353 H 0.13368 0.27396 0.9939 0.0
H1354 H 0.12406 0.30581 0.99438 0.0
H1355 H 0.12974 0.29914 0.98056 0.0
H1356 H 0.14377 0.2943 0.94406 0.0
H1357 H 0.15384 0.27363 0.92636 0.0
H1358 H 0.15184 0.26253 0.93816 0.0
H1359 H 0.14169 0.28315 0.95575 0.0
C1360 C 0.37952 0.73809 0.49948 0.0
C1361 C 0.38021 0.72886 0.49778 0.0
C1362 C 0.38563 0.72645 0.5129 0.0
C1363 C 0.38324 0.72309 0.50442 0.0
C1364 C 0.38491 0.73573 0.51456 0.0
C1365 C 0.38189 0.7415 0.50789 0.0
U1366 U 0.37018 0.74063 0.47638 0.0
O1367 O 0.35949 0.74926 0.47101 0.0
O1368 O 0.37318 0.75002 0.4656 0.0
C1369 C 0.36506 0.75348 0.4657 0.0
C1370 C 0.37625 0.74407 0.49247 0.0
C1371 C 0.36449 0.76334 0.46584 0.0
C1372 C 0.37107 0.77804 0.46856 0.0
C1373 C 0.37152 0.7687 0.46917 0.0
C1374 C 0.35641 0.77678 0.46164 0.0
C1375 C 0.36357 0.78219 0.46465 0.0
C1376 C 0.35689 0.76746 0.4622 0.0
C1377 C 0.36667 0.71911 0.46279 0.0
C1378 C 0.36461 0.71858 0.44671 0.0
C1379 C 0.36215 0.70525 0.4555 0.0
C1380 C 0.36428 0.71005 0.46325 0.0
C1381 C 0.36242 0.70942 0.44712 0.0
C1382 C 0.36671 0.7234 0.4545 0.0
C1383 C 0.36933 0.72388 0.47099 0.0
O1384 O 0.38133 0.74437 0.48531 0.0
O1385 O 0.36766 0.74328 0.49061 0.0
O1386 O 0.3628 0.72785 0.47538 0.0
O1387 O 0.37662 0.72881 0.4704 0.0
H1388 H 0.37835 0.72611 0.49132 0.0
H1389 H 0.38357 0.71598 0.50296 0.0
H1390 H 0.38678 0.73853 0.521 0.0
H1391 H 0.3814 0.74862 0.5093 0.0
H1392 H 0.37674 0.78198 0.47088 0.0
H1393 H 0.37745 0.76567 0.47206 0.0
H1394 H 0.35045 0.77975 0.45875 0.0
H1395 H 0.35137 0.76345 0.45964 0.0
H1396 H 0.36495 0.72198 0.44037 0.0
H1397 H 0.36031 0.69825 0.45608 0.0
H1398 H 0.36415 0.70666 0.46961 0.0
H1399 H 0.3685 0.73042 0.45403 0.0
C1400 C 0.74328 0.52709 0.87031 0.0
C1401 C 0.74088 0.53534 0.86658 0.0
C1402 C 0.72504 0.53166 0.86821 0.0
C1403 C 0.73185 0.5376 0.86552 0.0
C1404 C 0.72749 0.52336 0.87187 0.0
C1405 C 0.73655 0.52109 0.8729 0.0
U1406 U 0.76747 0.53451 0.87035 0.0
O1407 O 0.77844 0.53227 0.87987 0.0
O1408 O 0.77983 0.52768 0.86598 0.0
C1409 C 0.78328 0.52776 0.87405 0.0
C1410 C 0.75278 0.52493 0.87179 0.0
C1411 C 0.78704 0.51921 0.87713 0.0
C1412 C 0.78649 0.50598 0.88647 0.0
C1413 C 0.7825 0.51382 0.88329 0.0
C1414 C 0.79947 0.5087 0.87714 0.0
C1415 C 0.79505 0.50337 0.88346 0.0
C1416 C 0.7955 0.51655 0.87403 0.0
C1417 C 0.77311 0.55833 0.86397 0.0
C1418 C 0.78846 0.56367 0.86524 0.0
C1419 C 0.77687 0.57347 0.85951 0.0
C1420 C 0.77052 0.56664 0.86056 0.0
C1421 C 0.78591 0.57207 0.86189 0.0
C1422 C 0.78212 0.55686 0.86627 0.0
C1423 C 0.7664 0.55125 0.86525 0.0
O1424 O 0.7578 0.52491 0.86459 0.0
O1425 O 0.75651 0.52918 0.87857 0.0
O1426 O 0.7653 0.54874 0.87355 0.0
O1427 O 0.76692 0.54447 0.85962 0.0
H1428 H 0.74601 0.54009 0.86461 0.0
H1429 H 0.73021 0.54411 0.86283 0.0
H1430 H 0.72241 0.51862 0.87393 0.0
H1431 H 0.7383 0.5147 0.87581 0.0
H1432 H 0.78289 0.50196 0.89127 0.0
H1433 H 0.77592 0.51572 0.88573 0.0
H1434 H 0.80611 0.50692 0.87478 0.0
H1435 H 0.79912 0.52063 0.86929 0.0
H1436 H 0.79539 0.56234 0.86701 0.0
H1437 H 0.77468 0.57988 0.85699 0.0
H1438 H 0.76358 0.56788 0.85877 0.0
H1439 H 0.78423 0.55044 0.86888 0.0
C1440 C 0.74062 0.51103 0.13403 0.0
C1441 C 0.73137 0.51247 0.13307 0.0
C1442 C 0.72922 0.49687 0.12869 0.0
C1443 C 0.72572 0.50546 0.13042 0.0
C1444 C 0.73852 0.49545 0.12971 0.0
C1445 C 0.74418 0.5025 0.13235 0.0
U1446 U 0.7428 0.53511 0.14112 0.0
O1447 O 0.75114 0.54177 0.15137 0.0
O1448 O 0.75223 0.54574 0.13733 0.0
C1449 C 0.7554 0.54666 0.14548 0.0
C1450 C 0.7465 0.51847 0.13679 0.0
C1451 C 0.76522 0.54685 0.14625 0.0
C1452 C 0.77995 0.54084 0.14265 0.0
C1453 C 0.77057 0.54014 0.14237 0.0
C1454 C 0.77866 0.5548 0.15093 0.0
C1455 C 0.78409 0.54827 0.14681 0.0
C1456 C 0.76932 0.5541 0.15063 0.0
C1457 C 0.7214 0.54891 0.14252 0.0
C1458 C 0.7217 0.5646 0.14696 0.0
C1459 C 0.70774 0.55771 0.14213 0.0
C1460 C 0.71218 0.54957 0.14082 0.0
C1461 C 0.71245 0.56533 0.14518 0.0
C1462 C 0.72615 0.55645 0.14562 0.0
C1463 C 0.72601 0.54039 0.14083 0.0
O1464 O 0.74693 0.5251 0.1311 0.0
O1465 O 0.74543 0.5212 0.14508 0.0
O1466 O 0.72977 0.53668 0.14783 0.0
O1467 O 0.73117 0.54026 0.13373 0.0
H1468 H 0.72851 0.51902 0.13438 0.0
H1469 H 0.71859 0.50674 0.12984 0.0
H1470 H 0.74143 0.48894 0.12835 0.0
H1471 H 0.75131 0.50129 0.13306 0.0
H1472 H 0.78394 0.53572 0.13938 0.0
H1473 H 0.7675 0.53448 0.13896 0.0
H1474 H 0.78163 0.56052 0.15432 0.0
H1475 H 0.76528 0.55931 0.1537 0.0
H1476 H 0.72553 0.57037 0.14924 0.0
H1477 H 0.70059 0.55802 0.14083 0.0
H1478 H 0.70843 0.5438 0.13843 0.0
H1479 H 0.7333 0.55604 0.14692 0.0
C1480 C 0.74162 0.49996 0.37776 0.0
C1481 C 0.73235 0.49844 0.37847 0.0
C1482 C 0.73004 0.51395 0.38305 0.0
C1483 C 0.72662 0.50536 0.38109 0.0
C1484 C 0.73934 0.51546 0.38227 0.0
C1485 C 0.74509 0.5085 0.37966 0.0
U1486 U 0.74404 0.47601 0.3704 0.0
O1487 O 0.75258 0.4695 0.36033 0.0
O1488 O 0.75347 0.46542 0.37434 0.0
C1489 C 0.75682 0.46464 0.36627 0.0
C1490 C 0.74759 0.4926 0.37507 0.0
C1491 C 0.76666 0.46479 0.36575 0.0
C1492 C 0.78087 0.4728 0.36602 0.0
C1493 C 0.77148 0.47284 0.36651 0.0
C1494 C 0.78064 0.45665 0.36407 0.0
C1495 C 0.78556 0.46469 0.36477 0.0
C1496 C 0.77128 0.45671 0.36455 0.0
C1497 C 0.72239 0.4624 0.36801 0.0
C1498 C 0.72184 0.44615 0.36693 0.0
C1499 C 0.70843 0.4549 0.36419 0.0
C1500 C 0.71327 0.46277 0.36577 0.0
C1501 C 0.71262 0.44648 0.36486 0.0
C1502 C 0.72669 0.45405 0.36848 0.0
C1503 C 0.72722 0.47076 0.37 0.0
O1504 O 0.74787 0.48589 0.38068 0.0
O1505 O 0.74676 0.48999 0.36671 0.0
O1506 O 0.73121 0.47454 0.36319 0.0
O1507 O 0.73218 0.47072 0.37727 0.0
H1508 H 0.72956 0.49188 0.37698 0.0
H1509 H 0.71948 0.50401 0.38148 0.0
H1510 H 0.74219 0.52198 0.3838 0.0
H1511 H 0.75224 0.50977 0.37915 0.0
H1512 H 0.78445 0.4791 0.36652 0.0
H1513 H 0.76799 0.47915 0.36746 0.0
H1514 H 0.78402 0.45027 0.36329 0.0
H1515 H 0.76764 0.45044 0.36401 0.0
H1516 H 0.72526 0.43978 0.36757 0.0
H1517 H 0.70139 0.45541 0.36244 0.0
H1518 H 0.70987 0.46917 0.36531 0.0
H1519 H 0.73376 0.45364 0.37017 0.0
C1520 C 0.74126 0.48351 0.6383 0.0
C1521 C 0.73915 0.47438 0.63894 0.0
C1522 C 0.72321 0.47791 0.63906 0.0
C1523 C 0.73021 0.4716 0.6393 0.0
C1524 C 0.72536 0.48708 0.63856 0.0
C1525 C 0.73434 0.48985 0.63816 0.0
U1526 U 0.76569 0.4775 0.64022 0.0
O1527 O 0.7773 0.48056 0.6318 0.0
O1528 O 0.77727 0.48483 0.64586 0.0
C1529 C 0.78141 0.48513 0.63813 0.0
C1530 C 0.75069 0.48634 0.63779 0.0
C1531 C 0.78499 0.49391 0.63554 0.0
C1532 C 0.78408 0.50761 0.62693 0.0
C1533 C 0.78021 0.4996 0.62983 0.0
C1534 C 0.7974 0.50446 0.63567 0.0
C1535 C 0.79276 0.51008 0.62975 0.0
C1536 C 0.79355 0.49645 0.63852 0.0
C1537 C 0.77181 0.45366 0.64621 0.0
C1538 C 0.78737 0.44948 0.64862 0.0
C1539 C 0.77589 0.43798 0.64753 0.0
C1540 C 0.76937 0.4446 0.64632 0.0
C1541 C 0.78499 0.44034 0.64865 0.0
C1542 C 0.78085 0.45607 0.64738 0.0
C1543 C 0.76498 0.46053 0.64458 0.0
O1544 O 0.75505 0.48633 0.64542 0.0
O1545 O 0.75527 0.48266 0.63122 0.0
O1546 O 0.76451 0.46331 0.6363 0.0
O1547 O 0.76469 0.4671 0.65047 0.0
H1548 H 0.74443 0.46939 0.63914 0.0
H1549 H 0.72878 0.4645 0.63983 0.0
H1550 H 0.7201 0.49208 0.63832 0.0
H1551 H 0.73587 0.49693 0.63769 0.0
H1552 H 0.78031 0.51184 0.62245 0.0
H1553 H 0.77356 0.49777 0.6275 0.0
H1554 H 0.80414 0.50612 0.63788 0.0
H1555 H 0.79734 0.49213 0.64291 0.0
H1556 H 0.79429 0.45154 0.64958 0.0
H1557 H 0.77384 0.43102 0.64739 0.0
H1558 H 0.76242 0.44263 0.64537 0.0
H1559 H 0.78285 0.46305 0.64728 0.0
C1560 C 0.4916 0.13343 0.24922 0.0
C1561 C 0.48248 0.13492 0.24738 0.0
C1562 C 0.47988 0.13908 0.26289 0.0
C1563 C 0.47668 0.13774 0.25414 0.0
C1564 C 0.48902 0.13754 0.26471 0.0
C1565 C 0.49484 0.13475 0.25791 0.0
U1566 U 0.49434 0.12429 0.22596 0.0
O1567 O 0.50369 0.12767 0.2152 0.0
O1568 O 0.50332 0.11396 0.22039 0.0
C1569 C 0.50736 0.11966 0.21511 0.0
C1570 C 0.49763 0.13034 0.2421 0.0
C1571 C 0.51721 0.11948 0.21529 0.0
C1572 C 0.53153 0.12464 0.22123 0.0
C1573 C 0.52213 0.12462 0.22148 0.0
C1574 C 0.53114 0.1142 0.20876 0.0
C1575 C 0.53613 0.11947 0.21482 0.0
C1576 C 0.52177 0.11421 0.209 0.0
C1577 C 0.47311 0.12015 0.2123 0.0
C1578 C 0.47321 0.1177 0.19626 0.0
C1579 C 0.45954 0.1153 0.20466 0.0
C1580 C 0.46403 0.11769 0.21252 0.0
C1581 C 0.46406 0.11536 0.19643 0.0
C1582 C 0.47771 0.12004 0.20414 0.0
C1583 C 0.47762 0.12294 0.22058 0.0
O1584 O 0.49703 0.12176 0.24016 0.0
O1585 O 0.49779 0.13545 0.235 0.0
O1586 O 0.48231 0.13039 0.2201 0.0
O1587 O 0.48178 0.11655 0.22492 0.0
H1588 H 0.47985 0.13385 0.24071 0.0
H1589 H 0.46965 0.13873 0.25255 0.0
H1590 H 0.49169 0.13857 0.27136 0.0
H1591 H 0.50186 0.13361 0.25944 0.0
H1592 H 0.53519 0.12871 0.22603 0.0
H1593 H 0.5187 0.12869 0.22643 0.0
H1594 H 0.53447 0.11024 0.20366 0.0
H1595 H 0.51807 0.11021 0.20416 0.0
H1596 H 0.47688 0.11771 0.19003 0.0
H1597 H 0.45247 0.11363 0.205 0.0
H1598 H 0.46039 0.11774 0.21877 0.0
H1599 H 0.48475 0.12185 0.20386 0.0
C1600 C 0.99018 0.88781 0.73273 0.0
C1601 C 0.98793 0.89155 0.72447 0.0
C1602 C 0.97207 0.88894 0.72736 0.0
C1603 C 0.97897 0.89212 0.72182 0.0
C1604 C 0.97435 0.88536 0.73572 0.0
C1605 C 0.98336 0.88478 0.73837 0.0
U1606 U 0.01445 0.89023 0.72646 0.0
O1607 O 0.02639 0.8945 0.73404 0.0
O1608 O 0.02591 0.88107 0.72792 0.0
C1609 C 0.03034 0.88667 0.73313 0.0
C1610 C 0.99966 0.88675 0.73521 0.0
C1611 C 0.03406 0.88277 0.74129 0.0
C1612 C 0.03274 0.87844 0.75682 0.0
C1613 C 0.02898 0.88218 0.74913 0.0
C1614 C 0.04662 0.87576 0.74882 0.0
C1615 C 0.0416 0.87518 0.75673 0.0
C1616 C 0.04288 0.87952 0.74118 0.0
C1617 C 0.02001 0.89954 0.70368 0.0
C1618 C 0.03543 0.90263 0.69944 0.0
C1619 C 0.02369 0.90243 0.68821 0.0
C1620 C 0.01734 0.90049 0.69477 0.0
C1621 C 0.03281 0.90348 0.69047 0.0
C1622 C 0.02908 0.90063 0.70599 0.0
C1623 C 0.01336 0.89705 0.71043 0.0
O1624 O 1.00399 0.88069 0.73049 0.0
O1625 O 1.00417 0.89427 0.73621 0.0
O1626 O 0.0134 0.90196 0.71775 0.0
O1627 O 0.01279 0.88841 0.71198 0.0
H1628 H 0.99313 0.89393 0.72004 0.0
H1629 H 0.97743 0.89503 0.7154 0.0
H1630 H 0.96921 0.88279 0.7401 0.0
H1631 H 0.985 0.88184 0.74475 0.0
H1632 H 0.02869 0.87802 0.76279 0.0
H1633 H 0.02212 0.8846 0.74931 0.0
H1634 H 0.0535 0.87344 0.74857 0.0
H1635 H 0.04689 0.87993 0.73518 0.0
H1636 H 0.04241 0.90327 0.70136 0.0
H1637 H 0.02146 0.90312 0.68137 0.0
H1638 H 0.01036 0.89964 0.69288 0.0
H1639 H 0.03127 0.89983 0.71283 0.0
C1640 C 0.5197 0.88771 0.27905 0.0
C1641 C 0.52228 0.88697 0.28801 0.0
C1642 C 0.53801 0.88804 0.28381 0.0
C1643 C 0.53135 0.88708 0.29037 0.0
C1644 C 0.53539 0.88894 0.27485 0.0
C1645 C 0.52629 0.88874 0.27248 0.0
U1646 U 0.49547 0.89031 0.2858 0.0
O1647 O 0.48386 0.89626 0.27894 0.0
O1648 O 0.48356 0.88211 0.28284 0.0
C1649 C 0.47948 0.88861 0.2786 0.0
C1650 C 0.51015 0.8875 0.27658 0.0
C1651 C 0.47563 0.88615 0.2699 0.0
C1652 C 0.47712 0.88024 0.25483 0.0
C1653 C 0.48102 0.8828 0.26297 0.0
C1654 C 0.46247 0.88446 0.26049 0.0
C1655 C 0.46779 0.88104 0.25351 0.0
C1656 C 0.46637 0.88699 0.2686 0.0
C1657 C 0.48996 0.89654 0.30964 0.0
C1658 C 0.47442 0.89873 0.314 0.0
C1659 C 0.48613 0.89858 0.32525 0.0
C1660 C 0.49257 0.89721 0.3186 0.0
C1661 C 0.47697 0.8993 0.32303 0.0
C1662 C 0.48086 0.89735 0.30737 0.0
C1663 C 0.49668 0.89472 0.30273 0.0
O1664 O 0.50547 0.88102 0.28023 0.0
O1665 O 0.50605 0.89529 0.27686 0.0
O1666 O 0.49702 0.90061 0.29627 0.0
O1667 O 0.49687 0.88638 0.29983 0.0
H1668 H 0.51727 0.88628 0.29319 0.0
H1669 H 0.53316 0.88652 0.29735 0.0
H1670 H 0.54039 0.88964 0.26965 0.0
H1671 H 0.52441 0.88937 0.26553 0.0
H1672 H 0.4814 0.87771 0.24955 0.0
H1673 H 0.4882 0.88212 0.26388 0.0
H1674 H 0.45526 0.88503 0.25975 0.0
H1675 H 0.46212 0.88952 0.27391 0.0
H1676 H 0.46745 0.89938 0.31205 0.0
H1677 H 0.48831 0.89887 0.33214 0.0
H1678 H 0.49957 0.89656 0.32046 0.0
H1679 H 0.47873 0.89683 0.30047 0.0
C1680 C 0.88089 0.74693 0.02186 0.0
C1681 C 0.88119 0.74591 0.03114 0.0
C1682 C 0.87571 0.76115 0.03322 0.0
C1683 C 0.87861 0.75295 0.03677 0.0
C1684 C 0.87539 0.76212 0.02389 0.0
C1685 C 0.87798 0.75505 0.01826 0.0
U1686 U 0.89029 0.72367 0.01958 0.0
O1687 O 0.8863 0.7122 0.01116 0.0
O1688 O 0.89994 0.71773 0.01016 0.0
C1689 C 0.89402 0.71201 0.00693 0.0
C1690 C 0.88362 0.73949 0.016 0.0
C1691 C 0.89341 0.71153 0.99717 0.0
C1692 C 0.88945 0.71801 0.98289 0.0
C1693 C 0.89013 0.71873 0.99219 0.0
C1694 C 0.8954 0.70291 0.98355 0.0
C1695 C 0.89203 0.71006 0.97848 0.0
C1696 C 0.89608 0.70365 0.99281 0.0
C1697 C 0.89644 0.71128 0.04076 0.0
C1698 C 0.90005 0.69541 0.04056 0.0
C1699 C 0.90151 0.70403 0.05427 0.0
C1700 C 0.89866 0.71171 0.04983 0.0
C1701 C 0.90216 0.69577 0.04971 0.0
C1702 C 0.89724 0.70312 0.03611 0.0
C1703 C 0.89313 0.71932 0.03626 0.0
O1704 O 0.89228 0.73779 0.01597 0.0
O1705 O 0.87866 0.73223 0.01666 0.0
O1706 O 0.88531 0.7184 0.03227 0.0
O1707 O 0.89907 0.72359 0.03141 0.0
H1708 H 0.88341 0.73966 0.03403 0.0
H1709 H 0.8788 0.75192 0.04391 0.0
H1710 H 0.87328 0.76838 0.02095 0.0
H1711 H 0.87772 0.75594 0.0111 0.0
H1712 H 0.88677 0.7236 0.97918 0.0
H1713 H 0.88803 0.72487 0.99549 0.0
H1714 H 0.89758 0.69676 0.98034 0.0
H1715 H 0.89866 0.69804 0.99657 0.0
H1716 H 0.90057 0.68917 0.03685 0.0
H1717 H 0.90298 0.7045 0.06134 0.0
H1718 H 0.89808 0.71797 0.0535 0.0
H1719 H 0.89559 0.70269 0.02908 0.0
C1720 C 0.62011 0.28168 0.49267 0.0
C1721 C 0.61805 0.29054 0.49043 0.0
C1722 C 0.61867 0.28666 0.47464 0.0
C1723 C 0.61736 0.29302 0.4815 0.0
C1724 C 0.62066 0.27775 0.47694 0.0
C1725 C 0.62138 0.27528 0.4859 0.0
U1726 U 0.61762 0.2877 0.51703 0.0
O1727 O 0.613 0.27977 0.52848 0.0
O1728 O 0.62655 0.28562 0.52848 0.0
C1729 C 0.62086 0.28025 0.53248 0.0
C1730 C 0.62099 0.27914 0.50207 0.0
C1731 C 0.62452 0.27173 0.53584 0.0
C1732 C 0.6365 0.26072 0.53684 0.0
C1733 C 0.6329 0.26844 0.53302 0.0
C1734 C 0.62327 0.25927 0.54608 0.0
C1735 C 0.63176 0.2561 0.54346 0.0
C1736 C 0.61971 0.26703 0.54233 0.0
C1737 C 0.60892 0.31061 0.5236 0.0
C1738 C 0.6068 0.31436 0.53924 0.0
C1739 C 0.60609 0.32601 0.5281 0.0
C1740 C 0.60768 0.31963 0.5214 0.0
C1741 C 0.60572 0.32347 0.53711 0.0
C1742 C 0.60842 0.308 0.53255 0.0
C1743 C 0.6112 0.30405 0.51662 0.0
O1744 O 0.62713 0.28363 0.50658 0.0
O1745 O 0.61337 0.27835 0.5064 0.0
O1746 O 0.60609 0.29686 0.51629 0.0
O1747 O 0.61981 0.30223 0.51598 0.0
H1748 H 0.61706 0.29557 0.49559 0.0
H1749 H 0.61596 0.29996 0.47997 0.0
H1750 H 0.6216 0.27266 0.47183 0.0
H1751 H 0.62293 0.2684 0.48754 0.0
H1752 H 0.64302 0.25837 0.53463 0.0
H1753 H 0.63674 0.2719 0.52798 0.0
H1754 H 0.61951 0.2559 0.55125 0.0
H1755 H 0.61326 0.26947 0.54463 0.0
H1756 H 0.60643 0.31215 0.54609 0.0
H1757 H 0.6054 0.33298 0.52623 0.0
H1758 H 0.60812 0.32176 0.51453 0.0
H1759 H 0.60939 0.30105 0.53436 0.0
C1760 C 0.24722 0.49245 0.13142 0.0
C1761 C 0.24563 0.48321 0.13205 0.0
C1762 C 0.26105 0.48084 0.13689 0.0
C1763 C 0.25247 0.47746 0.13479 0.0
C1764 C 0.26264 0.49011 0.13614 0.0
C1765 C 0.25575 0.49587 0.13345 0.0
U1766 U 0.22401 0.49525 0.12191 0.0
O1767 O 0.21275 0.50386 0.12605 0.0
O1768 O 0.21829 0.50495 0.11253 0.0
C1769 C 0.21274 0.50829 0.11851 0.0
C1770 C 0.23995 0.49847 0.12868 0.0
C1771 C 0.21259 0.51811 0.1194 0.0
C1772 C 0.22003 0.53262 0.11927 0.0
C1773 C 0.22043 0.52327 0.11852 0.0
C1774 C 0.20401 0.5317 0.12198 0.0
C1775 C 0.21181 0.53693 0.12101 0.0
C1776 C 0.20441 0.52238 0.12116 0.0
C1777 C 0.2111 0.47413 0.11535 0.0
C1778 C 0.19505 0.47407 0.11242 0.0
C1779 C 0.20393 0.46083 0.10922 0.0
C1780 C 0.21164 0.46529 0.1122 0.0
C1781 C 0.19553 0.46514 0.10938 0.0
C1782 C 0.20279 0.47855 0.11535 0.0
C1783 C 0.21922 0.4786 0.11875 0.0
O1784 O 0.23829 0.49858 0.12006 0.0
O1785 O 0.23263 0.49795 0.13353 0.0
O1786 O 0.21838 0.48253 0.12659 0.0
O1787 O 0.2236 0.48348 0.11295 0.0
H1788 H 0.23908 0.48045 0.13044 0.0
H1789 H 0.25108 0.47035 0.13516 0.0
H1790 H 0.26916 0.49291 0.13777 0.0
H1791 H 0.25708 0.50299 0.13298 0.0
H1792 H 0.22615 0.53648 0.11857 0.0
H1793 H 0.22684 0.52009 0.11723 0.0
H1794 H 0.19757 0.53482 0.12321 0.0
H1795 H 0.1983 0.5185 0.12186 0.0
H1796 H 0.1887 0.47759 0.11254 0.0
H1797 H 0.2045 0.45392 0.10702 0.0
H1798 H 0.21802 0.4618 0.11215 0.0
H1799 H 0.20227 0.48542 0.1177 0.0
C1800 C 0.2807 0.52056 0.88675 0.0
C1801 C 0.28707 0.52348 0.89305 0.0
C1802 C 0.28658 0.53856 0.88698 0.0
C1803 C 0.28993 0.53239 0.89321 0.0
C1804 C 0.28009 0.53563 0.88076 0.0
C1805 C 0.27718 0.5267 0.88065 0.0
U1806 U 0.28676 0.4963 0.89009 0.0
O1807 O 0.279 0.48487 0.8952 0.0
O1808 O 0.28463 0.48437 0.88168 0.0
C1809 C 0.27943 0.48048 0.88758 0.0
C1810 C 0.27814 0.51105 0.88615 0.0
C1811 C 0.27088 0.47685 0.88419 0.0
C1812 C 0.25806 0.4774 0.87414 0.0
C1813 C 0.26598 0.48122 0.8775 0.0
C1814 C 0.25975 0.46496 0.88428 0.0
C1815 C 0.25489 0.46921 0.87747 0.0
C1816 C 0.26769 0.46874 0.88759 0.0
C1817 C 0.30998 0.49089 0.89909 0.0
C1818 C 0.31433 0.4756 0.90243 0.0
C1819 C 0.32559 0.48735 0.90208 0.0
C1820 C 0.31894 0.4936 0.90003 0.0
C1821 C 0.32337 0.47826 0.90325 0.0
C1822 C 0.3077 0.48186 0.90033 0.0
C1823 C 0.30315 0.49744 0.89644 0.0
O1824 O 0.28266 0.50635 0.88023 0.0
O1825 O 0.27722 0.50693 0.89381 0.0
O1826 O 0.29596 0.49782 0.9015 0.0
O1827 O 0.3013 0.4975 0.88788 0.0
H1828 H 0.28993 0.51882 0.89778 0.0
H1829 H 0.29482 0.53443 0.89818 0.0
H1830 H 0.27745 0.54015 0.87579 0.0
H1831 H 0.27232 0.52455 0.87569 0.0
H1832 H 0.25441 0.48087 0.86896 0.0
H1833 H 0.26831 0.48754 0.87483 0.0
H1834 H 0.25754 0.45859 0.88691 0.0
H1835 H 0.27139 0.46527 0.89274 0.0
H1836 H 0.31243 0.46864 0.90317 0.0
H1837 H 0.33247 0.48961 0.90276 0.0
H1838 H 0.32081 0.50055 0.89907 0.0
H1839 H 0.30081 0.47964 0.89954 0.0
C1840 C 0.28118 0.48997 0.62355 0.0
C1841 C 0.28731 0.48699 0.61708 0.0
C1842 C 0.28647 0.47182 0.62289 0.0
C1843 C 0.28988 0.478 0.61672 0.0
C1844 C 0.28023 0.47483 0.62929 0.0
C1845 C 0.2776 0.48383 0.6296 0.0
U1846 U 0.28794 0.51417 0.62078 0.0
O1847 O 0.28054 0.52595 0.61602 0.0
O1848 O 0.28614 0.52589 0.62958 0.0
C1849 C 0.28121 0.53017 0.62372 0.0
C1850 C 0.27895 0.49954 0.62438 0.0
C1851 C 0.27287 0.53411 0.62715 0.0
C1852 C 0.2578 0.53271 0.63316 0.0
C1853 C 0.26572 0.52874 0.63003 0.0
C1854 C 0.26418 0.54742 0.63059 0.0
C1855 C 0.25693 0.54211 0.63341 0.0
C1856 C 0.27207 0.54345 0.62748 0.0
C1857 C 0.31091 0.51981 0.61188 0.0
C1858 C 0.31487 0.53539 0.60953 0.0
C1859 C 0.32637 0.52393 0.60882 0.0
C1860 C 0.31989 0.51737 0.61057 0.0
C1861 C 0.32394 0.53303 0.60838 0.0
C1862 C 0.30842 0.52885 0.61129 0.0
C1863 C 0.30424 0.51301 0.61431 0.0
O1864 O 0.28366 0.50396 0.63039 0.0
O1865 O 0.27808 0.50389 0.61682 0.0
O1866 O 0.29699 0.51276 0.60929 0.0
O1867 O 0.30247 0.51263 0.62288 0.0
H1868 H 0.29021 0.49164 0.61238 0.0
H1869 H 0.29459 0.4759 0.61162 0.0
H1870 H 0.27756 0.4703 0.63422 0.0
H1871 H 0.27293 0.48603 0.63469 0.0
H1872 H 0.25231 0.52844 0.63522 0.0
H1873 H 0.26625 0.5215 0.6298 0.0
H1874 H 0.26379 0.55467 0.63084 0.0
H1875 H 0.27755 0.54768 0.62532 0.0
H1876 H 0.31275 0.54232 0.6091 0.0
H1877 H 0.33331 0.52189 0.60808 0.0
H1878 H 0.32193 0.51042 0.61107 0.0
H1879 H 0.3015 0.53085 0.61232 0.0
C1880 C 0.24752 0.51716 0.37957 0.0
C1881 C 0.24745 0.52631 0.38176 0.0
C1882 C 0.26141 0.52847 0.37364 0.0
C1883 C 0.25434 0.53192 0.37884 0.0
C1884 C 0.26142 0.51928 0.37142 0.0
C1885 C 0.25452 0.51367 0.37438 0.0
U1886 U 0.22468 0.51499 0.38999 0.0
O1887 O 0.21301 0.50664 0.38654 0.0
O1888 O 0.21927 0.50547 0.39977 0.0
C1889 C 0.21327 0.50229 0.39413 0.0
C1890 C 0.24017 0.51134 0.38254 0.0
C1891 C 0.21267 0.49247 0.39348 0.0
C1892 C 0.21554 0.47839 0.38573 0.0
C1893 C 0.21673 0.48767 0.38648 0.0
C1894 C 0.20652 0.47859 0.39917 0.0
C1895 C 0.2103 0.47376 0.39201 0.0
C1896 C 0.20768 0.48785 0.39988 0.0
C1897 C 0.21252 0.5363 0.39692 0.0
C1898 C 0.19671 0.53626 0.40083 0.0
C1899 C 0.20546 0.54989 0.40245 0.0
C1900 C 0.21307 0.54536 0.39936 0.0
C1901 C 0.19717 0.54541 0.40313 0.0
C1902 C 0.20433 0.53173 0.39778 0.0
C1903 C 0.22044 0.53175 0.39324 0.0
O1904 O 0.2389 0.51121 0.39121 0.0
O1905 O 0.23267 0.51213 0.37798 0.0
O1906 O 0.21918 0.52781 0.38546 0.0
O1907 O 0.22499 0.52682 0.39888 0.0
H1908 H 0.24203 0.52913 0.38569 0.0
H1909 H 0.25405 0.53898 0.38054 0.0
H1910 H 0.26681 0.51642 0.36748 0.0
H1911 H 0.25465 0.50661 0.37261 0.0
H1912 H 0.21849 0.47489 0.38011 0.0
H1913 H 0.22066 0.49112 0.38149 0.0
H1914 H 0.20261 0.47522 0.40421 0.0
H1915 H 0.20456 0.49144 0.40537 0.0
H1916 H 0.19044 0.53261 0.40138 0.0
H1917 H 0.20601 0.55696 0.40407 0.0
H1918 H 0.21935 0.54898 0.39872 0.0
H1919 H 0.20382 0.5247 0.39597 0.0
C1920 C 0.11855 0.40289 0.10717 0.0
C1921 C 0.12025 0.40686 0.09888 0.0
C1922 C 0.1125 0.39579 0.10786 0.0
C1923 C 0.10793 0.3925 0.10029 0.0
C1924 C 0.10954 0.39655 0.092 0.0
C1925 C 0.11566 0.40363 0.0913 0.0
C1926 C 0.10177 0.38469 0.10105 0.0
C1927 C 0.09624 0.38379 0.10857 0.0
C1928 C 0.09104 0.37604 0.10984 0.0
C1929 C 0.09112 0.36926 0.10327 0.0
C1930 C 0.09646 0.37012 0.0956 0.0
C1931 C 0.10178 0.37784 0.09457 0.0
C1932 C 0.09695 0.36278 0.08884 0.0
C1933 C 0.09771 0.3538 0.09148 0.0
C1934 C 0.09712 0.36478 0.0797 0.0
C1935 C 0.0983 0.35798 0.07335 0.0
C1936 C 0.09933 0.34902 0.07599 0.0
C1937 C 0.08593 0.37493 0.11827 0.0
C1938 C 0.08984 0.37757 0.12642 0.0
C1939 C 0.07721 0.37129 0.11829 0.0
C1940 C 0.07245 0.37049 0.1263 0.0
C1941 C 0.07631 0.37333 0.13441 0.0
C1942 C 0.08509 0.3768 0.13437 0.0
C1943 C 0.0989 0.34699 0.08512 0.0
H1944 H 0.12211 0.4051 0.1131 0.0
H1945 H 0.11158 0.39272 0.11431 0.0
H1946 H 0.10606 0.39425 0.08605 0.0
H1947 H 0.11678 0.40661 0.08484 0.0
H1948 H 0.09603 0.38914 0.11349 0.0
H1949 H 0.10624 0.37833 0.0889 0.0
H1950 H 0.08716 0.36325 0.1042 0.0
H1951 H 0.09768 0.35205 0.09847 0.0
H1952 H 0.09646 0.37162 0.07746 0.0
H1953 H 0.09868 0.35979 0.06639 0.0
H1954 H 0.09663 0.38017 0.12668 0.0
H1955 H 0.074 0.36923 0.11212 0.0
H1956 H 0.09958 0.34014 0.08737 0.0
H1957 H 0.08834 0.37885 0.14053 0.0
H1958 H 0.06568 0.3678 0.12613 0.0
C1959 C 0.89361 0.90436 0.41406 0.0
C1960 C 0.88935 0.90652 0.40598 0.0
C1961 C 0.90013 0.89762 0.41434 0.0
C1962 C 0.90253 0.89289 0.40655 0.0
C1963 C 0.89835 0.89515 0.39846 0.0
C1964 C 0.89188 0.90189 0.39817 0.0
C1965 C 0.90917 0.88545 0.40684 0.0
C1966 C 0.90903 0.87923 0.41382 0.0
C1967 C 0.91484 0.8718 0.41379 0.0
C1968 C 0.92091 0.87068 0.4067 0.0
C1969 C 0.92108 0.8768 0.39964 0.0
C1970 C 0.91529 0.88421 0.39982 0.0
C1971 C 0.92681 0.87514 0.39173 0.0
C1972 C 0.93595 0.87298 0.39263 0.0
C1973 C 0.92305 0.87564 0.38315 0.0
C1974 C 0.9283 0.87401 0.37562 0.0
C1975 C 0.93745 0.8719 0.37649 0.0
C1976 C 0.91407 0.86492 0.42086 0.0
C1977 C 0.91276 0.86747 0.42981 0.0
C1978 C 0.91417 0.85574 0.41864 0.0
C1979 C 0.91276 0.84928 0.42518 0.0
C1980 C 0.91122 0.85183 0.4341 0.0
C1981 C 0.91136 0.861 0.43635 0.0
C1982 C 0.94125 0.87145 0.38507 0.0
H1983 H 0.89178 0.90775 0.42021 0.0
H1984 H 0.90328 0.89611 0.42067 0.0
H1985 H 0.89994 0.89158 0.39235 0.0
H1986 H 0.88884 0.90347 0.39181 0.0
H1987 H 0.90406 0.87992 0.41905 0.0
H1988 H 0.91552 0.88899 0.39443 0.0
H1989 H 0.92533 0.86492 0.40653 0.0
H1990 H 0.939 0.87258 0.39918 0.0
H1991 H 0.916 0.87721 0.38225 0.0
H1992 H 0.92521 0.8745 0.36909 0.0
H1993 H 0.91273 0.87448 0.43175 0.0
H1994 H 0.91506 0.85355 0.4118 0.0
H1995 H 0.94828 0.86981 0.38591 0.0
H1996 H 0.91011 0.86321 0.44313 0.0
H1997 H 0.91281 0.84227 0.42324 0.0
C1998 C 0.39349 0.60668 0.59539 0.0
C1999 C 0.38919 0.60383 0.60321 0.0
C2000 C 0.39957 0.61383 0.59564 0.0
C2001 C 0.4015 0.61828 0.60372 0.0
C2002 C 0.39723 0.61541 0.61155 0.0
C2003 C 0.39117 0.60826 0.6113 0.0
C2004 C 0.40786 0.62597 0.60404 0.0
C2005 C 0.40765 0.63257 0.59742 0.0
C2006 C 0.41336 0.64008 0.5979 0.0
C2007 C 0.4194 0.64089 0.60509 0.0
C2008 C 0.41965 0.63439 0.6118 0.0
C2009 C 0.41392 0.62693 0.61117 0.0
C2010 C 0.42557 0.63555 0.61969 0.0
C2011 C 0.43465 0.63795 0.61873 0.0
C2012 C 0.42211 0.63426 0.6283 0.0
C2013 C 0.4276 0.63535 0.63578 0.0
C2014 C 0.43669 0.63769 0.63484 0.0
C2015 C 0.41261 0.64731 0.59117 0.0
C2016 C 0.41139 0.64521 0.58209 0.0
C2017 C 0.41272 0.65637 0.59384 0.0
C2018 C 0.41146 0.66315 0.5876 0.0
C2019 C 0.41004 0.66105 0.57854 0.0
C2020 C 0.41012 0.652 0.57585 0.0
C2021 C 0.44017 0.63895 0.62623 0.0
H2022 H 0.39206 0.60345 0.58904 0.0
H2023 H 0.4028 0.61584 0.58951 0.0
H2024 H 0.39847 0.61875 0.61787 0.0
H2025 H 0.38808 0.60617 0.61747 0.0
H2026 H 0.40275 0.63206 0.59208 0.0
H2027 H 0.41422 0.62182 0.61626 0.0
H2028 H 0.42379 0.64668 0.60558 0.0
H2029 H 0.43749 0.63894 0.61216 0.0
H2030 H 0.41512 0.63249 0.62924 0.0
H2031 H 0.42475 0.63424 0.64232 0.0
H2032 H 0.41136 0.6383 0.57981 0.0
H2033 H 0.41355 0.65822 0.60079 0.0
H2034 H 0.44715 0.64079 0.62532 0.0
H2035 H 0.40897 0.65014 0.56894 0.0
H2036 H 0.41154 0.67006 0.58988 0.0
C2037 C 0.62036 0.10805 0.9014 0.0
C2038 C 0.6218 0.1034 0.90939 0.0
C2039 C 0.61455 0.11538 0.90115 0.0
C2040 C 0.60999 0.11822 0.90888 0.0
C2041 C 0.61138 0.11351 0.91686 0.0
C2042 C 0.61724 0.10621 0.91711 0.0
C2043 C 0.60395 0.12615 0.90864 0.0
C2044 C 0.59841 0.12767 0.90121 0.0
C2045 C 0.59294 0.13532 0.90078 0.0
C2046 C 0.59292 0.14145 0.90794 0.0
C2047 C 0.59842 0.14005 0.91544 0.0
C2048 C 0.6039 0.13238 0.91571 0.0
C2049 C 0.59882 0.14673 0.92283 0.0
C2050 C 0.59939 0.15595 0.92103 0.0
C2051 C 0.59913 0.1439 0.93173 0.0
C2052 C 0.6003 0.1501 0.93867 0.0
C2053 C 0.6012 0.15929 0.93686 0.0
C2054 C 0.58751 0.13701 0.89266 0.0
C2055 C 0.59144 0.13611 0.8842 0.0
C2056 C 0.57842 0.13945 0.89328 0.0
C2057 C 0.57333 0.14084 0.88555 0.0
C2058 C 0.57728 0.13994 0.87709 0.0
C2059 C 0.5864 0.13759 0.8765 0.0
C2060 C 0.60057 0.16216 0.92798 0.0
H2061 H 0.62389 0.10613 0.89537 0.0
H2062 H 0.61379 0.11895 0.89494 0.0
H2063 H 0.60787 0.11543 0.9229 0.0
H2064 H 0.61813 0.10269 0.92334 0.0
H2065 H 0.59827 0.12285 0.89577 0.0
H2066 H 0.6084 0.13145 0.92132 0.0
H2067 H 0.58874 0.14738 0.90762 0.0
H2068 H 0.59927 0.15834 0.91423 0.0
H2069 H 0.59855 0.13686 0.93334 0.0
H2070 H 0.60057 0.14768 0.94545 0.0
H2071 H 0.59846 0.13431 0.88353 0.0
H2072 H 0.57522 0.14015 0.89973 0.0
H2073 H 0.60132 0.16918 0.92636 0.0
H2074 H 0.5896 0.13675 0.87007 0.0
H2075 H 0.56632 0.14268 0.88619 0.0
C2076 C 0.11752 0.6071 0.42042 0.0
C2077 C 0.12227 0.60409 0.41288 0.0
C2078 C 0.11128 0.61406 0.41971 0.0
C2079 C 0.10968 0.61818 0.41145 0.0
C2080 C 0.1144 0.6151 0.40392 0.0
C2081 C 0.12059 0.60813 0.40462 0.0
C2082 C 0.10337 0.62587 0.41069 0.0
C2083 C 0.10318 0.63263 0.41725 0.0
C2084 C 0.09773 0.64025 0.41624 0.0
C2085 C 0.09245 0.64108 0.4085 0.0
C2086 C 0.09256 0.63438 0.40185 0.0
C2087 C 0.09791 0.62674 0.4031 0.0
C2088 C 0.08747 0.63546 0.39339 0.0
C2089 C 0.07867 0.63888 0.39332 0.0
C2090 C 0.09146 0.63299 0.38524 0.0
C2091 C 0.08672 0.63372 0.37726 0.0
C2092 C 0.07788 0.63697 0.37718 0.0
C2093 C 0.09801 0.64751 0.42307 0.0
C2094 C 0.098 0.64541 0.43219 0.0
C2095 C 0.09878 0.65653 0.42055 0.0
C2096 C 0.09981 0.66327 0.42701 0.0
C2097 C 0.10005 0.66115 0.43612 0.0
C2098 C 0.099 0.65215 0.43864 0.0
C2099 C 0.07392 0.63965 0.38528 0.0
H2100 H 0.11862 0.60406 0.42686 0.0
H2101 H 0.10768 0.6162 0.42563 0.0
H2102 H 0.1135 0.61824 0.39749 0.0
H2103 H 0.12426 0.60608 0.39872 0.0
H2104 H 0.10759 0.63216 0.42299 0.0
H2105 H 0.09785 0.62144 0.39811 0.0
H2106 H 0.08839 0.64702 0.40758 0.0
H2107 H 0.07539 0.6408 0.39949 0.0
H2108 H 0.0983 0.63055 0.38502 0.0
H2109 H 0.09004 0.63181 0.37111 0.0
H2110 H 0.09734 0.63853 0.43434 0.0
H2111 H 0.09888 0.65835 0.41358 0.0
H2112 H 0.0671 0.64216 0.38542 0.0
H2113 H 0.09925 0.65027 0.4456 0.0
H2114 H 0.10051 0.67015 0.42486 0.0
C2115 C 0.61884 0.90155 0.60879 0.0
C2116 C 0.61992 0.9068 0.60112 0.0
C2117 C 0.6126 0.89457 0.60893 0.0
C2118 C 0.60732 0.89261 0.60139 0.0
C2119 C 0.60836 0.89785 0.59371 0.0
C2120 C 0.61457 0.90489 0.59358 0.0
C2121 C 0.60094 0.88496 0.60151 0.0
C2122 C 0.59555 0.88346 0.60902 0.0
C2123 C 0.58997 0.87589 0.60949 0.0
C2124 C 0.58974 0.8698 0.6023 0.0
C2125 C 0.59514 0.87115 0.59475 0.0
C2126 C 0.60064 0.87881 0.59437 0.0
C2127 C 0.59562 0.86427 0.58756 0.0
C2128 C 0.59644 0.85515 0.58969 0.0
C2129 C 0.59586 0.86679 0.57855 0.0
C2130 C 0.59715 0.86036 0.57184 0.0
C2131 C 0.59827 0.85128 0.57399 0.0
C2132 C 0.58478 0.87414 0.61772 0.0
C2133 C 0.589 0.87486 0.62608 0.0
C2134 C 0.57565 0.87175 0.61732 0.0
C2135 C 0.57082 0.87023 0.62516 0.0
C2136 C 0.57507 0.87093 0.63352 0.0
C2137 C 0.58421 0.87325 0.63389 0.0
C2138 C 0.59777 0.84873 0.58298 0.0
H2139 H 0.62297 0.90269 0.61464 0.0
H2140 H 0.61208 0.89055 0.61489 0.0
H2141 H 0.60432 0.89653 0.58782 0.0
H2142 H 0.61515 0.90886 0.5876 0.0
H2143 H 0.5957 0.88821 0.61453 0.0
H2144 H 0.60505 0.87974 0.58872 0.0
H2145 H 0.58555 0.86387 0.6027 0.0
H2146 H 0.59637 0.853 0.59657 0.0
H2147 H 0.59519 0.87376 0.57671 0.0
H2148 H 0.59757 0.86255 0.56498 0.0
H2149 H 0.59605 0.87661 0.62659 0.0
H2150 H 0.57224 0.87119 0.61095 0.0
H2151 H 0.59852 0.84177 0.58484 0.0
H2152 H 0.58764 0.87392 0.64024 0.0
H2153 H 0.56378 0.86842 0.62469 0.0
C2154 C 0.39122 0.40461 0.90118 0.0
C2155 C 0.38951 0.40884 0.90941 0.0
C2156 C 0.39704 0.3973 0.90066 0.0
C2157 C 0.40134 0.39406 0.90835 0.0
C2158 C 0.39968 0.39835 0.91657 0.0
C2159 C 0.3938 0.40564 0.9171 0.0
C2160 C 0.40737 0.38613 0.90777 0.0
C2161 C 0.4131 0.38497 0.90042 0.0
C2162 C 0.41839 0.37723 0.8995 0.0
C2163 C 0.4181 0.37069 0.90617 0.0
C2164 C 0.41246 0.37175 0.91362 0.0
C2165 C 0.40712 0.37949 0.91434 0.0
C2166 C 0.41177 0.36462 0.92044 0.0
C2167 C 0.41122 0.35554 0.91789 0.0
C2168 C 0.41125 0.36687 0.92954 0.0
C2169 C 0.41 0.36023 0.93593 0.0
C2170 C 0.40924 0.35117 0.93337 0.0
C2171 C 0.42385 0.37584 0.89133 0.0
C2172 C 0.42018 0.3778 0.88293 0.0
C2173 C 0.43267 0.37252 0.89181 0.0
C2174 C 0.43772 0.37123 0.88403 0.0
C2175 C 0.43401 0.37317 0.87564 0.0
C2176 C 0.42519 0.37648 0.87519 0.0
C2177 C 0.40997 0.3489 0.92428 0.0
H2178 H 0.38789 0.40683 0.89516 0.0
H2179 H 0.39801 0.39406 0.89424 0.0
H2180 H 0.40297 0.3961 0.9226 0.0
H2181 H 0.39268 0.40883 0.92352 0.0
H2182 H 0.41347 0.39013 0.8954 0.0
H2183 H 0.40249 0.38016 0.91987 0.0
H2184 H 0.42213 0.36468 0.90548 0.0
H2185 H 0.41152 0.35359 0.91092 0.0
H2186 H 0.41174 0.37379 0.93173 0.0
H2187 H 0.40939 0.36223 0.94286 0.0
H2188 H 0.41337 0.38026 0.88232 0.0
H2189 H 0.43569 0.371 0.89819 0.0
H2190 H 0.40951 0.34197 0.9221 0.0
H2191 H 0.42218 0.37815 0.86883 0.0
H2192 H 0.44448 0.36863 0.88458 0.0
C2193 C 0.89409 0.10692 0.09388 0.0
C2194 C 0.8902 0.10315 0.10151 0.0
C2195 C 0.89974 0.1144 0.09463 0.0
C2196 C 0.90157 0.11828 0.10303 0.0
C2197 C 0.89763 0.1145 0.11064 0.0
C2198 C 0.89204 0.10702 0.10989 0.0
C2199 C 0.90744 0.12631 0.10391 0.0
C2200 C 0.90681 0.13337 0.0978 0.0
C2201 C 0.91201 0.14118 0.09887 0.0
C2202 C 0.91785 0.14192 0.10623 0.0
C2203 C 0.91857 0.13493 0.11243 0.0
C2204 C 0.91346 0.12711 0.11109 0.0
C2205 C 0.9244 0.13584 0.12048 0.0
C2206 C 0.93289 0.13996 0.12003 0.0
C2207 C 0.92146 0.13251 0.12872 0.0
C2208 C 0.92693 0.13309 0.13626 0.0
C2209 C 0.93544 0.1371 0.1358 0.0
C2210 C 0.91104 0.14867 0.09246 0.0
C2211 C 0.91026 0.14691 0.08326 0.0
C2212 C 0.91062 0.15761 0.09549 0.0
C2213 C 0.90928 0.16459 0.08947 0.0
C2214 C 0.90833 0.16281 0.08029 0.0
C2215 C 0.90891 0.15388 0.07726 0.0
C2216 C 0.93835 0.14062 0.12764 0.0
H2217 H 0.89285 0.10404 0.08734 0.0
H2218 H 0.90274 0.11709 0.08865 0.0
H2219 H 0.89874 0.11742 0.11719 0.0
H2220 H 0.88901 0.10437 0.11588 0.0
H2221 H 0.90199 0.13292 0.09238 0.0
H2222 H 0.91418 0.12157 0.11567 0.0
H2223 H 0.92176 0.14798 0.10719 0.0
H2224 H 0.9354 0.14253 0.11378 0.0
H2225 H 0.91487 0.1295 0.12938 0.0
H2226 H 0.92444 0.13048 0.14251 0.0
H2227 H 0.91065 0.14011 0.0807 0.0
H2228 H 0.91111 0.1592 0.10253 0.0
H2229 H 0.9449 0.14372 0.12709 0.0
H2230 H 0.90811 0.15225 0.07025 0.0
H2231 H 0.90897 0.1714 0.09203 0.0
C2232 C 0.11229 0.11722 0.39848 0.0
C2233 C 0.10407 0.1195 0.40248 0.0
C2234 C 0.11265 0.11082 0.39165 0.0
C2235 C 0.10481 0.10646 0.38868 0.0
C2236 C 0.09659 0.10861 0.39279 0.0
C2237 C 0.09623 0.11506 0.39961 0.0
C2238 C 0.10523 0.0999 0.38116 0.0
C2239 C 0.11253 0.09401 0.38038 0.0
C2240 C 0.11345 0.08833 0.37293 0.0
C2241 C 0.10677 0.08836 0.36629 0.0
C2242 C 0.09934 0.09413 0.36699 0.0
C2243 C 0.09864 0.09987 0.37445 0.0
C2244 C 0.09254 0.09462 0.35974 0.0
C2245 C 0.0952 0.09485 0.35076 0.0
C2246 C 0.08337 0.09537 0.36179 0.0
C2247 C 0.07702 0.0966 0.35504 0.0
C2248 C 0.0797 0.09711 0.34607 0.0
C2249 C 0.12163 0.08273 0.37196 0.0
C2250 C 0.1301 0.08646 0.37388 0.0
C2251 C 0.1211 0.0737 0.36927 0.0
C2252 C 0.12887 0.06844 0.36875 0.0
C2253 C 0.13732 0.07213 0.37089 0.0
C2254 C 0.13783 0.08123 0.37334 0.0
C2255 C 0.08885 0.0961 0.34399 0.0
H2256 H 0.11849 0.12039 0.40061 0.0
H2257 H 0.11908 0.10943 0.38857 0.0
H2258 H 0.09043 0.10531 0.39072 0.0
H2259 H 0.08977 0.1167 0.40251 0.0
H2260 H 0.11757 0.09386 0.38561 0.0
H2261 H 0.09315 0.10462 0.37482 0.0
H2262 H 0.10746 0.08402 0.3605 0.0
H2263 H 0.10223 0.09437 0.34896 0.0
H2264 H 0.0811 0.09513 0.36864 0.0
H2265 H 0.07004 0.09744 0.35688 0.0
H2266 H 0.13075 0.09345 0.37577 0.0
H2267 H 0.11466 0.07065 0.36778 0.0
H2268 H 0.09112 0.09637 0.33714 0.0
H2269 H 0.14424 0.08436 0.37481 0.0
H2270 H 0.12825 0.06144 0.36688 0.0
C2271 C 0.10702 0.91579 0.62185 0.0
C2272 C 0.10356 0.90813 0.62603 0.0
C2273 C 0.11443 0.91513 0.61617 0.0
C2274 C 0.11858 0.9068 0.61459 0.0
C2275 C 0.11508 0.89915 0.61876 0.0
C2276 C 0.10765 0.89981 0.62439 0.0
C2277 C 0.12664 0.90609 0.60878 0.0
C2278 C 0.13342 0.91264 0.60919 0.0
C2279 C 0.14124 0.91182 0.60401 0.0
C2280 C 0.14226 0.9043 0.59839 0.0
C2281 C 0.13556 0.89765 0.59791 0.0
C2282 C 0.12774 0.89869 0.60304 0.0
C2283 C 0.13682 0.88947 0.59232 0.0
C2284 C 0.14056 0.88999 0.58373 0.0
C2285 C 0.13429 0.88104 0.59559 0.0
C2286 C 0.13543 0.87332 0.5904 0.0
C2287 C 0.13916 0.87381 0.58182 0.0
C2288 C 0.14844 0.91869 0.60477 0.0
C2289 C 0.14627 0.92785 0.60528 0.0
C2290 C 0.15752 0.91615 0.60532 0.0
C2291 C 0.16424 0.92261 0.60655 0.0
C2292 C 0.16203 0.93174 0.60728 0.0
C2293 C 0.15297 0.93429 0.60653 0.0
C2294 C 0.14171 0.88224 0.57853 0.0
H2295 H 0.10394 0.92229 0.62291 0.0
H2296 H 0.11687 0.92114 0.61297 0.0
H2297 H 0.11821 0.89266 0.61784 0.0
H2298 H 0.10523 0.89381 0.62762 0.0
H2299 H 0.13276 0.91822 0.61381 0.0
H2300 H 0.12245 0.89372 0.60252 0.0
H2301 H 0.14832 0.90355 0.59448 0.0
H2302 H 0.14251 0.89639 0.58099 0.0
H2303 H 0.13151 0.88038 0.60222 0.0
H2304 H 0.13328 0.86696 0.5931 0.0
H2305 H 0.13935 0.93004 0.60474 0.0
H2306 H 0.15941 0.90915 0.60507 0.0
H2307 H 0.14467 0.88284 0.57198 0.0
H2308 H 0.15107 0.94129 0.6069 0.0
H2309 H 0.17113 0.92041 0.6072 0.0
C2310 C 0.41941 0.89476 0.90051 0.0
C2311 C 0.41181 0.89021 0.90371 0.0
C2312 C 0.4186 0.90092 0.89357 0.0
C2313 C 0.41019 0.90263 0.88966 0.0
C2314 C 0.4026 0.89811 0.89292 0.0
C2315 C 0.4034 0.892 0.89986 0.0
C2316 C 0.4093 0.90884 0.882 0.0
C2317 C 0.41562 0.90875 0.87507 0.0
C2318 C 0.41444 0.91408 0.86747 0.0
C2319 C 0.40677 0.91954 0.86683 0.0
C2320 C 0.40035 0.9197 0.87369 0.0
C2321 C 0.40179 0.91446 0.88131 0.0
C2322 C 0.39189 0.92489 0.87279 0.0
C2323 C 0.39184 0.9336 0.86925 0.0
C2324 C 0.38371 0.92109 0.87553 0.0
C2325 C 0.37573 0.92591 0.87496 0.0
C2326 C 0.37568 0.93467 0.87159 0.0
C2327 C 0.42098 0.91347 0.86001 0.0
C2328 C 0.43025 0.913 0.86179 0.0
C2329 C 0.41802 0.91287 0.85112 0.0
C2330 C 0.42416 0.91154 0.84419 0.0
C2331 C 0.43339 0.91077 0.846 0.0
C2332 C 0.43637 0.91166 0.85487 0.0
C2333 C 0.3838 0.93844 0.86864 0.0
H2334 H 0.42597 0.89358 0.9034 0.0
H2335 H 0.42457 0.90436 0.89128 0.0
H2336 H 0.39604 0.8991 0.88994 0.0
H2337 H 0.39744 0.88848 0.90204 0.0
H2338 H 0.42127 0.90419 0.8754 0.0
H2339 H 0.39699 0.91472 0.88672 0.0
H2340 H 0.4057 0.92353 0.86091 0.0
H2341 H 0.39803 0.93673 0.86712 0.0
H2342 H 0.38346 0.91432 0.87806 0.0
H2343 H 0.36956 0.92274 0.87707 0.0
H2344 H 0.43276 0.9136 0.86855 0.0
H2345 H 0.41092 0.91309 0.84953 0.0
H2346 H 0.38396 0.94518 0.86602 0.0
H2347 H 0.44346 0.91127 0.85647 0.0
H2348 H 0.42164 0.9108 0.83744 0.0
C2349 C 0.40084 0.11582 0.1194 0.0
C2350 C 0.40537 0.10774 0.12106 0.0
C2351 C 0.39382 0.11612 0.11321 0.0
C2352 C 0.39118 0.10835 0.10851 0.0
C2353 C 0.39584 0.10031 0.11004 0.0
C2354 C 0.40285 0.10001 0.11625 0.0
C2355 C 0.38338 0.10858 0.10232 0.0
C2356 C 0.38199 0.11597 0.09674 0.0
C2357 C 0.37436 0.11647 0.09123 0.0
C2358 C 0.3681 0.10941 0.09127 0.0
C2359 C 0.36939 0.10196 0.09678 0.0
C2360 C 0.37706 0.10159 0.10224 0.0
C2361 C 0.36258 0.09472 0.09723 0.0
C2362 C 0.35343 0.09678 0.09826 0.0
C2363 C 0.36524 0.08569 0.09716 0.0
C2364 C 0.35893 0.07888 0.09835 0.0
C2365 C 0.34981 0.08093 0.09972 0.0
C2366 C 0.37288 0.12448 0.08563 0.0
C2367 C 0.37413 0.1331 0.08925 0.0
C2368 C 0.37033 0.12359 0.07663 0.0
C2369 C 0.36922 0.13118 0.07133 0.0
C2370 C 0.37052 0.13981 0.07496 0.0
C2371 C 0.37293 0.14068 0.08399 0.0
C2372 C 0.34712 0.08996 0.09953 0.0
H2373 H 0.40253 0.12187 0.12309 0.0
H2374 H 0.39029 0.12238 0.11232 0.0
H2375 H 0.39407 0.09424 0.10643 0.0
H2376 H 0.40629 0.09371 0.1173 0.0
H2377 H 0.3869 0.12134 0.09662 0.0
H2378 H 0.3779 0.096 0.10674 0.0
H2379 H 0.36215 0.10979 0.08711 0.0
H2380 H 0.35121 0.10369 0.09844 0.0
H2381 H 0.37223 0.08391 0.09626 0.0
H2382 H 0.36121 0.07199 0.09826 0.0
H2383 H 0.37601 0.134 0.09619 0.0
H2384 H 0.36937 0.11701 0.07365 0.0
H2385 H 0.34018 0.09181 0.10067 0.0
H2386 H 0.37407 0.14723 0.08695 0.0
H2387 H 0.3673 0.13031 0.0644 0.0
C2388 C 0.1119 0.89293 0.11145 0.0
C2389 C 0.1036 0.89118 0.1073 0.0
C2390 C 0.11244 0.89874 0.11878 0.0
C2391 C 0.1047 0.90299 0.12211 0.0
C2392 C 0.0964 0.90127 0.11792 0.0
C2393 C 0.09586 0.89541 0.11061 0.0
C2394 C 0.10529 0.90907 0.13 0.0
C2395 C 0.11259 0.91496 0.13102 0.0
C2396 C 0.11339 0.9205 0.1386 0.0
C2397 C 0.1067 0.92022 0.14518 0.0
C2398 C 0.09934 0.91435 0.14431 0.0
C2399 C 0.0987 0.90882 0.13669 0.0
C2400 C 0.09253 0.91364 0.1515 0.0
C2401 C 0.09517 0.91348 0.16051 0.0
C2402 C 0.08337 0.9127 0.14939 0.0
C2403 C 0.07703 0.91137 0.1561 0.0
C2404 C 0.0797 0.91097 0.16509 0.0
C2405 C 0.1214 0.92632 0.13974 0.0
C2406 C 0.13001 0.92283 0.13817 0.0
C2407 C 0.12052 0.93535 0.14234 0.0
C2408 C 0.12812 0.94081 0.14323 0.0
C2409 C 0.13674 0.93731 0.14164 0.0
C2410 C 0.1376 0.92826 0.13914 0.0
C2411 C 0.08882 0.91217 0.16723 0.0
H2412 H 0.11796 0.88965 0.10914 0.0
H2413 H 0.11891 0.89977 0.12194 0.0
H2414 H 0.09033 0.90452 0.12025 0.0
H2415 H 0.08938 0.89427 0.10749 0.0
H2416 H 0.11765 0.91532 0.12585 0.0
H2417 H 0.09323 0.90405 0.13612 0.0
H2418 H 0.1073 0.92447 0.15105 0.0
H2419 H 0.10218 0.91407 0.16236 0.0
H2420 H 0.0811 0.91294 0.14252 0.0
H2421 H 0.07003 0.91063 0.15425 0.0
H2422 H 0.13089 0.91588 0.13624 0.0
H2423 H 0.11395 0.93821 0.14356 0.0
H2424 H 0.0911 0.9118 0.17408 0.0
H2425 H 0.14414 0.9254 0.13779 0.0
H2426 H 0.12727 0.94776 0.14521 0.0
C2427 C 0.40277 0.8956 0.39099 0.0
C2428 C 0.40759 0.90354 0.38944 0.0
C2429 C 0.39559 0.89552 0.39696 0.0
C2430 C 0.39308 0.90336 0.40157 0.0
C2431 C 0.39797 0.91128 0.40011 0.0
C2432 C 0.40515 0.91137 0.39412 0.0
C2433 C 0.38521 0.90329 0.40766 0.0
C2434 C 0.38362 0.89593 0.4132 0.0
C2435 C 0.37586 0.89548 0.4185 0.0
C2436 C 0.36975 0.90264 0.4184 0.0
C2437 C 0.37126 0.91012 0.41295 0.0
C2438 C 0.37901 0.91037 0.40761 0.0
C2439 C 0.36455 0.91746 0.41237 0.0
C2440 C 0.35532 0.91553 0.41174 0.0
C2441 C 0.36738 0.92644 0.41192 0.0
C2442 C 0.36116 0.93329 0.41054 0.0
C2443 C 0.35197 0.93134 0.40959 0.0
C2444 C 0.37399 0.8873 0.42376 0.0
C2445 C 0.37539 0.87879 0.41992 0.0
C2446 C 0.3708 0.88788 0.43256 0.0
C2447 C 0.36912 0.8801 0.43744 0.0
C2448 C 0.37052 0.87159 0.43358 0.0
C2449 C 0.37368 0.87104 0.42477 0.0
C2450 C 0.34909 0.9224 0.41038 0.0
H2451 H 0.40455 0.88942 0.3876 0.0
H2452 H 0.39191 0.88933 0.39783 0.0
H2453 H 0.39625 0.91742 0.40361 0.0
H2454 H 0.40868 0.91761 0.39302 0.0
H2455 H 0.38844 0.8905 0.4134 0.0
H2456 H 0.38001 0.91592 0.40311 0.0
H2457 H 0.36372 0.90232 0.42242 0.0
H2458 H 0.35293 0.90868 0.41196 0.0
H2459 H 0.37442 0.92815 0.41254 0.0
H2460 H 0.36357 0.94013 0.41015 0.0
H2461 H 0.37774 0.87811 0.41312 0.0
H2462 H 0.3697 0.89435 0.43571 0.0
H2463 H 0.34207 0.92067 0.4096 0.0
H2464 H 0.37494 0.8646 0.42163 0.0
H2465 H 0.36663 0.88074 0.4442 0.0
C2466 C 0.41795 0.11613 0.6104 0.0
C2467 C 0.41022 0.12053 0.6073 0.0
C2468 C 0.41739 0.11001 0.6174 0.0
C2469 C 0.40909 0.10819 0.62147 0.0
C2470 C 0.40136 0.11254 0.6183 0.0
C2471 C 0.40192 0.11862 0.6113 0.0
C2472 C 0.40849 0.10198 0.62916 0.0
C2473 C 0.41502 0.1022 0.63594 0.0
C2474 C 0.41421 0.09677 0.64352 0.0
C2475 C 0.40678 0.09098 0.64421 0.0
C2476 C 0.40015 0.09075 0.63754 0.0
C2477 C 0.40111 0.09618 0.63 0.0
C2478 C 0.39188 0.08534 0.63871 0.0
C2479 C 0.39231 0.07635 0.64138 0.0
C2480 C 0.38344 0.08929 0.63733 0.0
C2481 C 0.37559 0.08439 0.63865 0.0
C2482 C 0.37599 0.0754 0.64133 0.0
C2483 C 0.42079 0.09764 0.65095 0.0
C2484 C 0.43 0.09866 0.6492 0.0
C2485 C 0.41785 0.09789 0.65986 0.0
C2486 C 0.42394 0.09934 0.66682 0.0
C2487 C 0.43313 0.10059 0.66506 0.0
C2488 C 0.4361 0.10012 0.65617 0.0
C2489 C 0.38442 0.07139 0.6426 0.0
H2490 H 0.42443 0.1174 0.6074 0.0
H2491 H 0.42345 0.10668 0.6196 0.0
H2492 H 0.39489 0.11145 0.62139 0.0
H2493 H 0.39587 0.12202 0.60917 0.0
H2494 H 0.42051 0.10695 0.63553 0.0
H2495 H 0.39605 0.0959 0.6248 0.0
H2496 H 0.40601 0.08684 0.65006 0.0
H2497 H 0.39874 0.07314 0.64246 0.0
H2498 H 0.38291 0.09624 0.63536 0.0
H2499 H 0.36918 0.08762 0.63754 0.0
H2500 H 0.4325 0.09841 0.64243 0.0
H2501 H 0.41079 0.09723 0.66144 0.0
H2502 H 0.38491 0.06447 0.64469 0.0
H2503 H 0.44311 0.10113 0.65456 0.0
H2504 H 0.42144 0.09954 0.67359 0.0
C2505 C 0.10804 0.09579 0.88986 0.0
C2506 C 0.10486 0.10347 0.88549 0.0
C2507 C 0.1152 0.0964 0.8959 0.0
C2508 C 0.11931 0.10471 0.89772 0.0
C2509 C 0.11609 0.11238 0.89338 0.0
C2510 C 0.10895 0.11177 0.88737 0.0
C2511 C 0.12703 0.10542 0.90399 0.0
C2512 C 0.13395 0.09903 0.90379 0.0
C2513 C 0.14152 0.09993 0.90936 0.0
C2514 C 0.1421 0.10735 0.91519 0.0
C2515 C 0.13526 0.11383 0.91545 0.0
C2516 C 0.12771 0.11272 0.90991 0.0
C2517 C 0.1361 0.12197 0.92118 0.0
C2518 C 0.13928 0.12143 0.93 0.0
C2519 C 0.13368 0.13038 0.91781 0.0
C2520 C 0.13427 0.13806 0.92315 0.0
C2521 C 0.13731 0.13754 0.932 0.0
C2522 C 0.14899 0.09336 0.90868 0.0
C2523 C 0.14718 0.08416 0.90765 0.0
C2524 C 0.15798 0.09626 0.90866 0.0
C2525 C 0.16497 0.09013 0.90743 0.0
C2526 C 0.16314 0.08096 0.90617 0.0
C2527 C 0.15417 0.07803 0.9064 0.0
C2528 C 0.13988 0.12914 0.93536 0.0
H2529 H 0.10508 0.08928 0.88852 0.0
H2530 H 0.11748 0.09038 0.89918 0.0
H2531 H 0.11917 0.11887 0.89454 0.0
H2532 H 0.10659 0.11784 0.88422 0.0
H2533 H 0.13362 0.09355 0.89901 0.0
H2534 H 0.12232 0.11758 0.91023 0.0
H2535 H 0.14796 0.10817 0.91942 0.0
H2536 H 0.14114 0.11503 0.93281 0.0
H2537 H 0.1314 0.13106 0.91098 0.0
H2538 H 0.13243 0.14445 0.92029 0.0
H2539 H 0.14034 0.08168 0.90773 0.0
H2540 H 0.15961 0.10331 0.90935 0.0
H2541 H 0.14219 0.12851 0.94218 0.0
H2542 H 0.1525 0.07103 0.90537 0.0
H2543 H 0.17181 0.0926 0.9074 0.0
C2544 C 0.90277 0.39696 0.89096 0.0
C2545 C 0.9076 0.4049 0.88946 0.0
C2546 C 0.89573 0.39679 0.89709 0.0
C2547 C 0.89337 0.40455 0.90192 0.0
C2548 C 0.89826 0.41248 0.90049 0.0
C2549 C 0.9053 0.41266 0.89434 0.0
C2550 C 0.88569 0.40438 0.90824 0.0
C2551 C 0.88424 0.39691 0.91368 0.0
C2552 C 0.87672 0.39644 0.91928 0.0
C2553 C 0.87063 0.40362 0.91952 0.0
C2554 C 0.87198 0.41117 0.91415 0.0
C2555 C 0.87954 0.41151 0.90857 0.0
C2556 C 0.86526 0.4185 0.91391 0.0
C2557 C 0.85606 0.41653 0.91309 0.0
C2558 C 0.86803 0.4275 0.91399 0.0
C2559 C 0.86177 0.43439 0.91304 0.0
C2560 C 0.85259 0.43243 0.9119 0.0
C2561 C 0.87506 0.38825 0.92458 0.0
C2562 C 0.87586 0.37976 0.92054 0.0
C2563 C 0.87273 0.38883 0.93364 0.0
C2564 C 0.87136 0.38104 0.9386 0.0
C2565 C 0.87215 0.37255 0.93454 0.0
C2566 C 0.87439 0.372 0.92546 0.0
C2567 C 0.8498 0.42342 0.91207 0.0
H2568 H 0.90445 0.39083 0.88742 0.0
H2569 H 0.89204 0.3906 0.89793 0.0
H2570 H 0.89666 0.41856 0.90416 0.0
H2571 H 0.90883 0.41891 0.89329 0.0
H2572 H 0.88902 0.39143 0.9136 0.0
H2573 H 0.88042 0.41717 0.90417 0.0
H2574 H 0.86476 0.40325 0.92376 0.0
H2575 H 0.85374 0.40965 0.91289 0.0
H2576 H 0.87507 0.42921 0.91473 0.0
H2577 H 0.86414 0.44125 0.91313 0.0
H2578 H 0.87756 0.37912 0.91354 0.0
H2579 H 0.87211 0.39529 0.93692 0.0
H2580 H 0.84281 0.42165 0.91109 0.0
H2581 H 0.87515 0.36555 0.92217 0.0
H2582 H 0.86959 0.38165 0.94558 0.0
C2583 C 0.91858 0.61602 0.11036 0.0
C2584 C 0.91094 0.62044 0.10708 0.0
C2585 C 0.91781 0.60979 0.11723 0.0
C2586 C 0.90938 0.60786 0.12099 0.0
C2587 C 0.90174 0.61222 0.11761 0.0
C2588 C 0.90251 0.61841 0.11074 0.0
C2589 C 0.90854 0.60161 0.12861 0.0
C2590 C 0.91478 0.60188 0.13565 0.0
C2591 C 0.91367 0.59648 0.14321 0.0
C2592 C 0.90618 0.59074 0.14367 0.0
C2593 C 0.89984 0.59042 0.13671 0.0
C2594 C 0.90118 0.59576 0.12916 0.0
C2595 C 0.89152 0.58496 0.13752 0.0
C2596 C 0.89173 0.57626 0.14105 0.0
C2597 C 0.88322 0.58857 0.13489 0.0
C2598 C 0.87534 0.5836 0.13571 0.0
C2599 C 0.87552 0.57489 0.13919 0.0
C2600 C 0.92005 0.59729 0.15082 0.0
C2601 C 0.92932 0.59818 0.1493 0.0
C2602 C 0.91688 0.59761 0.15965 0.0
C2603 C 0.92282 0.59899 0.16676 0.0
C2604 C 0.93207 0.60011 0.16522 0.0
C2605 C 0.93525 0.59958 0.15641 0.0
C2606 C 0.88381 0.57127 0.14188 0.0
H2607 H 0.92515 0.61738 0.10761 0.0
H2608 H 0.92381 0.60647 0.1196 0.0
H2609 H 0.89517 0.61104 0.12046 0.0
H2610 H 0.89651 0.62182 0.10848 0.0
H2611 H 0.92029 0.60663 0.13544 0.0
H2612 H 0.89641 0.5954 0.12369 0.0
H2613 H 0.90517 0.58668 0.14954 0.0
H2614 H 0.89803 0.57327 0.14308 0.0
H2615 H 0.88278 0.59532 0.13235 0.0
H2616 H 0.86905 0.58667 0.13377 0.0
H2617 H 0.93198 0.59788 0.14259 0.0
H2618 H 0.90977 0.59704 0.16106 0.0
H2619 H 0.88418 0.56455 0.14453 0.0
H2620 H 0.94232 0.6005 0.15496 0.0
H2621 H 0.92016 0.59925 0.17347 0.0
C2622 C 0.60809 0.59452 0.38945 0.0
C2623 C 0.60435 0.60217 0.38549 0.0
C2624 C 0.6155 0.5953 0.39516 0.0
C2625 C 0.61935 0.60374 0.397 0.0
C2626 C 0.61562 0.61136 0.39298 0.0
C2627 C 0.6082 0.61059 0.38732 0.0
C2628 C 0.62729 0.60462 0.40299 0.0
C2629 C 0.63433 0.59838 0.40258 0.0
C2630 C 0.64203 0.5994 0.40795 0.0
C2631 C 0.64264 0.60683 0.41377 0.0
C2632 C 0.63569 0.61317 0.41424 0.0
C2633 C 0.628 0.61193 0.40891 0.0
C2634 C 0.63653 0.62128 0.42001 0.0
C2635 C 0.64008 0.62075 0.42869 0.0
C2636 C 0.63377 0.62967 0.41681 0.0
C2637 C 0.63443 0.63732 0.42219 0.0
C2638 C 0.63788 0.6368 0.43089 0.0
C2639 C 0.64955 0.5929 0.40718 0.0
C2640 C 0.64782 0.58366 0.40639 0.0
C2641 C 0.65851 0.59589 0.40697 0.0
C2642 C 0.66555 0.5898 0.40583 0.0
C2643 C 0.6638 0.58058 0.40489 0.0
C2644 C 0.65485 0.57757 0.40525 0.0
C2645 C 0.64075 0.62844 0.43408 0.0
H2646 H 0.60521 0.58796 0.38822 0.0
H2647 H 0.61814 0.58931 0.39823 0.0
H2648 H 0.61853 0.61794 0.39408 0.0
H2649 H 0.60557 0.61658 0.38424 0.0
H2650 H 0.63398 0.59288 0.39782 0.0
H2651 H 0.62251 0.61666 0.40943 0.0
H2652 H 0.6486 0.60774 0.41784 0.0
H2653 H 0.64219 0.61438 0.43138 0.0
H2654 H 0.63119 0.63035 0.41009 0.0
H2655 H 0.63234 0.64369 0.41946 0.0
H2656 H 0.641 0.58113 0.40661 0.0
H2657 H 0.66007 0.60297 0.40747 0.0
H2658 H 0.64338 0.62781 0.44078 0.0
H2659 H 0.65326 0.57053 0.40446 0.0
H2660 H 0.67236 0.59233 0.40569 0.0
C2661 C 0.91562 0.39503 0.40087 0.0
C2662 C 0.90761 0.3907 0.40328 0.0
C2663 C 0.91563 0.40149 0.39415 0.0
C2664 C 0.90763 0.40376 0.38971 0.0
C2665 C 0.8996 0.39952 0.39225 0.0
C2666 C 0.89959 0.39311 0.39897 0.0
C2667 C 0.90763 0.41027 0.38225 0.0
C2668 C 0.91447 0.41009 0.37582 0.0
C2669 C 0.91414 0.41573 0.36835 0.0
C2670 C 0.90687 0.42166 0.36741 0.0
C2671 C 0.89994 0.42186 0.37373 0.0
C2672 C 0.90045 0.41626 0.38119 0.0
C2673 C 0.8918 0.42737 0.37226 0.0
C2674 C 0.89244 0.43641 0.36978 0.0
C2675 C 0.88326 0.42348 0.37323 0.0
C2676 C 0.87552 0.4285 0.37175 0.0
C2677 C 0.87613 0.43755 0.36931 0.0
C2678 C 0.92105 0.41488 0.36125 0.0
C2679 C 0.93014 0.41364 0.36346 0.0
C2680 C 0.91853 0.41478 0.3522 0.0
C2681 C 0.92491 0.41324 0.34554 0.0
C2682 C 0.93395 0.41174 0.34778 0.0
C2683 C 0.93651 0.41208 0.3568 0.0
C2684 C 0.88466 0.44149 0.36839 0.0
H2685 H 0.92193 0.39328 0.40402 0.0
H2686 H 0.92192 0.40468 0.39242 0.0
H2687 H 0.89333 0.401 0.38891 0.0
H2688 H 0.89327 0.39002 0.40075 0.0
H2689 H 0.91983 0.40522 0.37638 0.0
H2690 H 0.89516 0.41652 0.38614 0.0
H2691 H 0.90646 0.42592 0.36161 0.0
H2692 H 0.89894 0.43957 0.36901 0.0
H2693 H 0.88257 0.4165 0.37503 0.0
H2694 H 0.86904 0.42532 0.3726 0.0
H2695 H 0.93232 0.41381 0.37035 0.0
H2696 H 0.91156 0.41556 0.35027 0.0
H2697 H 0.8853 0.44844 0.36649 0.0
H2698 H 0.94346 0.41109 0.35872 0.0
H2699 H 0.92269 0.41291 0.33866 0.0
C2700 C 0.61352 0.61761 0.89847 0.0
C2701 C 0.60541 0.61985 0.9027 0.0
C2702 C 0.61375 0.61108 0.89176 0.0
C2703 C 0.60587 0.60656 0.88913 0.0
C2704 C 0.59778 0.60865 0.8935 0.0
C2705 C 0.59755 0.61522 0.90021 0.0
C2706 C 0.6061 0.59999 0.88162 0.0
C2707 C 0.61346 0.59421 0.88057 0.0
C2708 C 0.61422 0.58859 0.87304 0.0
C2709 C 0.60733 0.58859 0.86661 0.0
C2710 C 0.59982 0.5942 0.86764 0.0
C2711 C 0.59927 0.59986 0.87516 0.0
C2712 C 0.59274 0.59461 0.86068 0.0
C2713 C 0.59502 0.59547 0.85164 0.0
C2714 C 0.58364 0.59477 0.86311 0.0
C2715 C 0.57697 0.59607 0.85669 0.0
C2716 C 0.57926 0.59731 0.84768 0.0
C2717 C 0.62242 0.58304 0.87181 0.0
C2718 C 0.6309 0.58669 0.8738 0.0
C2719 C 0.62187 0.5741 0.86882 0.0
C2720 C 0.62964 0.56886 0.86807 0.0
C2721 C 0.63808 0.57247 0.87031 0.0
C2722 C 0.63863 0.58147 0.87308 0.0
C2723 C 0.58835 0.59683 0.84521 0.0
H2724 H 0.61973 0.62094 0.90031 0.0
H2725 H 0.62008 0.60975 0.88847 0.0
H2726 H 0.5916 0.60523 0.89171 0.0
H2727 H 0.59117 0.61682 0.9033 0.0
H2728 H 0.61866 0.59409 0.88564 0.0
H2729 H 0.5937 0.6045 0.87575 0.0
H2730 H 0.60788 0.58435 0.86073 0.0
H2731 H 0.60199 0.59546 0.84959 0.0
H2732 H 0.58168 0.594 0.87001 0.0
H2733 H 0.57002 0.5962 0.8588 0.0
H2734 H 0.63158 0.59362 0.87592 0.0
H2735 H 0.61542 0.57109 0.86727 0.0
H2736 H 0.59036 0.59785 0.83836 0.0
H2737 H 0.64505 0.58452 0.87465 0.0
H2738 H 0.629 0.56192 0.86595 0.0
C2739 C 0.86372 0.6359 0.85198 0.0
C2740 C 0.85507 0.63894 0.8542 0.0
C2741 C 0.87101 0.64179 0.85205 0.0
C2742 C 0.86984 0.65087 0.85433 0.0
C2743 C 0.86117 0.65394 0.85644 0.0
C2744 C 0.85387 0.64804 0.85638 0.0
C2745 C 0.87769 0.65704 0.85477 0.0
C2746 C 0.88452 0.65649 0.84834 0.0
C2747 C 0.8922 0.66194 0.84898 0.0
C2748 C 0.89295 0.66811 0.85608 0.0
C2749 C 0.8862 0.66873 0.8626 0.0
C2750 C 0.87859 0.66319 0.86186 0.0
C2751 C 0.88733 0.6747 0.87052 0.0
C2752 C 0.89564 0.67523 0.87496 0.0
C2753 C 0.87999 0.67947 0.87402 0.0
C2754 C 0.88085 0.68439 0.88196 0.0
C2755 C 0.88908 0.68464 0.88658 0.0
C2756 C 0.8996 0.66088 0.84244 0.0
C2757 C 0.90255 0.65228 0.83995 0.0
C2758 C 0.90381 0.6684 0.83871 0.0
C2759 C 0.91079 0.66733 0.83256 0.0
C2760 C 0.91375 0.65871 0.8301 0.0
C2761 C 0.90956 0.6512 0.83386 0.0
C2762 C 0.89651 0.68015 0.88289 0.0
H2763 H 0.8649 0.6289 0.85041 0.0
H2764 H 0.87762 0.63917 0.85055 0.0
H2765 H 0.86002 0.66093 0.85811 0.0
H2766 H 0.84727 0.65061 0.85801 0.0
H2767 H 0.88384 0.65184 0.84279 0.0
H2768 H 0.87353 0.66337 0.86704 0.0
H2769 H 0.89889 0.67227 0.85664 0.0
H2770 H 0.90142 0.67158 0.8725 0.0
H2771 H 0.87352 0.67929 0.87071 0.0
H2772 H 0.87497 0.68771 0.88464 0.0
H2773 H 0.89951 0.64635 0.84278 0.0
H2774 H 0.90164 0.67511 0.84047 0.0
H2775 H 0.90297 0.68031 0.88621 0.0
H2776 H 0.91162 0.64448 0.83202 0.0
H2777 H 0.91393 0.67324 0.82981 0.0
C2778 C 0.15554 0.15082 0.65431 0.0
C2779 C 0.15439 0.14162 0.656 0.0
C2780 C 0.14815 0.15661 0.65429 0.0
C2781 C 0.13947 0.15333 0.65599 0.0
C2782 C 0.13834 0.14415 0.65768 0.0
C2783 C 0.1457 0.13837 0.65768 0.0
C2784 C 0.13154 0.15936 0.65583 0.0
C2785 C 0.13043 0.16558 0.64895 0.0
C2786 C 0.12259 0.1708 0.64837 0.0
C2787 C 0.11587 0.16981 0.65489 0.0
C2788 C 0.11688 0.16358 0.66178 0.0
C2789 C 0.12477 0.15847 0.66225 0.0
C2790 C 0.10953 0.16198 0.66825 0.0
C2791 C 0.10509 0.16913 0.67249 0.0
C2792 C 0.10702 0.15316 0.6703 0.0
C2793 C 0.10038 0.15151 0.67662 0.0
C2794 C 0.09611 0.15863 0.68109 0.0
C2795 C 0.12113 0.17665 0.64053 0.0
C2796 C 0.12822 0.18176 0.63702 0.0
C2797 C 0.1128 0.17667 0.63609 0.0
C2798 C 0.1117 0.18138 0.62816 0.0
C2799 C 0.11889 0.18617 0.62445 0.0
C2800 C 0.12711 0.18647 0.62908 0.0
C2801 C 0.09845 0.16748 0.67887 0.0
H2802 H 0.16215 0.15355 0.65307 0.0
H2803 H 0.14923 0.16366 0.65303 0.0
H2804 H 0.13172 0.14137 0.65883 0.0
H2805 H 0.14453 0.13131 0.6588 0.0
H2806 H 0.13547 0.16602 0.64377 0.0
H2807 H 0.12562 0.15374 0.66763 0.0
H2808 H 0.10975 0.17371 0.65445 0.0
H2809 H 0.10692 0.176 0.67105 0.0
H2810 H 0.11019 0.14751 0.66699 0.0
H2811 H 0.09859 0.14462 0.67799 0.0
H2812 H 0.13469 0.18196 0.64033 0.0
H2813 H 0.10722 0.17274 0.63855 0.0
H2814 H 0.09533 0.17312 0.68223 0.0
H2815 H 0.13281 0.19005 0.62638 0.0
H2816 H 0.10524 0.18111 0.62482 0.0
C2817 C 0.65419 0.36274 0.35956 0.0
C2818 C 0.65245 0.37188 0.35811 0.0
C2819 C 0.64722 0.35645 0.35913 0.0
C2820 C 0.63839 0.35916 0.35718 0.0
C2821 C 0.6367 0.36829 0.35567 0.0
C2822 C 0.64364 0.37456 0.35611 0.0
C2823 C 0.6309 0.35258 0.35683 0.0
C2824 C 0.63003 0.34601 0.36342 0.0
C2825 C 0.62259 0.34018 0.36348 0.0
C2826 C 0.61601 0.34095 0.35676 0.0
C2827 C 0.61675 0.34755 0.35019 0.0
C2828 C 0.62427 0.35323 0.35021 0.0
C2829 C 0.60948 0.34893 0.34356 0.0
C2830 C 0.60563 0.34168 0.33888 0.0
C2831 C 0.60644 0.35765 0.34179 0.0
C2832 C 0.59988 0.35913 0.33533 0.0
C2833 C 0.5962 0.35193 0.33043 0.0
C2834 C 0.62139 0.3338 0.37097 0.0
C2835 C 0.62881 0.32931 0.37463 0.0
C2836 C 0.61291 0.33261 0.37489 0.0
C2837 C 0.61194 0.32731 0.38247 0.0
C2838 C 0.61942 0.32312 0.38635 0.0
C2839 C 0.62785 0.32405 0.38224 0.0
C2840 C 0.59905 0.34317 0.33236 0.0
H2841 H 0.66091 0.36048 0.36116 0.0
H2842 H 0.64873 0.34945 0.36027 0.0
H2843 H 0.62996 0.37062 0.35426 0.0
H2844 H 0.64209 0.38152 0.35484 0.0
H2845 H 0.63493 0.34576 0.36877 0.0
H2846 H 0.62494 0.35822 0.34504 0.0
H2847 H 0.6102 0.33658 0.35678 0.0
H2848 H 0.60786 0.33489 0.3401 0.0
H2849 H 0.60914 0.36335 0.34544 0.0
H2850 H 0.59768 0.36594 0.33418 0.0
H2851 H 0.63542 0.32998 0.3717 0.0
H2852 H 0.60706 0.33603 0.37232 0.0
H2853 H 0.59639 0.33749 0.32867 0.0
H2854 H 0.63378 0.32099 0.38507 0.0
H2855 H 0.60532 0.32663 0.38537 0.0
C2856 C 0.35299 0.8639 0.15197 0.0
C2857 C 0.35411 0.87317 0.15343 0.0
C2858 C 0.36039 0.85814 0.1521 0.0
C2859 C 0.36907 0.86151 0.15373 0.0
C2860 C 0.37018 0.87075 0.15524 0.0
C2861 C 0.3628 0.87651 0.15507 0.0
C2862 C 0.37698 0.85546 0.1537 0.0
C2863 C 0.37801 0.84895 0.14697 0.0
C2864 C 0.38573 0.84354 0.14659 0.0
C2865 C 0.39241 0.84463 0.15316 0.0
C2866 C 0.3915 0.85114 0.15992 0.0
C2867 C 0.38374 0.85648 0.16016 0.0
C2868 C 0.39877 0.85269 0.16654 0.0
C2869 C 0.40288 0.8455 0.17095 0.0
C2870 C 0.40154 0.86147 0.1686 0.0
C2871 C 0.40814 0.86306 0.17504 0.0
C2872 C 0.4121 0.8559 0.17964 0.0
C2873 C 0.38705 0.83729 0.13893 0.0
C2874 C 0.37982 0.83226 0.13548 0.0
C2875 C 0.3954 0.83681 0.13459 0.0
C2876 C 0.39638 0.83174 0.12678 0.0
C2877 C 0.38904 0.82704 0.1231 0.0
C2878 C 0.3808 0.82719 0.12766 0.0
C2879 C 0.40947 0.84709 0.17745 0.0
H2880 H 0.34638 0.86108 0.15081 0.0
H2881 H 0.35932 0.85103 0.15101 0.0
H2882 H 0.3768 0.87358 0.15635 0.0
H2883 H 0.36394 0.88362 0.15605 0.0
H2884 H 0.37297 0.84841 0.14176 0.0
H2885 H 0.38295 0.86142 0.16544 0.0
H2886 H 0.39843 0.84055 0.1529 0.0
H2887 H 0.40084 0.83866 0.16952 0.0
H2888 H 0.39862 0.86714 0.16518 0.0
H2889 H 0.41015 0.86992 0.17639 0.0
H2890 H 0.37333 0.8324 0.13873 0.0
H2891 H 0.40109 0.84065 0.13702 0.0
H2892 H 0.41232 0.84143 0.18092 0.0
H2893 H 0.37499 0.8237 0.12499 0.0
H2894 H 0.40286 0.83165 0.1235 0.0
C2895 C 0.85363 0.36512 0.6522 0.0
C2896 C 0.85502 0.37433 0.65377 0.0
C2897 C 0.86088 0.35916 0.6522 0.0
C2898 C 0.86965 0.36228 0.65384 0.0
C2899 C 0.87101 0.37146 0.65553 0.0
C2900 C 0.86378 0.37741 0.65549 0.0
C2901 C 0.87741 0.35604 0.65358 0.0
C2902 C 0.87819 0.34964 0.64671 0.0
C2903 C 0.88579 0.3441 0.6461 0.0
C2904 C 0.89263 0.34495 0.65253 0.0
C2905 C 0.89195 0.35129 0.65948 0.0
C2906 C 0.88429 0.35677 0.65997 0.0
C2907 C 0.89928 0.35237 0.66615 0.0
C2908 C 0.90346 0.34486 0.66993 0.0
C2909 C 0.90205 0.36098 0.66888 0.0
C2910 C 0.90871 0.36206 0.67537 0.0
C2911 C 0.91278 0.35456 0.67928 0.0
C2912 C 0.88678 0.33784 0.63842 0.0
C2913 C 0.87949 0.33259 0.63549 0.0
C2914 C 0.89489 0.33744 0.63366 0.0
C2915 C 0.8956 0.33212 0.62598 0.0
C2916 C 0.88824 0.32705 0.62289 0.0
C2917 C 0.88022 0.32723 0.62783 0.0
C2918 C 0.91013 0.34594 0.67644 0.0
H2919 H 0.84697 0.36256 0.65079 0.0
H2920 H 0.85961 0.35212 0.65093 0.0
H2921 H 0.87769 0.37408 0.65673 0.0
H2922 H 0.86506 0.38445 0.65683 0.0
H2923 H 0.87304 0.34924 0.6416 0.0
H2924 H 0.88364 0.36157 0.66539 0.0
H2925 H 0.89856 0.34077 0.65204 0.0
H2926 H 0.90144 0.33814 0.66799 0.0
H2927 H 0.89905 0.3669 0.66601 0.0
H2928 H 0.91051 0.36879 0.67747 0.0
H2929 H 0.87319 0.33267 0.6391 0.0
H2930 H 0.90059 0.3415 0.63568 0.0
H2931 H 0.9132 0.34003 0.67926 0.0
H2932 H 0.87446 0.32329 0.62574 0.0
H2933 H 0.90183 0.33227 0.62227 0.0
C2934 C 0.36412 0.13512 0.35225 0.0
C2935 C 0.35542 0.13809 0.35435 0.0
C2936 C 0.37134 0.14111 0.35223 0.0
C2937 C 0.37003 0.15022 0.35428 0.0
C2938 C 0.3613 0.15323 0.35624 0.0
C2939 C 0.35407 0.14723 0.35626 0.0
C2940 C 0.3778 0.15648 0.35468 0.0
C2941 C 0.38469 0.15591 0.34832 0.0
C2942 C 0.39231 0.16145 0.34896 0.0
C2943 C 0.39295 0.16768 0.356 0.0
C2944 C 0.38612 0.16836 0.36242 0.0
C2945 C 0.37855 0.16276 0.36168 0.0
C2946 C 0.38709 0.17447 0.37023 0.0
C2947 C 0.39523 0.1749 0.37498 0.0
C2948 C 0.37975 0.17954 0.37329 0.0
C2949 C 0.38045 0.18472 0.38108 0.0
C2950 C 0.38851 0.18491 0.386 0.0
C2951 C 0.39974 0.16046 0.34243 0.0
C2952 C 0.40276 0.15189 0.3399 0.0
C2953 C 0.40388 0.16803 0.33871 0.0
C2954 C 0.41085 0.16704 0.33255 0.0
C2955 C 0.41388 0.15846 0.33004 0.0
C2956 C 0.40976 0.1509 0.33379 0.0
C2957 C 0.39593 0.18005 0.38278 0.0
H2958 H 0.36538 0.12814 0.35064 0.0
H2959 H 0.37799 0.13855 0.35079 0.0
H2960 H 0.36005 0.16022 0.35777 0.0
H2961 H 0.34747 0.14972 0.35798 0.0
H2962 H 0.3841 0.15119 0.34282 0.0
H2963 H 0.37343 0.16301 0.36679 0.0
H2964 H 0.39886 0.1719 0.35659 0.0
H2965 H 0.40097 0.17098 0.37286 0.0
H2966 H 0.37343 0.17944 0.36971 0.0
H2967 H 0.37466 0.1885 0.38329 0.0
H2968 H 0.39977 0.14593 0.34272 0.0
H2969 H 0.40165 0.17471 0.3405 0.0
H2970 H 0.40219 0.17993 0.38646 0.0
H2971 H 0.41187 0.1442 0.33192 0.0
H2972 H 0.41394 0.17299 0.32982 0.0
C2973 C 0.65636 0.65022 0.15493 0.0
C2974 C 0.65519 0.6413 0.15764 0.0
C2975 C 0.64912 0.6562 0.155 0.0
C2976 C 0.64055 0.65336 0.15774 0.0
C2977 C 0.63943 0.64444 0.16049 0.0
C2978 C 0.64665 0.6385 0.16047 0.0
C2979 C 0.63269 0.6595 0.15745 0.0
C2980 C 0.6314 0.66525 0.15021 0.0
C2981 C 0.62359 0.67051 0.14951 0.0
C2982 C 0.617 0.66991 0.1562 0.0
C2983 C 0.61815 0.66413 0.16347 0.0
C2984 C 0.62612 0.65914 0.16412 0.0
C2985 C 0.61089 0.66281 0.17012 0.0
C2986 C 0.60591 0.67008 0.17352 0.0
C2987 C 0.60893 0.65413 0.17316 0.0
C2988 C 0.60237 0.65278 0.17962 0.0
C2989 C 0.59754 0.66004 0.18318 0.0
C2990 C 0.62209 0.67605 0.14144 0.0
C2991 C 0.62925 0.68074 0.13754 0.0
C2992 C 0.61364 0.67622 0.13724 0.0
C2993 C 0.61248 0.68067 0.12916 0.0
C2994 C 0.61974 0.68501 0.12504 0.0
C2995 C 0.6281 0.68514 0.12943 0.0
C2996 C 0.59928 0.6687 0.17998 0.0
H2997 H 0.66288 0.65258 0.15277 0.0
H2998 H 0.65023 0.66305 0.15292 0.0
H2999 H 0.63289 0.64195 0.16244 0.0
H3000 H 0.64548 0.63163 0.16241 0.0
H3001 H 0.63627 0.66529 0.14485 0.0
H3002 H 0.62716 0.65486 0.16984 0.0
H3003 H 0.61087 0.67376 0.15564 0.0
H3004 H 0.60728 0.67684 0.17133 0.0
H3005 H 0.61245 0.64835 0.17051 0.0
H3006 H 0.60104 0.646 0.18181 0.0
H3007 H 0.63582 0.68085 0.14066 0.0
H3008 H 0.60799 0.67263 0.14001 0.0
H3009 H 0.59567 0.67443 0.18263 0.0
H3010 H 0.63387 0.68835 0.12643 0.0
H3011 H 0.60591 0.68055 0.12604 0.0
C3012 C 0.15241 0.86421 0.85989 0.0
C3013 C 0.15049 0.8732 0.85788 0.0
C3014 C 0.14555 0.85778 0.85995 0.0
C3015 C 0.13665 0.86021 0.85797 0.0
C3016 C 0.13477 0.86918 0.85591 0.0
C3017 C 0.1416 0.87558 0.85585 0.0
C3018 C 0.12928 0.85348 0.85816 0.0
C3019 C 0.12874 0.84722 0.86508 0.0
C3020 C 0.12149 0.84118 0.86556 0.0
C3021 C 0.11476 0.84144 0.85896 0.0
C3022 C 0.11516 0.84772 0.85205 0.0
C3023 C 0.12251 0.85361 0.85164 0.0
C3024 C 0.10778 0.84844 0.84541 0.0
C3025 C 0.10401 0.84076 0.84139 0.0
C3026 C 0.10453 0.85691 0.84298 0.0
C3027 C 0.09781 0.85772 0.83654 0.0
C3028 C 0.09415 0.85007 0.83238 0.0
C3029 C 0.12072 0.83502 0.87328 0.0
C3030 C 0.12838 0.83084 0.87683 0.0
C3031 C 0.11239 0.83362 0.87744 0.0
C3032 C 0.11178 0.8284 0.88511 0.0
C3033 C 0.11949 0.8245 0.88885 0.0
C3034 C 0.12778 0.82567 0.88453 0.0
C3035 C 0.09728 0.84157 0.83491 0.0
H3036 H 0.15918 0.86217 0.86154 0.0
H3037 H 0.14723 0.85091 0.86151 0.0
H3038 H 0.12797 0.8713 0.85446 0.0
H3039 H 0.1399 0.88242 0.85416 0.0
H3040 H 0.13376 0.84734 0.87032 0.0
H3041 H 0.12296 0.85832 0.84619 0.0
H3042 H 0.10909 0.83689 0.85931 0.0
H3043 H 0.10639 0.83414 0.84312 0.0
H3044 H 0.10721 0.86295 0.84605 0.0
H3045 H 0.09564 0.86437 0.83467 0.0
H3046 H 0.13489 0.83168 0.87373 0.0
H3047 H 0.10636 0.83679 0.87495 0.0
H3048 H 0.09454 0.83554 0.83188 0.0
H3049 H 0.13387 0.82283 0.88726 0.0
H3050 H 0.10526 0.82753 0.88817 0.0
C3051 C 0.85444 0.85596 0.64991 0.0
C3052 C 0.85224 0.85706 0.64086 0.0
C3053 C 0.85476 0.86335 0.65569 0.0
C3054 C 0.85293 0.87202 0.65255 0.0
C3055 C 0.8507 0.8731 0.64351 0.0
C3056 C 0.85034 0.86571 0.63774 0.0
C3057 C 0.85351 0.87994 0.65862 0.0
C3058 C 0.86049 0.88066 0.66492 0.0
C3059 C 0.86127 0.88826 0.67048 0.0
C3060 C 0.85494 0.8952 0.66969 0.0
C3061 C 0.84797 0.89463 0.66339 0.0
C3062 C 0.84726 0.88694 0.65795 0.0
C3063 C 0.84155 0.90214 0.66226 0.0
C3064 C 0.8377 0.90644 0.66971 0.0
C3065 C 0.83922 0.90506 0.65368 0.0
C3066 C 0.83315 0.91208 0.65254 0.0
C3067 C 0.82924 0.91634 0.65997 0.0
C3068 C 0.86894 0.88908 0.6768 0.0
C3069 C 0.87186 0.88162 0.68169 0.0
C3070 C 0.87366 0.89721 0.6777 0.0
C3071 C 0.88125 0.8978 0.68317 0.0
C3072 C 0.88431 0.89028 0.68787 0.0
C3073 C 0.87945 0.88221 0.68716 0.0
C3074 C 0.83158 0.91345 0.66857 0.0
H3075 H 0.85584 0.84936 0.65253 0.0
H3076 H 0.85638 0.86227 0.66265 0.0
H3077 H 0.84942 0.87969 0.64082 0.0
H3078 H 0.84877 0.86679 0.63078 0.0
H3079 H 0.86553 0.87545 0.66524 0.0
H3080 H 0.84176 0.88639 0.65323 0.0
H3081 H 0.85553 0.90112 0.67389 0.0
H3082 H 0.83933 0.90431 0.6764 0.0
H3083 H 0.84214 0.90194 0.64782 0.0
H3084 H 0.83141 0.91408 0.64583 0.0
H3085 H 0.86831 0.87529 0.68122 0.0
H3086 H 0.87165 0.90306 0.67396 0.0
H3087 H 0.82873 0.91665 0.67442 0.0
H3088 H 0.88167 0.87627 0.69061 0.0
H3089 H 0.88477 0.90414 0.68366 0.0
C3090 C 0.8636 0.15787 0.34805 0.0
C3091 C 0.87272 0.16004 0.34921 0.0
C3092 C 0.85776 0.15781 0.35534 0.0
C3093 C 0.86092 0.15988 0.36396 0.0
C3094 C 0.87003 0.16214 0.36509 0.0
C3095 C 0.87585 0.16224 0.35781 0.0
C3096 C 0.85484 0.15942 0.3718 0.0
C3097 C 0.84867 0.15235 0.3726 0.0
C3098 C 0.84325 0.15156 0.38021 0.0
C3099 C 0.844 0.15801 0.38706 0.0
C3100 C 0.85014 0.16513 0.38639 0.0
C3101 C 0.85548 0.16581 0.37871 0.0
C3102 C 0.85125 0.17166 0.39384 0.0
C3103 C 0.84374 0.17532 0.39819 0.0
C3104 C 0.85989 0.17421 0.3967 0.0
C3105 C 0.86099 0.18028 0.40375 0.0
C3106 C 0.85349 0.18397 0.4081 0.0
C3107 C 0.83722 0.14369 0.38121 0.0
C3108 C 0.83201 0.14059 0.37399 0.0
C3109 C 0.83696 0.13898 0.38928 0.0
C3110 C 0.83181 0.1312 0.39003 0.0
C3111 C 0.82677 0.12795 0.38274 0.0
C3112 C 0.82683 0.13281 0.37475 0.0
C3113 C 0.84484 0.18145 0.40523 0.0
H3114 H 0.86097 0.15626 0.34149 0.0
H3115 H 0.85076 0.15616 0.35422 0.0
H3116 H 0.87273 0.16362 0.37166 0.0
H3117 H 0.88287 0.16379 0.35895 0.0
H3118 H 0.84836 0.1472 0.36746 0.0
H3119 H 0.86012 0.17137 0.3781 0.0
H3120 H 0.83992 0.15739 0.393 0.0
H3121 H 0.837 0.17352 0.3961 0.0
H3122 H 0.86581 0.17143 0.39354 0.0
H3123 H 0.86774 0.18217 0.40574 0.0
H3124 H 0.83199 0.14415 0.36772 0.0
H3125 H 0.841 0.14113 0.39492 0.0
H3126 H 0.83893 0.18413 0.40849 0.0
H3127 H 0.82291 0.13058 0.36905 0.0
H3128 H 0.83204 0.12755 0.39624 0.0
C3129 C 0.65945 0.14713 0.13805 0.0
C3130 C 0.65789 0.15582 0.14139 0.0
C3131 C 0.65971 0.13981 0.14377 0.0
C3132 C 0.65841 0.141 0.15299 0.0
C3133 C 0.65691 0.14969 0.15636 0.0
C3134 C 0.65669 0.15703 0.15062 0.0
C3135 C 0.65844 0.13313 0.15899 0.0
C3136 C 0.66481 0.12631 0.15786 0.0
C3137 C 0.66455 0.11855 0.16308 0.0
C3138 C 0.65788 0.11771 0.16964 0.0
C3139 C 0.6514 0.12447 0.17086 0.0
C3140 C 0.65179 0.13219 0.16554 0.0
C3141 C 0.64376 0.12321 0.1771 0.0
C3142 C 0.63924 0.11495 0.17746 0.0
C3143 C 0.64049 0.13045 0.1822 0.0
C3144 C 0.63263 0.12956 0.18721 0.0
C3145 C 0.62788 0.12141 0.18722 0.0
C3146 C 0.67101 0.11119 0.16134 0.0
C3147 C 0.67267 0.10837 0.15254 0.0
C3148 C 0.67567 0.10706 0.16834 0.0
C3149 C 0.68207 0.10042 0.16654 0.0
C3150 C 0.68388 0.09775 0.1577 0.0
C3151 C 0.67899 0.10171 0.15074 0.0
C3152 C 0.6314 0.11406 0.18247 0.0
H3153 H 0.6605 0.14599 0.13098 0.0
H3154 H 0.66078 0.13319 0.14095 0.0
H3155 H 0.65594 0.15081 0.16344 0.0
H3156 H 0.65541 0.16364 0.15339 0.0
H3157 H 0.67002 0.12703 0.15287 0.0
H3158 H 0.64663 0.13726 0.16617 0.0
H3159 H 0.65761 0.1117 0.17363 0.0
H3160 H 0.64154 0.10926 0.17356 0.0
H3161 H 0.64388 0.13688 0.18216 0.0
H3162 H 0.63008 0.13537 0.19075 0.0
H3163 H 0.66904 0.11131 0.14701 0.0
H3164 H 0.67454 0.10914 0.17519 0.0
H3165 H 0.62797 0.10765 0.18244 0.0
H3166 H 0.68004 0.09967 0.14388 0.0
H3167 H 0.68576 0.09756 0.17206 0.0
C3168 C 0.63429 0.84866 0.86486 0.0
C3169 C 0.63685 0.85104 0.85619 0.0
C3170 C 0.64061 0.84836 0.87173 0.0
C3171 C 0.64967 0.8504 0.87009 0.0
C3172 C 0.65228 0.85263 0.86138 0.0
C3173 C 0.64593 0.85293 0.85449 0.0
C3174 C 0.65626 0.85047 0.87756 0.0
C3175 C 0.65588 0.84386 0.88416 0.0
C3176 C 0.66146 0.84432 0.89172 0.0
C3177 C 0.66773 0.85134 0.89247 0.0
C3178 C 0.66828 0.85798 0.88589 0.0
C3179 C 0.66251 0.85747 0.87846 0.0
C3180 C 0.67438 0.86582 0.88704 0.0
C3181 C 0.6754 0.87 0.89542 0.0
C3182 C 0.67886 0.86948 0.87966 0.0
C3183 C 0.68396 0.87731 0.88059 0.0
C3184 C 0.68476 0.88164 0.88892 0.0
C3185 C 0.66031 0.83776 0.89904 0.0
C3186 C 0.65164 0.83515 0.90167 0.0
C3187 C 0.66776 0.83416 0.90354 0.0
C3188 C 0.66655 0.82804 0.91046 0.0
C3189 C 0.65787 0.82539 0.91301 0.0
C3190 C 0.65044 0.82903 0.90855 0.0
C3191 C 0.68055 0.87779 0.89636 0.0
H3192 H 0.62736 0.84705 0.86637 0.0
H3193 H 0.63834 0.84672 0.87838 0.0
H3194 H 0.65923 0.85417 0.8599 0.0
H3195 H 0.64811 0.85483 0.84788 0.0
H3196 H 0.65117 0.83836 0.88344 0.0
H3197 H 0.66257 0.86278 0.87357 0.0
H3198 H 0.67202 0.85176 0.89831 0.0
H3199 H 0.67199 0.86743 0.90123 0.0
H3200 H 0.67831 0.86637 0.87313 0.0
H3201 H 0.68703 0.88011 0.8747 0.0
H3202 H 0.64574 0.83795 0.8985 0.0
H3203 H 0.67453 0.83598 0.90163 0.0
H3204 H 0.68113 0.88086 0.9029 0.0
H3205 H 0.64366 0.82727 0.91047 0.0
H3206 H 0.67241 0.82529 0.91373 0.0
C3207 C 0.85582 0.15311 0.86351 0.0
C3208 C 0.8542 0.15125 0.87254 0.0
C3209 C 0.8555 0.14624 0.8571 0.0
C3210 C 0.8535 0.13739 0.85959 0.0
C3211 C 0.85174 0.1356 0.86861 0.0
C3212 C 0.85207 0.14244 0.87499 0.0
C3213 C 0.85353 0.12993 0.85295 0.0
C3214 C 0.8604 0.12924 0.84659 0.0
C3215 C 0.86098 0.12171 0.84092 0.0
C3216 C 0.85456 0.11483 0.84164 0.0
C3217 C 0.8476 0.11544 0.84794 0.0
C3218 C 0.84707 0.1231 0.85343 0.0
C3219 C 0.84111 0.10796 0.84913 0.0
C3220 C 0.83751 0.10329 0.84177 0.0
C3221 C 0.83842 0.1055 0.85775 0.0
C3222 C 0.83212 0.0987 0.85898 0.0
C3223 C 0.8284 0.09408 0.85163 0.0
C3224 C 0.86869 0.12079 0.83472 0.0
C3225 C 0.87155 0.12811 0.82961 0.0
C3226 C 0.87356 0.11273 0.83426 0.0
C3227 C 0.88129 0.11211 0.82902 0.0
C3228 C 0.88428 0.1195 0.82409 0.0
C3229 C 0.87924 0.12746 0.82432 0.0
C3230 C 0.83122 0.09642 0.843 0.0
H3231 H 0.85752 0.15983 0.86143 0.0
H3232 H 0.85683 0.14784 0.85019 0.0
H3233 H 0.8503 0.12884 0.87079 0.0
H3234 H 0.85067 0.1408 0.88187 0.0
H3235 H 0.86558 0.13435 0.84635 0.0
H3236 H 0.84163 0.12372 0.85818 0.0
H3237 H 0.85511 0.10891 0.83744 0.0
H3238 H 0.83941 0.10504 0.83504 0.0
H3239 H 0.84117 0.10883 0.86359 0.0
H3240 H 0.83003 0.09719 0.86572 0.0
H3241 H 0.86789 0.13438 0.82979 0.0
H3242 H 0.87157 0.107 0.83818 0.0
H3243 H 0.82858 0.09294 0.8372 0.0
H3244 H 0.88142 0.13329 0.82065 0.0
H3245 H 0.88498 0.10586 0.8289 0.0
C3246 C 0.63637 0.162 0.64838 0.0
C3247 C 0.63886 0.15946 0.65703 0.0
C3248 C 0.64271 0.16227 0.64156 0.0
C3249 C 0.65172 0.16003 0.64322 0.0
C3250 C 0.65427 0.15764 0.65192 0.0
C3251 C 0.6479 0.15739 0.65877 0.0
C3252 C 0.65828 0.15987 0.63576 0.0
C3253 C 0.65797 0.16649 0.62917 0.0
C3254 C 0.6633 0.16585 0.62147 0.0
C3255 C 0.66929 0.15862 0.62058 0.0
C3256 C 0.66984 0.15202 0.6272 0.0
C3257 C 0.66432 0.15272 0.63478 0.0
C3258 C 0.6756 0.14399 0.62592 0.0
C3259 C 0.67575 0.13946 0.61767 0.0
C3260 C 0.68057 0.1405 0.63307 0.0
C3261 C 0.68535 0.1325 0.63207 0.0
C3262 C 0.68523 0.1278 0.62391 0.0
C3263 C 0.66214 0.17243 0.61416 0.0
C3264 C 0.6535 0.17542 0.61186 0.0
C3265 C 0.66955 0.17572 0.6094 0.0
C3266 C 0.66834 0.18194 0.60256 0.0
C3267 C 0.65968 0.18499 0.60034 0.0
C3268 C 0.65229 0.18164 0.60509 0.0
C3269 C 0.6805 0.13145 0.61667 0.0
H3270 H 0.62948 0.16376 0.64684 0.0
H3271 H 0.64048 0.16401 0.63492 0.0
H3272 H 0.66118 0.15595 0.65342 0.0
H3273 H 0.65001 0.15536 0.66537 0.0
H3274 H 0.65346 0.17213 0.62999 0.0
H3275 H 0.66437 0.14742 0.63967 0.0
H3276 H 0.67336 0.158 0.61463 0.0
H3277 H 0.67192 0.14192 0.61205 0.0
H3278 H 0.68064 0.14388 0.63949 0.0
H3279 H 0.68887 0.12983 0.63779 0.0
H3280 H 0.64762 0.1729 0.61527 0.0
H3281 H 0.6763 0.17359 0.61103 0.0
H3282 H 0.68037 0.12803 0.61027 0.0
H3283 H 0.64554 0.18393 0.60367 0.0
H3284 H 0.67417 0.18432 0.59899 0.0
C3285 C 0.6584 0.86454 0.37264 0.0
C3286 C 0.65714 0.85574 0.36946 0.0
C3287 C 0.65835 0.87175 0.36677 0.0
C3288 C 0.65698 0.87034 0.35759 0.0
C3289 C 0.65578 0.86153 0.35439 0.0
C3290 C 0.6559 0.8543 0.36026 0.0
C3291 C 0.65663 0.87806 0.35142 0.0
C3292 C 0.66287 0.88507 0.35221 0.0
C3293 C 0.66237 0.89259 0.34665 0.0
C3294 C 0.65556 0.893 0.34017 0.0
C3295 C 0.64922 0.88604 0.33929 0.0
C3296 C 0.64984 0.87858 0.34493 0.0
C3297 C 0.64165 0.8867 0.33283 0.0
C3298 C 0.63703 0.89483 0.33172 0.0
C3299 C 0.63869 0.87908 0.32807 0.0
C3300 C 0.6311 0.8795 0.3226 0.0
C3301 C 0.62632 0.88756 0.32171 0.0
C3302 C 0.66885 0.90009 0.34784 0.0
C3303 C 0.67115 0.90311 0.35645 0.0
C3304 C 0.67282 0.90424 0.34044 0.0
C3305 C 0.67907 0.91116 0.34165 0.0
C3306 C 0.68147 0.91408 0.35027 0.0
C3307 C 0.67738 0.91002 0.35765 0.0
C3308 C 0.62946 0.89526 0.3262 0.0
H3309 H 0.65946 0.86584 0.37969 0.0
H3310 H 0.65921 0.87847 0.36945 0.0
H3311 H 0.65478 0.86024 0.34734 0.0
H3312 H 0.65484 0.8476 0.35762 0.0
H3313 H 0.66821 0.88462 0.35712 0.0
H3314 H 0.64482 0.87334 0.34454 0.0
H3315 H 0.6551 0.8988 0.33589 0.0
H3316 H 0.63905 0.9008 0.33537 0.0
H3317 H 0.6422 0.87275 0.32865 0.0
H3318 H 0.62893 0.87349 0.3191 0.0
H3319 H 0.66807 0.90019 0.36228 0.0
H3320 H 0.67124 0.902 0.33373 0.0
H3321 H 0.62586 0.90154 0.32573 0.0
H3322 H 0.67892 0.91223 0.36438 0.0
H3323 H 0.68217 0.91409 0.33583 0.0
C3324 C 0.86322 0.85427 0.15819 0.0
C3325 C 0.87245 0.85285 0.15681 0.0
C3326 C 0.85725 0.85434 0.15097 0.0
C3327 C 0.86038 0.85299 0.14223 0.0
C3328 C 0.8696 0.85151 0.14087 0.0
C3329 C 0.87555 0.85144 0.14807 0.0
C3330 C 0.85413 0.85329 0.1345 0.0
C3331 C 0.84757 0.86001 0.13395 0.0
C3332 C 0.84193 0.86064 0.12644 0.0
C3333 C 0.8429 0.85438 0.11943 0.0
C3334 C 0.84949 0.84765 0.11985 0.0
C3335 C 0.855 0.84712 0.12744 0.0
C3336 C 0.85088 0.84134 0.11227 0.0
C3337 C 0.84358 0.83719 0.10794 0.0
C3338 C 0.85963 0.83934 0.10939 0.0
C3339 C 0.86107 0.83321 0.10246 0.0
C3340 C 0.85379 0.82889 0.09825 0.0
C3341 C 0.83542 0.86816 0.12577 0.0
C3342 C 0.83059 0.87106 0.13331 0.0
C3343 C 0.83437 0.87284 0.11773 0.0
C3344 C 0.82886 0.8804 0.11732 0.0
C3345 C 0.82431 0.88349 0.12495 0.0
C3346 C 0.82512 0.87865 0.13291 0.0
C3347 C 0.84502 0.83102 0.10101 0.0
H3348 H 0.86059 0.85527 0.16485 0.0
H3349 H 0.85017 0.8554 0.15224 0.0
H3350 H 0.87226 0.8506 0.1342 0.0
H3351 H 0.88264 0.85051 0.14674 0.0
H3352 H 0.84712 0.865 0.13923 0.0
H3353 H 0.85996 0.84183 0.12788 0.0
H3354 H 0.83866 0.85485 0.11358 0.0
H3355 H 0.83676 0.83856 0.11006 0.0
H3356 H 0.86539 0.84257 0.11246 0.0
H3357 H 0.8679 0.83189 0.10038 0.0
H3358 H 0.83112 0.86752 0.13956 0.0
H3359 H 0.83808 0.87087 0.11182 0.0
H3360 H 0.83927 0.82776 0.09795 0.0
H3361 H 0.82158 0.88079 0.13886 0.0
H3362 H 0.82845 0.88405 0.11111 0.0
C3363 C 0.13718 0.663 0.15008 0.0
C3364 C 0.14011 0.66091 0.15872 0.0
C3365 C 0.14312 0.66272 0.14291 0.0
C3366 C 0.1522 0.66044 0.14421 0.0
C3367 C 0.15515 0.6584 0.15288 0.0
C3368 C 0.14915 0.6586 0.16006 0.0
C3369 C 0.15844 0.66003 0.13647 0.0
C3370 C 0.15764 0.66622 0.12952 0.0
C3371 C 0.16295 0.6655 0.12183 0.0
C3372 C 0.1694 0.65866 0.12123 0.0
C3373 C 0.17037 0.65242 0.12815 0.0
C3374 C 0.16486 0.65317 0.13574 0.0
C3375 C 0.17664 0.64472 0.12726 0.0
C3376 C 0.17726 0.63992 0.11917 0.0
C3377 C 0.18162 0.64175 0.13464 0.0
C3378 C 0.1868 0.63397 0.13406 0.0
C3379 C 0.18715 0.62899 0.12607 0.0
C3380 C 0.16132 0.67164 0.11428 0.0
C3381 C 0.15249 0.67323 0.11141 0.0
C3382 C 0.16843 0.6761 0.11005 0.0
C3383 C 0.16669 0.6823 0.1033 0.0
C3384 C 0.15781 0.68409 0.10062 0.0
C3385 C 0.15076 0.67935 0.10465 0.0
C3386 C 0.18246 0.63214 0.11858 0.0
H3387 H 0.13021 0.66462 0.14881 0.0
H3388 H 0.14054 0.6641 0.13631 0.0
H3389 H 0.16211 0.65672 0.15414 0.0
H3390 H 0.1516 0.657 0.16666 0.0
H3391 H 0.15283 0.67163 0.13005 0.0
H3392 H 0.16526 0.64814 0.14089 0.0
H3393 H 0.1735 0.65808 0.11529 0.0
H3394 H 0.17342 0.64194 0.11339 0.0
H3395 H 0.18141 0.64539 0.14093 0.0
H3396 H 0.19046 0.63179 0.13991 0.0
H3397 H 0.14689 0.66975 0.11442 0.0
H3398 H 0.1753 0.67499 0.11215 0.0
H3399 H 0.1825 0.6284 0.11236 0.0
H3400 H 0.14386 0.68039 0.1026 0.0
H3401 H 0.17227 0.68587 0.10037 0.0
C3402 C 0.15891 0.36305 0.87226 0.0
C3403 C 0.15684 0.35443 0.869 0.0
C3404 C 0.15882 0.37042 0.86659 0.0
C3405 C 0.15669 0.36935 0.8575 0.0
C3406 C 0.1547 0.36071 0.85421 0.0
C3407 C 0.15477 0.35333 0.85991 0.0
C3408 C 0.15635 0.37727 0.85155 0.0
C3409 C 0.16277 0.38413 0.85239 0.0
C3410 C 0.16223 0.3919 0.84719 0.0
C3411 C 0.15524 0.39268 0.84092 0.0
C3412 C 0.14883 0.38581 0.83988 0.0
C3413 C 0.14944 0.37815 0.84524 0.0
C3414 C 0.14127 0.38672 0.83347 0.0
C3415 C 0.13642 0.39476 0.83293 0.0
C3416 C 0.1386 0.37939 0.82814 0.0
C3417 C 0.13109 0.38 0.82258 0.0
C3418 C 0.12605 0.38796 0.82223 0.0
C3419 C 0.16893 0.39922 0.84847 0.0
C3420 C 0.17189 0.40154 0.85709 0.0
C3421 C 0.17256 0.40378 0.84113 0.0
C3422 C 0.17916 0.41036 0.8424 0.0
C3423 C 0.18229 0.41247 0.85102 0.0
C3424 C 0.17851 0.40806 0.85835 0.0
C3425 C 0.12888 0.39537 0.82738 0.0
H3426 H 0.16039 0.36414 0.87926 0.0
H3427 H 0.16021 0.37699 0.86938 0.0
H3428 H 0.15315 0.35963 0.84722 0.0
H3429 H 0.15325 0.34676 0.85718 0.0
H3430 H 0.16827 0.38336 0.85706 0.0
H3431 H 0.14431 0.37301 0.84472 0.0
H3432 H 0.15473 0.39866 0.83689 0.0
H3433 H 0.13825 0.4005 0.83703 0.0
H3434 H 0.1423 0.37314 0.82831 0.0
H3435 H 0.1292 0.37422 0.81858 0.0
H3436 H 0.16909 0.39832 0.8629 0.0
H3437 H 0.17048 0.4021 0.8344 0.0
H3438 H 0.12509 0.40157 0.82737 0.0
H3439 H 0.18066 0.40967 0.86508 0.0
H3440 H 0.182 0.41362 0.83663 0.0
C3441 C 0.36463 0.35524 0.65774 0.0
C3442 C 0.37372 0.35365 0.65579 0.0
C3443 C 0.35815 0.35492 0.65096 0.0
C3444 C 0.36064 0.35294 0.64212 0.0
C3445 C 0.36972 0.35124 0.64022 0.0
C3446 C 0.37617 0.35157 0.64697 0.0
C3447 C 0.35391 0.35289 0.63478 0.0
C3448 C 0.34745 0.35971 0.63418 0.0
C3449 C 0.34165 0.36018 0.62678 0.0
C3450 C 0.34229 0.35365 0.61999 0.0
C3451 C 0.34869 0.34676 0.62052 0.0
C3452 C 0.35436 0.34638 0.62799 0.0
C3453 C 0.34986 0.34023 0.61308 0.0
C3454 C 0.34241 0.33618 0.60888 0.0
C3455 C 0.35853 0.33798 0.61015 0.0
C3456 C 0.35976 0.3317 0.60332 0.0
C3457 C 0.35235 0.3275 0.59923 0.0
C3458 C 0.33547 0.36792 0.62586 0.0
C3459 C 0.33047 0.37103 0.63319 0.0
C3460 C 0.33495 0.37258 0.61777 0.0
C3461 C 0.3298 0.38037 0.61712 0.0
C3462 C 0.325 0.38363 0.62453 0.0
C3463 C 0.32526 0.37879 0.63253 0.0
C3464 C 0.34365 0.32987 0.60203 0.0
H3465 H 0.36255 0.3569 0.66447 0.0
H3466 H 0.3512 0.35622 0.65264 0.0
H3467 H 0.37189 0.34981 0.63347 0.0
H3468 H 0.3831 0.35019 0.64527 0.0
H3469 H 0.34727 0.36495 0.63923 0.0
H3470 H 0.35922 0.341 0.6285 0.0
H3471 H 0.33796 0.35406 0.61419 0.0
H3472 H 0.33565 0.33775 0.61103 0.0
H3473 H 0.36439 0.34113 0.6131 0.0
H3474 H 0.36654 0.3302 0.60119 0.0
H3475 H 0.33069 0.36753 0.63949 0.0
H3476 H 0.33879 0.3704 0.61203 0.0
H3477 H 0.33781 0.3267 0.59905 0.0
H3478 H 0.32169 0.38117 0.63837 0.0
H3479 H 0.32966 0.38391 0.61085 0.0
C3480 C 0.15914 0.64666 0.63776 0.0
C3481 C 0.1579 0.65546 0.64092 0.0
C3482 C 0.15924 0.63947 0.64365 0.0
C3483 C 0.1581 0.64091 0.65285 0.0
C3484 C 0.15691 0.64972 0.65604 0.0
C3485 C 0.15685 0.65693 0.65013 0.0
C3486 C 0.15799 0.6332 0.65906 0.0
C3487 C 0.16414 0.62616 0.65801 0.0
C3488 C 0.1638 0.61861 0.66352 0.0
C3489 C 0.15727 0.61819 0.67026 0.0
C3490 C 0.15102 0.62517 0.6714 0.0
C3491 C 0.15148 0.63267 0.66579 0.0
C3492 C 0.14361 0.62444 0.67798 0.0
C3493 C 0.13885 0.61636 0.67889 0.0
C3494 C 0.14083 0.63199 0.68292 0.0
C3495 C 0.1332 0.63158 0.68832 0.0
C3496 C 0.12821 0.62361 0.68892 0.0
C3497 C 0.17011 0.61107 0.66197 0.0
C3498 C 0.17168 0.60795 0.65325 0.0
C3499 C 0.17476 0.60711 0.66908 0.0
C3500 C 0.18108 0.60035 0.66745 0.0
C3501 C 0.18283 0.5974 0.65868 0.0
C3502 C 0.17794 0.60119 0.65163 0.0
C3503 C 0.13123 0.61595 0.68431 0.0
H3504 H 0.16007 0.64532 0.63071 0.0
H3505 H 0.16006 0.63275 0.64098 0.0
H3506 H 0.15608 0.65105 0.6631 0.0
H3507 H 0.15581 0.66363 0.65277 0.0
H3508 H 0.16926 0.62658 0.65291 0.0
H3509 H 0.14649 0.63792 0.66639 0.0
H3510 H 0.15695 0.61234 0.67449 0.0
H3511 H 0.14074 0.61045 0.6751 0.0
H3512 H 0.14445 0.63827 0.68249 0.0
H3513 H 0.13112 0.63756 0.69191 0.0
H3514 H 0.16806 0.61075 0.64766 0.0
H3515 H 0.17371 0.60942 0.67587 0.0
H3516 H 0.12747 0.60973 0.68455 0.0
H3517 H 0.17895 0.59893 0.64482 0.0
H3518 H 0.18478 0.59762 0.67303 0.0
C3519 C 0.35524 0.35654 0.149 0.0
C3520 C 0.35403 0.35771 0.13978 0.0
C3521 C 0.3552 0.36391 0.15482 0.0
C3522 C 0.3539 0.37261 0.15155 0.0
C3523 C 0.35259 0.37378 0.14235 0.0
C3524 C 0.35267 0.36642 0.13653 0.0
C3525 C 0.3541 0.38048 0.15769 0.0
C3526 C 0.36079 0.38122 0.16426 0.0
C3527 C 0.36123 0.38876 0.16994 0.0
C3528 C 0.35479 0.39558 0.16901 0.0
C3529 C 0.3481 0.39498 0.16241 0.0
C3530 C 0.34779 0.38739 0.15681 0.0
C3531 C 0.34157 0.40238 0.16116 0.0
C3532 C 0.3373 0.40641 0.16852 0.0
C3533 C 0.33959 0.40547 0.15255 0.0
C3534 C 0.33344 0.4124 0.15131 0.0
C3535 C 0.3291 0.41639 0.15865 0.0
C3536 C 0.36874 0.38969 0.17646 0.0
C3537 C 0.37195 0.3822 0.18111 0.0
C3538 C 0.37308 0.39798 0.17772 0.0
C3539 C 0.38062 0.39869 0.18326 0.0
C3540 C 0.38404 0.39112 0.18762 0.0
C3541 C 0.37952 0.38289 0.1866 0.0
C3542 C 0.33109 0.41332 0.16727 0.0
H3543 H 0.35616 0.34991 0.15174 0.0
H3544 H 0.35611 0.36279 0.16189 0.0
H3545 H 0.3517 0.38042 0.13962 0.0
H3546 H 0.35187 0.36759 0.12946 0.0
H3547 H 0.36589 0.37607 0.1647 0.0
H3548 H 0.34254 0.38681 0.15181 0.0
H3549 H 0.35507 0.40144 0.17333 0.0
H3550 H 0.33866 0.40413 0.17522 0.0
H3551 H 0.34285 0.40256 0.14676 0.0
H3552 H 0.33198 0.41455 0.14458 0.0
H3553 H 0.36869 0.37574 0.1804 0.0
H3554 H 0.37086 0.40388 0.17419 0.0
H3555 H 0.32789 0.4163 0.17305 0.0
H3556 H 0.382 0.3769 0.18979 0.0
H3557 H 0.38384 0.40517 0.184 0.0
C3558 C 0.60785 0.41524 0.12074 0.0
C3559 C 0.60406 0.40752 0.12451 0.0
C3560 C 0.61528 0.41457 0.11509 0.0
C3561 C 0.61912 0.40617 0.11313 0.0
C3562 C 0.61533 0.39846 0.11695 0.0
C3563 C 0.60788 0.39913 0.12254 0.0
C3564 C 0.6271 0.4054 0.10722 0.0
C3565 C 0.63416 0.41163 0.10785 0.0
C3566 C 0.64189 0.41072 0.10255 0.0
C3567 C 0.64253 0.40342 0.09658 0.0
C3568 C 0.63555 0.39709 0.09589 0.0
C3569 C 0.62783 0.39822 0.10115 0.0
C3570 C 0.63637 0.38914 0.0899 0.0
C3571 C 0.64 0.3899 0.08128 0.0
C3572 C 0.63349 0.38068 0.09281 0.0
C3573 C 0.63409 0.37319 0.08721 0.0
C3574 C 0.63763 0.37394 0.07857 0.0
C3575 C 0.6494 0.41724 0.1035 0.0
C3576 C 0.64764 0.42646 0.10439 0.0
C3577 C 0.65835 0.41428 0.1038 0.0
C3578 C 0.66537 0.42038 0.10509 0.0
C3579 C 0.66361 0.42959 0.10611 0.0
C3580 C 0.65466 0.43256 0.10567 0.0
C3581 C 0.64063 0.38237 0.07568 0.0
H3582 H 0.60499 0.42178 0.12207 0.0
H3583 H 0.61796 0.42062 0.11217 0.0
H3584 H 0.61822 0.39191 0.11574 0.0
H3585 H 0.60522 0.39308 0.12548 0.0
H3586 H 0.63378 0.41703 0.11271 0.0
H3587 H 0.62232 0.39351 0.10045 0.0
H3588 H 0.64851 0.4026 0.09256 0.0
H3589 H 0.6422 0.39633 0.07881 0.0
H3590 H 0.63085 0.37982 0.09947 0.0
H3591 H 0.6319 0.36676 0.08972 0.0
H3592 H 0.64082 0.42896 0.1041 0.0
H3593 H 0.65993 0.40721 0.10323 0.0
H3594 H 0.64332 0.38317 0.06903 0.0
H3595 H 0.65305 0.43959 0.10652 0.0
H3596 H 0.6722 0.41789 0.1053 0.0
C3597 C 0.90167 0.61458 0.61943 0.0
C3598 C 0.90605 0.60642 0.62105 0.0
C3599 C 0.89467 0.61505 0.61324 0.0
C3600 C 0.89189 0.60737 0.60849 0.0
C3601 C 0.89638 0.59922 0.60998 0.0
C3602 C 0.90337 0.59875 0.61621 0.0
C3603 C 0.88411 0.60781 0.60228 0.0
C3604 C 0.88289 0.61528 0.59678 0.0
C3605 C 0.87522 0.61607 0.59136 0.0
C3606 C 0.86877 0.60918 0.59135 0.0
C3607 C 0.86993 0.60161 0.59675 0.0
C3608 C 0.87762 0.60098 0.60216 0.0
C3609 C 0.86294 0.59453 0.59718 0.0
C3610 C 0.85386 0.59679 0.59831 0.0
C3611 C 0.8654 0.58545 0.5971 0.0
C3612 C 0.85897 0.57878 0.59843 0.0
C3613 C 0.84993 0.58103 0.59996 0.0
C3614 C 0.8739 0.62426 0.58595 0.0
C3615 C 0.87574 0.63274 0.58968 0.0
C3616 C 0.87097 0.62369 0.57704 0.0
C3617 C 0.87011 0.63145 0.57191 0.0
C3618 C 0.87215 0.63991 0.5756 0.0
C3619 C 0.87487 0.64046 0.58458 0.0
C3620 C 0.84742 0.59012 0.59971 0.0
H3621 H 0.90347 0.62058 0.62316 0.0
H3622 H 0.89126 0.62139 0.61238 0.0
H3623 H 0.89448 0.59321 0.60635 0.0
H3624 H 0.90668 0.59238 0.61723 0.0
H3625 H 0.88796 0.6205 0.59668 0.0
H3626 H 0.87834 0.59533 0.6066 0.0
H3627 H 0.86279 0.60977 0.58727 0.0
H3628 H 0.85178 0.60375 0.5985 0.0
H3629 H 0.87234 0.5835 0.59611 0.0
H3630 H 0.86111 0.57184 0.59838 0.0
H3631 H 0.87782 0.63341 0.59658 0.0
H3632 H 0.86956 0.61724 0.57398 0.0
H3633 H 0.84054 0.5921 0.60094 0.0
H3634 H 0.87628 0.64689 0.58769 0.0
H3635 H 0.86806 0.63079 0.565 0.0
C3636 C 0.61107 0.39101 0.61193 0.0
C3637 C 0.60283 0.3892 0.60768 0.0
C3638 C 0.61158 0.39719 0.61895 0.0
C3639 C 0.60387 0.40177 0.62188 0.0
C3640 C 0.59562 0.4 0.61761 0.0
C3641 C 0.59511 0.3938 0.61058 0.0
C3642 C 0.60446 0.40825 0.62945 0.0
C3643 C 0.61183 0.41407 0.63021 0.0
C3644 C 0.61277 0.41985 0.6376 0.0
C3645 C 0.6061 0.41991 0.64422 0.0
C3646 C 0.59864 0.41415 0.64356 0.0
C3647 C 0.59787 0.40836 0.63614 0.0
C3648 C 0.59187 0.41376 0.65082 0.0
C3649 C 0.59457 0.41377 0.65981 0.0
C3650 C 0.58269 0.41287 0.64879 0.0
C3651 C 0.57639 0.41174 0.65557 0.0
C3652 C 0.57911 0.41147 0.66455 0.0
C3653 C 0.62094 0.42551 0.6385 0.0
C3654 C 0.62942 0.42181 0.63669 0.0
C3655 C 0.62036 0.43458 0.64103 0.0
C3656 C 0.6281 0.4399 0.64151 0.0
C3657 C 0.63657 0.43624 0.63952 0.0
C3658 C 0.63713 0.4271 0.63721 0.0
C3659 C 0.58826 0.41265 0.6666 0.0
H3660 H 0.61717 0.38768 0.6098 0.0
H3661 H 0.61801 0.3983 0.62216 0.0
H3662 H 0.58957 0.40346 0.61967 0.0
H3663 H 0.58865 0.39251 0.60749 0.0
H3664 H 0.61686 0.41414 0.625 0.0
H3665 H 0.59234 0.40365 0.63576 0.0
H3666 H 0.60682 0.42433 0.64995 0.0
H3667 H 0.6016 0.41432 0.6616 0.0
H3668 H 0.58038 0.41298 0.64194 0.0
H3669 H 0.56937 0.41101 0.65379 0.0
H3670 H 0.6301 0.41479 0.63492 0.0
H3671 H 0.6139 0.43761 0.64241 0.0
H3672 H 0.59059 0.41238 0.67344 0.0
H3673 H 0.64356 0.42399 0.63586 0.0
H3674 H 0.62743 0.44693 0.64326 0.0
C3675 C 0.36388 0.65502 0.84966 0.0
C3676 C 0.37315 0.6564 0.85085 0.0
C3677 C 0.35806 0.65523 0.85697 0.0
C3678 C 0.36139 0.65689 0.86561 0.0
C3679 C 0.37064 0.65842 0.86677 0.0
C3680 C 0.37645 0.65816 0.85948 0.0
C3681 C 0.35532 0.65676 0.87345 0.0
C3682 C 0.34891 0.64991 0.87436 0.0
C3683 C 0.34355 0.64938 0.88203 0.0
C3684 C 0.34455 0.65589 0.8888 0.0
C3685 C 0.35089 0.66282 0.88798 0.0
C3686 C 0.35621 0.66322 0.88026 0.0
C3687 C 0.35219 0.6695 0.89528 0.0
C3688 C 0.3448 0.67337 0.89966 0.0
C3689 C 0.3609 0.67206 0.8979 0.0
C3690 C 0.36219 0.67841 0.90467 0.0
C3691 C 0.35481 0.68238 0.90899 0.0
C3692 C 0.33733 0.64169 0.88317 0.0
C3693 C 0.33188 0.63874 0.87607 0.0
C3694 C 0.33719 0.63694 0.89122 0.0
C3695 C 0.33193 0.62923 0.89205 0.0
C3696 C 0.32666 0.62614 0.88486 0.0
C3697 C 0.32657 0.63106 0.87691 0.0
C3698 C 0.34609 0.67975 0.90644 0.0
H3699 H 0.36115 0.65359 0.8431 0.0
H3700 H 0.35096 0.65409 0.85586 0.0
H3701 H 0.37342 0.65962 0.87336 0.0
H3702 H 0.38354 0.65934 0.8606 0.0
H3703 H 0.3484 0.64474 0.86926 0.0
H3704 H 0.36103 0.66861 0.87952 0.0
H3705 H 0.34051 0.65546 0.89478 0.0
H3706 H 0.338 0.6716 0.89773 0.0
H3707 H 0.36674 0.66908 0.89478 0.0
H3708 H 0.36899 0.68014 0.90659 0.0
H3709 H 0.33181 0.64231 0.86981 0.0
H3710 H 0.34137 0.63901 0.89679 0.0
H3711 H 0.34026 0.68274 0.90957 0.0
H3712 H 0.32264 0.62881 0.87124 0.0
H3713 H 0.33207 0.62562 0.89828 0.0
C3714 C 0.13681 0.34391 0.36114 0.0
C3715 C 0.13955 0.34649 0.35258 0.0
C3716 C 0.14278 0.34431 0.36831 0.0
C3717 C 0.15168 0.34722 0.3671 0.0
C3718 C 0.15447 0.34964 0.35849 0.0
C3719 C 0.14846 0.34931 0.35131 0.0
C3720 C 0.15786 0.34807 0.37489 0.0
C3721 C 0.15754 0.3418 0.38182 0.0
C3722 C 0.16269 0.343 0.3896 0.0
C3723 C 0.16845 0.35043 0.3903 0.0
C3724 C 0.16893 0.35674 0.38341 0.0
C3725 C 0.16363 0.35549 0.37573 0.0
C3726 C 0.17438 0.36503 0.38449 0.0
C3727 C 0.17414 0.36993 0.39254 0.0
C3728 C 0.17941 0.3684 0.37734 0.0
C3729 C 0.18388 0.37662 0.37812 0.0
C3730 C 0.18336 0.38167 0.38605 0.0
C3731 C 0.16158 0.33678 0.39719 0.0
C3732 C 0.15293 0.33417 0.39987 0.0
C3733 C 0.16906 0.33351 0.40187 0.0
C3734 C 0.1679 0.32769 0.40906 0.0
C3735 C 0.15923 0.32512 0.41174 0.0
C3736 C 0.15177 0.32843 0.40707 0.0
C3737 C 0.17857 0.37816 0.3933 0.0
H3738 H 0.12994 0.34186 0.36236 0.0
H3739 H 0.14032 0.34258 0.37487 0.0
H3740 H 0.16131 0.3518 0.35729 0.0
H3741 H 0.15077 0.35127 0.34476 0.0
H3742 H 0.15321 0.33598 0.3812 0.0
H3743 H 0.16366 0.36056 0.3706 0.0
H3744 H 0.17238 0.35143 0.39633 0.0
H3745 H 0.17026 0.36757 0.39815 0.0
H3746 H 0.17978 0.36473 0.37108 0.0
H3747 H 0.18746 0.37917 0.37239 0.0
H3748 H 0.14703 0.33667 0.39646 0.0
H3749 H 0.1758 0.33538 0.39993 0.0
H3750 H 0.17813 0.38186 0.39954 0.0
H3751 H 0.14502 0.32649 0.40891 0.0
H3752 H 0.17377 0.32528 0.41257 0.0
C3753 C 0.35425 0.65251 0.36287 0.0
C3754 C 0.35284 0.65042 0.37189 0.0
C3755 C 0.35406 0.64576 0.35633 0.0
C3756 C 0.3524 0.6368 0.35866 0.0
C3757 C 0.35085 0.63476 0.36766 0.0
C3758 C 0.35105 0.64148 0.37418 0.0
C3759 C 0.35254 0.62952 0.35183 0.0
C3760 C 0.35927 0.62926 0.3453 0.0
C3761 C 0.35985 0.62206 0.33921 0.0
C3762 C 0.35353 0.61505 0.33972 0.0
C3763 C 0.34677 0.61518 0.34624 0.0
C3764 C 0.34626 0.62251 0.35217 0.0
C3765 C 0.34048 0.60751 0.34721 0.0
C3766 C 0.33656 0.60333 0.33972 0.0
C3767 C 0.33837 0.6043 0.35574 0.0
C3768 C 0.33239 0.59719 0.35678 0.0
C3769 C 0.32839 0.59304 0.3493 0.0
C3770 C 0.3674 0.62163 0.33275 0.0
C3771 C 0.37037 0.62942 0.32843 0.0
C3772 C 0.37203 0.61355 0.33123 0.0
C3773 C 0.3796 0.61332 0.32574 0.0
C3774 C 0.38274 0.62118 0.32168 0.0
C3775 C 0.37796 0.6292 0.32297 0.0
C3776 C 0.33055 0.59619 0.34075 0.0
H3777 H 0.3557 0.65932 0.3609 0.0
H3778 H 0.35522 0.64756 0.34944 0.0
H3779 H 0.34965 0.62792 0.36971 0.0
H3780 H 0.3498 0.63966 0.38105 0.0
H3781 H 0.36434 0.63448 0.34523 0.0
H3782 H 0.34095 0.62275 0.35709 0.0
H3783 H 0.354 0.6094 0.33515 0.0
H3784 H 0.33802 0.60567 0.33306 0.0
H3785 H 0.34138 0.60727 0.36165 0.0
H3786 H 0.33079 0.59502 0.36346 0.0
H3787 H 0.36687 0.63572 0.32933 0.0
H3788 H 0.37001 0.60745 0.33454 0.0
H3789 H 0.32764 0.59309 0.33486 0.0
H3790 H 0.38014 0.63533 0.31982 0.0
H3791 H 0.3832 0.60706 0.32495 0.0
H3792 H 0.17933 0.46499 0.11788 0.0
H3793 H 0.1661 0.45594 0.11416 0.0
H3794 H 0.17983 0.44509 0.09119 0.0
H3795 H 0.19311 0.45408 0.09491 0.0
H3796 H 0.15521 0.45487 0.09901 0.0
H3797 H 0.17294 0.42272 0.10505 0.0
H3798 H 0.17758 0.43341 0.10838 0.0
H3799 H 0.17815 0.42979 0.09693 0.0
C3800 C 0.17949 0.46076 0.11197 0.0
C3801 C 0.18729 0.46018 0.10673 0.0
C3802 C 0.17194 0.45558 0.10987 0.0
C3803 C 0.17205 0.44973 0.10249 0.0
C3804 C 0.17968 0.44941 0.09704 0.0
H3805 H 0.13337 0.40863 0.08628 0.0
H3806 H 0.14551 0.41972 0.08601 0.0
C3807 C 0.18726 0.45454 0.09916 0.0
C3808 C 0.16427 0.44377 0.10073 0.0
H3809 H 0.15799 0.42176 0.09996 0.0
C3810 C 0.15582 0.44763 0.09918 0.0
C3811 C 0.16508 0.43432 0.10097 0.0
C3812 C 0.1739 0.42979 0.103 0.0
C3813 C 0.14814 0.44229 0.09789 0.0
C3814 C 0.14895 0.43286 0.09826 0.0
C3815 C 0.15742 0.429 0.09963 0.0
C3816 C 0.14104 0.42684 0.09781 0.0
C3817 C 0.13925 0.44676 0.09612 0.0
C3818 C 0.13448 0.42723 0.1045 0.0
C3819 C 0.12755 0.42092 0.10467 0.0
C3820 C 0.12706 0.41408 0.09817 0.0
C3821 C 0.1335 0.41387 0.09132 0.0
C3822 C 0.14046 0.42017 0.09118 0.0
H3823 H 0.14015 0.45367 0.09357 0.0
H3824 H 0.1352 0.44284 0.09123 0.0
H3825 H 0.1354 0.4472 0.10244 0.0
H3826 H 0.13489 0.43222 0.10977 0.0
H3827 H 0.12265 0.42129 0.10999 0.0
H3828 H 0.81898 0.94873 0.3883 0.0
H3829 H 0.83269 0.9403 0.39119 0.0
H3830 H 0.84149 0.96075 0.40974 0.0
H3831 H 0.8276 0.96915 0.40709 0.0
H3832 H 0.85048 0.9462 0.38854 0.0
H3833 H 0.84413 0.93731 0.42397 0.0
H3834 H 0.83533 0.94123 0.41667 0.0
H3835 H 0.84339 0.94899 0.42121 0.0
C3836 C 0.82375 0.95138 0.39311 0.0
C3837 C 0.82215 0.95957 0.39753 0.0
C3838 C 0.83162 0.94658 0.3947 0.0
C3839 C 0.83805 0.94985 0.40075 0.0
C3840 C 0.83654 0.95805 0.40515 0.0
H3841 H 0.88862 0.92275 0.41479 0.0
H3842 H 0.87674 0.93409 0.41391 0.0
C3843 C 0.82864 0.96287 0.40356 0.0
C3844 C 0.8464 0.94469 0.40221 0.0
H3845 H 0.85752 0.93197 0.41751 0.0
C3846 C 0.85206 0.94315 0.39489 0.0
C3847 C 0.84847 0.94078 0.41053 0.0
C3848 C 0.8425 0.94208 0.41855 0.0
C3849 C 0.85961 0.9376 0.39559 0.0
C3850 C 0.86147 0.93339 0.40379 0.0
C3851 C 0.85604 0.93521 0.41123 0.0
C3852 C 0.86859 0.92653 0.40455 0.0
C3853 C 0.86549 0.93619 0.38752 0.0
C3854 C 0.86782 0.91847 0.39973 0.0
C3855 C 0.87451 0.91198 0.40027 0.0
C3856 C 0.88214 0.9134 0.40565 0.0
C3857 C 0.88281 0.92142 0.41063 0.0
C3858 C 0.87606 0.92793 0.4101 0.0
H3859 H 0.86464 0.94166 0.3826 0.0
H3860 H 0.87268 0.9358 0.38945 0.0
H3861 H 0.86361 0.92979 0.38419 0.0
H3862 H 0.86199 0.9172 0.39556 0.0
H3863 H 0.87367 0.9058 0.39653 0.0
H3864 H 0.32518 0.5493 0.6168 0.0
H3865 H 0.33663 0.56083 0.61487 0.0
H3866 H 0.35012 0.54415 0.59549 0.0
H3867 H 0.33849 0.53266 0.59714 0.0
H3868 H 0.35496 0.55911 0.61798 0.0
H3869 H 0.34818 0.56827 0.58273 0.0
H3870 H 0.34032 0.56193 0.58931 0.0
H3871 H 0.35005 0.55655 0.58467 0.0
C3872 C 0.33048 0.54813 0.612 0.0
C3873 C 0.33088 0.54008 0.60707 0.0
C3874 C 0.33706 0.55471 0.61096 0.0
C3875 C 0.34416 0.55339 0.60496 0.0
C3876 C 0.34461 0.54536 0.60004 0.0
H3877 H 0.3903 0.58798 0.59383 0.0
H3878 H 0.37965 0.57543 0.59397 0.0
C3879 C 0.33802 0.53877 0.60107 0.0
C3880 C 0.35123 0.56033 0.60416 0.0
H3881 H 0.36061 0.57528 0.58976 0.0
C3882 C 0.3562 0.56263 0.61181 0.0
C3883 C 0.35287 0.56488 0.59608 0.0
C3884 C 0.34754 0.56286 0.58773 0.0
C3885 C 0.36273 0.56941 0.61162 0.0
C3886 C 0.36422 0.5741 0.60361 0.0
C3887 C 0.35942 0.57167 0.5959 0.0
C3888 C 0.3705 0.58178 0.60324 0.0
C3889 C 0.36799 0.5715 0.62 0.0
C3890 C 0.36875 0.58956 0.60825 0.0
C3891 C 0.37476 0.59674 0.60814 0.0
C3892 C 0.38264 0.5963 0.60301 0.0
C3893 C 0.38426 0.58857 0.59781 0.0
C3894 C 0.37822 0.58138 0.59791 0.0
H3895 H 0.36772 0.56588 0.62481 0.0
H3896 H 0.37513 0.57294 0.61843 0.0
H3897 H 0.36509 0.57752 0.6233 0.0
H3898 H 0.36273 0.59007 0.61226 0.0
H3899 H 0.37321 0.60267 0.61206 0.0
H3900 H 0.68654 0.04593 0.916 0.0
H3901 H 0.67525 0.05767 0.91812 0.0
H3902 H 0.65926 0.04605 0.89695 0.0
H3903 H 0.67046 0.03427 0.89487 0.0
H3904 H 0.66962 0.07014 0.90631 0.0
H3905 H 0.64075 0.04912 0.91639 0.0
H3906 H 0.65211 0.04491 0.91611 0.0
H3907 H 0.64558 0.04553 0.90601 0.0
C3908 C 0.6806 0.04587 0.91183 0.0
C3909 C 0.67936 0.03915 0.9053 0.0
C3910 C 0.67414 0.05256 0.91306 0.0
C3911 C 0.66633 0.05265 0.9078 0.0
C3912 C 0.6651 0.04597 0.90126 0.0
H3913 H 0.62333 0.08961 0.89738 0.0
H3914 H 0.63421 0.07731 0.89752 0.0
C3915 C 0.67152 0.03926 0.90006 0.0
C3916 C 0.65968 0.05997 0.90884 0.0
H3917 H 0.63739 0.06419 0.91218 0.0
C3918 C 0.6626 0.06885 0.9077 0.0
C3919 C 0.65051 0.05827 0.91066 0.0
C3920 C 0.64706 0.04895 0.91245 0.0
C3921 C 0.65654 0.07604 0.90806 0.0
C3922 C 0.64735 0.0743 0.90965 0.0
C3923 C 0.64445 0.06546 0.91092 0.0
C3924 C 0.64063 0.08158 0.90979 0.0
C3925 C 0.65994 0.08542 0.90648 0.0
C3926 C 0.64059 0.08796 0.91671 0.0
C3927 C 0.63438 0.09498 0.91666 0.0
C3928 C 0.62814 0.09575 0.90965 0.0
C3929 C 0.62813 0.08925 0.9028 0.0
C3930 C 0.6343 0.08221 0.90289 0.0
H3931 H 0.66692 0.08547 0.90389 0.0
H3932 H 0.65552 0.08895 0.90168 0.0
H3933 H 0.65983 0.08924 0.91286 0.0
H3934 H 0.6454 0.08753 0.92213 0.0
H3935 H 0.6346 0.09992 0.922 0.0
H3936 H 0.19538 0.55767 0.4167 0.0
H3937 H 0.18211 0.56662 0.42042 0.0
H3938 H 0.16732 0.55352 0.39924 0.0
H3939 H 0.1805 0.54453 0.39554 0.0
H3940 H 0.17385 0.57846 0.40962 0.0
H3941 H 0.14947 0.55232 0.41945 0.0
H3942 H 0.16136 0.55013 0.41851 0.0
H3943 H 0.15433 0.55014 0.40872 0.0
C3944 C 0.18927 0.55665 0.41289 0.0
C3945 C 0.18898 0.55038 0.40584 0.0
C3946 C 0.18169 0.56174 0.41504 0.0
C3947 C 0.17367 0.56064 0.4102 0.0
C3948 C 0.17334 0.55431 0.40323 0.0
H3949 H 0.12506 0.58986 0.40161 0.0
H3950 H 0.13745 0.5791 0.40196 0.0
C3951 C 0.1809 0.54919 0.40111 0.0
C3952 C 0.16591 0.56663 0.41193 0.0
H3953 H 0.14334 0.56676 0.41596 0.0
C3954 C 0.16721 0.57591 0.41115 0.0
C3955 C 0.15725 0.56328 0.41389 0.0
C3956 C 0.15552 0.55343 0.41528 0.0
C3957 C 0.16001 0.58191 0.41194 0.0
C3958 C 0.15131 0.57855 0.41366 0.0
C3959 C 0.15003 0.5693 0.41463 0.0
C3960 C 0.14342 0.58455 0.41401 0.0
C3961 C 0.1617 0.59179 0.4106 0.0
C3962 C 0.14257 0.59102 0.4208 0.0
C3963 C 0.13551 0.59719 0.4206 0.0
C3964 C 0.12921 0.59699 0.41361 0.0
C3965 C 0.12989 0.59026 0.40702 0.0
C3966 C 0.13692 0.58408 0.40723 0.0
H3967 H 0.16844 0.5931 0.40773 0.0
H3968 H 0.15653 0.59469 0.40612 0.0
H3969 H 0.16127 0.59533 0.41712 0.0
H3970 H 0.14748 0.59142 0.42613 0.0
H3971 H 0.13519 0.60232 0.42575 0.0
H3972 H 0.68971 0.95931 0.59676 0.0
H3973 H 0.67611 0.95079 0.5929 0.0
H3974 H 0.66785 0.9516 0.62043 0.0
H3975 H 0.68136 0.96014 0.62433 0.0
H3976 H 0.67152 0.93365 0.60101 0.0
H3977 H 0.64519 0.95951 0.60598 0.0
H3978 H 0.65684 0.96229 0.60408 0.0
H3979 H 0.65323 0.95866 0.61489 0.0
C3980 C 0.68492 0.95778 0.60196 0.0
C3981 C 0.68659 0.96037 0.61085 0.0
C3982 C 0.67719 0.9529 0.59975 0.0
C3983 C 0.67095 0.95066 0.60637 0.0
C3984 C 0.67253 0.95338 0.61521 0.0
H3985 H 0.62432 0.91861 0.61452 0.0
H3986 H 0.63657 0.9295 0.61478 0.0
C3987 C 0.68028 0.95818 0.61744 0.0
C3988 C 0.66312 0.94494 0.60421 0.0
H3989 H 0.64022 0.94435 0.60486 0.0
C3990 C 0.66466 0.936 0.60172 0.0
C3991 C 0.65422 0.94805 0.6052 0.0
C3992 C 0.65222 0.95767 0.60761 0.0
C3993 C 0.65753 0.92994 0.60057 0.0
C3994 C 0.6486 0.93299 0.60173 0.0
C3995 C 0.64706 0.94202 0.60397 0.0
C3996 C 0.64082 0.92679 0.60123 0.0
C3997 C 0.65965 0.92023 0.59857 0.0
C3998 C 0.639 0.92181 0.59345 0.0
C3999 C 0.63208 0.91546 0.59333 0.0
C4000 C 0.62679 0.91405 0.60096 0.0
C4001 C 0.62838 0.91937 0.6086 0.0
C4002 C 0.63533 0.92566 0.60873 0.0
H4003 H 0.66678 0.91861 0.60003 0.0
H4004 H 0.6553 0.91571 0.60251 0.0
H4005 H 0.65842 0.91884 0.59139 0.0
H4006 H 0.64302 0.92272 0.58753 0.0
H4007 H 0.63107 0.91146 0.58735 0.0
H4008 H 0.32303 0.46452 0.91523 0.0
H4009 H 0.33461 0.45316 0.91774 0.0
H4010 H 0.35121 0.46535 0.89766 0.0
H4011 H 0.33972 0.47674 0.89517 0.0
H4012 H 0.34115 0.44095 0.90592 0.0
H4013 H 0.36887 0.4627 0.91797 0.0
H4014 H 0.35742 0.46657 0.91723 0.0
H4015 H 0.36442 0.46625 0.90746 0.0
C4016 C 0.32916 0.46479 0.91138 0.0
C4017 C 0.33048 0.47155 0.90504 0.0
C4018 C 0.33578 0.45832 0.91284 0.0
C4019 C 0.34384 0.45851 0.90801 0.0
C4020 C 0.34516 0.46523 0.90166 0.0
H4021 H 0.38829 0.42318 0.89826 0.0
H4022 H 0.37715 0.43524 0.8986 0.0
C4023 C 0.33857 0.47172 0.90022 0.0
C4024 C 0.35065 0.45137 0.90921 0.0
H4025 H 0.3729 0.4478 0.91348 0.0
C4026 C 0.34807 0.44243 0.90769 0.0
C4027 C 0.35967 0.45332 0.91152 0.0
C4028 C 0.36275 0.46273 0.91373 0.0
C4029 C 0.35433 0.43543 0.90811 0.0
C4030 C 0.36338 0.43742 0.91018 0.0
C4031 C 0.36595 0.44632 0.91186 0.0
C4032 C 0.37033 0.43035 0.91031 0.0
C4033 C 0.35129 0.42598 0.90606 0.0
C4034 C 0.37025 0.42372 0.91688 0.0
C4035 C 0.3766 0.41682 0.91671 0.0
C4036 C 0.38311 0.41644 0.90993 0.0
C4037 C 0.38328 0.42323 0.90349 0.0
C4038 C 0.37697 0.43014 0.9037 0.0
H4039 H 0.34445 0.42577 0.9031 0.0
H4040 H 0.35603 0.42265 0.90138 0.0
H4041 H 0.35121 0.42206 0.91231 0.0
H4042 H 0.36521 0.42383 0.92209 0.0
H4043 H 0.37626 0.41166 0.92173 0.0
H4044 H 0.82526 0.04549 0.09594 0.0
H4045 H 0.83657 0.05704 0.09312 0.0
H4046 H 0.85375 0.0455 0.11316 0.0
H4047 H 0.84251 0.03393 0.11599 0.0
H4048 H 0.84294 0.06951 0.10491 0.0
H4049 H 0.87104 0.04854 0.09258 0.0
H4050 H 0.85969 0.04436 0.09343 0.0
H4051 H 0.8668 0.04491 0.10314 0.0
C4052 C 0.83146 0.04539 0.09972 0.0
C4053 C 0.833 0.03878 0.10617 0.0
C4054 C 0.83793 0.05197 0.09807 0.0
C4055 C 0.84606 0.05205 0.10282 0.0
C4056 C 0.84763 0.04543 0.10924 0.0
H4057 H 0.88988 0.0883 0.11204 0.0
H4058 H 0.87912 0.07588 0.11155 0.0
C4059 C 0.84119 0.03883 0.11086 0.0
C4060 C 0.85265 0.05937 0.1015 0.0
H4061 H 0.87471 0.06359 0.09694 0.0
C4062 C 0.84986 0.06823 0.10305 0.0
C4063 C 0.86168 0.05768 0.09908 0.0
C4064 C 0.86497 0.04836 0.09687 0.0
C4065 C 0.85591 0.07542 0.10256 0.0
C4066 C 0.86498 0.0737 0.10036 0.0
C4067 C 0.86775 0.06487 0.09864 0.0
C4068 C 0.87176 0.08096 0.10022 0.0
C4069 C 0.85265 0.08476 0.1047 0.0
C4070 C 0.87126 0.08781 0.0939 0.0
C4071 C 0.87739 0.09493 0.09417 0.0
C4072 C 0.88409 0.0953 0.10079 0.0
C4073 C 0.88471 0.08827 0.10695 0.0
C4074 C 0.87861 0.08115 0.10664 0.0
H4075 H 0.84592 0.08473 0.10787 0.0
H4076 H 0.85745 0.08827 0.10922 0.0
H4077 H 0.85219 0.08866 0.09844 0.0
H4078 H 0.86607 0.08772 0.08883 0.0
H4079 H 0.87671 0.10026 0.08936 0.0
H4080 H 0.09832 0.18199 0.4642 0.0
H4081 H 0.09613 0.16786 0.45597 0.0
H4082 H 0.11828 0.1745 0.43876 0.0
H4083 H 0.12067 0.18843 0.44705 0.0
H4084 H 0.09244 0.16537 0.43766 0.0
H4085 H 0.12448 0.14919 0.44703 0.0
H4086 H 0.12003 0.15878 0.45298 0.0
H4087 H 0.1261 0.16026 0.44272 0.0
C4088 C 0.10278 0.18038 0.45872 0.0
C4089 C 0.10967 0.18633 0.45628 0.0
C4090 C 0.10149 0.17233 0.45401 0.0
C4091 C 0.10713 0.17008 0.44685 0.0
C4092 C 0.11396 0.17603 0.44437 0.0
H4093 H 0.11325 0.13536 0.40284 0.0
H4094 H 0.11318 0.14687 0.41449 0.0
C4095 C 0.11524 0.18405 0.44905 0.0
C4096 C 0.1058 0.16166 0.44172 0.0
H4097 H 0.11706 0.14328 0.43397 0.0
C4098 C 0.09774 0.16044 0.43698 0.0
C4099 C 0.11271 0.15521 0.4409 0.0
C4100 C 0.12128 0.15587 0.44625 0.0
C4101 C 0.09664 0.15321 0.431 0.0
C4102 C 0.10377 0.14708 0.42981 0.0
C4103 C 0.11164 0.14806 0.43487 0.0
C4104 C 0.10352 0.14007 0.42279 0.0
C4105 C 0.08808 0.15241 0.42565 0.0
C4106 C 0.0981 0.13244 0.42363 0.0
C4107 C 0.09819 0.12576 0.41701 0.0
C4108 C 0.10372 0.12663 0.40946 0.0
C4109 C 0.10905 0.13437 0.40864 0.0
C4110 C 0.10898 0.14099 0.41526 0.0
H4111 H 0.08349 0.15816 0.42682 0.0
H4112 H 0.08965 0.15198 0.41842 0.0
H4113 H 0.08453 0.14615 0.42749 0.0
H4114 H 0.0939 0.13159 0.42946 0.0
H4115 H 0.09408 0.11984 0.41789 0.0
H4116 H 0.04681 0.91538 0.69098 0.0
H4117 H 0.05838 0.91765 0.67964 0.0
H4118 H 0.04588 0.8975 0.66294 0.0
H4119 H 0.03427 0.89526 0.6742 0.0
H4120 H 0.07039 0.90554 0.67337 0.0
H4121 H 0.04939 0.91762 0.64543 0.0
H4122 H 0.04529 0.91705 0.65673 0.0
H4123 H 0.04551 0.90715 0.64978 0.0
C4124 C 0.04651 0.91147 0.68487 0.0
C4125 C 0.03961 0.90517 0.68346 0.0
C4126 C 0.0531 0.9128 0.67839 0.0
C4127 C 0.05291 0.90786 0.67037 0.0
C4128 C 0.04602 0.90157 0.66895 0.0
H4129 H 0.08893 0.8971 0.62693 0.0
H4130 H 0.07663 0.8977 0.63774 0.0
C4131 C 0.0394 0.90028 0.67541 0.0
C4132 C 0.0602 0.90888 0.66374 0.0
H4133 H 0.0643 0.91285 0.64172 0.0
C4134 C 0.06907 0.90725 0.66648 0.0
C4135 C 0.05846 0.91111 0.65475 0.0
C4136 C 0.04916 0.91342 0.65151 0.0
C4137 C 0.07621 0.90751 0.6604 0.0
C4138 C 0.07444 0.90952 0.65138 0.0
C4139 C 0.06561 0.91129 0.64865 0.0
C4140 C 0.08165 0.90949 0.64462 0.0
C4141 C 0.08558 0.90536 0.6636 0.0
C4142 C 0.08844 0.91602 0.64484 0.0
C4143 C 0.09547 0.91569 0.63869 0.0
C4144 C 0.09583 0.90881 0.63223 0.0
C4145 C 0.0889 0.9024 0.63191 0.0
C4146 C 0.08185 0.90277 0.63803 0.0
H4147 H 0.08558 0.90246 0.6704 0.0
H4148 H 0.08889 0.90058 0.65896 0.0
H4149 H 0.08964 0.9116 0.66377 0.0
H4150 H 0.08834 0.9213 0.64984 0.0
H4151 H 0.10074 0.92068 0.63913 0.0
H4152 H 0.4158 0.81718 0.94907 0.0
H4153 H 0.41953 0.83054 0.94046 0.0
H4154 H 0.39814 0.84503 0.95349 0.0
H4155 H 0.39443 0.83174 0.96215 0.0
H4156 H 0.40848 0.83875 0.92871 0.0
H4157 H 0.41852 0.86297 0.9551 0.0
H4158 H 0.41764 0.85109 0.95709 0.0
H4159 H 0.40775 0.858 0.95712 0.0
C4160 C 0.41195 0.82324 0.95015 0.0
C4161 C 0.40482 0.82341 0.95629 0.0
C4162 C 0.41411 0.83087 0.94526 0.0
C4163 C 0.4092 0.83882 0.94643 0.0
C4164 C 0.40218 0.83905 0.95265 0.0
H4165 H 0.4008 0.88765 0.91804 0.0
H4166 H 0.40117 0.87528 0.92865 0.0
C4167 C 0.40004 0.83143 0.95758 0.0
C4168 C 0.4109 0.84661 0.94059 0.0
H4169 H 0.41508 0.86913 0.94077 0.0
C4170 C 0.41005 0.84537 0.93134 0.0
C4171 C 0.41292 0.85524 0.94404 0.0
C4172 C 0.41435 0.8569 0.95388 0.0
C4173 C 0.41085 0.85258 0.92545 0.0
C4174 C 0.41267 0.86124 0.92892 0.0
C4175 C 0.41369 0.86247 0.93815 0.0
C4176 C 0.41306 0.86915 0.92304 0.0
C4177 C 0.40941 0.85094 0.9156 0.0
C4178 C 0.41977 0.86991 0.91654 0.0
C4179 C 0.41956 0.87694 0.91044 0.0
C4180 C 0.41262 0.88333 0.91075 0.0
C4181 C 0.40615 0.88275 0.91754 0.0
C4182 C 0.40638 0.87574 0.92364 0.0
H4183 H 0.40635 0.84427 0.91423 0.0
H4184 H 0.40501 0.85619 0.91273 0.0
H4185 H 0.41597 0.85122 0.91213 0.0
H4186 H 0.42504 0.86493 0.91605 0.0
H4187 H 0.42462 0.87717 0.90527 0.0
H4188 H 0.45203 0.10179 0.19334 0.0
H4189 H 0.44312 0.09907 0.17984 0.0
H4190 H 0.45584 0.12164 0.16723 0.0
H4191 H 0.46481 0.12434 0.18066 0.0
H4192 H 0.43105 0.1105 0.17264 0.0
H4193 H 0.45743 0.10276 0.14775 0.0
H4194 H 0.45959 0.10279 0.1596 0.0
H4195 H 0.45934 0.11316 0.15356 0.0
C4196 C 0.45297 0.10613 0.18766 0.0
C4197 C 0.45913 0.11328 0.18805 0.0
C4198 C 0.44791 0.10455 0.17995 0.0
C4199 C 0.4489 0.11007 0.17248 0.0
C4200 C 0.45513 0.11714 0.17281 0.0
H4201 H 0.41886 0.11982 0.12435 0.0
H4202 H 0.42966 0.11977 0.13671 0.0
C4203 C 0.46023 0.1187 0.18051 0.0
C4204 C 0.44293 0.10888 0.16463 0.0
H4205 H 0.44281 0.10608 0.14199 0.0
C4206 C 0.43362 0.10943 0.16596 0.0
C4207 C 0.4463 0.10751 0.1559 0.0
C4208 C 0.45621 0.10643 0.15411 0.0
C4209 C 0.42759 0.10889 0.15877 0.0
C4210 C 0.43096 0.10767 0.15005 0.0
C4211 C 0.44026 0.10702 0.1487 0.0
C4212 C 0.4249 0.10729 0.14222 0.0
C4213 C 0.41766 0.10988 0.16054 0.0
C4214 C 0.4188 0.10019 0.14115 0.0
C4215 C 0.41261 0.10022 0.13413 0.0
C4216 C 0.41243 0.10735 0.12806 0.0
C4217 C 0.41876 0.1143 0.129 0.0
C4218 C 0.42496 0.11425 0.136 0.0
H4219 H 0.41631 0.11255 0.16735 0.0
H4220 H 0.41453 0.11442 0.1556 0.0
H4221 H 0.41437 0.10323 0.1599 0.0
H4222 H 0.41872 0.09472 0.14585 0.0
H4223 H 0.40779 0.0948 0.13363 0.0
H4224 H 0.09577 0.82579 0.05051 0.0
H4225 H 0.09376 0.83734 0.06204 0.0
H4226 H 0.11466 0.8532 0.05004 0.0
H4227 H 0.11666 0.84172 0.03848 0.0
H4228 H 0.10605 0.84321 0.07418 0.0
H4229 H 0.09498 0.8716 0.0533 0.0
H4230 H 0.09521 0.86019 0.04919 0.0
H4231 H 0.10535 0.86676 0.04958 0.0
C4232 C 0.09991 0.83176 0.05032 0.0
C4233 C 0.10635 0.83287 0.04357 0.0
C4234 C 0.09873 0.83836 0.05688 0.0
C4235 C 0.10396 0.8462 0.05681 0.0
C4236 C 0.11039 0.84732 0.05008 0.0
H4237 H 0.11484 0.89002 0.09295 0.0
H4238 H 0.11436 0.87906 0.0807 0.0
C4239 C 0.11154 0.84075 0.04349 0.0
C4240 C 0.10307 0.85294 0.06407 0.0
H4241 H 0.09953 0.87521 0.06822 0.0
C4242 C 0.10452 0.85018 0.07289 0.0
C4243 C 0.10107 0.86204 0.06237 0.0
C4244 C 0.09897 0.86532 0.05311 0.0
C4245 C 0.1043 0.85633 0.08002 0.0
C4246 C 0.10251 0.86545 0.07829 0.0
C4247 C 0.10093 0.8682 0.0695 0.0
C4248 C 0.10251 0.87226 0.08551 0.0
C4249 C 0.10626 0.85308 0.08933 0.0
C4250 C 0.09591 0.87214 0.09216 0.0
C4251 C 0.09617 0.87837 0.09917 0.0
C4252 C 0.10305 0.88483 0.09963 0.0
C4253 C 0.10953 0.88504 0.09284 0.0
C4254 C 0.10924 0.87883 0.08581 0.0
H4255 H 0.10915 0.84622 0.08931 0.0
H4256 H 0.11101 0.8577 0.09279 0.0
H4257 H 0.09993 0.85296 0.09321 0.0
H4258 H 0.0906 0.86716 0.09198 0.0
H4259 H 0.09111 0.87801 0.10433 0.0
H4260 H 0.46057 0.89111 0.32399 0.0
H4261 H 0.44925 0.89272 0.33565 0.0
H4262 H 0.46654 0.91107 0.34998 0.0
H4263 H 0.47779 0.90977 0.33816 0.0
H4264 H 0.45116 0.88863 0.35358 0.0
H4265 H 0.44265 0.92459 0.3492 0.0
H4266 H 0.44877 0.91823 0.34092 0.0
H4267 H 0.45438 0.92229 0.35079 0.0
C4268 C 0.46191 0.89562 0.32954 0.0
C4269 C 0.47007 0.90036 0.33011 0.0
C4270 C 0.45546 0.89647 0.33623 0.0
C4271 C 0.45701 0.9021 0.34362 0.0
C4272 C 0.46515 0.90682 0.34425 0.0
H4273 H 0.42388 0.91212 0.39078 0.0
H4274 H 0.43618 0.91197 0.37994 0.0
C4275 C 0.47161 0.90598 0.33754 0.0
C4276 C 0.4502 0.90273 0.35078 0.0
H4277 H 0.43585 0.91716 0.36133 0.0
C4278 C 0.44782 0.89487 0.35528 0.0
C4279 C 0.44589 0.91089 0.35301 0.0
C4280 C 0.44798 0.91948 0.34819 0.0
C4281 C 0.4412 0.89493 0.36191 0.0
C4282 C 0.43677 0.90305 0.36402 0.0
C4283 C 0.43927 0.91095 0.35968 0.0
C4284 C 0.42928 0.90336 0.37048 0.0
C4285 C 0.43902 0.88632 0.36665 0.0
C4286 C 0.42129 0.89872 0.36864 0.0
C4287 C 0.41424 0.89884 0.37476 0.0
C4288 C 0.41504 0.90363 0.38285 0.0
C4289 C 0.42301 0.90842 0.38459 0.0
C4290 C 0.43006 0.90831 0.37844 0.0
H4291 H 0.44449 0.8813 0.36591 0.0
H4292 H 0.43784 0.88756 0.37387 0.0
H4293 H 0.43281 0.88339 0.36375 0.0
H4294 H 0.42049 0.89501 0.36244 0.0
H4295 H 0.40813 0.89524 0.37312 0.0
H4296 H 0.3922 0.17904 0.54887 0.0
H4297 H 0.39543 0.16591 0.55799 0.0
H4298 H 0.41852 0.1794 0.56922 0.0
H4299 H 0.41529 0.19259 0.56016 0.0
H4300 H 0.41038 0.1548 0.55945 0.0
H4301 H 0.40385 0.1731 0.59121 0.0
H4302 H 0.40089 0.17762 0.58048 0.0
H4303 H 0.41232 0.17808 0.58433 0.0
C4304 C 0.39803 0.17917 0.55319 0.0
C4305 C 0.40345 0.18687 0.55386 0.0
C4306 C 0.39985 0.17167 0.55842 0.0
C4307 C 0.40712 0.17175 0.5644 0.0
C4308 C 0.41276 0.17928 0.5648 0.0
H4309 H 0.42275 0.13381 0.6055 0.0
H4310 H 0.42296 0.1458 0.59446 0.0
C4311 C 0.41091 0.1868 0.55962 0.0
C4312 C 0.40858 0.16405 0.5704 0.0
H4313 H 0.40888 0.15817 0.59236 0.0
C4314 C 0.41008 0.15553 0.56664 0.0
C4315 C 0.40815 0.16502 0.57979 0.0
C4316 C 0.40614 0.17392 0.58422 0.0
C4317 C 0.41119 0.14796 0.57203 0.0
C4318 C 0.41067 0.14893 0.5814 0.0
C4319 C 0.40931 0.15746 0.58516 0.0
C4320 C 0.41109 0.14116 0.58746 0.0
C4321 C 0.41294 0.13898 0.56766 0.0
C4322 C 0.40437 0.13457 0.58715 0.0
C4323 C 0.40424 0.12771 0.59343 0.0
C4324 C 0.41081 0.12734 0.60017 0.0
C4325 C 0.41766 0.13384 0.60033 0.0
C4326 C 0.41776 0.14072 0.59406 0.0
H4327 H 0.41553 0.13973 0.56077 0.0
H4328 H 0.41784 0.13503 0.57159 0.0
H4329 H 0.40656 0.13514 0.56729 0.0
H4330 H 0.39906 0.13487 0.5822 0.0
H4331 H 0.39892 0.12276 0.59309 0.0
H4332 H 0.03367 0.09556 0.83536 0.0
H4333 H 0.04522 0.09443 0.84698 0.0
H4334 H 0.06124 0.11414 0.83341 0.0
H4335 H 0.04965 0.11555 0.82198 0.0
H4336 H 0.06345 0.08976 0.84549 0.0
H4337 H 0.05947 0.12432 0.85874 0.0
H4338 H 0.05127 0.1191 0.85148 0.0
H4339 H 0.06133 0.12391 0.84692 0.0
C4340 C 0.03961 0.09971 0.8349 0.0
C4341 C 0.04072 0.10567 0.82776 0.0
C4342 C 0.04622 0.09902 0.84151 0.0
C4343 C 0.05401 0.1043 0.84112 0.0
C4344 C 0.0552 0.11012 0.83392 0.0
H4345 H 0.10338 0.11201 0.86951 0.0
H4346 H 0.09076 0.11163 0.85908 0.0
C4347 C 0.04862 0.11083 0.82733 0.0
C4348 C 0.06095 0.10373 0.84818 0.0
H4349 H 0.07258 0.11642 0.86334 0.0
C4350 C 0.06539 0.09555 0.84947 0.0
C4351 C 0.06343 0.1113 0.85338 0.0
C4352 C 0.05857 0.12013 0.85264 0.0
C4353 C 0.07251 0.09483 0.85559 0.0
C4354 C 0.07516 0.10247 0.86058 0.0
C4355 C 0.07057 0.11059 0.85944 0.0
C4356 C 0.08288 0.10232 0.86681 0.0
C4357 C 0.07735 0.08601 0.85645 0.0
C4358 C 0.08261 0.09722 0.87461 0.0
C4359 C 0.08979 0.09747 0.88064 0.0
C4360 C 0.09735 0.10287 0.87897 0.0
C4361 C 0.09761 0.10789 0.87107 0.0
C4362 C 0.09043 0.10764 0.86508 0.0
H4363 H 0.07561 0.08127 0.85095 0.0
H4364 H 0.08474 0.08705 0.85651 0.0
H4365 H 0.07546 0.08285 0.86286 0.0
H4366 H 0.07676 0.09318 0.87613 0.0
H4367 H 0.08933 0.09362 0.88671 0.0
H4368 H 0.97733 0.41098 0.83783 0.0
H4369 H 0.9661 0.41204 0.8497 0.0
H4370 H 0.94912 0.39339 0.83539 0.0
H4371 H 0.96042 0.39201 0.8237 0.0
H4372 H 0.94824 0.41745 0.84889 0.0
H4373 H 0.95077 0.38221 0.86002 0.0
H4374 H 0.95901 0.3873 0.85285 0.0
H4375 H 0.94858 0.3832 0.8483 0.0
C4376 C 0.97125 0.40703 0.83726 0.0
C4377 C 0.9698 0.40138 0.82983 0.0
C4378 C 0.96482 0.40769 0.84402 0.0
C4379 C 0.95685 0.40268 0.84349 0.0
C4380 C 0.95531 0.39718 0.83602 0.0
H4381 H 0.9079 0.39682 0.87302 0.0
H4382 H 0.92013 0.3967 0.86218 0.0
C4383 C 0.96173 0.39649 0.82928 0.0
C4384 C 0.95008 0.40327 0.85069 0.0
H4385 H 0.93825 0.39058 0.86544 0.0
C4386 C 0.94611 0.41161 0.85258 0.0
C4387 C 0.94735 0.39563 0.85551 0.0
C4388 C 0.95171 0.3866 0.85414 0.0
C4389 C 0.93925 0.41244 0.85895 0.0
C4390 C 0.93637 0.40475 0.86358 0.0
C4391 C 0.94045 0.39645 0.86182 0.0
C4392 C 0.92896 0.40508 0.87013 0.0
C4393 C 0.93494 0.42146 0.86048 0.0
C4394 C 0.92991 0.4098 0.87821 0.0
C4395 C 0.92296 0.40982 0.88447 0.0
C4396 C 0.91495 0.40508 0.88276 0.0
C4397 C 0.91403 0.40041 0.87461 0.0
C4398 C 0.92098 0.40038 0.86839 0.0
H4399 H 0.93673 0.42632 0.8552 0.0
H4400 H 0.92751 0.4208 0.86073 0.0
H4401 H 0.93723 0.42424 0.86699 0.0
H4402 H 0.93609 0.41335 0.87973 0.0
H4403 H 0.92394 0.41338 0.89072 0.0
H4404 H 0.91551 0.69374 0.06211 0.0
H4405 H 0.91894 0.68039 0.07086 0.0
H4406 H 0.89783 0.66592 0.05722 0.0
H4407 H 0.8944 0.6792 0.04843 0.0
H4408 H 0.90757 0.67211 0.08229 0.0
H4409 H 0.91825 0.64803 0.05609 0.0
H4410 H 0.91744 0.65992 0.05414 0.0
H4411 H 0.90754 0.653 0.05379 0.0
C4412 C 0.91165 0.68769 0.06093 0.0
C4413 C 0.90469 0.68752 0.05457 0.0
C4414 C 0.91364 0.68007 0.0659 0.0
C4415 C 0.90873 0.67212 0.0646 0.0
C4416 C 0.90187 0.6719 0.05817 0.0
H4417 H 0.90007 0.623 0.09258 0.0
H4418 H 0.90044 0.63546 0.08208 0.0
C4419 C 0.8999 0.6795 0.05317 0.0
C4420 C 0.91028 0.66431 0.07045 0.0
H4421 H 0.91453 0.64182 0.07031 0.0
C4422 C 0.90921 0.66551 0.07968 0.0
C4423 C 0.9124 0.65571 0.06703 0.0
C4424 C 0.91406 0.65409 0.05722 0.0
C4425 C 0.9099 0.65829 0.08556 0.0
C4426 C 0.91182 0.64965 0.08212 0.0
C4427 C 0.91305 0.64846 0.07291 0.0
C4428 C 0.91217 0.64173 0.08798 0.0
C4429 C 0.90823 0.65988 0.09537 0.0
C4430 C 0.91878 0.64102 0.09461 0.0
C4431 C 0.91856 0.63394 0.10065 0.0
C4432 C 0.91172 0.62744 0.10014 0.0
C4433 C 0.90533 0.62798 0.09323 0.0
C4434 C 0.90557 0.63505 0.0872 0.0
H4435 H 0.90509 0.66651 0.09668 0.0
H4436 H 0.90382 0.65458 0.09812 0.0
H4437 H 0.91472 0.65966 0.09902 0.0
H4438 H 0.92399 0.64607 0.09524 0.0
H4439 H 0.92355 0.63374 0.10591 0.0
H4440 H 0.53539 0.61576 0.33717 0.0
H4441 H 0.54733 0.61359 0.34817 0.0
H4442 H 0.55833 0.59219 0.33206 0.0
H4443 H 0.54643 0.59437 0.321 0.0
H4444 H 0.55204 0.59879 0.35808 0.0
H4445 H 0.57987 0.60866 0.33555 0.0
H4446 H 0.56822 0.61062 0.33285 0.0
H4447 H 0.573 0.59964 0.33139 0.0
C4448 C 0.54031 0.61054 0.33601 0.0
C4449 C 0.54 0.60527 0.32819 0.0
C4450 C 0.54714 0.60933 0.34228 0.0
C4451 C 0.5538 0.60283 0.34086 0.0
C4452 C 0.55338 0.59739 0.33319 0.0
H4453 H 0.60167 0.58992 0.37204 0.0
H4454 H 0.58909 0.58922 0.36147 0.0
C4455 C 0.54658 0.59863 0.32688 0.0
C4456 C 0.56119 0.60182 0.34741 0.0
H4457 H 0.58395 0.60349 0.34985 0.0
C4458 C 0.55902 0.5998 0.35628 0.0
C4459 C 0.57029 0.60314 0.34504 0.0
C4460 C 0.57301 0.60572 0.33572 0.0
C4461 C 0.56571 0.59908 0.36285 0.0
C4462 C 0.57478 0.60051 0.36049 0.0
C4463 C 0.57698 0.60237 0.35161 0.0
C4464 C 0.58207 0.60056 0.36722 0.0
C4465 C 0.56303 0.59677 0.37225 0.0
C4466 C 0.58227 0.60717 0.37393 0.0
C4467 C 0.58943 0.60759 0.37995 0.0
C4468 C 0.59653 0.60141 0.37937 0.0
C4469 C 0.59625 0.59471 0.37272 0.0
C4470 C 0.5891 0.59433 0.36665 0.0
H4471 H 0.55626 0.59365 0.37248 0.0
H4472 H 0.56796 0.59212 0.3753 0.0
H4473 H 0.56286 0.60299 0.37636 0.0
H4474 H 0.57697 0.61212 0.37439 0.0
H4475 H 0.58942 0.61278 0.38504 0.0
H4476 H 0.89198 0.32006 0.44471 0.0
H4477 H 0.89453 0.33388 0.43652 0.0
H4478 H 0.9135 0.34266 0.45655 0.0
H4479 H 0.91118 0.32866 0.4647 0.0
H4480 H 0.89172 0.35154 0.44291 0.0
H4481 H 0.92725 0.34579 0.43284 0.0
H4482 H 0.92012 0.33685 0.43673 0.0
H4483 H 0.92473 0.34483 0.44452 0.0
C4484 C 0.89681 0.32485 0.44731 0.0
C4485 C 0.90144 0.32321 0.45532 0.0
C4486 C 0.89821 0.33278 0.44266 0.0
C4487 C 0.90427 0.33924 0.44588 0.0
C4488 C 0.90889 0.33769 0.45389 0.0
H4489 H 0.91695 0.39008 0.41912 0.0
H4490 H 0.91656 0.3782 0.43033 0.0
C4491 C 0.90749 0.32973 0.45857 0.0
C4492 C 0.9055 0.34766 0.44088 0.0
H4493 H 0.92039 0.35908 0.42791 0.0
C4494 C 0.89801 0.35323 0.4397 0.0
C4495 C 0.91373 0.34988 0.43676 0.0
C4496 C 0.92193 0.34402 0.43769 0.0
C4497 C 0.89847 0.36083 0.43428 0.0
C4498 C 0.90658 0.36282 0.42984 0.0
C4499 C 0.91418 0.35749 0.43132 0.0
C4500 C 0.90703 0.36995 0.42306 0.0
C4501 C 0.89022 0.36659 0.43324 0.0
C4502 C 0.90196 0.36913 0.41522 0.0
C4503 C 0.90222 0.37582 0.40879 0.0
C4504 C 0.90757 0.38351 0.41009 0.0
C4505 C 0.9128 0.38423 0.4179 0.0
C4506 C 0.91255 0.37748 0.42432 0.0
H4507 H 0.88545 0.36567 0.43885 0.0
H4508 H 0.89205 0.3738 0.43286 0.0
H4509 H 0.8867 0.3647 0.42697 0.0
H4510 H 0.89781 0.36326 0.41404 0.0
H4511 H 0.89829 0.37493 0.40277 0.0
H4512 H 0.61833 0.69165 0.94501 0.0
H4513 H 0.61628 0.67786 0.93638 0.0
H4514 H 0.59733 0.66832 0.95583 0.0
H4515 H 0.59912 0.68228 0.96441 0.0
H4516 H 0.61963 0.66033 0.94241 0.0
H4517 H 0.58404 0.66472 0.93186 0.0
H4518 H 0.59077 0.6739 0.93609 0.0
H4519 H 0.58632 0.66573 0.94361 0.0
C4520 C 0.61359 0.68671 0.94738 0.0
C4521 C 0.60883 0.6881 0.95536 0.0
C4522 C 0.61249 0.67879 0.94248 0.0
C4523 C 0.60659 0.67212 0.94542 0.0
C4524 C 0.60181 0.67345 0.95338 0.0
H4525 H 0.59596 0.6205 0.91843 0.0
H4526 H 0.59587 0.63265 0.92958 0.0
C4527 C 0.60292 0.68139 0.95831 0.0
C4528 C 0.60574 0.66367 0.94024 0.0
H4529 H 0.59138 0.65156 0.92703 0.0
C4530 C 0.61344 0.65837 0.9391 0.0
C4531 C 0.59763 0.66111 0.93599 0.0
C4532 C 0.58921 0.66667 0.93686 0.0
C4533 C 0.61331 0.6507 0.93364 0.0
C4534 C 0.6053 0.64835 0.92911 0.0
C4535 C 0.5975 0.65342 0.93051 0.0
C4536 C 0.60514 0.64106 0.92236 0.0
C4537 C 0.62177 0.64523 0.93268 0.0
C4538 C 0.61023 0.64188 0.91456 0.0
C4539 C 0.61025 0.63503 0.90818 0.0
C4540 C 0.60517 0.62719 0.90947 0.0
C4541 C 0.59991 0.62646 0.91722 0.0
C4542 C 0.59988 0.63337 0.92361 0.0
H4543 H 0.62648 0.64643 0.93833 0.0
H4544 H 0.6202 0.63796 0.93229 0.0
H4545 H 0.62524 0.64714 0.92643 0.0
H4546 H 0.61418 0.64786 0.9134 0.0
H4547 H 0.61419 0.63591 0.90219 0.0
H4548 H 0.7991 0.57691 0.87369 0.0
H4549 H 0.81036 0.58872 0.87207 0.0
H4550 H 0.79927 0.59548 0.8464 0.0
H4551 H 0.78798 0.58366 0.84797 0.0
H4552 H 0.82325 0.59036 0.859 0.0
H4553 H 0.80046 0.61978 0.85919 0.0
H4554 H 0.79689 0.60879 0.86268 0.0
H4555 H 0.79767 0.61135 0.85101 0.0
C4556 C 0.79907 0.58089 0.86769 0.0
C4557 C 0.79264 0.57935 0.86096 0.0
C4558 C 0.80548 0.58766 0.86679 0.0
C4559 C 0.80558 0.59305 0.85917 0.0
C4560 C 0.79919 0.59153 0.85243 0.0
H4561 H 0.85099 0.62552 0.84228 0.0
H4562 H 0.83886 0.61449 0.84325 0.0
C4563 C 0.79275 0.58477 0.85333 0.0
C4564 C 0.81258 0.60004 0.85819 0.0
H4565 H 0.81576 0.62256 0.85572 0.0
C4566 C 0.82162 0.5974 0.85829 0.0
C4567 C 0.81042 0.60923 0.85736 0.0
C4568 C 0.80084 0.6125 0.85763 0.0
C4569 C 0.82857 0.60369 0.85751 0.0
C4570 C 0.82642 0.61285 0.85646 0.0
C4571 C 0.81738 0.61551 0.85644 0.0
C4572 C 0.83348 0.61979 0.8556 0.0
C4573 C 0.83818 0.6005 0.85803 0.0
C4574 C 0.83429 0.62659 0.86207 0.0
C4575 C 0.8412 0.63291 0.86153 0.0
C4576 C 0.84741 0.63256 0.85449 0.0
C4577 C 0.84642 0.62588 0.84788 0.0
C4578 C 0.83949 0.61958 0.84842 0.0
H4579 H 0.83867 0.59374 0.86103 0.0
H4580 H 0.84101 0.60012 0.85121 0.0
H4581 H 0.84236 0.60523 0.86203 0.0
H4582 H 0.8297 0.62689 0.86766 0.0
H4583 H 0.84183 0.63792 0.86677 0.0
H4584 H 0.21602 0.08272 0.63843 0.0
H4585 H 0.20782 0.09682 0.64032 0.0
H4586 H 0.19324 0.08556 0.66238 0.0
H4587 H 0.20152 0.07151 0.66064 0.0
H4588 H 0.18891 0.09829 0.63907 0.0
H4589 H 0.20139 0.1103 0.67195 0.0
H4590 H 0.20726 0.10199 0.66535 0.0
H4591 H 0.19765 0.09884 0.67185 0.0
C4592 C 0.2112 0.08331 0.64379 0.0
C4593 C 0.20941 0.076 0.64938 0.0
C4594 C 0.20649 0.09135 0.64484 0.0
C4595 C 0.20001 0.09226 0.65155 0.0
C4596 C 0.19833 0.08504 0.65725 0.0
H4597 H 0.15776 0.12762 0.66718 0.0
H4598 H 0.16957 0.11635 0.66587 0.0
C4599 C 0.20299 0.07699 0.65618 0.0
C4600 C 0.19447 0.10048 0.65217 0.0
H4601 H 0.18814 0.11732 0.66636 0.0
C4602 C 0.18882 0.10253 0.64498 0.0
C4603 C 0.19437 0.10596 0.6599 0.0
C4604 C 0.20055 0.10423 0.66768 0.0
C4605 C 0.18277 0.10972 0.64546 0.0
C4606 C 0.18253 0.11511 0.65327 0.0
C4607 C 0.18835 0.11318 0.66038 0.0
C4608 C 0.17586 0.1224 0.6544 0.0
C4609 C 0.1764 0.1112 0.63776 0.0
C4610 C 0.17562 0.12967 0.64853 0.0
C4611 C 0.1688 0.13607 0.64918 0.0
C4612 C 0.16213 0.13534 0.65578 0.0
C4613 C 0.16267 0.12828 0.66191 0.0
C4614 C 0.16946 0.12187 0.66122 0.0
H4615 H 0.17604 0.10527 0.63324 0.0
H4616 H 0.16953 0.11273 0.6402 0.0
H4617 H 0.17877 0.11699 0.63381 0.0
H4618 H 0.18061 0.13029 0.64333 0.0
H4619 H 0.16857 0.1414 0.64434 0.0
H4620 H 0.71756 0.43091 0.35623 0.0
H4621 H 0.70854 0.41727 0.35414 0.0
H4622 H 0.68671 0.42952 0.36859 0.0
H4623 H 0.69567 0.44305 0.37086 0.0
H4624 H 0.69998 0.40615 0.36767 0.0
H4625 H 0.67561 0.42146 0.34431 0.0
H4626 H 0.68648 0.42633 0.34664 0.0
H4627 H 0.67739 0.42787 0.35436 0.0
C4628 C 0.71086 0.43067 0.35902 0.0
C4629 C 0.7073 0.43812 0.36363 0.0
C4630 C 0.70572 0.42289 0.35779 0.0
C4631 C 0.69693 0.42247 0.36109 0.0
C4632 C 0.69343 0.4298 0.36584 0.0
H4633 H 0.65174 0.38836 0.36609 0.0
H4634 H 0.66332 0.39996 0.36633 0.0
C4635 C 0.69855 0.43754 0.3671 0.0
C4636 C 0.69133 0.41439 0.35967 0.0
H4637 H 0.67129 0.40758 0.35085 0.0
C4638 C 0.69377 0.40639 0.36389 0.0
C4639 C 0.68327 0.41475 0.35469 0.0
C4640 C 0.68055 0.42304 0.34967 0.0
C4641 C 0.68808 0.39886 0.36365 0.0
C4642 C 0.67984 0.39936 0.35899 0.0
C4643 C 0.67759 0.40725 0.35447 0.0
C4644 C 0.67313 0.39204 0.35916 0.0
C4645 C 0.69073 0.39057 0.36871 0.0
C4646 C 0.67485 0.38372 0.35507 0.0
C4647 C 0.66821 0.37707 0.35488 0.0
C4648 C 0.65974 0.37867 0.35872 0.0
C4649 C 0.65814 0.38696 0.36294 0.0
C4650 C 0.66476 0.39358 0.36313 0.0
H4651 H 0.69656 0.3918 0.3732 0.0
H4652 H 0.685 0.38811 0.37275 0.0
H4653 H 0.69257 0.38519 0.3639 0.0
H4654 H 0.68123 0.38245 0.35185 0.0
H4655 H 0.66961 0.37078 0.3515 0.0
H4656 H 0.28507 0.92312 0.13753 0.0
H4657 H 0.29635 0.91131 0.1391 0.0
H4658 H 0.30961 0.92672 0.15973 0.0
H4659 H 0.29827 0.9385 0.15832 0.0
H4660 H 0.31538 0.91357 0.13692 0.0
H4661 H 0.30647 0.90145 0.1707 0.0
H4662 H 0.29886 0.90798 0.16398 0.0
H4663 H 0.30796 0.91337 0.16981 0.0
C4664 C 0.29031 0.92394 0.14249 0.0
C4665 C 0.29077 0.93173 0.14782 0.0
C4666 C 0.29677 0.91721 0.14334 0.0
C4667 C 0.30374 0.91811 0.1496 0.0
C4668 C 0.3042 0.92585 0.15496 0.0
H4669 H 0.35068 0.88764 0.16425 0.0
H4670 H 0.33832 0.89834 0.1631 0.0
C4671 C 0.29777 0.93261 0.15408 0.0
C4672 C 0.31075 0.91112 0.15026 0.0
H4673 H 0.31999 0.89589 0.16442 0.0
C4674 C 0.31637 0.90965 0.1429 0.0
C4675 C 0.31201 0.90608 0.15809 0.0
C4676 C 0.30597 0.90722 0.16608 0.0
C4677 C 0.32338 0.90339 0.14323 0.0
C4678 C 0.32466 0.89833 0.15108 0.0
C4679 C 0.31899 0.89977 0.15842 0.0
C4680 C 0.33198 0.89167 0.15186 0.0
C4681 C 0.32953 0.90246 0.13529 0.0
C4682 C 0.33243 0.88428 0.14603 0.0
C4683 C 0.33955 0.87821 0.1466 0.0
C4684 C 0.34631 0.87937 0.15307 0.0
C4685 C 0.34568 0.88664 0.15908 0.0
C4686 C 0.33858 0.89272 0.15848 0.0
H4687 H 0.32912 0.90837 0.13085 0.0
H4688 H 0.33662 0.90161 0.13744 0.0
H4689 H 0.32754 0.89646 0.13134 0.0
H4690 H 0.3273 0.88324 0.14099 0.0
H4691 H 0.33984 0.87272 0.14183 0.0
H4692 H 0.78402 0.42478 0.65824 0.0
H4693 H 0.79556 0.4132 0.65973 0.0
H4694 H 0.81328 0.42841 0.64293 0.0
H4695 H 0.80177 0.43993 0.64126 0.0
H4696 H 0.80423 0.40315 0.64562 0.0
H4697 H 0.8283 0.42343 0.6657 0.0
H4698 H 0.81661 0.42643 0.66452 0.0
H4699 H 0.82441 0.42873 0.6557 0.0
C4700 C 0.79035 0.42564 0.65482 0.0
C4701 C 0.79198 0.43332 0.64967 0.0
C4702 C 0.79694 0.41904 0.65571 0.0
C4703 C 0.8053 0.42003 0.65155 0.0
C4704 C 0.80693 0.42762 0.64635 0.0
H4705 H 0.8546 0.39074 0.64589 0.0
H4706 H 0.84219 0.40144 0.64559 0.0
C4707 C 0.80035 0.43421 0.64542 0.0
C4708 C 0.81228 0.41305 0.65245 0.0
H4709 H 0.83368 0.4096 0.65985 0.0
C4710 C 0.81064 0.40451 0.6488 0.0
C4711 C 0.82063 0.41488 0.6566 0.0
C4712 C 0.8226 0.42383 0.66093 0.0
C4713 C 0.81727 0.39782 0.64891 0.0
C4714 C 0.82568 0.3997 0.65294 0.0
C4715 C 0.82724 0.40819 0.65674 0.0
C4716 C 0.83307 0.39306 0.65305 0.0
C4717 C 0.81533 0.38893 0.64444 0.0
C4718 C 0.83208 0.38482 0.6574 0.0
C4719 C 0.83917 0.37869 0.65757 0.0
C4720 C 0.84741 0.38073 0.65349 0.0
C4721 C 0.84838 0.38901 0.64918 0.0
C4722 C 0.84128 0.39511 0.64898 0.0
H4723 H 0.8095 0.38933 0.63982 0.0
H4724 H 0.82126 0.38651 0.64064 0.0
H4725 H 0.81374 0.38389 0.6496 0.0
H4726 H 0.82586 0.38319 0.66075 0.0
H4727 H 0.83827 0.37242 0.66105 0.0
H4728 H 0.30104 0.07142 0.35326 0.0
H4729 H 0.3125 0.08307 0.35176 0.0
H4730 H 0.2956 0.10173 0.36602 0.0
H4731 H 0.28421 0.09004 0.3678 0.0
H4732 H 0.3115 0.10007 0.34386 0.0
H4733 H 0.31935 0.1024 0.38006 0.0
H4734 H 0.31298 0.09324 0.37528 0.0
H4735 H 0.30771 0.1039 0.37727 0.0
C4736 C 0.29978 0.07799 0.35614 0.0
C4737 C 0.29174 0.07978 0.36072 0.0
C4738 C 0.30631 0.08465 0.35522 0.0
C4739 C 0.30494 0.09321 0.35889 0.0
C4740 C 0.29684 0.09511 0.36326 0.0
H4741 H 0.33816 0.1403 0.34831 0.0
H4742 H 0.32567 0.12966 0.34931 0.0
C4743 C 0.2903 0.08845 0.36419 0.0
C4744 C 0.31207 0.1001 0.35821 0.0
H4745 H 0.32658 0.1128 0.37067 0.0
C4746 C 0.31479 0.10288 0.34971 0.0
C4747 C 0.31641 0.10365 0.36586 0.0
C4748 C 0.31404 0.10061 0.37514 0.0
C4749 C 0.32174 0.10916 0.34866 0.0
C4750 C 0.32597 0.11282 0.35632 0.0
C4751 C 0.32326 0.11002 0.36482 0.0
C4752 C 0.33348 0.1193 0.35569 0.0
C4753 C 0.32464 0.11164 0.33937 0.0
C4754 C 0.34195 0.11708 0.35912 0.0
C4755 C 0.34906 0.12316 0.35865 0.0
C4756 C 0.34784 0.13162 0.35477 0.0
C4757 C 0.33931 0.13386 0.35139 0.0
C4758 C 0.33219 0.12776 0.35187 0.0
H4759 H 0.32218 0.10674 0.3343 0.0
H4760 H 0.32186 0.11831 0.3377 0.0
H4761 H 0.33207 0.11204 0.33893 0.0
H4762 H 0.34306 0.11061 0.36216 0.0
H4763 H 0.35549 0.12128 0.36146 0.0
H4764 H 0.69998 0.57289 0.13419 0.0
H4765 H 0.69156 0.58674 0.13659 0.0
H4766 H 0.7057 0.59125 0.16137 0.0
H4767 H 0.71414 0.57734 0.15903 0.0
H4768 H 0.68035 0.59024 0.15091 0.0
H4769 H 0.70757 0.61564 0.14894 0.0
H4770 H 0.7089 0.60428 0.1449 0.0
H4771 H 0.70962 0.60669 0.15663 0.0
C4772 C 0.7013 0.57682 0.14015 0.0
C4773 C 0.7077 0.574 0.14644 0.0
C4774 C 0.69653 0.58476 0.14148 0.0
C4775 C 0.69808 0.59007 0.14911 0.0
C4776 C 0.70454 0.58735 0.15535 0.0
H4777 H 0.65986 0.62876 0.16999 0.0
H4778 H 0.67088 0.61672 0.16833 0.0
C4779 C 0.70934 0.5794 0.15401 0.0
C4780 C 0.69248 0.5981 0.15076 0.0
H4781 H 0.69323 0.62084 0.15356 0.0
C4782 C 0.68316 0.59693 0.15149 0.0
C4783 C 0.69618 0.60682 0.15144 0.0
C4784 C 0.70611 0.60849 0.15036 0.0
C4785 C 0.67743 0.60424 0.15291 0.0
C4786 C 0.68113 0.61294 0.15379 0.0
C4787 C 0.69044 0.61414 0.15299 0.0
C4788 C 0.67533 0.62085 0.15528 0.0
C4789 C 0.66743 0.60261 0.1533 0.0
C4790 C 0.67447 0.62737 0.14864 0.0
C4791 C 0.66818 0.63427 0.14957 0.0
C4792 C 0.66266 0.63474 0.15716 0.0
C4793 C 0.6639 0.62847 0.164 0.0
C4794 C 0.67019 0.6216 0.16307 0.0
H4795 H 0.66557 0.59593 0.15052 0.0
H4796 H 0.6652 0.60288 0.16036 0.0
H4797 H 0.66372 0.60784 0.14958 0.0
H4798 H 0.6784 0.6269 0.14259 0.0
H4799 H 0.66736 0.63897 0.14417 0.0
H4800 H 0.19417 0.94441 0.86831 0.0
H4801 H 0.18516 0.93086 0.86636 0.0
H4802 H 0.20708 0.91808 0.8525 0.0
H4803 H 0.21615 0.93172 0.85429 0.0
H4804 H 0.18058 0.92228 0.84961 0.0
H4805 H 0.19982 0.90006 0.8724 0.0
H4806 H 0.2008 0.91213 0.87287 0.0
H4807 H 0.20605 0.90594 0.864 0.0
C4808 C 0.19707 0.93876 0.86477 0.0
C4809 C 0.20587 0.93917 0.86141 0.0
C4810 C 0.19192 0.931 0.86371 0.0
C4811 C 0.19549 0.92346 0.85936 0.0
C4812 C 0.20427 0.9238 0.856 0.0
H4813 H 0.16769 0.87188 0.85139 0.0
H4814 H 0.1792 0.88367 0.85109 0.0
C4815 C 0.20943 0.93159 0.85704 0.0
C4816 C 0.18983 0.91537 0.8582 0.0
H4817 H 0.18693 0.89395 0.86552 0.0
C4818 C 0.182 0.91606 0.85303 0.0
C4819 C 0.19176 0.90726 0.8626 0.0
C4820 C 0.20003 0.90625 0.86834 0.0
C4821 C 0.17592 0.90892 0.85233 0.0
C4822 C 0.17763 0.90094 0.85706 0.0
C4823 C 0.18564 0.9001 0.86194 0.0
C4824 C 0.17087 0.89368 0.8575 0.0
C4825 C 0.16766 0.90999 0.84658 0.0
C4826 C 0.16249 0.89536 0.86141 0.0
C4827 C 0.15595 0.88867 0.86164 0.0
C4828 C 0.15766 0.88013 0.85798 0.0
C4829 C 0.16617 0.87838 0.8543 0.0
C4830 C 0.17274 0.8851 0.85408 0.0
H4831 H 0.16861 0.91527 0.84149 0.0
H4832 H 0.1659 0.9036 0.84314 0.0
H4833 H 0.16191 0.91198 0.85086 0.0
H4834 H 0.161 0.90188 0.86428 0.0
H4835 H 0.14955 0.89018 0.86471 0.0
H4836 H 0.84627 0.78898 0.58618 0.0
H4837 H 0.84394 0.80044 0.59775 0.0
H4838 H 0.86888 0.81311 0.59045 0.0
H4839 H 0.87126 0.80171 0.57891 0.0
H4840 H 0.85453 0.80512 0.61237 0.0
H4841 H 0.85089 0.83371 0.58929 0.0
H4842 H 0.85038 0.82219 0.58555 0.0
H4843 H 0.86106 0.82748 0.58761 0.0
C4844 C 0.85128 0.79418 0.58707 0.0
C4845 C 0.85892 0.79449 0.58158 0.0
C4846 C 0.84992 0.80074 0.59366 0.0
C4847 C 0.85616 0.80771 0.59484 0.0
C4848 C 0.86387 0.80792 0.5895 0.0
H4849 H 0.86451 0.84349 0.63962 0.0
H4850 H 0.86478 0.83114 0.6288 0.0
C4851 C 0.86522 0.8014 0.5829 0.0
C4852 C 0.85468 0.81472 0.60173 0.0
H4853 H 0.85287 0.83735 0.60468 0.0
C4854 C 0.85409 0.81216 0.6107 0.0
C4855 C 0.85397 0.82389 0.59951 0.0
C4856 C 0.85401 0.82699 0.58996 0.0
C4857 C 0.8531 0.81857 0.61754 0.0
C4858 C 0.85284 0.82777 0.61535 0.0
C4859 C 0.85316 0.8303 0.60636 0.0
C4860 C 0.8524 0.83493 0.62225 0.0
C4861 C 0.85226 0.81542 0.62704 0.0
C4862 C 0.84543 0.84125 0.62208 0.0
C4863 C 0.84529 0.84835 0.62822 0.0
C4864 C 0.85214 0.84927 0.63463 0.0
C4865 C 0.85906 0.84287 0.63486 0.0
C4866 C 0.85921 0.8358 0.62869 0.0
H4867 H 0.84991 0.80836 0.62733 0.0
H4868 H 0.85894 0.81578 0.63032 0.0
H4869 H 0.84754 0.8197 0.63089 0.0
H4870 H 0.84011 0.84072 0.61715 0.0
H4871 H 0.83982 0.85312 0.62794 0.0
H4872 H 0.93465 0.13915 0.29406 0.0
H4873 H 0.92283 0.14128 0.30515 0.0
H4874 H 0.9163 0.16688 0.2937 0.0
H4875 H 0.92815 0.1648 0.28256 0.0
H4876 H 0.9213 0.15479 0.31773 0.0
H4877 H 0.89184 0.15444 0.29495 0.0
H4878 H 0.90282 0.15067 0.29151 0.0
H4879 H 0.90037 0.16245 0.29213 0.0
C4880 C 0.93073 0.14525 0.29391 0.0
C4881 C 0.93234 0.15181 0.28743 0.0
C4882 C 0.92395 0.14644 0.30023 0.0
C4883 C 0.91862 0.15418 0.30018 0.0
C4884 C 0.92021 0.16076 0.29374 0.0
H4885 H 0.88604 0.172 0.34519 0.0
H4886 H 0.89704 0.17095 0.33312 0.0
C4887 C 0.92698 0.15957 0.28739 0.0
C4888 C 0.91161 0.15546 0.30708 0.0
H4889 H 0.88905 0.15816 0.31011 0.0
C4890 C 0.91425 0.15553 0.31607 0.0
C4891 C 0.90241 0.15633 0.30488 0.0
C4892 C 0.89915 0.15589 0.29535 0.0
C4893 C 0.90794 0.15648 0.32294 0.0
C4894 C 0.89876 0.15755 0.32075 0.0
C4895 C 0.89611 0.15743 0.31176 0.0
C4896 C 0.89179 0.1585 0.32772 0.0
C4897 C 0.91113 0.1561 0.33249 0.0
C4898 C 0.88501 0.15202 0.32849 0.0
C4899 C 0.8787 0.15262 0.33536 0.0
C4900 C 0.87905 0.15973 0.34157 0.0
C4901 C 0.88569 0.16636 0.34061 0.0
C4902 C 0.89198 0.16577 0.33372 0.0
H4903 H 0.91792 0.15307 0.33303 0.0
H4904 H 0.91149 0.16301 0.33527 0.0
H4905 H 0.9064 0.15217 0.33664 0.0
H4906 H 0.88474 0.14637 0.32391 0.0
H4907 H 0.87372 0.14736 0.33596 0.0
H4908 H 0.64232 0.21006 0.07838 0.0
H4909 H 0.64439 0.19867 0.0898 0.0
H4910 H 0.66255 0.2162 0.10406 0.0
H4911 H 0.66067 0.22761 0.09256 0.0
H4912 H 0.6614 0.19083 0.09522 0.0
H4913 H 0.64359 0.20827 0.12297 0.0
H4914 H 0.64199 0.21127 0.11143 0.0
H4915 H 0.65205 0.21458 0.1172 0.0
C4916 C 0.64682 0.21149 0.0839 0.0
C4917 C 0.65135 0.21975 0.08453 0.0
C4918 C 0.64794 0.20499 0.09045 0.0
C4919 C 0.65355 0.20664 0.0978 0.0
C4920 C 0.65808 0.21487 0.0985 0.0
H4921 H 0.66532 0.17252 0.14355 0.0
H4922 H 0.66477 0.18506 0.13309 0.0
C4923 C 0.65699 0.22137 0.09193 0.0
C4924 C 0.65481 0.19961 0.10458 0.0
H4925 H 0.65013 0.19427 0.12617 0.0
C4926 C 0.65896 0.19157 0.10199 0.0
C4927 C 0.65168 0.20067 0.11342 0.0
C4928 C 0.64702 0.20912 0.11646 0.0
C4929 C 0.66003 0.18451 0.10801 0.0
C4930 C 0.65665 0.18544 0.11678 0.0
C4931 C 0.65268 0.19357 0.11943 0.0
C4932 C 0.65688 0.17794 0.12318 0.0
C4933 C 0.66482 0.17614 0.10493 0.0
C4934 C 0.65246 0.16986 0.12115 0.0
C4935 C 0.65276 0.16271 0.12708 0.0
C4936 C 0.65742 0.16353 0.13522 0.0
C4937 C 0.66165 0.17171 0.13735 0.0
C4938 C 0.66137 0.17886 0.13138 0.0
H4939 H 0.66926 0.17748 0.09914 0.0
H4940 H 0.66894 0.17325 0.11038 0.0
H4941 H 0.65978 0.17106 0.10281 0.0
H4942 H 0.64875 0.16909 0.11497 0.0
H4943 H 0.64927 0.15657 0.12534 0.0
H4944 H 0.57826 0.85312 0.79093 0.0
H4945 H 0.5917 0.85017 0.79993 0.0
H4946 H 0.57934 0.8632 0.82253 0.0
H4947 H 0.56601 0.86634 0.8136 0.0
H4948 H 0.60291 0.86302 0.8096 0.0
H4949 H 0.58692 0.83812 0.83177 0.0
H4950 H 0.58219 0.84121 0.82113 0.0
H4951 H 0.58069 0.84836 0.83072 0.0
C4952 C 0.57843 0.85541 0.7978 0.0
C4953 C 0.57102 0.85989 0.80157 0.0
C4954 C 0.58609 0.85368 0.80293 0.0
C4955 C 0.58643 0.85634 0.81192 0.0
C4956 C 0.57912 0.86093 0.81565 0.0
H4957 H 0.62016 0.85846 0.85742 0.0
H4958 H 0.60858 0.85916 0.84592 0.0
C4959 C 0.5715 0.86269 0.81054 0.0
C4960 C 0.59443 0.85449 0.81746 0.0
H4961 H 0.60088 0.84431 0.83672 0.0
C4962 C 0.60254 0.85883 0.81546 0.0
C4963 C 0.5939 0.84898 0.82506 0.0
C4964 C 0.58548 0.84382 0.82727 0.0
C4965 C 0.61001 0.85819 0.82116 0.0
C4966 C 0.60934 0.85298 0.82897 0.0
C4967 C 0.60135 0.84835 0.83075 0.0
C4968 C 0.6166 0.85271 0.83572 0.0
C4969 C 0.61841 0.86341 0.81903 0.0
C4970 C 0.62497 0.84884 0.83379 0.0
C4971 C 0.63162 0.84839 0.84039 0.0
C4972 C 0.62997 0.85174 0.84903 0.0
C4973 C 0.6216 0.85568 0.85088 0.0
C4974 C 0.61498 0.85613 0.8443 0.0
H4975 H 0.61728 0.86834 0.81363 0.0
H4976 H 0.6209 0.86703 0.82505 0.0
H4977 H 0.62374 0.8587 0.81683 0.0
H4978 H 0.6263 0.84603 0.82724 0.0
H4979 H 0.63797 0.84523 0.83879 0.0
H4980 H 0.87088 0.19369 0.94297 0.0
H4981 H 0.86785 0.18506 0.92939 0.0
H4982 H 0.8524 0.20701 0.9189 0.0
H4983 H 0.85524 0.21569 0.9326 0.0
H4984 H 0.84986 0.18075 0.92241 0.0
H4985 H 0.87109 0.20022 0.89888 0.0
H4986 H 0.87281 0.20069 0.91081 0.0
H4987 H 0.86339 0.20631 0.90592 0.0
C4988 C 0.86677 0.19668 0.93782 0.0
C4989 C 0.86326 0.20537 0.9389 0.0
C4990 C 0.8651 0.19176 0.93004 0.0
C4991 C 0.85996 0.19544 0.92314 0.0
C4992 C 0.85649 0.20412 0.92412 0.0
H4993 H 0.84794 0.16856 0.87191 0.0
H4994 H 0.8486 0.17996 0.88382 0.0
C4995 C 0.85813 0.20906 0.93194 0.0
C4996 C 0.85808 0.18998 0.91507 0.0
H4997 H 0.86377 0.1874 0.89315 0.0
C4998 C 0.85283 0.18224 0.91599 0.0
C4999 C 0.8619 0.19202 0.90671 0.0
C5000 C 0.86766 0.20023 0.90545 0.0
C5001 C 0.85149 0.17632 0.9088 0.0
C5002 C 0.85568 0.1781 0.90054 0.0
C5003 C 0.86061 0.18605 0.89951 0.0
C5004 C 0.85554 0.17144 0.89317 0.0
C5005 C 0.84567 0.16815 0.91013 0.0
C5006 C 0.85945 0.163 0.89443 0.0
C5007 C 0.85912 0.15653 0.88767 0.0
C5008 C 0.8549 0.15838 0.87949 0.0
C5009 C 0.85125 0.16695 0.87813 0.0
C5010 C 0.85158 0.17345 0.88493 0.0
H5011 H 0.84091 0.16912 0.91575 0.0
H5012 H 0.84178 0.16651 0.904 0.0
H5013 H 0.85001 0.16234 0.91172 0.0
H5014 H 0.86274 0.16141 0.90067 0.0
H5015 H 0.86219 0.15007 0.88886 0.0
H5016 H 0.56843 0.14265 0.69885 0.0
H5017 H 0.58198 0.14587 0.69033 0.0
H5018 H 0.59306 0.16031 0.71283 0.0
H5019 H 0.57939 0.15729 0.7214 0.0
H5020 H 0.58921 0.16399 0.68694 0.0
H5021 H 0.61282 0.14153 0.70502 0.0
H5022 H 0.6008 0.13996 0.70541 0.0
H5023 H 0.6059 0.14902 0.71149 0.0
C5024 C 0.57369 0.14659 0.70198 0.0
C5025 C 0.57279 0.14976 0.7108 0.0
C5026 C 0.58146 0.14836 0.69712 0.0
C5027 C 0.58852 0.15327 0.70099 0.0
C5028 C 0.58771 0.15641 0.70979 0.0
H5029 H 0.63996 0.16498 0.67454 0.0
H5030 H 0.62813 0.16426 0.68591 0.0
C5031 C 0.57991 0.15467 0.71466 0.0
C5032 C 0.59659 0.15523 0.69562 0.0
H5033 H 0.61848 0.14918 0.69257 0.0
C5034 C 0.59564 0.16083 0.68821 0.0
C5035 C 0.60497 0.15116 0.69737 0.0
C5036 C 0.60625 0.14504 0.70522 0.0
C5037 C 0.6028 0.16226 0.68234 0.0
C5038 C 0.61105 0.15782 0.68382 0.0
C5039 C 0.61213 0.15254 0.69145 0.0
C5040 C 0.61834 0.15804 0.67714 0.0
C5041 C 0.60143 0.16844 0.67455 0.0
C5042 C 0.61681 0.15457 0.66855 0.0
C5043 C 0.62352 0.15494 0.6621 0.0
C5044 C 0.63193 0.15876 0.6641 0.0
C5045 C 0.63356 0.16199 0.6728 0.0
C5046 C 0.62681 0.16162 0.67929 0.0
H5047 H 0.59593 0.1733 0.67584 0.0
H5048 H 0.60767 0.17222 0.67303 0.0
H5049 H 0.59958 0.16441 0.66857 0.0
H5050 H 0.6104 0.15157 0.66684 0.0
H5051 H 0.62212 0.1522 0.65553 0.0
H5052 H 0.64839 0.78361 0.41614 0.0
H5053 H 0.65022 0.79491 0.40456 0.0
H5054 H 0.65966 0.81391 0.42431 0.0
H5055 H 0.65813 0.80257 0.43589 0.0
H5056 H 0.64161 0.81135 0.40377 0.0
H5057 H 0.67859 0.81584 0.40468 0.0
H5058 H 0.67304 0.80636 0.40968 0.0
H5059 H 0.67331 0.81701 0.41538 0.0
C5060 C 0.65102 0.79014 0.418 0.0
C5061 C 0.65314 0.79218 0.42694 0.0
C5062 C 0.65201 0.7966 0.41139 0.0
C5063 C 0.65519 0.8052 0.41356 0.0
C5064 C 0.65735 0.80726 0.42246 0.0
H5065 H 0.64855 0.85487 0.3855 0.0
H5066 H 0.64819 0.84231 0.39587 0.0
C5067 C 0.65637 0.8008 0.42908 0.0
C5068 C 0.65578 0.81218 0.40661 0.0
H5069 H 0.67023 0.82675 0.39662 0.0
C5070 C 0.64788 0.81467 0.40216 0.0
C5071 C 0.66398 0.81643 0.40446 0.0
C5072 C 0.67274 0.81373 0.40873 0.0
C5073 C 0.64792 0.8215 0.39578 0.0
C5074 C 0.65604 0.82599 0.3939 0.0
C5075 C 0.66399 0.82333 0.39816 0.0
C5076 C 0.65637 0.8336 0.38764 0.0
C5077 C 0.63927 0.82384 0.39109 0.0
C5078 C 0.66124 0.8329 0.37967 0.0
C5079 C 0.66148 0.84008 0.37374 0.0
C5080 C 0.65695 0.84811 0.37574 0.0
C5081 C 0.65217 0.8488 0.3838 0.0
C5082 C 0.65189 0.84161 0.38969 0.0
H5083 H 0.63418 0.81843 0.3917 0.0
H5084 H 0.63645 0.83003 0.39412 0.0
H5085 H 0.64047 0.82511 0.3839 0.0
H5086 H 0.66479 0.82678 0.37801 0.0
H5087 H 0.6653 0.83938 0.36763 0.0
H5088 H 0.94388 0.85158 0.20243 0.0
H5089 H 0.92994 0.84934 0.194 0.0
H5090 H 0.91678 0.86923 0.21038 0.0
H5091 H 0.93074 0.87165 0.21874 0.0
H5092 H 0.91189 0.84469 0.20018 0.0
H5093 H 0.91399 0.8782 0.18426 0.0
H5094 H 0.92349 0.87307 0.18968 0.0
H5095 H 0.9147 0.87804 0.19623 0.0
C5096 C 0.93802 0.85548 0.20423 0.0
C5097 C 0.93843 0.86185 0.2112 0.0
C5098 C 0.93006 0.85415 0.19945 0.0
C5099 C 0.92239 0.85919 0.20152 0.0
C5100 C 0.92267 0.86534 0.20864 0.0
H5101 H 0.87264 0.8644 0.17112 0.0
H5102 H 0.8839 0.86546 0.18299 0.0
C5103 C 0.93062 0.86666 0.21344 0.0
C5104 C 0.91422 0.85825 0.19595 0.0
H5105 H 0.90156 0.8692 0.18051 0.0
C5106 C 0.90959 0.85005 0.19591 0.0
C5107 C 0.91123 0.86528 0.19043 0.0
C5108 C 0.91612 0.87413 0.19006 0.0
C5109 C 0.90204 0.84868 0.19042 0.0
C5110 C 0.89921 0.85563 0.1847 0.0
C5111 C 0.90373 0.86389 0.18491 0.0
C5112 C 0.89189 0.85436 0.17809 0.0
C5113 C 0.89716 0.83983 0.19084 0.0
C5114 C 0.89262 0.84775 0.17142 0.0
C5115 C 0.88616 0.84708 0.16468 0.0
C5116 C 0.87889 0.85308 0.1644 0.0
C5117 C 0.87809 0.8596 0.17119 0.0
C5118 C 0.88455 0.86025 0.17795 0.0
H5119 H 0.89828 0.83649 0.19735 0.0
H5120 H 0.88983 0.8407 0.18982 0.0
H5121 H 0.89974 0.83531 0.18552 0.0
H5122 H 0.89832 0.84326 0.17127 0.0
H5123 H 0.88693 0.84193 0.15961 0.0
H5124 H 0.07615 0.66156 0.21804 0.0
H5125 H 0.08984 0.66486 0.2096 0.0
H5126 H 0.08538 0.64135 0.19326 0.0
H5127 H 0.07176 0.63798 0.20164 0.0
H5128 H 0.10557 0.65449 0.20637 0.0
H5129 H 0.08701 0.66188 0.17519 0.0
H5130 H 0.08155 0.6612 0.1859 0.0
H5131 H 0.08433 0.65114 0.17981 0.0
C5132 C 0.07814 0.65705 0.2127 0.0
C5133 C 0.07282 0.64957 0.21043 0.0
C5134 C 0.08594 0.65896 0.20788 0.0
C5135 C 0.08852 0.65343 0.20072 0.0
C5136 C 0.08339 0.6458 0.19864 0.0
H5137 H 0.13785 0.64802 0.17135 0.0
H5138 H 0.12586 0.64708 0.18244 0.0
C5139 C 0.0756 0.64391 0.20342 0.0
C5140 C 0.09647 0.65568 0.19527 0.0
H5141 H 0.10283 0.6601 0.17392 0.0
C5142 C 0.10499 0.6558 0.19929 0.0
C5143 C 0.09566 0.65753 0.18607 0.0
C5144 C 0.08664 0.65803 0.18149 0.0
C5145 C 0.11278 0.6574 0.19427 0.0
C5146 C 0.11199 0.6588 0.18498 0.0
C5147 C 0.10344 0.65897 0.18103 0.0
C5148 C 0.11991 0.65986 0.1791 0.0
C5149 C 0.12174 0.65765 0.19897 0.0
C5150 C 0.12055 0.66734 0.17352 0.0
C5151 C 0.12733 0.66784 0.16712 0.0
C5152 C 0.1336 0.66086 0.16618 0.0
C5153 C 0.13317 0.65354 0.172 0.0
C5154 C 0.12634 0.65302 0.17836 0.0
H5155 H 0.12098 0.65924 0.20618 0.0
H5156 H 0.12496 0.65096 0.19839 0.0
H5157 H 0.12629 0.66267 0.19594 0.0
H5158 H 0.11566 0.67269 0.17396 0.0
H5159 H 0.12756 0.6736 0.16278 0.0
H5160 H 0.13715 0.29803 0.92963 0.0
H5161 H 0.13892 0.30932 0.91805 0.0
H5162 H 0.16475 0.29824 0.91115 0.0
H5163 H 0.16303 0.2869 0.92274 0.0
H5164 H 0.15217 0.32215 0.91667 0.0
H5165 H 0.15205 0.29964 0.88698 0.0
H5166 H 0.14844 0.29599 0.89785 0.0
H5167 H 0.16021 0.2968 0.89533 0.0
C5168 C 0.14322 0.29801 0.92566 0.0
C5169 C 0.14995 0.29157 0.9271 0.0
C5170 C 0.1442 0.30444 0.91903 0.0
C5171 C 0.15191 0.30455 0.91367 0.0
C5172 C 0.15866 0.29815 0.91508 0.0
H5173 H 0.16887 0.35033 0.88218 0.0
H5174 H 0.16799 0.33807 0.89287 0.0
C5175 C 0.15767 0.29169 0.92171 0.0
C5176 C 0.15299 0.31158 0.90684 0.0
H5177 H 0.15552 0.31495 0.88448 0.0
C5178 C 0.15291 0.32059 0.90963 0.0
C5179 C 0.15385 0.30951 0.89766 0.0
C5180 C 0.15357 0.29997 0.89423 0.0
C5181 C 0.1537 0.32758 0.90349 0.0
C5182 C 0.15477 0.3255 0.89433 0.0
C5183 C 0.15479 0.31651 0.89152 0.0
C5184 C 0.15561 0.33261 0.88755 0.0
C5185 C 0.15317 0.33713 0.90685 0.0
C5186 C 0.1491 0.33342 0.88082 0.0
C5187 C 0.14959 0.34039 0.87468 0.0
C5188 C 0.15663 0.34669 0.87515 0.0
C5189 C 0.16328 0.34569 0.88174 0.0
C5190 C 0.16279 0.3387 0.88786 0.0
H5191 H 0.15013 0.33755 0.9136 0.0
H5192 H 0.16005 0.33998 0.90727 0.0
H5193 H 0.14917 0.34134 0.90224 0.0
H5194 H 0.14351 0.32877 0.88046 0.0
H5195 H 0.14433 0.34101 0.86973 0.0
H5196 H 0.43418 0.35348 0.71935 0.0
H5197 H 0.4205 0.35082 0.71057 0.0
H5198 H 0.4322 0.36479 0.68839 0.0
H5199 H 0.44578 0.36762 0.6971 0.0
H5200 H 0.40902 0.36395 0.70211 0.0
H5201 H 0.42424 0.34024 0.67783 0.0
H5202 H 0.42937 0.34288 0.68847 0.0
H5203 H 0.43049 0.35046 0.67927 0.0
C5204 C 0.43382 0.35603 0.71262 0.0
C5205 C 0.44112 0.36069 0.7089 0.0
C5206 C 0.42602 0.35447 0.70761 0.0
C5207 C 0.42542 0.35749 0.6988 0.0
C5208 C 0.43262 0.36224 0.69512 0.0
H5209 H 0.39019 0.36155 0.65463 0.0
H5210 H 0.40209 0.36193 0.66584 0.0
C5211 C 0.44039 0.36382 0.70011 0.0
C5212 C 0.41723 0.35587 0.69341 0.0
H5213 H 0.41013 0.34663 0.67374 0.0
C5214 C 0.40919 0.36006 0.69597 0.0
C5215 C 0.4175 0.35075 0.68545 0.0
C5216 C 0.42584 0.34575 0.68262 0.0
C5217 C 0.40153 0.35965 0.69049 0.0
C5218 C 0.40194 0.35485 0.68233 0.0
C5219 C 0.40987 0.35036 0.67997 0.0
C5220 C 0.39445 0.35486 0.67582 0.0
C5221 C 0.3932 0.3647 0.69324 0.0
C5222 C 0.38619 0.35078 0.67774 0.0
C5223 C 0.37936 0.35052 0.67131 0.0
C5224 C 0.38072 0.35428 0.66284 0.0
C5225 C 0.38897 0.35847 0.66102 0.0
C5226 C 0.39577 0.35873 0.66743 0.0
H5227 H 0.39449 0.36933 0.69895 0.0
H5228 H 0.39052 0.36863 0.68757 0.0
H5229 H 0.38794 0.35985 0.69526 0.0
H5230 H 0.3851 0.34764 0.68413 0.0
H5231 H 0.37311 0.34717 0.67287 0.0
H5232 H 0.14339 0.70961 0.57733 0.0
H5233 H 0.14529 0.6981 0.58867 0.0
H5234 H 0.16359 0.71531 0.60314 0.0
H5235 H 0.16187 0.72684 0.59173 0.0
H5236 H 0.1619 0.68986 0.59421 0.0
H5237 H 0.14451 0.70779 0.6219 0.0
H5238 H 0.14313 0.7109 0.61037 0.0
H5239 H 0.15321 0.7139 0.61628 0.0
C5240 C 0.14789 0.71093 0.58287 0.0
C5241 C 0.15249 0.71915 0.58361 0.0
C5242 C 0.14892 0.70437 0.58937 0.0
C5243 C 0.1545 0.70591 0.59677 0.0
C5244 C 0.15913 0.71407 0.59754 0.0
H5245 H 0.16583 0.67198 0.64269 0.0
H5246 H 0.16548 0.68436 0.63205 0.0
C5247 C 0.15813 0.72064 0.59103 0.0
C5248 C 0.15557 0.69885 0.60357 0.0
H5249 H 0.15091 0.69374 0.62522 0.0
C5250 C 0.15951 0.6907 0.601 0.0
C5251 C 0.15251 0.70002 0.61242 0.0
C5252 C 0.14804 0.70859 0.61544 0.0
C5253 C 0.16045 0.68365 0.60705 0.0
C5254 C 0.15717 0.68472 0.61584 0.0
C5255 C 0.15339 0.69294 0.61846 0.0
C5256 C 0.15733 0.67728 0.62232 0.0
C5257 C 0.16502 0.67514 0.60399 0.0
C5258 C 0.15272 0.66927 0.62044 0.0
C5259 C 0.15289 0.66222 0.62649 0.0
C5260 C 0.15762 0.66305 0.63458 0.0
C5261 C 0.16208 0.67115 0.63653 0.0
C5262 C 0.16193 0.67821 0.63045 0.0
H5263 H 0.16941 0.67633 0.59813 0.0
H5264 H 0.16915 0.67223 0.60942 0.0
H5265 H 0.15985 0.67015 0.60199 0.0
H5266 H 0.14893 0.6685 0.61431 0.0
H5267 H 0.14923 0.65614 0.62487 0.0
H5268 H 0.36966 0.28776 0.09083 0.0
H5269 H 0.36791 0.29927 0.10244 0.0
H5270 H 0.348 0.3126 0.08641 0.0
H5271 H 0.34959 0.30104 0.07482 0.0
H5272 H 0.3707 0.31816 0.09994 0.0
H5273 H 0.33609 0.31035 0.11132 0.0
H5274 H 0.34285 0.30243 0.10512 0.0
H5275 H 0.33741 0.31149 0.09947 0.0
C5276 C 0.3648 0.29307 0.08984 0.0
C5277 C 0.35974 0.29349 0.08192 0.0
C5278 C 0.36385 0.29965 0.09645 0.0
C5279 C 0.35776 0.30671 0.09531 0.0
C5280 C 0.35264 0.30712 0.08746 0.0
H5281 H 0.34346 0.35449 0.12509 0.0
H5282 H 0.34456 0.34204 0.11443 0.0
C5283 C 0.35362 0.30057 0.08082 0.0
C5284 C 0.35708 0.31389 0.10214 0.0
H5285 H 0.34263 0.3238 0.11685 0.0
C5286 C 0.36459 0.31937 0.10369 0.0
C5287 C 0.34908 0.31546 0.10696 0.0
C5288 C 0.3409 0.30959 0.10571 0.0
C5289 C 0.36426 0.32653 0.10982 0.0
C5290 C 0.35626 0.32809 0.11467 0.0
C5291 C 0.34876 0.32258 0.11314 0.0
C5292 C 0.35552 0.3355 0.12127 0.0
C5293 C 0.3724 0.33249 0.11085 0.0
C5294 C 0.36122 0.33587 0.12873 0.0
C5295 C 0.36068 0.34303 0.13477 0.0
C5296 C 0.35437 0.34992 0.13353 0.0
C5297 C 0.34851 0.34939 0.12616 0.0
C5298 C 0.34908 0.34225 0.1201 0.0
H5299 H 0.37698 0.33189 0.10504 0.0
H5300 H 0.37041 0.33963 0.11163 0.0
H5301 H 0.37619 0.33051 0.11689 0.0
H5302 H 0.36612 0.33064 0.12985 0.0
H5303 H 0.36534 0.34325 0.14033 0.0
H5304 H 0.53533 0.39311 0.17283 0.0
H5305 H 0.54713 0.39541 0.16175 0.0
H5306 H 0.55846 0.41657 0.17803 0.0
H5307 H 0.54672 0.41426 0.18918 0.0
H5308 H 0.55185 0.41034 0.15198 0.0
H5309 H 0.57982 0.40001 0.17422 0.0
H5310 H 0.56819 0.39808 0.17695 0.0
H5311 H 0.57307 0.409 0.17856 0.0
C5312 C 0.54029 0.3983 0.17402 0.0
C5313 C 0.54014 0.40346 0.18191 0.0
C5314 C 0.54704 0.39959 0.16769 0.0
C5315 C 0.55375 0.40605 0.16914 0.0
C5316 C 0.55347 0.4114 0.17688 0.0
H5317 H 0.60142 0.4195 0.13817 0.0
H5318 H 0.58887 0.41999 0.14872 0.0
C5319 C 0.54676 0.41008 0.18324 0.0
C5320 C 0.56108 0.40712 0.16256 0.0
H5321 H 0.58381 0.40547 0.16002 0.0
C5322 C 0.55884 0.40928 0.15374 0.0
C5323 C 0.57019 0.40574 0.16487 0.0
C5324 C 0.57298 0.403 0.17414 0.0
C5325 C 0.56548 0.41012 0.14716 0.0
C5326 C 0.57456 0.40865 0.14946 0.0
C5327 C 0.57682 0.40663 0.1583 0.0
C5328 C 0.58181 0.40877 0.14272 0.0
C5329 C 0.56273 0.4126 0.13781 0.0
C5330 C 0.58197 0.4023 0.13588 0.0
C5331 C 0.58912 0.402 0.12987 0.0
C5332 C 0.59624 0.40817 0.1306 0.0
C5333 C 0.59598 0.41473 0.13738 0.0
C5334 C 0.58885 0.41499 0.14343 0.0
H5335 H 0.55595 0.41571 0.13765 0.0
H5336 H 0.56763 0.41732 0.13484 0.0
H5337 H 0.56254 0.40646 0.13359 0.0
H5338 H 0.57667 0.39735 0.13531 0.0
H5339 H 0.58909 0.39691 0.12468 0.0
H5340 H 0.95259 0.60038 0.69348 0.0
H5341 H 0.94375 0.59747 0.67998 0.0
H5342 H 0.95618 0.62013 0.66728 0.0
H5343 H 0.96507 0.62305 0.68072 0.0
H5344 H 0.93154 0.60876 0.67269 0.0
H5345 H 0.95805 0.60113 0.64791 0.0
H5346 H 0.96017 0.60122 0.65977 0.0
H5347 H 0.95987 0.61156 0.65369 0.0
C5348 C 0.95348 0.6047 0.68778 0.0
C5349 C 0.95953 0.61195 0.68816 0.0
C5350 C 0.94846 0.603 0.68007 0.0
C5351 C 0.9494 0.6085 0.67257 0.0
C5352 C 0.95552 0.61566 0.67289 0.0
H5353 H 0.91974 0.61825 0.62437 0.0
H5354 H 0.93048 0.61803 0.63676 0.0
C5355 C 0.96058 0.61733 0.68059 0.0
C5356 C 0.94346 0.6072 0.66472 0.0
H5357 H 0.94343 0.60437 0.64208 0.0
C5358 C 0.93414 0.60769 0.66602 0.0
C5359 C 0.94687 0.60583 0.65601 0.0
C5360 C 0.95679 0.60481 0.65426 0.0
C5361 C 0.92814 0.60712 0.65881 0.0
C5362 C 0.93155 0.60591 0.65009 0.0
C5363 C 0.94086 0.6053 0.64879 0.0
C5364 C 0.92553 0.60561 0.64224 0.0
C5365 C 0.9182 0.60809 0.66054 0.0
C5366 C 0.91934 0.59859 0.64112 0.0
C5367 C 0.91317 0.59872 0.63409 0.0
C5368 C 0.9131 0.60587 0.62804 0.0
C5369 C 0.91954 0.61272 0.629 0.0
C5370 C 0.92571 0.61257 0.63603 0.0
H5371 H 0.91682 0.61076 0.66734 0.0
H5372 H 0.91508 0.61262 0.65559 0.0
H5373 H 0.91493 0.60143 0.6599 0.0
H5374 H 0.91917 0.5931 0.64581 0.0
H5375 H 0.90827 0.59337 0.63356 0.0
H5376 H 0.61436 0.32436 0.55319 0.0
H5377 H 0.61279 0.33575 0.56487 0.0
H5378 H 0.59334 0.34973 0.54882 0.0
H5379 H 0.59462 0.33816 0.53721 0.0
H5380 H 0.61634 0.35391 0.56329 0.0
H5381 H 0.58081 0.34815 0.57303 0.0
H5382 H 0.58712 0.34014 0.56649 0.0
H5383 H 0.5826 0.34999 0.56135 0.0
C5384 C 0.60961 0.32976 0.5522 0.0
C5385 C 0.60457 0.33031 0.54428 0.0
C5386 C 0.60878 0.3363 0.55886 0.0
C5387 C 0.60287 0.34352 0.55776 0.0
C5388 C 0.59782 0.34412 0.54988 0.0
H5389 H 0.59329 0.39027 0.59204 0.0
H5390 H 0.59301 0.37941 0.57968 0.0
C5391 C 0.59864 0.33756 0.5432 0.0
C5392 C 0.60234 0.35059 0.56473 0.0
H5393 H 0.58824 0.3605 0.5798 0.0
C5394 C 0.6102 0.35535 0.5669 0.0
C5395 C 0.5943 0.35249 0.56939 0.0
C5396 C 0.58574 0.34739 0.56752 0.0
C5397 C 0.61025 0.36193 0.57363 0.0
C5398 C 0.60226 0.36371 0.5784 0.0
C5399 C 0.59435 0.3591 0.57612 0.0
C5400 C 0.60211 0.37011 0.58599 0.0
C5401 C 0.61884 0.36697 0.57556 0.0
C5402 C 0.60715 0.36836 0.59369 0.0
C5403 C 0.60728 0.3745 0.60076 0.0
C5404 C 0.60235 0.38252 0.60029 0.0
C5405 C 0.59711 0.38414 0.59264 0.0
C5406 C 0.59697 0.37797 0.58556 0.0
H5407 H 0.62365 0.36646 0.56993 0.0
H5408 H 0.61747 0.37416 0.57695 0.0
H5409 H 0.6221 0.36409 0.58155 0.0
H5410 H 0.61101 0.36223 0.59421 0.0
H5411 H 0.61122 0.37294 0.60662 0.0
H5412 H 0.4208 0.64415 0.77944 0.0
H5413 H 0.40891 0.64633 0.79049 0.0
H5414 H 0.4282 0.65755 0.80896 0.0
H5415 H 0.44007 0.65567 0.79786 0.0
H5416 H 0.40805 0.63884 0.80729 0.0
H5417 H 0.40788 0.67595 0.80962 0.0
H5418 H 0.41323 0.66995 0.80058 0.0
H5419 H 0.41879 0.6711 0.81119 0.0
C5420 C 0.42249 0.64723 0.78579 0.0
C5421 C 0.43139 0.64976 0.78776 0.0
C5422 C 0.4157 0.64842 0.79211 0.0
C5423 C 0.41765 0.65221 0.80049 0.0
C5424 C 0.42651 0.65477 0.80247 0.0
H5425 H 0.38937 0.64791 0.85017 0.0
H5426 H 0.39974 0.64696 0.83758 0.0
C5427 C 0.43331 0.65358 0.79616 0.0
C5428 C 0.41053 0.65306 0.80733 0.0
H5429 H 0.39995 0.66811 0.82098 0.0
C5430 C 0.40623 0.64524 0.81023 0.0
C5431 C 0.40809 0.66144 0.81108 0.0
C5432 C 0.41217 0.6701 0.8079 0.0
C5433 C 0.39974 0.64555 0.817 0.0
C5434 C 0.3976 0.65388 0.82103 0.0
C5435 C 0.40168 0.66173 0.81793 0.0
C5436 C 0.3913 0.65452 0.82862 0.0
C5437 C 0.39523 0.63696 0.8198 0.0
C5438 C 0.3832 0.65924 0.82779 0.0
C5439 C 0.37727 0.65983 0.83499 0.0
C5440 C 0.3794 0.6558 0.84317 0.0
C5441 C 0.38757 0.65116 0.84399 0.0
C5442 C 0.39346 0.65053 0.83678 0.0
H5443 H 0.39592 0.63162 0.81464 0.0
H5444 H 0.39839 0.63455 0.82603 0.0
H5445 H 0.38798 0.63807 0.82112 0.0
H5446 H 0.38145 0.66241 0.82155 0.0
H5447 H 0.37107 0.66353 0.8342 0.0
H5448 H 0.07536 0.34713 0.2931 0.0
H5449 H 0.08902 0.34353 0.30151 0.0
H5450 H 0.0844 0.36628 0.31882 0.0
H5451 H 0.07082 0.36994 0.31047 0.0
H5452 H 0.10465 0.35387 0.30522 0.0
H5453 H 0.08624 0.34504 0.33603 0.0
H5454 H 0.08074 0.34611 0.32536 0.0
H5455 H 0.08347 0.35593 0.33186 0.0
C5456 C 0.0773 0.35141 0.29865 0.0
C5457 C 0.07195 0.35876 0.30119 0.0
C5458 C 0.08508 0.34933 0.30346 0.0
C5459 C 0.08761 0.35455 0.31087 0.0
C5460 C 0.08245 0.36205 0.31324 0.0
H5461 H 0.13685 0.35976 0.34044 0.0
H5462 H 0.12477 0.3608 0.32942 0.0
C5463 C 0.07468 0.36412 0.30847 0.0
C5464 C 0.09559 0.35214 0.31625 0.0
H5465 H 0.10206 0.34699 0.33743 0.0
C5466 C 0.1041 0.35229 0.31225 0.0
C5467 C 0.09483 0.34992 0.32537 0.0
C5468 C 0.08582 0.34915 0.3299 0.0
C5469 C 0.11192 0.35059 0.31722 0.0
C5470 C 0.11118 0.34885 0.32645 0.0
C5471 C 0.10263 0.3484 0.33036 0.0
C5472 C 0.11913 0.34777 0.33232 0.0
C5473 C 0.12087 0.35066 0.31255 0.0
C5474 C 0.11996 0.34011 0.33763 0.0
C5475 C 0.12681 0.33955 0.34399 0.0
C5476 C 0.13295 0.34663 0.34515 0.0
C5477 C 0.1323 0.35415 0.3396 0.0
C5478 C 0.12541 0.35474 0.33328 0.0
H5479 H 0.12011 0.3493 0.30529 0.0
H5480 H 0.12399 0.35739 0.31335 0.0
H5481 H 0.12551 0.34562 0.31541 0.0
H5482 H 0.11518 0.33467 0.33701 0.0
H5483 H 0.1272 0.33364 0.34811 0.0
H5484 H 0.35303 0.71448 0.43216 0.0
H5485 H 0.35024 0.70556 0.4186 0.0
H5486 H 0.36503 0.68354 0.42983 0.0
H5487 H 0.36801 0.69239 0.44326 0.0
H5488 H 0.36331 0.69707 0.40684 0.0
H5489 H 0.34033 0.67264 0.42264 0.0
H5490 H 0.34291 0.68342 0.42761 0.0
H5491 H 0.3507 0.67428 0.42858 0.0
C5492 C 0.35574 0.70776 0.43172 0.0
C5493 C 0.36067 0.70412 0.43884 0.0
C5494 C 0.3541 0.70267 0.42399 0.0
C5495 C 0.35731 0.69386 0.4233 0.0
C5496 C 0.36234 0.69027 0.43032 0.0
H5497 H 0.36095 0.64922 0.38816 0.0
H5498 H 0.36143 0.66049 0.40005 0.0
C5499 C 0.364 0.69533 0.43801 0.0
C5500 C 0.35555 0.68836 0.41522 0.0
H5501 H 0.34635 0.66848 0.40846 0.0
C5502 C 0.35949 0.69088 0.40713 0.0
C5503 C 0.35053 0.68033 0.41565 0.0
C5504 C 0.3458 0.67753 0.42406 0.0
C5505 C 0.35895 0.6853 0.39954 0.0
C5506 C 0.35424 0.67709 0.40009 0.0
C5507 C 0.35 0.67476 0.40809 0.0
C5508 C 0.3541 0.6705 0.39265 0.0
C5509 C 0.36375 0.68803 0.39114 0.0
C5510 C 0.34981 0.6724 0.38454 0.0
C5511 C 0.34949 0.66594 0.37772 0.0
C5512 C 0.35339 0.65745 0.37894 0.0
C5513 C 0.35775 0.65563 0.38706 0.0
C5514 C 0.35807 0.66208 0.39384 0.0
H5515 H 0.3684 0.69375 0.39231 0.0
H5516 H 0.36763 0.68231 0.38835 0.0
H5517 H 0.35873 0.69006 0.38607 0.0
H5518 H 0.34658 0.67882 0.38355 0.0
H5519 H 0.346 0.6675 0.37158 0.0
H5520 H 0.13223 0.29199 0.01909 0.0
H5521 H 0.12713 0.29963 0.03269 0.0
H5522 H 0.10617 0.31263 0.01773 0.0
H5523 H 0.11106 0.30486 1.00418 0.0
H5524 H 0.1266 0.31811 0.03516 0.0
H5525 H 0.09269 0.30347 0.03952 0.0
H5526 H 0.10108 0.29842 0.03239 0.0
H5527 H 0.09457 0.30779 0.02854 0.0
C5528 C 0.12642 0.29634 0.01874 0.0
C5529 C 0.12205 0.29783 0.01056 0.0
C5530 C 0.12354 0.30072 0.0265 0.0
C5531 C 0.1162 0.30661 0.02624 0.0
C5532 C 0.11174 0.30799 0.01812 0.0
H5533 H 0.09173 0.34678 0.05945 0.0
H5534 H 0.09591 0.3359 0.04789 0.0
C5535 C 0.11461 0.30363 0.01036 0.0
C5536 C 0.11361 0.31183 0.03427 0.0
H5537 H 0.09588 0.31688 0.04782 0.0
C5538 C 0.11993 0.31776 0.03801 0.0
C5539 C 0.10488 0.31138 0.03795 0.0
C5540 C 0.09793 0.30486 0.03445 0.0
C5541 C 0.11766 0.3235 0.04512 0.0
C5542 C 0.10888 0.32317 0.04868 0.0
C5543 C 0.1026 0.31711 0.04506 0.0
C5544 C 0.10599 0.32933 0.05592 0.0
C5545 C 0.12458 0.3301 0.04852 0.0
C5546 C 0.11013 0.3291 0.06433 0.0
C5547 C 0.10781 0.33535 0.07093 0.0
C5548 C 0.10126 0.34192 0.06925 0.0
C5549 C 0.0969 0.3419 0.06091 0.0
C5550 C 0.09923 0.33566 0.05432 0.0
H5551 H 0.13025 0.33088 0.04379 0.0
H5552 H 0.12151 0.33678 0.04972 0.0
H5553 H 0.12734 0.32769 0.05494 0.0
H5554 H 0.11527 0.32417 0.06574 0.0
H5555 H 0.11135 0.3352 0.07724 0.0
H5556 H 0.95441 0.85728 0.29729 0.0
H5557 H 0.95281 0.8578 0.31346 0.0
H5558 H 0.97489 0.87646 0.31533 0.0
H5559 H 0.97629 0.87629 0.29905 0.0
H5560 H 0.96441 0.85389 0.32728 0.0
H5561 H 0.95478 0.88995 0.32791 0.0
H5562 H 0.95534 0.88352 0.31769 0.0
H5563 H 0.96547 0.88742 0.32298 0.0
C5564 C 0.9589 0.86155 0.30112 0.0
C5565 C 0.96538 0.86686 0.29685 0.0
C5566 C 0.95803 0.86177 0.31038 0.0
C5567 C 0.96363 0.86729 0.31559 0.0
C5568 C 0.97039 0.87229 0.31142 0.0
H5569 H 0.95388 0.87899 0.37242 0.0
H5570 H 0.9621 0.87743 0.3583 0.0
C5571 C 0.97124 0.87211 0.30212 0.0
C5572 C 0.96205 0.86798 0.32533 0.0
H5573 H 0.95449 0.88233 0.34152 0.0
C5574 C 0.96235 0.86013 0.33042 0.0
C5575 C 0.95938 0.87614 0.32942 0.0
C5576 C 0.95864 0.88474 0.32424 0.0
C5577 C 0.95976 0.86016 0.33941 0.0
C5578 C 0.95672 0.86822 0.34338 0.0
C5579 C 0.95685 0.87616 0.33844 0.0
C5580 C 0.95241 0.8684 0.35226 0.0
C5581 C 0.96011 0.85152 0.34455 0.0
C5582 C 0.94429 0.86382 0.35352 0.0
C5583 C 0.93959 0.86474 0.36151 0.0
C5584 C 0.94292 0.87026 0.3684 0.0
C5585 C 0.95121 0.87463 0.36725 0.0
C5586 C 0.95588 0.87377 0.35919 0.0
H5587 H 0.96498 0.84673 0.34156 0.0
H5588 H 0.96198 0.85276 0.35163 0.0
H5589 H 0.95338 0.84832 0.34439 0.0
H5590 H 0.94142 0.85977 0.3482 0.0
H5591 H 0.93325 0.86125 0.36225 0.0
H5592 H 0.3972 0.71231 0.5112 0.0
H5593 H 0.40163 0.70159 0.52265 0.0
H5594 H 0.38575 0.71596 0.54206 0.0
H5595 H 0.38108 0.72657 0.53059 0.0
H5596 H 0.41044 0.7046 0.53921 0.0
H5597 H 0.3764 0.69001 0.54357 0.0
H5598 H 0.37932 0.69685 0.53414 0.0
H5599 H 0.37698 0.70199 0.54476 0.0
C5600 C 0.39459 0.71315 0.51789 0.0
C5601 C 0.38872 0.72025 0.51997 0.0
C5602 C 0.39718 0.70706 0.52443 0.0
C5603 C 0.39391 0.70791 0.53316 0.0
C5604 C 0.38824 0.71511 0.53532 0.0
H5605 H 0.39942 0.67584 0.5808 0.0
H5606 H 0.39604 0.68749 0.56994 0.0
C5607 C 0.38565 0.72122 0.52879 0.0
C5608 C 0.39641 0.70123 0.53997 0.0
H5609 H 0.3877 0.68515 0.55352 0.0
C5610 C 0.40549 0.70033 0.54234 0.0
C5611 C 0.38991 0.69567 0.54401 0.0
C5612 C 0.38011 0.69609 0.54146 0.0
C5613 C 0.40823 0.69411 0.54876 0.0
C5614 C 0.40173 0.68854 0.55279 0.0
C5615 C 0.39266 0.68945 0.55043 0.0
C5616 C 0.40418 0.68168 0.55946 0.0
C5617 C 0.41803 0.69367 0.5513 0.0
C5618 C 0.40986 0.67453 0.55715 0.0
C5619 C 0.41187 0.66789 0.56337 0.0
C5620 C 0.40818 0.66825 0.572 0.0
C5621 C 0.4025 0.67544 0.57427 0.0
C5622 C 0.4005 0.68207 0.56805 0.0
H5623 H 0.42168 0.69986 0.54941 0.0
H5624 H 0.41885 0.69263 0.55858 0.0
H5625 H 0.42121 0.68794 0.54775 0.0
H5626 H 0.41264 0.67401 0.5505 0.0
H5627 H 0.41631 0.66248 0.56142 0.0
H5628 H 0.5387 0.13433 0.79968 0.0
H5629 H 0.54054 0.13404 0.81591 0.0
H5630 H 0.55904 0.15625 0.81447 0.0
H5631 H 0.55693 0.15684 0.79837 0.0
H5632 H 0.55584 0.13059 0.82461 0.0
H5633 H 0.54383 0.16402 0.83518 0.0
H5634 H 0.54149 0.15942 0.82424 0.0
H5635 H 0.55204 0.16492 0.82652 0.0
C5636 C 0.54297 0.1393 0.80285 0.0
C5637 C 0.54769 0.14559 0.79772 0.0
C5638 C 0.54406 0.13909 0.81212 0.0
C5639 C 0.54983 0.1452 0.81643 0.0
C5640 C 0.55439 0.1516 0.81134 0.0
H5641 H 0.58202 0.14962 0.8625 0.0
H5642 H 0.57388 0.15082 0.84836 0.0
C5643 C 0.55328 0.15184 0.8021 0.0
C5644 C 0.55181 0.14439 0.82609 0.0
H5645 H 0.55415 0.15667 0.8453 0.0
C5646 C 0.55528 0.13623 0.82919 0.0
C5647 C 0.55105 0.15175 0.83207 0.0
C5648 C 0.54681 0.16048 0.82935 0.0
C5649 C 0.55851 0.13541 0.83794 0.0
C5650 C 0.55823 0.14292 0.84373 0.0
C5651 C 0.5544 0.15095 0.84079 0.0
C5652 C 0.56262 0.14274 0.85257 0.0
C5653 C 0.56262 0.12666 0.84082 0.0
C5654 C 0.55887 0.13793 0.85965 0.0
C5655 C 0.5635 0.13725 0.86775 0.0
C5656 C 0.57197 0.14131 0.86884 0.0
C5657 C 0.57555 0.14633 0.8618 0.0
C5658 C 0.5709 0.14707 0.85376 0.0
H5659 H 0.563 0.12169 0.83527 0.0
H5660 H 0.5695 0.12783 0.84348 0.0
H5661 H 0.55855 0.12375 0.84627 0.0
H5662 H 0.55247 0.13457 0.85883 0.0
H5663 H 0.5606 0.13329 0.87304 0.0
H5664 H 0.11312 0.7181 0.5011 0.0
H5665 H 0.10718 0.70955 0.48836 0.0
H5666 H 0.13324 0.69771 0.48413 0.0
H5667 H 0.13925 0.70626 0.4968 0.0
H5668 H 0.11258 0.70845 0.47004 0.0
H5669 H 0.11628 0.67607 0.48765 0.0
H5670 H 0.11688 0.68676 0.49335 0.0
H5671 H 0.12639 0.68263 0.4872 0.0
C5672 C 0.11762 0.71378 0.49737 0.0
C5673 C 0.12664 0.71278 0.50002 0.0
C5674 C 0.11421 0.70888 0.49012 0.0
C5675 C 0.11973 0.70289 0.48543 0.0
C5676 C 0.12882 0.70216 0.4878 0.0
H5677 H 0.11229 0.6748 0.43541 0.0
H5678 H 0.11621 0.68552 0.4472 0.0
C5679 C 0.13223 0.70704 0.49504 0.0
C5680 C 0.11597 0.69715 0.47822 0.0
H5681 H 0.11256 0.67528 0.47226 0.0
C5682 C 0.11253 0.7012 0.47053 0.0
C5683 C 0.11577 0.68771 0.47895 0.0
C5684 C 0.11895 0.68302 0.48726 0.0
C5685 C 0.10913 0.69601 0.46341 0.0
C5686 C 0.10929 0.68655 0.46399 0.0
C5687 C 0.1125 0.68254 0.4718 0.0
C5688 C 0.10633 0.68064 0.45655 0.0
C5689 C 0.10535 0.7007 0.45536 0.0
C5690 C 0.09952 0.67429 0.45791 0.0
C5691 C 0.09728 0.66813 0.45118 0.0
C5692 C 0.10185 0.66818 0.44298 0.0
C5693 C 0.10854 0.67468 0.44158 0.0
C5694 C 0.11078 0.68083 0.44832 0.0
H5695 H 0.1034 0.70772 0.45695 0.0
H5696 H 0.11054 0.70089 0.45006 0.0
H5697 H 0.09939 0.69709 0.45267 0.0
H5698 H 0.09602 0.67402 0.46422 0.0
H5699 H 0.09203 0.66327 0.45244 0.0
H5700 H 0.55908 0.85643 0.71348 0.0
H5701 H 0.5611 0.85701 0.69736 0.0
H5702 H 0.53871 0.87518 0.69526 0.0
H5703 H 0.53689 0.87496 0.71149 0.0
H5704 H 0.54987 0.85276 0.68331 0.0
H5705 H 0.55876 0.88901 0.68315 0.0
H5706 H 0.55813 0.88265 0.69331 0.0
H5707 H 0.54803 0.88634 0.6879 0.0
C5708 C 0.55463 0.86062 0.70961 0.0
C5709 C 0.54792 0.86577 0.7138 0.0
C5710 C 0.55573 0.86087 0.70038 0.0
C5711 C 0.55015 0.86625 0.69512 0.0
C5712 C 0.5432 0.87112 0.69921 0.0
H5713 H 0.55864 0.87762 0.63827 0.0
H5714 H 0.55102 0.87604 0.65269 0.0
C5715 C 0.54211 0.87091 0.70848 0.0
C5716 C 0.55189 0.86692 0.68542 0.0
H5717 H 0.55905 0.88138 0.66939 0.0
C5718 C 0.55179 0.85903 0.68024 0.0
C5719 C 0.55437 0.87512 0.68143 0.0
C5720 C 0.55491 0.88376 0.68672 0.0
C5721 C 0.55436 0.85908 0.67124 0.0
C5722 C 0.55716 0.86721 0.66736 0.0
C5723 C 0.55688 0.87517 0.67241 0.0
C5724 C 0.56123 0.86749 0.65837 0.0
C5725 C 0.55421 0.85042 0.66599 0.0
C5726 C 0.56946 0.86321 0.65683 0.0
C5727 C 0.57383 0.86414 0.64866 0.0
C5728 C 0.57004 0.86937 0.64188 0.0
C5729 C 0.56167 0.87348 0.64336 0.0
C5730 C 0.55733 0.87261 0.65158 0.0
H5731 H 0.54961 0.84543 0.66903 0.0
H5732 H 0.5521 0.85156 0.65898 0.0
H5733 H 0.56106 0.84751 0.6659 0.0
H5734 H 0.57265 0.85935 0.66204 0.0
H5735 H 0.58024 0.86085 0.64769 0.0
H5736 H 0.37757 0.29374 0.98973 0.0
H5737 H 0.38253 0.30142 0.97622 0.0
H5738 H 0.40273 0.31553 0.99151 0.0
H5739 H 0.39798 0.30773 1.00496 0.0
H5740 H 0.38234 0.31989 0.97383 0.0
H5741 H 0.41686 0.30663 0.96988 0.0
H5742 H 0.40859 0.30133 0.97687 0.0
H5743 H 0.41466 0.311 0.98085 0.0
C5744 C 0.38319 0.29834 0.99017 0.0
C5745 C 0.38737 0.30014 0.99842 0.0
C5746 C 0.38598 0.30275 0.98247 0.0
C5747 C 0.39307 0.30896 0.98285 0.0
C5748 C 0.39736 0.31064 0.99103 0.0
H5749 H 0.41652 0.3496 0.95009 0.0
H5750 H 0.4125 0.3388 0.9616 0.0
C5751 C 0.39456 0.30626 0.99873 0.0
C5752 C 0.39557 0.31418 0.97487 0.0
H5753 H 0.41328 0.31979 0.9616 0.0
C5754 C 0.38907 0.31979 0.97107 0.0
C5755 C 0.40436 0.31404 0.97132 0.0
C5756 C 0.4115 0.30786 0.97488 0.0
C5757 C 0.39121 0.32553 0.96402 0.0
C5758 C 0.40006 0.32553 0.96058 0.0
C5759 C 0.40651 0.31978 0.96426 0.0
C5760 C 0.4028 0.3317 0.9534 0.0
C5761 C 0.38409 0.33179 0.96054 0.0
C5762 C 0.39882 0.33117 0.94493 0.0
C5763 C 0.40105 0.33737 0.93836 0.0
C5764 C 0.40735 0.3442 0.94014 0.0
C5765 C 0.41154 0.34452 0.94855 0.0
C5766 C 0.4093 0.33832 0.95511 0.0
H5767 H 0.37832 0.33239 0.96519 0.0
H5768 H 0.38691 0.33858 0.95941 0.0
H5769 H 0.38152 0.32918 0.95407 0.0
H5770 H 0.39388 0.32602 0.94344 0.0
H5771 H 0.39764 0.33697 0.93198 0.0
H5772 H 0.97592 0.12529 0.20991 0.0
H5773 H 0.96963 0.1255 0.19481 0.0
H5774 H 0.96992 0.15438 0.19524 0.0
H5775 H 0.97627 0.15426 0.21036 0.0
H5776 H 0.95223 0.13604 0.19106 0.0
H5777 H 0.98186 0.14534 0.17046 0.0
H5778 H 0.98304 0.13962 0.18098 0.0
H5779 H 0.97998 0.15123 0.18084 0.0
C5780 C 0.97482 0.13169 0.20673 0.0
C5781 C 0.97659 0.13976 0.21131 0.0
C5782 C 0.97119 0.13179 0.19813 0.0
C5783 C 0.96938 0.13995 0.19393 0.0
C5784 C 0.97136 0.14802 0.19837 0.0
H5785 H 0.94481 0.15155 0.14236 0.0
H5786 H 0.95327 0.15251 0.15641 0.0
C5787 C 0.97492 0.14794 0.20701 0.0
C5788 C 0.96478 0.13998 0.18519 0.0
H5789 H 0.96804 0.14342 0.16296 0.0
C5790 C 0.95567 0.13765 0.1849 0.0
C5791 C 0.96929 0.14221 0.17724 0.0
C5792 C 0.9791 0.14472 0.1773 0.0
C5793 C 0.95091 0.13745 0.17683 0.0
C5794 C 0.95547 0.13939 0.16879 0.0
C5795 C 0.96457 0.14188 0.16911 0.0
C5796 C 0.95091 0.13869 0.16001 0.0
C5797 C 0.941 0.13531 0.17701 0.0
C5798 C 0.94703 0.13054 0.15727 0.0
C5799 C 0.94216 0.13001 0.14931 0.0
C5800 C 0.9412 0.13757 0.14388 0.0
C5801 C 0.94545 0.14562 0.14642 0.0
C5802 C 0.95027 0.14617 0.15444 0.0
H5803 H 0.93805 0.13668 0.18369 0.0
H5804 H 0.93726 0.13927 0.17198 0.0
H5805 H 0.94001 0.12809 0.17547 0.0
H5806 H 0.94766 0.12462 0.16134 0.0
H5807 H 0.93911 0.12367 0.14743 0.0
H5808 H 0.02424 0.13077 0.28862 0.0
H5809 H 0.03762 0.1253 0.29639 0.0
H5810 H 0.02155 0.10541 0.30965 0.0
H5811 H 0.00822 0.11065 0.30174 0.0
H5812 H 0.03993 0.1252 0.31475 0.0
H5813 H 0.04297 0.09077 0.30094 0.0
H5814 H 0.03618 0.09928 0.29573 0.0
H5815 H 0.03197 0.09324 0.30517 0.0
C5816 C 0.02359 0.12511 0.29305 0.0
C5817 C 0.01516 0.12115 0.29457 0.0
C5818 C 0.03123 0.12203 0.29751 0.0
C5819 C 0.0306 0.11488 0.30351 0.0
C5820 C 0.02223 0.11082 0.30493 0.0
H5821 H 0.06269 0.09033 0.34417 0.0
H5822 H 0.05127 0.09468 0.33327 0.0
C5823 C 0.01459 0.1139 0.30048 0.0
C5824 C 0.03852 0.11209 0.30879 0.0
H5825 H 0.05133 0.09396 0.31425 0.0
C5826 C 0.04251 0.1184 0.31456 0.0
C5827 C 0.04184 0.10321 0.30855 0.0
C5828 C 0.03808 0.09625 0.3022 0.0
C5829 C 0.04952 0.11599 0.32033 0.0
C5830 C 0.05272 0.10707 0.32021 0.0
C5831 C 0.04885 0.10079 0.31432 0.0
C5832 C 0.05985 0.10407 0.3264 0.0
C5833 C 0.05322 0.12294 0.32674 0.0
C5834 C 0.06851 0.10776 0.32601 0.0
C5835 C 0.07502 0.10533 0.33226 0.0
C5836 C 0.07301 0.09913 0.339 0.0
C5837 C 0.06441 0.09522 0.33916 0.0
C5838 C 0.0579 0.09765 0.3329 0.0
H5839 H 0.04873 0.12885 0.32735 0.0
H5840 H 0.05421 0.12004 0.33346 0.0
H5841 H 0.05983 0.1253 0.3243 0.0
H5842 H 0.07018 0.11262 0.32096 0.0
H5843 H 0.08155 0.10852 0.33199 0.0
H5844 H 0.14202 0.79331 0.55681 0.0
H5845 H 0.14255 0.80874 0.56233 0.0
H5846 H 0.14033 0.81845 0.53543 0.0
H5847 H 0.14005 0.80299 0.52977 0.0
H5848 H 0.15559 0.82301 0.55646 0.0
H5849 H 0.11947 0.83078 0.55052 0.0
H5850 H 0.12349 0.81941 0.55151 0.0
H5851 H 0.12577 0.82564 0.5416 0.0
C5852 C 0.14176 0.7987 0.55203 0.0
C5853 C 0.14103 0.79689 0.54283 0.0
C5854 C 0.14201 0.80752 0.55521 0.0
C5855 C 0.14144 0.8147 0.54928 0.0
C5856 C 0.1407 0.81297 0.54011 0.0
H5857 H 0.13606 0.87146 0.5639 0.0
H5858 H 0.13747 0.8576 0.55513 0.0
C5859 C 0.1405 0.80413 0.5369 0.0
C5860 C 0.14165 0.82399 0.5528 0.0
H5861 H 0.12827 0.842 0.55734 0.0
C5862 C 0.14965 0.82721 0.5566 0.0
C5863 C 0.1339 0.82943 0.55288 0.0
C5864 C 0.12513 0.82618 0.54896 0.0
C5865 C 0.15007 0.83572 0.56064 0.0
C5866 C 0.14221 0.84103 0.56109 0.0
C5867 C 0.13428 0.83791 0.55701 0.0
C5868 C 0.14191 0.84956 0.56623 0.0
C5869 C 0.15893 0.83893 0.56438 0.0
C5870 C 0.14391 0.84963 0.57538 0.0
C5871 C 0.1432 0.85753 0.58038 0.0
C5872 C 0.14035 0.86552 0.57636 0.0
C5873 C 0.13839 0.86545 0.56717 0.0
C5874 C 0.13913 0.85753 0.56216 0.0
H5875 H 0.16467 0.83562 0.56096 0.0
H5876 H 0.15967 0.84631 0.56373 0.0
H5877 H 0.15932 0.83723 0.57155 0.0
H5878 H 0.14587 0.84352 0.57871 0.0
H5879 H 0.14485 0.85736 0.58741 0.0
H5880 H 0.49276 0.8768 0.79527 0.0
H5881 H 0.48159 0.88218 0.80595 0.0
H5882 H 0.47328 0.90253 0.78746 0.0
H5883 H 0.48458 0.89731 0.77676 0.0
H5884 H 0.48078 0.90047 0.81295 0.0
H5885 H 0.44951 0.88982 0.79538 0.0
H5886 H 0.46033 0.88494 0.7929 0.0
H5887 H 0.45764 0.89594 0.78898 0.0
C5888 C 0.48858 0.88244 0.79347 0.0
C5889 C 0.4896 0.88665 0.78517 0.0
C5890 C 0.48217 0.88547 0.79956 0.0
C5891 C 0.47659 0.8927 0.79746 0.0
C5892 C 0.47745 0.89685 0.78914 0.0
H5893 H 0.43407 0.91785 0.82918 0.0
H5894 H 0.44466 0.91408 0.81722 0.0
C5895 C 0.4839 0.89384 0.78304 0.0
C5896 C 0.47015 0.89612 0.80417 0.0
H5897 H 0.4478 0.89776 0.80894 0.0
C5898 C 0.47357 0.89991 0.81208 0.0
C5899 C 0.46076 0.89544 0.80295 0.0
C5900 C 0.45679 0.89127 0.79463 0.0
C5901 C 0.46783 0.90299 0.81885 0.0
C5902 C 0.45843 0.90205 0.81776 0.0
C5903 C 0.45501 0.89845 0.80976 0.0
C5904 C 0.45207 0.90442 0.825 0.0
C5905 C 0.4719 0.90728 0.82706 0.0
C5906 C 0.45266 0.90015 0.83327 0.0
C5907 C 0.44665 0.90228 0.84009 0.0
C5908 C 0.43986 0.90868 0.83875 0.0
C5909 C 0.43921 0.91287 0.83041 0.0
C5910 C 0.44526 0.91075 0.82358 0.0
H5911 H 0.47872 0.90996 0.82571 0.0
H5912 H 0.46763 0.91283 0.82962 0.0
H5913 H 0.47252 0.90217 0.83236 0.0
H5914 H 0.45771 0.89507 0.83443 0.0
H5915 H 0.4472 0.89879 0.84637 0.0
H5916 H 0.3796 0.21173 0.02803 0.0
H5917 H 0.3787 0.1961 0.03275 0.0
H5918 H 0.35832 0.20323 0.05193 0.0
H5919 H 0.35886 0.21874 0.04697 0.0
H5920 H 0.38258 0.18981 0.04903 0.0
H5921 H 0.34738 0.18113 0.04084 0.0
H5922 H 0.35281 0.191 0.03654 0.0
H5923 H 0.34811 0.19108 0.04759 0.0
C5924 C 0.37477 0.20993 0.0331 0.0
C5925 C 0.36931 0.2165 0.03712 0.0
C5926 C 0.3743 0.201 0.03583 0.0
C5927 C 0.36835 0.19846 0.0426 0.0
C5928 C 0.36282 0.20497 0.04655 0.0
H5929 H 0.36187 0.15541 0.07914 0.0
H5930 H 0.36127 0.16917 0.07037 0.0
C5931 C 0.36324 0.21388 0.04379 0.0
C5932 C 0.36843 0.18917 0.04606 0.0
H5933 H 0.35482 0.17157 0.0514 0.0
C5934 C 0.37654 0.18576 0.04941 0.0
C5935 C 0.36054 0.18389 0.04656 0.0
C5936 C 0.35174 0.18693 0.0426 0.0
C5937 C 0.3769 0.17738 0.05357 0.0
C5938 C 0.36895 0.17227 0.05435 0.0
C5939 C 0.36089 0.17555 0.05081 0.0
C5940 C 0.36883 0.16373 0.05928 0.0
C5941 C 0.38569 0.17418 0.05741 0.0
C5942 C 0.37313 0.1561 0.05585 0.0
C5943 C 0.37348 0.14823 0.06084 0.0
C5944 C 0.36956 0.1479 0.06935 0.0
C5945 C 0.36505 0.1555 0.07265 0.0
C5946 C 0.36465 0.16334 0.06763 0.0
H5947 H 0.39094 0.17948 0.05733 0.0
H5948 H 0.38475 0.17192 0.06438 0.0
H5949 H 0.38815 0.16837 0.05344 0.0
H5950 H 0.37634 0.15628 0.04937 0.0
H5951 H 0.37705 0.14249 0.05815 0.0
H5952 H 0.02682 0.89885 0.2329 0.0
H5953 H 0.0381 0.90391 0.22217 0.0
H5954 H 0.02961 0.88331 0.20364 0.0
H5955 H 0.01845 0.87812 0.21434 0.0
H5956 H 0.05241 0.89383 0.21377 0.0
H5957 H 0.02772 0.90695 0.18936 0.0
H5958 H 0.02483 0.90461 0.2008 0.0
H5959 H 0.0257 0.89562 0.19279 0.0
C5960 C 0.02742 0.89533 0.22658 0.0
C5961 C 0.02167 0.88812 0.22445 0.0
C5962 C 0.03383 0.89827 0.22045 0.0
C5963 C 0.03456 0.89408 0.21207 0.0
C5964 C 0.02901 0.88675 0.21 0.0
H5965 H 0.0662 0.89857 0.16452 0.0
H5966 H 0.05543 0.89497 0.17624 0.0
C5967 C 0.02262 0.88381 0.21612 0.0
C5968 C 0.04116 0.89731 0.20546 0.0
H5969 H 0.04286 0.90589 0.18451 0.0
C5970 C 0.05035 0.89655 0.2074 0.0
C5971 C 0.03842 0.90085 0.19718 0.0
C5972 C 0.02863 0.90214 0.19491 0.0
C5973 C 0.05689 0.89893 0.20111 0.0
C5974 C 0.05414 0.90234 0.19276 0.0
C5975 C 0.04495 0.90326 0.19091 0.0
C5976 C 0.06067 0.90468 0.18571 0.0
C5977 C 0.06667 0.89749 0.20334 0.0
C5978 C 0.06711 0.91144 0.1871 0.0
C5979 C 0.07327 0.91353 0.1804 0.0
C5980 C 0.07304 0.90896 0.17216 0.0
C5981 C 0.06648 0.90229 0.17075 0.0
C5982 C 0.06036 0.90019 0.17745 0.0
H5983 H 0.06753 0.89288 0.20906 0.0
H5984 H 0.07035 0.8947 0.19752 0.0
H5985 H 0.06978 0.90401 0.20517 0.0
H5986 H 0.06733 0.91512 0.19335 0.0
H5987 H 0.07815 0.91878 0.18164 0.0
H5988 H 0.36953 0.79554 0.476 0.0
H5989 H 0.36982 0.81171 0.47324 0.0
H5990 H 0.35754 0.80729 0.44751 0.0
H5991 H 0.35738 0.7912 0.4501 0.0
H5992 H 0.37855 0.82035 0.45897 0.0
H5993 H 0.34203 0.82723 0.45859 0.0
H5994 H 0.34673 0.81721 0.46339 0.0
H5995 H 0.34512 0.81797 0.45153 0.0
C5996 C 0.36689 0.79801 0.46976 0.0
C5997 C 0.36338 0.79206 0.46329 0.0
C5998 C 0.36701 0.80725 0.46822 0.0
C5999 C 0.36355 0.8107 0.46025 0.0
C6000 C 0.36003 0.80479 0.45381 0.0
H6001 H 0.36219 0.85637 0.42763 0.0
H6002 H 0.36041 0.84221 0.43548 0.0
C6003 C 0.35993 0.79558 0.45532 0.0
C6004 C 0.36412 0.8204 0.4583 0.0
H6005 H 0.35147 0.83818 0.45159 0.0
C6006 C 0.37264 0.82433 0.45752 0.0
C6007 C 0.35638 0.82554 0.45644 0.0
C6008 C 0.34704 0.8218 0.45761 0.0
C6009 C 0.37366 0.83311 0.45438 0.0
C6010 C 0.36593 0.83811 0.45212 0.0
C6011 C 0.35739 0.83432 0.45331 0.0
C6012 C 0.36658 0.84694 0.44772 0.0
C6013 C 0.383 0.83678 0.45303 0.0
C6014 C 0.37048 0.85435 0.45208 0.0
C6015 C 0.37157 0.86246 0.44758 0.0
C6016 C 0.36876 0.86327 0.43865 0.0
C6017 C 0.36457 0.85591 0.43444 0.0
C6018 C 0.36349 0.84784 0.43894 0.0
H6019 H 0.38822 0.8315 0.45359 0.0
H6020 H 0.38359 0.83995 0.44639 0.0
H6021 H 0.3844 0.84199 0.45818 0.0
H6022 H 0.37279 0.85383 0.45891 0.0
H6023 H 0.37484 0.868 0.45099 0.0
H6024 H 0.48037 0.13017 0.73162 0.0
H6025 H 0.46886 0.12535 0.72088 0.0
H6026 H 0.48836 0.10879 0.70738 0.0
H6027 H 0.49983 0.1134 0.71818 0.0
H6028 H 0.46961 0.1277 0.70215 0.0
H6029 H 0.46694 0.09174 0.71097 0.0
H6030 H 0.47202 0.09998 0.7183 0.0
H6031 H 0.4782 0.09557 0.70897 0.0
C6032 C 0.48217 0.12539 0.72645 0.0
C6033 C 0.49101 0.12217 0.72575 0.0
C6034 C 0.4756 0.12268 0.7203 0.0
C6035 C 0.47774 0.11664 0.71341 0.0
C6036 C 0.48654 0.11335 0.71273 0.0
H6037 H 0.45029 0.09432 0.66732 0.0
H6038 H 0.46098 0.09836 0.67912 0.0
C6039 C 0.4931 0.11607 0.71885 0.0
C6040 C 0.47091 0.1141 0.70664 0.0
H6041 H 0.45972 0.09622 0.69758 0.0
C6042 C 0.46738 0.12083 0.70119 0.0
C6043 C 0.46808 0.10513 0.70539 0.0
C6044 C 0.47144 0.09768 0.71126 0.0
C6045 C 0.46123 0.1188 0.69435 0.0
C6046 C 0.4584 0.10982 0.69308 0.0
C6047 C 0.4619 0.1031 0.69857 0.0
C6048 C 0.45185 0.10727 0.68605 0.0
C6049 C 0.45801 0.12625 0.6884 0.0
C6050 C 0.44314 0.11083 0.68612 0.0
C6051 C 0.43705 0.1086 0.67936 0.0
C6052 C 0.43952 0.10269 0.67242 0.0
C6053 C 0.44821 0.09899 0.67248 0.0
C6054 C 0.4543 0.10124 0.67925 0.0
H6055 H 0.46254 0.13217 0.68873 0.0
H6056 H 0.45753 0.12394 0.68135 0.0
H6057 H 0.45124 0.12842 0.69059 0.0
H6058 H 0.44105 0.11537 0.69139 0.0
H6059 H 0.43045 0.11164 0.67948 0.0
H6060 H 0.15474 0.21557 0.965 0.0
H6061 H 0.15476 0.20024 0.95906 0.0
H6062 H 0.12852 0.19576 0.97028 0.0
H6063 H 0.12838 0.21111 0.97616 0.0
H6064 H 0.14109 0.18108 0.97235 0.0
H6065 H 0.13851 0.19332 0.93751 0.0
H6066 H 0.14766 0.19787 0.94394 0.0
H6067 H 0.1363 0.20042 0.94706 0.0
C6068 C 0.14897 0.21132 0.96621 0.0
C6069 C 0.14152 0.2146 0.97098 0.0
C6070 C 0.14901 0.20256 0.96284 0.0
C6071 C 0.14159 0.19693 0.96414 0.0
C6072 C 0.13431 0.20002 0.96921 0.0
H6073 H 0.12497 0.15101 0.93316 0.0
H6074 H 0.12618 0.16507 0.94155 0.0
C6075 C 0.13426 0.20878 0.97259 0.0
C6076 C 0.1412 0.18799 0.9598 0.0
H6077 H 0.14001 0.17772 0.93941 0.0
C6078 C 0.14088 0.18032 0.96515 0.0
C6079 C 0.14082 0.18705 0.95042 0.0
C6080 C 0.14076 0.19509 0.94437 0.0
C6081 C 0.14022 0.1717 0.96133 0.0
C6082 C 0.13996 0.17078 0.95194 0.0
C6083 C 0.14026 0.17846 0.94661 0.0
C6084 C 0.13906 0.16195 0.94743 0.0
C6085 C 0.13961 0.16368 0.96734 0.0
C6086 C 0.14589 0.15551 0.94801 0.0
C6087 C 0.14525 0.14746 0.94318 0.0
C6088 C 0.13778 0.14577 0.93764 0.0
C6089 C 0.13087 0.15217 0.93725 0.0
C6090 C 0.13152 0.16019 0.94207 0.0
H6091 H 0.13799 0.16563 0.97432 0.0
H6092 H 0.13442 0.1589 0.96489 0.0
H6093 H 0.14616 0.16014 0.96737 0.0
H6094 H 0.15183 0.15681 0.952 0.0
H6095 H 0.15072 0.14271 0.94354 0.0
H6096 H 0.30253 0.02164 0.13729 0.0
H6097 H 0.31082 0.0345 0.1315 0.0
H6098 H 0.30169 0.02809 0.10489 0.0
H6099 H 0.29349 0.01511 0.11061 0.0
H6100 H 0.32051 0.03052 0.10657 0.0
H6101 H 0.30163 0.05873 0.1219 0.0
H6102 H 0.30488 0.05017 0.12961 0.0
H6103 H 0.29703 0.04756 0.12085 0.0
C6104 C 0.30224 0.023 0.13022 0.0
C6105 C 0.29736 0.01736 0.1244 0.0
C6106 C 0.30691 0.0304 0.12693 0.0
C6107 C 0.30678 0.0323 0.11779 0.0
C6108 C 0.30181 0.02677 0.11198 0.0
H6109 H 0.33228 0.07941 0.09406 0.0
H6110 H 0.32144 0.06767 0.09782 0.0
C6111 C 0.2971 0.0194 0.11527 0.0
C6112 C 0.31235 0.03967 0.11423 0.0
H6113 H 0.316 0.06223 0.11576 0.0
C6114 C 0.31947 0.03747 0.1085 0.0
C6115 C 0.31093 0.04872 0.1167 0.0
C6116 C 0.30315 0.05148 0.12254 0.0
C6117 C 0.32541 0.04406 0.10543 0.0
C6118 C 0.32423 0.05305 0.10823 0.0
C6119 C 0.31692 0.05531 0.11369 0.0
C6120 C 0.33076 0.06012 0.10588 0.0
C6121 C 0.33296 0.04135 0.09928 0.0
C6122 C 0.33953 0.05979 0.10926 0.0
C6123 C 0.34571 0.06651 0.10721 0.0
C6124 C 0.34323 0.0737 0.10172 0.0
C6125 C 0.3344 0.07401 0.09837 0.0
C6126 C 0.3282 0.0673 0.10047 0.0
H6127 H 0.33168 0.03473 0.09607 0.0
H6128 H 0.33396 0.04643 0.09401 0.0
H6129 H 0.33928 0.04087 0.10319 0.0
H6130 H 0.34158 0.05438 0.11359 0.0
H6131 H 0.35237 0.06615 0.11009 0.0
H6132 H 0.80431 0.49047 0.87428 0.0
H6133 H 0.81275 0.47788 0.88041 0.0
H6134 H 0.80442 0.48543 0.90695 0.0
H6135 H 0.79607 0.49814 0.90087 0.0
H6136 H 0.82316 0.48284 0.90497 0.0
H6137 H 0.80374 0.45412 0.89119 0.0
H6138 H 0.8068 0.46233 0.88304 0.0
H6139 H 0.79923 0.46534 0.89189 0.0
C6140 C 0.80423 0.48942 0.88142 0.0
C6141 C 0.79953 0.4953 0.8871 0.0
C6142 C 0.80899 0.48217 0.8849 0.0
C6143 C 0.80912 0.48067 0.89412 0.0
C6144 C 0.80433 0.48644 0.89981 0.0
H6145 H 0.83528 0.43404 0.91808 0.0
H6146 H 0.82437 0.44577 0.91455 0.0
C6147 C 0.79953 0.49367 0.89632 0.0
C6148 C 0.81476 0.47344 0.89784 0.0
H6149 H 0.81836 0.45086 0.89694 0.0
C6150 C 0.82206 0.47584 0.9033 0.0
C6151 C 0.81325 0.46431 0.89572 0.0
C6152 C 0.80528 0.46134 0.89021 0.0
C6153 C 0.8281 0.46936 0.90642 0.0
C6154 C 0.82684 0.46029 0.90393 0.0
C6155 C 0.81934 0.45784 0.89877 0.0
C6156 C 0.83347 0.45331 0.90626 0.0
C6157 C 0.83584 0.47229 0.91227 0.0
C6158 C 0.84216 0.45364 0.9027 0.0
C6159 C 0.84837 0.44693 0.90461 0.0
C6160 C 0.84602 0.43973 0.91015 0.0
C6161 C 0.83729 0.43944 0.91373 0.0
C6162 C 0.83106 0.44615 0.91176 0.0
H6163 H 0.83459 0.47894 0.91541 0.0
H6164 H 0.83711 0.46733 0.91761 0.0
H6165 H 0.842 0.47281 0.90816 0.0
H6166 H 0.84408 0.45902 0.89829 0.0
H6167 H 0.85495 0.44727 0.90157 0.0
H6168 H 0.79337 0.56366 0.1436 0.0
H6169 H 0.8096 0.56579 0.1432 0.0
H6170 H 0.81354 0.53779 0.14887 0.0
H6171 H 0.79721 0.53558 0.14934 0.0
H6172 H 0.82213 0.5626 0.1568 0.0
H6173 H 0.82898 0.54199 0.12645 0.0
H6174 H 0.81782 0.54566 0.1294 0.0
H6175 H 0.82295 0.53658 0.13529 0.0
C6176 C 0.79767 0.55795 0.14485 0.0
C6177 C 0.79399 0.54946 0.14655 0.0
C6178 C 0.80695 0.55918 0.14457 0.0
C6179 C 0.81277 0.55194 0.14594 0.0
C6180 C 0.80916 0.54343 0.14766 0.0
H6181 H 0.87017 0.56455 0.15328 0.0
H6182 H 0.8555 0.5574 0.15539 0.0
C6183 C 0.79984 0.54219 0.14792 0.0
C6184 C 0.82259 0.55346 0.14563 0.0
H6185 H 0.84132 0.54925 0.1332 0.0
C6186 C 0.82637 0.5596 0.15171 0.0
C6187 C 0.82806 0.54957 0.13895 0.0
C6188 C 0.82427 0.54313 0.13209 0.0
C6189 C 0.8354 0.56221 0.15111 0.0
C6190 C 0.84084 0.55843 0.14434 0.0
C6191 C 0.83714 0.55207 0.13842 0.0
C6192 C 0.85009 0.5617 0.14273 0.0
C6193 C 0.83891 0.56932 0.15745 0.0
C6194 C 0.85203 0.56613 0.13475 0.0
C6195 C 0.8604 0.57012 0.13348 0.0
C6196 C 0.86702 0.56977 0.14017 0.0
C6197 C 0.86522 0.56494 0.14799 0.0
C6198 C 0.85682 0.56092 0.14924 0.0
H6199 H 0.83341 0.57276 0.16111 0.0
H6200 H 0.8434 0.56617 0.16243 0.0
H6201 H 0.84286 0.57443 0.1538 0.0
H6202 H 0.84694 0.56676 0.12961 0.0
H6203 H 0.86164 0.57364 0.12731 0.0
H6204 H 0.71595 0.51301 0.39468 0.0
H6205 H 0.70531 0.52486 0.39863 0.0
H6206 H 0.71963 0.54335 0.38189 0.0
H6207 H 0.73019 0.53147 0.37771 0.0
H6208 H 0.70852 0.54195 0.40659 0.0
H6209 H 0.69351 0.54459 0.37273 0.0
H6210 H 0.70035 0.5352 0.37603 0.0
H6211 H 0.70552 0.54568 0.3732 0.0
C6212 C 0.71681 0.51958 0.39179 0.0
C6213 C 0.72387 0.52128 0.38582 0.0
C6214 C 0.71076 0.52636 0.3941 0.0
C6215 C 0.71162 0.53494 0.39045 0.0
C6216 C 0.71878 0.53673 0.38467 0.0
H6217 H 0.67842 0.58269 0.39407 0.0
H6218 H 0.69043 0.57193 0.39108 0.0
C6219 C 0.72485 0.52996 0.38236 0.0
C6220 C 0.70495 0.54197 0.39267 0.0
H6221 H 0.68857 0.55503 0.38358 0.0
C6222 C 0.70415 0.54482 0.40157 0.0
C6223 C 0.69927 0.54568 0.3861 0.0
C6224 C 0.69962 0.5426 0.37649 0.0
C6225 C 0.69786 0.55138 0.40407 0.0
C6226 C 0.69213 0.55504 0.39751 0.0
C6227 C 0.69299 0.55222 0.3886 0.0
C6228 C 0.68509 0.56171 0.39974 0.0
C6229 C 0.69751 0.55443 0.41368 0.0
C6230 C 0.6781 0.55952 0.40558 0.0
C6231 C 0.67126 0.56568 0.40737 0.0
C6232 C 0.67125 0.57413 0.40328 0.0
C6233 C 0.67829 0.5763 0.39744 0.0
C6234 C 0.68513 0.57014 0.39567 0.0
H6235 H 0.70385 0.55288 0.41728 0.0
H6236 H 0.69624 0.56175 0.41419 0.0
H6237 H 0.69195 0.5509 0.4171 0.0
H6238 H 0.67784 0.55298 0.40866 0.0
H6239 H 0.66597 0.56382 0.41194 0.0
H6240 H 0.21649 0.96477 0.14914 0.0
H6241 H 0.20096 0.95961 0.14989 0.0
H6242 H 0.19279 0.98105 0.13259 0.0
H6243 H 0.2084 0.98603 0.13144 0.0
H6244 H 0.18555 0.96786 0.15566 0.0
H6245 H 0.18299 0.95913 0.11961 0.0
H6246 H 0.19357 0.9617 0.12495 0.0
H6247 H 0.18602 0.97057 0.12194 0.0
C6248 C 0.21142 0.96835 0.14541 0.0
C6249 C 0.21373 0.97574 0.14012 0.0
C6250 C 0.20252 0.96543 0.14592 0.0
C6251 C 0.19574 0.96985 0.14117 0.0
C6252 C 0.19795 0.97743 0.13615 0.0
H6253 H 0.13925 0.95417 0.13506 0.0
H6254 H 0.15307 0.96315 0.13547 0.0
C6255 C 0.20687 0.98033 0.1356 0.0
C6256 C 0.18642 0.96634 0.14139 0.0
H6257 H 0.17003 0.95699 0.12832 0.0
C6258 C 0.18214 0.96553 0.14968 0.0
C6259 C 0.18198 0.9633 0.13357 0.0
C6260 C 0.18638 0.96363 0.12452 0.0
C6261 C 0.17358 0.96165 0.15037 0.0
C6262 C 0.16923 0.95845 0.14258 0.0
C6263 C 0.17338 0.9595 0.13427 0.0
C6264 C 0.16068 0.95342 0.14296 0.0
C6265 C 0.16926 0.96095 0.15943 0.0
C6266 C 0.16041 0.945 0.14703 0.0
C6267 C 0.15257 0.93986 0.14678 0.0
C6268 C 0.14484 0.94306 0.14244 0.0
C6269 C 0.14507 0.95158 0.13852 0.0
C6270 C 0.15295 0.95669 0.13872 0.0
H6271 H 0.17231 0.96571 0.16431 0.0
H6272 H 0.16193 0.96227 0.15901 0.0
H6273 H 0.1702 0.95406 0.16198 0.0
H6274 H 0.16634 0.9423 0.15022 0.0
H6275 H 0.15257 0.93335 0.14991 0.0
H6276 H 0.21181 0.99477 0.63741 0.0
H6277 H 0.20109 0.98317 0.63287 0.0
H6278 H 0.21972 0.97354 0.61302 0.0
H6279 H 0.23045 0.98522 0.61743 0.0
H6280 H 0.19372 0.98073 0.6153 0.0
H6281 H 0.21241 0.95076 0.62699 0.0
H6282 H 0.21495 0.96196 0.63093 0.0
H6283 H 0.21856 0.95837 0.62006 0.0
C6284 C 0.21363 0.99021 0.63206 0.0
C6285 C 0.22199 0.99094 0.62777 0.0
C6286 C 0.20751 0.98356 0.6295 0.0
C6287 C 0.20965 0.97746 0.62267 0.0
C6288 C 0.21801 0.97809 0.61842 0.0
H6289 H 0.17881 0.93293 0.59986 0.0
H6290 H 0.19046 0.94413 0.60309 0.0
C6291 C 0.22413 0.98477 0.62095 0.0
C6292 C 0.20297 0.97065 0.61982 0.0
H6293 H 0.19884 0.94814 0.6192 0.0
C6294 C 0.19483 0.9736 0.61614 0.0
C6295 C 0.20449 0.96137 0.62087 0.0
C6296 C 0.21304 0.95788 0.62498 0.0
C6297 C 0.18814 0.9675 0.6135 0.0
C6298 C 0.18956 0.95822 0.61474 0.0
C6299 C 0.19777 0.95526 0.61827 0.0
C6300 C 0.18249 0.9515 0.61271 0.0
C6301 C 0.17965 0.97105 0.6093 0.0
C6302 C 0.17421 0.95187 0.61713 0.0
C6303 C 0.16756 0.9455 0.61531 0.0
C6304 C 0.16909 0.93857 0.60908 0.0
C6305 C 0.17744 0.93815 0.60473 0.0
C6306 C 0.18409 0.94456 0.60654 0.0
H6307 H 0.18069 0.97782 0.60644 0.0
H6308 H 0.17719 0.96649 0.60394 0.0
H6309 H 0.17436 0.97161 0.61447 0.0
H6310 H 0.17292 0.95704 0.62208 0.0
H6311 H 0.16128 0.9459 0.61892 0.0
H6312 H 0.79759 0.47428 0.37496 0.0
H6313 H 0.81399 0.4731 0.37491 0.0
H6314 H 0.81241 0.45319 0.35394 0.0
H6315 H 0.79612 0.45461 0.35368 0.0
H6316 H 0.82344 0.45841 0.37891 0.0
H6317 H 0.83237 0.46873 0.34479 0.0
H6318 H 0.82146 0.47092 0.34956 0.0
H6319 H 0.82392 0.46016 0.34459 0.0
C6320 C 0.80075 0.46982 0.37018 0.0
C6321 C 0.79553 0.46452 0.36434 0.0
C6322 C 0.81012 0.46912 0.37019 0.0
C6323 C 0.81445 0.46316 0.36432 0.0
C6324 C 0.80926 0.458 0.35838 0.0
H6325 H 0.86147 0.43257 0.35957 0.0
H6326 H 0.84712 0.44044 0.35834 0.0
C6327 C 0.79992 0.45871 0.35834 0.0
C6328 C 0.82427 0.46164 0.36497 0.0
H6329 H 0.8432 0.45928 0.35233 0.0
C6330 C 0.82781 0.4588 0.37315 0.0
C6331 C 0.82998 0.46218 0.35745 0.0
C6332 C 0.82675 0.46576 0.34863 0.0
C6333 C 0.83676 0.45594 0.37389 0.0
C6334 C 0.8423 0.45599 0.36625 0.0
C6335 C 0.8389 0.45922 0.35817 0.0
C6336 C 0.8513 0.45183 0.36635 0.0
C6337 C 0.8401 0.45243 0.3827 0.0
C6338 C 0.85844 0.45576 0.3711 0.0
C6339 C 0.86667 0.45128 0.3718 0.0
C6340 C 0.86781 0.44278 0.36782 0.0
C6341 C 0.86073 0.43905 0.3628 0.0
C6342 C 0.85256 0.44355 0.36205 0.0
H6343 H 0.83466 0.45196 0.38773 0.0
H6344 H 0.84314 0.44569 0.38177 0.0
H6345 H 0.84539 0.45696 0.38536 0.0
H6346 H 0.85758 0.46217 0.37442 0.0
H6347 H 0.872 0.45429 0.37574 0.0
H6348 H 0.7167 0.54019 0.85438 0.0
H6349 H 0.70131 0.5459 0.85391 0.0
H6350 H 0.69631 0.53492 0.87994 0.0
H6351 H 0.71171 0.52924 0.8805 0.0
H6352 H 0.68188 0.53248 0.8673 0.0
H6353 H 0.69396 0.56771 0.86952 0.0
H6354 H 0.69864 0.56116 0.86056 0.0
H6355 H 0.7011 0.55827 0.87191 0.0
C6356 C 0.71232 0.53898 0.86 0.0
C6357 C 0.71546 0.53435 0.86752 0.0
C6358 C 0.70353 0.54223 0.85971 0.0
C6359 C 0.69773 0.54094 0.86694 0.0
C6360 C 0.7007 0.53599 0.87429 0.0
H6361 H 0.65168 0.57184 0.8825 0.0
H6362 H 0.66579 0.56358 0.88143 0.0
C6363 C 0.70949 0.53273 0.87459 0.0
C6364 C 0.68875 0.54517 0.86708 0.0
H6365 H 0.67836 0.56554 0.86779 0.0
C6366 C 0.68108 0.5397 0.86738 0.0
C6367 C 0.68777 0.5546 0.86729 0.0
C6368 C 0.69579 0.5608 0.86738 0.0
C6369 C 0.67243 0.54343 0.86785 0.0
C6370 C 0.67146 0.55286 0.86795 0.0
C6371 C 0.67913 0.55831 0.86765 0.0
C6372 C 0.6626 0.55728 0.86876 0.0
C6373 C 0.66441 0.53728 0.86847 0.0
C6374 C 0.65609 0.55642 0.86201 0.0
C6375 C 0.64801 0.56118 0.86259 0.0
C6376 C 0.64635 0.56692 0.8699 0.0
C6377 C 0.65282 0.56759 0.87672 0.0
C6378 C 0.66086 0.56284 0.87614 0.0
H6379 H 0.66639 0.53033 0.87022 0.0
H6380 H 0.65958 0.53979 0.87353 0.0
H6381 H 0.66092 0.53705 0.86193 0.0
H6382 H 0.65737 0.55228 0.85619 0.0
H6383 H 0.64319 0.56059 0.85719 0.0
H6384 H 0.88587 0.69556 0.96906 0.0
H6385 H 0.88529 0.69356 0.9529 0.0
H6386 H 0.89531 0.72043 0.94941 0.0
H6387 H 0.89617 0.72241 0.96565 0.0
H6388 H 0.876 0.7034 0.93986 0.0
H6389 H 0.91305 0.70471 0.93511 0.0
H6390 H 0.90799 0.70328 0.94593 0.0
H6391 H 0.90806 0.71411 0.94081 0.0
C6392 C 0.88801 0.70103 0.96487 0.0
C6393 C 0.89117 0.70911 0.96864 0.0
C6394 C 0.88761 0.6999 0.95563 0.0
C6395 C 0.89036 0.70681 0.94997 0.0
C6396 C 0.89328 0.71498 0.95368 0.0
H6397 H 0.88178 0.7007 0.89201 0.0
H6398 H 0.88212 0.70732 0.90703 0.0
C6399 C 0.89368 0.71612 0.96295 0.0
C6400 C 0.89033 0.70526 0.9402 0.0
H6401 H 0.90419 0.70214 0.92233 0.0
C6402 C 0.88214 0.70323 0.93598 0.0
C6403 C 0.89838 0.70497 0.93521 0.0
C6404 C 0.90739 0.70682 0.93947 0.0
C6405 C 0.8818 0.70067 0.92696 0.0
C6406 C 0.88987 0.70026 0.922 0.0
C6407 C 0.89803 0.70253 0.92615 0.0
C6408 C 0.89007 0.69669 0.91276 0.0
C6409 C 0.87289 0.69802 0.92291 0.0
C6410 C 0.89464 0.68866 0.91097 0.0
C6411 C 0.89447 0.68488 0.90243 0.0
C6412 C 0.88974 0.68906 0.89548 0.0
C6413 C 0.88537 0.69724 0.89724 0.0
C6414 C 0.88556 0.70104 0.90581 0.0
H6415 H 0.86761 0.69712 0.92806 0.0
H6416 H 0.87063 0.70334 0.9183 0.0
H6417 H 0.87352 0.69169 0.91902 0.0
H6418 H 0.89815 0.68519 0.91625 0.0
H6419 H 0.8978 0.67851 0.90135 0.0
H6420 H 0.0367 0.14568 0.74393 0.0
H6421 H 0.04398 0.15119 0.73037 0.0
H6422 H 0.0628 0.12927 0.73139 0.0
H6423 H 0.05543 0.1236 0.74471 0.0
H6424 H 0.06177 0.15658 0.72857 0.0
H6425 H 0.05432 0.12832 0.70559 0.0
H6426 H 0.04842 0.12994 0.71599 0.0
H6427 H 0.05927 0.12463 0.71583 0.0
C6428 C 0.04229 0.14196 0.74116 0.0
C6429 C 0.04549 0.13421 0.74539 0.0
C6430 C 0.04647 0.14514 0.73346 0.0
C6431 C 0.05384 0.14057 0.72981 0.0
C6432 C 0.057 0.13281 0.73398 0.0
H6433 H 0.09693 0.14572 0.69385 0.0
H6434 H 0.08575 0.14216 0.70514 0.0
C6435 C 0.05285 0.12963 0.74167 0.0
C6436 C 0.05862 0.14411 0.72192 0.0
H6437 H 0.06665 0.13789 0.70149 0.0
C6438 C 0.0627 0.15258 0.72256 0.0
C6439 C 0.05978 0.13889 0.71409 0.0
C6440 C 0.05514 0.12998 0.71278 0.0
C6441 C 0.06835 0.15574 0.71579 0.0
C6442 C 0.06989 0.15029 0.70819 0.0
C6443 C 0.06549 0.14201 0.70737 0.0
C6444 C 0.0766 0.15271 0.70136 0.0
C6445 C 0.07301 0.16465 0.71698 0.0
C6446 C 0.07513 0.15984 0.6955 0.0
C6447 C 0.08149 0.16186 0.68895 0.0
C6448 C 0.0894 0.15675 0.68816 0.0
C6449 C 0.09085 0.14968 0.69415 0.0
C6450 C 0.08449 0.14766 0.70064 0.0
H6451 H 0.07193 0.16757 0.72374 0.0
H6452 H 0.08034 0.16391 0.71585 0.0
H6453 H 0.07041 0.16944 0.71198 0.0
H6454 H 0.06902 0.16375 0.69591 0.0
H6455 H 0.08014 0.16728 0.68439 0.0
H6456 H 0.62945 0.28135 0.46075 0.0
H6457 H 0.62903 0.28658 0.44532 0.0
H6458 H 0.60644 0.3035 0.45162 0.0
H6459 H 0.60665 0.29817 0.46699 0.0
H6460 H 0.61358 0.28671 0.43233 0.0
H6461 H 0.62685 0.32038 0.44168 0.0
H6462 H 0.62806 0.31074 0.44879 0.0
H6463 H 0.61747 0.31642 0.44808 0.0
C6464 C 0.6243 0.28607 0.45883 0.0
C6465 C 0.61813 0.28939 0.46514 0.0
C6466 C 0.6241 0.28907 0.45002 0.0
C6467 C 0.61778 0.29549 0.44739 0.0
C6468 C 0.61145 0.29863 0.45358 0.0
H6469 H 0.60919 0.32779 0.40078 0.0
H6470 H 0.60838 0.32039 0.41519 0.0
C6471 C 0.61161 0.29561 0.46236 0.0
C6472 C 0.61796 0.29915 0.43827 0.0
H6473 H 0.62223 0.31828 0.42674 0.0
C6474 C 0.61549 0.2936 0.43107 0.0
C6475 C 0.62047 0.30813 0.4367 0.0
C6476 C 0.62343 0.31428 0.44419 0.0
C6477 C 0.61526 0.29688 0.42232 0.0
C6478 C 0.61775 0.30589 0.42075 0.0
C6479 C 0.62029 0.31139 0.42796 0.0
C6480 C 0.61771 0.30983 0.4117 0.0
C6481 C 0.61211 0.29075 0.41488 0.0
C6482 C 0.62319 0.30632 0.40492 0.0
C6483 C 0.62357 0.31047 0.3966 0.0
C6484 C 0.61856 0.31827 0.39494 0.0
C6485 C 0.61301 0.3217 0.40174 0.0
C6486 C 0.6126 0.31752 0.41002 0.0
H6487 H 0.60816 0.28501 0.41746 0.0
H6488 H 0.60792 0.29444 0.41 0.0
H6489 H 0.61804 0.28802 0.41132 0.0
H6490 H 0.62733 0.30049 0.40611 0.0
H6491 H 0.62786 0.30761 0.39149 0.0
H6492 H 0.47134 0.86605 0.2434 0.0
H6493 H 0.46369 0.86111 0.22971 0.0
H6494 H 0.44675 0.88451 0.23086 0.0
H6495 H 0.45452 0.88962 0.24432 0.0
H6496 H 0.44571 0.85709 0.22778 0.0
H6497 H 0.45506 0.88461 0.20511 0.0
H6498 H 0.46081 0.8827 0.21553 0.0
H6499 H 0.45033 0.8887 0.21535 0.0
C6500 C 0.4661 0.87023 0.24063 0.0
C6501 C 0.46354 0.87823 0.24495 0.0
C6502 C 0.46171 0.86737 0.23285 0.0
C6503 C 0.45474 0.87251 0.2292 0.0
C6504 C 0.45223 0.88053 0.23345 0.0
H6505 H 0.41173 0.86925 0.19224 0.0
H6506 H 0.42285 0.87255 0.20378 0.0
C6507 C 0.45661 0.88339 0.24121 0.0
C6508 C 0.44969 0.86928 0.22127 0.0
H6509 H 0.44223 0.87576 0.20077 0.0
C6510 C 0.44507 0.86108 0.2218 0.0
C6511 C 0.4489 0.87449 0.21347 0.0
C6512 C 0.45412 0.88307 0.21228 0.0
C6513 C 0.43929 0.85821 0.21493 0.0
C6514 C 0.43819 0.86364 0.20733 0.0
C6515 C 0.44307 0.87165 0.20665 0.0
C6516 C 0.43153 0.86145 0.20031 0.0
C6517 C 0.43409 0.8496 0.216 0.0
C6518 C 0.43276 0.85412 0.19452 0.0
C6519 C 0.42643 0.85225 0.18783 0.0
C6520 C 0.4188 0.85771 0.18682 0.0
C6521 C 0.4176 0.86501 0.1927 0.0
C6522 C 0.42393 0.86688 0.19934 0.0
H6523 H 0.43481 0.84678 0.22279 0.0
H6524 H 0.42685 0.85073 0.21461 0.0
H6525 H 0.43657 0.84456 0.2111 0.0
H6526 H 0.43865 0.84992 0.19512 0.0
H6527 H 0.42761 0.84665 0.18335 0.0
H6528 H 0.87976 0.30226 0.54217 0.0
H6529 H 0.87915 0.30539 0.55819 0.0
H6530 H 0.90711 0.29831 0.56068 0.0
H6531 H 0.9078 0.29527 0.54461 0.0
H6532 H 0.88255 0.29523 0.57312 0.0
H6533 H 0.90664 0.3236 0.57088 0.0
H6534 H 0.90166 0.31841 0.56114 0.0
H6535 H 0.9109 0.31311 0.56676 0.0
C6536 C 0.88575 0.30126 0.54615 0.0
C6537 C 0.89385 0.29859 0.54213 0.0
C6538 C 0.8854 0.30308 0.55529 0.0
C6539 C 0.89313 0.30225 0.56059 0.0
C6540 C 0.90113 0.29921 0.55667 0.0
H6541 H 0.90243 0.31733 0.61628 0.0
H6542 H 0.90372 0.31029 0.60153 0.0
C6543 C 0.9015 0.29745 0.54751 0.0
C6544 C 0.89286 0.30489 0.57014 0.0
H6545 H 0.90159 0.3198 0.58525 0.0
C6546 C 0.88673 0.30058 0.57579 0.0
C6547 C 0.89831 0.3119 0.5736 0.0
C6548 C 0.90469 0.31709 0.56778 0.0
C6549 C 0.88591 0.3031 0.5848 0.0
C6550 C 0.89129 0.31016 0.5882 0.0
C6551 C 0.89752 0.31435 0.58261 0.0
C6552 C 0.89023 0.31368 0.5974 0.0
C6553 C 0.8793 0.2982 0.5906 0.0
C6554 C 0.88222 0.31791 0.59994 0.0
C6555 C 0.88149 0.32202 0.60831 0.0
C6556 C 0.88878 0.32201 0.6143 0.0
C6557 C 0.89673 0.31757 0.6118 0.0
C6558 C 0.89746 0.31349 0.6034 0.0
H6559 H 0.87744 0.29157 0.58771 0.0
H6560 H 0.88209 0.29719 0.5974 0.0
H6561 H 0.87308 0.30224 0.59124 0.0
H6562 H 0.87662 0.3183 0.59533 0.0
H6563 H 0.87533 0.32551 0.60993 0.0
H6564 H 0.47878 0.13265 0.27989 0.0
H6565 H 0.4679 0.13679 0.29143 0.0
H6566 H 0.45601 0.15606 0.27369 0.0
H6567 H 0.46684 0.15194 0.26212 0.0
H6568 H 0.46422 0.15322 0.29967 0.0
H6569 H 0.43458 0.14064 0.2808 0.0
H6570 H 0.44595 0.13795 0.27763 0.0
H6571 H 0.44123 0.14866 0.27487 0.0
C6572 C 0.4739 0.13783 0.27848 0.0
C6573 C 0.47362 0.14191 0.27007 0.0
C6574 C 0.46767 0.14016 0.28506 0.0
C6575 C 0.46105 0.14661 0.28335 0.0
C6576 C 0.46093 0.1509 0.27507 0.0
H6577 H 0.4162 0.16739 0.31434 0.0
H6578 H 0.42803 0.16508 0.30322 0.0
C6579 C 0.46712 0.14855 0.26847 0.0
C6580 C 0.45423 0.14878 0.29021 0.0
H6581 H 0.43166 0.14856 0.29423 0.0
C6582 C 0.45711 0.15219 0.2985 0.0
C6583 C 0.44494 0.14742 0.28865 0.0
C6584 C 0.44147 0.14339 0.28004 0.0
C6585 C 0.45093 0.15436 0.30524 0.0
C6586 C 0.44166 0.15299 0.30368 0.0
C6587 C 0.43878 0.14964 0.29538 0.0
C6588 C 0.43484 0.15473 0.31064 0.0
C6589 C 0.45436 0.15821 0.31394 0.0
C6590 C 0.43475 0.14965 0.31847 0.0
C6591 C 0.42802 0.15096 0.32482 0.0
C6592 C 0.42124 0.15735 0.32345 0.0
C6593 C 0.4214 0.16249 0.31564 0.0
C6594 C 0.42811 0.16115 0.30926 0.0
H6595 H 0.46128 0.16091 0.31329 0.0
H6596 H 0.44989 0.16365 0.3164 0.0
H6597 H 0.45447 0.15286 0.31903 0.0
H6598 H 0.4398 0.14457 0.31959 0.0
H6599 H 0.42812 0.14694 0.3308 0.0
H6600 H 0.60501 0.69846 0.04288 0.0
H6601 H 0.6059 0.69573 0.05889 0.0
H6602 H 0.62631 0.71609 0.06156 0.0
H6603 H 0.62564 0.71876 0.04545 0.0
H6604 H 0.62315 0.69078 0.06777 0.0
H6605 H 0.6069 0.72145 0.08171 0.0
H6606 H 0.60471 0.7175 0.07049 0.0
H6607 H 0.61521 0.72279 0.07311 0.0
C6608 C 0.60971 0.70237 0.04685 0.0
C6609 C 0.61532 0.70878 0.04286 0.0
C6610 C 0.61015 0.70083 0.05601 0.0
C6611 C 0.61613 0.70574 0.06138 0.0
C6612 C 0.62157 0.71232 0.05751 0.0
H6613 H 0.62711 0.70053 0.11848 0.0
H6614 H 0.62657 0.70592 0.1031 0.0
C6615 C 0.62116 0.71384 0.04832 0.0
C6616 C 0.61706 0.70348 0.07092 0.0
H6617 H 0.61222 0.7108 0.092 0.0
C6618 C 0.62078 0.69516 0.07308 0.0
C6619 C 0.61406 0.70927 0.07779 0.0
C6620 C 0.60994 0.71825 0.07573 0.0
C6621 C 0.62152 0.6924 0.08196 0.0
C6622 C 0.6182 0.69804 0.08885 0.0
C6623 C 0.61469 0.70648 0.0867 0.0
C6624 C 0.61812 0.69511 0.09826 0.0
C6625 C 0.6259 0.68351 0.08389 0.0
C6626 C 0.61336 0.68739 0.10068 0.0
C6627 C 0.61373 0.68425 0.10941 0.0
C6628 C 0.61879 0.68882 0.11595 0.0
C6629 C 0.62327 0.69677 0.11358 0.0
C6630 C 0.62292 0.69989 0.10482 0.0
H6631 H 0.63036 0.68134 0.07835 0.0
H6632 H 0.62991 0.68383 0.09014 0.0
H6633 H 0.62062 0.67832 0.08468 0.0
H6634 H 0.60947 0.6837 0.09576 0.0
H6635 H 0.61027 0.67806 0.11094 0.0
H6636 H 0.0406 0.88155 0.77389 0.0
H6637 H 0.04849 0.87587 0.78704 0.0
H6638 H 0.05983 0.85453 0.77112 0.0
H6639 H 0.05197 0.86013 0.75796 0.0
H6640 H 0.04847 0.85873 0.79545 0.0
H6641 H 0.08189 0.86756 0.78162 0.0
H6642 H 0.07154 0.87178 0.777 0.0
H6643 H 0.07512 0.86053 0.77452 0.0
C6644 C 0.04467 0.87557 0.77322 0.0
C6645 C 0.04575 0.87135 0.76487 0.0
C6646 C 0.04919 0.87236 0.78073 0.0
C6647 C 0.05486 0.86488 0.78 0.0
C6648 C 0.05564 0.86042 0.77177 0.0
H6649 H 0.09323 0.84094 0.81649 0.0
H6650 H 0.08294 0.84362 0.80405 0.0
C6651 C 0.05115 0.86364 0.76427 0.0
C6652 C 0.06022 0.86194 0.78777 0.0
H6653 H 0.08177 0.85972 0.79521 0.0
C6654 C 0.05575 0.85893 0.79542 0.0
C6655 C 0.06972 0.86224 0.78769 0.0
C6656 C 0.07487 0.86577 0.77981 0.0
C6657 C 0.06054 0.85611 0.80297 0.0
C6658 C 0.07004 0.85645 0.80289 0.0
C6659 C 0.07449 0.8594 0.79522 0.0
C6660 C 0.07554 0.85413 0.81079 0.0
C6661 C 0.05541 0.85268 0.8109 0.0
C6662 C 0.07473 0.8591 0.81873 0.0
C6663 C 0.08056 0.85755 0.82587 0.0
C6664 C 0.08737 0.85105 0.82517 0.0
C6665 C 0.088 0.84592 0.81729 0.0
C6666 C 0.08216 0.84747 0.81015 0.0
H6667 H 0.04855 0.85043 0.809 0.0
H6668 H 0.05899 0.84702 0.81409 0.0
H6669 H 0.05474 0.85816 0.81591 0.0
H6670 H 0.06978 0.86438 0.81932 0.0
H6671 H 0.07984 0.86156 0.83188 0.0
H6672 H 0.96564 0.88455 0.71084 0.0
H6673 H 0.95012 0.88512 0.70557 0.0
H6674 H 0.94147 0.89399 0.73161 0.0
H6675 H 0.95706 0.89364 0.73691 0.0
H6676 H 0.935 0.87578 0.7124 0.0
H6677 H 0.93091 0.91282 0.71426 0.0
H6678 H 0.94178 0.90748 0.7145 0.0
H6679 H 0.9348 0.90745 0.72424 0.0
C6680 C 0.96045 0.88672 0.71543 0.0
C6681 C 0.96259 0.88913 0.72427 0.0
C6682 C 0.95158 0.88698 0.71242 0.0
C6683 C 0.94467 0.88969 0.71817 0.0
C6684 C 0.94673 0.892 0.72704 0.0
H6685 H 0.8878 0.88282 0.70419 0.0
H6686 H 0.90209 0.88275 0.71232 0.0
C6687 C 0.95563 0.89172 0.73007 0.0
C6688 C 0.93532 0.89002 0.71481 0.0
H6689 H 0.91836 0.90439 0.70948 0.0
C6690 C 0.93132 0.88202 0.71183 0.0
C6691 C 0.9306 0.89819 0.714 0.0
C6692 C 0.93473 0.907 0.71685 0.0
C6693 C 0.92274 0.88198 0.70793 0.0
C6694 C 0.91802 0.89015 0.70711 0.0
C6695 C 0.92198 0.89814 0.71019 0.0
C6696 C 0.90921 0.8906 0.70254 0.0
C6697 C 0.91893 0.87325 0.70444 0.0
C6698 C 0.90844 0.89523 0.69448 0.0
C6699 C 0.90031 0.89527 0.68981 0.0
C6700 C 0.89277 0.8907 0.69315 0.0
C6701 C 0.89351 0.88627 0.70136 0.0
C6702 C 0.90166 0.88624 0.70603 0.0
H6703 H 0.92411 0.86791 0.70401 0.0
H6704 H 0.91355 0.87093 0.70899 0.0
H6705 H 0.91591 0.87415 0.69773 0.0
H6706 H 0.9142 0.89863 0.69168 0.0
H6707 H 0.90002 0.89864 0.68346 0.0
H6708 H 0.86145 0.25092 0.46271 0.0
H6709 H 0.8569 0.23951 0.45179 0.0
H6710 H 0.87523 0.22069 0.46368 0.0
H6711 H 0.87979 0.23206 0.47465 0.0
H6712 H 0.86758 0.23121 0.43948 0.0
H6713 H 0.85235 0.20596 0.46177 0.0
H6714 H 0.85476 0.21728 0.4654 0.0
H6715 H 0.86358 0.20906 0.46492 0.0
C6716 C 0.86449 0.24434 0.46302 0.0
C6717 C 0.87098 0.24239 0.46954 0.0
C6718 C 0.86185 0.23782 0.4568 0.0
C6719 C 0.86563 0.22921 0.457 0.0
C6720 C 0.87206 0.22721 0.46354 0.0
H6721 H 0.86537 0.183 0.42199 0.0
H6722 H 0.86791 0.19409 0.43386 0.0
C6723 C 0.87467 0.23372 0.4698 0.0
C6724 C 0.86323 0.22251 0.45002 0.0
H6725 H 0.85516 0.20129 0.44677 0.0
C6726 C 0.86478 0.2247 0.44106 0.0
C6727 C 0.8596 0.21402 0.45211 0.0
C6728 C 0.85739 0.21145 0.46157 0.0
C6729 C 0.863 0.21854 0.43416 0.0
C6730 C 0.85948 0.21002 0.43626 0.0
C6731 C 0.85787 0.20784 0.4452 0.0
C6732 C 0.85765 0.2032 0.42926 0.0
C6733 C 0.86512 0.22111 0.42468 0.0
C6734 C 0.85094 0.20461 0.42285 0.0
C6735 C 0.84948 0.1983 0.41605 0.0
C6736 C 0.85472 0.19048 0.41555 0.0
C6737 C 0.86131 0.18902 0.42212 0.0
C6738 C 0.86273 0.19531 0.42893 0.0
H6739 H 0.86946 0.22716 0.42436 0.0
H6740 H 0.86852 0.21551 0.42112 0.0
H6741 H 0.85876 0.22257 0.42109 0.0
H6742 H 0.84688 0.21063 0.42306 0.0
H6743 H 0.84439 0.19965 0.41106 0.0
H6744 H 0.54703 0.13423 0.21598 0.0
H6745 H 0.56322 0.13496 0.21329 0.0
H6746 H 0.56388 0.10634 0.20915 0.0
H6747 H 0.54773 0.10551 0.21204 0.0
H6748 H 0.57877 0.11356 0.21936 0.0
H6749 H 0.57272 0.13143 0.18748 0.0
H6750 H 0.56786 0.13645 0.19728 0.0
H6751 H 0.56388 0.12574 0.1934 0.0
C6752 C 0.55065 0.12807 0.21468 0.0
C6753 C 0.54608 0.11982 0.21414 0.0
C6754 C 0.55988 0.12851 0.21308 0.0
C6755 C 0.5647 0.12072 0.2109 0.0
C6756 C 0.56026 0.11243 0.21078 0.0
H6757 H 0.61279 0.11324 0.18075 0.0
H6758 H 0.59783 0.11302 0.18733 0.0
C6759 C 0.55103 0.11198 0.21236 0.0
C6760 C 0.57423 0.12124 0.20815 0.0
H6761 H 0.58776 0.12863 0.1914 0.0
C6762 C 0.58077 0.1169 0.21329 0.0
C6763 C 0.57676 0.12553 0.20016 0.0
C6764 C 0.56995 0.13 0.1942 0.0
C6765 C 0.58981 0.11669 0.21061 0.0
C6766 C 0.59233 0.12098 0.20263 0.0
C6767 C 0.58579 0.12539 0.19754 0.0
C6768 C 0.6016 0.1206 0.19912 0.0
C6769 C 0.59655 0.11167 0.21618 0.0
C6770 C 0.60871 0.12488 0.20361 0.0
C6771 C 0.61732 0.12498 0.19988 0.0
C6772 C 0.61895 0.12079 0.19159 0.0
C6773 C 0.61182 0.11639 0.18721 0.0
C6774 C 0.60324 0.11632 0.19093 0.0
H6775 H 0.59325 0.10735 0.22121 0.0
H6776 H 0.60089 0.10742 0.21188 0.0
H6777 H 0.60093 0.11654 0.21975 0.0
H6778 H 0.60755 0.12833 0.20989 0.0
H6779 H 0.62268 0.12839 0.20344 0.0
H6780 H 0.64278 0.75901 0.96356 0.0
H6781 H 0.64779 0.77058 0.95329 0.0
H6782 H 0.63999 0.79105 0.97221 0.0
H6783 H 0.63465 0.77949 0.98243 0.0
H6784 H 0.6337 0.79428 0.95543 0.0
H6785 H 0.66999 0.7864 0.95405 0.0
H6786 H 0.66306 0.77682 0.95168 0.0
H6787 H 0.66268 0.782 0.96256 0.0
C6788 C 0.64211 0.76597 0.96554 0.0
C6789 C 0.63828 0.76832 0.9738 0.0
C6790 C 0.6451 0.77257 0.95971 0.0
C6791 C 0.64441 0.78167 0.96205 0.0
C6792 C 0.64067 0.78406 0.97032 0.0
H6793 H 0.66648 0.82472 0.92918 0.0
H6794 H 0.66348 0.81446 0.94151 0.0
C6795 C 0.63767 0.77745 0.97617 0.0
C6796 C 0.64701 0.78866 0.95558 0.0
H6797 H 0.66425 0.79572 0.94238 0.0
C6798 C 0.6404 0.79466 0.95265 0.0
C6799 C 0.6558 0.78923 0.95204 0.0
C6800 C 0.66332 0.78333 0.95531 0.0
C6801 C 0.64225 0.80098 0.94603 0.0
C6802 C 0.65088 0.80119 0.94212 0.0
C6803 C 0.6576 0.79545 0.9453 0.0
C6804 C 0.65297 0.80717 0.93457 0.0
C6805 C 0.63491 0.80736 0.94326 0.0
C6806 C 0.64823 0.80631 0.92652 0.0
C6807 C 0.64993 0.81213 0.91948 0.0
C6808 C 0.65647 0.81889 0.92033 0.0
C6809 C 0.66144 0.81955 0.92831 0.0
C6810 C 0.6597 0.81373 0.93537 0.0
H6811 H 0.62971 0.80807 0.94852 0.0
H6812 H 0.63769 0.81409 0.94177 0.0
H6813 H 0.63159 0.80472 0.93715 0.0
H6814 H 0.64317 0.80115 0.92568 0.0
H6815 H 0.64613 0.81133 0.91336 0.0
H6816 H 0.9662 0.11599 0.80106 0.0
H6817 H 0.95088 0.1158 0.80673 0.0
H6818 H 0.94079 0.12198 0.78052 0.0
H6819 H 0.95611 0.12174 0.77466 0.0
H6820 H 0.93889 0.12946 0.80709 0.0
H6821 H 0.92507 0.10091 0.78735 0.0
H6822 H 0.93696 0.1032 0.78808 0.0
H6823 H 0.92995 0.10965 0.78077 0.0
C6824 C 0.96073 0.11712 0.79643 0.0
C6825 C 0.9624 0.1188 0.78737 0.0
C6826 C 0.95197 0.11709 0.79972 0.0
C6827 C 0.94468 0.11875 0.79403 0.0
C6828 C 0.9463 0.1205 0.78499 0.0
H6829 H 0.88782 0.12557 0.80725 0.0
H6830 H 0.90233 0.12555 0.79949 0.0
C6831 C 0.95507 0.12047 0.78168 0.0
C6832 C 0.93544 0.11898 0.79771 0.0
H6833 H 0.91478 0.10903 0.79635 0.0
C6834 C 0.93362 0.125 0.80473 0.0
C6835 C 0.92857 0.11316 0.79462 0.0
C6836 C 0.93023 0.1063 0.78734 0.0
C6837 C 0.92515 0.1253 0.80878 0.0
C6838 C 0.91834 0.11943 0.80575 0.0
C6839 C 0.92006 0.11353 0.79862 0.0
C6840 C 0.90951 0.11908 0.8102 0.0
C6841 C 0.92352 0.13189 0.81629 0.0
C6842 C 0.90877 0.11534 0.81871 0.0
C6843 C 0.90053 0.11532 0.82313 0.0
C6844 C 0.89288 0.11908 0.81912 0.0
C6845 C 0.89362 0.1227 0.81052 0.0
C6846 C 0.90186 0.12265 0.80607 0.0
H6847 H 0.92891 0.13702 0.81679 0.0
H6848 H 0.91697 0.13532 0.81538 0.0
H6849 H 0.92325 0.12822 0.82269 0.0
H6850 H 0.91462 0.11253 0.82197 0.0
H6851 H 0.90021 0.11258 0.82978 0.0
H6852 H 0.64885 0.25441 0.54986 0.0
H6853 H 0.65517 0.24186 0.55823 0.0
H6854 H 0.63006 0.22762 0.55575 0.0
H6855 H 0.62371 0.24012 0.54732 0.0
H6856 H 0.647 0.23524 0.57476 0.0
H6857 H 0.65002 0.20907 0.54833 0.0
H6858 H 0.6495 0.2209 0.54588 0.0
H6859 H 0.63947 0.21492 0.54878 0.0
C6860 C 0.64474 0.24853 0.55095 0.0
C6861 C 0.63579 0.24823 0.54793 0.0
C6862 C 0.64834 0.2414 0.55576 0.0
C6863 C 0.6431 0.2338 0.55751 0.0
C6864 C 0.63424 0.23339 0.55435 0.0
H6865 H 0.64615 0.18564 0.58796 0.0
H6866 H 0.64296 0.19759 0.57742 0.0
C6867 C 0.6306 0.24055 0.54961 0.0
C6868 C 0.64666 0.22659 0.56321 0.0
H6869 H 0.65199 0.20436 0.56329 0.0
C6870 C 0.64819 0.2285 0.57226 0.0
C6871 C 0.64814 0.21783 0.5599 0.0
C6872 C 0.64677 0.21553 0.55018 0.0
C6873 C 0.65087 0.22178 0.57819 0.0
C6874 C 0.65229 0.21297 0.5749 0.0
C6875 C 0.65092 0.21111 0.56579 0.0
C6876 C 0.65467 0.20548 0.5809 0.0
C6877 C 0.65174 0.22411 0.58797 0.0
C6878 C 0.66245 0.20583 0.5862 0.0
C6879 C 0.66422 0.19907 0.59237 0.0
C6880 C 0.65829 0.19178 0.59326 0.0
C6881 C 0.65075 0.19125 0.58761 0.0
C6882 C 0.64895 0.19804 0.58151 0.0
H6883 H 0.64823 0.23046 0.58967 0.0
H6884 H 0.64897 0.21868 0.59218 0.0
H6885 H 0.65894 0.22498 0.58967 0.0
H6886 H 0.66708 0.2114 0.58569 0.0
H6887 H 0.67007 0.19971 0.59662 0.0
H6888 H 0.55124 0.89949 0.27831 0.0
H6889 H 0.56703 0.89974 0.28308 0.0
H6890 H 0.56221 0.87698 0.29993 0.0
H6891 H 0.54649 0.87663 0.29517 0.0
H6892 H 0.57307 0.90131 0.30172 0.0
H6893 H 0.5849 0.87021 0.2849 0.0
H6894 H 0.57492 0.87613 0.28142 0.0
H6895 H 0.57463 0.86908 0.29106 0.0
C6896 C 0.55359 0.89447 0.28295 0.0
C6897 C 0.54764 0.88804 0.28638 0.0
C6898 C 0.56258 0.89465 0.28568 0.0
C6899 C 0.56578 0.88832 0.29178 0.0
C6900 C 0.55989 0.88185 0.29514 0.0
H6901 H 0.61266 0.87537 0.32185 0.0
H6902 H 0.59836 0.87606 0.31388 0.0
C6903 C 0.5509 0.88171 0.29247 0.0
C6904 C 0.57517 0.88869 0.295 0.0
H6905 H 0.5945 0.87648 0.29603 0.0
C6906 C 0.57782 0.89595 0.3004 0.0
C6907 C 0.58129 0.88167 0.29327 0.0
C6908 C 0.57885 0.87385 0.28728 0.0
C6909 C 0.58633 0.8962 0.30444 0.0
C6910 C 0.59241 0.88907 0.30286 0.0
C6911 C 0.58983 0.88193 0.29724 0.0
C6912 C 0.60127 0.88862 0.30737 0.0
C6913 C 0.58857 0.90386 0.3107 0.0
C6914 C 0.60773 0.89537 0.30623 0.0
C6915 C 0.61592 0.89501 0.31082 0.0
C6916 C 0.61783 0.88781 0.31651 0.0
C6917 C 0.61143 0.88095 0.31744 0.0
C6918 C 0.60324 0.88135 0.31291 0.0
H6919 H 0.58246 0.90757 0.31284 0.0
H6920 H 0.59211 0.90142 0.31673 0.0
H6921 H 0.59305 0.90865 0.30725 0.0
H6922 H 0.60644 0.90094 0.30182 0.0
H6923 H 0.62077 0.90033 0.30988 0.0
H6924 H 0.88394 0.76655 0.04868 0.0
H6925 H 0.87932 0.77848 0.05893 0.0
H6926 H 0.85715 0.78492 0.04159 0.0
H6927 H 0.86154 0.77276 0.03143 0.0
H6928 H 0.87764 0.79674 0.05571 0.0
H6929 H 0.84498 0.78188 0.06585 0.0
H6930 H 0.8535 0.7755 0.06008 0.0
H6931 H 0.84651 0.78317 0.05405 0.0
C6932 C 0.87801 0.77042 0.04709 0.0
C6933 C 0.87306 0.76864 0.03927 0.0
C6934 C 0.87542 0.77728 0.05292 0.0
C6935 C 0.86782 0.78249 0.05108 0.0
C6936 C 0.86294 0.78086 0.04321 0.0
H6937 H 0.84449 0.82643 0.08256 0.0
H6938 H 0.84759 0.81547 0.07068 0.0
C6939 C 0.86553 0.77398 0.03736 0.0
C6940 C 0.86513 0.78969 0.0574 0.0
H6941 H 0.84854 0.79619 0.07176 0.0
C6942 C 0.87126 0.79663 0.0592 0.0
C6943 C 0.8568 0.78955 0.06191 0.0
C6944 C 0.85008 0.7821 0.06046 0.0
C6945 C 0.86932 0.8034 0.06545 0.0
C6946 C 0.86109 0.80314 0.07011 0.0
C6947 C 0.85485 0.79634 0.06816 0.0
C6948 C 0.85904 0.80963 0.07735 0.0
C6949 C 0.87611 0.81077 0.06702 0.0
C6950 C 0.86434 0.80982 0.08509 0.0
C6951 C 0.86256 0.81601 0.09189 0.0
C6952 C 0.85543 0.82213 0.0911 0.0
C6953 C 0.85 0.82178 0.0834 0.0
C6954 C 0.85178 0.81556 0.0766 0.0
H6955 H 0.88087 0.81135 0.06136 0.0
H6956 H 0.87273 0.81733 0.06805 0.0
H6957 H 0.88006 0.80926 0.07311 0.0
H6958 H 0.86984 0.80516 0.08588 0.0
H6959 H 0.86674 0.81595 0.09781 0.0
H6960 H 0.71065 0.96271 0.90206 0.0
H6961 H 0.70507 0.94729 0.90209 0.0
H6962 H 0.7233 0.9404 0.88083 0.0
H6963 H 0.72879 0.95586 0.88058 0.0
H6964 H 0.69729 0.93844 0.88638 0.0
H6965 H 0.7269 0.9205 0.90017 0.0
H6966 H 0.7252 0.93239 0.90179 0.0
H6967 H 0.729 0.92817 0.89122 0.0
C6968 C 0.71347 0.95793 0.89737 0.0
C6969 C 0.72014 0.96055 0.89128 0.0
C6970 C 0.71032 0.94911 0.89745 0.0
C6971 C 0.71384 0.94271 0.89152 0.0
C6972 C 0.72061 0.94522 0.88556 0.0
H6973 H 0.70037 0.88687 0.8807 0.0
H6974 H 0.70749 0.90166 0.88126 0.0
C6975 C 0.72375 0.95406 0.88544 0.0
C6976 C 0.70998 0.93357 0.8912 0.0
H6977 H 0.71467 0.91159 0.89525 0.0
C6978 C 0.70107 0.93256 0.88834 0.0
C6979 C 0.71498 0.92595 0.89368 0.0
C6980 C 0.72454 0.92675 0.89695 0.0
C6981 C 0.69701 0.92408 0.88783 0.0
C6982 C 0.70194 0.91645 0.89048 0.0
C6983 C 0.7109 0.91746 0.89326 0.0
C6984 C 0.69786 0.90738 0.89046 0.0
C6985 C 0.68754 0.92338 0.88427 0.0
C6986 C 0.69021 0.90564 0.8956 0.0
C6987 C 0.68606 0.89725 0.89521 0.0
C6988 C 0.68954 0.89037 0.88975 0.0
C6989 C 0.69741 0.89205 0.88485 0.0
C6990 C 0.70154 0.90048 0.88521 0.0
H6991 H 0.68572 0.92929 0.88019 0.0
H6992 H 0.68665 0.91724 0.88012 0.0
H6993 H 0.68279 0.92306 0.88994 0.0
H6994 H 0.68737 0.91082 0.89984 0.0
H6995 H 0.67997 0.89625 0.89901 0.0
H6996 H 0.20279 0.5469 0.13343 0.0
H6997 H 0.20094 0.5632 0.1339 0.0
H6998 H 0.21778 0.56568 0.1107 0.0
H6999 H 0.21958 0.54934 0.11011 0.0
H7000 H 0.21487 0.57747 0.13448 0.0
H7001 H 0.19315 0.57781 0.10416 0.0
H7002 H 0.19512 0.56773 0.11044 0.0
H7003 H 0.20375 0.57208 0.10336 0.0
C7004 C 0.2061 0.55092 0.12843 0.0
C7005 C 0.21127 0.54684 0.12169 0.0
C7006 C 0.20509 0.56022 0.12874 0.0
C7007 C 0.20916 0.5656 0.12229 0.0
C7008 C 0.21453 0.56161 0.1157 0.0
H7009 H 0.19787 0.62232 0.11272 0.0
H7010 H 0.2046 0.60736 0.11172 0.0
C7011 C 0.2156 0.55229 0.11541 0.0
C7012 C 0.20744 0.57536 0.12231 0.0
H7013 H 0.19568 0.59158 0.11144 0.0
C7014 C 0.21074 0.5806 0.12941 0.0
C7015 C 0.2021 0.57939 0.11565 0.0
C7016 C 0.19826 0.574 0.10798 0.0
C7017 C 0.20872 0.58977 0.13011 0.0
C7018 C 0.20307 0.59372 0.12364 0.0
C7019 C 0.20001 0.58853 0.11639 0.0
C7020 C 0.19971 0.60304 0.12457 0.0
C7021 C 0.21266 0.59511 0.13775 0.0
C7022 C 0.19473 0.60557 0.13211 0.0
C7023 C 0.1909 0.61409 0.1327 0.0
C7024 C 0.19188 0.62023 0.12571 0.0
C7025 C 0.19695 0.61772 0.11819 0.0
C7026 C 0.20083 0.6092 0.11763 0.0
H7027 H 0.219 0.59206 0.1402 0.0
H7028 H 0.21405 0.60214 0.13579 0.0
H7029 H 0.20783 0.5952 0.14337 0.0
H7030 H 0.19355 0.60086 0.13743 0.0
H7031 H 0.18687 0.61574 0.13849 0.0
H7032 H 0.25013 0.46734 0.85992 0.0
H7033 H 0.23711 0.45931 0.85377 0.0
H7034 H 0.22829 0.45315 0.88039 0.0
H7035 H 0.24118 0.46128 0.88659 0.0
H7036 H 0.23344 0.441 0.85661 0.0
H7037 H 0.20532 0.46243 0.86817 0.0
H7038 H 0.2168 0.46637 0.86773 0.0
H7039 H 0.21311 0.45957 0.87686 0.0
C7040 C 0.24532 0.46442 0.86446 0.0
C7041 C 0.24668 0.46493 0.87374 0.0
C7042 C 0.23792 0.45981 0.86094 0.0
C7043 C 0.23169 0.45573 0.86663 0.0
C7044 C 0.23294 0.45638 0.87589 0.0
H7045 H 0.19696 0.41078 0.86176 0.0
H7046 H 0.20891 0.42172 0.86445 0.0
C7047 C 0.24035 0.46095 0.87941 0.0
C7048 C 0.22427 0.45021 0.86293 0.0
H7049 H 0.20151 0.44751 0.86344 0.0
C7050 C 0.22645 0.44248 0.85799 0.0
C7051 C 0.21516 0.45221 0.86467 0.0
C7052 C 0.21243 0.46064 0.86957 0.0
C7053 C 0.21977 0.43648 0.85511 0.0
C7054 C 0.21071 0.43822 0.85729 0.0
C7055 C 0.20848 0.44616 0.86185 0.0
C7056 C 0.20353 0.4316 0.85542 0.0
C7057 C 0.22246 0.42823 0.84988 0.0
C7058 C 0.19649 0.43359 0.84953 0.0
C7059 C 0.18962 0.42734 0.84798 0.0
C7060 C 0.18964 0.41906 0.85241 0.0
C7061 C 0.19672 0.41713 0.85831 0.0
C7062 C 0.20359 0.42333 0.8598 0.0
H7063 H 0.22919 0.42903 0.84678 0.0
H7064 H 0.22276 0.42242 0.85444 0.0
H7065 H 0.21748 0.42669 0.84456 0.0
H7066 H 0.19631 0.43997 0.84614 0.0
H7067 H 0.18422 0.42904 0.84346 0.0
H7068 H 0.30356 0.46578 0.61993 0.0
H7069 H 0.30894 0.45036 0.61999 0.0
H7070 H 0.28233 0.44105 0.62646 0.0
H7071 H 0.27676 0.45646 0.62598 0.0
H7072 H 0.30904 0.43872 0.63378 0.0
H7073 H 0.28885 0.42469 0.60574 0.0
H7074 H 0.28985 0.43659 0.60781 0.0
H7075 H 0.28234 0.42993 0.61439 0.0
C7076 C 0.29879 0.46045 0.62118 0.0
C7077 C 0.2897 0.46238 0.62287 0.0
C7078 C 0.3019 0.45164 0.62129 0.0
C7079 C 0.29602 0.44454 0.62311 0.0
C7080 C 0.28695 0.44641 0.62486 0.0
H7081 H 0.30821 0.38769 0.63087 0.0
H7082 H 0.30069 0.40234 0.63071 0.0
C7083 C 0.28381 0.45524 0.6247 0.0
C7084 C 0.29952 0.43525 0.62347 0.0
H7085 H 0.29769 0.41442 0.61395 0.0
C7086 C 0.30655 0.43342 0.62944 0.0
C7087 C 0.29624 0.42832 0.61782 0.0
C7088 C 0.28896 0.42997 0.61102 0.0
C7089 C 0.31043 0.42488 0.62987 0.0
C7090 C 0.30722 0.418 0.62416 0.0
C7091 C 0.30009 0.41974 0.61832 0.0
C7092 C 0.31153 0.40909 0.62393 0.0
C7093 C 0.31798 0.42324 0.63638 0.0
C7094 C 0.32002 0.40808 0.62006 0.0
C7095 C 0.32431 0.39976 0.62011 0.0
C7096 C 0.32018 0.39231 0.62407 0.0
C7097 C 0.31159 0.39333 0.62784 0.0
C7098 C 0.30727 0.40165 0.62772 0.0
H7099 H 0.31864 0.42875 0.64136 0.0
H7100 H 0.3169 0.41683 0.63995 0.0
H7101 H 0.3244 0.42268 0.63268 0.0
H7102 H 0.32339 0.41376 0.61709 0.0
H7103 H 0.33096 0.39922 0.61726 0.0
H7104 H 0.75733 0.04499 0.86204 0.0
H7105 H 0.77026 0.05311 0.85604 0.0
H7106 H 0.7839 0.05075 0.8813 0.0
H7107 H 0.771 0.0426 0.88735 0.0
H7108 H 0.77733 0.06984 0.86472 0.0
H7109 H 0.80251 0.04251 0.86144 0.0
H7110 H 0.79055 0.04041 0.86154 0.0
H7111 H 0.79633 0.04307 0.87174 0.0
C7112 C 0.76315 0.04607 0.86626 0.0
C7113 C 0.76316 0.04316 0.87516 0.0
C7114 C 0.7705 0.05073 0.86284 0.0
C7115 C 0.77804 0.05244 0.86821 0.0
C7116 C 0.77817 0.04939 0.87703 0.0
H7117 H 0.82766 0.08153 0.86486 0.0
H7118 H 0.81535 0.07129 0.86818 0.0
C7119 C 0.77078 0.0448 0.88049 0.0
C7120 C 0.7855 0.05797 0.86482 0.0
H7121 H 0.80772 0.05736 0.85935 0.0
C7122 C 0.78396 0.06712 0.86345 0.0
C7123 C 0.79413 0.05438 0.86326 0.0
C7124 C 0.79603 0.04454 0.8645 0.0
C7125 C 0.79092 0.07287 0.86083 0.0
C7126 C 0.79959 0.06929 0.85926 0.0
C7127 C 0.80108 0.06008 0.8605 0.0
C7128 C 0.80729 0.07507 0.85679 0.0
C7129 C 0.78899 0.08277 0.86013 0.0
C7130 C 0.80697 0.08042 0.84914 0.0
C7131 C 0.81393 0.08643 0.84732 0.0
C7132 C 0.82141 0.0871 0.85305 0.0
C7133 C 0.82191 0.08136 0.86043 0.0
C7134 C 0.81491 0.07543 0.86229 0.0
H7135 H 0.7828 0.08468 0.8638 0.0
H7136 H 0.79467 0.08683 0.86279 0.0
H7137 H 0.788 0.08452 0.85302 0.0
H7138 H 0.80125 0.08009 0.84468 0.0
H7139 H 0.81329 0.09076 0.84159 0.0
H7140 H 0.79596 0.04962 0.40253 0.0
H7141 H 0.79884 0.06575 0.40168 0.0
H7142 H 0.80356 0.06316 0.3734 0.0
H7143 H 0.80059 0.04707 0.37419 0.0
H7144 H 0.81442 0.07341 0.39683 0.0
H7145 H 0.78745 0.08488 0.37418 0.0
H7146 H 0.78723 0.07402 0.3794 0.0
H7147 H 0.79382 0.07578 0.36952 0.0
C7148 C 0.79752 0.05252 0.39612 0.0
C7149 C 0.79804 0.04709 0.38843 0.0
C7150 C 0.79913 0.06173 0.39564 0.0
C7151 C 0.80129 0.06569 0.38746 0.0
C7152 C 0.80167 0.06031 0.37974 0.0
H7153 H 0.82547 0.11468 0.37008 0.0
H7154 H 0.81839 0.09997 0.37152 0.0
C7155 C 0.8 0.0511 0.38021 0.0
C7156 C 0.80392 0.07528 0.38712 0.0
H7157 H 0.79985 0.09497 0.37639 0.0
C7158 C 0.81115 0.07815 0.39245 0.0
C7159 C 0.79965 0.08146 0.3814 0.0
C7160 C 0.79155 0.07891 0.37587 0.0
C7161 C 0.81444 0.08695 0.39199 0.0
C7162 C 0.81032 0.09305 0.3861 0.0
C7163 C 0.80299 0.09025 0.38088 0.0
C7164 C 0.81382 0.10226 0.38503 0.0
C7165 C 0.82249 0.08957 0.39756 0.0
C7166 C 0.81338 0.10848 0.39208 0.0
C7167 C 0.81736 0.11693 0.39126 0.0
C7168 C 0.82185 0.11929 0.38337 0.0
C7169 C 0.82199 0.11313 0.37621 0.0
C7170 C 0.81798 0.1047 0.37703 0.0
H7171 H 0.82587 0.08365 0.40051 0.0
H7172 H 0.82745 0.0933 0.3935 0.0
H7173 H 0.82029 0.09404 0.40309 0.0
H7174 H 0.81008 0.10675 0.39826 0.0
H7175 H 0.81699 0.12157 0.39684 0.0
H7176 H 0.2483 0.55637 0.62603 0.0
H7177 H 0.23489 0.56403 0.63148 0.0
H7178 H 0.23282 0.54518 0.65302 0.0
H7179 H 0.24645 0.5376 0.64774 0.0
H7180 H 0.21745 0.55716 0.63402 0.0
H7181 H 0.23253 0.56978 0.66576 0.0
H7182 H 0.23927 0.56548 0.65671 0.0
H7183 H 0.23322 0.55791 0.66373 0.0
C7184 C 0.24505 0.55389 0.63197 0.0
C7185 C 0.2485 0.54643 0.63651 0.0
C7186 C 0.23735 0.55823 0.63504 0.0
C7187 C 0.23294 0.55524 0.64271 0.0
C7188 C 0.23622 0.54768 0.64716 0.0
H7189 H 0.18683 0.58216 0.66811 0.0
H7190 H 0.19849 0.57102 0.66474 0.0
C7191 C 0.24394 0.5433 0.64409 0.0
C7192 C 0.22495 0.56016 0.64598 0.0
H7193 H 0.21759 0.57392 0.66276 0.0
C7194 C 0.21744 0.56076 0.64034 0.0
C7195 C 0.22495 0.5648 0.65425 0.0
C7196 C 0.23293 0.56455 0.66047 0.0
C7197 C 0.21003 0.56608 0.64264 0.0
C7198 C 0.21019 0.57102 0.65073 0.0
C7199 C 0.21752 0.57012 0.65655 0.0
C7200 C 0.20317 0.5777 0.65288 0.0
C7201 C 0.20213 0.56647 0.63634 0.0
C7202 C 0.2021 0.58521 0.64743 0.0
C7203 C 0.19554 0.59159 0.64936 0.0
C7204 C 0.18989 0.59061 0.6568 0.0
C7205 C 0.19109 0.58314 0.66236 0.0
C7206 C 0.1977 0.57675 0.66042 0.0
H7207 H 0.20189 0.56051 0.63184 0.0
H7208 H 0.1957 0.56691 0.64005 0.0
H7209 H 0.20275 0.57252 0.63213 0.0
H7210 H 0.2064 0.58617 0.6417 0.0
H7211 H 0.19496 0.59737 0.64507 0.0
H7212 H 0.27863 0.4806 0.13159 0.0
H7213 H 0.29033 0.46996 0.13596 0.0
H7214 H 0.27152 0.45663 0.15321 0.0
H7215 H 0.2598 0.46719 0.14885 0.0
H7216 H 0.29755 0.46592 0.15252 0.0
H7217 H 0.28067 0.43614 0.13764 0.0
H7218 H 0.27718 0.44745 0.13526 0.0
H7219 H 0.27384 0.4422 0.14548 0.0
C7220 C 0.27701 0.47544 0.13637 0.0
C7221 C 0.26827 0.47468 0.13981 0.0
C7222 C 0.28369 0.46935 0.13883 0.0
C7223 C 0.28174 0.4624 0.14477 0.0
C7224 C 0.2731 0.4618 0.14844 0.0
H7225 H 0.31265 0.41828 0.16652 0.0
H7226 H 0.30135 0.42984 0.16367 0.0
C7227 C 0.26642 0.46784 0.14594 0.0
C7228 C 0.28874 0.45577 0.14713 0.0
H7229 H 0.29356 0.4334 0.14651 0.0
C7230 C 0.2967 0.45881 0.15118 0.0
C7231 C 0.28761 0.4465 0.14536 0.0
C7232 C 0.27941 0.44287 0.14062 0.0
C7233 C 0.30351 0.45281 0.15363 0.0
C7234 C 0.30235 0.44356 0.1519 0.0
C7235 C 0.29439 0.44051 0.14787 0.0
C7236 C 0.3094 0.43691 0.15401 0.0
C7237 C 0.31184 0.45639 0.15818 0.0
C7238 C 0.31764 0.43707 0.14951 0.0
C7239 C 0.3241 0.43049 0.15112 0.0
C7240 C 0.32241 0.42362 0.15726 0.0
C7241 C 0.31418 0.42354 0.16184 0.0
C7242 C 0.30771 0.43011 0.16018 0.0
H7243 H 0.31081 0.46326 0.1609 0.0
H7244 H 0.31395 0.45194 0.16369 0.0
H7245 H 0.3174 0.45666 0.15327 0.0
H7246 H 0.31902 0.4422 0.14462 0.0
H7247 H 0.3304 0.43076 0.14754 0.0
H7248 H 0.61194 0.8048 0.50276 0.0
H7249 H 0.60668 0.81376 0.51545 0.0
H7250 H 0.62867 0.80399 0.5314 0.0
H7251 H 0.63401 0.79505 0.51871 0.0
H7252 H 0.60145 0.80912 0.53247 0.0
H7253 H 0.63161 0.83103 0.53352 0.0
H7254 H 0.62924 0.82357 0.52427 0.0
H7255 H 0.63409 0.8193 0.53437 0.0
C7256 C 0.6156 0.80448 0.509 0.0
C7257 C 0.62343 0.79926 0.50972 0.0
C7258 C 0.61261 0.80963 0.51623 0.0
C7259 C 0.61738 0.80967 0.52431 0.0
C7260 C 0.62502 0.80423 0.52515 0.0
H7261 H 0.61094 0.83808 0.57457 0.0
H7262 H 0.61509 0.82753 0.5627 0.0
C7263 C 0.62805 0.79912 0.51791 0.0
C7264 C 0.61442 0.81549 0.5318 0.0
H7265 H 0.62117 0.83279 0.5453 0.0
C7266 C 0.60575 0.81431 0.53526 0.0
C7267 C 0.62003 0.82229 0.5354 0.0
C7268 C 0.62923 0.8242 0.53165 0.0
C7269 C 0.60259 0.81967 0.54234 0.0
C7270 C 0.60822 0.82641 0.54596 0.0
C7271 C 0.61689 0.82758 0.54251 0.0
C7272 C 0.60525 0.83241 0.55329 0.0
C7273 C 0.59331 0.818 0.54598 0.0
C7274 C 0.59835 0.83864 0.5519 0.0
C7275 C 0.59595 0.84467 0.55867 0.0
C7276 C 0.60043 0.84457 0.56694 0.0
C7277 C 0.60727 0.83824 0.56833 0.0
C7278 C 0.60969 0.83225 0.56154 0.0
H7279 H 0.59061 0.81138 0.54381 0.0
H7280 H 0.59334 0.81831 0.55338 0.0
H7281 H 0.58869 0.82327 0.54354 0.0
H7282 H 0.59494 0.83895 0.54553 0.0
H7283 H 0.59063 0.84945 0.55743 0.0
H7284 H 0.47584 0.3625 0.79919 0.0
H7285 H 0.47362 0.36305 0.81541 0.0
H7286 H 0.44883 0.37747 0.81165 0.0
H7287 H 0.4511 0.37716 0.79554 0.0
H7288 H 0.45982 0.38439 0.82552 0.0
H7289 H 0.45456 0.34754 0.82811 0.0
H7290 H 0.46483 0.35121 0.82302 0.0
H7291 H 0.4543 0.35326 0.81756 0.0
C7292 C 0.46998 0.36588 0.80185 0.0
C7293 C 0.46359 0.3697 0.79609 0.0
C7294 C 0.46869 0.36613 0.81109 0.0
C7295 C 0.461 0.37019 0.81471 0.0
C7296 C 0.45479 0.37426 0.80899 0.0
H7297 H 0.4282 0.36578 0.85995 0.0
H7298 H 0.43629 0.3648 0.84583 0.0
C7299 C 0.45606 0.37401 0.79978 0.0
C7300 C 0.45915 0.37002 0.8244 0.0
H7301 H 0.45246 0.35614 0.84112 0.0
C7302 C 0.45835 0.37822 0.82899 0.0
C7303 C 0.45717 0.36194 0.82886 0.0
C7304 C 0.45769 0.35297 0.82416 0.0
C7305 C 0.45528 0.37858 0.83784 0.0
C7306 C 0.45308 0.37052 0.84222 0.0
C7307 C 0.45422 0.3623 0.83774 0.0
C7308 C 0.4486 0.37055 0.85103 0.0
C7309 C 0.45395 0.38762 0.84224 0.0
C7310 C 0.45292 0.37393 0.85868 0.0
C7311 C 0.44828 0.37456 0.86677 0.0
C7312 C 0.43925 0.37182 0.86732 0.0
C7313 C 0.43509 0.36811 0.85971 0.0
C7314 C 0.43973 0.36747 0.85165 0.0
H7315 H 0.45454 0.39321 0.83743 0.0
H7316 H 0.44725 0.38799 0.84546 0.0
H7317 H 0.45912 0.3886 0.8475 0.0
H7318 H 0.45982 0.37622 0.85836 0.0
H7319 H 0.45165 0.37746 0.87252 0.0
H7320 H 0.88011 0.22828 0.0315 0.0
H7321 H 0.88456 0.21797 0.04334 0.0
H7322 H 0.90197 0.20405 0.02495 0.0
H7323 H 0.89773 0.21443 0.01315 0.0
H7324 H 0.88236 0.19911 0.04298 0.0
H7325 H 0.91821 0.20866 0.04676 0.0
H7326 H 0.91011 0.21571 0.04123 0.0
H7327 H 0.91483 0.20619 0.0355 0.0
C7328 C 0.88499 0.22312 0.03002 0.0
C7329 C 0.88857 0.22218 0.02139 0.0
C7330 C 0.88749 0.2172 0.03677 0.0
C7331 C 0.89367 0.21032 0.03504 0.0
C7332 C 0.89731 0.2094 0.02646 0.0
H7333 H 0.91526 0.16506 0.06353 0.0
H7334 H 0.91155 0.17675 0.05279 0.0
C7335 C 0.8948 0.21529 0.0197 0.0
C7336 C 0.896 0.2038 0.04208 0.0
H7337 H 0.91356 0.19532 0.054 0.0
C7338 C 0.88916 0.19832 0.04546 0.0
C7339 C 0.90489 0.20277 0.04524 0.0
C7340 C 0.91243 0.20869 0.04206 0.0
C7341 C 0.89101 0.19167 0.05176 0.0
C7342 C 0.89991 0.19062 0.0549 0.0
C7343 C 0.90674 0.19615 0.05158 0.0
C7344 C 0.9023 0.1837 0.06154 0.0
C7345 C 0.88347 0.18566 0.05479 0.0
C7346 C 0.89844 0.18382 0.07007 0.0
C7347 C 0.90048 0.17711 0.07619 0.0
C7348 C 0.90648 0.17017 0.07392 0.0
C7349 C 0.9105 0.17021 0.06544 0.0
C7350 C 0.90844 0.17692 0.05932 0.0
H7351 H 0.87767 0.18582 0.05012 0.0
H7352 H 0.88579 0.17862 0.05541 0.0
H7353 H 0.88109 0.18797 0.06143 0.0
H7354 H 0.89381 0.18909 0.07197 0.0
H7355 H 0.89721 0.17726 0.08263 0.0
H7356 H 0.05645 0.62826 0.29632 0.0
H7357 H 0.05948 0.6281 0.31233 0.0
H7358 H 0.04611 0.65356 0.31536 0.0
H7359 H 0.04303 0.65376 0.29928 0.0
H7360 H 0.06977 0.64138 0.32092 0.0
H7361 H 0.03578 0.63855 0.336 0.0
H7362 H 0.03795 0.63574 0.32446 0.0
H7363 H 0.03725 0.64726 0.32792 0.0
C7364 C 0.05409 0.63379 0.3004 0.0
C7365 C 0.04956 0.64106 0.29654 0.0
C7366 C 0.05579 0.63367 0.30955 0.0
C7367 C 0.05297 0.64079 0.31503 0.0
C7368 C 0.04819 0.64793 0.31127 0.0
H7369 H 0.06744 0.6508 0.37108 0.0
H7370 H 0.06065 0.6522 0.3562 0.0
C7371 C 0.04646 0.64804 0.30209 0.0
C7372 C 0.05578 0.64102 0.32452 0.0
H7373 H 0.04806 0.64018 0.34594 0.0
C7374 C 0.06502 0.64114 0.32638 0.0
C7375 C 0.04956 0.6408 0.33163 0.0
C7376 C 0.03957 0.64052 0.32995 0.0
C7377 C 0.06822 0.64089 0.33516 0.0
C7378 C 0.06202 0.64038 0.34227 0.0
C7379 C 0.05278 0.64054 0.34045 0.0
C7380 C 0.06515 0.6392 0.35155 0.0
C7381 C 0.07823 0.64114 0.33678 0.0
C7382 C 0.06965 0.63133 0.35391 0.0
C7383 C 0.07351 0.63051 0.36234 0.0
C7384 C 0.07292 0.63755 0.3686 0.0
C7385 C 0.06799 0.64526 0.36639 0.0
C7386 C 0.06413 0.64608 0.35791 0.0
H7387 H 0.08192 0.64375 0.33092 0.0
H7388 H 0.07988 0.64537 0.34269 0.0
H7389 H 0.08065 0.63424 0.33808 0.0
H7390 H 0.07038 0.62589 0.34912 0.0
H7391 H 0.0771 0.62441 0.36391 0.0
H7392 H 0.63469 0.19978 1.00312 0.0
H7393 H 0.62899 0.19142 0.99023 0.0
H7394 H 0.60993 0.21246 0.98499 0.0
H7395 H 0.6155 0.22085 0.99802 0.0
H7396 H 0.61023 0.18596 0.98821 0.0
H7397 H 0.62255 0.20726 0.96044 0.0
H7398 H 0.62748 0.20771 0.97146 0.0
H7399 H 0.61673 0.21273 0.96948 0.0
C7400 C 0.62928 0.20264 0.99924 0.0
C7401 C 0.6255 0.21096 1.00164 0.0
C7402 C 0.62607 0.19787 0.99185 0.0
C7403 C 0.61908 0.20134 0.98665 0.0
C7404 C 0.61541 0.20973 0.98887 0.0
H7405 H 0.59422 0.17615 0.93948 0.0
H7406 H 0.59776 0.18676 0.95159 0.0
C7407 C 0.61862 0.21451 0.9963 0.0
C7408 C 0.61537 0.19589 0.97922 0.0
H7409 H 0.61437 0.19428 0.95651 0.0
C7410 C 0.61109 0.18779 0.98127 0.0
C7411 C 0.61642 0.19837 0.97021 0.0
C7412 C 0.62108 0.20696 0.9677 0.0
C7413 C 0.60796 0.182 0.97454 0.0
C7414 C 0.60935 0.18428 0.96551 0.0
C7415 C 0.61335 0.19253 0.96345 0.0
C7416 C 0.60717 0.17794 0.95816 0.0
C7417 C 0.60321 0.17348 0.97716 0.0
C7418 C 0.6114 0.16955 0.95777 0.0
C7419 C 0.60941 0.16351 0.95088 0.0
C7420 C 0.60319 0.16576 0.9442 0.0
C7421 C 0.59906 0.17424 0.94452 0.0
C7422 C 0.60105 0.18028 0.95143 0.0
H7423 H 0.60029 0.17404 0.98395 0.0
H7424 H 0.59777 0.17176 0.97236 0.0
H7425 H 0.60812 0.16789 0.9772 0.0
H7426 H 0.61631 0.1677 0.96275 0.0
H7427 H 0.61287 0.15713 0.95072 0.0
H7428 H 0.05506 0.38175 0.21526 0.0
H7429 H 0.058 0.38201 0.19925 0.0
H7430 H 0.04499 0.35632 0.19615 0.0
H7431 H 0.04201 0.35602 0.21223 0.0
H7432 H 0.06844 0.36898 0.19062 0.0
H7433 H 0.03433 0.37113 0.17555 0.0
H7434 H 0.03651 0.37394 0.1871 0.0
H7435 H 0.03599 0.36242 0.18359 0.0
C7436 C 0.05276 0.37618 0.21116 0.0
C7437 C 0.04836 0.36883 0.21501 0.0
C7438 C 0.05441 0.37636 0.20201 0.0
C7439 C 0.05167 0.36921 0.19651 0.0
C7440 C 0.04702 0.36198 0.20026 0.0
H7441 H 0.06619 0.3593 0.14056 0.0
H7442 H 0.05944 0.35783 0.15542 0.0
C7443 C 0.04534 0.36181 0.20944 0.0
C7444 C 0.05443 0.36905 0.18703 0.0
H7445 H 0.04659 0.36968 0.1656 0.0
C7446 C 0.06366 0.36912 0.18515 0.0
C7447 C 0.04817 0.36913 0.17992 0.0
C7448 C 0.03819 0.36922 0.18159 0.0
C7449 C 0.06681 0.36942 0.17637 0.0
C7450 C 0.06057 0.36978 0.16927 0.0
C7451 C 0.05133 0.36944 0.17109 0.0
C7452 C 0.06363 0.37098 0.15998 0.0
C7453 C 0.07681 0.36938 0.17475 0.0
C7454 C 0.06794 0.37895 0.15759 0.0
C7455 C 0.07177 0.37981 0.14916 0.0
C7456 C 0.07134 0.37271 0.14295 0.0
C7457 C 0.06661 0.36488 0.1452 0.0
C7458 C 0.06277 0.36403 0.15367 0.0
H7459 H 0.08059 0.3669 0.18063 0.0
H7460 H 0.07851 0.36514 0.16887 0.0
H7461 H 0.07909 0.37632 0.17339 0.0
H7462 H 0.06854 0.38444 0.16234 0.0
H7463 H 0.07521 0.38599 0.14756 0.0
H7464 H 0.89508 0.81063 0.50588 0.0
H7465 H 0.90024 0.81853 0.49264 0.0
H7466 H 0.88412 0.8011 0.47599 0.0
H7467 H 0.87872 0.79328 0.48927 0.0
H7468 H 0.90919 0.81197 0.47718 0.0
H7469 H 0.87575 0.82655 0.4693 0.0
H7470 H 0.87827 0.82161 0.47996 0.0
H7471 H 0.87609 0.81457 0.47042 0.0
C7472 C 0.89258 0.8085 0.49941 0.0
C7473 C 0.8864 0.8014 0.49863 0.0
C7474 C 0.89559 0.81298 0.49185 0.0
C7475 C 0.89246 0.81048 0.48336 0.0
C7476 C 0.88651 0.80322 0.48251 0.0
H7477 H 0.90042 0.83706 0.43236 0.0
H7478 H 0.89643 0.82622 0.44383 0.0
C7479 C 0.8835 0.79871 0.49008 0.0
C7480 C 0.89532 0.81565 0.47547 0.0
H7481 H 0.88762 0.82995 0.45955 0.0
C7482 C 0.90448 0.81587 0.47329 0.0
C7483 C 0.88915 0.82071 0.47041 0.0
C7484 C 0.87927 0.82094 0.47265 0.0
C7485 C 0.90764 0.82108 0.4662 0.0
C7486 C 0.9015 0.82631 0.46128 0.0
C7487 C 0.89231 0.82593 0.46334 0.0
C7488 C 0.90446 0.8325 0.45419 0.0
C7489 C 0.91752 0.82088 0.464 0.0
C7490 C 0.91029 0.83964 0.4562 0.0
C7491 C 0.91264 0.84581 0.44965 0.0
C7492 C 0.90914 0.845 0.44095 0.0
C7493 C 0.90335 0.8378 0.43894 0.0
C7494 C 0.90101 0.83163 0.44551 0.0
H7495 H 0.92078 0.8147 0.46653 0.0
H7496 H 0.91863 0.82128 0.4567 0.0
H7497 H 0.92088 0.82671 0.46723 0.0
H7498 H 0.91288 0.84055 0.46291 0.0
H7499 H 0.91716 0.85124 0.4514 0.0
H7500 H 0.46444 0.6478 0.71374 0.0
H7501 H 0.45929 0.64808 0.69829 0.0
H7502 H 0.4805 0.62989 0.69078 0.0
H7503 H 0.48544 0.6292 0.70632 0.0
H7504 H 0.46758 0.65307 0.68281 0.0
H7505 H 0.45838 0.61695 0.68146 0.0
H7506 H 0.46105 0.62267 0.69178 0.0
H7507 H 0.46988 0.61916 0.68437 0.0
C7508 C 0.46797 0.64378 0.70883 0.0
C7509 C 0.47528 0.63837 0.71131 0.0
C7510 C 0.46506 0.64402 0.69998 0.0
C7511 C 0.46941 0.63888 0.69341 0.0
C7512 C 0.47693 0.63375 0.69577 0.0
H7513 H 0.45353 0.63088 0.6375 0.0
H7514 H 0.46257 0.63166 0.6512 0.0
C7515 C 0.47981 0.63346 0.70465 0.0
C7516 C 0.46589 0.6388 0.68414 0.0
H7517 H 0.45635 0.62522 0.66829 0.0
C7518 C 0.46517 0.64697 0.67962 0.0
C7519 C 0.46274 0.63083 0.67999 0.0
C7520 C 0.46296 0.62191 0.68466 0.0
C7521 C 0.46128 0.64741 0.67109 0.0
C7522 C 0.45798 0.63948 0.66704 0.0
C7523 C 0.45893 0.63127 0.67143 0.0
C7524 C 0.45291 0.63962 0.65854 0.0
C7525 C 0.46067 0.65634 0.66651 0.0
C7526 C 0.44451 0.64384 0.65816 0.0
C7527 C 0.43934 0.64337 0.65039 0.0
C7528 C 0.44248 0.63868 0.64285 0.0
C7529 C 0.45099 0.63462 0.64318 0.0
C7530 C 0.45613 0.63502 0.651 0.0
H7531 H 0.46549 0.66128 0.66939 0.0
H7532 H 0.46199 0.65562 0.65925 0.0
H7533 H 0.45379 0.65907 0.66736 0.0
H7534 H 0.44186 0.6473 0.66396 0.0
H7535 H 0.43284 0.64662 0.65031 0.0
H7536 H 0.51411 0.60929 0.79084 0.0
H7537 H 0.52688 0.60334 0.79924 0.0
H7538 H 0.53328 0.62997 0.80869 0.0
H7539 H 0.52064 0.636 0.80018 0.0
H7540 H 0.54854 0.61919 0.80304 0.0
H7541 H 0.52605 0.6019 0.82701 0.0
H7542 H 0.52418 0.59948 0.81539 0.0
H7543 H 0.52209 0.61056 0.81965 0.0
C7544 C 0.51833 0.61389 0.79458 0.0
C7545 C 0.51634 0.62311 0.7949 0.0
C7546 C 0.52557 0.61047 0.79943 0.0
C7547 C 0.53093 0.6162 0.80467 0.0
C7548 C 0.52918 0.62544 0.80472 0.0
H7549 H 0.56482 0.60839 0.84993 0.0
H7550 H 0.55334 0.61231 0.83901 0.0
C7551 C 0.52193 0.62886 0.7999 0.0
C7552 C 0.53812 0.61258 0.81043 0.0
H7553 H 0.54163 0.60033 0.82924 0.0
C7554 C 0.54706 0.615 0.80872 0.0
C7555 C 0.53612 0.6072 0.81788 0.0
C7556 C 0.52659 0.60466 0.82018 0.0
C7557 C 0.55407 0.61224 0.81435 0.0
C7558 C 0.55206 0.60688 0.82182 0.0
C7559 C 0.54313 0.60439 0.82346 0.0
C7560 C 0.55903 0.60429 0.82836 0.0
C7561 C 0.56353 0.61531 0.81246 0.0
C7562 C 0.56597 0.59839 0.826 0.0
C7563 C 0.57252 0.59605 0.83227 0.0
C7564 C 0.57221 0.59956 0.84101 0.0
C7565 C 0.56519 0.60543 0.84333 0.0
C7566 C 0.55865 0.60773 0.83708 0.0
H7567 H 0.56372 0.62065 0.80734 0.0
H7568 H 0.56678 0.61787 0.81865 0.0
H7569 H 0.56753 0.60954 0.80999 0.0
H7570 H 0.5663 0.59557 0.81933 0.0
H7571 H 0.57777 0.59143 0.8303 0.0
H7572 H 0.64309 0.30186 0.02834 0.0
H7573 H 0.64363 0.31753 0.0334 0.0
H7574 H 0.63867 0.30912 0.06038 0.0
H7575 H 0.638 0.29353 0.0554 0.0
H7576 H 0.63024 0.32759 0.04241 0.0
H7577 H 0.6613 0.32488 0.06263 0.0
H7578 H 0.65811 0.31657 0.05438 0.0
H7579 H 0.65307 0.31652 0.06527 0.0
C7580 C 0.64207 0.30336 0.03534 0.0
C7581 C 0.64058 0.29643 0.04148 0.0
C7582 C 0.64243 0.3123 0.03822 0.0
C7583 C 0.64136 0.31445 0.04729 0.0
C7584 C 0.63974 0.30758 0.05339 0.0
H7585 H 0.62495 0.36091 0.07606 0.0
H7586 H 0.62627 0.34711 0.0673 0.0
C7587 C 0.63937 0.29866 0.05053 0.0
C7588 C 0.64166 0.32389 0.05041 0.0
H7589 H 0.6521 0.33776 0.0654 0.0
C7590 C 0.63509 0.32986 0.04735 0.0
C7591 C 0.64808 0.32688 0.05674 0.0
C7592 C 0.6556 0.32091 0.05989 0.0
C7593 C 0.63449 0.33862 0.0508 0.0
C7594 C 0.64055 0.34141 0.05756 0.0
C7595 C 0.6474 0.33558 0.06028 0.0
C7596 C 0.63957 0.3501 0.06232 0.0
C7597 C 0.62732 0.34477 0.04725 0.0
C7598 C 0.64666 0.35631 0.06254 0.0
C7599 C 0.64596 0.36418 0.06763 0.0
C7600 C 0.63819 0.36591 0.07267 0.0
C7601 C 0.63106 0.35973 0.07232 0.0
C7602 C 0.63175 0.35189 0.06722 0.0
H7603 H 0.62518 0.34275 0.04042 0.0
H7604 H 0.62135 0.34444 0.05164 0.0
H7605 H 0.6297 0.35183 0.04711 0.0
H7606 H 0.65278 0.355 0.05886 0.0
H7607 H 0.6516 0.36876 0.06784 0.0
H7608 H 0.99232 0.37554 0.29678 0.0
H7609 H 0.98138 0.38102 0.30766 0.0
H7610 H 0.97437 0.40268 0.29014 0.0
H7611 H 0.98543 0.39736 0.27926 0.0
H7612 H 0.98149 0.39879 0.31562 0.0
H7613 H 0.94987 0.39115 0.29719 0.0
H7614 H 0.96043 0.38585 0.29448 0.0
H7615 H 0.95835 0.39719 0.29117 0.0
C7616 C 0.98847 0.38148 0.29523 0.0
C7617 C 0.98978 0.38603 0.28715 0.0
C7618 C 0.98219 0.38457 0.30144 0.0
C7619 C 0.97704 0.39221 0.29966 0.0
C7620 C 0.9782 0.39669 0.29156 0.0
H7621 H 0.93595 0.41936 0.33132 0.0
H7622 H 0.94662 0.41513 0.31961 0.0
C7623 C 0.9845 0.39362 0.28535 0.0
C7624 C 0.97074 0.39567 0.30649 0.0
H7625 H 0.9485 0.39885 0.31094 0.0
C7626 C 0.97427 0.39881 0.31461 0.0
C7627 C 0.96135 0.39574 0.30509 0.0
C7628 C 0.95722 0.39225 0.29655 0.0
C7629 C 0.96866 0.40204 0.32141 0.0
C7630 C 0.95924 0.40193 0.32011 0.0
C7631 C 0.95571 0.39892 0.31192 0.0
C7632 C 0.95293 0.40464 0.32727 0.0
C7633 C 0.97287 0.40565 0.32987 0.0
C7634 C 0.95288 0.40009 0.33542 0.0
C7635 C 0.94681 0.40249 0.34211 0.0
C7636 C 0.9406 0.40944 0.34075 0.0
C7637 C 0.94062 0.41395 0.33255 0.0
C7638 C 0.94672 0.41156 0.32587 0.0
H7639 H 0.97994 0.40775 0.32879 0.0
H7640 H 0.96905 0.41147 0.33254 0.0
H7641 H 0.97288 0.40032 0.33499 0.0
H7642 H 0.95745 0.39457 0.33656 0.0
H7643 H 0.94684 0.39876 0.34828 0.0
H7644 H 0.86239 0.71251 0.52823 0.0
H7645 H 0.86145 0.69708 0.53371 0.0
H7646 H 0.87813 0.70431 0.5562 0.0
H7647 H 0.87909 0.71967 0.5508 0.0
H7648 H 0.87493 0.68445 0.53744 0.0
H7649 H 0.85597 0.69345 0.56797 0.0
H7650 H 0.85721 0.70104 0.55874 0.0
H7651 H 0.86611 0.69984 0.56679 0.0
C7652 C 0.8659 0.71078 0.53431 0.0
C7653 C 0.87072 0.71733 0.53915 0.0
C7654 C 0.86533 0.70198 0.53744 0.0
C7655 C 0.86955 0.69962 0.54546 0.0
C7656 C 0.87461 0.70606 0.55013 0.0
H7657 H 0.88387 0.654 0.57542 0.0
H7658 H 0.88249 0.66803 0.56724 0.0
C7659 C 0.87516 0.71483 0.54703 0.0
C7660 C 0.86875 0.69042 0.54902 0.0
H7661 H 0.86286 0.67893 0.56772 0.0
C7662 C 0.87217 0.68321 0.54399 0.0
C7663 C 0.86506 0.68881 0.55755 0.0
C7664 C 0.86079 0.69618 0.56304 0.0
C7665 C 0.8724 0.6745 0.54749 0.0
C7666 C 0.86914 0.67303 0.55619 0.0
C7667 C 0.8654 0.68014 0.56107 0.0
C7668 C 0.87012 0.66429 0.56061 0.0
C7669 C 0.87642 0.66697 0.54207 0.0
C7670 C 0.86362 0.65756 0.55952 0.0
C7671 C 0.86434 0.64954 0.56425 0.0
C7672 C 0.87156 0.64818 0.57016 0.0
C7673 C 0.87815 0.6549 0.57105 0.0
C7674 C 0.87741 0.66289 0.56634 0.0
H7675 H 0.87851 0.66917 0.53532 0.0
H7676 H 0.88235 0.66423 0.54561 0.0
H7677 H 0.87145 0.66145 0.54134 0.0
H7678 H 0.85792 0.65859 0.55514 0.0
H7679 H 0.85913 0.64453 0.56347 0.0
H7680 H 0.51997 0.37772 0.71515 0.0
H7681 H 0.53107 0.3831 0.70448 0.0
H7682 H 0.53843 0.40449 0.72259 0.0
H7683 H 0.52719 0.39926 0.73328 0.0
H7684 H 0.53137 0.40105 0.69703 0.0
H7685 H 0.56272 0.39242 0.71533 0.0
H7686 H 0.55203 0.38727 0.71781 0.0
H7687 H 0.5543 0.39853 0.72145 0.0
C7688 C 0.52392 0.38359 0.71687 0.0
C7689 C 0.52265 0.38809 0.72506 0.0
C7690 C 0.53029 0.38662 0.71078 0.0
C7691 C 0.53559 0.39414 0.71278 0.0
C7692 C 0.53448 0.39858 0.72099 0.0
H7693 H 0.57775 0.41943 0.68107 0.0
H7694 H 0.56702 0.41589 0.69291 0.0
C7695 C 0.52807 0.39557 0.72709 0.0
C7696 C 0.54201 0.39752 0.70608 0.0
H7697 H 0.56435 0.39984 0.70161 0.0
C7698 C 0.53858 0.40081 0.69802 0.0
C7699 C 0.55139 0.39727 0.70746 0.0
C7700 C 0.55538 0.39363 0.71594 0.0
C7701 C 0.54431 0.40381 0.69126 0.0
C7702 C 0.55372 0.4033 0.69252 0.0
C7703 C 0.55714 0.4002 0.70066 0.0
C7704 C 0.56011 0.40558 0.68531 0.0
C7705 C 0.54023 0.40756 0.68286 0.0
C7706 C 0.55984 0.40088 0.67717 0.0
C7707 C 0.56594 0.40288 0.67041 0.0
C7708 C 0.5725 0.40957 0.67169 0.0
C7709 C 0.57281 0.41421 0.67989 0.0
C7710 C 0.56667 0.41222 0.68665 0.0
H7711 H 0.53329 0.41002 0.68403 0.0
H7712 H 0.54433 0.41315 0.68022 0.0
H7713 H 0.53989 0.40219 0.6777 0.0
H7714 H 0.55499 0.39557 0.67608 0.0
H7715 H 0.56565 0.39905 0.66426 0.0
H7716 H 0.87761 0.29512 0.97281 0.0
H7717 H 0.87778 0.31141 0.97091 0.0
H7718 H 0.85626 0.30918 0.95171 0.0
H7719 H 0.85579 0.29302 0.95385 0.0
H7720 H 0.88165 0.32005 0.95578 0.0
H7721 H 0.84762 0.32997 0.96656 0.0
H7722 H 0.85232 0.31912 0.96906 0.0
H7723 H 0.84715 0.32114 0.95839 0.0
C7724 C 0.87277 0.29813 0.96835 0.0
C7725 C 0.86671 0.29276 0.96346 0.0
C7726 C 0.8729 0.30743 0.96724 0.0
C7727 C 0.86695 0.31154 0.96127 0.0
C7728 C 0.86078 0.30621 0.95651 0.0
H7729 H 0.86239 0.35781 0.92969 0.0
H7730 H 0.86118 0.34358 0.9376 0.0
C7731 C 0.86061 0.29693 0.95764 0.0
C7732 C 0.86769 0.32125 0.95932 0.0
H7733 H 0.85522 0.34024 0.95666 0.0
C7734 C 0.87592 0.32452 0.95616 0.0
C7735 C 0.86022 0.32708 0.95984 0.0
C7736 C 0.85136 0.32417 0.96374 0.0
C7737 C 0.87674 0.33331 0.95301 0.0
C7738 C 0.86914 0.33897 0.95307 0.0
C7739 C 0.86101 0.33584 0.95659 0.0
C7740 C 0.86934 0.34785 0.9488 0.0
C7741 C 0.8856 0.33636 0.94921 0.0
C7742 C 0.8742 0.355 0.9526 0.0
C7743 C 0.87489 0.36315 0.9481 0.0
C7744 C 0.87079 0.36423 0.93972 0.0
C7745 C 0.86571 0.35713 0.93609 0.0
C7746 C 0.86497 0.34903 0.94061 0.0
H7747 H 0.89057 0.33084 0.94877 0.0
H7748 H 0.88458 0.33917 0.94244 0.0
H7749 H 0.88844 0.34176 0.9535 0.0
H7750 H 0.87758 0.3542 0.95894 0.0
H7751 H 0.87888 0.36849 0.95103 0.0
H7752 H 0.99894 0.61477 0.21701 0.0
H7753 H 0.98722 0.61015 0.20647 0.0
H7754 H 0.96776 0.62571 0.22115 0.0
H7755 H 0.97949 0.63052 0.23164 0.0
H7756 H 0.97053 0.6011 0.21004 0.0
H7757 H 0.96569 0.63475 0.19509 0.0
H7758 H 0.97546 0.63196 0.20165 0.0
H7759 H 0.96496 0.63428 0.20705 0.0
C7760 C 0.99218 0.61726 0.21796 0.0
C7761 C 0.99015 0.62308 0.22512 0.0
C7762 C 0.98549 0.61457 0.21197 0.0
C7763 C 0.97666 0.61767 0.21298 0.0
C7764 C 0.97456 0.62334 0.2202 0.0
H7765 H 0.92924 0.61125 0.17954 0.0
H7766 H 0.9397 0.61498 0.1916 0.0
C7767 C 0.98125 0.62602 0.22622 0.0
C7768 C 0.96969 0.615 0.20642 0.0
H7769 H 0.95609 0.62317 0.19006 0.0
C7770 C 0.96735 0.60591 0.20567 0.0
C7771 C 0.96557 0.62131 0.20075 0.0
C7772 C 0.96807 0.63112 0.20109 0.0
C7773 C 0.96093 0.60296 0.19943 0.0
C7774 C 0.9569 0.60926 0.19367 0.0
C7775 C 0.95918 0.61836 0.19449 0.0
C7776 C 0.95041 0.60655 0.18662 0.0
C7777 C 0.95842 0.59316 0.19916 0.0
C7778 C 0.95297 0.60058 0.17981 0.0
C7779 C 0.94697 0.59836 0.17295 0.0
C7780 C 0.93832 0.60213 0.17272 0.0
C7781 C 0.93578 0.6081 0.17959 0.0
C7782 C 0.94178 0.6103 0.18645 0.0
H7783 H 0.96007 0.5898 0.20554 0.0
H7784 H 0.95115 0.59226 0.19776 0.0
H7785 H 0.96226 0.58977 0.19377 0.0
H7786 H 0.95966 0.59775 0.1797 0.0
H7787 H 0.94913 0.59369 0.16781 0.0
H7788 H 0.63766 0.71772 0.45432 0.0
H7789 H 0.63807 0.7022 0.44906 0.0
H7790 H 0.64443 0.69339 0.47565 0.0
H7791 H 0.64413 0.70897 0.48098 0.0
H7792 H 0.65241 0.68983 0.44991 0.0
H7793 H 0.62231 0.67814 0.46844 0.0
H7794 H 0.6248 0.68988 0.46691 0.0
H7795 H 0.63094 0.68351 0.47499 0.0
C7796 C 0.63924 0.71251 0.45905 0.0
C7797 C 0.64088 0.71459 0.46807 0.0
C7798 C 0.63942 0.70363 0.45604 0.0
C7799 C 0.64119 0.69665 0.46198 0.0
C7800 C 0.6429 0.69868 0.47098 0.0
H7801 H 0.65176 0.64213 0.44179 0.0
H7802 H 0.65301 0.65615 0.45035 0.0
C7803 C 0.64272 0.70757 0.47401 0.0
C7804 C 0.64127 0.68728 0.45865 0.0
H7805 H 0.62983 0.66745 0.45954 0.0
C7806 C 0.64753 0.6849 0.45206 0.0
C7807 C 0.63484 0.68091 0.46144 0.0
C7808 C 0.62778 0.68321 0.46829 0.0
C7809 C 0.64744 0.67637 0.44806 0.0
C7810 C 0.64098 0.67001 0.45081 0.0
C7811 C 0.63482 0.67233 0.45751 0.0
C7812 C 0.64004 0.6612 0.44628 0.0
C7813 C 0.65401 0.67434 0.44066 0.0
C7814 C 0.63221 0.65928 0.4414 0.0
C7815 C 0.63144 0.65127 0.43658 0.0
C7816 C 0.63849 0.645 0.43655 0.0
C7817 C 0.64621 0.6468 0.4417 0.0
C7818 C 0.64697 0.65484 0.44653 0.0
H7819 H 0.65735 0.6805 0.43819 0.0
H7820 H 0.65928 0.66976 0.44317 0.0
H7821 H 0.65057 0.67097 0.43497 0.0
H7822 H 0.62676 0.66408 0.44117 0.0
H7823 H 0.62535 0.65001 0.43281 0.0
H7824 H 0.79291 0.51608 0.61256 0.0
H7825 H 0.80131 0.52882 0.6066 0.0
H7826 H 0.81121 0.5351 0.63297 0.0
H7827 H 0.8027 0.5225 0.63902 0.0
H7828 H 0.80542 0.55038 0.62254 0.0
H7829 H 0.82922 0.5279 0.60456 0.0
H7830 H 0.81748 0.52608 0.60236 0.0
H7831 H 0.82192 0.52394 0.61328 0.0
C7832 C 0.79675 0.52027 0.61712 0.0
C7833 C 0.79719 0.51825 0.62625 0.0
C7834 C 0.8016 0.52749 0.61369 0.0
C7835 C 0.80696 0.53281 0.61933 0.0
C7836 C 0.80714 0.53104 0.6285 0.0
H7837 H 0.85245 0.56653 0.61068 0.0
H7838 H 0.84154 0.55507 0.61475 0.0
C7839 C 0.80232 0.52381 0.63193 0.0
C7840 C 0.81272 0.53997 0.61567 0.0
H7841 H 0.83144 0.54344 0.60305 0.0
C7842 C 0.81107 0.54889 0.61821 0.0
C7843 C 0.82013 0.53796 0.61012 0.0
C7844 C 0.82238 0.52845 0.60745 0.0
C7845 C 0.8167 0.55587 0.61539 0.0
C7846 C 0.82411 0.55386 0.60985 0.0
C7847 C 0.8257 0.54495 0.60724 0.0
C7848 C 0.83064 0.56081 0.60716 0.0
C7849 C 0.81487 0.56531 0.61859 0.0
C7850 C 0.82814 0.56777 0.60144 0.0
C7851 C 0.8344 0.57432 0.59902 0.0
C7852 C 0.84328 0.57398 0.60226 0.0
C7853 C 0.84574 0.56692 0.60793 0.0
C7854 C 0.83949 0.56039 0.61032 0.0
H7855 H 0.80984 0.5655 0.62405 0.0
H7856 H 0.82116 0.56855 0.62097 0.0
H7857 H 0.81223 0.56931 0.61295 0.0
H7858 H 0.82137 0.56812 0.59883 0.0
H7859 H 0.83232 0.57959 0.59455 0.0
H7860 H 0.29128 0.99269 0.39497 0.0
H7861 H 0.29973 0.97977 0.40053 0.0
H7862 H 0.32 0.98409 0.38055 0.0
H7863 H 0.31156 0.99684 0.37484 0.0
H7864 H 0.30662 0.9636 0.39051 0.0
H7865 H 0.33316 0.98521 0.40553 0.0
H7866 H 0.32213 0.98937 0.40272 0.0
H7867 H 0.33035 0.98764 0.39414 0.0
C7868 C 0.29746 0.9908 0.39167 0.0
C7869 C 0.3008 0.99586 0.38452 0.0
C7870 C 0.30229 0.98345 0.39488 0.0
C7871 C 0.31054 0.9811 0.39103 0.0
C7872 C 0.31372 0.98592 0.3837 0.0
H7873 H 0.35417 0.9448 0.39761 0.0
H7874 H 0.34356 0.95659 0.39373 0.0
C7875 C 0.3089 0.99322 0.38047 0.0
C7876 C 0.31601 0.97376 0.39475 0.0
H7877 H 0.3362 0.96962 0.40468 0.0
C7878 C 0.31305 0.96488 0.3937 0.0
C7879 C 0.32436 0.9755 0.39892 0.0
C7880 C 0.32769 0.98495 0.40048 0.0
C7881 C 0.31843 0.95765 0.39637 0.0
C7882 C 0.3269 0.9594 0.40034 0.0
C7883 C 0.32972 0.9683 0.40162 0.0
C7884 C 0.3332 0.95212 0.40277 0.0
C7885 C 0.31519 0.94822 0.39459 0.0
C7886 C 0.33093 0.94574 0.4092 0.0
C7887 C 0.33701 0.93897 0.41145 0.0
C7888 C 0.3455 0.93855 0.40736 0.0
C7889 C 0.34775 0.94501 0.40098 0.0
C7890 C 0.34167 0.95173 0.39872 0.0
H7891 H 0.30953 0.94805 0.38975 0.0
H7892 H 0.32072 0.94397 0.39196 0.0
H7893 H 0.31282 0.94525 0.40092 0.0
H7894 H 0.3245 0.94603 0.41255 0.0
H7895 H 0.33512 0.93415 0.41647 0.0
H7896 H 0.29554 0.06018 0.65486 0.0
H7897 H 0.31183 0.06178 0.65447 0.0
H7898 H 0.31368 0.03873 0.63701 0.0
H7899 H 0.29729 0.03732 0.63704 0.0
H7900 H 0.32563 0.05044 0.65914 0.0
H7901 H 0.32658 0.05797 0.62285 0.0
H7902 H 0.31624 0.05779 0.62908 0.0
H7903 H 0.32153 0.04747 0.62578 0.0
C7904 C 0.29939 0.05548 0.65087 0.0
C7905 C 0.29509 0.04872 0.64586 0.0
C7906 C 0.30872 0.05635 0.65073 0.0
C7907 C 0.31396 0.05047 0.64559 0.0
C7908 C 0.30975 0.04345 0.64088 0.0
H7909 H 0.3716 0.05866 0.63507 0.0
H7910 H 0.35711 0.0509 0.63654 0.0
C7911 C 0.30038 0.0426 0.64099 0.0
C7912 C 0.32378 0.05199 0.64499 0.0
H7913 H 0.34025 0.05858 0.63064 0.0
C7914 C 0.32885 0.05212 0.6529 0.0
C7915 C 0.32798 0.05415 0.63682 0.0
C7916 C 0.32282 0.05442 0.62815 0.0
C7917 C 0.33793 0.05465 0.6529 0.0
C7918 C 0.34201 0.05718 0.6448 0.0
C7919 C 0.33708 0.05662 0.63683 0.0
C7920 C 0.35102 0.06135 0.64457 0.0
C7921 C 0.34305 0.05481 0.66159 0.0
C7922 C 0.35235 0.06977 0.6486 0.0
C7923 C 0.36054 0.07421 0.64771 0.0
C7924 C 0.36757 0.07032 0.64279 0.0
C7925 C 0.36631 0.06177 0.63895 0.0
C7926 C 0.35806 0.05735 0.63977 0.0
H7927 H 0.33988 0.05038 0.66662 0.0
H7928 H 0.35012 0.05268 0.66059 0.0
H7929 H 0.34309 0.06174 0.66432 0.0
H7930 H 0.34696 0.07302 0.65221 0.0
H7931 H 0.36135 0.08076 0.65079 0.0
H7932 H 0.22922 0.03212 0.87788 0.0
H7933 H 0.21878 0.04396 0.88251 0.0
H7934 H 0.20411 0.02492 0.89832 0.0
H7935 H 0.21459 0.01311 0.89389 0.0
H7936 H 0.19983 0.04387 0.8797 0.0
H7937 H 0.20851 0.04609 0.91569 0.0
H7938 H 0.21579 0.04086 0.90756 0.0
H7939 H 0.20614 0.03496 0.91167 0.0
C7940 C 0.22385 0.03049 0.88245 0.0
C7941 C 0.22273 0.02168 0.88552 0.0
C7942 C 0.21787 0.03724 0.88505 0.0
C7943 C 0.21075 0.03533 0.89084 0.0
C7944 C 0.20965 0.02656 0.89396 0.0
H7945 H 0.16512 0.06386 0.91246 0.0
H7946 H 0.17681 0.053 0.90862 0.0
C7947 C 0.21559 0.01981 0.89134 0.0
C7948 C 0.2042 0.04238 0.8933 0.0
H7949 H 0.19536 0.05379 0.91105 0.0
C7950 C 0.19889 0.04611 0.88654 0.0
C7951 C 0.20297 0.04522 0.90223 0.0
C7952 C 0.2087 0.04164 0.90971 0.0
C7953 C 0.19222 0.05246 0.8885 0.0
C7954 C 0.19097 0.05529 0.89745 0.0
C7955 C 0.19633 0.05161 0.9042 0.0
C7956 C 0.18405 0.06198 0.89994 0.0
C7957 C 0.18639 0.05586 0.88102 0.0
C7958 C 0.18434 0.07068 0.89647 0.0
C7959 C 0.17762 0.07687 0.89858 0.0
C7960 C 0.17052 0.07451 0.90428 0.0
C7961 C 0.1704 0.06585 0.90794 0.0
C7962 C 0.17711 0.05966 0.9058 0.0
H7963 H 0.18662 0.05136 0.87508 0.0
H7964 H 0.17929 0.05653 0.88319 0.0
H7965 H 0.18881 0.06257 0.87898 0.0
H7966 H 0.18973 0.07266 0.89206 0.0
H7967 H 0.17789 0.08344 0.89558 0.0
H7968 H 0.71572 0.46405 0.62968 0.0
H7969 H 0.70034 0.45844 0.63052 0.0
H7970 H 0.69387 0.47909 0.64975 0.0
H7971 H 0.7093 0.48479 0.64891 0.0
H7972 H 0.69196 0.45193 0.64551 0.0
H7973 H 0.67322 0.48098 0.63182 0.0
H7974 H 0.68521 0.47977 0.63058 0.0
H7975 H 0.68058 0.48349 0.64102 0.0
C7976 C 0.71102 0.46741 0.63408 0.0
C7977 C 0.71372 0.47485 0.63926 0.0
C7978 C 0.70223 0.46422 0.63452 0.0
C7979 C 0.69594 0.46839 0.64013 0.0
C7980 C 0.69856 0.47588 0.64524 0.0
H7981 H 0.6413 0.44928 0.65173 0.0
H7982 H 0.65541 0.4578 0.65242 0.0
C7983 C 0.70738 0.47912 0.64477 0.0
C7984 C 0.68679 0.46455 0.64089 0.0
H7985 H 0.66458 0.46871 0.63686 0.0
C7986 C 0.68598 0.45562 0.64366 0.0
C7987 C 0.67899 0.4694 0.63851 0.0
C7988 C 0.6795 0.47892 0.63525 0.0
C7989 C 0.6776 0.45135 0.64394 0.0
C7990 C 0.66984 0.45611 0.64136 0.0
C7991 C 0.67058 0.46512 0.63885 0.0
C7992 C 0.66105 0.45157 0.64063 0.0
C7993 C 0.67708 0.44172 0.64689 0.0
C7994 C 0.65953 0.44543 0.63367 0.0
C7995 C 0.6515 0.44063 0.63321 0.0
C7996 C 0.64483 0.44184 0.63974 0.0
C7997 C 0.64627 0.44822 0.64657 0.0
C7998 C 0.65433 0.45307 0.647 0.0
H7999 H 0.68335 0.43953 0.65025 0.0
H8000 H 0.67134 0.44075 0.65151 0.0
H8001 H 0.67595 0.43734 0.64097 0.0
H8002 H 0.66463 0.44427 0.62865 0.0
H8003 H 0.65054 0.43593 0.62775 0.0
H8004 H 0.71531 0.49749 0.11676 0.0
H8005 H 0.70482 0.48549 0.11276 0.0
H8006 H 0.71901 0.46737 0.13003 0.0
H8007 H 0.72941 0.47942 0.13427 0.0
H8008 H 0.70824 0.46842 0.10506 0.0
H8009 H 0.69282 0.46583 0.13867 0.0
H8010 H 0.69965 0.47525 0.13544 0.0
H8011 H 0.70484 0.46484 0.13843 0.0
C8012 C 0.71617 0.49097 0.11977 0.0
C8013 C 0.72315 0.48944 0.1259 0.0
C8014 C 0.7102 0.48411 0.11742 0.0
C8015 C 0.71107 0.47559 0.1212 0.0
C8016 C 0.71815 0.47395 0.12716 0.0
H8017 H 0.67813 0.4275 0.11712 0.0
H8018 H 0.6901 0.43832 0.12031 0.0
C8019 C 0.72413 0.48081 0.1295 0.0
C8020 C 0.7045 0.46846 0.11892 0.0
H8021 H 0.68809 0.45528 0.1278 0.0
C8022 C 0.70383 0.46554 0.11002 0.0
C8023 C 0.69877 0.46472 0.12542 0.0
C8024 C 0.69897 0.46785 0.13502 0.0
C8025 C 0.69761 0.45891 0.10745 0.0
C8026 C 0.69182 0.45523 0.11394 0.0
C8027 C 0.69256 0.4581 0.12285 0.0
C8028 C 0.68482 0.44854 0.11161 0.0
C8029 C 0.69739 0.45581 0.09785 0.0
C8030 C 0.67787 0.45071 0.10567 0.0
C8031 C 0.67106 0.44452 0.10378 0.0
C8032 C 0.67103 0.43606 0.10784 0.0
C8033 C 0.67803 0.4339 0.11377 0.0
C8034 C 0.68483 0.4401 0.11565 0.0
H8035 H 0.70376 0.4574 0.09435 0.0
H8036 H 0.69617 0.44848 0.09736 0.0
H8037 H 0.69185 0.45929 0.09433 0.0
H8038 H 0.67764 0.45725 0.1026 0.0
H8039 H 0.66581 0.44637 0.09914 0.0
H8040 H 0.29657 0.96719 0.85504 0.0
H8041 H 0.31276 0.96407 0.85512 0.0
H8042 H 0.31066 0.95383 0.88184 0.0
H8043 H 0.29454 0.95692 0.88182 0.0
H8044 H 0.3273 0.96925 0.86717 0.0
H8045 H 0.32058 0.93265 0.86677 0.0
H8046 H 0.31207 0.94082 0.86416 0.0
H8047 H 0.31497 0.93862 0.87558 0.0
C8048 C 0.2996 0.96441 0.86098 0.0
C8049 C 0.29428 0.96218 0.86838 0.0
C8050 C 0.30883 0.96262 0.86101 0.0
C8051 C 0.31284 0.95857 0.86842 0.0
C8052 C 0.30764 0.95679 0.87598 0.0
H8053 H 0.36284 0.93594 0.88443 0.0
H8054 H 0.34797 0.9427 0.88321 0.0
C8055 C 0.29844 0.95854 0.87596 0.0
C8056 C 0.32236 0.95572 0.86815 0.0
H8057 H 0.33561 0.93717 0.86967 0.0
C8058 C 0.32915 0.96224 0.86764 0.0
C8059 C 0.32471 0.94657 0.86867 0.0
C8060 C 0.31771 0.93924 0.86874 0.0
C8061 C 0.33827 0.95983 0.86803 0.0
C8062 C 0.34059 0.95069 0.86887 0.0
C8063 C 0.3338 0.94418 0.86911 0.0
C8064 C 0.35 0.94764 0.86984 0.0
C8065 C 0.34535 0.96706 0.86786 0.0
C8066 C 0.35611 0.94831 0.86277 0.0
C8067 C 0.36464 0.9444 0.86344 0.0
C8068 C 0.36711 0.93971 0.87116 0.0
C8069 C 0.36107 0.93938 0.87834 0.0
C8070 C 0.3526 0.94328 0.87768 0.0
H8071 H 0.34243 0.97385 0.86878 0.0
H8072 H 0.35045 0.96593 0.87315 0.0
H8073 H 0.34885 0.96685 0.86133 0.0
H8074 H 0.35418 0.95153 0.85662 0.0
H8075 H 0.36912 0.94471 0.85778 0.0
H8076 H 0.21671 0.04605 0.38132 0.0
H8077 H 0.20117 0.05115 0.38033 0.0
H8078 H 0.19557 0.03059 0.36068 0.0
H8079 H 0.21117 0.02541 0.36169 0.0
H8080 H 0.19287 0.05761 0.36524 0.0
H8081 H 0.1747 0.02784 0.37816 0.0
H8082 H 0.18663 0.02939 0.37968 0.0
H8083 H 0.18228 0.0257 0.36908 0.0
C8084 C 0.21217 0.0426 0.3768 0.0
C8085 C 0.21517 0.03536 0.37155 0.0
C8086 C 0.20329 0.04549 0.37627 0.0
C8087 C 0.1972 0.04121 0.37048 0.0
C8088 C 0.20012 0.03388 0.36531 0.0
H8089 H 0.14227 0.05941 0.35846 0.0
H8090 H 0.1565 0.05112 0.35775 0.0
C8091 C 0.20902 0.03094 0.36588 0.0
C8092 C 0.18796 0.04479 0.3696 0.0
H8093 H 0.16583 0.03999 0.37327 0.0
C8094 C 0.18696 0.05373 0.36694 0.0
C8095 C 0.18026 0.0397 0.37179 0.0
C8096 C 0.18097 0.03014 0.37491 0.0
C8097 C 0.17849 0.05779 0.36661 0.0
C8098 C 0.17083 0.05279 0.36904 0.0
C8099 C 0.17175 0.04377 0.37141 0.0
C8100 C 0.16194 0.05712 0.36978 0.0
C8101 C 0.17777 0.06746 0.36382 0.0
C8102 C 0.16028 0.06304 0.37688 0.0
C8103 C 0.15219 0.06772 0.37734 0.0
C8104 C 0.14561 0.06659 0.37067 0.0
C8105 C 0.14718 0.0604 0.36371 0.0
C8106 C 0.1553 0.05568 0.36328 0.0
H8107 H 0.18401 0.06986 0.36058 0.0
H8108 H 0.17204 0.06836 0.35916 0.0
H8109 H 0.1765 0.07171 0.3698 0.0
H8110 H 0.16532 0.06416 0.38199 0.0
H8111 H 0.15113 0.07228 0.38289 0.0
H8112 H 0.40751 0.2144 0.46512 0.0
H8113 H 0.40686 0.21192 0.44897 0.0
H8114 H 0.37843 0.20668 0.45077 0.0
H8115 H 0.37902 0.20924 0.46688 0.0
H8116 H 0.40227 0.1965 0.44074 0.0
H8117 H 0.37921 0.2233 0.42971 0.0
H8118 H 0.38435 0.22334 0.44062 0.0
H8119 H 0.37451 0.21664 0.43844 0.0
C8120 C 0.40111 0.21281 0.46205 0.0
C8121 C 0.39331 0.21202 0.46726 0.0
C8122 C 0.40074 0.21143 0.45282 0.0
C8123 C 0.39257 0.20925 0.44863 0.0
C8124 C 0.38476 0.2086 0.4538 0.0
H8125 H 0.37571 0.1858 0.39905 0.0
H8126 H 0.37702 0.19267 0.41385 0.0
C8127 C 0.38511 0.21004 0.46302 0.0
C8128 C 0.39237 0.20686 0.43901 0.0
H8129 H 0.38165 0.21118 0.41934 0.0
C8130 C 0.39786 0.1998 0.43603 0.0
C8131 C 0.3866 0.21116 0.43288 0.0
C8132 C 0.3809 0.21909 0.43555 0.0
C8133 C 0.39751 0.19672 0.42718 0.0
C8134 C 0.39156 0.20086 0.42112 0.0
C8135 C 0.38619 0.20802 0.42403 0.0
C8136 C 0.39055 0.19752 0.41186 0.0
C8137 C 0.40325 0.18884 0.42444 0.0
C8138 C 0.39766 0.19818 0.40577 0.0
C8139 C 0.39691 0.19432 0.39727 0.0
C8140 C 0.38904 0.18973 0.39471 0.0
C8141 C 0.38183 0.18937 0.40075 0.0
C8142 C 0.38257 0.19325 0.40923 0.0
H8143 H 0.40626 0.18541 0.43027 0.0
H8144 H 0.39924 0.18389 0.42054 0.0
H8145 H 0.40879 0.19122 0.42012 0.0
H8146 H 0.40383 0.20156 0.40766 0.0
H8147 H 0.40254 0.19486 0.39274 0.0
H8148 H 0.55022 0.62188 0.24042 0.0
H8149 H 0.55844 0.62858 0.22803 0.0
H8150 H 0.54842 0.65468 0.23549 0.0
H8151 H 0.54031 0.64805 0.24803 0.0
H8152 H 0.5523 0.63959 0.21337 0.0
H8153 H 0.57632 0.65706 0.23616 0.0
H8154 H 0.56916 0.64806 0.23985 0.0
H8155 H 0.56456 0.65902 0.2381 0.0
C8156 C 0.54976 0.62904 0.23942 0.0
C8157 C 0.54469 0.63445 0.24525 0.0
C8158 C 0.5544 0.63285 0.23231 0.0
C8159 C 0.55411 0.64213 0.23093 0.0
C8160 C 0.54879 0.64751 0.23652 0.0
H8161 H 0.58051 0.66692 0.1846 0.0
H8162 H 0.56929 0.66359 0.19612 0.0
C8163 C 0.54411 0.64371 0.24362 0.0
C8164 C 0.55973 0.64615 0.22389 0.0
H8165 H 0.57863 0.6587 0.22076 0.0
C8166 C 0.558 0.64386 0.21495 0.0
C8167 C 0.56719 0.65164 0.22602 0.0
C8168 C 0.5695 0.65407 0.23555 0.0
C8169 C 0.56365 0.6468 0.20808 0.0
C8170 C 0.57118 0.65219 0.21023 0.0
C8171 C 0.5728 0.65463 0.21915 0.0
C8172 C 0.57794 0.65462 0.20345 0.0
C8173 C 0.56177 0.64382 0.19862 0.0
C8174 C 0.58654 0.65085 0.20391 0.0
C8175 C 0.59292 0.65274 0.1974 0.0
C8176 C 0.59084 0.65849 0.19031 0.0
C8177 C 0.58229 0.66248 0.19 0.0
C8178 C 0.57588 0.66054 0.19652 0.0
H8179 H 0.55642 0.63863 0.19825 0.0
H8180 H 0.55959 0.64967 0.19465 0.0
H8181 H 0.56796 0.64109 0.1955 0.0
H8182 H 0.58827 0.6463 0.20925 0.0
H8183 H 0.59949 0.64967 0.19789 0.0
H8184 H 0.10775 0.79829 0.96895 0.0
H8185 H 0.10757 0.80365 0.95359 0.0
H8186 H 0.12961 0.78609 0.94708 0.0
H8187 H 0.13 0.78082 0.9625 0.0
H8188 H 0.12329 0.81183 0.94514 0.0
H8189 H 0.11033 0.78183 0.92688 0.0
H8190 H 0.1085 0.78356 0.93868 0.0
H8191 H 0.11931 0.78007 0.93472 0.0
C8192 C 0.11257 0.79556 0.96426 0.0
C8193 C 0.11893 0.78916 0.96698 0.0
C8194 C 0.11241 0.79859 0.95548 0.0
C8195 C 0.11853 0.79521 0.94921 0.0
C8196 C 0.12474 0.78867 0.9518 0.0
H8197 H 0.12847 0.80922 0.89376 0.0
H8198 H 0.12841 0.80199 0.90836 0.0
C8199 C 0.12494 0.78566 0.96061 0.0
C8200 C 0.11878 0.79903 0.94014 0.0
H8201 H 0.11469 0.79424 0.9182 0.0
C8202 C 0.1214 0.808 0.93924 0.0
C8203 C 0.1164 0.79396 0.93249 0.0
C8204 C 0.11342 0.78433 0.93318 0.0
C8205 C 0.12173 0.81207 0.93085 0.0
C8206 C 0.11913 0.80708 0.9232 0.0
C8207 C 0.11663 0.79805 0.92409 0.0
C8208 C 0.11886 0.8112 0.91424 0.0
C8209 C 0.125 0.82162 0.93027 0.0
C8210 C 0.11335 0.81864 0.91265 0.0
C8211 C 0.11346 0.82285 0.90438 0.0
C8212 C 0.11898 0.81963 0.89746 0.0
C8213 C 0.12425 0.81197 0.89898 0.0
C8214 C 0.12418 0.80778 0.90729 0.0
H8215 H 0.12913 0.82355 0.93617 0.0
H8216 H 0.12906 0.82266 0.92416 0.0
H8217 H 0.11913 0.82619 0.93003 0.0
H8218 H 0.10906 0.82128 0.91787 0.0
H8219 H 0.10937 0.82878 0.90349 0.0
H8220 H 0.95647 0.36238 0.75298 0.0
H8221 H 0.94832 0.35762 0.73958 0.0
H8222 H 0.96066 0.37899 0.72477 0.0
H8223 H 0.96883 0.38382 0.73817 0.0
H8224 H 0.93612 0.36818 0.73046 0.0
H8225 H 0.9638 0.35732 0.70811 0.0
H8226 H 0.96529 0.3588 0.71999 0.0
H8227 H 0.96516 0.36836 0.71279 0.0
C8228 C 0.95748 0.36604 0.74686 0.0
C8229 C 0.96326 0.3735 0.74665 0.0
C8230 C 0.95286 0.36329 0.73921 0.0
C8231 C 0.95395 0.36789 0.73117 0.0
C8232 C 0.95986 0.37522 0.73086 0.0
H8233 H 0.92644 0.36686 0.68025 0.0
H8234 H 0.93662 0.36972 0.6928 0.0
C8235 C 0.96451 0.37798 0.73853 0.0
C8236 C 0.94836 0.36545 0.72332 0.0
H8237 H 0.94928 0.35856 0.70156 0.0
C8238 C 0.93899 0.36601 0.72416 0.0
C8239 C 0.95214 0.36268 0.7151 0.0
C8240 C 0.96215 0.36167 0.71393 0.0
C8241 C 0.93329 0.36402 0.71695 0.0
C8242 C 0.93706 0.36123 0.70874 0.0
C8243 C 0.94643 0.36067 0.70788 0.0
C8244 C 0.93133 0.35904 0.70092 0.0
C8245 C 0.92329 0.36515 0.71814 0.0
C8246 C 0.92515 0.35195 0.70126 0.0
C8247 C 0.91928 0.35034 0.69414 0.0
C8248 C 0.91952 0.35578 0.68652 0.0
C8249 C 0.92598 0.36266 0.68608 0.0
C8250 C 0.93184 0.36426 0.69321 0.0
H8251 H 0.92167 0.36937 0.72406 0.0
H8252 H 0.92021 0.36823 0.71215 0.0
H8253 H 0.92016 0.35847 0.71909 0.0
H8254 H 0.92475 0.34776 0.70711 0.0
H8255 H 0.91436 0.34503 0.69472 0.0
H8256 H 0.37808 0.79759 0.04234 0.0
H8257 H 0.37684 0.80052 0.05839 0.0
H8258 H 0.40557 0.80371 0.06016 0.0
H8259 H 0.4069 0.80057 0.04417 0.0
H8260 H 0.39768 0.79396 0.07463 0.0
H8261 H 0.38061 0.82638 0.06797 0.0
H8262 H 0.37549 0.81662 0.06301 0.0
H8263 H 0.38641 0.82014 0.05939 0.0
C8264 C 0.38415 0.79874 0.04617 0.0
C8265 C 0.39258 0.79894 0.04197 0.0
C8266 C 0.38342 0.80048 0.05532 0.0
C8267 C 0.3911 0.80246 0.06041 0.0
C8268 C 0.39956 0.80224 0.05633 0.0
H8269 H 0.3976 0.83327 0.10832 0.0
H8270 H 0.3981 0.82647 0.09348 0.0
C8271 C 0.4003 0.80051 0.04719 0.0
C8272 C 0.39032 0.80536 0.06984 0.0
H8273 H 0.38283 0.82256 0.083 0.0
C8274 C 0.39438 0.80017 0.0765 0.0
C8275 C 0.38611 0.81353 0.0722 0.0
C8276 C 0.38196 0.81955 0.06528 0.0
C8277 C 0.39437 0.80298 0.08547 0.0
C8278 C 0.39015 0.81115 0.08781 0.0
C8279 C 0.38602 0.81628 0.08117 0.0
C8280 C 0.39032 0.81479 0.09703 0.0
C8281 C 0.39912 0.79736 0.09233 0.0
C8282 C 0.38582 0.81043 0.10397 0.0
C8283 C 0.38556 0.81428 0.11251 0.0
C8284 C 0.3898 0.82256 0.11424 0.0
C8285 C 0.3944 0.82682 0.10728 0.0
C8286 C 0.39464 0.82298 0.09876 0.0
H8287 H 0.40349 0.79219 0.0892 0.0
H8288 H 0.40328 0.80164 0.09681 0.0
H8289 H 0.39405 0.79389 0.09648 0.0
H8290 H 0.38234 0.80417 0.10273 0.0
H8291 H 0.382 0.81081 0.11774 0.0
H8292 H 0.97875 0.63233 0.78019 0.0
H8293 H 0.96789 0.63653 0.79174 0.0
H8294 H 0.95545 0.65511 0.77365 0.0
H8295 H 0.96623 0.65091 0.76207 0.0
H8296 H 0.96401 0.65296 0.79965 0.0
H8297 H 0.93434 0.63966 0.78135 0.0
H8298 H 0.94571 0.63708 0.77808 0.0
H8299 H 0.94077 0.64766 0.77516 0.0
C8300 C 0.97374 0.63736 0.7787 0.0
C8301 C 0.97328 0.64123 0.7702 0.0
C8302 C 0.96753 0.63973 0.78529 0.0
C8303 C 0.96076 0.646 0.78349 0.0
C8304 C 0.96047 0.65008 0.7751 0.0
H8305 H 0.91614 0.66745 0.81431 0.0
H8306 H 0.92794 0.66491 0.8032 0.0
C8307 C 0.96664 0.64769 0.7685 0.0
C8308 C 0.95397 0.64824 0.79037 0.0
H8309 H 0.93144 0.648 0.79455 0.0
C8310 C 0.95689 0.65186 0.79856 0.0
C8311 C 0.94469 0.64678 0.78892 0.0
C8312 C 0.94118 0.6425 0.78044 0.0
C8313 C 0.95075 0.65416 0.80529 0.0
C8314 C 0.94148 0.65272 0.80381 0.0
C8315 C 0.93856 0.64914 0.79563 0.0
C8316 C 0.93469 0.65462 0.81077 0.0
C8317 C 0.95421 0.65822 0.81388 0.0
C8318 C 0.9346 0.64967 0.81867 0.0
C8319 C 0.92788 0.65109 0.82501 0.0
C8320 C 0.92112 0.6575 0.82355 0.0
C8321 C 0.92131 0.66254 0.81567 0.0
C8322 C 0.92801 0.66107 0.8093 0.0
H8323 H 0.96115 0.66085 0.81317 0.0
H8324 H 0.94978 0.66376 0.81618 0.0
H8325 H 0.95428 0.65301 0.81912 0.0
H8326 H 0.93962 0.64457 0.81986 0.0
H8327 H 0.92795 0.64716 0.83104 0.0
H8328 H 0.12884 0.21464 0.54383 0.0
H8329 H 0.12998 0.21189 0.55987 0.0
H8330 H 0.10148 0.20691 0.56099 0.0
H8331 H 0.10023 0.20986 0.545 0.0
H8332 H 0.10865 0.21744 0.57569 0.0
H8333 H 0.12754 0.18589 0.56925 0.0
H8334 H 0.13213 0.19584 0.56434 0.0
H8335 H 0.12145 0.19164 0.5606 0.0
C8336 C 0.12278 0.21314 0.54752 0.0
C8337 C 0.11445 0.21239 0.54313 0.0
C8338 C 0.12346 0.2115 0.55666 0.0
C8339 C 0.11584 0.20908 0.56156 0.0
C8340 C 0.10745 0.20873 0.5573 0.0
H8341 H 0.11072 0.17909 0.60969 0.0
H8342 H 0.10991 0.18542 0.59476 0.0
C8343 C 0.10676 0.21035 0.54816 0.0
C8344 C 0.11665 0.20636 0.571 0.0
H8345 H 0.12504 0.18988 0.58426 0.0
C8346 C 0.11227 0.21145 0.5776 0.0
C8347 C 0.1213 0.19849 0.57341 0.0
C8348 C 0.12582 0.19258 0.56655 0.0
C8349 C 0.11241 0.20883 0.58658 0.0
C8350 C 0.11708 0.20097 0.58898 0.0
C8351 C 0.1215 0.19593 0.58239 0.0
C8352 C 0.11713 0.19756 0.59822 0.0
C8353 C 0.10734 0.21433 0.59339 0.0
C8354 C 0.12143 0.20231 0.60513 0.0
C8355 C 0.12187 0.19872 0.61371 0.0
C8356 C 0.11801 0.19032 0.61552 0.0
C8357 C 0.11362 0.18565 0.60858 0.0
C8358 C 0.11321 0.18922 0.60002 0.0
H8359 H 0.10271 0.21919 0.59021 0.0
H8360 H 0.10341 0.20992 0.59786 0.0
H8361 H 0.1122 0.21815 0.59757 0.0
H8362 H 0.12461 0.2087 0.60384 0.0
H8363 H 0.12526 0.2025 0.61892 0.0
H8364 H 0.53756 0.36341 0.26641 0.0
H8365 H 0.54485 0.35804 0.28004 0.0
H8366 H 0.56262 0.38088 0.27982 0.0
H8367 H 0.55523 0.38641 0.26642 0.0
H8368 H 0.56282 0.3535 0.2821 0.0
H8369 H 0.55372 0.38091 0.30545 0.0
H8370 H 0.54807 0.37921 0.2949 0.0
H8371 H 0.55866 0.38502 0.29538 0.0
C8372 C 0.54291 0.36736 0.26937 0.0
C8373 C 0.54582 0.37533 0.26533 0.0
C8374 C 0.5471 0.36426 0.27712 0.0
C8375 C 0.55419 0.36913 0.28101 0.0
C8376 C 0.55705 0.37711 0.27703 0.0
H8377 H 0.5966 0.36535 0.3182 0.0
H8378 H 0.58553 0.36867 0.30667 0.0
C8379 C 0.55289 0.38021 0.26931 0.0
C8380 C 0.559 0.36567 0.28892 0.0
H8381 H 0.56634 0.37182 0.30967 0.0
C8382 C 0.56347 0.35741 0.28821 0.0
C8383 C 0.55979 0.37077 0.29688 0.0
C8384 C 0.55473 0.37943 0.29825 0.0
C8385 C 0.56913 0.35438 0.29505 0.0
C8386 C 0.57026 0.35971 0.3028 0.0
C8387 C 0.56549 0.36777 0.30368 0.0
C8388 C 0.57691 0.35745 0.30976 0.0
C8389 C 0.57421 0.34572 0.29377 0.0
C8390 C 0.57571 0.35002 0.31531 0.0
C8391 C 0.58201 0.34813 0.32199 0.0
C8392 C 0.58958 0.35367 0.32322 0.0
C8393 C 0.59077 0.36105 0.31755 0.0
C8394 C 0.58448 0.36293 0.31093 0.0
H8395 H 0.5735 0.34299 0.28689 0.0
H8396 H 0.58145 0.34674 0.29524 0.0
H8397 H 0.57162 0.34066 0.2985 0.0
H8398 H 0.56985 0.34577 0.31457 0.0
H8399 H 0.58086 0.34246 0.32629 0.0
H8400 H 0.45793 0.37897 0.2315 0.0
H8401 H 0.44242 0.37964 0.22603 0.0
H8402 H 0.44927 0.40223 0.20965 0.0
H8403 H 0.46471 0.40177 0.21521 0.0
H8404 H 0.42955 0.39561 0.22562 0.0
H8405 H 0.43928 0.38159 0.19252 0.0
H8406 H 0.44614 0.38025 0.20238 0.0
H8407 H 0.44597 0.39078 0.19669 0.0
C8408 C 0.45611 0.38418 0.22686 0.0
C8409 C 0.46259 0.39026 0.22373 0.0
C8410 C 0.44726 0.38453 0.22372 0.0
C8411 C 0.44477 0.39092 0.21738 0.0
C8412 C 0.45112 0.39718 0.21447 0.0
H8413 H 0.39917 0.40065 0.18354 0.0
H8414 H 0.41347 0.40094 0.19148 0.0
C8415 C 0.45994 0.39687 0.21762 0.0
C8416 C 0.43565 0.39084 0.21348 0.0
H8417 H 0.42436 0.38666 0.19407 0.0
C8418 C 0.42837 0.39362 0.21874 0.0
C8419 C 0.43419 0.38824 0.20451 0.0
C8420 C 0.44178 0.38498 0.19868 0.0
C8421 C 0.41965 0.39409 0.21516 0.0
C8422 C 0.4182 0.39154 0.20615 0.0
C8423 C 0.42549 0.38865 0.20096 0.0
C8424 C 0.40922 0.39191 0.20187 0.0
C8425 C 0.41214 0.39758 0.22096 0.0
C8426 C 0.40204 0.38679 0.20511 0.0
C8427 C 0.39378 0.38671 0.20064 0.0
C8428 C 0.39258 0.39168 0.19279 0.0
C8429 C 0.39978 0.39688 0.18964 0.0
C8430 C 0.408 0.39699 0.19414 0.0
H8431 H 0.41474 0.40146 0.22677 0.0
H8432 H 0.40751 0.40191 0.21711 0.0
H8433 H 0.40823 0.39183 0.22355 0.0
H8434 H 0.40288 0.38267 0.21097 0.0
H8435 H 0.38836 0.38269 0.2033 0.0
H8436 H 0.38268 0.74567 0.95933 0.0
H8437 H 0.37843 0.73395 0.94866 0.0
H8438 H 0.3571 0.72554 0.9661 0.0
H8439 H 0.36112 0.73747 0.97671 0.0
H8440 H 0.37792 0.71551 0.95132 0.0
H8441 H 0.34423 0.72859 0.94212 0.0
H8442 H 0.35247 0.73532 0.94795 0.0
H8443 H 0.34608 0.72706 0.95385 0.0
C8444 C 0.377 0.74142 0.96085 0.0
C8445 C 0.37219 0.74256 0.96884 0.0
C8446 C 0.37462 0.73468 0.95477 0.0
C8447 C 0.36737 0.72896 0.95653 0.0
C8448 C 0.36261 0.72999 0.96454 0.0
H8449 H 0.34579 0.68431 0.92484 0.0
H8450 H 0.34858 0.6954 0.93669 0.0
C8451 C 0.36499 0.73674 0.97064 0.0
C8452 C 0.36498 0.72181 0.95003 0.0
H8453 H 0.34845 0.71464 0.93582 0.0
C8454 C 0.37147 0.71531 0.94794 0.0
C8455 C 0.35655 0.72155 0.94566 0.0
C8456 C 0.34944 0.72854 0.94743 0.0
C8457 C 0.36978 0.70858 0.94157 0.0
C8458 C 0.36142 0.70843 0.93707 0.0
C8459 C 0.35485 0.7148 0.93928 0.0
C8460 C 0.35953 0.7019 0.92982 0.0
C8461 C 0.37693 0.70166 0.93973 0.0
C8462 C 0.36463 0.70202 0.92197 0.0
C8463 C 0.36302 0.69575 0.91519 0.0
C8464 C 0.35626 0.68924 0.91611 0.0
C8465 C 0.35101 0.68927 0.9239 0.0
C8466 C 0.35262 0.69556 0.93069 0.0
H8467 H 0.38188 0.70128 0.94527 0.0
H8468 H 0.37392 0.69492 0.93866 0.0
H8469 H 0.38061 0.7035 0.93358 0.0
H8470 H 0.36986 0.70699 0.92109 0.0
H8471 H 0.36705 0.69604 0.9092 0.0
H8472 H 0.04826 0.61003 0.72103 0.0
H8473 H 0.06464 0.60999 0.71936 0.0
H8474 H 0.06325 0.63508 0.70537 0.0
H8475 H 0.04694 0.63523 0.70712 0.0
H8476 H 0.07349 0.61014 0.70263 0.0
H8477 H 0.08364 0.63921 0.72361 0.0
H8478 H 0.07288 0.63372 0.72474 0.0
H8479 H 0.07469 0.64163 0.71595 0.0
C8480 C 0.05147 0.61562 0.71776 0.0
C8481 C 0.04632 0.62263 0.71419 0.0
C8482 C 0.06082 0.61557 0.71678 0.0
C8483 C 0.06516 0.62258 0.71234 0.0
C8484 C 0.06005 0.62968 0.70895 0.0
H8485 H 0.115 0.63625 0.68866 0.0
H8486 H 0.10016 0.6355 0.6955 0.0
C8487 C 0.05072 0.62971 0.70988 0.0
C8488 C 0.07492 0.62216 0.71054 0.0
H8489 H 0.09446 0.63391 0.71303 0.0
C8490 C 0.07813 0.61524 0.70502 0.0
C8491 C 0.08091 0.62885 0.71365 0.0
C8492 C 0.07789 0.63623 0.71989 0.0
C8493 C 0.08709 0.61508 0.70214 0.0
C8494 C 0.09303 0.62193 0.70503 0.0
C8495 C 0.08989 0.62868 0.71082 0.0
C8496 C 0.10233 0.62259 0.70159 0.0
C8497 C 0.08998 0.60785 0.69565 0.0
C8498 C 0.10856 0.61567 0.70293 0.0
C8499 C 0.11707 0.61608 0.699 0.0
C8500 C 0.11952 0.62346 0.69376 0.0
C8501 C 0.11337 0.63053 0.69274 0.0
C8502 C 0.10487 0.63009 0.69662 0.0
H8503 H 0.08414 0.60432 0.6926 0.0
H8504 H 0.09414 0.6107 0.69023 0.0
H8505 H 0.09408 0.60282 0.69923 0.0
H8506 H 0.10681 0.60991 0.70691 0.0
H8507 H 0.12171 0.61059 0.70002 0.0
H8508 H 0.12948 0.2778 0.47618 0.0
H8509 H 0.13454 0.28895 0.46538 0.0
H8510 H 0.1543 0.27032 0.45538 0.0
H8511 H 0.14925 0.25914 0.46611 0.0
H8512 H 0.15123 0.29681 0.46254 0.0
H8513 H 0.14041 0.27691 0.43294 0.0
H8514 H 0.13697 0.27418 0.44412 0.0
H8515 H 0.14796 0.27108 0.44022 0.0
C8516 C 0.13496 0.27612 0.47173 0.0
C8517 C 0.13891 0.26757 0.47193 0.0
C8518 C 0.13782 0.28247 0.46555 0.0
C8519 C 0.14467 0.28039 0.45947 0.0
C8520 C 0.14884 0.27198 0.45986 0.0
H8521 H 0.16835 0.30963 0.41529 0.0
H8522 H 0.1655 0.299 0.42733 0.0
C8523 C 0.14596 0.26561 0.466 0.0
C8524 C 0.14738 0.28698 0.45264 0.0
H8525 H 0.14867 0.29015 0.43015 0.0
C8526 C 0.15067 0.29537 0.45545 0.0
C8527 C 0.14662 0.28508 0.4434 0.0
C8528 C 0.14272 0.27636 0.43997 0.0
C8529 C 0.1533 0.30188 0.44927 0.0
C8530 C 0.15252 0.29996 0.44005 0.0
C8531 C 0.1493 0.29156 0.43723 0.0
C8532 C 0.15468 0.30669 0.43318 0.0
C8533 C 0.15697 0.31071 0.45263 0.0
C8534 C 0.14953 0.31452 0.43251 0.0
C8535 C 0.15114 0.32059 0.42565 0.0
C8536 C 0.15791 0.31893 0.41933 0.0
C8537 C 0.16316 0.31114 0.42011 0.0
C8538 C 0.16151 0.30505 0.42695 0.0
H8539 H 0.15921 0.3103 0.45969 0.0
H8540 H 0.1627 0.31295 0.44848 0.0
H8541 H 0.15163 0.31587 0.45223 0.0
H8542 H 0.14414 0.31585 0.43717 0.0
H8543 H 0.14704 0.32656 0.42526 0.0
H8544 H 0.45774 0.61038 0.27811 0.0
H8545 H 0.44198 0.61008 0.2829 0.0
H8546 H 0.4471 0.63217 0.30094 0.0
H8547 H 0.46279 0.63256 0.29616 0.0
H8548 H 0.43602 0.60795 0.30151 0.0
H8549 H 0.42441 0.63964 0.28615 0.0
H8550 H 0.4343 0.63371 0.28238 0.0
H8551 H 0.43473 0.64045 0.29236 0.0
C8552 C 0.45546 0.61524 0.28302 0.0
C8553 C 0.46149 0.62149 0.28677 0.0
C8554 C 0.44649 0.61503 0.28576 0.0
C8555 C 0.44338 0.62116 0.29219 0.0
C8556 C 0.44936 0.62745 0.29588 0.0
H8557 H 0.3964 0.63335 0.32253 0.0
H8558 H 0.41075 0.6329 0.31467 0.0
C8559 C 0.45833 0.62762 0.2932 0.0
C8560 C 0.434 0.62077 0.29538 0.0
H8561 H 0.41474 0.63304 0.29684 0.0
C8562 C 0.43131 0.61336 0.30041 0.0
C8563 C 0.42792 0.62787 0.29394 0.0
C8564 C 0.43043 0.63585 0.28835 0.0
C8565 C 0.42278 0.61304 0.30438 0.0
C8566 C 0.41674 0.62024 0.30308 0.0
C8567 C 0.41937 0.62753 0.29783 0.0
C8568 C 0.40785 0.62057 0.30751 0.0
C8569 C 0.42049 0.6052 0.31025 0.0
C8570 C 0.40138 0.61388 0.30597 0.0
C8571 C 0.39317 0.6141 0.31049 0.0
C8572 C 0.39124 0.62111 0.31652 0.0
C8573 C 0.39764 0.62793 0.31785 0.0
C8574 C 0.40586 0.62766 0.31339 0.0
H8575 H 0.42657 0.60142 0.31228 0.0
H8576 H 0.41691 0.60747 0.31636 0.0
H8577 H 0.41601 0.60053 0.30653 0.0
H8578 H 0.40269 0.60846 0.3013 0.0
H8579 H 0.38832 0.60882 0.30924 0.0
H8580 H 0.1233 0.74833 0.06005 0.0
H8581 H 0.12904 0.73505 0.06755 0.0
H8582 H 0.15076 0.73336 0.04864 0.0
H8583 H 0.14522 0.74687 0.04125 0.0
H8584 H 0.13197 0.71771 0.0609 0.0
H8585 H 0.16373 0.73352 0.07285 0.0
H8586 H 0.15448 0.74001 0.06858 0.0
H8587 H 0.16166 0.73397 0.06105 0.0
C8588 C 0.12934 0.74519 0.05752 0.0
C8589 C 0.13386 0.74872 0.05012 0.0
C8590 C 0.13257 0.73756 0.06177 0.0
C8591 C 0.1404 0.73331 0.05873 0.0
C8592 C 0.1448 0.73664 0.05119 0.0
H8593 H 0.16694 0.68782 0.08514 0.0
H8594 H 0.16325 0.69925 0.07403 0.0
C8595 C 0.14156 0.7443 0.04692 0.0
C8596 C 0.1439 0.72545 0.0636 0.0
H8597 H 0.16113 0.71856 0.07698 0.0
C8598 C 0.13838 0.71786 0.06434 0.0
C8599 C 0.15229 0.72565 0.06805 0.0
C8600 C 0.15838 0.73373 0.06768 0.0
C8601 C 0.14091 0.71057 0.06962 0.0
C8602 C 0.14912 0.71094 0.07436 0.0
C8603 C 0.15483 0.71834 0.07332 0.0
C8604 C 0.15149 0.70407 0.08102 0.0
C8605 C 0.13471 0.7026 0.07021 0.0
C8606 C 0.14622 0.70316 0.08868 0.0
C8607 C 0.14834 0.69674 0.09504 0.0
C8608 C 0.15579 0.69106 0.09388 0.0
C8609 C 0.16118 0.69211 0.08626 0.0
C8610 C 0.15906 0.69859 0.07989 0.0
H8611 H 0.13003 0.70224 0.06444 0.0
H8612 H 0.13858 0.69625 0.07053 0.0
H8613 H 0.13063 0.70318 0.07637 0.0
H8614 H 0.14047 0.70748 0.08977 0.0
H8615 H 0.14417 0.6963 0.10094 0.0
H8616 H 0.04448 0.38593 0.80088 0.0
H8617 H 0.0601 0.38661 0.80583 0.0
H8618 H 0.06838 0.3939 0.77934 0.0
H8619 H 0.0527 0.3934 0.77432 0.0
H8620 H 0.07878 0.37985 0.78757 0.0
H8621 H 0.07516 0.40982 0.80943 0.0
H8622 H 0.06692 0.40125 0.81132 0.0
H8623 H 0.06712 0.40696 0.80083 0.0
C8624 C 0.04959 0.38781 0.79612 0.0
C8625 C 0.04732 0.38971 0.78722 0.0
C8626 C 0.05852 0.38816 0.79896 0.0
C8627 C 0.06536 0.39044 0.79298 0.0
C8628 C 0.06318 0.39218 0.78406 0.0
H8629 H 0.11987 0.40189 0.81206 0.0
H8630 H 0.1056 0.40276 0.80394 0.0
C8631 C 0.05422 0.39185 0.7812 0.0
C8632 C 0.07479 0.39083 0.79609 0.0
H8633 H 0.08849 0.40118 0.81129 0.0
C8634 C 0.08095 0.38457 0.79268 0.0
C8635 C 0.07762 0.39708 0.80266 0.0
C8636 C 0.07139 0.40422 0.80623 0.0
C8637 C 0.08977 0.38414 0.79598 0.0
C8638 C 0.09244 0.39007 0.80291 0.0
C8639 C 0.0864 0.39659 0.80603 0.0
C8640 C 0.10131 0.38936 0.80734 0.0
C8641 C 0.09613 0.37732 0.79206 0.0
C8642 C 0.10359 0.38157 0.81198 0.0
C8643 C 0.11168 0.38107 0.81667 0.0
C8644 C 0.11766 0.38838 0.81685 0.0
C8645 C 0.11538 0.39617 0.81213 0.0
C8646 C 0.10727 0.39666 0.80745 0.0
H8647 H 0.094 0.37516 0.78527 0.0
H8648 H 0.10308 0.38002 0.79171 0.0
H8649 H 0.09623 0.3713 0.79636 0.0
H8650 H 0.09899 0.37594 0.81218 0.0
H8651 H 0.11313 0.37504 0.82038 0.0
H8652 H 0.38203 0.26522 0.54938 0.0
H8653 H 0.37729 0.27693 0.55982 0.0
H8654 H 0.35561 0.28408 0.54216 0.0
H8655 H 0.36013 0.27215 0.53177 0.0
H8656 H 0.37595 0.29533 0.55679 0.0
H8657 H 0.34294 0.28075 0.56621 0.0
H8658 H 0.35148 0.27432 0.56053 0.0
H8659 H 0.34473 0.28216 0.55445 0.0
C8660 C 0.37618 0.2692 0.54776 0.0
C8661 C 0.37141 0.2677 0.53977 0.0
C8662 C 0.37352 0.27593 0.55371 0.0
C8663 C 0.36603 0.28128 0.55182 0.0
C8664 C 0.36131 0.27991 0.54381 0.0
H8665 H 0.343 0.32521 0.58356 0.0
H8666 H 0.34595 0.31423 0.57165 0.0
C8667 C 0.36397 0.27316 0.53784 0.0
C8668 C 0.36334 0.28841 0.55821 0.0
H8669 H 0.34662 0.29489 0.57244 0.0
C8670 C 0.36952 0.29525 0.56019 0.0
C8671 C 0.35493 0.28831 0.5626 0.0
C8672 C 0.34815 0.28096 0.56092 0.0
C8673 C 0.36758 0.30194 0.56651 0.0
C8674 C 0.35928 0.30171 0.57106 0.0
C8675 C 0.35298 0.29502 0.56893 0.0
C8676 C 0.35723 0.30812 0.57837 0.0
C8677 C 0.37443 0.30922 0.56827 0.0
C8678 C 0.36245 0.30815 0.58615 0.0
C8679 C 0.36076 0.31435 0.59296 0.0
C8680 C 0.35379 0.32064 0.59214 0.0
C8681 C 0.34839 0.32042 0.58442 0.0
C8682 C 0.35009 0.31419 0.5776 0.0
H8683 H 0.37926 0.30983 0.56267 0.0
H8684 H 0.37111 0.3158 0.56935 0.0
H8685 H 0.37829 0.30757 0.57438 0.0
H8686 H 0.36786 0.30338 0.58696 0.0
H8687 H 0.36491 0.31419 0.5989 0.0
H8688 H 0.22194 0.46044 0.38672 0.0
H8689 H 0.21862 0.44445 0.38467 0.0
H8690 H 0.19132 0.44903 0.39309 0.0
H8691 H 0.19446 0.46499 0.39482 0.0
H8692 H 0.21256 0.43196 0.39702 0.0
H8693 H 0.18798 0.43567 0.36955 0.0
H8694 H 0.19543 0.44462 0.37297 0.0
H8695 H 0.18526 0.44251 0.37906 0.0
C8696 C 0.2152 0.45805 0.38803 0.0
C8697 C 0.20846 0.46401 0.39092 0.0
C8698 C 0.21334 0.44891 0.38691 0.0
C8699 C 0.20469 0.44559 0.38858 0.0
C8700 C 0.198 0.45149 0.39158 0.0
H8701 H 0.1757 0.39675 0.39304 0.0
H8702 H 0.18184 0.41194 0.39341 0.0
C8703 C 0.19984 0.4606 0.39269 0.0
C8704 C 0.20261 0.43594 0.38739 0.0
H8705 H 0.18784 0.42161 0.37719 0.0
C8706 C 0.20726 0.42966 0.39259 0.0
C8707 C 0.19572 0.43296 0.38156 0.0
C8708 C 0.19088 0.43928 0.3754 0.0
C8709 C 0.20487 0.42055 0.39243 0.0
C8710 C 0.19771 0.41767 0.3869 0.0
C8711 C 0.19329 0.42388 0.38148 0.0
C8712 C 0.19434 0.40835 0.387 0.0
C8713 C 0.20975 0.4141 0.39841 0.0
C8714 C 0.19936 0.40132 0.38328 0.0
C8715 C 0.19587 0.3926 0.38306 0.0
C8716 C 0.18732 0.3908 0.3866 0.0
C8717 C 0.18237 0.39788 0.3904 0.0
C8718 C 0.18583 0.40657 0.39056 0.0
H8719 H 0.2144 0.41759 0.40311 0.0
H8720 H 0.20487 0.41011 0.40232 0.0
H8721 H 0.21372 0.40935 0.39427 0.0
H8722 H 0.20591 0.40259 0.38042 0.0
H8723 H 0.19986 0.38727 0.38012 0.0
H8724 H 0.71077 0.04884 0.604 0.0
H8725 H 0.70786 0.0649 0.60561 0.0
H8726 H 0.71288 0.06325 0.63389 0.0
H8727 H 0.71558 0.04713 0.63237 0.0
H8728 H 0.69667 0.07127 0.62969 0.0
H8729 H 0.72438 0.08646 0.61033 0.0
H8730 H 0.71841 0.07783 0.60435 0.0
H8731 H 0.72469 0.07503 0.61419 0.0
C8732 C 0.71133 0.05191 0.61055 0.0
C8733 C 0.71338 0.04671 0.61806 0.0
C8734 C 0.70977 0.06111 0.61145 0.0
C8735 C 0.71027 0.06528 0.61985 0.0
C8736 C 0.71254 0.06016 0.62733 0.0
H8737 H 0.70175 0.12261 0.63018 0.0
H8738 H 0.70836 0.10755 0.62954 0.0
C8739 C 0.71413 0.05097 0.62644 0.0
C8740 C 0.70756 0.07478 0.62096 0.0
H8741 H 0.71189 0.096 0.61376 0.0
C8742 C 0.70006 0.07669 0.62629 0.0
C8743 C 0.71204 0.08184 0.61657 0.0
C8744 C 0.72038 0.08022 0.6111 0.0
C8745 C 0.69671 0.08543 0.62709 0.0
C8746 C 0.70093 0.09242 0.62236 0.0
C8747 C 0.70863 0.09059 0.6173 0.0
C8748 C 0.69719 0.1016 0.62238 0.0
C8749 C 0.68864 0.08713 0.63293 0.0
C8750 C 0.68882 0.10323 0.61842 0.0
C8751 C 0.68504 0.11178 0.61877 0.0
C8752 C 0.68957 0.11887 0.62309 0.0
C8753 C 0.69806 0.11726 0.62689 0.0
C8754 C 0.70186 0.10869 0.62649 0.0
H8755 H 0.68753 0.08158 0.6377 0.0
H8756 H 0.68942 0.0935 0.63674 0.0
H8757 H 0.68257 0.0877 0.62867 0.0
H8758 H 0.68516 0.09785 0.61515 0.0
H8759 H 0.67845 0.11277 0.61587 0.0
H8760 H 0.73605 0.98218 0.35729 0.0
H8761 H 0.72404 0.97165 0.35322 0.0
H8762 H 0.73172 0.95457 0.37499 0.0
H8763 H 0.74352 0.96515 0.37927 0.0
H8764 H 0.72556 0.95348 0.34842 0.0
H8765 H 0.70474 0.95772 0.37875 0.0
H8766 H 0.71349 0.96552 0.37579 0.0
H8767 H 0.71626 0.95515 0.38116 0.0
C8768 C 0.7351 0.97624 0.36128 0.0
C8769 C 0.74073 0.97451 0.36862 0.0
C8770 C 0.72827 0.97021 0.35891 0.0
C8771 C 0.72692 0.9624 0.36388 0.0
C8772 C 0.73255 0.96064 0.37116 0.0
H8773 H 0.69488 0.91475 0.36273 0.0
H8774 H 0.70568 0.92682 0.36543 0.0
C8775 C 0.73936 0.96665 0.37353 0.0
C8776 C 0.71977 0.95593 0.36136 0.0
H8777 H 0.70143 0.94501 0.36952 0.0
C8778 C 0.72021 0.95169 0.35297 0.0
C8779 C 0.71281 0.95365 0.36732 0.0
C8780 C 0.71172 0.95831 0.37622 0.0
C8781 C 0.71406 0.94494 0.35054 0.0
C8782 C 0.70726 0.94248 0.35661 0.0
C8783 C 0.7067 0.94689 0.3649 0.0
C8784 C 0.70085 0.93512 0.35468 0.0
C8785 C 0.71509 0.94026 0.34164 0.0
C8786 C 0.69456 0.93581 0.34775 0.0
C8787 C 0.68832 0.92893 0.34622 0.0
C8788 C 0.68826 0.92128 0.35164 0.0
C8789 C 0.69465 0.92061 0.35853 0.0
C8790 C 0.70086 0.92747 0.36005 0.0
H8791 H 0.72169 0.94169 0.33852 0.0
H8792 H 0.71435 0.9329 0.34237 0.0
H8793 H 0.70974 0.9426 0.33705 0.0
H8794 H 0.69435 0.94173 0.34363 0.0
H8795 H 0.68342 0.9297 0.34094 0.0
H8796 H 0.78134 0.95866 0.11326 0.0
H8797 H 0.78599 0.94287 0.11301 0.0
H8798 H 0.80322 0.94775 0.13569 0.0
H8799 H 0.79858 0.96348 0.13602 0.0
H8800 H 0.80484 0.93682 0.11155 0.0
H8801 H 0.78782 0.92517 0.14227 0.0
H8802 H 0.78433 0.93507 0.13633 0.0
H8803 H 0.79406 0.93544 0.14343 0.0
C8804 C 0.78603 0.95633 0.11826 0.0
C8805 C 0.78961 0.96229 0.12466 0.0
C8806 C 0.7887 0.94734 0.11808 0.0
C8807 C 0.79487 0.94416 0.12438 0.0
C8808 C 0.79837 0.95007 0.13084 0.0
H8809 H 0.82454 0.89704 0.13726 0.0
H8810 H 0.8167 0.91139 0.13664 0.0
C8811 C 0.79577 0.95905 0.13097 0.0
C8812 C 0.79804 0.93477 0.124 0.0
H8813 H 0.79883 0.91547 0.13602 0.0
C8814 C 0.80345 0.93209 0.11682 0.0
C8815 C 0.79622 0.92868 0.13093 0.0
C8816 C 0.79023 0.93118 0.13866 0.0
C8817 C 0.80743 0.92356 0.11657 0.0
C8818 C 0.80574 0.9175 0.12359 0.0
C8819 C 0.80012 0.92012 0.13064 0.0
C8820 C 0.81016 0.9086 0.12401 0.0
C8821 C 0.81372 0.92129 0.109 0.0
C8822 C 0.80896 0.9022 0.11719 0.0
C8823 C 0.81348 0.89399 0.11751 0.0
C8824 C 0.81916 0.89199 0.12473 0.0
C8825 C 0.82013 0.89833 0.13166 0.0
C8826 C 0.81568 0.90655 0.1313 0.0
H8827 H 0.81598 0.92737 0.10542 0.0
H8828 H 0.81973 0.91767 0.11147 0.0
H8829 H 0.81019 0.91688 0.10413 0.0
H8830 H 0.80456 0.90355 0.1116 0.0
H8831 H 0.8125 0.88918 0.11214 0.0
H8832 H 0.26912 0.52906 0.35708 0.0
H8833 H 0.28073 0.53942 0.35189 0.0
H8834 H 0.28168 0.55185 0.37795 0.0
H8835 H 0.2701 0.54155 0.38317 0.0
H8836 H 0.2804 0.56409 0.36434 0.0
H8837 H 0.30759 0.5395 0.35759 0.0
H8838 H 0.29712 0.53708 0.35209 0.0
H8839 H 0.29776 0.53676 0.36405 0.0
C8840 C 0.2719 0.53392 0.36173 0.0
C8841 C 0.26869 0.53449 0.37054 0.0
C8842 C 0.27853 0.53983 0.35876 0.0
C8843 C 0.28213 0.54634 0.36456 0.0
C8844 C 0.27899 0.54688 0.37336 0.0
H8845 H 0.32946 0.5791 0.361 0.0
H8846 H 0.31809 0.56771 0.364 0.0
C8847 C 0.27235 0.54101 0.37633 0.0
C8848 C 0.28896 0.55283 0.36143 0.0
H8849 H 0.31032 0.55451 0.35335 0.0
C8850 C 0.28694 0.562 0.36191 0.0
C8851 C 0.2975 0.55007 0.35834 0.0
C8852 C 0.30019 0.54033 0.35805 0.0
C8853 C 0.29324 0.56852 0.35945 0.0
C8854 C 0.30174 0.56577 0.35624 0.0
C8855 C 0.30376 0.55659 0.35572 0.0
C8856 C 0.30881 0.57235 0.35393 0.0
C8857 C 0.29084 0.57829 0.36058 0.0
C8858 C 0.30745 0.57861 0.34712 0.0
C8859 C 0.3139 0.5852 0.34545 0.0
C8860 C 0.32186 0.58561 0.35053 0.0
C8861 C 0.32334 0.57909 0.35709 0.0
C8862 C 0.31688 0.57252 0.35876 0.0
H8863 H 0.28495 0.57923 0.36503 0.0
H8864 H 0.29659 0.58216 0.36337 0.0
H8865 H 0.28913 0.58112 0.35397 0.0
H8866 H 0.30134 0.57848 0.3432 0.0
H8867 H 0.31253 0.59014 0.34038 0.0
H8868 H 0.27725 0.55413 0.88393 0.0
H8869 H 0.28328 0.56939 0.88313 0.0
H8870 H 0.30974 0.55942 0.8892 0.0
H8871 H 0.3039 0.54416 0.88959 0.0
H8872 H 0.29192 0.57966 0.89578 0.0
H8873 H 0.31433 0.57376 0.86691 0.0
H8874 H 0.30572 0.56589 0.87008 0.0
H8875 H 0.31636 0.56606 0.8758 0.0
C8876 C 0.28438 0.55517 0.88498 0.0
C8877 C 0.29009 0.5479 0.88678 0.0
C8878 C 0.28779 0.5639 0.88458 0.0
C8879 C 0.29698 0.56551 0.88594 0.0
C8880 C 0.30266 0.55831 0.88793 0.0
H8881 H 0.33266 0.61033 0.89163 0.0
H8882 H 0.32478 0.59593 0.89198 0.0
C8883 C 0.29928 0.54959 0.88828 0.0
C8884 C 0.30066 0.57473 0.88543 0.0
H8885 H 0.31687 0.58724 0.8753 0.0
C8886 C 0.2973 0.58135 0.89124 0.0
C8887 C 0.30765 0.57694 0.87944 0.0
C8888 C 0.31117 0.57031 0.87264 0.0
C8889 C 0.30098 0.59003 0.89145 0.0
C8890 C 0.30817 0.5921 0.88569 0.0
C8891 C 0.31139 0.58557 0.87975 0.0
C8892 C 0.31263 0.60095 0.8859 0.0
C8893 C 0.29737 0.59686 0.89799 0.0
C8894 C 0.30837 0.60852 0.88236 0.0
C8895 C 0.31286 0.61675 0.88214 0.0
C8896 C 0.32167 0.61755 0.88548 0.0
C8897 C 0.32584 0.60996 0.88912 0.0
C8898 C 0.32138 0.60173 0.88928 0.0
H8899 H 0.2925 0.59388 0.90272 0.0
H8900 H 0.30297 0.59995 0.90184 0.0
H8901 H 0.29395 0.60228 0.89428 0.0
H8902 H 0.30164 0.608 0.87966 0.0
H8903 H 0.30946 0.62249 0.87933 0.0
H8904 H 0.74853 0.05615 0.12336 0.0
H8905 H 0.73527 0.06397 0.12895 0.0
H8906 H 0.73398 0.04594 0.15123 0.0
H8907 H 0.74748 0.03825 0.14585 0.0
H8908 H 0.71802 0.05759 0.13225 0.0
H8909 H 0.7341 0.07069 0.16329 0.0
H8910 H 0.74052 0.06595 0.15421 0.0
H8911 H 0.73454 0.05875 0.16169 0.0
C8912 C 0.74548 0.05388 0.12949 0.0
C8913 C 0.74913 0.04664 0.13421 0.0
C8914 C 0.73786 0.05832 0.13264 0.0
C8915 C 0.73373 0.05563 0.14058 0.0
C8916 C 0.73717 0.04823 0.14518 0.0
H8917 H 0.688 0.08233 0.16679 0.0
H8918 H 0.69966 0.07129 0.16314 0.0
C8919 C 0.74482 0.04378 0.14204 0.0
C8920 C 0.72586 0.06067 0.14397 0.0
H8921 H 0.71898 0.07459 0.16083 0.0
C8922 C 0.7182 0.06125 0.13854 0.0
C8923 C 0.72611 0.06541 0.15219 0.0
C8924 C 0.73427 0.06526 0.15818 0.0
C8925 C 0.71087 0.0666 0.14099 0.0
C8926 C 0.71124 0.07158 0.14905 0.0
C8927 C 0.71874 0.07075 0.15466 0.0
C8928 C 0.70424 0.07822 0.15138 0.0
C8929 C 0.7028 0.06699 0.1349 0.0
C8930 C 0.70312 0.08583 0.14609 0.0
C8931 C 0.69657 0.09217 0.1482 0.0
C8932 C 0.69097 0.09103 0.15565 0.0
C8933 C 0.69222 0.08344 0.16104 0.0
C8934 C 0.69883 0.07711 0.15894 0.0
H8935 H 0.70252 0.06112 0.1303 0.0
H8936 H 0.69647 0.06727 0.1388 0.0
H8937 H 0.7032 0.07314 0.13081 0.0
H8938 H 0.70737 0.08689 0.14034 0.0
H8939 H 0.69597 0.09802 0.14402 0.0
H8940 H 0.77901 0.97992 0.63193 0.0
H8941 H 0.79058 0.96929 0.63658 0.0
H8942 H 0.77231 0.95805 0.65576 0.0
H8943 H 0.7607 0.96864 0.65114 0.0
H8944 H 0.79849 0.9663 0.65318 0.0
H8945 H 0.77999 0.93615 0.6412 0.0
H8946 H 0.7768 0.94737 0.63813 0.0
H8947 H 0.77379 0.94305 0.64887 0.0
C8948 C 0.77749 0.97524 0.6372 0.0
C8949 C 0.76892 0.97507 0.64112 0.0
C8950 C 0.78409 0.96915 0.63982 0.0
C8951 C 0.78225 0.96278 0.6464 0.0
C8952 C 0.7738 0.96277 0.65052 0.0
H8953 H 0.81327 0.91885 0.66862 0.0
H8954 H 0.80206 0.93054 0.66595 0.0
C8955 C 0.76718 0.96883 0.64788 0.0
C8956 C 0.78914 0.9561 0.64889 0.0
H8957 H 0.79337 0.93362 0.64936 0.0
C8958 C 0.79738 0.95915 0.65234 0.0
C8959 C 0.78767 0.94678 0.64777 0.0
C8960 C 0.77912 0.94312 0.64372 0.0
C8961 C 0.80417 0.95312 0.65478 0.0
C8962 C 0.8027 0.94382 0.65364 0.0
C8963 C 0.79444 0.94076 0.65026 0.0
C8964 C 0.80973 0.93712 0.65565 0.0
C8965 C 0.81281 0.95673 0.65867 0.0
C8966 C 0.81773 0.93695 0.65074 0.0
C8967 C 0.82413 0.9303 0.65225 0.0
C8968 C 0.82264 0.92367 0.6587 0.0
C8969 C 0.81466 0.92393 0.66369 0.0
C8970 C 0.80824 0.93057 0.66214 0.0
H8971 H 0.81203 0.96371 0.6612 0.0
H8972 H 0.81522 0.95246 0.6642 0.0
H8973 H 0.81804 0.95676 0.65341 0.0
H8974 H 0.81894 0.94187 0.6456 0.0
H8975 H 0.83025 0.93033 0.64835 0.0
loop_
_geom_bond_atom_site_label_1
_geom_bond_atom_site_label_2
_geom_bond_distance
_geom_bond_site_symmetry_2
_ccdc_geom_bond_type
C0 C1 1.271 . S
C0 C5 1.479 1_455 S
C0 C10 1.465 . S
C1 C0 1.271 . S
C1 C3 1.283 1_455 S
C1 H28 0.984 . S
C2 C3 1.395 . S
C2 C4 1.320 . S
C3 C1 1.283 1_655 S
C3 C2 1.395 . S
C3 H29 0.929 . S
C4 C2 1.320 . S
C4 C5 1.405 . S
C4 H30 0.930 . S
C5 C0 1.479 1_655 S
C5 C4 1.405 . S
C5 H31 0.931 . S
U6 O7 2.454 . S
U6 O8 2.458 . S
U6 C9 2.984 . S
U6 C10 2.847 . S
U6 C23 2.882 . S
U6 O24 2.441 . S
U6 O25 2.420 . S
U6 O26 2.455 . S
U6 O27 2.449 . S
O7 U6 2.454 . S
O7 C9 1.353 . S
O8 U6 2.458 . S
O8 C9 1.286 . S
C9 U6 2.984 . S
C9 O7 1.353 . S
C9 O8 1.286 . S
C9 C11 1.363 . S
C10 C0 1.465 . S
C10 U6 2.847 . S
C10 O24 1.249 . S
C10 O25 1.202 . S
C11 C9 1.363 . S
C11 C13 1.408 . S
C11 C16 1.342 . S
C12 C13 1.310 . S
C12 C15 1.461 . S
C12 H32 0.932 . S
C13 C11 1.408 . S
C13 C12 1.310 . S
C13 H33 0.930 . S
C14 C15 1.474 . S
C14 C16 1.285 . S
C14 H34 0.929 . S
C15 C12 1.461 . S
C15 C14 1.474 . S
C16 C11 1.342 . S
C16 C14 1.285 . S
C16 H35 0.930 . S
C17 C20 1.424 . S
C17 C22 1.245 . S
C17 C23 1.428 . S
C18 C21 1.260 . S
C18 C22 1.477 . S
C18 H36 0.932 . S
C19 C20 1.384 . S
C19 C21 1.479 . S
C19 H37 0.929 . S
C20 C17 1.424 . S
C20 C19 1.384 . S
C20 H38 0.928 . S
C21 C18 1.260 . S
C21 C19 1.479 . S
C22 C17 1.245 . S
C22 C18 1.477 . S
C22 H39 0.932 . S
C23 U6 2.882 . S
C23 C17 1.428 . S
C23 O26 1.301 . S
C23 O27 1.282 . S
O24 U6 2.441 . S
O24 C10 1.249 . S
O25 U6 2.420 . S
O25 C10 1.202 . S
O26 U6 2.455 . S
O26 C23 1.301 . S
O27 U6 2.449 . S
O27 C23 1.282 . S
H28 C1 0.984 . S
H29 C3 0.929 . S
H30 C4 0.930 . S
H31 C5 0.931 . S
H32 C12 0.932 . S
H33 C13 0.930 . S
H34 C14 0.929 . S
H35 C16 0.930 . S
H36 C18 0.932 . S
H37 C19 0.929 . S
H38 C20 0.928 . S
H39 C22 0.932 . S
C40 C41 1.264 . S
C40 C45 1.479 . S
C40 C50 1.465 . S
C41 C40 1.264 . S
C41 C43 1.339 . S
C41 H68 0.931 . S
C42 C43 1.395 . S
C42 C44 1.320 . S
C43 C41 1.339 . S
C43 C42 1.395 . S
C43 H69 0.929 . S
C44 C42 1.320 . S
C44 C45 1.405 . S
C44 H70 0.930 . S
C45 C40 1.479 . S
C45 C44 1.405 . S
C45 H71 0.931 . S
U46 O47 2.454 . S
U46 O48 2.458 . S
U46 C49 2.984 . S
U46 C50 2.847 . S
U46 C63 2.882 . S
U46 O64 2.441 . S
U46 O65 2.420 . S
U46 O66 2.455 . S
U46 O67 2.449 . S
O47 U46 2.454 . S
O47 C49 1.353 . S
O48 U46 2.458 . S
O48 C49 1.286 . S
C49 U46 2.984 . S
C49 O47 1.353 . S
C49 O48 1.286 . S
C49 C51 1.363 . S
C50 C40 1.465 . S
C50 U46 2.847 . S
C50 O64 1.249 . S
C50 O65 1.202 . S
C51 C49 1.363 . S
C51 C53 1.408 . S
C51 C56 1.342 . S
C52 C53 1.310 . S
C52 C55 1.461 . S
C52 H72 0.932 . S
C53 C51 1.408 . S
C53 C52 1.310 . S
C53 H73 0.930 . S
C54 C55 1.474 . S
C54 C56 1.285 . S
C54 H74 0.929 . S
C55 C52 1.461 . S
C55 C54 1.474 . S
C56 C51 1.342 . S
C56 C54 1.285 . S
C56 H75 0.930 . S
C57 C60 1.424 . S
C57 C62 1.245 . S
C57 C63 1.428 . S
C58 C61 1.260 . S
C58 C62 1.477 . S
C58 H76 0.932 . S
C59 C60 1.384 . S
C59 C61 1.479 . S
C59 H77 0.929 . S
C60 C57 1.424 . S
C60 C59 1.384 . S
C60 H78 0.928 . S
C61 C58 1.260 . S
C61 C59 1.479 . S
C62 C57 1.245 . S
C62 C58 1.477 . S
C62 H79 0.932 . S
C63 U46 2.882 . S
C63 C57 1.428 . S
C63 O66 1.301 . S
C63 O67 1.282 . S
O64 U46 2.441 . S
O64 C50 1.249 . S
O65 U46 2.420 . S
O65 C50 1.202 . S
O66 U46 2.455 . S
O66 C63 1.301 . S
O67 U46 2.449 . S
O67 C63 1.282 . S
H68 C41 0.931 . S
H69 C43 0.929 . S
H70 C44 0.930 . S
H71 C45 0.931 . S
H72 C52 0.932 . S
H73 C53 0.930 . S
H74 C54 0.929 . S
H75 C56 0.930 . S
H76 C58 0.932 . S
H77 C59 0.929 . S
H78 C60 0.928 . S
H79 C62 0.932 . S
C80 C81 1.264 . S
C80 C85 1.479 . S
C80 C90 1.465 . S
C81 C80 1.264 . S
C81 C83 1.339 . S
C81 H108 0.931 . S
C82 C83 1.395 . S
C82 C84 1.320 . S
C83 C81 1.339 . S
C83 C82 1.395 . S
C83 H109 0.929 . S
C84 C82 1.320 . S
C84 C85 1.405 . S
C84 H110 0.930 . S
C85 C80 1.479 . S
C85 C84 1.405 . S
C85 H111 0.931 . S
U86 O87 2.454 . S
U86 O88 2.458 . S
U86 C89 2.984 . S
U86 C90 2.847 . S
U86 C103 2.882 . S
U86 O104 2.441 . S
U86 O105 2.420 . S
U86 O106 2.455 . S
U86 O107 2.449 . S
O87 U86 2.454 . S
O87 C89 1.353 . S
O88 U86 2.458 . S
O88 C89 1.286 . S
C89 U86 2.984 . S
C89 O87 1.353 . S
C89 O88 1.286 . S
C89 C91 1.363 . S
C90 C80 1.465 . S
C90 U86 2.847 . S
C90 O104 1.249 . S
C90 O105 1.202 . S
C91 C89 1.363 . S
C91 C93 1.408 . S
C91 C96 1.342 . S
C92 C93 1.310 . S
C92 C95 1.461 . S
C92 H112 0.932 . S
C93 C91 1.408 . S
C93 C92 1.310 . S
C93 H113 0.930 . S
C94 C95 1.474 . S
C94 C96 1.285 . S
C94 H114 0.929 . S
C95 C92 1.461 . S
C95 C94 1.474 . S
C96 C91 1.342 . S
C96 C94 1.285 . S
C96 H115 0.930 . S
C97 C100 1.424 . S
C97 C102 1.245 . S
C97 C103 1.428 . S
C98 C101 1.260 . S
C98 C102 1.477 . S
C98 H116 0.932 . S
C99 C100 1.384 . S
C99 C101 1.479 . S
C99 H117 0.929 . S
C100 C97 1.424 . S
C100 C99 1.384 . S
C100 H118 0.928 . S
C101 C98 1.260 . S
C101 C99 1.479 . S
C102 C97 1.245 . S
C102 C98 1.477 . S
C102 H119 0.932 . S
C103 U86 2.882 . S
C103 C97 1.428 . S
C103 O106 1.301 . S
C103 O107 1.282 . S
O104 U86 2.441 . S
O104 C90 1.249 . S
O105 U86 2.420 . S
O105 C90 1.202 . S
O106 U86 2.455 . S
O106 C103 1.301 . S
O107 U86 2.449 . S
O107 C103 1.282 . S
H108 C81 0.931 . S
H109 C83 0.929 . S
H110 C84 0.930 . S
H111 C85 0.931 . S
H112 C92 0.932 . S
H113 C93 0.930 . S
H114 C94 0.929 . S
H115 C96 0.930 . S
H116 C98 0.932 . S
H117 C99 0.929 . S
H118 C100 0.928 . S
H119 C102 0.932 . S
C120 C121 1.264 . S
C120 C125 1.479 . S
C120 C130 1.465 . S
C121 C120 1.264 . S
C121 C123 1.339 . S
C121 H148 0.931 . S
C122 C123 1.395 . S
C122 C124 1.320 . S
C123 C121 1.339 . S
C123 C122 1.395 . S
C123 H149 0.929 . S
C124 C122 1.320 . S
C124 C125 1.405 . S
C124 H150 0.930 . S
C125 C120 1.479 . S
C125 C124 1.405 . S
C125 H151 0.931 . S
U126 O127 2.454 . S
U126 O128 2.458 . S
U126 C129 2.984 . S
U126 C130 2.847 . S
U126 C143 2.882 . S
U126 O144 2.441 . S
U126 O145 2.420 . S
U126 O146 2.455 . S
U126 O147 2.449 . S
O127 U126 2.454 . S
O127 C129 1.353 . S
O128 U126 2.458 . S
O128 C129 1.286 . S
C129 U126 2.984 . S
C129 O127 1.353 . S
C129 O128 1.286 . S
C129 C131 1.363 . S
C130 C120 1.465 . S
C130 U126 2.847 . S
C130 O144 1.249 . S
C130 O145 1.202 . S
C131 C129 1.363 . S
C131 C133 1.408 1_554 S
C131 C136 1.342 . S
C132 C133 1.310 . S
C132 C135 1.461 . S
C132 H152 0.932 . S
C133 C131 1.408 1_556 S
C133 C132 1.310 . S
C133 H153 0.939 . S
C134 C135 1.474 . S
C134 C136 1.285 1_556 S
C134 H154 0.929 . S
C135 C132 1.461 . S
C135 C134 1.474 . S
C136 C131 1.342 . S
C136 C134 1.285 1_554 S
C136 H155 0.930 . S
C137 C140 1.424 . S
C137 C142 1.245 . S
C137 C143 1.428 . S
C138 C141 1.260 . S
C138 C142 1.477 . S
C138 H156 0.932 . S
C139 C140 1.384 . S
C139 C141 1.479 . S
C139 H157 0.929 . S
C140 C137 1.424 . S
C140 C139 1.384 . S
C140 H158 0.928 . S
C141 C138 1.260 . S
C141 C139 1.479 . S
C142 C137 1.245 . S
C142 C138 1.477 . S
C142 H159 0.932 . S
C143 U126 2.882 . S
C143 C137 1.428 . S
C143 O146 1.301 . S
C143 O147 1.282 . S
O144 U126 2.441 . S
O144 C130 1.249 . S
O145 U126 2.420 . S
O145 C130 1.202 . S
O146 U126 2.455 . S
O146 C143 1.301 . S
O147 U126 2.449 . S
O147 C143 1.282 . S
H148 C121 0.931 . S
H149 C123 0.929 . S
H150 C124 0.930 . S
H151 C125 0.931 . S
H152 C132 0.932 . S
H153 C133 0.939 . S
H154 C134 0.929 . S
H155 C136 0.930 . S
H156 C138 0.932 . S
H157 C139 0.929 . S
H158 C140 0.928 . S
H159 C142 0.932 . S
C160 C161 1.264 . S
C160 C165 1.479 1_455 S
C160 C170 1.465 . S
C161 C160 1.264 . S
C161 C163 1.339 1_455 S
C161 H188 0.931 . S
C162 C163 1.395 . S
C162 C164 1.320 . S
C163 C161 1.339 1_655 S
C163 C162 1.395 . S
C163 H189 0.929 . S
C164 C162 1.320 . S
C164 C165 1.405 . S
C164 H190 0.930 . S
C165 C160 1.479 1_655 S
C165 C164 1.405 . S
C165 H191 0.931 . S
U166 O167 2.454 . S
U166 O168 2.458 . S
U166 C169 2.984 . S
U166 C170 2.847 . S
U166 C183 2.882 . S
U166 O184 2.441 . S
U166 O185 2.420 . S
U166 O186 2.455 . S
U166 O187 2.449 . S
O167 U166 2.454 . S
O167 C169 1.353 . S
O168 U166 2.458 . S
O168 C169 1.286 . S
C169 U166 2.984 . S
C169 O167 1.353 . S
C169 O168 1.286 . S
C169 C171 1.363 . S
C170 C160 1.465 . S
C170 U166 2.847 . S
C170 O184 1.249 . S
C170 O185 1.202 . S
C171 C169 1.363 . S
C171 C173 1.408 . S
C171 C176 1.342 . S
C172 C173 1.310 . S
C172 C175 1.461 . S
C172 H192 0.932 . S
C173 C171 1.408 . S
C173 C172 1.310 . S
C173 H193 0.930 . S
C174 C175 1.474 . S
C174 C176 1.285 . S
C174 H194 0.929 . S
C175 C172 1.461 . S
C175 C174 1.474 . S
C176 C171 1.342 . S
C176 C174 1.285 . S
C176 H195 0.930 . S
C177 C180 1.424 . S
C177 C182 1.245 . S
C177 C183 1.428 . S
C178 C181 1.260 . S
C178 C182 1.477 . S
C178 H196 0.932 . S
C179 C180 1.384 . S
C179 C181 1.479 . S
C179 H197 0.929 . S
C180 C177 1.424 . S
C180 C179 1.384 . S
C180 H198 0.928 . S
C181 C178 1.260 . S
C181 C179 1.479 . S
C182 C177 1.245 . S
C182 C178 1.477 . S
C182 H199 0.932 . S
C183 U166 2.882 . S
C183 C177 1.428 . S
C183 O186 1.301 . S
C183 O187 1.282 . S
O184 U166 2.441 . S
O184 C170 1.249 . S
O185 U166 2.420 . S
O185 C170 1.202 . S
O186 U166 2.455 . S
O186 C183 1.301 . S
O187 U166 2.449 . S
O187 C183 1.282 . S
H188 C161 0.931 . S
H189 C163 0.929 . S
H190 C164 0.930 . S
H191 C165 0.931 . S
H192 C172 0.932 . S
H193 C173 0.930 . S
H194 C174 0.929 . S
H195 C176 0.930 . S
H196 C178 0.932 . S
H197 C179 0.929 . S
H198 C180 0.928 . S
H199 C182 0.932 . S
C200 C201 1.264 . S
C200 C205 1.479 . S
C200 C210 1.465 . S
C201 C200 1.264 . S
C201 C203 1.339 . S
C201 H228 0.931 . S
C202 C203 1.395 . S
C202 C204 1.320 . S
C203 C201 1.339 . S
C203 C202 1.395 . S
C203 H229 0.929 . S
C204 C202 1.320 . S
C204 C205 1.405 . S
C204 H230 0.930 . S
C205 C200 1.479 . S
C205 C204 1.405 . S
C205 H231 0.931 . S
U206 O207 2.454 . S
U206 O208 2.458 . S
U206 C209 2.984 . S
U206 C210 2.847 . S
U206 C223 2.882 . S
U206 O224 2.441 . S
U206 O225 2.420 . S
U206 O226 2.455 . S
U206 O227 2.449 . S
O207 U206 2.454 . S
O207 C209 1.353 . S
O208 U206 2.458 . S
O208 C209 1.286 . S
C209 U206 2.984 . S
C209 O207 1.353 . S
C209 O208 1.286 . S
C209 C211 1.363 . S
C210 C200 1.465 . S
C210 U206 2.847 . S
C210 O224 1.249 . S
C210 O225 1.202 . S
C211 C209 1.363 . S
C211 C213 1.408 . S
C211 C216 1.342 . S
C212 C213 1.310 . S
C212 C215 1.461 . S
C212 H232 0.932 . S
C213 C211 1.408 . S
C213 C212 1.310 . S
C213 H233 0.930 . S
C214 C215 1.474 . S
C214 C216 1.285 . S
C214 H234 0.929 . S
C215 C212 1.461 . S
C215 C214 1.474 . S
C216 C211 1.342 . S
C216 C214 1.285 . S
C216 H235 0.930 . S
C217 C220 1.424 . S
C217 C222 1.245 . S
C217 C223 1.428 . S
C218 C221 1.260 . S
C218 C222 1.477 . S
C218 H236 0.932 . S
C219 C220 1.384 . S
C219 C221 1.479 . S
C219 H237 0.929 . S
C220 C217 1.424 . S
C220 C219 1.384 . S
C220 H238 0.928 . S
C221 C218 1.260 . S
C221 C219 1.479 . S
C222 C217 1.245 . S
C222 C218 1.477 . S
C222 H239 0.932 . S
C223 U206 2.882 . S
C223 C217 1.428 . S
C223 O226 1.301 . S
C223 O227 1.282 . S
O224 U206 2.441 . S
O224 C210 1.249 . S
O225 U206 2.420 . S
O225 C210 1.202 . S
O226 U206 2.455 . S
O226 C223 1.301 . S
O227 U206 2.449 . S
O227 C223 1.282 . S
H228 C201 0.931 . S
H229 C203 0.929 . S
H230 C204 0.930 . S
H231 C205 0.931 . S
H232 C212 0.932 . S
H233 C213 0.930 . S
H234 C214 0.929 . S
H235 C216 0.930 . S
H236 C218 0.932 . S
H237 C219 0.929 . S
H238 C220 0.928 . S
H239 C222 0.932 . S
C240 C241 1.264 . S
C240 C245 1.479 . S
C240 C250 1.465 . S
C241 C240 1.264 . S
C241 C243 1.339 . S
C241 H268 0.931 . S
C242 C243 1.395 . S
C242 C244 1.320 . S
C243 C241 1.339 . S
C243 C242 1.395 . S
C243 H269 0.929 . S
C244 C242 1.320 . S
C244 C245 1.405 . S
C244 H270 0.930 . S
C245 C240 1.479 . S
C245 C244 1.405 . S
C245 H271 0.931 . S
U246 O247 2.454 . S
U246 O248 2.458 . S
U246 C249 2.984 . S
U246 C250 2.847 . S
U246 C263 2.882 . S
U246 O264 2.441 . S
U246 O265 2.420 . S
U246 O266 2.455 . S
U246 O267 2.449 . S
O247 U246 2.454 . S
O247 C249 1.353 . S
O248 U246 2.458 . S
O248 C249 1.286 . S
C249 U246 2.984 . S
C249 O247 1.353 . S
C249 O248 1.286 . S
C249 C251 1.363 . S
C250 C240 1.465 . S
C250 U246 2.847 . S
C250 O264 1.249 . S
C250 O265 1.202 . S
C251 C249 1.363 . S
C251 C253 1.408 . S
C251 C256 1.342 . S
C252 C253 1.310 . S
C252 C255 1.461 . S
C252 H272 0.932 . S
C253 C251 1.408 . S
C253 C252 1.310 . S
C253 H273 0.930 . S
C254 C255 1.474 . S
C254 C256 1.285 . S
C254 H274 0.929 . S
C255 C252 1.461 . S
C255 C254 1.474 . S
C256 C251 1.342 . S
C256 C254 1.285 . S
C256 H275 0.930 . S
C257 C260 1.424 . S
C257 C262 1.245 . S
C257 C263 1.428 . S
C258 C261 1.260 . S
C258 C262 1.477 . S
C258 H276 0.932 . S
C259 C260 1.384 . S
C259 C261 1.479 . S
C259 H277 0.929 . S
C260 C257 1.424 . S
C260 C259 1.384 . S
C260 H278 0.928 . S
C261 C258 1.260 . S
C261 C259 1.479 . S
C262 C257 1.245 . S
C262 C258 1.477 . S
C262 H279 0.932 . S
C263 U246 2.882 . S
C263 C257 1.428 . S
C263 O266 1.301 . S
C263 O267 1.282 . S
O264 U246 2.441 . S
O264 C250 1.249 . S
O265 U246 2.420 . S
O265 C250 1.202 . S
O266 U246 2.455 . S
O266 C263 1.301 . S
O267 U246 2.449 . S
O267 C263 1.282 . S
H268 C241 0.931 . S
H269 C243 0.929 . S
H270 C244 0.930 . S
H271 C245 0.931 . S
H272 C252 0.932 . S
H273 C253 0.930 . S
H274 C254 0.929 . S
H275 C256 0.930 . S
H276 C258 0.932 . S
H277 C259 0.929 . S
H278 C260 0.928 . S
H279 C262 0.932 . S
C280 C281 1.264 . S
C280 C285 1.479 1_556 S
C280 C290 1.465 . S
C281 C280 1.264 . S
C281 C283 1.339 1_556 S
C281 H308 0.931 . S
C282 C283 1.395 . S
C282 C284 1.320 . S
C283 C281 1.339 1_554 S
C283 C282 1.395 . S
C283 H309 0.929 . S
C284 C282 1.320 . S
C284 C285 1.405 . S
C284 H310 0.930 . S
C285 C280 1.479 1_554 S
C285 C284 1.405 . S
C285 H311 0.931 . S
U286 O287 2.454 . S
U286 O288 2.458 . S
U286 C289 2.984 . S
U286 C290 2.847 . S
U286 C303 2.882 . S
U286 O304 2.441 . S
U286 O305 2.420 . S
U286 O306 2.455 . S
U286 O307 2.449 . S
O287 U286 2.454 . S
O287 C289 1.353 . S
O288 U286 2.458 . S
O288 C289 1.286 . S
C289 U286 2.984 . S
C289 O287 1.353 . S
C289 O288 1.286 . S
C289 C291 1.363 . S
C290 C280 1.465 . S
C290 U286 2.847 . S
C290 O304 1.249 . S
C290 O305 1.202 . S
C291 C289 1.363 . S
C291 C293 1.408 . S
C291 C296 1.342 . S
C292 C293 1.310 . S
C292 C295 1.461 . S
C292 H312 0.932 . S
C293 C291 1.408 . S
C293 C292 1.310 . S
C293 H313 0.930 . S
C294 C295 1.474 . S
C294 C296 1.285 . S
C294 H314 0.929 . S
C295 C292 1.461 . S
C295 C294 1.474 . S
C296 C291 1.342 . S
C296 C294 1.285 . S
C296 H315 0.930 . S
C297 C300 1.424 . S
C297 C302 1.245 . S
C297 C303 1.428 . S
C298 C301 1.260 . S
C298 C302 1.477 . S
C298 H316 0.932 . S
C299 C300 1.384 . S
C299 C301 1.479 . S
C299 H317 0.929 . S
C300 C297 1.424 . S
C300 C299 1.384 . S
C300 H318 0.928 . S
C301 C298 1.260 . S
C301 C299 1.479 . S
C302 C297 1.245 . S
C302 C298 1.477 . S
C302 H319 0.932 . S
C303 U286 2.882 . S
C303 C297 1.428 . S
C303 O306 1.301 . S
C303 O307 1.282 . S
O304 U286 2.441 . S
O304 C290 1.249 . S
O305 U286 2.420 . S
O305 C290 1.202 . S
O306 U286 2.455 . S
O306 C303 1.301 . S
O307 U286 2.449 . S
O307 C303 1.282 . S
H308 C281 0.931 . S
H309 C283 0.929 . S
H310 C284 0.930 . S
H311 C285 0.931 . S
H312 C292 0.932 . S
H313 C293 0.930 . S
H314 C294 0.929 . S
H315 C296 0.930 . S
H316 C298 0.932 . S
H317 C299 0.929 . S
H318 C300 0.928 . S
H319 C302 0.932 . S
C320 C321 1.264 . S
C320 C325 1.479 . S
C320 C330 1.465 . S
C321 C320 1.264 . S
C321 C323 1.339 . S
C321 H348 0.931 . S
C322 C323 1.395 . S
C322 C324 1.320 . S
C323 C321 1.339 . S
C323 C322 1.395 . S
C323 H349 0.929 . S
C324 C322 1.320 . S
C324 C325 1.405 . S
C324 H350 0.930 . S
C325 C320 1.479 . S
C325 C324 1.405 . S
C325 H351 0.931 . S
U326 O327 2.454 . S
U326 O328 2.458 . S
U326 C329 2.984 . S
U326 C330 2.847 . S
U326 C343 2.882 . S
U326 O344 2.441 . S
U326 O345 2.420 . S
U326 O346 2.455 . S
U326 O347 2.449 . S
O327 U326 2.454 . S
O327 C329 1.353 . S
O328 U326 2.458 . S
O328 C329 1.286 . S
C329 U326 2.984 . S
C329 O327 1.353 . S
C329 O328 1.286 . S
C329 C331 1.473 . S
C330 C320 1.465 . S
C330 U326 2.847 . S
C330 O344 1.249 . S
C330 O345 1.202 . S
C331 C329 1.473 . S
C331 C333 1.310 1_545 S
C331 C336 1.341 . S
C332 C333 1.310 . S
C332 C335 1.461 . S
C332 H352 0.932 . S
C333 C331 1.310 1_565 S
C333 C332 1.310 . S
C333 H353 0.930 . S
C334 C335 1.474 . S
C334 C336 1.219 1_565 S
C334 H354 0.929 . S
C335 C332 1.461 . S
C335 C334 1.474 . S
C336 C331 1.341 . S
C336 C334 1.219 1_545 S
C336 H355 0.995 . S
C337 C340 1.424 . S
C337 C342 1.245 . S
C337 C343 1.428 . S
C338 C341 1.260 . S
C338 C342 1.477 . S
C338 H356 0.932 . S
C339 C340 1.384 . S
C339 C341 1.479 . S
C339 H357 0.929 . S
C340 C337 1.424 . S
C340 C339 1.384 . S
C340 H358 0.928 . S
C341 C338 1.260 . S
C341 C339 1.479 . S
C342 C337 1.245 . S
C342 C338 1.477 . S
C342 H359 0.932 . S
C343 U326 2.882 . S
C343 C337 1.428 . S
C343 O346 1.301 . S
C343 O347 1.282 . S
O344 U326 2.441 . S
O344 C330 1.249 . S
O345 U326 2.420 . S
O345 C330 1.202 . S
O346 U326 2.455 . S
O346 C343 1.301 . S
O347 U326 2.449 . S
O347 C343 1.282 . S
H348 C321 0.931 . S
H349 C323 0.929 . S
H350 C324 0.930 . S
H351 C325 0.931 . S
H352 C332 0.932 . S
H353 C333 0.930 . S
H354 C334 0.929 . S
H355 C336 0.995 . S
H356 C338 0.932 . S
H357 C339 0.929 . S
H358 C340 0.928 . S
H359 C342 0.932 . S
C360 C361 1.264 . S
C360 C365 1.479 1_545 S
C360 C370 1.465 . S
C361 C360 1.264 . S
C361 C363 1.339 1_545 S
C361 H388 0.931 . S
C362 C363 1.395 . S
C362 C364 1.320 . S
C363 C361 1.339 1_565 S
C363 C362 1.395 . S
C363 H389 0.929 . S
C364 C362 1.320 . S
C364 C365 1.405 . S
C364 H390 0.930 . S
C365 C360 1.479 1_565 S
C365 C364 1.405 . S
C365 H391 0.931 . S
U366 O367 2.454 . S
U366 O368 2.458 . S
U366 C369 2.984 . S
U366 C370 2.847 . S
U366 C383 2.882 . S
U366 O384 2.441 . S
U366 O385 2.420 . S
U366 O386 2.455 . S
U366 O387 2.449 . S
O367 U366 2.454 . S
O367 C369 1.353 . S
O368 U366 2.458 . S
O368 C369 1.286 . S
C369 U366 2.984 . S
C369 O367 1.353 . S
C369 O368 1.286 . S
C369 C371 1.363 . S
C370 C360 1.465 . S
C370 U366 2.847 . S
C370 O384 1.249 . S
C370 O385 1.202 . S
C371 C369 1.363 . S
C371 C373 1.408 . S
C371 C376 1.342 . S
C372 C373 1.310 . S
C372 C375 1.461 . S
C372 H392 0.932 . S
C373 C371 1.408 . S
C373 C372 1.310 . S
C373 H393 0.930 . S
C374 C375 1.474 . S
C374 C376 1.285 . S
C374 H394 0.929 . S
C375 C372 1.461 . S
C375 C374 1.474 . S
C376 C371 1.342 . S
C376 C374 1.285 . S
C376 H395 0.930 . S
C377 C380 1.424 . S
C377 C382 1.245 . S
C377 C383 1.428 . S
C378 C381 1.260 . S
C378 C382 1.477 . S
C378 H396 0.932 . S
C379 C380 1.384 . S
C379 C381 1.479 . S
C379 H397 0.929 . S
C380 C377 1.424 . S
C380 C379 1.384 . S
C380 H398 0.928 . S
C381 C378 1.260 . S
C381 C379 1.479 . S
C382 C377 1.245 . S
C382 C378 1.477 . S
C382 H399 0.932 . S
C383 U366 2.882 . S
C383 C377 1.428 . S
C383 O386 1.301 . S
C383 O387 1.282 . S
O384 U366 2.441 . S
O384 C370 1.249 . S
O385 U366 2.420 . S
O385 C370 1.202 . S
O386 U366 2.455 . S
O386 C383 1.301 . S
O387 U366 2.449 . S
O387 C383 1.282 . S
H388 C361 0.931 . S
H389 C363 0.929 . S
H390 C364 0.930 . S
H391 C365 0.931 . S
H392 C372 0.932 . S
H393 C373 0.930 . S
H394 C374 0.929 . S
H395 C376 0.930 . S
H396 C378 0.932 . S
H397 C379 0.929 . S
H398 C380 0.928 . S
H399 C382 0.932 . S
C400 C401 1.264 . S
C400 C405 1.479 1_565 S
C400 C410 1.465 . S
C401 C400 1.264 . S
C401 C403 1.339 1_565 S
C401 H428 0.931 . S
C402 C403 1.395 . S
C402 C404 1.320 . S
C403 C401 1.339 1_545 S
C403 C402 1.395 . S
C403 H429 0.929 . S
C404 C402 1.320 . S
C404 C405 1.405 . S
C404 H430 0.930 . S
C405 C400 1.479 1_545 S
C405 C404 1.405 . S
C405 H431 0.931 . S
U406 O407 2.454 . S
U406 O408 2.458 . S
U406 C409 2.984 . S
U406 C410 2.847 . S
U406 C423 2.882 . S
U406 O424 2.441 . S
U406 O425 2.420 . S
U406 O426 2.455 . S
U406 O427 2.449 . S
O407 U406 2.454 . S
O407 C409 1.353 . S
O408 U406 2.458 . S
O408 C409 1.286 . S
C409 U406 2.984 . S
C409 O407 1.353 . S
C409 O408 1.286 . S
C409 C411 1.363 . S
C410 C400 1.465 . S
C410 U406 2.847 . S
C410 O424 1.249 . S
C410 O425 1.202 . S
C411 C409 1.363 . S
C411 C413 1.408 . S
C411 C416 1.342 . S
C412 C413 1.310 . S
C412 C415 1.461 . S
C412 H432 0.932 . S
C413 C411 1.408 . S
C413 C412 1.310 . S
C413 H433 0.930 . S
C414 C415 1.474 . S
C414 C416 1.285 . S
C414 H434 0.929 . S
C415 C412 1.461 . S
C415 C414 1.474 . S
C416 C411 1.342 . S
C416 C414 1.285 . S
C416 H435 0.930 . S
C417 C420 1.424 . S
C417 C422 1.245 . S
C417 C423 1.428 . S
C418 C421 1.260 . S
C418 C422 1.477 . S
C418 H436 0.932 . S
C419 C420 1.384 . S
C419 C421 1.479 . S
C419 H437 0.929 . S
C420 C417 1.424 . S
C420 C419 1.384 . S
C420 H438 0.928 . S
C421 C418 1.260 . S
C421 C419 1.479 . S
C422 C417 1.245 . S
C422 C418 1.477 . S
C422 H439 0.932 . S
C423 U406 2.882 . S
C423 C417 1.428 . S
C423 O426 1.301 . S
C423 O427 1.282 . S
O424 U406 2.441 . S
O424 C410 1.249 . S
O425 U406 2.420 . S
O425 C410 1.202 . S
O426 U406 2.455 . S
O426 C423 1.301 . S
O427 U406 2.449 . S
O427 C423 1.282 . S
H428 C401 0.931 . S
H429 C403 0.929 . S
H430 C404 0.930 . S
H431 C405 0.931 . S
H432 C412 0.932 . S
H433 C413 0.930 . S
H434 C414 0.929 . S
H435 C416 0.930 . S
H436 C418 0.932 . S
H437 C419 0.929 . S
H438 C420 0.928 . S
H439 C422 0.932 . S
C440 C441 1.264 . S
C440 C445 1.479 . S
C440 C450 1.465 . S
C441 C440 1.264 . S
C441 C443 1.339 . S
C441 H468 0.931 . S
C442 C443 1.395 . S
C442 C444 1.320 . S
C443 C441 1.339 . S
C443 C442 1.395 . S
C443 H469 0.929 . S
C444 C442 1.320 . S
C444 C445 1.405 . S
C444 H470 0.930 . S
C445 C440 1.479 . S
C445 C444 1.405 . S
C445 H471 0.931 . S
U446 O447 2.454 . S
U446 O448 2.458 . S
U446 C449 2.984 . S
U446 C450 2.847 . S
U446 C463 2.882 . S
U446 O464 2.441 . S
U446 O465 2.420 . S
U446 O466 2.455 . S
U446 O467 2.449 . S
O447 U446 2.454 . S
O447 C449 1.353 . S
O448 U446 2.458 . S
O448 C449 1.286 . S
C449 U446 2.984 . S
C449 O447 1.353 . S
C449 O448 1.286 . S
C449 C451 1.376 1_565 S
C450 C440 1.465 . S
C450 U446 2.847 . S
C450 O464 1.249 . S
C450 O465 1.202 . S
C451 C449 1.376 1_545 S
C451 C453 1.396 . S
C451 C456 1.341 . S
C452 C453 1.310 . S
C452 C455 1.461 . S
C452 H472 0.932 . S
C453 C451 1.396 . S
C453 C452 1.310 . S
C453 H473 0.930 . S
C454 C455 1.474 . S
C454 C456 1.315 . S
C454 H474 0.929 . S
C455 C452 1.461 . S
C455 C454 1.474 . S
C456 C451 1.341 . S
C456 C454 1.315 . S
C456 H475 0.903 1_545 S
C457 C460 1.424 . S
C457 C462 1.245 . S
C457 C463 1.428 . S
C458 C461 1.260 . S
C458 C462 1.477 . S
C458 H476 0.932 . S
C459 C460 1.384 . S
C459 C461 1.479 . S
C459 H477 0.929 . S
C460 C457 1.424 . S
C460 C459 1.384 . S
C460 H478 0.928 . S
C461 C458 1.260 . S
C461 C459 1.479 . S
C462 C457 1.245 . S
C462 C458 1.477 . S
C462 H479 0.932 . S
C463 U446 2.882 . S
C463 C457 1.428 . S
C463 O466 1.301 . S
C463 O467 1.282 . S
O464 U446 2.441 . S
O464 C450 1.249 . S
O465 U446 2.420 . S
O465 C450 1.202 . S
O466 U446 2.455 . S
O466 C463 1.301 . S
O467 U446 2.449 . S
O467 C463 1.282 . S
H468 C441 0.931 . S
H469 C443 0.929 . S
H470 C444 0.930 . S
H471 C445 0.931 . S
H472 C452 0.932 . S
H473 C453 0.930 . S
H474 C454 0.929 . S
H475 C456 0.903 1_565 S
H476 C458 0.932 . S
H477 C459 0.929 . S
H478 C460 0.928 . S
H479 C462 0.932 . S
C480 C481 1.264 . S
C480 C485 1.479 . S
C480 C490 1.465 . S
C481 C480 1.264 . S
C481 C483 1.339 . S
C481 H508 0.931 . S
C482 C483 1.395 . S
C482 C484 1.320 . S
C483 C481 1.339 . S
C483 C482 1.395 . S
C483 H509 0.929 . S
C484 C482 1.320 . S
C484 C485 1.405 . S
C484 H510 0.930 . S
C485 C480 1.479 . S
C485 C484 1.405 . S
C485 H511 0.931 . S
U486 O487 2.454 . S
U486 O488 2.458 . S
U486 C489 2.984 . S
U486 C490 2.847 . S
U486 C503 2.882 . S
U486 O504 2.441 . S
U486 O505 2.420 . S
U486 O506 2.455 . S
U486 O507 2.449 . S
O487 U486 2.454 . S
O487 C489 1.353 . S
O488 U486 2.458 . S
O488 C489 1.286 . S
C489 U486 2.984 . S
C489 O487 1.353 . S
C489 O488 1.286 . S
C489 C491 1.363 . S
C490 C480 1.465 . S
C490 U486 2.847 . S
C490 O504 1.249 . S
C490 O505 1.202 . S
C491 C489 1.363 . S
C491 C493 1.408 1_554 S
C491 C496 1.342 . S
C492 C493 1.310 . S
C492 C495 1.461 . S
C492 H512 0.932 . S
C493 C491 1.408 1_556 S
C493 C492 1.310 . S
C493 H513 0.930 . S
C494 C495 1.474 . S
C494 C496 1.285 1_556 S
C494 H514 0.929 . S
C495 C492 1.461 . S
C495 C494 1.474 . S
C496 C491 1.342 . S
C496 C494 1.285 1_554 S
C496 H515 0.930 . S
C497 C500 1.424 . S
C497 C502 1.245 . S
C497 C503 1.428 . S
C498 C501 1.260 . S
C498 C502 1.477 . S
C498 H516 0.932 . S
C499 C500 1.384 . S
C499 C501 1.479 . S
C499 H517 0.929 . S
C500 C497 1.424 . S
C500 C499 1.384 . S
C500 H518 0.928 . S
C501 C498 1.260 . S
C501 C499 1.479 . S
C502 C497 1.245 . S
C502 C498 1.477 . S
C502 H519 0.932 . S
C503 U486 2.882 . S
C503 C497 1.428 . S
C503 O506 1.301 . S
C503 O507 1.282 . S
O504 U486 2.441 . S
O504 C490 1.249 . S
O505 U486 2.420 . S
O505 C490 1.202 . S
O506 U486 2.455 . S
O506 C503 1.301 . S
O507 U486 2.449 . S
O507 C503 1.282 . S
H508 C481 0.931 . S
H509 C483 0.929 . S
H510 C484 0.930 . S
H511 C485 0.931 . S
H512 C492 0.932 . S
H513 C493 0.930 . S
H514 C494 0.929 . S
H515 C496 0.930 . S
H516 C498 0.932 . S
H517 C499 0.929 . S
H518 C500 0.928 . S
H519 C502 0.932 . S
C520 C521 1.262 1_655 S
C520 C525 1.457 1_655 S
C520 C530 1.487 . S
C521 C520 1.262 1_455 S
C521 C523 1.352 . S
C521 H548 0.919 1_455 S
C522 C523 1.395 . S
C522 C524 1.320 . S
C523 C521 1.352 . S
C523 C522 1.395 . S
C523 H549 0.929 . S
C524 C522 1.320 . S
C524 C525 1.405 . S
C524 H550 0.930 . S
C525 C520 1.457 1_455 S
C525 C524 1.405 . S
C525 H551 0.931 . S
U526 O527 2.454 . S
U526 O528 2.458 . S
U526 C529 2.984 . S
U526 C530 2.847 . S
U526 C543 2.882 . S
U526 O544 2.441 . S
U526 O545 2.420 . S
U526 O546 2.455 . S
U526 O547 2.449 . S
O527 U526 2.454 . S
O527 C529 1.353 . S
O528 U526 2.458 . S
O528 C529 1.286 . S
C529 U526 2.984 . S
C529 O527 1.353 . S
C529 O528 1.286 . S
C529 C531 1.363 . S
C530 C520 1.487 . S
C530 U526 2.847 . S
C530 O544 1.249 . S
C530 O545 1.202 . S
C531 C529 1.363 . S
C531 C533 1.408 . S
C531 C536 1.342 . S
C532 C533 1.310 . S
C532 C535 1.461 . S
C532 H552 0.932 . S
C533 C531 1.408 . S
C533 C532 1.310 . S
C533 H553 0.930 . S
C534 C535 1.474 . S
C534 C536 1.285 . S
C534 H554 0.929 . S
C535 C532 1.461 . S
C535 C534 1.474 . S
C536 C531 1.342 . S
C536 C534 1.285 . S
C536 H555 0.930 . S
C537 C540 1.424 . S
C537 C542 1.245 . S
C537 C543 1.428 . S
C538 C541 1.260 . S
C538 C542 1.477 . S
C538 H556 0.932 . S
C539 C540 1.384 . S
C539 C541 1.479 . S
C539 H557 0.929 . S
C540 C537 1.424 . S
C540 C539 1.384 . S
C540 H558 0.928 . S
C541 C538 1.260 . S
C541 C539 1.479 . S
C542 C537 1.245 . S
C542 C538 1.477 . S
C542 H559 0.932 . S
C543 U526 2.882 . S
C543 C537 1.428 . S
C543 O546 1.301 . S
C543 O547 1.282 . S
O544 U526 2.441 . S
O544 C530 1.249 . S
O545 U526 2.420 . S
O545 C530 1.202 . S
O546 U526 2.455 . S
O546 C543 1.301 . S
O547 U526 2.449 . S
O547 C543 1.282 . S
H548 C521 0.919 1_655 S
H549 C523 0.929 . S
H550 C524 0.930 . S
H551 C525 0.931 . S
H552 C532 0.932 . S
H553 C533 0.930 . S
H554 C534 0.929 . S
H555 C536 0.930 . S
H556 C538 0.932 . S
H557 C539 0.929 . S
H558 C540 0.928 . S
H559 C542 0.932 . S
C560 C561 1.264 . S
C560 C565 1.479 . S
C560 C570 1.465 . S
C561 C560 1.264 . S
C561 C563 1.339 . S
C561 H588 0.931 . S
C562 C563 1.395 . S
C562 C564 1.320 . S
C563 C561 1.339 . S
C563 C562 1.395 . S
C563 H589 0.929 . S
C564 C562 1.320 . S
C564 C565 1.405 . S
C564 H590 0.930 . S
C565 C560 1.479 . S
C565 C564 1.405 . S
C565 H591 0.931 . S
U566 O567 2.454 . S
U566 O568 2.458 . S
U566 C569 2.984 . S
U566 C570 2.847 . S
U566 C583 2.882 . S
U566 O584 2.441 . S
U566 O585 2.420 . S
U566 O586 2.455 . S
U566 O587 2.449 . S
O567 U566 2.454 . S
O567 C569 1.353 . S
O568 U566 2.458 . S
O568 C569 1.286 . S
C569 U566 2.984 . S
C569 O567 1.353 . S
C569 O568 1.286 . S
C569 C571 1.363 . S
C570 C560 1.465 . S
C570 U566 2.847 . S
C570 O584 1.249 . S
C570 O585 1.202 . S
C571 C569 1.363 . S
C571 C573 1.408 . S
C571 C576 1.342 . S
C572 C573 1.310 . S
C572 C575 1.461 . S
C572 H592 0.932 . S
C573 C571 1.408 . S
C573 C572 1.310 . S
C573 H593 0.930 . S
C574 C575 1.474 . S
C574 C576 1.285 . S
C574 H594 0.929 . S
C575 C572 1.461 . S
C575 C574 1.474 . S
C576 C571 1.342 . S
C576 C574 1.285 . S
C576 H595 0.930 . S
C577 C580 1.424 . S
C577 C582 1.245 . S
C577 C583 1.428 . S
C578 C581 1.260 . S
C578 C582 1.477 . S
C578 H596 0.932 . S
C579 C580 1.384 . S
C579 C581 1.479 . S
C579 H597 0.929 . S
C580 C577 1.424 . S
C580 C579 1.384 . S
C580 H598 0.928 . S
C581 C578 1.260 . S
C581 C579 1.479 . S
C582 C577 1.245 . S
C582 C578 1.477 . S
C582 H599 0.932 . S
C583 U566 2.882 . S
C583 C577 1.428 . S
C583 O586 1.301 . S
C583 O587 1.282 . S
O584 U566 2.441 . S
O584 C570 1.249 . S
O585 U566 2.420 . S
O585 C570 1.202 . S
O586 U566 2.455 . S
O586 C583 1.301 . S
O587 U566 2.449 . S
O587 C583 1.282 . S
H588 C561 0.931 . S
H589 C563 0.929 . S
H590 C564 0.930 . S
H591 C565 0.931 . S
H592 C572 0.932 . S
H593 C573 0.930 . S
H594 C574 0.929 . S
H595 C576 0.930 . S
H596 C578 0.932 . S
H597 C579 0.929 . S
H598 C580 0.928 . S
H599 C582 0.932 . S
C600 C601 1.264 . S
C600 C605 1.479 . S
C600 C610 1.465 . S
C601 C600 1.264 . S
C601 C603 1.339 . S
C601 H628 0.931 . S
C602 C603 1.395 . S
C602 C604 1.320 . S
C603 C601 1.339 . S
C603 C602 1.395 . S
C603 H629 0.929 . S
C604 C602 1.320 . S
C604 C605 1.405 . S
C604 H630 0.930 . S
C605 C600 1.479 . S
C605 C604 1.405 . S
C605 H631 0.931 . S
U606 O607 2.454 1_655 S
U606 O608 2.458 1_655 S
U606 C609 2.984 1_655 S
U606 C610 2.847 . S
U606 C623 2.882 . S
U606 O624 2.441 . S
U606 O625 2.420 . S
U606 O626 2.455 . S
U606 O627 2.449 . S
O607 U606 2.454 1_455 S
O607 C609 1.353 . S
O608 U606 2.458 1_455 S
O608 C609 1.286 . S
C609 U606 2.984 1_455 S
C609 O607 1.353 . S
C609 O608 1.286 . S
C609 C611 1.363 . S
C610 C600 1.465 . S
C610 U606 2.847 . S
C610 O624 1.249 . S
C610 O625 1.202 . S
C611 C609 1.363 . S
C611 C613 1.408 . S
C611 C616 1.342 . S
C612 C613 1.310 . S
C612 C615 1.461 . S
C612 H632 0.932 . S
C613 C611 1.408 . S
C613 C612 1.310 . S
C613 H633 0.930 . S
C614 C615 1.474 . S
C614 C616 1.285 . S
C614 H634 0.929 . S
C615 C612 1.461 . S
C615 C614 1.474 . S
C616 C611 1.342 . S
C616 C614 1.285 . S
C616 H635 0.930 . S
C617 C620 1.424 . S
C617 C622 1.245 . S
C617 C623 1.428 . S
C618 C621 1.260 . S
C618 C622 1.477 . S
C618 H636 0.932 . S
C619 C620 1.384 . S
C619 C621 1.479 . S
C619 H637 0.929 . S
C620 C617 1.424 . S
C620 C619 1.384 . S
C620 H638 0.928 . S
C621 C618 1.260 . S
C621 C619 1.479 . S
C622 C617 1.245 . S
C622 C618 1.477 . S
C622 H639 0.932 . S
C623 U606 2.882 . S
C623 C617 1.428 . S
C623 O626 1.301 . S
C623 O627 1.282 . S
O624 U606 2.441 . S
O624 C610 1.249 . S
O625 U606 2.420 . S
O625 C610 1.202 . S
O626 U606 2.455 . S
O626 C623 1.301 . S
O627 U606 2.449 . S
O627 C623 1.282 . S
H628 C601 0.931 . S
H629 C603 0.929 . S
H630 C604 0.930 . S
H631 C605 0.931 . S
H632 C612 0.932 . S
H633 C613 0.930 . S
H634 C614 0.929 . S
H635 C616 0.930 . S
H636 C618 0.932 . S
H637 C619 0.929 . S
H638 C620 0.928 . S
H639 C622 0.932 . S
C640 C641 1.264 . S
C640 C645 1.479 . S
C640 C650 1.465 . S
C641 C640 1.264 . S
C641 C643 1.339 . S
C641 H668 0.931 . S
C642 C643 1.395 . S
C642 C644 1.320 . S
C643 C641 1.339 . S
C643 C642 1.395 . S
C643 H669 0.929 . S
C644 C642 1.320 . S
C644 C645 1.405 . S
C644 H670 0.930 . S
C645 C640 1.479 . S
C645 C644 1.405 . S
C645 H671 0.931 . S
U646 O647 2.454 . S
U646 O648 2.458 . S
U646 C649 2.984 . S
U646 C650 2.847 . S
U646 C663 2.882 . S
U646 O664 2.441 . S
U646 O665 2.420 . S
U646 O666 2.455 . S
U646 O667 2.449 . S
O647 U646 2.454 . S
O647 C649 1.353 . S
O648 U646 2.458 . S
O648 C649 1.286 . S
C649 U646 2.984 . S
C649 O647 1.353 . S
C649 O648 1.286 . S
C649 C651 1.363 . S
C650 C640 1.465 . S
C650 U646 2.847 . S
C650 O664 1.249 . S
C650 O665 1.202 . S
C651 C649 1.363 . S
C651 C653 1.408 . S
C651 C656 1.342 . S
C652 C653 1.310 . S
C652 C655 1.461 . S
C652 H672 0.932 . S
C653 C651 1.408 . S
C653 C652 1.310 . S
C653 H673 0.930 . S
C654 C655 1.474 . S
C654 C656 1.285 . S
C654 H674 0.929 . S
C655 C652 1.461 . S
C655 C654 1.474 . S
C656 C651 1.342 . S
C656 C654 1.285 . S
C656 H675 0.930 . S
C657 C660 1.424 . S
C657 C662 1.245 . S
C657 C663 1.428 . S
C658 C661 1.260 . S
C658 C662 1.477 . S
C658 H676 0.932 . S
C659 C660 1.384 . S
C659 C661 1.479 . S
C659 H677 0.929 . S
C660 C657 1.424 . S
C660 C659 1.384 . S
C660 H678 0.928 . S
C661 C658 1.260 . S
C661 C659 1.479 . S
C662 C657 1.245 . S
C662 C658 1.477 . S
C662 H679 0.932 . S
C663 U646 2.882 . S
C663 C657 1.428 . S
C663 O666 1.301 . S
C663 O667 1.282 . S
O664 U646 2.441 . S
O664 C650 1.249 . S
O665 U646 2.420 . S
O665 C650 1.202 . S
O666 U646 2.455 . S
O666 C663 1.301 . S
O667 U646 2.449 . S
O667 C663 1.282 . S
H668 C641 0.931 . S
H669 C643 0.929 . S
H670 C644 0.930 . S
H671 C645 0.931 . S
H672 C652 0.932 . S
H673 C653 0.930 . S
H674 C654 0.929 . S
H675 C656 0.930 . S
H676 C658 0.932 . S
H677 C659 0.929 . S
H678 C660 0.928 . S
H679 C662 0.932 . S
C680 C681 1.264 . S
C680 C685 1.479 . S
C680 C690 1.465 . S
C681 C680 1.264 . S
C681 C683 1.339 . S
C681 H708 0.931 . S
C682 C683 1.395 . S
C682 C684 1.320 . S
C683 C681 1.339 . S
C683 C682 1.395 . S
C683 H709 0.929 . S
C684 C682 1.320 . S
C684 C685 1.405 . S
C684 H710 0.930 . S
C685 C680 1.479 . S
C685 C684 1.405 . S
C685 H711 0.931 . S
U686 O687 2.454 . S
U686 O688 2.458 . S
U686 C689 2.984 . S
U686 C690 2.847 . S
U686 C703 2.882 . S
U686 O704 2.441 . S
U686 O705 2.420 . S
U686 O706 2.455 . S
U686 O707 2.449 . S
O687 U686 2.454 . S
O687 C689 1.353 . S
O688 U686 2.458 . S
O688 C689 1.286 . S
C689 U686 2.984 . S
C689 O687 1.353 . S
C689 O688 1.286 . S
C689 C691 1.363 . S
C690 C680 1.465 . S
C690 U686 2.847 . S
C690 O704 1.249 . S
C690 O705 1.202 . S
C691 C689 1.363 . S
C691 C693 1.408 . S
C691 C696 1.342 . S
C692 C693 1.310 . S
C692 C695 1.461 . S
C692 H712 0.932 . S
C693 C691 1.408 . S
C693 C692 1.310 . S
C693 H713 0.930 . S
C694 C695 1.474 . S
C694 C696 1.285 . S
C694 H714 0.929 . S
C695 C692 1.461 . S
C695 C694 1.474 . S
C696 C691 1.342 . S
C696 C694 1.285 . S
C696 H715 0.930 . S
C697 C700 1.424 . S
C697 C702 1.245 . S
C697 C703 1.428 . S
C698 C701 1.260 . S
C698 C702 1.477 . S
C698 H716 0.932 . S
C699 C700 1.384 . S
C699 C701 1.479 . S
C699 H717 0.929 . S
C700 C697 1.424 . S
C700 C699 1.384 . S
C700 H718 0.928 . S
C701 C698 1.260 . S
C701 C699 1.479 . S
C702 C697 1.245 . S
C702 C698 1.477 . S
C702 H719 0.932 . S
C703 U686 2.882 . S
C703 C697 1.428 . S
C703 O706 1.301 . S
C703 O707 1.282 . S
O704 U686 2.441 . S
O704 C690 1.249 . S
O705 U686 2.420 . S
O705 C690 1.202 . S
O706 U686 2.455 . S
O706 C703 1.301 . S
O707 U686 2.449 . S
O707 C703 1.282 . S
H708 C681 0.931 . S
H709 C683 0.929 . S
H710 C684 0.930 . S
H711 C685 0.931 . S
H712 C692 0.932 . S
H713 C693 0.930 . S
H714 C694 0.929 . S
H715 C696 0.930 . S
H716 C698 0.932 . S
H717 C699 0.929 . S
H718 C700 0.928 . S
H719 C702 0.932 . S
C720 C721 1.264 . S
C720 C725 1.479 . S
C720 C730 1.465 . S
C721 C720 1.264 . S
C721 C723 1.339 . S
C721 H748 0.931 . S
C722 C723 1.395 . S
C722 C724 1.320 . S
C723 C721 1.339 . S
C723 C722 1.395 . S
C723 H749 0.929 . S
C724 C722 1.320 . S
C724 C725 1.405 . S
C724 H750 0.930 . S
C725 C720 1.479 . S
C725 C724 1.405 . S
C725 H751 0.931 . S
U726 O727 2.452 . S
U726 O728 2.458 . S
U726 C729 2.984 1_556 S
U726 C730 2.847 . S
U726 C743 2.882 . S
U726 O744 2.441 . S
U726 O745 2.420 . S
U726 O746 2.455 . S
U726 O747 2.449 . S
O727 U726 2.452 . S
O727 C729 1.355 1_556 S
O728 U726 2.458 . S
O728 C729 1.286 1_556 S
C729 U726 2.984 1_554 S
C729 O727 1.355 1_554 S
C729 O728 1.286 1_554 S
C729 C731 1.363 . S
C730 C720 1.465 . S
C730 U726 2.847 . S
C730 O744 1.249 . S
C730 O745 1.202 . S
C731 C729 1.363 . S
C731 C733 1.408 . S
C731 C736 1.342 . S
C732 C733 1.310 . S
C732 C735 1.461 . S
C732 H752 0.932 . S
C733 C731 1.408 . S
C733 C732 1.310 . S
C733 H753 0.930 . S
C734 C735 1.474 . S
C734 C736 1.285 . S
C734 H754 0.929 . S
C735 C732 1.461 . S
C735 C734 1.474 . S
C736 C731 1.342 . S
C736 C734 1.285 . S
C736 H755 0.930 . S
C737 C740 1.424 . S
C737 C742 1.245 . S
C737 C743 1.428 . S
C738 C741 1.260 . S
C738 C742 1.477 . S
C738 H756 0.932 . S
C739 C740 1.384 . S
C739 C741 1.479 . S
C739 H757 0.929 . S
C740 C737 1.424 . S
C740 C739 1.384 . S
C740 H758 0.928 . S
C741 C738 1.260 . S
C741 C739 1.479 . S
C742 C737 1.245 . S
C742 C738 1.477 . S
C742 H759 0.932 . S
C743 U726 2.882 . S
C743 C737 1.428 . S
C743 O746 1.301 . S
C743 O747 1.282 . S
O744 U726 2.441 . S
O744 C730 1.249 . S
O745 U726 2.420 . S
O745 C730 1.202 . S
O746 U726 2.455 . S
O746 C743 1.301 . S
O747 U726 2.449 . S
O747 C743 1.282 . S
H748 C721 0.931 . S
H749 C723 0.929 . S
H750 C724 0.930 . S
H751 C725 0.931 . S
H752 C732 0.932 . S
H753 C733 0.930 . S
H754 C734 0.929 . S
H755 C736 0.930 . S
H756 C738 0.932 . S
H757 C739 0.929 . S
H758 C740 0.928 . S
H759 C742 0.932 . S
C760 C761 1.264 . S
C760 C765 1.479 . S
C760 C770 1.465 . S
C761 C760 1.264 . S
C761 C763 1.339 . S
C761 H788 0.931 . S
C762 C763 1.395 . S
C762 C764 1.320 . S
C763 C761 1.339 . S
C763 C762 1.395 . S
C763 H789 0.929 . S
C764 C762 1.320 . S
C764 C765 1.405 . S
C764 H790 0.930 . S
C765 C760 1.479 . S
C765 C764 1.405 . S
C765 H791 0.931 . S
U766 O767 2.454 . S
U766 O768 2.458 . S
U766 C769 2.984 . S
U766 C770 2.847 1_655 S
U766 C783 2.882 . S
U766 O784 2.441 1_655 S
U766 O785 2.420 1_655 S
U766 O786 2.455 . S
U766 O787 2.449 . S
O767 U766 2.454 . S
O767 C769 1.353 . S
O768 U766 2.458 . S
O768 C769 1.286 . S
C769 U766 2.984 . S
C769 O767 1.353 . S
C769 O768 1.286 . S
C769 C771 1.363 . S
C770 C760 1.465 . S
C770 U766 2.847 1_455 S
C770 O784 1.249 . S
C770 O785 1.202 . S
C771 C769 1.363 . S
C771 C773 1.408 . S
C771 C776 1.342 . S
C772 C773 1.310 . S
C772 C775 1.461 . S
C772 H792 0.932 . S
C773 C771 1.408 . S
C773 C772 1.310 . S
C773 H793 0.930 . S
C774 C775 1.474 . S
C774 C776 1.285 . S
C774 H794 0.929 . S
C775 C772 1.461 . S
C775 C774 1.474 . S
C776 C771 1.342 . S
C776 C774 1.285 . S
C776 H795 0.930 . S
C777 C780 1.424 . S
C777 C782 1.245 . S
C777 C783 1.428 . S
C778 C781 1.260 . S
C778 C782 1.477 . S
C778 H796 0.932 . S
C779 C780 1.384 . S
C779 C781 1.479 . S
C779 H797 0.929 . S
C780 C777 1.424 . S
C780 C779 1.384 . S
C780 H798 0.928 . S
C781 C778 1.260 . S
C781 C779 1.479 . S
C782 C777 1.245 . S
C782 C778 1.477 . S
C782 H799 0.932 . S
C783 U766 2.882 . S
C783 C777 1.428 . S
C783 O786 1.301 . S
C783 O787 1.282 . S
O784 U766 2.441 1_455 S
O784 C770 1.249 . S
O785 U766 2.420 1_455 S
O785 C770 1.202 . S
O786 U766 2.455 . S
O786 C783 1.301 . S
O787 U766 2.449 . S
O787 C783 1.282 . S
H788 C761 0.931 . S
H789 C763 0.929 . S
H790 C764 0.930 . S
H791 C765 0.931 . S
H792 C772 0.932 . S
H793 C773 0.930 . S
H794 C774 0.929 . S
H795 C776 0.930 . S
H796 C778 0.932 . S
H797 C779 0.929 . S
H798 C780 0.928 . S
H799 C782 0.932 . S
C800 C801 1.264 . S
C800 C805 1.479 . S
C800 C810 1.465 . S
C801 C800 1.264 . S
C801 C803 1.339 . S
C801 H828 0.931 . S
C802 C803 1.395 . S
C802 C804 1.320 . S
C803 C801 1.339 . S
C803 C802 1.395 . S
C803 H829 0.929 . S
C804 C802 1.320 . S
C804 C805 1.405 . S
C804 H830 0.930 . S
C805 C800 1.479 . S
C805 C804 1.405 . S
C805 H831 0.931 . S
U806 O807 2.454 . S
U806 O808 2.458 . S
U806 C809 2.984 . S
U806 C810 2.847 . S
U806 C823 2.882 . S
U806 O824 2.441 . S
U806 O825 2.420 . S
U806 O826 2.455 . S
U806 O827 2.449 . S
O807 U806 2.454 . S
O807 C809 1.353 . S
O808 U806 2.458 . S
O808 C809 1.286 . S
C809 U806 2.984 . S
C809 O807 1.353 . S
C809 O808 1.286 . S
C809 C811 1.363 . S
C810 C800 1.465 . S
C810 U806 2.847 . S
C810 O824 1.249 . S
C810 O825 1.202 . S
C811 C809 1.363 . S
C811 C813 1.408 . S
C811 C816 1.342 . S
C812 C813 1.310 . S
C812 C815 1.461 . S
C812 H832 0.932 . S
C813 C811 1.408 . S
C813 C812 1.310 . S
C813 H833 0.930 . S
C814 C815 1.474 . S
C814 C816 1.285 . S
C814 H834 0.929 . S
C815 C812 1.461 . S
C815 C814 1.474 . S
C816 C811 1.342 . S
C816 C814 1.285 . S
C816 H835 0.930 . S
C817 C820 1.424 . S
C817 C822 1.245 . S
C817 C823 1.428 . S
C818 C821 1.260 . S
C818 C822 1.477 . S
C818 H836 0.932 . S
C819 C820 1.384 . S
C819 C821 1.479 . S
C819 H837 0.929 . S
C820 C817 1.424 . S
C820 C819 1.384 . S
C820 H838 0.928 . S
C821 C818 1.260 . S
C821 C819 1.479 . S
C822 C817 1.245 . S
C822 C818 1.477 . S
C822 H839 0.932 . S
C823 U806 2.882 . S
C823 C817 1.428 . S
C823 O826 1.301 . S
C823 O827 1.282 . S
O824 U806 2.441 . S
O824 C810 1.249 . S
O825 U806 2.420 . S
O825 C810 1.202 . S
O826 U806 2.455 . S
O826 C823 1.301 . S
O827 U806 2.449 . S
O827 C823 1.282 . S
H828 C801 0.931 . S
H829 C803 0.929 . S
H830 C804 0.930 . S
H831 C805 0.931 . S
H832 C812 0.932 . S
H833 C813 0.930 . S
H834 C814 0.929 . S
H835 C816 0.930 . S
H836 C818 0.932 . S
H837 C819 0.929 . S
H838 C820 0.928 . S
H839 C822 0.932 . S
C840 C841 1.264 . S
C840 C845 1.479 . S
C840 C850 1.465 . S
C841 C840 1.264 . S
C841 C843 1.339 . S
C841 H868 0.931 . S
C842 C843 1.395 . S
C842 C844 1.320 . S
C843 C841 1.339 . S
C843 C842 1.395 . S
C843 H869 0.929 . S
C844 C842 1.320 . S
C844 C845 1.405 . S
C844 H870 0.930 . S
C845 C840 1.479 . S
C845 C844 1.405 . S
C845 H871 0.931 . S
U846 O847 2.454 . S
U846 O848 2.458 . S
U846 C849 2.984 . S
U846 C850 2.847 . S
U846 C863 2.882 . S
U846 O864 2.441 . S
U846 O865 2.420 . S
U846 O866 2.455 . S
U846 O867 2.449 . S
O847 U846 2.454 . S
O847 C849 1.353 . S
O848 U846 2.458 . S
O848 C849 1.286 . S
C849 U846 2.984 . S
C849 O847 1.353 . S
C849 O848 1.286 . S
C849 C851 1.363 . S
C850 C840 1.465 . S
C850 U846 2.847 . S
C850 O864 1.249 . S
C850 O865 1.202 . S
C851 C849 1.363 . S
C851 C853 1.408 . S
C851 C856 1.342 . S
C852 C853 1.310 . S
C852 C855 1.461 . S
C852 H872 0.932 . S
C853 C851 1.408 . S
C853 C852 1.310 . S
C853 H873 0.930 . S
C854 C855 1.474 . S
C854 C856 1.285 . S
C854 H874 0.929 . S
C855 C852 1.461 . S
C855 C854 1.474 . S
C856 C851 1.342 . S
C856 C854 1.285 . S
C856 H875 0.930 . S
C857 C860 1.424 . S
C857 C862 1.245 . S
C857 C863 1.428 . S
C858 C861 1.260 . S
C858 C862 1.477 . S
C858 H876 0.932 . S
C859 C860 1.384 . S
C859 C861 1.479 . S
C859 H877 0.929 . S
C860 C857 1.424 . S
C860 C859 1.384 . S
C860 H878 0.928 . S
C861 C858 1.260 . S
C861 C859 1.479 . S
C862 C857 1.245 . S
C862 C858 1.477 . S
C862 H879 0.932 . S
C863 U846 2.882 . S
C863 C857 1.428 . S
C863 O866 1.301 . S
C863 O867 1.282 . S
O864 U846 2.441 . S
O864 C850 1.249 . S
O865 U846 2.420 . S
O865 C850 1.202 . S
O866 U846 2.455 . S
O866 C863 1.301 . S
O867 U846 2.449 . S
O867 C863 1.282 . S
H868 C841 0.931 . S
H869 C843 0.929 . S
H870 C844 0.930 . S
H871 C845 0.931 . S
H872 C852 0.932 . S
H873 C853 0.930 . S
H874 C854 0.929 . S
H875 C856 0.930 . S
H876 C858 0.932 . S
H877 C859 0.929 . S
H878 C860 0.928 . S
H879 C862 0.932 . S
C880 C881 1.264 . S
C880 C885 1.479 . S
C880 C890 1.465 . S
C881 C880 1.264 . S
C881 C883 1.339 . S
C881 H908 0.931 . S
C882 C883 1.395 . S
C882 C884 1.320 . S
C883 C881 1.339 . S
C883 C882 1.395 . S
C883 H909 0.929 . S
C884 C882 1.320 . S
C884 C885 1.405 . S
C884 H910 0.930 . S
C885 C880 1.479 . S
C885 C884 1.405 . S
C885 H911 0.931 . S
U886 O887 2.454 . S
U886 O888 2.458 . S
U886 C889 2.984 . S
U886 C890 2.847 1_554 S
U886 C903 2.882 . S
U886 O904 2.366 1_554 S
U886 O905 2.448 . S
U886 O906 2.455 . S
U886 O907 2.449 . S
O887 U886 2.454 . S
O887 C889 1.353 . S
O888 U886 2.458 . S
O888 C889 1.286 . S
C889 U886 2.984 . S
C889 O887 1.353 . S
C889 O888 1.286 . S
C889 C891 1.363 . S
C890 C880 1.465 . S
C890 U886 2.847 1_556 S
C890 O904 1.289 . S
C890 O905 1.184 1_556 S
C891 C889 1.363 . S
C891 C893 1.408 . S
C891 C896 1.342 . S
C892 C893 1.310 . S
C892 C895 1.461 . S
C892 H912 0.932 . S
C893 C891 1.408 . S
C893 C892 1.310 . S
C893 H913 0.930 . S
C894 C895 1.474 . S
C894 C896 1.285 . S
C894 H914 0.929 . S
C895 C892 1.461 . S
C895 C894 1.474 . S
C896 C891 1.342 . S
C896 C894 1.285 . S
C896 H915 0.930 . S
C897 C900 1.424 . S
C897 C902 1.245 . S
C897 C903 1.428 . S
C898 C901 1.260 . S
C898 C902 1.477 . S
C898 H916 0.932 . S
C899 C900 1.384 . S
C899 C901 1.479 . S
C899 H917 0.929 . S
C900 C897 1.424 . S
C900 C899 1.384 . S
C900 H918 0.928 . S
C901 C898 1.260 . S
C901 C899 1.479 . S
C902 C897 1.245 . S
C902 C898 1.477 . S
C902 H919 0.932 . S
C903 U886 2.882 . S
C903 C897 1.428 . S
C903 O906 1.301 . S
C903 O907 1.282 . S
O904 U886 2.366 1_556 S
O904 C890 1.289 . S
O905 U886 2.448 . S
O905 C890 1.184 1_554 S
O906 U886 2.455 . S
O906 C903 1.301 . S
O907 U886 2.449 . S
O907 C903 1.282 . S
H908 C881 0.931 . S
H909 C883 0.929 . S
H910 C884 0.930 . S
H911 C885 0.931 . S
H912 C892 0.932 . S
H913 C893 0.930 . S
H914 C894 0.929 . S
H915 C896 0.930 . S
H916 C898 0.932 . S
H917 C899 0.929 . S
H918 C900 0.928 . S
H919 C902 0.932 . S
C920 C921 1.264 . S
C920 C925 1.479 . S
C920 C930 1.465 . S
C921 C920 1.264 . S
C921 C923 1.339 . S
C921 H948 0.931 . S
C922 C923 1.395 . S
C922 C924 1.320 . S
C923 C921 1.339 . S
C923 C922 1.395 . S
C923 H949 0.929 . S
C924 C922 1.320 . S
C924 C925 1.405 . S
C924 H950 0.930 . S
C925 C920 1.479 . S
C925 C924 1.405 . S
C925 H951 0.931 . S
U926 O927 2.454 1_565 S
U926 O928 2.458 1_565 S
U926 C929 2.984 1_565 S
U926 C930 2.847 . S
U926 C943 2.882 . S
U926 O944 2.441 . S
U926 O945 2.420 . S
U926 O946 2.455 . S
U926 O947 2.449 . S
O927 U926 2.454 1_545 S
O927 C929 1.353 . S
O928 U926 2.458 1_545 S
O928 C929 1.286 . S
C929 U926 2.984 1_545 S
C929 O927 1.353 . S
C929 O928 1.286 . S
C929 C931 1.363 . S
C930 C920 1.465 . S
C930 U926 2.847 . S
C930 O944 1.249 . S
C930 O945 1.202 . S
C931 C929 1.363 . S
C931 C933 1.408 . S
C931 C936 1.342 . S
C932 C933 1.310 . S
C932 C935 1.461 . S
C932 H952 0.932 . S
C933 C931 1.408 . S
C933 C932 1.310 . S
C933 H953 0.930 . S
C934 C935 1.474 . S
C934 C936 1.285 . S
C934 H954 0.929 . S
C935 C932 1.461 . S
C935 C934 1.474 . S
C936 C931 1.342 . S
C936 C934 1.285 . S
C936 H955 0.930 . S
C937 C940 1.424 . S
C937 C942 1.245 . S
C937 C943 1.428 . S
C938 C941 1.260 . S
C938 C942 1.477 . S
C938 H956 0.932 . S
C939 C940 1.384 . S
C939 C941 1.479 . S
C939 H957 0.929 . S
C940 C937 1.424 . S
C940 C939 1.384 . S
C940 H958 0.928 . S
C941 C938 1.260 . S
C941 C939 1.479 . S
C942 C937 1.245 . S
C942 C938 1.477 . S
C942 H959 0.932 . S
C943 U926 2.882 . S
C943 C937 1.428 . S
C943 O946 1.301 . S
C943 O947 1.282 . S
O944 U926 2.441 . S
O944 C930 1.249 . S
O945 U926 2.420 . S
O945 C930 1.202 . S
O946 U926 2.455 . S
O946 C943 1.301 . S
O947 U926 2.449 . S
O947 C943 1.282 . S
H948 C921 0.931 . S
H949 C923 0.929 . S
H950 C924 0.930 . S
H951 C925 0.931 . S
H952 C932 0.932 . S
H953 C933 0.930 . S
H954 C934 0.929 . S
H955 C936 0.930 . S
H956 C938 0.932 . S
H957 C939 0.929 . S
H958 C940 0.928 . S
H959 C942 0.932 . S
C960 C961 1.264 . S
C960 C965 1.479 . S
C960 C970 1.465 . S
C961 C960 1.264 . S
C961 C963 1.339 . S
C961 H988 0.931 . S
C962 C963 1.395 . S
C962 C964 1.320 . S
C963 C961 1.339 . S
C963 C962 1.395 . S
C963 H989 0.929 . S
C964 C962 1.320 . S
C964 C965 1.405 . S
C964 H990 0.930 . S
C965 C960 1.479 . S
C965 C964 1.405 . S
C965 H991 0.931 . S
U966 O967 2.454 1_565 S
U966 O968 2.458 1_565 S
U966 C969 2.984 1_565 S
U966 C970 2.847 . S
U966 C983 2.882 . S
U966 O984 2.441 . S
U966 O985 2.420 . S
U966 O986 2.455 . S
U966 O987 2.449 . S
O967 U966 2.454 1_545 S
O967 C969 1.353 . S
O968 U966 2.458 1_545 S
O968 C969 1.286 . S
C969 U966 2.984 1_545 S
C969 O967 1.353 . S
C969 O968 1.286 . S
C969 C971 1.363 . S
C970 C960 1.465 . S
C970 U966 2.847 . S
C970 O984 1.249 . S
C970 O985 1.202 . S
C971 C969 1.363 . S
C971 C973 1.408 . S
C971 C976 1.342 . S
C972 C973 1.310 . S
C972 C975 1.461 . S
C972 H992 0.932 . S
C973 C971 1.408 . S
C973 C972 1.310 . S
C973 H993 0.930 . S
C974 C975 1.474 . S
C974 C976 1.285 . S
C974 H994 0.929 . S
C975 C972 1.461 . S
C975 C974 1.474 . S
C976 C971 1.342 . S
C976 C974 1.285 . S
C976 H995 0.930 . S
C977 C980 1.424 . S
C977 C982 1.245 . S
C977 C983 1.428 . S
C978 C981 1.260 . S
C978 C982 1.477 . S
C978 H996 0.932 . S
C979 C980 1.384 . S
C979 C981 1.479 . S
C979 H997 0.929 . S
C980 C977 1.424 . S
C980 C979 1.384 . S
C980 H998 0.928 . S
C981 C978 1.260 . S
C981 C979 1.479 . S
C982 C977 1.245 . S
C982 C978 1.477 . S
C982 H999 0.932 . S
C983 U966 2.882 . S
C983 C977 1.428 . S
C983 O986 1.301 . S
C983 O987 1.282 . S
O984 U966 2.441 . S
O984 C970 1.249 . S
O985 U966 2.420 . S
O985 C970 1.202 . S
O986 U966 2.455 . S
O986 C983 1.301 . S
O987 U966 2.449 . S
O987 C983 1.282 . S
H988 C961 0.931 . S
H989 C963 0.929 . S
H990 C964 0.930 . S
H991 C965 0.931 . S
H992 C972 0.932 . S
H993 C973 0.930 . S
H994 C974 0.929 . S
H995 C976 0.930 . S
H996 C978 0.932 . S
H997 C979 0.929 . S
H998 C980 0.928 . S
H999 C982 0.932 . S
C1000 C1001 1.264 . S
C1000 C1005 1.479 . S
C1000 C1010 1.465 . S
C1001 C1000 1.264 . S
C1001 C1003 1.339 . S
C1001 H1028 0.931 . S
C1002 C1003 1.395 . S
C1002 C1004 1.320 . S
C1003 C1001 1.339 . S
C1003 C1002 1.395 . S
C1003 H1029 0.929 . S
C1004 C1002 1.320 . S
C1004 C1005 1.405 . S
C1004 H1030 0.930 . S
C1005 C1000 1.479 . S
C1005 C1004 1.405 . S
C1005 H1031 0.931 . S
U1006 O1007 2.454 . S
U1006 O1008 2.458 . S
U1006 C1009 2.984 . S
U1006 C1010 2.847 1_545 S
U1006 C1023 2.882 . S
U1006 O1024 2.441 1_545 S
U1006 O1025 2.420 1_545 S
U1006 O1026 2.455 . S
U1006 O1027 2.449 . S
O1007 U1006 2.454 . S
O1007 C1009 1.353 . S
O1008 U1006 2.458 . S
O1008 C1009 1.286 . S
C1009 U1006 2.984 . S
C1009 O1007 1.353 . S
C1009 O1008 1.286 . S
C1009 C1011 1.363 . S
C1010 C1000 1.465 . S
C1010 U1006 2.847 1_565 S
C1010 O1024 1.249 . S
C1010 O1025 1.202 . S
C1011 C1009 1.363 . S
C1011 C1013 1.408 . S
C1011 C1016 1.342 . S
C1012 C1013 1.310 . S
C1012 C1015 1.461 . S
C1012 H1032 0.932 . S
C1013 C1011 1.408 . S
C1013 C1012 1.310 . S
C1013 H1033 0.930 . S
C1014 C1015 1.474 . S
C1014 C1016 1.285 . S
C1014 H1034 0.929 . S
C1015 C1012 1.461 . S
C1015 C1014 1.474 . S
C1016 C1011 1.342 . S
C1016 C1014 1.285 . S
C1016 H1035 0.930 . S
C1017 C1020 1.424 . S
C1017 C1022 1.245 . S
C1017 C1023 1.428 . S
C1018 C1021 1.260 . S
C1018 C1022 1.477 . S
C1018 H1036 0.932 . S
C1019 C1020 1.384 . S
C1019 C1021 1.479 . S
C1019 H1037 0.929 . S
C1020 C1017 1.424 . S
C1020 C1019 1.384 . S
C1020 H1038 0.928 . S
C1021 C1018 1.260 . S
C1021 C1019 1.479 . S
C1022 C1017 1.245 . S
C1022 C1018 1.477 . S
C1022 H1039 0.932 . S
C1023 U1006 2.882 . S
C1023 C1017 1.428 . S
C1023 O1026 1.301 . S
C1023 O1027 1.282 . S
O1024 U1006 2.441 1_565 S
O1024 C1010 1.249 . S
O1025 U1006 2.420 1_565 S
O1025 C1010 1.202 . S
O1026 U1006 2.455 . S
O1026 C1023 1.301 . S
O1027 U1006 2.449 . S
O1027 C1023 1.282 . S
H1028 C1001 0.931 . S
H1029 C1003 0.929 . S
H1030 C1004 0.930 . S
H1031 C1005 0.931 . S
H1032 C1012 0.932 . S
H1033 C1013 0.930 . S
H1034 C1014 0.929 . S
H1035 C1016 0.930 . S
H1036 C1018 0.932 . S
H1037 C1019 0.929 . S
H1038 C1020 0.928 . S
H1039 C1022 0.932 . S
C1040 C1041 1.264 . S
C1040 C1045 1.479 . S
C1040 C1050 1.465 . S
C1041 C1040 1.264 . S
C1041 C1043 1.339 . S
C1041 H1068 0.931 . S
C1042 C1043 1.395 . S
C1042 C1044 1.320 . S
C1043 C1041 1.339 . S
C1043 C1042 1.395 . S
C1043 H1069 0.929 . S
C1044 C1042 1.320 . S
C1044 C1045 1.405 . S
C1044 H1070 0.930 . S
C1045 C1040 1.479 . S
C1045 C1044 1.405 . S
C1045 H1071 0.931 . S
U1046 O1047 2.454 . S
U1046 O1048 2.458 . S
U1046 C1049 2.984 . S
U1046 C1050 2.847 1_545 S
U1046 C1063 2.882 . S
U1046 O1064 2.441 1_545 S
U1046 O1065 2.420 1_545 S
U1046 O1066 2.455 . S
U1046 O1067 2.449 . S
O1047 U1046 2.454 . S
O1047 C1049 1.353 . S
O1048 U1046 2.458 . S
O1048 C1049 1.286 . S
C1049 U1046 2.984 . S
C1049 O1047 1.353 . S
C1049 O1048 1.286 . S
C1049 C1051 1.363 . S
C1050 C1040 1.465 . S
C1050 U1046 2.847 1_565 S
C1050 O1064 1.249 . S
C1050 O1065 1.202 . S
C1051 C1049 1.363 . S
C1051 C1053 1.408 . S
C1051 C1056 1.342 . S
C1052 C1053 1.310 . S
C1052 C1055 1.461 . S
C1052 H1072 0.932 . S
C1053 C1051 1.408 . S
C1053 C1052 1.310 . S
C1053 H1073 0.930 . S
C1054 C1055 1.474 . S
C1054 C1056 1.285 . S
C1054 H1074 0.929 . S
C1055 C1052 1.461 . S
C1055 C1054 1.474 . S
C1056 C1051 1.342 . S
C1056 C1054 1.285 . S
C1056 H1075 0.930 . S
C1057 C1060 1.424 . S
C1057 C1062 1.245 . S
C1057 C1063 1.428 . S
C1058 C1061 1.260 . S
C1058 C1062 1.477 . S
C1058 H1076 0.932 . S
C1059 C1060 1.384 . S
C1059 C1061 1.479 . S
C1059 H1077 0.929 . S
C1060 C1057 1.424 . S
C1060 C1059 1.384 . S
C1060 H1078 0.928 . S
C1061 C1058 1.260 . S
C1061 C1059 1.479 . S
C1062 C1057 1.245 . S
C1062 C1058 1.477 . S
C1062 H1079 0.932 . S
C1063 U1046 2.882 . S
C1063 C1057 1.428 . S
C1063 O1066 1.301 . S
C1063 O1067 1.282 . S
O1064 U1046 2.441 1_565 S
O1064 C1050 1.249 . S
O1065 U1046 2.420 1_565 S
O1065 C1050 1.202 . S
O1066 U1046 2.455 . S
O1066 C1063 1.301 . S
O1067 U1046 2.449 . S
O1067 C1063 1.282 . S
H1068 C1041 0.931 . S
H1069 C1043 0.929 . S
H1070 C1044 0.930 . S
H1071 C1045 0.931 . S
H1072 C1052 0.932 . S
H1073 C1053 0.930 . S
H1074 C1054 0.929 . S
H1075 C1056 0.930 . S
H1076 C1058 0.932 . S
H1077 C1059 0.929 . S
H1078 C1060 0.928 . S
H1079 C1062 0.932 . S
C1080 C1081 1.264 . S
C1080 C1085 1.479 . S
C1080 C1090 1.465 . S
C1081 C1080 1.264 . S
C1081 C1083 1.339 . S
C1081 H1108 0.931 . S
C1082 C1083 1.395 . S
C1082 C1084 1.320 . S
C1083 C1081 1.339 . S
C1083 C1082 1.395 . S
C1083 H1109 0.929 . S
C1084 C1082 1.320 . S
C1084 C1085 1.405 . S
C1084 H1110 0.930 . S
C1085 C1080 1.479 . S
C1085 C1084 1.405 . S
C1085 H1111 0.931 . S
U1086 O1087 2.454 1_556 S
U1086 O1088 2.405 1_556 S
U1086 C1089 2.984 1_556 S
U1086 C1090 2.847 . S
U1086 C1103 2.882 . S
U1086 O1104 2.441 . S
U1086 O1105 2.420 . S
U1086 O1106 2.455 . S
U1086 O1107 2.449 . S
O1087 U1086 2.454 1_554 S
O1087 C1089 1.353 . S
O1088 U1086 2.405 1_554 S
O1088 C1089 1.329 . S
C1089 U1086 2.984 1_554 S
C1089 O1087 1.353 . S
C1089 O1088 1.329 . S
C1089 C1091 1.363 . S
C1090 C1080 1.465 . S
C1090 U1086 2.847 . S
C1090 O1104 1.249 . S
C1090 O1105 1.202 . S
C1091 C1089 1.363 . S
C1091 C1093 1.408 . S
C1091 C1096 1.342 . S
C1092 C1093 1.310 . S
C1092 C1095 1.461 . S
C1092 H1112 0.932 . S
C1093 C1091 1.408 . S
C1093 C1092 1.310 . S
C1093 H1113 0.930 . S
C1094 C1095 1.474 . S
C1094 C1096 1.285 . S
C1094 H1114 0.929 . S
C1095 C1092 1.461 . S
C1095 C1094 1.474 . S
C1096 C1091 1.342 . S
C1096 C1094 1.285 . S
C1096 H1115 0.930 . S
C1097 C1100 1.424 . S
C1097 C1102 1.245 . S
C1097 C1103 1.428 . S
C1098 C1101 1.260 . S
C1098 C1102 1.477 . S
C1098 H1116 0.932 . S
C1099 C1100 1.384 . S
C1099 C1101 1.479 . S
C1099 H1117 0.929 . S
C1100 C1097 1.424 . S
C1100 C1099 1.384 . S
C1100 H1118 0.928 . S
C1101 C1098 1.260 . S
C1101 C1099 1.479 . S
C1102 C1097 1.245 . S
C1102 C1098 1.477 . S
C1102 H1119 0.932 . S
C1103 U1086 2.882 . S
C1103 C1097 1.428 . S
C1103 O1106 1.301 . S
C1103 O1107 1.282 . S
O1104 U1086 2.441 . S
O1104 C1090 1.249 . S
O1105 U1086 2.420 . S
O1105 C1090 1.202 . S
O1106 U1086 2.455 . S
O1106 C1103 1.301 . S
O1107 U1086 2.449 . S
O1107 C1103 1.282 . S
H1108 C1081 0.931 . S
H1109 C1083 0.929 . S
H1110 C1084 0.930 . S
H1111 C1085 0.931 . S
H1112 C1092 0.932 . S
H1113 C1093 0.930 . S
H1114 C1094 0.929 . S
H1115 C1096 0.930 . S
H1116 C1098 0.932 . S
H1117 C1099 0.929 . S
H1118 C1100 0.928 . S
H1119 C1102 0.932 . S
C1120 C1121 1.264 . S
C1120 C1125 1.479 . S
C1120 C1130 1.465 . S
C1121 C1120 1.264 . S
C1121 C1123 1.339 . S
C1121 H1148 0.931 . S
C1122 C1123 1.395 . S
C1122 C1124 1.320 . S
C1123 C1121 1.339 . S
C1123 C1122 1.395 . S
C1123 H1149 0.929 . S
C1124 C1122 1.320 . S
C1124 C1125 1.405 . S
C1124 H1150 0.930 . S
C1125 C1120 1.479 . S
C1125 C1124 1.405 . S
C1125 H1151 0.931 . S
U1126 O1127 2.454 . S
U1126 O1128 2.458 . S
U1126 C1129 2.984 . S
U1126 C1130 2.847 1_455 S
U1126 C1143 2.882 . S
U1126 O1144 2.441 1_455 S
U1126 O1145 2.420 1_455 S
U1126 O1146 2.455 . S
U1126 O1147 2.449 . S
O1127 U1126 2.454 . S
O1127 C1129 1.353 . S
O1128 U1126 2.458 . S
O1128 C1129 1.286 . S
C1129 U1126 2.984 . S
C1129 O1127 1.353 . S
C1129 O1128 1.286 . S
C1129 C1131 1.363 . S
C1130 C1120 1.465 . S
C1130 U1126 2.847 1_655 S
C1130 O1144 1.249 . S
C1130 O1145 1.202 . S
C1131 C1129 1.363 . S
C1131 C1133 1.408 . S
C1131 C1136 1.342 . S
C1132 C1133 1.310 . S
C1132 C1135 1.461 . S
C1132 H1152 0.932 . S
C1133 C1131 1.408 . S
C1133 C1132 1.310 . S
C1133 H1153 0.930 . S
C1134 C1135 1.474 . S
C1134 C1136 1.285 . S
C1134 H1154 0.929 . S
C1135 C1132 1.461 . S
C1135 C1134 1.474 . S
C1136 C1131 1.342 . S
C1136 C1134 1.285 . S
C1136 H1155 0.930 . S
C1137 C1140 1.424 . S
C1137 C1142 1.245 . S
C1137 C1143 1.428 . S
C1138 C1141 1.260 . S
C1138 C1142 1.477 . S
C1138 H1156 0.932 . S
C1139 C1140 1.384 . S
C1139 C1141 1.479 . S
C1139 H1157 0.929 . S
C1140 C1137 1.424 . S
C1140 C1139 1.384 . S
C1140 H1158 0.928 . S
C1141 C1138 1.260 . S
C1141 C1139 1.479 . S
C1142 C1137 1.245 . S
C1142 C1138 1.477 . S
C1142 H1159 0.932 . S
C1143 U1126 2.882 . S
C1143 C1137 1.428 . S
C1143 O1146 1.301 . S
C1143 O1147 1.282 . S
O1144 U1126 2.441 1_655 S
O1144 C1130 1.249 . S
O1145 U1126 2.420 1_655 S
O1145 C1130 1.202 . S
O1146 U1126 2.455 . S
O1146 C1143 1.301 . S
O1147 U1126 2.449 . S
O1147 C1143 1.282 . S
H1148 C1121 0.931 . S
H1149 C1123 0.929 . S
H1150 C1124 0.930 . S
H1151 C1125 0.931 . S
H1152 C1132 0.932 . S
H1153 C1133 0.930 . S
H1154 C1134 0.929 . S
H1155 C1136 0.930 . S
H1156 C1138 0.932 . S
H1157 C1139 0.929 . S
H1158 C1140 0.928 . S
H1159 C1142 0.932 . S
C1160 C1161 1.264 . S
C1160 C1165 1.479 . S
C1160 C1170 1.465 . S
C1161 C1160 1.264 . S
C1161 C1163 1.339 . S
C1161 H1188 0.931 . S
C1162 C1163 1.395 . S
C1162 C1164 1.320 . S
C1163 C1161 1.339 . S
C1163 C1162 1.395 . S
C1163 H1189 0.929 . S
C1164 C1162 1.320 . S
C1164 C1165 1.405 . S
C1164 H1190 0.930 . S
C1165 C1160 1.479 . S
C1165 C1164 1.405 . S
C1165 H1191 0.931 . S
U1166 O1167 2.454 . S
U1166 O1168 2.458 . S
U1166 C1169 2.984 . S
U1166 C1170 2.847 . S
U1166 C1183 2.882 . S
U1166 O1184 2.441 . S
U1166 O1185 2.420 . S
U1166 O1186 2.455 . S
U1166 O1187 2.449 . S
O1167 U1166 2.454 . S
O1167 C1169 1.353 . S
O1168 U1166 2.458 . S
O1168 C1169 1.286 . S
C1169 U1166 2.984 . S
C1169 O1167 1.353 . S
C1169 O1168 1.286 . S
C1169 C1171 1.363 . S
C1170 C1160 1.465 . S
C1170 U1166 2.847 . S
C1170 O1184 1.249 . S
C1170 O1185 1.202 . S
C1171 C1169 1.363 . S
C1171 C1173 1.408 . S
C1171 C1176 1.342 . S
C1172 C1173 1.310 . S
C1172 C1175 1.461 . S
C1172 H1192 0.932 . S
C1173 C1171 1.408 . S
C1173 C1172 1.310 . S
C1173 H1193 0.930 . S
C1174 C1175 1.474 . S
C1174 C1176 1.285 . S
C1174 H1194 0.929 . S
C1175 C1172 1.461 . S
C1175 C1174 1.474 . S
C1176 C1171 1.342 . S
C1176 C1174 1.285 . S
C1176 H1195 0.930 . S
C1177 C1180 1.424 . S
C1177 C1182 1.245 . S
C1177 C1183 1.428 . S
C1178 C1181 1.260 . S
C1178 C1182 1.477 . S
C1178 H1196 0.932 . S
C1179 C1180 1.384 . S
C1179 C1181 1.479 . S
C1179 H1197 0.929 . S
C1180 C1177 1.424 . S
C1180 C1179 1.384 . S
C1180 H1198 0.928 . S
C1181 C1178 1.260 . S
C1181 C1179 1.479 . S
C1182 C1177 1.245 . S
C1182 C1178 1.477 . S
C1182 H1199 0.932 . S
C1183 U1166 2.882 . S
C1183 C1177 1.428 . S
C1183 O1186 1.301 . S
C1183 O1187 1.282 . S
O1184 U1166 2.441 . S
O1184 C1170 1.249 . S
O1185 U1166 2.420 . S
O1185 C1170 1.202 . S
O1186 U1166 2.455 . S
O1186 C1183 1.301 . S
O1187 U1166 2.449 . S
O1187 C1183 1.282 . S
H1188 C1161 0.931 . S
H1189 C1163 0.929 . S
H1190 C1164 0.930 . S
H1191 C1165 0.931 . S
H1192 C1172 0.932 . S
H1193 C1173 0.930 . S
H1194 C1174 0.929 . S
H1195 C1176 0.930 . S
H1196 C1178 0.932 . S
H1197 C1179 0.929 . S
H1198 C1180 0.928 . S
H1199 C1182 0.932 . S
C1200 C1201 1.264 . S
C1200 C1205 1.479 . S
C1200 C1210 1.465 . S
C1201 C1200 1.264 . S
C1201 C1203 1.339 . S
C1201 H1228 0.931 . S
C1202 C1203 1.395 . S
C1202 C1204 1.320 . S
C1203 C1201 1.339 . S
C1203 C1202 1.395 . S
C1203 H1229 0.929 . S
C1204 C1202 1.320 . S
C1204 C1205 1.405 . S
C1204 H1230 0.930 . S
C1205 C1200 1.479 . S
C1205 C1204 1.405 . S
C1205 H1231 0.931 . S
U1206 O1207 2.454 . S
U1206 O1208 2.458 . S
U1206 C1209 2.984 . S
U1206 C1210 2.847 . S
U1206 C1223 2.882 . S
U1206 O1224 2.441 . S
U1206 O1225 2.420 . S
U1206 O1226 2.455 . S
U1206 O1227 2.449 . S
O1207 U1206 2.454 . S
O1207 C1209 1.353 . S
O1208 U1206 2.458 . S
O1208 C1209 1.286 . S
C1209 U1206 2.984 . S
C1209 O1207 1.353 . S
C1209 O1208 1.286 . S
C1209 C1211 1.363 . S
C1210 C1200 1.465 . S
C1210 U1206 2.847 . S
C1210 O1224 1.249 . S
C1210 O1225 1.202 . S
C1211 C1209 1.363 . S
C1211 C1213 1.408 . S
C1211 C1216 1.342 . S
C1212 C1213 1.310 . S
C1212 C1215 1.461 . S
C1212 H1232 0.932 . S
C1213 C1211 1.408 . S
C1213 C1212 1.310 . S
C1213 H1233 0.930 . S
C1214 C1215 1.474 . S
C1214 C1216 1.285 . S
C1214 H1234 0.929 . S
C1215 C1212 1.461 . S
C1215 C1214 1.474 . S
C1216 C1211 1.342 . S
C1216 C1214 1.285 . S
C1216 H1235 0.930 . S
C1217 C1220 1.424 . S
C1217 C1222 1.245 . S
C1217 C1223 1.428 . S
C1218 C1221 1.260 . S
C1218 C1222 1.477 . S
C1218 H1236 0.932 . S
C1219 C1220 1.384 . S
C1219 C1221 1.479 . S
C1219 H1237 0.929 . S
C1220 C1217 1.424 . S
C1220 C1219 1.384 . S
C1220 H1238 0.928 . S
C1221 C1218 1.260 . S
C1221 C1219 1.479 . S
C1222 C1217 1.245 . S
C1222 C1218 1.477 . S
C1222 H1239 0.932 . S
C1223 U1206 2.882 . S
C1223 C1217 1.428 . S
C1223 O1226 1.301 . S
C1223 O1227 1.282 . S
O1224 U1206 2.441 . S
O1224 C1210 1.249 . S
O1225 U1206 2.420 . S
O1225 C1210 1.202 . S
O1226 U1206 2.455 . S
O1226 C1223 1.301 . S
O1227 U1206 2.449 . S
O1227 C1223 1.282 . S
H1228 C1201 0.931 . S
H1229 C1203 0.929 . S
H1230 C1204 0.930 . S
H1231 C1205 0.931 . S
H1232 C1212 0.932 . S
H1233 C1213 0.930 . S
H1234 C1214 0.929 . S
H1235 C1216 0.930 . S
H1236 C1218 0.932 . S
H1237 C1219 0.929 . S
H1238 C1220 0.928 . S
H1239 C1222 0.932 . S
C1240 C1241 1.264 . S
C1240 C1245 1.479 . S
C1240 C1250 1.465 . S
C1241 C1240 1.264 . S
C1241 C1243 1.339 . S
C1241 H1268 0.931 . S
C1242 C1243 1.395 . S
C1242 C1244 1.320 . S
C1243 C1241 1.339 . S
C1243 C1242 1.395 . S
C1243 H1269 0.929 . S
C1244 C1242 1.320 . S
C1244 C1245 1.405 . S
C1244 H1270 0.930 . S
C1245 C1240 1.479 . S
C1245 C1244 1.405 . S
C1245 H1271 0.931 . S
U1246 O1247 2.454 . S
U1246 O1248 2.458 . S
U1246 C1249 2.984 . S
U1246 C1250 2.847 . S
U1246 C1263 2.882 . S
U1246 O1264 2.441 . S
U1246 O1265 2.420 . S
U1246 O1266 2.455 . S
U1246 O1267 2.449 . S
O1247 U1246 2.454 . S
O1247 C1249 1.353 . S
O1248 U1246 2.458 . S
O1248 C1249 1.286 . S
C1249 U1246 2.984 . S
C1249 O1247 1.353 . S
C1249 O1248 1.286 . S
C1249 C1251 1.440 . S
C1250 C1240 1.465 . S
C1250 U1246 2.847 . S
C1250 O1264 1.249 . S
C1250 O1265 1.202 . S
C1251 C1249 1.440 . S
C1251 C1253 1.339 1_655 S
C1251 C1256 1.341 . S
C1252 C1253 1.310 . S
C1252 C1255 1.461 . S
C1252 H1272 0.932 . S
C1253 C1251 1.339 1_455 S
C1253 C1252 1.310 . S
C1253 H1273 0.930 . S
C1254 C1255 1.474 . S
C1254 C1256 1.255 1_455 S
C1254 H1274 0.929 . S
C1255 C1252 1.461 . S
C1255 C1254 1.474 . S
C1256 C1251 1.341 . S
C1256 C1254 1.255 1_655 S
C1256 H1275 0.960 . S
C1257 C1260 1.424 . S
C1257 C1262 1.245 . S
C1257 C1263 1.428 . S
C1258 C1261 1.260 . S
C1258 C1262 1.477 . S
C1258 H1276 0.932 . S
C1259 C1260 1.384 . S
C1259 C1261 1.479 . S
C1259 H1277 0.929 . S
C1260 C1257 1.424 . S
C1260 C1259 1.384 . S
C1260 H1278 0.928 . S
C1261 C1258 1.260 . S
C1261 C1259 1.479 . S
C1262 C1257 1.245 . S
C1262 C1258 1.477 . S
C1262 H1279 0.932 . S
C1263 U1246 2.882 . S
C1263 C1257 1.428 . S
C1263 O1266 1.301 . S
C1263 O1267 1.282 . S
O1264 U1246 2.441 . S
O1264 C1250 1.249 . S
O1265 U1246 2.420 . S
O1265 C1250 1.202 . S
O1266 U1246 2.455 . S
O1266 C1263 1.301 . S
O1267 U1246 2.449 . S
O1267 C1263 1.282 . S
H1268 C1241 0.931 . S
H1269 C1243 0.929 . S
H1270 C1244 0.930 . S
H1271 C1245 0.931 . S
H1272 C1252 0.932 . S
H1273 C1253 0.930 . S
H1274 C1254 0.929 . S
H1275 C1256 0.960 . S
H1276 C1258 0.932 . S
H1277 C1259 0.929 . S
H1278 C1260 0.928 . S
H1279 C1262 0.932 . S
C1280 C1281 1.264 . S
C1280 C1285 1.479 . S
C1280 C1290 1.465 . S
C1281 C1280 1.264 . S
C1281 C1283 1.339 . S
C1281 H1308 0.931 . S
C1282 C1283 1.395 . S
C1282 C1284 1.320 . S
C1283 C1281 1.339 . S
C1283 C1282 1.395 . S
C1283 H1309 0.929 . S
C1284 C1282 1.320 . S
C1284 C1285 1.405 . S
C1284 H1310 0.930 . S
C1285 C1280 1.479 . S
C1285 C1284 1.405 . S
C1285 H1311 0.931 . S
U1286 O1287 2.454 . S
U1286 O1288 2.458 . S
U1286 C1289 2.984 . S
U1286 C1290 2.847 . S
U1286 C1303 2.882 . S
U1286 O1304 2.441 . S
U1286 O1305 2.420 . S
U1286 O1306 2.455 . S
U1286 O1307 2.449 . S
O1287 U1286 2.454 . S
O1287 C1289 1.353 . S
O1288 U1286 2.458 . S
O1288 C1289 1.286 . S
C1289 U1286 2.984 . S
C1289 O1287 1.353 . S
C1289 O1288 1.286 . S
C1289 C1291 1.363 . S
C1290 C1280 1.465 . S
C1290 U1286 2.847 . S
C1290 O1304 1.249 . S
C1290 O1305 1.202 . S
C1291 C1289 1.363 . S
C1291 C1293 1.408 . S
C1291 C1296 1.342 . S
C1292 C1293 1.310 . S
C1292 C1295 1.461 . S
C1292 H1312 0.932 . S
C1293 C1291 1.408 . S
C1293 C1292 1.310 . S
C1293 H1313 0.930 . S
C1294 C1295 1.474 . S
C1294 C1296 1.285 . S
C1294 H1314 0.929 . S
C1295 C1292 1.461 . S
C1295 C1294 1.474 . S
C1296 C1291 1.342 . S
C1296 C1294 1.285 . S
C1296 H1315 0.930 . S
C1297 C1300 1.424 . S
C1297 C1302 1.245 . S
C1297 C1303 1.428 . S
C1298 C1301 1.260 . S
C1298 C1302 1.477 . S
C1298 H1316 0.932 . S
C1299 C1300 1.384 . S
C1299 C1301 1.479 . S
C1299 H1317 0.929 . S
C1300 C1297 1.424 . S
C1300 C1299 1.384 . S
C1300 H1318 0.928 . S
C1301 C1298 1.260 . S
C1301 C1299 1.479 . S
C1302 C1297 1.245 . S
C1302 C1298 1.477 . S
C1302 H1319 0.932 . S
C1303 U1286 2.882 . S
C1303 C1297 1.428 . S
C1303 O1306 1.301 . S
C1303 O1307 1.282 . S
O1304 U1286 2.441 . S
O1304 C1290 1.249 . S
O1305 U1286 2.420 . S
O1305 C1290 1.202 . S
O1306 U1286 2.455 . S
O1306 C1303 1.301 . S
O1307 U1286 2.449 . S
O1307 C1303 1.282 . S
H1308 C1281 0.931 . S
H1309 C1283 0.929 . S
H1310 C1284 0.930 . S
H1311 C1285 0.931 . S
H1312 C1292 0.932 . S
H1313 C1293 0.930 . S
H1314 C1294 0.929 . S
H1315 C1296 0.930 . S
H1316 C1298 0.932 . S
H1317 C1299 0.929 . S
H1318 C1300 0.928 . S
H1319 C1302 0.932 . S
C1320 C1321 1.264 . S
C1320 C1325 1.479 . S
C1320 C1330 1.465 . S
C1321 C1320 1.264 . S
C1321 C1323 1.339 . S
C1321 H1348 0.931 . S
C1322 C1323 1.395 . S
C1322 C1324 1.320 . S
C1323 C1321 1.339 . S
C1323 C1322 1.395 . S
C1323 H1349 0.929 . S
C1324 C1322 1.320 . S
C1324 C1325 1.405 . S
C1324 H1350 0.930 . S
C1325 C1320 1.479 . S
C1325 C1324 1.405 . S
C1325 H1351 0.931 . S
U1326 O1327 2.454 . S
U1326 O1328 2.458 . S
U1326 C1329 2.984 . S
U1326 C1330 2.847 . S
U1326 C1343 2.882 . S
U1326 O1344 2.441 . S
U1326 O1345 2.420 . S
U1326 O1346 2.455 . S
U1326 O1347 2.449 . S
O1327 U1326 2.454 . S
O1327 C1329 1.353 . S
O1328 U1326 2.458 . S
O1328 C1329 1.286 . S
C1329 U1326 2.984 . S
C1329 O1327 1.353 . S
C1329 O1328 1.286 . S
C1329 C1331 1.363 . S
C1330 C1320 1.465 . S
C1330 U1326 2.847 . S
C1330 O1344 1.249 . S
C1330 O1345 1.202 . S
C1331 C1329 1.363 . S
C1331 C1333 1.408 1_556 S
C1331 C1336 1.342 . S
C1332 C1333 1.310 . S
C1332 C1335 1.461 . S
C1332 H1352 0.932 . S
C1333 C1331 1.408 1_554 S
C1333 C1332 1.310 . S
C1333 H1353 0.937 . S
C1334 C1335 1.474 . S
C1334 C1336 1.285 1_554 S
C1334 H1354 0.929 . S
C1335 C1332 1.461 . S
C1335 C1334 1.474 . S
C1336 C1331 1.342 . S
C1336 C1334 1.285 1_556 S
C1336 H1355 0.930 . S
C1337 C1340 1.424 . S
C1337 C1342 1.245 . S
C1337 C1343 1.428 . S
C1338 C1341 1.260 . S
C1338 C1342 1.477 . S
C1338 H1356 0.932 . S
C1339 C1340 1.384 . S
C1339 C1341 1.479 . S
C1339 H1357 0.929 . S
C1340 C1337 1.424 . S
C1340 C1339 1.384 . S
C1340 H1358 0.928 . S
C1341 C1338 1.260 . S
C1341 C1339 1.479 . S
C1342 C1337 1.245 . S
C1342 C1338 1.477 . S
C1342 H1359 0.932 . S
C1343 U1326 2.882 . S
C1343 C1337 1.428 . S
C1343 O1346 1.301 . S
C1343 O1347 1.282 . S
O1344 U1326 2.441 . S
O1344 C1330 1.249 . S
O1345 U1326 2.420 . S
O1345 C1330 1.202 . S
O1346 U1326 2.455 . S
O1346 C1343 1.301 . S
O1347 U1326 2.449 . S
O1347 C1343 1.282 . S
H1348 C1321 0.931 . S
H1349 C1323 0.929 . S
H1350 C1324 0.930 . S
H1351 C1325 0.931 . S
H1352 C1332 0.932 . S
H1353 C1333 0.937 . S
H1354 C1334 0.929 . S
H1355 C1336 0.930 . S
H1356 C1338 0.932 . S
H1357 C1339 0.929 . S
H1358 C1340 0.928 . S
H1359 C1342 0.932 . S
C1360 C1361 1.264 . S
C1360 C1365 1.479 . S
C1360 C1370 1.465 . S
C1361 C1360 1.264 . S
C1361 C1363 1.339 . S
C1361 H1388 0.931 . S
C1362 C1363 1.395 . S
C1362 C1364 1.320 . S
C1363 C1361 1.339 . S
C1363 C1362 1.395 . S
C1363 H1389 0.929 . S
C1364 C1362 1.320 . S
C1364 C1365 1.405 . S
C1364 H1390 0.930 . S
C1365 C1360 1.479 . S
C1365 C1364 1.405 . S
C1365 H1391 0.931 . S
U1366 O1367 2.454 . S
U1366 O1368 2.458 . S
U1366 C1369 2.984 . S
U1366 C1370 2.847 . S
U1366 C1383 2.882 . S
U1366 O1384 2.441 . S
U1366 O1385 2.420 . S
U1366 O1386 2.455 . S
U1366 O1387 2.449 . S
O1367 U1366 2.454 . S
O1367 C1369 1.353 . S
O1368 U1366 2.458 . S
O1368 C1369 1.286 . S
C1369 U1366 2.984 . S
C1369 O1367 1.353 . S
C1369 O1368 1.286 . S
C1369 C1371 1.363 . S
C1370 C1360 1.465 . S
C1370 U1366 2.847 . S
C1370 O1384 1.249 . S
C1370 O1385 1.202 . S
C1371 C1369 1.363 . S
C1371 C1373 1.408 . S
C1371 C1376 1.342 . S
C1372 C1373 1.310 . S
C1372 C1375 1.461 . S
C1372 H1392 0.932 . S
C1373 C1371 1.408 . S
C1373 C1372 1.310 . S
C1373 H1393 0.930 . S
C1374 C1375 1.474 . S
C1374 C1376 1.285 . S
C1374 H1394 0.929 . S
C1375 C1372 1.461 . S
C1375 C1374 1.474 . S
C1376 C1371 1.342 . S
C1376 C1374 1.285 . S
C1376 H1395 0.930 . S
C1377 C1380 1.424 . S
C1377 C1382 1.245 . S
C1377 C1383 1.428 . S
C1378 C1381 1.260 . S
C1378 C1382 1.477 . S
C1378 H1396 0.932 . S
C1379 C1380 1.384 . S
C1379 C1381 1.479 . S
C1379 H1397 0.929 . S
C1380 C1377 1.424 . S
C1380 C1379 1.384 . S
C1380 H1398 0.928 . S
C1381 C1378 1.260 . S
C1381 C1379 1.479 . S
C1382 C1377 1.245 . S
C1382 C1378 1.477 . S
C1382 H1399 0.932 . S
C1383 U1366 2.882 . S
C1383 C1377 1.428 . S
C1383 O1386 1.301 . S
C1383 O1387 1.282 . S
O1384 U1366 2.441 . S
O1384 C1370 1.249 . S
O1385 U1366 2.420 . S
O1385 C1370 1.202 . S
O1386 U1366 2.455 . S
O1386 C1383 1.301 . S
O1387 U1366 2.449 . S
O1387 C1383 1.282 . S
H1388 C1361 0.931 . S
H1389 C1363 0.929 . S
H1390 C1364 0.930 . S
H1391 C1365 0.931 . S
H1392 C1372 0.932 . S
H1393 C1373 0.930 . S
H1394 C1374 0.929 . S
H1395 C1376 0.930 . S
H1396 C1378 0.932 . S
H1397 C1379 0.929 . S
H1398 C1380 0.928 . S
H1399 C1382 0.932 . S
C1400 C1401 1.264 . S
C1400 C1405 1.479 . S
C1400 C1410 1.465 . S
C1401 C1400 1.264 . S
C1401 C1403 1.339 . S
C1401 H1428 0.931 . S
C1402 C1403 1.395 . S
C1402 C1404 1.320 . S
C1403 C1401 1.339 . S
C1403 C1402 1.395 . S
C1403 H1429 0.929 . S
C1404 C1402 1.320 . S
C1404 C1405 1.405 . S
C1404 H1430 0.930 . S
C1405 C1400 1.479 . S
C1405 C1404 1.405 . S
C1405 H1431 0.931 . S
U1406 O1407 2.454 . S
U1406 O1408 2.458 . S
U1406 C1409 2.984 . S
U1406 C1410 2.847 . S
U1406 C1423 2.882 . S
U1406 O1424 2.441 . S
U1406 O1425 2.420 . S
U1406 O1426 2.455 . S
U1406 O1427 2.449 . S
O1407 U1406 2.454 . S
O1407 C1409 1.353 . S
O1408 U1406 2.458 . S
O1408 C1409 1.286 . S
C1409 U1406 2.984 . S
C1409 O1407 1.353 . S
C1409 O1408 1.286 . S
C1409 C1411 1.363 . S
C1410 C1400 1.465 . S
C1410 U1406 2.847 . S
C1410 O1424 1.249 . S
C1410 O1425 1.202 . S
C1411 C1409 1.363 . S
C1411 C1413 1.408 . S
C1411 C1416 1.342 . S
C1412 C1413 1.310 . S
C1412 C1415 1.461 . S
C1412 H1432 0.932 . S
C1413 C1411 1.408 . S
C1413 C1412 1.310 . S
C1413 H1433 0.930 . S
C1414 C1415 1.474 . S
C1414 C1416 1.285 . S
C1414 H1434 0.929 . S
C1415 C1412 1.461 . S
C1415 C1414 1.474 . S
C1416 C1411 1.342 . S
C1416 C1414 1.285 . S
C1416 H1435 0.930 . S
C1417 C1420 1.424 . S
C1417 C1422 1.245 . S
C1417 C1423 1.428 . S
C1418 C1421 1.260 . S
C1418 C1422 1.477 . S
C1418 H1436 0.932 . S
C1419 C1420 1.384 . S
C1419 C1421 1.479 . S
C1419 H1437 0.929 . S
C1420 C1417 1.424 . S
C1420 C1419 1.384 . S
C1420 H1438 0.928 . S
C1421 C1418 1.260 . S
C1421 C1419 1.479 . S
C1422 C1417 1.245 . S
C1422 C1418 1.477 . S
C1422 H1439 0.932 . S
C1423 U1406 2.882 . S
C1423 C1417 1.428 . S
C1423 O1426 1.301 . S
C1423 O1427 1.282 . S
O1424 U1406 2.441 . S
O1424 C1410 1.249 . S
O1425 U1406 2.420 . S
O1425 C1410 1.202 . S
O1426 U1406 2.455 . S
O1426 C1423 1.301 . S
O1427 U1406 2.449 . S
O1427 C1423 1.282 . S
H1428 C1401 0.931 . S
H1429 C1403 0.929 . S
H1430 C1404 0.930 . S
H1431 C1405 0.931 . S
H1432 C1412 0.932 . S
H1433 C1413 0.930 . S
H1434 C1414 0.929 . S
H1435 C1416 0.930 . S
H1436 C1418 0.932 . S
H1437 C1419 0.929 . S
H1438 C1420 0.928 . S
H1439 C1422 0.932 . S
C1440 C1441 1.264 . S
C1440 C1445 1.479 . S
C1440 C1450 1.465 . S
C1441 C1440 1.264 . S
C1441 C1443 1.339 . S
C1441 H1468 0.931 . S
C1442 C1443 1.395 . S
C1442 C1444 1.320 . S
C1443 C1441 1.339 . S
C1443 C1442 1.395 . S
C1443 H1469 0.929 . S
C1444 C1442 1.320 . S
C1444 C1445 1.405 . S
C1444 H1470 0.930 . S
C1445 C1440 1.479 . S
C1445 C1444 1.405 . S
C1445 H1471 0.931 . S
U1446 O1447 2.454 . S
U1446 O1448 2.458 . S
U1446 C1449 2.984 . S
U1446 C1450 2.847 . S
U1446 C1463 2.882 . S
U1446 O1464 2.441 . S
U1446 O1465 2.420 . S
U1446 O1466 2.455 . S
U1446 O1467 2.449 . S
O1447 U1446 2.454 . S
O1447 C1449 1.353 . S
O1448 U1446 2.458 . S
O1448 C1449 1.286 . S
C1449 U1446 2.984 . S
C1449 O1447 1.353 . S
C1449 O1448 1.286 . S
C1449 C1451 1.363 . S
C1450 C1440 1.465 . S
C1450 U1446 2.847 . S
C1450 O1464 1.249 . S
C1450 O1465 1.202 . S
C1451 C1449 1.363 . S
C1451 C1453 1.408 . S
C1451 C1456 1.342 . S
C1452 C1453 1.310 . S
C1452 C1455 1.461 . S
C1452 H1472 0.932 . S
C1453 C1451 1.408 . S
C1453 C1452 1.310 . S
C1453 H1473 0.930 . S
C1454 C1455 1.474 . S
C1454 C1456 1.285 . S
C1454 H1474 0.929 . S
C1455 C1452 1.461 . S
C1455 C1454 1.474 . S
C1456 C1451 1.342 . S
C1456 C1454 1.285 . S
C1456 H1475 0.930 . S
C1457 C1460 1.424 . S
C1457 C1462 1.245 . S
C1457 C1463 1.428 . S
C1458 C1461 1.260 . S
C1458 C1462 1.477 . S
C1458 H1476 0.932 . S
C1459 C1460 1.384 . S
C1459 C1461 1.479 . S
C1459 H1477 0.929 . S
C1460 C1457 1.424 . S
C1460 C1459 1.384 . S
C1460 H1478 0.928 . S
C1461 C1458 1.260 . S
C1461 C1459 1.479 . S
C1462 C1457 1.245 . S
C1462 C1458 1.477 . S
C1462 H1479 0.932 . S
C1463 U1446 2.882 . S
C1463 C1457 1.428 . S
C1463 O1466 1.301 . S
C1463 O1467 1.282 . S
O1464 U1446 2.441 . S
O1464 C1450 1.249 . S
O1465 U1446 2.420 . S
O1465 C1450 1.202 . S
O1466 U1446 2.455 . S
O1466 C1463 1.301 . S
O1467 U1446 2.449 . S
O1467 C1463 1.282 . S
H1468 C1441 0.931 . S
H1469 C1443 0.929 . S
H1470 C1444 0.930 . S
H1471 C1445 0.931 . S
H1472 C1452 0.932 . S
H1473 C1453 0.930 . S
H1474 C1454 0.929 . S
H1475 C1456 0.930 . S
H1476 C1458 0.932 . S
H1477 C1459 0.929 . S
H1478 C1460 0.928 . S
H1479 C1462 0.932 . S
C1480 C1481 1.264 . S
C1480 C1485 1.479 . S
C1480 C1490 1.465 . S
C1481 C1480 1.264 . S
C1481 C1483 1.339 . S
C1481 H1508 0.931 . S
C1482 C1483 1.395 . S
C1482 C1484 1.320 . S
C1483 C1481 1.339 . S
C1483 C1482 1.395 . S
C1483 H1509 0.929 . S
C1484 C1482 1.320 . S
C1484 C1485 1.405 . S
C1484 H1510 0.930 . S
C1485 C1480 1.479 . S
C1485 C1484 1.405 . S
C1485 H1511 0.931 . S
U1486 O1487 2.454 . S
U1486 O1488 2.458 . S
U1486 C1489 2.984 . S
U1486 C1490 2.847 . S
U1486 C1503 2.882 . S
U1486 O1504 2.441 . S
U1486 O1505 2.420 . S
U1486 O1506 2.455 . S
U1486 O1507 2.449 . S
O1487 U1486 2.454 . S
O1487 C1489 1.353 . S
O1488 U1486 2.458 . S
O1488 C1489 1.286 . S
C1489 U1486 2.984 . S
C1489 O1487 1.353 . S
C1489 O1488 1.286 . S
C1489 C1491 1.363 . S
C1490 C1480 1.465 . S
C1490 U1486 2.847 . S
C1490 O1504 1.249 . S
C1490 O1505 1.202 . S
C1491 C1489 1.363 . S
C1491 C1493 1.408 . S
C1491 C1496 1.342 . S
C1492 C1493 1.310 . S
C1492 C1495 1.461 . S
C1492 H1512 0.932 . S
C1493 C1491 1.408 . S
C1493 C1492 1.310 . S
C1493 H1513 0.930 . S
C1494 C1495 1.474 . S
C1494 C1496 1.285 . S
C1494 H1514 0.929 . S
C1495 C1492 1.461 . S
C1495 C1494 1.474 . S
C1496 C1491 1.342 . S
C1496 C1494 1.285 . S
C1496 H1515 0.930 . S
C1497 C1500 1.424 . S
C1497 C1502 1.245 . S
C1497 C1503 1.428 . S
C1498 C1501 1.260 . S
C1498 C1502 1.477 . S
C1498 H1516 0.932 . S
C1499 C1500 1.384 . S
C1499 C1501 1.479 . S
C1499 H1517 0.929 . S
C1500 C1497 1.424 . S
C1500 C1499 1.384 . S
C1500 H1518 0.928 . S
C1501 C1498 1.260 . S
C1501 C1499 1.479 . S
C1502 C1497 1.245 . S
C1502 C1498 1.477 . S
C1502 H1519 0.932 . S
C1503 U1486 2.882 . S
C1503 C1497 1.428 . S
C1503 O1506 1.301 . S
C1503 O1507 1.282 . S
O1504 U1486 2.441 . S
O1504 C1490 1.249 . S
O1505 U1486 2.420 . S
O1505 C1490 1.202 . S
O1506 U1486 2.455 . S
O1506 C1503 1.301 . S
O1507 U1486 2.449 . S
O1507 C1503 1.282 . S
H1508 C1481 0.931 . S
H1509 C1483 0.929 . S
H1510 C1484 0.930 . S
H1511 C1485 0.931 . S
H1512 C1492 0.932 . S
H1513 C1493 0.930 . S
H1514 C1494 0.929 . S
H1515 C1496 0.930 . S
H1516 C1498 0.932 . S
H1517 C1499 0.929 . S
H1518 C1500 0.928 . S
H1519 C1502 0.932 . S
C1520 C1521 1.264 . S
C1520 C1525 1.479 . S
C1520 C1530 1.465 . S
C1521 C1520 1.264 . S
C1521 C1523 1.339 . S
C1521 H1548 0.931 . S
C1522 C1523 1.395 . S
C1522 C1524 1.320 . S
C1523 C1521 1.339 . S
C1523 C1522 1.395 . S
C1523 H1549 0.929 . S
C1524 C1522 1.320 . S
C1524 C1525 1.405 . S
C1524 H1550 0.930 . S
C1525 C1520 1.479 . S
C1525 C1524 1.405 . S
C1525 H1551 0.931 . S
U1526 O1527 2.454 . S
U1526 O1528 2.458 . S
U1526 C1529 2.984 . S
U1526 C1530 2.847 . S
U1526 C1543 2.882 . S
U1526 O1544 2.441 . S
U1526 O1545 2.420 . S
U1526 O1546 2.455 . S
U1526 O1547 2.449 . S
O1527 U1526 2.454 . S
O1527 C1529 1.353 . S
O1528 U1526 2.458 . S
O1528 C1529 1.286 . S
C1529 U1526 2.984 . S
C1529 O1527 1.353 . S
C1529 O1528 1.286 . S
C1529 C1531 1.363 . S
C1530 C1520 1.465 . S
C1530 U1526 2.847 . S
C1530 O1544 1.249 . S
C1530 O1545 1.202 . S
C1531 C1529 1.363 . S
C1531 C1533 1.408 . S
C1531 C1536 1.342 . S
C1532 C1533 1.310 . S
C1532 C1535 1.461 . S
C1532 H1552 0.932 . S
C1533 C1531 1.408 . S
C1533 C1532 1.310 . S
C1533 H1553 0.930 . S
C1534 C1535 1.474 . S
C1534 C1536 1.285 . S
C1534 H1554 0.929 . S
C1535 C1532 1.461 . S
C1535 C1534 1.474 . S
C1536 C1531 1.342 . S
C1536 C1534 1.285 . S
C1536 H1555 0.930 . S
C1537 C1540 1.424 . S
C1537 C1542 1.245 . S
C1537 C1543 1.428 . S
C1538 C1541 1.260 . S
C1538 C1542 1.477 . S
C1538 H1556 0.932 . S
C1539 C1540 1.384 . S
C1539 C1541 1.479 . S
C1539 H1557 0.929 . S
C1540 C1537 1.424 . S
C1540 C1539 1.384 . S
C1540 H1558 0.928 . S
C1541 C1538 1.260 . S
C1541 C1539 1.479 . S
C1542 C1537 1.245 . S
C1542 C1538 1.477 . S
C1542 H1559 0.932 . S
C1543 U1526 2.882 . S
C1543 C1537 1.428 . S
C1543 O1546 1.301 . S
C1543 O1547 1.282 . S
O1544 U1526 2.441 . S
O1544 C1530 1.249 . S
O1545 U1526 2.420 . S
O1545 C1530 1.202 . S
O1546 U1526 2.455 . S
O1546 C1543 1.301 . S
O1547 U1526 2.449 . S
O1547 C1543 1.282 . S
H1548 C1521 0.931 . S
H1549 C1523 0.929 . S
H1550 C1524 0.930 . S
H1551 C1525 0.931 . S
H1552 C1532 0.932 . S
H1553 C1533 0.930 . S
H1554 C1534 0.929 . S
H1555 C1536 0.930 . S
H1556 C1538 0.932 . S
H1557 C1539 0.929 . S
H1558 C1540 0.928 . S
H1559 C1542 0.932 . S
C1560 C1561 1.264 . S
C1560 C1565 1.479 . S
C1560 C1570 1.465 . S
C1561 C1560 1.264 . S
C1561 C1563 1.339 . S
C1561 H1588 0.931 . S
C1562 C1563 1.395 . S
C1562 C1564 1.320 . S
C1563 C1561 1.339 . S
C1563 C1562 1.395 . S
C1563 H1589 0.929 . S
C1564 C1562 1.320 . S
C1564 C1565 1.405 . S
C1564 H1590 0.930 . S
C1565 C1560 1.479 . S
C1565 C1564 1.405 . S
C1565 H1591 0.931 . S
U1566 O1567 2.454 . S
U1566 O1568 2.458 . S
U1566 C1569 2.984 . S
U1566 C1570 2.847 . S
U1566 C1583 2.882 . S
U1566 O1584 2.441 . S
U1566 O1585 2.420 . S
U1566 O1586 2.455 . S
U1566 O1587 2.449 . S
O1567 U1566 2.454 . S
O1567 C1569 1.353 . S
O1568 U1566 2.458 . S
O1568 C1569 1.286 . S
C1569 U1566 2.984 . S
C1569 O1567 1.353 . S
C1569 O1568 1.286 . S
C1569 C1571 1.363 . S
C1570 C1560 1.465 . S
C1570 U1566 2.847 . S
C1570 O1584 1.249 . S
C1570 O1585 1.202 . S
C1571 C1569 1.363 . S
C1571 C1573 1.408 . S
C1571 C1576 1.342 . S
C1572 C1573 1.310 . S
C1572 C1575 1.461 . S
C1572 H1592 0.932 . S
C1573 C1571 1.408 . S
C1573 C1572 1.310 . S
C1573 H1593 0.930 . S
C1574 C1575 1.474 . S
C1574 C1576 1.285 . S
C1574 H1594 0.929 . S
C1575 C1572 1.461 . S
C1575 C1574 1.474 . S
C1576 C1571 1.342 . S
C1576 C1574 1.285 . S
C1576 H1595 0.930 . S
C1577 C1580 1.424 . S
C1577 C1582 1.245 . S
C1577 C1583 1.428 . S
C1578 C1581 1.260 . S
C1578 C1582 1.477 . S
C1578 H1596 0.932 . S
C1579 C1580 1.384 . S
C1579 C1581 1.479 . S
C1579 H1597 0.929 . S
C1580 C1577 1.424 . S
C1580 C1579 1.384 . S
C1580 H1598 0.928 . S
C1581 C1578 1.260 . S
C1581 C1579 1.479 . S
C1582 C1577 1.245 . S
C1582 C1578 1.477 . S
C1582 H1599 0.932 . S
C1583 U1566 2.882 . S
C1583 C1577 1.428 . S
C1583 O1586 1.301 . S
C1583 O1587 1.282 . S
O1584 U1566 2.441 . S
O1584 C1570 1.249 . S
O1585 U1566 2.420 . S
O1585 C1570 1.202 . S
O1586 U1566 2.455 . S
O1586 C1583 1.301 . S
O1587 U1566 2.449 . S
O1587 C1583 1.282 . S
H1588 C1561 0.931 . S
H1589 C1563 0.929 . S
H1590 C1564 0.930 . S
H1591 C1565 0.931 . S
H1592 C1572 0.932 . S
H1593 C1573 0.930 . S
H1594 C1574 0.929 . S
H1595 C1576 0.930 . S
H1596 C1578 0.932 . S
H1597 C1579 0.929 . S
H1598 C1580 0.928 . S
H1599 C1582 0.932 . S
C1600 C1601 1.264 . S
C1600 C1605 1.479 . S
C1600 C1610 1.465 . S
C1601 C1600 1.264 . S
C1601 C1603 1.339 . S
C1601 H1628 0.931 . S
C1602 C1603 1.395 . S
C1602 C1604 1.320 . S
C1603 C1601 1.339 . S
C1603 C1602 1.395 . S
C1603 H1629 0.929 . S
C1604 C1602 1.320 . S
C1604 C1605 1.405 . S
C1604 H1630 0.930 . S
C1605 C1600 1.479 . S
C1605 C1604 1.405 . S
C1605 H1631 0.931 . S
U1606 O1607 2.454 . S
U1606 O1608 2.458 . S
U1606 C1609 2.984 . S
U1606 C1610 2.847 1_455 S
U1606 C1623 2.882 . S
U1606 O1624 2.441 1_455 S
U1606 O1625 2.420 1_455 S
U1606 O1626 2.455 . S
U1606 O1627 2.449 . S
O1607 U1606 2.454 . S
O1607 C1609 1.353 . S
O1608 U1606 2.458 . S
O1608 C1609 1.286 . S
C1609 U1606 2.984 . S
C1609 O1607 1.353 . S
C1609 O1608 1.286 . S
C1609 C1611 1.363 . S
C1610 C1600 1.465 . S
C1610 U1606 2.847 1_655 S
C1610 O1624 1.249 . S
C1610 O1625 1.202 . S
C1611 C1609 1.363 . S
C1611 C1613 1.408 . S
C1611 C1616 1.342 . S
C1612 C1613 1.310 . S
C1612 C1615 1.461 . S
C1612 H1632 0.932 . S
C1613 C1611 1.408 . S
C1613 C1612 1.310 . S
C1613 H1633 0.930 . S
C1614 C1615 1.474 . S
C1614 C1616 1.285 . S
C1614 H1634 0.929 . S
C1615 C1612 1.461 . S
C1615 C1614 1.474 . S
C1616 C1611 1.342 . S
C1616 C1614 1.285 . S
C1616 H1635 0.930 . S
C1617 C1620 1.424 . S
C1617 C1622 1.245 . S
C1617 C1623 1.428 . S
C1618 C1621 1.260 . S
C1618 C1622 1.477 . S
C1618 H1636 0.932 . S
C1619 C1620 1.384 . S
C1619 C1621 1.479 . S
C1619 H1637 0.929 . S
C1620 C1617 1.424 . S
C1620 C1619 1.384 . S
C1620 H1638 0.928 . S
C1621 C1618 1.260 . S
C1621 C1619 1.479 . S
C1622 C1617 1.245 . S
C1622 C1618 1.477 . S
C1622 H1639 0.932 . S
C1623 U1606 2.882 . S
C1623 C1617 1.428 . S
C1623 O1626 1.301 . S
C1623 O1627 1.282 . S
O1624 U1606 2.441 1_655 S
O1624 C1610 1.249 . S
O1625 U1606 2.420 1_655 S
O1625 C1610 1.202 . S
O1626 U1606 2.455 . S
O1626 C1623 1.301 . S
O1627 U1606 2.449 . S
O1627 C1623 1.282 . S
H1628 C1601 0.931 . S
H1629 C1603 0.929 . S
H1630 C1604 0.930 . S
H1631 C1605 0.931 . S
H1632 C1612 0.932 . S
H1633 C1613 0.930 . S
H1634 C1614 0.929 . S
H1635 C1616 0.930 . S
H1636 C1618 0.932 . S
H1637 C1619 0.929 . S
H1638 C1620 0.928 . S
H1639 C1622 0.932 . S
C1640 C1641 1.264 . S
C1640 C1645 1.479 . S
C1640 C1650 1.465 . S
C1641 C1640 1.264 . S
C1641 C1643 1.339 . S
C1641 H1668 0.931 . S
C1642 C1643 1.395 . S
C1642 C1644 1.320 . S
C1643 C1641 1.339 . S
C1643 C1642 1.395 . S
C1643 H1669 0.929 . S
C1644 C1642 1.320 . S
C1644 C1645 1.405 . S
C1644 H1670 0.930 . S
C1645 C1640 1.479 . S
C1645 C1644 1.405 . S
C1645 H1671 0.931 . S
U1646 O1647 2.454 . S
U1646 O1648 2.458 . S
U1646 C1649 2.984 . S
U1646 C1650 2.847 . S
U1646 C1663 2.882 . S
U1646 O1664 2.441 . S
U1646 O1665 2.420 . S
U1646 O1666 2.455 . S
U1646 O1667 2.449 . S
O1647 U1646 2.454 . S
O1647 C1649 1.353 . S
O1648 U1646 2.458 . S
O1648 C1649 1.286 . S
C1649 U1646 2.984 . S
C1649 O1647 1.353 . S
C1649 O1648 1.286 . S
C1649 C1651 1.363 . S
C1650 C1640 1.465 . S
C1650 U1646 2.847 . S
C1650 O1664 1.249 . S
C1650 O1665 1.202 . S
C1651 C1649 1.363 . S
C1651 C1653 1.408 . S
C1651 C1656 1.342 . S
C1652 C1653 1.310 . S
C1652 C1655 1.461 . S
C1652 H1672 0.932 . S
C1653 C1651 1.408 . S
C1653 C1652 1.310 . S
C1653 H1673 0.930 . S
C1654 C1655 1.474 . S
C1654 C1656 1.285 . S
C1654 H1674 0.929 . S
C1655 C1652 1.461 . S
C1655 C1654 1.474 . S
C1656 C1651 1.342 . S
C1656 C1654 1.285 . S
C1656 H1675 0.930 . S
C1657 C1660 1.424 . S
C1657 C1662 1.245 . S
C1657 C1663 1.428 . S
C1658 C1661 1.260 . S
C1658 C1662 1.477 . S
C1658 H1676 0.932 . S
C1659 C1660 1.384 . S
C1659 C1661 1.479 . S
C1659 H1677 0.929 . S
C1660 C1657 1.424 . S
C1660 C1659 1.384 . S
C1660 H1678 0.928 . S
C1661 C1658 1.260 . S
C1661 C1659 1.479 . S
C1662 C1657 1.245 . S
C1662 C1658 1.477 . S
C1662 H1679 0.932 . S
C1663 U1646 2.882 . S
C1663 C1657 1.428 . S
C1663 O1666 1.301 . S
C1663 O1667 1.282 . S
O1664 U1646 2.441 . S
O1664 C1650 1.249 . S
O1665 U1646 2.420 . S
O1665 C1650 1.202 . S
O1666 U1646 2.455 . S
O1666 C1663 1.301 . S
O1667 U1646 2.449 . S
O1667 C1663 1.282 . S
H1668 C1641 0.931 . S
H1669 C1643 0.929 . S
H1670 C1644 0.930 . S
H1671 C1645 0.931 . S
H1672 C1652 0.932 . S
H1673 C1653 0.930 . S
H1674 C1654 0.929 . S
H1675 C1656 0.930 . S
H1676 C1658 0.932 . S
H1677 C1659 0.929 . S
H1678 C1660 0.928 . S
H1679 C1662 0.932 . S
C1680 C1681 1.264 . S
C1680 C1685 1.479 . S
C1680 C1690 1.465 . S
C1681 C1680 1.264 . S
C1681 C1683 1.339 . S
C1681 H1708 0.931 . S
C1682 C1683 1.395 . S
C1682 C1684 1.320 . S
C1683 C1681 1.339 . S
C1683 C1682 1.395 . S
C1683 H1709 0.929 . S
C1684 C1682 1.320 . S
C1684 C1685 1.405 . S
C1684 H1710 0.930 . S
C1685 C1680 1.479 . S
C1685 C1684 1.405 . S
C1685 H1711 0.931 . S
U1686 O1687 2.454 1_554 S
U1686 O1688 2.443 1_554 S
U1686 C1689 2.984 1_554 S
U1686 C1690 2.847 . S
U1686 C1703 2.882 . S
U1686 O1704 2.441 . S
U1686 O1705 2.420 . S
U1686 O1706 2.455 . S
U1686 O1707 2.449 . S
O1687 U1686 2.454 1_556 S
O1687 C1689 1.353 . S
O1688 U1686 2.443 1_556 S
O1688 C1689 1.298 . S
C1689 U1686 2.984 1_556 S
C1689 O1687 1.353 . S
C1689 O1688 1.298 . S
C1689 C1691 1.363 . S
C1690 C1680 1.465 . S
C1690 U1686 2.847 . S
C1690 O1704 1.249 . S
C1690 O1705 1.202 . S
C1691 C1689 1.363 . S
C1691 C1693 1.408 . S
C1691 C1696 1.342 . S
C1692 C1693 1.310 . S
C1692 C1695 1.461 . S
C1692 H1712 0.932 . S
C1693 C1691 1.408 . S
C1693 C1692 1.310 . S
C1693 H1713 0.930 . S
C1694 C1695 1.474 . S
C1694 C1696 1.285 . S
C1694 H1714 0.929 . S
C1695 C1692 1.461 . S
C1695 C1694 1.474 . S
C1696 C1691 1.342 . S
C1696 C1694 1.285 . S
C1696 H1715 0.930 . S
C1697 C1700 1.424 . S
C1697 C1702 1.245 . S
C1697 C1703 1.428 . S
C1698 C1701 1.260 . S
C1698 C1702 1.477 . S
C1698 H1716 0.932 . S
C1699 C1700 1.384 . S
C1699 C1701 1.479 . S
C1699 H1717 0.929 . S
C1700 C1697 1.424 . S
C1700 C1699 1.384 . S
C1700 H1718 0.928 . S
C1701 C1698 1.260 . S
C1701 C1699 1.479 . S
C1702 C1697 1.245 . S
C1702 C1698 1.477 . S
C1702 H1719 0.932 . S
C1703 U1686 2.882 . S
C1703 C1697 1.428 . S
C1703 O1706 1.301 . S
C1703 O1707 1.282 . S
O1704 U1686 2.441 . S
O1704 C1690 1.249 . S
O1705 U1686 2.420 . S
O1705 C1690 1.202 . S
O1706 U1686 2.455 . S
O1706 C1703 1.301 . S
O1707 U1686 2.449 . S
O1707 C1703 1.282 . S
H1708 C1681 0.931 . S
H1709 C1683 0.929 . S
H1710 C1684 0.930 . S
H1711 C1685 0.931 . S
H1712 C1692 0.932 . S
H1713 C1693 0.930 . S
H1714 C1694 0.929 . S
H1715 C1696 0.930 . S
H1716 C1698 0.932 . S
H1717 C1699 0.929 . S
H1718 C1700 0.928 . S
H1719 C1702 0.932 . S
C1720 C1721 1.264 . S
C1720 C1725 1.479 . S
C1720 C1730 1.465 . S
C1721 C1720 1.264 . S
C1721 C1723 1.339 . S
C1721 H1748 0.931 . S
C1722 C1723 1.395 . S
C1722 C1724 1.320 . S
C1723 C1721 1.339 . S
C1723 C1722 1.395 . S
C1723 H1749 0.929 . S
C1724 C1722 1.320 . S
C1724 C1725 1.405 . S
C1724 H1750 0.930 . S
C1725 C1720 1.479 . S
C1725 C1724 1.405 . S
C1725 H1751 0.931 . S
U1726 O1727 2.454 . S
U1726 O1728 2.458 . S
U1726 C1729 2.984 . S
U1726 C1730 2.847 . S
U1726 C1743 2.882 . S
U1726 O1744 2.441 . S
U1726 O1745 2.420 . S
U1726 O1746 2.455 . S
U1726 O1747 2.449 . S
O1727 U1726 2.454 . S
O1727 C1729 1.353 . S
O1728 U1726 2.458 . S
O1728 C1729 1.286 . S
C1729 U1726 2.984 . S
C1729 O1727 1.353 . S
C1729 O1728 1.286 . S
C1729 C1731 1.363 . S
C1730 C1720 1.465 . S
C1730 U1726 2.847 . S
C1730 O1744 1.249 . S
C1730 O1745 1.202 . S
C1731 C1729 1.363 . S
C1731 C1733 1.408 . S
C1731 C1736 1.342 . S
C1732 C1733 1.310 . S
C1732 C1735 1.461 . S
C1732 H1752 0.932 . S
C1733 C1731 1.408 . S
C1733 C1732 1.310 . S
C1733 H1753 0.930 . S
C1734 C1735 1.474 . S
C1734 C1736 1.285 . S
C1734 H1754 0.929 . S
C1735 C1732 1.461 . S
C1735 C1734 1.474 . S
C1736 C1731 1.342 . S
C1736 C1734 1.285 . S
C1736 H1755 0.930 . S
C1737 C1740 1.424 . S
C1737 C1742 1.245 . S
C1737 C1743 1.428 . S
C1738 C1741 1.260 . S
C1738 C1742 1.477 . S
C1738 H1756 0.932 . S
C1739 C1740 1.384 . S
C1739 C1741 1.479 . S
C1739 H1757 0.929 . S
C1740 C1737 1.424 . S
C1740 C1739 1.384 . S
C1740 H1758 0.928 . S
C1741 C1738 1.260 . S
C1741 C1739 1.479 . S
C1742 C1737 1.245 . S
C1742 C1738 1.477 . S
C1742 H1759 0.932 . S
C1743 U1726 2.882 . S
C1743 C1737 1.428 . S
C1743 O1746 1.301 . S
C1743 O1747 1.282 . S
O1744 U1726 2.441 . S
O1744 C1730 1.249 . S
O1745 U1726 2.420 . S
O1745 C1730 1.202 . S
O1746 U1726 2.455 . S
O1746 C1743 1.301 . S
O1747 U1726 2.449 . S
O1747 C1743 1.282 . S
H1748 C1721 0.931 . S
H1749 C1723 0.929 . S
H1750 C1724 0.930 . S
H1751 C1725 0.931 . S
H1752 C1732 0.932 . S
H1753 C1733 0.930 . S
H1754 C1734 0.929 . S
H1755 C1736 0.930 . S
H1756 C1738 0.932 . S
H1757 C1739 0.929 . S
H1758 C1740 0.928 . S
H1759 C1742 0.932 . S
C1760 C1761 1.264 . S
C1760 C1765 1.479 . S
C1760 C1770 1.465 . S
C1761 C1760 1.264 . S
C1761 C1763 1.339 . S
C1761 H1788 0.931 . S
C1762 C1763 1.395 . S
C1762 C1764 1.320 . S
C1763 C1761 1.339 . S
C1763 C1762 1.395 . S
C1763 H1789 0.929 . S
C1764 C1762 1.320 . S
C1764 C1765 1.405 . S
C1764 H1790 0.930 . S
C1765 C1760 1.479 . S
C1765 C1764 1.405 . S
C1765 H1791 0.931 . S
U1766 O1767 2.454 . S
U1766 O1768 2.458 . S
U1766 C1769 2.984 . S
U1766 C1770 2.847 . S
U1766 C1783 2.882 . S
U1766 O1784 2.441 . S
U1766 O1785 2.420 . S
U1766 O1786 2.455 . S
U1766 O1787 2.449 . S
O1767 U1766 2.454 . S
O1767 C1769 1.353 . S
O1768 U1766 2.458 . S
O1768 C1769 1.286 . S
C1769 U1766 2.984 . S
C1769 O1767 1.353 . S
C1769 O1768 1.286 . S
C1769 C1771 1.363 . S
C1770 C1760 1.465 . S
C1770 U1766 2.847 . S
C1770 O1784 1.249 . S
C1770 O1785 1.202 . S
C1771 C1769 1.363 . S
C1771 C1773 1.408 . S
C1771 C1776 1.342 . S
C1772 C1773 1.310 . S
C1772 C1775 1.461 . S
C1772 H1792 0.932 . S
C1773 C1771 1.408 . S
C1773 C1772 1.310 . S
C1773 H1793 0.930 . S
C1774 C1775 1.474 . S
C1774 C1776 1.285 . S
C1774 H1794 0.929 . S
C1775 C1772 1.461 . S
C1775 C1774 1.474 . S
C1776 C1771 1.342 . S
C1776 C1774 1.285 . S
C1776 H1795 0.930 . S
C1777 C1780 1.424 . S
C1777 C1782 1.245 . S
C1777 C1783 1.428 . S
C1778 C1781 1.260 . S
C1778 C1782 1.477 . S
C1778 H1796 0.932 . S
C1779 C1780 1.384 . S
C1779 C1781 1.479 . S
C1779 H1797 0.929 . S
C1780 C1777 1.424 . S
C1780 C1779 1.384 . S
C1780 H1798 0.928 . S
C1781 C1778 1.260 . S
C1781 C1779 1.479 . S
C1782 C1777 1.245 . S
C1782 C1778 1.477 . S
C1782 H1799 0.932 . S
C1783 U1766 2.882 . S
C1783 C1777 1.428 . S
C1783 O1786 1.301 . S
C1783 O1787 1.282 . S
O1784 U1766 2.441 . S
O1784 C1770 1.249 . S
O1785 U1766 2.420 . S
O1785 C1770 1.202 . S
O1786 U1766 2.455 . S
O1786 C1783 1.301 . S
O1787 U1766 2.449 . S
O1787 C1783 1.282 . S
H1788 C1761 0.931 . S
H1789 C1763 0.929 . S
H1790 C1764 0.930 . S
H1791 C1765 0.931 . S
H1792 C1772 0.932 . S
H1793 C1773 0.930 . S
H1794 C1774 0.929 . S
H1795 C1776 0.930 . S
H1796 C1778 0.932 . S
H1797 C1779 0.929 . S
H1798 C1780 0.928 . S
H1799 C1782 0.932 . S
C1800 C1801 1.264 . S
C1800 C1805 1.479 . S
C1800 C1810 1.465 . S
C1801 C1800 1.264 . S
C1801 C1803 1.339 . S
C1801 H1828 0.931 . S
C1802 C1803 1.395 . S
C1802 C1804 1.320 . S
C1803 C1801 1.339 . S
C1803 C1802 1.395 . S
C1803 H1829 0.929 . S
C1804 C1802 1.320 . S
C1804 C1805 1.405 . S
C1804 H1830 0.930 . S
C1805 C1800 1.479 . S
C1805 C1804 1.405 . S
C1805 H1831 0.931 . S
U1806 O1807 2.454 . S
U1806 O1808 2.458 . S
U1806 C1809 2.984 . S
U1806 C1810 2.847 . S
U1806 C1823 2.882 . S
U1806 O1824 2.441 . S
U1806 O1825 2.420 . S
U1806 O1826 2.455 . S
U1806 O1827 2.449 . S
O1807 U1806 2.454 . S
O1807 C1809 1.353 . S
O1808 U1806 2.458 . S
O1808 C1809 1.286 . S
C1809 U1806 2.984 . S
C1809 O1807 1.353 . S
C1809 O1808 1.286 . S
C1809 C1811 1.363 . S
C1810 C1800 1.465 . S
C1810 U1806 2.847 . S
C1810 O1824 1.249 . S
C1810 O1825 1.202 . S
C1811 C1809 1.363 . S
C1811 C1813 1.408 . S
C1811 C1816 1.342 . S
C1812 C1813 1.310 . S
C1812 C1815 1.461 . S
C1812 H1832 0.932 . S
C1813 C1811 1.408 . S
C1813 C1812 1.310 . S
C1813 H1833 0.930 . S
C1814 C1815 1.474 . S
C1814 C1816 1.285 . S
C1814 H1834 0.929 . S
C1815 C1812 1.461 . S
C1815 C1814 1.474 . S
C1816 C1811 1.342 . S
C1816 C1814 1.285 . S
C1816 H1835 0.930 . S
C1817 C1820 1.424 . S
C1817 C1822 1.245 . S
C1817 C1823 1.428 . S
C1818 C1821 1.260 . S
C1818 C1822 1.477 . S
C1818 H1836 0.932 . S
C1819 C1820 1.384 . S
C1819 C1821 1.479 . S
C1819 H1837 0.929 . S
C1820 C1817 1.424 . S
C1820 C1819 1.384 . S
C1820 H1838 0.928 . S
C1821 C1818 1.260 . S
C1821 C1819 1.479 . S
C1822 C1817 1.245 . S
C1822 C1818 1.477 . S
C1822 H1839 0.932 . S
C1823 U1806 2.882 . S
C1823 C1817 1.428 . S
C1823 O1826 1.301 . S
C1823 O1827 1.282 . S
O1824 U1806 2.441 . S
O1824 C1810 1.249 . S
O1825 U1806 2.420 . S
O1825 C1810 1.202 . S
O1826 U1806 2.455 . S
O1826 C1823 1.301 . S
O1827 U1806 2.449 . S
O1827 C1823 1.282 . S
H1828 C1801 0.931 . S
H1829 C1803 0.929 . S
H1830 C1804 0.930 . S
H1831 C1805 0.931 . S
H1832 C1812 0.932 . S
H1833 C1813 0.930 . S
H1834 C1814 0.929 . S
H1835 C1816 0.930 . S
H1836 C1818 0.932 . S
H1837 C1819 0.929 . S
H1838 C1820 0.928 . S
H1839 C1822 0.932 . S
C1840 C1841 1.264 . S
C1840 C1845 1.479 . S
C1840 C1850 1.465 . S
C1841 C1840 1.264 . S
C1841 C1843 1.339 . S
C1841 H1868 0.931 . S
C1842 C1843 1.395 . S
C1842 C1844 1.320 . S
C1843 C1841 1.339 . S
C1843 C1842 1.395 . S
C1843 H1869 0.929 . S
C1844 C1842 1.320 . S
C1844 C1845 1.405 . S
C1844 H1870 0.930 . S
C1845 C1840 1.479 . S
C1845 C1844 1.405 . S
C1845 H1871 0.931 . S
U1846 O1847 2.454 . S
U1846 O1848 2.458 . S
U1846 C1849 2.984 . S
U1846 C1850 2.847 . S
U1846 C1863 2.882 . S
U1846 O1864 2.441 . S
U1846 O1865 2.420 . S
U1846 O1866 2.455 . S
U1846 O1867 2.449 . S
O1847 U1846 2.454 . S
O1847 C1849 1.353 . S
O1848 U1846 2.458 . S
O1848 C1849 1.286 . S
C1849 U1846 2.984 . S
C1849 O1847 1.353 . S
C1849 O1848 1.286 . S
C1849 C1851 1.363 . S
C1850 C1840 1.465 . S
C1850 U1846 2.847 . S
C1850 O1864 1.249 . S
C1850 O1865 1.202 . S
C1851 C1849 1.363 . S
C1851 C1853 1.408 . S
C1851 C1856 1.342 . S
C1852 C1853 1.310 . S
C1852 C1855 1.461 . S
C1852 H1872 0.932 . S
C1853 C1851 1.408 . S
C1853 C1852 1.310 . S
C1853 H1873 0.930 . S
C1854 C1855 1.474 . S
C1854 C1856 1.285 . S
C1854 H1874 0.929 . S
C1855 C1852 1.461 . S
C1855 C1854 1.474 . S
C1856 C1851 1.342 . S
C1856 C1854 1.285 . S
C1856 H1875 0.930 . S
C1857 C1860 1.424 . S
C1857 C1862 1.245 . S
C1857 C1863 1.428 . S
C1858 C1861 1.260 . S
C1858 C1862 1.477 . S
C1858 H1876 0.932 . S
C1859 C1860 1.384 . S
C1859 C1861 1.479 . S
C1859 H1877 0.929 . S
C1860 C1857 1.424 . S
C1860 C1859 1.384 . S
C1860 H1878 0.928 . S
C1861 C1858 1.260 . S
C1861 C1859 1.479 . S
C1862 C1857 1.245 . S
C1862 C1858 1.477 . S
C1862 H1879 0.932 . S
C1863 U1846 2.882 . S
C1863 C1857 1.428 . S
C1863 O1866 1.301 . S
C1863 O1867 1.282 . S
O1864 U1846 2.441 . S
O1864 C1850 1.249 . S
O1865 U1846 2.420 . S
O1865 C1850 1.202 . S
O1866 U1846 2.455 . S
O1866 C1863 1.301 . S
O1867 U1846 2.449 . S
O1867 C1863 1.282 . S
H1868 C1841 0.931 . S
H1869 C1843 0.929 . S
H1870 C1844 0.930 . S
H1871 C1845 0.931 . S
H1872 C1852 0.932 . S
H1873 C1853 0.930 . S
H1874 C1854 0.929 . S
H1875 C1856 0.930 . S
H1876 C1858 0.932 . S
H1877 C1859 0.929 . S
H1878 C1860 0.928 . S
H1879 C1862 0.932 . S
C1880 C1881 1.264 . S
C1880 C1885 1.479 . S
C1880 C1890 1.465 . S
C1881 C1880 1.264 . S
C1881 C1883 1.339 . S
C1881 H1908 0.931 . S
C1882 C1883 1.395 . S
C1882 C1884 1.320 . S
C1883 C1881 1.339 . S
C1883 C1882 1.395 . S
C1883 H1909 0.929 . S
C1884 C1882 1.320 . S
C1884 C1885 1.405 . S
C1884 H1910 0.930 . S
C1885 C1880 1.479 . S
C1885 C1884 1.405 . S
C1885 H1911 0.931 . S
U1886 O1887 2.454 . S
U1886 O1888 2.458 . S
U1886 C1889 2.984 . S
U1886 C1890 2.847 . S
U1886 C1903 2.882 . S
U1886 O1904 2.441 . S
U1886 O1905 2.420 . S
U1886 O1906 2.455 . S
U1886 O1907 2.449 . S
O1887 U1886 2.454 . S
O1887 C1889 1.353 . S
O1888 U1886 2.458 . S
O1888 C1889 1.286 . S
C1889 U1886 2.984 . S
C1889 O1887 1.353 . S
C1889 O1888 1.286 . S
C1889 C1891 1.363 . S
C1890 C1880 1.465 . S
C1890 U1886 2.847 . S
C1890 O1904 1.249 . S
C1890 O1905 1.202 . S
C1891 C1889 1.363 . S
C1891 C1893 1.408 . S
C1891 C1896 1.342 . S
C1892 C1893 1.310 . S
C1892 C1895 1.461 . S
C1892 H1912 0.932 . S
C1893 C1891 1.408 . S
C1893 C1892 1.310 . S
C1893 H1913 0.930 . S
C1894 C1895 1.474 . S
C1894 C1896 1.285 . S
C1894 H1914 0.929 . S
C1895 C1892 1.461 . S
C1895 C1894 1.474 . S
C1896 C1891 1.342 . S
C1896 C1894 1.285 . S
C1896 H1915 0.930 . S
C1897 C1900 1.424 . S
C1897 C1902 1.245 . S
C1897 C1903 1.428 . S
C1898 C1901 1.260 . S
C1898 C1902 1.477 . S
C1898 H1916 0.932 . S
C1899 C1900 1.384 . S
C1899 C1901 1.479 . S
C1899 H1917 0.929 . S
C1900 C1897 1.424 . S
C1900 C1899 1.384 . S
C1900 H1918 0.928 . S
C1901 C1898 1.260 . S
C1901 C1899 1.479 . S
C1902 C1897 1.245 . S
C1902 C1898 1.477 . S
C1902 H1919 0.932 . S
C1903 U1886 2.882 . S
C1903 C1897 1.428 . S
C1903 O1906 1.301 . S
C1903 O1907 1.282 . S
O1904 U1886 2.441 . S
O1904 C1890 1.249 . S
O1905 U1886 2.420 . S
O1905 C1890 1.202 . S
O1906 U1886 2.455 . S
O1906 C1903 1.301 . S
O1907 U1886 2.449 . S
O1907 C1903 1.282 . S
H1908 C1881 0.931 . S
H1909 C1883 0.929 . S
H1910 C1884 0.930 . S
H1911 C1885 0.931 . S
H1912 C1892 0.932 . S
H1913 C1893 0.930 . S
H1914 C1894 0.929 . S
H1915 C1896 0.930 . S
H1916 C1898 0.932 . S
H1917 C1899 0.929 . S
H1918 C1900 0.928 . S
H1919 C1902 0.932 . S
C1920 C1921 1.386 . S
C1920 C1922 1.397 . S
C1920 H1944 0.931 . S
C1921 C1920 1.386 . S
C1921 C1925 1.397 . S
C1922 C1920 1.397 . S
C1922 C1923 1.384 . S
C1922 H1945 0.930 . S
C1923 C1922 1.384 . S
C1923 C1924 1.377 . S
C1923 C1926 1.481 . S
C1924 C1923 1.377 . S
C1924 C1925 1.389 . S
C1924 H1946 0.929 . S
C1925 C1921 1.397 . S
C1925 C1924 1.389 . S
C1925 H1947 0.931 . S
C1926 C1923 1.481 . S
C1926 C1927 1.387 . S
C1926 C1931 1.390 . S
C1927 C1926 1.387 . S
C1927 C1928 1.401 . S
C1927 H1948 0.930 . S
C1928 C1927 1.401 . S
C1928 C1929 1.376 . S
C1928 C1937 1.511 . S
C1929 C1928 1.376 . S
C1929 C1930 1.392 . S
C1929 H1950 0.931 . S
C1930 C1929 1.392 . S
C1930 C1931 1.361 . S
C1930 C1932 1.500 . S
C1931 C1926 1.390 . S
C1931 C1930 1.361 . S
C1931 H1949 0.931 . S
C1932 C1930 1.500 . S
C1932 C1933 1.371 . S
C1932 C1934 1.365 . S
C1933 C1932 1.371 . S
C1933 C1943 1.386 . S
C1933 H1951 0.931 . S
C1934 C1932 1.365 . S
C1934 C1935 1.409 . S
C1934 H1952 0.929 . S
C1935 C1934 1.409 . S
C1935 C1936 1.380 . S
C1935 H1953 0.930 . S
C1936 C1935 1.380 . S
C1936 C1943 1.357 . S
C1937 C1928 1.511 . S
C1937 C1938 1.341 . S
C1937 C1939 1.371 . S
C1938 C1937 1.341 . S
C1938 C1942 1.394 . S
C1938 H1954 0.930 . S
C1939 C1937 1.371 . S
C1939 C1940 1.392 . S
C1939 H1955 0.931 . S
C1940 C1939 1.392 . S
C1940 C1941 1.331 . S
C1940 H1958 0.932 . S
C1941 C1940 1.331 . S
C1941 C1942 1.336 . S
C1942 C1938 1.394 . S
C1942 C1941 1.336 . S
C1942 H1957 0.929 . S
C1943 C1933 1.386 . S
C1943 C1936 1.357 . S
C1943 H1956 0.928 . S
H1944 C1920 0.931 . S
H1945 C1922 0.930 . S
H1946 C1924 0.929 . S
H1947 C1925 0.931 . S
H1948 C1927 0.930 . S
H1949 C1931 0.931 . S
H1950 C1929 0.931 . S
H1951 C1933 0.931 . S
H1952 C1934 0.929 . S
H1953 C1935 0.930 . S
H1954 C1938 0.930 . S
H1955 C1939 0.931 . S
H1956 C1943 0.928 . S
H1957 C1942 0.929 . S
H1958 C1940 0.932 . S
C1959 C1960 1.386 . S
C1959 C1961 1.397 . S
C1959 H1983 0.931 . S
C1960 C1959 1.386 . S
C1960 C1964 1.397 . S
C1961 C1959 1.397 . S
C1961 C1962 1.384 . S
C1961 H1984 0.930 . S
C1962 C1961 1.384 . S
C1962 C1963 1.377 . S
C1962 C1965 1.481 . S
C1963 C1962 1.377 . S
C1963 C1964 1.389 . S
C1963 H1985 0.929 . S
C1964 C1960 1.397 . S
C1964 C1963 1.389 . S
C1964 H1986 0.931 . S
C1965 C1962 1.481 . S
C1965 C1966 1.387 . S
C1965 C1970 1.390 . S
C1966 C1965 1.387 . S
C1966 C1967 1.401 . S
C1966 H1987 0.930 . S
C1967 C1966 1.401 . S
C1967 C1968 1.376 . S
C1967 C1976 1.511 . S
C1968 C1967 1.376 . S
C1968 C1969 1.392 . S
C1968 H1989 0.931 . S
C1969 C1968 1.392 . S
C1969 C1970 1.361 . S
C1969 C1971 1.500 . S
C1970 C1965 1.390 . S
C1970 C1969 1.361 . S
C1970 H1988 0.931 . S
C1971 C1969 1.500 . S
C1971 C1972 1.371 . S
C1971 C1973 1.365 . S
C1972 C1971 1.371 . S
C1972 C1982 1.386 . S
C1972 H1990 0.931 . S
C1973 C1971 1.365 . S
C1973 C1974 1.409 . S
C1973 H1991 0.929 . S
C1974 C1973 1.409 . S
C1974 C1975 1.380 . S
C1974 H1992 0.930 . S
C1975 C1974 1.380 . S
C1975 C1982 1.357 . S
C1976 C1967 1.511 . S
C1976 C1977 1.341 . S
C1976 C1978 1.371 . S
C1977 C1976 1.341 . S
C1977 C1981 1.394 . S
C1977 H1993 0.930 . S
C1978 C1976 1.371 . S
C1978 C1979 1.392 . S
C1978 H1994 0.931 . S
C1979 C1978 1.392 . S
C1979 C1980 1.331 . S
C1979 H1997 0.932 . S
C1980 C1979 1.331 . S
C1980 C1981 1.336 . S
C1981 C1977 1.394 . S
C1981 C1980 1.336 . S
C1981 H1996 0.929 . S
C1982 C1972 1.386 . S
C1982 C1975 1.357 . S
C1982 H1995 0.928 . S
H1983 C1959 0.931 . S
H1984 C1961 0.930 . S
H1985 C1963 0.929 . S
H1986 C1964 0.931 . S
H1987 C1966 0.930 . S
H1988 C1970 0.931 . S
H1989 C1968 0.931 . S
H1990 C1972 0.931 . S
H1991 C1973 0.929 . S
H1992 C1974 0.930 . S
H1993 C1977 0.930 . S
H1994 C1978 0.931 . S
H1995 C1982 0.928 . S
H1996 C1981 0.929 . S
H1997 C1979 0.932 . S
C1998 C1999 1.386 . S
C1998 C2000 1.397 . S
C1998 H2022 0.931 . S
C1999 C1998 1.386 . S
C1999 C2003 1.397 . S
C2000 C1998 1.397 . S
C2000 C2001 1.384 . S
C2000 H2023 0.930 . S
C2001 C2000 1.384 . S
C2001 C2002 1.377 . S
C2001 C2004 1.481 . S
C2002 C2001 1.377 . S
C2002 C2003 1.389 . S
C2002 H2024 0.929 . S
C2003 C1999 1.397 . S
C2003 C2002 1.389 . S
C2003 H2025 0.931 . S
C2004 C2001 1.481 . S
C2004 C2005 1.387 . S
C2004 C2009 1.390 . S
C2005 C2004 1.387 . S
C2005 C2006 1.401 . S
C2005 H2026 0.930 . S
C2006 C2005 1.401 . S
C2006 C2007 1.376 . S
C2006 C2015 1.511 . S
C2007 C2006 1.376 . S
C2007 C2008 1.392 . S
C2007 H2028 0.931 . S
C2008 C2007 1.392 . S
C2008 C2009 1.361 . S
C2008 C2010 1.500 . S
C2009 C2004 1.390 . S
C2009 C2008 1.361 . S
C2009 H2027 0.931 . S
C2010 C2008 1.500 . S
C2010 C2011 1.371 . S
C2010 C2012 1.365 . S
C2011 C2010 1.371 . S
C2011 C2021 1.386 . S
C2011 H2029 0.931 . S
C2012 C2010 1.365 . S
C2012 C2013 1.409 . S
C2012 H2030 0.929 . S
C2013 C2012 1.409 . S
C2013 C2014 1.380 . S
C2013 H2031 0.930 . S
C2014 C2013 1.380 . S
C2014 C2021 1.357 . S
C2015 C2006 1.511 . S
C2015 C2016 1.341 . S
C2015 C2017 1.371 . S
C2016 C2015 1.341 . S
C2016 C2020 1.394 . S
C2016 H2032 0.930 . S
C2017 C2015 1.371 . S
C2017 C2018 1.392 . S
C2017 H2033 0.931 . S
C2018 C2017 1.392 . S
C2018 C2019 1.331 . S
C2018 H2036 0.932 . S
C2019 C2018 1.331 . S
C2019 C2020 1.336 . S
C2020 C2016 1.394 . S
C2020 C2019 1.336 . S
C2020 H2035 0.929 . S
C2021 C2011 1.386 . S
C2021 C2014 1.357 . S
C2021 H2034 0.928 . S
H2022 C1998 0.931 . S
H2023 C2000 0.930 . S
H2024 C2002 0.929 . S
H2025 C2003 0.931 . S
H2026 C2005 0.930 . S
H2027 C2009 0.931 . S
H2028 C2007 0.931 . S
H2029 C2011 0.931 . S
H2030 C2012 0.929 . S
H2031 C2013 0.930 . S
H2032 C2016 0.930 . S
H2033 C2017 0.931 . S
H2034 C2021 0.928 . S
H2035 C2020 0.929 . S
H2036 C2018 0.932 . S
C2037 C2038 1.386 . S
C2037 C2039 1.397 . S
C2037 H2061 0.931 . S
C2038 C2037 1.386 . S
C2038 C2042 1.397 . S
C2039 C2037 1.397 . S
C2039 C2040 1.384 . S
C2039 H2062 0.930 . S
C2040 C2039 1.384 . S
C2040 C2041 1.377 . S
C2040 C2043 1.481 . S
C2041 C2040 1.377 . S
C2041 C2042 1.389 . S
C2041 H2063 0.929 . S
C2042 C2038 1.397 . S
C2042 C2041 1.389 . S
C2042 H2064 0.931 . S
C2043 C2040 1.481 . S
C2043 C2044 1.387 . S
C2043 C2048 1.390 . S
C2044 C2043 1.387 . S
C2044 C2045 1.401 . S
C2044 H2065 0.930 . S
C2045 C2044 1.401 . S
C2045 C2046 1.376 . S
C2045 C2054 1.511 . S
C2046 C2045 1.376 . S
C2046 C2047 1.392 . S
C2046 H2067 0.931 . S
C2047 C2046 1.392 . S
C2047 C2048 1.361 . S
C2047 C2049 1.500 . S
C2048 C2043 1.390 . S
C2048 C2047 1.361 . S
C2048 H2066 0.931 . S
C2049 C2047 1.500 . S
C2049 C2050 1.371 . S
C2049 C2051 1.365 . S
C2050 C2049 1.371 . S
C2050 C2060 1.386 . S
C2050 H2068 0.931 . S
C2051 C2049 1.365 . S
C2051 C2052 1.409 . S
C2051 H2069 0.929 . S
C2052 C2051 1.409 . S
C2052 C2053 1.380 . S
C2052 H2070 0.930 . S
C2053 C2052 1.380 . S
C2053 C2060 1.357 . S
C2054 C2045 1.511 . S
C2054 C2055 1.341 . S
C2054 C2056 1.371 . S
C2055 C2054 1.341 . S
C2055 C2059 1.394 . S
C2055 H2071 0.930 . S
C2056 C2054 1.371 . S
C2056 C2057 1.392 . S
C2056 H2072 0.931 . S
C2057 C2056 1.392 . S
C2057 C2058 1.331 . S
C2057 H2075 0.932 . S
C2058 C2057 1.331 . S
C2058 C2059 1.336 . S
C2059 C2055 1.394 . S
C2059 C2058 1.336 . S
C2059 H2074 0.929 . S
C2060 C2050 1.386 . S
C2060 C2053 1.357 . S
C2060 H2073 0.928 . S
H2061 C2037 0.931 . S
H2062 C2039 0.930 . S
H2063 C2041 0.929 . S
H2064 C2042 0.931 . S
H2065 C2044 0.930 . S
H2066 C2048 0.931 . S
H2067 C2046 0.931 . S
H2068 C2050 0.931 . S
H2069 C2051 0.929 . S
H2070 C2052 0.930 . S
H2071 C2055 0.930 . S
H2072 C2056 0.931 . S
H2073 C2060 0.928 . S
H2074 C2059 0.929 . S
H2075 C2057 0.932 . S
C2076 C2077 1.386 . S
C2076 C2078 1.397 . S
C2076 H2100 0.931 . S
C2077 C2076 1.386 . S
C2077 C2081 1.397 . S
C2078 C2076 1.397 . S
C2078 C2079 1.384 . S
C2078 H2101 0.930 . S
C2079 C2078 1.384 . S
C2079 C2080 1.377 . S
C2079 C2082 1.481 . S
C2080 C2079 1.377 . S
C2080 C2081 1.389 . S
C2080 H2102 0.929 . S
C2081 C2077 1.397 . S
C2081 C2080 1.389 . S
C2081 H2103 0.931 . S
C2082 C2079 1.481 . S
C2082 C2083 1.387 . S
C2082 C2087 1.390 . S
C2083 C2082 1.387 . S
C2083 C2084 1.401 . S
C2083 H2104 0.930 . S
C2084 C2083 1.401 . S
C2084 C2085 1.376 . S
C2084 C2093 1.511 . S
C2085 C2084 1.376 . S
C2085 C2086 1.392 . S
C2085 H2106 0.931 . S
C2086 C2085 1.392 . S
C2086 C2087 1.361 . S
C2086 C2088 1.500 . S
C2087 C2082 1.390 . S
C2087 C2086 1.361 . S
C2087 H2105 0.931 . S
C2088 C2086 1.500 . S
C2088 C2089 1.371 . S
C2088 C2090 1.365 . S
C2089 C2088 1.371 . S
C2089 C2099 1.386 . S
C2089 H2107 0.931 . S
C2090 C2088 1.365 . S
C2090 C2091 1.409 . S
C2090 H2108 0.929 . S
C2091 C2090 1.409 . S
C2091 C2092 1.380 . S
C2091 H2109 0.930 . S
C2092 C2091 1.380 . S
C2092 C2099 1.357 . S
C2093 C2084 1.511 . S
C2093 C2094 1.341 . S
C2093 C2095 1.371 . S
C2094 C2093 1.341 . S
C2094 C2098 1.394 . S
C2094 H2110 0.930 . S
C2095 C2093 1.371 . S
C2095 C2096 1.392 . S
C2095 H2111 0.931 . S
C2096 C2095 1.392 . S
C2096 C2097 1.331 . S
C2096 H2114 0.932 . S
C2097 C2096 1.331 . S
C2097 C2098 1.336 . S
C2098 C2094 1.394 . S
C2098 C2097 1.336 . S
C2098 H2113 0.929 . S
C2099 C2089 1.386 . S
C2099 C2092 1.357 . S
C2099 H2112 0.928 . S
H2100 C2076 0.931 . S
H2101 C2078 0.930 . S
H2102 C2080 0.929 . S
H2103 C2081 0.931 . S
H2104 C2083 0.930 . S
H2105 C2087 0.931 . S
H2106 C2085 0.931 . S
H2107 C2089 0.931 . S
H2108 C2090 0.929 . S
H2109 C2091 0.930 . S
H2110 C2094 0.930 . S
H2111 C2095 0.931 . S
H2112 C2099 0.928 . S
H2113 C2098 0.929 . S
H2114 C2096 0.932 . S
C2115 C2116 1.386 . S
C2115 C2117 1.397 . S
C2115 H2139 0.931 . S
C2116 C2115 1.386 . S
C2116 C2120 1.397 . S
C2117 C2115 1.397 . S
C2117 C2118 1.384 . S
C2117 H2140 0.930 . S
C2118 C2117 1.384 . S
C2118 C2119 1.377 . S
C2118 C2121 1.481 . S
C2119 C2118 1.377 . S
C2119 C2120 1.389 . S
C2119 H2141 0.929 . S
C2120 C2116 1.397 . S
C2120 C2119 1.389 . S
C2120 H2142 0.931 . S
C2121 C2118 1.481 . S
C2121 C2122 1.387 . S
C2121 C2126 1.390 . S
C2122 C2121 1.387 . S
C2122 C2123 1.401 . S
C2122 H2143 0.930 . S
C2123 C2122 1.401 . S
C2123 C2124 1.376 . S
C2123 C2132 1.511 . S
C2124 C2123 1.376 . S
C2124 C2125 1.392 . S
C2124 H2145 0.931 . S
C2125 C2124 1.392 . S
C2125 C2126 1.361 . S
C2125 C2127 1.500 . S
C2126 C2121 1.390 . S
C2126 C2125 1.361 . S
C2126 H2144 0.931 . S
C2127 C2125 1.500 . S
C2127 C2128 1.371 . S
C2127 C2129 1.365 . S
C2128 C2127 1.371 . S
C2128 C2138 1.386 . S
C2128 H2146 0.931 . S
C2129 C2127 1.365 . S
C2129 C2130 1.409 . S
C2129 H2147 0.929 . S
C2130 C2129 1.409 . S
C2130 C2131 1.380 . S
C2130 H2148 0.930 . S
C2131 C2130 1.380 . S
C2131 C2138 1.357 . S
C2132 C2123 1.511 . S
C2132 C2133 1.341 . S
C2132 C2134 1.371 . S
C2133 C2132 1.341 . S
C2133 C2137 1.394 . S
C2133 H2149 0.930 . S
C2134 C2132 1.371 . S
C2134 C2135 1.392 . S
C2134 H2150 0.931 . S
C2135 C2134 1.392 . S
C2135 C2136 1.331 . S
C2135 H2153 0.932 . S
C2136 C2135 1.331 . S
C2136 C2137 1.336 . S
C2137 C2133 1.394 . S
C2137 C2136 1.336 . S
C2137 H2152 0.929 . S
C2138 C2128 1.386 . S
C2138 C2131 1.357 . S
C2138 H2151 0.928 . S
H2139 C2115 0.931 . S
H2140 C2117 0.930 . S
H2141 C2119 0.929 . S
H2142 C2120 0.931 . S
H2143 C2122 0.930 . S
H2144 C2126 0.931 . S
H2145 C2124 0.931 . S
H2146 C2128 0.931 . S
H2147 C2129 0.929 . S
H2148 C2130 0.930 . S
H2149 C2133 0.930 . S
H2150 C2134 0.931 . S
H2151 C2138 0.928 . S
H2152 C2137 0.929 . S
H2153 C2135 0.932 . S
C2154 C2155 1.386 . S
C2154 C2156 1.397 . S
C2154 H2178 0.931 . S
C2155 C2154 1.386 . S
C2155 C2159 1.397 . S
C2156 C2154 1.397 . S
C2156 C2157 1.384 . S
C2156 H2179 0.930 . S
C2157 C2156 1.384 . S
C2157 C2158 1.377 . S
C2157 C2160 1.481 . S
C2158 C2157 1.377 . S
C2158 C2159 1.389 . S
C2158 H2180 0.929 . S
C2159 C2155 1.397 . S
C2159 C2158 1.389 . S
C2159 H2181 0.931 . S
C2160 C2157 1.481 . S
C2160 C2161 1.387 . S
C2160 C2165 1.390 . S
C2161 C2160 1.387 . S
C2161 C2162 1.401 . S
C2161 H2182 0.930 . S
C2162 C2161 1.401 . S
C2162 C2163 1.376 . S
C2162 C2171 1.511 . S
C2163 C2162 1.376 . S
C2163 C2164 1.392 . S
C2163 H2184 0.931 . S
C2164 C2163 1.392 . S
C2164 C2165 1.361 . S
C2164 C2166 1.500 . S
C2165 C2160 1.390 . S
C2165 C2164 1.361 . S
C2165 H2183 0.931 . S
C2166 C2164 1.500 . S
C2166 C2167 1.371 . S
C2166 C2168 1.365 . S
C2167 C2166 1.371 . S
C2167 C2177 1.386 . S
C2167 H2185 0.931 . S
C2168 C2166 1.365 . S
C2168 C2169 1.409 . S
C2168 H2186 0.929 . S
C2169 C2168 1.409 . S
C2169 C2170 1.380 . S
C2169 H2187 0.930 . S
C2170 C2169 1.380 . S
C2170 C2177 1.357 . S
C2171 C2162 1.511 . S
C2171 C2172 1.341 . S
C2171 C2173 1.371 . S
C2172 C2171 1.341 . S
C2172 C2176 1.394 . S
C2172 H2188 0.930 . S
C2173 C2171 1.371 . S
C2173 C2174 1.392 . S
C2173 H2189 0.931 . S
C2174 C2173 1.392 . S
C2174 C2175 1.331 . S
C2174 H2192 0.932 . S
C2175 C2174 1.331 . S
C2175 C2176 1.336 . S
C2176 C2172 1.394 . S
C2176 C2175 1.336 . S
C2176 H2191 0.929 . S
C2177 C2167 1.386 . S
C2177 C2170 1.357 . S
C2177 H2190 0.928 . S
H2178 C2154 0.931 . S
H2179 C2156 0.930 . S
H2180 C2158 0.929 . S
H2181 C2159 0.931 . S
H2182 C2161 0.930 . S
H2183 C2165 0.931 . S
H2184 C2163 0.931 . S
H2185 C2167 0.931 . S
H2186 C2168 0.929 . S
H2187 C2169 0.930 . S
H2188 C2172 0.930 . S
H2189 C2173 0.931 . S
H2190 C2177 0.928 . S
H2191 C2176 0.929 . S
H2192 C2174 0.932 . S
C2193 C2194 1.386 . S
C2193 C2195 1.397 . S
C2193 H2217 0.931 . S
C2194 C2193 1.386 . S
C2194 C2198 1.397 . S
C2195 C2193 1.397 . S
C2195 C2196 1.384 . S
C2195 H2218 0.930 . S
C2196 C2195 1.384 . S
C2196 C2197 1.377 . S
C2196 C2199 1.481 . S
C2197 C2196 1.377 . S
C2197 C2198 1.389 . S
C2197 H2219 0.929 . S
C2198 C2194 1.397 . S
C2198 C2197 1.389 . S
C2198 H2220 0.931 . S
C2199 C2196 1.481 . S
C2199 C2200 1.387 . S
C2199 C2204 1.390 . S
C2200 C2199 1.387 . S
C2200 C2201 1.401 . S
C2200 H2221 0.930 . S
C2201 C2200 1.401 . S
C2201 C2202 1.376 . S
C2201 C2210 1.511 . S
C2202 C2201 1.376 . S
C2202 C2203 1.392 . S
C2202 H2223 0.931 . S
C2203 C2202 1.392 . S
C2203 C2204 1.361 . S
C2203 C2205 1.500 . S
C2204 C2199 1.390 . S
C2204 C2203 1.361 . S
C2204 H2222 0.931 . S
C2205 C2203 1.500 . S
C2205 C2206 1.371 . S
C2205 C2207 1.365 . S
C2206 C2205 1.371 . S
C2206 C2216 1.386 . S
C2206 H2224 0.931 . S
C2207 C2205 1.365 . S
C2207 C2208 1.409 . S
C2207 H2225 0.929 . S
C2208 C2207 1.409 . S
C2208 C2209 1.380 . S
C2208 H2226 0.930 . S
C2209 C2208 1.380 . S
C2209 C2216 1.357 . S
C2210 C2201 1.511 . S
C2210 C2211 1.341 . S
C2210 C2212 1.371 . S
C2211 C2210 1.341 . S
C2211 C2215 1.394 . S
C2211 H2227 0.930 . S
C2212 C2210 1.371 . S
C2212 C2213 1.392 . S
C2212 H2228 0.931 . S
C2213 C2212 1.392 . S
C2213 C2214 1.331 . S
C2213 H2231 0.932 . S
C2214 C2213 1.331 . S
C2214 C2215 1.336 . S
C2215 C2211 1.394 . S
C2215 C2214 1.336 . S
C2215 H2230 0.929 . S
C2216 C2206 1.386 . S
C2216 C2209 1.357 . S
C2216 H2229 0.928 . S
H2217 C2193 0.931 . S
H2218 C2195 0.930 . S
H2219 C2197 0.929 . S
H2220 C2198 0.931 . S
H2221 C2200 0.930 . S
H2222 C2204 0.931 . S
H2223 C2202 0.931 . S
H2224 C2206 0.931 . S
H2225 C2207 0.929 . S
H2226 C2208 0.930 . S
H2227 C2211 0.930 . S
H2228 C2212 0.931 . S
H2229 C2216 0.928 . S
H2230 C2215 0.929 . S
H2231 C2213 0.932 . S
C2232 C2233 1.386 . S
C2232 C2234 1.397 . S
C2232 H2256 0.931 . S
C2233 C2232 1.386 . S
C2233 C2237 1.397 . S
C2234 C2232 1.397 . S
C2234 C2235 1.384 . S
C2234 H2257 0.930 . S
C2235 C2234 1.384 . S
C2235 C2236 1.377 . S
C2235 C2238 1.481 . S
C2236 C2235 1.377 . S
C2236 C2237 1.389 . S
C2236 H2258 0.929 . S
C2237 C2233 1.397 . S
C2237 C2236 1.389 . S
C2237 H2259 0.931 . S
C2238 C2235 1.481 . S
C2238 C2239 1.387 . S
C2238 C2243 1.390 . S
C2239 C2238 1.387 . S
C2239 C2240 1.401 . S
C2239 H2260 0.930 . S
C2240 C2239 1.401 . S
C2240 C2241 1.376 . S
C2240 C2249 1.511 . S
C2241 C2240 1.376 . S
C2241 C2242 1.392 . S
C2241 H2262 0.931 . S
C2242 C2241 1.392 . S
C2242 C2243 1.361 . S
C2242 C2244 1.500 . S
C2243 C2238 1.390 . S
C2243 C2242 1.361 . S
C2243 H2261 0.931 . S
C2244 C2242 1.500 . S
C2244 C2245 1.371 . S
C2244 C2246 1.365 . S
C2245 C2244 1.371 . S
C2245 C2255 1.386 . S
C2245 H2263 0.931 . S
C2246 C2244 1.365 . S
C2246 C2247 1.409 . S
C2246 H2264 0.929 . S
C2247 C2246 1.409 . S
C2247 C2248 1.380 . S
C2247 H2265 0.930 . S
C2248 C2247 1.380 . S
C2248 C2255 1.357 . S
C2249 C2240 1.511 . S
C2249 C2250 1.341 . S
C2249 C2251 1.371 . S
C2250 C2249 1.341 . S
C2250 C2254 1.394 . S
C2250 H2266 0.930 . S
C2251 C2249 1.371 . S
C2251 C2252 1.392 . S
C2251 H2267 0.931 . S
C2252 C2251 1.392 . S
C2252 C2253 1.331 . S
C2252 H2270 0.932 . S
C2253 C2252 1.331 . S
C2253 C2254 1.336 . S
C2254 C2250 1.394 . S
C2254 C2253 1.336 . S
C2254 H2269 0.929 . S
C2255 C2245 1.386 . S
C2255 C2248 1.357 . S
C2255 H2268 0.928 . S
H2256 C2232 0.931 . S
H2257 C2234 0.930 . S
H2258 C2236 0.929 . S
H2259 C2237 0.931 . S
H2260 C2239 0.930 . S
H2261 C2243 0.931 . S
H2262 C2241 0.931 . S
H2263 C2245 0.931 . S
H2264 C2246 0.929 . S
H2265 C2247 0.930 . S
H2266 C2250 0.930 . S
H2267 C2251 0.931 . S
H2268 C2255 0.928 . S
H2269 C2254 0.929 . S
H2270 C2252 0.932 . S
C2271 C2272 1.386 . S
C2271 C2273 1.397 . S
C2271 H2295 0.931 . S
C2272 C2271 1.386 . S
C2272 C2276 1.397 . S
C2273 C2271 1.397 . S
C2273 C2274 1.384 . S
C2273 H2296 0.930 . S
C2274 C2273 1.384 . S
C2274 C2275 1.377 . S
C2274 C2277 1.481 . S
C2275 C2274 1.377 . S
C2275 C2276 1.389 . S
C2275 H2297 0.929 . S
C2276 C2272 1.397 . S
C2276 C2275 1.389 . S
C2276 H2298 0.931 . S
C2277 C2274 1.481 . S
C2277 C2278 1.387 . S
C2277 C2282 1.390 . S
C2278 C2277 1.387 . S
C2278 C2279 1.401 . S
C2278 H2299 0.930 . S
C2279 C2278 1.401 . S
C2279 C2280 1.376 . S
C2279 C2288 1.511 . S
C2280 C2279 1.376 . S
C2280 C2281 1.392 . S
C2280 H2301 0.931 . S
C2281 C2280 1.392 . S
C2281 C2282 1.361 . S
C2281 C2283 1.500 . S
C2282 C2277 1.390 . S
C2282 C2281 1.361 . S
C2282 H2300 0.931 . S
C2283 C2281 1.500 . S
C2283 C2284 1.371 . S
C2283 C2285 1.365 . S
C2284 C2283 1.371 . S
C2284 C2294 1.386 . S
C2284 H2302 0.931 . S
C2285 C2283 1.365 . S
C2285 C2286 1.409 . S
C2285 H2303 0.929 . S
C2286 C2285 1.409 . S
C2286 C2287 1.380 . S
C2286 H2304 0.930 . S
C2287 C2286 1.380 . S
C2287 C2294 1.357 . S
C2288 C2279 1.511 . S
C2288 C2289 1.341 . S
C2288 C2290 1.371 . S
C2289 C2288 1.341 . S
C2289 C2293 1.394 . S
C2289 H2305 0.930 . S
C2290 C2288 1.371 . S
C2290 C2291 1.392 . S
C2290 H2306 0.931 . S
C2291 C2290 1.392 . S
C2291 C2292 1.331 . S
C2291 H2309 0.932 . S
C2292 C2291 1.331 . S
C2292 C2293 1.336 . S
C2293 C2289 1.394 . S
C2293 C2292 1.336 . S
C2293 H2308 0.929 . S
C2294 C2284 1.386 . S
C2294 C2287 1.357 . S
C2294 H2307 0.928 . S
H2295 C2271 0.931 . S
H2296 C2273 0.930 . S
H2297 C2275 0.929 . S
H2298 C2276 0.931 . S
H2299 C2278 0.930 . S
H2300 C2282 0.931 . S
H2301 C2280 0.931 . S
H2302 C2284 0.931 . S
H2303 C2285 0.929 . S
H2304 C2286 0.930 . S
H2305 C2289 0.930 . S
H2306 C2290 0.931 . S
H2307 C2294 0.928 . S
H2308 C2293 0.929 . S
H2309 C2291 0.932 . S
C2310 C2311 1.386 . S
C2310 C2312 1.397 . S
C2310 H2334 0.931 . S
C2311 C2310 1.386 . S
C2311 C2315 1.397 . S
C2312 C2310 1.397 . S
C2312 C2313 1.384 . S
C2312 H2335 0.930 . S
C2313 C2312 1.384 . S
C2313 C2314 1.377 . S
C2313 C2316 1.481 . S
C2314 C2313 1.377 . S
C2314 C2315 1.389 . S
C2314 H2336 0.929 . S
C2315 C2311 1.397 . S
C2315 C2314 1.389 . S
C2315 H2337 0.931 . S
C2316 C2313 1.481 . S
C2316 C2317 1.387 . S
C2316 C2321 1.390 . S
C2317 C2316 1.387 . S
C2317 C2318 1.401 . S
C2317 H2338 0.930 . S
C2318 C2317 1.401 . S
C2318 C2319 1.376 . S
C2318 C2327 1.511 . S
C2319 C2318 1.376 . S
C2319 C2320 1.392 . S
C2319 H2340 0.931 . S
C2320 C2319 1.392 . S
C2320 C2321 1.361 . S
C2320 C2322 1.500 . S
C2321 C2316 1.390 . S
C2321 C2320 1.361 . S
C2321 H2339 0.931 . S
C2322 C2320 1.500 . S
C2322 C2323 1.371 . S
C2322 C2324 1.365 . S
C2323 C2322 1.371 . S
C2323 C2333 1.386 . S
C2323 H2341 0.931 . S
C2324 C2322 1.365 . S
C2324 C2325 1.409 . S
C2324 H2342 0.929 . S
C2325 C2324 1.409 . S
C2325 C2326 1.380 . S
C2325 H2343 0.930 . S
C2326 C2325 1.380 . S
C2326 C2333 1.357 . S
C2327 C2318 1.511 . S
C2327 C2328 1.341 . S
C2327 C2329 1.371 . S
C2328 C2327 1.341 . S
C2328 C2332 1.394 . S
C2328 H2344 0.930 . S
C2329 C2327 1.371 . S
C2329 C2330 1.392 . S
C2329 H2345 0.931 . S
C2330 C2329 1.392 . S
C2330 C2331 1.331 . S
C2330 H2348 0.932 . S
C2331 C2330 1.331 . S
C2331 C2332 1.336 . S
C2332 C2328 1.394 . S
C2332 C2331 1.336 . S
C2332 H2347 0.929 . S
C2333 C2323 1.386 . S
C2333 C2326 1.357 . S
C2333 H2346 0.928 . S
H2334 C2310 0.931 . S
H2335 C2312 0.930 . S
H2336 C2314 0.929 . S
H2337 C2315 0.931 . S
H2338 C2317 0.930 . S
H2339 C2321 0.931 . S
H2340 C2319 0.931 . S
H2341 C2323 0.931 . S
H2342 C2324 0.929 . S
H2343 C2325 0.930 . S
H2344 C2328 0.930 . S
H2345 C2329 0.931 . S
H2346 C2333 0.928 . S
H2347 C2332 0.929 . S
H2348 C2330 0.932 . S
C2349 C2350 1.386 . S
C2349 C2351 1.397 . S
C2349 H2373 0.931 . S
C2350 C2349 1.386 . S
C2350 C2354 1.397 . S
C2351 C2349 1.397 . S
C2351 C2352 1.384 . S
C2351 H2374 0.930 . S
C2352 C2351 1.384 . S
C2352 C2353 1.377 . S
C2352 C2355 1.481 . S
C2353 C2352 1.377 . S
C2353 C2354 1.389 . S
C2353 H2375 0.929 . S
C2354 C2350 1.397 . S
C2354 C2353 1.389 . S
C2354 H2376 0.931 . S
C2355 C2352 1.481 . S
C2355 C2356 1.387 . S
C2355 C2360 1.390 . S
C2356 C2355 1.387 . S
C2356 C2357 1.401 . S
C2356 H2377 0.930 . S
C2357 C2356 1.401 . S
C2357 C2358 1.376 . S
C2357 C2366 1.511 . S
C2358 C2357 1.376 . S
C2358 C2359 1.392 . S
C2358 H2379 0.931 . S
C2359 C2358 1.392 . S
C2359 C2360 1.361 . S
C2359 C2361 1.500 . S
C2360 C2355 1.390 . S
C2360 C2359 1.361 . S
C2360 H2378 0.931 . S
C2361 C2359 1.500 . S
C2361 C2362 1.371 . S
C2361 C2363 1.365 . S
C2362 C2361 1.371 . S
C2362 C2372 1.386 . S
C2362 H2380 0.931 . S
C2363 C2361 1.365 . S
C2363 C2364 1.409 . S
C2363 H2381 0.929 . S
C2364 C2363 1.409 . S
C2364 C2365 1.380 . S
C2364 H2382 0.930 . S
C2365 C2364 1.380 . S
C2365 C2372 1.357 . S
C2366 C2357 1.511 . S
C2366 C2367 1.341 . S
C2366 C2368 1.371 . S
C2367 C2366 1.341 . S
C2367 C2371 1.394 . S
C2367 H2383 0.930 . S
C2368 C2366 1.371 . S
C2368 C2369 1.392 . S
C2368 H2384 0.931 . S
C2369 C2368 1.392 . S
C2369 C2370 1.331 . S
C2369 H2387 0.932 . S
C2370 C2369 1.331 . S
C2370 C2371 1.336 . S
C2371 C2367 1.394 . S
C2371 C2370 1.336 . S
C2371 H2386 0.929 . S
C2372 C2362 1.386 . S
C2372 C2365 1.357 . S
C2372 H2385 0.928 . S
H2373 C2349 0.931 . S
H2374 C2351 0.930 . S
H2375 C2353 0.929 . S
H2376 C2354 0.931 . S
H2377 C2356 0.930 . S
H2378 C2360 0.931 . S
H2379 C2358 0.931 . S
H2380 C2362 0.931 . S
H2381 C2363 0.929 . S
H2382 C2364 0.930 . S
H2383 C2367 0.930 . S
H2384 C2368 0.931 . S
H2385 C2372 0.928 . S
H2386 C2371 0.929 . S
H2387 C2369 0.932 . S
C2388 C2389 1.386 . S
C2388 C2390 1.397 . S
C2388 H2412 0.931 . S
C2389 C2388 1.386 . S
C2389 C2393 1.397 . S
C2390 C2388 1.397 . S
C2390 C2391 1.384 . S
C2390 H2413 0.930 . S
C2391 C2390 1.384 . S
C2391 C2392 1.377 . S
C2391 C2394 1.481 . S
C2392 C2391 1.377 . S
C2392 C2393 1.389 . S
C2392 H2414 0.929 . S
C2393 C2389 1.397 . S
C2393 C2392 1.389 . S
C2393 H2415 0.931 . S
C2394 C2391 1.481 . S
C2394 C2395 1.387 . S
C2394 C2399 1.390 . S
C2395 C2394 1.387 . S
C2395 C2396 1.401 . S
C2395 H2416 0.930 . S
C2396 C2395 1.401 . S
C2396 C2397 1.376 . S
C2396 C2405 1.511 . S
C2397 C2396 1.376 . S
C2397 C2398 1.392 . S
C2397 H2418 0.931 . S
C2398 C2397 1.392 . S
C2398 C2399 1.361 . S
C2398 C2400 1.500 . S
C2399 C2394 1.390 . S
C2399 C2398 1.361 . S
C2399 H2417 0.931 . S
C2400 C2398 1.500 . S
C2400 C2401 1.371 . S
C2400 C2402 1.365 . S
C2401 C2400 1.371 . S
C2401 C2411 1.386 . S
C2401 H2419 0.931 . S
C2402 C2400 1.365 . S
C2402 C2403 1.409 . S
C2402 H2420 0.929 . S
C2403 C2402 1.409 . S
C2403 C2404 1.380 . S
C2403 H2421 0.930 . S
C2404 C2403 1.380 . S
C2404 C2411 1.357 . S
C2405 C2396 1.511 . S
C2405 C2406 1.341 . S
C2405 C2407 1.371 . S
C2406 C2405 1.341 . S
C2406 C2410 1.394 . S
C2406 H2422 0.930 . S
C2407 C2405 1.371 . S
C2407 C2408 1.392 . S
C2407 H2423 0.931 . S
C2408 C2407 1.392 . S
C2408 C2409 1.331 . S
C2408 H2426 0.932 . S
C2409 C2408 1.331 . S
C2409 C2410 1.336 . S
C2410 C2406 1.394 . S
C2410 C2409 1.336 . S
C2410 H2425 0.929 . S
C2411 C2401 1.386 . S
C2411 C2404 1.357 . S
C2411 H2424 0.928 . S
H2412 C2388 0.931 . S
H2413 C2390 0.930 . S
H2414 C2392 0.929 . S
H2415 C2393 0.931 . S
H2416 C2395 0.930 . S
H2417 C2399 0.931 . S
H2418 C2397 0.931 . S
H2419 C2401 0.931 . S
H2420 C2402 0.929 . S
H2421 C2403 0.930 . S
H2422 C2406 0.930 . S
H2423 C2407 0.931 . S
H2424 C2411 0.928 . S
H2425 C2410 0.929 . S
H2426 C2408 0.932 . S
C2427 C2428 1.386 . S
C2427 C2429 1.397 . S
C2427 H2451 0.931 . S
C2428 C2427 1.386 . S
C2428 C2432 1.397 . S
C2429 C2427 1.397 . S
C2429 C2430 1.384 . S
C2429 H2452 0.930 . S
C2430 C2429 1.384 . S
C2430 C2431 1.377 . S
C2430 C2433 1.481 . S
C2431 C2430 1.377 . S
C2431 C2432 1.389 . S
C2431 H2453 0.929 . S
C2432 C2428 1.397 . S
C2432 C2431 1.389 . S
C2432 H2454 0.931 . S
C2433 C2430 1.481 . S
C2433 C2434 1.387 . S
C2433 C2438 1.390 . S
C2434 C2433 1.387 . S
C2434 C2435 1.401 . S
C2434 H2455 0.930 . S
C2435 C2434 1.401 . S
C2435 C2436 1.376 . S
C2435 C2444 1.511 . S
C2436 C2435 1.376 . S
C2436 C2437 1.392 . S
C2436 H2457 0.931 . S
C2437 C2436 1.392 . S
C2437 C2438 1.361 . S
C2437 C2439 1.500 . S
C2438 C2433 1.390 . S
C2438 C2437 1.361 . S
C2438 H2456 0.931 . S
C2439 C2437 1.500 . S
C2439 C2440 1.371 . S
C2439 C2441 1.365 . S
C2440 C2439 1.371 . S
C2440 C2450 1.386 . S
C2440 H2458 0.931 . S
C2441 C2439 1.365 . S
C2441 C2442 1.409 . S
C2441 H2459 0.929 . S
C2442 C2441 1.409 . S
C2442 C2443 1.380 . S
C2442 H2460 0.930 . S
C2443 C2442 1.380 . S
C2443 C2450 1.357 . S
C2444 C2435 1.511 . S
C2444 C2445 1.341 . S
C2444 C2446 1.371 . S
C2445 C2444 1.341 . S
C2445 C2449 1.394 . S
C2445 H2461 0.930 . S
C2446 C2444 1.371 . S
C2446 C2447 1.392 . S
C2446 H2462 0.931 . S
C2447 C2446 1.392 . S
C2447 C2448 1.331 . S
C2447 H2465 0.932 . S
C2448 C2447 1.331 . S
C2448 C2449 1.336 . S
C2449 C2445 1.394 . S
C2449 C2448 1.336 . S
C2449 H2464 0.929 . S
C2450 C2440 1.386 . S
C2450 C2443 1.357 . S
C2450 H2463 0.928 . S
H2451 C2427 0.931 . S
H2452 C2429 0.930 . S
H2453 C2431 0.929 . S
H2454 C2432 0.931 . S
H2455 C2434 0.930 . S
H2456 C2438 0.931 . S
H2457 C2436 0.931 . S
H2458 C2440 0.931 . S
H2459 C2441 0.929 . S
H2460 C2442 0.930 . S
H2461 C2445 0.930 . S
H2462 C2446 0.931 . S
H2463 C2450 0.928 . S
H2464 C2449 0.929 . S
H2465 C2447 0.932 . S
C2466 C2467 1.386 . S
C2466 C2468 1.397 . S
C2466 H2490 0.931 . S
C2467 C2466 1.386 . S
C2467 C2471 1.397 . S
C2468 C2466 1.397 . S
C2468 C2469 1.384 . S
C2468 H2491 0.930 . S
C2469 C2468 1.384 . S
C2469 C2470 1.377 . S
C2469 C2472 1.481 . S
C2470 C2469 1.377 . S
C2470 C2471 1.389 . S
C2470 H2492 0.929 . S
C2471 C2467 1.397 . S
C2471 C2470 1.389 . S
C2471 H2493 0.931 . S
C2472 C2469 1.481 . S
C2472 C2473 1.387 . S
C2472 C2477 1.390 . S
C2473 C2472 1.387 . S
C2473 C2474 1.401 . S
C2473 H2494 0.930 . S
C2474 C2473 1.401 . S
C2474 C2475 1.376 . S
C2474 C2483 1.511 . S
C2475 C2474 1.376 . S
C2475 C2476 1.392 . S
C2475 H2496 0.931 . S
C2476 C2475 1.392 . S
C2476 C2477 1.361 . S
C2476 C2478 1.500 . S
C2477 C2472 1.390 . S
C2477 C2476 1.361 . S
C2477 H2495 0.931 . S
C2478 C2476 1.500 . S
C2478 C2479 1.371 . S
C2478 C2480 1.365 . S
C2479 C2478 1.371 . S
C2479 C2489 1.386 . S
C2479 H2497 0.931 . S
C2480 C2478 1.365 . S
C2480 C2481 1.409 . S
C2480 H2498 0.929 . S
C2481 C2480 1.409 . S
C2481 C2482 1.380 . S
C2481 H2499 0.930 . S
C2482 C2481 1.380 . S
C2482 C2489 1.357 . S
C2483 C2474 1.511 . S
C2483 C2484 1.341 . S
C2483 C2485 1.371 . S
C2484 C2483 1.341 . S
C2484 C2488 1.394 . S
C2484 H2500 0.930 . S
C2485 C2483 1.371 . S
C2485 C2486 1.392 . S
C2485 H2501 0.931 . S
C2486 C2485 1.392 . S
C2486 C2487 1.331 . S
C2486 H2504 0.932 . S
C2487 C2486 1.331 . S
C2487 C2488 1.336 . S
C2488 C2484 1.394 . S
C2488 C2487 1.336 . S
C2488 H2503 0.929 . S
C2489 C2479 1.386 . S
C2489 C2482 1.357 . S
C2489 H2502 0.928 . S
H2490 C2466 0.931 . S
H2491 C2468 0.930 . S
H2492 C2470 0.929 . S
H2493 C2471 0.931 . S
H2494 C2473 0.930 . S
H2495 C2477 0.931 . S
H2496 C2475 0.931 . S
H2497 C2479 0.931 . S
H2498 C2480 0.929 . S
H2499 C2481 0.930 . S
H2500 C2484 0.930 . S
H2501 C2485 0.931 . S
H2502 C2489 0.928 . S
H2503 C2488 0.929 . S
H2504 C2486 0.932 . S
C2505 C2506 1.386 . S
C2505 C2507 1.397 . S
C2505 H2529 0.931 . S
C2506 C2505 1.386 . S
C2506 C2510 1.397 . S
C2507 C2505 1.397 . S
C2507 C2508 1.384 . S
C2507 H2530 0.930 . S
C2508 C2507 1.384 . S
C2508 C2509 1.377 . S
C2508 C2511 1.481 . S
C2509 C2508 1.377 . S
C2509 C2510 1.389 . S
C2509 H2531 0.929 . S
C2510 C2506 1.397 . S
C2510 C2509 1.389 . S
C2510 H2532 0.931 . S
C2511 C2508 1.481 . S
C2511 C2512 1.387 . S
C2511 C2516 1.390 . S
C2512 C2511 1.387 . S
C2512 C2513 1.401 . S
C2512 H2533 0.930 . S
C2513 C2512 1.401 . S
C2513 C2514 1.376 . S
C2513 C2522 1.511 . S
C2514 C2513 1.376 . S
C2514 C2515 1.392 . S
C2514 H2535 0.931 . S
C2515 C2514 1.392 . S
C2515 C2516 1.361 . S
C2515 C2517 1.500 . S
C2516 C2511 1.390 . S
C2516 C2515 1.361 . S
C2516 H2534 0.931 . S
C2517 C2515 1.500 . S
C2517 C2518 1.371 . S
C2517 C2519 1.365 . S
C2518 C2517 1.371 . S
C2518 C2528 1.386 . S
C2518 H2536 0.931 . S
C2519 C2517 1.365 . S
C2519 C2520 1.409 . S
C2519 H2537 0.929 . S
C2520 C2519 1.409 . S
C2520 C2521 1.380 . S
C2520 H2538 0.930 . S
C2521 C2520 1.380 . S
C2521 C2528 1.357 . S
C2522 C2513 1.511 . S
C2522 C2523 1.341 . S
C2522 C2524 1.371 . S
C2523 C2522 1.341 . S
C2523 C2527 1.394 . S
C2523 H2539 0.930 . S
C2524 C2522 1.371 . S
C2524 C2525 1.392 . S
C2524 H2540 0.931 . S
C2525 C2524 1.392 . S
C2525 C2526 1.331 . S
C2525 H2543 0.932 . S
C2526 C2525 1.331 . S
C2526 C2527 1.336 . S
C2527 C2523 1.394 . S
C2527 C2526 1.336 . S
C2527 H2542 0.929 . S
C2528 C2518 1.386 . S
C2528 C2521 1.357 . S
C2528 H2541 0.928 . S
H2529 C2505 0.931 . S
H2530 C2507 0.930 . S
H2531 C2509 0.929 . S
H2532 C2510 0.931 . S
H2533 C2512 0.930 . S
H2534 C2516 0.931 . S
H2535 C2514 0.931 . S
H2536 C2518 0.931 . S
H2537 C2519 0.929 . S
H2538 C2520 0.930 . S
H2539 C2523 0.930 . S
H2540 C2524 0.931 . S
H2541 C2528 0.928 . S
H2542 C2527 0.929 . S
H2543 C2525 0.932 . S
C2544 C2545 1.386 . S
C2544 C2546 1.397 . S
C2544 H2568 0.931 . S
C2545 C2544 1.386 . S
C2545 C2549 1.397 . S
C2546 C2544 1.397 . S
C2546 C2547 1.384 . S
C2546 H2569 0.930 . S
C2547 C2546 1.384 . S
C2547 C2548 1.377 . S
C2547 C2550 1.481 . S
C2548 C2547 1.377 . S
C2548 C2549 1.389 . S
C2548 H2570 0.929 . S
C2549 C2545 1.397 . S
C2549 C2548 1.389 . S
C2549 H2571 0.931 . S
C2550 C2547 1.481 . S
C2550 C2551 1.387 . S
C2550 C2555 1.390 . S
C2551 C2550 1.387 . S
C2551 C2552 1.401 . S
C2551 H2572 0.930 . S
C2552 C2551 1.401 . S
C2552 C2553 1.376 . S
C2552 C2561 1.511 . S
C2553 C2552 1.376 . S
C2553 C2554 1.392 . S
C2553 H2574 0.931 . S
C2554 C2553 1.392 . S
C2554 C2555 1.361 . S
C2554 C2556 1.500 . S
C2555 C2550 1.390 . S
C2555 C2554 1.361 . S
C2555 H2573 0.931 . S
C2556 C2554 1.500 . S
C2556 C2557 1.371 . S
C2556 C2558 1.365 . S
C2557 C2556 1.371 . S
C2557 C2567 1.386 . S
C2557 H2575 0.931 . S
C2558 C2556 1.365 . S
C2558 C2559 1.409 . S
C2558 H2576 0.929 . S
C2559 C2558 1.409 . S
C2559 C2560 1.380 . S
C2559 H2577 0.930 . S
C2560 C2559 1.380 . S
C2560 C2567 1.357 . S
C2561 C2552 1.511 . S
C2561 C2562 1.341 . S
C2561 C2563 1.371 . S
C2562 C2561 1.341 . S
C2562 C2566 1.394 . S
C2562 H2578 0.930 . S
C2563 C2561 1.371 . S
C2563 C2564 1.392 . S
C2563 H2579 0.931 . S
C2564 C2563 1.392 . S
C2564 C2565 1.331 . S
C2564 H2582 0.932 . S
C2565 C2564 1.331 . S
C2565 C2566 1.336 . S
C2566 C2562 1.394 . S
C2566 C2565 1.336 . S
C2566 H2581 0.929 . S
C2567 C2557 1.386 . S
C2567 C2560 1.357 . S
C2567 H2580 0.928 . S
H2568 C2544 0.931 . S
H2569 C2546 0.930 . S
H2570 C2548 0.929 . S
H2571 C2549 0.931 . S
H2572 C2551 0.930 . S
H2573 C2555 0.931 . S
H2574 C2553 0.931 . S
H2575 C2557 0.931 . S
H2576 C2558 0.929 . S
H2577 C2559 0.930 . S
H2578 C2562 0.930 . S
H2579 C2563 0.931 . S
H2580 C2567 0.928 . S
H2581 C2566 0.929 . S
H2582 C2564 0.932 . S
C2583 C2584 1.386 . S
C2583 C2585 1.397 . S
C2583 H2607 0.931 . S
C2584 C2583 1.386 . S
C2584 C2588 1.397 . S
C2585 C2583 1.397 . S
C2585 C2586 1.384 . S
C2585 H2608 0.930 . S
C2586 C2585 1.384 . S
C2586 C2587 1.377 . S
C2586 C2589 1.481 . S
C2587 C2586 1.377 . S
C2587 C2588 1.389 . S
C2587 H2609 0.929 . S
C2588 C2584 1.397 . S
C2588 C2587 1.389 . S
C2588 H2610 0.931 . S
C2589 C2586 1.481 . S
C2589 C2590 1.387 . S
C2589 C2594 1.390 . S
C2590 C2589 1.387 . S
C2590 C2591 1.401 . S
C2590 H2611 0.930 . S
C2591 C2590 1.401 . S
C2591 C2592 1.376 . S
C2591 C2600 1.511 . S
C2592 C2591 1.376 . S
C2592 C2593 1.392 . S
C2592 H2613 0.931 . S
C2593 C2592 1.392 . S
C2593 C2594 1.361 . S
C2593 C2595 1.500 . S
C2594 C2589 1.390 . S
C2594 C2593 1.361 . S
C2594 H2612 0.931 . S
C2595 C2593 1.500 . S
C2595 C2596 1.371 . S
C2595 C2597 1.365 . S
C2596 C2595 1.371 . S
C2596 C2606 1.386 . S
C2596 H2614 0.931 . S
C2597 C2595 1.365 . S
C2597 C2598 1.409 . S
C2597 H2615 0.929 . S
C2598 C2597 1.409 . S
C2598 C2599 1.380 . S
C2598 H2616 0.930 . S
C2599 C2598 1.380 . S
C2599 C2606 1.357 . S
C2600 C2591 1.511 . S
C2600 C2601 1.341 . S
C2600 C2602 1.371 . S
C2601 C2600 1.341 . S
C2601 C2605 1.394 . S
C2601 H2617 0.930 . S
C2602 C2600 1.371 . S
C2602 C2603 1.392 . S
C2602 H2618 0.931 . S
C2603 C2602 1.392 . S
C2603 C2604 1.331 . S
C2603 H2621 0.932 . S
C2604 C2603 1.331 . S
C2604 C2605 1.336 . S
C2605 C2601 1.394 . S
C2605 C2604 1.336 . S
C2605 H2620 0.929 . S
C2606 C2596 1.386 . S
C2606 C2599 1.357 . S
C2606 H2619 0.928 . S
H2607 C2583 0.931 . S
H2608 C2585 0.930 . S
H2609 C2587 0.929 . S
H2610 C2588 0.931 . S
H2611 C2590 0.930 . S
H2612 C2594 0.931 . S
H2613 C2592 0.931 . S
H2614 C2596 0.931 . S
H2615 C2597 0.929 . S
H2616 C2598 0.930 . S
H2617 C2601 0.930 . S
H2618 C2602 0.931 . S
H2619 C2606 0.928 . S
H2620 C2605 0.929 . S
H2621 C2603 0.932 . S
C2622 C2623 1.386 . S
C2622 C2624 1.397 . S
C2622 H2646 0.931 . S
C2623 C2622 1.386 . S
C2623 C2627 1.397 . S
C2624 C2622 1.397 . S
C2624 C2625 1.384 . S
C2624 H2647 0.930 . S
C2625 C2624 1.384 . S
C2625 C2626 1.377 . S
C2625 C2628 1.481 . S
C2626 C2625 1.377 . S
C2626 C2627 1.389 . S
C2626 H2648 0.929 . S
C2627 C2623 1.397 . S
C2627 C2626 1.389 . S
C2627 H2649 0.931 . S
C2628 C2625 1.481 . S
C2628 C2629 1.387 . S
C2628 C2633 1.390 . S
C2629 C2628 1.387 . S
C2629 C2630 1.401 . S
C2629 H2650 0.930 . S
C2630 C2629 1.401 . S
C2630 C2631 1.376 . S
C2630 C2639 1.511 . S
C2631 C2630 1.376 . S
C2631 C2632 1.392 . S
C2631 H2652 0.931 . S
C2632 C2631 1.392 . S
C2632 C2633 1.361 . S
C2632 C2634 1.500 . S
C2633 C2628 1.390 . S
C2633 C2632 1.361 . S
C2633 H2651 0.931 . S
C2634 C2632 1.500 . S
C2634 C2635 1.371 . S
C2634 C2636 1.365 . S
C2635 C2634 1.371 . S
C2635 C2645 1.386 . S
C2635 H2653 0.931 . S
C2636 C2634 1.365 . S
C2636 C2637 1.409 . S
C2636 H2654 0.929 . S
C2637 C2636 1.409 . S
C2637 C2638 1.380 . S
C2637 H2655 0.930 . S
C2638 C2637 1.380 . S
C2638 C2645 1.357 . S
C2639 C2630 1.511 . S
C2639 C2640 1.341 . S
C2639 C2641 1.371 . S
C2640 C2639 1.341 . S
C2640 C2644 1.394 . S
C2640 H2656 0.930 . S
C2641 C2639 1.371 . S
C2641 C2642 1.392 . S
C2641 H2657 0.931 . S
C2642 C2641 1.392 . S
C2642 C2643 1.331 . S
C2642 H2660 0.932 . S
C2643 C2642 1.331 . S
C2643 C2644 1.336 . S
C2644 C2640 1.394 . S
C2644 C2643 1.336 . S
C2644 H2659 0.929 . S
C2645 C2635 1.386 . S
C2645 C2638 1.357 . S
C2645 H2658 0.928 . S
H2646 C2622 0.931 . S
H2647 C2624 0.930 . S
H2648 C2626 0.929 . S
H2649 C2627 0.931 . S
H2650 C2629 0.930 . S
H2651 C2633 0.931 . S
H2652 C2631 0.931 . S
H2653 C2635 0.931 . S
H2654 C2636 0.929 . S
H2655 C2637 0.930 . S
H2656 C2640 0.930 . S
H2657 C2641 0.931 . S
H2658 C2645 0.928 . S
H2659 C2644 0.929 . S
H2660 C2642 0.932 . S
C2661 C2662 1.386 . S
C2661 C2663 1.397 . S
C2661 H2685 0.931 . S
C2662 C2661 1.386 . S
C2662 C2666 1.397 . S
C2663 C2661 1.397 . S
C2663 C2664 1.384 . S
C2663 H2686 0.930 . S
C2664 C2663 1.384 . S
C2664 C2665 1.377 . S
C2664 C2667 1.481 . S
C2665 C2664 1.377 . S
C2665 C2666 1.389 . S
C2665 H2687 0.929 . S
C2666 C2662 1.397 . S
C2666 C2665 1.389 . S
C2666 H2688 0.931 . S
C2667 C2664 1.481 . S
C2667 C2668 1.387 . S
C2667 C2672 1.390 . S
C2668 C2667 1.387 . S
C2668 C2669 1.401 . S
C2668 H2689 0.930 . S
C2669 C2668 1.401 . S
C2669 C2670 1.376 . S
C2669 C2678 1.511 . S
C2670 C2669 1.376 . S
C2670 C2671 1.392 . S
C2670 H2691 0.931 . S
C2671 C2670 1.392 . S
C2671 C2672 1.361 . S
C2671 C2673 1.500 . S
C2672 C2667 1.390 . S
C2672 C2671 1.361 . S
C2672 H2690 0.931 . S
C2673 C2671 1.500 . S
C2673 C2674 1.371 . S
C2673 C2675 1.365 . S
C2674 C2673 1.371 . S
C2674 C2684 1.386 . S
C2674 H2692 0.931 . S
C2675 C2673 1.365 . S
C2675 C2676 1.409 . S
C2675 H2693 0.929 . S
C2676 C2675 1.409 . S
C2676 C2677 1.380 . S
C2676 H2694 0.930 . S
C2677 C2676 1.380 . S
C2677 C2684 1.357 . S
C2678 C2669 1.511 . S
C2678 C2679 1.341 . S
C2678 C2680 1.371 . S
C2679 C2678 1.341 . S
C2679 C2683 1.394 . S
C2679 H2695 0.930 . S
C2680 C2678 1.371 . S
C2680 C2681 1.392 . S
C2680 H2696 0.931 . S
C2681 C2680 1.392 . S
C2681 C2682 1.331 . S
C2681 H2699 0.932 . S
C2682 C2681 1.331 . S
C2682 C2683 1.336 . S
C2683 C2679 1.394 . S
C2683 C2682 1.336 . S
C2683 H2698 0.929 . S
C2684 C2674 1.386 . S
C2684 C2677 1.357 . S
C2684 H2697 0.928 . S
H2685 C2661 0.931 . S
H2686 C2663 0.930 . S
H2687 C2665 0.929 . S
H2688 C2666 0.931 . S
H2689 C2668 0.930 . S
H2690 C2672 0.931 . S
H2691 C2670 0.931 . S
H2692 C2674 0.931 . S
H2693 C2675 0.929 . S
H2694 C2676 0.930 . S
H2695 C2679 0.930 . S
H2696 C2680 0.931 . S
H2697 C2684 0.928 . S
H2698 C2683 0.929 . S
H2699 C2681 0.932 . S
C2700 C2701 1.386 . S
C2700 C2702 1.397 . S
C2700 H2724 0.931 . S
C2701 C2700 1.386 . S
C2701 C2705 1.397 . S
C2702 C2700 1.397 . S
C2702 C2703 1.384 . S
C2702 H2725 0.930 . S
C2703 C2702 1.384 . S
C2703 C2704 1.377 . S
C2703 C2706 1.481 . S
C2704 C2703 1.377 . S
C2704 C2705 1.389 . S
C2704 H2726 0.929 . S
C2705 C2701 1.397 . S
C2705 C2704 1.389 . S
C2705 H2727 0.931 . S
C2706 C2703 1.481 . S
C2706 C2707 1.387 . S
C2706 C2711 1.390 . S
C2707 C2706 1.387 . S
C2707 C2708 1.401 . S
C2707 H2728 0.930 . S
C2708 C2707 1.401 . S
C2708 C2709 1.376 . S
C2708 C2717 1.511 . S
C2709 C2708 1.376 . S
C2709 C2710 1.392 . S
C2709 H2730 0.931 . S
C2710 C2709 1.392 . S
C2710 C2711 1.361 . S
C2710 C2712 1.500 . S
C2711 C2706 1.390 . S
C2711 C2710 1.361 . S
C2711 H2729 0.931 . S
C2712 C2710 1.500 . S
C2712 C2713 1.371 . S
C2712 C2714 1.365 . S
C2713 C2712 1.371 . S
C2713 C2723 1.386 . S
C2713 H2731 0.931 . S
C2714 C2712 1.365 . S
C2714 C2715 1.409 . S
C2714 H2732 0.929 . S
C2715 C2714 1.409 . S
C2715 C2716 1.380 . S
C2715 H2733 0.930 . S
C2716 C2715 1.380 . S
C2716 C2723 1.357 . S
C2717 C2708 1.511 . S
C2717 C2718 1.341 . S
C2717 C2719 1.371 . S
C2718 C2717 1.341 . S
C2718 C2722 1.394 . S
C2718 H2734 0.930 . S
C2719 C2717 1.371 . S
C2719 C2720 1.392 . S
C2719 H2735 0.931 . S
C2720 C2719 1.392 . S
C2720 C2721 1.331 . S
C2720 H2738 0.932 . S
C2721 C2720 1.331 . S
C2721 C2722 1.336 . S
C2722 C2718 1.394 . S
C2722 C2721 1.336 . S
C2722 H2737 0.929 . S
C2723 C2713 1.386 . S
C2723 C2716 1.357 . S
C2723 H2736 0.928 . S
H2724 C2700 0.931 . S
H2725 C2702 0.930 . S
H2726 C2704 0.929 . S
H2727 C2705 0.931 . S
H2728 C2707 0.930 . S
H2729 C2711 0.931 . S
H2730 C2709 0.931 . S
H2731 C2713 0.931 . S
H2732 C2714 0.929 . S
H2733 C2715 0.930 . S
H2734 C2718 0.930 . S
H2735 C2719 0.931 . S
H2736 C2723 0.928 . S
H2737 C2722 0.929 . S
H2738 C2720 0.932 . S
C2739 C2740 1.386 . S
C2739 C2741 1.397 . S
C2739 H2763 0.931 . S
C2740 C2739 1.386 . S
C2740 C2744 1.397 . S
C2741 C2739 1.397 . S
C2741 C2742 1.384 . S
C2741 H2764 0.930 . S
C2742 C2741 1.384 . S
C2742 C2743 1.377 . S
C2742 C2745 1.481 . S
C2743 C2742 1.377 . S
C2743 C2744 1.389 . S
C2743 H2765 0.929 . S
C2744 C2740 1.397 . S
C2744 C2743 1.389 . S
C2744 H2766 0.931 . S
C2745 C2742 1.481 . S
C2745 C2746 1.387 . S
C2745 C2750 1.390 . S
C2746 C2745 1.387 . S
C2746 C2747 1.401 . S
C2746 H2767 0.930 . S
C2747 C2746 1.401 . S
C2747 C2748 1.376 . S
C2747 C2756 1.511 . S
C2748 C2747 1.376 . S
C2748 C2749 1.392 . S
C2748 H2769 0.931 . S
C2749 C2748 1.392 . S
C2749 C2750 1.361 . S
C2749 C2751 1.500 . S
C2750 C2745 1.390 . S
C2750 C2749 1.361 . S
C2750 H2768 0.931 . S
C2751 C2749 1.500 . S
C2751 C2752 1.371 . S
C2751 C2753 1.365 . S
C2752 C2751 1.371 . S
C2752 C2762 1.386 . S
C2752 H2770 0.931 . S
C2753 C2751 1.365 . S
C2753 C2754 1.409 . S
C2753 H2771 0.929 . S
C2754 C2753 1.409 . S
C2754 C2755 1.380 . S
C2754 H2772 0.930 . S
C2755 C2754 1.380 . S
C2755 C2762 1.357 . S
C2756 C2747 1.511 . S
C2756 C2757 1.341 . S
C2756 C2758 1.371 . S
C2757 C2756 1.341 . S
C2757 C2761 1.394 . S
C2757 H2773 0.930 . S
C2758 C2756 1.371 . S
C2758 C2759 1.392 . S
C2758 H2774 0.931 . S
C2759 C2758 1.392 . S
C2759 C2760 1.331 . S
C2759 H2777 0.932 . S
C2760 C2759 1.331 . S
C2760 C2761 1.336 . S
C2761 C2757 1.394 . S
C2761 C2760 1.336 . S
C2761 H2776 0.929 . S
C2762 C2752 1.386 . S
C2762 C2755 1.357 . S
C2762 H2775 0.928 . S
H2763 C2739 0.931 . S
H2764 C2741 0.930 . S
H2765 C2743 0.929 . S
H2766 C2744 0.931 . S
H2767 C2746 0.930 . S
H2768 C2750 0.931 . S
H2769 C2748 0.931 . S
H2770 C2752 0.931 . S
H2771 C2753 0.929 . S
H2772 C2754 0.930 . S
H2773 C2757 0.930 . S
H2774 C2758 0.931 . S
H2775 C2762 0.928 . S
H2776 C2761 0.929 . S
H2777 C2759 0.932 . S
C2778 C2779 1.386 . S
C2778 C2780 1.397 . S
C2778 H2802 0.931 . S
C2779 C2778 1.386 . S
C2779 C2783 1.397 . S
C2780 C2778 1.397 . S
C2780 C2781 1.384 . S
C2780 H2803 0.930 . S
C2781 C2780 1.384 . S
C2781 C2782 1.377 . S
C2781 C2784 1.481 . S
C2782 C2781 1.377 . S
C2782 C2783 1.389 . S
C2782 H2804 0.929 . S
C2783 C2779 1.397 . S
C2783 C2782 1.389 . S
C2783 H2805 0.931 . S
C2784 C2781 1.481 . S
C2784 C2785 1.387 . S
C2784 C2789 1.390 . S
C2785 C2784 1.387 . S
C2785 C2786 1.401 . S
C2785 H2806 0.930 . S
C2786 C2785 1.401 . S
C2786 C2787 1.376 . S
C2786 C2795 1.511 . S
C2787 C2786 1.376 . S
C2787 C2788 1.392 . S
C2787 H2808 0.931 . S
C2788 C2787 1.392 . S
C2788 C2789 1.361 . S
C2788 C2790 1.500 . S
C2789 C2784 1.390 . S
C2789 C2788 1.361 . S
C2789 H2807 0.931 . S
C2790 C2788 1.500 . S
C2790 C2791 1.371 . S
C2790 C2792 1.365 . S
C2791 C2790 1.371 . S
C2791 C2801 1.386 . S
C2791 H2809 0.931 . S
C2792 C2790 1.365 . S
C2792 C2793 1.409 . S
C2792 H2810 0.929 . S
C2793 C2792 1.409 . S
C2793 C2794 1.380 . S
C2793 H2811 0.930 . S
C2794 C2793 1.380 . S
C2794 C2801 1.357 . S
C2795 C2786 1.511 . S
C2795 C2796 1.341 . S
C2795 C2797 1.371 . S
C2796 C2795 1.341 . S
C2796 C2800 1.394 . S
C2796 H2812 0.930 . S
C2797 C2795 1.371 . S
C2797 C2798 1.392 . S
C2797 H2813 0.931 . S
C2798 C2797 1.392 . S
C2798 C2799 1.331 . S
C2798 H2816 0.932 . S
C2799 C2798 1.331 . S
C2799 C2800 1.336 . S
C2800 C2796 1.394 . S
C2800 C2799 1.336 . S
C2800 H2815 0.929 . S
C2801 C2791 1.386 . S
C2801 C2794 1.357 . S
C2801 H2814 0.928 . S
H2802 C2778 0.931 . S
H2803 C2780 0.930 . S
H2804 C2782 0.929 . S
H2805 C2783 0.931 . S
H2806 C2785 0.930 . S
H2807 C2789 0.931 . S
H2808 C2787 0.931 . S
H2809 C2791 0.931 . S
H2810 C2792 0.929 . S
H2811 C2793 0.930 . S
H2812 C2796 0.930 . S
H2813 C2797 0.931 . S
H2814 C2801 0.928 . S
H2815 C2800 0.929 . S
H2816 C2798 0.932 . S
C2817 C2818 1.386 . S
C2817 C2819 1.397 . S
C2817 H2841 0.931 . S
C2818 C2817 1.386 . S
C2818 C2822 1.397 . S
C2819 C2817 1.397 . S
C2819 C2820 1.384 . S
C2819 H2842 0.930 . S
C2820 C2819 1.384 . S
C2820 C2821 1.377 . S
C2820 C2823 1.481 . S
C2821 C2820 1.377 . S
C2821 C2822 1.389 . S
C2821 H2843 0.929 . S
C2822 C2818 1.397 . S
C2822 C2821 1.389 . S
C2822 H2844 0.931 . S
C2823 C2820 1.481 . S
C2823 C2824 1.387 . S
C2823 C2828 1.390 . S
C2824 C2823 1.387 . S
C2824 C2825 1.401 . S
C2824 H2845 0.930 . S
C2825 C2824 1.401 . S
C2825 C2826 1.376 . S
C2825 C2834 1.511 . S
C2826 C2825 1.376 . S
C2826 C2827 1.392 . S
C2826 H2847 0.931 . S
C2827 C2826 1.392 . S
C2827 C2828 1.361 . S
C2827 C2829 1.500 . S
C2828 C2823 1.390 . S
C2828 C2827 1.361 . S
C2828 H2846 0.931 . S
C2829 C2827 1.500 . S
C2829 C2830 1.371 . S
C2829 C2831 1.365 . S
C2830 C2829 1.371 . S
C2830 C2840 1.386 . S
C2830 H2848 0.931 . S
C2831 C2829 1.365 . S
C2831 C2832 1.409 . S
C2831 H2849 0.929 . S
C2832 C2831 1.409 . S
C2832 C2833 1.380 . S
C2832 H2850 0.930 . S
C2833 C2832 1.380 . S
C2833 C2840 1.357 . S
C2834 C2825 1.511 . S
C2834 C2835 1.341 . S
C2834 C2836 1.371 . S
C2835 C2834 1.341 . S
C2835 C2839 1.394 . S
C2835 H2851 0.930 . S
C2836 C2834 1.371 . S
C2836 C2837 1.392 . S
C2836 H2852 0.931 . S
C2837 C2836 1.392 . S
C2837 C2838 1.331 . S
C2837 H2855 0.932 . S
C2838 C2837 1.331 . S
C2838 C2839 1.336 . S
C2839 C2835 1.394 . S
C2839 C2838 1.336 . S
C2839 H2854 0.929 . S
C2840 C2830 1.386 . S
C2840 C2833 1.357 . S
C2840 H2853 0.928 . S
H2841 C2817 0.931 . S
H2842 C2819 0.930 . S
H2843 C2821 0.929 . S
H2844 C2822 0.931 . S
H2845 C2824 0.930 . S
H2846 C2828 0.931 . S
H2847 C2826 0.931 . S
H2848 C2830 0.931 . S
H2849 C2831 0.929 . S
H2850 C2832 0.930 . S
H2851 C2835 0.930 . S
H2852 C2836 0.931 . S
H2853 C2840 0.928 . S
H2854 C2839 0.929 . S
H2855 C2837 0.932 . S
C2856 C2857 1.386 . S
C2856 C2858 1.397 . S
C2856 H2880 0.931 . S
C2857 C2856 1.386 . S
C2857 C2861 1.397 . S
C2858 C2856 1.397 . S
C2858 C2859 1.384 . S
C2858 H2881 0.930 . S
C2859 C2858 1.384 . S
C2859 C2860 1.377 . S
C2859 C2862 1.481 . S
C2860 C2859 1.377 . S
C2860 C2861 1.389 . S
C2860 H2882 0.929 . S
C2861 C2857 1.397 . S
C2861 C2860 1.389 . S
C2861 H2883 0.931 . S
C2862 C2859 1.481 . S
C2862 C2863 1.387 . S
C2862 C2867 1.390 . S
C2863 C2862 1.387 . S
C2863 C2864 1.401 . S
C2863 H2884 0.930 . S
C2864 C2863 1.401 . S
C2864 C2865 1.376 . S
C2864 C2873 1.511 . S
C2865 C2864 1.376 . S
C2865 C2866 1.392 . S
C2865 H2886 0.931 . S
C2866 C2865 1.392 . S
C2866 C2867 1.361 . S
C2866 C2868 1.500 . S
C2867 C2862 1.390 . S
C2867 C2866 1.361 . S
C2867 H2885 0.931 . S
C2868 C2866 1.500 . S
C2868 C2869 1.371 . S
C2868 C2870 1.365 . S
C2869 C2868 1.371 . S
C2869 C2879 1.386 . S
C2869 H2887 0.931 . S
C2870 C2868 1.365 . S
C2870 C2871 1.409 . S
C2870 H2888 0.929 . S
C2871 C2870 1.409 . S
C2871 C2872 1.380 . S
C2871 H2889 0.930 . S
C2872 C2871 1.380 . S
C2872 C2879 1.357 . S
C2873 C2864 1.511 . S
C2873 C2874 1.341 . S
C2873 C2875 1.371 . S
C2874 C2873 1.341 . S
C2874 C2878 1.394 . S
C2874 H2890 0.930 . S
C2875 C2873 1.371 . S
C2875 C2876 1.392 . S
C2875 H2891 0.931 . S
C2876 C2875 1.392 . S
C2876 C2877 1.331 . S
C2876 H2894 0.932 . S
C2877 C2876 1.331 . S
C2877 C2878 1.336 . S
C2878 C2874 1.394 . S
C2878 C2877 1.336 . S
C2878 H2893 0.929 . S
C2879 C2869 1.386 . S
C2879 C2872 1.357 . S
C2879 H2892 0.928 . S
H2880 C2856 0.931 . S
H2881 C2858 0.930 . S
H2882 C2860 0.929 . S
H2883 C2861 0.931 . S
H2884 C2863 0.930 . S
H2885 C2867 0.931 . S
H2886 C2865 0.931 . S
H2887 C2869 0.931 . S
H2888 C2870 0.929 . S
H2889 C2871 0.930 . S
H2890 C2874 0.930 . S
H2891 C2875 0.931 . S
H2892 C2879 0.928 . S
H2893 C2878 0.929 . S
H2894 C2876 0.932 . S
C2895 C2896 1.386 . S
C2895 C2897 1.397 . S
C2895 H2919 0.931 . S
C2896 C2895 1.386 . S
C2896 C2900 1.397 . S
C2897 C2895 1.397 . S
C2897 C2898 1.384 . S
C2897 H2920 0.930 . S
C2898 C2897 1.384 . S
C2898 C2899 1.377 . S
C2898 C2901 1.481 . S
C2899 C2898 1.377 . S
C2899 C2900 1.389 . S
C2899 H2921 0.929 . S
C2900 C2896 1.397 . S
C2900 C2899 1.389 . S
C2900 H2922 0.931 . S
C2901 C2898 1.481 . S
C2901 C2902 1.387 . S
C2901 C2906 1.390 . S
C2902 C2901 1.387 . S
C2902 C2903 1.401 . S
C2902 H2923 0.930 . S
C2903 C2902 1.401 . S
C2903 C2904 1.376 . S
C2903 C2912 1.511 . S
C2904 C2903 1.376 . S
C2904 C2905 1.392 . S
C2904 H2925 0.931 . S
C2905 C2904 1.392 . S
C2905 C2906 1.361 . S
C2905 C2907 1.500 . S
C2906 C2901 1.390 . S
C2906 C2905 1.361 . S
C2906 H2924 0.931 . S
C2907 C2905 1.500 . S
C2907 C2908 1.371 . S
C2907 C2909 1.365 . S
C2908 C2907 1.371 . S
C2908 C2918 1.386 . S
C2908 H2926 0.931 . S
C2909 C2907 1.365 . S
C2909 C2910 1.409 . S
C2909 H2927 0.929 . S
C2910 C2909 1.409 . S
C2910 C2911 1.380 . S
C2910 H2928 0.930 . S
C2911 C2910 1.380 . S
C2911 C2918 1.357 . S
C2912 C2903 1.511 . S
C2912 C2913 1.341 . S
C2912 C2914 1.371 . S
C2913 C2912 1.341 . S
C2913 C2917 1.394 . S
C2913 H2929 0.930 . S
C2914 C2912 1.371 . S
C2914 C2915 1.392 . S
C2914 H2930 0.931 . S
C2915 C2914 1.392 . S
C2915 C2916 1.331 . S
C2915 H2933 0.932 . S
C2916 C2915 1.331 . S
C2916 C2917 1.336 . S
C2917 C2913 1.394 . S
C2917 C2916 1.336 . S
C2917 H2932 0.929 . S
C2918 C2908 1.386 . S
C2918 C2911 1.357 . S
C2918 H2931 0.928 . S
H2919 C2895 0.931 . S
H2920 C2897 0.930 . S
H2921 C2899 0.929 . S
H2922 C2900 0.931 . S
H2923 C2902 0.930 . S
H2924 C2906 0.931 . S
H2925 C2904 0.931 . S
H2926 C2908 0.931 . S
H2927 C2909 0.929 . S
H2928 C2910 0.930 . S
H2929 C2913 0.930 . S
H2930 C2914 0.931 . S
H2931 C2918 0.928 . S
H2932 C2917 0.929 . S
H2933 C2915 0.932 . S
C2934 C2935 1.386 . S
C2934 C2936 1.397 . S
C2934 H2958 0.931 . S
C2935 C2934 1.386 . S
C2935 C2939 1.397 . S
C2936 C2934 1.397 . S
C2936 C2937 1.384 . S
C2936 H2959 0.930 . S
C2937 C2936 1.384 . S
C2937 C2938 1.377 . S
C2937 C2940 1.481 . S
C2938 C2937 1.377 . S
C2938 C2939 1.389 . S
C2938 H2960 0.929 . S
C2939 C2935 1.397 . S
C2939 C2938 1.389 . S
C2939 H2961 0.931 . S
C2940 C2937 1.481 . S
C2940 C2941 1.387 . S
C2940 C2945 1.390 . S
C2941 C2940 1.387 . S
C2941 C2942 1.401 . S
C2941 H2962 0.930 . S
C2942 C2941 1.401 . S
C2942 C2943 1.376 . S
C2942 C2951 1.511 . S
C2943 C2942 1.376 . S
C2943 C2944 1.392 . S
C2943 H2964 0.931 . S
C2944 C2943 1.392 . S
C2944 C2945 1.361 . S
C2944 C2946 1.500 . S
C2945 C2940 1.390 . S
C2945 C2944 1.361 . S
C2945 H2963 0.931 . S
C2946 C2944 1.500 . S
C2946 C2947 1.371 . S
C2946 C2948 1.365 . S
C2947 C2946 1.371 . S
C2947 C2957 1.386 . S
C2947 H2965 0.931 . S
C2948 C2946 1.365 . S
C2948 C2949 1.409 . S
C2948 H2966 0.929 . S
C2949 C2948 1.409 . S
C2949 C2950 1.380 . S
C2949 H2967 0.930 . S
C2950 C2949 1.380 . S
C2950 C2957 1.357 . S
C2951 C2942 1.511 . S
C2951 C2952 1.341 . S
C2951 C2953 1.371 . S
C2952 C2951 1.341 . S
C2952 C2956 1.394 . S
C2952 H2968 0.930 . S
C2953 C2951 1.371 . S
C2953 C2954 1.392 . S
C2953 H2969 0.931 . S
C2954 C2953 1.392 . S
C2954 C2955 1.331 . S
C2954 H2972 0.932 . S
C2955 C2954 1.331 . S
C2955 C2956 1.336 . S
C2956 C2952 1.394 . S
C2956 C2955 1.336 . S
C2956 H2971 0.929 . S
C2957 C2947 1.386 . S
C2957 C2950 1.357 . S
C2957 H2970 0.928 . S
H2958 C2934 0.931 . S
H2959 C2936 0.930 . S
H2960 C2938 0.929 . S
H2961 C2939 0.931 . S
H2962 C2941 0.930 . S
H2963 C2945 0.931 . S
H2964 C2943 0.931 . S
H2965 C2947 0.931 . S
H2966 C2948 0.929 . S
H2967 C2949 0.930 . S
H2968 C2952 0.930 . S
H2969 C2953 0.931 . S
H2970 C2957 0.928 . S
H2971 C2956 0.929 . S
H2972 C2954 0.932 . S
C2973 C2974 1.386 . S
C2973 C2975 1.397 . S
C2973 H2997 0.931 . S
C2974 C2973 1.386 . S
C2974 C2978 1.397 . S
C2975 C2973 1.397 . S
C2975 C2976 1.384 . S
C2975 H2998 0.930 . S
C2976 C2975 1.384 . S
C2976 C2977 1.377 . S
C2976 C2979 1.481 . S
C2977 C2976 1.377 . S
C2977 C2978 1.389 . S
C2977 H2999 0.929 . S
C2978 C2974 1.397 . S
C2978 C2977 1.389 . S
C2978 H3000 0.931 . S
C2979 C2976 1.481 . S
C2979 C2980 1.387 . S
C2979 C2984 1.390 . S
C2980 C2979 1.387 . S
C2980 C2981 1.401 . S
C2980 H3001 0.930 . S
C2981 C2980 1.401 . S
C2981 C2982 1.376 . S
C2981 C2990 1.511 . S
C2982 C2981 1.376 . S
C2982 C2983 1.392 . S
C2982 H3003 0.931 . S
C2983 C2982 1.392 . S
C2983 C2984 1.361 . S
C2983 C2985 1.500 . S
C2984 C2979 1.390 . S
C2984 C2983 1.361 . S
C2984 H3002 0.931 . S
C2985 C2983 1.500 . S
C2985 C2986 1.371 . S
C2985 C2987 1.365 . S
C2986 C2985 1.371 . S
C2986 C2996 1.386 . S
C2986 H3004 0.931 . S
C2987 C2985 1.365 . S
C2987 C2988 1.409 . S
C2987 H3005 0.929 . S
C2988 C2987 1.409 . S
C2988 C2989 1.380 . S
C2988 H3006 0.930 . S
C2989 C2988 1.380 . S
C2989 C2996 1.357 . S
C2990 C2981 1.511 . S
C2990 C2991 1.341 . S
C2990 C2992 1.371 . S
C2991 C2990 1.341 . S
C2991 C2995 1.394 . S
C2991 H3007 0.930 . S
C2992 C2990 1.371 . S
C2992 C2993 1.392 . S
C2992 H3008 0.931 . S
C2993 C2992 1.392 . S
C2993 C2994 1.331 . S
C2993 H3011 0.932 . S
C2994 C2993 1.331 . S
C2994 C2995 1.336 . S
C2995 C2991 1.394 . S
C2995 C2994 1.336 . S
C2995 H3010 0.929 . S
C2996 C2986 1.386 . S
C2996 C2989 1.357 . S
C2996 H3009 0.928 . S
H2997 C2973 0.931 . S
H2998 C2975 0.930 . S
H2999 C2977 0.929 . S
H3000 C2978 0.931 . S
H3001 C2980 0.930 . S
H3002 C2984 0.931 . S
H3003 C2982 0.931 . S
H3004 C2986 0.931 . S
H3005 C2987 0.929 . S
H3006 C2988 0.930 . S
H3007 C2991 0.930 . S
H3008 C2992 0.931 . S
H3009 C2996 0.928 . S
H3010 C2995 0.929 . S
H3011 C2993 0.932 . S
C3012 C3013 1.386 . S
C3012 C3014 1.397 . S
C3012 H3036 0.931 . S
C3013 C3012 1.386 . S
C3013 C3017 1.397 . S
C3014 C3012 1.397 . S
C3014 C3015 1.384 . S
C3014 H3037 0.930 . S
C3015 C3014 1.384 . S
C3015 C3016 1.377 . S
C3015 C3018 1.481 . S
C3016 C3015 1.377 . S
C3016 C3017 1.389 . S
C3016 H3038 0.929 . S
C3017 C3013 1.397 . S
C3017 C3016 1.389 . S
C3017 H3039 0.931 . S
C3018 C3015 1.481 . S
C3018 C3019 1.387 . S
C3018 C3023 1.390 . S
C3019 C3018 1.387 . S
C3019 C3020 1.401 . S
C3019 H3040 0.930 . S
C3020 C3019 1.401 . S
C3020 C3021 1.376 . S
C3020 C3029 1.511 . S
C3021 C3020 1.376 . S
C3021 C3022 1.392 . S
C3021 H3042 0.931 . S
C3022 C3021 1.392 . S
C3022 C3023 1.361 . S
C3022 C3024 1.500 . S
C3023 C3018 1.390 . S
C3023 C3022 1.361 . S
C3023 H3041 0.931 . S
C3024 C3022 1.500 . S
C3024 C3025 1.371 . S
C3024 C3026 1.365 . S
C3025 C3024 1.371 . S
C3025 C3035 1.386 . S
C3025 H3043 0.931 . S
C3026 C3024 1.365 . S
C3026 C3027 1.409 . S
C3026 H3044 0.929 . S
C3027 C3026 1.409 . S
C3027 C3028 1.380 . S
C3027 H3045 0.930 . S
C3028 C3027 1.380 . S
C3028 C3035 1.357 . S
C3029 C3020 1.511 . S
C3029 C3030 1.341 . S
C3029 C3031 1.371 . S
C3030 C3029 1.341 . S
C3030 C3034 1.394 . S
C3030 H3046 0.930 . S
C3031 C3029 1.371 . S
C3031 C3032 1.392 . S
C3031 H3047 0.931 . S
C3032 C3031 1.392 . S
C3032 C3033 1.331 . S
C3032 H3050 0.932 . S
C3033 C3032 1.331 . S
C3033 C3034 1.336 . S
C3034 C3030 1.394 . S
C3034 C3033 1.336 . S
C3034 H3049 0.929 . S
C3035 C3025 1.386 . S
C3035 C3028 1.357 . S
C3035 H3048 0.928 . S
H3036 C3012 0.931 . S
H3037 C3014 0.930 . S
H3038 C3016 0.929 . S
H3039 C3017 0.931 . S
H3040 C3019 0.930 . S
H3041 C3023 0.931 . S
H3042 C3021 0.931 . S
H3043 C3025 0.931 . S
H3044 C3026 0.929 . S
H3045 C3027 0.930 . S
H3046 C3030 0.930 . S
H3047 C3031 0.931 . S
H3048 C3035 0.928 . S
H3049 C3034 0.929 . S
H3050 C3032 0.932 . S
C3051 C3052 1.386 . S
C3051 C3053 1.397 . S
C3051 H3075 0.931 . S
C3052 C3051 1.386 . S
C3052 C3056 1.397 . S
C3053 C3051 1.397 . S
C3053 C3054 1.384 . S
C3053 H3076 0.930 . S
C3054 C3053 1.384 . S
C3054 C3055 1.377 . S
C3054 C3057 1.481 . S
C3055 C3054 1.377 . S
C3055 C3056 1.389 . S
C3055 H3077 0.929 . S
C3056 C3052 1.397 . S
C3056 C3055 1.389 . S
C3056 H3078 0.931 . S
C3057 C3054 1.481 . S
C3057 C3058 1.387 . S
C3057 C3062 1.390 . S
C3058 C3057 1.387 . S
C3058 C3059 1.401 . S
C3058 H3079 0.930 . S
C3059 C3058 1.401 . S
C3059 C3060 1.376 . S
C3059 C3068 1.511 . S
C3060 C3059 1.376 . S
C3060 C3061 1.392 . S
C3060 H3081 0.931 . S
C3061 C3060 1.392 . S
C3061 C3062 1.361 . S
C3061 C3063 1.500 . S
C3062 C3057 1.390 . S
C3062 C3061 1.361 . S
C3062 H3080 0.931 . S
C3063 C3061 1.500 . S
C3063 C3064 1.371 . S
C3063 C3065 1.365 . S
C3064 C3063 1.371 . S
C3064 C3074 1.386 . S
C3064 H3082 0.931 . S
C3065 C3063 1.365 . S
C3065 C3066 1.409 . S
C3065 H3083 0.929 . S
C3066 C3065 1.409 . S
C3066 C3067 1.380 . S
C3066 H3084 0.930 . S
C3067 C3066 1.380 . S
C3067 C3074 1.357 . S
C3068 C3059 1.511 . S
C3068 C3069 1.341 . S
C3068 C3070 1.371 . S
C3069 C3068 1.341 . S
C3069 C3073 1.394 . S
C3069 H3085 0.930 . S
C3070 C3068 1.371 . S
C3070 C3071 1.392 . S
C3070 H3086 0.931 . S
C3071 C3070 1.392 . S
C3071 C3072 1.331 . S
C3071 H3089 0.932 . S
C3072 C3071 1.331 . S
C3072 C3073 1.336 . S
C3073 C3069 1.394 . S
C3073 C3072 1.336 . S
C3073 H3088 0.929 . S
C3074 C3064 1.386 . S
C3074 C3067 1.357 . S
C3074 H3087 0.928 . S
H3075 C3051 0.931 . S
H3076 C3053 0.930 . S
H3077 C3055 0.929 . S
H3078 C3056 0.931 . S
H3079 C3058 0.930 . S
H3080 C3062 0.931 . S
H3081 C3060 0.931 . S
H3082 C3064 0.931 . S
H3083 C3065 0.929 . S
H3084 C3066 0.930 . S
H3085 C3069 0.930 . S
H3086 C3070 0.931 . S
H3087 C3074 0.928 . S
H3088 C3073 0.929 . S
H3089 C3071 0.932 . S
C3090 C3091 1.386 . S
C3090 C3092 1.397 . S
C3090 H3114 0.931 . S
C3091 C3090 1.386 . S
C3091 C3095 1.397 . S
C3092 C3090 1.397 . S
C3092 C3093 1.384 . S
C3092 H3115 0.930 . S
C3093 C3092 1.384 . S
C3093 C3094 1.377 . S
C3093 C3096 1.481 . S
C3094 C3093 1.377 . S
C3094 C3095 1.389 . S
C3094 H3116 0.929 . S
C3095 C3091 1.397 . S
C3095 C3094 1.389 . S
C3095 H3117 0.931 . S
C3096 C3093 1.481 . S
C3096 C3097 1.387 . S
C3096 C3101 1.390 . S
C3097 C3096 1.387 . S
C3097 C3098 1.401 . S
C3097 H3118 0.930 . S
C3098 C3097 1.401 . S
C3098 C3099 1.376 . S
C3098 C3107 1.511 . S
C3099 C3098 1.376 . S
C3099 C3100 1.392 . S
C3099 H3120 0.931 . S
C3100 C3099 1.392 . S
C3100 C3101 1.361 . S
C3100 C3102 1.500 . S
C3101 C3096 1.390 . S
C3101 C3100 1.361 . S
C3101 H3119 0.931 . S
C3102 C3100 1.500 . S
C3102 C3103 1.371 . S
C3102 C3104 1.365 . S
C3103 C3102 1.371 . S
C3103 C3113 1.386 . S
C3103 H3121 0.931 . S
C3104 C3102 1.365 . S
C3104 C3105 1.409 . S
C3104 H3122 0.929 . S
C3105 C3104 1.409 . S
C3105 C3106 1.380 . S
C3105 H3123 0.930 . S
C3106 C3105 1.380 . S
C3106 C3113 1.357 . S
C3107 C3098 1.511 . S
C3107 C3108 1.341 . S
C3107 C3109 1.371 . S
C3108 C3107 1.341 . S
C3108 C3112 1.394 . S
C3108 H3124 0.930 . S
C3109 C3107 1.371 . S
C3109 C3110 1.392 . S
C3109 H3125 0.931 . S
C3110 C3109 1.392 . S
C3110 C3111 1.331 . S
C3110 H3128 0.932 . S
C3111 C3110 1.331 . S
C3111 C3112 1.336 . S
C3112 C3108 1.394 . S
C3112 C3111 1.336 . S
C3112 H3127 0.929 . S
C3113 C3103 1.386 . S
C3113 C3106 1.357 . S
C3113 H3126 0.928 . S
H3114 C3090 0.931 . S
H3115 C3092 0.930 . S
H3116 C3094 0.929 . S
H3117 C3095 0.931 . S
H3118 C3097 0.930 . S
H3119 C3101 0.931 . S
H3120 C3099 0.931 . S
H3121 C3103 0.931 . S
H3122 C3104 0.929 . S
H3123 C3105 0.930 . S
H3124 C3108 0.930 . S
H3125 C3109 0.931 . S
H3126 C3113 0.928 . S
H3127 C3112 0.929 . S
H3128 C3110 0.932 . S
C3129 C3130 1.386 . S
C3129 C3131 1.397 . S
C3129 H3153 0.931 . S
C3130 C3129 1.386 . S
C3130 C3134 1.397 . S
C3131 C3129 1.397 . S
C3131 C3132 1.384 . S
C3131 H3154 0.930 . S
C3132 C3131 1.384 . S
C3132 C3133 1.377 . S
C3132 C3135 1.481 . S
C3133 C3132 1.377 . S
C3133 C3134 1.389 . S
C3133 H3155 0.929 . S
C3134 C3130 1.397 . S
C3134 C3133 1.389 . S
C3134 H3156 0.931 . S
C3135 C3132 1.481 . S
C3135 C3136 1.387 . S
C3135 C3140 1.390 . S
C3136 C3135 1.387 . S
C3136 C3137 1.401 . S
C3136 H3157 0.930 . S
C3137 C3136 1.401 . S
C3137 C3138 1.376 . S
C3137 C3146 1.511 . S
C3138 C3137 1.376 . S
C3138 C3139 1.392 . S
C3138 H3159 0.931 . S
C3139 C3138 1.392 . S
C3139 C3140 1.361 . S
C3139 C3141 1.500 . S
C3140 C3135 1.390 . S
C3140 C3139 1.361 . S
C3140 H3158 0.931 . S
C3141 C3139 1.500 . S
C3141 C3142 1.371 . S
C3141 C3143 1.365 . S
C3142 C3141 1.371 . S
C3142 C3152 1.386 . S
C3142 H3160 0.931 . S
C3143 C3141 1.365 . S
C3143 C3144 1.409 . S
C3143 H3161 0.929 . S
C3144 C3143 1.409 . S
C3144 C3145 1.380 . S
C3144 H3162 0.930 . S
C3145 C3144 1.380 . S
C3145 C3152 1.357 . S
C3146 C3137 1.511 . S
C3146 C3147 1.341 . S
C3146 C3148 1.371 . S
C3147 C3146 1.341 . S
C3147 C3151 1.394 . S
C3147 H3163 0.930 . S
C3148 C3146 1.371 . S
C3148 C3149 1.392 . S
C3148 H3164 0.931 . S
C3149 C3148 1.392 . S
C3149 C3150 1.331 . S
C3149 H3167 0.932 . S
C3150 C3149 1.331 . S
C3150 C3151 1.336 . S
C3151 C3147 1.394 . S
C3151 C3150 1.336 . S
C3151 H3166 0.929 . S
C3152 C3142 1.386 . S
C3152 C3145 1.357 . S
C3152 H3165 0.928 . S
H3153 C3129 0.931 . S
H3154 C3131 0.930 . S
H3155 C3133 0.929 . S
H3156 C3134 0.931 . S
H3157 C3136 0.930 . S
H3158 C3140 0.931 . S
H3159 C3138 0.931 . S
H3160 C3142 0.931 . S
H3161 C3143 0.929 . S
H3162 C3144 0.930 . S
H3163 C3147 0.930 . S
H3164 C3148 0.931 . S
H3165 C3152 0.928 . S
H3166 C3151 0.929 . S
H3167 C3149 0.932 . S
C3168 C3169 1.386 . S
C3168 C3170 1.397 . S
C3168 H3192 0.931 . S
C3169 C3168 1.386 . S
C3169 C3173 1.397 . S
C3170 C3168 1.397 . S
C3170 C3171 1.384 . S
C3170 H3193 0.930 . S
C3171 C3170 1.384 . S
C3171 C3172 1.377 . S
C3171 C3174 1.481 . S
C3172 C3171 1.377 . S
C3172 C3173 1.389 . S
C3172 H3194 0.929 . S
C3173 C3169 1.397 . S
C3173 C3172 1.389 . S
C3173 H3195 0.931 . S
C3174 C3171 1.481 . S
C3174 C3175 1.387 . S
C3174 C3179 1.390 . S
C3175 C3174 1.387 . S
C3175 C3176 1.401 . S
C3175 H3196 0.930 . S
C3176 C3175 1.401 . S
C3176 C3177 1.376 . S
C3176 C3185 1.511 . S
C3177 C3176 1.376 . S
C3177 C3178 1.392 . S
C3177 H3198 0.931 . S
C3178 C3177 1.392 . S
C3178 C3179 1.361 . S
C3178 C3180 1.500 . S
C3179 C3174 1.390 . S
C3179 C3178 1.361 . S
C3179 H3197 0.931 . S
C3180 C3178 1.500 . S
C3180 C3181 1.371 . S
C3180 C3182 1.365 . S
C3181 C3180 1.371 . S
C3181 C3191 1.386 . S
C3181 H3199 0.931 . S
C3182 C3180 1.365 . S
C3182 C3183 1.409 . S
C3182 H3200 0.929 . S
C3183 C3182 1.409 . S
C3183 C3184 1.380 . S
C3183 H3201 0.930 . S
C3184 C3183 1.380 . S
C3184 C3191 1.357 . S
C3185 C3176 1.511 . S
C3185 C3186 1.341 . S
C3185 C3187 1.371 . S
C3186 C3185 1.341 . S
C3186 C3190 1.394 . S
C3186 H3202 0.930 . S
C3187 C3185 1.371 . S
C3187 C3188 1.392 . S
C3187 H3203 0.931 . S
C3188 C3187 1.392 . S
C3188 C3189 1.331 . S
C3188 H3206 0.932 . S
C3189 C3188 1.331 . S
C3189 C3190 1.336 . S
C3190 C3186 1.394 . S
C3190 C3189 1.336 . S
C3190 H3205 0.929 . S
C3191 C3181 1.386 . S
C3191 C3184 1.357 . S
C3191 H3204 0.928 . S
H3192 C3168 0.931 . S
H3193 C3170 0.930 . S
H3194 C3172 0.929 . S
H3195 C3173 0.931 . S
H3196 C3175 0.930 . S
H3197 C3179 0.931 . S
H3198 C3177 0.931 . S
H3199 C3181 0.931 . S
H3200 C3182 0.929 . S
H3201 C3183 0.930 . S
H3202 C3186 0.930 . S
H3203 C3187 0.931 . S
H3204 C3191 0.928 . S
H3205 C3190 0.929 . S
H3206 C3188 0.932 . S
C3207 C3208 1.386 . S
C3207 C3209 1.397 . S
C3207 H3231 0.931 . S
C3208 C3207 1.386 . S
C3208 C3212 1.397 . S
C3209 C3207 1.397 . S
C3209 C3210 1.384 . S
C3209 H3232 0.930 . S
C3210 C3209 1.384 . S
C3210 C3211 1.377 . S
C3210 C3213 1.481 . S
C3211 C3210 1.377 . S
C3211 C3212 1.389 . S
C3211 H3233 0.929 . S
C3212 C3208 1.397 . S
C3212 C3211 1.389 . S
C3212 H3234 0.931 . S
C3213 C3210 1.481 . S
C3213 C3214 1.387 . S
C3213 C3218 1.390 . S
C3214 C3213 1.387 . S
C3214 C3215 1.401 . S
C3214 H3235 0.930 . S
C3215 C3214 1.401 . S
C3215 C3216 1.376 . S
C3215 C3224 1.511 . S
C3216 C3215 1.376 . S
C3216 C3217 1.392 . S
C3216 H3237 0.931 . S
C3217 C3216 1.392 . S
C3217 C3218 1.361 . S
C3217 C3219 1.500 . S
C3218 C3213 1.390 . S
C3218 C3217 1.361 . S
C3218 H3236 0.931 . S
C3219 C3217 1.500 . S
C3219 C3220 1.371 . S
C3219 C3221 1.365 . S
C3220 C3219 1.371 . S
C3220 C3230 1.386 . S
C3220 H3238 0.931 . S
C3221 C3219 1.365 . S
C3221 C3222 1.409 . S
C3221 H3239 0.929 . S
C3222 C3221 1.409 . S
C3222 C3223 1.380 . S
C3222 H3240 0.930 . S
C3223 C3222 1.380 . S
C3223 C3230 1.357 . S
C3224 C3215 1.511 . S
C3224 C3225 1.341 . S
C3224 C3226 1.371 . S
C3225 C3224 1.341 . S
C3225 C3229 1.394 . S
C3225 H3241 0.930 . S
C3226 C3224 1.371 . S
C3226 C3227 1.392 . S
C3226 H3242 0.931 . S
C3227 C3226 1.392 . S
C3227 C3228 1.331 . S
C3227 H3245 0.932 . S
C3228 C3227 1.331 . S
C3228 C3229 1.336 . S
C3229 C3225 1.394 . S
C3229 C3228 1.336 . S
C3229 H3244 0.929 . S
C3230 C3220 1.386 . S
C3230 C3223 1.357 . S
C3230 H3243 0.928 . S
H3231 C3207 0.931 . S
H3232 C3209 0.930 . S
H3233 C3211 0.929 . S
H3234 C3212 0.931 . S
H3235 C3214 0.930 . S
H3236 C3218 0.931 . S
H3237 C3216 0.931 . S
H3238 C3220 0.931 . S
H3239 C3221 0.929 . S
H3240 C3222 0.930 . S
H3241 C3225 0.930 . S
H3242 C3226 0.931 . S
H3243 C3230 0.928 . S
H3244 C3229 0.929 . S
H3245 C3227 0.932 . S
C3246 C3247 1.386 . S
C3246 C3248 1.397 . S
C3246 H3270 0.931 . S
C3247 C3246 1.386 . S
C3247 C3251 1.397 . S
C3248 C3246 1.397 . S
C3248 C3249 1.384 . S
C3248 H3271 0.930 . S
C3249 C3248 1.384 . S
C3249 C3250 1.377 . S
C3249 C3252 1.481 . S
C3250 C3249 1.377 . S
C3250 C3251 1.389 . S
C3250 H3272 0.929 . S
C3251 C3247 1.397 . S
C3251 C3250 1.389 . S
C3251 H3273 0.931 . S
C3252 C3249 1.481 . S
C3252 C3253 1.387 . S
C3252 C3257 1.390 . S
C3253 C3252 1.387 . S
C3253 C3254 1.401 . S
C3253 H3274 0.930 . S
C3254 C3253 1.401 . S
C3254 C3255 1.376 . S
C3254 C3263 1.511 . S
C3255 C3254 1.376 . S
C3255 C3256 1.392 . S
C3255 H3276 0.931 . S
C3256 C3255 1.392 . S
C3256 C3257 1.361 . S
C3256 C3258 1.500 . S
C3257 C3252 1.390 . S
C3257 C3256 1.361 . S
C3257 H3275 0.931 . S
C3258 C3256 1.500 . S
C3258 C3259 1.371 . S
C3258 C3260 1.365 . S
C3259 C3258 1.371 . S
C3259 C3269 1.386 . S
C3259 H3277 0.931 . S
C3260 C3258 1.365 . S
C3260 C3261 1.409 . S
C3260 H3278 0.929 . S
C3261 C3260 1.409 . S
C3261 C3262 1.380 . S
C3261 H3279 0.930 . S
C3262 C3261 1.380 . S
C3262 C3269 1.357 . S
C3263 C3254 1.511 . S
C3263 C3264 1.341 . S
C3263 C3265 1.371 . S
C3264 C3263 1.341 . S
C3264 C3268 1.394 . S
C3264 H3280 0.930 . S
C3265 C3263 1.371 . S
C3265 C3266 1.392 . S
C3265 H3281 0.931 . S
C3266 C3265 1.392 . S
C3266 C3267 1.331 . S
C3266 H3284 0.932 . S
C3267 C3266 1.331 . S
C3267 C3268 1.336 . S
C3268 C3264 1.394 . S
C3268 C3267 1.336 . S
C3268 H3283 0.929 . S
C3269 C3259 1.386 . S
C3269 C3262 1.357 . S
C3269 H3282 0.928 . S
H3270 C3246 0.931 . S
H3271 C3248 0.930 . S
H3272 C3250 0.929 . S
H3273 C3251 0.931 . S
H3274 C3253 0.930 . S
H3275 C3257 0.931 . S
H3276 C3255 0.931 . S
H3277 C3259 0.931 . S
H3278 C3260 0.929 . S
H3279 C3261 0.930 . S
H3280 C3264 0.930 . S
H3281 C3265 0.931 . S
H3282 C3269 0.928 . S
H3283 C3268 0.929 . S
H3284 C3266 0.932 . S
C3285 C3286 1.386 . S
C3285 C3287 1.397 . S
C3285 H3309 0.931 . S
C3286 C3285 1.386 . S
C3286 C3290 1.397 . S
C3287 C3285 1.397 . S
C3287 C3288 1.384 . S
C3287 H3310 0.930 . S
C3288 C3287 1.384 . S
C3288 C3289 1.377 . S
C3288 C3291 1.481 . S
C3289 C3288 1.377 . S
C3289 C3290 1.389 . S
C3289 H3311 0.929 . S
C3290 C3286 1.397 . S
C3290 C3289 1.389 . S
C3290 H3312 0.931 . S
C3291 C3288 1.481 . S
C3291 C3292 1.387 . S
C3291 C3296 1.390 . S
C3292 C3291 1.387 . S
C3292 C3293 1.401 . S
C3292 H3313 0.930 . S
C3293 C3292 1.401 . S
C3293 C3294 1.376 . S
C3293 C3302 1.511 . S
C3294 C3293 1.376 . S
C3294 C3295 1.392 . S
C3294 H3315 0.931 . S
C3295 C3294 1.392 . S
C3295 C3296 1.361 . S
C3295 C3297 1.500 . S
C3296 C3291 1.390 . S
C3296 C3295 1.361 . S
C3296 H3314 0.931 . S
C3297 C3295 1.500 . S
C3297 C3298 1.371 . S
C3297 C3299 1.365 . S
C3298 C3297 1.371 . S
C3298 C3308 1.386 . S
C3298 H3316 0.931 . S
C3299 C3297 1.365 . S
C3299 C3300 1.409 . S
C3299 H3317 0.929 . S
C3300 C3299 1.409 . S
C3300 C3301 1.380 . S
C3300 H3318 0.930 . S
C3301 C3300 1.380 . S
C3301 C3308 1.357 . S
C3302 C3293 1.511 . S
C3302 C3303 1.341 . S
C3302 C3304 1.371 . S
C3303 C3302 1.341 . S
C3303 C3307 1.394 . S
C3303 H3319 0.930 . S
C3304 C3302 1.371 . S
C3304 C3305 1.392 . S
C3304 H3320 0.931 . S
C3305 C3304 1.392 . S
C3305 C3306 1.331 . S
C3305 H3323 0.932 . S
C3306 C3305 1.331 . S
C3306 C3307 1.336 . S
C3307 C3303 1.394 . S
C3307 C3306 1.336 . S
C3307 H3322 0.929 . S
C3308 C3298 1.386 . S
C3308 C3301 1.357 . S
C3308 H3321 0.928 . S
H3309 C3285 0.931 . S
H3310 C3287 0.930 . S
H3311 C3289 0.929 . S
H3312 C3290 0.931 . S
H3313 C3292 0.930 . S
H3314 C3296 0.931 . S
H3315 C3294 0.931 . S
H3316 C3298 0.931 . S
H3317 C3299 0.929 . S
H3318 C3300 0.930 . S
H3319 C3303 0.930 . S
H3320 C3304 0.931 . S
H3321 C3308 0.928 . S
H3322 C3307 0.929 . S
H3323 C3305 0.932 . S
C3324 C3325 1.386 . S
C3324 C3326 1.397 . S
C3324 H3348 0.931 . S
C3325 C3324 1.386 . S
C3325 C3329 1.397 . S
C3326 C3324 1.397 . S
C3326 C3327 1.384 . S
C3326 H3349 0.930 . S
C3327 C3326 1.384 . S
C3327 C3328 1.377 . S
C3327 C3330 1.481 . S
C3328 C3327 1.377 . S
C3328 C3329 1.389 . S
C3328 H3350 0.929 . S
C3329 C3325 1.397 . S
C3329 C3328 1.389 . S
C3329 H3351 0.931 . S
C3330 C3327 1.481 . S
C3330 C3331 1.387 . S
C3330 C3335 1.390 . S
C3331 C3330 1.387 . S
C3331 C3332 1.401 . S
C3331 H3352 0.930 . S
C3332 C3331 1.401 . S
C3332 C3333 1.376 . S
C3332 C3341 1.511 . S
C3333 C3332 1.376 . S
C3333 C3334 1.392 . S
C3333 H3354 0.931 . S
C3334 C3333 1.392 . S
C3334 C3335 1.361 . S
C3334 C3336 1.500 . S
C3335 C3330 1.390 . S
C3335 C3334 1.361 . S
C3335 H3353 0.931 . S
C3336 C3334 1.500 . S
C3336 C3337 1.371 . S
C3336 C3338 1.365 . S
C3337 C3336 1.371 . S
C3337 C3347 1.386 . S
C3337 H3355 0.931 . S
C3338 C3336 1.365 . S
C3338 C3339 1.409 . S
C3338 H3356 0.929 . S
C3339 C3338 1.409 . S
C3339 C3340 1.380 . S
C3339 H3357 0.930 . S
C3340 C3339 1.380 . S
C3340 C3347 1.357 . S
C3341 C3332 1.511 . S
C3341 C3342 1.341 . S
C3341 C3343 1.371 . S
C3342 C3341 1.341 . S
C3342 C3346 1.394 . S
C3342 H3358 0.930 . S
C3343 C3341 1.371 . S
C3343 C3344 1.392 . S
C3343 H3359 0.931 . S
C3344 C3343 1.392 . S
C3344 C3345 1.331 . S
C3344 H3362 0.932 . S
C3345 C3344 1.331 . S
C3345 C3346 1.336 . S
C3346 C3342 1.394 . S
C3346 C3345 1.336 . S
C3346 H3361 0.929 . S
C3347 C3337 1.386 . S
C3347 C3340 1.357 . S
C3347 H3360 0.928 . S
H3348 C3324 0.931 . S
H3349 C3326 0.930 . S
H3350 C3328 0.929 . S
H3351 C3329 0.931 . S
H3352 C3331 0.930 . S
H3353 C3335 0.931 . S
H3354 C3333 0.931 . S
H3355 C3337 0.931 . S
H3356 C3338 0.929 . S
H3357 C3339 0.930 . S
H3358 C3342 0.930 . S
H3359 C3343 0.931 . S
H3360 C3347 0.928 . S
H3361 C3346 0.929 . S
H3362 C3344 0.932 . S
C3363 C3364 1.386 . S
C3363 C3365 1.397 . S
C3363 H3387 0.931 . S
C3364 C3363 1.386 . S
C3364 C3368 1.397 . S
C3365 C3363 1.397 . S
C3365 C3366 1.384 . S
C3365 H3388 0.930 . S
C3366 C3365 1.384 . S
C3366 C3367 1.377 . S
C3366 C3369 1.481 . S
C3367 C3366 1.377 . S
C3367 C3368 1.389 . S
C3367 H3389 0.929 . S
C3368 C3364 1.397 . S
C3368 C3367 1.389 . S
C3368 H3390 0.931 . S
C3369 C3366 1.481 . S
C3369 C3370 1.387 . S
C3369 C3374 1.390 . S
C3370 C3369 1.387 . S
C3370 C3371 1.401 . S
C3370 H3391 0.930 . S
C3371 C3370 1.401 . S
C3371 C3372 1.376 . S
C3371 C3380 1.511 . S
C3372 C3371 1.376 . S
C3372 C3373 1.392 . S
C3372 H3393 0.931 . S
C3373 C3372 1.392 . S
C3373 C3374 1.361 . S
C3373 C3375 1.500 . S
C3374 C3369 1.390 . S
C3374 C3373 1.361 . S
C3374 H3392 0.931 . S
C3375 C3373 1.500 . S
C3375 C3376 1.371 . S
C3375 C3377 1.365 . S
C3376 C3375 1.371 . S
C3376 C3386 1.386 . S
C3376 H3394 0.931 . S
C3377 C3375 1.365 . S
C3377 C3378 1.409 . S
C3377 H3395 0.929 . S
C3378 C3377 1.409 . S
C3378 C3379 1.380 . S
C3378 H3396 0.930 . S
C3379 C3378 1.380 . S
C3379 C3386 1.357 . S
C3380 C3371 1.511 . S
C3380 C3381 1.341 . S
C3380 C3382 1.371 . S
C3381 C3380 1.341 . S
C3381 C3385 1.394 . S
C3381 H3397 0.930 . S
C3382 C3380 1.371 . S
C3382 C3383 1.392 . S
C3382 H3398 0.931 . S
C3383 C3382 1.392 . S
C3383 C3384 1.331 . S
C3383 H3401 0.932 . S
C3384 C3383 1.331 . S
C3384 C3385 1.336 . S
C3385 C3381 1.394 . S
C3385 C3384 1.336 . S
C3385 H3400 0.929 . S
C3386 C3376 1.386 . S
C3386 C3379 1.357 . S
C3386 H3399 0.928 . S
H3387 C3363 0.931 . S
H3388 C3365 0.930 . S
H3389 C3367 0.929 . S
H3390 C3368 0.931 . S
H3391 C3370 0.930 . S
H3392 C3374 0.931 . S
H3393 C3372 0.931 . S
H3394 C3376 0.931 . S
H3395 C3377 0.929 . S
H3396 C3378 0.930 . S
H3397 C3381 0.930 . S
H3398 C3382 0.931 . S
H3399 C3386 0.928 . S
H3400 C3385 0.929 . S
H3401 C3383 0.932 . S
C3402 C3403 1.386 . S
C3402 C3404 1.397 . S
C3402 H3426 0.931 . S
C3403 C3402 1.386 . S
C3403 C3407 1.397 . S
C3404 C3402 1.397 . S
C3404 C3405 1.384 . S
C3404 H3427 0.930 . S
C3405 C3404 1.384 . S
C3405 C3406 1.377 . S
C3405 C3408 1.481 . S
C3406 C3405 1.377 . S
C3406 C3407 1.389 . S
C3406 H3428 0.929 . S
C3407 C3403 1.397 . S
C3407 C3406 1.389 . S
C3407 H3429 0.931 . S
C3408 C3405 1.481 . S
C3408 C3409 1.387 . S
C3408 C3413 1.390 . S
C3409 C3408 1.387 . S
C3409 C3410 1.401 . S
C3409 H3430 0.930 . S
C3410 C3409 1.401 . S
C3410 C3411 1.376 . S
C3410 C3419 1.511 . S
C3411 C3410 1.376 . S
C3411 C3412 1.392 . S
C3411 H3432 0.931 . S
C3412 C3411 1.392 . S
C3412 C3413 1.361 . S
C3412 C3414 1.500 . S
C3413 C3408 1.390 . S
C3413 C3412 1.361 . S
C3413 H3431 0.931 . S
C3414 C3412 1.500 . S
C3414 C3415 1.371 . S
C3414 C3416 1.365 . S
C3415 C3414 1.371 . S
C3415 C3425 1.386 . S
C3415 H3433 0.931 . S
C3416 C3414 1.365 . S
C3416 C3417 1.409 . S
C3416 H3434 0.929 . S
C3417 C3416 1.409 . S
C3417 C3418 1.380 . S
C3417 H3435 0.930 . S
C3418 C3417 1.380 . S
C3418 C3425 1.357 . S
C3419 C3410 1.511 . S
C3419 C3420 1.341 . S
C3419 C3421 1.371 . S
C3420 C3419 1.341 . S
C3420 C3424 1.394 . S
C3420 H3436 0.930 . S
C3421 C3419 1.371 . S
C3421 C3422 1.392 . S
C3421 H3437 0.931 . S
C3422 C3421 1.392 . S
C3422 C3423 1.331 . S
C3422 H3440 0.932 . S
C3423 C3422 1.331 . S
C3423 C3424 1.336 . S
C3424 C3420 1.394 . S
C3424 C3423 1.336 . S
C3424 H3439 0.929 . S
C3425 C3415 1.386 . S
C3425 C3418 1.357 . S
C3425 H3438 0.928 . S
H3426 C3402 0.931 . S
H3427 C3404 0.930 . S
H3428 C3406 0.929 . S
H3429 C3407 0.931 . S
H3430 C3409 0.930 . S
H3431 C3413 0.931 . S
H3432 C3411 0.931 . S
H3433 C3415 0.931 . S
H3434 C3416 0.929 . S
H3435 C3417 0.930 . S
H3436 C3420 0.930 . S
H3437 C3421 0.931 . S
H3438 C3425 0.928 . S
H3439 C3424 0.929 . S
H3440 C3422 0.932 . S
C3441 C3442 1.386 . S
C3441 C3443 1.397 . S
C3441 H3465 0.931 . S
C3442 C3441 1.386 . S
C3442 C3446 1.397 . S
C3443 C3441 1.397 . S
C3443 C3444 1.384 . S
C3443 H3466 0.930 . S
C3444 C3443 1.384 . S
C3444 C3445 1.377 . S
C3444 C3447 1.481 . S
C3445 C3444 1.377 . S
C3445 C3446 1.389 . S
C3445 H3467 0.929 . S
C3446 C3442 1.397 . S
C3446 C3445 1.389 . S
C3446 H3468 0.931 . S
C3447 C3444 1.481 . S
C3447 C3448 1.387 . S
C3447 C3452 1.390 . S
C3448 C3447 1.387 . S
C3448 C3449 1.401 . S
C3448 H3469 0.930 . S
C3449 C3448 1.401 . S
C3449 C3450 1.376 . S
C3449 C3458 1.511 . S
C3450 C3449 1.376 . S
C3450 C3451 1.392 . S
C3450 H3471 0.931 . S
C3451 C3450 1.392 . S
C3451 C3452 1.361 . S
C3451 C3453 1.500 . S
C3452 C3447 1.390 . S
C3452 C3451 1.361 . S
C3452 H3470 0.931 . S
C3453 C3451 1.500 . S
C3453 C3454 1.371 . S
C3453 C3455 1.365 . S
C3454 C3453 1.371 . S
C3454 C3464 1.386 . S
C3454 H3472 0.931 . S
C3455 C3453 1.365 . S
C3455 C3456 1.409 . S
C3455 H3473 0.929 . S
C3456 C3455 1.409 . S
C3456 C3457 1.380 . S
C3456 H3474 0.930 . S
C3457 C3456 1.380 . S
C3457 C3464 1.357 . S
C3458 C3449 1.511 . S
C3458 C3459 1.341 . S
C3458 C3460 1.371 . S
C3459 C3458 1.341 . S
C3459 C3463 1.394 . S
C3459 H3475 0.930 . S
C3460 C3458 1.371 . S
C3460 C3461 1.392 . S
C3460 H3476 0.931 . S
C3461 C3460 1.392 . S
C3461 C3462 1.331 . S
C3461 H3479 0.932 . S
C3462 C3461 1.331 . S
C3462 C3463 1.336 . S
C3463 C3459 1.394 . S
C3463 C3462 1.336 . S
C3463 H3478 0.929 . S
C3464 C3454 1.386 . S
C3464 C3457 1.357 . S
C3464 H3477 0.928 . S
H3465 C3441 0.931 . S
H3466 C3443 0.930 . S
H3467 C3445 0.929 . S
H3468 C3446 0.931 . S
H3469 C3448 0.930 . S
H3470 C3452 0.931 . S
H3471 C3450 0.931 . S
H3472 C3454 0.931 . S
H3473 C3455 0.929 . S
H3474 C3456 0.930 . S
H3475 C3459 0.930 . S
H3476 C3460 0.931 . S
H3477 C3464 0.928 . S
H3478 C3463 0.929 . S
H3479 C3461 0.932 . S
C3480 C3481 1.386 . S
C3480 C3482 1.397 . S
C3480 H3504 0.931 . S
C3481 C3480 1.386 . S
C3481 C3485 1.397 . S
C3482 C3480 1.397 . S
C3482 C3483 1.384 . S
C3482 H3505 0.930 . S
C3483 C3482 1.384 . S
C3483 C3484 1.377 . S
C3483 C3486 1.481 . S
C3484 C3483 1.377 . S
C3484 C3485 1.389 . S
C3484 H3506 0.929 . S
C3485 C3481 1.397 . S
C3485 C3484 1.389 . S
C3485 H3507 0.931 . S
C3486 C3483 1.481 . S
C3486 C3487 1.387 . S
C3486 C3491 1.390 . S
C3487 C3486 1.387 . S
C3487 C3488 1.401 . S
C3487 H3508 0.930 . S
C3488 C3487 1.401 . S
C3488 C3489 1.376 . S
C3488 C3497 1.511 . S
C3489 C3488 1.376 . S
C3489 C3490 1.392 . S
C3489 H3510 0.931 . S
C3490 C3489 1.392 . S
C3490 C3491 1.361 . S
C3490 C3492 1.500 . S
C3491 C3486 1.390 . S
C3491 C3490 1.361 . S
C3491 H3509 0.931 . S
C3492 C3490 1.500 . S
C3492 C3493 1.371 . S
C3492 C3494 1.365 . S
C3493 C3492 1.371 . S
C3493 C3503 1.386 . S
C3493 H3511 0.931 . S
C3494 C3492 1.365 . S
C3494 C3495 1.409 . S
C3494 H3512 0.929 . S
C3495 C3494 1.409 . S
C3495 C3496 1.380 . S
C3495 H3513 0.930 . S
C3496 C3495 1.380 . S
C3496 C3503 1.357 . S
C3497 C3488 1.511 . S
C3497 C3498 1.341 . S
C3497 C3499 1.371 . S
C3498 C3497 1.341 . S
C3498 C3502 1.394 . S
C3498 H3514 0.930 . S
C3499 C3497 1.371 . S
C3499 C3500 1.392 . S
C3499 H3515 0.931 . S
C3500 C3499 1.392 . S
C3500 C3501 1.331 . S
C3500 H3518 0.932 . S
C3501 C3500 1.331 . S
C3501 C3502 1.336 . S
C3502 C3498 1.394 . S
C3502 C3501 1.336 . S
C3502 H3517 0.929 . S
C3503 C3493 1.386 . S
C3503 C3496 1.357 . S
C3503 H3516 0.928 . S
H3504 C3480 0.931 . S
H3505 C3482 0.930 . S
H3506 C3484 0.929 . S
H3507 C3485 0.931 . S
H3508 C3487 0.930 . S
H3509 C3491 0.931 . S
H3510 C3489 0.931 . S
H3511 C3493 0.931 . S
H3512 C3494 0.929 . S
H3513 C3495 0.930 . S
H3514 C3498 0.930 . S
H3515 C3499 0.931 . S
H3516 C3503 0.928 . S
H3517 C3502 0.929 . S
H3518 C3500 0.932 . S
C3519 C3520 1.386 . S
C3519 C3521 1.397 . S
C3519 H3543 0.931 . S
C3520 C3519 1.386 . S
C3520 C3524 1.397 . S
C3521 C3519 1.397 . S
C3521 C3522 1.384 . S
C3521 H3544 0.930 . S
C3522 C3521 1.384 . S
C3522 C3523 1.377 . S
C3522 C3525 1.481 . S
C3523 C3522 1.377 . S
C3523 C3524 1.389 . S
C3523 H3545 0.929 . S
C3524 C3520 1.397 . S
C3524 C3523 1.389 . S
C3524 H3546 0.931 . S
C3525 C3522 1.481 . S
C3525 C3526 1.387 . S
C3525 C3530 1.390 . S
C3526 C3525 1.387 . S
C3526 C3527 1.401 . S
C3526 H3547 0.930 . S
C3527 C3526 1.401 . S
C3527 C3528 1.376 . S
C3527 C3536 1.511 . S
C3528 C3527 1.376 . S
C3528 C3529 1.392 . S
C3528 H3549 0.931 . S
C3529 C3528 1.392 . S
C3529 C3530 1.361 . S
C3529 C3531 1.500 . S
C3530 C3525 1.390 . S
C3530 C3529 1.361 . S
C3530 H3548 0.931 . S
C3531 C3529 1.500 . S
C3531 C3532 1.371 . S
C3531 C3533 1.365 . S
C3532 C3531 1.371 . S
C3532 C3542 1.386 . S
C3532 H3550 0.931 . S
C3533 C3531 1.365 . S
C3533 C3534 1.409 . S
C3533 H3551 0.929 . S
C3534 C3533 1.409 . S
C3534 C3535 1.380 . S
C3534 H3552 0.930 . S
C3535 C3534 1.380 . S
C3535 C3542 1.357 . S
C3536 C3527 1.511 . S
C3536 C3537 1.341 . S
C3536 C3538 1.371 . S
C3537 C3536 1.341 . S
C3537 C3541 1.394 . S
C3537 H3553 0.930 . S
C3538 C3536 1.371 . S
C3538 C3539 1.392 . S
C3538 H3554 0.931 . S
C3539 C3538 1.392 . S
C3539 C3540 1.331 . S
C3539 H3557 0.932 . S
C3540 C3539 1.331 . S
C3540 C3541 1.336 . S
C3541 C3537 1.394 . S
C3541 C3540 1.336 . S
C3541 H3556 0.929 . S
C3542 C3532 1.386 . S
C3542 C3535 1.357 . S
C3542 H3555 0.928 . S
H3543 C3519 0.931 . S
H3544 C3521 0.930 . S
H3545 C3523 0.929 . S
H3546 C3524 0.931 . S
H3547 C3526 0.930 . S
H3548 C3530 0.931 . S
H3549 C3528 0.931 . S
H3550 C3532 0.931 . S
H3551 C3533 0.929 . S
H3552 C3534 0.930 . S
H3553 C3537 0.930 . S
H3554 C3538 0.931 . S
H3555 C3542 0.928 . S
H3556 C3541 0.929 . S
H3557 C3539 0.932 . S
C3558 C3559 1.386 . S
C3558 C3560 1.397 . S
C3558 H3582 0.931 . S
C3559 C3558 1.386 . S
C3559 C3563 1.397 . S
C3560 C3558 1.397 . S
C3560 C3561 1.384 . S
C3560 H3583 0.930 . S
C3561 C3560 1.384 . S
C3561 C3562 1.377 . S
C3561 C3564 1.481 . S
C3562 C3561 1.377 . S
C3562 C3563 1.389 . S
C3562 H3584 0.929 . S
C3563 C3559 1.397 . S
C3563 C3562 1.389 . S
C3563 H3585 0.931 . S
C3564 C3561 1.481 . S
C3564 C3565 1.387 . S
C3564 C3569 1.390 . S
C3565 C3564 1.387 . S
C3565 C3566 1.401 . S
C3565 H3586 0.930 . S
C3566 C3565 1.401 . S
C3566 C3567 1.376 . S
C3566 C3575 1.511 . S
C3567 C3566 1.376 . S
C3567 C3568 1.392 . S
C3567 H3588 0.931 . S
C3568 C3567 1.392 . S
C3568 C3569 1.361 . S
C3568 C3570 1.500 . S
C3569 C3564 1.390 . S
C3569 C3568 1.361 . S
C3569 H3587 0.931 . S
C3570 C3568 1.500 . S
C3570 C3571 1.371 . S
C3570 C3572 1.365 . S
C3571 C3570 1.371 . S
C3571 C3581 1.386 . S
C3571 H3589 0.931 . S
C3572 C3570 1.365 . S
C3572 C3573 1.409 . S
C3572 H3590 0.929 . S
C3573 C3572 1.409 . S
C3573 C3574 1.380 . S
C3573 H3591 0.930 . S
C3574 C3573 1.380 . S
C3574 C3581 1.357 . S
C3575 C3566 1.511 . S
C3575 C3576 1.341 . S
C3575 C3577 1.371 . S
C3576 C3575 1.341 . S
C3576 C3580 1.394 . S
C3576 H3592 0.930 . S
C3577 C3575 1.371 . S
C3577 C3578 1.392 . S
C3577 H3593 0.931 . S
C3578 C3577 1.392 . S
C3578 C3579 1.331 . S
C3578 H3596 0.932 . S
C3579 C3578 1.331 . S
C3579 C3580 1.336 . S
C3580 C3576 1.394 . S
C3580 C3579 1.336 . S
C3580 H3595 0.929 . S
C3581 C3571 1.386 . S
C3581 C3574 1.357 . S
C3581 H3594 0.928 . S
H3582 C3558 0.931 . S
H3583 C3560 0.930 . S
H3584 C3562 0.929 . S
H3585 C3563 0.931 . S
H3586 C3565 0.930 . S
H3587 C3569 0.931 . S
H3588 C3567 0.931 . S
H3589 C3571 0.931 . S
H3590 C3572 0.929 . S
H3591 C3573 0.930 . S
H3592 C3576 0.930 . S
H3593 C3577 0.931 . S
H3594 C3581 0.928 . S
H3595 C3580 0.929 . S
H3596 C3578 0.932 . S
C3597 C3598 1.386 . S
C3597 C3599 1.397 . S
C3597 H3621 0.931 . S
C3598 C3597 1.386 . S
C3598 C3602 1.397 . S
C3599 C3597 1.397 . S
C3599 C3600 1.384 . S
C3599 H3622 0.930 . S
C3600 C3599 1.384 . S
C3600 C3601 1.377 . S
C3600 C3603 1.481 . S
C3601 C3600 1.377 . S
C3601 C3602 1.389 . S
C3601 H3623 0.929 . S
C3602 C3598 1.397 . S
C3602 C3601 1.389 . S
C3602 H3624 0.931 . S
C3603 C3600 1.481 . S
C3603 C3604 1.387 . S
C3603 C3608 1.390 . S
C3604 C3603 1.387 . S
C3604 C3605 1.401 . S
C3604 H3625 0.930 . S
C3605 C3604 1.401 . S
C3605 C3606 1.376 . S
C3605 C3614 1.511 . S
C3606 C3605 1.376 . S
C3606 C3607 1.392 . S
C3606 H3627 0.931 . S
C3607 C3606 1.392 . S
C3607 C3608 1.361 . S
C3607 C3609 1.500 . S
C3608 C3603 1.390 . S
C3608 C3607 1.361 . S
C3608 H3626 0.931 . S
C3609 C3607 1.500 . S
C3609 C3610 1.371 . S
C3609 C3611 1.365 . S
C3610 C3609 1.371 . S
C3610 C3620 1.386 . S
C3610 H3628 0.931 . S
C3611 C3609 1.365 . S
C3611 C3612 1.409 . S
C3611 H3629 0.929 . S
C3612 C3611 1.409 . S
C3612 C3613 1.380 . S
C3612 H3630 0.930 . S
C3613 C3612 1.380 . S
C3613 C3620 1.357 . S
C3614 C3605 1.511 . S
C3614 C3615 1.341 . S
C3614 C3616 1.371 . S
C3615 C3614 1.341 . S
C3615 C3619 1.394 . S
C3615 H3631 0.930 . S
C3616 C3614 1.371 . S
C3616 C3617 1.392 . S
C3616 H3632 0.931 . S
C3617 C3616 1.392 . S
C3617 C3618 1.331 . S
C3617 H3635 0.932 . S
C3618 C3617 1.331 . S
C3618 C3619 1.336 . S
C3619 C3615 1.394 . S
C3619 C3618 1.336 . S
C3619 H3634 0.929 . S
C3620 C3610 1.386 . S
C3620 C3613 1.357 . S
C3620 H3633 0.928 . S
H3621 C3597 0.931 . S
H3622 C3599 0.930 . S
H3623 C3601 0.929 . S
H3624 C3602 0.931 . S
H3625 C3604 0.930 . S
H3626 C3608 0.931 . S
H3627 C3606 0.931 . S
H3628 C3610 0.931 . S
H3629 C3611 0.929 . S
H3630 C3612 0.930 . S
H3631 C3615 0.930 . S
H3632 C3616 0.931 . S
H3633 C3620 0.928 . S
H3634 C3619 0.929 . S
H3635 C3617 0.932 . S
C3636 C3637 1.386 . S
C3636 C3638 1.397 . S
C3636 H3660 0.931 . S
C3637 C3636 1.386 . S
C3637 C3641 1.397 . S
C3638 C3636 1.397 . S
C3638 C3639 1.384 . S
C3638 H3661 0.930 . S
C3639 C3638 1.384 . S
C3639 C3640 1.377 . S
C3639 C3642 1.481 . S
C3640 C3639 1.377 . S
C3640 C3641 1.389 . S
C3640 H3662 0.929 . S
C3641 C3637 1.397 . S
C3641 C3640 1.389 . S
C3641 H3663 0.931 . S
C3642 C3639 1.481 . S
C3642 C3643 1.387 . S
C3642 C3647 1.390 . S
C3643 C3642 1.387 . S
C3643 C3644 1.401 . S
C3643 H3664 0.930 . S
C3644 C3643 1.401 . S
C3644 C3645 1.376 . S
C3644 C3653 1.511 . S
C3645 C3644 1.376 . S
C3645 C3646 1.392 . S
C3645 H3666 0.931 . S
C3646 C3645 1.392 . S
C3646 C3647 1.361 . S
C3646 C3648 1.500 . S
C3647 C3642 1.390 . S
C3647 C3646 1.361 . S
C3647 H3665 0.931 . S
C3648 C3646 1.500 . S
C3648 C3649 1.371 . S
C3648 C3650 1.365 . S
C3649 C3648 1.371 . S
C3649 C3659 1.386 . S
C3649 H3667 0.931 . S
C3650 C3648 1.365 . S
C3650 C3651 1.409 . S
C3650 H3668 0.929 . S
C3651 C3650 1.409 . S
C3651 C3652 1.380 . S
C3651 H3669 0.930 . S
C3652 C3651 1.380 . S
C3652 C3659 1.357 . S
C3653 C3644 1.511 . S
C3653 C3654 1.341 . S
C3653 C3655 1.371 . S
C3654 C3653 1.341 . S
C3654 C3658 1.394 . S
C3654 H3670 0.930 . S
C3655 C3653 1.371 . S
C3655 C3656 1.392 . S
C3655 H3671 0.931 . S
C3656 C3655 1.392 . S
C3656 C3657 1.331 . S
C3656 H3674 0.932 . S
C3657 C3656 1.331 . S
C3657 C3658 1.336 . S
C3658 C3654 1.394 . S
C3658 C3657 1.336 . S
C3658 H3673 0.929 . S
C3659 C3649 1.386 . S
C3659 C3652 1.357 . S
C3659 H3672 0.928 . S
H3660 C3636 0.931 . S
H3661 C3638 0.930 . S
H3662 C3640 0.929 . S
H3663 C3641 0.931 . S
H3664 C3643 0.930 . S
H3665 C3647 0.931 . S
H3666 C3645 0.931 . S
H3667 C3649 0.931 . S
H3668 C3650 0.929 . S
H3669 C3651 0.930 . S
H3670 C3654 0.930 . S
H3671 C3655 0.931 . S
H3672 C3659 0.928 . S
H3673 C3658 0.929 . S
H3674 C3656 0.932 . S
C3675 C3676 1.386 . S
C3675 C3677 1.397 . S
C3675 H3699 0.931 . S
C3676 C3675 1.386 . S
C3676 C3680 1.397 . S
C3677 C3675 1.397 . S
C3677 C3678 1.384 . S
C3677 H3700 0.930 . S
C3678 C3677 1.384 . S
C3678 C3679 1.377 . S
C3678 C3681 1.481 . S
C3679 C3678 1.377 . S
C3679 C3680 1.389 . S
C3679 H3701 0.929 . S
C3680 C3676 1.397 . S
C3680 C3679 1.389 . S
C3680 H3702 0.931 . S
C3681 C3678 1.481 . S
C3681 C3682 1.387 . S
C3681 C3686 1.390 . S
C3682 C3681 1.387 . S
C3682 C3683 1.401 . S
C3682 H3703 0.930 . S
C3683 C3682 1.401 . S
C3683 C3684 1.376 . S
C3683 C3692 1.511 . S
C3684 C3683 1.376 . S
C3684 C3685 1.392 . S
C3684 H3705 0.931 . S
C3685 C3684 1.392 . S
C3685 C3686 1.361 . S
C3685 C3687 1.500 . S
C3686 C3681 1.390 . S
C3686 C3685 1.361 . S
C3686 H3704 0.931 . S
C3687 C3685 1.500 . S
C3687 C3688 1.371 . S
C3687 C3689 1.365 . S
C3688 C3687 1.371 . S
C3688 C3698 1.386 . S
C3688 H3706 0.931 . S
C3689 C3687 1.365 . S
C3689 C3690 1.409 . S
C3689 H3707 0.929 . S
C3690 C3689 1.409 . S
C3690 C3691 1.380 . S
C3690 H3708 0.930 . S
C3691 C3690 1.380 . S
C3691 C3698 1.357 . S
C3692 C3683 1.511 . S
C3692 C3693 1.341 . S
C3692 C3694 1.371 . S
C3693 C3692 1.341 . S
C3693 C3697 1.394 . S
C3693 H3709 0.930 . S
C3694 C3692 1.371 . S
C3694 C3695 1.392 . S
C3694 H3710 0.931 . S
C3695 C3694 1.392 . S
C3695 C3696 1.331 . S
C3695 H3713 0.932 . S
C3696 C3695 1.331 . S
C3696 C3697 1.336 . S
C3697 C3693 1.394 . S
C3697 C3696 1.336 . S
C3697 H3712 0.929 . S
C3698 C3688 1.386 . S
C3698 C3691 1.357 . S
C3698 H3711 0.928 . S
H3699 C3675 0.931 . S
H3700 C3677 0.930 . S
H3701 C3679 0.929 . S
H3702 C3680 0.931 . S
H3703 C3682 0.930 . S
H3704 C3686 0.931 . S
H3705 C3684 0.931 . S
H3706 C3688 0.931 . S
H3707 C3689 0.929 . S
H3708 C3690 0.930 . S
H3709 C3693 0.930 . S
H3710 C3694 0.931 . S
H3711 C3698 0.928 . S
H3712 C3697 0.929 . S
H3713 C3695 0.932 . S
C3714 C3715 1.386 . S
C3714 C3716 1.397 . S
C3714 H3738 0.931 . S
C3715 C3714 1.386 . S
C3715 C3719 1.397 . S
C3716 C3714 1.397 . S
C3716 C3717 1.384 . S
C3716 H3739 0.930 . S
C3717 C3716 1.384 . S
C3717 C3718 1.377 . S
C3717 C3720 1.481 . S
C3718 C3717 1.377 . S
C3718 C3719 1.389 . S
C3718 H3740 0.929 . S
C3719 C3715 1.397 . S
C3719 C3718 1.389 . S
C3719 H3741 0.931 . S
C3720 C3717 1.481 . S
C3720 C3721 1.387 . S
C3720 C3725 1.390 . S
C3721 C3720 1.387 . S
C3721 C3722 1.401 . S
C3721 H3742 0.930 . S
C3722 C3721 1.401 . S
C3722 C3723 1.376 . S
C3722 C3731 1.511 . S
C3723 C3722 1.376 . S
C3723 C3724 1.392 . S
C3723 H3744 0.931 . S
C3724 C3723 1.392 . S
C3724 C3725 1.361 . S
C3724 C3726 1.500 . S
C3725 C3720 1.390 . S
C3725 C3724 1.361 . S
C3725 H3743 0.931 . S
C3726 C3724 1.500 . S
C3726 C3727 1.371 . S
C3726 C3728 1.365 . S
C3727 C3726 1.371 . S
C3727 C3737 1.386 . S
C3727 H3745 0.931 . S
C3728 C3726 1.365 . S
C3728 C3729 1.409 . S
C3728 H3746 0.929 . S
C3729 C3728 1.409 . S
C3729 C3730 1.380 . S
C3729 H3747 0.930 . S
C3730 C3729 1.380 . S
C3730 C3737 1.357 . S
C3731 C3722 1.511 . S
C3731 C3732 1.341 . S
C3731 C3733 1.371 . S
C3732 C3731 1.341 . S
C3732 C3736 1.394 . S
C3732 H3748 0.930 . S
C3733 C3731 1.371 . S
C3733 C3734 1.392 . S
C3733 H3749 0.931 . S
C3734 C3733 1.392 . S
C3734 C3735 1.331 . S
C3734 H3752 0.932 . S
C3735 C3734 1.331 . S
C3735 C3736 1.336 . S
C3736 C3732 1.394 . S
C3736 C3735 1.336 . S
C3736 H3751 0.929 . S
C3737 C3727 1.386 . S
C3737 C3730 1.357 . S
C3737 H3750 0.928 . S
H3738 C3714 0.931 . S
H3739 C3716 0.930 . S
H3740 C3718 0.929 . S
H3741 C3719 0.931 . S
H3742 C3721 0.930 . S
H3743 C3725 0.931 . S
H3744 C3723 0.931 . S
H3745 C3727 0.931 . S
H3746 C3728 0.929 . S
H3747 C3729 0.930 . S
H3748 C3732 0.930 . S
H3749 C3733 0.931 . S
H3750 C3737 0.928 . S
H3751 C3736 0.929 . S
H3752 C3734 0.932 . S
C3753 C3754 1.386 . S
C3753 C3755 1.397 . S
C3753 H3777 0.931 . S
C3754 C3753 1.386 . S
C3754 C3758 1.397 . S
C3755 C3753 1.397 . S
C3755 C3756 1.384 . S
C3755 H3778 0.930 . S
C3756 C3755 1.384 . S
C3756 C3757 1.377 . S
C3756 C3759 1.481 . S
C3757 C3756 1.377 . S
C3757 C3758 1.389 . S
C3757 H3779 0.929 . S
C3758 C3754 1.397 . S
C3758 C3757 1.389 . S
C3758 H3780 0.931 . S
C3759 C3756 1.481 . S
C3759 C3760 1.387 . S
C3759 C3764 1.390 . S
C3760 C3759 1.387 . S
C3760 C3761 1.401 . S
C3760 H3781 0.930 . S
C3761 C3760 1.401 . S
C3761 C3762 1.376 . S
C3761 C3770 1.511 . S
C3762 C3761 1.376 . S
C3762 C3763 1.392 . S
C3762 H3783 0.931 . S
C3763 C3762 1.392 . S
C3763 C3764 1.361 . S
C3763 C3765 1.500 . S
C3764 C3759 1.390 . S
C3764 C3763 1.361 . S
C3764 H3782 0.931 . S
C3765 C3763 1.500 . S
C3765 C3766 1.371 . S
C3765 C3767 1.365 . S
C3766 C3765 1.371 . S
C3766 C3776 1.386 . S
C3766 H3784 0.931 . S
C3767 C3765 1.365 . S
C3767 C3768 1.409 . S
C3767 H3785 0.929 . S
C3768 C3767 1.409 . S
C3768 C3769 1.380 . S
C3768 H3786 0.930 . S
C3769 C3768 1.380 . S
C3769 C3776 1.357 . S
C3770 C3761 1.511 . S
C3770 C3771 1.341 . S
C3770 C3772 1.371 . S
C3771 C3770 1.341 . S
C3771 C3775 1.394 . S
C3771 H3787 0.930 . S
C3772 C3770 1.371 . S
C3772 C3773 1.392 . S
C3772 H3788 0.931 . S
C3773 C3772 1.392 . S
C3773 C3774 1.331 . S
C3773 H3791 0.932 . S
C3774 C3773 1.331 . S
C3774 C3775 1.336 . S
C3775 C3771 1.394 . S
C3775 C3774 1.336 . S
C3775 H3790 0.929 . S
C3776 C3766 1.386 . S
C3776 C3769 1.357 . S
C3776 H3789 0.928 . S
H3777 C3753 0.931 . S
H3778 C3755 0.930 . S
H3779 C3757 0.929 . S
H3780 C3758 0.931 . S
H3781 C3760 0.930 . S
H3782 C3764 0.931 . S
H3783 C3762 0.931 . S
H3784 C3766 0.931 . S
H3785 C3767 0.929 . S
H3786 C3768 0.930 . S
H3787 C3771 0.930 . S
H3788 C3772 0.931 . S
H3789 C3776 0.928 . S
H3790 C3775 0.929 . S
H3791 C3773 0.932 . S
H3792 C3800 0.929 . S
H3793 C3802 0.930 . S
H3794 C3804 0.930 . S
H3795 C3807 0.929 . S
H3796 C3810 0.930 . S
H3797 C3812 0.960 . S
H3798 C3812 0.960 . S
H3799 C3812 0.960 . S
C3800 H3792 0.929 . S
C3800 C3801 1.377 . S
C3800 C3802 1.384 . S
C3801 C3800 1.377 . S
C3801 C3807 1.390 . S
C3802 H3793 0.930 . S
C3802 C3800 1.384 . S
C3802 C3803 1.372 . S
C3803 C3802 1.372 . S
C3803 C3804 1.400 . S
C3803 C3808 1.490 . S
C3804 H3794 0.930 . S
C3804 C3803 1.400 . S
C3804 C3807 1.386 . S
H3805 C3821 0.930 . S
H3806 C3822 0.931 . S
C3807 H3795 0.929 . S
C3807 C3801 1.390 . S
C3807 C3804 1.386 . S
C3808 C3803 1.490 . S
C3808 C3810 1.395 . S
C3808 C3811 1.403 . S
H3809 C3815 0.930 . S
C3810 H3796 0.930 . S
C3810 C3808 1.395 . S
C3810 C3813 1.403 . S
C3811 C3808 1.403 . S
C3811 C3812 1.524 . S
C3811 C3815 1.400 . S
C3812 H3797 0.960 . S
C3812 H3798 0.960 . S
C3812 H3799 0.960 . S
C3812 C3811 1.524 . S
C3813 C3810 1.403 . S
C3813 C3814 1.392 . S
C3813 C3817 1.495 . S
C3814 C3813 1.392 . S
C3814 C3815 1.385 . S
C3814 C3816 1.478 . S
C3815 H3809 0.930 . S
C3815 C3811 1.400 . S
C3815 C3814 1.385 . S
C3816 C3814 1.478 . S
C3816 C3818 1.381 . S
C3816 C3822 1.383 . S
C3817 C3813 1.495 . S
C3817 H3823 0.959 . S
C3817 H3824 0.961 . S
C3817 H3825 0.960 . S
C3818 C3816 1.381 . S
C3818 C3819 1.394 . S
C3818 H3826 0.930 . S
C3819 C3818 1.394 . S
C3819 C3820 1.383 . S
C3819 H3827 0.929 . S
C3820 C3819 1.383 . S
C3820 C3821 1.377 . S
C3821 H3805 0.930 . S
C3821 C3820 1.377 . S
C3821 C3822 1.379 . S
C3822 H3806 0.931 . S
C3822 C3816 1.383 . S
C3822 C3821 1.379 . S
H3823 C3817 0.959 . S
H3824 C3817 0.961 . S
H3825 C3817 0.960 . S
H3826 C3818 0.930 . S
H3827 C3819 0.929 . S
H3828 C3836 0.929 . S
H3829 C3838 0.930 . S
H3830 C3840 0.930 . S
H3831 C3843 0.929 . S
H3832 C3846 0.930 . S
H3833 C3848 0.960 . S
H3834 C3848 0.960 . S
H3835 C3848 0.960 . S
C3836 H3828 0.929 . S
C3836 C3837 1.377 . S
C3836 C3838 1.384 . S
C3837 C3836 1.377 . S
C3837 C3843 1.390 . S
C3838 H3829 0.930 . S
C3838 C3836 1.384 . S
C3838 C3839 1.372 . S
C3839 C3838 1.372 . S
C3839 C3840 1.400 . S
C3839 C3844 1.490 . S
C3840 H3830 0.930 . S
C3840 C3839 1.400 . S
C3840 C3843 1.386 . S
H3841 C3857 0.930 . S
H3842 C3858 0.931 . S
C3843 H3831 0.929 . S
C3843 C3837 1.390 . S
C3843 C3840 1.386 . S
C3844 C3839 1.490 . S
C3844 C3846 1.395 . S
C3844 C3847 1.403 . S
H3845 C3851 0.930 . S
C3846 H3832 0.930 . S
C3846 C3844 1.395 . S
C3846 C3849 1.403 . S
C3847 C3844 1.403 . S
C3847 C3848 1.524 . S
C3847 C3851 1.400 . S
C3848 H3833 0.960 . S
C3848 H3834 0.960 . S
C3848 H3835 0.960 . S
C3848 C3847 1.524 . S
C3849 C3846 1.403 . S
C3849 C3850 1.392 . S
C3849 C3853 1.495 . S
C3850 C3849 1.392 . S
C3850 C3851 1.385 . S
C3850 C3852 1.478 . S
C3851 H3845 0.930 . S
C3851 C3847 1.400 . S
C3851 C3850 1.385 . S
C3852 C3850 1.478 . S
C3852 C3854 1.381 . S
C3852 C3858 1.383 . S
C3853 C3849 1.495 . S
C3853 H3859 0.959 . S
C3853 H3860 0.961 . S
C3853 H3861 0.960 . S
C3854 C3852 1.381 . S
C3854 C3855 1.394 . S
C3854 H3862 0.930 . S
C3855 C3854 1.394 . S
C3855 C3856 1.383 . S
C3855 H3863 0.929 . S
C3856 C3855 1.383 . S
C3856 C3857 1.377 . S
C3857 H3841 0.930 . S
C3857 C3856 1.377 . S
C3857 C3858 1.379 . S
C3858 H3842 0.931 . S
C3858 C3852 1.383 . S
C3858 C3857 1.379 . S
H3859 C3853 0.959 . S
H3860 C3853 0.961 . S
H3861 C3853 0.960 . S
H3862 C3854 0.930 . S
H3863 C3855 0.929 . S
H3864 C3872 0.929 . S
H3865 C3874 0.930 . S
H3866 C3876 0.930 . S
H3867 C3879 0.929 . S
H3868 C3882 0.930 . S
H3869 C3884 0.960 . S
H3870 C3884 0.960 . S
H3871 C3884 0.960 . S
C3872 H3864 0.929 . S
C3872 C3873 1.377 . S
C3872 C3874 1.384 . S
C3873 C3872 1.377 . S
C3873 C3879 1.390 . S
C3874 H3865 0.930 . S
C3874 C3872 1.384 . S
C3874 C3875 1.372 . S
C3875 C3874 1.372 . S
C3875 C3876 1.400 . S
C3875 C3880 1.490 . S
C3876 H3866 0.930 . S
C3876 C3875 1.400 . S
C3876 C3879 1.386 . S
H3877 C3893 0.930 . S
H3878 C3894 0.931 . S
C3879 H3867 0.929 . S
C3879 C3873 1.390 . S
C3879 C3876 1.386 . S
C3880 C3875 1.490 . S
C3880 C3882 1.395 . S
C3880 C3883 1.403 . S
H3881 C3887 0.930 . S
C3882 H3868 0.930 . S
C3882 C3880 1.395 . S
C3882 C3885 1.403 . S
C3883 C3880 1.403 . S
C3883 C3884 1.524 . S
C3883 C3887 1.400 . S
C3884 H3869 0.960 . S
C3884 H3870 0.960 . S
C3884 H3871 0.960 . S
C3884 C3883 1.524 . S
C3885 C3882 1.403 . S
C3885 C3886 1.392 . S
C3885 C3889 1.495 . S
C3886 C3885 1.392 . S
C3886 C3887 1.385 . S
C3886 C3888 1.478 . S
C3887 H3881 0.930 . S
C3887 C3883 1.400 . S
C3887 C3886 1.385 . S
C3888 C3886 1.478 . S
C3888 C3890 1.381 . S
C3888 C3894 1.383 . S
C3889 C3885 1.495 . S
C3889 H3895 0.959 . S
C3889 H3896 0.961 . S
C3889 H3897 0.960 . S
C3890 C3888 1.381 . S
C3890 C3891 1.394 . S
C3890 H3898 0.930 . S
C3891 C3890 1.394 . S
C3891 C3892 1.383 . S
C3891 H3899 0.929 . S
C3892 C3891 1.383 . S
C3892 C3893 1.377 . S
C3893 H3877 0.930 . S
C3893 C3892 1.377 . S
C3893 C3894 1.379 . S
C3894 H3878 0.931 . S
C3894 C3888 1.383 . S
C3894 C3893 1.379 . S
H3895 C3889 0.959 . S
H3896 C3889 0.961 . S
H3897 C3889 0.960 . S
H3898 C3890 0.930 . S
H3899 C3891 0.929 . S
H3900 C3908 0.929 . S
H3901 C3910 0.930 . S
H3902 C3912 0.930 . S
H3903 C3915 0.929 . S
H3904 C3918 0.930 . S
H3905 C3920 0.960 . S
H3906 C3920 0.960 . S
H3907 C3920 0.960 . S
C3908 H3900 0.929 . S
C3908 C3909 1.377 . S
C3908 C3910 1.384 . S
C3909 C3908 1.377 . S
C3909 C3915 1.390 . S
C3910 H3901 0.930 . S
C3910 C3908 1.384 . S
C3910 C3911 1.372 . S
C3911 C3910 1.372 . S
C3911 C3912 1.400 . S
C3911 C3916 1.490 . S
C3912 H3902 0.930 . S
C3912 C3911 1.400 . S
C3912 C3915 1.386 . S
H3913 C3929 0.930 . S
H3914 C3930 0.931 . S
C3915 H3903 0.929 . S
C3915 C3909 1.390 . S
C3915 C3912 1.386 . S
C3916 C3911 1.490 . S
C3916 C3918 1.395 . S
C3916 C3919 1.403 . S
H3917 C3923 0.930 . S
C3918 H3904 0.930 . S
C3918 C3916 1.395 . S
C3918 C3921 1.403 . S
C3919 C3916 1.403 . S
C3919 C3920 1.524 . S
C3919 C3923 1.400 . S
C3920 H3905 0.960 . S
C3920 H3906 0.960 . S
C3920 H3907 0.960 . S
C3920 C3919 1.524 . S
C3921 C3918 1.403 . S
C3921 C3922 1.392 . S
C3921 C3925 1.495 . S
C3922 C3921 1.392 . S
C3922 C3923 1.385 . S
C3922 C3924 1.478 . S
C3923 H3917 0.930 . S
C3923 C3919 1.400 . S
C3923 C3922 1.385 . S
C3924 C3922 1.478 . S
C3924 C3926 1.381 . S
C3924 C3930 1.383 . S
C3925 C3921 1.495 . S
C3925 H3931 0.959 . S
C3925 H3932 0.961 . S
C3925 H3933 0.960 . S
C3926 C3924 1.381 . S
C3926 C3927 1.394 . S
C3926 H3934 0.930 . S
C3927 C3926 1.394 . S
C3927 C3928 1.383 . S
C3927 H3935 0.929 . S
C3928 C3927 1.383 . S
C3928 C3929 1.377 . S
C3929 H3913 0.930 . S
C3929 C3928 1.377 . S
C3929 C3930 1.379 . S
C3930 H3914 0.931 . S
C3930 C3924 1.383 . S
C3930 C3929 1.379 . S
H3931 C3925 0.959 . S
H3932 C3925 0.961 . S
H3933 C3925 0.960 . S
H3934 C3926 0.930 . S
H3935 C3927 0.929 . S
H3936 C3944 0.929 . S
H3937 C3946 0.930 . S
H3938 C3948 0.930 . S
H3939 C3951 0.929 . S
H3940 C3954 0.930 . S
H3941 C3956 0.960 . S
H3942 C3956 0.960 . S
H3943 C3956 0.960 . S
C3944 H3936 0.929 . S
C3944 C3945 1.377 . S
C3944 C3946 1.384 . S
C3945 C3944 1.377 . S
C3945 C3951 1.390 . S
C3946 H3937 0.930 . S
C3946 C3944 1.384 . S
C3946 C3947 1.372 . S
C3947 C3946 1.372 . S
C3947 C3948 1.400 . S
C3947 C3952 1.490 . S
C3948 H3938 0.930 . S
C3948 C3947 1.400 . S
C3948 C3951 1.386 . S
H3949 C3965 0.930 . S
H3950 C3966 0.931 . S
C3951 H3939 0.929 . S
C3951 C3945 1.390 . S
C3951 C3948 1.386 . S
C3952 C3947 1.490 . S
C3952 C3954 1.395 . S
C3952 C3955 1.403 . S
H3953 C3959 0.930 . S
C3954 H3940 0.930 . S
C3954 C3952 1.395 . S
C3954 C3957 1.403 . S
C3955 C3952 1.403 . S
C3955 C3956 1.524 . S
C3955 C3959 1.400 . S
C3956 H3941 0.960 . S
C3956 H3942 0.960 . S
C3956 H3943 0.960 . S
C3956 C3955 1.524 . S
C3957 C3954 1.403 . S
C3957 C3958 1.392 . S
C3957 C3961 1.495 . S
C3958 C3957 1.392 . S
C3958 C3959 1.385 . S
C3958 C3960 1.478 . S
C3959 H3953 0.930 . S
C3959 C3955 1.400 . S
C3959 C3958 1.385 . S
C3960 C3958 1.478 . S
C3960 C3962 1.381 . S
C3960 C3966 1.383 . S
C3961 C3957 1.495 . S
C3961 H3967 0.959 . S
C3961 H3968 0.961 . S
C3961 H3969 0.960 . S
C3962 C3960 1.381 . S
C3962 C3963 1.394 . S
C3962 H3970 0.930 . S
C3963 C3962 1.394 . S
C3963 C3964 1.383 . S
C3963 H3971 0.929 . S
C3964 C3963 1.383 . S
C3964 C3965 1.377 . S
C3965 H3949 0.930 . S
C3965 C3964 1.377 . S
C3965 C3966 1.379 . S
C3966 H3950 0.931 . S
C3966 C3960 1.383 . S
C3966 C3965 1.379 . S
H3967 C3961 0.959 . S
H3968 C3961 0.961 . S
H3969 C3961 0.960 . S
H3970 C3962 0.930 . S
H3971 C3963 0.929 . S
H3972 C3980 0.929 . S
H3973 C3982 0.930 . S
H3974 C3984 0.930 . S
H3975 C3987 0.929 . S
H3976 C3990 0.930 . S
H3977 C3992 0.960 . S
H3978 C3992 0.960 . S
H3979 C3992 0.960 . S
C3980 H3972 0.929 . S
C3980 C3981 1.377 . S
C3980 C3982 1.384 . S
C3981 C3980 1.377 . S
C3981 C3987 1.390 . S
C3982 H3973 0.930 . S
C3982 C3980 1.384 . S
C3982 C3983 1.372 . S
C3983 C3982 1.372 . S
C3983 C3984 1.400 . S
C3983 C3988 1.490 . S
C3984 H3974 0.930 . S
C3984 C3983 1.400 . S
C3984 C3987 1.386 . S
H3985 C4001 0.930 . S
H3986 C4002 0.931 . S
C3987 H3975 0.929 . S
C3987 C3981 1.390 . S
C3987 C3984 1.386 . S
C3988 C3983 1.490 . S
C3988 C3990 1.395 . S
C3988 C3991 1.403 . S
H3989 C3995 0.930 . S
C3990 H3976 0.930 . S
C3990 C3988 1.395 . S
C3990 C3993 1.403 . S
C3991 C3988 1.403 . S
C3991 C3992 1.524 . S
C3991 C3995 1.400 . S
C3992 H3977 0.960 . S
C3992 H3978 0.960 . S
C3992 H3979 0.960 . S
C3992 C3991 1.524 . S
C3993 C3990 1.403 . S
C3993 C3994 1.392 . S
C3993 C3997 1.495 . S
C3994 C3993 1.392 . S
C3994 C3995 1.385 . S
C3994 C3996 1.478 . S
C3995 H3989 0.930 . S
C3995 C3991 1.400 . S
C3995 C3994 1.385 . S
C3996 C3994 1.478 . S
C3996 C3998 1.381 . S
C3996 C4002 1.383 . S
C3997 C3993 1.495 . S
C3997 H4003 0.959 . S
C3997 H4004 0.961 . S
C3997 H4005 0.960 . S
C3998 C3996 1.381 . S
C3998 C3999 1.394 . S
C3998 H4006 0.930 . S
C3999 C3998 1.394 . S
C3999 C4000 1.383 . S
C3999 H4007 0.929 . S
C4000 C3999 1.383 . S
C4000 C4001 1.377 . S
C4001 H3985 0.930 . S
C4001 C4000 1.377 . S
C4001 C4002 1.379 . S
C4002 H3986 0.931 . S
C4002 C3996 1.383 . S
C4002 C4001 1.379 . S
H4003 C3997 0.959 . S
H4004 C3997 0.961 . S
H4005 C3997 0.960 . S
H4006 C3998 0.930 . S
H4007 C3999 0.929 . S
H4008 C4016 0.929 . S
H4009 C4018 0.930 . S
H4010 C4020 0.930 . S
H4011 C4023 0.929 . S
H4012 C4026 0.930 . S
H4013 C4028 0.960 . S
H4014 C4028 0.960 . S
H4015 C4028 0.960 . S
C4016 H4008 0.929 . S
C4016 C4017 1.377 . S
C4016 C4018 1.384 . S
C4017 C4016 1.377 . S
C4017 C4023 1.390 . S
C4018 H4009 0.930 . S
C4018 C4016 1.384 . S
C4018 C4019 1.372 . S
C4019 C4018 1.372 . S
C4019 C4020 1.400 . S
C4019 C4024 1.490 . S
C4020 H4010 0.930 . S
C4020 C4019 1.400 . S
C4020 C4023 1.386 . S
H4021 C4037 0.930 . S
H4022 C4038 0.931 . S
C4023 H4011 0.929 . S
C4023 C4017 1.390 . S
C4023 C4020 1.386 . S
C4024 C4019 1.490 . S
C4024 C4026 1.395 . S
C4024 C4027 1.403 . S
H4025 C4031 0.930 . S
C4026 H4012 0.930 . S
C4026 C4024 1.395 . S
C4026 C4029 1.403 . S
C4027 C4024 1.403 . S
C4027 C4028 1.524 . S
C4027 C4031 1.400 . S
C4028 H4013 0.960 . S
C4028 H4014 0.960 . S
C4028 H4015 0.960 . S
C4028 C4027 1.524 . S
C4029 C4026 1.403 . S
C4029 C4030 1.392 . S
C4029 C4033 1.495 . S
C4030 C4029 1.392 . S
C4030 C4031 1.385 . S
C4030 C4032 1.478 . S
C4031 H4025 0.930 . S
C4031 C4027 1.400 . S
C4031 C4030 1.385 . S
C4032 C4030 1.478 . S
C4032 C4034 1.381 . S
C4032 C4038 1.383 . S
C4033 C4029 1.495 . S
C4033 H4039 0.959 . S
C4033 H4040 0.961 . S
C4033 H4041 0.960 . S
C4034 C4032 1.381 . S
C4034 C4035 1.394 . S
C4034 H4042 0.930 . S
C4035 C4034 1.394 . S
C4035 C4036 1.383 . S
C4035 H4043 0.929 . S
C4036 C4035 1.383 . S
C4036 C4037 1.377 . S
C4037 H4021 0.930 . S
C4037 C4036 1.377 . S
C4037 C4038 1.379 . S
C4038 H4022 0.931 . S
C4038 C4032 1.383 . S
C4038 C4037 1.379 . S
H4039 C4033 0.959 . S
H4040 C4033 0.961 . S
H4041 C4033 0.960 . S
H4042 C4034 0.930 . S
H4043 C4035 0.929 . S
H4044 C4052 0.929 . S
H4045 C4054 0.930 . S
H4046 C4056 0.930 . S
H4047 C4059 0.929 . S
H4048 C4062 0.930 . S
H4049 C4064 0.960 . S
H4050 C4064 0.960 . S
H4051 C4064 0.960 . S
C4052 H4044 0.929 . S
C4052 C4053 1.377 . S
C4052 C4054 1.384 . S
C4053 C4052 1.377 . S
C4053 C4059 1.390 . S
C4054 H4045 0.930 . S
C4054 C4052 1.384 . S
C4054 C4055 1.372 . S
C4055 C4054 1.372 . S
C4055 C4056 1.400 . S
C4055 C4060 1.490 . S
C4056 H4046 0.930 . S
C4056 C4055 1.400 . S
C4056 C4059 1.386 . S
H4057 C4073 0.930 . S
H4058 C4074 0.931 . S
C4059 H4047 0.929 . S
C4059 C4053 1.390 . S
C4059 C4056 1.386 . S
C4060 C4055 1.490 . S
C4060 C4062 1.395 . S
C4060 C4063 1.403 . S
H4061 C4067 0.930 . S
C4062 H4048 0.930 . S
C4062 C4060 1.395 . S
C4062 C4065 1.403 . S
C4063 C4060 1.403 . S
C4063 C4064 1.524 . S
C4063 C4067 1.400 . S
C4064 H4049 0.960 . S
C4064 H4050 0.960 . S
C4064 H4051 0.960 . S
C4064 C4063 1.524 . S
C4065 C4062 1.403 . S
C4065 C4066 1.392 . S
C4065 C4069 1.495 . S
C4066 C4065 1.392 . S
C4066 C4067 1.385 . S
C4066 C4068 1.478 . S
C4067 H4061 0.930 . S
C4067 C4063 1.400 . S
C4067 C4066 1.385 . S
C4068 C4066 1.478 . S
C4068 C4070 1.381 . S
C4068 C4074 1.383 . S
C4069 C4065 1.495 . S
C4069 H4075 0.959 . S
C4069 H4076 0.961 . S
C4069 H4077 0.960 . S
C4070 C4068 1.381 . S
C4070 C4071 1.394 . S
C4070 H4078 0.930 . S
C4071 C4070 1.394 . S
C4071 C4072 1.383 . S
C4071 H4079 0.929 . S
C4072 C4071 1.383 . S
C4072 C4073 1.377 . S
C4073 H4057 0.930 . S
C4073 C4072 1.377 . S
C4073 C4074 1.379 . S
C4074 H4058 0.931 . S
C4074 C4068 1.383 . S
C4074 C4073 1.379 . S
H4075 C4069 0.959 . S
H4076 C4069 0.961 . S
H4077 C4069 0.960 . S
H4078 C4070 0.930 . S
H4079 C4071 0.929 . S
H4080 C4088 0.929 . S
H4081 C4090 0.930 . S
H4082 C4092 0.930 . S
H4083 C4095 0.929 . S
H4084 C4098 0.930 . S
H4085 C4100 0.960 . S
H4086 C4100 0.960 . S
H4087 C4100 0.960 . S
C4088 H4080 0.929 . S
C4088 C4089 1.377 . S
C4088 C4090 1.384 . S
C4089 C4088 1.377 . S
C4089 C4095 1.390 . S
C4090 H4081 0.930 . S
C4090 C4088 1.384 . S
C4090 C4091 1.372 . S
C4091 C4090 1.372 . S
C4091 C4092 1.400 . S
C4091 C4096 1.490 . S
C4092 H4082 0.930 . S
C4092 C4091 1.400 . S
C4092 C4095 1.386 . S
H4093 C4109 0.930 . S
H4094 C4110 0.931 . S
C4095 H4083 0.929 . S
C4095 C4089 1.390 . S
C4095 C4092 1.386 . S
C4096 C4091 1.490 . S
C4096 C4098 1.395 . S
C4096 C4099 1.403 . S
H4097 C4103 0.930 . S
C4098 H4084 0.930 . S
C4098 C4096 1.395 . S
C4098 C4101 1.403 . S
C4099 C4096 1.403 . S
C4099 C4100 1.524 . S
C4099 C4103 1.400 . S
C4100 H4085 0.960 . S
C4100 H4086 0.960 . S
C4100 H4087 0.960 . S
C4100 C4099 1.524 . S
C4101 C4098 1.403 . S
C4101 C4102 1.392 . S
C4101 C4105 1.495 . S
C4102 C4101 1.392 . S
C4102 C4103 1.385 . S
C4102 C4104 1.478 . S
C4103 H4097 0.930 . S
C4103 C4099 1.400 . S
C4103 C4102 1.385 . S
C4104 C4102 1.478 . S
C4104 C4106 1.381 . S
C4104 C4110 1.383 . S
C4105 C4101 1.495 . S
C4105 H4111 0.959 . S
C4105 H4112 0.961 . S
C4105 H4113 0.960 . S
C4106 C4104 1.381 . S
C4106 C4107 1.394 . S
C4106 H4114 0.930 . S
C4107 C4106 1.394 . S
C4107 C4108 1.383 . S
C4107 H4115 0.929 . S
C4108 C4107 1.383 . S
C4108 C4109 1.377 . S
C4109 H4093 0.930 . S
C4109 C4108 1.377 . S
C4109 C4110 1.379 . S
C4110 H4094 0.931 . S
C4110 C4104 1.383 . S
C4110 C4109 1.379 . S
H4111 C4105 0.959 . S
H4112 C4105 0.961 . S
H4113 C4105 0.960 . S
H4114 C4106 0.930 . S
H4115 C4107 0.929 . S
H4116 C4124 0.929 . S
H4117 C4126 0.930 . S
H4118 C4128 0.930 . S
H4119 C4131 0.929 . S
H4120 C4134 0.930 . S
H4121 C4136 0.960 . S
H4122 C4136 0.960 . S
H4123 C4136 0.960 . S
C4124 H4116 0.929 . S
C4124 C4125 1.377 . S
C4124 C4126 1.384 . S
C4125 C4124 1.377 . S
C4125 C4131 1.390 . S
C4126 H4117 0.930 . S
C4126 C4124 1.384 . S
C4126 C4127 1.372 . S
C4127 C4126 1.372 . S
C4127 C4128 1.400 . S
C4127 C4132 1.490 . S
C4128 H4118 0.930 . S
C4128 C4127 1.400 . S
C4128 C4131 1.386 . S
H4129 C4145 0.930 . S
H4130 C4146 0.931 . S
C4131 H4119 0.929 . S
C4131 C4125 1.390 . S
C4131 C4128 1.386 . S
C4132 C4127 1.490 . S
C4132 C4134 1.395 . S
C4132 C4135 1.403 . S
H4133 C4139 0.930 . S
C4134 H4120 0.930 . S
C4134 C4132 1.395 . S
C4134 C4137 1.403 . S
C4135 C4132 1.403 . S
C4135 C4136 1.524 . S
C4135 C4139 1.400 . S
C4136 H4121 0.960 . S
C4136 H4122 0.960 . S
C4136 H4123 0.960 . S
C4136 C4135 1.524 . S
C4137 C4134 1.403 . S
C4137 C4138 1.392 . S
C4137 C4141 1.495 . S
C4138 C4137 1.392 . S
C4138 C4139 1.385 . S
C4138 C4140 1.478 . S
C4139 H4133 0.930 . S
C4139 C4135 1.400 . S
C4139 C4138 1.385 . S
C4140 C4138 1.478 . S
C4140 C4142 1.381 . S
C4140 C4146 1.383 . S
C4141 C4137 1.495 . S
C4141 H4147 0.959 . S
C4141 H4148 0.961 . S
C4141 H4149 0.960 . S
C4142 C4140 1.381 . S
C4142 C4143 1.394 . S
C4142 H4150 0.930 . S
C4143 C4142 1.394 . S
C4143 C4144 1.383 . S
C4143 H4151 0.929 . S
C4144 C4143 1.383 . S
C4144 C4145 1.377 . S
C4145 H4129 0.930 . S
C4145 C4144 1.377 . S
C4145 C4146 1.379 . S
C4146 H4130 0.931 . S
C4146 C4140 1.383 . S
C4146 C4145 1.379 . S
H4147 C4141 0.959 . S
H4148 C4141 0.961 . S
H4149 C4141 0.960 . S
H4150 C4142 0.930 . S
H4151 C4143 0.929 . S
H4152 C4160 0.929 . S
H4153 C4162 0.930 . S
H4154 C4164 0.930 . S
H4155 C4167 0.929 . S
H4156 C4170 0.930 . S
H4157 C4172 0.960 . S
H4158 C4172 0.960 . S
H4159 C4172 0.960 . S
C4160 H4152 0.929 . S
C4160 C4161 1.377 . S
C4160 C4162 1.384 . S
C4161 C4160 1.377 . S
C4161 C4167 1.390 . S
C4162 H4153 0.930 . S
C4162 C4160 1.384 . S
C4162 C4163 1.372 . S
C4163 C4162 1.372 . S
C4163 C4164 1.400 . S
C4163 C4168 1.490 . S
C4164 H4154 0.930 . S
C4164 C4163 1.400 . S
C4164 C4167 1.386 . S
H4165 C4181 0.930 . S
H4166 C4182 0.931 . S
C4167 H4155 0.929 . S
C4167 C4161 1.390 . S
C4167 C4164 1.386 . S
C4168 C4163 1.490 . S
C4168 C4170 1.395 . S
C4168 C4171 1.403 . S
H4169 C4175 0.930 . S
C4170 H4156 0.930 . S
C4170 C4168 1.395 . S
C4170 C4173 1.403 . S
C4171 C4168 1.403 . S
C4171 C4172 1.524 . S
C4171 C4175 1.400 . S
C4172 H4157 0.960 . S
C4172 H4158 0.960 . S
C4172 H4159 0.960 . S
C4172 C4171 1.524 . S
C4173 C4170 1.403 . S
C4173 C4174 1.392 . S
C4173 C4177 1.495 . S
C4174 C4173 1.392 . S
C4174 C4175 1.385 . S
C4174 C4176 1.478 . S
C4175 H4169 0.930 . S
C4175 C4171 1.400 . S
C4175 C4174 1.385 . S
C4176 C4174 1.478 . S
C4176 C4178 1.381 . S
C4176 C4182 1.383 . S
C4177 C4173 1.495 . S
C4177 H4183 0.959 . S
C4177 H4184 0.961 . S
C4177 H4185 0.960 . S
C4178 C4176 1.381 . S
C4178 C4179 1.394 . S
C4178 H4186 0.930 . S
C4179 C4178 1.394 . S
C4179 C4180 1.383 . S
C4179 H4187 0.929 . S
C4180 C4179 1.383 . S
C4180 C4181 1.377 . S
C4181 H4165 0.930 . S
C4181 C4180 1.377 . S
C4181 C4182 1.379 . S
C4182 H4166 0.931 . S
C4182 C4176 1.383 . S
C4182 C4181 1.379 . S
H4183 C4177 0.959 . S
H4184 C4177 0.961 . S
H4185 C4177 0.960 . S
H4186 C4178 0.930 . S
H4187 C4179 0.929 . S
H4188 C4196 0.929 . S
H4189 C4198 0.930 . S
H4190 C4200 0.930 . S
H4191 C4203 0.929 . S
H4192 C4206 0.930 . S
H4193 C4208 0.960 . S
H4194 C4208 0.960 . S
H4195 C4208 0.960 . S
C4196 H4188 0.929 . S
C4196 C4197 1.377 . S
C4196 C4198 1.384 . S
C4197 C4196 1.377 . S
C4197 C4203 1.390 . S
C4198 H4189 0.930 . S
C4198 C4196 1.384 . S
C4198 C4199 1.372 . S
C4199 C4198 1.372 . S
C4199 C4200 1.400 . S
C4199 C4204 1.490 . S
C4200 H4190 0.930 . S
C4200 C4199 1.400 . S
C4200 C4203 1.386 . S
H4201 C4217 0.930 . S
H4202 C4218 0.931 . S
C4203 H4191 0.929 . S
C4203 C4197 1.390 . S
C4203 C4200 1.386 . S
C4204 C4199 1.490 . S
C4204 C4206 1.395 . S
C4204 C4207 1.403 . S
H4205 C4211 0.930 . S
C4206 H4192 0.930 . S
C4206 C4204 1.395 . S
C4206 C4209 1.403 . S
C4207 C4204 1.403 . S
C4207 C4208 1.524 . S
C4207 C4211 1.400 . S
C4208 H4193 0.960 . S
C4208 H4194 0.960 . S
C4208 H4195 0.960 . S
C4208 C4207 1.524 . S
C4209 C4206 1.403 . S
C4209 C4210 1.392 . S
C4209 C4213 1.495 . S
C4210 C4209 1.392 . S
C4210 C4211 1.385 . S
C4210 C4212 1.478 . S
C4211 H4205 0.930 . S
C4211 C4207 1.400 . S
C4211 C4210 1.385 . S
C4212 C4210 1.478 . S
C4212 C4214 1.381 . S
C4212 C4218 1.383 . S
C4213 C4209 1.495 . S
C4213 H4219 0.959 . S
C4213 H4220 0.961 . S
C4213 H4221 0.960 . S
C4214 C4212 1.381 . S
C4214 C4215 1.394 . S
C4214 H4222 0.930 . S
C4215 C4214 1.394 . S
C4215 C4216 1.383 . S
C4215 H4223 0.929 . S
C4216 C4215 1.383 . S
C4216 C4217 1.377 . S
C4217 H4201 0.930 . S
C4217 C4216 1.377 . S
C4217 C4218 1.379 . S
C4218 H4202 0.931 . S
C4218 C4212 1.383 . S
C4218 C4217 1.379 . S
H4219 C4213 0.959 . S
H4220 C4213 0.961 . S
H4221 C4213 0.960 . S
H4222 C4214 0.930 . S
H4223 C4215 0.929 . S
H4224 C4232 0.929 . S
H4225 C4234 0.930 . S
H4226 C4236 0.930 . S
H4227 C4239 0.929 . S
H4228 C4242 0.930 . S
H4229 C4244 0.960 . S
H4230 C4244 0.960 . S
H4231 C4244 0.960 . S
C4232 H4224 0.929 . S
C4232 C4233 1.377 . S
C4232 C4234 1.384 . S
C4233 C4232 1.377 . S
C4233 C4239 1.390 . S
C4234 H4225 0.930 . S
C4234 C4232 1.384 . S
C4234 C4235 1.372 . S
C4235 C4234 1.372 . S
C4235 C4236 1.400 . S
C4235 C4240 1.490 . S
C4236 H4226 0.930 . S
C4236 C4235 1.400 . S
C4236 C4239 1.386 . S
H4237 C4253 0.930 . S
H4238 C4254 0.931 . S
C4239 H4227 0.929 . S
C4239 C4233 1.390 . S
C4239 C4236 1.386 . S
C4240 C4235 1.490 . S
C4240 C4242 1.395 . S
C4240 C4243 1.403 . S
H4241 C4247 0.930 . S
C4242 H4228 0.930 . S
C4242 C4240 1.395 . S
C4242 C4245 1.403 . S
C4243 C4240 1.403 . S
C4243 C4244 1.524 . S
C4243 C4247 1.400 . S
C4244 H4229 0.960 . S
C4244 H4230 0.960 . S
C4244 H4231 0.960 . S
C4244 C4243 1.524 . S
C4245 C4242 1.403 . S
C4245 C4246 1.392 . S
C4245 C4249 1.495 . S
C4246 C4245 1.392 . S
C4246 C4247 1.385 . S
C4246 C4248 1.478 . S
C4247 H4241 0.930 . S
C4247 C4243 1.400 . S
C4247 C4246 1.385 . S
C4248 C4246 1.478 . S
C4248 C4250 1.381 . S
C4248 C4254 1.383 . S
C4249 C4245 1.495 . S
C4249 H4255 0.959 . S
C4249 H4256 0.961 . S
C4249 H4257 0.960 . S
C4250 C4248 1.381 . S
C4250 C4251 1.394 . S
C4250 H4258 0.930 . S
C4251 C4250 1.394 . S
C4251 C4252 1.383 . S
C4251 H4259 0.929 . S
C4252 C4251 1.383 . S
C4252 C4253 1.377 . S
C4253 H4237 0.930 . S
C4253 C4252 1.377 . S
C4253 C4254 1.379 . S
C4254 H4238 0.931 . S
C4254 C4248 1.383 . S
C4254 C4253 1.379 . S
H4255 C4249 0.959 . S
H4256 C4249 0.961 . S
H4257 C4249 0.960 . S
H4258 C4250 0.930 . S
H4259 C4251 0.929 . S
H4260 C4268 0.929 . S
H4261 C4270 0.930 . S
H4262 C4272 0.930 . S
H4263 C4275 0.929 . S
H4264 C4278 0.930 . S
H4265 C4280 0.960 . S
H4266 C4280 0.960 . S
H4267 C4280 0.960 . S
C4268 H4260 0.929 . S
C4268 C4269 1.377 . S
C4268 C4270 1.384 . S
C4269 C4268 1.377 . S
C4269 C4275 1.390 . S
C4270 H4261 0.930 . S
C4270 C4268 1.384 . S
C4270 C4271 1.372 . S
C4271 C4270 1.372 . S
C4271 C4272 1.400 . S
C4271 C4276 1.490 . S
C4272 H4262 0.930 . S
C4272 C4271 1.400 . S
C4272 C4275 1.386 . S
H4273 C4289 0.930 . S
H4274 C4290 0.931 . S
C4275 H4263 0.929 . S
C4275 C4269 1.390 . S
C4275 C4272 1.386 . S
C4276 C4271 1.490 . S
C4276 C4278 1.395 . S
C4276 C4279 1.403 . S
H4277 C4283 0.930 . S
C4278 H4264 0.930 . S
C4278 C4276 1.395 . S
C4278 C4281 1.403 . S
C4279 C4276 1.403 . S
C4279 C4280 1.524 . S
C4279 C4283 1.400 . S
C4280 H4265 0.960 . S
C4280 H4266 0.960 . S
C4280 H4267 0.960 . S
C4280 C4279 1.524 . S
C4281 C4278 1.403 . S
C4281 C4282 1.392 . S
C4281 C4285 1.495 . S
C4282 C4281 1.392 . S
C4282 C4283 1.385 . S
C4282 C4284 1.478 . S
C4283 H4277 0.930 . S
C4283 C4279 1.400 . S
C4283 C4282 1.385 . S
C4284 C4282 1.478 . S
C4284 C4286 1.381 . S
C4284 C4290 1.383 . S
C4285 C4281 1.495 . S
C4285 H4291 0.959 . S
C4285 H4292 0.961 . S
C4285 H4293 0.960 . S
C4286 C4284 1.381 . S
C4286 C4287 1.394 . S
C4286 H4294 0.930 . S
C4287 C4286 1.394 . S
C4287 C4288 1.383 . S
C4287 H4295 0.929 . S
C4288 C4287 1.383 . S
C4288 C4289 1.377 . S
C4289 H4273 0.930 . S
C4289 C4288 1.377 . S
C4289 C4290 1.379 . S
C4290 H4274 0.931 . S
C4290 C4284 1.383 . S
C4290 C4289 1.379 . S
H4291 C4285 0.959 . S
H4292 C4285 0.961 . S
H4293 C4285 0.960 . S
H4294 C4286 0.930 . S
H4295 C4287 0.929 . S
H4296 C4304 0.929 . S
H4297 C4306 0.930 . S
H4298 C4308 0.930 . S
H4299 C4311 0.929 . S
H4300 C4314 0.930 . S
H4301 C4316 0.960 . S
H4302 C4316 0.960 . S
H4303 C4316 0.960 . S
C4304 H4296 0.929 . S
C4304 C4305 1.377 . S
C4304 C4306 1.384 . S
C4305 C4304 1.377 . S
C4305 C4311 1.390 . S
C4306 H4297 0.930 . S
C4306 C4304 1.384 . S
C4306 C4307 1.372 . S
C4307 C4306 1.372 . S
C4307 C4308 1.400 . S
C4307 C4312 1.490 . S
C4308 H4298 0.930 . S
C4308 C4307 1.400 . S
C4308 C4311 1.386 . S
H4309 C4325 0.930 . S
H4310 C4326 0.931 . S
C4311 H4299 0.929 . S
C4311 C4305 1.390 . S
C4311 C4308 1.386 . S
C4312 C4307 1.490 . S
C4312 C4314 1.395 . S
C4312 C4315 1.403 . S
H4313 C4319 0.930 . S
C4314 H4300 0.930 . S
C4314 C4312 1.395 . S
C4314 C4317 1.403 . S
C4315 C4312 1.403 . S
C4315 C4316 1.524 . S
C4315 C4319 1.400 . S
C4316 H4301 0.960 . S
C4316 H4302 0.960 . S
C4316 H4303 0.960 . S
C4316 C4315 1.524 . S
C4317 C4314 1.403 . S
C4317 C4318 1.392 . S
C4317 C4321 1.495 . S
C4318 C4317 1.392 . S
C4318 C4319 1.385 . S
C4318 C4320 1.478 . S
C4319 H4313 0.930 . S
C4319 C4315 1.400 . S
C4319 C4318 1.385 . S
C4320 C4318 1.478 . S
C4320 C4322 1.381 . S
C4320 C4326 1.383 . S
C4321 C4317 1.495 . S
C4321 H4327 0.959 . S
C4321 H4328 0.961 . S
C4321 H4329 0.960 . S
C4322 C4320 1.381 . S
C4322 C4323 1.394 . S
C4322 H4330 0.930 . S
C4323 C4322 1.394 . S
C4323 C4324 1.383 . S
C4323 H4331 0.929 . S
C4324 C4323 1.383 . S
C4324 C4325 1.377 . S
C4325 H4309 0.930 . S
C4325 C4324 1.377 . S
C4325 C4326 1.379 . S
C4326 H4310 0.931 . S
C4326 C4320 1.383 . S
C4326 C4325 1.379 . S
H4327 C4321 0.959 . S
H4328 C4321 0.961 . S
H4329 C4321 0.960 . S
H4330 C4322 0.930 . S
H4331 C4323 0.929 . S
H4332 C4340 0.929 . S
H4333 C4342 0.930 . S
H4334 C4344 0.930 . S
H4335 C4347 0.929 . S
H4336 C4350 0.930 . S
H4337 C4352 0.960 . S
H4338 C4352 0.960 . S
H4339 C4352 0.960 . S
C4340 H4332 0.929 . S
C4340 C4341 1.377 . S
C4340 C4342 1.384 . S
C4341 C4340 1.377 . S
C4341 C4347 1.390 . S
C4342 H4333 0.930 . S
C4342 C4340 1.384 . S
C4342 C4343 1.372 . S
C4343 C4342 1.372 . S
C4343 C4344 1.400 . S
C4343 C4348 1.490 . S
C4344 H4334 0.930 . S
C4344 C4343 1.400 . S
C4344 C4347 1.386 . S
H4345 C4361 0.930 . S
H4346 C4362 0.931 . S
C4347 H4335 0.929 . S
C4347 C4341 1.390 . S
C4347 C4344 1.386 . S
C4348 C4343 1.490 . S
C4348 C4350 1.395 . S
C4348 C4351 1.403 . S
H4349 C4355 0.930 . S
C4350 H4336 0.930 . S
C4350 C4348 1.395 . S
C4350 C4353 1.403 . S
C4351 C4348 1.403 . S
C4351 C4352 1.524 . S
C4351 C4355 1.400 . S
C4352 H4337 0.960 . S
C4352 H4338 0.960 . S
C4352 H4339 0.960 . S
C4352 C4351 1.524 . S
C4353 C4350 1.403 . S
C4353 C4354 1.392 . S
C4353 C4357 1.495 . S
C4354 C4353 1.392 . S
C4354 C4355 1.385 . S
C4354 C4356 1.478 . S
C4355 H4349 0.930 . S
C4355 C4351 1.400 . S
C4355 C4354 1.385 . S
C4356 C4354 1.478 . S
C4356 C4358 1.381 . S
C4356 C4362 1.383 . S
C4357 C4353 1.495 . S
C4357 H4363 0.959 . S
C4357 H4364 0.961 . S
C4357 H4365 0.960 . S
C4358 C4356 1.381 . S
C4358 C4359 1.394 . S
C4358 H4366 0.930 . S
C4359 C4358 1.394 . S
C4359 C4360 1.383 . S
C4359 H4367 0.929 . S
C4360 C4359 1.383 . S
C4360 C4361 1.377 . S
C4361 H4345 0.930 . S
C4361 C4360 1.377 . S
C4361 C4362 1.379 . S
C4362 H4346 0.931 . S
C4362 C4356 1.383 . S
C4362 C4361 1.379 . S
H4363 C4357 0.959 . S
H4364 C4357 0.961 . S
H4365 C4357 0.960 . S
H4366 C4358 0.930 . S
H4367 C4359 0.929 . S
H4368 C4376 0.929 . S
H4369 C4378 0.930 . S
H4370 C4380 0.930 . S
H4371 C4383 0.929 . S
H4372 C4386 0.930 . S
H4373 C4388 0.960 . S
H4374 C4388 0.960 . S
H4375 C4388 0.960 . S
C4376 H4368 0.929 . S
C4376 C4377 1.377 . S
C4376 C4378 1.384 . S
C4377 C4376 1.377 . S
C4377 C4383 1.390 . S
C4378 H4369 0.930 . S
C4378 C4376 1.384 . S
C4378 C4379 1.372 . S
C4379 C4378 1.372 . S
C4379 C4380 1.400 . S
C4379 C4384 1.490 . S
C4380 H4370 0.930 . S
C4380 C4379 1.400 . S
C4380 C4383 1.386 . S
H4381 C4397 0.930 . S
H4382 C4398 0.931 . S
C4383 H4371 0.929 . S
C4383 C4377 1.390 . S
C4383 C4380 1.386 . S
C4384 C4379 1.490 . S
C4384 C4386 1.395 . S
C4384 C4387 1.403 . S
H4385 C4391 0.930 . S
C4386 H4372 0.930 . S
C4386 C4384 1.395 . S
C4386 C4389 1.403 . S
C4387 C4384 1.403 . S
C4387 C4388 1.524 . S
C4387 C4391 1.400 . S
C4388 H4373 0.960 . S
C4388 H4374 0.960 . S
C4388 H4375 0.960 . S
C4388 C4387 1.524 . S
C4389 C4386 1.403 . S
C4389 C4390 1.392 . S
C4389 C4393 1.495 . S
C4390 C4389 1.392 . S
C4390 C4391 1.385 . S
C4390 C4392 1.478 . S
C4391 H4385 0.930 . S
C4391 C4387 1.400 . S
C4391 C4390 1.385 . S
C4392 C4390 1.478 . S
C4392 C4394 1.381 . S
C4392 C4398 1.383 . S
C4393 C4389 1.495 . S
C4393 H4399 0.959 . S
C4393 H4400 0.961 . S
C4393 H4401 0.960 . S
C4394 C4392 1.381 . S
C4394 C4395 1.394 . S
C4394 H4402 0.930 . S
C4395 C4394 1.394 . S
C4395 C4396 1.383 . S
C4395 H4403 0.929 . S
C4396 C4395 1.383 . S
C4396 C4397 1.377 . S
C4397 H4381 0.930 . S
C4397 C4396 1.377 . S
C4397 C4398 1.379 . S
C4398 H4382 0.931 . S
C4398 C4392 1.383 . S
C4398 C4397 1.379 . S
H4399 C4393 0.959 . S
H4400 C4393 0.961 . S
H4401 C4393 0.960 . S
H4402 C4394 0.930 . S
H4403 C4395 0.929 . S
H4404 C4412 0.929 . S
H4405 C4414 0.930 . S
H4406 C4416 0.930 . S
H4407 C4419 0.929 . S
H4408 C4422 0.930 . S
H4409 C4424 0.960 . S
H4410 C4424 0.960 . S
H4411 C4424 0.960 . S
C4412 H4404 0.929 . S
C4412 C4413 1.377 . S
C4412 C4414 1.384 . S
C4413 C4412 1.377 . S
C4413 C4419 1.390 . S
C4414 H4405 0.930 . S
C4414 C4412 1.384 . S
C4414 C4415 1.372 . S
C4415 C4414 1.372 . S
C4415 C4416 1.400 . S
C4415 C4420 1.490 . S
C4416 H4406 0.930 . S
C4416 C4415 1.400 . S
C4416 C4419 1.386 . S
H4417 C4433 0.930 . S
H4418 C4434 0.931 . S
C4419 H4407 0.929 . S
C4419 C4413 1.390 . S
C4419 C4416 1.386 . S
C4420 C4415 1.490 . S
C4420 C4422 1.395 . S
C4420 C4423 1.403 . S
H4421 C4427 0.930 . S
C4422 H4408 0.930 . S
C4422 C4420 1.395 . S
C4422 C4425 1.403 . S
C4423 C4420 1.403 . S
C4423 C4424 1.524 . S
C4423 C4427 1.400 . S
C4424 H4409 0.960 . S
C4424 H4410 0.960 . S
C4424 H4411 0.960 . S
C4424 C4423 1.524 . S
C4425 C4422 1.403 . S
C4425 C4426 1.392 . S
C4425 C4429 1.495 . S
C4426 C4425 1.392 . S
C4426 C4427 1.385 . S
C4426 C4428 1.478 . S
C4427 H4421 0.930 . S
C4427 C4423 1.400 . S
C4427 C4426 1.385 . S
C4428 C4426 1.478 . S
C4428 C4430 1.381 . S
C4428 C4434 1.383 . S
C4429 C4425 1.495 . S
C4429 H4435 0.959 . S
C4429 H4436 0.961 . S
C4429 H4437 0.960 . S
C4430 C4428 1.381 . S
C4430 C4431 1.394 . S
C4430 H4438 0.930 . S
C4431 C4430 1.394 . S
C4431 C4432 1.383 . S
C4431 H4439 0.929 . S
C4432 C4431 1.383 . S
C4432 C4433 1.377 . S
C4433 H4417 0.930 . S
C4433 C4432 1.377 . S
C4433 C4434 1.379 . S
C4434 H4418 0.931 . S
C4434 C4428 1.383 . S
C4434 C4433 1.379 . S
H4435 C4429 0.959 . S
H4436 C4429 0.961 . S
H4437 C4429 0.960 . S
H4438 C4430 0.930 . S
H4439 C4431 0.929 . S
H4440 C4448 0.929 . S
H4441 C4450 0.930 . S
H4442 C4452 0.930 . S
H4443 C4455 0.929 . S
H4444 C4458 0.930 . S
H4445 C4460 0.960 . S
H4446 C4460 0.960 . S
H4447 C4460 0.960 . S
C4448 H4440 0.929 . S
C4448 C4449 1.377 . S
C4448 C4450 1.384 . S
C4449 C4448 1.377 . S
C4449 C4455 1.390 . S
C4450 H4441 0.930 . S
C4450 C4448 1.384 . S
C4450 C4451 1.372 . S
C4451 C4450 1.372 . S
C4451 C4452 1.400 . S
C4451 C4456 1.490 . S
C4452 H4442 0.930 . S
C4452 C4451 1.400 . S
C4452 C4455 1.386 . S
H4453 C4469 0.930 . S
H4454 C4470 0.931 . S
C4455 H4443 0.929 . S
C4455 C4449 1.390 . S
C4455 C4452 1.386 . S
C4456 C4451 1.490 . S
C4456 C4458 1.395 . S
C4456 C4459 1.403 . S
H4457 C4463 0.930 . S
C4458 H4444 0.930 . S
C4458 C4456 1.395 . S
C4458 C4461 1.403 . S
C4459 C4456 1.403 . S
C4459 C4460 1.524 . S
C4459 C4463 1.400 . S
C4460 H4445 0.960 . S
C4460 H4446 0.960 . S
C4460 H4447 0.960 . S
C4460 C4459 1.524 . S
C4461 C4458 1.403 . S
C4461 C4462 1.392 . S
C4461 C4465 1.495 . S
C4462 C4461 1.392 . S
C4462 C4463 1.385 . S
C4462 C4464 1.478 . S
C4463 H4457 0.930 . S
C4463 C4459 1.400 . S
C4463 C4462 1.385 . S
C4464 C4462 1.478 . S
C4464 C4466 1.381 . S
C4464 C4470 1.383 . S
C4465 C4461 1.495 . S
C4465 H4471 0.959 . S
C4465 H4472 0.961 . S
C4465 H4473 0.960 . S
C4466 C4464 1.381 . S
C4466 C4467 1.394 . S
C4466 H4474 0.930 . S
C4467 C4466 1.394 . S
C4467 C4468 1.383 . S
C4467 H4475 0.929 . S
C4468 C4467 1.383 . S
C4468 C4469 1.377 . S
C4469 H4453 0.930 . S
C4469 C4468 1.377 . S
C4469 C4470 1.379 . S
C4470 H4454 0.931 . S
C4470 C4464 1.383 . S
C4470 C4469 1.379 . S
H4471 C4465 0.959 . S
H4472 C4465 0.961 . S
H4473 C4465 0.960 . S
H4474 C4466 0.930 . S
H4475 C4467 0.929 . S
H4476 C4484 0.929 . S
H4477 C4486 0.930 . S
H4478 C4488 0.930 . S
H4479 C4491 0.929 . S
H4480 C4494 0.930 . S
H4481 C4496 0.960 . S
H4482 C4496 0.960 . S
H4483 C4496 0.960 . S
C4484 H4476 0.929 . S
C4484 C4485 1.377 . S
C4484 C4486 1.384 . S
C4485 C4484 1.377 . S
C4485 C4491 1.390 . S
C4486 H4477 0.930 . S
C4486 C4484 1.384 . S
C4486 C4487 1.372 . S
C4487 C4486 1.372 . S
C4487 C4488 1.400 . S
C4487 C4492 1.490 . S
C4488 H4478 0.930 . S
C4488 C4487 1.400 . S
C4488 C4491 1.386 . S
H4489 C4505 0.930 . S
H4490 C4506 0.931 . S
C4491 H4479 0.929 . S
C4491 C4485 1.390 . S
C4491 C4488 1.386 . S
C4492 C4487 1.490 . S
C4492 C4494 1.395 . S
C4492 C4495 1.403 . S
H4493 C4499 0.930 . S
C4494 H4480 0.930 . S
C4494 C4492 1.395 . S
C4494 C4497 1.403 . S
C4495 C4492 1.403 . S
C4495 C4496 1.524 . S
C4495 C4499 1.400 . S
C4496 H4481 0.960 . S
C4496 H4482 0.960 . S
C4496 H4483 0.960 . S
C4496 C4495 1.524 . S
C4497 C4494 1.403 . S
C4497 C4498 1.392 . S
C4497 C4501 1.495 . S
C4498 C4497 1.392 . S
C4498 C4499 1.385 . S
C4498 C4500 1.478 . S
C4499 H4493 0.930 . S
C4499 C4495 1.400 . S
C4499 C4498 1.385 . S
C4500 C4498 1.478 . S
C4500 C4502 1.381 . S
C4500 C4506 1.383 . S
C4501 C4497 1.495 . S
C4501 H4507 0.959 . S
C4501 H4508 0.961 . S
C4501 H4509 0.960 . S
C4502 C4500 1.381 . S
C4502 C4503 1.394 . S
C4502 H4510 0.930 . S
C4503 C4502 1.394 . S
C4503 C4504 1.383 . S
C4503 H4511 0.929 . S
C4504 C4503 1.383 . S
C4504 C4505 1.377 . S
C4505 H4489 0.930 . S
C4505 C4504 1.377 . S
C4505 C4506 1.379 . S
C4506 H4490 0.931 . S
C4506 C4500 1.383 . S
C4506 C4505 1.379 . S
H4507 C4501 0.959 . S
H4508 C4501 0.961 . S
H4509 C4501 0.960 . S
H4510 C4502 0.930 . S
H4511 C4503 0.929 . S
H4512 C4520 0.929 . S
H4513 C4522 0.930 . S
H4514 C4524 0.930 . S
H4515 C4527 0.929 . S
H4516 C4530 0.930 . S
H4517 C4532 0.960 . S
H4518 C4532 0.960 . S
H4519 C4532 0.960 . S
C4520 H4512 0.929 . S
C4520 C4521 1.377 . S
C4520 C4522 1.384 . S
C4521 C4520 1.377 . S
C4521 C4527 1.390 . S
C4522 H4513 0.930 . S
C4522 C4520 1.384 . S
C4522 C4523 1.372 . S
C4523 C4522 1.372 . S
C4523 C4524 1.400 . S
C4523 C4528 1.490 . S
C4524 H4514 0.930 . S
C4524 C4523 1.400 . S
C4524 C4527 1.386 . S
H4525 C4541 0.930 . S
H4526 C4542 0.931 . S
C4527 H4515 0.929 . S
C4527 C4521 1.390 . S
C4527 C4524 1.386 . S
C4528 C4523 1.490 . S
C4528 C4530 1.395 . S
C4528 C4531 1.403 . S
H4529 C4535 0.930 . S
C4530 H4516 0.930 . S
C4530 C4528 1.395 . S
C4530 C4533 1.403 . S
C4531 C4528 1.403 . S
C4531 C4532 1.524 . S
C4531 C4535 1.400 . S
C4532 H4517 0.960 . S
C4532 H4518 0.960 . S
C4532 H4519 0.960 . S
C4532 C4531 1.524 . S
C4533 C4530 1.403 . S
C4533 C4534 1.392 . S
C4533 C4537 1.495 . S
C4534 C4533 1.392 . S
C4534 C4535 1.385 . S
C4534 C4536 1.478 . S
C4535 H4529 0.930 . S
C4535 C4531 1.400 . S
C4535 C4534 1.385 . S
C4536 C4534 1.478 . S
C4536 C4538 1.381 . S
C4536 C4542 1.383 . S
C4537 C4533 1.495 . S
C4537 H4543 0.959 . S
C4537 H4544 0.961 . S
C4537 H4545 0.960 . S
C4538 C4536 1.381 . S
C4538 C4539 1.394 . S
C4538 H4546 0.930 . S
C4539 C4538 1.394 . S
C4539 C4540 1.383 . S
C4539 H4547 0.929 . S
C4540 C4539 1.383 . S
C4540 C4541 1.377 . S
C4541 H4525 0.930 . S
C4541 C4540 1.377 . S
C4541 C4542 1.379 . S
C4542 H4526 0.931 . S
C4542 C4536 1.383 . S
C4542 C4541 1.379 . S
H4543 C4537 0.959 . S
H4544 C4537 0.961 . S
H4545 C4537 0.960 . S
H4546 C4538 0.930 . S
H4547 C4539 0.929 . S
H4548 C4556 0.929 . S
H4549 C4558 0.930 . S
H4550 C4560 0.930 . S
H4551 C4563 0.929 . S
H4552 C4566 0.930 . S
H4553 C4568 0.960 . S
H4554 C4568 0.960 . S
H4555 C4568 0.960 . S
C4556 H4548 0.929 . S
C4556 C4557 1.377 . S
C4556 C4558 1.384 . S
C4557 C4556 1.377 . S
C4557 C4563 1.390 . S
C4558 H4549 0.930 . S
C4558 C4556 1.384 . S
C4558 C4559 1.372 . S
C4559 C4558 1.372 . S
C4559 C4560 1.400 . S
C4559 C4564 1.490 . S
C4560 H4550 0.930 . S
C4560 C4559 1.400 . S
C4560 C4563 1.386 . S
H4561 C4577 0.930 . S
H4562 C4578 0.931 . S
C4563 H4551 0.929 . S
C4563 C4557 1.390 . S
C4563 C4560 1.386 . S
C4564 C4559 1.490 . S
C4564 C4566 1.395 . S
C4564 C4567 1.403 . S
H4565 C4571 0.930 . S
C4566 H4552 0.930 . S
C4566 C4564 1.395 . S
C4566 C4569 1.403 . S
C4567 C4564 1.403 . S
C4567 C4568 1.524 . S
C4567 C4571 1.400 . S
C4568 H4553 0.960 . S
C4568 H4554 0.960 . S
C4568 H4555 0.960 . S
C4568 C4567 1.524 . S
C4569 C4566 1.403 . S
C4569 C4570 1.392 . S
C4569 C4573 1.495 . S
C4570 C4569 1.392 . S
C4570 C4571 1.385 . S
C4570 C4572 1.478 . S
C4571 H4565 0.930 . S
C4571 C4567 1.400 . S
C4571 C4570 1.385 . S
C4572 C4570 1.478 . S
C4572 C4574 1.381 . S
C4572 C4578 1.383 . S
C4573 C4569 1.495 . S
C4573 H4579 0.959 . S
C4573 H4580 0.961 . S
C4573 H4581 0.960 . S
C4574 C4572 1.381 . S
C4574 C4575 1.394 . S
C4574 H4582 0.930 . S
C4575 C4574 1.394 . S
C4575 C4576 1.383 . S
C4575 H4583 0.929 . S
C4576 C4575 1.383 . S
C4576 C4577 1.377 . S
C4577 H4561 0.930 . S
C4577 C4576 1.377 . S
C4577 C4578 1.379 . S
C4578 H4562 0.931 . S
C4578 C4572 1.383 . S
C4578 C4577 1.379 . S
H4579 C4573 0.959 . S
H4580 C4573 0.961 . S
H4581 C4573 0.960 . S
H4582 C4574 0.930 . S
H4583 C4575 0.929 . S
H4584 C4592 0.929 . S
H4585 C4594 0.930 . S
H4586 C4596 0.930 . S
H4587 C4599 0.929 . S
H4588 C4602 0.930 . S
H4589 C4604 0.960 . S
H4590 C4604 0.960 . S
H4591 C4604 0.960 . S
C4592 H4584 0.929 . S
C4592 C4593 1.377 . S
C4592 C4594 1.384 . S
C4593 C4592 1.377 . S
C4593 C4599 1.390 . S
C4594 H4585 0.930 . S
C4594 C4592 1.384 . S
C4594 C4595 1.372 . S
C4595 C4594 1.372 . S
C4595 C4596 1.400 . S
C4595 C4600 1.490 . S
C4596 H4586 0.930 . S
C4596 C4595 1.400 . S
C4596 C4599 1.386 . S
H4597 C4613 0.930 . S
H4598 C4614 0.931 . S
C4599 H4587 0.929 . S
C4599 C4593 1.390 . S
C4599 C4596 1.386 . S
C4600 C4595 1.490 . S
C4600 C4602 1.395 . S
C4600 C4603 1.403 . S
H4601 C4607 0.930 . S
C4602 H4588 0.930 . S
C4602 C4600 1.395 . S
C4602 C4605 1.403 . S
C4603 C4600 1.403 . S
C4603 C4604 1.524 . S
C4603 C4607 1.400 . S
C4604 H4589 0.960 . S
C4604 H4590 0.960 . S
C4604 H4591 0.960 . S
C4604 C4603 1.524 . S
C4605 C4602 1.403 . S
C4605 C4606 1.392 . S
C4605 C4609 1.495 . S
C4606 C4605 1.392 . S
C4606 C4607 1.385 . S
C4606 C4608 1.478 . S
C4607 H4601 0.930 . S
C4607 C4603 1.400 . S
C4607 C4606 1.385 . S
C4608 C4606 1.478 . S
C4608 C4610 1.381 . S
C4608 C4614 1.383 . S
C4609 C4605 1.495 . S
C4609 H4615 0.959 . S
C4609 H4616 0.961 . S
C4609 H4617 0.960 . S
C4610 C4608 1.381 . S
C4610 C4611 1.394 . S
C4610 H4618 0.930 . S
C4611 C4610 1.394 . S
C4611 C4612 1.383 . S
C4611 H4619 0.929 . S
C4612 C4611 1.383 . S
C4612 C4613 1.377 . S
C4613 H4597 0.930 . S
C4613 C4612 1.377 . S
C4613 C4614 1.379 . S
C4614 H4598 0.931 . S
C4614 C4608 1.383 . S
C4614 C4613 1.379 . S
H4615 C4609 0.959 . S
H4616 C4609 0.961 . S
H4617 C4609 0.960 . S
H4618 C4610 0.930 . S
H4619 C4611 0.929 . S
H4620 C4628 0.929 . S
H4621 C4630 0.930 . S
H4622 C4632 0.930 . S
H4623 C4635 0.929 . S
H4624 C4638 0.930 . S
H4625 C4640 0.960 . S
H4626 C4640 0.960 . S
H4627 C4640 0.960 . S
C4628 H4620 0.929 . S
C4628 C4629 1.377 . S
C4628 C4630 1.384 . S
C4629 C4628 1.377 . S
C4629 C4635 1.390 . S
C4630 H4621 0.930 . S
C4630 C4628 1.384 . S
C4630 C4631 1.372 . S
C4631 C4630 1.372 . S
C4631 C4632 1.400 . S
C4631 C4636 1.490 . S
C4632 H4622 0.930 . S
C4632 C4631 1.400 . S
C4632 C4635 1.386 . S
H4633 C4649 0.930 . S
H4634 C4650 0.931 . S
C4635 H4623 0.929 . S
C4635 C4629 1.390 . S
C4635 C4632 1.386 . S
C4636 C4631 1.490 . S
C4636 C4638 1.395 . S
C4636 C4639 1.403 . S
H4637 C4643 0.930 . S
C4638 H4624 0.930 . S
C4638 C4636 1.395 . S
C4638 C4641 1.403 . S
C4639 C4636 1.403 . S
C4639 C4640 1.524 . S
C4639 C4643 1.400 . S
C4640 H4625 0.960 . S
C4640 H4626 0.960 . S
C4640 H4627 0.960 . S
C4640 C4639 1.524 . S
C4641 C4638 1.403 . S
C4641 C4642 1.392 . S
C4641 C4645 1.495 . S
C4642 C4641 1.392 . S
C4642 C4643 1.385 . S
C4642 C4644 1.478 . S
C4643 H4637 0.930 . S
C4643 C4639 1.400 . S
C4643 C4642 1.385 . S
C4644 C4642 1.478 . S
C4644 C4646 1.381 . S
C4644 C4650 1.383 . S
C4645 C4641 1.495 . S
C4645 H4651 0.959 . S
C4645 H4652 0.961 . S
C4645 H4653 0.960 . S
C4646 C4644 1.381 . S
C4646 C4647 1.394 . S
C4646 H4654 0.930 . S
C4647 C4646 1.394 . S
C4647 C4648 1.383 . S
C4647 H4655 0.929 . S
C4648 C4647 1.383 . S
C4648 C4649 1.377 . S
C4649 H4633 0.930 . S
C4649 C4648 1.377 . S
C4649 C4650 1.379 . S
C4650 H4634 0.931 . S
C4650 C4644 1.383 . S
C4650 C4649 1.379 . S
H4651 C4645 0.959 . S
H4652 C4645 0.961 . S
H4653 C4645 0.960 . S
H4654 C4646 0.930 . S
H4655 C4647 0.929 . S
H4656 C4664 0.929 . S
H4657 C4666 0.930 . S
H4658 C4668 0.930 . S
H4659 C4671 0.929 . S
H4660 C4674 0.930 . S
H4661 C4676 0.960 . S
H4662 C4676 0.960 . S
H4663 C4676 0.960 . S
C4664 H4656 0.929 . S
C4664 C4665 1.377 . S
C4664 C4666 1.384 . S
C4665 C4664 1.377 . S
C4665 C4671 1.390 . S
C4666 H4657 0.930 . S
C4666 C4664 1.384 . S
C4666 C4667 1.372 . S
C4667 C4666 1.372 . S
C4667 C4668 1.400 . S
C4667 C4672 1.490 . S
C4668 H4658 0.930 . S
C4668 C4667 1.400 . S
C4668 C4671 1.386 . S
H4669 C4685 0.930 . S
H4670 C4686 0.931 . S
C4671 H4659 0.929 . S
C4671 C4665 1.390 . S
C4671 C4668 1.386 . S
C4672 C4667 1.490 . S
C4672 C4674 1.395 . S
C4672 C4675 1.403 . S
H4673 C4679 0.930 . S
C4674 H4660 0.930 . S
C4674 C4672 1.395 . S
C4674 C4677 1.403 . S
C4675 C4672 1.403 . S
C4675 C4676 1.524 . S
C4675 C4679 1.400 . S
C4676 H4661 0.960 . S
C4676 H4662 0.960 . S
C4676 H4663 0.960 . S
C4676 C4675 1.524 . S
C4677 C4674 1.403 . S
C4677 C4678 1.392 . S
C4677 C4681 1.495 . S
C4678 C4677 1.392 . S
C4678 C4679 1.385 . S
C4678 C4680 1.478 . S
C4679 H4673 0.930 . S
C4679 C4675 1.400 . S
C4679 C4678 1.385 . S
C4680 C4678 1.478 . S
C4680 C4682 1.381 . S
C4680 C4686 1.383 . S
C4681 C4677 1.495 . S
C4681 H4687 0.959 . S
C4681 H4688 0.961 . S
C4681 H4689 0.960 . S
C4682 C4680 1.381 . S
C4682 C4683 1.394 . S
C4682 H4690 0.930 . S
C4683 C4682 1.394 . S
C4683 C4684 1.383 . S
C4683 H4691 0.929 . S
C4684 C4683 1.383 . S
C4684 C4685 1.377 . S
C4685 H4669 0.930 . S
C4685 C4684 1.377 . S
C4685 C4686 1.379 . S
C4686 H4670 0.931 . S
C4686 C4680 1.383 . S
C4686 C4685 1.379 . S
H4687 C4681 0.959 . S
H4688 C4681 0.961 . S
H4689 C4681 0.960 . S
H4690 C4682 0.930 . S
H4691 C4683 0.929 . S
H4692 C4700 0.929 . S
H4693 C4702 0.930 . S
H4694 C4704 0.930 . S
H4695 C4707 0.929 . S
H4696 C4710 0.930 . S
H4697 C4712 0.960 . S
H4698 C4712 0.960 . S
H4699 C4712 0.960 . S
C4700 H4692 0.929 . S
C4700 C4701 1.377 . S
C4700 C4702 1.384 . S
C4701 C4700 1.377 . S
C4701 C4707 1.390 . S
C4702 H4693 0.930 . S
C4702 C4700 1.384 . S
C4702 C4703 1.372 . S
C4703 C4702 1.372 . S
C4703 C4704 1.400 . S
C4703 C4708 1.490 . S
C4704 H4694 0.930 . S
C4704 C4703 1.400 . S
C4704 C4707 1.386 . S
H4705 C4721 0.930 . S
H4706 C4722 0.931 . S
C4707 H4695 0.929 . S
C4707 C4701 1.390 . S
C4707 C4704 1.386 . S
C4708 C4703 1.490 . S
C4708 C4710 1.395 . S
C4708 C4711 1.403 . S
H4709 C4715 0.930 . S
C4710 H4696 0.930 . S
C4710 C4708 1.395 . S
C4710 C4713 1.403 . S
C4711 C4708 1.403 . S
C4711 C4712 1.524 . S
C4711 C4715 1.400 . S
C4712 H4697 0.960 . S
C4712 H4698 0.960 . S
C4712 H4699 0.960 . S
C4712 C4711 1.524 . S
C4713 C4710 1.403 . S
C4713 C4714 1.392 . S
C4713 C4717 1.495 . S
C4714 C4713 1.392 . S
C4714 C4715 1.385 . S
C4714 C4716 1.478 . S
C4715 H4709 0.930 . S
C4715 C4711 1.400 . S
C4715 C4714 1.385 . S
C4716 C4714 1.478 . S
C4716 C4718 1.381 . S
C4716 C4722 1.383 . S
C4717 C4713 1.495 . S
C4717 H4723 0.959 . S
C4717 H4724 0.961 . S
C4717 H4725 0.960 . S
C4718 C4716 1.381 . S
C4718 C4719 1.394 . S
C4718 H4726 0.930 . S
C4719 C4718 1.394 . S
C4719 C4720 1.383 . S
C4719 H4727 0.929 . S
C4720 C4719 1.383 . S
C4720 C4721 1.377 . S
C4721 H4705 0.930 . S
C4721 C4720 1.377 . S
C4721 C4722 1.379 . S
C4722 H4706 0.931 . S
C4722 C4716 1.383 . S
C4722 C4721 1.379 . S
H4723 C4717 0.959 . S
H4724 C4717 0.961 . S
H4725 C4717 0.960 . S
H4726 C4718 0.930 . S
H4727 C4719 0.929 . S
H4728 C4736 0.929 . S
H4729 C4738 0.930 . S
H4730 C4740 0.930 . S
H4731 C4743 0.929 . S
H4732 C4746 0.930 . S
H4733 C4748 0.960 . S
H4734 C4748 0.960 . S
H4735 C4748 0.960 . S
C4736 H4728 0.929 . S
C4736 C4737 1.377 . S
C4736 C4738 1.384 . S
C4737 C4736 1.377 . S
C4737 C4743 1.390 . S
C4738 H4729 0.930 . S
C4738 C4736 1.384 . S
C4738 C4739 1.372 . S
C4739 C4738 1.372 . S
C4739 C4740 1.400 . S
C4739 C4744 1.490 . S
C4740 H4730 0.930 . S
C4740 C4739 1.400 . S
C4740 C4743 1.386 . S
H4741 C4757 0.930 . S
H4742 C4758 0.931 . S
C4743 H4731 0.929 . S
C4743 C4737 1.390 . S
C4743 C4740 1.386 . S
C4744 C4739 1.490 . S
C4744 C4746 1.395 . S
C4744 C4747 1.403 . S
H4745 C4751 0.930 . S
C4746 H4732 0.930 . S
C4746 C4744 1.395 . S
C4746 C4749 1.403 . S
C4747 C4744 1.403 . S
C4747 C4748 1.524 . S
C4747 C4751 1.400 . S
C4748 H4733 0.960 . S
C4748 H4734 0.960 . S
C4748 H4735 0.960 . S
C4748 C4747 1.524 . S
C4749 C4746 1.403 . S
C4749 C4750 1.392 . S
C4749 C4753 1.495 . S
C4750 C4749 1.392 . S
C4750 C4751 1.385 . S
C4750 C4752 1.478 . S
C4751 H4745 0.930 . S
C4751 C4747 1.400 . S
C4751 C4750 1.385 . S
C4752 C4750 1.478 . S
C4752 C4754 1.381 . S
C4752 C4758 1.383 . S
C4753 C4749 1.495 . S
C4753 H4759 0.959 . S
C4753 H4760 0.961 . S
C4753 H4761 0.960 . S
C4754 C4752 1.381 . S
C4754 C4755 1.394 . S
C4754 H4762 0.930 . S
C4755 C4754 1.394 . S
C4755 C4756 1.383 . S
C4755 H4763 0.929 . S
C4756 C4755 1.383 . S
C4756 C4757 1.377 . S
C4757 H4741 0.930 . S
C4757 C4756 1.377 . S
C4757 C4758 1.379 . S
C4758 H4742 0.931 . S
C4758 C4752 1.383 . S
C4758 C4757 1.379 . S
H4759 C4753 0.959 . S
H4760 C4753 0.961 . S
H4761 C4753 0.960 . S
H4762 C4754 0.930 . S
H4763 C4755 0.929 . S
H4764 C4772 0.929 . S
H4765 C4774 0.930 . S
H4766 C4776 0.930 . S
H4767 C4779 0.929 . S
H4768 C4782 0.930 . S
H4769 C4784 0.960 . S
H4770 C4784 0.960 . S
H4771 C4784 0.960 . S
C4772 H4764 0.929 . S
C4772 C4773 1.377 . S
C4772 C4774 1.384 . S
C4773 C4772 1.377 . S
C4773 C4779 1.390 . S
C4774 H4765 0.930 . S
C4774 C4772 1.384 . S
C4774 C4775 1.372 . S
C4775 C4774 1.372 . S
C4775 C4776 1.400 . S
C4775 C4780 1.490 . S
C4776 H4766 0.930 . S
C4776 C4775 1.400 . S
C4776 C4779 1.386 . S
H4777 C4793 0.930 . S
H4778 C4794 0.931 . S
C4779 H4767 0.929 . S
C4779 C4773 1.390 . S
C4779 C4776 1.386 . S
C4780 C4775 1.490 . S
C4780 C4782 1.395 . S
C4780 C4783 1.403 . S
H4781 C4787 0.930 . S
C4782 H4768 0.930 . S
C4782 C4780 1.395 . S
C4782 C4785 1.403 . S
C4783 C4780 1.403 . S
C4783 C4784 1.524 . S
C4783 C4787 1.400 . S
C4784 H4769 0.960 . S
C4784 H4770 0.960 . S
C4784 H4771 0.960 . S
C4784 C4783 1.524 . S
C4785 C4782 1.403 . S
C4785 C4786 1.392 . S
C4785 C4789 1.495 . S
C4786 C4785 1.392 . S
C4786 C4787 1.385 . S
C4786 C4788 1.478 . S
C4787 H4781 0.930 . S
C4787 C4783 1.400 . S
C4787 C4786 1.385 . S
C4788 C4786 1.478 . S
C4788 C4790 1.381 . S
C4788 C4794 1.383 . S
C4789 C4785 1.495 . S
C4789 H4795 0.959 . S
C4789 H4796 0.961 . S
C4789 H4797 0.960 . S
C4790 C4788 1.381 . S
C4790 C4791 1.394 . S
C4790 H4798 0.930 . S
C4791 C4790 1.394 . S
C4791 C4792 1.383 . S
C4791 H4799 0.929 . S
C4792 C4791 1.383 . S
C4792 C4793 1.377 . S
C4793 H4777 0.930 . S
C4793 C4792 1.377 . S
C4793 C4794 1.379 . S
C4794 H4778 0.931 . S
C4794 C4788 1.383 . S
C4794 C4793 1.379 . S
H4795 C4789 0.959 . S
H4796 C4789 0.961 . S
H4797 C4789 0.960 . S
H4798 C4790 0.930 . S
H4799 C4791 0.929 . S
H4800 C4808 0.929 . S
H4801 C4810 0.930 . S
H4802 C4812 0.930 . S
H4803 C4815 0.929 . S
H4804 C4818 0.930 . S
H4805 C4820 0.960 . S
H4806 C4820 0.960 . S
H4807 C4820 0.960 . S
C4808 H4800 0.929 . S
C4808 C4809 1.377 . S
C4808 C4810 1.384 . S
C4809 C4808 1.377 . S
C4809 C4815 1.390 . S
C4810 H4801 0.930 . S
C4810 C4808 1.384 . S
C4810 C4811 1.372 . S
C4811 C4810 1.372 . S
C4811 C4812 1.400 . S
C4811 C4816 1.490 . S
C4812 H4802 0.930 . S
C4812 C4811 1.400 . S
C4812 C4815 1.386 . S
H4813 C4829 0.930 . S
H4814 C4830 0.931 . S
C4815 H4803 0.929 . S
C4815 C4809 1.390 . S
C4815 C4812 1.386 . S
C4816 C4811 1.490 . S
C4816 C4818 1.395 . S
C4816 C4819 1.403 . S
H4817 C4823 0.930 . S
C4818 H4804 0.930 . S
C4818 C4816 1.395 . S
C4818 C4821 1.403 . S
C4819 C4816 1.403 . S
C4819 C4820 1.524 . S
C4819 C4823 1.400 . S
C4820 H4805 0.960 . S
C4820 H4806 0.960 . S
C4820 H4807 0.960 . S
C4820 C4819 1.524 . S
C4821 C4818 1.403 . S
C4821 C4822 1.392 . S
C4821 C4825 1.495 . S
C4822 C4821 1.392 . S
C4822 C4823 1.385 . S
C4822 C4824 1.478 . S
C4823 H4817 0.930 . S
C4823 C4819 1.400 . S
C4823 C4822 1.385 . S
C4824 C4822 1.478 . S
C4824 C4826 1.381 . S
C4824 C4830 1.383 . S
C4825 C4821 1.495 . S
C4825 H4831 0.959 . S
C4825 H4832 0.961 . S
C4825 H4833 0.960 . S
C4826 C4824 1.381 . S
C4826 C4827 1.394 . S
C4826 H4834 0.930 . S
C4827 C4826 1.394 . S
C4827 C4828 1.383 . S
C4827 H4835 0.929 . S
C4828 C4827 1.383 . S
C4828 C4829 1.377 . S
C4829 H4813 0.930 . S
C4829 C4828 1.377 . S
C4829 C4830 1.379 . S
C4830 H4814 0.931 . S
C4830 C4824 1.383 . S
C4830 C4829 1.379 . S
H4831 C4825 0.959 . S
H4832 C4825 0.961 . S
H4833 C4825 0.960 . S
H4834 C4826 0.930 . S
H4835 C4827 0.929 . S
H4836 C4844 0.929 . S
H4837 C4846 0.930 . S
H4838 C4848 0.930 . S
H4839 C4851 0.929 . S
H4840 C4854 0.930 . S
H4841 C4856 0.960 . S
H4842 C4856 0.960 . S
H4843 C4856 0.960 . S
C4844 H4836 0.929 . S
C4844 C4845 1.377 . S
C4844 C4846 1.384 . S
C4845 C4844 1.377 . S
C4845 C4851 1.390 . S
C4846 H4837 0.930 . S
C4846 C4844 1.384 . S
C4846 C4847 1.372 . S
C4847 C4846 1.372 . S
C4847 C4848 1.400 . S
C4847 C4852 1.490 . S
C4848 H4838 0.930 . S
C4848 C4847 1.400 . S
C4848 C4851 1.386 . S
H4849 C4865 0.930 . S
H4850 C4866 0.931 . S
C4851 H4839 0.929 . S
C4851 C4845 1.390 . S
C4851 C4848 1.386 . S
C4852 C4847 1.490 . S
C4852 C4854 1.395 . S
C4852 C4855 1.403 . S
H4853 C4859 0.930 . S
C4854 H4840 0.930 . S
C4854 C4852 1.395 . S
C4854 C4857 1.403 . S
C4855 C4852 1.403 . S
C4855 C4856 1.524 . S
C4855 C4859 1.400 . S
C4856 H4841 0.960 . S
C4856 H4842 0.960 . S
C4856 H4843 0.960 . S
C4856 C4855 1.524 . S
C4857 C4854 1.403 . S
C4857 C4858 1.392 . S
C4857 C4861 1.495 . S
C4858 C4857 1.392 . S
C4858 C4859 1.385 . S
C4858 C4860 1.478 . S
C4859 H4853 0.930 . S
C4859 C4855 1.400 . S
C4859 C4858 1.385 . S
C4860 C4858 1.478 . S
C4860 C4862 1.381 . S
C4860 C4866 1.383 . S
C4861 C4857 1.495 . S
C4861 H4867 0.959 . S
C4861 H4868 0.961 . S
C4861 H4869 0.960 . S
C4862 C4860 1.381 . S
C4862 C4863 1.394 . S
C4862 H4870 0.930 . S
C4863 C4862 1.394 . S
C4863 C4864 1.383 . S
C4863 H4871 0.929 . S
C4864 C4863 1.383 . S
C4864 C4865 1.377 . S
C4865 H4849 0.930 . S
C4865 C4864 1.377 . S
C4865 C4866 1.379 . S
C4866 H4850 0.931 . S
C4866 C4860 1.383 . S
C4866 C4865 1.379 . S
H4867 C4861 0.959 . S
H4868 C4861 0.961 . S
H4869 C4861 0.960 . S
H4870 C4862 0.930 . S
H4871 C4863 0.929 . S
H4872 C4880 0.929 . S
H4873 C4882 0.930 . S
H4874 C4884 0.930 . S
H4875 C4887 0.929 . S
H4876 C4890 0.930 . S
H4877 C4892 0.960 . S
H4878 C4892 0.960 . S
H4879 C4892 0.960 . S
C4880 H4872 0.929 . S
C4880 C4881 1.377 . S
C4880 C4882 1.384 . S
C4881 C4880 1.377 . S
C4881 C4887 1.390 . S
C4882 H4873 0.930 . S
C4882 C4880 1.384 . S
C4882 C4883 1.372 . S
C4883 C4882 1.372 . S
C4883 C4884 1.400 . S
C4883 C4888 1.490 . S
C4884 H4874 0.930 . S
C4884 C4883 1.400 . S
C4884 C4887 1.386 . S
H4885 C4901 0.930 . S
H4886 C4902 0.931 . S
C4887 H4875 0.929 . S
C4887 C4881 1.390 . S
C4887 C4884 1.386 . S
C4888 C4883 1.490 . S
C4888 C4890 1.395 . S
C4888 C4891 1.403 . S
H4889 C4895 0.930 . S
C4890 H4876 0.930 . S
C4890 C4888 1.395 . S
C4890 C4893 1.403 . S
C4891 C4888 1.403 . S
C4891 C4892 1.524 . S
C4891 C4895 1.400 . S
C4892 H4877 0.960 . S
C4892 H4878 0.960 . S
C4892 H4879 0.960 . S
C4892 C4891 1.524 . S
C4893 C4890 1.403 . S
C4893 C4894 1.392 . S
C4893 C4897 1.495 . S
C4894 C4893 1.392 . S
C4894 C4895 1.385 . S
C4894 C4896 1.478 . S
C4895 H4889 0.930 . S
C4895 C4891 1.400 . S
C4895 C4894 1.385 . S
C4896 C4894 1.478 . S
C4896 C4898 1.381 . S
C4896 C4902 1.383 . S
C4897 C4893 1.495 . S
C4897 H4903 0.959 . S
C4897 H4904 0.961 . S
C4897 H4905 0.960 . S
C4898 C4896 1.381 . S
C4898 C4899 1.394 . S
C4898 H4906 0.930 . S
C4899 C4898 1.394 . S
C4899 C4900 1.383 . S
C4899 H4907 0.929 . S
C4900 C4899 1.383 . S
C4900 C4901 1.377 . S
C4901 H4885 0.930 . S
C4901 C4900 1.377 . S
C4901 C4902 1.379 . S
C4902 H4886 0.931 . S
C4902 C4896 1.383 . S
C4902 C4901 1.379 . S
H4903 C4897 0.959 . S
H4904 C4897 0.961 . S
H4905 C4897 0.960 . S
H4906 C4898 0.930 . S
H4907 C4899 0.929 . S
H4908 C4916 0.929 . S
H4909 C4918 0.930 . S
H4910 C4920 0.930 . S
H4911 C4923 0.929 . S
H4912 C4926 0.930 . S
H4913 C4928 0.960 . S
H4914 C4928 0.960 . S
H4915 C4928 0.960 . S
C4916 H4908 0.929 . S
C4916 C4917 1.377 . S
C4916 C4918 1.384 . S
C4917 C4916 1.377 . S
C4917 C4923 1.390 . S
C4918 H4909 0.930 . S
C4918 C4916 1.384 . S
C4918 C4919 1.372 . S
C4919 C4918 1.372 . S
C4919 C4920 1.400 . S
C4919 C4924 1.490 . S
C4920 H4910 0.930 . S
C4920 C4919 1.400 . S
C4920 C4923 1.386 . S
H4921 C4937 0.930 . S
H4922 C4938 0.931 . S
C4923 H4911 0.929 . S
C4923 C4917 1.390 . S
C4923 C4920 1.386 . S
C4924 C4919 1.490 . S
C4924 C4926 1.395 . S
C4924 C4927 1.403 . S
H4925 C4931 0.930 . S
C4926 H4912 0.930 . S
C4926 C4924 1.395 . S
C4926 C4929 1.403 . S
C4927 C4924 1.403 . S
C4927 C4928 1.524 . S
C4927 C4931 1.400 . S
C4928 H4913 0.960 . S
C4928 H4914 0.960 . S
C4928 H4915 0.960 . S
C4928 C4927 1.524 . S
C4929 C4926 1.403 . S
C4929 C4930 1.392 . S
C4929 C4933 1.495 . S
C4930 C4929 1.392 . S
C4930 C4931 1.385 . S
C4930 C4932 1.478 . S
C4931 H4925 0.930 . S
C4931 C4927 1.400 . S
C4931 C4930 1.385 . S
C4932 C4930 1.478 . S
C4932 C4934 1.381 . S
C4932 C4938 1.383 . S
C4933 C4929 1.495 . S
C4933 H4939 0.959 . S
C4933 H4940 0.961 . S
C4933 H4941 0.960 . S
C4934 C4932 1.381 . S
C4934 C4935 1.394 . S
C4934 H4942 0.930 . S
C4935 C4934 1.394 . S
C4935 C4936 1.383 . S
C4935 H4943 0.929 . S
C4936 C4935 1.383 . S
C4936 C4937 1.377 . S
C4937 H4921 0.930 . S
C4937 C4936 1.377 . S
C4937 C4938 1.379 . S
C4938 H4922 0.931 . S
C4938 C4932 1.383 . S
C4938 C4937 1.379 . S
H4939 C4933 0.959 . S
H4940 C4933 0.961 . S
H4941 C4933 0.960 . S
H4942 C4934 0.930 . S
H4943 C4935 0.929 . S
H4944 C4952 0.929 . S
H4945 C4954 0.930 . S
H4946 C4956 0.930 . S
H4947 C4959 0.929 . S
H4948 C4962 0.930 . S
H4949 C4964 0.960 . S
H4950 C4964 0.960 . S
H4951 C4964 0.960 . S
C4952 H4944 0.929 . S
C4952 C4953 1.377 . S
C4952 C4954 1.384 . S
C4953 C4952 1.377 . S
C4953 C4959 1.390 . S
C4954 H4945 0.930 . S
C4954 C4952 1.384 . S
C4954 C4955 1.372 . S
C4955 C4954 1.372 . S
C4955 C4956 1.400 . S
C4955 C4960 1.490 . S
C4956 H4946 0.930 . S
C4956 C4955 1.400 . S
C4956 C4959 1.386 . S
H4957 C4973 0.930 . S
H4958 C4974 0.931 . S
C4959 H4947 0.929 . S
C4959 C4953 1.390 . S
C4959 C4956 1.386 . S
C4960 C4955 1.490 . S
C4960 C4962 1.395 . S
C4960 C4963 1.403 . S
H4961 C4967 0.930 . S
C4962 H4948 0.930 . S
C4962 C4960 1.395 . S
C4962 C4965 1.403 . S
C4963 C4960 1.403 . S
C4963 C4964 1.524 . S
C4963 C4967 1.400 . S
C4964 H4949 0.960 . S
C4964 H4950 0.960 . S
C4964 H4951 0.960 . S
C4964 C4963 1.524 . S
C4965 C4962 1.403 . S
C4965 C4966 1.392 . S
C4965 C4969 1.495 . S
C4966 C4965 1.392 . S
C4966 C4967 1.385 . S
C4966 C4968 1.478 . S
C4967 H4961 0.930 . S
C4967 C4963 1.400 . S
C4967 C4966 1.385 . S
C4968 C4966 1.478 . S
C4968 C4970 1.381 . S
C4968 C4974 1.383 . S
C4969 C4965 1.495 . S
C4969 H4975 0.959 . S
C4969 H4976 0.961 . S
C4969 H4977 0.960 . S
C4970 C4968 1.381 . S
C4970 C4971 1.394 . S
C4970 H4978 0.930 . S
C4971 C4970 1.394 . S
C4971 C4972 1.383 . S
C4971 H4979 0.929 . S
C4972 C4971 1.383 . S
C4972 C4973 1.377 . S
C4973 H4957 0.930 . S
C4973 C4972 1.377 . S
C4973 C4974 1.379 . S
C4974 H4958 0.931 . S
C4974 C4968 1.383 . S
C4974 C4973 1.379 . S
H4975 C4969 0.959 . S
H4976 C4969 0.961 . S
H4977 C4969 0.960 . S
H4978 C4970 0.930 . S
H4979 C4971 0.929 . S
H4980 C4988 0.929 . S
H4981 C4990 0.930 . S
H4982 C4992 0.930 . S
H4983 C4995 0.929 . S
H4984 C4998 0.930 . S
H4985 C5000 0.960 . S
H4986 C5000 0.960 . S
H4987 C5000 0.960 . S
C4988 H4980 0.929 . S
C4988 C4989 1.377 . S
C4988 C4990 1.384 . S
C4989 C4988 1.377 . S
C4989 C4995 1.390 . S
C4990 H4981 0.930 . S
C4990 C4988 1.384 . S
C4990 C4991 1.372 . S
C4991 C4990 1.372 . S
C4991 C4992 1.400 . S
C4991 C4996 1.490 . S
C4992 H4982 0.930 . S
C4992 C4991 1.400 . S
C4992 C4995 1.386 . S
H4993 C5009 0.930 . S
H4994 C5010 0.931 . S
C4995 H4983 0.929 . S
C4995 C4989 1.390 . S
C4995 C4992 1.386 . S
C4996 C4991 1.490 . S
C4996 C4998 1.395 . S
C4996 C4999 1.403 . S
H4997 C5003 0.930 . S
C4998 H4984 0.930 . S
C4998 C4996 1.395 . S
C4998 C5001 1.403 . S
C4999 C4996 1.403 . S
C4999 C5000 1.524 . S
C4999 C5003 1.400 . S
C5000 H4985 0.960 . S
C5000 H4986 0.960 . S
C5000 H4987 0.960 . S
C5000 C4999 1.524 . S
C5001 C4998 1.403 . S
C5001 C5002 1.392 . S
C5001 C5005 1.495 . S
C5002 C5001 1.392 . S
C5002 C5003 1.385 . S
C5002 C5004 1.478 . S
C5003 H4997 0.930 . S
C5003 C4999 1.400 . S
C5003 C5002 1.385 . S
C5004 C5002 1.478 . S
C5004 C5006 1.381 . S
C5004 C5010 1.383 . S
C5005 C5001 1.495 . S
C5005 H5011 0.959 . S
C5005 H5012 0.961 . S
C5005 H5013 0.960 . S
C5006 C5004 1.381 . S
C5006 C5007 1.394 . S
C5006 H5014 0.930 . S
C5007 C5006 1.394 . S
C5007 C5008 1.383 . S
C5007 H5015 0.929 . S
C5008 C5007 1.383 . S
C5008 C5009 1.377 . S
C5009 H4993 0.930 . S
C5009 C5008 1.377 . S
C5009 C5010 1.379 . S
C5010 H4994 0.931 . S
C5010 C5004 1.383 . S
C5010 C5009 1.379 . S
H5011 C5005 0.959 . S
H5012 C5005 0.961 . S
H5013 C5005 0.960 . S
H5014 C5006 0.930 . S
H5015 C5007 0.929 . S
H5016 C5024 0.929 . S
H5017 C5026 0.930 . S
H5018 C5028 0.930 . S
H5019 C5031 0.929 . S
H5020 C5034 0.930 . S
H5021 C5036 0.960 . S
H5022 C5036 0.960 . S
H5023 C5036 0.960 . S
C5024 H5016 0.929 . S
C5024 C5025 1.377 . S
C5024 C5026 1.384 . S
C5025 C5024 1.377 . S
C5025 C5031 1.390 . S
C5026 H5017 0.930 . S
C5026 C5024 1.384 . S
C5026 C5027 1.372 . S
C5027 C5026 1.372 . S
C5027 C5028 1.400 . S
C5027 C5032 1.490 . S
C5028 H5018 0.930 . S
C5028 C5027 1.400 . S
C5028 C5031 1.386 . S
H5029 C5045 0.930 . S
H5030 C5046 0.931 . S
C5031 H5019 0.929 . S
C5031 C5025 1.390 . S
C5031 C5028 1.386 . S
C5032 C5027 1.490 . S
C5032 C5034 1.395 . S
C5032 C5035 1.403 . S
H5033 C5039 0.930 . S
C5034 H5020 0.930 . S
C5034 C5032 1.395 . S
C5034 C5037 1.403 . S
C5035 C5032 1.403 . S
C5035 C5036 1.524 . S
C5035 C5039 1.400 . S
C5036 H5021 0.960 . S
C5036 H5022 0.960 . S
C5036 H5023 0.960 . S
C5036 C5035 1.524 . S
C5037 C5034 1.403 . S
C5037 C5038 1.392 . S
C5037 C5041 1.495 . S
C5038 C5037 1.392 . S
C5038 C5039 1.385 . S
C5038 C5040 1.478 . S
C5039 H5033 0.930 . S
C5039 C5035 1.400 . S
C5039 C5038 1.385 . S
C5040 C5038 1.478 . S
C5040 C5042 1.381 . S
C5040 C5046 1.383 . S
C5041 C5037 1.495 . S
C5041 H5047 0.959 . S
C5041 H5048 0.961 . S
C5041 H5049 0.960 . S
C5042 C5040 1.381 . S
C5042 C5043 1.394 . S
C5042 H5050 0.930 . S
C5043 C5042 1.394 . S
C5043 C5044 1.383 . S
C5043 H5051 0.929 . S
C5044 C5043 1.383 . S
C5044 C5045 1.377 . S
C5045 H5029 0.930 . S
C5045 C5044 1.377 . S
C5045 C5046 1.379 . S
C5046 H5030 0.931 . S
C5046 C5040 1.383 . S
C5046 C5045 1.379 . S
H5047 C5041 0.959 . S
H5048 C5041 0.961 . S
H5049 C5041 0.960 . S
H5050 C5042 0.930 . S
H5051 C5043 0.929 . S
H5052 C5060 0.929 . S
H5053 C5062 0.930 . S
H5054 C5064 0.930 . S
H5055 C5067 0.929 . S
H5056 C5070 0.930 . S
H5057 C5072 0.960 . S
H5058 C5072 0.960 . S
H5059 C5072 0.960 . S
C5060 H5052 0.929 . S
C5060 C5061 1.377 . S
C5060 C5062 1.384 . S
C5061 C5060 1.377 . S
C5061 C5067 1.390 . S
C5062 H5053 0.930 . S
C5062 C5060 1.384 . S
C5062 C5063 1.372 . S
C5063 C5062 1.372 . S
C5063 C5064 1.400 . S
C5063 C5068 1.490 . S
C5064 H5054 0.930 . S
C5064 C5063 1.400 . S
C5064 C5067 1.386 . S
H5065 C5081 0.930 . S
H5066 C5082 0.931 . S
C5067 H5055 0.929 . S
C5067 C5061 1.390 . S
C5067 C5064 1.386 . S
C5068 C5063 1.490 . S
C5068 C5070 1.395 . S
C5068 C5071 1.403 . S
H5069 C5075 0.930 . S
C5070 H5056 0.930 . S
C5070 C5068 1.395 . S
C5070 C5073 1.403 . S
C5071 C5068 1.403 . S
C5071 C5072 1.524 . S
C5071 C5075 1.400 . S
C5072 H5057 0.960 . S
C5072 H5058 0.960 . S
C5072 H5059 0.960 . S
C5072 C5071 1.524 . S
C5073 C5070 1.403 . S
C5073 C5074 1.392 . S
C5073 C5077 1.495 . S
C5074 C5073 1.392 . S
C5074 C5075 1.385 . S
C5074 C5076 1.478 . S
C5075 H5069 0.930 . S
C5075 C5071 1.400 . S
C5075 C5074 1.385 . S
C5076 C5074 1.478 . S
C5076 C5078 1.381 . S
C5076 C5082 1.383 . S
C5077 C5073 1.495 . S
C5077 H5083 0.959 . S
C5077 H5084 0.961 . S
C5077 H5085 0.960 . S
C5078 C5076 1.381 . S
C5078 C5079 1.394 . S
C5078 H5086 0.930 . S
C5079 C5078 1.394 . S
C5079 C5080 1.383 . S
C5079 H5087 0.929 . S
C5080 C5079 1.383 . S
C5080 C5081 1.377 . S
C5081 H5065 0.930 . S
C5081 C5080 1.377 . S
C5081 C5082 1.379 . S
C5082 H5066 0.931 . S
C5082 C5076 1.383 . S
C5082 C5081 1.379 . S
H5083 C5077 0.959 . S
H5084 C5077 0.961 . S
H5085 C5077 0.960 . S
H5086 C5078 0.930 . S
H5087 C5079 0.929 . S
H5088 C5096 0.929 . S
H5089 C5098 0.930 . S
H5090 C5100 0.930 . S
H5091 C5103 0.929 . S
H5092 C5106 0.930 . S
H5093 C5108 0.960 . S
H5094 C5108 0.960 . S
H5095 C5108 0.960 . S
C5096 H5088 0.929 . S
C5096 C5097 1.377 . S
C5096 C5098 1.384 . S
C5097 C5096 1.377 . S
C5097 C5103 1.390 . S
C5098 H5089 0.930 . S
C5098 C5096 1.384 . S
C5098 C5099 1.372 . S
C5099 C5098 1.372 . S
C5099 C5100 1.400 . S
C5099 C5104 1.490 . S
C5100 H5090 0.930 . S
C5100 C5099 1.400 . S
C5100 C5103 1.386 . S
H5101 C5117 0.930 . S
H5102 C5118 0.931 . S
C5103 H5091 0.929 . S
C5103 C5097 1.390 . S
C5103 C5100 1.386 . S
C5104 C5099 1.490 . S
C5104 C5106 1.395 . S
C5104 C5107 1.403 . S
H5105 C5111 0.930 . S
C5106 H5092 0.930 . S
C5106 C5104 1.395 . S
C5106 C5109 1.403 . S
C5107 C5104 1.403 . S
C5107 C5108 1.524 . S
C5107 C5111 1.400 . S
C5108 H5093 0.960 . S
C5108 H5094 0.960 . S
C5108 H5095 0.960 . S
C5108 C5107 1.524 . S
C5109 C5106 1.403 . S
C5109 C5110 1.392 . S
C5109 C5113 1.495 . S
C5110 C5109 1.392 . S
C5110 C5111 1.385 . S
C5110 C5112 1.478 . S
C5111 H5105 0.930 . S
C5111 C5107 1.400 . S
C5111 C5110 1.385 . S
C5112 C5110 1.478 . S
C5112 C5114 1.381 . S
C5112 C5118 1.383 . S
C5113 C5109 1.495 . S
C5113 H5119 0.959 . S
C5113 H5120 0.961 . S
C5113 H5121 0.960 . S
C5114 C5112 1.381 . S
C5114 C5115 1.394 . S
C5114 H5122 0.930 . S
C5115 C5114 1.394 . S
C5115 C5116 1.383 . S
C5115 H5123 0.929 . S
C5116 C5115 1.383 . S
C5116 C5117 1.377 . S
C5117 H5101 0.930 . S
C5117 C5116 1.377 . S
C5117 C5118 1.379 . S
C5118 H5102 0.931 . S
C5118 C5112 1.383 . S
C5118 C5117 1.379 . S
H5119 C5113 0.959 . S
H5120 C5113 0.961 . S
H5121 C5113 0.960 . S
H5122 C5114 0.930 . S
H5123 C5115 0.929 . S
H5124 C5132 0.929 . S
H5125 C5134 0.930 . S
H5126 C5136 0.930 . S
H5127 C5139 0.929 . S
H5128 C5142 0.930 . S
H5129 C5144 0.960 . S
H5130 C5144 0.960 . S
H5131 C5144 0.960 . S
C5132 H5124 0.929 . S
C5132 C5133 1.377 . S
C5132 C5134 1.384 . S
C5133 C5132 1.377 . S
C5133 C5139 1.390 . S
C5134 H5125 0.930 . S
C5134 C5132 1.384 . S
C5134 C5135 1.372 . S
C5135 C5134 1.372 . S
C5135 C5136 1.400 . S
C5135 C5140 1.490 . S
C5136 H5126 0.930 . S
C5136 C5135 1.400 . S
C5136 C5139 1.386 . S
H5137 C5153 0.930 . S
H5138 C5154 0.931 . S
C5139 H5127 0.929 . S
C5139 C5133 1.390 . S
C5139 C5136 1.386 . S
C5140 C5135 1.490 . S
C5140 C5142 1.395 . S
C5140 C5143 1.403 . S
H5141 C5147 0.930 . S
C5142 H5128 0.930 . S
C5142 C5140 1.395 . S
C5142 C5145 1.403 . S
C5143 C5140 1.403 . S
C5143 C5144 1.524 . S
C5143 C5147 1.400 . S
C5144 H5129 0.960 . S
C5144 H5130 0.960 . S
C5144 H5131 0.960 . S
C5144 C5143 1.524 . S
C5145 C5142 1.403 . S
C5145 C5146 1.392 . S
C5145 C5149 1.495 . S
C5146 C5145 1.392 . S
C5146 C5147 1.385 . S
C5146 C5148 1.478 . S
C5147 H5141 0.930 . S
C5147 C5143 1.400 . S
C5147 C5146 1.385 . S
C5148 C5146 1.478 . S
C5148 C5150 1.381 . S
C5148 C5154 1.383 . S
C5149 C5145 1.495 . S
C5149 H5155 0.959 . S
C5149 H5156 0.961 . S
C5149 H5157 0.960 . S
C5150 C5148 1.381 . S
C5150 C5151 1.394 . S
C5150 H5158 0.930 . S
C5151 C5150 1.394 . S
C5151 C5152 1.383 . S
C5151 H5159 0.929 . S
C5152 C5151 1.383 . S
C5152 C5153 1.377 . S
C5153 H5137 0.930 . S
C5153 C5152 1.377 . S
C5153 C5154 1.379 . S
C5154 H5138 0.931 . S
C5154 C5148 1.383 . S
C5154 C5153 1.379 . S
H5155 C5149 0.959 . S
H5156 C5149 0.961 . S
H5157 C5149 0.960 . S
H5158 C5150 0.930 . S
H5159 C5151 0.929 . S
H5160 C5168 0.929 . S
H5161 C5170 0.930 . S
H5162 C5172 0.930 . S
H5163 C5175 0.929 . S
H5164 C5178 0.930 . S
H5165 C5180 0.960 . S
H5166 C5180 0.960 . S
H5167 C5180 0.960 . S
C5168 H5160 0.929 . S
C5168 C5169 1.377 . S
C5168 C5170 1.384 . S
C5169 C5168 1.377 . S
C5169 C5175 1.390 . S
C5170 H5161 0.930 . S
C5170 C5168 1.384 . S
C5170 C5171 1.372 . S
C5171 C5170 1.372 . S
C5171 C5172 1.400 . S
C5171 C5176 1.490 . S
C5172 H5162 0.930 . S
C5172 C5171 1.400 . S
C5172 C5175 1.386 . S
H5173 C5189 0.930 . S
H5174 C5190 0.931 . S
C5175 H5163 0.929 . S
C5175 C5169 1.390 . S
C5175 C5172 1.386 . S
C5176 C5171 1.490 . S
C5176 C5178 1.395 . S
C5176 C5179 1.403 . S
H5177 C5183 0.930 . S
C5178 H5164 0.930 . S
C5178 C5176 1.395 . S
C5178 C5181 1.403 . S
C5179 C5176 1.403 . S
C5179 C5180 1.524 . S
C5179 C5183 1.400 . S
C5180 H5165 0.960 . S
C5180 H5166 0.960 . S
C5180 H5167 0.960 . S
C5180 C5179 1.524 . S
C5181 C5178 1.403 . S
C5181 C5182 1.392 . S
C5181 C5185 1.495 . S
C5182 C5181 1.392 . S
C5182 C5183 1.385 . S
C5182 C5184 1.478 . S
C5183 H5177 0.930 . S
C5183 C5179 1.400 . S
C5183 C5182 1.385 . S
C5184 C5182 1.478 . S
C5184 C5186 1.381 . S
C5184 C5190 1.383 . S
C5185 C5181 1.495 . S
C5185 H5191 0.959 . S
C5185 H5192 0.961 . S
C5185 H5193 0.960 . S
C5186 C5184 1.381 . S
C5186 C5187 1.394 . S
C5186 H5194 0.930 . S
C5187 C5186 1.394 . S
C5187 C5188 1.383 . S
C5187 H5195 0.929 . S
C5188 C5187 1.383 . S
C5188 C5189 1.377 . S
C5189 H5173 0.930 . S
C5189 C5188 1.377 . S
C5189 C5190 1.379 . S
C5190 H5174 0.931 . S
C5190 C5184 1.383 . S
C5190 C5189 1.379 . S
H5191 C5185 0.959 . S
H5192 C5185 0.961 . S
H5193 C5185 0.960 . S
H5194 C5186 0.930 . S
H5195 C5187 0.929 . S
H5196 C5204 0.929 . S
H5197 C5206 0.930 . S
H5198 C5208 0.930 . S
H5199 C5211 0.929 . S
H5200 C5214 0.930 . S
H5201 C5216 0.960 . S
H5202 C5216 0.960 . S
H5203 C5216 0.960 . S
C5204 H5196 0.929 . S
C5204 C5205 1.377 . S
C5204 C5206 1.384 . S
C5205 C5204 1.377 . S
C5205 C5211 1.390 . S
C5206 H5197 0.930 . S
C5206 C5204 1.384 . S
C5206 C5207 1.372 . S
C5207 C5206 1.372 . S
C5207 C5208 1.400 . S
C5207 C5212 1.490 . S
C5208 H5198 0.930 . S
C5208 C5207 1.400 . S
C5208 C5211 1.386 . S
H5209 C5225 0.930 . S
H5210 C5226 0.931 . S
C5211 H5199 0.929 . S
C5211 C5205 1.390 . S
C5211 C5208 1.386 . S
C5212 C5207 1.490 . S
C5212 C5214 1.395 . S
C5212 C5215 1.403 . S
H5213 C5219 0.930 . S
C5214 H5200 0.930 . S
C5214 C5212 1.395 . S
C5214 C5217 1.403 . S
C5215 C5212 1.403 . S
C5215 C5216 1.524 . S
C5215 C5219 1.400 . S
C5216 H5201 0.960 . S
C5216 H5202 0.960 . S
C5216 H5203 0.960 . S
C5216 C5215 1.524 . S
C5217 C5214 1.403 . S
C5217 C5218 1.392 . S
C5217 C5221 1.495 . S
C5218 C5217 1.392 . S
C5218 C5219 1.385 . S
C5218 C5220 1.478 . S
C5219 H5213 0.930 . S
C5219 C5215 1.400 . S
C5219 C5218 1.385 . S
C5220 C5218 1.478 . S
C5220 C5222 1.381 . S
C5220 C5226 1.383 . S
C5221 C5217 1.495 . S
C5221 H5227 0.959 . S
C5221 H5228 0.961 . S
C5221 H5229 0.960 . S
C5222 C5220 1.381 . S
C5222 C5223 1.394 . S
C5222 H5230 0.930 . S
C5223 C5222 1.394 . S
C5223 C5224 1.383 . S
C5223 H5231 0.929 . S
C5224 C5223 1.383 . S
C5224 C5225 1.377 . S
C5225 H5209 0.930 . S
C5225 C5224 1.377 . S
C5225 C5226 1.379 . S
C5226 H5210 0.931 . S
C5226 C5220 1.383 . S
C5226 C5225 1.379 . S
H5227 C5221 0.959 . S
H5228 C5221 0.961 . S
H5229 C5221 0.960 . S
H5230 C5222 0.930 . S
H5231 C5223 0.929 . S
H5232 C5240 0.929 . S
H5233 C5242 0.930 . S
H5234 C5244 0.930 . S
H5235 C5247 0.929 . S
H5236 C5250 0.930 . S
H5237 C5252 0.960 . S
H5238 C5252 0.960 . S
H5239 C5252 0.960 . S
C5240 H5232 0.929 . S
C5240 C5241 1.377 . S
C5240 C5242 1.384 . S
C5241 C5240 1.377 . S
C5241 C5247 1.390 . S
C5242 H5233 0.930 . S
C5242 C5240 1.384 . S
C5242 C5243 1.372 . S
C5243 C5242 1.372 . S
C5243 C5244 1.400 . S
C5243 C5248 1.490 . S
C5244 H5234 0.930 . S
C5244 C5243 1.400 . S
C5244 C5247 1.386 . S
H5245 C5261 0.930 . S
H5246 C5262 0.931 . S
C5247 H5235 0.929 . S
C5247 C5241 1.390 . S
C5247 C5244 1.386 . S
C5248 C5243 1.490 . S
C5248 C5250 1.395 . S
C5248 C5251 1.403 . S
H5249 C5255 0.930 . S
C5250 H5236 0.930 . S
C5250 C5248 1.395 . S
C5250 C5253 1.403 . S
C5251 C5248 1.403 . S
C5251 C5252 1.524 . S
C5251 C5255 1.400 . S
C5252 H5237 0.960 . S
C5252 H5238 0.960 . S
C5252 H5239 0.960 . S
C5252 C5251 1.524 . S
C5253 C5250 1.403 . S
C5253 C5254 1.392 . S
C5253 C5257 1.495 . S
C5254 C5253 1.392 . S
C5254 C5255 1.385 . S
C5254 C5256 1.478 . S
C5255 H5249 0.930 . S
C5255 C5251 1.400 . S
C5255 C5254 1.385 . S
C5256 C5254 1.478 . S
C5256 C5258 1.381 . S
C5256 C5262 1.383 . S
C5257 C5253 1.495 . S
C5257 H5263 0.959 . S
C5257 H5264 0.961 . S
C5257 H5265 0.960 . S
C5258 C5256 1.381 . S
C5258 C5259 1.394 . S
C5258 H5266 0.930 . S
C5259 C5258 1.394 . S
C5259 C5260 1.383 . S
C5259 H5267 0.929 . S
C5260 C5259 1.383 . S
C5260 C5261 1.377 . S
C5261 H5245 0.930 . S
C5261 C5260 1.377 . S
C5261 C5262 1.379 . S
C5262 H5246 0.931 . S
C5262 C5256 1.383 . S
C5262 C5261 1.379 . S
H5263 C5257 0.959 . S
H5264 C5257 0.961 . S
H5265 C5257 0.960 . S
H5266 C5258 0.930 . S
H5267 C5259 0.929 . S
H5268 C5276 0.929 . S
H5269 C5278 0.930 . S
H5270 C5280 0.930 . S
H5271 C5283 0.929 . S
H5272 C5286 0.930 . S
H5273 C5288 0.960 . S
H5274 C5288 0.960 . S
H5275 C5288 0.960 . S
C5276 H5268 0.929 . S
C5276 C5277 1.377 . S
C5276 C5278 1.384 . S
C5277 C5276 1.377 . S
C5277 C5283 1.390 . S
C5278 H5269 0.930 . S
C5278 C5276 1.384 . S
C5278 C5279 1.372 . S
C5279 C5278 1.372 . S
C5279 C5280 1.400 . S
C5279 C5284 1.490 . S
C5280 H5270 0.930 . S
C5280 C5279 1.400 . S
C5280 C5283 1.386 . S
H5281 C5297 0.930 . S
H5282 C5298 0.931 . S
C5283 H5271 0.929 . S
C5283 C5277 1.390 . S
C5283 C5280 1.386 . S
C5284 C5279 1.490 . S
C5284 C5286 1.395 . S
C5284 C5287 1.403 . S
H5285 C5291 0.930 . S
C5286 H5272 0.930 . S
C5286 C5284 1.395 . S
C5286 C5289 1.403 . S
C5287 C5284 1.403 . S
C5287 C5288 1.524 . S
C5287 C5291 1.400 . S
C5288 H5273 0.960 . S
C5288 H5274 0.960 . S
C5288 H5275 0.960 . S
C5288 C5287 1.524 . S
C5289 C5286 1.403 . S
C5289 C5290 1.392 . S
C5289 C5293 1.495 . S
C5290 C5289 1.392 . S
C5290 C5291 1.385 . S
C5290 C5292 1.478 . S
C5291 H5285 0.930 . S
C5291 C5287 1.400 . S
C5291 C5290 1.385 . S
C5292 C5290 1.478 . S
C5292 C5294 1.381 . S
C5292 C5298 1.383 . S
C5293 C5289 1.495 . S
C5293 H5299 0.959 . S
C5293 H5300 0.961 . S
C5293 H5301 0.960 . S
C5294 C5292 1.381 . S
C5294 C5295 1.394 . S
C5294 H5302 0.930 . S
C5295 C5294 1.394 . S
C5295 C5296 1.383 . S
C5295 H5303 0.929 . S
C5296 C5295 1.383 . S
C5296 C5297 1.377 . S
C5297 H5281 0.930 . S
C5297 C5296 1.377 . S
C5297 C5298 1.379 . S
C5298 H5282 0.931 . S
C5298 C5292 1.383 . S
C5298 C5297 1.379 . S
H5299 C5293 0.959 . S
H5300 C5293 0.961 . S
H5301 C5293 0.960 . S
H5302 C5294 0.930 . S
H5303 C5295 0.929 . S
H5304 C5312 0.929 . S
H5305 C5314 0.930 . S
H5306 C5316 0.930 . S
H5307 C5319 0.929 . S
H5308 C5322 0.930 . S
H5309 C5324 0.960 . S
H5310 C5324 0.960 . S
H5311 C5324 0.960 . S
C5312 H5304 0.929 . S
C5312 C5313 1.377 . S
C5312 C5314 1.384 . S
C5313 C5312 1.377 . S
C5313 C5319 1.390 . S
C5314 H5305 0.930 . S
C5314 C5312 1.384 . S
C5314 C5315 1.372 . S
C5315 C5314 1.372 . S
C5315 C5316 1.400 . S
C5315 C5320 1.490 . S
C5316 H5306 0.930 . S
C5316 C5315 1.400 . S
C5316 C5319 1.386 . S
H5317 C5333 0.930 . S
H5318 C5334 0.931 . S
C5319 H5307 0.929 . S
C5319 C5313 1.390 . S
C5319 C5316 1.386 . S
C5320 C5315 1.490 . S
C5320 C5322 1.395 . S
C5320 C5323 1.403 . S
H5321 C5327 0.930 . S
C5322 H5308 0.930 . S
C5322 C5320 1.395 . S
C5322 C5325 1.403 . S
C5323 C5320 1.403 . S
C5323 C5324 1.524 . S
C5323 C5327 1.400 . S
C5324 H5309 0.960 . S
C5324 H5310 0.960 . S
C5324 H5311 0.960 . S
C5324 C5323 1.524 . S
C5325 C5322 1.403 . S
C5325 C5326 1.392 . S
C5325 C5329 1.495 . S
C5326 C5325 1.392 . S
C5326 C5327 1.385 . S
C5326 C5328 1.478 . S
C5327 H5321 0.930 . S
C5327 C5323 1.400 . S
C5327 C5326 1.385 . S
C5328 C5326 1.478 . S
C5328 C5330 1.381 . S
C5328 C5334 1.383 . S
C5329 C5325 1.495 . S
C5329 H5335 0.959 . S
C5329 H5336 0.961 . S
C5329 H5337 0.960 . S
C5330 C5328 1.381 . S
C5330 C5331 1.394 . S
C5330 H5338 0.930 . S
C5331 C5330 1.394 . S
C5331 C5332 1.383 . S
C5331 H5339 0.929 . S
C5332 C5331 1.383 . S
C5332 C5333 1.377 . S
C5333 H5317 0.930 . S
C5333 C5332 1.377 . S
C5333 C5334 1.379 . S
C5334 H5318 0.931 . S
C5334 C5328 1.383 . S
C5334 C5333 1.379 . S
H5335 C5329 0.959 . S
H5336 C5329 0.961 . S
H5337 C5329 0.960 . S
H5338 C5330 0.930 . S
H5339 C5331 0.929 . S
H5340 C5348 0.929 . S
H5341 C5350 0.930 . S
H5342 C5352 0.930 . S
H5343 C5355 0.929 . S
H5344 C5358 0.930 . S
H5345 C5360 0.960 . S
H5346 C5360 0.960 . S
H5347 C5360 0.960 . S
C5348 H5340 0.929 . S
C5348 C5349 1.377 . S
C5348 C5350 1.384 . S
C5349 C5348 1.377 . S
C5349 C5355 1.390 . S
C5350 H5341 0.930 . S
C5350 C5348 1.384 . S
C5350 C5351 1.372 . S
C5351 C5350 1.372 . S
C5351 C5352 1.400 . S
C5351 C5356 1.490 . S
C5352 H5342 0.930 . S
C5352 C5351 1.400 . S
C5352 C5355 1.386 . S
H5353 C5369 0.930 . S
H5354 C5370 0.931 . S
C5355 H5343 0.929 . S
C5355 C5349 1.390 . S
C5355 C5352 1.386 . S
C5356 C5351 1.490 . S
C5356 C5358 1.395 . S
C5356 C5359 1.403 . S
H5357 C5363 0.930 . S
C5358 H5344 0.930 . S
C5358 C5356 1.395 . S
C5358 C5361 1.403 . S
C5359 C5356 1.403 . S
C5359 C5360 1.524 . S
C5359 C5363 1.400 . S
C5360 H5345 0.960 . S
C5360 H5346 0.960 . S
C5360 H5347 0.960 . S
C5360 C5359 1.524 . S
C5361 C5358 1.403 . S
C5361 C5362 1.392 . S
C5361 C5365 1.495 . S
C5362 C5361 1.392 . S
C5362 C5363 1.385 . S
C5362 C5364 1.478 . S
C5363 H5357 0.930 . S
C5363 C5359 1.400 . S
C5363 C5362 1.385 . S
C5364 C5362 1.478 . S
C5364 C5366 1.381 . S
C5364 C5370 1.383 . S
C5365 C5361 1.495 . S
C5365 H5371 0.959 . S
C5365 H5372 0.961 . S
C5365 H5373 0.960 . S
C5366 C5364 1.381 . S
C5366 C5367 1.394 . S
C5366 H5374 0.930 . S
C5367 C5366 1.394 . S
C5367 C5368 1.383 . S
C5367 H5375 0.929 . S
C5368 C5367 1.383 . S
C5368 C5369 1.377 . S
C5369 H5353 0.930 . S
C5369 C5368 1.377 . S
C5369 C5370 1.379 . S
C5370 H5354 0.931 . S
C5370 C5364 1.383 . S
C5370 C5369 1.379 . S
H5371 C5365 0.959 . S
H5372 C5365 0.961 . S
H5373 C5365 0.960 . S
H5374 C5366 0.930 . S
H5375 C5367 0.929 . S
H5376 C5384 0.929 . S
H5377 C5386 0.930 . S
H5378 C5388 0.930 . S
H5379 C5391 0.929 . S
H5380 C5394 0.930 . S
H5381 C5396 0.960 . S
H5382 C5396 0.960 . S
H5383 C5396 0.960 . S
C5384 H5376 0.929 . S
C5384 C5385 1.377 . S
C5384 C5386 1.384 . S
C5385 C5384 1.377 . S
C5385 C5391 1.390 . S
C5386 H5377 0.930 . S
C5386 C5384 1.384 . S
C5386 C5387 1.372 . S
C5387 C5386 1.372 . S
C5387 C5388 1.400 . S
C5387 C5392 1.490 . S
C5388 H5378 0.930 . S
C5388 C5387 1.400 . S
C5388 C5391 1.386 . S
H5389 C5405 0.930 . S
H5390 C5406 0.931 . S
C5391 H5379 0.929 . S
C5391 C5385 1.390 . S
C5391 C5388 1.386 . S
C5392 C5387 1.490 . S
C5392 C5394 1.395 . S
C5392 C5395 1.403 . S
H5393 C5399 0.930 . S
C5394 H5380 0.930 . S
C5394 C5392 1.395 . S
C5394 C5397 1.403 . S
C5395 C5392 1.403 . S
C5395 C5396 1.524 . S
C5395 C5399 1.400 . S
C5396 H5381 0.960 . S
C5396 H5382 0.960 . S
C5396 H5383 0.960 . S
C5396 C5395 1.524 . S
C5397 C5394 1.403 . S
C5397 C5398 1.392 . S
C5397 C5401 1.495 . S
C5398 C5397 1.392 . S
C5398 C5399 1.385 . S
C5398 C5400 1.478 . S
C5399 H5393 0.930 . S
C5399 C5395 1.400 . S
C5399 C5398 1.385 . S
C5400 C5398 1.478 . S
C5400 C5402 1.381 . S
C5400 C5406 1.383 . S
C5401 C5397 1.495 . S
C5401 H5407 0.959 . S
C5401 H5408 0.961 . S
C5401 H5409 0.960 . S
C5402 C5400 1.381 . S
C5402 C5403 1.394 . S
C5402 H5410 0.930 . S
C5403 C5402 1.394 . S
C5403 C5404 1.383 . S
C5403 H5411 0.929 . S
C5404 C5403 1.383 . S
C5404 C5405 1.377 . S
C5405 H5389 0.930 . S
C5405 C5404 1.377 . S
C5405 C5406 1.379 . S
C5406 H5390 0.931 . S
C5406 C5400 1.383 . S
C5406 C5405 1.379 . S
H5407 C5401 0.959 . S
H5408 C5401 0.961 . S
H5409 C5401 0.960 . S
H5410 C5402 0.930 . S
H5411 C5403 0.929 . S
H5412 C5420 0.929 . S
H5413 C5422 0.930 . S
H5414 C5424 0.930 . S
H5415 C5427 0.929 . S
H5416 C5430 0.930 . S
H5417 C5432 0.960 . S
H5418 C5432 0.960 . S
H5419 C5432 0.960 . S
C5420 H5412 0.929 . S
C5420 C5421 1.377 . S
C5420 C5422 1.384 . S
C5421 C5420 1.377 . S
C5421 C5427 1.390 . S
C5422 H5413 0.930 . S
C5422 C5420 1.384 . S
C5422 C5423 1.372 . S
C5423 C5422 1.372 . S
C5423 C5424 1.400 . S
C5423 C5428 1.490 . S
C5424 H5414 0.930 . S
C5424 C5423 1.400 . S
C5424 C5427 1.386 . S
H5425 C5441 0.930 . S
H5426 C5442 0.931 . S
C5427 H5415 0.929 . S
C5427 C5421 1.390 . S
C5427 C5424 1.386 . S
C5428 C5423 1.490 . S
C5428 C5430 1.395 . S
C5428 C5431 1.403 . S
H5429 C5435 0.930 . S
C5430 H5416 0.930 . S
C5430 C5428 1.395 . S
C5430 C5433 1.403 . S
C5431 C5428 1.403 . S
C5431 C5432 1.524 . S
C5431 C5435 1.400 . S
C5432 H5417 0.960 . S
C5432 H5418 0.960 . S
C5432 H5419 0.960 . S
C5432 C5431 1.524 . S
C5433 C5430 1.403 . S
C5433 C5434 1.392 . S
C5433 C5437 1.495 . S
C5434 C5433 1.392 . S
C5434 C5435 1.385 . S
C5434 C5436 1.478 . S
C5435 H5429 0.930 . S
C5435 C5431 1.400 . S
C5435 C5434 1.385 . S
C5436 C5434 1.478 . S
C5436 C5438 1.381 . S
C5436 C5442 1.383 . S
C5437 C5433 1.495 . S
C5437 H5443 0.959 . S
C5437 H5444 0.961 . S
C5437 H5445 0.960 . S
C5438 C5436 1.381 . S
C5438 C5439 1.394 . S
C5438 H5446 0.930 . S
C5439 C5438 1.394 . S
C5439 C5440 1.383 . S
C5439 H5447 0.929 . S
C5440 C5439 1.383 . S
C5440 C5441 1.377 . S
C5441 H5425 0.930 . S
C5441 C5440 1.377 . S
C5441 C5442 1.379 . S
C5442 H5426 0.931 . S
C5442 C5436 1.383 . S
C5442 C5441 1.379 . S
H5443 C5437 0.959 . S
H5444 C5437 0.961 . S
H5445 C5437 0.960 . S
H5446 C5438 0.930 . S
H5447 C5439 0.929 . S
H5448 C5456 0.929 . S
H5449 C5458 0.930 . S
H5450 C5460 0.930 . S
H5451 C5463 0.929 . S
H5452 C5466 0.930 . S
H5453 C5468 0.960 . S
H5454 C5468 0.960 . S
H5455 C5468 0.960 . S
C5456 H5448 0.929 . S
C5456 C5457 1.377 . S
C5456 C5458 1.384 . S
C5457 C5456 1.377 . S
C5457 C5463 1.390 . S
C5458 H5449 0.930 . S
C5458 C5456 1.384 . S
C5458 C5459 1.372 . S
C5459 C5458 1.372 . S
C5459 C5460 1.400 . S
C5459 C5464 1.490 . S
C5460 H5450 0.930 . S
C5460 C5459 1.400 . S
C5460 C5463 1.386 . S
H5461 C5477 0.930 . S
H5462 C5478 0.931 . S
C5463 H5451 0.929 . S
C5463 C5457 1.390 . S
C5463 C5460 1.386 . S
C5464 C5459 1.490 . S
C5464 C5466 1.395 . S
C5464 C5467 1.403 . S
H5465 C5471 0.930 . S
C5466 H5452 0.930 . S
C5466 C5464 1.395 . S
C5466 C5469 1.403 . S
C5467 C5464 1.403 . S
C5467 C5468 1.524 . S
C5467 C5471 1.400 . S
C5468 H5453 0.960 . S
C5468 H5454 0.960 . S
C5468 H5455 0.960 . S
C5468 C5467 1.524 . S
C5469 C5466 1.403 . S
C5469 C5470 1.392 . S
C5469 C5473 1.495 . S
C5470 C5469 1.392 . S
C5470 C5471 1.385 . S
C5470 C5472 1.478 . S
C5471 H5465 0.930 . S
C5471 C5467 1.400 . S
C5471 C5470 1.385 . S
C5472 C5470 1.478 . S
C5472 C5474 1.381 . S
C5472 C5478 1.383 . S
C5473 C5469 1.495 . S
C5473 H5479 0.959 . S
C5473 H5480 0.961 . S
C5473 H5481 0.960 . S
C5474 C5472 1.381 . S
C5474 C5475 1.394 . S
C5474 H5482 0.930 . S
C5475 C5474 1.394 . S
C5475 C5476 1.383 . S
C5475 H5483 0.929 . S
C5476 C5475 1.383 . S
C5476 C5477 1.377 . S
C5477 H5461 0.930 . S
C5477 C5476 1.377 . S
C5477 C5478 1.379 . S
C5478 H5462 0.931 . S
C5478 C5472 1.383 . S
C5478 C5477 1.379 . S
H5479 C5473 0.959 . S
H5480 C5473 0.961 . S
H5481 C5473 0.960 . S
H5482 C5474 0.930 . S
H5483 C5475 0.929 . S
H5484 C5492 0.929 . S
H5485 C5494 0.930 . S
H5486 C5496 0.930 . S
H5487 C5499 0.929 . S
H5488 C5502 0.930 . S
H5489 C5504 0.960 . S
H5490 C5504 0.960 . S
H5491 C5504 0.960 . S
C5492 H5484 0.929 . S
C5492 C5493 1.377 . S
C5492 C5494 1.384 . S
C5493 C5492 1.377 . S
C5493 C5499 1.390 . S
C5494 H5485 0.930 . S
C5494 C5492 1.384 . S
C5494 C5495 1.372 . S
C5495 C5494 1.372 . S
C5495 C5496 1.400 . S
C5495 C5500 1.490 . S
C5496 H5486 0.930 . S
C5496 C5495 1.400 . S
C5496 C5499 1.386 . S
H5497 C5513 0.930 . S
H5498 C5514 0.931 . S
C5499 H5487 0.929 . S
C5499 C5493 1.390 . S
C5499 C5496 1.386 . S
C5500 C5495 1.490 . S
C5500 C5502 1.395 . S
C5500 C5503 1.403 . S
H5501 C5507 0.930 . S
C5502 H5488 0.930 . S
C5502 C5500 1.395 . S
C5502 C5505 1.403 . S
C5503 C5500 1.403 . S
C5503 C5504 1.524 . S
C5503 C5507 1.400 . S
C5504 H5489 0.960 . S
C5504 H5490 0.960 . S
C5504 H5491 0.960 . S
C5504 C5503 1.524 . S
C5505 C5502 1.403 . S
C5505 C5506 1.392 . S
C5505 C5509 1.495 . S
C5506 C5505 1.392 . S
C5506 C5507 1.385 . S
C5506 C5508 1.478 . S
C5507 H5501 0.930 . S
C5507 C5503 1.400 . S
C5507 C5506 1.385 . S
C5508 C5506 1.478 . S
C5508 C5510 1.381 . S
C5508 C5514 1.383 . S
C5509 C5505 1.495 . S
C5509 H5515 0.959 . S
C5509 H5516 0.961 . S
C5509 H5517 0.960 . S
C5510 C5508 1.381 . S
C5510 C5511 1.394 . S
C5510 H5518 0.930 . S
C5511 C5510 1.394 . S
C5511 C5512 1.383 . S
C5511 H5519 0.929 . S
C5512 C5511 1.383 . S
C5512 C5513 1.377 . S
C5513 H5497 0.930 . S
C5513 C5512 1.377 . S
C5513 C5514 1.379 . S
C5514 H5498 0.931 . S
C5514 C5508 1.383 . S
C5514 C5513 1.379 . S
H5515 C5509 0.959 . S
H5516 C5509 0.961 . S
H5517 C5509 0.960 . S
H5518 C5510 0.930 . S
H5519 C5511 0.929 . S
H5520 C5528 0.929 . S
H5521 C5530 0.930 . S
H5522 C5532 0.930 . S
H5523 C5535 0.929 . S
H5524 C5538 0.930 . S
H5525 C5540 0.960 . S
H5526 C5540 0.960 . S
H5527 C5540 0.960 . S
C5528 H5520 0.929 . S
C5528 C5529 1.377 . S
C5528 C5530 1.384 . S
C5529 C5528 1.377 . S
C5529 C5535 1.390 . S
C5530 H5521 0.930 . S
C5530 C5528 1.384 . S
C5530 C5531 1.372 . S
C5531 C5530 1.372 . S
C5531 C5532 1.400 . S
C5531 C5536 1.490 . S
C5532 H5522 0.930 . S
C5532 C5531 1.400 . S
C5532 C5535 1.386 . S
H5533 C5549 0.930 . S
H5534 C5550 0.931 . S
C5535 H5523 0.929 . S
C5535 C5529 1.390 . S
C5535 C5532 1.386 . S
C5536 C5531 1.490 . S
C5536 C5538 1.395 . S
C5536 C5539 1.403 . S
H5537 C5543 0.930 . S
C5538 H5524 0.930 . S
C5538 C5536 1.395 . S
C5538 C5541 1.403 . S
C5539 C5536 1.403 . S
C5539 C5540 1.524 . S
C5539 C5543 1.400 . S
C5540 H5525 0.960 . S
C5540 H5526 0.960 . S
C5540 H5527 0.960 . S
C5540 C5539 1.524 . S
C5541 C5538 1.403 . S
C5541 C5542 1.392 . S
C5541 C5545 1.495 . S
C5542 C5541 1.392 . S
C5542 C5543 1.385 . S
C5542 C5544 1.478 . S
C5543 H5537 0.930 . S
C5543 C5539 1.400 . S
C5543 C5542 1.385 . S
C5544 C5542 1.478 . S
C5544 C5546 1.381 . S
C5544 C5550 1.383 . S
C5545 C5541 1.495 . S
C5545 H5551 0.959 . S
C5545 H5552 0.961 . S
C5545 H5553 0.960 . S
C5546 C5544 1.381 . S
C5546 C5547 1.394 . S
C5546 H5554 0.930 . S
C5547 C5546 1.394 . S
C5547 C5548 1.383 . S
C5547 H5555 0.929 . S
C5548 C5547 1.383 . S
C5548 C5549 1.377 . S
C5549 H5533 0.930 . S
C5549 C5548 1.377 . S
C5549 C5550 1.379 . S
C5550 H5534 0.931 . S
C5550 C5544 1.383 . S
C5550 C5549 1.379 . S
H5551 C5545 0.959 . S
H5552 C5545 0.961 . S
H5553 C5545 0.960 . S
H5554 C5546 0.930 . S
H5555 C5547 0.929 . S
H5556 C5564 0.929 . S
H5557 C5566 0.930 . S
H5558 C5568 0.930 . S
H5559 C5571 0.929 . S
H5560 C5574 0.930 . S
H5561 C5576 0.960 . S
H5562 C5576 0.960 . S
H5563 C5576 0.960 . S
C5564 H5556 0.929 . S
C5564 C5565 1.377 . S
C5564 C5566 1.384 . S
C5565 C5564 1.377 . S
C5565 C5571 1.390 . S
C5566 H5557 0.930 . S
C5566 C5564 1.384 . S
C5566 C5567 1.372 . S
C5567 C5566 1.372 . S
C5567 C5568 1.400 . S
C5567 C5572 1.490 . S
C5568 H5558 0.930 . S
C5568 C5567 1.400 . S
C5568 C5571 1.386 . S
H5569 C5585 0.930 . S
H5570 C5586 0.931 . S
C5571 H5559 0.929 . S
C5571 C5565 1.390 . S
C5571 C5568 1.386 . S
C5572 C5567 1.490 . S
C5572 C5574 1.395 . S
C5572 C5575 1.403 . S
H5573 C5579 0.930 . S
C5574 H5560 0.930 . S
C5574 C5572 1.395 . S
C5574 C5577 1.403 . S
C5575 C5572 1.403 . S
C5575 C5576 1.524 . S
C5575 C5579 1.400 . S
C5576 H5561 0.960 . S
C5576 H5562 0.960 . S
C5576 H5563 0.960 . S
C5576 C5575 1.524 . S
C5577 C5574 1.403 . S
C5577 C5578 1.392 . S
C5577 C5581 1.495 . S
C5578 C5577 1.392 . S
C5578 C5579 1.385 . S
C5578 C5580 1.478 . S
C5579 H5573 0.930 . S
C5579 C5575 1.400 . S
C5579 C5578 1.385 . S
C5580 C5578 1.478 . S
C5580 C5582 1.381 . S
C5580 C5586 1.383 . S
C5581 C5577 1.495 . S
C5581 H5587 0.959 . S
C5581 H5588 0.961 . S
C5581 H5589 0.960 . S
C5582 C5580 1.381 . S
C5582 C5583 1.394 . S
C5582 H5590 0.930 . S
C5583 C5582 1.394 . S
C5583 C5584 1.383 . S
C5583 H5591 0.929 . S
C5584 C5583 1.383 . S
C5584 C5585 1.377 . S
C5585 H5569 0.930 . S
C5585 C5584 1.377 . S
C5585 C5586 1.379 . S
C5586 H5570 0.931 . S
C5586 C5580 1.383 . S
C5586 C5585 1.379 . S
H5587 C5581 0.959 . S
H5588 C5581 0.961 . S
H5589 C5581 0.960 . S
H5590 C5582 0.930 . S
H5591 C5583 0.929 . S
H5592 C5600 0.929 . S
H5593 C5602 0.930 . S
H5594 C5604 0.930 . S
H5595 C5607 0.929 . S
H5596 C5610 0.930 . S
H5597 C5612 0.960 . S
H5598 C5612 0.960 . S
H5599 C5612 0.960 . S
C5600 H5592 0.929 . S
C5600 C5601 1.377 . S
C5600 C5602 1.384 . S
C5601 C5600 1.377 . S
C5601 C5607 1.390 . S
C5602 H5593 0.930 . S
C5602 C5600 1.384 . S
C5602 C5603 1.372 . S
C5603 C5602 1.372 . S
C5603 C5604 1.400 . S
C5603 C5608 1.490 . S
C5604 H5594 0.930 . S
C5604 C5603 1.400 . S
C5604 C5607 1.386 . S
H5605 C5621 0.930 . S
H5606 C5622 0.931 . S
C5607 H5595 0.929 . S
C5607 C5601 1.390 . S
C5607 C5604 1.386 . S
C5608 C5603 1.490 . S
C5608 C5610 1.395 . S
C5608 C5611 1.403 . S
H5609 C5615 0.930 . S
C5610 H5596 0.930 . S
C5610 C5608 1.395 . S
C5610 C5613 1.403 . S
C5611 C5608 1.403 . S
C5611 C5612 1.524 . S
C5611 C5615 1.400 . S
C5612 H5597 0.960 . S
C5612 H5598 0.960 . S
C5612 H5599 0.960 . S
C5612 C5611 1.524 . S
C5613 C5610 1.403 . S
C5613 C5614 1.392 . S
C5613 C5617 1.495 . S
C5614 C5613 1.392 . S
C5614 C5615 1.385 . S
C5614 C5616 1.478 . S
C5615 H5609 0.930 . S
C5615 C5611 1.400 . S
C5615 C5614 1.385 . S
C5616 C5614 1.478 . S
C5616 C5618 1.381 . S
C5616 C5622 1.383 . S
C5617 C5613 1.495 . S
C5617 H5623 0.959 . S
C5617 H5624 0.961 . S
C5617 H5625 0.960 . S
C5618 C5616 1.381 . S
C5618 C5619 1.394 . S
C5618 H5626 0.930 . S
C5619 C5618 1.394 . S
C5619 C5620 1.383 . S
C5619 H5627 0.929 . S
C5620 C5619 1.383 . S
C5620 C5621 1.377 . S
C5621 H5605 0.930 . S
C5621 C5620 1.377 . S
C5621 C5622 1.379 . S
C5622 H5606 0.931 . S
C5622 C5616 1.383 . S
C5622 C5621 1.379 . S
H5623 C5617 0.959 . S
H5624 C5617 0.961 . S
H5625 C5617 0.960 . S
H5626 C5618 0.930 . S
H5627 C5619 0.929 . S
H5628 C5636 0.929 . S
H5629 C5638 0.930 . S
H5630 C5640 0.930 . S
H5631 C5643 0.929 . S
H5632 C5646 0.930 . S
H5633 C5648 0.960 . S
H5634 C5648 0.960 . S
H5635 C5648 0.960 . S
C5636 H5628 0.929 . S
C5636 C5637 1.377 . S
C5636 C5638 1.384 . S
C5637 C5636 1.377 . S
C5637 C5643 1.390 . S
C5638 H5629 0.930 . S
C5638 C5636 1.384 . S
C5638 C5639 1.372 . S
C5639 C5638 1.372 . S
C5639 C5640 1.400 . S
C5639 C5644 1.490 . S
C5640 H5630 0.930 . S
C5640 C5639 1.400 . S
C5640 C5643 1.386 . S
H5641 C5657 0.930 . S
H5642 C5658 0.931 . S
C5643 H5631 0.929 . S
C5643 C5637 1.390 . S
C5643 C5640 1.386 . S
C5644 C5639 1.490 . S
C5644 C5646 1.395 . S
C5644 C5647 1.403 . S
H5645 C5651 0.930 . S
C5646 H5632 0.930 . S
C5646 C5644 1.395 . S
C5646 C5649 1.403 . S
C5647 C5644 1.403 . S
C5647 C5648 1.524 . S
C5647 C5651 1.400 . S
C5648 H5633 0.960 . S
C5648 H5634 0.960 . S
C5648 H5635 0.960 . S
C5648 C5647 1.524 . S
C5649 C5646 1.403 . S
C5649 C5650 1.392 . S
C5649 C5653 1.495 . S
C5650 C5649 1.392 . S
C5650 C5651 1.385 . S
C5650 C5652 1.478 . S
C5651 H5645 0.930 . S
C5651 C5647 1.400 . S
C5651 C5650 1.385 . S
C5652 C5650 1.478 . S
C5652 C5654 1.381 . S
C5652 C5658 1.383 . S
C5653 C5649 1.495 . S
C5653 H5659 0.959 . S
C5653 H5660 0.961 . S
C5653 H5661 0.960 . S
C5654 C5652 1.381 . S
C5654 C5655 1.394 . S
C5654 H5662 0.930 . S
C5655 C5654 1.394 . S
C5655 C5656 1.383 . S
C5655 H5663 0.929 . S
C5656 C5655 1.383 . S
C5656 C5657 1.377 . S
C5657 H5641 0.930 . S
C5657 C5656 1.377 . S
C5657 C5658 1.379 . S
C5658 H5642 0.931 . S
C5658 C5652 1.383 . S
C5658 C5657 1.379 . S
H5659 C5653 0.959 . S
H5660 C5653 0.961 . S
H5661 C5653 0.960 . S
H5662 C5654 0.930 . S
H5663 C5655 0.929 . S
H5664 C5672 0.929 . S
H5665 C5674 0.930 . S
H5666 C5676 0.930 . S
H5667 C5679 0.929 . S
H5668 C5682 0.930 . S
H5669 C5684 0.960 . S
H5670 C5684 0.960 . S
H5671 C5684 0.960 . S
C5672 H5664 0.929 . S
C5672 C5673 1.377 . S
C5672 C5674 1.384 . S
C5673 C5672 1.377 . S
C5673 C5679 1.390 . S
C5674 H5665 0.930 . S
C5674 C5672 1.384 . S
C5674 C5675 1.372 . S
C5675 C5674 1.372 . S
C5675 C5676 1.400 . S
C5675 C5680 1.490 . S
C5676 H5666 0.930 . S
C5676 C5675 1.400 . S
C5676 C5679 1.386 . S
H5677 C5693 0.930 . S
H5678 C5694 0.931 . S
C5679 H5667 0.929 . S
C5679 C5673 1.390 . S
C5679 C5676 1.386 . S
C5680 C5675 1.490 . S
C5680 C5682 1.395 . S
C5680 C5683 1.403 . S
H5681 C5687 0.930 . S
C5682 H5668 0.930 . S
C5682 C5680 1.395 . S
C5682 C5685 1.403 . S
C5683 C5680 1.403 . S
C5683 C5684 1.524 . S
C5683 C5687 1.400 . S
C5684 H5669 0.960 . S
C5684 H5670 0.960 . S
C5684 H5671 0.960 . S
C5684 C5683 1.524 . S
C5685 C5682 1.403 . S
C5685 C5686 1.392 . S
C5685 C5689 1.495 . S
C5686 C5685 1.392 . S
C5686 C5687 1.385 . S
C5686 C5688 1.478 . S
C5687 H5681 0.930 . S
C5687 C5683 1.400 . S
C5687 C5686 1.385 . S
C5688 C5686 1.478 . S
C5688 C5690 1.381 . S
C5688 C5694 1.383 . S
C5689 C5685 1.495 . S
C5689 H5695 0.959 . S
C5689 H5696 0.961 . S
C5689 H5697 0.960 . S
C5690 C5688 1.381 . S
C5690 C5691 1.394 . S
C5690 H5698 0.930 . S
C5691 C5690 1.394 . S
C5691 C5692 1.383 . S
C5691 H5699 0.929 . S
C5692 C5691 1.383 . S
C5692 C5693 1.377 . S
C5693 H5677 0.930 . S
C5693 C5692 1.377 . S
C5693 C5694 1.379 . S
C5694 H5678 0.931 . S
C5694 C5688 1.383 . S
C5694 C5693 1.379 . S
H5695 C5689 0.959 . S
H5696 C5689 0.961 . S
H5697 C5689 0.960 . S
H5698 C5690 0.930 . S
H5699 C5691 0.929 . S
H5700 C5708 0.929 . S
H5701 C5710 0.930 . S
H5702 C5712 0.930 . S
H5703 C5715 0.929 . S
H5704 C5718 0.930 . S
H5705 C5720 0.960 . S
H5706 C5720 0.960 . S
H5707 C5720 0.960 . S
C5708 H5700 0.929 . S
C5708 C5709 1.377 . S
C5708 C5710 1.384 . S
C5709 C5708 1.377 . S
C5709 C5715 1.390 . S
C5710 H5701 0.930 . S
C5710 C5708 1.384 . S
C5710 C5711 1.372 . S
C5711 C5710 1.372 . S
C5711 C5712 1.400 . S
C5711 C5716 1.490 . S
C5712 H5702 0.930 . S
C5712 C5711 1.400 . S
C5712 C5715 1.386 . S
H5713 C5729 0.930 . S
H5714 C5730 0.931 . S
C5715 H5703 0.929 . S
C5715 C5709 1.390 . S
C5715 C5712 1.386 . S
C5716 C5711 1.490 . S
C5716 C5718 1.395 . S
C5716 C5719 1.403 . S
H5717 C5723 0.930 . S
C5718 H5704 0.930 . S
C5718 C5716 1.395 . S
C5718 C5721 1.403 . S
C5719 C5716 1.403 . S
C5719 C5720 1.524 . S
C5719 C5723 1.400 . S
C5720 H5705 0.960 . S
C5720 H5706 0.960 . S
C5720 H5707 0.960 . S
C5720 C5719 1.524 . S
C5721 C5718 1.403 . S
C5721 C5722 1.392 . S
C5721 C5725 1.495 . S
C5722 C5721 1.392 . S
C5722 C5723 1.385 . S
C5722 C5724 1.478 . S
C5723 H5717 0.930 . S
C5723 C5719 1.400 . S
C5723 C5722 1.385 . S
C5724 C5722 1.478 . S
C5724 C5726 1.381 . S
C5724 C5730 1.383 . S
C5725 C5721 1.495 . S
C5725 H5731 0.959 . S
C5725 H5732 0.961 . S
C5725 H5733 0.960 . S
C5726 C5724 1.381 . S
C5726 C5727 1.394 . S
C5726 H5734 0.930 . S
C5727 C5726 1.394 . S
C5727 C5728 1.383 . S
C5727 H5735 0.929 . S
C5728 C5727 1.383 . S
C5728 C5729 1.377 . S
C5729 H5713 0.930 . S
C5729 C5728 1.377 . S
C5729 C5730 1.379 . S
C5730 H5714 0.931 . S
C5730 C5724 1.383 . S
C5730 C5729 1.379 . S
H5731 C5725 0.959 . S
H5732 C5725 0.961 . S
H5733 C5725 0.960 . S
H5734 C5726 0.930 . S
H5735 C5727 0.929 . S
H5736 C5744 0.929 . S
H5737 C5746 0.930 . S
H5738 C5748 0.930 . S
H5739 C5751 0.929 . S
H5740 C5754 0.930 . S
H5741 C5756 0.960 . S
H5742 C5756 0.960 . S
H5743 C5756 0.960 . S
C5744 H5736 0.929 . S
C5744 C5745 1.377 . S
C5744 C5746 1.384 . S
C5745 C5744 1.377 . S
C5745 C5751 1.390 . S
C5746 H5737 0.930 . S
C5746 C5744 1.384 . S
C5746 C5747 1.372 . S
C5747 C5746 1.372 . S
C5747 C5748 1.400 . S
C5747 C5752 1.490 . S
C5748 H5738 0.930 . S
C5748 C5747 1.400 . S
C5748 C5751 1.386 . S
H5749 C5765 0.930 . S
H5750 C5766 0.931 . S
C5751 H5739 0.929 . S
C5751 C5745 1.390 . S
C5751 C5748 1.386 . S
C5752 C5747 1.490 . S
C5752 C5754 1.395 . S
C5752 C5755 1.403 . S
H5753 C5759 0.930 . S
C5754 H5740 0.930 . S
C5754 C5752 1.395 . S
C5754 C5757 1.403 . S
C5755 C5752 1.403 . S
C5755 C5756 1.524 . S
C5755 C5759 1.400 . S
C5756 H5741 0.960 . S
C5756 H5742 0.960 . S
C5756 H5743 0.960 . S
C5756 C5755 1.524 . S
C5757 C5754 1.403 . S
C5757 C5758 1.392 . S
C5757 C5761 1.495 . S
C5758 C5757 1.392 . S
C5758 C5759 1.385 . S
C5758 C5760 1.478 . S
C5759 H5753 0.930 . S
C5759 C5755 1.400 . S
C5759 C5758 1.385 . S
C5760 C5758 1.478 . S
C5760 C5762 1.381 . S
C5760 C5766 1.383 . S
C5761 C5757 1.495 . S
C5761 H5767 0.959 . S
C5761 H5768 0.961 . S
C5761 H5769 0.960 . S
C5762 C5760 1.381 . S
C5762 C5763 1.394 . S
C5762 H5770 0.930 . S
C5763 C5762 1.394 . S
C5763 C5764 1.383 . S
C5763 H5771 0.929 . S
C5764 C5763 1.383 . S
C5764 C5765 1.377 . S
C5765 H5749 0.930 . S
C5765 C5764 1.377 . S
C5765 C5766 1.379 . S
C5766 H5750 0.931 . S
C5766 C5760 1.383 . S
C5766 C5765 1.379 . S
H5767 C5761 0.959 . S
H5768 C5761 0.961 . S
H5769 C5761 0.960 . S
H5770 C5762 0.930 . S
H5771 C5763 0.929 . S
H5772 C5780 0.929 . S
H5773 C5782 0.930 . S
H5774 C5784 0.930 . S
H5775 C5787 0.929 . S
H5776 C5790 0.930 . S
H5777 C5792 0.960 . S
H5778 C5792 0.960 . S
H5779 C5792 0.960 . S
C5780 H5772 0.929 . S
C5780 C5781 1.377 . S
C5780 C5782 1.384 . S
C5781 C5780 1.377 . S
C5781 C5787 1.390 . S
C5782 H5773 0.930 . S
C5782 C5780 1.384 . S
C5782 C5783 1.372 . S
C5783 C5782 1.372 . S
C5783 C5784 1.400 . S
C5783 C5788 1.490 . S
C5784 H5774 0.930 . S
C5784 C5783 1.400 . S
C5784 C5787 1.386 . S
H5785 C5801 0.930 . S
H5786 C5802 0.931 . S
C5787 H5775 0.929 . S
C5787 C5781 1.390 . S
C5787 C5784 1.386 . S
C5788 C5783 1.490 . S
C5788 C5790 1.395 . S
C5788 C5791 1.403 . S
H5789 C5795 0.930 . S
C5790 H5776 0.930 . S
C5790 C5788 1.395 . S
C5790 C5793 1.403 . S
C5791 C5788 1.403 . S
C5791 C5792 1.524 . S
C5791 C5795 1.400 . S
C5792 H5777 0.960 . S
C5792 H5778 0.960 . S
C5792 H5779 0.960 . S
C5792 C5791 1.524 . S
C5793 C5790 1.403 . S
C5793 C5794 1.392 . S
C5793 C5797 1.495 . S
C5794 C5793 1.392 . S
C5794 C5795 1.385 . S
C5794 C5796 1.478 . S
C5795 H5789 0.930 . S
C5795 C5791 1.400 . S
C5795 C5794 1.385 . S
C5796 C5794 1.478 . S
C5796 C5798 1.381 . S
C5796 C5802 1.383 . S
C5797 C5793 1.495 . S
C5797 H5803 0.959 . S
C5797 H5804 0.961 . S
C5797 H5805 0.960 . S
C5798 C5796 1.381 . S
C5798 C5799 1.394 . S
C5798 H5806 0.930 . S
C5799 C5798 1.394 . S
C5799 C5800 1.383 . S
C5799 H5807 0.929 . S
C5800 C5799 1.383 . S
C5800 C5801 1.377 . S
C5801 H5785 0.930 . S
C5801 C5800 1.377 . S
C5801 C5802 1.379 . S
C5802 H5786 0.931 . S
C5802 C5796 1.383 . S
C5802 C5801 1.379 . S
H5803 C5797 0.959 . S
H5804 C5797 0.961 . S
H5805 C5797 0.960 . S
H5806 C5798 0.930 . S
H5807 C5799 0.929 . S
H5808 C5816 0.929 . S
H5809 C5818 0.930 . S
H5810 C5820 0.930 . S
H5811 C5823 0.929 . S
H5812 C5826 0.930 . S
H5813 C5828 0.960 . S
H5814 C5828 0.960 . S
H5815 C5828 0.960 . S
C5816 H5808 0.929 . S
C5816 C5817 1.377 . S
C5816 C5818 1.384 . S
C5817 C5816 1.377 . S
C5817 C5823 1.390 . S
C5818 H5809 0.930 . S
C5818 C5816 1.384 . S
C5818 C5819 1.372 . S
C5819 C5818 1.372 . S
C5819 C5820 1.400 . S
C5819 C5824 1.490 . S
C5820 H5810 0.930 . S
C5820 C5819 1.400 . S
C5820 C5823 1.386 . S
H5821 C5837 0.930 . S
H5822 C5838 0.931 . S
C5823 H5811 0.929 . S
C5823 C5817 1.390 . S
C5823 C5820 1.386 . S
C5824 C5819 1.490 . S
C5824 C5826 1.395 . S
C5824 C5827 1.403 . S
H5825 C5831 0.930 . S
C5826 H5812 0.930 . S
C5826 C5824 1.395 . S
C5826 C5829 1.403 . S
C5827 C5824 1.403 . S
C5827 C5828 1.524 . S
C5827 C5831 1.400 . S
C5828 H5813 0.960 . S
C5828 H5814 0.960 . S
C5828 H5815 0.960 . S
C5828 C5827 1.524 . S
C5829 C5826 1.403 . S
C5829 C5830 1.392 . S
C5829 C5833 1.495 . S
C5830 C5829 1.392 . S
C5830 C5831 1.385 . S
C5830 C5832 1.478 . S
C5831 H5825 0.930 . S
C5831 C5827 1.400 . S
C5831 C5830 1.385 . S
C5832 C5830 1.478 . S
C5832 C5834 1.381 . S
C5832 C5838 1.383 . S
C5833 C5829 1.495 . S
C5833 H5839 0.959 . S
C5833 H5840 0.961 . S
C5833 H5841 0.960 . S
C5834 C5832 1.381 . S
C5834 C5835 1.394 . S
C5834 H5842 0.930 . S
C5835 C5834 1.394 . S
C5835 C5836 1.383 . S
C5835 H5843 0.929 . S
C5836 C5835 1.383 . S
C5836 C5837 1.377 . S
C5837 H5821 0.930 . S
C5837 C5836 1.377 . S
C5837 C5838 1.379 . S
C5838 H5822 0.931 . S
C5838 C5832 1.383 . S
C5838 C5837 1.379 . S
H5839 C5833 0.959 . S
H5840 C5833 0.961 . S
H5841 C5833 0.960 . S
H5842 C5834 0.930 . S
H5843 C5835 0.929 . S
H5844 C5852 0.929 . S
H5845 C5854 0.930 . S
H5846 C5856 0.930 . S
H5847 C5859 0.929 . S
H5848 C5862 0.930 . S
H5849 C5864 0.960 . S
H5850 C5864 0.960 . S
H5851 C5864 0.960 . S
C5852 H5844 0.929 . S
C5852 C5853 1.377 . S
C5852 C5854 1.384 . S
C5853 C5852 1.377 . S
C5853 C5859 1.390 . S
C5854 H5845 0.930 . S
C5854 C5852 1.384 . S
C5854 C5855 1.372 . S
C5855 C5854 1.372 . S
C5855 C5856 1.400 . S
C5855 C5860 1.490 . S
C5856 H5846 0.930 . S
C5856 C5855 1.400 . S
C5856 C5859 1.386 . S
H5857 C5873 0.930 . S
H5858 C5874 0.931 . S
C5859 H5847 0.929 . S
C5859 C5853 1.390 . S
C5859 C5856 1.386 . S
C5860 C5855 1.490 . S
C5860 C5862 1.395 . S
C5860 C5863 1.403 . S
H5861 C5867 0.930 . S
C5862 H5848 0.930 . S
C5862 C5860 1.395 . S
C5862 C5865 1.403 . S
C5863 C5860 1.403 . S
C5863 C5864 1.524 . S
C5863 C5867 1.400 . S
C5864 H5849 0.960 . S
C5864 H5850 0.960 . S
C5864 H5851 0.960 . S
C5864 C5863 1.524 . S
C5865 C5862 1.403 . S
C5865 C5866 1.392 . S
C5865 C5869 1.495 . S
C5866 C5865 1.392 . S
C5866 C5867 1.385 . S
C5866 C5868 1.478 . S
C5867 H5861 0.930 . S
C5867 C5863 1.400 . S
C5867 C5866 1.385 . S
C5868 C5866 1.478 . S
C5868 C5870 1.381 . S
C5868 C5874 1.383 . S
C5869 C5865 1.495 . S
C5869 H5875 0.959 . S
C5869 H5876 0.961 . S
C5869 H5877 0.960 . S
C5870 C5868 1.381 . S
C5870 C5871 1.394 . S
C5870 H5878 0.930 . S
C5871 C5870 1.394 . S
C5871 C5872 1.383 . S
C5871 H5879 0.929 . S
C5872 C5871 1.383 . S
C5872 C5873 1.377 . S
C5873 H5857 0.930 . S
C5873 C5872 1.377 . S
C5873 C5874 1.379 . S
C5874 H5858 0.931 . S
C5874 C5868 1.383 . S
C5874 C5873 1.379 . S
H5875 C5869 0.959 . S
H5876 C5869 0.961 . S
H5877 C5869 0.960 . S
H5878 C5870 0.930 . S
H5879 C5871 0.929 . S
H5880 C5888 0.929 . S
H5881 C5890 0.930 . S
H5882 C5892 0.930 . S
H5883 C5895 0.929 . S
H5884 C5898 0.930 . S
H5885 C5900 0.960 . S
H5886 C5900 0.960 . S
H5887 C5900 0.960 . S
C5888 H5880 0.929 . S
C5888 C5889 1.377 . S
C5888 C5890 1.384 . S
C5889 C5888 1.377 . S
C5889 C5895 1.390 . S
C5890 H5881 0.930 . S
C5890 C5888 1.384 . S
C5890 C5891 1.372 . S
C5891 C5890 1.372 . S
C5891 C5892 1.400 . S
C5891 C5896 1.490 . S
C5892 H5882 0.930 . S
C5892 C5891 1.400 . S
C5892 C5895 1.386 . S
H5893 C5909 0.930 . S
H5894 C5910 0.931 . S
C5895 H5883 0.929 . S
C5895 C5889 1.390 . S
C5895 C5892 1.386 . S
C5896 C5891 1.490 . S
C5896 C5898 1.395 . S
C5896 C5899 1.403 . S
H5897 C5903 0.930 . S
C5898 H5884 0.930 . S
C5898 C5896 1.395 . S
C5898 C5901 1.403 . S
C5899 C5896 1.403 . S
C5899 C5900 1.524 . S
C5899 C5903 1.400 . S
C5900 H5885 0.960 . S
C5900 H5886 0.960 . S
C5900 H5887 0.960 . S
C5900 C5899 1.524 . S
C5901 C5898 1.403 . S
C5901 C5902 1.392 . S
C5901 C5905 1.495 . S
C5902 C5901 1.392 . S
C5902 C5903 1.385 . S
C5902 C5904 1.478 . S
C5903 H5897 0.930 . S
C5903 C5899 1.400 . S
C5903 C5902 1.385 . S
C5904 C5902 1.478 . S
C5904 C5906 1.381 . S
C5904 C5910 1.383 . S
C5905 C5901 1.495 . S
C5905 H5911 0.959 . S
C5905 H5912 0.961 . S
C5905 H5913 0.960 . S
C5906 C5904 1.381 . S
C5906 C5907 1.394 . S
C5906 H5914 0.930 . S
C5907 C5906 1.394 . S
C5907 C5908 1.383 . S
C5907 H5915 0.929 . S
C5908 C5907 1.383 . S
C5908 C5909 1.377 . S
C5909 H5893 0.930 . S
C5909 C5908 1.377 . S
C5909 C5910 1.379 . S
C5910 H5894 0.931 . S
C5910 C5904 1.383 . S
C5910 C5909 1.379 . S
H5911 C5905 0.959 . S
H5912 C5905 0.961 . S
H5913 C5905 0.960 . S
H5914 C5906 0.930 . S
H5915 C5907 0.929 . S
H5916 C5924 0.929 . S
H5917 C5926 0.930 . S
H5918 C5928 0.930 . S
H5919 C5931 0.929 . S
H5920 C5934 0.930 . S
H5921 C5936 0.960 . S
H5922 C5936 0.960 . S
H5923 C5936 0.960 . S
C5924 H5916 0.929 . S
C5924 C5925 1.377 . S
C5924 C5926 1.384 . S
C5925 C5924 1.377 . S
C5925 C5931 1.390 . S
C5926 H5917 0.930 . S
C5926 C5924 1.384 . S
C5926 C5927 1.372 . S
C5927 C5926 1.372 . S
C5927 C5928 1.400 . S
C5927 C5932 1.490 . S
C5928 H5918 0.930 . S
C5928 C5927 1.400 . S
C5928 C5931 1.386 . S
H5929 C5945 0.930 . S
H5930 C5946 0.931 . S
C5931 H5919 0.929 . S
C5931 C5925 1.390 . S
C5931 C5928 1.386 . S
C5932 C5927 1.490 . S
C5932 C5934 1.395 . S
C5932 C5935 1.403 . S
H5933 C5939 0.930 . S
C5934 H5920 0.930 . S
C5934 C5932 1.395 . S
C5934 C5937 1.403 . S
C5935 C5932 1.403 . S
C5935 C5936 1.524 . S
C5935 C5939 1.400 . S
C5936 H5921 0.960 . S
C5936 H5922 0.960 . S
C5936 H5923 0.960 . S
C5936 C5935 1.524 . S
C5937 C5934 1.403 . S
C5937 C5938 1.392 . S
C5937 C5941 1.495 . S
C5938 C5937 1.392 . S
C5938 C5939 1.385 . S
C5938 C5940 1.478 . S
C5939 H5933 0.930 . S
C5939 C5935 1.400 . S
C5939 C5938 1.385 . S
C5940 C5938 1.478 . S
C5940 C5942 1.381 . S
C5940 C5946 1.383 . S
C5941 C5937 1.495 . S
C5941 H5947 0.959 . S
C5941 H5948 0.961 . S
C5941 H5949 0.960 . S
C5942 C5940 1.381 . S
C5942 C5943 1.394 . S
C5942 H5950 0.930 . S
C5943 C5942 1.394 . S
C5943 C5944 1.383 . S
C5943 H5951 0.929 . S
C5944 C5943 1.383 . S
C5944 C5945 1.377 . S
C5945 H5929 0.930 . S
C5945 C5944 1.377 . S
C5945 C5946 1.379 . S
C5946 H5930 0.931 . S
C5946 C5940 1.383 . S
C5946 C5945 1.379 . S
H5947 C5941 0.959 . S
H5948 C5941 0.961 . S
H5949 C5941 0.960 . S
H5950 C5942 0.930 . S
H5951 C5943 0.929 . S
H5952 C5960 0.929 . S
H5953 C5962 0.930 . S
H5954 C5964 0.930 . S
H5955 C5967 0.929 . S
H5956 C5970 0.930 . S
H5957 C5972 0.960 . S
H5958 C5972 0.960 . S
H5959 C5972 0.960 . S
C5960 H5952 0.929 . S
C5960 C5961 1.377 . S
C5960 C5962 1.384 . S
C5961 C5960 1.377 . S
C5961 C5967 1.390 . S
C5962 H5953 0.930 . S
C5962 C5960 1.384 . S
C5962 C5963 1.372 . S
C5963 C5962 1.372 . S
C5963 C5964 1.400 . S
C5963 C5968 1.490 . S
C5964 H5954 0.930 . S
C5964 C5963 1.400 . S
C5964 C5967 1.386 . S
H5965 C5981 0.930 . S
H5966 C5982 0.931 . S
C5967 H5955 0.929 . S
C5967 C5961 1.390 . S
C5967 C5964 1.386 . S
C5968 C5963 1.490 . S
C5968 C5970 1.395 . S
C5968 C5971 1.403 . S
H5969 C5975 0.930 . S
C5970 H5956 0.930 . S
C5970 C5968 1.395 . S
C5970 C5973 1.403 . S
C5971 C5968 1.403 . S
C5971 C5972 1.524 . S
C5971 C5975 1.400 . S
C5972 H5957 0.960 . S
C5972 H5958 0.960 . S
C5972 H5959 0.960 . S
C5972 C5971 1.524 . S
C5973 C5970 1.403 . S
C5973 C5974 1.392 . S
C5973 C5977 1.495 . S
C5974 C5973 1.392 . S
C5974 C5975 1.385 . S
C5974 C5976 1.478 . S
C5975 H5969 0.930 . S
C5975 C5971 1.400 . S
C5975 C5974 1.385 . S
C5976 C5974 1.478 . S
C5976 C5978 1.381 . S
C5976 C5982 1.383 . S
C5977 C5973 1.495 . S
C5977 H5983 0.959 . S
C5977 H5984 0.961 . S
C5977 H5985 0.960 . S
C5978 C5976 1.381 . S
C5978 C5979 1.394 . S
C5978 H5986 0.930 . S
C5979 C5978 1.394 . S
C5979 C5980 1.383 . S
C5979 H5987 0.929 . S
C5980 C5979 1.383 . S
C5980 C5981 1.377 . S
C5981 H5965 0.930 . S
C5981 C5980 1.377 . S
C5981 C5982 1.379 . S
C5982 H5966 0.931 . S
C5982 C5976 1.383 . S
C5982 C5981 1.379 . S
H5983 C5977 0.959 . S
H5984 C5977 0.961 . S
H5985 C5977 0.960 . S
H5986 C5978 0.930 . S
H5987 C5979 0.929 . S
H5988 C5996 0.929 . S
H5989 C5998 0.930 . S
H5990 C6000 0.930 . S
H5991 C6003 0.929 . S
H5992 C6006 0.930 . S
H5993 C6008 0.960 . S
H5994 C6008 0.960 . S
H5995 C6008 0.960 . S
C5996 H5988 0.929 . S
C5996 C5997 1.377 . S
C5996 C5998 1.384 . S
C5997 C5996 1.377 . S
C5997 C6003 1.390 . S
C5998 H5989 0.930 . S
C5998 C5996 1.384 . S
C5998 C5999 1.372 . S
C5999 C5998 1.372 . S
C5999 C6000 1.400 . S
C5999 C6004 1.490 . S
C6000 H5990 0.930 . S
C6000 C5999 1.400 . S
C6000 C6003 1.386 . S
H6001 C6017 0.930 . S
H6002 C6018 0.931 . S
C6003 H5991 0.929 . S
C6003 C5997 1.390 . S
C6003 C6000 1.386 . S
C6004 C5999 1.490 . S
C6004 C6006 1.395 . S
C6004 C6007 1.403 . S
H6005 C6011 0.930 . S
C6006 H5992 0.930 . S
C6006 C6004 1.395 . S
C6006 C6009 1.403 . S
C6007 C6004 1.403 . S
C6007 C6008 1.524 . S
C6007 C6011 1.400 . S
C6008 H5993 0.960 . S
C6008 H5994 0.960 . S
C6008 H5995 0.960 . S
C6008 C6007 1.524 . S
C6009 C6006 1.403 . S
C6009 C6010 1.392 . S
C6009 C6013 1.495 . S
C6010 C6009 1.392 . S
C6010 C6011 1.385 . S
C6010 C6012 1.478 . S
C6011 H6005 0.930 . S
C6011 C6007 1.400 . S
C6011 C6010 1.385 . S
C6012 C6010 1.478 . S
C6012 C6014 1.381 . S
C6012 C6018 1.383 . S
C6013 C6009 1.495 . S
C6013 H6019 0.959 . S
C6013 H6020 0.961 . S
C6013 H6021 0.960 . S
C6014 C6012 1.381 . S
C6014 C6015 1.394 . S
C6014 H6022 0.930 . S
C6015 C6014 1.394 . S
C6015 C6016 1.383 . S
C6015 H6023 0.929 . S
C6016 C6015 1.383 . S
C6016 C6017 1.377 . S
C6017 H6001 0.930 . S
C6017 C6016 1.377 . S
C6017 C6018 1.379 . S
C6018 H6002 0.931 . S
C6018 C6012 1.383 . S
C6018 C6017 1.379 . S
H6019 C6013 0.959 . S
H6020 C6013 0.961 . S
H6021 C6013 0.960 . S
H6022 C6014 0.930 . S
H6023 C6015 0.929 . S
H6024 C6032 0.929 . S
H6025 C6034 0.930 . S
H6026 C6036 0.930 . S
H6027 C6039 0.929 . S
H6028 C6042 0.930 . S
H6029 C6044 0.960 . S
H6030 C6044 0.960 . S
H6031 C6044 0.960 . S
C6032 H6024 0.929 . S
C6032 C6033 1.377 . S
C6032 C6034 1.384 . S
C6033 C6032 1.377 . S
C6033 C6039 1.390 . S
C6034 H6025 0.930 . S
C6034 C6032 1.384 . S
C6034 C6035 1.372 . S
C6035 C6034 1.372 . S
C6035 C6036 1.400 . S
C6035 C6040 1.490 . S
C6036 H6026 0.930 . S
C6036 C6035 1.400 . S
C6036 C6039 1.386 . S
H6037 C6053 0.930 . S
H6038 C6054 0.931 . S
C6039 H6027 0.929 . S
C6039 C6033 1.390 . S
C6039 C6036 1.386 . S
C6040 C6035 1.490 . S
C6040 C6042 1.395 . S
C6040 C6043 1.403 . S
H6041 C6047 0.930 . S
C6042 H6028 0.930 . S
C6042 C6040 1.395 . S
C6042 C6045 1.403 . S
C6043 C6040 1.403 . S
C6043 C6044 1.524 . S
C6043 C6047 1.400 . S
C6044 H6029 0.960 . S
C6044 H6030 0.960 . S
C6044 H6031 0.960 . S
C6044 C6043 1.524 . S
C6045 C6042 1.403 . S
C6045 C6046 1.392 . S
C6045 C6049 1.495 . S
C6046 C6045 1.392 . S
C6046 C6047 1.385 . S
C6046 C6048 1.478 . S
C6047 H6041 0.930 . S
C6047 C6043 1.400 . S
C6047 C6046 1.385 . S
C6048 C6046 1.478 . S
C6048 C6050 1.381 . S
C6048 C6054 1.383 . S
C6049 C6045 1.495 . S
C6049 H6055 0.959 . S
C6049 H6056 0.961 . S
C6049 H6057 0.960 . S
C6050 C6048 1.381 . S
C6050 C6051 1.394 . S
C6050 H6058 0.930 . S
C6051 C6050 1.394 . S
C6051 C6052 1.383 . S
C6051 H6059 0.929 . S
C6052 C6051 1.383 . S
C6052 C6053 1.377 . S
C6053 H6037 0.930 . S
C6053 C6052 1.377 . S
C6053 C6054 1.379 . S
C6054 H6038 0.931 . S
C6054 C6048 1.383 . S
C6054 C6053 1.379 . S
H6055 C6049 0.959 . S
H6056 C6049 0.961 . S
H6057 C6049 0.960 . S
H6058 C6050 0.930 . S
H6059 C6051 0.929 . S
H6060 C6068 0.929 . S
H6061 C6070 0.930 . S
H6062 C6072 0.930 . S
H6063 C6075 0.929 . S
H6064 C6078 0.930 . S
H6065 C6080 0.960 . S
H6066 C6080 0.960 . S
H6067 C6080 0.960 . S
C6068 H6060 0.929 . S
C6068 C6069 1.377 . S
C6068 C6070 1.384 . S
C6069 C6068 1.377 . S
C6069 C6075 1.390 . S
C6070 H6061 0.930 . S
C6070 C6068 1.384 . S
C6070 C6071 1.372 . S
C6071 C6070 1.372 . S
C6071 C6072 1.400 . S
C6071 C6076 1.490 . S
C6072 H6062 0.930 . S
C6072 C6071 1.400 . S
C6072 C6075 1.386 . S
H6073 C6089 0.930 . S
H6074 C6090 0.931 . S
C6075 H6063 0.929 . S
C6075 C6069 1.390 . S
C6075 C6072 1.386 . S
C6076 C6071 1.490 . S
C6076 C6078 1.395 . S
C6076 C6079 1.403 . S
H6077 C6083 0.930 . S
C6078 H6064 0.930 . S
C6078 C6076 1.395 . S
C6078 C6081 1.403 . S
C6079 C6076 1.403 . S
C6079 C6080 1.524 . S
C6079 C6083 1.400 . S
C6080 H6065 0.960 . S
C6080 H6066 0.960 . S
C6080 H6067 0.960 . S
C6080 C6079 1.524 . S
C6081 C6078 1.403 . S
C6081 C6082 1.392 . S
C6081 C6085 1.495 . S
C6082 C6081 1.392 . S
C6082 C6083 1.385 . S
C6082 C6084 1.478 . S
C6083 H6077 0.930 . S
C6083 C6079 1.400 . S
C6083 C6082 1.385 . S
C6084 C6082 1.478 . S
C6084 C6086 1.381 . S
C6084 C6090 1.383 . S
C6085 C6081 1.495 . S
C6085 H6091 0.959 . S
C6085 H6092 0.961 . S
C6085 H6093 0.960 . S
C6086 C6084 1.381 . S
C6086 C6087 1.394 . S
C6086 H6094 0.930 . S
C6087 C6086 1.394 . S
C6087 C6088 1.383 . S
C6087 H6095 0.929 . S
C6088 C6087 1.383 . S
C6088 C6089 1.377 . S
C6089 H6073 0.930 . S
C6089 C6088 1.377 . S
C6089 C6090 1.379 . S
C6090 H6074 0.931 . S
C6090 C6084 1.383 . S
C6090 C6089 1.379 . S
H6091 C6085 0.959 . S
H6092 C6085 0.961 . S
H6093 C6085 0.960 . S
H6094 C6086 0.930 . S
H6095 C6087 0.929 . S
H6096 C6104 0.929 . S
H6097 C6106 0.930 . S
H6098 C6108 0.930 . S
H6099 C6111 0.929 . S
H6100 C6114 0.930 . S
H6101 C6116 0.960 . S
H6102 C6116 0.960 . S
H6103 C6116 0.960 . S
C6104 H6096 0.929 . S
C6104 C6105 1.377 . S
C6104 C6106 1.384 . S
C6105 C6104 1.377 . S
C6105 C6111 1.390 . S
C6106 H6097 0.930 . S
C6106 C6104 1.384 . S
C6106 C6107 1.372 . S
C6107 C6106 1.372 . S
C6107 C6108 1.400 . S
C6107 C6112 1.490 . S
C6108 H6098 0.930 . S
C6108 C6107 1.400 . S
C6108 C6111 1.386 . S
H6109 C6125 0.930 . S
H6110 C6126 0.931 . S
C6111 H6099 0.929 . S
C6111 C6105 1.390 . S
C6111 C6108 1.386 . S
C6112 C6107 1.490 . S
C6112 C6114 1.395 . S
C6112 C6115 1.403 . S
H6113 C6119 0.930 . S
C6114 H6100 0.930 . S
C6114 C6112 1.395 . S
C6114 C6117 1.403 . S
C6115 C6112 1.403 . S
C6115 C6116 1.524 . S
C6115 C6119 1.400 . S
C6116 H6101 0.960 . S
C6116 H6102 0.960 . S
C6116 H6103 0.960 . S
C6116 C6115 1.524 . S
C6117 C6114 1.403 . S
C6117 C6118 1.392 . S
C6117 C6121 1.495 . S
C6118 C6117 1.392 . S
C6118 C6119 1.385 . S
C6118 C6120 1.478 . S
C6119 H6113 0.930 . S
C6119 C6115 1.400 . S
C6119 C6118 1.385 . S
C6120 C6118 1.478 . S
C6120 C6122 1.381 . S
C6120 C6126 1.383 . S
C6121 C6117 1.495 . S
C6121 H6127 0.959 . S
C6121 H6128 0.961 . S
C6121 H6129 0.960 . S
C6122 C6120 1.381 . S
C6122 C6123 1.394 . S
C6122 H6130 0.930 . S
C6123 C6122 1.394 . S
C6123 C6124 1.383 . S
C6123 H6131 0.929 . S
C6124 C6123 1.383 . S
C6124 C6125 1.377 . S
C6125 H6109 0.930 . S
C6125 C6124 1.377 . S
C6125 C6126 1.379 . S
C6126 H6110 0.931 . S
C6126 C6120 1.383 . S
C6126 C6125 1.379 . S
H6127 C6121 0.959 . S
H6128 C6121 0.961 . S
H6129 C6121 0.960 . S
H6130 C6122 0.930 . S
H6131 C6123 0.929 . S
H6132 C6140 0.929 . S
H6133 C6142 0.930 . S
H6134 C6144 0.930 . S
H6135 C6147 0.929 . S
H6136 C6150 0.930 . S
H6137 C6152 0.960 . S
H6138 C6152 0.960 . S
H6139 C6152 0.960 . S
C6140 H6132 0.929 . S
C6140 C6141 1.377 . S
C6140 C6142 1.384 . S
C6141 C6140 1.377 . S
C6141 C6147 1.390 . S
C6142 H6133 0.930 . S
C6142 C6140 1.384 . S
C6142 C6143 1.372 . S
C6143 C6142 1.372 . S
C6143 C6144 1.400 . S
C6143 C6148 1.490 . S
C6144 H6134 0.930 . S
C6144 C6143 1.400 . S
C6144 C6147 1.386 . S
H6145 C6161 0.930 . S
H6146 C6162 0.931 . S
C6147 H6135 0.929 . S
C6147 C6141 1.390 . S
C6147 C6144 1.386 . S
C6148 C6143 1.490 . S
C6148 C6150 1.395 . S
C6148 C6151 1.403 . S
H6149 C6155 0.930 . S
C6150 H6136 0.930 . S
C6150 C6148 1.395 . S
C6150 C6153 1.403 . S
C6151 C6148 1.403 . S
C6151 C6152 1.524 . S
C6151 C6155 1.400 . S
C6152 H6137 0.960 . S
C6152 H6138 0.960 . S
C6152 H6139 0.960 . S
C6152 C6151 1.524 . S
C6153 C6150 1.403 . S
C6153 C6154 1.392 . S
C6153 C6157 1.495 . S
C6154 C6153 1.392 . S
C6154 C6155 1.385 . S
C6154 C6156 1.478 . S
C6155 H6149 0.930 . S
C6155 C6151 1.400 . S
C6155 C6154 1.385 . S
C6156 C6154 1.478 . S
C6156 C6158 1.381 . S
C6156 C6162 1.383 . S
C6157 C6153 1.495 . S
C6157 H6163 0.959 . S
C6157 H6164 0.961 . S
C6157 H6165 0.960 . S
C6158 C6156 1.381 . S
C6158 C6159 1.394 . S
C6158 H6166 0.930 . S
C6159 C6158 1.394 . S
C6159 C6160 1.383 . S
C6159 H6167 0.929 . S
C6160 C6159 1.383 . S
C6160 C6161 1.377 . S
C6161 H6145 0.930 . S
C6161 C6160 1.377 . S
C6161 C6162 1.379 . S
C6162 H6146 0.931 . S
C6162 C6156 1.383 . S
C6162 C6161 1.379 . S
H6163 C6157 0.959 . S
H6164 C6157 0.961 . S
H6165 C6157 0.960 . S
H6166 C6158 0.930 . S
H6167 C6159 0.929 . S
H6168 C6176 0.929 . S
H6169 C6178 0.930 . S
H6170 C6180 0.930 . S
H6171 C6183 0.929 . S
H6172 C6186 0.930 . S
H6173 C6188 0.960 . S
H6174 C6188 0.960 . S
H6175 C6188 0.960 . S
C6176 H6168 0.929 . S
C6176 C6177 1.377 . S
C6176 C6178 1.384 . S
C6177 C6176 1.377 . S
C6177 C6183 1.390 . S
C6178 H6169 0.930 . S
C6178 C6176 1.384 . S
C6178 C6179 1.372 . S
C6179 C6178 1.372 . S
C6179 C6180 1.400 . S
C6179 C6184 1.490 . S
C6180 H6170 0.930 . S
C6180 C6179 1.400 . S
C6180 C6183 1.386 . S
H6181 C6197 0.930 . S
H6182 C6198 0.931 . S
C6183 H6171 0.929 . S
C6183 C6177 1.390 . S
C6183 C6180 1.386 . S
C6184 C6179 1.490 . S
C6184 C6186 1.395 . S
C6184 C6187 1.403 . S
H6185 C6191 0.930 . S
C6186 H6172 0.930 . S
C6186 C6184 1.395 . S
C6186 C6189 1.403 . S
C6187 C6184 1.403 . S
C6187 C6188 1.524 . S
C6187 C6191 1.400 . S
C6188 H6173 0.960 . S
C6188 H6174 0.960 . S
C6188 H6175 0.960 . S
C6188 C6187 1.524 . S
C6189 C6186 1.403 . S
C6189 C6190 1.392 . S
C6189 C6193 1.495 . S
C6190 C6189 1.392 . S
C6190 C6191 1.385 . S
C6190 C6192 1.478 . S
C6191 H6185 0.930 . S
C6191 C6187 1.400 . S
C6191 C6190 1.385 . S
C6192 C6190 1.478 . S
C6192 C6194 1.381 . S
C6192 C6198 1.383 . S
C6193 C6189 1.495 . S
C6193 H6199 0.959 . S
C6193 H6200 0.961 . S
C6193 H6201 0.960 . S
C6194 C6192 1.381 . S
C6194 C6195 1.394 . S
C6194 H6202 0.930 . S
C6195 C6194 1.394 . S
C6195 C6196 1.383 . S
C6195 H6203 0.929 . S
C6196 C6195 1.383 . S
C6196 C6197 1.377 . S
C6197 H6181 0.930 . S
C6197 C6196 1.377 . S
C6197 C6198 1.379 . S
C6198 H6182 0.931 . S
C6198 C6192 1.383 . S
C6198 C6197 1.379 . S
H6199 C6193 0.959 . S
H6200 C6193 0.961 . S
H6201 C6193 0.960 . S
H6202 C6194 0.930 . S
H6203 C6195 0.929 . S
H6204 C6212 0.929 . S
H6205 C6214 0.930 . S
H6206 C6216 0.930 . S
H6207 C6219 0.929 . S
H6208 C6222 0.930 . S
H6209 C6224 0.960 . S
H6210 C6224 0.960 . S
H6211 C6224 0.960 . S
C6212 H6204 0.929 . S
C6212 C6213 1.377 . S
C6212 C6214 1.384 . S
C6213 C6212 1.377 . S
C6213 C6219 1.390 . S
C6214 H6205 0.930 . S
C6214 C6212 1.384 . S
C6214 C6215 1.372 . S
C6215 C6214 1.372 . S
C6215 C6216 1.400 . S
C6215 C6220 1.490 . S
C6216 H6206 0.930 . S
C6216 C6215 1.400 . S
C6216 C6219 1.386 . S
H6217 C6233 0.930 . S
H6218 C6234 0.931 . S
C6219 H6207 0.929 . S
C6219 C6213 1.390 . S
C6219 C6216 1.386 . S
C6220 C6215 1.490 . S
C6220 C6222 1.395 . S
C6220 C6223 1.403 . S
H6221 C6227 0.930 . S
C6222 H6208 0.930 . S
C6222 C6220 1.395 . S
C6222 C6225 1.403 . S
C6223 C6220 1.403 . S
C6223 C6224 1.524 . S
C6223 C6227 1.400 . S
C6224 H6209 0.960 . S
C6224 H6210 0.960 . S
C6224 H6211 0.960 . S
C6224 C6223 1.524 . S
C6225 C6222 1.403 . S
C6225 C6226 1.392 . S
C6225 C6229 1.495 . S
C6226 C6225 1.392 . S
C6226 C6227 1.385 . S
C6226 C6228 1.478 . S
C6227 H6221 0.930 . S
C6227 C6223 1.400 . S
C6227 C6226 1.385 . S
C6228 C6226 1.478 . S
C6228 C6230 1.381 . S
C6228 C6234 1.383 . S
C6229 C6225 1.495 . S
C6229 H6235 0.959 . S
C6229 H6236 0.961 . S
C6229 H6237 0.960 . S
C6230 C6228 1.381 . S
C6230 C6231 1.394 . S
C6230 H6238 0.930 . S
C6231 C6230 1.394 . S
C6231 C6232 1.383 . S
C6231 H6239 0.929 . S
C6232 C6231 1.383 . S
C6232 C6233 1.377 . S
C6233 H6217 0.930 . S
C6233 C6232 1.377 . S
C6233 C6234 1.379 . S
C6234 H6218 0.931 . S
C6234 C6228 1.383 . S
C6234 C6233 1.379 . S
H6235 C6229 0.959 . S
H6236 C6229 0.961 . S
H6237 C6229 0.960 . S
H6238 C6230 0.930 . S
H6239 C6231 0.929 . S
H6240 C6248 0.929 . S
H6241 C6250 0.930 . S
H6242 C6252 0.930 . S
H6243 C6255 0.929 . S
H6244 C6258 0.930 . S
H6245 C6260 0.960 . S
H6246 C6260 0.960 . S
H6247 C6260 0.960 . S
C6248 H6240 0.929 . S
C6248 C6249 1.377 . S
C6248 C6250 1.384 . S
C6249 C6248 1.377 . S
C6249 C6255 1.390 . S
C6250 H6241 0.930 . S
C6250 C6248 1.384 . S
C6250 C6251 1.372 . S
C6251 C6250 1.372 . S
C6251 C6252 1.400 . S
C6251 C6256 1.490 . S
C6252 H6242 0.930 . S
C6252 C6251 1.400 . S
C6252 C6255 1.386 . S
H6253 C6269 0.930 . S
H6254 C6270 0.931 . S
C6255 H6243 0.929 . S
C6255 C6249 1.390 . S
C6255 C6252 1.386 . S
C6256 C6251 1.490 . S
C6256 C6258 1.395 . S
C6256 C6259 1.403 . S
H6257 C6263 0.930 . S
C6258 H6244 0.930 . S
C6258 C6256 1.395 . S
C6258 C6261 1.403 . S
C6259 C6256 1.403 . S
C6259 C6260 1.524 . S
C6259 C6263 1.400 . S
C6260 H6245 0.960 . S
C6260 H6246 0.960 . S
C6260 H6247 0.960 . S
C6260 C6259 1.524 . S
C6261 C6258 1.403 . S
C6261 C6262 1.392 . S
C6261 C6265 1.495 . S
C6262 C6261 1.392 . S
C6262 C6263 1.385 . S
C6262 C6264 1.478 . S
C6263 H6257 0.930 . S
C6263 C6259 1.400 . S
C6263 C6262 1.385 . S
C6264 C6262 1.478 . S
C6264 C6266 1.381 . S
C6264 C6270 1.383 . S
C6265 C6261 1.495 . S
C6265 H6271 0.959 . S
C6265 H6272 0.961 . S
C6265 H6273 0.960 . S
C6266 C6264 1.381 . S
C6266 C6267 1.394 . S
C6266 H6274 0.930 . S
C6267 C6266 1.394 . S
C6267 C6268 1.383 . S
C6267 H6275 0.929 . S
C6268 C6267 1.383 . S
C6268 C6269 1.377 . S
C6269 H6253 0.930 . S
C6269 C6268 1.377 . S
C6269 C6270 1.379 . S
C6270 H6254 0.931 . S
C6270 C6264 1.383 . S
C6270 C6269 1.379 . S
H6271 C6265 0.959 . S
H6272 C6265 0.961 . S
H6273 C6265 0.960 . S
H6274 C6266 0.930 . S
H6275 C6267 0.929 . S
H6276 C6284 0.929 . S
H6277 C6286 0.930 . S
H6278 C6288 0.930 . S
H6279 C6291 0.929 . S
H6280 C6294 0.930 . S
H6281 C6296 0.960 . S
H6282 C6296 0.960 . S
H6283 C6296 0.960 . S
C6284 H6276 0.929 . S
C6284 C6285 1.377 . S
C6284 C6286 1.384 . S
C6285 C6284 1.377 . S
C6285 C6291 1.390 . S
C6286 H6277 0.930 . S
C6286 C6284 1.384 . S
C6286 C6287 1.372 . S
C6287 C6286 1.372 . S
C6287 C6288 1.400 . S
C6287 C6292 1.490 . S
C6288 H6278 0.930 . S
C6288 C6287 1.400 . S
C6288 C6291 1.386 . S
H6289 C6305 0.930 . S
H6290 C6306 0.931 . S
C6291 H6279 0.929 . S
C6291 C6285 1.390 . S
C6291 C6288 1.386 . S
C6292 C6287 1.490 . S
C6292 C6294 1.395 . S
C6292 C6295 1.403 . S
H6293 C6299 0.930 . S
C6294 H6280 0.930 . S
C6294 C6292 1.395 . S
C6294 C6297 1.403 . S
C6295 C6292 1.403 . S
C6295 C6296 1.524 . S
C6295 C6299 1.400 . S
C6296 H6281 0.960 . S
C6296 H6282 0.960 . S
C6296 H6283 0.960 . S
C6296 C6295 1.524 . S
C6297 C6294 1.403 . S
C6297 C6298 1.392 . S
C6297 C6301 1.495 . S
C6298 C6297 1.392 . S
C6298 C6299 1.385 . S
C6298 C6300 1.478 . S
C6299 H6293 0.930 . S
C6299 C6295 1.400 . S
C6299 C6298 1.385 . S
C6300 C6298 1.478 . S
C6300 C6302 1.381 . S
C6300 C6306 1.383 . S
C6301 C6297 1.495 . S
C6301 H6307 0.959 . S
C6301 H6308 0.961 . S
C6301 H6309 0.960 . S
C6302 C6300 1.381 . S
C6302 C6303 1.394 . S
C6302 H6310 0.930 . S
C6303 C6302 1.394 . S
C6303 C6304 1.383 . S
C6303 H6311 0.929 . S
C6304 C6303 1.383 . S
C6304 C6305 1.377 . S
C6305 H6289 0.930 . S
C6305 C6304 1.377 . S
C6305 C6306 1.379 . S
C6306 H6290 0.931 . S
C6306 C6300 1.383 . S
C6306 C6305 1.379 . S
H6307 C6301 0.959 . S
H6308 C6301 0.961 . S
H6309 C6301 0.960 . S
H6310 C6302 0.930 . S
H6311 C6303 0.929 . S
H6312 C6320 0.929 . S
H6313 C6322 0.930 . S
H6314 C6324 0.930 . S
H6315 C6327 0.929 . S
H6316 C6330 0.930 . S
H6317 C6332 0.960 . S
H6318 C6332 0.960 . S
H6319 C6332 0.960 . S
C6320 H6312 0.929 . S
C6320 C6321 1.377 . S
C6320 C6322 1.384 . S
C6321 C6320 1.377 . S
C6321 C6327 1.390 . S
C6322 H6313 0.930 . S
C6322 C6320 1.384 . S
C6322 C6323 1.372 . S
C6323 C6322 1.372 . S
C6323 C6324 1.400 . S
C6323 C6328 1.490 . S
C6324 H6314 0.930 . S
C6324 C6323 1.400 . S
C6324 C6327 1.386 . S
H6325 C6341 0.930 . S
H6326 C6342 0.931 . S
C6327 H6315 0.929 . S
C6327 C6321 1.390 . S
C6327 C6324 1.386 . S
C6328 C6323 1.490 . S
C6328 C6330 1.395 . S
C6328 C6331 1.403 . S
H6329 C6335 0.930 . S
C6330 H6316 0.930 . S
C6330 C6328 1.395 . S
C6330 C6333 1.403 . S
C6331 C6328 1.403 . S
C6331 C6332 1.524 . S
C6331 C6335 1.400 . S
C6332 H6317 0.960 . S
C6332 H6318 0.960 . S
C6332 H6319 0.960 . S
C6332 C6331 1.524 . S
C6333 C6330 1.403 . S
C6333 C6334 1.392 . S
C6333 C6337 1.495 . S
C6334 C6333 1.392 . S
C6334 C6335 1.385 . S
C6334 C6336 1.478 . S
C6335 H6329 0.930 . S
C6335 C6331 1.400 . S
C6335 C6334 1.385 . S
C6336 C6334 1.478 . S
C6336 C6338 1.381 . S
C6336 C6342 1.383 . S
C6337 C6333 1.495 . S
C6337 H6343 0.959 . S
C6337 H6344 0.961 . S
C6337 H6345 0.960 . S
C6338 C6336 1.381 . S
C6338 C6339 1.394 . S
C6338 H6346 0.930 . S
C6339 C6338 1.394 . S
C6339 C6340 1.383 . S
C6339 H6347 0.929 . S
C6340 C6339 1.383 . S
C6340 C6341 1.377 . S
C6341 H6325 0.930 . S
C6341 C6340 1.377 . S
C6341 C6342 1.379 . S
C6342 H6326 0.931 . S
C6342 C6336 1.383 . S
C6342 C6341 1.379 . S
H6343 C6337 0.959 . S
H6344 C6337 0.961 . S
H6345 C6337 0.960 . S
H6346 C6338 0.930 . S
H6347 C6339 0.929 . S
H6348 C6356 0.929 . S
H6349 C6358 0.930 . S
H6350 C6360 0.930 . S
H6351 C6363 0.929 . S
H6352 C6366 0.930 . S
H6353 C6368 0.960 . S
H6354 C6368 0.960 . S
H6355 C6368 0.960 . S
C6356 H6348 0.929 . S
C6356 C6357 1.377 . S
C6356 C6358 1.384 . S
C6357 C6356 1.377 . S
C6357 C6363 1.390 . S
C6358 H6349 0.930 . S
C6358 C6356 1.384 . S
C6358 C6359 1.372 . S
C6359 C6358 1.372 . S
C6359 C6360 1.400 . S
C6359 C6364 1.490 . S
C6360 H6350 0.930 . S
C6360 C6359 1.400 . S
C6360 C6363 1.386 . S
H6361 C6377 0.930 . S
H6362 C6378 0.931 . S
C6363 H6351 0.929 . S
C6363 C6357 1.390 . S
C6363 C6360 1.386 . S
C6364 C6359 1.490 . S
C6364 C6366 1.395 . S
C6364 C6367 1.403 . S
H6365 C6371 0.930 . S
C6366 H6352 0.930 . S
C6366 C6364 1.395 . S
C6366 C6369 1.403 . S
C6367 C6364 1.403 . S
C6367 C6368 1.524 . S
C6367 C6371 1.400 . S
C6368 H6353 0.960 . S
C6368 H6354 0.960 . S
C6368 H6355 0.960 . S
C6368 C6367 1.524 . S
C6369 C6366 1.403 . S
C6369 C6370 1.392 . S
C6369 C6373 1.495 . S
C6370 C6369 1.392 . S
C6370 C6371 1.385 . S
C6370 C6372 1.478 . S
C6371 H6365 0.930 . S
C6371 C6367 1.400 . S
C6371 C6370 1.385 . S
C6372 C6370 1.478 . S
C6372 C6374 1.381 . S
C6372 C6378 1.383 . S
C6373 C6369 1.495 . S
C6373 H6379 0.959 . S
C6373 H6380 0.961 . S
C6373 H6381 0.960 . S
C6374 C6372 1.381 . S
C6374 C6375 1.394 . S
C6374 H6382 0.930 . S
C6375 C6374 1.394 . S
C6375 C6376 1.383 . S
C6375 H6383 0.929 . S
C6376 C6375 1.383 . S
C6376 C6377 1.377 . S
C6377 H6361 0.930 . S
C6377 C6376 1.377 . S
C6377 C6378 1.379 . S
C6378 H6362 0.931 . S
C6378 C6372 1.383 . S
C6378 C6377 1.379 . S
H6379 C6373 0.959 . S
H6380 C6373 0.961 . S
H6381 C6373 0.960 . S
H6382 C6374 0.930 . S
H6383 C6375 0.929 . S
H6384 C6392 0.929 . S
H6385 C6394 0.930 . S
H6386 C6396 0.930 . S
H6387 C6399 0.929 . S
H6388 C6402 0.930 . S
H6389 C6404 0.960 . S
H6390 C6404 0.960 . S
H6391 C6404 0.960 . S
C6392 H6384 0.929 . S
C6392 C6393 1.377 . S
C6392 C6394 1.384 . S
C6393 C6392 1.377 . S
C6393 C6399 1.390 . S
C6394 H6385 0.930 . S
C6394 C6392 1.384 . S
C6394 C6395 1.372 . S
C6395 C6394 1.372 . S
C6395 C6396 1.400 . S
C6395 C6400 1.490 . S
C6396 H6386 0.930 . S
C6396 C6395 1.400 . S
C6396 C6399 1.386 . S
H6397 C6413 0.930 . S
H6398 C6414 0.931 . S
C6399 H6387 0.929 . S
C6399 C6393 1.390 . S
C6399 C6396 1.386 . S
C6400 C6395 1.490 . S
C6400 C6402 1.395 . S
C6400 C6403 1.403 . S
H6401 C6407 0.930 . S
C6402 H6388 0.930 . S
C6402 C6400 1.395 . S
C6402 C6405 1.403 . S
C6403 C6400 1.403 . S
C6403 C6404 1.524 . S
C6403 C6407 1.400 . S
C6404 H6389 0.960 . S
C6404 H6390 0.960 . S
C6404 H6391 0.960 . S
C6404 C6403 1.524 . S
C6405 C6402 1.403 . S
C6405 C6406 1.392 . S
C6405 C6409 1.495 . S
C6406 C6405 1.392 . S
C6406 C6407 1.385 . S
C6406 C6408 1.478 . S
C6407 H6401 0.930 . S
C6407 C6403 1.400 . S
C6407 C6406 1.385 . S
C6408 C6406 1.478 . S
C6408 C6410 1.381 . S
C6408 C6414 1.383 . S
C6409 C6405 1.495 . S
C6409 H6415 0.959 . S
C6409 H6416 0.961 . S
C6409 H6417 0.960 . S
C6410 C6408 1.381 . S
C6410 C6411 1.394 . S
C6410 H6418 0.930 . S
C6411 C6410 1.394 . S
C6411 C6412 1.383 . S
C6411 H6419 0.929 . S
C6412 C6411 1.383 . S
C6412 C6413 1.377 . S
C6413 H6397 0.930 . S
C6413 C6412 1.377 . S
C6413 C6414 1.379 . S
C6414 H6398 0.931 . S
C6414 C6408 1.383 . S
C6414 C6413 1.379 . S
H6415 C6409 0.959 . S
H6416 C6409 0.961 . S
H6417 C6409 0.960 . S
H6418 C6410 0.930 . S
H6419 C6411 0.929 . S
H6420 C6428 0.929 . S
H6421 C6430 0.930 . S
H6422 C6432 0.930 . S
H6423 C6435 0.929 . S
H6424 C6438 0.930 . S
H6425 C6440 0.960 . S
H6426 C6440 0.960 . S
H6427 C6440 0.960 . S
C6428 H6420 0.929 . S
C6428 C6429 1.377 . S
C6428 C6430 1.384 . S
C6429 C6428 1.377 . S
C6429 C6435 1.390 . S
C6430 H6421 0.930 . S
C6430 C6428 1.384 . S
C6430 C6431 1.372 . S
C6431 C6430 1.372 . S
C6431 C6432 1.400 . S
C6431 C6436 1.490 . S
C6432 H6422 0.930 . S
C6432 C6431 1.400 . S
C6432 C6435 1.386 . S
H6433 C6449 0.930 . S
H6434 C6450 0.931 . S
C6435 H6423 0.929 . S
C6435 C6429 1.390 . S
C6435 C6432 1.386 . S
C6436 C6431 1.490 . S
C6436 C6438 1.395 . S
C6436 C6439 1.403 . S
H6437 C6443 0.930 . S
C6438 H6424 0.930 . S
C6438 C6436 1.395 . S
C6438 C6441 1.403 . S
C6439 C6436 1.403 . S
C6439 C6440 1.524 . S
C6439 C6443 1.400 . S
C6440 H6425 0.960 . S
C6440 H6426 0.960 . S
C6440 H6427 0.960 . S
C6440 C6439 1.524 . S
C6441 C6438 1.403 . S
C6441 C6442 1.392 . S
C6441 C6445 1.495 . S
C6442 C6441 1.392 . S
C6442 C6443 1.385 . S
C6442 C6444 1.478 . S
C6443 H6437 0.930 . S
C6443 C6439 1.400 . S
C6443 C6442 1.385 . S
C6444 C6442 1.478 . S
C6444 C6446 1.381 . S
C6444 C6450 1.383 . S
C6445 C6441 1.495 . S
C6445 H6451 0.959 . S
C6445 H6452 0.961 . S
C6445 H6453 0.960 . S
C6446 C6444 1.381 . S
C6446 C6447 1.394 . S
C6446 H6454 0.930 . S
C6447 C6446 1.394 . S
C6447 C6448 1.383 . S
C6447 H6455 0.929 . S
C6448 C6447 1.383 . S
C6448 C6449 1.377 . S
C6449 H6433 0.930 . S
C6449 C6448 1.377 . S
C6449 C6450 1.379 . S
C6450 H6434 0.931 . S
C6450 C6444 1.383 . S
C6450 C6449 1.379 . S
H6451 C6445 0.959 . S
H6452 C6445 0.961 . S
H6453 C6445 0.960 . S
H6454 C6446 0.930 . S
H6455 C6447 0.929 . S
H6456 C6464 0.929 . S
H6457 C6466 0.930 . S
H6458 C6468 0.930 . S
H6459 C6471 0.929 . S
H6460 C6474 0.930 . S
H6461 C6476 0.960 . S
H6462 C6476 0.960 . S
H6463 C6476 0.960 . S
C6464 H6456 0.929 . S
C6464 C6465 1.377 . S
C6464 C6466 1.384 . S
C6465 C6464 1.377 . S
C6465 C6471 1.390 . S
C6466 H6457 0.930 . S
C6466 C6464 1.384 . S
C6466 C6467 1.372 . S
C6467 C6466 1.372 . S
C6467 C6468 1.400 . S
C6467 C6472 1.490 . S
C6468 H6458 0.930 . S
C6468 C6467 1.400 . S
C6468 C6471 1.386 . S
H6469 C6485 0.930 . S
H6470 C6486 0.931 . S
C6471 H6459 0.929 . S
C6471 C6465 1.390 . S
C6471 C6468 1.386 . S
C6472 C6467 1.490 . S
C6472 C6474 1.395 . S
C6472 C6475 1.403 . S
H6473 C6479 0.930 . S
C6474 H6460 0.930 . S
C6474 C6472 1.395 . S
C6474 C6477 1.403 . S
C6475 C6472 1.403 . S
C6475 C6476 1.524 . S
C6475 C6479 1.400 . S
C6476 H6461 0.960 . S
C6476 H6462 0.960 . S
C6476 H6463 0.960 . S
C6476 C6475 1.524 . S
C6477 C6474 1.403 . S
C6477 C6478 1.392 . S
C6477 C6481 1.495 . S
C6478 C6477 1.392 . S
C6478 C6479 1.385 . S
C6478 C6480 1.478 . S
C6479 H6473 0.930 . S
C6479 C6475 1.400 . S
C6479 C6478 1.385 . S
C6480 C6478 1.478 . S
C6480 C6482 1.381 . S
C6480 C6486 1.383 . S
C6481 C6477 1.495 . S
C6481 H6487 0.959 . S
C6481 H6488 0.961 . S
C6481 H6489 0.960 . S
C6482 C6480 1.381 . S
C6482 C6483 1.394 . S
C6482 H6490 0.930 . S
C6483 C6482 1.394 . S
C6483 C6484 1.383 . S
C6483 H6491 0.929 . S
C6484 C6483 1.383 . S
C6484 C6485 1.377 . S
C6485 H6469 0.930 . S
C6485 C6484 1.377 . S
C6485 C6486 1.379 . S
C6486 H6470 0.931 . S
C6486 C6480 1.383 . S
C6486 C6485 1.379 . S
H6487 C6481 0.959 . S
H6488 C6481 0.961 . S
H6489 C6481 0.960 . S
H6490 C6482 0.930 . S
H6491 C6483 0.929 . S
H6492 C6500 0.929 . S
H6493 C6502 0.930 . S
H6494 C6504 0.930 . S
H6495 C6507 0.929 . S
H6496 C6510 0.930 . S
H6497 C6512 0.960 . S
H6498 C6512 0.960 . S
H6499 C6512 0.960 . S
C6500 H6492 0.929 . S
C6500 C6501 1.377 . S
C6500 C6502 1.384 . S
C6501 C6500 1.377 . S
C6501 C6507 1.390 . S
C6502 H6493 0.930 . S
C6502 C6500 1.384 . S
C6502 C6503 1.372 . S
C6503 C6502 1.372 . S
C6503 C6504 1.400 . S
C6503 C6508 1.490 . S
C6504 H6494 0.930 . S
C6504 C6503 1.400 . S
C6504 C6507 1.386 . S
H6505 C6521 0.930 . S
H6506 C6522 0.931 . S
C6507 H6495 0.929 . S
C6507 C6501 1.390 . S
C6507 C6504 1.386 . S
C6508 C6503 1.490 . S
C6508 C6510 1.395 . S
C6508 C6511 1.403 . S
H6509 C6515 0.930 . S
C6510 H6496 0.930 . S
C6510 C6508 1.395 . S
C6510 C6513 1.403 . S
C6511 C6508 1.403 . S
C6511 C6512 1.524 . S
C6511 C6515 1.400 . S
C6512 H6497 0.960 . S
C6512 H6498 0.960 . S
C6512 H6499 0.960 . S
C6512 C6511 1.524 . S
C6513 C6510 1.403 . S
C6513 C6514 1.392 . S
C6513 C6517 1.495 . S
C6514 C6513 1.392 . S
C6514 C6515 1.385 . S
C6514 C6516 1.478 . S
C6515 H6509 0.930 . S
C6515 C6511 1.400 . S
C6515 C6514 1.385 . S
C6516 C6514 1.478 . S
C6516 C6518 1.381 . S
C6516 C6522 1.383 . S
C6517 C6513 1.495 . S
C6517 H6523 0.959 . S
C6517 H6524 0.961 . S
C6517 H6525 0.960 . S
C6518 C6516 1.381 . S
C6518 C6519 1.394 . S
C6518 H6526 0.930 . S
C6519 C6518 1.394 . S
C6519 C6520 1.383 . S
C6519 H6527 0.929 . S
C6520 C6519 1.383 . S
C6520 C6521 1.377 . S
C6521 H6505 0.930 . S
C6521 C6520 1.377 . S
C6521 C6522 1.379 . S
C6522 H6506 0.931 . S
C6522 C6516 1.383 . S
C6522 C6521 1.379 . S
H6523 C6517 0.959 . S
H6524 C6517 0.961 . S
H6525 C6517 0.960 . S
H6526 C6518 0.930 . S
H6527 C6519 0.929 . S
H6528 C6536 0.929 . S
H6529 C6538 0.930 . S
H6530 C6540 0.930 . S
H6531 C6543 0.929 . S
H6532 C6546 0.930 . S
H6533 C6548 0.960 . S
H6534 C6548 0.960 . S
H6535 C6548 0.960 . S
C6536 H6528 0.929 . S
C6536 C6537 1.377 . S
C6536 C6538 1.384 . S
C6537 C6536 1.377 . S
C6537 C6543 1.390 . S
C6538 H6529 0.930 . S
C6538 C6536 1.384 . S
C6538 C6539 1.372 . S
C6539 C6538 1.372 . S
C6539 C6540 1.400 . S
C6539 C6544 1.490 . S
C6540 H6530 0.930 . S
C6540 C6539 1.400 . S
C6540 C6543 1.386 . S
H6541 C6557 0.930 . S
H6542 C6558 0.931 . S
C6543 H6531 0.929 . S
C6543 C6537 1.390 . S
C6543 C6540 1.386 . S
C6544 C6539 1.490 . S
C6544 C6546 1.395 . S
C6544 C6547 1.403 . S
H6545 C6551 0.930 . S
C6546 H6532 0.930 . S
C6546 C6544 1.395 . S
C6546 C6549 1.403 . S
C6547 C6544 1.403 . S
C6547 C6548 1.524 . S
C6547 C6551 1.400 . S
C6548 H6533 0.960 . S
C6548 H6534 0.960 . S
C6548 H6535 0.960 . S
C6548 C6547 1.524 . S
C6549 C6546 1.403 . S
C6549 C6550 1.392 . S
C6549 C6553 1.495 . S
C6550 C6549 1.392 . S
C6550 C6551 1.385 . S
C6550 C6552 1.478 . S
C6551 H6545 0.930 . S
C6551 C6547 1.400 . S
C6551 C6550 1.385 . S
C6552 C6550 1.478 . S
C6552 C6554 1.381 . S
C6552 C6558 1.383 . S
C6553 C6549 1.495 . S
C6553 H6559 0.959 . S
C6553 H6560 0.961 . S
C6553 H6561 0.960 . S
C6554 C6552 1.381 . S
C6554 C6555 1.394 . S
C6554 H6562 0.930 . S
C6555 C6554 1.394 . S
C6555 C6556 1.383 . S
C6555 H6563 0.929 . S
C6556 C6555 1.383 . S
C6556 C6557 1.377 . S
C6557 H6541 0.930 . S
C6557 C6556 1.377 . S
C6557 C6558 1.379 . S
C6558 H6542 0.931 . S
C6558 C6552 1.383 . S
C6558 C6557 1.379 . S
H6559 C6553 0.959 . S
H6560 C6553 0.961 . S
H6561 C6553 0.960 . S
H6562 C6554 0.930 . S
H6563 C6555 0.929 . S
H6564 C6572 0.929 . S
H6565 C6574 0.930 . S
H6566 C6576 0.930 . S
H6567 C6579 0.929 . S
H6568 C6582 0.930 . S
H6569 C6584 0.960 . S
H6570 C6584 0.960 . S
H6571 C6584 0.960 . S
C6572 H6564 0.929 . S
C6572 C6573 1.377 . S
C6572 C6574 1.384 . S
C6573 C6572 1.377 . S
C6573 C6579 1.390 . S
C6574 H6565 0.930 . S
C6574 C6572 1.384 . S
C6574 C6575 1.372 . S
C6575 C6574 1.372 . S
C6575 C6576 1.400 . S
C6575 C6580 1.490 . S
C6576 H6566 0.930 . S
C6576 C6575 1.400 . S
C6576 C6579 1.386 . S
H6577 C6593 0.930 . S
H6578 C6594 0.931 . S
C6579 H6567 0.929 . S
C6579 C6573 1.390 . S
C6579 C6576 1.386 . S
C6580 C6575 1.490 . S
C6580 C6582 1.395 . S
C6580 C6583 1.403 . S
H6581 C6587 0.930 . S
C6582 H6568 0.930 . S
C6582 C6580 1.395 . S
C6582 C6585 1.403 . S
C6583 C6580 1.403 . S
C6583 C6584 1.524 . S
C6583 C6587 1.400 . S
C6584 H6569 0.960 . S
C6584 H6570 0.960 . S
C6584 H6571 0.960 . S
C6584 C6583 1.524 . S
C6585 C6582 1.403 . S
C6585 C6586 1.392 . S
C6585 C6589 1.495 . S
C6586 C6585 1.392 . S
C6586 C6587 1.385 . S
C6586 C6588 1.478 . S
C6587 H6581 0.930 . S
C6587 C6583 1.400 . S
C6587 C6586 1.385 . S
C6588 C6586 1.478 . S
C6588 C6590 1.381 . S
C6588 C6594 1.383 . S
C6589 C6585 1.495 . S
C6589 H6595 0.959 . S
C6589 H6596 0.961 . S
C6589 H6597 0.960 . S
C6590 C6588 1.381 . S
C6590 C6591 1.394 . S
C6590 H6598 0.930 . S
C6591 C6590 1.394 . S
C6591 C6592 1.383 . S
C6591 H6599 0.929 . S
C6592 C6591 1.383 . S
C6592 C6593 1.377 . S
C6593 H6577 0.930 . S
C6593 C6592 1.377 . S
C6593 C6594 1.379 . S
C6594 H6578 0.931 . S
C6594 C6588 1.383 . S
C6594 C6593 1.379 . S
H6595 C6589 0.959 . S
H6596 C6589 0.961 . S
H6597 C6589 0.960 . S
H6598 C6590 0.930 . S
H6599 C6591 0.929 . S
H6600 C6608 0.929 . S
H6601 C6610 0.930 . S
H6602 C6612 0.930 . S
H6603 C6615 0.929 . S
H6604 C6618 0.930 . S
H6605 C6620 0.960 . S
H6606 C6620 0.960 . S
H6607 C6620 0.960 . S
C6608 H6600 0.929 . S
C6608 C6609 1.377 . S
C6608 C6610 1.384 . S
C6609 C6608 1.377 . S
C6609 C6615 1.390 . S
C6610 H6601 0.930 . S
C6610 C6608 1.384 . S
C6610 C6611 1.372 . S
C6611 C6610 1.372 . S
C6611 C6612 1.400 . S
C6611 C6616 1.490 . S
C6612 H6602 0.930 . S
C6612 C6611 1.400 . S
C6612 C6615 1.386 . S
H6613 C6629 0.930 . S
H6614 C6630 0.931 . S
C6615 H6603 0.929 . S
C6615 C6609 1.390 . S
C6615 C6612 1.386 . S
C6616 C6611 1.490 . S
C6616 C6618 1.395 . S
C6616 C6619 1.403 . S
H6617 C6623 0.930 . S
C6618 H6604 0.930 . S
C6618 C6616 1.395 . S
C6618 C6621 1.403 . S
C6619 C6616 1.403 . S
C6619 C6620 1.524 . S
C6619 C6623 1.400 . S
C6620 H6605 0.960 . S
C6620 H6606 0.960 . S
C6620 H6607 0.960 . S
C6620 C6619 1.524 . S
C6621 C6618 1.403 . S
C6621 C6622 1.392 . S
C6621 C6625 1.495 . S
C6622 C6621 1.392 . S
C6622 C6623 1.385 . S
C6622 C6624 1.478 . S
C6623 H6617 0.930 . S
C6623 C6619 1.400 . S
C6623 C6622 1.385 . S
C6624 C6622 1.478 . S
C6624 C6626 1.381 . S
C6624 C6630 1.383 . S
C6625 C6621 1.495 . S
C6625 H6631 0.959 . S
C6625 H6632 0.961 . S
C6625 H6633 0.960 . S
C6626 C6624 1.381 . S
C6626 C6627 1.394 . S
C6626 H6634 0.930 . S
C6627 C6626 1.394 . S
C6627 C6628 1.383 . S
C6627 H6635 0.929 . S
C6628 C6627 1.383 . S
C6628 C6629 1.377 . S
C6629 H6613 0.930 . S
C6629 C6628 1.377 . S
C6629 C6630 1.379 . S
C6630 H6614 0.931 . S
C6630 C6624 1.383 . S
C6630 C6629 1.379 . S
H6631 C6625 0.959 . S
H6632 C6625 0.961 . S
H6633 C6625 0.960 . S
H6634 C6626 0.930 . S
H6635 C6627 0.929 . S
H6636 C6644 0.929 . S
H6637 C6646 0.930 . S
H6638 C6648 0.930 . S
H6639 C6651 0.929 . S
H6640 C6654 0.930 . S
H6641 C6656 0.960 . S
H6642 C6656 0.960 . S
H6643 C6656 0.960 . S
C6644 H6636 0.929 . S
C6644 C6645 1.377 . S
C6644 C6646 1.384 . S
C6645 C6644 1.377 . S
C6645 C6651 1.390 . S
C6646 H6637 0.930 . S
C6646 C6644 1.384 . S
C6646 C6647 1.372 . S
C6647 C6646 1.372 . S
C6647 C6648 1.400 . S
C6647 C6652 1.490 . S
C6648 H6638 0.930 . S
C6648 C6647 1.400 . S
C6648 C6651 1.386 . S
H6649 C6665 0.930 . S
H6650 C6666 0.931 . S
C6651 H6639 0.929 . S
C6651 C6645 1.390 . S
C6651 C6648 1.386 . S
C6652 C6647 1.490 . S
C6652 C6654 1.395 . S
C6652 C6655 1.403 . S
H6653 C6659 0.930 . S
C6654 H6640 0.930 . S
C6654 C6652 1.395 . S
C6654 C6657 1.403 . S
C6655 C6652 1.403 . S
C6655 C6656 1.524 . S
C6655 C6659 1.400 . S
C6656 H6641 0.960 . S
C6656 H6642 0.960 . S
C6656 H6643 0.960 . S
C6656 C6655 1.524 . S
C6657 C6654 1.403 . S
C6657 C6658 1.392 . S
C6657 C6661 1.495 . S
C6658 C6657 1.392 . S
C6658 C6659 1.385 . S
C6658 C6660 1.478 . S
C6659 H6653 0.930 . S
C6659 C6655 1.400 . S
C6659 C6658 1.385 . S
C6660 C6658 1.478 . S
C6660 C6662 1.381 . S
C6660 C6666 1.383 . S
C6661 C6657 1.495 . S
C6661 H6667 0.959 . S
C6661 H6668 0.961 . S
C6661 H6669 0.960 . S
C6662 C6660 1.381 . S
C6662 C6663 1.394 . S
C6662 H6670 0.930 . S
C6663 C6662 1.394 . S
C6663 C6664 1.383 . S
C6663 H6671 0.929 . S
C6664 C6663 1.383 . S
C6664 C6665 1.377 . S
C6665 H6649 0.930 . S
C6665 C6664 1.377 . S
C6665 C6666 1.379 . S
C6666 H6650 0.931 . S
C6666 C6660 1.383 . S
C6666 C6665 1.379 . S
H6667 C6661 0.959 . S
H6668 C6661 0.961 . S
H6669 C6661 0.960 . S
H6670 C6662 0.930 . S
H6671 C6663 0.929 . S
H6672 C6680 0.929 . S
H6673 C6682 0.930 . S
H6674 C6684 0.930 . S
H6675 C6687 0.929 . S
H6676 C6690 0.930 . S
H6677 C6692 0.960 . S
H6678 C6692 0.960 . S
H6679 C6692 0.960 . S
C6680 H6672 0.929 . S
C6680 C6681 1.377 . S
C6680 C6682 1.384 . S
C6681 C6680 1.377 . S
C6681 C6687 1.390 . S
C6682 H6673 0.930 . S
C6682 C6680 1.384 . S
C6682 C6683 1.372 . S
C6683 C6682 1.372 . S
C6683 C6684 1.400 . S
C6683 C6688 1.490 . S
C6684 H6674 0.930 . S
C6684 C6683 1.400 . S
C6684 C6687 1.386 . S
H6685 C6701 0.930 . S
H6686 C6702 0.931 . S
C6687 H6675 0.929 . S
C6687 C6681 1.390 . S
C6687 C6684 1.386 . S
C6688 C6683 1.490 . S
C6688 C6690 1.395 . S
C6688 C6691 1.403 . S
H6689 C6695 0.930 . S
C6690 H6676 0.930 . S
C6690 C6688 1.395 . S
C6690 C6693 1.403 . S
C6691 C6688 1.403 . S
C6691 C6692 1.524 . S
C6691 C6695 1.400 . S
C6692 H6677 0.960 . S
C6692 H6678 0.960 . S
C6692 H6679 0.960 . S
C6692 C6691 1.524 . S
C6693 C6690 1.403 . S
C6693 C6694 1.392 . S
C6693 C6697 1.495 . S
C6694 C6693 1.392 . S
C6694 C6695 1.385 . S
C6694 C6696 1.478 . S
C6695 H6689 0.930 . S
C6695 C6691 1.400 . S
C6695 C6694 1.385 . S
C6696 C6694 1.478 . S
C6696 C6698 1.381 . S
C6696 C6702 1.383 . S
C6697 C6693 1.495 . S
C6697 H6703 0.959 . S
C6697 H6704 0.961 . S
C6697 H6705 0.960 . S
C6698 C6696 1.381 . S
C6698 C6699 1.394 . S
C6698 H6706 0.930 . S
C6699 C6698 1.394 . S
C6699 C6700 1.383 . S
C6699 H6707 0.929 . S
C6700 C6699 1.383 . S
C6700 C6701 1.377 . S
C6701 H6685 0.930 . S
C6701 C6700 1.377 . S
C6701 C6702 1.379 . S
C6702 H6686 0.931 . S
C6702 C6696 1.383 . S
C6702 C6701 1.379 . S
H6703 C6697 0.959 . S
H6704 C6697 0.961 . S
H6705 C6697 0.960 . S
H6706 C6698 0.930 . S
H6707 C6699 0.929 . S
H6708 C6716 0.929 . S
H6709 C6718 0.930 . S
H6710 C6720 0.930 . S
H6711 C6723 0.929 . S
H6712 C6726 0.930 . S
H6713 C6728 0.960 . S
H6714 C6728 0.960 . S
H6715 C6728 0.960 . S
C6716 H6708 0.929 . S
C6716 C6717 1.377 . S
C6716 C6718 1.384 . S
C6717 C6716 1.377 . S
C6717 C6723 1.390 . S
C6718 H6709 0.930 . S
C6718 C6716 1.384 . S
C6718 C6719 1.372 . S
C6719 C6718 1.372 . S
C6719 C6720 1.400 . S
C6719 C6724 1.490 . S
C6720 H6710 0.930 . S
C6720 C6719 1.400 . S
C6720 C6723 1.386 . S
H6721 C6737 0.930 . S
H6722 C6738 0.931 . S
C6723 H6711 0.929 . S
C6723 C6717 1.390 . S
C6723 C6720 1.386 . S
C6724 C6719 1.490 . S
C6724 C6726 1.395 . S
C6724 C6727 1.403 . S
H6725 C6731 0.930 . S
C6726 H6712 0.930 . S
C6726 C6724 1.395 . S
C6726 C6729 1.403 . S
C6727 C6724 1.403 . S
C6727 C6728 1.524 . S
C6727 C6731 1.400 . S
C6728 H6713 0.960 . S
C6728 H6714 0.960 . S
C6728 H6715 0.960 . S
C6728 C6727 1.524 . S
C6729 C6726 1.403 . S
C6729 C6730 1.392 . S
C6729 C6733 1.495 . S
C6730 C6729 1.392 . S
C6730 C6731 1.385 . S
C6730 C6732 1.478 . S
C6731 H6725 0.930 . S
C6731 C6727 1.400 . S
C6731 C6730 1.385 . S
C6732 C6730 1.478 . S
C6732 C6734 1.381 . S
C6732 C6738 1.383 . S
C6733 C6729 1.495 . S
C6733 H6739 0.959 . S
C6733 H6740 0.961 . S
C6733 H6741 0.960 . S
C6734 C6732 1.381 . S
C6734 C6735 1.394 . S
C6734 H6742 0.930 . S
C6735 C6734 1.394 . S
C6735 C6736 1.383 . S
C6735 H6743 0.929 . S
C6736 C6735 1.383 . S
C6736 C6737 1.377 . S
C6737 H6721 0.930 . S
C6737 C6736 1.377 . S
C6737 C6738 1.379 . S
C6738 H6722 0.931 . S
C6738 C6732 1.383 . S
C6738 C6737 1.379 . S
H6739 C6733 0.959 . S
H6740 C6733 0.961 . S
H6741 C6733 0.960 . S
H6742 C6734 0.930 . S
H6743 C6735 0.929 . S
H6744 C6752 0.929 . S
H6745 C6754 0.930 . S
H6746 C6756 0.930 . S
H6747 C6759 0.929 . S
H6748 C6762 0.930 . S
H6749 C6764 0.960 . S
H6750 C6764 0.960 . S
H6751 C6764 0.960 . S
C6752 H6744 0.929 . S
C6752 C6753 1.377 . S
C6752 C6754 1.384 . S
C6753 C6752 1.377 . S
C6753 C6759 1.390 . S
C6754 H6745 0.930 . S
C6754 C6752 1.384 . S
C6754 C6755 1.372 . S
C6755 C6754 1.372 . S
C6755 C6756 1.400 . S
C6755 C6760 1.490 . S
C6756 H6746 0.930 . S
C6756 C6755 1.400 . S
C6756 C6759 1.386 . S
H6757 C6773 0.930 . S
H6758 C6774 0.931 . S
C6759 H6747 0.929 . S
C6759 C6753 1.390 . S
C6759 C6756 1.386 . S
C6760 C6755 1.490 . S
C6760 C6762 1.395 . S
C6760 C6763 1.403 . S
H6761 C6767 0.930 . S
C6762 H6748 0.930 . S
C6762 C6760 1.395 . S
C6762 C6765 1.403 . S
C6763 C6760 1.403 . S
C6763 C6764 1.524 . S
C6763 C6767 1.400 . S
C6764 H6749 0.960 . S
C6764 H6750 0.960 . S
C6764 H6751 0.960 . S
C6764 C6763 1.524 . S
C6765 C6762 1.403 . S
C6765 C6766 1.392 . S
C6765 C6769 1.495 . S
C6766 C6765 1.392 . S
C6766 C6767 1.385 . S
C6766 C6768 1.478 . S
C6767 H6761 0.930 . S
C6767 C6763 1.400 . S
C6767 C6766 1.385 . S
C6768 C6766 1.478 . S
C6768 C6770 1.381 . S
C6768 C6774 1.383 . S
C6769 C6765 1.495 . S
C6769 H6775 0.959 . S
C6769 H6776 0.961 . S
C6769 H6777 0.960 . S
C6770 C6768 1.381 . S
C6770 C6771 1.394 . S
C6770 H6778 0.930 . S
C6771 C6770 1.394 . S
C6771 C6772 1.383 . S
C6771 H6779 0.929 . S
C6772 C6771 1.383 . S
C6772 C6773 1.377 . S
C6773 H6757 0.930 . S
C6773 C6772 1.377 . S
C6773 C6774 1.379 . S
C6774 H6758 0.931 . S
C6774 C6768 1.383 . S
C6774 C6773 1.379 . S
H6775 C6769 0.959 . S
H6776 C6769 0.961 . S
H6777 C6769 0.960 . S
H6778 C6770 0.930 . S
H6779 C6771 0.929 . S
H6780 C6788 0.929 . S
H6781 C6790 0.930 . S
H6782 C6792 0.930 . S
H6783 C6795 0.929 . S
H6784 C6798 0.930 . S
H6785 C6800 0.960 . S
H6786 C6800 0.960 . S
H6787 C6800 0.960 . S
C6788 H6780 0.929 . S
C6788 C6789 1.377 . S
C6788 C6790 1.384 . S
C6789 C6788 1.377 . S
C6789 C6795 1.390 . S
C6790 H6781 0.930 . S
C6790 C6788 1.384 . S
C6790 C6791 1.372 . S
C6791 C6790 1.372 . S
C6791 C6792 1.400 . S
C6791 C6796 1.490 . S
C6792 H6782 0.930 . S
C6792 C6791 1.400 . S
C6792 C6795 1.386 . S
H6793 C6809 0.930 . S
H6794 C6810 0.931 . S
C6795 H6783 0.929 . S
C6795 C6789 1.390 . S
C6795 C6792 1.386 . S
C6796 C6791 1.490 . S
C6796 C6798 1.395 . S
C6796 C6799 1.403 . S
H6797 C6803 0.930 . S
C6798 H6784 0.930 . S
C6798 C6796 1.395 . S
C6798 C6801 1.403 . S
C6799 C6796 1.403 . S
C6799 C6800 1.524 . S
C6799 C6803 1.400 . S
C6800 H6785 0.960 . S
C6800 H6786 0.960 . S
C6800 H6787 0.960 . S
C6800 C6799 1.524 . S
C6801 C6798 1.403 . S
C6801 C6802 1.392 . S
C6801 C6805 1.495 . S
C6802 C6801 1.392 . S
C6802 C6803 1.385 . S
C6802 C6804 1.478 . S
C6803 H6797 0.930 . S
C6803 C6799 1.400 . S
C6803 C6802 1.385 . S
C6804 C6802 1.478 . S
C6804 C6806 1.381 . S
C6804 C6810 1.383 . S
C6805 C6801 1.495 . S
C6805 H6811 0.959 . S
C6805 H6812 0.961 . S
C6805 H6813 0.960 . S
C6806 C6804 1.381 . S
C6806 C6807 1.394 . S
C6806 H6814 0.930 . S
C6807 C6806 1.394 . S
C6807 C6808 1.383 . S
C6807 H6815 0.929 . S
C6808 C6807 1.383 . S
C6808 C6809 1.377 . S
C6809 H6793 0.930 . S
C6809 C6808 1.377 . S
C6809 C6810 1.379 . S
C6810 H6794 0.931 . S
C6810 C6804 1.383 . S
C6810 C6809 1.379 . S
H6811 C6805 0.959 . S
H6812 C6805 0.961 . S
H6813 C6805 0.960 . S
H6814 C6806 0.930 . S
H6815 C6807 0.929 . S
H6816 C6824 0.929 . S
H6817 C6826 0.930 . S
H6818 C6828 0.930 . S
H6819 C6831 0.929 . S
H6820 C6834 0.930 . S
H6821 C6836 0.960 . S
H6822 C6836 0.960 . S
H6823 C6836 0.960 . S
C6824 H6816 0.929 . S
C6824 C6825 1.377 . S
C6824 C6826 1.384 . S
C6825 C6824 1.377 . S
C6825 C6831 1.390 . S
C6826 H6817 0.930 . S
C6826 C6824 1.384 . S
C6826 C6827 1.372 . S
C6827 C6826 1.372 . S
C6827 C6828 1.400 . S
C6827 C6832 1.490 . S
C6828 H6818 0.930 . S
C6828 C6827 1.400 . S
C6828 C6831 1.386 . S
H6829 C6845 0.930 . S
H6830 C6846 0.931 . S
C6831 H6819 0.929 . S
C6831 C6825 1.390 . S
C6831 C6828 1.386 . S
C6832 C6827 1.490 . S
C6832 C6834 1.395 . S
C6832 C6835 1.403 . S
H6833 C6839 0.930 . S
C6834 H6820 0.930 . S
C6834 C6832 1.395 . S
C6834 C6837 1.403 . S
C6835 C6832 1.403 . S
C6835 C6836 1.524 . S
C6835 C6839 1.400 . S
C6836 H6821 0.960 . S
C6836 H6822 0.960 . S
C6836 H6823 0.960 . S
C6836 C6835 1.524 . S
C6837 C6834 1.403 . S
C6837 C6838 1.392 . S
C6837 C6841 1.495 . S
C6838 C6837 1.392 . S
C6838 C6839 1.385 . S
C6838 C6840 1.478 . S
C6839 H6833 0.930 . S
C6839 C6835 1.400 . S
C6839 C6838 1.385 . S
C6840 C6838 1.478 . S
C6840 C6842 1.381 . S
C6840 C6846 1.383 . S
C6841 C6837 1.495 . S
C6841 H6847 0.959 . S
C6841 H6848 0.961 . S
C6841 H6849 0.960 . S
C6842 C6840 1.381 . S
C6842 C6843 1.394 . S
C6842 H6850 0.930 . S
C6843 C6842 1.394 . S
C6843 C6844 1.383 . S
C6843 H6851 0.929 . S
C6844 C6843 1.383 . S
C6844 C6845 1.377 . S
C6845 H6829 0.930 . S
C6845 C6844 1.377 . S
C6845 C6846 1.379 . S
C6846 H6830 0.931 . S
C6846 C6840 1.383 . S
C6846 C6845 1.379 . S
H6847 C6841 0.959 . S
H6848 C6841 0.961 . S
H6849 C6841 0.960 . S
H6850 C6842 0.930 . S
H6851 C6843 0.929 . S
H6852 C6860 0.929 . S
H6853 C6862 0.930 . S
H6854 C6864 0.930 . S
H6855 C6867 0.929 . S
H6856 C6870 0.930 . S
H6857 C6872 0.960 . S
H6858 C6872 0.960 . S
H6859 C6872 0.960 . S
C6860 H6852 0.929 . S
C6860 C6861 1.377 . S
C6860 C6862 1.384 . S
C6861 C6860 1.377 . S
C6861 C6867 1.390 . S
C6862 H6853 0.930 . S
C6862 C6860 1.384 . S
C6862 C6863 1.372 . S
C6863 C6862 1.372 . S
C6863 C6864 1.400 . S
C6863 C6868 1.490 . S
C6864 H6854 0.930 . S
C6864 C6863 1.400 . S
C6864 C6867 1.386 . S
H6865 C6881 0.930 . S
H6866 C6882 0.931 . S
C6867 H6855 0.929 . S
C6867 C6861 1.390 . S
C6867 C6864 1.386 . S
C6868 C6863 1.490 . S
C6868 C6870 1.395 . S
C6868 C6871 1.403 . S
H6869 C6875 0.930 . S
C6870 H6856 0.930 . S
C6870 C6868 1.395 . S
C6870 C6873 1.403 . S
C6871 C6868 1.403 . S
C6871 C6872 1.524 . S
C6871 C6875 1.400 . S
C6872 H6857 0.960 . S
C6872 H6858 0.960 . S
C6872 H6859 0.960 . S
C6872 C6871 1.524 . S
C6873 C6870 1.403 . S
C6873 C6874 1.392 . S
C6873 C6877 1.495 . S
C6874 C6873 1.392 . S
C6874 C6875 1.385 . S
C6874 C6876 1.478 . S
C6875 H6869 0.930 . S
C6875 C6871 1.400 . S
C6875 C6874 1.385 . S
C6876 C6874 1.478 . S
C6876 C6878 1.381 . S
C6876 C6882 1.383 . S
C6877 C6873 1.495 . S
C6877 H6883 0.959 . S
C6877 H6884 0.961 . S
C6877 H6885 0.960 . S
C6878 C6876 1.381 . S
C6878 C6879 1.394 . S
C6878 H6886 0.930 . S
C6879 C6878 1.394 . S
C6879 C6880 1.383 . S
C6879 H6887 0.929 . S
C6880 C6879 1.383 . S
C6880 C6881 1.377 . S
C6881 H6865 0.930 . S
C6881 C6880 1.377 . S
C6881 C6882 1.379 . S
C6882 H6866 0.931 . S
C6882 C6876 1.383 . S
C6882 C6881 1.379 . S
H6883 C6877 0.959 . S
H6884 C6877 0.961 . S
H6885 C6877 0.960 . S
H6886 C6878 0.930 . S
H6887 C6879 0.929 . S
H6888 C6896 0.929 . S
H6889 C6898 0.930 . S
H6890 C6900 0.930 . S
H6891 C6903 0.929 . S
H6892 C6906 0.930 . S
H6893 C6908 0.960 . S
H6894 C6908 0.960 . S
H6895 C6908 0.960 . S
C6896 H6888 0.929 . S
C6896 C6897 1.377 . S
C6896 C6898 1.384 . S
C6897 C6896 1.377 . S
C6897 C6903 1.390 . S
C6898 H6889 0.930 . S
C6898 C6896 1.384 . S
C6898 C6899 1.372 . S
C6899 C6898 1.372 . S
C6899 C6900 1.400 . S
C6899 C6904 1.490 . S
C6900 H6890 0.930 . S
C6900 C6899 1.400 . S
C6900 C6903 1.386 . S
H6901 C6917 0.930 . S
H6902 C6918 0.931 . S
C6903 H6891 0.929 . S
C6903 C6897 1.390 . S
C6903 C6900 1.386 . S
C6904 C6899 1.490 . S
C6904 C6906 1.395 . S
C6904 C6907 1.403 . S
H6905 C6911 0.930 . S
C6906 H6892 0.930 . S
C6906 C6904 1.395 . S
C6906 C6909 1.403 . S
C6907 C6904 1.403 . S
C6907 C6908 1.524 . S
C6907 C6911 1.400 . S
C6908 H6893 0.960 . S
C6908 H6894 0.960 . S
C6908 H6895 0.960 . S
C6908 C6907 1.524 . S
C6909 C6906 1.403 . S
C6909 C6910 1.392 . S
C6909 C6913 1.495 . S
C6910 C6909 1.392 . S
C6910 C6911 1.385 . S
C6910 C6912 1.478 . S
C6911 H6905 0.930 . S
C6911 C6907 1.400 . S
C6911 C6910 1.385 . S
C6912 C6910 1.478 . S
C6912 C6914 1.381 . S
C6912 C6918 1.383 . S
C6913 C6909 1.495 . S
C6913 H6919 0.959 . S
C6913 H6920 0.961 . S
C6913 H6921 0.960 . S
C6914 C6912 1.381 . S
C6914 C6915 1.394 . S
C6914 H6922 0.930 . S
C6915 C6914 1.394 . S
C6915 C6916 1.383 . S
C6915 H6923 0.929 . S
C6916 C6915 1.383 . S
C6916 C6917 1.377 . S
C6917 H6901 0.930 . S
C6917 C6916 1.377 . S
C6917 C6918 1.379 . S
C6918 H6902 0.931 . S
C6918 C6912 1.383 . S
C6918 C6917 1.379 . S
H6919 C6913 0.959 . S
H6920 C6913 0.961 . S
H6921 C6913 0.960 . S
H6922 C6914 0.930 . S
H6923 C6915 0.929 . S
H6924 C6932 0.929 . S
H6925 C6934 0.930 . S
H6926 C6936 0.930 . S
H6927 C6939 0.929 . S
H6928 C6942 0.930 . S
H6929 C6944 0.960 . S
H6930 C6944 0.960 . S
H6931 C6944 0.960 . S
C6932 H6924 0.929 . S
C6932 C6933 1.377 . S
C6932 C6934 1.384 . S
C6933 C6932 1.377 . S
C6933 C6939 1.390 . S
C6934 H6925 0.930 . S
C6934 C6932 1.384 . S
C6934 C6935 1.372 . S
C6935 C6934 1.372 . S
C6935 C6936 1.400 . S
C6935 C6940 1.490 . S
C6936 H6926 0.930 . S
C6936 C6935 1.400 . S
C6936 C6939 1.386 . S
H6937 C6953 0.930 . S
H6938 C6954 0.931 . S
C6939 H6927 0.929 . S
C6939 C6933 1.390 . S
C6939 C6936 1.386 . S
C6940 C6935 1.490 . S
C6940 C6942 1.395 . S
C6940 C6943 1.403 . S
H6941 C6947 0.930 . S
C6942 H6928 0.930 . S
C6942 C6940 1.395 . S
C6942 C6945 1.403 . S
C6943 C6940 1.403 . S
C6943 C6944 1.524 . S
C6943 C6947 1.400 . S
C6944 H6929 0.960 . S
C6944 H6930 0.960 . S
C6944 H6931 0.960 . S
C6944 C6943 1.524 . S
C6945 C6942 1.403 . S
C6945 C6946 1.392 . S
C6945 C6949 1.495 . S
C6946 C6945 1.392 . S
C6946 C6947 1.385 . S
C6946 C6948 1.478 . S
C6947 H6941 0.930 . S
C6947 C6943 1.400 . S
C6947 C6946 1.385 . S
C6948 C6946 1.478 . S
C6948 C6950 1.381 . S
C6948 C6954 1.383 . S
C6949 C6945 1.495 . S
C6949 H6955 0.959 . S
C6949 H6956 0.961 . S
C6949 H6957 0.960 . S
C6950 C6948 1.381 . S
C6950 C6951 1.394 . S
C6950 H6958 0.930 . S
C6951 C6950 1.394 . S
C6951 C6952 1.383 . S
C6951 H6959 0.929 . S
C6952 C6951 1.383 . S
C6952 C6953 1.377 . S
C6953 H6937 0.930 . S
C6953 C6952 1.377 . S
C6953 C6954 1.379 . S
C6954 H6938 0.931 . S
C6954 C6948 1.383 . S
C6954 C6953 1.379 . S
H6955 C6949 0.959 . S
H6956 C6949 0.961 . S
H6957 C6949 0.960 . S
H6958 C6950 0.930 . S
H6959 C6951 0.929 . S
H6960 C6968 0.929 . S
H6961 C6970 0.930 . S
H6962 C6972 0.930 . S
H6963 C6975 0.929 . S
H6964 C6978 0.930 . S
H6965 C6980 0.960 . S
H6966 C6980 0.960 . S
H6967 C6980 0.960 . S
C6968 H6960 0.929 . S
C6968 C6969 1.377 . S
C6968 C6970 1.384 . S
C6969 C6968 1.377 . S
C6969 C6975 1.390 . S
C6970 H6961 0.930 . S
C6970 C6968 1.384 . S
C6970 C6971 1.372 . S
C6971 C6970 1.372 . S
C6971 C6972 1.400 . S
C6971 C6976 1.490 . S
C6972 H6962 0.930 . S
C6972 C6971 1.400 . S
C6972 C6975 1.386 . S
H6973 C6989 0.930 . S
H6974 C6990 0.931 . S
C6975 H6963 0.929 . S
C6975 C6969 1.390 . S
C6975 C6972 1.386 . S
C6976 C6971 1.490 . S
C6976 C6978 1.395 . S
C6976 C6979 1.403 . S
H6977 C6983 0.930 . S
C6978 H6964 0.930 . S
C6978 C6976 1.395 . S
C6978 C6981 1.403 . S
C6979 C6976 1.403 . S
C6979 C6980 1.524 . S
C6979 C6983 1.400 . S
C6980 H6965 0.960 . S
C6980 H6966 0.960 . S
C6980 H6967 0.960 . S
C6980 C6979 1.524 . S
C6981 C6978 1.403 . S
C6981 C6982 1.392 . S
C6981 C6985 1.495 . S
C6982 C6981 1.392 . S
C6982 C6983 1.385 . S
C6982 C6984 1.478 . S
C6983 H6977 0.930 . S
C6983 C6979 1.400 . S
C6983 C6982 1.385 . S
C6984 C6982 1.478 . S
C6984 C6986 1.381 . S
C6984 C6990 1.383 . S
C6985 C6981 1.495 . S
C6985 H6991 0.959 . S
C6985 H6992 0.961 . S
C6985 H6993 0.960 . S
C6986 C6984 1.381 . S
C6986 C6987 1.394 . S
C6986 H6994 0.930 . S
C6987 C6986 1.394 . S
C6987 C6988 1.383 . S
C6987 H6995 0.929 . S
C6988 C6987 1.383 . S
C6988 C6989 1.377 . S
C6989 H6973 0.930 . S
C6989 C6988 1.377 . S
C6989 C6990 1.379 . S
C6990 H6974 0.931 . S
C6990 C6984 1.383 . S
C6990 C6989 1.379 . S
H6991 C6985 0.959 . S
H6992 C6985 0.961 . S
H6993 C6985 0.960 . S
H6994 C6986 0.930 . S
H6995 C6987 0.929 . S
H6996 C7004 0.929 . S
H6997 C7006 0.930 . S
H6998 C7008 0.930 . S
H6999 C7011 0.929 . S
H7000 C7014 0.930 . S
H7001 C7016 0.960 . S
H7002 C7016 0.960 . S
H7003 C7016 0.960 . S
C7004 H6996 0.929 . S
C7004 C7005 1.377 . S
C7004 C7006 1.384 . S
C7005 C7004 1.377 . S
C7005 C7011 1.390 . S
C7006 H6997 0.930 . S
C7006 C7004 1.384 . S
C7006 C7007 1.372 . S
C7007 C7006 1.372 . S
C7007 C7008 1.400 . S
C7007 C7012 1.490 . S
C7008 H6998 0.930 . S
C7008 C7007 1.400 . S
C7008 C7011 1.386 . S
H7009 C7025 0.930 . S
H7010 C7026 0.931 . S
C7011 H6999 0.929 . S
C7011 C7005 1.390 . S
C7011 C7008 1.386 . S
C7012 C7007 1.490 . S
C7012 C7014 1.395 . S
C7012 C7015 1.403 . S
H7013 C7019 0.930 . S
C7014 H7000 0.930 . S
C7014 C7012 1.395 . S
C7014 C7017 1.403 . S
C7015 C7012 1.403 . S
C7015 C7016 1.524 . S
C7015 C7019 1.400 . S
C7016 H7001 0.960 . S
C7016 H7002 0.960 . S
C7016 H7003 0.960 . S
C7016 C7015 1.524 . S
C7017 C7014 1.403 . S
C7017 C7018 1.392 . S
C7017 C7021 1.495 . S
C7018 C7017 1.392 . S
C7018 C7019 1.385 . S
C7018 C7020 1.478 . S
C7019 H7013 0.930 . S
C7019 C7015 1.400 . S
C7019 C7018 1.385 . S
C7020 C7018 1.478 . S
C7020 C7022 1.381 . S
C7020 C7026 1.383 . S
C7021 C7017 1.495 . S
C7021 H7027 0.959 . S
C7021 H7028 0.961 . S
C7021 H7029 0.960 . S
C7022 C7020 1.381 . S
C7022 C7023 1.394 . S
C7022 H7030 0.930 . S
C7023 C7022 1.394 . S
C7023 C7024 1.383 . S
C7023 H7031 0.929 . S
C7024 C7023 1.383 . S
C7024 C7025 1.377 . S
C7025 H7009 0.930 . S
C7025 C7024 1.377 . S
C7025 C7026 1.379 . S
C7026 H7010 0.931 . S
C7026 C7020 1.383 . S
C7026 C7025 1.379 . S
H7027 C7021 0.959 . S
H7028 C7021 0.961 . S
H7029 C7021 0.960 . S
H7030 C7022 0.930 . S
H7031 C7023 0.929 . S
H7032 C7040 0.929 . S
H7033 C7042 0.930 . S
H7034 C7044 0.930 . S
H7035 C7047 0.929 . S
H7036 C7050 0.930 . S
H7037 C7052 0.960 . S
H7038 C7052 0.960 . S
H7039 C7052 0.960 . S
C7040 H7032 0.929 . S
C7040 C7041 1.377 . S
C7040 C7042 1.384 . S
C7041 C7040 1.377 . S
C7041 C7047 1.390 . S
C7042 H7033 0.930 . S
C7042 C7040 1.384 . S
C7042 C7043 1.372 . S
C7043 C7042 1.372 . S
C7043 C7044 1.400 . S
C7043 C7048 1.490 . S
C7044 H7034 0.930 . S
C7044 C7043 1.400 . S
C7044 C7047 1.386 . S
H7045 C7061 0.930 . S
H7046 C7062 0.931 . S
C7047 H7035 0.929 . S
C7047 C7041 1.390 . S
C7047 C7044 1.386 . S
C7048 C7043 1.490 . S
C7048 C7050 1.395 . S
C7048 C7051 1.403 . S
H7049 C7055 0.930 . S
C7050 H7036 0.930 . S
C7050 C7048 1.395 . S
C7050 C7053 1.403 . S
C7051 C7048 1.403 . S
C7051 C7052 1.524 . S
C7051 C7055 1.400 . S
C7052 H7037 0.960 . S
C7052 H7038 0.960 . S
C7052 H7039 0.960 . S
C7052 C7051 1.524 . S
C7053 C7050 1.403 . S
C7053 C7054 1.392 . S
C7053 C7057 1.495 . S
C7054 C7053 1.392 . S
C7054 C7055 1.385 . S
C7054 C7056 1.478 . S
C7055 H7049 0.930 . S
C7055 C7051 1.400 . S
C7055 C7054 1.385 . S
C7056 C7054 1.478 . S
C7056 C7058 1.381 . S
C7056 C7062 1.383 . S
C7057 C7053 1.495 . S
C7057 H7063 0.959 . S
C7057 H7064 0.961 . S
C7057 H7065 0.960 . S
C7058 C7056 1.381 . S
C7058 C7059 1.394 . S
C7058 H7066 0.930 . S
C7059 C7058 1.394 . S
C7059 C7060 1.383 . S
C7059 H7067 0.929 . S
C7060 C7059 1.383 . S
C7060 C7061 1.377 . S
C7061 H7045 0.930 . S
C7061 C7060 1.377 . S
C7061 C7062 1.379 . S
C7062 H7046 0.931 . S
C7062 C7056 1.383 . S
C7062 C7061 1.379 . S
H7063 C7057 0.959 . S
H7064 C7057 0.961 . S
H7065 C7057 0.960 . S
H7066 C7058 0.930 . S
H7067 C7059 0.929 . S
H7068 C7076 0.929 . S
H7069 C7078 0.930 . S
H7070 C7080 0.930 . S
H7071 C7083 0.929 . S
H7072 C7086 0.930 . S
H7073 C7088 0.960 . S
H7074 C7088 0.960 . S
H7075 C7088 0.960 . S
C7076 H7068 0.929 . S
C7076 C7077 1.377 . S
C7076 C7078 1.384 . S
C7077 C7076 1.377 . S
C7077 C7083 1.390 . S
C7078 H7069 0.930 . S
C7078 C7076 1.384 . S
C7078 C7079 1.372 . S
C7079 C7078 1.372 . S
C7079 C7080 1.400 . S
C7079 C7084 1.490 . S
C7080 H7070 0.930 . S
C7080 C7079 1.400 . S
C7080 C7083 1.386 . S
H7081 C7097 0.930 . S
H7082 C7098 0.931 . S
C7083 H7071 0.929 . S
C7083 C7077 1.390 . S
C7083 C7080 1.386 . S
C7084 C7079 1.490 . S
C7084 C7086 1.395 . S
C7084 C7087 1.403 . S
H7085 C7091 0.930 . S
C7086 H7072 0.930 . S
C7086 C7084 1.395 . S
C7086 C7089 1.403 . S
C7087 C7084 1.403 . S
C7087 C7088 1.524 . S
C7087 C7091 1.400 . S
C7088 H7073 0.960 . S
C7088 H7074 0.960 . S
C7088 H7075 0.960 . S
C7088 C7087 1.524 . S
C7089 C7086 1.403 . S
C7089 C7090 1.392 . S
C7089 C7093 1.495 . S
C7090 C7089 1.392 . S
C7090 C7091 1.385 . S
C7090 C7092 1.478 . S
C7091 H7085 0.930 . S
C7091 C7087 1.400 . S
C7091 C7090 1.385 . S
C7092 C7090 1.478 . S
C7092 C7094 1.381 . S
C7092 C7098 1.383 . S
C7093 C7089 1.495 . S
C7093 H7099 0.959 . S
C7093 H7100 0.961 . S
C7093 H7101 0.960 . S
C7094 C7092 1.381 . S
C7094 C7095 1.394 . S
C7094 H7102 0.930 . S
C7095 C7094 1.394 . S
C7095 C7096 1.383 . S
C7095 H7103 0.929 . S
C7096 C7095 1.383 . S
C7096 C7097 1.377 . S
C7097 H7081 0.930 . S
C7097 C7096 1.377 . S
C7097 C7098 1.379 . S
C7098 H7082 0.931 . S
C7098 C7092 1.383 . S
C7098 C7097 1.379 . S
H7099 C7093 0.959 . S
H7100 C7093 0.961 . S
H7101 C7093 0.960 . S
H7102 C7094 0.930 . S
H7103 C7095 0.929 . S
H7104 C7112 0.929 . S
H7105 C7114 0.930 . S
H7106 C7116 0.930 . S
H7107 C7119 0.929 . S
H7108 C7122 0.930 . S
H7109 C7124 0.960 . S
H7110 C7124 0.960 . S
H7111 C7124 0.960 . S
C7112 H7104 0.929 . S
C7112 C7113 1.377 . S
C7112 C7114 1.384 . S
C7113 C7112 1.377 . S
C7113 C7119 1.390 . S
C7114 H7105 0.930 . S
C7114 C7112 1.384 . S
C7114 C7115 1.372 . S
C7115 C7114 1.372 . S
C7115 C7116 1.400 . S
C7115 C7120 1.490 . S
C7116 H7106 0.930 . S
C7116 C7115 1.400 . S
C7116 C7119 1.386 . S
H7117 C7133 0.930 . S
H7118 C7134 0.931 . S
C7119 H7107 0.929 . S
C7119 C7113 1.390 . S
C7119 C7116 1.386 . S
C7120 C7115 1.490 . S
C7120 C7122 1.395 . S
C7120 C7123 1.403 . S
H7121 C7127 0.930 . S
C7122 H7108 0.930 . S
C7122 C7120 1.395 . S
C7122 C7125 1.403 . S
C7123 C7120 1.403 . S
C7123 C7124 1.524 . S
C7123 C7127 1.400 . S
C7124 H7109 0.960 . S
C7124 H7110 0.960 . S
C7124 H7111 0.960 . S
C7124 C7123 1.524 . S
C7125 C7122 1.403 . S
C7125 C7126 1.392 . S
C7125 C7129 1.495 . S
C7126 C7125 1.392 . S
C7126 C7127 1.385 . S
C7126 C7128 1.478 . S
C7127 H7121 0.930 . S
C7127 C7123 1.400 . S
C7127 C7126 1.385 . S
C7128 C7126 1.478 . S
C7128 C7130 1.381 . S
C7128 C7134 1.383 . S
C7129 C7125 1.495 . S
C7129 H7135 0.959 . S
C7129 H7136 0.961 . S
C7129 H7137 0.960 . S
C7130 C7128 1.381 . S
C7130 C7131 1.394 . S
C7130 H7138 0.930 . S
C7131 C7130 1.394 . S
C7131 C7132 1.383 . S
C7131 H7139 0.929 . S
C7132 C7131 1.383 . S
C7132 C7133 1.377 . S
C7133 H7117 0.930 . S
C7133 C7132 1.377 . S
C7133 C7134 1.379 . S
C7134 H7118 0.931 . S
C7134 C7128 1.383 . S
C7134 C7133 1.379 . S
H7135 C7129 0.959 . S
H7136 C7129 0.961 . S
H7137 C7129 0.960 . S
H7138 C7130 0.930 . S
H7139 C7131 0.929 . S
H7140 C7148 0.929 . S
H7141 C7150 0.930 . S
H7142 C7152 0.930 . S
H7143 C7155 0.929 . S
H7144 C7158 0.930 . S
H7145 C7160 0.960 . S
H7146 C7160 0.960 . S
H7147 C7160 0.960 . S
C7148 H7140 0.929 . S
C7148 C7149 1.377 . S
C7148 C7150 1.384 . S
C7149 C7148 1.377 . S
C7149 C7155 1.390 . S
C7150 H7141 0.930 . S
C7150 C7148 1.384 . S
C7150 C7151 1.372 . S
C7151 C7150 1.372 . S
C7151 C7152 1.400 . S
C7151 C7156 1.490 . S
C7152 H7142 0.930 . S
C7152 C7151 1.400 . S
C7152 C7155 1.386 . S
H7153 C7169 0.930 . S
H7154 C7170 0.931 . S
C7155 H7143 0.929 . S
C7155 C7149 1.390 . S
C7155 C7152 1.386 . S
C7156 C7151 1.490 . S
C7156 C7158 1.395 . S
C7156 C7159 1.403 . S
H7157 C7163 0.930 . S
C7158 H7144 0.930 . S
C7158 C7156 1.395 . S
C7158 C7161 1.403 . S
C7159 C7156 1.403 . S
C7159 C7160 1.524 . S
C7159 C7163 1.400 . S
C7160 H7145 0.960 . S
C7160 H7146 0.960 . S
C7160 H7147 0.960 . S
C7160 C7159 1.524 . S
C7161 C7158 1.403 . S
C7161 C7162 1.392 . S
C7161 C7165 1.495 . S
C7162 C7161 1.392 . S
C7162 C7163 1.385 . S
C7162 C7164 1.478 . S
C7163 H7157 0.930 . S
C7163 C7159 1.400 . S
C7163 C7162 1.385 . S
C7164 C7162 1.478 . S
C7164 C7166 1.381 . S
C7164 C7170 1.383 . S
C7165 C7161 1.495 . S
C7165 H7171 0.959 . S
C7165 H7172 0.961 . S
C7165 H7173 0.960 . S
C7166 C7164 1.381 . S
C7166 C7167 1.394 . S
C7166 H7174 0.930 . S
C7167 C7166 1.394 . S
C7167 C7168 1.383 . S
C7167 H7175 0.929 . S
C7168 C7167 1.383 . S
C7168 C7169 1.377 . S
C7169 H7153 0.930 . S
C7169 C7168 1.377 . S
C7169 C7170 1.379 . S
C7170 H7154 0.931 . S
C7170 C7164 1.383 . S
C7170 C7169 1.379 . S
H7171 C7165 0.959 . S
H7172 C7165 0.961 . S
H7173 C7165 0.960 . S
H7174 C7166 0.930 . S
H7175 C7167 0.929 . S
H7176 C7184 0.929 . S
H7177 C7186 0.930 . S
H7178 C7188 0.930 . S
H7179 C7191 0.929 . S
H7180 C7194 0.930 . S
H7181 C7196 0.960 . S
H7182 C7196 0.960 . S
H7183 C7196 0.960 . S
C7184 H7176 0.929 . S
C7184 C7185 1.377 . S
C7184 C7186 1.384 . S
C7185 C7184 1.377 . S
C7185 C7191 1.390 . S
C7186 H7177 0.930 . S
C7186 C7184 1.384 . S
C7186 C7187 1.372 . S
C7187 C7186 1.372 . S
C7187 C7188 1.400 . S
C7187 C7192 1.490 . S
C7188 H7178 0.930 . S
C7188 C7187 1.400 . S
C7188 C7191 1.386 . S
H7189 C7205 0.930 . S
H7190 C7206 0.931 . S
C7191 H7179 0.929 . S
C7191 C7185 1.390 . S
C7191 C7188 1.386 . S
C7192 C7187 1.490 . S
C7192 C7194 1.395 . S
C7192 C7195 1.403 . S
H7193 C7199 0.930 . S
C7194 H7180 0.930 . S
C7194 C7192 1.395 . S
C7194 C7197 1.403 . S
C7195 C7192 1.403 . S
C7195 C7196 1.524 . S
C7195 C7199 1.400 . S
C7196 H7181 0.960 . S
C7196 H7182 0.960 . S
C7196 H7183 0.960 . S
C7196 C7195 1.524 . S
C7197 C7194 1.403 . S
C7197 C7198 1.392 . S
C7197 C7201 1.495 . S
C7198 C7197 1.392 . S
C7198 C7199 1.385 . S
C7198 C7200 1.478 . S
C7199 H7193 0.930 . S
C7199 C7195 1.400 . S
C7199 C7198 1.385 . S
C7200 C7198 1.478 . S
C7200 C7202 1.381 . S
C7200 C7206 1.383 . S
C7201 C7197 1.495 . S
C7201 H7207 0.959 . S
C7201 H7208 0.961 . S
C7201 H7209 0.960 . S
C7202 C7200 1.381 . S
C7202 C7203 1.394 . S
C7202 H7210 0.930 . S
C7203 C7202 1.394 . S
C7203 C7204 1.383 . S
C7203 H7211 0.929 . S
C7204 C7203 1.383 . S
C7204 C7205 1.377 . S
C7205 H7189 0.930 . S
C7205 C7204 1.377 . S
C7205 C7206 1.379 . S
C7206 H7190 0.931 . S
C7206 C7200 1.383 . S
C7206 C7205 1.379 . S
H7207 C7201 0.959 . S
H7208 C7201 0.961 . S
H7209 C7201 0.960 . S
H7210 C7202 0.930 . S
H7211 C7203 0.929 . S
H7212 C7220 0.929 . S
H7213 C7222 0.930 . S
H7214 C7224 0.930 . S
H7215 C7227 0.929 . S
H7216 C7230 0.930 . S
H7217 C7232 0.960 . S
H7218 C7232 0.960 . S
H7219 C7232 0.960 . S
C7220 H7212 0.929 . S
C7220 C7221 1.377 . S
C7220 C7222 1.384 . S
C7221 C7220 1.377 . S
C7221 C7227 1.390 . S
C7222 H7213 0.930 . S
C7222 C7220 1.384 . S
C7222 C7223 1.372 . S
C7223 C7222 1.372 . S
C7223 C7224 1.400 . S
C7223 C7228 1.490 . S
C7224 H7214 0.930 . S
C7224 C7223 1.400 . S
C7224 C7227 1.386 . S
H7225 C7241 0.930 . S
H7226 C7242 0.931 . S
C7227 H7215 0.929 . S
C7227 C7221 1.390 . S
C7227 C7224 1.386 . S
C7228 C7223 1.490 . S
C7228 C7230 1.395 . S
C7228 C7231 1.403 . S
H7229 C7235 0.930 . S
C7230 H7216 0.930 . S
C7230 C7228 1.395 . S
C7230 C7233 1.403 . S
C7231 C7228 1.403 . S
C7231 C7232 1.524 . S
C7231 C7235 1.400 . S
C7232 H7217 0.960 . S
C7232 H7218 0.960 . S
C7232 H7219 0.960 . S
C7232 C7231 1.524 . S
C7233 C7230 1.403 . S
C7233 C7234 1.392 . S
C7233 C7237 1.495 . S
C7234 C7233 1.392 . S
C7234 C7235 1.385 . S
C7234 C7236 1.478 . S
C7235 H7229 0.930 . S
C7235 C7231 1.400 . S
C7235 C7234 1.385 . S
C7236 C7234 1.478 . S
C7236 C7238 1.381 . S
C7236 C7242 1.383 . S
C7237 C7233 1.495 . S
C7237 H7243 0.959 . S
C7237 H7244 0.961 . S
C7237 H7245 0.960 . S
C7238 C7236 1.381 . S
C7238 C7239 1.394 . S
C7238 H7246 0.930 . S
C7239 C7238 1.394 . S
C7239 C7240 1.383 . S
C7239 H7247 0.929 . S
C7240 C7239 1.383 . S
C7240 C7241 1.377 . S
C7241 H7225 0.930 . S
C7241 C7240 1.377 . S
C7241 C7242 1.379 . S
C7242 H7226 0.931 . S
C7242 C7236 1.383 . S
C7242 C7241 1.379 . S
H7243 C7237 0.959 . S
H7244 C7237 0.961 . S
H7245 C7237 0.960 . S
H7246 C7238 0.930 . S
H7247 C7239 0.929 . S
H7248 C7256 0.929 . S
H7249 C7258 0.930 . S
H7250 C7260 0.930 . S
H7251 C7263 0.929 . S
H7252 C7266 0.930 . S
H7253 C7268 0.960 . S
H7254 C7268 0.960 . S
H7255 C7268 0.960 . S
C7256 H7248 0.929 . S
C7256 C7257 1.377 . S
C7256 C7258 1.384 . S
C7257 C7256 1.377 . S
C7257 C7263 1.390 . S
C7258 H7249 0.930 . S
C7258 C7256 1.384 . S
C7258 C7259 1.372 . S
C7259 C7258 1.372 . S
C7259 C7260 1.400 . S
C7259 C7264 1.490 . S
C7260 H7250 0.930 . S
C7260 C7259 1.400 . S
C7260 C7263 1.386 . S
H7261 C7277 0.930 . S
H7262 C7278 0.931 . S
C7263 H7251 0.929 . S
C7263 C7257 1.390 . S
C7263 C7260 1.386 . S
C7264 C7259 1.490 . S
C7264 C7266 1.395 . S
C7264 C7267 1.403 . S
H7265 C7271 0.930 . S
C7266 H7252 0.930 . S
C7266 C7264 1.395 . S
C7266 C7269 1.403 . S
C7267 C7264 1.403 . S
C7267 C7268 1.524 . S
C7267 C7271 1.400 . S
C7268 H7253 0.960 . S
C7268 H7254 0.960 . S
C7268 H7255 0.960 . S
C7268 C7267 1.524 . S
C7269 C7266 1.403 . S
C7269 C7270 1.392 . S
C7269 C7273 1.495 . S
C7270 C7269 1.392 . S
C7270 C7271 1.385 . S
C7270 C7272 1.478 . S
C7271 H7265 0.930 . S
C7271 C7267 1.400 . S
C7271 C7270 1.385 . S
C7272 C7270 1.478 . S
C7272 C7274 1.381 . S
C7272 C7278 1.383 . S
C7273 C7269 1.495 . S
C7273 H7279 0.959 . S
C7273 H7280 0.961 . S
C7273 H7281 0.960 . S
C7274 C7272 1.381 . S
C7274 C7275 1.394 . S
C7274 H7282 0.930 . S
C7275 C7274 1.394 . S
C7275 C7276 1.383 . S
C7275 H7283 0.929 . S
C7276 C7275 1.383 . S
C7276 C7277 1.377 . S
C7277 H7261 0.930 . S
C7277 C7276 1.377 . S
C7277 C7278 1.379 . S
C7278 H7262 0.931 . S
C7278 C7272 1.383 . S
C7278 C7277 1.379 . S
H7279 C7273 0.959 . S
H7280 C7273 0.961 . S
H7281 C7273 0.960 . S
H7282 C7274 0.930 . S
H7283 C7275 0.929 . S
H7284 C7292 0.929 . S
H7285 C7294 0.930 . S
H7286 C7296 0.930 . S
H7287 C7299 0.929 . S
H7288 C7302 0.930 . S
H7289 C7304 0.960 . S
H7290 C7304 0.960 . S
H7291 C7304 0.960 . S
C7292 H7284 0.929 . S
C7292 C7293 1.377 . S
C7292 C7294 1.384 . S
C7293 C7292 1.377 . S
C7293 C7299 1.390 . S
C7294 H7285 0.930 . S
C7294 C7292 1.384 . S
C7294 C7295 1.372 . S
C7295 C7294 1.372 . S
C7295 C7296 1.400 . S
C7295 C7300 1.490 . S
C7296 H7286 0.930 . S
C7296 C7295 1.400 . S
C7296 C7299 1.386 . S
H7297 C7313 0.930 . S
H7298 C7314 0.931 . S
C7299 H7287 0.929 . S
C7299 C7293 1.390 . S
C7299 C7296 1.386 . S
C7300 C7295 1.490 . S
C7300 C7302 1.395 . S
C7300 C7303 1.403 . S
H7301 C7307 0.930 . S
C7302 H7288 0.930 . S
C7302 C7300 1.395 . S
C7302 C7305 1.403 . S
C7303 C7300 1.403 . S
C7303 C7304 1.524 . S
C7303 C7307 1.400 . S
C7304 H7289 0.960 . S
C7304 H7290 0.960 . S
C7304 H7291 0.960 . S
C7304 C7303 1.524 . S
C7305 C7302 1.403 . S
C7305 C7306 1.392 . S
C7305 C7309 1.495 . S
C7306 C7305 1.392 . S
C7306 C7307 1.385 . S
C7306 C7308 1.478 . S
C7307 H7301 0.930 . S
C7307 C7303 1.400 . S
C7307 C7306 1.385 . S
C7308 C7306 1.478 . S
C7308 C7310 1.381 . S
C7308 C7314 1.383 . S
C7309 C7305 1.495 . S
C7309 H7315 0.959 . S
C7309 H7316 0.961 . S
C7309 H7317 0.960 . S
C7310 C7308 1.381 . S
C7310 C7311 1.394 . S
C7310 H7318 0.930 . S
C7311 C7310 1.394 . S
C7311 C7312 1.383 . S
C7311 H7319 0.929 . S
C7312 C7311 1.383 . S
C7312 C7313 1.377 . S
C7313 H7297 0.930 . S
C7313 C7312 1.377 . S
C7313 C7314 1.379 . S
C7314 H7298 0.931 . S
C7314 C7308 1.383 . S
C7314 C7313 1.379 . S
H7315 C7309 0.959 . S
H7316 C7309 0.961 . S
H7317 C7309 0.960 . S
H7318 C7310 0.930 . S
H7319 C7311 0.929 . S
H7320 C7328 0.929 . S
H7321 C7330 0.930 . S
H7322 C7332 0.930 . S
H7323 C7335 0.929 . S
H7324 C7338 0.930 . S
H7325 C7340 0.960 . S
H7326 C7340 0.960 . S
H7327 C7340 0.960 . S
C7328 H7320 0.929 . S
C7328 C7329 1.377 . S
C7328 C7330 1.384 . S
C7329 C7328 1.377 . S
C7329 C7335 1.390 . S
C7330 H7321 0.930 . S
C7330 C7328 1.384 . S
C7330 C7331 1.372 . S
C7331 C7330 1.372 . S
C7331 C7332 1.400 . S
C7331 C7336 1.490 . S
C7332 H7322 0.930 . S
C7332 C7331 1.400 . S
C7332 C7335 1.386 . S
H7333 C7349 0.930 . S
H7334 C7350 0.931 . S
C7335 H7323 0.929 . S
C7335 C7329 1.390 . S
C7335 C7332 1.386 . S
C7336 C7331 1.490 . S
C7336 C7338 1.395 . S
C7336 C7339 1.403 . S
H7337 C7343 0.930 . S
C7338 H7324 0.930 . S
C7338 C7336 1.395 . S
C7338 C7341 1.403 . S
C7339 C7336 1.403 . S
C7339 C7340 1.524 . S
C7339 C7343 1.400 . S
C7340 H7325 0.960 . S
C7340 H7326 0.960 . S
C7340 H7327 0.960 . S
C7340 C7339 1.524 . S
C7341 C7338 1.403 . S
C7341 C7342 1.392 . S
C7341 C7345 1.495 . S
C7342 C7341 1.392 . S
C7342 C7343 1.385 . S
C7342 C7344 1.478 . S
C7343 H7337 0.930 . S
C7343 C7339 1.400 . S
C7343 C7342 1.385 . S
C7344 C7342 1.478 . S
C7344 C7346 1.381 . S
C7344 C7350 1.383 . S
C7345 C7341 1.495 . S
C7345 H7351 0.959 . S
C7345 H7352 0.961 . S
C7345 H7353 0.960 . S
C7346 C7344 1.381 . S
C7346 C7347 1.394 . S
C7346 H7354 0.930 . S
C7347 C7346 1.394 . S
C7347 C7348 1.383 . S
C7347 H7355 0.929 . S
C7348 C7347 1.383 . S
C7348 C7349 1.377 . S
C7349 H7333 0.930 . S
C7349 C7348 1.377 . S
C7349 C7350 1.379 . S
C7350 H7334 0.931 . S
C7350 C7344 1.383 . S
C7350 C7349 1.379 . S
H7351 C7345 0.959 . S
H7352 C7345 0.961 . S
H7353 C7345 0.960 . S
H7354 C7346 0.930 . S
H7355 C7347 0.929 . S
H7356 C7364 0.929 . S
H7357 C7366 0.930 . S
H7358 C7368 0.930 . S
H7359 C7371 0.929 . S
H7360 C7374 0.930 . S
H7361 C7376 0.960 . S
H7362 C7376 0.960 . S
H7363 C7376 0.960 . S
C7364 H7356 0.929 . S
C7364 C7365 1.377 . S
C7364 C7366 1.384 . S
C7365 C7364 1.377 . S
C7365 C7371 1.390 . S
C7366 H7357 0.930 . S
C7366 C7364 1.384 . S
C7366 C7367 1.372 . S
C7367 C7366 1.372 . S
C7367 C7368 1.400 . S
C7367 C7372 1.490 . S
C7368 H7358 0.930 . S
C7368 C7367 1.400 . S
C7368 C7371 1.386 . S
H7369 C7385 0.930 . S
H7370 C7386 0.931 . S
C7371 H7359 0.929 . S
C7371 C7365 1.390 . S
C7371 C7368 1.386 . S
C7372 C7367 1.490 . S
C7372 C7374 1.395 . S
C7372 C7375 1.403 . S
H7373 C7379 0.930 . S
C7374 H7360 0.930 . S
C7374 C7372 1.395 . S
C7374 C7377 1.403 . S
C7375 C7372 1.403 . S
C7375 C7376 1.524 . S
C7375 C7379 1.400 . S
C7376 H7361 0.960 . S
C7376 H7362 0.960 . S
C7376 H7363 0.960 . S
C7376 C7375 1.524 . S
C7377 C7374 1.403 . S
C7377 C7378 1.392 . S
C7377 C7381 1.495 . S
C7378 C7377 1.392 . S
C7378 C7379 1.385 . S
C7378 C7380 1.478 . S
C7379 H7373 0.930 . S
C7379 C7375 1.400 . S
C7379 C7378 1.385 . S
C7380 C7378 1.478 . S
C7380 C7382 1.381 . S
C7380 C7386 1.383 . S
C7381 C7377 1.495 . S
C7381 H7387 0.959 . S
C7381 H7388 0.961 . S
C7381 H7389 0.960 . S
C7382 C7380 1.381 . S
C7382 C7383 1.394 . S
C7382 H7390 0.930 . S
C7383 C7382 1.394 . S
C7383 C7384 1.383 . S
C7383 H7391 0.929 . S
C7384 C7383 1.383 . S
C7384 C7385 1.377 . S
C7385 H7369 0.930 . S
C7385 C7384 1.377 . S
C7385 C7386 1.379 . S
C7386 H7370 0.931 . S
C7386 C7380 1.383 . S
C7386 C7385 1.379 . S
H7387 C7381 0.959 . S
H7388 C7381 0.961 . S
H7389 C7381 0.960 . S
H7390 C7382 0.930 . S
H7391 C7383 0.929 . S
H7392 C7400 0.929 . S
H7393 C7402 0.930 . S
H7394 C7404 0.930 . S
H7395 C7407 0.929 . S
H7396 C7410 0.930 . S
H7397 C7412 0.960 . S
H7398 C7412 0.960 . S
H7399 C7412 0.960 . S
C7400 H7392 0.929 . S
C7400 C7401 1.377 . S
C7400 C7402 1.384 . S
C7401 C7400 1.377 . S
C7401 C7407 1.390 . S
C7402 H7393 0.930 . S
C7402 C7400 1.384 . S
C7402 C7403 1.372 . S
C7403 C7402 1.372 . S
C7403 C7404 1.400 . S
C7403 C7408 1.490 . S
C7404 H7394 0.930 . S
C7404 C7403 1.400 . S
C7404 C7407 1.386 . S
H7405 C7421 0.930 . S
H7406 C7422 0.931 . S
C7407 H7395 0.929 . S
C7407 C7401 1.390 . S
C7407 C7404 1.386 . S
C7408 C7403 1.490 . S
C7408 C7410 1.395 . S
C7408 C7411 1.403 . S
H7409 C7415 0.930 . S
C7410 H7396 0.930 . S
C7410 C7408 1.395 . S
C7410 C7413 1.403 . S
C7411 C7408 1.403 . S
C7411 C7412 1.524 . S
C7411 C7415 1.400 . S
C7412 H7397 0.960 . S
C7412 H7398 0.960 . S
C7412 H7399 0.960 . S
C7412 C7411 1.524 . S
C7413 C7410 1.403 . S
C7413 C7414 1.392 . S
C7413 C7417 1.495 . S
C7414 C7413 1.392 . S
C7414 C7415 1.385 . S
C7414 C7416 1.478 . S
C7415 H7409 0.930 . S
C7415 C7411 1.400 . S
C7415 C7414 1.385 . S
C7416 C7414 1.478 . S
C7416 C7418 1.381 . S
C7416 C7422 1.383 . S
C7417 C7413 1.495 . S
C7417 H7423 0.959 . S
C7417 H7424 0.961 . S
C7417 H7425 0.960 . S
C7418 C7416 1.381 . S
C7418 C7419 1.394 . S
C7418 H7426 0.930 . S
C7419 C7418 1.394 . S
C7419 C7420 1.383 . S
C7419 H7427 0.929 . S
C7420 C7419 1.383 . S
C7420 C7421 1.377 . S
C7421 H7405 0.930 . S
C7421 C7420 1.377 . S
C7421 C7422 1.379 . S
C7422 H7406 0.931 . S
C7422 C7416 1.383 . S
C7422 C7421 1.379 . S
H7423 C7417 0.959 . S
H7424 C7417 0.961 . S
H7425 C7417 0.960 . S
H7426 C7418 0.930 . S
H7427 C7419 0.929 . S
H7428 C7436 0.929 . S
H7429 C7438 0.930 . S
H7430 C7440 0.930 . S
H7431 C7443 0.929 . S
H7432 C7446 0.930 . S
H7433 C7448 0.960 . S
H7434 C7448 0.960 . S
H7435 C7448 0.960 . S
C7436 H7428 0.929 . S
C7436 C7437 1.377 . S
C7436 C7438 1.384 . S
C7437 C7436 1.377 . S
C7437 C7443 1.390 . S
C7438 H7429 0.930 . S
C7438 C7436 1.384 . S
C7438 C7439 1.372 . S
C7439 C7438 1.372 . S
C7439 C7440 1.400 . S
C7439 C7444 1.490 . S
C7440 H7430 0.930 . S
C7440 C7439 1.400 . S
C7440 C7443 1.386 . S
H7441 C7457 0.930 . S
H7442 C7458 0.931 . S
C7443 H7431 0.929 . S
C7443 C7437 1.390 . S
C7443 C7440 1.386 . S
C7444 C7439 1.490 . S
C7444 C7446 1.395 . S
C7444 C7447 1.403 . S
H7445 C7451 0.930 . S
C7446 H7432 0.930 . S
C7446 C7444 1.395 . S
C7446 C7449 1.403 . S
C7447 C7444 1.403 . S
C7447 C7448 1.524 . S
C7447 C7451 1.400 . S
C7448 H7433 0.960 . S
C7448 H7434 0.960 . S
C7448 H7435 0.960 . S
C7448 C7447 1.524 . S
C7449 C7446 1.403 . S
C7449 C7450 1.392 . S
C7449 C7453 1.495 . S
C7450 C7449 1.392 . S
C7450 C7451 1.385 . S
C7450 C7452 1.478 . S
C7451 H7445 0.930 . S
C7451 C7447 1.400 . S
C7451 C7450 1.385 . S
C7452 C7450 1.478 . S
C7452 C7454 1.381 . S
C7452 C7458 1.383 . S
C7453 C7449 1.495 . S
C7453 H7459 0.959 . S
C7453 H7460 0.961 . S
C7453 H7461 0.960 . S
C7454 C7452 1.381 . S
C7454 C7455 1.394 . S
C7454 H7462 0.930 . S
C7455 C7454 1.394 . S
C7455 C7456 1.383 . S
C7455 H7463 0.929 . S
C7456 C7455 1.383 . S
C7456 C7457 1.377 . S
C7457 H7441 0.930 . S
C7457 C7456 1.377 . S
C7457 C7458 1.379 . S
C7458 H7442 0.931 . S
C7458 C7452 1.383 . S
C7458 C7457 1.379 . S
H7459 C7453 0.959 . S
H7460 C7453 0.961 . S
H7461 C7453 0.960 . S
H7462 C7454 0.930 . S
H7463 C7455 0.929 . S
H7464 C7472 0.929 . S
H7465 C7474 0.930 . S
H7466 C7476 0.930 . S
H7467 C7479 0.929 . S
H7468 C7482 0.930 . S
H7469 C7484 0.960 . S
H7470 C7484 0.960 . S
H7471 C7484 0.960 . S
C7472 H7464 0.929 . S
C7472 C7473 1.377 . S
C7472 C7474 1.384 . S
C7473 C7472 1.377 . S
C7473 C7479 1.390 . S
C7474 H7465 0.930 . S
C7474 C7472 1.384 . S
C7474 C7475 1.372 . S
C7475 C7474 1.372 . S
C7475 C7476 1.400 . S
C7475 C7480 1.490 . S
C7476 H7466 0.930 . S
C7476 C7475 1.400 . S
C7476 C7479 1.386 . S
H7477 C7493 0.930 . S
H7478 C7494 0.931 . S
C7479 H7467 0.929 . S
C7479 C7473 1.390 . S
C7479 C7476 1.386 . S
C7480 C7475 1.490 . S
C7480 C7482 1.395 . S
C7480 C7483 1.403 . S
H7481 C7487 0.930 . S
C7482 H7468 0.930 . S
C7482 C7480 1.395 . S
C7482 C7485 1.403 . S
C7483 C7480 1.403 . S
C7483 C7484 1.524 . S
C7483 C7487 1.400 . S
C7484 H7469 0.960 . S
C7484 H7470 0.960 . S
C7484 H7471 0.960 . S
C7484 C7483 1.524 . S
C7485 C7482 1.403 . S
C7485 C7486 1.392 . S
C7485 C7489 1.495 . S
C7486 C7485 1.392 . S
C7486 C7487 1.385 . S
C7486 C7488 1.478 . S
C7487 H7481 0.930 . S
C7487 C7483 1.400 . S
C7487 C7486 1.385 . S
C7488 C7486 1.478 . S
C7488 C7490 1.381 . S
C7488 C7494 1.383 . S
C7489 C7485 1.495 . S
C7489 H7495 0.959 . S
C7489 H7496 0.961 . S
C7489 H7497 0.960 . S
C7490 C7488 1.381 . S
C7490 C7491 1.394 . S
C7490 H7498 0.930 . S
C7491 C7490 1.394 . S
C7491 C7492 1.383 . S
C7491 H7499 0.929 . S
C7492 C7491 1.383 . S
C7492 C7493 1.377 . S
C7493 H7477 0.930 . S
C7493 C7492 1.377 . S
C7493 C7494 1.379 . S
C7494 H7478 0.931 . S
C7494 C7488 1.383 . S
C7494 C7493 1.379 . S
H7495 C7489 0.959 . S
H7496 C7489 0.961 . S
H7497 C7489 0.960 . S
H7498 C7490 0.930 . S
H7499 C7491 0.929 . S
H7500 C7508 0.929 . S
H7501 C7510 0.930 . S
H7502 C7512 0.930 . S
H7503 C7515 0.929 . S
H7504 C7518 0.930 . S
H7505 C7520 0.960 . S
H7506 C7520 0.960 . S
H7507 C7520 0.960 . S
C7508 H7500 0.929 . S
C7508 C7509 1.377 . S
C7508 C7510 1.384 . S
C7509 C7508 1.377 . S
C7509 C7515 1.390 . S
C7510 H7501 0.930 . S
C7510 C7508 1.384 . S
C7510 C7511 1.372 . S
C7511 C7510 1.372 . S
C7511 C7512 1.400 . S
C7511 C7516 1.490 . S
C7512 H7502 0.930 . S
C7512 C7511 1.400 . S
C7512 C7515 1.386 . S
H7513 C7529 0.930 . S
H7514 C7530 0.931 . S
C7515 H7503 0.929 . S
C7515 C7509 1.390 . S
C7515 C7512 1.386 . S
C7516 C7511 1.490 . S
C7516 C7518 1.395 . S
C7516 C7519 1.403 . S
H7517 C7523 0.930 . S
C7518 H7504 0.930 . S
C7518 C7516 1.395 . S
C7518 C7521 1.403 . S
C7519 C7516 1.403 . S
C7519 C7520 1.524 . S
C7519 C7523 1.400 . S
C7520 H7505 0.960 . S
C7520 H7506 0.960 . S
C7520 H7507 0.960 . S
C7520 C7519 1.524 . S
C7521 C7518 1.403 . S
C7521 C7522 1.392 . S
C7521 C7525 1.495 . S
C7522 C7521 1.392 . S
C7522 C7523 1.385 . S
C7522 C7524 1.478 . S
C7523 H7517 0.930 . S
C7523 C7519 1.400 . S
C7523 C7522 1.385 . S
C7524 C7522 1.478 . S
C7524 C7526 1.381 . S
C7524 C7530 1.383 . S
C7525 C7521 1.495 . S
C7525 H7531 0.959 . S
C7525 H7532 0.961 . S
C7525 H7533 0.960 . S
C7526 C7524 1.381 . S
C7526 C7527 1.394 . S
C7526 H7534 0.930 . S
C7527 C7526 1.394 . S
C7527 C7528 1.383 . S
C7527 H7535 0.929 . S
C7528 C7527 1.383 . S
C7528 C7529 1.377 . S
C7529 H7513 0.930 . S
C7529 C7528 1.377 . S
C7529 C7530 1.379 . S
C7530 H7514 0.931 . S
C7530 C7524 1.383 . S
C7530 C7529 1.379 . S
H7531 C7525 0.959 . S
H7532 C7525 0.961 . S
H7533 C7525 0.960 . S
H7534 C7526 0.930 . S
H7535 C7527 0.929 . S
H7536 C7544 0.929 . S
H7537 C7546 0.930 . S
H7538 C7548 0.930 . S
H7539 C7551 0.929 . S
H7540 C7554 0.930 . S
H7541 C7556 0.960 . S
H7542 C7556 0.960 . S
H7543 C7556 0.960 . S
C7544 H7536 0.929 . S
C7544 C7545 1.377 . S
C7544 C7546 1.384 . S
C7545 C7544 1.377 . S
C7545 C7551 1.390 . S
C7546 H7537 0.930 . S
C7546 C7544 1.384 . S
C7546 C7547 1.372 . S
C7547 C7546 1.372 . S
C7547 C7548 1.400 . S
C7547 C7552 1.490 . S
C7548 H7538 0.930 . S
C7548 C7547 1.400 . S
C7548 C7551 1.386 . S
H7549 C7565 0.930 . S
H7550 C7566 0.931 . S
C7551 H7539 0.929 . S
C7551 C7545 1.390 . S
C7551 C7548 1.386 . S
C7552 C7547 1.490 . S
C7552 C7554 1.395 . S
C7552 C7555 1.403 . S
H7553 C7559 0.930 . S
C7554 H7540 0.930 . S
C7554 C7552 1.395 . S
C7554 C7557 1.403 . S
C7555 C7552 1.403 . S
C7555 C7556 1.524 . S
C7555 C7559 1.400 . S
C7556 H7541 0.960 . S
C7556 H7542 0.960 . S
C7556 H7543 0.960 . S
C7556 C7555 1.524 . S
C7557 C7554 1.403 . S
C7557 C7558 1.392 . S
C7557 C7561 1.495 . S
C7558 C7557 1.392 . S
C7558 C7559 1.385 . S
C7558 C7560 1.478 . S
C7559 H7553 0.930 . S
C7559 C7555 1.400 . S
C7559 C7558 1.385 . S
C7560 C7558 1.478 . S
C7560 C7562 1.381 . S
C7560 C7566 1.383 . S
C7561 C7557 1.495 . S
C7561 H7567 0.959 . S
C7561 H7568 0.961 . S
C7561 H7569 0.960 . S
C7562 C7560 1.381 . S
C7562 C7563 1.394 . S
C7562 H7570 0.930 . S
C7563 C7562 1.394 . S
C7563 C7564 1.383 . S
C7563 H7571 0.929 . S
C7564 C7563 1.383 . S
C7564 C7565 1.377 . S
C7565 H7549 0.930 . S
C7565 C7564 1.377 . S
C7565 C7566 1.379 . S
C7566 H7550 0.931 . S
C7566 C7560 1.383 . S
C7566 C7565 1.379 . S
H7567 C7561 0.959 . S
H7568 C7561 0.961 . S
H7569 C7561 0.960 . S
H7570 C7562 0.930 . S
H7571 C7563 0.929 . S
H7572 C7580 0.929 . S
H7573 C7582 0.930 . S
H7574 C7584 0.930 . S
H7575 C7587 0.929 . S
H7576 C7590 0.930 . S
H7577 C7592 0.960 . S
H7578 C7592 0.960 . S
H7579 C7592 0.960 . S
C7580 H7572 0.929 . S
C7580 C7581 1.377 . S
C7580 C7582 1.384 . S
C7581 C7580 1.377 . S
C7581 C7587 1.390 . S
C7582 H7573 0.930 . S
C7582 C7580 1.384 . S
C7582 C7583 1.372 . S
C7583 C7582 1.372 . S
C7583 C7584 1.400 . S
C7583 C7588 1.490 . S
C7584 H7574 0.930 . S
C7584 C7583 1.400 . S
C7584 C7587 1.386 . S
H7585 C7601 0.930 . S
H7586 C7602 0.931 . S
C7587 H7575 0.929 . S
C7587 C7581 1.390 . S
C7587 C7584 1.386 . S
C7588 C7583 1.490 . S
C7588 C7590 1.395 . S
C7588 C7591 1.403 . S
H7589 C7595 0.930 . S
C7590 H7576 0.930 . S
C7590 C7588 1.395 . S
C7590 C7593 1.403 . S
C7591 C7588 1.403 . S
C7591 C7592 1.524 . S
C7591 C7595 1.400 . S
C7592 H7577 0.960 . S
C7592 H7578 0.960 . S
C7592 H7579 0.960 . S
C7592 C7591 1.524 . S
C7593 C7590 1.403 . S
C7593 C7594 1.392 . S
C7593 C7597 1.495 . S
C7594 C7593 1.392 . S
C7594 C7595 1.385 . S
C7594 C7596 1.478 . S
C7595 H7589 0.930 . S
C7595 C7591 1.400 . S
C7595 C7594 1.385 . S
C7596 C7594 1.478 . S
C7596 C7598 1.381 . S
C7596 C7602 1.383 . S
C7597 C7593 1.495 . S
C7597 H7603 0.959 . S
C7597 H7604 0.961 . S
C7597 H7605 0.960 . S
C7598 C7596 1.381 . S
C7598 C7599 1.394 . S
C7598 H7606 0.930 . S
C7599 C7598 1.394 . S
C7599 C7600 1.383 . S
C7599 H7607 0.929 . S
C7600 C7599 1.383 . S
C7600 C7601 1.377 . S
C7601 H7585 0.930 . S
C7601 C7600 1.377 . S
C7601 C7602 1.379 . S
C7602 H7586 0.931 . S
C7602 C7596 1.383 . S
C7602 C7601 1.379 . S
H7603 C7597 0.959 . S
H7604 C7597 0.961 . S
H7605 C7597 0.960 . S
H7606 C7598 0.930 . S
H7607 C7599 0.929 . S
H7608 C7616 0.929 . S
H7609 C7618 0.930 . S
H7610 C7620 0.930 . S
H7611 C7623 0.929 . S
H7612 C7626 0.930 . S
H7613 C7628 0.960 . S
H7614 C7628 0.960 . S
H7615 C7628 0.960 . S
C7616 H7608 0.929 . S
C7616 C7617 1.377 . S
C7616 C7618 1.384 . S
C7617 C7616 1.377 . S
C7617 C7623 1.390 . S
C7618 H7609 0.930 . S
C7618 C7616 1.384 . S
C7618 C7619 1.372 . S
C7619 C7618 1.372 . S
C7619 C7620 1.400 . S
C7619 C7624 1.490 . S
C7620 H7610 0.930 . S
C7620 C7619 1.400 . S
C7620 C7623 1.386 . S
H7621 C7637 0.930 . S
H7622 C7638 0.931 . S
C7623 H7611 0.929 . S
C7623 C7617 1.390 . S
C7623 C7620 1.386 . S
C7624 C7619 1.490 . S
C7624 C7626 1.395 . S
C7624 C7627 1.403 . S
H7625 C7631 0.930 . S
C7626 H7612 0.930 . S
C7626 C7624 1.395 . S
C7626 C7629 1.403 . S
C7627 C7624 1.403 . S
C7627 C7628 1.524 . S
C7627 C7631 1.400 . S
C7628 H7613 0.960 . S
C7628 H7614 0.960 . S
C7628 H7615 0.960 . S
C7628 C7627 1.524 . S
C7629 C7626 1.403 . S
C7629 C7630 1.392 . S
C7629 C7633 1.495 . S
C7630 C7629 1.392 . S
C7630 C7631 1.385 . S
C7630 C7632 1.478 . S
C7631 H7625 0.930 . S
C7631 C7627 1.400 . S
C7631 C7630 1.385 . S
C7632 C7630 1.478 . S
C7632 C7634 1.381 . S
C7632 C7638 1.383 . S
C7633 C7629 1.495 . S
C7633 H7639 0.959 . S
C7633 H7640 0.961 . S
C7633 H7641 0.960 . S
C7634 C7632 1.381 . S
C7634 C7635 1.394 . S
C7634 H7642 0.930 . S
C7635 C7634 1.394 . S
C7635 C7636 1.383 . S
C7635 H7643 0.929 . S
C7636 C7635 1.383 . S
C7636 C7637 1.377 . S
C7637 H7621 0.930 . S
C7637 C7636 1.377 . S
C7637 C7638 1.379 . S
C7638 H7622 0.931 . S
C7638 C7632 1.383 . S
C7638 C7637 1.379 . S
H7639 C7633 0.959 . S
H7640 C7633 0.961 . S
H7641 C7633 0.960 . S
H7642 C7634 0.930 . S
H7643 C7635 0.929 . S
H7644 C7652 0.929 . S
H7645 C7654 0.930 . S
H7646 C7656 0.930 . S
H7647 C7659 0.929 . S
H7648 C7662 0.930 . S
H7649 C7664 0.960 . S
H7650 C7664 0.960 . S
H7651 C7664 0.960 . S
C7652 H7644 0.929 . S
C7652 C7653 1.377 . S
C7652 C7654 1.384 . S
C7653 C7652 1.377 . S
C7653 C7659 1.390 . S
C7654 H7645 0.930 . S
C7654 C7652 1.384 . S
C7654 C7655 1.372 . S
C7655 C7654 1.372 . S
C7655 C7656 1.400 . S
C7655 C7660 1.490 . S
C7656 H7646 0.930 . S
C7656 C7655 1.400 . S
C7656 C7659 1.386 . S
H7657 C7673 0.930 . S
H7658 C7674 0.931 . S
C7659 H7647 0.929 . S
C7659 C7653 1.390 . S
C7659 C7656 1.386 . S
C7660 C7655 1.490 . S
C7660 C7662 1.395 . S
C7660 C7663 1.403 . S
H7661 C7667 0.930 . S
C7662 H7648 0.930 . S
C7662 C7660 1.395 . S
C7662 C7665 1.403 . S
C7663 C7660 1.403 . S
C7663 C7664 1.524 . S
C7663 C7667 1.400 . S
C7664 H7649 0.960 . S
C7664 H7650 0.960 . S
C7664 H7651 0.960 . S
C7664 C7663 1.524 . S
C7665 C7662 1.403 . S
C7665 C7666 1.392 . S
C7665 C7669 1.495 . S
C7666 C7665 1.392 . S
C7666 C7667 1.385 . S
C7666 C7668 1.478 . S
C7667 H7661 0.930 . S
C7667 C7663 1.400 . S
C7667 C7666 1.385 . S
C7668 C7666 1.478 . S
C7668 C7670 1.381 . S
C7668 C7674 1.383 . S
C7669 C7665 1.495 . S
C7669 H7675 0.959 . S
C7669 H7676 0.961 . S
C7669 H7677 0.960 . S
C7670 C7668 1.381 . S
C7670 C7671 1.394 . S
C7670 H7678 0.930 . S
C7671 C7670 1.394 . S
C7671 C7672 1.383 . S
C7671 H7679 0.929 . S
C7672 C7671 1.383 . S
C7672 C7673 1.377 . S
C7673 H7657 0.930 . S
C7673 C7672 1.377 . S
C7673 C7674 1.379 . S
C7674 H7658 0.931 . S
C7674 C7668 1.383 . S
C7674 C7673 1.379 . S
H7675 C7669 0.959 . S
H7676 C7669 0.961 . S
H7677 C7669 0.960 . S
H7678 C7670 0.930 . S
H7679 C7671 0.929 . S
H7680 C7688 0.929 . S
H7681 C7690 0.930 . S
H7682 C7692 0.930 . S
H7683 C7695 0.929 . S
H7684 C7698 0.930 . S
H7685 C7700 0.960 . S
H7686 C7700 0.960 . S
H7687 C7700 0.960 . S
C7688 H7680 0.929 . S
C7688 C7689 1.377 . S
C7688 C7690 1.384 . S
C7689 C7688 1.377 . S
C7689 C7695 1.390 . S
C7690 H7681 0.930 . S
C7690 C7688 1.384 . S
C7690 C7691 1.372 . S
C7691 C7690 1.372 . S
C7691 C7692 1.400 . S
C7691 C7696 1.490 . S
C7692 H7682 0.930 . S
C7692 C7691 1.400 . S
C7692 C7695 1.386 . S
H7693 C7709 0.930 . S
H7694 C7710 0.931 . S
C7695 H7683 0.929 . S
C7695 C7689 1.390 . S
C7695 C7692 1.386 . S
C7696 C7691 1.490 . S
C7696 C7698 1.395 . S
C7696 C7699 1.403 . S
H7697 C7703 0.930 . S
C7698 H7684 0.930 . S
C7698 C7696 1.395 . S
C7698 C7701 1.403 . S
C7699 C7696 1.403 . S
C7699 C7700 1.524 . S
C7699 C7703 1.400 . S
C7700 H7685 0.960 . S
C7700 H7686 0.960 . S
C7700 H7687 0.960 . S
C7700 C7699 1.524 . S
C7701 C7698 1.403 . S
C7701 C7702 1.392 . S
C7701 C7705 1.495 . S
C7702 C7701 1.392 . S
C7702 C7703 1.385 . S
C7702 C7704 1.478 . S
C7703 H7697 0.930 . S
C7703 C7699 1.400 . S
C7703 C7702 1.385 . S
C7704 C7702 1.478 . S
C7704 C7706 1.381 . S
C7704 C7710 1.383 . S
C7705 C7701 1.495 . S
C7705 H7711 0.959 . S
C7705 H7712 0.961 . S
C7705 H7713 0.960 . S
C7706 C7704 1.381 . S
C7706 C7707 1.394 . S
C7706 H7714 0.930 . S
C7707 C7706 1.394 . S
C7707 C7708 1.383 . S
C7707 H7715 0.929 . S
C7708 C7707 1.383 . S
C7708 C7709 1.377 . S
C7709 H7693 0.930 . S
C7709 C7708 1.377 . S
C7709 C7710 1.379 . S
C7710 H7694 0.931 . S
C7710 C7704 1.383 . S
C7710 C7709 1.379 . S
H7711 C7705 0.959 . S
H7712 C7705 0.961 . S
H7713 C7705 0.960 . S
H7714 C7706 0.930 . S
H7715 C7707 0.929 . S
H7716 C7724 0.929 . S
H7717 C7726 0.930 . S
H7718 C7728 0.930 . S
H7719 C7731 0.929 . S
H7720 C7734 0.930 . S
H7721 C7736 0.960 . S
H7722 C7736 0.960 . S
H7723 C7736 0.960 . S
C7724 H7716 0.929 . S
C7724 C7725 1.377 . S
C7724 C7726 1.384 . S
C7725 C7724 1.377 . S
C7725 C7731 1.390 . S
C7726 H7717 0.930 . S
C7726 C7724 1.384 . S
C7726 C7727 1.372 . S
C7727 C7726 1.372 . S
C7727 C7728 1.400 . S
C7727 C7732 1.490 . S
C7728 H7718 0.930 . S
C7728 C7727 1.400 . S
C7728 C7731 1.386 . S
H7729 C7745 0.930 . S
H7730 C7746 0.931 . S
C7731 H7719 0.929 . S
C7731 C7725 1.390 . S
C7731 C7728 1.386 . S
C7732 C7727 1.490 . S
C7732 C7734 1.395 . S
C7732 C7735 1.403 . S
H7733 C7739 0.930 . S
C7734 H7720 0.930 . S
C7734 C7732 1.395 . S
C7734 C7737 1.403 . S
C7735 C7732 1.403 . S
C7735 C7736 1.524 . S
C7735 C7739 1.400 . S
C7736 H7721 0.960 . S
C7736 H7722 0.960 . S
C7736 H7723 0.960 . S
C7736 C7735 1.524 . S
C7737 C7734 1.403 . S
C7737 C7738 1.392 . S
C7737 C7741 1.495 . S
C7738 C7737 1.392 . S
C7738 C7739 1.385 . S
C7738 C7740 1.478 . S
C7739 H7733 0.930 . S
C7739 C7735 1.400 . S
C7739 C7738 1.385 . S
C7740 C7738 1.478 . S
C7740 C7742 1.381 . S
C7740 C7746 1.383 . S
C7741 C7737 1.495 . S
C7741 H7747 0.959 . S
C7741 H7748 0.961 . S
C7741 H7749 0.960 . S
C7742 C7740 1.381 . S
C7742 C7743 1.394 . S
C7742 H7750 0.930 . S
C7743 C7742 1.394 . S
C7743 C7744 1.383 . S
C7743 H7751 0.929 . S
C7744 C7743 1.383 . S
C7744 C7745 1.377 . S
C7745 H7729 0.930 . S
C7745 C7744 1.377 . S
C7745 C7746 1.379 . S
C7746 H7730 0.931 . S
C7746 C7740 1.383 . S
C7746 C7745 1.379 . S
H7747 C7741 0.959 . S
H7748 C7741 0.961 . S
H7749 C7741 0.960 . S
H7750 C7742 0.930 . S
H7751 C7743 0.929 . S
H7752 C7760 0.929 . S
H7753 C7762 0.930 . S
H7754 C7764 0.930 . S
H7755 C7767 0.929 . S
H7756 C7770 0.930 . S
H7757 C7772 0.960 . S
H7758 C7772 0.960 . S
H7759 C7772 0.960 . S
C7760 H7752 0.929 . S
C7760 C7761 1.377 . S
C7760 C7762 1.384 . S
C7761 C7760 1.377 . S
C7761 C7767 1.390 . S
C7762 H7753 0.930 . S
C7762 C7760 1.384 . S
C7762 C7763 1.372 . S
C7763 C7762 1.372 . S
C7763 C7764 1.400 . S
C7763 C7768 1.490 . S
C7764 H7754 0.930 . S
C7764 C7763 1.400 . S
C7764 C7767 1.386 . S
H7765 C7781 0.930 . S
H7766 C7782 0.931 . S
C7767 H7755 0.929 . S
C7767 C7761 1.390 . S
C7767 C7764 1.386 . S
C7768 C7763 1.490 . S
C7768 C7770 1.395 . S
C7768 C7771 1.403 . S
H7769 C7775 0.930 . S
C7770 H7756 0.930 . S
C7770 C7768 1.395 . S
C7770 C7773 1.403 . S
C7771 C7768 1.403 . S
C7771 C7772 1.524 . S
C7771 C7775 1.400 . S
C7772 H7757 0.960 . S
C7772 H7758 0.960 . S
C7772 H7759 0.960 . S
C7772 C7771 1.524 . S
C7773 C7770 1.403 . S
C7773 C7774 1.392 . S
C7773 C7777 1.495 . S
C7774 C7773 1.392 . S
C7774 C7775 1.385 . S
C7774 C7776 1.478 . S
C7775 H7769 0.930 . S
C7775 C7771 1.400 . S
C7775 C7774 1.385 . S
C7776 C7774 1.478 . S
C7776 C7778 1.381 . S
C7776 C7782 1.383 . S
C7777 C7773 1.495 . S
C7777 H7783 0.959 . S
C7777 H7784 0.961 . S
C7777 H7785 0.960 . S
C7778 C7776 1.381 . S
C7778 C7779 1.394 . S
C7778 H7786 0.930 . S
C7779 C7778 1.394 . S
C7779 C7780 1.383 . S
C7779 H7787 0.929 . S
C7780 C7779 1.383 . S
C7780 C7781 1.377 . S
C7781 H7765 0.930 . S
C7781 C7780 1.377 . S
C7781 C7782 1.379 . S
C7782 H7766 0.931 . S
C7782 C7776 1.383 . S
C7782 C7781 1.379 . S
H7783 C7777 0.959 . S
H7784 C7777 0.961 . S
H7785 C7777 0.960 . S
H7786 C7778 0.930 . S
H7787 C7779 0.929 . S
H7788 C7796 0.929 . S
H7789 C7798 0.930 . S
H7790 C7800 0.930 . S
H7791 C7803 0.929 . S
H7792 C7806 0.930 . S
H7793 C7808 0.960 . S
H7794 C7808 0.960 . S
H7795 C7808 0.960 . S
C7796 H7788 0.929 . S
C7796 C7797 1.377 . S
C7796 C7798 1.384 . S
C7797 C7796 1.377 . S
C7797 C7803 1.390 . S
C7798 H7789 0.930 . S
C7798 C7796 1.384 . S
C7798 C7799 1.372 . S
C7799 C7798 1.372 . S
C7799 C7800 1.400 . S
C7799 C7804 1.490 . S
C7800 H7790 0.930 . S
C7800 C7799 1.400 . S
C7800 C7803 1.386 . S
H7801 C7817 0.930 . S
H7802 C7818 0.931 . S
C7803 H7791 0.929 . S
C7803 C7797 1.390 . S
C7803 C7800 1.386 . S
C7804 C7799 1.490 . S
C7804 C7806 1.395 . S
C7804 C7807 1.403 . S
H7805 C7811 0.930 . S
C7806 H7792 0.930 . S
C7806 C7804 1.395 . S
C7806 C7809 1.403 . S
C7807 C7804 1.403 . S
C7807 C7808 1.524 . S
C7807 C7811 1.400 . S
C7808 H7793 0.960 . S
C7808 H7794 0.960 . S
C7808 H7795 0.960 . S
C7808 C7807 1.524 . S
C7809 C7806 1.403 . S
C7809 C7810 1.392 . S
C7809 C7813 1.495 . S
C7810 C7809 1.392 . S
C7810 C7811 1.385 . S
C7810 C7812 1.478 . S
C7811 H7805 0.930 . S
C7811 C7807 1.400 . S
C7811 C7810 1.385 . S
C7812 C7810 1.478 . S
C7812 C7814 1.381 . S
C7812 C7818 1.383 . S
C7813 C7809 1.495 . S
C7813 H7819 0.959 . S
C7813 H7820 0.961 . S
C7813 H7821 0.960 . S
C7814 C7812 1.381 . S
C7814 C7815 1.394 . S
C7814 H7822 0.930 . S
C7815 C7814 1.394 . S
C7815 C7816 1.383 . S
C7815 H7823 0.929 . S
C7816 C7815 1.383 . S
C7816 C7817 1.377 . S
C7817 H7801 0.930 . S
C7817 C7816 1.377 . S
C7817 C7818 1.379 . S
C7818 H7802 0.931 . S
C7818 C7812 1.383 . S
C7818 C7817 1.379 . S
H7819 C7813 0.959 . S
H7820 C7813 0.961 . S
H7821 C7813 0.960 . S
H7822 C7814 0.930 . S
H7823 C7815 0.929 . S
H7824 C7832 0.929 . S
H7825 C7834 0.930 . S
H7826 C7836 0.930 . S
H7827 C7839 0.929 . S
H7828 C7842 0.930 . S
H7829 C7844 0.960 . S
H7830 C7844 0.960 . S
H7831 C7844 0.960 . S
C7832 H7824 0.929 . S
C7832 C7833 1.377 . S
C7832 C7834 1.384 . S
C7833 C7832 1.377 . S
C7833 C7839 1.390 . S
C7834 H7825 0.930 . S
C7834 C7832 1.384 . S
C7834 C7835 1.372 . S
C7835 C7834 1.372 . S
C7835 C7836 1.400 . S
C7835 C7840 1.490 . S
C7836 H7826 0.930 . S
C7836 C7835 1.400 . S
C7836 C7839 1.386 . S
H7837 C7853 0.930 . S
H7838 C7854 0.931 . S
C7839 H7827 0.929 . S
C7839 C7833 1.390 . S
C7839 C7836 1.386 . S
C7840 C7835 1.490 . S
C7840 C7842 1.395 . S
C7840 C7843 1.403 . S
H7841 C7847 0.930 . S
C7842 H7828 0.930 . S
C7842 C7840 1.395 . S
C7842 C7845 1.403 . S
C7843 C7840 1.403 . S
C7843 C7844 1.524 . S
C7843 C7847 1.400 . S
C7844 H7829 0.960 . S
C7844 H7830 0.960 . S
C7844 H7831 0.960 . S
C7844 C7843 1.524 . S
C7845 C7842 1.403 . S
C7845 C7846 1.392 . S
C7845 C7849 1.495 . S
C7846 C7845 1.392 . S
C7846 C7847 1.385 . S
C7846 C7848 1.478 . S
C7847 H7841 0.930 . S
C7847 C7843 1.400 . S
C7847 C7846 1.385 . S
C7848 C7846 1.478 . S
C7848 C7850 1.381 . S
C7848 C7854 1.383 . S
C7849 C7845 1.495 . S
C7849 H7855 0.959 . S
C7849 H7856 0.961 . S
C7849 H7857 0.960 . S
C7850 C7848 1.381 . S
C7850 C7851 1.394 . S
C7850 H7858 0.930 . S
C7851 C7850 1.394 . S
C7851 C7852 1.383 . S
C7851 H7859 0.929 . S
C7852 C7851 1.383 . S
C7852 C7853 1.377 . S
C7853 H7837 0.930 . S
C7853 C7852 1.377 . S
C7853 C7854 1.379 . S
C7854 H7838 0.931 . S
C7854 C7848 1.383 . S
C7854 C7853 1.379 . S
H7855 C7849 0.959 . S
H7856 C7849 0.961 . S
H7857 C7849 0.960 . S
H7858 C7850 0.930 . S
H7859 C7851 0.929 . S
H7860 C7868 0.929 . S
H7861 C7870 0.930 . S
H7862 C7872 0.930 . S
H7863 C7875 0.929 . S
H7864 C7878 0.930 . S
H7865 C7880 0.960 . S
H7866 C7880 0.960 . S
H7867 C7880 0.960 . S
C7868 H7860 0.929 . S
C7868 C7869 1.377 . S
C7868 C7870 1.384 . S
C7869 C7868 1.377 . S
C7869 C7875 1.390 . S
C7870 H7861 0.930 . S
C7870 C7868 1.384 . S
C7870 C7871 1.372 . S
C7871 C7870 1.372 . S
C7871 C7872 1.400 . S
C7871 C7876 1.490 . S
C7872 H7862 0.930 . S
C7872 C7871 1.400 . S
C7872 C7875 1.386 . S
H7873 C7889 0.930 . S
H7874 C7890 0.931 . S
C7875 H7863 0.929 . S
C7875 C7869 1.390 . S
C7875 C7872 1.386 . S
C7876 C7871 1.490 . S
C7876 C7878 1.395 . S
C7876 C7879 1.403 . S
H7877 C7883 0.930 . S
C7878 H7864 0.930 . S
C7878 C7876 1.395 . S
C7878 C7881 1.403 . S
C7879 C7876 1.403 . S
C7879 C7880 1.524 . S
C7879 C7883 1.400 . S
C7880 H7865 0.960 . S
C7880 H7866 0.960 . S
C7880 H7867 0.960 . S
C7880 C7879 1.524 . S
C7881 C7878 1.403 . S
C7881 C7882 1.392 . S
C7881 C7885 1.495 . S
C7882 C7881 1.392 . S
C7882 C7883 1.385 . S
C7882 C7884 1.478 . S
C7883 H7877 0.930 . S
C7883 C7879 1.400 . S
C7883 C7882 1.385 . S
C7884 C7882 1.478 . S
C7884 C7886 1.381 . S
C7884 C7890 1.383 . S
C7885 C7881 1.495 . S
C7885 H7891 0.959 . S
C7885 H7892 0.961 . S
C7885 H7893 0.960 . S
C7886 C7884 1.381 . S
C7886 C7887 1.394 . S
C7886 H7894 0.930 . S
C7887 C7886 1.394 . S
C7887 C7888 1.383 . S
C7887 H7895 0.929 . S
C7888 C7887 1.383 . S
C7888 C7889 1.377 . S
C7889 H7873 0.930 . S
C7889 C7888 1.377 . S
C7889 C7890 1.379 . S
C7890 H7874 0.931 . S
C7890 C7884 1.383 . S
C7890 C7889 1.379 . S
H7891 C7885 0.959 . S
H7892 C7885 0.961 . S
H7893 C7885 0.960 . S
H7894 C7886 0.930 . S
H7895 C7887 0.929 . S
H7896 C7904 0.929 . S
H7897 C7906 0.930 . S
H7898 C7908 0.930 . S
H7899 C7911 0.929 . S
H7900 C7914 0.930 . S
H7901 C7916 0.960 . S
H7902 C7916 0.960 . S
H7903 C7916 0.960 . S
C7904 H7896 0.929 . S
C7904 C7905 1.377 . S
C7904 C7906 1.384 . S
C7905 C7904 1.377 . S
C7905 C7911 1.390 . S
C7906 H7897 0.930 . S
C7906 C7904 1.384 . S
C7906 C7907 1.372 . S
C7907 C7906 1.372 . S
C7907 C7908 1.400 . S
C7907 C7912 1.490 . S
C7908 H7898 0.930 . S
C7908 C7907 1.400 . S
C7908 C7911 1.386 . S
H7909 C7925 0.930 . S
H7910 C7926 0.931 . S
C7911 H7899 0.929 . S
C7911 C7905 1.390 . S
C7911 C7908 1.386 . S
C7912 C7907 1.490 . S
C7912 C7914 1.395 . S
C7912 C7915 1.403 . S
H7913 C7919 0.930 . S
C7914 H7900 0.930 . S
C7914 C7912 1.395 . S
C7914 C7917 1.403 . S
C7915 C7912 1.403 . S
C7915 C7916 1.524 . S
C7915 C7919 1.400 . S
C7916 H7901 0.960 . S
C7916 H7902 0.960 . S
C7916 H7903 0.960 . S
C7916 C7915 1.524 . S
C7917 C7914 1.403 . S
C7917 C7918 1.392 . S
C7917 C7921 1.495 . S
C7918 C7917 1.392 . S
C7918 C7919 1.385 . S
C7918 C7920 1.478 . S
C7919 H7913 0.930 . S
C7919 C7915 1.400 . S
C7919 C7918 1.385 . S
C7920 C7918 1.478 . S
C7920 C7922 1.381 . S
C7920 C7926 1.383 . S
C7921 C7917 1.495 . S
C7921 H7927 0.959 . S
C7921 H7928 0.961 . S
C7921 H7929 0.960 . S
C7922 C7920 1.381 . S
C7922 C7923 1.394 . S
C7922 H7930 0.930 . S
C7923 C7922 1.394 . S
C7923 C7924 1.383 . S
C7923 H7931 0.929 . S
C7924 C7923 1.383 . S
C7924 C7925 1.377 . S
C7925 H7909 0.930 . S
C7925 C7924 1.377 . S
C7925 C7926 1.379 . S
C7926 H7910 0.931 . S
C7926 C7920 1.383 . S
C7926 C7925 1.379 . S
H7927 C7921 0.959 . S
H7928 C7921 0.961 . S
H7929 C7921 0.960 . S
H7930 C7922 0.930 . S
H7931 C7923 0.929 . S
H7932 C7940 0.929 . S
H7933 C7942 0.930 . S
H7934 C7944 0.930 . S
H7935 C7947 0.929 . S
H7936 C7950 0.930 . S
H7937 C7952 0.960 . S
H7938 C7952 0.960 . S
H7939 C7952 0.960 . S
C7940 H7932 0.929 . S
C7940 C7941 1.377 . S
C7940 C7942 1.384 . S
C7941 C7940 1.377 . S
C7941 C7947 1.390 . S
C7942 H7933 0.930 . S
C7942 C7940 1.384 . S
C7942 C7943 1.372 . S
C7943 C7942 1.372 . S
C7943 C7944 1.400 . S
C7943 C7948 1.490 . S
C7944 H7934 0.930 . S
C7944 C7943 1.400 . S
C7944 C7947 1.386 . S
H7945 C7961 0.930 . S
H7946 C7962 0.931 . S
C7947 H7935 0.929 . S
C7947 C7941 1.390 . S
C7947 C7944 1.386 . S
C7948 C7943 1.490 . S
C7948 C7950 1.395 . S
C7948 C7951 1.403 . S
H7949 C7955 0.930 . S
C7950 H7936 0.930 . S
C7950 C7948 1.395 . S
C7950 C7953 1.403 . S
C7951 C7948 1.403 . S
C7951 C7952 1.524 . S
C7951 C7955 1.400 . S
C7952 H7937 0.960 . S
C7952 H7938 0.960 . S
C7952 H7939 0.960 . S
C7952 C7951 1.524 . S
C7953 C7950 1.403 . S
C7953 C7954 1.392 . S
C7953 C7957 1.495 . S
C7954 C7953 1.392 . S
C7954 C7955 1.385 . S
C7954 C7956 1.478 . S
C7955 H7949 0.930 . S
C7955 C7951 1.400 . S
C7955 C7954 1.385 . S
C7956 C7954 1.478 . S
C7956 C7958 1.381 . S
C7956 C7962 1.383 . S
C7957 C7953 1.495 . S
C7957 H7963 0.959 . S
C7957 H7964 0.961 . S
C7957 H7965 0.960 . S
C7958 C7956 1.381 . S
C7958 C7959 1.394 . S
C7958 H7966 0.930 . S
C7959 C7958 1.394 . S
C7959 C7960 1.383 . S
C7959 H7967 0.929 . S
C7960 C7959 1.383 . S
C7960 C7961 1.377 . S
C7961 H7945 0.930 . S
C7961 C7960 1.377 . S
C7961 C7962 1.379 . S
C7962 H7946 0.931 . S
C7962 C7956 1.383 . S
C7962 C7961 1.379 . S
H7963 C7957 0.959 . S
H7964 C7957 0.961 . S
H7965 C7957 0.960 . S
H7966 C7958 0.930 . S
H7967 C7959 0.929 . S
H7968 C7976 0.929 . S
H7969 C7978 0.930 . S
H7970 C7980 0.930 . S
H7971 C7983 0.929 . S
H7972 C7986 0.930 . S
H7973 C7988 0.960 . S
H7974 C7988 0.960 . S
H7975 C7988 0.960 . S
C7976 H7968 0.929 . S
C7976 C7977 1.377 . S
C7976 C7978 1.384 . S
C7977 C7976 1.377 . S
C7977 C7983 1.390 . S
C7978 H7969 0.930 . S
C7978 C7976 1.384 . S
C7978 C7979 1.372 . S
C7979 C7978 1.372 . S
C7979 C7980 1.400 . S
C7979 C7984 1.490 . S
C7980 H7970 0.930 . S
C7980 C7979 1.400 . S
C7980 C7983 1.386 . S
H7981 C7997 0.930 . S
H7982 C7998 0.931 . S
C7983 H7971 0.929 . S
C7983 C7977 1.390 . S
C7983 C7980 1.386 . S
C7984 C7979 1.490 . S
C7984 C7986 1.395 . S
C7984 C7987 1.403 . S
H7985 C7991 0.930 . S
C7986 H7972 0.930 . S
C7986 C7984 1.395 . S
C7986 C7989 1.403 . S
C7987 C7984 1.403 . S
C7987 C7988 1.524 . S
C7987 C7991 1.400 . S
C7988 H7973 0.960 . S
C7988 H7974 0.960 . S
C7988 H7975 0.960 . S
C7988 C7987 1.524 . S
C7989 C7986 1.403 . S
C7989 C7990 1.392 . S
C7989 C7993 1.495 . S
C7990 C7989 1.392 . S
C7990 C7991 1.385 . S
C7990 C7992 1.478 . S
C7991 H7985 0.930 . S
C7991 C7987 1.400 . S
C7991 C7990 1.385 . S
C7992 C7990 1.478 . S
C7992 C7994 1.381 . S
C7992 C7998 1.383 . S
C7993 C7989 1.495 . S
C7993 H7999 0.959 . S
C7993 H8000 0.961 . S
C7993 H8001 0.960 . S
C7994 C7992 1.381 . S
C7994 C7995 1.394 . S
C7994 H8002 0.930 . S
C7995 C7994 1.394 . S
C7995 C7996 1.383 . S
C7995 H8003 0.929 . S
C7996 C7995 1.383 . S
C7996 C7997 1.377 . S
C7997 H7981 0.930 . S
C7997 C7996 1.377 . S
C7997 C7998 1.379 . S
C7998 H7982 0.931 . S
C7998 C7992 1.383 . S
C7998 C7997 1.379 . S
H7999 C7993 0.959 . S
H8000 C7993 0.961 . S
H8001 C7993 0.960 . S
H8002 C7994 0.930 . S
H8003 C7995 0.929 . S
H8004 C8012 0.929 . S
H8005 C8014 0.930 . S
H8006 C8016 0.930 . S
H8007 C8019 0.929 . S
H8008 C8022 0.930 . S
H8009 C8024 0.960 . S
H8010 C8024 0.960 . S
H8011 C8024 0.960 . S
C8012 H8004 0.929 . S
C8012 C8013 1.377 . S
C8012 C8014 1.384 . S
C8013 C8012 1.377 . S
C8013 C8019 1.390 . S
C8014 H8005 0.930 . S
C8014 C8012 1.384 . S
C8014 C8015 1.372 . S
C8015 C8014 1.372 . S
C8015 C8016 1.400 . S
C8015 C8020 1.490 . S
C8016 H8006 0.930 . S
C8016 C8015 1.400 . S
C8016 C8019 1.386 . S
H8017 C8033 0.930 . S
H8018 C8034 0.931 . S
C8019 H8007 0.929 . S
C8019 C8013 1.390 . S
C8019 C8016 1.386 . S
C8020 C8015 1.490 . S
C8020 C8022 1.395 . S
C8020 C8023 1.403 . S
H8021 C8027 0.930 . S
C8022 H8008 0.930 . S
C8022 C8020 1.395 . S
C8022 C8025 1.403 . S
C8023 C8020 1.403 . S
C8023 C8024 1.524 . S
C8023 C8027 1.400 . S
C8024 H8009 0.960 . S
C8024 H8010 0.960 . S
C8024 H8011 0.960 . S
C8024 C8023 1.524 . S
C8025 C8022 1.403 . S
C8025 C8026 1.392 . S
C8025 C8029 1.495 . S
C8026 C8025 1.392 . S
C8026 C8027 1.385 . S
C8026 C8028 1.478 . S
C8027 H8021 0.930 . S
C8027 C8023 1.400 . S
C8027 C8026 1.385 . S
C8028 C8026 1.478 . S
C8028 C8030 1.381 . S
C8028 C8034 1.383 . S
C8029 C8025 1.495 . S
C8029 H8035 0.959 . S
C8029 H8036 0.961 . S
C8029 H8037 0.960 . S
C8030 C8028 1.381 . S
C8030 C8031 1.394 . S
C8030 H8038 0.930 . S
C8031 C8030 1.394 . S
C8031 C8032 1.383 . S
C8031 H8039 0.929 . S
C8032 C8031 1.383 . S
C8032 C8033 1.377 . S
C8033 H8017 0.930 . S
C8033 C8032 1.377 . S
C8033 C8034 1.379 . S
C8034 H8018 0.931 . S
C8034 C8028 1.383 . S
C8034 C8033 1.379 . S
H8035 C8029 0.959 . S
H8036 C8029 0.961 . S
H8037 C8029 0.960 . S
H8038 C8030 0.930 . S
H8039 C8031 0.929 . S
H8040 C8048 0.929 . S
H8041 C8050 0.930 . S
H8042 C8052 0.930 . S
H8043 C8055 0.929 . S
H8044 C8058 0.930 . S
H8045 C8060 0.960 . S
H8046 C8060 0.960 . S
H8047 C8060 0.960 . S
C8048 H8040 0.929 . S
C8048 C8049 1.377 . S
C8048 C8050 1.384 . S
C8049 C8048 1.377 . S
C8049 C8055 1.390 . S
C8050 H8041 0.930 . S
C8050 C8048 1.384 . S
C8050 C8051 1.372 . S
C8051 C8050 1.372 . S
C8051 C8052 1.400 . S
C8051 C8056 1.490 . S
C8052 H8042 0.930 . S
C8052 C8051 1.400 . S
C8052 C8055 1.386 . S
H8053 C8069 0.930 . S
H8054 C8070 0.931 . S
C8055 H8043 0.929 . S
C8055 C8049 1.390 . S
C8055 C8052 1.386 . S
C8056 C8051 1.490 . S
C8056 C8058 1.395 . S
C8056 C8059 1.403 . S
H8057 C8063 0.930 . S
C8058 H8044 0.930 . S
C8058 C8056 1.395 . S
C8058 C8061 1.403 . S
C8059 C8056 1.403 . S
C8059 C8060 1.524 . S
C8059 C8063 1.400 . S
C8060 H8045 0.960 . S
C8060 H8046 0.960 . S
C8060 H8047 0.960 . S
C8060 C8059 1.524 . S
C8061 C8058 1.403 . S
C8061 C8062 1.392 . S
C8061 C8065 1.495 . S
C8062 C8061 1.392 . S
C8062 C8063 1.385 . S
C8062 C8064 1.478 . S
C8063 H8057 0.930 . S
C8063 C8059 1.400 . S
C8063 C8062 1.385 . S
C8064 C8062 1.478 . S
C8064 C8066 1.381 . S
C8064 C8070 1.383 . S
C8065 C8061 1.495 . S
C8065 H8071 0.959 . S
C8065 H8072 0.961 . S
C8065 H8073 0.960 . S
C8066 C8064 1.381 . S
C8066 C8067 1.394 . S
C8066 H8074 0.930 . S
C8067 C8066 1.394 . S
C8067 C8068 1.383 . S
C8067 H8075 0.929 . S
C8068 C8067 1.383 . S
C8068 C8069 1.377 . S
C8069 H8053 0.930 . S
C8069 C8068 1.377 . S
C8069 C8070 1.379 . S
C8070 H8054 0.931 . S
C8070 C8064 1.383 . S
C8070 C8069 1.379 . S
H8071 C8065 0.959 . S
H8072 C8065 0.961 . S
H8073 C8065 0.960 . S
H8074 C8066 0.930 . S
H8075 C8067 0.929 . S
H8076 C8084 0.929 . S
H8077 C8086 0.930 . S
H8078 C8088 0.930 . S
H8079 C8091 0.929 . S
H8080 C8094 0.930 . S
H8081 C8096 0.960 . S
H8082 C8096 0.960 . S
H8083 C8096 0.960 . S
C8084 H8076 0.929 . S
C8084 C8085 1.377 . S
C8084 C8086 1.384 . S
C8085 C8084 1.377 . S
C8085 C8091 1.390 . S
C8086 H8077 0.930 . S
C8086 C8084 1.384 . S
C8086 C8087 1.372 . S
C8087 C8086 1.372 . S
C8087 C8088 1.400 . S
C8087 C8092 1.490 . S
C8088 H8078 0.930 . S
C8088 C8087 1.400 . S
C8088 C8091 1.386 . S
H8089 C8105 0.930 . S
H8090 C8106 0.931 . S
C8091 H8079 0.929 . S
C8091 C8085 1.390 . S
C8091 C8088 1.386 . S
C8092 C8087 1.490 . S
C8092 C8094 1.395 . S
C8092 C8095 1.403 . S
H8093 C8099 0.930 . S
C8094 H8080 0.930 . S
C8094 C8092 1.395 . S
C8094 C8097 1.403 . S
C8095 C8092 1.403 . S
C8095 C8096 1.524 . S
C8095 C8099 1.400 . S
C8096 H8081 0.960 . S
C8096 H8082 0.960 . S
C8096 H8083 0.960 . S
C8096 C8095 1.524 . S
C8097 C8094 1.403 . S
C8097 C8098 1.392 . S
C8097 C8101 1.495 . S
C8098 C8097 1.392 . S
C8098 C8099 1.385 . S
C8098 C8100 1.478 . S
C8099 H8093 0.930 . S
C8099 C8095 1.400 . S
C8099 C8098 1.385 . S
C8100 C8098 1.478 . S
C8100 C8102 1.381 . S
C8100 C8106 1.383 . S
C8101 C8097 1.495 . S
C8101 H8107 0.959 . S
C8101 H8108 0.961 . S
C8101 H8109 0.960 . S
C8102 C8100 1.381 . S
C8102 C8103 1.394 . S
C8102 H8110 0.930 . S
C8103 C8102 1.394 . S
C8103 C8104 1.383 . S
C8103 H8111 0.929 . S
C8104 C8103 1.383 . S
C8104 C8105 1.377 . S
C8105 H8089 0.930 . S
C8105 C8104 1.377 . S
C8105 C8106 1.379 . S
C8106 H8090 0.931 . S
C8106 C8100 1.383 . S
C8106 C8105 1.379 . S
H8107 C8101 0.959 . S
H8108 C8101 0.961 . S
H8109 C8101 0.960 . S
H8110 C8102 0.930 . S
H8111 C8103 0.929 . S
H8112 C8120 0.929 . S
H8113 C8122 0.930 . S
H8114 C8124 0.930 . S
H8115 C8127 0.929 . S
H8116 C8130 0.930 . S
H8117 C8132 0.960 . S
H8118 C8132 0.960 . S
H8119 C8132 0.960 . S
C8120 H8112 0.929 . S
C8120 C8121 1.377 . S
C8120 C8122 1.384 . S
C8121 C8120 1.377 . S
C8121 C8127 1.390 . S
C8122 H8113 0.930 . S
C8122 C8120 1.384 . S
C8122 C8123 1.372 . S
C8123 C8122 1.372 . S
C8123 C8124 1.400 . S
C8123 C8128 1.490 . S
C8124 H8114 0.930 . S
C8124 C8123 1.400 . S
C8124 C8127 1.386 . S
H8125 C8141 0.930 . S
H8126 C8142 0.931 . S
C8127 H8115 0.929 . S
C8127 C8121 1.390 . S
C8127 C8124 1.386 . S
C8128 C8123 1.490 . S
C8128 C8130 1.395 . S
C8128 C8131 1.403 . S
H8129 C8135 0.930 . S
C8130 H8116 0.930 . S
C8130 C8128 1.395 . S
C8130 C8133 1.403 . S
C8131 C8128 1.403 . S
C8131 C8132 1.524 . S
C8131 C8135 1.400 . S
C8132 H8117 0.960 . S
C8132 H8118 0.960 . S
C8132 H8119 0.960 . S
C8132 C8131 1.524 . S
C8133 C8130 1.403 . S
C8133 C8134 1.392 . S
C8133 C8137 1.495 . S
C8134 C8133 1.392 . S
C8134 C8135 1.385 . S
C8134 C8136 1.478 . S
C8135 H8129 0.930 . S
C8135 C8131 1.400 . S
C8135 C8134 1.385 . S
C8136 C8134 1.478 . S
C8136 C8138 1.381 . S
C8136 C8142 1.383 . S
C8137 C8133 1.495 . S
C8137 H8143 0.959 . S
C8137 H8144 0.961 . S
C8137 H8145 0.960 . S
C8138 C8136 1.381 . S
C8138 C8139 1.394 . S
C8138 H8146 0.930 . S
C8139 C8138 1.394 . S
C8139 C8140 1.383 . S
C8139 H8147 0.929 . S
C8140 C8139 1.383 . S
C8140 C8141 1.377 . S
C8141 H8125 0.930 . S
C8141 C8140 1.377 . S
C8141 C8142 1.379 . S
C8142 H8126 0.931 . S
C8142 C8136 1.383 . S
C8142 C8141 1.379 . S
H8143 C8137 0.959 . S
H8144 C8137 0.961 . S
H8145 C8137 0.960 . S
H8146 C8138 0.930 . S
H8147 C8139 0.929 . S
H8148 C8156 0.929 . S
H8149 C8158 0.930 . S
H8150 C8160 0.930 . S
H8151 C8163 0.929 . S
H8152 C8166 0.930 . S
H8153 C8168 0.960 . S
H8154 C8168 0.960 . S
H8155 C8168 0.960 . S
C8156 H8148 0.929 . S
C8156 C8157 1.377 . S
C8156 C8158 1.384 . S
C8157 C8156 1.377 . S
C8157 C8163 1.390 . S
C8158 H8149 0.930 . S
C8158 C8156 1.384 . S
C8158 C8159 1.372 . S
C8159 C8158 1.372 . S
C8159 C8160 1.400 . S
C8159 C8164 1.490 . S
C8160 H8150 0.930 . S
C8160 C8159 1.400 . S
C8160 C8163 1.386 . S
H8161 C8177 0.930 . S
H8162 C8178 0.931 . S
C8163 H8151 0.929 . S
C8163 C8157 1.390 . S
C8163 C8160 1.386 . S
C8164 C8159 1.490 . S
C8164 C8166 1.395 . S
C8164 C8167 1.403 . S
H8165 C8171 0.930 . S
C8166 H8152 0.930 . S
C8166 C8164 1.395 . S
C8166 C8169 1.403 . S
C8167 C8164 1.403 . S
C8167 C8168 1.524 . S
C8167 C8171 1.400 . S
C8168 H8153 0.960 . S
C8168 H8154 0.960 . S
C8168 H8155 0.960 . S
C8168 C8167 1.524 . S
C8169 C8166 1.403 . S
C8169 C8170 1.392 . S
C8169 C8173 1.495 . S
C8170 C8169 1.392 . S
C8170 C8171 1.385 . S
C8170 C8172 1.478 . S
C8171 H8165 0.930 . S
C8171 C8167 1.400 . S
C8171 C8170 1.385 . S
C8172 C8170 1.478 . S
C8172 C8174 1.381 . S
C8172 C8178 1.383 . S
C8173 C8169 1.495 . S
C8173 H8179 0.959 . S
C8173 H8180 0.961 . S
C8173 H8181 0.960 . S
C8174 C8172 1.381 . S
C8174 C8175 1.394 . S
C8174 H8182 0.930 . S
C8175 C8174 1.394 . S
C8175 C8176 1.383 . S
C8175 H8183 0.929 . S
C8176 C8175 1.383 . S
C8176 C8177 1.377 . S
C8177 H8161 0.930 . S
C8177 C8176 1.377 . S
C8177 C8178 1.379 . S
C8178 H8162 0.931 . S
C8178 C8172 1.383 . S
C8178 C8177 1.379 . S
H8179 C8173 0.959 . S
H8180 C8173 0.961 . S
H8181 C8173 0.960 . S
H8182 C8174 0.930 . S
H8183 C8175 0.929 . S
H8184 C8192 0.929 . S
H8185 C8194 0.930 . S
H8186 C8196 0.930 . S
H8187 C8199 0.929 . S
H8188 C8202 0.930 . S
H8189 C8204 0.960 . S
H8190 C8204 0.960 . S
H8191 C8204 0.960 . S
C8192 H8184 0.929 . S
C8192 C8193 1.377 . S
C8192 C8194 1.384 . S
C8193 C8192 1.377 . S
C8193 C8199 1.390 . S
C8194 H8185 0.930 . S
C8194 C8192 1.384 . S
C8194 C8195 1.372 . S
C8195 C8194 1.372 . S
C8195 C8196 1.400 . S
C8195 C8200 1.490 . S
C8196 H8186 0.930 . S
C8196 C8195 1.400 . S
C8196 C8199 1.386 . S
H8197 C8213 0.930 . S
H8198 C8214 0.931 . S
C8199 H8187 0.929 . S
C8199 C8193 1.390 . S
C8199 C8196 1.386 . S
C8200 C8195 1.490 . S
C8200 C8202 1.395 . S
C8200 C8203 1.403 . S
H8201 C8207 0.930 . S
C8202 H8188 0.930 . S
C8202 C8200 1.395 . S
C8202 C8205 1.403 . S
C8203 C8200 1.403 . S
C8203 C8204 1.524 . S
C8203 C8207 1.400 . S
C8204 H8189 0.960 . S
C8204 H8190 0.960 . S
C8204 H8191 0.960 . S
C8204 C8203 1.524 . S
C8205 C8202 1.403 . S
C8205 C8206 1.392 . S
C8205 C8209 1.495 . S
C8206 C8205 1.392 . S
C8206 C8207 1.385 . S
C8206 C8208 1.478 . S
C8207 H8201 0.930 . S
C8207 C8203 1.400 . S
C8207 C8206 1.385 . S
C8208 C8206 1.478 . S
C8208 C8210 1.381 . S
C8208 C8214 1.383 . S
C8209 C8205 1.495 . S
C8209 H8215 0.959 . S
C8209 H8216 0.961 . S
C8209 H8217 0.960 . S
C8210 C8208 1.381 . S
C8210 C8211 1.394 . S
C8210 H8218 0.930 . S
C8211 C8210 1.394 . S
C8211 C8212 1.383 . S
C8211 H8219 0.929 . S
C8212 C8211 1.383 . S
C8212 C8213 1.377 . S
C8213 H8197 0.930 . S
C8213 C8212 1.377 . S
C8213 C8214 1.379 . S
C8214 H8198 0.931 . S
C8214 C8208 1.383 . S
C8214 C8213 1.379 . S
H8215 C8209 0.959 . S
H8216 C8209 0.961 . S
H8217 C8209 0.960 . S
H8218 C8210 0.930 . S
H8219 C8211 0.929 . S
H8220 C8228 0.929 . S
H8221 C8230 0.930 . S
H8222 C8232 0.930 . S
H8223 C8235 0.929 . S
H8224 C8238 0.930 . S
H8225 C8240 0.960 . S
H8226 C8240 0.960 . S
H8227 C8240 0.960 . S
C8228 H8220 0.929 . S
C8228 C8229 1.377 . S
C8228 C8230 1.384 . S
C8229 C8228 1.377 . S
C8229 C8235 1.390 . S
C8230 H8221 0.930 . S
C8230 C8228 1.384 . S
C8230 C8231 1.372 . S
C8231 C8230 1.372 . S
C8231 C8232 1.400 . S
C8231 C8236 1.490 . S
C8232 H8222 0.930 . S
C8232 C8231 1.400 . S
C8232 C8235 1.386 . S
H8233 C8249 0.930 . S
H8234 C8250 0.931 . S
C8235 H8223 0.929 . S
C8235 C8229 1.390 . S
C8235 C8232 1.386 . S
C8236 C8231 1.490 . S
C8236 C8238 1.395 . S
C8236 C8239 1.403 . S
H8237 C8243 0.930 . S
C8238 H8224 0.930 . S
C8238 C8236 1.395 . S
C8238 C8241 1.403 . S
C8239 C8236 1.403 . S
C8239 C8240 1.524 . S
C8239 C8243 1.400 . S
C8240 H8225 0.960 . S
C8240 H8226 0.960 . S
C8240 H8227 0.960 . S
C8240 C8239 1.524 . S
C8241 C8238 1.403 . S
C8241 C8242 1.392 . S
C8241 C8245 1.495 . S
C8242 C8241 1.392 . S
C8242 C8243 1.385 . S
C8242 C8244 1.478 . S
C8243 H8237 0.930 . S
C8243 C8239 1.400 . S
C8243 C8242 1.385 . S
C8244 C8242 1.478 . S
C8244 C8246 1.381 . S
C8244 C8250 1.383 . S
C8245 C8241 1.495 . S
C8245 H8251 0.959 . S
C8245 H8252 0.961 . S
C8245 H8253 0.960 . S
C8246 C8244 1.381 . S
C8246 C8247 1.394 . S
C8246 H8254 0.930 . S
C8247 C8246 1.394 . S
C8247 C8248 1.383 . S
C8247 H8255 0.929 . S
C8248 C8247 1.383 . S
C8248 C8249 1.377 . S
C8249 H8233 0.930 . S
C8249 C8248 1.377 . S
C8249 C8250 1.379 . S
C8250 H8234 0.931 . S
C8250 C8244 1.383 . S
C8250 C8249 1.379 . S
H8251 C8245 0.959 . S
H8252 C8245 0.961 . S
H8253 C8245 0.960 . S
H8254 C8246 0.930 . S
H8255 C8247 0.929 . S
H8256 C8264 0.929 . S
H8257 C8266 0.930 . S
H8258 C8268 0.930 . S
H8259 C8271 0.929 . S
H8260 C8274 0.930 . S
H8261 C8276 0.960 . S
H8262 C8276 0.960 . S
H8263 C8276 0.960 . S
C8264 H8256 0.929 . S
C8264 C8265 1.377 . S
C8264 C8266 1.384 . S
C8265 C8264 1.377 . S
C8265 C8271 1.390 . S
C8266 H8257 0.930 . S
C8266 C8264 1.384 . S
C8266 C8267 1.372 . S
C8267 C8266 1.372 . S
C8267 C8268 1.400 . S
C8267 C8272 1.490 . S
C8268 H8258 0.930 . S
C8268 C8267 1.400 . S
C8268 C8271 1.386 . S
H8269 C8285 0.930 . S
H8270 C8286 0.931 . S
C8271 H8259 0.929 . S
C8271 C8265 1.390 . S
C8271 C8268 1.386 . S
C8272 C8267 1.490 . S
C8272 C8274 1.395 . S
C8272 C8275 1.403 . S
H8273 C8279 0.930 . S
C8274 H8260 0.930 . S
C8274 C8272 1.395 . S
C8274 C8277 1.403 . S
C8275 C8272 1.403 . S
C8275 C8276 1.524 . S
C8275 C8279 1.400 . S
C8276 H8261 0.960 . S
C8276 H8262 0.960 . S
C8276 H8263 0.960 . S
C8276 C8275 1.524 . S
C8277 C8274 1.403 . S
C8277 C8278 1.392 . S
C8277 C8281 1.495 . S
C8278 C8277 1.392 . S
C8278 C8279 1.385 . S
C8278 C8280 1.478 . S
C8279 H8273 0.930 . S
C8279 C8275 1.400 . S
C8279 C8278 1.385 . S
C8280 C8278 1.478 . S
C8280 C8282 1.381 . S
C8280 C8286 1.383 . S
C8281 C8277 1.495 . S
C8281 H8287 0.959 . S
C8281 H8288 0.961 . S
C8281 H8289 0.960 . S
C8282 C8280 1.381 . S
C8282 C8283 1.394 . S
C8282 H8290 0.930 . S
C8283 C8282 1.394 . S
C8283 C8284 1.383 . S
C8283 H8291 0.929 . S
C8284 C8283 1.383 . S
C8284 C8285 1.377 . S
C8285 H8269 0.930 . S
C8285 C8284 1.377 . S
C8285 C8286 1.379 . S
C8286 H8270 0.931 . S
C8286 C8280 1.383 . S
C8286 C8285 1.379 . S
H8287 C8281 0.959 . S
H8288 C8281 0.961 . S
H8289 C8281 0.960 . S
H8290 C8282 0.930 . S
H8291 C8283 0.929 . S
H8292 C8300 0.929 . S
H8293 C8302 0.930 . S
H8294 C8304 0.930 . S
H8295 C8307 0.929 . S
H8296 C8310 0.930 . S
H8297 C8312 0.960 . S
H8298 C8312 0.960 . S
H8299 C8312 0.960 . S
C8300 H8292 0.929 . S
C8300 C8301 1.377 . S
C8300 C8302 1.384 . S
C8301 C8300 1.377 . S
C8301 C8307 1.390 . S
C8302 H8293 0.930 . S
C8302 C8300 1.384 . S
C8302 C8303 1.372 . S
C8303 C8302 1.372 . S
C8303 C8304 1.400 . S
C8303 C8308 1.490 . S
C8304 H8294 0.930 . S
C8304 C8303 1.400 . S
C8304 C8307 1.386 . S
H8305 C8321 0.930 . S
H8306 C8322 0.931 . S
C8307 H8295 0.929 . S
C8307 C8301 1.390 . S
C8307 C8304 1.386 . S
C8308 C8303 1.490 . S
C8308 C8310 1.395 . S
C8308 C8311 1.403 . S
H8309 C8315 0.930 . S
C8310 H8296 0.930 . S
C8310 C8308 1.395 . S
C8310 C8313 1.403 . S
C8311 C8308 1.403 . S
C8311 C8312 1.524 . S
C8311 C8315 1.400 . S
C8312 H8297 0.960 . S
C8312 H8298 0.960 . S
C8312 H8299 0.960 . S
C8312 C8311 1.524 . S
C8313 C8310 1.403 . S
C8313 C8314 1.392 . S
C8313 C8317 1.495 . S
C8314 C8313 1.392 . S
C8314 C8315 1.385 . S
C8314 C8316 1.478 . S
C8315 H8309 0.930 . S
C8315 C8311 1.400 . S
C8315 C8314 1.385 . S
C8316 C8314 1.478 . S
C8316 C8318 1.381 . S
C8316 C8322 1.383 . S
C8317 C8313 1.495 . S
C8317 H8323 0.959 . S
C8317 H8324 0.961 . S
C8317 H8325 0.960 . S
C8318 C8316 1.381 . S
C8318 C8319 1.394 . S
C8318 H8326 0.930 . S
C8319 C8318 1.394 . S
C8319 C8320 1.383 . S
C8319 H8327 0.929 . S
C8320 C8319 1.383 . S
C8320 C8321 1.377 . S
C8321 H8305 0.930 . S
C8321 C8320 1.377 . S
C8321 C8322 1.379 . S
C8322 H8306 0.931 . S
C8322 C8316 1.383 . S
C8322 C8321 1.379 . S
H8323 C8317 0.959 . S
H8324 C8317 0.961 . S
H8325 C8317 0.960 . S
H8326 C8318 0.930 . S
H8327 C8319 0.929 . S
H8328 C8336 0.929 . S
H8329 C8338 0.930 . S
H8330 C8340 0.930 . S
H8331 C8343 0.929 . S
H8332 C8346 0.930 . S
H8333 C8348 0.960 . S
H8334 C8348 0.960 . S
H8335 C8348 0.960 . S
C8336 H8328 0.929 . S
C8336 C8337 1.377 . S
C8336 C8338 1.384 . S
C8337 C8336 1.377 . S
C8337 C8343 1.390 . S
C8338 H8329 0.930 . S
C8338 C8336 1.384 . S
C8338 C8339 1.372 . S
C8339 C8338 1.372 . S
C8339 C8340 1.400 . S
C8339 C8344 1.490 . S
C8340 H8330 0.930 . S
C8340 C8339 1.400 . S
C8340 C8343 1.386 . S
H8341 C8357 0.930 . S
H8342 C8358 0.931 . S
C8343 H8331 0.929 . S
C8343 C8337 1.390 . S
C8343 C8340 1.386 . S
C8344 C8339 1.490 . S
C8344 C8346 1.395 . S
C8344 C8347 1.403 . S
H8345 C8351 0.930 . S
C8346 H8332 0.930 . S
C8346 C8344 1.395 . S
C8346 C8349 1.403 . S
C8347 C8344 1.403 . S
C8347 C8348 1.524 . S
C8347 C8351 1.400 . S
C8348 H8333 0.960 . S
C8348 H8334 0.960 . S
C8348 H8335 0.960 . S
C8348 C8347 1.524 . S
C8349 C8346 1.403 . S
C8349 C8350 1.392 . S
C8349 C8353 1.495 . S
C8350 C8349 1.392 . S
C8350 C8351 1.385 . S
C8350 C8352 1.478 . S
C8351 H8345 0.930 . S
C8351 C8347 1.400 . S
C8351 C8350 1.385 . S
C8352 C8350 1.478 . S
C8352 C8354 1.381 . S
C8352 C8358 1.383 . S
C8353 C8349 1.495 . S
C8353 H8359 0.959 . S
C8353 H8360 0.961 . S
C8353 H8361 0.960 . S
C8354 C8352 1.381 . S
C8354 C8355 1.394 . S
C8354 H8362 0.930 . S
C8355 C8354 1.394 . S
C8355 C8356 1.383 . S
C8355 H8363 0.929 . S
C8356 C8355 1.383 . S
C8356 C8357 1.377 . S
C8357 H8341 0.930 . S
C8357 C8356 1.377 . S
C8357 C8358 1.379 . S
C8358 H8342 0.931 . S
C8358 C8352 1.383 . S
C8358 C8357 1.379 . S
H8359 C8353 0.959 . S
H8360 C8353 0.961 . S
H8361 C8353 0.960 . S
H8362 C8354 0.930 . S
H8363 C8355 0.929 . S
H8364 C8372 0.929 . S
H8365 C8374 0.930 . S
H8366 C8376 0.930 . S
H8367 C8379 0.929 . S
H8368 C8382 0.930 . S
H8369 C8384 0.960 . S
H8370 C8384 0.960 . S
H8371 C8384 0.960 . S
C8372 H8364 0.929 . S
C8372 C8373 1.377 . S
C8372 C8374 1.384 . S
C8373 C8372 1.377 . S
C8373 C8379 1.390 . S
C8374 H8365 0.930 . S
C8374 C8372 1.384 . S
C8374 C8375 1.372 . S
C8375 C8374 1.372 . S
C8375 C8376 1.400 . S
C8375 C8380 1.490 . S
C8376 H8366 0.930 . S
C8376 C8375 1.400 . S
C8376 C8379 1.386 . S
H8377 C8393 0.930 . S
H8378 C8394 0.931 . S
C8379 H8367 0.929 . S
C8379 C8373 1.390 . S
C8379 C8376 1.386 . S
C8380 C8375 1.490 . S
C8380 C8382 1.395 . S
C8380 C8383 1.403 . S
H8381 C8387 0.930 . S
C8382 H8368 0.930 . S
C8382 C8380 1.395 . S
C8382 C8385 1.403 . S
C8383 C8380 1.403 . S
C8383 C8384 1.524 . S
C8383 C8387 1.400 . S
C8384 H8369 0.960 . S
C8384 H8370 0.960 . S
C8384 H8371 0.960 . S
C8384 C8383 1.524 . S
C8385 C8382 1.403 . S
C8385 C8386 1.392 . S
C8385 C8389 1.495 . S
C8386 C8385 1.392 . S
C8386 C8387 1.385 . S
C8386 C8388 1.478 . S
C8387 H8381 0.930 . S
C8387 C8383 1.400 . S
C8387 C8386 1.385 . S
C8388 C8386 1.478 . S
C8388 C8390 1.381 . S
C8388 C8394 1.383 . S
C8389 C8385 1.495 . S
C8389 H8395 0.959 . S
C8389 H8396 0.961 . S
C8389 H8397 0.960 . S
C8390 C8388 1.381 . S
C8390 C8391 1.394 . S
C8390 H8398 0.930 . S
C8391 C8390 1.394 . S
C8391 C8392 1.383 . S
C8391 H8399 0.929 . S
C8392 C8391 1.383 . S
C8392 C8393 1.377 . S
C8393 H8377 0.930 . S
C8393 C8392 1.377 . S
C8393 C8394 1.379 . S
C8394 H8378 0.931 . S
C8394 C8388 1.383 . S
C8394 C8393 1.379 . S
H8395 C8389 0.959 . S
H8396 C8389 0.961 . S
H8397 C8389 0.960 . S
H8398 C8390 0.930 . S
H8399 C8391 0.929 . S
H8400 C8408 0.929 . S
H8401 C8410 0.930 . S
H8402 C8412 0.930 . S
H8403 C8415 0.929 . S
H8404 C8418 0.930 . S
H8405 C8420 0.960 . S
H8406 C8420 0.960 . S
H8407 C8420 0.960 . S
C8408 H8400 0.929 . S
C8408 C8409 1.377 . S
C8408 C8410 1.384 . S
C8409 C8408 1.377 . S
C8409 C8415 1.390 . S
C8410 H8401 0.930 . S
C8410 C8408 1.384 . S
C8410 C8411 1.372 . S
C8411 C8410 1.372 . S
C8411 C8412 1.400 . S
C8411 C8416 1.490 . S
C8412 H8402 0.930 . S
C8412 C8411 1.400 . S
C8412 C8415 1.386 . S
H8413 C8429 0.930 . S
H8414 C8430 0.931 . S
C8415 H8403 0.929 . S
C8415 C8409 1.390 . S
C8415 C8412 1.386 . S
C8416 C8411 1.490 . S
C8416 C8418 1.395 . S
C8416 C8419 1.403 . S
H8417 C8423 0.930 . S
C8418 H8404 0.930 . S
C8418 C8416 1.395 . S
C8418 C8421 1.403 . S
C8419 C8416 1.403 . S
C8419 C8420 1.524 . S
C8419 C8423 1.400 . S
C8420 H8405 0.960 . S
C8420 H8406 0.960 . S
C8420 H8407 0.960 . S
C8420 C8419 1.524 . S
C8421 C8418 1.403 . S
C8421 C8422 1.392 . S
C8421 C8425 1.495 . S
C8422 C8421 1.392 . S
C8422 C8423 1.385 . S
C8422 C8424 1.478 . S
C8423 H8417 0.930 . S
C8423 C8419 1.400 . S
C8423 C8422 1.385 . S
C8424 C8422 1.478 . S
C8424 C8426 1.381 . S
C8424 C8430 1.383 . S
C8425 C8421 1.495 . S
C8425 H8431 0.959 . S
C8425 H8432 0.961 . S
C8425 H8433 0.960 . S
C8426 C8424 1.381 . S
C8426 C8427 1.394 . S
C8426 H8434 0.930 . S
C8427 C8426 1.394 . S
C8427 C8428 1.383 . S
C8427 H8435 0.929 . S
C8428 C8427 1.383 . S
C8428 C8429 1.377 . S
C8429 H8413 0.930 . S
C8429 C8428 1.377 . S
C8429 C8430 1.379 . S
C8430 H8414 0.931 . S
C8430 C8424 1.383 . S
C8430 C8429 1.379 . S
H8431 C8425 0.959 . S
H8432 C8425 0.961 . S
H8433 C8425 0.960 . S
H8434 C8426 0.930 . S
H8435 C8427 0.929 . S
H8436 C8444 0.929 . S
H8437 C8446 0.930 . S
H8438 C8448 0.930 . S
H8439 C8451 0.929 . S
H8440 C8454 0.930 . S
H8441 C8456 0.960 . S
H8442 C8456 0.960 . S
H8443 C8456 0.960 . S
C8444 H8436 0.929 . S
C8444 C8445 1.377 . S
C8444 C8446 1.384 . S
C8445 C8444 1.377 . S
C8445 C8451 1.390 . S
C8446 H8437 0.930 . S
C8446 C8444 1.384 . S
C8446 C8447 1.372 . S
C8447 C8446 1.372 . S
C8447 C8448 1.400 . S
C8447 C8452 1.490 . S
C8448 H8438 0.930 . S
C8448 C8447 1.400 . S
C8448 C8451 1.386 . S
H8449 C8465 0.930 . S
H8450 C8466 0.931 . S
C8451 H8439 0.929 . S
C8451 C8445 1.390 . S
C8451 C8448 1.386 . S
C8452 C8447 1.490 . S
C8452 C8454 1.395 . S
C8452 C8455 1.403 . S
H8453 C8459 0.930 . S
C8454 H8440 0.930 . S
C8454 C8452 1.395 . S
C8454 C8457 1.403 . S
C8455 C8452 1.403 . S
C8455 C8456 1.524 . S
C8455 C8459 1.400 . S
C8456 H8441 0.960 . S
C8456 H8442 0.960 . S
C8456 H8443 0.960 . S
C8456 C8455 1.524 . S
C8457 C8454 1.403 . S
C8457 C8458 1.392 . S
C8457 C8461 1.495 . S
C8458 C8457 1.392 . S
C8458 C8459 1.385 . S
C8458 C8460 1.478 . S
C8459 H8453 0.930 . S
C8459 C8455 1.400 . S
C8459 C8458 1.385 . S
C8460 C8458 1.478 . S
C8460 C8462 1.381 . S
C8460 C8466 1.383 . S
C8461 C8457 1.495 . S
C8461 H8467 0.959 . S
C8461 H8468 0.961 . S
C8461 H8469 0.960 . S
C8462 C8460 1.381 . S
C8462 C8463 1.394 . S
C8462 H8470 0.930 . S
C8463 C8462 1.394 . S
C8463 C8464 1.383 . S
C8463 H8471 0.929 . S
C8464 C8463 1.383 . S
C8464 C8465 1.377 . S
C8465 H8449 0.930 . S
C8465 C8464 1.377 . S
C8465 C8466 1.379 . S
C8466 H8450 0.931 . S
C8466 C8460 1.383 . S
C8466 C8465 1.379 . S
H8467 C8461 0.959 . S
H8468 C8461 0.961 . S
H8469 C8461 0.960 . S
H8470 C8462 0.930 . S
H8471 C8463 0.929 . S
H8472 C8480 0.929 . S
H8473 C8482 0.930 . S
H8474 C8484 0.930 . S
H8475 C8487 0.929 . S
H8476 C8490 0.930 . S
H8477 C8492 0.960 . S
H8478 C8492 0.960 . S
H8479 C8492 0.960 . S
C8480 H8472 0.929 . S
C8480 C8481 1.377 . S
C8480 C8482 1.384 . S
C8481 C8480 1.377 . S
C8481 C8487 1.390 . S
C8482 H8473 0.930 . S
C8482 C8480 1.384 . S
C8482 C8483 1.372 . S
C8483 C8482 1.372 . S
C8483 C8484 1.400 . S
C8483 C8488 1.490 . S
C8484 H8474 0.930 . S
C8484 C8483 1.400 . S
C8484 C8487 1.386 . S
H8485 C8501 0.930 . S
H8486 C8502 0.931 . S
C8487 H8475 0.929 . S
C8487 C8481 1.390 . S
C8487 C8484 1.386 . S
C8488 C8483 1.490 . S
C8488 C8490 1.395 . S
C8488 C8491 1.403 . S
H8489 C8495 0.930 . S
C8490 H8476 0.930 . S
C8490 C8488 1.395 . S
C8490 C8493 1.403 . S
C8491 C8488 1.403 . S
C8491 C8492 1.524 . S
C8491 C8495 1.400 . S
C8492 H8477 0.960 . S
C8492 H8478 0.960 . S
C8492 H8479 0.960 . S
C8492 C8491 1.524 . S
C8493 C8490 1.403 . S
C8493 C8494 1.392 . S
C8493 C8497 1.495 . S
C8494 C8493 1.392 . S
C8494 C8495 1.385 . S
C8494 C8496 1.478 . S
C8495 H8489 0.930 . S
C8495 C8491 1.400 . S
C8495 C8494 1.385 . S
C8496 C8494 1.478 . S
C8496 C8498 1.381 . S
C8496 C8502 1.383 . S
C8497 C8493 1.495 . S
C8497 H8503 0.959 . S
C8497 H8504 0.961 . S
C8497 H8505 0.960 . S
C8498 C8496 1.381 . S
C8498 C8499 1.394 . S
C8498 H8506 0.930 . S
C8499 C8498 1.394 . S
C8499 C8500 1.383 . S
C8499 H8507 0.929 . S
C8500 C8499 1.383 . S
C8500 C8501 1.377 . S
C8501 H8485 0.930 . S
C8501 C8500 1.377 . S
C8501 C8502 1.379 . S
C8502 H8486 0.931 . S
C8502 C8496 1.383 . S
C8502 C8501 1.379 . S
H8503 C8497 0.959 . S
H8504 C8497 0.961 . S
H8505 C8497 0.960 . S
H8506 C8498 0.930 . S
H8507 C8499 0.929 . S
H8508 C8516 0.929 . S
H8509 C8518 0.930 . S
H8510 C8520 0.930 . S
H8511 C8523 0.929 . S
H8512 C8526 0.930 . S
H8513 C8528 0.960 . S
H8514 C8528 0.960 . S
H8515 C8528 0.960 . S
C8516 H8508 0.929 . S
C8516 C8517 1.377 . S
C8516 C8518 1.384 . S
C8517 C8516 1.377 . S
C8517 C8523 1.390 . S
C8518 H8509 0.930 . S
C8518 C8516 1.384 . S
C8518 C8519 1.372 . S
C8519 C8518 1.372 . S
C8519 C8520 1.400 . S
C8519 C8524 1.490 . S
C8520 H8510 0.930 . S
C8520 C8519 1.400 . S
C8520 C8523 1.386 . S
H8521 C8537 0.930 . S
H8522 C8538 0.931 . S
C8523 H8511 0.929 . S
C8523 C8517 1.390 . S
C8523 C8520 1.386 . S
C8524 C8519 1.490 . S
C8524 C8526 1.395 . S
C8524 C8527 1.403 . S
H8525 C8531 0.930 . S
C8526 H8512 0.930 . S
C8526 C8524 1.395 . S
C8526 C8529 1.403 . S
C8527 C8524 1.403 . S
C8527 C8528 1.524 . S
C8527 C8531 1.400 . S
C8528 H8513 0.960 . S
C8528 H8514 0.960 . S
C8528 H8515 0.960 . S
C8528 C8527 1.524 . S
C8529 C8526 1.403 . S
C8529 C8530 1.392 . S
C8529 C8533 1.495 . S
C8530 C8529 1.392 . S
C8530 C8531 1.385 . S
C8530 C8532 1.478 . S
C8531 H8525 0.930 . S
C8531 C8527 1.400 . S
C8531 C8530 1.385 . S
C8532 C8530 1.478 . S
C8532 C8534 1.381 . S
C8532 C8538 1.383 . S
C8533 C8529 1.495 . S
C8533 H8539 0.959 . S
C8533 H8540 0.961 . S
C8533 H8541 0.960 . S
C8534 C8532 1.381 . S
C8534 C8535 1.394 . S
C8534 H8542 0.930 . S
C8535 C8534 1.394 . S
C8535 C8536 1.383 . S
C8535 H8543 0.929 . S
C8536 C8535 1.383 . S
C8536 C8537 1.377 . S
C8537 H8521 0.930 . S
C8537 C8536 1.377 . S
C8537 C8538 1.379 . S
C8538 H8522 0.931 . S
C8538 C8532 1.383 . S
C8538 C8537 1.379 . S
H8539 C8533 0.959 . S
H8540 C8533 0.961 . S
H8541 C8533 0.960 . S
H8542 C8534 0.930 . S
H8543 C8535 0.929 . S
H8544 C8552 0.929 . S
H8545 C8554 0.930 . S
H8546 C8556 0.930 . S
H8547 C8559 0.929 . S
H8548 C8562 0.930 . S
H8549 C8564 0.960 . S
H8550 C8564 0.960 . S
H8551 C8564 0.960 . S
C8552 H8544 0.929 . S
C8552 C8553 1.377 . S
C8552 C8554 1.384 . S
C8553 C8552 1.377 . S
C8553 C8559 1.390 . S
C8554 H8545 0.930 . S
C8554 C8552 1.384 . S
C8554 C8555 1.372 . S
C8555 C8554 1.372 . S
C8555 C8556 1.400 . S
C8555 C8560 1.490 . S
C8556 H8546 0.930 . S
C8556 C8555 1.400 . S
C8556 C8559 1.386 . S
H8557 C8573 0.930 . S
H8558 C8574 0.931 . S
C8559 H8547 0.929 . S
C8559 C8553 1.390 . S
C8559 C8556 1.386 . S
C8560 C8555 1.490 . S
C8560 C8562 1.395 . S
C8560 C8563 1.403 . S
H8561 C8567 0.930 . S
C8562 H8548 0.930 . S
C8562 C8560 1.395 . S
C8562 C8565 1.403 . S
C8563 C8560 1.403 . S
C8563 C8564 1.524 . S
C8563 C8567 1.400 . S
C8564 H8549 0.960 . S
C8564 H8550 0.960 . S
C8564 H8551 0.960 . S
C8564 C8563 1.524 . S
C8565 C8562 1.403 . S
C8565 C8566 1.392 . S
C8565 C8569 1.495 . S
C8566 C8565 1.392 . S
C8566 C8567 1.385 . S
C8566 C8568 1.478 . S
C8567 H8561 0.930 . S
C8567 C8563 1.400 . S
C8567 C8566 1.385 . S
C8568 C8566 1.478 . S
C8568 C8570 1.381 . S
C8568 C8574 1.383 . S
C8569 C8565 1.495 . S
C8569 H8575 0.959 . S
C8569 H8576 0.961 . S
C8569 H8577 0.960 . S
C8570 C8568 1.381 . S
C8570 C8571 1.394 . S
C8570 H8578 0.930 . S
C8571 C8570 1.394 . S
C8571 C8572 1.383 . S
C8571 H8579 0.929 . S
C8572 C8571 1.383 . S
C8572 C8573 1.377 . S
C8573 H8557 0.930 . S
C8573 C8572 1.377 . S
C8573 C8574 1.379 . S
C8574 H8558 0.931 . S
C8574 C8568 1.383 . S
C8574 C8573 1.379 . S
H8575 C8569 0.959 . S
H8576 C8569 0.961 . S
H8577 C8569 0.960 . S
H8578 C8570 0.930 . S
H8579 C8571 0.929 . S
H8580 C8588 0.929 . S
H8581 C8590 0.930 . S
H8582 C8592 0.930 . S
H8583 C8595 0.929 . S
H8584 C8598 0.930 . S
H8585 C8600 0.960 . S
H8586 C8600 0.960 . S
H8587 C8600 0.960 . S
C8588 H8580 0.929 . S
C8588 C8589 1.377 . S
C8588 C8590 1.384 . S
C8589 C8588 1.377 . S
C8589 C8595 1.390 . S
C8590 H8581 0.930 . S
C8590 C8588 1.384 . S
C8590 C8591 1.372 . S
C8591 C8590 1.372 . S
C8591 C8592 1.400 . S
C8591 C8596 1.490 . S
C8592 H8582 0.930 . S
C8592 C8591 1.400 . S
C8592 C8595 1.386 . S
H8593 C8609 0.930 . S
H8594 C8610 0.931 . S
C8595 H8583 0.929 . S
C8595 C8589 1.390 . S
C8595 C8592 1.386 . S
C8596 C8591 1.490 . S
C8596 C8598 1.395 . S
C8596 C8599 1.403 . S
H8597 C8603 0.930 . S
C8598 H8584 0.930 . S
C8598 C8596 1.395 . S
C8598 C8601 1.403 . S
C8599 C8596 1.403 . S
C8599 C8600 1.524 . S
C8599 C8603 1.400 . S
C8600 H8585 0.960 . S
C8600 H8586 0.960 . S
C8600 H8587 0.960 . S
C8600 C8599 1.524 . S
C8601 C8598 1.403 . S
C8601 C8602 1.392 . S
C8601 C8605 1.495 . S
C8602 C8601 1.392 . S
C8602 C8603 1.385 . S
C8602 C8604 1.478 . S
C8603 H8597 0.930 . S
C8603 C8599 1.400 . S
C8603 C8602 1.385 . S
C8604 C8602 1.478 . S
C8604 C8606 1.381 . S
C8604 C8610 1.383 . S
C8605 C8601 1.495 . S
C8605 H8611 0.959 . S
C8605 H8612 0.961 . S
C8605 H8613 0.960 . S
C8606 C8604 1.381 . S
C8606 C8607 1.394 . S
C8606 H8614 0.930 . S
C8607 C8606 1.394 . S
C8607 C8608 1.383 . S
C8607 H8615 0.929 . S
C8608 C8607 1.383 . S
C8608 C8609 1.377 . S
C8609 H8593 0.930 . S
C8609 C8608 1.377 . S
C8609 C8610 1.379 . S
C8610 H8594 0.931 . S
C8610 C8604 1.383 . S
C8610 C8609 1.379 . S
H8611 C8605 0.959 . S
H8612 C8605 0.961 . S
H8613 C8605 0.960 . S
H8614 C8606 0.930 . S
H8615 C8607 0.929 . S
H8616 C8624 0.929 . S
H8617 C8626 0.930 . S
H8618 C8628 0.930 . S
H8619 C8631 0.929 . S
H8620 C8634 0.930 . S
H8621 C8636 0.960 . S
H8622 C8636 0.960 . S
H8623 C8636 0.960 . S
C8624 H8616 0.929 . S
C8624 C8625 1.377 . S
C8624 C8626 1.384 . S
C8625 C8624 1.377 . S
C8625 C8631 1.390 . S
C8626 H8617 0.930 . S
C8626 C8624 1.384 . S
C8626 C8627 1.372 . S
C8627 C8626 1.372 . S
C8627 C8628 1.400 . S
C8627 C8632 1.490 . S
C8628 H8618 0.930 . S
C8628 C8627 1.400 . S
C8628 C8631 1.386 . S
H8629 C8645 0.930 . S
H8630 C8646 0.931 . S
C8631 H8619 0.929 . S
C8631 C8625 1.390 . S
C8631 C8628 1.386 . S
C8632 C8627 1.490 . S
C8632 C8634 1.395 . S
C8632 C8635 1.403 . S
H8633 C8639 0.930 . S
C8634 H8620 0.930 . S
C8634 C8632 1.395 . S
C8634 C8637 1.403 . S
C8635 C8632 1.403 . S
C8635 C8636 1.524 . S
C8635 C8639 1.400 . S
C8636 H8621 0.960 . S
C8636 H8622 0.960 . S
C8636 H8623 0.960 . S
C8636 C8635 1.524 . S
C8637 C8634 1.403 . S
C8637 C8638 1.392 . S
C8637 C8641 1.495 . S
C8638 C8637 1.392 . S
C8638 C8639 1.385 . S
C8638 C8640 1.478 . S
C8639 H8633 0.930 . S
C8639 C8635 1.400 . S
C8639 C8638 1.385 . S
C8640 C8638 1.478 . S
C8640 C8642 1.381 . S
C8640 C8646 1.383 . S
C8641 C8637 1.495 . S
C8641 H8647 0.959 . S
C8641 H8648 0.961 . S
C8641 H8649 0.960 . S
C8642 C8640 1.381 . S
C8642 C8643 1.394 . S
C8642 H8650 0.930 . S
C8643 C8642 1.394 . S
C8643 C8644 1.383 . S
C8643 H8651 0.929 . S
C8644 C8643 1.383 . S
C8644 C8645 1.377 . S
C8645 H8629 0.930 . S
C8645 C8644 1.377 . S
C8645 C8646 1.379 . S
C8646 H8630 0.931 . S
C8646 C8640 1.383 . S
C8646 C8645 1.379 . S
H8647 C8641 0.959 . S
H8648 C8641 0.961 . S
H8649 C8641 0.960 . S
H8650 C8642 0.930 . S
H8651 C8643 0.929 . S
H8652 C8660 0.929 . S
H8653 C8662 0.930 . S
H8654 C8664 0.930 . S
H8655 C8667 0.929 . S
H8656 C8670 0.930 . S
H8657 C8672 0.960 . S
H8658 C8672 0.960 . S
H8659 C8672 0.960 . S
C8660 H8652 0.929 . S
C8660 C8661 1.377 . S
C8660 C8662 1.384 . S
C8661 C8660 1.377 . S
C8661 C8667 1.390 . S
C8662 H8653 0.930 . S
C8662 C8660 1.384 . S
C8662 C8663 1.372 . S
C8663 C8662 1.372 . S
C8663 C8664 1.400 . S
C8663 C8668 1.490 . S
C8664 H8654 0.930 . S
C8664 C8663 1.400 . S
C8664 C8667 1.386 . S
H8665 C8681 0.930 . S
H8666 C8682 0.931 . S
C8667 H8655 0.929 . S
C8667 C8661 1.390 . S
C8667 C8664 1.386 . S
C8668 C8663 1.490 . S
C8668 C8670 1.395 . S
C8668 C8671 1.403 . S
H8669 C8675 0.930 . S
C8670 H8656 0.930 . S
C8670 C8668 1.395 . S
C8670 C8673 1.403 . S
C8671 C8668 1.403 . S
C8671 C8672 1.524 . S
C8671 C8675 1.400 . S
C8672 H8657 0.960 . S
C8672 H8658 0.960 . S
C8672 H8659 0.960 . S
C8672 C8671 1.524 . S
C8673 C8670 1.403 . S
C8673 C8674 1.392 . S
C8673 C8677 1.495 . S
C8674 C8673 1.392 . S
C8674 C8675 1.385 . S
C8674 C8676 1.478 . S
C8675 H8669 0.930 . S
C8675 C8671 1.400 . S
C8675 C8674 1.385 . S
C8676 C8674 1.478 . S
C8676 C8678 1.381 . S
C8676 C8682 1.383 . S
C8677 C8673 1.495 . S
C8677 H8683 0.959 . S
C8677 H8684 0.961 . S
C8677 H8685 0.960 . S
C8678 C8676 1.381 . S
C8678 C8679 1.394 . S
C8678 H8686 0.930 . S
C8679 C8678 1.394 . S
C8679 C8680 1.383 . S
C8679 H8687 0.929 . S
C8680 C8679 1.383 . S
C8680 C8681 1.377 . S
C8681 H8665 0.930 . S
C8681 C8680 1.377 . S
C8681 C8682 1.379 . S
C8682 H8666 0.931 . S
C8682 C8676 1.383 . S
C8682 C8681 1.379 . S
H8683 C8677 0.959 . S
H8684 C8677 0.961 . S
H8685 C8677 0.960 . S
H8686 C8678 0.930 . S
H8687 C8679 0.929 . S
H8688 C8696 0.929 . S
H8689 C8698 0.930 . S
H8690 C8700 0.930 . S
H8691 C8703 0.929 . S
H8692 C8706 0.930 . S
H8693 C8708 0.960 . S
H8694 C8708 0.960 . S
H8695 C8708 0.960 . S
C8696 H8688 0.929 . S
C8696 C8697 1.377 . S
C8696 C8698 1.384 . S
C8697 C8696 1.377 . S
C8697 C8703 1.390 . S
C8698 H8689 0.930 . S
C8698 C8696 1.384 . S
C8698 C8699 1.372 . S
C8699 C8698 1.372 . S
C8699 C8700 1.400 . S
C8699 C8704 1.490 . S
C8700 H8690 0.930 . S
C8700 C8699 1.400 . S
C8700 C8703 1.386 . S
H8701 C8717 0.930 . S
H8702 C8718 0.931 . S
C8703 H8691 0.929 . S
C8703 C8697 1.390 . S
C8703 C8700 1.386 . S
C8704 C8699 1.490 . S
C8704 C8706 1.395 . S
C8704 C8707 1.403 . S
H8705 C8711 0.930 . S
C8706 H8692 0.930 . S
C8706 C8704 1.395 . S
C8706 C8709 1.403 . S
C8707 C8704 1.403 . S
C8707 C8708 1.524 . S
C8707 C8711 1.400 . S
C8708 H8693 0.960 . S
C8708 H8694 0.960 . S
C8708 H8695 0.960 . S
C8708 C8707 1.524 . S
C8709 C8706 1.403 . S
C8709 C8710 1.392 . S
C8709 C8713 1.495 . S
C8710 C8709 1.392 . S
C8710 C8711 1.385 . S
C8710 C8712 1.478 . S
C8711 H8705 0.930 . S
C8711 C8707 1.400 . S
C8711 C8710 1.385 . S
C8712 C8710 1.478 . S
C8712 C8714 1.381 . S
C8712 C8718 1.383 . S
C8713 C8709 1.495 . S
C8713 H8719 0.959 . S
C8713 H8720 0.961 . S
C8713 H8721 0.960 . S
C8714 C8712 1.381 . S
C8714 C8715 1.394 . S
C8714 H8722 0.930 . S
C8715 C8714 1.394 . S
C8715 C8716 1.383 . S
C8715 H8723 0.929 . S
C8716 C8715 1.383 . S
C8716 C8717 1.377 . S
C8717 H8701 0.930 . S
C8717 C8716 1.377 . S
C8717 C8718 1.379 . S
C8718 H8702 0.931 . S
C8718 C8712 1.383 . S
C8718 C8717 1.379 . S
H8719 C8713 0.959 . S
H8720 C8713 0.961 . S
H8721 C8713 0.960 . S
H8722 C8714 0.930 . S
H8723 C8715 0.929 . S
H8724 C8732 0.929 . S
H8725 C8734 0.930 . S
H8726 C8736 0.930 . S
H8727 C8739 0.929 . S
H8728 C8742 0.930 . S
H8729 C8744 0.960 . S
H8730 C8744 0.960 . S
H8731 C8744 0.960 . S
C8732 H8724 0.929 . S
C8732 C8733 1.377 . S
C8732 C8734 1.384 . S
C8733 C8732 1.377 . S
C8733 C8739 1.390 . S
C8734 H8725 0.930 . S
C8734 C8732 1.384 . S
C8734 C8735 1.372 . S
C8735 C8734 1.372 . S
C8735 C8736 1.400 . S
C8735 C8740 1.490 . S
C8736 H8726 0.930 . S
C8736 C8735 1.400 . S
C8736 C8739 1.386 . S
H8737 C8753 0.930 . S
H8738 C8754 0.931 . S
C8739 H8727 0.929 . S
C8739 C8733 1.390 . S
C8739 C8736 1.386 . S
C8740 C8735 1.490 . S
C8740 C8742 1.395 . S
C8740 C8743 1.403 . S
H8741 C8747 0.930 . S
C8742 H8728 0.930 . S
C8742 C8740 1.395 . S
C8742 C8745 1.403 . S
C8743 C8740 1.403 . S
C8743 C8744 1.524 . S
C8743 C8747 1.400 . S
C8744 H8729 0.960 . S
C8744 H8730 0.960 . S
C8744 H8731 0.960 . S
C8744 C8743 1.524 . S
C8745 C8742 1.403 . S
C8745 C8746 1.392 . S
C8745 C8749 1.495 . S
C8746 C8745 1.392 . S
C8746 C8747 1.385 . S
C8746 C8748 1.478 . S
C8747 H8741 0.930 . S
C8747 C8743 1.400 . S
C8747 C8746 1.385 . S
C8748 C8746 1.478 . S
C8748 C8750 1.381 . S
C8748 C8754 1.383 . S
C8749 C8745 1.495 . S
C8749 H8755 0.959 . S
C8749 H8756 0.961 . S
C8749 H8757 0.960 . S
C8750 C8748 1.381 . S
C8750 C8751 1.394 . S
C8750 H8758 0.930 . S
C8751 C8750 1.394 . S
C8751 C8752 1.383 . S
C8751 H8759 0.929 . S
C8752 C8751 1.383 . S
C8752 C8753 1.377 . S
C8753 H8737 0.930 . S
C8753 C8752 1.377 . S
C8753 C8754 1.379 . S
C8754 H8738 0.931 . S
C8754 C8748 1.383 . S
C8754 C8753 1.379 . S
H8755 C8749 0.959 . S
H8756 C8749 0.961 . S
H8757 C8749 0.960 . S
H8758 C8750 0.930 . S
H8759 C8751 0.929 . S
H8760 C8768 0.929 . S
H8761 C8770 0.930 . S
H8762 C8772 0.930 . S
H8763 C8775 0.929 . S
H8764 C8778 0.930 . S
H8765 C8780 0.960 . S
H8766 C8780 0.960 . S
H8767 C8780 0.960 . S
C8768 H8760 0.929 . S
C8768 C8769 1.377 . S
C8768 C8770 1.384 . S
C8769 C8768 1.377 . S
C8769 C8775 1.390 . S
C8770 H8761 0.930 . S
C8770 C8768 1.384 . S
C8770 C8771 1.372 . S
C8771 C8770 1.372 . S
C8771 C8772 1.400 . S
C8771 C8776 1.490 . S
C8772 H8762 0.930 . S
C8772 C8771 1.400 . S
C8772 C8775 1.386 . S
H8773 C8789 0.930 . S
H8774 C8790 0.931 . S
C8775 H8763 0.929 . S
C8775 C8769 1.390 . S
C8775 C8772 1.386 . S
C8776 C8771 1.490 . S
C8776 C8778 1.395 . S
C8776 C8779 1.403 . S
H8777 C8783 0.930 . S
C8778 H8764 0.930 . S
C8778 C8776 1.395 . S
C8778 C8781 1.403 . S
C8779 C8776 1.403 . S
C8779 C8780 1.524 . S
C8779 C8783 1.400 . S
C8780 H8765 0.960 . S
C8780 H8766 0.960 . S
C8780 H8767 0.960 . S
C8780 C8779 1.524 . S
C8781 C8778 1.403 . S
C8781 C8782 1.392 . S
C8781 C8785 1.495 . S
C8782 C8781 1.392 . S
C8782 C8783 1.385 . S
C8782 C8784 1.478 . S
C8783 H8777 0.930 . S
C8783 C8779 1.400 . S
C8783 C8782 1.385 . S
C8784 C8782 1.478 . S
C8784 C8786 1.381 . S
C8784 C8790 1.383 . S
C8785 C8781 1.495 . S
C8785 H8791 0.959 . S
C8785 H8792 0.961 . S
C8785 H8793 0.960 . S
C8786 C8784 1.381 . S
C8786 C8787 1.394 . S
C8786 H8794 0.930 . S
C8787 C8786 1.394 . S
C8787 C8788 1.383 . S
C8787 H8795 0.929 . S
C8788 C8787 1.383 . S
C8788 C8789 1.377 . S
C8789 H8773 0.930 . S
C8789 C8788 1.377 . S
C8789 C8790 1.379 . S
C8790 H8774 0.931 . S
C8790 C8784 1.383 . S
C8790 C8789 1.379 . S
H8791 C8785 0.959 . S
H8792 C8785 0.961 . S
H8793 C8785 0.960 . S
H8794 C8786 0.930 . S
H8795 C8787 0.929 . S
H8796 C8804 0.929 . S
H8797 C8806 0.930 . S
H8798 C8808 0.930 . S
H8799 C8811 0.929 . S
H8800 C8814 0.930 . S
H8801 C8816 0.960 . S
H8802 C8816 0.960 . S
H8803 C8816 0.960 . S
C8804 H8796 0.929 . S
C8804 C8805 1.377 . S
C8804 C8806 1.384 . S
C8805 C8804 1.377 . S
C8805 C8811 1.390 . S
C8806 H8797 0.930 . S
C8806 C8804 1.384 . S
C8806 C8807 1.372 . S
C8807 C8806 1.372 . S
C8807 C8808 1.400 . S
C8807 C8812 1.490 . S
C8808 H8798 0.930 . S
C8808 C8807 1.400 . S
C8808 C8811 1.386 . S
H8809 C8825 0.930 . S
H8810 C8826 0.931 . S
C8811 H8799 0.929 . S
C8811 C8805 1.390 . S
C8811 C8808 1.386 . S
C8812 C8807 1.490 . S
C8812 C8814 1.395 . S
C8812 C8815 1.403 . S
H8813 C8819 0.930 . S
C8814 H8800 0.930 . S
C8814 C8812 1.395 . S
C8814 C8817 1.403 . S
C8815 C8812 1.403 . S
C8815 C8816 1.524 . S
C8815 C8819 1.400 . S
C8816 H8801 0.960 . S
C8816 H8802 0.960 . S
C8816 H8803 0.960 . S
C8816 C8815 1.524 . S
C8817 C8814 1.403 . S
C8817 C8818 1.392 . S
C8817 C8821 1.495 . S
C8818 C8817 1.392 . S
C8818 C8819 1.385 . S
C8818 C8820 1.478 . S
C8819 H8813 0.930 . S
C8819 C8815 1.400 . S
C8819 C8818 1.385 . S
C8820 C8818 1.478 . S
C8820 C8822 1.381 . S
C8820 C8826 1.383 . S
C8821 C8817 1.495 . S
C8821 H8827 0.959 . S
C8821 H8828 0.961 . S
C8821 H8829 0.960 . S
C8822 C8820 1.381 . S
C8822 C8823 1.394 . S
C8822 H8830 0.930 . S
C8823 C8822 1.394 . S
C8823 C8824 1.383 . S
C8823 H8831 0.929 . S
C8824 C8823 1.383 . S
C8824 C8825 1.377 . S
C8825 H8809 0.930 . S
C8825 C8824 1.377 . S
C8825 C8826 1.379 . S
C8826 H8810 0.931 . S
C8826 C8820 1.383 . S
C8826 C8825 1.379 . S
H8827 C8821 0.959 . S
H8828 C8821 0.961 . S
H8829 C8821 0.960 . S
H8830 C8822 0.930 . S
H8831 C8823 0.929 . S
H8832 C8840 0.929 . S
H8833 C8842 0.930 . S
H8834 C8844 0.930 . S
H8835 C8847 0.929 . S
H8836 C8850 0.930 . S
H8837 C8852 0.960 . S
H8838 C8852 0.960 . S
H8839 C8852 0.960 . S
C8840 H8832 0.929 . S
C8840 C8841 1.377 . S
C8840 C8842 1.384 . S
C8841 C8840 1.377 . S
C8841 C8847 1.390 . S
C8842 H8833 0.930 . S
C8842 C8840 1.384 . S
C8842 C8843 1.372 . S
C8843 C8842 1.372 . S
C8843 C8844 1.400 . S
C8843 C8848 1.490 . S
C8844 H8834 0.930 . S
C8844 C8843 1.400 . S
C8844 C8847 1.386 . S
H8845 C8861 0.930 . S
H8846 C8862 0.931 . S
C8847 H8835 0.929 . S
C8847 C8841 1.390 . S
C8847 C8844 1.386 . S
C8848 C8843 1.490 . S
C8848 C8850 1.395 . S
C8848 C8851 1.403 . S
H8849 C8855 0.930 . S
C8850 H8836 0.930 . S
C8850 C8848 1.395 . S
C8850 C8853 1.403 . S
C8851 C8848 1.403 . S
C8851 C8852 1.524 . S
C8851 C8855 1.400 . S
C8852 H8837 0.960 . S
C8852 H8838 0.960 . S
C8852 H8839 0.960 . S
C8852 C8851 1.524 . S
C8853 C8850 1.403 . S
C8853 C8854 1.392 . S
C8853 C8857 1.495 . S
C8854 C8853 1.392 . S
C8854 C8855 1.385 . S
C8854 C8856 1.478 . S
C8855 H8849 0.930 . S
C8855 C8851 1.400 . S
C8855 C8854 1.385 . S
C8856 C8854 1.478 . S
C8856 C8858 1.381 . S
C8856 C8862 1.383 . S
C8857 C8853 1.495 . S
C8857 H8863 0.959 . S
C8857 H8864 0.961 . S
C8857 H8865 0.960 . S
C8858 C8856 1.381 . S
C8858 C8859 1.394 . S
C8858 H8866 0.930 . S
C8859 C8858 1.394 . S
C8859 C8860 1.383 . S
C8859 H8867 0.929 . S
C8860 C8859 1.383 . S
C8860 C8861 1.377 . S
C8861 H8845 0.930 . S
C8861 C8860 1.377 . S
C8861 C8862 1.379 . S
C8862 H8846 0.931 . S
C8862 C8856 1.383 . S
C8862 C8861 1.379 . S
H8863 C8857 0.959 . S
H8864 C8857 0.961 . S
H8865 C8857 0.960 . S
H8866 C8858 0.930 . S
H8867 C8859 0.929 . S
H8868 C8876 0.929 . S
H8869 C8878 0.930 . S
H8870 C8880 0.930 . S
H8871 C8883 0.929 . S
H8872 C8886 0.930 . S
H8873 C8888 0.960 . S
H8874 C8888 0.960 . S
H8875 C8888 0.960 . S
C8876 H8868 0.929 . S
C8876 C8877 1.377 . S
C8876 C8878 1.384 . S
C8877 C8876 1.377 . S
C8877 C8883 1.390 . S
C8878 H8869 0.930 . S
C8878 C8876 1.384 . S
C8878 C8879 1.372 . S
C8879 C8878 1.372 . S
C8879 C8880 1.400 . S
C8879 C8884 1.490 . S
C8880 H8870 0.930 . S
C8880 C8879 1.400 . S
C8880 C8883 1.386 . S
H8881 C8897 0.930 . S
H8882 C8898 0.931 . S
C8883 H8871 0.929 . S
C8883 C8877 1.390 . S
C8883 C8880 1.386 . S
C8884 C8879 1.490 . S
C8884 C8886 1.395 . S
C8884 C8887 1.403 . S
H8885 C8891 0.930 . S
C8886 H8872 0.930 . S
C8886 C8884 1.395 . S
C8886 C8889 1.403 . S
C8887 C8884 1.403 . S
C8887 C8888 1.524 . S
C8887 C8891 1.400 . S
C8888 H8873 0.960 . S
C8888 H8874 0.960 . S
C8888 H8875 0.960 . S
C8888 C8887 1.524 . S
C8889 C8886 1.403 . S
C8889 C8890 1.392 . S
C8889 C8893 1.495 . S
C8890 C8889 1.392 . S
C8890 C8891 1.385 . S
C8890 C8892 1.478 . S
C8891 H8885 0.930 . S
C8891 C8887 1.400 . S
C8891 C8890 1.385 . S
C8892 C8890 1.478 . S
C8892 C8894 1.381 . S
C8892 C8898 1.383 . S
C8893 C8889 1.495 . S
C8893 H8899 0.959 . S
C8893 H8900 0.961 . S
C8893 H8901 0.960 . S
C8894 C8892 1.381 . S
C8894 C8895 1.394 . S
C8894 H8902 0.930 . S
C8895 C8894 1.394 . S
C8895 C8896 1.383 . S
C8895 H8903 0.929 . S
C8896 C8895 1.383 . S
C8896 C8897 1.377 . S
C8897 H8881 0.930 . S
C8897 C8896 1.377 . S
C8897 C8898 1.379 . S
C8898 H8882 0.931 . S
C8898 C8892 1.383 . S
C8898 C8897 1.379 . S
H8899 C8893 0.959 . S
H8900 C8893 0.961 . S
H8901 C8893 0.960 . S
H8902 C8894 0.930 . S
H8903 C8895 0.929 . S
H8904 C8912 0.929 . S
H8905 C8914 0.930 . S
H8906 C8916 0.930 . S
H8907 C8919 0.929 . S
H8908 C8922 0.930 . S
H8909 C8924 0.960 . S
H8910 C8924 0.960 . S
H8911 C8924 0.960 . S
C8912 H8904 0.929 . S
C8912 C8913 1.377 . S
C8912 C8914 1.384 . S
C8913 C8912 1.377 . S
C8913 C8919 1.390 . S
C8914 H8905 0.930 . S
C8914 C8912 1.384 . S
C8914 C8915 1.372 . S
C8915 C8914 1.372 . S
C8915 C8916 1.400 . S
C8915 C8920 1.490 . S
C8916 H8906 0.930 . S
C8916 C8915 1.400 . S
C8916 C8919 1.386 . S
H8917 C8933 0.930 . S
H8918 C8934 0.931 . S
C8919 H8907 0.929 . S
C8919 C8913 1.390 . S
C8919 C8916 1.386 . S
C8920 C8915 1.490 . S
C8920 C8922 1.395 . S
C8920 C8923 1.403 . S
H8921 C8927 0.930 . S
C8922 H8908 0.930 . S
C8922 C8920 1.395 . S
C8922 C8925 1.403 . S
C8923 C8920 1.403 . S
C8923 C8924 1.524 . S
C8923 C8927 1.400 . S
C8924 H8909 0.960 . S
C8924 H8910 0.960 . S
C8924 H8911 0.960 . S
C8924 C8923 1.524 . S
C8925 C8922 1.403 . S
C8925 C8926 1.392 . S
C8925 C8929 1.495 . S
C8926 C8925 1.392 . S
C8926 C8927 1.385 . S
C8926 C8928 1.478 . S
C8927 H8921 0.930 . S
C8927 C8923 1.400 . S
C8927 C8926 1.385 . S
C8928 C8926 1.478 . S
C8928 C8930 1.381 . S
C8928 C8934 1.383 . S
C8929 C8925 1.495 . S
C8929 H8935 0.959 . S
C8929 H8936 0.961 . S
C8929 H8937 0.960 . S
C8930 C8928 1.381 . S
C8930 C8931 1.394 . S
C8930 H8938 0.930 . S
C8931 C8930 1.394 . S
C8931 C8932 1.383 . S
C8931 H8939 0.929 . S
C8932 C8931 1.383 . S
C8932 C8933 1.377 . S
C8933 H8917 0.930 . S
C8933 C8932 1.377 . S
C8933 C8934 1.379 . S
C8934 H8918 0.931 . S
C8934 C8928 1.383 . S
C8934 C8933 1.379 . S
H8935 C8929 0.959 . S
H8936 C8929 0.961 . S
H8937 C8929 0.960 . S
H8938 C8930 0.930 . S
H8939 C8931 0.929 . S
H8940 C8948 0.929 . S
H8941 C8950 0.930 . S
H8942 C8952 0.930 . S
H8943 C8955 0.929 . S
H8944 C8958 0.930 . S
H8945 C8960 0.960 . S
H8946 C8960 0.960 . S
H8947 C8960 0.960 . S
C8948 H8940 0.929 . S
C8948 C8949 1.377 . S
C8948 C8950 1.384 . S
C8949 C8948 1.377 . S
C8949 C8955 1.390 . S
C8950 H8941 0.930 . S
C8950 C8948 1.384 . S
C8950 C8951 1.372 . S
C8951 C8950 1.372 . S
C8951 C8952 1.400 . S
C8951 C8956 1.490 . S
C8952 H8942 0.930 . S
C8952 C8951 1.400 . S
C8952 C8955 1.386 . S
H8953 C8969 0.930 . S
H8954 C8970 0.931 . S
C8955 H8943 0.929 . S
C8955 C8949 1.390 . S
C8955 C8952 1.386 . S
C8956 C8951 1.490 . S
C8956 C8958 1.395 . S
C8956 C8959 1.403 . S
H8957 C8963 0.930 . S
C8958 H8944 0.930 . S
C8958 C8956 1.395 . S
C8958 C8961 1.403 . S
C8959 C8956 1.403 . S
C8959 C8960 1.524 . S
C8959 C8963 1.400 . S
C8960 H8945 0.960 . S
C8960 H8946 0.960 . S
C8960 H8947 0.960 . S
C8960 C8959 1.524 . S
C8961 C8958 1.403 . S
C8961 C8962 1.392 . S
C8961 C8965 1.495 . S
C8962 C8961 1.392 . S
C8962 C8963 1.385 . S
C8962 C8964 1.478 . S
C8963 H8957 0.930 . S
C8963 C8959 1.400 . S
C8963 C8962 1.385 . S
C8964 C8962 1.478 . S
C8964 C8966 1.381 . S
C8964 C8970 1.383 . S
C8965 C8961 1.495 . S
C8965 H8971 0.959 . S
C8965 H8972 0.961 . S
C8965 H8973 0.960 . S
C8966 C8964 1.381 . S
C8966 C8967 1.394 . S
C8966 H8974 0.930 . S
C8967 C8966 1.394 . S
C8967 C8968 1.383 . S
C8967 H8975 0.929 . S
C8968 C8967 1.383 . S
C8968 C8969 1.377 . S
C8969 H8953 0.930 . S
C8969 C8968 1.377 . S
C8969 C8970 1.379 . S
C8970 H8954 0.931 . S
C8970 C8964 1.383 . S
C8970 C8969 1.379 . S
H8971 C8965 0.959 . S
H8972 C8965 0.961 . S
H8973 C8965 0.960 . S
H8974 C8966 0.930 . S
H8975 C8967 0.929 . S
C3801 C1781 1.674 . S
C3820 C1921 1.713 . S
C3837 C981 1.676 . S
C3856 C1960 1.708 . S
C3892 C1999 1.688 . S
C3873 C1861 1.713 . S
C3909 C1061 1.745 . S
C3928 C2038 1.698 . S
C3945 C1901 1.689 . S
C3964 C2077 1.694 . S
C3981 C941 1.671 . S
C4000 C2116 1.676 . S
C4017 C1821 1.736 . S
C4036 C2155 1.688 . S
C4053 C1021 1.722 . S
C4072 C2194 1.679 . S
C4089 C661 1.656 . S
C4108 C2233 1.661 . S
C4125 C1621 1.732 . S
C4144 C2272 1.691 . S
C4161 C741 1.660 . S
C4180 C2311 1.664 . S
C4197 C1581 1.668 . S
C4216 C2350 1.664 . S
C4233 C901 1.713 . S
C4252 C2389 1.667 . S
C4288 C2428 1.689 . S
C4269 C1661 1.722 . S
C4324 C2467 1.720 . S
C4305 C821 1.682 . S
C4341 C1141 1.714 . S
C4360 C2506 1.691 . S
C4396 C2545 1.686 . S
C4377 C781 1.714 . S
C4432 C2584 1.697 . S
C4413 C1701 1.692 . S
C4449 C861 1.722 . S
C4468 C2623 1.709 . S
C4485 C1181 1.652 . S
C4504 C2662 1.683 . S
C4540 C2701 1.676 . S
C4521 C1101 1.661 . S
C4557 C1421 1.655 . S
C4576 C2740 1.655 . S
C4612 C2779 1.662 . S
C4593 C381 1.695 . S
C4648 C2818 1.680 . S
C4629 C1501 1.697 . S
C4684 C2857 1.714 . S
C4665 C461 1.698 . S
C4720 C2896 1.721 . S
C4701 C1541 1.690 . S
C4737 C341 1.661 . S
C4756 C2935 1.675 . S
C4792 C2974 1.666 . S
C4773 C1461 1.707 . S
C4809 C421 1.692 . S
C4828 C3013 1.659 . S
C4864 C3052 1.693 . S
C4845 C61 1.660 . S
C4900 C3091 1.723 . S
C4881 C1261 1.709 . S
C4917 C141 1.666 . S
C4936 C3130 1.670 . S
C4972 C3169 1.707 . S
C4953 C1221 1.726 . S
C5008 C3208 1.660 . S
C4989 C301 1.696 . S
C5025 C1301 1.735 . S
C5044 C3247 1.689 . S
C5080 C3286 1.706 . S
C5061 C221 1.692 . S
C5116 C3325 1.701 . S
C5097 C541 1.718 . S
C5133 C181 1.722 . S
C5152 C3364 1.704 . S
C5188 C3403 1.675 . S
C5169 C1341 1.676 . S
C5205 C261 1.731 . S
C5224 C3442 1.719 . S
C5260 C3481 1.678 . S
C5241 C581 1.675 . S
C5277 C501 1.645 . S
C5296 C3520 1.660 . S
C5313 C701 1.734 . S
C5332 C3559 1.721 . S
C5368 C3598 1.663 . S
C5349 C621 1.668 . S
C5385 C1741 1.710 . S
C5404 C3637 1.673 . S
C5421 C101 1.708 . S
C5440 C3676 1.730 . S
C5476 C3715 1.716 . S
C5457 C21 1.734 . S
C5512 C3754 1.696 . S
C5493 C1381 1.707 . S
C5529 C1335 2.018 . S
C5548 C1936 1.990 . S
C5565 C535 1.557 . S
C5584 C1975 1.543 . S
C5601 C1362 2.119 . S
C5620 C2019 2.072 . S
C5656 C2058 1.527 . S
C5637 C1295 1.557 . S
C5673 C575 2.029 . S
C5692 C2097 2.039 . S
C5709 C1215 1.538 . S
C5728 C2136 1.525 . S
C5764 C2170 2.059 . S
C5745 C495 2.084 . S
C5781 C1242 1.548 . S
C5800 C2209 1.546 . S
C5817 C1255 2.056 . S
C5836 C2248 2.031 . S
C5872 C2287 1.513 . S
C5853 C562 1.508 . S
C5889 C1202 2.063 . S
C5908 C2331 2.004 . S
C5944 C2370 1.521 . S
C5925 C482 1.520 . S
C5961 C522 2.128 . S
C5980 C2404 2.066 . S
C5997 C1375 1.562 . S
C6016 C2448 1.546 . S
C6052 C2487 2.002 . S
C6033 C1282 2.076 . S
C6088 C2521 1.529 . S
C6069 C1322 1.509 . S
C6105 C455 2.017 . S
C6124 C2365 2.014 . S
C6141 C1415 2.012 . S
C6160 C2560 2.009 . S
C6177 C1455 1.541 . S
C6196 C2599 1.507 . S
C6232 C2643 2.001 . S
C6213 C1482 2.042 . S
C6268 C2409 1.549 . S
C6249 C442 1.543 . S
C6285 C362 2.062 . S
C6304 C2292 2.016 . S
C6321 C1495 1.533 . S
C6340 C2677 1.504 . S
C6376 C2721 1.518 . S
C6357 C1402 1.502 . S
C6412 C2755 1.540 . S
C6393 C1695 1.554 . S
C6429 C1135 2.034 . S
C6448 C2794 2.029 . S
C6484 C2838 1.539 . S
C6465 C1722 1.548 . S
C6520 C2872 2.018 . S
C6501 C1655 2.023 . S
C6537 C1175 1.558 . S
C6556 C2916 1.563 . S
C6573 C1562 1.969 . S
C6592 C2955 1.973 . S
C6609 C1095 1.544 . S
C6628 C2994 1.523 . S
C6664 C3028 1.981 . S
C6645 C1615 2.008 . S
C6700 C3072 1.530 . S
C6681 C1602 1.559 . S
C6717 C1162 2.023 . S
C6736 C3106 2.036 . S
C6772 C3145 1.526 . S
C6753 C1575 1.527 . S
C6789 C1082 1.999 . S
C6808 C3189 2.008 . S
C6844 C3228 1.504 . S
C6825 C1122 1.535 . S
C6861 C1735 2.057 . S
C6880 C3267 2.042 . S
C6916 C3301 1.525 . S
C6897 C1642 1.559 . S
C6933 C1682 1.982 . S
C6952 C3340 1.985 . S
C6969 C1042 1.584 . S
C6988 C3184 1.542 . S
C7005 C1775 1.555 . S
C7024 C3379 1.549 . S
C7041 C1815 2.072 . S
C7060 C3423 2.061 . S
C7096 C3462 1.526 . S
C7077 C1842 1.556 . S
C7113 C1055 2.040 . S
C7132 C3223 2.029 . S
C7149 C975 1.563 . S
C7168 C3111 1.539 . S
C7204 C3501 2.015 . S
C7185 C1855 2.062 . S
C7221 C1762 2.004 . S
C7240 C3535 2.012 . S
C7276 C2131 2.027 . S
C7257 C215 2.021 . S
C7312 C2175 1.578 . S
C7293 C255 1.585 . S
C7348 C2214 2.038 . S
C7329 C282 2.114 . S
C7384 C2092 1.496 . S
C7365 C175 1.531 . S
C7420 C2053 2.076 . S
C7401 C135 2.072 . S
C7437 C15 1.539 . S
C7456 C1941 1.501 . S
C7473 C55 2.046 . S
C7492 C1980 2.065 . S
C7509 C82 1.546 . S
C7528 C2014 1.553 . S
C7545 C95 2.024 . S
C7564 C2716 2.021 . S
C7581 C122 1.533 . S
C7600 C3574 1.555 . S
C7617 C2 2.088 . S
C7636 C2682 2.026 . S
C7653 C42 1.506 . S
C7672 C3618 1.528 . S
C7689 C242 2.130 . S
C7708 C3652 2.069 . S
C7744 C2565 1.524 . S
C7725 C295 1.548 . S
C7761 C162 2.078 . S
C7780 C2604 2.043 . S
C7797 C202 1.517 . S
C7816 C2638 1.515 . S
C7852 C3613 2.000 . S
C7833 C1535 2.001 . S
C7869 C335 2.018 . S
C7888 C2443 1.991 . S
C7905 C375 1.534 . S
C7924 C2482 1.524 . S
C7941 C402 2.034 . S
C7960 C2526 1.962 . S
C7996 C3657 1.520 . S
C7977 C1522 1.533 . S
C8032 C3579 2.025 . S
C8013 C1442 2.067 . S
C8068 C2326 1.511 . S
C8049 C415 1.514 . S
C8085 C322 1.514 . S
C8104 C2253 1.499 . S
C8121 C815 1.553 . S
C8140 C2950 1.524 . S
C8157 C855 2.022 . S
C8176 C2989 1.984 . S
C8193 C882 1.551 . S
C8212 C3033 1.514 . S
C8229 C775 2.024 . S
C8248 C2911 2.003 . S
C8284 C2877 1.566 . S
C8265 C735 1.557 . S
C8320 C2760 1.964 . S
C8301 C602 1.967 . S
C8356 C2799 1.547 . S
C8337 C655 1.540 . S
C8373 C695 2.012 . S
C8392 C2833 2.007 . S
C8428 C3540 1.551 . S
C8409 C682 1.559 . S
C8445 C722 2.022 . S
C8464 C3691 2.029 . S
C8481 C615 1.529 . S
C8500 C3496 1.509 . S
C8536 C3735 2.022 . S
C8517 C642 2.009 . S
C8553 C842 1.550 . S
C8572 C3774 1.519 . S
C8608 C3384 2.008 . S
C8589 C895 2.054 . S
C8625 C762 1.546 . S
C8644 C3418 1.529 . S
C8661 C802 1.982 . S
C8680 C3457 1.985 . S
C8697 C1895 1.558 . S
C8716 C3730 1.556 . S
C8752 C3262 1.532 . S
C8733 C935 1.562 . S
C8769 C962 2.018 . S
C8788 C3306 2.048 . S
C8805 C1002 1.552 . S
C8824 C3345 1.523 . S
C8841 C1882 1.985 . S
C8860 C3769 2.021 . S
C8877 C1802 1.586 . S
C8896 C3696 1.570 . S
C8932 C3150 2.008 . S
C8913 C1015 2.056 . S
C8968 C3067 2.018 . S
C8949 C922 2.010 . S
