# Generated by pormake.
# Topology nom, (4,4)-cn, num edge types: 1
# Building blocks:
#     Node 0, Type 0, BuildingBlock: NAWXER_clean_linker_0, # of connection points: 4
#     Node 1, Type 0, BuildingBlock: NAWXER_clean_linker_0, # of connection points: 4
#     Node 2, Type 0, BuildingBlock: NAWXER_clean_linker_0, # of connection points: 4
#     Node 3, Type 0, BuildingBlock: NAWXER_clean_linker_0, # of connection points: 4
#     Node 4, Type 0, BuildingBlock: NAWXER_clean_linker_0, # of connection points: 4
#     Node 5, Type 0, BuildingBlock: NAWXER_clean_linker_0, # of connection points: 4
#     Node 6, Type 1, BuildingBlock: QUQFOY_clean_sbu_3, # of connection points: 4
#     Node 7, Type 1, BuildingBlock: QUQFOY_clean_sbu_3, # of connection points: 4
#     Node 8, Type 1, BuildingBlock: QUQFOY_clean_sbu_3, # of connection points: 4
#     Node 9, Type 1, BuildingBlock: QUQFOY_clean_sbu_3, # of connection points: 4
#     Node 10, Type 1, BuildingBlock: QUQFOY_clean_sbu_3, # of connection points: 4
#     Node 11, Type 1, BuildingBlock: QUQFOY_clean_sbu_3, # of connection points: 4
#     Edge 12, Type (0, 1), None
#     Edge 13, Type (0, 1), None
#     Edge 14, Type (0, 1), None
#     Edge 15, Type (0, 1), None
#     Edge 16, Type (0, 1), None
#     Edge 17, Type (0, 1), None
#     Edge 18, Type (0, 1), None
#     Edge 19, Type (0, 1), None
#     Edge 20, Type (0, 1), None
#     Edge 21, Type (0, 1), None
#     Edge 22, Type (0, 1), None
#     Edge 23, Type (0, 1), None
#     Edge 24, Type (0, 1), None
#     Edge 25, Type (0, 1), None
#     Edge 26, Type (0, 1), None
#     Edge 27, Type (0, 1), None
#     Edge 28, Type (0, 1), None
#     Edge 29, Type (0, 1), None
#     Edge 30, Type (0, 1), None
#     Edge 31, Type (0, 1), None
#     Edge 32, Type (0, 1), None
#     Edge 33, Type (0, 1), None
#     Edge 34, Type (0, 1), None
#     Edge 35, Type (0, 1), None
# Relax obj value: 0.007
# Max RMSD: 0.114
# Mean RMSD: 0.075
data_MOF--net-nom--node1-QUQFOY_clean_sbu_3--node2-NAWXER_clean_linker_0--edge1-none
_symmetry_space_group_name_H-M    P1
_symmetry_Int_Tables_number       1
_symmetry_cell_setting            triclinic
loop_
_symmetry_equiv_pos_as_xyz
'x, y, z'
_cell_length_a     28.710471
_cell_length_b     29.583313
_cell_length_c     31.630487
_cell_angle_alpha  89.688995
_cell_angle_beta   90.296328
_cell_angle_gamma 120.04952
loop_
_atom_site_label
_atom_site_type_symbol
_atom_site_fract_x
_atom_site_fract_y
_atom_site_fract_z
_atom_type_partial_charge
C0 C 0.831 0.48827 0.3424 0.0
C1 C 0.79591 0.44627 0.36811 0.0
C2 C 0.87551 0.48909 0.32433 0.0
C3 C 0.8861 0.44837 0.33226 0.0
C4 C 0.8051 0.40429 0.37448 0.0
C5 C 0.85064 0.40584 0.35728 0.0
C6 C 0.93935 0.4565 0.32141 0.0
C7 C 0.84423 0.40394 0.19968 0.0
C8 C 0.86175 0.44365 0.1689 0.0
C9 C 0.87504 0.4111 0.23621 0.0
C10 C 0.92384 0.45793 0.24225 0.0
C11 C 0.91051 0.49035 0.17533 0.0
C12 C 0.94117 0.49728 0.2114 0.0
C13 C 0.95864 0.46662 0.27953 0.0
C14 C 0.18321 0.59896 0.25693 0.0
C15 C 0.18901 0.64796 0.26635 0.0
C16 C 0.13859 0.55326 0.27166 0.0
C17 C 0.10074 0.5564 0.29726 0.0
C18 C 0.15142 0.65088 0.2925 0.0
C19 C 0.10785 0.60539 0.30817 0.0
C20 C 0.0484 0.51017 0.30575 0.0
C21 C 0.09086 0.55924 0.4516 0.0
C22 C 0.13835 0.55655 0.45239 0.0
C23 C 0.05472 0.53793 0.41795 0.0
C24 C 0.06589 0.51441 0.38413 0.0
C25 C 0.14882 0.53174 0.41905 0.0
C26 C 0.11299 0.51108 0.38506 0.0
C27 C 0.02928 0.49545 0.34725 0.0
H28 H 0.82443 0.52081 0.33675 0.0
H29 H 0.90332 0.52295 0.30599 0.0
H30 H 0.77845 0.37147 0.39426 0.0
H31 H 0.85902 0.37477 0.36447 0.0
H32 H 0.80676 0.36755 0.19565 0.0
H33 H 0.86119 0.3799 0.25933 0.0
H34 H 0.92535 0.5218 0.15237 0.0
H35 H 0.97852 0.53389 0.2153 0.0
H36 H 0.21194 0.59597 0.23678 0.0
H37 H 0.13282 0.51565 0.26219 0.0
H38 H 0.15547 0.68826 0.30048 0.0
H39 H 0.07808 0.60831 0.32708 0.0
H40 H 0.08156 0.57784 0.47699 0.0
H41 H 0.01874 0.54113 0.41781 0.0
H42 H 0.18505 0.52899 0.4189 0.0
H43 H 0.12215 0.49268 0.35942 0.0
N44 N 0.97529 0.47 0.3537 0.0
N45 N 0.01259 0.49385 0.27347 0.0
C46 C 0.35638 0.8276 0.53881 0.0
C47 C 0.36458 0.78706 0.52512 0.0
C48 C 0.39242 0.87918 0.52739 0.0
C49 C 0.4371 0.89111 0.50203 0.0
C50 C 0.41008 0.79925 0.50045 0.0
C51 C 0.44625 0.85096 0.48921 0.0
C52 C 0.47339 0.94581 0.48951 0.0
C53 C 0.45498 0.87262 0.35561 0.0
C54 C 0.40811 0.86873 0.33792 0.0
C55 C 0.47762 0.90223 0.39206 0.0
C56 C 0.45274 0.92688 0.41182 0.0
C57 C 0.38328 0.89336 0.35811 0.0
C58 C 0.40543 0.92213 0.39483 0.0
C59 C 0.47898 0.96271 0.44716 0.0
C60 C 0.60732 0.19838 0.46296 0.0
C61 C 0.57146 0.21031 0.44198 0.0
C62 C 0.59291 0.14655 0.47099 0.0
C63 C 0.54217 0.10588 0.4587 0.0
C64 C 0.52149 0.16939 0.4283 0.0
C65 C 0.50703 0.1176 0.43655 0.0
C66 C 0.5242 0.05108 0.4698 0.0
C67 C 0.5183 0.1207 0.59709 0.0
C68 C 0.56965 0.14063 0.6152 0.0
C69 C 0.50272 0.08611 0.56325 0.0
C70 C 0.53797 0.07054 0.54753 0.0
C71 C 0.60495 0.12498 0.59925 0.0
C72 C 0.58886 0.08951 0.5659 0.0
C73 C 0.52117 0.03424 0.51194 0.0
H74 H 0.32185 0.81947 0.55795 0.0
H75 H 0.38493 0.9098 0.53782 0.0
H76 H 0.41781 0.76888 0.48984 0.0
H77 H 0.48143 0.85953 0.47085 0.0
H78 H 0.47512 0.85435 0.3405 0.0
H79 H 0.51512 0.90691 0.40424 0.0
H80 H 0.34697 0.89081 0.34533 0.0
H81 H 0.38633 0.94172 0.40947 0.0
H82 H 0.64645 0.22907 0.47338 0.0
H83 H 0.6213 0.13831 0.48692 0.0
H84 H 0.49317 0.17736 0.41185 0.0
H85 H 0.46773 0.08667 0.42662 0.0
H86 H 0.4904 0.13224 0.60879 0.0
H87 H 0.46319 0.07147 0.5493 0.0
H88 H 0.64459 0.13955 0.61292 0.0
H89 H 0.61627 0.07744 0.55403 0.0
N90 N 0.49492 0.98229 0.52046 0.0
N91 N 0.50307 0.01463 0.43888 0.0
C92 C 0.62058 0.48487 0.54769 0.0
C93 C 0.57995 0.43909 0.52862 0.0
C94 C 0.60824 0.50793 0.58101 0.0
C95 C 0.55543 0.48492 0.59615 0.0
C96 C 0.52685 0.41693 0.54337 0.0
C97 C 0.51476 0.43963 0.57696 0.0
C98 C 0.54216 0.50701 0.63257 0.0
C99 C 0.53302 0.36636 0.71025 0.0
C100 C 0.5825 0.37155 0.69855 0.0
C101 C 0.52289 0.40709 0.70298 0.0
C102 C 0.56203 0.45367 0.68402 0.0
C103 C 0.62224 0.41876 0.68048 0.0
C104 C 0.6122 0.45977 0.6736 0.0
C105 C 0.54809 0.49412 0.67439 0.0
C106 C 0.43042 0.51434 0.80417 0.0
C107 C 0.42965 0.56109 0.80945 0.0
C108 C 0.45309 0.50632 0.76831 0.0
C109 C 0.47519 0.54456 0.73657 0.0
C110 C 0.45216 0.59977 0.77783 0.0
C111 C 0.4747 0.5915 0.74156 0.0
C112 C 0.50023 0.53494 0.69955 0.0
C113 C 0.40978 0.59632 0.60373 0.0
C114 C 0.35724 0.55494 0.61092 0.0
C115 C 0.45391 0.5945 0.62068 0.0
C116 C 0.44572 0.55233 0.64625 0.0
C117 C 0.34926 0.51331 0.63713 0.0
C118 C 0.39315 0.51224 0.65493 0.0
C119 C 0.49068 0.54422 0.65748 0.0
H120 H 0.66175 0.50308 0.53669 0.0
H121 H 0.63994 0.54328 0.59529 0.0
H122 H 0.49472 0.38174 0.52924 0.0
H123 H 0.47372 0.42153 0.58834 0.0
H124 H 0.50179 0.33056 0.72439 0.0
H125 H 0.48388 0.40179 0.71133 0.0
H126 H 0.66111 0.42408 0.67175 0.0
H127 H 0.64346 0.49602 0.66018 0.0
H128 H 0.41356 0.4837 0.82784 0.0
H129 H 0.4529 0.46975 0.76525 0.0
H130 H 0.45208 0.63616 0.78098 0.0
H131 H 0.49233 0.62195 0.71779 0.0
H132 H 0.4168 0.62882 0.58354 0.0
H133 H 0.4943 0.62513 0.61297 0.0
H134 H 0.30911 0.48121 0.64341 0.0
H135 H 0.38613 0.47869 0.67376 0.0
N136 N 0.5127 0.53063 0.62555 0.0
N137 N 0.52778 0.50938 0.70625 0.0
C138 C 0.83478 0.34442 0.79146 0.0
C139 C 0.79761 0.34873 0.7654 0.0
C140 C 0.8792 0.38918 0.80716 0.0
C141 C 0.88753 0.43876 0.79636 0.0
C142 C 0.80479 0.39836 0.75602 0.0
C143 C 0.85019 0.44329 0.77078 0.0
C144 C 0.94032 0.48419 0.80514 0.0
C145 C 0.84027 0.46492 0.91762 0.0
C146 C 0.84987 0.43961 0.95141 0.0
C147 C 0.87615 0.48471 0.88373 0.0
C148 C 0.92248 0.48005 0.88335 0.0
C149 C 0.89653 0.43545 0.95111 0.0
C150 C 0.93276 0.45593 0.91756 0.0
C151 C 0.9593 0.49858 0.84674 0.0
C152 C 0.18547 0.59449 0.87291 0.0
C153 C 0.19627 0.55356 0.86689 0.0
C154 C 0.13846 0.59089 0.85645 0.0
C155 C 0.10302 0.54728 0.83255 0.0
C156 C 0.16102 0.51036 0.84242 0.0
C157 C 0.11494 0.50746 0.8251 0.0
C158 C 0.04927 0.5379 0.82147 0.0
C159 C 0.07977 0.50569 0.67613 0.0
C160 C 0.12783 0.55309 0.6697 0.0
C161 C 0.04877 0.49804 0.71193 0.0
C162 C 0.06515 0.53731 0.7425 0.0
C163 C 0.14435 0.59272 0.70021 0.0
C164 C 0.11326 0.58481 0.73647 0.0
C165 C 0.0301 0.5279 0.77948 0.0
H166 H 0.82969 0.30654 0.79942 0.0
H167 H 0.90856 0.38521 0.82608 0.0
H168 H 0.77642 0.40245 0.73593 0.0
H169 H 0.8569 0.48137 0.76142 0.0
H170 H 0.8047 0.46879 0.91708 0.0
H171 H 0.86769 0.50361 0.85779 0.0
H172 H 0.90515 0.41643 0.97686 0.0
H173 H 0.96816 0.45175 0.91784 0.0
H174 H 0.21216 0.62818 0.89178 0.0
H175 H 0.12913 0.62135 0.86316 0.0
H176 H 0.16875 0.47856 0.83709 0.0
H177 H 0.08723 0.47288 0.80753 0.0
H178 H 0.0657 0.47431 0.65334 0.0
H179 H 0.01194 0.46097 0.71585 0.0
H180 H 0.18125 0.62964 0.69616 0.0
H181 H 0.12632 0.61596 0.75937 0.0
N182 N 0.97619 0.50058 0.77307 0.0
N183 N 0.01327 0.52405 0.85356 0.0
C184 C 0.46415 0.83698 0.92726 0.0
C185 C 0.41451 0.79461 0.93973 0.0
C186 C 0.4766 0.88799 0.93609 0.0
C187 C 0.43975 0.89751 0.9576 0.0
C188 C 0.37692 0.80431 0.96008 0.0
C189 C 0.38933 0.85542 0.96868 0.0
C190 C 0.45572 0.95166 0.96902 0.0
C191 C 0.37496 0.87321 0.0969 0.0
C192 C 0.4124 0.86153 0.11523 0.0
C193 C 0.39006 0.90827 0.0631 0.0
C194 C 0.44221 0.93083 0.04667 0.0
C195 C 0.46488 0.88493 0.09895 0.0
C196 C 0.47958 0.91918 0.06472 0.0
C197 C 0.45856 0.96767 0.01126 0.0
C198 C 0.57408 0.20351 5e-05 0.0
C199 C 0.61875 0.21417 0.02554 0.0
C200 C 0.53673 0.1522 0.98879 0.0
C201 C 0.54381 0.11089 0.00248 0.0
C202 C 0.62477 0.1725 0.04018 0.0
C203 C 0.58754 0.12132 0.02879 0.0
C204 C 0.50673 0.05659 0.98951 0.0
C205 C 0.59843 0.1098 0.85931 0.0
C206 C 0.574 0.13435 0.83799 0.0
C207 C 0.57571 0.08133 0.89612 0.0
C208 C 0.52818 0.07678 0.91205 0.0
C209 C 0.52707 0.13094 0.85471 0.0
C210 C 0.50382 0.10157 0.89125 0.0
C211 C 0.501 0.0405 0.94704 0.0
H212 H 0.49379 0.83076 0.91136 0.0
H213 H 0.51569 0.92004 0.92708 0.0
H214 H 0.338 0.77244 0.96956 0.0
H215 H 0.35962 0.86196 0.984 0.0
H216 H 0.33439 0.85595 0.10911 0.0
H217 H 0.36105 0.91748 0.04955 0.0
H218 H 0.49447 0.87653 0.11248 0.0
H219 H 0.52013 0.93673 0.05238 0.0
H220 H 0.56803 0.23479 0.98867 0.0
H221 H 0.50233 0.14485 0.96963 0.0
H222 H 0.65859 0.17943 0.05999 0.0
H223 H 0.59351 0.08985 0.03987 0.0
H224 H 0.63481 0.11206 0.84729 0.0
H225 H 0.59441 0.06161 0.91158 0.0
H226 H 0.50729 0.14923 0.8387 0.0
H227 H 0.46622 0.09709 0.90265 0.0
N228 N 0.47686 0.98874 0.93842 0.0
N229 N 0.48501 0.01946 0.02015 0.0
C230 C 0.46135 0.64416 0.21271 0.0
C231 C 0.41161 0.63747 0.19944 0.0
C232 C 0.47416 0.60532 0.20515 0.0
C233 C 0.4375 0.55924 0.18424 0.0
C234 C 0.37435 0.59068 0.17944 0.0
C235 C 0.38707 0.55163 0.1722 0.0
C236 C 0.4539 0.52065 0.17457 0.0
C237 C 0.37858 0.52395 0.04537 0.0
C238 C 0.41726 0.57208 0.02796 0.0
C239 C 0.39212 0.50199 0.07911 0.0
C240 C 0.44405 0.52847 0.09635 0.0
C241 C 0.46956 0.59787 0.0449 0.0
C242 C 0.48276 0.57629 0.079 0.0
C243 C 0.45843 0.50702 0.13285 0.0
C244 C 0.58501 0.41216 0.10351 0.0
C245 C 0.63844 0.45222 0.10985 0.0
C246 C 0.5425 0.41614 0.12087 0.0
C247 C 0.55317 0.45915 0.14601 0.0
C248 C 0.64891 0.49472 0.13563 0.0
C249 C 0.60661 0.49793 0.15385 0.0
C250 C 0.50986 0.46937 0.15764 0.0
C251 C 0.57285 0.49913 0.30408 0.0
C252 C 0.57092 0.45114 0.31021 0.0
C253 C 0.55109 0.50816 0.26783 0.0
C254 C 0.5273 0.4697 0.23658 0.0
C255 C 0.54696 0.41239 0.27895 0.0
C256 C 0.52539 0.42167 0.2423 0.0
C257 C 0.50217 0.47988 0.19965 0.0
H258 H 0.4907 0.67966 0.22836 0.0
H259 H 0.5133 0.61178 0.21482 0.0
H260 H 0.33532 0.58416 0.16944 0.0
H261 H 0.35761 0.51565 0.15729 0.0
H262 H 0.33809 0.50304 0.03266 0.0
H263 H 0.36198 0.46481 0.09212 0.0
H264 H 0.50015 0.63496 0.03207 0.0
H265 H 0.52311 0.59704 0.09204 0.0
H266 H 0.57606 0.37901 0.08369 0.0
H267 H 0.50142 0.38649 0.11382 0.0
H268 H 0.68978 0.52583 0.14127 0.0
H269 H 0.61555 0.53209 0.17234 0.0
H270 H 0.59095 0.52988 0.32745 0.0
H271 H 0.55304 0.54552 0.26419 0.0
H272 H 0.545 0.37507 0.28273 0.0
H273 H 0.50636 0.39107 0.21891 0.0
N274 N 0.4752 0.50589 0.20639 0.0
N275 N 0.48711 0.48273 0.12578 0.0
C276 C 0.7504 0.44677 0.3886 0.0
O277 O 0.7547 0.48987 0.39978 0.0
Cd278 Cd 0.68342 0.49765 0.43176 0.0
O279 O 0.70697 0.40389 0.39431 0.0
Cd280 Cd 0.61638 0.37148 0.4221 0.0
C281 C 0.59507 0.44292 0.34876 0.0
O282 O 0.64061 0.42938 0.48273 0.0
O283 O 0.55559 0.38116 0.46964 0.0
O284 O 0.62923 0.30235 0.45013 0.0
C285 C 0.59248 0.41497 0.49302 0.0
O286 O 0.62427 0.48214 0.37207 0.0
C287 C 0.58611 0.2652 0.4349 0.0
O288 O 0.5876 0.39773 0.35787 0.0
O289 O 0.55623 0.27748 0.41375 0.0
C290 C 0.3108 0.55438 0.5906 0.0
O291 O 0.27014 0.51115 0.58029 0.0
Cd292 Cd 0.19026 0.50363 0.54935 0.0
O293 O 0.31153 0.59716 0.58422 0.0
Cd294 Cd 0.2511 0.62617 0.55568 0.0
C295 C 0.1601 0.55986 0.63143 0.0
O296 O 0.2128 0.56783 0.49503 0.0
O297 O 0.17245 0.60943 0.51433 0.0
O298 O 0.33063 0.69503 0.52161 0.0
C299 C 0.17663 0.57964 0.48786 0.0
O300 O 0.14769 0.52007 0.60858 0.0
C301 C 0.32571 0.7323 0.53613 0.0
O302 O 0.19967 0.60447 0.62172 0.0
O303 O 0.28566 0.72021 0.56007 0.0
C304 C 0.75126 0.30171 0.74825 0.0
O305 O 0.75523 0.26209 0.73887 0.0
Cd306 Cd 0.67963 0.18298 0.71288 0.0
O307 O 0.70729 0.30145 0.74331 0.0
Cd308 Cd 0.61551 0.24687 0.71939 0.0
C309 C 0.59671 0.16164 0.79776 0.0
O310 O 0.63488 0.20687 0.66052 0.0
O311 O 0.55082 0.17924 0.67379 0.0
O312 O 0.63414 0.32942 0.68995 0.0
C313 C 0.58575 0.17695 0.65097 0.0
O314 O 0.62612 0.14928 0.77643 0.0
C315 C 0.59272 0.32805 0.70526 0.0
O316 O 0.58709 0.19707 0.78502 0.0
O317 O 0.56081 0.28782 0.72665 0.0
C318 C 0.24356 0.55536 0.88664 0.0
O319 O 0.24178 0.51324 0.89783 0.0
Cd320 Cd 0.31588 0.50987 0.92985 0.0
O321 O 0.28579 0.59931 0.89216 0.0
Cd322 Cd 0.3772 0.63571 0.91969 0.0
C323 C 0.40402 0.56789 0.84744 0.0
O324 O 0.35524 0.5783 0.98069 0.0
O325 O 0.43987 0.62986 0.96871 0.0
O326 O 0.35968 0.702 0.94686 0.0
C327 C 0.40361 0.5949 0.99179 0.0
O328 O 0.37599 0.52825 0.8708 0.0
C329 C 0.4022 0.74053 0.93228 0.0
O330 O 0.40903 0.61218 0.85604 0.0
O331 O 0.43378 0.73035 0.91168 0.0
C332 C 0.68325 0.45043 0.08922 0.0
O333 O 0.72478 0.49267 0.0783 0.0
Cd334 Cd 0.80255 0.49632 0.04739 0.0
O335 O 0.68033 0.40664 0.08333 0.0
Cd336 Cd 0.73725 0.37379 0.05493 0.0
C337 C 0.82979 0.4378 0.13039 0.0
O338 O 0.77684 0.43131 -0.00625 0.0
O339 O 0.81462 0.3873 0.01377 0.0
O340 O 0.65601 0.30671 0.02123 0.0
C341 C 0.8116 0.41769 0.98689 0.0
O342 O 0.84356 0.47777 0.10712 0.0
C343 C 0.65918 0.2685 0.03625 0.0
O344 O 0.78904 0.39388 0.12097 0.0
O345 O 0.69902 0.27925 0.06029 0.0
C346 C 0.23424 0.6958 0.24904 0.0
O347 O 0.22842 0.73439 0.2393 0.0
Cd348 Cd 0.30163 0.81496 0.21283 0.0
O349 O 0.27909 0.69789 0.24436 0.0
Cd350 Cd 0.37011 0.75617 0.22046 0.0
C351 C 0.38577 0.84069 0.29794 0.0
O352 O 0.3485 0.79418 0.16067 0.0
O353 O 0.43302 0.82582 0.17542 0.0
O354 O 0.35633 0.67583 0.19058 0.0
C355 C 0.39737 0.82584 0.15161 0.0
O356 O 0.3552 0.85147 0.27613 0.0
C357 C 0.39849 0.67894 0.20643 0.0
O358 O 0.39688 0.80619 0.28586 0.0
O359 O 0.42852 0.71909 0.22852 0.0
loop_
_geom_bond_atom_site_label_1
_geom_bond_atom_site_label_2
_geom_bond_distance
_geom_bond_site_symmetry_2
_ccdc_geom_bond_type
C0 C1 1.384 . S
C0 C2 1.384 . S
C0 H28 0.931 . S
C1 C0 1.384 . S
C1 C4 1.382 . S
C2 C0 1.384 . S
C2 C3 1.381 . S
C2 H29 0.930 . S
C3 C2 1.381 . S
C3 C5 1.381 . S
C3 C6 1.487 . S
C4 C1 1.382 . S
C4 C5 1.387 . S
C4 H30 0.930 . S
C5 C3 1.381 . S
C5 C4 1.387 . S
C5 H31 0.931 . S
C6 C3 1.487 . S
C6 C13 1.399 . S
C6 N44 1.343 . S
C7 C8 1.384 . S
C7 C9 1.384 . S
C7 H32 0.931 . S
C8 C7 1.384 . S
C8 C11 1.382 . S
C9 C7 1.384 . S
C9 C10 1.381 . S
C9 H33 0.930 . S
C10 C9 1.381 . S
C10 C12 1.381 . S
C10 C13 1.487 . S
C11 C8 1.382 . S
C11 C12 1.387 . S
C11 H34 0.930 . S
C12 C10 1.381 . S
C12 C11 1.387 . S
C12 H35 0.931 . S
C13 C6 1.399 . S
C13 C10 1.487 . S
C13 N45 1.343 1_655 S
C14 C15 1.384 . S
C14 C16 1.384 . S
C14 H36 0.931 . S
C15 C14 1.384 . S
C15 C18 1.382 . S
C16 C14 1.384 . S
C16 C17 1.381 . S
C16 H37 0.930 . S
C17 C16 1.381 . S
C17 C19 1.381 . S
C17 C20 1.487 . S
C18 C15 1.382 . S
C18 C19 1.387 . S
C18 H38 0.930 . S
C19 C17 1.381 . S
C19 C18 1.387 . S
C19 H39 0.931 . S
C20 C17 1.487 . S
C20 C27 1.399 . S
C20 N45 1.343 . S
C21 C22 1.384 . S
C21 C23 1.384 . S
C21 H40 0.931 . S
C22 C21 1.384 . S
C22 C25 1.382 . S
C23 C21 1.384 . S
C23 C24 1.381 . S
C23 H41 0.930 . S
C24 C23 1.381 . S
C24 C26 1.381 . S
C24 C27 1.487 . S
C25 C22 1.382 . S
C25 C26 1.387 . S
C25 H42 0.930 . S
C26 C24 1.381 . S
C26 C25 1.387 . S
C26 H43 0.931 . S
C27 C20 1.399 . S
C27 C24 1.487 . S
C27 N44 1.343 1_455 S
H28 C0 0.931 . S
H29 C2 0.930 . S
H30 C4 0.930 . S
H31 C5 0.931 . S
H32 C7 0.931 . S
H33 C9 0.930 . S
H34 C11 0.930 . S
H35 C12 0.931 . S
H36 C14 0.931 . S
H37 C16 0.930 . S
H38 C18 0.930 . S
H39 C19 0.931 . S
H40 C21 0.931 . S
H41 C23 0.930 . S
H42 C25 0.930 . S
H43 C26 0.931 . S
N44 C6 1.343 . S
N44 C27 1.343 1_655 S
N45 C13 1.343 1_455 S
N45 C20 1.343 . S
C46 C47 1.384 . S
C46 C48 1.384 . S
C46 H74 0.931 . S
C47 C46 1.384 . S
C47 C50 1.382 . S
C48 C46 1.384 . S
C48 C49 1.381 . S
C48 H75 0.930 . S
C49 C48 1.381 . S
C49 C51 1.381 . S
C49 C52 1.487 . S
C50 C47 1.382 . S
C50 C51 1.387 . S
C50 H76 0.930 . S
C51 C49 1.381 . S
C51 C50 1.387 . S
C51 H77 0.931 . S
C52 C49 1.487 . S
C52 C59 1.399 . S
C52 N90 1.343 . S
C53 C54 1.384 . S
C53 C55 1.384 . S
C53 H78 0.931 . S
C54 C53 1.384 . S
C54 C57 1.382 . S
C55 C53 1.384 . S
C55 C56 1.381 . S
C55 H79 0.930 . S
C56 C55 1.381 . S
C56 C58 1.381 . S
C56 C59 1.487 . S
C57 C54 1.382 . S
C57 C58 1.387 . S
C57 H80 0.930 . S
C58 C56 1.381 . S
C58 C57 1.387 . S
C58 H81 0.931 . S
C59 C52 1.399 . S
C59 C56 1.487 . S
C59 N91 1.343 1_565 S
C60 C61 1.384 . S
C60 C62 1.384 . S
C60 H82 0.931 . S
C61 C60 1.384 . S
C61 C64 1.382 . S
C62 C60 1.384 . S
C62 C63 1.381 . S
C62 H83 0.930 . S
C63 C62 1.381 . S
C63 C65 1.381 . S
C63 C66 1.487 . S
C64 C61 1.382 . S
C64 C65 1.387 . S
C64 H84 0.930 . S
C65 C63 1.381 . S
C65 C64 1.387 . S
C65 H85 0.931 . S
C66 C63 1.487 . S
C66 C73 1.399 . S
C66 N91 1.343 . S
C67 C68 1.384 . S
C67 C69 1.384 . S
C67 H86 0.931 . S
C68 C67 1.384 . S
C68 C71 1.382 . S
C69 C67 1.384 . S
C69 C70 1.381 . S
C69 H87 0.930 . S
C70 C69 1.381 . S
C70 C72 1.381 . S
C70 C73 1.487 . S
C71 C68 1.382 . S
C71 C72 1.387 . S
C71 H88 0.930 . S
C72 C70 1.381 . S
C72 C71 1.387 . S
C72 H89 0.931 . S
C73 C66 1.399 . S
C73 C70 1.487 . S
C73 N90 1.343 1_545 S
H74 C46 0.931 . S
H75 C48 0.930 . S
H76 C50 0.930 . S
H77 C51 0.931 . S
H78 C53 0.931 . S
H79 C55 0.930 . S
H80 C57 0.930 . S
H81 C58 0.931 . S
H82 C60 0.931 . S
H83 C62 0.930 . S
H84 C64 0.930 . S
H85 C65 0.931 . S
H86 C67 0.931 . S
H87 C69 0.930 . S
H88 C71 0.930 . S
H89 C72 0.931 . S
N90 C52 1.343 . S
N90 C73 1.343 1_565 S
N91 C59 1.343 1_545 S
N91 C66 1.343 . S
C92 C93 1.384 . S
C92 C94 1.384 . S
C92 H120 0.931 . S
C93 C92 1.384 . S
C93 C96 1.382 . S
C94 C92 1.384 . S
C94 C95 1.381 . S
C94 H121 0.930 . S
C95 C94 1.381 . S
C95 C97 1.381 . S
C95 C98 1.487 . S
C96 C93 1.382 . S
C96 C97 1.387 . S
C96 H122 0.930 . S
C97 C95 1.381 . S
C97 C96 1.387 . S
C97 H123 0.931 . S
C98 C95 1.487 . S
C98 C105 1.399 . S
C98 N136 1.343 . S
C99 C100 1.384 . S
C99 C101 1.384 . S
C99 H124 0.931 . S
C100 C99 1.384 . S
C100 C103 1.382 . S
C101 C99 1.384 . S
C101 C102 1.381 . S
C101 H125 0.930 . S
C102 C101 1.381 . S
C102 C104 1.381 . S
C102 C105 1.487 . S
C103 C100 1.382 . S
C103 C104 1.387 . S
C103 H126 0.930 . S
C104 C102 1.381 . S
C104 C103 1.387 . S
C104 H127 0.931 . S
C105 C98 1.399 . S
C105 C102 1.487 . S
C105 N137 1.343 . S
C106 C107 1.384 . S
C106 C108 1.384 . S
C106 H128 0.931 . S
C107 C106 1.384 . S
C107 C110 1.382 . S
C108 C106 1.384 . S
C108 C109 1.381 . S
C108 H129 0.930 . S
C109 C108 1.381 . S
C109 C111 1.381 . S
C109 C112 1.487 . S
C110 C107 1.382 . S
C110 C111 1.387 . S
C110 H130 0.930 . S
C111 C109 1.381 . S
C111 C110 1.387 . S
C111 H131 0.931 . S
C112 C109 1.487 . S
C112 C119 1.399 . S
C112 N137 1.343 . S
C113 C114 1.384 . S
C113 C115 1.384 . S
C113 H132 0.931 . S
C114 C113 1.384 . S
C114 C117 1.382 . S
C115 C113 1.384 . S
C115 C116 1.381 . S
C115 H133 0.930 . S
C116 C115 1.381 . S
C116 C118 1.381 . S
C116 C119 1.487 . S
C117 C114 1.382 . S
C117 C118 1.387 . S
C117 H134 0.930 . S
C118 C116 1.381 . S
C118 C117 1.387 . S
C118 H135 0.931 . S
C119 C112 1.399 . S
C119 C116 1.487 . S
C119 N136 1.343 . S
H120 C92 0.931 . S
H121 C94 0.930 . S
H122 C96 0.930 . S
H123 C97 0.931 . S
H124 C99 0.931 . S
H125 C101 0.930 . S
H126 C103 0.930 . S
H127 C104 0.931 . S
H128 C106 0.931 . S
H129 C108 0.930 . S
H130 C110 0.930 . S
H131 C111 0.931 . S
H132 C113 0.931 . S
H133 C115 0.930 . S
H134 C117 0.930 . S
H135 C118 0.931 . S
N136 C98 1.343 . S
N136 C119 1.343 . S
N137 C105 1.343 . S
N137 C112 1.343 . S
C138 C139 1.384 . S
C138 C140 1.384 . S
C138 H166 0.931 . S
C139 C138 1.384 . S
C139 C142 1.382 . S
C140 C138 1.384 . S
C140 C141 1.381 . S
C140 H167 0.930 . S
C141 C140 1.381 . S
C141 C143 1.381 . S
C141 C144 1.487 . S
C142 C139 1.382 . S
C142 C143 1.387 . S
C142 H168 0.930 . S
C143 C141 1.381 . S
C143 C142 1.387 . S
C143 H169 0.931 . S
C144 C141 1.487 . S
C144 C151 1.399 . S
C144 N182 1.343 . S
C145 C146 1.384 . S
C145 C147 1.384 . S
C145 H170 0.931 . S
C146 C145 1.384 . S
C146 C149 1.382 . S
C147 C145 1.384 . S
C147 C148 1.381 . S
C147 H171 0.930 . S
C148 C147 1.381 . S
C148 C150 1.381 . S
C148 C151 1.487 . S
C149 C146 1.382 . S
C149 C150 1.387 . S
C149 H172 0.930 . S
C150 C148 1.381 . S
C150 C149 1.387 . S
C150 H173 0.931 . S
C151 C144 1.399 . S
C151 C148 1.487 . S
C151 N183 1.343 1_655 S
C152 C153 1.384 . S
C152 C154 1.384 . S
C152 H174 0.931 . S
C153 C152 1.384 . S
C153 C156 1.382 . S
C154 C152 1.384 . S
C154 C155 1.381 . S
C154 H175 0.930 . S
C155 C154 1.381 . S
C155 C157 1.381 . S
C155 C158 1.487 . S
C156 C153 1.382 . S
C156 C157 1.387 . S
C156 H176 0.930 . S
C157 C155 1.381 . S
C157 C156 1.387 . S
C157 H177 0.931 . S
C158 C155 1.487 . S
C158 C165 1.399 . S
C158 N183 1.343 . S
C159 C160 1.384 . S
C159 C161 1.384 . S
C159 H178 0.931 . S
C160 C159 1.384 . S
C160 C163 1.382 . S
C161 C159 1.384 . S
C161 C162 1.381 . S
C161 H179 0.930 . S
C162 C161 1.381 . S
C162 C164 1.381 . S
C162 C165 1.487 . S
C163 C160 1.382 . S
C163 C164 1.387 . S
C163 H180 0.930 . S
C164 C162 1.381 . S
C164 C163 1.387 . S
C164 H181 0.931 . S
C165 C158 1.399 . S
C165 C162 1.487 . S
C165 N182 1.343 1_455 S
H166 C138 0.931 . S
H167 C140 0.930 . S
H168 C142 0.930 . S
H169 C143 0.931 . S
H170 C145 0.931 . S
H171 C147 0.930 . S
H172 C149 0.930 . S
H173 C150 0.931 . S
H174 C152 0.931 . S
H175 C154 0.930 . S
H176 C156 0.930 . S
H177 C157 0.931 . S
H178 C159 0.931 . S
H179 C161 0.930 . S
H180 C163 0.930 . S
H181 C164 0.931 . S
N182 C144 1.343 . S
N182 C165 1.343 1_655 S
N183 C151 1.343 1_455 S
N183 C158 1.343 . S
C184 C185 1.384 . S
C184 C186 1.384 . S
C184 H212 0.931 . S
C185 C184 1.384 . S
C185 C188 1.382 . S
C186 C184 1.384 . S
C186 C187 1.381 . S
C186 H213 0.930 1_556 S
C187 C186 1.381 . S
C187 C189 1.381 . S
C187 C190 1.487 . S
C188 C185 1.382 . S
C188 C189 1.387 . S
C188 H214 0.930 . S
C189 C187 1.381 . S
C189 C188 1.387 . S
C189 H215 0.931 . S
C190 C187 1.487 . S
C190 C197 1.399 1_556 S
C190 N228 1.343 . S
C191 C192 1.384 . S
C191 C193 1.384 . S
C191 H216 0.931 . S
C192 C191 1.384 . S
C192 C195 1.382 . S
C193 C191 1.384 . S
C193 C194 1.381 . S
C193 H217 0.930 . S
C194 C193 1.381 . S
C194 C196 1.381 . S
C194 C197 1.487 . S
C195 C192 1.382 . S
C195 C196 1.387 . S
C195 H218 0.930 . S
C196 C194 1.381 . S
C196 C195 1.387 . S
C196 H219 0.931 . S
C197 C190 1.399 1_554 S
C197 C194 1.487 . S
C197 N229 1.343 1_565 S
C198 C199 1.384 . S
C198 C200 1.384 . S
C198 H220 0.931 . S
C199 C198 1.384 . S
C199 C202 1.382 . S
C200 C198 1.384 . S
C200 C201 1.381 . S
C200 H221 0.930 1_554 S
C201 C200 1.381 . S
C201 C203 1.381 . S
C201 C204 1.487 . S
C202 C199 1.382 . S
C202 C203 1.387 . S
C202 H222 0.930 . S
C203 C201 1.381 . S
C203 C202 1.387 . S
C203 H223 0.931 . S
C204 C201 1.487 . S
C204 C211 1.399 1_554 S
C204 N229 1.343 . S
C205 C206 1.384 . S
C205 C207 1.384 . S
C205 H224 0.931 . S
C206 C205 1.384 . S
C206 C209 1.382 . S
C207 C205 1.384 . S
C207 C208 1.381 . S
C207 H225 0.930 . S
C208 C207 1.381 . S
C208 C210 1.381 . S
C208 C211 1.487 . S
C209 C206 1.382 . S
C209 C210 1.387 . S
C209 H226 0.930 . S
C210 C208 1.381 . S
C210 C209 1.387 . S
C210 H227 0.931 . S
C211 C204 1.399 1_556 S
C211 C208 1.487 . S
C211 N228 1.343 1_545 S
H212 C184 0.931 . S
H213 C186 0.930 1_554 S
H214 C188 0.930 . S
H215 C189 0.931 . S
H216 C191 0.931 . S
H217 C193 0.930 . S
H218 C195 0.930 . S
H219 C196 0.931 . S
H220 C198 0.931 . S
H221 C200 0.930 1_556 S
H222 C202 0.930 . S
H223 C203 0.931 . S
H224 C205 0.931 . S
H225 C207 0.930 . S
H226 C209 0.930 . S
H227 C210 0.931 . S
N228 C190 1.343 . S
N228 C211 1.343 1_565 S
N229 C197 1.343 1_545 S
N229 C204 1.343 . S
C230 C231 1.384 . S
C230 C232 1.384 . S
C230 H258 0.931 . S
C231 C230 1.384 . S
C231 C234 1.382 . S
C232 C230 1.384 . S
C232 C233 1.381 . S
C232 H259 0.930 . S
C233 C232 1.381 . S
C233 C235 1.381 . S
C233 C236 1.487 . S
C234 C231 1.382 . S
C234 C235 1.387 . S
C234 H260 0.930 . S
C235 C233 1.381 . S
C235 C234 1.387 . S
C235 H261 0.931 . S
C236 C233 1.487 . S
C236 C243 1.399 . S
C236 N274 1.343 . S
C237 C238 1.384 . S
C237 C239 1.384 . S
C237 H262 0.931 . S
C238 C237 1.384 . S
C238 C241 1.382 . S
C239 C237 1.384 . S
C239 C240 1.381 . S
C239 H263 0.930 . S
C240 C239 1.381 . S
C240 C242 1.381 . S
C240 C243 1.487 . S
C241 C238 1.382 . S
C241 C242 1.387 . S
C241 H264 0.930 1_554 S
C242 C240 1.381 . S
C242 C241 1.387 . S
C242 H265 0.931 . S
C243 C236 1.399 . S
C243 C240 1.487 . S
C243 N275 1.343 . S
C244 C245 1.384 . S
C244 C246 1.384 . S
C244 H266 0.931 . S
C245 C244 1.384 . S
C245 C248 1.382 . S
C246 C244 1.384 . S
C246 C247 1.381 . S
C246 H267 0.930 . S
C247 C246 1.381 . S
C247 C249 1.381 . S
C247 C250 1.487 . S
C248 C245 1.382 . S
C248 C249 1.387 . S
C248 H268 0.930 . S
C249 C247 1.381 . S
C249 C248 1.387 . S
C249 H269 0.931 . S
C250 C247 1.487 . S
C250 C257 1.399 . S
C250 N275 1.343 . S
C251 C252 1.384 . S
C251 C253 1.384 . S
C251 H270 0.931 . S
C252 C251 1.384 . S
C252 C255 1.382 . S
C253 C251 1.384 . S
C253 C254 1.381 . S
C253 H271 0.930 . S
C254 C253 1.381 . S
C254 C256 1.381 . S
C254 C257 1.487 . S
C255 C252 1.382 . S
C255 C256 1.387 . S
C255 H272 0.930 . S
C256 C254 1.381 . S
C256 C255 1.387 . S
C256 H273 0.931 . S
C257 C250 1.399 . S
C257 C254 1.487 . S
C257 N274 1.343 . S
H258 C230 0.931 . S
H259 C232 0.930 . S
H260 C234 0.930 . S
H261 C235 0.931 . S
H262 C237 0.931 . S
H263 C239 0.930 . S
H264 C241 0.930 1_556 S
H265 C242 0.931 . S
H266 C244 0.931 . S
H267 C246 0.930 . S
H268 C248 0.930 . S
H269 C249 0.931 . S
H270 C251 0.931 . S
H271 C253 0.930 . S
H272 C255 0.930 . S
H273 C256 0.931 . S
N274 C236 1.343 . S
N274 C257 1.343 . S
N275 C243 1.343 . S
N275 C250 1.343 . S
C276 O277 1.306 . S
C276 O279 1.160 . S
O277 C276 1.306 . S
O277 Cd278 2.228 . S
Cd278 O277 2.228 . S
Cd278 O282 2.273 . S
Cd278 O286 2.277 . S
O279 C276 1.160 . S
O279 Cd280 2.203 . S
Cd280 O279 2.203 . S
Cd280 O282 2.411 . S
Cd280 O283 2.333 . S
Cd280 O284 2.352 . S
Cd280 O288 2.277 . S
Cd280 O289 2.356 . S
C281 O286 1.209 . S
C281 O288 1.226 . S
O282 Cd278 2.273 . S
O282 Cd280 2.411 . S
O282 C285 1.320 . S
O283 Cd280 2.333 . S
O283 C285 1.214 . S
O284 Cd280 2.352 . S
O284 C287 1.258 . S
C285 O282 1.320 . S
C285 O283 1.214 . S
O286 Cd278 2.277 . S
O286 C281 1.209 . S
C287 O284 1.258 . S
C287 O289 1.282 . S
O288 Cd280 2.277 . S
O288 C281 1.226 . S
O289 Cd280 2.356 . S
O289 C287 1.282 . S
C290 O291 1.306 . S
C290 O293 1.160 . S
O291 C290 1.306 . S
O291 Cd292 2.228 . S
Cd292 O291 2.228 . S
Cd292 O296 2.273 . S
Cd292 O300 2.277 . S
O293 C290 1.160 . S
O293 Cd294 2.203 . S
Cd294 O293 2.203 . S
Cd294 O296 2.411 . S
Cd294 O297 2.333 . S
Cd294 O298 2.352 . S
Cd294 O302 2.277 . S
Cd294 O303 2.356 . S
C295 O300 1.209 . S
C295 O302 1.226 . S
O296 Cd292 2.273 . S
O296 Cd294 2.411 . S
O296 C299 1.320 . S
O297 Cd294 2.333 . S
O297 C299 1.214 . S
O298 Cd294 2.352 . S
O298 C301 1.258 . S
C299 O296 1.320 . S
C299 O297 1.214 . S
O300 Cd292 2.277 . S
O300 C295 1.209 . S
C301 O298 1.258 . S
C301 O303 1.282 . S
O302 Cd294 2.277 . S
O302 C295 1.226 . S
O303 Cd294 2.356 . S
O303 C301 1.282 . S
C304 O305 1.306 . S
C304 O307 1.160 . S
O305 C304 1.306 . S
O305 Cd306 2.228 . S
Cd306 O305 2.228 . S
Cd306 O310 2.273 . S
Cd306 O314 2.277 . S
O307 C304 1.160 . S
O307 Cd308 2.203 . S
Cd308 O307 2.203 . S
Cd308 O310 2.411 . S
Cd308 O311 2.333 . S
Cd308 O312 2.352 . S
Cd308 O316 2.277 . S
Cd308 O317 2.356 . S
C309 O314 1.209 . S
C309 O316 1.226 . S
O310 Cd306 2.273 . S
O310 Cd308 2.411 . S
O310 C313 1.320 . S
O311 Cd308 2.333 . S
O311 C313 1.214 . S
O312 Cd308 2.352 . S
O312 C315 1.258 . S
C313 O310 1.320 . S
C313 O311 1.214 . S
O314 Cd306 2.277 . S
O314 C309 1.209 . S
C315 O312 1.258 . S
C315 O317 1.282 . S
O316 Cd308 2.277 . S
O316 C309 1.226 . S
O317 Cd308 2.356 . S
O317 C315 1.282 . S
C318 O319 1.306 . S
C318 O321 1.160 . S
O319 C318 1.306 . S
O319 Cd320 2.228 . S
Cd320 O319 2.228 . S
Cd320 O324 2.273 . S
Cd320 O328 2.277 . S
O321 C318 1.160 . S
O321 Cd322 2.203 . S
Cd322 O321 2.203 . S
Cd322 O324 2.411 . S
Cd322 O325 2.333 . S
Cd322 O326 2.352 . S
Cd322 O330 2.277 . S
Cd322 O331 2.356 . S
C323 O328 1.209 . S
C323 O330 1.226 . S
O324 Cd320 2.273 . S
O324 Cd322 2.411 . S
O324 C327 1.320 . S
O325 Cd322 2.333 . S
O325 C327 1.214 . S
O326 Cd322 2.352 . S
O326 C329 1.258 . S
C327 O324 1.320 . S
C327 O325 1.214 . S
O328 Cd320 2.277 . S
O328 C323 1.209 . S
C329 O326 1.258 . S
C329 O331 1.282 . S
O330 Cd322 2.277 . S
O330 C323 1.226 . S
O331 Cd322 2.356 . S
O331 C329 1.282 . S
C332 O333 1.306 . S
C332 O335 1.160 . S
O333 C332 1.306 . S
O333 Cd334 2.228 . S
Cd334 O333 2.228 . S
Cd334 O338 2.273 . S
Cd334 O342 2.277 . S
O335 C332 1.160 . S
O335 Cd336 2.203 . S
Cd336 O335 2.203 . S
Cd336 O338 2.411 . S
Cd336 O339 2.333 . S
Cd336 O340 2.352 . S
Cd336 O344 2.277 . S
Cd336 O345 2.356 . S
C337 O342 1.209 . S
C337 O344 1.226 . S
O338 Cd334 2.273 . S
O338 Cd336 2.411 . S
O338 C341 1.320 . S
O339 Cd336 2.333 . S
O339 C341 1.214 . S
O340 Cd336 2.352 . S
O340 C343 1.258 . S
C341 O338 1.320 . S
C341 O339 1.214 . S
O342 Cd334 2.277 . S
O342 C337 1.209 . S
C343 O340 1.258 . S
C343 O345 1.282 . S
O344 Cd336 2.277 . S
O344 C337 1.226 . S
O345 Cd336 2.356 . S
O345 C343 1.282 . S
C346 O347 1.306 . S
C346 O349 1.160 . S
O347 C346 1.306 . S
O347 Cd348 2.228 . S
Cd348 O347 2.228 . S
Cd348 O352 2.273 . S
Cd348 O356 2.277 . S
O349 C346 1.160 . S
O349 Cd350 2.203 . S
Cd350 O349 2.203 . S
Cd350 O352 2.411 . S
Cd350 O353 2.333 . S
Cd350 O354 2.352 . S
Cd350 O358 2.277 . S
Cd350 O359 2.356 . S
C351 O356 1.209 . S
C351 O358 1.226 . S
O352 Cd348 2.273 . S
O352 Cd350 2.411 . S
O352 C355 1.320 . S
O353 Cd350 2.333 . S
O353 C355 1.214 . S
O354 Cd350 2.352 . S
O354 C357 1.258 . S
C355 O352 1.320 . S
C355 O353 1.214 . S
O356 Cd348 2.277 . S
O356 C351 1.209 . S
C357 O354 1.258 . S
C357 O359 1.282 . S
O358 Cd350 2.277 . S
O358 C351 1.226 . S
O359 Cd350 2.356 . S
O359 C357 1.282 . S
C346 C15 1.912 . S
C61 C287 1.949 . S
C114 C290 1.932 . S
C139 C304 1.961 . S
C329 C185 1.999 . S
C245 C332 1.933 . S
C47 C301 1.945 . S
C100 C315 1.923 . S
C153 C318 1.856 . S
C343 C199 1.894 . S
C357 C231 1.924 . S
C276 C1 1.904 . S
C22 C299 1.478 . S
C68 C313 1.474 . S
C323 C107 1.492 . S
C146 C341 1.494 1_556 S
C355 C192 1.472 . S
C281 C252 1.492 . S
C351 C54 1.510 . S
C93 C285 1.492 . S
C295 C160 1.520 . S
C206 C309 1.510 . S
C238 C327 1.492 1_554 S
C8 C337 1.537 . S
