# Generated by pormake.
# Topology pth, (4,4)-cn, num edge types: 1
# Building blocks:
#     Node 0, Type 0, BuildingBlock: CEKHIL_clean_sbu_0, # of connection points: 4
#     Node 1, Type 0, BuildingBlock: CEKHIL_clean_sbu_0, # of connection points: 4
#     Node 2, Type 0, BuildingBlock: CEKHIL_clean_sbu_0, # of connection points: 4
#     Node 3, Type 1, BuildingBlock: NAWXER_clean_linker_0, # of connection points: 4
#     Node 4, Type 1, BuildingBlock: NAWXER_clean_linker_0, # of connection points: 4
#     Node 5, Type 1, BuildingBlock: NAWXER_clean_linker_0, # of connection points: 4
#     Edge 6, Type (0, 1), BuildingBlock: EZIPEK_clean_linker_0, # of connection points: 2
#     Edge 7, Type (0, 1), BuildingBlock: EZIPEK_clean_linker_0, # of connection points: 2
#     Edge 8, Type (0, 1), BuildingBlock: EZIPEK_clean_linker_0, # of connection points: 2
#     Edge 9, Type (0, 1), BuildingBlock: EZIPEK_clean_linker_0, # of connection points: 2
#     Edge 10, Type (0, 1), BuildingBlock: EZIPEK_clean_linker_0, # of connection points: 2
#     Edge 11, Type (0, 1), BuildingBlock: EZIPEK_clean_linker_0, # of connection points: 2
#     Edge 12, Type (0, 1), BuildingBlock: EZIPEK_clean_linker_0, # of connection points: 2
#     Edge 13, Type (0, 1), BuildingBlock: EZIPEK_clean_linker_0, # of connection points: 2
#     Edge 14, Type (0, 1), BuildingBlock: EZIPEK_clean_linker_0, # of connection points: 2
#     Edge 15, Type (0, 1), BuildingBlock: EZIPEK_clean_linker_0, # of connection points: 2
#     Edge 16, Type (0, 1), BuildingBlock: EZIPEK_clean_linker_0, # of connection points: 2
#     Edge 17, Type (0, 1), BuildingBlock: EZIPEK_clean_linker_0, # of connection points: 2
# Relax obj value: 0.006
# Max RMSD: 0.048
# Mean RMSD: 0.037
data_MOF--net-pth--node1-CEKHIL_clean_sbu_0--node2-NAWXER_clean_linker_0--edge1-EZIPEK_clean_linker_0
_symmetry_space_group_name_H-M    P1
_symmetry_Int_Tables_number       1
_symmetry_cell_setting            triclinic
loop_
_symmetry_equiv_pos_as_xyz
'x, y, z'
_cell_length_a     22.189617
_cell_length_b     22.252094
_cell_length_c     51.347511
_cell_angle_alpha  91.199783
_cell_angle_beta   90.004238
_cell_angle_gamma 120.37538
loop_
_atom_site_label
_atom_site_type_symbol
_atom_site_fract_x
_atom_site_fract_y
_atom_site_fract_z
_atom_type_partial_charge
Co0 Co 0.02733 0.02669 0.06204 0.0
O1 O 0.98271 0.95525 0.08742 0.0
O2 O 0.07159 0.97066 0.0632 0.0
C3 C 0.03486 0.11291 0.08839 0.0
O4 O 0.08969 0.09739 0.03504 0.0
Co5 Co 0.95448 0.10313 0.04106 0.0
O6 O 0.04302 0.16177 0.0226 0.0
C7 C 0.90848 0.96106 0.02184 0.0
C8 C 0.02809 0.93683 0.08169 0.0
C9 C 0.09162 0.14722 0.02195 0.0
O10 O 0.9601 0.96278 0.03396 0.0
O11 O 0.89361 0.0095 0.0237 0.0
O12 O 0.08091 0.09351 0.08989 0.0
O13 O 0.98305 0.07647 0.07247 0.0
Co14 Co 0.02273 0.03838 0.37569 0.0
O15 O 0.97873 0.05916 0.34757 0.0
O16 O 0.06483 0.13827 0.37263 0.0
C17 C 0.03501 0.95772 0.35206 0.0
O18 O 0.08521 0.03989 0.40542 0.0
Co19 Co 0.959 0.89532 0.4001 0.0
O20 O 0.04341 0.93404 0.42236 0.0
C21 C 0.90736 0.98887 0.41633 0.0
C22 C 0.02225 0.12433 0.35308 0.0
C23 C 0.08948 0.99812 0.4213 0.0
O24 O 0.95147 0.03572 0.40109 0.0
O25 O 0.90116 0.92878 0.41816 0.0
O26 O 0.08038 0.02371 0.35071 0.0
O27 O 0.98182 0.94181 0.3668 0.0
Co28 Co 0.00985 0.01914 0.70929 0.0
O29 O 0.07704 0.06888 0.68266 0.0
O30 O 0.06907 0.97938 0.70367 0.0
C31 C 0.91805 0.00924 0.68632 0.0
O32 O 0.94697 0.95245 0.73727 0.0
Co33 Co 0.92616 0.07664 0.73664 0.0
O34 O 0.87205 0.98447 0.75237 0.0
C35 C 0.07174 0.1272 0.75372 0.0
C36 C 0.09912 0.02554 0.68577 0.0
C37 C 0.89483 0.94233 0.75141 0.0
O38 O 0.07638 0.08652 0.73668 0.0
O39 O 0.01668 0.13149 0.75645 0.0
O40 O 0.93926 0.96507 0.68267 0.0
O41 O 0.95438 0.06001 0.70273 0.0
C42 C 0.98174 0.31422 0.26529 0.0
C43 C 0.03225 0.33384 0.28511 0.0
C44 C 0.98452 0.36396 0.24831 0.0
C45 C 0.03806 0.43406 0.25087 0.0
C46 C 0.08541 0.40379 0.28784 0.0
C47 C 0.08791 0.4536 0.27099 0.0
C48 C 0.04001 0.48797 0.23379 0.0
C49 C 0.08045 0.34886 0.18006 0.0
C50 C 0.03366 0.3195 0.15889 0.0
C51 C 0.08002 0.4005 0.19595 0.0
C52 C 0.03196 0.42268 0.19113 0.0
C53 C 0.98578 0.34154 0.15402 0.0
C54 C 0.98508 0.39281 0.16996 0.0
C55 C 0.0338 0.48098 0.20636 0.0
C56 C 0.07143 0.7596 0.17384 0.0
C57 C 0.03206 0.73489 0.1506 0.0
C58 C 0.07323 0.71314 0.19138 0.0
C59 C 0.03282 0.64064 0.18669 0.0
C60 C 0.99385 0.66284 0.14541 0.0
C61 C 0.9935 0.61636 0.16336 0.0
C62 C 0.03498 0.58914 0.20429 0.0
C63 C 0.98616 0.71825 0.26129 0.0
C64 C 0.03959 0.75538 0.27986 0.0
C65 C 0.98744 0.66759 0.24503 0.0
C66 C 0.04221 0.65346 0.24717 0.0
C67 C 0.09466 0.7418 0.28175 0.0
C68 C 0.09558 0.6908 0.26571 0.0
C69 C 0.04163 0.5962 0.23181 0.0
H70 H 0.94027 0.26044 0.26298 0.0
H71 H 0.94436 0.34782 0.23342 0.0
H72 H 0.12475 0.41976 0.30305 0.0
H73 H 0.12915 0.50742 0.27354 0.0
H74 H 0.118 0.3326 0.18397 0.0
H75 H 0.11836 0.42419 0.21155 0.0
H76 H 0.94942 0.31947 0.13773 0.0
H77 H 0.94807 0.40952 0.16563 0.0
H78 H 0.10212 0.81507 0.1781 0.0
H79 H 0.1076 0.73449 0.20818 0.0
H80 H 0.96371 0.64252 0.1275 0.0
H81 H 0.96264 0.56104 0.15882 0.0
H82 H 0.94303 0.72778 0.25968 0.0
H83 H 0.94501 0.63842 0.23122 0.0
H84 H 0.13618 0.76978 0.29602 0.0
H85 H 0.13788 0.6802 0.26786 0.0
N86 N 0.04425 0.54558 0.24533 0.0
N87 N 0.0313 0.53161 0.19289 0.0
C88 C 0.74652 0.0617 0.51113 0.0
C89 C 0.72418 0.03107 0.48615 0.0
C90 C 0.70027 0.06791 0.52807 0.0
C91 C 0.62924 0.03912 0.52113 0.0
C92 C 0.65477 0.00686 0.47853 0.0
C93 C 0.60776 0.00943 0.49591 0.0
C94 C 0.57681 0.04278 0.5385 0.0
C95 C 0.68518 0.97227 0.59569 0.0
C96 C 0.72104 0.02157 0.6158 0.0
C97 C 0.63948 0.9799 0.5791 0.0
C98 C 0.6298 0.03738 0.58229 0.0
C99 C 0.71087 0.07849 0.61912 0.0
C100 C 0.66525 0.08605 0.60261 0.0
C101 C 0.57852 0.04437 0.56619 0.0
C102 C 0.29658 0.98865 0.59719 0.0
C103 C 0.31342 0.03929 0.61703 0.0
C104 C 0.34823 0.99298 0.58042 0.0
C105 C 0.41763 0.04776 0.58337 0.0
C106 C 0.38271 0.09426 0.61987 0.0
C107 C 0.43456 0.09795 0.60336 0.0
C108 C 0.47353 0.04983 0.56703 0.0
C109 C 0.34297 0.09698 0.51251 0.0
C110 C 0.31149 0.04748 0.49209 0.0
C111 C 0.39408 0.09657 0.52842 0.0
C112 C 0.41449 0.0468 0.52402 0.0
C113 C 0.33206 0.99806 0.48769 0.0
C114 C 0.38338 0.99801 0.50339 0.0
C115 C 0.47094 0.0472 0.5396 0.0
H116 H 0.8001 0.08175 0.51739 0.0
H117 H 0.721 0.09606 0.54632 0.0
H118 H 0.63631 0.98394 0.45926 0.0
H119 H 0.55411 0.98781 0.48943 0.0
H120 H 0.69253 0.92801 0.59292 0.0
H121 H 0.61133 0.94081 0.56396 0.0
H122 H 0.7382 0.11695 0.63454 0.0
H123 H 0.65769 0.13012 0.60567 0.0
H124 H 0.24346 0.94574 0.59475 0.0
H125 H 0.33427 0.95277 0.56552 0.0
H126 H 0.39668 0.13383 0.63505 0.0
H127 H 0.48793 0.14013 0.60615 0.0
H128 H 0.32809 0.13586 0.51604 0.0
H129 H 0.41853 0.13587 0.54378 0.0
H130 H 0.30853 0.95966 0.47197 0.0
H131 H 0.39866 0.95955 0.49947 0.0
N132 N 0.52257 0.04397 0.5266 0.0
N133 N 0.5273 0.04865 0.57918 0.0
C134 C 0.32081 0.28539 0.84615 0.0
C135 C 0.30659 0.30686 0.82251 0.0
C136 C 0.37686 0.33262 0.86213 0.0
C137 C 0.41661 0.4035 0.85575 0.0
C138 C 0.34972 0.37614 0.81516 0.0
C139 C 0.40288 0.42398 0.83174 0.0
C140 C 0.47475 0.45726 0.87258 0.0
C141 C 0.29871 0.34654 0.93021 0.0
C142 C 0.31508 0.31739 0.95111 0.0
C143 C 0.35109 0.39173 0.91342 0.0
C144 C 0.42031 0.40676 0.91681 0.0
C145 C 0.38424 0.33321 0.9548 0.0
C146 C 0.43638 0.37748 0.93778 0.0
C147 C 0.4774 0.45765 0.90023 0.0
C148 C 0.69824 0.74583 0.93032 0.0
C149 C 0.73326 0.73305 0.9503 0.0
C150 C 0.65245 0.69181 0.91335 0.0
C151 C 0.64081 0.62405 0.91614 0.0
C152 C 0.72261 0.66564 0.95281 0.0
C153 C 0.6761 0.61141 0.93605 0.0
C154 C 0.5869 0.56516 0.90013 0.0
C155 C 0.7573 0.69809 0.84326 0.0
C156 C 0.73428 0.72346 0.82303 0.0
C157 C 0.70896 0.64751 0.8599 0.0
C158 C 0.63698 0.6217 0.85648 0.0
C159 C 0.66255 0.69744 0.81956 0.0
C160 C 0.61439 0.64683 0.83603 0.0
C161 C 0.58398 0.56531 0.87269 0.0
H162 H 0.28889 0.23195 0.85211 0.0
H163 H 0.38852 0.31322 0.8794 0.0
H164 H 0.34065 0.39387 0.79687 0.0
H165 H 0.43294 0.47758 0.82572 0.0
H166 H 0.24573 0.33568 0.92733 0.0
H167 H 0.33769 0.41554 0.898 0.0
H168 H 0.39789 0.31177 0.971 0.0
H169 H 0.48955 0.38935 0.94111 0.0
H170 H 0.70558 0.79743 0.92814 0.0
H171 H 0.62454 0.70253 0.89857 0.0
H172 H 0.74916 0.6548 0.9681 0.0
H173 H 0.66722 0.5594 0.93875 0.0
H174 H 0.81254 0.71743 0.84612 0.0
H175 H 0.72771 0.62774 0.87506 0.0
H176 H 0.64386 0.71636 0.80405 0.0
H177 H 0.55923 0.62739 0.83282 0.0
N178 N 0.52834 0.51142 0.86022 0.0
N179 N 0.53378 0.5112 0.91272 0.0
C180 C 0.97909 0.14561 0.12447 0.0
C181 C 0.03568 0.16536 0.10704 0.0
C182 C 0.09007 0.28633 0.12338 0.0
C183 C 0.03519 0.26611 0.14146 0.0
N184 N 0.9344 0.1755 0.16276 0.0
N185 N 0.1526 0.25085 0.09421 0.0
C186 C 0.98141 0.19544 0.14292 0.0
C187 C 0.09361 0.23453 0.10788 0.0
N188 N 0.92363 0.07886 0.12377 0.0
N189 N 0.13725 0.35546 0.12019 0.0
H190 H 0.1569 0.21574 0.08173 0.0
H191 H 0.1993 0.298 0.09661 0.0
H192 H 0.13654 0.39509 0.13115 0.0
H193 H 0.17337 0.37397 0.10519 0.0
H194 H 0.87663 0.06386 0.13311 0.0
H195 H 0.92321 0.03829 0.11312 0.0
H196 H 0.89852 0.12385 0.1668 0.0
H197 H 0.93479 0.21048 0.1767 0.0
C198 C 0.79016 0.94957 0.43623 0.0
C199 C 0.86034 0.00352 0.4327 0.0
C200 C 0.83752 0.08001 0.46099 0.0
C201 C 0.77217 0.0222 0.46804 0.0
N202 N 0.69637 0.89686 0.46695 0.0
N203 N 0.95504 0.1167 0.44726 0.0
C204 C 0.75137 0.95539 0.45701 0.0
C205 C 0.88543 0.06811 0.44653 0.0
N206 N 0.75926 0.89378 0.41924 0.0
N207 N 0.85328 0.14637 0.46726 0.0
H208 H 0.99302 0.10882 0.43863 0.0
H209 H 0.97574 0.16162 0.45905 0.0
H210 H 0.81843 0.1576 0.47672 0.0
H211 H 0.89776 0.19019 0.46048 0.0
H212 H 0.70641 0.85607 0.4201 0.0
H213 H 0.78381 0.89001 0.40248 0.0
H214 H 0.68336 0.84677 0.46072 0.0
H215 H 0.66926 0.89799 0.48337 0.0
C216 C 0.82431 0.81387 0.76067 0.0
C217 C 0.86425 0.88396 0.76984 0.0
C218 C 0.82439 0.84813 0.8144 0.0
C219 C 0.78463 0.77788 0.80536 0.0
N220 N 0.75913 0.69141 0.77149 0.0
N221 N 0.91867 0.96501 0.80595 0.0
C222 C 0.78865 0.75999 0.77894 0.0
C223 C 0.86946 0.90011 0.79692 0.0
N224 N 0.8179 0.79913 0.73451 0.0
N225 N 0.8165 0.86587 0.83931 0.0
H226 H 0.95354 0.00388 0.79368 0.0
H227 H 0.92975 0.97803 0.82567 0.0
H228 H 0.78417 0.82949 0.85281 0.0
H229 H 0.8378 0.91721 0.84601 0.0
H230 H 0.78276 0.75038 0.72639 0.0
H231 H 0.84509 0.83687 0.72067 0.0
H232 H 0.76573 0.67478 0.75317 0.0
H233 H 0.73299 0.65089 0.78446 0.0
C234 C 0.09509 0.89067 0.10627 0.0
C235 C 0.0307 0.88153 0.09672 0.0
C236 C 0.96743 0.77961 0.12414 0.0
C237 C 0.03142 0.78438 0.13151 0.0
N238 N 0.15458 0.83372 0.12331 0.0
N239 N 0.90637 0.80426 0.09091 0.0
C240 C 0.09482 0.83653 0.12059 0.0
C241 C 0.96705 0.82191 0.1039 0.0
N242 N 0.15612 0.95226 0.10333 0.0
N243 N 0.9074 0.73722 0.13716 0.0
H244 H 0.9047 0.83145 0.07488 0.0
H245 H 0.85968 0.75802 0.09403 0.0
H246 H 0.90576 0.70784 0.15298 0.0
H247 H 0.86095 0.73714 0.13402 0.0
H248 H 0.20282 0.96311 0.11229 0.0
H249 H 0.15909 0.99536 0.09452 0.0
H250 H 0.20055 0.86698 0.11364 0.0
H251 H 0.15609 0.79358 0.13286 0.0
C252 C 0.13663 0.01811 0.46679 0.0
C253 C 0.14966 0.02461 0.43965 0.0
C254 C 0.27321 0.06525 0.44836 0.0
C255 C 0.25735 0.04701 0.47483 0.0
N256 N 0.17248 1.00059 0.50916 0.0
N257 N 0.22926 0.04933 0.40403 0.0
C258 C 0.1888 0.02274 0.48415 0.0
C259 C 0.21792 0.04783 0.43024 0.0
N260 N 0.07455 0.00846 0.47593 0.0
N261 N 0.34128 0.0998 0.44064 0.0
H262 H 0.19031 0.03708 0.3901 0.0
H263 H 0.27599 0.05774 0.39607 0.0
H264 H 0.38295 0.11367 0.4535 0.0
H265 H 0.35676 0.12048 0.4222 0.0
H266 H 0.06437 0.00992 0.49566 0.0
H267 H 0.03578 0.00602 0.46368 0.0
H268 H 0.12159 0.97491 0.5161 0.0
H269 H 0.20904 0.00301 0.52254 0.0
C270 C 0.1743 0.14691 0.78217 0.0
C271 C 0.13309 0.17245 0.77099 0.0
C272 C 0.19698 0.27874 0.7979 0.0
C273 C 0.2454 0.25846 0.80563 0.0
N274 N 0.28816 0.17845 0.79949 0.0
N275 N 0.12213 0.27348 0.76292 0.0
C276 C 0.23654 0.194 0.79614 0.0
C277 C 0.14924 0.24155 0.7773 0.0
N278 N 0.15288 0.07757 0.78074 0.0
N279 N 0.19487 0.33217 0.81061 0.0
H280 H 0.09211 0.25093 0.74608 0.0
H281 H 0.1372 0.32579 0.76581 0.0
H282 H 0.22605 0.35818 0.8269 0.0
H283 H 0.15644 0.34476 0.8068 0.0
H284 H 0.17875 0.05642 0.79053 0.0
H285 H 0.10514 0.0401 0.77257 0.0
H286 H 0.28622 0.13472 0.7908 0.0
H287 H 0.33594 0.21276 0.80848 0.0
C288 C 0.89187 0.05706 0.64688 0.0
C289 C 0.86707 0.01107 0.66816 0.0
C290 C 0.74596 0.97171 0.65518 0.0
C291 C 0.77085 0.01506 0.6332 0.0
N292 N 0.86581 0.08966 0.60537 0.0
N293 N 0.77173 0.91756 0.69075 0.0
C294 C 0.84341 0.05509 0.62827 0.0
C295 C 0.79437 0.96609 0.67172 0.0
N296 N 0.96177 0.10346 0.64465 0.0
N297 N 0.67626 0.93778 0.66069 0.0
H298 H 0.80572 0.91384 0.70374 0.0
H299 H 0.71998 0.87808 0.69262 0.0
H300 H 0.63922 0.93954 0.64872 0.0
H301 H 0.65546 0.91165 0.67791 0.0
H302 H 0.9824 0.14394 0.63153 0.0
H303 H 0.99942 0.10477 0.65713 0.0
H304 H 0.91731 0.11336 0.59916 0.0
H305 H 0.83184 0.08989 0.59138 0.0
C306 C 0.80627 0.84107 0.01336 0.0
C307 C 0.86545 0.90136 0.00386 0.0
C308 C 0.84309 0.84732 0.96012 0.0
C309 C 0.77979 0.79015 0.96898 0.0
N310 N 0.695 0.73766 1.00307 0.0
N311 N 0.93514 0.96713 0.96766 0.0
C312 C 0.75981 0.78814 0.99541 0.0
C313 C 0.88246 0.90599 0.97706 0.0
N314 N 0.79469 0.83425 0.03957 0.0
N315 N 0.8667 0.84458 0.93577 0.0
H316 H 0.96543 0.01101 0.97952 0.0
H317 H 0.94511 0.97627 0.94789 0.0
H318 H 0.83973 0.80211 0.92292 0.0
H319 H 0.91588 0.88135 0.92917 0.0
H320 H 0.75707 0.78823 0.04795 0.0
H321 H 0.82644 0.87298 0.05319 0.0
H322 H 0.6746 0.73777 0.02132 0.0
H323 H 0.65882 0.69876 0.99046 0.0
C324 C 0.03857 0.91658 0.30623 0.0
C325 C 0.03613 0.90585 0.33352 0.0
C326 C 0.0255 0.79193 0.32503 0.0
C327 C 0.03682 0.80672 0.29815 0.0
N328 N 0.06649 0.88876 0.26368 0.0
N329 N 0.04162 0.83925 0.3689 0.0
C330 C 0.04695 0.87073 0.28887 0.0
C331 C 0.03329 0.84498 0.34293 0.0
N332 N 0.02941 0.96835 0.29668 0.0
N333 N 0.00553 0.72663 0.33343 0.0
H334 H 0.05113 0.87879 0.38228 0.0
H335 H 0.04697 0.79927 0.37665 0.0
H336 H 0.99829 0.68599 0.32087 0.0
H337 H 0.98961 0.71101 0.35241 0.0
H338 H 0.02377 0.97394 0.27689 0.0
H339 H 0.01991 0.0012 0.30851 0.0
H340 H 0.08198 0.93804 0.25667 0.0
H341 H 0.07338 0.8567 0.25038 0.0
C342 C 0.1461 0.0292 0.64098 0.0
C343 C 0.15325 0.02667 0.66839 0.0
C344 C 0.26087 0.02306 0.66175 0.0
C345 C 0.25826 0.03484 0.63479 0.0
N346 N 0.20521 0.06319 0.59969 0.0
N347 N 0.22485 0.03448 0.70521 0.0
C348 C 0.20281 0.042 0.62466 0.0
C349 C 0.21259 0.02703 0.67893 0.0
N350 N 0.08401 0.0161 0.63031 0.0
N351 N 0.30799 0.00595 0.67087 0.0
H352 H 0.19214 0.03987 0.71843 0.0
H353 H 0.27104 0.04229 0.71366 0.0
H354 H 0.34338 0.00128 0.65885 0.0
H355 H 0.30742 0.98986 0.68982 0.0
H356 H 0.0741 0.01066 0.61031 0.0
H357 H 0.03971 0.00277 0.64133 0.0
H358 H 0.16968 0.07618 0.59226 0.0
H359 H 0.2465 0.07447 0.5872 0.0
C360 C 0.16964 0.15781 0.98432 0.0
C361 C 0.15248 0.18998 0.00497 0.0
C362 C 0.24128 0.30565 0.9899 0.0
C363 C 0.26034 0.27333 0.97004 0.0
N364 N 0.25071 0.16962 0.95029 0.0
N365 N 0.17899 0.29383 0.02995 0.0
C366 C 0.22712 0.19964 0.96794 0.0
C367 C 0.19026 0.26377 0.00842 0.0
N368 N 0.1285 0.0878 0.97931 0.0
N369 N 0.27121 0.37661 0.99076 0.0
H370 H 0.14101 0.26557 0.04363 0.0
H371 H 0.21056 0.34604 0.03544 0.0
H372 H 0.3118 0.40951 0.97863 0.0
H373 H 0.25324 0.403 1.00241 0.0
H374 H 0.13276 0.06268 0.96269 0.0
H375 H 0.08608 0.055 0.99071 0.0
H376 H 0.23473 0.11683 0.94988 0.0
H377 H 0.29015 0.19828 0.93706 0.0
C378 C 0.99068 0.2153 0.34333 0.0
C379 C 0.02666 0.17989 0.33635 0.0
C380 C 0.06301 0.24261 0.29527 0.0
C381 C 0.03022 0.28079 0.30284 0.0
N382 N 0.96975 0.3104 0.335 0.0
N383 N 0.10594 0.16646 0.30805 0.0
C384 C 0.99607 0.26916 0.32719 0.0
C385 C 0.06528 0.19537 0.31295 0.0
N386 N 0.94983 0.19596 0.365 0.0
N387 N 0.09086 0.25064 0.27094 0.0
H388 H 0.10878 0.13155 0.32049 0.0
H389 H 0.14121 0.18105 0.29282 0.0
H390 H 0.09267 0.28667 0.25782 0.0
H391 H 0.10799 0.21857 0.26298 0.0
H392 H 0.91606 0.214 0.36976 0.0
H393 H 0.94634 0.15811 0.37758 0.0
H394 H 0.9511 0.31012 0.35361 0.0
H395 H 0.97048 0.34851 0.32329 0.0
loop_
_geom_bond_atom_site_label_1
_geom_bond_atom_site_label_2
_geom_bond_distance
_geom_bond_site_symmetry_2
_ccdc_geom_bond_type
Co0 O1 2.216 1_445 S
Co0 O2 2.091 1_545 S
Co0 O4 2.004 . S
Co0 O10 2.021 1_445 S
Co0 O12 2.137 . S
Co0 O13 2.244 1_455 S
O1 Co0 2.216 1_665 S
O1 C8 1.247 1_655 S
O2 Co0 2.091 1_565 S
O2 C8 1.261 . S
C3 O12 1.247 . S
C3 O13 1.272 1_455 S
O4 Co0 2.004 . S
O4 C9 1.259 . S
Co5 O6 2.061 1_655 S
Co5 O11 2.056 . S
Co5 O13 2.135 . S
O6 Co5 2.061 1_455 S
O6 C9 1.235 . S
C7 O10 1.238 . S
C7 O11 1.237 1_565 S
C8 O1 1.247 1_455 S
C8 O2 1.261 . S
C9 O4 1.259 . S
C9 O6 1.235 . S
O10 Co0 2.021 1_665 S
O10 C7 1.238 . S
O11 Co5 2.056 . S
O11 C7 1.237 1_545 S
O12 Co0 2.137 . S
O12 C3 1.247 . S
O13 Co0 2.244 1_655 S
O13 C3 1.272 1_655 S
O13 Co5 2.135 . S
Co14 O15 2.216 1_455 S
Co14 O16 2.091 . S
Co14 O18 2.004 . S
Co14 O24 2.021 1_455 S
Co14 O26 2.137 . S
Co14 O27 2.244 1_445 S
O15 Co14 2.216 1_655 S
O15 C22 1.247 1_655 S
O16 Co14 2.091 . S
O16 C22 1.261 . S
C17 O26 1.247 1_565 S
C17 O27 1.272 1_455 S
O18 Co14 2.004 . S
O18 C23 1.259 . S
Co19 O20 2.061 1_655 S
Co19 O25 2.052 . S
Co19 O27 2.135 . S
O20 Co19 2.061 1_455 S
O20 C23 1.235 1_565 S
C21 O24 1.238 . S
C21 O25 1.241 1_545 S
C22 O15 1.247 1_455 S
C22 O16 1.261 . S
C23 O18 1.259 . S
C23 O20 1.235 1_545 S
O24 Co14 2.021 1_655 S
O24 C21 1.238 . S
O25 Co19 2.052 . S
O25 C21 1.241 1_565 S
O26 Co14 2.137 . S
O26 C17 1.247 1_545 S
O27 Co14 2.244 1_665 S
O27 C17 1.272 1_655 S
O27 Co19 2.135 . S
Co28 O29 2.216 . S
Co28 O30 2.091 1_545 S
Co28 O32 2.004 1_445 S
Co28 O38 2.021 . S
Co28 O40 2.137 1_445 S
Co28 O41 2.244 1_455 S
O29 Co28 2.216 . S
O29 C36 1.247 . S
O30 Co28 2.091 1_565 S
O30 C36 1.261 1_565 S
C31 O40 1.247 1_545 S
C31 O41 1.272 . S
O32 Co28 2.004 1_665 S
O32 C37 1.259 . S
Co33 O34 2.061 1_545 S
Co33 O39 2.052 1_655 S
Co33 O41 2.135 . S
O34 Co33 2.061 1_565 S
O34 C37 1.235 . S
C35 O38 1.238 . S
C35 O39 1.241 . S
C36 O29 1.247 . S
C36 O30 1.261 1_545 S
C37 O32 1.259 . S
C37 O34 1.235 . S
O38 Co28 2.021 . S
O38 C35 1.238 . S
O39 Co33 2.052 1_455 S
O39 C35 1.241 . S
O40 Co28 2.137 1_665 S
O40 C31 1.247 1_565 S
O41 Co28 2.244 1_655 S
O41 C31 1.272 . S
O41 Co33 2.135 . S
C42 C43 1.384 1_655 S
C42 C44 1.384 . S
C42 H70 0.931 . S
C43 C42 1.384 1_455 S
C43 C46 1.382 . S
C44 C42 1.384 . S
C44 C45 1.381 1_655 S
C44 H71 0.930 . S
C45 C44 1.381 1_455 S
C45 C47 1.381 . S
C45 C48 1.487 . S
C46 C43 1.382 . S
C46 C47 1.387 . S
C46 H72 0.930 . S
C47 C45 1.381 . S
C47 C46 1.387 . S
C47 H73 0.931 . S
C48 C45 1.487 . S
C48 C55 1.399 . S
C48 N86 1.343 . S
C49 C50 1.384 . S
C49 C51 1.384 . S
C49 H74 0.931 . S
C50 C49 1.384 . S
C50 C53 1.382 1_455 S
C51 C49 1.384 . S
C51 C52 1.381 . S
C51 H75 0.930 . S
C52 C51 1.381 . S
C52 C54 1.381 1_455 S
C52 C55 1.487 . S
C53 C50 1.382 1_655 S
C53 C54 1.387 . S
C53 H76 0.930 . S
C54 C52 1.381 1_655 S
C54 C53 1.387 . S
C54 H77 0.931 . S
C55 C48 1.399 . S
C55 C52 1.487 . S
C55 N87 1.343 . S
C56 C57 1.384 . S
C56 C58 1.384 . S
C56 H78 0.931 . S
C57 C56 1.384 . S
C57 C60 1.382 1_455 S
C58 C56 1.384 . S
C58 C59 1.381 . S
C58 H79 0.930 . S
C59 C58 1.381 . S
C59 C61 1.381 1_455 S
C59 C62 1.487 . S
C60 C57 1.382 1_655 S
C60 C61 1.387 . S
C60 H80 0.930 . S
C61 C59 1.381 1_655 S
C61 C60 1.387 . S
C61 H81 0.931 . S
C62 C59 1.487 . S
C62 C69 1.399 . S
C62 N87 1.343 . S
C63 C64 1.384 1_655 S
C63 C65 1.384 . S
C63 H82 0.931 . S
C64 C63 1.384 1_455 S
C64 C67 1.382 . S
C65 C63 1.384 . S
C65 C66 1.381 1_655 S
C65 H83 0.930 . S
C66 C65 1.381 1_455 S
C66 C68 1.381 . S
C66 C69 1.487 . S
C67 C64 1.382 . S
C67 C68 1.387 . S
C67 H84 0.930 . S
C68 C66 1.381 . S
C68 C67 1.387 . S
C68 H85 0.931 . S
C69 C62 1.399 . S
C69 C66 1.487 . S
C69 N86 1.343 . S
H70 C42 0.931 . S
H71 C44 0.930 . S
H72 C46 0.930 . S
H73 C47 0.931 . S
H74 C49 0.931 . S
H75 C51 0.930 . S
H76 C53 0.930 . S
H77 C54 0.931 . S
H78 C56 0.931 . S
H79 C58 0.930 . S
H80 C60 0.930 . S
H81 C61 0.931 . S
H82 C63 0.931 . S
H83 C65 0.930 . S
H84 C67 0.930 . S
H85 C68 0.931 . S
N86 C48 1.343 . S
N86 C69 1.343 . S
N87 C55 1.343 . S
N87 C62 1.343 . S
C88 C89 1.384 . S
C88 C90 1.384 . S
C88 H116 0.931 . S
C89 C88 1.384 . S
C89 C92 1.382 1_545 S
C90 C88 1.384 . S
C90 C91 1.381 . S
C90 H117 0.930 . S
C91 C90 1.381 . S
C91 C93 1.381 1_545 S
C91 C94 1.487 . S
C92 C89 1.382 1_565 S
C92 C93 1.387 . S
C92 H118 0.930 . S
C93 C91 1.381 1_565 S
C93 C92 1.387 . S
C93 H119 0.931 . S
C94 C91 1.487 . S
C94 C101 1.399 . S
C94 N132 1.343 . S
C95 C96 1.384 1_565 S
C95 C97 1.384 . S
C95 H120 0.931 . S
C96 C95 1.384 1_545 S
C96 C99 1.382 . S
C97 C95 1.384 . S
C97 C98 1.381 1_565 S
C97 H121 0.930 . S
C98 C97 1.381 1_545 S
C98 C100 1.381 . S
C98 C101 1.487 . S
C99 C96 1.382 . S
C99 C100 1.387 . S
C99 H122 0.930 . S
C100 C98 1.381 . S
C100 C99 1.387 . S
C100 H123 0.931 . S
C101 C94 1.399 . S
C101 C98 1.487 . S
C101 N133 1.343 . S
C102 C103 1.384 1_565 S
C102 C104 1.384 . S
C102 H124 0.931 . S
C103 C102 1.384 1_545 S
C103 C106 1.382 . S
C104 C102 1.384 . S
C104 C105 1.381 1_565 S
C104 H125 0.930 . S
C105 C104 1.381 1_545 S
C105 C107 1.381 . S
C105 C108 1.487 . S
C106 C103 1.382 . S
C106 C107 1.387 . S
C106 H126 0.930 . S
C107 C105 1.381 . S
C107 C106 1.387 . S
C107 H127 0.931 . S
C108 C105 1.487 . S
C108 C115 1.399 . S
C108 N133 1.343 . S
C109 C110 1.384 . S
C109 C111 1.384 . S
C109 H128 0.931 . S
C110 C109 1.384 . S
C110 C113 1.382 1_545 S
C111 C109 1.384 . S
C111 C112 1.381 . S
C111 H129 0.930 . S
C112 C111 1.381 . S
C112 C114 1.381 1_545 S
C112 C115 1.487 . S
C113 C110 1.382 1_565 S
C113 C114 1.387 . S
C113 H130 0.930 . S
C114 C112 1.381 1_565 S
C114 C113 1.387 . S
C114 H131 0.931 . S
C115 C108 1.399 . S
C115 C112 1.487 . S
C115 N132 1.343 . S
H116 C88 0.931 . S
H117 C90 0.930 . S
H118 C92 0.930 . S
H119 C93 0.931 . S
H120 C95 0.931 . S
H121 C97 0.930 . S
H122 C99 0.930 . S
H123 C100 0.931 . S
H124 C102 0.931 . S
H125 C104 0.930 . S
H126 C106 0.930 . S
H127 C107 0.931 . S
H128 C109 0.931 . S
H129 C111 0.930 . S
H130 C113 0.930 . S
H131 C114 0.931 . S
N132 C94 1.343 . S
N132 C115 1.343 . S
N133 C101 1.343 . S
N133 C108 1.343 . S
C134 C135 1.384 . S
C134 C136 1.384 . S
C134 H162 0.931 . S
C135 C134 1.384 . S
C135 C138 1.382 . S
C136 C134 1.384 . S
C136 C137 1.381 . S
C136 H163 0.930 . S
C137 C136 1.381 . S
C137 C139 1.381 . S
C137 C140 1.487 . S
C138 C135 1.382 . S
C138 C139 1.387 . S
C138 H164 0.930 . S
C139 C137 1.381 . S
C139 C138 1.387 . S
C139 H165 0.931 . S
C140 C137 1.487 . S
C140 C147 1.399 . S
C140 N178 1.343 . S
C141 C142 1.384 . S
C141 C143 1.384 . S
C141 H166 0.931 . S
C142 C141 1.384 . S
C142 C145 1.382 . S
C143 C141 1.384 . S
C143 C144 1.381 . S
C143 H167 0.930 . S
C144 C143 1.381 . S
C144 C146 1.381 . S
C144 C147 1.487 . S
C145 C142 1.382 . S
C145 C146 1.387 . S
C145 H168 0.930 . S
C146 C144 1.381 . S
C146 C145 1.387 . S
C146 H169 0.931 . S
C147 C140 1.399 . S
C147 C144 1.487 . S
C147 N179 1.343 . S
C148 C149 1.384 . S
C148 C150 1.384 . S
C148 H170 0.931 . S
C149 C148 1.384 . S
C149 C152 1.382 . S
C150 C148 1.384 . S
C150 C151 1.381 . S
C150 H171 0.930 . S
C151 C150 1.381 . S
C151 C153 1.381 . S
C151 C154 1.487 . S
C152 C149 1.382 . S
C152 C153 1.387 . S
C152 H172 0.930 . S
C153 C151 1.381 . S
C153 C152 1.387 . S
C153 H173 0.931 . S
C154 C151 1.487 . S
C154 C161 1.399 . S
C154 N179 1.343 . S
C155 C156 1.384 . S
C155 C157 1.384 . S
C155 H174 0.931 . S
C156 C155 1.384 . S
C156 C159 1.382 . S
C157 C155 1.384 . S
C157 C158 1.381 . S
C157 H175 0.930 . S
C158 C157 1.381 . S
C158 C160 1.381 . S
C158 C161 1.487 . S
C159 C156 1.382 . S
C159 C160 1.387 . S
C159 H176 0.930 . S
C160 C158 1.381 . S
C160 C159 1.387 . S
C160 H177 0.931 . S
C161 C154 1.399 . S
C161 C158 1.487 . S
C161 N178 1.343 . S
H162 C134 0.931 . S
H163 C136 0.930 . S
H164 C138 0.930 . S
H165 C139 0.931 . S
H166 C141 0.931 . S
H167 C143 0.930 . S
H168 C145 0.930 . S
H169 C146 0.931 . S
H170 C148 0.931 . S
H171 C150 0.930 . S
H172 C152 0.930 . S
H173 C153 0.931 . S
H174 C155 0.931 . S
H175 C157 0.930 . S
H176 C159 0.930 . S
H177 C160 0.931 . S
N178 C140 1.343 . S
N178 C161 1.343 . S
N179 C147 1.343 . S
N179 C154 1.343 . S
C180 C181 1.363 1_655 S
C180 C186 1.379 . S
C180 N188 1.356 . S
C181 C180 1.363 1_455 S
C181 C187 1.363 . S
C182 C183 1.363 . S
C182 C187 1.379 . S
C182 N189 1.356 . S
C183 C182 1.363 . S
C183 C186 1.363 1_455 S
N184 C186 1.356 . S
N184 H196 0.984 . S
N184 H197 0.985 . S
N185 C187 1.356 . S
N185 H190 0.984 . S
N185 H191 0.985 . S
C186 C180 1.379 . S
C186 C183 1.363 1_655 S
C186 N184 1.356 . S
C187 C181 1.363 . S
C187 C182 1.379 . S
C187 N185 1.356 . S
N188 C180 1.356 . S
N188 H194 0.984 . S
N188 H195 0.984 . S
N189 C182 1.356 . S
N189 H192 0.984 . S
N189 H193 0.985 . S
H190 N185 0.984 . S
H191 N185 0.985 . S
H192 N189 0.984 . S
H193 N189 0.985 . S
H194 N188 0.984 . S
H195 N188 0.984 . S
H196 N184 0.984 . S
H197 N184 0.985 . S
C198 C199 1.363 1_565 S
C198 C204 1.379 . S
C198 N206 1.356 . S
C199 C198 1.363 1_545 S
C199 C205 1.363 . S
C200 C201 1.363 . S
C200 C205 1.379 . S
C200 N207 1.356 . S
C201 C200 1.363 . S
C201 C204 1.363 1_545 S
N202 C204 1.356 . S
N202 H214 0.984 . S
N202 H215 0.985 . S
N203 C205 1.356 . S
N203 H208 0.984 . S
N203 H209 0.985 1_655 S
C204 C198 1.379 . S
C204 C201 1.363 1_565 S
C204 N202 1.356 . S
C205 C199 1.363 . S
C205 C200 1.379 . S
C205 N203 1.356 . S
N206 C198 1.356 . S
N206 H212 0.984 . S
N206 H213 0.984 . S
N207 C200 1.356 . S
N207 H210 0.984 . S
N207 H211 0.985 . S
H208 N203 0.984 . S
H209 N203 0.985 1_455 S
H210 N207 0.984 . S
H211 N207 0.985 . S
H212 N206 0.984 . S
H213 N206 0.984 . S
H214 N202 0.984 . S
H215 N202 0.985 . S
C216 C217 1.363 . S
C216 C222 1.379 . S
C216 N224 1.356 . S
C217 C216 1.363 . S
C217 C223 1.363 . S
C218 C219 1.363 . S
C218 C223 1.379 . S
C218 N225 1.356 . S
C219 C218 1.363 . S
C219 C222 1.363 . S
N220 C222 1.356 . S
N220 H232 0.984 . S
N220 H233 0.985 . S
N221 C223 1.356 . S
N221 H226 0.984 . S
N221 H227 0.985 . S
C222 C216 1.379 . S
C222 C219 1.363 . S
C222 N220 1.356 . S
C223 C217 1.363 . S
C223 C218 1.379 . S
C223 N221 1.356 . S
N224 C216 1.356 . S
N224 H230 0.984 . S
N224 H231 0.984 . S
N225 C218 1.356 . S
N225 H228 0.984 . S
N225 H229 0.985 . S
H226 N221 0.984 . S
H227 N221 0.985 . S
H228 N225 0.984 . S
H229 N225 0.985 . S
H230 N224 0.984 . S
H231 N224 0.984 . S
H232 N220 0.984 . S
H233 N220 0.985 . S
C234 C235 1.363 . S
C234 C240 1.379 . S
C234 N242 1.356 . S
C235 C234 1.363 . S
C235 C241 1.363 1_455 S
C236 C237 1.363 1_655 S
C236 C241 1.379 . S
C236 N243 1.356 . S
C237 C236 1.363 1_455 S
C237 C240 1.363 . S
N238 C240 1.356 . S
N238 H250 0.984 . S
N238 H251 0.985 . S
N239 C241 1.356 . S
N239 H244 0.984 . S
N239 H245 0.985 . S
C240 C234 1.379 . S
C240 C237 1.363 . S
C240 N238 1.356 . S
C241 C235 1.363 1_655 S
C241 C236 1.379 . S
C241 N239 1.356 . S
N242 C234 1.356 . S
N242 H248 0.984 . S
N242 H249 0.984 . S
N243 C236 1.356 . S
N243 H246 0.984 . S
N243 H247 0.985 . S
H244 N239 0.984 . S
H245 N239 0.985 . S
H246 N243 0.984 . S
H247 N243 0.985 . S
H248 N242 0.984 . S
H249 N242 0.984 . S
H250 N238 0.984 . S
H251 N238 0.985 . S
C252 C253 1.363 1_565 S
C252 C258 1.379 . S
C252 N260 1.356 . S
C253 C252 1.363 1_545 S
C253 C259 1.363 . S
C254 C255 1.363 . S
C254 C259 1.379 . S
C254 N261 1.356 . S
C255 C254 1.363 . S
C255 C258 1.363 1_545 S
N256 C258 1.356 . S
N256 H268 0.984 . S
N256 H269 0.985 . S
N257 C259 1.356 . S
N257 H262 0.984 . S
N257 H263 0.985 . S
C258 C252 1.379 . S
C258 C255 1.363 1_565 S
C258 N256 1.356 . S
C259 C253 1.363 . S
C259 C254 1.379 . S
C259 N257 1.356 . S
N260 C252 1.356 . S
N260 H266 0.984 . S
N260 H267 0.984 . S
N261 C254 1.356 . S
N261 H264 0.984 . S
N261 H265 0.985 . S
H262 N257 0.984 . S
H263 N257 0.985 . S
H264 N261 0.984 . S
H265 N261 0.985 . S
H266 N260 0.984 . S
H267 N260 0.984 . S
H268 N256 0.984 . S
H269 N256 0.985 . S
C270 C271 1.363 . S
C270 C276 1.379 . S
C270 N278 1.356 . S
C271 C270 1.363 . S
C271 C277 1.363 . S
C272 C273 1.363 . S
C272 C277 1.379 . S
C272 N279 1.356 . S
C273 C272 1.363 . S
C273 C276 1.363 . S
N274 C276 1.356 . S
N274 H286 0.984 . S
N274 H287 0.985 . S
N275 C277 1.356 . S
N275 H280 0.984 . S
N275 H281 0.985 . S
C276 C270 1.379 . S
C276 C273 1.363 . S
C276 N274 1.356 . S
C277 C271 1.363 . S
C277 C272 1.379 . S
C277 N275 1.356 . S
N278 C270 1.356 . S
N278 H284 0.984 . S
N278 H285 0.984 . S
N279 C272 1.356 . S
N279 H282 0.984 . S
N279 H283 0.985 . S
H280 N275 0.984 . S
H281 N275 0.985 . S
H282 N279 0.984 . S
H283 N279 0.985 . S
H284 N278 0.984 . S
H285 N278 0.984 . S
H286 N274 0.984 . S
H287 N274 0.985 . S
C288 C289 1.363 . S
C288 C294 1.379 . S
C288 N296 1.356 . S
C289 C288 1.363 . S
C289 C295 1.363 1_545 S
C290 C291 1.363 1_565 S
C290 C295 1.379 . S
C290 N297 1.356 . S
C291 C290 1.363 1_545 S
C291 C294 1.363 . S
N292 C294 1.356 . S
N292 H304 0.984 . S
N292 H305 0.985 . S
N293 C295 1.356 . S
N293 H298 0.984 . S
N293 H299 0.985 . S
C294 C288 1.379 . S
C294 C291 1.363 . S
C294 N292 1.356 . S
C295 C289 1.363 1_565 S
C295 C290 1.379 . S
C295 N293 1.356 . S
N296 C288 1.356 . S
N296 H302 0.984 . S
N296 H303 0.984 . S
N297 C290 1.356 . S
N297 H300 0.984 . S
N297 H301 0.985 . S
H298 N293 0.984 . S
H299 N293 0.985 . S
H300 N297 0.984 . S
H301 N297 0.985 . S
H302 N296 0.984 . S
H303 N296 0.984 . S
H304 N292 0.984 . S
H305 N292 0.985 . S
C306 C307 1.363 . S
C306 C312 1.379 1_554 S
C306 N314 1.356 . S
C307 C306 1.363 . S
C307 C313 1.364 1_554 S
C308 C309 1.363 . S
C308 C313 1.379 . S
C308 N315 1.356 . S
C309 C308 1.363 . S
C309 C312 1.363 . S
N310 C312 1.356 . S
N310 H322 0.984 . S
N310 H323 0.985 . S
N311 C313 1.356 . S
N311 H316 0.984 1_565 S
N311 H317 0.985 1_565 S
C312 C306 1.379 1_556 S
C312 C309 1.363 . S
C312 N310 1.356 . S
C313 C307 1.364 1_556 S
C313 C308 1.379 . S
C313 N311 1.356 . S
N314 C306 1.356 . S
N314 H320 0.984 . S
N314 H321 0.984 . S
N315 C308 1.356 . S
N315 H318 0.984 . S
N315 H319 0.985 . S
H316 N311 0.984 1_545 S
H317 N311 0.985 1_545 S
H318 N315 0.984 . S
H319 N315 0.985 . S
H320 N314 0.984 . S
H321 N314 0.984 . S
H322 N310 0.984 . S
H323 N310 0.985 . S
C324 C325 1.363 . S
C324 C330 1.379 . S
C324 N332 1.356 . S
C325 C324 1.363 . S
C325 C331 1.363 . S
C326 C327 1.363 . S
C326 C331 1.379 . S
C326 N333 1.356 . S
C327 C326 1.363 . S
C327 C330 1.363 . S
N328 C330 1.356 . S
N328 H340 0.984 . S
N328 H341 0.985 . S
N329 C331 1.356 . S
N329 H334 0.984 . S
N329 H335 0.985 1_455 S
C330 C324 1.379 . S
C330 C327 1.363 . S
C330 N328 1.356 . S
C331 C325 1.363 . S
C331 C326 1.379 . S
C331 N329 1.356 . S
N332 C324 1.356 . S
N332 H338 0.984 . S
N332 H339 0.984 . S
N333 C326 1.356 . S
N333 H336 0.984 . S
N333 H337 0.985 1_455 S
H334 N329 0.984 . S
H335 N329 0.985 1_655 S
H336 N333 0.984 . S
H337 N333 0.985 1_655 S
H338 N332 0.984 . S
H339 N332 0.984 . S
H340 N328 0.984 . S
H341 N328 0.985 . S
C342 C343 1.363 . S
C342 C348 1.379 . S
C342 N350 1.356 . S
C343 C342 1.363 . S
C343 C349 1.363 1_545 S
C344 C345 1.363 1_565 S
C344 C349 1.379 . S
C344 N351 1.356 . S
C345 C344 1.363 1_545 S
C345 C348 1.363 . S
N346 C348 1.356 . S
N346 H358 0.984 . S
N346 H359 0.985 . S
N347 C349 1.356 . S
N347 H352 0.984 . S
N347 H353 0.985 . S
C348 C342 1.379 . S
C348 C345 1.363 . S
C348 N346 1.356 . S
C349 C343 1.363 1_565 S
C349 C344 1.379 . S
C349 N347 1.356 . S
N350 C342 1.356 . S
N350 H356 0.984 . S
N350 H357 0.984 . S
N351 C344 1.356 . S
N351 H354 0.984 . S
N351 H355 0.985 . S
H352 N347 0.984 . S
H353 N347 0.985 . S
H354 N351 0.984 . S
H355 N351 0.985 . S
H356 N350 0.984 . S
H357 N350 0.984 . S
H358 N346 0.984 . S
H359 N346 0.985 . S
C360 C361 1.363 . S
C360 C366 1.379 . S
C360 N368 1.356 . S
C361 C360 1.363 . S
C361 C367 1.363 . S
C362 C363 1.363 . S
C362 C367 1.379 . S
C362 N369 1.356 . S
C363 C362 1.363 . S
C363 C366 1.363 . S
N364 C366 1.356 . S
N364 H376 0.984 . S
N364 H377 0.985 . S
N365 C367 1.356 1_554 S
N365 H370 0.984 . S
N365 H371 0.985 . S
C366 C360 1.379 . S
C366 C363 1.363 . S
C366 N364 1.356 . S
C367 C361 1.363 . S
C367 C362 1.379 . S
C367 N365 1.356 1_556 S
N368 C360 1.356 . S
N368 H374 0.984 . S
N368 H375 0.984 1_556 S
N369 C362 1.356 . S
N369 H372 0.984 . S
N369 H373 0.985 . S
H370 N365 0.984 . S
H371 N365 0.985 . S
H372 N369 0.984 . S
H373 N369 0.985 . S
H374 N368 0.984 . S
H375 N368 0.984 1_554 S
H376 N364 0.984 . S
H377 N364 0.985 . S
C378 C379 1.363 . S
C378 C384 1.379 . S
C378 N386 1.356 1_455 S
C379 C378 1.363 . S
C379 C385 1.363 . S
C380 C381 1.363 . S
C380 C385 1.379 . S
C380 N387 1.356 . S
C381 C380 1.363 . S
C381 C384 1.363 . S
N382 C384 1.356 1_655 S
N382 H394 0.984 . S
N382 H395 0.985 . S
N383 C385 1.356 . S
N383 H388 0.984 . S
N383 H389 0.985 . S
C384 C378 1.379 . S
C384 C381 1.363 . S
C384 N382 1.356 1_455 S
C385 C379 1.363 . S
C385 C380 1.379 . S
C385 N383 1.356 . S
N386 C378 1.356 1_655 S
N386 H392 0.984 . S
N386 H393 0.984 1_655 S
N387 C380 1.356 . S
N387 H390 0.984 . S
N387 H391 0.985 . S
H388 N383 0.984 . S
H389 N383 0.985 . S
H390 N387 0.984 . S
H391 N387 0.985 . S
H392 N386 0.984 . S
H393 N386 0.984 1_455 S
H394 N382 0.984 . S
H395 N382 0.985 . S
C183 C50 1.497 . S
C181 C3 1.494 . S
C199 C21 1.507 . S
C201 C89 1.528 . S
C217 C37 1.486 . S
C219 C156 1.514 . S
C235 C8 1.502 . S
C237 C57 1.502 . S
C255 C110 1.512 . S
C253 C23 1.488 . S
C271 C35 1.484 . S
C273 C135 1.511 . S
C291 C96 1.493 . S
C289 C31 1.489 . S
C307 C7 1.484 . S
C309 C149 1.509 . S
C327 C64 1.498 . S
C325 C17 1.494 . S
C345 C103 1.478 . S
C343 C36 1.478 . S
C363 C142 1.511 . S
C361 C9 1.486 1_556 S
C379 C22 1.503 . S
C381 C43 1.501 . S
