# Generated by pormake.
# Topology apo, (3,6)-cn, num edge types: 1
# Building blocks:
#     Node 0, Type 0, BuildingBlock: BETDAH_clean_linker_0, # of connection points: 3
#     Node 1, Type 0, BuildingBlock: BETDAH_clean_linker_0, # of connection points: 3
#     Node 2, Type 0, BuildingBlock: BETDAH_clean_linker_0, # of connection points: 3
#     Node 3, Type 0, BuildingBlock: BETDAH_clean_linker_0, # of connection points: 3
#     Node 4, Type 0, BuildingBlock: BETDAH_clean_linker_0, # of connection points: 3
#     Node 5, Type 0, BuildingBlock: BETDAH_clean_linker_0, # of connection points: 3
#     Node 6, Type 0, BuildingBlock: BETDAH_clean_linker_0, # of connection points: 3
#     Node 7, Type 0, BuildingBlock: BETDAH_clean_linker_0, # of connection points: 3
#     Node 8, Type 1, BuildingBlock: KUMBUR_clean_sbu_1, # of connection points: 6
#     Node 9, Type 1, BuildingBlock: KUMBUR_clean_sbu_1, # of connection points: 6
#     Node 10, Type 1, BuildingBlock: KUMBUR_clean_sbu_1, # of connection points: 6
#     Node 11, Type 1, BuildingBlock: KUMBUR_clean_sbu_1, # of connection points: 6
#     Edge 12, Type (0, 1), BuildingBlock: KIFKEQ_clean_linker_1, # of connection points: 2
#     Edge 13, Type (0, 1), BuildingBlock: KIFKEQ_clean_linker_1, # of connection points: 2
#     Edge 14, Type (0, 1), BuildingBlock: KIFKEQ_clean_linker_1, # of connection points: 2
#     Edge 15, Type (0, 1), BuildingBlock: KIFKEQ_clean_linker_1, # of connection points: 2
#     Edge 16, Type (0, 1), BuildingBlock: KIFKEQ_clean_linker_1, # of connection points: 2
#     Edge 17, Type (0, 1), BuildingBlock: KIFKEQ_clean_linker_1, # of connection points: 2
#     Edge 18, Type (0, 1), BuildingBlock: KIFKEQ_clean_linker_1, # of connection points: 2
#     Edge 19, Type (0, 1), BuildingBlock: KIFKEQ_clean_linker_1, # of connection points: 2
#     Edge 20, Type (0, 1), BuildingBlock: KIFKEQ_clean_linker_1, # of connection points: 2
#     Edge 21, Type (0, 1), BuildingBlock: KIFKEQ_clean_linker_1, # of connection points: 2
#     Edge 22, Type (0, 1), BuildingBlock: KIFKEQ_clean_linker_1, # of connection points: 2
#     Edge 23, Type (0, 1), BuildingBlock: KIFKEQ_clean_linker_1, # of connection points: 2
#     Edge 24, Type (0, 1), BuildingBlock: KIFKEQ_clean_linker_1, # of connection points: 2
#     Edge 25, Type (0, 1), BuildingBlock: KIFKEQ_clean_linker_1, # of connection points: 2
#     Edge 26, Type (0, 1), BuildingBlock: KIFKEQ_clean_linker_1, # of connection points: 2
#     Edge 27, Type (0, 1), BuildingBlock: KIFKEQ_clean_linker_1, # of connection points: 2
#     Edge 28, Type (0, 1), BuildingBlock: KIFKEQ_clean_linker_1, # of connection points: 2
#     Edge 29, Type (0, 1), BuildingBlock: KIFKEQ_clean_linker_1, # of connection points: 2
#     Edge 30, Type (0, 1), BuildingBlock: KIFKEQ_clean_linker_1, # of connection points: 2
#     Edge 31, Type (0, 1), BuildingBlock: KIFKEQ_clean_linker_1, # of connection points: 2
#     Edge 32, Type (0, 1), BuildingBlock: KIFKEQ_clean_linker_1, # of connection points: 2
#     Edge 33, Type (0, 1), BuildingBlock: KIFKEQ_clean_linker_1, # of connection points: 2
#     Edge 34, Type (0, 1), BuildingBlock: KIFKEQ_clean_linker_1, # of connection points: 2
#     Edge 35, Type (0, 1), BuildingBlock: KIFKEQ_clean_linker_1, # of connection points: 2
# Relax obj value: 0.037
# Max RMSD: 0.220
# Mean RMSD: 0.155
data_MOF--net-apo--node1-KUMBUR_clean_sbu_1--node2-BETDAH_clean_linker_0--edge1-KIFKEQ_clean_linker_1
_symmetry_space_group_name_H-M    P1
_symmetry_Int_Tables_number       1
_symmetry_cell_setting            triclinic
loop_
_symmetry_equiv_pos_as_xyz
'x, y, z'
_cell_length_a     27.880802
_cell_length_b     42.731955
_cell_length_c     52.233957
_cell_angle_alpha  89.373212
_cell_angle_beta   90.082252
_cell_angle_gamma 90.301431
loop_
_atom_site_label
_atom_site_type_symbol
_atom_site_fract_x
_atom_site_fract_y
_atom_site_fract_z
_atom_type_partial_charge
H0 H 0.35925 0.44113 0.43055 0.0
H1 H 0.28981 0.38103 0.37577 0.0
H2 H 0.2876 0.35727 0.45596 0.0
C3 C 0.33823 0.42042 0.42631 0.0
C4 C 0.32497 0.40013 0.44643 0.0
C5 C 0.32564 0.41404 0.40072 0.0
C6 C 0.30002 0.38622 0.39529 0.0
C7 C 0.28644 0.3657 0.4154 0.0
C8 C 0.29904 0.37292 0.44065 0.0
N9 N 0.25901 0.33794 0.41173 0.0
C10 C 0.24493 0.32451 0.38873 0.0
H11 H 0.15646 0.08436 0.92469 0.0
H12 H 0.23793 0.1405 0.87094 0.0
H13 H 0.23826 0.16313 0.95103 0.0
C14 C 0.17985 0.10418 0.92068 0.0
C15 C 0.19483 0.12325 0.94086 0.0
C16 C 0.19552 0.10993 0.89546 0.0
C17 C 0.22549 0.13598 0.89027 0.0
C18 C 0.24119 0.15507 0.91054 0.0
C19 C 0.22604 0.14831 0.93558 0.0
N20 N 0.27392 0.18039 0.90721 0.0
C21 C 0.28567 0.19588 0.88447 0.0
H22 H 0.85667 0.09744 0.5938 0.0
H23 H 0.77847 0.14534 0.65297 0.0
H24 H 0.7611 0.17236 0.57421 0.0
C25 C 0.83202 0.11548 0.5997 0.0
C26 C 0.8116 0.1351 0.58094 0.0
C27 C 0.82056 0.11882 0.62589 0.0
C28 C 0.78778 0.14231 0.63303 0.0
C29 C 0.76644 0.16156 0.61421 0.0
C30 C 0.77842 0.15768 0.58849 0.0
N31 N 0.73115 0.18429 0.6198 0.0
C32 C 0.72242 0.19792 0.64337 0.0
H33 H 0.64086 0.41821 0.09815 0.0
H34 H 0.73776 0.37925 0.15481 0.0
H35 H 0.7152 0.33284 0.08342 0.0
C36 C 0.66642 0.40067 0.10429 0.0
C37 C 0.67592 0.37573 0.08783 0.0
C38 C 0.68841 0.40256 0.12864 0.0
C39 C 0.71983 0.37828 0.13645 0.0
C40 C 0.72883 0.35296 0.12011 0.0
C41 C 0.70707 0.35209 0.09603 0.0
N42 N 0.76001 0.32787 0.12649 0.0
C43 C 0.7834 0.32237 0.14961 0.0
H44 H 0.6552 0.58584 0.59865 0.0
H45 H 0.7258 0.64743 0.65181 0.0
H46 H 0.71806 0.67192 0.57167 0.0
C47 C 0.67473 0.60731 0.60247 0.0
C48 C 0.68485 0.62804 0.58224 0.0
C49 C 0.6897 0.61392 0.62756 0.0
C50 C 0.71459 0.64208 0.63248 0.0
C51 C 0.72507 0.66302 0.61213 0.0
C52 C 0.71023 0.65569 0.58723 0.0
N53 N 0.74956 0.69196 0.61549 0.0
C54 C 0.77281 0.70232 0.63745 0.0
H55 H 0.87459 0.93941 0.09805 0.0
H56 H 0.79968 0.85621 0.07557 0.0
H57 H 0.80027 0.88303 0.15473 0.0
C58 C 0.8525 0.91931 0.10306 0.0
C59 C 0.83962 0.91378 0.12883 0.0
C60 C 0.83843 0.89863 0.08379 0.0
C61 C 0.81054 0.87245 0.09033 0.0
C62 C 0.79593 0.86684 0.1156 0.0
C63 C 0.81028 0.88765 0.13501 0.0
N64 N 0.76836 0.83927 0.12018 0.0
C65 C 0.74576 0.82969 0.14269 0.0
H66 H 0.17657 0.93386 0.42514 0.0
H67 H 0.24318 0.875 0.36893 0.0
H68 H 0.22779 0.84252 0.44656 0.0
C69 C 0.19394 0.91211 0.42021 0.0
C70 C 0.20051 0.88892 0.43913 0.0
C71 C 0.20917 0.90731 0.39484 0.0
C72 C 0.23145 0.87888 0.3884 0.0
C73 C 0.2388 0.85577 0.40741 0.0
C74 C 0.22306 0.86096 0.43238 0.0
N75 N 0.26131 0.82667 0.40279 0.0
C76 C 0.28074 0.81609 0.38 0.0
H77 H 0.3594 0.59475 0.92539 0.0
H78 H 0.25212 0.65968 0.94955 0.0
H79 H 0.26675 0.63934 0.86967 0.0
C80 C 0.33123 0.61119 0.9206 0.0
C81 C 0.31626 0.61498 0.89492 0.0
C82 C 0.3084 0.62717 0.94045 0.0
C83 C 0.27024 0.6472 0.93444 0.0
C84 C 0.2557 0.65215 0.90909 0.0
C85 C 0.27872 0.63605 0.88924 0.0
N86 N 0.21592 0.67212 0.90475 0.0
C87 C 0.20797 0.69035 0.88295 0.0
Tb88 Tb 0.07173 0.12428 0.2349 0.0
C89 C 0.8885 0.0736 0.27927 0.0
N90 N 0.9028 0.10384 0.27616 0.0
C91 C 0.82796 0.11625 0.25585 0.0
C92 C 0.84381 0.0632 0.26994 0.0
C93 C 0.87288 0.12539 0.2652 0.0
C94 C 0.81347 0.08498 0.25807 0.0
C95 C 0.90665 0.02123 0.29441 0.0
C96 C 0.91964 0.05298 0.29124 0.0
C97 C 0.86257 0.01052 0.28469 0.0
C98 C 0.83117 0.03147 0.27253 0.0
Tb99 Tb 0.97588 0.11655 0.29291 0.0
N100 N 0.96206 0.06422 0.30032 0.0
C101 C 0.93786 1.00139 0.30776 0.0
C102 C 0.99046 0.04547 0.31523 0.0
C103 C 0.97956 0.0137 0.31859 0.0
H104 H 0.88342 0.14965 0.26391 0.0
H105 H 1.00282 0.9989 0.33002 0.0
H106 H 0.14885 0.06483 0.23944 0.0
H107 H 0.10601 0.24704 0.21739 0.0
H108 H 0.02058 0.05499 0.32546 0.0
H109 H 0.92924 0.97684 0.31061 0.0
H110 H 0.05791 0.19812 0.21704 0.0
H111 H 0.80449 0.13334 0.24701 0.0
H112 H 0.85213 0.98617 0.28679 0.0
H113 H 0.79715 0.02293 0.26529 0.0
H114 H 0.2337 0.05769 0.25149 0.0
H115 H 0.77878 0.07793 0.25067 0.0
H116 H 0.18991 0.24603 0.23302 0.0
N117 N 0.15086 0.11438 0.24339 0.0
C118 C 0.17951 0.13998 0.24576 0.0
C119 C 0.21874 0.08099 0.25035 0.0
C120 C 0.22861 0.13713 0.25174 0.0
C121 C 0.1704 0.0851 0.244 0.0
C122 C 0.2478 0.10712 0.25474 0.0
N123 N 0.1133 0.17045 0.2335 0.0
C124 C 0.09439 0.19767 0.22396 0.0
C125 C 0.18915 0.19612 0.24067 0.0
C126 C 0.1602 0.16902 0.24029 0.0
C127 C 0.1689 0.22463 0.23297 0.0
C128 C 0.12154 0.2253 0.22413 0.0
H129 H 0.28536 0.10389 0.25936 0.0
H130 H 0.29488 0.16256 0.25844 0.0
H131 H 0.26025 0.21427 0.24877 0.0
O132 O 0.03781 0.12482 0.19883 0.0
O133 O 0.06936 0.16148 0.26357 0.0
O134 O 0.04405 0.14001 0.30211 0.0
O135 O 0.11332 0.11678 0.20197 0.0
O136 O 1.00263 0.14877 0.23106 0.0
O137 O 0.97305 0.16091 0.27149 0.0
O138 O 0.95947 0.10822 0.33167 0.0
O139 O 0.963 0.10029 0.25338 0.0
O140 O 0.03387 0.07995 0.2403 0.0
O141 O 0.93543 0.15009 0.31281 0.0
O142 O 0.04864 0.09885 0.30035 0.0
O143 O 0.07755 0.08335 0.2609 0.0
C144 C 0.07034 0.1599 0.28866 0.0
C145 C 0.07387 0.09361 0.16722 0.0
C146 C 0.08577 0.07735 0.12289 0.0
C147 C 0.07181 0.04675 0.13008 0.0
C148 C 0.06038 0.063 0.17395 0.0
C149 C 0.05903 0.03975 0.15539 0.0
C150 C 0.0862 0.10073 0.14175 0.0
C151 C 0.97701 0.16631 0.24662 0.0
C152 C 0.07694 0.11828 0.18655 0.0
C153 C 0.2572 0.16422 0.25356 0.0
C154 C 0.2375 0.19367 0.24801 0.0
C155 C 0.98714 0.07791 0.24229 0.0
C156 C 0.88881 0.13028 0.34773 0.0
C157 C 0.84662 0.12513 0.38869 0.0
C158 C 0.80301 0.12274 0.37522 0.0
C159 C 0.84489 0.12792 0.33478 0.0
C160 C 0.88946 0.12886 0.37465 0.0
C161 C 0.80229 0.12413 0.34849 0.0
C162 C 0.07779 0.0821 0.28616 0.0
C163 C 0.93464 0.13358 0.33389 0.0
H164 H 0.07171 0.028 0.11632 0.0
H165 H 0.0514 0.05706 0.19354 0.0
H166 H 0.04865 0.01611 0.16071 0.0
H167 H 0.09609 0.12457 0.13672 0.0
H168 H 0.7693 0.12034 0.38534 0.0
H169 H 0.84334 0.12906 0.31416 0.0
H170 H 0.92351 0.1303 0.38463 0.0
H171 H 0.7685 0.12241 0.33835 0.0
Tb172 Tb 0.46027 0.4043 0.73488 0.0
C173 C 0.65978 0.42315 0.77444 0.0
N174 N 0.63239 0.39689 0.77696 0.0
C175 C 0.69815 0.36594 0.76194 0.0
C176 C 0.70653 0.42207 0.76424 0.0
C177 C 0.65243 0.36825 0.77274 0.0
C178 C 0.72494 0.39306 0.75711 0.0
C179 C 0.6709 0.47804 0.78429 0.0
C180 C 0.64244 0.45072 0.78429 0.0
C181 C 0.71639 0.47759 0.77278 0.0
C182 C 0.73413 0.44965 0.7627 0.0
Tb183 Tb 0.55649 0.40431 0.79293 0.0
N184 N 0.59798 0.45035 0.79481 0.0
C185 C 0.65322 0.50462 0.7965 0.0
C186 C 0.5817 0.4755 0.80812 0.0
C187 C 0.60877 0.50316 0.80887 0.0
H188 H 0.63371 0.34698 0.77801 0.0
H189 H 0.59531 0.52332 0.81889 0.0
H190 H 0.36408 0.435 0.76054 0.0
H191 H 0.48391 0.29612 0.68315 0.0
H192 H 0.54743 0.47429 0.81767 0.0
H193 H 0.67404 0.52609 0.79701 0.0
H194 H 0.50297 0.3505 0.69449 0.0
H195 H 0.71309 0.3432 0.75787 0.0
H196 H 0.73864 0.49845 0.77224 0.0
H197 H 0.76992 0.44937 0.75465 0.0
H198 H 0.2824 0.41756 0.77292 0.0
H199 H 0.76067 0.39118 0.74916 0.0
H200 H 0.40995 0.27089 0.69971 0.0
N201 N 0.3845 0.3904 0.74678 0.0
C202 C 0.37024 0.3609 0.7411 0.0
C203 C 0.30691 0.40131 0.76417 0.0
C204 C 0.32425 0.34983 0.74783 0.0
C205 C 0.35315 0.41109 0.75725 0.0
C206 C 0.2926 0.37041 0.75976 0.0
N207 N 0.44422 0.35484 0.72027 0.0
C208 C 0.4722 0.33927 0.70317 0.0
C209 C 0.38804 0.31165 0.72091 0.0
C210 C 0.40169 0.34221 0.72787 0.0
C211 C 0.41902 0.29448 0.70547 0.0
C212 C 0.46084 0.30861 0.69614 0.0
H213 H 0.25686 0.36285 0.76522 0.0
H214 H 0.27633 0.30973 0.74741 0.0
H215 H 0.33226 0.27622 0.7238 0.0
O216 O 0.43458 0.4051 0.69649 0.0
O217 O 0.44049 0.38568 0.773 0.0
O218 O 0.50904 0.36337 0.78927 0.0
O219 O 0.43889 0.44748 0.71913 0.0
O220 O 0.53087 0.38217 0.72907 0.0
O221 O 0.55347 0.36247 0.76864 0.0
O222 O 0.53599 0.40839 0.83151 0.0
O223 O 0.55128 0.44423 0.76579 0.0
O224 O 0.53402 0.41959 0.72852 0.0
O225 O 0.60333 0.38805 0.82174 0.0
O226 O 0.48765 0.42696 0.80024 0.0
O227 O 0.45569 0.44423 0.76132 0.0
C228 C 0.46221 0.36324 0.78586 0.0
C229 C 0.40828 0.45395 0.67575 0.0
C230 C 0.38817 0.46078 0.63033 0.0
C231 C 0.37411 0.49167 0.63539 0.0
C232 C 0.39408 0.48493 0.68012 0.0
C233 C 0.37696 0.50354 0.66008 0.0
C234 C 0.40479 0.4418 0.65077 0.0
C235 C 0.55255 0.36092 0.74345 0.0
C236 C 0.42764 0.4351 0.6973 0.0
C237 C 0.31127 0.31888 0.74209 0.0
C238 C 0.34319 0.29978 0.72871 0.0
C239 C 0.55312 0.44315 0.74071 0.0
C240 C 0.56599 0.36973 0.85943 0.0
C241 C 0.56886 0.3523 0.90415 0.0
C242 C 0.55082 0.32295 0.8966 0.0
C243 C 0.54815 0.34036 0.85233 0.0
C244 C 0.57615 0.37566 0.88527 0.0
C245 C 0.54048 0.31713 0.87088 0.0
C246 C 0.46168 0.44662 0.7864 0.0
C247 C 0.57405 0.39451 0.84019 0.0
H248 H 0.36043 0.50664 0.62022 0.0
H249 H 0.3962 0.49485 0.69909 0.0
H250 H 0.36595 0.52734 0.6637 0.0
H251 H 0.41608 0.41804 0.64712 0.0
H252 H 0.54546 0.30425 0.91047 0.0
H253 H 0.5404 0.33539 0.83248 0.0
H254 H 0.58933 0.39858 0.89062 0.0
H255 H 0.5268 0.29445 0.8653 0.0
Tb256 Tb 0.05547 0.90437 0.73287 0.0
C257 C 0.84717 0.88196 0.77512 0.0
N258 N 0.87324 0.90882 0.77676 0.0
C259 C 0.8033 0.93897 0.76651 0.0
C260 C 0.79814 0.88252 0.76855 0.0
C261 C 0.85191 0.9372 0.77299 0.0
C262 C 0.77633 0.91151 0.76413 0.0
C263 C 0.84467 0.82527 0.77767 0.0
C264 C 0.87014 0.85373 0.77957 0.0
C265 C 0.79584 0.82565 0.77101 0.0
C266 C 0.77263 0.85421 0.76646 0.0
Tb267 Tb 0.9525 0.90295 0.78663 0.0
N268 N 0.91791 0.85424 0.78496 0.0
C269 C 0.86914 0.7973 0.7824 0.0
C270 C 0.94114 0.82713 0.79108 0.0
C271 C 0.91743 0.79829 0.78946 0.0
H272 H 0.87204 0.95856 0.77551 0.0
H273 H 0.93633 0.77684 0.79391 0.0
H274 H 0.13224 0.84643 0.74431 0.0
H275 H 0.0794 0.02983 0.72592 0.0
H276 H 0.97751 0.82746 0.79772 0.0
H277 H 0.85092 0.77491 0.78108 0.0
H278 H 0.03483 0.98026 0.72242 0.0
H279 H 0.78661 0.96152 0.76347 0.0
H280 H 0.77573 0.80401 0.7693 0.0
H281 H 0.73496 0.85414 0.76133 0.0
H282 H 0.21705 0.84123 0.75703 0.0
H283 H 0.7387 0.91296 0.75905 0.0
H284 H 0.16487 0.02944 0.73874 0.0
N285 N 0.13397 0.89619 0.7434 0.0
C286 C 0.16166 0.92236 0.74516 0.0
C287 C 0.20181 0.86421 0.75396 0.0
C288 C 0.21051 0.9205 0.75194 0.0
C289 C 0.15351 0.86726 0.74716 0.0
C290 C 0.23039 0.89095 0.75652 0.0
N291 N 0.09296 0.95202 0.73485 0.0
C292 C 0.0714 0.9797 0.72877 0.0
C293 C 0.16788 0.97896 0.74234 0.0
C294 C 0.14065 0.95121 0.74043 0.0
C295 C 0.14525 1.00756 0.73743 0.0
C296 C 0.09693 1.00788 0.73035 0.0
H297 H 0.2678 0.8885 0.76178 0.0
H298 H 0.27536 0.94716 0.75927 0.0
H299 H 0.23802 0.99834 0.75088 0.0
O300 O 0.04491 0.91905 0.69471 0.0
O301 O 0.07053 0.92611 0.77025 0.0
O302 O 0.99872 0.94447 0.78586 0.0
O303 O 0.09697 0.88384 0.70399 0.0
O304 O 0.98668 0.92766 0.72508 0.0
O305 O 0.95511 0.94589 0.76311 0.0
O306 O 0.9607 0.88737 0.82466 0.0
O307 O 0.93646 0.88275 0.74879 0.0
O308 O 0.00771 0.86337 0.73325 0.0
O309 O 0.91336 0.92529 0.81572 0.0
O310 O 0.02241 0.88032 0.7943 0.0
O311 O 0.04959 0.86153 0.75568 0.0
C312 C 0.04566 0.94595 0.78391 0.0
C313 C 0.0603 0.88119 0.66344 0.0
C314 C 0.06392 0.87192 0.61735 0.0
C315 C 0.03195 0.84656 0.62069 0.0
C316 C 0.02844 0.85593 0.66627 0.0
C317 C 0.01429 0.83876 0.64497 0.0
C318 C 0.07772 0.88922 0.63901 0.0
C319 C 0.96072 0.94776 0.73802 0.0
C320 C 0.07591 0.89936 0.6857 0.0
C321 C 0.23779 0.9481 0.754 0.0
C322 C 0.21654 0.97726 0.74921 0.0
C323 C 0.96058 0.86276 0.73486 0.0
C324 C 0.95155 0.92555 0.85619 0.0
C325 C 0.95273 0.93432 0.90234 0.0
C326 C 0.99261 0.95422 0.89912 0.0
C327 C 0.99129 0.94552 0.85345 0.0
C328 C 0.93195 0.92024 0.88068 0.0
C329 C 0.01149 0.95994 0.87477 0.0
C330 C 0.04803 0.86049 0.78083 0.0
C331 C 0.93251 0.90857 0.83394 0.0
H332 H 0.0212 0.83232 0.60463 0.0
H333 H 0.01479 0.84942 0.68492 0.0
H334 H 0.98988 0.81916 0.64732 0.0
H335 H 0.10181 0.90908 0.63694 0.0
H336 H 0.00909 0.96539 0.91547 0.0
H337 H 0.00713 0.94955 0.83491 0.0
H338 H 0.90167 0.90444 0.88299 0.0
H339 H 0.04226 0.97526 0.87244 0.0
Tb340 Tb 0.46519 0.61805 0.23315 0.0
C341 C 0.67738 0.63024 0.27803 0.0
N342 N 0.64656 0.60546 0.27845 0.0
C343 C 0.71117 0.57074 0.26868 0.0
C344 C 0.72639 0.62626 0.27249 0.0
C345 C 0.66284 0.57583 0.27435 0.0
C346 C 0.74306 0.59606 0.26762 0.0
C347 C 0.69009 0.68612 0.28275 0.0
C348 C 0.65956 0.65976 0.28313 0.0
C349 C 0.73896 0.68233 0.27712 0.0
C350 C 0.75706 0.65248 0.272 0.0
Tb351 Tb 0.56858 0.61709 0.28737 0.0
N352 N 0.61164 0.6627 0.28738 0.0
C353 C 0.67043 0.71549 0.28783 0.0
C354 C 0.59266 0.69104 0.29353 0.0
C355 C 0.6216 0.7179 0.29346 0.0
H356 H 0.63881 0.55599 0.27589 0.0
H357 H 0.60626 0.74042 0.29784 0.0
H358 H 0.37486 0.6501 0.26421 0.0
H359 H 0.48607 0.50358 0.19081 0.0
H360 H 0.5553 0.69312 0.29835 0.0
H361 H 0.69266 0.73636 0.28766 0.0
H362 H 0.50501 0.55922 0.19663 0.0
H363 H 0.72388 0.54725 0.26531 0.0
H364 H 0.76301 0.70233 0.27663 0.0
H365 H 0.79484 0.64992 0.26771 0.0
H366 H 0.29632 0.63305 0.28163 0.0
H367 H 0.78048 0.59201 0.26326 0.0
H368 H 0.41489 0.48022 0.21198 0.0
N369 N 0.39267 0.60499 0.25042 0.0
C370 C 0.37815 0.5749 0.24699 0.0
C371 C 0.3191 0.61645 0.27203 0.0
C372 C 0.33394 0.56411 0.25678 0.0
C373 C 0.36355 0.62602 0.26223 0.0
C374 C 0.30436 0.58532 0.26945 0.0
N375 N 0.45046 0.56638 0.22449 0.0
C376 C 0.47624 0.54892 0.20765 0.0
C377 C 0.39471 0.52342 0.23027 0.0
C378 C 0.40852 0.55481 0.23414 0.0
C379 C 0.42419 0.50447 0.21541 0.0
C380 C 0.46456 0.5175 0.20358 0.0
H381 H 0.27008 0.57792 0.27725 0.0
H382 H 0.28729 0.52372 0.26139 0.0
H383 H 0.34031 0.48814 0.23801 0.0
O384 O 0.45477 0.61573 0.19255 0.0
O385 O 0.45292 0.59997 0.27263 0.0
O386 O 0.52267 0.57578 0.28392 0.0
O387 O 0.41353 0.64697 0.21639 0.0
O388 O 0.53701 0.59987 0.22349 0.0
O389 O 0.56155 0.57749 0.26158 0.0
O390 O 0.54725 0.62519 0.3254 0.0
O391 O 0.58452 0.64593 0.25335 0.0
O392 O 0.51584 0.65721 0.22946 0.0
O393 O 0.61055 0.5986 0.31729 0.0
O394 O 0.50338 0.6446 0.29452 0.0
O395 O 0.46867 0.66037 0.25594 0.0
C396 C 0.47566 0.57671 0.28388 0.0
C397 C 0.39491 0.64975 0.17124 0.0
C398 C 0.37523 0.65107 0.12563 0.0
C399 C 0.34647 0.67741 0.12966 0.0
C400 C 0.36549 0.67602 0.17473 0.0
C401 C 0.34149 0.68967 0.15408 0.0
C402 C 0.39938 0.63706 0.14651 0.0
C403 C 0.56358 0.57975 0.23651 0.0
C404 C 0.42166 0.637 0.1935 0.0
C405 C 0.32092 0.53257 0.25378 0.0
C406 C 0.35125 0.51227 0.24059 0.0
C407 C 0.56092 0.66218 0.23596 0.0
C408 C 0.57134 0.58744 0.3562 0.0
C409 C 0.57654 0.57484 0.40198 0.0
C410 C 0.55612 0.54528 0.39687 0.0
C411 C 0.551 0.55801 0.35161 0.0
C412 C 0.58337 0.59592 0.3813 0.0
C413 C 0.54313 0.53714 0.37193 0.0
C414 C 0.4761 0.6635 0.28065 0.0
C415 C 0.58267 0.60918 0.33506 0.0
H416 H 0.32757 0.6884 0.11383 0.0
H417 H 0.36136 0.68636 0.19344 0.0
H418 H 0.31913 0.70995 0.157 0.0
H419 H 0.42186 0.61684 0.14343 0.0
H420 H 0.55105 0.52807 0.41199 0.0
H421 H 0.54198 0.55107 0.33234 0.0
H422 H 0.59826 0.61901 0.38456 0.0
H423 H 0.52768 0.51432 0.36827 0.0
H424 H 0.15883 0.90266 0.35015 0.0
H425 H 0.23856 0.96802 0.39612 0.0
H426 H 0.13344 0.94542 0.32186 0.0
H427 H 0.21563 0.01064 0.36729 0.0
H428 H 0.11018 0.08259 0.33529 0.0
H429 H 0.14766 0.04025 0.35915 0.0
H430 H 0.14989 0.98418 0.29073 0.0
H431 H 0.10941 0.02615 0.26728 0.0
C432 C 0.17195 0.92612 0.35373 0.0
C433 C 0.20034 0.93214 0.37535 0.0
C434 C 0.15758 0.95069 0.3375 0.0
C435 C 0.17188 0.98178 0.34236 0.0
C436 C 0.20271 0.98728 0.36324 0.0
C437 C 0.21631 0.96283 0.37966 0.0
C438 C 0.11908 0.06132 0.32528 0.0
C439 C 0.10678 0.05777 0.29939 0.0
C440 C 0.14105 0.03701 0.33893 0.0
C441 C 0.15204 0.00853 0.32699 0.0
C442 C 0.14145 1.0055 0.30074 0.0
C443 C 0.11891 0.02979 0.28714 0.0
H444 H 0.27142 0.58489 0.85511 0.0
H445 H 0.41096 0.60008 0.88898 0.0
H446 H 0.3061 0.54627 0.8263 0.0
H447 H 0.4451 0.56117 0.86063 0.0
H448 H 0.46615 0.45905 0.83751 0.0
H449 H 0.4319 0.50262 0.86027 0.0
H450 H 0.36857 0.53729 0.79015 0.0
H451 H 0.40374 0.49345 0.76683 0.0
C452 C 0.30961 0.58054 0.85607 0.0
C453 C 0.33824 0.59528 0.87467 0.0
C454 C 0.32941 0.55834 0.83959 0.0
C455 C 0.37813 0.55033 0.84151 0.0
C456 C 0.40722 0.5664 0.85906 0.0
C457 C 0.3876 0.58866 0.87533 0.0
C458 C 0.44512 0.47586 0.82672 0.0
C459 C 0.4382 0.47272 0.80017 0.0
C460 C 0.42564 0.50101 0.83985 0.0
C461 C 0.39808 0.52363 0.82697 0.0
C462 C 0.38979 0.52022 0.80056 0.0
C463 C 0.40996 0.49512 0.78724 0.0
H464 H 0.71769 0.55337 0.63028 0.0
H465 H 0.63487 0.62219 0.6703 0.0
H466 H 0.68894 0.51267 0.65959 0.0
H467 H 0.60404 0.5813 0.69919 0.0
H468 H 0.57661 0.50222 0.75673 0.0
H469 H 0.61664 0.5438 0.73242 0.0
H470 H 0.61707 0.48476 0.66574 0.0
H471 H 0.5802 0.44275 0.69058 0.0
C472 C 0.69368 0.55976 0.64563 0.0
C473 C 0.67847 0.59083 0.6481 0.0
C474 C 0.67668 0.53641 0.66226 0.0
C475 C 0.64329 0.54343 0.68153 0.0
C476 C 0.6299 0.57493 0.68474 0.0
C477 C 0.64752 0.59843 0.66823 0.0
C478 C 0.58639 0.49791 0.73709 0.0
C479 C 0.57621 0.4689 0.72583 0.0
C480 C 0.60867 0.52196 0.72297 0.0
C481 C 0.62067 0.51773 0.69707 0.0
C482 C 0.60964 0.48878 0.68577 0.0
C483 C 0.58788 0.4647 0.69996 0.0
H484 H 0.93225 0.9324 0.13461 0.0
H485 H 0.79196 0.94286 0.16812 0.0
H486 H 0.96498 0.97044 0.1643 0.0
H487 H 0.82508 0.98102 0.19842 0.0
H488 H 0.8975 0.07788 0.2205 0.0
H489 H 0.8592 0.03569 0.19641 0.0
H490 H 0.98305 0.97744 0.20971 0.0
H491 H 0.02076 0.01937 0.23403 0.0
C492 C 0.90844 0.94271 0.14851 0.0
C493 C 0.85943 0.93477 0.14889 0.0
C494 C 0.9273 0.96435 0.16571 0.0
C495 C 0.89771 0.97881 0.1838 0.0
C496 C 0.84876 0.97045 0.1846 0.0
C497 C 0.82988 0.94844 0.16743 0.0
C498 C 0.91599 0.05581 0.21872 0.0
C499 C 0.96209 0.05192 0.22915 0.0
C500 C 0.8941 0.03163 0.2049 0.0
C501 C 0.91817 1.00322 0.20096 0.0
C502 C 0.96375 0.99915 0.21207 0.0
C503 C 0.98537 0.02316 0.226 0.0
H504 H 0.77779 0.09223 0.66854 0.0
H505 H 0.91222 0.0958 0.62745 0.0
H506 H 0.8111 0.05252 0.69757 0.0
H507 H 0.94443 0.05549 0.65583 0.0
H508 H 0.95437 0.95422 0.68612 0.0
H509 H 0.92131 0.9975 0.66141 0.0
H510 H 0.88111 0.04365 0.73115 0.0
H511 H 0.91586 1.00055 0.75627 0.0
C512 C 0.81457 0.08497 0.66587 0.0
C513 C 0.84198 0.097 0.64532 0.0
C514 C 0.83354 0.06213 0.68247 0.0
C515 C 0.8801 0.05061 0.67872 0.0
C516 C 0.9081 0.0635 0.65889 0.0
C517 C 0.88947 0.08653 0.64254 0.0
C518 C 0.93853 0.97348 0.69636 0.0
C519 C 0.93755 0.97363 0.7233 0.0
C520 C 0.9197 0.99837 0.68212 0.0
C521 C 0.89883 0.02402 0.69434 0.0
C522 C 0.89674 0.02406 0.72124 0.0
C523 C 0.91638 0.99926 0.73559 0.0
H524 H 0.68412 0.40402 0.18155 0.0
H525 H 0.66881 0.46348 0.11457 0.0
H526 H 0.66266 0.44755 0.20853 0.0
H527 H 0.6417 0.50556 0.14105 0.0
H528 H 0.61692 0.58593 0.19301 0.0
H529 H 0.65507 0.54453 0.16872 0.0
H530 H 0.60042 0.47593 0.22311 0.0
H531 H 0.56638 0.51778 0.24822 0.0
C532 C 0.67621 0.42628 0.17246 0.0
C533 C 0.67768 0.42972 0.14564 0.0
C534 C 0.66285 0.45131 0.18801 0.0
C535 C 0.64941 0.48039 0.17723 0.0
C536 C 0.65213 0.48396 0.15044 0.0
C537 C 0.66675 0.45928 0.13501 0.0
C538 C 0.61388 0.56195 0.19981 0.0
C539 C 0.58889 0.555 0.22243 0.0
C540 C 0.63526 0.53803 0.18577 0.0
C541 C 0.63071 0.50638 0.19354 0.0
C542 C 0.60599 0.49976 0.21653 0.0
C543 C 0.58603 0.52379 0.23095 0.0
H544 H 0.31905 0.4777 0.40202 0.0
H545 H 0.36425 0.40257 0.3532 0.0
H546 H 0.35166 0.51583 0.37189 0.0
H547 H 0.39538 0.44101 0.32221 0.0
H548 H 0.50327 0.5166 0.2933 0.0
H549 H 0.46201 0.47669 0.31885 0.0
H550 H 0.34502 0.5407 0.33129 0.0
H551 H 0.38785 0.58107 0.30691 0.0
C552 C 0.33552 0.46931 0.38464 0.0
C553 C 0.33963 0.437 0.38025 0.0
C554 C 0.35379 0.49128 0.36714 0.0
C555 C 0.37654 0.48166 0.34456 0.0
C556 C 0.37879 0.44932 0.33957 0.0
C557 C 0.36044 0.42725 0.35718 0.0
C558 C 0.46869 0.5221 0.30149 0.0
C559 C 0.44877 0.552 0.29806 0.0
C560 C 0.4447 0.49906 0.31591 0.0
C561 C 0.40002 0.5053 0.32724 0.0
C562 C 0.3796 0.53506 0.32319 0.0
C563 C 0.40384 0.55816 0.30893 0.0
H564 H 0.20735 0.047 0.8962 0.0
H565 H 0.15075 0.12217 0.8496 0.0
H566 H 0.17476 0.00877 0.86647 0.0
H567 H 0.11796 0.08371 0.8195 0.0
H568 H 0.01028 1.00251 0.79857 0.0
H569 H 0.05173 0.04363 0.8222 0.0
H570 H 0.18127 0.98868 0.8223 0.0
H571 H 0.13957 0.94731 0.79911 0.0
C572 C 0.18849 0.05531 0.87931 0.0
C573 C 0.18138 0.08752 0.87523 0.0
C574 C 0.17003 0.03342 0.8622 0.0
C575 C 0.1436 0.04316 0.84065 0.0
C576 C 0.13784 0.07548 0.83606 0.0
C577 C 0.1569 0.09749 0.85311 0.0
C578 C 0.04767 0.99927 0.80357 0.0
C579 C 0.07156 0.97155 0.79712 0.0
C580 C 0.07155 0.02298 0.81686 0.0
C581 C 0.1198 0.01944 0.82416 0.0
C582 C 0.14398 0.99202 0.81715 0.0
C583 C 0.12016 0.96838 0.80376 0.0
H584 H 0.10349 0.1114 0.95739 0.0
H585 H 0.2492 0.12032 0.98437 0.0
H586 H 0.07636 0.10127 1.0011 0.0
H587 H 0.22267 0.10911 0.02796 0.0
H588 H 0.15688 0.1176 0.10652 0.0
H589 H 0.18125 0.1297 0.06292 0.0
H590 H 0.07593 0.06403 0.03455 0.0
H591 H 0.04912 0.05367 0.0781 0.0
C592 C 0.12977 0.11087 0.97269 0.0
C593 C 0.17844 0.11673 0.96748 0.0
C594 C 0.1143 0.10493 0.99777 0.0
C595 C 0.14722 0.10433 0.01824 0.0
C596 C 0.19602 0.10999 0.01288 0.0
C597 C 0.21136 0.1163 0.98785 0.0
C598 C 0.13821 0.10613 0.09101 0.0
C599 C 0.10081 0.08468 0.09602 0.0
C600 C 0.15282 0.1127 0.06591 0.0
C601 C 0.13087 0.09776 0.04503 0.0
C602 C 0.09341 0.07634 0.05002 0.0
C603 C 0.07845 0.07001 0.07513 0.0
H604 H 0.35657 0.36044 0.48462 0.0
H605 H 0.32043 0.45709 0.46972 0.0
H606 H 0.37559 0.37317 0.52901 0.0
H607 H 0.3392 0.46976 0.51391 0.0
H608 H 0.41819 0.49044 0.58673 0.0
H609 H 0.406 0.47454 0.5426 0.0
H610 H 0.33861 0.38888 0.56908 0.0
H611 H 0.35157 0.40478 0.61348 0.0
C612 C 0.35243 0.38436 0.49083 0.0
C613 C 0.33717 0.40776 0.47351 0.0
C614 C 0.36332 0.39166 0.5163 0.0
C615 C 0.35925 0.42254 0.52508 0.0
C616 C 0.3438 0.44585 0.50775 0.0
C617 C 0.33298 0.43858 0.48234 0.0
C618 C 0.40091 0.46815 0.58315 0.0
C619 C 0.38531 0.44905 0.60361 0.0
C620 C 0.39373 0.45907 0.55782 0.0
C621 C 0.37055 0.43066 0.55218 0.0
C622 C 0.35677 0.41086 0.57267 0.0
C623 C 0.36418 0.41994 0.59813 0.0
H624 H 0.66967 0.42284 0.05204 0.0
H625 H 0.63397 0.32547 0.06473 0.0
H626 H 0.6401 0.41929 1.00801 0.0
H627 H 0.60525 0.32176 0.02073 0.0
H628 H 0.51944 0.33293 0.94695 0.0
H629 H 0.54122 0.34039 0.99172 0.0
H630 H 0.66661 0.39298 0.96829 0.0
H631 H 0.6454 0.38513 0.92352 0.0
C632 C 0.65498 0.4008 0.04551 0.0
C633 C 0.65431 0.3744 0.0618 0.0
C634 C 0.63849 0.39868 0.02024 0.0
C635 C 0.62052 0.3702 1.01083 0.0
C636 C 0.6185 0.3441 0.02741 0.0
C637 C 0.63533 0.34615 0.05256 0.0
C638 C 0.55182 0.34593 0.9513 0.0
C639 C 0.58077 0.35825 0.93153 0.0
C640 C 0.5642 0.35029 0.97698 0.0
C641 C 0.60569 0.36723 0.98357 0.0
C642 C 0.63406 0.38018 0.96387 0.0
C643 C 0.62184 0.37568 0.93817 0.0
H644 H 0.81977 0.08138 0.55284 0.0
H645 H 0.83076 0.18199 0.54649 0.0
H646 H 0.8339 0.07713 0.5068 0.0
H647 H 0.84322 0.17788 0.50056 0.0
H648 H 0.90046 0.16099 0.42128 0.0
H649 H 0.8984 0.16127 0.46794 0.0
H650 H 0.79033 0.08847 0.46745 0.0
H651 H 0.79381 0.08731 0.42085 0.0
C652 C 0.82568 0.10255 0.54167 0.0
C653 C 0.82381 0.13203 0.55331 0.0
C654 C 0.83327 0.10015 0.51524 0.0
C655 C 0.83943 0.12717 0.49989 0.0
C656 C 0.83907 0.15655 0.51174 0.0
C657 C 0.83138 0.15894 0.53808 0.0
C658 C 0.87686 0.14466 0.43112 0.0
C659 C 0.84711 0.12425 0.41724 0.0
C660 C 0.8753 0.14505 0.4579 0.0
C661 C 0.84398 0.12503 0.47151 0.0
C662 C 0.81519 0.10403 0.45766 0.0
C663 C 0.81672 0.10365 0.43089 0.0
H664 H 0.82767 0.95108 0.05389 0.0
H665 H 0.8844 0.85734 0.05312 0.0
H666 H 0.85317 0.95883 1.00925 0.0
H667 H 0.91064 0.86527 1.00877 0.0
H668 H 1.00285 0.91263 0.94346 0.0
H669 H 0.97377 0.90349 0.98713 0.0
H670 H 0.83214 0.93283 0.96404 0.0
H671 H 0.86115 0.94137 0.92006 0.0
C672 C 0.84572 0.93223 0.04417 0.0
C673 C 0.85411 0.90363 0.05689 0.0
C674 C 0.85998 0.93657 0.01866 0.0
C675 C 0.8838 0.91262 1.00561 0.0
C676 C 0.89246 0.88412 0.01842 0.0
C677 C 0.87735 0.87957 0.04371 0.0
C678 C 0.96546 0.91696 0.94772 0.0
C679 C 0.93419 0.92769 0.92846 0.0
C680 C 0.94882 0.91165 0.97264 0.0
C681 C 0.90078 0.91754 0.97894 0.0
C682 C 0.86942 0.92828 0.95968 0.0
C683 C 0.88587 0.93296 0.93457 0.0
H684 H 0.5937 0.61675 0.56589 0.0
H685 H 0.7398 0.62306 0.53944 0.0
H686 H 0.5667 0.60545 0.52253 0.0
H687 H 0.71387 0.60969 0.49632 0.0
H688 H 0.65267 0.61194 0.41679 0.0
H689 H 0.67651 0.62638 0.45961 0.0
H690 H 0.56231 0.56878 0.49086 0.0
H691 H 0.53534 0.55703 0.44791 0.0
C692 C 0.62005 0.61534 0.55072 0.0
C693 C 0.66873 0.62082 0.5559 0.0
C694 C 0.60474 0.6086 0.52584 0.0
C695 C 0.63794 0.60647 0.5056 0.0
C696 C 0.68687 0.61175 0.51106 0.0
C697 C 0.70196 0.61919 0.53583 0.0
C698 C 0.63177 0.60288 0.43268 0.0
C699 C 0.59172 0.58334 0.42856 0.0
C700 C 0.64618 0.6107 0.45748 0.0
C701 C 0.62174 0.59869 0.47904 0.0
C702 C 0.58183 0.57901 0.47492 0.0
C703 C 0.56679 0.57172 0.4501 0.0
H704 H 0.39985 0.62897 0.95961 0.0
H705 H 0.25221 0.61656 0.98247 0.0
H706 H 0.42448 0.62776 1.00467 0.0
H707 H 0.27661 0.61562 0.02734 0.0
H708 H 0.33312 0.59878 0.10639 0.0
H709 H 0.32243 0.58643 0.06094 0.0
H710 H 0.41201 0.66551 0.0403 0.0
H711 H 0.42232 0.67767 0.0856 0.0
C712 C 0.37279 0.62548 0.97424 0.0
C713 C 0.32405 0.62316 0.96754 0.0
C714 C 0.38685 0.62494 1.00002 0.0
C715 C 0.35251 0.62163 0.01959 0.0
C716 C 0.30404 0.61786 0.01276 0.0
C717 C 0.28997 0.61875 0.98706 0.0
C718 C 0.35175 0.61276 0.09207 0.0
C719 C 0.37884 0.63896 0.09933 0.0
C720 C 0.34529 0.60594 0.06611 0.0
C721 C 0.36608 0.62514 0.047 0.0
C722 C 0.39589 0.65008 0.05448 0.0
C723 C 0.40186 0.65706 0.08039 0.0
H724 H 0.11489 0.91386 0.45467 0.0
H725 H 0.24536 0.87267 0.4839 0.0
H726 H 0.08239 0.915 0.49803 0.0
H727 H 0.21213 0.87223 0.52684 0.0
H728 H 0.15507 0.89147 0.60497 0.0
H729 H 0.1882 0.9017 0.56263 0.0
H730 H 0.05149 0.87828 0.52856 0.0
H731 H 0.01756 0.86998 0.57097 0.0
C732 C 0.13687 0.90539 0.47037 0.0
C733 C 0.18256 0.8929 0.46575 0.0
C734 C 0.11799 0.90565 0.49521 0.0
C735 C 0.14434 0.89339 0.516 0.0
C736 C 0.19083 0.88212 0.51145 0.0
C737 C 0.20972 0.882 0.4867 0.0
C738 C 0.13172 0.88914 0.58851 0.0
C739 C 0.08362 0.87968 0.59149 0.0
C740 C 0.15095 0.89463 0.56414 0.0
C741 C 0.12273 0.89058 0.54205 0.0
C742 C 0.07428 0.88196 0.54507 0.0
C743 C 0.05496 0.87669 0.56945 0.0
H744 H 0.17074 0.33512 0.35608 0.0
H745 H 0.27344 0.26585 0.38026 0.0
H746 H 0.12964 0.29591 0.32987 0.0
H747 H 0.23202 0.22634 0.35504 0.0
H748 H 0.16678 0.16457 0.2947 0.0
H749 H 0.21213 0.2068 0.31458 0.0
H750 H 0.07908 0.25134 0.33552 0.0
H751 H 0.03425 0.20981 0.31391 0.0
C752 C 0.18499 0.3116 0.35531 0.0
C753 C 0.22556 0.30347 0.36974 0.0
C754 C 0.16112 0.28898 0.34064 0.0
C755 C 0.17712 0.25771 0.34039 0.0
C756 C 0.21886 0.25012 0.35433 0.0
C757 C 0.24273 0.27276 0.36881 0.0
C758 C 0.14746 0.18376 0.3031 0.0
C759 C 0.09725 0.18433 0.30241 0.0
C760 C 0.17335 0.20779 0.31488 0.0
C761 C 0.14949 0.23277 0.3267 0.0
C762 C 0.09889 0.23296 0.32623 0.0
C763 C 0.07309 0.20899 0.31418 0.0
H764 H 0.26965 0.2574 0.88434 0.0
H765 H 0.34405 0.18505 0.84386 0.0
H766 H 0.31025 0.2973 0.85861 0.0
H767 H 0.38387 0.22492 0.81707 0.0
H768 H 0.49176 0.30451 0.7996 0.0
H769 H 0.44529 0.2632 0.82067 0.0
H770 H 0.32014 0.32252 0.81902 0.0
H771 H 0.36785 0.36447 0.79988 0.0
C772 C 0.29376 0.2501 0.8693 0.0
C773 C 0.30345 0.21832 0.86579 0.0
C774 C 0.31707 0.27296 0.85447 0.0
C775 C 0.35066 0.26454 0.83567 0.0
C776 C 0.35887 0.23241 0.83158 0.0
C777 C 0.33565 0.20951 0.84664 0.0
C778 C 0.45437 0.30875 0.8039 0.0
C779 C 0.43339 0.33775 0.79789 0.0
C780 C 0.42743 0.28485 0.81566 0.0
C781 C 0.37865 0.28926 0.82156 0.0
C782 C 0.35763 0.31821 0.81512 0.0
C783 C 0.3848 0.3422 0.80373 0.0
H784 H 0.64834 0.1875 0.67562 0.0
H785 H 0.75809 0.25446 0.65491 0.0
H786 H 0.60965 0.2267 0.70248 0.0
H787 H 0.72 0.2937 0.68186 0.0
H788 H 0.59838 0.3639 0.69746 0.0
H789 H 0.64448 0.32291 0.67678 0.0
H790 H 0.61632 0.26065 0.74077 0.0
H791 H 0.56957 0.30174 0.76133 0.0
C792 C 0.66495 0.21034 0.67756 0.0
C793 C 0.70628 0.21806 0.66357 0.0
C794 C 0.64282 0.23281 0.69283 0.0
C795 C 0.66145 0.26345 0.69407 0.0
C796 C 0.70437 0.27047 0.68102 0.0
C797 C 0.72652 0.24797 0.66587 0.0
C798 C 0.60195 0.34143 0.70706 0.0
C799 C 0.58028 0.33594 0.73093 0.0
C800 C 0.62879 0.31805 0.69537 0.0
C801 C 0.63439 0.28855 0.70722 0.0
C802 C 0.61256 0.28306 0.73111 0.0
C803 C 0.58597 0.30657 0.74291 0.0
H804 H 0.87939 0.32181 0.15136 0.0
H805 H 0.7528 0.28976 0.19121 0.0
H806 H 0.92893 0.28726 0.17797 0.0
H807 H 0.80222 0.255 0.21797 0.0
H808 H 0.91582 0.20734 0.27036 0.0
H809 H 0.87045 0.25021 0.25064 0.0
H810 H 0.93231 0.22869 0.17726 0.0
H811 H 0.97685 0.18587 0.19658 0.0
C812 C 0.86248 0.3081 0.16645 0.0
C813 C 0.8126 0.30855 0.16955 0.0
C814 C 0.89067 0.2881 0.18148 0.0
C815 C 0.8694 0.26813 0.19986 0.0
C816 C 0.81968 0.27023 0.20409 0.0
C817 C 0.79142 0.29015 0.18888 0.0
C818 C 0.91986 0.21179 0.25003 0.0
C819 C 0.95013 0.19301 0.23511 0.0
C820 C 0.89381 0.23635 0.23876 0.0
C821 C 0.89813 0.24302 0.21245 0.0
C822 C 0.92881 0.22453 0.19767 0.0
C823 C 0.9542 0.19979 0.20879 0.0
H824 H 0.74079 0.73286 0.67924 0.0
H825 H 0.86779 0.71203 0.63589 0.0
H826 H 0.78698 0.76958 0.70546 0.0
H827 H 0.9139 0.74923 0.66129 0.0
H828 H 0.9933 0.80494 0.72149 0.0
H829 H 0.94836 0.76253 0.7015 0.0
H830 H 0.82172 0.82043 0.69984 0.0
H831 H 0.86659 0.86252 0.72005 0.0
C832 C 0.77886 0.73573 0.67574 0.0
C833 C 0.80107 0.71948 0.65589 0.0
C834 C 0.80524 0.75703 0.69047 0.0
C835 C 0.85423 0.76269 0.6854 0.0
C836 C 0.87655 0.7453 0.66606 0.0
C837 C 0.85019 0.72396 0.65146 0.0
C838 C 0.95591 0.80861 0.71674 0.0
C839 C 0.93358 0.83715 0.72225 0.0
C840 C 0.93007 0.78427 0.70529 0.0
C841 C 0.88124 0.78789 0.69901 0.0
C842 C 0.85895 0.81646 0.70475 0.0
C843 C 0.88479 0.84075 0.71619 0.0
H844 H 0.77442 0.8016 0.18702 0.0
H845 H 0.65254 0.81645 0.13769 0.0
H846 H 0.72807 0.76338 0.21228 0.0
H847 H 0.60665 0.77759 0.16189 0.0
H848 H 0.52351 0.71708 0.21768 0.0
H849 H 0.56667 0.7617 0.1992 0.0
H850 H 0.7002 0.71162 0.20783 0.0
H851 H 0.65703 0.66758 0.22687 0.0
C852 C 0.73732 0.79713 0.182 0.0
C853 C 0.71663 0.81214 0.16076 0.0
C854 C 0.7109 0.7749 0.19616 0.0
C855 C 0.66353 0.76695 0.18906 0.0
C856 C 0.64257 0.78321 0.16831 0.0
C857 C 0.66885 0.80554 0.15437 0.0
C858 C 0.56206 0.71562 0.21549 0.0
C859 C 0.58682 0.68878 0.22369 0.0
C860 C 0.58693 0.74124 0.20491 0.0
C861 C 0.63717 0.74052 0.20194 0.0
C862 C 0.66177 0.71352 0.21022 0.0
C863 C 0.63694 0.68807 0.22099 0.0
H864 H 0.34539 0.83326 0.34319 0.0
H865 H 0.26985 0.75452 0.37646 0.0
H866 H 0.3936 0.79721 0.3173 0.0
H867 H 0.31781 0.71866 0.35106 0.0
H868 H 0.45659 0.66713 0.33177 0.0
H869 H 0.40739 0.70569 0.35341 0.0
H870 H 0.38438 0.75436 0.28166 0.0
H871 H 0.4335 0.71556 0.25976 0.0
C872 C 0.33849 0.80832 0.34446 0.0
C873 C 0.30388 0.79646 0.36148 0.0
C874 C 0.36604 0.78774 0.3298 0.0
C875 C 0.35977 0.75513 0.33243 0.0
C876 C 0.32384 0.74362 0.34889 0.0
C877 C 0.29612 0.7641 0.36321 0.0
C878 C 0.44141 0.68614 0.32057 0.0
C879 C 0.44881 0.68814 0.29401 0.0
C880 C 0.41296 0.70811 0.33296 0.0
C881 C 0.39176 0.73287 0.31916 0.0
C882 C 0.40034 0.73554 0.29274 0.0
C883 C 0.42828 0.71325 0.28024 0.0
H884 H 0.14448 0.68245 0.84439 0.0
H885 H 0.23536 0.75064 0.88085 0.0
H886 H 0.10808 0.72395 0.81819 0.0
H887 H 0.19967 0.79224 0.85457 0.0
H888 H 0.07817 0.85953 0.83068 0.0
H889 H 0.12132 0.8179 0.85317 0.0
H890 H 0.12163 0.76306 0.7842 0.0
H891 H 0.07757 0.80439 0.7619 0.0
C892 C 0.15747 0.70627 0.84623 0.0
C893 C 0.1929 0.71351 0.8643 0.0
C894 C 0.13665 0.73005 0.83131 0.0
C895 C 0.15065 0.76152 0.83442 0.0
C896 C 0.18754 0.76837 0.85195 0.0
C897 C 0.2084 0.74457 0.86676 0.0
C898 C 0.0875 0.8386 0.82033 0.0
C899 C 0.07483 0.83541 0.79445 0.0
C900 C 0.11262 0.81484 0.83314 0.0
C901 C 0.12529 0.78718 0.82044 0.0
C902 C 0.11231 0.78396 0.79458 0.0
C903 C 0.08741 0.80778 0.78175 0.0
loop_
_geom_bond_atom_site_label_1
_geom_bond_atom_site_label_2
_geom_bond_distance
_geom_bond_site_symmetry_2
_ccdc_geom_bond_type
H0 C3 0.929 . S
H1 C6 0.929 . S
H2 C8 0.930 . S
C3 H0 0.929 . S
C3 C4 1.398 . S
C3 C5 1.396 . S
C4 C3 1.398 . S
C4 C8 1.407 . S
C5 C3 1.396 . S
C5 C6 1.394 . S
C6 H1 0.929 . S
C6 C5 1.394 . S
C6 C7 1.382 . S
C7 C6 1.382 . S
C7 C8 1.392 . S
C7 N9 1.420 . S
C8 H2 0.930 . S
C8 C4 1.407 . S
C8 C7 1.392 . S
N9 C7 1.420 . S
N9 C10 1.244 . S
C10 N9 1.244 . S
H11 C14 0.929 . S
H12 C17 0.929 . S
H13 C19 0.930 . S
C14 H11 0.929 . S
C14 C15 1.398 . S
C14 C16 1.396 . S
C15 C14 1.398 . S
C15 C19 1.407 . S
C16 C14 1.396 . S
C16 C17 1.394 . S
C17 H12 0.929 . S
C17 C16 1.394 . S
C17 C18 1.382 . S
C18 C17 1.382 . S
C18 C19 1.392 . S
C18 N20 1.420 . S
C19 H13 0.930 . S
C19 C15 1.407 . S
C19 C18 1.392 . S
N20 C18 1.420 . S
N20 C21 1.244 . S
C21 N20 1.244 . S
H22 C25 0.929 . S
H23 C28 0.929 . S
H24 C30 0.930 . S
C25 H22 0.929 . S
C25 C26 1.398 . S
C25 C27 1.396 . S
C26 C25 1.398 . S
C26 C30 1.407 . S
C27 C25 1.396 . S
C27 C28 1.394 . S
C28 H23 0.929 . S
C28 C27 1.394 . S
C28 C29 1.382 . S
C29 C28 1.382 . S
C29 C30 1.392 . S
C29 N31 1.420 . S
C30 H24 0.930 . S
C30 C26 1.407 . S
C30 C29 1.392 . S
N31 C29 1.420 . S
N31 C32 1.244 . S
C32 N31 1.244 . S
H33 C36 0.929 . S
H34 C39 0.929 . S
H35 C41 0.930 . S
C36 H33 0.929 . S
C36 C37 1.398 . S
C36 C38 1.396 . S
C37 C36 1.398 . S
C37 C41 1.407 . S
C38 C36 1.396 . S
C38 C39 1.394 . S
C39 H34 0.929 . S
C39 C38 1.394 . S
C39 C40 1.382 . S
C40 C39 1.382 . S
C40 C41 1.392 . S
C40 N42 1.420 . S
C41 H35 0.930 . S
C41 C37 1.407 . S
C41 C40 1.392 . S
N42 C40 1.420 . S
N42 C43 1.244 . S
C43 N42 1.244 . S
H44 C47 0.929 . S
H45 C50 0.929 . S
H46 C52 0.930 . S
C47 H44 0.929 . S
C47 C48 1.398 . S
C47 C49 1.396 . S
C48 C47 1.398 . S
C48 C52 1.407 . S
C49 C47 1.396 . S
C49 C50 1.394 . S
C50 H45 0.929 . S
C50 C49 1.394 . S
C50 C51 1.382 . S
C51 C50 1.382 . S
C51 C52 1.392 . S
C51 N53 1.420 . S
C52 H46 0.930 . S
C52 C48 1.407 . S
C52 C51 1.392 . S
N53 C51 1.420 . S
N53 C54 1.244 . S
C54 N53 1.244 . S
H55 C58 0.929 . S
H56 C61 0.929 . S
H57 C63 0.930 . S
C58 H55 0.929 . S
C58 C59 1.398 . S
C58 C60 1.396 . S
C59 C58 1.398 . S
C59 C63 1.407 . S
C60 C58 1.396 . S
C60 C61 1.394 . S
C61 H56 0.929 . S
C61 C60 1.394 . S
C61 C62 1.382 . S
C62 C61 1.382 . S
C62 C63 1.392 . S
C62 N64 1.420 . S
C63 H57 0.930 . S
C63 C59 1.407 . S
C63 C62 1.392 . S
N64 C62 1.420 . S
N64 C65 1.244 . S
C65 N64 1.244 . S
H66 C69 0.929 . S
H67 C72 0.929 . S
H68 C74 0.930 . S
C69 H66 0.929 . S
C69 C70 1.398 . S
C69 C71 1.396 . S
C70 C69 1.398 . S
C70 C74 1.407 . S
C71 C69 1.396 . S
C71 C72 1.394 . S
C72 H67 0.929 . S
C72 C71 1.394 . S
C72 C73 1.382 . S
C73 C72 1.382 . S
C73 C74 1.392 . S
C73 N75 1.420 . S
C74 H68 0.930 . S
C74 C70 1.407 . S
C74 C73 1.392 . S
N75 C73 1.420 . S
N75 C76 1.244 . S
C76 N75 1.244 . S
H77 C80 0.929 . S
H78 C83 0.929 . S
H79 C85 0.930 . S
C80 H77 0.929 . S
C80 C81 1.398 . S
C80 C82 1.396 . S
C81 C80 1.398 . S
C81 C85 1.407 . S
C82 C80 1.396 . S
C82 C83 1.394 . S
C83 H78 0.929 . S
C83 C82 1.394 . S
C83 C84 1.382 . S
C84 C83 1.382 . S
C84 C85 1.392 . S
C84 N86 1.420 . S
C85 H79 0.930 . S
C85 C81 1.407 . S
C85 C84 1.392 . S
N86 C84 1.420 . S
N86 C87 1.244 . S
C87 N86 1.244 . S
Tb88 N117 2.617 . S
Tb88 N123 2.572 . S
Tb88 O132 2.465 . S
Tb88 O133 2.387 . S
Tb88 O135 2.428 . S
Tb88 O136 2.308 . S
Tb88 O140 2.349 . S
Tb88 O143 2.393 . S
Tb88 C152 2.802 . S
C89 N90 1.379 . S
C89 C92 1.416 . S
C89 C96 1.424 . S
N90 C89 1.379 . S
N90 C93 1.334 . S
N90 Tb99 2.617 . S
C91 C93 1.390 . S
C91 C94 1.339 . S
C91 H111 0.930 . S
C92 C89 1.416 . S
C92 C94 1.416 . S
C92 C98 1.448 . S
C93 N90 1.334 . S
C93 C91 1.390 . S
C93 H104 0.930 . S
C94 C91 1.339 . S
C94 C92 1.416 . S
C94 H115 0.930 . S
C95 C96 1.413 . S
C95 C97 1.427 . S
C95 C101 1.399 1_545 S
C96 C89 1.424 . S
C96 C95 1.413 . S
C96 N100 1.361 . S
C97 C95 1.427 . S
C97 C98 1.328 . S
C97 H112 0.929 . S
C98 C92 1.448 . S
C98 C97 1.328 . S
C98 H113 0.930 . S
Tb99 N90 2.617 . S
Tb99 N100 2.572 . S
Tb99 O134 2.349 1_655 S
Tb99 O137 2.393 . S
Tb99 O138 2.465 . S
Tb99 O139 2.387 . S
Tb99 O141 2.428 . S
Tb99 O142 2.308 1_655 S
Tb99 C163 2.802 . S
N100 C96 1.361 . S
N100 Tb99 2.572 . S
N100 C102 1.340 . S
C101 C95 1.399 1_565 S
C101 C103 1.330 1_565 S
C101 H109 0.950 . S
C102 N100 1.340 . S
C102 C103 1.438 . S
C102 H108 0.930 . S
C103 C101 1.330 1_545 S
C103 C102 1.438 . S
C103 H105 0.901 1_545 S
H104 C93 0.930 . S
H105 C103 0.901 1_565 S
H106 C121 0.930 . S
H107 C128 0.929 . S
H108 C102 0.930 . S
H109 C101 0.950 . S
H110 C124 0.930 . S
H111 C91 0.930 . S
H112 C97 0.929 . S
H113 C98 0.930 . S
H114 C119 0.930 . S
H115 C94 0.930 . S
H116 C127 0.931 . S
N117 Tb88 2.617 . S
N117 C118 1.379 . S
N117 C121 1.334 . S
C118 N117 1.379 . S
C118 C120 1.416 . S
C118 C126 1.424 . S
C119 H114 0.930 . S
C119 C121 1.390 . S
C119 C122 1.339 . S
C120 C118 1.416 . S
C120 C122 1.416 . S
C120 C153 1.448 . S
C121 H106 0.930 . S
C121 N117 1.334 . S
C121 C119 1.390 . S
C122 C119 1.339 . S
C122 C120 1.416 . S
C122 H129 0.930 . S
N123 Tb88 2.572 . S
N123 C124 1.340 . S
N123 C126 1.361 . S
C124 H110 0.930 . S
C124 N123 1.340 . S
C124 C128 1.407 . S
C125 C126 1.413 . S
C125 C127 1.416 . S
C125 C154 1.427 . S
C126 C118 1.424 . S
C126 N123 1.361 . S
C126 C125 1.413 . S
C127 H116 0.931 . S
C127 C125 1.416 . S
C127 C128 1.332 . S
C128 H107 0.929 . S
C128 C124 1.407 . S
C128 C127 1.332 . S
H129 C122 0.930 . S
H130 C153 0.930 . S
H131 C154 0.929 . S
O132 Tb88 2.465 . S
O132 C152 1.264 . S
O133 Tb88 2.387 . S
O133 C144 1.264 . S
O134 Tb99 2.349 1_455 S
O134 C144 1.243 . S
O135 Tb88 2.428 . S
O135 C152 1.256 . S
O136 Tb88 2.308 . S
O136 C151 1.266 1_455 S
O137 Tb99 2.393 . S
O137 C151 1.248 . S
O138 Tb99 2.465 . S
O138 C163 1.264 . S
O139 Tb99 2.387 . S
O139 C155 1.264 . S
O140 Tb88 2.349 . S
O140 C155 1.243 1_455 S
O141 Tb99 2.428 . S
O141 C163 1.256 . S
O142 Tb99 2.308 1_455 S
O142 C162 1.266 . S
O143 Tb88 2.393 . S
O143 C162 1.248 . S
C144 O133 1.264 . S
C144 O134 1.243 . S
C145 C148 1.399 . S
C145 C150 1.383 . S
C145 C152 1.496 . S
C146 C147 1.399 . S
C146 C150 1.389 . S
C147 C146 1.399 . S
C147 C149 1.380 . S
C147 H164 0.929 . S
C148 C145 1.399 . S
C148 C149 1.392 . S
C148 H165 0.929 . S
C149 C147 1.380 . S
C149 C148 1.392 . S
C149 H166 0.929 . S
C150 C145 1.383 . S
C150 C146 1.389 . S
C150 H167 0.931 . S
C151 O136 1.266 1_655 S
C151 O137 1.248 . S
C152 Tb88 2.802 . S
C152 O132 1.264 . S
C152 O135 1.256 . S
C152 C145 1.496 . S
C153 C120 1.448 . S
C153 H130 0.930 . S
C153 C154 1.328 . S
C154 C125 1.427 . S
C154 H131 0.929 . S
C154 C153 1.328 . S
C155 O139 1.264 . S
C155 O140 1.243 1_655 S
C156 C159 1.399 . S
C156 C160 1.383 . S
C156 C163 1.496 . S
C157 C158 1.399 . S
C157 C160 1.389 . S
C158 C157 1.399 . S
C158 C161 1.380 . S
C158 H168 0.929 . S
C159 C156 1.399 . S
C159 C161 1.392 . S
C159 H169 0.929 . S
C160 C156 1.383 . S
C160 C157 1.389 . S
C160 H170 0.931 . S
C161 C158 1.380 . S
C161 C159 1.392 . S
C161 H171 0.929 . S
C162 O142 1.266 . S
C162 O143 1.248 . S
C163 Tb99 2.802 . S
C163 O138 1.264 . S
C163 O141 1.256 . S
C163 C156 1.496 . S
H164 C147 0.929 . S
H165 C148 0.929 . S
H166 C149 0.929 . S
H167 C150 0.931 . S
H168 C158 0.929 . S
H169 C159 0.929 . S
H170 C160 0.931 . S
H171 C161 0.929 . S
Tb172 N201 2.617 . S
Tb172 N207 2.572 . S
Tb172 O216 2.465 . S
Tb172 O217 2.387 . S
Tb172 O219 2.428 . S
Tb172 O220 2.308 . S
Tb172 O224 2.349 . S
Tb172 O227 2.393 . S
Tb172 C236 2.802 . S
C173 N174 1.379 . S
C173 C176 1.416 . S
C173 C180 1.424 . S
N174 C173 1.379 . S
N174 C177 1.334 . S
N174 Tb183 2.617 . S
C175 C177 1.390 . S
C175 C178 1.339 . S
C175 H195 0.930 . S
C176 C173 1.416 . S
C176 C178 1.416 . S
C176 C182 1.448 . S
C177 N174 1.334 . S
C177 C175 1.390 . S
C177 H188 0.930 . S
C178 C175 1.339 . S
C178 C176 1.416 . S
C178 H199 0.930 . S
C179 C180 1.413 . S
C179 C181 1.427 . S
C179 C185 1.416 . S
C180 C173 1.424 . S
C180 C179 1.413 . S
C180 N184 1.361 . S
C181 C179 1.427 . S
C181 C182 1.328 . S
C181 H196 0.929 . S
C182 C176 1.448 . S
C182 C181 1.328 . S
C182 H197 0.930 . S
Tb183 N174 2.617 . S
Tb183 N184 2.572 . S
Tb183 O218 2.349 . S
Tb183 O221 2.393 . S
Tb183 O222 2.465 . S
Tb183 O223 2.387 . S
Tb183 O225 2.428 . S
Tb183 O226 2.308 . S
Tb183 C247 2.802 . S
N184 C180 1.361 . S
N184 Tb183 2.572 . S
N184 C186 1.340 . S
C185 C179 1.416 . S
C185 C187 1.332 . S
C185 H193 0.931 . S
C186 N184 1.340 . S
C186 C187 1.407 . S
C186 H192 0.930 . S
C187 C185 1.332 . S
C187 C186 1.407 . S
C187 H189 0.929 . S
H188 C177 0.930 . S
H189 C187 0.929 . S
H190 C205 0.930 . S
H191 C212 0.929 . S
H192 C186 0.930 . S
H193 C185 0.931 . S
H194 C208 0.930 . S
H195 C175 0.930 . S
H196 C181 0.929 . S
H197 C182 0.930 . S
H198 C203 0.930 . S
H199 C178 0.930 . S
H200 C211 0.931 . S
N201 Tb172 2.617 . S
N201 C202 1.379 . S
N201 C205 1.334 . S
C202 N201 1.379 . S
C202 C204 1.416 . S
C202 C210 1.424 . S
C203 H198 0.930 . S
C203 C205 1.390 . S
C203 C206 1.339 . S
C204 C202 1.416 . S
C204 C206 1.416 . S
C204 C237 1.448 . S
C205 H190 0.930 . S
C205 N201 1.334 . S
C205 C203 1.390 . S
C206 C203 1.339 . S
C206 C204 1.416 . S
C206 H213 0.930 . S
N207 Tb172 2.572 . S
N207 C208 1.340 . S
N207 C210 1.361 . S
C208 H194 0.930 . S
C208 N207 1.340 . S
C208 C212 1.407 . S
C209 C210 1.413 . S
C209 C211 1.416 . S
C209 C238 1.427 . S
C210 C202 1.424 . S
C210 N207 1.361 . S
C210 C209 1.413 . S
C211 H200 0.931 . S
C211 C209 1.416 . S
C211 C212 1.332 . S
C212 H191 0.929 . S
C212 C208 1.407 . S
C212 C211 1.332 . S
H213 C206 0.930 . S
H214 C237 0.930 . S
H215 C238 0.929 . S
O216 Tb172 2.465 . S
O216 C236 1.264 . S
O217 Tb172 2.387 . S
O217 C228 1.264 . S
O218 Tb183 2.349 . S
O218 C228 1.243 . S
O219 Tb172 2.428 . S
O219 C236 1.256 . S
O220 Tb172 2.308 . S
O220 C235 1.266 . S
O221 Tb183 2.393 . S
O221 C235 1.248 . S
O222 Tb183 2.465 . S
O222 C247 1.264 . S
O223 Tb183 2.387 . S
O223 C239 1.264 . S
O224 Tb172 2.349 . S
O224 C239 1.243 . S
O225 Tb183 2.428 . S
O225 C247 1.256 . S
O226 Tb183 2.308 . S
O226 C246 1.266 . S
O227 Tb172 2.393 . S
O227 C246 1.248 . S
C228 O217 1.264 . S
C228 O218 1.243 . S
C229 C232 1.399 . S
C229 C234 1.383 . S
C229 C236 1.496 . S
C230 C231 1.399 . S
C230 C234 1.389 . S
C231 C230 1.399 . S
C231 C233 1.380 . S
C231 H248 0.929 . S
C232 C229 1.399 . S
C232 C233 1.392 . S
C232 H249 0.929 . S
C233 C231 1.380 . S
C233 C232 1.392 . S
C233 H250 0.929 . S
C234 C229 1.383 . S
C234 C230 1.389 . S
C234 H251 0.931 . S
C235 O220 1.266 . S
C235 O221 1.248 . S
C236 Tb172 2.802 . S
C236 O216 1.264 . S
C236 O219 1.256 . S
C236 C229 1.496 . S
C237 C204 1.448 . S
C237 H214 0.930 . S
C237 C238 1.328 . S
C238 C209 1.427 . S
C238 H215 0.929 . S
C238 C237 1.328 . S
C239 O223 1.264 . S
C239 O224 1.243 . S
C240 C243 1.399 . S
C240 C244 1.383 . S
C240 C247 1.496 . S
C241 C242 1.399 . S
C241 C244 1.389 . S
C242 C241 1.399 . S
C242 C245 1.380 . S
C242 H252 0.929 . S
C243 C240 1.399 . S
C243 C245 1.392 . S
C243 H253 0.929 . S
C244 C240 1.383 . S
C244 C241 1.389 . S
C244 H254 0.931 . S
C245 C242 1.380 . S
C245 C243 1.392 . S
C245 H255 0.929 . S
C246 O226 1.266 . S
C246 O227 1.248 . S
C247 Tb183 2.802 . S
C247 O222 1.264 . S
C247 O225 1.256 . S
C247 C240 1.496 . S
H248 C231 0.929 . S
H249 C232 0.929 . S
H250 C233 0.929 . S
H251 C234 0.931 . S
H252 C242 0.929 . S
H253 C243 0.929 . S
H254 C244 0.931 . S
H255 C245 0.929 . S
Tb256 N285 2.617 . S
Tb256 N291 2.572 . S
Tb256 O300 2.465 . S
Tb256 O301 2.387 . S
Tb256 O303 2.428 . S
Tb256 O304 2.317 . S
Tb256 O308 2.354 . S
Tb256 O311 2.393 . S
Tb256 C320 2.802 . S
C257 N258 1.379 . S
C257 C260 1.416 . S
C257 C264 1.424 . S
N258 C257 1.379 . S
N258 C261 1.334 . S
N258 Tb267 2.617 . S
C259 C261 1.390 . S
C259 C262 1.339 . S
C259 H279 0.930 . S
C260 C257 1.416 . S
C260 C262 1.416 . S
C260 C266 1.448 . S
C261 N258 1.334 . S
C261 C259 1.390 . S
C261 H272 0.930 . S
C262 C259 1.339 . S
C262 C260 1.416 . S
C262 H283 0.930 . S
C263 C264 1.413 . S
C263 C265 1.427 . S
C263 C269 1.416 . S
C264 C257 1.424 . S
C264 C263 1.413 . S
C264 N268 1.361 . S
C265 C263 1.427 . S
C265 C266 1.328 . S
C265 H280 0.929 . S
C266 C260 1.448 . S
C266 C265 1.328 . S
C266 H281 0.930 . S
Tb267 N258 2.617 . S
Tb267 N268 2.572 . S
Tb267 O302 2.349 1_655 S
Tb267 O305 2.393 . S
Tb267 O306 2.465 . S
Tb267 O307 2.387 . S
Tb267 O309 2.428 . S
Tb267 O310 2.308 1_655 S
Tb267 C331 2.802 . S
N268 C264 1.361 . S
N268 Tb267 2.572 . S
N268 C270 1.340 . S
C269 C263 1.416 . S
C269 C271 1.332 . S
C269 H277 0.931 . S
C270 N268 1.340 . S
C270 C271 1.407 . S
C270 H276 0.930 . S
C271 C269 1.332 . S
C271 C270 1.407 . S
C271 H273 0.929 . S
H272 C261 0.930 . S
H273 C271 0.929 . S
H274 C289 0.930 . S
H275 C296 0.929 . S
H276 C270 0.930 . S
H277 C269 0.931 . S
H278 C292 0.930 . S
H279 C259 0.930 . S
H280 C265 0.929 . S
H281 C266 0.930 . S
H282 C287 0.930 . S
H283 C262 0.930 . S
H284 C295 0.931 . S
N285 Tb256 2.617 . S
N285 C286 1.379 . S
N285 C289 1.334 . S
C286 N285 1.379 . S
C286 C288 1.416 . S
C286 C294 1.424 . S
C287 H282 0.930 . S
C287 C289 1.390 . S
C287 C290 1.339 . S
C288 C286 1.416 . S
C288 C290 1.416 . S
C288 C321 1.448 . S
C289 H274 0.930 . S
C289 N285 1.334 . S
C289 C287 1.390 . S
C290 C287 1.339 . S
C290 C288 1.416 . S
C290 H297 0.930 . S
N291 Tb256 2.572 . S
N291 C292 1.340 . S
N291 C294 1.361 . S
C292 H278 0.930 . S
C292 N291 1.340 . S
C292 C296 1.407 1_565 S
C293 C294 1.413 . S
C293 C295 1.416 1_565 S
C293 C322 1.427 . S
C294 C286 1.424 . S
C294 N291 1.361 . S
C294 C293 1.413 . S
C295 H284 0.931 . S
C295 C293 1.416 1_545 S
C295 C296 1.332 . S
C296 H275 0.929 . S
C296 C292 1.407 1_545 S
C296 C295 1.332 . S
H297 C290 0.930 . S
H298 C321 0.930 . S
H299 C322 0.929 . S
O300 Tb256 2.465 . S
O300 C320 1.264 . S
O301 Tb256 2.387 . S
O301 C312 1.264 . S
O302 Tb267 2.349 1_455 S
O302 C312 1.243 . S
O303 Tb256 2.428 . S
O303 C320 1.256 . S
O304 Tb256 2.317 . S
O304 C319 1.255 1_455 S
O305 Tb267 2.393 . S
O305 C319 1.248 . S
O306 Tb267 2.465 . S
O306 C331 1.264 . S
O307 Tb267 2.387 . S
O307 C323 1.264 . S
O308 Tb256 2.354 . S
O308 C323 1.238 1_455 S
O309 Tb267 2.428 . S
O309 C331 1.256 . S
O310 Tb267 2.308 1_455 S
O310 C330 1.266 . S
O311 Tb256 2.393 . S
O311 C330 1.248 . S
C312 O301 1.264 . S
C312 O302 1.243 . S
C313 C316 1.399 . S
C313 C318 1.383 . S
C313 C320 1.496 . S
C314 C315 1.399 . S
C314 C318 1.389 . S
C315 C314 1.399 . S
C315 C317 1.380 . S
C315 H332 0.929 . S
C316 C313 1.399 . S
C316 C317 1.392 . S
C316 H333 0.929 . S
C317 C315 1.380 . S
C317 C316 1.392 . S
C317 H334 0.929 . S
C318 C313 1.383 . S
C318 C314 1.389 . S
C318 H335 0.931 . S
C319 O304 1.255 1_655 S
C319 O305 1.248 . S
C320 Tb256 2.802 . S
C320 O300 1.264 . S
C320 O303 1.256 . S
C320 C313 1.496 . S
C321 C288 1.448 . S
C321 H298 0.930 . S
C321 C322 1.328 . S
C322 C293 1.427 . S
C322 H299 0.929 . S
C322 C321 1.328 . S
C323 O307 1.264 . S
C323 O308 1.238 1_655 S
C324 C327 1.399 . S
C324 C328 1.383 . S
C324 C331 1.496 . S
C325 C326 1.399 . S
C325 C328 1.389 . S
C326 C325 1.399 . S
C326 C329 1.380 . S
C326 H336 0.929 . S
C327 C324 1.399 . S
C327 C329 1.392 . S
C327 H337 0.929 . S
C328 C324 1.383 . S
C328 C325 1.389 . S
C328 H338 0.931 . S
C329 C326 1.380 . S
C329 C327 1.392 . S
C329 H339 0.929 . S
C330 O310 1.266 . S
C330 O311 1.248 . S
C331 Tb267 2.802 . S
C331 O306 1.264 . S
C331 O309 1.256 . S
C331 C324 1.496 . S
H332 C315 0.929 . S
H333 C316 0.929 . S
H334 C317 0.929 . S
H335 C318 0.931 . S
H336 C326 0.929 . S
H337 C327 0.929 . S
H338 C328 0.931 . S
H339 C329 0.929 . S
Tb340 N369 2.617 . S
Tb340 N375 2.572 . S
Tb340 O384 2.465 . S
Tb340 O385 2.387 . S
Tb340 O387 2.428 . S
Tb340 O388 2.308 . S
Tb340 O392 2.349 . S
Tb340 O395 2.393 . S
Tb340 C404 2.802 . S
C341 N342 1.379 . S
C341 C344 1.416 . S
C341 C348 1.424 . S
N342 C341 1.379 . S
N342 C345 1.334 . S
N342 Tb351 2.617 . S
C343 C345 1.390 . S
C343 C346 1.339 . S
C343 H363 0.930 . S
C344 C341 1.416 . S
C344 C346 1.416 . S
C344 C350 1.448 . S
C345 N342 1.334 . S
C345 C343 1.390 . S
C345 H356 0.930 . S
C346 C343 1.339 . S
C346 C344 1.416 . S
C346 H367 0.930 . S
C347 C348 1.413 . S
C347 C349 1.427 . S
C347 C353 1.416 . S
C348 C341 1.424 . S
C348 C347 1.413 . S
C348 N352 1.361 . S
C349 C347 1.427 . S
C349 C350 1.328 . S
C349 H364 0.929 . S
C350 C344 1.448 . S
C350 C349 1.328 . S
C350 H365 0.930 . S
Tb351 N342 2.617 . S
Tb351 N352 2.572 . S
Tb351 O386 2.349 . S
Tb351 O389 2.393 . S
Tb351 O390 2.465 . S
Tb351 O391 2.387 . S
Tb351 O393 2.428 . S
Tb351 O394 2.308 . S
Tb351 C415 2.802 . S
N352 C348 1.361 . S
N352 Tb351 2.572 . S
N352 C354 1.340 . S
C353 C347 1.416 . S
C353 C355 1.332 . S
C353 H361 0.931 . S
C354 N352 1.340 . S
C354 C355 1.407 . S
C354 H360 0.930 . S
C355 C353 1.332 . S
C355 C354 1.407 . S
C355 H357 0.929 . S
H356 C345 0.930 . S
H357 C355 0.929 . S
H358 C373 0.930 . S
H359 C380 0.929 . S
H360 C354 0.930 . S
H361 C353 0.931 . S
H362 C376 0.930 . S
H363 C343 0.930 . S
H364 C349 0.929 . S
H365 C350 0.930 . S
H366 C371 0.930 . S
H367 C346 0.930 . S
H368 C379 0.931 . S
N369 Tb340 2.617 . S
N369 C370 1.379 . S
N369 C373 1.334 . S
C370 N369 1.379 . S
C370 C372 1.416 . S
C370 C378 1.424 . S
C371 H366 0.930 . S
C371 C373 1.390 . S
C371 C374 1.339 . S
C372 C370 1.416 . S
C372 C374 1.416 . S
C372 C405 1.448 . S
C373 H358 0.930 . S
C373 N369 1.334 . S
C373 C371 1.390 . S
C374 C371 1.339 . S
C374 C372 1.416 . S
C374 H381 0.930 . S
N375 Tb340 2.572 . S
N375 C376 1.340 . S
N375 C378 1.361 . S
C376 H362 0.930 . S
C376 N375 1.340 . S
C376 C380 1.407 . S
C377 C378 1.413 . S
C377 C379 1.416 . S
C377 C406 1.427 . S
C378 C370 1.424 . S
C378 N375 1.361 . S
C378 C377 1.413 . S
C379 H368 0.931 . S
C379 C377 1.416 . S
C379 C380 1.332 . S
C380 H359 0.929 . S
C380 C376 1.407 . S
C380 C379 1.332 . S
H381 C374 0.930 . S
H382 C405 0.930 . S
H383 C406 0.929 . S
O384 Tb340 2.465 . S
O384 C404 1.264 . S
O385 Tb340 2.387 . S
O385 C396 1.264 . S
O386 Tb351 2.349 . S
O386 C396 1.243 . S
O387 Tb340 2.428 . S
O387 C404 1.256 . S
O388 Tb340 2.308 . S
O388 C403 1.266 . S
O389 Tb351 2.393 . S
O389 C403 1.248 . S
O390 Tb351 2.465 . S
O390 C415 1.264 . S
O391 Tb351 2.387 . S
O391 C407 1.264 . S
O392 Tb340 2.349 . S
O392 C407 1.243 . S
O393 Tb351 2.428 . S
O393 C415 1.256 . S
O394 Tb351 2.308 . S
O394 C414 1.266 . S
O395 Tb340 2.393 . S
O395 C414 1.248 . S
C396 O385 1.264 . S
C396 O386 1.243 . S
C397 C400 1.399 . S
C397 C402 1.383 . S
C397 C404 1.496 . S
C398 C399 1.399 . S
C398 C402 1.389 . S
C399 C398 1.399 . S
C399 C401 1.380 . S
C399 H416 0.929 . S
C400 C397 1.399 . S
C400 C401 1.392 . S
C400 H417 0.929 . S
C401 C399 1.380 . S
C401 C400 1.392 . S
C401 H418 0.929 . S
C402 C397 1.383 . S
C402 C398 1.389 . S
C402 H419 0.931 . S
C403 O388 1.266 . S
C403 O389 1.248 . S
C404 Tb340 2.802 . S
C404 O384 1.264 . S
C404 O387 1.256 . S
C404 C397 1.496 . S
C405 C372 1.448 . S
C405 H382 0.930 . S
C405 C406 1.328 . S
C406 C377 1.427 . S
C406 H383 0.929 . S
C406 C405 1.328 . S
C407 O391 1.264 . S
C407 O392 1.243 . S
C408 C411 1.399 . S
C408 C412 1.383 . S
C408 C415 1.496 . S
C409 C410 1.399 . S
C409 C412 1.389 . S
C410 C409 1.399 . S
C410 C413 1.380 . S
C410 H420 0.929 . S
C411 C408 1.399 . S
C411 C413 1.392 . S
C411 H421 0.929 . S
C412 C408 1.383 . S
C412 C409 1.389 . S
C412 H422 0.931 . S
C413 C410 1.380 . S
C413 C411 1.392 . S
C413 H423 0.929 . S
C414 O394 1.266 . S
C414 O395 1.248 . S
C415 Tb351 2.802 . S
C415 O390 1.264 . S
C415 O393 1.256 . S
C415 C408 1.496 . S
H416 C399 0.929 . S
H417 C400 0.929 . S
H418 C401 0.929 . S
H419 C402 0.931 . S
H420 C410 0.929 . S
H421 C411 0.929 . S
H422 C412 0.931 . S
H423 C413 0.929 . S
H424 C432 0.950 . S
H425 C437 0.950 . S
H426 C434 0.950 . S
H427 C436 0.950 . S
H428 C438 0.950 . S
H429 C440 0.950 . S
H430 C442 0.950 . S
H431 C443 0.950 . S
C432 H424 0.950 . S
C432 C433 1.386 . S
C432 C434 1.391 . S
C433 C432 1.386 . S
C433 C437 1.393 . S
C434 H426 0.950 . S
C434 C432 1.391 . S
C434 C435 1.400 . S
C435 C434 1.400 . S
C435 C436 1.398 . S
C435 C441 1.491 . S
C436 H427 0.950 . S
C436 C435 1.398 . S
C436 C437 1.391 . S
C437 H425 0.950 . S
C437 C433 1.393 . S
C437 C436 1.391 . S
C438 H428 0.950 . S
C438 C439 1.386 . S
C438 C440 1.391 . S
C439 C438 1.386 . S
C439 C443 1.393 . S
C440 H429 0.950 . S
C440 C438 1.391 . S
C440 C441 1.400 1_545 S
C441 C435 1.491 . S
C441 C440 1.400 1_565 S
C441 C442 1.398 . S
C442 H430 0.950 . S
C442 C441 1.398 . S
C442 C443 1.391 1_565 S
C443 H431 0.950 . S
C443 C439 1.393 . S
C443 C442 1.391 1_545 S
H444 C452 0.950 . S
H445 C457 0.950 . S
H446 C454 0.950 . S
H447 C456 0.950 . S
H448 C458 0.950 . S
H449 C460 0.950 . S
H450 C462 0.950 . S
H451 C463 0.950 . S
C452 H444 0.950 . S
C452 C453 1.386 . S
C452 C454 1.391 . S
C453 C452 1.386 . S
C453 C457 1.393 . S
C454 H446 0.950 . S
C454 C452 1.391 . S
C454 C455 1.400 . S
C455 C454 1.400 . S
C455 C456 1.398 . S
C455 C461 1.491 . S
C456 H447 0.950 . S
C456 C455 1.398 . S
C456 C457 1.391 . S
C457 H445 0.950 . S
C457 C453 1.393 . S
C457 C456 1.391 . S
C458 H448 0.950 . S
C458 C459 1.386 . S
C458 C460 1.391 . S
C459 C458 1.386 . S
C459 C463 1.393 . S
C460 H449 0.950 . S
C460 C458 1.391 . S
C460 C461 1.400 . S
C461 C455 1.491 . S
C461 C460 1.400 . S
C461 C462 1.398 . S
C462 H450 0.950 . S
C462 C461 1.398 . S
C462 C463 1.391 . S
C463 H451 0.950 . S
C463 C459 1.393 . S
C463 C462 1.391 . S
H464 C472 0.950 . S
H465 C477 0.950 . S
H466 C474 0.950 . S
H467 C476 0.950 . S
H468 C478 0.950 . S
H469 C480 0.950 . S
H470 C482 0.950 . S
H471 C483 0.950 . S
C472 H464 0.950 . S
C472 C473 1.386 . S
C472 C474 1.391 . S
C473 C472 1.386 . S
C473 C477 1.393 . S
C474 H466 0.950 . S
C474 C472 1.391 . S
C474 C475 1.400 . S
C475 C474 1.400 . S
C475 C476 1.398 . S
C475 C481 1.491 . S
C476 H467 0.950 . S
C476 C475 1.398 . S
C476 C477 1.391 . S
C477 H465 0.950 . S
C477 C473 1.393 . S
C477 C476 1.391 . S
C478 H468 0.950 . S
C478 C479 1.386 . S
C478 C480 1.391 . S
C479 C478 1.386 . S
C479 C483 1.393 . S
C480 H469 0.950 . S
C480 C478 1.391 . S
C480 C481 1.400 . S
C481 C475 1.491 . S
C481 C480 1.400 . S
C481 C482 1.398 . S
C482 H470 0.950 . S
C482 C481 1.398 . S
C482 C483 1.391 . S
C483 H471 0.950 . S
C483 C479 1.393 . S
C483 C482 1.391 . S
H484 C492 0.950 . S
H485 C497 0.950 . S
H486 C494 0.950 . S
H487 C496 0.950 . S
H488 C498 0.950 . S
H489 C500 0.950 . S
H490 C502 0.950 . S
H491 C503 0.950 . S
C492 H484 0.950 . S
C492 C493 1.386 . S
C492 C494 1.391 . S
C493 C492 1.386 . S
C493 C497 1.393 . S
C494 H486 0.950 . S
C494 C492 1.391 . S
C494 C495 1.400 . S
C495 C494 1.400 . S
C495 C496 1.398 . S
C495 C501 1.491 . S
C496 H487 0.950 . S
C496 C495 1.398 . S
C496 C497 1.391 . S
C497 H485 0.950 . S
C497 C493 1.393 . S
C497 C496 1.391 . S
C498 H488 0.950 . S
C498 C499 1.386 . S
C498 C500 1.391 . S
C499 C498 1.386 . S
C499 C503 1.393 . S
C500 H489 0.950 . S
C500 C498 1.391 . S
C500 C501 1.400 1_545 S
C501 C495 1.491 . S
C501 C500 1.400 1_565 S
C501 C502 1.398 . S
C502 H490 0.950 . S
C502 C501 1.398 . S
C502 C503 1.391 1_565 S
C503 H491 0.950 . S
C503 C499 1.393 . S
C503 C502 1.391 1_545 S
H504 C512 0.950 . S
H505 C517 0.950 . S
H506 C514 0.950 . S
H507 C516 0.950 . S
H508 C518 0.950 . S
H509 C520 0.950 . S
H510 C522 0.950 1_545 S
H511 C523 0.950 . S
C512 H504 0.950 . S
C512 C513 1.386 . S
C512 C514 1.391 . S
C513 C512 1.386 . S
C513 C517 1.393 . S
C514 H506 0.950 . S
C514 C512 1.391 . S
C514 C515 1.400 . S
C515 C514 1.400 . S
C515 C516 1.398 . S
C515 C521 1.491 . S
C516 H507 0.950 . S
C516 C515 1.398 . S
C516 C517 1.391 . S
C517 H505 0.950 . S
C517 C513 1.393 . S
C517 C516 1.391 . S
C518 H508 0.950 . S
C518 C519 1.386 . S
C518 C520 1.391 1_565 S
C519 C518 1.386 . S
C519 C523 1.393 . S
C520 H509 0.950 . S
C520 C518 1.391 1_545 S
C520 C521 1.400 . S
C521 C515 1.491 . S
C521 C520 1.400 . S
C521 C522 1.398 1_545 S
C522 H510 0.950 1_565 S
C522 C521 1.398 1_565 S
C522 C523 1.392 . S
C523 H511 0.950 . S
C523 C519 1.393 . S
C523 C522 1.392 . S
H524 C532 0.950 . S
H525 C537 0.950 . S
H526 C534 0.950 . S
H527 C536 0.950 . S
H528 C538 0.950 . S
H529 C540 0.950 . S
H530 C542 0.950 . S
H531 C543 0.950 . S
C532 H524 0.950 . S
C532 C533 1.386 . S
C532 C534 1.391 . S
C533 C532 1.386 . S
C533 C537 1.393 . S
C534 H526 0.950 . S
C534 C532 1.391 . S
C534 C535 1.400 . S
C535 C534 1.400 . S
C535 C536 1.398 . S
C535 C541 1.491 . S
C536 H527 0.950 . S
C536 C535 1.398 . S
C536 C537 1.391 . S
C537 H525 0.950 . S
C537 C533 1.393 . S
C537 C536 1.391 . S
C538 H528 0.950 . S
C538 C539 1.386 . S
C538 C540 1.391 . S
C539 C538 1.386 . S
C539 C543 1.393 . S
C540 H529 0.950 . S
C540 C538 1.391 . S
C540 C541 1.400 . S
C541 C535 1.491 . S
C541 C540 1.400 . S
C541 C542 1.398 . S
C542 H530 0.950 . S
C542 C541 1.398 . S
C542 C543 1.391 . S
C543 H531 0.950 . S
C543 C539 1.393 . S
C543 C542 1.391 . S
H544 C552 0.950 . S
H545 C557 0.950 . S
H546 C554 0.950 . S
H547 C556 0.950 . S
H548 C558 0.950 . S
H549 C560 0.950 . S
H550 C562 0.950 . S
H551 C563 0.950 . S
C552 H544 0.950 . S
C552 C553 1.386 . S
C552 C554 1.391 . S
C553 C552 1.386 . S
C553 C557 1.393 . S
C554 H546 0.950 . S
C554 C552 1.391 . S
C554 C555 1.400 . S
C555 C554 1.400 . S
C555 C556 1.398 . S
C555 C561 1.491 . S
C556 H547 0.950 . S
C556 C555 1.398 . S
C556 C557 1.391 . S
C557 H545 0.950 . S
C557 C553 1.393 . S
C557 C556 1.391 . S
C558 H548 0.950 . S
C558 C559 1.386 . S
C558 C560 1.391 . S
C559 C558 1.386 . S
C559 C563 1.393 . S
C560 H549 0.950 . S
C560 C558 1.391 . S
C560 C561 1.400 . S
C561 C555 1.491 . S
C561 C560 1.400 . S
C561 C562 1.398 . S
C562 H550 0.950 . S
C562 C561 1.398 . S
C562 C563 1.391 . S
C563 H551 0.950 . S
C563 C559 1.393 . S
C563 C562 1.391 . S
H564 C572 0.950 . S
H565 C577 0.950 . S
H566 C574 0.950 . S
H567 C576 0.950 . S
H568 C578 0.948 1_545 S
H569 C580 0.950 . S
H570 C582 0.950 . S
H571 C583 0.950 . S
C572 H564 0.950 . S
C572 C573 1.386 . S
C572 C574 1.391 . S
C573 C572 1.386 . S
C573 C577 1.393 . S
C574 H566 0.950 . S
C574 C572 1.391 . S
C574 C575 1.400 . S
C575 C574 1.400 . S
C575 C576 1.398 . S
C575 C581 1.491 . S
C576 H567 0.950 . S
C576 C575 1.398 . S
C576 C577 1.391 . S
C577 H565 0.950 . S
C577 C573 1.393 . S
C577 C576 1.391 . S
C578 H568 0.948 1_565 S
C578 C579 1.389 . S
C578 C580 1.389 1_565 S
C579 C578 1.389 . S
C579 C583 1.393 . S
C580 H569 0.950 . S
C580 C578 1.389 1_545 S
C580 C581 1.400 . S
C581 C575 1.491 . S
C581 C580 1.400 . S
C581 C582 1.398 1_545 S
C582 H570 0.950 . S
C582 C581 1.398 1_565 S
C582 C583 1.391 . S
C583 H571 0.950 . S
C583 C579 1.393 . S
C583 C582 1.391 . S
H584 C592 0.950 . S
H585 C597 0.950 . S
H586 C594 0.950 . S
H587 C596 0.950 . S
H588 C598 0.950 . S
H589 C600 0.950 . S
H590 C602 0.950 . S
H591 C603 0.950 . S
C592 H584 0.950 . S
C592 C593 1.386 . S
C592 C594 1.391 . S
C593 C592 1.386 . S
C593 C597 1.393 . S
C594 H586 0.950 . S
C594 C592 1.391 . S
C594 C595 1.400 1_556 S
C595 C594 1.400 1_554 S
C595 C596 1.398 . S
C595 C601 1.491 . S
C596 H587 0.950 . S
C596 C595 1.398 . S
C596 C597 1.391 1_554 S
C597 H585 0.950 . S
C597 C593 1.393 . S
C597 C596 1.391 1_556 S
C598 H588 0.950 . S
C598 C599 1.386 . S
C598 C600 1.391 . S
C599 C598 1.386 . S
C599 C603 1.393 . S
C600 H589 0.950 . S
C600 C598 1.391 . S
C600 C601 1.400 . S
C601 C595 1.491 . S
C601 C600 1.400 . S
C601 C602 1.398 . S
C602 H590 0.950 . S
C602 C601 1.398 . S
C602 C603 1.391 . S
C603 H591 0.950 . S
C603 C599 1.393 . S
C603 C602 1.391 . S
H604 C612 0.950 . S
H605 C617 0.950 . S
H606 C614 0.950 . S
H607 C616 0.950 . S
H608 C618 0.950 . S
H609 C620 0.950 . S
H610 C622 0.950 . S
H611 C623 0.950 . S
C612 H604 0.950 . S
C612 C613 1.386 . S
C612 C614 1.391 . S
C613 C612 1.386 . S
C613 C617 1.393 . S
C614 H606 0.950 . S
C614 C612 1.391 . S
C614 C615 1.400 . S
C615 C614 1.400 . S
C615 C616 1.398 . S
C615 C621 1.491 . S
C616 H607 0.950 . S
C616 C615 1.398 . S
C616 C617 1.391 . S
C617 H605 0.950 . S
C617 C613 1.393 . S
C617 C616 1.391 . S
C618 H608 0.950 . S
C618 C619 1.386 . S
C618 C620 1.391 . S
C619 C618 1.386 . S
C619 C623 1.393 . S
C620 H609 0.950 . S
C620 C618 1.391 . S
C620 C621 1.400 . S
C621 C615 1.491 . S
C621 C620 1.400 . S
C621 C622 1.398 . S
C622 H610 0.950 . S
C622 C621 1.398 . S
C622 C623 1.391 . S
C623 H611 0.950 . S
C623 C619 1.393 . S
C623 C622 1.391 . S
H624 C632 0.950 . S
H625 C637 0.950 . S
H626 C634 0.950 1_556 S
H627 C636 0.950 . S
H628 C638 0.950 . S
H629 C640 0.950 . S
H630 C642 0.950 . S
H631 C643 0.950 . S
C632 H624 0.950 . S
C632 C633 1.386 . S
C632 C634 1.391 . S
C633 C632 1.386 . S
C633 C637 1.393 . S
C634 H626 0.950 1_554 S
C634 C632 1.391 . S
C634 C635 1.400 1_554 S
C635 C634 1.400 1_556 S
C635 C636 1.398 1_556 S
C635 C641 1.491 . S
C636 H627 0.950 . S
C636 C635 1.398 1_554 S
C636 C637 1.391 . S
C637 H625 0.950 . S
C637 C633 1.393 . S
C637 C636 1.391 . S
C638 H628 0.950 . S
C638 C639 1.386 . S
C638 C640 1.391 . S
C639 C638 1.386 . S
C639 C643 1.393 . S
C640 H629 0.950 . S
C640 C638 1.391 . S
C640 C641 1.400 . S
C641 C635 1.491 . S
C641 C640 1.400 . S
C641 C642 1.398 . S
C642 H630 0.950 . S
C642 C641 1.398 . S
C642 C643 1.391 . S
C643 H631 0.950 . S
C643 C639 1.393 . S
C643 C642 1.391 . S
H644 C652 0.950 . S
H645 C657 0.950 . S
H646 C654 0.950 . S
H647 C656 0.950 . S
H648 C658 0.950 . S
H649 C660 0.950 . S
H650 C662 0.950 . S
H651 C663 0.950 . S
C652 H644 0.950 . S
C652 C653 1.386 . S
C652 C654 1.391 . S
C653 C652 1.386 . S
C653 C657 1.393 . S
C654 H646 0.950 . S
C654 C652 1.391 . S
C654 C655 1.400 . S
C655 C654 1.400 . S
C655 C656 1.398 . S
C655 C661 1.491 . S
C656 H647 0.950 . S
C656 C655 1.398 . S
C656 C657 1.391 . S
C657 H645 0.950 . S
C657 C653 1.393 . S
C657 C656 1.391 . S
C658 H648 0.950 . S
C658 C659 1.386 . S
C658 C660 1.391 . S
C659 C658 1.386 . S
C659 C663 1.393 . S
C660 H649 0.950 . S
C660 C658 1.391 . S
C660 C661 1.400 . S
C661 C655 1.491 . S
C661 C660 1.400 . S
C661 C662 1.398 . S
C662 H650 0.950 . S
C662 C661 1.398 . S
C662 C663 1.391 . S
C663 H651 0.950 . S
C663 C659 1.393 . S
C663 C662 1.391 . S
H664 C672 0.950 . S
H665 C677 0.950 . S
H666 C674 0.943 1_556 S
H667 C676 0.950 . S
H668 C678 0.950 . S
H669 C680 0.950 . S
H670 C682 0.950 . S
H671 C683 0.950 . S
C672 H664 0.950 . S
C672 C673 1.386 . S
C672 C674 1.400 . S
C673 C672 1.386 . S
C673 C677 1.393 . S
C674 H666 0.943 1_554 S
C674 C672 1.400 . S
C674 C675 1.398 1_554 S
C675 C674 1.398 1_556 S
C675 C676 1.398 1_556 S
C675 C681 1.491 . S
C676 H667 0.950 . S
C676 C675 1.398 1_554 S
C676 C677 1.391 . S
C677 H665 0.950 . S
C677 C673 1.393 . S
C677 C676 1.391 . S
C678 H668 0.950 . S
C678 C679 1.386 . S
C678 C680 1.391 . S
C679 C678 1.386 . S
C679 C683 1.393 . S
C680 H669 0.950 . S
C680 C678 1.391 . S
C680 C681 1.400 . S
C681 C675 1.491 . S
C681 C680 1.400 . S
C681 C682 1.398 . S
C682 H670 0.950 . S
C682 C681 1.398 . S
C682 C683 1.391 . S
C683 H671 0.950 . S
C683 C679 1.393 . S
C683 C682 1.391 . S
H684 C692 0.950 . S
H685 C697 0.950 . S
H686 C694 0.950 . S
H687 C696 0.950 . S
H688 C698 0.950 . S
H689 C700 0.950 . S
H690 C702 0.950 . S
H691 C703 0.950 . S
C692 H684 0.950 . S
C692 C693 1.386 . S
C692 C694 1.391 . S
C693 C692 1.386 . S
C693 C697 1.393 . S
C694 H686 0.950 . S
C694 C692 1.391 . S
C694 C695 1.400 . S
C695 C694 1.400 . S
C695 C696 1.398 . S
C695 C701 1.491 . S
C696 H687 0.950 . S
C696 C695 1.398 . S
C696 C697 1.391 . S
C697 H685 0.950 . S
C697 C693 1.393 . S
C697 C696 1.391 . S
C698 H688 0.950 . S
C698 C699 1.386 . S
C698 C700 1.391 . S
C699 C698 1.386 . S
C699 C703 1.393 . S
C700 H689 0.950 . S
C700 C698 1.391 . S
C700 C701 1.400 . S
C701 C695 1.491 . S
C701 C700 1.400 . S
C701 C702 1.398 . S
C702 H690 0.950 . S
C702 C701 1.398 . S
C702 C703 1.391 . S
C703 H691 0.950 . S
C703 C699 1.393 . S
C703 C702 1.391 . S
H704 C712 0.950 . S
H705 C717 0.950 . S
H706 C714 0.950 . S
H707 C716 0.950 1_554 S
H708 C718 0.950 . S
H709 C720 0.950 . S
H710 C722 0.950 . S
H711 C723 0.950 . S
C712 H704 0.950 . S
C712 C713 1.386 . S
C712 C714 1.391 . S
C713 C712 1.386 . S
C713 C717 1.393 . S
C714 H706 0.950 . S
C714 C712 1.391 . S
C714 C715 1.400 1_556 S
C715 C714 1.400 1_554 S
C715 C716 1.398 1_554 S
C715 C721 1.491 . S
C716 H707 0.950 1_556 S
C716 C715 1.398 1_556 S
C716 C717 1.391 . S
C717 H705 0.950 . S
C717 C713 1.393 . S
C717 C716 1.391 . S
C718 H708 0.950 . S
C718 C719 1.386 . S
C718 C720 1.391 . S
C719 C718 1.386 . S
C719 C723 1.393 . S
C720 H709 0.950 . S
C720 C718 1.391 . S
C720 C721 1.400 . S
C721 C715 1.491 . S
C721 C720 1.400 . S
C721 C722 1.398 . S
C722 H710 0.950 . S
C722 C721 1.398 . S
C722 C723 1.391 . S
C723 H711 0.950 . S
C723 C719 1.393 . S
C723 C722 1.391 . S
H724 C732 0.950 . S
H725 C737 0.950 . S
H726 C734 0.950 . S
H727 C736 0.950 . S
H728 C738 0.950 . S
H729 C740 0.950 . S
H730 C742 0.950 . S
H731 C743 0.950 . S
C732 H724 0.950 . S
C732 C733 1.386 . S
C732 C734 1.391 . S
C733 C732 1.386 . S
C733 C737 1.393 . S
C734 H726 0.950 . S
C734 C732 1.391 . S
C734 C735 1.400 . S
C735 C734 1.400 . S
C735 C736 1.398 . S
C735 C741 1.491 . S
C736 H727 0.950 . S
C736 C735 1.398 . S
C736 C737 1.391 . S
C737 H725 0.950 . S
C737 C733 1.393 . S
C737 C736 1.391 . S
C738 H728 0.950 . S
C738 C739 1.386 . S
C738 C740 1.391 . S
C739 C738 1.386 . S
C739 C743 1.393 . S
C740 H729 0.950 . S
C740 C738 1.391 . S
C740 C741 1.400 . S
C741 C735 1.491 . S
C741 C740 1.400 . S
C741 C742 1.398 . S
C742 H730 0.950 . S
C742 C741 1.398 . S
C742 C743 1.391 . S
C743 H731 0.950 . S
C743 C739 1.393 . S
C743 C742 1.391 . S
H744 C752 0.950 . S
H745 C757 0.950 . S
H746 C754 0.950 . S
H747 C756 0.950 . S
H748 C758 0.950 . S
H749 C760 0.950 . S
H750 C762 0.950 . S
H751 C763 0.950 . S
C752 H744 0.950 . S
C752 C753 1.386 . S
C752 C754 1.391 . S
C753 C752 1.386 . S
C753 C757 1.393 . S
C754 H746 0.950 . S
C754 C752 1.391 . S
C754 C755 1.400 . S
C755 C754 1.400 . S
C755 C756 1.398 . S
C755 C761 1.491 . S
C756 H747 0.950 . S
C756 C755 1.398 . S
C756 C757 1.391 . S
C757 H745 0.950 . S
C757 C753 1.393 . S
C757 C756 1.391 . S
C758 H748 0.950 . S
C758 C759 1.386 . S
C758 C760 1.391 . S
C759 C758 1.386 . S
C759 C763 1.393 . S
C760 H749 0.950 . S
C760 C758 1.391 . S
C760 C761 1.400 . S
C761 C755 1.491 . S
C761 C760 1.400 . S
C761 C762 1.398 . S
C762 H750 0.950 . S
C762 C761 1.398 . S
C762 C763 1.391 . S
C763 H751 0.950 . S
C763 C759 1.393 . S
C763 C762 1.391 . S
H764 C772 0.950 . S
H765 C777 0.950 . S
H766 C774 0.950 . S
H767 C776 0.950 . S
H768 C778 0.950 . S
H769 C780 0.950 . S
H770 C782 0.950 . S
H771 C783 0.950 . S
C772 H764 0.950 . S
C772 C773 1.386 . S
C772 C774 1.391 . S
C773 C772 1.386 . S
C773 C777 1.393 . S
C774 H766 0.950 . S
C774 C772 1.391 . S
C774 C775 1.400 . S
C775 C774 1.400 . S
C775 C776 1.398 . S
C775 C781 1.491 . S
C776 H767 0.950 . S
C776 C775 1.398 . S
C776 C777 1.391 . S
C777 H765 0.950 . S
C777 C773 1.393 . S
C777 C776 1.391 . S
C778 H768 0.950 . S
C778 C779 1.386 . S
C778 C780 1.391 . S
C779 C778 1.386 . S
C779 C783 1.393 . S
C780 H769 0.950 . S
C780 C778 1.391 . S
C780 C781 1.400 . S
C781 C775 1.491 . S
C781 C780 1.400 . S
C781 C782 1.398 . S
C782 H770 0.950 . S
C782 C781 1.398 . S
C782 C783 1.391 . S
C783 H771 0.950 . S
C783 C779 1.393 . S
C783 C782 1.391 . S
H784 C792 0.950 . S
H785 C797 0.950 . S
H786 C794 0.950 . S
H787 C796 0.950 . S
H788 C798 0.950 . S
H789 C800 0.950 . S
H790 C802 0.950 . S
H791 C803 0.950 . S
C792 H784 0.950 . S
C792 C793 1.386 . S
C792 C794 1.391 . S
C793 C792 1.386 . S
C793 C797 1.393 . S
C794 H786 0.950 . S
C794 C792 1.391 . S
C794 C795 1.400 . S
C795 C794 1.400 . S
C795 C796 1.398 . S
C795 C801 1.491 . S
C796 H787 0.950 . S
C796 C795 1.398 . S
C796 C797 1.391 . S
C797 H785 0.950 . S
C797 C793 1.393 . S
C797 C796 1.391 . S
C798 H788 0.950 . S
C798 C799 1.386 . S
C798 C800 1.391 . S
C799 C798 1.386 . S
C799 C803 1.393 . S
C800 H789 0.950 . S
C800 C798 1.391 . S
C800 C801 1.400 . S
C801 C795 1.491 . S
C801 C800 1.400 . S
C801 C802 1.398 . S
C802 H790 0.950 . S
C802 C801 1.398 . S
C802 C803 1.391 . S
C803 H791 0.950 . S
C803 C799 1.393 . S
C803 C802 1.391 . S
H804 C812 0.950 . S
H805 C817 0.950 . S
H806 C814 0.950 . S
H807 C816 0.950 . S
H808 C818 0.950 . S
H809 C820 0.950 . S
H810 C822 0.950 . S
H811 C823 0.950 . S
C812 H804 0.950 . S
C812 C813 1.386 . S
C812 C814 1.391 . S
C813 C812 1.386 . S
C813 C817 1.393 . S
C814 H806 0.950 . S
C814 C812 1.391 . S
C814 C815 1.400 . S
C815 C814 1.400 . S
C815 C816 1.398 . S
C815 C821 1.491 . S
C816 H807 0.950 . S
C816 C815 1.398 . S
C816 C817 1.391 . S
C817 H805 0.950 . S
C817 C813 1.393 . S
C817 C816 1.391 . S
C818 H808 0.950 . S
C818 C819 1.386 . S
C818 C820 1.391 . S
C819 C818 1.386 . S
C819 C823 1.393 . S
C820 H809 0.950 . S
C820 C818 1.391 . S
C820 C821 1.400 . S
C821 C815 1.491 . S
C821 C820 1.400 . S
C821 C822 1.398 . S
C822 H810 0.950 . S
C822 C821 1.398 . S
C822 C823 1.391 . S
C823 H811 0.950 . S
C823 C819 1.393 . S
C823 C822 1.391 . S
H824 C832 0.950 . S
H825 C837 0.950 . S
H826 C834 0.950 . S
H827 C836 0.950 . S
H828 C838 0.950 . S
H829 C840 0.950 . S
H830 C842 0.950 . S
H831 C843 0.950 . S
C832 H824 0.950 . S
C832 C833 1.386 . S
C832 C834 1.391 . S
C833 C832 1.386 . S
C833 C837 1.393 . S
C834 H826 0.950 . S
C834 C832 1.391 . S
C834 C835 1.400 . S
C835 C834 1.400 . S
C835 C836 1.398 . S
C835 C841 1.491 . S
C836 H827 0.950 . S
C836 C835 1.398 . S
C836 C837 1.391 . S
C837 H825 0.950 . S
C837 C833 1.393 . S
C837 C836 1.391 . S
C838 H828 0.950 . S
C838 C839 1.386 . S
C838 C840 1.391 . S
C839 C838 1.386 . S
C839 C843 1.393 . S
C840 H829 0.950 . S
C840 C838 1.391 . S
C840 C841 1.400 . S
C841 C835 1.491 . S
C841 C840 1.400 . S
C841 C842 1.398 . S
C842 H830 0.950 . S
C842 C841 1.398 . S
C842 C843 1.391 . S
C843 H831 0.950 . S
C843 C839 1.393 . S
C843 C842 1.391 . S
H844 C852 0.950 . S
H845 C857 0.950 . S
H846 C854 0.950 . S
H847 C856 0.950 . S
H848 C858 0.950 . S
H849 C860 0.950 . S
H850 C862 0.950 . S
H851 C863 0.950 . S
C852 H844 0.950 . S
C852 C853 1.386 . S
C852 C854 1.391 . S
C853 C852 1.386 . S
C853 C857 1.393 . S
C854 H846 0.950 . S
C854 C852 1.391 . S
C854 C855 1.400 . S
C855 C854 1.400 . S
C855 C856 1.398 . S
C855 C861 1.491 . S
C856 H847 0.950 . S
C856 C855 1.398 . S
C856 C857 1.391 . S
C857 H845 0.950 . S
C857 C853 1.393 . S
C857 C856 1.391 . S
C858 H848 0.950 . S
C858 C859 1.386 . S
C858 C860 1.391 . S
C859 C858 1.386 . S
C859 C863 1.393 . S
C860 H849 0.950 . S
C860 C858 1.391 . S
C860 C861 1.400 . S
C861 C855 1.491 . S
C861 C860 1.400 . S
C861 C862 1.398 . S
C862 H850 0.950 . S
C862 C861 1.398 . S
C862 C863 1.391 . S
C863 H851 0.950 . S
C863 C859 1.393 . S
C863 C862 1.391 . S
H864 C872 0.950 . S
H865 C877 0.950 . S
H866 C874 0.950 . S
H867 C876 0.950 . S
H868 C878 0.950 . S
H869 C880 0.950 . S
H870 C882 0.950 . S
H871 C883 0.950 . S
C872 H864 0.950 . S
C872 C873 1.386 . S
C872 C874 1.391 . S
C873 C872 1.386 . S
C873 C877 1.393 . S
C874 H866 0.950 . S
C874 C872 1.391 . S
C874 C875 1.400 . S
C875 C874 1.400 . S
C875 C876 1.398 . S
C875 C881 1.491 . S
C876 H867 0.950 . S
C876 C875 1.398 . S
C876 C877 1.391 . S
C877 H865 0.950 . S
C877 C873 1.393 . S
C877 C876 1.391 . S
C878 H868 0.950 . S
C878 C879 1.386 . S
C878 C880 1.391 . S
C879 C878 1.386 . S
C879 C883 1.393 . S
C880 H869 0.950 . S
C880 C878 1.391 . S
C880 C881 1.400 . S
C881 C875 1.491 . S
C881 C880 1.400 . S
C881 C882 1.398 . S
C882 H870 0.950 . S
C882 C881 1.398 . S
C882 C883 1.391 . S
C883 H871 0.950 . S
C883 C879 1.393 . S
C883 C882 1.391 . S
H884 C892 0.950 . S
H885 C897 0.950 . S
H886 C894 0.950 . S
H887 C896 0.950 . S
H888 C898 0.950 . S
H889 C900 0.950 . S
H890 C902 0.950 . S
H891 C903 0.950 . S
C892 H884 0.950 . S
C892 C893 1.386 . S
C892 C894 1.391 . S
C893 C892 1.386 . S
C893 C897 1.393 . S
C894 H886 0.950 . S
C894 C892 1.391 . S
C894 C895 1.400 . S
C895 C894 1.400 . S
C895 C896 1.398 . S
C895 C901 1.491 . S
C896 H887 0.950 . S
C896 C895 1.398 . S
C896 C897 1.391 . S
C897 H885 0.950 . S
C897 C893 1.393 . S
C897 C896 1.391 . S
C898 H888 0.950 . S
C898 C899 1.386 . S
C898 C900 1.391 . S
C899 C898 1.386 . S
C899 C903 1.393 . S
C900 H889 0.950 . S
C900 C898 1.391 . S
C900 C901 1.400 . S
C901 C895 1.491 . S
C901 C900 1.400 . S
C901 C902 1.398 . S
C902 H890 0.950 . S
C902 C901 1.398 . S
C902 C903 1.391 . S
C903 H891 0.950 . S
C903 C899 1.393 . S
C903 C902 1.391 . S
C433 C71 1.664 . S
C439 C162 1.642 . S
C459 C246 1.628 . S
C453 C81 1.634 . S
C479 C239 1.662 . S
C473 C49 1.661 . S
C493 C59 1.638 . S
C499 C155 1.638 . S
C519 C319 1.646 . S
C513 C27 1.664 . S
C539 C403 1.696 . S
C533 C38 1.708 . S
C553 C5 1.653 . S
C559 C396 1.659 . S
C573 C16 1.692 . S
C579 C312 1.701 . S
C599 C146 1.424 . S
C593 C15 1.564 . S
C619 C230 1.399 . S
C613 C4 1.570 . S
C639 C241 1.391 . S
C633 C37 1.571 . S
C659 C157 1.391 . S
C653 C26 1.585 . S
C679 C325 1.467 . S
C673 C60 1.603 . S
C693 C48 1.640 . S
C699 C409 1.463 . S
C719 C398 1.440 . S
C713 C82 1.626 . S
C733 C70 1.647 . S
C739 C314 1.443 . S
C759 C144 1.498 . S
C753 C10 1.484 . S
C779 C228 1.546 . S
C773 C21 1.543 . S
C793 C32 1.479 . S
C799 C235 1.475 . S
C819 C151 1.518 . S
C813 C43 1.532 . S
C839 C323 1.590 . S
C833 C54 1.574 . S
C853 C65 1.546 . S
C859 C407 1.541 . S
C873 C76 1.583 . S
C879 C414 1.558 . S
C893 C87 1.538 . S
C899 C330 1.507 . S
