# Generated by pormake.
# Topology zzz, (3,6)-cn, num edge types: 1
# Building blocks:
#     Node 0, Type 0, BuildingBlock: BELTOD_clean_linker_0, # of connection points: 3
#     Node 1, Type 0, BuildingBlock: BELTOD_clean_linker_0, # of connection points: 3
#     Node 2, Type 0, BuildingBlock: BELTOD_clean_linker_0, # of connection points: 3
#     Node 3, Type 0, BuildingBlock: BELTOD_clean_linker_0, # of connection points: 3
#     Node 4, Type 0, BuildingBlock: BELTOD_clean_linker_0, # of connection points: 3
#     Node 5, Type 0, BuildingBlock: BELTOD_clean_linker_0, # of connection points: 3
#     Node 6, Type 0, BuildingBlock: BELTOD_clean_linker_0, # of connection points: 3
#     Node 7, Type 0, BuildingBlock: BELTOD_clean_linker_0, # of connection points: 3
#     Node 8, Type 1, BuildingBlock: KUMBOL_clean_sbu_0, # of connection points: 6
#     Node 9, Type 1, BuildingBlock: KUMBOL_clean_sbu_0, # of connection points: 6
#     Node 10, Type 1, BuildingBlock: KUMBOL_clean_sbu_0, # of connection points: 6
#     Node 11, Type 1, BuildingBlock: KUMBOL_clean_sbu_0, # of connection points: 6
#     Edge 12, Type (0, 1), BuildingBlock: AJUNOK_clean_linker_0, # of connection points: 2
#     Edge 13, Type (0, 1), BuildingBlock: AJUNOK_clean_linker_0, # of connection points: 2
#     Edge 14, Type (0, 1), BuildingBlock: AJUNOK_clean_linker_0, # of connection points: 2
#     Edge 15, Type (0, 1), BuildingBlock: AJUNOK_clean_linker_0, # of connection points: 2
#     Edge 16, Type (0, 1), BuildingBlock: AJUNOK_clean_linker_0, # of connection points: 2
#     Edge 17, Type (0, 1), BuildingBlock: AJUNOK_clean_linker_0, # of connection points: 2
#     Edge 18, Type (0, 1), BuildingBlock: AJUNOK_clean_linker_0, # of connection points: 2
#     Edge 19, Type (0, 1), BuildingBlock: AJUNOK_clean_linker_0, # of connection points: 2
#     Edge 20, Type (0, 1), BuildingBlock: AJUNOK_clean_linker_0, # of connection points: 2
#     Edge 21, Type (0, 1), BuildingBlock: AJUNOK_clean_linker_0, # of connection points: 2
#     Edge 22, Type (0, 1), BuildingBlock: AJUNOK_clean_linker_0, # of connection points: 2
#     Edge 23, Type (0, 1), BuildingBlock: AJUNOK_clean_linker_0, # of connection points: 2
#     Edge 24, Type (0, 1), BuildingBlock: AJUNOK_clean_linker_0, # of connection points: 2
#     Edge 25, Type (0, 1), BuildingBlock: AJUNOK_clean_linker_0, # of connection points: 2
#     Edge 26, Type (0, 1), BuildingBlock: AJUNOK_clean_linker_0, # of connection points: 2
#     Edge 27, Type (0, 1), BuildingBlock: AJUNOK_clean_linker_0, # of connection points: 2
#     Edge 28, Type (0, 1), BuildingBlock: AJUNOK_clean_linker_0, # of connection points: 2
#     Edge 29, Type (0, 1), BuildingBlock: AJUNOK_clean_linker_0, # of connection points: 2
#     Edge 30, Type (0, 1), BuildingBlock: AJUNOK_clean_linker_0, # of connection points: 2
#     Edge 31, Type (0, 1), BuildingBlock: AJUNOK_clean_linker_0, # of connection points: 2
#     Edge 32, Type (0, 1), BuildingBlock: AJUNOK_clean_linker_0, # of connection points: 2
#     Edge 33, Type (0, 1), BuildingBlock: AJUNOK_clean_linker_0, # of connection points: 2
#     Edge 34, Type (0, 1), BuildingBlock: AJUNOK_clean_linker_0, # of connection points: 2
#     Edge 35, Type (0, 1), BuildingBlock: AJUNOK_clean_linker_0, # of connection points: 2
# Relax obj value: 0.330
# Max RMSD: 0.212
# Mean RMSD: 0.205
data_MOF--net-zzz--node1-KUMBOL_clean_sbu_0--node2-BELTOD_clean_linker_0--edge1-AJUNOK_clean_linker_0
_symmetry_space_group_name_H-M    P1
_symmetry_Int_Tables_number       1
_symmetry_cell_setting            triclinic
loop_
_symmetry_equiv_pos_as_xyz
'x, y, z'
_cell_length_a     41.102114
_cell_length_b     40.921309
_cell_length_c     14.352423
_cell_angle_alpha  90.763493
_cell_angle_beta   89.992332
_cell_angle_gamma 89.937831
loop_
_atom_site_label
_atom_site_type_symbol
_atom_site_fract_x
_atom_site_fract_y
_atom_site_fract_z
_atom_type_partial_charge
P0 P 0.73103 0.51355 0.26045 0.0
H1 H 0.74816 0.48018 0.43429 0.0
H2 H 0.79724 0.48258 0.53078 0.0
H3 H 0.82527 0.57205 0.39799 0.0
H4 H 0.77648 0.56985 0.30281 0.0
H5 H 0.68126 0.46545 0.21296 0.0
H6 H 0.63151 0.47016 0.12738 0.0
H7 H 0.63079 0.5744 0.17728 0.0
H8 H 0.68303 0.56971 0.25954 0.0
H9 H 0.76034 0.48565 0.09266 0.0
H10 H 0.73364 0.58166 0.19439 0.0
O11 O 0.73863 0.47355 0.24941 0.0
H12 H 0.78907 0.50937 0.96564 0.0
H13 H 0.76254 0.60629 0.06408 0.0
C14 C 0.75779 0.52468 0.3594 0.0
C15 C 0.76406 0.50111 0.42797 0.0
C16 C 0.79267 0.50218 0.48251 0.0
C17 C 0.81585 0.52724 0.47181 0.0
C18 C 0.8082 0.55236 0.40909 0.0
C19 C 0.77975 0.55109 0.35393 0.0
C20 C 0.68688 0.51719 0.24349 0.0
C21 C 0.67048 0.48949 0.20855 0.0
C22 C 0.64144 0.49222 0.15838 0.0
C23 C 0.62679 0.52274 0.14241 0.0
C24 C 0.64161 0.55046 0.18436 0.0
C25 C 0.67136 0.54772 0.23374 0.0
C26 C 0.74637 0.53188 0.15605 0.0
C27 C 0.76006 0.51198 0.08673 0.0
C28 C 0.77597 0.52585 1.01178 0.0
C29 C 0.77872 0.56012 1.00464 0.0
C30 C 0.76123 0.57991 0.06791 0.0
C31 C 0.74505 0.56581 0.14309 0.0
P32 P 0.00786 0.77186 0.17182 0.0
H33 H 0.03969 0.7721 0.35976 0.0
H34 H 0.04513 0.81587 0.47917 0.0
H35 H 0.97483 0.87381 0.33331 0.0
H36 H 0.97128 0.83248 0.21318 0.0
H37 H 0.06096 0.7337 0.08711 0.0
H38 H 0.06053 0.68198 1.00399 0.0
H39 H 0.96761 0.659 0.12717 0.0
H40 H 0.96691 0.71284 0.20434 0.0
H41 H 1.00525 0.77401 0.97097 0.0
H42 H 0.93643 0.78219 0.19622 0.0
O43 O 0.04019 0.78955 0.12338 0.0
H44 H 0.96753 0.80014 0.86778 0.0
H45 H 0.89844 0.81098 0.09362 0.0
C46 C 1.00315 0.79703 0.27886 0.0
C47 C 0.0242 0.79344 0.35564 0.0
C48 C 0.02751 0.81871 0.42377 0.0
C49 C 0.00959 0.84811 0.41746 0.0
C50 C 0.98799 0.85118 0.34271 0.0
C51 C 0.98544 0.82662 0.27393 0.0
C52 C 0.01404 0.72778 0.1538 0.0
C53 C 0.04067 0.71746 0.09893 0.0
C54 C 0.04035 0.68745 0.05013 0.0
C55 C 0.01358 0.66606 0.05522 0.0
C56 C 0.98814 0.67507 0.11709 0.0
C57 C 0.98816 0.70564 0.16447 0.0
C58 C 0.97472 0.77931 0.09282 0.0
C59 C 0.98157 0.78101 0.9978 0.0
C60 C 0.95943 0.79561 0.93823 0.0
C61 C 0.93067 0.80989 0.9741 0.0
C62 C 0.92098 0.80154 0.06484 0.0
C63 C 0.94292 0.78568 0.12392 0.0
P64 P 0.77246 0.00994 0.24147 0.0
H65 H 0.76483 0.01363 0.44867 0.0
H66 H 0.7154 0.01572 0.54628 0.0
H67 H 0.65791 0.98539 0.31012 0.0
H68 H 0.7059 0.98357 0.21429 0.0
H69 H 0.82995 0.05229 0.2409 0.0
H70 H 0.87952 0.04647 0.15183 0.0
H71 H 0.86312 0.94258 0.1268 0.0
H72 H 0.812 0.94893 0.21322 0.0
H73 H 0.76805 0.04593 0.06869 0.0
H74 H 0.75533 0.94638 0.15606 0.0
O75 O 0.76922 0.0506 0.2469 0.0
H76 H 0.74677 0.03197 0.91671 0.0
H77 H 0.73423 0.93166 1.00116 0.0
C78 C 0.74028 0.99726 0.32328 0.0
C79 C 0.7419 1.0058 0.41878 0.0
C80 C 0.71339 1.00738 0.47466 0.0
C81 C 0.68237 1.00103 0.43608 0.0
C82 C 0.68114 0.99057 0.34258 0.0
C83 C 0.70932 0.98894 0.2874 0.0
C84 C 0.81621 1.00121 0.23366 0.0
C85 C 0.8372 0.02788 0.21965 0.0
C86 C 0.8659 0.02455 0.16718 0.0
C87 C 0.87509 0.99426 0.12743 0.0
C88 C 0.85629 0.96671 0.15167 0.0
C89 C 0.82725 0.97017 0.20388 0.0
C90 C 0.76109 0.9977 0.12519 0.0
C91 C 0.76097 0.02087 0.0547 0.0
C92 C 0.74955 0.01251 0.9665 0.0
C93 C 0.73798 0.9807 0.94716 0.0
C94 C 0.74235 0.95645 0.01446 0.0
C95 C 0.75396 0.96494 0.10313 0.0
P96 P 0.51348 0.79696 0.31494 0.0
H97 H 0.46337 0.76798 0.43516 0.0
H98 H 0.46381 0.71889 0.52807 0.0
H99 H 0.56852 0.71685 0.5168 0.0
H100 H 0.5682 0.76731 0.42624 0.0
H101 H 0.48499 0.86194 0.34807 0.0
H102 H 0.48937 0.91084 0.25262 0.0
H103 H 0.57764 0.87339 0.13015 0.0
H104 H 0.5733 0.82446 0.2244 0.0
H105 H 0.48261 0.76473 0.15539 0.0
H106 H 0.57907 0.77016 0.27352 0.0
O107 O 0.47364 0.80054 0.29402 0.0
H108 H 0.49868 0.71797 0.063 0.0
H109 H 0.59557 0.72277 0.17964 0.0
C110 C 0.51578 0.77173 0.42032 0.0
C111 C 0.48673 0.7581 0.45501 0.0
C112 C 0.48689 0.72954 0.50857 0.0
C113 C 0.51614 0.71331 0.52918 0.0
C114 C 0.54542 0.7283 0.50117 0.0
C115 C 0.54525 0.75739 0.44902 0.0
C116 C 0.52828 0.8385 0.293 0.0
C117 C 0.50627 0.86469 0.30438 0.0
C118 C 0.50861 0.89275 0.24901 0.0
C119 C 0.53358 0.89579 0.18265 0.0
C120 C 0.55807 0.87179 0.18044 0.0
C121 C 0.55551 0.84354 0.2351 0.0
C122 C 0.52913 0.77023 0.22469 0.0
C123 C 0.50757 0.75651 0.15994 0.0
C124 C 0.51704 0.72975 0.10586 0.0
C125 C 0.5483 0.71607 0.11566 0.0
C126 C 0.5711 0.73223 0.17243 0.0
C127 C 0.56154 0.75923 0.22656 0.0
P128 P 0.28498 0.45484 0.10377 0.0
H129 H 0.27216 0.45385 0.90294 0.0
H130 H 0.22439 0.47205 0.81911 0.0
H131 H 0.19709 0.53318 0.05357 0.0
H132 H 0.24533 0.51455 0.13823 0.0
H133 H 0.33116 0.41537 0.2028 0.0
H134 H 0.37482 0.42605 0.31122 0.0
H135 H 0.35502 0.52963 0.29758 0.0
H136 H 0.31095 0.5183 0.18481 0.0
H137 H 0.23452 0.40668 0.06179 0.0
H138 H 0.25929 0.47363 0.28479 0.0
O139 O 0.29908 0.42395 0.03812 0.0
H140 H 0.17786 0.40666 0.11356 0.0
H141 H 0.2033 0.47585 0.33211 0.0
C142 C 0.2629 0.48267 0.02776 0.0
C143 C 0.25702 0.47244 0.93532 0.0
C144 C 0.22923 0.48281 0.88701 0.0
C145 C 0.20641 0.50399 0.92933 0.0
C146 C 0.21384 0.5166 0.01878 0.0
C147 C 0.2419 0.50637 0.06687 0.0
C148 C 0.31797 0.46596 0.18361 0.0
C149 C 0.33619 0.44051 0.22238 0.0
C150 C 0.3612 0.44675 0.28637 0.0
C151 C 0.36891 0.47885 0.31533 0.0
C152 C 0.35025 0.50454 0.27695 0.0
C153 C 0.32495 0.49817 0.2122 0.0
C154 C 0.25122 0.43994 0.17004 0.0
C155 C 0.22818 0.41992 0.12507 0.0
C156 C 0.19562 0.42042 0.15365 0.0
C157 C 0.1857 0.44129 0.22687 0.0
C158 C 0.20973 0.45853 0.27753 0.0
C159 C 0.2422 0.45739 0.25028 0.0
P160 P 0.08349 0.28815 0.09819 0.0
H161 H 0.07426 0.27105 0.89993 0.0
H162 H 0.0569 0.22056 0.82339 0.0
H163 H 0.01999 0.18554 0.08478 0.0
H164 H 0.0379 0.23636 0.16207 0.0
H165 H 0.11592 0.34622 0.16847 0.0
H166 H 0.10279 0.38841 0.2842 0.0
H167 H 0.00819 0.34528 0.32325 0.0
H168 H 0.02174 0.30232 0.20639 0.0
H169 H 0.13034 0.23856 0.03998 0.0
H170 H 0.09206 0.27693 0.29901 0.0
O171 O 0.10664 0.30586 0.01777 0.0
H172 H 0.13898 0.18576 0.11263 0.0
H173 H 0.10143 0.22506 0.37169 0.0
C174 C 0.05727 0.25828 0.03754 0.0
C175 C 0.0616 0.25311 0.94109 0.0
C176 C 0.05227 0.22359 0.89726 0.0
C177 C 0.03829 0.19794 0.94818 0.0
C178 C 0.03124 0.20426 0.04312 0.0
C179 C 0.04096 0.23378 0.08739 0.0
C180 C 0.06964 0.32123 0.17639 0.0
C181 C 0.09207 0.34591 0.2005 0.0
C182 C 0.08467 0.37 0.26774 0.0
C183 C 0.05443 0.37044 0.31346 0.0
C184 C 0.03161 0.34594 0.2888 0.0
C185 C 0.03927 0.32137 0.22168 0.0
C186 C 0.10941 0.2613 0.16307 0.0
C187 C 0.126 0.23646 0.11411 0.0
C188 C 0.13118 0.20622 0.15587 0.0
C189 C 0.11968 0.20092 0.24662 0.0
C190 C 0.11015 0.22814 0.3011 0.0
C191 C 0.1044 0.25808 0.25897 0.0
P192 P 0.25546 0.09517 0.11761 0.0
H193 H 0.29921 0.12371 0.98145 0.0
H194 H 0.3457 0.10201 0.89646 0.0
H195 H 0.31585 1.00402 0.96467 0.0
H196 H 0.27047 0.02644 0.05658 0.0
H197 H 0.18758 0.11796 0.11636 0.0
H198 H 0.14038 0.1037 0.21153 0.0
H199 H 0.19331 0.02199 0.32193 0.0
H200 H 0.24004 0.0353 0.22245 0.0
H201 H 0.3248 0.0799 0.15169 0.0
H202 H 0.24274 0.11565 0.31151 0.0
O203 O 0.24755 0.13359 0.0872 0.0
H204 H 0.35311 0.06761 0.29114 0.0
H205 H 0.27261 0.10498 0.45565 0.0
C206 C 0.28056 0.07685 0.02485 0.0
C207 C 0.30189 0.09743 0.97604 0.0
C208 C 0.32894 0.08488 0.92742 0.0
C209 C 0.3356 0.05111 0.92477 0.0
C210 C 0.31269 0.03026 0.96771 0.0
C211 C 0.28593 0.04298 0.01846 0.0
C212 C 0.21736 0.07719 0.15898 0.0
C213 C 0.18854 0.09582 0.15651 0.0
C214 C 0.1616 0.08798 0.21246 0.0
C215 C 0.16309 0.06179 0.27467 0.0
C216 C 0.19135 0.04226 0.2745 0.0
C217 C 0.21798 0.04961 0.21648 0.0
C218 C 0.28071 0.09712 0.22032 0.0
C219 C 0.31286 0.0859 0.21664 0.0
C220 C 0.32955 0.07927 0.29808 0.0
C221 C 0.3148 0.08419 0.38574 0.0
C222 C 0.28417 0.09952 0.38951 0.0
C223 C 0.26721 0.10592 0.30707 0.0
P224 P 0.43342 0.23113 0.058 0.0
H225 H 0.42376 0.24927 0.8618 0.0
H226 H 0.44246 0.29819 0.78257 0.0
H227 H 0.51697 0.3116 0.99089 0.0
H228 H 0.49783 0.26287 0.07103 0.0
H229 H 0.39588 0.17635 0.12722 0.0
H230 H 0.40774 0.13311 0.23734 0.0
H231 H 0.50895 0.16064 0.23752 0.0
H232 H 0.4969 0.20435 0.12591 0.0
H233 H 0.41239 0.29871 0.04482 0.0
H234 H 0.44394 0.23453 0.26324 0.0
O235 O 0.39722 0.22445 1.00865 0.0
H236 H 0.43246 0.34529 0.13252 0.0
H237 H 0.4612 0.28146 0.35569 0.0
C238 C 0.45914 0.25199 0.97342 0.0
C239 C 0.44516 0.26163 0.88845 0.0
C240 C 0.4557 0.29004 0.84322 0.0
C241 C 0.48052 0.30963 0.88185 0.0
C242 C 0.49719 0.29766 0.96031 0.0
C243 C 0.48675 0.26913 1.0052 0.0
C244 C 0.44553 0.19355 0.11626 0.0
C245 C 0.42089 0.17267 0.14829 0.0
C246 C 0.4276 0.14808 0.21258 0.0
C247 C 0.45919 0.14368 0.24767 0.0
C248 C 0.48433 0.16335 0.21187 0.0
C249 C 0.47752 0.18825 0.14742 0.0
C250 C 0.42829 0.26298 0.14486 0.0
C251 C 0.42185 0.29475 0.1142 0.0
C252 C 0.43323 0.32164 0.16522 0.0
C253 C 0.44961 0.31707 0.25009 0.0
C254 C 0.44987 0.28563 0.28874 0.0
C255 C 0.43978 0.25865 0.23581 0.0
Gd256 Gd 0.98464 0.02794 0.62304 0.0
Gd257 Gd 0.05382 0.01217 0.7742 0.0
C258 C 0.11103 0.08651 0.95124 0.0
C259 C 0.16439 0.08486 0.87879 0.0
C260 C 0.12085 0.04973 0.82134 0.0
C261 C 0.09989 0.0627 0.88683 0.0
C262 C 0.15361 0.06002 0.81789 0.0
C263 C 0.14302 0.09823 0.94495 0.0
C264 C 0.0899 0.09748 0.02094 0.0
C265 C 0.05868 0.08445 0.02615 0.0
N266 N 0.0689 0.05134 0.88949 0.0
C267 C 0.04866 0.06111 0.96023 0.0
H268 H 0.02447 0.05165 0.96614 0.0
C269 C 0.13046 0.00979 0.70455 0.0
N270 N 0.10955 0.02598 0.76349 0.0
C271 C 0.16314 0.01905 0.69861 0.0
C272 C 0.17468 0.04462 0.75462 0.0
H273 H 0.12186 0.99023 0.65991 0.0
H274 H 0.15147 0.11741 0.99149 0.0
H275 H 0.0111 0.98596 0.43528 0.0
H276 H 0.09785 0.11531 0.07213 0.0
H277 H 0.04224 0.0923 0.08088 0.0
H278 H 0.18928 0.09351 0.87629 0.0
H279 H 0.91945 0.05088 0.74872 0.0
H280 H 0.93649 0.91953 0.34841 0.0
H281 H 0.99121 0.94335 0.32661 0.0
H282 H 0.84887 0.94372 0.55746 0.0
H283 H 0.17932 1.0066 0.65034 0.0
H284 H 0.19999 0.05181 0.74982 0.0
H285 H 0.88396 0.91904 0.43678 0.0
H286 H 0.86233 0.03404 0.77024 0.0
N287 N 0.96883 0.98531 0.52082 0.0
C288 C 0.94532 0.93792 0.39711 0.0
C289 C 0.97611 0.95144 0.38428 0.0
C290 C 0.92575 0.94922 0.4705 0.0
C291 C 0.93817 0.97359 0.53129 0.0
C292 C 0.98734 0.97555 0.4463 0.0
N293 N 0.93026 0.01271 0.65119 0.0
C294 C 0.91828 0.9877 0.59851 0.0
C295 C 0.87783 0.02072 0.72199 0.0
C296 C 0.86555 0.99411 0.6714 0.0
C297 C 0.9102 0.03016 0.70964 0.0
C298 C 0.88564 0.97754 0.60768 0.0
H299 H 0.84038 0.987 0.68056 0.0
O300 O 0.95767 0.07195 0.58878 0.0
O301 O 0.02267 0.05106 0.71459 0.0
O302 O 1.00527 0.01492 0.85463 0.0
O303 O 0.96644 0.99897 0.74631 0.0
O304 O 0.97662 0.07035 0.72465 0.0
O305 O 0.98138 0.04322 0.48001 0.0
O306 O 0.08286 0.96981 0.8092 0.0
O307 O 0.01758 0.98927 0.67589 0.0
O308 O 0.03264 0.03019 0.53993 0.0
O309 O 0.07337 0.03973 0.64975 0.0
O310 O 0.06493 0.97373 0.66417 0.0
O311 O 0.04259 0.98419 0.89778 0.0
C312 C 1.00593 0.07318 0.75507 0.0
C313 C 0.87378 0.95203 0.55087 0.0
C314 C 0.89377 0.93795 0.48225 0.0
C315 C 0.9649 0.06954 0.50057 0.0
C316 C 0.97481 0.09952 0.45403 0.0
C317 C 0.95096 0.12286 0.43362 0.0
C318 C 1.00702 0.10421 0.42418 0.0
C319 C 0.01494 0.1314 0.37067 0.0
C320 C 0.95898 0.15043 0.38256 0.0
C321 C 0.99071 0.1546 0.35055 0.0
C322 C 0.97582 1.00349 0.83378 0.0
C323 C 0.03607 0.96935 0.63232 0.0
C324 C 0.06212 0.96059 0.87202 0.0
C325 C 0.04739 0.92821 0.85456 0.0
C326 C 0.06673 0.9027 0.81861 0.0
C327 C 0.01357 0.92358 0.86276 0.0
C328 C 0.99917 0.89377 0.83652 0.0
C329 C 0.05254 0.87331 0.79024 0.0
C330 C 0.01908 0.86879 0.79914 0.0
C331 C 0.06296 0.03881 0.56213 0.0
H332 H 0.92602 0.11948 0.45606 0.0
H333 H 0.02559 0.08644 0.44013 0.0
H334 H 0.94049 0.16837 0.36669 0.0
H335 H 0.99641 0.17605 0.3102 0.0
H336 H 0.09274 0.9058 0.81034 0.0
H337 H 0.99837 0.94313 0.88925 0.0
H338 H 0.06757 0.85383 0.76201 0.0
H339 H 0.00902 0.8452 0.77988 0.0
Gd340 Gd 0.50483 0.97874 0.63402 0.0
Gd341 Gd 0.51547 0.05644 0.76434 0.0
C342 C 0.43382 0.10981 0.92381 0.0
C343 C 0.42705 0.15898 0.83308 0.0
C344 C 0.46742 0.11817 0.78761 0.0
C345 C 0.45846 0.09892 0.86187 0.0
C346 C 0.45236 0.14879 0.77383 0.0
C347 C 0.4177 0.13946 0.90764 0.0
C348 C 0.42676 0.09118 1.00201 0.0
C349 C 0.44491 0.06318 0.0191 0.0
N350 N 0.47486 0.07051 0.87647 0.0
C351 C 0.46916 0.05338 0.95632 0.0
H352 H 0.48248 0.03169 0.97313 0.0
C353 C 0.50409 0.12784 0.66394 0.0
N354 N 0.49202 0.1078 0.73158 0.0
C355 C 0.48991 0.15828 0.6477 0.0
C356 C 0.46376 0.16871 0.70242 0.0
H357 H 0.52429 0.11983 0.6211 0.0
H358 H 0.39854 0.14793 0.95392 0.0
H359 H 0.51335 0.99991 0.4045 0.0
H360 H 0.40798 0.09864 0.05086 0.0
H361 H 0.44018 0.04898 0.08073 0.0
H362 H 0.41504 0.18226 0.82309 0.0
H363 H 0.5141 0.90729 0.74954 0.0
H364 H 0.60296 0.96216 0.30221 0.0
H365 H 0.55379 0.99592 0.28124 0.0
H366 H 0.6351 0.88729 0.53714 0.0
H367 H 0.49914 0.17364 0.59289 0.0
H368 H 0.45285 0.19237 0.68989 0.0
H369 H 0.63393 0.92267 0.40005 0.0
H370 H 0.55592 0.86511 0.7722 0.0
N371 N 0.54085 0.97277 0.50398 0.0
C372 C 0.58574 0.96486 0.35892 0.0
C373 C 0.55808 0.98394 0.34691 0.0
C374 C 0.58967 0.94774 0.44165 0.0
C375 C 0.56623 0.95182 0.51307 0.0
C376 C 0.53548 0.98697 0.41929 0.0
N377 N 0.54155 0.93386 0.64999 0.0
C378 C 0.56687 0.93202 0.58967 0.0
C379 C 0.55974 0.88417 0.72177 0.0
C380 C 0.58781 0.8843 0.66735 0.0
C381 C 0.53624 0.90845 0.70951 0.0
C382 C 0.59097 0.90753 0.59743 0.0
H383 H 0.60574 0.86513 0.67565 0.0
O384 O 0.47398 0.93557 0.62672 0.0
O385 O 0.48058 0.01933 0.71371 0.0
O386 O 0.51964 0.01417 0.86696 0.0
O387 O 0.52287 0.96607 0.77809 0.0
O388 O 0.46298 0.97347 0.7377 0.0
O389 O 0.47294 0.97085 0.51607 0.0
O390 O 0.54863 0.0969 0.78303 0.0
O391 O 0.54075 0.01582 0.68359 0.0
O392 O 0.49723 0.02408 0.54162 0.0
O393 O 0.48287 0.06667 0.64149 0.0
O394 O 0.55342 0.06296 0.65096 0.0
O395 O 0.5469 0.05864 0.88594 0.0
C396 C 0.45922 1.00392 0.75857 0.0
C397 C 0.61608 0.90551 0.53128 0.0
C398 C 0.61536 0.92554 0.45313 0.0
C399 C 0.45898 0.94549 0.55261 0.0
C400 C 0.42341 0.94711 0.55883 0.0
C401 C 0.40454 0.91929 0.54166 0.0
C402 C 0.4082 0.97721 0.57668 0.0
C403 C 0.37441 0.98084 0.56676 0.0
C404 C 0.37072 0.92197 0.53792 0.0
C405 C 0.35577 0.95254 0.54774 0.0
C406 C 0.52355 0.98205 0.85874 0.0
C407 C 0.55954 0.03268 0.63332 0.0
C408 C 0.5624 0.08425 0.85543 0.0
C409 C 0.59777 0.08193 0.84819 0.0
C410 C 0.61656 0.11021 0.85942 0.0
C411 C 0.61269 0.05228 0.82274 0.0
C412 C 0.64662 0.05033 0.8136 0.0
C413 C 0.65014 0.10883 0.84676 0.0
C414 C 0.66515 0.07912 0.82479 0.0
C415 C 0.48555 0.05402 0.55673 0.0
H416 H 0.41596 0.89577 0.52892 0.0
H417 H 0.42318 0.99829 0.59224 0.0
H418 H 0.35614 0.90055 0.5226 0.0
H419 H 0.32991 0.9539 0.53481 0.0
H420 H 0.6052 0.1334 0.87701 0.0
H421 H 0.59785 0.03075 0.81149 0.0
H422 H 0.66466 0.13069 0.85583 0.0
H423 H 0.69145 0.07855 0.8205 0.0
Gd424 Gd 0.46302 0.52013 0.7717 0.0
Gd425 Gd 0.54056 0.50242 0.65494 0.0
C426 C 0.62598 0.49262 0.86068 0.0
C427 C 0.65836 0.54045 0.82676 0.0
C428 C 0.60775 0.53014 0.74235 0.0
C429 C 0.60277 0.50212 0.79322 0.0
C430 C 0.6362 0.54905 0.75693 0.0
C431 C 0.65328 0.51227 0.87849 0.0
C432 C 0.6215 0.46332 0.9075 0.0
C433 C 0.59475 0.44395 0.886 0.0
N434 N 0.57592 0.48363 0.77521 0.0
C435 C 0.57242 0.45426 0.81918 0.0
H436 H 0.55294 0.43788 0.80377 0.0
C437 C 0.59424 0.56119 0.61106 0.0
N438 N 0.58609 0.5378 0.67458 0.0
C439 C 0.62149 0.58107 0.62407 0.0
C440 C 0.64222 0.57544 0.69872 0.0
H441 H 0.58008 0.56427 0.54859 0.0
H442 H 0.67093 0.50555 0.931 0.0
H443 H 0.45026 0.57879 0.60483 0.0
H444 H 0.63884 0.45515 0.95904 0.0
H445 H 0.59132 0.42086 0.92062 0.0
H446 H 0.67997 0.55497 0.83963 0.0
H447 H 0.42787 0.45845 0.89028 0.0
H448 H 0.35782 0.56348 0.48176 0.0
H449 H 0.40854 0.59523 0.49685 0.0
H450 H 0.31591 0.4702 0.63697 0.0
H451 H 0.62692 0.60016 0.57495 0.0
H452 H 0.66365 0.59054 0.70795 0.0
H453 H 0.32394 0.51661 0.53277 0.0
H454 H 0.37827 0.42536 0.88566 0.0
N455 N 0.42478 0.53711 0.65644 0.0
C456 C 0.37622 0.55604 0.53127 0.0
C457 C 0.40476 0.57398 0.53963 0.0
C458 C 0.37166 0.52881 0.58718 0.0
C459 C 0.39647 0.52001 0.65059 0.0
C460 C 0.42872 0.56427 0.60255 0.0
N461 N 0.41596 0.4862 0.76962 0.0
C462 C 0.39204 0.49371 0.70842 0.0
C463 C 0.38196 0.44416 0.83437 0.0
C464 C 0.35807 0.45042 0.76832 0.0
C465 C 0.41044 0.46273 0.83536 0.0
C466 C 0.36262 0.47577 0.70538 0.0
H467 H 0.33586 0.43617 0.76813 0.0
O468 O 0.43806 0.52149 0.90472 0.0
O469 O 0.51783 0.52344 0.7855 0.0
O470 O 0.51681 0.4533 0.69048 0.0
O471 O 0.47286 0.46603 0.78736 0.0
O472 O 0.49167 0.50425 0.89629 0.0
O473 O 0.44709 0.5664 0.83146 0.0
O474 O 0.56638 0.50325 0.52302 0.0
O475 O 0.48633 0.49894 0.64494 0.0
O476 O 0.48542 0.56863 0.72492 0.0
O477 O 0.5305 0.55633 0.6324 0.0
O478 O 0.51031 0.51121 0.52444 0.0
O479 O 0.5661 0.45924 0.60539 0.0
C480 C 0.5201 0.51297 0.8686 0.0
C481 C 0.33842 0.48392 0.64084 0.0
C482 C 0.34295 0.51037 0.58175 0.0
C483 C 0.43849 0.55312 0.90988 0.0
C484 C 0.45335 0.56643 0.99493 0.0
C485 C 0.43753 0.56305 0.08067 0.0
C486 C 0.48397 0.58143 0.99139 0.0
C487 C 0.49776 0.59558 0.07163 0.0
C488 C 0.45173 0.57564 0.16173 0.0
C489 C 0.48131 0.59226 0.1573 0.0
C490 C 0.49334 0.44484 0.74925 0.0
C491 C 0.48208 0.50551 0.55983 0.0
C492 C 0.57583 0.47303 0.52889 0.0
C493 C 0.57442 0.45335 0.44322 0.0
C494 C 0.60119 0.45362 0.38259 0.0
C495 C 0.54774 0.43312 0.42345 0.0
C496 C 0.54837 0.41249 0.34471 0.0
C497 C 0.60163 0.43329 0.30378 0.0
C498 C 0.57539 0.41268 0.28493 0.0
C499 C 0.50936 0.57745 0.66807 0.0
H500 H 0.41419 0.55087 0.08475 0.0
H501 H 0.49647 0.58326 0.92522 0.0
H502 H 0.43921 0.57363 0.22771 0.0
H503 H 0.49017 0.60398 0.22035 0.0
H504 H 0.62201 0.4691 0.39721 0.0
H505 H 0.52712 0.4326 0.47063 0.0
H506 H 0.6226 0.43298 0.2583 0.0
H507 H 0.57625 0.39666 0.22424 0.0
Gd508 Gd 1.00186 0.4806 0.76962 0.0
Gd509 Gd 0.02238 0.54506 0.6104 0.0
C510 C 0.09906 0.62436 0.65496 0.0
C511 C 0.06921 0.66588 0.74192 0.0
C512 C 0.04183 0.61639 0.68771 0.0
C513 C 0.07079 0.60487 0.65135 0.0
C514 C 0.04044 0.6479 0.72894 0.0
C515 C 0.09854 0.65413 0.70471 0.0
C516 C 0.12622 0.61448 0.60288 0.0
C517 C 0.12395 0.587 0.54454 0.0
N518 N 0.07028 0.57634 0.6023 0.0
C519 C 0.09545 0.56834 0.5442 0.0
H520 H 0.09372 0.54729 0.49876 0.0
C521 C 0.98469 0.61322 0.68279 0.0
N522 N 0.0144 0.59866 0.67165 0.0
C523 C 0.98202 0.64453 0.72253 0.0
C524 C 0.00999 0.66142 0.74925 0.0
H525 H 0.96277 0.60115 0.66181 0.0
H526 H 0.12019 0.66913 0.71001 0.0
H527 H 0.95524 0.44024 0.61123 0.0
H528 H 0.14831 0.62891 0.60304 0.0
H529 H 0.14416 0.58009 0.5001 0.0
H530 H 0.06867 0.68977 0.77541 0.0
H531 H 0.05027 0.46673 0.9535 0.0
H532 H 0.99747 0.34713 0.55271 0.0
H533 H 0.95475 0.38842 0.52497 0.0
H534 H 0.08313 0.33973 0.7774 0.0
H535 H 0.95831 0.65551 0.73305 0.0
H536 H 0.00782 0.6856 0.78038 0.0
H537 H 0.04595 0.32948 0.6458 0.0
H538 H 0.08977 0.42557 1.00728 0.0
N539 N 0.9985 0.42988 0.68741 0.0
C540 C 0.99785 0.37006 0.59134 0.0
C541 C 0.97367 0.39325 0.57573 0.0
C542 C 0.0215 0.37628 0.65915 0.0
C543 C 0.02095 0.40666 0.70709 0.0
C544 C 0.97419 0.42295 0.62515 0.0
N545 N 0.03869 0.44091 0.82801 0.0
C546 C 0.04193 0.41247 0.7798 0.0
C547 C 0.07682 0.42173 0.94246 0.0
C548 C 0.08212 0.3934 0.88951 0.0
C549 C 0.05443 0.44496 0.91168 0.0
C550 C 0.06399 0.38808 0.80826 0.0
H551 H 0.09922 0.37524 0.91393 0.0
O552 O 0.98834 0.46743 0.91038 0.0
O553 O 1.0013 0.53533 0.75006 0.0
O554 O 0.06862 0.53632 0.69579 0.0
O555 O 0.0568 0.48917 0.77964 0.0
O556 O 0.01723 0.51843 0.87719 0.0
O557 O 0.95138 0.47138 0.80561 0.0
O558 O 0.99994 0.52989 0.4796 0.0
O559 O 0.01343 0.49109 0.62263 0.0
O560 O 0.95809 0.49232 0.67606 0.0
O561 O 0.96735 0.5457 0.63305 0.0
O562 O 0.05578 0.50459 0.5584 0.0
O563 O 0.0217 0.57723 0.49011 0.0
C564 C 0.01225 0.54421 0.82933 0.0
C565 C 0.06608 0.3586 0.75739 0.0
C566 C 0.04487 0.35273 0.68268 0.0
C567 C 0.95751 0.46901 0.89394 0.0
C568 C 0.9389 0.49004 0.95811 0.0
C569 C 0.94086 0.48457 0.05414 0.0
C570 C 0.91944 0.51559 0.92477 0.0
C571 C 0.89971 0.53382 0.98605 0.0
C572 C 0.923 0.50391 0.11615 0.0
C573 C 0.90221 0.52798 0.0826 0.0
C574 C 0.07694 0.51274 0.75395 0.0
C575 C 0.03816 0.47982 0.5804 0.0
C576 C 0.00971 0.55517 0.4343 0.0
C577 C 0.02801 0.54889 0.34721 0.0
C578 C 0.02832 0.57265 0.27796 0.0
C579 C 0.04724 0.52061 0.33558 0.0
C580 C 0.06886 0.51717 0.25987 0.0
C581 C 0.04818 0.56866 0.19977 0.0
C582 C 0.06863 0.54148 0.19119 0.0
C583 C 0.9477 0.52022 0.64047 0.0
H584 H 0.95615 0.46528 0.08108 0.0
H585 H 0.91917 0.52075 0.85104 0.0
H586 H 0.92444 0.4995 0.19025 0.0
H587 H 0.88706 0.54095 0.13252 0.0
H588 H 0.01368 0.59457 0.28523 0.0
H589 H 0.04586 0.50162 0.38643 0.0
H590 H 0.0486 0.58733 0.14727 0.0
H591 H 0.08503 0.54018 0.13221 0.0
C592 C 0.14317 0.0613 0.44082 0.0
C593 C 0.13664 0.05669 0.34532 0.0
C594 C 0.11897 0.05672 0.50903 0.0
C595 C 0.08722 0.04615 0.48581 0.0
H596 H 0.16721 0.06893 0.46307 0.0
H597 H 0.1254 0.06161 0.58088 0.0
S598 S 0.05723 0.03238 0.24362 0.0
N599 N 0.09561 0.04323 0.22985 0.0
N600 N 0.05068 0.03264 0.35718 0.0
C601 C 0.08028 0.04206 0.38972 0.0
C602 C 0.10479 0.04774 0.32002 0.0
C603 C 0.48921 0.0958 0.31879 0.0
C604 C 0.46512 0.12024 0.32573 0.0
C605 C 0.49486 0.07374 0.39202 0.0
C606 C 0.47695 0.07535 0.47593 0.0
H607 H 0.50383 0.0937 0.25618 0.0
H608 H 0.51421 0.05606 0.38373 0.0
S609 S 0.41181 0.13564 0.5307 0.0
N610 N 0.42369 0.14509 0.42451 0.0
N611 N 0.43412 0.10392 0.56089 0.0
C612 C 0.45281 0.09975 0.48352 0.0
C613 C 0.44694 0.12201 0.40895 0.0
C614 C 0.41832 0.5119 0.36603 0.0
C615 C 0.39708 0.48542 0.38148 0.0
C616 C 0.44568 0.51789 0.42329 0.0
C617 C 0.45281 0.49821 0.50051 0.0
H618 H 0.41415 0.52792 0.30789 0.0
H619 H 0.4611 0.53858 0.4079 0.0
S620 S 0.40834 0.42319 0.56609 0.0
N621 N 0.3871 0.4379 0.47841 0.0
N622 N 0.43893 0.44873 0.5823 0.0
C623 C 0.43285 0.47087 0.5148 0.0
C624 C 0.40486 0.46473 0.45685 0.0
C625 C 0.06994 0.40203 0.46023 0.0
C626 C 0.04759 0.39629 0.38706 0.0
C627 C 0.06562 0.42781 0.52561 0.0
C628 C 0.03899 0.44936 0.52059 0.0
H629 H 0.09125 0.38663 0.46648 0.0
H630 H 0.08361 0.43123 0.57998 0.0
S631 S 0.97326 0.44531 0.34325 0.0
N632 N 0.99741 0.41443 0.31503 0.0
N633 N 0.9896 0.4628 0.43642 0.0
C634 C 0.01615 0.44358 0.44889 0.0
C635 C 0.02034 0.41712 0.38282 0.0
C636 C 0.93041 0.01252 0.06721 0.0
C637 C 0.9025 0.99267 0.05632 0.0
C638 C 0.95428 0.01498 0.99683 0.0
C639 C 0.95163 0.99784 0.91125 0.0
H640 H 0.93368 0.02687 0.13042 0.0
H641 H 0.97443 0.03142 1.00892 0.0
S642 S 0.88571 0.93935 0.84974 0.0
N643 N 0.87517 0.95364 0.95356 0.0
N644 N 0.92029 0.95758 0.82377 0.0
C645 C 0.9248 0.97661 0.90097 0.0
C646 C 0.90036 0.97413 0.97261 0.0
C647 C 0.55053 0.947 0.09464 0.0
C648 C 0.53024 0.91941 0.10396 0.0
C649 C 0.54763 0.96811 0.01732 0.0
C650 C 0.52522 0.96167 0.94487 0.0
H651 H 0.56879 0.9522 0.14708 0.0
H652 H 0.56362 0.98904 0.01289 0.0
S653 S 0.46555 0.89354 0.93892 0.0
N654 N 0.48605 0.88795 0.0363 0.0
N655 N 0.48125 0.9265 0.89156 0.0
C656 C 0.50461 0.93444 0.95482 0.0
C657 C 0.50702 0.9136 0.0339 0.0
C658 C 0.57445 0.49853 0.07921 0.0
C659 C 0.59723 0.52436 0.07905 0.0
C660 C 0.54996 0.49562 1.01124 0.0
C661 C 0.54682 0.51818 0.93864 0.0
H662 H 0.57588 0.47972 0.13143 0.0
H663 H 0.53383 0.47475 0.01415 0.0
S664 S 0.59405 0.59492 0.91809 0.0
N665 N 0.61115 0.57611 1.00677 0.0
N666 N 0.56423 0.57092 0.8816 0.0
C667 C 0.56708 0.5459 0.94227 0.0
C668 C 0.5924 0.5489 1.01163 0.0
C669 C 0.04115 0.61756 0.97373 0.0
C670 C 0.01239 0.63533 0.99419 0.0
C671 C 0.04098 0.58914 0.9168 0.0
C672 C 0.01224 0.57729 0.8752 0.0
H673 H 0.0641 0.62503 1.00421 0.0
H674 H 0.0636 0.57596 0.90639 0.0
S675 S 0.93036 0.61415 0.90186 0.0
N676 N 0.95422 0.63873 0.96311 0.0
N677 N 0.95403 0.58474 0.8605 0.0
C678 C 0.9833 0.59435 0.89504 0.0
C679 C 0.98338 0.62349 0.95266 0.0
C680 C 0.0793 0.15895 0.20639 0.0
C681 C 0.10382 0.16945 0.26822 0.0
C682 C 0.05177 0.14278 0.23881 0.0
C683 C 0.04811 0.13623 0.33383 0.0
H684 H 0.07909 0.16711 0.13498 0.0
H685 H 0.03176 0.1385 0.19108 0.0
S686 S 0.11068 0.14794 0.51651 0.0
N687 N 0.12684 0.16428 0.42273 0.0
N688 N 0.07473 0.13357 0.48478 0.0
C689 C 0.0749 0.14119 0.39303 0.0
C690 C 0.10303 0.1578 0.35967 0.0
C691 C 0.36371 0.06541 0.47124 0.0
C692 C 0.32968 0.06803 0.4677 0.0
C693 C 0.37863 0.03871 0.51267 0.0
C694 C 0.36011 0.01426 0.5565 0.0
H695 H 0.37876 0.08155 0.43048 0.0
H696 H 0.40441 0.03586 0.50007 0.0
S697 S 0.27165 0.01895 0.60656 0.0
N698 N 0.27865 0.04974 0.53615 0.0
N699 N 0.30733 1.00148 0.62387 0.0
C700 C 0.32685 0.02075 0.57153 0.0
C701 C 0.31141 0.04733 0.52539 0.0
C702 C 0.5043 0.33265 0.31061 0.0
C703 C 0.47252 0.34239 0.28605 0.0
C704 C 0.52847 0.35556 0.33111 0.0
C705 C 0.52187 0.38908 0.32796 0.0
H706 H 0.51117 0.30709 0.30984 0.0
H707 H 0.55272 0.347 0.3478 0.0
S708 S 0.4438 0.42803 0.26723 0.0
N709 N 0.43604 0.38845 0.26143 0.0
N710 N 0.48222 0.43148 0.29886 0.0
C711 C 0.4904 0.39945 0.30569 0.0
C712 C 0.46557 0.37612 0.28474 0.0
C713 C 0.13172 0.45781 0.1607 0.0
C714 C 0.15083 0.45049 0.23914 0.0
C715 C 0.10353 0.47704 0.16901 0.0
C716 C 0.0937 0.49027 0.25576 0.0
H717 H 0.13989 0.45099 0.09144 0.0
H718 H 0.09054 0.48323 0.10604 0.0
S719 S 0.13194 0.47167 0.48404 0.0
N720 N 0.15399 0.45118 0.40747 0.0
N721 N 0.10365 0.49037 0.4232 0.0
C722 C 0.11085 0.48002 0.33554 0.0
C723 C 0.13868 0.45932 0.32709 0.0
C724 C 0.92346 0.84413 0.8356 0.0
C725 C 0.92032 0.84151 0.93298 0.0
C726 C 0.94661 0.86568 0.79901 0.0
C727 C 0.96462 0.8864 0.85893 0.0
H728 H 0.91471 0.82452 0.79081 0.0
H729 H 0.9537 0.86268 0.72671 0.0
S730 S 0.94425 0.90484 0.10611 0.0
N731 N 0.92122 0.87325 0.07745 0.0
N732 N 0.96488 0.91374 1.01109 0.0
C733 C 0.95273 0.8912 0.95007 0.0
C734 C 0.92911 0.86929 0.98601 0.0
C735 C 0.71786 0.99486 0.79048 0.0
C736 C 0.71324 0.97698 0.87251 0.0
C737 C 0.69338 0.01595 0.75958 0.0
C738 C 0.6636 0.01827 0.80779 0.0
H739 H 0.74216 0.99786 0.76257 0.0
H740 H 0.69943 0.03365 0.7069 0.0
S741 S 0.63443 0.96098 0.98795 0.0
N742 N 0.673 0.95134 0.9717 0.0
N743 N 0.62682 0.99073 0.91459 0.0
C744 C 0.65608 0.99343 0.87122 0.0
C745 C 0.68106 0.97207 0.90217 0.0
C746 C 0.53898 0.67229 0.99816 0.0
C747 C 0.55329 0.68192 0.08302 0.0
C748 C 0.52434 0.64167 0.98898 0.0
C749 C 0.52494 0.61933 0.06293 0.0
H750 H 0.53431 0.69022 0.94486 0.0
H751 H 0.50912 0.63755 0.92863 0.0
S752 S 0.57493 0.62671 0.27671 0.0
N753 N 0.57749 0.6629 0.22764 0.0
N754 N 0.55243 0.60404 0.20586 0.0
C755 C 0.54633 0.62576 0.13721 0.0
C756 C 0.56028 0.65744 0.14816 0.0
C757 C 0.82979 0.59097 1.00758 0.0
C758 C 0.80709 0.57343 0.95323 0.0
C759 C 0.86251 0.58164 1.00708 0.0
C760 C 0.87305 0.55515 0.95111 0.0
H761 H 0.82177 0.60712 0.06341 0.0
H762 H 0.8784 0.59202 0.05993 0.0
S763 S 0.82564 0.51732 0.75718 0.0
N764 N 0.7996 0.54176 0.81114 0.0
N765 N 0.86053 0.5219 0.81277 0.0
C766 C 0.85228 0.54476 0.87811 0.0
C767 C 0.81927 0.5554 0.87709 0.0
C768 C 1.00218 0.14821 0.91806 0.0
C769 C 0.03171 0.16483 0.90268 0.0
C770 C 0.99487 0.1183 0.87215 0.0
C771 C 0.01683 0.10301 0.80952 0.0
H772 H 0.98404 0.15886 0.96403 0.0
H773 H 0.97144 0.10714 0.88515 0.0
S774 S 0.09848 0.13476 0.74909 0.0
N775 N 0.0841 0.16204 0.82418 0.0
N776 N 0.06967 0.10701 0.73546 0.0
C777 C 0.04666 0.11896 0.79461 0.0
C778 C 0.05425 0.14937 0.8418 0.0
C779 C 0.38064 0.05298 0.80164 0.0
C780 C 0.36708 0.03841 0.88189 0.0
C781 C 0.41077 0.04262 0.76354 0.0
C782 C 0.42874 0.01699 0.8032 0.0
H783 H 0.36776 0.07247 0.76712 0.0
H784 H 0.4197 0.05436 0.70144 0.0
S785 S 0.40621 0.97171 0.01566 0.0
N786 N 0.37612 0.99798 1.00216 0.0
N787 N 0.43116 0.97768 0.92747 0.0
C788 C 0.4155 1.002 0.88221 0.0
C789 C 0.38527 0.01293 0.92237 0.0
C790 C 0.48945 0.35082 0.75204 0.0
C791 C 0.48593 0.34395 0.84787 0.0
C792 C 0.4926 0.38328 0.71986 0.0
C793 C 0.49131 0.41024 0.78193 0.0
H794 H 0.4898 0.33093 0.70152 0.0
H795 H 0.49524 0.38732 0.64581 0.0
S796 S 0.48294 0.40599 0.03908 0.0
N797 N 0.4819 0.36745 1.00388 0.0
N798 N 0.48726 0.42769 0.94382 0.0
C799 C 0.48799 0.40366 0.87755 0.0
C800 C 0.48543 0.37083 0.91034 0.0
C801 C 0.14481 0.5069 0.93625 0.0
C802 C 0.17376 0.50991 0.88425 0.0
C803 C 0.11389 0.50825 0.89367 0.0
C804 C 0.11028 0.51312 0.79714 0.0
H805 H 0.14604 0.50264 1.01032 0.0
H806 H 0.09257 0.50566 0.9371 0.0
S807 S 0.17802 0.52644 0.63097 0.0
N808 N 0.19644 0.52096 0.73169 0.0
N809 N 0.13866 0.52329 0.65237 0.0
C810 C 0.13892 0.51778 0.7452 0.0
C811 C 0.17046 0.51615 0.78836 0.0
C812 C 0.99424 0.89003 0.54406 0.0
C813 C 0.01682 0.87766 0.47796 0.0
C814 C 0.99996 0.91969 0.59419 0.0
C815 C 0.028 0.93871 0.57777 0.0
H816 H 0.97191 0.87679 0.55667 0.0
H817 H 0.98227 0.92786 0.6454 0.0
S818 S 0.09393 0.91775 0.41015 0.0
N819 N 0.06802 0.88712 0.39941 0.0
N820 N 0.07836 0.94256 0.49012 0.0
C821 C 0.05059 0.92637 0.51211 0.0
C822 C 0.04504 0.89616 0.46277 0.0
C823 C 0.64284 0.99383 0.5729 0.0
C824 C 0.65106 1.00872 0.48773 0.0
C825 C 0.61273 1.00035 0.61841 0.0
C826 C 0.5897 0.02228 0.58111 0.0
H827 H 0.65956 0.97663 0.60384 0.0
H828 H 0.60763 0.98841 0.68366 0.0
S829 S 0.59988 0.06902 0.3634 0.0
N830 N 0.63354 0.04711 0.37027 0.0
N831 N 0.57822 0.05983 0.45625 0.0
C832 C 0.5981 0.0378 0.49762 0.0
C833 C 0.62825 0.03082 0.45076 0.0
C834 C 0.53254 0.65362 0.52698 0.0
C835 C 0.51571 0.67954 0.57106 0.0
C836 C 0.53033 0.62119 0.55884 0.0
C837 C 0.51175 0.6128 0.63797 0.0
H838 H 0.54668 0.65821 0.46485 0.0
H839 H 0.54257 0.60244 0.5185 0.0
S840 S 0.46366 0.67185 0.78127 0.0
N841 N 0.48005 0.69463 0.69956 0.0
N842 N 0.47633 0.63416 0.7602 0.0
C843 C 0.49504 0.63867 0.68348 0.0
C844 C 0.49698 0.67174 0.65017 0.0
C845 C 0.86698 0.49656 0.52039 0.0
C846 C 0.84871 0.52584 0.52011 0.0
C847 C 0.89835 0.49487 0.56086 0.0
C848 C 0.91326 0.52233 0.60336 0.0
H849 H 0.8573 0.4748 0.48684 0.0
H850 H 0.91134 0.47191 0.55635 0.0
S851 S 0.87407 0.60359 0.63512 0.0
N852 N 0.84704 0.58222 0.5749 0.0
N853 N 0.90529 0.57888 0.65123 0.0
C854 C 0.89479 0.55143 0.60666 0.0
C855 C 0.86287 0.55322 0.56508 0.0
loop_
_geom_bond_atom_site_label_1
_geom_bond_atom_site_label_2
_geom_bond_distance
_geom_bond_site_symmetry_2
_ccdc_geom_bond_type
P0 O11 1.490 . S
P0 C14 1.812 . S
P0 C20 1.803 . S
P0 C26 1.819 . S
H1 C15 0.941 . S
H2 C16 0.939 . S
H3 C18 0.940 . S
H4 C19 0.940 . S
H5 C21 0.939 . S
H6 C22 0.942 . S
H7 C24 0.940 . S
H8 C25 0.939 . S
H9 C27 0.941 . S
H10 C31 0.939 . S
O11 P0 1.490 . S
H12 C28 0.939 . S
H13 C30 0.940 . S
C14 P0 1.812 . S
C14 C15 1.389 . S
C14 C19 1.391 . S
C15 H1 0.941 . S
C15 C14 1.389 . S
C15 C16 1.397 . S
C16 H2 0.939 . S
C16 C15 1.397 . S
C16 C17 1.378 . S
C17 C16 1.378 . S
C17 C18 1.378 . S
C18 H3 0.940 . S
C18 C17 1.378 . S
C18 C19 1.396 . S
C19 H4 0.940 . S
C19 C14 1.391 . S
C19 C18 1.396 . S
C20 P0 1.803 . S
C20 C21 1.378 . S
C20 C25 1.400 . S
C21 H5 0.939 . S
C21 C20 1.378 . S
C21 C22 1.361 . S
C22 H6 0.942 . S
C22 C21 1.361 . S
C22 C23 1.369 . S
C23 C22 1.369 . S
C23 C24 1.404 . S
C24 H7 0.940 . S
C24 C23 1.404 . S
C24 C25 1.389 . S
C25 H8 0.939 . S
C25 C20 1.400 . S
C25 C24 1.389 . S
C26 P0 1.819 . S
C26 C27 1.391 . S
C26 C31 1.391 . S
C27 H9 0.941 . S
C27 C26 1.391 . S
C27 C28 1.396 . S
C28 H12 0.939 . S
C28 C27 1.396 . S
C28 C29 1.397 . S
C29 C28 1.397 . S
C29 C30 1.385 . S
C30 H13 0.940 . S
C30 C29 1.385 . S
C30 C31 1.388 . S
C31 H10 0.939 . S
C31 C26 1.391 . S
C31 C30 1.388 . S
P32 O43 1.490 1_655 S
P32 C46 1.812 . S
P32 C52 1.803 . S
P32 C58 1.819 . S
H33 C47 0.941 1_455 S
H34 C48 0.939 . S
H35 C50 0.940 . S
H36 C51 0.940 . S
H37 C53 0.939 1_455 S
H38 C54 0.942 . S
H39 C56 0.940 . S
H40 C57 0.939 . S
H41 C59 0.941 1_455 S
H42 C63 0.939 . S
O43 P32 1.490 1_455 S
H44 C60 0.939 . S
H45 C62 0.940 . S
C46 P32 1.812 . S
C46 C47 1.389 . S
C46 C51 1.391 . S
C47 H33 0.941 1_655 S
C47 C46 1.389 . S
C47 C48 1.397 . S
C48 H34 0.939 . S
C48 C47 1.397 . S
C48 C49 1.378 . S
C49 C48 1.378 . S
C49 C50 1.378 . S
C50 H35 0.940 . S
C50 C49 1.378 . S
C50 C51 1.396 . S
C51 H36 0.940 . S
C51 C46 1.391 . S
C51 C50 1.396 . S
C52 P32 1.803 . S
C52 C53 1.378 . S
C52 C57 1.400 . S
C53 H37 0.939 1_655 S
C53 C52 1.378 . S
C53 C54 1.361 . S
C54 H38 0.942 . S
C54 C53 1.361 . S
C54 C55 1.369 . S
C55 C54 1.369 . S
C55 C56 1.404 . S
C56 H39 0.940 . S
C56 C55 1.404 . S
C56 C57 1.389 . S
C57 H40 0.939 . S
C57 C52 1.400 . S
C57 C56 1.389 . S
C58 P32 1.819 . S
C58 C59 1.391 . S
C58 C63 1.391 . S
C59 H41 0.941 1_655 S
C59 C58 1.391 . S
C59 C60 1.396 . S
C60 H44 0.939 . S
C60 C59 1.396 . S
C60 C61 1.397 . S
C61 C60 1.397 . S
C61 C62 1.385 . S
C62 H45 0.940 . S
C62 C61 1.385 . S
C62 C63 1.388 . S
C63 H42 0.939 . S
C63 C58 1.391 . S
C63 C62 1.388 . S
P64 O75 1.490 . S
P64 C78 1.812 1_545 S
P64 C84 1.803 1_545 S
P64 C90 1.819 1_545 S
H65 C79 0.941 . S
H66 C80 0.939 1_545 S
H67 C82 0.940 . S
H68 C83 0.940 . S
H69 C85 0.939 . S
H70 C86 0.942 1_545 S
H71 C88 0.940 . S
H72 C89 0.939 . S
H73 C91 0.941 1_545 S
H74 C95 0.939 . S
O75 P64 1.490 . S
H76 C92 0.939 . S
H77 C94 0.940 . S
C78 P64 1.812 1_565 S
C78 C79 1.389 1_565 S
C78 C83 1.391 . S
C79 H65 0.941 . S
C79 C78 1.389 1_545 S
C79 C80 1.397 1_545 S
C80 H66 0.939 1_565 S
C80 C79 1.397 1_565 S
C80 C81 1.378 . S
C81 C80 1.378 . S
C81 C82 1.378 . S
C82 H67 0.940 . S
C82 C81 1.378 . S
C82 C83 1.396 . S
C83 H68 0.940 . S
C83 C78 1.391 . S
C83 C82 1.396 . S
C84 P64 1.803 1_565 S
C84 C85 1.378 1_565 S
C84 C89 1.400 . S
C85 H69 0.939 . S
C85 C84 1.378 1_545 S
C85 C86 1.361 1_545 S
C86 H70 0.942 1_565 S
C86 C85 1.361 1_565 S
C86 C87 1.369 . S
C87 C86 1.369 . S
C87 C88 1.404 . S
C88 H71 0.940 . S
C88 C87 1.404 . S
C88 C89 1.389 . S
C89 H72 0.939 . S
C89 C84 1.400 . S
C89 C88 1.389 . S
C90 P64 1.819 1_565 S
C90 C91 1.391 . S
C90 C95 1.391 . S
C91 H73 0.941 1_565 S
C91 C90 1.391 . S
C91 C92 1.396 . S
C92 H76 0.939 . S
C92 C91 1.396 . S
C92 C93 1.397 . S
C93 C92 1.397 . S
C93 C94 1.385 . S
C94 H77 0.940 . S
C94 C93 1.385 . S
C94 C95 1.388 . S
C95 H74 0.939 . S
C95 C90 1.391 . S
C95 C94 1.388 . S
P96 O107 1.490 . S
P96 C110 1.812 . S
P96 C116 1.803 . S
P96 C122 1.819 . S
H97 C111 0.941 . S
H98 C112 0.939 . S
H99 C114 0.940 . S
H100 C115 0.940 . S
H101 C117 0.939 . S
H102 C118 0.942 . S
H103 C120 0.940 . S
H104 C121 0.939 . S
H105 C123 0.941 . S
H106 C127 0.939 . S
O107 P96 1.490 . S
H108 C124 0.939 . S
H109 C126 0.940 . S
C110 P96 1.812 . S
C110 C111 1.389 . S
C110 C115 1.391 . S
C111 H97 0.941 . S
C111 C110 1.389 . S
C111 C112 1.397 . S
C112 H98 0.939 . S
C112 C111 1.397 . S
C112 C113 1.378 . S
C113 C112 1.378 . S
C113 C114 1.378 . S
C114 H99 0.940 . S
C114 C113 1.378 . S
C114 C115 1.396 . S
C115 H100 0.940 . S
C115 C110 1.391 . S
C115 C114 1.396 . S
C116 P96 1.803 . S
C116 C117 1.378 . S
C116 C121 1.400 . S
C117 H101 0.939 . S
C117 C116 1.378 . S
C117 C118 1.361 . S
C118 H102 0.942 . S
C118 C117 1.361 . S
C118 C119 1.369 . S
C119 C118 1.369 . S
C119 C120 1.404 . S
C120 H103 0.940 . S
C120 C119 1.404 . S
C120 C121 1.389 . S
C121 H104 0.939 . S
C121 C116 1.400 . S
C121 C120 1.389 . S
C122 P96 1.819 . S
C122 C123 1.391 . S
C122 C127 1.391 . S
C123 H105 0.941 . S
C123 C122 1.391 . S
C123 C124 1.396 . S
C124 H108 0.939 . S
C124 C123 1.396 . S
C124 C125 1.397 . S
C125 C124 1.397 . S
C125 C126 1.385 . S
C126 H109 0.940 . S
C126 C125 1.385 . S
C126 C127 1.388 . S
C127 H106 0.939 . S
C127 C122 1.391 . S
C127 C126 1.388 . S
P128 O139 1.490 . S
P128 C142 1.812 1_554 S
P128 C148 1.803 . S
P128 C154 1.819 . S
H129 C143 0.941 . S
H130 C144 0.939 . S
H131 C146 0.940 . S
H132 C147 0.940 . S
H133 C149 0.939 . S
H134 C150 0.942 . S
H135 C152 0.940 . S
H136 C153 0.939 1_556 S
H137 C155 0.941 . S
H138 C159 0.939 . S
O139 P128 1.490 . S
H140 C156 0.939 . S
H141 C158 0.940 . S
C142 P128 1.812 1_556 S
C142 C143 1.389 . S
C142 C147 1.391 . S
C143 H129 0.941 . S
C143 C142 1.389 . S
C143 C144 1.397 . S
C144 H130 0.939 . S
C144 C143 1.397 . S
C144 C145 1.378 . S
C145 C144 1.378 . S
C145 C146 1.378 . S
C146 H131 0.940 . S
C146 C145 1.378 . S
C146 C147 1.396 . S
C147 H132 0.940 . S
C147 C142 1.391 . S
C147 C146 1.396 . S
C148 P128 1.803 . S
C148 C149 1.378 . S
C148 C153 1.400 . S
C149 H133 0.939 . S
C149 C148 1.378 . S
C149 C150 1.361 . S
C150 H134 0.942 . S
C150 C149 1.361 . S
C150 C151 1.369 . S
C151 C150 1.369 . S
C151 C152 1.404 . S
C152 H135 0.940 . S
C152 C151 1.404 . S
C152 C153 1.389 . S
C153 H136 0.939 1_554 S
C153 C148 1.400 . S
C153 C152 1.389 . S
C154 P128 1.819 . S
C154 C155 1.391 . S
C154 C159 1.391 . S
C155 H137 0.941 . S
C155 C154 1.391 . S
C155 C156 1.396 . S
C156 H140 0.939 . S
C156 C155 1.396 . S
C156 C157 1.397 . S
C157 C156 1.397 . S
C157 C158 1.385 . S
C158 H141 0.940 . S
C158 C157 1.385 . S
C158 C159 1.388 . S
C159 H138 0.939 . S
C159 C154 1.391 . S
C159 C158 1.388 . S
P160 O171 1.490 . S
P160 C174 1.812 1_554 S
P160 C180 1.803 . S
P160 C186 1.819 . S
H161 C175 0.941 . S
H162 C176 0.939 . S
H163 C178 0.940 . S
H164 C179 0.940 . S
H165 C181 0.939 . S
H166 C182 0.942 . S
H167 C184 0.940 . S
H168 C185 0.939 1_556 S
H169 C187 0.941 . S
H170 C191 0.939 . S
O171 P160 1.490 . S
H172 C188 0.939 . S
H173 C190 0.940 . S
C174 P160 1.812 1_556 S
C174 C175 1.389 . S
C174 C179 1.391 . S
C175 H161 0.941 . S
C175 C174 1.389 . S
C175 C176 1.397 . S
C176 H162 0.939 . S
C176 C175 1.397 . S
C176 C177 1.378 . S
C177 C176 1.378 . S
C177 C178 1.378 . S
C178 H163 0.940 . S
C178 C177 1.378 . S
C178 C179 1.396 . S
C179 H164 0.940 . S
C179 C174 1.391 . S
C179 C178 1.396 . S
C180 P160 1.803 . S
C180 C181 1.378 . S
C180 C185 1.400 . S
C181 H165 0.939 . S
C181 C180 1.378 . S
C181 C182 1.361 . S
C182 H166 0.942 . S
C182 C181 1.361 . S
C182 C183 1.369 . S
C183 C182 1.369 . S
C183 C184 1.404 . S
C184 H167 0.940 . S
C184 C183 1.404 . S
C184 C185 1.389 . S
C185 H168 0.939 1_554 S
C185 C180 1.400 . S
C185 C184 1.389 . S
C186 P160 1.819 . S
C186 C187 1.391 . S
C186 C191 1.391 . S
C187 H169 0.941 . S
C187 C186 1.391 . S
C187 C188 1.396 . S
C188 H172 0.939 . S
C188 C187 1.396 . S
C188 C189 1.397 . S
C189 C188 1.397 . S
C189 C190 1.385 . S
C190 H173 0.940 . S
C190 C189 1.385 . S
C190 C191 1.388 . S
C191 H170 0.939 . S
C191 C186 1.391 . S
C191 C190 1.388 . S
P192 O203 1.490 . S
P192 C206 1.812 1_554 S
P192 C212 1.803 . S
P192 C218 1.819 . S
H193 C207 0.941 . S
H194 C208 0.939 . S
H195 C210 0.940 . S
H196 C211 0.940 . S
H197 C213 0.939 . S
H198 C214 0.942 . S
H199 C216 0.940 . S
H200 C217 0.939 1_556 S
H201 C219 0.941 . S
H202 C223 0.939 . S
O203 P192 1.490 . S
H204 C220 0.939 . S
H205 C222 0.940 . S
C206 P192 1.812 1_556 S
C206 C207 1.389 . S
C206 C211 1.391 . S
C207 H193 0.941 . S
C207 C206 1.389 . S
C207 C208 1.397 . S
C208 H194 0.939 . S
C208 C207 1.397 . S
C208 C209 1.378 . S
C209 C208 1.378 . S
C209 C210 1.378 . S
C210 H195 0.940 . S
C210 C209 1.378 . S
C210 C211 1.396 . S
C211 H196 0.940 . S
C211 C206 1.391 . S
C211 C210 1.396 . S
C212 P192 1.803 . S
C212 C213 1.378 . S
C212 C217 1.400 . S
C213 H197 0.939 . S
C213 C212 1.378 . S
C213 C214 1.361 . S
C214 H198 0.942 . S
C214 C213 1.361 . S
C214 C215 1.369 . S
C215 C214 1.369 . S
C215 C216 1.404 . S
C216 H199 0.940 . S
C216 C215 1.404 . S
C216 C217 1.389 . S
C217 H200 0.939 1_554 S
C217 C212 1.400 . S
C217 C216 1.389 . S
C218 P192 1.819 . S
C218 C219 1.391 . S
C218 C223 1.391 . S
C219 H201 0.941 . S
C219 C218 1.391 . S
C219 C220 1.396 . S
C220 H204 0.939 . S
C220 C219 1.396 . S
C220 C221 1.397 . S
C221 C220 1.397 . S
C221 C222 1.385 . S
C222 H205 0.940 . S
C222 C221 1.385 . S
C222 C223 1.388 . S
C223 H202 0.939 . S
C223 C218 1.391 . S
C223 C222 1.388 . S
P224 O235 1.490 . S
P224 C238 1.812 1_554 S
P224 C244 1.803 . S
P224 C250 1.819 . S
H225 C239 0.941 . S
H226 C240 0.939 . S
H227 C242 0.940 . S
H228 C243 0.940 . S
H229 C245 0.939 . S
H230 C246 0.942 . S
H231 C248 0.940 . S
H232 C249 0.939 1_556 S
H233 C251 0.941 . S
H234 C255 0.939 . S
O235 P224 1.490 . S
H236 C252 0.939 . S
H237 C254 0.940 . S
C238 P224 1.812 1_556 S
C238 C239 1.389 . S
C238 C243 1.391 . S
C239 H225 0.941 . S
C239 C238 1.389 . S
C239 C240 1.397 . S
C240 H226 0.939 . S
C240 C239 1.397 . S
C240 C241 1.378 . S
C241 C240 1.378 . S
C241 C242 1.378 . S
C242 H227 0.940 . S
C242 C241 1.378 . S
C242 C243 1.396 . S
C243 H228 0.940 . S
C243 C238 1.391 . S
C243 C242 1.396 . S
C244 P224 1.803 . S
C244 C245 1.378 . S
C244 C249 1.400 . S
C245 H229 0.939 . S
C245 C244 1.378 . S
C245 C246 1.361 . S
C246 H230 0.942 . S
C246 C245 1.361 . S
C246 C247 1.369 . S
C247 C246 1.369 . S
C247 C248 1.404 . S
C248 H231 0.940 . S
C248 C247 1.404 . S
C248 C249 1.389 . S
C249 H232 0.939 1_554 S
C249 C244 1.400 . S
C249 C248 1.389 . S
C250 P224 1.819 . S
C250 C251 1.391 . S
C250 C255 1.391 . S
C251 H233 0.941 . S
C251 C250 1.391 . S
C251 C252 1.396 . S
C252 H236 0.939 . S
C252 C251 1.396 . S
C252 C253 1.397 . S
C253 C252 1.397 . S
C253 C254 1.385 . S
C254 H237 0.940 . S
C254 C253 1.385 . S
C254 C255 1.388 . S
C255 H234 0.939 . S
C255 C250 1.391 . S
C255 C254 1.388 . S
Gd256 N287 2.661 1_545 S
Gd256 N293 2.601 . S
Gd256 O300 2.545 . S
Gd256 O301 2.606 1_655 S
Gd256 O303 2.429 . S
Gd256 O304 2.543 1_655 S
Gd256 O305 2.412 . S
Gd256 O307 2.362 1_545 S
Gd256 O308 2.324 1_655 S
Gd256 C315 2.828 . S
Gd257 N266 2.661 1_565 S
Gd257 N270 2.601 . S
Gd257 O301 2.362 1_565 S
Gd257 O302 2.324 1_455 S
Gd257 O306 2.545 . S
Gd257 O307 2.606 1_455 S
Gd257 O309 2.429 . S
Gd257 O310 2.545 . S
Gd257 O311 2.412 . S
Gd257 C324 2.828 . S
C258 C261 1.417 1_554 S
C258 C263 1.431 . S
C258 C264 1.412 . S
C259 C262 1.437 1_554 S
C259 C263 1.317 . S
C259 H278 0.929 . S
C260 C261 1.426 . S
C260 C262 1.413 . S
C260 N270 1.359 1_545 S
C261 C258 1.417 1_556 S
C261 C260 1.426 . S
C261 N266 1.350 . S
C262 C259 1.437 1_556 S
C262 C260 1.413 . S
C262 C272 1.391 . S
C263 C258 1.431 . S
C263 C259 1.317 . S
C263 H274 0.930 . S
C264 C258 1.412 . S
C264 C265 1.355 . S
C264 H276 0.930 . S
C265 C264 1.355 . S
C265 C267 1.402 1_554 S
C265 H277 0.930 1_455 S
N266 Gd257 2.661 1_545 S
N266 C261 1.350 . S
N266 C267 1.307 . S
C267 C265 1.402 1_556 S
C267 N266 1.307 . S
C267 H268 0.930 1_455 S
H268 C267 0.930 1_655 S
C269 N270 1.334 . S
C269 C271 1.394 . S
C269 H273 0.930 . S
N270 Gd257 2.601 . S
N270 C260 1.359 1_565 S
N270 C269 1.334 . S
C271 C269 1.394 . S
C271 C272 1.359 1_565 S
C271 H283 0.930 . S
C272 C262 1.391 . S
C272 C271 1.359 1_545 S
C272 H284 0.929 . S
H273 C269 0.930 . S
H274 C263 0.930 . S
H275 C292 0.930 1_455 S
H276 C264 0.930 . S
H277 C265 0.930 1_655 S
H278 C259 0.929 . S
H279 C297 0.930 . S
H280 C288 0.930 . S
H281 C289 0.930 1_455 S
H282 C313 0.929 . S
H283 C271 0.930 . S
H284 C272 0.929 . S
H285 C314 0.930 . S
H286 C295 0.930 . S
N287 Gd256 2.661 1_565 S
N287 C291 1.350 . S
N287 C292 1.307 . S
C288 H280 0.930 . S
C288 C289 1.355 . S
C288 C290 1.412 . S
C289 H281 0.930 1_655 S
C289 C288 1.355 . S
C289 C292 1.402 . S
C290 C288 1.412 . S
C290 C291 1.417 . S
C290 C314 1.431 . S
C291 N287 1.350 . S
C291 C290 1.417 . S
C291 C294 1.430 . S
C292 H275 0.930 1_655 S
C292 N287 1.307 . S
C292 C289 1.402 . S
N293 Gd256 2.601 . S
N293 C294 1.355 1_545 S
N293 C297 1.334 . S
C294 C291 1.430 . S
C294 N293 1.355 1_565 S
C294 C298 1.415 . S
C295 H286 0.930 . S
C295 C296 1.359 . S
C295 C297 1.394 . S
C296 C295 1.359 . S
C296 C298 1.391 1_545 S
C296 H299 0.929 . S
C297 H279 0.930 . S
C297 N293 1.334 . S
C297 C295 1.394 . S
C298 C294 1.415 . S
C298 C296 1.391 1_565 S
C298 C313 1.437 . S
H299 C296 0.929 . S
O300 Gd256 2.545 . S
O300 C315 1.258 . S
O301 Gd256 2.606 1_455 S
O301 Gd257 2.362 1_545 S
O301 C312 1.284 . S
O302 Gd257 2.324 1_655 S
O302 C322 1.254 1_565 S
O303 Gd256 2.429 . S
O303 C322 1.268 . S
O304 Gd256 2.543 1_455 S
O304 C312 1.252 . S
O305 Gd256 2.412 . S
O305 C315 1.252 . S
O306 Gd257 2.545 . S
O306 C324 1.258 . S
O307 Gd256 2.362 1_565 S
O307 Gd257 2.606 1_655 S
O307 C323 1.284 . S
O308 Gd256 2.324 1_455 S
O308 C331 1.254 . S
O309 Gd257 2.429 . S
O309 C331 1.268 1_565 S
O310 Gd257 2.545 . S
O310 C323 1.250 1_455 S
O311 Gd257 2.412 . S
O311 C324 1.252 . S
C312 O301 1.284 . S
C312 O304 1.252 . S
C313 H282 0.929 . S
C313 C298 1.437 . S
C313 C314 1.317 . S
C314 H285 0.930 . S
C314 C290 1.431 . S
C314 C313 1.317 . S
C315 Gd256 2.828 . S
C315 O300 1.258 . S
C315 O305 1.252 . S
C315 C316 1.497 . S
C316 C315 1.497 . S
C316 C317 1.395 . S
C316 C318 1.380 . S
C317 C316 1.395 . S
C317 C320 1.398 . S
C317 H332 0.930 . S
C318 C316 1.380 . S
C318 C319 1.391 . S
C318 H333 0.930 1_655 S
C319 C318 1.391 . S
C319 C321 1.387 . S
C320 C317 1.398 . S
C320 C321 1.380 . S
C320 H334 0.930 . S
C321 C319 1.387 . S
C321 C320 1.380 . S
C321 H335 0.930 . S
C322 O302 1.254 1_545 S
C322 O303 1.268 . S
C323 O307 1.284 . S
C323 O310 1.250 1_655 S
C324 Gd257 2.828 . S
C324 O306 1.258 . S
C324 O311 1.252 . S
C324 C325 1.497 . S
C325 C324 1.497 . S
C325 C326 1.395 . S
C325 C327 1.380 . S
C326 C325 1.395 . S
C326 C329 1.398 . S
C326 H336 0.930 . S
C327 C325 1.380 . S
C327 C328 1.391 1_556 S
C327 H337 0.930 . S
C328 C327 1.391 1_554 S
C328 C330 1.387 . S
C329 C326 1.398 . S
C329 C330 1.380 1_556 S
C329 H338 0.930 . S
C330 C328 1.387 . S
C330 C329 1.380 1_554 S
C330 H339 0.930 . S
C331 O308 1.254 . S
C331 O309 1.268 1_545 S
H332 C317 0.930 . S
H333 C318 0.930 1_455 S
H334 C320 0.930 . S
H335 C321 0.930 . S
H336 C326 0.930 . S
H337 C327 0.930 . S
H338 C329 0.930 . S
H339 C330 0.930 . S
Gd340 N371 2.661 . S
Gd340 N377 2.601 . S
Gd340 O384 2.545 . S
Gd340 O385 2.606 1_565 S
Gd340 O387 2.429 . S
Gd340 O388 2.536 1_565 S
Gd340 O389 2.412 . S
Gd340 O391 2.362 . S
Gd340 O392 2.324 1_565 S
Gd340 C399 2.828 . S
Gd341 N350 2.661 . S
Gd341 N354 2.601 . S
Gd341 O385 2.362 . S
Gd341 O386 2.324 1_545 S
Gd341 O390 2.545 . S
Gd341 O391 2.606 1_545 S
Gd341 O393 2.429 . S
Gd341 O394 2.545 . S
Gd341 O395 2.412 . S
Gd341 C408 2.828 . S
C342 C345 1.417 1_554 S
C342 C347 1.431 . S
C342 C348 1.412 . S
C343 C346 1.437 1_554 S
C343 C347 1.317 . S
C343 H362 0.929 . S
C344 C345 1.426 . S
C344 C346 1.413 . S
C344 N354 1.359 . S
C345 C342 1.417 1_556 S
C345 C344 1.426 . S
C345 N350 1.350 . S
C346 C343 1.437 1_556 S
C346 C344 1.413 . S
C346 C356 1.391 . S
C347 C342 1.431 . S
C347 C343 1.317 . S
C347 H358 0.930 . S
C348 C342 1.412 . S
C348 C349 1.355 . S
C348 H360 0.930 . S
C349 C348 1.355 . S
C349 C351 1.402 1_554 S
C349 H361 0.930 1_545 S
N350 Gd341 2.661 . S
N350 C345 1.350 . S
N350 C351 1.307 . S
C351 C349 1.402 1_556 S
C351 N350 1.307 . S
C351 H352 0.930 1_545 S
H352 C351 0.930 1_565 S
C353 N354 1.334 . S
C353 C355 1.394 . S
C353 H357 0.930 . S
N354 Gd341 2.601 . S
N354 C344 1.359 . S
N354 C353 1.334 . S
C355 C353 1.394 . S
C355 C356 1.359 . S
C355 H367 0.930 . S
C356 C346 1.391 . S
C356 C355 1.359 . S
C356 H368 0.929 . S
H357 C353 0.930 . S
H358 C347 0.930 . S
H359 C376 0.946 . S
H360 C348 0.930 . S
H361 C349 0.930 1_565 S
H362 C343 0.929 . S
H363 C381 0.930 . S
H364 C372 0.930 . S
H365 C373 0.901 1_545 S
H366 C397 0.929 . S
H367 C355 0.930 . S
H368 C356 0.929 . S
H369 C398 0.930 . S
H370 C379 0.930 . S
N371 Gd340 2.661 . S
N371 C375 1.350 . S
N371 C376 1.293 1_565 S
C372 H364 0.930 . S
C372 C373 1.386 . S
C372 C374 1.412 . S
C373 H365 0.901 1_565 S
C373 C372 1.386 . S
C373 C376 1.401 1_565 S
C374 C372 1.412 . S
C374 C375 1.417 . S
C374 C398 1.431 . S
C375 N371 1.350 . S
C375 C374 1.417 . S
C375 C378 1.426 . S
C376 H359 0.946 . S
C376 N371 1.293 1_545 S
C376 C373 1.401 1_545 S
N377 Gd340 2.601 . S
N377 C378 1.359 . S
N377 C381 1.334 . S
C378 C375 1.426 . S
C378 N377 1.359 . S
C378 C382 1.413 . S
C379 H370 0.930 . S
C379 C380 1.359 . S
C379 C381 1.394 . S
C380 C379 1.359 . S
C380 C382 1.391 . S
C380 H383 0.929 . S
C381 H363 0.930 . S
C381 N377 1.334 . S
C381 C379 1.394 . S
C382 C378 1.413 . S
C382 C380 1.391 . S
C382 C397 1.437 . S
H383 C380 0.929 . S
O384 Gd340 2.545 . S
O384 C399 1.258 . S
O385 Gd340 2.606 1_545 S
O385 Gd341 2.362 . S
O385 C396 1.284 . S
O386 Gd341 2.324 1_565 S
O386 C406 1.254 . S
O387 Gd340 2.429 . S
O387 C406 1.268 . S
O388 Gd340 2.536 1_545 S
O388 C396 1.267 . S
O389 Gd340 2.412 . S
O389 C399 1.252 . S
O390 Gd341 2.545 . S
O390 C408 1.258 . S
O391 Gd340 2.362 . S
O391 Gd341 2.606 1_565 S
O391 C407 1.284 . S
O392 Gd340 2.324 1_545 S
O392 C415 1.254 . S
O393 Gd341 2.429 . S
O393 C415 1.268 . S
O394 Gd341 2.545 . S
O394 C407 1.250 1_545 S
O395 Gd341 2.412 . S
O395 C408 1.252 . S
C396 O385 1.284 . S
C396 O388 1.267 . S
C397 H366 0.929 . S
C397 C382 1.437 . S
C397 C398 1.317 . S
C398 H369 0.930 . S
C398 C374 1.431 . S
C398 C397 1.317 . S
C399 Gd340 2.828 . S
C399 O384 1.258 . S
C399 O389 1.252 . S
C399 C400 1.497 . S
C400 C399 1.497 . S
C400 C401 1.395 . S
C400 C402 1.380 . S
C401 C400 1.395 . S
C401 C404 1.398 . S
C401 H416 0.930 . S
C402 C400 1.380 . S
C402 C403 1.391 . S
C402 H417 0.930 1_565 S
C403 C402 1.391 . S
C403 C405 1.387 . S
C404 C401 1.398 . S
C404 C405 1.380 . S
C404 H418 0.930 . S
C405 C403 1.387 . S
C405 C404 1.380 . S
C405 H419 0.930 . S
C406 O386 1.254 . S
C406 O387 1.268 . S
C407 O391 1.284 . S
C407 O394 1.250 1_565 S
C408 Gd341 2.828 . S
C408 O390 1.258 . S
C408 O395 1.252 . S
C408 C409 1.497 . S
C409 C408 1.497 . S
C409 C410 1.395 . S
C409 C411 1.380 . S
C410 C409 1.395 . S
C410 C413 1.398 . S
C410 H420 0.930 . S
C411 C409 1.380 . S
C411 C412 1.391 1_556 S
C411 H421 0.930 . S
C412 C411 1.391 1_554 S
C412 C414 1.387 . S
C413 C410 1.398 . S
C413 C414 1.380 1_556 S
C413 H422 0.930 . S
C414 C412 1.387 . S
C414 C413 1.380 1_554 S
C414 H423 0.930 . S
C415 O392 1.254 . S
C415 O393 1.268 . S
H416 C401 0.930 . S
H417 C402 0.930 1_545 S
H418 C404 0.930 . S
H419 C405 0.930 . S
H420 C410 0.930 . S
H421 C411 0.930 . S
H422 C413 0.930 . S
H423 C414 0.930 . S
Gd424 N455 2.661 . S
Gd424 N461 2.601 . S
Gd424 O468 2.545 . S
Gd424 O469 2.606 . S
Gd424 O471 2.429 . S
Gd424 O472 2.545 . S
Gd424 O473 2.412 . S
Gd424 O475 2.362 . S
Gd424 O476 2.324 . S
Gd424 C483 2.828 . S
Gd425 N434 2.661 . S
Gd425 N438 2.601 . S
Gd425 O469 2.362 . S
Gd425 O470 2.324 . S
Gd425 O474 2.545 . S
Gd425 O475 2.606 . S
Gd425 O477 2.429 . S
Gd425 O478 2.545 . S
Gd425 O479 2.412 . S
Gd425 C492 2.828 . S
C426 C429 1.417 . S
C426 C431 1.431 . S
C426 C432 1.412 . S
C427 C430 1.437 . S
C427 C431 1.317 . S
C427 H446 0.929 . S
C428 C429 1.426 . S
C428 C430 1.413 . S
C428 N438 1.359 . S
C429 C426 1.417 . S
C429 C428 1.426 . S
C429 N434 1.350 . S
C430 C427 1.437 . S
C430 C428 1.413 . S
C430 C440 1.391 . S
C431 C426 1.431 . S
C431 C427 1.317 . S
C431 H442 0.930 . S
C432 C426 1.412 . S
C432 C433 1.355 . S
C432 H444 0.930 . S
C433 C432 1.355 . S
C433 C435 1.402 . S
C433 H445 0.930 . S
N434 Gd425 2.661 . S
N434 C429 1.350 . S
N434 C435 1.307 . S
C435 C433 1.402 . S
C435 N434 1.307 . S
C435 H436 0.930 . S
H436 C435 0.930 . S
C437 N438 1.334 . S
C437 C439 1.394 . S
C437 H441 0.930 . S
N438 Gd425 2.601 . S
N438 C428 1.359 . S
N438 C437 1.334 . S
C439 C437 1.394 . S
C439 C440 1.359 . S
C439 H451 0.930 . S
C440 C430 1.391 . S
C440 C439 1.359 . S
C440 H452 0.929 . S
H441 C437 0.930 . S
H442 C431 0.930 . S
H443 C460 0.930 . S
H444 C432 0.930 . S
H445 C433 0.930 . S
H446 C427 0.929 . S
H447 C465 0.930 . S
H448 C456 0.930 . S
H449 C457 0.930 . S
H450 C481 0.929 . S
H451 C439 0.930 . S
H452 C440 0.929 . S
H453 C482 0.930 . S
H454 C463 0.930 . S
N455 Gd424 2.661 . S
N455 C459 1.350 . S
N455 C460 1.307 . S
C456 H448 0.930 . S
C456 C457 1.355 . S
C456 C458 1.412 . S
C457 H449 0.930 . S
C457 C456 1.355 . S
C457 C460 1.402 . S
C458 C456 1.412 . S
C458 C459 1.417 . S
C458 C482 1.431 . S
C459 N455 1.350 . S
C459 C458 1.417 . S
C459 C462 1.426 . S
C460 H443 0.930 . S
C460 N455 1.307 . S
C460 C457 1.402 . S
N461 Gd424 2.601 . S
N461 C462 1.359 . S
N461 C465 1.334 . S
C462 C459 1.426 . S
C462 N461 1.359 . S
C462 C466 1.413 . S
C463 H454 0.930 . S
C463 C464 1.359 . S
C463 C465 1.394 . S
C464 C463 1.359 . S
C464 C466 1.391 . S
C464 H467 0.929 . S
C465 H447 0.930 . S
C465 N461 1.334 . S
C465 C463 1.394 . S
C466 C462 1.413 . S
C466 C464 1.391 . S
C466 C481 1.437 . S
H467 C464 0.929 . S
O468 Gd424 2.545 . S
O468 C483 1.258 . S
O469 Gd424 2.606 . S
O469 Gd425 2.362 . S
O469 C480 1.284 . S
O470 Gd425 2.324 . S
O470 C490 1.254 . S
O471 Gd424 2.429 . S
O471 C490 1.268 . S
O472 Gd424 2.545 . S
O472 C480 1.250 . S
O473 Gd424 2.412 . S
O473 C483 1.252 . S
O474 Gd425 2.545 . S
O474 C492 1.258 . S
O475 Gd424 2.362 . S
O475 Gd425 2.606 . S
O475 C491 1.284 . S
O476 Gd424 2.324 . S
O476 C499 1.254 . S
O477 Gd425 2.429 . S
O477 C499 1.268 . S
O478 Gd425 2.545 . S
O478 C491 1.250 . S
O479 Gd425 2.412 . S
O479 C492 1.252 . S
C480 O469 1.284 . S
C480 O472 1.250 . S
C481 H450 0.929 . S
C481 C466 1.437 . S
C481 C482 1.317 . S
C482 H453 0.930 . S
C482 C458 1.431 . S
C482 C481 1.317 . S
C483 Gd424 2.828 . S
C483 O468 1.258 . S
C483 O473 1.252 . S
C483 C484 1.497 . S
C484 C483 1.497 . S
C484 C485 1.395 1_556 S
C484 C486 1.380 . S
C485 C484 1.395 1_554 S
C485 C488 1.398 . S
C485 H500 0.930 . S
C486 C484 1.380 . S
C486 C487 1.391 1_556 S
C486 H501 0.930 . S
C487 C486 1.391 1_554 S
C487 C489 1.387 . S
C488 C485 1.398 . S
C488 C489 1.380 . S
C488 H502 0.930 . S
C489 C487 1.387 . S
C489 C488 1.380 . S
C489 H503 0.930 . S
C490 O470 1.254 . S
C490 O471 1.268 . S
C491 O475 1.284 . S
C491 O478 1.250 . S
C492 Gd425 2.828 . S
C492 O474 1.258 . S
C492 O479 1.252 . S
C492 C493 1.497 . S
C493 C492 1.497 . S
C493 C494 1.395 . S
C493 C495 1.380 . S
C494 C493 1.395 . S
C494 C497 1.398 . S
C494 H504 0.930 . S
C495 C493 1.380 . S
C495 C496 1.391 . S
C495 H505 0.930 . S
C496 C495 1.391 . S
C496 C498 1.387 . S
C497 C494 1.398 . S
C497 C498 1.380 . S
C497 H506 0.930 . S
C498 C496 1.387 . S
C498 C497 1.380 . S
C498 H507 0.930 . S
C499 O476 1.254 . S
C499 O477 1.268 . S
H500 C485 0.930 . S
H501 C486 0.930 . S
H502 C488 0.930 . S
H503 C489 0.930 . S
H504 C494 0.930 . S
H505 C495 0.930 . S
H506 C497 0.930 . S
H507 C498 0.930 . S
Gd508 N539 2.661 . S
Gd508 N545 2.601 . S
Gd508 O552 2.545 . S
Gd508 O553 2.614 . S
Gd508 O555 2.429 1_655 S
Gd508 O556 2.545 . S
Gd508 O557 2.412 . S
Gd508 O559 2.362 1_655 S
Gd508 O560 2.324 . S
Gd508 C567 2.828 . S
Gd509 N518 2.661 . S
Gd509 N522 2.601 . S
Gd509 O553 2.349 1_455 S
Gd509 O554 2.324 . S
Gd509 O558 2.545 . S
Gd509 O559 2.606 . S
Gd509 O561 2.429 1_455 S
Gd509 O562 2.545 . S
Gd509 O563 2.412 . S
Gd509 C576 2.828 . S
C510 C513 1.417 . S
C510 C515 1.431 . S
C510 C516 1.412 . S
C511 C514 1.437 . S
C511 C515 1.317 . S
C511 H530 0.929 . S
C512 C513 1.426 . S
C512 C514 1.413 . S
C512 N522 1.359 . S
C513 C510 1.417 . S
C513 C512 1.426 . S
C513 N518 1.350 . S
C514 C511 1.437 . S
C514 C512 1.413 . S
C514 C524 1.391 . S
C515 C510 1.431 . S
C515 C511 1.317 . S
C515 H526 0.930 . S
C516 C510 1.412 . S
C516 C517 1.355 . S
C516 H528 0.930 . S
C517 C516 1.355 . S
C517 C519 1.402 . S
C517 H529 0.930 . S
N518 Gd509 2.661 . S
N518 C513 1.350 . S
N518 C519 1.307 . S
C519 C517 1.402 . S
C519 N518 1.307 . S
C519 H520 0.930 . S
H520 C519 0.930 . S
C521 N522 1.334 1_655 S
C521 C523 1.394 . S
C521 H525 0.930 . S
N522 Gd509 2.601 . S
N522 C512 1.359 . S
N522 C521 1.334 1_455 S
C523 C521 1.394 . S
C523 C524 1.359 1_655 S
C523 H535 0.930 . S
C524 C514 1.391 . S
C524 C523 1.359 1_455 S
C524 H536 0.929 . S
H525 C521 0.930 . S
H526 C515 0.930 . S
H527 C544 0.930 . S
H528 C516 0.930 . S
H529 C517 0.930 . S
H530 C511 0.929 . S
H531 C549 0.930 . S
H532 C540 0.930 . S
H533 C541 0.930 . S
H534 C565 0.929 . S
H535 C523 0.930 . S
H536 C524 0.929 . S
H537 C566 0.930 . S
H538 C547 0.930 . S
N539 Gd508 2.661 . S
N539 C543 1.350 . S
N539 C544 1.307 . S
C540 H532 0.930 . S
C540 C541 1.355 . S
C540 C542 1.412 . S
C541 H533 0.930 . S
C541 C540 1.355 . S
C541 C544 1.402 . S
C542 C540 1.412 . S
C542 C543 1.417 . S
C542 C566 1.431 . S
C543 N539 1.350 . S
C543 C542 1.417 . S
C543 C546 1.426 . S
C544 H527 0.930 . S
C544 N539 1.307 . S
C544 C541 1.402 . S
N545 Gd508 2.601 . S
N545 C546 1.359 . S
N545 C549 1.334 1_655 S
C546 C543 1.426 . S
C546 N545 1.359 . S
C546 C550 1.413 . S
C547 H538 0.930 . S
C547 C548 1.359 . S
C547 C549 1.394 . S
C548 C547 1.359 . S
C548 C550 1.391 1_455 S
C548 H551 0.929 . S
C549 H531 0.930 . S
C549 N545 1.334 1_455 S
C549 C547 1.394 . S
C550 C546 1.413 . S
C550 C548 1.391 1_655 S
C550 C565 1.437 . S
H551 C548 0.929 . S
O552 Gd508 2.545 . S
O552 C567 1.258 . S
O553 Gd508 2.614 . S
O553 Gd509 2.349 1_655 S
O553 C564 1.294 . S
O554 Gd509 2.324 . S
O554 C574 1.254 . S
O555 Gd508 2.429 1_455 S
O555 C574 1.268 . S
O556 Gd508 2.545 . S
O556 C564 1.250 . S
O557 Gd508 2.412 . S
O557 C567 1.252 . S
O558 Gd509 2.545 . S
O558 C576 1.258 . S
O559 Gd508 2.362 1_455 S
O559 Gd509 2.606 . S
O559 C575 1.284 . S
O560 Gd508 2.324 . S
O560 C583 1.254 . S
O561 Gd509 2.429 1_655 S
O561 C583 1.268 . S
O562 Gd509 2.545 . S
O562 C575 1.250 . S
O563 Gd509 2.412 . S
O563 C576 1.252 . S
C564 O553 1.294 . S
C564 O556 1.250 . S
C565 H534 0.929 . S
C565 C550 1.437 . S
C565 C566 1.317 . S
C566 H537 0.930 . S
C566 C542 1.431 . S
C566 C565 1.317 . S
C567 Gd508 2.828 . S
C567 O552 1.258 . S
C567 O557 1.252 . S
C567 C568 1.497 . S
C568 C567 1.497 . S
C568 C569 1.395 1_556 S
C568 C570 1.380 . S
C569 C568 1.395 1_554 S
C569 C572 1.398 . S
C569 H584 0.930 . S
C570 C568 1.380 . S
C570 C571 1.391 1_556 S
C570 H585 0.930 . S
C571 C570 1.391 1_554 S
C571 C573 1.387 . S
C572 C569 1.398 . S
C572 C573 1.380 . S
C572 H586 0.930 . S
C573 C571 1.387 . S
C573 C572 1.380 . S
C573 H587 0.930 . S
C574 O554 1.254 . S
C574 O555 1.268 . S
C575 O559 1.284 . S
C575 O562 1.250 . S
C576 Gd509 2.828 . S
C576 O558 1.258 . S
C576 O563 1.252 . S
C576 C577 1.497 . S
C577 C576 1.497 . S
C577 C578 1.395 . S
C577 C579 1.380 . S
C578 C577 1.395 . S
C578 C581 1.398 . S
C578 H588 0.930 . S
C579 C577 1.380 . S
C579 C580 1.391 . S
C579 H589 0.930 . S
C580 C579 1.391 . S
C580 C582 1.387 . S
C581 C578 1.398 . S
C581 C582 1.380 . S
C581 H590 0.930 . S
C582 C580 1.387 . S
C582 C581 1.380 . S
C582 H591 0.930 . S
C583 O560 1.254 . S
C583 O561 1.268 . S
H584 C569 0.930 . S
H585 C570 0.930 . S
H586 C572 0.930 . S
H587 C573 0.930 . S
H588 C578 0.930 . S
H589 C579 0.930 . S
H590 C581 0.930 . S
H591 C582 0.930 . S
C592 C593 1.369 . S
C592 C594 1.419 . S
C592 H596 0.930 . S
C593 C592 1.369 . S
C593 C602 1.429 . S
C594 C592 1.419 . S
C594 C595 1.363 . S
C594 H597 0.929 1_545 S
C595 C594 1.363 . S
C595 C601 1.428 . S
H596 C592 0.930 . S
H597 C594 0.929 1_565 S
S598 N599 1.613 . S
S598 N600 1.610 . S
N599 S598 1.613 . S
N599 C602 1.350 . S
N600 S598 1.610 . S
N600 C601 1.351 . S
C601 C595 1.428 . S
C601 N600 1.351 . S
C601 C602 1.434 . S
C602 C593 1.429 . S
C602 N599 1.350 . S
C602 C601 1.434 . S
C603 C604 1.369 . S
C603 C605 1.419 . S
C603 H607 0.930 . S
C604 C603 1.369 . S
C604 C613 1.429 . S
C605 C603 1.419 . S
C605 C606 1.363 . S
C605 H608 0.929 . S
C606 C605 1.363 . S
C606 C612 1.428 . S
H607 C603 0.930 . S
H608 C605 0.929 . S
S609 N610 1.613 . S
S609 N611 1.610 . S
N610 S609 1.613 . S
N610 C613 1.350 . S
N611 S609 1.610 . S
N611 C612 1.351 . S
C612 C606 1.428 . S
C612 N611 1.351 . S
C612 C613 1.434 . S
C613 C604 1.429 . S
C613 N610 1.350 . S
C613 C612 1.434 . S
C614 C615 1.369 . S
C614 C616 1.419 . S
C614 H618 0.930 . S
C615 C614 1.369 . S
C615 C624 1.429 . S
C616 C614 1.419 . S
C616 C617 1.363 . S
C616 H619 0.929 . S
C617 C616 1.363 . S
C617 C623 1.428 . S
H618 C614 0.930 . S
H619 C616 0.929 . S
S620 N621 1.613 . S
S620 N622 1.610 . S
N621 S620 1.613 . S
N621 C624 1.350 . S
N622 S620 1.610 . S
N622 C623 1.351 . S
C623 C617 1.428 . S
C623 N622 1.351 . S
C623 C624 1.434 . S
C624 C615 1.429 . S
C624 N621 1.350 . S
C624 C623 1.434 . S
C625 C626 1.369 . S
C625 C627 1.419 . S
C625 H629 0.930 . S
C626 C625 1.369 . S
C626 C635 1.429 . S
C627 C625 1.419 . S
C627 C628 1.363 . S
C627 H630 0.929 . S
C628 C627 1.363 . S
C628 C634 1.428 . S
H629 C625 0.930 . S
H630 C627 0.929 . S
S631 N632 1.613 . S
S631 N633 1.610 . S
N632 S631 1.613 . S
N632 C635 1.350 . S
N633 S631 1.610 . S
N633 C634 1.351 . S
C634 C628 1.428 . S
C634 N633 1.351 . S
C634 C635 1.434 . S
C635 C626 1.429 . S
C635 N632 1.350 . S
C635 C634 1.434 . S
C636 C637 1.369 . S
C636 C638 1.414 1_564 S
C636 H640 0.930 1_565 S
C637 C636 1.369 . S
C637 C646 1.429 . S
C638 C636 1.414 1_546 S
C638 C639 1.352 1_545 S
C638 H641 0.945 . S
C639 C638 1.352 1_565 S
C639 C645 1.428 . S
H640 C636 0.930 1_545 S
H641 C638 0.945 . S
S642 N643 1.613 1_556 S
S642 N644 1.610 . S
N643 S642 1.613 1_554 S
N643 C646 1.350 . S
N644 S642 1.610 . S
N644 C645 1.351 . S
C645 C639 1.428 . S
C645 N644 1.351 . S
C645 C646 1.434 1_556 S
C646 C637 1.429 . S
C646 N643 1.350 . S
C646 C645 1.434 1_554 S
C647 C648 1.369 . S
C647 C649 1.419 1_554 S
C647 H651 0.930 . S
C648 C647 1.369 . S
C648 C657 1.429 . S
C649 C647 1.419 1_556 S
C649 C650 1.363 . S
C649 H652 0.929 . S
C650 C649 1.363 . S
C650 C656 1.428 . S
H651 C647 0.930 . S
H652 C649 0.929 . S
S653 N654 1.613 . S
S653 N655 1.610 1_554 S
N654 S653 1.613 . S
N654 C657 1.350 . S
N655 S653 1.610 1_556 S
N655 C656 1.351 . S
C656 C650 1.428 . S
C656 N655 1.351 . S
C656 C657 1.434 1_556 S
C657 C648 1.429 . S
C657 N654 1.350 . S
C657 C656 1.434 1_554 S
C658 C659 1.369 . S
C658 C660 1.419 1_554 S
C658 H662 0.930 . S
C659 C658 1.369 . S
C659 C668 1.429 . S
C660 C658 1.419 1_556 S
C660 C661 1.363 . S
C660 H663 0.929 . S
C661 C660 1.363 . S
C661 C667 1.428 . S
H662 C658 0.930 . S
H663 C660 0.929 . S
S664 N665 1.613 1_556 S
S664 N666 1.610 . S
N665 S664 1.613 1_554 S
N665 C668 1.350 . S
N666 S664 1.610 . S
N666 C667 1.351 . S
C667 C661 1.428 . S
C667 N666 1.351 . S
C667 C668 1.434 1_556 S
C668 C659 1.429 . S
C668 N665 1.350 . S
C668 C667 1.434 1_554 S
C669 C670 1.369 . S
C669 C671 1.419 1_554 S
C669 H673 0.930 . S
C670 C669 1.369 . S
C670 C679 1.429 . S
C671 C669 1.419 1_556 S
C671 C672 1.363 . S
C671 H674 0.929 . S
C672 C671 1.363 . S
C672 C678 1.428 . S
H673 C669 0.930 . S
H674 C671 0.929 . S
S675 N676 1.613 1_556 S
S675 N677 1.610 . S
N676 S675 1.613 1_554 S
N676 C679 1.350 . S
N677 S675 1.610 . S
N677 C678 1.351 . S
C678 C672 1.428 . S
C678 N677 1.351 . S
C678 C679 1.434 1_556 S
C679 C670 1.429 . S
C679 N676 1.350 . S
C679 C678 1.434 1_554 S
C680 C681 1.369 . S
C680 C682 1.400 1_455 S
C680 H684 0.930 . S
C681 C680 1.369 . S
C681 C690 1.429 . S
C682 C680 1.400 1_655 S
C682 C683 1.363 . S
C682 H685 0.948 . S
C683 C682 1.363 . S
C683 C689 1.405 1_655 S
H684 C680 0.930 . S
H685 C682 0.948 . S
S686 N687 1.613 . S
S686 N688 1.610 . S
N687 S686 1.613 . S
N687 C690 1.350 . S
N688 S686 1.610 . S
N688 C689 1.351 . S
C689 C683 1.405 1_455 S
C689 N688 1.351 . S
C689 C690 1.434 . S
C690 C681 1.429 . S
C690 N687 1.350 . S
C690 C689 1.434 . S
C691 C692 1.369 . S
C691 C693 1.419 . S
C691 H695 0.930 . S
C692 C691 1.369 . S
C692 C701 1.429 . S
C693 C691 1.419 . S
C693 C694 1.363 1_545 S
C693 H696 0.929 . S
C694 C693 1.363 1_565 S
C694 C700 1.428 . S
H695 C691 0.930 . S
H696 C693 0.929 . S
S697 N698 1.613 1_565 S
S697 N699 1.610 . S
N698 S697 1.613 1_545 S
N698 C701 1.350 . S
N699 S697 1.610 . S
N699 C700 1.351 . S
C700 C694 1.428 . S
C700 N699 1.351 . S
C700 C701 1.434 1_565 S
C701 C692 1.429 . S
C701 N698 1.350 . S
C701 C700 1.434 1_545 S
C702 C703 1.369 . S
C702 C704 1.419 . S
C702 H706 0.930 . S
C703 C702 1.369 . S
C703 C712 1.429 . S
C704 C702 1.419 . S
C704 C705 1.363 . S
C704 H707 0.929 . S
C705 C704 1.363 . S
C705 C711 1.428 . S
H706 C702 0.930 . S
H707 C704 0.929 . S
S708 N709 1.613 . S
S708 N710 1.610 . S
N709 S708 1.613 . S
N709 C712 1.350 . S
N710 S708 1.610 . S
N710 C711 1.351 . S
C711 C705 1.428 . S
C711 N710 1.351 . S
C711 C712 1.434 . S
C712 C703 1.429 . S
C712 N709 1.350 . S
C712 C711 1.434 . S
C713 C714 1.369 . S
C713 C715 1.419 . S
C713 H717 0.930 . S
C714 C713 1.369 . S
C714 C723 1.429 . S
C715 C713 1.419 . S
C715 C716 1.363 . S
C715 H718 0.929 . S
C716 C715 1.363 . S
C716 C722 1.428 . S
H717 C713 0.930 . S
H718 C715 0.929 . S
S719 N720 1.613 . S
S719 N721 1.610 . S
N720 S719 1.613 . S
N720 C723 1.350 . S
N721 S719 1.610 . S
N721 C722 1.351 . S
C722 C716 1.428 . S
C722 N721 1.351 . S
C722 C723 1.434 . S
C723 C714 1.429 . S
C723 N720 1.350 . S
C723 C722 1.434 . S
C724 C725 1.369 . S
C724 C726 1.419 1_655 S
C724 H728 0.930 . S
C725 C724 1.369 . S
C725 C734 1.429 . S
C726 C724 1.419 1_455 S
C726 C727 1.363 . S
C726 H729 0.929 1_554 S
C727 C726 1.363 . S
C727 C733 1.428 1_455 S
H728 C724 0.930 . S
H729 C726 0.929 1_556 S
S730 N731 1.613 . S
S730 N732 1.610 . S
N731 S730 1.613 . S
N731 C734 1.350 . S
N732 S730 1.610 . S
N732 C733 1.351 . S
C733 C727 1.428 1_655 S
C733 N732 1.351 . S
C733 C734 1.434 . S
C734 C725 1.429 . S
C734 N731 1.350 . S
C734 C733 1.434 . S
C735 C736 1.369 . S
C735 C737 1.419 1_564 S
C735 H739 0.930 1_554 S
C736 C735 1.369 . S
C736 C745 1.429 . S
C737 C735 1.419 1_546 S
C737 C738 1.363 1_556 S
C737 H740 0.929 . S
C738 C737 1.363 1_554 S
C738 C744 1.428 1_545 S
H739 C735 0.930 1_556 S
H740 C737 0.929 . S
S741 N742 1.613 . S
S741 N743 1.610 1_565 S
N742 S741 1.613 . S
N742 C745 1.350 . S
N743 S741 1.610 1_545 S
N743 C744 1.351 1_545 S
C744 C738 1.428 1_565 S
C744 N743 1.351 1_565 S
C744 C745 1.434 . S
C745 C736 1.429 . S
C745 N742 1.350 . S
C745 C744 1.434 . S
C746 C747 1.369 . S
C746 C748 1.419 . S
C746 H750 0.930 . S
C747 C746 1.369 . S
C747 C756 1.429 . S
C748 C746 1.419 . S
C748 C749 1.363 . S
C748 H751 0.929 1_554 S
C749 C748 1.363 . S
C749 C755 1.428 . S
H750 C746 0.930 . S
H751 C748 0.929 1_556 S
S752 N753 1.613 . S
S752 N754 1.610 . S
N753 S752 1.613 . S
N753 C756 1.350 . S
N754 S752 1.610 . S
N754 C755 1.351 . S
C755 C749 1.428 . S
C755 N754 1.351 . S
C755 C756 1.434 . S
C756 C747 1.429 . S
C756 N753 1.350 . S
C756 C755 1.434 . S
C757 C758 1.369 . S
C757 C759 1.419 . S
C757 H761 0.930 . S
C758 C757 1.369 . S
C758 C767 1.429 . S
C759 C757 1.419 . S
C759 C760 1.363 . S
C759 H762 0.929 . S
C760 C759 1.363 . S
C760 C766 1.428 . S
H761 C757 0.930 . S
H762 C759 0.929 . S
S763 N764 1.613 . S
S763 N765 1.610 . S
N764 S763 1.613 . S
N764 C767 1.350 . S
N765 S763 1.610 . S
N765 C766 1.351 . S
C766 C760 1.428 . S
C766 N765 1.351 . S
C766 C767 1.434 . S
C767 C758 1.429 . S
C767 N764 1.350 . S
C767 C766 1.434 . S
C768 C769 1.369 . S
C768 C770 1.419 . S
C768 H772 0.930 . S
C769 C768 1.369 . S
C769 C778 1.429 . S
C770 C768 1.419 . S
C770 C771 1.363 . S
C770 H773 0.929 . S
C771 C770 1.363 . S
C771 C777 1.428 . S
H772 C768 0.930 . S
H773 C770 0.929 . S
S774 N775 1.613 . S
S774 N776 1.610 . S
N775 S774 1.613 . S
N775 C778 1.350 . S
N776 S774 1.610 . S
N776 C777 1.351 . S
C777 C771 1.428 . S
C777 N776 1.351 . S
C777 C778 1.434 . S
C778 C769 1.429 . S
C778 N775 1.350 . S
C778 C777 1.434 . S
C779 C780 1.369 . S
C779 C781 1.419 . S
C779 H783 0.930 . S
C780 C779 1.369 . S
C780 C789 1.429 . S
C781 C779 1.419 . S
C781 C782 1.363 . S
C781 H784 0.929 . S
C782 C781 1.363 . S
C782 C788 1.428 . S
H783 C779 0.930 . S
H784 C781 0.929 . S
S785 N786 1.613 . S
S785 N787 1.610 . S
N786 S785 1.613 . S
N786 C789 1.350 . S
N787 S785 1.610 . S
N787 C788 1.351 . S
C788 C782 1.428 . S
C788 N787 1.351 . S
C788 C789 1.434 . S
C789 C780 1.429 . S
C789 N786 1.350 . S
C789 C788 1.434 . S
C790 C791 1.369 . S
C790 C792 1.419 . S
C790 H794 0.930 . S
C791 C790 1.369 . S
C791 C800 1.429 . S
C792 C790 1.419 . S
C792 C793 1.363 . S
C792 H795 0.929 . S
C793 C792 1.363 . S
C793 C799 1.428 . S
H794 C790 0.930 . S
H795 C792 0.929 . S
S796 N797 1.613 . S
S796 N798 1.610 . S
N797 S796 1.613 . S
N797 C800 1.350 . S
N798 S796 1.610 . S
N798 C799 1.351 . S
C799 C793 1.428 . S
C799 N798 1.351 . S
C799 C800 1.434 . S
C800 C791 1.429 . S
C800 N797 1.350 . S
C800 C799 1.434 . S
C801 C802 1.369 . S
C801 C803 1.419 . S
C801 H805 0.930 . S
C802 C801 1.369 . S
C802 C811 1.429 . S
C803 C801 1.419 . S
C803 C804 1.363 . S
C803 H806 0.929 . S
C804 C803 1.363 . S
C804 C810 1.428 . S
H805 C801 0.930 . S
H806 C803 0.929 . S
S807 N808 1.613 . S
S807 N809 1.610 . S
N808 S807 1.613 . S
N808 C811 1.350 . S
N809 S807 1.610 . S
N809 C810 1.351 . S
C810 C804 1.428 . S
C810 N809 1.351 . S
C810 C811 1.434 . S
C811 C802 1.429 . S
C811 N808 1.350 . S
C811 C810 1.434 . S
C812 C813 1.369 . S
C812 C814 1.419 . S
C812 H816 0.930 . S
C813 C812 1.369 . S
C813 C822 1.429 . S
C814 C812 1.419 . S
C814 C815 1.363 . S
C814 H817 0.929 . S
C815 C814 1.363 . S
C815 C821 1.428 . S
H816 C812 0.930 . S
H817 C814 0.929 . S
S818 N819 1.613 . S
S818 N820 1.610 . S
N819 S818 1.613 . S
N819 C822 1.350 1_455 S
N820 S818 1.610 . S
N820 C821 1.351 1_455 S
C821 C815 1.428 . S
C821 N820 1.351 1_655 S
C821 C822 1.434 . S
C822 C813 1.429 . S
C822 N819 1.350 1_655 S
C822 C821 1.434 . S
C823 C824 1.369 . S
C823 C825 1.419 . S
C823 H827 0.930 . S
C824 C823 1.369 . S
C824 C833 1.429 . S
C825 C823 1.419 . S
C825 C826 1.363 . S
C825 H828 0.929 . S
C826 C825 1.363 . S
C826 C832 1.428 . S
H827 C823 0.930 . S
H828 C825 0.929 . S
S829 N830 1.613 . S
S829 N831 1.610 . S
N830 S829 1.613 . S
N830 C833 1.350 1_545 S
N831 S829 1.610 . S
N831 C832 1.351 1_545 S
C832 C826 1.428 . S
C832 N831 1.351 1_565 S
C832 C833 1.434 . S
C833 C824 1.429 . S
C833 N830 1.350 1_565 S
C833 C832 1.434 . S
C834 C835 1.369 . S
C834 C836 1.419 . S
C834 H838 0.930 . S
C835 C834 1.369 . S
C835 C844 1.429 . S
C836 C834 1.419 . S
C836 C837 1.363 . S
C836 H839 0.929 . S
C837 C836 1.363 . S
C837 C843 1.428 . S
H838 C834 0.930 . S
H839 C836 0.929 . S
S840 N841 1.613 . S
S840 N842 1.610 . S
N841 S840 1.613 . S
N841 C844 1.350 . S
N842 S840 1.610 . S
N842 C843 1.351 . S
C843 C837 1.428 . S
C843 N842 1.351 . S
C843 C844 1.434 . S
C844 C835 1.429 . S
C844 N841 1.350 . S
C844 C843 1.434 . S
C845 C846 1.369 . S
C845 C847 1.419 . S
C845 H849 0.930 . S
C846 C845 1.369 . S
C846 C855 1.429 . S
C847 C845 1.419 . S
C847 C848 1.363 . S
C847 H850 0.929 . S
C848 C847 1.363 . S
C848 C854 1.428 . S
H849 C845 0.930 . S
H850 C847 0.929 . S
S851 N852 1.613 . S
S851 N853 1.610 . S
N852 S851 1.613 . S
N852 C855 1.350 . S
N853 S851 1.610 . S
N853 C854 1.351 . S
C854 C848 1.428 . S
C854 N853 1.351 . S
C854 C855 1.434 . S
C855 C846 1.429 . S
C855 N852 1.350 . S
C855 C854 1.434 . S
C593 C215 2.401 . S
C595 C331 2.466 . S
C606 C415 2.477 . S
C604 C247 2.408 . S
C617 C491 2.306 . S
C615 C151 2.481 . S
C628 C575 2.294 . S
C626 C183 2.482 . S
C639 C322 2.468 1_565 S
C637 C87 2.302 . S
C648 C119 2.291 . S
C650 C406 2.474 . S
C659 C23 2.363 . S
C661 C480 2.303 . S
C670 C55 2.361 . S
C672 C564 2.303 . S
C683 C319 1.095 . S
C681 C189 1.041 . S
C694 C403 1.016 . S
C692 C221 0.982 . S
C705 C496 0.983 . S
C703 C253 0.968 . S
C714 C157 1.013 . S
C716 C580 1.039 . S
C725 C61 0.878 . S
C727 C328 1.073 . S
C738 C412 1.016 . S
C736 C93 0.851 . S
C749 C487 0.982 . S
C747 C125 0.839 . S
C758 C29 0.833 . S
C760 C571 1.038 . S
C769 C177 2.710 . S
C771 C312 2.812 . S
C780 C209 2.677 . S
C782 C396 2.795 . S
C793 C490 2.939 . S
C791 C241 2.596 . S
C804 C574 2.955 . S
C802 C145 2.620 . S
C813 C49 2.633 . S
C815 C323 2.810 . S
C826 C407 2.791 . S
C824 C81 2.613 . S
C837 C499 2.937 . S
C835 C113 2.528 . S
C846 C17 2.543 . S
C848 C583 2.956 . S
