# Generated by pormake.
# Topology apo, (3,6)-cn, num edge types: 1
# Building blocks:
#     Node 0, Type 0, BuildingBlock: CUQRIR_clean_linker_1, # of connection points: 3
#     Node 1, Type 0, BuildingBlock: CUQRIR_clean_linker_1, # of connection points: 3
#     Node 2, Type 0, BuildingBlock: CUQRIR_clean_linker_1, # of connection points: 3
#     Node 3, Type 0, BuildingBlock: CUQRIR_clean_linker_1, # of connection points: 3
#     Node 4, Type 0, BuildingBlock: CUQRIR_clean_linker_1, # of connection points: 3
#     Node 5, Type 0, BuildingBlock: CUQRIR_clean_linker_1, # of connection points: 3
#     Node 6, Type 0, BuildingBlock: CUQRIR_clean_linker_1, # of connection points: 3
#     Node 7, Type 0, BuildingBlock: CUQRIR_clean_linker_1, # of connection points: 3
#     Node 8, Type 1, BuildingBlock: KUMJIN_clean_sbu_1, # of connection points: 6
#     Node 9, Type 1, BuildingBlock: KUMJIN_clean_sbu_1, # of connection points: 6
#     Node 10, Type 1, BuildingBlock: KUMJIN_clean_sbu_1, # of connection points: 6
#     Node 11, Type 1, BuildingBlock: KUMJIN_clean_sbu_1, # of connection points: 6
#     Edge 12, Type (0, 1), BuildingBlock: MIFKUJ_clean_linker_0, # of connection points: 2
#     Edge 13, Type (0, 1), BuildingBlock: MIFKUJ_clean_linker_0, # of connection points: 2
#     Edge 14, Type (0, 1), BuildingBlock: MIFKUJ_clean_linker_0, # of connection points: 2
#     Edge 15, Type (0, 1), BuildingBlock: MIFKUJ_clean_linker_0, # of connection points: 2
#     Edge 16, Type (0, 1), BuildingBlock: MIFKUJ_clean_linker_0, # of connection points: 2
#     Edge 17, Type (0, 1), BuildingBlock: MIFKUJ_clean_linker_0, # of connection points: 2
#     Edge 18, Type (0, 1), BuildingBlock: MIFKUJ_clean_linker_0, # of connection points: 2
#     Edge 19, Type (0, 1), BuildingBlock: MIFKUJ_clean_linker_0, # of connection points: 2
#     Edge 20, Type (0, 1), BuildingBlock: MIFKUJ_clean_linker_0, # of connection points: 2
#     Edge 21, Type (0, 1), BuildingBlock: MIFKUJ_clean_linker_0, # of connection points: 2
#     Edge 22, Type (0, 1), BuildingBlock: MIFKUJ_clean_linker_0, # of connection points: 2
#     Edge 23, Type (0, 1), BuildingBlock: MIFKUJ_clean_linker_0, # of connection points: 2
#     Edge 24, Type (0, 1), BuildingBlock: MIFKUJ_clean_linker_0, # of connection points: 2
#     Edge 25, Type (0, 1), BuildingBlock: MIFKUJ_clean_linker_0, # of connection points: 2
#     Edge 26, Type (0, 1), BuildingBlock: MIFKUJ_clean_linker_0, # of connection points: 2
#     Edge 27, Type (0, 1), BuildingBlock: MIFKUJ_clean_linker_0, # of connection points: 2
#     Edge 28, Type (0, 1), BuildingBlock: MIFKUJ_clean_linker_0, # of connection points: 2
#     Edge 29, Type (0, 1), BuildingBlock: MIFKUJ_clean_linker_0, # of connection points: 2
#     Edge 30, Type (0, 1), BuildingBlock: MIFKUJ_clean_linker_0, # of connection points: 2
#     Edge 31, Type (0, 1), BuildingBlock: MIFKUJ_clean_linker_0, # of connection points: 2
#     Edge 32, Type (0, 1), BuildingBlock: MIFKUJ_clean_linker_0, # of connection points: 2
#     Edge 33, Type (0, 1), BuildingBlock: MIFKUJ_clean_linker_0, # of connection points: 2
#     Edge 34, Type (0, 1), BuildingBlock: MIFKUJ_clean_linker_0, # of connection points: 2
#     Edge 35, Type (0, 1), BuildingBlock: MIFKUJ_clean_linker_0, # of connection points: 2
# Relax obj value: 0.047
# Max RMSD: 0.212
# Mean RMSD: 0.169
data_MOF--net-apo--node1-KUMJIN_clean_sbu_1--node2-CUQRIR_clean_linker_1--edge1-MIFKUJ_clean_linker_0
_symmetry_space_group_name_H-M    P1
_symmetry_Int_Tables_number       1
_symmetry_cell_setting            triclinic
loop_
_symmetry_equiv_pos_as_xyz
'x, y, z'
_cell_length_a     33.729071
_cell_length_b     52.506787
_cell_length_c     60.364223
_cell_angle_alpha  89.904723
_cell_angle_beta   89.942756
_cell_angle_gamma 90.199186
loop_
_atom_site_label
_atom_site_type_symbol
_atom_site_fract_x
_atom_site_fract_y
_atom_site_fract_z
_atom_type_partial_charge
C0 C 0.27755 0.34718 0.42577 0.0
N1 N 0.29685 0.36976 0.4278 0.0
N2 N 0.25896 0.34577 0.40596 0.0
C3 C 0.27512 0.32707 0.44348 0.0
C4 C 0.26756 0.36819 0.39598 0.0
N5 N 0.29026 0.38294 0.40935 0.0
C6 C 0.25609 0.37483 0.37258 0.0
H7 H 0.30249 0.31543 0.443 0.0
H8 H 0.24926 0.31431 0.44085 0.0
H9 H 0.27298 0.33596 0.4601 0.0
H10 H 0.22945 0.38715 0.37297 0.0
H11 H 0.24898 0.35752 0.36281 0.0
H12 H 0.28032 0.38549 0.36421 0.0
C13 C 0.23873 0.16331 0.92502 0.0
N14 N 0.21502 0.14246 0.92602 0.0
N15 N 0.24986 0.16805 0.90385 0.0
C16 C 0.24996 0.17947 0.9446 0.0
C17 C 0.23203 0.14937 0.89203 0.0
N18 N 0.21046 0.13388 0.90546 0.0
C19 C 0.23835 0.14525 0.8676 0.0
H20 H 0.25603 0.1994 0.93945 0.0
H21 H 0.27724 0.17158 0.95218 0.0
H22 H 0.22624 0.17927 0.95734 0.0
H23 H 0.26774 0.15267 0.86234 0.0
H24 H 0.2152 0.15566 0.85824 0.0
H25 H 0.23634 0.12473 0.86337 0.0
C26 C 0.77461 0.16808 0.60943 0.0
N27 N 0.79794 0.14735 0.60675 0.0
N28 N 0.76054 0.16922 0.63044 0.0
C29 C 0.76767 0.18796 0.5919 0.0
C30 C 0.77626 0.14846 0.64039 0.0
N31 N 0.79934 0.13531 0.62609 0.0
C32 C 0.76726 0.14019 0.66376 0.0
H33 H 0.79397 0.1899 0.58102 0.0
H34 H 0.76096 0.20675 0.59936 0.0
H35 H 0.74217 0.18199 0.58151 0.0
H36 H 0.73758 0.14695 0.66903 0.0
H37 H 0.78981 0.14837 0.67509 0.0
H38 H 0.76831 0.11913 0.66524 0.0
C39 C 0.73039 0.33935 0.10718 0.0
N40 N 0.71029 0.36121 0.10333 0.0
N41 N 0.74643 0.33945 0.12776 0.0
C42 C 0.73611 0.31855 0.09038 0.0
C43 C 0.73538 0.36222 0.13625 0.0
N44 N 0.71388 0.37559 0.1213 0.0
C45 C 0.74261 0.37048 0.15979 0.0
H46 H 0.71102 0.30491 0.09165 0.0
H47 H 0.76415 0.30812 0.09339 0.0
H48 H 0.73644 0.32644 0.07331 0.0
H49 H 0.77007 0.38215 0.16039 0.0
H50 H 0.74627 0.35381 0.17091 0.0
H51 H 0.71774 0.38227 0.166 0.0
C52 C 0.73601 0.66499 0.60673 0.0
N53 N 0.71342 0.64376 0.6041 0.0
N54 N 0.75135 0.66593 0.62746 0.0
C55 C 0.74581 0.68375 0.58867 0.0
C56 C 0.73748 0.6445 0.63732 0.0
N57 N 0.71481 0.63091 0.62308 0.0
C58 C 0.74371 0.63784 0.66133 0.0
H59 H 0.7746 0.69333 0.5919 0.0
H60 H 0.72236 0.6985 0.58804 0.0
H61 H 0.74711 0.67415 0.57232 0.0
H62 H 0.74855 0.65519 0.67145 0.0
H63 H 0.77032 0.62558 0.66276 0.0
H64 H 0.71794 0.62715 0.66806 0.0
C65 C 0.7688 0.84868 0.10521 0.0
N66 N 0.79052 0.87029 0.10279 0.0
N67 N 0.75977 0.84463 0.12686 0.0
C68 C 0.7591 0.83057 0.08669 0.0
C69 C 0.77675 0.86463 0.13744 0.0
N70 N 0.79559 0.88006 0.12286 0.0
C71 C 0.77412 0.86955 0.16196 0.0
H72 H 0.73028 0.83607 0.07928 0.0
H73 H 0.75666 0.81073 0.0929 0.0
H74 H 0.78205 0.83143 0.07351 0.0
H75 H 0.80013 0.86084 0.17022 0.0
H76 H 0.7467 0.8611 0.16905 0.0
H77 H 0.77461 0.89026 0.16551 0.0
C78 C 0.22499 0.83716 0.42129 0.0
N79 N 0.2043 0.85897 0.42437 0.0
N80 N 0.24245 0.83709 0.40105 0.0
C81 C 0.22836 0.81592 0.43795 0.0
C82 C 0.23177 0.85969 0.39204 0.0
N83 N 0.20886 0.87301 0.40625 0.0
C84 C 0.24408 0.86901 0.36947 0.0
H85 H 0.25589 0.81873 0.44771 0.0
H86 H 0.23026 0.79723 0.42948 0.0
H87 H 0.20305 0.8156 0.44964 0.0
H88 H 0.22125 0.86325 0.35722 0.0
H89 H 0.27294 0.86069 0.36449 0.0
H90 H 0.24639 0.89009 0.3692 0.0
C91 C 0.26582 0.6638 0.92655 0.0
N92 N 0.29019 0.64356 0.9291 0.0
N93 N 0.25902 0.66839 0.90479 0.0
C94 C 0.2487 0.67906 0.94531 0.0
C95 C 0.28055 0.65037 0.8942 0.0
N96 N 0.29974 0.63541 0.90899 0.0
C97 C 0.28223 0.64715 0.86942 0.0
H98 H 0.24434 0.66708 0.96025 0.0
H99 H 0.21997 0.68767 0.94051 0.0
H100 H 0.26972 0.69459 0.94958 0.0
H101 H 0.31137 0.63983 0.86396 0.0
H102 H 0.27657 0.66545 0.86079 0.0
H103 H 0.25922 0.63319 0.86435 0.0
Eu104 Eu 0.05525 0.11713 0.24253 0.0
C105 C 0.89512 0.07968 0.27768 0.0
N106 N 0.90682 0.10436 0.27527 0.0
C107 C 0.84501 0.11474 0.25808 0.0
C108 C 0.85789 0.07148 0.26979 0.0
C109 C 0.88228 0.122 0.26601 0.0
C110 C 0.83286 0.08935 0.25981 0.0
C111 C 0.90888 0.03703 0.29108 0.0
C112 C 0.92078 0.06257 0.28785 0.0
C113 C 0.87206 0.02872 0.28291 0.0
C114 C 0.84675 0.04585 0.27219 0.0
Eu115 Eu 0.9698 0.11491 0.28942 0.0
N116 N 0.95633 0.07114 0.29562 0.0
C117 C 0.93361 0.02087 0.30323 0.0
C118 C 0.97829 0.05615 0.30937 0.0
C119 C 0.96808 0.03062 0.31278 0.0
H120 H 0.89142 0.14167 0.26488 0.0
H121 H 0.98624 0.01869 0.32329 0.0
H122 H 0.12337 0.07291 0.25542 0.0
H123 H 0.06951 0.22062 0.23553 0.0
H124 H 0.00288 0.06397 0.3185 0.0
H125 H 0.9254 1.00122 0.3063 0.0
H126 H 0.0348 0.17935 0.23388 0.0
H127 H 0.8256 0.12874 0.25078 0.0
H128 H 0.86239 0.00921 0.28525 0.0
H129 H 0.81832 0.03917 0.26616 0.0
H130 H 0.19413 0.07127 0.26576 0.0
H131 H 0.80397 0.08381 0.25359 0.0
H132 H 0.14069 0.22229 0.24526 0.0
N133 N 0.12266 0.11322 0.25203 0.0
C134 C 0.1439 0.13529 0.25253 0.0
C135 C 0.18032 0.08939 0.26217 0.0
C136 C 0.18445 0.13519 0.25821 0.0
C137 C 0.14018 0.09041 0.25652 0.0
C138 C 0.20255 0.11187 0.26306 0.0
N139 N 0.08517 0.15785 0.24351 0.0
C140 C 0.06556 0.17978 0.23852 0.0
C141 C 0.14586 0.1814 0.24894 0.0
C142 C 0.12478 0.15819 0.24795 0.0
C143 C 0.12555 0.20407 0.24461 0.0
C144 C 0.08531 0.20322 0.23923 0.0
H145 H 0.23363 0.11102 0.26751 0.0
H146 H 0.23666 0.15857 0.26347 0.0
H147 H 0.20291 0.19897 0.2554 0.0
O148 O 0.04379 0.12432 0.20736 0.0
O149 O 0.06782 0.13728 0.27513 0.0
O150 O 0.00778 0.15067 0.2892 0.0
O151 O 0.09384 0.10138 0.21695 0.0
O152 O 0.997 0.13739 0.23522 0.0
O153 O 0.9677 0.15039 0.26818 0.0
O154 O 0.96968 0.11281 0.32571 0.0
O155 O 0.95812 0.09844 0.25486 0.0
O156 O 0.01791 0.0815 0.24502 0.0
O157 O 0.92322 0.13309 0.3089 0.0
O158 O 0.0315 0.09933 0.29723 0.0
O159 O 0.05251 0.082 0.26418 0.0
C160 C 0.04657 0.15243 0.2877 0.0
C161 C 0.06497 0.09263 0.18224 0.0
C162 C 0.07017 0.0816 0.14302 0.0
C163 C 0.05242 0.0579 0.14767 0.0
C164 C 0.04734 0.06893 0.1865 0.0
C165 C 0.04088 0.05172 0.16926 0.0
C166 C 0.076 0.09904 0.16045 0.0
C167 C 0.9724 0.15196 0.24653 0.0
C168 C 0.07326 0.11039 0.20052 0.0
C169 C 0.20551 0.15829 0.2591 0.0
C170 C 0.18629 0.18131 0.25449 0.0
C171 C 0.97909 0.0811 0.24451 0.0
C172 C 0.94042 0.14721 0.34484 0.0
C173 C 0.93237 0.16079 0.38344 0.0
C174 C 0.94201 0.18583 0.37686 0.0
C175 C 0.95017 0.17225 0.33884 0.0
C176 C 0.93183 0.1415 0.36715 0.0
C177 C 0.95115 0.19139 0.35481 0.0
C178 C 0.05273 0.08278 0.28595 0.0
C179 C 0.93839 0.12698 0.32797 0.0
H180 H 0.0473 0.04422 0.13456 0.0
H181 H 0.03913 0.06368 0.20319 0.0
H182 H 0.02722 0.03344 0.17268 0.0
H183 H 0.09006 0.11727 0.15717 0.0
H184 H 0.94189 0.20132 0.38867 0.0
H185 H 0.95648 0.17702 0.32175 0.0
H186 H 0.9249 0.12203 0.37172 0.0
H187 H 0.95853 0.21072 0.35003 0.0
Eu188 Eu 0.45525 0.39308 0.74398 0.0
C189 C 0.61063 0.44114 0.77484 0.0
N190 N 0.60338 0.41593 0.77191 0.0
C191 C 0.66329 0.41169 0.7509 0.0
C192 C 0.64387 0.45293 0.76502 0.0
C193 C 0.62967 0.40091 0.76081 0.0
C194 C 0.67016 0.43789 0.75276 0.0
C195 C 0.59217 0.48103 0.79201 0.0
C196 C 0.58501 0.45494 0.7881 0.0
C197 C 0.62419 0.4932 0.78143 0.0
C198 C 0.65004 0.47917 0.76799 0.0
Eu199 Eu 0.54553 0.39913 0.78844 0.0
N200 N 0.55463 0.4425 0.79827 0.0
C201 C 0.5678 0.49385 0.80707 0.0
C202 C 0.53339 0.45432 0.8145 0.0
C203 C 0.53879 0.48028 0.81871 0.0
H204 H 0.62414 0.38071 0.75931 0.0
H205 H 0.52107 0.48969 0.83119 0.0
H206 H 0.38712 0.43679 0.75995 0.0
H207 H 0.42965 0.29315 0.72475 0.0
H208 H 0.51285 0.44365 0.82458 0.0
H209 H 0.57227 0.5139 0.81053 0.0
H210 H 0.46529 0.33455 0.72394 0.0
H211 H 0.68374 0.39985 0.74174 0.0
H212 H 0.62989 0.5133 0.78404 0.0
H213 H 0.67513 0.48867 0.76035 0.0
H214 H 0.32215 0.4376 0.77846 0.0
H215 H 0.69609 0.44622 0.74496 0.0
H216 H 0.36638 0.28921 0.74535 0.0
N217 N 0.39121 0.39633 0.76004 0.0
C218 C 0.37119 0.37406 0.76298 0.0
C219 C 0.33588 0.41956 0.77459 0.0
C220 C 0.33313 0.37365 0.7727 0.0
C221 C 0.37317 0.419 0.76449 0.0
C222 C 0.31605 0.39676 0.7791 0.0
N223 N 0.42311 0.35317 0.74431 0.0
C224 C 0.4377 0.3328 0.73293 0.0
C225 C 0.36603 0.32876 0.75553 0.0
C226 C 0.38735 0.35187 0.75456 0.0
C227 C 0.38189 0.30731 0.74502 0.0
C228 C 0.41758 0.30946 0.73334 0.0
H229 H 0.28689 0.39728 0.78664 0.0
H230 H 0.28358 0.34969 0.78243 0.0
H231 H 0.3125 0.31035 0.76748 0.0
O232 O 0.46954 0.39161 0.70866 0.0
O233 O 0.46801 0.36025 0.76783 0.0
O234 O 0.4878 0.38088 0.79929 0.0
O235 O 0.41145 0.40363 0.7189 0.0
O236 O 0.514 0.37538 0.73403 0.0
O237 O 0.54784 0.36433 0.76623 0.0
O238 O 0.57211 0.40131 0.82156 0.0
O239 O 0.55084 0.41419 0.75304 0.0
O240 O 0.48916 0.4301 0.74673 0.0
O241 O 0.58147 0.36807 0.8014 0.0
O242 O 0.48421 0.4124 0.79911 0.0
O243 O 0.45572 0.42766 0.76701 0.0
C244 C 0.47047 0.36155 0.78952 0.0
C245 C 0.43636 0.4205 0.68535 0.0
C246 C 0.42742 0.4338 0.64685 0.0
C247 C 0.43766 0.45882 0.65294 0.0
C248 C 0.44629 0.44556 0.69109 0.0
C249 C 0.4472 0.46458 0.6749 0.0
C250 C 0.42722 0.41463 0.66322 0.0
C251 C 0.54024 0.36161 0.74491 0.0
C252 C 0.43538 0.40031 0.70226 0.0
C253 C 0.31268 0.35041 0.77482 0.0
C254 C 0.32911 0.328 0.76628 0.0
C255 C 0.52765 0.4314 0.74413 0.0
C256 C 0.57351 0.36155 0.83999 0.0
C257 C 0.57527 0.352 0.87978 0.0
C258 C 0.55132 0.33044 0.87581 0.0
C259 C 0.54906 0.34015 0.83669 0.0
C260 C 0.58637 0.36746 0.86159 0.0
C261 C 0.53818 0.32473 0.85449 0.0
C262 C 0.45954 0.42772 0.78875 0.0
C263 C 0.58488 0.37798 0.82107 0.0
H264 H 0.43854 0.47389 0.64067 0.0
H265 H 0.45306 0.45036 0.70809 0.0
H266 H 0.45513 0.48389 0.67941 0.0
H267 H 0.41918 0.39527 0.65885 0.0
H268 H 0.54298 0.31769 0.88915 0.0
H269 H 0.53831 0.33527 0.82033 0.0
H270 H 0.60444 0.38429 0.86419 0.0
H271 H 0.51955 0.30821 0.85174 0.0
Eu272 Eu 0.04251 0.89444 0.7428 0.0
C273 C 0.88552 0.85419 0.77906 0.0
N274 N 0.89624 0.87893 0.77609 0.0
C275 C 0.83513 0.88743 0.75737 0.0
C276 C 0.8496 0.84481 0.77034 0.0
C277 C 0.87129 0.8958 0.76611 0.0
C278 C 0.82443 0.86176 0.75927 0.0
C279 C 0.90059 0.81248 0.794 0.0
C280 C 0.91085 0.83827 0.7907 0.0
C281 C 0.86546 0.8028 0.7847 0.0
C282 C 0.83999 0.81894 0.77294 0.0
Eu283 Eu 0.95814 0.89145 0.79055 0.0
N284 N 0.94467 0.84821 0.7995 0.0
C285 C 0.92547 0.79731 0.80699 0.0
C286 C 0.96715 0.83401 0.81367 0.0
C287 C 0.95852 0.80825 0.81716 0.0
H288 H 0.87969 0.91561 0.76459 0.0
H289 H 0.9771 0.7969 0.82791 0.0
H290 H 0.11096 0.85076 0.75861 0.0
H291 H 0.06437 0.99481 0.7233 0.0
H292 H 0.99147 0.84247 0.82265 0.0
H293 H 0.91871 0.77739 0.80988 0.0
H294 H 0.02899 0.95335 0.72372 0.0
H295 H 0.81566 0.90072 0.74908 0.0
H296 H 0.85734 0.78297 0.78688 0.0
H297 H 0.81275 0.81128 0.76613 0.0
H298 H 0.17814 0.85021 0.77439 0.0
H299 H 0.79655 0.85529 0.75234 0.0
H300 H 0.13078 0.99847 0.74046 0.0
N301 N 0.10784 0.89125 0.75695 0.0
C302 C 0.12855 0.91348 0.75829 0.0
C303 C 0.16436 0.86817 0.77022 0.0
C304 C 0.16787 0.9139 0.76625 0.0
C305 C 0.12583 0.86862 0.76171 0.0
C306 C 0.18532 0.89094 0.77277 0.0
N307 N 0.07416 0.93449 0.74185 0.0
C308 C 0.0578 0.95501 0.73141 0.0
C309 C 0.13285 0.95877 0.75022 0.0
C310 C 0.11142 0.93567 0.75029 0.0
C311 C 0.11526 0.98037 0.74082 0.0
C312 C 0.07778 0.97839 0.73109 0.0
H313 H 0.2154 0.89049 0.77903 0.0
H314 H 0.21942 0.93756 0.77242 0.0
H315 H 0.18841 0.97697 0.75897 0.0
O316 O 0.02698 0.89747 0.70775 0.0
O317 O 0.0355 0.92703 0.76759 0.0
O318 O 0.01915 0.90609 0.79942 0.0
O319 O 0.08366 0.88201 0.71704 0.0
O320 O 0.98298 0.91184 0.73485 0.0
O321 O 0.95665 0.92653 0.76802 0.0
O322 O 0.93298 0.88847 0.82395 0.0
O323 O 0.94662 0.87625 0.75576 0.0
O324 O 0.00584 0.85844 0.74627 0.0
O325 O 0.93033 0.9242 0.80643 0.0
O326 O 0.01881 0.87467 0.79863 0.0
O327 O 0.04212 0.8594 0.76516 0.0
C328 C 0.03672 0.92505 0.78925 0.0
C329 C 0.05481 0.8668 0.68405 0.0
C330 C 0.06066 0.85319 0.64544 0.0
C331 C 0.04789 0.82867 0.65186 0.0
C332 C 0.04182 0.84236 0.69002 0.0
C333 C 0.03829 0.82342 0.67394 0.0
C334 C 0.06376 0.87223 0.66182 0.0
C335 C 0.9614 0.92797 0.7463 0.0
C336 C 0.05944 0.88682 0.70082 0.0
C337 C 0.18903 0.93698 0.76666 0.0
C338 C 0.17147 0.9594 0.75885 0.0
C339 C 0.96698 0.85821 0.74601 0.0
C340 C 0.93949 0.92577 0.84543 0.0
C341 C 0.93945 0.93053 0.88581 0.0
C342 C 0.96912 0.94928 0.88381 0.0
C343 C 0.96894 0.9447 0.84393 0.0
C344 C 0.92462 0.91889 0.86644 0.0
C345 C 0.98356 0.95636 0.86302 0.0
C346 C 0.04076 0.85885 0.78696 0.0
C347 C 0.92501 0.91262 0.82533 0.0
H348 H 0.0458 0.81337 0.63993 0.0
H349 H 0.03475 0.83792 0.70709 0.0
H350 H 0.02843 0.80453 0.67865 0.0
H351 H 0.07297 0.89135 0.65736 0.0
H352 H 0.98075 0.95879 0.89835 0.0
H353 H 0.98077 0.95048 0.82802 0.0
H354 H 0.90206 0.9042 0.86772 0.0
H355 H 0.00616 0.97097 0.86169 0.0
Eu356 Eu 0.46819 0.61521 0.23974 0.0
C357 C 0.63668 0.63546 0.2657 0.0
N358 N 0.61654 0.61319 0.26856 0.0
C359 C 0.66924 0.59045 0.2507 0.0
C360 C 0.6731 0.63618 0.25419 0.0
C361 C 0.63362 0.59066 0.26256 0.0
C362 C 0.68871 0.61335 0.24612 0.0
C363 C 0.64317 0.68054 0.27394 0.0
C364 C 0.622 0.65741 0.2754 0.0
C365 C 0.67849 0.68157 0.26164 0.0
C366 C 0.69336 0.65945 0.25173 0.0
Eu367 Eu 0.5542 0.61637 0.2868 0.0
N368 N 0.58707 0.65607 0.28654 0.0
C369 C 0.62831 0.70188 0.28507 0.0
C370 C 0.57335 0.67638 0.29833 0.0
C371 C 0.59354 0.69968 0.29758 0.0
H372 H 0.62024 0.57269 0.26705 0.0
H373 H 0.58219 0.71595 0.30653 0.0
H374 H 0.38885 0.63553 0.26725 0.0
H375 H 0.48459 0.53049 0.18791 0.0
H376 H 0.54633 0.67462 0.30786 0.0
H377 H 0.64373 0.72 0.28438 0.0
H378 H 0.50096 0.57357 0.20126 0.0
H379 H 0.68191 0.57259 0.24537 0.0
H380 H 0.69489 0.69925 0.26003 0.0
H381 H 0.72112 0.6604 0.24271 0.0
H382 H 0.3229 0.6194 0.2788 0.0
H383 H 0.71654 0.61309 0.23714 0.0
H384 H 0.42407 0.50871 0.20147 0.0
N385 N 0.4054 0.60099 0.25161 0.0
C386 C 0.39402 0.57741 0.24498 0.0
C387 C 0.3427 0.60734 0.26943 0.0
C388 C 0.3566 0.56751 0.25095 0.0
C389 C 0.38 0.6164 0.26296 0.0
C390 C 0.33111 0.58266 0.26362 0.0
N391 N 0.45357 0.57475 0.22449 0.0
C392 C 0.47596 0.56363 0.20836 0.0
C393 C 0.40733 0.53969 0.22316 0.0
C394 C 0.41909 0.56374 0.23125 0.0
C395 C 0.43199 0.52724 0.20801 0.0
C396 C 0.46619 0.53945 0.20034 0.0
H397 H 0.30211 0.57573 0.26854 0.0
H398 H 0.31655 0.53544 0.24777 0.0
H399 H 0.3611 0.51097 0.2235 0.0
O400 O 0.44196 0.6185 0.20645 0.0
O401 O 0.4549 0.59783 0.27377 0.0
O402 O 0.51486 0.58139 0.28473 0.0
O403 O 0.44808 0.65214 0.22752 0.0
O404 O 0.52814 0.59745 0.2322 0.0
O405 O 0.55072 0.58066 0.26514 0.0
O406 O 0.54456 0.61981 0.32251 0.0
O407 O 0.54332 0.64948 0.26301 0.0
O408 O 0.53014 0.6282 0.23124 0.0
O409 O 0.59868 0.60322 0.3105 0.0
O410 O 0.49577 0.63419 0.29692 0.0
O411 O 0.46496 0.64769 0.26449 0.0
C412 C 0.47588 0.581 0.28486 0.0
C413 C 0.41918 0.65909 0.19104 0.0
C414 C 0.39818 0.6656 0.15268 0.0
C415 C 0.39116 0.69138 0.15742 0.0
C416 C 0.41167 0.68492 0.19538 0.0
C417 C 0.39757 0.70088 0.17868 0.0
C418 C 0.41178 0.6494 0.16966 0.0
C419 C 0.5468 0.57965 0.24341 0.0
C420 C 0.43692 0.64295 0.20849 0.0
C421 C 0.3453 0.54327 0.24346 0.0
C422 C 0.37065 0.52936 0.22965 0.0
C423 C 0.54629 0.64753 0.24144 0.0
C424 C 0.57551 0.58959 0.34555 0.0
C425 C 0.58277 0.57841 0.38474 0.0
C426 C 0.57144 0.55326 0.37958 0.0
C427 C 0.56454 0.56445 0.34081 0.0
C428 C 0.58443 0.59654 0.36747 0.0
C429 C 0.56231 0.54642 0.35779 0.0
C430 C 0.47095 0.64901 0.28606 0.0
C431 C 0.57768 0.60886 0.32788 0.0
H432 H 0.38049 0.70416 0.14465 0.0
H433 H 0.41714 0.69292 0.21163 0.0
H434 H 0.39206 0.72077 0.18217 0.0
H435 H 0.4178 0.62958 0.16599 0.0
H436 H 0.57034 0.53869 0.39229 0.0
H437 H 0.55797 0.55881 0.32399 0.0
H438 H 0.59238 0.61612 0.37102 0.0
H439 H 0.55384 0.527 0.35403 0.0
H440 H 0.23042 0.92115 0.41572 0.0
H441 H 0.20363 0.95978 0.39804 0.0
H442 H 0.11516 0.91399 0.36509 0.0
H443 H 0.14202 0.87567 0.38287 0.0
H444 H 0.16362 0.94322 0.33654 0.0
H445 H 0.08925 0.95438 0.40532 0.0
H446 H 0.08426 0.96028 0.44576 0.0
H447 H 0.15497 0.02817 0.44137 0.0
H448 H 0.16107 0.0225 0.40096 0.0
H449 H 0.04996 0.03213 0.27802 0.0
H450 H 0.07627 0.99812 0.30124 0.0
H451 H 0.1303 0.05417 0.34415 0.0
H452 H 0.10021 0.08817 0.32202 0.0
H453 H 0.10485 0.02117 0.36888 0.0
H454 H 0.18331 0.01356 0.30401 0.0
H455 H 0.19778 0.0102 0.26408 0.0
H456 H 0.13446 0.93918 0.26123 0.0
H457 H 0.11907 0.94231 0.30109 0.0
C458 C 0.20429 0.91971 0.40539 0.0
C459 C 0.18765 0.8958 0.4008 0.0
C460 C 0.1892 0.94162 0.39519 0.0
C461 C 0.15745 0.9397 0.38021 0.0
C462 C 0.13962 0.91588 0.3766 0.0
C463 C 0.15458 0.89411 0.38686 0.0
C464 C 0.14525 0.96182 0.36655 0.0
C465 C 0.15033 0.9602 0.34353 0.0
C466 C 0.13004 0.98446 0.37584 0.0
C467 C 0.12593 0.98787 0.40012 0.0
C468 C 0.10403 0.97045 0.41299 0.0
C469 C 0.10094 0.97377 0.4359 0.0
C470 C 0.11932 0.99453 0.44612 0.0
C471 C 0.14078 0.01207 0.43344 0.0
C472 C 0.14405 0.00883 0.41053 0.0
C473 C 0.06796 0.03708 0.29225 0.0
C474 C 0.07346 0.06262 0.29823 0.0
C475 C 0.08323 0.01764 0.30551 0.0
C476 C 0.1063 0.02336 0.3243 0.0
C477 C 0.11264 0.04908 0.32984 0.0
C478 C 0.09582 0.06852 0.31711 0.0
C479 C 0.1224 1.00254 0.33855 0.0
C480 C 0.11831 1.00436 0.36171 0.0
C481 C 0.14012 0.98043 0.32946 0.0
C482 C 0.14981 0.97827 0.30553 0.0
C483 C 0.17231 0.99728 0.29486 0.0
C484 C 0.18068 0.99542 0.27223 0.0
C485 C 0.16701 0.97451 0.26012 0.0
C486 C 0.14503 0.95538 0.27063 0.0
C487 C 0.13651 0.95717 0.29325 0.0
H488 H 0.17349 0.9731 0.24261 0.0
H489 H 0.11687 0.99704 0.46386 0.0
H490 H 0.27451 0.58763 0.91578 0.0
H491 H 0.30264 0.54898 0.89912 0.0
H492 H 0.39896 0.59376 0.8722 0.0
H493 H 0.37119 0.63201 0.88951 0.0
H494 H 0.30898 0.54073 0.8563 0.0
H495 H 0.47832 0.55682 0.8611 0.0
H496 H 0.52811 0.57553 0.88624 0.0
H497 H 0.45159 0.56138 0.94175 0.0
H498 H 0.40151 0.54243 0.91708 0.0
H499 H 0.42886 0.47357 0.77542 0.0
H500 H 0.39946 0.50652 0.79906 0.0
H501 H 0.4138 0.458 0.85614 0.0
H502 H 0.44156 0.42466 0.83261 0.0
H503 H 0.44792 0.51017 0.85887 0.0
H504 H 0.32779 0.4638 0.84286 0.0
H505 H 0.27893 0.44369 0.81801 0.0
H506 H 0.25732 0.51584 0.78674 0.0
H507 H 0.30644 0.53632 0.81127 0.0
C508 C 0.30245 0.58882 0.90698 0.0
C509 C 0.32094 0.61249 0.90386 0.0
C510 C 0.31826 0.56692 0.89725 0.0
C511 C 0.35288 0.56841 0.88431 0.0
C512 C 0.37256 0.59196 0.88232 0.0
C513 C 0.35683 0.61378 0.89219 0.0
C514 C 0.36644 0.54595 0.87139 0.0
C515 C 0.33933 0.53401 0.85703 0.0
C516 C 0.40608 0.53714 0.87212 0.0
C517 C 0.43602 0.54842 0.88719 0.0
C518 C 0.47217 0.55765 0.8787 0.0
C519 C 0.50042 0.56833 0.89288 0.0
C520 C 0.49294 0.56975 0.91561 0.0
C521 C 0.45725 0.56043 0.92418 0.0
C522 C 0.42888 0.54975 0.9101 0.0
C523 C 0.4249 0.46972 0.79291 0.0
C524 C 0.43778 0.44663 0.8022 0.0
C525 C 0.40838 0.48859 0.80639 0.0
C526 C 0.40489 0.48469 0.82933 0.0
C527 C 0.41658 0.46139 0.8385 0.0
C528 C 0.43236 0.44239 0.82502 0.0
C529 C 0.39052 0.50526 0.84394 0.0
C530 C 0.41755 0.51691 0.85838 0.0
C531 C 0.35088 0.51372 0.84336 0.0
C532 C 0.32103 0.50154 0.82876 0.0
C533 C 0.31283 0.47534 0.83058 0.0
C534 C 0.28501 0.46389 0.8166 0.0
C535 C 0.26509 0.47847 0.80077 0.0
C536 C 0.27281 0.50456 0.79898 0.0
C537 C 0.30058 0.51611 0.81295 0.0
H538 H 0.24365 0.46955 0.78991 0.0
H539 H 0.51482 0.57802 0.92658 0.0
H540 H 0.63548 0.6262 0.62469 0.0
H541 H 0.59814 0.59041 0.64107 0.0
H542 H 0.70746 0.54945 0.65063 0.0
H543 H 0.74453 0.58541 0.63454 0.0
H544 H 0.63919 0.51822 0.63662 0.0
H545 H 0.67761 0.58221 0.69154 0.0
H546 H 0.67932 0.62609 0.70606 0.0
H547 H 0.55206 0.6281 0.70656 0.0
H548 H 0.54962 0.5843 0.69183 0.0
H549 H 0.59878 0.4312 0.72247 0.0
H550 H 0.62673 0.46456 0.6989 0.0
H551 H 0.52121 0.5096 0.70819 0.0
H552 H 0.4945 0.47702 0.73312 0.0
H553 H 0.58185 0.53935 0.71007 0.0
H554 H 0.53948 0.47626 0.65919 0.0
H555 H 0.53278 0.43304 0.64374 0.0
H556 H 0.65861 0.42983 0.63315 0.0
H557 H 0.66614 0.47294 0.64883 0.0
C558 C 0.65113 0.60919 0.62976 0.0
C559 C 0.6926 0.6083 0.62847 0.0
C560 C 0.62998 0.58888 0.63915 0.0
C561 C 0.65012 0.56737 0.64717 0.0
C562 C 0.69137 0.56582 0.64447 0.0
C563 C 0.71249 0.58625 0.63535 0.0
C564 C 0.62906 0.54783 0.66055 0.0
C565 C 0.62681 0.52272 0.65273 0.0
C566 C 0.61189 0.55393 0.68125 0.0
C567 C 0.61344 0.5801 0.69039 0.0
C568 C 0.65 0.59208 0.69461 0.0
C569 C 0.65111 0.61692 0.7029 0.0
C570 C 0.61583 0.62991 0.70715 0.0
C571 C 0.57936 0.61804 0.70322 0.0
C572 C 0.5781 0.5932 0.69493 0.0
C573 C 0.58185 0.44839 0.71978 0.0
C574 C 0.54452 0.4515 0.7297 0.0
C575 C 0.59756 0.46731 0.706 0.0
C576 C 0.57579 0.48946 0.70136 0.0
C577 C 0.53856 0.49267 0.7114 0.0
C578 C 0.52317 0.47393 0.72551 0.0
C579 C 0.59217 0.50943 0.68634 0.0
C580 C 0.59371 0.53471 0.69387 0.0
C581 C 0.60781 0.50354 0.66516 0.0
C582 C 0.60341 0.47778 0.65533 0.0
C583 C 0.56576 0.4663 0.65367 0.0
C584 C 0.56181 0.44182 0.64486 0.0
C585 C 0.59527 0.42868 0.6375 0.0
C586 C 0.63273 0.44003 0.63886 0.0
C587 C 0.63685 0.46451 0.64768 0.0
H588 H 0.59218 0.40971 0.63071 0.0
H589 H 0.61674 0.64915 0.71354 0.0
H590 H 0.7662 0.92725 0.12651 0.0
H591 H 0.79896 0.96359 0.14448 0.0
H592 H 0.90622 0.91944 0.15055 0.0
H593 H 0.87244 0.88295 0.13348 0.0
H594 H 0.88891 0.93824 0.18835 0.0
H595 H 0.89734 0.97357 0.11556 0.0
H596 H 0.87282 0.98731 0.079 0.0
H597 H 0.79485 0.04088 0.11022 0.0
H598 H 0.81848 0.02719 0.14701 0.0
H599 H 0.00983 0.03543 0.23223 0.0
H600 H 0.97966 1.00304 0.20885 0.0
H601 H 0.87227 0.04731 0.20525 0.0
H602 H 0.9037 0.08088 0.22739 0.0
H603 H 0.8896 0.02907 0.16574 0.0
H604 H 0.88029 0.99035 0.23901 0.0
H605 H 0.90612 0.97493 0.27485 0.0
H606 H 0.99019 0.92773 0.24108 0.0
H607 H 0.96443 0.9424 0.20502 0.0
C608 C 0.79715 0.92582 0.13108 0.0
C609 C 0.81728 0.90274 0.12835 0.0
C610 C 0.81589 0.94649 0.14135 0.0
C611 C 0.85528 0.94441 0.14879 0.0
C612 C 0.87589 0.92158 0.14498 0.0
C613 C 0.85691 0.90087 0.13502 0.0
C614 C 0.8736 0.96484 0.16253 0.0
C615 C 0.88958 0.95803 0.18317 0.0
C616 C 0.87361 0.99083 0.15617 0.0
C617 C 0.85943 0.99917 0.13407 0.0
C618 C 0.87474 0.98813 0.11465 0.0
C619 C 0.86104 0.99594 0.09388 0.0
C620 C 0.83223 0.01491 0.09229 0.0
C621 C 0.81714 0.02616 0.11148 0.0
C622 C 0.8307 0.01841 0.13229 0.0
C623 C 0.97983 0.03838 0.22639 0.0
C624 C 0.95916 0.06076 0.23165 0.0
C625 C 0.96239 0.01964 0.21321 0.0
C626 C 0.92335 0.02242 0.20555 0.0
C627 C 0.90239 0.04465 0.211 0.0
C628 C 0.92018 0.0637 0.22388 0.0
C629 C 0.90494 1.00235 0.19145 0.0
C630 C 0.88887 0.00924 0.17082 0.0
C631 C 0.90516 0.97634 0.19766 0.0
C632 C 0.92063 0.96761 0.21935 0.0
C633 C 0.9044 0.97677 0.23924 0.0
C634 C 0.91899 0.96816 0.25958 0.0
C635 C 0.94999 0.95061 0.26025 0.0
C636 C 0.96624 0.94138 0.24055 0.0
C637 C 0.9515 0.94971 0.22016 0.0
H638 H 0.96129 0.94406 0.27603 0.0
H639 H 0.82166 0.02093 0.0762 0.0
H640 H 0.85626 0.13605 0.65677 0.0
H641 H 0.88714 0.09914 0.67398 0.0
H642 H 0.83077 0.05013 0.62589 0.0
H643 H 0.79773 0.08747 0.60958 0.0
H644 H 0.81896 0.03105 0.66397 0.0
H645 H 0.93616 0.06049 0.62899 0.0
H646 H 0.98759 0.091 0.61698 0.0
H647 H 0.01851 0.10541 0.68481 0.0
H648 H 0.96687 0.07526 0.69726 0.0
H649 H 0.93227 0.92492 0.70459 0.0
H650 H 0.90655 0.95955 0.68165 0.0
H651 H 0.92237 0.01198 0.73586 0.0
H652 H 0.94763 0.97711 0.75916 0.0
H653 H 0.95691 0.02671 0.69214 0.0
H654 H 0.83455 0.99671 0.7255 0.0
H655 H 0.78598 0.96328 0.73518 0.0
H656 H 0.76875 0.94672 0.66622 0.0
H657 H 0.81779 0.97975 0.65614 0.0
C658 C 0.85134 0.11741 0.64961 0.0
C659 C 0.82475 0.11443 0.63196 0.0
C660 C 0.86916 0.09628 0.65934 0.0
C661 C 0.86172 0.07168 0.65119 0.0
C662 C 0.83702 0.06887 0.63253 0.0
C663 C 0.81857 0.09014 0.62301 0.0
C664 C 0.8766 0.04907 0.6636 0.0
C665 C 0.84938 0.02994 0.66969 0.0
C666 C 0.91615 0.04759 0.67147 0.0
C667 C 0.9474 0.06571 0.66407 0.0
C668 C 0.95373 0.07029 0.64136 0.0
C669 C 0.98296 0.08751 0.63447 0.0
C670 C 0.00626 0.10017 0.65012 0.0
C671 C 1.00043 0.09559 0.6727 0.0
C672 C 0.97122 0.07841 0.67969 0.0
C673 C 0.9298 0.94378 0.71172 0.0
C674 C 0.94177 0.94839 0.73366 0.0
C675 C 0.91514 0.96349 0.69859 0.0
C676 C 0.91269 0.98826 0.70706 0.0
C677 C 0.92412 0.99293 0.72907 0.0
C678 C 0.93815 0.97304 0.74239 0.0
C679 C 0.89912 0.00932 0.69263 0.0
C680 C 0.92664 0.02797 0.68618 0.0
C681 C 0.8602 0.01005 0.68403 0.0
C682 C 0.83013 0.99054 0.69008 0.0
C683 C 0.82064 0.9858 0.71241 0.0
C684 C 0.79299 0.96695 0.71797 0.0
C685 C 0.77436 0.95284 0.70133 0.0
C686 C 0.78324 0.95764 0.67909 0.0
C687 C 0.81094 0.97644 0.67344 0.0
H688 H 0.75299 0.93824 0.70567 0.0
H689 H 0.02887 0.11349 0.64475 0.0
H690 H 0.63578 0.38561 0.12379 0.0
H691 H 0.60643 0.42319 0.14164 0.0
H692 H 0.72276 0.45707 0.14712 0.0
H693 H 0.75167 0.41947 0.12941 0.0
H694 H 0.68803 0.45439 0.18661 0.0
H695 H 0.65156 0.4874 0.11498 0.0
H696 H 0.6211 0.48875 0.07793 0.0
H697 H 0.50775 0.46983 0.1061 0.0
H698 H 0.53755 0.46888 0.14344 0.0
H699 H 0.5793 0.58399 0.20251 0.0
H700 H 0.60871 0.55048 0.17996 0.0
H701 H 0.58977 0.49644 0.23291 0.0
H702 H 0.56065 0.53028 0.25577 0.0
H703 H 0.57542 0.5091 0.16423 0.0
H704 H 0.65982 0.4495 0.22877 0.0
H705 H 0.69444 0.45492 0.26446 0.0
H706 H 0.72083 0.53271 0.24797 0.0
H707 H 0.68636 0.52778 0.21217 0.0
C708 C 0.6546 0.40164 0.12799 0.0
C709 C 0.69579 0.39992 0.12524 0.0
C710 C 0.63798 0.423 0.13831 0.0
C711 C 0.66246 0.44289 0.14593 0.0
C712 C 0.70332 0.44192 0.14155 0.0
C713 C 0.71979 0.42064 0.13125 0.0
C714 C 0.64646 0.46316 0.16059 0.0
C715 C 0.66342 0.46638 0.18168 0.0
C716 C 0.61437 0.4788 0.1543 0.0
C717 C 0.59684 0.47775 0.13189 0.0
C718 C 0.62025 0.48322 0.11321 0.0
C719 C 0.60304 0.48407 0.09219 0.0
C720 C 0.56253 0.47921 0.08962 0.0
C721 C 0.53913 0.47354 0.1081 0.0
C722 C 0.55612 0.47296 0.12921 0.0
C723 C 0.5816 0.56498 0.20939 0.0
C724 C 0.56741 0.55961 0.23078 0.0
C725 C 0.59834 0.54585 0.19648 0.0
C726 C 0.60137 0.52091 0.20467 0.0
C727 C 0.58809 0.51559 0.2263 0.0
C728 C 0.57148 0.53488 0.23933 0.0
C729 C 0.61728 0.50055 0.19012 0.0
C730 C 0.59998 0.49708 0.16919 0.0
C731 C 0.64954 0.48502 0.19642 0.0
C732 C 0.67018 0.48831 0.21791 0.0
C733 C 0.67301 0.46776 0.23277 0.0
C734 C 0.69253 0.47077 0.25302 0.0
C735 C 0.7096 0.4942 0.25852 0.0
C736 C 0.70727 0.51466 0.24375 0.0
C737 C 0.68767 0.51178 0.2235 0.0
H738 H 0.72477 0.49648 0.27419 0.0
H739 H 0.54923 0.47995 0.07332 0.0
H740 H 0.3684 0.39334 0.40807 0.0
H741 H 0.39975 0.43066 0.39068 0.0
H742 H 0.28421 0.4631 0.37901 0.0
H743 H 0.25319 0.42567 0.3963 0.0
H744 H 0.3259 0.46043 0.34177 0.0
H745 H 0.35054 0.48982 0.41539 0.0
H746 H 0.37481 0.48692 0.45381 0.0
H747 H 0.49379 0.47691 0.43012 0.0
H748 H 0.47017 0.47924 0.39152 0.0
H749 H 0.39756 0.57895 0.29736 0.0
H750 H 0.36502 0.54681 0.32056 0.0
H751 H 0.47602 0.50716 0.3276 0.0
H752 H 0.50811 0.53828 0.30333 0.0
H753 H 0.4359 0.51525 0.36836 0.0
H754 H 0.41239 0.48116 0.29628 0.0
H755 H 0.3892 0.47739 0.25771 0.0
H756 H 0.27006 0.49322 0.27852 0.0
H757 H 0.29261 0.49737 0.31722 0.0
C758 C 0.34999 0.40888 0.40237 0.0
C759 C 0.30855 0.40678 0.40333 0.0
C760 C 0.36779 0.43015 0.39243 0.0
C761 C 0.34433 0.44972 0.38349 0.0
C762 C 0.30292 0.44822 0.38569 0.0
C763 C 0.28521 0.42696 0.39557 0.0
C764 C 0.36248 0.47021 0.36972 0.0
C765 C 0.34931 0.47284 0.34779 0.0
C766 C 0.39413 0.48569 0.37729 0.0
C767 C 0.40849 0.48446 0.40052 0.0
C768 C 0.38184 0.48677 0.41835 0.0
C769 C 0.39549 0.48526 0.44017 0.0
C770 C 0.4358 0.48167 0.4444 0.0
C771 C 0.46256 0.47965 0.42681 0.0
C772 C 0.44906 0.48108 0.40496 0.0
C773 C 0.41489 0.56317 0.30347 0.0
C774 C 0.45552 0.56133 0.2985 0.0
C775 C 0.39631 0.5449 0.31689 0.0
C776 C 0.41817 0.52467 0.3259 0.0
C777 C 0.45868 0.52275 0.32098 0.0
C778 C 0.47703 0.54068 0.3072 0.0
C779 C 0.39888 0.50555 0.34056 0.0
C780 C 0.412 0.50311 0.36255 0.0
C781 C 0.36731 0.49005 0.33307 0.0
C782 C 0.35427 0.48985 0.30962 0.0
C783 C 0.38137 0.48429 0.29259 0.0
C784 C 0.36828 0.48187 0.27074 0.0
C785 C 0.32813 0.48485 0.26572 0.0
C786 C 0.3011 0.49075 0.28247 0.0
C787 C 0.31402 0.49317 0.30436 0.0
H788 H 0.31797 0.48272 0.24882 0.0
H789 H 0.4463 0.48051 0.46131 0.0
H790 H 0.15526 0.13383 0.87331 0.0
H791 H 0.12275 0.09681 0.85711 0.0
H792 H 0.17588 0.04877 0.90703 0.0
H793 H 0.21202 0.08563 0.92149 0.0
H794 H 0.18302 0.02561 0.8723 0.0
H795 H 0.06964 0.06391 0.90306 0.0
H796 H 0.02167 0.09755 0.91242 0.0
H797 H 0.99414 0.10728 0.8435 0.0
H798 H 0.04237 0.07396 0.83367 0.0
H799 H 0.06501 0.92109 0.83138 0.0
H800 H 0.0917 0.95512 0.85474 0.0
H801 H 0.07653 0.00878 0.80127 0.0
H802 H 0.04925 0.97488 0.77793 0.0
H803 H 0.04642 0.02585 0.84205 0.0
H804 H 0.16954 0.98627 0.8146 0.0
H805 H 0.21527 0.95004 0.81011 0.0
H806 H 0.21674 0.9384 0.88043 0.0
H807 H 0.17136 0.9747 0.88545 0.0
C808 C 0.15983 0.11534 0.88081 0.0
C809 C 0.18619 0.1126 0.89862 0.0
C810 C 0.1407 0.09415 0.87178 0.0
C811 C 0.14608 0.06977 0.88097 0.0
C812 C 0.17103 0.06725 0.89954 0.0
C813 C 0.1912 0.08841 0.90811 0.0
C814 C 0.12845 0.04685 0.87002 0.0
C815 C 0.15282 0.02563 0.86615 0.0
C816 C 0.08902 0.04646 0.86183 0.0
C817 C 0.05988 0.06653 0.86762 0.0
C818 C 0.05357 0.07334 0.88988 0.0
C819 C 0.02629 0.09234 0.89527 0.0
C820 C 0.00493 0.10457 0.87856 0.0
C821 C 0.01073 0.09779 0.85642 0.0
C822 C 0.03799 0.07882 0.85093 0.0
C823 C 0.06765 0.94012 0.82454 0.0
C824 C 0.05527 0.94531 0.80276 0.0
C825 C 0.08303 0.95951 0.83789 0.0
C826 C 0.08631 0.98447 0.82972 0.0
C827 C 0.07428 0.98964 0.8079 0.0
C828 C 0.05907 0.97022 0.7945 0.0
C829 C 0.1014 0.00537 0.844 0.0
C830 C 0.07642 0.02604 0.84851 0.0
C831 C 0.13965 0.00482 0.85353 0.0
C832 C 0.16684 0.98304 0.85038 0.0
C833 C 0.17944 0.97589 0.82909 0.0
C834 C 0.2053 0.95537 0.82644 0.0
C835 C 0.21862 0.94181 0.84491 0.0
C836 C 0.20634 0.94887 0.86612 0.0
C837 C 0.18069 0.96947 0.86889 0.0
H838 H 0.2386 0.92591 0.84278 0.0
H839 H 0.98383 0.11928 0.88277 0.0
H840 H 0.1443 0.15703 0.94185 0.0
H841 H 0.1155 0.14549 0.9781 0.0
H842 H 0.21417 0.09543 0.9904 0.0
H843 H 0.24354 0.10789 0.95459 0.0
H844 H 0.12629 0.07723 1.00094 0.0
H845 H 0.22679 0.14321 1.01327 0.0
H846 H 0.25612 0.18526 1.00506 0.0
H847 H 0.14654 0.2215 0.02251 0.0
H848 H 0.11631 0.17956 0.03038 0.0
H849 H 0.11506 0.05234 0.11551 0.0
H850 H 0.13612 0.06185 0.07765 0.0
H851 H 0.07474 0.13379 0.08053 0.0
H852 H 0.05505 0.12467 0.11886 0.0
H853 H 0.1397 0.14152 0.06067 0.0
H854 H 0.03868 0.07935 0.05102 0.0
H855 H 0.00219 0.03897 0.056 0.0
H856 H 0.1021 0.99734 0.03116 0.0
H857 H 0.13945 0.03745 0.02633 0.0
C858 C 0.15918 0.1432 0.95222 0.0
C859 C 0.19555 0.13289 0.94553 0.0
C860 C 0.14293 0.13669 0.97282 0.0
C861 C 0.16268 0.11952 0.98681 0.0
C862 C 0.19835 0.10851 0.97973 0.0
C863 C 0.21501 0.11551 0.95937 0.0
C864 C 0.14771 0.11451 1.0095 0.0
C865 C 0.12952 0.09108 1.01414 0.0
C866 C 0.15069 0.13304 0.02636 0.0
C867 C 0.16917 0.15825 0.02216 0.0
C868 C 0.20885 0.16012 1.01516 0.0
C869 C 0.22566 0.18394 1.0106 0.0
C870 C 0.20318 0.20604 1.01321 0.0
C871 C 0.1639 0.20436 0.02046 0.0
C872 C 0.14691 0.18058 0.02498 0.0
C873 C 0.10598 0.07015 0.10802 0.0
C874 C 0.08322 0.0877 0.12008 0.0
C875 C 0.11783 0.07553 0.0863 0.0
C876 C 0.10633 0.09832 0.07589 0.0
C877 C 0.08395 0.11603 0.08806 0.0
C878 C 0.0727 0.11084 0.10997 0.0
C879 C 0.11844 0.10384 0.05255 0.0
C880 C 0.13615 0.12749 0.04765 0.0
C881 C 0.11412 0.08566 0.03531 0.0
C882 C 0.09201 0.06142 0.03851 0.0
C883 C 0.05303 0.06157 0.04681 0.0
C884 C 0.03215 0.03873 0.04957 0.0
C885 C 0.04984 0.0156 0.04394 0.0
C886 C 0.08845 0.01527 0.03554 0.0
C887 C 0.10948 0.03805 0.03278 0.0
H888 H 0.03361 0.99794 0.04605 0.0
H889 H 0.21624 0.22446 1.00966 0.0
H890 H 0.35866 0.34826 0.44892 0.0
H891 H 0.38609 0.36091 0.48493 0.0
H892 H 0.30569 0.42465 0.48694 0.0
H893 H 0.27901 0.41212 0.45067 0.0
H894 H 0.37556 0.43785 0.50413 0.0
H895 H 0.28467 0.36778 0.51341 0.0
H896 H 0.25877 0.32467 0.50591 0.0
H897 H 0.36791 0.29204 0.52879 0.0
H898 H 0.39471 0.335 0.5361 0.0
H899 H 0.37639 0.45984 0.62008 0.0
H900 H 0.35783 0.45014 0.58186 0.0
H901 H 0.4354 0.38495 0.58261 0.0
H902 H 0.45318 0.39426 0.62112 0.0
H903 H 0.36901 0.37251 0.56352 0.0
H904 H 0.45903 0.44315 0.5555 0.0
H905 H 0.4844 0.48649 0.56252 0.0
H906 H 0.37636 0.51833 0.5373 0.0
H907 H 0.3501 0.47516 0.53042 0.0
C908 C 0.34737 0.36512 0.45703 0.0
C909 C 0.31658 0.37912 0.44733 0.0
C910 C 0.36285 0.37231 0.47758 0.0
C911 C 0.34731 0.3934 0.48894 0.0
C912 C 0.31804 0.40824 0.47859 0.0
C913 C 0.30284 0.40115 0.45792 0.0
C914 C 0.35987 0.39912 0.51207 0.0
C915 C 0.37379 0.42364 0.51717 0.0
C916 C 0.35822 0.38048 0.52905 0.0
C917 C 0.34182 0.35462 0.52512 0.0
C918 C 0.30321 0.35141 0.51674 0.0
C919 C 0.28838 0.32701 0.51252 0.0
C920 C 0.31171 0.30563 0.51683 0.0
C921 C 0.34988 0.30862 0.52544 0.0
C922 C 0.36491 0.33299 0.52963 0.0
C923 C 0.38967 0.44354 0.61203 0.0
C924 C 0.4164 0.42788 0.62356 0.0
C925 C 0.37915 0.43804 0.59014 0.0
C926 C 0.39575 0.41706 0.5791 0.0
C927 C 0.42222 0.40128 0.59068 0.0
C928 C 0.43236 0.40658 0.6127 0.0
C929 C 0.3849 0.41127 0.55567 0.0
C930 C 0.3711 0.38672 0.5505 0.0
C931 C 0.38657 0.42993 0.53866 0.0
C932 C 0.40247 0.45591 0.54262 0.0
C933 C 0.44058 0.45939 0.55158 0.0
C934 C 0.45513 0.48393 0.55552 0.0
C935 C 0.43198 0.50515 0.5504 0.0
C936 C 0.39425 0.50188 0.54128 0.0
C937 C 0.37953 0.47738 0.53733 0.0
H938 H 0.44329 0.52413 0.55347 0.0
H939 H 0.30019 0.28675 0.51353 0.0
H940 H 0.73593 0.39452 0.07263 0.0
H941 H 0.71165 0.3979 0.03437 0.0
H942 H 0.61703 0.34521 0.04998 0.0
H943 H 0.64262 0.34129 0.08786 0.0
H944 H 0.65093 0.32983 1.01485 0.0
H945 H 0.59999 0.41083 0.03648 0.0
H946 H 0.60051 0.45391 0.05224 0.0
H947 H 0.69097 0.4767 1.00611 0.0
H948 H 0.6908 0.43353 0.98992 0.0
H949 H 0.53372 0.34556 0.91855 0.0
H950 H 0.55736 0.35119 0.95637 0.0
H951 H 0.66937 0.37896 0.93174 0.0
H952 H 0.64685 0.37214 0.8936 0.0
H953 H 0.62983 0.40784 0.96995 0.0
H954 H 0.67523 0.32471 0.94736 0.0
H955 H 0.6667 0.282 0.93109 0.0
H956 H 0.57916 0.26369 0.98035 0.0
H957 H 0.58673 0.30648 0.99671 0.0
C958 C 0.70923 0.3844 0.0679 0.0
C959 C 0.69069 0.36792 0.08302 0.0
C960 C 0.69535 0.38624 0.04608 0.0
C961 C 0.66233 0.37184 0.03914 0.0
C962 C 0.64261 0.35643 0.05477 0.0
C963 C 0.65684 0.35438 0.07645 0.0
C964 C 0.65044 0.37093 1.01531 0.0
C965 C 0.64585 0.34698 1.00522 0.0
C966 C 0.64479 0.39315 1.00232 0.0
C967 C 0.64571 0.41892 1.0122 0.0
C968 C 0.62026 0.42496 0.02984 0.0
C969 C 0.62043 0.44944 0.03881 0.0
C970 C 0.64596 0.46807 0.03032 0.0
C971 C 0.67128 0.46224 1.01272 0.0
C972 C 0.67107 0.43779 1.00358 0.0
C973 C 0.56357 0.35262 0.92102 0.0
C974 C 0.58854 0.35795 0.90284 0.0
C975 C 0.57685 0.35607 0.94272 0.0
C976 C 0.61515 0.36533 0.94682 0.0
C977 C 0.63965 0.37184 0.92887 0.0
C978 C 0.6266 0.36801 0.90707 0.0
C979 C 0.62991 0.36689 0.96992 0.0
C980 C 0.63516 0.39084 0.97973 0.0
C981 C 0.63561 0.34469 0.98278 0.0
C982 C 0.63126 0.31888 0.97311 0.0
C983 C 0.6539 0.31166 0.9546 0.0
C984 C 0.64929 0.28743 0.94539 0.0
C985 C 0.62233 0.27017 0.95465 0.0
C986 C 0.6 0.27709 0.97318 0.0
C987 C 0.60446 0.30133 0.98244 0.0
H988 H 0.61881 0.25141 0.94749 0.0
H989 H 0.646 0.48704 0.0373 0.0
H990 H 0.86971 0.16395 0.59399 0.0
H991 H 0.89742 0.16113 0.55635 0.0
H992 H 0.79854 0.11408 0.53658 0.0
H993 H 0.77092 0.11724 0.57425 0.0
H994 H 0.87246 0.09945 0.5167 0.0
H995 H 0.79005 0.17368 0.52517 0.0
H996 H 0.76705 0.21326 0.54291 0.0
H997 H 0.88297 0.24621 0.53529 0.0
H998 H 0.9066 0.2068 0.51741 0.0
H999 H 0.87692 0.12694 0.39997 0.0
H1000 H 0.85882 0.11951 0.43868 0.0
H1001 H 0.94627 0.17459 0.45938 0.0
H1002 H 0.96443 0.18219 0.42099 0.0
H1003 H 0.87818 0.1835 0.4791 0.0
H1004 H 0.95892 0.10962 0.46726 0.0
H1005 H 0.98001 0.07021 0.44856 0.0
H1006 H 0.86676 0.03599 0.46218 0.0
H1007 H 0.84478 0.07535 0.4807 0.0
C1008 C 0.85486 0.15232 0.58172 0.0
C1009 C 0.81865 0.14054 0.58683 0.0
C1010 C 0.87038 0.15086 0.56025 0.0
C1011 C 0.84983 0.13757 0.54361 0.0
C1012 C 0.81494 0.12434 0.54916 0.0
C1013 C 0.79928 0.12603 0.5706 0.0
C1014 C 0.86251 0.13971 0.52008 0.0
C1015 C 0.87344 0.11776 0.50836 0.0
C1016 C 0.86413 0.16363 0.50929 0.0
C1017 C 0.85017 0.18724 0.52017 0.0
C1018 C 0.81068 0.18932 0.52741 0.0
C1019 C 0.79749 0.21175 0.53739 0.0
C1020 C 0.82358 0.23219 0.54031 0.0
C1021 C 0.86283 0.23033 0.53307 0.0
C1022 C 0.8761 0.20799 0.52293 0.0
C1023 C 0.8929 0.13715 0.41274 0.0
C1024 C 0.92241 0.15512 0.40713 0.0
C1025 C 0.88242 0.13288 0.43493 0.0
C1026 C 0.90138 0.14633 0.45204 0.0
C1027 C 0.93113 0.16398 0.44652 0.0
C1028 C 0.94149 0.16832 0.42442 0.0
C1029 C 0.88888 0.14326 0.47559 0.0
C1030 C 0.87762 0.16512 0.48735 0.0
C1031 C 0.88691 0.11923 0.48629 0.0
C1032 C 0.90006 0.09554 0.47517 0.0
C1033 C 0.93839 0.09378 0.4661 0.0
C1034 C 0.95053 0.07143 0.45556 0.0
C1035 C 0.9247 0.05063 0.45413 0.0
C1036 C 0.88671 0.05213 0.46327 0.0
C1037 C 0.87441 0.07444 0.47381 0.0
H1038 H 0.93416 0.03335 0.44597 0.0
H1039 H 0.81334 0.24951 0.54814 0.0
H1040 H 0.74788 0.88597 0.06785 0.0
H1041 H 0.77336 0.89834 0.03124 0.0
H1042 H 0.89311 0.88889 0.05492 0.0
H1043 H 0.8673 0.87674 0.09155 0.0
H1044 H 0.88752 0.92991 0.02784 0.0
H1045 H 0.84707 0.84218 0.0258 0.0
H1046 H 0.80011 0.80658 0.03104 0.0
H1047 H 0.72083 0.84002 0.98369 0.0
H1048 H 0.76701 0.87609 0.97846 0.0
H1049 H 0.98211 0.92059 0.92331 0.0
H1050 H 0.95701 0.91153 0.96051 0.0
H1051 H 0.83698 0.91602 0.93619 0.0
H1052 H 0.86209 0.92456 0.89879 0.0
H1053 H 0.84269 0.87797 0.96393 0.0
H1054 H 0.8838 0.96567 0.96566 0.0
H1055 H 0.92983 1.00196 0.96152 0.0
H1056 H 0.00768 0.96904 1.00988 0.0
H1057 H 0.96243 0.93232 1.01404 0.0
C1058 C 0.7796 0.88698 0.06519 0.0
C1059 C 0.80574 0.88059 0.08236 0.0
C1060 C 0.79416 0.89389 0.04433 0.0
C1061 C 0.83518 0.89414 0.0402 0.0
C1062 C 0.86138 0.88883 0.0577 0.0
C1063 C 0.84673 0.88203 0.07861 0.0
C1064 C 0.85062 0.89867 0.01741 0.0
C1065 C 0.87811 0.91838 1.01389 0.0
C1066 C 0.83777 0.88391 0.99912 0.0
C1067 C 0.81036 0.86195 1.00188 0.0
C1068 C 0.81952 0.84202 0.0166 0.0
C1069 C 0.79304 0.82176 0.01957 0.0
C1070 C 0.75747 0.82107 1.00774 0.0
C1071 C 0.74837 0.8406 0.99286 0.0
C1072 C 0.7747 0.86096 0.98987 0.0
C1073 C 0.95036 0.91966 0.9259 0.0
C1074 C 0.92407 0.92349 0.90813 0.0
C1075 C 0.93601 0.91457 0.94721 0.0
C1076 C 0.89503 0.91364 0.95135 0.0
C1077 C 0.86872 0.91676 0.93349 0.0
C1078 C 0.88308 0.92157 0.9121 0.0
C1079 C 0.87959 0.90936 0.97423 0.0
C1080 C 0.85212 0.8896 0.97781 0.0
C1081 C 0.89252 0.92408 0.99257 0.0
C1082 C 0.91989 0.9461 0.98999 0.0
C1083 C 0.9109 0.96605 0.97526 0.0
C1084 C 0.93684 0.98672 0.97294 0.0
C1085 C 0.9717 0.98777 0.98539 0.0
C1086 C 0.9807 0.96817 1.00022 0.0
C1087 C 0.95491 0.94743 1.00257 0.0
H1088 H 0.99171 1.00381 0.9836 0.0
H1089 H 0.737 0.80537 1.01007 0.0
H1090 H 0.72023 0.59799 0.58419 0.0
H1091 H 0.69314 0.58563 0.54805 0.0
H1092 H 0.63756 0.65925 0.54212 0.0
H1093 H 0.66307 0.67097 0.57874 0.0
H1094 H 0.59068 0.62498 0.52503 0.0
H1095 H 0.72812 0.64606 0.51762 0.0
H1096 H 0.7995 0.6433 0.52604 0.0
H1097 H 0.7999 0.56474 0.50636 0.0
H1098 H 0.72833 0.56694 0.49814 0.0
H1099 H 0.64179 0.61081 0.39864 0.0
H1100 H 0.65961 0.62217 0.43654 0.0
H1101 H 0.56774 0.57243 0.46148 0.0
H1102 H 0.54833 0.56202 0.4236 0.0
H1103 H 0.68809 0.59594 0.46893 0.0
H1104 H 0.53301 0.59395 0.51079 0.0
H1105 H 0.46323 0.60262 0.50122 0.0
H1106 H 0.50088 0.65324 0.4493 0.0
H1107 H 0.57082 0.64514 0.45875 0.0
C1108 C 0.70145 0.61122 0.57534 0.0
C1109 C 0.69403 0.63551 0.58404 0.0
C1110 C 0.68634 0.6043 0.55461 0.0
C1111 C 0.66399 0.62171 0.54207 0.0
C1112 C 0.6549 0.64552 0.55134 0.0
C1113 C 0.6697 0.65231 0.57215 0.0
C1114 C 0.65188 0.61573 0.51891 0.0
C1115 C 0.61195 0.6185 0.5128 0.0
C1116 C 0.67972 0.60793 0.5027 0.0
C1117 C 0.7228 0.60659 0.50747 0.0
C1118 C 0.74338 0.62815 0.51523 0.0
C1119 C 0.78387 0.62669 0.51996 0.0
C1120 C 0.8042 0.60384 0.51679 0.0
C1121 C 0.7841 0.58242 0.50884 0.0
C1122 C 0.74357 0.58376 0.50413 0.0
C1123 C 0.62483 0.60261 0.41214 0.0
C1124 C 0.59344 0.58555 0.40794 0.0
C1125 C 0.63538 0.60893 0.43386 0.0
C1126 C 0.6149 0.59834 0.45196 0.0
C1127 C 0.58369 0.58119 0.44785 0.0
C1128 C 0.57292 0.575 0.42612 0.0
C1129 C 0.62676 0.60488 0.47506 0.0
C1130 C 0.6667 0.60223 0.48117 0.0
C1131 C 0.59913 0.61356 0.49105 0.0
C1132 C 0.55715 0.61869 0.48534 0.0
C1133 C 0.52638 0.60698 0.49738 0.0
C1134 C 0.4868 0.61179 0.49196 0.0
C1135 C 0.47763 0.6284 0.47461 0.0
C1136 C 0.50802 0.6403 0.46268 0.0
C1137 C 0.54763 0.63557 0.46804 0.0
H1138 H 0.44698 0.63209 0.47044 0.0
H1139 H 0.83556 0.60275 0.52045 0.0
H1140 H 0.36122 0.65627 0.94539 0.0
H1141 H 0.38352 0.65032 0.98369 0.0
H1142 H 0.27793 0.60635 0.99764 0.0
H1143 H 0.25552 0.6131 0.95931 0.0
H1144 H 0.2845 0.64111 0.02705 0.0
H1145 H 0.37448 0.57847 1.00174 0.0
H1146 H 0.42582 0.558 0.97895 0.0
H1147 H 0.50736 0.61847 0.99424 0.0
H1148 H 0.4565 0.63914 0.01742 0.0
H1149 H 0.35159 0.62577 0.13928 0.0
H1150 H 0.33602 0.61331 0.10096 0.0
H1151 H 0.41517 0.67163 0.07654 0.0
H1152 H 0.43016 0.68439 0.11467 0.0
H1153 H 0.42039 0.62267 0.05388 0.0
H1154 H 0.32395 0.68564 0.07798 0.0
H1155 H 0.2722 0.70192 0.10307 0.0
H1156 H 0.20073 0.63569 0.09043 0.0
H1157 H 0.25241 0.61883 0.06551 0.0
C1158 C 0.34366 0.64464 0.95655 0.0
C1159 C 0.307 0.63494 0.94963 0.0
C1160 C 0.35631 0.64118 0.97841 0.0
C1161 C 0.33257 0.62773 0.99368 0.0
C1162 C 0.29683 0.61679 0.98626 0.0
C1163 C 0.28414 0.62041 0.96441 0.0
C1164 C 0.3427 0.62789 0.01775 0.0
C1165 C 0.314 0.63644 0.0329 0.0
C1166 C 0.38126 0.62223 0.02559 0.0
C1167 C 0.41159 0.61044 1.01114 0.0
C1168 C 0.40324 0.58752 1.00008 0.0
C1169 C 0.43232 0.57583 0.98716 0.0
C1170 C 0.4698 0.58701 0.98501 0.0
C1171 C 0.47831 0.60985 0.99589 0.0
C1172 C 0.44943 0.62149 1.00902 0.0
C1173 C 0.36601 0.63563 0.12569 0.0
C1174 C 0.39188 0.6561 0.12984 0.0
C1175 C 0.35706 0.62857 0.10387 0.0
C1176 C 0.37437 0.64163 0.08594 0.0
C1177 C 0.40158 0.6613 0.09013 0.0
C1178 C 0.40996 0.66864 0.11187 0.0
C1179 C 0.36237 0.63609 0.0628 0.0
C1180 C 0.39076 0.62678 0.04792 0.0
C1181 C 0.32335 0.64062 0.05526 0.0
C1182 C 0.29223 0.65083 0.07012 0.0
C1183 C 0.29737 0.67444 0.08072 0.0
C1184 C 0.26802 0.68379 0.09487 0.0
C1185 C 0.23325 0.66981 0.0984 0.0
C1186 C 0.22771 0.64647 0.08772 0.0
C1187 C 0.25701 0.63701 0.07358 0.0
H1188 H 0.21056 0.67709 0.10936 0.0
H1189 H 0.49231 0.57794 0.97499 0.0
H1190 H 0.13583 0.83854 0.43876 0.0
H1191 H 0.10607 0.84442 0.47552 0.0
H1192 H 0.19496 0.90111 0.49071 0.0
H1193 H 0.22503 0.89455 0.45402 0.0
H1194 H 0.19233 0.86522 0.5217 0.0
H1195 H 0.0946 0.91592 0.48417 0.0
H1196 H 0.04374 0.92488 0.45587 0.0
H1197 H 0.97319 0.86248 0.47975 0.0
H1198 H 0.0238 0.85277 0.50793 0.0
H1199 H 0.11989 0.8846 0.62972 0.0
H1200 H 0.1389 0.89239 0.59138 0.0
H1201 H 0.04741 0.84078 0.56927 0.0
H1202 H 0.02612 0.8344 0.60751 0.0
H1203 H 0.05125 0.87828 0.54171 0.0
H1204 H 0.14846 0.82325 0.57439 0.0
H1205 H 0.19859 0.81006 0.60178 0.0
H1206 H 0.26929 0.87578 0.5859 0.0
H1207 H 0.21929 0.88954 0.5586 0.0
C1208 C 0.14815 0.85268 0.44985 0.0
C1209 C 0.18254 0.86609 0.44386 0.0
C1210 C 0.1312 0.85612 0.47078 0.0
C1211 C 0.14816 0.8733 0.48593 0.0
C1212 C 0.18134 0.88776 0.47934 0.0
C1213 C 0.19833 0.8842 0.45842 0.0
C1214 C 0.13411 0.87404 0.5093 0.0
C1215 C 0.16161 0.86866 0.5261 0.0
C1216 C 0.09375 0.87752 0.51501 0.0
C1217 C 0.06318 0.88351 0.49811 0.0
C1218 C 0.06839 0.90398 0.4833 0.0
C1219 C 0.0396 0.90921 0.46729 0.0
C1220 C 0.00534 0.89427 0.46601 0.0
C1221 C 0.99975 0.87405 0.48076 0.0
C1222 C 0.02846 0.86868 0.49677 0.0
C1223 C 0.10315 0.87528 0.61675 0.0
C1224 C 0.07158 0.85865 0.6219 0.0
C1225 C 0.11449 0.8795 0.59476 0.0
C1226 C 0.09524 0.86674 0.57736 0.0
C1227 C 0.06298 0.85074 0.58235 0.0
C1228 C 0.05117 0.84683 0.60433 0.0
C1229 C 0.10947 0.86935 0.55406 0.0
C1230 C 0.08205 0.87524 0.53731 0.0
C1231 C 0.1498 0.86582 0.54826 0.0
C1232 C 0.17992 0.85757 0.56464 0.0
C1233 C 0.17456 0.83499 0.57686 0.0
C1234 C 0.20297 0.82739 0.59235 0.0
C1235 C 0.23704 0.84211 0.59562 0.0
C1236 C 0.24284 0.86442 0.58337 0.0
C1237 C 0.21449 0.87212 0.56788 0.0
H1238 H 0.25901 0.8362 0.60762 0.0
H1239 H 0.98311 0.89838 0.4536 0.0
H1240 H 0.28732 0.301 0.39171 0.0
H1241 H 0.24974 0.26733 0.37248 0.0
H1242 H 0.14227 0.3106 0.38073 0.0
H1243 H 0.18028 0.34447 0.39944 0.0
H1244 H 0.13684 0.25459 0.38978 0.0
H1245 H 0.18059 0.31576 0.33489 0.0
H1246 H 0.23071 0.34209 0.31578 0.0
H1247 H 0.29389 0.27473 0.29668 0.0
H1248 H 0.24453 0.248 0.3161 0.0
H1249 H 0.01558 0.19485 0.30774 0.0
H1250 H 0.05123 0.22727 0.32909 0.0
H1251 H 0.1615 0.1886 0.31648 0.0
H1252 H 0.12596 0.1554 0.29636 0.0
H1253 H 0.16526 0.24232 0.30977 0.0
H1254 H 0.12775 0.18122 0.36385 0.0
H1255 H 0.08168 0.1522 0.38314 0.0
H1256 H 0.01197 0.21595 0.40436 0.0
H1257 H 0.05721 0.24537 0.38471 0.0
C1258 C 0.2556 0.30296 0.38961 0.0
C1259 C 0.23637 0.325 0.39697 0.0
C1260 C 0.23423 0.2839 0.37866 0.0
C1261 C 0.19326 0.28655 0.37518 0.0
C1262 C 0.1738 0.30818 0.38334 0.0
C1263 C 0.19534 0.32744 0.39395 0.0
C1264 C 0.17127 0.2675 0.36184 0.0
C1265 C 0.14259 0.25216 0.37223 0.0
C1266 C 0.17967 0.26387 0.33908 0.0
C1267 C 0.20912 0.2799 0.32719 0.0
C1268 C 0.20538 0.30657 0.32682 0.0
C1269 C 0.23362 0.32157 0.3159 0.0
C1270 C 0.26553 0.3101 0.30507 0.0
C1271 C 0.2692 0.28359 0.30511 0.0
C1272 C 0.2411 0.26851 0.31607 0.0
C1273 C 0.04728 0.19302 0.30979 0.0
C1274 C 0.06779 0.17245 0.30036 0.0
C1275 C 0.06768 0.2117 0.32179 0.0
C1276 C 0.10901 0.21033 0.3243 0.0
C1277 C 0.12965 0.1901 0.3146 0.0
C1278 C 0.10921 0.17118 0.30302 0.0
C1279 C 0.13061 0.22956 0.33766 0.0
C1280 C 0.15929 0.24488 0.32729 0.0
C1281 C 0.12269 0.2329 0.36048 0.0
C1282 C 0.0956 0.21547 0.3726 0.0
C1283 C 0.10237 0.18904 0.37244 0.0
C1284 C 0.07644 0.17252 0.38344 0.0
C1285 C 0.04386 0.1822 0.3949 0.0
C1286 C 0.03717 0.20846 0.39542 0.0
C1287 C 0.06295 0.22509 0.38434 0.0
H1288 H 0.02398 0.16929 0.4034 0.0
H1289 H 0.28735 0.32174 0.29661 0.0
H1290 H 0.22652 0.20267 0.87386 0.0
H1291 H 0.26694 0.23665 0.85721 0.0
H1292 H 0.3659 0.21448 0.8981 0.0
H1293 H 0.32517 0.18035 0.91467 0.0
H1294 H 0.30598 0.27814 0.87448 0.0
H1295 H 0.45032 0.22091 0.86494 0.0
H1296 H 0.47205 0.17623 0.86175 0.0
H1297 H 0.35967 0.15574 0.83341 0.0
H1298 H 0.33755 0.20034 0.8361 0.0
H1299 H 0.4533 0.36339 0.83384 0.0
H1300 H 0.42006 0.33093 0.85627 0.0
H1301 H 0.41126 0.28223 0.79894 0.0
H1302 H 0.44743 0.31374 0.77705 0.0
H1303 H 0.42717 0.25447 0.83278 0.0
H1304 H 0.33198 0.32218 0.81928 0.0
H1305 H 0.30802 0.36656 0.82101 0.0
H1306 H 0.31727 0.36548 0.89185 0.0
H1307 H 0.34161 0.32125 0.89062 0.0
C1308 C 0.25685 0.20526 0.8793 0.0
C1309 C 0.27299 0.18901 0.89538 0.0
C1310 C 0.27981 0.22468 0.86993 0.0
C1311 C 0.31951 0.22801 0.87631 0.0
C1312 C 0.33542 0.21214 0.89282 0.0
C1313 C 0.31225 0.19279 0.90233 0.0
C1314 C 0.34444 0.24743 0.86492 0.0
C1315 C 0.33261 0.27301 0.86546 0.0
C1316 C 0.37898 0.24071 0.85299 0.0
C1317 C 0.39214 0.2139 0.85099 0.0
C1318 C 0.43031 0.20687 0.85797 0.0
C1319 C 0.4427 0.18156 0.85624 0.0
C1320 C 0.4172 0.16314 0.84746 0.0
C1321 C 0.37933 0.17001 0.84029 0.0
C1322 C 0.36685 0.19529 0.84194 0.0
C1323 C 0.4445 0.34569 0.82604 0.0
C1324 C 0.45176 0.34149 0.80338 0.0
C1325 C 0.4252 0.3272 0.83887 0.0
C1326 C 0.412 0.30436 0.82921 0.0
C1327 C 0.42063 0.29979 0.80679 0.0
C1328 C 0.44069 0.31803 0.79412 0.0
C1329 C 0.38867 0.28532 0.84218 0.0
C1330 C 0.4008 0.25974 0.84197 0.0
C1331 C 0.35407 0.29202 0.85417 0.0
C1332 C 0.33893 0.31849 0.85484 0.0
C1333 C 0.32907 0.33146 0.83521 0.0
C1334 C 0.31544 0.35656 0.83609 0.0
C1335 C 0.31128 0.36883 0.85647 0.0
C1336 C 0.32057 0.35598 0.87606 0.0
C1337 C 0.33423 0.33089 0.8753 0.0
H1338 H 0.30076 0.38827 0.85708 0.0
H1339 H 0.42683 0.14356 0.84616 0.0
H1340 H 0.69108 0.18886 0.61616 0.0
H1341 H 0.65182 0.22229 0.6344 0.0
H1342 H 0.73911 0.22706 0.6864 0.0
H1343 H 0.77894 0.19456 0.66775 0.0
H1344 H 0.6574 0.2223 0.70107 0.0
H1345 H 0.74013 0.27118 0.65084 0.0
H1346 H 0.76707 0.28215 0.61405 0.0
H1347 H 0.6497 0.29834 0.59054 0.0
H1348 H 0.62198 0.28704 0.62712 0.0
H1349 H 0.60284 0.33274 0.75913 0.0
H1350 H 0.63896 0.30044 0.73839 0.0
H1351 H 0.56341 0.31312 0.68181 0.0
H1352 H 0.5282 0.34621 0.70209 0.0
H1353 H 0.63579 0.30779 0.66816 0.0
H1354 H 0.55157 0.26082 0.71677 0.0
H1355 H 0.52119 0.24859 0.75242 0.0
H1356 H 0.63524 0.22679 0.77749 0.0
H1357 H 0.66644 0.23928 0.7421 0.0
C1358 C 0.7019 0.19733 0.63134 0.0
C1359 C 0.73776 0.18913 0.64069 0.0
C1360 C 0.67951 0.21624 0.64177 0.0
C1361 C 0.69258 0.22699 0.66178 0.0
C1362 C 0.72842 0.21882 0.67108 0.0
C1363 C 0.75101 0.20025 0.6605 0.0
C1364 C 0.66903 0.24676 0.67316 0.0
C1365 C 0.65292 0.24109 0.69402 0.0
C1366 C 0.66224 0.27092 0.66356 0.0
C1367 C 0.67894 0.27798 0.64164 0.0
C1368 C 0.72003 0.27685 0.63777 0.0
C1369 C 0.73544 0.28317 0.61696 0.0
C1370 C 0.7101 0.29086 0.59994 0.0
C1371 C 0.66929 0.29233 0.60372 0.0
C1372 C 0.65371 0.28598 0.62449 0.0
C1373 C 0.59389 0.32873 0.74227 0.0
C1374 C 0.56238 0.342 0.73237 0.0
C1375 C 0.61447 0.31012 0.73044 0.0
C1376 C 0.60346 0.30398 0.70865 0.0
C1377 C 0.57241 0.31745 0.69862 0.0
C1378 C 0.55216 0.33631 0.71031 0.0
C1379 C 0.62435 0.28352 0.69634 0.0
C1380 C 0.63995 0.28899 0.67526 0.0
C1381 C 0.63008 0.25898 0.70558 0.0
C1382 C 0.6114 0.2512 0.72684 0.0
C1383 C 0.57022 0.25358 0.72994 0.0
C1384 C 0.55285 0.24658 0.75009 0.0
C1385 C 0.57628 0.23697 0.76722 0.0
C1386 C 0.61714 0.23426 0.76421 0.0
C1387 C 0.63468 0.24128 0.7441 0.0
H1388 H 0.56278 0.23157 0.78282 0.0
H1389 H 0.72209 0.29574 0.58384 0.0
H1390 H 0.8168 0.34543 0.14825 0.0
H1391 H 0.8546 0.31287 0.16809 0.0
H1392 H 0.76682 0.2565 0.15024 0.0
H1393 H 0.72791 0.28955 0.13156 0.0
H1394 H 0.78612 0.24929 0.19083 0.0
H1395 H 0.86018 0.26098 0.12422 0.0
H1396 H 0.89621 0.28485 0.09525 0.0
H1397 H 0.981 0.31041 0.14343 0.0
H1398 H 0.94515 0.28697 0.17275 0.0
H1399 H 0.96734 0.15751 0.20155 0.0
H1400 H 0.92791 0.18808 0.18072 0.0
H1401 H 0.88443 0.22006 0.24183 0.0
H1402 H 0.92347 0.18925 0.2629 0.0
H1403 H 0.93021 0.23758 0.17803 0.0
H1404 H 0.79417 0.24107 0.23611 0.0
H1405 H 0.75484 0.21233 0.26006 0.0
H1406 H 0.78945 0.14839 0.22029 0.0
H1407 H 0.82957 0.17666 0.19647 0.0
C1408 C 0.80561 0.32609 0.14872 0.0
C1409 C 0.76958 0.31991 0.13839 0.0
C1410 C 0.82736 0.30743 0.15984 0.0
C1411 C 0.81392 0.28207 0.16044 0.0
C1412 C 0.7779 0.27588 0.15001 0.0
C1413 C 0.75589 0.29466 0.13914 0.0
C1414 C 0.83705 0.26212 0.17224 0.0
C1415 C 0.81763 0.2468 0.18799 0.0
C1416 C 0.87804 0.25835 0.16831 0.0
C1417 C 0.89977 0.2724 0.15071 0.0
C1418 C 0.88635 0.27184 0.12866 0.0
C1419 C 0.90676 0.28527 0.11218 0.0
C1420 C 0.94082 0.29918 0.11751 0.0
C1421 C 0.95459 0.29964 0.13933 0.0
C1422 C 0.93426 0.28627 0.15588 0.0
C1423 C 0.9494 0.171 0.21064 0.0
C1424 C 0.94856 0.17082 0.23396 0.0
C1425 C 0.92687 0.18852 0.19866 0.0
C1426 C 0.90289 0.20626 0.20966 0.0
C1427 C 0.90216 0.20629 0.23294 0.0
C1428 C 0.92468 0.18871 0.24497 0.0
C1429 C 0.87933 0.22501 0.19673 0.0
C1430 C 0.89871 0.24017 0.18085 0.0
C1431 C 0.83807 0.22805 0.19996 0.0
C1432 C 0.81509 0.21092 0.21468 0.0
C1433 C 0.79352 0.22085 0.2326 0.0
C1434 C 0.77123 0.20463 0.24619 0.0
C1435 C 0.76991 0.17851 0.24182 0.0
C1436 C 0.7909 0.16856 0.22386 0.0
C1437 C 0.8136 0.18464 0.21039 0.0
H1438 H 0.75248 0.166 0.25229 0.0
H1439 H 0.95658 0.30957 0.10472 0.0
H1440 H 0.82304 0.66021 0.64634 0.0
H1441 H 0.86238 0.69314 0.66512 0.0
H1442 H 0.77254 0.74878 0.64975 0.0
H1443 H 0.73376 0.71579 0.6306 0.0
H1444 H 0.84404 0.76929 0.64474 0.0
H1445 H 0.77866 0.72015 0.70105 0.0
H1446 H 0.75961 0.68079 0.72075 0.0
H1447 H 0.88182 0.66612 0.73583 0.0
H1448 H 0.90168 0.70517 0.71586 0.0
H1449 H 0.89468 0.86158 0.72609 0.0
H1450 H 0.8598 0.82856 0.70512 0.0
H1451 H 0.95756 0.77717 0.71554 0.0
H1452 H 0.99227 0.81007 0.73693 0.0
H1453 H 0.88371 0.75445 0.72285 0.0
H1454 H 0.94816 0.80515 0.66691 0.0
H1455 H 0.9653 0.84529 0.64779 0.0
H1456 H 0.8425 0.85792 0.63302 0.0
H1457 H 0.82447 0.8181 0.65236 0.0
C1458 C 0.81202 0.67954 0.64694 0.0
C1459 C 0.77548 0.6856 0.63721 0.0
C1460 C 0.83432 0.69831 0.65768 0.0
C1461 C 0.82013 0.7234 0.6592 0.0
C1462 C 0.78411 0.72959 0.64884 0.0
C1463 C 0.76198 0.71083 0.63793 0.0
C1464 C 0.84218 0.74297 0.67216 0.0
C1465 C 0.85233 0.76612 0.66188 0.0
C1466 C 0.85361 0.73876 0.69446 0.0
C1467 C 0.84169 0.71546 0.70676 0.0
C1468 C 0.8015 0.70844 0.70844 0.0
C1469 C 0.79055 0.68619 0.71966 0.0
C1470 C 0.81949 0.67093 0.7295 0.0
C1471 C 0.85944 0.67794 0.72818 0.0
C1472 C 0.87056 0.70013 0.71691 0.0
C1473 C 0.90855 0.84317 0.72408 0.0
C1474 C 0.94606 0.83833 0.73322 0.0
C1475 C 0.88875 0.82439 0.71195 0.0
C1476 C 0.90622 0.80046 0.70863 0.0
C1477 C 0.94357 0.79551 0.7179 0.0
C1478 C 0.96344 0.81434 0.72998 0.0
C1479 C 0.88551 0.78066 0.69541 0.0
C1480 C 0.87555 0.75751 0.70567 0.0
C1481 C 0.87402 0.78496 0.67317 0.0
C1482 C 0.88492 0.80873 0.66124 0.0
C1483 C 0.92477 0.81657 0.65971 0.0
C1484 C 0.93467 0.83924 0.64882 0.0
C1485 C 0.90503 0.85414 0.63923 0.0
C1486 C 0.86543 0.84637 0.64046 0.0
C1487 C 0.85535 0.82374 0.65137 0.0
H1488 H 0.91276 0.87169 0.63082 0.0
H1489 H 0.81096 0.65371 0.73818 0.0
H1490 H 0.78336 0.81516 0.161 0.0
H1491 H 0.74579 0.78093 0.1789 0.0
H1492 H 0.65114 0.79116 0.13164 0.0
H1493 H 0.68786 0.82666 0.11473 0.0
H1494 H 0.61983 0.78439 0.16972 0.0
H1495 H 0.71897 0.7399 0.12936 0.0
H1496 H 0.78636 0.7292 0.11663 0.0
H1497 H 0.81966 0.70971 0.18315 0.0
H1498 H 0.75262 0.72065 0.19635 0.0
H1499 H 0.58227 0.64182 0.20136 0.0
H1500 H 0.61768 0.67425 0.17979 0.0
H1501 H 0.59481 0.72957 0.23098 0.0
H1502 H 0.5582 0.69742 0.25218 0.0
H1503 H 0.68238 0.70143 0.18746 0.0
H1504 H 0.5802 0.7873 0.20784 0.0
H1505 H 0.50966 0.79501 0.21635 0.0
H1506 H 0.4771 0.72695 0.18137 0.0
H1507 H 0.54725 0.71903 0.17242 0.0
C1508 C 0.75438 0.8102 0.15462 0.0
C1509 C 0.73837 0.82355 0.13657 0.0
C1510 C 0.7331 0.79042 0.16465 0.0
C1511 C 0.69577 0.78309 0.15646 0.0
C1512 C 0.67986 0.79636 0.13828 0.0
C1513 C 0.70094 0.81645 0.12847 0.0
C1514 C 0.67309 0.76197 0.16716 0.0
C1515 C 0.63358 0.76626 0.17352 0.0
C1516 C 0.69051 0.73799 0.17174 0.0
C1517 C 0.73085 0.73131 0.16387 0.0
C1518 C 0.74075 0.7335 0.1413 0.0
C1519 C 0.77888 0.72737 0.134 0.0
C1520 C 0.8073 0.71884 0.14908 0.0
C1521 C 0.79763 0.71636 0.17149 0.0
C1522 C 0.75955 0.7225 0.17889 0.0
C1523 C 0.5846 0.66096 0.20792 0.0
C1524 C 0.56768 0.66712 0.22849 0.0
C1525 C 0.60509 0.67941 0.19567 0.0
C1526 C 0.6087 0.7044 0.20367 0.0
C1527 C 0.59201 0.71051 0.22432 0.0
C1528 C 0.57143 0.69208 0.23653 0.0
C1529 C 0.62964 0.72414 0.19037 0.0
C1530 C 0.66875 0.71958 0.18356 0.0
C1531 C 0.61144 0.74751 0.18471 0.0
C1532 C 0.56905 0.75247 0.18965 0.0
C1533 C 0.55795 0.77406 0.20188 0.0
C1534 C 0.51803 0.77844 0.2068 0.0
C1535 C 0.48891 0.76143 0.19948 0.0
C1536 C 0.49964 0.74006 0.18713 0.0
C1537 C 0.53949 0.7356 0.18214 0.0
H1538 H 0.45804 0.76484 0.20333 0.0
H1539 H 0.8368 0.7141 0.14339 0.0
H1540 H 0.30722 0.81369 0.41758 0.0
H1541 H 0.3461 0.78006 0.39975 0.0
H1542 H 0.26846 0.78294 0.34297 0.0
H1543 H 0.22829 0.8153 0.36151 0.0
H1544 H 0.28495 0.73615 0.3509 0.0
H1545 H 0.36287 0.81223 0.34429 0.0
H1546 H 0.39818 0.85055 0.35737 0.0
H1547 H 0.47492 0.804 0.39701 0.0
H1548 H 0.4397 0.7654 0.3844 0.0
H1549 H 0.41273 0.68082 0.27087 0.0
H1550 H 0.37443 0.7117 0.29207 0.0
H1551 H 0.4399 0.6924 0.35101 0.0
H1552 H 0.47816 0.66109 0.33007 0.0
H1553 H 0.4307 0.746 0.34326 0.0
H1554 H 0.35215 0.66919 0.34626 0.0
H1555 H 0.31765 0.63234 0.32979 0.0
H1556 H 0.24205 0.68269 0.2931 0.0
H1557 H 0.27663 0.71987 0.30901 0.0
C1558 C 0.2983 0.80679 0.40144 0.0
C1559 C 0.26503 0.81709 0.3908 0.0
C1560 C 0.32071 0.78783 0.39114 0.0
C1561 C 0.3107 0.77925 0.36979 0.0
C1562 C 0.27695 0.78926 0.35937 0.0
C1563 C 0.25424 0.80791 0.36983 0.0
C1564 C 0.33543 0.76003 0.35818 0.0
C1565 C 0.31676 0.73849 0.34907 0.0
C1566 C 0.37709 0.76278 0.356 0.0
C1567 C 0.39837 0.78595 0.36359 0.0
C1568 C 0.38708 0.81018 0.35593 0.0
C1569 C 0.40711 0.83195 0.36324 0.0
C1570 C 0.4387 0.82972 0.37806 0.0
C1571 C 0.4504 0.8057 0.38556 0.0
C1572 C 0.43043 0.78387 0.37833 0.0
C1573 C 0.41901 0.683 0.28836 0.0
C1574 C 0.44831 0.66821 0.2988 0.0
C1575 C 0.39706 0.70069 0.30043 0.0
C1576 C 0.40416 0.70414 0.32311 0.0
C1577 C 0.43396 0.68993 0.33351 0.0
C1578 C 0.45567 0.67199 0.32151 0.0
C1579 C 0.38009 0.72242 0.33598 0.0
C1580 C 0.39892 0.74371 0.34527 0.0
C1581 C 0.33852 0.71969 0.33797 0.0
C1582 C 0.31721 0.69733 0.32871 0.0
C1583 C 0.32836 0.67242 0.33456 0.0
C1584 C 0.30877 0.65146 0.32534 0.0
C1585 C 0.27769 0.65517 0.3104 0.0
C1586 C 0.26612 0.67985 0.30467 0.0
C1587 C 0.2857 0.70087 0.3138 0.0
H1588 H 0.26255 0.63893 0.30328 0.0
H1589 H 0.45417 0.84659 0.3837 0.0
H1590 H 0.19972 0.66136 0.87554 0.0
H1591 H 0.16203 0.69455 0.8562 0.0
H1592 H 0.22437 0.7523 0.89323 0.0
H1593 H 0.26326 0.71906 0.91192 0.0
H1594 H 0.13647 0.75829 0.88865 0.0
H1595 H 0.256 0.74431 0.84588 0.0
H1596 H 0.30405 0.71716 0.82627 0.0
H1597 H 0.21254 0.69193 0.78196 0.0
H1598 H 0.16374 0.71859 0.80159 0.0
H1599 H 0.08073 0.86533 0.82551 0.0
H1600 H 0.11856 0.83346 0.84607 0.0
H1601 H 0.08976 0.77718 0.79647 0.0
H1602 H 0.05393 0.80958 0.77523 0.0
H1603 H 0.16105 0.77006 0.80819 0.0
H1604 H 0.04103 0.78182 0.84927 0.0
H1605 H 0.98946 0.80626 0.86889 0.0
H1606 H 0.07582 0.83234 0.91593 0.0
H1607 H 0.12801 0.80832 0.89645 0.0
C1608 C 0.2053 0.68115 0.87947 0.0
C1609 C 0.23452 0.68778 0.89499 0.0
C1610 C 0.18372 0.70003 0.86855 0.0
C1611 C 0.19063 0.72582 0.87325 0.0
C1612 C 0.2186 0.73247 0.88945 0.0
C1613 C 0.24065 0.71356 0.90012 0.0
C1614 C 0.17003 0.74582 0.8604 0.0
C1615 C 0.14208 0.76116 0.87112 0.0
C1616 C 0.17667 0.7489 0.83743 0.0
C1617 C 0.20614 0.73325 0.82535 0.0
C1618 C 0.24605 0.73282 0.83207 0.0
C1619 C 0.27343 0.71754 0.82094 0.0
C1620 C 0.26134 0.70278 0.80291 0.0
C1621 C 0.22185 0.70334 0.79594 0.0
C1622 C 0.19433 0.71854 0.80706 0.0
C1623 C 0.08269 0.84615 0.81902 0.0
C1624 C 0.06437 0.83976 0.79892 0.0
C1625 C 0.10405 0.82789 0.83083 0.0
C1626 C 0.10626 0.80266 0.82316 0.0
C1627 C 0.08845 0.79644 0.80281 0.0
C1628 C 0.06796 0.8149 0.79069 0.0
C1629 C 0.12705 0.78279 0.83635 0.0
C1630 C 0.15517 0.76735 0.82571 0.0
C1631 C 0.11995 0.7793 0.85933 0.0
C1632 C 0.08849 0.79345 0.87128 0.0
C1633 C 0.04905 0.79288 0.86373 0.0
C1634 C 0.01972 0.80665 0.87482 0.0
C1635 C 0.02939 0.8209 0.89359 0.0
C1636 C 0.06839 0.82132 0.90137 0.0
C1637 C 0.09785 0.80761 0.89033 0.0
H1638 H 0.00664 0.83157 0.90213 0.0
H1639 H 0.28258 0.69096 0.79432 0.0
loop_
_geom_bond_atom_site_label_1
_geom_bond_atom_site_label_2
_geom_bond_distance
_geom_bond_site_symmetry_2
_ccdc_geom_bond_type
C0 N1 1.317 . S
C0 N2 1.348 . S
C0 C3 1.485 . S
N1 C0 1.317 . S
N1 N5 1.370 . S
N2 C0 1.348 . S
N2 C4 1.346 . S
C3 C0 1.485 . S
C3 H7 0.960 . S
C3 H8 0.961 . S
C3 H9 0.960 . S
C4 N2 1.346 . S
C4 N5 1.307 . S
C4 C6 1.486 . S
N5 N1 1.370 . S
N5 C4 1.307 . S
C6 C4 1.486 . S
C6 H10 0.960 . S
C6 H11 0.960 . S
C6 H12 0.959 . S
H7 C3 0.960 . S
H8 C3 0.961 . S
H9 C3 0.960 . S
H10 C6 0.960 . S
H11 C6 0.960 . S
H12 C6 0.959 . S
C13 N14 1.317 . S
C13 N15 1.348 . S
C13 C16 1.485 . S
N14 C13 1.317 . S
N14 N18 1.370 . S
N15 C13 1.348 . S
N15 C17 1.346 . S
C16 C13 1.485 . S
C16 H20 0.960 . S
C16 H21 0.961 . S
C16 H22 0.960 . S
C17 N15 1.346 . S
C17 N18 1.307 . S
C17 C19 1.486 . S
N18 N14 1.370 . S
N18 C17 1.307 . S
C19 C17 1.486 . S
C19 H23 0.960 . S
C19 H24 0.960 . S
C19 H25 0.959 . S
H20 C16 0.960 . S
H21 C16 0.961 . S
H22 C16 0.960 . S
H23 C19 0.960 . S
H24 C19 0.960 . S
H25 C19 0.959 . S
C26 N27 1.317 . S
C26 N28 1.348 . S
C26 C29 1.485 . S
N27 C26 1.317 . S
N27 N31 1.370 . S
N28 C26 1.348 . S
N28 C30 1.346 . S
C29 C26 1.485 . S
C29 H33 0.960 . S
C29 H34 0.961 . S
C29 H35 0.960 . S
C30 N28 1.346 . S
C30 N31 1.307 . S
C30 C32 1.486 . S
N31 N27 1.370 . S
N31 C30 1.307 . S
C32 C30 1.486 . S
C32 H36 0.960 . S
C32 H37 0.960 . S
C32 H38 0.959 . S
H33 C29 0.960 . S
H34 C29 0.961 . S
H35 C29 0.960 . S
H36 C32 0.960 . S
H37 C32 0.960 . S
H38 C32 0.959 . S
C39 N40 1.317 . S
C39 N41 1.348 . S
C39 C42 1.485 . S
N40 C39 1.317 . S
N40 N44 1.370 . S
N41 C39 1.348 . S
N41 C43 1.346 . S
C42 C39 1.485 . S
C42 H46 0.960 . S
C42 H47 0.961 . S
C42 H48 0.960 . S
C43 N41 1.346 . S
C43 N44 1.307 . S
C43 C45 1.486 . S
N44 N40 1.370 . S
N44 C43 1.307 . S
C45 C43 1.486 . S
C45 H49 0.960 . S
C45 H50 0.960 . S
C45 H51 0.959 . S
H46 C42 0.960 . S
H47 C42 0.961 . S
H48 C42 0.960 . S
H49 C45 0.960 . S
H50 C45 0.960 . S
H51 C45 0.959 . S
C52 N53 1.317 . S
C52 N54 1.348 . S
C52 C55 1.485 . S
N53 C52 1.317 . S
N53 N57 1.370 . S
N54 C52 1.348 . S
N54 C56 1.346 . S
C55 C52 1.485 . S
C55 H59 0.960 . S
C55 H60 0.961 . S
C55 H61 0.960 . S
C56 N54 1.346 . S
C56 N57 1.307 . S
C56 C58 1.486 . S
N57 N53 1.370 . S
N57 C56 1.307 . S
C58 C56 1.486 . S
C58 H62 0.960 . S
C58 H63 0.960 . S
C58 H64 0.959 . S
H59 C55 0.960 . S
H60 C55 0.961 . S
H61 C55 0.960 . S
H62 C58 0.960 . S
H63 C58 0.960 . S
H64 C58 0.959 . S
C65 N66 1.317 . S
C65 N67 1.348 . S
C65 C68 1.485 . S
N66 C65 1.317 . S
N66 N70 1.370 . S
N67 C65 1.348 . S
N67 C69 1.346 . S
C68 C65 1.485 . S
C68 H72 0.960 . S
C68 H73 0.961 . S
C68 H74 0.960 . S
C69 N67 1.346 . S
C69 N70 1.307 . S
C69 C71 1.486 . S
N70 N66 1.370 . S
N70 C69 1.307 . S
C71 C69 1.486 . S
C71 H75 0.960 . S
C71 H76 0.960 . S
C71 H77 0.959 . S
H72 C68 0.960 . S
H73 C68 0.961 . S
H74 C68 0.960 . S
H75 C71 0.960 . S
H76 C71 0.960 . S
H77 C71 0.959 . S
C78 N79 1.317 . S
C78 N80 1.348 . S
C78 C81 1.485 . S
N79 C78 1.317 . S
N79 N83 1.370 . S
N80 C78 1.348 . S
N80 C82 1.346 . S
C81 C78 1.485 . S
C81 H85 0.960 . S
C81 H86 0.961 . S
C81 H87 0.960 . S
C82 N80 1.346 . S
C82 N83 1.307 . S
C82 C84 1.486 . S
N83 N79 1.370 . S
N83 C82 1.307 . S
C84 C82 1.486 . S
C84 H88 0.960 . S
C84 H89 0.960 . S
C84 H90 0.959 . S
H85 C81 0.960 . S
H86 C81 0.961 . S
H87 C81 0.960 . S
H88 C84 0.960 . S
H89 C84 0.960 . S
H90 C84 0.959 . S
C91 N92 1.317 . S
C91 N93 1.348 . S
C91 C94 1.485 . S
N92 C91 1.317 . S
N92 N96 1.370 . S
N93 C91 1.348 . S
N93 C95 1.346 . S
C94 C91 1.485 . S
C94 H98 0.960 . S
C94 H99 0.961 . S
C94 H100 0.960 . S
C95 N93 1.346 . S
C95 N96 1.307 . S
C95 C97 1.486 . S
N96 N92 1.370 . S
N96 C95 1.307 . S
C97 C95 1.486 . S
C97 H101 0.960 . S
C97 H102 0.960 . S
C97 H103 0.959 . S
H98 C94 0.960 . S
H99 C94 0.961 . S
H100 C94 0.960 . S
H101 C97 0.960 . S
H102 C97 0.960 . S
H103 C97 0.959 . S
Eu104 N133 2.600 . S
Eu104 N139 2.562 . S
Eu104 O148 2.462 . S
Eu104 O149 2.373 . S
Eu104 O151 2.432 . S
Eu104 O152 2.291 . S
Eu104 O156 2.335 . S
Eu104 O159 2.372 . S
Eu104 C168 2.787 . S
C105 N106 1.365 . S
C105 C108 1.405 . S
C105 C112 1.448 . S
N106 C105 1.365 . S
N106 C109 1.319 . S
N106 Eu115 2.600 . S
C107 C109 1.397 . S
C107 C110 1.367 . S
C107 H127 0.931 . S
C108 C105 1.405 . S
C108 C110 1.403 . S
C108 C114 1.439 . S
C109 N106 1.319 . S
C109 C107 1.397 . S
C109 H120 0.930 . S
C110 C107 1.367 . S
C110 C108 1.403 . S
C110 H131 0.929 . S
C111 C112 1.430 . S
C111 C113 1.387 . S
C111 C117 1.404 . S
C112 C105 1.448 . S
C112 C111 1.430 . S
C112 N116 1.351 . S
C113 C111 1.387 . S
C113 C114 1.374 . S
C113 H128 0.931 . S
C114 C108 1.439 . S
C114 C113 1.374 . S
C114 H129 0.931 . S
Eu115 N106 2.600 . S
Eu115 N116 2.562 . S
Eu115 O150 2.335 1_655 S
Eu115 O153 2.372 . S
Eu115 O154 2.462 . S
Eu115 O155 2.373 . S
Eu115 O157 2.432 . S
Eu115 O158 2.291 1_655 S
Eu115 C179 2.787 . S
N116 C112 1.351 . S
N116 Eu115 2.562 . S
N116 C118 1.325 . S
C117 C111 1.404 . S
C117 C119 1.366 . S
C117 H125 0.930 . S
C118 N116 1.325 . S
C118 C119 1.416 . S
C118 H124 0.929 . S
C119 C117 1.366 . S
C119 C118 1.416 . S
C119 H121 0.930 . S
H120 C109 0.930 . S
H121 C119 0.930 . S
H122 C137 0.930 . S
H123 C144 0.930 . S
H124 C118 0.929 . S
H125 C117 0.930 . S
H126 C140 0.929 . S
H127 C107 0.931 . S
H128 C113 0.931 . S
H129 C114 0.931 . S
H130 C135 0.931 . S
H131 C110 0.929 . S
H132 C143 0.930 . S
N133 Eu104 2.600 . S
N133 C134 1.365 . S
N133 C137 1.319 . S
C134 N133 1.365 . S
C134 C136 1.405 . S
C134 C142 1.448 . S
C135 H130 0.931 . S
C135 C137 1.397 . S
C135 C138 1.367 . S
C136 C134 1.405 . S
C136 C138 1.403 . S
C136 C169 1.439 . S
C137 H122 0.930 . S
C137 N133 1.319 . S
C137 C135 1.397 . S
C138 C135 1.367 . S
C138 C136 1.403 . S
C138 H145 0.929 . S
N139 Eu104 2.562 . S
N139 C140 1.325 . S
N139 C142 1.351 . S
C140 H126 0.929 . S
C140 N139 1.325 . S
C140 C144 1.416 . S
C141 C142 1.430 . S
C141 C143 1.404 . S
C141 C170 1.387 . S
C142 C134 1.448 . S
C142 N139 1.351 . S
C142 C141 1.430 . S
C143 H132 0.930 . S
C143 C141 1.404 . S
C143 C144 1.366 . S
C144 H123 0.930 . S
C144 C140 1.416 . S
C144 C143 1.366 . S
H145 C138 0.929 . S
H146 C169 0.931 . S
H147 C170 0.931 . S
O148 Eu104 2.462 . S
O148 C168 1.252 . S
O149 Eu104 2.373 . S
O149 C160 1.249 . S
O150 Eu115 2.335 1_455 S
O150 C160 1.264 . S
O151 Eu104 2.432 . S
O151 C168 1.268 . S
O152 Eu104 2.291 . S
O152 C167 1.255 1_455 S
O153 Eu115 2.372 . S
O153 C167 1.257 . S
O154 Eu115 2.462 . S
O154 C179 1.252 . S
O155 Eu115 2.373 . S
O155 C171 1.249 . S
O156 Eu104 2.335 . S
O156 C171 1.264 1_455 S
O157 Eu115 2.432 . S
O157 C179 1.268 . S
O158 Eu115 2.291 1_455 S
O158 C178 1.255 . S
O159 Eu104 2.372 . S
O159 C178 1.257 . S
C160 O149 1.249 . S
C160 O150 1.264 . S
C161 C164 1.382 . S
C161 C166 1.390 . S
C161 C168 1.506 . S
C162 C163 1.398 . S
C162 C166 1.392 . S
C163 C162 1.398 . S
C163 C165 1.372 . S
C163 H180 0.931 . S
C164 C161 1.382 . S
C164 C165 1.390 . S
C164 H181 0.931 . S
C165 C163 1.372 . S
C165 C164 1.390 . S
C165 H182 0.929 . S
C166 C161 1.390 . S
C166 C162 1.392 . S
C166 H183 0.930 . S
C167 O152 1.255 1_655 S
C167 O153 1.257 . S
C168 Eu104 2.787 . S
C168 O148 1.252 . S
C168 O151 1.268 . S
C168 C161 1.506 . S
C169 C136 1.439 . S
C169 H146 0.931 . S
C169 C170 1.374 . S
C170 C141 1.387 . S
C170 H147 0.931 . S
C170 C169 1.374 . S
C171 O155 1.249 . S
C171 O156 1.264 1_655 S
C172 C175 1.382 . S
C172 C176 1.390 . S
C172 C179 1.506 . S
C173 C174 1.398 . S
C173 C176 1.392 . S
C174 C173 1.398 . S
C174 C177 1.372 . S
C174 H184 0.931 . S
C175 C172 1.382 . S
C175 C177 1.390 . S
C175 H185 0.931 . S
C176 C172 1.390 . S
C176 C173 1.392 . S
C176 H186 0.930 . S
C177 C174 1.372 . S
C177 C175 1.390 . S
C177 H187 0.929 . S
C178 O158 1.255 . S
C178 O159 1.257 . S
C179 Eu115 2.787 . S
C179 O154 1.252 . S
C179 O157 1.268 . S
C179 C172 1.506 . S
H180 C163 0.931 . S
H181 C164 0.931 . S
H182 C165 0.929 . S
H183 C166 0.930 . S
H184 C174 0.931 . S
H185 C175 0.931 . S
H186 C176 0.930 . S
H187 C177 0.929 . S
Eu188 N217 2.600 . S
Eu188 N223 2.562 . S
Eu188 O232 2.462 . S
Eu188 O233 2.373 . S
Eu188 O235 2.432 . S
Eu188 O236 2.291 . S
Eu188 O240 2.335 . S
Eu188 O243 2.372 . S
Eu188 C252 2.787 . S
C189 N190 1.365 . S
C189 C192 1.405 . S
C189 C196 1.448 . S
N190 C189 1.365 . S
N190 C193 1.319 . S
N190 Eu199 2.600 . S
C191 C193 1.397 . S
C191 C194 1.367 . S
C191 H211 0.931 . S
C192 C189 1.405 . S
C192 C194 1.403 . S
C192 C198 1.439 . S
C193 N190 1.319 . S
C193 C191 1.397 . S
C193 H204 0.930 . S
C194 C191 1.367 . S
C194 C192 1.403 . S
C194 H215 0.929 . S
C195 C196 1.430 . S
C195 C197 1.387 . S
C195 C201 1.404 . S
C196 C189 1.448 . S
C196 C195 1.430 . S
C196 N200 1.351 . S
C197 C195 1.387 . S
C197 C198 1.374 . S
C197 H212 0.931 . S
C198 C192 1.439 . S
C198 C197 1.374 . S
C198 H213 0.931 . S
Eu199 N190 2.600 . S
Eu199 N200 2.562 . S
Eu199 O234 2.335 . S
Eu199 O237 2.372 . S
Eu199 O238 2.462 . S
Eu199 O239 2.373 . S
Eu199 O241 2.432 . S
Eu199 O242 2.291 . S
Eu199 C263 2.787 . S
N200 C196 1.351 . S
N200 Eu199 2.562 . S
N200 C202 1.325 . S
C201 C195 1.404 . S
C201 C203 1.366 . S
C201 H209 0.930 . S
C202 N200 1.325 . S
C202 C203 1.416 . S
C202 H208 0.929 . S
C203 C201 1.366 . S
C203 C202 1.416 . S
C203 H205 0.930 . S
H204 C193 0.930 . S
H205 C203 0.930 . S
H206 C221 0.930 . S
H207 C228 0.930 . S
H208 C202 0.929 . S
H209 C201 0.930 . S
H210 C224 0.929 . S
H211 C191 0.931 . S
H212 C197 0.931 . S
H213 C198 0.931 . S
H214 C219 0.931 . S
H215 C194 0.929 . S
H216 C227 0.930 . S
N217 Eu188 2.600 . S
N217 C218 1.365 . S
N217 C221 1.319 . S
C218 N217 1.365 . S
C218 C220 1.405 . S
C218 C226 1.448 . S
C219 H214 0.931 . S
C219 C221 1.397 . S
C219 C222 1.367 . S
C220 C218 1.405 . S
C220 C222 1.403 . S
C220 C253 1.439 . S
C221 H206 0.930 . S
C221 N217 1.319 . S
C221 C219 1.397 . S
C222 C219 1.367 . S
C222 C220 1.403 . S
C222 H229 0.929 . S
N223 Eu188 2.562 . S
N223 C224 1.325 . S
N223 C226 1.351 . S
C224 H210 0.929 . S
C224 N223 1.325 . S
C224 C228 1.416 . S
C225 C226 1.430 . S
C225 C227 1.404 . S
C225 C254 1.387 . S
C226 C218 1.448 . S
C226 N223 1.351 . S
C226 C225 1.430 . S
C227 H216 0.930 . S
C227 C225 1.404 . S
C227 C228 1.366 . S
C228 H207 0.930 . S
C228 C224 1.416 . S
C228 C227 1.366 . S
H229 C222 0.929 . S
H230 C253 0.931 . S
H231 C254 0.931 . S
O232 Eu188 2.462 . S
O232 C252 1.252 . S
O233 Eu188 2.373 . S
O233 C244 1.249 . S
O234 Eu199 2.335 . S
O234 C244 1.264 . S
O235 Eu188 2.432 . S
O235 C252 1.268 . S
O236 Eu188 2.291 . S
O236 C251 1.255 . S
O237 Eu199 2.372 . S
O237 C251 1.257 . S
O238 Eu199 2.462 . S
O238 C263 1.252 . S
O239 Eu199 2.373 . S
O239 C255 1.249 . S
O240 Eu188 2.335 . S
O240 C255 1.264 . S
O241 Eu199 2.432 . S
O241 C263 1.268 . S
O242 Eu199 2.291 . S
O242 C262 1.255 . S
O243 Eu188 2.372 . S
O243 C262 1.257 . S
C244 O233 1.249 . S
C244 O234 1.264 . S
C245 C248 1.382 . S
C245 C250 1.390 . S
C245 C252 1.506 . S
C246 C247 1.398 . S
C246 C250 1.392 . S
C247 C246 1.398 . S
C247 C249 1.372 . S
C247 H264 0.931 . S
C248 C245 1.382 . S
C248 C249 1.390 . S
C248 H265 0.931 . S
C249 C247 1.372 . S
C249 C248 1.390 . S
C249 H266 0.929 . S
C250 C245 1.390 . S
C250 C246 1.392 . S
C250 H267 0.930 . S
C251 O236 1.255 . S
C251 O237 1.257 . S
C252 Eu188 2.787 . S
C252 O232 1.252 . S
C252 O235 1.268 . S
C252 C245 1.506 . S
C253 C220 1.439 . S
C253 H230 0.931 . S
C253 C254 1.374 . S
C254 C225 1.387 . S
C254 H231 0.931 . S
C254 C253 1.374 . S
C255 O239 1.249 . S
C255 O240 1.264 . S
C256 C259 1.382 . S
C256 C260 1.390 . S
C256 C263 1.506 . S
C257 C258 1.398 . S
C257 C260 1.392 . S
C258 C257 1.398 . S
C258 C261 1.372 . S
C258 H268 0.931 . S
C259 C256 1.382 . S
C259 C261 1.390 . S
C259 H269 0.931 . S
C260 C256 1.390 . S
C260 C257 1.392 . S
C260 H270 0.930 . S
C261 C258 1.372 . S
C261 C259 1.390 . S
C261 H271 0.929 . S
C262 O242 1.255 . S
C262 O243 1.257 . S
C263 Eu199 2.787 . S
C263 O238 1.252 . S
C263 O241 1.268 . S
C263 C256 1.506 . S
H264 C247 0.931 . S
H265 C248 0.931 . S
H266 C249 0.929 . S
H267 C250 0.930 . S
H268 C258 0.931 . S
H269 C259 0.931 . S
H270 C260 0.930 . S
H271 C261 0.929 . S
Eu272 N301 2.600 . S
Eu272 N307 2.562 . S
Eu272 O316 2.462 . S
Eu272 O317 2.373 . S
Eu272 O319 2.432 . S
Eu272 O320 2.291 . S
Eu272 O324 2.335 . S
Eu272 O327 2.372 . S
Eu272 C336 2.787 . S
C273 N274 1.365 . S
C273 C276 1.405 . S
C273 C280 1.448 . S
N274 C273 1.365 . S
N274 C277 1.319 . S
N274 Eu283 2.600 . S
C275 C277 1.397 . S
C275 C278 1.367 . S
C275 H295 0.931 . S
C276 C273 1.405 . S
C276 C278 1.403 . S
C276 C282 1.439 . S
C277 N274 1.319 . S
C277 C275 1.397 . S
C277 H288 0.930 . S
C278 C275 1.367 . S
C278 C276 1.403 . S
C278 H299 0.929 . S
C279 C280 1.430 . S
C279 C281 1.387 . S
C279 C285 1.404 . S
C280 C273 1.448 . S
C280 C279 1.430 . S
C280 N284 1.351 . S
C281 C279 1.387 . S
C281 C282 1.374 . S
C281 H296 0.931 . S
C282 C276 1.439 . S
C282 C281 1.374 . S
C282 H297 0.931 . S
Eu283 N274 2.600 . S
Eu283 N284 2.562 . S
Eu283 O318 2.335 1_655 S
Eu283 O321 2.372 . S
Eu283 O322 2.462 . S
Eu283 O323 2.373 . S
Eu283 O325 2.432 . S
Eu283 O326 2.291 1_655 S
Eu283 C347 2.787 . S
N284 C280 1.351 . S
N284 Eu283 2.562 . S
N284 C286 1.325 . S
C285 C279 1.404 . S
C285 C287 1.366 . S
C285 H293 0.930 . S
C286 N284 1.325 . S
C286 C287 1.416 . S
C286 H292 0.929 . S
C287 C285 1.366 . S
C287 C286 1.416 . S
C287 H289 0.930 . S
H288 C277 0.930 . S
H289 C287 0.930 . S
H290 C305 0.930 . S
H291 C312 0.930 . S
H292 C286 0.929 . S
H293 C285 0.930 . S
H294 C308 0.929 . S
H295 C275 0.931 . S
H296 C281 0.931 . S
H297 C282 0.931 . S
H298 C303 0.931 . S
H299 C278 0.929 . S
H300 C311 0.930 . S
N301 Eu272 2.600 . S
N301 C302 1.365 . S
N301 C305 1.319 . S
C302 N301 1.365 . S
C302 C304 1.405 . S
C302 C310 1.448 . S
C303 H298 0.931 . S
C303 C305 1.397 . S
C303 C306 1.367 . S
C304 C302 1.405 . S
C304 C306 1.403 . S
C304 C337 1.439 . S
C305 H290 0.930 . S
C305 N301 1.319 . S
C305 C303 1.397 . S
C306 C303 1.367 . S
C306 C304 1.403 . S
C306 H313 0.929 . S
N307 Eu272 2.562 . S
N307 C308 1.325 . S
N307 C310 1.351 . S
C308 H294 0.929 . S
C308 N307 1.325 . S
C308 C312 1.416 . S
C309 C310 1.430 . S
C309 C311 1.404 . S
C309 C338 1.387 . S
C310 C302 1.448 . S
C310 N307 1.351 . S
C310 C309 1.430 . S
C311 H300 0.930 . S
C311 C309 1.404 . S
C311 C312 1.366 . S
C312 H291 0.930 . S
C312 C308 1.416 . S
C312 C311 1.366 . S
H313 C306 0.929 . S
H314 C337 0.931 . S
H315 C338 0.931 . S
O316 Eu272 2.462 . S
O316 C336 1.252 . S
O317 Eu272 2.373 . S
O317 C328 1.249 . S
O318 Eu283 2.335 1_455 S
O318 C328 1.264 . S
O319 Eu272 2.432 . S
O319 C336 1.268 . S
O320 Eu272 2.291 . S
O320 C335 1.255 1_455 S
O321 Eu283 2.372 . S
O321 C335 1.257 . S
O322 Eu283 2.462 . S
O322 C347 1.252 . S
O323 Eu283 2.373 . S
O323 C339 1.249 . S
O324 Eu272 2.335 . S
O324 C339 1.264 1_455 S
O325 Eu283 2.432 . S
O325 C347 1.268 . S
O326 Eu283 2.291 1_455 S
O326 C346 1.255 . S
O327 Eu272 2.372 . S
O327 C346 1.257 . S
C328 O317 1.249 . S
C328 O318 1.264 . S
C329 C332 1.382 . S
C329 C334 1.390 . S
C329 C336 1.506 . S
C330 C331 1.398 . S
C330 C334 1.392 . S
C331 C330 1.398 . S
C331 C333 1.372 . S
C331 H348 0.931 . S
C332 C329 1.382 . S
C332 C333 1.390 . S
C332 H349 0.931 . S
C333 C331 1.372 . S
C333 C332 1.390 . S
C333 H350 0.929 . S
C334 C329 1.390 . S
C334 C330 1.392 . S
C334 H351 0.930 . S
C335 O320 1.255 1_655 S
C335 O321 1.257 . S
C336 Eu272 2.787 . S
C336 O316 1.252 . S
C336 O319 1.268 . S
C336 C329 1.506 . S
C337 C304 1.439 . S
C337 H314 0.931 . S
C337 C338 1.374 . S
C338 C309 1.387 . S
C338 H315 0.931 . S
C338 C337 1.374 . S
C339 O323 1.249 . S
C339 O324 1.264 1_655 S
C340 C343 1.382 . S
C340 C344 1.390 . S
C340 C347 1.506 . S
C341 C342 1.398 . S
C341 C344 1.392 . S
C342 C341 1.398 . S
C342 C345 1.372 . S
C342 H352 0.931 . S
C343 C340 1.382 . S
C343 C345 1.390 . S
C343 H353 0.931 . S
C344 C340 1.390 . S
C344 C341 1.392 . S
C344 H354 0.930 . S
C345 C342 1.372 . S
C345 C343 1.390 . S
C345 H355 0.929 . S
C346 O326 1.255 . S
C346 O327 1.257 . S
C347 Eu283 2.787 . S
C347 O322 1.252 . S
C347 O325 1.268 . S
C347 C340 1.506 . S
H348 C331 0.931 . S
H349 C332 0.931 . S
H350 C333 0.929 . S
H351 C334 0.930 . S
H352 C342 0.931 . S
H353 C343 0.931 . S
H354 C344 0.930 . S
H355 C345 0.929 . S
Eu356 N385 2.600 . S
Eu356 N391 2.562 . S
Eu356 O400 2.462 . S
Eu356 O401 2.373 . S
Eu356 O403 2.432 . S
Eu356 O404 2.291 . S
Eu356 O408 2.335 . S
Eu356 O411 2.372 . S
Eu356 C420 2.787 . S
C357 N358 1.365 . S
C357 C360 1.405 . S
C357 C364 1.448 . S
N358 C357 1.365 . S
N358 C361 1.319 . S
N358 Eu367 2.600 . S
C359 C361 1.397 . S
C359 C362 1.367 . S
C359 H379 0.931 . S
C360 C357 1.405 . S
C360 C362 1.403 . S
C360 C366 1.439 . S
C361 N358 1.319 . S
C361 C359 1.397 . S
C361 H372 0.930 . S
C362 C359 1.367 . S
C362 C360 1.403 . S
C362 H383 0.929 . S
C363 C364 1.430 . S
C363 C365 1.387 . S
C363 C369 1.404 . S
C364 C357 1.448 . S
C364 C363 1.430 . S
C364 N368 1.351 . S
C365 C363 1.387 . S
C365 C366 1.374 . S
C365 H380 0.931 . S
C366 C360 1.439 . S
C366 C365 1.374 . S
C366 H381 0.931 . S
Eu367 N358 2.600 . S
Eu367 N368 2.562 . S
Eu367 O402 2.335 . S
Eu367 O405 2.372 . S
Eu367 O406 2.462 . S
Eu367 O407 2.373 . S
Eu367 O409 2.432 . S
Eu367 O410 2.291 . S
Eu367 C431 2.787 . S
N368 C364 1.351 . S
N368 Eu367 2.562 . S
N368 C370 1.325 . S
C369 C363 1.404 . S
C369 C371 1.366 . S
C369 H377 0.930 . S
C370 N368 1.325 . S
C370 C371 1.416 . S
C370 H376 0.929 . S
C371 C369 1.366 . S
C371 C370 1.416 . S
C371 H373 0.930 . S
H372 C361 0.930 . S
H373 C371 0.930 . S
H374 C389 0.930 . S
H375 C396 0.930 . S
H376 C370 0.929 . S
H377 C369 0.930 . S
H378 C392 0.929 . S
H379 C359 0.931 . S
H380 C365 0.931 . S
H381 C366 0.931 . S
H382 C387 0.931 . S
H383 C362 0.929 . S
H384 C395 0.930 . S
N385 Eu356 2.600 . S
N385 C386 1.365 . S
N385 C389 1.319 . S
C386 N385 1.365 . S
C386 C388 1.405 . S
C386 C394 1.448 . S
C387 H382 0.931 . S
C387 C389 1.397 . S
C387 C390 1.367 . S
C388 C386 1.405 . S
C388 C390 1.403 . S
C388 C421 1.439 . S
C389 H374 0.930 . S
C389 N385 1.319 . S
C389 C387 1.397 . S
C390 C387 1.367 . S
C390 C388 1.403 . S
C390 H397 0.929 . S
N391 Eu356 2.562 . S
N391 C392 1.325 . S
N391 C394 1.351 . S
C392 H378 0.929 . S
C392 N391 1.325 . S
C392 C396 1.416 . S
C393 C394 1.430 . S
C393 C395 1.404 . S
C393 C422 1.387 . S
C394 C386 1.448 . S
C394 N391 1.351 . S
C394 C393 1.430 . S
C395 H384 0.930 . S
C395 C393 1.404 . S
C395 C396 1.366 . S
C396 H375 0.930 . S
C396 C392 1.416 . S
C396 C395 1.366 . S
H397 C390 0.929 . S
H398 C421 0.931 . S
H399 C422 0.931 . S
O400 Eu356 2.462 . S
O400 C420 1.252 . S
O401 Eu356 2.373 . S
O401 C412 1.249 . S
O402 Eu367 2.335 . S
O402 C412 1.264 . S
O403 Eu356 2.432 . S
O403 C420 1.268 . S
O404 Eu356 2.291 . S
O404 C419 1.255 . S
O405 Eu367 2.372 . S
O405 C419 1.257 . S
O406 Eu367 2.462 . S
O406 C431 1.252 . S
O407 Eu367 2.373 . S
O407 C423 1.249 . S
O408 Eu356 2.335 . S
O408 C423 1.264 . S
O409 Eu367 2.432 . S
O409 C431 1.268 . S
O410 Eu367 2.291 . S
O410 C430 1.255 . S
O411 Eu356 2.372 . S
O411 C430 1.257 . S
C412 O401 1.249 . S
C412 O402 1.264 . S
C413 C416 1.382 . S
C413 C418 1.390 . S
C413 C420 1.506 . S
C414 C415 1.398 . S
C414 C418 1.392 . S
C415 C414 1.398 . S
C415 C417 1.372 . S
C415 H432 0.931 . S
C416 C413 1.382 . S
C416 C417 1.390 . S
C416 H433 0.931 . S
C417 C415 1.372 . S
C417 C416 1.390 . S
C417 H434 0.929 . S
C418 C413 1.390 . S
C418 C414 1.392 . S
C418 H435 0.930 . S
C419 O404 1.255 . S
C419 O405 1.257 . S
C420 Eu356 2.787 . S
C420 O400 1.252 . S
C420 O403 1.268 . S
C420 C413 1.506 . S
C421 C388 1.439 . S
C421 H398 0.931 . S
C421 C422 1.374 . S
C422 C393 1.387 . S
C422 H399 0.931 . S
C422 C421 1.374 . S
C423 O407 1.249 . S
C423 O408 1.264 . S
C424 C427 1.382 . S
C424 C428 1.390 . S
C424 C431 1.506 . S
C425 C426 1.398 . S
C425 C428 1.392 . S
C426 C425 1.398 . S
C426 C429 1.372 . S
C426 H436 0.931 . S
C427 C424 1.382 . S
C427 C429 1.390 . S
C427 H437 0.931 . S
C428 C424 1.390 . S
C428 C425 1.392 . S
C428 H438 0.930 . S
C429 C426 1.372 . S
C429 C427 1.390 . S
C429 H439 0.929 . S
C430 O410 1.255 . S
C430 O411 1.257 . S
C431 Eu367 2.787 . S
C431 O406 1.252 . S
C431 O409 1.268 . S
C431 C424 1.506 . S
H432 C415 0.931 . S
H433 C416 0.931 . S
H434 C417 0.929 . S
H435 C418 0.930 . S
H436 C426 0.931 . S
H437 C427 0.931 . S
H438 C428 0.930 . S
H439 C429 0.929 . S
H440 C458 0.951 . S
H441 C460 0.951 . S
H442 C462 0.950 . S
H443 C463 0.950 . S
H444 C465 0.950 . S
H445 C468 0.950 . S
H446 C469 0.950 . S
H447 C471 0.950 . S
H448 C472 0.950 . S
H449 C473 0.951 . S
H450 C475 0.951 1_565 S
H451 C477 0.950 . S
H452 C478 0.950 . S
H453 C480 0.950 1_545 S
H454 C483 0.950 . S
H455 C484 0.950 . S
H456 C486 0.950 . S
H457 C487 0.950 . S
C458 H440 0.951 . S
C458 C459 1.366 . S
C458 C460 1.388 . S
C459 C458 1.366 . S
C459 C463 1.385 . S
C460 H441 0.951 . S
C460 C458 1.388 . S
C460 C461 1.366 . S
C461 C460 1.366 . S
C461 C462 1.414 . S
C461 C464 1.499 . S
C462 H442 0.950 . S
C462 C461 1.414 . S
C462 C463 1.374 . S
C463 H443 0.950 . S
C463 C459 1.385 . S
C463 C462 1.374 . S
C464 C461 1.499 . S
C464 C465 1.373 . S
C464 C466 1.389 . S
C465 H444 0.950 . S
C465 C464 1.373 . S
C465 C481 1.377 . S
C466 C464 1.389 . S
C466 C467 1.524 . S
C466 C480 1.377 . S
C467 C466 1.524 . S
C467 C468 1.397 . S
C467 C472 1.363 1_565 S
C468 H445 0.950 . S
C468 C467 1.397 . S
C468 C469 1.334 . S
C469 H446 0.950 . S
C469 C468 1.334 . S
C469 C470 1.287 1_565 S
C470 C469 1.287 1_545 S
C470 C471 1.524 . S
C470 H489 0.913 . S
C471 H447 0.950 . S
C471 C470 1.524 . S
C471 C472 1.415 . S
C472 H448 0.950 . S
C472 C467 1.363 1_545 S
C472 C471 1.415 . S
C473 H449 0.951 . S
C473 C474 1.366 . S
C473 C475 1.388 . S
C474 C473 1.366 . S
C474 C478 1.385 . S
C475 H450 0.951 1_545 S
C475 C473 1.388 . S
C475 C476 1.366 . S
C476 C475 1.366 . S
C476 C477 1.414 . S
C476 C479 1.499 1_545 S
C477 H451 0.950 . S
C477 C476 1.414 . S
C477 C478 1.374 . S
C478 H452 0.950 . S
C478 C474 1.385 . S
C478 C477 1.374 . S
C479 C476 1.499 1_565 S
C479 C480 1.373 . S
C479 C481 1.389 . S
C480 H453 0.950 1_565 S
C480 C466 1.377 . S
C480 C479 1.373 . S
C481 C465 1.377 . S
C481 C479 1.389 . S
C481 C482 1.524 . S
C482 C481 1.524 . S
C482 C483 1.397 . S
C482 C487 1.363 . S
C483 H454 0.950 . S
C483 C482 1.397 . S
C483 C484 1.334 . S
C484 H455 0.950 . S
C484 C483 1.334 . S
C484 C485 1.287 . S
C485 C484 1.287 . S
C485 C486 1.524 . S
C485 H488 0.999 . S
C486 H456 0.950 . S
C486 C485 1.524 . S
C486 C487 1.415 . S
C487 H457 0.950 . S
C487 C482 1.363 . S
C487 C486 1.415 . S
H488 C485 0.999 . S
H489 C470 0.913 . S
H490 C508 0.951 . S
H491 C510 0.951 . S
H492 C512 0.950 . S
H493 C513 0.950 . S
H494 C515 0.950 . S
H495 C518 0.950 . S
H496 C519 0.950 . S
H497 C521 0.950 . S
H498 C522 0.950 . S
H499 C523 0.951 . S
H500 C525 0.951 . S
H501 C527 0.950 . S
H502 C528 0.950 . S
H503 C530 0.950 . S
H504 C533 0.950 . S
H505 C534 0.950 . S
H506 C536 0.950 . S
H507 C537 0.950 . S
C508 H490 0.951 . S
C508 C509 1.366 . S
C508 C510 1.388 . S
C509 C508 1.366 . S
C509 C513 1.385 . S
C510 H491 0.951 . S
C510 C508 1.388 . S
C510 C511 1.366 . S
C511 C510 1.366 . S
C511 C512 1.414 . S
C511 C514 1.499 . S
C512 H492 0.950 . S
C512 C511 1.414 . S
C512 C513 1.374 . S
C513 H493 0.950 . S
C513 C509 1.385 . S
C513 C512 1.374 . S
C514 C511 1.499 . S
C514 C515 1.373 . S
C514 C516 1.389 . S
C515 H494 0.950 . S
C515 C514 1.373 . S
C515 C531 1.377 . S
C516 C514 1.389 . S
C516 C517 1.524 . S
C516 C530 1.377 . S
C517 C516 1.524 . S
C517 C518 1.397 . S
C517 C522 1.363 . S
C518 H495 0.950 . S
C518 C517 1.397 . S
C518 C519 1.334 . S
C519 H496 0.950 . S
C519 C518 1.334 . S
C519 C520 1.287 . S
C520 C519 1.287 . S
C520 C521 1.524 . S
C520 H539 0.913 . S
C521 H497 0.950 . S
C521 C520 1.524 . S
C521 C522 1.415 . S
C522 H498 0.950 . S
C522 C517 1.363 . S
C522 C521 1.415 . S
C523 H499 0.951 . S
C523 C524 1.366 . S
C523 C525 1.388 . S
C524 C523 1.366 . S
C524 C528 1.385 . S
C525 H500 0.951 . S
C525 C523 1.388 . S
C525 C526 1.366 . S
C526 C525 1.366 . S
C526 C527 1.414 . S
C526 C529 1.499 . S
C527 H501 0.950 . S
C527 C526 1.414 . S
C527 C528 1.374 . S
C528 H502 0.950 . S
C528 C524 1.385 . S
C528 C527 1.374 . S
C529 C526 1.499 . S
C529 C530 1.373 . S
C529 C531 1.389 . S
C530 H503 0.950 . S
C530 C516 1.377 . S
C530 C529 1.373 . S
C531 C515 1.377 . S
C531 C529 1.389 . S
C531 C532 1.524 . S
C532 C531 1.524 . S
C532 C533 1.397 . S
C532 C537 1.363 . S
C533 H504 0.950 . S
C533 C532 1.397 . S
C533 C534 1.334 . S
C534 H505 0.950 . S
C534 C533 1.334 . S
C534 C535 1.287 . S
C535 C534 1.287 . S
C535 C536 1.524 . S
C535 H538 0.999 . S
C536 H506 0.950 . S
C536 C535 1.524 . S
C536 C537 1.415 . S
C537 H507 0.950 . S
C537 C532 1.363 . S
C537 C536 1.415 . S
H538 C535 0.999 . S
H539 C520 0.913 . S
H540 C558 0.951 . S
H541 C560 0.951 . S
H542 C562 0.950 . S
H543 C563 0.950 . S
H544 C565 0.950 . S
H545 C568 0.950 . S
H546 C569 0.950 . S
H547 C571 0.950 . S
H548 C572 0.950 . S
H549 C573 0.951 . S
H550 C575 0.951 . S
H551 C577 0.950 . S
H552 C578 0.950 . S
H553 C580 0.950 . S
H554 C583 0.950 . S
H555 C584 0.950 . S
H556 C586 0.950 . S
H557 C587 0.950 . S
C558 H540 0.951 . S
C558 C559 1.366 . S
C558 C560 1.388 . S
C559 C558 1.366 . S
C559 C563 1.385 . S
C560 H541 0.951 . S
C560 C558 1.388 . S
C560 C561 1.366 . S
C561 C560 1.366 . S
C561 C562 1.414 . S
C561 C564 1.499 . S
C562 H542 0.950 . S
C562 C561 1.414 . S
C562 C563 1.374 . S
C563 H543 0.950 . S
C563 C559 1.385 . S
C563 C562 1.374 . S
C564 C561 1.499 . S
C564 C565 1.373 . S
C564 C566 1.389 . S
C565 H544 0.950 . S
C565 C564 1.373 . S
C565 C581 1.377 . S
C566 C564 1.389 . S
C566 C567 1.524 . S
C566 C580 1.377 . S
C567 C566 1.524 . S
C567 C568 1.397 . S
C567 C572 1.363 . S
C568 H545 0.950 . S
C568 C567 1.397 . S
C568 C569 1.334 . S
C569 H546 0.950 . S
C569 C568 1.334 . S
C569 C570 1.287 . S
C570 C569 1.287 . S
C570 C571 1.524 . S
C570 H589 0.913 . S
C571 H547 0.950 . S
C571 C570 1.524 . S
C571 C572 1.415 . S
C572 H548 0.950 . S
C572 C567 1.363 . S
C572 C571 1.415 . S
C573 H549 0.951 . S
C573 C574 1.366 . S
C573 C575 1.388 . S
C574 C573 1.366 . S
C574 C578 1.385 . S
C575 H550 0.951 . S
C575 C573 1.388 . S
C575 C576 1.366 . S
C576 C575 1.366 . S
C576 C577 1.414 . S
C576 C579 1.499 . S
C577 H551 0.950 . S
C577 C576 1.414 . S
C577 C578 1.374 . S
C578 H552 0.950 . S
C578 C574 1.385 . S
C578 C577 1.374 . S
C579 C576 1.499 . S
C579 C580 1.373 . S
C579 C581 1.389 . S
C580 H553 0.950 . S
C580 C566 1.377 . S
C580 C579 1.373 . S
C581 C565 1.377 . S
C581 C579 1.389 . S
C581 C582 1.524 . S
C582 C581 1.524 . S
C582 C583 1.397 . S
C582 C587 1.363 . S
C583 H554 0.950 . S
C583 C582 1.397 . S
C583 C584 1.334 . S
C584 H555 0.950 . S
C584 C583 1.334 . S
C584 C585 1.287 . S
C585 C584 1.287 . S
C585 C586 1.524 . S
C585 H588 0.999 . S
C586 H556 0.950 . S
C586 C585 1.524 . S
C586 C587 1.415 . S
C587 H557 0.950 . S
C587 C582 1.363 . S
C587 C586 1.415 . S
H588 C585 0.999 . S
H589 C570 0.913 . S
H590 C608 0.951 . S
H591 C610 0.951 . S
H592 C612 0.950 . S
H593 C613 0.950 . S
H594 C615 0.950 . S
H595 C618 0.950 . S
H596 C619 0.950 . S
H597 C621 0.950 . S
H598 C622 0.950 . S
H599 C623 0.951 . S
H600 C625 0.951 . S
H601 C627 0.950 . S
H602 C628 0.950 . S
H603 C630 0.950 1_545 S
H604 C633 0.950 . S
H605 C634 0.950 . S
H606 C636 0.950 . S
H607 C637 0.950 . S
C608 H590 0.951 . S
C608 C609 1.366 . S
C608 C610 1.388 . S
C609 C608 1.366 . S
C609 C613 1.385 . S
C610 H591 0.951 . S
C610 C608 1.388 . S
C610 C611 1.366 . S
C611 C610 1.366 . S
C611 C612 1.414 . S
C611 C614 1.499 . S
C612 H592 0.950 . S
C612 C611 1.414 . S
C612 C613 1.374 . S
C613 H593 0.950 . S
C613 C609 1.385 . S
C613 C612 1.374 . S
C614 C611 1.499 . S
C614 C615 1.373 . S
C614 C616 1.389 . S
C615 H594 0.950 . S
C615 C614 1.373 . S
C615 C631 1.377 . S
C616 C614 1.389 . S
C616 C617 1.524 . S
C616 C630 1.377 . S
C617 C616 1.524 . S
C617 C618 1.397 . S
C617 C622 1.363 . S
C618 H595 0.950 . S
C618 C617 1.397 . S
C618 C619 1.334 . S
C619 H596 0.950 . S
C619 C618 1.334 . S
C619 C620 1.287 1_565 S
C620 C619 1.287 1_545 S
C620 C621 1.524 . S
C620 H639 0.913 . S
C621 H597 0.950 . S
C621 C620 1.524 . S
C621 C622 1.415 1_545 S
C622 H598 0.950 . S
C622 C617 1.363 . S
C622 C621 1.415 1_565 S
C623 H599 0.951 . S
C623 C624 1.366 . S
C623 C625 1.388 . S
C624 C623 1.366 . S
C624 C628 1.385 . S
C625 H600 0.951 . S
C625 C623 1.388 . S
C625 C626 1.366 . S
C626 C625 1.366 . S
C626 C627 1.414 . S
C626 C629 1.499 1_545 S
C627 H601 0.950 . S
C627 C626 1.414 . S
C627 C628 1.374 . S
C628 H602 0.950 . S
C628 C624 1.385 . S
C628 C627 1.374 . S
C629 C626 1.499 1_565 S
C629 C630 1.373 . S
C629 C631 1.389 . S
C630 H603 0.950 1_565 S
C630 C616 1.377 . S
C630 C629 1.373 . S
C631 C615 1.377 . S
C631 C629 1.389 . S
C631 C632 1.524 . S
C632 C631 1.524 . S
C632 C633 1.397 . S
C632 C637 1.363 . S
C633 H604 0.950 . S
C633 C632 1.397 . S
C633 C634 1.334 . S
C634 H605 0.950 . S
C634 C633 1.334 . S
C634 C635 1.287 1_655 S
C635 C634 1.287 1_455 S
C635 C636 1.524 . S
C635 H638 0.999 . S
C636 H606 0.950 . S
C636 C635 1.524 . S
C636 C637 1.415 1_455 S
C637 H607 0.950 . S
C637 C632 1.363 . S
C637 C636 1.415 1_655 S
H638 C635 0.999 . S
H639 C620 0.913 . S
H640 C658 0.951 . S
H641 C660 0.951 . S
H642 C662 0.950 . S
H643 C663 0.950 . S
H644 C665 0.950 . S
H645 C668 0.950 . S
H646 C669 0.950 . S
H647 C671 0.950 . S
H648 C672 0.950 . S
H649 C673 0.951 . S
H650 C675 0.951 . S
H651 C677 0.950 1_545 S
H652 C678 0.950 . S
H653 C680 0.950 . S
H654 C683 0.950 . S
H655 C684 0.950 . S
H656 C686 0.950 . S
H657 C687 0.950 . S
C658 H640 0.951 . S
C658 C659 1.366 . S
C658 C660 1.388 . S
C659 C658 1.366 . S
C659 C663 1.385 . S
C660 H641 0.951 . S
C660 C658 1.388 . S
C660 C661 1.366 . S
C661 C660 1.366 . S
C661 C662 1.414 . S
C661 C664 1.499 . S
C662 H642 0.950 . S
C662 C661 1.414 . S
C662 C663 1.374 . S
C663 H643 0.950 . S
C663 C659 1.385 . S
C663 C662 1.374 . S
C664 C661 1.499 . S
C664 C665 1.373 . S
C664 C666 1.389 . S
C665 H644 0.950 . S
C665 C664 1.373 . S
C665 C681 1.377 . S
C666 C664 1.389 . S
C666 C667 1.524 . S
C666 C680 1.377 . S
C667 C666 1.524 . S
C667 C668 1.397 . S
C667 C672 1.363 . S
C668 H645 0.950 . S
C668 C667 1.397 . S
C668 C669 1.334 . S
C669 H646 0.950 . S
C669 C668 1.334 . S
C669 C670 1.287 . S
C670 C669 1.287 . S
C670 C671 1.524 . S
C670 H689 0.913 . S
C671 H647 0.950 . S
C671 C670 1.524 . S
C671 C672 1.415 . S
C672 H648 0.950 . S
C672 C667 1.363 . S
C672 C671 1.415 . S
C673 H649 0.951 . S
C673 C674 1.366 . S
C673 C675 1.388 . S
C674 C673 1.366 . S
C674 C678 1.385 . S
C675 H650 0.951 . S
C675 C673 1.388 . S
C675 C676 1.366 . S
C676 C675 1.366 . S
C676 C677 1.414 . S
C676 C679 1.499 1_565 S
C677 H651 0.950 1_565 S
C677 C676 1.414 . S
C677 C678 1.374 . S
C678 H652 0.950 . S
C678 C674 1.385 . S
C678 C677 1.374 . S
C679 C676 1.499 1_545 S
C679 C680 1.373 . S
C679 C681 1.389 . S
C680 H653 0.950 . S
C680 C666 1.377 . S
C680 C679 1.373 . S
C681 C665 1.377 . S
C681 C679 1.389 . S
C681 C682 1.524 1_545 S
C682 C681 1.524 1_565 S
C682 C683 1.397 . S
C682 C687 1.363 . S
C683 H654 0.950 . S
C683 C682 1.397 . S
C683 C684 1.334 . S
C684 H655 0.950 . S
C684 C683 1.334 . S
C684 C685 1.287 . S
C685 C684 1.287 . S
C685 C686 1.524 . S
C685 H688 0.999 . S
C686 H656 0.950 . S
C686 C685 1.524 . S
C686 C687 1.415 . S
C687 H657 0.950 . S
C687 C682 1.363 . S
C687 C686 1.415 . S
H688 C685 0.999 . S
H689 C670 0.913 . S
H690 C708 0.951 . S
H691 C710 0.951 . S
H692 C712 0.950 . S
H693 C713 0.950 . S
H694 C715 0.950 . S
H695 C718 0.950 . S
H696 C719 0.950 . S
H697 C721 0.950 . S
H698 C722 0.950 . S
H699 C723 0.951 . S
H700 C725 0.951 . S
H701 C727 0.950 . S
H702 C728 0.950 . S
H703 C730 0.950 . S
H704 C733 0.950 . S
H705 C734 0.950 . S
H706 C736 0.950 . S
H707 C737 0.950 . S
C708 H690 0.951 . S
C708 C709 1.366 . S
C708 C710 1.388 . S
C709 C708 1.366 . S
C709 C713 1.385 . S
C710 H691 0.951 . S
C710 C708 1.388 . S
C710 C711 1.366 . S
C711 C710 1.366 . S
C711 C712 1.414 . S
C711 C714 1.499 . S
C712 H692 0.950 . S
C712 C711 1.414 . S
C712 C713 1.374 . S
C713 H693 0.950 . S
C713 C709 1.385 . S
C713 C712 1.374 . S
C714 C711 1.499 . S
C714 C715 1.373 . S
C714 C716 1.389 . S
C715 H694 0.950 . S
C715 C714 1.373 . S
C715 C731 1.377 . S
C716 C714 1.389 . S
C716 C717 1.524 . S
C716 C730 1.377 . S
C717 C716 1.524 . S
C717 C718 1.397 . S
C717 C722 1.363 . S
C718 H695 0.950 . S
C718 C717 1.397 . S
C718 C719 1.334 . S
C719 H696 0.950 . S
C719 C718 1.334 . S
C719 C720 1.287 . S
C720 C719 1.287 . S
C720 C721 1.524 . S
C720 H739 0.913 . S
C721 H697 0.950 . S
C721 C720 1.524 . S
C721 C722 1.415 . S
C722 H698 0.950 . S
C722 C717 1.363 . S
C722 C721 1.415 . S
C723 H699 0.951 . S
C723 C724 1.366 . S
C723 C725 1.388 . S
C724 C723 1.366 . S
C724 C728 1.385 . S
C725 H700 0.951 . S
C725 C723 1.388 . S
C725 C726 1.366 . S
C726 C725 1.366 . S
C726 C727 1.414 . S
C726 C729 1.499 . S
C727 H701 0.950 . S
C727 C726 1.414 . S
C727 C728 1.374 . S
C728 H702 0.950 . S
C728 C724 1.385 . S
C728 C727 1.374 . S
C729 C726 1.499 . S
C729 C730 1.373 . S
C729 C731 1.389 . S
C730 H703 0.950 . S
C730 C716 1.377 . S
C730 C729 1.373 . S
C731 C715 1.377 . S
C731 C729 1.389 . S
C731 C732 1.524 . S
C732 C731 1.524 . S
C732 C733 1.397 . S
C732 C737 1.363 . S
C733 H704 0.950 . S
C733 C732 1.397 . S
C733 C734 1.334 . S
C734 H705 0.950 . S
C734 C733 1.334 . S
C734 C735 1.287 . S
C735 C734 1.287 . S
C735 C736 1.524 . S
C735 H738 0.999 . S
C736 H706 0.950 . S
C736 C735 1.524 . S
C736 C737 1.415 . S
C737 H707 0.950 . S
C737 C732 1.363 . S
C737 C736 1.415 . S
H738 C735 0.999 . S
H739 C720 0.913 . S
H740 C758 0.951 . S
H741 C760 0.951 . S
H742 C762 0.950 . S
H743 C763 0.950 . S
H744 C765 0.950 . S
H745 C768 0.950 . S
H746 C769 0.950 . S
H747 C771 0.950 . S
H748 C772 0.950 . S
H749 C773 0.951 . S
H750 C775 0.951 . S
H751 C777 0.950 . S
H752 C778 0.950 . S
H753 C780 0.950 . S
H754 C783 0.950 . S
H755 C784 0.950 . S
H756 C786 0.950 . S
H757 C787 0.950 . S
C758 H740 0.951 . S
C758 C759 1.366 . S
C758 C760 1.388 . S
C759 C758 1.366 . S
C759 C763 1.385 . S
C760 H741 0.951 . S
C760 C758 1.388 . S
C760 C761 1.366 . S
C761 C760 1.366 . S
C761 C762 1.414 . S
C761 C764 1.499 . S
C762 H742 0.950 . S
C762 C761 1.414 . S
C762 C763 1.374 . S
C763 H743 0.950 . S
C763 C759 1.385 . S
C763 C762 1.374 . S
C764 C761 1.499 . S
C764 C765 1.373 . S
C764 C766 1.389 . S
C765 H744 0.950 . S
C765 C764 1.373 . S
C765 C781 1.377 . S
C766 C764 1.389 . S
C766 C767 1.524 . S
C766 C780 1.377 . S
C767 C766 1.524 . S
C767 C768 1.397 . S
C767 C772 1.363 . S
C768 H745 0.950 . S
C768 C767 1.397 . S
C768 C769 1.334 . S
C769 H746 0.950 . S
C769 C768 1.334 . S
C769 C770 1.287 . S
C770 C769 1.287 . S
C770 C771 1.524 . S
C770 H789 0.913 . S
C771 H747 0.950 . S
C771 C770 1.524 . S
C771 C772 1.415 . S
C772 H748 0.950 . S
C772 C767 1.363 . S
C772 C771 1.415 . S
C773 H749 0.951 . S
C773 C774 1.366 . S
C773 C775 1.388 . S
C774 C773 1.366 . S
C774 C778 1.385 . S
C775 H750 0.951 . S
C775 C773 1.388 . S
C775 C776 1.366 . S
C776 C775 1.366 . S
C776 C777 1.414 . S
C776 C779 1.499 . S
C777 H751 0.950 . S
C777 C776 1.414 . S
C777 C778 1.374 . S
C778 H752 0.950 . S
C778 C774 1.385 . S
C778 C777 1.374 . S
C779 C776 1.499 . S
C779 C780 1.373 . S
C779 C781 1.389 . S
C780 H753 0.950 . S
C780 C766 1.377 . S
C780 C779 1.373 . S
C781 C765 1.377 . S
C781 C779 1.389 . S
C781 C782 1.524 . S
C782 C781 1.524 . S
C782 C783 1.397 . S
C782 C787 1.363 . S
C783 H754 0.950 . S
C783 C782 1.397 . S
C783 C784 1.334 . S
C784 H755 0.950 . S
C784 C783 1.334 . S
C784 C785 1.287 . S
C785 C784 1.287 . S
C785 C786 1.524 . S
C785 H788 0.999 . S
C786 H756 0.950 . S
C786 C785 1.524 . S
C786 C787 1.415 . S
C787 H757 0.950 . S
C787 C782 1.363 . S
C787 C786 1.415 . S
H788 C785 0.999 . S
H789 C770 0.913 . S
H790 C808 0.951 . S
H791 C810 0.951 . S
H792 C812 0.950 . S
H793 C813 0.950 . S
H794 C815 0.950 . S
H795 C818 0.950 . S
H796 C819 0.950 . S
H797 C821 0.950 . S
H798 C822 0.950 . S
H799 C823 0.951 . S
H800 C825 0.951 . S
H801 C827 0.950 1_545 S
H802 C828 0.950 . S
H803 C830 0.950 . S
H804 C833 0.950 . S
H805 C834 0.950 . S
H806 C836 0.950 . S
H807 C837 0.950 . S
C808 H790 0.951 . S
C808 C809 1.366 . S
C808 C810 1.388 . S
C809 C808 1.366 . S
C809 C813 1.385 . S
C810 H791 0.951 . S
C810 C808 1.388 . S
C810 C811 1.366 . S
C811 C810 1.366 . S
C811 C812 1.414 . S
C811 C814 1.499 . S
C812 H792 0.950 . S
C812 C811 1.414 . S
C812 C813 1.374 . S
C813 H793 0.950 . S
C813 C809 1.385 . S
C813 C812 1.374 . S
C814 C811 1.499 . S
C814 C815 1.373 . S
C814 C816 1.389 . S
C815 H794 0.950 . S
C815 C814 1.373 . S
C815 C831 1.377 . S
C816 C814 1.389 . S
C816 C817 1.524 . S
C816 C830 1.377 . S
C817 C816 1.524 . S
C817 C818 1.397 . S
C817 C822 1.363 . S
C818 H795 0.950 . S
C818 C817 1.397 . S
C818 C819 1.334 . S
C819 H796 0.950 . S
C819 C818 1.334 . S
C819 C820 1.287 . S
C820 C819 1.287 . S
C820 C821 1.524 . S
C820 H839 0.913 . S
C821 H797 0.950 . S
C821 C820 1.524 . S
C821 C822 1.415 . S
C822 H798 0.950 . S
C822 C817 1.363 . S
C822 C821 1.415 . S
C823 H799 0.951 . S
C823 C824 1.366 . S
C823 C825 1.388 . S
C824 C823 1.366 . S
C824 C828 1.385 . S
C825 H800 0.951 . S
C825 C823 1.388 . S
C825 C826 1.366 . S
C826 C825 1.366 . S
C826 C827 1.414 . S
C826 C829 1.499 1_565 S
C827 H801 0.950 1_565 S
C827 C826 1.414 . S
C827 C828 1.374 . S
C828 H802 0.950 . S
C828 C824 1.385 . S
C828 C827 1.374 . S
C829 C826 1.499 1_545 S
C829 C830 1.373 . S
C829 C831 1.389 . S
C830 H803 0.950 . S
C830 C816 1.377 . S
C830 C829 1.373 . S
C831 C815 1.377 . S
C831 C829 1.389 . S
C831 C832 1.524 1_545 S
C832 C831 1.524 1_565 S
C832 C833 1.397 . S
C832 C837 1.363 . S
C833 H804 0.950 . S
C833 C832 1.397 . S
C833 C834 1.334 . S
C834 H805 0.950 . S
C834 C833 1.334 . S
C834 C835 1.287 . S
C835 C834 1.287 . S
C835 C836 1.524 . S
C835 H838 0.999 . S
C836 H806 0.950 . S
C836 C835 1.524 . S
C836 C837 1.415 . S
C837 H807 0.950 . S
C837 C832 1.363 . S
C837 C836 1.415 . S
H838 C835 0.999 . S
H839 C820 0.913 . S
H840 C858 0.951 . S
H841 C860 0.951 . S
H842 C862 0.950 . S
H843 C863 0.950 . S
H844 C865 0.942 1_556 S
H845 C868 0.950 . S
H846 C869 0.950 . S
H847 C871 0.950 . S
H848 C872 0.950 . S
H849 C873 0.951 . S
H850 C875 0.951 . S
H851 C877 0.950 . S
H852 C878 0.950 . S
H853 C880 0.950 . S
H854 C883 0.950 . S
H855 C884 0.950 . S
H856 C886 0.950 . S
H857 C887 0.950 . S
C858 H840 0.951 . S
C858 C859 1.366 . S
C858 C860 1.388 . S
C859 C858 1.366 . S
C859 C863 1.385 . S
C860 H841 0.951 . S
C860 C858 1.388 . S
C860 C861 1.366 . S
C861 C860 1.366 . S
C861 C862 1.414 . S
C861 C864 1.499 1_556 S
C862 H842 0.950 . S
C862 C861 1.414 . S
C862 C863 1.374 . S
C863 H843 0.950 . S
C863 C859 1.385 . S
C863 C862 1.374 . S
C864 C861 1.499 1_554 S
C864 C865 1.373 . S
C864 C866 1.389 . S
C865 H844 0.942 1_554 S
C865 C864 1.373 . S
C865 C881 1.377 . S
C866 C864 1.389 . S
C866 C867 1.524 . S
C866 C880 1.377 . S
C867 C866 1.524 . S
C867 C868 1.397 . S
C867 C872 1.363 . S
C868 H845 0.950 . S
C868 C867 1.397 . S
C868 C869 1.334 . S
C869 H846 0.950 . S
C869 C868 1.334 . S
C869 C870 1.287 . S
C870 C869 1.287 . S
C870 C871 1.524 . S
C870 H889 0.913 . S
C871 H847 0.950 . S
C871 C870 1.524 . S
C871 C872 1.415 . S
C872 H848 0.950 . S
C872 C867 1.363 . S
C872 C871 1.415 . S
C873 H849 0.951 . S
C873 C874 1.366 . S
C873 C875 1.388 . S
C874 C873 1.366 . S
C874 C878 1.385 . S
C875 H850 0.951 . S
C875 C873 1.388 . S
C875 C876 1.366 . S
C876 C875 1.366 . S
C876 C877 1.414 . S
C876 C879 1.499 . S
C877 H851 0.950 . S
C877 C876 1.414 . S
C877 C878 1.374 . S
C878 H852 0.950 . S
C878 C874 1.385 . S
C878 C877 1.374 . S
C879 C876 1.499 . S
C879 C880 1.373 . S
C879 C881 1.389 . S
C880 H853 0.950 . S
C880 C866 1.377 . S
C880 C879 1.373 . S
C881 C865 1.377 . S
C881 C879 1.389 . S
C881 C882 1.524 . S
C882 C881 1.524 . S
C882 C883 1.397 . S
C882 C887 1.363 . S
C883 H854 0.950 . S
C883 C882 1.397 . S
C883 C884 1.334 . S
C884 H855 0.950 . S
C884 C883 1.334 . S
C884 C885 1.287 . S
C885 C884 1.287 . S
C885 C886 1.524 . S
C885 H888 0.999 . S
C886 H856 0.950 . S
C886 C885 1.524 . S
C886 C887 1.415 . S
C887 H857 0.950 . S
C887 C882 1.363 . S
C887 C886 1.415 . S
H888 C885 0.999 . S
H889 C870 0.913 . S
H890 C908 0.951 . S
H891 C910 0.951 . S
H892 C912 0.950 . S
H893 C913 0.950 . S
H894 C915 0.950 . S
H895 C918 0.950 . S
H896 C919 0.950 . S
H897 C921 0.950 . S
H898 C922 0.950 . S
H899 C923 0.951 . S
H900 C925 0.951 . S
H901 C927 0.950 . S
H902 C928 0.950 . S
H903 C930 0.950 . S
H904 C933 0.950 . S
H905 C934 0.950 . S
H906 C936 0.950 . S
H907 C937 0.950 . S
C908 H890 0.951 . S
C908 C909 1.366 . S
C908 C910 1.388 . S
C909 C908 1.366 . S
C909 C913 1.385 . S
C910 H891 0.951 . S
C910 C908 1.388 . S
C910 C911 1.366 . S
C911 C910 1.366 . S
C911 C912 1.414 . S
C911 C914 1.499 . S
C912 H892 0.950 . S
C912 C911 1.414 . S
C912 C913 1.374 . S
C913 H893 0.950 . S
C913 C909 1.385 . S
C913 C912 1.374 . S
C914 C911 1.499 . S
C914 C915 1.373 . S
C914 C916 1.389 . S
C915 H894 0.950 . S
C915 C914 1.373 . S
C915 C931 1.377 . S
C916 C914 1.389 . S
C916 C917 1.524 . S
C916 C930 1.377 . S
C917 C916 1.524 . S
C917 C918 1.397 . S
C917 C922 1.363 . S
C918 H895 0.950 . S
C918 C917 1.397 . S
C918 C919 1.334 . S
C919 H896 0.950 . S
C919 C918 1.334 . S
C919 C920 1.287 . S
C920 C919 1.287 . S
C920 C921 1.524 . S
C920 H939 0.913 . S
C921 H897 0.950 . S
C921 C920 1.524 . S
C921 C922 1.415 . S
C922 H898 0.950 . S
C922 C917 1.363 . S
C922 C921 1.415 . S
C923 H899 0.951 . S
C923 C924 1.366 . S
C923 C925 1.388 . S
C924 C923 1.366 . S
C924 C928 1.385 . S
C925 H900 0.951 . S
C925 C923 1.388 . S
C925 C926 1.366 . S
C926 C925 1.366 . S
C926 C927 1.414 . S
C926 C929 1.499 . S
C927 H901 0.950 . S
C927 C926 1.414 . S
C927 C928 1.374 . S
C928 H902 0.950 . S
C928 C924 1.385 . S
C928 C927 1.374 . S
C929 C926 1.499 . S
C929 C930 1.373 . S
C929 C931 1.389 . S
C930 H903 0.950 . S
C930 C916 1.377 . S
C930 C929 1.373 . S
C931 C915 1.377 . S
C931 C929 1.389 . S
C931 C932 1.524 . S
C932 C931 1.524 . S
C932 C933 1.397 . S
C932 C937 1.363 . S
C933 H904 0.950 . S
C933 C932 1.397 . S
C933 C934 1.334 . S
C934 H905 0.950 . S
C934 C933 1.334 . S
C934 C935 1.287 . S
C935 C934 1.287 . S
C935 C936 1.524 . S
C935 H938 0.999 . S
C936 H906 0.950 . S
C936 C935 1.524 . S
C936 C937 1.415 . S
C937 H907 0.950 . S
C937 C932 1.363 . S
C937 C936 1.415 . S
H938 C935 0.999 . S
H939 C920 0.913 . S
H940 C958 0.951 . S
H941 C960 0.951 . S
H942 C962 0.950 . S
H943 C963 0.950 . S
H944 C965 0.950 . S
H945 C968 0.950 . S
H946 C969 0.950 . S
H947 C971 0.950 . S
H948 C972 0.950 . S
H949 C973 0.951 . S
H950 C975 0.951 . S
H951 C977 0.950 . S
H952 C978 0.950 . S
H953 C980 0.950 . S
H954 C983 0.950 . S
H955 C984 0.950 . S
H956 C986 0.950 . S
H957 C987 0.950 . S
C958 H940 0.951 . S
C958 C959 1.366 . S
C958 C960 1.388 . S
C959 C958 1.366 . S
C959 C963 1.385 . S
C960 H941 0.951 . S
C960 C958 1.388 . S
C960 C961 1.366 . S
C961 C960 1.366 . S
C961 C962 1.414 . S
C961 C964 1.491 1_554 S
C962 H942 0.950 . S
C962 C961 1.414 . S
C962 C963 1.374 . S
C963 H943 0.950 . S
C963 C959 1.385 . S
C963 C962 1.374 . S
C964 C961 1.491 1_556 S
C964 C965 1.379 . S
C964 C966 1.393 . S
C965 H944 0.950 . S
C965 C964 1.379 . S
C965 C981 1.377 . S
C966 C964 1.393 . S
C966 C967 1.524 1_556 S
C966 C980 1.377 . S
C967 C966 1.524 1_554 S
C967 C968 1.397 . S
C967 C972 1.363 1_554 S
C968 H945 0.950 . S
C968 C967 1.397 . S
C968 C969 1.334 . S
C969 H946 0.950 . S
C969 C968 1.334 . S
C969 C970 1.287 . S
C970 C969 1.287 . S
C970 C971 1.524 . S
C970 H989 0.913 . S
C971 H947 0.950 . S
C971 C970 1.524 . S
C971 C972 1.415 1_554 S
C972 H948 0.950 . S
C972 C967 1.363 1_556 S
C972 C971 1.415 1_556 S
C973 H949 0.951 . S
C973 C974 1.366 . S
C973 C975 1.388 . S
C974 C973 1.366 . S
C974 C978 1.385 . S
C975 H950 0.951 . S
C975 C973 1.388 . S
C975 C976 1.366 . S
C976 C975 1.366 . S
C976 C977 1.414 . S
C976 C979 1.499 . S
C977 H951 0.950 . S
C977 C976 1.414 . S
C977 C978 1.374 . S
C978 H952 0.950 . S
C978 C974 1.385 . S
C978 C977 1.374 . S
C979 C976 1.499 . S
C979 C980 1.373 . S
C979 C981 1.389 . S
C980 H953 0.950 . S
C980 C966 1.377 . S
C980 C979 1.373 . S
C981 C965 1.377 . S
C981 C979 1.389 . S
C981 C982 1.524 . S
C982 C981 1.524 . S
C982 C983 1.397 . S
C982 C987 1.363 . S
C983 H954 0.950 . S
C983 C982 1.397 . S
C983 C984 1.334 . S
C984 H955 0.950 . S
C984 C983 1.334 . S
C984 C985 1.287 . S
C985 C984 1.287 . S
C985 C986 1.524 . S
C985 H988 0.999 . S
C986 H956 0.950 . S
C986 C985 1.524 . S
C986 C987 1.415 . S
C987 H957 0.950 . S
C987 C982 1.363 . S
C987 C986 1.415 . S
H988 C985 0.999 . S
H989 C970 0.913 . S
H990 C1008 0.951 . S
H991 C1010 0.951 . S
H992 C1012 0.950 . S
H993 C1013 0.950 . S
H994 C1015 0.950 . S
H995 C1018 0.950 . S
H996 C1019 0.950 . S
H997 C1021 0.950 . S
H998 C1022 0.950 . S
H999 C1023 0.951 . S
H1000 C1025 0.951 . S
H1001 C1027 0.950 . S
H1002 C1028 0.950 . S
H1003 C1030 0.950 . S
H1004 C1033 0.950 . S
H1005 C1034 0.950 . S
H1006 C1036 0.950 . S
H1007 C1037 0.950 . S
C1008 H990 0.951 . S
C1008 C1009 1.366 . S
C1008 C1010 1.388 . S
C1009 C1008 1.366 . S
C1009 C1013 1.385 . S
C1010 H991 0.951 . S
C1010 C1008 1.388 . S
C1010 C1011 1.366 . S
C1011 C1010 1.366 . S
C1011 C1012 1.414 . S
C1011 C1014 1.499 . S
C1012 H992 0.950 . S
C1012 C1011 1.414 . S
C1012 C1013 1.374 . S
C1013 H993 0.950 . S
C1013 C1009 1.385 . S
C1013 C1012 1.374 . S
C1014 C1011 1.499 . S
C1014 C1015 1.373 . S
C1014 C1016 1.389 . S
C1015 H994 0.950 . S
C1015 C1014 1.373 . S
C1015 C1031 1.377 . S
C1016 C1014 1.389 . S
C1016 C1017 1.524 . S
C1016 C1030 1.377 . S
C1017 C1016 1.524 . S
C1017 C1018 1.397 . S
C1017 C1022 1.363 . S
C1018 H995 0.950 . S
C1018 C1017 1.397 . S
C1018 C1019 1.334 . S
C1019 H996 0.950 . S
C1019 C1018 1.334 . S
C1019 C1020 1.287 . S
C1020 C1019 1.287 . S
C1020 C1021 1.524 . S
C1020 H1039 0.913 . S
C1021 H997 0.950 . S
C1021 C1020 1.524 . S
C1021 C1022 1.415 . S
C1022 H998 0.950 . S
C1022 C1017 1.363 . S
C1022 C1021 1.415 . S
C1023 H999 0.951 . S
C1023 C1024 1.366 . S
C1023 C1025 1.388 . S
C1024 C1023 1.366 . S
C1024 C1028 1.385 . S
C1025 H1000 0.951 . S
C1025 C1023 1.388 . S
C1025 C1026 1.366 . S
C1026 C1025 1.366 . S
C1026 C1027 1.414 . S
C1026 C1029 1.499 . S
C1027 H1001 0.950 . S
C1027 C1026 1.414 . S
C1027 C1028 1.374 . S
C1028 H1002 0.950 . S
C1028 C1024 1.385 . S
C1028 C1027 1.374 . S
C1029 C1026 1.499 . S
C1029 C1030 1.373 . S
C1029 C1031 1.389 . S
C1030 H1003 0.950 . S
C1030 C1016 1.377 . S
C1030 C1029 1.373 . S
C1031 C1015 1.377 . S
C1031 C1029 1.389 . S
C1031 C1032 1.524 . S
C1032 C1031 1.524 . S
C1032 C1033 1.397 . S
C1032 C1037 1.363 . S
C1033 H1004 0.950 . S
C1033 C1032 1.397 . S
C1033 C1034 1.334 . S
C1034 H1005 0.950 . S
C1034 C1033 1.334 . S
C1034 C1035 1.287 . S
C1035 C1034 1.287 . S
C1035 C1036 1.524 . S
C1035 H1038 0.999 . S
C1036 H1006 0.950 . S
C1036 C1035 1.524 . S
C1036 C1037 1.415 . S
C1037 H1007 0.950 . S
C1037 C1032 1.363 . S
C1037 C1036 1.415 . S
H1038 C1035 0.999 . S
H1039 C1020 0.913 . S
H1040 C1058 0.951 . S
H1041 C1060 0.951 . S
H1042 C1062 0.950 . S
H1043 C1063 0.950 . S
H1044 C1065 0.950 1_554 S
H1045 C1068 0.950 . S
H1046 C1069 0.950 . S
H1047 C1071 0.950 . S
H1048 C1072 0.950 . S
H1049 C1073 0.951 . S
H1050 C1075 0.951 . S
H1051 C1077 0.950 . S
H1052 C1078 0.950 . S
H1053 C1080 0.950 . S
H1054 C1083 0.950 . S
H1055 C1084 0.950 . S
H1056 C1086 0.950 1_455 S
H1057 C1087 0.950 . S
C1058 H1040 0.951 . S
C1058 C1059 1.366 . S
C1058 C1060 1.388 . S
C1059 C1058 1.366 . S
C1059 C1063 1.385 . S
C1060 H1041 0.951 . S
C1060 C1058 1.388 . S
C1060 C1061 1.366 . S
C1061 C1060 1.366 . S
C1061 C1062 1.414 . S
C1061 C1064 1.499 1_554 S
C1062 H1042 0.950 . S
C1062 C1061 1.414 . S
C1062 C1063 1.374 . S
C1063 H1043 0.950 . S
C1063 C1059 1.385 . S
C1063 C1062 1.374 . S
C1064 C1061 1.499 1_556 S
C1064 C1065 1.373 . S
C1064 C1066 1.389 . S
C1065 H1044 0.950 1_556 S
C1065 C1064 1.373 . S
C1065 C1081 1.377 . S
C1066 C1064 1.389 . S
C1066 C1067 1.524 . S
C1066 C1080 1.377 . S
C1067 C1066 1.524 . S
C1067 C1068 1.397 . S
C1067 C1072 1.363 . S
C1068 H1045 0.950 . S
C1068 C1067 1.397 . S
C1068 C1069 1.334 . S
C1069 H1046 0.950 . S
C1069 C1068 1.334 . S
C1069 C1070 1.287 . S
C1070 C1069 1.287 . S
C1070 C1071 1.524 . S
C1070 H1089 0.913 . S
C1071 H1047 0.950 . S
C1071 C1070 1.524 . S
C1071 C1072 1.415 . S
C1072 H1048 0.950 . S
C1072 C1067 1.363 . S
C1072 C1071 1.415 . S
C1073 H1049 0.951 . S
C1073 C1074 1.366 . S
C1073 C1075 1.388 . S
C1074 C1073 1.366 . S
C1074 C1078 1.385 . S
C1075 H1050 0.951 . S
C1075 C1073 1.388 . S
C1075 C1076 1.366 . S
C1076 C1075 1.366 . S
C1076 C1077 1.414 . S
C1076 C1079 1.499 . S
C1077 H1051 0.950 . S
C1077 C1076 1.414 . S
C1077 C1078 1.374 . S
C1078 H1052 0.950 . S
C1078 C1074 1.385 . S
C1078 C1077 1.374 . S
C1079 C1076 1.499 . S
C1079 C1080 1.373 . S
C1079 C1081 1.389 . S
C1080 H1053 0.950 . S
C1080 C1066 1.377 . S
C1080 C1079 1.373 . S
C1081 C1065 1.377 . S
C1081 C1079 1.389 . S
C1081 C1082 1.524 . S
C1082 C1081 1.524 . S
C1082 C1083 1.397 . S
C1082 C1087 1.363 . S
C1083 H1054 0.950 . S
C1083 C1082 1.397 . S
C1083 C1084 1.334 . S
C1084 H1055 0.950 . S
C1084 C1083 1.334 . S
C1084 C1085 1.287 . S
C1085 C1084 1.287 . S
C1085 C1086 1.524 . S
C1085 H1088 0.999 1_655 S
C1086 H1056 0.950 1_655 S
C1086 C1085 1.524 . S
C1086 C1087 1.415 . S
C1087 H1057 0.950 . S
C1087 C1082 1.363 . S
C1087 C1086 1.415 . S
H1088 C1085 0.999 1_455 S
H1089 C1070 0.913 . S
H1090 C1108 0.951 . S
H1091 C1110 0.951 . S
H1092 C1112 0.950 . S
H1093 C1113 0.950 . S
H1094 C1115 0.950 . S
H1095 C1118 0.950 . S
H1096 C1119 0.950 . S
H1097 C1121 0.950 . S
H1098 C1122 0.950 . S
H1099 C1123 0.951 . S
H1100 C1125 0.951 . S
H1101 C1127 0.950 . S
H1102 C1128 0.950 . S
H1103 C1130 0.950 . S
H1104 C1133 0.950 . S
H1105 C1134 0.950 . S
H1106 C1136 0.950 . S
H1107 C1137 0.950 . S
C1108 H1090 0.951 . S
C1108 C1109 1.366 . S
C1108 C1110 1.388 . S
C1109 C1108 1.366 . S
C1109 C1113 1.385 . S
C1110 H1091 0.951 . S
C1110 C1108 1.388 . S
C1110 C1111 1.366 . S
C1111 C1110 1.366 . S
C1111 C1112 1.414 . S
C1111 C1114 1.499 . S
C1112 H1092 0.950 . S
C1112 C1111 1.414 . S
C1112 C1113 1.374 . S
C1113 H1093 0.950 . S
C1113 C1109 1.385 . S
C1113 C1112 1.374 . S
C1114 C1111 1.499 . S
C1114 C1115 1.373 . S
C1114 C1116 1.389 . S
C1115 H1094 0.950 . S
C1115 C1114 1.373 . S
C1115 C1131 1.377 . S
C1116 C1114 1.389 . S
C1116 C1117 1.524 . S
C1116 C1130 1.377 . S
C1117 C1116 1.524 . S
C1117 C1118 1.397 . S
C1117 C1122 1.363 . S
C1118 H1095 0.950 . S
C1118 C1117 1.397 . S
C1118 C1119 1.334 . S
C1119 H1096 0.950 . S
C1119 C1118 1.334 . S
C1119 C1120 1.287 . S
C1120 C1119 1.287 . S
C1120 C1121 1.524 . S
C1120 H1139 0.913 . S
C1121 H1097 0.950 . S
C1121 C1120 1.524 . S
C1121 C1122 1.415 . S
C1122 H1098 0.950 . S
C1122 C1117 1.363 . S
C1122 C1121 1.415 . S
C1123 H1099 0.951 . S
C1123 C1124 1.366 . S
C1123 C1125 1.388 . S
C1124 C1123 1.366 . S
C1124 C1128 1.385 . S
C1125 H1100 0.951 . S
C1125 C1123 1.388 . S
C1125 C1126 1.366 . S
C1126 C1125 1.366 . S
C1126 C1127 1.414 . S
C1126 C1129 1.499 . S
C1127 H1101 0.950 . S
C1127 C1126 1.414 . S
C1127 C1128 1.374 . S
C1128 H1102 0.950 . S
C1128 C1124 1.385 . S
C1128 C1127 1.374 . S
C1129 C1126 1.499 . S
C1129 C1130 1.373 . S
C1129 C1131 1.389 . S
C1130 H1103 0.950 . S
C1130 C1116 1.377 . S
C1130 C1129 1.373 . S
C1131 C1115 1.377 . S
C1131 C1129 1.389 . S
C1131 C1132 1.524 . S
C1132 C1131 1.524 . S
C1132 C1133 1.397 . S
C1132 C1137 1.363 . S
C1133 H1104 0.950 . S
C1133 C1132 1.397 . S
C1133 C1134 1.334 . S
C1134 H1105 0.950 . S
C1134 C1133 1.334 . S
C1134 C1135 1.287 . S
C1135 C1134 1.287 . S
C1135 C1136 1.524 . S
C1135 H1138 0.999 . S
C1136 H1106 0.950 . S
C1136 C1135 1.524 . S
C1136 C1137 1.415 . S
C1137 H1107 0.950 . S
C1137 C1132 1.363 . S
C1137 C1136 1.415 . S
H1138 C1135 0.999 . S
H1139 C1120 0.913 . S
H1140 C1158 0.951 . S
H1141 C1160 0.951 . S
H1142 C1162 0.950 . S
H1143 C1163 0.950 . S
H1144 C1165 0.950 . S
H1145 C1168 0.950 . S
H1146 C1169 0.950 . S
H1147 C1171 0.950 . S
H1148 C1172 0.950 . S
H1149 C1173 0.951 . S
H1150 C1175 0.951 . S
H1151 C1177 0.950 . S
H1152 C1178 0.950 . S
H1153 C1180 0.950 . S
H1154 C1183 0.950 . S
H1155 C1184 0.950 . S
H1156 C1186 0.950 . S
H1157 C1187 0.950 . S
C1158 H1140 0.951 . S
C1158 C1159 1.366 . S
C1158 C1160 1.388 . S
C1159 C1158 1.366 . S
C1159 C1163 1.385 . S
C1160 H1141 0.951 . S
C1160 C1158 1.388 . S
C1160 C1161 1.366 . S
C1161 C1160 1.366 . S
C1161 C1162 1.414 . S
C1161 C1164 1.465 1_556 S
C1162 H1142 0.950 . S
C1162 C1161 1.414 . S
C1162 C1163 1.374 . S
C1163 H1143 0.950 . S
C1163 C1159 1.385 . S
C1163 C1162 1.374 . S
C1164 C1161 1.465 1_554 S
C1164 C1165 1.403 . S
C1164 C1166 1.395 . S
C1165 H1144 0.950 . S
C1165 C1164 1.403 . S
C1165 C1181 1.377 . S
C1166 C1164 1.395 . S
C1166 C1167 1.524 1_554 S
C1166 C1180 1.377 . S
C1167 C1166 1.524 1_556 S
C1167 C1168 1.397 . S
C1167 C1172 1.363 . S
C1168 H1145 0.950 . S
C1168 C1167 1.397 . S
C1168 C1169 1.334 . S
C1169 H1146 0.950 . S
C1169 C1168 1.334 . S
C1169 C1170 1.287 . S
C1170 C1169 1.287 . S
C1170 C1171 1.524 . S
C1170 H1189 0.913 . S
C1171 H1147 0.950 . S
C1171 C1170 1.524 . S
C1171 C1172 1.415 . S
C1172 H1148 0.950 . S
C1172 C1167 1.363 . S
C1172 C1171 1.415 . S
C1173 H1149 0.951 . S
C1173 C1174 1.366 . S
C1173 C1175 1.388 . S
C1174 C1173 1.366 . S
C1174 C1178 1.385 . S
C1175 H1150 0.951 . S
C1175 C1173 1.388 . S
C1175 C1176 1.366 . S
C1176 C1175 1.366 . S
C1176 C1177 1.414 . S
C1176 C1179 1.499 . S
C1177 H1151 0.950 . S
C1177 C1176 1.414 . S
C1177 C1178 1.374 . S
C1178 H1152 0.950 . S
C1178 C1174 1.385 . S
C1178 C1177 1.374 . S
C1179 C1176 1.499 . S
C1179 C1180 1.373 . S
C1179 C1181 1.389 . S
C1180 H1153 0.950 . S
C1180 C1166 1.377 . S
C1180 C1179 1.373 . S
C1181 C1165 1.377 . S
C1181 C1179 1.389 . S
C1181 C1182 1.524 . S
C1182 C1181 1.524 . S
C1182 C1183 1.397 . S
C1182 C1187 1.363 . S
C1183 H1154 0.950 . S
C1183 C1182 1.397 . S
C1183 C1184 1.334 . S
C1184 H1155 0.950 . S
C1184 C1183 1.334 . S
C1184 C1185 1.287 . S
C1185 C1184 1.287 . S
C1185 C1186 1.524 . S
C1185 H1188 0.999 . S
C1186 H1156 0.950 . S
C1186 C1185 1.524 . S
C1186 C1187 1.415 . S
C1187 H1157 0.950 . S
C1187 C1182 1.363 . S
C1187 C1186 1.415 . S
H1188 C1185 0.999 . S
H1189 C1170 0.913 . S
H1190 C1208 0.951 . S
H1191 C1210 0.951 . S
H1192 C1212 0.950 . S
H1193 C1213 0.950 . S
H1194 C1215 0.950 . S
H1195 C1218 0.950 . S
H1196 C1219 0.950 . S
H1197 C1221 0.950 . S
H1198 C1222 0.950 . S
H1199 C1223 0.951 . S
H1200 C1225 0.951 . S
H1201 C1227 0.950 . S
H1202 C1228 0.950 . S
H1203 C1230 0.950 . S
H1204 C1233 0.950 . S
H1205 C1234 0.950 . S
H1206 C1236 0.950 . S
H1207 C1237 0.950 . S
C1208 H1190 0.951 . S
C1208 C1209 1.366 . S
C1208 C1210 1.388 . S
C1209 C1208 1.366 . S
C1209 C1213 1.385 . S
C1210 H1191 0.951 . S
C1210 C1208 1.388 . S
C1210 C1211 1.366 . S
C1211 C1210 1.366 . S
C1211 C1212 1.414 . S
C1211 C1214 1.499 . S
C1212 H1192 0.950 . S
C1212 C1211 1.414 . S
C1212 C1213 1.374 . S
C1213 H1193 0.950 . S
C1213 C1209 1.385 . S
C1213 C1212 1.374 . S
C1214 C1211 1.499 . S
C1214 C1215 1.373 . S
C1214 C1216 1.389 . S
C1215 H1194 0.950 . S
C1215 C1214 1.373 . S
C1215 C1231 1.377 . S
C1216 C1214 1.389 . S
C1216 C1217 1.524 . S
C1216 C1230 1.377 . S
C1217 C1216 1.524 . S
C1217 C1218 1.397 . S
C1217 C1222 1.363 . S
C1218 H1195 0.950 . S
C1218 C1217 1.397 . S
C1218 C1219 1.334 . S
C1219 H1196 0.950 . S
C1219 C1218 1.334 . S
C1219 C1220 1.287 . S
C1220 C1219 1.287 . S
C1220 C1221 1.524 . S
C1220 H1239 0.913 . S
C1221 H1197 0.950 . S
C1221 C1220 1.524 . S
C1221 C1222 1.415 . S
C1222 H1198 0.950 . S
C1222 C1217 1.363 . S
C1222 C1221 1.415 . S
C1223 H1199 0.951 . S
C1223 C1224 1.366 . S
C1223 C1225 1.388 . S
C1224 C1223 1.366 . S
C1224 C1228 1.385 . S
C1225 H1200 0.951 . S
C1225 C1223 1.388 . S
C1225 C1226 1.366 . S
C1226 C1225 1.366 . S
C1226 C1227 1.414 . S
C1226 C1229 1.499 . S
C1227 H1201 0.950 . S
C1227 C1226 1.414 . S
C1227 C1228 1.374 . S
C1228 H1202 0.950 . S
C1228 C1224 1.385 . S
C1228 C1227 1.374 . S
C1229 C1226 1.499 . S
C1229 C1230 1.373 . S
C1229 C1231 1.389 . S
C1230 H1203 0.950 . S
C1230 C1216 1.377 . S
C1230 C1229 1.373 . S
C1231 C1215 1.377 . S
C1231 C1229 1.389 . S
C1231 C1232 1.524 . S
C1232 C1231 1.524 . S
C1232 C1233 1.397 . S
C1232 C1237 1.363 . S
C1233 H1204 0.950 . S
C1233 C1232 1.397 . S
C1233 C1234 1.334 . S
C1234 H1205 0.950 . S
C1234 C1233 1.334 . S
C1234 C1235 1.287 . S
C1235 C1234 1.287 . S
C1235 C1236 1.524 . S
C1235 H1238 0.999 . S
C1236 H1206 0.950 . S
C1236 C1235 1.524 . S
C1236 C1237 1.415 . S
C1237 H1207 0.950 . S
C1237 C1232 1.363 . S
C1237 C1236 1.415 . S
H1238 C1235 0.999 . S
H1239 C1220 0.913 . S
H1240 C1258 0.951 . S
H1241 C1260 0.951 . S
H1242 C1262 0.950 . S
H1243 C1263 0.950 . S
H1244 C1265 0.950 . S
H1245 C1268 0.950 . S
H1246 C1269 0.950 . S
H1247 C1271 0.950 . S
H1248 C1272 0.950 . S
H1249 C1273 0.951 . S
H1250 C1275 0.951 . S
H1251 C1277 0.950 . S
H1252 C1278 0.950 . S
H1253 C1280 0.950 . S
H1254 C1283 0.950 . S
H1255 C1284 0.950 . S
H1256 C1286 0.950 . S
H1257 C1287 0.950 . S
C1258 H1240 0.951 . S
C1258 C1259 1.366 . S
C1258 C1260 1.388 . S
C1259 C1258 1.366 . S
C1259 C1263 1.385 . S
C1260 H1241 0.951 . S
C1260 C1258 1.388 . S
C1260 C1261 1.366 . S
C1261 C1260 1.366 . S
C1261 C1262 1.414 . S
C1261 C1264 1.499 . S
C1262 H1242 0.950 . S
C1262 C1261 1.414 . S
C1262 C1263 1.374 . S
C1263 H1243 0.950 . S
C1263 C1259 1.385 . S
C1263 C1262 1.374 . S
C1264 C1261 1.499 . S
C1264 C1265 1.373 . S
C1264 C1266 1.389 . S
C1265 H1244 0.950 . S
C1265 C1264 1.373 . S
C1265 C1281 1.377 . S
C1266 C1264 1.389 . S
C1266 C1267 1.524 . S
C1266 C1280 1.377 . S
C1267 C1266 1.524 . S
C1267 C1268 1.397 . S
C1267 C1272 1.363 . S
C1268 H1245 0.950 . S
C1268 C1267 1.397 . S
C1268 C1269 1.334 . S
C1269 H1246 0.950 . S
C1269 C1268 1.334 . S
C1269 C1270 1.287 . S
C1270 C1269 1.287 . S
C1270 C1271 1.524 . S
C1270 H1289 0.913 . S
C1271 H1247 0.950 . S
C1271 C1270 1.524 . S
C1271 C1272 1.415 . S
C1272 H1248 0.950 . S
C1272 C1267 1.363 . S
C1272 C1271 1.415 . S
C1273 H1249 0.951 . S
C1273 C1274 1.366 . S
C1273 C1275 1.388 . S
C1274 C1273 1.366 . S
C1274 C1278 1.385 . S
C1275 H1250 0.951 . S
C1275 C1273 1.388 . S
C1275 C1276 1.366 . S
C1276 C1275 1.366 . S
C1276 C1277 1.414 . S
C1276 C1279 1.499 . S
C1277 H1251 0.950 . S
C1277 C1276 1.414 . S
C1277 C1278 1.374 . S
C1278 H1252 0.950 . S
C1278 C1274 1.385 . S
C1278 C1277 1.374 . S
C1279 C1276 1.499 . S
C1279 C1280 1.373 . S
C1279 C1281 1.389 . S
C1280 H1253 0.950 . S
C1280 C1266 1.377 . S
C1280 C1279 1.373 . S
C1281 C1265 1.377 . S
C1281 C1279 1.389 . S
C1281 C1282 1.524 . S
C1282 C1281 1.524 . S
C1282 C1283 1.397 . S
C1282 C1287 1.363 . S
C1283 H1254 0.950 . S
C1283 C1282 1.397 . S
C1283 C1284 1.334 . S
C1284 H1255 0.950 . S
C1284 C1283 1.334 . S
C1284 C1285 1.287 . S
C1285 C1284 1.287 . S
C1285 C1286 1.524 . S
C1285 H1288 0.999 . S
C1286 H1256 0.950 . S
C1286 C1285 1.524 . S
C1286 C1287 1.415 . S
C1287 H1257 0.950 . S
C1287 C1282 1.363 . S
C1287 C1286 1.415 . S
H1288 C1285 0.999 . S
H1289 C1270 0.913 . S
H1290 C1308 0.951 . S
H1291 C1310 0.951 . S
H1292 C1312 0.950 . S
H1293 C1313 0.950 . S
H1294 C1315 0.950 . S
H1295 C1318 0.950 . S
H1296 C1319 0.950 . S
H1297 C1321 0.950 . S
H1298 C1322 0.950 . S
H1299 C1323 0.951 . S
H1300 C1325 0.951 . S
H1301 C1327 0.950 . S
H1302 C1328 0.950 . S
H1303 C1330 0.950 . S
H1304 C1333 0.950 . S
H1305 C1334 0.950 . S
H1306 C1336 0.950 . S
H1307 C1337 0.950 . S
C1308 H1290 0.951 . S
C1308 C1309 1.366 . S
C1308 C1310 1.388 . S
C1309 C1308 1.366 . S
C1309 C1313 1.385 . S
C1310 H1291 0.951 . S
C1310 C1308 1.388 . S
C1310 C1311 1.366 . S
C1311 C1310 1.366 . S
C1311 C1312 1.414 . S
C1311 C1314 1.499 . S
C1312 H1292 0.950 . S
C1312 C1311 1.414 . S
C1312 C1313 1.374 . S
C1313 H1293 0.950 . S
C1313 C1309 1.385 . S
C1313 C1312 1.374 . S
C1314 C1311 1.499 . S
C1314 C1315 1.373 . S
C1314 C1316 1.389 . S
C1315 H1294 0.950 . S
C1315 C1314 1.373 . S
C1315 C1331 1.377 . S
C1316 C1314 1.389 . S
C1316 C1317 1.524 . S
C1316 C1330 1.377 . S
C1317 C1316 1.524 . S
C1317 C1318 1.397 . S
C1317 C1322 1.363 . S
C1318 H1295 0.950 . S
C1318 C1317 1.397 . S
C1318 C1319 1.334 . S
C1319 H1296 0.950 . S
C1319 C1318 1.334 . S
C1319 C1320 1.287 . S
C1320 C1319 1.287 . S
C1320 C1321 1.524 . S
C1320 H1339 0.913 . S
C1321 H1297 0.950 . S
C1321 C1320 1.524 . S
C1321 C1322 1.415 . S
C1322 H1298 0.950 . S
C1322 C1317 1.363 . S
C1322 C1321 1.415 . S
C1323 H1299 0.951 . S
C1323 C1324 1.366 . S
C1323 C1325 1.388 . S
C1324 C1323 1.366 . S
C1324 C1328 1.385 . S
C1325 H1300 0.951 . S
C1325 C1323 1.388 . S
C1325 C1326 1.366 . S
C1326 C1325 1.366 . S
C1326 C1327 1.414 . S
C1326 C1329 1.499 . S
C1327 H1301 0.950 . S
C1327 C1326 1.414 . S
C1327 C1328 1.374 . S
C1328 H1302 0.950 . S
C1328 C1324 1.385 . S
C1328 C1327 1.374 . S
C1329 C1326 1.499 . S
C1329 C1330 1.373 . S
C1329 C1331 1.389 . S
C1330 H1303 0.950 . S
C1330 C1316 1.377 . S
C1330 C1329 1.373 . S
C1331 C1315 1.377 . S
C1331 C1329 1.389 . S
C1331 C1332 1.524 . S
C1332 C1331 1.524 . S
C1332 C1333 1.397 . S
C1332 C1337 1.363 . S
C1333 H1304 0.950 . S
C1333 C1332 1.397 . S
C1333 C1334 1.334 . S
C1334 H1305 0.950 . S
C1334 C1333 1.334 . S
C1334 C1335 1.287 . S
C1335 C1334 1.287 . S
C1335 C1336 1.524 . S
C1335 H1338 0.999 . S
C1336 H1306 0.950 . S
C1336 C1335 1.524 . S
C1336 C1337 1.415 . S
C1337 H1307 0.950 . S
C1337 C1332 1.363 . S
C1337 C1336 1.415 . S
H1338 C1335 0.999 . S
H1339 C1320 0.913 . S
H1340 C1358 0.951 . S
H1341 C1360 0.951 . S
H1342 C1362 0.950 . S
H1343 C1363 0.950 . S
H1344 C1365 0.950 . S
H1345 C1368 0.950 . S
H1346 C1369 0.950 . S
H1347 C1371 0.950 . S
H1348 C1372 0.950 . S
H1349 C1373 0.951 . S
H1350 C1375 0.951 . S
H1351 C1377 0.950 . S
H1352 C1378 0.950 . S
H1353 C1380 0.950 . S
H1354 C1383 0.950 . S
H1355 C1384 0.950 . S
H1356 C1386 0.950 . S
H1357 C1387 0.950 . S
C1358 H1340 0.951 . S
C1358 C1359 1.366 . S
C1358 C1360 1.388 . S
C1359 C1358 1.366 . S
C1359 C1363 1.385 . S
C1360 H1341 0.951 . S
C1360 C1358 1.388 . S
C1360 C1361 1.366 . S
C1361 C1360 1.366 . S
C1361 C1362 1.414 . S
C1361 C1364 1.499 . S
C1362 H1342 0.950 . S
C1362 C1361 1.414 . S
C1362 C1363 1.374 . S
C1363 H1343 0.950 . S
C1363 C1359 1.385 . S
C1363 C1362 1.374 . S
C1364 C1361 1.499 . S
C1364 C1365 1.373 . S
C1364 C1366 1.389 . S
C1365 H1344 0.950 . S
C1365 C1364 1.373 . S
C1365 C1381 1.377 . S
C1366 C1364 1.389 . S
C1366 C1367 1.524 . S
C1366 C1380 1.377 . S
C1367 C1366 1.524 . S
C1367 C1368 1.397 . S
C1367 C1372 1.363 . S
C1368 H1345 0.950 . S
C1368 C1367 1.397 . S
C1368 C1369 1.334 . S
C1369 H1346 0.950 . S
C1369 C1368 1.334 . S
C1369 C1370 1.287 . S
C1370 C1369 1.287 . S
C1370 C1371 1.524 . S
C1370 H1389 0.913 . S
C1371 H1347 0.950 . S
C1371 C1370 1.524 . S
C1371 C1372 1.415 . S
C1372 H1348 0.950 . S
C1372 C1367 1.363 . S
C1372 C1371 1.415 . S
C1373 H1349 0.951 . S
C1373 C1374 1.366 . S
C1373 C1375 1.388 . S
C1374 C1373 1.366 . S
C1374 C1378 1.385 . S
C1375 H1350 0.951 . S
C1375 C1373 1.388 . S
C1375 C1376 1.366 . S
C1376 C1375 1.366 . S
C1376 C1377 1.414 . S
C1376 C1379 1.499 . S
C1377 H1351 0.950 . S
C1377 C1376 1.414 . S
C1377 C1378 1.374 . S
C1378 H1352 0.950 . S
C1378 C1374 1.385 . S
C1378 C1377 1.374 . S
C1379 C1376 1.499 . S
C1379 C1380 1.373 . S
C1379 C1381 1.389 . S
C1380 H1353 0.950 . S
C1380 C1366 1.377 . S
C1380 C1379 1.373 . S
C1381 C1365 1.377 . S
C1381 C1379 1.389 . S
C1381 C1382 1.524 . S
C1382 C1381 1.524 . S
C1382 C1383 1.397 . S
C1382 C1387 1.363 . S
C1383 H1354 0.950 . S
C1383 C1382 1.397 . S
C1383 C1384 1.334 . S
C1384 H1355 0.950 . S
C1384 C1383 1.334 . S
C1384 C1385 1.287 . S
C1385 C1384 1.287 . S
C1385 C1386 1.524 . S
C1385 H1388 0.999 . S
C1386 H1356 0.950 . S
C1386 C1385 1.524 . S
C1386 C1387 1.415 . S
C1387 H1357 0.950 . S
C1387 C1382 1.363 . S
C1387 C1386 1.415 . S
H1388 C1385 0.999 . S
H1389 C1370 0.913 . S
H1390 C1408 0.951 . S
H1391 C1410 0.951 . S
H1392 C1412 0.950 . S
H1393 C1413 0.950 . S
H1394 C1415 0.950 . S
H1395 C1418 0.950 . S
H1396 C1419 0.950 . S
H1397 C1421 0.950 1_455 S
H1398 C1422 0.950 . S
H1399 C1423 0.951 . S
H1400 C1425 0.951 . S
H1401 C1427 0.950 . S
H1402 C1428 0.950 . S
H1403 C1430 0.950 . S
H1404 C1433 0.950 . S
H1405 C1434 0.950 . S
H1406 C1436 0.950 . S
H1407 C1437 0.950 . S
C1408 H1390 0.951 . S
C1408 C1409 1.366 . S
C1408 C1410 1.388 . S
C1409 C1408 1.366 . S
C1409 C1413 1.385 . S
C1410 H1391 0.951 . S
C1410 C1408 1.388 . S
C1410 C1411 1.366 . S
C1411 C1410 1.366 . S
C1411 C1412 1.414 . S
C1411 C1414 1.499 . S
C1412 H1392 0.950 . S
C1412 C1411 1.414 . S
C1412 C1413 1.374 . S
C1413 H1393 0.950 . S
C1413 C1409 1.385 . S
C1413 C1412 1.374 . S
C1414 C1411 1.499 . S
C1414 C1415 1.373 . S
C1414 C1416 1.389 . S
C1415 H1394 0.950 . S
C1415 C1414 1.373 . S
C1415 C1431 1.377 . S
C1416 C1414 1.389 . S
C1416 C1417 1.524 . S
C1416 C1430 1.377 . S
C1417 C1416 1.524 . S
C1417 C1418 1.397 . S
C1417 C1422 1.363 . S
C1418 H1395 0.950 . S
C1418 C1417 1.397 . S
C1418 C1419 1.334 . S
C1419 H1396 0.950 . S
C1419 C1418 1.334 . S
C1419 C1420 1.287 . S
C1420 C1419 1.287 . S
C1420 C1421 1.524 . S
C1420 H1439 0.913 . S
C1421 H1397 0.950 1_655 S
C1421 C1420 1.524 . S
C1421 C1422 1.415 . S
C1422 H1398 0.950 . S
C1422 C1417 1.363 . S
C1422 C1421 1.415 . S
C1423 H1399 0.951 . S
C1423 C1424 1.366 . S
C1423 C1425 1.388 . S
C1424 C1423 1.366 . S
C1424 C1428 1.385 . S
C1425 H1400 0.951 . S
C1425 C1423 1.388 . S
C1425 C1426 1.366 . S
C1426 C1425 1.366 . S
C1426 C1427 1.414 . S
C1426 C1429 1.499 . S
C1427 H1401 0.950 . S
C1427 C1426 1.414 . S
C1427 C1428 1.374 . S
C1428 H1402 0.950 . S
C1428 C1424 1.385 . S
C1428 C1427 1.374 . S
C1429 C1426 1.499 . S
C1429 C1430 1.373 . S
C1429 C1431 1.389 . S
C1430 H1403 0.950 . S
C1430 C1416 1.377 . S
C1430 C1429 1.373 . S
C1431 C1415 1.377 . S
C1431 C1429 1.389 . S
C1431 C1432 1.524 . S
C1432 C1431 1.524 . S
C1432 C1433 1.397 . S
C1432 C1437 1.363 . S
C1433 H1404 0.950 . S
C1433 C1432 1.397 . S
C1433 C1434 1.334 . S
C1434 H1405 0.950 . S
C1434 C1433 1.334 . S
C1434 C1435 1.287 . S
C1435 C1434 1.287 . S
C1435 C1436 1.524 . S
C1435 H1438 0.999 . S
C1436 H1406 0.950 . S
C1436 C1435 1.524 . S
C1436 C1437 1.415 . S
C1437 H1407 0.950 . S
C1437 C1432 1.363 . S
C1437 C1436 1.415 . S
H1438 C1435 0.999 . S
H1439 C1420 0.913 . S
H1440 C1458 0.951 . S
H1441 C1460 0.951 . S
H1442 C1462 0.950 . S
H1443 C1463 0.950 . S
H1444 C1465 0.950 . S
H1445 C1468 0.950 . S
H1446 C1469 0.950 . S
H1447 C1471 0.950 . S
H1448 C1472 0.950 . S
H1449 C1473 0.951 . S
H1450 C1475 0.951 . S
H1451 C1477 0.950 . S
H1452 C1478 0.950 1_455 S
H1453 C1480 0.950 . S
H1454 C1483 0.950 . S
H1455 C1484 0.950 . S
H1456 C1486 0.950 . S
H1457 C1487 0.950 . S
C1458 H1440 0.951 . S
C1458 C1459 1.366 . S
C1458 C1460 1.388 . S
C1459 C1458 1.366 . S
C1459 C1463 1.385 . S
C1460 H1441 0.951 . S
C1460 C1458 1.388 . S
C1460 C1461 1.366 . S
C1461 C1460 1.366 . S
C1461 C1462 1.414 . S
C1461 C1464 1.499 . S
C1462 H1442 0.950 . S
C1462 C1461 1.414 . S
C1462 C1463 1.374 . S
C1463 H1443 0.950 . S
C1463 C1459 1.385 . S
C1463 C1462 1.374 . S
C1464 C1461 1.499 . S
C1464 C1465 1.373 . S
C1464 C1466 1.389 . S
C1465 H1444 0.950 . S
C1465 C1464 1.373 . S
C1465 C1481 1.377 . S
C1466 C1464 1.389 . S
C1466 C1467 1.524 . S
C1466 C1480 1.377 . S
C1467 C1466 1.524 . S
C1467 C1468 1.397 . S
C1467 C1472 1.363 . S
C1468 H1445 0.950 . S
C1468 C1467 1.397 . S
C1468 C1469 1.334 . S
C1469 H1446 0.950 . S
C1469 C1468 1.334 . S
C1469 C1470 1.287 . S
C1470 C1469 1.287 . S
C1470 C1471 1.524 . S
C1470 H1489 0.913 . S
C1471 H1447 0.950 . S
C1471 C1470 1.524 . S
C1471 C1472 1.415 . S
C1472 H1448 0.950 . S
C1472 C1467 1.363 . S
C1472 C1471 1.415 . S
C1473 H1449 0.951 . S
C1473 C1474 1.366 . S
C1473 C1475 1.388 . S
C1474 C1473 1.366 . S
C1474 C1478 1.385 . S
C1475 H1450 0.951 . S
C1475 C1473 1.388 . S
C1475 C1476 1.366 . S
C1476 C1475 1.366 . S
C1476 C1477 1.414 . S
C1476 C1479 1.499 . S
C1477 H1451 0.950 . S
C1477 C1476 1.414 . S
C1477 C1478 1.374 . S
C1478 H1452 0.950 1_655 S
C1478 C1474 1.385 . S
C1478 C1477 1.374 . S
C1479 C1476 1.499 . S
C1479 C1480 1.373 . S
C1479 C1481 1.389 . S
C1480 H1453 0.950 . S
C1480 C1466 1.377 . S
C1480 C1479 1.373 . S
C1481 C1465 1.377 . S
C1481 C1479 1.389 . S
C1481 C1482 1.524 . S
C1482 C1481 1.524 . S
C1482 C1483 1.397 . S
C1482 C1487 1.363 . S
C1483 H1454 0.950 . S
C1483 C1482 1.397 . S
C1483 C1484 1.334 . S
C1484 H1455 0.950 . S
C1484 C1483 1.334 . S
C1484 C1485 1.287 . S
C1485 C1484 1.287 . S
C1485 C1486 1.524 . S
C1485 H1488 0.999 . S
C1486 H1456 0.950 . S
C1486 C1485 1.524 . S
C1486 C1487 1.415 . S
C1487 H1457 0.950 . S
C1487 C1482 1.363 . S
C1487 C1486 1.415 . S
H1488 C1485 0.999 . S
H1489 C1470 0.913 . S
H1490 C1508 0.951 . S
H1491 C1510 0.951 . S
H1492 C1512 0.950 . S
H1493 C1513 0.950 . S
H1494 C1515 0.950 . S
H1495 C1518 0.950 . S
H1496 C1519 0.950 . S
H1497 C1521 0.950 . S
H1498 C1522 0.950 . S
H1499 C1523 0.951 . S
H1500 C1525 0.951 . S
H1501 C1527 0.950 . S
H1502 C1528 0.950 . S
H1503 C1530 0.950 . S
H1504 C1533 0.950 . S
H1505 C1534 0.950 . S
H1506 C1536 0.950 . S
H1507 C1537 0.950 . S
C1508 H1490 0.951 . S
C1508 C1509 1.366 . S
C1508 C1510 1.388 . S
C1509 C1508 1.366 . S
C1509 C1513 1.385 . S
C1510 H1491 0.951 . S
C1510 C1508 1.388 . S
C1510 C1511 1.366 . S
C1511 C1510 1.366 . S
C1511 C1512 1.414 . S
C1511 C1514 1.499 . S
C1512 H1492 0.950 . S
C1512 C1511 1.414 . S
C1512 C1513 1.374 . S
C1513 H1493 0.950 . S
C1513 C1509 1.385 . S
C1513 C1512 1.374 . S
C1514 C1511 1.499 . S
C1514 C1515 1.373 . S
C1514 C1516 1.389 . S
C1515 H1494 0.950 . S
C1515 C1514 1.373 . S
C1515 C1531 1.377 . S
C1516 C1514 1.389 . S
C1516 C1517 1.524 . S
C1516 C1530 1.377 . S
C1517 C1516 1.524 . S
C1517 C1518 1.397 . S
C1517 C1522 1.363 . S
C1518 H1495 0.950 . S
C1518 C1517 1.397 . S
C1518 C1519 1.334 . S
C1519 H1496 0.950 . S
C1519 C1518 1.334 . S
C1519 C1520 1.287 . S
C1520 C1519 1.287 . S
C1520 C1521 1.524 . S
C1520 H1539 0.913 . S
C1521 H1497 0.950 . S
C1521 C1520 1.524 . S
C1521 C1522 1.415 . S
C1522 H1498 0.950 . S
C1522 C1517 1.363 . S
C1522 C1521 1.415 . S
C1523 H1499 0.951 . S
C1523 C1524 1.366 . S
C1523 C1525 1.388 . S
C1524 C1523 1.366 . S
C1524 C1528 1.385 . S
C1525 H1500 0.951 . S
C1525 C1523 1.388 . S
C1525 C1526 1.366 . S
C1526 C1525 1.366 . S
C1526 C1527 1.414 . S
C1526 C1529 1.499 . S
C1527 H1501 0.950 . S
C1527 C1526 1.414 . S
C1527 C1528 1.374 . S
C1528 H1502 0.950 . S
C1528 C1524 1.385 . S
C1528 C1527 1.374 . S
C1529 C1526 1.499 . S
C1529 C1530 1.373 . S
C1529 C1531 1.389 . S
C1530 H1503 0.950 . S
C1530 C1516 1.377 . S
C1530 C1529 1.373 . S
C1531 C1515 1.377 . S
C1531 C1529 1.389 . S
C1531 C1532 1.524 . S
C1532 C1531 1.524 . S
C1532 C1533 1.397 . S
C1532 C1537 1.363 . S
C1533 H1504 0.950 . S
C1533 C1532 1.397 . S
C1533 C1534 1.334 . S
C1534 H1505 0.950 . S
C1534 C1533 1.334 . S
C1534 C1535 1.287 . S
C1535 C1534 1.287 . S
C1535 C1536 1.524 . S
C1535 H1538 0.999 . S
C1536 H1506 0.950 . S
C1536 C1535 1.524 . S
C1536 C1537 1.415 . S
C1537 H1507 0.950 . S
C1537 C1532 1.363 . S
C1537 C1536 1.415 . S
H1538 C1535 0.999 . S
H1539 C1520 0.913 . S
H1540 C1558 0.951 . S
H1541 C1560 0.951 . S
H1542 C1562 0.950 . S
H1543 C1563 0.950 . S
H1544 C1565 0.950 . S
H1545 C1568 0.950 . S
H1546 C1569 0.950 . S
H1547 C1571 0.950 . S
H1548 C1572 0.950 . S
H1549 C1573 0.951 . S
H1550 C1575 0.951 . S
H1551 C1577 0.950 . S
H1552 C1578 0.950 . S
H1553 C1580 0.950 . S
H1554 C1583 0.950 . S
H1555 C1584 0.950 . S
H1556 C1586 0.950 . S
H1557 C1587 0.950 . S
C1558 H1540 0.951 . S
C1558 C1559 1.366 . S
C1558 C1560 1.388 . S
C1559 C1558 1.366 . S
C1559 C1563 1.385 . S
C1560 H1541 0.951 . S
C1560 C1558 1.388 . S
C1560 C1561 1.366 . S
C1561 C1560 1.366 . S
C1561 C1562 1.414 . S
C1561 C1564 1.499 . S
C1562 H1542 0.950 . S
C1562 C1561 1.414 . S
C1562 C1563 1.374 . S
C1563 H1543 0.950 . S
C1563 C1559 1.385 . S
C1563 C1562 1.374 . S
C1564 C1561 1.499 . S
C1564 C1565 1.373 . S
C1564 C1566 1.389 . S
C1565 H1544 0.950 . S
C1565 C1564 1.373 . S
C1565 C1581 1.377 . S
C1566 C1564 1.389 . S
C1566 C1567 1.524 . S
C1566 C1580 1.377 . S
C1567 C1566 1.524 . S
C1567 C1568 1.397 . S
C1567 C1572 1.363 . S
C1568 H1545 0.950 . S
C1568 C1567 1.397 . S
C1568 C1569 1.334 . S
C1569 H1546 0.950 . S
C1569 C1568 1.334 . S
C1569 C1570 1.287 . S
C1570 C1569 1.287 . S
C1570 C1571 1.524 . S
C1570 H1589 0.913 . S
C1571 H1547 0.950 . S
C1571 C1570 1.524 . S
C1571 C1572 1.415 . S
C1572 H1548 0.950 . S
C1572 C1567 1.363 . S
C1572 C1571 1.415 . S
C1573 H1549 0.951 . S
C1573 C1574 1.366 . S
C1573 C1575 1.388 . S
C1574 C1573 1.366 . S
C1574 C1578 1.385 . S
C1575 H1550 0.951 . S
C1575 C1573 1.388 . S
C1575 C1576 1.366 . S
C1576 C1575 1.366 . S
C1576 C1577 1.414 . S
C1576 C1579 1.499 . S
C1577 H1551 0.950 . S
C1577 C1576 1.414 . S
C1577 C1578 1.374 . S
C1578 H1552 0.950 . S
C1578 C1574 1.385 . S
C1578 C1577 1.374 . S
C1579 C1576 1.499 . S
C1579 C1580 1.373 . S
C1579 C1581 1.389 . S
C1580 H1553 0.950 . S
C1580 C1566 1.377 . S
C1580 C1579 1.373 . S
C1581 C1565 1.377 . S
C1581 C1579 1.389 . S
C1581 C1582 1.524 . S
C1582 C1581 1.524 . S
C1582 C1583 1.397 . S
C1582 C1587 1.363 . S
C1583 H1554 0.950 . S
C1583 C1582 1.397 . S
C1583 C1584 1.334 . S
C1584 H1555 0.950 . S
C1584 C1583 1.334 . S
C1584 C1585 1.287 . S
C1585 C1584 1.287 . S
C1585 C1586 1.524 . S
C1585 H1588 0.999 . S
C1586 H1556 0.950 . S
C1586 C1585 1.524 . S
C1586 C1587 1.415 . S
C1587 H1557 0.950 . S
C1587 C1582 1.363 . S
C1587 C1586 1.415 . S
H1588 C1585 0.999 . S
H1589 C1570 0.913 . S
H1590 C1608 0.951 . S
H1591 C1610 0.951 . S
H1592 C1612 0.950 . S
H1593 C1613 0.950 . S
H1594 C1615 0.950 . S
H1595 C1618 0.950 . S
H1596 C1619 0.950 . S
H1597 C1621 0.950 . S
H1598 C1622 0.950 . S
H1599 C1623 0.951 . S
H1600 C1625 0.951 . S
H1601 C1627 0.950 . S
H1602 C1628 0.950 . S
H1603 C1630 0.950 . S
H1604 C1633 0.950 . S
H1605 C1634 0.950 1_655 S
H1606 C1636 0.950 . S
H1607 C1637 0.950 . S
C1608 H1590 0.951 . S
C1608 C1609 1.366 . S
C1608 C1610 1.388 . S
C1609 C1608 1.366 . S
C1609 C1613 1.385 . S
C1610 H1591 0.951 . S
C1610 C1608 1.388 . S
C1610 C1611 1.366 . S
C1611 C1610 1.366 . S
C1611 C1612 1.414 . S
C1611 C1614 1.499 . S
C1612 H1592 0.950 . S
C1612 C1611 1.414 . S
C1612 C1613 1.374 . S
C1613 H1593 0.950 . S
C1613 C1609 1.385 . S
C1613 C1612 1.374 . S
C1614 C1611 1.499 . S
C1614 C1615 1.373 . S
C1614 C1616 1.389 . S
C1615 H1594 0.950 . S
C1615 C1614 1.373 . S
C1615 C1631 1.377 . S
C1616 C1614 1.389 . S
C1616 C1617 1.524 . S
C1616 C1630 1.377 . S
C1617 C1616 1.524 . S
C1617 C1618 1.397 . S
C1617 C1622 1.363 . S
C1618 H1595 0.950 . S
C1618 C1617 1.397 . S
C1618 C1619 1.334 . S
C1619 H1596 0.950 . S
C1619 C1618 1.334 . S
C1619 C1620 1.287 . S
C1620 C1619 1.287 . S
C1620 C1621 1.524 . S
C1620 H1639 0.913 . S
C1621 H1597 0.950 . S
C1621 C1620 1.524 . S
C1621 C1622 1.415 . S
C1622 H1598 0.950 . S
C1622 C1617 1.363 . S
C1622 C1621 1.415 . S
C1623 H1599 0.951 . S
C1623 C1624 1.366 . S
C1623 C1625 1.388 . S
C1624 C1623 1.366 . S
C1624 C1628 1.385 . S
C1625 H1600 0.951 . S
C1625 C1623 1.388 . S
C1625 C1626 1.366 . S
C1626 C1625 1.366 . S
C1626 C1627 1.414 . S
C1626 C1629 1.499 . S
C1627 H1601 0.950 . S
C1627 C1626 1.414 . S
C1627 C1628 1.374 . S
C1628 H1602 0.950 . S
C1628 C1624 1.385 . S
C1628 C1627 1.374 . S
C1629 C1626 1.499 . S
C1629 C1630 1.373 . S
C1629 C1631 1.389 . S
C1630 H1603 0.950 . S
C1630 C1616 1.377 . S
C1630 C1629 1.373 . S
C1631 C1615 1.377 . S
C1631 C1629 1.389 . S
C1631 C1632 1.524 . S
C1632 C1631 1.524 . S
C1632 C1633 1.397 . S
C1632 C1637 1.363 . S
C1633 H1604 0.950 . S
C1633 C1632 1.397 . S
C1633 C1634 1.334 . S
C1634 H1605 0.950 1_455 S
C1634 C1633 1.334 . S
C1634 C1635 1.287 . S
C1635 C1634 1.287 . S
C1635 C1636 1.524 . S
C1635 H1638 0.999 . S
C1636 H1606 0.950 . S
C1636 C1635 1.524 . S
C1636 C1637 1.415 . S
C1637 H1607 0.950 . S
C1637 C1632 1.363 . S
C1637 C1636 1.415 . S
H1638 C1635 0.999 . S
H1639 C1620 0.913 . S
C459 N83 1.658 . S
C474 C178 1.656 . S
C524 C262 1.656 . S
C509 N96 1.659 . S
C574 C255 1.670 . S
C559 N57 1.648 . S
C609 N70 1.648 . S
C624 C171 1.669 . S
C674 C335 1.656 . S
C659 N31 1.660 . S
C724 C419 1.656 . S
C709 N44 1.660 . S
C759 N5 1.650 . S
C774 C412 1.669 . S
C809 N18 1.650 . S
C824 C328 1.669 . S
C874 C162 1.470 . S
C859 N14 1.629 . S
C924 C246 1.470 . S
C909 N1 1.629 . S
C974 C257 1.421 . S
C959 N40 1.635 . S
C1024 C173 1.419 . S
C1009 N27 1.636 . S
C1074 C341 1.470 . S
C1059 N66 1.621 . S
C1109 N53 1.620 . S
C1124 C425 1.469 . S
C1174 C414 1.421 . S
C1159 N92 1.628 . S
C1209 N79 1.628 . S
C1224 C330 1.421 . S
C1274 C160 1.568 . S
C1259 N2 1.569 . S
C1324 C244 1.568 . S
C1309 N15 1.569 . S
C1359 N28 1.566 . S
C1374 C251 1.540 . S
C1424 C167 1.540 . S
C1409 N41 1.566 . S
C1474 C339 1.568 . S
C1459 N54 1.565 . S
C1509 N67 1.565 . S
C1524 C423 1.567 . S
C1559 N80 1.562 . S
C1574 C430 1.539 . S
C1609 N93 1.562 . S
C1624 C346 1.539 . S
