# Generated by pormake.
# Topology ssb, (4,4)-cn, num edge types: 1
# Building blocks:
#     Node 0, Type 0, BuildingBlock: MIFKUJ_clean_linker_1, # of connection points: 4
#     Node 1, Type 0, BuildingBlock: MIFKUJ_clean_linker_1, # of connection points: 4
#     Node 2, Type 0, BuildingBlock: MIFKUJ_clean_linker_1, # of connection points: 4
#     Node 3, Type 0, BuildingBlock: MIFKUJ_clean_linker_1, # of connection points: 4
#     Node 4, Type 0, BuildingBlock: MIFKUJ_clean_linker_1, # of connection points: 4
#     Node 5, Type 0, BuildingBlock: MIFKUJ_clean_linker_1, # of connection points: 4
#     Node 6, Type 0, BuildingBlock: MIFKUJ_clean_linker_1, # of connection points: 4
#     Node 7, Type 0, BuildingBlock: MIFKUJ_clean_linker_1, # of connection points: 4
#     Node 8, Type 1, BuildingBlock: KOZSID_clean_sbu_0, # of connection points: 4
#     Node 9, Type 1, BuildingBlock: KOZSID_clean_sbu_0, # of connection points: 4
#     Node 10, Type 1, BuildingBlock: KOZSID_clean_sbu_0, # of connection points: 4
#     Node 11, Type 1, BuildingBlock: KOZSID_clean_sbu_0, # of connection points: 4
#     Node 12, Type 1, BuildingBlock: KOZSID_clean_sbu_0, # of connection points: 4
#     Node 13, Type 1, BuildingBlock: KOZSID_clean_sbu_0, # of connection points: 4
#     Node 14, Type 1, BuildingBlock: KOZSID_clean_sbu_0, # of connection points: 4
#     Node 15, Type 1, BuildingBlock: KOZSID_clean_sbu_0, # of connection points: 4
#     Edge 16, Type (0, 1), BuildingBlock: ZUJKAS_clean_linker_0, # of connection points: 2
#     Edge 17, Type (0, 1), BuildingBlock: ZUJKAS_clean_linker_0, # of connection points: 2
#     Edge 18, Type (0, 1), BuildingBlock: ZUJKAS_clean_linker_0, # of connection points: 2
#     Edge 19, Type (0, 1), BuildingBlock: ZUJKAS_clean_linker_0, # of connection points: 2
#     Edge 20, Type (0, 1), BuildingBlock: ZUJKAS_clean_linker_0, # of connection points: 2
#     Edge 21, Type (0, 1), BuildingBlock: ZUJKAS_clean_linker_0, # of connection points: 2
#     Edge 22, Type (0, 1), BuildingBlock: ZUJKAS_clean_linker_0, # of connection points: 2
#     Edge 23, Type (0, 1), BuildingBlock: ZUJKAS_clean_linker_0, # of connection points: 2
#     Edge 24, Type (0, 1), BuildingBlock: ZUJKAS_clean_linker_0, # of connection points: 2
#     Edge 25, Type (0, 1), BuildingBlock: ZUJKAS_clean_linker_0, # of connection points: 2
#     Edge 26, Type (0, 1), BuildingBlock: ZUJKAS_clean_linker_0, # of connection points: 2
#     Edge 27, Type (0, 1), BuildingBlock: ZUJKAS_clean_linker_0, # of connection points: 2
#     Edge 28, Type (0, 1), BuildingBlock: ZUJKAS_clean_linker_0, # of connection points: 2
#     Edge 29, Type (0, 1), BuildingBlock: ZUJKAS_clean_linker_0, # of connection points: 2
#     Edge 30, Type (0, 1), BuildingBlock: ZUJKAS_clean_linker_0, # of connection points: 2
#     Edge 31, Type (0, 1), BuildingBlock: ZUJKAS_clean_linker_0, # of connection points: 2
#     Edge 32, Type (0, 1), BuildingBlock: ZUJKAS_clean_linker_0, # of connection points: 2
#     Edge 33, Type (0, 1), BuildingBlock: ZUJKAS_clean_linker_0, # of connection points: 2
#     Edge 34, Type (0, 1), BuildingBlock: ZUJKAS_clean_linker_0, # of connection points: 2
#     Edge 35, Type (0, 1), BuildingBlock: ZUJKAS_clean_linker_0, # of connection points: 2
#     Edge 36, Type (0, 1), BuildingBlock: ZUJKAS_clean_linker_0, # of connection points: 2
#     Edge 37, Type (0, 1), BuildingBlock: ZUJKAS_clean_linker_0, # of connection points: 2
#     Edge 38, Type (0, 1), BuildingBlock: ZUJKAS_clean_linker_0, # of connection points: 2
#     Edge 39, Type (0, 1), BuildingBlock: ZUJKAS_clean_linker_0, # of connection points: 2
#     Edge 40, Type (0, 1), BuildingBlock: ZUJKAS_clean_linker_0, # of connection points: 2
#     Edge 41, Type (0, 1), BuildingBlock: ZUJKAS_clean_linker_0, # of connection points: 2
#     Edge 42, Type (0, 1), BuildingBlock: ZUJKAS_clean_linker_0, # of connection points: 2
#     Edge 43, Type (0, 1), BuildingBlock: ZUJKAS_clean_linker_0, # of connection points: 2
#     Edge 44, Type (0, 1), BuildingBlock: ZUJKAS_clean_linker_0, # of connection points: 2
#     Edge 45, Type (0, 1), BuildingBlock: ZUJKAS_clean_linker_0, # of connection points: 2
#     Edge 46, Type (0, 1), BuildingBlock: ZUJKAS_clean_linker_0, # of connection points: 2
#     Edge 47, Type (0, 1), BuildingBlock: ZUJKAS_clean_linker_0, # of connection points: 2
# Relax obj value: 0.001
# Max RMSD: 0.017
# Mean RMSD: 0.011
data_MOF--net-ssb--node1-KOZSID_clean_sbu_0--node2-MIFKUJ_clean_linker_1--edge1-ZUJKAS_clean_linker_0
_symmetry_space_group_name_H-M    P1
_symmetry_Int_Tables_number       1
_symmetry_cell_setting            triclinic
loop_
_symmetry_equiv_pos_as_xyz
'x, y, z'
_cell_length_a     78.033163
_cell_length_b     77.763951
_cell_length_c     57.451203
_cell_angle_alpha  91.746511
_cell_angle_beta   93.529134
_cell_angle_gamma 89.978195
loop_
_atom_site_label
_atom_site_type_symbol
_atom_site_fract_x
_atom_site_fract_y
_atom_site_fract_z
_atom_type_partial_charge
H0 H 0.27644 0.22665 0.22062 0.0
H1 H 0.30127 0.22759 0.19666 0.0
H2 H 0.31643 0.27635 0.22974 0.0
H3 H 0.2918 0.27513 0.254 0.0
H4 H 0.27526 0.22567 0.26748 0.0
H5 H 0.25562 0.26349 0.20681 0.0
H6 H 0.25646 0.2881 0.18142 0.0
H7 H 0.2555 0.32263 0.24166 0.0
H8 H 0.25515 0.29793 0.26701 0.0
H9 H 0.23194 0.27156 0.31798 0.0
H10 H 0.2072 0.27098 0.34215 0.0
H11 H 0.19075 0.22289 0.3083 0.0
H12 H 0.21539 0.22369 0.28393 0.0
H13 H 0.23247 0.27271 0.27065 0.0
H14 H 0.2506 0.23423 0.33118 0.0
H15 H 0.24943 0.20936 0.35592 0.0
H16 H 0.25362 0.17555 0.29543 0.0
H17 H 0.25383 0.20049 0.27065 0.0
C18 C 0.28219 0.25088 0.23897 0.0
C19 C 0.28513 0.23753 0.22271 0.0
C20 C 0.29925 0.23815 0.20891 0.0
C21 C 0.3108 0.25207 0.21126 0.0
C22 C 0.30786 0.26538 0.22765 0.0
C23 C 0.2937 0.26478 0.24138 0.0
C24 C 0.26728 0.25011 0.25374 0.0
C25 C 0.26572 0.2358 0.26797 0.0
C26 C 0.25513 0.26365 0.2546 0.0
C27 C 0.25552 0.27874 0.23897 0.0
C28 C 0.25576 0.27634 0.21462 0.0
C29 C 0.25606 0.29049 0.20005 0.0
C30 C 0.25607 0.30746 0.20939 0.0
C31 C 0.25574 0.30981 0.23378 0.0
C32 C 0.25539 0.29565 0.24834 0.0
C33 C 0.22557 0.24762 0.29927 0.0
C34 C 0.223 0.2609 0.31578 0.0
C35 C 0.20893 0.26048 0.32969 0.0
C36 C 0.19704 0.24686 0.32716 0.0
C37 C 0.19961 0.23361 0.31053 0.0
C38 C 0.21374 0.23399 0.29672 0.0
C39 C 0.24042 0.24824 0.28439 0.0
C40 C 0.24198 0.26255 0.27015 0.0
C41 C 0.25251 0.23464 0.28347 0.0
C42 C 0.25201 0.21938 0.29884 0.0
C43 C 0.25099 0.22147 0.32313 0.0
C44 C 0.25057 0.20714 0.33738 0.0
C45 C 0.2514 0.19026 0.32783 0.0
C46 C 0.25263 0.18824 0.30352 0.0
C47 C 0.25294 0.20257 0.28927 0.0
H48 H 0.70693 0.25744 0.26488 0.0
H49 H 0.67999 0.25885 0.24096 0.0
H50 H 0.70855 0.25933 0.17879 0.0
H51 H 0.7354 0.25841 0.20295 0.0
H52 H 0.73246 0.2325 0.26369 0.0
H53 H 0.72698 0.29346 0.25389 0.0
H54 H 0.72248 0.31936 0.23118 0.0
H55 H 0.76775 0.30729 0.19416 0.0
H56 H 0.77193 0.28119 0.21653 0.0
H57 H 0.80337 0.25585 0.26404 0.0
H58 H 0.83 0.25467 0.28865 0.0
H59 H 0.80063 0.24666 0.34881 0.0
H60 H 0.77409 0.2487 0.32431 0.0
H61 H 0.77745 0.27757 0.26371 0.0
H62 H 0.78342 0.21689 0.27347 0.0
H63 H 0.78681 0.18966 0.29349 0.0
H64 H 0.74084 0.20053 0.32959 0.0
H65 H 0.7375 0.22766 0.30946 0.0
C66 C 0.72312 0.25793 0.23568 0.0
C67 C 0.70734 0.25789 0.24609 0.0
C68 C 0.69196 0.25861 0.23237 0.0
C69 C 0.69207 0.25917 0.20791 0.0
C70 C 0.70796 0.2592 0.19757 0.0
C71 C 0.72333 0.2586 0.21133 0.0
C72 C 0.73938 0.25688 0.25029 0.0
C73 C 0.74221 0.24246 0.26398 0.0
C74 C 0.75227 0.2696 0.25011 0.0
C75 C 0.74969 0.28538 0.23669 0.0
C76 C 0.73585 0.29636 0.24076 0.0
C77 C 0.73337 0.31119 0.22792 0.0
C78 C 0.74474 0.31528 0.21087 0.0
C79 C 0.75866 0.30431 0.20697 0.0
C80 C 0.76114 0.2895 0.21984 0.0
C81 C 0.78673 0.25218 0.29226 0.0
C82 C 0.80269 0.25392 0.28255 0.0
C83 C 0.81791 0.25308 0.29662 0.0
C84 C 0.81747 0.2505 0.32072 0.0
C85 C 0.80145 0.24884 0.33039 0.0
C86 C 0.78625 0.24979 0.31634 0.0
C87 C 0.77058 0.25316 0.27731 0.0
C88 C 0.76774 0.26757 0.2635 0.0
C89 C 0.7577 0.24036 0.27728 0.0
C90 C 0.76025 0.22429 0.2901 0.0
C91 C 0.7742 0.21347 0.2859 0.0
C92 C 0.77612 0.19794 0.29733 0.0
C93 C 0.76403 0.19295 0.31298 0.0
C94 C 0.7502 0.20392 0.31732 0.0
C95 C 0.7483 0.21943 0.30593 0.0
H96 H 0.72312 0.77675 0.21212 0.0
H97 H 0.697 0.77567 0.18637 0.0
H98 H 0.68364 0.72693 0.21462 0.0
H99 H 0.70981 0.72809 0.24036 0.0
H100 H 0.72652 0.77819 0.25837 0.0
H101 H 0.74267 0.73862 0.19747 0.0
H102 H 0.74104 0.71307 0.1716 0.0
H103 H 0.74746 0.68081 0.23142 0.0
H104 H 0.7483 0.70638 0.25721 0.0
H105 H 0.7737 0.7337 0.30939 0.0
H106 H 0.80027 0.73483 0.33426 0.0
H107 H 0.81329 0.78323 0.30474 0.0
H108 H 0.7869 0.78178 0.27946 0.0
H109 H 0.7701 0.73181 0.2627 0.0
H110 H 0.75421 0.77129 0.32355 0.0
H111 H 0.75596 0.79676 0.34953 0.0
H112 H 0.7491 0.82918 0.28992 0.0
H113 H 0.74815 0.80367 0.264 0.0
C114 C 0.71849 0.75245 0.22804 0.0
C115 C 0.71457 0.76583 0.21275 0.0
C116 C 0.69961 0.76521 0.1981 0.0
C117 C 0.68824 0.75122 0.19849 0.0
C118 C 0.69225 0.73777 0.2137 0.0
C119 C 0.7072 0.73842 0.22842 0.0
C120 C 0.73408 0.75354 0.24415 0.0
C121 C 0.73621 0.76818 0.25912 0.0
C122 C 0.7464 0.74014 0.24543 0.0
C123 C 0.74537 0.72453 0.22944 0.0
C124 C 0.74348 0.72605 0.20508 0.0
C125 C 0.74277 0.71137 0.19022 0.0
C126 C 0.74409 0.69475 0.1993 0.0
C127 C 0.7461 0.6933 0.2237 0.0
C128 C 0.74675 0.70798 0.23853 0.0
C129 C 0.77826 0.7577 0.29269 0.0
C130 C 0.78227 0.74457 0.30833 0.0
C131 C 0.79739 0.7453 0.32265 0.0
C132 C 0.80887 0.75914 0.3215 0.0
C133 C 0.80478 0.77233 0.3059 0.0
C134 C 0.78963 0.7716 0.2916 0.0
C135 C 0.76255 0.75648 0.27686 0.0
C136 C 0.7604 0.74182 0.26195 0.0
C137 C 0.75021 0.76986 0.27563 0.0
C138 C 0.75128 0.78544 0.29167 0.0
C139 C 0.75333 0.78387 0.31601 0.0
C140 C 0.75411 0.79852 0.33093 0.0
C141 C 0.75269 0.81516 0.32195 0.0
C142 C 0.75053 0.81667 0.29756 0.0
C143 C 0.74981 0.80203 0.28266 0.0
H144 H 0.22355 0.73122 0.2894 0.0
H145 H 0.19921 0.73194 0.31409 0.0
H146 H 0.18296 0.78027 0.28471 0.0
H147 H 0.20677 0.77892 0.25912 0.0
H148 H 0.22545 0.72887 0.24432 0.0
H149 H 0.24415 0.77076 0.30341 0.0
H150 H 0.24273 0.79692 0.32791 0.0
H151 H 0.23954 0.82747 0.26615 0.0
H152 H 0.2404 0.80121 0.24175 0.0
H153 H 0.2685 0.77526 0.19538 0.0
H154 H 0.29366 0.77443 0.17198 0.0
H155 H 0.3093 0.72649 0.20278 0.0
H156 H 0.28433 0.72752 0.22646 0.0
H157 H 0.26583 0.77778 0.24031 0.0
H158 H 0.24596 0.73584 0.18121 0.0
H159 H 0.2463 0.70957 0.15674 0.0
H160 H 0.25278 0.67937 0.21865 0.0
H161 H 0.25198 0.70565 0.24293 0.0
C162 C 0.21716 0.75511 0.27256 0.0
C163 C 0.21468 0.74192 0.28818 0.0
C164 C 0.20083 0.74246 0.30249 0.0
C165 C 0.18913 0.75624 0.30157 0.0
C166 C 0.19158 0.76937 0.28577 0.0
C167 C 0.20535 0.76874 0.27131 0.0
C168 C 0.23195 0.75441 0.2574 0.0
C169 C 0.23439 0.73951 0.24371 0.0
C170 C 0.24341 0.76838 0.25599 0.0
C171 C 0.24224 0.7841 0.27081 0.0
C172 C 0.24293 0.78309 0.29518 0.0
C173 C 0.24226 0.79803 0.30913 0.0
C174 C 0.24103 0.81421 0.29891 0.0
C175 C 0.24026 0.81516 0.27449 0.0
C176 C 0.2409 0.80021 0.26055 0.0
C177 C 0.27435 0.75135 0.2125 0.0
C178 C 0.27735 0.76457 0.19712 0.0
C179 C 0.29174 0.76411 0.18379 0.0
C180 C 0.30343 0.75037 0.1855 0.0
C181 C 0.30039 0.73711 0.20082 0.0
C182 C 0.28608 0.73767 0.21432 0.0
C183 C 0.25933 0.75223 0.22723 0.0
C184 C 0.25685 0.76717 0.24087 0.0
C185 C 0.24782 0.73831 0.2286 0.0
C186 C 0.24898 0.7226 0.2138 0.0
C187 C 0.24759 0.72354 0.18943 0.0
C188 C 0.24784 0.70855 0.17551 0.0
C189 C 0.2495 0.6924 0.18579 0.0
C190 C 0.25118 0.69159 0.21023 0.0
C191 C 0.25082 0.70656 0.22412 0.0
H192 H 0.20554 0.76643 0.75223 0.0
H193 H 0.1788 0.76783 0.72787 0.0
H194 H 0.20767 0.76486 0.66604 0.0
H195 H 0.23438 0.76358 0.69053 0.0
H196 H 0.22842 0.74095 0.75456 0.0
H197 H 0.22839 0.80046 0.73421 0.0
H198 H 0.22732 0.82523 0.70902 0.0
H199 H 0.2743 0.80833 0.6795 0.0
H200 H 0.27488 0.78321 0.70406 0.0
H201 H 0.3013 0.75508 0.75136 0.0
H202 H 0.32794 0.75261 0.77565 0.0
H203 H 0.29878 0.75239 0.83726 0.0
H204 H 0.27233 0.75581 0.81297 0.0
H205 H 0.27829 0.7798 0.74915 0.0
H206 H 0.27692 0.7192 0.76693 0.0
H207 H 0.27792 0.69422 0.79176 0.0
H208 H 0.23457 0.71426 0.8273 0.0
H209 H 0.23337 0.73887 0.80185 0.0
C210 C 0.22196 0.76503 0.72321 0.0
C211 C 0.2061 0.76616 0.73342 0.0
C212 C 0.19083 0.76688 0.71948 0.0
C213 C 0.1911 0.76641 0.69501 0.0
C214 C 0.20703 0.76549 0.68483 0.0
C215 C 0.22231 0.76475 0.6988 0.0
C216 C 0.23804 0.76329 0.7381 0.0
C217 C 0.23926 0.74958 0.75362 0.0
C218 C 0.25228 0.7744 0.73632 0.0
C219 C 0.25159 0.7897 0.72094 0.0
C220 C 0.23835 0.80192 0.7221 0.0
C221 C 0.23788 0.81628 0.70782 0.0
C222 C 0.25071 0.81891 0.69206 0.0
C223 C 0.26402 0.8067 0.69107 0.0
C224 C 0.26447 0.79234 0.70533 0.0
C225 C 0.28479 0.75544 0.78029 0.0
C226 C 0.30067 0.75456 0.77011 0.0
C227 C 0.31588 0.75297 0.78402 0.0
C228 C 0.31553 0.75223 0.80843 0.0
C229 C 0.29957 0.75312 0.81856 0.0
C230 C 0.28439 0.75485 0.80466 0.0
C231 C 0.26868 0.75742 0.76548 0.0
C232 C 0.26745 0.77117 0.75001 0.0
C233 C 0.25443 0.74634 0.76723 0.0
C234 C 0.25512 0.73105 0.78252 0.0
C235 C 0.26765 0.71823 0.78012 0.0
C236 C 0.26825 0.70393 0.7945 0.0
C237 C 0.25635 0.70205 0.81178 0.0
C238 C 0.2438 0.71495 0.81405 0.0
C239 C 0.24313 0.72916 0.79953 0.0
H240 H 0.2939 0.25643 0.77885 0.0
H241 H 0.32131 0.25735 0.80196 0.0
H242 H 0.29413 0.25676 0.86526 0.0
H243 H 0.26683 0.25528 0.84202 0.0
H244 H 0.26839 0.23227 0.77605 0.0
H245 H 0.2728 0.29314 0.7958 0.0
H246 H 0.27772 0.31777 0.82273 0.0
H247 H 0.2368 0.30021 0.8637 0.0
H248 H 0.23161 0.27591 0.83611 0.0
H249 H 0.19741 0.25581 0.78071 0.0
H250 H 0.17097 0.25644 0.75559 0.0
H251 H 0.20085 0.25219 0.69475 0.0
H252 H 0.22716 0.25249 0.71987 0.0
H253 H 0.22374 0.27688 0.78631 0.0
H254 H 0.21754 0.21724 0.76502 0.0
H255 H 0.21383 0.19116 0.74023 0.0
H256 H 0.25893 0.20453 0.70459 0.0
H257 H 0.26241 0.23068 0.72914 0.0
C258 C 0.27834 0.25593 0.80872 0.0
C259 C 0.29388 0.25642 0.7977 0.0
C260 C 0.30951 0.2571 0.81094 0.0
C261 C 0.30989 0.2572 0.83545 0.0
C262 C 0.29428 0.25655 0.84642 0.0
C263 C 0.27867 0.25587 0.83317 0.0
C264 C 0.26178 0.25551 0.79461 0.0
C265 C 0.25871 0.24213 0.77806 0.0
C266 C 0.24893 0.26801 0.79773 0.0
C267 C 0.25186 0.28281 0.81406 0.0
C268 C 0.26493 0.29464 0.81063 0.0
C269 C 0.26782 0.30859 0.82615 0.0
C270 C 0.2577 0.3109 0.84544 0.0
C271 C 0.24466 0.29891 0.84886 0.0
C272 C 0.24169 0.28504 0.83318 0.0
C273 C 0.21427 0.25387 0.75221 0.0
C274 C 0.19824 0.25511 0.76195 0.0
C275 C 0.18313 0.25531 0.74756 0.0
C276 C 0.18375 0.25431 0.72312 0.0
C277 C 0.19986 0.25319 0.71346 0.0
C278 C 0.21494 0.25311 0.72783 0.0
C279 C 0.23035 0.25367 0.76744 0.0
C280 C 0.23334 0.26694 0.78426 0.0
C281 C 0.2431 0.24097 0.76466 0.0
C282 C 0.24021 0.22585 0.7488 0.0
C283 C 0.22646 0.21464 0.75163 0.0
C284 C 0.22442 0.19974 0.7376 0.0
C285 C 0.23609 0.19588 0.72054 0.0
C286 C 0.24963 0.20732 0.71742 0.0
C287 C 0.25171 0.22216 0.73153 0.0
H288 H 0.72792 0.23272 0.8102 0.0
H289 H 0.70342 0.23388 0.83477 0.0
H290 H 0.68732 0.28173 0.80398 0.0
H291 H 0.71157 0.28022 0.77899 0.0
H292 H 0.72857 0.23059 0.76333 0.0
H293 H 0.74864 0.27088 0.82492 0.0
H294 H 0.74788 0.29654 0.85046 0.0
H295 H 0.74596 0.32847 0.79008 0.0
H296 H 0.74705 0.30273 0.76473 0.0
H297 H 0.77309 0.27639 0.71623 0.0
H298 H 0.79798 0.27526 0.69236 0.0
H299 H 0.81222 0.22613 0.72082 0.0
H300 H 0.78745 0.22743 0.74493 0.0
H301 H 0.77103 0.27787 0.76145 0.0
H302 H 0.753 0.23766 0.69981 0.0
H303 H 0.75435 0.2121 0.67425 0.0
H304 H 0.75046 0.1799 0.73371 0.0
H305 H 0.75008 0.20551 0.75929 0.0
C306 C 0.72167 0.25645 0.79289 0.0
C307 C 0.71909 0.24344 0.80873 0.0
C308 C 0.70516 0.2442 0.8229 0.0
C309 C 0.69344 0.25793 0.8214 0.0
C310 C 0.69602 0.27091 0.80543 0.0
C311 C 0.70997 0.27015 0.79129 0.0
C312 C 0.7364 0.25548 0.77774 0.0
C313 C 0.73803 0.24079 0.76309 0.0
C314 C 0.74839 0.26911 0.7771 0.0
C315 C 0.74777 0.28479 0.7928 0.0
C316 C 0.74794 0.2834 0.81716 0.0
C317 C 0.74745 0.29815 0.83179 0.0
C318 C 0.74682 0.31472 0.82246 0.0
C319 C 0.7467 0.31603 0.79803 0.0
C320 C 0.74725 0.30127 0.78344 0.0
C321 C 0.77827 0.25192 0.73221 0.0
C322 C 0.78159 0.26539 0.71738 0.0
C323 C 0.79583 0.26474 0.70378 0.0
C324 C 0.80704 0.25059 0.70469 0.0
C325 C 0.80369 0.23709 0.71951 0.0
C326 C 0.78952 0.23782 0.73327 0.0
C327 C 0.76331 0.2529 0.74702 0.0
C328 C 0.7616 0.26763 0.76162 0.0
C329 C 0.75122 0.23929 0.74752 0.0
C330 C 0.75171 0.22364 0.73166 0.0
C331 C 0.75268 0.2251 0.70743 0.0
C332 C 0.75322 0.2104 0.69273 0.0
C333 C 0.75255 0.19378 0.70178 0.0
C334 C 0.75133 0.19238 0.72602 0.0
C335 C 0.75091 0.20709 0.74073 0.0
H336 H 0.7762 0.73317 0.70749 0.0
H337 H 0.80092 0.73452 0.68344 0.0
H338 H 0.81972 0.77919 0.72374 0.0
H339 H 0.79522 0.77746 0.74815 0.0
H340 H 0.77484 0.72798 0.75309 0.0
H341 H 0.75734 0.77256 0.70126 0.0
H342 H 0.75839 0.79967 0.68099 0.0
H343 H 0.76169 0.82757 0.74737 0.0
H344 H 0.76121 0.80036 0.76754 0.0
H345 H 0.73337 0.77248 0.81019 0.0
H346 H 0.70841 0.77101 0.83378 0.0
H347 H 0.69078 0.72557 0.79425 0.0
H348 H 0.7157 0.72716 0.77062 0.0
H349 H 0.73565 0.7772 0.76541 0.0
H350 H 0.75299 0.73284 0.81737 0.0
H351 H 0.75131 0.70587 0.83784 0.0
H352 H 0.74844 0.67764 0.7717 0.0
H353 H 0.74954 0.70473 0.75131 0.0
C354 C 0.78378 0.75529 0.72952 0.0
C355 C 0.78566 0.74324 0.71116 0.0
C356 C 0.79973 0.74412 0.6973 0.0
C357 C 0.81227 0.757 0.70161 0.0
C358 C 0.81037 0.76902 0.72007 0.0
C359 C 0.79628 0.76816 0.7339 0.0
C360 C 0.76892 0.75411 0.74437 0.0
C361 C 0.76613 0.73867 0.75552 0.0
C362 C 0.75783 0.76818 0.74815 0.0
C363 C 0.75934 0.78448 0.73589 0.0
C364 C 0.75858 0.7845 0.71143 0.0
C365 C 0.75901 0.8 0.69988 0.0
C366 C 0.76006 0.81573 0.71261 0.0
C367 C 0.76107 0.81564 0.73711 0.0
C368 C 0.76066 0.80014 0.74865 0.0
C369 C 0.72653 0.74984 0.78876 0.0
C370 C 0.72412 0.76221 0.80658 0.0
C371 C 0.70982 0.76138 0.82002 0.0
C372 C 0.69762 0.74816 0.81591 0.0
C373 C 0.70007 0.73577 0.79808 0.0
C374 C 0.71433 0.73666 0.78457 0.0
C375 C 0.74155 0.75106 0.77415 0.0
C376 C 0.74437 0.76651 0.76304 0.0
C377 C 0.7527 0.73702 0.77047 0.0
C378 C 0.75123 0.72076 0.78284 0.0
C379 C 0.75176 0.72085 0.80729 0.0
C380 C 0.75098 0.70544 0.81895 0.0
C381 C 0.74978 0.68966 0.80635 0.0
C382 C 0.74915 0.68962 0.78185 0.0
C383 C 0.74992 0.70505 0.7702 0.0
C384 C 0.02632 0.2654 0.55599 0.0
C385 C 0.0309 0.2815 0.56551 0.0
C386 C 0.02201 0.29329 0.5525 0.0
C387 C 0.01246 0.28377 0.53596 0.0
N388 N 0.01459 0.26658 0.53772 0.0
Co389 Co 0.0029 0.24802 0.51755 0.0
N390 N 0.99075 0.26544 0.49744 0.0
C391 C 0.99245 0.28276 0.49921 0.0
C392 C 0.98258 0.29133 0.48278 0.0
C393 C 0.9739 0.27877 0.46986 0.0
C394 C 0.97892 0.2632 0.47933 0.0
N395 N 0.99088 0.22948 0.49765 0.0
C396 C 0.97863 0.23068 0.47998 0.0
C397 C 0.97292 0.21457 0.47178 0.0
C398 C 0.98183 0.20277 0.48473 0.0
C399 C 0.99236 0.21228 0.50013 0.0
N400 N 0.01537 0.2306 0.53737 0.0
C401 C 0.0144 0.21327 0.53475 0.0
C402 C 0.0251 0.20466 0.55016 0.0
C403 C 0.03359 0.21722 0.56331 0.0
C404 C 0.02744 0.23285 0.55522 0.0
N405 N 0.98349 0.24821 0.53842 0.0
C406 C 0.95519 0.24828 0.56681 0.0
C407 C 0.96378 0.23303 0.56143 0.0
C408 C 0.97771 0.23327 0.54731 0.0
C409 C 0.96119 0.26353 0.55789 0.0
C410 C 0.97525 0.26321 0.54396 0.0
N411 N 0.0223 0.24783 0.49666 0.0
C412 C 0.04278 0.23219 0.47418 0.0
C413 C 0.05042 0.2475 0.46802 0.0
C414 C 0.04365 0.26299 0.47629 0.0
C415 C 0.02976 0.26286 0.49052 0.0
C416 C 0.02883 0.23265 0.48829 0.0
H417 H 0.02538 0.27508 0.49647 0.0
H418 H 0.02358 0.22054 0.49223 0.0
H419 H 0.98355 0.22119 0.54377 0.0
H420 H 0.97911 0.27527 0.53771 0.0
C421 C 0.00235 0.29061 0.51761 0.0
C422 C 0.03391 0.24946 0.56447 0.0
C423 C 0.97153 0.24674 0.47112 0.0
C424 C 0.00346 0.20545 0.51742 0.0
H425 H 0.03997 0.28442 0.58011 0.0
H426 H 0.02273 0.30716 0.55451 0.0
H427 H 0.98147 0.3051 0.48085 0.0
H428 H 0.96463 0.28084 0.45542 0.0
H429 H 0.96309 0.21161 0.45814 0.0
H430 H 0.98056 0.18891 0.48338 0.0
H431 H 0.02674 0.19089 0.55143 0.0
H432 H 0.0434 0.21505 0.57703 0.0
H433 H 0.95987 0.22089 0.56821 0.0
H434 H 0.9549 0.27569 0.56125 0.0
H435 H 0.04742 0.21987 0.46793 0.0
H436 H 0.04925 0.27519 0.47219 0.0
C437 C 0.73941 0.03343 0.54095 0.0
C438 C 0.7235 0.03979 0.54657 0.0
C439 C 0.71141 0.02989 0.53438 0.0
C440 C 0.72054 0.01798 0.5222 0.0
N441 N 0.73776 0.01961 0.52588 0.0
Co442 Co 0.75567 0.0044 0.5122 0.0
N443 N 0.73781 0.99021 0.49362 0.0
C444 C 0.72063 0.99279 0.49263 0.0
C445 C 0.71158 0.98136 0.47801 0.0
C446 C 0.72366 0.97079 0.4691 0.0
C447 C 0.73948 0.97631 0.47899 0.0
N448 N 0.77355 0.98893 0.49895 0.0
C449 C 0.77187 0.97486 0.48432 0.0
C450 C 0.78769 0.96747 0.48047 0.0
C451 C 0.79978 0.97724 0.49287 0.0
C452 C 0.79073 0.98992 0.50371 0.0
N453 N 0.77355 0.01886 0.53036 0.0
C454 C 0.79078 0.01688 0.5303 0.0
C455 C 0.79989 0.02911 0.5435 0.0
C456 C 0.7878 0.03962 0.55251 0.0
C457 C 0.7719 0.03308 0.54442 0.0
N458 N 0.7544 0.98892 0.53877 0.0
C459 C 0.75295 0.96535 0.57474 0.0
C460 C 0.76858 0.97233 0.56913 0.0
C461 C 0.76901 0.98401 0.55128 0.0
C462 C 0.73799 0.97075 0.56254 0.0
C463 C 0.739 0.9825 0.54481 0.0
N464 N 0.75697 0.01991 0.48567 0.0
C465 C 0.77388 0.03604 0.46008 0.0
C466 C 0.75919 0.04411 0.45065 0.0
C467 C 0.74329 0.03936 0.45833 0.0
C468 C 0.74248 0.02727 0.47566 0.0
C469 C 0.77248 0.02405 0.47737 0.0
H470 H 0.73001 0.0243 0.4809 0.0
H471 H 0.78418 0.01858 0.48405 0.0
H472 H 0.78134 0.98865 0.54771 0.0
H473 H 0.72716 0.98601 0.53608 0.0
C474 C 0.71333 0.00559 0.50643 0.0
C475 C 0.75565 0.04103 0.55035 0.0
C476 C 0.75565 0.96787 0.4739 0.0
C477 C 0.79802 0.0032 0.518 0.0
H478 H 0.72087 0.05053 0.55822 0.0
H479 H 0.69761 0.03131 0.53425 0.0
H480 H 0.69781 0.98069 0.47442 0.0
H481 H 0.72109 0.96017 0.45678 0.0
H482 H 0.79026 0.95613 0.46987 0.0
H483 H 0.81355 0.97532 0.49387 0.0
H484 H 0.8137 0.03028 0.5462 0.0
H485 H 0.79044 0.05088 0.56367 0.0
H486 H 0.78055 0.9684 0.57796 0.0
H487 H 0.72554 0.96588 0.56655 0.0
H488 H 0.78651 0.03938 0.45476 0.0
H489 H 0.73151 0.04505 0.45117 0.0
C490 C 0.02781 0.7765 0.53924 0.0
C491 C 0.03376 0.79265 0.54693 0.0
C492 C 0.0243 0.80438 0.53454 0.0
C493 C 0.01323 0.79479 0.51998 0.0
N494 N 0.01488 0.77761 0.52248 0.0
Co495 Co 0.00198 0.75895 0.5039 0.0
N496 N 0.98856 0.77626 0.48502 0.0
C497 C 0.98979 0.79361 0.48711 0.0
C498 C 0.97839 0.80212 0.4725 0.0
C499 C 0.96914 0.78949 0.46053 0.0
C500 C 0.97554 0.77392 0.46849 0.0
N501 N 0.98927 0.74029 0.48512 0.0
C502 C 0.97634 0.74139 0.46837 0.0
C503 C 0.97104 0.72526 0.45975 0.0
C504 C 0.98076 0.71352 0.47177 0.0
C505 C 0.99144 0.7231 0.4869 0.0
N506 N 0.01519 0.74164 0.52302 0.0
C507 C 0.01359 0.7243 0.52142 0.0
C508 C 0.02444 0.71582 0.53681 0.0
C509 C 0.03366 0.72846 0.54884 0.0
C510 C 0.02792 0.74398 0.53995 0.0
N511 N 0.98381 0.7593 0.5267 0.0
C512 C 0.95701 0.75978 0.55754 0.0
C513 C 0.96368 0.74425 0.54923 0.0
C514 C 0.97694 0.74431 0.53396 0.0
C515 C 0.96417 0.77506 0.5504 0.0
C516 C 0.97747 0.77454 0.53518 0.0
N517 N 0.02016 0.75858 0.48108 0.0
C518 C 0.04121 0.743 0.45951 0.0
C519 C 0.04694 0.75819 0.45022 0.0
C520 C 0.03887 0.77356 0.45635 0.0
C521 C 0.02567 0.77347 0.47174 0.0
C522 C 0.02786 0.74347 0.47464 0.0
H523 H 0.02028 0.78564 0.47598 0.0
H524 H 0.02409 0.73143 0.48099 0.0
H525 H 0.98127 0.73205 0.52808 0.0
H526 H 0.98234 0.78663 0.53043 0.0
C527 C 0.00143 0.80153 0.50346 0.0
C528 C 0.03534 0.76053 0.54768 0.0
C529 C 0.9683 0.75731 0.46063 0.0
C530 C 0.00264 0.71635 0.50419 0.0
H531 H 0.04407 0.79567 0.55986 0.0
H532 H 0.02556 0.81825 0.5357 0.0
H533 H 0.97676 0.81588 0.47109 0.0
H534 H 0.95865 0.79155 0.44772 0.0
H535 H 0.96095 0.72231 0.44645 0.0
H536 H 0.97981 0.69964 0.47014 0.0
H537 H 0.02579 0.70206 0.53865 0.0
H538 H 0.0437 0.72647 0.56234 0.0
H539 H 0.95846 0.73205 0.55406 0.0
H540 H 0.95962 0.78743 0.55663 0.0
H541 H 0.04692 0.73073 0.455 0.0
H542 H 0.04295 0.78569 0.44973 0.0
C543 C 0.26584 0.97689 0.54159 0.0
C544 C 0.28169 0.97093 0.55023 0.0
C545 C 0.29383 0.98124 0.54171 0.0
C546 C 0.28478 0.99292 0.52849 0.0
N547 N 0.26755 0.99077 0.52804 0.0
Co548 Co 0.24971 0.00526 0.51114 0.0
N549 N 0.26766 0.02031 0.49837 0.0
C550 C 0.28488 0.01868 0.5019 0.0
C551 C 0.29404 0.03054 0.49061 0.0
C552 C 0.28198 0.04041 0.47917 0.0
C553 C 0.26605 0.03407 0.48429 0.0
N554 N 0.23186 0.01982 0.49435 0.0
C555 C 0.23356 0.03379 0.48095 0.0
C556 C 0.21767 0.04029 0.47335 0.0
C557 C 0.20554 0.03002 0.48195 0.0
C558 C 0.21461 0.01793 0.49441 0.0
N559 N 0.23176 0.99013 0.52379 0.0
C560 C 0.21454 0.99149 0.51981 0.0
C561 C 0.20542 0.97918 0.53031 0.0
C562 C 0.21749 0.96931 0.54171 0.0
C563 C 0.23338 0.97624 0.53761 0.0
N564 N 0.24902 0.0208 0.53899 0.0
C565 C 0.24783 0.04457 0.57667 0.0
C566 C 0.23278 0.03769 0.56582 0.0
C567 C 0.23366 0.02587 0.54725 0.0
C568 C 0.26353 0.03891 0.56889 0.0
C569 C 0.26382 0.02709 0.55018 0.0
N570 N 0.25039 0.98972 0.4833 0.0
C571 C 0.23559 0.97229 0.45293 0.0
C572 C 0.25114 0.96571 0.44587 0.0
C573 C 0.26634 0.97184 0.45722 0.0
C574 C 0.26568 0.9838 0.47571 0.0
C575 C 0.23552 0.98423 0.47147 0.0
H576 H 0.27768 0.98784 0.48378 0.0
H577 H 0.22326 0.98853 0.47618 0.0
H578 H 0.22173 0.02128 0.53964 0.0
H579 H 0.27616 0.02343 0.54493 0.0
C580 C 0.29208 0.00592 0.51604 0.0
C581 C 0.24959 0.96896 0.54697 0.0
C582 C 0.24983 0.04151 0.47517 0.0
C583 C 0.20731 0.0046 0.50627 0.0
H584 H 0.28424 0.96025 0.56157 0.0
H585 H 0.30762 0.9803 0.54476 0.0
H586 H 0.30785 0.03184 0.49065 0.0
H587 H 0.28465 0.05104 0.46823 0.0
H588 H 0.21507 0.05138 0.46278 0.0
H589 H 0.19174 0.03126 0.47947 0.0
H590 H 0.19162 0.97756 0.52971 0.0
H591 H 0.21488 0.95819 0.55182 0.0
H592 H 0.22028 0.0418 0.57108 0.0
H593 H 0.27556 0.04369 0.57704 0.0
H594 H 0.22346 0.96781 0.44477 0.0
H595 H 0.27871 0.96729 0.45206 0.0
C596 C 0.5256 0.76456 0.04103 0.0
C597 C 0.53055 0.78069 0.05004 0.0
C598 C 0.52143 0.79245 0.03723 0.0
C599 C 0.51148 0.78288 0.02118 0.0
N600 N 0.51357 0.7657 0.02308 0.0
Co601 Co 0.50188 0.74709 0.00297 0.0
N602 N 0.48987 0.76443 0.98263 0.0
C603 C 0.49172 0.78174 0.98417 0.0
C604 C 0.48191 0.79026 0.96762 0.0
C605 C 0.47312 0.77767 0.95488 0.0
C606 C 0.47801 0.76215 0.96457 0.0
N607 N 0.4898 0.72849 0.98326 0.0
C608 C 0.4775 0.72965 0.96564 0.0
C609 C 0.47164 0.71353 0.95771 0.0
C610 C 0.48049 0.70176 0.9708 0.0
C611 C 0.49112 0.7113 0.98602 0.0
N612 N 0.5143 0.72974 0.0229 0.0
C613 C 0.51315 0.7124 0.02064 0.0
C614 C 0.52373 0.70386 0.03632 0.0
C615 C 0.53239 0.71649 0.04914 0.0
C616 C 0.52658 0.73205 0.04044 0.0
N617 N 0.4824 0.74748 0.02375 0.0
C618 C 0.45366 0.74783 0.0514 0.0
C619 C 0.46243 0.73256 0.0467 0.0
C620 C 0.47659 0.73267 0.03295 0.0
C621 C 0.45977 0.76298 0.04231 0.0
C622 C 0.47405 0.76253 0.02878 0.0
N623 N 0.52134 0.7467 0.98218 0.0
C624 C 0.54156 0.73087 0.95948 0.0
C625 C 0.5498 0.74607 0.95412 0.0
C626 C 0.54339 0.7616 0.96282 0.0
C627 C 0.52927 0.76162 0.97662 0.0
C628 C 0.5275 0.73147 0.97343 0.0
H629 H 0.52507 0.77389 0.98268 0.0
H630 H 0.52196 0.71942 0.97709 0.0
H631 H 0.48253 0.72056 0.0299 0.0
H632 H 0.47796 0.77451 0.02236 0.0
C633 C 0.50153 0.78965 0.00261 0.0
C634 C 0.53346 0.74862 0.04903 0.0
C635 C 0.47043 0.7457 0.95669 0.0
C636 C 0.50217 0.70452 0.00343 0.0
H637 H 0.54016 0.78371 0.06395 0.0
H638 H 0.52245 0.80632 0.03882 0.0
H639 H 0.48087 0.80402 0.96553 0.0
H640 H 0.46384 0.7797 0.94044 0.0
H641 H 0.46173 0.71053 0.94419 0.0
H642 H 0.47907 0.68791 0.9697 0.0
H643 H 0.52514 0.6901 0.038 0.0
H644 H 0.54207 0.71449 0.06311 0.0
H645 H 0.45847 0.7205 0.05367 0.0
H646 H 0.45337 0.77515 0.04518 0.0
H647 H 0.54613 0.71849 0.95334 0.0
H648 H 0.54917 0.77375 0.95887 0.0
C649 C 0.23682 0.52502 0.04165 0.0
C650 C 0.2198 0.52869 0.04554 0.0
C651 C 0.21004 0.51901 0.02958 0.0
C652 C 0.22161 0.51009 0.01688 0.0
N653 N 0.23819 0.51325 0.02402 0.0
Co654 Co 0.25922 0.50398 0.00968 0.0
N655 N 0.24488 0.49088 0.98505 0.0
C656 C 0.22756 0.49053 0.98199 0.0
C657 C 0.22151 0.47988 0.96388 0.0
C658 C 0.23582 0.47271 0.95517 0.0
C659 C 0.24977 0.47942 0.96861 0.0
N660 N 0.28024 0.49485 0.99518 0.0
C661 C 0.28162 0.4829 0.97777 0.0
C662 C 0.29863 0.4796 0.97345 0.0
C663 C 0.30838 0.48969 0.98894 0.0
C664 C 0.29681 0.49849 0.00178 0.0
N665 N 0.27356 0.51687 0.03448 0.0
C666 C 0.29089 0.51701 0.03766 0.0
C667 C 0.29696 0.5272 0.05624 0.0
C668 C 0.28268 0.53421 0.06523 0.0
C669 C 0.2687 0.52791 0.05144 0.0
N670 N 0.25903 0.48353 0.03003 0.0
C671 C 0.25876 0.45452 0.05898 0.0
C672 C 0.274 0.46333 0.0555 0.0
C673 C 0.27386 0.47757 0.04106 0.0
C674 C 0.24367 0.46052 0.04749 0.0
C675 C 0.24409 0.47487 0.0333 0.0
N676 N 0.25939 0.52445 0.98932 0.0
C677 C 0.27427 0.54858 0.97366 0.0
C678 C 0.25944 0.55374 0.96072 0.0
C679 C 0.2446 0.54386 0.9625 0.0
C680 C 0.24483 0.52954 0.97679 0.0
C681 C 0.27398 0.53407 0.98761 0.0
H682 H 0.23301 0.52281 0.9774 0.0
H683 H 0.28572 0.53095 0.99698 0.0
H684 H 0.28595 0.48351 0.039 0.0
H685 H 0.23213 0.47874 0.02515 0.0
C686 C 0.21733 0.49955 0.99728 0.0
C687 C 0.25124 0.53389 0.05392 0.0
C688 C 0.26726 0.4734 0.96642 0.0
C689 C 0.3011 0.50858 0.0218 0.0
H690 H 0.21494 0.53777 0.05814 0.0
H691 H 0.19618 0.51893 0.02702 0.0
H692 H 0.20826 0.47721 0.95821 0.0
H693 H 0.236 0.46316 0.94107 0.0
H694 H 0.30352 0.4704 0.96102 0.0
H695 H 0.32225 0.48994 0.99132 0.0
H696 H 0.31021 0.52972 0.06202 0.0
H697 H 0.28254 0.5434 0.07976 0.0
H698 H 0.28612 0.45911 0.06359 0.0
H699 H 0.23147 0.45434 0.04968 0.0
H700 H 0.2861 0.55582 0.97339 0.0
H701 H 0.23277 0.54696 0.95269 0.0
C702 C 0.47769 0.27572 0.98224 0.0
C703 C 0.47238 0.29168 0.97439 0.0
C704 C 0.48165 0.30369 0.98758 0.0
C705 C 0.4921 0.29441 0.00257 0.0
N706 N 0.4902 0.27717 0.99961 0.0
Co707 Co 0.50276 0.25887 0.01768 0.0
N708 N 0.5152 0.27655 0.03852 0.0
C709 C 0.51317 0.29383 0.03822 0.0
C710 C 0.52341 0.30262 0.05477 0.0
C711 C 0.53268 0.29025 0.0662 0.0
C712 C 0.52762 0.27457 0.05576 0.0
N713 N 0.51562 0.24058 0.03544 0.0
C714 C 0.52839 0.24205 0.05251 0.0
C715 C 0.53461 0.22606 0.05908 0.0
C716 C 0.52548 0.21407 0.04569 0.0
C717 C 0.51435 0.22335 0.03166 0.0
N718 N 0.49 0.24118 0.99714 0.0
C719 C 0.49139 0.22387 0.99819 0.0
C720 C 0.4804 0.21506 0.9826 0.0
C721 C 0.47124 0.22746 0.97108 0.0
C722 C 0.47727 0.24319 0.98031 0.0
N723 N 0.52146 0.25942 0.99572 0.0
C724 C 0.5488 0.26007 0.96579 0.0
C725 C 0.54085 0.2446 0.97065 0.0
C726 C 0.52735 0.24457 0.98553 0.0
C727 C 0.5427 0.27523 0.976 0.0
C728 C 0.52912 0.27462 0.9907 0.0
N729 N 0.48405 0.25832 0.03963 0.0
C730 C 0.46464 0.24234 0.06219 0.0
C731 C 0.45652 0.25747 0.06922 0.0
C732 C 0.46258 0.27305 0.06144 0.0
C733 C 0.47626 0.27318 0.04687 0.0
C734 C 0.47823 0.24305 0.0475 0.0
H735 H 0.48023 0.28548 0.0416 0.0
H736 H 0.4837 0.23104 0.04257 0.0
H737 H 0.52201 0.23234 0.98867 0.0
H738 H 0.5251 0.28662 0.99789 0.0
C739 C 0.50262 0.30148 0.02096 0.0
C740 C 0.46994 0.25962 0.97331 0.0
C741 C 0.53552 0.25827 0.06221 0.0
C742 C 0.50289 0.21628 0.01436 0.0
H743 H 0.46252 0.29435 0.9609 0.0
H744 H 0.48051 0.31754 0.98685 0.0
H745 H 0.52437 0.31641 0.05774 0.0
H746 H 0.54235 0.29252 0.08027 0.0
H747 H 0.54491 0.22329 0.07188 0.0
H748 H 0.52704 0.20024 0.04582 0.0
H749 H 0.47899 0.20126 0.98021 0.0
H750 H 0.46105 0.22515 0.95772 0.0
H751 H 0.54523 0.23248 0.96338 0.0
H752 H 0.54828 0.28757 0.97251 0.0
H753 H 0.46032 0.22992 0.06759 0.0
H754 H 0.45689 0.28515 0.0667 0.0
C755 C 0.72691 0.53421 0.03828 0.0
C756 C 0.71101 0.54151 0.0419 0.0
C757 C 0.69907 0.53172 0.02926 0.0
C758 C 0.70828 0.51908 0.01857 0.0
N759 N 0.72542 0.52016 0.0236 0.0
Co760 Co 0.74348 0.50448 0.0112 0.0
N761 N 0.72585 0.49028 0.99217 0.0
C762 C 0.70868 0.49291 0.9906 0.0
C763 C 0.69981 0.48132 0.97602 0.0
C764 C 0.71201 0.47057 0.9678 0.0
C765 C 0.7277 0.47616 0.97799 0.0
N766 N 0.76154 0.48875 0.99891 0.0
C767 C 0.76005 0.47466 0.98428 0.0
C768 C 0.77593 0.46719 0.981 0.0
C769 C 0.78785 0.47693 0.99375 0.0
C770 C 0.77866 0.48968 0.00421 0.0
N771 N 0.76113 0.51875 0.0301 0.0
C772 C 0.77832 0.51622 0.03149 0.0
C773 C 0.78721 0.52795 0.04582 0.0
C774 C 0.77502 0.53871 0.05403 0.0
C775 C 0.7593 0.53296 0.0441 0.0
N776 N 0.74122 0.48924 0.03784 0.0
C777 C 0.73811 0.46523 0.07291 0.0
C778 C 0.75419 0.47131 0.06763 0.0
C779 C 0.75544 0.48325 0.05021 0.0
C780 C 0.72357 0.47191 0.06109 0.0
C781 C 0.72541 0.48388 0.04384 0.0
N782 N 0.74573 0.51968 0.98451 0.0
C783 C 0.76342 0.53558 0.95958 0.0
C784 C 0.74888 0.54233 0.9478 0.0
C785 C 0.73276 0.53728 0.95434 0.0
C786 C 0.7315 0.52603 0.97256 0.0
C787 C 0.76156 0.52432 0.9777 0.0
H788 H 0.71885 0.52286 0.97682 0.0
H789 H 0.77312 0.51968 0.98604 0.0
H790 H 0.76806 0.48713 0.04678 0.0
H791 H 0.71385 0.48838 0.03536 0.0
C792 C 0.70124 0.50632 0.00321 0.0
C793 C 0.74304 0.54139 0.04875 0.0
C794 C 0.74396 0.46766 0.97347 0.0
C795 C 0.78573 0.50262 0.01924 0.0
H796 H 0.70831 0.55287 0.05238 0.0
H797 H 0.68532 0.5337 0.0278 0.0
H798 H 0.6861 0.48076 0.97187 0.0
H799 H 0.70959 0.45982 0.95562 0.0
H800 H 0.77864 0.45578 0.97062 0.0
H801 H 0.80159 0.47486 0.99537 0.0
H802 H 0.80094 0.52858 0.04986 0.0
H803 H 0.77745 0.54955 0.06605 0.0
H804 H 0.76585 0.46642 0.07627 0.0
H805 H 0.71081 0.4678 0.06493 0.0
H806 H 0.7762 0.53897 0.95489 0.0
H807 H 0.72111 0.54235 0.94591 0.0
H808 H 0.16375 0.23916 0.31297 0.0
H809 H 0.13871 0.23946 0.33663 0.0
H810 H 0.17105 0.25409 0.39759 0.0
H811 H 0.19612 0.25399 0.374 0.0
H812 H 0.13159 0.2209 0.37413 0.0
H813 H 0.13384 0.29038 0.39878 0.0
H814 H 0.14637 0.28114 0.37619 0.0
H815 H 0.15349 0.27933 0.40641 0.0
C816 C 0.16553 0.24237 0.33144 0.0
C817 C 0.18189 0.24665 0.3416 0.0
C818 C 0.15121 0.2426 0.34491 0.0
C819 C 0.15295 0.2471 0.36879 0.0
C820 C 0.16932 0.25103 0.37908 0.0
H821 H 0.07856 0.22653 0.47116 0.0
H822 H 0.1032 0.22626 0.44682 0.0
C823 C 0.18364 0.25092 0.36559 0.0
C824 C 0.13766 0.2474 0.38297 0.0
H825 H 0.11461 0.27316 0.41871 0.0
C826 C 0.12783 0.23234 0.38381 0.0
C827 C 0.13262 0.26241 0.39531 0.0
C828 C 0.14202 0.27928 0.39398 0.0
C829 C 0.11326 0.23179 0.39695 0.0
C830 C 0.10862 0.24661 0.41003 0.0
C831 C 0.11829 0.26175 0.40888 0.0
C832 C 0.09369 0.24675 0.42485 0.0
C833 C 0.10281 0.21544 0.39633 0.0
C834 C 0.08038 0.25868 0.42106 0.0
C835 C 0.06635 0.25896 0.43508 0.0
C836 C 0.06536 0.2473 0.45318 0.0
C837 C 0.07879 0.23546 0.45708 0.0
C838 C 0.09287 0.23527 0.44315 0.0
H839 H 0.10507 0.20725 0.38064 0.0
H840 H 0.10658 0.20793 0.41194 0.0
H841 H 0.08887 0.21828 0.39648 0.0
H842 H 0.08078 0.2677 0.40709 0.0
H843 H 0.05615 0.26815 0.43153 0.0
H844 H 0.79302 0.17836 0.33299 0.0
H845 H 0.79524 0.15101 0.35305 0.0
H846 H 0.7408 0.14288 0.33962 0.0
H847 H 0.73857 0.16985 0.31901 0.0
H848 H 0.77841 0.14305 0.39233 0.0
H849 H 0.76103 0.09667 0.31963 0.0
H850 H 0.76737 0.11858 0.31493 0.0
H851 H 0.74575 0.1138 0.32191 0.0
C852 C 0.7816 0.17057 0.33397 0.0
C853 C 0.76562 0.17622 0.32449 0.0
C854 C 0.78288 0.15502 0.34548 0.0
C855 C 0.76823 0.14485 0.34745 0.0
C856 C 0.75231 0.15039 0.33783 0.0
H857 H 0.74201 0.07462 0.45008 0.0
H858 H 0.74556 0.09846 0.4241 0.0
C859 C 0.75102 0.1659 0.32636 0.0
C860 C 0.76923 0.12907 0.36108 0.0
H861 H 0.75884 0.08642 0.35842 0.0
C862 C 0.77437 0.13061 0.38487 0.0
C863 C 0.76415 0.11285 0.35119 0.0
C864 C 0.75943 0.1103 0.32545 0.0
C865 C 0.77379 0.11648 0.39932 0.0
C866 C 0.76765 0.10053 0.38972 0.0
C867 C 0.76331 0.09877 0.36572 0.0
C868 C 0.76501 0.08575 0.40455 0.0
C869 C 0.77956 0.11877 0.42478 0.0
C870 C 0.77433 0.07052 0.40151 0.0
C871 C 0.77218 0.05678 0.41615 0.0
C872 C 0.76059 0.05807 0.43393 0.0
C873 C 0.75091 0.07318 0.43642 0.0
C874 C 0.75308 0.08689 0.4218 0.0
H875 H 0.78821 0.13006 0.4279 0.0
H876 H 0.76815 0.12093 0.43511 0.0
H877 H 0.78633 0.10714 0.43129 0.0
H878 H 0.78346 0.0694 0.38809 0.0
H879 H 0.77965 0.0452 0.41366 0.0
H880 H 0.81408 0.7511 0.36746 0.0
H881 H 0.8413 0.75092 0.39104 0.0
H882 H 0.86788 0.76764 0.33209 0.0
H883 H 0.84076 0.76782 0.3084 0.0
H884 H 0.87072 0.73183 0.38295 0.0
H885 H 0.88446 0.8019 0.38398 0.0
H886 H 0.86356 0.79309 0.37527 0.0
H887 H 0.88041 0.7924 0.35529 0.0
C888 C 0.82572 0.75473 0.35952 0.0
C889 C 0.82525 0.75955 0.33609 0.0
C890 C 0.84124 0.75468 0.37303 0.0
C891 C 0.85655 0.7595 0.3634 0.0
C892 C 0.85615 0.76426 0.34001 0.0
H893 H 0.96361 0.76413 0.41448 0.0
H894 H 0.93639 0.76392 0.39048 0.0
C895 C 0.84064 0.76436 0.32651 0.0
C896 C 0.87303 0.759 0.3776 0.0
H897 H 0.90684 0.78386 0.39888 0.0
C898 C 0.87859 0.74321 0.38655 0.0
C899 C 0.88326 0.77387 0.3822 0.0
C900 C 0.87759 0.79131 0.37388 0.0
C901 C 0.89428 0.74183 0.39967 0.0
C902 C 0.90452 0.7567 0.40421 0.0
C903 C 0.89897 0.77248 0.39527 0.0
C904 C 0.92096 0.75621 0.41845 0.0
C905 C 0.89993 0.72444 0.40818 0.0
C906 C 0.92123 0.75202 0.44207 0.0
C907 C 0.9367 0.75216 0.45569 0.0
C908 C 0.95205 0.7566 0.44589 0.0
C909 C 0.95184 0.76069 0.42227 0.0
C910 C 0.93636 0.76058 0.40865 0.0
H911 H 0.89288 0.71381 0.39843 0.0
H912 H 0.91392 0.72256 0.4065 0.0
H913 H 0.89736 0.72357 0.42689 0.0
H914 H 0.90945 0.74891 0.45005 0.0
H915 H 0.93668 0.74905 0.47394 0.0
H916 H 0.26154 0.82159 0.33804 0.0
H917 H 0.26237 0.84818 0.36185 0.0
H918 H 0.22208 0.86946 0.31671 0.0
H919 H 0.22101 0.84278 0.29285 0.0
H920 H 0.25134 0.89127 0.32664 0.0
H921 H 0.22609 0.86513 0.40666 0.0
H922 H 0.24361 0.85308 0.39553 0.0
H923 H 0.22353 0.8541 0.37854 0.0
C924 C 0.25266 0.83182 0.33339 0.0
C925 C 0.24114 0.8301 0.31368 0.0
C926 C 0.25318 0.84698 0.34696 0.0
C927 C 0.24215 0.86061 0.34111 0.0
C928 C 0.23065 0.859 0.32145 0.0
H929 H 0.23147 0.96262 0.40484 0.0
H930 H 0.22949 0.93763 0.37784 0.0
C931 C 0.23011 0.84382 0.30785 0.0
C932 C 0.24303 0.87674 0.35522 0.0
H933 H 0.2386 0.89303 0.41024 0.0
C934 C 0.24843 0.89175 0.34487 0.0
C935 C 0.23918 0.87719 0.37893 0.0
C936 C 0.23262 0.86156 0.39057 0.0
C937 C 0.25063 0.9072 0.35792 0.0
C938 C 0.2471 0.90755 0.38175 0.0
C939 C 0.24141 0.8926 0.39196 0.0
C940 C 0.24933 0.92323 0.39662 0.0
C941 C 0.25716 0.92287 0.34637 0.0
C942 C 0.26113 0.92331 0.41602 0.0
C943 C 0.26217 0.93743 0.43155 0.0
C944 C 0.25135 0.95167 0.42796 0.0
C945 C 0.23987 0.95176 0.4081 0.0
C946 C 0.23884 0.9376 0.39257 0.0
H947 H 0.2628 0.91949 0.32954 0.0
H948 H 0.24633 0.93185 0.34281 0.0
H949 H 0.267 0.92971 0.35798 0.0
H950 H 0.26924 0.91224 0.41944 0.0
H951 H 0.27095 0.93688 0.44686 0.0
H952 H 0.18377 0.78379 0.65479 0.0
H953 H 0.15709 0.78295 0.63001 0.0
H954 H 0.13488 0.74831 0.67708 0.0
H955 H 0.16164 0.74865 0.70155 0.0
H956 H 0.13012 0.73782 0.63029 0.0
H957 H 0.11135 0.80612 0.64376 0.0
H958 H 0.13266 0.8031 0.63419 0.0
H959 H 0.12753 0.7958 0.66232 0.0
C960 C 0.17323 0.77595 0.65982 0.0
C961 C 0.17481 0.76635 0.68021 0.0
C962 C 0.15794 0.77562 0.64578 0.0
C963 C 0.14394 0.76576 0.65192 0.0
C964 C 0.1455 0.7561 0.67215 0.0
H965 H 0.03851 0.76964 0.59386 0.0
H966 H 0.06495 0.77054 0.61949 0.0
C967 C 0.16076 0.75642 0.6862 0.0
C968 C 0.12781 0.7651 0.63692 0.0
H969 H 0.09493 0.78984 0.61471 0.0
C970 C 0.12239 0.74918 0.62691 0.0
C971 C 0.11768 0.77991 0.6328 0.0
C972 C 0.12247 0.79719 0.64398 0.0
C973 C 0.10721 0.7477 0.61258 0.0
C974 C 0.09734 0.7626 0.60791 0.0
C975 C 0.10262 0.77847 0.6182 0.0
C976 C 0.08143 0.76195 0.59249 0.0
C977 C 0.10172 0.73017 0.60286 0.0
C978 C 0.08201 0.75698 0.56885 0.0
C979 C 0.06698 0.75647 0.55431 0.0
C980 C 0.05122 0.76104 0.56321 0.0
C981 C 0.05061 0.76609 0.58678 0.0
C982 C 0.06564 0.76661 0.60132 0.0
H983 H 0.10818 0.71967 0.61273 0.0
H984 H 0.08761 0.72849 0.60322 0.0
H985 H 0.1052 0.72885 0.58445 0.0
H986 H 0.0941 0.75363 0.56161 0.0
H987 H 0.06764 0.7526 0.53611 0.0
H988 H 0.23073 0.16387 0.7367 0.0
H989 H 0.23118 0.13644 0.71462 0.0
H990 H 0.2395 0.16347 0.65185 0.0
H991 H 0.23885 0.19098 0.67372 0.0
H992 H 0.21342 0.1353 0.64866 0.0
H993 H 0.27756 0.11759 0.6889 0.0
H994 H 0.26142 0.12427 0.70835 0.0
H995 H 0.26977 0.13947 0.68907 0.0
C996 C 0.23235 0.16397 0.71812 0.0
C997 C 0.23482 0.1795 0.70688 0.0
C998 C 0.23274 0.14833 0.70563 0.0
C999 C 0.23555 0.14805 0.68178 0.0
C1000 C 0.23739 0.16353 0.67032 0.0
H1001 H 0.26749 0.07359 0.58193 0.0
H1002 H 0.26434 0.09764 0.60967 0.0
C1003 C 0.23709 0.17917 0.68281 0.0
C1004 C 0.23722 0.1316 0.66883 0.0
H1005 H 0.26442 0.09779 0.66152 0.0
C1006 C 0.22446 0.12698 0.65155 0.0
C1007 C 0.25177 0.121 0.67264 0.0
C1008 C 0.26602 0.1258 0.69063 0.0
C1009 C 0.22596 0.11197 0.63774 0.0
C1010 C 0.24052 0.10139 0.64153 0.0
C1011 C 0.25322 0.10594 0.65893 0.0
C1012 C 0.24331 0.08613 0.62648 0.0
C1013 C 0.21227 0.10778 0.61871 0.0
C1014 C 0.23279 0.07161 0.62734 0.0
C1015 C 0.23465 0.05777 0.61169 0.0
C1016 C 0.24705 0.05832 0.59495 0.0
C1017 C 0.25797 0.07268 0.59479 0.0
C1018 C 0.25614 0.08646 0.6105 0.0
H1019 H 0.20318 0.11862 0.6158 0.0
H1020 H 0.2182 0.10449 0.60206 0.0
H1021 H 0.20484 0.0964 0.62359 0.0
H1022 H 0.22296 0.07113 0.63984 0.0
H1023 H 0.22624 0.04675 0.61246 0.0
H1024 H 0.82985 0.27647 0.69856 0.0
H1025 H 0.85497 0.27557 0.67496 0.0
H1026 H 0.84396 0.22259 0.65533 0.0
H1027 H 0.81872 0.22341 0.67875 0.0
H1028 H 0.8839 0.25043 0.6796 0.0
H1029 H 0.84842 0.2488 0.59248 0.0
H1030 H 0.83881 0.25656 0.61862 0.0
H1031 H 0.84162 0.2339 0.61345 0.0
C1032 C 0.8327 0.26467 0.68905 0.0
C1033 C 0.82228 0.25003 0.69043 0.0
C1034 C 0.84708 0.26416 0.67571 0.0
C1035 C 0.85119 0.24907 0.66329 0.0
C1036 C 0.84088 0.23441 0.66464 0.0
H1037 H 0.92954 0.22415 0.56679 0.0
H1038 H 0.90493 0.22398 0.59106 0.0
C1039 C 0.82656 0.23486 0.67814 0.0
C1040 C 0.86642 0.24863 0.64916 0.0
H1041 H 0.87857 0.24633 0.5931 0.0
C1042 C 0.88279 0.24956 0.66068 0.0
C1043 C 0.86485 0.24739 0.62454 0.0
C1044 C 0.84751 0.24671 0.61141 0.0
C1045 C 0.8977 0.24907 0.64819 0.0
C1046 C 0.89616 0.2481 0.62349 0.0
C1047 C 0.87975 0.2471 0.61201 0.0
C1048 C 0.91138 0.24813 0.60919 0.0
C1049 C 0.91495 0.24917 0.66162 0.0
C1050 C 0.92313 0.26184 0.61114 0.0
C1051 C 0.93738 0.26185 0.59754 0.0
C1052 C 0.94007 0.24825 0.58143 0.0
C1053 C 0.9281 0.23466 0.5793 0.0
C1054 C 0.91392 0.23461 0.59303 0.0
H1055 H 0.91393 0.24477 0.6797 0.0
H1056 H 0.92428 0.24081 0.65283 0.0
H1057 H 0.92009 0.26249 0.66275 0.0
H1058 H 0.92123 0.27261 0.62309 0.0
H1059 H 0.94636 0.27246 0.59981 0.0
H1060 H 0.77953 0.84455 0.72274 0.0
H1061 H 0.77775 0.87205 0.703 0.0
H1062 H 0.7378 0.85138 0.65491 0.0
H1063 H 0.73912 0.8241 0.67491 0.0
H1064 H 0.78275 0.87778 0.6559 0.0
H1065 H 0.71717 0.89665 0.67874 0.0
H1066 H 0.72931 0.88007 0.69369 0.0
H1067 H 0.71831 0.87541 0.66578 0.0
C1068 C 0.77024 0.84595 0.70812 0.0
C1069 C 0.75943 0.83221 0.70039 0.0
C1070 C 0.76929 0.8616 0.69684 0.0
C1071 C 0.75744 0.86377 0.67782 0.0
C1072 C 0.74679 0.85003 0.66988 0.0
H1073 H 0.73391 0.93588 0.57194 0.0
H1074 H 0.73498 0.91238 0.59927 0.0
C1075 C 0.74773 0.8344 0.68112 0.0
C1076 C 0.75662 0.88017 0.66558 0.0
H1077 H 0.72926 0.91227 0.6485 0.0
C1078 C 0.77115 0.88547 0.65451 0.0
C1079 C 0.74144 0.8901 0.66388 0.0
C1080 C 0.72572 0.88538 0.67634 0.0
C1081 C 0.77069 0.90014 0.64093 0.0
C1082 C 0.75537 0.90982 0.63874 0.0
C1083 C 0.74097 0.90476 0.65027 0.0
C1084 C 0.7538 0.9247 0.62349 0.0
C1085 C 0.78635 0.90479 0.62827 0.0
C1086 C 0.7637 0.93954 0.6285 0.0
C1087 C 0.76306 0.95302 0.61299 0.0
C1088 C 0.75245 0.95187 0.59231 0.0
C1089 C 0.74206 0.93723 0.58784 0.0
C1090 C 0.74272 0.92377 0.60335 0.0
H1091 H 0.79591 0.89419 0.62821 0.0
H1092 H 0.78269 0.90804 0.60994 0.0
H1093 H 0.79261 0.91627 0.63703 0.0
H1094 H 0.7721 0.94056 0.64421 0.0
H1095 H 0.771 0.96427 0.61706 0.0
H1096 H 0.81287 0.7525 0.6542 0.0
H1097 H 0.83783 0.75306 0.63048 0.0
H1098 H 0.87076 0.76378 0.69226 0.0
H1099 H 0.84586 0.7632 0.71614 0.0
H1100 H 0.87763 0.78452 0.65552 0.0
H1101 H 0.87458 0.7158 0.62666 0.0
H1102 H 0.85495 0.72733 0.62064 0.0
H1103 H 0.86266 0.7243 0.65037 0.0
C1104 C 0.82544 0.75482 0.66277 0.0
C1105 C 0.82738 0.75771 0.68709 0.0
C1106 C 0.83969 0.75513 0.64919 0.0
C1107 C 0.85618 0.75818 0.65965 0.0
C1108 C 0.85814 0.76135 0.68384 0.0
H1109 H 0.95237 0.73908 0.59441 0.0
H1110 H 0.92826 0.73911 0.61972 0.0
C1111 C 0.84389 0.76109 0.69745 0.0
C1112 C 0.87137 0.75829 0.64533 0.0
H1113 H 0.89399 0.73352 0.60789 0.0
C1114 C 0.88125 0.77336 0.64516 0.0
C1115 C 0.87621 0.74363 0.63209 0.0
C1116 C 0.86666 0.72679 0.63256 0.0
C1117 C 0.89567 0.77428 0.63176 0.0
C1118 C 0.90014 0.75982 0.61786 0.0
C1119 C 0.89044 0.74465 0.61838 0.0
C1120 C 0.91487 0.76011 0.60273 0.0
C1121 C 0.90613 0.79063 0.6329 0.0
C1122 C 0.91527 0.7718 0.58463 0.0
C1123 C 0.92902 0.77181 0.57012 0.0
C1124 C 0.94257 0.76 0.57329 0.0
C1125 C 0.94207 0.74823 0.59136 0.0
C1126 C 0.92834 0.74828 0.6059 0.0
H1127 H 0.90391 0.79854 0.64886 0.0
H1128 H 0.92006 0.78779 0.63257 0.0
H1129 H 0.90234 0.79842 0.61755 0.0
H1130 H 0.90482 0.78076 0.58149 0.0
H1131 H 0.92885 0.78082 0.55611 0.0
H1132 H 0.24094 0.85214 0.70301 0.0
H1133 H 0.2402 0.87716 0.67817 0.0
H1134 H 0.25956 0.84615 0.62217 0.0
H1135 H 0.25972 0.82092 0.64654 0.0
H1136 H 0.26614 0.89344 0.65762 0.0
H1137 H 0.21866 0.86874 0.58899 0.0
H1138 H 0.2223 0.85851 0.61662 0.0
H1139 H 0.23677 0.8548 0.59379 0.0
C1140 C 0.24479 0.85051 0.68529 0.0
C1141 C 0.25029 0.83434 0.67686 0.0
C1142 C 0.24448 0.86493 0.67112 0.0
C1143 C 0.24955 0.86359 0.64808 0.0
C1144 C 0.25522 0.84753 0.63967 0.0
H1145 H 0.25975 0.93616 0.53617 0.0
H1146 H 0.25996 0.91087 0.5609 0.0
C1147 C 0.25552 0.8331 0.65381 0.0
C1148 C 0.24932 0.87906 0.63311 0.0
H1149 H 0.2332 0.89456 0.58105 0.0
C1150 C 0.25885 0.89369 0.64094 0.0
C1151 C 0.23986 0.8795 0.61126 0.0
C1152 C 0.22868 0.86462 0.60222 0.0
C1153 C 0.25944 0.9085 0.62744 0.0
C1154 C 0.25001 0.90892 0.60558 0.0
C1155 C 0.24048 0.8943 0.59774 0.0
C1156 C 0.24986 0.92436 0.59058 0.0
C1157 C 0.27055 0.92343 0.63649 0.0
C1158 C 0.24391 0.94038 0.5988 0.0
C1159 C 0.24382 0.95481 0.58468 0.0
C1160 C 0.24957 0.95352 0.56199 0.0
C1161 C 0.25532 0.93749 0.55364 0.0
C1162 C 0.2554 0.92305 0.56775 0.0
H1163 H 0.28041 0.91942 0.65001 0.0
H1164 H 0.27712 0.92938 0.62213 0.0
H1165 H 0.26236 0.93336 0.64452 0.0
H1166 H 0.23921 0.94172 0.6161 0.0
H1167 H 0.23925 0.96701 0.59146 0.0
H1168 H 0.17798 0.27042 0.68159 0.0
H1169 H 0.15196 0.26957 0.6556 0.0
H1170 H 0.12705 0.23797 0.70381 0.0
H1171 H 0.15318 0.23827 0.72967 0.0
H1172 H 0.13451 0.23674 0.63707 0.0
H1173 H 0.0939 0.28042 0.68902 0.0
H1174 H 0.11709 0.28094 0.69212 0.0
H1175 H 0.10557 0.26374 0.70423 0.0
C1176 C 0.16704 0.26317 0.68663 0.0
C1177 C 0.16771 0.25437 0.70773 0.0
C1178 C 0.15215 0.2628 0.67182 0.0
C1179 C 0.13761 0.25382 0.67793 0.0
C1180 C 0.13811 0.24515 0.69899 0.0
H1181 H 0.03554 0.24019 0.60994 0.0
H1182 H 0.06085 0.24077 0.63763 0.0
C1183 C 0.15304 0.2454 0.71377 0.0
C1184 C 0.12211 0.25306 0.66183 0.0
H1185 H 0.08089 0.26752 0.65468 0.0
C1186 C 0.12277 0.24347 0.64085 0.0
C1187 C 0.10685 0.26175 0.66701 0.0
C1188 C 0.1057 0.2724 0.68924 0.0
C1189 C 0.10845 0.24221 0.62488 0.0
C1190 C 0.09325 0.2512 0.6298 0.0
C1191 C 0.09257 0.26069 0.65092 0.0
C1192 C 0.07795 0.25101 0.61317 0.0
C1193 C 0.10965 0.23097 0.60316 0.0
C1194 C 0.07912 0.25686 0.59043 0.0
C1195 C 0.06477 0.25635 0.57464 0.0
C1196 C 0.04901 0.25019 0.58145 0.0
C1197 C 0.04767 0.24482 0.60436 0.0
C1198 C 0.06206 0.2452 0.62011 0.0
H1199 H 0.11996 0.22119 0.60537 0.0
H1200 H 0.09732 0.22423 0.59844 0.0
H1201 H 0.11274 0.23909 0.58843 0.0
H1202 H 0.09112 0.26183 0.58489 0.0
H1203 H 0.06596 0.26071 0.55707 0.0
H1204 H 0.73815 0.18894 0.65695 0.0
H1205 H 0.73904 0.1632 0.63149 0.0
H1206 H 0.76855 0.13686 0.68528 0.0
H1207 H 0.76817 0.16264 0.71068 0.0
H1208 H 0.76886 0.14469 0.61609 0.0
H1209 H 0.72741 0.10404 0.66734 0.0
H1210 H 0.72814 0.12719 0.67088 0.0
H1211 H 0.74518 0.11434 0.68359 0.0
C1212 C 0.74501 0.17778 0.66338 0.0
C1213 C 0.75304 0.178 0.68606 0.0
C1214 C 0.7454 0.163 0.64878 0.0
C1215 C 0.75366 0.14799 0.65654 0.0
C1216 C 0.76181 0.14815 0.67904 0.0
H1217 H 0.76607 0.04437 0.59662 0.0
H1218 H 0.76611 0.07043 0.62193 0.0
C1219 C 0.76152 0.16295 0.6936 0.0
C1220 C 0.75396 0.13225 0.641 0.0
H1221 H 0.7404 0.09041 0.63559 0.0
C1222 C 0.76259 0.13283 0.6203 0.0
C1223 C 0.74587 0.11674 0.64654 0.0
C1224 C 0.736 0.11547 0.66819 0.0
C1225 C 0.76361 0.11828 0.60522 0.0
C1226 C 0.75536 0.10277 0.6106 0.0
C1227 C 0.74673 0.10223 0.63136 0.0
C1228 C 0.75552 0.08698 0.59503 0.0
C1229 C 0.77398 0.11956 0.58401 0.0
C1230 C 0.74939 0.08743 0.5715 0.0
C1231 C 0.74955 0.07259 0.55702 0.0
C1232 C 0.75561 0.0569 0.56581 0.0
C1233 C 0.76146 0.05634 0.5894 0.0
C1234 C 0.76142 0.07121 0.60385 0.0
H1235 H 0.78357 0.13014 0.58618 0.0
H1236 H 0.78082 0.10735 0.58036 0.0
H1237 H 0.76524 0.12236 0.56863 0.0
H1238 H 0.74431 0.09924 0.56435 0.0
H1239 H 0.74486 0.07332 0.53893 0.0
H1240 H 0.84781 0.23492 0.31062 0.0
H1241 H 0.87438 0.2337 0.33551 0.0
H1242 H 0.8503 0.26262 0.38972 0.0
H1243 H 0.82384 0.26432 0.36483 0.0
H1244 H 0.89385 0.26323 0.35734 0.0
H1245 H 0.86984 0.21801 0.42108 0.0
H1246 H 0.8597 0.22024 0.3922 0.0
H1247 H 0.85635 0.23623 0.41466 0.0
C1248 C 0.84819 0.24117 0.32775 0.0
C1249 C 0.83364 0.24967 0.33575 0.0
C1250 C 0.86335 0.24036 0.34197 0.0
C1251 C 0.86418 0.24789 0.36449 0.0
C1252 C 0.84978 0.25648 0.3725 0.0
H1253 H 0.93951 0.25717 0.48065 0.0
H1254 H 0.91374 0.2575 0.45391 0.0
C1255 C 0.83466 0.25738 0.35828 0.0
C1256 C 0.88018 0.247 0.37957 0.0
H1257 H 0.89707 0.23068 0.43043 0.0
C1258 C 0.89465 0.25604 0.37326 0.0
C1259 C 0.88106 0.23765 0.40031 0.0
C1260 C 0.86598 0.22735 0.40748 0.0
C1261 C 0.90992 0.25634 0.38753 0.0
C1262 C 0.91081 0.247 0.40834 0.0
C1263 C 0.89635 0.23782 0.41448 0.0
C1264 C 0.92647 0.24686 0.42428 0.0
C1265 C 0.92475 0.2671 0.38056 0.0
C1266 C 0.9421 0.24063 0.41654 0.0
C1267 C 0.9568 0.24058 0.43174 0.0
C1268 C 0.95597 0.24649 0.45495 0.0
C1269 C 0.94033 0.25254 0.46278 0.0
C1270 C 0.92568 0.2527 0.44756 0.0
H1271 H 0.9205 0.27694 0.36783 0.0
H1272 H 0.93133 0.27372 0.39602 0.0
H1273 H 0.9342 0.25863 0.37222 0.0
H1274 H 0.94292 0.23573 0.3988 0.0
H1275 H 0.9688 0.2359 0.42544 0.0
H1276 H 0.76759 0.84663 0.31528 0.0
H1277 H 0.76818 0.87227 0.3411 0.0
H1278 H 0.73998 0.84509 0.39068 0.0
H1279 H 0.73905 0.81949 0.36486 0.0
H1280 H 0.74058 0.89128 0.35816 0.0
H1281 H 0.78121 0.86444 0.43097 0.0
H1282 H 0.77934 0.85434 0.4022 0.0
H1283 H 0.7626 0.85175 0.42195 0.0
C1284 C 0.76139 0.84608 0.33159 0.0
C1285 C 0.75331 0.83084 0.3379 0.0
C1286 C 0.76183 0.86077 0.34642 0.0
C1287 C 0.75435 0.86059 0.36804 0.0
C1288 C 0.74619 0.84548 0.37436 0.0
H1289 H 0.74332 0.93588 0.48218 0.0
H1290 H 0.74274 0.91015 0.4562 0.0
C1291 C 0.7457 0.83079 0.35953 0.0
C1292 C 0.75475 0.87632 0.38369 0.0
H1293 H 0.76873 0.89176 0.43797 0.0
C1294 C 0.74681 0.8914 0.37557 0.0
C1295 C 0.76281 0.87652 0.40647 0.0
C1296 C 0.77211 0.86096 0.41592 0.0
C1297 C 0.74642 0.90652 0.3897 0.0
C1298 C 0.75454 0.90675 0.41248 0.0
C1299 C 0.76249 0.89165 0.42057 0.0
C1300 C 0.7549 0.92246 0.4282 0.0
C1301 C 0.73687 0.92195 0.38029 0.0
C1302 C 0.76212 0.93796 0.42136 0.0
C1303 C 0.76236 0.95266 0.43614 0.0
C1304 C 0.75556 0.95214 0.45819 0.0
C1305 C 0.74858 0.93661 0.46522 0.0
C1306 C 0.74828 0.92192 0.4504 0.0
H1307 H 0.72737 0.91824 0.36581 0.0
H1308 H 0.73003 0.92882 0.39418 0.0
H1309 H 0.74616 0.93099 0.37338 0.0
H1310 H 0.7677 0.93867 0.40461 0.0
H1311 H 0.76787 0.96447 0.43039 0.0
H1312 H 0.15618 0.76721 0.29099 0.0
H1313 H 0.13224 0.76847 0.31646 0.0
H1314 H 0.16439 0.7469 0.37192 0.0
H1315 H 0.18865 0.74649 0.34707 0.0
H1316 H 0.11608 0.74297 0.33689 0.0
H1317 H 0.14472 0.78784 0.40531 0.0
H1318 H 0.15403 0.78429 0.3776 0.0
H1319 H 0.15781 0.76926 0.40057 0.0
C1320 C 0.15829 0.76304 0.30874 0.0
C1321 C 0.17444 0.75686 0.31698 0.0
C1322 C 0.14452 0.76363 0.32322 0.0
C1323 C 0.14658 0.75807 0.34624 0.0
C1324 C 0.16258 0.75166 0.35442 0.0
H1325 H 0.07734 0.74086 0.4555 0.0
H1326 H 0.10124 0.74079 0.42973 0.0
C1327 C 0.17639 0.75119 0.34003 0.0
C1328 C 0.13184 0.75849 0.36144 0.0
H1329 H 0.11907 0.77339 0.41422 0.0
C1330 C 0.1167 0.74974 0.35371 0.0
C1331 C 0.13263 0.76736 0.38339 0.0
C1332 C 0.14811 0.77787 0.39212 0.0
C1333 C 0.10248 0.74933 0.36753 0.0
C1334 C 0.10343 0.75792 0.38958 0.0
C1335 C 0.11848 0.76674 0.39731 0.0
C1336 C 0.08888 0.75788 0.40491 0.0
C1337 C 0.08661 0.7395 0.35871 0.0
C1338 C 0.07411 0.7676 0.39948 0.0
C1339 C 0.06047 0.76773 0.41418 0.0
C1340 C 0.06136 0.75803 0.4345 0.0
C1341 C 0.0762 0.74828 0.43983 0.0
C1342 C 0.08988 0.7483 0.42522 0.0
H1343 H 0.08879 0.73153 0.34279 0.0
H1344 H 0.08228 0.73102 0.37241 0.0
H1345 H 0.07609 0.74871 0.35447 0.0
H1346 H 0.07318 0.77516 0.38392 0.0
H1347 H 0.04917 0.77526 0.40954 0.0
H1348 H 0.26573 0.18687 0.37265 0.0
H1349 H 0.26516 0.16183 0.39734 0.0
H1350 H 0.23622 0.13348 0.34261 0.0
H1351 H 0.23629 0.15856 0.31796 0.0
H1352 H 0.23611 0.14339 0.41252 0.0
H1353 H 0.27725 0.10146 0.35944 0.0
H1354 H 0.27617 0.12448 0.35629 0.0
H1355 H 0.2592 0.11093 0.34365 0.0
C1356 C 0.25906 0.17541 0.36584 0.0
C1357 C 0.2511 0.17488 0.3431 0.0
C1358 C 0.25885 0.16102 0.38001 0.0
C1359 C 0.25086 0.14563 0.37179 0.0
C1360 C 0.24278 0.14506 0.34923 0.0
H1361 H 0.23923 0.04353 0.429 0.0
H1362 H 0.23902 0.06887 0.40443 0.0
C1363 C 0.24289 0.15947 0.33509 0.0
C1364 C 0.25076 0.1303 0.38691 0.0
H1365 H 0.26444 0.0886 0.39087 0.0
C1366 C 0.24236 0.13143 0.40784 0.0
C1367 C 0.25883 0.11462 0.38079 0.0
C1368 C 0.26851 0.11274 0.35893 0.0
C1369 C 0.24152 0.11729 0.42254 0.0
C1370 C 0.24974 0.10163 0.41656 0.0
C1371 C 0.25814 0.10053 0.39559 0.0
C1372 C 0.24974 0.08624 0.4317 0.0
C1373 C 0.23138 0.11918 0.444 0.0
C1374 C 0.25602 0.08736 0.4552 0.0
C1375 C 0.25596 0.07292 0.46928 0.0
C1376 C 0.24988 0.05695 0.46011 0.0
C1377 C 0.24389 0.05572 0.43654 0.0
C1378 C 0.24383 0.07019 0.4225 0.0
H1379 H 0.22175 0.12967 0.44232 0.0
H1380 H 0.2246 0.10705 0.44744 0.0
H1381 H 0.24026 0.12244 0.45932 0.0
H1382 H 0.26111 0.0994 0.46267 0.0
H1383 H 0.26074 0.07419 0.48736 0.0
H1384 H 0.68335 0.71988 0.83447 0.0
H1385 H 0.65787 0.7188 0.85728 0.0
H1386 H 0.65195 0.77372 0.85236 0.0
H1387 H 0.67718 0.77488 0.82918 0.0
H1388 H 0.65227 0.73648 0.90037 0.0
H1389 H 0.60425 0.75422 0.8298 0.0
H1390 H 0.6256 0.74693 0.82408 0.0
H1391 H 0.62219 0.76868 0.83418 0.0
C1392 C 0.67652 0.7317 0.83805 0.0
C1393 C 0.68226 0.74746 0.82994 0.0
C1394 C 0.66203 0.73107 0.85118 0.0
C1395 C 0.65292 0.74614 0.85625 0.0
C1396 C 0.65866 0.7619 0.84835 0.0
H1397 H 0.57931 0.76505 0.96101 0.0
H1398 H 0.60429 0.76462 0.93726 0.0
C1399 C 0.67318 0.76256 0.8353 0.0
C1400 C 0.63758 0.74545 0.87019 0.0
H1401 H 0.59448 0.75344 0.86811 0.0
C1402 C 0.63962 0.74012 0.89332 0.0
C1403 C 0.62108 0.75003 0.86084 0.0
C1404 C 0.61804 0.75515 0.8358 0.0
C1405 C 0.62562 0.7396 0.90752 0.0
C1406 C 0.60921 0.7447 0.89839 0.0
C1407 C 0.60711 0.74968 0.87511 0.0
C1408 C 0.59406 0.74499 0.91275 0.0
C1409 C 0.62846 0.73344 0.93211 0.0
C1410 C 0.57987 0.73437 0.90654 0.0
C1411 C 0.56552 0.73467 0.91999 0.0
C1412 C 0.56503 0.74574 0.93977 0.0
C1413 C 0.57922 0.75649 0.94578 0.0
C1414 C 0.59358 0.75613 0.93237 0.0
H1415 H 0.64062 0.72609 0.93452 0.0
H1416 H 0.6292 0.74472 0.94443 0.0
H1417 H 0.61765 0.72518 0.93674 0.0
H1418 H 0.57995 0.72578 0.89135 0.0
H1419 H 0.55472 0.7264 0.91471 0.0
H1420 H 0.22939 0.68478 0.82964 0.0
H1421 H 0.23052 0.66039 0.85544 0.0
H1422 H 0.28564 0.65913 0.85372 0.0
H1423 H 0.28476 0.68419 0.82914 0.0
H1424 H 0.2408 0.62834 0.84958 0.0
H1425 H 0.28156 0.65774 0.92242 0.0
H1426 H 0.27243 0.67018 0.89877 0.0
H1427 H 0.29172 0.65789 0.89528 0.0
C1428 C 0.24183 0.67961 0.83507 0.0
C1429 C 0.25699 0.68675 0.82729 0.0
C1430 C 0.24243 0.66547 0.84972 0.0
C1431 C 0.25819 0.65799 0.85705 0.0
C1432 C 0.27332 0.66485 0.84896 0.0
H1433 H 0.28562 0.56609 0.93543 0.0
H1434 H 0.28533 0.59118 0.91074 0.0
C1435 C 0.27276 0.67909 0.83447 0.0
C1436 C 0.25867 0.6428 0.87259 0.0
H1437 H 0.27673 0.62755 0.92383 0.0
C1438 C 0.2486 0.62827 0.86587 0.0
C1439 C 0.2688 0.64255 0.89398 0.0
C1440 C 0.2791 0.65799 0.90318 0.0
C1441 C 0.24856 0.61356 0.87962 0.0
C1442 C 0.25882 0.61327 0.90079 0.0
C1443 C 0.26893 0.62772 0.90754 0.0
C1444 C 0.25904 0.59815 0.91627 0.0
C1445 C 0.23773 0.59827 0.87124 0.0
C1446 C 0.24445 0.5938 0.92797 0.0
C1447 C 0.24462 0.57957 0.94245 0.0
C1448 C 0.25939 0.56921 0.94555 0.0
C1449 C 0.27405 0.57376 0.93388 0.0
C1450 C 0.27389 0.58809 0.91955 0.0
H1451 H 0.23319 0.59916 0.85261 0.0
H1452 H 0.24507 0.58614 0.87352 0.0
H1453 H 0.22631 0.59759 0.88179 0.0
H1454 H 0.23291 0.60151 0.92604 0.0
H1455 H 0.23318 0.57686 0.95143 0.0
H1456 H 0.31929 0.23897 0.87415 0.0
H1457 H 0.34659 0.24029 0.89748 0.0
H1458 H 0.36552 0.27776 0.85154 0.0
H1459 H 0.33808 0.27692 0.8285 0.0
H1460 H 0.37943 0.23298 0.883 0.0
H1461 H 0.37468 0.30043 0.91664 0.0
H1462 H 0.35645 0.2887 0.90339 0.0
H1463 H 0.37195 0.29785 0.88545 0.0
C1464 C 0.32918 0.24767 0.86918 0.0
C1465 C 0.32649 0.25791 0.84954 0.0
C1466 C 0.3448 0.24831 0.88244 0.0
C1467 C 0.35797 0.25928 0.87639 0.0
C1468 C 0.35541 0.26942 0.85671 0.0
H1469 H 0.46552 0.2534 0.92644 0.0
H1470 H 0.43838 0.2535 0.90229 0.0
C1471 C 0.33979 0.26878 0.84342 0.0
C1472 C 0.37453 0.25977 0.89043 0.0
H1473 H 0.40123 0.28623 0.92448 0.0
C1474 C 0.38421 0.24461 0.89209 0.0
C1475 C 0.3806 0.27493 0.90245 0.0
C1476 C 0.37033 0.29138 0.90213 0.0
C1477 C 0.39993 0.24422 0.90532 0.0
C1478 C 0.4062 0.25947 0.91687 0.0
C1479 C 0.39644 0.2746 0.9154 0.0
C1480 C 0.42266 0.25987 0.93112 0.0
C1481 C 0.4095 0.2274 0.90721 0.0
C1482 C 0.42283 0.26388 0.95512 0.0
C1483 C 0.43826 0.2639 0.96879 0.0
C1484 C 0.45371 0.25997 0.9586 0.0
C1485 C 0.45364 0.25631 0.93455 0.0
C1486 C 0.4382 0.25629 0.92086 0.0
H1487 H 0.40107 0.21622 0.90216 0.0
H1488 H 0.4202 0.22737 0.89536 0.0
H1489 H 0.41504 0.2257 0.92527 0.0
H1490 H 0.41098 0.26675 0.96332 0.0
H1491 H 0.43816 0.26682 0.98734 0.0
H1492 H 0.73029 0.31945 0.86326 0.0
H1493 H 0.72981 0.34524 0.88871 0.0
H1494 H 0.76159 0.37182 0.84268 0.0
H1495 H 0.76251 0.34603 0.8174 0.0
H1496 H 0.75803 0.36374 0.91185 0.0
H1497 H 0.72048 0.40467 0.8498 0.0
H1498 H 0.72147 0.38156 0.84612 0.0
H1499 H 0.73909 0.39466 0.83842 0.0
C1500 C 0.73733 0.3307 0.85858 0.0
C1501 C 0.74639 0.33054 0.83808 0.0
C1502 C 0.73694 0.3455 0.87314 0.0
C1503 C 0.74545 0.36059 0.86749 0.0
C1504 C 0.75461 0.36047 0.84719 0.0
H1505 H 0.75704 0.46389 0.93053 0.0
H1506 H 0.75768 0.43778 0.90538 0.0
C1507 C 0.75508 0.34567 0.83268 0.0
C1508 C 0.74501 0.37632 0.88301 0.0
H1509 H 0.73208 0.41837 0.88463 0.0
C1510 C 0.75228 0.37566 0.90595 0.0
C1511 C 0.73759 0.39193 0.8753 0.0
C1512 C 0.72907 0.39331 0.85114 0.0
C1513 C 0.75267 0.39023 0.92119 0.0
C1514 C 0.74515 0.40584 0.91354 0.0
C1515 C 0.73785 0.40647 0.89058 0.0
C1516 C 0.74479 0.42168 0.92897 0.0
C1517 C 0.76159 0.38884 0.94511 0.0
C1518 C 0.73714 0.4215 0.95052 0.0
C1519 C 0.73691 0.43637 0.96494 0.0
C1520 C 0.74412 0.45181 0.958 0.0
C1521 C 0.75148 0.45211 0.93631 0.0
C1522 C 0.75181 0.43722 0.92194 0.0
H1523 H 0.77088 0.37801 0.94574 0.0
H1524 H 0.76854 0.40091 0.95052 0.0
H1525 H 0.75188 0.38642 0.95796 0.0
H1526 H 0.73123 0.40987 0.95614 0.0
H1527 H 0.73106 0.43585 0.98152 0.0
H1528 H 0.68468 0.27727 0.16826 0.0
H1529 H 0.65789 0.27708 0.14374 0.0
H1530 H 0.63546 0.24201 0.18997 0.0
H1531 H 0.66233 0.24161 0.2142 0.0
H1532 H 0.63987 0.24419 0.12337 0.0
H1533 H 0.60176 0.28544 0.18195 0.0
H1534 H 0.62494 0.28623 0.18286 0.0
H1535 H 0.61435 0.26839 0.19489 0.0
C1536 C 0.67412 0.26938 0.17313 0.0
C1537 C 0.67569 0.25946 0.19325 0.0
C1538 C 0.65881 0.26938 0.15918 0.0
C1539 C 0.64474 0.25964 0.16522 0.0
C1540 C 0.64617 0.24977 0.18524 0.0
H1541 H 0.54 0.24728 0.10678 0.0
H1542 H 0.56679 0.24712 0.13163 0.0
C1543 C 0.66151 0.24964 0.19911 0.0
C1544 C 0.62865 0.25948 0.15029 0.0
H1545 H 0.58721 0.27361 0.14799 0.0
C1546 C 0.62834 0.25064 0.12864 0.0
C1547 C 0.61369 0.2678 0.15745 0.0
C1548 C 0.61358 0.27761 0.18049 0.0
C1549 C 0.61329 0.24972 0.11397 0.0
C1550 C 0.59834 0.25829 0.12093 0.0
C1551 C 0.59869 0.26708 0.14267 0.0
C1552 C 0.58221 0.25832 0.10589 0.0
C1553 C 0.61345 0.23921 0.09145 0.0
C1554 C 0.58196 0.2649 0.08337 0.0
C1555 C 0.56677 0.2648 0.06918 0.0
C1556 C 0.55158 0.25832 0.07741 0.0
C1557 C 0.55168 0.25214 0.1001 0.0
C1558 C 0.56691 0.25211 0.11424 0.0
H1559 H 0.62396 0.22955 0.09203 0.0
H1560 H 0.60105 0.23241 0.08755 0.0
H1561 H 0.61559 0.24789 0.07692 0.0
H1562 H 0.59349 0.27019 0.07681 0.0
H1563 H 0.56685 0.26979 0.05178 0.0
H1564 H 0.75801 0.69023 0.15659 0.0
H1565 H 0.75706 0.66458 0.13084 0.0
H1566 H 0.72888 0.63755 0.18063 0.0
H1567 H 0.7291 0.66334 0.20601 0.0
H1568 H 0.77004 0.6326 0.13791 0.0
H1569 H 0.69946 0.6278 0.12149 0.0
H1570 H 0.70978 0.64671 0.13485 0.0
H1571 H 0.70619 0.62817 0.15192 0.0
C1572 C 0.75133 0.67895 0.16194 0.0
C1573 C 0.74354 0.67902 0.18344 0.0
C1574 C 0.75093 0.6642 0.14723 0.0
C1575 C 0.74266 0.64913 0.15352 0.0
C1576 C 0.73502 0.64908 0.17505 0.0
H1577 H 0.73072 0.54525 0.09216 0.0
H1578 H 0.73083 0.57136 0.11747 0.0
C1579 C 0.73537 0.66383 0.18975 0.0
C1580 C 0.74246 0.63337 0.13789 0.0
H1581 H 0.71583 0.60387 0.10874 0.0
C1582 C 0.75817 0.6264 0.13143 0.0
C1583 C 0.72699 0.62518 0.12937 0.0
C1584 C 0.70964 0.63242 0.13455 0.0
C1585 C 0.75885 0.61138 0.11717 0.0
C1586 C 0.74339 0.60316 0.10878 0.0
C1587 C 0.72768 0.61011 0.1152 0.0
C1588 C 0.74325 0.58735 0.09331 0.0
C1589 C 0.77615 0.60421 0.11164 0.0
C1590 C 0.74996 0.58766 0.07116 0.0
C1591 C 0.74982 0.57279 0.0567 0.0
C1592 C 0.74294 0.55732 0.06407 0.0
C1593 C 0.73608 0.55703 0.08611 0.0
C1594 C 0.73616 0.57192 0.10053 0.0
H1595 H 0.78657 0.60936 0.12395 0.0
H1596 H 0.7762 0.58995 0.11223 0.0
H1597 H 0.77905 0.60784 0.09377 0.0
H1598 H 0.75521 0.59945 0.06497 0.0
H1599 H 0.75509 0.57334 0.03973 0.0
H1600 H 0.31634 0.72314 0.16087 0.0
H1601 H 0.34204 0.72265 0.13831 0.0
H1602 H 0.35106 0.77626 0.15616 0.0
H1603 H 0.32547 0.77686 0.17885 0.0
H1604 H 0.34899 0.74655 0.09946 0.0
H1605 H 0.39718 0.7497 0.17504 0.0
H1606 H 0.37545 0.74225 0.17755 0.0
H1607 H 0.3797 0.7648 0.1754 0.0
C1608 C 0.32387 0.73479 0.1601 0.0
C1609 C 0.3189 0.75004 0.17165 0.0
C1610 C 0.33847 0.7345 0.14715 0.0
C1611 C 0.34848 0.74937 0.14577 0.0
C1612 C 0.34356 0.76462 0.1572 0.0
H1613 H 0.44398 0.77238 0.0834 0.0
H1614 H 0.41814 0.77285 0.10536 0.0
C1615 C 0.32888 0.76496 0.16999 0.0
C1616 C 0.36395 0.74904 0.1321 0.0
H1617 H 0.40771 0.75119 0.13752 0.0
C1618 C 0.36185 0.7475 0.10772 0.0
C1619 C 0.38064 0.75041 0.143 0.0
C1620 C 0.38351 0.75178 0.1692 0.0
C1621 C 0.37606 0.74758 0.09384 0.0
C1622 C 0.39282 0.74874 0.10473 0.0
C1623 C 0.39487 0.75028 0.12918 0.0
C1624 C 0.40842 0.74843 0.09113 0.0
C1625 C 0.37291 0.7469 0.06764 0.0
C1626 C 0.41168 0.73445 0.07602 0.0
C1627 C 0.42631 0.73426 0.06315 0.0
C1628 C 0.43817 0.74794 0.06536 0.0
C1629 C 0.43501 0.76178 0.08089 0.0
C1630 C 0.4203 0.762 0.09363 0.0
H1631 H 0.35972 0.75119 0.06223 0.0
H1632 H 0.38225 0.75507 0.05919 0.0
H1633 H 0.37436 0.73344 0.06109 0.0
H1634 H 0.40291 0.72363 0.07419 0.0
H1635 H 0.4282 0.72346 0.05123 0.0
H1636 H 0.27383 0.33796 0.21668 0.0
H1637 H 0.27394 0.36274 0.19136 0.0
H1638 H 0.23949 0.33605 0.14106 0.0
H1639 H 0.23896 0.31141 0.16649 0.0
H1640 H 0.28399 0.36473 0.14548 0.0
H1641 H 0.21533 0.38227 0.14988 0.0
H1642 H 0.22601 0.36781 0.17002 0.0
H1643 H 0.21894 0.36027 0.14112 0.0
C1644 C 0.2661 0.3374 0.20036 0.0
C1645 C 0.25631 0.32261 0.19379 0.0
C1646 C 0.26627 0.35158 0.1858 0.0
C1647 C 0.25654 0.35144 0.16438 0.0
C1648 C 0.24688 0.33666 0.15765 0.0
H1649 H 0.23996 0.42457 0.05248 0.0
H1650 H 0.23978 0.3998 0.07777 0.0
C1651 C 0.24675 0.32245 0.17215 0.0
C1652 C 0.25676 0.3666 0.14893 0.0
H1653 H 0.23107 0.39697 0.12259 0.0
C1654 C 0.27243 0.37182 0.14057 0.0
C1655 C 0.24168 0.37588 0.14238 0.0
C1656 C 0.22455 0.37142 0.15145 0.0
C1657 C 0.27339 0.38577 0.12557 0.0
C1658 C 0.25832 0.39512 0.11908 0.0
C1659 C 0.24264 0.38988 0.12746 0.0
C1660 C 0.25851 0.41033 0.10368 0.0
C1661 C 0.29051 0.39004 0.11631 0.0
C1662 C 0.2689 0.42474 0.10982 0.0
C1663 C 0.26903 0.43896 0.09536 0.0
C1664 C 0.25862 0.43928 0.07444 0.0
C1665 C 0.24803 0.42493 0.06851 0.0
C1666 C 0.24797 0.41068 0.08295 0.0
H1667 H 0.29942 0.3789 0.11721 0.0
H1668 H 0.28899 0.39411 0.09794 0.0
H1669 H 0.29654 0.40077 0.12705 0.0
H1670 H 0.2768 0.4251 0.12599 0.0
H1671 H 0.27709 0.44987 0.10081 0.0
H1672 H 0.3121 0.24414 0.16465 0.0
H1673 H 0.33715 0.24485 0.14106 0.0
H1674 H 0.36876 0.2619 0.20158 0.0
H1675 H 0.34377 0.26128 0.22527 0.0
H1676 H 0.37438 0.28054 0.16303 0.0
H1677 H 0.37663 0.21064 0.14125 0.0
H1678 H 0.35625 0.22033 0.13359 0.0
H1679 H 0.36377 0.21949 0.16376 0.0
C1680 C 0.32442 0.24788 0.17298 0.0
C1681 C 0.32596 0.25259 0.19685 0.0
C1682 C 0.33873 0.24825 0.15949 0.0
C1683 C 0.35488 0.25315 0.16965 0.0
C1684 C 0.35642 0.25803 0.19341 0.0
H1685 H 0.45284 0.23781 0.10738 0.0
H1686 H 0.42842 0.23707 0.13213 0.0
C1687 C 0.34212 0.25773 0.20689 0.0
C1688 C 0.37011 0.25355 0.15542 0.0
H1689 H 0.39474 0.22863 0.12068 0.0
C1690 C 0.37888 0.26918 0.15384 0.0
C1691 C 0.3761 0.23866 0.14371 0.0
C1692 C 0.36782 0.22129 0.1458 0.0
C1693 C 0.3933 0.27041 0.14052 0.0
C1694 C 0.3989 0.25567 0.12809 0.0
C1695 C 0.39032 0.23996 0.13002 0.0
C1696 C 0.41369 0.25624 0.11309 0.0
C1697 C 0.40257 0.28743 0.1402 0.0
C1698 C 0.41342 0.2671 0.094 0.0
C1699 C 0.42735 0.26755 0.07985 0.0
C1700 C 0.44176 0.25702 0.08436 0.0
C1701 C 0.44189 0.24598 0.10332 0.0
C1702 C 0.42798 0.24559 0.11753 0.0
H1703 H 0.39972 0.29588 0.15541 0.0
H1704 H 0.41668 0.28554 0.14022 0.0
H1705 H 0.39831 0.29419 0.12413 0.0
H1706 H 0.40235 0.2751 0.08989 0.0
H1707 H 0.42671 0.27594 0.06512 0.0
H1708 H 0.7368 0.34747 0.2272 0.0
H1709 H 0.73375 0.37375 0.20493 0.0
H1710 H 0.74413 0.345 0.14196 0.0
H1711 H 0.74717 0.31867 0.16408 0.0
H1712 H 0.76388 0.3747 0.14958 0.0
H1713 H 0.69459 0.38805 0.15837 0.0
H1714 H 0.70681 0.3849 0.18544 0.0
H1715 H 0.70414 0.36738 0.16442 0.0
C1716 C 0.73817 0.34672 0.20854 0.0
C1717 C 0.74222 0.33105 0.19734 0.0
C1718 C 0.7364 0.36171 0.19588 0.0
C1719 C 0.73852 0.36122 0.17181 0.0
C1720 C 0.74242 0.34559 0.16054 0.0
H1721 H 0.71741 0.43697 0.06795 0.0
H1722 H 0.71702 0.41242 0.09348 0.0
C1723 C 0.74423 0.33061 0.17319 0.0
C1724 C 0.73758 0.37716 0.15852 0.0
H1725 H 0.71079 0.40973 0.14145 0.0
C1726 C 0.75228 0.38238 0.14777 0.0
C1727 C 0.72237 0.38699 0.15611 0.0
C1728 C 0.70601 0.38151 0.16651 0.0
C1729 C 0.75223 0.39726 0.13467 0.0
C1730 C 0.73714 0.40732 0.1327 0.0
C1731 C 0.72238 0.40206 0.14331 0.0
C1732 C 0.73627 0.4229 0.11869 0.0
C1733 C 0.76817 0.40189 0.12261 0.0
C1734 C 0.74687 0.43707 0.12487 0.0
C1735 C 0.74711 0.45112 0.11035 0.0
C1736 C 0.73665 0.45124 0.08955 0.0
C1737 C 0.72549 0.43732 0.08398 0.0
C1738 C 0.7253 0.42327 0.09847 0.0
H1739 H 0.77719 0.39086 0.12155 0.0
H1740 H 0.76482 0.40625 0.10467 0.0
H1741 H 0.77495 0.41258 0.13255 0.0
H1742 H 0.7552 0.4371 0.14067 0.0
H1743 H 0.75563 0.4618 0.11524 0.0
H1744 H 0.66597 0.77774 0.18988 0.0
H1745 H 0.63938 0.7772 0.16501 0.0
H1746 H 0.64737 0.7235 0.14809 0.0
H1747 H 0.67402 0.72393 0.17294 0.0
H1748 H 0.6347 0.76945 0.11783 0.0
H1749 H 0.59826 0.7242 0.16909 0.0
H1750 H 0.61787 0.73449 0.18054 0.0
H1751 H 0.61866 0.7161 0.16089 0.0
C1752 C 0.66211 0.76583 0.18077 0.0
C1753 C 0.67208 0.75086 0.1834 0.0
C1754 C 0.64688 0.76553 0.16667 0.0
C1755 C 0.64128 0.75026 0.15498 0.0
C1756 C 0.65126 0.73532 0.15738 0.0
H1757 H 0.56588 0.74122 0.03761 0.0
H1758 H 0.59217 0.74177 0.06344 0.0
C1759 C 0.66649 0.73559 0.17155 0.0
C1760 C 0.62521 0.75012 0.13985 0.0
H1761 H 0.58563 0.73138 0.13194 0.0
C1762 C 0.62394 0.76116 0.12094 0.0
C1763 C 0.61113 0.73947 0.14415 0.0
C1764 C 0.61142 0.728 0.16489 0.0
C1765 C 0.60906 0.76164 0.10597 0.0
C1766 C 0.59521 0.75057 0.10981 0.0
C1767 C 0.59635 0.73974 0.12893 0.0
C1768 C 0.57937 0.7501 0.09422 0.0
C1769 C 0.6082 0.7742 0.08641 0.0
C1770 C 0.56344 0.75415 0.10311 0.0
C1771 C 0.54847 0.75371 0.08843 0.0
C1772 C 0.54927 0.74919 0.0647 0.0
C1773 C 0.56512 0.7449 0.05586 0.0
C1774 C 0.58007 0.7453 0.07054 0.0
H1775 H 0.61774 0.78474 0.08959 0.0
H1776 H 0.61105 0.76731 0.06989 0.0
H1777 H 0.5952 0.77994 0.08409 0.0
H1778 H 0.56262 0.75776 0.12137 0.0
H1779 H 0.53629 0.7569 0.09552 0.0
H1780 H 0.2331 0.66234 0.19368 0.0
H1781 H 0.23284 0.63574 0.16997 0.0
H1782 H 0.26364 0.65999 0.12041 0.0
H1783 H 0.26469 0.68643 0.14462 0.0
H1784 H 0.22061 0.62988 0.12457 0.0
H1785 H 0.29055 0.61648 0.13504 0.0
H1786 H 0.28018 0.63232 0.15294 0.0
H1787 H 0.28546 0.6373 0.12387 0.0
C1788 C 0.24006 0.66194 0.17793 0.0
C1789 C 0.24908 0.67642 0.17114 0.0
C1790 C 0.23975 0.6468 0.16432 0.0
C1791 C 0.24842 0.64588 0.14368 0.0
C1792 C 0.25715 0.66038 0.13655 0.0
H1793 H 0.25962 0.56514 0.03892 0.0
H1794 H 0.25774 0.59295 0.06005 0.0
C1795 C 0.25756 0.67552 0.15025 0.0
C1796 C 0.24821 0.62971 0.12958 0.0
H1797 H 0.27412 0.5985 0.10808 0.0
C1798 C 0.23229 0.62298 0.12099 0.0
C1799 C 0.2635 0.62078 0.12508 0.0
C1800 C 0.28088 0.62698 0.13488 0.0
C1801 C 0.23127 0.60754 0.10776 0.0
C1802 C 0.24655 0.59872 0.10318 0.0
C1803 C 0.26246 0.60546 0.11164 0.0
C1804 C 0.24637 0.58229 0.08986 0.0
C1805 C 0.21396 0.60081 0.09855 0.0
C1806 C 0.24056 0.56727 0.09978 0.0
C1807 C 0.24173 0.55146 0.08785 0.0
C1808 C 0.24862 0.55062 0.06589 0.0
C1809 C 0.25416 0.56568 0.05583 0.0
C1810 C 0.2531 0.58145 0.0678 0.0
H1811 H 0.20368 0.61058 0.10028 0.0
H1812 H 0.21433 0.5967 0.07991 0.0
H1813 H 0.21059 0.58939 0.10847 0.0
H1814 H 0.23558 0.56774 0.11698 0.0
H1815 H 0.23762 0.53986 0.09589 0.0
H1816 H 0.32374 0.76815 0.85088 0.0
H1817 H 0.35038 0.76571 0.87528 0.0
H1818 H 0.37088 0.73114 0.82397 0.0
H1819 H 0.34408 0.73302 0.79969 0.0
H1820 H 0.36683 0.73188 0.89117 0.0
H1821 H 0.40664 0.77268 0.83738 0.0
H1822 H 0.38351 0.77437 0.83659 0.0
H1823 H 0.39334 0.75631 0.82259 0.0
C1824 C 0.3338 0.75985 0.84486 0.0
C1825 C 0.33174 0.75078 0.82329 0.0
C1826 C 0.34904 0.75857 0.85877 0.0
C1827 C 0.36256 0.74836 0.85128 0.0
C1828 C 0.36061 0.73924 0.82987 0.0
H1829 H 0.46684 0.73439 0.91123 0.0
H1830 H 0.44049 0.73399 0.88544 0.0
C1831 C 0.34532 0.74041 0.81599 0.0
C1832 C 0.37868 0.74718 0.86603 0.0
H1833 H 0.42044 0.76045 0.87052 0.0
C1834 C 0.37858 0.73809 0.8867 0.0
C1835 C 0.39394 0.7552 0.85995 0.0
C1836 C 0.3945 0.76529 0.83799 0.0
C1837 C 0.39346 0.73675 0.90155 0.0
C1838 C 0.40867 0.74515 0.8958 0.0
C1839 C 0.40877 0.75406 0.87491 0.0
C1840 C 0.4245 0.74514 0.91144 0.0
C1841 C 0.39281 0.7261 0.923 0.0
C1842 C 0.42428 0.75177 0.93444 0.0
C1843 C 0.43921 0.75182 0.94914 0.0
C1844 C 0.45462 0.74545 0.94097 0.0
C1845 C 0.45499 0.73918 0.91786 0.0
C1846 C 0.44001 0.739 0.90319 0.0
H1847 H 0.38227 0.71646 0.9211 0.0
H1848 H 0.40512 0.71925 0.92672 0.0
H1849 H 0.3904 0.73467 0.93824 0.0
H1850 H 0.41259 0.75702 0.94097 0.0
H1851 H 0.43878 0.75689 0.96687 0.0
H1852 H 0.28813 0.32589 0.86144 0.0
H1853 H 0.29205 0.35282 0.88416 0.0
H1854 H 0.23721 0.35698 0.88872 0.0
H1855 H 0.2331 0.33065 0.86493 0.0
H1856 H 0.25107 0.38595 0.87389 0.0
H1857 H 0.2884 0.36419 0.95289 0.0
H1858 H 0.29786 0.35823 0.92612 0.0
H1859 H 0.27738 0.3494 0.93226 0.0
C1860 C 0.2769 0.33254 0.86729 0.0
C1861 C 0.26029 0.32618 0.86128 0.0
C1862 C 0.27919 0.34778 0.88056 0.0
C1863 C 0.26493 0.35675 0.88834 0.0
C1864 C 0.24839 0.35017 0.88297 0.0
H1865 H 0.25888 0.44305 0.9842 0.0
H1866 H 0.25993 0.41447 0.9651 0.0
C1867 C 0.24607 0.33504 0.86953 0.0
C1868 C 0.26707 0.3737 0.90041 0.0
H1869 H 0.28606 0.39445 0.94841 0.0
C1870 C 0.25868 0.38781 0.89022 0.0
C1871 C 0.27694 0.376 0.92174 0.0
C1872 C 0.28553 0.36113 0.93404 0.0
C1873 C 0.25981 0.40422 0.90085 0.0
C1874 C 0.27004 0.40664 0.92186 0.0
C1875 C 0.27845 0.39254 0.93209 0.0
C1876 C 0.2712 0.42353 0.9342 0.0
C1877 C 0.24959 0.41869 0.88983 0.0
C1878 C 0.27761 0.43792 0.92334 0.0
C1879 C 0.27682 0.45421 0.9341 0.0
C1880 C 0.26993 0.45614 0.95598 0.0
C1881 C 0.26427 0.44168 0.9673 0.0
C1882 C 0.26491 0.42544 0.95647 0.0
H1883 H 0.23925 0.4138 0.8772 0.0
H1884 H 0.24369 0.42691 0.9033 0.0
H1885 H 0.25827 0.42684 0.88025 0.0
H1886 H 0.28276 0.4366 0.9063 0.0
H1887 H 0.28114 0.46532 0.92515 0.0
H1888 H 0.69273 0.25058 0.86765 0.0
H1889 H 0.66795 0.2511 0.89175 0.0
H1890 H 0.63557 0.26734 0.83296 0.0
H1891 H 0.66028 0.26681 0.8087 0.0
H1892 H 0.6303 0.28612 0.87382 0.0
H1893 H 0.62882 0.21595 0.88858 0.0
H1894 H 0.64917 0.22593 0.89653 0.0
H1895 H 0.64116 0.22518 0.86649 0.0
C1896 C 0.68031 0.25411 0.85979 0.0
C1897 C 0.67847 0.25857 0.83621 0.0
C1898 C 0.66616 0.25439 0.87359 0.0
C1899 C 0.64987 0.25899 0.86405 0.0
C1900 C 0.64803 0.26371 0.84065 0.0
H1901 H 0.55235 0.2417 0.92493 0.0
H1902 H 0.57665 0.24188 0.89997 0.0
C1903 C 0.66217 0.26347 0.82684 0.0
C1904 C 0.63477 0.25909 0.87853 0.0
H1905 H 0.61051 0.23345 0.91081 0.0
C1906 C 0.62593 0.2746 0.88187 0.0
C1907 C 0.62897 0.24399 0.88874 0.0
C1908 C 0.6374 0.22677 0.88476 0.0
C1909 C 0.61158 0.27549 0.89548 0.0
C1910 C 0.60613 0.26052 0.90632 0.0
C1911 C 0.61481 0.24495 0.90266 0.0
C1912 C 0.59135 0.26067 0.92138 0.0
C1913 C 0.60224 0.29239 0.89779 0.0
C1914 C 0.59163 0.27104 0.94182 0.0
C1915 C 0.57777 0.27095 0.95614 0.0
C1916 C 0.56343 0.26036 0.95039 0.0
C1917 C 0.56326 0.24988 0.92997 0.0
C1918 C 0.5771 0.25002 0.91564 0.0
H1919 H 0.60509 0.30119 0.88365 0.0
H1920 H 0.58814 0.29037 0.89745 0.0
H1921 H 0.6064 0.29883 0.9147 0.0
H1922 H 0.60267 0.27905 0.94688 0.0
H1923 H 0.57845 0.27893 0.97195 0.0
H1924 H 0.72962 0.66139 0.79572 0.0
H1925 H 0.72976 0.63419 0.81612 0.0
H1926 H 0.76941 0.65385 0.86544 0.0
H1927 H 0.76975 0.68086 0.84478 0.0
H1928 H 0.77534 0.62 0.84729 0.0
H1929 H 0.71014 0.62771 0.88042 0.0
H1930 H 0.71145 0.62972 0.84949 0.0
H1931 H 0.72177 0.64541 0.86922 0.0
C1932 C 0.73844 0.65986 0.81082 0.0
C1933 C 0.74961 0.67327 0.81875 0.0
C1934 C 0.7384 0.6444 0.82254 0.0
C1935 C 0.74945 0.64217 0.84238 0.0
C1936 C 0.76074 0.65542 0.85019 0.0
H1937 H 0.77091 0.56959 0.94863 0.0
H1938 H 0.77172 0.59234 0.92035 0.0
C1939 C 0.7608 0.67087 0.83851 0.0
C1940 C 0.74933 0.62601 0.85514 0.0
H1941 H 0.72483 0.60199 0.88904 0.0
C1942 C 0.76429 0.61598 0.85635 0.0
C1943 C 0.73485 0.62087 0.86682 0.0
C1944 C 0.71866 0.63152 0.86665 0.0
C1945 C 0.7652 0.60093 0.86917 0.0
C1946 C 0.75086 0.59602 0.88129 0.0
C1947 C 0.73577 0.60582 0.87962 0.0
C1948 C 0.75152 0.58135 0.897 0.0
C1949 C 0.78148 0.59044 0.86966 0.0
C1950 C 0.73983 0.56772 0.89324 0.0
C1951 C 0.73933 0.5547 0.90937 0.0
C1952 C 0.75044 0.5552 0.9296 0.0
C1953 C 0.7624 0.5687 0.93302 0.0
C1954 C 0.76288 0.58169 0.91689 0.0
H1955 H 0.78915 0.59305 0.85448 0.0
H1956 H 0.78947 0.59387 0.88577 0.0
H1957 H 0.77861 0.57646 0.8697 0.0
H1958 H 0.73091 0.56732 0.87801 0.0
H1959 H 0.7301 0.54437 0.90617 0.0
loop_
_geom_bond_atom_site_label_1
_geom_bond_atom_site_label_2
_geom_bond_distance
_geom_bond_site_symmetry_2
_ccdc_geom_bond_type
H0 C19 0.949 . S
H1 C20 0.950 . S
H2 C22 0.950 . S
H3 C23 0.950 . S
H4 C25 0.950 . S
H5 C28 0.950 . S
H6 C29 0.950 . S
H7 C31 0.951 . S
H8 C32 0.949 . S
H9 C34 0.949 . S
H10 C35 0.950 . S
H11 C37 0.950 . S
H12 C38 0.950 . S
H13 C40 0.950 . S
H14 C43 0.950 . S
H15 C44 0.950 . S
H16 C46 0.951 . S
H17 C47 0.949 . S
C18 C19 1.376 . S
C18 C23 1.386 . S
C18 C24 1.483 . S
C19 H0 0.949 . S
C19 C18 1.376 . S
C19 C20 1.397 . S
C20 H1 0.950 . S
C20 C19 1.397 . S
C20 C21 1.391 . S
C21 C20 1.391 . S
C21 C22 1.405 . S
C22 H2 0.950 . S
C22 C21 1.405 . S
C22 C23 1.367 . S
C23 H3 0.950 . S
C23 C18 1.386 . S
C23 C22 1.367 . S
C24 C18 1.483 . S
C24 C25 1.382 . S
C24 C26 1.403 . S
C25 H4 0.950 . S
C25 C24 1.382 . S
C25 C41 1.411 . S
C26 C24 1.403 . S
C26 C27 1.489 . S
C26 C40 1.411 . S
C27 C26 1.489 . S
C27 C28 1.383 . S
C27 C32 1.382 . S
C28 H5 0.950 . S
C28 C27 1.383 . S
C28 C29 1.395 . S
C29 H6 0.950 . S
C29 C28 1.395 . S
C29 C30 1.288 . S
C30 C29 1.288 . S
C30 C31 1.392 . S
C31 H7 0.951 . S
C31 C30 1.392 . S
C31 C32 1.392 . S
C32 H8 0.949 . S
C32 C27 1.382 . S
C32 C31 1.392 . S
C33 C34 1.376 . S
C33 C38 1.386 . S
C33 C39 1.483 . S
C34 H9 0.949 . S
C34 C33 1.376 . S
C34 C35 1.397 . S
C35 H10 0.950 . S
C35 C34 1.397 . S
C35 C36 1.391 . S
C36 C35 1.391 . S
C36 C37 1.405 . S
C37 H11 0.950 . S
C37 C36 1.405 . S
C37 C38 1.367 . S
C38 H12 0.950 . S
C38 C33 1.386 . S
C38 C37 1.367 . S
C39 C33 1.483 . S
C39 C40 1.382 . S
C39 C41 1.403 . S
C40 H13 0.950 . S
C40 C26 1.411 . S
C40 C39 1.382 . S
C41 C25 1.411 . S
C41 C39 1.403 . S
C41 C42 1.489 . S
C42 C41 1.489 . S
C42 C43 1.383 . S
C42 C47 1.382 . S
C43 H14 0.950 . S
C43 C42 1.383 . S
C43 C44 1.395 . S
C44 H15 0.950 . S
C44 C43 1.395 . S
C44 C45 1.288 . S
C45 C44 1.288 . S
C45 C46 1.392 . S
C46 H16 0.951 . S
C46 C45 1.392 . S
C46 C47 1.392 . S
C47 H17 0.949 . S
C47 C42 1.382 . S
C47 C46 1.392 . S
H48 C67 0.949 . S
H49 C68 0.950 . S
H50 C70 0.950 . S
H51 C71 0.950 . S
H52 C73 0.950 . S
H53 C76 0.950 . S
H54 C77 0.950 . S
H55 C79 0.951 . S
H56 C80 0.949 . S
H57 C82 0.949 . S
H58 C83 0.950 . S
H59 C85 0.950 . S
H60 C86 0.950 . S
H61 C88 0.950 . S
H62 C91 0.950 . S
H63 C92 0.950 . S
H64 C94 0.951 . S
H65 C95 0.949 . S
C66 C67 1.376 . S
C66 C71 1.386 . S
C66 C72 1.483 . S
C67 H48 0.949 . S
C67 C66 1.376 . S
C67 C68 1.397 . S
C68 H49 0.950 . S
C68 C67 1.397 . S
C68 C69 1.391 . S
C69 C68 1.391 . S
C69 C70 1.405 . S
C70 H50 0.950 . S
C70 C69 1.405 . S
C70 C71 1.367 . S
C71 H51 0.950 . S
C71 C66 1.386 . S
C71 C70 1.367 . S
C72 C66 1.483 . S
C72 C73 1.382 . S
C72 C74 1.403 . S
C73 H52 0.950 . S
C73 C72 1.382 . S
C73 C89 1.411 . S
C74 C72 1.403 . S
C74 C75 1.489 . S
C74 C88 1.411 . S
C75 C74 1.489 . S
C75 C76 1.383 . S
C75 C80 1.382 . S
C76 H53 0.950 . S
C76 C75 1.383 . S
C76 C77 1.395 . S
C77 H54 0.950 . S
C77 C76 1.395 . S
C77 C78 1.288 . S
C78 C77 1.288 . S
C78 C79 1.392 . S
C79 H55 0.951 . S
C79 C78 1.392 . S
C79 C80 1.392 . S
C80 H56 0.949 . S
C80 C75 1.382 . S
C80 C79 1.392 . S
C81 C82 1.376 . S
C81 C86 1.386 . S
C81 C87 1.483 . S
C82 H57 0.949 . S
C82 C81 1.376 . S
C82 C83 1.397 . S
C83 H58 0.950 . S
C83 C82 1.397 . S
C83 C84 1.391 . S
C84 C83 1.391 . S
C84 C85 1.405 . S
C85 H59 0.950 . S
C85 C84 1.405 . S
C85 C86 1.367 . S
C86 H60 0.950 . S
C86 C81 1.386 . S
C86 C85 1.367 . S
C87 C81 1.483 . S
C87 C88 1.382 . S
C87 C89 1.403 . S
C88 H61 0.950 . S
C88 C74 1.411 . S
C88 C87 1.382 . S
C89 C73 1.411 . S
C89 C87 1.403 . S
C89 C90 1.489 . S
C90 C89 1.489 . S
C90 C91 1.383 . S
C90 C95 1.382 . S
C91 H62 0.950 . S
C91 C90 1.383 . S
C91 C92 1.395 . S
C92 H63 0.950 . S
C92 C91 1.395 . S
C92 C93 1.288 . S
C93 C92 1.288 . S
C93 C94 1.392 . S
C94 H64 0.951 . S
C94 C93 1.392 . S
C94 C95 1.392 . S
C95 H65 0.949 . S
C95 C90 1.382 . S
C95 C94 1.392 . S
H96 C115 0.949 . S
H97 C116 0.950 . S
H98 C118 0.950 . S
H99 C119 0.950 . S
H100 C121 0.950 . S
H101 C124 0.950 . S
H102 C125 0.950 . S
H103 C127 0.951 . S
H104 C128 0.949 . S
H105 C130 0.949 . S
H106 C131 0.950 . S
H107 C133 0.950 . S
H108 C134 0.950 . S
H109 C136 0.950 . S
H110 C139 0.950 . S
H111 C140 0.950 . S
H112 C142 0.951 . S
H113 C143 0.949 . S
C114 C115 1.376 . S
C114 C119 1.386 . S
C114 C120 1.483 . S
C115 H96 0.949 . S
C115 C114 1.376 . S
C115 C116 1.397 . S
C116 H97 0.950 . S
C116 C115 1.397 . S
C116 C117 1.391 . S
C117 C116 1.391 . S
C117 C118 1.405 . S
C118 H98 0.950 . S
C118 C117 1.405 . S
C118 C119 1.367 . S
C119 H99 0.950 . S
C119 C114 1.386 . S
C119 C118 1.367 . S
C120 C114 1.483 . S
C120 C121 1.382 . S
C120 C122 1.403 . S
C121 H100 0.950 . S
C121 C120 1.382 . S
C121 C137 1.411 . S
C122 C120 1.403 . S
C122 C123 1.489 . S
C122 C136 1.411 . S
C123 C122 1.489 . S
C123 C124 1.383 . S
C123 C128 1.382 . S
C124 H101 0.950 . S
C124 C123 1.383 . S
C124 C125 1.395 . S
C125 H102 0.950 . S
C125 C124 1.395 . S
C125 C126 1.288 . S
C126 C125 1.288 . S
C126 C127 1.392 . S
C127 H103 0.951 . S
C127 C126 1.392 . S
C127 C128 1.392 . S
C128 H104 0.949 . S
C128 C123 1.382 . S
C128 C127 1.392 . S
C129 C130 1.376 . S
C129 C134 1.386 . S
C129 C135 1.483 . S
C130 H105 0.949 . S
C130 C129 1.376 . S
C130 C131 1.397 . S
C131 H106 0.950 . S
C131 C130 1.397 . S
C131 C132 1.391 . S
C132 C131 1.391 . S
C132 C133 1.405 . S
C133 H107 0.950 . S
C133 C132 1.405 . S
C133 C134 1.367 . S
C134 H108 0.950 . S
C134 C129 1.386 . S
C134 C133 1.367 . S
C135 C129 1.483 . S
C135 C136 1.382 . S
C135 C137 1.403 . S
C136 H109 0.950 . S
C136 C122 1.411 . S
C136 C135 1.382 . S
C137 C121 1.411 . S
C137 C135 1.403 . S
C137 C138 1.489 . S
C138 C137 1.489 . S
C138 C139 1.383 . S
C138 C143 1.382 . S
C139 H110 0.950 . S
C139 C138 1.383 . S
C139 C140 1.395 . S
C140 H111 0.950 . S
C140 C139 1.395 . S
C140 C141 1.288 . S
C141 C140 1.288 . S
C141 C142 1.392 . S
C142 H112 0.951 . S
C142 C141 1.392 . S
C142 C143 1.392 . S
C143 H113 0.949 . S
C143 C138 1.382 . S
C143 C142 1.392 . S
H144 C163 0.949 . S
H145 C164 0.950 . S
H146 C166 0.950 . S
H147 C167 0.950 . S
H148 C169 0.950 . S
H149 C172 0.950 . S
H150 C173 0.950 . S
H151 C175 0.951 . S
H152 C176 0.949 . S
H153 C178 0.949 . S
H154 C179 0.950 . S
H155 C181 0.950 . S
H156 C182 0.950 . S
H157 C184 0.950 . S
H158 C187 0.950 . S
H159 C188 0.950 . S
H160 C190 0.951 . S
H161 C191 0.949 . S
C162 C163 1.376 . S
C162 C167 1.386 . S
C162 C168 1.483 . S
C163 H144 0.949 . S
C163 C162 1.376 . S
C163 C164 1.397 . S
C164 H145 0.950 . S
C164 C163 1.397 . S
C164 C165 1.391 . S
C165 C164 1.391 . S
C165 C166 1.405 . S
C166 H146 0.950 . S
C166 C165 1.405 . S
C166 C167 1.367 . S
C167 H147 0.950 . S
C167 C162 1.386 . S
C167 C166 1.367 . S
C168 C162 1.483 . S
C168 C169 1.382 . S
C168 C170 1.403 . S
C169 H148 0.950 . S
C169 C168 1.382 . S
C169 C185 1.411 . S
C170 C168 1.403 . S
C170 C171 1.489 . S
C170 C184 1.411 . S
C171 C170 1.489 . S
C171 C172 1.383 . S
C171 C176 1.382 . S
C172 H149 0.950 . S
C172 C171 1.383 . S
C172 C173 1.395 . S
C173 H150 0.950 . S
C173 C172 1.395 . S
C173 C174 1.288 . S
C174 C173 1.288 . S
C174 C175 1.392 . S
C175 H151 0.951 . S
C175 C174 1.392 . S
C175 C176 1.392 . S
C176 H152 0.949 . S
C176 C171 1.382 . S
C176 C175 1.392 . S
C177 C178 1.376 . S
C177 C182 1.386 . S
C177 C183 1.483 . S
C178 H153 0.949 . S
C178 C177 1.376 . S
C178 C179 1.397 . S
C179 H154 0.950 . S
C179 C178 1.397 . S
C179 C180 1.391 . S
C180 C179 1.391 . S
C180 C181 1.405 . S
C181 H155 0.950 . S
C181 C180 1.405 . S
C181 C182 1.367 . S
C182 H156 0.950 . S
C182 C177 1.386 . S
C182 C181 1.367 . S
C183 C177 1.483 . S
C183 C184 1.382 . S
C183 C185 1.403 . S
C184 H157 0.950 . S
C184 C170 1.411 . S
C184 C183 1.382 . S
C185 C169 1.411 . S
C185 C183 1.403 . S
C185 C186 1.489 . S
C186 C185 1.489 . S
C186 C187 1.383 . S
C186 C191 1.382 . S
C187 H158 0.950 . S
C187 C186 1.383 . S
C187 C188 1.395 . S
C188 H159 0.950 . S
C188 C187 1.395 . S
C188 C189 1.288 . S
C189 C188 1.288 . S
C189 C190 1.392 . S
C190 H160 0.951 . S
C190 C189 1.392 . S
C190 C191 1.392 . S
C191 H161 0.949 . S
C191 C186 1.382 . S
C191 C190 1.392 . S
H192 C211 0.949 . S
H193 C212 0.950 . S
H194 C214 0.950 . S
H195 C215 0.950 . S
H196 C217 0.950 . S
H197 C220 0.950 . S
H198 C221 0.950 . S
H199 C223 0.951 . S
H200 C224 0.949 . S
H201 C226 0.949 . S
H202 C227 0.950 . S
H203 C229 0.950 . S
H204 C230 0.950 . S
H205 C232 0.950 . S
H206 C235 0.950 . S
H207 C236 0.950 . S
H208 C238 0.951 . S
H209 C239 0.949 . S
C210 C211 1.376 . S
C210 C215 1.386 . S
C210 C216 1.483 . S
C211 H192 0.949 . S
C211 C210 1.376 . S
C211 C212 1.397 . S
C212 H193 0.950 . S
C212 C211 1.397 . S
C212 C213 1.391 . S
C213 C212 1.391 . S
C213 C214 1.405 . S
C214 H194 0.950 . S
C214 C213 1.405 . S
C214 C215 1.367 . S
C215 H195 0.950 . S
C215 C210 1.386 . S
C215 C214 1.367 . S
C216 C210 1.483 . S
C216 C217 1.382 . S
C216 C218 1.403 . S
C217 H196 0.950 . S
C217 C216 1.382 . S
C217 C233 1.411 . S
C218 C216 1.403 . S
C218 C219 1.489 . S
C218 C232 1.411 . S
C219 C218 1.489 . S
C219 C220 1.383 . S
C219 C224 1.382 . S
C220 H197 0.950 . S
C220 C219 1.383 . S
C220 C221 1.395 . S
C221 H198 0.950 . S
C221 C220 1.395 . S
C221 C222 1.288 . S
C222 C221 1.288 . S
C222 C223 1.392 . S
C223 H199 0.951 . S
C223 C222 1.392 . S
C223 C224 1.392 . S
C224 H200 0.949 . S
C224 C219 1.382 . S
C224 C223 1.392 . S
C225 C226 1.376 . S
C225 C230 1.386 . S
C225 C231 1.483 . S
C226 H201 0.949 . S
C226 C225 1.376 . S
C226 C227 1.397 . S
C227 H202 0.950 . S
C227 C226 1.397 . S
C227 C228 1.391 . S
C228 C227 1.391 . S
C228 C229 1.405 . S
C229 H203 0.950 . S
C229 C228 1.405 . S
C229 C230 1.367 . S
C230 H204 0.950 . S
C230 C225 1.386 . S
C230 C229 1.367 . S
C231 C225 1.483 . S
C231 C232 1.382 . S
C231 C233 1.403 . S
C232 H205 0.950 . S
C232 C218 1.411 . S
C232 C231 1.382 . S
C233 C217 1.411 . S
C233 C231 1.403 . S
C233 C234 1.489 . S
C234 C233 1.489 . S
C234 C235 1.383 . S
C234 C239 1.382 . S
C235 H206 0.950 . S
C235 C234 1.383 . S
C235 C236 1.395 . S
C236 H207 0.950 . S
C236 C235 1.395 . S
C236 C237 1.288 . S
C237 C236 1.288 . S
C237 C238 1.392 . S
C238 H208 0.951 . S
C238 C237 1.392 . S
C238 C239 1.392 . S
C239 H209 0.949 . S
C239 C234 1.382 . S
C239 C238 1.392 . S
H240 C259 0.949 . S
H241 C260 0.950 . S
H242 C262 0.950 . S
H243 C263 0.950 . S
H244 C265 0.950 . S
H245 C268 0.950 . S
H246 C269 0.950 . S
H247 C271 0.951 . S
H248 C272 0.949 . S
H249 C274 0.949 . S
H250 C275 0.950 . S
H251 C277 0.950 . S
H252 C278 0.950 . S
H253 C280 0.950 . S
H254 C283 0.950 . S
H255 C284 0.950 . S
H256 C286 0.951 . S
H257 C287 0.949 . S
C258 C259 1.376 . S
C258 C263 1.386 . S
C258 C264 1.483 . S
C259 H240 0.949 . S
C259 C258 1.376 . S
C259 C260 1.397 . S
C260 H241 0.950 . S
C260 C259 1.397 . S
C260 C261 1.391 . S
C261 C260 1.391 . S
C261 C262 1.405 . S
C262 H242 0.950 . S
C262 C261 1.405 . S
C262 C263 1.367 . S
C263 H243 0.950 . S
C263 C258 1.386 . S
C263 C262 1.367 . S
C264 C258 1.483 . S
C264 C265 1.382 . S
C264 C266 1.403 . S
C265 H244 0.950 . S
C265 C264 1.382 . S
C265 C281 1.411 . S
C266 C264 1.403 . S
C266 C267 1.489 . S
C266 C280 1.411 . S
C267 C266 1.489 . S
C267 C268 1.383 . S
C267 C272 1.382 . S
C268 H245 0.950 . S
C268 C267 1.383 . S
C268 C269 1.395 . S
C269 H246 0.950 . S
C269 C268 1.395 . S
C269 C270 1.288 . S
C270 C269 1.288 . S
C270 C271 1.392 . S
C271 H247 0.951 . S
C271 C270 1.392 . S
C271 C272 1.392 . S
C272 H248 0.949 . S
C272 C267 1.382 . S
C272 C271 1.392 . S
C273 C274 1.376 . S
C273 C278 1.386 . S
C273 C279 1.483 . S
C274 H249 0.949 . S
C274 C273 1.376 . S
C274 C275 1.397 . S
C275 H250 0.950 . S
C275 C274 1.397 . S
C275 C276 1.391 . S
C276 C275 1.391 . S
C276 C277 1.405 . S
C277 H251 0.950 . S
C277 C276 1.405 . S
C277 C278 1.367 . S
C278 H252 0.950 . S
C278 C273 1.386 . S
C278 C277 1.367 . S
C279 C273 1.483 . S
C279 C280 1.382 . S
C279 C281 1.403 . S
C280 H253 0.950 . S
C280 C266 1.411 . S
C280 C279 1.382 . S
C281 C265 1.411 . S
C281 C279 1.403 . S
C281 C282 1.489 . S
C282 C281 1.489 . S
C282 C283 1.383 . S
C282 C287 1.382 . S
C283 H254 0.950 . S
C283 C282 1.383 . S
C283 C284 1.395 . S
C284 H255 0.950 . S
C284 C283 1.395 . S
C284 C285 1.288 . S
C285 C284 1.288 . S
C285 C286 1.392 . S
C286 H256 0.951 . S
C286 C285 1.392 . S
C286 C287 1.392 . S
C287 H257 0.949 . S
C287 C282 1.382 . S
C287 C286 1.392 . S
H288 C307 0.949 . S
H289 C308 0.950 . S
H290 C310 0.950 . S
H291 C311 0.950 . S
H292 C313 0.950 . S
H293 C316 0.950 . S
H294 C317 0.950 . S
H295 C319 0.951 . S
H296 C320 0.949 . S
H297 C322 0.949 . S
H298 C323 0.950 . S
H299 C325 0.950 . S
H300 C326 0.950 . S
H301 C328 0.950 . S
H302 C331 0.950 . S
H303 C332 0.950 . S
H304 C334 0.951 . S
H305 C335 0.949 . S
C306 C307 1.376 . S
C306 C311 1.386 . S
C306 C312 1.483 . S
C307 H288 0.949 . S
C307 C306 1.376 . S
C307 C308 1.397 . S
C308 H289 0.950 . S
C308 C307 1.397 . S
C308 C309 1.391 . S
C309 C308 1.391 . S
C309 C310 1.405 . S
C310 H290 0.950 . S
C310 C309 1.405 . S
C310 C311 1.367 . S
C311 H291 0.950 . S
C311 C306 1.386 . S
C311 C310 1.367 . S
C312 C306 1.483 . S
C312 C313 1.382 . S
C312 C314 1.403 . S
C313 H292 0.950 . S
C313 C312 1.382 . S
C313 C329 1.411 . S
C314 C312 1.403 . S
C314 C315 1.489 . S
C314 C328 1.411 . S
C315 C314 1.489 . S
C315 C316 1.383 . S
C315 C320 1.382 . S
C316 H293 0.950 . S
C316 C315 1.383 . S
C316 C317 1.395 . S
C317 H294 0.950 . S
C317 C316 1.395 . S
C317 C318 1.288 . S
C318 C317 1.288 . S
C318 C319 1.392 . S
C319 H295 0.951 . S
C319 C318 1.392 . S
C319 C320 1.392 . S
C320 H296 0.949 . S
C320 C315 1.382 . S
C320 C319 1.392 . S
C321 C322 1.376 . S
C321 C326 1.386 . S
C321 C327 1.483 . S
C322 H297 0.949 . S
C322 C321 1.376 . S
C322 C323 1.397 . S
C323 H298 0.950 . S
C323 C322 1.397 . S
C323 C324 1.391 . S
C324 C323 1.391 . S
C324 C325 1.405 . S
C325 H299 0.950 . S
C325 C324 1.405 . S
C325 C326 1.367 . S
C326 H300 0.950 . S
C326 C321 1.386 . S
C326 C325 1.367 . S
C327 C321 1.483 . S
C327 C328 1.382 . S
C327 C329 1.403 . S
C328 H301 0.950 . S
C328 C314 1.411 . S
C328 C327 1.382 . S
C329 C313 1.411 . S
C329 C327 1.403 . S
C329 C330 1.489 . S
C330 C329 1.489 . S
C330 C331 1.383 . S
C330 C335 1.382 . S
C331 H302 0.950 . S
C331 C330 1.383 . S
C331 C332 1.395 . S
C332 H303 0.950 . S
C332 C331 1.395 . S
C332 C333 1.288 . S
C333 C332 1.288 . S
C333 C334 1.392 . S
C334 H304 0.951 . S
C334 C333 1.392 . S
C334 C335 1.392 . S
C335 H305 0.949 . S
C335 C330 1.382 . S
C335 C334 1.392 . S
H336 C355 0.949 . S
H337 C356 0.950 . S
H338 C358 0.950 . S
H339 C359 0.950 . S
H340 C361 0.950 . S
H341 C364 0.950 . S
H342 C365 0.950 . S
H343 C367 0.951 . S
H344 C368 0.949 . S
H345 C370 0.949 . S
H346 C371 0.950 . S
H347 C373 0.950 . S
H348 C374 0.950 . S
H349 C376 0.950 . S
H350 C379 0.950 . S
H351 C380 0.950 . S
H352 C382 0.951 . S
H353 C383 0.949 . S
C354 C355 1.376 . S
C354 C359 1.386 . S
C354 C360 1.483 . S
C355 H336 0.949 . S
C355 C354 1.376 . S
C355 C356 1.397 . S
C356 H337 0.950 . S
C356 C355 1.397 . S
C356 C357 1.391 . S
C357 C356 1.391 . S
C357 C358 1.405 . S
C358 H338 0.950 . S
C358 C357 1.405 . S
C358 C359 1.367 . S
C359 H339 0.950 . S
C359 C354 1.386 . S
C359 C358 1.367 . S
C360 C354 1.483 . S
C360 C361 1.382 . S
C360 C362 1.403 . S
C361 H340 0.950 . S
C361 C360 1.382 . S
C361 C377 1.411 . S
C362 C360 1.403 . S
C362 C363 1.489 . S
C362 C376 1.411 . S
C363 C362 1.489 . S
C363 C364 1.383 . S
C363 C368 1.382 . S
C364 H341 0.950 . S
C364 C363 1.383 . S
C364 C365 1.395 . S
C365 H342 0.950 . S
C365 C364 1.395 . S
C365 C366 1.288 . S
C366 C365 1.288 . S
C366 C367 1.392 . S
C367 H343 0.951 . S
C367 C366 1.392 . S
C367 C368 1.392 . S
C368 H344 0.949 . S
C368 C363 1.382 . S
C368 C367 1.392 . S
C369 C370 1.376 . S
C369 C374 1.386 . S
C369 C375 1.483 . S
C370 H345 0.949 . S
C370 C369 1.376 . S
C370 C371 1.397 . S
C371 H346 0.950 . S
C371 C370 1.397 . S
C371 C372 1.391 . S
C372 C371 1.391 . S
C372 C373 1.405 . S
C373 H347 0.950 . S
C373 C372 1.405 . S
C373 C374 1.367 . S
C374 H348 0.950 . S
C374 C369 1.386 . S
C374 C373 1.367 . S
C375 C369 1.483 . S
C375 C376 1.382 . S
C375 C377 1.403 . S
C376 H349 0.950 . S
C376 C362 1.411 . S
C376 C375 1.382 . S
C377 C361 1.411 . S
C377 C375 1.403 . S
C377 C378 1.489 . S
C378 C377 1.489 . S
C378 C379 1.383 . S
C378 C383 1.382 . S
C379 H350 0.950 . S
C379 C378 1.383 . S
C379 C380 1.395 . S
C380 H351 0.950 . S
C380 C379 1.395 . S
C380 C381 1.288 . S
C381 C380 1.288 . S
C381 C382 1.392 . S
C382 H352 0.951 . S
C382 C381 1.392 . S
C382 C383 1.392 . S
C383 H353 0.949 . S
C383 C378 1.382 . S
C383 C382 1.392 . S
C384 C385 1.443 . S
C384 N388 1.376 . S
C384 C422 1.389 . S
C385 C384 1.443 . S
C385 C386 1.340 . S
C385 H425 0.951 . S
C386 C385 1.340 . S
C386 C387 1.439 . S
C386 H426 0.950 . S
C387 C386 1.439 . S
C387 N388 1.374 . S
C387 C421 1.395 . S
N388 C384 1.376 . S
N388 C387 1.374 . S
N388 Co389 2.008 . S
Co389 N388 2.008 . S
Co389 N390 1.995 1_455 S
Co389 N395 2.008 1_455 S
Co389 N400 1.995 . S
Co389 N405 2.282 1_455 S
Co389 N411 2.282 . S
N390 Co389 1.995 1_655 S
N390 C391 1.376 . S
N390 C394 1.383 . S
C391 N390 1.376 . S
C391 C392 1.446 . S
C391 C421 1.391 1_655 S
C392 C391 1.446 . S
C392 C393 1.339 . S
C392 H427 0.949 . S
C393 C392 1.339 . S
C393 C394 1.439 . S
C393 H428 0.950 . S
C394 N390 1.383 . S
C394 C393 1.439 . S
C394 C423 1.392 . S
N395 Co389 2.008 1_655 S
N395 C396 1.376 . S
N395 C399 1.374 . S
C396 N395 1.376 . S
C396 C397 1.443 . S
C396 C423 1.389 . S
C397 C396 1.443 . S
C397 C398 1.340 . S
C397 H429 0.951 . S
C398 C397 1.340 . S
C398 C399 1.439 . S
C398 H430 0.950 . S
C399 N395 1.374 . S
C399 C398 1.439 . S
C399 C424 1.421 . S
N400 Co389 1.995 . S
N400 C401 1.376 . S
N400 C404 1.383 . S
C401 N400 1.376 . S
C401 C402 1.446 . S
C401 C424 1.364 1_455 S
C402 C401 1.446 . S
C402 C403 1.339 . S
C402 H431 0.949 . S
C403 C402 1.339 . S
C403 C404 1.439 . S
C403 H432 0.950 . S
C404 N400 1.383 . S
C404 C403 1.439 . S
C404 C422 1.392 . S
N405 Co389 2.282 1_655 S
N405 C408 1.332 . S
N405 C410 1.332 . S
C406 C407 1.386 . S
C406 C409 1.388 . S
C407 C406 1.386 . S
C407 C408 1.382 . S
C407 H433 0.950 . S
C408 N405 1.332 . S
C408 C407 1.382 . S
C408 H419 0.952 . S
C409 C406 1.388 . S
C409 C410 1.382 . S
C409 H434 0.950 . S
C410 N405 1.332 . S
C410 C409 1.382 . S
C410 H420 0.948 . S
N411 Co389 2.282 . S
N411 C415 1.332 . S
N411 C416 1.332 . S
C412 C413 1.388 . S
C412 C416 1.382 . S
C412 H435 0.950 . S
C413 C412 1.388 . S
C413 C414 1.386 . S
C414 C413 1.386 . S
C414 C415 1.382 . S
C414 H436 0.950 . S
C415 N411 1.332 . S
C415 C414 1.382 . S
C415 H417 0.952 . S
C416 N411 1.332 . S
C416 C412 1.382 . S
C416 H418 0.948 . S
H417 C415 0.952 . S
H418 C416 0.948 . S
H419 C408 0.952 . S
H420 C410 0.948 . S
C421 C387 1.395 . S
C421 C391 1.391 1_455 S
C422 C384 1.389 . S
C422 C404 1.392 . S
C423 C394 1.392 . S
C423 C396 1.389 . S
C424 C399 1.421 . S
C424 C401 1.364 1_655 S
H425 C385 0.951 . S
H426 C386 0.950 . S
H427 C392 0.949 . S
H428 C393 0.950 . S
H429 C397 0.951 . S
H430 C398 0.950 . S
H431 C402 0.949 . S
H432 C403 0.950 . S
H433 C407 0.950 . S
H434 C409 0.950 . S
H435 C412 0.950 . S
H436 C414 0.950 . S
C437 C438 1.443 . S
C437 N441 1.376 . S
C437 C475 1.389 . S
C438 C437 1.443 . S
C438 C439 1.340 . S
C438 H478 0.951 . S
C439 C438 1.340 . S
C439 C440 1.439 . S
C439 H479 0.950 . S
C440 C439 1.439 . S
C440 N441 1.374 . S
C440 C474 1.395 . S
N441 C437 1.376 . S
N441 C440 1.374 . S
N441 Co442 2.008 . S
Co442 N441 2.008 . S
Co442 N443 1.995 1_545 S
Co442 N448 2.008 1_545 S
Co442 N453 1.995 . S
Co442 N458 2.282 1_545 S
Co442 N464 2.282 . S
N443 Co442 1.995 1_565 S
N443 C444 1.376 . S
N443 C447 1.383 . S
C444 N443 1.376 . S
C444 C445 1.446 . S
C444 C474 1.391 1_565 S
C445 C444 1.446 . S
C445 C446 1.339 . S
C445 H480 0.949 . S
C446 C445 1.339 . S
C446 C447 1.439 . S
C446 H481 0.950 . S
C447 N443 1.383 . S
C447 C446 1.439 . S
C447 C476 1.392 . S
N448 Co442 2.008 1_565 S
N448 C449 1.376 . S
N448 C452 1.374 . S
C449 N448 1.376 . S
C449 C450 1.443 . S
C449 C476 1.389 . S
C450 C449 1.443 . S
C450 C451 1.340 . S
C450 H482 0.951 . S
C451 C450 1.340 . S
C451 C452 1.439 . S
C451 H483 0.950 . S
C452 N448 1.374 . S
C452 C451 1.439 . S
C452 C477 1.402 . S
N453 Co442 1.995 . S
N453 C454 1.376 . S
N453 C457 1.383 . S
C454 N453 1.376 . S
C454 C455 1.446 . S
C454 C477 1.383 1_545 S
C455 C454 1.446 . S
C455 C456 1.339 . S
C455 H484 0.949 . S
C456 C455 1.339 . S
C456 C457 1.439 . S
C456 H485 0.950 . S
C457 N453 1.383 . S
C457 C456 1.439 . S
C457 C475 1.392 . S
N458 Co442 2.282 1_565 S
N458 C461 1.332 . S
N458 C463 1.332 . S
C459 C460 1.386 . S
C459 C462 1.388 . S
C460 C459 1.386 . S
C460 C461 1.382 . S
C460 H486 0.950 . S
C461 N458 1.332 . S
C461 C460 1.382 . S
C461 H472 0.952 . S
C462 C459 1.388 . S
C462 C463 1.382 . S
C462 H487 0.950 . S
C463 N458 1.332 . S
C463 C462 1.382 . S
C463 H473 0.948 . S
N464 Co442 2.282 . S
N464 C468 1.332 . S
N464 C469 1.332 . S
C465 C466 1.388 . S
C465 C469 1.382 . S
C465 H488 0.950 . S
C466 C465 1.388 . S
C466 C467 1.386 . S
C467 C466 1.386 . S
C467 C468 1.382 . S
C467 H489 0.950 . S
C468 N464 1.332 . S
C468 C467 1.382 . S
C468 H470 0.952 . S
C469 N464 1.332 . S
C469 C465 1.382 . S
C469 H471 0.948 . S
H470 C468 0.952 . S
H471 C469 0.948 . S
H472 C461 0.952 . S
H473 C463 0.948 . S
C474 C440 1.395 . S
C474 C444 1.391 1_545 S
C475 C437 1.389 . S
C475 C457 1.392 . S
C476 C447 1.392 . S
C476 C449 1.389 . S
C477 C452 1.402 . S
C477 C454 1.383 1_565 S
H478 C438 0.951 . S
H479 C439 0.950 . S
H480 C445 0.949 . S
H481 C446 0.950 . S
H482 C450 0.951 . S
H483 C451 0.950 . S
H484 C455 0.949 . S
H485 C456 0.950 . S
H486 C460 0.950 . S
H487 C462 0.950 . S
H488 C465 0.950 . S
H489 C467 0.950 . S
C490 C491 1.443 . S
C490 N494 1.376 . S
C490 C528 1.389 . S
C491 C490 1.443 . S
C491 C492 1.340 . S
C491 H531 0.951 . S
C492 C491 1.340 . S
C492 C493 1.439 . S
C492 H532 0.950 . S
C493 C492 1.439 . S
C493 N494 1.374 . S
C493 C527 1.395 . S
N494 C490 1.376 . S
N494 C493 1.374 . S
N494 Co495 2.008 . S
Co495 N494 2.008 . S
Co495 N496 1.995 1_455 S
Co495 N501 2.008 1_455 S
Co495 N506 1.995 . S
Co495 N511 2.282 1_455 S
Co495 N517 2.282 . S
N496 Co495 1.995 1_655 S
N496 C497 1.376 . S
N496 C500 1.383 . S
C497 N496 1.376 . S
C497 C498 1.446 . S
C497 C527 1.391 1_655 S
C498 C497 1.446 . S
C498 C499 1.339 . S
C498 H533 0.949 . S
C499 C498 1.339 . S
C499 C500 1.439 . S
C499 H534 0.950 . S
C500 N496 1.383 . S
C500 C499 1.439 . S
C500 C529 1.392 . S
N501 Co495 2.008 1_655 S
N501 C502 1.376 . S
N501 C505 1.374 . S
C502 N501 1.376 . S
C502 C503 1.443 . S
C502 C529 1.389 . S
C503 C502 1.443 . S
C503 C504 1.340 . S
C503 H535 0.951 . S
C504 C503 1.340 . S
C504 C505 1.439 . S
C504 H536 0.950 . S
C505 N501 1.374 . S
C505 C504 1.439 . S
C505 C530 1.395 . S
N506 Co495 1.995 . S
N506 C507 1.376 . S
N506 C510 1.383 . S
C507 N506 1.376 . S
C507 C508 1.446 . S
C507 C530 1.391 1_455 S
C508 C507 1.446 . S
C508 C509 1.339 . S
C508 H537 0.949 . S
C509 C508 1.339 . S
C509 C510 1.439 . S
C509 H538 0.950 . S
C510 N506 1.383 . S
C510 C509 1.439 . S
C510 C528 1.392 . S
N511 Co495 2.282 1_655 S
N511 C514 1.332 . S
N511 C516 1.332 . S
C512 C513 1.386 . S
C512 C515 1.388 . S
C513 C512 1.386 . S
C513 C514 1.382 . S
C513 H539 0.950 . S
C514 N511 1.332 . S
C514 C513 1.382 . S
C514 H525 0.952 . S
C515 C512 1.388 . S
C515 C516 1.382 . S
C515 H540 0.950 . S
C516 N511 1.332 . S
C516 C515 1.382 . S
C516 H526 0.948 . S
N517 Co495 2.282 . S
N517 C521 1.332 . S
N517 C522 1.332 . S
C518 C519 1.388 . S
C518 C522 1.382 . S
C518 H541 0.950 . S
C519 C518 1.388 . S
C519 C520 1.386 . S
C520 C519 1.386 . S
C520 C521 1.382 . S
C520 H542 0.950 . S
C521 N517 1.332 . S
C521 C520 1.382 . S
C521 H523 0.952 . S
C522 N517 1.332 . S
C522 C518 1.382 . S
C522 H524 0.948 . S
H523 C521 0.952 . S
H524 C522 0.948 . S
H525 C514 0.952 . S
H526 C516 0.948 . S
C527 C493 1.395 . S
C527 C497 1.391 1_455 S
C528 C490 1.389 . S
C528 C510 1.392 . S
C529 C500 1.392 . S
C529 C502 1.389 . S
C530 C505 1.395 . S
C530 C507 1.391 1_655 S
H531 C491 0.951 . S
H532 C492 0.950 . S
H533 C498 0.949 . S
H534 C499 0.950 . S
H535 C503 0.951 . S
H536 C504 0.950 . S
H537 C508 0.949 . S
H538 C509 0.950 . S
H539 C513 0.950 . S
H540 C515 0.950 . S
H541 C518 0.950 . S
H542 C520 0.950 . S
C543 C544 1.443 . S
C543 N547 1.376 . S
C543 C581 1.389 . S
C544 C543 1.443 . S
C544 C545 1.340 . S
C544 H584 0.951 . S
C545 C544 1.340 . S
C545 C546 1.439 . S
C545 H585 0.950 . S
C546 C545 1.439 . S
C546 N547 1.374 . S
C546 C580 1.417 . S
N547 C543 1.376 . S
N547 C546 1.374 . S
N547 Co548 2.008 1_565 S
Co548 N547 2.008 1_545 S
Co548 N549 1.995 . S
Co548 N554 2.008 . S
Co548 N559 1.995 1_545 S
Co548 N564 2.282 . S
Co548 N570 2.282 1_545 S
N549 Co548 1.995 . S
N549 C550 1.376 . S
N549 C553 1.383 . S
C550 N549 1.376 . S
C550 C551 1.446 . S
C550 C580 1.368 1_545 S
C551 C550 1.446 . S
C551 C552 1.339 . S
C551 H586 0.949 . S
C552 C551 1.339 . S
C552 C553 1.439 . S
C552 H587 0.950 . S
C553 N549 1.383 . S
C553 C552 1.439 . S
C553 C582 1.392 . S
N554 Co548 2.008 . S
N554 C555 1.376 . S
N554 C558 1.374 . S
C555 N554 1.376 . S
C555 C556 1.443 . S
C555 C582 1.389 . S
C556 C555 1.443 . S
C556 C557 1.340 . S
C556 H588 0.951 . S
C557 C556 1.340 . S
C557 C558 1.439 . S
C557 H589 0.950 . S
C558 N554 1.374 . S
C558 C557 1.439 . S
C558 C583 1.395 . S
N559 Co548 1.995 1_565 S
N559 C560 1.376 . S
N559 C563 1.383 . S
C560 N559 1.376 . S
C560 C561 1.446 . S
C560 C583 1.391 1_565 S
C561 C560 1.446 . S
C561 C562 1.339 . S
C561 H590 0.949 . S
C562 C561 1.339 . S
C562 C563 1.439 . S
C562 H591 0.950 . S
C563 N559 1.383 . S
C563 C562 1.439 . S
C563 C581 1.392 . S
N564 Co548 2.282 . S
N564 C567 1.332 . S
N564 C569 1.332 . S
C565 C566 1.386 . S
C565 C568 1.388 . S
C566 C565 1.386 . S
C566 C567 1.382 . S
C566 H592 0.950 . S
C567 N564 1.332 . S
C567 C566 1.382 . S
C567 H578 0.952 . S
C568 C565 1.388 . S
C568 C569 1.382 . S
C568 H593 0.950 . S
C569 N564 1.332 . S
C569 C568 1.382 . S
C569 H579 0.948 . S
N570 Co548 2.282 1_565 S
N570 C574 1.332 . S
N570 C575 1.332 . S
C571 C572 1.388 . S
C571 C575 1.382 . S
C571 H594 0.950 . S
C572 C571 1.388 . S
C572 C573 1.386 . S
C573 C572 1.386 . S
C573 C574 1.382 . S
C573 H595 0.950 . S
C574 N570 1.332 . S
C574 C573 1.382 . S
C574 H576 0.952 . S
C575 N570 1.332 . S
C575 C571 1.382 . S
C575 H577 0.948 . S
H576 C574 0.952 . S
H577 C575 0.948 . S
H578 C567 0.952 . S
H579 C569 0.948 . S
C580 C546 1.417 . S
C580 C550 1.368 1_565 S
C581 C543 1.389 . S
C581 C563 1.392 . S
C582 C553 1.392 . S
C582 C555 1.389 . S
C583 C558 1.395 . S
C583 C560 1.391 1_545 S
H584 C544 0.951 . S
H585 C545 0.950 . S
H586 C551 0.949 . S
H587 C552 0.950 . S
H588 C556 0.951 . S
H589 C557 0.950 . S
H590 C561 0.949 . S
H591 C562 0.950 . S
H592 C566 0.950 . S
H593 C568 0.950 . S
H594 C571 0.950 . S
H595 C573 0.950 . S
C596 C597 1.443 . S
C596 N600 1.376 . S
C596 C634 1.389 . S
C597 C596 1.443 . S
C597 C598 1.340 . S
C597 H637 0.951 . S
C598 C597 1.340 . S
C598 C599 1.439 . S
C598 H638 0.950 . S
C599 C598 1.439 . S
C599 N600 1.374 . S
C599 C633 1.395 1_554 S
N600 C596 1.376 . S
N600 C599 1.374 . S
N600 Co601 2.017 . S
Co601 N600 2.017 . S
Co601 N602 1.984 1_554 S
Co601 N607 1.999 1_554 S
Co601 N612 2.006 . S
Co601 N617 2.298 . S
Co601 N623 2.267 1_554 S
N602 Co601 1.984 1_556 S
N602 C603 1.376 . S
N602 C606 1.383 . S
C603 N602 1.376 . S
C603 C604 1.446 . S
C603 C633 1.391 . S
C604 C603 1.446 . S
C604 C605 1.339 . S
C604 H639 0.949 . S
C605 C604 1.339 . S
C605 C606 1.439 . S
C605 H640 0.950 . S
C606 N602 1.383 . S
C606 C605 1.439 . S
C606 C635 1.392 . S
N607 Co601 1.999 1_556 S
N607 C608 1.376 . S
N607 C611 1.374 . S
C608 N607 1.376 . S
C608 C609 1.443 . S
C608 C635 1.389 . S
C609 C608 1.443 . S
C609 C610 1.340 . S
C609 H641 0.951 . S
C610 C609 1.340 . S
C610 C611 1.439 . S
C610 H642 0.950 . S
C611 N607 1.374 . S
C611 C610 1.439 . S
C611 C636 1.395 1_556 S
N612 Co601 2.006 . S
N612 C613 1.376 . S
N612 C616 1.383 . S
C613 N612 1.376 . S
C613 C614 1.446 . S
C613 C636 1.391 . S
C614 C613 1.446 . S
C614 C615 1.339 . S
C614 H643 0.949 . S
C615 C614 1.339 . S
C615 C616 1.439 . S
C615 H644 0.950 . S
C616 N612 1.383 . S
C616 C615 1.439 . S
C616 C634 1.392 . S
N617 Co601 2.298 . S
N617 C620 1.332 . S
N617 C622 1.332 . S
C618 C619 1.386 . S
C618 C621 1.388 . S
C619 C618 1.386 . S
C619 C620 1.382 . S
C619 H645 0.950 . S
C620 N617 1.332 . S
C620 C619 1.382 . S
C620 H631 0.952 . S
C621 C618 1.388 . S
C621 C622 1.382 . S
C621 H646 0.950 . S
C622 N617 1.332 . S
C622 C621 1.382 . S
C622 H632 0.948 . S
N623 Co601 2.267 1_556 S
N623 C627 1.332 . S
N623 C628 1.332 . S
C624 C625 1.388 . S
C624 C628 1.382 . S
C624 H647 0.950 . S
C625 C624 1.388 . S
C625 C626 1.386 . S
C626 C625 1.386 . S
C626 C627 1.382 . S
C626 H648 0.950 . S
C627 N623 1.332 . S
C627 C626 1.382 . S
C627 H629 0.952 . S
C628 N623 1.332 . S
C628 C624 1.382 . S
C628 H630 0.948 . S
H629 C627 0.952 . S
H630 C628 0.948 . S
H631 C620 0.952 . S
H632 C622 0.948 . S
C633 C599 1.395 1_556 S
C633 C603 1.391 . S
C634 C596 1.389 . S
C634 C616 1.392 . S
C635 C606 1.392 . S
C635 C608 1.389 . S
C636 C611 1.395 1_554 S
C636 C613 1.391 . S
H637 C597 0.951 . S
H638 C598 0.950 . S
H639 C604 0.949 . S
H640 C605 0.950 . S
H641 C609 0.951 . S
H642 C610 0.950 . S
H643 C614 0.949 . S
H644 C615 0.950 . S
H645 C619 0.950 . S
H646 C621 0.950 . S
H647 C624 0.950 . S
H648 C626 0.950 . S
C649 C650 1.443 . S
C649 N653 1.376 . S
C649 C687 1.389 . S
C650 C649 1.443 . S
C650 C651 1.340 . S
C650 H690 0.951 . S
C651 C650 1.340 . S
C651 C652 1.439 . S
C651 H691 0.950 . S
C652 C651 1.439 . S
C652 N653 1.374 . S
C652 C686 1.395 . S
N653 C649 1.376 . S
N653 C652 1.374 . S
N653 Co654 2.008 . S
Co654 N653 2.008 . S
Co654 N655 1.995 1_554 S
Co654 N660 2.012 . S
Co654 N665 1.995 . S
Co654 N670 2.282 . S
Co654 N676 2.282 1_554 S
N655 Co654 1.995 1_556 S
N655 C656 1.376 . S
N655 C659 1.383 . S
C656 N655 1.376 . S
C656 C657 1.446 . S
C656 C686 1.391 1_556 S
C657 C656 1.446 . S
C657 C658 1.339 . S
C657 H692 0.949 . S
C658 C657 1.339 . S
C658 C659 1.439 . S
C658 H693 0.950 . S
C659 N655 1.383 . S
C659 C658 1.439 . S
C659 C688 1.392 . S
N660 Co654 2.012 . S
N660 C661 1.371 1_554 S
N660 C664 1.376 . S
C661 N660 1.371 1_556 S
C661 C662 1.443 . S
C661 C688 1.389 . S
C662 C661 1.443 . S
C662 C663 1.340 . S
C662 H694 0.951 . S
C663 C662 1.340 . S
C663 C664 1.439 1_556 S
C663 H695 0.950 . S
C664 N660 1.376 . S
C664 C663 1.439 1_554 S
C664 C689 1.395 . S
N665 Co654 1.995 . S
N665 C666 1.376 . S
N665 C669 1.383 . S
C666 N665 1.376 . S
C666 C667 1.446 . S
C666 C689 1.391 . S
C667 C666 1.446 . S
C667 C668 1.339 . S
C667 H696 0.949 . S
C668 C667 1.339 . S
C668 C669 1.439 . S
C668 H697 0.950 . S
C669 N665 1.383 . S
C669 C668 1.439 . S
C669 C687 1.392 . S
N670 Co654 2.282 . S
N670 C673 1.332 . S
N670 C675 1.332 . S
C671 C672 1.386 . S
C671 C674 1.388 . S
C672 C671 1.386 . S
C672 C673 1.382 . S
C672 H698 0.950 . S
C673 N670 1.332 . S
C673 C672 1.382 . S
C673 H684 0.952 . S
C674 C671 1.388 . S
C674 C675 1.382 . S
C674 H699 0.950 . S
C675 N670 1.332 . S
C675 C674 1.382 . S
C675 H685 0.948 . S
N676 Co654 2.282 1_556 S
N676 C680 1.332 . S
N676 C681 1.332 . S
C677 C678 1.388 . S
C677 C681 1.382 . S
C677 H700 0.950 . S
C678 C677 1.388 . S
C678 C679 1.386 . S
C679 C678 1.386 . S
C679 C680 1.382 . S
C679 H701 0.950 . S
C680 N676 1.332 . S
C680 C679 1.382 . S
C680 H682 0.952 . S
C681 N676 1.332 . S
C681 C677 1.382 . S
C681 H683 0.948 . S
H682 C680 0.952 . S
H683 C681 0.948 . S
H684 C673 0.952 . S
H685 C675 0.948 . S
C686 C652 1.395 . S
C686 C656 1.391 1_554 S
C687 C649 1.389 . S
C687 C669 1.392 . S
C688 C659 1.392 . S
C688 C661 1.389 . S
C689 C664 1.395 . S
C689 C666 1.391 . S
H690 C650 0.951 . S
H691 C651 0.950 . S
H692 C657 0.949 . S
H693 C658 0.950 . S
H694 C662 0.951 . S
H695 C663 0.950 . S
H696 C667 0.949 . S
H697 C668 0.950 . S
H698 C672 0.950 . S
H699 C674 0.950 . S
H700 C677 0.950 . S
H701 C679 0.950 . S
C702 C703 1.443 . S
C702 N706 1.376 1_556 S
C702 C740 1.389 . S
C703 C702 1.443 . S
C703 C704 1.340 1_556 S
C703 H743 0.951 . S
C704 C703 1.340 1_554 S
C704 C705 1.439 . S
C704 H744 0.950 . S
C705 C704 1.439 . S
C705 N706 1.374 . S
C705 C739 1.395 . S
N706 C702 1.376 1_554 S
N706 C705 1.374 . S
N706 Co707 2.008 . S
Co707 N706 2.008 . S
Co707 N708 1.995 . S
Co707 N713 2.008 . S
Co707 N718 1.995 . S
Co707 N723 2.282 1_554 S
Co707 N729 2.282 . S
N708 Co707 1.995 . S
N708 C709 1.376 . S
N708 C712 1.383 . S
C709 N708 1.376 . S
C709 C710 1.446 . S
C709 C739 1.391 . S
C710 C709 1.446 . S
C710 C711 1.339 . S
C710 H745 0.949 . S
C711 C710 1.339 . S
C711 C712 1.439 . S
C711 H746 0.950 . S
C712 N708 1.383 . S
C712 C711 1.439 . S
C712 C741 1.392 . S
N713 Co707 2.008 . S
N713 C714 1.376 . S
N713 C717 1.374 . S
C714 N713 1.376 . S
C714 C715 1.443 . S
C714 C741 1.389 . S
C715 C714 1.443 . S
C715 C716 1.340 . S
C715 H747 0.951 . S
C716 C715 1.340 . S
C716 C717 1.439 . S
C716 H748 0.950 . S
C717 N713 1.374 . S
C717 C716 1.439 . S
C717 C742 1.395 . S
N718 Co707 1.995 . S
N718 C719 1.376 . S
N718 C722 1.383 1_554 S
C719 N718 1.376 . S
C719 C720 1.440 1_554 S
C719 C742 1.397 . S
C720 C719 1.440 1_556 S
C720 C721 1.339 . S
C720 H749 0.949 . S
C721 C720 1.339 . S
C721 C722 1.439 . S
C721 H750 0.950 . S
C722 N718 1.383 1_556 S
C722 C721 1.439 . S
C722 C740 1.392 . S
N723 Co707 2.282 1_556 S
N723 C726 1.332 . S
N723 C728 1.332 . S
C724 C725 1.386 . S
C724 C727 1.388 . S
C725 C724 1.386 . S
C725 C726 1.382 . S
C725 H751 0.950 . S
C726 N723 1.332 . S
C726 C725 1.382 . S
C726 H737 0.952 . S
C727 C724 1.388 . S
C727 C728 1.382 . S
C727 H752 0.950 . S
C728 N723 1.332 . S
C728 C727 1.382 . S
C728 H738 0.954 . S
N729 Co707 2.282 . S
N729 C733 1.332 . S
N729 C734 1.332 . S
C730 C731 1.388 . S
C730 C734 1.382 . S
C730 H753 0.950 . S
C731 C730 1.388 . S
C731 C732 1.386 . S
C732 C731 1.386 . S
C732 C733 1.382 . S
C732 H754 0.950 . S
C733 N729 1.332 . S
C733 C732 1.382 . S
C733 H735 0.952 . S
C734 N729 1.332 . S
C734 C730 1.382 . S
C734 H736 0.948 . S
H735 C733 0.952 . S
H736 C734 0.948 . S
H737 C726 0.952 . S
H738 C728 0.954 . S
C739 C705 1.395 . S
C739 C709 1.391 . S
C740 C702 1.389 . S
C740 C722 1.392 . S
C741 C712 1.392 . S
C741 C714 1.389 . S
C742 C717 1.395 . S
C742 C719 1.397 . S
H743 C703 0.951 . S
H744 C704 0.950 . S
H745 C710 0.949 . S
H746 C711 0.950 . S
H747 C715 0.951 . S
H748 C716 0.950 . S
H749 C720 0.949 . S
H750 C721 0.950 . S
H751 C725 0.950 . S
H752 C727 0.950 . S
H753 C730 0.950 . S
H754 C732 0.950 . S
C755 C756 1.443 . S
C755 N759 1.376 . S
C755 C793 1.389 . S
C756 C755 1.443 . S
C756 C757 1.340 . S
C756 H796 0.951 . S
C757 C756 1.340 . S
C757 C758 1.439 . S
C757 H797 0.950 . S
C758 C757 1.439 . S
C758 N759 1.374 . S
C758 C792 1.369 1_554 S
N759 C755 1.376 . S
N759 C758 1.374 . S
N759 Co760 2.008 . S
Co760 N759 2.008 . S
Co760 N761 1.995 1_554 S
Co760 N766 2.008 1_554 S
Co760 N771 1.995 . S
Co760 N776 2.282 . S
Co760 N782 2.282 1_554 S
N761 Co760 1.995 1_556 S
N761 C762 1.376 . S
N761 C765 1.383 . S
C762 N761 1.376 . S
C762 C763 1.446 . S
C762 C792 1.415 . S
C763 C762 1.446 . S
C763 C764 1.339 . S
C763 H798 0.949 . S
C764 C763 1.339 . S
C764 C765 1.439 . S
C764 H799 0.950 . S
C765 N761 1.383 . S
C765 C764 1.439 . S
C765 C794 1.392 . S
N766 Co760 2.008 1_556 S
N766 C767 1.376 . S
N766 C770 1.365 1_556 S
C767 N766 1.376 . S
C767 C768 1.443 . S
C767 C794 1.389 . S
C768 C767 1.443 . S
C768 C769 1.340 . S
C768 H800 0.951 . S
C769 C768 1.340 . S
C769 C770 1.419 1_556 S
C769 H801 0.950 . S
C770 N766 1.365 1_554 S
C770 C769 1.419 1_554 S
C770 C795 1.424 . S
N771 Co760 1.995 . S
N771 C772 1.376 . S
N771 C775 1.383 . S
C772 N771 1.376 . S
C772 C773 1.446 . S
C772 C795 1.391 . S
C773 C772 1.446 . S
C773 C774 1.339 . S
C773 H802 0.949 . S
C774 C773 1.339 . S
C774 C775 1.439 . S
C774 H803 0.950 . S
C775 N771 1.383 . S
C775 C774 1.439 . S
C775 C793 1.392 . S
N776 Co760 2.282 . S
N776 C779 1.332 . S
N776 C781 1.332 . S
C777 C778 1.386 . S
C777 C780 1.388 . S
C778 C777 1.386 . S
C778 C779 1.382 . S
C778 H804 0.950 . S
C779 N776 1.332 . S
C779 C778 1.382 . S
C779 H790 0.952 . S
C780 C777 1.388 . S
C780 C781 1.382 . S
C780 H805 0.950 . S
C781 N776 1.332 . S
C781 C780 1.382 . S
C781 H791 0.948 . S
N782 Co760 2.282 1_556 S
N782 C786 1.332 . S
N782 C787 1.332 . S
C783 C784 1.388 . S
C783 C787 1.382 . S
C783 H806 0.950 . S
C784 C783 1.388 . S
C784 C785 1.386 . S
C785 C784 1.386 . S
C785 C786 1.382 . S
C785 H807 0.950 . S
C786 N782 1.332 . S
C786 C785 1.382 . S
C786 H788 0.952 . S
C787 N782 1.332 . S
C787 C783 1.382 . S
C787 H789 0.948 . S
H788 C786 0.952 . S
H789 C787 0.948 . S
H790 C779 0.952 . S
H791 C781 0.948 . S
C792 C758 1.369 1_556 S
C792 C762 1.415 . S
C793 C755 1.389 . S
C793 C775 1.392 . S
C794 C765 1.392 . S
C794 C767 1.389 . S
C795 C770 1.424 . S
C795 C772 1.391 . S
H796 C756 0.951 . S
H797 C757 0.950 . S
H798 C763 0.949 . S
H799 C764 0.950 . S
H800 C768 0.951 . S
H801 C769 0.950 . S
H802 C773 0.949 . S
H803 C774 0.950 . S
H804 C778 0.950 . S
H805 C780 0.950 . S
H806 C783 0.950 . S
H807 C785 0.950 . S
H808 C816 0.929 . S
H809 C818 0.930 . S
H810 C820 0.930 . S
H811 C823 0.929 . S
H812 C826 0.930 . S
H813 C828 0.960 . S
H814 C828 0.960 . S
H815 C828 0.960 . S
C816 H808 0.929 . S
C816 C817 1.377 . S
C816 C818 1.384 . S
C817 C816 1.377 . S
C817 C823 1.390 . S
C818 H809 0.930 . S
C818 C816 1.384 . S
C818 C819 1.372 . S
C819 C818 1.372 . S
C819 C820 1.400 . S
C819 C824 1.490 . S
C820 H810 0.930 . S
C820 C819 1.400 . S
C820 C823 1.386 . S
H821 C837 0.930 . S
H822 C838 0.931 . S
C823 H811 0.929 . S
C823 C817 1.390 . S
C823 C820 1.386 . S
C824 C819 1.490 . S
C824 C826 1.395 . S
C824 C827 1.403 . S
H825 C831 0.930 . S
C826 H812 0.930 . S
C826 C824 1.395 . S
C826 C829 1.403 . S
C827 C824 1.403 . S
C827 C828 1.524 . S
C827 C831 1.400 . S
C828 H813 0.960 . S
C828 H814 0.960 . S
C828 H815 0.960 . S
C828 C827 1.524 . S
C829 C826 1.403 . S
C829 C830 1.392 . S
C829 C833 1.495 . S
C830 C829 1.392 . S
C830 C831 1.385 . S
C830 C832 1.478 . S
C831 H825 0.930 . S
C831 C827 1.400 . S
C831 C830 1.385 . S
C832 C830 1.478 . S
C832 C834 1.381 . S
C832 C838 1.383 . S
C833 C829 1.495 . S
C833 H839 0.959 . S
C833 H840 0.961 . S
C833 H841 0.960 . S
C834 C832 1.381 . S
C834 C835 1.394 . S
C834 H842 0.930 . S
C835 C834 1.394 . S
C835 C836 1.383 . S
C835 H843 0.929 . S
C836 C835 1.383 . S
C836 C837 1.377 . S
C837 H821 0.930 . S
C837 C836 1.377 . S
C837 C838 1.379 . S
C838 H822 0.931 . S
C838 C832 1.383 . S
C838 C837 1.379 . S
H839 C833 0.959 . S
H840 C833 0.961 . S
H841 C833 0.960 . S
H842 C834 0.930 . S
H843 C835 0.929 . S
H844 C852 0.929 . S
H845 C854 0.930 . S
H846 C856 0.930 . S
H847 C859 0.929 . S
H848 C862 0.930 . S
H849 C864 0.960 . S
H850 C864 0.960 . S
H851 C864 0.960 . S
C852 H844 0.929 . S
C852 C853 1.377 . S
C852 C854 1.384 . S
C853 C852 1.377 . S
C853 C859 1.390 . S
C854 H845 0.930 . S
C854 C852 1.384 . S
C854 C855 1.372 . S
C855 C854 1.372 . S
C855 C856 1.400 . S
C855 C860 1.490 . S
C856 H846 0.930 . S
C856 C855 1.400 . S
C856 C859 1.386 . S
H857 C873 0.930 . S
H858 C874 0.931 . S
C859 H847 0.929 . S
C859 C853 1.390 . S
C859 C856 1.386 . S
C860 C855 1.490 . S
C860 C862 1.395 . S
C860 C863 1.403 . S
H861 C867 0.930 . S
C862 H848 0.930 . S
C862 C860 1.395 . S
C862 C865 1.403 . S
C863 C860 1.403 . S
C863 C864 1.524 . S
C863 C867 1.400 . S
C864 H849 0.960 . S
C864 H850 0.960 . S
C864 H851 0.960 . S
C864 C863 1.524 . S
C865 C862 1.403 . S
C865 C866 1.392 . S
C865 C869 1.495 . S
C866 C865 1.392 . S
C866 C867 1.385 . S
C866 C868 1.478 . S
C867 H861 0.930 . S
C867 C863 1.400 . S
C867 C866 1.385 . S
C868 C866 1.478 . S
C868 C870 1.381 . S
C868 C874 1.383 . S
C869 C865 1.495 . S
C869 H875 0.959 . S
C869 H876 0.961 . S
C869 H877 0.960 . S
C870 C868 1.381 . S
C870 C871 1.394 . S
C870 H878 0.930 . S
C871 C870 1.394 . S
C871 C872 1.383 . S
C871 H879 0.929 . S
C872 C871 1.383 . S
C872 C873 1.377 . S
C873 H857 0.930 . S
C873 C872 1.377 . S
C873 C874 1.379 . S
C874 H858 0.931 . S
C874 C868 1.383 . S
C874 C873 1.379 . S
H875 C869 0.959 . S
H876 C869 0.961 . S
H877 C869 0.960 . S
H878 C870 0.930 . S
H879 C871 0.929 . S
H880 C888 0.929 . S
H881 C890 0.930 . S
H882 C892 0.930 . S
H883 C895 0.929 . S
H884 C898 0.930 . S
H885 C900 0.960 . S
H886 C900 0.960 . S
H887 C900 0.960 . S
C888 H880 0.929 . S
C888 C889 1.377 . S
C888 C890 1.384 . S
C889 C888 1.377 . S
C889 C895 1.390 . S
C890 H881 0.930 . S
C890 C888 1.384 . S
C890 C891 1.372 . S
C891 C890 1.372 . S
C891 C892 1.400 . S
C891 C896 1.490 . S
C892 H882 0.930 . S
C892 C891 1.400 . S
C892 C895 1.386 . S
H893 C909 0.930 . S
H894 C910 0.931 . S
C895 H883 0.929 . S
C895 C889 1.390 . S
C895 C892 1.386 . S
C896 C891 1.490 . S
C896 C898 1.395 . S
C896 C899 1.403 . S
H897 C903 0.930 . S
C898 H884 0.930 . S
C898 C896 1.395 . S
C898 C901 1.403 . S
C899 C896 1.403 . S
C899 C900 1.524 . S
C899 C903 1.400 . S
C900 H885 0.960 . S
C900 H886 0.960 . S
C900 H887 0.960 . S
C900 C899 1.524 . S
C901 C898 1.403 . S
C901 C902 1.392 . S
C901 C905 1.495 . S
C902 C901 1.392 . S
C902 C903 1.385 . S
C902 C904 1.478 . S
C903 H897 0.930 . S
C903 C899 1.400 . S
C903 C902 1.385 . S
C904 C902 1.478 . S
C904 C906 1.381 . S
C904 C910 1.383 . S
C905 C901 1.495 . S
C905 H911 0.959 . S
C905 H912 0.961 . S
C905 H913 0.960 . S
C906 C904 1.381 . S
C906 C907 1.394 . S
C906 H914 0.930 . S
C907 C906 1.394 . S
C907 C908 1.383 . S
C907 H915 0.929 . S
C908 C907 1.383 . S
C908 C909 1.377 . S
C909 H893 0.930 . S
C909 C908 1.377 . S
C909 C910 1.379 . S
C910 H894 0.931 . S
C910 C904 1.383 . S
C910 C909 1.379 . S
H911 C905 0.959 . S
H912 C905 0.961 . S
H913 C905 0.960 . S
H914 C906 0.930 . S
H915 C907 0.929 . S
H916 C924 0.929 . S
H917 C926 0.930 . S
H918 C928 0.930 . S
H919 C931 0.929 . S
H920 C934 0.930 . S
H921 C936 0.960 . S
H922 C936 0.960 . S
H923 C936 0.960 . S
C924 H916 0.929 . S
C924 C925 1.377 . S
C924 C926 1.384 . S
C925 C924 1.377 . S
C925 C931 1.390 . S
C926 H917 0.930 . S
C926 C924 1.384 . S
C926 C927 1.372 . S
C927 C926 1.372 . S
C927 C928 1.400 . S
C927 C932 1.490 . S
C928 H918 0.930 . S
C928 C927 1.400 . S
C928 C931 1.386 . S
H929 C945 0.930 . S
H930 C946 0.931 . S
C931 H919 0.929 . S
C931 C925 1.390 . S
C931 C928 1.386 . S
C932 C927 1.490 . S
C932 C934 1.395 . S
C932 C935 1.403 . S
H933 C939 0.930 . S
C934 H920 0.930 . S
C934 C932 1.395 . S
C934 C937 1.403 . S
C935 C932 1.403 . S
C935 C936 1.524 . S
C935 C939 1.400 . S
C936 H921 0.960 . S
C936 H922 0.960 . S
C936 H923 0.960 . S
C936 C935 1.524 . S
C937 C934 1.403 . S
C937 C938 1.392 . S
C937 C941 1.495 . S
C938 C937 1.392 . S
C938 C939 1.385 . S
C938 C940 1.478 . S
C939 H933 0.930 . S
C939 C935 1.400 . S
C939 C938 1.385 . S
C940 C938 1.478 . S
C940 C942 1.381 . S
C940 C946 1.383 . S
C941 C937 1.495 . S
C941 H947 0.959 . S
C941 H948 0.961 . S
C941 H949 0.960 . S
C942 C940 1.381 . S
C942 C943 1.394 . S
C942 H950 0.930 . S
C943 C942 1.394 . S
C943 C944 1.383 . S
C943 H951 0.929 . S
C944 C943 1.383 . S
C944 C945 1.377 . S
C945 H929 0.930 . S
C945 C944 1.377 . S
C945 C946 1.379 . S
C946 H930 0.931 . S
C946 C940 1.383 . S
C946 C945 1.379 . S
H947 C941 0.959 . S
H948 C941 0.961 . S
H949 C941 0.960 . S
H950 C942 0.930 . S
H951 C943 0.929 . S
H952 C960 0.929 . S
H953 C962 0.930 . S
H954 C964 0.930 . S
H955 C967 0.929 . S
H956 C970 0.930 . S
H957 C972 0.960 . S
H958 C972 0.960 . S
H959 C972 0.960 . S
C960 H952 0.929 . S
C960 C961 1.377 . S
C960 C962 1.384 . S
C961 C960 1.377 . S
C961 C967 1.390 . S
C962 H953 0.930 . S
C962 C960 1.384 . S
C962 C963 1.372 . S
C963 C962 1.372 . S
C963 C964 1.400 . S
C963 C968 1.490 . S
C964 H954 0.930 . S
C964 C963 1.400 . S
C964 C967 1.386 . S
H965 C981 0.930 . S
H966 C982 0.931 . S
C967 H955 0.929 . S
C967 C961 1.390 . S
C967 C964 1.386 . S
C968 C963 1.490 . S
C968 C970 1.395 . S
C968 C971 1.403 . S
H969 C975 0.930 . S
C970 H956 0.930 . S
C970 C968 1.395 . S
C970 C973 1.403 . S
C971 C968 1.403 . S
C971 C972 1.524 . S
C971 C975 1.400 . S
C972 H957 0.960 . S
C972 H958 0.960 . S
C972 H959 0.960 . S
C972 C971 1.524 . S
C973 C970 1.403 . S
C973 C974 1.392 . S
C973 C977 1.495 . S
C974 C973 1.392 . S
C974 C975 1.385 . S
C974 C976 1.478 . S
C975 H969 0.930 . S
C975 C971 1.400 . S
C975 C974 1.385 . S
C976 C974 1.478 . S
C976 C978 1.381 . S
C976 C982 1.383 . S
C977 C973 1.495 . S
C977 H983 0.959 . S
C977 H984 0.961 . S
C977 H985 0.960 . S
C978 C976 1.381 . S
C978 C979 1.394 . S
C978 H986 0.930 . S
C979 C978 1.394 . S
C979 C980 1.383 . S
C979 H987 0.929 . S
C980 C979 1.383 . S
C980 C981 1.377 . S
C981 H965 0.930 . S
C981 C980 1.377 . S
C981 C982 1.379 . S
C982 H966 0.931 . S
C982 C976 1.383 . S
C982 C981 1.379 . S
H983 C977 0.959 . S
H984 C977 0.961 . S
H985 C977 0.960 . S
H986 C978 0.930 . S
H987 C979 0.929 . S
H988 C996 0.929 . S
H989 C998 0.930 . S
H990 C1000 0.930 . S
H991 C1003 0.929 . S
H992 C1006 0.930 . S
H993 C1008 0.960 . S
H994 C1008 0.960 . S
H995 C1008 0.960 . S
C996 H988 0.929 . S
C996 C997 1.377 . S
C996 C998 1.384 . S
C997 C996 1.377 . S
C997 C1003 1.390 . S
C998 H989 0.930 . S
C998 C996 1.384 . S
C998 C999 1.372 . S
C999 C998 1.372 . S
C999 C1000 1.400 . S
C999 C1004 1.490 . S
C1000 H990 0.930 . S
C1000 C999 1.400 . S
C1000 C1003 1.386 . S
H1001 C1017 0.930 . S
H1002 C1018 0.931 . S
C1003 H991 0.929 . S
C1003 C997 1.390 . S
C1003 C1000 1.386 . S
C1004 C999 1.490 . S
C1004 C1006 1.395 . S
C1004 C1007 1.403 . S
H1005 C1011 0.930 . S
C1006 H992 0.930 . S
C1006 C1004 1.395 . S
C1006 C1009 1.403 . S
C1007 C1004 1.403 . S
C1007 C1008 1.524 . S
C1007 C1011 1.400 . S
C1008 H993 0.960 . S
C1008 H994 0.960 . S
C1008 H995 0.960 . S
C1008 C1007 1.524 . S
C1009 C1006 1.403 . S
C1009 C1010 1.392 . S
C1009 C1013 1.495 . S
C1010 C1009 1.392 . S
C1010 C1011 1.385 . S
C1010 C1012 1.478 . S
C1011 H1005 0.930 . S
C1011 C1007 1.400 . S
C1011 C1010 1.385 . S
C1012 C1010 1.478 . S
C1012 C1014 1.381 . S
C1012 C1018 1.383 . S
C1013 C1009 1.495 . S
C1013 H1019 0.959 . S
C1013 H1020 0.961 . S
C1013 H1021 0.960 . S
C1014 C1012 1.381 . S
C1014 C1015 1.394 . S
C1014 H1022 0.930 . S
C1015 C1014 1.394 . S
C1015 C1016 1.383 . S
C1015 H1023 0.929 . S
C1016 C1015 1.383 . S
C1016 C1017 1.377 . S
C1017 H1001 0.930 . S
C1017 C1016 1.377 . S
C1017 C1018 1.379 . S
C1018 H1002 0.931 . S
C1018 C1012 1.383 . S
C1018 C1017 1.379 . S
H1019 C1013 0.959 . S
H1020 C1013 0.961 . S
H1021 C1013 0.960 . S
H1022 C1014 0.930 . S
H1023 C1015 0.929 . S
H1024 C1032 0.929 . S
H1025 C1034 0.930 . S
H1026 C1036 0.930 . S
H1027 C1039 0.929 . S
H1028 C1042 0.930 . S
H1029 C1044 0.960 . S
H1030 C1044 0.960 . S
H1031 C1044 0.960 . S
C1032 H1024 0.929 . S
C1032 C1033 1.377 . S
C1032 C1034 1.384 . S
C1033 C1032 1.377 . S
C1033 C1039 1.390 . S
C1034 H1025 0.930 . S
C1034 C1032 1.384 . S
C1034 C1035 1.372 . S
C1035 C1034 1.372 . S
C1035 C1036 1.400 . S
C1035 C1040 1.490 . S
C1036 H1026 0.930 . S
C1036 C1035 1.400 . S
C1036 C1039 1.386 . S
H1037 C1053 0.930 . S
H1038 C1054 0.931 . S
C1039 H1027 0.929 . S
C1039 C1033 1.390 . S
C1039 C1036 1.386 . S
C1040 C1035 1.490 . S
C1040 C1042 1.395 . S
C1040 C1043 1.403 . S
H1041 C1047 0.930 . S
C1042 H1028 0.930 . S
C1042 C1040 1.395 . S
C1042 C1045 1.403 . S
C1043 C1040 1.403 . S
C1043 C1044 1.524 . S
C1043 C1047 1.400 . S
C1044 H1029 0.960 . S
C1044 H1030 0.960 . S
C1044 H1031 0.960 . S
C1044 C1043 1.524 . S
C1045 C1042 1.403 . S
C1045 C1046 1.392 . S
C1045 C1049 1.495 . S
C1046 C1045 1.392 . S
C1046 C1047 1.385 . S
C1046 C1048 1.478 . S
C1047 H1041 0.930 . S
C1047 C1043 1.400 . S
C1047 C1046 1.385 . S
C1048 C1046 1.478 . S
C1048 C1050 1.381 . S
C1048 C1054 1.383 . S
C1049 C1045 1.495 . S
C1049 H1055 0.959 . S
C1049 H1056 0.961 . S
C1049 H1057 0.960 . S
C1050 C1048 1.381 . S
C1050 C1051 1.394 . S
C1050 H1058 0.930 . S
C1051 C1050 1.394 . S
C1051 C1052 1.383 . S
C1051 H1059 0.929 . S
C1052 C1051 1.383 . S
C1052 C1053 1.377 . S
C1053 H1037 0.930 . S
C1053 C1052 1.377 . S
C1053 C1054 1.379 . S
C1054 H1038 0.931 . S
C1054 C1048 1.383 . S
C1054 C1053 1.379 . S
H1055 C1049 0.959 . S
H1056 C1049 0.961 . S
H1057 C1049 0.960 . S
H1058 C1050 0.930 . S
H1059 C1051 0.929 . S
H1060 C1068 0.929 . S
H1061 C1070 0.930 . S
H1062 C1072 0.930 . S
H1063 C1075 0.929 . S
H1064 C1078 0.930 . S
H1065 C1080 0.960 . S
H1066 C1080 0.960 . S
H1067 C1080 0.960 . S
C1068 H1060 0.929 . S
C1068 C1069 1.377 . S
C1068 C1070 1.384 . S
C1069 C1068 1.377 . S
C1069 C1075 1.390 . S
C1070 H1061 0.930 . S
C1070 C1068 1.384 . S
C1070 C1071 1.372 . S
C1071 C1070 1.372 . S
C1071 C1072 1.400 . S
C1071 C1076 1.490 . S
C1072 H1062 0.930 . S
C1072 C1071 1.400 . S
C1072 C1075 1.386 . S
H1073 C1089 0.930 . S
H1074 C1090 0.931 . S
C1075 H1063 0.929 . S
C1075 C1069 1.390 . S
C1075 C1072 1.386 . S
C1076 C1071 1.490 . S
C1076 C1078 1.395 . S
C1076 C1079 1.403 . S
H1077 C1083 0.930 . S
C1078 H1064 0.930 . S
C1078 C1076 1.395 . S
C1078 C1081 1.403 . S
C1079 C1076 1.403 . S
C1079 C1080 1.524 . S
C1079 C1083 1.400 . S
C1080 H1065 0.960 . S
C1080 H1066 0.960 . S
C1080 H1067 0.960 . S
C1080 C1079 1.524 . S
C1081 C1078 1.403 . S
C1081 C1082 1.392 . S
C1081 C1085 1.495 . S
C1082 C1081 1.392 . S
C1082 C1083 1.385 . S
C1082 C1084 1.478 . S
C1083 H1077 0.930 . S
C1083 C1079 1.400 . S
C1083 C1082 1.385 . S
C1084 C1082 1.478 . S
C1084 C1086 1.381 . S
C1084 C1090 1.383 . S
C1085 C1081 1.495 . S
C1085 H1091 0.959 . S
C1085 H1092 0.961 . S
C1085 H1093 0.960 . S
C1086 C1084 1.381 . S
C1086 C1087 1.394 . S
C1086 H1094 0.930 . S
C1087 C1086 1.394 . S
C1087 C1088 1.383 . S
C1087 H1095 0.929 . S
C1088 C1087 1.383 . S
C1088 C1089 1.377 . S
C1089 H1073 0.930 . S
C1089 C1088 1.377 . S
C1089 C1090 1.379 . S
C1090 H1074 0.931 . S
C1090 C1084 1.383 . S
C1090 C1089 1.379 . S
H1091 C1085 0.959 . S
H1092 C1085 0.961 . S
H1093 C1085 0.960 . S
H1094 C1086 0.930 . S
H1095 C1087 0.929 . S
H1096 C1104 0.929 . S
H1097 C1106 0.930 . S
H1098 C1108 0.930 . S
H1099 C1111 0.929 . S
H1100 C1114 0.930 . S
H1101 C1116 0.960 . S
H1102 C1116 0.960 . S
H1103 C1116 0.960 . S
C1104 H1096 0.929 . S
C1104 C1105 1.377 . S
C1104 C1106 1.384 . S
C1105 C1104 1.377 . S
C1105 C1111 1.390 . S
C1106 H1097 0.930 . S
C1106 C1104 1.384 . S
C1106 C1107 1.372 . S
C1107 C1106 1.372 . S
C1107 C1108 1.400 . S
C1107 C1112 1.490 . S
C1108 H1098 0.930 . S
C1108 C1107 1.400 . S
C1108 C1111 1.386 . S
H1109 C1125 0.930 . S
H1110 C1126 0.931 . S
C1111 H1099 0.929 . S
C1111 C1105 1.390 . S
C1111 C1108 1.386 . S
C1112 C1107 1.490 . S
C1112 C1114 1.395 . S
C1112 C1115 1.403 . S
H1113 C1119 0.930 . S
C1114 H1100 0.930 . S
C1114 C1112 1.395 . S
C1114 C1117 1.403 . S
C1115 C1112 1.403 . S
C1115 C1116 1.524 . S
C1115 C1119 1.400 . S
C1116 H1101 0.960 . S
C1116 H1102 0.960 . S
C1116 H1103 0.960 . S
C1116 C1115 1.524 . S
C1117 C1114 1.403 . S
C1117 C1118 1.392 . S
C1117 C1121 1.495 . S
C1118 C1117 1.392 . S
C1118 C1119 1.385 . S
C1118 C1120 1.478 . S
C1119 H1113 0.930 . S
C1119 C1115 1.400 . S
C1119 C1118 1.385 . S
C1120 C1118 1.478 . S
C1120 C1122 1.381 . S
C1120 C1126 1.383 . S
C1121 C1117 1.495 . S
C1121 H1127 0.959 . S
C1121 H1128 0.961 . S
C1121 H1129 0.960 . S
C1122 C1120 1.381 . S
C1122 C1123 1.394 . S
C1122 H1130 0.930 . S
C1123 C1122 1.394 . S
C1123 C1124 1.383 . S
C1123 H1131 0.929 . S
C1124 C1123 1.383 . S
C1124 C1125 1.377 . S
C1125 H1109 0.930 . S
C1125 C1124 1.377 . S
C1125 C1126 1.379 . S
C1126 H1110 0.931 . S
C1126 C1120 1.383 . S
C1126 C1125 1.379 . S
H1127 C1121 0.959 . S
H1128 C1121 0.961 . S
H1129 C1121 0.960 . S
H1130 C1122 0.930 . S
H1131 C1123 0.929 . S
H1132 C1140 0.929 . S
H1133 C1142 0.930 . S
H1134 C1144 0.930 . S
H1135 C1147 0.929 . S
H1136 C1150 0.930 . S
H1137 C1152 0.960 . S
H1138 C1152 0.960 . S
H1139 C1152 0.960 . S
C1140 H1132 0.929 . S
C1140 C1141 1.377 . S
C1140 C1142 1.384 . S
C1141 C1140 1.377 . S
C1141 C1147 1.390 . S
C1142 H1133 0.930 . S
C1142 C1140 1.384 . S
C1142 C1143 1.372 . S
C1143 C1142 1.372 . S
C1143 C1144 1.400 . S
C1143 C1148 1.490 . S
C1144 H1134 0.930 . S
C1144 C1143 1.400 . S
C1144 C1147 1.386 . S
H1145 C1161 0.930 . S
H1146 C1162 0.931 . S
C1147 H1135 0.929 . S
C1147 C1141 1.390 . S
C1147 C1144 1.386 . S
C1148 C1143 1.490 . S
C1148 C1150 1.395 . S
C1148 C1151 1.403 . S
H1149 C1155 0.930 . S
C1150 H1136 0.930 . S
C1150 C1148 1.395 . S
C1150 C1153 1.403 . S
C1151 C1148 1.403 . S
C1151 C1152 1.524 . S
C1151 C1155 1.400 . S
C1152 H1137 0.960 . S
C1152 H1138 0.960 . S
C1152 H1139 0.960 . S
C1152 C1151 1.524 . S
C1153 C1150 1.403 . S
C1153 C1154 1.392 . S
C1153 C1157 1.495 . S
C1154 C1153 1.392 . S
C1154 C1155 1.385 . S
C1154 C1156 1.478 . S
C1155 H1149 0.930 . S
C1155 C1151 1.400 . S
C1155 C1154 1.385 . S
C1156 C1154 1.478 . S
C1156 C1158 1.381 . S
C1156 C1162 1.383 . S
C1157 C1153 1.495 . S
C1157 H1163 0.959 . S
C1157 H1164 0.961 . S
C1157 H1165 0.960 . S
C1158 C1156 1.381 . S
C1158 C1159 1.394 . S
C1158 H1166 0.930 . S
C1159 C1158 1.394 . S
C1159 C1160 1.383 . S
C1159 H1167 0.929 . S
C1160 C1159 1.383 . S
C1160 C1161 1.377 . S
C1161 H1145 0.930 . S
C1161 C1160 1.377 . S
C1161 C1162 1.379 . S
C1162 H1146 0.931 . S
C1162 C1156 1.383 . S
C1162 C1161 1.379 . S
H1163 C1157 0.959 . S
H1164 C1157 0.961 . S
H1165 C1157 0.960 . S
H1166 C1158 0.930 . S
H1167 C1159 0.929 . S
H1168 C1176 0.929 . S
H1169 C1178 0.930 . S
H1170 C1180 0.930 . S
H1171 C1183 0.929 . S
H1172 C1186 0.930 . S
H1173 C1188 0.960 . S
H1174 C1188 0.960 . S
H1175 C1188 0.960 . S
C1176 H1168 0.929 . S
C1176 C1177 1.377 . S
C1176 C1178 1.384 . S
C1177 C1176 1.377 . S
C1177 C1183 1.390 . S
C1178 H1169 0.930 . S
C1178 C1176 1.384 . S
C1178 C1179 1.372 . S
C1179 C1178 1.372 . S
C1179 C1180 1.400 . S
C1179 C1184 1.490 . S
C1180 H1170 0.930 . S
C1180 C1179 1.400 . S
C1180 C1183 1.386 . S
H1181 C1197 0.930 . S
H1182 C1198 0.931 . S
C1183 H1171 0.929 . S
C1183 C1177 1.390 . S
C1183 C1180 1.386 . S
C1184 C1179 1.490 . S
C1184 C1186 1.395 . S
C1184 C1187 1.403 . S
H1185 C1191 0.930 . S
C1186 H1172 0.930 . S
C1186 C1184 1.395 . S
C1186 C1189 1.403 . S
C1187 C1184 1.403 . S
C1187 C1188 1.524 . S
C1187 C1191 1.400 . S
C1188 H1173 0.960 . S
C1188 H1174 0.960 . S
C1188 H1175 0.960 . S
C1188 C1187 1.524 . S
C1189 C1186 1.403 . S
C1189 C1190 1.392 . S
C1189 C1193 1.495 . S
C1190 C1189 1.392 . S
C1190 C1191 1.385 . S
C1190 C1192 1.478 . S
C1191 H1185 0.930 . S
C1191 C1187 1.400 . S
C1191 C1190 1.385 . S
C1192 C1190 1.478 . S
C1192 C1194 1.381 . S
C1192 C1198 1.383 . S
C1193 C1189 1.495 . S
C1193 H1199 0.959 . S
C1193 H1200 0.961 . S
C1193 H1201 0.960 . S
C1194 C1192 1.381 . S
C1194 C1195 1.394 . S
C1194 H1202 0.930 . S
C1195 C1194 1.394 . S
C1195 C1196 1.383 . S
C1195 H1203 0.929 . S
C1196 C1195 1.383 . S
C1196 C1197 1.377 . S
C1197 H1181 0.930 . S
C1197 C1196 1.377 . S
C1197 C1198 1.379 . S
C1198 H1182 0.931 . S
C1198 C1192 1.383 . S
C1198 C1197 1.379 . S
H1199 C1193 0.959 . S
H1200 C1193 0.961 . S
H1201 C1193 0.960 . S
H1202 C1194 0.930 . S
H1203 C1195 0.929 . S
H1204 C1212 0.929 . S
H1205 C1214 0.930 . S
H1206 C1216 0.930 . S
H1207 C1219 0.929 . S
H1208 C1222 0.930 . S
H1209 C1224 0.960 . S
H1210 C1224 0.960 . S
H1211 C1224 0.960 . S
C1212 H1204 0.929 . S
C1212 C1213 1.377 . S
C1212 C1214 1.384 . S
C1213 C1212 1.377 . S
C1213 C1219 1.390 . S
C1214 H1205 0.930 . S
C1214 C1212 1.384 . S
C1214 C1215 1.372 . S
C1215 C1214 1.372 . S
C1215 C1216 1.400 . S
C1215 C1220 1.490 . S
C1216 H1206 0.930 . S
C1216 C1215 1.400 . S
C1216 C1219 1.386 . S
H1217 C1233 0.930 . S
H1218 C1234 0.931 . S
C1219 H1207 0.929 . S
C1219 C1213 1.390 . S
C1219 C1216 1.386 . S
C1220 C1215 1.490 . S
C1220 C1222 1.395 . S
C1220 C1223 1.403 . S
H1221 C1227 0.930 . S
C1222 H1208 0.930 . S
C1222 C1220 1.395 . S
C1222 C1225 1.403 . S
C1223 C1220 1.403 . S
C1223 C1224 1.524 . S
C1223 C1227 1.400 . S
C1224 H1209 0.960 . S
C1224 H1210 0.960 . S
C1224 H1211 0.960 . S
C1224 C1223 1.524 . S
C1225 C1222 1.403 . S
C1225 C1226 1.392 . S
C1225 C1229 1.495 . S
C1226 C1225 1.392 . S
C1226 C1227 1.385 . S
C1226 C1228 1.478 . S
C1227 H1221 0.930 . S
C1227 C1223 1.400 . S
C1227 C1226 1.385 . S
C1228 C1226 1.478 . S
C1228 C1230 1.381 . S
C1228 C1234 1.383 . S
C1229 C1225 1.495 . S
C1229 H1235 0.959 . S
C1229 H1236 0.961 . S
C1229 H1237 0.960 . S
C1230 C1228 1.381 . S
C1230 C1231 1.394 . S
C1230 H1238 0.930 . S
C1231 C1230 1.394 . S
C1231 C1232 1.383 . S
C1231 H1239 0.929 . S
C1232 C1231 1.383 . S
C1232 C1233 1.377 . S
C1233 H1217 0.930 . S
C1233 C1232 1.377 . S
C1233 C1234 1.379 . S
C1234 H1218 0.931 . S
C1234 C1228 1.383 . S
C1234 C1233 1.379 . S
H1235 C1229 0.959 . S
H1236 C1229 0.961 . S
H1237 C1229 0.960 . S
H1238 C1230 0.930 . S
H1239 C1231 0.929 . S
H1240 C1248 0.929 . S
H1241 C1250 0.930 . S
H1242 C1252 0.930 . S
H1243 C1255 0.929 . S
H1244 C1258 0.930 . S
H1245 C1260 0.960 . S
H1246 C1260 0.960 . S
H1247 C1260 0.960 . S
C1248 H1240 0.929 . S
C1248 C1249 1.377 . S
C1248 C1250 1.384 . S
C1249 C1248 1.377 . S
C1249 C1255 1.390 . S
C1250 H1241 0.930 . S
C1250 C1248 1.384 . S
C1250 C1251 1.372 . S
C1251 C1250 1.372 . S
C1251 C1252 1.400 . S
C1251 C1256 1.490 . S
C1252 H1242 0.930 . S
C1252 C1251 1.400 . S
C1252 C1255 1.386 . S
H1253 C1269 0.930 . S
H1254 C1270 0.931 . S
C1255 H1243 0.929 . S
C1255 C1249 1.390 . S
C1255 C1252 1.386 . S
C1256 C1251 1.490 . S
C1256 C1258 1.395 . S
C1256 C1259 1.403 . S
H1257 C1263 0.930 . S
C1258 H1244 0.930 . S
C1258 C1256 1.395 . S
C1258 C1261 1.403 . S
C1259 C1256 1.403 . S
C1259 C1260 1.524 . S
C1259 C1263 1.400 . S
C1260 H1245 0.960 . S
C1260 H1246 0.960 . S
C1260 H1247 0.960 . S
C1260 C1259 1.524 . S
C1261 C1258 1.403 . S
C1261 C1262 1.392 . S
C1261 C1265 1.495 . S
C1262 C1261 1.392 . S
C1262 C1263 1.385 . S
C1262 C1264 1.478 . S
C1263 H1257 0.930 . S
C1263 C1259 1.400 . S
C1263 C1262 1.385 . S
C1264 C1262 1.478 . S
C1264 C1266 1.381 . S
C1264 C1270 1.383 . S
C1265 C1261 1.495 . S
C1265 H1271 0.959 . S
C1265 H1272 0.961 . S
C1265 H1273 0.960 . S
C1266 C1264 1.381 . S
C1266 C1267 1.394 . S
C1266 H1274 0.930 . S
C1267 C1266 1.394 . S
C1267 C1268 1.383 . S
C1267 H1275 0.929 . S
C1268 C1267 1.383 . S
C1268 C1269 1.377 . S
C1269 H1253 0.930 . S
C1269 C1268 1.377 . S
C1269 C1270 1.379 . S
C1270 H1254 0.931 . S
C1270 C1264 1.383 . S
C1270 C1269 1.379 . S
H1271 C1265 0.959 . S
H1272 C1265 0.961 . S
H1273 C1265 0.960 . S
H1274 C1266 0.930 . S
H1275 C1267 0.929 . S
H1276 C1284 0.929 . S
H1277 C1286 0.930 . S
H1278 C1288 0.930 . S
H1279 C1291 0.929 . S
H1280 C1294 0.930 . S
H1281 C1296 0.960 . S
H1282 C1296 0.960 . S
H1283 C1296 0.960 . S
C1284 H1276 0.929 . S
C1284 C1285 1.377 . S
C1284 C1286 1.384 . S
C1285 C1284 1.377 . S
C1285 C1291 1.390 . S
C1286 H1277 0.930 . S
C1286 C1284 1.384 . S
C1286 C1287 1.372 . S
C1287 C1286 1.372 . S
C1287 C1288 1.400 . S
C1287 C1292 1.490 . S
C1288 H1278 0.930 . S
C1288 C1287 1.400 . S
C1288 C1291 1.386 . S
H1289 C1305 0.930 . S
H1290 C1306 0.931 . S
C1291 H1279 0.929 . S
C1291 C1285 1.390 . S
C1291 C1288 1.386 . S
C1292 C1287 1.490 . S
C1292 C1294 1.395 . S
C1292 C1295 1.403 . S
H1293 C1299 0.930 . S
C1294 H1280 0.930 . S
C1294 C1292 1.395 . S
C1294 C1297 1.403 . S
C1295 C1292 1.403 . S
C1295 C1296 1.524 . S
C1295 C1299 1.400 . S
C1296 H1281 0.960 . S
C1296 H1282 0.960 . S
C1296 H1283 0.960 . S
C1296 C1295 1.524 . S
C1297 C1294 1.403 . S
C1297 C1298 1.392 . S
C1297 C1301 1.495 . S
C1298 C1297 1.392 . S
C1298 C1299 1.385 . S
C1298 C1300 1.478 . S
C1299 H1293 0.930 . S
C1299 C1295 1.400 . S
C1299 C1298 1.385 . S
C1300 C1298 1.478 . S
C1300 C1302 1.381 . S
C1300 C1306 1.383 . S
C1301 C1297 1.495 . S
C1301 H1307 0.959 . S
C1301 H1308 0.961 . S
C1301 H1309 0.960 . S
C1302 C1300 1.381 . S
C1302 C1303 1.394 . S
C1302 H1310 0.930 . S
C1303 C1302 1.394 . S
C1303 C1304 1.383 . S
C1303 H1311 0.929 . S
C1304 C1303 1.383 . S
C1304 C1305 1.377 . S
C1305 H1289 0.930 . S
C1305 C1304 1.377 . S
C1305 C1306 1.379 . S
C1306 H1290 0.931 . S
C1306 C1300 1.383 . S
C1306 C1305 1.379 . S
H1307 C1301 0.959 . S
H1308 C1301 0.961 . S
H1309 C1301 0.960 . S
H1310 C1302 0.930 . S
H1311 C1303 0.929 . S
H1312 C1320 0.929 . S
H1313 C1322 0.930 . S
H1314 C1324 0.930 . S
H1315 C1327 0.929 . S
H1316 C1330 0.930 . S
H1317 C1332 0.960 . S
H1318 C1332 0.960 . S
H1319 C1332 0.960 . S
C1320 H1312 0.929 . S
C1320 C1321 1.377 . S
C1320 C1322 1.384 . S
C1321 C1320 1.377 . S
C1321 C1327 1.390 . S
C1322 H1313 0.930 . S
C1322 C1320 1.384 . S
C1322 C1323 1.372 . S
C1323 C1322 1.372 . S
C1323 C1324 1.400 . S
C1323 C1328 1.490 . S
C1324 H1314 0.930 . S
C1324 C1323 1.400 . S
C1324 C1327 1.386 . S
H1325 C1341 0.930 . S
H1326 C1342 0.931 . S
C1327 H1315 0.929 . S
C1327 C1321 1.390 . S
C1327 C1324 1.386 . S
C1328 C1323 1.490 . S
C1328 C1330 1.395 . S
C1328 C1331 1.403 . S
H1329 C1335 0.930 . S
C1330 H1316 0.930 . S
C1330 C1328 1.395 . S
C1330 C1333 1.403 . S
C1331 C1328 1.403 . S
C1331 C1332 1.524 . S
C1331 C1335 1.400 . S
C1332 H1317 0.960 . S
C1332 H1318 0.960 . S
C1332 H1319 0.960 . S
C1332 C1331 1.524 . S
C1333 C1330 1.403 . S
C1333 C1334 1.392 . S
C1333 C1337 1.495 . S
C1334 C1333 1.392 . S
C1334 C1335 1.385 . S
C1334 C1336 1.478 . S
C1335 H1329 0.930 . S
C1335 C1331 1.400 . S
C1335 C1334 1.385 . S
C1336 C1334 1.478 . S
C1336 C1338 1.381 . S
C1336 C1342 1.383 . S
C1337 C1333 1.495 . S
C1337 H1343 0.959 . S
C1337 H1344 0.961 . S
C1337 H1345 0.960 . S
C1338 C1336 1.381 . S
C1338 C1339 1.394 . S
C1338 H1346 0.930 . S
C1339 C1338 1.394 . S
C1339 C1340 1.383 . S
C1339 H1347 0.929 . S
C1340 C1339 1.383 . S
C1340 C1341 1.377 . S
C1341 H1325 0.930 . S
C1341 C1340 1.377 . S
C1341 C1342 1.379 . S
C1342 H1326 0.931 . S
C1342 C1336 1.383 . S
C1342 C1341 1.379 . S
H1343 C1337 0.959 . S
H1344 C1337 0.961 . S
H1345 C1337 0.960 . S
H1346 C1338 0.930 . S
H1347 C1339 0.929 . S
H1348 C1356 0.929 . S
H1349 C1358 0.930 . S
H1350 C1360 0.930 . S
H1351 C1363 0.929 . S
H1352 C1366 0.930 . S
H1353 C1368 0.960 . S
H1354 C1368 0.960 . S
H1355 C1368 0.960 . S
C1356 H1348 0.929 . S
C1356 C1357 1.377 . S
C1356 C1358 1.384 . S
C1357 C1356 1.377 . S
C1357 C1363 1.390 . S
C1358 H1349 0.930 . S
C1358 C1356 1.384 . S
C1358 C1359 1.372 . S
C1359 C1358 1.372 . S
C1359 C1360 1.400 . S
C1359 C1364 1.490 . S
C1360 H1350 0.930 . S
C1360 C1359 1.400 . S
C1360 C1363 1.386 . S
H1361 C1377 0.930 . S
H1362 C1378 0.931 . S
C1363 H1351 0.929 . S
C1363 C1357 1.390 . S
C1363 C1360 1.386 . S
C1364 C1359 1.490 . S
C1364 C1366 1.395 . S
C1364 C1367 1.403 . S
H1365 C1371 0.930 . S
C1366 H1352 0.930 . S
C1366 C1364 1.395 . S
C1366 C1369 1.403 . S
C1367 C1364 1.403 . S
C1367 C1368 1.524 . S
C1367 C1371 1.400 . S
C1368 H1353 0.960 . S
C1368 H1354 0.960 . S
C1368 H1355 0.960 . S
C1368 C1367 1.524 . S
C1369 C1366 1.403 . S
C1369 C1370 1.392 . S
C1369 C1373 1.495 . S
C1370 C1369 1.392 . S
C1370 C1371 1.385 . S
C1370 C1372 1.478 . S
C1371 H1365 0.930 . S
C1371 C1367 1.400 . S
C1371 C1370 1.385 . S
C1372 C1370 1.478 . S
C1372 C1374 1.381 . S
C1372 C1378 1.383 . S
C1373 C1369 1.495 . S
C1373 H1379 0.959 . S
C1373 H1380 0.961 . S
C1373 H1381 0.960 . S
C1374 C1372 1.381 . S
C1374 C1375 1.394 . S
C1374 H1382 0.930 . S
C1375 C1374 1.394 . S
C1375 C1376 1.383 . S
C1375 H1383 0.929 . S
C1376 C1375 1.383 . S
C1376 C1377 1.377 . S
C1377 H1361 0.930 . S
C1377 C1376 1.377 . S
C1377 C1378 1.379 . S
C1378 H1362 0.931 . S
C1378 C1372 1.383 . S
C1378 C1377 1.379 . S
H1379 C1373 0.959 . S
H1380 C1373 0.961 . S
H1381 C1373 0.960 . S
H1382 C1374 0.930 . S
H1383 C1375 0.929 . S
H1384 C1392 0.929 . S
H1385 C1394 0.930 . S
H1386 C1396 0.930 . S
H1387 C1399 0.929 . S
H1388 C1402 0.930 . S
H1389 C1404 0.960 . S
H1390 C1404 0.960 . S
H1391 C1404 0.960 . S
C1392 H1384 0.929 . S
C1392 C1393 1.377 . S
C1392 C1394 1.384 . S
C1393 C1392 1.377 . S
C1393 C1399 1.390 . S
C1394 H1385 0.930 . S
C1394 C1392 1.384 . S
C1394 C1395 1.372 . S
C1395 C1394 1.372 . S
C1395 C1396 1.400 . S
C1395 C1400 1.490 . S
C1396 H1386 0.930 . S
C1396 C1395 1.400 . S
C1396 C1399 1.386 . S
H1397 C1413 0.930 . S
H1398 C1414 0.931 . S
C1399 H1387 0.929 . S
C1399 C1393 1.390 . S
C1399 C1396 1.386 . S
C1400 C1395 1.490 . S
C1400 C1402 1.395 . S
C1400 C1403 1.403 . S
H1401 C1407 0.930 . S
C1402 H1388 0.930 . S
C1402 C1400 1.395 . S
C1402 C1405 1.403 . S
C1403 C1400 1.403 . S
C1403 C1404 1.524 . S
C1403 C1407 1.400 . S
C1404 H1389 0.960 . S
C1404 H1390 0.960 . S
C1404 H1391 0.960 . S
C1404 C1403 1.524 . S
C1405 C1402 1.403 . S
C1405 C1406 1.392 . S
C1405 C1409 1.495 . S
C1406 C1405 1.392 . S
C1406 C1407 1.385 . S
C1406 C1408 1.478 . S
C1407 H1401 0.930 . S
C1407 C1403 1.400 . S
C1407 C1406 1.385 . S
C1408 C1406 1.478 . S
C1408 C1410 1.381 . S
C1408 C1414 1.383 . S
C1409 C1405 1.495 . S
C1409 H1415 0.959 . S
C1409 H1416 0.961 . S
C1409 H1417 0.960 . S
C1410 C1408 1.381 . S
C1410 C1411 1.394 . S
C1410 H1418 0.930 . S
C1411 C1410 1.394 . S
C1411 C1412 1.383 . S
C1411 H1419 0.929 . S
C1412 C1411 1.383 . S
C1412 C1413 1.377 . S
C1413 H1397 0.930 . S
C1413 C1412 1.377 . S
C1413 C1414 1.379 . S
C1414 H1398 0.931 . S
C1414 C1408 1.383 . S
C1414 C1413 1.379 . S
H1415 C1409 0.959 . S
H1416 C1409 0.961 . S
H1417 C1409 0.960 . S
H1418 C1410 0.930 . S
H1419 C1411 0.929 . S
H1420 C1428 0.929 . S
H1421 C1430 0.930 . S
H1422 C1432 0.930 . S
H1423 C1435 0.929 . S
H1424 C1438 0.930 . S
H1425 C1440 0.960 . S
H1426 C1440 0.960 . S
H1427 C1440 0.960 . S
C1428 H1420 0.929 . S
C1428 C1429 1.377 . S
C1428 C1430 1.384 . S
C1429 C1428 1.377 . S
C1429 C1435 1.390 . S
C1430 H1421 0.930 . S
C1430 C1428 1.384 . S
C1430 C1431 1.372 . S
C1431 C1430 1.372 . S
C1431 C1432 1.400 . S
C1431 C1436 1.490 . S
C1432 H1422 0.930 . S
C1432 C1431 1.400 . S
C1432 C1435 1.386 . S
H1433 C1449 0.930 . S
H1434 C1450 0.931 . S
C1435 H1423 0.929 . S
C1435 C1429 1.390 . S
C1435 C1432 1.386 . S
C1436 C1431 1.490 . S
C1436 C1438 1.395 . S
C1436 C1439 1.403 . S
H1437 C1443 0.930 . S
C1438 H1424 0.930 . S
C1438 C1436 1.395 . S
C1438 C1441 1.403 . S
C1439 C1436 1.403 . S
C1439 C1440 1.524 . S
C1439 C1443 1.400 . S
C1440 H1425 0.960 . S
C1440 H1426 0.960 . S
C1440 H1427 0.960 . S
C1440 C1439 1.524 . S
C1441 C1438 1.403 . S
C1441 C1442 1.392 . S
C1441 C1445 1.495 . S
C1442 C1441 1.392 . S
C1442 C1443 1.385 . S
C1442 C1444 1.478 . S
C1443 H1437 0.930 . S
C1443 C1439 1.400 . S
C1443 C1442 1.385 . S
C1444 C1442 1.478 . S
C1444 C1446 1.381 . S
C1444 C1450 1.383 . S
C1445 C1441 1.495 . S
C1445 H1451 0.959 . S
C1445 H1452 0.961 . S
C1445 H1453 0.960 . S
C1446 C1444 1.381 . S
C1446 C1447 1.394 . S
C1446 H1454 0.930 . S
C1447 C1446 1.394 . S
C1447 C1448 1.383 . S
C1447 H1455 0.929 . S
C1448 C1447 1.383 . S
C1448 C1449 1.377 . S
C1449 H1433 0.930 . S
C1449 C1448 1.377 . S
C1449 C1450 1.379 . S
C1450 H1434 0.931 . S
C1450 C1444 1.383 . S
C1450 C1449 1.379 . S
H1451 C1445 0.959 . S
H1452 C1445 0.961 . S
H1453 C1445 0.960 . S
H1454 C1446 0.930 . S
H1455 C1447 0.929 . S
H1456 C1464 0.929 . S
H1457 C1466 0.930 . S
H1458 C1468 0.930 . S
H1459 C1471 0.929 . S
H1460 C1474 0.930 . S
H1461 C1476 0.960 . S
H1462 C1476 0.960 . S
H1463 C1476 0.960 . S
C1464 H1456 0.929 . S
C1464 C1465 1.377 . S
C1464 C1466 1.384 . S
C1465 C1464 1.377 . S
C1465 C1471 1.390 . S
C1466 H1457 0.930 . S
C1466 C1464 1.384 . S
C1466 C1467 1.372 . S
C1467 C1466 1.372 . S
C1467 C1468 1.400 . S
C1467 C1472 1.490 . S
C1468 H1458 0.930 . S
C1468 C1467 1.400 . S
C1468 C1471 1.386 . S
H1469 C1485 0.930 . S
H1470 C1486 0.931 . S
C1471 H1459 0.929 . S
C1471 C1465 1.390 . S
C1471 C1468 1.386 . S
C1472 C1467 1.490 . S
C1472 C1474 1.395 . S
C1472 C1475 1.403 . S
H1473 C1479 0.930 . S
C1474 H1460 0.930 . S
C1474 C1472 1.395 . S
C1474 C1477 1.403 . S
C1475 C1472 1.403 . S
C1475 C1476 1.524 . S
C1475 C1479 1.400 . S
C1476 H1461 0.960 . S
C1476 H1462 0.960 . S
C1476 H1463 0.960 . S
C1476 C1475 1.524 . S
C1477 C1474 1.403 . S
C1477 C1478 1.392 . S
C1477 C1481 1.495 . S
C1478 C1477 1.392 . S
C1478 C1479 1.385 . S
C1478 C1480 1.478 . S
C1479 H1473 0.930 . S
C1479 C1475 1.400 . S
C1479 C1478 1.385 . S
C1480 C1478 1.478 . S
C1480 C1482 1.381 . S
C1480 C1486 1.383 . S
C1481 C1477 1.495 . S
C1481 H1487 0.959 . S
C1481 H1488 0.961 . S
C1481 H1489 0.960 . S
C1482 C1480 1.381 . S
C1482 C1483 1.394 . S
C1482 H1490 0.930 . S
C1483 C1482 1.394 . S
C1483 C1484 1.383 . S
C1483 H1491 0.929 . S
C1484 C1483 1.383 . S
C1484 C1485 1.377 . S
C1485 H1469 0.930 . S
C1485 C1484 1.377 . S
C1485 C1486 1.379 . S
C1486 H1470 0.931 . S
C1486 C1480 1.383 . S
C1486 C1485 1.379 . S
H1487 C1481 0.959 . S
H1488 C1481 0.961 . S
H1489 C1481 0.960 . S
H1490 C1482 0.930 . S
H1491 C1483 0.929 . S
H1492 C1500 0.929 . S
H1493 C1502 0.930 . S
H1494 C1504 0.930 . S
H1495 C1507 0.929 . S
H1496 C1510 0.930 . S
H1497 C1512 0.960 . S
H1498 C1512 0.960 . S
H1499 C1512 0.960 . S
C1500 H1492 0.929 . S
C1500 C1501 1.377 . S
C1500 C1502 1.384 . S
C1501 C1500 1.377 . S
C1501 C1507 1.390 . S
C1502 H1493 0.930 . S
C1502 C1500 1.384 . S
C1502 C1503 1.372 . S
C1503 C1502 1.372 . S
C1503 C1504 1.400 . S
C1503 C1508 1.490 . S
C1504 H1494 0.930 . S
C1504 C1503 1.400 . S
C1504 C1507 1.386 . S
H1505 C1521 0.930 . S
H1506 C1522 0.931 . S
C1507 H1495 0.929 . S
C1507 C1501 1.390 . S
C1507 C1504 1.386 . S
C1508 C1503 1.490 . S
C1508 C1510 1.395 . S
C1508 C1511 1.403 . S
H1509 C1515 0.930 . S
C1510 H1496 0.930 . S
C1510 C1508 1.395 . S
C1510 C1513 1.403 . S
C1511 C1508 1.403 . S
C1511 C1512 1.524 . S
C1511 C1515 1.400 . S
C1512 H1497 0.960 . S
C1512 H1498 0.960 . S
C1512 H1499 0.960 . S
C1512 C1511 1.524 . S
C1513 C1510 1.403 . S
C1513 C1514 1.392 . S
C1513 C1517 1.495 . S
C1514 C1513 1.392 . S
C1514 C1515 1.385 . S
C1514 C1516 1.478 . S
C1515 H1509 0.930 . S
C1515 C1511 1.400 . S
C1515 C1514 1.385 . S
C1516 C1514 1.478 . S
C1516 C1518 1.381 . S
C1516 C1522 1.383 . S
C1517 C1513 1.495 . S
C1517 H1523 0.959 . S
C1517 H1524 0.961 . S
C1517 H1525 0.960 . S
C1518 C1516 1.381 . S
C1518 C1519 1.394 . S
C1518 H1526 0.930 . S
C1519 C1518 1.394 . S
C1519 C1520 1.383 . S
C1519 H1527 0.929 . S
C1520 C1519 1.383 . S
C1520 C1521 1.377 . S
C1521 H1505 0.930 . S
C1521 C1520 1.377 . S
C1521 C1522 1.379 . S
C1522 H1506 0.931 . S
C1522 C1516 1.383 . S
C1522 C1521 1.379 . S
H1523 C1517 0.959 . S
H1524 C1517 0.961 . S
H1525 C1517 0.960 . S
H1526 C1518 0.930 . S
H1527 C1519 0.929 . S
H1528 C1536 0.929 . S
H1529 C1538 0.930 . S
H1530 C1540 0.930 . S
H1531 C1543 0.929 . S
H1532 C1546 0.930 . S
H1533 C1548 0.960 . S
H1534 C1548 0.960 . S
H1535 C1548 0.960 . S
C1536 H1528 0.929 . S
C1536 C1537 1.377 . S
C1536 C1538 1.384 . S
C1537 C1536 1.377 . S
C1537 C1543 1.390 . S
C1538 H1529 0.930 . S
C1538 C1536 1.384 . S
C1538 C1539 1.372 . S
C1539 C1538 1.372 . S
C1539 C1540 1.400 . S
C1539 C1544 1.490 . S
C1540 H1530 0.930 . S
C1540 C1539 1.400 . S
C1540 C1543 1.386 . S
H1541 C1557 0.930 . S
H1542 C1558 0.931 . S
C1543 H1531 0.929 . S
C1543 C1537 1.390 . S
C1543 C1540 1.386 . S
C1544 C1539 1.490 . S
C1544 C1546 1.395 . S
C1544 C1547 1.403 . S
H1545 C1551 0.930 . S
C1546 H1532 0.930 . S
C1546 C1544 1.395 . S
C1546 C1549 1.403 . S
C1547 C1544 1.403 . S
C1547 C1548 1.524 . S
C1547 C1551 1.400 . S
C1548 H1533 0.960 . S
C1548 H1534 0.960 . S
C1548 H1535 0.960 . S
C1548 C1547 1.524 . S
C1549 C1546 1.403 . S
C1549 C1550 1.392 . S
C1549 C1553 1.495 . S
C1550 C1549 1.392 . S
C1550 C1551 1.385 . S
C1550 C1552 1.478 . S
C1551 H1545 0.930 . S
C1551 C1547 1.400 . S
C1551 C1550 1.385 . S
C1552 C1550 1.478 . S
C1552 C1554 1.381 . S
C1552 C1558 1.383 . S
C1553 C1549 1.495 . S
C1553 H1559 0.959 . S
C1553 H1560 0.961 . S
C1553 H1561 0.960 . S
C1554 C1552 1.381 . S
C1554 C1555 1.394 . S
C1554 H1562 0.930 . S
C1555 C1554 1.394 . S
C1555 C1556 1.383 . S
C1555 H1563 0.929 . S
C1556 C1555 1.383 . S
C1556 C1557 1.377 . S
C1557 H1541 0.930 . S
C1557 C1556 1.377 . S
C1557 C1558 1.379 . S
C1558 H1542 0.931 . S
C1558 C1552 1.383 . S
C1558 C1557 1.379 . S
H1559 C1553 0.959 . S
H1560 C1553 0.961 . S
H1561 C1553 0.960 . S
H1562 C1554 0.930 . S
H1563 C1555 0.929 . S
H1564 C1572 0.929 . S
H1565 C1574 0.930 . S
H1566 C1576 0.930 . S
H1567 C1579 0.929 . S
H1568 C1582 0.930 . S
H1569 C1584 0.960 . S
H1570 C1584 0.960 . S
H1571 C1584 0.960 . S
C1572 H1564 0.929 . S
C1572 C1573 1.377 . S
C1572 C1574 1.384 . S
C1573 C1572 1.377 . S
C1573 C1579 1.390 . S
C1574 H1565 0.930 . S
C1574 C1572 1.384 . S
C1574 C1575 1.372 . S
C1575 C1574 1.372 . S
C1575 C1576 1.400 . S
C1575 C1580 1.490 . S
C1576 H1566 0.930 . S
C1576 C1575 1.400 . S
C1576 C1579 1.386 . S
H1577 C1593 0.930 . S
H1578 C1594 0.931 . S
C1579 H1567 0.929 . S
C1579 C1573 1.390 . S
C1579 C1576 1.386 . S
C1580 C1575 1.490 . S
C1580 C1582 1.395 . S
C1580 C1583 1.403 . S
H1581 C1587 0.930 . S
C1582 H1568 0.930 . S
C1582 C1580 1.395 . S
C1582 C1585 1.403 . S
C1583 C1580 1.403 . S
C1583 C1584 1.524 . S
C1583 C1587 1.400 . S
C1584 H1569 0.960 . S
C1584 H1570 0.960 . S
C1584 H1571 0.960 . S
C1584 C1583 1.524 . S
C1585 C1582 1.403 . S
C1585 C1586 1.392 . S
C1585 C1589 1.495 . S
C1586 C1585 1.392 . S
C1586 C1587 1.385 . S
C1586 C1588 1.478 . S
C1587 H1581 0.930 . S
C1587 C1583 1.400 . S
C1587 C1586 1.385 . S
C1588 C1586 1.478 . S
C1588 C1590 1.381 . S
C1588 C1594 1.383 . S
C1589 C1585 1.495 . S
C1589 H1595 0.959 . S
C1589 H1596 0.961 . S
C1589 H1597 0.960 . S
C1590 C1588 1.381 . S
C1590 C1591 1.394 . S
C1590 H1598 0.930 . S
C1591 C1590 1.394 . S
C1591 C1592 1.383 . S
C1591 H1599 0.929 . S
C1592 C1591 1.383 . S
C1592 C1593 1.377 . S
C1593 H1577 0.930 . S
C1593 C1592 1.377 . S
C1593 C1594 1.379 . S
C1594 H1578 0.931 . S
C1594 C1588 1.383 . S
C1594 C1593 1.379 . S
H1595 C1589 0.959 . S
H1596 C1589 0.961 . S
H1597 C1589 0.960 . S
H1598 C1590 0.930 . S
H1599 C1591 0.929 . S
H1600 C1608 0.929 . S
H1601 C1610 0.930 . S
H1602 C1612 0.930 . S
H1603 C1615 0.929 . S
H1604 C1618 0.930 . S
H1605 C1620 0.960 . S
H1606 C1620 0.960 . S
H1607 C1620 0.960 . S
C1608 H1600 0.929 . S
C1608 C1609 1.377 . S
C1608 C1610 1.384 . S
C1609 C1608 1.377 . S
C1609 C1615 1.390 . S
C1610 H1601 0.930 . S
C1610 C1608 1.384 . S
C1610 C1611 1.372 . S
C1611 C1610 1.372 . S
C1611 C1612 1.400 . S
C1611 C1616 1.490 . S
C1612 H1602 0.930 . S
C1612 C1611 1.400 . S
C1612 C1615 1.386 . S
H1613 C1629 0.930 . S
H1614 C1630 0.931 . S
C1615 H1603 0.929 . S
C1615 C1609 1.390 . S
C1615 C1612 1.386 . S
C1616 C1611 1.490 . S
C1616 C1618 1.395 . S
C1616 C1619 1.403 . S
H1617 C1623 0.930 . S
C1618 H1604 0.930 . S
C1618 C1616 1.395 . S
C1618 C1621 1.403 . S
C1619 C1616 1.403 . S
C1619 C1620 1.524 . S
C1619 C1623 1.400 . S
C1620 H1605 0.960 . S
C1620 H1606 0.960 . S
C1620 H1607 0.960 . S
C1620 C1619 1.524 . S
C1621 C1618 1.403 . S
C1621 C1622 1.392 . S
C1621 C1625 1.495 . S
C1622 C1621 1.392 . S
C1622 C1623 1.385 . S
C1622 C1624 1.478 . S
C1623 H1617 0.930 . S
C1623 C1619 1.400 . S
C1623 C1622 1.385 . S
C1624 C1622 1.478 . S
C1624 C1626 1.381 . S
C1624 C1630 1.383 . S
C1625 C1621 1.495 . S
C1625 H1631 0.959 . S
C1625 H1632 0.961 . S
C1625 H1633 0.960 . S
C1626 C1624 1.381 . S
C1626 C1627 1.394 . S
C1626 H1634 0.930 . S
C1627 C1626 1.394 . S
C1627 C1628 1.383 . S
C1627 H1635 0.929 . S
C1628 C1627 1.383 . S
C1628 C1629 1.377 . S
C1629 H1613 0.930 . S
C1629 C1628 1.377 . S
C1629 C1630 1.379 . S
C1630 H1614 0.931 . S
C1630 C1624 1.383 . S
C1630 C1629 1.379 . S
H1631 C1625 0.959 . S
H1632 C1625 0.961 . S
H1633 C1625 0.960 . S
H1634 C1626 0.930 . S
H1635 C1627 0.929 . S
H1636 C1644 0.929 . S
H1637 C1646 0.930 . S
H1638 C1648 0.930 . S
H1639 C1651 0.929 . S
H1640 C1654 0.930 . S
H1641 C1656 0.960 . S
H1642 C1656 0.960 . S
H1643 C1656 0.960 . S
C1644 H1636 0.929 . S
C1644 C1645 1.377 . S
C1644 C1646 1.384 . S
C1645 C1644 1.377 . S
C1645 C1651 1.390 . S
C1646 H1637 0.930 . S
C1646 C1644 1.384 . S
C1646 C1647 1.372 . S
C1647 C1646 1.372 . S
C1647 C1648 1.400 . S
C1647 C1652 1.490 . S
C1648 H1638 0.930 . S
C1648 C1647 1.400 . S
C1648 C1651 1.386 . S
H1649 C1665 0.930 . S
H1650 C1666 0.931 . S
C1651 H1639 0.929 . S
C1651 C1645 1.390 . S
C1651 C1648 1.386 . S
C1652 C1647 1.490 . S
C1652 C1654 1.395 . S
C1652 C1655 1.403 . S
H1653 C1659 0.930 . S
C1654 H1640 0.930 . S
C1654 C1652 1.395 . S
C1654 C1657 1.403 . S
C1655 C1652 1.403 . S
C1655 C1656 1.524 . S
C1655 C1659 1.400 . S
C1656 H1641 0.960 . S
C1656 H1642 0.960 . S
C1656 H1643 0.960 . S
C1656 C1655 1.524 . S
C1657 C1654 1.403 . S
C1657 C1658 1.392 . S
C1657 C1661 1.495 . S
C1658 C1657 1.392 . S
C1658 C1659 1.385 . S
C1658 C1660 1.478 . S
C1659 H1653 0.930 . S
C1659 C1655 1.400 . S
C1659 C1658 1.385 . S
C1660 C1658 1.478 . S
C1660 C1662 1.381 . S
C1660 C1666 1.383 . S
C1661 C1657 1.495 . S
C1661 H1667 0.959 . S
C1661 H1668 0.961 . S
C1661 H1669 0.960 . S
C1662 C1660 1.381 . S
C1662 C1663 1.394 . S
C1662 H1670 0.930 . S
C1663 C1662 1.394 . S
C1663 C1664 1.383 . S
C1663 H1671 0.929 . S
C1664 C1663 1.383 . S
C1664 C1665 1.377 . S
C1665 H1649 0.930 . S
C1665 C1664 1.377 . S
C1665 C1666 1.379 . S
C1666 H1650 0.931 . S
C1666 C1660 1.383 . S
C1666 C1665 1.379 . S
H1667 C1661 0.959 . S
H1668 C1661 0.961 . S
H1669 C1661 0.960 . S
H1670 C1662 0.930 . S
H1671 C1663 0.929 . S
H1672 C1680 0.929 . S
H1673 C1682 0.930 . S
H1674 C1684 0.930 . S
H1675 C1687 0.929 . S
H1676 C1690 0.930 . S
H1677 C1692 0.960 . S
H1678 C1692 0.960 . S
H1679 C1692 0.960 . S
C1680 H1672 0.929 . S
C1680 C1681 1.377 . S
C1680 C1682 1.384 . S
C1681 C1680 1.377 . S
C1681 C1687 1.390 . S
C1682 H1673 0.930 . S
C1682 C1680 1.384 . S
C1682 C1683 1.372 . S
C1683 C1682 1.372 . S
C1683 C1684 1.400 . S
C1683 C1688 1.490 . S
C1684 H1674 0.930 . S
C1684 C1683 1.400 . S
C1684 C1687 1.386 . S
H1685 C1701 0.930 . S
H1686 C1702 0.931 . S
C1687 H1675 0.929 . S
C1687 C1681 1.390 . S
C1687 C1684 1.386 . S
C1688 C1683 1.490 . S
C1688 C1690 1.395 . S
C1688 C1691 1.403 . S
H1689 C1695 0.930 . S
C1690 H1676 0.930 . S
C1690 C1688 1.395 . S
C1690 C1693 1.403 . S
C1691 C1688 1.403 . S
C1691 C1692 1.524 . S
C1691 C1695 1.400 . S
C1692 H1677 0.960 . S
C1692 H1678 0.960 . S
C1692 H1679 0.960 . S
C1692 C1691 1.524 . S
C1693 C1690 1.403 . S
C1693 C1694 1.392 . S
C1693 C1697 1.495 . S
C1694 C1693 1.392 . S
C1694 C1695 1.385 . S
C1694 C1696 1.478 . S
C1695 H1689 0.930 . S
C1695 C1691 1.400 . S
C1695 C1694 1.385 . S
C1696 C1694 1.478 . S
C1696 C1698 1.381 . S
C1696 C1702 1.383 . S
C1697 C1693 1.495 . S
C1697 H1703 0.959 . S
C1697 H1704 0.961 . S
C1697 H1705 0.960 . S
C1698 C1696 1.381 . S
C1698 C1699 1.394 . S
C1698 H1706 0.930 . S
C1699 C1698 1.394 . S
C1699 C1700 1.383 . S
C1699 H1707 0.929 . S
C1700 C1699 1.383 . S
C1700 C1701 1.377 . S
C1701 H1685 0.930 . S
C1701 C1700 1.377 . S
C1701 C1702 1.379 . S
C1702 H1686 0.931 . S
C1702 C1696 1.383 . S
C1702 C1701 1.379 . S
H1703 C1697 0.959 . S
H1704 C1697 0.961 . S
H1705 C1697 0.960 . S
H1706 C1698 0.930 . S
H1707 C1699 0.929 . S
H1708 C1716 0.929 . S
H1709 C1718 0.930 . S
H1710 C1720 0.930 . S
H1711 C1723 0.929 . S
H1712 C1726 0.930 . S
H1713 C1728 0.960 . S
H1714 C1728 0.960 . S
H1715 C1728 0.960 . S
C1716 H1708 0.929 . S
C1716 C1717 1.377 . S
C1716 C1718 1.384 . S
C1717 C1716 1.377 . S
C1717 C1723 1.390 . S
C1718 H1709 0.930 . S
C1718 C1716 1.384 . S
C1718 C1719 1.372 . S
C1719 C1718 1.372 . S
C1719 C1720 1.400 . S
C1719 C1724 1.490 . S
C1720 H1710 0.930 . S
C1720 C1719 1.400 . S
C1720 C1723 1.386 . S
H1721 C1737 0.930 . S
H1722 C1738 0.931 . S
C1723 H1711 0.929 . S
C1723 C1717 1.390 . S
C1723 C1720 1.386 . S
C1724 C1719 1.490 . S
C1724 C1726 1.395 . S
C1724 C1727 1.403 . S
H1725 C1731 0.930 . S
C1726 H1712 0.930 . S
C1726 C1724 1.395 . S
C1726 C1729 1.403 . S
C1727 C1724 1.403 . S
C1727 C1728 1.524 . S
C1727 C1731 1.400 . S
C1728 H1713 0.960 . S
C1728 H1714 0.960 . S
C1728 H1715 0.960 . S
C1728 C1727 1.524 . S
C1729 C1726 1.403 . S
C1729 C1730 1.392 . S
C1729 C1733 1.495 . S
C1730 C1729 1.392 . S
C1730 C1731 1.385 . S
C1730 C1732 1.478 . S
C1731 H1725 0.930 . S
C1731 C1727 1.400 . S
C1731 C1730 1.385 . S
C1732 C1730 1.478 . S
C1732 C1734 1.381 . S
C1732 C1738 1.383 . S
C1733 C1729 1.495 . S
C1733 H1739 0.959 . S
C1733 H1740 0.961 . S
C1733 H1741 0.960 . S
C1734 C1732 1.381 . S
C1734 C1735 1.394 . S
C1734 H1742 0.930 . S
C1735 C1734 1.394 . S
C1735 C1736 1.383 . S
C1735 H1743 0.929 . S
C1736 C1735 1.383 . S
C1736 C1737 1.377 . S
C1737 H1721 0.930 . S
C1737 C1736 1.377 . S
C1737 C1738 1.379 . S
C1738 H1722 0.931 . S
C1738 C1732 1.383 . S
C1738 C1737 1.379 . S
H1739 C1733 0.959 . S
H1740 C1733 0.961 . S
H1741 C1733 0.960 . S
H1742 C1734 0.930 . S
H1743 C1735 0.929 . S
H1744 C1752 0.929 . S
H1745 C1754 0.930 . S
H1746 C1756 0.930 . S
H1747 C1759 0.929 . S
H1748 C1762 0.930 . S
H1749 C1764 0.960 . S
H1750 C1764 0.960 . S
H1751 C1764 0.960 . S
C1752 H1744 0.929 . S
C1752 C1753 1.377 . S
C1752 C1754 1.384 . S
C1753 C1752 1.377 . S
C1753 C1759 1.390 . S
C1754 H1745 0.930 . S
C1754 C1752 1.384 . S
C1754 C1755 1.372 . S
C1755 C1754 1.372 . S
C1755 C1756 1.400 . S
C1755 C1760 1.490 . S
C1756 H1746 0.930 . S
C1756 C1755 1.400 . S
C1756 C1759 1.386 . S
H1757 C1773 0.930 . S
H1758 C1774 0.931 . S
C1759 H1747 0.929 . S
C1759 C1753 1.390 . S
C1759 C1756 1.386 . S
C1760 C1755 1.490 . S
C1760 C1762 1.395 . S
C1760 C1763 1.403 . S
H1761 C1767 0.930 . S
C1762 H1748 0.930 . S
C1762 C1760 1.395 . S
C1762 C1765 1.403 . S
C1763 C1760 1.403 . S
C1763 C1764 1.524 . S
C1763 C1767 1.400 . S
C1764 H1749 0.960 . S
C1764 H1750 0.960 . S
C1764 H1751 0.960 . S
C1764 C1763 1.524 . S
C1765 C1762 1.403 . S
C1765 C1766 1.392 . S
C1765 C1769 1.495 . S
C1766 C1765 1.392 . S
C1766 C1767 1.385 . S
C1766 C1768 1.478 . S
C1767 H1761 0.930 . S
C1767 C1763 1.400 . S
C1767 C1766 1.385 . S
C1768 C1766 1.478 . S
C1768 C1770 1.381 . S
C1768 C1774 1.383 . S
C1769 C1765 1.495 . S
C1769 H1775 0.959 . S
C1769 H1776 0.961 . S
C1769 H1777 0.960 . S
C1770 C1768 1.381 . S
C1770 C1771 1.394 . S
C1770 H1778 0.930 . S
C1771 C1770 1.394 . S
C1771 C1772 1.383 . S
C1771 H1779 0.929 . S
C1772 C1771 1.383 . S
C1772 C1773 1.377 . S
C1773 H1757 0.930 . S
C1773 C1772 1.377 . S
C1773 C1774 1.379 . S
C1774 H1758 0.931 . S
C1774 C1768 1.383 . S
C1774 C1773 1.379 . S
H1775 C1769 0.959 . S
H1776 C1769 0.961 . S
H1777 C1769 0.960 . S
H1778 C1770 0.930 . S
H1779 C1771 0.929 . S
H1780 C1788 0.929 . S
H1781 C1790 0.930 . S
H1782 C1792 0.930 . S
H1783 C1795 0.929 . S
H1784 C1798 0.930 . S
H1785 C1800 0.960 . S
H1786 C1800 0.960 . S
H1787 C1800 0.960 . S
C1788 H1780 0.929 . S
C1788 C1789 1.377 . S
C1788 C1790 1.384 . S
C1789 C1788 1.377 . S
C1789 C1795 1.390 . S
C1790 H1781 0.930 . S
C1790 C1788 1.384 . S
C1790 C1791 1.372 . S
C1791 C1790 1.372 . S
C1791 C1792 1.400 . S
C1791 C1796 1.490 . S
C1792 H1782 0.930 . S
C1792 C1791 1.400 . S
C1792 C1795 1.386 . S
H1793 C1809 0.930 . S
H1794 C1810 0.931 . S
C1795 H1783 0.929 . S
C1795 C1789 1.390 . S
C1795 C1792 1.386 . S
C1796 C1791 1.490 . S
C1796 C1798 1.395 . S
C1796 C1799 1.403 . S
H1797 C1803 0.930 . S
C1798 H1784 0.930 . S
C1798 C1796 1.395 . S
C1798 C1801 1.403 . S
C1799 C1796 1.403 . S
C1799 C1800 1.524 . S
C1799 C1803 1.400 . S
C1800 H1785 0.960 . S
C1800 H1786 0.960 . S
C1800 H1787 0.960 . S
C1800 C1799 1.524 . S
C1801 C1798 1.403 . S
C1801 C1802 1.392 . S
C1801 C1805 1.495 . S
C1802 C1801 1.392 . S
C1802 C1803 1.385 . S
C1802 C1804 1.478 . S
C1803 H1797 0.930 . S
C1803 C1799 1.400 . S
C1803 C1802 1.385 . S
C1804 C1802 1.478 . S
C1804 C1806 1.381 . S
C1804 C1810 1.383 . S
C1805 C1801 1.495 . S
C1805 H1811 0.959 . S
C1805 H1812 0.961 . S
C1805 H1813 0.960 . S
C1806 C1804 1.381 . S
C1806 C1807 1.394 . S
C1806 H1814 0.930 . S
C1807 C1806 1.394 . S
C1807 C1808 1.383 . S
C1807 H1815 0.929 . S
C1808 C1807 1.383 . S
C1808 C1809 1.377 . S
C1809 H1793 0.930 . S
C1809 C1808 1.377 . S
C1809 C1810 1.379 . S
C1810 H1794 0.931 . S
C1810 C1804 1.383 . S
C1810 C1809 1.379 . S
H1811 C1805 0.959 . S
H1812 C1805 0.961 . S
H1813 C1805 0.960 . S
H1814 C1806 0.930 . S
H1815 C1807 0.929 . S
H1816 C1824 0.929 . S
H1817 C1826 0.930 . S
H1818 C1828 0.930 . S
H1819 C1831 0.929 . S
H1820 C1834 0.930 . S
H1821 C1836 0.960 . S
H1822 C1836 0.960 . S
H1823 C1836 0.960 . S
C1824 H1816 0.929 . S
C1824 C1825 1.377 . S
C1824 C1826 1.384 . S
C1825 C1824 1.377 . S
C1825 C1831 1.390 . S
C1826 H1817 0.930 . S
C1826 C1824 1.384 . S
C1826 C1827 1.372 . S
C1827 C1826 1.372 . S
C1827 C1828 1.400 . S
C1827 C1832 1.490 . S
C1828 H1818 0.930 . S
C1828 C1827 1.400 . S
C1828 C1831 1.386 . S
H1829 C1845 0.930 . S
H1830 C1846 0.931 . S
C1831 H1819 0.929 . S
C1831 C1825 1.390 . S
C1831 C1828 1.386 . S
C1832 C1827 1.490 . S
C1832 C1834 1.395 . S
C1832 C1835 1.403 . S
H1833 C1839 0.930 . S
C1834 H1820 0.930 . S
C1834 C1832 1.395 . S
C1834 C1837 1.403 . S
C1835 C1832 1.403 . S
C1835 C1836 1.524 . S
C1835 C1839 1.400 . S
C1836 H1821 0.960 . S
C1836 H1822 0.960 . S
C1836 H1823 0.960 . S
C1836 C1835 1.524 . S
C1837 C1834 1.403 . S
C1837 C1838 1.392 . S
C1837 C1841 1.495 . S
C1838 C1837 1.392 . S
C1838 C1839 1.385 . S
C1838 C1840 1.478 . S
C1839 H1833 0.930 . S
C1839 C1835 1.400 . S
C1839 C1838 1.385 . S
C1840 C1838 1.478 . S
C1840 C1842 1.381 . S
C1840 C1846 1.383 . S
C1841 C1837 1.495 . S
C1841 H1847 0.959 . S
C1841 H1848 0.961 . S
C1841 H1849 0.960 . S
C1842 C1840 1.381 . S
C1842 C1843 1.394 . S
C1842 H1850 0.930 . S
C1843 C1842 1.394 . S
C1843 C1844 1.383 . S
C1843 H1851 0.929 . S
C1844 C1843 1.383 . S
C1844 C1845 1.377 . S
C1845 H1829 0.930 . S
C1845 C1844 1.377 . S
C1845 C1846 1.379 . S
C1846 H1830 0.931 . S
C1846 C1840 1.383 . S
C1846 C1845 1.379 . S
H1847 C1841 0.959 . S
H1848 C1841 0.961 . S
H1849 C1841 0.960 . S
H1850 C1842 0.930 . S
H1851 C1843 0.929 . S
H1852 C1860 0.929 . S
H1853 C1862 0.930 . S
H1854 C1864 0.930 . S
H1855 C1867 0.929 . S
H1856 C1870 0.930 . S
H1857 C1872 0.960 . S
H1858 C1872 0.960 . S
H1859 C1872 0.960 . S
C1860 H1852 0.929 . S
C1860 C1861 1.377 . S
C1860 C1862 1.384 . S
C1861 C1860 1.377 . S
C1861 C1867 1.390 . S
C1862 H1853 0.930 . S
C1862 C1860 1.384 . S
C1862 C1863 1.372 . S
C1863 C1862 1.372 . S
C1863 C1864 1.400 . S
C1863 C1868 1.490 . S
C1864 H1854 0.930 . S
C1864 C1863 1.400 . S
C1864 C1867 1.386 . S
H1865 C1881 0.930 . S
H1866 C1882 0.931 . S
C1867 H1855 0.929 . S
C1867 C1861 1.390 . S
C1867 C1864 1.386 . S
C1868 C1863 1.490 . S
C1868 C1870 1.395 . S
C1868 C1871 1.403 . S
H1869 C1875 0.930 . S
C1870 H1856 0.930 . S
C1870 C1868 1.395 . S
C1870 C1873 1.403 . S
C1871 C1868 1.403 . S
C1871 C1872 1.524 . S
C1871 C1875 1.400 . S
C1872 H1857 0.960 . S
C1872 H1858 0.960 . S
C1872 H1859 0.960 . S
C1872 C1871 1.524 . S
C1873 C1870 1.403 . S
C1873 C1874 1.392 . S
C1873 C1877 1.495 . S
C1874 C1873 1.392 . S
C1874 C1875 1.385 . S
C1874 C1876 1.478 . S
C1875 H1869 0.930 . S
C1875 C1871 1.400 . S
C1875 C1874 1.385 . S
C1876 C1874 1.478 . S
C1876 C1878 1.381 . S
C1876 C1882 1.383 . S
C1877 C1873 1.495 . S
C1877 H1883 0.959 . S
C1877 H1884 0.961 . S
C1877 H1885 0.960 . S
C1878 C1876 1.381 . S
C1878 C1879 1.394 . S
C1878 H1886 0.930 . S
C1879 C1878 1.394 . S
C1879 C1880 1.383 . S
C1879 H1887 0.929 . S
C1880 C1879 1.383 . S
C1880 C1881 1.377 . S
C1881 H1865 0.930 . S
C1881 C1880 1.377 . S
C1881 C1882 1.379 . S
C1882 H1866 0.931 . S
C1882 C1876 1.383 . S
C1882 C1881 1.379 . S
H1883 C1877 0.959 . S
H1884 C1877 0.961 . S
H1885 C1877 0.960 . S
H1886 C1878 0.930 . S
H1887 C1879 0.929 . S
H1888 C1896 0.929 . S
H1889 C1898 0.930 . S
H1890 C1900 0.930 . S
H1891 C1903 0.929 . S
H1892 C1906 0.930 . S
H1893 C1908 0.960 . S
H1894 C1908 0.960 . S
H1895 C1908 0.960 . S
C1896 H1888 0.929 . S
C1896 C1897 1.377 . S
C1896 C1898 1.384 . S
C1897 C1896 1.377 . S
C1897 C1903 1.390 . S
C1898 H1889 0.930 . S
C1898 C1896 1.384 . S
C1898 C1899 1.372 . S
C1899 C1898 1.372 . S
C1899 C1900 1.400 . S
C1899 C1904 1.490 . S
C1900 H1890 0.930 . S
C1900 C1899 1.400 . S
C1900 C1903 1.386 . S
H1901 C1917 0.930 . S
H1902 C1918 0.931 . S
C1903 H1891 0.929 . S
C1903 C1897 1.390 . S
C1903 C1900 1.386 . S
C1904 C1899 1.490 . S
C1904 C1906 1.395 . S
C1904 C1907 1.403 . S
H1905 C1911 0.930 . S
C1906 H1892 0.930 . S
C1906 C1904 1.395 . S
C1906 C1909 1.403 . S
C1907 C1904 1.403 . S
C1907 C1908 1.524 . S
C1907 C1911 1.400 . S
C1908 H1893 0.960 . S
C1908 H1894 0.960 . S
C1908 H1895 0.960 . S
C1908 C1907 1.524 . S
C1909 C1906 1.403 . S
C1909 C1910 1.392 . S
C1909 C1913 1.495 . S
C1910 C1909 1.392 . S
C1910 C1911 1.385 . S
C1910 C1912 1.478 . S
C1911 H1905 0.930 . S
C1911 C1907 1.400 . S
C1911 C1910 1.385 . S
C1912 C1910 1.478 . S
C1912 C1914 1.381 . S
C1912 C1918 1.383 . S
C1913 C1909 1.495 . S
C1913 H1919 0.959 . S
C1913 H1920 0.961 . S
C1913 H1921 0.960 . S
C1914 C1912 1.381 . S
C1914 C1915 1.394 . S
C1914 H1922 0.930 . S
C1915 C1914 1.394 . S
C1915 C1916 1.383 . S
C1915 H1923 0.929 . S
C1916 C1915 1.383 . S
C1916 C1917 1.377 . S
C1917 H1901 0.930 . S
C1917 C1916 1.377 . S
C1917 C1918 1.379 . S
C1918 H1902 0.931 . S
C1918 C1912 1.383 . S
C1918 C1917 1.379 . S
H1919 C1913 0.959 . S
H1920 C1913 0.961 . S
H1921 C1913 0.960 . S
H1922 C1914 0.930 . S
H1923 C1915 0.929 . S
H1924 C1932 0.929 . S
H1925 C1934 0.930 . S
H1926 C1936 0.930 . S
H1927 C1939 0.929 . S
H1928 C1942 0.930 . S
H1929 C1944 0.960 . S
H1930 C1944 0.960 . S
H1931 C1944 0.960 . S
C1932 H1924 0.929 . S
C1932 C1933 1.377 . S
C1932 C1934 1.384 . S
C1933 C1932 1.377 . S
C1933 C1939 1.390 . S
C1934 H1925 0.930 . S
C1934 C1932 1.384 . S
C1934 C1935 1.372 . S
C1935 C1934 1.372 . S
C1935 C1936 1.400 . S
C1935 C1940 1.490 . S
C1936 H1926 0.930 . S
C1936 C1935 1.400 . S
C1936 C1939 1.386 . S
H1937 C1953 0.930 . S
H1938 C1954 0.931 . S
C1939 H1927 0.929 . S
C1939 C1933 1.390 . S
C1939 C1936 1.386 . S
C1940 C1935 1.490 . S
C1940 C1942 1.395 . S
C1940 C1943 1.403 . S
H1941 C1947 0.930 . S
C1942 H1928 0.930 . S
C1942 C1940 1.395 . S
C1942 C1945 1.403 . S
C1943 C1940 1.403 . S
C1943 C1944 1.524 . S
C1943 C1947 1.400 . S
C1944 H1929 0.960 . S
C1944 H1930 0.960 . S
C1944 H1931 0.960 . S
C1944 C1943 1.524 . S
C1945 C1942 1.403 . S
C1945 C1946 1.392 . S
C1945 C1949 1.495 . S
C1946 C1945 1.392 . S
C1946 C1947 1.385 . S
C1946 C1948 1.478 . S
C1947 H1941 0.930 . S
C1947 C1943 1.400 . S
C1947 C1946 1.385 . S
C1948 C1946 1.478 . S
C1948 C1950 1.381 . S
C1948 C1954 1.383 . S
C1949 C1945 1.495 . S
C1949 H1955 0.959 . S
C1949 H1956 0.961 . S
C1949 H1957 0.960 . S
C1950 C1948 1.381 . S
C1950 C1951 1.394 . S
C1950 H1958 0.930 . S
C1951 C1950 1.394 . S
C1951 C1952 1.383 . S
C1951 H1959 0.929 . S
C1952 C1951 1.383 . S
C1952 C1953 1.377 . S
C1953 H1937 0.930 . S
C1953 C1952 1.377 . S
C1953 C1954 1.379 . S
C1954 H1938 0.931 . S
C1954 C1948 1.383 . S
C1954 C1953 1.379 . S
H1955 C1949 0.959 . S
H1956 C1949 0.961 . S
H1957 C1949 0.960 . S
H1958 C1950 0.930 . S
H1959 C1951 0.929 . S
C836 C413 1.452 . S
C817 C36 1.456 . S
C872 C466 1.285 . S
C853 C93 1.284 . S
C908 C529 1.524 . S
C889 C132 1.526 . S
C944 C572 1.243 . S
C925 C174 1.248 . S
C961 C213 1.521 . S
C980 C528 1.521 . S
C1016 C565 1.309 . S
C997 C285 1.305 . S
C1052 C406 1.456 . S
C1033 C324 1.460 . S
C1088 C459 1.222 . S
C1069 C366 1.219 . S
C1124 C512 1.481 . S
C1105 C357 1.480 . S
C1160 C581 1.781 . S
C1141 C222 1.786 . S
C1196 C422 1.554 . S
C1177 C276 1.554 . S
C1232 C475 1.720 . S
C1213 C333 1.716 . S
C1268 C423 1.539 . S
C1249 C84 1.543 . S
C1304 C476 1.779 . S
C1285 C141 1.779 . S
C1340 C519 1.484 . S
C1321 C165 1.488 . S
C1376 C582 1.722 . S
C1357 C45 1.716 . S
C1412 C625 1.428 . S
C1393 C372 1.428 . S
C1429 C237 1.663 . S
C1448 C678 1.667 . S
C1465 C261 1.552 . S
C1484 C740 1.548 . S
C1501 C318 1.662 . S
C1520 C794 1.666 . S
C1537 C69 1.489 . S
C1556 C741 1.491 . S
C1573 C126 1.730 . S
C1592 C793 1.731 . S
C1609 C180 1.484 . S
C1628 C618 1.483 . S
C1664 C671 1.610 . S
C1645 C30 1.610 . S
C1700 C731 1.457 . S
C1681 C21 1.453 . S
C1717 C78 1.336 . S
C1736 C777 1.332 . S
C1753 C117 1.577 . S
C1772 C634 1.577 . S
C1789 C189 1.311 . S
C1808 C687 1.313 . S
C1844 C635 1.516 . S
C1825 C228 1.515 . S
C1880 C688 1.383 . S
C1861 C270 1.386 . S
C1897 C309 1.510 . S
C1916 C724 1.512 . S
C1952 C784 1.267 . S
C1933 C381 1.269 . S
