# Generated by pormake.
# Topology ssb, (4,4)-cn, num edge types: 1
# Building blocks:
#     Node 0, Type 0, BuildingBlock: MIFKUJ_clean_linker_1, # of connection points: 4
#     Node 1, Type 0, BuildingBlock: MIFKUJ_clean_linker_1, # of connection points: 4
#     Node 2, Type 0, BuildingBlock: MIFKUJ_clean_linker_1, # of connection points: 4
#     Node 3, Type 0, BuildingBlock: MIFKUJ_clean_linker_1, # of connection points: 4
#     Node 4, Type 0, BuildingBlock: MIFKUJ_clean_linker_1, # of connection points: 4
#     Node 5, Type 0, BuildingBlock: MIFKUJ_clean_linker_1, # of connection points: 4
#     Node 6, Type 0, BuildingBlock: MIFKUJ_clean_linker_1, # of connection points: 4
#     Node 7, Type 0, BuildingBlock: MIFKUJ_clean_linker_1, # of connection points: 4
#     Node 8, Type 1, BuildingBlock: KOZSID_clean_sbu_0, # of connection points: 4
#     Node 9, Type 1, BuildingBlock: KOZSID_clean_sbu_0, # of connection points: 4
#     Node 10, Type 1, BuildingBlock: KOZSID_clean_sbu_0, # of connection points: 4
#     Node 11, Type 1, BuildingBlock: KOZSID_clean_sbu_0, # of connection points: 4
#     Node 12, Type 1, BuildingBlock: KOZSID_clean_sbu_0, # of connection points: 4
#     Node 13, Type 1, BuildingBlock: KOZSID_clean_sbu_0, # of connection points: 4
#     Node 14, Type 1, BuildingBlock: KOZSID_clean_sbu_0, # of connection points: 4
#     Node 15, Type 1, BuildingBlock: KOZSID_clean_sbu_0, # of connection points: 4
#     Edge 16, Type (0, 1), BuildingBlock: XIVTED_clean_linker_0, # of connection points: 2
#     Edge 17, Type (0, 1), BuildingBlock: XIVTED_clean_linker_0, # of connection points: 2
#     Edge 18, Type (0, 1), BuildingBlock: XIVTED_clean_linker_0, # of connection points: 2
#     Edge 19, Type (0, 1), BuildingBlock: XIVTED_clean_linker_0, # of connection points: 2
#     Edge 20, Type (0, 1), BuildingBlock: XIVTED_clean_linker_0, # of connection points: 2
#     Edge 21, Type (0, 1), BuildingBlock: XIVTED_clean_linker_0, # of connection points: 2
#     Edge 22, Type (0, 1), BuildingBlock: XIVTED_clean_linker_0, # of connection points: 2
#     Edge 23, Type (0, 1), BuildingBlock: XIVTED_clean_linker_0, # of connection points: 2
#     Edge 24, Type (0, 1), BuildingBlock: XIVTED_clean_linker_0, # of connection points: 2
#     Edge 25, Type (0, 1), BuildingBlock: XIVTED_clean_linker_0, # of connection points: 2
#     Edge 26, Type (0, 1), BuildingBlock: XIVTED_clean_linker_0, # of connection points: 2
#     Edge 27, Type (0, 1), BuildingBlock: XIVTED_clean_linker_0, # of connection points: 2
#     Edge 28, Type (0, 1), BuildingBlock: XIVTED_clean_linker_0, # of connection points: 2
#     Edge 29, Type (0, 1), BuildingBlock: XIVTED_clean_linker_0, # of connection points: 2
#     Edge 30, Type (0, 1), BuildingBlock: XIVTED_clean_linker_0, # of connection points: 2
#     Edge 31, Type (0, 1), BuildingBlock: XIVTED_clean_linker_0, # of connection points: 2
#     Edge 32, Type (0, 1), BuildingBlock: XIVTED_clean_linker_0, # of connection points: 2
#     Edge 33, Type (0, 1), BuildingBlock: XIVTED_clean_linker_0, # of connection points: 2
#     Edge 34, Type (0, 1), BuildingBlock: XIVTED_clean_linker_0, # of connection points: 2
#     Edge 35, Type (0, 1), BuildingBlock: XIVTED_clean_linker_0, # of connection points: 2
#     Edge 36, Type (0, 1), BuildingBlock: XIVTED_clean_linker_0, # of connection points: 2
#     Edge 37, Type (0, 1), BuildingBlock: XIVTED_clean_linker_0, # of connection points: 2
#     Edge 38, Type (0, 1), BuildingBlock: XIVTED_clean_linker_0, # of connection points: 2
#     Edge 39, Type (0, 1), BuildingBlock: XIVTED_clean_linker_0, # of connection points: 2
#     Edge 40, Type (0, 1), BuildingBlock: XIVTED_clean_linker_0, # of connection points: 2
#     Edge 41, Type (0, 1), BuildingBlock: XIVTED_clean_linker_0, # of connection points: 2
#     Edge 42, Type (0, 1), BuildingBlock: XIVTED_clean_linker_0, # of connection points: 2
#     Edge 43, Type (0, 1), BuildingBlock: XIVTED_clean_linker_0, # of connection points: 2
#     Edge 44, Type (0, 1), BuildingBlock: XIVTED_clean_linker_0, # of connection points: 2
#     Edge 45, Type (0, 1), BuildingBlock: XIVTED_clean_linker_0, # of connection points: 2
#     Edge 46, Type (0, 1), BuildingBlock: XIVTED_clean_linker_0, # of connection points: 2
#     Edge 47, Type (0, 1), BuildingBlock: XIVTED_clean_linker_0, # of connection points: 2
# Relax obj value: 0.002
# Max RMSD: 0.022
# Mean RMSD: 0.013
data_MOF--net-ssb--node1-KOZSID_clean_sbu_0--node2-MIFKUJ_clean_linker_1--edge1-XIVTED_clean_linker_0
_symmetry_space_group_name_H-M    P1
_symmetry_Int_Tables_number       1
_symmetry_cell_setting            triclinic
loop_
_symmetry_equiv_pos_as_xyz
'x, y, z'
_cell_length_a     63.871105
_cell_length_b     63.511181
_cell_length_c     47.015823
_cell_angle_alpha  92.171909
_cell_angle_beta   94.405328
_cell_angle_gamma 89.997836
loop_
_atom_site_label
_atom_site_type_symbol
_atom_site_fract_x
_atom_site_fract_y
_atom_site_fract_z
_atom_type_partial_charge
H0 H 0.28111 0.21984 0.21428 0.0
H1 H 0.31122 0.2202 0.18535 0.0
H2 H 0.32807 0.28233 0.22063 0.0
H3 H 0.29878 0.28123 0.25079 0.0
H4 H 0.27876 0.21985 0.26907 0.0
H5 H 0.25321 0.26622 0.19555 0.0
H6 H 0.25446 0.29604 0.16423 0.0
H7 H 0.25853 0.33893 0.23795 0.0
H8 H 0.25751 0.30898 0.2692 0.0
H9 H 0.23042 0.27581 0.33483 0.0
H10 H 0.20167 0.27526 0.36615 0.0
H11 H 0.17544 0.22057 0.31848 0.0
H12 H 0.2048 0.22079 0.28813 0.0
H13 H 0.22813 0.27882 0.27446 0.0
H14 H 0.25061 0.23055 0.34742 0.0
H15 H 0.24849 0.19986 0.37677 0.0
H16 H 0.25006 0.15901 0.30134 0.0
H17 H 0.25104 0.18983 0.27198 0.0
C18 C 0.28748 0.25061 0.23448 0.0
C19 C 0.29136 0.23349 0.21587 0.0
C20 C 0.30849 0.23383 0.19909 0.0
C21 C 0.32209 0.25134 0.20049 0.0
C22 C 0.31814 0.26846 0.2192 0.0
C23 C 0.30116 0.268 0.23619 0.0
C24 C 0.26949 0.25004 0.25269 0.0
C25 C 0.26745 0.23256 0.26991 0.0
C26 C 0.25503 0.26694 0.25406 0.0
C27 C 0.25542 0.28523 0.23486 0.0
C28 C 0.25445 0.28203 0.20502 0.0
C29 C 0.25501 0.29916 0.18708 0.0
C30 C 0.25664 0.31998 0.19848 0.0
C31 C 0.25753 0.32315 0.22837 0.0
C32 C 0.25677 0.30601 0.2463 0.0
C33 C 0.21977 0.24829 0.30931 0.0
C34 C 0.21845 0.26372 0.33122 0.0
C35 C 0.20191 0.26342 0.349 0.0
C36 C 0.18611 0.24789 0.3449 0.0
C37 C 0.18746 0.23254 0.32269 0.0
C38 C 0.20416 0.23271 0.30515 0.0
C39 C 0.2374 0.2486 0.29067 0.0
C40 C 0.23937 0.26606 0.27343 0.0
C41 C 0.25161 0.23152 0.289 0.0
C42 C 0.25062 0.2127 0.30725 0.0
C43 C 0.25015 0.21501 0.33708 0.0
C44 C 0.24924 0.19733 0.35398 0.0
C45 C 0.24905 0.17674 0.34162 0.0
C46 C 0.24978 0.17449 0.31176 0.0
C47 C 0.25057 0.19219 0.29486 0.0
H48 H 0.70411 0.25221 0.25691 0.0
H49 H 0.67033 0.25392 0.22916 0.0
H50 H 0.70247 0.25811 0.15185 0.0
H51 H 0.73625 0.2571 0.18004 0.0
H52 H 0.73462 0.22253 0.25252 0.0
H53 H 0.72649 0.29609 0.24518 0.0
H54 H 0.7214 0.3304 0.22383 0.0
H55 H 0.77817 0.32135 0.18054 0.0
H56 H 0.78301 0.28685 0.20152 0.0
H57 H 0.8214 0.25072 0.25711 0.0
H58 H 0.85341 0.25089 0.28911 0.0
H59 H 0.81605 0.24306 0.36093 0.0
H60 H 0.78416 0.24407 0.32903 0.0
H61 H 0.78938 0.27812 0.25612 0.0
H62 H 0.79683 0.20292 0.27216 0.0
H63 H 0.80018 0.17225 0.30232 0.0
H64 H 0.74119 0.18841 0.33689 0.0
H65 H 0.73845 0.21929 0.30784 0.0
C66 C 0.72263 0.25454 0.2205 0.0
C67 C 0.70384 0.25357 0.23398 0.0
C68 C 0.68454 0.25442 0.21805 0.0
C69 C 0.68364 0.25597 0.18821 0.0
C70 C 0.70256 0.25718 0.17481 0.0
C71 C 0.72188 0.25652 0.19084 0.0
C72 C 0.74296 0.25273 0.23754 0.0
C73 C 0.74658 0.23472 0.25338 0.0
C74 C 0.75858 0.26852 0.23845 0.0
C75 C 0.75495 0.28879 0.22452 0.0
C76 C 0.73761 0.30131 0.23065 0.0
C77 C 0.73478 0.32092 0.2186 0.0
C78 C 0.74944 0.32847 0.20066 0.0
C79 C 0.76679 0.31596 0.1946 0.0
C80 C 0.76951 0.29625 0.20642 0.0
C81 C 0.80043 0.2471 0.29061 0.0
C82 C 0.82016 0.24905 0.27976 0.0
C83 C 0.83844 0.24896 0.29807 0.0
C84 C 0.83733 0.24692 0.32761 0.0
C85 C 0.8175 0.24491 0.33836 0.0
C86 C 0.79924 0.24519 0.32009 0.0
C87 C 0.78104 0.24793 0.27127 0.0
C88 C 0.77761 0.26573 0.25483 0.0
C89 C 0.76531 0.23222 0.27046 0.0
C90 C 0.76747 0.21342 0.28797 0.0
C91 C 0.78477 0.19989 0.28648 0.0
C92 C 0.78657 0.18233 0.30352 0.0
C93 C 0.77104 0.17804 0.32214 0.0
C94 C 0.75364 0.19152 0.32323 0.0
C95 C 0.75192 0.20904 0.30638 0.0
H96 H 0.71399 0.77854 0.20494 0.0
H97 H 0.68188 0.77685 0.17307 0.0
H98 H 0.66556 0.71774 0.20844 0.0
H99 H 0.69742 0.71983 0.2408 0.0
H100 H 0.71834 0.78077 0.26239 0.0
H101 H 0.73739 0.73284 0.18728 0.0
H102 H 0.7348 0.70181 0.15489 0.0
H103 H 0.74293 0.66169 0.22712 0.0
H104 H 0.74451 0.69276 0.25939 0.0
H105 H 0.77653 0.72367 0.32132 0.0
H106 H 0.80941 0.72363 0.35167 0.0
H107 H 0.82381 0.78587 0.32484 0.0
H108 H 0.79141 0.78556 0.29339 0.0
H109 H 0.77133 0.72374 0.26696 0.0
H110 H 0.75189 0.77236 0.34244 0.0
H111 H 0.75454 0.80384 0.37413 0.0
H112 H 0.74746 0.84298 0.30081 0.0
H113 H 0.74571 0.8115 0.26931 0.0
C114 C 0.70813 0.74924 0.22503 0.0
C115 C 0.70346 0.76524 0.20581 0.0
C116 C 0.68522 0.76416 0.18749 0.0
C117 C 0.67125 0.74712 0.1882 0.0
C118 C 0.67594 0.73114 0.20757 0.0
C119 C 0.69421 0.73222 0.22587 0.0
C120 C 0.72734 0.75061 0.24467 0.0
C121 C 0.73011 0.76844 0.26328 0.0
C122 C 0.74235 0.73421 0.24593 0.0
C123 C 0.74085 0.71526 0.22593 0.0
C124 C 0.73831 0.71736 0.1962 0.0
C125 C 0.7371 0.69953 0.17761 0.0
C126 C 0.73861 0.67909 0.18824 0.0
C127 C 0.74133 0.67707 0.21804 0.0
C128 C 0.74245 0.6949 0.23659 0.0
C129 C 0.78136 0.7547 0.30524 0.0
C130 C 0.78673 0.73734 0.32194 0.0
C131 C 0.80546 0.7373 0.33927 0.0
C132 C 0.81898 0.75476 0.34051 0.0
C133 C 0.81345 0.77234 0.32438 0.0
C134 C 0.79491 0.7722 0.30657 0.0
C135 C 0.76227 0.75379 0.28518 0.0
C136 C 0.75954 0.73605 0.26631 0.0
C137 C 0.74732 0.77031 0.28371 0.0
C138 C 0.74885 0.78944 0.30334 0.0
C139 C 0.75116 0.78772 0.33315 0.0
C140 C 0.75244 0.8058 0.35132 0.0
C141 C 0.75127 0.82609 0.34016 0.0
C142 C 0.74879 0.82772 0.31029 0.0
C143 C 0.74757 0.80966 0.29217 0.0
H144 H 0.21342 0.72698 0.28737 0.0
H145 H 0.18448 0.72743 0.31851 0.0
H146 H 0.15879 0.78231 0.27717 0.0
H147 H 0.18738 0.78147 0.2454 0.0
H148 H 0.21771 0.72096 0.23524 0.0
H149 H 0.2351 0.77624 0.29939 0.0
H150 H 0.23546 0.80843 0.32928 0.0
H151 H 0.22664 0.84527 0.25388 0.0
H152 H 0.2256 0.81278 0.22394 0.0
H153 H 0.2598 0.77196 0.16045 0.0
H154 H 0.29079 0.77091 0.13292 0.0
H155 H 0.3229 0.73284 0.19696 0.0
H156 H 0.2916 0.73342 0.22368 0.0
H157 H 0.2578 0.78609 0.22061 0.0
H158 H 0.24467 0.72267 0.15908 0.0
H159 H 0.25585 0.6888 0.1392 0.0
H160 H 0.26803 0.66632 0.22459 0.0
H161 H 0.25635 0.70015 0.24423 0.0
C162 C 0.20275 0.7543 0.26412 0.0
C163 C 0.20144 0.73897 0.28471 0.0
C164 C 0.18492 0.73924 0.30254 0.0
C165 C 0.16947 0.75496 0.30031 0.0
C166 C 0.17065 0.77018 0.27957 0.0
C167 C 0.18701 0.76973 0.26146 0.0
C168 C 0.22066 0.75425 0.24567 0.0
C169 C 0.22643 0.73526 0.23225 0.0
C170 C 0.23232 0.77274 0.24164 0.0
C171 C 0.23012 0.79213 0.25948 0.0
C172 C 0.2327 0.79119 0.28929 0.0
C173 C 0.23316 0.8096 0.30633 0.0
C174 C 0.23131 0.82932 0.29385 0.0
C175 C 0.22798 0.83025 0.26403 0.0
C176 C 0.22749 0.81176 0.24694 0.0
C177 C 0.27339 0.75263 0.1939 0.0
C178 C 0.27355 0.76339 0.16845 0.0
C179 C 0.29133 0.76285 0.15285 0.0
C180 C 0.3094 0.75174 0.16265 0.0
C181 C 0.30918 0.74118 0.18842 0.0
C182 C 0.29134 0.7416 0.20384 0.0
C183 C 0.25451 0.75299 0.21028 0.0
C184 C 0.24861 0.77202 0.22324 0.0
C185 C 0.24345 0.73439 0.21513 0.0
C186 C 0.24971 0.71381 0.20305 0.0
C187 C 0.24978 0.71042 0.17344 0.0
C188 C 0.25635 0.69113 0.16217 0.0
C189 C 0.26298 0.67493 0.18035 0.0
C190 C 0.26283 0.67841 0.21004 0.0
C191 C 0.25616 0.69769 0.22128 0.0
H192 H 0.19479 0.76709 0.74772 0.0
H193 H 0.16257 0.76899 0.71656 0.0
H194 H 0.19931 0.77066 0.64313 0.0
H195 H 0.23145 0.76764 0.6744 0.0
H196 H 0.22376 0.73771 0.75096 0.0
H197 H 0.22012 0.80995 0.72467 0.0
H198 H 0.21869 0.84002 0.69349 0.0
H199 H 0.28072 0.82512 0.66867 0.0
H200 H 0.28169 0.79424 0.69839 0.0
H201 H 0.31154 0.75871 0.75233 0.0
H202 H 0.34413 0.75692 0.78269 0.0
H203 H 0.30847 0.75473 0.8571 0.0
H204 H 0.27594 0.75773 0.82665 0.0
H205 H 0.28278 0.7883 0.75051 0.0
H206 H 0.28514 0.71473 0.7741 0.0
H207 H 0.28684 0.68502 0.80565 0.0
H208 H 0.22722 0.70351 0.83636 0.0
H209 H 0.22624 0.73381 0.80593 0.0
C210 C 0.21551 0.7674 0.71341 0.0
C211 C 0.19588 0.76777 0.72489 0.0
C212 C 0.17749 0.7691 0.70706 0.0
C213 C 0.17835 0.77013 0.67734 0.0
C214 C 0.19807 0.7697 0.66588 0.0
C215 C 0.21647 0.76819 0.68374 0.0
C216 C 0.23491 0.76584 0.73257 0.0
C217 C 0.23662 0.74889 0.75113 0.0
C218 C 0.25174 0.7804 0.73213 0.0
C219 C 0.25083 0.79928 0.71364 0.0
C220 C 0.23327 0.81275 0.71209 0.0
C221 C 0.2325 0.8301 0.69438 0.0
C222 C 0.24957 0.83491 0.67856 0.0
C223 C 0.26735 0.82186 0.68067 0.0
C224 C 0.2679 0.8042 0.69777 0.0
C225 C 0.29132 0.75816 0.78719 0.0
C226 C 0.31076 0.75791 0.7752 0.0
C227 C 0.32938 0.75666 0.79258 0.0
C228 C 0.32894 0.75556 0.82235 0.0
C229 C 0.3094 0.75578 0.8343 0.0
C230 C 0.29077 0.75723 0.8169 0.0
C231 C 0.27172 0.76003 0.76851 0.0
C232 C 0.26994 0.77709 0.75016 0.0
C233 C 0.25482 0.74561 0.76912 0.0
C234 C 0.25573 0.7269 0.78781 0.0
C235 C 0.27255 0.71259 0.78789 0.0
C236 C 0.27336 0.69534 0.80578 0.0
C237 C 0.25722 0.6917 0.82388 0.0
C238 C 0.2402 0.70587 0.8233 0.0
C239 C 0.23949 0.72318 0.80557 0.0
H240 H 0.29843 0.26109 0.79211 0.0
H241 H 0.3326 0.26434 0.81882 0.0
H242 H 0.3033 0.25457 0.89722 0.0
H243 H 0.26898 0.25191 0.87026 0.0
H244 H 0.27173 0.22761 0.78789 0.0
H245 H 0.27317 0.29851 0.8226 0.0
H246 H 0.27409 0.32958 0.85487 0.0
H247 H 0.21688 0.30922 0.88875 0.0
H248 H 0.21657 0.27733 0.8576 0.0
H249 H 0.18252 0.2445 0.79094 0.0
H250 H 0.15069 0.24435 0.75844 0.0
H251 H 0.18855 0.25378 0.68756 0.0
H252 H 0.22021 0.25355 0.72008 0.0
H253 H 0.21177 0.27538 0.80245 0.0
H254 H 0.21049 0.20451 0.76494 0.0
H255 H 0.2101 0.17473 0.73049 0.0
H256 H 0.26773 0.19744 0.69963 0.0
H257 H 0.26736 0.22771 0.73294 0.0
C258 C 0.28122 0.25626 0.82923 0.0
C259 C 0.29939 0.25966 0.81507 0.0
C260 C 0.31892 0.26142 0.83037 0.0
C261 C 0.32073 0.25957 0.86016 0.0
C262 C 0.30244 0.25633 0.87435 0.0
C263 C 0.28283 0.2547 0.85899 0.0
C264 C 0.26072 0.25399 0.81247 0.0
C265 C 0.25866 0.23817 0.79093 0.0
C266 C 0.24351 0.26736 0.81708 0.0
C267 C 0.24503 0.28534 0.83807 0.0
C268 C 0.26125 0.30023 0.83768 0.0
C269 C 0.26171 0.31803 0.85596 0.0
C270 C 0.24563 0.32153 0.87423 0.0
C271 C 0.22947 0.30666 0.87484 0.0
C272 C 0.22928 0.28857 0.85705 0.0
C273 C 0.20371 0.24878 0.75786 0.0
C274 C 0.1839 0.24648 0.76837 0.0
C275 C 0.16575 0.2465 0.7498 0.0
C276 C 0.16708 0.24899 0.72038 0.0
C277 C 0.18698 0.25141 0.70999 0.0
C278 C 0.2051 0.25133 0.72855 0.0
C279 C 0.22294 0.24922 0.77757 0.0
C280 C 0.22474 0.26464 0.79972 0.0
C281 C 0.24003 0.23563 0.77339 0.0
C282 C 0.2389 0.21836 0.75138 0.0
C283 C 0.22277 0.2033 0.7503 0.0
C284 C 0.22272 0.18615 0.73086 0.0
C285 C 0.23896 0.18365 0.71244 0.0
C286 C 0.25484 0.19902 0.71323 0.0
C287 C 0.25478 0.21623 0.73246 0.0
H288 H 0.72593 0.23015 0.82577 0.0
H289 H 0.69675 0.23132 0.85686 0.0
H290 H 0.66826 0.28156 0.80816 0.0
H291 H 0.69762 0.28055 0.77741 0.0
H292 H 0.72407 0.22323 0.76494 0.0
H293 H 0.745 0.275 0.83766 0.0
H294 H 0.74194 0.30632 0.8686 0.0
H295 H 0.74032 0.3452 0.79497 0.0
H296 H 0.74217 0.3136 0.76397 0.0
H297 H 0.76923 0.27742 0.6973 0.0
H298 H 0.79924 0.27699 0.6676 0.0
H299 H 0.82793 0.22767 0.71784 0.0
H300 H 0.79776 0.22792 0.74715 0.0
H301 H 0.77116 0.28475 0.7587 0.0
H302 H 0.74851 0.2327 0.68601 0.0
H303 H 0.75047 0.20111 0.65513 0.0
H304 H 0.75744 0.16304 0.72954 0.0
H305 H 0.75513 0.19477 0.76026 0.0
C306 C 0.71392 0.25532 0.79943 0.0
C307 C 0.71338 0.2414 0.82183 0.0
C308 C 0.69682 0.24216 0.83962 0.0
C309 C 0.68032 0.25655 0.83485 0.0
C310 C 0.68075 0.27027 0.81216 0.0
C311 C 0.6975 0.26975 0.79469 0.0
C312 C 0.73166 0.2548 0.78096 0.0
C313 C 0.73456 0.23655 0.7638 0.0
C314 C 0.74497 0.27248 0.77927 0.0
C315 C 0.74343 0.29177 0.79828 0.0
C316 C 0.74361 0.29022 0.82806 0.0
C317 C 0.74218 0.30827 0.84586 0.0
C318 C 0.74086 0.32847 0.83445 0.0
C319 C 0.74094 0.32998 0.80462 0.0
C320 C 0.74222 0.31188 0.78681 0.0
C321 C 0.78131 0.25266 0.72429 0.0
C322 C 0.78196 0.26647 0.70178 0.0
C323 C 0.799 0.26614 0.6848 0.0
C324 C 0.81585 0.25231 0.69052 0.0
C325 C 0.81518 0.23855 0.71313 0.0
C326 C 0.79797 0.23862 0.72976 0.0
C327 C 0.76348 0.25324 0.7426 0.0
C328 C 0.76061 0.27147 0.7598 0.0
C329 C 0.75023 0.23555 0.7444 0.0
C330 C 0.75189 0.21623 0.72556 0.0
C331 C 0.75069 0.21759 0.69571 0.0
C332 C 0.75185 0.19942 0.67803 0.0
C333 C 0.75418 0.17937 0.6897 0.0
C334 C 0.75535 0.17809 0.71965 0.0
C335 C 0.75413 0.19628 0.73732 0.0
H336 H 0.78167 0.73226 0.70177 0.0
H337 H 0.81012 0.73375 0.67013 0.0
H338 H 0.84009 0.78304 0.72487 0.0
H339 H 0.8111 0.7819 0.75582 0.0
H340 H 0.78241 0.7233 0.75818 0.0
H341 H 0.76139 0.77887 0.69878 0.0
H342 H 0.76013 0.81197 0.67408 0.0
H343 H 0.76836 0.8465 0.7552 0.0
H344 H 0.77032 0.81318 0.77983 0.0
H345 H 0.73476 0.77833 0.83157 0.0
H346 H 0.70388 0.77729 0.85925 0.0
H347 H 0.67996 0.72383 0.80722 0.0
H348 H 0.71052 0.72529 0.779 0.0
H349 H 0.73813 0.78552 0.77793 0.0
H350 H 0.75477 0.72704 0.8367 0.0
H351 H 0.7472 0.69338 0.85732 0.0
H352 H 0.74325 0.66318 0.77318 0.0
H353 H 0.75038 0.69703 0.75249 0.0
C354 C 0.79427 0.75698 0.73109 0.0
C355 C 0.7944 0.74337 0.70692 0.0
C356 C 0.81076 0.74419 0.68893 0.0
C357 C 0.82753 0.75846 0.69494 0.0
C358 C 0.82732 0.77208 0.71927 0.0
C359 C 0.81082 0.77138 0.73711 0.0
C360 C 0.77682 0.756 0.75004 0.0
C361 C 0.77265 0.73687 0.76238 0.0
C362 C 0.76433 0.77374 0.75597 0.0
C363 C 0.76616 0.79362 0.74109 0.0
C364 C 0.76349 0.79354 0.71121 0.0
C365 C 0.76248 0.81246 0.69717 0.0
C366 C 0.7639 0.83178 0.71278 0.0
C367 C 0.76734 0.83182 0.74265 0.0
C368 C 0.76838 0.81285 0.75672 0.0
C369 C 0.72515 0.75172 0.80343 0.0
C370 C 0.72285 0.76642 0.82606 0.0
C371 C 0.70522 0.76582 0.84184 0.0
C372 C 0.6896 0.75042 0.83542 0.0
C373 C 0.69191 0.73567 0.81286 0.0
C374 C 0.7094 0.73647 0.79679 0.0
C375 C 0.74368 0.75285 0.78624 0.0
C376 C 0.74813 0.77203 0.77423 0.0
C377 C 0.75626 0.73507 0.78039 0.0
C378 C 0.75283 0.71455 0.79305 0.0
C379 C 0.75212 0.71321 0.82267 0.0
C380 C 0.74777 0.69403 0.83439 0.0
C381 C 0.74445 0.67582 0.81673 0.0
C382 C 0.74579 0.67703 0.78719 0.0
C383 C 0.7499 0.69629 0.77541 0.0
C384 C 0.03195 0.27215 0.57073 0.0
C385 C 0.03943 0.29171 0.58118 0.0
C386 C 0.02948 0.3064 0.56463 0.0
C387 C 0.01669 0.29504 0.54496 0.0
N388 N 0.01757 0.27397 0.5482 0.0
Co389 Co 0.0031 0.25158 0.52254 0.0
N390 N 0.98887 0.2732 0.49782 0.0
C391 C 0.99012 0.29439 0.50169 0.0
C392 C 0.97784 0.30517 0.48201 0.0
C393 C 0.9678 0.28995 0.46482 0.0
C394 C 0.97458 0.27071 0.47513 0.0
N395 N 0.98959 0.22917 0.49603 0.0
C396 C 0.97593 0.23088 0.47272 0.0
C397 C 0.9704 0.21126 0.46036 0.0
C398 C 0.98086 0.19665 0.47651 0.0
C399 C 0.99212 0.20809 0.49774 0.0
N400 N 0.01637 0.22999 0.54812 0.0
C401 C 0.01345 0.20889 0.54582 0.0
C402 C 0.02419 0.19815 0.56704 0.0
C403 C 0.03474 0.21328 0.5838 0.0
C404 C 0.02993 0.23243 0.57159 0.0
N405 N 0.97839 0.25211 0.54577 0.0
C406 C 0.94278 0.25301 0.57761 0.0
C407 C 0.94905 0.23436 0.56419 0.0
C408 C 0.96687 0.2342 0.54874 0.0
C409 C 0.95462 0.2712 0.575 0.0
C410 C 0.97212 0.27045 0.55889 0.0
N411 N 0.02779 0.25104 0.49928 0.0
C412 C 0.05646 0.23216 0.47928 0.0
C413 C 0.06315 0.25033 0.46669 0.0
C414 C 0.05173 0.26885 0.47074 0.0
C415 C 0.03439 0.26889 0.48709 0.0
C416 C 0.03885 0.23282 0.49516 0.0
H417 H 0.02659 0.28358 0.48952 0.0
H418 H 0.03456 0.21838 0.50399 0.0
H419 H 0.97097 0.21938 0.53939 0.0
H420 H 0.9802 0.28496 0.55722 0.0
C421 C 0.00347 0.30367 0.52349 0.0
C422 C 0.03956 0.25229 0.58212 0.0
C423 C 0.96661 0.25055 0.463 0.0
C424 C 0.0027 0.19952 0.52165 0.0
H425 H 0.05109 0.29505 0.59868 0.0
H426 H 0.03152 0.32333 0.56648 0.0
H427 H 0.97631 0.32206 0.4804 0.0
H428 H 0.95662 0.29267 0.44686 0.0
H429 H 0.95937 0.20774 0.44219 0.0
H430 H 0.97959 0.17968 0.47391 0.0
H431 H 0.02491 0.18127 0.56941 0.0
H432 H 0.04528 0.21052 0.60242 0.0
H433 H 0.94042 0.21984 0.56595 0.0
H434 H 0.95019 0.28605 0.58492 0.0
H435 H 0.06488 0.21745 0.47727 0.0
H436 H 0.05595 0.28332 0.4611 0.0
C437 C 0.7364 0.03949 0.54853 0.0
C438 C 0.7171 0.04841 0.55351 0.0
C439 C 0.70217 0.03644 0.5382 0.0
C440 C 0.71311 0.02101 0.52465 0.0
N441 N 0.73418 0.02236 0.5303 0.0
Co442 Co 0.75587 0.00311 0.51458 0.0
N443 N 0.73379 0.98562 0.49183 0.0
C444 C 0.71282 0.989 0.49009 0.0
C445 C 0.70157 0.97469 0.47252 0.0
C446 C 0.71618 0.96128 0.46243 0.0
C447 C 0.73561 0.96811 0.47464 0.0
N448 N 0.77752 0.98363 0.49922 0.0
C449 C 0.77524 0.96611 0.4817 0.0
C450 C 0.79448 0.95682 0.4774 0.0
C451 C 0.80944 0.96892 0.49246 0.0
C452 C 0.79857 0.98478 0.50525 0.0
N453 N 0.77795 0.02078 0.53702 0.0
C454 C 0.79899 0.01791 0.53785 0.0
C455 C 0.81026 0.03244 0.55501 0.0
C456 C 0.7956 0.04549 0.56576 0.0
C457 C 0.77611 0.03819 0.55439 0.0
N458 N 0.75392 0.98484 0.54739 0.0
C459 C 0.75133 0.95706 0.59207 0.0
C460 C 0.77075 0.96424 0.58465 0.0
C461 C 0.77166 0.97807 0.56251 0.0
C462 C 0.73318 0.96458 0.57742 0.0
C463 C 0.73483 0.97836 0.55532 0.0
N464 N 0.75786 0.0215 0.48184 0.0
C465 C 0.77897 0.04176 0.45225 0.0
C466 C 0.76115 0.05202 0.44087 0.0
C467 C 0.74156 0.04579 0.44875 0.0
C468 C 0.74027 0.03044 0.46891 0.0
C469 C 0.77698 0.02662 0.47257 0.0
H470 H 0.72491 0.02651 0.47419 0.0
H471 H 0.79119 0.01979 0.48105 0.0
H472 H 0.78693 0.98273 0.55773 0.0
H473 H 0.72046 0.98333 0.54475 0.0
C474 C 0.70409 0.00542 0.50583 0.0
C475 C 0.75636 0.04819 0.56115 0.0
C476 C 0.75527 0.95743 0.46909 0.0
C477 C 0.80766 1.00099 0.52297 0.0
H478 H 0.71409 0.06228 0.56663 0.0
H479 H 0.68536 0.03886 0.53683 0.0
H480 H 0.68473 0.97402 0.46774 0.0
H481 H 0.71288 0.94795 0.44776 0.0
H482 H 0.79744 0.94266 0.46485 0.0
H483 H 0.82624 0.96638 0.49406 0.0
H484 H 0.82712 0.03332 0.55942 0.0
H485 H 0.79891 0.05878 0.5805 0.0
H486 H 0.78528 0.95867 0.59515 0.0
H487 H 0.71775 0.9597 0.58273 0.0
H488 H 0.79448 0.04608 0.44657 0.0
H489 H 0.72729 0.05307 0.43986 0.0
C490 C 0.03236 0.7845 0.54371 0.0
C491 C 0.03846 0.80494 0.55208 0.0
C492 C 0.02581 0.81806 0.53622 0.0
C493 C 0.01282 0.80498 0.51907 0.0
N494 N 0.01624 0.78425 0.52319 0.0
Co495 Co 0.0014 0.7598 0.50215 0.0
N496 N 0.98419 0.77915 0.47708 0.0
C497 C 0.98549 0.80042 0.47695 0.0
C498 C 0.97182 0.80931 0.45699 0.0
C499 C 0.96087 0.79277 0.44387 0.0
C500 C 0.96841 0.7747 0.45687 0.0
N501 N 0.98628 0.73536 0.4814 0.0
C502 C 0.96964 0.73518 0.46165 0.0
C503 C 0.96287 0.71478 0.45424 0.0
C504 C 0.97563 0.70162 0.46987 0.0
C505 C 0.9893 0.71464 0.48604 0.0
N506 N 0.01889 0.74042 0.52693 0.0
C507 C 0.01814 0.71911 0.52633 0.0
C508 C 0.03235 0.71018 0.54556 0.0
C509 C 0.0431 0.72675 0.55895 0.0
C510 C 0.03481 0.74488 0.54694 0.0
N511 N 0.97954 0.76083 0.53003 0.0
C512 C 0.94689 0.76168 0.56729 0.0
C513 C 0.95773 0.74308 0.56153 0.0
C514 C 0.97374 0.74299 0.54295 0.0
C515 C 0.95304 0.77998 0.5545 0.0
C516 C 0.96933 0.77923 0.53625 0.0
N517 N 0.02323 0.75875 0.47421 0.0
C518 C 0.04754 0.73893 0.44666 0.0
C519 C 0.05484 0.75735 0.43534 0.0
C520 C 0.04591 0.77646 0.44378 0.0
C521 C 0.0304 0.7768 0.46315 0.0
C522 C 0.03181 0.73997 0.46573 0.0
H523 H 0.02453 0.7919 0.4689 0.0
H524 H 0.02698 0.72537 0.47349 0.0
H525 H 0.98105 0.72822 0.53922 0.0
H526 H 0.97319 0.79368 0.52714 0.0
C527 C 0.99866 0.81166 0.49718 0.0
C528 C 0.04314 0.76587 0.55453 0.0
C529 C 0.95914 0.75393 0.45062 0.0
C530 C 0.0042 0.70793 0.50703 0.0
H531 H 0.05113 0.80991 0.56745 0.0
H532 H 0.02653 0.83509 0.53641 0.0
H533 H 0.96965 0.82587 0.45303 0.0
H534 H 0.94832 0.79391 0.42717 0.0
H535 H 0.94972 0.70983 0.43968 0.0
H536 H 0.97459 0.68462 0.47015 0.0
H537 H 0.03483 0.69359 0.5491 0.0
H538 H 0.05583 0.72561 0.57539 0.0
H539 H 0.95399 0.72854 0.57135 0.0
H540 H 0.94507 0.79479 0.55799 0.0
H541 H 0.0541 0.72371 0.44125 0.0
H542 H 0.05068 0.79119 0.43534 0.0
C543 C 0.26761 0.96956 0.54424 0.0
C544 C 0.28716 0.96131 0.55267 0.0
C545 C 0.30177 0.97351 0.54142 0.0
C546 C 0.29044 0.98836 0.52656 0.0
N547 N 0.26941 0.98639 0.52747 0.0
Co548 Co 0.24731 0.0044 0.50764 0.0
N549 N 0.26897 0.02207 0.49059 0.0
C550 C 0.29004 0.01944 0.49356 0.0
C551 C 0.30099 0.03358 0.47912 0.0
C552 C 0.28607 0.0461 0.46617 0.0
C553 C 0.26676 0.03897 0.47367 0.0
N554 N 0.22523 0.02263 0.48814 0.0
C555 C 0.22708 0.0397 0.47183 0.0
C556 C 0.20758 0.04814 0.46363 0.0
C557 C 0.19293 0.03596 0.47486 0.0
C558 C 0.20421 0.0209 0.48941 0.0
N559 N 0.22564 0.98655 0.52438 0.0
C560 C 0.20454 0.9888 0.52068 0.0
C561 C 0.19357 0.97476 0.53522 0.0
C562 C 0.20849 0.96267 0.54895 0.0
C563 C 0.22786 0.9699 0.54179 0.0
N564 N 0.24828 0.02384 0.54159 0.0
C565 C 0.24911 0.05469 0.58592 0.0
C566 C 0.23026 0.04524 0.57542 0.0
C567 C 0.2302 0.02999 0.55338 0.0
C568 C 0.26769 0.04777 0.57495 0.0
C569 C 0.26694 0.03223 0.55315 0.0
N570 N 0.2463 0.98501 0.47359 0.0
C571 C 0.22633 0.96396 0.4372 0.0
C572 C 0.24473 0.95551 0.4274 0.0
C573 C 0.26394 0.96267 0.44036 0.0
C574 C 0.26435 0.97729 0.46323 0.0
C575 C 0.22748 0.97863 0.46008 0.0
H576 H 0.27947 0.98187 0.47234 0.0
H577 H 0.2129 0.98426 0.46672 0.0
H578 H 0.21526 0.02385 0.54582 0.0
H579 H 0.2816 0.02756 0.54564 0.0
C580 C 0.2991 0.00379 0.51057 0.0
C581 C 0.24785 0.9606 0.55243 0.0
C582 C 0.24684 0.04878 0.46403 0.0
C583 C 0.19552 0.00496 0.50453 0.0
H584 H 0.29061 0.94771 0.56537 0.0
H585 H 0.31865 0.97157 0.54345 0.0
H586 H 0.31784 0.03469 0.4782 0.0
H587 H 0.28911 0.05904 0.45273 0.0
H588 H 0.20424 0.06182 0.45104 0.0
H589 H 0.17606 0.03795 0.47284 0.0
H590 H 0.17672 0.97368 0.53612 0.0
H591 H 0.20536 0.9501 0.56294 0.0
H592 H 0.21547 0.05022 0.58331 0.0
H593 H 0.28269 0.05451 0.58291 0.0
H594 H 0.21105 0.95879 0.42796 0.0
H595 H 0.27864 0.95686 0.43312 0.0
C596 C 0.52919 0.76563 0.05314 0.0
C597 C 0.53546 0.78462 0.06676 0.0
C598 C 0.52569 0.80015 0.05151 0.0
C599 C 0.51401 0.78977 0.02965 0.0
N600 N 0.51549 0.76852 0.03023 0.0
Co601 Co 0.50137 0.74726 0.00248 0.0
N602 N 0.48848 0.77009 0.97865 0.0
C603 C 0.49134 0.79113 0.98277 0.0
C604 C 0.48025 0.80281 0.96286 0.0
C605 C 0.46942 0.78839 0.9452 0.0
C606 C 0.47447 0.7687 0.95554 0.0
N607 N 0.48694 0.72601 0.97492 0.0
C608 C 0.47273 0.7289 0.95252 0.0
C609 C 0.46555 0.70983 0.93995 0.0
C610 C 0.47548 0.69435 0.95505 0.0
C611 C 0.48799 0.70476 0.97598 0.0
N612 N 0.51451 0.72443 0.02616 0.0
C613 C 0.51237 0.70337 0.02133 0.0
C614 C 0.52406 0.69167 0.04058 0.0
C615 C 0.53458 0.70609 0.05856 0.0
C616 C 0.52859 0.72583 0.04922 0.0
N617 N 0.47643 0.74745 0.02526 0.0
C618 C 0.44009 0.74781 0.05587 0.0
C619 C 0.44911 0.72885 0.04701 0.0
C620 C 0.46716 0.72903 0.03201 0.0
C621 C 0.44977 0.76658 0.04935 0.0
C622 C 0.46768 0.76604 0.03408 0.0
N623 N 0.5263 0.7471 0.97963 0.0
C624 C 0.55133 0.72827 0.95212 0.0
C625 C 0.56201 0.74694 0.9477 0.0
C626 C 0.55446 0.76567 0.95964 0.0
C627 C 0.53672 0.76541 0.97521 0.0
C628 C 0.53377 0.7287 0.96812 0.0
H629 H 0.53186 0.78024 0.98359 0.0
H630 H 0.52654 0.71391 0.9709 0.0
H631 H 0.47318 0.71406 0.02586 0.0
H632 H 0.47407 0.78089 0.02955 0.0
C633 C 0.50297 0.7995 0.00695 0.0
C634 C 0.53765 0.74539 0.06179 0.0
C635 C 0.46463 0.74929 0.94369 0.0
C636 C 0.49997 0.69507 0.99784 0.0
H637 H 0.54642 0.78699 0.08534 0.0
H638 H 0.52745 0.81699 0.05533 0.0
H639 H 0.47955 0.8198 0.9619 0.0
H640 H 0.45855 0.79196 0.92723 0.0
H641 H 0.45391 0.70727 0.92221 0.0
H642 H 0.47332 0.6775 0.95173 0.0
H643 H 0.52523 0.67468 0.04102 0.0
H644 H 0.54578 0.70245 0.07612 0.0
H645 H 0.44212 0.71384 0.05113 0.0
H646 H 0.4437 0.78172 0.05612 0.0
H647 H 0.55629 0.71333 0.94306 0.0
H648 H 0.56233 0.78055 0.9574 0.0
C649 C 0.25049 0.53414 0.06229 0.0
C650 C 0.23329 0.54227 0.0754 0.0
C651 C 0.2158 0.53447 0.06016 0.0
C652 C 0.22322 0.52214 0.03867 0.0
N653 N 0.24444 0.52147 0.03932 0.0
Co654 Co 0.2618 0.5057 0.01191 0.0
N655 N 0.236 0.49469 0.98916 0.0
C656 C 0.21579 0.49954 0.99315 0.0
C657 C 0.20154 0.48856 0.97504 0.0
C658 C 0.21331 0.47559 0.9589 0.0
C659 C 0.23417 0.47954 0.96809 0.0
N660 N 0.27912 0.48962 0.98485 0.0
C661 C 0.27299 0.47523 0.96398 0.0
C662 C 0.2899 0.467 0.95046 0.0
C663 C 0.3075 0.4761 0.96393 0.0
C664 C 0.30028 0.48932 0.98472 0.0
N665 N 0.28764 0.51684 0.03438 0.0
C666 C 0.30787 0.51314 0.02903 0.0
C667 C 0.32218 0.52308 0.0482 0.0
C668 C 0.31043 0.53398 0.06675 0.0
C669 C 0.28954 0.53008 0.05767 0.0
N670 N 0.26176 0.48064 0.0364 0.0
C671 C 0.26152 0.44508 0.07126 0.0
C672 C 0.28024 0.45281 0.0619 0.0
C673 C 0.28 0.47032 0.04451 0.0
C674 C 0.24292 0.45549 0.06261 0.0
C675 C 0.2434 0.47308 0.04549 0.0
N676 N 0.26179 0.53088 0.98728 0.0
C677 C 0.27976 0.55431 0.95737 0.0
C678 C 0.26157 0.56622 0.95175 0.0
C679 C 0.24356 0.56016 0.96455 0.0
C680 C 0.24399 0.54266 0.98194 0.0
C681 C 0.27956 0.53702 0.9751 0.0
H682 H 0.22965 0.53901 0.99075 0.0
H683 H 0.29405 0.52896 0.97867 0.0
H684 H 0.29476 0.47521 0.03775 0.0
H685 H 0.22868 0.48034 0.03988 0.0
C686 C 0.21069 0.51201 0.01666 0.0
C687 C 0.27215 0.54 0.07123 0.0
C688 C 0.25167 0.46733 0.9583 0.0
C689 C 0.31293 0.50034 0.00577 0.0
H690 H 0.23326 0.55312 0.09367 0.0
H691 H 0.1996 0.53782 0.06388 0.0
H692 H 0.18458 0.48899 0.97478 0.0
H693 H 0.2071 0.46398 0.94309 0.0
H694 H 0.28953 0.455 0.93345 0.0
H695 H 0.32365 0.4728 0.95988 0.0
H696 H 0.33914 0.52259 0.04851 0.0
H697 H 0.31649 0.54392 0.08473 0.0
H698 H 0.29507 0.44519 0.06759 0.0
H699 H 0.22799 0.45034 0.06942 0.0
H700 H 0.29428 0.55847 0.94847 0.0
H701 H 0.22896 0.56867 0.96081 0.0
C702 C 0.47296 0.27868 0.97862 0.0
C703 C 0.46717 0.29853 0.96951 0.0
C704 C 0.4792 0.31269 0.98608 0.0
C705 C 0.49167 0.30072 0.00415 0.0
N706 N 0.48851 0.27974 0.99988 0.0
Co707 Co 0.50328 0.25659 0.02113 0.0
N708 N 0.51898 0.27746 0.04787 0.0
C709 C 0.51692 0.29868 0.04858 0.0
C710 C 0.52962 0.30878 0.06962 0.0
C711 C 0.54068 0.29311 0.08293 0.0
C712 C 0.53415 0.27431 0.06897 0.0
N713 N 0.51858 0.23347 0.04189 0.0
C714 C 0.53451 0.23459 0.06271 0.0
C715 C 0.54184 0.21472 0.06972 0.0
C716 C 0.53023 0.20054 0.05265 0.0
C717 C 0.51664 0.21249 0.03612 0.0
N718 N 0.487 0.23572 0.99495 0.0
C719 C 0.48815 0.21445 0.99533 0.0
C720 C 0.47408 0.20429 0.97608 0.0
C721 C 0.46298 0.21997 0.9629 0.0
C722 C 0.47109 0.23889 0.97481 0.0
N723 N 0.52609 0.25727 0.99467 0.0
C724 C 0.55923 0.25788 0.95849 0.0
C725 C 0.54798 0.23941 0.96163 0.0
C726 C 0.53174 0.2394 0.97987 0.0
C727 C 0.55359 0.27609 0.97354 0.0
C728 C 0.53695 0.2755 0.99113 0.0
N729 N 0.48049 0.25592 0.04751 0.0
C730 C 0.45589 0.23632 0.07294 0.0
C731 C 0.44674 0.25494 0.08262 0.0
C732 C 0.45495 0.27406 0.07483 0.0
C733 C 0.47161 0.27419 0.05729 0.0
C734 C 0.47272 0.23716 0.05574 0.0
H735 H 0.47686 0.28926 0.05163 0.0
H736 H 0.47908 0.22243 0.04919 0.0
H737 H 0.52416 0.22468 0.9818 0.0
H738 H 0.53326 0.28999 0.00169 0.0
C739 C 0.50458 0.30872 0.02736 0.0
C740 C 0.46245 0.25941 0.96749 0.0
C741 C 0.54386 0.25409 0.07525 0.0
C742 C 0.50227 0.20451 0.01455 0.0
H743 H 0.45508 0.30236 0.95313 0.0
H744 H 0.47835 0.32971 0.98577 0.0
H745 H 0.53123 0.32557 0.07406 0.0
H746 H 0.55268 0.29529 0.10033 0.0
H747 H 0.55458 0.2108 0.08509 0.0
H748 H 0.53186 0.18357 0.0519 0.0
H749 H 0.47182 0.18747 0.97254 0.0
H750 H 0.45007 0.21764 0.94683 0.0
H751 H 0.55199 0.22488 0.95051 0.0
H752 H 0.56181 0.29081 0.97148 0.0
H753 H 0.45019 0.22113 0.07877 0.0
H754 H 0.44822 0.28889 0.08168 0.0
C755 C 0.71562 0.54049 0.04362 0.0
C756 C 0.69618 0.54901 0.04876 0.0
C757 C 0.68138 0.53601 0.03496 0.0
C758 C 0.69253 0.52045 0.022 0.0
N759 N 0.7136 0.52265 0.02671 0.0
Co760 Co 0.73552 0.50407 0.01028 0.0
N761 N 0.71368 0.48466 0.99054 0.0
C762 C 0.69267 0.48595 0.99226 0.0
C763 C 0.68161 0.46998 0.97757 0.0
C764 C 0.69642 0.45767 0.96577 0.0
C765 C 0.71576 0.46698 0.97377 0.0
N766 N 0.75744 0.48597 0.99299 0.0
C767 C 0.75542 0.46871 0.97499 0.0
C768 C 0.7748 0.46176 0.96694 0.0
C769 C 0.78958 0.47481 0.98062 0.0
C770 C 0.77847 0.48909 0.99596 0.0
N771 N 0.7574 0.52303 0.03085 0.0
C772 C 0.77847 0.52065 0.03121 0.0
C773 C 0.7896 0.53545 0.0481 0.0
C774 C 0.77479 0.54807 0.05929 0.0
C775 C 0.75536 0.54033 0.04834 0.0
N776 N 0.73632 0.48628 0.04401 0.0
C777 C 0.73681 0.45806 0.08868 0.0
C778 C 0.75532 0.46334 0.0766 0.0
C779 C 0.75474 0.47749 0.05462 0.0
C780 C 0.71824 0.46795 0.07898 0.0
C781 C 0.71835 0.48185 0.05678 0.0
N782 N 0.73463 0.52179 0.97655 0.0
C783 C 0.75215 0.54395 0.94515 0.0
C784 C 0.733 0.54892 0.93068 0.0
C785 C 0.71478 0.53951 0.93882 0.0
C786 C 0.71595 0.52603 0.96156 0.0
C787 C 0.7526 0.53045 0.96786 0.0
H788 H 0.70149 0.51949 0.96684 0.0
H789 H 0.76762 0.52759 0.97838 0.0
H790 H 0.76934 0.48069 0.04618 0.0
H791 H 0.7036 0.4885 0.05007 0.0
C792 C 0.68372 0.50298 0.00654 0.0
C793 C 0.73548 0.54998 0.05528 0.0
C794 C 0.73561 0.45833 0.96498 0.0
C795 C 0.78735 0.50501 0.01433 0.0
H796 H 0.69298 0.56314 0.06125 0.0
H797 H 0.66449 0.53762 0.03462 0.0
H798 H 0.66477 0.46766 0.97547 0.0
H799 H 0.6933 0.44345 0.95273 0.0
H800 H 0.77799 0.44857 0.95269 0.0
H801 H 0.80643 0.47392 0.97965 0.0
H802 H 0.80648 0.53699 0.05166 0.0
H803 H 0.77798 0.56148 0.07386 0.0
H804 H 0.77012 0.45602 0.08322 0.0
H805 H 0.70357 0.46476 0.08814 0.0
H806 H 0.76667 0.55105 0.93972 0.0
H807 H 0.69962 0.54273 0.92791 0.0
H808 H 0.16549 0.21376 0.36425 0.0
H809 H 0.0925 0.28162 0.4625 0.0
H810 H 0.1658 0.28185 0.36824 0.0
H811 H 0.07662 0.21827 0.43145 0.0
H812 H 0.12239 0.28101 0.43316 0.0
H813 H 0.13576 0.21416 0.39397 0.0
C814 C 0.1593 0.22881 0.37117 0.0
C815 C 0.16824 0.24781 0.36352 0.0
C816 C 0.11233 0.26726 0.4328 0.0
C817 C 0.13445 0.24829 0.3982 0.0
C818 C 0.09514 0.26761 0.44943 0.0
C819 C 0.0818 0.25 0.44944 0.0
C820 C 0.11645 0.24909 0.41628 0.0
C821 C 0.08653 0.23213 0.43255 0.0
C822 C 0.14237 0.22899 0.38829 0.0
C823 C 0.15974 0.26678 0.37386 0.0
N824 N 0.10347 0.23212 0.41672 0.0
N825 N 0.14338 0.26653 0.3907 0.0
H826 H 0.78374 0.13796 0.3078 0.0
H827 H 0.74249 0.09011 0.44674 0.0
H828 H 0.76168 0.17583 0.3776 0.0
H829 H 0.78455 0.05555 0.3947 0.0
H830 H 0.74671 0.12095 0.41838 0.0
H831 H 0.78267 0.10687 0.33697 0.0
C832 C 0.77894 0.13979 0.32935 0.0
C833 C 0.77252 0.15945 0.34018 0.0
C834 C 0.75505 0.10664 0.41315 0.0
C835 C 0.77089 0.12405 0.37322 0.0
C836 C 0.75247 0.089 0.42912 0.0
C837 C 0.76308 0.0703 0.42284 0.0
C838 C 0.76819 0.10553 0.39056 0.0
C839 C 0.77614 0.06976 0.40016 0.0
C840 C 0.77823 0.12204 0.34588 0.0
C841 C 0.76627 0.16089 0.36814 0.0
N842 N 0.77825 0.08715 0.38464 0.0
N843 N 0.76542 0.14339 0.38358 0.0
H844 H 0.8343 0.7834 0.3816 0.0
H845 H 0.9487 0.73513 0.39812 0.0
H846 H 0.84953 0.72503 0.33816 0.0
H847 H 0.92239 0.7699 0.4673 0.0
H848 H 0.91393 0.73446 0.37175 0.0
H849 H 0.8684 0.78233 0.40949 0.0
C850 C 0.84487 0.7704 0.378 0.0
C851 C 0.83923 0.75425 0.35775 0.0
C852 C 0.91577 0.74207 0.3928 0.0
C853 C 0.87804 0.75305 0.38901 0.0
C854 C 0.93549 0.74239 0.40778 0.0
C855 C 0.93814 0.75233 0.43492 0.0
C856 C 0.89885 0.75226 0.40482 0.0
C857 C 0.92079 0.76197 0.44643 0.0
C858 C 0.86419 0.76974 0.39392 0.0
C859 C 0.85335 0.73768 0.35379 0.0
N860 N 0.90185 0.76186 0.43121 0.0
N861 N 0.87224 0.73759 0.36913 0.0
H862 H 0.26122 0.83716 0.33729 0.0
H863 H 0.21826 0.9516 0.37856 0.0
H864 H 0.20827 0.8658 0.29114 0.0
H865 H 0.26905 0.92026 0.42581 0.0
H866 H 0.21562 0.92161 0.34419 0.0
H867 H 0.26559 0.86881 0.36793 0.0
C868 C 0.25042 0.85011 0.33374 0.0
C869 C 0.23418 0.84878 0.31193 0.0
C870 C 0.22743 0.92141 0.36199 0.0
C871 C 0.23924 0.88524 0.34671 0.0
C872 C 0.22889 0.93846 0.38164 0.0
C873 C 0.24387 0.9384 0.40511 0.0
C874 C 0.24101 0.90421 0.36592 0.0
C875 C 0.25744 0.92112 0.40786 0.0
C876 C 0.25301 0.86825 0.35111 0.0
C877 C 0.22099 0.86623 0.30775 0.0
N878 N 0.25561 0.9047 0.38859 0.0
N879 N 0.22373 0.88376 0.32515 0.0
H880 H 0.14241 0.7922 0.68673 0.0
H881 H 0.08162 0.75465 0.53846 0.0
H882 H 0.16942 0.7505 0.62479 0.0
H883 H 0.05045 0.78155 0.60928 0.0
H884 H 0.11517 0.75686 0.56755 0.0
H885 H 0.10964 0.79225 0.65636 0.0
C886 C 0.14146 0.783 0.6668 0.0
C887 C 0.1587 0.7712 0.65843 0.0
C888 C 0.10103 0.76236 0.57672 0.0
C889 C 0.12131 0.7715 0.62338 0.0
C890 C 0.08199 0.76113 0.56015 0.0
C891 C 0.0635 0.76804 0.57165 0.0
C892 C 0.10149 0.77063 0.60491 0.0
C893 C 0.06453 0.77623 0.59977 0.0
C894 C 0.12277 0.78313 0.64942 0.0
C895 C 0.15666 0.76001 0.63202 0.0
N896 N 0.08327 0.77734 0.61551 0.0
N897 N 0.13829 0.7604 0.61547 0.0
H898 H 0.25092 0.18097 0.65766 0.0
H899 H 0.22881 0.05795 0.635 0.0
H900 H 0.2295 0.14293 0.724 0.0
H901 H 0.2688 0.09244 0.58319 0.0
H902 H 0.2262 0.08942 0.6663 0.0
H903 H 0.25459 0.14907 0.62791 0.0
C904 C 0.24703 0.16592 0.66601 0.0
C905 C 0.23996 0.16463 0.69342 0.0
C906 C 0.23569 0.09002 0.64822 0.0
C907 C 0.24388 0.12814 0.65935 0.0
C908 C 0.23715 0.07213 0.6304 0.0
C909 C 0.24906 0.0727 0.60661 0.0
C910 C 0.24596 0.10861 0.64186 0.0
C911 C 0.25964 0.09135 0.60153 0.0
C912 C 0.2491 0.14774 0.649 0.0
C913 C 0.23472 0.14473 0.70287 0.0
N914 N 0.2577 0.10866 0.6189 0.0
N915 N 0.23678 0.12724 0.68583 0.0
H916 H 0.8163 0.25002 0.63237 0.0
H917 H 0.93952 0.26949 0.6316 0.0
H918 H 0.85721 0.25523 0.70967 0.0
H919 H 0.90354 0.23757 0.56145 0.0
H920 H 0.90841 0.26958 0.65913 0.0
H921 H 0.84722 0.25048 0.60439 0.0
C922 C 0.83181 0.25133 0.64339 0.0
C923 C 0.83429 0.25253 0.6733 0.0
C924 C 0.90736 0.26255 0.63772 0.0
C925 C 0.86953 0.25327 0.64162 0.0
C926 C 0.92502 0.2626 0.62199 0.0
C927 C 0.92404 0.25346 0.5943 0.0
C928 C 0.88851 0.25362 0.62546 0.0
C929 C 0.90495 0.24461 0.58285 0.0
C930 C 0.84939 0.25148 0.62748 0.0
C931 C 0.85468 0.25409 0.68663 0.0
N932 N 0.88787 0.24502 0.59842 0.0
N933 N 0.87153 0.25455 0.67069 0.0
H934 H 0.78609 0.86871 0.7219 0.0
H935 H 0.72505 0.92301 0.58972 0.0
H936 H 0.73405 0.84025 0.67027 0.0
H937 H 0.77524 0.95354 0.64273 0.0
H938 H 0.72604 0.89399 0.62207 0.0
H939 H 0.7807 0.90116 0.69583 0.0
C940 C 0.77346 0.86936 0.7052 0.0
C941 C 0.76068 0.85172 0.69793 0.0
C942 C 0.73673 0.90711 0.62681 0.0
C943 C 0.75445 0.8886 0.66809 0.0
C944 C 0.73605 0.9238 0.60845 0.0
C945 C 0.7502 0.94066 0.61341 0.0
C946 C 0.75178 0.90718 0.65021 0.0
C947 C 0.76432 0.94064 0.63782 0.0
C948 C 0.77041 0.88783 0.69032 0.0
C949 C 0.74458 0.85333 0.67611 0.0
N950 N 0.76488 0.92404 0.6552 0.0
N951 N 0.742 0.87141 0.66187 0.0
H952 H 0.84571 0.72513 0.66724 0.0
H953 H 0.93574 0.79296 0.6055 0.0
H954 H 0.84993 0.7928 0.67964 0.0
H955 H 0.91743 0.73077 0.57219 0.0
H956 H 0.90656 0.79257 0.63623 0.0
H957 H 0.87433 0.7262 0.63591 0.0
C958 C 0.8525 0.74026 0.66325 0.0
C959 C 0.84521 0.75893 0.67608 0.0
C960 C 0.90897 0.77904 0.62214 0.0
C961 C 0.87844 0.76015 0.64058 0.0
C962 C 0.92556 0.77927 0.60446 0.0
C963 C 0.92919 0.76183 0.58618 0.0
C964 C 0.89599 0.76118 0.6218 0.0
C965 C 0.91561 0.74442 0.58627 0.0
C966 C 0.86895 0.74082 0.64544 0.0
C967 C 0.85513 0.77796 0.67059 0.0
N968 N 0.8997 0.74451 0.60385 0.0
N969 N 0.87125 0.77807 0.6533 0.0
H970 H 0.21938 0.84501 0.63661 0.0
H971 H 0.26557 0.95805 0.60734 0.0
H972 H 0.2782 0.8671 0.6782 0.0
H973 H 0.2307 0.92114 0.54102 0.0
H974 H 0.26623 0.92749 0.63804 0.0
H975 H 0.21888 0.87548 0.60574 0.0
C976 C 0.23213 0.85634 0.63933 0.0
C977 C 0.24888 0.85349 0.65996 0.0
C978 C 0.25843 0.9261 0.61677 0.0
C979 C 0.24825 0.88853 0.62504 0.0
C980 C 0.25805 0.9435 0.59927 0.0
C981 C 0.24811 0.94212 0.57155 0.0
C982 C 0.24835 0.90727 0.6068 0.0
C983 C 0.23845 0.92292 0.56227 0.0
C984 C 0.23188 0.87364 0.62163 0.0
C985 C 0.26505 0.86862 0.66246 0.0
N986 N 0.23865 0.90633 0.5799 0.0
N987 N 0.26425 0.88556 0.64542 0.0
H988 H 0.12919 0.2676 0.7292 0.0
H989 H 0.0783 0.23776 0.57194 0.0
H990 H 0.16107 0.23112 0.66636 0.0
H991 H 0.04319 0.26575 0.6382 0.0
H992 H 0.10939 0.23661 0.6058 0.0
H993 H 0.09791 0.26828 0.69591 0.0
C994 C 0.12958 0.2596 0.7085 0.0
C995 C 0.14783 0.24929 0.70059 0.0
C996 C 0.09492 0.24303 0.61301 0.0
C997 C 0.11215 0.2503 0.66222 0.0
C998 C 0.07728 0.24369 0.59371 0.0
C999 C 0.05841 0.25197 0.60247 0.0
C1000 C 0.09364 0.25074 0.64124 0.0
C1001 C 0.05762 0.25941 0.63078 0.0
C1002 C 0.11174 0.2601 0.68944 0.0
C1003 C 0.14749 0.23952 0.67326 0.0
N1004 N 0.07505 0.25868 0.64921 0.0
N1005 N 0.12997 0.2403 0.65507 0.0
H1006 H 0.77298 0.17417 0.63897 0.0
H1007 H 0.74248 0.05174 0.61475 0.0
H1008 H 0.73761 0.13995 0.69691 0.0
H1009 H 0.77051 0.08789 0.55191 0.0
H1010 H 0.7422 0.08344 0.64635 0.0
H1011 H 0.77371 0.14248 0.60794 0.0
C1012 C 0.76525 0.16008 0.64518 0.0
C1013 C 0.75515 0.15993 0.67074 0.0
C1014 C 0.74844 0.08449 0.62568 0.0
C1015 C 0.75624 0.12326 0.63522 0.0
C1016 C 0.7486 0.06641 0.60771 0.0
C1017 C 0.75652 0.06729 0.58077 0.0
C1018 C 0.75635 0.10361 0.61671 0.0
C1019 C 0.76432 0.08661 0.57257 0.0
C1020 C 0.7658 0.1419 0.62745 0.0
C1021 C 0.74584 0.1409 0.67772 0.0
N1022 N 0.76406 0.10399 0.59045 0.0
N1023 N 0.7466 0.12342 0.66012 0.0
H1024 H 0.87562 0.22909 0.31878 0.0
H1025 H 0.92695 0.26102 0.4748 0.0
H1026 H 0.84333 0.26564 0.38116 0.0
H1027 H 0.96336 0.2393 0.40613 0.0
H1028 H 0.89533 0.26028 0.44172 0.0
H1029 H 0.90735 0.23024 0.35134 0.0
C1030 C 0.8752 0.23746 0.33923 0.0
C1031 C 0.85672 0.24727 0.34721 0.0
C1032 C 0.91022 0.25569 0.43383 0.0
C1033 C 0.89291 0.24834 0.38473 0.0
C1034 C 0.92816 0.25609 0.45267 0.0
C1035 C 0.94754 0.25009 0.44299 0.0
C1036 C 0.91173 0.24912 0.40518 0.0
C1037 C 0.94854 0.24388 0.41424 0.0
C1038 C 0.89331 0.23802 0.35785 0.0
C1039 C 0.85706 0.25754 0.37424 0.0
N1040 N 0.93082 0.24345 0.39629 0.0
N1041 N 0.87484 0.25776 0.39202 0.0
H1042 H 0.77052 0.86405 0.33214 0.0
H1043 H 0.73981 0.91864 0.48015 0.0
H1044 H 0.73483 0.83261 0.39241 0.0
H1045 H 0.76983 0.95167 0.41603 0.0
H1046 H 0.73903 0.88652 0.44925 0.0
H1047 H 0.77155 0.89576 0.36327 0.0
C1048 C 0.76279 0.86378 0.35182 0.0
C1049 C 0.75249 0.84548 0.35945 0.0
C1050 C 0.74581 0.90076 0.44189 0.0
C1051 C 0.75389 0.88194 0.39562 0.0
C1052 C 0.74625 0.91905 0.45952 0.0
C1053 C 0.75491 0.93774 0.45056 0.0
C1054 C 0.75417 0.90113 0.41508 0.0
C1055 C 0.76307 0.93752 0.42369 0.0
C1056 C 0.7635 0.88193 0.36971 0.0
C1057 C 0.74318 0.84615 0.38565 0.0
N1058 N 0.76253 0.91952 0.40692 0.0
N1059 N 0.74408 0.86402 0.40269 0.0
H1060 H 0.15532 0.78901 0.33048 0.0
H1061 H 0.06168 0.72708 0.39356 0.0
H1062 H 0.14474 0.72238 0.31454 0.0
H1063 H 0.08652 0.78608 0.4306 0.0
H1064 H 0.08954 0.72632 0.36077 0.0
H1065 H 0.12726 0.78967 0.3632 0.0
C1066 C 0.14699 0.77455 0.33377 0.0
C1067 C 0.15232 0.75561 0.31984 0.0
C1068 C 0.08886 0.73941 0.37612 0.0
C1069 C 0.12028 0.75623 0.35715 0.0
C1070 C 0.07302 0.73982 0.395 0.0
C1071 C 0.07165 0.75668 0.41503 0.0
C1072 C 0.10335 0.75607 0.37698 0.0
C1073 C 0.08662 0.77294 0.41529 0.0
C1074 C 0.13109 0.7749 0.35256 0.0
C1075 C 0.1412 0.73727 0.32507 0.0
N1076 N 0.10177 0.77226 0.39652 0.0
N1077 N 0.12563 0.73805 0.34322 0.0
H1078 H 0.22885 0.13866 0.32871 0.0
H1079 H 0.26184 0.08827 0.4799 0.0
H1080 H 0.2673 0.17115 0.39612 0.0
H1081 H 0.2318 0.05287 0.4082 0.0
H1082 H 0.26227 0.11944 0.45052 0.0
H1083 H 0.22821 0.10782 0.35816 0.0
C1084 C 0.23729 0.13936 0.3496 0.0
C1085 C 0.24822 0.15775 0.3597 0.0
C1086 C 0.25555 0.10489 0.44115 0.0
C1087 C 0.2472 0.12225 0.39399 0.0
C1088 C 0.25531 0.08713 0.45794 0.0
C1089 C 0.24676 0.06801 0.44643 0.0
C1090 C 0.24709 0.10362 0.4126 0.0
C1091 C 0.23846 0.06735 0.41788 0.0
C1092 C 0.23679 0.1217 0.36652 0.0
C1093 C 0.25841 0.1576 0.38736 0.0
N1094 N 0.2388 0.08485 0.40199 0.0
N1095 N 0.25765 0.14021 0.40343 0.0
H1096 H 0.66464 0.78348 0.84979 0.0
H1097 H 0.59301 0.71689 0.94527 0.0
H1098 H 0.67176 0.71644 0.85848 0.0
H1099 H 0.57421 0.77697 0.91162 0.0
H1100 H 0.62381 0.71739 0.91757 0.0
H1101 H 0.63351 0.78253 0.87701 0.0
C1102 C 0.65968 0.76858 0.85756 0.0
C1103 C 0.67076 0.75001 0.85192 0.0
C1104 C 0.61289 0.73042 0.91626 0.0
C1105 C 0.63522 0.7488 0.88304 0.0
C1106 C 0.5952 0.73012 0.93195 0.0
C1107 C 0.58086 0.74692 0.93088 0.0
C1108 C 0.61645 0.74775 0.89959 0.0
C1109 C 0.58493 0.76383 0.91362 0.0
C1110 C 0.64186 0.76802 0.87292 0.0
C1111 C 0.66354 0.73108 0.8622 0.0
N1112 N 0.60236 0.76384 0.89878 0.0
N1113 N 0.64628 0.73097 0.87742 0.0
H1114 H 0.24326 0.6894 0.87792 0.0
H1115 H 0.28085 0.57026 0.90171 0.0
H1116 H 0.27315 0.65167 0.81439 0.0
H1117 H 0.24183 0.60456 0.95828 0.0
H1118 H 0.28016 0.60057 0.87095 0.0
H1119 H 0.24422 0.6592 0.90861 0.0
C1120 C 0.24991 0.67478 0.87021 0.0
C1121 C 0.25805 0.67329 0.8432 0.0
C1122 C 0.27173 0.60147 0.89009 0.0
C1123 C 0.25954 0.63844 0.87891 0.0
C1124 C 0.27223 0.58418 0.90781 0.0
C1125 C 0.26137 0.58472 0.93276 0.0
C1126 C 0.26044 0.61966 0.89733 0.0
C1127 C 0.25024 0.60321 0.93917 0.0
C1128 C 0.25056 0.65751 0.88794 0.0
C1129 C 0.26691 0.65387 0.83504 0.0
N1130 N 0.25012 0.61988 0.92169 0.0
N1131 N 0.26742 0.63731 0.85274 0.0
H1132 H 0.33154 0.27838 0.91288 0.0
H1133 H 0.45354 0.24984 0.9108 0.0
H1134 H 0.3578 0.24303 0.84391 0.0
H1135 H 0.42524 0.2722 0.98648 0.0
H1136 H 0.41902 0.2508 0.88408 0.0
H1137 H 0.36624 0.27941 0.93878 0.0
C1138 C 0.34455 0.27076 0.90322 0.0
C1139 C 0.3417 0.2606 0.87615 0.0
C1140 C 0.42033 0.25552 0.90652 0.0
C1141 C 0.3815 0.26201 0.90548 0.0
C1142 C 0.43996 0.25498 0.92164 0.0
C1143 C 0.44195 0.26073 0.95074 0.0
C1144 C 0.40269 0.26204 0.92064 0.0
C1145 C 0.42413 0.26754 0.96401 0.0
C1146 C 0.36437 0.27146 0.91795 0.0
C1147 C 0.35926 0.25133 0.8645 0.0
N1148 N 0.40516 0.26797 0.94886 0.0
N1149 N 0.37838 0.25227 0.87922 0.0
H1150 H 0.71864 0.36512 0.82442 0.0
H1151 H 0.7515 0.41961 0.97823 0.0
H1152 H 0.76017 0.33622 0.88841 0.0
H1153 H 0.72018 0.45286 0.90913 0.0
H1154 H 0.75263 0.38797 0.94671 0.0
H1155 H 0.7171 0.39652 0.8559 0.0
C1156 C 0.72755 0.36534 0.84497 0.0
C1157 C 0.73959 0.3478 0.85358 0.0
C1158 C 0.74548 0.40215 0.93839 0.0
C1159 C 0.73754 0.38383 0.89012 0.0
C1160 C 0.74482 0.42016 0.95638 0.0
C1161 C 0.73577 0.4388 0.94618 0.0
C1162 C 0.73687 0.4027 0.90997 0.0
C1163 C 0.72726 0.43874 0.91776 0.0
C1164 C 0.72654 0.38329 0.86304 0.0
C1165 C 0.7504 0.34907 0.88085 0.0
N1166 N 0.728 0.42099 0.90065 0.0
N1167 N 0.7491 0.36669 0.89805 0.0
H1168 H 0.67189 0.27865 0.14094 0.0
H1169 H 0.55274 0.23891 0.12843 0.0
H1170 H 0.64836 0.23305 0.19656 0.0
H1171 H 0.58115 0.26899 0.06031 0.0
H1172 H 0.58695 0.23926 0.15615 0.0
H1173 H 0.63795 0.27788 0.11316 0.0
C1174 C 0.65967 0.26839 0.14725 0.0
C1175 C 0.66305 0.2559 0.17119 0.0
C1176 C 0.58573 0.2457 0.13509 0.0
C1177 C 0.62404 0.25525 0.13973 0.0
C1178 C 0.56629 0.24546 0.11936 0.0
C1179 C 0.5644 0.25372 0.09211 0.0
C1180 C 0.60323 0.25456 0.12355 0.0
C1181 C 0.58218 0.26237 0.08126 0.0
C1182 C 0.64026 0.26804 0.13144 0.0
C1183 C 0.64642 0.24323 0.1786 0.0
N1184 N 0.60089 0.26262 0.09706 0.0
N1185 N 0.62764 0.24327 0.16298 0.0
H1186 H 0.72017 0.64058 0.19554 0.0
H1187 H 0.74909 0.58957 0.04461 0.0
H1188 H 0.75457 0.67376 0.1355 0.0
H1189 H 0.72204 0.55429 0.10914 0.0
H1190 H 0.74964 0.62114 0.07654 0.0
H1191 H 0.71925 0.60941 0.1634 0.0
C1192 C 0.72765 0.64135 0.1757 0.0
C1193 C 0.73754 0.65998 0.16843 0.0
C1194 C 0.74356 0.60652 0.08377 0.0
C1195 C 0.73623 0.62416 0.1311 0.0
C1196 C 0.74325 0.58855 0.06554 0.0
C1197 C 0.73552 0.56938 0.07434 0.0
C1198 C 0.73598 0.60535 0.11099 0.0
C1199 C 0.72807 0.56882 0.1016 0.0
C1200 C 0.727 0.62351 0.15724 0.0
C1201 C 0.74652 0.65996 0.14201 0.0
N1202 N 0.72847 0.58652 0.11894 0.0
N1203 N 0.74566 0.64239 0.1244 0.0
H1204 H 0.32562 0.78351 0.13267 0.0
H1205 H 0.42862 0.72034 0.09587 0.0
H1206 H 0.33679 0.71892 0.15514 0.0
H1207 H 0.40721 0.77581 0.05191 0.0
H1208 H 0.39662 0.72097 0.12113 0.0
H1209 H 0.35704 0.78239 0.10619 0.0
C1210 C 0.33453 0.76903 0.1319 0.0
C1211 C 0.32844 0.75128 0.14623 0.0
C1212 C 0.39894 0.73297 0.10591 0.0
C1213 C 0.36476 0.75009 0.11637 0.0
C1214 C 0.41718 0.73258 0.09133 0.0
C1215 C 0.42072 0.74804 0.07162 0.0
C1216 C 0.38417 0.74905 0.10101 0.0
C1217 C 0.40542 0.76375 0.06721 0.0
C1218 C 0.35256 0.76846 0.11688 0.0
C1219 C 0.34099 0.73313 0.14488 0.0
N1220 N 0.38788 0.76388 0.08184 0.0
N1221 N 0.35856 0.73303 0.13032 0.0
H1222 H 0.23341 0.32621 0.14766 0.0
H1223 H 0.28927 0.43546 0.11672 0.0
H1224 H 0.28145 0.35564 0.20533 0.0
H1225 H 0.23332 0.41206 0.06858 0.0
H1226 H 0.28835 0.40514 0.14734 0.0
H1227 H 0.23482 0.35619 0.1166 0.0
C1228 C 0.24435 0.3389 0.15377 0.0
C1229 C 0.25733 0.33829 0.17928 0.0
C1230 C 0.27626 0.40663 0.13008 0.0
C1231 C 0.25899 0.3729 0.14362 0.0
C1232 C 0.27685 0.4239 0.11243 0.0
C1233 C 0.26133 0.42645 0.08994 0.0
C1234 C 0.26015 0.39153 0.12517 0.0
C1235 C 0.24549 0.41098 0.08579 0.0
C1236 C 0.24505 0.35612 0.13606 0.0
C1237 C 0.27097 0.35545 0.18611 0.0
N1238 N 0.24536 0.39423 0.1031 0.0
N1239 N 0.2715 0.37194 0.1684 0.0
H1240 H 0.32465 0.23559 0.14553 0.0
H1241 H 0.44067 0.27852 0.13121 0.0
H1242 H 0.36147 0.26788 0.21482 0.0
H1243 H 0.4115 0.23029 0.07438 0.0
H1244 H 0.4103 0.27772 0.15994 0.0
H1245 H 0.35505 0.23607 0.11707 0.0
C1246 C 0.33912 0.24266 0.15489 0.0
C1247 C 0.34041 0.25168 0.18273 0.0
C1248 C 0.41058 0.26728 0.14123 0.0
C1249 C 0.37518 0.25264 0.14992 0.0
C1250 C 0.42783 0.26781 0.12477 0.0
C1251 C 0.42859 0.25443 0.10044 0.0
C1252 C 0.39383 0.25346 0.13309 0.0
C1253 C 0.41163 0.24071 0.09316 0.0
C1254 C 0.35645 0.24302 0.13853 0.0
C1255 C 0.35953 0.26103 0.19335 0.0
N1256 N 0.39488 0.24065 0.10933 0.0
N1257 N 0.37612 0.26132 0.17692 0.0
H1258 H 0.77888 0.35936 0.19839 0.0
H1259 H 0.70681 0.42779 0.09279 0.0
H1260 H 0.71371 0.34491 0.17475 0.0
H1261 H 0.76657 0.44978 0.13217 0.0
H1262 H 0.70848 0.39809 0.12404 0.0
H1263 H 0.77452 0.393 0.17508 0.0
C1264 C 0.76365 0.36334 0.18832 0.0
C1265 C 0.74667 0.34934 0.1882 0.0
C1266 C 0.72112 0.40954 0.12609 0.0
C1267 C 0.74153 0.38769 0.16165 0.0
C1268 C 0.72013 0.42662 0.10836 0.0
C1269 C 0.73666 0.44127 0.1097 0.0
C1270 C 0.73888 0.40692 0.14507 0.0
C1271 C 0.75368 0.43864 0.12998 0.0
C1272 C 0.76112 0.38257 0.17522 0.0
C1273 C 0.72717 0.35533 0.17532 0.0
N1274 N 0.75445 0.42165 0.14668 0.0
N1275 N 0.72518 0.374 0.16227 0.0
H1276 H 0.66627 0.7563 0.13168 0.0
H1277 H 0.54215 0.73518 0.11777 0.0
H1278 H 0.63178 0.73589 0.20116 0.0
H1279 H 0.57702 0.75472 0.04846 0.0
H1280 H 0.57488 0.73497 0.14881 0.0
H1281 H 0.63374 0.75557 0.1008 0.0
C1282 C 0.65183 0.75173 0.14045 0.0
C1283 C 0.65172 0.7462 0.16905 0.0
C1284 C 0.57541 0.73926 0.12681 0.0
C1285 C 0.61444 0.74517 0.13378 0.0
C1286 C 0.5568 0.73935 0.10922 0.0
C1287 C 0.55717 0.74487 0.08075 0.0
C1288 C 0.5944 0.74482 0.11572 0.0
C1289 C 0.57632 0.75032 0.0704 0.0
C1290 C 0.63328 0.75121 0.12278 0.0
C1291 C 0.63261 0.74006 0.17917 0.0
N1292 N 0.59423 0.75017 0.08791 0.0
N1293 N 0.61472 0.73978 0.16157 0.0
H1294 H 0.25377 0.6357 0.19835 0.0
H1295 H 0.28564 0.5781 0.05622 0.0
H1296 H 0.28633 0.667 0.13465 0.0
H1297 H 0.26779 0.54448 0.12849 0.0
H1298 H 0.28835 0.61059 0.08595 0.0
H1299 H 0.26105 0.60186 0.17497 0.0
C1300 C 0.26276 0.63545 0.17972 0.0
C1301 C 0.2692 0.65424 0.1682 0.0
C1302 C 0.28413 0.59609 0.0955 0.0
C1303 C 0.27724 0.61558 0.14107 0.0
C1304 C 0.2826 0.57764 0.07855 0.0
C1305 C 0.27624 0.55891 0.09006 0.0
C1306 C 0.27897 0.59575 0.12399 0.0
C1307 C 0.27251 0.55883 0.11899 0.0
C1308 C 0.26684 0.61611 0.16632 0.0
C1309 C 0.2806 0.65294 0.14384 0.0
N1310 N 0.27361 0.57711 0.13496 0.0
N1311 N 0.28403 0.63395 0.13088 0.0
H1312 H 0.33835 0.77495 0.87496 0.0
H1313 H 0.45825 0.73846 0.88691 0.0
H1314 H 0.36497 0.73402 0.81178 0.0
H1315 H 0.42667 0.76303 0.95874 0.0
H1316 H 0.42502 0.73989 0.85709 0.0
H1317 H 0.3714 0.77354 0.90452 0.0
C1318 C 0.35105 0.76552 0.86737 0.0
C1319 C 0.34882 0.75457 0.8408 0.0
C1320 C 0.42534 0.74492 0.87939 0.0
C1321 C 0.38685 0.75328 0.87432 0.0
C1322 C 0.44423 0.74412 0.89628 0.0
C1323 C 0.44491 0.75043 0.92517 0.0
C1324 C 0.40718 0.75237 0.89152 0.0
C1325 C 0.42656 0.75794 0.93648 0.0
C1326 C 0.36996 0.76484 0.8842 0.0
C1327 C 0.36604 0.74299 0.83188 0.0
N1328 N 0.40838 0.75872 0.9196 0.0
N1329 N 0.38434 0.7427 0.84856 0.0
H1330 H 0.27496 0.33789 0.91408 0.0
H1331 H 0.23147 0.4532 0.90778 0.0
H1332 H 0.21478 0.35078 0.87033 0.0
H1333 H 0.26566 0.43201 0.98399 0.0
H1334 H 0.22791 0.41643 0.8899 0.0
H1335 H 0.27482 0.3733 0.93704 0.0
C1336 C 0.26165 0.34816 0.90967 0.0
C1337 C 0.24481 0.34162 0.89056 0.0
C1338 C 0.23595 0.41986 0.91069 0.0
C1339 C 0.24478 0.38186 0.91584 0.0
C1340 C 0.23791 0.44071 0.92085 0.0
C1341 C 0.24851 0.44535 0.94749 0.0
C1342 C 0.24523 0.40379 0.92699 0.0
C1343 C 0.25725 0.42885 0.96338 0.0
C1344 C 0.26155 0.36822 0.9227 0.0
C1345 C 0.22793 0.35535 0.88521 0.0
N1346 N 0.25559 0.40871 0.95275 0.0
N1347 N 0.22846 0.37503 0.8975 0.0
H1348 H 0.68218 0.25901 0.89314 0.0
H1349 H 0.55948 0.2428 0.90335 0.0
H1350 H 0.63835 0.25536 0.81862 0.0
H1351 H 0.59893 0.27324 0.97133 0.0
H1352 H 0.58903 0.24277 0.87298 0.0
H1353 H 0.65255 0.25976 0.92345 0.0
C1354 C 0.6663 0.25831 0.88322 0.0
C1355 C 0.66263 0.25714 0.85341 0.0
C1356 C 0.59118 0.24951 0.89451 0.0
C1357 C 0.62883 0.25782 0.88777 0.0
C1358 C 0.5744 0.24944 0.91184 0.0
C1359 C 0.57683 0.25807 0.9398 0.0
C1360 C 0.61062 0.25792 0.90542 0.0
C1361 C 0.59642 0.26659 0.94979 0.0
C1362 C 0.64945 0.25886 0.90047 0.0
C1363 C 0.6418 0.25642 0.84154 0.0
N1364 N 0.61264 0.26616 0.93268 0.0
N1365 N 0.62565 0.25661 0.85877 0.0
H1366 H 0.71582 0.66841 0.85519 0.0
H1367 H 0.75884 0.55371 0.88745 0.0
H1368 H 0.76247 0.6375 0.80682 0.0
H1369 H 0.70492 0.58103 0.92467 0.0
H1370 H 0.75919 0.58319 0.85548 0.0
H1371 H 0.71026 0.63556 0.8789 0.0
C1372 C 0.72482 0.65462 0.84953 0.0
C1373 C 0.73977 0.65562 0.82933 0.0
C1374 C 0.74711 0.58257 0.87037 0.0
C1375 C 0.73357 0.61806 0.85626 0.0
C1376 C 0.74697 0.56582 0.88867 0.0
C1377 C 0.73193 0.56506 0.90883 0.0
C1378 C 0.73225 0.59874 0.87254 0.0
C1379 C 0.71672 0.58096 0.90933 0.0
C1380 C 0.72157 0.63586 0.8629 0.0
C1381 C 0.75079 0.6373 0.82232 0.0
N1382 N 0.71742 0.59729 0.89168 0.0
N1383 N 0.74765 0.61928 0.83604 0.0
loop_
_geom_bond_atom_site_label_1
_geom_bond_atom_site_label_2
_geom_bond_distance
_geom_bond_site_symmetry_2
_ccdc_geom_bond_type
H0 C19 0.949 . S
H1 C20 0.950 . S
H2 C22 0.950 . S
H3 C23 0.950 . S
H4 C25 0.950 . S
H5 C28 0.950 . S
H6 C29 0.950 . S
H7 C31 0.951 . S
H8 C32 0.949 . S
H9 C34 0.949 . S
H10 C35 0.950 . S
H11 C37 0.950 . S
H12 C38 0.950 . S
H13 C40 0.950 . S
H14 C43 0.950 . S
H15 C44 0.950 . S
H16 C46 0.951 . S
H17 C47 0.949 . S
C18 C19 1.376 . S
C18 C23 1.386 . S
C18 C24 1.483 . S
C19 H0 0.949 . S
C19 C18 1.376 . S
C19 C20 1.397 . S
C20 H1 0.950 . S
C20 C19 1.397 . S
C20 C21 1.391 . S
C21 C20 1.391 . S
C21 C22 1.405 . S
C22 H2 0.950 . S
C22 C21 1.405 . S
C22 C23 1.367 . S
C23 H3 0.950 . S
C23 C18 1.386 . S
C23 C22 1.367 . S
C24 C18 1.483 . S
C24 C25 1.382 . S
C24 C26 1.403 . S
C25 H4 0.950 . S
C25 C24 1.382 . S
C25 C41 1.411 . S
C26 C24 1.403 . S
C26 C27 1.489 . S
C26 C40 1.411 . S
C27 C26 1.489 . S
C27 C28 1.383 . S
C27 C32 1.382 . S
C28 H5 0.950 . S
C28 C27 1.383 . S
C28 C29 1.395 . S
C29 H6 0.950 . S
C29 C28 1.395 . S
C29 C30 1.288 . S
C30 C29 1.288 . S
C30 C31 1.392 . S
C31 H7 0.951 . S
C31 C30 1.392 . S
C31 C32 1.392 . S
C32 H8 0.949 . S
C32 C27 1.382 . S
C32 C31 1.392 . S
C33 C34 1.376 . S
C33 C38 1.386 . S
C33 C39 1.483 . S
C34 H9 0.949 . S
C34 C33 1.376 . S
C34 C35 1.397 . S
C35 H10 0.950 . S
C35 C34 1.397 . S
C35 C36 1.391 . S
C36 C35 1.391 . S
C36 C37 1.405 . S
C37 H11 0.950 . S
C37 C36 1.405 . S
C37 C38 1.367 . S
C38 H12 0.950 . S
C38 C33 1.386 . S
C38 C37 1.367 . S
C39 C33 1.483 . S
C39 C40 1.382 . S
C39 C41 1.403 . S
C40 H13 0.950 . S
C40 C26 1.411 . S
C40 C39 1.382 . S
C41 C25 1.411 . S
C41 C39 1.403 . S
C41 C42 1.489 . S
C42 C41 1.489 . S
C42 C43 1.383 . S
C42 C47 1.382 . S
C43 H14 0.950 . S
C43 C42 1.383 . S
C43 C44 1.395 . S
C44 H15 0.950 . S
C44 C43 1.395 . S
C44 C45 1.288 . S
C45 C44 1.288 . S
C45 C46 1.392 . S
C46 H16 0.951 . S
C46 C45 1.392 . S
C46 C47 1.392 . S
C47 H17 0.949 . S
C47 C42 1.382 . S
C47 C46 1.392 . S
H48 C67 0.949 . S
H49 C68 0.950 . S
H50 C70 0.950 . S
H51 C71 0.950 . S
H52 C73 0.950 . S
H53 C76 0.950 . S
H54 C77 0.950 . S
H55 C79 0.951 . S
H56 C80 0.949 . S
H57 C82 0.949 . S
H58 C83 0.950 . S
H59 C85 0.950 . S
H60 C86 0.950 . S
H61 C88 0.950 . S
H62 C91 0.950 . S
H63 C92 0.950 . S
H64 C94 0.951 . S
H65 C95 0.949 . S
C66 C67 1.376 . S
C66 C71 1.386 . S
C66 C72 1.483 . S
C67 H48 0.949 . S
C67 C66 1.376 . S
C67 C68 1.397 . S
C68 H49 0.950 . S
C68 C67 1.397 . S
C68 C69 1.391 . S
C69 C68 1.391 . S
C69 C70 1.405 . S
C70 H50 0.950 . S
C70 C69 1.405 . S
C70 C71 1.367 . S
C71 H51 0.950 . S
C71 C66 1.386 . S
C71 C70 1.367 . S
C72 C66 1.483 . S
C72 C73 1.382 . S
C72 C74 1.403 . S
C73 H52 0.950 . S
C73 C72 1.382 . S
C73 C89 1.411 . S
C74 C72 1.403 . S
C74 C75 1.489 . S
C74 C88 1.411 . S
C75 C74 1.489 . S
C75 C76 1.383 . S
C75 C80 1.382 . S
C76 H53 0.950 . S
C76 C75 1.383 . S
C76 C77 1.395 . S
C77 H54 0.950 . S
C77 C76 1.395 . S
C77 C78 1.288 . S
C78 C77 1.288 . S
C78 C79 1.392 . S
C79 H55 0.951 . S
C79 C78 1.392 . S
C79 C80 1.392 . S
C80 H56 0.949 . S
C80 C75 1.382 . S
C80 C79 1.392 . S
C81 C82 1.376 . S
C81 C86 1.386 . S
C81 C87 1.483 . S
C82 H57 0.949 . S
C82 C81 1.376 . S
C82 C83 1.397 . S
C83 H58 0.950 . S
C83 C82 1.397 . S
C83 C84 1.391 . S
C84 C83 1.391 . S
C84 C85 1.405 . S
C85 H59 0.950 . S
C85 C84 1.405 . S
C85 C86 1.367 . S
C86 H60 0.950 . S
C86 C81 1.386 . S
C86 C85 1.367 . S
C87 C81 1.483 . S
C87 C88 1.382 . S
C87 C89 1.403 . S
C88 H61 0.950 . S
C88 C74 1.411 . S
C88 C87 1.382 . S
C89 C73 1.411 . S
C89 C87 1.403 . S
C89 C90 1.489 . S
C90 C89 1.489 . S
C90 C91 1.383 . S
C90 C95 1.382 . S
C91 H62 0.950 . S
C91 C90 1.383 . S
C91 C92 1.395 . S
C92 H63 0.950 . S
C92 C91 1.395 . S
C92 C93 1.288 . S
C93 C92 1.288 . S
C93 C94 1.392 . S
C94 H64 0.951 . S
C94 C93 1.392 . S
C94 C95 1.392 . S
C95 H65 0.949 . S
C95 C90 1.382 . S
C95 C94 1.392 . S
H96 C115 0.949 . S
H97 C116 0.950 . S
H98 C118 0.950 . S
H99 C119 0.950 . S
H100 C121 0.950 . S
H101 C124 0.950 . S
H102 C125 0.950 . S
H103 C127 0.951 . S
H104 C128 0.949 . S
H105 C130 0.949 . S
H106 C131 0.950 . S
H107 C133 0.950 . S
H108 C134 0.950 . S
H109 C136 0.950 . S
H110 C139 0.950 . S
H111 C140 0.950 . S
H112 C142 0.951 . S
H113 C143 0.949 . S
C114 C115 1.376 . S
C114 C119 1.386 . S
C114 C120 1.483 . S
C115 H96 0.949 . S
C115 C114 1.376 . S
C115 C116 1.397 . S
C116 H97 0.950 . S
C116 C115 1.397 . S
C116 C117 1.391 . S
C117 C116 1.391 . S
C117 C118 1.405 . S
C118 H98 0.950 . S
C118 C117 1.405 . S
C118 C119 1.367 . S
C119 H99 0.950 . S
C119 C114 1.386 . S
C119 C118 1.367 . S
C120 C114 1.483 . S
C120 C121 1.382 . S
C120 C122 1.403 . S
C121 H100 0.950 . S
C121 C120 1.382 . S
C121 C137 1.411 . S
C122 C120 1.403 . S
C122 C123 1.489 . S
C122 C136 1.411 . S
C123 C122 1.489 . S
C123 C124 1.383 . S
C123 C128 1.382 . S
C124 H101 0.950 . S
C124 C123 1.383 . S
C124 C125 1.395 . S
C125 H102 0.950 . S
C125 C124 1.395 . S
C125 C126 1.288 . S
C126 C125 1.288 . S
C126 C127 1.392 . S
C127 H103 0.951 . S
C127 C126 1.392 . S
C127 C128 1.392 . S
C128 H104 0.949 . S
C128 C123 1.382 . S
C128 C127 1.392 . S
C129 C130 1.376 . S
C129 C134 1.386 . S
C129 C135 1.483 . S
C130 H105 0.949 . S
C130 C129 1.376 . S
C130 C131 1.397 . S
C131 H106 0.950 . S
C131 C130 1.397 . S
C131 C132 1.391 . S
C132 C131 1.391 . S
C132 C133 1.405 . S
C133 H107 0.950 . S
C133 C132 1.405 . S
C133 C134 1.367 . S
C134 H108 0.950 . S
C134 C129 1.386 . S
C134 C133 1.367 . S
C135 C129 1.483 . S
C135 C136 1.382 . S
C135 C137 1.403 . S
C136 H109 0.950 . S
C136 C122 1.411 . S
C136 C135 1.382 . S
C137 C121 1.411 . S
C137 C135 1.403 . S
C137 C138 1.489 . S
C138 C137 1.489 . S
C138 C139 1.383 . S
C138 C143 1.382 . S
C139 H110 0.950 . S
C139 C138 1.383 . S
C139 C140 1.395 . S
C140 H111 0.950 . S
C140 C139 1.395 . S
C140 C141 1.288 . S
C141 C140 1.288 . S
C141 C142 1.392 . S
C142 H112 0.951 . S
C142 C141 1.392 . S
C142 C143 1.392 . S
C143 H113 0.949 . S
C143 C138 1.382 . S
C143 C142 1.392 . S
H144 C163 0.949 . S
H145 C164 0.950 . S
H146 C166 0.950 . S
H147 C167 0.950 . S
H148 C169 0.950 . S
H149 C172 0.950 . S
H150 C173 0.950 . S
H151 C175 0.951 . S
H152 C176 0.949 . S
H153 C178 0.949 . S
H154 C179 0.950 . S
H155 C181 0.950 . S
H156 C182 0.950 . S
H157 C184 0.950 . S
H158 C187 0.950 . S
H159 C188 0.950 . S
H160 C190 0.951 . S
H161 C191 0.949 . S
C162 C163 1.376 . S
C162 C167 1.386 . S
C162 C168 1.483 . S
C163 H144 0.949 . S
C163 C162 1.376 . S
C163 C164 1.397 . S
C164 H145 0.950 . S
C164 C163 1.397 . S
C164 C165 1.391 . S
C165 C164 1.391 . S
C165 C166 1.405 . S
C166 H146 0.950 . S
C166 C165 1.405 . S
C166 C167 1.367 . S
C167 H147 0.950 . S
C167 C162 1.386 . S
C167 C166 1.367 . S
C168 C162 1.483 . S
C168 C169 1.382 . S
C168 C170 1.403 . S
C169 H148 0.950 . S
C169 C168 1.382 . S
C169 C185 1.411 . S
C170 C168 1.403 . S
C170 C171 1.489 . S
C170 C184 1.411 . S
C171 C170 1.489 . S
C171 C172 1.383 . S
C171 C176 1.382 . S
C172 H149 0.950 . S
C172 C171 1.383 . S
C172 C173 1.395 . S
C173 H150 0.950 . S
C173 C172 1.395 . S
C173 C174 1.288 . S
C174 C173 1.288 . S
C174 C175 1.392 . S
C175 H151 0.951 . S
C175 C174 1.392 . S
C175 C176 1.392 . S
C176 H152 0.949 . S
C176 C171 1.382 . S
C176 C175 1.392 . S
C177 C178 1.376 . S
C177 C182 1.386 . S
C177 C183 1.483 . S
C178 H153 0.949 . S
C178 C177 1.376 . S
C178 C179 1.397 . S
C179 H154 0.950 . S
C179 C178 1.397 . S
C179 C180 1.391 . S
C180 C179 1.391 . S
C180 C181 1.405 . S
C181 H155 0.950 . S
C181 C180 1.405 . S
C181 C182 1.367 . S
C182 H156 0.950 . S
C182 C177 1.386 . S
C182 C181 1.367 . S
C183 C177 1.483 . S
C183 C184 1.382 . S
C183 C185 1.403 . S
C184 H157 0.950 . S
C184 C170 1.411 . S
C184 C183 1.382 . S
C185 C169 1.411 . S
C185 C183 1.403 . S
C185 C186 1.489 . S
C186 C185 1.489 . S
C186 C187 1.383 . S
C186 C191 1.382 . S
C187 H158 0.950 . S
C187 C186 1.383 . S
C187 C188 1.395 . S
C188 H159 0.950 . S
C188 C187 1.395 . S
C188 C189 1.288 . S
C189 C188 1.288 . S
C189 C190 1.392 . S
C190 H160 0.951 . S
C190 C189 1.392 . S
C190 C191 1.392 . S
C191 H161 0.949 . S
C191 C186 1.382 . S
C191 C190 1.392 . S
H192 C211 0.949 . S
H193 C212 0.950 . S
H194 C214 0.950 . S
H195 C215 0.950 . S
H196 C217 0.950 . S
H197 C220 0.950 . S
H198 C221 0.950 . S
H199 C223 0.951 . S
H200 C224 0.949 . S
H201 C226 0.949 . S
H202 C227 0.950 . S
H203 C229 0.950 . S
H204 C230 0.950 . S
H205 C232 0.950 . S
H206 C235 0.950 . S
H207 C236 0.950 . S
H208 C238 0.951 . S
H209 C239 0.949 . S
C210 C211 1.376 . S
C210 C215 1.386 . S
C210 C216 1.483 . S
C211 H192 0.949 . S
C211 C210 1.376 . S
C211 C212 1.397 . S
C212 H193 0.950 . S
C212 C211 1.397 . S
C212 C213 1.391 . S
C213 C212 1.391 . S
C213 C214 1.405 . S
C214 H194 0.950 . S
C214 C213 1.405 . S
C214 C215 1.367 . S
C215 H195 0.950 . S
C215 C210 1.386 . S
C215 C214 1.367 . S
C216 C210 1.483 . S
C216 C217 1.382 . S
C216 C218 1.403 . S
C217 H196 0.950 . S
C217 C216 1.382 . S
C217 C233 1.411 . S
C218 C216 1.403 . S
C218 C219 1.489 . S
C218 C232 1.411 . S
C219 C218 1.489 . S
C219 C220 1.383 . S
C219 C224 1.382 . S
C220 H197 0.950 . S
C220 C219 1.383 . S
C220 C221 1.395 . S
C221 H198 0.950 . S
C221 C220 1.395 . S
C221 C222 1.288 . S
C222 C221 1.288 . S
C222 C223 1.392 . S
C223 H199 0.951 . S
C223 C222 1.392 . S
C223 C224 1.392 . S
C224 H200 0.949 . S
C224 C219 1.382 . S
C224 C223 1.392 . S
C225 C226 1.376 . S
C225 C230 1.386 . S
C225 C231 1.483 . S
C226 H201 0.949 . S
C226 C225 1.376 . S
C226 C227 1.397 . S
C227 H202 0.950 . S
C227 C226 1.397 . S
C227 C228 1.391 . S
C228 C227 1.391 . S
C228 C229 1.405 . S
C229 H203 0.950 . S
C229 C228 1.405 . S
C229 C230 1.367 . S
C230 H204 0.950 . S
C230 C225 1.386 . S
C230 C229 1.367 . S
C231 C225 1.483 . S
C231 C232 1.382 . S
C231 C233 1.403 . S
C232 H205 0.950 . S
C232 C218 1.411 . S
C232 C231 1.382 . S
C233 C217 1.411 . S
C233 C231 1.403 . S
C233 C234 1.489 . S
C234 C233 1.489 . S
C234 C235 1.383 . S
C234 C239 1.382 . S
C235 H206 0.950 . S
C235 C234 1.383 . S
C235 C236 1.395 . S
C236 H207 0.950 . S
C236 C235 1.395 . S
C236 C237 1.288 . S
C237 C236 1.288 . S
C237 C238 1.392 . S
C238 H208 0.951 . S
C238 C237 1.392 . S
C238 C239 1.392 . S
C239 H209 0.949 . S
C239 C234 1.382 . S
C239 C238 1.392 . S
H240 C259 0.949 . S
H241 C260 0.950 . S
H242 C262 0.950 . S
H243 C263 0.950 . S
H244 C265 0.950 . S
H245 C268 0.950 . S
H246 C269 0.950 . S
H247 C271 0.951 . S
H248 C272 0.949 . S
H249 C274 0.949 . S
H250 C275 0.950 . S
H251 C277 0.950 . S
H252 C278 0.950 . S
H253 C280 0.950 . S
H254 C283 0.950 . S
H255 C284 0.950 . S
H256 C286 0.951 . S
H257 C287 0.949 . S
C258 C259 1.376 . S
C258 C263 1.386 . S
C258 C264 1.483 . S
C259 H240 0.949 . S
C259 C258 1.376 . S
C259 C260 1.397 . S
C260 H241 0.950 . S
C260 C259 1.397 . S
C260 C261 1.391 . S
C261 C260 1.391 . S
C261 C262 1.405 . S
C262 H242 0.950 . S
C262 C261 1.405 . S
C262 C263 1.367 . S
C263 H243 0.950 . S
C263 C258 1.386 . S
C263 C262 1.367 . S
C264 C258 1.483 . S
C264 C265 1.382 . S
C264 C266 1.403 . S
C265 H244 0.950 . S
C265 C264 1.382 . S
C265 C281 1.411 . S
C266 C264 1.403 . S
C266 C267 1.489 . S
C266 C280 1.411 . S
C267 C266 1.489 . S
C267 C268 1.383 . S
C267 C272 1.382 . S
C268 H245 0.950 . S
C268 C267 1.383 . S
C268 C269 1.395 . S
C269 H246 0.950 . S
C269 C268 1.395 . S
C269 C270 1.288 . S
C270 C269 1.288 . S
C270 C271 1.392 . S
C271 H247 0.951 . S
C271 C270 1.392 . S
C271 C272 1.392 . S
C272 H248 0.949 . S
C272 C267 1.382 . S
C272 C271 1.392 . S
C273 C274 1.376 . S
C273 C278 1.386 . S
C273 C279 1.483 . S
C274 H249 0.949 . S
C274 C273 1.376 . S
C274 C275 1.397 . S
C275 H250 0.950 . S
C275 C274 1.397 . S
C275 C276 1.391 . S
C276 C275 1.391 . S
C276 C277 1.405 . S
C277 H251 0.950 . S
C277 C276 1.405 . S
C277 C278 1.367 . S
C278 H252 0.950 . S
C278 C273 1.386 . S
C278 C277 1.367 . S
C279 C273 1.483 . S
C279 C280 1.382 . S
C279 C281 1.403 . S
C280 H253 0.950 . S
C280 C266 1.411 . S
C280 C279 1.382 . S
C281 C265 1.411 . S
C281 C279 1.403 . S
C281 C282 1.489 . S
C282 C281 1.489 . S
C282 C283 1.383 . S
C282 C287 1.382 . S
C283 H254 0.950 . S
C283 C282 1.383 . S
C283 C284 1.395 . S
C284 H255 0.950 . S
C284 C283 1.395 . S
C284 C285 1.288 . S
C285 C284 1.288 . S
C285 C286 1.392 . S
C286 H256 0.951 . S
C286 C285 1.392 . S
C286 C287 1.392 . S
C287 H257 0.949 . S
C287 C282 1.382 . S
C287 C286 1.392 . S
H288 C307 0.949 . S
H289 C308 0.950 . S
H290 C310 0.950 . S
H291 C311 0.950 . S
H292 C313 0.950 . S
H293 C316 0.950 . S
H294 C317 0.950 . S
H295 C319 0.951 . S
H296 C320 0.949 . S
H297 C322 0.949 . S
H298 C323 0.950 . S
H299 C325 0.950 . S
H300 C326 0.950 . S
H301 C328 0.950 . S
H302 C331 0.950 . S
H303 C332 0.950 . S
H304 C334 0.951 . S
H305 C335 0.949 . S
C306 C307 1.376 . S
C306 C311 1.386 . S
C306 C312 1.483 . S
C307 H288 0.949 . S
C307 C306 1.376 . S
C307 C308 1.397 . S
C308 H289 0.950 . S
C308 C307 1.397 . S
C308 C309 1.391 . S
C309 C308 1.391 . S
C309 C310 1.405 . S
C310 H290 0.950 . S
C310 C309 1.405 . S
C310 C311 1.367 . S
C311 H291 0.950 . S
C311 C306 1.386 . S
C311 C310 1.367 . S
C312 C306 1.483 . S
C312 C313 1.382 . S
C312 C314 1.403 . S
C313 H292 0.950 . S
C313 C312 1.382 . S
C313 C329 1.411 . S
C314 C312 1.403 . S
C314 C315 1.489 . S
C314 C328 1.411 . S
C315 C314 1.489 . S
C315 C316 1.383 . S
C315 C320 1.382 . S
C316 H293 0.950 . S
C316 C315 1.383 . S
C316 C317 1.395 . S
C317 H294 0.950 . S
C317 C316 1.395 . S
C317 C318 1.288 . S
C318 C317 1.288 . S
C318 C319 1.392 . S
C319 H295 0.951 . S
C319 C318 1.392 . S
C319 C320 1.392 . S
C320 H296 0.949 . S
C320 C315 1.382 . S
C320 C319 1.392 . S
C321 C322 1.376 . S
C321 C326 1.386 . S
C321 C327 1.483 . S
C322 H297 0.949 . S
C322 C321 1.376 . S
C322 C323 1.397 . S
C323 H298 0.950 . S
C323 C322 1.397 . S
C323 C324 1.391 . S
C324 C323 1.391 . S
C324 C325 1.405 . S
C325 H299 0.950 . S
C325 C324 1.405 . S
C325 C326 1.367 . S
C326 H300 0.950 . S
C326 C321 1.386 . S
C326 C325 1.367 . S
C327 C321 1.483 . S
C327 C328 1.382 . S
C327 C329 1.403 . S
C328 H301 0.950 . S
C328 C314 1.411 . S
C328 C327 1.382 . S
C329 C313 1.411 . S
C329 C327 1.403 . S
C329 C330 1.489 . S
C330 C329 1.489 . S
C330 C331 1.383 . S
C330 C335 1.382 . S
C331 H302 0.950 . S
C331 C330 1.383 . S
C331 C332 1.395 . S
C332 H303 0.950 . S
C332 C331 1.395 . S
C332 C333 1.288 . S
C333 C332 1.288 . S
C333 C334 1.392 . S
C334 H304 0.951 . S
C334 C333 1.392 . S
C334 C335 1.392 . S
C335 H305 0.949 . S
C335 C330 1.382 . S
C335 C334 1.392 . S
H336 C355 0.949 . S
H337 C356 0.950 . S
H338 C358 0.950 . S
H339 C359 0.950 . S
H340 C361 0.950 . S
H341 C364 0.950 . S
H342 C365 0.950 . S
H343 C367 0.951 . S
H344 C368 0.949 . S
H345 C370 0.949 . S
H346 C371 0.950 . S
H347 C373 0.950 . S
H348 C374 0.950 . S
H349 C376 0.950 . S
H350 C379 0.950 . S
H351 C380 0.950 . S
H352 C382 0.951 . S
H353 C383 0.949 . S
C354 C355 1.376 . S
C354 C359 1.386 . S
C354 C360 1.483 . S
C355 H336 0.949 . S
C355 C354 1.376 . S
C355 C356 1.397 . S
C356 H337 0.950 . S
C356 C355 1.397 . S
C356 C357 1.391 . S
C357 C356 1.391 . S
C357 C358 1.405 . S
C358 H338 0.950 . S
C358 C357 1.405 . S
C358 C359 1.367 . S
C359 H339 0.950 . S
C359 C354 1.386 . S
C359 C358 1.367 . S
C360 C354 1.483 . S
C360 C361 1.382 . S
C360 C362 1.403 . S
C361 H340 0.950 . S
C361 C360 1.382 . S
C361 C377 1.411 . S
C362 C360 1.403 . S
C362 C363 1.489 . S
C362 C376 1.411 . S
C363 C362 1.489 . S
C363 C364 1.383 . S
C363 C368 1.382 . S
C364 H341 0.950 . S
C364 C363 1.383 . S
C364 C365 1.395 . S
C365 H342 0.950 . S
C365 C364 1.395 . S
C365 C366 1.288 . S
C366 C365 1.288 . S
C366 C367 1.392 . S
C367 H343 0.951 . S
C367 C366 1.392 . S
C367 C368 1.392 . S
C368 H344 0.949 . S
C368 C363 1.382 . S
C368 C367 1.392 . S
C369 C370 1.376 . S
C369 C374 1.386 . S
C369 C375 1.483 . S
C370 H345 0.949 . S
C370 C369 1.376 . S
C370 C371 1.397 . S
C371 H346 0.950 . S
C371 C370 1.397 . S
C371 C372 1.391 . S
C372 C371 1.391 . S
C372 C373 1.405 . S
C373 H347 0.950 . S
C373 C372 1.405 . S
C373 C374 1.367 . S
C374 H348 0.950 . S
C374 C369 1.386 . S
C374 C373 1.367 . S
C375 C369 1.483 . S
C375 C376 1.382 . S
C375 C377 1.403 . S
C376 H349 0.950 . S
C376 C362 1.411 . S
C376 C375 1.382 . S
C377 C361 1.411 . S
C377 C375 1.403 . S
C377 C378 1.489 . S
C378 C377 1.489 . S
C378 C379 1.383 . S
C378 C383 1.382 . S
C379 H350 0.950 . S
C379 C378 1.383 . S
C379 C380 1.395 . S
C380 H351 0.950 . S
C380 C379 1.395 . S
C380 C381 1.288 . S
C381 C380 1.288 . S
C381 C382 1.392 . S
C382 H352 0.951 . S
C382 C381 1.392 . S
C382 C383 1.392 . S
C383 H353 0.949 . S
C383 C378 1.382 . S
C383 C382 1.392 . S
C384 C385 1.443 . S
C384 N388 1.376 . S
C384 C422 1.389 . S
C385 C384 1.443 . S
C385 C386 1.340 . S
C385 H425 0.951 . S
C386 C385 1.340 . S
C386 C387 1.439 . S
C386 H426 0.950 . S
C387 C386 1.439 . S
C387 N388 1.374 . S
C387 C421 1.395 . S
N388 C384 1.376 . S
N388 C387 1.374 . S
N388 Co389 2.008 . S
Co389 N388 2.008 . S
Co389 N390 1.995 1_455 S
Co389 N395 2.008 1_455 S
Co389 N400 1.995 . S
Co389 N405 2.282 1_455 S
Co389 N411 2.282 . S
N390 Co389 1.995 1_655 S
N390 C391 1.376 . S
N390 C394 1.383 . S
C391 N390 1.376 . S
C391 C392 1.446 . S
C391 C421 1.391 1_655 S
C392 C391 1.446 . S
C392 C393 1.339 . S
C392 H427 0.949 . S
C393 C392 1.339 . S
C393 C394 1.439 . S
C393 H428 0.950 . S
C394 N390 1.383 . S
C394 C393 1.439 . S
C394 C423 1.392 . S
N395 Co389 2.008 1_655 S
N395 C396 1.376 . S
N395 C399 1.374 . S
C396 N395 1.376 . S
C396 C397 1.443 . S
C396 C423 1.389 . S
C397 C396 1.443 . S
C397 C398 1.340 . S
C397 H429 0.951 . S
C398 C397 1.340 . S
C398 C399 1.439 . S
C398 H430 0.950 . S
C399 N395 1.374 . S
C399 C398 1.439 . S
C399 C424 1.405 . S
N400 Co389 1.995 . S
N400 C401 1.376 . S
N400 C404 1.383 . S
C401 N400 1.376 . S
C401 C402 1.446 . S
C401 C424 1.381 1_455 S
C402 C401 1.446 . S
C402 C403 1.339 . S
C402 H431 0.949 . S
C403 C402 1.339 . S
C403 C404 1.439 . S
C403 H432 0.950 . S
C404 N400 1.383 . S
C404 C403 1.439 . S
C404 C422 1.392 . S
N405 Co389 2.282 1_655 S
N405 C408 1.332 . S
N405 C410 1.332 . S
C406 C407 1.386 . S
C406 C409 1.388 . S
C407 C406 1.386 . S
C407 C408 1.382 . S
C407 H433 0.950 . S
C408 N405 1.332 . S
C408 C407 1.382 . S
C408 H419 0.952 . S
C409 C406 1.388 . S
C409 C410 1.382 . S
C409 H434 0.950 . S
C410 N405 1.332 . S
C410 C409 1.382 . S
C410 H420 0.948 . S
N411 Co389 2.282 . S
N411 C415 1.332 . S
N411 C416 1.332 . S
C412 C413 1.388 . S
C412 C416 1.382 . S
C412 H435 0.950 . S
C413 C412 1.388 . S
C413 C414 1.386 . S
C414 C413 1.386 . S
C414 C415 1.382 . S
C414 H436 0.950 . S
C415 N411 1.332 . S
C415 C414 1.382 . S
C415 H417 0.952 . S
C416 N411 1.332 . S
C416 C412 1.382 . S
C416 H418 0.948 . S
H417 C415 0.952 . S
H418 C416 0.948 . S
H419 C408 0.952 . S
H420 C410 0.948 . S
C421 C387 1.395 . S
C421 C391 1.391 1_455 S
C422 C384 1.389 . S
C422 C404 1.392 . S
C423 C394 1.392 . S
C423 C396 1.389 . S
C424 C399 1.405 . S
C424 C401 1.381 1_655 S
H425 C385 0.951 . S
H426 C386 0.950 . S
H427 C392 0.949 . S
H428 C393 0.950 . S
H429 C397 0.951 . S
H430 C398 0.950 . S
H431 C402 0.949 . S
H432 C403 0.950 . S
H433 C407 0.950 . S
H434 C409 0.950 . S
H435 C412 0.950 . S
H436 C414 0.950 . S
C437 C438 1.443 . S
C437 N441 1.376 . S
C437 C475 1.389 . S
C438 C437 1.443 . S
C438 C439 1.340 . S
C438 H478 0.951 . S
C439 C438 1.340 . S
C439 C440 1.439 . S
C439 H479 0.950 . S
C440 C439 1.439 . S
C440 N441 1.374 . S
C440 C474 1.395 . S
N441 C437 1.376 . S
N441 C440 1.374 . S
N441 Co442 2.008 . S
Co442 N441 2.008 . S
Co442 N443 1.995 1_545 S
Co442 N448 2.008 1_545 S
Co442 N453 1.995 . S
Co442 N458 2.282 1_545 S
Co442 N464 2.282 . S
N443 Co442 1.995 1_565 S
N443 C444 1.376 . S
N443 C447 1.383 . S
C444 N443 1.376 . S
C444 C445 1.446 . S
C444 C474 1.391 1_565 S
C445 C444 1.446 . S
C445 C446 1.339 . S
C445 H480 0.949 . S
C446 C445 1.339 . S
C446 C447 1.439 . S
C446 H481 0.950 . S
C447 N443 1.383 . S
C447 C446 1.439 . S
C447 C476 1.392 . S
N448 Co442 2.008 1_565 S
N448 C449 1.376 . S
N448 C452 1.374 . S
C449 N448 1.376 . S
C449 C450 1.443 . S
C449 C476 1.389 . S
C450 C449 1.443 . S
C450 C451 1.340 . S
C450 H482 0.951 . S
C451 C450 1.340 . S
C451 C452 1.439 . S
C451 H483 0.950 . S
C452 N448 1.374 . S
C452 C451 1.439 . S
C452 C477 1.397 1_565 S
N453 Co442 1.995 . S
N453 C454 1.376 . S
N453 C457 1.383 . S
C454 N453 1.376 . S
C454 C455 1.446 . S
C454 C477 1.389 . S
C455 C454 1.446 . S
C455 C456 1.339 . S
C455 H484 0.949 . S
C456 C455 1.339 . S
C456 C457 1.439 . S
C456 H485 0.950 . S
C457 N453 1.383 . S
C457 C456 1.439 . S
C457 C475 1.392 . S
N458 Co442 2.282 1_565 S
N458 C461 1.332 . S
N458 C463 1.332 . S
C459 C460 1.386 . S
C459 C462 1.388 . S
C460 C459 1.386 . S
C460 C461 1.382 . S
C460 H486 0.950 . S
C461 N458 1.332 . S
C461 C460 1.382 . S
C461 H472 0.952 . S
C462 C459 1.388 . S
C462 C463 1.382 . S
C462 H487 0.950 . S
C463 N458 1.332 . S
C463 C462 1.382 . S
C463 H473 0.948 . S
N464 Co442 2.282 . S
N464 C468 1.332 . S
N464 C469 1.332 . S
C465 C466 1.388 . S
C465 C469 1.382 . S
C465 H488 0.950 . S
C466 C465 1.388 . S
C466 C467 1.386 . S
C467 C466 1.386 . S
C467 C468 1.382 . S
C467 H489 0.950 . S
C468 N464 1.332 . S
C468 C467 1.382 . S
C468 H470 0.952 . S
C469 N464 1.332 . S
C469 C465 1.382 . S
C469 H471 0.948 . S
H470 C468 0.952 . S
H471 C469 0.948 . S
H472 C461 0.952 . S
H473 C463 0.948 . S
C474 C440 1.395 . S
C474 C444 1.391 1_545 S
C475 C437 1.389 . S
C475 C457 1.392 . S
C476 C447 1.392 . S
C476 C449 1.389 . S
C477 C452 1.397 1_545 S
C477 C454 1.389 . S
H478 C438 0.951 . S
H479 C439 0.950 . S
H480 C445 0.949 . S
H481 C446 0.950 . S
H482 C450 0.951 . S
H483 C451 0.950 . S
H484 C455 0.949 . S
H485 C456 0.950 . S
H486 C460 0.950 . S
H487 C462 0.950 . S
H488 C465 0.950 . S
H489 C467 0.950 . S
C490 C491 1.443 . S
C490 N494 1.376 . S
C490 C528 1.389 . S
C491 C490 1.443 . S
C491 C492 1.340 . S
C491 H531 0.951 . S
C492 C491 1.340 . S
C492 C493 1.439 . S
C492 H532 0.950 . S
C493 C492 1.439 . S
C493 N494 1.374 . S
C493 C527 1.395 . S
N494 C490 1.376 . S
N494 C493 1.374 . S
N494 Co495 2.008 . S
Co495 N494 2.008 . S
Co495 N496 1.995 1_455 S
Co495 N501 2.008 1_455 S
Co495 N506 1.995 . S
Co495 N511 2.282 1_455 S
Co495 N517 2.282 . S
N496 Co495 1.995 1_655 S
N496 C497 1.376 . S
N496 C500 1.383 . S
C497 N496 1.376 . S
C497 C498 1.446 . S
C497 C527 1.391 1_655 S
C498 C497 1.446 . S
C498 C499 1.339 . S
C498 H533 0.949 . S
C499 C498 1.339 . S
C499 C500 1.439 . S
C499 H534 0.950 . S
C500 N496 1.383 . S
C500 C499 1.439 . S
C500 C529 1.392 . S
N501 Co495 2.008 1_655 S
N501 C502 1.376 . S
N501 C505 1.374 . S
C502 N501 1.376 . S
C502 C503 1.443 . S
C502 C529 1.389 . S
C503 C502 1.443 . S
C503 C504 1.340 . S
C503 H535 0.951 . S
C504 C503 1.340 . S
C504 C505 1.439 . S
C504 H536 0.950 . S
C505 N501 1.374 . S
C505 C504 1.439 . S
C505 C530 1.395 . S
N506 Co495 1.995 . S
N506 C507 1.376 . S
N506 C510 1.383 . S
C507 N506 1.376 . S
C507 C508 1.446 . S
C507 C530 1.391 1_455 S
C508 C507 1.446 . S
C508 C509 1.339 . S
C508 H537 0.949 . S
C509 C508 1.339 . S
C509 C510 1.439 . S
C509 H538 0.950 . S
C510 N506 1.383 . S
C510 C509 1.439 . S
C510 C528 1.392 . S
N511 Co495 2.282 1_655 S
N511 C514 1.332 . S
N511 C516 1.332 . S
C512 C513 1.386 . S
C512 C515 1.388 . S
C513 C512 1.386 . S
C513 C514 1.382 . S
C513 H539 0.950 . S
C514 N511 1.332 . S
C514 C513 1.382 . S
C514 H525 0.952 . S
C515 C512 1.388 . S
C515 C516 1.382 . S
C515 H540 0.950 . S
C516 N511 1.332 . S
C516 C515 1.382 . S
C516 H526 0.948 . S
N517 Co495 2.282 . S
N517 C521 1.332 . S
N517 C522 1.332 . S
C518 C519 1.388 . S
C518 C522 1.382 . S
C518 H541 0.950 . S
C519 C518 1.388 . S
C519 C520 1.386 . S
C520 C519 1.386 . S
C520 C521 1.382 . S
C520 H542 0.950 . S
C521 N517 1.332 . S
C521 C520 1.382 . S
C521 H523 0.952 . S
C522 N517 1.332 . S
C522 C518 1.382 . S
C522 H524 0.948 . S
H523 C521 0.952 . S
H524 C522 0.948 . S
H525 C514 0.952 . S
H526 C516 0.948 . S
C527 C493 1.395 . S
C527 C497 1.391 1_455 S
C528 C490 1.389 . S
C528 C510 1.392 . S
C529 C500 1.392 . S
C529 C502 1.389 . S
C530 C505 1.395 . S
C530 C507 1.391 1_655 S
H531 C491 0.951 . S
H532 C492 0.950 . S
H533 C498 0.949 . S
H534 C499 0.950 . S
H535 C503 0.951 . S
H536 C504 0.950 . S
H537 C508 0.949 . S
H538 C509 0.950 . S
H539 C513 0.950 . S
H540 C515 0.950 . S
H541 C518 0.950 . S
H542 C520 0.950 . S
C543 C544 1.443 . S
C543 N547 1.376 . S
C543 C581 1.389 . S
C544 C543 1.443 . S
C544 C545 1.340 . S
C544 H584 0.951 . S
C545 C544 1.340 . S
C545 C546 1.439 . S
C545 H585 0.950 . S
C546 C545 1.439 . S
C546 N547 1.374 . S
C546 C580 1.410 . S
N547 C543 1.376 . S
N547 C546 1.374 . S
N547 Co548 2.008 1_565 S
Co548 N547 2.008 1_545 S
Co548 N549 1.995 . S
Co548 N554 2.008 . S
Co548 N559 1.995 1_545 S
Co548 N564 2.282 . S
Co548 N570 2.282 1_545 S
N549 Co548 1.995 . S
N549 C550 1.376 . S
N549 C553 1.383 . S
C550 N549 1.376 . S
C550 C551 1.446 . S
C550 C580 1.375 1_545 S
C551 C550 1.446 . S
C551 C552 1.339 . S
C551 H586 0.949 . S
C552 C551 1.339 . S
C552 C553 1.439 . S
C552 H587 0.950 . S
C553 N549 1.383 . S
C553 C552 1.439 . S
C553 C582 1.392 . S
N554 Co548 2.008 . S
N554 C555 1.376 . S
N554 C558 1.374 . S
C555 N554 1.376 . S
C555 C556 1.443 . S
C555 C582 1.389 . S
C556 C555 1.443 . S
C556 C557 1.340 . S
C556 H588 0.951 . S
C557 C556 1.340 . S
C557 C558 1.439 . S
C557 H589 0.950 . S
C558 N554 1.374 . S
C558 C557 1.439 . S
C558 C583 1.395 . S
N559 Co548 1.995 1_565 S
N559 C560 1.376 . S
N559 C563 1.383 . S
C560 N559 1.376 . S
C560 C561 1.446 . S
C560 C583 1.391 1_565 S
C561 C560 1.446 . S
C561 C562 1.339 . S
C561 H590 0.949 . S
C562 C561 1.339 . S
C562 C563 1.439 . S
C562 H591 0.950 . S
C563 N559 1.383 . S
C563 C562 1.439 . S
C563 C581 1.392 . S
N564 Co548 2.282 . S
N564 C567 1.332 . S
N564 C569 1.332 . S
C565 C566 1.386 . S
C565 C568 1.388 . S
C566 C565 1.386 . S
C566 C567 1.382 . S
C566 H592 0.950 . S
C567 N564 1.332 . S
C567 C566 1.382 . S
C567 H578 0.952 . S
C568 C565 1.388 . S
C568 C569 1.382 . S
C568 H593 0.950 . S
C569 N564 1.332 . S
C569 C568 1.382 . S
C569 H579 0.948 . S
N570 Co548 2.282 1_565 S
N570 C574 1.332 . S
N570 C575 1.332 . S
C571 C572 1.388 . S
C571 C575 1.382 . S
C571 H594 0.950 . S
C572 C571 1.388 . S
C572 C573 1.386 . S
C573 C572 1.386 . S
C573 C574 1.382 . S
C573 H595 0.950 . S
C574 N570 1.332 . S
C574 C573 1.382 . S
C574 H576 0.952 . S
C575 N570 1.332 . S
C575 C571 1.382 . S
C575 H577 0.948 . S
H576 C574 0.952 . S
H577 C575 0.948 . S
H578 C567 0.952 . S
H579 C569 0.948 . S
C580 C546 1.410 . S
C580 C550 1.375 1_565 S
C581 C543 1.389 . S
C581 C563 1.392 . S
C582 C553 1.392 . S
C582 C555 1.389 . S
C583 C558 1.395 . S
C583 C560 1.391 1_545 S
H584 C544 0.951 . S
H585 C545 0.950 . S
H586 C551 0.949 . S
H587 C552 0.950 . S
H588 C556 0.951 . S
H589 C557 0.950 . S
H590 C561 0.949 . S
H591 C562 0.950 . S
H592 C566 0.950 . S
H593 C568 0.950 . S
H594 C571 0.950 . S
H595 C573 0.950 . S
C596 C597 1.443 . S
C596 N600 1.376 . S
C596 C634 1.389 . S
C597 C596 1.443 . S
C597 C598 1.340 . S
C597 H637 0.951 . S
C598 C597 1.340 . S
C598 C599 1.439 . S
C598 H638 0.950 . S
C599 C598 1.439 . S
C599 N600 1.374 . S
C599 C633 1.395 1_554 S
N600 C596 1.376 . S
N600 C599 1.374 . S
N600 Co601 2.015 . S
Co601 N600 2.015 . S
Co601 N602 1.987 1_554 S
Co601 N607 2.002 1_554 S
Co601 N612 2.002 . S
Co601 N617 2.293 . S
Co601 N623 2.272 1_554 S
N602 Co601 1.987 1_556 S
N602 C603 1.376 . S
N602 C606 1.383 . S
C603 N602 1.376 . S
C603 C604 1.446 . S
C603 C633 1.391 . S
C604 C603 1.446 . S
C604 C605 1.339 . S
C604 H639 0.949 . S
C605 C604 1.339 . S
C605 C606 1.439 . S
C605 H640 0.950 . S
C606 N602 1.383 . S
C606 C605 1.439 . S
C606 C635 1.392 . S
N607 Co601 2.002 1_556 S
N607 C608 1.376 . S
N607 C611 1.374 . S
C608 N607 1.376 . S
C608 C609 1.443 . S
C608 C635 1.389 . S
C609 C608 1.443 . S
C609 C610 1.340 . S
C609 H641 0.951 . S
C610 C609 1.340 . S
C610 C611 1.439 . S
C610 H642 0.950 . S
C611 N607 1.374 . S
C611 C610 1.439 . S
C611 C636 1.395 1_556 S
N612 Co601 2.002 . S
N612 C613 1.376 . S
N612 C616 1.383 . S
C613 N612 1.376 . S
C613 C614 1.446 . S
C613 C636 1.391 . S
C614 C613 1.446 . S
C614 C615 1.339 . S
C614 H643 0.949 . S
C615 C614 1.339 . S
C615 C616 1.439 . S
C615 H644 0.950 . S
C616 N612 1.383 . S
C616 C615 1.439 . S
C616 C634 1.392 . S
N617 Co601 2.293 . S
N617 C620 1.332 . S
N617 C622 1.332 . S
C618 C619 1.386 . S
C618 C621 1.388 . S
C619 C618 1.386 . S
C619 C620 1.382 . S
C619 H645 0.950 . S
C620 N617 1.332 . S
C620 C619 1.382 . S
C620 H631 0.952 . S
C621 C618 1.388 . S
C621 C622 1.382 . S
C621 H646 0.950 . S
C622 N617 1.332 . S
C622 C621 1.382 . S
C622 H632 0.948 . S
N623 Co601 2.272 1_556 S
N623 C627 1.332 . S
N623 C628 1.332 . S
C624 C625 1.388 . S
C624 C628 1.382 . S
C624 H647 0.950 . S
C625 C624 1.388 . S
C625 C626 1.386 . S
C626 C625 1.386 . S
C626 C627 1.382 . S
C626 H648 0.950 . S
C627 N623 1.332 . S
C627 C626 1.382 . S
C627 H629 0.952 . S
C628 N623 1.332 . S
C628 C624 1.382 . S
C628 H630 0.948 . S
H629 C627 0.952 . S
H630 C628 0.948 . S
H631 C620 0.952 . S
H632 C622 0.948 . S
C633 C599 1.395 1_556 S
C633 C603 1.391 . S
C634 C596 1.389 . S
C634 C616 1.392 . S
C635 C606 1.392 . S
C635 C608 1.389 . S
C636 C611 1.395 1_554 S
C636 C613 1.391 . S
H637 C597 0.951 . S
H638 C598 0.950 . S
H639 C604 0.949 . S
H640 C605 0.950 . S
H641 C609 0.951 . S
H642 C610 0.950 . S
H643 C614 0.949 . S
H644 C615 0.950 . S
H645 C619 0.950 . S
H646 C621 0.950 . S
H647 C624 0.950 . S
H648 C626 0.950 . S
C649 C650 1.443 . S
C649 N653 1.376 . S
C649 C687 1.389 . S
C650 C649 1.443 . S
C650 C651 1.340 . S
C650 H690 0.951 . S
C651 C650 1.340 . S
C651 C652 1.439 . S
C651 H691 0.950 . S
C652 C651 1.439 . S
C652 N653 1.374 . S
C652 C686 1.395 . S
N653 C649 1.376 . S
N653 C652 1.374 . S
N653 Co654 2.008 . S
Co654 N653 2.008 . S
Co654 N655 1.995 1_554 S
Co654 N660 2.023 . S
Co654 N665 1.995 . S
Co654 N670 2.282 . S
Co654 N676 2.282 1_554 S
N655 Co654 1.995 1_556 S
N655 C656 1.376 . S
N655 C659 1.383 . S
C656 N655 1.376 . S
C656 C657 1.446 . S
C656 C686 1.391 1_556 S
C657 C656 1.446 . S
C657 C658 1.339 . S
C657 H692 0.949 . S
C658 C657 1.339 . S
C658 C659 1.439 . S
C658 H693 0.950 . S
C659 N655 1.383 . S
C659 C658 1.439 . S
C659 C688 1.392 . S
N660 Co654 2.023 . S
N660 C661 1.357 1_554 S
N660 C664 1.381 . S
C661 N660 1.357 1_556 S
C661 C662 1.443 . S
C661 C688 1.389 . S
C662 C661 1.443 . S
C662 C663 1.340 . S
C662 H694 0.951 . S
C663 C662 1.340 . S
C663 C664 1.439 1_556 S
C663 H695 0.950 . S
C664 N660 1.381 . S
C664 C663 1.439 1_554 S
C664 C689 1.395 . S
N665 Co654 1.995 . S
N665 C666 1.376 . S
N665 C669 1.383 . S
C666 N665 1.376 . S
C666 C667 1.446 . S
C666 C689 1.391 . S
C667 C666 1.446 . S
C667 C668 1.339 . S
C667 H696 0.949 . S
C668 C667 1.339 . S
C668 C669 1.439 . S
C668 H697 0.950 . S
C669 N665 1.383 . S
C669 C668 1.439 . S
C669 C687 1.392 . S
N670 Co654 2.282 . S
N670 C673 1.332 . S
N670 C675 1.332 . S
C671 C672 1.386 . S
C671 C674 1.388 . S
C672 C671 1.386 . S
C672 C673 1.382 . S
C672 H698 0.950 . S
C673 N670 1.332 . S
C673 C672 1.382 . S
C673 H684 0.952 . S
C674 C671 1.388 . S
C674 C675 1.382 . S
C674 H699 0.950 . S
C675 N670 1.332 . S
C675 C674 1.382 . S
C675 H685 0.948 . S
N676 Co654 2.282 1_556 S
N676 C680 1.332 . S
N676 C681 1.332 . S
C677 C678 1.388 . S
C677 C681 1.382 . S
C677 H700 0.950 . S
C678 C677 1.388 . S
C678 C679 1.386 . S
C679 C678 1.386 . S
C679 C680 1.382 . S
C679 H701 0.950 . S
C680 N676 1.332 . S
C680 C679 1.382 . S
C680 H682 0.952 . S
C681 N676 1.332 . S
C681 C677 1.382 . S
C681 H683 0.948 . S
H682 C680 0.952 . S
H683 C681 0.948 . S
H684 C673 0.952 . S
H685 C675 0.948 . S
C686 C652 1.395 . S
C686 C656 1.391 1_554 S
C687 C649 1.389 . S
C687 C669 1.392 . S
C688 C659 1.392 . S
C688 C661 1.389 . S
C689 C664 1.395 . S
C689 C666 1.391 . S
H690 C650 0.951 . S
H691 C651 0.950 . S
H692 C657 0.949 . S
H693 C658 0.950 . S
H694 C662 0.951 . S
H695 C663 0.950 . S
H696 C667 0.949 . S
H697 C668 0.950 . S
H698 C672 0.950 . S
H699 C674 0.950 . S
H700 C677 0.950 . S
H701 C679 0.950 . S
C702 C703 1.443 . S
C702 N706 1.376 1_556 S
C702 C740 1.389 . S
C703 C702 1.443 . S
C703 C704 1.340 1_556 S
C703 H743 0.951 . S
C704 C703 1.340 1_554 S
C704 C705 1.439 . S
C704 H744 0.950 . S
C705 C704 1.439 . S
C705 N706 1.374 . S
C705 C739 1.395 . S
N706 C702 1.376 1_554 S
N706 C705 1.374 . S
N706 Co707 2.008 . S
Co707 N706 2.008 . S
Co707 N708 1.995 . S
Co707 N713 2.008 . S
Co707 N718 2.006 . S
Co707 N723 2.282 1_554 S
Co707 N729 2.282 . S
N708 Co707 1.995 . S
N708 C709 1.376 . S
N708 C712 1.383 . S
C709 N708 1.376 . S
C709 C710 1.446 . S
C709 C739 1.391 . S
C710 C709 1.446 . S
C710 C711 1.339 . S
C710 H745 0.949 . S
C711 C710 1.339 . S
C711 C712 1.439 . S
C711 H746 0.950 . S
C712 N708 1.383 . S
C712 C711 1.439 . S
C712 C741 1.392 . S
N713 Co707 2.008 . S
N713 C714 1.376 . S
N713 C717 1.374 . S
C714 N713 1.376 . S
C714 C715 1.443 . S
C714 C741 1.389 . S
C715 C714 1.443 . S
C715 C716 1.340 . S
C715 H747 0.951 . S
C716 C715 1.340 . S
C716 C717 1.439 . S
C716 H748 0.950 . S
C717 N713 1.374 . S
C717 C716 1.439 . S
C717 C742 1.395 . S
N718 Co707 2.006 . S
N718 C719 1.376 1_554 S
N718 C722 1.371 1_554 S
C719 N718 1.376 1_556 S
C719 C720 1.457 . S
C719 C742 1.381 1_556 S
C720 C719 1.457 . S
C720 C721 1.339 . S
C720 H749 0.949 . S
C721 C720 1.339 . S
C721 C722 1.439 . S
C721 H750 0.950 . S
C722 N718 1.371 1_556 S
C722 C721 1.439 . S
C722 C740 1.392 . S
N723 Co707 2.282 1_556 S
N723 C726 1.332 . S
N723 C728 1.332 . S
C724 C725 1.386 . S
C724 C727 1.388 . S
C725 C724 1.386 . S
C725 C726 1.382 . S
C725 H751 0.950 . S
C726 N723 1.332 . S
C726 C725 1.382 . S
C726 H737 0.952 . S
C727 C724 1.388 . S
C727 C728 1.382 . S
C727 H752 0.950 . S
C728 N723 1.332 . S
C728 C727 1.382 . S
C728 H738 0.955 . S
N729 Co707 2.282 . S
N729 C733 1.332 . S
N729 C734 1.332 . S
C730 C731 1.388 . S
C730 C734 1.382 . S
C730 H753 0.950 . S
C731 C730 1.388 . S
C731 C732 1.386 . S
C732 C731 1.386 . S
C732 C733 1.382 . S
C732 H754 0.950 . S
C733 N729 1.332 . S
C733 C732 1.382 . S
C733 H735 0.952 . S
C734 N729 1.332 . S
C734 C730 1.382 . S
C734 H736 0.948 . S
H735 C733 0.952 . S
H736 C734 0.948 . S
H737 C726 0.952 . S
H738 C728 0.955 . S
C739 C705 1.395 . S
C739 C709 1.391 . S
C740 C702 1.389 . S
C740 C722 1.392 . S
C741 C712 1.392 . S
C741 C714 1.389 . S
C742 C717 1.395 . S
C742 C719 1.381 1_554 S
H743 C703 0.951 . S
H744 C704 0.950 . S
H745 C710 0.949 . S
H746 C711 0.950 . S
H747 C715 0.951 . S
H748 C716 0.950 . S
H749 C720 0.949 . S
H750 C721 0.950 . S
H751 C725 0.950 . S
H752 C727 0.950 . S
H753 C730 0.950 . S
H754 C732 0.950 . S
C755 C756 1.443 . S
C755 N759 1.376 . S
C755 C793 1.389 . S
C756 C755 1.443 . S
C756 C757 1.340 . S
C756 H796 0.951 . S
C757 C756 1.340 . S
C757 C758 1.439 . S
C757 H797 0.950 . S
C758 C757 1.439 . S
C758 N759 1.374 . S
C758 C792 1.395 1_554 S
N759 C755 1.376 . S
N759 C758 1.374 . S
N759 Co760 2.008 . S
Co760 N759 2.008 . S
Co760 N761 1.995 1_554 S
Co760 N766 2.008 1_554 S
Co760 N771 1.995 . S
Co760 N776 2.282 . S
Co760 N782 2.282 1_554 S
N761 Co760 1.995 1_556 S
N761 C762 1.376 . S
N761 C765 1.383 . S
C762 N761 1.376 . S
C762 C763 1.446 . S
C762 C792 1.391 . S
C763 C762 1.446 . S
C763 C764 1.339 . S
C763 H798 0.949 . S
C764 C763 1.339 . S
C764 C765 1.439 . S
C764 H799 0.950 . S
C765 N761 1.383 . S
C765 C764 1.439 . S
C765 C794 1.392 . S
N766 Co760 2.008 1_556 S
N766 C767 1.376 . S
N766 C770 1.374 1_556 S
C767 N766 1.376 . S
C767 C768 1.443 . S
C767 C794 1.389 . S
C768 C767 1.443 . S
C768 C769 1.340 . S
C768 H800 0.951 . S
C769 C768 1.340 . S
C769 C770 1.439 1_556 S
C769 H801 0.950 . S
C770 N766 1.374 1_554 S
C770 C769 1.439 1_554 S
C770 C795 1.395 . S
N771 Co760 1.995 . S
N771 C772 1.376 . S
N771 C775 1.383 . S
C772 N771 1.376 . S
C772 C773 1.446 . S
C772 C795 1.391 . S
C773 C772 1.446 . S
C773 C774 1.339 . S
C773 H802 0.949 . S
C774 C773 1.339 . S
C774 C775 1.439 . S
C774 H803 0.950 . S
C775 N771 1.383 . S
C775 C774 1.439 . S
C775 C793 1.392 . S
N776 Co760 2.282 . S
N776 C779 1.332 . S
N776 C781 1.332 . S
C777 C778 1.386 . S
C777 C780 1.388 . S
C778 C777 1.386 . S
C778 C779 1.382 . S
C778 H804 0.950 . S
C779 N776 1.332 . S
C779 C778 1.382 . S
C779 H790 0.952 . S
C780 C777 1.388 . S
C780 C781 1.382 . S
C780 H805 0.950 . S
C781 N776 1.332 . S
C781 C780 1.382 . S
C781 H791 0.948 . S
N782 Co760 2.282 1_556 S
N782 C786 1.332 . S
N782 C787 1.332 . S
C783 C784 1.388 . S
C783 C787 1.382 . S
C783 H806 0.950 . S
C784 C783 1.388 . S
C784 C785 1.386 . S
C785 C784 1.386 . S
C785 C786 1.382 . S
C785 H807 0.950 . S
C786 N782 1.332 . S
C786 C785 1.382 . S
C786 H788 0.952 . S
C787 N782 1.332 . S
C787 C783 1.382 . S
C787 H789 0.948 . S
H788 C786 0.952 . S
H789 C787 0.948 . S
H790 C779 0.952 . S
H791 C781 0.948 . S
C792 C758 1.395 1_556 S
C792 C762 1.391 . S
C793 C755 1.389 . S
C793 C775 1.392 . S
C794 C765 1.392 . S
C794 C767 1.389 . S
C795 C770 1.395 . S
C795 C772 1.391 . S
H796 C756 0.951 . S
H797 C757 0.950 . S
H798 C763 0.949 . S
H799 C764 0.950 . S
H800 C768 0.951 . S
H801 C769 0.950 . S
H802 C773 0.949 . S
H803 C774 0.950 . S
H804 C778 0.950 . S
H805 C780 0.950 . S
H806 C783 0.950 . S
H807 C785 0.950 . S
H808 C814 0.930 . S
H809 C818 0.930 . S
H810 C823 0.929 . S
H811 C821 0.929 . S
H812 C816 0.929 . S
H813 C822 0.929 . S
C814 H808 0.930 . S
C814 C815 1.367 . S
C814 C822 1.378 . S
C815 C814 1.367 . S
C815 C823 1.433 . S
C816 H812 0.929 . S
C816 C818 1.378 . S
C816 C820 1.350 . S
C817 C820 1.463 . S
C817 C822 1.350 . S
C817 N825 1.427 . S
C818 H809 0.930 . S
C818 C816 1.378 . S
C818 C819 1.367 . S
C819 C818 1.367 . S
C819 C821 1.433 . S
C820 C816 1.350 . S
C820 C817 1.463 . S
C820 N824 1.427 . S
C821 H811 0.929 . S
C821 C819 1.433 . S
C821 N824 1.384 . S
C822 H813 0.929 . S
C822 C814 1.378 . S
C822 C817 1.350 . S
C823 H810 0.929 . S
C823 C815 1.433 . S
C823 N825 1.384 . S
N824 C820 1.427 . S
N824 C821 1.384 . S
N825 C817 1.427 . S
N825 C823 1.384 . S
H826 C832 0.930 . S
H827 C836 0.930 . S
H828 C841 0.929 . S
H829 C839 0.929 . S
H830 C834 0.929 . S
H831 C840 0.929 . S
C832 H826 0.930 . S
C832 C833 1.367 . S
C832 C840 1.378 . S
C833 C832 1.367 . S
C833 C841 1.433 . S
C834 H830 0.929 . S
C834 C836 1.378 . S
C834 C838 1.350 . S
C835 C838 1.463 . S
C835 C840 1.350 . S
C835 N843 1.427 . S
C836 H827 0.930 . S
C836 C834 1.378 . S
C836 C837 1.367 . S
C837 C836 1.367 . S
C837 C839 1.433 . S
C838 C834 1.350 . S
C838 C835 1.463 . S
C838 N842 1.427 . S
C839 H829 0.929 . S
C839 C837 1.433 . S
C839 N842 1.384 . S
C840 H831 0.929 . S
C840 C832 1.378 . S
C840 C835 1.350 . S
C841 H828 0.929 . S
C841 C833 1.433 . S
C841 N843 1.384 . S
N842 C838 1.427 . S
N842 C839 1.384 . S
N843 C835 1.427 . S
N843 C841 1.384 . S
H844 C850 0.930 . S
H845 C854 0.930 . S
H846 C859 0.929 . S
H847 C857 0.929 . S
H848 C852 0.929 . S
H849 C858 0.929 . S
C850 H844 0.930 . S
C850 C851 1.367 . S
C850 C858 1.378 . S
C851 C850 1.367 . S
C851 C859 1.433 . S
C852 H848 0.929 . S
C852 C854 1.378 . S
C852 C856 1.350 . S
C853 C856 1.463 . S
C853 C858 1.350 . S
C853 N861 1.427 . S
C854 H845 0.930 . S
C854 C852 1.378 . S
C854 C855 1.367 . S
C855 C854 1.367 . S
C855 C857 1.433 . S
C856 C852 1.350 . S
C856 C853 1.463 . S
C856 N860 1.427 . S
C857 H847 0.929 . S
C857 C855 1.433 . S
C857 N860 1.384 . S
C858 H849 0.929 . S
C858 C850 1.378 . S
C858 C853 1.350 . S
C859 H846 0.929 . S
C859 C851 1.433 . S
C859 N861 1.384 . S
N860 C856 1.427 . S
N860 C857 1.384 . S
N861 C853 1.427 . S
N861 C859 1.384 . S
H862 C868 0.930 . S
H863 C872 0.930 . S
H864 C877 0.929 . S
H865 C875 0.929 . S
H866 C870 0.929 . S
H867 C876 0.929 . S
C868 H862 0.930 . S
C868 C869 1.367 . S
C868 C876 1.378 . S
C869 C868 1.367 . S
C869 C877 1.433 . S
C870 H866 0.929 . S
C870 C872 1.378 . S
C870 C874 1.350 . S
C871 C874 1.463 . S
C871 C876 1.350 . S
C871 N879 1.427 . S
C872 H863 0.930 . S
C872 C870 1.378 . S
C872 C873 1.367 . S
C873 C872 1.367 . S
C873 C875 1.433 . S
C874 C870 1.350 . S
C874 C871 1.463 . S
C874 N878 1.427 . S
C875 H865 0.929 . S
C875 C873 1.433 . S
C875 N878 1.384 . S
C876 H867 0.929 . S
C876 C868 1.378 . S
C876 C871 1.350 . S
C877 H864 0.929 . S
C877 C869 1.433 . S
C877 N879 1.384 . S
N878 C874 1.427 . S
N878 C875 1.384 . S
N879 C871 1.427 . S
N879 C877 1.384 . S
H880 C886 0.930 . S
H881 C890 0.930 . S
H882 C895 0.929 . S
H883 C893 0.929 . S
H884 C888 0.929 . S
H885 C894 0.929 . S
C886 H880 0.930 . S
C886 C887 1.367 . S
C886 C894 1.378 . S
C887 C886 1.367 . S
C887 C895 1.433 . S
C888 H884 0.929 . S
C888 C890 1.378 . S
C888 C892 1.350 . S
C889 C892 1.463 . S
C889 C894 1.350 . S
C889 N897 1.427 . S
C890 H881 0.930 . S
C890 C888 1.378 . S
C890 C891 1.367 . S
C891 C890 1.367 . S
C891 C893 1.433 . S
C892 C888 1.350 . S
C892 C889 1.463 . S
C892 N896 1.427 . S
C893 H883 0.929 . S
C893 C891 1.433 . S
C893 N896 1.384 . S
C894 H885 0.929 . S
C894 C886 1.378 . S
C894 C889 1.350 . S
C895 H882 0.929 . S
C895 C887 1.433 . S
C895 N897 1.384 . S
N896 C892 1.427 . S
N896 C893 1.384 . S
N897 C889 1.427 . S
N897 C895 1.384 . S
H898 C904 0.930 . S
H899 C908 0.930 . S
H900 C913 0.929 . S
H901 C911 0.929 . S
H902 C906 0.929 . S
H903 C912 0.929 . S
C904 H898 0.930 . S
C904 C905 1.367 . S
C904 C912 1.378 . S
C905 C904 1.367 . S
C905 C913 1.433 . S
C906 H902 0.929 . S
C906 C908 1.378 . S
C906 C910 1.350 . S
C907 C910 1.463 . S
C907 C912 1.350 . S
C907 N915 1.427 . S
C908 H899 0.930 . S
C908 C906 1.378 . S
C908 C909 1.367 . S
C909 C908 1.367 . S
C909 C911 1.433 . S
C910 C906 1.350 . S
C910 C907 1.463 . S
C910 N914 1.427 . S
C911 H901 0.929 . S
C911 C909 1.433 . S
C911 N914 1.384 . S
C912 H903 0.929 . S
C912 C904 1.378 . S
C912 C907 1.350 . S
C913 H900 0.929 . S
C913 C905 1.433 . S
C913 N915 1.384 . S
N914 C910 1.427 . S
N914 C911 1.384 . S
N915 C907 1.427 . S
N915 C913 1.384 . S
H916 C922 0.930 . S
H917 C926 0.930 . S
H918 C931 0.929 . S
H919 C929 0.929 . S
H920 C924 0.929 . S
H921 C930 0.929 . S
C922 H916 0.930 . S
C922 C923 1.367 . S
C922 C930 1.378 . S
C923 C922 1.367 . S
C923 C931 1.433 . S
C924 H920 0.929 . S
C924 C926 1.378 . S
C924 C928 1.350 . S
C925 C928 1.463 . S
C925 C930 1.350 . S
C925 N933 1.427 . S
C926 H917 0.930 . S
C926 C924 1.378 . S
C926 C927 1.367 . S
C927 C926 1.367 . S
C927 C929 1.433 . S
C928 C924 1.350 . S
C928 C925 1.463 . S
C928 N932 1.427 . S
C929 H919 0.929 . S
C929 C927 1.433 . S
C929 N932 1.384 . S
C930 H921 0.929 . S
C930 C922 1.378 . S
C930 C925 1.350 . S
C931 H918 0.929 . S
C931 C923 1.433 . S
C931 N933 1.384 . S
N932 C928 1.427 . S
N932 C929 1.384 . S
N933 C925 1.427 . S
N933 C931 1.384 . S
H934 C940 0.930 . S
H935 C944 0.930 . S
H936 C949 0.929 . S
H937 C947 0.929 . S
H938 C942 0.929 . S
H939 C948 0.929 . S
C940 H934 0.930 . S
C940 C941 1.367 . S
C940 C948 1.378 . S
C941 C940 1.367 . S
C941 C949 1.433 . S
C942 H938 0.929 . S
C942 C944 1.378 . S
C942 C946 1.350 . S
C943 C946 1.463 . S
C943 C948 1.350 . S
C943 N951 1.427 . S
C944 H935 0.930 . S
C944 C942 1.378 . S
C944 C945 1.367 . S
C945 C944 1.367 . S
C945 C947 1.433 . S
C946 C942 1.350 . S
C946 C943 1.463 . S
C946 N950 1.427 . S
C947 H937 0.929 . S
C947 C945 1.433 . S
C947 N950 1.384 . S
C948 H939 0.929 . S
C948 C940 1.378 . S
C948 C943 1.350 . S
C949 H936 0.929 . S
C949 C941 1.433 . S
C949 N951 1.384 . S
N950 C946 1.427 . S
N950 C947 1.384 . S
N951 C943 1.427 . S
N951 C949 1.384 . S
H952 C958 0.930 . S
H953 C962 0.930 . S
H954 C967 0.929 . S
H955 C965 0.929 . S
H956 C960 0.929 . S
H957 C966 0.929 . S
C958 H952 0.930 . S
C958 C959 1.367 . S
C958 C966 1.378 . S
C959 C958 1.367 . S
C959 C967 1.433 . S
C960 H956 0.929 . S
C960 C962 1.378 . S
C960 C964 1.350 . S
C961 C964 1.463 . S
C961 C966 1.350 . S
C961 N969 1.427 . S
C962 H953 0.930 . S
C962 C960 1.378 . S
C962 C963 1.367 . S
C963 C962 1.367 . S
C963 C965 1.433 . S
C964 C960 1.350 . S
C964 C961 1.463 . S
C964 N968 1.427 . S
C965 H955 0.929 . S
C965 C963 1.433 . S
C965 N968 1.384 . S
C966 H957 0.929 . S
C966 C958 1.378 . S
C966 C961 1.350 . S
C967 H954 0.929 . S
C967 C959 1.433 . S
C967 N969 1.384 . S
N968 C964 1.427 . S
N968 C965 1.384 . S
N969 C961 1.427 . S
N969 C967 1.384 . S
H970 C976 0.930 . S
H971 C980 0.930 . S
H972 C985 0.929 . S
H973 C983 0.929 . S
H974 C978 0.929 . S
H975 C984 0.929 . S
C976 H970 0.930 . S
C976 C977 1.367 . S
C976 C984 1.378 . S
C977 C976 1.367 . S
C977 C985 1.433 . S
C978 H974 0.929 . S
C978 C980 1.378 . S
C978 C982 1.350 . S
C979 C982 1.463 . S
C979 C984 1.350 . S
C979 N987 1.427 . S
C980 H971 0.930 . S
C980 C978 1.378 . S
C980 C981 1.367 . S
C981 C980 1.367 . S
C981 C983 1.433 . S
C982 C978 1.350 . S
C982 C979 1.463 . S
C982 N986 1.427 . S
C983 H973 0.929 . S
C983 C981 1.433 . S
C983 N986 1.384 . S
C984 H975 0.929 . S
C984 C976 1.378 . S
C984 C979 1.350 . S
C985 H972 0.929 . S
C985 C977 1.433 . S
C985 N987 1.384 . S
N986 C982 1.427 . S
N986 C983 1.384 . S
N987 C979 1.427 . S
N987 C985 1.384 . S
H988 C994 0.930 . S
H989 C998 0.930 . S
H990 C1003 0.929 . S
H991 C1001 0.929 . S
H992 C996 0.929 . S
H993 C1002 0.929 . S
C994 H988 0.930 . S
C994 C995 1.367 . S
C994 C1002 1.378 . S
C995 C994 1.367 . S
C995 C1003 1.433 . S
C996 H992 0.929 . S
C996 C998 1.378 . S
C996 C1000 1.350 . S
C997 C1000 1.463 . S
C997 C1002 1.350 . S
C997 N1005 1.427 . S
C998 H989 0.930 . S
C998 C996 1.378 . S
C998 C999 1.367 . S
C999 C998 1.367 . S
C999 C1001 1.433 . S
C1000 C996 1.350 . S
C1000 C997 1.463 . S
C1000 N1004 1.427 . S
C1001 H991 0.929 . S
C1001 C999 1.433 . S
C1001 N1004 1.384 . S
C1002 H993 0.929 . S
C1002 C994 1.378 . S
C1002 C997 1.350 . S
C1003 H990 0.929 . S
C1003 C995 1.433 . S
C1003 N1005 1.384 . S
N1004 C1000 1.427 . S
N1004 C1001 1.384 . S
N1005 C997 1.427 . S
N1005 C1003 1.384 . S
H1006 C1012 0.930 . S
H1007 C1016 0.930 . S
H1008 C1021 0.929 . S
H1009 C1019 0.929 . S
H1010 C1014 0.929 . S
H1011 C1020 0.929 . S
C1012 H1006 0.930 . S
C1012 C1013 1.367 . S
C1012 C1020 1.378 . S
C1013 C1012 1.367 . S
C1013 C1021 1.433 . S
C1014 H1010 0.929 . S
C1014 C1016 1.378 . S
C1014 C1018 1.350 . S
C1015 C1018 1.463 . S
C1015 C1020 1.350 . S
C1015 N1023 1.427 . S
C1016 H1007 0.930 . S
C1016 C1014 1.378 . S
C1016 C1017 1.367 . S
C1017 C1016 1.367 . S
C1017 C1019 1.433 . S
C1018 C1014 1.350 . S
C1018 C1015 1.463 . S
C1018 N1022 1.427 . S
C1019 H1009 0.929 . S
C1019 C1017 1.433 . S
C1019 N1022 1.384 . S
C1020 H1011 0.929 . S
C1020 C1012 1.378 . S
C1020 C1015 1.350 . S
C1021 H1008 0.929 . S
C1021 C1013 1.433 . S
C1021 N1023 1.384 . S
N1022 C1018 1.427 . S
N1022 C1019 1.384 . S
N1023 C1015 1.427 . S
N1023 C1021 1.384 . S
H1024 C1030 0.930 . S
H1025 C1034 0.930 . S
H1026 C1039 0.929 . S
H1027 C1037 0.929 . S
H1028 C1032 0.929 . S
H1029 C1038 0.929 . S
C1030 H1024 0.930 . S
C1030 C1031 1.367 . S
C1030 C1038 1.378 . S
C1031 C1030 1.367 . S
C1031 C1039 1.433 . S
C1032 H1028 0.929 . S
C1032 C1034 1.378 . S
C1032 C1036 1.350 . S
C1033 C1036 1.463 . S
C1033 C1038 1.350 . S
C1033 N1041 1.427 . S
C1034 H1025 0.930 . S
C1034 C1032 1.378 . S
C1034 C1035 1.367 . S
C1035 C1034 1.367 . S
C1035 C1037 1.433 . S
C1036 C1032 1.350 . S
C1036 C1033 1.463 . S
C1036 N1040 1.427 . S
C1037 H1027 0.929 . S
C1037 C1035 1.433 . S
C1037 N1040 1.384 . S
C1038 H1029 0.929 . S
C1038 C1030 1.378 . S
C1038 C1033 1.350 . S
C1039 H1026 0.929 . S
C1039 C1031 1.433 . S
C1039 N1041 1.384 . S
N1040 C1036 1.427 . S
N1040 C1037 1.384 . S
N1041 C1033 1.427 . S
N1041 C1039 1.384 . S
H1042 C1048 0.930 . S
H1043 C1052 0.930 . S
H1044 C1057 0.929 . S
H1045 C1055 0.929 . S
H1046 C1050 0.929 . S
H1047 C1056 0.929 . S
C1048 H1042 0.930 . S
C1048 C1049 1.367 . S
C1048 C1056 1.378 . S
C1049 C1048 1.367 . S
C1049 C1057 1.433 . S
C1050 H1046 0.929 . S
C1050 C1052 1.378 . S
C1050 C1054 1.350 . S
C1051 C1054 1.463 . S
C1051 C1056 1.350 . S
C1051 N1059 1.427 . S
C1052 H1043 0.930 . S
C1052 C1050 1.378 . S
C1052 C1053 1.367 . S
C1053 C1052 1.367 . S
C1053 C1055 1.433 . S
C1054 C1050 1.350 . S
C1054 C1051 1.463 . S
C1054 N1058 1.427 . S
C1055 H1045 0.929 . S
C1055 C1053 1.433 . S
C1055 N1058 1.384 . S
C1056 H1047 0.929 . S
C1056 C1048 1.378 . S
C1056 C1051 1.350 . S
C1057 H1044 0.929 . S
C1057 C1049 1.433 . S
C1057 N1059 1.384 . S
N1058 C1054 1.427 . S
N1058 C1055 1.384 . S
N1059 C1051 1.427 . S
N1059 C1057 1.384 . S
H1060 C1066 0.930 . S
H1061 C1070 0.930 . S
H1062 C1075 0.929 . S
H1063 C1073 0.929 . S
H1064 C1068 0.929 . S
H1065 C1074 0.929 . S
C1066 H1060 0.930 . S
C1066 C1067 1.367 . S
C1066 C1074 1.378 . S
C1067 C1066 1.367 . S
C1067 C1075 1.433 . S
C1068 H1064 0.929 . S
C1068 C1070 1.378 . S
C1068 C1072 1.350 . S
C1069 C1072 1.463 . S
C1069 C1074 1.350 . S
C1069 N1077 1.427 . S
C1070 H1061 0.930 . S
C1070 C1068 1.378 . S
C1070 C1071 1.367 . S
C1071 C1070 1.367 . S
C1071 C1073 1.433 . S
C1072 C1068 1.350 . S
C1072 C1069 1.463 . S
C1072 N1076 1.427 . S
C1073 H1063 0.929 . S
C1073 C1071 1.433 . S
C1073 N1076 1.384 . S
C1074 H1065 0.929 . S
C1074 C1066 1.378 . S
C1074 C1069 1.350 . S
C1075 H1062 0.929 . S
C1075 C1067 1.433 . S
C1075 N1077 1.384 . S
N1076 C1072 1.427 . S
N1076 C1073 1.384 . S
N1077 C1069 1.427 . S
N1077 C1075 1.384 . S
H1078 C1084 0.930 . S
H1079 C1088 0.930 . S
H1080 C1093 0.929 . S
H1081 C1091 0.929 . S
H1082 C1086 0.929 . S
H1083 C1092 0.929 . S
C1084 H1078 0.930 . S
C1084 C1085 1.367 . S
C1084 C1092 1.378 . S
C1085 C1084 1.367 . S
C1085 C1093 1.433 . S
C1086 H1082 0.929 . S
C1086 C1088 1.378 . S
C1086 C1090 1.350 . S
C1087 C1090 1.463 . S
C1087 C1092 1.350 . S
C1087 N1095 1.427 . S
C1088 H1079 0.930 . S
C1088 C1086 1.378 . S
C1088 C1089 1.367 . S
C1089 C1088 1.367 . S
C1089 C1091 1.433 . S
C1090 C1086 1.350 . S
C1090 C1087 1.463 . S
C1090 N1094 1.427 . S
C1091 H1081 0.929 . S
C1091 C1089 1.433 . S
C1091 N1094 1.384 . S
C1092 H1083 0.929 . S
C1092 C1084 1.378 . S
C1092 C1087 1.350 . S
C1093 H1080 0.929 . S
C1093 C1085 1.433 . S
C1093 N1095 1.384 . S
N1094 C1090 1.427 . S
N1094 C1091 1.384 . S
N1095 C1087 1.427 . S
N1095 C1093 1.384 . S
H1096 C1102 0.930 . S
H1097 C1106 0.930 . S
H1098 C1111 0.929 . S
H1099 C1109 0.929 . S
H1100 C1104 0.929 . S
H1101 C1110 0.929 . S
C1102 H1096 0.930 . S
C1102 C1103 1.367 . S
C1102 C1110 1.378 . S
C1103 C1102 1.367 . S
C1103 C1111 1.433 . S
C1104 H1100 0.929 . S
C1104 C1106 1.378 . S
C1104 C1108 1.350 . S
C1105 C1108 1.463 . S
C1105 C1110 1.350 . S
C1105 N1113 1.427 . S
C1106 H1097 0.930 . S
C1106 C1104 1.378 . S
C1106 C1107 1.367 . S
C1107 C1106 1.367 . S
C1107 C1109 1.433 . S
C1108 C1104 1.350 . S
C1108 C1105 1.463 . S
C1108 N1112 1.427 . S
C1109 H1099 0.929 . S
C1109 C1107 1.433 . S
C1109 N1112 1.384 . S
C1110 H1101 0.929 . S
C1110 C1102 1.378 . S
C1110 C1105 1.350 . S
C1111 H1098 0.929 . S
C1111 C1103 1.433 . S
C1111 N1113 1.384 . S
N1112 C1108 1.427 . S
N1112 C1109 1.384 . S
N1113 C1105 1.427 . S
N1113 C1111 1.384 . S
H1114 C1120 0.930 . S
H1115 C1124 0.930 . S
H1116 C1129 0.929 . S
H1117 C1127 0.929 . S
H1118 C1122 0.929 . S
H1119 C1128 0.929 . S
C1120 H1114 0.930 . S
C1120 C1121 1.367 . S
C1120 C1128 1.378 . S
C1121 C1120 1.367 . S
C1121 C1129 1.433 . S
C1122 H1118 0.929 . S
C1122 C1124 1.378 . S
C1122 C1126 1.350 . S
C1123 C1126 1.463 . S
C1123 C1128 1.350 . S
C1123 N1131 1.427 . S
C1124 H1115 0.930 . S
C1124 C1122 1.378 . S
C1124 C1125 1.367 . S
C1125 C1124 1.367 . S
C1125 C1127 1.433 . S
C1126 C1122 1.350 . S
C1126 C1123 1.463 . S
C1126 N1130 1.427 . S
C1127 H1117 0.929 . S
C1127 C1125 1.433 . S
C1127 N1130 1.384 . S
C1128 H1119 0.929 . S
C1128 C1120 1.378 . S
C1128 C1123 1.350 . S
C1129 H1116 0.929 . S
C1129 C1121 1.433 . S
C1129 N1131 1.384 . S
N1130 C1126 1.427 . S
N1130 C1127 1.384 . S
N1131 C1123 1.427 . S
N1131 C1129 1.384 . S
H1132 C1138 0.930 . S
H1133 C1142 0.930 . S
H1134 C1147 0.929 . S
H1135 C1145 0.929 . S
H1136 C1140 0.929 . S
H1137 C1146 0.929 . S
C1138 H1132 0.930 . S
C1138 C1139 1.367 . S
C1138 C1146 1.378 . S
C1139 C1138 1.367 . S
C1139 C1147 1.433 . S
C1140 H1136 0.929 . S
C1140 C1142 1.378 . S
C1140 C1144 1.350 . S
C1141 C1144 1.463 . S
C1141 C1146 1.350 . S
C1141 N1149 1.427 . S
C1142 H1133 0.930 . S
C1142 C1140 1.378 . S
C1142 C1143 1.367 . S
C1143 C1142 1.367 . S
C1143 C1145 1.433 . S
C1144 C1140 1.350 . S
C1144 C1141 1.463 . S
C1144 N1148 1.427 . S
C1145 H1135 0.929 . S
C1145 C1143 1.433 . S
C1145 N1148 1.384 . S
C1146 H1137 0.929 . S
C1146 C1138 1.378 . S
C1146 C1141 1.350 . S
C1147 H1134 0.929 . S
C1147 C1139 1.433 . S
C1147 N1149 1.384 . S
N1148 C1144 1.427 . S
N1148 C1145 1.384 . S
N1149 C1141 1.427 . S
N1149 C1147 1.384 . S
H1150 C1156 0.930 . S
H1151 C1160 0.930 . S
H1152 C1165 0.929 . S
H1153 C1163 0.929 . S
H1154 C1158 0.929 . S
H1155 C1164 0.929 . S
C1156 H1150 0.930 . S
C1156 C1157 1.367 . S
C1156 C1164 1.378 . S
C1157 C1156 1.367 . S
C1157 C1165 1.433 . S
C1158 H1154 0.929 . S
C1158 C1160 1.378 . S
C1158 C1162 1.350 . S
C1159 C1162 1.463 . S
C1159 C1164 1.350 . S
C1159 N1167 1.427 . S
C1160 H1151 0.930 . S
C1160 C1158 1.378 . S
C1160 C1161 1.367 . S
C1161 C1160 1.367 . S
C1161 C1163 1.433 . S
C1162 C1158 1.350 . S
C1162 C1159 1.463 . S
C1162 N1166 1.427 . S
C1163 H1153 0.929 . S
C1163 C1161 1.433 . S
C1163 N1166 1.384 . S
C1164 H1155 0.929 . S
C1164 C1156 1.378 . S
C1164 C1159 1.350 . S
C1165 H1152 0.929 . S
C1165 C1157 1.433 . S
C1165 N1167 1.384 . S
N1166 C1162 1.427 . S
N1166 C1163 1.384 . S
N1167 C1159 1.427 . S
N1167 C1165 1.384 . S
H1168 C1174 0.930 . S
H1169 C1178 0.930 . S
H1170 C1183 0.929 . S
H1171 C1181 0.929 . S
H1172 C1176 0.929 . S
H1173 C1182 0.929 . S
C1174 H1168 0.930 . S
C1174 C1175 1.367 . S
C1174 C1182 1.378 . S
C1175 C1174 1.367 . S
C1175 C1183 1.433 . S
C1176 H1172 0.929 . S
C1176 C1178 1.378 . S
C1176 C1180 1.350 . S
C1177 C1180 1.463 . S
C1177 C1182 1.350 . S
C1177 N1185 1.427 . S
C1178 H1169 0.930 . S
C1178 C1176 1.378 . S
C1178 C1179 1.367 . S
C1179 C1178 1.367 . S
C1179 C1181 1.433 . S
C1180 C1176 1.350 . S
C1180 C1177 1.463 . S
C1180 N1184 1.427 . S
C1181 H1171 0.929 . S
C1181 C1179 1.433 . S
C1181 N1184 1.384 . S
C1182 H1173 0.929 . S
C1182 C1174 1.378 . S
C1182 C1177 1.350 . S
C1183 H1170 0.929 . S
C1183 C1175 1.433 . S
C1183 N1185 1.384 . S
N1184 C1180 1.427 . S
N1184 C1181 1.384 . S
N1185 C1177 1.427 . S
N1185 C1183 1.384 . S
H1186 C1192 0.930 . S
H1187 C1196 0.930 . S
H1188 C1201 0.929 . S
H1189 C1199 0.929 . S
H1190 C1194 0.929 . S
H1191 C1200 0.929 . S
C1192 H1186 0.930 . S
C1192 C1193 1.367 . S
C1192 C1200 1.378 . S
C1193 C1192 1.367 . S
C1193 C1201 1.433 . S
C1194 H1190 0.929 . S
C1194 C1196 1.378 . S
C1194 C1198 1.350 . S
C1195 C1198 1.463 . S
C1195 C1200 1.350 . S
C1195 N1203 1.427 . S
C1196 H1187 0.930 . S
C1196 C1194 1.378 . S
C1196 C1197 1.367 . S
C1197 C1196 1.367 . S
C1197 C1199 1.433 . S
C1198 C1194 1.350 . S
C1198 C1195 1.463 . S
C1198 N1202 1.427 . S
C1199 H1189 0.929 . S
C1199 C1197 1.433 . S
C1199 N1202 1.384 . S
C1200 H1191 0.929 . S
C1200 C1192 1.378 . S
C1200 C1195 1.350 . S
C1201 H1188 0.929 . S
C1201 C1193 1.433 . S
C1201 N1203 1.384 . S
N1202 C1198 1.427 . S
N1202 C1199 1.384 . S
N1203 C1195 1.427 . S
N1203 C1201 1.384 . S
H1204 C1210 0.930 . S
H1205 C1214 0.930 . S
H1206 C1219 0.929 . S
H1207 C1217 0.929 . S
H1208 C1212 0.929 . S
H1209 C1218 0.929 . S
C1210 H1204 0.930 . S
C1210 C1211 1.367 . S
C1210 C1218 1.378 . S
C1211 C1210 1.367 . S
C1211 C1219 1.433 . S
C1212 H1208 0.929 . S
C1212 C1214 1.378 . S
C1212 C1216 1.350 . S
C1213 C1216 1.463 . S
C1213 C1218 1.350 . S
C1213 N1221 1.427 . S
C1214 H1205 0.930 . S
C1214 C1212 1.378 . S
C1214 C1215 1.367 . S
C1215 C1214 1.367 . S
C1215 C1217 1.433 . S
C1216 C1212 1.350 . S
C1216 C1213 1.463 . S
C1216 N1220 1.427 . S
C1217 H1207 0.929 . S
C1217 C1215 1.433 . S
C1217 N1220 1.384 . S
C1218 H1209 0.929 . S
C1218 C1210 1.378 . S
C1218 C1213 1.350 . S
C1219 H1206 0.929 . S
C1219 C1211 1.433 . S
C1219 N1221 1.384 . S
N1220 C1216 1.427 . S
N1220 C1217 1.384 . S
N1221 C1213 1.427 . S
N1221 C1219 1.384 . S
H1222 C1228 0.930 . S
H1223 C1232 0.930 . S
H1224 C1237 0.929 . S
H1225 C1235 0.929 . S
H1226 C1230 0.929 . S
H1227 C1236 0.929 . S
C1228 H1222 0.930 . S
C1228 C1229 1.367 . S
C1228 C1236 1.378 . S
C1229 C1228 1.367 . S
C1229 C1237 1.433 . S
C1230 H1226 0.929 . S
C1230 C1232 1.378 . S
C1230 C1234 1.350 . S
C1231 C1234 1.463 . S
C1231 C1236 1.350 . S
C1231 N1239 1.427 . S
C1232 H1223 0.930 . S
C1232 C1230 1.378 . S
C1232 C1233 1.367 . S
C1233 C1232 1.367 . S
C1233 C1235 1.433 . S
C1234 C1230 1.350 . S
C1234 C1231 1.463 . S
C1234 N1238 1.427 . S
C1235 H1225 0.929 . S
C1235 C1233 1.433 . S
C1235 N1238 1.384 . S
C1236 H1227 0.929 . S
C1236 C1228 1.378 . S
C1236 C1231 1.350 . S
C1237 H1224 0.929 . S
C1237 C1229 1.433 . S
C1237 N1239 1.384 . S
N1238 C1234 1.427 . S
N1238 C1235 1.384 . S
N1239 C1231 1.427 . S
N1239 C1237 1.384 . S
H1240 C1246 0.930 . S
H1241 C1250 0.930 . S
H1242 C1255 0.929 . S
H1243 C1253 0.929 . S
H1244 C1248 0.929 . S
H1245 C1254 0.929 . S
C1246 H1240 0.930 . S
C1246 C1247 1.367 . S
C1246 C1254 1.378 . S
C1247 C1246 1.367 . S
C1247 C1255 1.433 . S
C1248 H1244 0.929 . S
C1248 C1250 1.378 . S
C1248 C1252 1.350 . S
C1249 C1252 1.463 . S
C1249 C1254 1.350 . S
C1249 N1257 1.427 . S
C1250 H1241 0.930 . S
C1250 C1248 1.378 . S
C1250 C1251 1.367 . S
C1251 C1250 1.367 . S
C1251 C1253 1.433 . S
C1252 C1248 1.350 . S
C1252 C1249 1.463 . S
C1252 N1256 1.427 . S
C1253 H1243 0.929 . S
C1253 C1251 1.433 . S
C1253 N1256 1.384 . S
C1254 H1245 0.929 . S
C1254 C1246 1.378 . S
C1254 C1249 1.350 . S
C1255 H1242 0.929 . S
C1255 C1247 1.433 . S
C1255 N1257 1.384 . S
N1256 C1252 1.427 . S
N1256 C1253 1.384 . S
N1257 C1249 1.427 . S
N1257 C1255 1.384 . S
H1258 C1264 0.930 . S
H1259 C1268 0.930 . S
H1260 C1273 0.929 . S
H1261 C1271 0.929 . S
H1262 C1266 0.929 . S
H1263 C1272 0.929 . S
C1264 H1258 0.930 . S
C1264 C1265 1.367 . S
C1264 C1272 1.378 . S
C1265 C1264 1.367 . S
C1265 C1273 1.433 . S
C1266 H1262 0.929 . S
C1266 C1268 1.378 . S
C1266 C1270 1.350 . S
C1267 C1270 1.463 . S
C1267 C1272 1.350 . S
C1267 N1275 1.427 . S
C1268 H1259 0.930 . S
C1268 C1266 1.378 . S
C1268 C1269 1.367 . S
C1269 C1268 1.367 . S
C1269 C1271 1.433 . S
C1270 C1266 1.350 . S
C1270 C1267 1.463 . S
C1270 N1274 1.427 . S
C1271 H1261 0.929 . S
C1271 C1269 1.433 . S
C1271 N1274 1.384 . S
C1272 H1263 0.929 . S
C1272 C1264 1.378 . S
C1272 C1267 1.350 . S
C1273 H1260 0.929 . S
C1273 C1265 1.433 . S
C1273 N1275 1.384 . S
N1274 C1270 1.427 . S
N1274 C1271 1.384 . S
N1275 C1267 1.427 . S
N1275 C1273 1.384 . S
H1276 C1282 0.930 . S
H1277 C1286 0.930 . S
H1278 C1291 0.929 . S
H1279 C1289 0.929 . S
H1280 C1284 0.929 . S
H1281 C1290 0.929 . S
C1282 H1276 0.930 . S
C1282 C1283 1.367 . S
C1282 C1290 1.378 . S
C1283 C1282 1.367 . S
C1283 C1291 1.433 . S
C1284 H1280 0.929 . S
C1284 C1286 1.378 . S
C1284 C1288 1.350 . S
C1285 C1288 1.463 . S
C1285 C1290 1.350 . S
C1285 N1293 1.427 . S
C1286 H1277 0.930 . S
C1286 C1284 1.378 . S
C1286 C1287 1.367 . S
C1287 C1286 1.367 . S
C1287 C1289 1.433 . S
C1288 C1284 1.350 . S
C1288 C1285 1.463 . S
C1288 N1292 1.427 . S
C1289 H1279 0.929 . S
C1289 C1287 1.433 . S
C1289 N1292 1.384 . S
C1290 H1281 0.929 . S
C1290 C1282 1.378 . S
C1290 C1285 1.350 . S
C1291 H1278 0.929 . S
C1291 C1283 1.433 . S
C1291 N1293 1.384 . S
N1292 C1288 1.427 . S
N1292 C1289 1.384 . S
N1293 C1285 1.427 . S
N1293 C1291 1.384 . S
H1294 C1300 0.930 . S
H1295 C1304 0.930 . S
H1296 C1309 0.929 . S
H1297 C1307 0.929 . S
H1298 C1302 0.929 . S
H1299 C1308 0.929 . S
C1300 H1294 0.930 . S
C1300 C1301 1.367 . S
C1300 C1308 1.378 . S
C1301 C1300 1.367 . S
C1301 C1309 1.433 . S
C1302 H1298 0.929 . S
C1302 C1304 1.378 . S
C1302 C1306 1.350 . S
C1303 C1306 1.463 . S
C1303 C1308 1.350 . S
C1303 N1311 1.427 . S
C1304 H1295 0.930 . S
C1304 C1302 1.378 . S
C1304 C1305 1.367 . S
C1305 C1304 1.367 . S
C1305 C1307 1.433 . S
C1306 C1302 1.350 . S
C1306 C1303 1.463 . S
C1306 N1310 1.427 . S
C1307 H1297 0.929 . S
C1307 C1305 1.433 . S
C1307 N1310 1.384 . S
C1308 H1299 0.929 . S
C1308 C1300 1.378 . S
C1308 C1303 1.350 . S
C1309 H1296 0.929 . S
C1309 C1301 1.433 . S
C1309 N1311 1.384 . S
N1310 C1306 1.427 . S
N1310 C1307 1.384 . S
N1311 C1303 1.427 . S
N1311 C1309 1.384 . S
H1312 C1318 0.930 . S
H1313 C1322 0.930 . S
H1314 C1327 0.929 . S
H1315 C1325 0.929 . S
H1316 C1320 0.929 . S
H1317 C1326 0.929 . S
C1318 H1312 0.930 . S
C1318 C1319 1.367 . S
C1318 C1326 1.378 . S
C1319 C1318 1.367 . S
C1319 C1327 1.433 . S
C1320 H1316 0.929 . S
C1320 C1322 1.378 . S
C1320 C1324 1.350 . S
C1321 C1324 1.463 . S
C1321 C1326 1.350 . S
C1321 N1329 1.427 . S
C1322 H1313 0.930 . S
C1322 C1320 1.378 . S
C1322 C1323 1.367 . S
C1323 C1322 1.367 . S
C1323 C1325 1.433 . S
C1324 C1320 1.350 . S
C1324 C1321 1.463 . S
C1324 N1328 1.427 . S
C1325 H1315 0.929 . S
C1325 C1323 1.433 . S
C1325 N1328 1.384 . S
C1326 H1317 0.929 . S
C1326 C1318 1.378 . S
C1326 C1321 1.350 . S
C1327 H1314 0.929 . S
C1327 C1319 1.433 . S
C1327 N1329 1.384 . S
N1328 C1324 1.427 . S
N1328 C1325 1.384 . S
N1329 C1321 1.427 . S
N1329 C1327 1.384 . S
H1330 C1336 0.930 . S
H1331 C1340 0.930 . S
H1332 C1345 0.929 . S
H1333 C1343 0.929 . S
H1334 C1338 0.929 . S
H1335 C1344 0.929 . S
C1336 H1330 0.930 . S
C1336 C1337 1.367 . S
C1336 C1344 1.378 . S
C1337 C1336 1.367 . S
C1337 C1345 1.433 . S
C1338 H1334 0.929 . S
C1338 C1340 1.378 . S
C1338 C1342 1.350 . S
C1339 C1342 1.463 . S
C1339 C1344 1.350 . S
C1339 N1347 1.427 . S
C1340 H1331 0.930 . S
C1340 C1338 1.378 . S
C1340 C1341 1.367 . S
C1341 C1340 1.367 . S
C1341 C1343 1.433 . S
C1342 C1338 1.350 . S
C1342 C1339 1.463 . S
C1342 N1346 1.427 . S
C1343 H1333 0.929 . S
C1343 C1341 1.433 . S
C1343 N1346 1.384 . S
C1344 H1335 0.929 . S
C1344 C1336 1.378 . S
C1344 C1339 1.350 . S
C1345 H1332 0.929 . S
C1345 C1337 1.433 . S
C1345 N1347 1.384 . S
N1346 C1342 1.427 . S
N1346 C1343 1.384 . S
N1347 C1339 1.427 . S
N1347 C1345 1.384 . S
H1348 C1354 0.930 . S
H1349 C1358 0.930 . S
H1350 C1363 0.929 . S
H1351 C1361 0.929 . S
H1352 C1356 0.929 . S
H1353 C1362 0.929 . S
C1354 H1348 0.930 . S
C1354 C1355 1.367 . S
C1354 C1362 1.378 . S
C1355 C1354 1.367 . S
C1355 C1363 1.433 . S
C1356 H1352 0.929 . S
C1356 C1358 1.378 . S
C1356 C1360 1.350 . S
C1357 C1360 1.463 . S
C1357 C1362 1.350 . S
C1357 N1365 1.427 . S
C1358 H1349 0.930 . S
C1358 C1356 1.378 . S
C1358 C1359 1.367 . S
C1359 C1358 1.367 . S
C1359 C1361 1.433 . S
C1360 C1356 1.350 . S
C1360 C1357 1.463 . S
C1360 N1364 1.427 . S
C1361 H1351 0.929 . S
C1361 C1359 1.433 . S
C1361 N1364 1.384 . S
C1362 H1353 0.929 . S
C1362 C1354 1.378 . S
C1362 C1357 1.350 . S
C1363 H1350 0.929 . S
C1363 C1355 1.433 . S
C1363 N1365 1.384 . S
N1364 C1360 1.427 . S
N1364 C1361 1.384 . S
N1365 C1357 1.427 . S
N1365 C1363 1.384 . S
H1366 C1372 0.930 . S
H1367 C1376 0.930 . S
H1368 C1381 0.929 . S
H1369 C1379 0.929 . S
H1370 C1374 0.929 . S
H1371 C1380 0.929 . S
C1372 H1366 0.930 . S
C1372 C1373 1.367 . S
C1372 C1380 1.378 . S
C1373 C1372 1.367 . S
C1373 C1381 1.433 . S
C1374 H1370 0.929 . S
C1374 C1376 1.378 . S
C1374 C1378 1.350 . S
C1375 C1378 1.463 . S
C1375 C1380 1.350 . S
C1375 N1383 1.427 . S
C1376 H1367 0.930 . S
C1376 C1374 1.378 . S
C1376 C1377 1.367 . S
C1377 C1376 1.367 . S
C1377 C1379 1.433 . S
C1378 C1374 1.350 . S
C1378 C1375 1.463 . S
C1378 N1382 1.427 . S
C1379 H1369 0.929 . S
C1379 C1377 1.433 . S
C1379 N1382 1.384 . S
C1380 H1371 0.929 . S
C1380 C1372 1.378 . S
C1380 C1375 1.350 . S
C1381 H1368 0.929 . S
C1381 C1373 1.433 . S
C1381 N1383 1.384 . S
N1382 C1378 1.427 . S
N1382 C1379 1.384 . S
N1383 C1375 1.427 . S
N1383 C1381 1.384 . S
C819 C413 1.458 . S
C815 C36 1.457 . S
C837 C466 1.287 . S
C833 C93 1.285 . S
C855 C529 1.529 . S
C851 C132 1.529 . S
C873 C572 1.253 . S
C869 C174 1.255 . S
C887 C213 1.523 . S
C891 C528 1.526 . S
C909 C565 1.313 . S
C905 C285 1.303 . S
C927 C406 1.461 . S
C923 C324 1.460 . S
C945 C459 1.224 . S
C941 C366 1.218 . S
C963 C512 1.485 . S
C959 C357 1.482 . S
C981 C581 1.793 . S
C977 C222 1.794 . S
C999 C422 1.555 . S
C995 C276 1.555 . S
C1017 C475 1.721 . S
C1013 C333 1.717 . S
C1035 C423 1.546 . S
C1031 C84 1.544 . S
C1053 C476 1.788 . S
C1049 C141 1.779 . S
C1071 C519 1.493 . S
C1067 C165 1.489 . S
C1089 C582 1.731 . S
C1085 C45 1.719 . S
C1107 C625 1.431 . S
C1103 C372 1.431 . S
C1121 C237 1.661 . S
C1125 C678 1.671 . S
C1139 C261 1.554 . S
C1143 C740 1.555 . S
C1157 C318 1.662 . S
C1161 C794 1.668 . S
C1175 C69 1.490 . S
C1179 C741 1.492 . S
C1193 C126 1.728 . S
C1197 C793 1.735 . S
C1211 C180 1.485 . S
C1215 C618 1.486 . S
C1233 C671 1.614 . S
C1229 C30 1.614 . S
C1251 C731 1.458 . S
C1247 C21 1.453 . S
C1265 C78 1.340 . S
C1269 C777 1.342 . S
C1283 C117 1.575 . S
C1287 C634 1.577 . S
C1301 C189 1.317 . S
C1305 C687 1.327 . S
C1323 C635 1.514 . S
C1319 C228 1.514 . S
C1341 C688 1.392 . S
C1337 C270 1.393 . S
C1355 C309 1.508 . S
C1359 C724 1.512 . S
C1377 C784 1.279 . S
C1373 C381 1.277 . S
