# Generated by pormake.
# Topology zzz, (3,6)-cn, num edge types: 1
# Building blocks:
#     Node 0, Type 0, BuildingBlock: PAMTOO_clean_linker_0, # of connection points: 3
#     Node 1, Type 0, BuildingBlock: PAMTOO_clean_linker_0, # of connection points: 3
#     Node 2, Type 0, BuildingBlock: PAMTOO_clean_linker_0, # of connection points: 3
#     Node 3, Type 0, BuildingBlock: PAMTOO_clean_linker_0, # of connection points: 3
#     Node 4, Type 0, BuildingBlock: PAMTOO_clean_linker_0, # of connection points: 3
#     Node 5, Type 0, BuildingBlock: PAMTOO_clean_linker_0, # of connection points: 3
#     Node 6, Type 0, BuildingBlock: PAMTOO_clean_linker_0, # of connection points: 3
#     Node 7, Type 0, BuildingBlock: PAMTOO_clean_linker_0, # of connection points: 3
#     Node 8, Type 1, BuildingBlock: INOVEN_clean_sbu_0, # of connection points: 6
#     Node 9, Type 1, BuildingBlock: INOVEN_clean_sbu_0, # of connection points: 6
#     Node 10, Type 1, BuildingBlock: INOVEN_clean_sbu_0, # of connection points: 6
#     Node 11, Type 1, BuildingBlock: INOVEN_clean_sbu_0, # of connection points: 6
#     Edge 12, Type (0, 1), BuildingBlock: MIFKUJ_clean_linker_0, # of connection points: 2
#     Edge 13, Type (0, 1), BuildingBlock: MIFKUJ_clean_linker_0, # of connection points: 2
#     Edge 14, Type (0, 1), BuildingBlock: MIFKUJ_clean_linker_0, # of connection points: 2
#     Edge 15, Type (0, 1), BuildingBlock: MIFKUJ_clean_linker_0, # of connection points: 2
#     Edge 16, Type (0, 1), BuildingBlock: MIFKUJ_clean_linker_0, # of connection points: 2
#     Edge 17, Type (0, 1), BuildingBlock: MIFKUJ_clean_linker_0, # of connection points: 2
#     Edge 18, Type (0, 1), BuildingBlock: MIFKUJ_clean_linker_0, # of connection points: 2
#     Edge 19, Type (0, 1), BuildingBlock: MIFKUJ_clean_linker_0, # of connection points: 2
#     Edge 20, Type (0, 1), BuildingBlock: MIFKUJ_clean_linker_0, # of connection points: 2
#     Edge 21, Type (0, 1), BuildingBlock: MIFKUJ_clean_linker_0, # of connection points: 2
#     Edge 22, Type (0, 1), BuildingBlock: MIFKUJ_clean_linker_0, # of connection points: 2
#     Edge 23, Type (0, 1), BuildingBlock: MIFKUJ_clean_linker_0, # of connection points: 2
#     Edge 24, Type (0, 1), BuildingBlock: MIFKUJ_clean_linker_0, # of connection points: 2
#     Edge 25, Type (0, 1), BuildingBlock: MIFKUJ_clean_linker_0, # of connection points: 2
#     Edge 26, Type (0, 1), BuildingBlock: MIFKUJ_clean_linker_0, # of connection points: 2
#     Edge 27, Type (0, 1), BuildingBlock: MIFKUJ_clean_linker_0, # of connection points: 2
#     Edge 28, Type (0, 1), BuildingBlock: MIFKUJ_clean_linker_0, # of connection points: 2
#     Edge 29, Type (0, 1), BuildingBlock: MIFKUJ_clean_linker_0, # of connection points: 2
#     Edge 30, Type (0, 1), BuildingBlock: MIFKUJ_clean_linker_0, # of connection points: 2
#     Edge 31, Type (0, 1), BuildingBlock: MIFKUJ_clean_linker_0, # of connection points: 2
#     Edge 32, Type (0, 1), BuildingBlock: MIFKUJ_clean_linker_0, # of connection points: 2
#     Edge 33, Type (0, 1), BuildingBlock: MIFKUJ_clean_linker_0, # of connection points: 2
#     Edge 34, Type (0, 1), BuildingBlock: MIFKUJ_clean_linker_0, # of connection points: 2
#     Edge 35, Type (0, 1), BuildingBlock: MIFKUJ_clean_linker_0, # of connection points: 2
# Relax obj value: 0.216
# Max RMSD: 0.171
# Mean RMSD: 0.156
data_MOF--net-zzz--node1-INOVEN_clean_sbu_0--node2-PAMTOO_clean_linker_0--edge1-MIFKUJ_clean_linker_0
_symmetry_space_group_name_H-M    P1
_symmetry_Int_Tables_number       1
_symmetry_cell_setting            triclinic
loop_
_symmetry_equiv_pos_as_xyz
'x, y, z'
_cell_length_a     68.508844
_cell_length_b     68.563258
_cell_length_c     17.246519
_cell_angle_alpha  89.992327
_cell_angle_beta   90.102795
_cell_angle_gamma 89.976394
loop_
_atom_site_label
_atom_site_type_symbol
_atom_site_fract_x
_atom_site_fract_y
_atom_site_fract_z
_atom_type_partial_charge
H0 H 0.79958 0.53108 0.17189 0.0
H1 H 0.73823 0.53087 0.12157 0.0
H2 H 0.75892 0.50836 0.33968 0.0
H3 H 0.71462 0.4891 0.27697 0.0
C4 C 0.71804 0.49823 0.22552 0.0
O5 O 0.7275 0.515 0.25072 0.0
H6 H 0.72777 0.48922 0.18815 0.0
C7 C 0.78476 0.52795 0.18983 0.0
C8 C 0.7815 0.51939 0.26285 0.0
C9 C 0.76937 0.53183 0.13808 0.0
C10 C 0.75022 0.52781 0.16073 0.0
C11 C 0.74634 0.51926 0.23265 0.0
C12 C 0.76197 0.51513 0.28428 0.0
H13 H 1.00205 0.79456 0.21437 0.0
H14 H 0.9967 0.73762 0.11217 0.0
H15 H 0.99845 0.74409 0.36107 0.0
H16 H 0.01683 0.70251 0.29654 0.0
C17 C 0.01201 0.70634 0.23688 0.0
O18 O 0.99595 0.71863 0.24279 0.0
H19 H 0.02442 0.71391 0.20805 0.0
C20 C 1.00017 0.77891 0.22061 0.0
C21 C 0.99997 0.77103 0.29511 0.0
C22 C 0.99885 0.76712 0.15443 0.0
C23 C 0.9974 0.74687 0.16299 0.0
C24 C 0.9973 0.7384 0.23705 0.0
C25 C 0.99852 0.75053 0.30376 0.0
H26 H 0.72602 0.03487 0.27481 0.0
H27 H 0.77891 0.02375 0.14912 0.0
H28 H 0.76237 0.98608 0.33784 0.0
H29 H 0.81098 0.98617 0.30674 0.0
C30 C 0.80761 0.99769 0.26348 0.0
O31 O 0.78955 0.9936 0.23053 0.0
H32 H 0.80711 0.01184 0.29522 0.0
C33 C 0.73944 0.0266 0.26828 0.0
C34 C 0.74261 0.01019 0.31514 0.0
C35 C 0.75229 0.03147 0.20825 0.0
C36 C 0.76913 0.0203 0.19651 0.0
C37 C 0.77319 1.0043 0.24441 0.0
C38 C 0.75967 0.99893 0.3029 0.0
H39 H 0.53954 0.71575 0.18326 0.0
H40 H 0.53662 0.77705 0.13551 0.0
H41 H 0.51893 0.75542 0.35902 0.0
H42 H 0.4985 0.80224 0.29777 0.0
C43 C 0.50632 0.79699 0.24541 0.0
O44 O 0.52304 0.78718 0.26919 0.0
H45 H 0.49603 0.78693 0.21529 0.0
C46 C 0.53674 0.73046 0.20348 0.0
C47 C 0.52974 0.73333 0.27925 0.0
C48 C 0.53923 0.74603 0.15155 0.0
C49 C 0.53471 0.76495 0.17521 0.0
C50 C 0.52716 0.76844 0.24909 0.0
C51 C 0.52452 0.75262 0.30142 0.0
H52 H 0.22341 0.52646 0.17756 0.0
H53 H 0.28333 0.52036 0.24731 0.0
H54 H 0.26338 0.4938 0.03534 0.0
H55 H 0.30455 0.47184 0.12028 0.0
C56 C 0.30152 0.48298 0.16547 0.0
O57 O 0.29394 0.49946 0.12966 0.0
H58 H 0.29065 0.47631 0.20551 0.0
C59 C 0.23803 0.52119 0.1658 0.0
C60 C 0.24141 0.51028 0.09817 0.0
C61 C 0.25294 0.52496 0.21975 0.0
C62 C 0.27163 0.51742 0.2066 0.0
C63 C 0.27543 0.50602 0.14107 0.0
C64 C 0.26029 0.50231 0.08676 0.0
H65 H 0.98602 0.22162 0.16142 0.0
H66 H 1.00088 0.27973 0.23049 0.0
H67 H 0.01923 0.2583 0.00733 0.0
H68 H 0.99423 0.30324 0.08036 0.0
C69 C 0.01027 0.30573 0.08451 0.0
O70 O 0.01992 0.28871 0.10592 0.0
H71 H 0.01537 0.30991 0.0257 0.0
C72 C 0.99237 0.23564 0.14707 0.0
C73 C 1.00212 0.23794 0.07607 0.0
C74 C 0.99182 0.25059 0.20254 0.0
C75 C 1.00108 0.26828 0.18729 0.0
C76 C 0.0107 0.27134 0.11695 0.0
C77 C 0.01142 0.25608 0.06113 0.0
H78 H 0.29629 0.04325 0.11629 0.0
H79 H 0.24107 0.03631 0.22966 0.0
H80 H 0.25454 1.0022 0.02638 0.0
H81 H 0.2329 0.99336 0.22406 0.0
C82 C 0.22165 0.99586 0.17838 0.0
O83 O 0.22692 0.01124 0.13051 0.0
H84 H 0.221 0.98232 0.14306 0.0
C85 C 0.28196 0.03663 0.11806 0.0
C86 C 0.27715 0.02236 0.06342 0.0
C87 C 0.26928 0.04145 0.17861 0.0
C88 C 0.2509 0.03264 0.18275 0.0
C89 C 0.24529 0.01876 0.12728 0.0
C90 C 0.25864 0.01323 0.06826 0.0
H91 H 0.52738 0.29204 0.19942 0.0
H92 H 0.52072 0.23324 0.2794 0.0
H93 H 0.49999 0.24919 0.05198 0.0
H94 H 0.47694 0.20969 0.13946 0.0
C95 C 0.48798 0.21134 0.18631 0.0
O96 O 0.50453 0.21985 0.15428 0.0
H97 H 0.48148 0.22097 0.23142 0.0
C98 C 0.52262 0.2772 0.18861 0.0
C99 C 0.51371 0.27259 0.11749 0.0
C100 C 0.52508 0.26318 0.24705 0.0
C101 C 0.51862 0.24412 0.23468 0.0
C102 C 0.50954 0.2389 0.16501 0.0
C103 C 0.5068 0.25324 0.10633 0.0
Gd104 Gd 0.02064 0.99769 0.75856 0.0
Gd105 Gd 0.99935 1.00783 0.62566 0.0
C106 C 0.00971 0.96314 0.63367 0.0
C107 C 0.03552 0.9828 0.88309 0.0
C108 C 0.04853 0.96637 0.89979 0.0
C109 C 0.06285 0.96057 0.84638 0.0
C110 C 0.04535 0.95524 0.96647 0.0
C111 C 0.06868 0.93105 0.92102 0.0
C112 C 0.05533 0.93773 0.97711 0.0
C113 C 0.07298 0.94311 0.8573 0.0
C114 C 0.04473 1.00822 0.63966 0.0
C115 C 0.00972 0.04216 0.7493 0.0
C116 C 0.98448 0.02526 0.50689 0.0
C117 C 0.97591 0.0448 0.50393 0.0
C118 C 0.97036 0.05387 0.5735 0.0
C119 C 0.97595 0.0555 0.43476 0.0
C120 C 0.96741 0.08473 0.5066 0.0
C121 C 0.97155 0.07541 0.43598 0.0
C122 C 0.96628 0.07375 0.57492 0.0
C123 C 0.97548 0.99685 0.74424 0.0
O124 O 0.01434 0.96736 0.70656 0.0
O125 O 1.00556 0.97738 0.58506 0.0
O126 O 0.04327 0.99748 0.8461 0.0
O127 O 0.01824 0.9781 0.85672 0.0
O128 O 0.04661 0.01386 0.71075 0.0
O129 O 0.02989 0.99737 0.63388 0.0
O130 O 1.00708 0.0379 0.67533 0.0
O131 O 0.01222 0.02779 0.7989 0.0
O132 O 0.97488 0.01252 0.54809 0.0
O133 O 1.0032 0.02504 0.52144 0.0
O134 O 0.97365 0.99119 0.67307 0.0
O135 O 0.99015 1.00794 0.75021 0.0
H136 H 0.06552 0.96902 0.79437 0.0
H137 H 0.03431 0.95951 0.0081 0.0
H138 H 0.05134 0.92874 0.02621 0.0
H139 H 0.08329 0.93848 0.81348 0.0
H140 H 0.97029 0.04584 0.6276 0.0
H141 H 0.98039 0.04873 0.38084 0.0
H142 H 0.97269 0.08378 0.38287 0.0
H143 H 0.96319 0.08075 0.6299 0.0
Gd144 Gd 0.51743 0.00996 0.77157 0.0
Gd145 Gd 0.50309 0.99224 0.61709 0.0
C146 C 0.54977 0.99742 0.64507 0.0
C147 C 0.5285 0.02084 0.90724 0.0
C148 C 0.5459 0.03208 0.9309 0.0
C149 C 0.54933 0.05095 0.90158 0.0
C150 C 0.5605 0.0229 0.97483 0.0
C151 C 0.58242 0.05014 0.9518 0.0
C152 C 0.57864 0.0318 0.98484 0.0
C153 C 0.56743 0.05995 0.91241 0.0
C154 C 0.51506 0.03554 0.65151 0.0
C155 C 0.47079 1.00311 0.74632 0.0
C156 C 0.48881 0.99039 0.47955 0.0
C157 C 0.47223 1.00151 0.44695 0.0
C158 C 0.4536 0.99301 0.4449 0.0
C159 C 0.47403 0.02152 0.4312 0.0
C160 C 0.43868 0.02507 0.43097 0.0
C161 C 0.45743 0.03321 0.42413 0.0
C162 C 0.43702 1.00464 0.43659 0.0
C163 C 0.51065 0.96251 0.71993 0.0
O164 O 0.54626 1.00041 0.71974 0.0
O165 O 0.53541 0.99572 0.59392 0.0
O166 O 0.5152 0.03025 0.86726 0.0
O167 O 0.53213 1.00339 0.87963 0.0
O168 O 0.52877 0.03555 0.70331 0.0
O169 O 0.50288 0.02217 0.66672 0.0
O170 O 0.47433 1.00023 0.67186 0.0
O171 O 0.4852 1.00516 0.79717 0.0
O172 O 0.48412 0.97803 0.53445 0.0
O173 O 0.50468 1.00036 0.49581 0.0
O174 O 0.50506 0.95991 0.64886 0.0
O175 O 0.5125 0.98059 0.73013 0.0
H176 H 0.53841 0.05843 0.86719 0.0
H177 H 0.55821 0.0084 0.99814 0.0
H178 H 0.58993 0.02409 0.01652 0.0
H179 H 0.57003 0.0741 0.88647 0.0
H180 H 0.45176 0.9775 0.45467 0.0
H181 H 0.48823 0.02845 0.42977 0.0
H182 H 0.45942 0.04873 0.41763 0.0
H183 H 0.42289 0.99758 0.43742 0.0
Gd184 Gd 0.501 0.50835 0.75607 0.0
Gd185 Gd 0.52091 0.49532 0.62094 0.0
C186 C 0.51388 0.54027 0.62494 0.0
C187 C 0.49283 0.52934 0.87461 0.0
C188 C 0.50005 0.54935 0.8859 0.0
C189 C 0.48672 0.56477 0.89259 0.0
C190 C 0.5199 0.55354 0.87287 0.0
C191 C 0.51252 0.58802 0.86336 0.0
C192 C 0.52605 0.57268 0.86168 0.0
C193 C 0.49291 0.58398 0.88151 0.0
C194 C 0.47545 0.49685 0.64461 0.0
C195 C 0.50734 0.46274 0.7515 0.0
C196 C 0.5342 0.47514 0.50731 0.0
C197 C 0.54505 0.45684 0.51572 0.0
C198 C 0.5539 0.45257 0.58737 0.0
C199 C 0.54431 0.44254 0.45802 0.0
C200 C 0.55966 0.41932 0.54608 0.0
C201 C 0.55166 0.42388 0.47296 0.0
C202 C 0.56112 0.43397 0.60245 0.0
C203 C 0.54606 0.5066 0.73476 0.0
O204 O 0.5116 0.53672 0.69977 0.0
O205 O 0.51504 0.52554 0.57608 0.0
O206 O 0.48072 0.52729 0.81657 0.0
O207 O 0.50605 0.51559 0.87678 0.0
O208 O 0.47347 0.49332 0.71817 0.0
O209 O 0.49085 0.50668 0.63285 0.0
O210 O 0.51364 0.46634 0.68038 0.0
O211 O 0.50225 0.47726 0.79732 0.0
O212 O 0.54312 0.49062 0.53372 0.0
O213 O 0.51599 0.47415 0.52958 0.0
O214 O 0.5482 0.51055 0.66201 0.0
O215 O 0.53078 0.49656 0.74394 0.0
H216 H 0.47135 0.56188 0.90179 0.0
H217 H 0.53054 0.54198 0.86609 0.0
H218 H 0.54123 0.57533 0.84761 0.0
H219 H 0.48225 0.59562 0.88495 0.0
H220 H 0.55437 0.46339 0.63318 0.0
H221 H 0.53724 0.4455 0.40302 0.0
H222 H 0.55003 0.41273 0.42892 0.0
H223 H 0.56722 0.43084 0.65911 0.0
Gd224 Gd 1.00512 0.49393 0.73821 0.0
Gd225 Gd 0.01912 0.5146 0.60572 0.0
C226 C 0.9741 0.50908 0.60853 0.0
C227 C 0.98304 0.48384 0.85153 0.0
C228 C 0.96245 0.48969 0.8616 0.0
C229 C 0.94757 0.4758 0.85236 0.0
C230 C 0.95742 0.50957 0.86557 0.0
C231 C 0.92338 0.50167 0.8416 0.0
C232 C 0.93811 0.51547 0.85575 0.0
C233 C 0.92821 0.48173 0.84229 0.0
C234 C 0.01652 0.46935 0.62307 0.0
C235 C 0.05066 0.49953 0.73784 0.0
C236 C 0.04008 0.52763 0.49343 0.0
C237 C 0.06052 0.53454 0.49683 0.0
C238 C 0.06468 0.55462 0.4943 0.0
C239 C 0.07574 0.52139 0.51317 0.0
C240 C 0.09831 0.54827 0.53199 0.0
C241 C 0.09437 0.5282 0.53091 0.0
C242 C 0.08346 0.56144 0.51146 0.0
C243 C 1.00765 0.5389 0.72169 0.0
O244 O 0.97763 0.50699 0.68345 0.0
O245 O 0.98885 0.50945 0.55966 0.0
O246 O 0.98633 0.47243 0.79232 0.0
O247 O 0.99603 0.49774 0.8576 0.0
O248 O 0.02022 0.46671 0.69619 0.0
O249 O 1.00683 0.48493 0.61394 0.0
O250 O 0.04753 0.50549 0.66581 0.0
O251 O 0.03583 0.49524 0.78337 0.0
O252 O 0.02739 0.53847 0.52996 0.0
O253 O 0.03732 0.50899 0.50562 0.0
O254 O 1.00363 0.54155 0.64905 0.0
O255 O 0.01759 0.52349 0.72971 0.0
H256 H 0.95107 0.46041 0.84876 0.0
H257 H 0.96849 0.52074 0.87174 0.0
H258 H 0.93493 0.53094 0.85502 0.0
H259 H 0.9171 0.47072 0.83337 0.0
H260 H 0.05325 0.56509 0.48182 0.0
H261 H 0.07316 0.50582 0.5151 0.0
H262 H 0.10572 0.5177 0.54423 0.0
H263 H 0.08622 0.57699 0.51091 0.0
H264 H 0.18536 0.98137 0.13922 0.0
H265 H 0.15456 0.98454 0.21037 0.0
H266 H 0.18293 0.02188 0.37731 0.0
H267 H 0.21384 0.01836 0.30677 0.0
H268 H 0.16196 0.99561 0.45094 0.0
H269 H 0.14901 0.03904 0.23819 0.0
H270 H 0.14618 0.04859 0.10076 0.0
H271 H 0.10284 1.00429 0.06445 0.0
H272 H 0.10559 0.99429 0.20148 0.0
H273 H 0.07891 0.02819 0.65366 0.0
H274 H 0.10747 0.02711 0.5692 0.0
H275 H 0.07725 0.98786 0.41498 0.0
H276 H 0.04835 0.98911 0.49948 0.0
H277 H 0.09854 0.0142 0.33288 0.0
H278 H 0.11106 0.97082 0.54374 0.0
H279 H 0.11343 0.96097 0.68094 0.0
H280 H 0.15753 1.00438 0.71983 0.0
H281 H 0.15519 0.01473 0.58309 0.0
C282 C 0.18495 0.99044 0.1906 0.0
C283 C 0.20207 0.99956 0.21751 0.0
C284 C 0.16728 0.99231 0.23128 0.0
C285 C 0.1662 1.00355 0.29949 0.0
C286 C 0.18324 0.01307 0.3252 0.0
C287 C 0.20091 0.01117 0.28458 0.0
C288 C 0.14763 1.00474 0.34578 0.0
C289 C 0.14819 0.99998 0.42511 0.0
C290 C 0.12936 0.00978 0.31227 0.0
C291 C 0.12765 0.0158 0.22992 0.0
C292 C 0.13898 0.03123 0.20076 0.0
C293 C 0.13737 0.03675 0.12296 0.0
C294 C 0.12438 0.02702 0.07386 0.0
C295 C 0.11292 0.01179 0.10252 0.0
C296 C 0.11448 1.00621 0.18027 0.0
C297 C 0.07824 0.01941 0.6015 0.0
C298 C 0.06135 0.00862 0.58375 0.0
C299 C 0.09468 0.01874 0.55326 0.0
C300 C 0.0948 1.00712 0.48605 0.0
C301 C 0.07765 0.99688 0.46652 0.0
C302 C 0.06112 0.99758 0.51494 0.0
C303 C 0.113 1.00533 0.43801 0.0
C304 C 0.11235 0.00987 0.35853 0.0
C305 C 0.1312 1.0 0.4712 0.0
C306 C 0.13282 0.99367 0.55329 0.0
C307 C 0.12117 0.97837 0.58166 0.0
C308 C 0.12251 0.97268 0.65934 0.0
C309 C 0.13559 0.98207 0.7091 0.0
C310 C 0.14739 0.99714 0.68122 0.0
C311 C 0.14607 1.00291 0.60362 0.0
H312 H 0.13661 0.97765 0.76923 0.0
H313 H 0.12316 0.03131 0.01364 0.0
H314 H 0.52038 0.19906 0.2718 0.0
H315 H 0.52454 0.16864 0.34433 0.0
H316 H 0.4686 0.14858 0.26163 0.0
H317 H 0.46423 0.17924 0.19083 0.0
H318 H 0.47092 0.14043 0.40764 0.0
H319 H 0.51374 0.12979 0.19394 0.0
H320 H 0.54059 0.13654 0.10277 0.0
H321 H 0.58158 0.13683 0.29138 0.0
H322 H 0.55492 0.13037 0.38389 0.0
H323 H 0.48242 0.04451 0.56482 0.0
H324 H 0.47764 0.07257 0.47829 0.0
H325 H 0.53515 0.09353 0.53632 0.0
H326 H 0.54037 0.06495 0.61806 0.0
H327 H 0.53094 0.10018 0.39566 0.0
H328 H 0.48632 0.11272 0.61062 0.0
H329 H 0.45901 0.10394 0.69708 0.0
H330 H 0.42087 0.09841 0.50048 0.0
H331 H 0.448 0.10698 0.41281 0.0
C332 C 0.50908 0.1881 0.2681 0.0
C333 C 0.49214 0.19153 0.22378 0.0
C334 C 0.51149 0.17057 0.30965 0.0
C335 C 0.49701 0.15596 0.3082 0.0
C336 C 0.48008 0.15943 0.264 0.0
C337 C 0.47766 0.17694 0.22275 0.0
C338 C 0.49919 0.13739 0.35439 0.0
C339 C 0.48401 0.13156 0.40425 0.0
C340 C 0.51625 0.12568 0.35132 0.0
C341 C 0.53229 0.12981 0.29596 0.0
C342 C 0.52845 0.13149 0.21609 0.0
C343 C 0.54364 0.13522 0.16414 0.0
C344 C 0.56277 0.13717 0.19129 0.0
C345 C 0.56675 0.13536 0.27045 0.0
C346 C 0.5516 0.13166 0.32266 0.0
C347 C 0.49415 0.05492 0.55765 0.0
C348 C 0.51187 0.05227 0.59739 0.0
C349 C 0.49131 0.07119 0.50905 0.0
C350 C 0.50586 0.0856 0.50077 0.0
C351 C 0.52359 0.08282 0.54071 0.0
C352 C 0.52656 0.06642 0.58799 0.0
C353 C 0.50291 0.10346 0.45064 0.0
C354 C 0.51791 0.10912 0.39957 0.0
C355 C 0.48564 0.11495 0.45234 0.0
C356 C 0.46921 0.1104 0.50522 0.0
C357 C 0.47211 0.10962 0.58589 0.0
C358 C 0.45667 0.10466 0.63506 0.0
C359 C 0.43823 0.10058 0.60425 0.0
C360 C 0.43516 0.10155 0.52422 0.0
C361 C 0.45055 0.10651 0.4748 0.0
H362 H 0.42632 0.09669 0.64238 0.0
H363 H 0.57451 0.14003 0.15097 0.0
H364 H 0.33925 0.48445 0.11058 0.0
H365 H 0.36965 0.48859 0.18437 0.0
H366 H 0.33634 0.49562 0.39455 0.0
H367 H 0.30597 0.49189 0.32031 0.0
H368 H 0.36588 0.51974 0.39851 0.0
H369 H 0.35948 0.45154 0.34287 0.0
H370 H 0.35558 0.42225 0.26137 0.0
H371 H 0.4089 0.43574 0.14238 0.0
H372 H 0.41297 0.4653 0.22249 0.0
H373 H 0.43707 0.49062 0.67868 0.0
H374 H 0.40909 0.49047 0.59034 0.0
H375 H 0.44751 0.50021 0.39668 0.0
H376 H 0.47572 0.50099 0.48567 0.0
H377 H 0.41709 0.46881 0.37813 0.0
H378 H 0.42394 0.53641 0.44199 0.0
H379 H 0.42778 0.56458 0.52949 0.0
H380 H 0.37322 0.55086 0.63884 0.0
H381 H 0.36921 0.52239 0.55275 0.0
C382 C 0.33845 0.48707 0.17242 0.0
C383 C 0.32022 0.48756 0.20979 0.0
C384 C 0.35585 0.48929 0.21481 0.0
C385 C 0.35549 0.49197 0.2958 0.0
C386 C 0.33719 0.49342 0.33245 0.0
C387 C 0.31979 0.49127 0.28999 0.0
C388 C 0.37405 0.49286 0.34253 0.0
C389 C 0.37694 0.50847 0.39428 0.0
C390 C 0.38888 0.47843 0.33665 0.0
C391 C 0.3864 0.46077 0.288 0.0
C392 C 0.37028 0.44837 0.29882 0.0
C393 C 0.36805 0.4317 0.25297 0.0
C394 C 0.38195 0.42718 0.19655 0.0
C395 C 0.39812 0.43929 0.18597 0.0
C396 C 0.4004 0.456 0.23159 0.0
C397 C 0.43964 0.4927 0.61729 0.0
C398 C 0.45869 0.49585 0.58932 0.0
C399 C 0.42357 0.49265 0.5668 0.0
C400 C 0.42611 0.49539 0.48676 0.0
C401 C 0.44516 0.49807 0.45818 0.0
C402 C 0.46126 0.49854 0.50906 0.0
C403 C 0.40875 0.49557 0.43384 0.0
C404 C 0.40606 0.48014 0.38144 0.0
C405 C 0.39405 0.51004 0.43956 0.0
C406 C 0.39639 0.52714 0.49146 0.0
C407 C 0.41286 0.53927 0.48523 0.0
C408 C 0.41505 0.55532 0.53446 0.0
C409 C 0.40078 0.55947 0.58985 0.0
C410 C 0.38428 0.54761 0.59599 0.0
C411 C 0.38203 0.53152 0.54694 0.0
H412 H 0.4025 0.57192 0.62788 0.0
H413 H 0.38021 0.41425 0.16118 0.0
H414 H 1.00383 0.34425 0.05737 0.0
H415 H 1.00636 0.37203 0.14594 0.0
H416 H 0.02603 0.33359 0.32783 0.0
H417 H 0.0236 0.30575 0.23914 0.0
H418 H 0.99877 0.35841 0.382 0.0
H419 H 0.05751 0.36519 0.23499 0.0
H420 H 0.07748 0.36774 0.11667 0.0
H421 H 0.04698 0.41995 0.05141 0.0
H422 H 0.02657 0.41754 0.16877 0.0
H423 H 0.02921 0.43197 0.6455 0.0
H424 H 0.02929 0.40489 0.55316 0.0
H425 H 1.00655 0.44292 0.37562 0.0
H426 H 1.00633 0.47018 0.46844 0.0
H427 H 0.03571 0.41856 0.3189 0.0
H428 H 0.97644 0.41148 0.4617 0.0
H429 H 0.95596 0.40916 0.57874 0.0
H430 H 0.98719 0.35789 0.65046 0.0
H431 H 1.00802 0.36005 0.53418 0.0
C432 C 0.00898 0.34174 0.11595 0.0
C433 C 0.01373 0.32272 0.14036 0.0
C434 C 0.01043 0.35768 0.16672 0.0
C435 C 0.01661 0.35511 0.24385 0.0
C436 C 0.02127 0.33609 0.26874 0.0
C437 C 0.0199 0.3201 0.2177 0.0
C438 C 0.01765 0.37216 0.29867 0.0
C439 C 1.00713 0.3714 0.36855 0.0
C440 C 0.02806 0.3895 0.28079 0.0
C441 C 0.04035 0.39105 0.21029 0.0
C442 C 0.05493 0.37712 0.19509 0.0
C443 C 0.06635 0.37856 0.12824 0.0
C444 C 0.06344 0.39395 0.0764 0.0
C445 C 0.04918 0.408 0.09152 0.0
C446 C 0.03768 0.40661 0.15822 0.0
C447 C 0.02429 0.43465 0.58673 0.0
C448 C 0.01767 0.45328 0.56464 0.0
C449 C 0.02428 0.41908 0.53389 0.0
C450 C 0.01773 0.42168 0.45726 0.0
C451 C 0.01165 0.44044 0.43428 0.0
C452 C 0.0115 0.45603 0.48747 0.0
C453 C 0.0169 0.40472 0.40212 0.0
C454 C 0.02741 0.40552 0.33226 0.0
C455 C 1.00644 0.38744 0.41977 0.0
C456 C 0.99392 0.38604 0.48965 0.0
C457 C 0.97904 0.3998 0.50275 0.0
C458 C 0.96735 0.3985 0.56888 0.0
C459 C 0.97031 0.38342 0.62214 0.0
C460 C 0.98493 0.36958 0.60921 0.0
C461 C 0.99667 0.37082 0.54316 0.0
H462 H 0.96125 0.38243 0.67332 0.0
H463 H 0.07226 0.39499 0.02458 0.0
H464 H 0.81011 0.98102 0.11525 0.0
H465 H 0.83823 0.98096 0.02734 0.0
H466 H 0.87131 0.01437 0.19378 0.0
H467 H 0.84307 0.01496 0.28029 0.0
H468 H 0.87922 0.02787 0.05784 0.0
H469 H 0.87716 0.96319 0.16455 0.0
H470 H 0.86241 0.93135 0.19595 0.0
H471 H 0.85368 0.91987 0.9536 0.0
H472 H 0.86816 0.95176 0.92081 0.0
H473 H 0.97343 0.01253 0.89122 0.0
H474 H 0.94542 0.01234 0.97987 0.0
H475 H 0.91204 0.97956 0.81235 0.0
H476 H 0.9401 0.97922 0.72516 0.0
H477 H 0.90433 0.96585 0.94888 0.0
H478 H 0.90671 0.03097 0.8433 0.0
H479 H 0.92215 0.06257 0.81386 0.0
H480 H 0.93093 0.07304 0.05695 0.0
H481 H 0.91574 0.04135 0.08776 0.0
C482 C 0.82327 0.9886 0.1326 0.0
C483 C 0.82416 0.99836 0.20438 0.0
C484 C 0.83949 0.98838 0.08252 0.0
C485 C 0.85718 0.99749 0.10373 0.0
C486 C 0.85796 1.00729 0.17528 0.0
C487 C 0.84176 1.00763 0.22487 0.0
C488 C 0.87493 0.99678 0.05238 0.0
C489 C 0.88479 0.01423 0.03488 0.0
C490 C 0.88224 0.97912 0.02074 0.0
C491 C 0.87356 0.95994 0.0403 0.0
C492 C 0.87197 0.95393 0.118 0.0
C493 C 0.86367 0.93587 0.13604 0.0
C494 C 0.85706 0.92362 0.07682 0.0
C495 C 0.85878 0.92939 0.99942 0.0
C496 C 0.86704 0.94744 0.98107 0.0
C497 C 0.96016 1.00518 0.87362 0.0
C498 C 0.95902 0.99598 0.80083 0.0
C499 C 0.94404 1.0052 0.92415 0.0
C500 C 0.92629 0.99625 0.90271 0.0
C501 C 0.9254 0.98664 0.83074 0.0
C502 C 0.94151 0.9865 0.78063 0.0
C503 C 0.90858 0.99694 0.95426 0.0
C504 C 0.89874 0.97948 0.9718 0.0
C505 C 0.90133 0.01458 0.98619 0.0
C506 C 0.91025 0.03372 0.96776 0.0
C507 C 0.91204 0.03997 0.89043 0.0
C508 C 0.92074 0.0579 0.87352 0.0
C509 C 0.92758 0.06979 0.93351 0.0
C510 C 0.92566 0.0638 0.01054 0.0
C511 C 0.91698 0.04586 0.02777 0.0
H512 H 0.93432 0.08368 0.92045 0.0
H513 H 0.85064 0.90964 0.0909 0.0
H514 H 0.51708 0.83434 0.28688 0.0
H515 H 0.52107 0.86307 0.20326 0.0
H516 H 0.50975 0.8275 1.00193 0.0
H517 H 0.50607 0.79876 0.08556 0.0
H518 H 0.5376 0.85307 0.96905 0.0
H519 H 0.47401 0.85756 0.08727 0.0
H520 H 0.45075 0.85891 0.19616 0.0
H521 H 0.47912 0.91028 0.28343 0.0
H522 H 0.50271 0.90908 0.17553 0.0
H523 H 0.50781 0.92357 0.69423 0.0
H524 H 0.51026 0.89684 0.78707 0.0
H525 H 0.52161 0.93802 0.97062 0.0
H526 H 0.51884 0.96505 0.87705 0.0
H527 H 0.49618 0.91106 0.01905 0.0
H528 H 0.55823 0.90823 0.89579 0.0
H529 H 0.58135 0.90723 0.78644 0.0
H530 H 0.55637 0.85318 0.70916 0.0
H531 H 0.5329 0.85399 0.81744 0.0
C532 C 0.51567 0.83265 0.22469 0.0
C533 C 0.51104 0.81431 0.19299 0.0
C534 C 0.51779 0.84912 0.1768 0.0
C535 C 0.5153 0.84772 0.09585 0.0
C536 C 0.51163 0.82916 0.06395 0.0
C537 C 0.50952 0.81269 0.11184 0.0
C538 C 0.51597 0.86552 0.04462 0.0
C539 C 0.52839 0.86565 0.97975 0.0
C540 C 0.50442 0.88235 0.05906 0.0
C541 C 0.49025 0.8831 0.12384 0.0
C542 C 0.47537 0.86905 0.13002 0.0
C543 C 0.46212 0.86981 0.19149 0.0
C544 C 0.4635 0.88464 0.24681 0.0
C545 C 0.4781 0.89878 0.24063 0.0
C546 C 0.4914 0.89807 0.17931 0.0
C547 C 0.51099 0.927 0.75425 0.0
C548 C 0.51327 0.94651 0.77793 0.0
C549 C 0.51248 0.91161 0.8075 0.0
C550 C 0.51643 0.91519 0.88626 0.0
C551 C 0.51865 0.93473 0.91032 0.0
C552 C 0.51717 0.95021 0.8567 0.0
C553 C 0.51764 0.8985 0.94294 0.0
C554 C 0.50554 0.89857 0.00873 0.0
C555 C 0.52953 0.88187 0.92945 0.0
C556 C 0.5437 0.88125 0.86446 0.0
C557 C 0.55757 0.8962 0.85519 0.0
C558 C 0.57076 0.89565 0.79343 0.0
C559 C 0.5703 0.88017 0.74081 0.0
C560 C 0.55669 0.86517 0.74995 0.0
C561 C 0.54346 0.86565 0.81157 0.0
H562 H 0.58051 0.87978 0.69302 0.0
H563 H 0.45322 0.8852 0.29435 0.0
H564 H 0.67999 0.4979 0.27768 0.0
H565 H 0.64982 0.50163 0.202 0.0
H566 H 0.68378 0.51263 0.99643 0.0
H567 H 0.71396 0.50855 0.07178 0.0
H568 H 0.65099 0.53733 0.00818 0.0
H569 H 0.66527 0.46826 0.02647 0.0
H570 H 0.67204 0.43764 0.09663 0.0
H571 H 0.61715 0.44237 0.21499 0.0
H572 H 0.61017 0.47317 0.14625 0.0
H573 H 0.58316 0.51925 0.70834 0.0
H574 H 0.61074 0.51989 0.79778 0.0
H575 H 0.57382 0.49815 0.9808 0.0
H576 H 0.54618 0.49677 0.88978 0.0
H577 H 0.6068 0.4802 0.98972 0.0
H578 H 0.59057 0.54725 0.97044 0.0
H579 H 0.58265 0.5783 0.90553 0.0
H580 H 0.63925 0.57894 0.79903 0.0
H581 H 0.64741 0.54771 0.86227 0.0
C582 C 0.68101 0.50133 0.21653 0.0
C583 C 0.6994 0.5029 0.18077 0.0
C584 C 0.66374 0.50339 0.17317 0.0
C585 C 0.66442 0.50722 0.09304 0.0
C586 C 0.68278 0.50969 0.05801 0.0
C587 C 0.70006 0.50743 0.10122 0.0
C588 C 0.6461 0.50778 0.04516 0.0
C589 C 0.64142 0.52478 0.00354 0.0
C590 C 0.63316 0.49168 0.04089 0.0
C591 C 0.6373 0.47312 0.08185 0.0
C592 C 0.65472 0.46285 0.06791 0.0
C593 C 0.65858 0.44545 0.10733 0.0
C594 C 0.64506 0.43809 0.1604 0.0
C595 C 0.62762 0.4481 0.17397 0.0
C596 C 0.6237 0.46552 0.13476 0.0
C597 C 0.58083 0.5147 0.76775 0.0
C598 C 0.5624 0.50799 0.79182 0.0
C599 C 0.59667 0.51519 0.81929 0.0
C600 C 0.5945 0.5094 0.89708 0.0
C601 C 0.57602 0.50276 0.9214 0.0
C602 C 0.56016 0.50205 0.86939 0.0
C603 C 0.61167 0.50973 0.95168 0.0
C604 C 0.6162 0.49287 0.99461 0.0
C605 C 0.62428 0.52611 0.95819 0.0
C606 C 0.61955 0.54503 0.92068 0.0
C607 C 0.60129 0.55394 0.9328 0.0
C608 C 0.59676 0.57159 0.89633 0.0
C609 C 0.61043 0.58057 0.8481 0.0
C610 C 0.62868 0.57196 0.83639 0.0
C611 C 0.63327 0.55428 0.87259 0.0
H612 H 0.60689 0.59423 0.81989 0.0
H613 H 0.64808 0.42462 0.19086 0.0
H614 H 0.02459 0.66915 0.26625 0.0
H615 H 0.02178 0.64007 0.18479 0.0
H616 H 0.98816 0.67276 0.01794 0.0
H617 H 0.99089 0.70197 0.09995 0.0
H618 H 0.9735 0.63522 0.03654 0.0
H619 H 0.03598 0.6645 0.98755 0.0
H620 H 0.06815 0.67805 0.02247 0.0
H621 H 0.08485 0.62316 0.12255 0.0
H622 H 0.05265 0.60936 0.08918 0.0
H623 H 0.9879 0.57332 0.70893 0.0
H624 H 0.98661 0.60031 0.80158 0.0
H625 H 0.02221 0.56744 0.96138 0.0
H626 H 0.02359 0.54033 0.86826 0.0
H627 H 0.03527 0.60445 0.94957 0.0
H628 H 0.97369 0.57445 0.9945 0.0
H629 H 0.94185 0.56036 0.95842 0.0
H630 H 0.92342 0.61569 0.86744 0.0
H631 H 0.9553 0.63006 0.90174 0.0
C632 C 0.01625 0.67008 0.21298 0.0
C633 C 1.00764 0.68787 0.19059 0.0
C634 C 0.01478 0.65343 0.16599 0.0
C635 C 1.00489 0.65411 0.0945 0.0
C636 C 0.99582 0.67173 0.07278 0.0
C637 C 0.99735 0.68846 0.11985 0.0
C638 C 1.00486 0.63674 0.0413 0.0
C639 C 0.98701 0.62866 0.0168 0.0
C640 C 0.02244 0.62772 0.01667 0.0
C641 C 0.04183 0.63596 0.03658 0.0
C642 C 0.04645 0.65537 0.01756 0.0
C643 C 0.0647 0.66308 0.03698 0.0
C644 C 0.07852 0.65149 0.07489 0.0
C645 C 0.07413 0.63213 0.09329 0.0
C646 C 0.05588 0.62435 0.0741 0.0
C647 C 0.99534 0.57175 0.76406 0.0
C648 C 1.00587 0.55464 0.78105 0.0
C649 C 0.99453 0.58721 0.81727 0.0
C650 C 1.0042 0.58601 0.88914 0.0
C651 C 0.01461 0.56882 0.90652 0.0
C652 C 0.01533 0.55327 0.85335 0.0
C653 C 1.00392 0.6029 0.94469 0.0
C654 C 0.02173 0.61093 0.96951 0.0
C655 C 0.9863 0.61178 0.96977 0.0
C656 C 0.96698 0.6033 0.95006 0.0
C657 C 0.96291 0.58359 0.96628 0.0
C658 C 0.94484 0.57555 0.94619 0.0
C659 C 0.93064 0.58711 0.91048 0.0
C660 C 0.93445 0.60675 0.89502 0.0
C661 C 0.95252 0.61486 0.91483 0.0
H662 H 0.91666 0.58085 0.89493 0.0
H663 H 0.09264 0.65749 0.08986 0.0
H664 H 0.95629 0.23499 0.23526 0.0
H665 H 0.94867 0.21649 0.35136 0.0
H666 H 1.0012 0.23789 0.46068 0.0
H667 H 0.00909 0.25611 0.34317 0.0
H668 H 1.00423 0.20107 0.42806 0.0
H669 H 0.95762 0.23698 0.56428 0.0
H670 H 0.92927 0.2583 0.58734 0.0
H671 H 0.89108 0.21477 0.4924 0.0
H672 H 0.91919 0.19327 0.46752 0.0
H673 H 0.99226 0.10719 0.58716 0.0
H674 H 0.99425 0.14282 0.58864 0.0
H675 H 0.94471 0.14579 0.43386 0.0
H676 H 0.94267 0.11 0.43351 0.0
H677 H 0.94348 0.17484 0.5438 0.0
H678 H 0.99102 0.1475 0.36254 0.0
H679 H 0.01908 0.12685 0.32643 0.0
H680 H 0.05463 0.15566 0.49681 0.0
H681 H 0.0267 0.17639 0.5342 0.0
C682 C 0.96572 0.23646 0.28544 0.0
C683 C 0.98355 0.24639 0.27974 0.0
C684 C 0.96124 0.22607 0.35244 0.0
C685 C 0.97455 0.22552 0.41444 0.0
C686 C 0.99078 0.23804 0.41332 0.0
C687 C 0.9953 0.24842 0.34605 0.0
C688 C 0.97482 0.20789 0.46393 0.0
C689 C 0.99116 0.19567 0.45637 0.0
C690 C 0.9577 0.20064 0.4994 0.0
C691 C 0.9406 0.21346 0.51407 0.0
C692 C 0.9432 0.23197 0.54784 0.0
C693 C 0.92715 0.24409 0.56131 0.0
C694 C 0.90838 0.23789 0.54139 0.0
C695 C 0.90562 0.21954 0.50797 0.0
C696 C 0.92162 0.20735 0.49437 0.0
C697 C 0.98155 0.11556 0.55525 0.0
C698 C 0.96721 0.10611 0.51104 0.0
C699 C 0.98278 0.13582 0.55546 0.0
C700 C 0.96962 0.14691 0.51137 0.0
C701 C 0.95486 0.13746 0.46896 0.0
C702 C 0.95376 0.11713 0.46827 0.0
C703 C 0.97238 0.16815 0.50291 0.0
C704 C 0.95672 0.18074 0.51863 0.0
C705 C 0.99003 0.17584 0.4737 0.0
C706 C 1.00675 0.16328 0.45184 0.0
C707 C 1.00479 0.14931 0.39267 0.0
C708 C 0.02067 0.13763 0.37187 0.0
C709 C 0.03861 0.13989 0.40951 0.0
C710 C 0.04071 0.15389 0.46786 0.0
C711 C 0.02488 0.16561 0.48884 0.0
H712 H 0.05089 0.13084 0.39331 0.0
H713 H 0.89598 0.2473 0.55184 0.0
H714 H 0.28033 0.0796 0.17481 0.0
H715 H 0.30608 0.09339 0.25671 0.0
H716 H 0.304 0.04223 0.40222 0.0
H717 H 0.2776 0.02905 0.32313 0.0
H718 H 0.32 0.07211 0.48122 0.0
H719 H 0.33594 0.03907 0.22367 0.0
H720 H 0.33335 0.03619 0.08129 0.0
H721 H 0.34188 0.09796 0.05802 0.0
H722 H 0.34513 0.10104 0.2003 0.0
H723 H 0.4048 0.01833 0.51146 0.0
H724 H 0.37447 0.03618 0.50299 0.0
H725 H 0.40256 0.08017 0.36303 0.0
H726 H 0.43239 0.0611 0.36283 0.0
H727 H 0.3741 0.06871 0.29127 0.0
H728 H 0.37904 0.08922 0.55143 0.0
H729 H 0.38517 0.08711 0.69208 0.0
H730 H 0.33822 0.04613 0.71604 0.0
H731 H 0.33196 0.04769 0.57546 0.0
C732 C 0.28457 0.07195 0.22718 0.0
C733 C 0.27722 0.05324 0.24265 0.0
C734 C 0.29943 0.0797 0.27341 0.0
C735 C 0.30749 0.06847 0.3336 0.0
C736 C 0.29814 0.05111 0.3557 0.0
C737 C 0.28298 0.04358 0.31057 0.0
C738 C 0.32778 0.07191 0.36043 0.0
C739 C 0.33198 0.07166 0.44022 0.0
C740 C 0.3434 0.07187 0.30685 0.0
C741 C 0.34041 0.07032 0.22215 0.0
C742 C 0.33714 0.05202 0.18801 0.0
C743 C 0.33572 0.05034 0.1074 0.0
C744 C 0.33726 0.06691 0.06064 0.0
C745 C 0.34055 0.08516 0.09434 0.0
C746 C 0.34231 0.08687 0.17486 0.0
C747 C 0.40458 0.03167 0.47788 0.0
C748 C 0.421 0.03772 0.43515 0.0
C749 C 0.38726 0.0423 0.4754 0.0
C750 C 0.3861 0.05971 0.43279 0.0
C751 C 0.403 0.06675 0.39616 0.0
C752 C 0.42017 0.05577 0.39634 0.0
C753 C 0.36666 0.06797 0.41281 0.0
C754 C 0.36253 0.0703 0.33369 0.0
C755 C 0.35129 0.06967 0.46744 0.0
C756 C 0.35496 0.06867 0.55249 0.0
C757 C 0.37004 0.07969 0.5865 0.0
C758 C 0.37354 0.07859 0.66632 0.0
C759 C 0.36201 0.06658 0.71296 0.0
C760 C 0.34705 0.05552 0.67985 0.0
C761 C 0.34349 0.05656 0.60009 0.0
H762 H 0.36462 0.06585 0.77478 0.0
H763 H 0.33597 0.06562 0.99831 0.0
H764 H 0.55917 0.28254 0.26829 0.0
H765 H 0.57044 0.29816 0.38655 0.0
H766 H 0.52258 0.27245 0.51312 0.0
H767 H 0.51103 0.25695 0.39323 0.0
H768 H 0.52113 0.30985 0.52494 0.0
H769 H 0.57036 0.26628 0.58417 0.0
H770 H 0.59695 0.2425 0.56646 0.0
H771 H 0.63339 0.28725 0.46999 0.0
H772 H 0.60696 0.31125 0.48582 0.0
H773 H 0.54916 0.3995 0.67659 0.0
H774 H 0.54971 0.36413 0.69438 0.0
H775 H 0.58043 0.35759 0.47826 0.0
H776 H 0.58005 0.39291 0.45994 0.0
H777 H 0.58941 0.32776 0.58911 0.0
H778 H 0.53195 0.36327 0.47857 0.0
H779 H 0.50522 0.38708 0.49432 0.0
H780 H 0.48419 0.35551 0.69241 0.0
H781 H 0.51076 0.33152 0.67726 0.0
C782 C 0.55137 0.2798 0.32179 0.0
C783 C 0.53408 0.26887 0.32162 0.0
C784 C 0.55798 0.28848 0.38988 0.0
C785 C 0.54745 0.28639 0.45928 0.0
C786 C 0.53101 0.27415 0.46049 0.0
C787 C 0.52442 0.26534 0.39207 0.0
C788 C 0.55121 0.30046 0.52288 0.0
C789 C 0.53598 0.31327 0.54212 0.0
C790 C 0.57049 0.30492 0.54658 0.0
C791 C 0.58661 0.29063 0.53655 0.0
C792 C 0.584 0.27106 0.55882 0.0
C793 C 0.59907 0.25753 0.54913 0.0
C794 C 0.61686 0.26337 0.51722 0.0
C795 C 0.61962 0.28276 0.49494 0.0
C796 C 0.6046 0.29636 0.50452 0.0
C797 C 0.55675 0.39059 0.63444 0.0
C798 C 0.56425 0.39885 0.56601 0.0
C799 C 0.55711 0.37041 0.64511 0.0
C800 C 0.56495 0.35831 0.58761 0.0
C801 C 0.57435 0.36671 0.52351 0.0
C802 C 0.5739 0.38685 0.51252 0.0
C803 C 0.55962 0.33749 0.58345 0.0
C804 C 0.5745 0.32358 0.57603 0.0
C805 C 0.53998 0.33188 0.57113 0.0
C806 C 0.52358 0.34588 0.57804 0.0
C807 C 0.52165 0.36147 0.5256 0.0
C808 C 0.5065 0.37495 0.53422 0.0
C809 C 0.49302 0.37282 0.59438 0.0
C810 C 0.49464 0.35715 0.64584 0.0
C811 C 0.50977 0.34364 0.63738 0.0
H812 H 0.48135 0.38332 0.60118 0.0
H813 H 0.6285 0.25286 0.50972 0.0
H814 H 0.26405 0.51675 0.36935 0.0
H815 H 0.24906 0.52983 0.48721 0.0
H816 H 0.21577 0.57039 0.34842 0.0
H817 H 0.23147 0.55823 0.23195 0.0
H818 H 0.21914 0.58449 0.48984 0.0
H819 H 0.2017 0.52014 0.37432 0.0
H820 H 0.20963 0.4861 0.33988 0.0
H821 H 0.22581 0.47443 0.57613 0.0
H822 H 0.21816 0.50848 0.61156 0.0
H823 H 0.12055 0.57437 0.4526 0.0
H824 H 0.1555 0.57949 0.46662 0.0
H825 H 0.15605 0.54256 0.66941 0.0
H826 H 0.12097 0.53719 0.65463 0.0
H827 H 0.17834 0.52825 0.56889 0.0
H828 H 0.17436 0.59086 0.67228 0.0
H829 H 0.16321 0.62458 0.69301 0.0
H830 H 0.18344 0.64045 0.46621 0.0
H831 H 0.19449 0.60678 0.44361 0.0
C832 C 0.25418 0.52904 0.36448 0.0
C833 C 0.24834 0.53602 0.29132 0.0
C834 C 0.24559 0.53648 0.4319 0.0
C835 C 0.23078 0.55061 0.42648 0.0
C836 C 0.22697 0.55932 0.35434 0.0
C837 C 0.23574 0.55214 0.28742 0.0
C838 C 0.21618 0.55327 0.48909 0.0
C839 C 0.21022 0.57228 0.50825 0.0
C840 C 0.20509 0.53726 0.51634 0.0
C841 C 0.20968 0.51685 0.49527 0.0
C842 C 0.20704 0.5103 0.41873 0.0
C843 C 0.21148 0.49103 0.39905 0.0
C844 C 0.2183 0.47813 0.45573 0.0
C845 C 0.22062 0.48446 0.53224 0.0
C846 C 0.21626 0.50375 0.55214 0.0
C847 C 0.12799 0.56797 0.50191 0.0
C848 C 0.11819 0.5551 0.55159 0.0
C849 C 0.14801 0.57105 0.5105 0.0
C850 C 0.15851 0.56151 0.56957 0.0
C851 C 0.1483 0.55016 0.62378 0.0
C852 C 0.1283 0.54694 0.61478 0.0
C853 C 0.18003 0.55964 0.56234 0.0
C854 C 0.18747 0.54067 0.55462 0.0
C855 C 0.19208 0.57575 0.54378 0.0
C856 C 0.18547 0.59619 0.55668 0.0
C857 C 0.17646 0.6015 0.62682 0.0
C858 C 0.17011 0.62064 0.63883 0.0
C859 C 0.17267 0.63467 0.58106 0.0
C860 C 0.18155 0.62958 0.5111 0.0
C861 C 0.18793 0.61046 0.49879 0.0
H862 H 0.16773 0.64948 0.59043 0.0
H863 H 0.22172 0.46321 0.44042 0.0
H864 H 0.02308 0.75585 0.03625 0.0
H865 H 0.03823 0.77877 0.94612 0.0
H866 H 0.99751 0.82328 0.01913 0.0
H867 H 0.98109 0.79988 0.10058 0.0
H868 H 0.01088 0.83636 0.90578 0.0
H869 H 0.04129 0.80873 0.12705 0.0
H870 H 0.05451 0.7828 0.21101 0.0
H871 H 0.09739 0.76882 0.03828 0.0
H872 H 0.08424 0.79461 0.95284 0.0
H873 H 0.07917 0.90812 0.04537 0.0
H874 H 0.07405 0.87289 0.05087 0.0
H875 H 0.06629 0.8715 0.8029 0.0
H876 H 0.07056 0.90652 0.7969 0.0
H877 H 0.08061 0.83504 0.98531 0.0
H878 H 0.02014 0.86676 0.78457 0.0
H879 H 1.00226 0.89806 0.7709 0.0
H880 H 0.01502 0.91229 0.00744 0.0
H881 H 0.03177 0.88071 0.02402 0.0
C882 C 0.01659 0.77014 0.02888 0.0
C883 C 1.00155 0.77649 0.07801 0.0
C884 C 0.02548 0.78338 0.97836 0.0
C885 C 0.01995 0.80314 0.97989 0.0
C886 C 1.00258 0.80832 0.01797 0.0
C887 C 0.99318 0.7949 0.06527 0.0
C888 C 0.03377 0.81884 0.95684 0.0
C889 C 0.02619 0.83571 0.92171 0.0
C890 C 0.05359 0.81882 0.98208 0.0
C891 C 0.06167 0.80342 0.03325 0.0
C892 C 0.05354 0.80012 0.10697 0.0
C893 C 0.06099 0.78543 0.15477 0.0
C894 C 0.07676 0.77413 0.12992 0.0
C895 C 0.08514 0.77755 0.05732 0.0
C896 C 0.07769 0.79219 0.00915 0.0
C897 C 0.07719 0.90019 0.99163 0.0
C898 C 0.07451 0.91022 0.92118 0.0
C899 C 0.07455 0.88 0.99479 0.0
C900 C 0.06936 0.8698 0.92743 0.0
C901 C 0.07018 0.87925 0.85548 0.0
C902 C 0.07265 0.89938 0.8523 0.0
C903 C 0.05752 0.85194 0.93431 0.0
C904 C 0.06548 0.83502 0.96659 0.0
C905 C 0.03744 0.85261 0.9159 0.0
C906 C 0.02724 0.87148 0.90512 0.0
C907 C 0.01893 0.87653 0.83359 0.0
C908 C 0.0091 0.89431 0.82531 0.0
C909 C 1.00781 0.90725 0.88763 0.0
C910 C 0.0161 0.90232 0.95898 0.0
C911 C 0.02564 0.88445 0.96799 0.0
H912 H 1.00029 0.92102 0.88074 0.0
H913 H 0.08252 0.76275 0.16697 0.0
H914 H 0.74294 0.02491 0.05888 0.0
H915 H 0.71989 0.04412 0.98419 0.0
H916 H 0.72339 0.09027 0.15425 0.0
H917 H 0.74562 0.07021 0.23177 0.0
H918 H 0.68947 0.07889 0.15192 0.0
H919 H 0.72892 0.09836 0.94567 0.0
H920 H 0.75418 0.09686 0.84432 0.0
H921 H 0.72184 0.05234 0.72534 0.0
H922 H 0.69654 0.05329 0.82647 0.0
H923 H 0.59386 0.08682 0.99572 0.0
H924 H 0.62754 0.09879 0.00948 0.0
H925 H 0.64923 0.04366 0.92506 0.0
H926 H 0.61584 0.03175 0.91131 0.0
H927 H 0.67164 0.07603 0.87366 0.0
H928 H 0.64338 0.04866 0.11531 0.0
H929 H 0.61901 0.04844 0.22057 0.0
H930 H 0.63185 0.10842 0.27098 0.0
H931 H 0.65623 0.10897 0.16558 0.0
C932 C 0.73956 0.03957 0.07816 0.0
C933 C 0.74583 0.04608 0.15106 0.0
C934 C 0.7264 0.05071 0.03506 0.0
C935 C 0.71966 0.06873 0.06352 0.0
C936 C 0.7282 0.07638 0.13124 0.0
C937 C 0.74098 0.06499 0.17538 0.0
C938 C 0.70061 0.07643 0.03523 0.0
C939 C 0.68584 0.07909 0.09075 0.0
C940 C 0.69559 0.07664 0.95547 0.0
C941 C 0.71075 0.07595 0.89392 0.0
C942 C 0.72722 0.08817 0.89815 0.0
C943 C 0.74156 0.08742 0.84066 0.0
C944 C 0.73961 0.07453 0.77841 0.0
C945 C 0.72331 0.06236 0.7735 0.0
C946 C 0.70892 0.06304 0.83083 0.0
C947 C 0.60587 0.07745 0.97893 0.0
C948 C 0.60238 0.05826 0.95398 0.0
C949 C 0.62502 0.08431 0.98641 0.0
C950 C 0.64083 0.07208 0.96826 0.0
C951 C 0.63724 0.05337 0.93881 0.0
C952 C 0.6182 0.04648 0.93211 0.0
C953 C 0.66101 0.07718 0.99078 0.0
C954 C 0.67574 0.0769 0.93432 0.0
C955 C 0.66615 0.07918 0.06963 0.0
C956 C 0.65138 0.07894 0.13214 0.0
C957 C 0.64085 0.06184 0.14844 0.0
C958 C 0.62708 0.06164 0.20816 0.0
C959 C 0.62381 0.07844 0.25218 0.0
C960 C 0.63434 0.09545 0.23664 0.0
C961 C 0.64814 0.09571 0.17696 0.0
H962 H 0.61319 0.07825 0.29855 0.0
H963 H 0.75073 0.07397 0.73398 0.0
H964 H 0.56897 0.72325 0.09904 0.0
H965 H 0.56925 0.70644 0.97518 0.0
H966 H 0.52145 0.74232 0.89554 0.0
H967 H 0.52085 0.75888 0.02087 0.0
H968 H 0.50998 0.70694 0.91863 0.0
H969 H 0.56057 0.7329 0.77231 0.0
H970 H 0.59249 0.74715 0.73959 0.0
H971 H 0.62106 0.694 0.80662 0.0
H972 H 0.58936 0.67948 0.84092 0.0
H973 H 0.49342 0.61445 0.77245 0.0
H974 H 0.5021 0.64854 0.75044 0.0
H975 H 0.55412 0.64094 0.8886 0.0
H976 H 0.54575 0.60677 0.90939 0.0
H977 H 0.55958 0.66874 0.77484 0.0
H978 H 0.51192 0.65231 0.97607 0.0
H979 H 0.48111 0.63746 0.0205 0.0
H980 H 0.44885 0.67351 0.86193 0.0
H981 H 0.47953 0.68841 0.8161 0.0
C982 C 0.55911 0.72813 0.05382 0.0
C983 C 0.54445 0.74181 0.07013 0.0
C984 C 0.55944 0.7187 0.98232 0.0
C985 C 0.5451 0.72285 0.92635 0.0
C986 C 0.53256 0.7388 0.93811 0.0
C987 C 0.53219 0.74822 0.00991 0.0
C988 C 0.5393 0.70699 0.87276 0.0
C989 C 0.52063 0.69906 0.88419 0.0
C990 C 0.55322 0.69645 0.82908 0.0
C991 C 0.57248 0.70507 0.8092 0.0
C992 C 0.57365 0.72426 0.78063 0.0
C993 C 0.59172 0.73239 0.76166 0.0
C994 C 0.60879 0.72148 0.77098 0.0
C995 C 0.60781 0.70242 0.79925 0.0
C996 C 0.58977 0.6942 0.81825 0.0
C997 C 0.50689 0.61997 0.7969 0.0
C998 C 0.51872 0.60808 0.84387 0.0
C999 C 0.51194 0.63937 0.78345 0.0
C1000 C 0.52865 0.64729 0.81845 0.0
C1001 C 0.54124 0.63507 0.86053 0.0
C1002 C 0.53632 0.6156 0.87312 0.0
C1003 C 0.53096 0.66861 0.82592 0.0
C1004 C 0.54881 0.67728 0.80593 0.0
C1005 C 0.51649 0.67986 0.86344 0.0
C1006 C 0.498 0.67122 0.89179 0.0
C1007 C 0.49825 0.65697 0.95044 0.0
C1008 C 0.48082 0.64856 0.97589 0.0
C1009 C 0.46304 0.65448 0.94381 0.0
C1010 C 0.46265 0.66889 0.88648 0.0
C1011 C 0.48005 0.67731 0.86069 0.0
H1012 H 0.44955 0.64794 0.96355 0.0
H1013 H 0.62278 0.72781 0.75629 0.0
H1014 H 0.79511 0.55963 0.08917 0.0
H1015 H 0.81082 0.56039 0.96346 0.0
H1016 H 0.76937 0.51824 0.87655 0.0
H1017 H 0.75417 0.51677 0.00424 0.0
H1018 H 0.80235 0.50292 0.87274 0.0
H1019 H 0.78189 0.5607 0.76351 0.0
H1020 H 0.77087 0.59471 0.74865 0.0
H1021 H 0.82684 0.61528 0.82526 0.0
H1022 H 0.83814 0.58146 0.84194 0.0
H1023 H 0.89796 0.48691 0.73321 0.0
H1024 H 0.86416 0.49697 0.70942 0.0
H1025 H 0.86962 0.54116 0.88629 0.0
H1026 H 0.90321 0.53135 0.90996 0.0
H1027 H 0.84613 0.5535 0.76432 0.0
H1028 H 0.85379 0.49413 0.93368 0.0
H1029 H 0.86445 0.45994 0.94978 0.0
H1030 H 0.83067 0.44327 0.75048 0.0
H1031 H 0.81996 0.47742 0.73308 0.0
C1032 C 0.78893 0.55102 0.04251 0.0
C1033 C 0.77389 0.53765 0.05722 0.0
C1034 C 0.79772 0.5517 0.96976 0.0
C1035 C 0.7915 0.53914 0.91015 0.0
C1036 C 0.77457 0.52794 0.92164 0.0
C1037 C 0.76585 0.52713 0.99483 0.0
C1038 C 0.80573 0.53369 0.84888 0.0
C1039 C 0.81138 0.514 0.84579 0.0
C1040 C 0.81755 0.54788 0.81223 0.0
C1041 C 0.81089 0.56842 0.80376 0.0
C1042 C 0.79183 0.57246 0.77772 0.0
C1043 C 0.78554 0.59173 0.76889 0.0
C1044 C 0.79816 0.60714 0.78589 0.0
C1045 C 0.8171 0.60332 0.81187 0.0
C1046 C 0.82348 0.58408 0.8208 0.0
C1047 C 0.89193 0.49878 0.76697 0.0
C1048 C 0.90318 0.50815 0.82436 0.0
C1049 C 0.87273 0.50469 0.75241 0.0
C1050 C 0.86438 0.51977 0.79622 0.0
C1051 C 0.87586 0.52966 0.85103 0.0
C1052 C 0.89503 0.52392 0.86502 0.0
C1053 C 0.8431 0.52335 0.79605 0.0
C1054 C 0.83629 0.54252 0.7869 0.0
C1055 C 0.83002 0.5087 0.82073 0.0
C1056 C 0.83624 0.48823 0.83174 0.0
C1057 C 0.84869 0.48314 0.89332 0.0
C1058 C 0.85474 0.4638 0.90262 0.0
C1059 C 0.84827 0.44945 0.85108 0.0
C1060 C 0.83569 0.4544 0.79026 0.0
C1061 C 0.82963 0.47373 0.78065 0.0
H1062 H 0.85298 0.43449 0.85834 0.0
H1063 H 0.79325 0.62205 0.779 0.0
H1064 H 0.97221 0.21355 0.03569 0.0
H1065 H 0.97416 0.18153 0.97574 0.0
H1066 H 0.03551 0.19041 0.93214 0.0
H1067 H 0.03377 0.22229 0.99711 0.0
H1068 H 0.98002 0.16542 0.85203 0.0
H1069 H 0.06051 0.14796 0.93384 0.0
H1070 H 0.08427 0.15594 0.03685 0.0
H1071 H 0.03736 0.16854 0.1939 0.0
H1072 H 0.01335 0.1605 0.09206 0.0
H1073 H 1.00638 0.07607 0.66339 0.0
H1074 H 1.00554 0.1099 0.71084 0.0
H1075 H 0.01069 0.08929 0.9457 0.0
H1076 H 0.01199 0.05563 0.89913 0.0
H1077 H 0.03253 0.11985 0.93125 0.0
H1078 H 0.96876 0.10319 0.85977 0.0
H1079 H 0.9405 0.09303 0.78169 0.0
H1080 H 0.94441 0.14547 0.64745 0.0
H1081 H 0.97387 0.15522 0.71942 0.0
C1082 C 0.98616 0.20881 0.01296 0.0
C1083 C 1.0029 0.22055 0.02256 0.0
C1084 C 0.98725 0.19037 0.97808 0.0
C1085 C 1.00508 0.18299 0.95042 0.0
C1086 C 0.02161 0.19529 0.95472 0.0
C1087 C 0.02056 0.21377 0.99075 0.0
C1088 C 1.00621 0.16232 0.91973 0.0
C1089 C 0.99165 0.15553 0.8686 0.0
C1090 C 0.02082 0.14891 0.94369 0.0
C1091 C 0.03517 0.15388 0.00501 0.0
C1092 C 0.05529 0.15244 0.99036 0.0
C1093 C 0.06879 0.15697 0.04853 0.0
C1094 C 0.06233 0.16283 0.12175 0.0
C1095 C 0.04235 0.16411 0.13705 0.0
C1096 C 0.02879 0.1596 0.07908 0.0
C1097 C 1.00732 0.0787 0.72519 0.0
C1098 C 0.00919 0.06294 0.77725 0.0
C1099 C 1.00674 0.0981 0.75222 0.0
C1100 C 1.00778 0.10235 0.832 0.0
C1101 C 0.00987 0.08662 0.88388 0.0
C1102 C 0.01054 0.06726 0.857 0.0
C1103 C 1.0066 0.12305 0.86159 0.0
C1104 C 0.02109 0.1298 0.91308 0.0
C1105 C 0.9913 0.1361 0.8407 0.0
C1106 C 0.97405 0.12973 0.79417 0.0
C1107 C 0.96411 0.11231 0.81198 0.0
C1108 C 0.94782 0.1066 0.76866 0.0
C1109 C 0.94079 0.11849 0.70917 0.0
C1110 C 0.95005 0.13614 0.69285 0.0
C1111 C 0.9667 0.14166 0.73435 0.0
H1112 H 0.92809 0.11411 0.67611 0.0
H1113 H 0.07281 0.16632 0.1667 0.0
H1114 H 0.29162 0.04463 0.94623 0.0
H1115 H 0.32266 0.04019 0.87815 0.0
H1116 H 0.33059 0.98487 0.9931 0.0
H1117 H 0.29918 0.98911 0.05913 0.0
H1118 H 0.35691 0.03999 0.93434 0.0
H1119 H 0.36253 0.9559 0.89664 0.0
H1120 H 0.34108 0.92801 0.86649 0.0
H1121 H 0.30091 0.96632 0.75063 0.0
H1122 H 0.32224 0.99439 0.77917 0.0
H1123 H 0.45657 0.01184 0.89198 0.0
H1124 H 0.42243 0.01426 0.93322 0.0
H1125 H 0.40345 0.9998 0.70187 0.0
H1126 H 0.43746 0.99734 0.6602 0.0
H1127 H 0.38182 0.98033 0.80586 0.0
H1128 H 0.40175 0.04572 0.76673 0.0
H1129 H 0.42153 0.07551 0.7807 0.0
H1130 H 0.40818 0.07761 0.02375 0.0
H1131 H 0.38852 0.04764 0.01153 0.0
C1132 C 0.29959 0.03112 0.9542 0.0
C1133 C 0.29263 0.01696 0.00637 0.0
C1134 C 0.31754 0.02871 0.91616 0.0
C1135 C 0.32922 0.01217 0.9299 0.0
C1136 C 0.32188 0.99762 0.97981 0.0
C1137 C 0.30378 0.99995 0.01731 0.0
C1138 C 0.34957 0.01092 0.89701 0.0
C1139 C 0.36228 0.02689 0.90643 0.0
C1140 C 0.35675 0.99408 0.85869 0.0
C1141 C 0.3439 0.97727 0.84079 0.0
C1142 C 0.34915 0.95836 0.86451 0.0
C1143 C 0.33701 0.94252 0.84773 0.0
C1144 C 0.31961 0.9454 0.8069 0.0
C1145 C 0.31435 0.96412 0.78253 0.0
C1146 C 0.32645 0.98 0.7991 0.0
C1147 C 0.44517 0.00914 0.84977 0.0
C1148 C 0.44995 1.00439 0.7726 0.0
C1149 C 0.42557 0.01059 0.87346 0.0
C1150 C 0.41019 1.0073 0.82076 0.0
C1151 C 0.41493 1.00234 0.74397 0.0
C1152 C 0.43449 1.00101 0.72012 0.0
C1153 C 0.38922 0.00918 0.84545 0.0
C1154 C 0.37642 0.99337 0.83426 0.0
C1155 C 0.3818 0.02636 0.88049 0.0
C1156 C 0.39387 0.04424 0.88839 0.0
C1157 C 0.40324 0.05236 0.82341 0.0
C1158 C 0.41437 0.06934 0.83094 0.0
C1159 C 0.41618 0.0784 0.90314 0.0
C1160 C 0.40681 0.07054 0.9679 0.0
C1161 C 0.39565 0.05357 0.96068 0.0
H1162 H 0.42479 0.09156 0.90885 0.0
H1163 H 0.31022 0.93313 0.794 0.0
H1164 H 0.48152 0.28487 0.03252 0.0
H1165 H 0.47866 0.3147 0.95361 0.0
H1166 H 0.53957 0.32702 0.99377 0.0
H1167 H 0.54254 0.2972 0.06941 0.0
H1168 H 0.48112 0.35076 0.98898 0.0
H1169 H 0.55985 0.35583 0.85433 0.0
H1170 H 0.58422 0.33433 0.79322 0.0
H1171 H 0.53985 0.29165 0.74768 0.0
H1172 H 0.51516 0.31293 0.8077 0.0
H1173 H 0.50099 0.44963 0.90035 0.0
H1174 H 0.50073 0.41609 0.94799 0.0
H1175 H 0.51137 0.3951 0.71617 0.0
H1176 H 0.51249 0.42868 0.6689 0.0
H1177 H 0.5305 0.37362 0.80028 0.0
H1178 H 0.46411 0.39218 0.82053 0.0
H1179 H 0.43586 0.41242 0.85775 0.0
H1180 H 0.44975 0.40421 0.09843 0.0
H1181 H 0.47823 0.38412 0.06265 0.0
C1182 C 0.4944 0.29366 0.02247 0.0
C1183 C 0.51226 0.28852 0.05751 0.0
C1184 C 0.49273 0.3109 0.97802 0.0
C1185 C 0.50891 0.32337 0.96684 0.0
C1186 C 0.52686 0.31776 0.99961 0.0
C1187 C 0.52853 0.30062 0.04356 0.0
C1188 C 0.50698 0.34277 0.92571 0.0
C1189 C 0.49192 0.35563 0.94736 0.0
C1190 C 0.52065 0.34928 0.86939 0.0
C1191 C 0.53563 0.33599 0.83617 0.0
C1192 C 0.55527 0.34183 0.83155 0.0
C1193 C 0.56916 0.32967 0.79704 0.0
C1194 C 0.56361 0.31158 0.76703 0.0
C1195 C 0.54416 0.3056 0.77151 0.0
C1196 C 0.53023 0.31769 0.80606 0.0
C1197 C 0.50314 0.43789 0.85922 0.0
C1198 C 0.50655 0.44205 0.7804 0.0
C1199 C 0.50283 0.41854 0.88658 0.0
C1200 C 0.50546 0.40262 0.83582 0.0
C1201 C 0.50906 0.40683 0.75709 0.0
C1202 C 0.50965 0.42619 0.72987 0.0
C1203 C 0.50501 0.38177 0.865 0.0
C1204 C 0.51965 0.36865 0.84127 0.0
C1205 C 0.49053 0.37475 0.91697 0.0
C1206 C 0.4734 0.38678 0.93885 0.0
C1207 C 0.46121 0.39479 0.88138 0.0
C1208 C 0.44515 0.40622 0.90223 0.0
C1209 C 0.44104 0.40963 0.9804 0.0
C1210 C 0.45296 0.40157 0.0379 0.0
C1211 C 0.46905 0.39014 0.01738 0.0
H1212 H 0.4286 0.41849 0.99644 0.0
H1213 H 0.57435 0.30224 0.73994 0.0
H1214 H 0.2286 0.4769 0.02224 0.0
H1215 H 0.19836 0.47293 0.94637 0.0
H1216 H 0.18565 0.53406 0.97657 0.0
H1217 H 0.21594 0.5382 0.04794 0.0
H1218 H 0.16203 0.47616 0.98598 0.0
H1219 H 0.15827 0.55284 0.85555 0.0
H1220 H 0.18 0.57768 0.79897 0.0
H1221 H 0.21894 0.5328 0.72038 0.0
H1222 H 0.1976 0.50766 0.77814 0.0
H1223 H 0.0631 0.49728 0.88952 0.0
H1224 H 0.09663 0.49721 0.93867 0.0
H1225 H 0.11838 0.49892 0.7042 0.0
H1226 H 0.08488 0.49946 0.65521 0.0
H1227 H 0.13921 0.52224 0.78352 0.0
H1228 H 0.11965 0.45619 0.82702 0.0
H1229 H 0.0986 0.42973 0.87588 0.0
H1230 H 0.10761 0.44947 0.10946 0.0
H1231 H 0.12852 0.4762 0.06194 0.0
C1232 C 0.21962 0.48957 0.01063 0.0
C1233 C 0.22478 0.50785 0.0417 0.0
C1234 C 0.20217 0.48727 0.96784 0.0
C1235 C 0.18954 0.50321 0.95448 0.0
C1236 C 0.1951 0.52153 0.98367 0.0
C1237 C 0.21246 0.52384 0.02564 0.0
C1238 C 0.17003 0.50072 0.91499 0.0
C1239 C 0.15715 0.48617 0.94129 0.0
C1240 C 0.16341 0.51351 0.85575 0.0
C1241 C 0.17638 0.52843 0.82124 0.0
C1242 C 0.17146 0.54828 0.82609 0.0
C1243 C 0.18372 0.5624 0.7939 0.0
C1244 C 0.20076 0.55681 0.75546 0.0
C1245 C 0.20571 0.53709 0.75002 0.0
C1246 C 0.19361 0.52291 0.78293 0.0
C1247 C 0.07501 0.49749 0.84831 0.0
C1248 C 0.07116 0.49841 0.76814 0.0
C1249 C 0.09429 0.49736 0.87657 0.0
C1250 C 0.11033 0.49777 0.82551 0.0
C1251 C 0.10646 0.49861 0.74536 0.0
C1252 C 0.08719 0.49893 0.71719 0.0
C1253 C 0.13105 0.49787 0.85537 0.0
C1254 C 0.14413 0.51204 0.82748 0.0
C1255 C 0.13793 0.48446 0.912 0.0
C1256 C 0.12553 0.46829 0.94083 0.0
C1257 C 0.11706 0.45495 0.88877 0.0
C1258 C 0.10516 0.4399 0.91623 0.0
C1259 C 0.10174 0.43796 0.9957 0.0
C1260 C 0.11027 0.45101 0.04791 0.0
C1261 C 0.12216 0.4661 0.02076 0.0
H1262 H 0.09251 0.42633 0.01686 0.0
H1263 H 0.21014 0.56776 0.72995 0.0
H1264 H 0.97064 0.78811 0.37749 0.0
H1265 H 0.9725 0.81979 0.44327 0.0
H1266 H 0.03503 0.81977 0.41534 0.0
H1267 H 0.03306 0.78823 0.34889 0.0
H1268 H 0.98791 0.83702 0.56343 0.0
H1269 H 0.05038 0.86653 0.364 0.0
H1270 H 0.06292 0.86145 0.23144 0.0
H1271 H 1.00767 0.83771 0.16147 0.0
H1272 H 0.99464 0.84305 0.2929 0.0
H1273 H 0.02256 0.92949 0.70714 0.0
H1274 H 0.02155 0.89578 0.65782 0.0
H1275 H 0.99464 0.91595 0.44693 0.0
H1276 H 0.99613 0.94953 0.49408 0.0
H1277 H 0.02195 0.88887 0.41586 0.0
H1278 H 0.9688 0.89656 0.58413 0.0
H1279 H 0.9494 0.90274 0.70143 0.0
H1280 H 0.97572 0.85333 0.81321 0.0
H1281 H 0.9959 0.84727 0.69774 0.0
C1282 C 0.98486 0.79442 0.38889 0.0
C1283 C 1.00175 0.78534 0.35995 0.0
C1284 C 0.98591 0.81273 0.42558 0.0
C1285 C 1.00388 0.82255 0.43322 0.0
C1286 C 0.02092 0.81279 0.40934 0.0
C1287 C 0.01986 0.79451 0.37274 0.0
C1288 C 1.00463 0.84336 0.46133 0.0
C1289 C 0.9956 0.84831 0.53178 0.0
C1290 C 0.01383 0.85842 0.4182 0.0
C1291 C 0.02162 0.85498 0.33887 0.0
C1292 C 0.04088 0.86026 0.32034 0.0
C1293 C 0.04807 0.85737 0.24529 0.0
C1294 C 0.0361 0.84925 0.18809 0.0
C1295 C 0.01693 0.84397 0.20584 0.0
C1296 C 0.00965 0.84692 0.28065 0.0
C1297 C 0.01638 0.92678 0.65032 0.0
C1298 C 0.00929 0.9424 0.6051 0.0
C1299 C 0.01568 0.90743 0.62242 0.0
C1300 C 1.00758 0.9031 0.54933 0.0
C1301 C 1.00087 0.91872 0.50364 0.0
C1302 C 1.00169 0.93802 0.53102 0.0
C1303 C 1.00605 0.8824 0.52028 0.0
C1304 C 0.01471 0.87752 0.44887 0.0
C1305 C 0.99586 0.86757 0.5613 0.0
C1306 C 0.98434 0.87176 0.63249 0.0
C1307 C 0.97088 0.88728 0.63425 0.0
C1308 C 0.95963 0.89071 0.70042 0.0
C1309 C 0.96138 0.8785 0.76489 0.0
C1310 C 0.97437 0.8628 0.76325 0.0
C1311 C 0.9858 0.85943 0.69752 0.0
H1312 H 0.95264 0.88116 0.81601 0.0
H1313 H 0.04167 0.84709 0.13 0.0
H1314 H 0.72099 0.97645 0.32013 0.0
H1315 H 0.68938 0.97195 0.38533 0.0
H1316 H 0.69613 0.02776 0.49726 0.0
H1317 H 0.7274 0.03238 0.43139 0.0
H1318 H 0.6736 0.97157 0.53352 0.0
H1319 H 0.65234 0.05198 0.49057 0.0
H1320 H 0.66242 0.0801 0.41092 0.0
H1321 H 0.68051 0.04143 0.22895 0.0
H1322 H 0.67009 0.01307 0.30671 0.0
H1323 H 0.58389 0.99583 0.73061 0.0
H1324 H 0.6176 0.99561 0.68263 0.0
H1325 H 0.59639 0.99759 0.44737 0.0
H1326 H 0.56278 0.99769 0.49457 0.0
H1327 H 0.62589 0.02365 0.46949 0.0
H1328 H 0.61456 0.95572 0.52124 0.0
H1329 H 0.60518 0.9276 0.60219 0.0
H1330 H 0.65164 0.94064 0.76134 0.0
H1331 H 0.66113 0.96902 0.68189 0.0
C1332 C 0.71604 0.98742 0.36081 0.0
C1333 C 0.72676 1.00474 0.37074 0.0
C1334 C 0.69787 0.98491 0.39773 0.0
C1335 C 0.69004 0.9997 0.44516 0.0
C1336 C 0.70156 0.01626 0.46002 0.0
C1337 C 0.71957 0.01881 0.42286 0.0
C1338 C 0.66929 0.99873 0.47321 0.0
C1339 C 0.66321 0.983 0.51967 0.0
C1340 C 0.65547 0.01348 0.45463 0.0
C1341 C 0.66067 0.03039 0.40502 0.0
C1342 C 0.6583 0.04948 0.4333 0.0
C1343 C 0.66411 0.06544 0.38857 0.0
C1344 C 0.67229 0.06252 0.3154 0.0
C1345 C 0.67432 0.04364 0.286 0.0
C1346 C 0.66842 0.02762 0.33031 0.0
C1347 C 0.58636 0.99611 0.66861 0.0
C1348 C 0.57045 0.9967 0.61668 0.0
C1349 C 0.60571 0.99594 0.64117 0.0
C1350 C 0.60968 0.99649 0.56111 0.0
C1351 C 0.59383 0.99716 0.50932 0.0
C1352 C 0.57453 0.99713 0.53659 0.0
C1353 C 0.63027 0.99668 0.53103 0.0
C1354 C 0.63628 0.01226 0.48374 0.0
C1355 C 0.64396 0.98179 0.5487 0.0
C1356 C 0.63844 0.9646 0.59598 0.0
C1357 C 0.62269 0.95267 0.57378 0.0
C1358 C 0.61737 0.93667 0.61935 0.0
C1359 C 0.62777 0.93236 0.68696 0.0
C1360 C 0.64358 0.944 0.709 0.0
C1361 C 0.64895 0.96004 0.66368 0.0
H1362 H 0.62361 0.91998 0.7222 0.0
H1363 H 0.67696 0.07492 0.28147 0.0
H1364 H 0.50011 0.72341 0.38277 0.0
H1365 H 0.49569 0.69204 0.45079 0.0
H1366 H 0.55032 0.67154 0.3585 0.0
H1367 H 0.55526 0.70275 0.29392 0.0
H1368 H 0.51422 0.64607 0.33305 0.0
H1369 H 0.55324 0.6784 0.54142 0.0
H1370 H 0.55666 0.70797 0.62205 0.0
H1371 H 0.49825 0.70046 0.70642 0.0
H1372 H 0.49457 0.67071 0.6269 0.0
H1373 H 0.53275 0.55404 0.49594 0.0
H1374 H 0.53461 0.58753 0.4481 0.0
H1375 H 0.49818 0.60674 0.63684 0.0
H1376 H 0.49781 0.57341 0.68885 0.0
H1377 H 0.52094 0.63434 0.61564 0.0
H1378 H 0.48202 0.60013 0.43503 0.0
H1379 H 0.47207 0.57436 0.34345 0.0
H1380 H 0.52071 0.58818 0.19667 0.0
H1381 H 0.53113 0.61385 0.28801 0.0
C1382 C 0.51139 0.71241 0.37839 0.0
C1383 C 0.5279 0.71569 0.3314 0.0
C1384 C 0.50877 0.69437 0.41682 0.0
C1385 C 0.52253 0.6792 0.40879 0.0
C1386 C 0.53933 0.68279 0.36481 0.0
C1387 C 0.54209 0.70076 0.32765 0.0
C1388 C 0.51949 0.65934 0.44384 0.0
C1389 C 0.51584 0.64342 0.39474 0.0
C1390 C 0.52071 0.65592 0.52453 0.0
C1391 C 0.52366 0.67238 0.57857 0.0
C1392 C 0.54122 0.68296 0.57794 0.0
C1393 C 0.54317 0.69977 0.62312 0.0
C1394 C 0.52762 0.70614 0.66892 0.0
C1395 C 0.51025 0.69549 0.67088 0.0
C1396 C 0.50827 0.6786 0.62617 0.0
C1397 C 0.5252 0.56541 0.52758 0.0
C1398 C 0.51502 0.56089 0.59601 0.0
C1399 C 0.5261 0.58467 0.49969 0.0
C1400 C 0.51613 0.6 0.53734 0.0
C1401 C 0.50613 0.59548 0.60642 0.0
C1402 C 0.50579 0.57628 0.63588 0.0
C1403 C 0.51612 0.62054 0.50445 0.0
C1404 C 0.51919 0.63671 0.5539 0.0
C1405 C 0.51358 0.62429 0.42383 0.0
C1406 C 0.50747 0.60879 0.36882 0.0
C1407 C 0.49069 0.59757 0.38354 0.0
C1408 C 0.48495 0.583 0.33163 0.0
C1409 C 0.49578 0.5796 0.26439 0.0
C1410 C 0.51235 0.59081 0.24886 0.0
C1411 C 0.51818 0.60538 0.30066 0.0
H1412 H 0.49131 0.56832 0.22423 0.0
H1413 H 0.52906 0.71927 0.70327 0.0
H1414 H 0.78671 0.52465 0.42156 0.0
H1415 H 0.81713 0.52091 0.49621 0.0
H1416 H 0.84654 0.50088 0.29006 0.0
H1417 H 0.81623 0.5033 0.21766 0.0
H1418 H 0.86049 0.48158 0.40138 0.0
H1419 H 0.84726 0.55192 0.37353 0.0
H1420 H 0.82762 0.58158 0.39589 0.0
H1421 H 0.83049 0.57207 0.64176 0.0
H1422 H 0.85003 0.54224 0.62064 0.0
H1423 H 0.96009 0.50234 0.46155 0.0
H1424 H 0.92612 0.50283 0.41704 0.0
H1425 H 0.90736 0.52002 0.64532 0.0
H1426 H 0.9413 0.5192 0.69048 0.0
H1427 H 0.88628 0.53881 0.54418 0.0
H1428 H 0.90179 0.47223 0.57964 0.0
H1429 H 0.92121 0.44211 0.56717 0.0
H1430 H 0.91296 0.44296 0.32033 0.0
H1431 H 0.89373 0.47327 0.33116 0.0
C1432 C 0.79957 0.51907 0.39268 0.0
C1433 C 0.79896 0.51468 0.31289 0.0
C1434 C 0.81713 0.51721 0.4352 0.0
C1435 C 0.83458 0.51117 0.39874 0.0
C1436 C 0.83357 0.50578 0.32022 0.0
C1437 C 0.81611 0.50736 0.27835 0.0
C1438 C 0.85408 0.51079 0.43987 0.0
C1439 C 0.86611 0.49424 0.43178 0.0
C1440 C 0.86145 0.52682 0.48323 0.0
C1441 C 0.8499 0.5448 0.49553 0.0
C1442 C 0.84362 0.55613 0.4323 0.0
C1443 C 0.83252 0.57296 0.44476 0.0
C1444 C 0.82776 0.57867 0.52021 0.0
C1445 C 0.83415 0.5676 0.5834 0.0
C1446 C 0.84524 0.55076 0.57124 0.0
C1447 C 0.94875 0.50622 0.50242 0.0
C1448 C 0.95349 0.51048 0.58002 0.0
C1449 C 0.92923 0.50636 0.477 0.0
C1450 C 0.91388 0.51087 0.52831 0.0
C1451 C 0.91872 0.51598 0.60494 0.0
C1452 C 0.9382 0.51552 0.63074 0.0
C1453 C 0.89291 0.51001 0.50202 0.0
C1454 C 0.88062 0.52619 0.51369 0.0
C1455 C 0.88516 0.49353 0.463 0.0
C1456 C 0.89645 0.47512 0.45616 0.0
C1457 C 0.90421 0.46606 0.52263 0.0
C1458 C 0.91518 0.44895 0.51587 0.0
C1459 C 0.91835 0.44065 0.44299 0.0
C1460 C 0.9105 0.44941 0.37674 0.0
C1461 C 0.89954 0.46655 0.38315 0.0
H1462 H 0.92687 0.42741 0.43787 0.0
H1463 H 0.81916 0.59169 0.52973 0.0
loop_
_geom_bond_atom_site_label_1
_geom_bond_atom_site_label_2
_geom_bond_distance
_geom_bond_site_symmetry_2
_ccdc_geom_bond_type
H0 C7 0.929 . S
H1 C10 0.930 . S
H2 C12 0.929 . S
H3 C4 0.969 . S
C4 H3 0.969 . S
C4 O5 1.550 . S
C4 H6 0.973 . S
O5 C4 1.550 . S
O5 C11 1.412 . S
H6 C4 0.973 . S
C7 H0 0.929 . S
C7 C8 1.400 . S
C7 C9 1.364 . S
C8 C7 1.400 . S
C8 C12 1.377 . S
C9 C7 1.364 . S
C9 C10 1.374 . S
C10 H1 0.930 . S
C10 C9 1.374 . S
C10 C11 1.383 . S
C11 O5 1.412 . S
C11 C10 1.383 . S
C11 C12 1.394 . S
C12 H2 0.929 . S
C12 C8 1.377 . S
C12 C11 1.394 . S
H13 C20 0.929 . S
H14 C23 0.930 . S
H15 C25 0.929 . S
H16 C17 1.020 . S
C17 H16 1.020 . S
C17 O18 1.532 1_455 S
C17 H19 0.952 1_455 S
O18 C17 1.532 1_655 S
O18 C24 1.412 . S
H19 C17 0.952 1_655 S
C20 H13 0.929 . S
C20 C21 1.400 . S
C20 C22 1.364 . S
C21 C20 1.400 . S
C21 C25 1.377 . S
C22 C20 1.364 . S
C22 C23 1.374 . S
C23 H14 0.930 . S
C23 C22 1.374 . S
C23 C24 1.383 . S
C24 O18 1.412 . S
C24 C23 1.383 . S
C24 C25 1.394 . S
C25 H15 0.929 . S
C25 C21 1.377 . S
C25 C24 1.394 . S
H26 C33 0.929 . S
H27 C36 0.930 . S
H28 C38 0.929 . S
H29 C30 0.961 1_545 S
C30 H29 0.961 1_565 S
C30 O31 1.553 . S
C30 H32 0.977 . S
O31 C30 1.553 . S
O31 C37 1.412 . S
H32 C30 0.977 . S
C33 H26 0.929 . S
C33 C34 1.400 . S
C33 C35 1.364 . S
C34 C33 1.400 . S
C34 C38 1.377 . S
C35 C33 1.364 . S
C35 C36 1.374 . S
C36 H27 0.930 . S
C36 C35 1.374 . S
C36 C37 1.383 . S
C37 O31 1.412 . S
C37 C36 1.383 . S
C37 C38 1.394 . S
C38 H28 0.929 . S
C38 C34 1.377 . S
C38 C37 1.394 . S
H39 C46 0.929 . S
H40 C49 0.930 . S
H41 C51 0.929 . S
H42 C43 0.969 . S
C43 H42 0.969 . S
C43 O44 1.550 . S
C43 H45 0.973 . S
O44 C43 1.550 . S
O44 C50 1.412 . S
H45 C43 0.973 . S
C46 H39 0.929 . S
C46 C47 1.400 . S
C46 C48 1.364 . S
C47 C46 1.400 . S
C47 C51 1.377 . S
C48 C46 1.364 . S
C48 C49 1.374 . S
C49 H40 0.930 . S
C49 C48 1.374 . S
C49 C50 1.383 . S
C50 O44 1.412 . S
C50 C49 1.383 . S
C50 C51 1.394 . S
C51 H41 0.929 . S
C51 C47 1.377 . S
C51 C50 1.394 . S
H52 C59 0.928 1_556 S
H53 C62 0.930 . S
H54 C64 0.929 . S
H55 C56 0.969 . S
C56 H55 0.969 . S
C56 O57 1.550 . S
C56 H58 0.973 . S
O57 C56 1.550 . S
O57 C63 1.412 . S
H58 C56 0.973 . S
C59 H52 0.928 1_554 S
C59 C60 1.400 1_554 S
C59 C61 1.364 . S
C60 C59 1.400 1_556 S
C60 C64 1.377 . S
C61 C59 1.364 . S
C61 C62 1.374 . S
C62 H53 0.930 . S
C62 C61 1.374 . S
C62 C63 1.383 . S
C63 O57 1.412 . S
C63 C62 1.383 . S
C63 C64 1.394 1_554 S
C64 H54 0.929 . S
C64 C60 1.377 . S
C64 C63 1.394 1_556 S
H65 C72 0.928 1_556 S
H66 C75 0.930 . S
H67 C77 0.929 . S
H68 C69 0.969 . S
C69 H68 0.969 . S
C69 O70 1.550 . S
C69 H71 0.973 . S
O70 C69 1.550 . S
O70 C76 1.412 . S
H71 C69 0.973 . S
C72 H65 0.928 1_554 S
C72 C73 1.400 1_554 S
C72 C74 1.364 . S
C73 C72 1.400 1_556 S
C73 C77 1.377 . S
C74 C72 1.364 . S
C74 C75 1.374 . S
C75 H66 0.930 . S
C75 C74 1.374 . S
C75 C76 1.383 . S
C76 O70 1.412 . S
C76 C75 1.383 . S
C76 C77 1.394 1_554 S
C77 H67 0.929 . S
C77 C73 1.377 . S
C77 C76 1.394 1_556 S
H78 C85 0.928 1_556 S
H79 C88 0.930 . S
H80 C90 0.929 . S
H81 C82 0.969 . S
C82 H81 0.969 . S
C82 O83 1.550 . S
C82 H84 0.973 . S
O83 C82 1.550 . S
O83 C89 1.412 . S
H84 C82 0.973 . S
C85 H78 0.928 1_554 S
C85 C86 1.400 1_554 S
C85 C87 1.364 . S
C86 C85 1.400 1_556 S
C86 C90 1.377 . S
C87 C85 1.364 . S
C87 C88 1.374 . S
C88 H79 0.930 . S
C88 C87 1.374 . S
C88 C89 1.383 . S
C89 O83 1.412 . S
C89 C88 1.383 . S
C89 C90 1.394 1_554 S
C90 H80 0.929 . S
C90 C86 1.377 . S
C90 C89 1.394 1_556 S
H91 C98 0.928 1_556 S
H92 C101 0.930 . S
H93 C103 0.929 . S
H94 C95 0.969 . S
C95 H94 0.969 . S
C95 O96 1.550 . S
C95 H97 0.973 . S
O96 C95 1.550 . S
O96 C102 1.412 . S
H97 C95 0.973 . S
C98 H91 0.928 1_554 S
C98 C99 1.400 1_554 S
C98 C100 1.364 . S
C99 C98 1.400 1_556 S
C99 C103 1.377 . S
C100 C98 1.364 . S
C100 C101 1.374 . S
C101 H92 0.930 . S
C101 C100 1.374 . S
C101 C102 1.383 . S
C102 O96 1.412 . S
C102 C101 1.383 . S
C102 C103 1.394 1_554 S
C103 H93 0.929 . S
C103 C99 1.377 . S
C103 C102 1.394 1_556 S
Gd104 C107 2.818 . S
Gd104 O124 2.377 . S
Gd104 O126 2.448 . S
Gd104 O127 2.506 . S
Gd104 O128 2.435 . S
Gd104 O129 2.717 1_565 S
Gd104 O131 2.395 1_565 S
Gd104 O135 2.327 1_455 S
Gd105 C116 2.818 . S
Gd105 O125 2.395 1_545 S
Gd105 O129 2.327 1_655 S
Gd105 O130 2.377 . S
Gd105 O132 2.448 . S
Gd105 O133 2.506 1_655 S
Gd105 O134 2.435 . S
Gd105 O135 2.717 1_545 S
C106 O124 1.240 1_655 S
C106 O125 1.240 . S
C107 Gd104 2.818 . S
C107 C108 1.510 . S
C107 O126 1.249 . S
C107 O127 1.252 . S
C108 C107 1.510 . S
C108 C109 1.404 . S
C108 C110 1.352 . S
C109 C108 1.404 . S
C109 C113 1.389 . S
C109 H136 0.930 . S
C110 C108 1.352 . S
C110 C112 1.374 . S
C110 H137 0.931 1_455 S
C111 C112 1.359 . S
C111 C113 1.364 . S
C112 C110 1.374 . S
C112 C111 1.359 . S
C112 H138 0.931 1_455 S
C113 C109 1.389 . S
C113 C111 1.364 . S
C113 H139 0.931 . S
C114 O128 1.256 1_545 S
C114 O129 1.257 . S
C115 O130 1.240 1_455 S
C115 O131 1.240 . S
C116 Gd105 2.818 . S
C116 C117 1.510 . S
C116 O132 1.249 . S
C116 O133 1.252 1_655 S
C117 C116 1.510 . S
C117 C118 1.404 . S
C117 C119 1.352 1_655 S
C118 C117 1.404 . S
C118 C122 1.389 . S
C118 H140 0.930 . S
C119 C117 1.352 1_455 S
C119 C121 1.374 . S
C119 H141 0.931 . S
C120 C121 1.359 1_655 S
C120 C122 1.364 . S
C121 C119 1.374 . S
C121 C120 1.359 1_455 S
C121 H142 0.931 . S
C122 C118 1.389 . S
C122 C120 1.364 . S
C122 H143 0.931 . S
C123 O134 1.256 . S
C123 O135 1.257 1_545 S
O124 Gd104 2.377 . S
O124 C106 1.240 1_455 S
O125 Gd105 2.395 1_565 S
O125 C106 1.240 . S
O126 Gd104 2.448 . S
O126 C107 1.249 . S
O127 Gd104 2.506 . S
O127 C107 1.252 . S
O128 Gd104 2.435 . S
O128 C114 1.256 1_565 S
O129 Gd104 2.717 1_545 S
O129 Gd105 2.327 1_455 S
O129 C114 1.257 . S
O130 Gd105 2.377 . S
O130 C115 1.240 1_655 S
O131 Gd104 2.395 1_545 S
O131 C115 1.240 . S
O132 Gd105 2.448 . S
O132 C116 1.249 . S
O133 Gd105 2.506 1_455 S
O133 C116 1.252 1_455 S
O134 Gd105 2.435 . S
O134 C123 1.256 . S
O135 Gd104 2.327 1_655 S
O135 Gd105 2.717 1_565 S
O135 C123 1.257 1_565 S
H136 C109 0.930 . S
H137 C110 0.931 1_655 S
H138 C112 0.931 1_655 S
H139 C113 0.931 . S
H140 C118 0.930 . S
H141 C119 0.931 . S
H142 C121 0.931 . S
H143 C122 0.931 . S
Gd144 C147 2.818 . S
Gd144 O164 2.377 . S
Gd144 O166 2.448 . S
Gd144 O167 2.506 . S
Gd144 O168 2.435 . S
Gd144 O169 2.717 . S
Gd144 O171 2.395 . S
Gd144 O175 2.327 1_545 S
Gd145 C156 2.818 . S
Gd145 O165 2.395 . S
Gd145 O169 2.327 1_565 S
Gd145 O170 2.377 . S
Gd145 O172 2.448 . S
Gd145 O173 2.506 1_565 S
Gd145 O174 2.435 . S
Gd145 O175 2.717 . S
C146 O164 1.240 1_565 S
C146 O165 1.240 . S
C147 Gd144 2.818 . S
C147 C148 1.510 . S
C147 O166 1.249 . S
C147 O167 1.252 . S
C148 C147 1.510 . S
C148 C149 1.404 . S
C148 C150 1.352 . S
C149 C148 1.404 . S
C149 C153 1.389 . S
C149 H176 0.930 . S
C150 C148 1.352 . S
C150 C152 1.374 . S
C150 H177 0.931 1_545 S
C151 C152 1.359 . S
C151 C153 1.364 . S
C152 C150 1.374 . S
C152 C151 1.359 . S
C152 H178 0.931 1_545 S
C153 C149 1.389 . S
C153 C151 1.364 . S
C153 H179 0.931 . S
C154 O168 1.256 . S
C154 O169 1.257 . S
C155 O170 1.240 1_545 S
C155 O171 1.240 . S
C156 Gd145 2.818 . S
C156 C157 1.510 . S
C156 O172 1.249 . S
C156 O173 1.252 1_565 S
C157 C156 1.510 . S
C157 C158 1.404 . S
C157 C159 1.352 1_565 S
C158 C157 1.404 . S
C158 C162 1.389 . S
C158 H180 0.930 . S
C159 C157 1.352 1_545 S
C159 C161 1.378 . S
C159 H181 0.931 . S
C160 C161 1.308 1_565 S
C160 C162 1.364 . S
C161 C159 1.378 . S
C161 C160 1.308 1_545 S
C161 H182 0.978 . S
C162 C158 1.389 . S
C162 C160 1.364 . S
C162 H183 0.931 . S
C163 O174 1.256 . S
C163 O175 1.257 . S
O164 Gd144 2.377 . S
O164 C146 1.240 1_545 S
O165 Gd145 2.395 . S
O165 C146 1.240 . S
O166 Gd144 2.448 . S
O166 C147 1.249 . S
O167 Gd144 2.506 . S
O167 C147 1.252 . S
O168 Gd144 2.435 . S
O168 C154 1.256 . S
O169 Gd144 2.717 . S
O169 Gd145 2.327 1_545 S
O169 C154 1.257 . S
O170 Gd145 2.377 . S
O170 C155 1.240 1_565 S
O171 Gd144 2.395 . S
O171 C155 1.240 . S
O172 Gd145 2.448 . S
O172 C156 1.249 . S
O173 Gd145 2.506 1_545 S
O173 C156 1.252 1_545 S
O174 Gd145 2.435 . S
O174 C163 1.256 . S
O175 Gd144 2.327 1_565 S
O175 Gd145 2.717 . S
O175 C163 1.257 . S
H176 C149 0.930 . S
H177 C150 0.931 1_565 S
H178 C152 0.931 1_565 S
H179 C153 0.931 . S
H180 C158 0.930 . S
H181 C159 0.931 . S
H182 C161 0.978 . S
H183 C162 0.931 . S
Gd184 C187 2.818 . S
Gd184 O204 2.377 . S
Gd184 O206 2.448 . S
Gd184 O207 2.506 . S
Gd184 O208 2.435 . S
Gd184 O209 2.717 . S
Gd184 O211 2.395 . S
Gd184 O215 2.327 . S
Gd185 C196 2.818 . S
Gd185 O205 2.395 . S
Gd185 O209 2.327 . S
Gd185 O210 2.377 . S
Gd185 O212 2.448 . S
Gd185 O213 2.506 . S
Gd185 O214 2.435 . S
Gd185 O215 2.717 . S
C186 O204 1.240 . S
C186 O205 1.240 . S
C187 Gd184 2.818 . S
C187 C188 1.510 . S
C187 O206 1.249 . S
C187 O207 1.252 . S
C188 C187 1.510 . S
C188 C189 1.404 . S
C188 C190 1.352 . S
C189 C188 1.404 . S
C189 C193 1.389 . S
C189 H216 0.930 . S
C190 C188 1.352 . S
C190 C192 1.374 . S
C190 H217 0.931 . S
C191 C192 1.359 . S
C191 C193 1.364 . S
C192 C190 1.374 . S
C192 C191 1.359 . S
C192 H218 0.931 . S
C193 C189 1.389 . S
C193 C191 1.364 . S
C193 H219 0.931 . S
C194 O208 1.256 . S
C194 O209 1.257 . S
C195 O210 1.240 . S
C195 O211 1.240 . S
C196 Gd185 2.818 . S
C196 C197 1.510 . S
C196 O212 1.249 . S
C196 O213 1.252 . S
C197 C196 1.510 . S
C197 C198 1.404 . S
C197 C199 1.352 . S
C198 C197 1.404 . S
C198 C202 1.389 . S
C198 H220 0.930 . S
C199 C197 1.352 . S
C199 C201 1.374 . S
C199 H221 0.931 . S
C200 C201 1.359 . S
C200 C202 1.364 . S
C201 C199 1.374 . S
C201 C200 1.359 . S
C201 H222 0.931 . S
C202 C198 1.389 . S
C202 C200 1.364 . S
C202 H223 0.931 . S
C203 O214 1.256 . S
C203 O215 1.257 . S
O204 Gd184 2.377 . S
O204 C186 1.240 . S
O205 Gd185 2.395 . S
O205 C186 1.240 . S
O206 Gd184 2.448 . S
O206 C187 1.249 . S
O207 Gd184 2.506 . S
O207 C187 1.252 . S
O208 Gd184 2.435 . S
O208 C194 1.256 . S
O209 Gd184 2.717 . S
O209 Gd185 2.327 . S
O209 C194 1.257 . S
O210 Gd185 2.377 . S
O210 C195 1.240 . S
O211 Gd184 2.395 . S
O211 C195 1.240 . S
O212 Gd185 2.448 . S
O212 C196 1.249 . S
O213 Gd185 2.506 . S
O213 C196 1.252 . S
O214 Gd185 2.435 . S
O214 C203 1.256 . S
O215 Gd184 2.327 . S
O215 Gd185 2.717 . S
O215 C203 1.257 . S
H216 C189 0.930 . S
H217 C190 0.931 . S
H218 C192 0.931 . S
H219 C193 0.931 . S
H220 C198 0.930 . S
H221 C199 0.931 . S
H222 C201 0.931 . S
H223 C202 0.931 . S
Gd224 C227 2.818 . S
Gd224 O244 2.377 . S
Gd224 O246 2.448 . S
Gd224 O247 2.506 . S
Gd224 O248 2.435 . S
Gd224 O249 2.717 1_655 S
Gd224 O251 2.395 1_655 S
Gd224 O255 2.331 . S
Gd225 C236 2.818 . S
Gd225 O245 2.395 1_455 S
Gd225 O249 2.327 . S
Gd225 O250 2.377 . S
Gd225 O252 2.448 . S
Gd225 O253 2.506 . S
Gd225 O254 2.435 . S
Gd225 O255 2.710 1_455 S
C226 O244 1.240 . S
C226 O245 1.240 . S
C227 Gd224 2.818 . S
C227 C228 1.510 . S
C227 O246 1.249 . S
C227 O247 1.252 . S
C228 C227 1.510 . S
C228 C229 1.404 . S
C228 C230 1.352 . S
C229 C228 1.404 . S
C229 C233 1.389 . S
C229 H256 0.930 . S
C230 C228 1.352 . S
C230 C232 1.374 . S
C230 H257 0.931 . S
C231 C232 1.359 . S
C231 C233 1.364 . S
C232 C230 1.374 . S
C232 C231 1.359 . S
C232 H258 0.931 . S
C233 C229 1.389 . S
C233 C231 1.364 . S
C233 H259 0.931 . S
C234 O248 1.256 1_455 S
C234 O249 1.257 . S
C235 O250 1.240 . S
C235 O251 1.240 . S
C236 Gd225 2.818 . S
C236 C237 1.510 . S
C236 O252 1.249 . S
C236 O253 1.252 . S
C237 C236 1.510 . S
C237 C238 1.404 . S
C237 C239 1.352 . S
C238 C237 1.404 . S
C238 C242 1.389 . S
C238 H260 0.930 . S
C239 C237 1.352 . S
C239 C241 1.374 . S
C239 H261 0.931 . S
C240 C241 1.359 . S
C240 C242 1.364 . S
C241 C239 1.374 . S
C241 C240 1.359 . S
C241 H262 0.931 . S
C242 C238 1.389 . S
C242 C240 1.364 . S
C242 H263 0.931 . S
C243 O254 1.256 . S
C243 O255 1.252 1_455 S
O244 Gd224 2.377 . S
O244 C226 1.240 . S
O245 Gd225 2.395 1_655 S
O245 C226 1.240 . S
O246 Gd224 2.448 . S
O246 C227 1.249 . S
O247 Gd224 2.506 . S
O247 C227 1.252 . S
O248 Gd224 2.435 . S
O248 C234 1.256 1_655 S
O249 Gd224 2.717 1_455 S
O249 Gd225 2.327 . S
O249 C234 1.257 . S
O250 Gd225 2.377 . S
O250 C235 1.240 . S
O251 Gd224 2.395 1_455 S
O251 C235 1.240 . S
O252 Gd225 2.448 . S
O252 C236 1.249 . S
O253 Gd225 2.506 . S
O253 C236 1.252 . S
O254 Gd225 2.435 . S
O254 C243 1.256 . S
O255 Gd224 2.331 . S
O255 Gd225 2.710 1_655 S
O255 C243 1.252 1_655 S
H256 C229 0.930 . S
H257 C230 0.931 . S
H258 C232 0.931 . S
H259 C233 0.931 . S
H260 C238 0.930 . S
H261 C239 0.931 . S
H262 C241 0.931 . S
H263 C242 0.931 . S
H264 C282 0.951 1_565 S
H265 C284 0.951 1_565 S
H266 C286 0.950 . S
H267 C287 0.950 . S
H268 C289 0.950 1_565 S
H269 C292 0.950 . S
H270 C293 0.950 . S
H271 C295 0.950 . S
H272 C296 0.950 . S
H273 C297 0.951 . S
H274 C299 0.951 . S
H275 C301 0.964 . S
H276 C302 0.967 . S
H277 C304 0.950 . S
H278 C307 0.950 . S
H279 C308 0.950 . S
H280 C310 0.950 . S
H281 C311 0.950 1_545 S
C282 H264 0.951 1_545 S
C282 C283 1.366 . S
C282 C284 1.388 . S
C283 C282 1.366 . S
C283 C287 1.385 . S
C284 H265 0.951 1_545 S
C284 C282 1.388 . S
C284 C285 1.366 . S
C285 C284 1.366 . S
C285 C286 1.414 . S
C285 C288 1.499 . S
C286 H266 0.950 . S
C286 C285 1.414 . S
C286 C287 1.374 . S
C287 H267 0.950 . S
C287 C283 1.385 . S
C287 C286 1.374 . S
C288 C285 1.499 . S
C288 C289 1.373 . S
C288 C290 1.389 . S
C289 H268 0.950 1_545 S
C289 C288 1.373 . S
C289 C305 1.377 1_545 S
C290 C288 1.389 . S
C290 C291 1.524 . S
C290 C304 1.377 . S
C291 C290 1.524 . S
C291 C292 1.397 . S
C291 C296 1.363 . S
C292 H269 0.950 . S
C292 C291 1.397 . S
C292 C293 1.334 . S
C293 H270 0.950 . S
C293 C292 1.334 . S
C293 C294 1.287 . S
C294 C293 1.287 . S
C294 C295 1.524 . S
C294 H313 0.913 . S
C295 H271 0.950 . S
C295 C294 1.524 . S
C295 C296 1.415 . S
C296 H272 0.950 . S
C296 C291 1.363 . S
C296 C295 1.415 . S
C297 H273 0.951 . S
C297 C298 1.366 . S
C297 C299 1.388 . S
C298 C297 1.366 . S
C298 C302 1.370 1_545 S
C299 H274 0.951 . S
C299 C297 1.388 . S
C299 C300 1.366 . S
C300 C299 1.366 . S
C300 C301 1.402 1_545 S
C300 C303 1.499 . S
C301 H275 0.964 . S
C301 C300 1.402 1_565 S
C301 C302 1.374 . S
C302 H276 0.967 . S
C302 C298 1.370 1_565 S
C302 C301 1.374 . S
C303 C300 1.499 . S
C303 C304 1.373 . S
C303 C305 1.389 1_545 S
C304 H277 0.950 . S
C304 C290 1.377 . S
C304 C303 1.373 . S
C305 C289 1.377 1_565 S
C305 C303 1.389 1_565 S
C305 C306 1.524 . S
C306 C305 1.524 . S
C306 C307 1.397 . S
C306 C311 1.363 . S
C307 H278 0.950 . S
C307 C306 1.397 . S
C307 C308 1.334 . S
C308 H279 0.950 . S
C308 C307 1.334 . S
C308 C309 1.287 . S
C309 C308 1.287 . S
C309 C310 1.524 . S
C309 H312 0.999 . S
C310 H280 0.950 . S
C310 C309 1.524 . S
C310 C311 1.415 . S
C311 H281 0.950 1_565 S
C311 C306 1.363 . S
C311 C310 1.415 . S
H312 C309 0.999 . S
H313 C294 0.913 . S
H314 C332 0.951 . S
H315 C334 0.951 . S
H316 C336 0.950 . S
H317 C337 0.950 . S
H318 C339 0.950 . S
H319 C342 0.950 . S
H320 C343 0.950 . S
H321 C345 0.950 . S
H322 C346 0.950 . S
H323 C347 0.951 . S
H324 C349 0.951 . S
H325 C351 0.950 . S
H326 C352 0.950 . S
H327 C354 0.950 . S
H328 C357 0.950 . S
H329 C358 0.950 . S
H330 C360 0.950 . S
H331 C361 0.950 . S
C332 H314 0.951 . S
C332 C333 1.366 . S
C332 C334 1.388 . S
C333 C332 1.366 . S
C333 C337 1.385 . S
C334 H315 0.951 . S
C334 C332 1.388 . S
C334 C335 1.366 . S
C335 C334 1.366 . S
C335 C336 1.414 . S
C335 C338 1.499 . S
C336 H316 0.950 . S
C336 C335 1.414 . S
C336 C337 1.374 . S
C337 H317 0.950 . S
C337 C333 1.385 . S
C337 C336 1.374 . S
C338 C335 1.499 . S
C338 C339 1.373 . S
C338 C340 1.389 . S
C339 H318 0.950 . S
C339 C338 1.373 . S
C339 C355 1.377 . S
C340 C338 1.389 . S
C340 C341 1.524 . S
C340 C354 1.377 . S
C341 C340 1.524 . S
C341 C342 1.397 . S
C341 C346 1.363 . S
C342 H319 0.950 . S
C342 C341 1.397 . S
C342 C343 1.334 . S
C343 H320 0.950 . S
C343 C342 1.334 . S
C343 C344 1.287 . S
C344 C343 1.287 . S
C344 C345 1.524 . S
C344 H363 0.913 . S
C345 H321 0.950 . S
C345 C344 1.524 . S
C345 C346 1.415 . S
C346 H322 0.950 . S
C346 C341 1.363 . S
C346 C345 1.415 . S
C347 H323 0.951 . S
C347 C348 1.366 . S
C347 C349 1.388 . S
C348 C347 1.366 . S
C348 C352 1.385 . S
C349 H324 0.951 . S
C349 C347 1.388 . S
C349 C350 1.366 . S
C350 C349 1.366 . S
C350 C351 1.414 . S
C350 C353 1.499 . S
C351 H325 0.950 . S
C351 C350 1.414 . S
C351 C352 1.374 . S
C352 H326 0.950 . S
C352 C348 1.385 . S
C352 C351 1.374 . S
C353 C350 1.499 . S
C353 C354 1.373 . S
C353 C355 1.389 . S
C354 H327 0.950 . S
C354 C340 1.377 . S
C354 C353 1.373 . S
C355 C339 1.377 . S
C355 C353 1.389 . S
C355 C356 1.524 . S
C356 C355 1.524 . S
C356 C357 1.397 . S
C356 C361 1.363 . S
C357 H328 0.950 . S
C357 C356 1.397 . S
C357 C358 1.334 . S
C358 H329 0.950 . S
C358 C357 1.334 . S
C358 C359 1.287 . S
C359 C358 1.287 . S
C359 C360 1.524 . S
C359 H362 0.999 . S
C360 H330 0.950 . S
C360 C359 1.524 . S
C360 C361 1.415 . S
C361 H331 0.950 . S
C361 C356 1.363 . S
C361 C360 1.415 . S
H362 C359 0.999 . S
H363 C344 0.913 . S
H364 C382 0.951 . S
H365 C384 0.951 . S
H366 C386 0.950 . S
H367 C387 0.950 . S
H368 C389 0.950 . S
H369 C392 0.950 . S
H370 C393 0.950 . S
H371 C395 0.950 . S
H372 C396 0.950 . S
H373 C397 0.951 . S
H374 C399 0.951 . S
H375 C401 0.950 . S
H376 C402 0.950 . S
H377 C404 0.950 . S
H378 C407 0.950 . S
H379 C408 0.950 . S
H380 C410 0.950 . S
H381 C411 0.950 . S
C382 H364 0.951 . S
C382 C383 1.366 . S
C382 C384 1.388 . S
C383 C382 1.366 . S
C383 C387 1.385 . S
C384 H365 0.951 . S
C384 C382 1.388 . S
C384 C385 1.366 . S
C385 C384 1.366 . S
C385 C386 1.414 . S
C385 C388 1.499 . S
C386 H366 0.950 . S
C386 C385 1.414 . S
C386 C387 1.374 . S
C387 H367 0.950 . S
C387 C383 1.385 . S
C387 C386 1.374 . S
C388 C385 1.499 . S
C388 C389 1.373 . S
C388 C390 1.389 . S
C389 H368 0.950 . S
C389 C388 1.373 . S
C389 C405 1.377 . S
C390 C388 1.389 . S
C390 C391 1.524 . S
C390 C404 1.377 . S
C391 C390 1.524 . S
C391 C392 1.397 . S
C391 C396 1.363 . S
C392 H369 0.950 . S
C392 C391 1.397 . S
C392 C393 1.334 . S
C393 H370 0.950 . S
C393 C392 1.334 . S
C393 C394 1.287 . S
C394 C393 1.287 . S
C394 C395 1.524 . S
C394 H413 0.913 . S
C395 H371 0.950 . S
C395 C394 1.524 . S
C395 C396 1.415 . S
C396 H372 0.950 . S
C396 C391 1.363 . S
C396 C395 1.415 . S
C397 H373 0.951 . S
C397 C398 1.366 . S
C397 C399 1.388 . S
C398 C397 1.366 . S
C398 C402 1.385 . S
C399 H374 0.951 . S
C399 C397 1.388 . S
C399 C400 1.366 . S
C400 C399 1.366 . S
C400 C401 1.414 . S
C400 C403 1.499 . S
C401 H375 0.950 . S
C401 C400 1.414 . S
C401 C402 1.374 . S
C402 H376 0.950 . S
C402 C398 1.385 . S
C402 C401 1.374 . S
C403 C400 1.499 . S
C403 C404 1.373 . S
C403 C405 1.389 . S
C404 H377 0.950 . S
C404 C390 1.377 . S
C404 C403 1.373 . S
C405 C389 1.377 . S
C405 C403 1.389 . S
C405 C406 1.524 . S
C406 C405 1.524 . S
C406 C407 1.397 . S
C406 C411 1.363 . S
C407 H378 0.950 . S
C407 C406 1.397 . S
C407 C408 1.334 . S
C408 H379 0.950 . S
C408 C407 1.334 . S
C408 C409 1.287 . S
C409 C408 1.287 . S
C409 C410 1.524 . S
C409 H412 0.999 . S
C410 H380 0.950 . S
C410 C409 1.524 . S
C410 C411 1.415 . S
C411 H381 0.950 . S
C411 C406 1.363 . S
C411 C410 1.415 . S
H412 C409 0.999 . S
H413 C394 0.913 . S
H414 C432 0.951 1_655 S
H415 C434 0.951 1_655 S
H416 C436 0.950 . S
H417 C437 0.950 . S
H418 C439 0.950 1_655 S
H419 C442 0.950 . S
H420 C443 0.950 . S
H421 C445 0.950 . S
H422 C446 0.950 . S
H423 C447 0.951 . S
H424 C449 0.951 . S
H425 C451 0.953 . S
H426 C452 0.956 . S
H427 C454 0.950 . S
H428 C457 0.950 . S
H429 C458 0.950 . S
H430 C460 0.950 . S
H431 C461 0.950 1_455 S
C432 H414 0.951 1_455 S
C432 C433 1.366 . S
C432 C434 1.388 . S
C433 C432 1.366 . S
C433 C437 1.385 . S
C434 H415 0.951 1_455 S
C434 C432 1.388 . S
C434 C435 1.366 . S
C435 C434 1.366 . S
C435 C436 1.414 . S
C435 C438 1.499 . S
C436 H416 0.950 . S
C436 C435 1.414 . S
C436 C437 1.374 . S
C437 H417 0.950 . S
C437 C433 1.385 . S
C437 C436 1.374 . S
C438 C435 1.499 . S
C438 C439 1.373 . S
C438 C440 1.389 . S
C439 H418 0.950 1_455 S
C439 C438 1.373 . S
C439 C455 1.376 . S
C440 C438 1.389 . S
C440 C441 1.524 . S
C440 C454 1.377 . S
C441 C440 1.524 . S
C441 C442 1.397 . S
C441 C446 1.363 . S
C442 H419 0.950 . S
C442 C441 1.397 . S
C442 C443 1.334 . S
C443 H420 0.950 . S
C443 C442 1.334 . S
C443 C444 1.287 . S
C444 C443 1.287 . S
C444 C445 1.524 . S
C444 H463 0.913 . S
C445 H421 0.950 . S
C445 C444 1.524 . S
C445 C446 1.415 . S
C446 H422 0.950 . S
C446 C441 1.363 . S
C446 C445 1.415 . S
C447 H423 0.951 . S
C447 C448 1.366 . S
C447 C449 1.388 . S
C448 C447 1.366 . S
C448 C452 1.379 1_455 S
C449 H424 0.951 . S
C449 C447 1.388 . S
C449 C450 1.366 . S
C450 C449 1.366 . S
C450 C451 1.411 1_455 S
C450 C453 1.499 . S
C451 H425 0.953 . S
C451 C450 1.411 1_655 S
C451 C452 1.374 . S
C452 H426 0.956 . S
C452 C448 1.379 1_655 S
C452 C451 1.374 . S
C453 C450 1.499 . S
C453 C454 1.373 . S
C453 C455 1.388 . S
C454 H427 0.950 . S
C454 C440 1.377 . S
C454 C453 1.373 . S
C455 C439 1.376 . S
C455 C453 1.388 . S
C455 C456 1.527 1_455 S
C456 C455 1.527 1_655 S
C456 C457 1.397 . S
C456 C461 1.363 . S
C457 H428 0.950 . S
C457 C456 1.397 . S
C457 C458 1.334 . S
C458 H429 0.950 . S
C458 C457 1.334 . S
C458 C459 1.287 . S
C459 C458 1.287 . S
C459 C460 1.524 . S
C459 H462 0.999 . S
C460 H430 0.950 . S
C460 C459 1.524 . S
C460 C461 1.415 . S
C461 H431 0.950 1_655 S
C461 C456 1.363 . S
C461 C460 1.415 . S
H462 C459 0.999 . S
H463 C444 0.913 . S
H464 C482 0.951 . S
H465 C484 0.951 . S
H466 C486 0.952 . S
H467 C487 0.949 . S
H468 C489 0.950 . S
H469 C492 0.950 . S
H470 C493 0.950 . S
H471 C495 0.950 . S
H472 C496 0.950 . S
H473 C497 0.951 . S
H474 C499 0.951 . S
H475 C501 0.950 . S
H476 C502 0.950 . S
H477 C504 0.950 . S
H478 C507 0.950 . S
H479 C508 0.950 . S
H480 C510 0.950 . S
H481 C511 0.950 . S
C482 H464 0.951 . S
C482 C483 1.366 . S
C482 C484 1.388 . S
C483 C482 1.366 . S
C483 C487 1.385 1_565 S
C484 H465 0.951 . S
C484 C482 1.388 . S
C484 C485 1.366 . S
C485 C484 1.366 . S
C485 C486 1.413 1_565 S
C485 C488 1.499 . S
C486 H466 0.952 . S
C486 C485 1.413 1_545 S
C486 C487 1.374 . S
C487 H467 0.949 . S
C487 C483 1.385 1_545 S
C487 C486 1.374 . S
C488 C485 1.499 . S
C488 C489 1.373 1_565 S
C488 C490 1.389 . S
C489 H468 0.950 . S
C489 C488 1.373 1_545 S
C489 C505 1.377 . S
C490 C488 1.389 . S
C490 C491 1.524 . S
C490 C504 1.377 1_554 S
C491 C490 1.524 . S
C491 C492 1.397 . S
C491 C496 1.363 1_554 S
C492 H469 0.950 . S
C492 C491 1.397 . S
C492 C493 1.334 . S
C493 H470 0.950 . S
C493 C492 1.334 . S
C493 C494 1.287 . S
C494 C493 1.287 . S
C494 C495 1.524 1_554 S
C494 H513 0.913 . S
C495 H471 0.950 . S
C495 C494 1.524 1_556 S
C495 C496 1.415 . S
C496 H472 0.950 . S
C496 C491 1.363 1_556 S
C496 C495 1.415 . S
C497 H473 0.951 . S
C497 C498 1.372 . S
C497 C499 1.388 . S
C498 C497 1.372 . S
C498 C502 1.379 1_545 S
C499 H474 0.951 . S
C499 C497 1.388 . S
C499 C500 1.373 . S
C500 C499 1.373 . S
C500 C501 1.407 1_545 S
C500 C503 1.498 . S
C501 H475 0.950 . S
C501 C500 1.407 1_565 S
C501 C502 1.374 . S
C502 H476 0.950 . S
C502 C498 1.379 1_565 S
C502 C501 1.374 . S
C503 C500 1.498 . S
C503 C504 1.359 1_545 S
C503 C505 1.402 1_556 S
C504 H477 0.950 . S
C504 C490 1.377 1_556 S
C504 C503 1.359 1_565 S
C505 C489 1.377 . S
C505 C503 1.402 1_554 S
C505 C506 1.524 . S
C506 C505 1.524 . S
C506 C507 1.397 1_554 S
C506 C511 1.363 . S
C507 H478 0.950 . S
C507 C506 1.397 1_556 S
C507 C508 1.334 . S
C508 H479 0.950 . S
C508 C507 1.334 . S
C508 C509 1.287 1_556 S
C509 C508 1.287 1_554 S
C509 C510 1.524 . S
C509 H512 0.999 . S
C510 H480 0.950 . S
C510 C509 1.524 . S
C510 C511 1.415 . S
C511 H481 0.950 . S
C511 C506 1.363 . S
C511 C510 1.415 . S
H512 C509 0.999 . S
H513 C494 0.913 . S
H514 C532 0.951 . S
H515 C534 0.951 . S
H516 C536 0.950 . S
H517 C537 0.950 . S
H518 C539 0.950 . S
H519 C542 0.950 . S
H520 C543 0.950 . S
H521 C545 0.950 . S
H522 C546 0.950 . S
H523 C547 0.951 . S
H524 C549 0.951 . S
H525 C551 0.950 . S
H526 C552 0.950 . S
H527 C554 0.950 . S
H528 C557 0.950 . S
H529 C558 0.950 . S
H530 C560 0.950 . S
H531 C561 0.950 . S
C532 H514 0.951 . S
C532 C533 1.366 . S
C532 C534 1.388 . S
C533 C532 1.366 . S
C533 C537 1.385 . S
C534 H515 0.951 . S
C534 C532 1.388 . S
C534 C535 1.366 . S
C535 C534 1.366 . S
C535 C536 1.414 . S
C535 C538 1.499 . S
C536 H516 0.950 . S
C536 C535 1.414 . S
C536 C537 1.374 . S
C537 H517 0.950 . S
C537 C533 1.385 . S
C537 C536 1.374 . S
C538 C535 1.499 . S
C538 C539 1.373 . S
C538 C540 1.389 . S
C539 H518 0.950 . S
C539 C538 1.373 . S
C539 C555 1.377 1_554 S
C540 C538 1.389 . S
C540 C541 1.524 . S
C540 C554 1.377 . S
C541 C540 1.524 . S
C541 C542 1.397 . S
C541 C546 1.363 . S
C542 H519 0.950 . S
C542 C541 1.397 . S
C542 C543 1.334 . S
C543 H520 0.950 . S
C543 C542 1.334 . S
C543 C544 1.287 . S
C544 C543 1.287 . S
C544 C545 1.524 . S
C544 H563 0.913 . S
C545 H521 0.950 . S
C545 C544 1.524 . S
C545 C546 1.415 . S
C546 H522 0.950 . S
C546 C541 1.363 . S
C546 C545 1.415 . S
C547 H523 0.951 . S
C547 C548 1.366 . S
C547 C549 1.388 . S
C548 C547 1.366 . S
C548 C552 1.385 . S
C549 H524 0.951 . S
C549 C547 1.388 . S
C549 C550 1.366 . S
C550 C549 1.366 . S
C550 C551 1.414 . S
C550 C553 1.499 . S
C551 H525 0.950 . S
C551 C550 1.414 . S
C551 C552 1.374 . S
C552 H526 0.950 . S
C552 C548 1.385 . S
C552 C551 1.374 . S
C553 C550 1.499 . S
C553 C554 1.373 1_556 S
C553 C555 1.389 . S
C554 H527 0.950 . S
C554 C540 1.377 . S
C554 C553 1.373 1_554 S
C555 C539 1.377 1_556 S
C555 C553 1.389 . S
C555 C556 1.524 . S
C556 C555 1.524 . S
C556 C557 1.397 . S
C556 C561 1.363 . S
C557 H528 0.950 . S
C557 C556 1.397 . S
C557 C558 1.334 . S
C558 H529 0.950 . S
C558 C557 1.334 . S
C558 C559 1.287 . S
C559 C558 1.287 . S
C559 C560 1.524 . S
C559 H562 0.999 . S
C560 H530 0.950 . S
C560 C559 1.524 . S
C560 C561 1.415 . S
C561 H531 0.950 . S
C561 C556 1.363 . S
C561 C560 1.415 . S
H562 C559 0.999 . S
H563 C544 0.913 . S
H564 C582 0.951 . S
H565 C584 0.951 . S
H566 C586 0.950 . S
H567 C587 0.950 . S
H568 C589 0.950 . S
H569 C592 0.950 . S
H570 C593 0.950 . S
H571 C595 0.950 . S
H572 C596 0.950 . S
H573 C597 0.951 . S
H574 C599 0.951 . S
H575 C601 0.950 . S
H576 C602 0.950 . S
H577 C604 0.950 . S
H578 C607 0.950 . S
H579 C608 0.950 . S
H580 C610 0.950 . S
H581 C611 0.950 . S
C582 H564 0.951 . S
C582 C583 1.366 . S
C582 C584 1.388 . S
C583 C582 1.366 . S
C583 C587 1.385 . S
C584 H565 0.951 . S
C584 C582 1.388 . S
C584 C585 1.366 . S
C585 C584 1.366 . S
C585 C586 1.414 . S
C585 C588 1.499 . S
C586 H566 0.950 . S
C586 C585 1.414 . S
C586 C587 1.374 . S
C587 H567 0.950 . S
C587 C583 1.385 . S
C587 C586 1.374 . S
C588 C585 1.499 . S
C588 C589 1.373 . S
C588 C590 1.389 . S
C589 H568 0.950 . S
C589 C588 1.373 . S
C589 C605 1.377 1_554 S
C590 C588 1.389 . S
C590 C591 1.524 . S
C590 C604 1.377 . S
C591 C590 1.524 . S
C591 C592 1.397 . S
C591 C596 1.363 . S
C592 H569 0.950 . S
C592 C591 1.397 . S
C592 C593 1.334 . S
C593 H570 0.950 . S
C593 C592 1.334 . S
C593 C594 1.287 . S
C594 C593 1.287 . S
C594 C595 1.524 . S
C594 H613 0.913 . S
C595 H571 0.950 . S
C595 C594 1.524 . S
C595 C596 1.415 . S
C596 H572 0.950 . S
C596 C591 1.363 . S
C596 C595 1.415 . S
C597 H573 0.951 . S
C597 C598 1.366 . S
C597 C599 1.388 . S
C598 C597 1.366 . S
C598 C602 1.385 . S
C599 H574 0.951 . S
C599 C597 1.388 . S
C599 C600 1.366 . S
C600 C599 1.366 . S
C600 C601 1.414 . S
C600 C603 1.499 . S
C601 H575 0.950 . S
C601 C600 1.414 . S
C601 C602 1.374 . S
C602 H576 0.950 . S
C602 C598 1.385 . S
C602 C601 1.374 . S
C603 C600 1.499 . S
C603 C604 1.373 1_556 S
C603 C605 1.389 . S
C604 H577 0.950 . S
C604 C590 1.377 . S
C604 C603 1.373 1_554 S
C605 C589 1.377 1_556 S
C605 C603 1.389 . S
C605 C606 1.524 . S
C606 C605 1.524 . S
C606 C607 1.397 . S
C606 C611 1.363 . S
C607 H578 0.950 . S
C607 C606 1.397 . S
C607 C608 1.334 . S
C608 H579 0.950 . S
C608 C607 1.334 . S
C608 C609 1.287 . S
C609 C608 1.287 . S
C609 C610 1.524 . S
C609 H612 0.999 . S
C610 H580 0.950 . S
C610 C609 1.524 . S
C610 C611 1.415 . S
C611 H581 0.950 . S
C611 C606 1.363 . S
C611 C610 1.415 . S
H612 C609 0.999 . S
H613 C594 0.913 . S
H614 C632 0.951 . S
H615 C634 0.951 . S
H616 C636 0.950 . S
H617 C637 0.950 . S
H618 C639 0.950 . S
H619 C642 0.950 . S
H620 C643 0.950 . S
H621 C645 0.950 . S
H622 C646 0.950 . S
H623 C647 0.951 . S
H624 C649 0.951 . S
H625 C651 0.950 . S
H626 C652 0.950 . S
H627 C654 0.950 . S
H628 C657 0.950 . S
H629 C658 0.950 . S
H630 C660 0.950 . S
H631 C661 0.950 . S
C632 H614 0.951 . S
C632 C633 1.366 1_455 S
C632 C634 1.388 . S
C633 C632 1.366 1_655 S
C633 C637 1.385 . S
C634 H615 0.951 . S
C634 C632 1.388 . S
C634 C635 1.337 1_455 S
C635 C634 1.337 1_655 S
C635 C636 1.444 . S
C635 C638 1.499 . S
C636 H616 0.950 . S
C636 C635 1.444 . S
C636 C637 1.374 . S
C637 H617 0.950 . S
C637 C633 1.385 . S
C637 C636 1.374 . S
C638 C635 1.499 . S
C638 C639 1.403 . S
C638 C640 1.359 1_655 S
C639 H618 0.950 . S
C639 C638 1.403 . S
C639 C655 1.377 . S
C640 C638 1.359 1_455 S
C640 C641 1.524 . S
C640 C654 1.377 1_554 S
C641 C640 1.524 . S
C641 C642 1.397 . S
C641 C646 1.363 . S
C642 H619 0.950 . S
C642 C641 1.397 . S
C642 C643 1.334 1_554 S
C643 H620 0.950 . S
C643 C642 1.334 1_556 S
C643 C644 1.287 . S
C644 C643 1.287 . S
C644 C645 1.524 1_556 S
C644 H663 0.913 . S
C645 H621 0.950 . S
C645 C644 1.524 1_554 S
C645 C646 1.415 . S
C646 H622 0.950 . S
C646 C641 1.363 . S
C646 C645 1.415 . S
C647 H623 0.951 . S
C647 C648 1.366 1_655 S
C647 C649 1.388 . S
C648 C647 1.366 1_455 S
C648 C652 1.385 . S
C649 H624 0.951 . S
C649 C647 1.388 . S
C649 C650 1.336 1_655 S
C650 C649 1.336 1_455 S
C650 C651 1.445 . S
C650 C653 1.499 . S
C651 H625 0.950 . S
C651 C650 1.445 . S
C651 C652 1.374 . S
C652 H626 0.950 . S
C652 C648 1.385 . S
C652 C651 1.374 . S
C653 C650 1.499 . S
C653 C654 1.404 . S
C653 C655 1.358 1_456 S
C654 H627 0.950 . S
C654 C640 1.377 1_556 S
C654 C653 1.404 . S
C655 C639 1.377 . S
C655 C653 1.358 1_654 S
C655 C656 1.524 . S
C656 C655 1.524 . S
C656 C657 1.397 . S
C656 C661 1.363 . S
C657 H628 0.950 . S
C657 C656 1.397 . S
C657 C658 1.334 . S
C658 H629 0.950 . S
C658 C657 1.334 . S
C658 C659 1.287 . S
C659 C658 1.287 . S
C659 C660 1.524 . S
C659 H662 0.999 . S
C660 H630 0.950 . S
C660 C659 1.524 . S
C660 C661 1.415 . S
C661 H631 0.950 . S
C661 C656 1.363 . S
C661 C660 1.415 . S
H662 C659 0.999 . S
H663 C644 0.913 . S
H664 C682 0.941 1_655 S
H665 C684 0.951 . S
H666 C686 0.950 . S
H667 C687 0.950 . S
H668 C689 0.950 . S
H669 C692 0.950 . S
H670 C693 0.950 . S
H671 C695 0.950 . S
H672 C696 0.950 . S
H673 C697 0.951 . S
H674 C699 0.951 1_455 S
H675 C701 0.950 . S
H676 C702 0.950 . S
H677 C704 0.950 . S
H678 C707 0.950 . S
H679 C708 0.950 . S
H680 C710 0.950 . S
H681 C711 0.950 . S
C682 H664 0.941 1_455 S
C682 C683 1.382 . S
C682 C684 1.382 1_455 S
C683 C682 1.382 . S
C683 C687 1.385 . S
C684 H665 0.951 . S
C684 C682 1.382 1_655 S
C684 C685 1.366 1_655 S
C685 C684 1.366 1_455 S
C685 C686 1.414 . S
C685 C688 1.496 1_455 S
C686 H666 0.950 . S
C686 C685 1.414 . S
C686 C687 1.374 . S
C687 H667 0.950 . S
C687 C683 1.385 . S
C687 C686 1.374 . S
C688 C685 1.496 1_655 S
C688 C689 1.360 1_655 S
C688 C690 1.405 . S
C689 H668 0.950 . S
C689 C688 1.360 1_455 S
C689 C705 1.377 . S
C690 C688 1.405 . S
C690 C691 1.524 . S
C690 C704 1.377 . S
C691 C690 1.524 . S
C691 C692 1.397 . S
C691 C696 1.363 . S
C692 H669 0.950 . S
C692 C691 1.397 . S
C692 C693 1.334 . S
C693 H670 0.950 . S
C693 C692 1.334 . S
C693 C694 1.287 . S
C694 C693 1.287 . S
C694 C695 1.524 . S
C694 H713 0.913 . S
C695 H671 0.950 . S
C695 C694 1.524 . S
C695 C696 1.415 . S
C696 H672 0.950 . S
C696 C691 1.363 . S
C696 C695 1.415 . S
C697 H673 0.951 . S
C697 C698 1.366 . S
C697 C699 1.388 . S
C698 C697 1.366 . S
C698 C702 1.385 . S
C699 H674 0.951 1_655 S
C699 C697 1.388 . S
C699 C700 1.366 . S
C700 C699 1.366 . S
C700 C701 1.414 . S
C700 C703 1.499 . S
C701 H675 0.950 . S
C701 C700 1.414 . S
C701 C702 1.374 . S
C702 H676 0.950 . S
C702 C698 1.385 . S
C702 C701 1.374 . S
C703 C700 1.499 . S
C703 C704 1.373 . S
C703 C705 1.389 1_655 S
C704 H677 0.950 . S
C704 C690 1.377 . S
C704 C703 1.373 . S
C705 C689 1.377 . S
C705 C703 1.389 1_455 S
C705 C706 1.524 . S
C706 C705 1.524 . S
C706 C707 1.397 . S
C706 C711 1.363 . S
C707 H678 0.950 . S
C707 C706 1.397 . S
C707 C708 1.334 . S
C708 H679 0.950 . S
C708 C707 1.334 . S
C708 C709 1.287 . S
C709 C708 1.287 . S
C709 C710 1.524 . S
C709 H712 0.999 . S
C710 H680 0.950 . S
C710 C709 1.524 . S
C710 C711 1.415 . S
C711 H681 0.950 . S
C711 C706 1.363 . S
C711 C710 1.415 . S
H712 C709 0.999 . S
H713 C694 0.913 . S
H714 C732 0.951 . S
H715 C734 0.951 . S
H716 C736 0.950 . S
H717 C737 0.950 . S
H718 C739 0.950 . S
H719 C742 0.950 . S
H720 C743 0.950 . S
H721 C745 0.950 . S
H722 C746 0.950 . S
H723 C747 0.951 . S
H724 C749 0.951 . S
H725 C751 0.912 1_545 S
H726 C752 0.950 1_545 S
H727 C754 0.950 . S
H728 C757 0.950 . S
H729 C758 0.950 . S
H730 C760 0.950 . S
H731 C761 0.950 . S
C732 H714 0.951 . S
C732 C733 1.366 . S
C732 C734 1.388 . S
C733 C732 1.366 . S
C733 C737 1.385 1_545 S
C734 H715 0.951 . S
C734 C732 1.388 . S
C734 C735 1.366 . S
C735 C734 1.366 . S
C735 C736 1.414 1_545 S
C735 C738 1.499 1_545 S
C736 H716 0.950 . S
C736 C735 1.414 1_565 S
C736 C737 1.374 . S
C737 H717 0.950 . S
C737 C733 1.385 1_565 S
C737 C736 1.374 . S
C738 C735 1.499 1_565 S
C738 C739 1.373 . S
C738 C740 1.389 . S
C739 H718 0.950 . S
C739 C738 1.373 . S
C739 C755 1.377 . S
C740 C738 1.389 . S
C740 C741 1.524 . S
C740 C754 1.377 . S
C741 C740 1.524 . S
C741 C742 1.397 . S
C741 C746 1.363 1_565 S
C742 H719 0.950 . S
C742 C741 1.397 . S
C742 C743 1.334 1_554 S
C743 H720 0.950 . S
C743 C742 1.334 1_556 S
C743 C744 1.287 . S
C744 C743 1.287 . S
C744 C745 1.524 1_565 S
C744 H763 0.913 . S
C745 H721 0.950 . S
C745 C744 1.524 1_545 S
C745 C746 1.415 1_556 S
C746 H722 0.950 . S
C746 C741 1.363 1_545 S
C746 C745 1.415 1_554 S
C747 H723 0.951 . S
C747 C748 1.366 . S
C747 C749 1.388 . S
C748 C747 1.366 . S
C748 C752 1.385 . S
C749 H724 0.951 . S
C749 C747 1.388 . S
C749 C750 1.366 . S
C750 C749 1.366 . S
C750 C751 1.443 . S
C750 C753 1.499 . S
C751 H725 0.912 1_565 S
C751 C750 1.443 . S
C751 C752 1.386 . S
C752 H726 0.950 1_565 S
C752 C748 1.385 . S
C752 C751 1.386 . S
C753 C750 1.499 . S
C753 C754 1.373 . S
C753 C755 1.389 . S
C754 H727 0.950 . S
C754 C740 1.377 . S
C754 C753 1.373 . S
C755 C739 1.377 . S
C755 C753 1.389 . S
C755 C756 1.524 . S
C756 C755 1.524 . S
C756 C757 1.397 1_565 S
C756 C761 1.363 . S
C757 H728 0.950 . S
C757 C756 1.397 1_545 S
C757 C758 1.334 . S
C758 H729 0.950 . S
C758 C757 1.334 . S
C758 C759 1.280 1_545 S
C759 C758 1.280 1_565 S
C759 C760 1.532 . S
C759 H762 0.999 1_565 S
C760 H730 0.950 . S
C760 C759 1.532 . S
C760 C761 1.415 . S
C761 H731 0.950 . S
C761 C756 1.363 . S
C761 C760 1.415 . S
H762 C759 0.999 1_545 S
H763 C744 0.913 . S
H764 C782 0.951 . S
H765 C784 0.951 . S
H766 C786 0.950 . S
H767 C787 0.950 . S
H768 C789 0.950 . S
H769 C792 0.950 . S
H770 C793 0.950 . S
H771 C795 0.950 . S
H772 C796 0.950 . S
H773 C797 0.951 . S
H774 C799 0.951 . S
H775 C801 0.950 . S
H776 C802 0.950 . S
H777 C804 0.950 . S
H778 C807 0.950 . S
H779 C808 0.950 . S
H780 C810 0.950 . S
H781 C811 0.950 . S
C782 H764 0.951 . S
C782 C783 1.366 . S
C782 C784 1.388 . S
C783 C782 1.366 . S
C783 C787 1.385 . S
C784 H765 0.951 . S
C784 C782 1.388 . S
C784 C785 1.366 . S
C785 C784 1.366 . S
C785 C786 1.414 . S
C785 C788 1.499 . S
C786 H766 0.950 . S
C786 C785 1.414 . S
C786 C787 1.374 . S
C787 H767 0.950 . S
C787 C783 1.385 . S
C787 C786 1.374 . S
C788 C785 1.499 . S
C788 C789 1.373 . S
C788 C790 1.389 . S
C789 H768 0.950 . S
C789 C788 1.373 . S
C789 C805 1.377 . S
C790 C788 1.389 . S
C790 C791 1.524 . S
C790 C804 1.377 . S
C791 C790 1.524 . S
C791 C792 1.397 . S
C791 C796 1.363 . S
C792 H769 0.950 . S
C792 C791 1.397 . S
C792 C793 1.334 . S
C793 H770 0.950 . S
C793 C792 1.334 . S
C793 C794 1.287 . S
C794 C793 1.287 . S
C794 C795 1.524 . S
C794 H813 0.913 . S
C795 H771 0.950 . S
C795 C794 1.524 . S
C795 C796 1.415 . S
C796 H772 0.950 . S
C796 C791 1.363 . S
C796 C795 1.415 . S
C797 H773 0.951 . S
C797 C798 1.366 . S
C797 C799 1.388 . S
C798 C797 1.366 . S
C798 C802 1.385 . S
C799 H774 0.951 . S
C799 C797 1.388 . S
C799 C800 1.366 . S
C800 C799 1.366 . S
C800 C801 1.414 . S
C800 C803 1.499 . S
C801 H775 0.950 . S
C801 C800 1.414 . S
C801 C802 1.374 . S
C802 H776 0.950 . S
C802 C798 1.385 . S
C802 C801 1.374 . S
C803 C800 1.499 . S
C803 C804 1.373 . S
C803 C805 1.389 . S
C804 H777 0.950 . S
C804 C790 1.377 . S
C804 C803 1.373 . S
C805 C789 1.377 . S
C805 C803 1.389 . S
C805 C806 1.524 . S
C806 C805 1.524 . S
C806 C807 1.397 . S
C806 C811 1.363 . S
C807 H778 0.950 . S
C807 C806 1.397 . S
C807 C808 1.334 . S
C808 H779 0.950 . S
C808 C807 1.334 . S
C808 C809 1.287 . S
C809 C808 1.287 . S
C809 C810 1.524 . S
C809 H812 0.999 . S
C810 H780 0.950 . S
C810 C809 1.524 . S
C810 C811 1.415 . S
C811 H781 0.950 . S
C811 C806 1.363 . S
C811 C810 1.415 . S
H812 C809 0.999 . S
H813 C794 0.913 . S
H814 C832 0.951 . S
H815 C834 0.951 . S
H816 C836 0.950 . S
H817 C837 0.953 . S
H818 C839 0.950 . S
H819 C842 0.950 . S
H820 C843 0.950 . S
H821 C845 0.950 . S
H822 C846 0.950 . S
H823 C847 0.951 . S
H824 C849 0.951 . S
H825 C851 0.950 . S
H826 C852 0.950 . S
H827 C854 0.950 . S
H828 C857 0.950 . S
H829 C858 0.950 . S
H830 C860 0.950 . S
H831 C861 0.950 . S
C832 H814 0.951 . S
C832 C833 1.366 . S
C832 C834 1.388 . S
C833 C832 1.366 . S
C833 C837 1.385 . S
C834 H815 0.951 . S
C834 C832 1.388 . S
C834 C835 1.366 . S
C835 C834 1.366 . S
C835 C836 1.414 . S
C835 C838 1.499 . S
C836 H816 0.950 . S
C836 C835 1.414 . S
C836 C837 1.374 . S
C837 H817 0.953 . S
C837 C833 1.385 . S
C837 C836 1.374 . S
C838 C835 1.499 . S
C838 C839 1.373 . S
C838 C840 1.389 . S
C839 H818 0.950 . S
C839 C838 1.373 . S
C839 C855 1.377 . S
C840 C838 1.389 . S
C840 C841 1.524 . S
C840 C854 1.377 . S
C841 C840 1.524 . S
C841 C842 1.397 . S
C841 C846 1.363 . S
C842 H819 0.950 . S
C842 C841 1.397 . S
C842 C843 1.334 . S
C843 H820 0.950 . S
C843 C842 1.334 . S
C843 C844 1.287 . S
C844 C843 1.287 . S
C844 C845 1.524 . S
C844 H863 0.913 . S
C845 H821 0.950 . S
C845 C844 1.524 . S
C845 C846 1.415 . S
C846 H822 0.950 . S
C846 C841 1.363 . S
C846 C845 1.415 . S
C847 H823 0.951 . S
C847 C848 1.366 . S
C847 C849 1.388 . S
C848 C847 1.366 . S
C848 C852 1.385 . S
C849 H824 0.951 . S
C849 C847 1.388 . S
C849 C850 1.366 . S
C850 C849 1.366 . S
C850 C851 1.414 . S
C850 C853 1.499 . S
C851 H825 0.950 . S
C851 C850 1.414 . S
C851 C852 1.374 . S
C852 H826 0.950 . S
C852 C848 1.385 . S
C852 C851 1.374 . S
C853 C850 1.499 . S
C853 C854 1.373 . S
C853 C855 1.389 . S
C854 H827 0.950 . S
C854 C840 1.377 . S
C854 C853 1.373 . S
C855 C839 1.377 . S
C855 C853 1.389 . S
C855 C856 1.524 . S
C856 C855 1.524 . S
C856 C857 1.397 . S
C856 C861 1.363 . S
C857 H828 0.950 . S
C857 C856 1.397 . S
C857 C858 1.334 . S
C858 H829 0.950 . S
C858 C857 1.334 . S
C858 C859 1.287 . S
C859 C858 1.287 . S
C859 C860 1.524 . S
C859 H862 0.999 . S
C860 H830 0.950 . S
C860 C859 1.524 . S
C860 C861 1.415 . S
C861 H831 0.950 . S
C861 C856 1.363 . S
C861 C860 1.415 . S
H862 C859 0.999 . S
H863 C844 0.913 . S
H864 C882 0.951 . S
H865 C884 0.951 . S
H866 C886 0.950 . S
H867 C887 0.950 . S
H868 C889 0.950 . S
H869 C892 0.950 . S
H870 C893 0.950 . S
H871 C895 0.950 . S
H872 C896 0.950 . S
H873 C897 0.951 . S
H874 C899 0.951 . S
H875 C901 0.950 . S
H876 C902 0.950 . S
H877 C904 0.950 . S
H878 C907 0.950 1_556 S
H879 C908 0.950 . S
H880 C910 0.950 . S
H881 C911 0.950 . S
C882 H864 0.951 . S
C882 C883 1.366 1_455 S
C882 C884 1.388 . S
C883 C882 1.366 1_655 S
C883 C887 1.385 . S
C884 H865 0.951 . S
C884 C882 1.388 . S
C884 C885 1.366 . S
C885 C884 1.366 . S
C885 C886 1.414 1_455 S
C885 C888 1.499 . S
C886 H866 0.950 . S
C886 C885 1.414 1_655 S
C886 C887 1.374 . S
C887 H867 0.950 . S
C887 C883 1.385 . S
C887 C886 1.374 . S
C888 C885 1.499 . S
C888 C889 1.373 1_455 S
C888 C890 1.389 . S
C889 H868 0.950 . S
C889 C888 1.373 1_655 S
C889 C905 1.377 . S
C890 C888 1.389 . S
C890 C891 1.524 . S
C890 C904 1.377 . S
C891 C890 1.524 . S
C891 C892 1.397 . S
C891 C896 1.363 . S
C892 H869 0.950 . S
C892 C891 1.397 . S
C892 C893 1.334 . S
C893 H870 0.950 . S
C893 C892 1.334 . S
C893 C894 1.287 . S
C894 C893 1.287 . S
C894 C895 1.524 . S
C894 H913 0.913 . S
C895 H871 0.950 . S
C895 C894 1.524 . S
C895 C896 1.415 . S
C896 H872 0.950 . S
C896 C891 1.363 . S
C896 C895 1.415 . S
C897 H873 0.951 . S
C897 C898 1.366 1_554 S
C897 C899 1.388 . S
C898 C897 1.366 1_556 S
C898 C902 1.385 . S
C899 H874 0.951 . S
C899 C897 1.388 . S
C899 C900 1.366 . S
C900 C899 1.366 . S
C900 C901 1.414 1_554 S
C900 C903 1.499 . S
C901 H875 0.950 . S
C901 C900 1.414 1_556 S
C901 C902 1.374 . S
C902 H876 0.950 . S
C902 C898 1.385 . S
C902 C901 1.374 . S
C903 C900 1.499 . S
C903 C904 1.373 . S
C903 C905 1.389 1_455 S
C904 H877 0.950 . S
C904 C890 1.377 . S
C904 C903 1.373 . S
C905 C889 1.377 . S
C905 C903 1.389 1_655 S
C905 C906 1.524 . S
C906 C905 1.524 . S
C906 C907 1.397 . S
C906 C911 1.363 . S
C907 H878 0.950 1_554 S
C907 C906 1.397 . S
C907 C908 1.334 1_554 S
C908 H879 0.950 . S
C908 C907 1.334 1_556 S
C908 C909 1.287 1_556 S
C909 C908 1.287 1_554 S
C909 C910 1.524 . S
C909 H912 0.999 . S
C910 H880 0.950 . S
C910 C909 1.524 . S
C910 C911 1.415 . S
C911 H881 0.950 . S
C911 C906 1.363 . S
C911 C910 1.415 . S
H912 C909 0.999 . S
H913 C894 0.913 . S
H914 C932 0.951 . S
H915 C934 0.951 . S
H916 C936 0.950 . S
H917 C937 0.950 . S
H918 C939 0.950 . S
H919 C942 0.950 . S
H920 C943 0.950 . S
H921 C945 0.950 . S
H922 C946 0.950 . S
H923 C947 0.951 . S
H924 C949 0.951 . S
H925 C951 0.950 1_565 S
H926 C952 0.950 . S
H927 C954 0.950 1_556 S
H928 C957 0.950 . S
H929 C958 0.950 . S
H930 C960 0.950 . S
H931 C961 0.950 . S
C932 H914 0.951 . S
C932 C933 1.366 . S
C932 C934 1.388 . S
C933 C932 1.366 . S
C933 C937 1.385 1_565 S
C934 H915 0.951 . S
C934 C932 1.388 . S
C934 C935 1.366 1_565 S
C935 C934 1.366 1_545 S
C935 C936 1.414 . S
C935 C938 1.499 . S
C936 H916 0.950 . S
C936 C935 1.414 . S
C936 C937 1.374 . S
C937 H917 0.950 . S
C937 C933 1.385 1_545 S
C937 C936 1.374 . S
C938 C935 1.499 . S
C938 C939 1.373 . S
C938 C940 1.389 . S
C939 H918 0.950 . S
C939 C938 1.373 . S
C939 C955 1.377 . S
C940 C938 1.389 . S
C940 C941 1.524 . S
C940 C954 1.377 . S
C941 C940 1.524 . S
C941 C942 1.397 . S
C941 C946 1.363 1_544 S
C942 H919 0.950 . S
C942 C941 1.397 . S
C942 C943 1.334 . S
C943 H920 0.950 . S
C943 C942 1.334 . S
C943 C944 1.287 1_554 S
C944 C943 1.287 1_556 S
C944 C945 1.524 1_545 S
C944 H963 0.913 . S
C945 H921 0.950 . S
C945 C944 1.524 1_565 S
C945 C946 1.415 . S
C946 H922 0.950 . S
C946 C941 1.363 1_566 S
C946 C945 1.415 . S
C947 H923 0.951 . S
C947 C948 1.366 1_554 S
C947 C949 1.388 . S
C948 C947 1.366 1_556 S
C948 C952 1.385 . S
C949 H924 0.951 . S
C949 C947 1.388 . S
C949 C950 1.366 . S
C950 C949 1.366 . S
C950 C951 1.414 1_554 S
C950 C953 1.499 . S
C951 H925 0.950 1_545 S
C951 C950 1.414 1_556 S
C951 C952 1.374 . S
C952 H926 0.950 . S
C952 C948 1.385 . S
C952 C951 1.374 . S
C953 C950 1.499 . S
C953 C954 1.373 . S
C953 C955 1.389 . S
C954 H927 0.950 1_554 S
C954 C940 1.377 . S
C954 C953 1.373 . S
C955 C939 1.377 . S
C955 C953 1.389 . S
C955 C956 1.524 . S
C956 C955 1.524 . S
C956 C957 1.397 1_545 S
C956 C961 1.363 . S
C957 H928 0.950 . S
C957 C956 1.397 1_565 S
C957 C958 1.334 . S
C958 H929 0.950 . S
C958 C957 1.334 . S
C958 C959 1.287 1_565 S
C959 C958 1.287 1_545 S
C959 C960 1.524 . S
C959 H962 0.999 . S
C960 H930 0.950 . S
C960 C959 1.524 . S
C960 C961 1.415 . S
C961 H931 0.950 . S
C961 C956 1.363 . S
C961 C960 1.415 . S
H962 C959 0.999 . S
H963 C944 0.913 . S
H964 C982 0.951 . S
H965 C984 0.951 . S
H966 C986 0.950 . S
H967 C987 0.950 . S
H968 C989 0.950 . S
H969 C992 0.950 . S
H970 C993 0.950 . S
H971 C995 0.950 . S
H972 C996 0.950 . S
H973 C997 0.951 . S
H974 C999 0.951 . S
H975 C1001 0.950 . S
H976 C1002 0.950 . S
H977 C1004 0.950 . S
H978 C1007 0.950 . S
H979 C1008 0.950 . S
H980 C1010 0.950 . S
H981 C1011 0.950 . S
C982 H964 0.951 . S
C982 C983 1.366 . S
C982 C984 1.388 . S
C983 C982 1.366 . S
C983 C987 1.385 . S
C984 H965 0.951 . S
C984 C982 1.388 . S
C984 C985 1.366 . S
C985 C984 1.366 . S
C985 C986 1.414 . S
C985 C988 1.499 . S
C986 H966 0.950 . S
C986 C985 1.414 . S
C986 C987 1.374 . S
C987 H967 0.950 . S
C987 C983 1.385 . S
C987 C986 1.374 . S
C988 C985 1.499 . S
C988 C989 1.373 . S
C988 C990 1.389 . S
C989 H968 0.950 . S
C989 C988 1.373 . S
C989 C1005 1.377 . S
C990 C988 1.389 . S
C990 C991 1.524 . S
C990 C1004 1.377 . S
C991 C990 1.524 . S
C991 C992 1.397 . S
C991 C996 1.363 . S
C992 H969 0.950 . S
C992 C991 1.397 . S
C992 C993 1.334 . S
C993 H970 0.950 . S
C993 C992 1.334 . S
C993 C994 1.287 . S
C994 C993 1.287 . S
C994 C995 1.524 . S
C994 H1013 0.913 . S
C995 H971 0.950 . S
C995 C994 1.524 . S
C995 C996 1.415 . S
C996 H972 0.950 . S
C996 C991 1.363 . S
C996 C995 1.415 . S
C997 H973 0.951 . S
C997 C998 1.366 . S
C997 C999 1.388 . S
C998 C997 1.366 . S
C998 C1002 1.385 1_556 S
C999 H974 0.951 . S
C999 C997 1.388 . S
C999 C1000 1.366 1_556 S
C1000 C999 1.366 1_554 S
C1000 C1001 1.414 . S
C1000 C1003 1.499 . S
C1001 H975 0.950 . S
C1001 C1000 1.414 . S
C1001 C1002 1.374 . S
C1002 H976 0.950 . S
C1002 C998 1.385 1_554 S
C1002 C1001 1.374 . S
C1003 C1000 1.499 . S
C1003 C1004 1.373 . S
C1003 C1005 1.389 . S
C1004 H977 0.950 . S
C1004 C990 1.377 . S
C1004 C1003 1.373 . S
C1005 C989 1.377 . S
C1005 C1003 1.389 . S
C1005 C1006 1.524 . S
C1006 C1005 1.524 . S
C1006 C1007 1.397 . S
C1006 C1011 1.363 . S
C1007 H978 0.950 . S
C1007 C1006 1.397 . S
C1007 C1008 1.334 . S
C1008 H979 0.950 . S
C1008 C1007 1.334 . S
C1008 C1009 1.287 . S
C1009 C1008 1.287 . S
C1009 C1010 1.524 . S
C1009 H1012 0.999 . S
C1010 H980 0.950 . S
C1010 C1009 1.524 . S
C1010 C1011 1.415 . S
C1011 H981 0.950 . S
C1011 C1006 1.363 . S
C1011 C1010 1.415 . S
H1012 C1009 0.999 . S
H1013 C994 0.913 . S
H1014 C1032 0.951 . S
H1015 C1034 0.951 . S
H1016 C1036 0.950 . S
H1017 C1037 0.950 . S
H1018 C1039 0.950 . S
H1019 C1042 0.950 . S
H1020 C1043 0.950 . S
H1021 C1045 0.950 . S
H1022 C1046 0.950 . S
H1023 C1047 0.951 . S
H1024 C1049 0.951 . S
H1025 C1051 0.950 . S
H1026 C1052 0.950 . S
H1027 C1054 0.950 . S
H1028 C1057 0.950 . S
H1029 C1058 0.950 . S
H1030 C1060 0.950 . S
H1031 C1061 0.950 1_556 S
C1032 H1014 0.951 . S
C1032 C1033 1.366 . S
C1032 C1034 1.388 . S
C1033 C1032 1.366 . S
C1033 C1037 1.385 . S
C1034 H1015 0.951 . S
C1034 C1032 1.388 . S
C1034 C1035 1.366 . S
C1035 C1034 1.366 . S
C1035 C1036 1.414 . S
C1035 C1038 1.499 . S
C1036 H1016 0.950 . S
C1036 C1035 1.414 . S
C1036 C1037 1.374 . S
C1037 H1017 0.950 . S
C1037 C1033 1.385 . S
C1037 C1036 1.374 . S
C1038 C1035 1.499 . S
C1038 C1039 1.373 . S
C1038 C1040 1.389 . S
C1039 H1018 0.950 . S
C1039 C1038 1.373 . S
C1039 C1055 1.377 . S
C1040 C1038 1.389 . S
C1040 C1041 1.524 . S
C1040 C1054 1.377 . S
C1041 C1040 1.524 . S
C1041 C1042 1.397 . S
C1041 C1046 1.363 . S
C1042 H1019 0.950 . S
C1042 C1041 1.397 . S
C1042 C1043 1.334 . S
C1043 H1020 0.950 . S
C1043 C1042 1.334 . S
C1043 C1044 1.287 . S
C1044 C1043 1.287 . S
C1044 C1045 1.524 . S
C1044 H1063 0.913 . S
C1045 H1021 0.950 . S
C1045 C1044 1.524 . S
C1045 C1046 1.415 . S
C1046 H1022 0.950 . S
C1046 C1041 1.363 . S
C1046 C1045 1.415 . S
C1047 H1023 0.951 . S
C1047 C1048 1.366 . S
C1047 C1049 1.388 . S
C1048 C1047 1.366 . S
C1048 C1052 1.385 1_556 S
C1049 H1024 0.951 . S
C1049 C1047 1.388 . S
C1049 C1050 1.366 1_556 S
C1050 C1049 1.366 1_554 S
C1050 C1051 1.414 . S
C1050 C1053 1.499 . S
C1051 H1025 0.950 . S
C1051 C1050 1.414 . S
C1051 C1052 1.374 . S
C1052 H1026 0.950 . S
C1052 C1048 1.385 1_554 S
C1052 C1051 1.374 . S
C1053 C1050 1.499 . S
C1053 C1054 1.373 . S
C1053 C1055 1.389 . S
C1054 H1027 0.950 . S
C1054 C1040 1.377 . S
C1054 C1053 1.373 . S
C1055 C1039 1.377 . S
C1055 C1053 1.389 . S
C1055 C1056 1.524 . S
C1056 C1055 1.524 . S
C1056 C1057 1.397 . S
C1056 C1061 1.363 . S
C1057 H1028 0.950 . S
C1057 C1056 1.397 . S
C1057 C1058 1.334 . S
C1058 H1029 0.950 . S
C1058 C1057 1.334 . S
C1058 C1059 1.287 . S
C1059 C1058 1.287 . S
C1059 C1060 1.524 1_554 S
C1059 H1062 0.999 1_554 S
C1060 H1030 0.950 . S
C1060 C1059 1.524 1_556 S
C1060 C1061 1.415 1_556 S
C1061 H1031 0.950 1_554 S
C1061 C1056 1.363 . S
C1061 C1060 1.415 1_554 S
H1062 C1059 0.999 1_556 S
H1063 C1044 0.913 . S
H1064 C1082 0.949 . S
H1065 C1084 0.928 1_655 S
H1066 C1086 0.950 . S
H1067 C1087 0.950 . S
H1068 C1089 0.950 . S
H1069 C1092 0.950 . S
H1070 C1093 0.950 . S
H1071 C1095 0.950 . S
H1072 C1096 0.919 1_655 S
H1073 C1097 0.951 . S
H1074 C1099 0.951 . S
H1075 C1101 0.950 1_655 S
H1076 C1102 0.950 1_655 S
H1077 C1104 0.950 . S
H1078 C1107 0.950 . S
H1079 C1108 0.950 . S
H1080 C1110 0.950 . S
H1081 C1111 0.950 . S
C1082 H1064 0.949 . S
C1082 C1083 1.368 1_655 S
C1082 C1084 1.387 1_655 S
C1083 C1082 1.368 1_455 S
C1083 C1087 1.385 . S
C1084 H1065 0.928 1_455 S
C1084 C1082 1.387 1_455 S
C1084 C1085 1.390 . S
C1085 C1084 1.390 . S
C1085 C1086 1.414 . S
C1085 C1088 1.499 . S
C1086 H1066 0.950 . S
C1086 C1085 1.414 . S
C1086 C1087 1.374 . S
C1087 H1067 0.950 . S
C1087 C1083 1.385 . S
C1087 C1086 1.374 . S
C1088 C1085 1.499 . S
C1088 C1089 1.373 . S
C1088 C1090 1.389 . S
C1089 H1068 0.950 . S
C1089 C1088 1.373 . S
C1089 C1105 1.377 . S
C1090 C1088 1.389 . S
C1090 C1091 1.524 . S
C1090 C1104 1.377 . S
C1091 C1090 1.524 . S
C1091 C1092 1.397 . S
C1091 C1096 1.363 1_556 S
C1092 H1069 0.950 . S
C1092 C1091 1.397 . S
C1092 C1093 1.334 1_556 S
C1093 H1070 0.950 . S
C1093 C1092 1.334 1_554 S
C1093 C1094 1.287 . S
C1094 C1093 1.287 . S
C1094 C1095 1.524 . S
C1094 H1113 0.913 . S
C1095 H1071 0.950 . S
C1095 C1094 1.524 . S
C1095 C1096 1.415 . S
C1096 H1072 0.919 1_455 S
C1096 C1091 1.363 1_554 S
C1096 C1095 1.415 . S
C1097 H1073 0.951 . S
C1097 C1098 1.366 . S
C1097 C1099 1.388 . S
C1098 C1097 1.366 . S
C1098 C1102 1.385 . S
C1099 H1074 0.951 . S
C1099 C1097 1.388 . S
C1099 C1100 1.366 . S
C1100 C1099 1.366 . S
C1100 C1101 1.414 . S
C1100 C1103 1.499 . S
C1101 H1075 0.950 1_455 S
C1101 C1100 1.414 . S
C1101 C1102 1.374 . S
C1102 H1076 0.950 1_455 S
C1102 C1098 1.385 . S
C1102 C1101 1.374 . S
C1103 C1100 1.499 . S
C1103 C1104 1.373 . S
C1103 C1105 1.389 . S
C1104 H1077 0.950 . S
C1104 C1090 1.377 . S
C1104 C1103 1.373 . S
C1105 C1089 1.377 . S
C1105 C1103 1.389 . S
C1105 C1106 1.524 . S
C1106 C1105 1.524 . S
C1106 C1107 1.397 1_455 S
C1106 C1111 1.363 . S
C1107 H1078 0.950 . S
C1107 C1106 1.397 1_655 S
C1107 C1108 1.334 . S
C1108 H1079 0.950 . S
C1108 C1107 1.334 . S
C1108 C1109 1.287 . S
C1109 C1108 1.287 . S
C1109 C1110 1.524 1_655 S
C1109 H1112 0.999 . S
C1110 H1080 0.950 . S
C1110 C1109 1.524 1_455 S
C1110 C1111 1.415 . S
C1111 H1081 0.950 . S
C1111 C1106 1.363 . S
C1111 C1110 1.415 . S
H1112 C1109 0.999 . S
H1113 C1094 0.913 . S
H1114 C1132 0.951 . S
H1115 C1134 0.951 . S
H1116 C1136 0.950 . S
H1117 C1137 0.950 . S
H1118 C1139 0.950 . S
H1119 C1142 0.950 . S
H1120 C1143 0.950 . S
H1121 C1145 0.950 . S
H1122 C1146 0.983 . S
H1123 C1147 0.951 . S
H1124 C1149 0.951 . S
H1125 C1151 0.950 . S
H1126 C1152 0.950 . S
H1127 C1154 0.950 1_565 S
H1128 C1157 0.950 . S
H1129 C1158 0.950 . S
H1130 C1160 0.950 . S
H1131 C1161 0.950 . S
C1132 H1114 0.951 . S
C1132 C1133 1.366 . S
C1132 C1134 1.388 . S
C1133 C1132 1.366 . S
C1133 C1137 1.385 . S
C1134 H1115 0.951 . S
C1134 C1132 1.388 . S
C1134 C1135 1.366 . S
C1135 C1134 1.366 . S
C1135 C1136 1.414 . S
C1135 C1138 1.499 . S
C1136 H1116 0.950 . S
C1136 C1135 1.414 . S
C1136 C1137 1.374 . S
C1137 H1117 0.950 . S
C1137 C1133 1.385 . S
C1137 C1136 1.374 . S
C1138 C1135 1.499 . S
C1138 C1139 1.373 . S
C1138 C1140 1.407 . S
C1139 H1118 0.950 . S
C1139 C1138 1.373 . S
C1139 C1155 1.377 . S
C1140 C1138 1.407 . S
C1140 C1141 1.502 1_545 S
C1140 C1154 1.380 . S
C1141 C1140 1.502 1_565 S
C1141 C1142 1.397 . S
C1141 C1146 1.363 . S
C1142 H1119 0.950 . S
C1142 C1141 1.397 . S
C1142 C1143 1.334 . S
C1143 H1120 0.950 . S
C1143 C1142 1.334 . S
C1143 C1144 1.287 . S
C1144 C1143 1.287 . S
C1144 C1145 1.524 . S
C1144 H1163 0.913 . S
C1145 H1121 0.950 . S
C1145 C1144 1.524 . S
C1145 C1146 1.415 . S
C1146 H1122 0.983 . S
C1146 C1141 1.363 . S
C1146 C1145 1.415 . S
C1147 H1123 0.951 . S
C1147 C1148 1.366 . S
C1147 C1149 1.388 . S
C1148 C1147 1.366 . S
C1148 C1152 1.385 . S
C1149 H1124 0.951 . S
C1149 C1147 1.388 . S
C1149 C1150 1.366 . S
C1150 C1149 1.366 . S
C1150 C1151 1.414 . S
C1150 C1153 1.499 . S
C1151 H1125 0.950 . S
C1151 C1150 1.414 . S
C1151 C1152 1.374 . S
C1152 H1126 0.950 . S
C1152 C1148 1.385 . S
C1152 C1151 1.374 . S
C1153 C1150 1.499 . S
C1153 C1154 1.373 . S
C1153 C1155 1.389 . S
C1154 H1127 0.950 1_545 S
C1154 C1140 1.380 . S
C1154 C1153 1.373 . S
C1155 C1139 1.377 . S
C1155 C1153 1.389 . S
C1155 C1156 1.524 . S
C1156 C1155 1.524 . S
C1156 C1157 1.397 . S
C1156 C1161 1.363 1_556 S
C1157 H1128 0.950 . S
C1157 C1156 1.397 . S
C1157 C1158 1.334 . S
C1158 H1129 0.950 . S
C1158 C1157 1.334 . S
C1158 C1159 1.287 1_556 S
C1159 C1158 1.287 1_554 S
C1159 C1160 1.524 . S
C1159 H1162 0.999 . S
C1160 H1130 0.950 . S
C1160 C1159 1.524 . S
C1160 C1161 1.415 . S
C1161 H1131 0.950 . S
C1161 C1156 1.363 1_554 S
C1161 C1160 1.415 . S
H1162 C1159 0.999 . S
H1163 C1144 0.913 . S
H1164 C1182 0.951 . S
H1165 C1184 0.951 . S
H1166 C1186 0.950 . S
H1167 C1187 0.950 . S
H1168 C1189 0.950 . S
H1169 C1192 0.950 . S
H1170 C1193 0.950 . S
H1171 C1195 0.950 . S
H1172 C1196 0.950 . S
H1173 C1197 0.951 . S
H1174 C1199 0.951 . S
H1175 C1201 0.950 . S
H1176 C1202 0.950 . S
H1177 C1204 0.950 . S
H1178 C1207 0.950 . S
H1179 C1208 0.950 . S
H1180 C1210 0.950 . S
H1181 C1211 0.950 . S
C1182 H1164 0.951 . S
C1182 C1183 1.366 . S
C1182 C1184 1.388 . S
C1183 C1182 1.366 . S
C1183 C1187 1.385 . S
C1184 H1165 0.951 . S
C1184 C1182 1.388 . S
C1184 C1185 1.366 . S
C1185 C1184 1.366 . S
C1185 C1186 1.414 . S
C1185 C1188 1.499 . S
C1186 H1166 0.950 . S
C1186 C1185 1.414 . S
C1186 C1187 1.374 . S
C1187 H1167 0.950 . S
C1187 C1183 1.385 . S
C1187 C1186 1.374 . S
C1188 C1185 1.499 . S
C1188 C1189 1.373 . S
C1188 C1190 1.389 . S
C1189 H1168 0.950 . S
C1189 C1188 1.373 . S
C1189 C1205 1.377 . S
C1190 C1188 1.389 . S
C1190 C1191 1.524 . S
C1190 C1204 1.377 . S
C1191 C1190 1.524 . S
C1191 C1192 1.397 . S
C1191 C1196 1.363 . S
C1192 H1169 0.950 . S
C1192 C1191 1.397 . S
C1192 C1193 1.334 . S
C1193 H1170 0.950 . S
C1193 C1192 1.334 . S
C1193 C1194 1.287 . S
C1194 C1193 1.287 . S
C1194 C1195 1.524 . S
C1194 H1213 0.913 . S
C1195 H1171 0.950 . S
C1195 C1194 1.524 . S
C1195 C1196 1.415 . S
C1196 H1172 0.950 . S
C1196 C1191 1.363 . S
C1196 C1195 1.415 . S
C1197 H1173 0.951 . S
C1197 C1198 1.366 . S
C1197 C1199 1.388 . S
C1198 C1197 1.366 . S
C1198 C1202 1.385 . S
C1199 H1174 0.951 . S
C1199 C1197 1.388 . S
C1199 C1200 1.366 . S
C1200 C1199 1.366 . S
C1200 C1201 1.414 . S
C1200 C1203 1.499 . S
C1201 H1175 0.950 . S
C1201 C1200 1.414 . S
C1201 C1202 1.374 . S
C1202 H1176 0.950 . S
C1202 C1198 1.385 . S
C1202 C1201 1.374 . S
C1203 C1200 1.499 . S
C1203 C1204 1.373 . S
C1203 C1205 1.389 . S
C1204 H1177 0.950 . S
C1204 C1190 1.377 . S
C1204 C1203 1.373 . S
C1205 C1189 1.377 . S
C1205 C1203 1.389 . S
C1205 C1206 1.524 . S
C1206 C1205 1.524 . S
C1206 C1207 1.397 . S
C1206 C1211 1.363 1_556 S
C1207 H1178 0.950 . S
C1207 C1206 1.397 . S
C1207 C1208 1.334 . S
C1208 H1179 0.950 . S
C1208 C1207 1.334 . S
C1208 C1209 1.287 1_556 S
C1209 C1208 1.287 1_554 S
C1209 C1210 1.524 . S
C1209 H1212 0.999 . S
C1210 H1180 0.950 . S
C1210 C1209 1.524 . S
C1210 C1211 1.415 . S
C1211 H1181 0.950 . S
C1211 C1206 1.363 1_554 S
C1211 C1210 1.415 . S
H1212 C1209 0.999 . S
H1213 C1194 0.913 . S
H1214 C1232 0.951 . S
H1215 C1234 0.951 . S
H1216 C1236 0.950 . S
H1217 C1237 0.950 . S
H1218 C1239 0.950 . S
H1219 C1242 0.950 . S
H1220 C1243 0.950 . S
H1221 C1245 0.950 . S
H1222 C1246 0.950 . S
H1223 C1247 0.951 . S
H1224 C1249 0.951 . S
H1225 C1251 0.950 . S
H1226 C1252 0.950 . S
H1227 C1254 0.950 . S
H1228 C1257 0.950 . S
H1229 C1258 0.950 . S
H1230 C1260 0.950 . S
H1231 C1261 0.950 1_554 S
C1232 H1214 0.951 . S
C1232 C1233 1.366 . S
C1232 C1234 1.388 . S
C1233 C1232 1.366 . S
C1233 C1237 1.385 . S
C1234 H1215 0.951 . S
C1234 C1232 1.388 . S
C1234 C1235 1.366 . S
C1235 C1234 1.366 . S
C1235 C1236 1.414 . S
C1235 C1238 1.499 . S
C1236 H1216 0.950 . S
C1236 C1235 1.414 . S
C1236 C1237 1.374 . S
C1237 H1217 0.950 . S
C1237 C1233 1.385 . S
C1237 C1236 1.374 . S
C1238 C1235 1.499 . S
C1238 C1239 1.373 . S
C1238 C1240 1.389 . S
C1239 H1218 0.950 . S
C1239 C1238 1.373 . S
C1239 C1255 1.377 . S
C1240 C1238 1.389 . S
C1240 C1241 1.524 . S
C1240 C1254 1.377 . S
C1241 C1240 1.524 . S
C1241 C1242 1.397 . S
C1241 C1246 1.363 . S
C1242 H1219 0.950 . S
C1242 C1241 1.397 . S
C1242 C1243 1.334 . S
C1243 H1220 0.950 . S
C1243 C1242 1.334 . S
C1243 C1244 1.287 . S
C1244 C1243 1.287 . S
C1244 C1245 1.524 . S
C1244 H1263 0.913 . S
C1245 H1221 0.950 . S
C1245 C1244 1.524 . S
C1245 C1246 1.415 . S
C1246 H1222 0.950 . S
C1246 C1241 1.363 . S
C1246 C1245 1.415 . S
C1247 H1223 0.951 . S
C1247 C1248 1.366 . S
C1247 C1249 1.388 . S
C1248 C1247 1.366 . S
C1248 C1252 1.385 . S
C1249 H1224 0.951 . S
C1249 C1247 1.388 . S
C1249 C1250 1.366 . S
C1250 C1249 1.366 . S
C1250 C1251 1.414 . S
C1250 C1253 1.499 . S
C1251 H1225 0.950 . S
C1251 C1250 1.414 . S
C1251 C1252 1.374 . S
C1252 H1226 0.950 . S
C1252 C1248 1.385 . S
C1252 C1251 1.374 . S
C1253 C1250 1.499 . S
C1253 C1254 1.373 . S
C1253 C1255 1.389 . S
C1254 H1227 0.950 . S
C1254 C1240 1.377 . S
C1254 C1253 1.373 . S
C1255 C1239 1.377 . S
C1255 C1253 1.389 . S
C1255 C1256 1.524 . S
C1256 C1255 1.524 . S
C1256 C1257 1.397 . S
C1256 C1261 1.363 . S
C1257 H1228 0.950 . S
C1257 C1256 1.397 . S
C1257 C1258 1.334 . S
C1258 H1229 0.950 . S
C1258 C1257 1.334 . S
C1258 C1259 1.287 . S
C1259 C1258 1.287 . S
C1259 C1260 1.524 1_556 S
C1259 H1262 0.999 1_556 S
C1260 H1230 0.950 . S
C1260 C1259 1.524 1_554 S
C1260 C1261 1.415 1_554 S
C1261 H1231 0.950 1_556 S
C1261 C1256 1.363 . S
C1261 C1260 1.415 1_556 S
H1262 C1259 0.999 1_554 S
H1263 C1244 0.913 . S
H1264 C1282 0.963 . S
H1265 C1284 0.951 . S
H1266 C1286 0.950 . S
H1267 C1287 0.950 . S
H1268 C1289 0.950 . S
H1269 C1292 0.950 . S
H1270 C1293 0.950 . S
H1271 C1295 0.950 . S
H1272 C1296 0.950 . S
H1273 C1297 0.951 . S
H1274 C1299 0.951 . S
H1275 C1301 0.950 1_455 S
H1276 C1302 0.946 1_455 S
H1277 C1304 0.950 . S
H1278 C1307 0.950 . S
H1279 C1308 0.950 . S
H1280 C1310 0.950 . S
H1281 C1311 0.950 . S
C1282 H1264 0.963 . S
C1282 C1283 1.356 1_455 S
C1282 C1284 1.389 . S
C1283 C1282 1.356 1_655 S
C1283 C1287 1.385 . S
C1284 H1265 0.951 . S
C1284 C1282 1.389 . S
C1284 C1285 1.366 1_455 S
C1285 C1284 1.366 1_655 S
C1285 C1286 1.414 . S
C1285 C1288 1.499 . S
C1286 H1266 0.950 . S
C1286 C1285 1.414 . S
C1286 C1287 1.374 . S
C1287 H1267 0.950 . S
C1287 C1283 1.385 . S
C1287 C1286 1.374 . S
C1288 C1285 1.499 . S
C1288 C1289 1.373 . S
C1288 C1290 1.389 1_655 S
C1289 H1268 0.950 . S
C1289 C1288 1.373 . S
C1289 C1305 1.377 . S
C1290 C1288 1.389 1_455 S
C1290 C1291 1.524 . S
C1290 C1304 1.377 . S
C1291 C1290 1.524 . S
C1291 C1292 1.397 . S
C1291 C1296 1.363 . S
C1292 H1269 0.950 . S
C1292 C1291 1.397 . S
C1292 C1293 1.334 . S
C1293 H1270 0.950 . S
C1293 C1292 1.334 . S
C1293 C1294 1.287 . S
C1294 C1293 1.287 . S
C1294 C1295 1.524 . S
C1294 H1313 0.913 . S
C1295 H1271 0.950 . S
C1295 C1294 1.524 . S
C1295 C1296 1.415 . S
C1296 H1272 0.950 . S
C1296 C1291 1.363 . S
C1296 C1295 1.415 . S
C1297 H1273 0.951 . S
C1297 C1298 1.366 . S
C1297 C1299 1.388 . S
C1298 C1297 1.366 . S
C1298 C1302 1.385 . S
C1299 H1274 0.951 . S
C1299 C1297 1.388 . S
C1299 C1300 1.366 . S
C1300 C1299 1.366 . S
C1300 C1301 1.414 . S
C1300 C1303 1.499 . S
C1301 H1275 0.950 1_655 S
C1301 C1300 1.414 . S
C1301 C1302 1.374 . S
C1302 H1276 0.946 1_655 S
C1302 C1298 1.385 . S
C1302 C1301 1.374 . S
C1303 C1300 1.499 . S
C1303 C1304 1.373 1_655 S
C1303 C1305 1.389 . S
C1304 H1277 0.950 . S
C1304 C1290 1.377 . S
C1304 C1303 1.373 1_455 S
C1305 C1289 1.377 . S
C1305 C1303 1.389 . S
C1305 C1306 1.524 . S
C1306 C1305 1.524 . S
C1306 C1307 1.397 . S
C1306 C1311 1.363 . S
C1307 H1278 0.950 . S
C1307 C1306 1.397 . S
C1307 C1308 1.334 . S
C1308 H1279 0.950 . S
C1308 C1307 1.334 . S
C1308 C1309 1.287 . S
C1309 C1308 1.287 . S
C1309 C1310 1.524 . S
C1309 H1312 0.999 . S
C1310 H1280 0.950 . S
C1310 C1309 1.524 . S
C1310 C1311 1.415 . S
C1311 H1281 0.950 . S
C1311 C1306 1.363 . S
C1311 C1310 1.415 . S
H1312 C1309 0.999 . S
H1313 C1294 0.913 . S
H1314 C1332 0.951 . S
H1315 C1334 0.951 . S
H1316 C1336 0.950 . S
H1317 C1337 0.950 . S
H1318 C1339 0.950 . S
H1319 C1342 0.950 . S
H1320 C1343 0.950 . S
H1321 C1345 0.950 . S
H1322 C1346 0.950 . S
H1323 C1347 0.956 . S
H1324 C1349 0.957 . S
H1325 C1351 0.950 . S
H1326 C1352 0.950 . S
H1327 C1354 0.950 . S
H1328 C1357 0.950 . S
H1329 C1358 0.950 . S
H1330 C1360 0.950 . S
H1331 C1361 0.950 . S
C1332 H1314 0.951 . S
C1332 C1333 1.366 . S
C1332 C1334 1.388 . S
C1333 C1332 1.366 . S
C1333 C1337 1.385 1_565 S
C1334 H1315 0.951 . S
C1334 C1332 1.388 . S
C1334 C1335 1.366 . S
C1335 C1334 1.366 . S
C1335 C1336 1.415 1_565 S
C1335 C1338 1.499 . S
C1336 H1316 0.950 . S
C1336 C1335 1.415 1_545 S
C1336 C1337 1.374 . S
C1337 H1317 0.950 . S
C1337 C1333 1.385 1_545 S
C1337 C1336 1.374 . S
C1338 C1335 1.499 . S
C1338 C1339 1.373 . S
C1338 C1340 1.389 1_565 S
C1339 H1318 0.950 . S
C1339 C1338 1.373 . S
C1339 C1355 1.377 . S
C1340 C1338 1.389 1_545 S
C1340 C1341 1.524 . S
C1340 C1354 1.377 . S
C1341 C1340 1.524 . S
C1341 C1342 1.397 . S
C1341 C1346 1.363 . S
C1342 H1319 0.950 . S
C1342 C1341 1.397 . S
C1342 C1343 1.334 . S
C1343 H1320 0.950 . S
C1343 C1342 1.334 . S
C1343 C1344 1.287 . S
C1344 C1343 1.287 . S
C1344 C1345 1.524 . S
C1344 H1363 0.913 . S
C1345 H1321 0.950 . S
C1345 C1344 1.524 . S
C1345 C1346 1.415 . S
C1346 H1322 0.950 . S
C1346 C1341 1.363 . S
C1346 C1345 1.415 . S
C1347 H1323 0.956 . S
C1347 C1348 1.366 . S
C1347 C1349 1.388 . S
C1348 C1347 1.366 . S
C1348 C1352 1.385 . S
C1349 H1324 0.957 . S
C1349 C1347 1.388 . S
C1349 C1350 1.366 . S
C1350 C1349 1.366 . S
C1350 C1351 1.414 . S
C1350 C1353 1.499 . S
C1351 H1325 0.950 . S
C1351 C1350 1.414 . S
C1351 C1352 1.374 . S
C1352 H1326 0.950 . S
C1352 C1348 1.385 . S
C1352 C1351 1.374 . S
C1353 C1350 1.499 . S
C1353 C1354 1.373 1_565 S
C1353 C1355 1.389 . S
C1354 H1327 0.950 . S
C1354 C1340 1.377 . S
C1354 C1353 1.373 1_545 S
C1355 C1339 1.377 . S
C1355 C1353 1.389 . S
C1355 C1356 1.524 . S
C1356 C1355 1.524 . S
C1356 C1357 1.397 . S
C1356 C1361 1.363 . S
C1357 H1328 0.950 . S
C1357 C1356 1.397 . S
C1357 C1358 1.334 . S
C1358 H1329 0.950 . S
C1358 C1357 1.334 . S
C1358 C1359 1.287 . S
C1359 C1358 1.287 . S
C1359 C1360 1.524 . S
C1359 H1362 0.999 . S
C1360 H1330 0.950 . S
C1360 C1359 1.524 . S
C1360 C1361 1.415 . S
C1361 H1331 0.950 . S
C1361 C1356 1.363 . S
C1361 C1360 1.415 . S
H1362 C1359 0.999 . S
H1363 C1344 0.913 . S
H1364 C1382 0.951 . S
H1365 C1384 0.951 . S
H1366 C1386 0.950 . S
H1367 C1387 0.950 . S
H1368 C1389 0.950 . S
H1369 C1392 0.950 . S
H1370 C1393 0.950 . S
H1371 C1395 0.950 . S
H1372 C1396 0.950 . S
H1373 C1397 0.951 . S
H1374 C1399 0.951 . S
H1375 C1401 0.950 . S
H1376 C1402 0.950 . S
H1377 C1404 0.950 . S
H1378 C1407 0.950 . S
H1379 C1408 0.950 . S
H1380 C1410 0.950 . S
H1381 C1411 0.950 . S
C1382 H1364 0.951 . S
C1382 C1383 1.366 . S
C1382 C1384 1.388 . S
C1383 C1382 1.366 . S
C1383 C1387 1.385 . S
C1384 H1365 0.951 . S
C1384 C1382 1.388 . S
C1384 C1385 1.366 . S
C1385 C1384 1.366 . S
C1385 C1386 1.414 . S
C1385 C1388 1.499 . S
C1386 H1366 0.950 . S
C1386 C1385 1.414 . S
C1386 C1387 1.374 . S
C1387 H1367 0.950 . S
C1387 C1383 1.385 . S
C1387 C1386 1.374 . S
C1388 C1385 1.499 . S
C1388 C1389 1.373 . S
C1388 C1390 1.389 . S
C1389 H1368 0.950 . S
C1389 C1388 1.373 . S
C1389 C1405 1.377 . S
C1390 C1388 1.389 . S
C1390 C1391 1.524 . S
C1390 C1404 1.377 . S
C1391 C1390 1.524 . S
C1391 C1392 1.397 . S
C1391 C1396 1.363 . S
C1392 H1369 0.950 . S
C1392 C1391 1.397 . S
C1392 C1393 1.334 . S
C1393 H1370 0.950 . S
C1393 C1392 1.334 . S
C1393 C1394 1.287 . S
C1394 C1393 1.287 . S
C1394 C1395 1.524 . S
C1394 H1413 0.913 . S
C1395 H1371 0.950 . S
C1395 C1394 1.524 . S
C1395 C1396 1.415 . S
C1396 H1372 0.950 . S
C1396 C1391 1.363 . S
C1396 C1395 1.415 . S
C1397 H1373 0.951 . S
C1397 C1398 1.366 . S
C1397 C1399 1.388 . S
C1398 C1397 1.366 . S
C1398 C1402 1.385 . S
C1399 H1374 0.951 . S
C1399 C1397 1.388 . S
C1399 C1400 1.366 . S
C1400 C1399 1.366 . S
C1400 C1401 1.414 . S
C1400 C1403 1.499 . S
C1401 H1375 0.950 . S
C1401 C1400 1.414 . S
C1401 C1402 1.374 . S
C1402 H1376 0.950 . S
C1402 C1398 1.385 . S
C1402 C1401 1.374 . S
C1403 C1400 1.499 . S
C1403 C1404 1.373 . S
C1403 C1405 1.389 . S
C1404 H1377 0.950 . S
C1404 C1390 1.377 . S
C1404 C1403 1.373 . S
C1405 C1389 1.377 . S
C1405 C1403 1.389 . S
C1405 C1406 1.524 . S
C1406 C1405 1.524 . S
C1406 C1407 1.397 . S
C1406 C1411 1.363 . S
C1407 H1378 0.950 . S
C1407 C1406 1.397 . S
C1407 C1408 1.334 . S
C1408 H1379 0.950 . S
C1408 C1407 1.334 . S
C1408 C1409 1.287 . S
C1409 C1408 1.287 . S
C1409 C1410 1.524 . S
C1409 H1412 0.999 . S
C1410 H1380 0.950 . S
C1410 C1409 1.524 . S
C1410 C1411 1.415 . S
C1411 H1381 0.950 . S
C1411 C1406 1.363 . S
C1411 C1410 1.415 . S
H1412 C1409 0.999 . S
H1413 C1394 0.913 . S
H1414 C1432 0.951 . S
H1415 C1434 0.951 . S
H1416 C1436 0.950 . S
H1417 C1437 0.950 . S
H1418 C1439 0.950 . S
H1419 C1442 0.950 . S
H1420 C1443 0.950 . S
H1421 C1445 0.950 . S
H1422 C1446 0.950 . S
H1423 C1447 0.951 . S
H1424 C1449 0.951 . S
H1425 C1451 0.950 . S
H1426 C1452 0.950 . S
H1427 C1454 0.950 . S
H1428 C1457 0.950 . S
H1429 C1458 0.950 . S
H1430 C1460 0.950 . S
H1431 C1461 0.950 . S
C1432 H1414 0.951 . S
C1432 C1433 1.366 . S
C1432 C1434 1.388 . S
C1433 C1432 1.366 . S
C1433 C1437 1.385 . S
C1434 H1415 0.951 . S
C1434 C1432 1.388 . S
C1434 C1435 1.366 . S
C1435 C1434 1.366 . S
C1435 C1436 1.414 . S
C1435 C1438 1.499 . S
C1436 H1416 0.950 . S
C1436 C1435 1.414 . S
C1436 C1437 1.374 . S
C1437 H1417 0.950 . S
C1437 C1433 1.385 . S
C1437 C1436 1.374 . S
C1438 C1435 1.499 . S
C1438 C1439 1.373 . S
C1438 C1440 1.389 . S
C1439 H1418 0.950 . S
C1439 C1438 1.373 . S
C1439 C1455 1.377 . S
C1440 C1438 1.389 . S
C1440 C1441 1.524 . S
C1440 C1454 1.377 . S
C1441 C1440 1.524 . S
C1441 C1442 1.397 . S
C1441 C1446 1.363 . S
C1442 H1419 0.950 . S
C1442 C1441 1.397 . S
C1442 C1443 1.334 . S
C1443 H1420 0.950 . S
C1443 C1442 1.334 . S
C1443 C1444 1.287 . S
C1444 C1443 1.287 . S
C1444 C1445 1.524 . S
C1444 H1463 0.913 . S
C1445 H1421 0.950 . S
C1445 C1444 1.524 . S
C1445 C1446 1.415 . S
C1446 H1422 0.950 . S
C1446 C1441 1.363 . S
C1446 C1445 1.415 . S
C1447 H1423 0.951 . S
C1447 C1448 1.366 . S
C1447 C1449 1.388 . S
C1448 C1447 1.366 . S
C1448 C1452 1.385 . S
C1449 H1424 0.951 . S
C1449 C1447 1.388 . S
C1449 C1450 1.366 . S
C1450 C1449 1.366 . S
C1450 C1451 1.414 . S
C1450 C1453 1.499 . S
C1451 H1425 0.950 . S
C1451 C1450 1.414 . S
C1451 C1452 1.374 . S
C1452 H1426 0.950 . S
C1452 C1448 1.385 . S
C1452 C1451 1.374 . S
C1453 C1450 1.499 . S
C1453 C1454 1.373 . S
C1453 C1455 1.389 . S
C1454 H1427 0.950 . S
C1454 C1440 1.377 . S
C1454 C1453 1.373 . S
C1455 C1439 1.377 . S
C1455 C1453 1.389 . S
C1455 C1456 1.524 . S
C1456 C1455 1.524 . S
C1456 C1457 1.397 . S
C1456 C1461 1.363 . S
C1457 H1428 0.950 . S
C1457 C1456 1.397 . S
C1457 C1458 1.334 . S
C1458 H1429 0.950 . S
C1458 C1457 1.334 . S
C1458 C1459 1.287 . S
C1459 C1458 1.287 . S
C1459 C1460 1.524 . S
C1459 H1462 0.999 . S
C1460 H1430 0.950 . S
C1460 C1459 1.524 . S
C1460 C1461 1.415 . S
C1461 H1431 0.950 . S
C1461 C1456 1.363 . S
C1461 C1460 1.415 . S
H1462 C1459 0.999 . S
H1463 C1444 0.913 . S
C283 C82 1.608 . S
C298 C114 1.811 . S
C348 C154 1.812 . S
C333 C95 1.609 . S
C398 C194 1.811 . S
C383 C56 1.609 . S
C448 C234 1.811 . S
C433 C69 1.608 . S
C498 C123 1.816 . S
C483 C30 1.603 . S
C533 C43 1.602 . S
C548 C163 1.811 . S
C583 C4 1.603 . S
C598 C203 1.811 . S
C633 C17 1.599 1_655 S
C648 C243 1.811 . S
C698 C120 0.362 . S
C683 C74 0.398 . S
C748 C160 0.360 . S
C733 C87 0.399 . S
C798 C200 0.361 . S
C783 C100 0.396 . S
C833 C61 0.397 . S
C848 C240 0.358 . S
C883 C22 0.403 . S
C898 C111 0.361 . S
C948 C151 0.361 . S
C933 C35 0.401 . S
C998 C191 0.358 . S
C983 C48 0.400 . S
C1033 C9 0.401 . S
C1048 C231 0.358 . S
C1083 C73 1.862 . S
C1098 C115 2.051 . S
C1133 C86 1.860 . S
C1148 C155 2.050 . S
C1198 C195 2.052 . S
C1183 C99 1.862 . S
C1248 C235 2.051 . S
C1233 C60 1.861 . S
C1283 C21 1.862 . S
C1298 C106 2.051 . S
C1348 C146 2.051 . S
C1333 C34 1.863 . S
C1398 C186 2.051 . S
C1383 C47 1.861 . S
C1433 C8 1.862 . S
C1448 C226 2.052 . S
