# Generated by pormake.
# Topology pyr, (3,6)-cn, num edge types: 1
# Building blocks:
#     Node 0, Type 0, BuildingBlock: BETDIP_clean_linker_0, # of connection points: 3
#     Node 1, Type 0, BuildingBlock: BETDIP_clean_linker_0, # of connection points: 3
#     Node 2, Type 0, BuildingBlock: BETDIP_clean_linker_0, # of connection points: 3
#     Node 3, Type 0, BuildingBlock: BETDIP_clean_linker_0, # of connection points: 3
#     Node 4, Type 0, BuildingBlock: BETDIP_clean_linker_0, # of connection points: 3
#     Node 5, Type 0, BuildingBlock: BETDIP_clean_linker_0, # of connection points: 3
#     Node 6, Type 0, BuildingBlock: BETDIP_clean_linker_0, # of connection points: 3
#     Node 7, Type 0, BuildingBlock: BETDIP_clean_linker_0, # of connection points: 3
#     Node 8, Type 1, BuildingBlock: BETDEL_clean_sbu_0, # of connection points: 6
#     Node 9, Type 1, BuildingBlock: BETDEL_clean_sbu_0, # of connection points: 6
#     Node 10, Type 1, BuildingBlock: BETDEL_clean_sbu_0, # of connection points: 6
#     Node 11, Type 1, BuildingBlock: BETDEL_clean_sbu_0, # of connection points: 6
#     Edge 12, Type (0, 1), BuildingBlock: TEMPAE_clean_linker_10, # of connection points: 2
#     Edge 13, Type (0, 1), BuildingBlock: TEMPAE_clean_linker_10, # of connection points: 2
#     Edge 14, Type (0, 1), BuildingBlock: TEMPAE_clean_linker_10, # of connection points: 2
#     Edge 15, Type (0, 1), BuildingBlock: TEMPAE_clean_linker_10, # of connection points: 2
#     Edge 16, Type (0, 1), BuildingBlock: TEMPAE_clean_linker_10, # of connection points: 2
#     Edge 17, Type (0, 1), BuildingBlock: TEMPAE_clean_linker_10, # of connection points: 2
#     Edge 18, Type (0, 1), BuildingBlock: TEMPAE_clean_linker_10, # of connection points: 2
#     Edge 19, Type (0, 1), BuildingBlock: TEMPAE_clean_linker_10, # of connection points: 2
#     Edge 20, Type (0, 1), BuildingBlock: TEMPAE_clean_linker_10, # of connection points: 2
#     Edge 21, Type (0, 1), BuildingBlock: TEMPAE_clean_linker_10, # of connection points: 2
#     Edge 22, Type (0, 1), BuildingBlock: TEMPAE_clean_linker_10, # of connection points: 2
#     Edge 23, Type (0, 1), BuildingBlock: TEMPAE_clean_linker_10, # of connection points: 2
#     Edge 24, Type (0, 1), BuildingBlock: TEMPAE_clean_linker_10, # of connection points: 2
#     Edge 25, Type (0, 1), BuildingBlock: TEMPAE_clean_linker_10, # of connection points: 2
#     Edge 26, Type (0, 1), BuildingBlock: TEMPAE_clean_linker_10, # of connection points: 2
#     Edge 27, Type (0, 1), BuildingBlock: TEMPAE_clean_linker_10, # of connection points: 2
#     Edge 28, Type (0, 1), BuildingBlock: TEMPAE_clean_linker_10, # of connection points: 2
#     Edge 29, Type (0, 1), BuildingBlock: TEMPAE_clean_linker_10, # of connection points: 2
#     Edge 30, Type (0, 1), BuildingBlock: TEMPAE_clean_linker_10, # of connection points: 2
#     Edge 31, Type (0, 1), BuildingBlock: TEMPAE_clean_linker_10, # of connection points: 2
#     Edge 32, Type (0, 1), BuildingBlock: TEMPAE_clean_linker_10, # of connection points: 2
#     Edge 33, Type (0, 1), BuildingBlock: TEMPAE_clean_linker_10, # of connection points: 2
#     Edge 34, Type (0, 1), BuildingBlock: TEMPAE_clean_linker_10, # of connection points: 2
#     Edge 35, Type (0, 1), BuildingBlock: TEMPAE_clean_linker_10, # of connection points: 2
# Relax obj value: 0.065
# Max RMSD: 0.180
# Mean RMSD: 0.131
data_MOF--net-pyr--node1-BETDEL_clean_sbu_0--node2-BETDIP_clean_linker_0--edge1-TEMPAE_clean_linker_10
_symmetry_space_group_name_H-M    P1
_symmetry_Int_Tables_number       1
_symmetry_cell_setting            triclinic
loop_
_symmetry_equiv_pos_as_xyz
'x, y, z'
_cell_length_a     36.709602
_cell_length_b     37.640103
_cell_length_c     36.785356
_cell_angle_alpha  94.552191
_cell_angle_beta   85.82088
_cell_angle_gamma 101.57355
loop_
_atom_site_label
_atom_site_type_symbol
_atom_site_fract_x
_atom_site_fract_y
_atom_site_fract_z
_atom_type_partial_charge
H0 H 0.1175 0.16938 0.15595 0.0
H1 H 0.21441 0.17004 0.08285 0.0
H2 H 0.20758 0.12218 0.18575 0.0
H3 H 0.19854 0.21652 0.0609 0.0
C4 C 0.16867 0.21428 0.06548 0.0
C5 C 0.14485 0.1629 0.14985 0.0
C6 C 0.15992 0.14381 0.17432 0.0
C7 C 0.16477 0.17347 0.11728 0.0
C8 C 0.19974 0.16412 0.10888 0.0
C9 C 0.21551 0.14576 0.1335 0.0
C10 C 0.19546 0.1359 0.16626 0.0
N11 N 0.14872 0.19332 0.09367 0.0
H12 H 0.25668 0.85479 0.71712 0.0
H13 H 0.26168 0.77634 0.6261 0.0
H14 H 0.3357 0.7844 0.71343 0.0
H15 H 0.25363 0.83447 0.59874 0.0
C16 C 0.22925 0.83799 0.61622 0.0
C17 C 0.26858 0.83273 0.70364 0.0
C18 C 0.29775 0.82134 0.71912 0.0
C19 C 0.25631 0.81748 0.66958 0.0
C20 C 0.27196 0.78893 0.65185 0.0
C21 C 0.29988 0.77586 0.66816 0.0
C22 C 0.31309 0.79299 0.70133 0.0
N23 N 0.22829 0.83148 0.65385 0.0
H24 H 0.69748 0.40368 0.83693 0.0
H25 H 0.60557 0.3122 0.83461 0.0
H26 H 0.69243 0.31701 0.90784 0.0
H27 H 0.58348 0.33986 0.7938 0.0
C28 C 0.60229 0.36446 0.78596 0.0
C29 C 0.68354 0.37777 0.84685 0.0
C30 C 0.6991 0.36265 0.87438 0.0
C31 C 0.64979 0.36021 0.8322 0.0
C32 C 0.63133 0.32665 0.84553 0.0
C33 C 0.64674 0.31084 0.87279 0.0
C34 C 0.6805 0.3291 0.88692 0.0
N35 N 0.63602 0.37723 0.80403 0.0
H36 H 0.83304 0.57399 0.39153 0.0
H37 H 0.92489 0.66003 0.36456 0.0
H38 H 0.83785 0.68157 0.44246 0.0
H39 H 0.95396 0.60979 0.34601 0.0
C40 C 0.93007 0.59452 0.33203 0.0
C41 C 0.84759 0.60186 0.39617 0.0
C42 C 0.83142 0.62627 0.41973 0.0
C43 C 0.88152 0.61353 0.37675 0.0
C44 C 0.89957 0.65021 0.38077 0.0
C45 C 0.88349 0.67495 0.40401 0.0
C46 C 0.84994 0.66259 0.42398 0.0
N47 N 0.89422 0.58873 0.35021 0.0
H48 H 0.7622 0.83381 0.92537 0.0
H49 H 0.85189 0.81975 0.84766 0.0
H50 H 0.78496 0.8978 0.83129 0.0
H51 H 0.82985 0.75867 0.865 0.0
C52 C 0.82976 0.76573 0.89424 0.0
C53 C 0.77788 0.84088 0.89998 0.0
C54 C 0.76971 0.86813 0.87976 0.0
C55 C 0.80636 0.82247 0.88782 0.0
C56 C 0.82842 0.83254 0.85606 0.0
C57 C 0.82142 0.86047 0.83617 0.0
C58 C 0.79143 0.87742 0.84764 0.0
N59 N 0.81356 0.79522 0.90912 0.0
H60 H 0.74032 0.15926 0.31571 0.0
H61 H 0.75186 0.24379 0.40224 0.0
H62 H 0.68067 0.24664 0.31521 0.0
H63 H 0.81095 0.22462 0.40249 0.0
C64 C 0.80175 0.1953 0.39968 0.0
C65 C 0.73321 0.18434 0.32787 0.0
C66 C 0.70896 0.20138 0.31075 0.0
C67 C 0.74914 0.19949 0.36045 0.0
C68 C 0.74044 0.23227 0.37661 0.0
C69 C 0.71616 0.24976 0.35984 0.0
C70 C 0.70063 0.23401 0.32714 0.0
N71 N 0.77222 0.17985 0.37686 0.0
H72 H 0.3269 0.6338 0.18465 0.0
H73 H 0.41839 0.72559 0.18675 0.0
H74 H 0.33257 0.71902 0.11187 0.0
H75 H 0.43814 0.69981 0.23137 0.0
C76 C 0.42044 0.67393 0.23718 0.0
C77 C 0.34074 0.65961 0.17446 0.0
C78 C 0.32551 0.67403 0.14626 0.0
C79 C 0.37407 0.67768 0.18951 0.0
C80 C 0.39257 0.71113 0.17593 0.0
C81 C 0.37793 0.72582 0.14734 0.0
C82 C 0.34442 0.70714 0.13298 0.0
N83 N 0.38764 0.66074 0.21781 0.0
H84 H 0.12106 0.32908 0.69045 0.0
H85 H 0.21358 0.4173 0.67377 0.0
H86 H 0.20076 0.32206 0.59963 0.0
H87 H 0.20586 0.41805 0.73995 0.0
C88 C 0.17619 0.41806 0.7411 0.0
C89 C 0.14596 0.34081 0.67452 0.0
C90 C 0.15861 0.32121 0.64376 0.0
C91 C 0.16614 0.37496 0.6859 0.0
C92 C 0.19859 0.39033 0.6657 0.0
C93 C 0.211 0.37151 0.63429 0.0
C94 C 0.191 0.3369 0.62362 0.0
N95 N 0.15274 0.39367 0.71735 0.0
Dy96 Dy 0.02126 0.01659 0.47484 0.0
C97 C 0.95576 0.961 0.60899 0.0
C98 C 0.04643 0.04981 0.4122 0.0
Dy99 Dy 0.98475 0.99488 0.54774 0.0
O100 O 0.06701 0.0469 0.43861 0.0
O101 O 0.01218 0.03424 0.41981 0.0
O102 O 0.05614 0.97394 0.47408 0.0
O103 O 0.04165 0.99999 0.52418 0.0
C104 C 0.05704 0.97492 0.50936 0.0
C105 C 0.9494 0.03747 0.51384 0.0
O106 O 0.02137 0.04617 0.56718 0.0
O107 O 0.0317 0.06889 0.50983 0.0
O108 O 0.93666 0.96731 0.58279 0.0
O109 O 0.991 0.97357 0.60205 0.0
O110 O 0.95039 0.03783 0.54906 0.0
O111 O 0.96454 0.01231 0.4986 0.0
O112 O 0.98695 0.96361 0.45581 0.0
O113 O 0.97571 0.94228 0.51367 0.0
C114 C 0.03365 0.07321 0.54581 0.0
C115 C 0.97498 0.93697 0.47772 0.0
Dy116 Dy 0.52715 0.03926 0.04193 0.0
C117 C 0.42662 0.95635 0.9355 0.0
C118 C 0.56698 0.08256 0.0941 0.0
Dy119 Dy 0.47637 1.00085 0.97869 0.0
O120 O 0.5334 0.06394 0.09927 0.0
O121 O 0.5788 0.07789 0.06018 0.0
O122 O 0.52888 0.98472 0.06095 0.0
O123 O 0.48121 0.99157 0.03639 0.0
C124 C 0.49701 0.96858 0.04892 0.0
C125 C 0.51617 0.06592 0.95871 0.0
O126 O 0.43612 0.02488 0.01612 0.0
O127 O 0.47841 0.06693 0.04978 0.0
O128 O 0.428 0.99085 0.94303 0.0
O129 O 0.45229 0.9457 0.95218 0.0
O130 O 0.49396 0.04378 0.93754 0.0
O131 O 0.5158 0.05113 0.98821 0.0
O132 O 0.56892 0.02083 0.00172 0.0
O133 O 0.52791 0.97794 0.96717 0.0
C134 C 0.44427 0.05368 0.03933 0.0
C135 C 0.56189 0.99306 0.97704 0.0
Dy136 Dy 0.5263 0.48593 0.48328 0.0
C137 C 0.44917 0.58859 0.56822 0.0
C138 C 0.57428 0.44395 0.45127 0.0
Dy139 Dy 0.49354 0.54376 0.53471 0.0
O140 O 0.53876 0.43839 0.44662 0.0
O141 O 0.58369 0.47293 0.47276 0.0
O142 O 0.46906 0.45477 0.47183 0.0
O143 O 0.47828 0.48568 0.52151 0.0
C144 C 0.45365 0.46842 0.50118 0.0
C145 C 0.56619 0.55964 0.51618 0.0
O146 O 0.50578 0.50953 0.57789 0.0
O147 O 0.54145 0.4756 0.53963 0.0
O148 O 0.48504 0.5974 0.56222 0.0
O149 O 0.43767 0.55495 0.55675 0.0
O150 O 0.55207 0.57075 0.54747 0.0
O151 O 0.54085 0.54381 0.49603 0.0
O152 O 0.51498 0.52167 0.44084 0.0
O153 O 0.47611 0.5523 0.4788 0.0
C154 C 0.52864 0.486 0.57279 0.0
C155 C 0.49047 0.54362 0.44577 0.0
Dy156 Dy 0.02094 0.48071 0.01715 0.0
C157 C 0.96916 0.61362 0.01433 0.0
C158 C 0.05241 0.42127 0.01823 0.0
Dy159 Dy 0.00275 0.55515 0.00974 0.0
O160 O 0.04536 0.44207 0.04655 0.0
O161 O 0.042 0.43268 0.98902 0.0
O162 O 0.97646 0.47049 0.06212 0.0
O163 O 0.00629 0.52351 0.0556 0.0
C164 C 0.97968 0.50455 0.07322 0.0
C165 C 0.04344 0.53159 0.95326 0.0
O166 O 0.05219 0.57109 0.04369 0.0
O167 O 0.07566 0.51947 0.02546 0.0
O168 O 1.00185 0.61268 0.99869 0.0
O169 O 0.95509 0.58274 0.02798 0.0
O170 O 0.04528 0.56586 0.96263 0.0
O171 O 0.01749 0.51273 0.97158 0.0
O172 O 0.96828 0.46152 0.98826 0.0
O173 O 0.95001 0.51744 0.99232 0.0
C174 C 0.07996 0.55312 0.04073 0.0
C175 C 0.94346 0.48182 0.98385 0.0
C176 C 0.12312 0.15585 0.23235 0.0
C177 C 0.1387 0.1315 0.20821 0.0
C178 C 0.10555 0.14482 0.26592 0.0
C179 C 0.10334 0.10859 0.27511 0.0
C180 C 0.11788 0.08364 0.25017 0.0
C181 C 0.13551 0.09546 0.21705 0.0
C182 C 0.09054 0.17217 0.29202 0.0
C183 C 0.11571 0.04468 0.25885 0.0
C184 C 0.09765 0.08413 0.37339 0.0
C185 C 0.06017 0.06731 0.37819 0.0
C186 C 0.11172 0.09913 0.34037 0.0
C187 C 0.08769 0.09696 0.31153 0.0
C188 C 0.04949 0.08104 0.31671 0.0
C189 C 0.03612 0.06643 0.35013 0.0
C190 C 0.15258 0.11615 0.33592 0.0
C191 C 0.02311 0.07819 0.28651 0.0
H192 H 0.12581 0.18378 0.22552 0.0
H193 H 0.14718 0.07656 0.19809 0.0
H194 H 0.06109 0.1614 0.30074 0.0
H195 H 0.10661 0.17712 0.31695 0.0
H196 H 0.09223 0.19853 0.27975 0.0
H197 H 0.12657 0.02829 0.23563 0.0
H198 H 0.13208 0.0439 0.28287 0.0
H199 H 0.08644 0.03173 0.26606 0.0
H200 H 0.11616 0.08504 0.39525 0.0
H201 H 0.00704 0.05358 0.35399 0.0
H202 H 0.15609 0.14375 0.32593 0.0
H203 H 0.16666 0.09963 0.31521 0.0
H204 H 0.16678 0.11823 0.36188 0.0
H205 H 0.02509 0.10509 0.27538 0.0
H206 H 0.99372 0.06786 0.29594 0.0
H207 H 0.031 0.05951 0.26377 0.0
C208 C 0.29164 0.84246 0.78527 0.0
C209 C 0.31386 0.84008 0.7529 0.0
C210 C 0.30732 0.85927 0.81758 0.0
C211 C 0.34587 0.87474 0.8171 0.0
C212 C 0.36825 0.87263 0.78426 0.0
C213 C 0.35202 0.85501 0.75268 0.0
C214 C 0.28275 0.8604 0.85221 0.0
C215 C 0.40926 0.88948 0.78231 0.0
C216 C 0.38324 0.95156 0.88576 0.0
C217 C 0.40269 0.93429 0.90811 0.0
C218 C 0.36364 0.93223 0.85674 0.0
C219 C 0.36284 0.89452 0.85034 0.0
C220 C 0.38089 0.87655 0.874 0.0
C221 C 0.40099 0.89677 0.90245 0.0
C222 C 0.34538 0.95258 0.83183 0.0
C223 C 0.38001 0.83623 0.86851 0.0
H224 H 0.26217 0.8306 0.7854 0.0
H225 H 0.36909 0.85331 0.72751 0.0
H226 H 0.29424 0.84808 0.87415 0.0
H227 H 0.28221 0.88901 0.86175 0.0
H228 H 0.25371 0.84576 0.84839 0.0
H229 H 0.42267 0.88555 0.75462 0.0
H230 H 0.41315 0.91907 0.78993 0.0
H231 H 0.42387 0.87745 0.80211 0.0
H232 H 0.38455 0.98061 0.89003 0.0
H233 H 0.41588 0.88336 0.91983 0.0
H234 H 0.31575 0.9394 0.82924 0.0
H235 H 0.35938 0.95181 0.80408 0.0
H236 H 0.34676 0.98145 0.84176 0.0
H237 H 0.351 0.8212 0.86557 0.0
H238 H 0.39178 0.82572 0.89151 0.0
H239 H 0.39634 0.83039 0.84293 0.0
C240 C 0.55909 0.36974 0.73803 0.0
C241 C 0.59191 0.38409 0.7558 0.0
C242 C 0.54852 0.38705 0.70906 0.0
C243 C 0.57125 0.4197 0.69746 0.0
C244 C 0.60429 0.43456 0.71556 0.0
C245 C 0.61425 0.41658 0.74444 0.0
C246 C 0.51319 0.3701 0.69057 0.0
C247 C 0.6293 0.4693 0.70418 0.0
C248 C 0.56307 0.44395 0.59993 0.0
C249 C 0.53982 0.46965 0.60498 0.0
C250 C 0.5737 0.42785 0.6297 0.0
C251 C 0.56097 0.43759 0.66568 0.0
C252 C 0.53777 0.46371 0.67108 0.0
C253 C 0.52746 0.47937 0.64075 0.0
C254 C 0.59835 0.40009 0.62254 0.0
C255 C 0.52361 0.47495 0.70893 0.0
H256 H 0.5417 0.34467 0.74668 0.0
H257 H 0.63963 0.42797 0.758 0.0
H258 H 0.49429 0.3898 0.69174 0.0
H259 H 0.51984 0.36309 0.66129 0.0
H260 H 0.49817 0.34508 0.7033 0.0
H261 H 0.65339 0.47793 0.72163 0.0
H262 H 0.63999 0.46563 0.67542 0.0
H263 H 0.61325 0.49145 0.70556 0.0
H264 H 0.57294 0.43613 0.57256 0.0
H265 H 0.5096 0.49919 0.64514 0.0
H266 H 0.58371 0.37366 0.6326 0.0
H267 H 0.62403 0.40881 0.63768 0.0
H268 H 0.60643 0.39591 0.59305 0.0
H269 H 0.50639 0.45102 0.7218 0.0
H270 H 0.50659 0.49623 0.7087 0.0
H271 H 0.54737 0.48545 0.72635 0.0
C272 C 0.97016 0.57642 0.27925 0.0
C273 C 0.93479 0.57999 0.29397 0.0
C274 C 0.97528 0.56329 0.24286 0.0
C275 C 0.94435 0.55453 0.22064 0.0
C276 C 0.90861 0.55849 0.23535 0.0
C277 C 0.90417 0.57084 0.27203 0.0
C278 C 0.0137 0.55877 0.2282 0.0
C279 C 0.87521 0.55027 0.2122 0.0
C280 C 0.9689 0.5541 0.11887 0.0
C281 C 0.9658 0.51688 0.10954 0.0
C282 C 0.96044 0.56671 0.15474 0.0
C283 C 0.94956 0.54143 0.18191 0.0
C284 C 0.94526 0.50371 0.17233 0.0
C285 C 0.95301 0.49183 0.13604 0.0
C286 C 0.96435 0.60709 0.16376 0.0
C287 C 0.93423 0.47602 0.2007 0.0
H288 H 0.99376 0.58361 0.29632 0.0
H289 H 0.87682 0.5741 0.28324 0.0
H290 H 0.01294 0.53034 0.21717 0.0
H291 H 0.02321 0.57658 0.20535 0.0
H292 H 0.03448 0.56552 0.24944 0.0
H293 H 0.84937 0.55507 0.22779 0.0
H294 H 0.88037 0.56751 0.18853 0.0
H295 H 0.87062 0.52155 0.20111 0.0
H296 H 0.97875 0.57342 0.09828 0.0
H297 H 0.95082 0.46302 0.12883 0.0
H298 H 0.98789 0.61682 0.18162 0.0
H299 H 0.93881 0.61304 0.17901 0.0
H300 H 0.96949 0.62273 0.1389 0.0
H301 H 0.95597 0.48005 0.22089 0.0
H302 H 0.93058 0.44767 0.18848 0.0
H303 H 0.90786 0.47971 0.21585 0.0
C304 C 0.28104 0.15996 0.10661 0.0
C305 C 0.25233 0.13582 0.1243 0.0
C306 C 0.31476 0.1496 0.09479 0.0
C307 C 0.31999 0.11451 0.10135 0.0
C308 C 0.29195 0.09074 0.12088 0.0
C309 C 0.25829 0.10157 0.13184 0.0
C310 C 0.34404 0.17554 0.07382 0.0
C311 C 0.29678 0.05322 0.12871 0.0
C312 C 0.38129 0.06721 0.03538 0.0
C313 C 0.41361 0.07122 0.05454 0.0
C314 C 0.35107 0.08224 0.04992 0.0
C315 C 0.35308 0.10118 0.08474 0.0
C316 C 0.38587 0.10587 0.104 0.0
C317 C 0.41601 0.09105 0.08846 0.0
C318 C 0.31674 0.07726 0.0283 0.0
C319 C 0.38866 0.1255 0.14142 0.0
H320 H 0.27689 0.18677 0.1014 0.0
H321 H 0.23614 0.08261 0.14515 0.0
H322 H 0.37152 0.17847 0.08563 0.0
H323 H 0.34695 0.16447 0.04512 0.0
H324 H 0.33697 0.20289 0.07374 0.0
H325 H 0.27414 0.03972 0.1476 0.0
H326 H 0.29692 0.036 0.10279 0.0
H327 H 0.32388 0.05465 0.14084 0.0
H328 H 0.37957 0.05227 0.00892 0.0
H329 H 0.44098 0.09403 0.10337 0.0
H330 H 0.30946 0.104 0.02502 0.0
H331 H 0.29275 0.06069 0.04325 0.0
H332 H 0.32055 0.06363 1.00077 0.0
H333 H 0.38195 0.15288 0.14075 0.0
H334 H 0.41682 0.1285 0.15189 0.0
H335 H 0.36798 0.11028 0.16094 0.0
C336 C 0.16561 0.85361 0.61825 0.0
C337 C 0.20198 0.85715 0.60244 0.0
C338 C 0.13979 0.87165 0.60479 0.0
C339 C 0.15103 0.89468 0.57563 0.0
C340 C 0.18798 0.89872 0.56007 0.0
C341 C 0.21276 0.87941 0.57323 0.0
C342 C 0.10036 0.86559 0.62131 0.0
C343 C 0.20149 0.92367 0.52963 0.0
C344 C 0.08238 0.91891 0.51355 0.0
C345 C 0.07844 0.95347 0.52838 0.0
C346 C 0.10443 0.89874 0.52975 0.0
C347 C 0.12416 0.91409 0.56077 0.0
C348 C 0.11977 0.94886 0.57617 0.0
C349 C 0.09639 0.96787 0.56015 0.0
C350 C 0.10716 0.8613 0.51318 0.0
C351 C 0.14102 0.96666 0.60858 0.0
H352 H 0.15712 0.83614 0.64065 0.0
H353 H 0.24094 0.88229 0.56112 0.0
H354 H 0.09345 0.89177 0.63267 0.0
H355 H 0.08062 0.85462 0.59982 0.0
H356 H 0.09587 0.84642 0.64339 0.0
H357 H 0.23159 0.92539 0.52194 0.0
H358 H 0.18553 0.9139 0.50511 0.0
H359 H 0.19665 0.95141 0.53801 0.0
H360 H 0.06814 0.90762 0.48918 0.0
H361 H 0.09343 0.99468 0.57153 0.0
H362 H 0.10202 0.84146 0.53464 0.0
H363 H 0.13567 0.86153 0.50081 0.0
H364 H 0.087 0.85174 0.49171 0.0
H365 H 0.13551 0.94867 0.63162 0.0
H366 H 0.13363 0.99323 0.61803 0.0
H367 H 0.17137 0.97109 0.60117 0.0
C368 C 0.76521 0.39738 0.86755 0.0
C369 C 0.73477 0.3816 0.89017 0.0
C370 C 0.79935 0.41409 0.88213 0.0
C371 C 0.8032 0.41518 0.92029 0.0
C372 C 0.77243 0.39971 0.94329 0.0
C373 C 0.73869 0.38315 0.92799 0.0
C374 C 0.83147 0.43019 0.85665 0.0
C375 C 0.77519 0.40049 0.98411 0.0
C376 C 0.90017 0.42754 0.95616 0.0
C377 C 0.90755 0.46462 0.96769 0.0
C378 C 0.86651 0.4112 0.94048 0.0
C379 C 0.8394 0.43234 0.93623 0.0
C380 C 0.84665 0.46975 0.94778 0.0
C381 C 0.88054 0.48541 0.96331 0.0
C382 C 0.85991 0.37123 0.92852 0.0
C383 C 0.81852 0.49328 0.94384 0.0
H384 H 0.7626 0.39599 0.83829 0.0
H385 H 0.71518 0.37154 0.94576 0.0
H386 H 0.84122 0.45939 0.86478 0.0
H387 H 0.85522 0.41641 0.85859 0.0
H388 H 0.82385 0.42763 0.82774 0.0
H389 H 0.74864 0.38752 0.99826 0.0
H390 H 0.79742 0.38619 0.99031 0.0
H391 H 0.78298 0.42899 0.9955 0.0
H392 H 0.92076 0.41118 0.95928 0.0
H393 H 0.8858 0.51406 0.97206 0.0
H394 H 0.85456 0.36731 0.89903 0.0
H395 H 0.83481 0.3566 0.94361 0.0
H396 H 0.88393 0.35866 0.93322 0.0
H397 H 0.81213 0.49268 0.91476 0.0
H398 H 0.8285 0.52198 0.95384 0.0
H399 H 0.79208 0.48246 0.95935 0.0
C400 C 0.78331 0.58116 0.45289 0.0
C401 C 0.79372 0.61481 0.43732 0.0
C402 C 0.74704 0.56971 0.46807 0.0
C403 C 0.72083 0.59257 0.46765 0.0
C404 C 0.73134 0.62673 0.45241 0.0
C405 C 0.76759 0.63734 0.4373 0.0
C406 C 0.73657 0.53302 0.48399 0.0
C407 C 0.70403 0.65173 0.45122 0.0
C408 C 0.61731 0.55559 0.46904 0.0
C409 C 0.60602 0.56583 0.50486 0.0
C410 C 0.65495 0.56243 0.45712 0.0
C411 C 0.68179 0.58044 0.48153 0.0
C412 C 0.67065 0.58993 0.51808 0.0
C413 C 0.63273 0.58244 0.52937 0.0
C414 C 0.66579 0.55167 0.41799 0.0
C415 C 0.69861 0.60917 0.54479 0.0
H416 H 0.80353 0.56379 0.45315 0.0
H417 H 0.7752 0.66302 0.42459 0.0
H418 H 0.72559 0.53612 0.51273 0.0
H419 H 0.71406 0.51544 0.4686 0.0
H420 H 0.76055 0.51901 0.48322 0.0
H421 H 0.71715 0.67802 0.43976 0.0
H422 H 0.68071 0.63839 0.43423 0.0
H423 H 0.69192 0.65736 0.47909 0.0
H424 H 0.5966 0.54279 0.45004 0.0
H425 H 0.62394 0.59019 0.55714 0.0
H426 H 0.68852 0.53608 0.41692 0.0
H427 H 0.67641 0.57644 0.40297 0.0
H428 H 0.64197 0.53493 0.40361 0.0
H429 H 0.72184 0.59439 0.54517 0.0
H430 H 0.68587 0.61173 0.57298 0.0
H431 H 0.71075 0.63681 0.53603 0.0
C432 C 0.17365 0.27059 0.03314 0.0
C433 C 0.15116 0.24045 0.0488 0.0
C434 C 0.15801 0.29887 0.02239 0.0
C435 C 0.119 0.29644 0.02702 0.0
C436 C 0.09596 0.26464 0.04005 0.0
C437 C 0.11239 0.23704 0.05106 0.0
C438 C 0.18348 0.33247 0.00883 0.0
C439 C 0.05418 0.26086 0.04481 0.0
C440 C 0.08319 0.38289 0.05254 0.0
C441 C 0.07004 0.38973 0.01955 0.0
C442 C 0.09975 0.3529 0.055 0.0
C443 C 0.10289 0.32901 0.02373 0.0
C444 C 0.08993 0.33594 0.99017 0.0
C445 C 0.07371 0.36648 0.98843 0.0
C446 C 0.11359 0.34664 0.09122 0.0
C447 C 0.09269 0.31085 0.95641 0.0
H448 H 0.20366 0.27302 0.03124 0.0
H449 H 0.09491 0.21339 0.06259 0.0
H450 H 0.17268 0.34129 0.98436 0.0
H451 H 0.18461 0.35501 0.03034 0.0
H452 H 0.21227 0.32803 0.00195 0.0
H453 H 0.04002 0.23261 0.05007 0.0
H454 H 0.04709 0.27918 0.06824 0.0
H455 H 0.04304 0.26902 0.02019 0.0
H456 H 0.08052 0.40105 0.07656 0.0
H457 H 0.06355 0.37192 0.96289 0.0
H458 H 0.14351 0.34502 0.08793 0.0
H459 H 0.09816 0.32037 0.10103 0.0
H460 H 0.11014 0.36854 0.11253 0.0
H461 H 0.12197 0.30779 0.95026 0.0
H462 H 0.08256 0.32084 0.93214 0.0
H463 H 0.07603 0.28343 0.96127 0.0
C464 C 0.59013 0.26824 0.89762 0.0
C465 C 0.62812 0.27504 0.88658 0.0
C466 C 0.57273 0.23495 0.9118 0.0
C467 C 0.59365 0.20751 0.9145 0.0
C468 C 0.63203 0.21428 0.90335 0.0
C469 C 0.6488 0.24795 0.88975 0.0
C470 C 0.53184 0.22902 0.92366 0.0
C471 C 0.65526 0.18563 0.90502 0.0
C472 C 0.55475 0.12797 0.9741 0.0
C473 C 0.53784 0.10163 0.94823 0.0
C474 C 0.57305 0.16266 0.96365 0.0
C475 C 0.57486 0.17086 0.92645 0.0
C476 C 0.55848 0.1439 0.90027 0.0
C477 C 0.54 0.10985 0.91152 0.0
C478 C 0.58985 0.19073 0.99245 0.0
C479 C 0.56022 0.15106 0.86028 0.0
H480 H 0.57412 0.28921 0.89566 0.0
H481 H 0.67811 0.25291 0.88099 0.0
H482 H 0.51608 0.20661 0.90621 0.0
H483 H 0.52753 0.22078 0.9522 0.0
H484 H 0.52003 0.25375 0.92192 0.0
H485 H 0.68502 0.19561 0.89665 0.0
H486 H 0.65347 0.17649 0.93314 0.0
H487 H 0.64426 0.16152 0.88681 0.0
H488 H 0.55294 0.12176 0.00253 0.0
H489 H 0.52706 0.08953 0.89137 0.0
H490 H 0.57639 0.21471 0.99341 0.0
H491 H 0.61994 0.20031 0.98542 0.0
H492 H 0.58658 0.18001 0.02003 0.0
H493 H 0.54584 0.17368 0.8566 0.0
H494 H 0.54713 0.12682 0.84323 0.0
H495 H 0.58964 0.15953 0.85004 0.0
C496 C 0.87748 0.73963 0.40386 0.0
C497 C 0.90016 0.71417 0.40633 0.0
C498 C 0.89127 0.77684 0.41046 0.0
C499 C 0.92866 0.78882 0.41976 0.0
C500 C 0.95239 0.76344 0.41996 0.0
C501 C 0.93782 0.72625 0.41315 0.0
C502 C 0.86512 0.80304 0.40979 0.0
C503 C 0.99246 0.77529 0.42966 0.0
C504 C 0.96774 0.89044 0.42462 0.0
C505 C 0.96243 0.89946 0.46212 0.0
C506 C 0.95735 0.85437 0.41029 0.0
C507 C 0.94118 0.82695 0.43405 0.0
C508 C 0.93563 0.83597 0.47184 0.0
C509 C 0.94633 0.87206 0.48538 0.0
C510 C 0.96369 0.84557 0.36986 0.0
C511 C 0.9182 0.80751 0.49805 0.0
H512 H 0.84851 0.73028 0.3978 0.0
H513 H 0.95536 0.70654 0.41493 0.0
H514 H 0.859 0.81378 0.43807 0.0
H515 H 0.87823 0.82656 0.39384 0.0
H516 H 0.83835 0.78995 0.39789 0.0
H517 H 0.00842 0.75313 0.4238 0.0
H518 H 0.0064 0.79903 0.41437 0.0
H519 H 0.99346 0.78385 0.4592 0.0
H520 H 0.9804 0.91143 0.40653 0.0
H521 H 0.94203 0.87872 0.51438 0.0
H522 H 0.93677 0.83362 0.35777 0.0
H523 H 0.98161 0.82496 0.36528 0.0
H524 H 0.97705 0.86994 0.35516 0.0
H525 H 0.88972 0.79466 0.4901 0.0
H526 H 0.91633 0.81901 0.52673 0.0
H527 H 0.93472 0.78575 0.49681 0.0
C528 C 0.32627 0.74216 0.61372 0.0
C529 C 0.31601 0.7447 0.65119 0.0
C530 C 0.34541 0.71504 0.59867 0.0
C531 C 0.35464 0.69003 0.62165 0.0
C532 C 0.34288 0.69153 0.65913 0.0
C533 C 0.32354 0.7186 0.67333 0.0
C534 C 0.35706 0.71404 0.55846 0.0
C535 C 0.3521 0.66548 0.68465 0.0
C536 C 0.38604 0.60361 0.5821 0.0
C537 C 0.42487 0.61402 0.58266 0.0
C538 C 0.36276 0.6282 0.59407 0.0
C539 C 0.37875 0.66391 0.60728 0.0
C540 C 0.418 0.67439 0.6081 0.0
C541 C 0.44057 0.64938 0.5956 0.0
C542 C 0.32112 0.61603 0.59248 0.0
C543 C 0.43618 0.712 0.62242 0.0
H544 H 0.32068 0.76223 0.59644 0.0
H545 H 0.31497 0.71984 0.70216 0.0
H546 H 0.38784 0.72165 0.55483 0.0
H547 H 0.34867 0.68612 0.54574 0.0
H548 H 0.34471 0.73295 0.54368 0.0
H549 H 0.33916 0.66896 0.71263 0.0
H550 H 0.34255 0.637 0.67393 0.0
H551 H 0.38274 0.66985 0.68643 0.0
H552 H 0.37384 0.57634 0.57187 0.0
H553 H 0.4706 0.65753 0.59599 0.0
H554 H 0.30999 0.63424 0.57575 0.0
H555 H 0.30754 0.61792 0.62031 0.0
H556 H 0.31314 0.58765 0.58069 0.0
H557 H 0.42814 0.73275 0.60649 0.0
H558 H 0.46706 0.71596 0.62099 0.0
H559 H 0.42632 0.71694 0.65126 0.0
C560 C 0.85681 0.84793 0.77724 0.0
C561 C 0.84589 0.87295 0.80402 0.0
C562 C 0.87805 0.85984 0.74565 0.0
C563 C 0.88842 0.89757 0.74093 0.0
C564 C 0.87871 0.9229 0.76859 0.0
C565 C 0.85763 0.91027 0.79983 0.0
C566 C 0.88806 0.8321 0.71672 0.0
C567 C 0.8893 0.96337 0.76455 0.0
C568 C 0.96168 0.93663 0.66899 0.0
C569 C 0.93925 0.94275 0.64185 0.0
C570 C 0.94561 0.92057 0.70103 0.0
C571 C 0.90634 0.91076 0.70582 0.0
C572 C 0.88373 0.91602 0.67794 0.0
C573 C 0.90051 0.93191 0.64624 0.0
C574 C 0.9705 0.91506 0.73014 0.0
C575 C 0.84173 0.906 0.6821 0.0
H576 H 0.84771 0.81906 0.78041 0.0
H577 H 0.8499 0.92966 0.82091 0.0
H578 H 0.87245 0.83256 0.6921 0.0
H579 H 0.91817 0.83884 0.70834 0.0
H580 H 0.88144 0.80412 0.72624 0.0
H581 H 0.88172 0.97942 0.78962 0.0
H582 H 0.91969 0.97146 0.75813 0.0
H583 H 0.87496 0.9706 0.74147 0.0
H584 H 0.99169 0.94483 0.66542 0.0
H585 H 0.88317 0.93648 0.62512 0.0
H586 H 0.96326 0.88663 0.73829 0.0
H587 H 0.96615 0.93298 0.75484 0.0
H588 H 1.00045 0.9212 0.72088 0.0
H589 H 0.83282 0.87716 0.68862 0.0
H590 H 0.82833 0.91008 0.65704 0.0
H591 H 0.83133 0.92283 0.70515 0.0
C592 C 0.68454 0.20682 0.24963 0.0
C593 C 0.69128 0.18476 0.2765 0.0
C594 C 0.66552 0.19179 0.21854 0.0
C595 C 0.65372 0.15366 0.2136 0.0
C596 C 0.66162 0.13109 0.23981 0.0
C597 C 0.67988 0.1469 0.2711 0.0
C598 C 0.65716 0.2168 0.19147 0.0
C599 C 0.65003 0.09024 0.23523 0.0
C600 C 0.57148 0.11319 0.15651 0.0
C601 C 0.58923 0.10318 0.1234 0.0
C602 C 0.59218 0.13065 0.1857 0.0
C603 C 0.6316 0.13739 0.18193 0.0
C604 C 0.64966 0.12765 0.14833 0.0
C605 C 0.62819 0.11103 0.11925 0.0
C606 C 0.57185 0.14138 0.22075 0.0
C607 C 0.69159 0.1337 0.14351 0.0
H608 H 0.6939 0.23601 0.25298 0.0
H609 H 0.68435 0.12952 0.29178 0.0
H610 H 0.66867 0.20956 0.16378 0.0
H611 H 0.62657 0.21349 0.18995 0.0
H612 H 0.66884 0.24582 0.19893 0.0
H613 H 0.66089 0.07642 0.25649 0.0
H614 H 0.6192 0.08241 0.23676 0.0
H615 H 0.66015 0.08012 0.20796 0.0
H616 H 0.54132 0.10723 0.15965 0.0
H617 H 0.64191 0.10302 0.09369 0.0
H618 H 0.58171 0.17065 0.22853 0.0
H619 H 0.5779 0.12585 0.24323 0.0
H620 H 0.5412 0.13627 0.21846 0.0
H621 H 0.70395 0.16275 0.1497 0.0
H622 H 0.70134 0.12548 0.11538 0.0
H623 H 0.7023 0.11784 0.16306 0.0
C624 C 0.40952 0.619 0.27484 0.0
C625 C 0.4308 0.653 0.26632 0.0
C626 C 0.41919 0.59969 0.3028 0.0
C627 C 0.45085 0.61468 0.32291 0.0
C628 C 0.4726 0.64883 0.31411 0.0
C629 C 0.46235 0.66747 0.28597 0.0
C630 C 0.39524 0.5634 0.31115 0.0
C631 C 0.50645 0.66596 0.33483 0.0
C632 C 0.45499 0.58503 0.41913 0.0
C633 C 0.47976 0.56076 0.41386 0.0
C634 C 0.44523 0.60241 0.38984 0.0
C635 C 0.46039 0.59545 0.35408 0.0
C636 C 0.48506 0.57069 0.3484 0.0
C637 C 0.49447 0.55371 0.37829 0.0
C638 C 0.41891 0.6286 0.3973 0.0
C639 C 0.50177 0.56236 0.31075 0.0
H640 H 0.38514 0.60746 0.25979 0.0
H641 H 0.47893 0.69368 0.2795 0.0
H642 H 0.41254 0.54224 0.30938 0.0
H643 H 0.38279 0.56485 0.3395 0.0
H644 H 0.37241 0.55479 0.29219 0.0
H645 H 0.52105 0.69211 0.324 0.0
H646 H 0.49807 0.67101 0.36408 0.0
H647 H 0.52631 0.64717 0.33345 0.0
H648 H 0.44331 0.59081 0.44635 0.0
H649 H 0.51357 0.53506 0.37375 0.0
H650 H 0.39431 0.61983 0.38061 0.0
H651 H 0.43295 0.65603 0.3893 0.0
H652 H 0.40908 0.6307 0.42654 0.0
H653 H 0.47933 0.5521 0.29173 0.0
H654 H 0.51973 0.54186 0.31065 0.0
H655 H 0.5187 0.58759 0.30001 0.0
C656 C 0.12498 0.44791 0.76824 0.0
C657 C 0.15952 0.43844 0.77145 0.0
C658 C 0.10795 0.46575 0.79756 0.0
C659 C 0.12554 0.47336 0.83106 0.0
C660 C 0.1608 0.46442 0.83419 0.0
C661 C 0.17768 0.44747 0.80402 0.0
C662 C 0.07075 0.47569 0.79294 0.0
C663 C 0.17992 0.47136 0.86977 0.0
C664 C 0.0911 0.54042 0.90121 0.0
C665 C 0.06513 0.51702 0.92247 0.0
C666 C 0.11126 0.52662 0.87134 0.0
C667 C 0.10582 0.48857 0.86335 0.0
C668 C 0.08015 0.46486 0.8853 0.0
C669 C 0.05956 0.47948 0.91414 0.0
C670 C 0.13772 0.5527 0.84791 0.0
C671 C 0.07409 0.42408 0.87812 0.0
H672 H 0.11122 0.44135 0.74278 0.0
H673 H 0.20443 0.44004 0.80631 0.0
H674 H 0.0489 0.45942 0.8106 0.0
H675 H 0.07167 0.50476 0.80163 0.0
H676 H 0.06246 0.47078 0.76425 0.0
H677 H 0.208 0.46429 0.86718 0.0
H678 H 0.18275 0.50034 0.87964 0.0
H679 H 0.16271 0.455 0.89092 0.0
H680 H 0.09524 0.56952 0.90754 0.0
H681 H 0.03884 0.46146 0.93 0.0
H682 H 0.12867 0.54937 0.8195 0.0
H683 H 0.1661 0.54656 0.84686 0.0
H684 H 0.13917 0.58149 0.85817 0.0
H685 H 0.06163 0.41609 0.85139 0.0
H686 H 0.05542 0.40948 0.8996 0.0
H687 H 0.10113 0.41497 0.87668 0.0
C688 C 0.70586 0.86817 0.90889 0.0
C689 C 0.73894 0.88719 0.8924 0.0
C690 C 0.67709 0.88606 0.92195 0.0
C691 C 0.68112 0.92365 0.9175 0.0
C692 C 0.71395 0.94288 0.90009 0.0
C693 C 0.74271 0.92454 0.88822 0.0
C694 C 0.6426 0.86484 0.94095 0.0
C695 C 0.71883 0.98289 0.89432 0.0
C696 C 0.59211 0.96066 0.92547 0.0
C697 C 0.59322 0.97712 0.96097 0.0
C698 C 0.62117 0.94402 0.91048 0.0
C699 C 0.65132 0.94303 0.93202 0.0
C700 C 0.65258 0.95975 0.96786 0.0
C701 C 0.62366 0.97707 0.98176 0.0
C702 C 0.6195 0.92727 0.8718 0.0
C703 C 0.6839 0.95845 0.99188 0.0
H704 H 0.70236 0.83921 0.91159 0.0
H705 H 0.76838 0.93965 0.87611 0.0
H706 H 0.63863 0.8771 0.96905 0.0
H707 H 0.61764 0.86612 0.92623 0.0
H708 H 0.64411 0.83584 0.94266 0.0
H709 H 0.74503 0.99326 0.87815 0.0
H710 H 0.69501 0.98801 0.87998 0.0
H711 H 0.71917 0.9987 0.9211 0.0
H712 H 0.56861 0.96098 0.90936 0.0
H713 H 0.62426 0.9895 0.00938 0.0
H714 H 0.61769 0.8975 0.87178 0.0
H715 H 0.64534 0.93844 0.85555 0.0
H716 H 0.59521 0.93227 0.85805 0.0
H717 H 0.68484 0.92975 0.99596 0.0
H718 H 0.68075 0.97298 0.01906 0.0
H719 H 0.71103 0.97075 0.97846 0.0
C720 C 0.8092 0.13459 0.41863 0.0
C721 C 0.82388 0.1716 0.41494 0.0
C722 C 0.82988 0.11215 0.43348 0.0
C723 C 0.86644 0.12688 0.44422 0.0
C724 C 0.88162 0.16412 0.43988 0.0
C725 C 0.85996 0.18612 0.42573 0.0
C726 C 0.81228 0.07287 0.43843 0.0
C727 C 0.92069 0.18077 0.45033 0.0
C728 C 0.90635 0.08125 0.51658 0.0
C729 C 0.92827 0.05989 0.49545 0.0
C730 C 0.88588 0.10279 0.50022 0.0
C731 C 0.88803 0.10381 0.46172 0.0
C732 C 0.9105 0.0826 0.4402 0.0
C733 C 0.92988 0.06043 0.45732 0.0
C734 C 0.86169 0.12427 0.52422 0.0
C735 C 0.91425 0.08347 0.39913 0.0
H736 H 0.7812 0.12324 0.41058 0.0
H737 H 0.87143 0.21468 0.42273 0.0
H738 H 0.82971 0.0548 0.42374 0.0
H739 H 0.81069 0.06754 0.46781 0.0
H740 H 0.78378 0.06546 0.42831 0.0
H741 H 0.92922 0.20949 0.44315 0.0
H742 H 0.92269 0.17978 0.48016 0.0
H743 H 0.94072 0.16492 0.43641 0.0
H744 H 0.90483 0.08086 0.54609 0.0
H745 H 0.94644 0.04375 0.44088 0.0
H746 H 0.83245 0.11662 0.51618 0.0
H747 H 0.87112 0.15372 0.52052 0.0
H748 H 0.86227 0.11975 0.55363 0.0
H749 H 0.88678 0.07295 0.38758 0.0
H750 H 0.9344 0.06701 0.38651 0.0
H751 H 0.92355 0.1119 0.39133 0.0
C752 C 0.28523 0.65376 0.093 0.0
C753 C 0.28978 0.65482 0.13069 0.0
C754 C 0.25137 0.63701 0.07806 0.0
C755 C 0.22127 0.62051 0.10123 0.0
C756 C 0.22579 0.62094 0.13919 0.0
C757 C 0.25989 0.63817 0.15347 0.0
C758 C 0.24773 0.63722 0.03745 0.0
C759 C 0.19444 0.60353 0.16482 0.0
C760 C 0.12295 0.60717 0.06873 0.0
C761 C 0.11623 0.57045 0.05589 0.0
C762 C 0.15697 0.62378 0.08348 0.0
C763 C 0.18495 0.60316 0.08575 0.0
C764 C 0.17832 0.56607 0.07296 0.0
C765 C 0.14415 0.55022 0.05807 0.0
C766 C 0.16302 0.66346 0.09654 0.0
C767 C 0.20729 0.54306 0.07514 0.0
H768 H 0.30829 0.66595 0.07503 0.0
H769 H 0.26286 0.6392 0.18264 0.0
H770 H 0.24053 0.60894 0.02532 0.0
H771 H 0.22476 0.65102 0.03232 0.0
H772 H 0.27373 0.65122 0.02316 0.0
H773 H 0.20275 0.60522 0.19344 0.0
H774 H 0.17028 0.61702 0.16418 0.0
H775 H 0.18499 0.5745 0.1558 0.0
H776 H 0.10165 0.62309 0.06713 0.0
H777 H 0.13925 0.5218 0.04841 0.0
H778 H 0.18768 0.67887 0.08144 0.0
H779 H 0.16884 0.66671 0.12591 0.0
H780 H 0.13856 0.67574 0.09278 0.0
H781 H 0.23323 0.55484 0.05937 0.0
H782 H 0.19769 0.51454 0.06437 0.0
H783 H 0.21441 0.54291 0.10392 0.0
C784 C 0.24544 0.3862 0.57451 0.0
C785 C 0.24507 0.38767 0.61274 0.0
C786 C 0.27794 0.40008 0.55369 0.0
C787 C 0.31076 0.41562 0.57161 0.0
C788 C 0.31038 0.41778 0.61022 0.0
C789 C 0.27746 0.4038 0.63036 0.0
C790 C 0.2773 0.39775 0.51256 0.0
C791 C 0.34495 0.43415 0.63022 0.0
C792 C 0.40521 0.41752 0.52227 0.0
C793 C 0.41569 0.45417 0.51511 0.0
C794 C 0.37052 0.40432 0.53982 0.0
C795 C 0.34597 0.42849 0.55005 0.0
C796 C 0.35595 0.46526 0.54124 0.0
C797 C 0.39091 0.47769 0.52383 0.0
C798 C 0.36078 0.36493 0.54871 0.0
C799 C 0.33042 0.49179 0.5514 0.0
H800 H 0.22023 0.37421 0.56089 0.0
H801 H 0.27729 0.40465 0.6599 0.0
H802 H 0.28663 0.4252 0.5022 0.0
H803 H 0.29701 0.38068 0.50038 0.0
H804 H 0.24914 0.38601 0.50295 0.0
H805 H 0.3397 0.43459 0.66037 0.0
H806 H 0.36709 0.41834 0.6223 0.0
H807 H 0.35576 0.46237 0.62243 0.0
H808 H 0.42473 0.39954 0.51539 0.0
H809 H 0.399 0.5058 0.5172 0.0
H810 H 0.33348 0.35184 0.53803 0.0
H811 H 0.3582 0.36315 0.57879 0.0
H812 H 0.3821 0.34935 0.53712 0.0
H813 H 0.30151 0.47976 0.5442 0.0
H814 H 0.33972 0.51757 0.53764 0.0
H815 H 0.32983 0.49828 0.58136 0.0
C816 C 0.85183 0.75591 0.95477 0.0
C817 C 0.84664 0.74456 0.91793 0.0
C818 C 0.8702 0.73696 0.97652 0.0
C819 C 0.88333 0.70597 0.96098 0.0
C820 C 0.8771 0.69384 0.9241 0.0
C821 C 0.85897 0.71347 0.90295 0.0
C822 C 0.87656 0.75068 0.01569 0.0
C823 C 0.89039 0.66063 0.90668 0.0
C824 C 0.96554 0.67342 0.99267 0.0
C825 C 0.94783 0.64166 0.00896 0.0
C826 C 0.94469 0.69642 0.97943 0.0
C827 C 0.90532 0.687 0.98233 0.0
C828 C 0.88741 0.65655 0.00151 0.0
C829 C 0.90901 0.63424 0.01484 0.0
C830 C 0.96478 0.72906 0.95969 0.0
C831 C 0.84549 0.64569 0.00515 0.0
H832 H 0.84238 0.78007 0.96643 0.0
H833 H 0.8548 0.70474 0.87448 0.0
H834 H 0.8666 0.72843 0.03421 0.0
H835 H 0.90683 0.76007 0.01905 0.0
H836 H 0.86221 0.77355 0.02437 0.0
H837 H 0.88159 0.65379 0.87829 0.0
H838 H 0.92124 0.6653 0.9061 0.0
H839 H 0.87942 0.63686 0.92306 0.0
H840 H 0.99564 0.67925 0.98841 0.0
H841 H 0.89532 0.60964 0.02753 0.0
H842 H 0.9527 0.75329 0.96865 0.0
H843 H 0.96138 0.72364 0.92991 0.0
H844 H 0.99504 0.73545 0.96431 0.0
H845 H 0.83268 0.66968 0.01305 0.0
H846 H 0.83607 0.62511 0.02563 0.0
H847 H 0.835 0.63396 0.97836 0.0
C848 C 0.40779 0.79213 0.15483 0.0
C849 C 0.39703 0.76071 0.13196 0.0
C850 C 0.42313 0.82576 0.1402 0.0
C851 C 0.42844 0.82794 0.10177 0.0
C852 C 0.41827 0.79609 0.07863 0.0
C853 C 0.4025 0.76302 0.09396 0.0
C854 C 0.43323 0.85908 0.16586 0.0
C855 C 0.42413 0.79692 0.03763 0.0
C856 C 0.43991 0.92084 0.06223 0.0
C857 C 0.47877 0.9315 0.05882 0.0
C858 C 0.42305 0.88712 0.07598 0.0
C859 C 0.44562 0.86329 0.08585 0.0
C860 C 0.48485 0.87347 0.08099 0.0
C861 C 0.50088 0.9075 0.06788 0.0
C862 C 0.38116 0.87748 0.08102 0.0
C863 C 0.51 0.8487 0.09027 0.0
H864 H 0.40323 0.7906 0.18416 0.0
H865 H 0.39447 0.73875 0.07615 0.0
H866 H 0.46343 0.87062 0.16218 0.0
H867 H 0.41804 0.88026 0.1594 0.0
H868 H 0.42657 0.85307 0.19495 0.0
H869 H 0.41496 0.76976 0.02343 0.0
H870 H 0.40851 0.81618 0.0276 0.0
H871 H 0.45405 0.80678 0.02997 0.0
H872 H 0.42272 0.9394 0.05546 0.0
H873 H 0.53096 0.91557 0.06509 0.0
H874 H 0.37282 0.87424 0.11036 0.0
H875 H 0.37057 0.85112 0.06601 0.0
H876 H 0.36752 0.89851 0.07132 0.0
H877 H 0.50674 0.8446 0.11995 0.0
H878 H 0.53982 0.85977 0.08304 0.0
H879 H 0.50205 0.8216 0.07564 0.0
C880 C 0.15857 0.25649 0.62288 0.0
C881 C 0.13856 0.28415 0.63283 0.0
C882 C 0.14039 0.22169 0.61078 0.0
C883 C 0.10124 0.21441 0.60869 0.0
C884 C 0.08072 0.2419 0.61966 0.0
C885 C 0.09968 0.27654 0.63163 0.0
C886 C 0.16318 0.19298 0.59941 0.0
C887 C 0.03892 0.23501 0.61777 0.0
C888 C 0.06224 0.13864 0.54001 0.0
C889 C 0.04978 0.10954 0.5623 0.0
C890 C 0.07839 0.17308 0.55492 0.0
C891 C 0.08218 0.17858 0.59305 0.0
C892 C 0.06914 0.14956 0.61584 0.0
C893 C 0.05308 0.11531 0.60017 0.0
C894 C 0.09202 0.20343 0.52976 0.0
C895 C 0.07271 0.15456 0.65665 0.0
H896 H 0.18858 0.26213 0.62445 0.0
H897 H 0.08417 0.29795 0.63912 0.0
H898 H 0.15259 0.16834 0.61462 0.0
H899 H 0.16049 0.18484 0.56992 0.0
H900 H 0.19318 0.2026 0.60426 0.0
H901 H 0.02689 0.25854 0.62953 0.0
H902 H 0.03151 0.22931 0.5889 0.0
H903 H 0.0258 0.21072 0.63263 0.0
H904 H 0.05969 0.13452 0.51074 0.0
H905 H 0.04343 0.09302 0.61762 0.0
H906 H 0.12257 0.21273 0.53119 0.0
H907 H 0.07891 0.22706 0.53857 0.0
H908 H 0.08582 0.19497 0.50088 0.0
H909 H 0.10257 0.16181 0.66269 0.0
H910 H 0.05972 0.12967 0.67071 0.0
H911 H 0.05946 0.1773 0.66825 0.0
C912 C 0.68957 0.28474 0.41277 0.0
C913 C 0.70463 0.28337 0.37668 0.0
C914 C 0.67195 0.3134 0.42651 0.0
C915 C 0.66956 0.34139 0.40365 0.0
C916 C 0.687 0.34132 0.36804 0.0
C917 C 0.70421 0.31231 0.35499 0.0
C918 C 0.65381 0.31247 0.46467 0.0
C919 C 0.68553 0.37072 0.34285 0.0
C920 C 0.58482 0.38587 0.41863 0.0
C921 C 0.59926 0.41887 0.43754 0.0
C922 C 0.60745 0.36053 0.40754 0.0
C923 C 0.64558 0.36843 0.4154 0.0
C924 C 0.66048 0.40206 0.434 0.0
C925 C 0.6371 0.42687 0.44493 0.0
C926 C 0.59039 0.32508 0.3877 0.0
C927 C 0.70099 0.41168 0.44263 0.0
H928 H 0.68959 0.26233 0.42955 0.0
H929 H 0.71614 0.31149 0.32716 0.0
H930 H 0.66166 0.33927 0.47987 0.0
H931 H 0.62308 0.30668 0.4632 0.0
H932 H 0.66164 0.29134 0.48031 0.0
H933 H 0.70404 0.36906 0.31776 0.0
H934 H 0.65658 0.36818 0.33464 0.0
H935 H 0.69368 0.39798 0.35707 0.0
H936 H 0.55556 0.37954 0.41297 0.0
H937 H 0.64837 0.4524 0.45959 0.0
H938 H 0.59361 0.30194 0.40327 0.0
H939 H 0.60513 0.32219 0.36053 0.0
H940 H 0.56031 0.32307 0.38374 0.0
H941 H 0.7073 0.39167 0.46062 0.0
H942 H 0.70849 0.43931 0.45636 0.0
H943 H 0.71895 0.41031 0.41716 0.0
loop_
_geom_bond_atom_site_label_1
_geom_bond_atom_site_label_2
_geom_bond_distance
_geom_bond_site_symmetry_2
_ccdc_geom_bond_type
H0 C5 0.930 . S
H1 C8 0.930 . S
H2 C10 0.930 . S
H3 C4 1.016 . S
C4 H3 1.016 . S
C4 N11 1.286 . S
C5 H0 0.930 . S
C5 C6 1.397 . S
C5 C7 1.361 . S
C6 C5 1.397 . S
C6 C10 1.390 . S
C7 C5 1.361 . S
C7 C8 1.393 . S
C7 N11 1.413 . S
C8 H1 0.930 . S
C8 C7 1.393 . S
C8 C9 1.399 . S
C9 C8 1.399 . S
C9 C10 1.381 . S
C10 H2 0.930 . S
C10 C6 1.390 . S
C10 C9 1.381 . S
N11 C4 1.286 . S
N11 C7 1.413 . S
H12 C17 0.930 . S
H13 C20 0.930 . S
H14 C22 0.930 . S
H15 C16 1.016 . S
C16 H15 1.016 . S
C16 N23 1.286 . S
C17 H12 0.930 . S
C17 C18 1.397 . S
C17 C19 1.361 . S
C18 C17 1.397 . S
C18 C22 1.390 . S
C19 C17 1.361 . S
C19 C20 1.393 . S
C19 N23 1.413 . S
C20 H13 0.930 . S
C20 C19 1.393 . S
C20 C21 1.399 . S
C21 C20 1.399 . S
C21 C22 1.381 . S
C22 H14 0.930 . S
C22 C18 1.390 . S
C22 C21 1.381 . S
N23 C16 1.286 . S
N23 C19 1.413 . S
H24 C29 0.930 . S
H25 C32 0.930 . S
H26 C34 0.930 . S
H27 C28 1.016 . S
C28 H27 1.016 . S
C28 N35 1.286 . S
C29 H24 0.930 . S
C29 C30 1.397 . S
C29 C31 1.361 . S
C30 C29 1.397 . S
C30 C34 1.390 . S
C31 C29 1.361 . S
C31 C32 1.393 . S
C31 N35 1.413 . S
C32 H25 0.930 . S
C32 C31 1.393 . S
C32 C33 1.399 . S
C33 C32 1.399 . S
C33 C34 1.381 . S
C34 H26 0.930 . S
C34 C30 1.390 . S
C34 C33 1.381 . S
N35 C28 1.286 . S
N35 C31 1.413 . S
H36 C41 0.930 . S
H37 C44 0.930 . S
H38 C46 0.930 . S
H39 C40 1.016 . S
C40 H39 1.016 . S
C40 N47 1.286 . S
C41 H36 0.930 . S
C41 C42 1.397 . S
C41 C43 1.361 . S
C42 C41 1.397 . S
C42 C46 1.390 . S
C43 C41 1.361 . S
C43 C44 1.393 . S
C43 N47 1.413 . S
C44 H37 0.930 . S
C44 C43 1.393 . S
C44 C45 1.399 . S
C45 C44 1.399 . S
C45 C46 1.381 . S
C46 H38 0.930 . S
C46 C42 1.390 . S
C46 C45 1.381 . S
N47 C40 1.286 . S
N47 C43 1.413 . S
H48 C53 0.930 . S
H49 C56 0.930 . S
H50 C58 0.930 . S
H51 C52 1.016 . S
C52 H51 1.016 . S
C52 N59 1.286 . S
C53 H48 0.930 . S
C53 C54 1.397 . S
C53 C55 1.361 . S
C54 C53 1.397 . S
C54 C58 1.390 . S
C55 C53 1.361 . S
C55 C56 1.393 . S
C55 N59 1.413 . S
C56 H49 0.930 . S
C56 C55 1.393 . S
C56 C57 1.399 . S
C57 C56 1.399 . S
C57 C58 1.381 . S
C58 H50 0.930 . S
C58 C54 1.390 . S
C58 C57 1.381 . S
N59 C52 1.286 . S
N59 C55 1.413 . S
H60 C65 0.930 . S
H61 C68 0.930 . S
H62 C70 0.930 . S
H63 C64 1.016 . S
C64 H63 1.016 . S
C64 N71 1.286 . S
C65 H60 0.930 . S
C65 C66 1.397 . S
C65 C67 1.361 . S
C66 C65 1.397 . S
C66 C70 1.390 . S
C67 C65 1.361 . S
C67 C68 1.393 . S
C67 N71 1.413 . S
C68 H61 0.930 . S
C68 C67 1.393 . S
C68 C69 1.399 . S
C69 C68 1.399 . S
C69 C70 1.381 . S
C70 H62 0.930 . S
C70 C66 1.390 . S
C70 C69 1.381 . S
N71 C64 1.286 . S
N71 C67 1.413 . S
H72 C77 0.930 . S
H73 C80 0.930 . S
H74 C82 0.930 . S
H75 C76 1.016 . S
C76 H75 1.016 . S
C76 N83 1.286 . S
C77 H72 0.930 . S
C77 C78 1.397 . S
C77 C79 1.361 . S
C78 C77 1.397 . S
C78 C82 1.390 . S
C79 C77 1.361 . S
C79 C80 1.393 . S
C79 N83 1.413 . S
C80 H73 0.930 . S
C80 C79 1.393 . S
C80 C81 1.399 . S
C81 C80 1.399 . S
C81 C82 1.381 . S
C82 H74 0.930 . S
C82 C78 1.390 . S
C82 C81 1.381 . S
N83 C76 1.286 . S
N83 C79 1.413 . S
H84 C89 0.930 . S
H85 C92 0.930 . S
H86 C94 0.930 . S
H87 C88 1.016 . S
C88 H87 1.016 . S
C88 N95 1.286 . S
C89 H84 0.930 . S
C89 C90 1.397 . S
C89 C91 1.361 . S
C90 C89 1.397 . S
C90 C94 1.390 . S
C91 C89 1.361 . S
C91 C92 1.393 . S
C91 N95 1.413 . S
C92 H85 0.930 . S
C92 C91 1.393 . S
C92 C93 1.399 . S
C93 C92 1.399 . S
C93 C94 1.381 . S
C94 H86 0.930 . S
C94 C90 1.390 . S
C94 C93 1.381 . S
N95 C88 1.286 . S
N95 C91 1.413 . S
Dy96 O100 2.398 . S
Dy96 O101 2.491 . S
Dy96 O102 2.403 1_545 S
Dy96 O103 2.664 1_545 S
Dy96 O107 2.326 . S
Dy96 O111 2.310 1_455 S
Dy96 O112 2.351 1_445 S
C97 O108 1.185 . S
C97 O109 1.355 . S
C98 O100 1.185 . S
C98 O101 1.355 . S
Dy99 O103 2.310 1_655 S
Dy99 O106 2.351 1_665 S
Dy99 O108 2.398 . S
Dy99 O109 2.491 . S
Dy99 O110 2.403 1_565 S
Dy99 O111 2.664 1_565 S
Dy99 O113 2.326 . S
O100 Dy96 2.398 . S
O100 C98 1.185 . S
O101 Dy96 2.491 . S
O101 C98 1.355 . S
O102 Dy96 2.403 1_565 S
O102 C104 1.254 . S
O103 Dy96 2.664 1_565 S
O103 Dy99 2.310 1_455 S
O103 C104 1.268 . S
C104 O102 1.254 . S
C104 O103 1.268 . S
C105 O110 1.254 . S
C105 O111 1.268 . S
O106 Dy99 2.351 1_445 S
O106 C114 1.249 . S
O107 Dy96 2.326 . S
O107 C114 1.267 . S
O108 C97 1.185 . S
O108 Dy99 2.398 . S
O109 C97 1.355 . S
O109 Dy99 2.491 . S
O110 Dy99 2.403 1_545 S
O110 C105 1.254 . S
O111 Dy96 2.310 1_655 S
O111 Dy99 2.664 1_545 S
O111 C105 1.268 . S
O112 Dy96 2.351 1_665 S
O112 C115 1.249 . S
O113 Dy99 2.326 . S
O113 C115 1.267 . S
C114 O106 1.249 . S
C114 O107 1.267 . S
C115 O112 1.249 . S
C115 O113 1.267 . S
Dy116 O120 2.398 . S
Dy116 O121 2.491 . S
Dy116 O122 2.403 1_545 S
Dy116 O123 2.664 1_545 S
Dy116 O127 2.326 . S
Dy116 O131 2.310 . S
Dy116 O132 2.351 1_544 S
C117 O128 1.185 . S
C117 O129 1.355 . S
C118 O120 1.185 . S
C118 O121 1.355 . S
Dy119 O123 2.310 1_546 S
Dy119 O126 2.351 1_556 S
Dy119 O128 2.398 1_545 S
Dy119 O129 2.491 1_545 S
Dy119 O130 2.403 . S
Dy119 O131 2.664 1_556 S
Dy119 O133 2.326 1_545 S
O120 Dy116 2.398 . S
O120 C118 1.185 . S
O121 Dy116 2.491 . S
O121 C118 1.355 . S
O122 Dy116 2.403 1_565 S
O122 C124 1.254 . S
O123 Dy116 2.664 1_565 S
O123 Dy119 2.310 1_564 S
O123 C124 1.268 . S
C124 O122 1.254 . S
C124 O123 1.268 . S
C125 O130 1.254 . S
C125 O131 1.268 1_556 S
O126 Dy119 2.351 1_554 S
O126 C134 1.249 . S
O127 Dy116 2.326 . S
O127 C134 1.267 . S
O128 C117 1.185 . S
O128 Dy119 2.398 1_565 S
O129 C117 1.355 . S
O129 Dy119 2.491 1_565 S
O130 Dy119 2.403 . S
O130 C125 1.254 . S
O131 Dy116 2.310 . S
O131 Dy119 2.664 1_554 S
O131 C125 1.268 1_554 S
O132 Dy116 2.351 1_566 S
O132 C135 1.249 . S
O133 Dy119 2.326 1_565 S
O133 C135 1.267 . S
C134 O126 1.249 . S
C134 O127 1.267 . S
C135 O132 1.249 . S
C135 O133 1.267 . S
Dy136 O140 2.398 . S
Dy136 O141 2.491 . S
Dy136 O142 2.403 . S
Dy136 O143 2.664 . S
Dy136 O147 2.326 . S
Dy136 O151 2.310 . S
Dy136 O152 2.351 . S
C137 O148 1.185 . S
C137 O149 1.355 . S
C138 O140 1.185 . S
C138 O141 1.355 . S
Dy139 O143 2.310 . S
Dy139 O146 2.351 . S
Dy139 O148 2.398 . S
Dy139 O149 2.491 . S
Dy139 O150 2.403 . S
Dy139 O151 2.664 . S
Dy139 O153 2.326 . S
O140 Dy136 2.398 . S
O140 C138 1.185 . S
O141 Dy136 2.491 . S
O141 C138 1.355 . S
O142 Dy136 2.403 . S
O142 C144 1.254 . S
O143 Dy136 2.664 . S
O143 Dy139 2.310 . S
O143 C144 1.268 . S
C144 O142 1.254 . S
C144 O143 1.268 . S
C145 O150 1.254 . S
C145 O151 1.268 . S
O146 Dy139 2.351 . S
O146 C154 1.249 . S
O147 Dy136 2.326 . S
O147 C154 1.267 . S
O148 C137 1.185 . S
O148 Dy139 2.398 . S
O149 C137 1.355 . S
O149 Dy139 2.491 . S
O150 Dy139 2.403 . S
O150 C145 1.254 . S
O151 Dy136 2.310 . S
O151 Dy139 2.664 . S
O151 C145 1.268 . S
O152 Dy136 2.351 . S
O152 C155 1.249 . S
O153 Dy139 2.326 . S
O153 C155 1.267 . S
C154 O146 1.249 . S
C154 O147 1.267 . S
C155 O152 1.249 . S
C155 O153 1.267 . S
Dy156 O160 2.398 . S
Dy156 O161 2.491 . S
Dy156 O162 2.403 1_455 S
Dy156 O163 2.664 1_455 S
Dy156 O167 2.326 . S
Dy156 O171 2.310 1_554 S
Dy156 O172 2.338 1_454 S
C157 O168 1.185 . S
C157 O169 1.355 . S
C158 O160 1.185 . S
C158 O161 1.355 . S
Dy159 O163 2.310 1_456 S
Dy159 O166 2.351 1_556 S
Dy159 O168 2.398 1_455 S
Dy159 O169 2.491 1_455 S
Dy159 O170 2.403 . S
Dy159 O171 2.664 . S
Dy159 O173 2.326 1_455 S
O160 Dy156 2.398 . S
O160 C158 1.185 . S
O161 Dy156 2.491 . S
O161 C158 1.355 . S
O162 Dy156 2.403 1_655 S
O162 C164 1.254 . S
O163 Dy156 2.664 1_655 S
O163 Dy159 2.310 1_654 S
O163 C164 1.268 . S
C164 O162 1.254 . S
C164 O163 1.268 . S
C165 O170 1.254 . S
C165 O171 1.268 . S
O166 Dy159 2.351 1_554 S
O166 C174 1.249 . S
O167 Dy156 2.326 . S
O167 C174 1.267 . S
O168 C157 1.185 . S
O168 Dy159 2.398 1_655 S
O169 C157 1.355 . S
O169 Dy159 2.491 1_655 S
O170 Dy159 2.403 . S
O170 C165 1.254 . S
O171 Dy156 2.310 1_556 S
O171 Dy159 2.664 . S
O171 C165 1.268 . S
O172 Dy156 2.338 1_656 S
O172 C175 1.267 . S
O173 Dy159 2.326 1_655 S
O173 C175 1.267 . S
C174 O166 1.249 . S
C174 O167 1.267 . S
C175 O172 1.267 . S
C175 O173 1.267 . S
C176 C177 1.391 . S
C176 C178 1.394 . S
C176 H192 0.931 . S
C177 C176 1.391 . S
C177 C181 1.376 . S
C178 C176 1.394 . S
C178 C179 1.369 . S
C178 C182 1.531 . S
C179 C178 1.369 . S
C179 C180 1.410 . S
C179 C187 1.503 . S
C180 C179 1.410 . S
C180 C181 1.392 . S
C180 C183 1.511 . S
C181 C177 1.376 . S
C181 C180 1.392 . S
C181 H193 0.929 . S
C182 C178 1.531 . S
C182 H194 0.960 . S
C182 H195 0.962 . S
C182 H196 0.960 . S
C183 C180 1.511 . S
C183 H197 0.961 . S
C183 H198 0.961 . S
C183 H199 0.961 . S
C184 C185 1.370 . S
C184 C186 1.363 . S
C184 H200 0.931 . S
C185 C184 1.370 . S
C185 C189 1.408 . S
C186 C184 1.363 . S
C186 C187 1.370 . S
C186 C190 1.524 . S
C187 C179 1.503 . S
C187 C186 1.370 . S
C187 C188 1.403 . S
C188 C187 1.403 . S
C188 C189 1.404 . S
C188 C191 1.539 . S
C189 C185 1.408 . S
C189 C188 1.404 . S
C189 H201 0.930 . S
C190 C186 1.524 . S
C190 H202 0.956 . S
C190 H203 0.961 . S
C190 H204 0.961 . S
C191 C188 1.539 . S
C191 H205 0.958 . S
C191 H206 0.961 . S
C191 H207 0.960 . S
H192 C176 0.931 . S
H193 C181 0.929 . S
H194 C182 0.960 . S
H195 C182 0.962 . S
H196 C182 0.960 . S
H197 C183 0.961 . S
H198 C183 0.961 . S
H199 C183 0.961 . S
H200 C184 0.931 . S
H201 C189 0.930 . S
H202 C190 0.956 . S
H203 C190 0.961 . S
H204 C190 0.961 . S
H205 C191 0.958 . S
H206 C191 0.961 . S
H207 C191 0.960 . S
C208 C209 1.391 . S
C208 C210 1.394 . S
C208 H224 0.931 . S
C209 C208 1.391 . S
C209 C213 1.376 . S
C210 C208 1.394 . S
C210 C211 1.369 . S
C210 C214 1.531 . S
C211 C210 1.369 . S
C211 C212 1.410 . S
C211 C219 1.503 . S
C212 C211 1.410 . S
C212 C213 1.392 . S
C212 C215 1.511 . S
C213 C209 1.376 . S
C213 C212 1.392 . S
C213 H225 0.929 . S
C214 C210 1.531 . S
C214 H226 0.960 . S
C214 H227 0.962 . S
C214 H228 0.960 . S
C215 C212 1.511 . S
C215 H229 0.961 . S
C215 H230 0.961 . S
C215 H231 0.961 . S
C216 C217 1.370 . S
C216 C218 1.363 . S
C216 H232 0.931 . S
C217 C216 1.370 . S
C217 C221 1.408 . S
C218 C216 1.363 . S
C218 C219 1.370 . S
C218 C222 1.524 . S
C219 C211 1.503 . S
C219 C218 1.370 . S
C219 C220 1.403 . S
C220 C219 1.403 . S
C220 C221 1.404 . S
C220 C223 1.539 . S
C221 C217 1.408 . S
C221 C220 1.404 . S
C221 H233 0.930 . S
C222 C218 1.524 . S
C222 H234 0.956 . S
C222 H235 0.961 . S
C222 H236 0.961 . S
C223 C220 1.539 . S
C223 H237 0.958 . S
C223 H238 0.961 . S
C223 H239 0.960 . S
H224 C208 0.931 . S
H225 C213 0.929 . S
H226 C214 0.960 . S
H227 C214 0.962 . S
H228 C214 0.960 . S
H229 C215 0.961 . S
H230 C215 0.961 . S
H231 C215 0.961 . S
H232 C216 0.931 . S
H233 C221 0.930 . S
H234 C222 0.956 . S
H235 C222 0.961 . S
H236 C222 0.961 . S
H237 C223 0.958 . S
H238 C223 0.961 . S
H239 C223 0.960 . S
C240 C241 1.391 . S
C240 C242 1.394 . S
C240 H256 0.931 . S
C241 C240 1.391 . S
C241 C245 1.376 . S
C242 C240 1.394 . S
C242 C243 1.369 . S
C242 C246 1.531 . S
C243 C242 1.369 . S
C243 C244 1.410 . S
C243 C251 1.503 . S
C244 C243 1.410 . S
C244 C245 1.392 . S
C244 C247 1.511 . S
C245 C241 1.376 . S
C245 C244 1.392 . S
C245 H257 0.929 . S
C246 C242 1.531 . S
C246 H258 0.960 . S
C246 H259 0.962 . S
C246 H260 0.960 . S
C247 C244 1.511 . S
C247 H261 0.961 . S
C247 H262 0.961 . S
C247 H263 0.961 . S
C248 C249 1.370 . S
C248 C250 1.363 . S
C248 H264 0.931 . S
C249 C248 1.370 . S
C249 C253 1.408 . S
C250 C248 1.363 . S
C250 C251 1.370 . S
C250 C254 1.524 . S
C251 C243 1.503 . S
C251 C250 1.370 . S
C251 C252 1.403 . S
C252 C251 1.403 . S
C252 C253 1.404 . S
C252 C255 1.539 . S
C253 C249 1.408 . S
C253 C252 1.404 . S
C253 H265 0.930 . S
C254 C250 1.524 . S
C254 H266 0.956 . S
C254 H267 0.961 . S
C254 H268 0.961 . S
C255 C252 1.539 . S
C255 H269 0.958 . S
C255 H270 0.961 . S
C255 H271 0.960 . S
H256 C240 0.931 . S
H257 C245 0.929 . S
H258 C246 0.960 . S
H259 C246 0.962 . S
H260 C246 0.960 . S
H261 C247 0.961 . S
H262 C247 0.961 . S
H263 C247 0.961 . S
H264 C248 0.931 . S
H265 C253 0.930 . S
H266 C254 0.956 . S
H267 C254 0.961 . S
H268 C254 0.961 . S
H269 C255 0.958 . S
H270 C255 0.961 . S
H271 C255 0.960 . S
C272 C273 1.391 . S
C272 C274 1.394 . S
C272 H288 0.931 . S
C273 C272 1.391 . S
C273 C277 1.376 . S
C274 C272 1.394 . S
C274 C275 1.369 . S
C274 C278 1.531 . S
C275 C274 1.369 . S
C275 C276 1.410 . S
C275 C283 1.503 . S
C276 C275 1.410 . S
C276 C277 1.392 . S
C276 C279 1.511 . S
C277 C273 1.376 . S
C277 C276 1.392 . S
C277 H289 0.929 . S
C278 C274 1.531 . S
C278 H290 0.960 . S
C278 H291 0.962 . S
C278 H292 0.960 . S
C279 C276 1.511 . S
C279 H293 0.961 . S
C279 H294 0.961 . S
C279 H295 0.961 . S
C280 C281 1.370 . S
C280 C282 1.363 . S
C280 H296 0.931 . S
C281 C280 1.370 . S
C281 C285 1.408 . S
C282 C280 1.363 . S
C282 C283 1.370 . S
C282 C286 1.524 . S
C283 C275 1.503 . S
C283 C282 1.370 . S
C283 C284 1.403 . S
C284 C283 1.403 . S
C284 C285 1.404 . S
C284 C287 1.539 1_655 S
C285 C281 1.408 . S
C285 C284 1.404 . S
C285 H297 0.930 1_655 S
C286 C282 1.524 . S
C286 H298 0.956 . S
C286 H299 0.961 . S
C286 H300 0.961 . S
C287 C284 1.539 1_455 S
C287 H301 0.958 . S
C287 H302 0.961 . S
C287 H303 0.960 1_455 S
H288 C272 0.931 . S
H289 C277 0.929 . S
H290 C278 0.960 . S
H291 C278 0.962 . S
H292 C278 0.960 . S
H293 C279 0.961 . S
H294 C279 0.961 . S
H295 C279 0.961 . S
H296 C280 0.931 . S
H297 C285 0.930 1_455 S
H298 C286 0.956 . S
H299 C286 0.961 . S
H300 C286 0.961 . S
H301 C287 0.958 . S
H302 C287 0.961 . S
H303 C287 0.960 1_655 S
C304 C305 1.391 . S
C304 C306 1.394 . S
C304 H320 0.931 . S
C305 C304 1.391 . S
C305 C309 1.376 . S
C306 C304 1.394 . S
C306 C307 1.369 . S
C306 C310 1.531 . S
C307 C306 1.369 . S
C307 C308 1.410 . S
C307 C315 1.503 . S
C308 C307 1.410 . S
C308 C309 1.392 . S
C308 C311 1.511 . S
C309 C305 1.376 . S
C309 C308 1.392 . S
C309 H321 0.929 . S
C310 C306 1.531 . S
C310 H322 0.960 . S
C310 H323 0.962 . S
C310 H324 0.960 . S
C311 C308 1.511 . S
C311 H325 0.961 . S
C311 H326 0.961 . S
C311 H327 0.961 . S
C312 C313 1.370 . S
C312 C314 1.363 . S
C312 H328 0.931 . S
C313 C312 1.370 . S
C313 C317 1.408 . S
C314 C312 1.363 . S
C314 C315 1.370 . S
C314 C318 1.524 . S
C315 C307 1.503 . S
C315 C314 1.370 . S
C315 C316 1.403 . S
C316 C315 1.403 . S
C316 C317 1.404 . S
C316 C319 1.539 . S
C317 C313 1.408 . S
C317 C316 1.404 . S
C317 H329 0.930 . S
C318 C314 1.524 . S
C318 H330 0.956 . S
C318 H331 0.961 . S
C318 H332 0.961 . S
C319 C316 1.539 . S
C319 H333 0.958 . S
C319 H334 0.961 . S
C319 H335 0.960 . S
H320 C304 0.931 . S
H321 C309 0.929 . S
H322 C310 0.960 . S
H323 C310 0.962 . S
H324 C310 0.960 . S
H325 C311 0.961 . S
H326 C311 0.961 . S
H327 C311 0.961 . S
H328 C312 0.931 . S
H329 C317 0.930 . S
H330 C318 0.956 . S
H331 C318 0.961 . S
H332 C318 0.961 . S
H333 C319 0.958 . S
H334 C319 0.961 . S
H335 C319 0.960 . S
C336 C337 1.391 . S
C336 C338 1.394 . S
C336 H352 0.931 . S
C337 C336 1.391 . S
C337 C341 1.376 . S
C338 C336 1.394 . S
C338 C339 1.369 . S
C338 C342 1.531 . S
C339 C338 1.369 . S
C339 C340 1.410 . S
C339 C347 1.503 . S
C340 C339 1.410 . S
C340 C341 1.392 . S
C340 C343 1.511 . S
C341 C337 1.376 . S
C341 C340 1.392 . S
C341 H353 0.929 . S
C342 C338 1.531 . S
C342 H354 0.960 . S
C342 H355 0.962 . S
C342 H356 0.960 . S
C343 C340 1.511 . S
C343 H357 0.961 . S
C343 H358 0.961 . S
C343 H359 0.961 . S
C344 C345 1.370 . S
C344 C346 1.363 . S
C344 H360 0.931 . S
C345 C344 1.370 . S
C345 C349 1.408 . S
C346 C344 1.363 . S
C346 C347 1.370 . S
C346 C350 1.524 . S
C347 C339 1.503 . S
C347 C346 1.370 . S
C347 C348 1.403 . S
C348 C347 1.403 . S
C348 C349 1.404 . S
C348 C351 1.539 1_565 S
C349 C345 1.408 . S
C349 C348 1.404 . S
C349 H361 0.930 1_565 S
C350 C346 1.524 . S
C350 H362 0.956 . S
C350 H363 0.961 . S
C350 H364 0.961 . S
C351 C348 1.539 1_545 S
C351 H365 0.958 . S
C351 H366 0.961 . S
C351 H367 0.960 1_545 S
H352 C336 0.931 . S
H353 C341 0.929 . S
H354 C342 0.960 . S
H355 C342 0.962 . S
H356 C342 0.960 . S
H357 C343 0.961 . S
H358 C343 0.961 . S
H359 C343 0.961 . S
H360 C344 0.931 . S
H361 C349 0.930 1_545 S
H362 C350 0.956 . S
H363 C350 0.961 . S
H364 C350 0.961 . S
H365 C351 0.958 . S
H366 C351 0.961 . S
H367 C351 0.960 1_565 S
C368 C369 1.391 . S
C368 C370 1.394 . S
C368 H384 0.931 . S
C369 C368 1.391 . S
C369 C373 1.376 . S
C370 C368 1.394 . S
C370 C371 1.369 . S
C370 C374 1.531 . S
C371 C370 1.369 . S
C371 C372 1.410 . S
C371 C379 1.503 . S
C372 C371 1.410 . S
C372 C373 1.392 . S
C372 C375 1.511 . S
C373 C369 1.376 . S
C373 C372 1.392 . S
C373 H385 0.929 . S
C374 C370 1.531 . S
C374 H386 0.960 . S
C374 H387 0.962 . S
C374 H388 0.960 . S
C375 C372 1.511 . S
C375 H389 0.961 . S
C375 H390 0.961 . S
C375 H391 0.961 . S
C376 C377 1.370 . S
C376 C378 1.363 . S
C376 H392 0.931 1_556 S
C377 C376 1.370 . S
C377 C381 1.408 . S
C378 C376 1.363 . S
C378 C379 1.370 . S
C378 C382 1.524 . S
C379 C371 1.503 . S
C379 C378 1.370 . S
C379 C380 1.403 . S
C380 C379 1.403 . S
C380 C381 1.404 . S
C380 C383 1.539 . S
C381 C377 1.408 . S
C381 C380 1.404 . S
C381 H393 0.930 . S
C382 C378 1.524 . S
C382 H394 0.956 . S
C382 H395 0.961 . S
C382 H396 0.961 1_556 S
C383 C380 1.539 . S
C383 H397 0.958 . S
C383 H398 0.961 . S
C383 H399 0.960 . S
H384 C368 0.931 . S
H385 C373 0.929 . S
H386 C374 0.960 . S
H387 C374 0.962 . S
H388 C374 0.960 . S
H389 C375 0.961 . S
H390 C375 0.961 . S
H391 C375 0.961 . S
H392 C376 0.931 1_554 S
H393 C381 0.930 . S
H394 C382 0.956 . S
H395 C382 0.961 . S
H396 C382 0.961 1_554 S
H397 C383 0.958 . S
H398 C383 0.961 . S
H399 C383 0.960 . S
C400 C401 1.391 . S
C400 C402 1.394 . S
C400 H416 0.931 . S
C401 C400 1.391 . S
C401 C405 1.376 . S
C402 C400 1.394 . S
C402 C403 1.369 . S
C402 C406 1.531 . S
C403 C402 1.369 . S
C403 C404 1.410 . S
C403 C411 1.503 . S
C404 C403 1.410 . S
C404 C405 1.392 . S
C404 C407 1.511 . S
C405 C401 1.376 . S
C405 C404 1.392 . S
C405 H417 0.929 . S
C406 C402 1.531 . S
C406 H418 0.960 . S
C406 H419 0.962 . S
C406 H420 0.960 . S
C407 C404 1.511 . S
C407 H421 0.961 . S
C407 H422 0.961 . S
C407 H423 0.961 . S
C408 C409 1.370 . S
C408 C410 1.363 . S
C408 H424 0.931 . S
C409 C408 1.370 . S
C409 C413 1.408 . S
C410 C408 1.363 . S
C410 C411 1.370 . S
C410 C414 1.524 . S
C411 C403 1.503 . S
C411 C410 1.370 . S
C411 C412 1.403 . S
C412 C411 1.403 . S
C412 C413 1.404 . S
C412 C415 1.539 . S
C413 C409 1.408 . S
C413 C412 1.404 . S
C413 H425 0.930 . S
C414 C410 1.524 . S
C414 H426 0.956 . S
C414 H427 0.961 . S
C414 H428 0.961 . S
C415 C412 1.539 . S
C415 H429 0.958 . S
C415 H430 0.961 . S
C415 H431 0.960 . S
H416 C400 0.931 . S
H417 C405 0.929 . S
H418 C406 0.960 . S
H419 C406 0.962 . S
H420 C406 0.960 . S
H421 C407 0.961 . S
H422 C407 0.961 . S
H423 C407 0.961 . S
H424 C408 0.931 . S
H425 C413 0.930 . S
H426 C414 0.956 . S
H427 C414 0.961 . S
H428 C414 0.961 . S
H429 C415 0.958 . S
H430 C415 0.961 . S
H431 C415 0.960 . S
C432 C433 1.391 . S
C432 C434 1.394 . S
C432 H448 0.931 . S
C433 C432 1.391 . S
C433 C437 1.376 . S
C434 C432 1.394 . S
C434 C435 1.369 . S
C434 C438 1.531 . S
C435 C434 1.369 . S
C435 C436 1.410 . S
C435 C443 1.503 . S
C436 C435 1.410 . S
C436 C437 1.392 . S
C436 C439 1.511 . S
C437 C433 1.376 . S
C437 C436 1.392 . S
C437 H449 0.929 . S
C438 C434 1.531 . S
C438 H450 0.960 . S
C438 H451 0.962 . S
C438 H452 0.960 . S
C439 C436 1.511 . S
C439 H453 0.961 . S
C439 H454 0.961 . S
C439 H455 0.961 . S
C440 C441 1.370 . S
C440 C442 1.363 . S
C440 H456 0.931 . S
C441 C440 1.370 . S
C441 C445 1.408 . S
C442 C440 1.363 . S
C442 C443 1.370 . S
C442 C446 1.524 . S
C443 C435 1.503 . S
C443 C442 1.370 . S
C443 C444 1.403 . S
C444 C443 1.403 . S
C444 C445 1.404 . S
C444 C447 1.539 . S
C445 C441 1.408 . S
C445 C444 1.404 . S
C445 H457 0.930 . S
C446 C442 1.524 . S
C446 H458 0.956 . S
C446 H459 0.961 . S
C446 H460 0.961 . S
C447 C444 1.539 . S
C447 H461 0.958 . S
C447 H462 0.961 . S
C447 H463 0.960 . S
H448 C432 0.931 . S
H449 C437 0.929 . S
H450 C438 0.960 . S
H451 C438 0.962 . S
H452 C438 0.960 . S
H453 C439 0.961 . S
H454 C439 0.961 . S
H455 C439 0.961 . S
H456 C440 0.931 . S
H457 C445 0.930 . S
H458 C446 0.956 . S
H459 C446 0.961 . S
H460 C446 0.961 . S
H461 C447 0.958 . S
H462 C447 0.961 . S
H463 C447 0.960 . S
C464 C465 1.391 . S
C464 C466 1.394 . S
C464 H480 0.931 . S
C465 C464 1.391 . S
C465 C469 1.376 . S
C466 C464 1.394 . S
C466 C467 1.369 . S
C466 C470 1.531 . S
C467 C466 1.369 . S
C467 C468 1.410 . S
C467 C475 1.503 . S
C468 C467 1.410 . S
C468 C469 1.392 . S
C468 C471 1.511 . S
C469 C465 1.376 . S
C469 C468 1.392 . S
C469 H481 0.929 . S
C470 C466 1.531 . S
C470 H482 0.960 . S
C470 H483 0.962 . S
C470 H484 0.960 . S
C471 C468 1.511 . S
C471 H485 0.961 . S
C471 H486 0.961 . S
C471 H487 0.961 . S
C472 C473 1.370 . S
C472 C474 1.363 . S
C472 H488 0.932 1_556 S
C473 C472 1.370 . S
C473 C477 1.408 . S
C474 C472 1.363 . S
C474 C475 1.370 . S
C474 C478 1.524 . S
C475 C467 1.503 . S
C475 C474 1.370 . S
C475 C476 1.403 . S
C476 C475 1.403 . S
C476 C477 1.404 . S
C476 C479 1.539 . S
C477 C473 1.408 . S
C477 C476 1.404 . S
C477 H489 0.930 . S
C478 C474 1.524 . S
C478 H490 0.956 . S
C478 H491 0.961 . S
C478 H492 0.961 1_556 S
C479 C476 1.539 . S
C479 H493 0.958 . S
C479 H494 0.961 . S
C479 H495 0.960 . S
H480 C464 0.931 . S
H481 C469 0.929 . S
H482 C470 0.960 . S
H483 C470 0.962 . S
H484 C470 0.960 . S
H485 C471 0.961 . S
H486 C471 0.961 . S
H487 C471 0.961 . S
H488 C472 0.932 1_554 S
H489 C477 0.930 . S
H490 C478 0.956 . S
H491 C478 0.961 . S
H492 C478 0.961 1_554 S
H493 C479 0.958 . S
H494 C479 0.961 . S
H495 C479 0.960 . S
C496 C497 1.391 . S
C496 C498 1.394 . S
C496 H512 0.931 . S
C497 C496 1.391 . S
C497 C501 1.376 . S
C498 C496 1.394 . S
C498 C499 1.369 . S
C498 C502 1.531 . S
C499 C498 1.369 . S
C499 C500 1.410 . S
C499 C507 1.503 . S
C500 C499 1.410 . S
C500 C501 1.392 . S
C500 C503 1.511 . S
C501 C497 1.376 . S
C501 C500 1.392 . S
C501 H513 0.929 . S
C502 C498 1.531 . S
C502 H514 0.960 . S
C502 H515 0.962 . S
C502 H516 0.960 . S
C503 C500 1.511 . S
C503 H517 0.961 . S
C503 H518 0.961 . S
C503 H519 0.961 . S
C504 C505 1.370 . S
C504 C506 1.363 . S
C504 H520 0.931 . S
C505 C504 1.370 . S
C505 C509 1.408 . S
C506 C504 1.363 . S
C506 C507 1.370 . S
C506 C510 1.524 . S
C507 C499 1.503 . S
C507 C506 1.370 . S
C507 C508 1.403 . S
C508 C507 1.403 . S
C508 C509 1.404 . S
C508 C511 1.539 . S
C509 C505 1.408 . S
C509 C508 1.404 . S
C509 H521 0.930 . S
C510 C506 1.524 . S
C510 H522 0.956 . S
C510 H523 0.961 . S
C510 H524 0.961 . S
C511 C508 1.539 . S
C511 H525 0.958 . S
C511 H526 0.961 . S
C511 H527 0.960 . S
H512 C496 0.931 . S
H513 C501 0.929 . S
H514 C502 0.960 . S
H515 C502 0.962 . S
H516 C502 0.960 . S
H517 C503 0.961 . S
H518 C503 0.961 . S
H519 C503 0.961 . S
H520 C504 0.931 . S
H521 C509 0.930 . S
H522 C510 0.956 . S
H523 C510 0.961 . S
H524 C510 0.961 . S
H525 C511 0.958 . S
H526 C511 0.961 . S
H527 C511 0.960 . S
C528 C529 1.391 . S
C528 C530 1.394 . S
C528 H544 0.931 . S
C529 C528 1.391 . S
C529 C533 1.376 . S
C530 C528 1.394 . S
C530 C531 1.369 . S
C530 C534 1.531 . S
C531 C530 1.369 . S
C531 C532 1.410 . S
C531 C539 1.503 . S
C532 C531 1.410 . S
C532 C533 1.392 . S
C532 C535 1.511 . S
C533 C529 1.376 . S
C533 C532 1.392 . S
C533 H545 0.929 . S
C534 C530 1.531 . S
C534 H546 0.960 . S
C534 H547 0.962 . S
C534 H548 0.960 . S
C535 C532 1.511 . S
C535 H549 0.961 . S
C535 H550 0.961 . S
C535 H551 0.961 . S
C536 C537 1.370 . S
C536 C538 1.363 . S
C536 H552 0.931 . S
C537 C536 1.370 . S
C537 C541 1.408 . S
C538 C536 1.363 . S
C538 C539 1.370 . S
C538 C542 1.524 . S
C539 C531 1.503 . S
C539 C538 1.370 . S
C539 C540 1.403 . S
C540 C539 1.403 . S
C540 C541 1.404 . S
C540 C543 1.539 . S
C541 C537 1.408 . S
C541 C540 1.404 . S
C541 H553 0.930 . S
C542 C538 1.524 . S
C542 H554 0.956 . S
C542 H555 0.961 . S
C542 H556 0.961 . S
C543 C540 1.539 . S
C543 H557 0.958 . S
C543 H558 0.961 . S
C543 H559 0.960 . S
H544 C528 0.931 . S
H545 C533 0.929 . S
H546 C534 0.960 . S
H547 C534 0.962 . S
H548 C534 0.960 . S
H549 C535 0.961 . S
H550 C535 0.961 . S
H551 C535 0.961 . S
H552 C536 0.931 . S
H553 C541 0.930 . S
H554 C542 0.956 . S
H555 C542 0.961 . S
H556 C542 0.961 . S
H557 C543 0.958 . S
H558 C543 0.961 . S
H559 C543 0.960 . S
C560 C561 1.391 . S
C560 C562 1.394 . S
C560 H576 0.931 . S
C561 C560 1.391 . S
C561 C565 1.376 . S
C562 C560 1.394 . S
C562 C563 1.369 . S
C562 C566 1.531 . S
C563 C562 1.369 . S
C563 C564 1.410 . S
C563 C571 1.503 . S
C564 C563 1.410 . S
C564 C565 1.392 . S
C564 C567 1.511 . S
C565 C561 1.376 . S
C565 C564 1.392 . S
C565 H577 0.929 . S
C566 C562 1.531 . S
C566 H578 0.960 . S
C566 H579 0.962 . S
C566 H580 0.960 . S
C567 C564 1.511 . S
C567 H581 0.961 . S
C567 H582 0.961 . S
C567 H583 0.961 . S
C568 C569 1.370 . S
C568 C570 1.363 . S
C568 H584 0.931 . S
C569 C568 1.370 . S
C569 C573 1.408 . S
C570 C568 1.363 . S
C570 C571 1.370 . S
C570 C574 1.524 . S
C571 C563 1.503 . S
C571 C570 1.370 . S
C571 C572 1.403 . S
C572 C571 1.403 . S
C572 C573 1.404 . S
C572 C575 1.539 . S
C573 C569 1.408 . S
C573 C572 1.404 . S
C573 H585 0.930 . S
C574 C570 1.524 . S
C574 H586 0.956 . S
C574 H587 0.961 . S
C574 H588 0.961 . S
C575 C572 1.539 . S
C575 H589 0.958 . S
C575 H590 0.961 . S
C575 H591 0.960 . S
H576 C560 0.931 . S
H577 C565 0.929 . S
H578 C566 0.960 . S
H579 C566 0.962 . S
H580 C566 0.960 . S
H581 C567 0.961 . S
H582 C567 0.961 . S
H583 C567 0.961 . S
H584 C568 0.931 . S
H585 C573 0.930 . S
H586 C574 0.956 . S
H587 C574 0.961 . S
H588 C574 0.961 . S
H589 C575 0.958 . S
H590 C575 0.961 . S
H591 C575 0.960 . S
C592 C593 1.391 . S
C592 C594 1.394 . S
C592 H608 0.931 . S
C593 C592 1.391 . S
C593 C597 1.376 . S
C594 C592 1.394 . S
C594 C595 1.369 . S
C594 C598 1.531 . S
C595 C594 1.369 . S
C595 C596 1.410 . S
C595 C603 1.503 . S
C596 C595 1.410 . S
C596 C597 1.392 . S
C596 C599 1.511 . S
C597 C593 1.376 . S
C597 C596 1.392 . S
C597 H609 0.929 . S
C598 C594 1.531 . S
C598 H610 0.960 . S
C598 H611 0.962 . S
C598 H612 0.960 . S
C599 C596 1.511 . S
C599 H613 0.961 . S
C599 H614 0.961 . S
C599 H615 0.961 . S
C600 C601 1.370 . S
C600 C602 1.363 . S
C600 H616 0.931 . S
C601 C600 1.370 . S
C601 C605 1.408 . S
C602 C600 1.363 . S
C602 C603 1.370 . S
C602 C606 1.524 . S
C603 C595 1.503 . S
C603 C602 1.370 . S
C603 C604 1.403 . S
C604 C603 1.403 . S
C604 C605 1.404 . S
C604 C607 1.539 . S
C605 C601 1.408 . S
C605 C604 1.404 . S
C605 H617 0.930 . S
C606 C602 1.524 . S
C606 H618 0.956 . S
C606 H619 0.961 . S
C606 H620 0.961 . S
C607 C604 1.539 . S
C607 H621 0.958 . S
C607 H622 0.961 . S
C607 H623 0.960 . S
H608 C592 0.931 . S
H609 C597 0.929 . S
H610 C598 0.960 . S
H611 C598 0.962 . S
H612 C598 0.960 . S
H613 C599 0.961 . S
H614 C599 0.961 . S
H615 C599 0.961 . S
H616 C600 0.931 . S
H617 C605 0.930 . S
H618 C606 0.956 . S
H619 C606 0.961 . S
H620 C606 0.961 . S
H621 C607 0.958 . S
H622 C607 0.961 . S
H623 C607 0.960 . S
C624 C625 1.391 . S
C624 C626 1.394 . S
C624 H640 0.931 . S
C625 C624 1.391 . S
C625 C629 1.376 . S
C626 C624 1.394 . S
C626 C627 1.369 . S
C626 C630 1.531 . S
C627 C626 1.369 . S
C627 C628 1.410 . S
C627 C635 1.503 . S
C628 C627 1.410 . S
C628 C629 1.392 . S
C628 C631 1.511 . S
C629 C625 1.376 . S
C629 C628 1.392 . S
C629 H641 0.929 . S
C630 C626 1.531 . S
C630 H642 0.960 . S
C630 H643 0.962 . S
C630 H644 0.960 . S
C631 C628 1.511 . S
C631 H645 0.961 . S
C631 H646 0.961 . S
C631 H647 0.961 . S
C632 C633 1.370 . S
C632 C634 1.363 . S
C632 H648 0.931 . S
C633 C632 1.370 . S
C633 C637 1.408 . S
C634 C632 1.363 . S
C634 C635 1.370 . S
C634 C638 1.524 . S
C635 C627 1.503 . S
C635 C634 1.370 . S
C635 C636 1.403 . S
C636 C635 1.403 . S
C636 C637 1.404 . S
C636 C639 1.539 . S
C637 C633 1.408 . S
C637 C636 1.404 . S
C637 H649 0.930 . S
C638 C634 1.524 . S
C638 H650 0.956 . S
C638 H651 0.961 . S
C638 H652 0.961 . S
C639 C636 1.539 . S
C639 H653 0.958 . S
C639 H654 0.961 . S
C639 H655 0.960 . S
H640 C624 0.931 . S
H641 C629 0.929 . S
H642 C630 0.960 . S
H643 C630 0.962 . S
H644 C630 0.960 . S
H645 C631 0.961 . S
H646 C631 0.961 . S
H647 C631 0.961 . S
H648 C632 0.931 . S
H649 C637 0.930 . S
H650 C638 0.956 . S
H651 C638 0.961 . S
H652 C638 0.961 . S
H653 C639 0.958 . S
H654 C639 0.961 . S
H655 C639 0.960 . S
C656 C657 1.391 . S
C656 C658 1.394 . S
C656 H672 0.931 . S
C657 C656 1.391 . S
C657 C661 1.376 . S
C658 C656 1.394 . S
C658 C659 1.369 . S
C658 C662 1.531 . S
C659 C658 1.369 . S
C659 C660 1.410 . S
C659 C667 1.503 . S
C660 C659 1.410 . S
C660 C661 1.392 . S
C660 C663 1.511 . S
C661 C657 1.376 . S
C661 C660 1.392 . S
C661 H673 0.929 . S
C662 C658 1.531 . S
C662 H674 0.960 . S
C662 H675 0.962 . S
C662 H676 0.960 . S
C663 C660 1.511 . S
C663 H677 0.961 . S
C663 H678 0.961 . S
C663 H679 0.961 . S
C664 C665 1.370 . S
C664 C666 1.363 . S
C664 H680 0.931 . S
C665 C664 1.370 . S
C665 C669 1.408 . S
C666 C664 1.363 . S
C666 C667 1.370 . S
C666 C670 1.524 . S
C667 C659 1.503 . S
C667 C666 1.370 . S
C667 C668 1.403 . S
C668 C667 1.403 . S
C668 C669 1.404 . S
C668 C671 1.539 . S
C669 C665 1.408 . S
C669 C668 1.404 . S
C669 H681 0.930 . S
C670 C666 1.524 . S
C670 H682 0.956 . S
C670 H683 0.961 . S
C670 H684 0.961 . S
C671 C668 1.539 . S
C671 H685 0.958 . S
C671 H686 0.961 . S
C671 H687 0.960 . S
H672 C656 0.931 . S
H673 C661 0.929 . S
H674 C662 0.960 . S
H675 C662 0.962 . S
H676 C662 0.960 . S
H677 C663 0.961 . S
H678 C663 0.961 . S
H679 C663 0.961 . S
H680 C664 0.931 . S
H681 C669 0.930 . S
H682 C670 0.956 . S
H683 C670 0.961 . S
H684 C670 0.961 . S
H685 C671 0.958 . S
H686 C671 0.961 . S
H687 C671 0.960 . S
C688 C689 1.391 . S
C688 C690 1.394 . S
C688 H704 0.931 . S
C689 C688 1.391 . S
C689 C693 1.376 . S
C690 C688 1.394 . S
C690 C691 1.369 . S
C690 C694 1.531 . S
C691 C690 1.369 . S
C691 C692 1.410 . S
C691 C699 1.503 . S
C692 C691 1.410 . S
C692 C693 1.392 . S
C692 C695 1.511 . S
C693 C689 1.376 . S
C693 C692 1.392 . S
C693 H705 0.929 . S
C694 C690 1.531 . S
C694 H706 0.960 . S
C694 H707 0.962 . S
C694 H708 0.960 . S
C695 C692 1.511 . S
C695 H709 0.961 . S
C695 H710 0.961 . S
C695 H711 0.961 . S
C696 C697 1.370 . S
C696 C698 1.363 . S
C696 H712 0.931 . S
C697 C696 1.370 . S
C697 C701 1.408 . S
C698 C696 1.363 . S
C698 C699 1.370 . S
C698 C702 1.524 . S
C699 C691 1.503 . S
C699 C698 1.370 . S
C699 C700 1.403 . S
C700 C699 1.403 . S
C700 C701 1.404 . S
C700 C703 1.539 . S
C701 C697 1.408 . S
C701 C700 1.404 . S
C701 H713 0.930 . S
C702 C698 1.524 . S
C702 H714 0.956 . S
C702 H715 0.961 . S
C702 H716 0.961 . S
C703 C700 1.539 . S
C703 H717 0.958 . S
C703 H718 0.961 . S
C703 H719 0.960 . S
H704 C688 0.931 . S
H705 C693 0.929 . S
H706 C694 0.960 . S
H707 C694 0.962 . S
H708 C694 0.960 . S
H709 C695 0.961 . S
H710 C695 0.961 . S
H711 C695 0.961 . S
H712 C696 0.931 . S
H713 C701 0.930 . S
H714 C702 0.956 . S
H715 C702 0.961 . S
H716 C702 0.961 . S
H717 C703 0.958 . S
H718 C703 0.961 . S
H719 C703 0.960 . S
C720 C721 1.391 . S
C720 C722 1.394 . S
C720 H736 0.931 . S
C721 C720 1.391 . S
C721 C725 1.376 . S
C722 C720 1.394 . S
C722 C723 1.369 . S
C722 C726 1.531 . S
C723 C722 1.369 . S
C723 C724 1.410 . S
C723 C731 1.503 . S
C724 C723 1.410 . S
C724 C725 1.392 . S
C724 C727 1.511 . S
C725 C721 1.376 . S
C725 C724 1.392 . S
C725 H737 0.929 . S
C726 C722 1.531 . S
C726 H738 0.960 . S
C726 H739 0.962 . S
C726 H740 0.960 . S
C727 C724 1.511 . S
C727 H741 0.961 . S
C727 H742 0.961 . S
C727 H743 0.961 . S
C728 C729 1.370 . S
C728 C730 1.363 . S
C728 H744 0.931 . S
C729 C728 1.370 . S
C729 C733 1.408 . S
C730 C728 1.363 . S
C730 C731 1.370 . S
C730 C734 1.524 . S
C731 C723 1.503 . S
C731 C730 1.370 . S
C731 C732 1.403 . S
C732 C731 1.403 . S
C732 C733 1.404 . S
C732 C735 1.539 . S
C733 C729 1.408 . S
C733 C732 1.404 . S
C733 H745 0.930 . S
C734 C730 1.524 . S
C734 H746 0.956 . S
C734 H747 0.961 . S
C734 H748 0.961 . S
C735 C732 1.539 . S
C735 H749 0.958 . S
C735 H750 0.961 . S
C735 H751 0.960 . S
H736 C720 0.931 . S
H737 C725 0.929 . S
H738 C726 0.960 . S
H739 C726 0.962 . S
H740 C726 0.960 . S
H741 C727 0.961 . S
H742 C727 0.961 . S
H743 C727 0.961 . S
H744 C728 0.931 . S
H745 C733 0.930 . S
H746 C734 0.956 . S
H747 C734 0.961 . S
H748 C734 0.961 . S
H749 C735 0.958 . S
H750 C735 0.961 . S
H751 C735 0.960 . S
C752 C753 1.391 . S
C752 C754 1.394 . S
C752 H768 0.931 . S
C753 C752 1.391 . S
C753 C757 1.376 . S
C754 C752 1.394 . S
C754 C755 1.369 . S
C754 C758 1.531 . S
C755 C754 1.369 . S
C755 C756 1.410 . S
C755 C763 1.503 . S
C756 C755 1.410 . S
C756 C757 1.392 . S
C756 C759 1.511 . S
C757 C753 1.376 . S
C757 C756 1.392 . S
C757 H769 0.929 . S
C758 C754 1.531 . S
C758 H770 0.960 . S
C758 H771 0.962 . S
C758 H772 0.960 . S
C759 C756 1.511 . S
C759 H773 0.961 . S
C759 H774 0.961 . S
C759 H775 0.961 . S
C760 C761 1.370 . S
C760 C762 1.363 . S
C760 H776 0.931 . S
C761 C760 1.370 . S
C761 C765 1.408 . S
C762 C760 1.363 . S
C762 C763 1.370 . S
C762 C766 1.524 . S
C763 C755 1.503 . S
C763 C762 1.370 . S
C763 C764 1.403 . S
C764 C763 1.403 . S
C764 C765 1.404 . S
C764 C767 1.539 . S
C765 C761 1.408 . S
C765 C764 1.404 . S
C765 H777 0.930 . S
C766 C762 1.524 . S
C766 H778 0.956 . S
C766 H779 0.961 . S
C766 H780 0.961 . S
C767 C764 1.539 . S
C767 H781 0.958 . S
C767 H782 0.961 . S
C767 H783 0.960 . S
H768 C752 0.931 . S
H769 C757 0.929 . S
H770 C758 0.960 . S
H771 C758 0.962 . S
H772 C758 0.960 . S
H773 C759 0.961 . S
H774 C759 0.961 . S
H775 C759 0.961 . S
H776 C760 0.931 . S
H777 C765 0.930 . S
H778 C766 0.956 . S
H779 C766 0.961 . S
H780 C766 0.961 . S
H781 C767 0.958 . S
H782 C767 0.961 . S
H783 C767 0.960 . S
C784 C785 1.391 . S
C784 C786 1.394 . S
C784 H800 0.931 . S
C785 C784 1.391 . S
C785 C789 1.376 . S
C786 C784 1.394 . S
C786 C787 1.369 . S
C786 C790 1.531 . S
C787 C786 1.369 . S
C787 C788 1.410 . S
C787 C795 1.503 . S
C788 C787 1.410 . S
C788 C789 1.392 . S
C788 C791 1.511 . S
C789 C785 1.376 . S
C789 C788 1.392 . S
C789 H801 0.929 . S
C790 C786 1.531 . S
C790 H802 0.960 . S
C790 H803 0.962 . S
C790 H804 0.960 . S
C791 C788 1.511 . S
C791 H805 0.961 . S
C791 H806 0.961 . S
C791 H807 0.961 . S
C792 C793 1.370 . S
C792 C794 1.363 . S
C792 H808 0.931 . S
C793 C792 1.370 . S
C793 C797 1.408 . S
C794 C792 1.363 . S
C794 C795 1.370 . S
C794 C798 1.524 . S
C795 C787 1.503 . S
C795 C794 1.370 . S
C795 C796 1.403 . S
C796 C795 1.403 . S
C796 C797 1.404 . S
C796 C799 1.539 . S
C797 C793 1.408 . S
C797 C796 1.404 . S
C797 H809 0.930 . S
C798 C794 1.524 . S
C798 H810 0.956 . S
C798 H811 0.961 . S
C798 H812 0.961 . S
C799 C796 1.539 . S
C799 H813 0.958 . S
C799 H814 0.961 . S
C799 H815 0.960 . S
H800 C784 0.931 . S
H801 C789 0.929 . S
H802 C790 0.960 . S
H803 C790 0.962 . S
H804 C790 0.960 . S
H805 C791 0.961 . S
H806 C791 0.961 . S
H807 C791 0.961 . S
H808 C792 0.931 . S
H809 C797 0.930 . S
H810 C798 0.956 . S
H811 C798 0.961 . S
H812 C798 0.961 . S
H813 C799 0.958 . S
H814 C799 0.961 . S
H815 C799 0.960 . S
C816 C817 1.391 . S
C816 C818 1.394 . S
C816 H832 0.931 . S
C817 C816 1.391 . S
C817 C821 1.376 . S
C818 C816 1.394 . S
C818 C819 1.369 . S
C818 C822 1.531 . S
C819 C818 1.369 . S
C819 C820 1.410 . S
C819 C827 1.503 . S
C820 C819 1.410 . S
C820 C821 1.392 . S
C820 C823 1.511 . S
C821 C817 1.376 . S
C821 C820 1.392 . S
C821 H833 0.929 . S
C822 C818 1.531 . S
C822 H834 0.960 . S
C822 H835 0.962 . S
C822 H836 0.960 . S
C823 C820 1.511 . S
C823 H837 0.961 . S
C823 H838 0.961 . S
C823 H839 0.961 . S
C824 C825 1.370 . S
C824 C826 1.363 . S
C824 H840 0.931 . S
C825 C824 1.370 . S
C825 C829 1.408 . S
C826 C824 1.363 . S
C826 C827 1.370 . S
C826 C830 1.524 . S
C827 C819 1.503 . S
C827 C826 1.370 . S
C827 C828 1.403 . S
C828 C827 1.403 . S
C828 C829 1.404 . S
C828 C831 1.539 . S
C829 C825 1.408 . S
C829 C828 1.404 . S
C829 H841 0.930 . S
C830 C826 1.524 . S
C830 H842 0.956 . S
C830 H843 0.961 . S
C830 H844 0.961 . S
C831 C828 1.539 . S
C831 H845 0.958 . S
C831 H846 0.961 . S
C831 H847 0.960 . S
H832 C816 0.931 . S
H833 C821 0.929 . S
H834 C822 0.960 . S
H835 C822 0.962 . S
H836 C822 0.960 . S
H837 C823 0.961 . S
H838 C823 0.961 . S
H839 C823 0.961 . S
H840 C824 0.931 . S
H841 C829 0.930 . S
H842 C830 0.956 . S
H843 C830 0.961 . S
H844 C830 0.961 . S
H845 C831 0.958 . S
H846 C831 0.961 . S
H847 C831 0.960 . S
C848 C849 1.391 . S
C848 C850 1.394 . S
C848 H864 0.931 . S
C849 C848 1.391 . S
C849 C853 1.376 . S
C850 C848 1.394 . S
C850 C851 1.369 . S
C850 C854 1.531 . S
C851 C850 1.369 . S
C851 C852 1.410 . S
C851 C859 1.503 . S
C852 C851 1.410 . S
C852 C853 1.392 . S
C852 C855 1.511 . S
C853 C849 1.376 . S
C853 C852 1.392 . S
C853 H865 0.929 . S
C854 C850 1.531 . S
C854 H866 0.960 . S
C854 H867 0.962 . S
C854 H868 0.960 . S
C855 C852 1.511 . S
C855 H869 0.961 . S
C855 H870 0.961 . S
C855 H871 0.961 . S
C856 C857 1.370 . S
C856 C858 1.363 . S
C856 H872 0.931 . S
C857 C856 1.370 . S
C857 C861 1.408 . S
C858 C856 1.363 . S
C858 C859 1.370 . S
C858 C862 1.524 . S
C859 C851 1.503 . S
C859 C858 1.370 . S
C859 C860 1.403 . S
C860 C859 1.403 . S
C860 C861 1.404 . S
C860 C863 1.539 . S
C861 C857 1.408 . S
C861 C860 1.404 . S
C861 H873 0.930 . S
C862 C858 1.524 . S
C862 H874 0.956 . S
C862 H875 0.961 . S
C862 H876 0.961 . S
C863 C860 1.539 . S
C863 H877 0.958 . S
C863 H878 0.961 . S
C863 H879 0.960 . S
H864 C848 0.931 . S
H865 C853 0.929 . S
H866 C854 0.960 . S
H867 C854 0.962 . S
H868 C854 0.960 . S
H869 C855 0.961 . S
H870 C855 0.961 . S
H871 C855 0.961 . S
H872 C856 0.931 . S
H873 C861 0.930 . S
H874 C862 0.956 . S
H875 C862 0.961 . S
H876 C862 0.961 . S
H877 C863 0.958 . S
H878 C863 0.961 . S
H879 C863 0.960 . S
C880 C881 1.391 . S
C880 C882 1.394 . S
C880 H896 0.931 . S
C881 C880 1.391 . S
C881 C885 1.376 . S
C882 C880 1.394 . S
C882 C883 1.369 . S
C882 C886 1.531 . S
C883 C882 1.369 . S
C883 C884 1.410 . S
C883 C891 1.503 . S
C884 C883 1.410 . S
C884 C885 1.392 . S
C884 C887 1.511 . S
C885 C881 1.376 . S
C885 C884 1.392 . S
C885 H897 0.929 . S
C886 C882 1.531 . S
C886 H898 0.960 . S
C886 H899 0.962 . S
C886 H900 0.960 . S
C887 C884 1.511 . S
C887 H901 0.961 . S
C887 H902 0.961 . S
C887 H903 0.961 . S
C888 C889 1.370 . S
C888 C890 1.363 . S
C888 H904 0.931 . S
C889 C888 1.370 . S
C889 C893 1.408 . S
C890 C888 1.363 . S
C890 C891 1.370 . S
C890 C894 1.524 . S
C891 C883 1.503 . S
C891 C890 1.370 . S
C891 C892 1.403 . S
C892 C891 1.403 . S
C892 C893 1.404 . S
C892 C895 1.539 . S
C893 C889 1.408 . S
C893 C892 1.404 . S
C893 H905 0.930 . S
C894 C890 1.524 . S
C894 H906 0.956 . S
C894 H907 0.961 . S
C894 H908 0.961 . S
C895 C892 1.539 . S
C895 H909 0.958 . S
C895 H910 0.961 . S
C895 H911 0.960 . S
H896 C880 0.931 . S
H897 C885 0.929 . S
H898 C886 0.960 . S
H899 C886 0.962 . S
H900 C886 0.960 . S
H901 C887 0.961 . S
H902 C887 0.961 . S
H903 C887 0.961 . S
H904 C888 0.931 . S
H905 C893 0.930 . S
H906 C894 0.956 . S
H907 C894 0.961 . S
H908 C894 0.961 . S
H909 C895 0.958 . S
H910 C895 0.961 . S
H911 C895 0.960 . S
C912 C913 1.391 . S
C912 C914 1.394 . S
C912 H928 0.931 . S
C913 C912 1.391 . S
C913 C917 1.376 . S
C914 C912 1.394 . S
C914 C915 1.369 . S
C914 C918 1.531 . S
C915 C914 1.369 . S
C915 C916 1.410 . S
C915 C923 1.503 . S
C916 C915 1.410 . S
C916 C917 1.392 . S
C916 C919 1.511 . S
C917 C913 1.376 . S
C917 C916 1.392 . S
C917 H929 0.929 . S
C918 C914 1.531 . S
C918 H930 0.960 . S
C918 H931 0.962 . S
C918 H932 0.960 . S
C919 C916 1.511 . S
C919 H933 0.961 . S
C919 H934 0.961 . S
C919 H935 0.961 . S
C920 C921 1.370 . S
C920 C922 1.363 . S
C920 H936 0.931 . S
C921 C920 1.370 . S
C921 C925 1.408 . S
C922 C920 1.363 . S
C922 C923 1.370 . S
C922 C926 1.524 . S
C923 C915 1.503 . S
C923 C922 1.370 . S
C923 C924 1.403 . S
C924 C923 1.403 . S
C924 C925 1.404 . S
C924 C927 1.539 . S
C925 C921 1.408 . S
C925 C924 1.404 . S
C925 H937 0.930 . S
C926 C922 1.524 . S
C926 H938 0.956 . S
C926 H939 0.961 . S
C926 H940 0.961 . S
C927 C924 1.539 . S
C927 H941 0.958 . S
C927 H942 0.961 . S
C927 H943 0.960 . S
H928 C912 0.931 . S
H929 C917 0.929 . S
H930 C918 0.960 . S
H931 C918 0.962 . S
H932 C918 0.960 . S
H933 C919 0.961 . S
H934 C919 0.961 . S
H935 C919 0.961 . S
H936 C920 0.931 . S
H937 C925 0.930 . S
H938 C926 0.956 . S
H939 C926 0.961 . S
H940 C926 0.961 . S
H941 C927 0.958 . S
H942 C927 0.961 . S
H943 C927 0.960 . S
C177 C6 1.466 . S
C185 C98 1.489 . S
C209 C18 1.594 . S
C217 C117 1.580 . S
C249 C154 1.801 . S
C241 C28 1.826 . S
C273 C40 1.194 . S
C281 C164 1.149 . S
C313 C134 2.058 . S
C305 C9 2.014 . S
C345 C104 1.432 . S
C337 C16 1.487 . S
C377 C175 1.501 . S
C369 C30 1.522 . S
C409 C145 1.093 . S
C401 C42 1.130 . S
C433 C4 1.579 . S
C441 C158 1.607 . S
C473 C125 1.820 . S
C465 C33 1.878 . S
C497 C45 1.549 . S
C505 C115 1.548 . S
C529 C21 1.402 . S
C537 C137 1.410 . S
C569 C97 1.502 . S
C561 C57 1.521 . S
C593 C66 1.599 . S
C601 C118 1.554 . S
C625 C76 1.861 . S
C633 C155 1.831 . S
C657 C88 1.110 . S
C665 C165 1.119 . S
C689 C54 1.978 . S
C697 C135 2.026 . S
C729 C105 1.502 . S
C721 C64 1.530 . S
C761 C174 1.404 . S
C753 C78 1.427 . S
C793 C144 1.138 . S
C785 C93 1.154 . S
C817 C52 1.557 . S
C825 C157 1.586 . S
C857 C124 1.804 . S
C849 C81 1.879 . S
C889 C114 1.530 . S
C881 C90 1.534 . S
C913 C69 1.456 . S
C921 C138 1.447 . S
