# Generated by pormake.
# Topology dag, (6,3)-cn, num edge types: 1
# Building blocks:
#     Node 0, Type 0, BuildingBlock: OJICUG_clean_sbu_0, # of connection points: 6
#     Node 1, Type 0, BuildingBlock: OJICUG_clean_sbu_0, # of connection points: 6
#     Node 2, Type 0, BuildingBlock: OJICUG_clean_sbu_0, # of connection points: 6
#     Node 3, Type 0, BuildingBlock: OJICUG_clean_sbu_0, # of connection points: 6
#     Node 4, Type 1, BuildingBlock: PAMTOO_clean_linker_0, # of connection points: 3
#     Node 5, Type 1, BuildingBlock: PAMTOO_clean_linker_0, # of connection points: 3
#     Node 6, Type 1, BuildingBlock: PAMTOO_clean_linker_0, # of connection points: 3
#     Node 7, Type 1, BuildingBlock: PAMTOO_clean_linker_0, # of connection points: 3
#     Node 8, Type 1, BuildingBlock: PAMTOO_clean_linker_0, # of connection points: 3
#     Node 9, Type 1, BuildingBlock: PAMTOO_clean_linker_0, # of connection points: 3
#     Node 10, Type 1, BuildingBlock: PAMTOO_clean_linker_0, # of connection points: 3
#     Node 11, Type 1, BuildingBlock: PAMTOO_clean_linker_0, # of connection points: 3
#     Edge 12, Type (0, 1), BuildingBlock: CIFDUS_clean_linker_0, # of connection points: 2
#     Edge 13, Type (0, 1), BuildingBlock: CIFDUS_clean_linker_0, # of connection points: 2
#     Edge 14, Type (0, 1), BuildingBlock: CIFDUS_clean_linker_0, # of connection points: 2
#     Edge 15, Type (0, 1), BuildingBlock: CIFDUS_clean_linker_0, # of connection points: 2
#     Edge 16, Type (0, 1), BuildingBlock: CIFDUS_clean_linker_0, # of connection points: 2
#     Edge 17, Type (0, 1), BuildingBlock: CIFDUS_clean_linker_0, # of connection points: 2
#     Edge 18, Type (0, 1), BuildingBlock: CIFDUS_clean_linker_0, # of connection points: 2
#     Edge 19, Type (0, 1), BuildingBlock: CIFDUS_clean_linker_0, # of connection points: 2
#     Edge 20, Type (0, 1), BuildingBlock: CIFDUS_clean_linker_0, # of connection points: 2
#     Edge 21, Type (0, 1), BuildingBlock: CIFDUS_clean_linker_0, # of connection points: 2
#     Edge 22, Type (0, 1), BuildingBlock: CIFDUS_clean_linker_0, # of connection points: 2
#     Edge 23, Type (0, 1), BuildingBlock: CIFDUS_clean_linker_0, # of connection points: 2
#     Edge 24, Type (0, 1), BuildingBlock: CIFDUS_clean_linker_0, # of connection points: 2
#     Edge 25, Type (0, 1), BuildingBlock: CIFDUS_clean_linker_0, # of connection points: 2
#     Edge 26, Type (0, 1), BuildingBlock: CIFDUS_clean_linker_0, # of connection points: 2
#     Edge 27, Type (0, 1), BuildingBlock: CIFDUS_clean_linker_0, # of connection points: 2
#     Edge 28, Type (0, 1), BuildingBlock: CIFDUS_clean_linker_0, # of connection points: 2
#     Edge 29, Type (0, 1), BuildingBlock: CIFDUS_clean_linker_0, # of connection points: 2
#     Edge 30, Type (0, 1), BuildingBlock: CIFDUS_clean_linker_0, # of connection points: 2
#     Edge 31, Type (0, 1), BuildingBlock: CIFDUS_clean_linker_0, # of connection points: 2
#     Edge 32, Type (0, 1), BuildingBlock: CIFDUS_clean_linker_0, # of connection points: 2
#     Edge 33, Type (0, 1), BuildingBlock: CIFDUS_clean_linker_0, # of connection points: 2
#     Edge 34, Type (0, 1), BuildingBlock: CIFDUS_clean_linker_0, # of connection points: 2
#     Edge 35, Type (0, 1), BuildingBlock: CIFDUS_clean_linker_0, # of connection points: 2
# Relax obj value: 0.095
# Max RMSD: 0.119
# Mean RMSD: 0.095
data_MOF--net-dag--node1-OJICUG_clean_sbu_0--node2-PAMTOO_clean_linker_0--edge1-CIFDUS_clean_linker_0
_symmetry_space_group_name_H-M    P1
_symmetry_Int_Tables_number       1
_symmetry_cell_setting            triclinic
loop_
_symmetry_equiv_pos_as_xyz
'x, y, z'
_cell_length_a     32.762469
_cell_length_b     33.820615
_cell_length_c     34.446725
_cell_angle_alpha  90.023184
_cell_angle_beta   94.497744
_cell_angle_gamma 90.053072
loop_
_atom_site_label
_atom_site_type_symbol
_atom_site_fract_x
_atom_site_fract_y
_atom_site_fract_z
_atom_type_partial_charge
Sc0 Sc 0.12269 0.88145 0.99053 0.0
Sc1 Sc 0.15629 0.78481 0.97633 0.0
Sc2 Sc 0.22604 0.85847 0.01434 0.0
O3 O 0.16853 0.84151 0.99377 0.0
C4 C 0.19728 0.93514 0.96702 0.0
C5 C 0.10275 0.8354 0.91199 0.0
C6 C 0.24149 0.80331 0.94115 0.0
C7 C 0.07703 0.80396 0.01862 0.0
C8 C 0.169 0.90055 0.07317 0.0
C9 C 0.22098 0.77169 0.04992 0.0
O10 O 0.15958 0.92781 0.96917 0.0
O11 O 0.11642 0.80242 0.92536 0.0
O12 O 0.25268 0.82968 0.96626 0.0
O13 O 0.07857 0.84049 0.01039 0.0
O14 O 0.20408 0.88906 0.06415 0.0
O15 O 0.19353 0.7595 0.02458 0.0
O16 O 0.13681 0.89854 0.05006 0.0
O17 O 0.10479 0.77951 0.01133 0.0
O18 O 0.23473 0.80681 0.05025 0.0
O19 O 0.10561 0.86735 0.93125 0.0
O20 O 0.22554 0.91276 0.98151 0.0
O21 O 0.20733 0.78523 0.94069 0.0
Sc22 Sc 0.71501 0.65649 0.49231 0.0
Sc23 Sc 0.63854 0.72976 0.47218 0.0
Sc24 Sc 0.6111 0.63094 0.48281 0.0
O25 O 0.65514 0.67247 0.48247 0.0
C26 C 0.68144 0.58115 0.44576 0.0
C27 C 0.71451 0.71732 0.42075 0.0
C28 C 0.57719 0.68135 0.41172 0.0
C29 C 0.71435 0.73972 0.53614 0.0
C30 C 0.66995 0.60927 0.55741 0.0
C31 C 0.56811 0.70418 0.5225 0.0
O32 O 0.7105 0.60458 0.45601 0.0
O33 O 0.68128 0.73427 0.42815 0.0
O34 O 0.5859 0.64779 0.42648 0.0
O35 O 0.72871 0.70556 0.53052 0.0
O36 O 0.63455 0.61194 0.53953 0.0
O37 O 0.59474 0.72992 0.51555 0.0
O38 O 0.70261 0.62172 0.54345 0.0
O39 O 0.68267 0.75296 0.51669 0.0
O40 O 0.56891 0.66892 0.50992 0.0
O41 O 0.73098 0.68958 0.44167 0.0
O42 O 0.6451 0.58659 0.45471 0.0
O43 O 0.59054 0.71384 0.42682 0.0
Sc44 Sc 0.84242 0.21257 0.06367 0.0
Sc45 Sc 0.76998 0.14229 0.02436 0.0
Sc46 Sc 0.87283 0.11534 0.046 0.0
O47 O 0.82831 0.15672 0.04469 0.0
C48 C 0.91949 0.19212 0.01783 0.0
C49 C 0.77985 0.22862 0.98932 0.0
C50 C 0.82294 0.09553 0.9651 0.0
C51 C 0.7568 0.19717 0.09853 0.0
C52 C 0.8973 0.16035 0.12503 0.0
C53 C 0.79686 0.06518 0.07236 0.0
O54 O 0.89365 0.2172 0.02824 0.0
O55 O 0.7649 0.19389 0.9873 0.0
O56 O 0.85601 0.09697 0.98703 0.0
O57 O 0.79216 0.21298 0.10021 0.0
O58 O 0.89401 0.12904 0.10474 0.0
O59 O 0.76899 0.08837 0.05822 0.0
O60 O 0.88224 0.1933 0.11334 0.0
O61 O 0.74427 0.17277 0.072 0.0
O62 O 0.83473 0.07104 0.06919 0.0
O63 O 0.8059 0.23951 0.01646 0.0
O64 O 0.91668 0.15519 0.02388 0.0
O65 O 0.78924 0.10952 0.97503 0.0
Sc66 Sc 0.39162 0.37378 0.56087 0.0
Sc67 Sc 0.28904 0.34512 0.54155 0.0
Sc68 Sc 0.3638 0.2766 0.57959 0.0
O69 O 0.34796 0.3318 0.56041 0.0
C70 C 0.43732 0.29711 0.53031 0.0
C71 C 0.34028 0.39078 0.48009 0.0
C72 C 0.29534 0.25708 0.51057 0.0
C73 C 0.31586 0.42409 0.58661 0.0
C74 C 0.42119 0.33004 0.63811 0.0
C75 C 0.28169 0.29427 0.61971 0.0
O76 O 0.43544 0.33369 0.53869 0.0
O77 O 0.30673 0.37624 0.49016 0.0
O78 O 0.32317 0.24752 0.53657 0.0
O79 O 0.35378 0.41844 0.58379 0.0
O80 O 0.40837 0.29651 0.62564 0.0
O81 O 0.26679 0.31645 0.59212 0.0
O82 O 0.41342 0.36178 0.61953 0.0
O83 O 0.28837 0.40028 0.57303 0.0
O84 O 0.31716 0.27871 0.62017 0.0
O85 O 0.37331 0.39053 0.50211 0.0
O86 O 0.41108 0.27182 0.53965 0.0
O87 O 0.28131 0.292 0.50711 0.0
H88 H 0.08247 0.04443 0.21479 0.0
H89 H 0.09505 0.1342 0.30313 0.0
H90 H 0.19823 0.06146 0.28092 0.0
H91 H 0.19226 0.08035 0.36561 0.0
C92 C 0.17402 0.10801 0.36181 0.0
O93 O 0.17218 0.11928 0.32324 0.0
H94 H 0.14272 0.10197 0.37086 0.0
C95 C 0.10091 0.05893 0.23815 0.0
C96 C 0.14225 0.04841 0.24559 0.0
C97 C 0.08348 0.08954 0.25876 0.0
C98 C 0.10789 0.11019 0.28719 0.0
C99 C 0.14903 0.09959 0.29544 0.0
C100 C 0.16627 0.069 0.27454 0.0
H101 H 0.36128 0.63469 0.61105 0.0
H102 H 0.30861 0.6525 0.71989 0.0
H103 H 0.37642 0.74638 0.67069 0.0
H104 H 0.3853 0.74762 0.75977 0.0
C105 C 0.36091 0.72514 0.76248 0.0
O106 O 0.33477 0.72551 0.72906 0.0
H107 H 0.37595 0.69577 0.76686 0.0
C108 C 0.35434 0.65435 0.63454 0.0
C109 C 0.37098 0.69265 0.63651 0.0
C110 C 0.33197 0.63966 0.66439 0.0
C111 C 0.32512 0.66385 0.69622 0.0
C112 C 0.34079 0.70247 0.69807 0.0
C113 C 0.3637 0.7168 0.66839 0.0
H114 H 0.86026 0.86288 0.10139 0.0
H115 H 0.80513 0.83687 0.20743 0.0
H116 H 0.88323 0.75101 0.1589 0.0
H117 H 0.82073 0.71012 0.20099 0.0
C118 C 0.80849 0.73702 0.21455 0.0
O119 O 0.83789 0.76628 0.21606 0.0
H120 H 0.78058 0.7464 0.19629 0.0
C121 C 0.85436 0.84189 0.12408 0.0
C122 C 0.87446 0.80517 0.12577 0.0
C123 C 0.82932 0.85351 0.15319 0.0
C124 C 0.82364 0.82787 0.18425 0.0
C125 C 0.84269 0.79071 0.18579 0.0
C126 C 0.86815 0.77951 0.15682 0.0
H127 H 0.60828 0.45574 0.70484 0.0
H128 H 0.63666 0.36698 0.79201 0.0
H129 H 0.7321 0.44191 0.75478 0.0
H130 H 0.76597 0.35749 0.78385 0.0
C131 C 0.73457 0.3498 0.79138 0.0
O132 O 0.71462 0.3839 0.80113 0.0
H133 H 0.71848 0.33528 0.76542 0.0
C134 C 0.63027 0.44177 0.72565 0.0
C135 C 0.67156 0.45343 0.72737 0.0
C136 C 0.61731 0.41069 0.74872 0.0
C137 C 0.64606 0.39119 0.77412 0.0
C138 C 0.68728 0.40263 0.77627 0.0
C139 C 0.70009 0.43351 0.75288 0.0
H140 H 0.62828 0.37147 0.42508 0.0
H141 H 0.62494 0.25438 0.37558 0.0
H142 H 0.68318 0.34963 0.31813 0.0
H143 H 0.62208 0.2974 0.2744 0.0
C144 C 0.63983 0.26988 0.28133 0.0
O145 O 0.66476 0.27407 0.31531 0.0
H146 H 0.61774 0.24549 0.28523 0.0
C147 C 0.63689 0.35072 0.40312 0.0
C148 C 0.65771 0.3648 0.37202 0.0
C149 C 0.62485 0.31097 0.40493 0.0
C150 C 0.6343 0.28509 0.37502 0.0
C151 C 0.65578 0.29897 0.34404 0.0
C152 C 0.6675 0.33883 0.34256 0.0
H153 H 0.1366 0.13757 0.93726 0.0
H154 H 0.11621 0.25056 0.88137 0.0
H155 H 0.19454 0.16471 0.833 0.0
H156 H 0.21624 0.2589 0.85298 0.0
C157 C 0.19353 0.26433 0.8277 0.0
O158 O 0.16322 0.23591 0.82519 0.0
H159 H 0.17945 0.29365 0.83244 0.0
C160 C 0.14327 0.15884 0.91505 0.0
C161 C 0.16874 0.14743 0.88626 0.0
C162 C 0.12371 0.19578 0.91363 0.0
C163 C 0.13099 0.22191 0.88323 0.0
C164 C 0.15707 0.21092 0.85468 0.0
C165 C 0.17555 0.17352 0.85588 0.0
H166 H 0.38073 0.57877 0.3589 0.0
H167 H 0.34706 0.65543 0.26214 0.0
H168 H 0.27581 0.55117 0.28014 0.0
H169 H 0.2778 0.5684 0.19548 0.0
C170 C 0.29121 0.59852 0.19908 0.0
O171 O 0.28401 0.61277 0.23546 0.0
H172 H 0.32469 0.59621 0.19582 0.0
C173 C 0.36066 0.58559 0.33324 0.0
C174 C 0.32757 0.56047 0.32213 0.0
C175 C 0.36768 0.61993 0.31196 0.0
C176 C 0.34173 0.62911 0.27895 0.0
C177 C 0.30877 0.60412 0.2675 0.0
C178 C 0.30142 0.57019 0.28928 0.0
H179 H 0.92878 0.93222 0.82738 0.0
H180 H 0.88452 0.85231 0.73666 0.0
H181 H 0.81792 0.959 0.75671 0.0
H182 H 0.76234 0.89592 0.73172 0.0
C183 C 0.78466 0.87501 0.72025 0.0
O184 O 0.82015 0.89517 0.71386 0.0
H185 H 0.79097 0.85136 0.74242 0.0
C186 C 0.90665 0.92526 0.80325 0.0
C187 C 0.87307 0.95038 0.79463 0.0
C188 C 0.91116 0.89005 0.78254 0.0
C189 C 0.8816 0.87962 0.75266 0.0
C190 C 0.84822 0.90479 0.74321 0.0
C191 C 0.84398 0.94001 0.76414 0.0
H192 H 0.21975 0.95316 0.11277 0.0
H193 H 0.10774 0.88733 0.11953 0.0
H194 H 0.09341 0.92311 0.17846 0.0
H195 H 0.108 0.97843 0.22273 0.0
H196 H 0.21577 0.04976 0.2124 0.0
H197 H 0.23732 0.00585 0.16133 0.0
C198 C 0.19274 0.94619 0.12775 0.0
C199 C 0.16468 0.91791 0.11188 0.0
C200 C 0.18388 0.96801 0.16088 0.0
C201 C 0.12954 0.90926 0.13116 0.0
C202 C 0.12133 0.92969 0.1648 0.0
C203 C 0.13641 0.98421 0.20952 0.0
C204 C 0.15984 0.01771 0.22087 0.0
C205 C 0.14752 0.96003 0.17907 0.0
C206 C 0.19713 0.02417 0.20425 0.0
C207 C 0.20925 0.99929 0.17473 0.0
H208 H 0.48845 0.69264 0.50253 0.0
H209 H 0.57205 0.73947 0.59389 0.0
H210 H 0.5158 0.74583 0.6366 0.0
H211 H 0.44519 0.72841 0.65033 0.0
H212 H 0.36182 0.68276 0.55777 0.0
H213 H 0.41555 0.68623 0.5127 0.0
C214 C 0.49404 0.70492 0.53159 0.0
C215 C 0.53403 0.71505 0.54554 0.0
C216 C 0.46175 0.70845 0.55565 0.0
C217 C 0.54128 0.73145 0.58284 0.0
C218 C 0.50923 0.73487 0.6072 0.0
C219 C 0.4384 0.72047 0.62 0.0
C220 C 0.39984 0.70459 0.60756 0.0
C221 C 0.4696 0.72219 0.59431 0.0
C222 C 0.39155 0.6943 0.56818 0.0
C223 C 0.42223 0.6962 0.54243 0.0
H224 H 0.82744 0.03612 0.14137 0.0
H225 H 0.74295 0.00994 0.04253 0.0
H226 H 0.73988 0.94068 0.063 0.0
H227 H 0.77186 0.88602 0.10219 0.0
H228 H 0.85552 0.91276 0.20146 0.0
H229 H 0.84777 0.98359 0.18838 0.0
C230 C 0.80734 0.01542 0.12514 0.0
C231 C 0.78571 0.02769 0.09042 0.0
C232 C 0.80595 0.9758 0.13701 0.0
C233 C 0.75965 0.00097 0.06948 0.0
C234 C 0.75824 0.96135 0.08098 0.0
C235 C 0.78703 0.90757 0.12172 0.0
C236 C 0.81422 0.89458 0.15265 0.0
C237 C 0.7827 0.94814 0.11371 0.0
C238 C 0.83417 0.92237 0.17773 0.0
C239 C 0.83008 0.96277 0.16998 0.0
H240 H 0.43551 0.39237 0.68614 0.0
H241 H 0.4769 0.27398 0.66444 0.0
H242 H 0.54048 0.28671 0.70462 0.0
H243 H 0.58957 0.33618 0.73339 0.0
H244 H 0.54891 0.45565 0.7507 0.0
H245 H 0.47971 0.43787 0.72511 0.0
C246 C 0.45797 0.36898 0.69114 0.0
C247 C 0.45198 0.33262 0.67174 0.0
C248 C 0.49494 0.37703 0.71291 0.0
C249 C 0.48089 0.30231 0.67894 0.0
C250 C 0.51748 0.30975 0.70155 0.0
C251 C 0.56515 0.35787 0.73274 0.0
C252 C 0.57425 0.39728 0.74325 0.0
C253 C 0.52571 0.34769 0.71684 0.0
C254 C 0.54255 0.42528 0.74221 0.0
C255 C 0.50308 0.41515 0.72751 0.0
H256 H 0.6338 0.54533 0.38873 0.0
H257 H 0.74833 0.53374 0.45836 0.0
H258 H 0.75504 0.46552 0.43587 0.0
H259 H 0.72186 0.4062 0.40532 0.0
H260 H 0.6075 0.41842 0.33584 0.0
H261 H 0.60736 0.48961 0.34856 0.0
C262 C 0.66067 0.52808 0.3982 0.0
C263 C 0.69021 0.54407 0.42555 0.0
C264 C 0.66418 0.48902 0.38527 0.0
C265 C 0.7252 0.52187 0.43732 0.0
C266 C 0.72889 0.48282 0.42468 0.0
C267 C 0.69788 0.4249 0.39183 0.0
C268 C 0.66485 0.40762 0.36958 0.0
C269 C 0.69774 0.46563 0.39988 0.0
C270 C 0.6334 0.43156 0.35264 0.0
C271 C 0.63312 0.47206 0.36027 0.0
H272 H 0.99873 0.18176 0.04092 0.0
H273 H 0.91813 0.23207 0.94929 0.0
H274 H 0.97637 0.24309 0.90986 0.0
H275 H 0.04833 0.22909 0.89844 0.0
H276 H 0.12899 0.18098 0.99174 0.0
H277 H 0.07268 0.17899 0.03396 0.0
C278 C 0.99425 0.19591 0.01264 0.0
C279 C 0.9546 0.20578 0.99759 0.0
C280 C 0.02772 0.20221 0.99046 0.0
C281 C 0.94868 0.22435 0.9612 0.0
C282 C 0.98186 0.23042 0.93869 0.0
C283 C 0.05394 0.21938 0.92838 0.0
C284 C 0.09258 0.20428 0.94161 0.0
C285 C 0.02134 0.21824 0.95255 0.0
C286 C 0.09925 0.1918 0.98054 0.0
C287 C 0.0671 0.19064 0.00471 0.0
H288 H 0.2774 0.43053 0.44065 0.0
H289 H 0.40537 0.40168 0.43716 0.0
H290 H 0.41164 0.44936 0.38497 0.0
H291 H 0.38319 0.50489 0.34621 0.0
H292 H 0.25604 0.53585 0.35032 0.0
H293 H 0.24682 0.48152 0.39588 0.0
C294 C 0.30634 0.43397 0.42773 0.0
C295 C 0.34096 0.41288 0.44306 0.0
C296 C 0.31004 0.46227 0.39823 0.0
C297 C 0.37835 0.41785 0.42618 0.0
C298 C 0.38204 0.44522 0.39641 0.0
C299 C 0.35339 0.49947 0.35686 0.0
C300 C 0.32051 0.5246 0.34546 0.0
C301 C 0.3485 0.46859 0.38326 0.0
C302 C 0.28183 0.51688 0.35879 0.0
C303 C 0.27662 0.48595 0.38496 0.0
H304 H 0.03576 0.79218 0.88764 0.0
H305 H 0.11468 0.8858 0.85344 0.0
H306 H 0.06316 0.90632 0.80245 0.0
H307 H 0.99082 0.90695 0.77848 0.0
H308 H 0.90947 0.81695 0.8155 0.0
H309 H 0.96652 0.7851 0.85389 0.0
C310 C 0.04221 0.81587 0.86779 0.0
C311 C 0.07878 0.83753 0.87409 0.0
C312 C 0.01156 0.82865 0.83963 0.0
C313 C 0.08669 0.86873 0.84887 0.0
C314 C 0.0571 0.88069 0.82 0.0
C315 C 0.98608 0.8795 0.79382 0.0
C316 C 0.94629 0.86427 0.79449 0.0
C317 C 0.01865 0.86231 0.81667 0.0
C318 C 0.94005 0.82892 0.81451 0.0
C319 C 0.97258 0.81101 0.83675 0.0
H320 H 0.88785 0.08346 0.92219 0.0
H321 H 0.75888 0.05851 0.92433 0.0
H322 H 0.76186 0.01436 0.86841 0.0
H323 H 0.80306 0.97681 0.82413 0.0
H324 H 0.93172 0.00322 0.82148 0.0
H325 H 0.9268 0.0529 0.87221 0.0
C326 C 0.86028 0.06873 0.91013 0.0
C327 C 0.82336 0.07382 0.92777 0.0
C328 C 0.86222 0.04335 0.87806 0.0
C329 C 0.78774 0.05505 0.91137 0.0
C330 C 0.78946 0.02962 0.87949 0.0
C331 C 0.82977 0.99415 0.83391 0.0
C332 C 0.86787 0.98571 0.81953 0.0
C333 C 0.82679 0.02271 0.86327 0.0
C334 C 0.90221 0.00845 0.83268 0.0
C335 C 0.89945 0.03693 0.86167 0.0
H336 H 0.51703 0.31326 0.54582 0.0
H337 H 0.43237 0.25418 0.46315 0.0
H338 H 0.48621 0.24726 0.41791 0.0
H339 H 0.55395 0.26837 0.39832 0.0
H340 H 0.63825 0.3267 0.48227 0.0
H341 H 0.58829 0.32287 0.53101 0.0
C342 C 0.5108 0.29802 0.51825 0.0
C343 C 0.47102 0.28467 0.50737 0.0
C344 C 0.5417 0.29435 0.49261 0.0
C345 C 0.46298 0.26462 0.47192 0.0
C346 C 0.49364 0.26094 0.44604 0.0
C347 C 0.56183 0.27901 0.42766 0.0
C348 C 0.59933 0.29859 0.43648 0.0
C349 C 0.53269 0.2771 0.4555 0.0
C350 C 0.6092 0.31224 0.47463 0.0
C351 C 0.58065 0.31015 0.50246 0.0
H352 H 0.16568 0.96523 0.89876 0.0
H353 H 0.25171 0.98992 0.99687 0.0
H354 H 0.25646 0.05893 0.97605 0.0
H355 H 0.22601 0.11403 0.93659 0.0
H356 H 0.14089 0.08883 0.83802 0.0
H357 H 0.14654 0.01792 0.85154 0.0
C358 C 0.18629 0.98558 0.91487 0.0
C359 C 0.2079 0.97302 0.94947 0.0
C360 C 0.18883 0.025 0.90268 0.0
C361 C 0.23485 0.99919 0.9701 0.0
C362 C 0.23733 0.03863 0.95835 0.0
C363 C 0.21011 0.09274 0.91727 0.0
C364 C 0.18313 0.1062 0.88642 0.0
C365 C 0.21312 0.05218 0.92562 0.0
C366 C 0.16215 0.07879 0.86165 0.0
C367 C 0.165 0.03839 0.86968 0.0
H368 H 0.50245 0.71443 0.41112 0.0
H369 H 0.57949 0.64433 0.3424 0.0
H370 H 0.51986 0.62362 0.30008 0.0
H371 H 0.44505 0.61525 0.29107 0.0
H372 H 0.36764 0.68039 0.36354 0.0
H373 H 0.42766 0.71346 0.39596 0.0
C374 C 0.5062 0.69613 0.38576 0.0
C375 C 0.54514 0.6813 0.37937 0.0
C376 C 0.47147 0.68265 0.36294 0.0
C377 C 0.54974 0.6565 0.34732 0.0
C378 C 0.51561 0.64425 0.3235 0.0
C379 C 0.4415 0.63762 0.31314 0.0
C380 C 0.40239 0.64571 0.325 0.0
C381 C 0.47619 0.65554 0.33225 0.0
C382 C 0.39769 0.67413 0.35396 0.0
C383 C 0.43196 0.69282 0.37255 0.0
H384 H 0.34754 0.45734 0.65349 0.0
H385 H 0.2582 0.47551 0.55656 0.0
H386 H 0.25006 0.54457 0.57599 0.0
H387 H 0.27748 0.60191 0.6142 0.0
H388 H 0.3654 0.58308 0.71205 0.0
H389 H 0.36446 0.51185 0.69936 0.0
C390 C 0.32551 0.47626 0.63734 0.0
C391 C 0.30382 0.46185 0.60349 0.0
C392 C 0.32097 0.51572 0.64877 0.0
C393 C 0.2751 0.48619 0.58278 0.0
C394 C 0.27069 0.52567 0.59372 0.0
C395 C 0.29519 0.58187 0.63347 0.0
C396 C 0.3215 0.59729 0.66391 0.0
C397 C 0.29468 0.5411 0.62576 0.0
C398 C 0.34469 0.57151 0.68869 0.0
C399 C 0.34448 0.53094 0.68117 0.0
H400 H 0.99769 0.81581 0.99631 0.0
H401 H 0.07816 0.76316 0.08673 0.0
H402 H 0.02038 0.75388 0.12705 0.0
H403 H 0.94939 0.77031 0.13976 0.0
H404 H 0.86857 0.82037 0.04758 0.0
H405 H 0.92409 0.82074 0.00447 0.0
C406 C 0.00222 0.80147 0.02451 0.0
C407 C 0.0418 0.7905 0.03894 0.0
C408 C 0.96902 0.79625 0.04726 0.0
C409 C 0.04771 0.77168 0.07521 0.0
C410 C 0.01479 0.76667 0.09828 0.0
C411 C 0.94348 0.78013 0.10989 0.0
C412 C 0.90509 0.79631 0.09731 0.0
C413 C 0.97557 0.78013 0.08511 0.0
C414 C 0.89814 0.80889 0.05842 0.0
C415 C 0.92984 0.80903 0.03368 0.0
H416 H 0.7258 0.55515 0.58707 0.0
H417 H 0.61806 0.61994 0.61344 0.0
H418 H 0.61295 0.58086 0.67233 0.0
H419 H 0.63362 0.52323 0.71151 0.0
H420 H 0.73756 0.45399 0.68297 0.0
H421 H 0.75043 0.50026 0.6306 0.0
C422 C 0.70187 0.56118 0.60629 0.0
C423 C 0.6722 0.59012 0.59596 0.0
C424 C 0.69826 0.53757 0.63955 0.0
C425 C 0.64102 0.59754 0.62076 0.0
C426 C 0.63804 0.57519 0.65437 0.0
C427 C 0.65933 0.51846 0.69404 0.0
C428 C 0.68417 0.48493 0.7007 0.0
C429 C 0.66558 0.54427 0.66327 0.0
C430 C 0.71796 0.47961 0.67846 0.0
C431 C 0.7251 0.50588 0.64828 0.0
H432 H 0.90994 0.0979 0.17313 0.0
H433 H 0.94714 0.21869 0.15688 0.0
H434 H 0.00609 0.20926 0.20413 0.0
H435 H 0.05389 0.16257 0.23924 0.0
H436 H 0.01718 0.04121 0.25273 0.0
H437 H 0.95096 0.05499 0.2179 0.0
C438 C 0.93038 0.12245 0.18075 0.0
C439 C 0.92476 0.15865 0.16109 0.0
C440 C 0.96463 0.11649 0.20705 0.0
C441 C 0.95095 0.19047 0.17159 0.0
C442 C 0.98489 0.18497 0.19832 0.0
C443 C 0.03079 0.13959 0.23567 0.0
C444 C 0.04047 0.10081 0.24783 0.0
C445 C 0.99312 0.14752 0.21469 0.0
C446 C 0.01044 0.07115 0.24305 0.0
C447 C 0.97269 0.07897 0.22305 0.0
H448 H 0.19713 0.69566 0.06268 0.0
H449 H 0.28358 0.78505 0.10567 0.0
H450 H 0.31254 0.73948 0.1551 0.0
H451 H 0.3139 0.674 0.18616 0.0
H452 H 0.22737 0.58489 0.14407 0.0
H453 H 0.19793 0.6305 0.09425 0.0
C454 C 0.22231 0.70524 0.08281 0.0
C455 C 0.23809 0.74382 0.08024 0.0
C456 C 0.23889 0.67888 0.11135 0.0
C457 C 0.27068 0.75562 0.10681 0.0
C458 C 0.28738 0.72955 0.13516 0.0
C459 C 0.28859 0.66476 0.16598 0.0
C460 C 0.27286 0.62631 0.16848 0.0
C461 C 0.2718 0.69114 0.13765 0.0
C462 C 0.24 0.6144 0.14248 0.0
C463 C 0.22319 0.64044 0.11407 0.0
H464 H 0.68636 0.80754 0.56851 0.0
H465 H 0.78809 0.72597 0.5763 0.0
H466 H 0.81918 0.76145 0.63254 0.0
H467 H 0.8161 0.81357 0.68196 0.0
H468 H 0.71468 0.89485 0.67518 0.0
H469 H 0.68502 0.86181 0.61621 0.0
C470 C 0.71553 0.79776 0.58223 0.0
C471 C 0.7346 0.76391 0.56816 0.0
C472 C 0.73324 0.81812 0.61501 0.0
C473 C 0.77243 0.75171 0.58651 0.0
C474 C 0.79034 0.77197 0.61878 0.0
C475 C 0.78761 0.82402 0.66733 0.0
C476 C 0.76732 0.85617 0.68292 0.0
C477 C 0.77074 0.80481 0.63365 0.0
C478 C 0.73061 0.86987 0.66376 0.0
C479 C 0.71369 0.85101 0.63009 0.0
H480 H 0.7662 0.25608 0.15229 0.0
H481 H 0.68578 0.15989 0.11455 0.0
H482 H 0.64253 0.17397 0.16743 0.0
H483 H 0.62838 0.21268 0.22549 0.0
H484 H 0.70796 0.30956 0.26199 0.0
H485 H 0.75075 0.29612 0.20846 0.0
C486 C 0.73922 0.23815 0.15553 0.0
C487 C 0.72947 0.20684 0.12952 0.0
C488 C 0.71443 0.24642 0.18593 0.0
C489 C 0.69408 0.18423 0.13406 0.0
C490 C 0.66934 0.19217 0.16438 0.0
C491 C 0.65519 0.23068 0.22169 0.0
C492 C 0.66567 0.26143 0.24806 0.0
C493 C 0.67939 0.22299 0.19065 0.0
C494 C 0.69987 0.28523 0.24243 0.0
C495 C 0.72422 0.27763 0.21181 0.0
H496 H 0.30397 0.25263 0.68571 0.0
H497 H 0.2058 0.3238 0.63171 0.0
H498 H 0.16975 0.32005 0.69089 0.0
H499 H 0.16755 0.29926 0.75925 0.0
H500 H 0.26546 0.22838 0.81303 0.0
H501 H 0.30023 0.22929 0.75262 0.0
C502 C 0.27454 0.2671 0.68664 0.0
C503 C 0.25786 0.28866 0.65421 0.0
C504 C 0.25411 0.26521 0.7209 0.0
C505 C 0.21955 0.30706 0.65614 0.0
C506 C 0.19889 0.30506 0.69005 0.0
C507 C 0.19657 0.28418 0.75757 0.0
C508 C 0.2146 0.26466 0.79054 0.0
C509 C 0.21619 0.28476 0.72279 0.0
C510 C 0.25162 0.2443 0.78808 0.0
C511 C 0.27134 0.24471 0.75359 0.0
H512 H 0.77012 0.67622 0.38171 0.0
H513 H 0.69968 0.78425 0.37781 0.0
H514 H 0.72365 0.80024 0.31449 0.0
H515 H 0.7615 0.78187 0.25835 0.0
H516 H 0.83095 0.67371 0.26129 0.0
H517 H 0.81065 0.65943 0.32682 0.0
C518 C 0.76044 0.70353 0.36728 0.0
C519 C 0.73297 0.72886 0.3845 0.0
C520 C 0.77381 0.71231 0.33047 0.0
C521 C 0.72059 0.76403 0.36518 0.0
C522 C 0.73422 0.77322 0.3289 0.0
C523 C 0.77208 0.75523 0.27351 0.0
C524 C 0.79692 0.72848 0.25504 0.0
C525 C 0.7602 0.74725 0.31097 0.0
C526 C 0.81123 0.69435 0.27491 0.0
C527 C 0.79972 0.68627 0.31232 0.0
H528 H 0.73946 0.21386 0.91829 0.0
H529 H 0.79761 0.30741 0.98803 0.0
H530 H 0.78816 0.35277 0.93328 0.0
H531 H 0.76684 0.36526 0.86454 0.0
H532 H 0.70857 0.27257 0.79446 0.0
H533 H 0.71484 0.22745 0.85023 0.0
C534 C 0.74957 0.2443 0.92171 0.0
C535 C 0.76941 0.25701 0.95728 0.0
C536 C 0.74445 0.27032 0.88989 0.0
C537 C 0.78245 0.29661 0.96101 0.0
C538 C 0.77717 0.32265 0.92966 0.0
C539 C 0.75533 0.33522 0.8617 0.0
C540 C 0.73732 0.32215 0.82567 0.0
C541 C 0.75886 0.30966 0.89383 0.0
C542 C 0.72258 0.2832 0.82203 0.0
C543 C 0.7261 0.25747 0.85388 0.0
H544 H 0.22722 0.26074 0.45961 0.0
H545 H 0.32561 0.18282 0.50098 0.0
H546 H 0.29741 0.13048 0.45833 0.0
H547 H 0.24419 0.10611 0.41006 0.0
H548 H 0.14502 0.18288 0.36948 0.0
H549 H 0.17415 0.23645 0.41092 0.0
C550 C 0.24263 0.2324 0.45919 0.0
C551 C 0.27848 0.22585 0.48361 0.0
C552 C 0.22607 0.20216 0.43475 0.0
C553 C 0.29788 0.18877 0.48271 0.0
C554 C 0.28181 0.15873 0.45827 0.0
C555 C 0.2291 0.13463 0.41029 0.0
C556 C 0.19266 0.14078 0.38684 0.0
C557 C 0.24583 0.16501 0.43434 0.0
C558 C 0.17321 0.17773 0.38736 0.0
C559 C 0.18982 0.20824 0.41101 0.0
H560 H 0.2384 0.73853 0.89449 0.0
H561 H 0.30686 0.84602 0.91911 0.0
H562 H 0.35048 0.83098 0.86667 0.0
H563 H 0.3677 0.78825 0.81231 0.0
H564 H 0.3 0.68042 0.78887 0.0
H565 H 0.25737 0.69465 0.84244 0.0
C566 C 0.26285 0.75872 0.88845 0.0
C567 C 0.26914 0.79348 0.91056 0.0
C568 C 0.28787 0.74985 0.85843 0.0
C569 C 0.30134 0.81902 0.90259 0.0
C570 C 0.32624 0.81052 0.87253 0.0
C571 C 0.34375 0.76786 0.81919 0.0
C572 C 0.33668 0.73346 0.79679 0.0
C573 C 0.31958 0.77617 0.85009 0.0
C574 C 0.30571 0.70711 0.80584 0.0
C575 C 0.28141 0.71525 0.83635 0.0
loop_
_geom_bond_atom_site_label_1
_geom_bond_atom_site_label_2
_geom_bond_distance
_geom_bond_site_symmetry_2
_ccdc_geom_bond_type
Sc0 O3 2.025 . S
Sc0 O10 2.105 1_554 S
Sc0 O13 2.105 . S
Sc0 O16 2.105 . S
Sc0 O19 2.105 1_554 S
Sc1 O3 2.025 1_556 S
Sc1 O11 2.105 . S
Sc1 O15 2.105 1_556 S
Sc1 O17 2.105 1_556 S
Sc1 O21 2.105 . S
Sc2 O3 2.025 . S
Sc2 O12 2.105 1_554 S
Sc2 O14 2.105 . S
Sc2 O18 2.105 . S
Sc2 O20 2.105 1_554 S
O3 Sc0 2.025 . S
O3 Sc1 2.025 1_554 S
O3 Sc2 2.025 . S
C4 O10 1.268 . S
C4 O20 1.268 . S
C5 O11 1.268 . S
C5 O19 1.268 . S
C6 O12 1.268 . S
C6 O21 1.268 . S
C7 O13 1.268 . S
C7 O17 1.268 . S
C8 O14 1.268 . S
C8 O16 1.268 . S
C9 O15 1.268 . S
C9 O18 1.268 . S
O10 Sc0 2.105 1_556 S
O10 C4 1.268 . S
O11 Sc1 2.105 . S
O11 C5 1.268 . S
O12 Sc2 2.105 1_556 S
O12 C6 1.268 . S
O13 Sc0 2.105 . S
O13 C7 1.268 . S
O14 Sc2 2.105 . S
O14 C8 1.268 . S
O15 Sc1 2.105 1_554 S
O15 C9 1.268 . S
O16 Sc0 2.105 . S
O16 C8 1.268 . S
O17 Sc1 2.105 1_554 S
O17 C7 1.268 . S
O18 Sc2 2.105 . S
O18 C9 1.268 . S
O19 Sc0 2.105 1_556 S
O19 C5 1.268 . S
O20 Sc2 2.105 1_556 S
O20 C4 1.268 . S
O21 Sc1 2.105 . S
O21 C6 1.268 . S
Sc22 O25 2.025 . S
Sc22 O32 2.105 . S
Sc22 O35 2.105 . S
Sc22 O38 2.105 . S
Sc22 O41 2.105 . S
Sc23 O25 2.025 . S
Sc23 O33 2.105 . S
Sc23 O37 2.105 . S
Sc23 O39 2.105 . S
Sc23 O43 2.105 . S
Sc24 O25 2.025 . S
Sc24 O34 2.105 . S
Sc24 O36 2.105 . S
Sc24 O40 2.105 . S
Sc24 O42 2.105 . S
O25 Sc22 2.025 . S
O25 Sc23 2.025 . S
O25 Sc24 2.025 . S
C26 O32 1.268 . S
C26 O42 1.268 . S
C27 O33 1.268 . S
C27 O41 1.268 . S
C28 O34 1.268 . S
C28 O43 1.268 . S
C29 O35 1.268 . S
C29 O39 1.268 . S
C30 O36 1.268 . S
C30 O38 1.268 . S
C31 O37 1.268 . S
C31 O40 1.268 . S
O32 Sc22 2.105 . S
O32 C26 1.268 . S
O33 Sc23 2.105 . S
O33 C27 1.268 . S
O34 Sc24 2.105 . S
O34 C28 1.268 . S
O35 Sc22 2.105 . S
O35 C29 1.268 . S
O36 Sc24 2.105 . S
O36 C30 1.268 . S
O37 Sc23 2.105 . S
O37 C31 1.268 . S
O38 Sc22 2.105 . S
O38 C30 1.268 . S
O39 Sc23 2.105 . S
O39 C29 1.268 . S
O40 Sc24 2.105 . S
O40 C31 1.268 . S
O41 Sc22 2.105 . S
O41 C27 1.268 . S
O42 Sc24 2.105 . S
O42 C26 1.268 . S
O43 Sc23 2.105 . S
O43 C28 1.268 . S
Sc44 O47 2.025 . S
Sc44 O54 2.105 . S
Sc44 O57 2.105 . S
Sc44 O60 2.105 . S
Sc44 O63 2.105 . S
Sc45 O47 2.025 . S
Sc45 O55 2.105 1_554 S
Sc45 O59 2.105 . S
Sc45 O61 2.105 . S
Sc45 O65 2.105 1_554 S
Sc46 O47 2.025 . S
Sc46 O56 2.105 1_554 S
Sc46 O58 2.105 . S
Sc46 O62 2.105 . S
Sc46 O64 2.117 . S
O47 Sc44 2.025 . S
O47 Sc45 2.025 . S
O47 Sc46 2.025 . S
C48 O54 1.268 1_556 S
C48 O64 1.265 1_556 S
C49 O55 1.268 . S
C49 O63 1.268 1_556 S
C50 O56 1.268 . S
C50 O65 1.268 . S
C51 O57 1.268 . S
C51 O61 1.268 . S
C52 O58 1.268 . S
C52 O60 1.268 . S
C53 O59 1.268 . S
C53 O62 1.268 . S
O54 Sc44 2.105 . S
O54 C48 1.268 1_554 S
O55 Sc45 2.105 1_556 S
O55 C49 1.268 . S
O56 Sc46 2.105 1_556 S
O56 C50 1.268 . S
O57 Sc44 2.105 . S
O57 C51 1.268 . S
O58 Sc46 2.105 . S
O58 C52 1.268 . S
O59 Sc45 2.105 . S
O59 C53 1.268 . S
O60 Sc44 2.105 . S
O60 C52 1.268 . S
O61 Sc45 2.105 . S
O61 C51 1.268 . S
O62 Sc46 2.105 . S
O62 C53 1.268 . S
O63 Sc44 2.105 . S
O63 C49 1.268 1_554 S
O64 Sc46 2.117 . S
O64 C48 1.265 1_554 S
O65 Sc45 2.105 1_556 S
O65 C50 1.268 . S
Sc66 O69 2.025 . S
Sc66 O76 2.105 . S
Sc66 O79 2.105 . S
Sc66 O82 2.105 . S
Sc66 O85 2.105 . S
Sc67 O69 2.025 . S
Sc67 O77 2.105 . S
Sc67 O81 2.105 . S
Sc67 O83 2.105 . S
Sc67 O87 2.105 . S
Sc68 O69 2.025 . S
Sc68 O78 2.105 . S
Sc68 O80 2.105 . S
Sc68 O84 2.105 . S
Sc68 O86 2.105 . S
O69 Sc66 2.025 . S
O69 Sc67 2.025 . S
O69 Sc68 2.025 . S
C70 O76 1.268 . S
C70 O86 1.268 . S
C71 O77 1.268 . S
C71 O85 1.268 . S
C72 O78 1.268 . S
C72 O87 1.268 . S
C73 O79 1.268 . S
C73 O83 1.268 . S
C74 O80 1.268 . S
C74 O82 1.268 . S
C75 O81 1.268 . S
C75 O84 1.268 . S
O76 Sc66 2.105 . S
O76 C70 1.268 . S
O77 Sc67 2.105 . S
O77 C71 1.268 . S
O78 Sc68 2.105 . S
O78 C72 1.268 . S
O79 Sc66 2.105 . S
O79 C73 1.268 . S
O80 Sc68 2.105 . S
O80 C74 1.268 . S
O81 Sc67 2.105 . S
O81 C75 1.268 . S
O82 Sc66 2.105 . S
O82 C74 1.268 . S
O83 Sc67 2.105 . S
O83 C73 1.268 . S
O84 Sc68 2.105 . S
O84 C75 1.268 . S
O85 Sc66 2.105 . S
O85 C71 1.268 . S
O86 Sc68 2.105 . S
O86 C70 1.268 . S
O87 Sc67 2.105 . S
O87 C72 1.268 . S
H88 C95 0.929 . S
H89 C98 0.930 . S
H90 C100 0.929 . S
H91 C92 0.969 . S
C92 H91 0.969 . S
C92 O93 1.550 . S
C92 H94 0.973 . S
O93 C92 1.550 . S
O93 C99 1.412 . S
H94 C92 0.973 . S
C95 H88 0.929 . S
C95 C96 1.400 . S
C95 C97 1.364 . S
C96 C95 1.400 . S
C96 C100 1.377 . S
C97 C95 1.364 . S
C97 C98 1.374 . S
C98 H89 0.930 . S
C98 C97 1.374 . S
C98 C99 1.383 . S
C99 O93 1.412 . S
C99 C98 1.383 . S
C99 C100 1.394 . S
C100 H90 0.929 . S
C100 C96 1.377 . S
C100 C99 1.394 . S
H101 C108 0.929 . S
H102 C111 0.930 . S
H103 C113 0.929 . S
H104 C105 0.969 . S
C105 H104 0.969 . S
C105 O106 1.550 . S
C105 H107 0.973 . S
O106 C105 1.550 . S
O106 C112 1.412 . S
H107 C105 0.973 . S
C108 H101 0.929 . S
C108 C109 1.400 . S
C108 C110 1.364 . S
C109 C108 1.400 . S
C109 C113 1.377 . S
C110 C108 1.364 . S
C110 C111 1.374 . S
C111 H102 0.930 . S
C111 C110 1.374 . S
C111 C112 1.383 . S
C112 O106 1.412 . S
C112 C111 1.383 . S
C112 C113 1.394 . S
C113 H103 0.929 . S
C113 C109 1.377 . S
C113 C112 1.394 . S
H114 C121 0.929 . S
H115 C124 0.930 . S
H116 C126 0.929 . S
H117 C118 0.969 . S
C118 H117 0.969 . S
C118 O119 1.550 . S
C118 H120 0.973 . S
O119 C118 1.550 . S
O119 C125 1.412 . S
H120 C118 0.973 . S
C121 H114 0.929 . S
C121 C122 1.400 . S
C121 C123 1.364 . S
C122 C121 1.400 . S
C122 C126 1.377 . S
C123 C121 1.364 . S
C123 C124 1.374 . S
C124 H115 0.930 . S
C124 C123 1.374 . S
C124 C125 1.383 . S
C125 O119 1.412 . S
C125 C124 1.383 . S
C125 C126 1.394 . S
C126 H116 0.929 . S
C126 C122 1.377 . S
C126 C125 1.394 . S
H127 C134 0.929 . S
H128 C137 0.930 . S
H129 C139 0.929 . S
H130 C131 0.969 . S
C131 H130 0.969 . S
C131 O132 1.550 . S
C131 H133 0.973 . S
O132 C131 1.550 . S
O132 C138 1.412 . S
H133 C131 0.973 . S
C134 H127 0.929 . S
C134 C135 1.400 . S
C134 C136 1.364 . S
C135 C134 1.400 . S
C135 C139 1.377 . S
C136 C134 1.364 . S
C136 C137 1.374 . S
C137 H128 0.930 . S
C137 C136 1.374 . S
C137 C138 1.383 . S
C138 O132 1.412 . S
C138 C137 1.383 . S
C138 C139 1.394 . S
C139 H129 0.929 . S
C139 C135 1.377 . S
C139 C138 1.394 . S
H140 C147 0.929 . S
H141 C150 0.930 . S
H142 C152 0.929 . S
H143 C144 0.969 . S
C144 H143 0.969 . S
C144 O145 1.550 . S
C144 H146 0.973 . S
O145 C144 1.550 . S
O145 C151 1.412 . S
H146 C144 0.973 . S
C147 H140 0.929 . S
C147 C148 1.400 . S
C147 C149 1.364 . S
C148 C147 1.400 . S
C148 C152 1.377 . S
C149 C147 1.364 . S
C149 C150 1.374 . S
C150 H141 0.930 . S
C150 C149 1.374 . S
C150 C151 1.383 . S
C151 O145 1.412 . S
C151 C150 1.383 . S
C151 C152 1.394 . S
C152 H142 0.929 . S
C152 C148 1.377 . S
C152 C151 1.394 . S
H153 C160 0.929 . S
H154 C163 0.930 . S
H155 C165 0.929 . S
H156 C157 0.969 . S
C157 H156 0.969 . S
C157 O158 1.550 . S
C157 H159 0.973 . S
O158 C157 1.550 . S
O158 C164 1.412 . S
H159 C157 0.973 . S
C160 H153 0.929 . S
C160 C161 1.400 . S
C160 C162 1.364 . S
C161 C160 1.400 . S
C161 C165 1.377 . S
C162 C160 1.364 . S
C162 C163 1.374 . S
C163 H154 0.930 . S
C163 C162 1.374 . S
C163 C164 1.383 . S
C164 O158 1.412 . S
C164 C163 1.383 . S
C164 C165 1.394 . S
C165 H155 0.929 . S
C165 C161 1.377 . S
C165 C164 1.394 . S
H166 C173 0.929 . S
H167 C176 0.930 . S
H168 C178 0.929 . S
H169 C170 0.969 . S
C170 H169 0.969 . S
C170 O171 1.550 . S
C170 H172 0.973 . S
O171 C170 1.550 . S
O171 C177 1.412 . S
H172 C170 0.973 . S
C173 H166 0.929 . S
C173 C174 1.400 . S
C173 C175 1.364 . S
C174 C173 1.400 . S
C174 C178 1.377 . S
C175 C173 1.364 . S
C175 C176 1.374 . S
C176 H167 0.930 . S
C176 C175 1.374 . S
C176 C177 1.383 . S
C177 O171 1.412 . S
C177 C176 1.383 . S
C177 C178 1.394 . S
C178 H168 0.929 . S
C178 C174 1.377 . S
C178 C177 1.394 . S
H179 C186 0.929 . S
H180 C189 0.930 . S
H181 C191 0.929 . S
H182 C183 0.969 . S
C183 H182 0.969 . S
C183 O184 1.550 . S
C183 H185 0.973 . S
O184 C183 1.550 . S
O184 C190 1.412 . S
H185 C183 0.973 . S
C186 H179 0.929 . S
C186 C187 1.400 . S
C186 C188 1.364 . S
C187 C186 1.400 . S
C187 C191 1.377 . S
C188 C186 1.364 . S
C188 C189 1.374 . S
C189 H180 0.930 . S
C189 C188 1.374 . S
C189 C190 1.383 . S
C190 O184 1.412 . S
C190 C189 1.383 . S
C190 C191 1.394 . S
C191 H181 0.929 . S
C191 C187 1.377 . S
C191 C190 1.394 . S
H192 C198 0.930 . S
H193 C201 0.930 . S
H194 C202 0.930 . S
H195 C203 0.930 . S
H196 C206 0.930 . S
H197 C207 0.930 . S
C198 H192 0.930 . S
C198 C199 1.355 . S
C198 C200 1.415 . S
C199 C198 1.355 . S
C199 C201 1.419 . S
C200 C198 1.415 . S
C200 C205 1.425 . S
C200 C207 1.409 1_565 S
C201 H193 0.930 . S
C201 C199 1.419 . S
C201 C202 1.362 . S
C202 H194 0.930 . S
C202 C201 1.362 . S
C202 C205 1.409 . S
C203 H195 0.930 . S
C203 C204 1.355 1_565 S
C203 C205 1.415 . S
C204 C203 1.355 1_545 S
C204 C206 1.419 . S
C205 C200 1.425 . S
C205 C202 1.409 . S
C205 C203 1.415 . S
C206 H196 0.930 . S
C206 C204 1.419 . S
C206 C207 1.362 . S
C207 H197 0.930 . S
C207 C200 1.409 1_545 S
C207 C206 1.362 . S
H208 C214 0.930 . S
H209 C217 0.930 . S
H210 C218 0.930 . S
H211 C219 0.930 . S
H212 C222 0.930 . S
H213 C223 0.930 . S
C214 H208 0.930 . S
C214 C215 1.355 . S
C214 C216 1.415 . S
C215 C214 1.355 . S
C215 C217 1.419 . S
C216 C214 1.415 . S
C216 C221 1.425 . S
C216 C223 1.409 . S
C217 H209 0.930 . S
C217 C215 1.419 . S
C217 C218 1.362 . S
C218 H210 0.930 . S
C218 C217 1.362 . S
C218 C221 1.409 . S
C219 H211 0.930 . S
C219 C220 1.355 . S
C219 C221 1.415 . S
C220 C219 1.355 . S
C220 C222 1.419 . S
C221 C216 1.425 . S
C221 C218 1.409 . S
C221 C219 1.415 . S
C222 H212 0.930 . S
C222 C220 1.419 . S
C222 C223 1.362 . S
C223 H213 0.930 . S
C223 C216 1.409 . S
C223 C222 1.362 . S
H224 C230 0.930 . S
H225 C233 0.922 1_545 S
H226 C234 0.930 . S
H227 C235 0.930 . S
H228 C238 0.930 . S
H229 C239 0.930 . S
C230 H224 0.930 . S
C230 C231 1.355 . S
C230 C232 1.415 1_545 S
C231 C230 1.355 . S
C231 C233 1.419 1_545 S
C232 C230 1.415 1_565 S
C232 C237 1.425 . S
C232 C239 1.409 . S
C233 H225 0.922 1_565 S
C233 C231 1.419 1_565 S
C233 C234 1.362 . S
C234 H226 0.930 . S
C234 C233 1.362 . S
C234 C237 1.409 . S
C235 H227 0.930 . S
C235 C236 1.355 . S
C235 C237 1.415 . S
C236 C235 1.355 . S
C236 C238 1.419 . S
C237 C232 1.425 . S
C237 C234 1.409 . S
C237 C235 1.415 . S
C238 H228 0.930 . S
C238 C236 1.419 . S
C238 C239 1.362 . S
C239 H229 0.930 . S
C239 C232 1.409 . S
C239 C238 1.362 . S
H240 C246 0.930 . S
H241 C249 0.930 . S
H242 C250 0.930 . S
H243 C251 0.930 . S
H244 C254 0.930 . S
H245 C255 0.930 . S
C246 H240 0.930 . S
C246 C247 1.355 . S
C246 C248 1.415 . S
C247 C246 1.355 . S
C247 C249 1.419 . S
C248 C246 1.415 . S
C248 C253 1.425 . S
C248 C255 1.409 . S
C249 H241 0.930 . S
C249 C247 1.419 . S
C249 C250 1.362 . S
C250 H242 0.930 . S
C250 C249 1.362 . S
C250 C253 1.409 . S
C251 H243 0.930 . S
C251 C252 1.355 . S
C251 C253 1.415 . S
C252 C251 1.355 . S
C252 C254 1.419 . S
C253 C248 1.425 . S
C253 C250 1.409 . S
C253 C251 1.415 . S
C254 H244 0.930 . S
C254 C252 1.419 . S
C254 C255 1.362 . S
C255 H245 0.930 . S
C255 C248 1.409 . S
C255 C254 1.362 . S
H256 C262 0.930 . S
H257 C265 0.930 . S
H258 C266 0.930 . S
H259 C267 0.930 . S
H260 C270 0.930 . S
H261 C271 0.930 . S
C262 H256 0.930 . S
C262 C263 1.355 . S
C262 C264 1.415 . S
C263 C262 1.355 . S
C263 C265 1.419 . S
C264 C262 1.415 . S
C264 C269 1.425 . S
C264 C271 1.409 . S
C265 H257 0.930 . S
C265 C263 1.419 . S
C265 C266 1.362 . S
C266 H258 0.930 . S
C266 C265 1.362 . S
C266 C269 1.409 . S
C267 H259 0.930 . S
C267 C268 1.355 . S
C267 C269 1.415 . S
C268 C267 1.355 . S
C268 C270 1.419 . S
C269 C264 1.425 . S
C269 C266 1.409 . S
C269 C267 1.415 . S
C270 H260 0.930 . S
C270 C268 1.419 . S
C270 C271 1.362 . S
C271 H261 0.930 . S
C271 C264 1.409 . S
C271 C270 1.362 . S
H272 C278 0.922 1_554 S
H273 C281 0.930 . S
H274 C282 0.930 . S
H275 C283 0.930 . S
H276 C286 0.930 . S
H277 C287 0.930 . S
C278 H272 0.922 1_556 S
C278 C279 1.355 1_455 S
C278 C280 1.415 . S
C279 C278 1.355 1_655 S
C279 C281 1.419 . S
C280 C278 1.415 . S
C280 C285 1.425 . S
C280 C287 1.409 . S
C281 H273 0.930 . S
C281 C279 1.419 . S
C281 C282 1.362 . S
C282 H274 0.930 . S
C282 C281 1.362 . S
C282 C285 1.409 1_655 S
C283 H275 0.930 . S
C283 C284 1.355 . S
C283 C285 1.415 . S
C284 C283 1.355 . S
C284 C286 1.419 . S
C285 C280 1.425 . S
C285 C282 1.409 1_455 S
C285 C283 1.415 . S
C286 H276 0.930 . S
C286 C284 1.419 . S
C286 C287 1.362 . S
C287 H277 0.930 . S
C287 C280 1.409 . S
C287 C286 1.362 . S
H288 C294 0.930 . S
H289 C297 0.930 . S
H290 C298 0.930 . S
H291 C299 0.930 . S
H292 C302 0.930 . S
H293 C303 0.930 . S
C294 H288 0.930 . S
C294 C295 1.355 . S
C294 C296 1.415 . S
C295 C294 1.355 . S
C295 C297 1.419 . S
C296 C294 1.415 . S
C296 C301 1.425 . S
C296 C303 1.409 . S
C297 H289 0.930 . S
C297 C295 1.419 . S
C297 C298 1.362 . S
C298 H290 0.930 . S
C298 C297 1.362 . S
C298 C301 1.409 . S
C299 H291 0.930 . S
C299 C300 1.355 . S
C299 C301 1.415 . S
C300 C299 1.355 . S
C300 C302 1.419 . S
C301 C296 1.425 . S
C301 C298 1.409 . S
C301 C299 1.415 . S
C302 H292 0.930 . S
C302 C300 1.419 . S
C302 C303 1.362 . S
C303 H293 0.930 . S
C303 C296 1.409 . S
C303 C302 1.362 . S
H304 C310 0.930 . S
H305 C313 0.930 . S
H306 C314 0.930 . S
H307 C315 0.930 . S
H308 C318 0.930 . S
H309 C319 0.930 . S
C310 H304 0.930 . S
C310 C311 1.355 1_655 S
C310 C312 1.415 . S
C311 C310 1.355 1_455 S
C311 C313 1.419 . S
C312 C310 1.415 . S
C312 C317 1.425 . S
C312 C319 1.409 . S
C313 H305 0.930 . S
C313 C311 1.419 . S
C313 C314 1.362 . S
C314 H306 0.930 . S
C314 C313 1.362 . S
C314 C317 1.409 1_455 S
C315 H307 0.930 . S
C315 C316 1.355 . S
C315 C317 1.415 . S
C316 C315 1.355 . S
C316 C318 1.419 . S
C317 C312 1.425 . S
C317 C314 1.409 1_655 S
C317 C315 1.415 . S
C318 H308 0.930 . S
C318 C316 1.419 . S
C318 C319 1.362 . S
C319 H309 0.930 . S
C319 C312 1.409 . S
C319 C318 1.362 . S
H320 C326 0.930 . S
H321 C329 0.930 . S
H322 C330 0.930 . S
H323 C331 0.930 . S
H324 C334 0.930 . S
H325 C335 0.930 . S
C326 H320 0.930 . S
C326 C327 1.355 . S
C326 C328 1.415 . S
C327 C326 1.355 . S
C327 C329 1.419 . S
C328 C326 1.415 . S
C328 C333 1.425 . S
C328 C335 1.409 . S
C329 H321 0.930 . S
C329 C327 1.419 . S
C329 C330 1.362 1_545 S
C330 H322 0.930 . S
C330 C329 1.362 1_565 S
C330 C333 1.409 1_565 S
C331 H323 0.930 . S
C331 C332 1.355 . S
C331 C333 1.415 1_565 S
C332 C331 1.355 . S
C332 C334 1.419 1_565 S
C333 C328 1.425 . S
C333 C330 1.409 1_545 S
C333 C331 1.415 1_545 S
C334 H324 0.930 . S
C334 C332 1.419 1_545 S
C334 C335 1.362 . S
C335 H325 0.930 . S
C335 C328 1.409 . S
C335 C334 1.362 . S
H336 C342 0.930 . S
H337 C345 0.930 . S
H338 C346 0.930 . S
H339 C347 0.930 . S
H340 C350 0.930 . S
H341 C351 0.930 . S
C342 H336 0.930 . S
C342 C343 1.355 . S
C342 C344 1.415 . S
C343 C342 1.355 . S
C343 C345 1.419 . S
C344 C342 1.415 . S
C344 C349 1.425 . S
C344 C351 1.409 . S
C345 H337 0.930 . S
C345 C343 1.419 . S
C345 C346 1.362 . S
C346 H338 0.930 . S
C346 C345 1.362 . S
C346 C349 1.409 . S
C347 H339 0.930 . S
C347 C348 1.355 . S
C347 C349 1.415 . S
C348 C347 1.355 . S
C348 C350 1.419 . S
C349 C344 1.425 . S
C349 C346 1.409 . S
C349 C347 1.415 . S
C350 H340 0.930 . S
C350 C348 1.419 . S
C350 C351 1.362 . S
C351 H341 0.930 . S
C351 C344 1.409 . S
C351 C350 1.362 . S
H352 C358 0.930 . S
H353 C361 0.930 . S
H354 C362 0.930 . S
H355 C363 0.930 . S
H356 C366 0.930 . S
H357 C367 0.930 . S
C358 H352 0.930 . S
C358 C359 1.355 . S
C358 C360 1.415 1_565 S
C359 C358 1.355 . S
C359 C361 1.419 . S
C360 C358 1.415 1_545 S
C360 C365 1.425 . S
C360 C367 1.409 . S
C361 H353 0.930 . S
C361 C359 1.419 . S
C361 C362 1.362 1_565 S
C362 H354 0.930 . S
C362 C361 1.362 1_545 S
C362 C365 1.409 . S
C363 H355 0.930 . S
C363 C364 1.355 . S
C363 C365 1.415 . S
C364 C363 1.355 . S
C364 C366 1.419 . S
C365 C360 1.425 . S
C365 C362 1.409 . S
C365 C363 1.415 . S
C366 H356 0.930 . S
C366 C364 1.419 . S
C366 C367 1.362 . S
C367 H357 0.930 . S
C367 C360 1.409 . S
C367 C366 1.362 . S
H368 C374 0.930 . S
H369 C377 0.930 . S
H370 C378 0.930 . S
H371 C379 0.930 . S
H372 C382 0.930 . S
H373 C383 0.930 . S
C374 H368 0.930 . S
C374 C375 1.355 . S
C374 C376 1.415 . S
C375 C374 1.355 . S
C375 C377 1.419 . S
C376 C374 1.415 . S
C376 C381 1.425 . S
C376 C383 1.409 . S
C377 H369 0.930 . S
C377 C375 1.419 . S
C377 C378 1.362 . S
C378 H370 0.930 . S
C378 C377 1.362 . S
C378 C381 1.409 . S
C379 H371 0.930 . S
C379 C380 1.355 . S
C379 C381 1.415 . S
C380 C379 1.355 . S
C380 C382 1.419 . S
C381 C376 1.425 . S
C381 C378 1.409 . S
C381 C379 1.415 . S
C382 H372 0.930 . S
C382 C380 1.419 . S
C382 C383 1.362 . S
C383 H373 0.930 . S
C383 C376 1.409 . S
C383 C382 1.362 . S
H384 C390 0.930 . S
H385 C393 0.930 . S
H386 C394 0.930 . S
H387 C395 0.930 . S
H388 C398 0.930 . S
H389 C399 0.930 . S
C390 H384 0.930 . S
C390 C391 1.355 . S
C390 C392 1.415 . S
C391 C390 1.355 . S
C391 C393 1.419 . S
C392 C390 1.415 . S
C392 C397 1.425 . S
C392 C399 1.409 . S
C393 H385 0.930 . S
C393 C391 1.419 . S
C393 C394 1.362 . S
C394 H386 0.930 . S
C394 C393 1.362 . S
C394 C397 1.409 . S
C395 H387 0.930 . S
C395 C396 1.355 . S
C395 C397 1.415 . S
C396 C395 1.355 . S
C396 C398 1.419 . S
C397 C392 1.425 . S
C397 C394 1.409 . S
C397 C395 1.415 . S
C398 H388 0.930 . S
C398 C396 1.419 . S
C398 C399 1.362 . S
C399 H389 0.930 . S
C399 C392 1.409 . S
C399 C398 1.362 . S
H400 C406 0.930 . S
H401 C409 0.930 . S
H402 C410 0.930 . S
H403 C411 0.930 . S
H404 C414 0.930 . S
H405 C415 0.930 . S
C406 H400 0.930 . S
C406 C407 1.355 1_655 S
C406 C408 1.415 . S
C407 C406 1.355 1_455 S
C407 C409 1.419 . S
C408 C406 1.415 . S
C408 C413 1.425 . S
C408 C415 1.409 . S
C409 H401 0.930 . S
C409 C407 1.419 . S
C409 C410 1.362 . S
C410 H402 0.930 . S
C410 C409 1.362 . S
C410 C413 1.409 1_455 S
C411 H403 0.930 . S
C411 C412 1.355 . S
C411 C413 1.415 . S
C412 C411 1.355 . S
C412 C414 1.419 . S
C413 C408 1.425 . S
C413 C410 1.409 1_655 S
C413 C411 1.415 . S
C414 H404 0.930 . S
C414 C412 1.419 . S
C414 C415 1.362 . S
C415 H405 0.930 . S
C415 C408 1.409 . S
C415 C414 1.362 . S
H416 C422 0.930 . S
H417 C425 0.930 . S
H418 C426 0.930 . S
H419 C427 0.930 . S
H420 C430 0.930 . S
H421 C431 0.930 . S
C422 H416 0.930 . S
C422 C423 1.355 . S
C422 C424 1.415 . S
C423 C422 1.355 . S
C423 C425 1.419 . S
C424 C422 1.415 . S
C424 C429 1.425 . S
C424 C431 1.409 . S
C425 H417 0.930 . S
C425 C423 1.419 . S
C425 C426 1.362 . S
C426 H418 0.930 . S
C426 C425 1.362 . S
C426 C429 1.409 . S
C427 H419 0.930 . S
C427 C428 1.355 . S
C427 C429 1.415 . S
C428 C427 1.355 . S
C428 C430 1.419 . S
C429 C424 1.425 . S
C429 C426 1.409 . S
C429 C427 1.415 . S
C430 H420 0.930 . S
C430 C428 1.419 . S
C430 C431 1.362 . S
C431 H421 0.930 . S
C431 C424 1.409 . S
C431 C430 1.362 . S
H432 C438 0.930 . S
H433 C441 0.930 . S
H434 C442 0.930 . S
H435 C443 0.930 . S
H436 C446 0.930 . S
H437 C447 0.930 1_655 S
C438 H432 0.930 . S
C438 C439 1.355 . S
C438 C440 1.415 1_655 S
C439 C438 1.355 . S
C439 C441 1.419 1_655 S
C440 C438 1.415 1_455 S
C440 C445 1.425 . S
C440 C447 1.409 . S
C441 H433 0.930 . S
C441 C439 1.419 1_455 S
C441 C442 1.362 . S
C442 H434 0.930 . S
C442 C441 1.362 . S
C442 C445 1.409 . S
C443 H435 0.930 . S
C443 C444 1.355 . S
C443 C445 1.415 . S
C444 C443 1.355 . S
C444 C446 1.419 . S
C445 C440 1.425 . S
C445 C442 1.409 . S
C445 C443 1.415 . S
C446 H436 0.930 . S
C446 C444 1.419 . S
C446 C447 1.362 . S
C447 H437 0.930 1_455 S
C447 C440 1.409 . S
C447 C446 1.362 . S
H448 C454 0.930 . S
H449 C457 0.930 . S
H450 C458 0.930 . S
H451 C459 0.930 . S
H452 C462 0.930 . S
H453 C463 0.930 . S
C454 H448 0.930 . S
C454 C455 1.355 . S
C454 C456 1.415 . S
C455 C454 1.355 . S
C455 C457 1.419 . S
C456 C454 1.415 . S
C456 C461 1.425 . S
C456 C463 1.409 . S
C457 H449 0.930 . S
C457 C455 1.419 . S
C457 C458 1.362 . S
C458 H450 0.930 . S
C458 C457 1.362 . S
C458 C461 1.409 . S
C459 H451 0.930 . S
C459 C460 1.355 . S
C459 C461 1.415 . S
C460 C459 1.355 . S
C460 C462 1.419 . S
C461 C456 1.425 . S
C461 C458 1.409 . S
C461 C459 1.415 . S
C462 H452 0.930 . S
C462 C460 1.419 . S
C462 C463 1.362 . S
C463 H453 0.930 . S
C463 C456 1.409 . S
C463 C462 1.362 . S
H464 C470 0.930 . S
H465 C473 0.930 . S
H466 C474 0.930 . S
H467 C475 0.930 . S
H468 C478 0.930 . S
H469 C479 0.930 . S
C470 H464 0.930 . S
C470 C471 1.355 . S
C470 C472 1.415 . S
C471 C470 1.355 . S
C471 C473 1.419 . S
C472 C470 1.415 . S
C472 C477 1.425 . S
C472 C479 1.409 . S
C473 H465 0.930 . S
C473 C471 1.419 . S
C473 C474 1.362 . S
C474 H466 0.930 . S
C474 C473 1.362 . S
C474 C477 1.409 . S
C475 H467 0.930 . S
C475 C476 1.355 . S
C475 C477 1.415 . S
C476 C475 1.355 . S
C476 C478 1.419 . S
C477 C472 1.425 . S
C477 C474 1.409 . S
C477 C475 1.415 . S
C478 H468 0.930 . S
C478 C476 1.419 . S
C478 C479 1.362 . S
C479 H469 0.930 . S
C479 C472 1.409 . S
C479 C478 1.362 . S
H480 C486 0.930 . S
H481 C489 0.930 . S
H482 C490 0.930 . S
H483 C491 0.930 . S
H484 C494 0.930 . S
H485 C495 0.930 . S
C486 H480 0.930 . S
C486 C487 1.355 . S
C486 C488 1.415 . S
C487 C486 1.355 . S
C487 C489 1.419 . S
C488 C486 1.415 . S
C488 C493 1.425 . S
C488 C495 1.409 . S
C489 H481 0.930 . S
C489 C487 1.419 . S
C489 C490 1.362 . S
C490 H482 0.930 . S
C490 C489 1.362 . S
C490 C493 1.409 . S
C491 H483 0.930 . S
C491 C492 1.355 . S
C491 C493 1.415 . S
C492 C491 1.355 . S
C492 C494 1.419 . S
C493 C488 1.425 . S
C493 C490 1.409 . S
C493 C491 1.415 . S
C494 H484 0.930 . S
C494 C492 1.419 . S
C494 C495 1.362 . S
C495 H485 0.930 . S
C495 C488 1.409 . S
C495 C494 1.362 . S
H496 C502 0.930 . S
H497 C505 0.930 . S
H498 C506 0.930 . S
H499 C507 0.930 . S
H500 C510 0.930 . S
H501 C511 0.930 . S
C502 H496 0.930 . S
C502 C503 1.355 . S
C502 C504 1.415 . S
C503 C502 1.355 . S
C503 C505 1.419 . S
C504 C502 1.415 . S
C504 C509 1.425 . S
C504 C511 1.409 . S
C505 H497 0.930 . S
C505 C503 1.419 . S
C505 C506 1.362 . S
C506 H498 0.930 . S
C506 C505 1.362 . S
C506 C509 1.409 . S
C507 H499 0.930 . S
C507 C508 1.355 . S
C507 C509 1.415 . S
C508 C507 1.355 . S
C508 C510 1.419 . S
C509 C504 1.425 . S
C509 C506 1.409 . S
C509 C507 1.415 . S
C510 H500 0.930 . S
C510 C508 1.419 . S
C510 C511 1.362 . S
C511 H501 0.930 . S
C511 C504 1.409 . S
C511 C510 1.362 . S
H512 C518 0.930 . S
H513 C521 0.930 . S
H514 C522 0.930 . S
H515 C523 0.930 . S
H516 C526 0.930 . S
H517 C527 0.930 . S
C518 H512 0.930 . S
C518 C519 1.355 . S
C518 C520 1.415 . S
C519 C518 1.355 . S
C519 C521 1.419 . S
C520 C518 1.415 . S
C520 C525 1.425 . S
C520 C527 1.409 . S
C521 H513 0.930 . S
C521 C519 1.419 . S
C521 C522 1.362 . S
C522 H514 0.930 . S
C522 C521 1.362 . S
C522 C525 1.409 . S
C523 H515 0.930 . S
C523 C524 1.355 . S
C523 C525 1.415 . S
C524 C523 1.355 . S
C524 C526 1.419 . S
C525 C520 1.425 . S
C525 C522 1.409 . S
C525 C523 1.415 . S
C526 H516 0.930 . S
C526 C524 1.419 . S
C526 C527 1.362 . S
C527 H517 0.930 . S
C527 C520 1.409 . S
C527 C526 1.362 . S
H528 C534 0.930 . S
H529 C537 0.930 . S
H530 C538 0.930 . S
H531 C539 0.930 . S
H532 C542 0.930 . S
H533 C543 0.930 . S
C534 H528 0.930 . S
C534 C535 1.355 . S
C534 C536 1.415 . S
C535 C534 1.355 . S
C535 C537 1.419 . S
C536 C534 1.415 . S
C536 C541 1.425 . S
C536 C543 1.409 . S
C537 H529 0.930 . S
C537 C535 1.419 . S
C537 C538 1.362 . S
C538 H530 0.930 . S
C538 C537 1.362 . S
C538 C541 1.409 . S
C539 H531 0.930 . S
C539 C540 1.355 . S
C539 C541 1.415 . S
C540 C539 1.355 . S
C540 C542 1.419 . S
C541 C536 1.425 . S
C541 C538 1.409 . S
C541 C539 1.415 . S
C542 H532 0.930 . S
C542 C540 1.419 . S
C542 C543 1.362 . S
C543 H533 0.930 . S
C543 C536 1.409 . S
C543 C542 1.362 . S
H544 C550 0.930 . S
H545 C553 0.930 . S
H546 C554 0.930 . S
H547 C555 0.930 . S
H548 C558 0.930 . S
H549 C559 0.930 . S
C550 H544 0.930 . S
C550 C551 1.355 . S
C550 C552 1.415 . S
C551 C550 1.355 . S
C551 C553 1.419 . S
C552 C550 1.415 . S
C552 C557 1.425 . S
C552 C559 1.409 . S
C553 H545 0.930 . S
C553 C551 1.419 . S
C553 C554 1.362 . S
C554 H546 0.930 . S
C554 C553 1.362 . S
C554 C557 1.409 . S
C555 H547 0.930 . S
C555 C556 1.355 . S
C555 C557 1.415 . S
C556 C555 1.355 . S
C556 C558 1.419 . S
C557 C552 1.425 . S
C557 C554 1.409 . S
C557 C555 1.415 . S
C558 H548 0.930 . S
C558 C556 1.419 . S
C558 C559 1.362 . S
C559 H549 0.930 . S
C559 C552 1.409 . S
C559 C558 1.362 . S
H560 C566 0.930 . S
H561 C569 0.930 . S
H562 C570 0.930 . S
H563 C571 0.930 . S
H564 C574 0.930 . S
H565 C575 0.930 . S
C566 H560 0.930 . S
C566 C567 1.355 . S
C566 C568 1.415 . S
C567 C566 1.355 . S
C567 C569 1.419 . S
C568 C566 1.415 . S
C568 C573 1.425 . S
C568 C575 1.409 . S
C569 H561 0.930 . S
C569 C567 1.419 . S
C569 C570 1.362 . S
C570 H562 0.930 . S
C570 C569 1.362 . S
C570 C573 1.409 . S
C571 H563 0.930 . S
C571 C572 1.355 . S
C571 C573 1.415 . S
C572 C571 1.355 . S
C572 C574 1.419 . S
C573 C568 1.425 . S
C573 C570 1.409 . S
C573 C571 1.415 . S
C574 H564 0.930 . S
C574 C572 1.419 . S
C574 C575 1.362 . S
C575 H565 0.930 . S
C575 C568 1.409 . S
C575 C574 1.362 . S
C199 C8 1.372 . S
C204 C96 1.279 . S
C215 C31 1.273 . S
C220 C109 1.199 . S
C231 C53 1.420 . S
C236 C123 1.456 . S
C252 C136 1.400 . S
C247 C74 1.367 . S
C268 C148 1.261 . S
C263 C26 1.281 . S
C279 C48 1.470 . S
C284 C162 1.350 . S
C295 C71 1.331 . S
C300 C174 1.226 . S
C311 C5 1.415 . S
C316 C188 1.334 . S
C327 C50 1.289 . S
C332 C187 1.293 . S
C348 C149 1.423 . S
C343 C70 1.448 . S
C364 C161 1.270 . S
C359 C4 1.276 . S
C375 C28 1.414 . S
C380 C175 1.340 . S
C396 C110 1.381 . S
C391 C73 1.438 . S
C407 C7 1.272 . S
C412 C122 1.234 . S
C428 C135 1.261 . S
C423 C30 1.371 . S
C444 C97 1.375 . S
C439 C52 1.378 . S
C460 C170 1.312 . S
C455 C9 1.392 . S
C476 C183 1.273 . S
C471 C29 1.347 . S
C487 C51 1.433 . S
C492 C144 1.413 . S
C508 C157 1.435 . S
C503 C75 1.431 . S
C524 C118 1.340 . S
C519 C27 1.368 . S
C535 C49 1.419 . S
C540 C131 1.289 . S
C556 C92 1.327 . S
C551 C72 1.420 . S
C572 C105 1.323 . S
C567 C6 1.370 . S
