# Generated by pormake.
# Topology ptr, (4,4)-cn, num edge types: 1
# Building blocks:
#     Node 0, Type 0, BuildingBlock: KUFVIS_clean_sbu_0, # of connection points: 4
#     Node 1, Type 0, BuildingBlock: KUFVIS_clean_sbu_0, # of connection points: 4
#     Node 2, Type 0, BuildingBlock: KUFVIS_clean_sbu_0, # of connection points: 4
#     Node 3, Type 0, BuildingBlock: KUFVIS_clean_sbu_0, # of connection points: 4
#     Node 4, Type 0, BuildingBlock: KUFVIS_clean_sbu_0, # of connection points: 4
#     Node 5, Type 0, BuildingBlock: KUFVIS_clean_sbu_0, # of connection points: 4
#     Node 6, Type 0, BuildingBlock: KUFVIS_clean_sbu_0, # of connection points: 4
#     Node 7, Type 0, BuildingBlock: KUFVIS_clean_sbu_0, # of connection points: 4
#     Node 8, Type 0, BuildingBlock: KUFVIS_clean_sbu_0, # of connection points: 4
#     Node 9, Type 0, BuildingBlock: KUFVIS_clean_sbu_0, # of connection points: 4
#     Node 10, Type 0, BuildingBlock: KUFVIS_clean_sbu_0, # of connection points: 4
#     Node 11, Type 0, BuildingBlock: KUFVIS_clean_sbu_0, # of connection points: 4
#     Node 12, Type 0, BuildingBlock: KUFVIS_clean_sbu_0, # of connection points: 4
#     Node 13, Type 0, BuildingBlock: KUFVIS_clean_sbu_0, # of connection points: 4
#     Node 14, Type 0, BuildingBlock: KUFVIS_clean_sbu_0, # of connection points: 4
#     Node 15, Type 0, BuildingBlock: KUFVIS_clean_sbu_0, # of connection points: 4
#     Node 16, Type 0, BuildingBlock: KUFVIS_clean_sbu_0, # of connection points: 4
#     Node 17, Type 0, BuildingBlock: KUFVIS_clean_sbu_0, # of connection points: 4
#     Node 18, Type 1, BuildingBlock: NAHDIM_clean_linker_0, # of connection points: 4
#     Node 19, Type 1, BuildingBlock: NAHDIM_clean_linker_0, # of connection points: 4
#     Node 20, Type 1, BuildingBlock: NAHDIM_clean_linker_0, # of connection points: 4
#     Node 21, Type 1, BuildingBlock: NAHDIM_clean_linker_0, # of connection points: 4
#     Node 22, Type 1, BuildingBlock: NAHDIM_clean_linker_0, # of connection points: 4
#     Node 23, Type 1, BuildingBlock: NAHDIM_clean_linker_0, # of connection points: 4
#     Node 24, Type 1, BuildingBlock: NAHDIM_clean_linker_0, # of connection points: 4
#     Node 25, Type 1, BuildingBlock: NAHDIM_clean_linker_0, # of connection points: 4
#     Node 26, Type 1, BuildingBlock: NAHDIM_clean_linker_0, # of connection points: 4
#     Node 27, Type 1, BuildingBlock: NAHDIM_clean_linker_0, # of connection points: 4
#     Node 28, Type 1, BuildingBlock: NAHDIM_clean_linker_0, # of connection points: 4
#     Node 29, Type 1, BuildingBlock: NAHDIM_clean_linker_0, # of connection points: 4
#     Node 30, Type 1, BuildingBlock: NAHDIM_clean_linker_0, # of connection points: 4
#     Node 31, Type 1, BuildingBlock: NAHDIM_clean_linker_0, # of connection points: 4
#     Node 32, Type 1, BuildingBlock: NAHDIM_clean_linker_0, # of connection points: 4
#     Node 33, Type 1, BuildingBlock: NAHDIM_clean_linker_0, # of connection points: 4
#     Node 34, Type 1, BuildingBlock: NAHDIM_clean_linker_0, # of connection points: 4
#     Node 35, Type 1, BuildingBlock: NAHDIM_clean_linker_0, # of connection points: 4
#     Edge 36, Type (0, 1), BuildingBlock: AJUNOK_clean_linker_0, # of connection points: 2
#     Edge 37, Type (0, 1), BuildingBlock: AJUNOK_clean_linker_0, # of connection points: 2
#     Edge 38, Type (0, 1), BuildingBlock: AJUNOK_clean_linker_0, # of connection points: 2
#     Edge 39, Type (0, 1), BuildingBlock: AJUNOK_clean_linker_0, # of connection points: 2
#     Edge 40, Type (0, 1), BuildingBlock: AJUNOK_clean_linker_0, # of connection points: 2
#     Edge 41, Type (0, 1), BuildingBlock: AJUNOK_clean_linker_0, # of connection points: 2
#     Edge 42, Type (0, 1), BuildingBlock: AJUNOK_clean_linker_0, # of connection points: 2
#     Edge 43, Type (0, 1), BuildingBlock: AJUNOK_clean_linker_0, # of connection points: 2
#     Edge 44, Type (0, 1), BuildingBlock: AJUNOK_clean_linker_0, # of connection points: 2
#     Edge 45, Type (0, 1), BuildingBlock: AJUNOK_clean_linker_0, # of connection points: 2
#     Edge 46, Type (0, 1), BuildingBlock: AJUNOK_clean_linker_0, # of connection points: 2
#     Edge 47, Type (0, 1), BuildingBlock: AJUNOK_clean_linker_0, # of connection points: 2
#     Edge 48, Type (0, 1), BuildingBlock: AJUNOK_clean_linker_0, # of connection points: 2
#     Edge 49, Type (0, 1), BuildingBlock: AJUNOK_clean_linker_0, # of connection points: 2
#     Edge 50, Type (0, 1), BuildingBlock: AJUNOK_clean_linker_0, # of connection points: 2
#     Edge 51, Type (0, 1), BuildingBlock: AJUNOK_clean_linker_0, # of connection points: 2
#     Edge 52, Type (0, 1), BuildingBlock: AJUNOK_clean_linker_0, # of connection points: 2
#     Edge 53, Type (0, 1), BuildingBlock: AJUNOK_clean_linker_0, # of connection points: 2
#     Edge 54, Type (0, 1), BuildingBlock: AJUNOK_clean_linker_0, # of connection points: 2
#     Edge 55, Type (0, 1), BuildingBlock: AJUNOK_clean_linker_0, # of connection points: 2
#     Edge 56, Type (0, 1), BuildingBlock: AJUNOK_clean_linker_0, # of connection points: 2
#     Edge 57, Type (0, 1), BuildingBlock: AJUNOK_clean_linker_0, # of connection points: 2
#     Edge 58, Type (0, 1), BuildingBlock: AJUNOK_clean_linker_0, # of connection points: 2
#     Edge 59, Type (0, 1), BuildingBlock: AJUNOK_clean_linker_0, # of connection points: 2
#     Edge 60, Type (0, 1), BuildingBlock: AJUNOK_clean_linker_0, # of connection points: 2
#     Edge 61, Type (0, 1), BuildingBlock: AJUNOK_clean_linker_0, # of connection points: 2
#     Edge 62, Type (0, 1), BuildingBlock: AJUNOK_clean_linker_0, # of connection points: 2
#     Edge 63, Type (0, 1), BuildingBlock: AJUNOK_clean_linker_0, # of connection points: 2
#     Edge 64, Type (0, 1), BuildingBlock: AJUNOK_clean_linker_0, # of connection points: 2
#     Edge 65, Type (0, 1), BuildingBlock: AJUNOK_clean_linker_0, # of connection points: 2
#     Edge 66, Type (0, 1), BuildingBlock: AJUNOK_clean_linker_0, # of connection points: 2
#     Edge 67, Type (0, 1), BuildingBlock: AJUNOK_clean_linker_0, # of connection points: 2
#     Edge 68, Type (0, 1), BuildingBlock: AJUNOK_clean_linker_0, # of connection points: 2
#     Edge 69, Type (0, 1), BuildingBlock: AJUNOK_clean_linker_0, # of connection points: 2
#     Edge 70, Type (0, 1), BuildingBlock: AJUNOK_clean_linker_0, # of connection points: 2
#     Edge 71, Type (0, 1), BuildingBlock: AJUNOK_clean_linker_0, # of connection points: 2
#     Edge 72, Type (0, 1), BuildingBlock: AJUNOK_clean_linker_0, # of connection points: 2
#     Edge 73, Type (0, 1), BuildingBlock: AJUNOK_clean_linker_0, # of connection points: 2
#     Edge 74, Type (0, 1), BuildingBlock: AJUNOK_clean_linker_0, # of connection points: 2
#     Edge 75, Type (0, 1), BuildingBlock: AJUNOK_clean_linker_0, # of connection points: 2
#     Edge 76, Type (0, 1), BuildingBlock: AJUNOK_clean_linker_0, # of connection points: 2
#     Edge 77, Type (0, 1), BuildingBlock: AJUNOK_clean_linker_0, # of connection points: 2
#     Edge 78, Type (0, 1), BuildingBlock: AJUNOK_clean_linker_0, # of connection points: 2
#     Edge 79, Type (0, 1), BuildingBlock: AJUNOK_clean_linker_0, # of connection points: 2
#     Edge 80, Type (0, 1), BuildingBlock: AJUNOK_clean_linker_0, # of connection points: 2
#     Edge 81, Type (0, 1), BuildingBlock: AJUNOK_clean_linker_0, # of connection points: 2
#     Edge 82, Type (0, 1), BuildingBlock: AJUNOK_clean_linker_0, # of connection points: 2
#     Edge 83, Type (0, 1), BuildingBlock: AJUNOK_clean_linker_0, # of connection points: 2
#     Edge 84, Type (0, 1), BuildingBlock: AJUNOK_clean_linker_0, # of connection points: 2
#     Edge 85, Type (0, 1), BuildingBlock: AJUNOK_clean_linker_0, # of connection points: 2
#     Edge 86, Type (0, 1), BuildingBlock: AJUNOK_clean_linker_0, # of connection points: 2
#     Edge 87, Type (0, 1), BuildingBlock: AJUNOK_clean_linker_0, # of connection points: 2
#     Edge 88, Type (0, 1), BuildingBlock: AJUNOK_clean_linker_0, # of connection points: 2
#     Edge 89, Type (0, 1), BuildingBlock: AJUNOK_clean_linker_0, # of connection points: 2
#     Edge 90, Type (0, 1), BuildingBlock: AJUNOK_clean_linker_0, # of connection points: 2
#     Edge 91, Type (0, 1), BuildingBlock: AJUNOK_clean_linker_0, # of connection points: 2
#     Edge 92, Type (0, 1), BuildingBlock: AJUNOK_clean_linker_0, # of connection points: 2
#     Edge 93, Type (0, 1), BuildingBlock: AJUNOK_clean_linker_0, # of connection points: 2
#     Edge 94, Type (0, 1), BuildingBlock: AJUNOK_clean_linker_0, # of connection points: 2
#     Edge 95, Type (0, 1), BuildingBlock: AJUNOK_clean_linker_0, # of connection points: 2
#     Edge 96, Type (0, 1), BuildingBlock: AJUNOK_clean_linker_0, # of connection points: 2
#     Edge 97, Type (0, 1), BuildingBlock: AJUNOK_clean_linker_0, # of connection points: 2
#     Edge 98, Type (0, 1), BuildingBlock: AJUNOK_clean_linker_0, # of connection points: 2
#     Edge 99, Type (0, 1), BuildingBlock: AJUNOK_clean_linker_0, # of connection points: 2
#     Edge 100, Type (0, 1), BuildingBlock: AJUNOK_clean_linker_0, # of connection points: 2
#     Edge 101, Type (0, 1), BuildingBlock: AJUNOK_clean_linker_0, # of connection points: 2
#     Edge 102, Type (0, 1), BuildingBlock: AJUNOK_clean_linker_0, # of connection points: 2
#     Edge 103, Type (0, 1), BuildingBlock: AJUNOK_clean_linker_0, # of connection points: 2
#     Edge 104, Type (0, 1), BuildingBlock: AJUNOK_clean_linker_0, # of connection points: 2
#     Edge 105, Type (0, 1), BuildingBlock: AJUNOK_clean_linker_0, # of connection points: 2
#     Edge 106, Type (0, 1), BuildingBlock: AJUNOK_clean_linker_0, # of connection points: 2
#     Edge 107, Type (0, 1), BuildingBlock: AJUNOK_clean_linker_0, # of connection points: 2
# Relax obj value: 0.038
# Max RMSD: 0.205
# Mean RMSD: 0.072
data_MOF--net-ptr--node1-KUFVIS_clean_sbu_0--node2-NAHDIM_clean_linker_0--edge1-AJUNOK_clean_linker_0
_symmetry_space_group_name_H-M    P1
_symmetry_Int_Tables_number       1
_symmetry_cell_setting            triclinic
loop_
_symmetry_equiv_pos_as_xyz
'x, y, z'
_cell_length_a     76.536396
_cell_length_b     75.714595
_cell_length_c     65.135044
_cell_angle_alpha  90.56579
_cell_angle_beta   91.228842
_cell_angle_gamma 119.5027
loop_
_atom_site_label
_atom_site_type_symbol
_atom_site_fract_x
_atom_site_fract_y
_atom_site_fract_z
_atom_type_partial_charge
Mn0 Mn 0.00327 0.34259 0.99675 0.0
Mn1 Mn 0.04666 0.38389 0.0125 0.0
C2 C 0.01436 0.37261 0.97985 0.0
C3 C 0.98671 0.3125 0.97767 0.0
C4 C 0.00739 0.36924 0.03413 0.0
O5 O 0.01632 0.33087 0.0155 0.0
O6 O 0.04574 0.35902 0.02347 0.0
C7 C 0.07439 0.37546 0.9888 0.0
N8 N 0.06698 0.38801 0.99357 0.0
C9 C 0.08856 0.4128 0.96967 0.0
C10 C 0.09654 0.40021 0.96461 0.0
C11 C 0.0894 0.38144 0.97419 0.0
C12 C 0.07368 0.40606 0.98439 0.0
H13 H 0.06884 0.36096 0.99604 0.0
C14 C 0.03361 0.33993 0.02436 0.0
O15 O 0.97846 0.31572 0.9934 0.0
O16 O 0.00458 0.32654 0.97313 0.0
N17 N 0.0498 0.40916 0.00321 0.0
C18 C 0.04037 0.41941 0.00969 0.0
C19 C 0.04568 0.43842 0.00147 0.0
C20 C 0.06071 0.44677 0.98685 0.0
C21 C 0.0705 0.43614 0.98077 0.0
C22 C 0.06474 0.41736 0.98967 0.0
H23 H 0.02879 0.41305 0.0209 0.0
O24 O 0.99575 0.35843 0.97792 0.0
O25 O 0.02619 0.36849 0.99099 0.0
O26 O 0.99646 0.35458 0.02165 0.0
O27 O 0.02628 0.38085 0.03232 0.0
C28 C 0.08559 0.44332 0.96607 0.0
C29 C 0.09458 0.43164 0.96049 0.0
H30 H 0.10805 0.40473 0.95328 0.0
H31 H 0.09541 0.3716 0.97029 0.0
H32 H 0.0381 0.44656 0.0063 0.0
H33 H 0.06461 0.46133 0.98039 0.0
H34 H 0.09029 0.45774 0.95885 0.0
H35 H 0.10604 0.43725 0.94904 0.0
Mn36 Mn 0.65681 0.65384 0.02558 0.0
Mn37 Mn 0.65667 0.61298 0.00412 0.0
C38 C 0.63895 0.62249 0.04035 0.0
C39 C 0.67122 0.68249 0.04699 0.0
C40 C 0.63213 0.63138 0.98708 0.0
O41 O 0.68032 0.66636 0.00615 0.0
O42 O 0.6808 0.63816 0.99583 0.0
C43 C 0.6921 0.61609 0.02673 0.0
N44 N 0.67241 0.60501 0.02068 0.0
C45 C 0.66902 0.57556 0.0379 0.0
C46 C 0.68941 0.5865 0.04385 0.0
C47 C 0.70096 0.6069 0.03837 0.0
C48 C 0.66104 0.58553 0.02627 0.0
H49 H 0.70091 0.63186 0.02284 0.0
C50 C 0.68833 0.65746 0.99657 0.0
O51 O 0.65913 0.68061 0.03184 0.0
O52 O 0.67537 0.66796 0.04957 0.0
N53 N 0.63429 0.58736 0.01084 0.0
C54 C 0.61467 0.57921 0.00459 0.0
C55 C 0.60092 0.55908 0.00941 0.0
C56 C 0.60749 0.54751 0.02049 0.0
C57 C 0.62781 0.55609 0.02643 0.0
C58 C 0.64086 0.57614 0.02098 0.0
H59 H 0.60952 0.58797 0.99598 0.0
O60 O 0.63478 0.63677 0.04444 0.0
O61 O 0.65375 0.62705 0.02819 0.0
O62 O 0.63673 0.64464 0.00138 0.0
O63 O 0.63955 0.61953 0.98613 0.0
C64 C 0.63561 0.54559 0.03767 0.0
C65 C 0.65618 0.55534 0.04347 0.0
H66 H 0.69627 0.57949 0.05293 0.0
H67 H 0.71662 0.61554 0.04319 0.0
H68 H 0.58527 0.55254 0.00469 0.0
H69 H 0.59679 0.53206 0.02437 0.0
H70 H 0.62586 0.53009 0.04217 0.0
H71 H 0.66193 0.54723 0.05243 0.0
Mn72 Mn 0.33126 0.99903 0.01253 0.0
Mn73 Mn 0.37442 0.04339 0.00777 0.0
C74 C 0.35775 0.00692 0.03505 0.0
C75 C 0.29875 0.98169 0.02471 0.0
C76 C 0.36279 0.00626 0.98061 0.0
O77 O 0.32326 0.01496 0.99345 0.0
O78 O 0.35212 0.04475 0.99273 0.0
C79 C 0.36368 0.06984 0.03182 0.0
N80 N 0.37618 0.06213 0.02865 0.0
C81 C 0.39807 0.0821 0.05687 0.0
C82 C 0.3855 0.09035 0.06037 0.0
C83 C 0.36819 0.08413 0.04783 0.0
C84 C 0.39277 0.06786 0.04073 0.0
H85 H 0.35039 0.06512 0.02218 0.0
C86 C 0.33358 0.03317 0.98767 0.0
O87 O 0.30398 0.97477 0.00904 0.0
O88 O 0.31244 0.99853 0.03328 0.0
N89 N 0.39747 0.04466 0.02132 0.0
C90 C 0.40798 0.0352 0.01594 0.0
C91 C 0.42544 0.03934 0.02731 0.0
C92 C 0.4321 0.05342 0.04384 0.0
C93 C 0.42136 0.0634 0.0487 0.0
C94 C 0.40408 0.05866 0.03681 0.0
H95 H 0.40298 0.02443 0.0032 0.0
O96 O 0.34324 0.98836 0.03279 0.0
O97 O 0.35596 0.02062 0.02462 0.0
O98 O 0.34637 0.99432 0.98926 0.0
O99 O 0.37401 0.02485 0.9861 0.0
C100 C 0.42706 0.07779 0.06493 0.0
C101 C 0.41544 0.08715 0.069 0.0
H102 H 0.38889 0.10134 0.07273 0.0
H103 H 0.35836 0.09035 0.0505 0.0
H104 H 0.43372 0.03167 0.02337 0.0
H105 H 0.4455 0.05647 0.05265 0.0
H106 H 0.4403 0.08168 0.07446 0.0
H107 H 0.41988 0.09806 0.08164 0.0
Mn108 Mn 0.98692 0.6604 0.99768 0.0
Mn109 Mn 0.03099 0.66055 0.00131 0.0
C110 C 0.99312 0.64107 0.97456 0.0
C111 C 0.96962 0.67706 0.98726 0.0
C112 C 0.99629 0.63707 0.02971 0.0
O113 O 0.00428 0.68427 0.01681 0.0
O114 O 0.03435 0.68626 0.01376 0.0
C115 C 0.05508 0.69443 0.9738 0.0
N116 N 0.04762 0.67466 0.97896 0.0
C117 C 0.06422 0.66868 0.95097 0.0
C118 C 0.07224 0.68903 0.94548 0.0
C119 C 0.06759 0.70193 0.9569 0.0
C120 C 0.05189 0.66208 0.96799 0.0
H121 H 0.05149 0.70438 0.98249 0.0
C122 C 0.02323 0.69344 0.01988 0.0
O123 O 0.96362 0.66459 0.00242 0.0
O124 O 0.98524 0.67923 0.9777 0.0
N125 N 0.03023 0.63684 0.98961 0.0
C126 C 0.02051 0.61738 0.99626 0.0
C127 C 0.02319 0.60245 0.98616 0.0
C128 C 0.03595 0.60768 0.96943 0.0
C129 C 0.04597 0.62782 0.96299 0.0
C130 C 0.04284 0.64209 0.97375 0.0
H131 H 0.01062 0.61319 0.00903 0.0
O132 O 0.97492 0.63766 0.97694 0.0
O133 O 0.00723 0.65632 0.98508 0.0
O134 O 0.98357 0.64057 0.0203 0.0
O135 O 0.01467 0.64502 0.02468 0.0
C136 C 0.05862 0.63422 0.94605 0.0
C137 C 0.0677 0.65462 0.94001 0.0
H138 H 0.08183 0.69486 0.93241 0.0
H139 H 0.07362 0.71762 0.95268 0.0
H140 H 0.01535 0.58692 0.99119 0.0
H141 H 0.03781 0.59607 0.96154 0.0
H142 H 0.06122 0.6235 0.93736 0.0
H143 H 0.07717 0.65929 0.92677 0.0
Mn144 Mn 0.33906 0.35178 0.01228 0.0
Mn145 Mn 0.38118 0.35063 0.00116 0.0
C146 C 0.36667 0.36721 0.03455 0.0
C147 C 0.30697 0.33573 0.02562 0.0
C148 C 0.36717 0.37685 0.97908 0.0
O149 O 0.33006 0.32936 0.99031 0.0
O150 O 0.35769 0.3261 0.98877 0.0
C151 C 0.37538 0.31455 0.02395 0.0
N152 N 0.38644 0.33479 0.02043 0.0
C153 C 0.41181 0.33865 0.04537 0.0
C154 C 0.40086 0.31778 0.04899 0.0
C155 C 0.38253 0.3057 0.03829 0.0
C156 C 0.40401 0.34659 0.03078 0.0
H157 H 0.36116 0.30525 0.01599 0.0
C158 C 0.33905 0.31977 0.98465 0.0
O159 O 0.31206 0.34943 0.0117 0.0
O160 O 0.32072 0.33161 0.03205 0.0
N161 N 0.40476 0.37343 0.01296 0.0
C162 C 0.4132 0.39342 0.0082 0.0
C163 C 0.43131 0.40764 0.01808 0.0
C164 C 0.44064 0.40117 0.03263 0.0
C165 C 0.43177 0.38052 0.03717 0.0
C166 C 0.41373 0.36704 0.02681 0.0
H167 H 0.40619 0.39851 0.99697 0.0
O168 O 0.35272 0.37222 0.03533 0.0
O169 O 0.36378 0.35333 0.021 0.0
O170 O 0.35297 0.3735 0.99101 0.0
O171 O 0.37754 0.36784 0.98056 0.0
C172 C 0.43999 0.37284 0.05177 0.0
C173 C 0.43003 0.35191 0.05586 0.0
H174 H 0.40626 0.31093 0.06015 0.0
H175 H 0.37387 0.28963 0.04117 0.0
H176 H 0.43805 0.42355 0.01449 0.0
H177 H 0.45454 0.4122 0.04031 0.0
H178 H 0.45388 0.38291 0.06008 0.0
H179 H 0.43641 0.34621 0.06723 0.0
Mn180 Mn 0.66634 0.00467 0.00975 0.0
Mn181 Mn 0.62416 0.95954 0.01325 0.0
C182 C 0.6394 0.9967 0.98764 0.0
C183 C 0.69869 0.02314 0.99732 0.0
C184 C 0.63633 0.99481 0.04353 0.0
O185 O 0.67496 0.98796 0.02714 0.0
O186 O 0.64739 0.95709 0.02416 0.0
C187 C 0.63266 0.93493 0.98372 0.0
N188 N 0.62076 0.94258 0.98984 0.0
C189 C 0.59736 0.92572 0.96155 0.0
C190 C 0.60924 0.91745 0.9551 0.0
C191 C 0.62701 0.92215 0.96619 0.0
C192 C 0.60372 0.93829 0.97918 0.0
H193 H 0.64639 0.93861 0.99211 0.0
C194 C 0.66579 0.96884 0.02978 0.0
O195 O 0.69339 0.02912 0.01364 0.0
O196 O 0.6851 0.00659 0.98818 0.0
N197 N 0.60071 0.95982 0.00282 0.0
C198 C 0.59112 0.96933 0.01083 0.0
C199 C 0.5733 0.96657 0.00125 0.0
C200 C 0.56544 0.95395 0.98364 0.0
C201 C 0.57542 0.94412 0.97583 0.0
C202 C 0.59306 0.94736 0.9861 0.0
H203 H 0.59701 0.97899 0.0244 0.0
O204 O 0.65335 0.01547 0.99043 0.0
O205 O 0.64197 0.9833 0.99752 0.0
O206 O 0.65141 0.00791 0.03385 0.0
O207 O 0.62601 0.97617 0.03778 0.0
C208 C 0.56866 0.93139 0.95815 0.0
C209 C 0.57964 0.92222 0.951 0.0
H210 H 0.60499 0.90767 0.94152 0.0
H211 H 0.63635 0.91599 0.96119 0.0
H212 H 0.56567 0.97418 0.00739 0.0
H213 H 0.55178 0.95198 0.97619 0.0
H214 H 0.55514 0.92871 0.94982 0.0
H215 H 0.5744 0.91263 0.93727 0.0
Mn216 Mn 0.66828 0.67934 0.33434 0.0
Mn217 Mn 0.7108 0.7212 0.35046 0.0
C218 C 0.679 0.70919 0.31702 0.0
C219 C 0.65269 0.64843 0.3166 0.0
C220 C 0.67112 0.70454 0.37211 0.0
O221 O 0.6821 0.66852 0.35323 0.0
O222 O 0.71209 0.69669 0.35885 0.0
C223 C 0.74116 0.71772 0.32596 0.0
N224 N 0.73186 0.72835 0.33152 0.0
C225 C 0.75411 0.75673 0.31134 0.0
C226 C 0.76405 0.74616 0.30557 0.0
C227 C 0.75747 0.72652 0.31283 0.0
C228 C 0.73797 0.74719 0.3245 0.0
H229 H 0.7362 0.70265 0.33154 0.0
C230 C 0.70024 0.67756 0.35994 0.0
O231 O 0.64435 0.65192 0.33209 0.0
O232 O 0.66986 0.66313 0.31098 0.0
N233 N 0.7117 0.74601 0.34292 0.0
C234 C 0.70049 0.75418 0.34988 0.0
C235 C 0.70487 0.77361 0.34367 0.0
C236 C 0.72084 0.78453 0.33055 0.0
C237 C 0.73236 0.77596 0.32382 0.0
C238 C 0.7273 0.75654 0.33053 0.0
H239 H 0.68829 0.74596 0.3601 0.0
O240 O 0.66044 0.69481 0.31502 0.0
O241 O 0.69078 0.70546 0.32859 0.0
O242 O 0.66065 0.69077 0.35875 0.0
O243 O 0.69015 0.71575 0.3711 0.0
C244 C 0.74857 0.78586 0.31061 0.0
C245 C 0.75944 0.77625 0.30438 0.0
H246 H 0.7766 0.75288 0.29539 0.0
H247 H 0.76497 0.71821 0.30833 0.0
H248 H 0.69595 0.78015 0.34899 0.0
H249 H 0.72412 0.79948 0.32573 0.0
H250 H 0.75276 0.80084 0.30509 0.0
H251 H 0.77181 0.78397 0.29412 0.0
Mn252 Mn 0.32084 0.99017 0.35634 0.0
Mn253 Mn 0.31344 0.9427 0.34937 0.0
C254 C 0.30313 0.96573 0.38004 0.0
C255 C 0.34035 0.02368 0.36816 0.0
C256 C 0.29072 0.95942 0.32511 0.0
O257 O 0.34142 0.99354 0.33517 0.0
O258 O 0.33761 0.96209 0.33436 0.0
C259 C 0.34958 0.94647 0.37101 0.0
N260 N 0.32922 0.93737 0.36883 0.0
C261 C 0.32482 0.91405 0.3957 0.0
C262 C 0.34575 0.92301 0.39804 0.0
C263 C 0.35817 0.93936 0.38572 0.0
C264 C 0.31712 0.92172 0.38071 0.0
H265 H 0.35918 0.95906 0.3616 0.0
C266 C 0.34669 0.98076 0.32921 0.0
O267 O 0.32705 0.01871 0.35334 0.0
O268 O 0.34258 0.00914 0.37591 0.0
N269 N 0.29067 0.92257 0.36335 0.0
C270 C 0.27079 0.91579 0.35936 0.0
C271 C 0.25635 0.89991 0.37087 0.0
C272 C 0.26249 0.89105 0.38621 0.0
C273 C 0.28302 0.89807 0.38983 0.0
C274 C 0.29671 0.9139 0.37783 0.0
H275 H 0.26596 0.92251 0.34757 0.0
O276 O 0.30111 0.98174 0.37878 0.0
O277 O 0.3156 0.96462 0.36755 0.0
O278 O 0.2981 0.97635 0.33485 0.0
O279 O 0.29609 0.94621 0.32869 0.0
C280 C 0.29043 0.89012 0.40499 0.0
C281 C 0.31131 0.89807 0.4079 0.0
H282 H 0.35244 0.91765 0.40945 0.0
H283 H 0.37434 0.94647 0.38756 0.0
H284 H 0.24053 0.89456 0.36796 0.0
H285 H 0.25131 0.87891 0.39516 0.0
H286 H 0.2802 0.87797 0.4146 0.0
H287 H 0.31683 0.89192 0.41969 0.0
Mn288 Mn 0.01065 0.32168 0.34739 0.0
Mn289 Mn 0.05656 0.36308 0.34418 0.0
C290 C 0.03483 0.32839 0.37264 0.0
C291 C 0.9773 0.3073 0.35696 0.0
C292 C 0.04264 0.32457 0.31843 0.0
O293 O 0.00634 0.33889 0.32644 0.0
O294 O 0.03649 0.36728 0.32812 0.0
C295 C 0.04989 0.39369 0.36593 0.0
N296 N 0.06015 0.38332 0.3642 0.0
C297 C 0.08254 0.40247 0.39246 0.0
C298 C 0.07232 0.41346 0.39444 0.0
C299 C 0.05586 0.40898 0.38118 0.0
C300 C 0.07592 0.38741 0.37697 0.0
H301 H 0.03729 0.39036 0.35573 0.0
C302 C 0.01806 0.35729 0.32185 0.0
O303 O 0.98266 0.29908 0.34259 0.0
O304 O 0.99136 0.32379 0.36579 0.0
N305 N 0.07728 0.36123 0.3594 0.0
C306 C 0.08527 0.34894 0.35579 0.0
C307 C 0.10156 0.35113 0.36808 0.0
C308 C 0.10953 0.36599 0.38389 0.0
C309 C 0.10117 0.37857 0.38722 0.0
C310 C 0.08501 0.37574 0.37441 0.0
H311 H 0.07914 0.33738 0.34379 0.0
O312 O 0.0196 0.31022 0.37017 0.0
O313 O 0.0353 0.34212 0.36048 0.0
O314 O 0.02563 0.3141 0.32651 0.0
O315 O 0.05482 0.3431 0.32328 0.0
C316 C 0.10811 0.39366 0.40289 0.0
C317 C 0.09882 0.40561 0.40549 0.0
H318 H 0.07683 0.42522 0.40622 0.0
H319 H 0.04782 0.41732 0.38268 0.0
H320 H 0.10788 0.34132 0.36545 0.0
H321 H 0.12197 0.36752 0.39346 0.0
H322 H 0.12049 0.39609 0.41311 0.0
H323 H 0.10419 0.41707 0.41768 0.0
Mn324 Mn 0.65369 0.97678 0.33234 0.0
Mn325 Mn 0.69869 0.98308 0.34799 0.0
C326 C 0.66964 0.96408 0.31225 0.0
C327 C 0.63458 0.9897 0.3174 0.0
C328 C 0.65934 0.95357 0.36718 0.0
O329 O 0.66355 0.99912 0.3544 0.0
O330 O 0.6953 0.00533 0.36011 0.0
C331 C 0.72616 0.02136 0.3277 0.0
N332 N 0.71939 0.00125 0.33057 0.0
C333 C 0.74411 0.00154 0.30817 0.0
C334 C 0.75142 0.02228 0.30505 0.0
C335 C 0.74235 0.03221 0.3148 0.0
C336 C 0.72792 0.99152 0.32116 0.0
H337 H 0.71927 0.02906 0.33523 0.0
C338 C 0.68118 0.00958 0.3624 0.0
O339 O 0.62726 0.97551 0.33084 0.0
O340 O 0.65291 0.99587 0.31195 0.0
N341 N 0.70378 0.96257 0.33697 0.0
C342 C 0.69473 0.94246 0.34133 0.0
C343 C 0.70178 0.93025 0.33247 0.0
C344 C 0.71816 0.93886 0.3194 0.0
C345 C 0.72738 0.95964 0.31534 0.0
C346 C 0.71971 0.97105 0.32461 0.0
H347 H 0.68222 0.93577 0.35146 0.0
O348 O 0.65042 0.95707 0.30982 0.0
O349 O 0.6788 0.97843 0.32605 0.0
O350 O 0.64797 0.9556 0.35402 0.0
O351 O 0.67849 0.96388 0.36696 0.0
C352 C 0.7438 0.96945 0.30237 0.0
C353 C 0.75216 0.99039 0.29877 0.0
H354 H 0.76389 0.0307 0.29509 0.0
H355 H 0.74785 0.04819 0.3124 0.0
H356 H 0.69461 0.91423 0.33572 0.0
H357 H 0.72351 0.92938 0.31254 0.0
H358 H 0.75003 0.96101 0.29495 0.0
H359 H 0.76469 0.99773 0.28865 0.0
Mn360 Mn 0.00758 0.69112 0.35035 0.0
Mn361 Mn 0.05129 0.69224 0.34114 0.0
C362 C 0.03397 0.70639 0.37398 0.0
C363 C 0.97495 0.67406 0.36236 0.0
C364 C 0.03706 0.71808 0.31874 0.0
O365 O 1.00021 0.66951 0.32794 0.0
O366 O 0.02916 0.66849 0.32615 0.0
C367 C 0.04488 0.65489 0.36163 0.0
N368 N 0.05576 0.67539 0.35971 0.0
C369 C 0.07939 0.67814 0.38626 0.0
C370 C 0.06849 0.65703 0.38846 0.0
C371 C 0.05114 0.64537 0.37611 0.0
C372 C 0.0725 0.68676 0.37148 0.0
H373 H 0.03151 0.64589 0.35221 0.0
C374 C 0.01054 0.66167 0.32138 0.0
O375 O 0.98024 0.688 0.34867 0.0
O376 O 0.98872 0.67017 0.36921 0.0
N377 N 0.07366 0.71451 0.35516 0.0
C378 C 0.08173 0.73478 0.35204 0.0
C379 C 0.09876 0.74863 0.36371 0.0
C380 C 0.10735 0.7415 0.37843 0.0
C381 C 0.09886 0.72057 0.38127 0.0
C382 C 0.08198 0.70748 0.36908 0.0
H383 H 0.07517 0.74035 0.3408 0.0
O384 O 0.01971 0.71101 0.37396 0.0
O385 O 0.03224 0.6931 0.36019 0.0
O386 O 0.02184 0.71351 0.32962 0.0
O387 O 0.04845 0.71032 0.32121 0.0
C388 C 0.10628 0.7122 0.39598 0.0
C389 C 0.09655 0.691 0.39849 0.0
H390 H 0.07318 0.64965 0.3997 0.0
H391 H 0.0426 0.62909 0.37778 0.0
H392 H 0.10519 0.76476 0.36146 0.0
H393 H 0.12035 0.75224 0.38756 0.0
H394 H 0.11931 0.72194 0.40564 0.0
H395 H 0.1022 0.68477 0.41007 0.0
Mn396 Mn 0.32551 0.34669 0.33675 0.0
Mn397 Mn 0.28583 0.3018 0.34869 0.0
C398 C 0.29697 0.33257 0.31572 0.0
C399 C 0.357 0.3648 0.32235 0.0
C400 C 0.29736 0.34145 0.37142 0.0
O401 O 0.33706 0.33504 0.35753 0.0
O402 O 0.31059 0.30371 0.36141 0.0
C403 C 0.29539 0.27363 0.32615 0.0
N404 N 0.28272 0.2811 0.32952 0.0
C405 C 0.25861 0.2578 0.30447 0.0
C406 C 0.27133 0.24976 0.30082 0.0
C407 C 0.28983 0.25776 0.31166 0.0
C408 C 0.26494 0.27359 0.31911 0.0
H409 H 0.30961 0.27973 0.33447 0.0
C410 C 0.32907 0.31716 0.36458 0.0
O411 O 0.35136 0.37256 0.33688 0.0
O412 O 0.34405 0.34662 0.31577 0.0
N413 N 0.26101 0.29806 0.33708 0.0
C414 C 0.25063 0.30774 0.34216 0.0
C415 C 0.23193 0.30177 0.33243 0.0
C416 C 0.22403 0.28584 0.31771 0.0
C417 C 0.23489 0.27596 0.31291 0.0
C418 C 0.2534 0.2825 0.32317 0.0
H419 H 0.25659 0.31994 0.3535 0.0
O420 O 0.30975 0.35186 0.31501 0.0
O421 O 0.30149 0.32229 0.32851 0.0
O422 O 0.31126 0.35292 0.35954 0.0
O423 O 0.28751 0.32213 0.3692 0.0
C424 C 0.22815 0.26 0.29821 0.0
C425 C 0.24001 0.25094 0.29398 0.0
H426 H 0.26713 0.23757 0.2896 0.0
H427 H 0.29978 0.25171 0.30885 0.0
H428 H 0.22364 0.30946 0.33623 0.0
H429 H 0.20967 0.28137 0.31013 0.0
H430 H 0.21394 0.25469 0.28995 0.0
H431 H 0.23474 0.23879 0.28253 0.0
Mn432 Mn 0.32764 0.00756 0.67044 0.0
Mn433 Mn 0.36583 0.05583 0.67348 0.0
C434 C 0.32887 0.03064 0.64698 0.0
C435 C 0.31475 0.97403 0.6599 0.0
C436 C 0.33093 0.03879 0.70234 0.0
O437 O 0.34857 0.00603 0.68872 0.0
O438 O 0.37461 0.03777 0.68684 0.0
C439 C 0.39501 0.05248 0.6469 0.0
N440 N 0.3836 0.06119 0.65131 0.0
C441 C 0.39644 0.08347 0.6227 0.0
C442 C 0.40841 0.07482 0.61792 0.0
C443 C 0.40765 0.05922 0.63004 0.0
C444 C 0.3842 0.07619 0.63973 0.0
H445 H 0.39445 0.04047 0.65617 0.0
C446 C 0.36685 0.01931 0.69253 0.0
O447 O 0.30811 0.9788 0.67597 0.0
O448 O 0.32887 0.98863 0.64989 0.0
N449 N 0.35941 0.07475 0.66086 0.0
C450 C 0.346 0.0806 0.66675 0.0
C451 C 0.34434 0.09557 0.65572 0.0
C452 C 0.35658 0.1045 0.63888 0.0
C453 C 0.3704 0.09838 0.63323 0.0
C454 C 0.37143 0.08342 0.64483 0.0
H455 H 0.33654 0.07381 0.67966 0.0
O456 O 0.31199 0.01425 0.65014 0.0
O457 O 0.34448 0.03285 0.6575 0.0
O458 O 0.32099 0.02148 0.69344 0.0
O459 O 0.3483 0.05229 0.69681 0.0
C460 C 0.38292 0.10625 0.61631 0.0
C461 C 0.3959 0.09878 0.61102 0.0
H462 H 0.41811 0.0799 0.60487 0.0
H463 H 0.41678 0.0524 0.62639 0.0
H464 H 0.33359 0.10017 0.66013 0.0
H465 H 0.35511 0.1159 0.63028 0.0
H466 H 0.38249 0.11788 0.60712 0.0
H467 H 0.40522 0.10473 0.59778 0.0
Mn468 Mn 0.98704 0.31832 0.68754 0.0
Mn469 Mn 0.9867 0.27566 0.67138 0.0
C470 C 0.96813 0.28828 0.70435 0.0
C471 C 0.00143 0.34843 0.70667 0.0
C472 C 0.96378 0.29347 0.64933 0.0
O473 O 0.0115 0.32892 0.66949 0.0
O474 O 0.01152 0.2998 0.66225 0.0
C475 C 0.0212 0.27952 0.69645 0.0
N476 N 0.00151 0.26857 0.69032 0.0
C477 C 0.99677 0.24042 0.71093 0.0
C478 C 0.0171 0.25125 0.71714 0.0
C479 C 0.02933 0.27093 0.70997 0.0
C480 C 0.98954 0.24974 0.69737 0.0
H481 H 0.03057 0.29474 0.69117 0.0
C482 C 0.01948 0.31915 0.66163 0.0
O483 O 0.99036 0.34597 0.69038 0.0
O484 O 0.00434 0.33357 0.71187 0.0
N485 N 0.96367 0.2511 0.67933 0.0
C486 C 0.94412 0.24327 0.67294 0.0
C487 C 0.9297 0.22404 0.67954 0.0
C488 C 0.93554 0.213 0.69246 0.0
C489 C 0.95577 0.22128 0.69865 0.0
C490 C 0.96949 0.24048 0.69153 0.0
H491 H 0.93955 0.25164 0.66294 0.0
O492 O 0.96394 0.30289 0.70595 0.0
O493 O 0.98331 0.29175 0.6932 0.0
O494 O 0.9682 0.30788 0.66225 0.0
O495 O 0.97059 0.28115 0.65089 0.0
C496 C 0.96282 0.2114 0.7119 0.0
C497 C 0.9833 0.22097 0.71805 0.0
H498 H 0.0234 0.24472 0.72766 0.0
H499 H 0.04497 0.27949 0.71489 0.0
H500 H 0.91411 0.21777 0.67471 0.0
H501 H 0.92434 0.19825 0.69764 0.0
H502 H 0.95256 0.19656 0.71769 0.0
H503 H 0.98846 0.21337 0.72853 0.0
Mn504 Mn 0.67004 0.65767 0.67927 0.0
Mn505 Mn 0.71511 0.70035 0.67649 0.0
C506 C 0.69519 0.6642 0.70334 0.0
C507 C 0.63723 0.64032 0.69027 0.0
C508 C 0.70253 0.66302 0.64943 0.0
O509 O 0.66393 0.67525 0.66041 0.0
O510 O 0.69421 0.70344 0.66066 0.0
C511 C 0.70545 0.72813 0.69971 0.0
N512 N 0.71737 0.71968 0.69698 0.0
C513 C 0.73913 0.73917 0.72549 0.0
C514 C 0.72727 0.74834 0.72838 0.0
C515 C 0.71031 0.74272 0.71549 0.0
C516 C 0.73361 0.72482 0.70943 0.0
H517 H 0.69228 0.72372 0.68999 0.0
C518 C 0.67553 0.69355 0.65535 0.0
O519 O 0.64263 0.63421 0.67416 0.0
O520 O 0.65066 0.65686 0.69959 0.0
N521 N 0.73678 0.69994 0.69134 0.0
C522 C 0.74572 0.68854 0.68758 0.0
C523 C 0.76249 0.69171 0.69964 0.0
C524 C 0.76998 0.70664 0.71538 0.0
C525 C 0.7606 0.71825 0.71894 0.0
C526 C 0.74402 0.7145 0.70632 0.0
H527 H 0.7399 0.67687 0.6757 0.0
O528 O 0.68058 0.64582 0.70005 0.0
O529 O 0.69463 0.6783 0.69257 0.0
O530 O 0.68517 0.65235 0.65671 0.0
O531 O 0.71471 0.68125 0.6553 0.0
C532 C 0.76671 0.73299 0.73488 0.0
C533 C 0.75596 0.74342 0.73818 0.0
H534 H 0.7309 0.75953 0.7406 0.0
H535 H 0.70097 0.74959 0.71775 0.0
H536 H 0.76952 0.68255 0.69693 0.0
H537 H 0.78275 0.70886 0.72484 0.0
H538 H 0.77942 0.73614 0.74494 0.0
H539 H 0.76059 0.75447 0.7507 0.0
Mn540 Mn 0.3205 0.31911 0.66868 0.0
Mn541 Mn 0.36452 0.32228 0.68286 0.0
C542 C 0.33491 0.30588 0.64712 0.0
C543 C 0.3038 0.3354 0.65549 0.0
C544 C 0.32463 0.2934 0.70175 0.0
O545 O 0.33141 0.34014 0.69194 0.0
O546 O 0.36282 0.34506 0.69632 0.0
C547 C 0.39335 0.36064 0.66358 0.0
N548 N 0.38554 0.34026 0.66563 0.0
C549 C 0.4091 0.33972 0.64211 0.0
C550 C 0.41749 0.36072 0.63986 0.0
C551 C 0.40952 0.37121 0.65059 0.0
C552 C 0.39302 0.33 0.6553 0.0
H553 H 0.38729 0.36876 0.67183 0.0
C554 C 0.34922 0.34988 0.6996 0.0
O555 O 0.29519 0.32036 0.66791 0.0
O556 O 0.32174 0.34017 0.64985 0.0
N557 N 0.36803 0.3012 0.67056 0.0
C558 C 0.35805 0.28092 0.67417 0.0
C559 C 0.36393 0.26818 0.6643 0.0
C560 C 0.38011 0.27645 0.65097 0.0
C561 C 0.3903 0.29739 0.64766 0.0
C562 C 0.3838 0.30934 0.65797 0.0
H563 H 0.34567 0.27448 0.68449 0.0
O564 O 0.31594 0.3002 0.64488 0.0
O565 O 0.34473 0.31935 0.66156 0.0
O566 O 0.3135 0.29645 0.6891 0.0
O567 O 0.34382 0.30311 0.70144 0.0
C568 C 0.40654 0.30686 0.6344 0.0
C569 C 0.41593 0.32801 0.63163 0.0
H570 H 0.42992 0.36892 0.62979 0.0
H571 H 0.41584 0.3874 0.64884 0.0
H572 H 0.356 0.25204 0.66696 0.0
H573 H 0.38452 0.26656 0.64328 0.0
H574 H 0.41182 0.298 0.62613 0.0
H575 H 0.4283 0.33509 0.62128 0.0
Mn576 Mn 0.68206 0.01896 0.67265 0.0
Mn577 Mn 0.72076 0.01242 0.65934 0.0
C578 C 0.71248 0.03629 0.69063 0.0
C579 C 0.65256 0.00849 0.6904 0.0
C580 C 0.70699 0.03761 0.635 0.0
O581 O 0.6688 0.993 0.65488 0.0
O582 O 0.69513 0.98799 0.65059 0.0
C583 C 0.71373 0.9787 0.68676 0.0
N584 N 0.72604 0.99774 0.67996 0.0
C585 C 0.75318 0.00152 0.70228 0.0
C586 C 0.74095 0.98176 0.70914 0.0
C587 C 0.72108 0.97037 0.70148 0.0
C588 C 0.74499 0.00904 0.68767 0.0
H589 H 0.69837 0.97002 0.68113 0.0
C590 C 0.67634 0.98214 0.64887 0.0
O591 O 0.65632 0.01924 0.67401 0.0
O592 O 0.666 0.00379 0.69646 0.0
N593 N 0.74647 0.03479 0.66729 0.0
C594 C 0.75604 0.05389 0.65971 0.0
C595 C 0.7758 0.06753 0.66648 0.0
C596 C 0.78562 0.06131 0.68069 0.0
C597 C 0.77556 0.0415 0.68806 0.0
C598 C 0.75584 0.02863 0.68089 0.0
H599 H 0.74868 0.05871 0.64859 0.0
O600 O 0.6996 0.04272 0.69131 0.0
O601 O 0.70698 0.01986 0.67974 0.0
O602 O 0.69384 0.03618 0.64751 0.0
O603 O 0.71698 0.02828 0.6373 0.0
C604 C 0.78436 0.034 0.7022 0.0
C605 C 0.77312 0.01409 0.70945 0.0
H606 H 0.74658 0.97528 0.72048 0.0
H607 H 0.71144 0.95523 0.70693 0.0
H608 H 0.78347 0.08278 0.66067 0.0
H609 H 0.80088 0.07186 0.68585 0.0
H610 H 0.79971 0.04349 0.70775 0.0
H611 H 0.77994 0.00864 0.72061 0.0
Mn612 Mn 0.99169 0.67456 0.67911 0.0
Mn613 Mn 0.94445 0.636 0.68436 0.0
C614 C 0.96701 0.66933 0.65501 0.0
C615 C 0.02432 0.68734 0.6676 0.0
C616 C 0.96274 0.67483 0.71031 0.0
O617 O 0.99514 0.65608 0.69939 0.0
O618 O 0.9636 0.62956 0.69899 0.0
C619 C 0.94575 0.60246 0.66198 0.0
N620 N 0.93788 0.61505 0.6641 0.0
C621 C 0.91409 0.59802 0.63615 0.0
C622 C 0.92185 0.5848 0.63375 0.0
C623 C 0.93779 0.58708 0.6467 0.0
C624 C 0.9225 0.61295 0.65177 0.0
H625 H 0.95795 0.60409 0.67192 0.0
C626 C 0.98226 0.63805 0.70436 0.0
O627 O 0.02034 0.69583 0.68283 0.0
O628 O 0.00935 0.67112 0.65934 0.0
N629 N 0.92481 0.64051 0.67028 0.0
C630 C 0.91913 0.6546 0.67447 0.0
C631 C 0.90375 0.65478 0.66248 0.0
C632 C 0.89427 0.64041 0.64641 0.0
C633 C 0.90024 0.62594 0.64251 0.0
C634 C 0.91565 0.62649 0.65498 0.0
H635 H 0.92636 0.6657 0.68679 0.0
O636 O 0.98301 0.68702 0.6571 0.0
O637 O 0.96596 0.65535 0.66713 0.0
O638 O 0.9792 0.68398 0.70096 0.0
O639 O 0.94918 0.65662 0.70598 0.0
C640 C 0.8916 0.61109 0.62664 0.0
C641 C 0.89848 0.59711 0.62349 0.0
H642 H 0.91584 0.57299 0.6219 0.0
H643 H 0.94392 0.57699 0.64489 0.0
H644 H 0.89923 0.666 0.66559 0.0
H645 H 0.88249 0.64066 0.63713 0.0
H646 H 0.87967 0.61031 0.61674 0.0
H647 H 0.89176 0.5858 0.6112 0.0
C648 C 0.2162 0.26529 0.03479 0.0
C649 C 0.22346 0.28443 0.04825 0.0
C650 C 0.20945 0.28291 0.0815 0.0
C651 C 0.21227 0.30254 0.08394 0.0
C652 C 0.19931 0.30615 0.09595 0.0
C653 C 0.18289 0.28965 0.10526 0.0
C654 C 0.18038 0.26987 0.10322 0.0
C655 C 0.19403 0.26685 0.09169 0.0
C656 C 0.20281 0.32752 0.09804 0.0
C657 C 0.16286 0.25179 0.11246 0.0
C658 C 0.0637 0.3153 0.03874 0.0
C659 C 0.07251 0.30346 0.04819 0.0
C660 C 0.10297 0.31086 0.06826 0.0
C661 C 0.09615 0.29097 0.0749 0.0
C662 C 0.10768 0.28676 0.08903 0.0
C663 C 0.12624 0.30278 0.09678 0.0
C664 C 0.13301 0.32282 0.09022 0.0
C665 C 0.12133 0.32654 0.0759 0.0
C666 C 0.10015 0.26522 0.09561 0.0
C667 C 0.15262 0.34031 0.09828 0.0
C668 C 0.08871 0.30958 0.22888 0.0
C669 C 0.08534 0.28994 0.2243 0.0
C670 C 0.09961 0.28709 0.21376 0.0
C671 C 0.11758 0.30419 0.2077 0.0
C672 C 0.12079 0.32395 0.2119 0.0
C673 C 0.10622 0.32636 0.22233 0.0
C674 C 0.09564 0.26581 0.2093 0.0
C675 C 0.13977 0.34251 0.20565 0.0
C676 C 0.23381 0.27344 0.23967 0.0
C677 C 0.23731 0.29395 0.24832 0.0
C678 C 0.20547 0.29301 0.24279 0.0
C679 C 0.18608 0.27655 0.24019 0.0
C680 C 0.17198 0.2776 0.22686 0.0
C681 C 0.17733 0.29584 0.21647 0.0
C682 C 0.19669 0.3129 0.21992 0.0
C683 C 0.21065 0.3112 0.2329 0.0
C684 C 0.15148 0.25915 0.2237 0.0
C685 C 0.20267 0.33288 0.20987 0.0
C686 C 0.16744 0.29282 0.11552 0.0
C687 C 0.15381 0.29528 0.10292 0.0
C688 C 0.13899 0.29863 0.11123 0.0
C689 C 0.13729 0.29907 0.13277 0.0
C690 C 0.12228 0.30198 0.14165 0.0
C691 C 0.12081 0.30254 0.16288 0.0
C692 C 0.1345 0.30053 0.17606 0.0
C693 C 0.13334 0.30142 0.19765 0.0
C694 C 0.14746 0.29981 0.2103 0.0
C695 C 0.16269 0.29709 0.20202 0.0
C696 C 0.16388 0.29578 0.18044 0.0
C697 C 0.17879 0.29271 0.17154 0.0
C698 C 0.18008 0.29186 0.1503 0.0
C699 C 0.16631 0.29372 0.13713 0.0
C700 C 0.15108 0.29672 0.14577 0.0
C701 C 0.1498 0.29765 0.16744 0.0
C702 C 0.05389 0.30828 0.26786 0.0
C703 C 0.05988 0.29887 0.25115 0.0
O704 O 0.22096 0.27904 0.06871 0.0
O705 O 0.21898 0.29103 0.25495 0.0
O706 O 0.07579 0.31303 0.23998 0.0
O707 O 0.0924 0.31566 0.05459 0.0
H708 H 0.21379 0.29108 0.04392 0.0
H709 H 0.20005 0.25471 0.03736 0.0
H710 H 0.22481 0.2574 0.03857 0.0
H711 H 0.21797 0.26923 0.01829 0.0
H712 H 0.22449 0.31496 0.07622 0.0
H713 H 0.19211 0.25176 0.08971 0.0
H714 H 0.19223 0.32924 0.08744 0.0
H715 H 0.21835 0.33895 0.09407 0.0
H716 H 0.19999 0.33077 0.11392 0.0
H717 H 0.16198 0.23723 0.10773 0.0
H718 H 0.14856 0.25127 0.10782 0.0
H719 H 0.16429 0.2532 0.12946 0.0
H720 H 0.06988 0.28966 0.03932 0.0
H721 H 0.06001 0.30961 0.02231 0.0
H722 H 0.07665 0.33054 0.03478 0.0
H723 H 0.0417 0.31205 0.05932 0.0
H724 H 0.08198 0.27869 0.06896 0.0
H725 H 0.12642 0.34182 0.0707 0.0
H726 H 0.11129 0.26041 0.0918 0.0
H727 H 0.08547 0.25442 0.08811 0.0
H728 H 0.09852 0.26436 0.11252 0.0
H729 H 0.1552 0.35515 0.09253 0.0
H730 H 0.16522 0.33802 0.09354 0.0
H731 H 0.15286 0.34085 0.11533 0.0
H732 H 0.04734 0.28734 0.24116 0.0
H733 H 0.07167 0.27682 0.22901 0.0
H734 H 0.10865 0.34144 0.22588 0.0
H735 H 0.09701 0.26376 0.19262 0.0
H736 H 0.08049 0.25409 0.21404 0.0
H737 H 0.10708 0.26337 0.21758 0.0
H738 H 0.14002 0.35684 0.21011 0.0
H739 H 0.14126 0.34214 0.18876 0.0
H740 H 0.15302 0.3425 0.21294 0.0
H741 H 0.24279 0.30494 0.23561 0.0
H742 H 0.24593 0.27558 0.22924 0.0
H743 H 0.21966 0.26592 0.23021 0.0
H744 H 0.23251 0.2631 0.25224 0.0
H745 H 0.18224 0.26266 0.24815 0.0
H746 H 0.22555 0.32409 0.23549 0.0
H747 H 0.14783 0.25574 0.20703 0.0
H748 H 0.14 0.26228 0.23027 0.0
H749 H 0.15045 0.24554 0.23113 0.0
H750 H 0.21707 0.34534 0.21641 0.0
H751 H 0.19078 0.3371 0.21168 0.0
H752 H 0.2044 0.33139 0.19318 0.0
H753 H 0.15494 0.2949 0.08636 0.0
H754 H 0.11143 0.30376 0.13225 0.0
H755 H 0.1089 0.30473 0.16885 0.0
H756 H 0.14661 0.30076 0.22685 0.0
H757 H 0.18971 0.29102 0.1809 0.0
H758 H 0.19201 0.28971 0.14433 0.0
H759 H 0.03818 0.30471 0.26336 0.0
H760 H 0.06087 0.32494 0.26454 0.0
H761 H 0.06054 0.29755 0.29471 0.0
C762 C 0.73256 0.94157 0.03281 0.0
C763 C 0.71577 0.93224 0.04829 0.0
C764 C 0.71977 0.91976 0.08123 0.0
C765 C 0.7 0.90406 0.08353 0.0
C766 C 0.6959 0.88764 0.09615 0.0
C767 C 0.71195 0.88685 0.10649 0.0
C768 C 0.73183 0.90307 0.10481 0.0
C769 C 0.73543 0.91953 0.09241 0.0
C770 C 0.67447 0.8709 0.09807 0.0
C771 C 0.74928 0.90271 0.1156 0.0
C772 C 0.69794 0.737 0.06333 0.0
C773 C 0.70734 0.757 0.07453 0.0
C774 C 0.70012 0.78471 0.08044 0.0
C775 C 0.71605 0.79588 0.09459 0.0
C776 C 0.71706 0.81226 0.10591 0.0
C777 C 0.70139 0.81704 0.10361 0.0
C778 C 0.6854 0.80583 0.08925 0.0
C779 C 0.68522 0.79006 0.07758 0.0
C780 C 0.73487 0.82437 0.12034 0.0
C781 C 0.66838 0.81034 0.08632 0.0
C782 C 0.67845 0.7739 0.23517 0.0
C783 C 0.69757 0.78706 0.22762 0.0
C784 C 0.70121 0.80447 0.21695 0.0
C785 C 0.68523 0.80846 0.21305 0.0
C786 C 0.66587 0.79503 0.22021 0.0
C787 C 0.66279 0.77799 0.23133 0.0
C788 C 0.72221 0.81867 0.21001 0.0
C789 C 0.64848 0.79875 0.21619 0.0
C790 C 0.73347 0.96395 0.2434 0.0
C791 C 0.71248 0.94676 0.2486 0.0
C792 C 0.70999 0.91387 0.24257 0.0
C793 C 0.72407 0.90734 0.2409 0.0
C794 C 0.72017 0.89068 0.22817 0.0
C795 C 0.70143 0.87995 0.21743 0.0
C796 C 0.68676 0.88598 0.21982 0.0
C797 C 0.69128 0.90304 0.23227 0.0
C798 C 0.73614 0.88462 0.22614 0.0
C799 C 0.66633 0.87439 0.2093 0.0
C800 C 0.70797 0.86847 0.11801 0.0
C801 C 0.70672 0.85199 0.10685 0.0
C802 C 0.70173 0.83366 0.11628 0.0
C803 C 0.69754 0.83155 0.13745 0.0
C804 C 0.69126 0.81299 0.14722 0.0
C805 C 0.68805 0.8113 0.16822 0.0
C806 C 0.69111 0.82815 0.18027 0.0
C807 C 0.68897 0.82688 0.2018 0.0
C808 C 0.6919 0.84384 0.2133 0.0
C809 C 0.69717 0.86226 0.20395 0.0
C810 C 0.69946 0.86388 0.18243 0.0
C811 C 0.70477 0.88217 0.17247 0.0
C812 C 0.70717 0.88361 0.15131 0.0
C813 C 0.70496 0.86701 0.1394 0.0
C814 C 0.69967 0.84844 0.14913 0.0
C815 C 0.69661 0.84679 0.17061 0.0
C816 C 0.6824 0.73694 0.26909 0.0
C817 C 0.68863 0.75154 0.25194 0.0
O818 O 0.72416 0.93499 0.06795 0.0
O819 O 0.71468 0.93042 0.25457 0.0
O820 O 0.67466 0.75742 0.24646 0.0
O821 O 0.69853 0.76865 0.06937 0.0
H822 H 0.7071 0.91574 0.0441 0.0
H823 H 0.74165 0.9338 0.03349 0.0
H824 H 0.7427 0.95799 0.0362 0.0
H825 H 0.7261 0.93965 0.01697 0.0
H826 H 0.68781 0.90459 0.07531 0.0
H827 H 0.75061 0.93188 0.09067 0.0
H828 H 0.67259 0.85677 0.09069 0.0
H829 H 0.66356 0.87473 0.09072 0.0
H830 H 0.67088 0.86776 0.11452 0.0
H831 H 0.76387 0.91635 0.11244 0.0
H832 H 0.74991 0.88897 0.11062 0.0
H833 H 0.74713 0.90185 0.13243 0.0
H834 H 0.72407 0.76567 0.07455 0.0
H835 H 0.71019 0.73758 0.0536 0.0
H836 H 0.68898 0.73809 0.04992 0.0
H837 H 0.68485 0.71594 0.08662 0.0
H838 H 0.72785 0.79206 0.09667 0.0
H839 H 0.67306 0.78141 0.06653 0.0
H840 H 0.74029 0.84088 0.11913 0.0
H841 H 0.74751 0.82155 0.11718 0.0
H842 H 0.73034 0.82004 0.13639 0.0
H843 H 0.65559 0.79821 0.07718 0.0
H844 H 0.67389 0.82483 0.07814 0.0
H845 H 0.66287 0.81213 0.10141 0.0
H846 H 0.6946 0.74741 0.23833 0.0
H847 H 0.70984 0.78401 0.23017 0.0
H848 H 0.64809 0.76776 0.23714 0.0
H849 H 0.7226 0.81762 0.19304 0.0
H850 H 0.73344 0.815 0.21681 0.0
H851 H 0.72672 0.83463 0.21425 0.0
H852 H 0.63399 0.78589 0.22102 0.0
H853 H 0.64725 0.80129 0.19958 0.0
H854 H 0.65118 0.81268 0.22471 0.0
H855 H 0.70287 0.94297 0.23438 0.0
H856 H 0.73248 0.97497 0.23302 0.0
H857 H 0.74174 0.95767 0.23496 0.0
H858 H 0.7424 0.97182 0.25753 0.0
H859 H 0.73834 0.91569 0.24922 0.0
H860 H 0.68014 0.90775 0.23421 0.0
H861 H 0.73873 0.88305 0.20968 0.0
H862 H 0.73098 0.86965 0.23323 0.0
H863 H 0.75062 0.89581 0.23375 0.0
H864 H 0.65597 0.87983 0.2143 0.0
H865 H 0.6595 0.85796 0.21252 0.0
H866 H 0.6679 0.87606 0.19243 0.0
H867 H 0.70961 0.85344 0.09054 0.0
H868 H 0.68884 0.79955 0.13876 0.0
H869 H 0.68335 0.79666 0.17492 0.0
H870 H 0.69057 0.84284 0.22986 0.0
H871 H 0.70708 0.89558 0.18091 0.0
H872 H 0.71113 0.89803 0.14446 0.0
H873 H 0.70339 0.75346 0.29276 0.0
H874 H 0.68088 0.72257 0.26211 0.0
H875 H 0.66574 0.73064 0.27064 0.0
C876 C 0.202 0.93277 0.03626 0.0
C877 C 0.21674 0.9379 0.05462 0.0
C878 C 0.19911 0.90879 0.07734 0.0
C879 C 0.18436 0.9135 0.08364 0.0
C880 C 0.16919 0.9007 0.09679 0.0
C881 C 0.16872 0.88287 0.10383 0.0
C882 C 0.18374 0.8783 0.09789 0.0
C883 C 0.19875 0.89135 0.08473 0.0
C884 C 0.15338 0.90601 0.10287 0.0
C885 C 0.1837 0.85941 0.10512 0.0
C886 C 0.05531 0.78853 0.02392 0.0
C887 C 0.06198 0.77977 0.04155 0.0
C888 C 0.07098 0.79689 0.07497 0.0
C889 C 0.08683 0.79355 0.08082 0.0
C890 C 0.10177 0.80665 0.09503 0.0
C891 C 0.10086 0.8235 0.10342 0.0
C892 C 0.08438 0.82635 0.09821 0.0
C893 C 0.06943 0.81275 0.08425 0.0
C894 C 0.11886 0.80286 0.10058 0.0
C895 C 0.08299 0.8442 0.10673 0.0
C896 C 0.06974 0.79823 0.23733 0.0
C897 C 0.08489 0.79384 0.23193 0.0
C898 C 0.10144 0.80772 0.22086 0.0
C899 C 0.10296 0.82643 0.21529 0.0
C900 C 0.08811 0.83121 0.2214 0.0
C901 C 0.07174 0.81706 0.23249 0.0
C902 C 0.11727 0.80237 0.21501 0.0
C903 C 0.08944 0.85115 0.21597 0.0
C904 C 0.2404 0.95711 0.24243 0.0
C905 C 0.2306 0.94119 0.25898 0.0
C906 C 0.20715 0.90997 0.23935 0.0
C907 C 0.2041 0.89111 0.23247 0.0
C908 C 0.18697 0.87785 0.22063 0.0
C909 C 0.17247 0.88364 0.21558 0.0
C910 C 0.17538 0.90271 0.22246 0.0
C911 C 0.19272 0.91574 0.23424 0.0
C912 C 0.18436 0.85764 0.21352 0.0
C913 C 0.16015 0.90928 0.21732 0.0
C914 C 0.15175 0.86832 0.11622 0.0
C915 C 0.13465 0.85349 0.10562 0.0
C916 C 0.11806 0.83906 0.11605 0.0
C917 C 0.11836 0.83946 0.13776 0.0
C918 C 0.10193 0.82521 0.14877 0.0
C919 C 0.10238 0.82579 0.17016 0.0
C920 C 0.11939 0.84046 0.18136 0.0
C921 C 0.12009 0.84102 0.20309 0.0
C922 C 0.13742 0.85549 0.21372 0.0
C923 C 0.15418 0.86959 0.20324 0.0
C924 C 0.15362 0.86958 0.18152 0.0
C925 C 0.17009 0.88378 0.1705 0.0
C926 C 0.16947 0.88351 0.14912 0.0
C927 C 0.15244 0.86891 0.13794 0.0
C928 C 0.13564 0.85445 0.14874 0.0
C929 C 0.13619 0.85487 0.17055 0.0
C930 C 0.02176 0.75618 0.23724 0.0
C931 C 0.0434 0.76385 0.24494 0.0
O932 O 0.21371 0.9203 0.06403 0.0
O933 O 0.22419 0.92194 0.25072 0.0
O934 O 0.05312 0.78481 0.2473 0.0
O935 O 0.05728 0.78534 0.06009 0.0
H936 H 0.21424 0.94753 0.06581 0.0
H937 H 0.18629 0.92509 0.04142 0.0
H938 H 0.20354 0.9225 0.02505 0.0
H939 H 0.20486 0.94687 0.02842 0.0
H940 H 0.18433 0.92692 0.07821 0.0
H941 H 0.21018 0.88784 0.07989 0.0
H942 H 0.13846 0.89421 0.09667 0.0
H943 H 0.15644 0.921 0.09709 0.0
H944 H 0.15253 0.90623 0.11987 0.0
H945 H 0.1968 0.85834 0.09966 0.0
H946 H 0.16972 0.84579 0.09947 0.0
H947 H 0.18384 0.85921 0.12216 0.0
H948 H 0.07856 0.78658 0.04038 0.0
H949 H 0.05891 0.78419 0.0089 0.0
H950 H 0.06338 0.80536 0.02535 0.0
H951 H 0.03892 0.78302 0.02418 0.0
H952 H 0.08762 0.78084 0.07407 0.0
H953 H 0.05696 0.815 0.07978 0.0
H954 H 0.12155 0.80407 0.11749 0.0
H955 H 0.1328 0.81461 0.09355 0.0
H956 H 0.11595 0.78769 0.09507 0.0
H957 H 0.06936 0.84444 0.10091 0.0
H958 H 0.09646 0.85857 0.10257 0.0
H959 H 0.08272 0.8437 0.12375 0.0
H960 H 0.0504 0.75918 0.23277 0.0
H961 H 0.08392 0.77967 0.23646 0.0
H962 H 0.06015 0.82045 0.23702 0.0
H963 H 0.11842 0.80245 0.19804 0.0
H964 H 0.11395 0.78723 0.22055 0.0
H965 H 0.13212 0.81399 0.22153 0.0
H966 H 0.0767 0.85261 0.22192 0.0
H967 H 0.08959 0.8526 0.19902 0.0
H968 H 0.10371 0.8639 0.22237 0.0
H969 H 0.21756 0.94197 0.26515 0.0
H970 H 0.2455 0.97257 0.24894 0.0
H971 H 0.22949 0.95431 0.22961 0.0
H972 H 0.25351 0.95655 0.23615 0.0
H973 H 0.2153 0.8868 0.23643 0.0
H974 H 0.19482 0.93031 0.2393 0.0
H975 H 0.183 0.85642 0.1965 0.0
H976 H 0.17026 0.84517 0.21958 0.0
H977 H 0.19709 0.85546 0.21863 0.0
H978 H 0.16459 0.92461 0.22376 0.0
H979 H 0.14535 0.89822 0.22342 0.0
H980 H 0.15822 0.90941 0.20039 0.0
H981 H 0.13429 0.85308 0.08895 0.0
H982 H 0.08852 0.8135 0.14095 0.0
H983 H 0.08926 0.8145 0.17781 0.0
H984 H 0.13797 0.85562 0.23039 0.0
H985 H 0.18364 0.89531 0.1783 0.0
H986 H 0.18257 0.89482 0.14144 0.0
H987 H 0.01363 0.73936 0.23558 0.0
H988 H 0.0218 0.7626 0.22197 0.0
H989 H 0.01355 0.76084 0.24789 0.0
C990 C 0.30801 0.06215 0.97031 0.0
C991 C 0.29716 0.07086 0.95861 0.0
C992 C 0.30358 0.10322 0.94427 0.0
C993 C 0.28462 0.09573 0.93446 0.0
C994 C 0.2805 0.10813 0.92163 0.0
C995 C 0.29581 0.12824 0.91808 0.0
C996 C 0.31494 0.13573 0.92783 0.0
C997 C 0.31846 0.12318 0.941 0.0
C998 C 0.25974 0.09978 0.91198 0.0
C999 C 0.3317 0.15704 0.92445 0.0
C1000 C 0.26963 0.2276 0.98502 0.0
C1001 C 0.28531 0.23357 0.9684 0.0
C1002 C 0.27792 0.21442 0.93654 0.0
C1003 C 0.29705 0.21827 0.93105 0.0
C1004 C 0.29948 0.20401 0.9194 0.0
C1005 C 0.28236 0.1855 0.91318 0.0
C1006 C 0.26295 0.18194 0.91801 0.0
C1007 C 0.26097 0.19662 0.9295 0.0
C1008 C 0.32035 0.20856 0.91403 0.0
C1009 C 0.2444 0.16245 0.91143 0.0
C1010 C 0.27883 0.20883 0.77911 0.0
C1011 C 0.29803 0.21306 0.78605 0.0
C1012 C 0.30061 0.19889 0.79757 0.0
C1013 C 0.28367 0.18006 0.80204 0.0
C1014 C 0.26444 0.1754 0.79426 0.0
C1015 C 0.2623 0.18983 0.78273 0.0
C1016 C 0.3214 0.20412 0.80519 0.0
C1017 C 0.24611 0.15536 0.79851 0.0
C1018 C 0.29272 0.04691 0.78844 0.0
C1019 C 0.29585 0.06079 0.77031 0.0
C1020 C 0.30399 0.09384 0.78612 0.0
C1021 C 0.31957 0.11354 0.79038 0.0
C1022 C 0.3161 0.12784 0.80063 0.0
C1023 C 0.29644 0.12228 0.80663 0.0
C1024 C 0.28052 0.1024 0.80229 0.0
C1025 C 0.28446 0.0883 0.79222 0.0
C1026 C 0.33346 0.14887 0.80515 0.0
C1027 C 0.25935 0.09605 0.8084 0.0
C1028 C 0.29175 0.1416 0.90452 0.0
C1029 C 0.28812 0.15615 0.91383 0.0
C1030 C 0.28488 0.16971 0.90212 0.0
C1031 C 0.2849 0.16861 0.88045 0.0
C1032 C 0.28167 0.18201 0.86824 0.0
C1033 C 0.28194 0.18097 0.84693 0.0
C1034 C 0.28549 0.16651 0.83699 0.0
C1035 C 0.28604 0.1655 0.81533 0.0
C1036 C 0.28942 0.15082 0.80594 0.0
C1037 C 0.2926 0.13722 0.81764 0.0
C1038 C 0.29244 0.1382 0.83932 0.0
C1039 C 0.29611 0.12509 0.85156 0.0
C1040 C 0.29599 0.12622 0.87289 0.0
C1041 C 0.29202 0.14038 0.88283 0.0
C1042 C 0.28845 0.15387 0.87078 0.0
C1043 C 0.28872 0.15281 0.84902 0.0
C1044 C 0.27119 0.25013 0.77985 0.0
C1045 C 0.28593 0.24343 0.77246 0.0
O1046 O 0.30812 0.09179 0.95696 0.0
O1047 O 0.30864 0.08085 0.77624 0.0
O1048 O 0.27571 0.2226 0.76883 0.0
O1049 O 0.27562 0.22731 0.94933 0.0
H1050 H 0.2814 0.06534 0.96326 0.0
H1051 H 0.32087 0.07517 0.979 0.0
H1052 H 0.3122 0.04449 0.94819 0.0
H1053 H 0.29888 0.05546 0.98434 0.0
H1054 H 0.27289 0.08033 0.93693 0.0
H1055 H 0.33302 0.12884 0.94864 0.0
H1056 H 0.25399 0.11048 0.91471 0.0
H1057 H 0.24892 0.08475 0.9181 0.0
H1058 H 0.26043 0.09809 0.89512 0.0
H1059 H 0.3464 0.15949 0.93057 0.0
H1060 H 0.32824 0.16797 0.93232 0.0
H1061 H 0.33299 0.16042 0.90782 0.0
H1062 H 0.29346 0.22515 0.97213 0.0
H1063 H 0.27712 0.23332 0.00034 0.0
H1064 H 0.26048 0.21079 0.98547 0.0
H1065 H 0.2593 0.23368 0.98183 0.0
H1066 H 0.31006 0.23238 0.93602 0.0
H1067 H 0.24625 0.19391 0.93373 0.0
H1068 H 0.32117 0.20687 0.89718 0.0
H1069 H 0.32381 0.19749 0.9215 0.0
H1070 H 0.33199 0.22413 0.91902 0.0
H1071 H 0.23039 0.16202 0.91634 0.0
H1072 H 0.24511 0.14935 0.91807 0.0
H1073 H 0.24378 0.1606 0.89446 0.0
H1074 H 0.29731 0.24767 0.7852 0.0
H1075 H 0.31103 0.22737 0.78244 0.0
H1076 H 0.2476 0.18658 0.77698 0.0
H1077 H 0.32196 0.20435 0.82225 0.0
H1078 H 0.33313 0.21911 0.79983 0.0
H1079 H 0.32494 0.19229 0.79985 0.0
H1080 H 0.23224 0.15394 0.79114 0.0
H1081 H 0.24406 0.15369 0.81535 0.0
H1082 H 0.24827 0.14271 0.79282 0.0
H1083 H 0.28115 0.05893 0.76493 0.0
H1084 H 0.28242 0.03081 0.78381 0.0
H1085 H 0.28595 0.05088 0.80133 0.0
H1086 H 0.3073 0.04853 0.79396 0.0
H1087 H 0.33459 0.11767 0.78567 0.0
H1088 H 0.2722 0.07308 0.78931 0.0
H1089 H 0.33447 0.1525 0.82184 0.0
H1090 H 0.33086 0.16018 0.79692 0.0
H1091 H 0.34802 0.15049 0.8004 0.0
H1092 H 0.2484 0.08043 0.80284 0.0
H1093 H 0.2547 0.10675 0.80215 0.0
H1094 H 0.25877 0.09668 0.82539 0.0
H1095 H 0.28813 0.15716 0.93046 0.0
H1096 H 0.27891 0.19348 0.87504 0.0
H1097 H 0.27935 0.19168 0.83834 0.0
H1098 H 0.28979 0.15012 0.78932 0.0
H1099 H 0.2992 0.11384 0.84478 0.0
H1100 H 0.29903 0.11582 0.88149 0.0
H1101 H 0.27907 0.26683 0.78262 0.0
H1102 H 0.26467 0.24265 0.79451 0.0
H1103 H 0.25869 0.2459 0.76844 0.0
C1104 C 0.79394 0.06089 0.98484 0.0
C1105 C 0.78205 0.06806 0.9715 0.0
C1106 C 0.7962 0.08049 0.93825 0.0
C1107 C 0.79356 0.09742 0.93614 0.0
C1108 C 0.80626 0.11359 0.92381 0.0
C1109 C 0.82207 0.11285 0.91364 0.0
C1110 C 0.82424 0.09538 0.91514 0.0
C1111 C 0.81099 0.07922 0.9272 0.0
C1112 C 0.80313 0.1317 0.9221 0.0
C1113 C 0.84097 0.0941 0.90463 0.0
C1114 C 0.95888 0.25704 0.96362 0.0
C1115 C 0.9485 0.23682 0.95282 0.0
C1116 C 0.91419 0.20941 0.94688 0.0
C1117 C 0.91844 0.19786 0.93297 0.0
C1118 C 0.90314 0.1827 0.92045 0.0
C1119 C 0.88334 0.17962 0.9213 0.0
C1120 C 0.87901 0.19106 0.93559 0.0
C1121 C 0.89446 0.20553 0.94849 0.0
C1122 C 0.90824 0.17009 0.90629 0.0
C1123 C 0.85814 0.18823 0.93715 0.0
C1124 C 0.90795 0.22782 0.78861 0.0
C1125 C 0.91284 0.21336 0.79607 0.0
C1126 C 0.89902 0.19677 0.80726 0.0
C1127 C 0.88012 0.19485 0.81155 0.0
C1128 C 0.87542 0.20973 0.80466 0.0
C1129 C 0.88938 0.22596 0.79317 0.0
C1130 C 0.90446 0.18101 0.81402 0.0
C1131 C 0.85549 0.20826 0.80909 0.0
C1132 C 0.79141 0.05865 0.74886 0.0
C1133 C 0.77703 0.06675 0.75343 0.0
C1134 C 0.79813 0.09926 0.77074 0.0
C1135 C 0.81726 0.102 0.77533 0.0
C1136 C 0.8292 0.11509 0.79144 0.0
C1137 C 0.82215 0.12634 0.80262 0.0
C1138 C 0.80288 0.12376 0.79786 0.0
C1139 C 0.79105 0.11015 0.78195 0.0
C1140 C 0.84973 0.11754 0.79589 0.0
C1141 C 0.79515 0.13597 0.80901 0.0
C1142 C 0.83739 0.13113 0.9032 0.0
C1143 C 0.8528 0.14623 0.91551 0.0
C1144 C 0.8672 0.16447 0.90726 0.0
C1145 C 0.86619 0.16789 0.88606 0.0
C1146 C 0.8798 0.18646 0.87737 0.0
C1147 C 0.87919 0.18941 0.85637 0.0
C1148 C 0.86496 0.17391 0.84326 0.0
C1149 C 0.86473 0.17647 0.82181 0.0
C1150 C 0.85023 0.16084 0.80927 0.0
C1151 C 0.83595 0.1425 0.81744 0.0
C1152 C 0.8359 0.1396 0.83886 0.0
C1153 C 0.82172 0.12137 0.84766 0.0
C1154 C 0.82193 0.11867 0.86879 0.0
C1155 C 0.83667 0.13388 0.88181 0.0
C1156 C 0.85114 0.15237 0.87324 0.0
C1157 C 0.85059 0.15533 0.85179 0.0
C1158 C 0.94718 0.26173 0.75314 0.0
C1159 C 0.93915 0.24717 0.77029 0.0
O1160 O 0.78473 0.06527 0.95096 0.0
O1161 O 0.78725 0.08779 0.75424 0.0
O1162 O 0.92047 0.24341 0.77665 0.0
O1163 O 0.9288 0.2247 0.95861 0.0
H1164 H 0.78814 0.08449 0.97525 0.0
H1165 H 0.81015 0.06979 0.98141 0.0
H1166 H 0.78875 0.04456 0.98176 0.0
H1167 H 0.79218 0.06318 0.00138 0.0
H1168 H 0.78164 0.09802 0.94426 0.0
H1169 H 0.81267 0.06589 0.92876 0.0
H1170 H 0.81556 0.14488 0.93048 0.0
H1171 H 0.78869 0.12881 0.92862 0.0
H1172 H 0.80342 0.13588 0.90576 0.0
H1173 H 0.84067 0.07951 0.90743 0.0
H1174 H 0.8557 0.10677 0.9102 0.0
H1175 H 0.83978 0.09574 0.88782 0.0
H1176 H 0.95719 0.22858 0.95236 0.0
H1177 H 0.97162 0.25719 0.97275 0.0
H1178 H 0.94982 0.25579 0.97749 0.0
H1179 H 0.96358 0.27751 0.94006 0.0
H1180 H 0.93364 0.20051 0.93198 0.0
H1181 H 0.89135 0.21445 0.95941 0.0
H1182 H 0.89641 0.15387 0.90636 0.0
H1183 H 0.92289 0.17126 0.91066 0.0
H1184 H 0.90919 0.17548 0.89036 0.0
H1185 H 0.85807 0.20072 0.94619 0.0
H1186 H 0.84847 0.17374 0.94486 0.0
H1187 H 0.85141 0.18738 0.92164 0.0
H1188 H 0.94991 0.25022 0.78345 0.0
H1189 H 0.92725 0.21468 0.79292 0.0
H1190 H 0.88574 0.23719 0.78744 0.0
H1191 H 0.90524 0.1809 0.83104 0.0
H1192 H 0.91913 0.18391 0.80813 0.0
H1193 H 0.89268 0.16567 0.80859 0.0
H1194 H 0.85509 0.22225 0.80493 0.0
H1195 H 0.85224 0.2054 0.82564 0.0
H1196 H 0.84337 0.19524 0.80019 0.0
H1197 H 0.7702 0.06101 0.76857 0.0
H1198 H 0.78303 0.04209 0.74539 0.0
H1199 H 0.80122 0.0608 0.76251 0.0
H1200 H 0.80085 0.06663 0.73565 0.0
H1201 H 0.82323 0.09451 0.76588 0.0
H1202 H 0.77643 0.10829 0.77788 0.0
H1203 H 0.85238 0.11736 0.8127 0.0
H1204 H 0.86136 0.13242 0.79024 0.0
H1205 H 0.85161 0.10541 0.78829 0.0
H1206 H 0.77989 0.13227 0.80339 0.0
H1207 H 0.80555 0.15242 0.80699 0.0
H1208 H 0.79468 0.13306 0.82571 0.0
H1209 H 0.85352 0.14379 0.93183 0.0
H1210 H 0.89115 0.19891 0.8867 0.0
H1211 H 0.89012 0.20394 0.85051 0.0
H1212 H 0.85036 0.16281 0.79278 0.0
H1213 H 0.81025 0.10904 0.83831 0.0
H1214 H 0.81058 0.1044 0.87476 0.0
H1215 H 0.96091 0.27536 0.75992 0.0
H1216 H 0.93791 0.26953 0.75214 0.0
H1217 H 0.94856 0.24402 0.729 0.0
C1218 C 0.78191 0.71605 0.97533 0.0
C1219 C 0.76567 0.70802 0.95804 0.0
C1220 C 0.78585 0.70219 0.93248 0.0
C1221 C 0.79952 0.72246 0.92809 0.0
C1222 C 0.8169 0.72733 0.91715 0.0
C1223 C 0.82053 0.71162 0.91042 0.0
C1224 C 0.80649 0.69118 0.91443 0.0
C1225 C 0.78922 0.68676 0.92523 0.0
C1226 C 0.83143 0.74924 0.91279 0.0
C1227 C 0.80982 0.674 0.90751 0.0
C1228 C 0.94527 0.74604 0.99466 0.0
C1229 C 0.93459 0.72989 0.97767 0.0
C1230 C 0.92231 0.73516 0.94472 0.0
C1231 C 0.90668 0.7153 0.94077 0.0
C1232 C 0.89119 0.71142 0.92639 0.0
C1233 C 0.89121 0.7278 0.91603 0.0
C1234 C 0.9072 0.74781 0.91975 0.0
C1235 C 0.92277 0.75115 0.93378 0.0
C1236 C 0.87463 0.68984 0.92257 0.0
C1237 C 0.90757 0.76571 0.90936 0.0
C1238 C 0.92873 0.72588 0.78631 0.0
C1239 C 0.91351 0.70655 0.79179 0.0
C1240 C 0.89612 0.70409 0.80114 0.0
C1241 C 0.89372 0.72124 0.80471 0.0
C1242 C 0.90859 0.74056 0.79833 0.0
C1243 C 0.92589 0.7426 0.78911 0.0
C1244 C 0.88039 0.6832 0.80742 0.0
C1245 C 0.90636 0.75909 0.80163 0.0
C1246 C 0.74312 0.67335 0.79107 0.0
C1247 C 0.75263 0.68591 0.77206 0.0
C1248 C 0.78645 0.69095 0.77671 0.0
C1249 C 0.79394 0.67778 0.78039 0.0
C1250 C 0.81172 0.68415 0.79204 0.0
C1251 C 0.82266 0.7045 0.79946 0.0
C1252 C 0.81571 0.71826 0.79468 0.0
C1253 C 0.79746 0.71123 0.78358 0.0
C1254 C 0.81865 0.66902 0.79655 0.0
C1255 C 0.82743 0.74029 0.80146 0.0
C1256 C 0.83914 0.71645 0.89949 0.0
C1257 C 0.85633 0.72094 0.91133 0.0
C1258 C 0.87397 0.72407 0.90221 0.0
C1259 C 0.87466 0.72299 0.88055 0.0
C1260 C 0.89203 0.72576 0.87082 0.0
C1261 C 0.89253 0.72466 0.84951 0.0
C1262 C 0.87558 0.72048 0.8371 0.0
C1263 C 0.87583 0.71896 0.81545 0.0
C1264 C 0.85861 0.71444 0.80361 0.0
C1265 C 0.84091 0.71105 0.81281 0.0
C1266 C 0.84041 0.7126 0.83444 0.0
C1267 C 0.82281 0.7091 0.84425 0.0
C1268 C 0.82246 0.71067 0.8655 0.0
C1269 C 0.83955 0.71536 0.87784 0.0
C1270 C 0.85739 0.71873 0.86834 0.0
C1271 C 0.85784 0.71742 0.8466 0.0
C1272 C 0.97705 0.73166 0.79048 0.0
C1273 C 0.95569 0.71765 0.782 0.0
O1274 O 0.76915 0.6967 0.94348 0.0
O1275 O 0.76873 0.68368 0.76614 0.0
O1276 O 0.94626 0.72899 0.77828 0.0
O1277 O 0.93708 0.73943 0.95904 0.0
H1278 H 0.7655 0.72103 0.95043 0.0
H1279 H 0.79671 0.72732 0.96949 0.0
H1280 H 0.78335 0.70344 0.98219 0.0
H1281 H 0.77805 0.72376 0.98757 0.0
H1282 H 0.79666 0.73444 0.93314 0.0
H1283 H 0.77842 0.67116 0.92851 0.0
H1284 H 0.84615 0.75379 0.92055 0.0
H1285 H 0.826 0.75961 0.91816 0.0
H1286 H 0.83394 0.7511 0.89604 0.0
H1287 H 0.79792 0.65903 0.91272 0.0
H1288 H 0.8246 0.67659 0.91354 0.0
H1289 H 0.8101 0.67352 0.89049 0.0
H1290 H 0.91837 0.72161 0.98144 0.0
H1291 H 0.94322 0.7388 0.00985 0.0
H1292 H 0.93883 0.75636 0.99517 0.0
H1293 H 0.96159 0.75522 0.99185 0.0
H1294 H 0.9066 0.70283 0.94886 0.0
H1295 H 0.93504 0.7664 0.93685 0.0
H1296 H 0.8715 0.68655 0.90582 0.0
H1297 H 0.86068 0.68778 0.92958 0.0
H1298 H 0.87841 0.67865 0.92927 0.0
H1299 H 0.92008 0.78042 0.91534 0.0
H1300 H 0.89316 0.76557 0.91157 0.0
H1301 H 0.90929 0.76463 0.8926 0.0
H1302 H 0.94812 0.70655 0.79431 0.0
H1303 H 0.9151 0.69334 0.78874 0.0
H1304 H 0.93754 0.75739 0.7845 0.0
H1305 H 0.87811 0.68322 0.8242 0.0
H1306 H 0.88455 0.67142 0.80371 0.0
H1307 H 0.86586 0.67905 0.79949 0.0
H1308 H 0.91903 0.77297 0.79536 0.0
H1309 H 0.90553 0.76161 0.81832 0.0
H1310 H 0.89211 0.75661 0.79418 0.0
H1311 H 0.75789 0.70215 0.77588 0.0
H1312 H 0.72997 0.67482 0.79558 0.0
H1313 H 0.75418 0.67888 0.80418 0.0
H1314 H 0.73816 0.65707 0.78798 0.0
H1315 H 0.78541 0.66224 0.77464 0.0
H1316 H 0.79201 0.72164 0.78002 0.0
H1317 H 0.82282 0.6697 0.81309 0.0
H1318 H 0.83218 0.67284 0.78759 0.0
H1319 H 0.80696 0.65322 0.79235 0.0
H1320 H 0.82195 0.74964 0.79352 0.0
H1321 H 0.84363 0.74659 0.79847 0.0
H1322 H 0.82594 0.74159 0.81824 0.0
H1323 H 0.85582 0.72156 0.92795 0.0
H1324 H 0.90545 0.72884 0.87958 0.0
H1325 H 0.90635 0.72702 0.84288 0.0
H1326 H 0.85885 0.71306 0.78703 0.0
H1327 H 0.80908 0.70514 0.83562 0.0
H1328 H 0.80854 0.70798 0.87215 0.0
H1329 H 0.985 0.72291 0.79312 0.0
H1330 H 0.97642 0.73855 0.80539 0.0
H1331 H 0.9858 0.74414 0.77983 0.0
C1332 C 0.8803 0.61066 0.36962 0.0
C1333 C 0.89049 0.62887 0.38458 0.0
C1334 C 0.8743 0.6239 0.41724 0.0
C1335 C 0.87566 0.64277 0.42113 0.0
C1336 C 0.86178 0.64438 0.43365 0.0
C1337 C 0.84603 0.62666 0.44214 0.0
C1338 C 0.84495 0.60765 0.43855 0.0
C1339 C 0.85939 0.6066 0.42643 0.0
C1340 C 0.86378 0.66499 0.43749 0.0
C1341 C 0.82826 0.58838 0.44704 0.0
C1342 C 0.71928 0.65286 0.39707 0.0
C1343 C 0.72728 0.6406 0.40712 0.0
C1344 C 0.75881 0.64699 0.42417 0.0
C1345 C 0.75448 0.62666 0.42414 0.0
C1346 C 0.76848 0.62151 0.43232 0.0
C1347 C 0.78707 0.637 0.44057 0.0
C1348 C 0.79179 0.65754 0.43967 0.0
C1349 C 0.7775 0.66221 0.4316 0.0
C1350 C 0.76308 0.5995 0.43306 0.0
C1351 C 0.81159 0.6745 0.44808 0.0
C1352 C 0.75611 0.64445 0.56847 0.0
C1353 C 0.75213 0.62438 0.56541 0.0
C1354 C 0.76643 0.62036 0.55654 0.0
C1355 C 0.78496 0.6367 0.55052 0.0
C1356 C 0.78898 0.6569 0.55364 0.0
C1357 C 0.77446 0.66047 0.56257 0.0
C1358 C 0.76159 0.59866 0.55313 0.0
C1359 C 0.8085 0.67473 0.5473 0.0
C1360 C 0.92628 0.64737 0.55999 0.0
C1361 C 0.91875 0.65299 0.5793 0.0
C1362 C 0.88224 0.63683 0.57401 0.0
C1363 C 0.86565 0.61756 0.57033 0.0
C1364 C 0.84822 0.61516 0.56013 0.0
C1365 C 0.84746 0.63254 0.5536 0.0
C1366 C 0.86378 0.6521 0.55825 0.0
C1367 C 0.88087 0.65405 0.56865 0.0
C1368 C 0.83086 0.59411 0.55583 0.0
C1369 C 0.86327 0.67102 0.55209 0.0
C1370 C 0.83019 0.6279 0.45388 0.0
C1371 C 0.81548 0.62997 0.44272 0.0
C1372 C 0.80046 0.63179 0.45271 0.0
C1373 C 0.79949 0.63079 0.47432 0.0
C1374 C 0.78414 0.63194 0.48469 0.0
C1375 C 0.78391 0.63217 0.50598 0.0
C1376 C 0.79906 0.63133 0.51778 0.0
C1377 C 0.79954 0.63277 0.53946 0.0
C1378 C 0.81496 0.63217 0.55078 0.0
C1379 C 0.83016 0.63044 0.54095 0.0
C1380 C 0.8299 0.62897 0.51924 0.0
C1381 C 0.84513 0.62758 0.50883 0.0
C1382 C 0.84517 0.62701 0.48744 0.0
C1383 C 0.83002 0.62785 0.47563 0.0
C1384 C 0.81449 0.62914 0.48584 0.0
C1385 C 0.81434 0.62955 0.50764 0.0
C1386 C 0.71839 0.64618 0.60149 0.0
C1387 C 0.72529 0.63577 0.58678 0.0
O1388 O 0.88715 0.62204 0.40456 0.0
O1389 O 0.89915 0.63816 0.58279 0.0
O1390 O 0.7428 0.64908 0.57713 0.0
O1391 O 0.74541 0.65264 0.41754 0.0
H1392 H 0.88349 0.63851 0.38155 0.0
H1393 H 0.86388 0.60226 0.37213 0.0
H1394 H 0.88631 0.60011 0.37195 0.0
H1395 H 0.88271 0.61583 0.3535 0.0
H1396 H 0.88759 0.6562 0.41435 0.0
H1397 H 0.85865 0.59214 0.42343 0.0
H1398 H 0.85194 0.66609 0.42839 0.0
H1399 H 0.87863 0.67748 0.43297 0.0
H1400 H 0.86165 0.66713 0.45396 0.0
H1401 H 0.82851 0.57465 0.44129 0.0
H1402 H 0.81346 0.58694 0.44285 0.0
H1403 H 0.82968 0.58895 0.46405 0.0
H1404 H 0.71633 0.62766 0.41628 0.0
H1405 H 0.70475 0.64846 0.40486 0.0
H1406 H 0.72057 0.64754 0.36567 0.0
H1407 H 0.72748 0.66851 0.40442 0.0
H1408 H 0.74005 0.61475 0.4183 0.0
H1409 H 0.78073 0.67785 0.43136 0.0
H1410 H 0.77514 0.59745 0.42621 0.0
H1411 H 0.74863 0.58936 0.42476 0.0
H1412 H 0.76187 0.59485 0.44931 0.0
H1413 H 0.81396 0.68969 0.44384 0.0
H1414 H 0.8242 0.67275 0.44231 0.0
H1415 H 0.812 0.67381 0.46509 0.0
H1416 H 0.71353 0.62452 0.57591 0.0
H1417 H 0.73786 0.61181 0.5697 0.0
H1418 H 0.77739 0.67589 0.56502 0.0
H1419 H 0.76105 0.59539 0.5364 0.0
H1420 H 0.74697 0.58764 0.55962 0.0
H1421 H 0.77362 0.59637 0.56024 0.0
H1422 H 0.80924 0.6895 0.55064 0.0
H1423 H 0.81049 0.67356 0.5306 0.0
H1424 H 0.8212 0.67449 0.55557 0.0
H1425 H 0.91978 0.66777 0.57587 0.0
H1426 H 0.94285 0.65686 0.55905 0.0
H1427 H 0.91931 0.6501 0.54612 0.0
H1428 H 0.92185 0.63103 0.55957 0.0
H1429 H 0.86662 0.60435 0.57495 0.0
H1430 H 0.89292 0.66912 0.5726 0.0
H1431 H 0.82893 0.59103 0.539 0.0
H1432 H 0.81675 0.59306 0.56136 0.0
H1433 H 0.83315 0.58224 0.56327 0.0
H1434 H 0.87778 0.68506 0.55547 0.0
H1435 H 0.85135 0.67199 0.56056 0.0
H1436 H 0.85957 0.67032 0.53542 0.0
H1437 H 0.81607 0.63076 0.42611 0.0
H1438 H 0.77216 0.63284 0.47648 0.0
H1439 H 0.7718 0.63328 0.51305 0.0
H1440 H 0.81556 0.63383 0.56738 0.0
H1441 H 0.85729 0.62707 0.51708 0.0
H1442 H 0.85738 0.62615 0.48029 0.0
H1443 H 0.72158 0.63553 0.63009 0.0
H1444 H 0.70344 0.64327 0.59497 0.0
H1445 H 0.7265 0.66277 0.59768 0.0
C1446 C 0.38873 0.30502 0.42946 0.0
C1447 C 0.3768 0.28982 0.41198 0.0
C1448 C 0.36729 0.25668 0.42761 0.0
C1449 C 0.35106 0.23954 0.43549 0.0
C1450 C 0.35349 0.22412 0.44439 0.0
C1451 C 0.37282 0.22599 0.44557 0.0
C1452 C 0.38933 0.24308 0.43719 0.0
C1453 C 0.38641 0.2583 0.4282 0.0
C1454 C 0.33539 0.20599 0.45286 0.0
C1455 C 0.41006 0.2454 0.43813 0.0
C1456 C 0.39778 0.12124 0.38425 0.0
C1457 C 0.38267 0.10764 0.40001 0.0
C1458 C 0.37017 0.12894 0.41585 0.0
C1459 C 0.38806 0.14246 0.42663 0.0
C1460 C 0.38908 0.15822 0.43907 0.0
C1461 C 0.3718 0.16031 0.44109 0.0
C1462 C 0.35374 0.14662 0.43042 0.0
C1463 C 0.35324 0.13121 0.41783 0.0
C1464 C 0.40868 0.17273 0.45 0.0
C1465 C 0.33495 0.14822 0.43234 0.0
C1466 C 0.34239 0.1137 0.57081 0.0
C1467 C 0.36284 0.12507 0.56644 0.0
C1468 C 0.37045 0.14391 0.55691 0.0
C1469 C 0.35718 0.15115 0.55124 0.0
C1470 C 0.33659 0.13972 0.55586 0.0
C1471 C 0.32957 0.1213 0.56596 0.0
C1472 C 0.39262 0.15611 0.55303 0.0
C1473 C 0.32196 0.14696 0.55021 0.0
C1474 C 0.39546 0.30447 0.57449 0.0
C1475 C 0.37581 0.28718 0.58253 0.0
C1476 C 0.37754 0.25606 0.57947 0.0
C1477 C 0.39334 0.25183 0.57916 0.0
C1478 C 0.39177 0.23545 0.56739 0.0
C1479 C 0.3737 0.22275 0.55617 0.0
C1480 C 0.35726 0.22636 0.55738 0.0
C1481 C 0.35941 0.24309 0.56894 0.0
C1482 C 0.40951 0.23194 0.56662 0.0
C1483 C 0.33748 0.21268 0.54631 0.0
C1484 C 0.37553 0.2103 0.4564 0.0
C1485 C 0.37455 0.19418 0.44481 0.0
C1486 C 0.37269 0.17686 0.45431 0.0
C1487 C 0.3711 0.17528 0.4759 0.0
C1488 C 0.36701 0.15728 0.48581 0.0
C1489 C 0.36476 0.15568 0.50698 0.0
C1490 C 0.36716 0.17223 0.51915 0.0
C1491 C 0.36466 0.17073 0.54064 0.0
C1492 C 0.36745 0.18759 0.55228 0.0
C1493 C 0.37206 0.20587 0.54298 0.0
C1494 C 0.37406 0.20751 0.52144 0.0
C1495 C 0.37806 0.22546 0.51149 0.0
C1496 C 0.37869 0.22647 0.49019 0.0
C1497 C 0.37601 0.2098 0.47808 0.0
C1498 C 0.37317 0.19199 0.48784 0.0
C1499 C 0.37168 0.19065 0.50952 0.0
C1500 C 0.32335 0.06693 0.55798 0.0
C1501 C 0.33788 0.07979 0.57548 0.0
O1502 O 0.36357 0.27112 0.41987 0.0
O1503 O 0.38011 0.27265 0.59019 0.0
O1504 O 0.33468 0.09576 0.58051 0.0
O1505 O 0.36851 0.11368 0.40328 0.0
H1506 H 0.38725 0.28812 0.4016 0.0
H1507 H 0.39771 0.29978 0.43847 0.0
H1508 H 0.37841 0.30676 0.43999 0.0
H1509 H 0.39925 0.32007 0.42316 0.0
H1510 H 0.33637 0.23841 0.43484 0.0
H1511 H 0.3991 0.27141 0.42195 0.0
H1512 H 0.33459 0.19168 0.44734 0.0
H1513 H 0.32112 0.20563 0.44843 0.0
H1514 H 0.33678 0.20649 0.46988 0.0
H1515 H 0.42145 0.25973 0.43123 0.0
H1516 H 0.40987 0.2324 0.42989 0.0
H1517 H 0.41463 0.24513 0.45438 0.0
H1518 H 0.39079 0.10873 0.41473 0.0
H1519 H 0.40601 0.13724 0.38992 0.0
H1520 H 0.38999 0.12068 0.36946 0.0
H1521 H 0.40895 0.11621 0.38148 0.0
H1522 H 0.40135 0.14101 0.42531 0.0
H1523 H 0.33951 0.12075 0.40948 0.0
H1524 H 0.41272 0.18864 0.44675 0.0
H1525 H 0.4212 0.17024 0.44538 0.0
H1526 H 0.40697 0.17078 0.46684 0.0
H1527 H 0.32162 0.13511 0.42489 0.0
H1528 H 0.33718 0.16234 0.42503 0.0
H1529 H 0.33188 0.14918 0.44878 0.0
H1530 H 0.35345 0.08561 0.57019 0.0
H1531 H 0.37297 0.11956 0.57088 0.0
H1532 H 0.31388 0.1125 0.56976 0.0
H1533 H 0.39503 0.15676 0.53625 0.0
H1534 H 0.40123 0.14947 0.56041 0.0
H1535 H 0.39871 0.17194 0.5589 0.0
H1536 H 0.30612 0.13509 0.5524 0.0
H1537 H 0.32365 0.15167 0.53395 0.0
H1538 H 0.32523 0.16038 0.55999 0.0
H1539 H 0.36499 0.28099 0.56921 0.0
H1540 H 0.39244 0.31425 0.5641 0.0
H1541 H 0.40312 0.29809 0.56517 0.0
H1542 H 0.40586 0.3136 0.58737 0.0
H1543 H 0.40715 0.2618 0.58766 0.0
H1544 H 0.34691 0.24595 0.56989 0.0
H1545 H 0.4136 0.23162 0.55042 0.0
H1546 H 0.40541 0.21695 0.57317 0.0
H1547 H 0.42285 0.24384 0.57532 0.0
H1548 H 0.32547 0.21596 0.55096 0.0
H1549 H 0.33259 0.19653 0.54937 0.0
H1550 H 0.33933 0.21476 0.5295 0.0
H1551 H 0.3745 0.19481 0.42817 0.0
H1552 H 0.36507 0.14407 0.47725 0.0
H1553 H 0.36118 0.14131 0.51369 0.0
H1554 H 0.36537 0.18627 0.56873 0.0
H1555 H 0.38032 0.23881 0.52001 0.0
H1556 H 0.38138 0.24052 0.4833 0.0
H1557 H 0.32571 0.05399 0.5539 0.0
H1558 H 0.32603 0.07632 0.54416 0.0
H1559 H 0.30752 0.06096 0.56246 0.0
C1560 C 0.88007 0.26724 0.36247 0.0
C1561 C 0.89339 0.26918 0.38124 0.0
C1562 C 0.8729 0.23879 0.40156 0.0
C1563 C 0.85881 0.24435 0.40804 0.0
C1564 C 0.84312 0.2317 0.4208 0.0
C1565 C 0.84163 0.21327 0.42741 0.0
C1566 C 0.85597 0.20782 0.42118 0.0
C1567 C 0.87132 0.22061 0.40824 0.0
C1568 C 0.82801 0.23789 0.42708 0.0
C1569 C 0.85493 0.18832 0.4279 0.0
C1570 C 0.69817 0.08738 0.42255 0.0
C1571 C 0.71004 0.08825 0.40356 0.0
C1572 C 0.7448 0.11308 0.41527 0.0
C1573 C 0.76274 0.11439 0.42234 0.0
C1574 C 0.7786 0.13267 0.43022 0.0
C1575 C 0.77645 0.15017 0.43098 0.0
C1576 C 0.75863 0.14922 0.42304 0.0
C1577 C 0.74292 0.13063 0.4152 0.0
C1578 C 0.79739 0.13305 0.43842 0.0
C1579 C 0.75601 0.16769 0.4235 0.0
C1580 C 0.74871 0.12541 0.56039 0.0
C1581 C 0.76535 0.1237 0.55441 0.0
C1582 C 0.78147 0.13976 0.54471 0.0
C1583 C 0.78105 0.15797 0.54118 0.0
C1584 C 0.76485 0.16014 0.54825 0.0
C1585 C 0.74893 0.14383 0.55792 0.0
C1586 C 0.79873 0.1371 0.53778 0.0
C1587 C 0.76405 0.17942 0.54493 0.0
C1588 C 0.91644 0.29431 0.5645 0.0
C1589 C 0.90667 0.27802 0.5807 0.0
C1590 C 0.88359 0.24646 0.56131 0.0
C1591 C 0.88078 0.22754 0.55497 0.0
C1592 C 0.86342 0.21363 0.54383 0.0
C1593 C 0.84841 0.21878 0.53897 0.0
C1594 C 0.85113 0.23794 0.54523 0.0
C1595 C 0.86875 0.25166 0.55626 0.0
C1596 C 0.86109 0.19337 0.53733 0.0
C1597 C 0.83541 0.24389 0.54021 0.0
C1598 C 0.82478 0.19939 0.44036 0.0
C1599 C 0.80799 0.18322 0.43053 0.0
C1600 C 0.79217 0.16877 0.44181 0.0
C1601 C 0.7927 0.17075 0.46345 0.0
C1602 C 0.77681 0.15667 0.47517 0.0
C1603 C 0.77794 0.15794 0.49648 0.0
C1604 C 0.79505 0.17329 0.50695 0.0
C1605 C 0.79674 0.17401 0.52864 0.0
C1606 C 0.81401 0.18935 0.5386 0.0
C1607 C 0.82986 0.204 0.52742 0.0
C1608 C 0.82843 0.20352 0.50569 0.0
C1609 C 0.84414 0.21785 0.49394 0.0
C1610 C 0.84288 0.21675 0.47255 0.0
C1611 C 0.82589 0.20122 0.46208 0.0
C1612 C 0.80975 0.18683 0.47363 0.0
C1613 C 0.81099 0.18802 0.49544 0.0
C1614 C 0.70432 0.08275 0.55097 0.0
C1615 C 0.72387 0.08938 0.56336 0.0
O1616 O 0.88804 0.25017 0.38876 0.0
O1617 O 0.90084 0.25903 0.5721 0.0
O1618 O 0.7324 0.1098 0.56882 0.0
O1619 O 0.72986 0.09446 0.40904 0.0
H1620 H 0.89153 0.2785 0.39336 0.0
H1621 H 0.8641 0.26023 0.36673 0.0
H1622 H 0.88127 0.2576 0.35023 0.0
H1623 H 0.88462 0.28248 0.35628 0.0
H1624 H 0.85973 0.25835 0.40305 0.0
H1625 H 0.88222 0.21642 0.40318 0.0
H1626 H 0.81265 0.22589 0.42224 0.0
H1627 H 0.83093 0.25246 0.42028 0.0
H1628 H 0.82835 0.23948 0.44407 0.0
H1629 H 0.86866 0.18763 0.42408 0.0
H1630 H 0.84182 0.17532 0.42007 0.0
H1631 H 0.85279 0.18654 0.44471 0.0
H1632 H 0.70953 0.09902 0.39239 0.0
H1633 H 0.68218 0.08184 0.41812 0.0
H1634 H 0.70428 0.10268 0.42981 0.0
H1635 H 0.69898 0.07706 0.43407 0.0
H1636 H 0.76407 0.10078 0.42213 0.0
H1637 H 0.72922 0.12989 0.4094 0.0
H1638 H 0.79868 0.13563 0.45533 0.0
H1639 H 0.81084 0.14575 0.43169 0.0
H1640 H 0.7974 0.11865 0.43502 0.0
H1641 H 0.74167 0.16477 0.41588 0.0
H1642 H 0.76869 0.18042 0.41578 0.0
H1643 H 0.75628 0.17259 0.43969 0.0
H1644 H 0.73378 0.08666 0.55311 0.0
H1645 H 0.76584 0.10991 0.55732 0.0
H1646 H 0.73623 0.14516 0.56301 0.0
H1647 H 0.79946 0.13782 0.52078 0.0
H1648 H 0.79731 0.12241 0.54256 0.0
H1649 H 0.81311 0.14965 0.54422 0.0
H1650 H 0.7509 0.1791 0.5522 0.0
H1651 H 0.76324 0.18172 0.5282 0.0
H1652 H 0.778 0.19262 0.55131 0.0
H1653 H 0.89332 0.27832 0.58669 0.0
H1654 H 0.92107 0.30957 0.57128 0.0
H1655 H 0.92985 0.29425 0.55837 0.0
H1656 H 0.90564 0.29144 0.55154 0.0
H1657 H 0.89231 0.22368 0.55885 0.0
H1658 H 0.87073 0.26633 0.56076 0.0
H1659 H 0.85822 0.19102 0.52047 0.0
H1660 H 0.84793 0.18104 0.54487 0.0
H1661 H 0.87458 0.19209 0.54142 0.0
H1662 H 0.83954 0.25918 0.54651 0.0
H1663 H 0.82081 0.23261 0.54651 0.0
H1664 H 0.83326 0.24378 0.52329 0.0
H1665 H 0.8076 0.18141 0.41395 0.0
H1666 H 0.76335 0.14437 0.468 0.0
H1667 H 0.76529 0.14655 0.50463 0.0
H1668 H 0.81536 0.18959 0.55523 0.0
H1669 H 0.85767 0.23 0.50116 0.0
H1670 H 0.8555 0.22808 0.46431 0.0
H1671 H 0.69359 0.08541 0.55988 0.0
H1672 H 0.69717 0.06637 0.54664 0.0
H1673 H 0.70759 0.09156 0.53667 0.0
C1674 C 0.97658 0.4112 0.30967 0.0
C1675 C 0.98304 0.4052 0.28983 0.0
C1676 C 0.99328 0.43563 0.26901 0.0
C1677 C 0.97388 0.43274 0.26505 0.0
C1678 C 0.97109 0.44703 0.25399 0.0
C1679 C 0.98797 0.46442 0.24659 0.0
C1680 C 0.00747 0.46732 0.25046 0.0
C1681 C 0.00984 0.45285 0.26162 0.0
C1682 C 0.9501 0.44351 0.25005 0.0
C1683 C 0.0258 0.48564 0.24266 0.0
C1684 C 0.96641 0.58935 0.25105 0.0
C1685 C 0.97408 0.58648 0.272 0.0
C1686 C 0.98692 0.56339 0.26241 0.0
C1687 C 0.00449 0.56292 0.25818 0.0
C1688 C 0.00378 0.54556 0.24952 0.0
C1689 C 0.98494 0.52817 0.24516 0.0
C1690 C 0.96707 0.52817 0.25031 0.0
C1691 C 0.96822 0.54582 0.25888 0.0
C1692 C 0.02313 0.54602 0.24437 0.0
C1693 C 0.94677 0.50971 0.24616 0.0
C1694 C 0.98032 0.55297 0.1086 0.0
C1695 C 0.99812 0.55346 0.11486 0.0
C1696 C 0.9979 0.53846 0.12748 0.0
C1697 C 0.97933 0.52256 0.13401 0.0
C1698 C 0.96126 0.52228 0.12827 0.0
C1699 C 0.96194 0.53761 0.11578 0.0
C1700 C 0.0175 0.53945 0.13361 0.0
C1701 C 0.94125 0.50566 0.13522 0.0
C1702 C 0.96221 0.37703 0.11634 0.0
C1703 C 0.97063 0.39237 0.09908 0.0
C1704 C 0.98295 0.42607 0.11578 0.0
C1705 C 0.00038 0.44411 0.12125 0.0
C1706 C 0.99945 0.46016 0.13107 0.0
C1707 C 0.98052 0.45799 0.13561 0.0
C1708 C 0.96275 0.43988 0.12986 0.0
C1709 C 0.96412 0.42405 0.11998 0.0
C1710 C 0.01871 0.47928 0.13694 0.0
C1711 C 0.94236 0.43715 0.13457 0.0
C1712 C 0.98524 0.47929 0.23422 0.0
C1713 C 0.98539 0.49568 0.24447 0.0
C1714 C 0.98392 0.51073 0.23357 0.0
C1715 C 0.98229 0.50953 0.21187 0.0
C1716 C 0.98128 0.52469 0.20042 0.0
C1717 C 0.98008 0.52358 0.17907 0.0
C1718 C 0.97973 0.50722 0.16833 0.0
C1719 C 0.97889 0.50614 0.14662 0.0
C1720 C 0.97865 0.48969 0.13641 0.0
C1721 C 0.97945 0.47429 0.14733 0.0
C1722 C 0.98036 0.47513 0.16904 0.0
C1723 C 0.98139 0.45998 0.18047 0.0
C1724 C 0.98288 0.46124 0.2018 0.0
C1725 C 0.98328 0.47764 0.21255 0.0
C1726 C 0.98191 0.49288 0.20135 0.0
C1727 C 0.98053 0.49167 0.17956 0.0
C1728 C 0.95779 0.55007 0.06771 0.0
C1729 C 0.96644 0.56758 0.08374 0.0
O1730 O 0.99683 0.4224 0.27988 0.0
O1731 O 0.98525 0.4111 0.10682 0.0
O1732 O 0.98169 0.56744 0.0955 0.0
O1733 O 0.98889 0.58121 0.26956 0.0
H1734 H 0.9697 0.39625 0.27948 0.0
H1735 H 0.96926 0.42039 0.30628 0.0
H1736 H 0.98982 0.42028 0.32009 0.0
H1737 H 0.96565 0.39742 0.31774 0.0
H1738 H 0.96083 0.41944 0.27048 0.0
H1739 H 0.02472 0.45494 0.26469 0.0
H1740 H 0.94891 0.45657 0.25628 0.0
H1741 H 0.93851 0.42939 0.25711 0.0
H1742 H 0.94688 0.44251 0.23324 0.0
H1743 H 0.03996 0.48586 0.2473 0.0
H1744 H 0.0264 0.49971 0.24863 0.0
H1745 H 0.02481 0.48578 0.22564 0.0
H1746 H 0.96144 0.57436 0.28041 0.0
H1747 H 0.95492 0.59409 0.25311 0.0
H1748 H 0.95935 0.57495 0.24188 0.0
H1749 H 0.97898 0.6011 0.24226 0.0
H1750 H 0.01884 0.57648 0.26119 0.0
H1751 H 0.95448 0.5458 0.26244 0.0
H1752 H 0.02348 0.54367 0.22756 0.0
H1753 H 0.02395 0.53343 0.25211 0.0
H1754 H 0.03658 0.5606 0.24913 0.0
H1755 H 0.9344 0.51146 0.25268 0.0
H1756 H 0.94648 0.49609 0.25274 0.0
H1757 H 0.94402 0.50698 0.22932 0.0
H1758 H 0.95439 0.56613 0.09399 0.0
H1759 H 0.01224 0.5655 0.10946 0.0
H1760 H 0.94808 0.53738 0.11157 0.0
H1761 H 0.01872 0.5388 0.15057 0.0
H1762 H 0.03072 0.55349 0.12833 0.0
H1763 H 0.01789 0.52613 0.1269 0.0
H1764 H 0.9285 0.50739 0.12919 0.0
H1765 H 0.94107 0.50574 0.15226 0.0
H1766 H 0.93903 0.49066 0.13004 0.0
H1767 H 0.95818 0.39382 0.09164 0.0
H1768 H 0.95072 0.36195 0.10999 0.0
H1769 H 0.95498 0.38204 0.12785 0.0
H1770 H 0.97435 0.37546 0.12429 0.0
H1771 H 0.01482 0.44551 0.11791 0.0
H1772 H 0.95047 0.41015 0.11592 0.0
H1773 H 0.0199 0.48157 0.15388 0.0
H1774 H 0.01858 0.49259 0.1301 0.0
H1775 H 0.0322 0.47879 0.13175 0.0
H1776 H 0.92992 0.42242 0.12855 0.0
H1777 H 0.94068 0.44966 0.12781 0.0
H1778 H 0.94103 0.43796 0.15146 0.0
H1779 H 0.98698 0.49691 0.26109 0.0
H1780 H 0.98154 0.53769 0.20782 0.0
H1781 H 0.97948 0.53576 0.1711 0.0
H1782 H 0.97829 0.48908 0.11975 0.0
H1783 H 0.9812 0.44702 0.17305 0.0
H1784 H 0.98375 0.4492 0.20975 0.0
H1785 H 0.96987 0.55097 0.05785 0.0
H1786 H 0.94612 0.55071 0.05782 0.0
H1787 H 0.95063 0.53512 0.07518 0.0
C1788 C 0.44953 0.39164 0.31305 0.0
C1789 C 0.44096 0.40193 0.29922 0.0
C1790 C 0.45617 0.41349 0.26635 0.0
C1791 C 0.45457 0.43096 0.26361 0.0
C1792 C 0.46825 0.4468 0.25154 0.0
C1793 C 0.48404 0.4452 0.24235 0.0
C1794 C 0.4854 0.42734 0.24481 0.0
C1795 C 0.47114 0.4115 0.25648 0.0
C1796 C 0.46605 0.4654 0.24891 0.0
C1797 C 0.50224 0.42522 0.23564 0.0
C1798 C 0.62496 0.56819 0.25455 0.0
C1799 C 0.6145 0.5692 0.27413 0.0
C1800 C 0.57886 0.54749 0.26356 0.0
C1801 C 0.57912 0.52907 0.26218 0.0
C1802 C 0.56268 0.51162 0.25343 0.0
C1803 C 0.5455 0.51251 0.24648 0.0
C1804 C 0.54449 0.53048 0.24968 0.0
C1805 C 0.56131 0.54781 0.25799 0.0
C1806 C 0.56404 0.49252 0.25068 0.0
C1807 C 0.52607 0.53173 0.24326 0.0
C1808 C 0.57511 0.55256 0.11649 0.0
C1809 C 0.57889 0.53679 0.12198 0.0
C1810 C 0.5642 0.5194 0.13147 0.0
C1811 C 0.5455 0.51789 0.13586 0.0
C1812 C 0.54168 0.53374 0.13045 0.0
C1813 C 0.55656 0.55086 0.12076 0.0
C1814 C 0.5687 0.5027 0.13696 0.0
C1815 C 0.52194 0.53265 0.13506 0.0
C1816 C 0.42599 0.36909 0.11328 0.0
C1817 C 0.42408 0.38639 0.10333 0.0
C1818 C 0.45668 0.41668 0.10685 0.0
C1819 C 0.47608 0.41963 0.10946 0.0
C1820 C 0.49056 0.43589 0.12158 0.0
C1821 C 0.48554 0.44978 0.13071 0.0
C1822 C 0.46622 0.4475 0.12707 0.0
C1823 C 0.45191 0.43082 0.11528 0.0
C1824 C 0.5111 0.43802 0.12489 0.0
C1825 C 0.46065 0.46254 0.13579 0.0
C1826 C 0.49968 0.46263 0.23114 0.0
C1827 C 0.51476 0.47878 0.24283 0.0
C1828 C 0.5299 0.49576 0.23342 0.0
C1829 C 0.53015 0.49681 0.21176 0.0
C1830 C 0.54525 0.51369 0.20183 0.0
C1831 C 0.54518 0.51484 0.18057 0.0
C1832 C 0.53026 0.49898 0.16834 0.0
C1833 C 0.53015 0.49999 0.1467 0.0
C1834 C 0.51533 0.48384 0.13493 0.0
C1835 C 0.50044 0.46656 0.14422 0.0
C1836 C 0.50008 0.46537 0.1659 0.0
C1837 C 0.48516 0.44833 0.1758 0.0
C1838 C 0.48482 0.44749 0.19715 0.0
C1839 C 0.49968 0.46341 0.20943 0.0
C1840 C 0.51497 0.48061 0.19974 0.0
C1841 C 0.51509 0.48165 0.17798 0.0
C1842 C 0.61665 0.58997 0.08561 0.0
C1843 C 0.60748 0.57322 0.10059 0.0
O1844 O 0.44371 0.39861 0.27887 0.0
O1845 O 0.4428 0.40007 0.09613 0.0
O1846 O 0.5888 0.56946 0.10689 0.0
O1847 O 0.59519 0.56539 0.26949 0.0
H1848 H 0.44958 0.41846 0.3032 0.0
H1849 H 0.46583 0.39813 0.31042 0.0
H1850 H 0.4419 0.37504 0.30965 0.0
H1851 H 0.4476 0.3942 0.32947 0.0
H1852 H 0.44265 0.4322 0.27102 0.0
H1853 H 0.47212 0.39784 0.25867 0.0
H1854 H 0.47851 0.47845 0.25743 0.0
H1855 H 0.45158 0.46319 0.25472 0.0
H1856 H 0.46704 0.46938 0.23244 0.0
H1857 H 0.50215 0.41115 0.24047 0.0
H1858 H 0.51696 0.4385 0.24024 0.0
H1859 H 0.50085 0.42492 0.21863 0.0
H1860 H 0.61404 0.55753 0.28469 0.0
H1861 H 0.61867 0.55229 0.24893 0.0
H1862 H 0.64127 0.57429 0.25776 0.0
H1863 H 0.6228 0.57684 0.24202 0.0
H1864 H 0.59225 0.52828 0.26727 0.0
H1865 H 0.56105 0.56195 0.25955 0.0
H1866 H 0.55124 0.4797 0.25816 0.0
H1867 H 0.57828 0.49414 0.25727 0.0
H1868 H 0.56298 0.48856 0.23407 0.0
H1869 H 0.52619 0.54527 0.25014 0.0
H1870 H 0.51224 0.51788 0.24781 0.0
H1871 H 0.52546 0.53266 0.22628 0.0
H1872 H 0.61755 0.57415 0.11368 0.0
H1873 H 0.59325 0.53794 0.11893 0.0
H1874 H 0.55377 0.56307 0.11646 0.0
H1875 H 0.56876 0.50127 0.1539 0.0
H1876 H 0.58345 0.50557 0.13132 0.0
H1877 H 0.55677 0.48797 0.13037 0.0
H1878 H 0.52146 0.54644 0.13024 0.0
H1879 H 0.51931 0.53074 0.1518 0.0
H1880 H 0.50948 0.51919 0.12702 0.0
H1881 H 0.41951 0.3935 0.11559 0.0
H1882 H 0.41294 0.35986 0.12296 0.0
H1883 H 0.43949 0.3755 0.12372 0.0
H1884 H 0.42773 0.35945 0.10145 0.0
H1885 H 0.47961 0.40873 0.10255 0.0
H1886 H 0.43703 0.42884 0.11257 0.0
H1887 H 0.51484 0.43908 0.14159 0.0
H1888 H 0.52254 0.45226 0.11792 0.0
H1889 H 0.51211 0.42509 0.11799 0.0
H1890 H 0.44596 0.45998 0.12952 0.0
H1891 H 0.47239 0.47827 0.13243 0.0
H1892 H 0.45978 0.46122 0.15274 0.0
H1893 H 0.51469 0.47814 0.25946 0.0
H1894 H 0.55729 0.52632 0.21034 0.0
H1895 H 0.55708 0.52832 0.17386 0.0
H1896 H 0.51543 0.48468 0.1183 0.0
H1897 H 0.47347 0.43551 0.16716 0.0
H1898 H 0.47283 0.43412 0.20392 0.0
H1899 H 0.61803 0.5756 0.05948 0.0
H1900 H 0.6305 0.60213 0.09388 0.0
H1901 H 0.60845 0.59886 0.0864 0.0
C1902 C 0.43843 0.02167 0.30325 0.0
C1903 C 0.42245 0.01448 0.28577 0.0
C1904 C 0.4397 0.00455 0.26041 0.0
C1905 C 0.45444 0.02425 0.25527 0.0
C1906 C 0.47091 0.02738 0.24361 0.0
C1907 C 0.47262 0.01049 0.23686 0.0
C1908 C 0.45746 0.99063 0.24139 0.0
C1909 C 0.44112 0.98794 0.25301 0.0
C1910 C 0.48669 0.04875 0.23879 0.0
C1911 C 0.45876 0.97229 0.23433 0.0
C1912 C 0.5989 0.04987 0.31872 0.0
C1913 C 0.5902 0.0328 0.30239 0.0
C1914 C 0.57587 0.03552 0.26965 0.0
C1915 C 0.56086 0.01519 0.26664 0.0
C1916 C 0.54447 0.00998 0.25304 0.0
C1917 C 0.54302 0.02546 0.24242 0.0
C1918 C 0.55833 0.04595 0.24527 0.0
C1919 C 0.57478 0.05063 0.25856 0.0
C1920 C 0.52865 0.98797 0.25007 0.0
C1921 C 0.55717 0.06297 0.2346 0.0
C1922 C 0.58456 0.03095 0.11607 0.0
C1923 C 0.5687 0.01122 0.11905 0.0
C1924 C 0.55041 0.00808 0.12677 0.0
C1925 C 0.54794 0.02499 0.13149 0.0
C1926 C 0.56352 0.04481 0.12743 0.0
C1927 C 0.58159 0.0475 0.11957 0.0
C1928 C 0.53389 0.98672 0.1304 0.0
C1929 C 0.56131 0.06316 0.13206 0.0
C1930 C 0.40624 0.00624 0.11718 0.0
C1931 C 0.41762 0.01932 0.099 0.0
C1932 C 0.44731 0.01529 0.10266 0.0
C1933 C 0.45113 0.99906 0.1021 0.0
C1934 C 0.46699 0.99961 0.11385 0.0
C1935 C 0.47976 0.0172 0.12586 0.0
C1936 C 0.47666 0.03417 0.12548 0.0
C1937 C 0.46026 0.03292 0.11413 0.0
C1938 C 0.46981 0.98124 0.11377 0.0
C1939 C 0.49052 0.0536 0.13721 0.0
C1940 C 0.49076 0.01367 0.22593 0.0
C1941 C 0.50757 0.01702 0.23784 0.0
C1942 C 0.5253 0.02039 0.22874 0.0
C1943 C 0.52625 0.02007 0.2071 0.0
C1944 C 0.54359 0.02269 0.19743 0.0
C1945 C 0.54468 0.02314 0.17614 0.0
C1946 C 0.52849 0.02104 0.16367 0.0
C1947 C 0.5297 0.02205 0.14203 0.0
C1948 C 0.51358 0.0206 0.13014 0.0
C1949 C 0.49597 0.01767 0.13926 0.0
C1950 C 0.49424 0.01587 0.16085 0.0
C1951 C 0.47649 0.01212 0.17051 0.0
C1952 C 0.47523 0.0112 0.1918 0.0
C1953 C 0.49165 0.01396 0.20426 0.0
C1954 C 0.5095 0.01722 0.19483 0.0
C1955 C 0.51071 0.01796 0.17309 0.0
C1956 C 0.63145 0.03812 0.12854 0.0
C1957 C 0.61254 0.02397 0.11572 0.0
O1958 O 0.4241 0.00086 0.27264 0.0
O1959 O 0.43103 0.01344 0.09198 0.0
O1960 O 0.60283 0.03456 0.10979 0.0
O1961 O 0.5915 0.04105 0.28322 0.0
H1962 H 0.42444 0.02781 0.27692 0.0
H1963 H 0.45377 0.03022 0.29718 0.0
H1964 H 0.43727 0.00852 0.31179 0.0
H1965 H 0.4365 0.03194 0.31412 0.0
H1966 H 0.45333 0.03727 0.26045 0.0
H1967 H 0.42958 0.97279 0.25685 0.0
H1968 H 0.5012 0.05224 0.24639 0.0
H1969 H 0.48259 0.0602 0.24404 0.0
H1970 H 0.48901 0.05013 0.22198 0.0
H1971 H 0.44565 0.95783 0.23898 0.0
H1972 H 0.47267 0.97312 0.24087 0.0
H1973 H 0.45966 0.97215 0.21735 0.0
H1974 H 0.57416 0.02285 0.30624 0.0
H1975 H 0.598 0.04355 0.33424 0.0
H1976 H 0.59014 0.058 0.31855 0.0
H1977 H 0.61482 0.061 0.31578 0.0
H1978 H 0.56201 0.00341 0.27483 0.0
H1979 H 0.58656 0.06624 0.2609 0.0
H1980 H 0.51437 0.98552 0.25661 0.0
H1981 H 0.53307 0.97761 0.25765 0.0
H1982 H 0.52577 0.98392 0.23344 0.0
H1983 H 0.56889 0.07815 0.24049 0.0
H1984 H 0.54218 0.06161 0.23661 0.0
H1985 H 0.55917 0.06198 0.21788 0.0
H1986 H 0.60307 0.01139 0.12601 0.0
H1987 H 0.57056 0.99828 0.1154 0.0
H1988 H 0.59379 0.06264 0.11682 0.0
H1989 H 0.53139 0.98457 0.14714 0.0
H1990 H 0.5375 0.97513 0.12443 0.0
H1991 H 0.51963 0.98417 0.12293 0.0
H1992 H 0.57463 0.07752 0.12759 0.0
H1993 H 0.55909 0.06404 0.14876 0.0
H1994 H 0.54781 0.06169 0.12378 0.0
H1995 H 0.4259 0.03555 0.10404 0.0
H1996 H 0.39524 0.01052 0.12291 0.0
H1997 H 0.41691 0.00848 0.13008 0.0
H1998 H 0.39814 0.98991 0.11252 0.0
H1999 H 0.44115 0.98563 0.09297 0.0
H2000 H 0.4578 0.04581 0.11405 0.0
H2001 H 0.47067 0.97672 0.12977 0.0
H2002 H 0.48418 0.98504 0.10649 0.0
H2003 H 0.45743 0.96809 0.10525 0.0
H2004 H 0.4885 0.06647 0.13215 0.0
H2005 H 0.50645 0.05768 0.1353 0.0
H2006 H 0.48737 0.05145 0.15382 0.0
H2007 H 0.50695 0.01732 0.25447 0.0
H2008 H 0.55656 0.02451 0.20623 0.0
H2009 H 0.5585 0.02539 0.16961 0.0
H2010 H 0.51482 0.0219 0.1136 0.0
H2011 H 0.46339 0.00994 0.16172 0.0
H2012 H 0.46128 0.00849 0.19839 0.0
H2013 H 0.63968 0.03005 0.13313 0.0
H2014 H 0.62718 0.0432 0.14269 0.0
H2015 H 0.64159 0.05178 0.11982 0.0
C2016 C 0.56227 0.9585 0.72468 0.0
C2017 C 0.57592 0.98096 0.73051 0.0
C2018 C 0.56516 0.98706 0.76288 0.0
C2019 C 0.56908 0.0069 0.76661 0.0
C2020 C 0.55557 0.01061 0.77758 0.0
C2021 C 0.53775 0.99402 0.78473 0.0
C2022 C 0.53396 0.97393 0.78115 0.0
C2023 C 0.54793 0.97073 0.7705 0.0
C2024 C 0.56019 0.0322 0.78132 0.0
C2025 C 0.515 0.95582 0.78822 0.0
C2026 C 0.429 0.98662 0.7065 0.0
C2027 C 0.42169 0.99275 0.7256 0.0
C2028 C 0.45091 0.00604 0.74963 0.0
C2029 C 0.44912 0.98711 0.75428 0.0
C2030 C 0.4629 0.98577 0.76779 0.0
C2031 C 0.47891 0.00368 0.77674 0.0
C2032 C 0.48091 0.02277 0.77201 0.0
C2033 C 0.46679 0.02366 0.75858 0.0
C2034 C 0.46036 0.96515 0.77249 0.0
C2035 C 0.49795 0.04216 0.78115 0.0
C2036 C 0.43116 0.99411 0.90392 0.0
C2037 C 0.42966 0.97605 0.896 0.0
C2038 C 0.4463 0.97604 0.88732 0.0
C2039 C 0.46476 0.99442 0.88653 0.0
C2040 C 0.46635 0.01256 0.89461 0.0
C2041 C 0.44949 0.01214 0.90318 0.0
C2042 C 0.44412 0.95643 0.87877 0.0
C2043 C 0.48579 0.03241 0.89396 0.0
C2044 C 0.57778 0.95774 0.90449 0.0
C2045 C 0.58191 0.97588 0.91858 0.0
C2046 C 0.55091 0.97704 0.91728 0.0
C2047 C 0.53142 0.96176 0.91218 0.0
C2048 C 0.51828 0.96605 0.90073 0.0
C2049 C 0.52472 0.98626 0.8949 0.0
C2050 C 0.544 0.00201 0.90136 0.0
C2051 C 0.557 0.99717 0.91232 0.0
C2052 C 0.49777 0.94888 0.89436 0.0
C2053 C 0.55104 0.02385 0.89622 0.0
C2054 C 0.52259 0.99755 0.79507 0.0
C2055 C 0.50928 0.00066 0.78265 0.0
C2056 C 0.49349 0.0023 0.79107 0.0
C2057 C 0.49091 0.00101 0.81253 0.0
C2058 C 0.47494 0.0022 0.82145 0.0
C2059 C 0.47219 0.00034 0.84253 0.0
C2060 C 0.48527 0.99717 0.85549 0.0
C2061 C 0.48227 0.9947 0.87685 0.0
C2062 C 0.49561 0.99167 0.88933 0.0
C2063 C 0.51178 0.99066 0.881 0.0
C2064 C 0.5149 0.99285 0.85961 0.0
C2065 C 0.53077 0.99149 0.85063 0.0
C2066 C 0.53355 0.9934 0.82956 0.0
C2067 C 0.52039 0.99643 0.8166 0.0
C2068 C 0.50441 0.99805 0.82533 0.0
C2069 C 0.50162 0.99618 0.84685 0.0
C2070 C 0.38352 0.97443 0.89515 0.0
C2071 C 0.39612 0.97932 0.91514 0.0
O2072 O 0.57792 0.98365 0.75167 0.0
O2073 O 0.56375 0.97198 0.92663 0.0
O2074 O 0.41546 0.99503 0.91219 0.0
O2075 O 0.43787 0.00807 0.73663 0.0
H2076 H 0.56879 0.98957 0.72407 0.0
H2077 H 0.54676 0.9534 0.72967 0.0
H2078 H 0.56779 0.94894 0.73208 0.0
H2079 H 0.56165 0.95619 0.70775 0.0
H2080 H 0.5826 0.0194 0.76072 0.0
H2081 H 0.54526 0.95545 0.76771 0.0
H2082 H 0.54922 0.03491 0.77246 0.0
H2083 H 0.57557 0.0434 0.77668 0.0
H2084 H 0.55864 0.03476 0.79784 0.0
H2085 H 0.51343 0.94123 0.78245 0.0
H2086 H 0.50164 0.95683 0.78292 0.0
H2087 H 0.51509 0.9557 0.80525 0.0
H2088 H 0.41366 0.97938 0.73549 0.0
H2089 H 0.41606 0.97438 0.69763 0.0
H2090 H 0.43932 0.98085 0.71095 0.0
H2091 H 0.43715 0.99985 0.69646 0.0
H2092 H 0.4371 0.97325 0.74746 0.0
H2093 H 0.46813 0.0382 0.7549 0.0
H2094 H 0.47338 0.96412 0.76671 0.0
H2095 H 0.44639 0.95257 0.76534 0.0
H2096 H 0.46005 0.96307 0.78935 0.0
H2097 H 0.49792 0.05586 0.77522 0.0
H2098 H 0.51253 0.04311 0.77768 0.0
H2099 H 0.49682 0.04214 0.79811 0.0
H2100 H 0.3967 0.96561 0.92014 0.0
H2101 H 0.4156 0.96195 0.89635 0.0
H2102 H 0.45051 0.02599 0.90931 0.0
H2103 H 0.44697 0.95785 0.86207 0.0
H2104 H 0.42894 0.9433 0.88108 0.0
H2105 H 0.45547 0.95332 0.88624 0.0
H2106 H 0.48459 0.04521 0.90093 0.0
H2107 H 0.49033 0.036 0.87778 0.0
H2108 H 0.49787 0.03105 0.90228 0.0
H2109 H 0.58808 0.9896 0.90893 0.0
H2110 H 0.59025 0.96186 0.89382 0.0
H2111 H 0.56415 0.9533 0.89464 0.0
H2112 H 0.57517 0.94439 0.91361 0.0
H2113 H 0.52686 0.94631 0.91642 0.0
H2114 H 0.57196 0.00903 0.91692 0.0
H2115 H 0.49535 0.94885 0.87748 0.0
H2116 H 0.48609 0.95112 0.90183 0.0
H2117 H 0.49572 0.93383 0.89869 0.0
H2118 H 0.56489 0.0345 0.90515 0.0
H2119 H 0.53912 0.02776 0.8993 0.0
H2120 H 0.55427 0.02603 0.87963 0.0
H2121 H 0.51085 0.00117 0.76611 0.0
H2122 H 0.46431 0.00449 0.81223 0.0
H2123 H 0.45959 0.00132 0.84851 0.0
H2124 H 0.49315 0.98971 0.90569 0.0
H2125 H 0.54122 0.98885 0.85975 0.0
H2126 H 0.54605 0.99228 0.82352 0.0
H2127 H 0.38286 0.98802 0.88988 0.0
H2128 H 0.36799 0.96192 0.89752 0.0
H2129 H 0.39014 0.96953 0.88287 0.0
C2130 C 0.03031 0.58867 0.71449 0.0
C2131 C 0.01367 0.58497 0.72942 0.0
C2132 C 0.01814 0.57123 0.76117 0.0
C2133 C 0.99885 0.55479 0.7639 0.0
C2134 C 0.99615 0.53791 0.77505 0.0
C2135 C 0.01311 0.53751 0.78355 0.0
C2136 C 0.03254 0.55437 0.7813 0.0
C2137 C 0.03476 0.5712 0.77035 0.0
C2138 C 0.97519 0.52042 0.77759 0.0
C2139 C 0.05097 0.55445 0.79014 0.0
C2140 C 0.00803 0.39827 0.72303 0.0
C2141 C 0.01472 0.41892 0.73191 0.0
C2142 C 0.00212 0.43634 0.75393 0.0
C2143 C 0.02102 0.4533 0.75858 0.0
C2144 C 0.02275 0.46946 0.77089 0.0
C2145 C 0.00524 0.46879 0.77843 0.0
C2146 C 0.98617 0.45193 0.77341 0.0
C2147 C 0.9849 0.43582 0.7614 0.0
C2148 C 0.04332 0.48715 0.77606 0.0
C2149 C 0.96714 0.45088 0.78083 0.0
C2150 C 0.00102 0.42636 0.90291 0.0
C2151 C 0.01995 0.44297 0.89937 0.0
C2152 C 0.02187 0.46144 0.89285 0.0
C2153 C 0.0044 0.46305 0.88927 0.0
C2154 C 0.9853 0.4464 0.89326 0.0
C2155 C 0.98385 0.42816 0.89989 0.0
C2156 C 0.04246 0.47887 0.8887 0.0
C2157 C 0.96638 0.44757 0.88953 0.0
C2158 C 0.02184 0.60813 0.89377 0.0
C2159 C 0.00802 0.5955 0.91092 0.0
C2160 C 0.01364 0.56663 0.91298 0.0
C2161 C 0.03051 0.56417 0.91154 0.0
C2162 C 0.02906 0.54671 0.90213 0.0
C2163 C 0.01017 0.53124 0.89443 0.0
C2164 C 0.9928 0.53294 0.89742 0.0
C2165 C 0.99472 0.55067 0.90664 0.0
C2166 C 0.04783 0.54522 0.89953 0.0
C2167 C 0.97231 0.51639 0.8901 0.0
C2168 C 0.01058 0.51931 0.79446 0.0
C2169 C 0.00891 0.50299 0.78266 0.0
C2170 C 0.0069 0.48553 0.79191 0.0
C2171 C 0.00663 0.48427 0.81356 0.0
C2172 C 0.00497 0.46708 0.82339 0.0
C2173 C 0.00465 0.46595 0.84468 0.0
C2174 C 0.0061 0.48201 0.85703 0.0
C2175 C 0.00592 0.48102 0.87872 0.0
C2176 C 0.00726 0.49719 0.89056 0.0
C2177 C 0.0089 0.5145 0.88125 0.0
C2178 C 0.00927 0.51581 0.85957 0.0
C2179 C 0.01108 0.53307 0.84971 0.0
C2180 C 0.01137 0.5342 0.82841 0.0
C2181 C 0.01003 0.5182 0.81611 0.0
C2182 C 0.00814 0.50064 0.82569 0.0
C2183 C 0.00782 0.49948 0.84745 0.0
C2184 C 0.98867 0.39847 0.94294 0.0
C2185 C 0.00395 0.40182 0.92509 0.0
O2186 O 0.02105 0.5871 0.74943 0.0
O2187 O 0.01612 0.58462 0.92022 0.0
O2188 O 0.99889 0.40788 0.90688 0.0
O2189 O 0.99982 0.42017 0.74249 0.0
H2190 H 0.00163 0.56909 0.72603 0.0
H2191 H 0.03414 0.57634 0.7158 0.0
H2192 H 0.04417 0.60328 0.71806 0.0
H2193 H 0.02517 0.58866 0.6984 0.0
H2194 H 0.98595 0.55517 0.75729 0.0
H2195 H 0.04956 0.5841 0.76828 0.0
H2196 H 0.9736 0.50674 0.76942 0.0
H2197 H 0.96349 0.52374 0.77145 0.0
H2198 H 0.97253 0.51676 0.7941 0.0
H2199 H 0.06508 0.5682 0.78597 0.0
H2200 H 0.05144 0.54078 0.78457 0.0
H2201 H 0.05027 0.55382 0.80713 0.0
H2202 H 0.0226 0.43166 0.72115 0.0
H2203 H 0.00855 0.40022 0.7059 0.0
H2204 H 0.99112 0.38969 0.72333 0.0
H2205 H 0.02601 0.38886 0.73898 0.0
H2206 H 0.03449 0.45394 0.75288 0.0
H2207 H 0.97039 0.42272 0.75769 0.0
H2208 H 0.04552 0.48947 0.79298 0.0
H2209 H 0.04454 0.50122 0.76958 0.0
H2210 H 0.05554 0.48492 0.76993 0.0
H2211 H 0.95345 0.43765 0.77404 0.0
H2212 H 0.96687 0.46499 0.77694 0.0
H2213 H 0.96672 0.44969 0.79781 0.0
H2214 H 0.00278 0.38684 0.92151 0.0
H2215 H 0.03316 0.44128 0.90091 0.0
H2216 H 0.96926 0.41506 0.90226 0.0
H2217 H 0.04402 0.48119 0.87189 0.0
H2218 H 0.05462 0.47608 0.89453 0.0
H2219 H 0.04442 0.49309 0.89595 0.0
H2220 H 0.9528 0.43379 0.89466 0.0
H2221 H 0.96449 0.44942 0.87288 0.0
H2222 H 0.96758 0.46106 0.89776 0.0
H2223 H 0.99315 0.58517 0.90345 0.0
H2224 H 0.01558 0.61676 0.88574 0.0
H2225 H 0.02305 0.59791 0.88222 0.0
H2226 H 0.03717 0.61873 0.90008 0.0
H2227 H 0.04498 0.57642 0.91692 0.0
H2228 H 0.98146 0.55207 0.90869 0.0
H2229 H 0.05055 0.54467 0.88291 0.0
H2230 H 0.04581 0.53093 0.90625 0.0
H2231 H 0.06127 0.55824 0.90694 0.0
H2232 H 0.96007 0.51872 0.89601 0.0
H2233 H 0.96988 0.50136 0.89503 0.0
H2234 H 0.97141 0.51608 0.87306 0.0
H2235 H 0.00925 0.50392 0.76605 0.0
H2236 H 0.0039 0.45429 0.81473 0.0
H2237 H 0.00327 0.45228 0.8513 0.0
H2238 H 0.00704 0.4963 0.90717 0.0
H2239 H 0.0123 0.54595 0.85832 0.0
H2240 H 0.01271 0.54783 0.82171 0.0
H2241 H 0.98089 0.38166 0.94564 0.0
H2242 H 0.97591 0.39861 0.93411 0.0
H2243 H 0.00661 0.4238 0.97449 0.0
C2244 C 0.5545 0.56369 0.71533 0.0
C2245 C 0.55804 0.58489 0.72139 0.0
C2246 C 0.53999 0.57459 0.75307 0.0
C2247 C 0.52264 0.57623 0.75078 0.0
C2248 C 0.50568 0.56422 0.76237 0.0
C2249 C 0.50607 0.55 0.77611 0.0
C2250 C 0.52353 0.54804 0.77796 0.0
C2251 C 0.54047 0.56081 0.76679 0.0
C2252 C 0.48743 0.56682 0.76002 0.0
C2253 C 0.52441 0.53247 0.79161 0.0
C2254 C 0.36284 0.42299 0.76413 0.0
C2255 C 0.37666 0.42576 0.74632 0.0
C2256 C 0.41018 0.45036 0.76107 0.0
C2257 C 0.42783 0.4519 0.76942 0.0
C2258 C 0.44299 0.47019 0.77812 0.0
C2259 C 0.44042 0.48745 0.77838 0.0
C2260 C 0.42287 0.48624 0.76936 0.0
C2261 C 0.40785 0.46766 0.7608 0.0
C2262 C 0.46157 0.47093 0.78748 0.0
C2263 C 0.41987 0.50449 0.76922 0.0
C2264 C 0.40722 0.46698 0.90777 0.0
C2265 C 0.42344 0.46442 0.90209 0.0
C2266 C 0.43994 0.47996 0.89232 0.0
C2267 C 0.44024 0.49845 0.88826 0.0
C2268 C 0.42441 0.50144 0.89497 0.0
C2269 C 0.40816 0.48568 0.90483 0.0
C2270 C 0.45684 0.47647 0.8859 0.0
C2271 C 0.42439 0.52104 0.89112 0.0
C2272 C 0.57811 0.63345 0.90824 0.0
C2273 C 0.56982 0.61738 0.92483 0.0
C2274 C 0.54497 0.58564 0.90685 0.0
C2275 C 0.54149 0.56657 0.9002 0.0
C2276 C 0.5234 0.55273 0.89015 0.0
C2277 C 0.50837 0.55816 0.88663 0.0
C2278 C 0.51165 0.57737 0.89348 0.0
C2279 C 0.52996 0.59099 0.90349 0.0
C2280 C 0.52046 0.53237 0.88306 0.0
C2281 C 0.49592 0.58359 0.88984 0.0
C2282 C 0.48821 0.53698 0.78834 0.0
C2283 C 0.47204 0.52032 0.77836 0.0
C2284 C 0.45561 0.50628 0.78927 0.0
C2285 C 0.45504 0.50895 0.81071 0.0
C2286 C 0.43871 0.49509 0.82211 0.0
C2287 C 0.43887 0.49705 0.84337 0.0
C2288 C 0.45549 0.51279 0.85409 0.0
C2289 C 0.45643 0.51405 0.87581 0.0
C2290 C 0.47346 0.52952 0.886 0.0
C2291 C 0.48965 0.54394 0.87502 0.0
C2292 C 0.4887 0.54326 0.8533 0.0
C2293 C 0.5045 0.55781 0.8418 0.0
C2294 C 0.50402 0.55624 0.82047 0.0
C2295 C 0.48797 0.5398 0.80984 0.0
C2296 C 0.47146 0.52554 0.82108 0.0
C2297 C 0.47176 0.52736 0.84282 0.0
C2298 C 0.36093 0.42503 0.9002 0.0
C2299 C 0.38138 0.4314 0.91055 0.0
O2300 O 0.55659 0.58646 0.74242 0.0
O2301 O 0.56309 0.59826 0.91613 0.0
O2302 O 0.39056 0.45182 0.91619 0.0
O2303 O 0.39594 0.43182 0.75375 0.0
H2304 H 0.54642 0.58737 0.71347 0.0
H2305 H 0.53906 0.5519 0.71915 0.0
H2306 H 0.56544 0.56049 0.72363 0.0
H2307 H 0.55609 0.56253 0.69853 0.0
H2308 H 0.52256 0.58715 0.7402 0.0
H2309 H 0.55406 0.55975 0.76834 0.0
H2310 H 0.47499 0.55303 0.75243 0.0
H2311 H 0.4904 0.58016 0.75068 0.0
H2312 H 0.48232 0.56861 0.77535 0.0
H2313 H 0.5369 0.52969 0.78759 0.0
H2314 H 0.5101 0.51783 0.79053 0.0
H2315 H 0.52688 0.53801 0.80782 0.0
H2316 H 0.37701 0.43736 0.73574 0.0
H2317 H 0.34733 0.41795 0.75821 0.0
H2318 H 0.36821 0.43754 0.77277 0.0
H2319 H 0.36248 0.41153 0.77489 0.0
H2320 H 0.42951 0.4385 0.76942 0.0
H2321 H 0.39434 0.46677 0.7542 0.0
H2322 H 0.46254 0.47438 0.80421 0.0
H2323 H 0.47518 0.48327 0.78054 0.0
H2324 H 0.46162 0.45639 0.78525 0.0
H2325 H 0.40583 0.50138 0.76081 0.0
H2326 H 0.43281 0.51739 0.76198 0.0
H2327 H 0.41931 0.50924 0.78526 0.0
H2328 H 0.39021 0.42863 0.89885 0.0
H2329 H 0.42324 0.45032 0.90528 0.0
H2330 H 0.39574 0.48763 0.90967 0.0
H2331 H 0.45743 0.47637 0.86889 0.0
H2332 H 0.45506 0.46187 0.89148 0.0
H2333 H 0.47142 0.48904 0.89192 0.0
H2334 H 0.41118 0.52117 0.89768 0.0
H2335 H 0.42435 0.52342 0.87432 0.0
H2336 H 0.4383 0.53398 0.89792 0.0
H2337 H 0.5572 0.61789 0.93242 0.0
H2338 H 0.58357 0.64881 0.91518 0.0
H2339 H 0.56618 0.63059 0.89656 0.0
H2340 H 0.59071 0.63312 0.9004 0.0
H2341 H 0.55315 0.5626 0.90284 0.0
H2342 H 0.53243 0.60575 0.90838 0.0
H2343 H 0.51841 0.53087 0.86609 0.0
H2344 H 0.50666 0.52003 0.88971 0.0
H2345 H 0.53338 0.53025 0.88755 0.0
H2346 H 0.50051 0.59888 0.8965 0.0
H2347 H 0.4816 0.57236 0.89669 0.0
H2348 H 0.49299 0.58365 0.87308 0.0
H2349 H 0.47262 0.51777 0.76203 0.0
H2350 H 0.42568 0.48244 0.81475 0.0
H2351 H 0.42595 0.4858 0.8513 0.0
H2352 H 0.47441 0.52996 0.90266 0.0
H2353 H 0.51749 0.5705 0.84918 0.0
H2354 H 0.51663 0.56784 0.81243 0.0
H2355 H 0.35327 0.40866 0.8957 0.0
H2356 H 0.36303 0.43393 0.88611 0.0
H2357 H 0.35116 0.42779 0.91058 0.0
C2358 C 0.62671 0.74071 0.64267 0.0
C2359 C 0.63433 0.73568 0.62307 0.0
C2360 C 0.64063 0.76517 0.60213 0.0
C2361 C 0.62044 0.7595 0.59773 0.0
C2362 C 0.61545 0.77247 0.58694 0.0
C2363 C 0.63093 0.79138 0.58033 0.0
C2364 C 0.65123 0.79712 0.58479 0.0
C2365 C 0.65578 0.78388 0.59557 0.0
C2366 C 0.59367 0.76587 0.58228 0.0
C2367 C 0.66813 0.81714 0.57793 0.0
C2368 C 0.60092 0.89109 0.6483 0.0
C2369 C 0.6179 0.89634 0.63336 0.0
C2370 C 0.61231 0.87761 0.60142 0.0
C2371 C 0.63151 0.88078 0.59728 0.0
C2372 C 0.63399 0.86645 0.58577 0.0
C2373 C 0.61684 0.84852 0.57834 0.0
C2374 C 0.59741 0.84552 0.58212 0.0
C2375 C 0.59541 0.8603 0.59342 0.0
C2376 C 0.65493 0.87039 0.58169 0.0
C2377 C 0.57881 0.82658 0.57448 0.0
C2378 C 0.61092 0.87464 0.44682 0.0
C2379 C 0.63037 0.87836 0.45205 0.0
C2380 C 0.63328 0.86372 0.46224 0.0
C2381 C 0.61642 0.84495 0.46703 0.0
C2382 C 0.59693 0.84074 0.46073 0.0
C2383 C 0.59446 0.85566 0.45059 0.0
C2384 C 0.65431 0.86847 0.46832 0.0
C2385 C 0.57868 0.82074 0.4653 0.0
C2386 C 0.62843 0.71299 0.45557 0.0
C2387 C 0.63175 0.72577 0.43646 0.0
C2388 C 0.63857 0.75917 0.45022 0.0
C2389 C 0.65378 0.77905 0.45444 0.0
C2390 C 0.6497 0.79323 0.46403 0.0
C2391 C 0.62979 0.78737 0.46933 0.0
C2392 C 0.61417 0.7674 0.46469 0.0
C2393 C 0.61872 0.75342 0.45532 0.0
C2394 C 0.66673 0.81437 0.46883 0.0
C2395 C 0.59275 0.76075 0.47001 0.0
C2396 C 0.62602 0.80469 0.56772 0.0
C2397 C 0.62277 0.81919 0.57775 0.0
C2398 C 0.6193 0.83296 0.56666 0.0
C2399 C 0.61898 0.83225 0.54493 0.0
C2400 C 0.61592 0.84608 0.53328 0.0
C2401 C 0.61582 0.84538 0.51192 0.0
C2402 C 0.61889 0.83087 0.50136 0.0
C2403 C 0.61911 0.83021 0.47966 0.0
C2404 C 0.62236 0.81571 0.46964 0.0
C2405 C 0.62554 0.80181 0.48078 0.0
C2406 C 0.62535 0.80221 0.50249 0.0
C2407 C 0.62864 0.78852 0.51414 0.0
C2408 C 0.62869 0.78918 0.53547 0.0
C2409 C 0.62554 0.80362 0.54602 0.0
C2410 C 0.62206 0.81748 0.5346 0.0
C2411 C 0.622 0.81679 0.5128 0.0
C2412 C 0.6065 0.91916 0.44612 0.0
C2413 C 0.61949 0.90978 0.44033 0.0
O2414 O 0.64631 0.75323 0.61252 0.0
O2415 O 0.64389 0.74619 0.44145 0.0
O2416 O 0.6074 0.88891 0.43824 0.0
O2417 O 0.60984 0.89083 0.61355 0.0
H2418 H 0.6213 0.72513 0.61302 0.0
H2419 H 0.61722 0.74762 0.63891 0.0
H2420 H 0.63951 0.75156 0.65275 0.0
H2421 H 0.61743 0.72666 0.65128 0.0
H2422 H 0.6085 0.74499 0.6025 0.0
H2423 H 0.6713 0.78811 0.59898 0.0
H2424 H 0.59006 0.77736 0.58853 0.0
H2425 H 0.58334 0.75091 0.58886 0.0
H2426 H 0.59094 0.7649 0.56539 0.0
H2427 H 0.68307 0.81979 0.58348 0.0
H2428 H 0.66596 0.82977 0.58365 0.0
H2429 H 0.66797 0.81751 0.56089 0.0
H2430 H 0.62474 0.88696 0.63821 0.0
H2431 H 0.60716 0.89634 0.66415 0.0
H2432 H 0.59092 0.87437 0.64836 0.0
H2433 H 0.59167 0.89807 0.64372 0.0
H2434 H 0.64453 0.89451 0.60299 0.0
H2435 H 0.58064 0.85809 0.59663 0.0
H2436 H 0.65655 0.86864 0.56501 0.0
H2437 H 0.65757 0.85905 0.58978 0.0
H2438 H 0.66664 0.88582 0.58699 0.0
H2439 H 0.56482 0.82597 0.57976 0.0
H2440 H 0.57923 0.81293 0.57988 0.0
H2441 H 0.57836 0.82596 0.55743 0.0
H2442 H 0.63058 0.91374 0.45332 0.0
H2443 H 0.64329 0.89267 0.44831 0.0
H2444 H 0.57955 0.85281 0.44613 0.0
H2445 H 0.65575 0.86819 0.4853 0.0
H2446 H 0.66588 0.88356 0.463 0.0
H2447 H 0.65731 0.85666 0.46178 0.0
H2448 H 0.56466 0.81942 0.45845 0.0
H2449 H 0.5771 0.8191 0.48219 0.0
H2450 H 0.58058 0.80803 0.45931 0.0
H2451 H 0.61704 0.72316 0.43016 0.0
H2452 H 0.61875 0.6966 0.45159 0.0
H2453 H 0.62086 0.71718 0.46746 0.0
H2454 H 0.64301 0.71548 0.46215 0.0
H2455 H 0.66902 0.78335 0.45044 0.0
H2456 H 0.60671 0.7381 0.45229 0.0
H2457 H 0.66757 0.81771 0.48558 0.0
H2458 H 0.66388 0.82561 0.4608 0.0
H2459 H 0.68147 0.81641 0.46411 0.0
H2460 H 0.58207 0.74529 0.46384 0.0
H2461 H 0.58825 0.7716 0.46385 0.0
H2462 H 0.59153 0.7608 0.48696 0.0
H2463 H 0.62331 0.82 0.59442 0.0
H2464 H 0.6136 0.85766 0.54054 0.0
H2465 H 0.6134 0.85643 0.5038 0.0
H2466 H 0.62266 0.81541 0.453 0.0
H2467 H 0.63128 0.77714 0.50691 0.0
H2468 H 0.63131 0.77825 0.54358 0.0
H2469 H 0.59449 0.91554 0.43426 0.0
H2470 H 0.61589 0.93592 0.44788 0.0
H2471 H 0.5993 0.91307 0.46098 0.0
C2472 C 0.1159 0.71159 0.64403 0.0
C2473 C 0.1065 0.72463 0.63792 0.0
C2474 C 0.12145 0.74343 0.60739 0.0
C2475 C 0.11736 0.75838 0.60018 0.0
C2476 C 0.13197 0.77522 0.58986 0.0
C2477 C 0.15096 0.77691 0.58655 0.0
C2478 C 0.15502 0.76167 0.5937 0.0
C2479 C 0.14013 0.745 0.60395 0.0
C2480 C 0.12711 0.79114 0.58235 0.0
C2481 C 0.17503 0.76291 0.59027 0.0
C2482 C 0.27356 0.92284 0.64669 0.0
C2483 C 0.25951 0.90148 0.64086 0.0
C2484 C 0.23515 0.8821 0.61327 0.0
C2485 C 0.23695 0.86455 0.61434 0.0
C2486 C 0.22397 0.84703 0.60268 0.0
C2487 C 0.20847 0.84688 0.59027 0.0
C2488 C 0.20608 0.86429 0.58997 0.0
C2489 C 0.21983 0.88184 0.60104 0.0
C2490 C 0.22703 0.82881 0.60343 0.0
C2491 C 0.18915 0.86453 0.57786 0.0
C2492 C 0.2387 0.88195 0.45688 0.0
C2493 C 0.2458 0.86959 0.46535 0.0
C2494 C 0.23295 0.85215 0.47617 0.0
C2495 C 0.2128 0.84734 0.47903 0.0
C2496 C 0.20569 0.85985 0.47048 0.0
C2497 C 0.21866 0.87674 0.45917 0.0
C2498 C 0.24083 0.83873 0.48431 0.0
C2499 C 0.18435 0.85535 0.47312 0.0
C2500 C 0.08109 0.70446 0.46014 0.0
C2501 C 0.08512 0.7231 0.44765 0.0
C2502 C 0.12054 0.74843 0.45265 0.0
C2503 C 0.13895 0.74877 0.45401 0.0
C2504 C 0.1552 0.76398 0.46557 0.0
C2505 C 0.153 0.77941 0.47556 0.0
C2506 C 0.13472 0.77972 0.47332 0.0
C2507 C 0.11868 0.76421 0.46193 0.0
C2508 C 0.17457 0.76337 0.46745 0.0
C2509 C 0.13202 0.79634 0.48314 0.0
C2510 C 0.16648 0.79445 0.57535 0.0
C2511 C 0.18003 0.81173 0.58679 0.0
C2512 C 0.19506 0.82876 0.57725 0.0
C2513 C 0.19671 0.82861 0.55564 0.0
C2514 C 0.21179 0.84534 0.54552 0.0
C2515 C 0.21255 0.84553 0.5242 0.0
C2516 C 0.19862 0.82877 0.51215 0.0
C2517 C 0.19889 0.829 0.49042 0.0
C2518 C 0.18448 0.8122 0.47897 0.0
C2519 C 0.1696 0.79518 0.48859 0.0
C2520 C 0.16937 0.79446 0.51026 0.0
C2521 C 0.15484 0.77736 0.52039 0.0
C2522 C 0.15403 0.77719 0.5417 0.0
C2523 C 0.16767 0.79416 0.55372 0.0
C2524 C 0.18278 0.81136 0.54384 0.0
C2525 C 0.18374 0.81144 0.52208 0.0
C2526 C 0.27294 0.92484 0.4695 0.0
C2527 C 0.27059 0.91245 0.44985 0.0
O2528 O 0.10695 0.72709 0.61684 0.0
O2529 O 0.10504 0.73288 0.44205 0.0
O2530 O 0.25045 0.89868 0.44596 0.0
O2531 O 0.24803 0.89966 0.62342 0.0
H2532 H 0.11544 0.73975 0.64582 0.0
H2533 H 0.13229 0.71993 0.6415 0.0
H2534 H 0.10904 0.69716 0.63487 0.0
H2535 H 0.11379 0.70803 0.66061 0.0
H2536 H 0.10272 0.75681 0.60272 0.0
H2537 H 0.14295 0.73304 0.60902 0.0
H2538 H 0.13821 0.80623 0.58899 0.0
H2539 H 0.11179 0.78781 0.5865 0.0
H2540 H 0.12823 0.79208 0.56539 0.0
H2541 H 0.17588 0.74986 0.59686 0.0
H2542 H 0.18726 0.77718 0.59736 0.0
H2543 H 0.17769 0.76331 0.57355 0.0
H2544 H 0.25054 0.89201 0.65372 0.0
H2545 H 0.30239 0.92668 0.64347 0.0
H2546 H 0.26766 0.93335 0.6427 0.0
H2547 H 0.26766 0.93335 0.6427 0.0
H2548 H 0.24874 0.86457 0.62382 0.0
H2549 H 0.2185 0.89543 0.60043 0.0
H2550 H 0.21436 0.81636 0.61143 0.0
H2551 H 0.24125 0.83226 0.61167 0.0
H2552 H 0.22717 0.82324 0.58762 0.0
H2553 H 0.18652 0.87699 0.58319 0.0
H2554 H 0.17498 0.84987 0.57908 0.0
H2555 H 0.19297 0.86686 0.56142 0.0
H2556 H 0.2792 0.90426 0.45177 0.0
H2557 H 0.26114 0.87313 0.46313 0.0
H2558 H 0.21331 0.88627 0.45237 0.0
H2559 H 0.24168 0.8397 0.50134 0.0
H2560 H 0.25602 0.84317 0.47869 0.0
H2561 H 0.23044 0.82265 0.47972 0.0
H2562 H 0.18225 0.86834 0.46874 0.0
H2563 H 0.17987 0.85153 0.48929 0.0
H2564 H 0.17412 0.84204 0.46324 0.0
H2565 H 0.08179 0.73275 0.45798 0.0
H2566 H 0.06507 0.69589 0.46438 0.0
H2567 H 0.09043 0.70945 0.47456 0.0
H2568 H 0.08514 0.69439 0.45139 0.0
H2569 H 0.14035 0.73673 0.44645 0.0
H2570 H 0.10485 0.7647 0.46015 0.0
H2571 H 0.17857 0.76321 0.48391 0.0
H2572 H 0.1869 0.77727 0.46081 0.0
H2573 H 0.17361 0.74988 0.45945 0.0
H2574 H 0.11793 0.79588 0.47772 0.0
H2575 H 0.1449 0.81146 0.47981 0.0
H2576 H 0.13155 0.79469 0.50007 0.0
H2577 H 0.17878 0.81198 0.60334 0.0
H2578 H 0.22304 0.85864 0.55396 0.0
H2579 H 0.22419 0.85905 0.51729 0.0
H2580 H 0.18432 0.81274 0.46233 0.0
H2581 H 0.14384 0.76393 0.51192 0.0
H2582 H 0.14241 0.76367 0.54863 0.0
H2583 H 0.28897 0.93606 0.47283 0.0
H2584 H 0.26728 0.91463 0.48278 0.0
H2585 H 0.26428 0.93302 0.46793 0.0
C2586 C 0.1143 0.3755 0.6459 0.0
C2587 C 0.09947 0.36737 0.62738 0.0
C2588 C 0.1211 0.36174 0.60356 0.0
C2589 C 0.13471 0.38213 0.5995 0.0
C2590 C 0.15237 0.38737 0.58889 0.0
C2591 C 0.15638 0.37191 0.58218 0.0
C2592 C 0.14248 0.35136 0.58595 0.0
C2593 C 0.12494 0.34657 0.59644 0.0
C2594 C 0.16676 0.40939 0.58484 0.0
C2595 C 0.14621 0.33445 0.57902 0.0
C2596 C 0.28217 0.40562 0.66647 0.0
C2597 C 0.27094 0.39016 0.64903 0.0
C2598 C 0.25853 0.39614 0.61654 0.0
C2599 C 0.243 0.37625 0.61239 0.0
C2600 C 0.22746 0.3724 0.59812 0.0
C2601 C 0.22732 0.38882 0.58803 0.0
C2602 C 0.24318 0.40885 0.59194 0.0
C2603 C 0.25881 0.41218 0.60588 0.0
C2604 C 0.21102 0.3508 0.5941 0.0
C2605 C 0.24338 0.42678 0.5818 0.0
C2606 C 0.26407 0.38733 0.45562 0.0
C2607 C 0.24925 0.36804 0.4617 0.0
C2608 C 0.23247 0.36565 0.47233 0.0
C2609 C 0.23026 0.3828 0.47657 0.0
C2610 C 0.24485 0.40213 0.46993 0.0
C2611 C 0.26154 0.40411 0.45945 0.0
C2612 C 0.21704 0.34477 0.47896 0.0
C2613 C 0.24282 0.42068 0.47397 0.0
C2614 C 0.07965 0.33813 0.46234 0.0
C2615 C 0.09008 0.34999 0.44325 0.0
C2616 C 0.1232 0.35324 0.44856 0.0
C2617 C 0.13026 0.33975 0.45243 0.0
C2618 C 0.14803 0.34585 0.46403 0.0
C2619 C 0.15933 0.36622 0.47128 0.0
C2620 C 0.15285 0.3803 0.46632 0.0
C2621 C 0.13468 0.37359 0.45518 0.0
C2622 C 0.15453 0.33042 0.46873 0.0
C2623 C 0.16498 0.40233 0.47298 0.0
C2624 C 0.17516 0.37711 0.57136 0.0
C2625 C 0.19233 0.38168 0.58326 0.0
C2626 C 0.21009 0.38506 0.57418 0.0
C2627 C 0.21089 0.38411 0.55253 0.0
C2628 C 0.22835 0.38704 0.54285 0.0
C2629 C 0.22894 0.386 0.52153 0.0
C2630 C 0.21203 0.3818 0.50908 0.0
C2631 C 0.21235 0.38038 0.48742 0.0
C2632 C 0.19517 0.37591 0.47554 0.0
C2633 C 0.17746 0.37249 0.48469 0.0
C2634 C 0.17685 0.37389 0.50631 0.0
C2635 C 0.1592 0.37033 0.51603 0.0
C2636 C 0.15869 0.37166 0.53729 0.0
C2637 C 0.17572 0.37627 0.54971 0.0
C2638 C 0.19366 0.37981 0.54027 0.0
C2639 C 0.19423 0.37864 0.51853 0.0
C2640 C 0.31201 0.39264 0.45535 0.0
C2641 C 0.29038 0.37893 0.44747 0.0
O2642 O 0.1041 0.35586 0.61421 0.0
O2643 O 0.10541 0.34617 0.43814 0.0
O2644 O 0.28079 0.39036 0.44577 0.0
O2645 O 0.27331 0.40038 0.63085 0.0
H2646 H 0.10006 0.38032 0.61889 0.0
H2647 H 0.12971 0.38619 0.64098 0.0
H2648 H 0.11464 0.36284 0.65405 0.0
H2649 H 0.10986 0.38386 0.65682 0.0
H2650 H 0.13164 0.39397 0.60452 0.0
H2651 H 0.11424 0.33088 0.59949 0.0
H2652 H 0.18145 0.414 0.59271 0.0
H2653 H 0.16111 0.41955 0.59029 0.0
H2654 H 0.16941 0.41147 0.56812 0.0
H2655 H 0.13438 0.31934 0.58402 0.0
H2656 H 0.16098 0.33721 0.58525 0.0
H2657 H 0.14674 0.33415 0.56201 0.0
H2658 H 0.2548 0.38215 0.65311 0.0
H2659 H 0.28033 0.39775 0.68125 0.0
H2660 H 0.27599 0.41609 0.66804 0.0
H2661 H 0.29844 0.41475 0.6634 0.0
H2662 H 0.24302 0.36373 0.62026 0.0
H2663 H 0.27098 0.42745 0.6091 0.0
H2664 H 0.20795 0.34766 0.57733 0.0
H2665 H 0.19701 0.34856 0.60111 0.0
H2666 H 0.21488 0.33962 0.60068 0.0
H2667 H 0.25585 0.44149 0.58784 0.0
H2668 H 0.22892 0.42651 0.5842 0.0
H2669 H 0.24501 0.42585 0.565 0.0
H2670 H 0.28332 0.36709 0.45923 0.0
H2671 H 0.2505 0.35476 0.45794 0.0
H2672 H 0.27289 0.41887 0.45442 0.0
H2673 H 0.215 0.34493 0.49578 0.0
H2674 H 0.22134 0.33308 0.47525 0.0
H2675 H 0.20236 0.34035 0.47123 0.0
H2676 H 0.25552 0.43467 0.4679 0.0
H2677 H 0.24208 0.42282 0.49076 0.0
H2678 H 0.22858 0.41848 0.46675 0.0
H2679 H 0.09629 0.36646 0.44657 0.0
H2680 H 0.06719 0.3409 0.46646 0.0
H2681 H 0.09053 0.34312 0.47559 0.0
H2682 H 0.07354 0.32159 0.45955 0.0
H2683 H 0.12141 0.32417 0.44687 0.0
H2684 H 0.12968 0.38431 0.45144 0.0
H2685 H 0.15821 0.33087 0.48538 0.0
H2686 H 0.16829 0.33419 0.46021 0.0
H2687 H 0.1428 0.31474 0.46421 0.0
H2688 H 0.15959 0.41186 0.46526 0.0
H2689 H 0.18107 0.40834 0.46962 0.0
H2690 H 0.16391 0.40374 0.48982 0.0
H2691 H 0.19173 0.38213 0.59988 0.0
H2692 H 0.24176 0.39016 0.55165 0.0
H2693 H 0.2428 0.38844 0.51493 0.0
H2694 H 0.19547 0.37464 0.45896 0.0
H2695 H 0.14553 0.36647 0.50734 0.0
H2696 H 0.14472 0.36889 0.54388 0.0
H2697 H 0.32005 0.38381 0.45662 0.0
H2698 H 0.31197 0.39891 0.47083 0.0
H2699 H 0.32032 0.40553 0.44499 0.0
C2700 C 0.97808 0.37043 0.04889 0.0
C2701 C 0.99772 0.37359 0.05135 0.0
C2702 C 0.96934 0.37616 0.06444 0.0
C2703 C 0.97991 0.38517 0.08302 0.0
H2704 H 0.96962 0.36408 0.03461 0.0
H2705 H 0.95435 0.3739 0.06174 0.0
S2706 S 0.03077 0.39412 0.09803 0.0
N2707 N 0.02681 0.38459 0.0744 0.0
N2708 N 0.01032 0.39504 0.10373 0.0
C2709 C 0.99917 0.38737 0.08605 0.0
C2710 C 0.00811 0.38175 0.07016 0.0
C2711 C 0.64554 0.596 0.0658 0.0
C2712 C 0.62949 0.60371 0.05174 0.0
C2713 C 0.63436 0.5728 0.08066 0.0
C2714 C 0.6064 0.56091 0.08368 0.0
H2715 H 0.66169 0.60535 0.06557 0.0
H2716 H 0.64355 0.5689 0.09036 0.0
S2717 S 0.5882 0.57482 0.05422 0.0
N2718 N 0.58947 0.59352 0.03976 0.0
N2719 N 0.56877 0.55505 0.06479 0.0
C2720 C 0.58969 0.56567 0.0649 0.0
C2721 C 0.60169 0.58791 0.05084 0.0
C2722 C 0.38455 0.00095 0.04962 0.0
C2723 C 0.37378 0.0115 0.0505 0.0
C2724 C 0.39882 0.00369 0.06498 0.0
C2725 C 0.40276 0.01704 0.08189 0.0
H2726 H 0.38192 0.9905 0.03691 0.0
H2727 H 0.40665 0.99513 0.06359 0.0
S2728 S 0.37537 0.04488 0.09325 0.0
N2729 N 0.36562 0.03326 0.07091 0.0
N2730 N 0.39292 0.03907 0.09959 0.0
C2731 C 0.39135 0.02697 0.0833 0.0
C2732 C 0.37671 0.024 0.06771 0.0
C2733 C 0.38281 0.01225 0.94917 0.0
C2734 C 0.36973 0.9985 0.96344 0.0
C2735 C 0.39089 0.00592 0.93357 0.0
C2736 C 0.38662 0.98562 0.93183 0.0
H2737 H 0.38693 0.02814 0.95006 0.0
H2738 H 0.4008 0.01711 0.92295 0.0
S2739 S 0.35215 0.94326 0.96432 0.0
N2740 N 0.35195 0.96337 0.97409 0.0
N2741 N 0.36736 0.95149 0.94478 0.0
C2742 C 0.373 0.97154 0.94551 0.0
C2743 C 0.36456 0.97797 0.96133 0.0
C2744 C 0.0354 0.39493 0.95191 0.0
C2745 C 0.02145 0.39078 0.96747 0.0
C2746 C 0.03787 0.40837 0.93576 0.0
C2747 C 0.02499 0.41665 0.93316 0.0
H2748 H 0.04329 0.38638 0.95112 0.0
H2749 H 0.04709 0.40904 0.9231 0.0
S2750 S 0.97812 0.41487 0.96725 0.0
N2751 N 0.98991 0.39611 0.97747 0.0
N2752 N 0.00371 0.4319 0.94867 0.0
C2753 C 0.02054 0.42368 0.95049 0.0
C2754 C 0.01219 0.40252 0.96795 0.0
C2755 C 0.61465 0.61785 0.95288 0.0
C2756 C 0.61687 0.62899 0.97113 0.0
C2757 C 0.59977 0.61445 0.938 0.0
C2758 C 0.58616 0.62166 0.94092 0.0
H2759 H 0.62447 0.61164 0.95001 0.0
H2760 H 0.59877 0.60589 0.92418 0.0
S2761 S 0.58614 0.6527 0.98531 0.0
N2762 N 0.60465 0.64807 0.99076 0.0
N2763 N 0.57663 0.64149 0.96278 0.0
C2764 C 0.58856 0.63332 0.95876 0.0
C2765 C 0.60383 0.63696 0.97388 0.0
C2766 C 0.00987 0.63981 0.94276 0.0
C2767 C 0.99708 0.62959 0.95881 0.0
C2768 C 0.01359 0.62915 0.92735 0.0
C2769 C 0.00435 0.60772 0.92729 0.0
H2770 H 0.01714 0.65621 0.94217 0.0
H2771 H 0.02389 0.63801 0.91565 0.0
S2772 S 0.96824 0.57401 0.96538 0.0
N2773 N 0.97421 0.59715 0.97332 0.0
N2774 N 0.98102 0.57687 0.94439 0.0
C2775 C 0.99095 0.59742 0.94303 0.0
C2776 C 0.98722 0.60835 0.95867 0.0
C2777 C 0.38066 0.39002 0.94445 0.0
C2778 C 0.37167 0.39165 0.96247 0.0
C2779 C 0.38409 0.40312 0.92808 0.0
C2780 C 0.37899 0.4186 0.92918 0.0
H2781 H 0.3846 0.37817 0.94272 0.0
H2782 H 0.39053 0.40091 0.9143 0.0
S2783 S 0.3565 0.43035 0.97353 0.0
N2784 N 0.35864 0.41067 0.98082 0.0
N2785 N 0.36531 0.43538 0.95013 0.0
C2786 C 0.37053 0.42078 0.94733 0.0
C2787 C 0.36684 0.40732 0.96393 0.0
C2788 C 0.61096 0.99785 0.96963 0.0
C2789 C 0.62499 0.9911 0.97028 0.0
C2790 C 0.59729 0.99261 0.95298 0.0
C2791 C 0.59724 0.98059 0.93619 0.0
H2792 H 0.61032 0.00693 0.98224 0.0
H2793 H 0.58657 0.99803 0.9533 0.0
S2794 S 0.63522 0.96395 0.92886 0.0
N2795 N 0.64067 0.97493 0.95187 0.0
N2796 N 0.61562 0.96547 0.92018 0.0
C2797 C 0.61256 0.97525 0.93611 0.0
C2798 C 0.62624 0.98038 0.95327 0.0
C2799 C 0.63522 0.02225 0.06433 0.0
C2800 C 0.63004 0.00171 0.06197 0.0
C2801 C 0.62918 0.02914 0.08136 0.0
C2802 C 0.61791 0.01585 0.09689 0.0
H2803 H 0.64386 0.0331 0.05281 0.0
H2804 H 0.63349 0.04506 0.08247 0.0
S2805 S 0.6006 0.96068 0.09827 0.0
N2806 N 0.61289 0.96813 0.07671 0.0
N2807 N 0.60183 0.98118 0.10884 0.0
C2808 C 0.61261 0.99529 0.09474 0.0
C2809 C 0.61858 0.9882 0.07729 0.0
C2810 C 0.00168 0.61385 0.05284 0.0
C2811 C 0.98915 0.62145 0.04589 0.0
C2812 C 0.99457 0.59708 0.06559 0.0
C2813 C 0.97475 0.58748 0.0725 0.0
H2814 H 0.01693 0.62025 0.04767 0.0
H2815 H 0.00455 0.59122 0.06951 0.0
S2816 S 0.93622 0.60231 0.0604 0.0
N2817 N 0.95614 0.61868 0.04799 0.0
N2818 N 0.94295 0.58733 0.07228 0.0
C2819 C 0.9623 0.59544 0.06648 0.0
C2820 C 0.96947 0.61241 0.05324 0.0
C2821 C 0.3956 0.39175 0.05689 0.0
C2822 C 0.38071 0.37182 0.05209 0.0
C2823 C 0.40926 0.39587 0.07336 0.0
C2824 C 0.40845 0.38028 0.08578 0.0
H2825 H 0.39698 0.40414 0.0476 0.0
H2826 H 0.42075 0.4115 0.07629 0.0
S2827 S 0.36844 0.32589 0.08171 0.0
N2828 N 0.36356 0.33675 0.0623 0.0
N2829 N 0.38864 0.34417 0.09354 0.0
C2830 C 0.39238 0.36035 0.08186 0.0
C2831 C 0.37869 0.35624 0.06491 0.0
C2832 C 0.67198 0.72301 0.40464 0.0
C2833 C 0.66068 0.70858 0.38902 0.0
C2834 C 0.66264 0.72824 0.41995 0.0
C2835 C 0.64161 0.71954 0.4201 0.0
H2836 H 0.68823 0.73055 0.405 0.0
H2837 H 0.67203 0.7394 0.43161 0.0
S2838 S 0.6049 0.67966 0.38402 0.0
N2839 N 0.62703 0.68462 0.37566 0.0
N2840 N 0.60966 0.69466 0.40439 0.0
C2841 C 0.63007 0.70454 0.40513 0.0
C2842 C 0.63954 0.69907 0.38958 0.0
C2843 C 0.27444 0.94264 0.40136 0.0
C2844 C 0.29505 0.95236 0.39765 0.0
C2845 C 0.26656 0.92988 0.41814 0.0
C2846 C 0.27912 0.92651 0.43184 0.0
H2847 H 0.2643 0.94462 0.391 0.0
H2848 H 0.25052 0.92251 0.42022 0.0
S2849 S 0.33476 0.95264 0.43138 0.0
N2850 N 0.32824 0.96078 0.41073 0.0
N2851 N 0.31354 0.93652 0.4421 0.0
C2852 C 0.29996 0.93734 0.42894 0.0
C2853 C 0.30791 0.95035 0.41191 0.0
C2854 C 0.05895 0.32315 0.39434 0.0
C2855 C 0.0482 0.33345 0.39082 0.0
C2856 C 0.07222 0.32829 0.41134 0.0
C2857 C 0.07504 0.34384 0.42542 0.0
H2858 H 0.05752 0.31148 0.38358 0.0
H2859 H 0.08055 0.32025 0.41324 0.0
S2860 S 0.04587 0.37102 0.42581 0.0
N2861 N 0.03804 0.3568 0.40459 0.0
N2862 N 0.06309 0.36667 0.43655 0.0
C2863 C 0.06295 0.35291 0.4229 0.0
C2864 C 0.0495 0.34767 0.40559 0.0
C2865 C 0.03202 0.28859 0.29511 0.0
C2866 C 0.04938 0.31445 0.3038 0.0
C2867 C 0.04028 0.27507 0.27831 0.0
C2868 C 0.06585 0.29115 0.26782 0.0
H2869 H 0.01668 0.28111 0.30008 0.0
H2870 H 0.02975 0.26035 0.27166 0.0
S2871 S 0.10972 0.34822 0.29009 0.0
N2872 N 0.08976 0.34591 0.30286 0.0
N2873 N 0.10427 0.32725 0.27596 0.0
C2874 C 0.08507 0.31508 0.28087 0.0
C2875 C 0.07553 0.32703 0.2972 0.0
C2876 C 0.67701 0.74384 0.30413 0.0
C2877 C 0.68677 0.72636 0.30333 0.0
C2878 C 0.68646 0.76524 0.28716 0.0
C2879 C 0.703 0.76467 0.26665 0.0
H2880 H 0.66554 0.74155 0.31487 0.0
H2881 H 0.67984 0.77498 0.2864 0.0
S2882 S 0.7293 0.72799 0.26404 0.0
N2883 N 0.71403 0.71737 0.28389 0.0
N2884 N 0.7291 0.74891 0.25575 0.0
C2885 C 0.71695 0.75049 0.26934 0.0
C2886 C 0.70669 0.73006 0.28661 0.0
C2887 C 0.27267 0.94137 0.29242 0.0
C2888 C 0.27521 0.95484 0.30872 0.0
C2889 C 0.25839 0.93702 0.27653 0.0
C2890 C 0.24565 0.94554 0.27658 0.0
H2891 H 0.28206 0.93439 0.2917 0.0
H2892 H 0.25738 0.92693 0.2641 0.0
S2893 S 0.24619 0.98181 0.31565 0.0
N2894 N 0.26385 0.97684 0.32382 0.0
N2895 N 0.23683 0.96842 0.2941 0.0
C2896 C 0.24808 0.9591 0.29274 0.0
C2897 C 0.26281 0.96374 0.30879 0.0
C2898 C 0.67735 0.94032 0.29275 0.0
C2899 C 0.68068 0.96 0.29644 0.0
C2900 C 0.68789 0.93648 0.27762 0.0
C2901 C 0.70204 0.95213 0.26539 0.0
H2902 H 0.66677 0.92789 0.30185 0.0
H2903 H 0.68483 0.921 0.27551 0.0
S2904 S 0.71203 0.00556 0.26632 0.0
N2905 N 0.69645 0.99471 0.28515 0.0
N2906 N 0.71574 0.98768 0.25617 0.0
C2907 C 0.70418 0.97168 0.26807 0.0
C2908 C 0.69367 0.97556 0.28376 0.0
C2909 C 0.04866 0.72854 0.2831 0.0
C2910 C 0.04071 0.73167 0.30119 0.0
C2911 C 0.05004 0.73941 0.26535 0.0
C2912 C 0.04385 0.7541 0.26506 0.0
H2913 H 0.05306 0.71697 0.28234 0.0
H2914 H 0.05553 0.7359 0.25158 0.0
S2915 S 0.02428 0.7698 0.30915 0.0
N2916 N 0.02799 0.75158 0.31821 0.0
N2917 N 0.0311 0.77242 0.28499 0.0
C2918 C 0.03687 0.75814 0.28337 0.0
C2919 C 0.03517 0.74683 0.30138 0.0
C2920 C 0.26652 0.32712 0.29553 0.0
C2921 C 0.28198 0.32258 0.29891 0.0
C2922 C 0.25229 0.31756 0.27942 0.0
C2923 C 0.25307 0.30325 0.2659 0.0
H2924 H 0.26521 0.33786 0.3056 0.0
H2925 H 0.24053 0.32149 0.27758 0.0
S2926 S 0.29436 0.2905 0.26583 0.0
N2927 N 0.29952 0.30568 0.28608 0.0
N2928 N 0.27349 0.28819 0.25539 0.0
C2929 C 0.26969 0.29996 0.26836 0.0
C2930 C 0.28391 0.30948 0.28499 0.0
C2931 C 0.28617 0.33947 0.40756 0.0
C2932 C 0.29352 0.35082 0.38967 0.0
C2933 C 0.28461 0.34849 0.42582 0.0
C2934 C 0.29004 0.36914 0.42689 0.0
H2935 H 0.28235 0.32366 0.40774 0.0
H2936 H 0.27959 0.33931 0.43937 0.0
S2937 S 0.30811 0.40505 0.38385 0.0
N2938 N 0.30495 0.38352 0.37381 0.0
N2939 N 0.30168 0.40035 0.40806 0.0
C2940 C 0.29651 0.38044 0.40887 0.0
C2941 C 0.29833 0.37132 0.39031 0.0
C2942 C 0.66021 0.94412 0.40374 0.0
C2943 C 0.64978 0.94006 0.38467 0.0
C2944 C 0.65055 0.93372 0.42136 0.0
C2945 C 0.63018 0.91865 0.42056 0.0
H2946 H 0.6757 0.95613 0.40533 0.0
H2947 H 0.65894 0.93799 0.43587 0.0
S2948 S 0.59673 0.90058 0.37397 0.0
N2949 N 0.61836 0.91868 0.36573 0.0
N2950 N 0.60029 0.89909 0.39884 0.0
C2951 C 0.61987 0.91367 0.40139 0.0
C2952 C 0.62965 0.92435 0.38347 0.0
C2953 C 0.04705 0.69502 0.40301 0.0
C2954 C 0.04726 0.71105 0.3922 0.0
C2955 C 0.0592 0.69867 0.42063 0.0
C2956 C 0.07172 0.71858 0.42848 0.0
H2957 H 0.03744 0.67947 0.39771 0.0
H2958 H 0.05858 0.68562 0.42793 0.0
S2959 S 0.07682 0.76571 0.40597 0.0
N2960 N 0.06023 0.74733 0.3906 0.0
N2961 N 0.08319 0.75446 0.42387 0.0
C2962 C 0.07169 0.73469 0.41784 0.0
C2963 C 0.05929 0.73089 0.39983 0.0
C2964 C 0.334 0.05855 0.73455 0.0
C2965 C 0.32172 0.04376 0.71966 0.0
C2966 C 0.32569 0.06384 0.75084 0.0
C2967 C 0.30472 0.05494 0.75261 0.0
H2968 H 0.35021 0.066 0.73373 0.0
H2969 H 0.3358 0.07509 0.76207 0.0
S2970 S 0.26593 0.0151 0.71798 0.0
N2971 N 0.28747 0.01994 0.70803 0.0
N2972 N 0.2719 0.0301 0.73853 0.0
C2973 C 0.29229 0.03992 0.73801 0.0
C2974 C 0.30074 0.03434 0.72155 0.0
C2975 C 0.97585 0.26599 0.73408 0.0
C2976 C 0.9592 0.27122 0.71824 0.0
C2977 C 0.96576 0.24517 0.75173 0.0
C2978 C 0.93807 0.23322 0.75521 0.0
H2979 H 0.99193 0.2755 0.73315 0.0
H2980 H 0.97548 0.24296 0.76244 0.0
S2981 S 0.89695 0.23928 0.7169 0.0
N2982 N 0.91861 0.25786 0.70765 0.0
N2983 N 0.90077 0.22593 0.73533 0.0
C2984 C 0.92087 0.23468 0.73547 0.0
C2985 C 0.93229 0.25545 0.71866 0.0
C2986 C 0.71197 0.68386 0.73542 0.0
C2987 C 0.70919 0.66878 0.72094 0.0
C2988 C 0.72576 0.68902 0.75194 0.0
C2989 C 0.73712 0.67914 0.7546 0.0
H2990 H 0.70368 0.69198 0.73376 0.0
H2991 H 0.72787 0.70112 0.76247 0.0
S2992 S 0.73224 0.63582 0.72284 0.0
N2993 N 0.71666 0.64219 0.71159 0.0
N2994 N 0.74236 0.65147 0.74286 0.0
C2995 C 0.73316 0.66284 0.74107 0.0
C2996 C 0.71918 0.65771 0.72422 0.0
C2997 C 0.73696 0.66496 0.63223 0.0
C2998 C 0.71004 0.65294 0.6357 0.0
C2999 C 0.74764 0.65181 0.61848 0.0
C3000 C 0.72872 0.62781 0.60488 0.0
H3001 H 0.74682 0.67993 0.63876 0.0
H3002 H 0.76345 0.65924 0.61516 0.0
S3003 S 0.66721 0.59525 0.61504 0.0
N3004 N 0.6732 0.6168 0.62844 0.0
N3005 N 0.68748 0.59535 0.60522 0.0
C3006 C 0.70222 0.61314 0.61286 0.0
C3007 C 0.69323 0.62726 0.62665 0.0
C3008 C 0.34487 0.04614 0.61432 0.0
C3009 C 0.33067 0.04306 0.62915 0.0
C3010 C 0.347 0.05793 0.59714 0.0
C3011 C 0.33486 0.06689 0.59413 0.0
H3012 H 0.35454 0.03952 0.61609 0.0
H3013 H 0.35838 0.06021 0.58623 0.0
S3014 S 0.29329 0.06058 0.6272 0.0
N3015 N 0.30289 0.04789 0.63888 0.0
N3016 N 0.30654 0.06988 0.60643 0.0
C3017 C 0.31971 0.06281 0.6083 0.0
C3018 C 0.31765 0.05085 0.62582 0.0
C3019 C 0.94854 0.27844 0.61466 0.0
C3020 C 0.94964 0.2904 0.63187 0.0
C3021 C 0.93491 0.27468 0.59825 0.0
C3022 C 0.92145 0.28232 0.59855 0.0
H3023 H 0.95836 0.27196 0.61375 0.0
H3024 H 0.93485 0.26558 0.58529 0.0
S3025 S 0.91868 0.31525 0.63942 0.0
N3026 N 0.93646 0.31052 0.64775 0.0
N3027 N 0.91077 0.30324 0.61697 0.0
C3028 C 0.92268 0.29467 0.6154 0.0
C3029 C 0.9367 0.29869 0.63205 0.0
C3030 C 0.34078 0.28159 0.62624 0.0
C3031 C 0.34524 0.3015 0.63076 0.0
C3032 C 0.35087 0.27752 0.6108 0.0
C3033 C 0.36569 0.29317 0.59911 0.0
H3034 H 0.32974 0.26914 0.63499 0.0
H3035 H 0.3471 0.26188 0.60808 0.0
S3036 S 0.37856 0.34752 0.6022 0.0
N3037 N 0.36259 0.33661 0.62071 0.0
N3038 N 0.38126 0.32929 0.59128 0.0
C3039 C 0.36893 0.31308 0.60257 0.0
C3040 C 0.3588 0.31714 0.61852 0.0
C3041 C 0.72114 0.04894 0.60012 0.0
C3042 C 0.71121 0.05107 0.61713 0.0
C3043 C 0.72528 0.06142 0.58307 0.0
C3044 C 0.71995 0.07673 0.58242 0.0
H3045 H 0.72555 0.03737 0.59981 0.0
H3046 H 0.73267 0.05898 0.57023 0.0
S3047 S 0.69433 0.08919 0.62315 0.0
N3048 N 0.69651 0.07011 0.63233 0.0
N3049 N 0.70446 0.09354 0.60034 0.0
C3050 C 0.71018 0.07918 0.59936 0.0
C3051 C 0.70581 0.06639 0.61667 0.0
C3052 C 0.94478 0.67556 0.6313 0.0
C3053 C 0.95434 0.66439 0.63626 0.0
C3054 C 0.93332 0.67144 0.61304 0.0
C3055 C 0.93155 0.6565 0.59871 0.0
H3056 H 0.94597 0.68735 0.64174 0.0
H3057 H 0.92583 0.68017 0.61001 0.0
S3058 S 0.95554 0.62431 0.60427 0.0
N3059 N 0.96271 0.63884 0.62524 0.0
N3060 N 0.94069 0.63048 0.59121 0.0
C3061 C 0.94121 0.64524 0.60364 0.0
C3062 C 0.95292 0.64953 0.62224 0.0
C3063 C 0.95059 0.67528 0.74549 0.0
C3064 C 0.95954 0.68567 0.72755 0.0
C3065 C 0.94899 0.68561 0.76272 0.0
C3066 C 0.95593 0.70663 0.7625 0.0
H3067 H 0.94543 0.65919 0.74651 0.0
H3068 H 0.94261 0.67712 0.77646 0.0
S3069 S 0.97827 0.74025 0.71826 0.0
N3070 N 0.9741 0.71778 0.70998 0.0
N3071 N 0.97049 0.73707 0.74209 0.0
C3072 C 0.96399 0.71697 0.74424 0.0
C3073 C 0.96597 0.70652 0.72685 0.0
C3074 C 0.32559 0.28191 0.73741 0.0
C3075 C 0.31498 0.27902 0.71861 0.0
C3076 C 0.31628 0.27 0.75438 0.0
C3077 C 0.29609 0.2545 0.75318 0.0
H3078 H 0.34101 0.294 0.73932 0.0
H3079 H 0.32487 0.27329 0.76871 0.0
S3080 S 0.26226 0.2393 0.70692 0.0
N3081 N 0.28352 0.25857 0.69941 0.0
N3082 N 0.26617 0.23594 0.73124 0.0
C3083 C 0.28556 0.25083 0.73422 0.0
C3084 C 0.29496 0.26313 0.71698 0.0
C3085 C 0.74462 0.06405 0.70606 0.0
C3086 C 0.72913 0.0438 0.70594 0.0
C3087 C 0.76019 0.07139 0.72107 0.0
C3088 C 0.76021 0.05894 0.73709 0.0
H3089 H 0.74488 0.07416 0.69427 0.0
H3090 H 0.77216 0.08694 0.72012 0.0
S3091 S 0.72177 0.00514 0.74431 0.0
N3092 N 0.71411 0.01162 0.72326 0.0
N3093 N 0.74281 0.0255 0.752 0.0
C3094 C 0.74442 0.03875 0.73724 0.0
C3095 C 0.72894 0.03119 0.72166 0.0
C3096 C 0.05935 0.34107 0.05663 0.0
C3097 C 0.03991 0.32799 0.03685 0.0
C3098 C 0.06804 0.32723 0.07239 0.0
C3099 C 0.0587 0.30037 0.06356 0.0
H3100 H 0.06585 0.35728 0.05903 0.0
H3101 H 0.08062 0.33502 0.08316 0.0
S3102 S 0.01114 0.26649 0.02202 0.0
N3103 N 0.01354 0.28965 0.01869 0.0
N3104 N 0.02667 0.2665 0.04081 0.0
C3105 C 0.0352 0.28583 0.0477 0.0
C3106 C 0.02767 0.30079 0.0331 0.0
C3107 C 0.7036 0.70942 0.07355 0.0
C3108 C 0.67903 0.69995 0.0612 0.0
C3109 C 0.71365 0.73118 0.09109 0.0
C3110 C 0.69875 0.74473 0.09161 0.0
H3111 H 0.7124 0.70214 0.07032 0.0
H3112 H 0.72894 0.73811 0.0971 0.0
S3113 S 0.63983 0.72228 0.06945 0.0
N3114 N 0.64481 0.70483 0.05893 0.0
N3115 N 0.65884 0.7393 0.08482 0.0
C3116 C 0.67163 0.73199 0.08392 0.0
C3117 C 0.66323 0.71072 0.06694 0.0
C3118 C 0.26555 0.95012 0.02798 0.0
C3119 C 0.27809 0.97092 0.03247 0.0
C3120 C 0.24602 0.93958 0.03541 0.0
C3121 C 0.2382 0.94949 0.04743 0.0
H3122 H 0.2709 0.94183 0.01883 0.0
H3123 H 0.23691 0.92355 0.03164 0.0
S3124 S 0.26462 0.00415 0.06259 0.0
N3125 N 0.28114 0.0012 0.04925 0.0
N3126 N 0.24437 0.98152 0.06285 0.0
C3127 C 0.25051 0.97038 0.05176 0.0
C3128 C 0.27046 0.98104 0.04441 0.0
C3129 C 0.29668 0.02602 0.96953 0.0
C3130 C 0.32374 0.04091 0.97374 0.0
C3131 C 0.28382 0.03427 0.95166 0.0
C3132 C 0.29973 0.06048 0.94195 0.0
H3133 H 0.28813 0.01207 0.97767 0.0
H3134 H 0.2676 0.02649 0.9503 0.0
S3135 S 0.36238 0.09441 0.94506 0.0
N3136 N 0.35882 0.07561 0.9611 0.0
N3137 N 0.34074 0.09092 0.934 0.0
C3138 C 0.32763 0.07286 0.94157 0.0
C3139 C 0.33882 0.06353 0.95943 0.0
C3140 C 0.949 0.28287 0.96105 0.0
C3141 C 0.97597 0.29413 0.96484 0.0
C3142 C 0.93517 0.26075 0.94436 0.0
C3143 C 0.95012 0.24866 0.93569 0.0
H3144 H 0.94112 0.28953 0.96865 0.0
H3145 H 0.91895 0.25305 0.94301 0.0
S3146 S 0.01245 0.27451 0.93858 0.0
N3147 N 0.00995 0.29165 0.95315 0.0
N3148 N 0.99034 0.25638 0.92824 0.0
C3149 C 0.97796 0.26296 0.93473 0.0
C3150 C 0.99009 0.28467 0.95131 0.0
C3151 C 0.71435 0.69042 0.98186 0.0
C3152 C 0.70772 0.66994 0.9863 0.0
C3153 C 0.73279 0.70245 0.9725 0.0
C3154 C 0.74537 0.69451 0.96729 0.0
H3155 H 0.70523 0.69724 0.98559 0.0
H3156 H 0.73733 0.71814 0.96943 0.0
S3157 S 0.73579 0.64225 0.9769 0.0
N3158 N 0.7157 0.64249 0.98517 0.0
N3159 N 0.75046 0.66525 0.96844 0.0
C3160 C 0.73914 0.67421 0.97207 0.0
C3161 C 0.72029 0.66189 0.98126 0.0
C3162 C 0.94143 0.68454 0.99076 0.0
C3163 C 0.96005 0.68949 0.98238 0.0
C3164 C 0.93301 0.69718 0.9883 0.0
C3165 C 0.94284 0.7153 0.97738 0.0
H3166 H 0.93348 0.67101 0.99972 0.0
H3167 H 0.91894 0.69304 0.99556 0.0
S3168 S 0.99192 0.73525 0.95234 0.0
N3169 N 0.98795 0.7137 0.96239 0.0
N3170 N 0.97222 0.73756 0.95806 0.0
C3171 C 0.96129 0.72027 0.96858 0.0
C3172 C 0.96983 0.70732 0.97095 0.0
C3173 C 0.30584 0.29107 0.97187 0.0
C3174 C 0.32656 0.29882 0.97585 0.0
C3175 C 0.29284 0.27027 0.96819 0.0
C3176 C 0.29992 0.25628 0.96892 0.0
H3177 H 0.29939 0.30098 0.97249 0.0
H3178 H 0.27699 0.26503 0.96575 0.0
S3179 S 0.35326 0.26899 0.97441 0.0
N3180 N 0.35393 0.29105 0.97647 0.0
N3181 N 0.32933 0.25194 0.9709 0.0
C3182 C 0.32077 0.26397 0.97111 0.0
C3183 C 0.3341 0.28522 0.97426 0.0
C3184 C 0.7326 0.05422 0.99728 0.0
C3185 C 0.71943 0.03444 0.98975 0.0
C3186 C 0.75246 0.06503 0.99085 0.0
C3187 C 0.75998 0.05652 0.97661 0.0
H3188 H 0.7276 0.06143 0.00834 0.0
H3189 H 0.76214 0.08011 0.99731 0.0
S3190 S 0.73189 0.00483 0.95289 0.0
N3191 N 0.71544 0.00656 0.96754 0.0
N3192 N 0.75284 0.02679 0.95572 0.0
C3193 C 0.747 0.03668 0.96905 0.0
C3194 C 0.72672 0.0257 0.97549 0.0
C3195 C 0.6707 0.93867 0.03339 0.0
C3196 C 0.6776 0.95939 0.03761 0.0
C3197 C 0.68278 0.92996 0.03765 0.0
C3198 C 0.70214 0.94147 0.04662 0.0
H3199 H 0.6562 0.92922 0.02587 0.0
H3200 H 0.67713 0.91419 0.03327 0.0
S3201 S 0.72632 0.99559 0.06336 0.0
N3202 N 0.70445 0.99075 0.05307 0.0
N3203 N 0.72694 0.97415 0.06145 0.0
C3204 C 0.70877 0.96186 0.05213 0.0
C3205 C 0.69656 0.97085 0.04756 0.0
C3206 C 0.05392 0.72724 0.02683 0.0
C3207 C 0.03308 0.71447 0.02873 0.0
C3208 C 0.06316 0.748 0.03184 0.0
C3209 C 0.05205 0.75686 0.03921 0.0
H3210 H 0.06312 0.72141 0.02052 0.0
H3211 H 0.07907 0.75733 0.02925 0.0
S3212 S 0.9975 0.72997 0.04913 0.0
N3213 N 0.00187 0.71211 0.0401 0.0
N3214 N 0.01938 0.75111 0.04959 0.0
C3215 C 0.03143 0.74415 0.04225 0.0
C3216 C 0.02194 0.72299 0.03704 0.0
C3217 C 0.28058 0.30789 0.04606 0.0
C3218 C 0.28609 0.32432 0.03287 0.0
C3219 C 0.26058 0.29562 0.0516 0.0
C3220 C 0.2453 0.29936 0.04427 0.0
H3221 H 0.29169 0.30406 0.05171 0.0
H3222 H 0.25693 0.28274 0.06123 0.0
S3223 S 0.25187 0.34119 0.01038 0.0
N3224 N 0.27468 0.34426 0.01346 0.0
N3225 N 0.23714 0.32113 0.0238 0.0
C3226 C 0.25068 0.3161 0.0316 0.0
C3227 C 0.27104 0.32861 0.02596 0.0
C3228 C 0.73585 0.67679 0.37005 0.0
C3229 C 0.70871 0.66513 0.3674 0.0
C3230 C 0.74741 0.66194 0.37774 0.0
C3231 C 0.72942 0.63593 0.38669 0.0
H3232 H 0.74525 0.69269 0.36683 0.0
H3233 H 0.76344 0.66895 0.38073 0.0
S3234 S 0.66722 0.60467 0.3767 0.0
N3235 N 0.67233 0.628 0.3693 0.0
N3236 N 0.68814 0.60353 0.38303 0.0
C3237 C 0.70238 0.62243 0.37866 0.0
C3238 C 0.69247 0.63828 0.37096 0.0
C3239 C 0.34689 0.05942 0.369 0.0
C3240 C 0.3518 0.0449 0.37623 0.0
C3241 C 0.35681 0.07942 0.37675 0.0
C3242 C 0.37203 0.08576 0.39214 0.0
H3243 H 0.33514 0.05533 0.35734 0.0
H3244 H 0.3525 0.09004 0.37067 0.0
S3245 S 0.39151 0.05409 0.41542 0.0
N3246 N 0.37353 0.03851 0.39912 0.0
N3247 N 0.39228 0.07619 0.41358 0.0
C3248 C 0.37744 0.07155 0.39918 0.0
C3249 C 0.36728 0.05111 0.39131 0.0
C3250 C 0.94238 0.27786 0.35758 0.0
C3251 C 0.95612 0.29815 0.36311 0.0
C3252 C 0.92236 0.26868 0.36355 0.0
C3253 C 0.91524 0.27945 0.37525 0.0
H3254 H 0.94715 0.26887 0.34873 0.0
H3255 H 0.91233 0.253 0.35899 0.0
S3256 S 0.94478 0.33346 0.39236 0.0
N3257 N 0.96098 0.32906 0.38015 0.0
N3258 N 0.92331 0.31187 0.39116 0.0
C3259 C 0.92872 0.29991 0.38046 0.0
C3260 C 0.94916 0.30922 0.3745 0.0
C3261 C 0.02126 0.38961 0.30836 0.0
C3262 C 0.00943 0.36848 0.31074 0.0
C3263 C 0.0129 0.4012 0.30095 0.0
C3264 C 0.9924 0.39214 0.29518 0.0
H3265 H 0.03699 0.39753 0.31307 0.0
H3266 H 0.02248 0.4175 0.30035 0.0
S3267 S 0.95492 0.33737 0.29735 0.0
N3268 N 0.9761 0.33889 0.30585 0.0
N3269 N 0.96055 0.36079 0.29184 0.0
C3270 C 0.98052 0.37099 0.29679 0.0
C3271 C 0.98898 0.35914 0.30446 0.0
C3272 C 0.64628 0.62681 0.28519 0.0
C3273 C 0.64331 0.62834 0.30617 0.0
C3274 C 0.63726 0.60793 0.27486 0.0
C3275 C 0.62556 0.58971 0.28533 0.0
H3276 H 0.65524 0.64035 0.27655 0.0
H3277 H 0.63951 0.60785 0.25855 0.0
S3278 S 0.61347 0.58571 0.34056 0.0
N3279 N 0.62782 0.61029 0.33715 0.0
N3280 N 0.61129 0.57471 0.3179 0.0
C3281 C 0.62259 0.59117 0.30639 0.0
C3282 C 0.63143 0.61045 0.31679 0.0
C3283 C 0.37426 0.00809 0.30915 0.0
C3284 C 0.36491 0.98817 0.31657 0.0
C3285 C 0.3923 0.01607 0.29865 0.0
C3286 C 0.40176 0.00449 0.29498 0.0
H3287 H 0.36785 0.01784 0.3118 0.0
H3288 H 0.39916 0.03165 0.29376 0.0
S3289 S 0.38369 0.95148 0.31101 0.0
N3290 N 0.36654 0.95688 0.31908 0.0
N3291 N 0.40055 0.97209 0.29971 0.0
C3292 C 0.39251 0.98447 0.30207 0.0
C3293 C 0.37406 0.97625 0.31266 0.0
C3294 C 0.60287 0.99141 0.31606 0.0
C3295 C 0.62302 0.99965 0.31048 0.0
C3296 C 0.59223 0.00179 0.31254 0.0
C3297 C 0.60124 0.02078 0.30316 0.0
H3298 H 0.59537 0.97711 0.32389 0.0
H3299 H 0.577 0.99516 0.31782 0.0
S3300 S 0.65326 0.0485 0.28442 0.0
N3301 N 0.65132 0.02758 0.29416 0.0
N3302 N 0.63121 0.04702 0.28741 0.0
C3303 C 0.62112 0.02883 0.29668 0.0
C3304 C 0.63201 0.01826 0.30031 0.0
C3305 C 0.01166 0.6393 0.29375 0.0
C3306 C 0.00046 0.64319 0.3081 0.0
C3307 C 0.00298 0.62129 0.28196 0.0
C3308 C 0.98288 0.60616 0.28448 0.0
H3309 H 0.02732 0.65025 0.2916 0.0
H3310 H 0.01222 0.61907 0.27101 0.0
S3311 S 0.94673 0.60942 0.31922 0.0
N3312 N 0.9679 0.63094 0.32349 0.0
N3313 N 0.95164 0.59686 0.30149 0.0
C3314 C 0.97131 0.61015 0.2983 0.0
C3315 C 0.98009 0.62866 0.31013 0.0
C3316 C 0.38433 0.36537 0.30138 0.0
C3317 C 0.37782 0.37549 0.31483 0.0
C3318 C 0.40446 0.37426 0.29576 0.0
C3319 C 0.41886 0.39369 0.30324 0.0
H3320 H 0.37396 0.35017 0.29563 0.0
H3321 H 0.40892 0.36561 0.28597 0.0
S3322 S 0.40947 0.42705 0.338 0.0
N3323 N 0.38733 0.40645 0.33475 0.0
N3324 N 0.42509 0.42302 0.32427 0.0
C3325 C 0.41244 0.4042 0.31621 0.0
C3326 C 0.39196 0.39517 0.32193 0.0
C3327 C 0.33356 0.29818 0.39332 0.0
C3328 C 0.34181 0.31133 0.37685 0.0
C3329 C 0.34495 0.29168 0.40474 0.0
C3330 C 0.36487 0.29749 0.39968 0.0
H3331 H 0.31819 0.29297 0.39754 0.0
H3332 H 0.33794 0.28182 0.4175 0.0
S3333 S 0.39368 0.33244 0.35833 0.0
N3334 N 0.37133 0.33071 0.35651 0.0
N3335 N 0.39262 0.31798 0.37764 0.0
C3336 C 0.37343 0.31101 0.38349 0.0
C3337 C 0.36192 0.31798 0.37212 0.0
C3338 C 0.69988 0.03449 0.39078 0.0
C3339 C 0.68621 0.02843 0.37398 0.0
C3340 C 0.70683 0.05336 0.40061 0.0
C3341 C 0.70094 0.06726 0.39357 0.0
H3342 H 0.70545 0.02465 0.39624 0.0
H3343 H 0.71738 0.05733 0.4135 0.0
S3344 S 0.66409 0.05795 0.3511 0.0
N3345 N 0.66582 0.03705 0.35157 0.0
N3346 N 0.67932 0.07288 0.36978 0.0
C3347 C 0.68655 0.06099 0.37735 0.0
C3348 C 0.67915 0.04154 0.36756 0.0
C3349 C 0.94027 0.66932 0.36337 0.0
C3350 C 0.95397 0.66286 0.36934 0.0
C3351 C 0.92013 0.65862 0.36888 0.0
C3352 C 0.91281 0.64105 0.38069 0.0
H3353 H 0.94506 0.68265 0.35413 0.0
H3354 H 0.91009 0.66398 0.36355 0.0
S3355 S 0.94235 0.6175 0.40006 0.0
N3356 N 0.95872 0.63763 0.38772 0.0
N3357 N 0.92081 0.61749 0.39799 0.0
C3358 C 0.92635 0.63445 0.38689 0.0
C3359 C 0.94692 0.64538 0.38129 0.0
C3360 C 0.40101 0.02621 0.70475 0.0
C3361 C 0.38017 0.01271 0.70281 0.0
C3362 C 0.4142 0.01991 0.71258 0.0
C3363 C 0.4071 0.99991 0.71909 0.0
H3364 H 0.40737 0.04169 0.69964 0.0
H3365 H 0.43015 0.03069 0.71312 0.0
S3366 S 0.35402 0.95853 0.71769 0.0
N3367 N 0.3531 0.9783 0.70851 0.0
N3368 N 0.37797 0.9666 0.72312 0.0
C3369 C 0.38633 0.98632 0.71755 0.0
C3370 C 0.37286 0.99268 0.70955 0.0
C3371 C 0.99835 0.36783 0.74256 0.0
C3372 C 0.01008 0.36725 0.71886 0.0
C3373 C 0.00785 0.39121 0.75754 0.0
C3374 C 0.02709 0.41431 0.74439 0.0
H3375 H 0.98546 0.35419 0.74767 0.0
H3376 H 1.00006 0.39221 0.77078 0.0
S3377 S 0.05897 0.41547 0.69281 0.0
N3378 N 0.04178 0.39053 0.69266 0.0
N3379 N 0.05727 0.42817 0.71341 0.0
C3380 C 0.04269 0.41288 0.72363 0.0
C3381 C 0.0322 0.38921 0.7101 0.0
C3382 C 0.60001 0.61913 0.6858 0.0
C3383 C 0.61722 0.62787 0.69877 0.0
C3384 C 0.58104 0.60607 0.69354 0.0
C3385 C 0.57864 0.60086 0.71442 0.0
H3386 H 0.60125 0.62234 0.66956 0.0
H3387 H 0.56815 0.59952 0.68299 0.0
S3388 S 0.61977 0.61882 0.75425 0.0
N3389 N 0.63107 0.63035 0.73319 0.0
N3390 N 0.59575 0.60492 0.74765 0.0
C3391 C 0.59597 0.60937 0.72746 0.0
C3392 C 0.61516 0.62314 0.71965 0.0
C3393 C 0.64631 0.69378 0.63728 0.0
C3394 C 0.66644 0.70451 0.64457 0.0
C3395 C 0.63647 0.70392 0.62964 0.0
C3396 C 0.64629 0.72523 0.62887 0.0
H3397 H 0.63782 0.67739 0.63803 0.0
H3398 H 0.6208 0.69501 0.62485 0.0
S3399 S 0.69917 0.76064 0.64542 0.0
N3400 N 0.69613 0.73786 0.64964 0.0
N3401 N 0.6774 0.7568 0.63589 0.0
C3402 C 0.66655 0.73618 0.63565 0.0
C3403 C 0.67669 0.72586 0.64322 0.0
C3404 C 0.3003 0.93356 0.67193 0.0
C3405 C 0.30615 0.95292 0.65304 0.0
C3406 C 0.28806 0.90704 0.66433 0.0
C3407 C 0.27789 0.90191 0.63717 0.0
H3408 H 0.30405 0.9379 0.68798 0.0
H3409 H 0.28281 0.8953 0.67566 0.0
S3410 S 0.29317 0.94385 0.59056 0.0
N3411 N 0.30393 0.95982 0.61096 0.0
N3412 N 0.28316 0.91928 0.5969 0.0
C3413 C 0.28856 0.92127 0.61691 0.0
C3414 C 0.30087 0.94675 0.62607 0.0
C3415 C 0.04693 0.35131 0.64706 0.0
C3416 C 0.03939 0.33078 0.65201 0.0
C3417 C 0.066 0.36276 0.63874 0.0
C3418 C 0.07836 0.35421 0.63507 0.0
H3419 H 0.03809 0.35868 0.64971 0.0
H3420 H 0.07124 0.37855 0.63539 0.0
S3421 S 0.06634 0.30146 0.64633 0.0
N3422 N 0.04618 0.30253 0.65286 0.0
N3423 N 0.08211 0.32423 0.63801 0.0
C3424 C 0.07115 0.3338 0.64022 0.0
C3425 C 0.05165 0.32205 0.64838 0.0
C3426 C 0.2754 0.34269 0.65753 0.0
C3427 C 0.29462 0.34817 0.65044 0.0
C3428 C 0.26759 0.35593 0.6561 0.0
C3429 C 0.27859 0.37514 0.64739 0.0
H3430 H 0.26658 0.32836 0.66502 0.0
H3431 H 0.25307 0.35135 0.66253 0.0
S3432 S 0.32911 0.39643 0.62532 0.0
N3433 N 0.32408 0.37384 0.63337 0.0
N3434 N 0.3093 0.39867 0.6307 0.0
C3435 C 0.29746 0.3805 0.63942 0.0
C3436 C 0.30546 0.36701 0.64088 0.0
C3437 C 0.64208 0.95446 0.63705 0.0
C3438 C 0.66243 0.96085 0.64167 0.0
C3439 C 0.62804 0.9339 0.6333 0.0
C3440 C 0.63362 0.91877 0.63475 0.0
H3441 H 0.6368 0.96537 0.63678 0.0
H3442 H 0.61256 0.92979 0.63 0.0
S3443 S 0.68541 0.92752 0.64353 0.0
N3444 N 0.68783 0.95039 0.64464 0.0
N3445 N 0.66126 0.91181 0.6391 0.0
C3446 C 0.65409 0.92503 0.63818 0.0
C3447 C 0.6685 0.94601 0.64131 0.0
C3448 C 0.06077 0.71351 0.66965 0.0
C3449 C 0.04497 0.69622 0.65974 0.0
C3450 C 0.08036 0.72257 0.66242 0.0
C3451 C 0.08496 0.71486 0.64486 0.0
H3452 H 0.05805 0.72014 0.68317 0.0
H3453 H 0.09203 0.73574 0.67068 0.0
S3454 S 0.0492 0.6697 0.61343 0.0
N3455 N 0.03536 0.67157 0.63152 0.0
N3456 N 0.07219 0.68866 0.61795 0.0
C3457 C 0.06935 0.6975 0.63487 0.0
C3458 C 0.04938 0.6882 0.64227 0.0
C3459 C 0.01043 0.63293 0.71778 0.0
C3460 C 0.98965 0.62532 0.71454 0.0
C3461 C 0.01805 0.62019 0.72363 0.0
C3462 C 0.00525 0.59921 0.72598 0.0
H3463 H 0.02105 0.6487 0.715 0.0
H3464 H 0.03416 0.62675 0.72551 0.0
S3465 S 0.94952 0.57246 0.72385 0.0
N3466 N 0.95624 0.59601 0.71772 0.0
N3467 N 0.97067 0.57211 0.72808 0.0
C3468 C 0.98441 0.59178 0.72464 0.0
C3469 C 0.9766 0.60478 0.71899 0.0
C3470 C 0.36889 0.37387 0.72843 0.0
C3471 C 0.35488 0.36844 0.71202 0.0
C3472 C 0.37545 0.39201 0.73966 0.0
C3473 C 0.3688 0.40581 0.73442 0.0
H3474 H 0.37481 0.36398 0.73268 0.0
H3475 H 0.38608 0.39535 0.75234 0.0
S3476 S 0.33141 0.39825 0.69314 0.0
N3477 N 0.33381 0.37778 0.69155 0.0
N3478 N 0.34658 0.41219 0.71234 0.0
C3479 C 0.35437 0.40028 0.71834 0.0
C3480 C 0.34738 0.38159 0.70716 0.0
C3481 C 0.61928 0.00672 0.69371 0.0
C3482 C 0.63362 0.00178 0.70141 0.0
C3483 C 0.60101 0.00026 0.70338 0.0
C3484 C 0.59638 0.98874 0.72126 0.0
H3485 H 0.62203 0.01549 0.67993 0.0
H3486 H 0.59033 0.00417 0.69666 0.0
S3487 S 0.62866 0.97163 0.74775 0.0
N3488 N 0.64189 0.98459 0.72811 0.0
N3489 N 0.60752 0.97246 0.74626 0.0
C3490 C 0.61058 0.98371 0.72921 0.0
C3491 C 0.6292 0.99026 0.71933 0.0
loop_
_geom_bond_atom_site_label_1
_geom_bond_atom_site_label_2
_geom_bond_distance
_geom_bond_site_symmetry_2
_ccdc_geom_bond_type
Mn0 O5 2.095 1_655 S
Mn0 O15 2.162 . S
Mn0 O16 2.297 1_554 S
Mn0 O24 2.385 1_554 S
Mn0 O25 2.209 1_654 S
Mn0 O26 2.094 . S
Mn1 O6 2.121 . S
Mn1 N8 2.257 1_554 S
Mn1 N17 2.282 . S
Mn1 O25 2.215 1_554 S
Mn1 O27 2.117 . S
C2 O24 1.234 1_455 S
C2 O25 1.283 . S
C3 O15 1.281 1_556 S
C3 O16 1.236 . S
C4 O26 1.240 . S
C4 O27 1.264 1_655 S
O5 Mn0 2.095 1_455 S
O5 C14 1.250 . S
O6 Mn1 2.121 . S
O6 C14 1.258 . S
C7 N8 1.326 . S
C7 C11 1.460 . S
C7 H13 0.930 . S
N8 Mn1 2.257 1_556 S
N8 C7 1.326 . S
N8 C12 1.362 . S
C9 C10 1.258 . S
C9 C12 1.431 . S
C9 C29 1.449 . S
C10 C9 1.258 . S
C10 C11 1.477 . S
C10 H30 0.931 . S
C11 C7 1.460 . S
C11 C10 1.477 . S
C11 H31 0.930 . S
C12 N8 1.362 . S
C12 C9 1.431 . S
C12 C22 1.476 . S
H13 C7 0.930 . S
C14 O5 1.250 . S
C14 O6 1.258 . S
O15 Mn0 2.162 . S
O15 C3 1.281 1_554 S
O16 Mn0 2.297 1_556 S
O16 C3 1.236 . S
N17 Mn1 2.282 . S
N17 C18 1.328 . S
N17 C22 1.318 1_554 S
C18 N17 1.328 . S
C18 C19 1.457 1_554 S
C18 H23 0.929 . S
C19 C18 1.457 1_556 S
C19 C20 1.291 . S
C19 H32 0.931 1_556 S
C20 C19 1.291 . S
C20 C21 1.373 . S
C20 H33 0.929 . S
C21 C20 1.373 . S
C21 C22 1.396 . S
C21 C28 1.403 . S
C22 C12 1.476 . S
C22 N17 1.318 1_556 S
C22 C21 1.396 . S
H23 C18 0.929 . S
O24 Mn0 2.385 1_556 S
O24 C2 1.234 1_655 S
O25 Mn0 2.209 1_456 S
O25 Mn1 2.215 1_556 S
O25 C2 1.283 . S
O26 Mn0 2.094 . S
O26 C4 1.240 . S
O27 Mn1 2.117 . S
O27 C4 1.264 1_455 S
C28 C21 1.403 . S
C28 C29 1.399 . S
C28 H34 0.929 . S
C29 C9 1.449 . S
C29 C28 1.399 . S
C29 H35 0.930 . S
H30 C10 0.931 . S
H31 C11 0.930 . S
H32 C19 0.931 1_554 S
H33 C20 0.929 . S
H34 C28 0.929 . S
H35 C29 0.930 . S
Mn36 O41 2.095 1_554 S
Mn36 O51 2.162 . S
Mn36 O52 2.297 . S
Mn36 O60 2.385 . S
Mn36 O61 2.209 . S
Mn36 O62 2.094 1_554 S
Mn37 O42 2.121 1_554 S
Mn37 N44 2.257 . S
Mn37 N53 2.282 . S
Mn37 O61 2.215 . S
Mn37 O63 2.117 1_554 S
C38 O60 1.234 . S
C38 O61 1.283 . S
C39 O51 1.281 . S
C39 O52 1.236 . S
C40 O62 1.240 . S
C40 O63 1.264 . S
O41 Mn36 2.095 1_556 S
O41 C50 1.250 . S
O42 Mn37 2.121 1_556 S
O42 C50 1.258 . S
C43 N44 1.326 . S
C43 C47 1.460 . S
C43 H49 0.929 . S
N44 Mn37 2.257 . S
N44 C43 1.326 . S
N44 C48 1.362 . S
C45 C46 1.258 . S
C45 C48 1.431 . S
C45 C65 1.449 . S
C46 C45 1.258 . S
C46 C47 1.477 . S
C46 H66 0.931 . S
C47 C43 1.460 . S
C47 C46 1.477 . S
C47 H67 0.930 . S
C48 N44 1.362 . S
C48 C45 1.431 . S
C48 C58 1.476 . S
H49 C43 0.929 . S
C50 O41 1.250 . S
C50 O42 1.258 . S
O51 Mn36 2.162 . S
O51 C39 1.281 . S
O52 Mn36 2.297 . S
O52 C39 1.236 . S
N53 Mn37 2.282 . S
N53 C54 1.328 . S
N53 C58 1.318 . S
C54 N53 1.328 . S
C54 C55 1.457 . S
C54 H59 0.929 . S
C55 C54 1.457 . S
C55 C56 1.291 . S
C55 H68 0.931 . S
C56 C55 1.291 . S
C56 C57 1.373 . S
C56 H69 0.929 . S
C57 C56 1.373 . S
C57 C58 1.396 . S
C57 C64 1.403 . S
C58 C48 1.476 . S
C58 N53 1.318 . S
C58 C57 1.396 . S
H59 C54 0.929 . S
O60 Mn36 2.385 . S
O60 C38 1.234 . S
O61 Mn36 2.209 . S
O61 Mn37 2.215 . S
O61 C38 1.283 . S
O62 Mn36 2.094 1_556 S
O62 C40 1.240 . S
O63 Mn37 2.117 1_556 S
O63 C40 1.264 . S
C64 C57 1.403 . S
C64 C65 1.399 . S
C64 H70 0.929 . S
C65 C45 1.449 . S
C65 C64 1.399 . S
C65 H71 0.930 . S
H66 C46 0.931 . S
H67 C47 0.930 . S
H68 C55 0.931 . S
H69 C56 0.929 . S
H70 C64 0.929 . S
H71 C65 0.930 . S
Mn72 O77 2.095 1_564 S
Mn72 O87 2.162 . S
Mn72 O88 2.297 . S
Mn72 O96 2.385 . S
Mn72 O97 2.209 1_565 S
Mn72 O98 2.094 1_554 S
Mn73 O78 2.117 1_554 S
Mn73 N80 2.274 . S
Mn73 N89 2.293 . S
Mn73 O97 2.236 . S
Mn73 O99 2.101 1_554 S
C74 O96 1.234 1_545 S
C74 O97 1.283 . S
C75 O87 1.281 . S
C75 O88 1.236 . S
C76 O98 1.240 . S
C76 O99 1.264 1_565 S
O77 Mn72 2.095 1_546 S
O77 C86 1.250 . S
O78 Mn73 2.117 1_556 S
O78 C86 1.258 . S
C79 N80 1.326 . S
C79 C83 1.460 . S
C79 H85 0.929 . S
N80 Mn73 2.274 . S
N80 C79 1.326 . S
N80 C84 1.362 . S
C81 C82 1.258 . S
C81 C84 1.431 . S
C81 C101 1.449 . S
C82 C81 1.258 . S
C82 C83 1.477 . S
C82 H102 0.931 . S
C83 C79 1.460 . S
C83 C82 1.477 . S
C83 H103 0.930 . S
C84 N80 1.362 . S
C84 C81 1.431 . S
C84 C94 1.476 . S
H85 C79 0.929 . S
C86 O77 1.250 . S
C86 O78 1.258 . S
O87 Mn72 2.162 . S
O87 C75 1.281 . S
O88 Mn72 2.297 . S
O88 C75 1.236 . S
N89 Mn73 2.293 . S
N89 C90 1.328 . S
N89 C94 1.318 . S
C90 N89 1.328 . S
C90 C91 1.457 . S
C90 H95 0.929 . S
C91 C90 1.457 . S
C91 C92 1.291 . S
C91 H104 0.931 . S
C92 C91 1.291 . S
C92 C93 1.373 . S
C92 H105 0.929 . S
C93 C92 1.373 . S
C93 C94 1.396 . S
C93 C100 1.403 . S
C94 C84 1.476 . S
C94 N89 1.318 . S
C94 C93 1.396 . S
H95 C90 0.929 . S
O96 Mn72 2.385 . S
O96 C74 1.234 1_565 S
O97 Mn72 2.209 1_545 S
O97 Mn73 2.236 . S
O97 C74 1.283 . S
O98 Mn72 2.094 1_556 S
O98 C76 1.240 . S
O99 Mn73 2.101 1_556 S
O99 C76 1.264 1_545 S
C100 C93 1.403 . S
C100 C101 1.399 . S
C100 H106 0.929 . S
C101 C81 1.449 . S
C101 C100 1.399 . S
C101 H107 0.930 . S
H102 C82 0.931 . S
H103 C83 0.930 . S
H104 C91 0.931 . S
H105 C92 0.929 . S
H106 C100 0.929 . S
H107 C101 0.930 . S
Mn108 O113 2.095 1_655 S
Mn108 O123 2.162 . S
Mn108 O124 2.297 1_554 S
Mn108 O132 2.385 1_554 S
Mn108 O133 2.209 1_654 S
Mn108 O134 2.094 . S
Mn109 O114 2.121 . S
Mn109 N116 2.257 . S
Mn109 N125 2.282 . S
Mn109 O133 2.215 1_554 S
Mn109 O135 2.117 . S
C110 O132 1.234 1_455 S
C110 O133 1.283 . S
C111 O123 1.281 1_556 S
C111 O124 1.236 . S
C112 O134 1.240 . S
C112 O135 1.264 1_655 S
O113 Mn108 2.095 1_455 S
O113 C122 1.250 . S
O114 Mn109 2.121 . S
O114 C122 1.258 . S
C115 N116 1.326 1_556 S
C115 C119 1.460 . S
C115 H121 0.929 1_556 S
N116 Mn109 2.257 . S
N116 C115 1.326 1_554 S
N116 C120 1.362 1_554 S
C117 C118 1.258 . S
C117 C120 1.431 . S
C117 C137 1.449 . S
C118 C117 1.258 . S
C118 C119 1.477 . S
C118 H138 0.931 . S
C119 C115 1.460 . S
C119 C118 1.477 . S
C119 H139 0.930 . S
C120 N116 1.362 1_556 S
C120 C117 1.431 . S
C120 C130 1.476 . S
H121 C115 0.929 1_554 S
C122 O113 1.250 . S
C122 O114 1.258 . S
O123 Mn108 2.162 . S
O123 C111 1.281 1_554 S
O124 Mn108 2.297 1_556 S
O124 C111 1.236 . S
N125 Mn109 2.282 . S
N125 C126 1.328 . S
N125 C130 1.318 1_554 S
C126 N125 1.328 . S
C126 C127 1.457 . S
C126 H131 0.929 . S
C127 C126 1.457 . S
C127 C128 1.291 1_554 S
C127 H140 0.931 . S
C128 C127 1.291 1_556 S
C128 C129 1.373 . S
C128 H141 0.929 . S
C129 C128 1.373 . S
C129 C130 1.396 . S
C129 C136 1.403 . S
C130 C120 1.476 . S
C130 N125 1.318 1_556 S
C130 C129 1.396 . S
H131 C126 0.929 . S
O132 Mn108 2.385 1_556 S
O132 C110 1.234 1_655 S
O133 Mn108 2.209 1_456 S
O133 Mn109 2.215 1_556 S
O133 C110 1.283 . S
O134 Mn108 2.094 . S
O134 C112 1.240 . S
O135 Mn109 2.117 . S
O135 C112 1.264 1_455 S
C136 C129 1.403 . S
C136 C137 1.399 . S
C136 H142 0.929 . S
C137 C117 1.449 . S
C137 C136 1.399 . S
C137 H143 0.930 . S
H138 C118 0.931 . S
H139 C119 0.930 . S
H140 C127 0.931 . S
H141 C128 0.929 . S
H142 C136 0.929 . S
H143 C137 0.930 . S
Mn144 O149 2.095 1_554 S
Mn144 O159 2.162 . S
Mn144 O160 2.297 . S
Mn144 O168 2.385 . S
Mn144 O169 2.209 . S
Mn144 O170 2.094 1_554 S
Mn145 O150 2.121 . S
Mn145 N152 2.257 1_556 S
Mn145 N161 2.282 1_556 S
Mn145 O169 2.215 1_556 S
Mn145 O171 2.117 . S
C146 O168 1.234 . S
C146 O169 1.283 . S
C147 O159 1.281 . S
C147 O160 1.236 . S
C148 O170 1.240 . S
C148 O171 1.264 . S
O149 Mn144 2.095 1_556 S
O149 C158 1.250 . S
O150 Mn145 2.121 . S
O150 C158 1.258 . S
C151 N152 1.326 . S
C151 C155 1.460 . S
C151 H157 0.929 . S
N152 Mn145 2.257 1_554 S
N152 C151 1.326 . S
N152 C156 1.362 . S
C153 C154 1.258 . S
C153 C156 1.431 . S
C153 C173 1.449 . S
C154 C153 1.258 . S
C154 C155 1.477 . S
C154 H174 0.931 . S
C155 C151 1.460 . S
C155 C154 1.477 . S
C155 H175 0.930 . S
C156 N152 1.362 . S
C156 C153 1.431 . S
C156 C166 1.476 . S
H157 C151 0.929 . S
C158 O149 1.250 . S
C158 O150 1.258 . S
O159 Mn144 2.162 . S
O159 C147 1.281 . S
O160 Mn144 2.297 . S
O160 C147 1.236 . S
N161 Mn145 2.282 1_554 S
N161 C162 1.328 . S
N161 C166 1.318 . S
C162 N161 1.328 . S
C162 C163 1.457 . S
C162 H167 0.929 1_554 S
C163 C162 1.457 . S
C163 C164 1.291 . S
C163 H176 0.931 . S
C164 C163 1.291 . S
C164 C165 1.373 . S
C164 H177 0.929 . S
C165 C164 1.373 . S
C165 C166 1.396 . S
C165 C172 1.403 . S
C166 C156 1.476 . S
C166 N161 1.318 . S
C166 C165 1.396 . S
H167 C162 0.929 1_556 S
O168 Mn144 2.385 . S
O168 C146 1.234 . S
O169 Mn144 2.209 . S
O169 Mn145 2.215 1_554 S
O169 C146 1.283 . S
O170 Mn144 2.094 1_556 S
O170 C148 1.240 . S
O171 Mn145 2.117 . S
O171 C148 1.264 . S
C172 C165 1.403 . S
C172 C173 1.399 . S
C172 H178 0.929 . S
C173 C153 1.449 . S
C173 C172 1.399 . S
C173 H179 0.930 . S
H174 C154 0.931 . S
H175 C155 0.930 . S
H176 C163 0.931 . S
H177 C164 0.929 . S
H178 C172 0.929 . S
H179 C173 0.930 . S
Mn180 O185 2.095 1_545 S
Mn180 O195 2.162 . S
Mn180 O196 2.297 1_554 S
Mn180 O204 2.385 1_554 S
Mn180 O205 2.209 1_544 S
Mn180 O206 2.094 . S
Mn181 O186 2.121 . S
Mn181 N188 2.257 . S
Mn181 N197 2.282 . S
Mn181 O205 2.215 1_554 S
Mn181 O207 2.117 . S
C182 O204 1.234 1_565 S
C182 O205 1.283 . S
C183 O195 1.281 1_556 S
C183 O196 1.236 . S
C184 O206 1.240 . S
C184 O207 1.264 1_545 S
O185 Mn180 2.095 1_565 S
O185 C194 1.250 . S
O186 Mn181 2.121 . S
O186 C194 1.258 . S
C187 N188 1.326 1_556 S
C187 C191 1.460 . S
C187 H193 0.929 1_556 S
N188 Mn181 2.257 . S
N188 C187 1.326 1_554 S
N188 C192 1.362 1_554 S
C189 C190 1.258 . S
C189 C192 1.431 . S
C189 C209 1.449 . S
C190 C189 1.258 . S
C190 C191 1.477 . S
C190 H210 0.931 . S
C191 C187 1.460 . S
C191 C190 1.477 . S
C191 H211 0.930 . S
C192 N188 1.362 1_556 S
C192 C189 1.431 . S
C192 C202 1.476 . S
H193 C187 0.929 1_554 S
C194 O185 1.250 . S
C194 O186 1.258 . S
O195 Mn180 2.162 . S
O195 C183 1.281 1_554 S
O196 Mn180 2.297 1_556 S
O196 C183 1.236 . S
N197 Mn181 2.282 . S
N197 C198 1.328 . S
N197 C202 1.318 1_554 S
C198 N197 1.328 . S
C198 C199 1.481 . S
C198 H203 0.929 . S
C199 C198 1.481 . S
C199 C200 1.263 1_554 S
C199 H212 0.938 . S
C200 C199 1.263 1_556 S
C200 C201 1.373 . S
C200 H213 0.929 . S
C201 C200 1.373 . S
C201 C202 1.396 . S
C201 C208 1.403 . S
C202 C192 1.476 . S
C202 N197 1.318 1_556 S
C202 C201 1.396 . S
H203 C198 0.929 . S
O204 Mn180 2.385 1_556 S
O204 C182 1.234 1_545 S
O205 Mn180 2.209 1_566 S
O205 Mn181 2.215 1_556 S
O205 C182 1.283 . S
O206 Mn180 2.094 . S
O206 C184 1.240 . S
O207 Mn181 2.117 . S
O207 C184 1.264 1_565 S
C208 C201 1.403 . S
C208 C209 1.399 . S
C208 H214 0.929 . S
C209 C189 1.449 . S
C209 C208 1.399 . S
C209 H215 0.930 . S
H210 C190 0.931 . S
H211 C191 0.930 . S
H212 C199 0.938 . S
H213 C200 0.929 . S
H214 C208 0.929 . S
H215 C209 0.930 . S
Mn216 O221 2.095 . S
Mn216 O231 2.162 . S
Mn216 O232 2.297 . S
Mn216 O240 2.385 . S
Mn216 O241 2.209 . S
Mn216 O242 2.094 . S
Mn217 O222 2.121 . S
Mn217 N224 2.257 . S
Mn217 N233 2.282 . S
Mn217 O241 2.215 . S
Mn217 O243 2.117 . S
C218 O240 1.234 . S
C218 O241 1.283 . S
C219 O231 1.281 . S
C219 O232 1.236 . S
C220 O242 1.240 . S
C220 O243 1.264 . S
O221 Mn216 2.095 . S
O221 C230 1.250 . S
O222 Mn217 2.121 . S
O222 C230 1.258 . S
C223 N224 1.326 . S
C223 C227 1.460 . S
C223 H229 0.929 . S
N224 Mn217 2.257 . S
N224 C223 1.326 . S
N224 C228 1.362 . S
C225 C226 1.258 . S
C225 C228 1.431 . S
C225 C245 1.449 . S
C226 C225 1.258 . S
C226 C227 1.477 . S
C226 H246 0.931 . S
C227 C223 1.460 . S
C227 C226 1.477 . S
C227 H247 0.930 . S
C228 N224 1.362 . S
C228 C225 1.431 . S
C228 C238 1.476 . S
H229 C223 0.929 . S
C230 O221 1.250 . S
C230 O222 1.258 . S
O231 Mn216 2.162 . S
O231 C219 1.281 . S
O232 Mn216 2.297 . S
O232 C219 1.236 . S
N233 Mn217 2.282 . S
N233 C234 1.328 . S
N233 C238 1.318 . S
C234 N233 1.328 . S
C234 C235 1.457 . S
C234 H239 0.929 . S
C235 C234 1.457 . S
C235 C236 1.291 . S
C235 H248 0.931 . S
C236 C235 1.291 . S
C236 C237 1.373 . S
C236 H249 0.929 . S
C237 C236 1.373 . S
C237 C238 1.396 . S
C237 C244 1.403 . S
C238 C228 1.476 . S
C238 N233 1.318 . S
C238 C237 1.396 . S
H239 C234 0.929 . S
O240 Mn216 2.385 . S
O240 C218 1.234 . S
O241 Mn216 2.209 . S
O241 Mn217 2.215 . S
O241 C218 1.283 . S
O242 Mn216 2.094 . S
O242 C220 1.240 . S
O243 Mn217 2.117 . S
O243 C220 1.264 . S
C244 C237 1.403 . S
C244 C245 1.399 . S
C244 H250 0.929 . S
C245 C225 1.449 . S
C245 C244 1.399 . S
C245 H251 0.930 . S
H246 C226 0.931 . S
H247 C227 0.930 . S
H248 C235 0.931 . S
H249 C236 0.929 . S
H250 C244 0.929 . S
H251 C245 0.930 . S
Mn252 O257 2.095 . S
Mn252 O267 2.162 1_565 S
Mn252 O268 2.297 1_565 S
Mn252 O276 2.385 . S
Mn252 O277 2.209 . S
Mn252 O278 2.094 . S
Mn253 O258 2.121 . S
Mn253 N260 2.257 . S
Mn253 N269 2.282 . S
Mn253 O277 2.215 . S
Mn253 O279 2.117 . S
C254 O276 1.234 . S
C254 O277 1.283 . S
C255 O267 1.281 . S
C255 O268 1.236 . S
C256 O278 1.240 . S
C256 O279 1.264 . S
O257 Mn252 2.095 . S
O257 C266 1.250 . S
O258 Mn253 2.121 . S
O258 C266 1.258 . S
C259 N260 1.326 . S
C259 C263 1.460 . S
C259 H265 0.929 . S
N260 Mn253 2.257 . S
N260 C259 1.326 . S
N260 C264 1.362 . S
C261 C262 1.258 . S
C261 C264 1.431 . S
C261 C281 1.449 . S
C262 C261 1.258 . S
C262 C263 1.477 . S
C262 H282 0.931 . S
C263 C259 1.460 . S
C263 C262 1.477 . S
C263 H283 0.930 . S
C264 N260 1.362 . S
C264 C261 1.431 . S
C264 C274 1.476 . S
H265 C259 0.929 . S
C266 O257 1.250 . S
C266 O258 1.258 . S
O267 Mn252 2.162 1_545 S
O267 C255 1.281 . S
O268 Mn252 2.297 1_545 S
O268 C255 1.236 . S
N269 Mn253 2.282 . S
N269 C270 1.328 . S
N269 C274 1.318 . S
C270 N269 1.328 . S
C270 C271 1.457 . S
C270 H275 0.929 . S
C271 C270 1.457 . S
C271 C272 1.291 . S
C271 H284 0.931 . S
C272 C271 1.291 . S
C272 C273 1.373 . S
C272 H285 0.929 . S
C273 C272 1.373 . S
C273 C274 1.396 . S
C273 C280 1.403 . S
C274 C264 1.476 . S
C274 N269 1.318 . S
C274 C273 1.396 . S
H275 C270 0.929 . S
O276 Mn252 2.385 . S
O276 C254 1.234 . S
O277 Mn252 2.209 . S
O277 Mn253 2.215 . S
O277 C254 1.283 . S
O278 Mn252 2.094 . S
O278 C256 1.240 . S
O279 Mn253 2.117 . S
O279 C256 1.264 . S
C280 C273 1.403 . S
C280 C281 1.399 . S
C280 H286 0.929 . S
C281 C261 1.449 . S
C281 C280 1.399 . S
C281 H287 0.930 . S
H282 C262 0.931 . S
H283 C263 0.930 . S
H284 C271 0.931 . S
H285 C272 0.929 . S
H286 C280 0.929 . S
H287 C281 0.930 . S
Mn288 O293 2.095 . S
Mn288 O303 2.162 1_455 S
Mn288 O304 2.297 1_455 S
Mn288 O312 2.385 . S
Mn288 O313 2.209 . S
Mn288 O314 2.094 . S
Mn289 O294 2.121 . S
Mn289 N296 2.257 . S
Mn289 N305 2.282 . S
Mn289 O313 2.215 . S
Mn289 O315 2.117 . S
C290 O312 1.234 . S
C290 O313 1.283 . S
C291 O303 1.281 . S
C291 O304 1.236 . S
C292 O314 1.240 . S
C292 O315 1.264 . S
O293 Mn288 2.095 . S
O293 C302 1.250 . S
O294 Mn289 2.121 . S
O294 C302 1.258 . S
C295 N296 1.326 . S
C295 C299 1.460 . S
C295 H301 0.929 . S
N296 Mn289 2.257 . S
N296 C295 1.326 . S
N296 C300 1.362 . S
C297 C298 1.258 . S
C297 C300 1.431 . S
C297 C317 1.449 . S
C298 C297 1.258 . S
C298 C299 1.477 . S
C298 H318 0.931 . S
C299 C295 1.460 . S
C299 C298 1.477 . S
C299 H319 0.930 . S
C300 N296 1.362 . S
C300 C297 1.431 . S
C300 C310 1.476 . S
H301 C295 0.929 . S
C302 O293 1.250 . S
C302 O294 1.258 . S
O303 Mn288 2.162 1_655 S
O303 C291 1.281 . S
O304 Mn288 2.297 1_655 S
O304 C291 1.236 . S
N305 Mn289 2.282 . S
N305 C306 1.328 . S
N305 C310 1.318 . S
C306 N305 1.328 . S
C306 C307 1.457 . S
C306 H311 0.929 . S
C307 C306 1.457 . S
C307 C308 1.291 . S
C307 H320 0.931 . S
C308 C307 1.291 . S
C308 C309 1.373 . S
C308 H321 0.929 . S
C309 C308 1.373 . S
C309 C310 1.396 . S
C309 C316 1.403 . S
C310 C300 1.476 . S
C310 N305 1.318 . S
C310 C309 1.396 . S
H311 C306 0.929 . S
O312 Mn288 2.385 . S
O312 C290 1.234 . S
O313 Mn288 2.209 . S
O313 Mn289 2.215 . S
O313 C290 1.283 . S
O314 Mn288 2.094 . S
O314 C292 1.240 . S
O315 Mn289 2.117 . S
O315 C292 1.264 . S
C316 C309 1.403 . S
C316 C317 1.399 . S
C316 H322 0.929 . S
C317 C297 1.449 . S
C317 C316 1.399 . S
C317 H323 0.930 . S
H318 C298 0.931 . S
H319 C299 0.930 . S
H320 C307 0.931 . S
H321 C308 0.929 . S
H322 C316 0.929 . S
H323 C317 0.930 . S
Mn324 O329 2.064 1_565 S
Mn324 O339 2.162 . S
Mn324 O340 2.297 . S
Mn324 O348 2.385 . S
Mn324 O349 2.209 . S
Mn324 O350 2.094 . S
Mn325 O330 2.121 1_565 S
Mn325 N332 2.257 . S
Mn325 N341 2.282 . S
Mn325 O349 2.215 . S
Mn325 O351 2.117 . S
C326 O348 1.234 . S
C326 O349 1.283 . S
C327 O339 1.281 . S
C327 O340 1.236 . S
C328 O350 1.240 . S
C328 O351 1.264 . S
O329 Mn324 2.064 1_545 S
O329 C338 1.263 . S
O330 Mn325 2.121 1_545 S
O330 C338 1.258 . S
C331 N332 1.326 1_545 S
C331 C335 1.460 . S
C331 H337 0.929 . S
N332 Mn325 2.257 . S
N332 C331 1.326 1_565 S
N332 C336 1.362 . S
C333 C334 1.258 1_565 S
C333 C336 1.431 . S
C333 C353 1.449 . S
C334 C333 1.258 1_545 S
C334 C335 1.477 . S
C334 H354 0.931 . S
C335 C331 1.460 . S
C335 C334 1.477 . S
C335 H355 0.930 . S
C336 N332 1.362 . S
C336 C333 1.431 . S
C336 C346 1.476 . S
H337 C331 0.929 . S
C338 O329 1.263 . S
C338 O330 1.258 . S
O339 Mn324 2.162 . S
O339 C327 1.281 . S
O340 Mn324 2.297 . S
O340 C327 1.236 . S
N341 Mn325 2.282 . S
N341 C342 1.328 . S
N341 C346 1.318 . S
C342 N341 1.328 . S
C342 C343 1.457 . S
C342 H347 0.929 . S
C343 C342 1.457 . S
C343 C344 1.291 . S
C343 H356 0.931 . S
C344 C343 1.291 . S
C344 C345 1.373 . S
C344 H357 0.929 . S
C345 C344 1.373 . S
C345 C346 1.396 . S
C345 C352 1.403 . S
C346 C336 1.476 . S
C346 N341 1.318 . S
C346 C345 1.396 . S
H347 C342 0.929 . S
O348 Mn324 2.385 . S
O348 C326 1.234 . S
O349 Mn324 2.209 . S
O349 Mn325 2.215 . S
O349 C326 1.283 . S
O350 Mn324 2.094 . S
O350 C328 1.240 . S
O351 Mn325 2.117 . S
O351 C328 1.264 . S
C352 C345 1.403 . S
C352 C353 1.399 . S
C352 H358 0.929 . S
C353 C333 1.449 . S
C353 C352 1.399 . S
C353 H359 0.930 . S
H354 C334 0.931 . S
H355 C335 0.930 . S
H356 C343 0.931 . S
H357 C344 0.929 . S
H358 C352 0.929 . S
H359 C353 0.930 . S
Mn360 O365 2.095 . S
Mn360 O375 2.162 1_455 S
Mn360 O376 2.297 1_455 S
Mn360 O384 2.385 . S
Mn360 O385 2.209 . S
Mn360 O386 2.094 . S
Mn361 O366 2.121 . S
Mn361 N368 2.257 . S
Mn361 N377 2.282 . S
Mn361 O385 2.215 . S
Mn361 O387 2.117 . S
C362 O384 1.234 . S
C362 O385 1.283 . S
C363 O375 1.281 . S
C363 O376 1.236 . S
C364 O386 1.240 . S
C364 O387 1.264 . S
O365 Mn360 2.095 . S
O365 C374 1.250 . S
O366 Mn361 2.121 . S
O366 C374 1.258 . S
C367 N368 1.326 . S
C367 C371 1.460 . S
C367 H373 0.929 . S
N368 Mn361 2.257 . S
N368 C367 1.326 . S
N368 C372 1.362 . S
C369 C370 1.258 . S
C369 C372 1.431 . S
C369 C389 1.449 . S
C370 C369 1.258 . S
C370 C371 1.477 . S
C370 H390 0.931 . S
C371 C367 1.460 . S
C371 C370 1.477 . S
C371 H391 0.930 . S
C372 N368 1.362 . S
C372 C369 1.431 . S
C372 C382 1.476 . S
H373 C367 0.929 . S
C374 O365 1.250 . S
C374 O366 1.258 . S
O375 Mn360 2.162 1_655 S
O375 C363 1.281 . S
O376 Mn360 2.297 1_655 S
O376 C363 1.236 . S
N377 Mn361 2.282 . S
N377 C378 1.328 . S
N377 C382 1.318 . S
C378 N377 1.328 . S
C378 C379 1.457 . S
C378 H383 0.929 . S
C379 C378 1.457 . S
C379 C380 1.291 . S
C379 H392 0.931 . S
C380 C379 1.291 . S
C380 C381 1.373 . S
C380 H393 0.929 . S
C381 C380 1.373 . S
C381 C382 1.396 . S
C381 C388 1.403 . S
C382 C372 1.476 . S
C382 N377 1.318 . S
C382 C381 1.396 . S
H383 C378 0.929 . S
O384 Mn360 2.385 . S
O384 C362 1.234 . S
O385 Mn360 2.209 . S
O385 Mn361 2.215 . S
O385 C362 1.283 . S
O386 Mn360 2.094 . S
O386 C364 1.240 . S
O387 Mn361 2.117 . S
O387 C364 1.264 . S
C388 C381 1.403 . S
C388 C389 1.399 . S
C388 H394 0.929 . S
C389 C369 1.449 . S
C389 C388 1.399 . S
C389 H395 0.930 . S
H390 C370 0.931 . S
H391 C371 0.930 . S
H392 C379 0.931 . S
H393 C380 0.929 . S
H394 C388 0.929 . S
H395 C389 0.930 . S
Mn396 O401 2.095 . S
Mn396 O411 2.162 . S
Mn396 O412 2.297 . S
Mn396 O420 2.385 . S
Mn396 O421 2.209 . S
Mn396 O422 2.094 . S
Mn397 O402 2.121 . S
Mn397 N404 2.257 . S
Mn397 N413 2.282 . S
Mn397 O421 2.215 . S
Mn397 O423 2.117 . S
C398 O420 1.234 . S
C398 O421 1.283 . S
C399 O411 1.281 . S
C399 O412 1.236 . S
C400 O422 1.240 . S
C400 O423 1.264 . S
O401 Mn396 2.095 . S
O401 C410 1.250 . S
O402 Mn397 2.121 . S
O402 C410 1.258 . S
C403 N404 1.326 . S
C403 C407 1.460 . S
C403 H409 0.929 . S
N404 Mn397 2.257 . S
N404 C403 1.326 . S
N404 C408 1.362 . S
C405 C406 1.258 . S
C405 C408 1.431 . S
C405 C425 1.449 . S
C406 C405 1.258 . S
C406 C407 1.477 . S
C406 H426 0.931 . S
C407 C403 1.460 . S
C407 C406 1.477 . S
C407 H427 0.930 . S
C408 N404 1.362 . S
C408 C405 1.431 . S
C408 C418 1.476 . S
H409 C403 0.929 . S
C410 O401 1.250 . S
C410 O402 1.258 . S
O411 Mn396 2.162 . S
O411 C399 1.281 . S
O412 Mn396 2.297 . S
O412 C399 1.236 . S
N413 Mn397 2.282 . S
N413 C414 1.328 . S
N413 C418 1.318 . S
C414 N413 1.328 . S
C414 C415 1.457 . S
C414 H419 0.929 . S
C415 C414 1.457 . S
C415 C416 1.291 . S
C415 H428 0.931 . S
C416 C415 1.291 . S
C416 C417 1.373 . S
C416 H429 0.929 . S
C417 C416 1.373 . S
C417 C418 1.396 . S
C417 C424 1.403 . S
C418 C408 1.476 . S
C418 N413 1.318 . S
C418 C417 1.396 . S
H419 C414 0.929 . S
O420 Mn396 2.385 . S
O420 C398 1.234 . S
O421 Mn396 2.209 . S
O421 Mn397 2.215 . S
O421 C398 1.283 . S
O422 Mn396 2.094 . S
O422 C400 1.240 . S
O423 Mn397 2.117 . S
O423 C400 1.264 . S
C424 C417 1.403 . S
C424 C425 1.399 . S
C424 H430 0.929 . S
C425 C405 1.449 . S
C425 C424 1.399 . S
C425 H431 0.930 . S
H426 C406 0.931 . S
H427 C407 0.930 . S
H428 C415 0.931 . S
H429 C416 0.929 . S
H430 C424 0.929 . S
H431 C425 0.930 . S
Mn432 O437 2.095 . S
Mn432 O447 2.162 1_545 S
Mn432 O448 2.297 1_545 S
Mn432 O456 2.385 . S
Mn432 O457 2.209 . S
Mn432 O458 2.094 . S
Mn433 O438 2.121 . S
Mn433 N440 2.257 . S
Mn433 N449 2.282 . S
Mn433 O457 2.215 . S
Mn433 O459 2.117 . S
C434 O456 1.234 . S
C434 O457 1.283 . S
C435 O447 1.281 . S
C435 O448 1.236 . S
C436 O458 1.240 . S
C436 O459 1.264 . S
O437 Mn432 2.095 . S
O437 C446 1.250 . S
O438 Mn433 2.121 . S
O438 C446 1.258 . S
C439 N440 1.326 . S
C439 C443 1.460 . S
C439 H445 0.929 . S
N440 Mn433 2.257 . S
N440 C439 1.326 . S
N440 C444 1.362 . S
C441 C442 1.258 . S
C441 C444 1.431 . S
C441 C461 1.449 . S
C442 C441 1.258 . S
C442 C443 1.477 . S
C442 H462 0.931 . S
C443 C439 1.460 . S
C443 C442 1.477 . S
C443 H463 0.930 . S
C444 N440 1.362 . S
C444 C441 1.431 . S
C444 C454 1.476 . S
H445 C439 0.929 . S
C446 O437 1.250 . S
C446 O438 1.258 . S
O447 Mn432 2.162 1_565 S
O447 C435 1.281 . S
O448 Mn432 2.297 1_565 S
O448 C435 1.236 . S
N449 Mn433 2.282 . S
N449 C450 1.328 . S
N449 C454 1.318 . S
C450 N449 1.328 . S
C450 C451 1.457 . S
C450 H455 0.929 . S
C451 C450 1.457 . S
C451 C452 1.291 . S
C451 H464 0.931 . S
C452 C451 1.291 . S
C452 C453 1.373 . S
C452 H465 0.929 . S
C453 C452 1.373 . S
C453 C454 1.396 . S
C453 C460 1.403 . S
C454 C444 1.476 . S
C454 N449 1.318 . S
C454 C453 1.396 . S
H455 C450 0.929 . S
O456 Mn432 2.385 . S
O456 C434 1.234 . S
O457 Mn432 2.209 . S
O457 Mn433 2.215 . S
O457 C434 1.283 . S
O458 Mn432 2.094 . S
O458 C436 1.240 . S
O459 Mn433 2.117 . S
O459 C436 1.264 . S
C460 C453 1.403 . S
C460 C461 1.399 . S
C460 H466 0.929 . S
C461 C441 1.449 . S
C461 C460 1.399 . S
C461 H467 0.930 . S
H462 C442 0.931 . S
H463 C443 0.930 . S
H464 C451 0.931 . S
H465 C452 0.929 . S
H466 C460 0.929 . S
H467 C461 0.930 . S
Mn468 O473 2.095 . S
Mn468 O483 2.162 . S
Mn468 O484 2.297 . S
Mn468 O492 2.385 . S
Mn468 O493 2.209 . S
Mn468 O494 2.094 . S
Mn469 O474 2.121 1_655 S
Mn469 N476 2.257 . S
Mn469 N485 2.282 . S
Mn469 O493 2.215 . S
Mn469 O495 2.117 . S
C470 O492 1.234 . S
C470 O493 1.283 . S
C471 O483 1.281 . S
C471 O484 1.236 . S
C472 O494 1.240 . S
C472 O495 1.264 . S
O473 Mn468 2.095 . S
O473 C482 1.250 1_655 S
O474 Mn469 2.121 1_455 S
O474 C482 1.258 . S
C475 N476 1.326 1_455 S
C475 C479 1.460 . S
C475 H481 0.929 . S
N476 Mn469 2.257 . S
N476 C475 1.326 1_655 S
N476 C480 1.362 . S
C477 C478 1.258 1_655 S
C477 C480 1.431 . S
C477 C497 1.449 . S
C478 C477 1.258 1_455 S
C478 C479 1.477 . S
C478 H498 0.931 . S
C479 C475 1.460 . S
C479 C478 1.477 . S
C479 H499 0.930 . S
C480 N476 1.362 . S
C480 C477 1.431 . S
C480 C490 1.476 . S
H481 C475 0.929 . S
C482 O473 1.250 1_455 S
C482 O474 1.258 . S
O483 Mn468 2.162 . S
O483 C471 1.281 . S
O484 Mn468 2.297 . S
O484 C471 1.236 . S
N485 Mn469 2.282 . S
N485 C486 1.328 . S
N485 C490 1.318 . S
C486 N485 1.328 . S
C486 C487 1.457 . S
C486 H491 0.929 . S
C487 C486 1.457 . S
C487 C488 1.291 . S
C487 H500 0.931 . S
C488 C487 1.291 . S
C488 C489 1.373 . S
C488 H501 0.929 . S
C489 C488 1.373 . S
C489 C490 1.396 . S
C489 C496 1.403 . S
C490 C480 1.476 . S
C490 N485 1.318 . S
C490 C489 1.396 . S
H491 C486 0.929 . S
O492 Mn468 2.385 . S
O492 C470 1.234 . S
O493 Mn468 2.209 . S
O493 Mn469 2.215 . S
O493 C470 1.283 . S
O494 Mn468 2.094 . S
O494 C472 1.240 . S
O495 Mn469 2.117 . S
O495 C472 1.264 . S
C496 C489 1.403 . S
C496 C497 1.399 . S
C496 H502 0.929 . S
C497 C477 1.449 . S
C497 C496 1.399 . S
C497 H503 0.930 . S
H498 C478 0.931 . S
H499 C479 0.930 . S
H500 C487 0.931 . S
H501 C488 0.929 . S
H502 C496 0.929 . S
H503 C497 0.930 . S
Mn504 O509 2.095 . S
Mn504 O519 2.162 . S
Mn504 O520 2.297 . S
Mn504 O528 2.385 . S
Mn504 O529 2.209 . S
Mn504 O530 2.094 . S
Mn505 O510 2.121 . S
Mn505 N512 2.257 . S
Mn505 N521 2.282 . S
Mn505 O529 2.215 . S
Mn505 O531 2.117 . S
C506 O528 1.234 . S
C506 O529 1.283 . S
C507 O519 1.281 . S
C507 O520 1.236 . S
C508 O530 1.240 . S
C508 O531 1.264 . S
O509 Mn504 2.095 . S
O509 C518 1.250 . S
O510 Mn505 2.121 . S
O510 C518 1.258 . S
C511 N512 1.326 . S
C511 C515 1.460 . S
C511 H517 0.929 . S
N512 Mn505 2.257 . S
N512 C511 1.326 . S
N512 C516 1.362 . S
C513 C514 1.258 . S
C513 C516 1.431 . S
C513 C533 1.449 . S
C514 C513 1.258 . S
C514 C515 1.477 . S
C514 H534 0.931 . S
C515 C511 1.460 . S
C515 C514 1.477 . S
C515 H535 0.930 . S
C516 N512 1.362 . S
C516 C513 1.431 . S
C516 C526 1.476 . S
H517 C511 0.929 . S
C518 O509 1.250 . S
C518 O510 1.258 . S
O519 Mn504 2.162 . S
O519 C507 1.281 . S
O520 Mn504 2.297 . S
O520 C507 1.236 . S
N521 Mn505 2.282 . S
N521 C522 1.328 . S
N521 C526 1.318 . S
C522 N521 1.328 . S
C522 C523 1.457 . S
C522 H527 0.929 . S
C523 C522 1.457 . S
C523 C524 1.291 . S
C523 H536 0.931 . S
C524 C523 1.291 . S
C524 C525 1.373 . S
C524 H537 0.929 . S
C525 C524 1.373 . S
C525 C526 1.396 . S
C525 C532 1.403 . S
C526 C516 1.476 . S
C526 N521 1.318 . S
C526 C525 1.396 . S
H527 C522 0.929 . S
O528 Mn504 2.385 . S
O528 C506 1.234 . S
O529 Mn504 2.209 . S
O529 Mn505 2.215 . S
O529 C506 1.283 . S
O530 Mn504 2.094 . S
O530 C508 1.240 . S
O531 Mn505 2.117 . S
O531 C508 1.264 . S
C532 C525 1.403 . S
C532 C533 1.399 . S
C532 H538 0.929 . S
C533 C513 1.449 . S
C533 C532 1.399 . S
C533 H539 0.930 . S
H534 C514 0.931 . S
H535 C515 0.930 . S
H536 C523 0.931 . S
H537 C524 0.929 . S
H538 C532 0.929 . S
H539 C533 0.930 . S
Mn540 O545 2.095 . S
Mn540 O555 2.162 . S
Mn540 O556 2.297 . S
Mn540 O564 2.385 . S
Mn540 O565 2.209 . S
Mn540 O566 2.094 . S
Mn541 O546 2.121 . S
Mn541 N548 2.257 . S
Mn541 N557 2.282 . S
Mn541 O565 2.215 . S
Mn541 O567 2.117 . S
C542 O564 1.234 . S
C542 O565 1.283 . S
C543 O555 1.281 . S
C543 O556 1.236 . S
C544 O566 1.240 . S
C544 O567 1.264 . S
O545 Mn540 2.095 . S
O545 C554 1.250 . S
O546 Mn541 2.121 . S
O546 C554 1.258 . S
C547 N548 1.326 . S
C547 C551 1.460 . S
C547 H553 0.929 . S
N548 Mn541 2.257 . S
N548 C547 1.326 . S
N548 C552 1.362 . S
C549 C550 1.258 . S
C549 C552 1.431 . S
C549 C569 1.449 . S
C550 C549 1.258 . S
C550 C551 1.477 . S
C550 H570 0.931 . S
C551 C547 1.460 . S
C551 C550 1.477 . S
C551 H571 0.930 . S
C552 N548 1.362 . S
C552 C549 1.431 . S
C552 C562 1.476 . S
H553 C547 0.929 . S
C554 O545 1.250 . S
C554 O546 1.258 . S
O555 Mn540 2.162 . S
O555 C543 1.281 . S
O556 Mn540 2.297 . S
O556 C543 1.236 . S
N557 Mn541 2.282 . S
N557 C558 1.328 . S
N557 C562 1.318 . S
C558 N557 1.328 . S
C558 C559 1.457 . S
C558 H563 0.929 . S
C559 C558 1.457 . S
C559 C560 1.291 . S
C559 H572 0.931 . S
C560 C559 1.291 . S
C560 C561 1.373 . S
C560 H573 0.929 . S
C561 C560 1.373 . S
C561 C562 1.396 . S
C561 C568 1.403 . S
C562 C552 1.476 . S
C562 N557 1.318 . S
C562 C561 1.396 . S
H563 C558 0.929 . S
O564 Mn540 2.385 . S
O564 C542 1.234 . S
O565 Mn540 2.209 . S
O565 Mn541 2.215 . S
O565 C542 1.283 . S
O566 Mn540 2.094 . S
O566 C544 1.240 . S
O567 Mn541 2.117 . S
O567 C544 1.264 . S
C568 C561 1.403 . S
C568 C569 1.399 . S
C568 H574 0.929 . S
C569 C549 1.449 . S
C569 C568 1.399 . S
C569 H575 0.930 . S
H570 C550 0.931 . S
H571 C551 0.930 . S
H572 C559 0.931 . S
H573 C560 0.929 . S
H574 C568 0.929 . S
H575 C569 0.930 . S
Mn576 O581 2.095 1_545 S
Mn576 O591 2.162 . S
Mn576 O592 2.297 . S
Mn576 O600 2.385 . S
Mn576 O601 2.209 . S
Mn576 O602 2.094 . S
Mn577 O582 2.121 1_545 S
Mn577 N584 2.257 . S
Mn577 N593 2.282 . S
Mn577 O601 2.215 . S
Mn577 O603 2.117 . S
C578 O600 1.234 . S
C578 O601 1.283 . S
C579 O591 1.281 . S
C579 O592 1.236 . S
C580 O602 1.240 . S
C580 O603 1.264 . S
O581 Mn576 2.095 1_565 S
O581 C590 1.250 . S
O582 Mn577 2.121 1_565 S
O582 C590 1.258 . S
C583 N584 1.326 1_565 S
C583 C587 1.460 . S
C583 H589 0.929 . S
N584 Mn577 2.257 . S
N584 C583 1.326 1_545 S
N584 C588 1.362 . S
C585 C586 1.258 1_545 S
C585 C588 1.431 . S
C585 C605 1.449 . S
C586 C585 1.258 1_565 S
C586 C587 1.477 . S
C586 H606 0.931 . S
C587 C583 1.460 . S
C587 C586 1.477 . S
C587 H607 0.930 . S
C588 N584 1.362 . S
C588 C585 1.431 . S
C588 C598 1.476 . S
H589 C583 0.929 . S
C590 O581 1.250 . S
C590 O582 1.258 . S
O591 Mn576 2.162 . S
O591 C579 1.281 . S
O592 Mn576 2.297 . S
O592 C579 1.236 . S
N593 Mn577 2.282 . S
N593 C594 1.328 . S
N593 C598 1.318 . S
C594 N593 1.328 . S
C594 C595 1.457 . S
C594 H599 0.929 . S
C595 C594 1.457 . S
C595 C596 1.291 . S
C595 H608 0.931 . S
C596 C595 1.291 . S
C596 C597 1.373 . S
C596 H609 0.929 . S
C597 C596 1.373 . S
C597 C598 1.396 . S
C597 C604 1.403 . S
C598 C588 1.476 . S
C598 N593 1.318 . S
C598 C597 1.396 . S
H599 C594 0.929 . S
O600 Mn576 2.385 . S
O600 C578 1.234 . S
O601 Mn576 2.209 . S
O601 Mn577 2.215 . S
O601 C578 1.283 . S
O602 Mn576 2.094 . S
O602 C580 1.240 . S
O603 Mn577 2.117 . S
O603 C580 1.264 . S
C604 C597 1.403 . S
C604 C605 1.399 . S
C604 H610 0.929 . S
C605 C585 1.449 . S
C605 C604 1.399 . S
C605 H611 0.930 . S
H606 C586 0.931 . S
H607 C587 0.930 . S
H608 C595 0.931 . S
H609 C596 0.929 . S
H610 C604 0.929 . S
H611 C605 0.930 . S
Mn612 O617 2.095 . S
Mn612 O627 2.162 1_655 S
Mn612 O628 2.297 1_655 S
Mn612 O636 2.385 . S
Mn612 O637 2.209 . S
Mn612 O638 2.094 . S
Mn613 O618 2.121 . S
Mn613 N620 2.257 . S
Mn613 N629 2.282 . S
Mn613 O637 2.215 . S
Mn613 O639 2.117 . S
C614 O636 1.234 . S
C614 O637 1.283 . S
C615 O627 1.281 . S
C615 O628 1.236 . S
C616 O638 1.240 . S
C616 O639 1.264 . S
O617 Mn612 2.095 . S
O617 C626 1.250 . S
O618 Mn613 2.121 . S
O618 C626 1.258 . S
C619 N620 1.326 . S
C619 C623 1.460 . S
C619 H625 0.929 . S
N620 Mn613 2.257 . S
N620 C619 1.326 . S
N620 C624 1.362 . S
C621 C622 1.258 . S
C621 C624 1.431 . S
C621 C641 1.449 . S
C622 C621 1.258 . S
C622 C623 1.477 . S
C622 H642 0.931 . S
C623 C619 1.460 . S
C623 C622 1.477 . S
C623 H643 0.930 . S
C624 N620 1.362 . S
C624 C621 1.431 . S
C624 C634 1.476 . S
H625 C619 0.929 . S
C626 O617 1.250 . S
C626 O618 1.258 . S
O627 Mn612 2.162 1_455 S
O627 C615 1.281 . S
O628 Mn612 2.297 1_455 S
O628 C615 1.236 . S
N629 Mn613 2.282 . S
N629 C630 1.328 . S
N629 C634 1.318 . S
C630 N629 1.328 . S
C630 C631 1.457 . S
C630 H635 0.929 . S
C631 C630 1.457 . S
C631 C632 1.291 . S
C631 H644 0.931 . S
C632 C631 1.291 . S
C632 C633 1.373 . S
C632 H645 0.929 . S
C633 C632 1.373 . S
C633 C634 1.396 . S
C633 C640 1.403 . S
C634 C624 1.476 . S
C634 N629 1.318 . S
C634 C633 1.396 . S
H635 C630 0.929 . S
O636 Mn612 2.385 . S
O636 C614 1.234 . S
O637 Mn612 2.209 . S
O637 Mn613 2.215 . S
O637 C614 1.283 . S
O638 Mn612 2.094 . S
O638 C616 1.240 . S
O639 Mn613 2.117 . S
O639 C616 1.264 . S
C640 C633 1.403 . S
C640 C641 1.399 . S
C640 H646 0.929 . S
C641 C621 1.449 . S
C641 C640 1.399 . S
C641 H647 0.930 . S
H642 C622 0.931 . S
H643 C623 0.930 . S
H644 C631 0.931 . S
H645 C632 0.929 . S
H646 C640 0.929 . S
H647 C641 0.930 . S
C648 C649 1.560 . S
C648 H709 0.959 . S
C648 H710 0.959 . S
C648 H711 0.960 . S
C649 C648 1.560 . S
C649 O704 1.426 . S
C649 H708 0.980 . S
C650 C651 1.407 . S
C650 C655 1.418 . S
C650 O704 1.334 . S
C651 C650 1.407 . S
C651 C652 1.360 . S
C651 H712 0.929 . S
C652 C651 1.360 . S
C652 C653 1.401 . S
C652 C656 1.527 . S
C653 C652 1.401 . S
C653 C654 1.405 . S
C653 C686 1.587 . S
C654 C653 1.405 . S
C654 C655 1.332 . S
C654 C657 1.496 . S
C655 C650 1.418 . S
C655 C654 1.332 . S
C655 H713 0.929 . S
C656 C652 1.527 . S
C656 H714 0.959 . S
C656 H715 0.961 . S
C656 H716 0.961 . S
C657 C654 1.496 . S
C657 H717 0.960 . S
C657 H718 0.960 . S
C657 H719 0.961 . S
C658 C659 1.517 . S
C658 H721 0.961 . S
C658 H722 0.960 . S
C658 H723 0.959 . S
C659 C658 1.517 . S
C659 O707 1.468 . S
C659 H720 0.980 . S
C660 C661 1.349 . S
C660 C665 1.367 . S
C660 O707 1.408 . S
C661 C660 1.349 . S
C661 C662 1.407 . S
C661 H724 0.930 . S
C662 C661 1.407 . S
C662 C663 1.449 . S
C662 C666 1.535 . S
C663 C662 1.449 . S
C663 C664 1.384 . S
C663 C688 1.553 . S
C664 C663 1.384 . S
C664 C665 1.364 . S
C664 C667 1.450 . S
C665 C660 1.367 . S
C665 C664 1.364 . S
C665 H725 0.931 . S
C666 C662 1.535 . S
C666 H726 0.959 . S
C666 H727 0.961 . S
C666 H728 0.959 . S
C667 C664 1.450 . S
C667 H729 0.960 . S
C667 H730 0.960 . S
C667 H731 0.960 . S
C668 C669 1.309 . S
C668 C673 1.304 . S
C668 O706 1.435 . S
C669 C668 1.309 . S
C669 C670 1.476 . S
C669 H733 0.930 . S
C670 C669 1.476 . S
C670 C671 1.400 . S
C670 C674 1.567 . S
C671 C670 1.400 . S
C671 C672 1.373 . S
C671 C693 1.432 . S
C672 C671 1.373 . S
C672 C673 1.339 . S
C672 C675 1.530 . S
C673 C668 1.304 . S
C673 C672 1.339 . S
C673 H734 0.930 . S
C674 C670 1.567 . S
C674 H735 0.961 . S
C674 H736 0.960 . S
C674 H737 0.958 . S
C675 C672 1.530 . S
C675 H738 0.961 . S
C675 H739 0.960 . S
C675 H740 0.960 . S
C676 C677 1.530 . S
C676 H742 0.961 . S
C676 H743 0.961 . S
C676 H744 0.959 . S
C677 C676 1.530 . S
C677 O705 1.412 . S
C677 H741 0.980 . S
C678 C679 1.288 . S
C678 C683 1.377 . S
C678 O705 1.393 . S
C679 C678 1.288 . S
C679 C680 1.369 . S
C679 H745 0.932 . S
C680 C679 1.369 . S
C680 C681 1.398 . S
C680 C684 1.527 . S
C681 C680 1.398 . S
C681 C682 1.380 . S
C681 C695 1.497 . S
C682 C681 1.380 . S
C682 C683 1.383 . S
C682 C685 1.603 . S
C683 C678 1.377 . S
C683 C682 1.383 . S
C683 H746 0.929 . S
C684 C680 1.527 . S
C684 H747 0.961 . S
C684 H748 0.959 . S
C684 H749 0.959 . S
C685 C682 1.603 . S
C685 H750 0.960 . S
C685 H751 0.962 . S
C685 H752 0.961 . S
C686 C653 1.587 . S
C686 C687 1.360 . S
C686 C699 1.412 . S
C687 C686 1.360 . S
C687 C688 1.365 . S
C687 H753 0.929 . S
C688 C663 1.553 . S
C688 C687 1.365 . S
C688 C689 1.404 . S
C689 C688 1.404 . S
C689 C690 1.395 . S
C689 C700 1.451 . S
C690 C689 1.395 . S
C690 C691 1.322 . S
C690 H754 0.930 . S
C691 C690 1.322 . S
C691 C692 1.459 . S
C691 H755 0.929 . S
C692 C691 1.459 . S
C692 C693 1.445 . S
C692 C701 1.395 . S
C693 C671 1.432 . S
C693 C692 1.445 . S
C693 C694 1.370 . S
C694 C693 1.370 . S
C694 C695 1.438 . S
C694 H756 0.930 . S
C695 C681 1.497 . S
C695 C694 1.438 . S
C695 C696 1.360 . S
C696 C695 1.360 . S
C696 C697 1.401 . S
C696 C701 1.446 . S
C697 C696 1.401 . S
C697 C698 1.347 . S
C697 H757 0.929 . S
C698 C697 1.347 . S
C698 C699 1.455 . S
C698 H758 0.930 . S
C699 C686 1.412 . S
C699 C698 1.455 . S
C699 C700 1.331 . S
C700 C689 1.451 . S
C700 C699 1.331 . S
C700 C701 1.497 . S
C701 C692 1.395 . S
C701 C696 1.446 . S
C701 C700 1.497 . S
C702 C703 1.582 . S
C702 H759 0.962 . S
C702 H760 0.959 . S
C702 H761 0.958 . S
C703 C702 1.582 . S
C703 O706 1.458 . S
C703 H732 0.980 . S
O704 C649 1.426 . S
O704 C650 1.334 . S
O705 C677 1.412 . S
O705 C678 1.393 . S
O706 C668 1.435 . S
O706 C703 1.458 . S
O707 C659 1.468 . S
O707 C660 1.408 . S
H708 C649 0.980 . S
H709 C648 0.959 . S
H710 C648 0.959 . S
H711 C648 0.960 . S
H712 C651 0.929 . S
H713 C655 0.929 . S
H714 C656 0.959 . S
H715 C656 0.961 . S
H716 C656 0.961 . S
H717 C657 0.960 . S
H718 C657 0.960 . S
H719 C657 0.961 . S
H720 C659 0.980 . S
H721 C658 0.961 . S
H722 C658 0.960 . S
H723 C658 0.959 . S
H724 C661 0.930 . S
H725 C665 0.931 . S
H726 C666 0.959 . S
H727 C666 0.961 . S
H728 C666 0.959 . S
H729 C667 0.960 . S
H730 C667 0.960 . S
H731 C667 0.960 . S
H732 C703 0.980 . S
H733 C669 0.930 . S
H734 C673 0.930 . S
H735 C674 0.961 . S
H736 C674 0.960 . S
H737 C674 0.958 . S
H738 C675 0.961 . S
H739 C675 0.960 . S
H740 C675 0.960 . S
H741 C677 0.980 . S
H742 C676 0.961 . S
H743 C676 0.961 . S
H744 C676 0.959 . S
H745 C679 0.932 . S
H746 C683 0.929 . S
H747 C684 0.961 . S
H748 C684 0.959 . S
H749 C684 0.959 . S
H750 C685 0.960 . S
H751 C685 0.962 . S
H752 C685 0.961 . S
H753 C687 0.929 . S
H754 C690 0.930 . S
H755 C691 0.929 . S
H756 C694 0.930 . S
H757 C697 0.929 . S
H758 C698 0.930 . S
H759 C702 0.962 . S
H760 C702 0.959 . S
H761 C702 0.958 . S
C762 C763 1.560 . S
C762 H823 0.959 . S
C762 H824 0.959 . S
C762 H825 0.960 . S
C763 C762 1.560 . S
C763 O818 1.426 . S
C763 H822 0.980 . S
C764 C765 1.407 . S
C764 C769 1.418 . S
C764 O818 1.334 . S
C765 C764 1.407 . S
C765 C766 1.360 . S
C765 H826 0.929 . S
C766 C765 1.360 . S
C766 C767 1.401 . S
C766 C770 1.527 . S
C767 C766 1.401 . S
C767 C768 1.405 . S
C767 C800 1.587 . S
C768 C767 1.405 . S
C768 C769 1.332 . S
C768 C771 1.496 . S
C769 C764 1.418 . S
C769 C768 1.332 . S
C769 H827 0.929 . S
C770 C766 1.527 . S
C770 H828 0.959 . S
C770 H829 0.961 . S
C770 H830 0.961 . S
C771 C768 1.496 . S
C771 H831 0.960 . S
C771 H832 0.960 . S
C771 H833 0.961 . S
C772 C773 1.517 . S
C772 H835 0.961 . S
C772 H836 0.960 . S
C772 H837 0.959 . S
C773 C772 1.517 . S
C773 O821 1.468 . S
C773 H834 0.980 . S
C774 C775 1.349 . S
C774 C779 1.367 . S
C774 O821 1.408 . S
C775 C774 1.349 . S
C775 C776 1.407 . S
C775 H838 0.930 . S
C776 C775 1.407 . S
C776 C777 1.449 . S
C776 C780 1.535 . S
C777 C776 1.449 . S
C777 C778 1.384 . S
C777 C802 1.553 . S
C778 C777 1.384 . S
C778 C779 1.364 . S
C778 C781 1.450 . S
C779 C774 1.367 . S
C779 C778 1.364 . S
C779 H839 0.931 . S
C780 C776 1.535 . S
C780 H840 0.959 . S
C780 H841 0.961 . S
C780 H842 0.959 . S
C781 C778 1.450 . S
C781 H843 0.960 . S
C781 H844 0.960 . S
C781 H845 0.960 . S
C782 C783 1.309 . S
C782 C787 1.304 . S
C782 O820 1.435 . S
C783 C782 1.309 . S
C783 C784 1.476 . S
C783 H847 0.930 . S
C784 C783 1.476 . S
C784 C785 1.400 . S
C784 C788 1.567 . S
C785 C784 1.400 . S
C785 C786 1.373 . S
C785 C807 1.432 . S
C786 C785 1.373 . S
C786 C787 1.339 . S
C786 C789 1.530 . S
C787 C782 1.304 . S
C787 C786 1.339 . S
C787 H848 0.930 . S
C788 C784 1.567 . S
C788 H849 0.961 . S
C788 H850 0.960 . S
C788 H851 0.958 . S
C789 C786 1.530 . S
C789 H852 0.961 . S
C789 H853 0.960 . S
C789 H854 0.960 . S
C790 C791 1.530 . S
C790 H856 0.961 . S
C790 H857 0.961 . S
C790 H858 0.959 . S
C791 C790 1.530 . S
C791 O819 1.412 . S
C791 H855 0.980 . S
C792 C793 1.288 . S
C792 C797 1.377 . S
C792 O819 1.393 . S
C793 C792 1.288 . S
C793 C794 1.369 . S
C793 H859 0.932 . S
C794 C793 1.369 . S
C794 C795 1.398 . S
C794 C798 1.527 . S
C795 C794 1.398 . S
C795 C796 1.380 . S
C795 C809 1.497 . S
C796 C795 1.380 . S
C796 C797 1.383 . S
C796 C799 1.603 . S
C797 C792 1.377 . S
C797 C796 1.383 . S
C797 H860 0.929 . S
C798 C794 1.527 . S
C798 H861 0.961 . S
C798 H862 0.959 . S
C798 H863 0.959 . S
C799 C796 1.603 . S
C799 H864 0.960 . S
C799 H865 0.962 . S
C799 H866 0.961 . S
C800 C767 1.587 . S
C800 C801 1.360 . S
C800 C813 1.412 . S
C801 C800 1.360 . S
C801 C802 1.365 . S
C801 H867 0.929 . S
C802 C777 1.553 . S
C802 C801 1.365 . S
C802 C803 1.404 . S
C803 C802 1.404 . S
C803 C804 1.395 . S
C803 C814 1.451 . S
C804 C803 1.395 . S
C804 C805 1.322 . S
C804 H868 0.930 . S
C805 C804 1.322 . S
C805 C806 1.459 . S
C805 H869 0.929 . S
C806 C805 1.459 . S
C806 C807 1.445 . S
C806 C815 1.395 . S
C807 C785 1.432 . S
C807 C806 1.445 . S
C807 C808 1.370 . S
C808 C807 1.370 . S
C808 C809 1.438 . S
C808 H870 0.930 . S
C809 C795 1.497 . S
C809 C808 1.438 . S
C809 C810 1.360 . S
C810 C809 1.360 . S
C810 C811 1.401 . S
C810 C815 1.446 . S
C811 C810 1.401 . S
C811 C812 1.347 . S
C811 H871 0.929 . S
C812 C811 1.347 . S
C812 C813 1.455 . S
C812 H872 0.930 . S
C813 C800 1.412 . S
C813 C812 1.455 . S
C813 C814 1.331 . S
C814 C803 1.451 . S
C814 C813 1.331 . S
C814 C815 1.497 . S
C815 C806 1.395 . S
C815 C810 1.446 . S
C815 C814 1.497 . S
C816 C817 1.582 . S
C816 H873 0.962 . S
C816 H874 0.959 . S
C816 H875 0.958 . S
C817 C816 1.582 . S
C817 O820 1.458 . S
C817 H846 0.980 . S
O818 C763 1.426 . S
O818 C764 1.334 . S
O819 C791 1.412 . S
O819 C792 1.393 . S
O820 C782 1.435 . S
O820 C817 1.458 . S
O821 C773 1.468 . S
O821 C774 1.408 . S
H822 C763 0.980 . S
H823 C762 0.959 . S
H824 C762 0.959 . S
H825 C762 0.960 . S
H826 C765 0.929 . S
H827 C769 0.929 . S
H828 C770 0.959 . S
H829 C770 0.961 . S
H830 C770 0.961 . S
H831 C771 0.960 . S
H832 C771 0.960 . S
H833 C771 0.961 . S
H834 C773 0.980 . S
H835 C772 0.961 . S
H836 C772 0.960 . S
H837 C772 0.959 . S
H838 C775 0.930 . S
H839 C779 0.931 . S
H840 C780 0.959 . S
H841 C780 0.961 . S
H842 C780 0.959 . S
H843 C781 0.960 . S
H844 C781 0.960 . S
H845 C781 0.960 . S
H846 C817 0.980 . S
H847 C783 0.930 . S
H848 C787 0.930 . S
H849 C788 0.961 . S
H850 C788 0.960 . S
H851 C788 0.958 . S
H852 C789 0.961 . S
H853 C789 0.960 . S
H854 C789 0.960 . S
H855 C791 0.980 . S
H856 C790 0.961 . S
H857 C790 0.961 . S
H858 C790 0.959 . S
H859 C793 0.932 . S
H860 C797 0.929 . S
H861 C798 0.961 . S
H862 C798 0.959 . S
H863 C798 0.959 . S
H864 C799 0.960 . S
H865 C799 0.962 . S
H866 C799 0.961 . S
H867 C801 0.929 . S
H868 C804 0.930 . S
H869 C805 0.929 . S
H870 C808 0.930 . S
H871 C811 0.929 . S
H872 C812 0.930 . S
H873 C816 0.962 . S
H874 C816 0.959 . S
H875 C816 0.958 . S
C876 C877 1.560 . S
C876 H937 0.959 . S
C876 H938 0.959 . S
C876 H939 0.960 . S
C877 C876 1.560 . S
C877 O932 1.426 . S
C877 H936 0.980 . S
C878 C879 1.407 . S
C878 C883 1.418 . S
C878 O932 1.334 . S
C879 C878 1.407 . S
C879 C880 1.360 . S
C879 H940 0.929 . S
C880 C879 1.360 . S
C880 C881 1.401 . S
C880 C884 1.527 . S
C881 C880 1.401 . S
C881 C882 1.405 . S
C881 C914 1.587 . S
C882 C881 1.405 . S
C882 C883 1.332 . S
C882 C885 1.496 . S
C883 C878 1.418 . S
C883 C882 1.332 . S
C883 H941 0.929 . S
C884 C880 1.527 . S
C884 H942 0.959 . S
C884 H943 0.961 . S
C884 H944 0.961 . S
C885 C882 1.496 . S
C885 H945 0.960 . S
C885 H946 0.960 . S
C885 H947 0.961 . S
C886 C887 1.517 . S
C886 H949 0.961 . S
C886 H950 0.960 . S
C886 H951 0.959 . S
C887 C886 1.517 . S
C887 O935 1.468 . S
C887 H948 0.980 . S
C888 C889 1.349 . S
C888 C893 1.367 . S
C888 O935 1.408 . S
C889 C888 1.349 . S
C889 C890 1.407 . S
C889 H952 0.930 . S
C890 C889 1.407 . S
C890 C891 1.449 . S
C890 C894 1.535 . S
C891 C890 1.449 . S
C891 C892 1.384 . S
C891 C916 1.553 . S
C892 C891 1.384 . S
C892 C893 1.364 . S
C892 C895 1.450 . S
C893 C888 1.367 . S
C893 C892 1.364 . S
C893 H953 0.931 . S
C894 C890 1.535 . S
C894 H954 0.959 . S
C894 H955 0.961 . S
C894 H956 0.959 . S
C895 C892 1.450 . S
C895 H957 0.960 . S
C895 H958 0.960 . S
C895 H959 0.960 . S
C896 C897 1.309 . S
C896 C901 1.304 . S
C896 O934 1.435 . S
C897 C896 1.309 . S
C897 C898 1.476 . S
C897 H961 0.930 . S
C898 C897 1.476 . S
C898 C899 1.400 . S
C898 C902 1.567 . S
C899 C898 1.400 . S
C899 C900 1.373 . S
C899 C921 1.432 . S
C900 C899 1.373 . S
C900 C901 1.339 . S
C900 C903 1.530 . S
C901 C896 1.304 . S
C901 C900 1.339 . S
C901 H962 0.930 . S
C902 C898 1.567 . S
C902 H963 0.961 . S
C902 H964 0.960 . S
C902 H965 0.958 . S
C903 C900 1.530 . S
C903 H966 0.961 . S
C903 H967 0.960 . S
C903 H968 0.960 . S
C904 C905 1.530 . S
C904 H970 0.961 . S
C904 H971 0.961 . S
C904 H972 0.959 . S
C905 C904 1.530 . S
C905 O933 1.412 . S
C905 H969 0.980 . S
C906 C907 1.288 . S
C906 C911 1.377 . S
C906 O933 1.393 . S
C907 C906 1.288 . S
C907 C908 1.369 . S
C907 H973 0.932 . S
C908 C907 1.369 . S
C908 C909 1.398 . S
C908 C912 1.527 . S
C909 C908 1.398 . S
C909 C910 1.380 . S
C909 C923 1.497 . S
C910 C909 1.380 . S
C910 C911 1.383 . S
C910 C913 1.603 . S
C911 C906 1.377 . S
C911 C910 1.383 . S
C911 H974 0.929 . S
C912 C908 1.527 . S
C912 H975 0.961 . S
C912 H976 0.959 . S
C912 H977 0.959 . S
C913 C910 1.603 . S
C913 H978 0.960 . S
C913 H979 0.962 . S
C913 H980 0.961 . S
C914 C881 1.587 . S
C914 C915 1.360 . S
C914 C927 1.412 . S
C915 C914 1.360 . S
C915 C916 1.365 . S
C915 H981 0.929 . S
C916 C891 1.553 . S
C916 C915 1.365 . S
C916 C917 1.404 . S
C917 C916 1.404 . S
C917 C918 1.395 . S
C917 C928 1.451 . S
C918 C917 1.395 . S
C918 C919 1.322 . S
C918 H982 0.930 . S
C919 C918 1.322 . S
C919 C920 1.459 . S
C919 H983 0.929 . S
C920 C919 1.459 . S
C920 C921 1.445 . S
C920 C929 1.395 . S
C921 C899 1.432 . S
C921 C920 1.445 . S
C921 C922 1.370 . S
C922 C921 1.370 . S
C922 C923 1.438 . S
C922 H984 0.930 . S
C923 C909 1.497 . S
C923 C922 1.438 . S
C923 C924 1.360 . S
C924 C923 1.360 . S
C924 C925 1.401 . S
C924 C929 1.446 . S
C925 C924 1.401 . S
C925 C926 1.347 . S
C925 H985 0.929 . S
C926 C925 1.347 . S
C926 C927 1.455 . S
C926 H986 0.930 . S
C927 C914 1.412 . S
C927 C926 1.455 . S
C927 C928 1.331 . S
C928 C917 1.451 . S
C928 C927 1.331 . S
C928 C929 1.497 . S
C929 C920 1.395 . S
C929 C924 1.446 . S
C929 C928 1.497 . S
C930 C931 1.582 . S
C930 H987 0.962 . S
C930 H988 0.959 . S
C930 H989 0.958 . S
C931 C930 1.582 . S
C931 O934 1.458 . S
C931 H960 0.980 . S
O932 C877 1.426 . S
O932 C878 1.334 . S
O933 C905 1.412 . S
O933 C906 1.393 . S
O934 C896 1.435 . S
O934 C931 1.458 . S
O935 C887 1.468 . S
O935 C888 1.408 . S
H936 C877 0.980 . S
H937 C876 0.959 . S
H938 C876 0.959 . S
H939 C876 0.960 . S
H940 C879 0.929 . S
H941 C883 0.929 . S
H942 C884 0.959 . S
H943 C884 0.961 . S
H944 C884 0.961 . S
H945 C885 0.960 . S
H946 C885 0.960 . S
H947 C885 0.961 . S
H948 C887 0.980 . S
H949 C886 0.961 . S
H950 C886 0.960 . S
H951 C886 0.959 . S
H952 C889 0.930 . S
H953 C893 0.931 . S
H954 C894 0.959 . S
H955 C894 0.961 . S
H956 C894 0.959 . S
H957 C895 0.960 . S
H958 C895 0.960 . S
H959 C895 0.960 . S
H960 C931 0.980 . S
H961 C897 0.930 . S
H962 C901 0.930 . S
H963 C902 0.961 . S
H964 C902 0.960 . S
H965 C902 0.958 . S
H966 C903 0.961 . S
H967 C903 0.960 . S
H968 C903 0.960 . S
H969 C905 0.980 . S
H970 C904 0.961 . S
H971 C904 0.961 . S
H972 C904 0.959 . S
H973 C907 0.932 . S
H974 C911 0.929 . S
H975 C912 0.961 . S
H976 C912 0.959 . S
H977 C912 0.959 . S
H978 C913 0.960 . S
H979 C913 0.962 . S
H980 C913 0.961 . S
H981 C915 0.929 . S
H982 C918 0.930 . S
H983 C919 0.929 . S
H984 C922 0.930 . S
H985 C925 0.929 . S
H986 C926 0.930 . S
H987 C930 0.962 . S
H988 C930 0.959 . S
H989 C930 0.958 . S
C990 C991 1.560 . S
C990 H1051 0.959 . S
C990 H1052 0.959 . S
C990 H1053 0.960 . S
C991 C990 1.560 . S
C991 O1046 1.426 . S
C991 H1050 0.980 . S
C992 C993 1.407 . S
C992 C997 1.418 . S
C992 O1046 1.334 . S
C993 C992 1.407 . S
C993 C994 1.360 . S
C993 H1054 0.929 . S
C994 C993 1.360 . S
C994 C995 1.401 . S
C994 C998 1.527 . S
C995 C994 1.401 . S
C995 C996 1.405 . S
C995 C1028 1.587 . S
C996 C995 1.405 . S
C996 C997 1.332 . S
C996 C999 1.496 . S
C997 C992 1.418 . S
C997 C996 1.332 . S
C997 H1055 0.929 . S
C998 C994 1.527 . S
C998 H1056 0.959 . S
C998 H1057 0.961 . S
C998 H1058 0.961 . S
C999 C996 1.496 . S
C999 H1059 0.960 . S
C999 H1060 0.960 . S
C999 H1061 0.961 . S
C1000 C1001 1.517 . S
C1000 H1063 0.961 . S
C1000 H1064 0.960 . S
C1000 H1065 0.959 . S
C1001 C1000 1.517 . S
C1001 O1049 1.468 . S
C1001 H1062 0.980 . S
C1002 C1003 1.349 . S
C1002 C1007 1.367 . S
C1002 O1049 1.408 . S
C1003 C1002 1.349 . S
C1003 C1004 1.407 . S
C1003 H1066 0.930 . S
C1004 C1003 1.407 . S
C1004 C1005 1.449 . S
C1004 C1008 1.535 . S
C1005 C1004 1.449 . S
C1005 C1006 1.384 . S
C1005 C1030 1.553 . S
C1006 C1005 1.384 . S
C1006 C1007 1.364 . S
C1006 C1009 1.450 . S
C1007 C1002 1.367 . S
C1007 C1006 1.364 . S
C1007 H1067 0.931 . S
C1008 C1004 1.535 . S
C1008 H1068 0.959 . S
C1008 H1069 0.961 . S
C1008 H1070 0.959 . S
C1009 C1006 1.450 . S
C1009 H1071 0.960 . S
C1009 H1072 0.960 . S
C1009 H1073 0.960 . S
C1010 C1011 1.309 . S
C1010 C1015 1.304 . S
C1010 O1048 1.435 . S
C1011 C1010 1.309 . S
C1011 C1012 1.476 . S
C1011 H1075 0.930 . S
C1012 C1011 1.476 . S
C1012 C1013 1.400 . S
C1012 C1016 1.567 . S
C1013 C1012 1.400 . S
C1013 C1014 1.373 . S
C1013 C1035 1.432 . S
C1014 C1013 1.373 . S
C1014 C1015 1.339 . S
C1014 C1017 1.530 . S
C1015 C1010 1.304 . S
C1015 C1014 1.339 . S
C1015 H1076 0.930 . S
C1016 C1012 1.567 . S
C1016 H1077 0.961 . S
C1016 H1078 0.960 . S
C1016 H1079 0.958 . S
C1017 C1014 1.530 . S
C1017 H1080 0.961 . S
C1017 H1081 0.960 . S
C1017 H1082 0.960 . S
C1018 C1019 1.530 . S
C1018 H1084 0.961 . S
C1018 H1085 0.961 . S
C1018 H1086 0.959 . S
C1019 C1018 1.530 . S
C1019 O1047 1.412 . S
C1019 H1083 0.980 . S
C1020 C1021 1.288 . S
C1020 C1025 1.377 . S
C1020 O1047 1.393 . S
C1021 C1020 1.288 . S
C1021 C1022 1.369 . S
C1021 H1087 0.932 . S
C1022 C1021 1.369 . S
C1022 C1023 1.398 . S
C1022 C1026 1.527 . S
C1023 C1022 1.398 . S
C1023 C1024 1.380 . S
C1023 C1037 1.497 . S
C1024 C1023 1.380 . S
C1024 C1025 1.383 . S
C1024 C1027 1.603 . S
C1025 C1020 1.377 . S
C1025 C1024 1.383 . S
C1025 H1088 0.929 . S
C1026 C1022 1.527 . S
C1026 H1089 0.961 . S
C1026 H1090 0.959 . S
C1026 H1091 0.959 . S
C1027 C1024 1.603 . S
C1027 H1092 0.960 . S
C1027 H1093 0.962 . S
C1027 H1094 0.961 . S
C1028 C995 1.587 . S
C1028 C1029 1.360 . S
C1028 C1041 1.412 . S
C1029 C1028 1.360 . S
C1029 C1030 1.365 . S
C1029 H1095 0.929 . S
C1030 C1005 1.553 . S
C1030 C1029 1.365 . S
C1030 C1031 1.404 . S
C1031 C1030 1.404 . S
C1031 C1032 1.395 . S
C1031 C1042 1.451 . S
C1032 C1031 1.395 . S
C1032 C1033 1.322 . S
C1032 H1096 0.930 . S
C1033 C1032 1.322 . S
C1033 C1034 1.459 . S
C1033 H1097 0.929 . S
C1034 C1033 1.459 . S
C1034 C1035 1.445 . S
C1034 C1043 1.395 . S
C1035 C1013 1.432 . S
C1035 C1034 1.445 . S
C1035 C1036 1.370 . S
C1036 C1035 1.370 . S
C1036 C1037 1.438 . S
C1036 H1098 0.930 . S
C1037 C1023 1.497 . S
C1037 C1036 1.438 . S
C1037 C1038 1.360 . S
C1038 C1037 1.360 . S
C1038 C1039 1.401 . S
C1038 C1043 1.446 . S
C1039 C1038 1.401 . S
C1039 C1040 1.347 . S
C1039 H1099 0.929 . S
C1040 C1039 1.347 . S
C1040 C1041 1.455 . S
C1040 H1100 0.930 . S
C1041 C1028 1.412 . S
C1041 C1040 1.455 . S
C1041 C1042 1.331 . S
C1042 C1031 1.451 . S
C1042 C1041 1.331 . S
C1042 C1043 1.497 . S
C1043 C1034 1.395 . S
C1043 C1038 1.446 . S
C1043 C1042 1.497 . S
C1044 C1045 1.582 . S
C1044 H1101 0.962 . S
C1044 H1102 0.959 . S
C1044 H1103 0.958 . S
C1045 C1044 1.582 . S
C1045 O1048 1.458 . S
C1045 H1074 0.980 . S
O1046 C991 1.426 . S
O1046 C992 1.334 . S
O1047 C1019 1.412 . S
O1047 C1020 1.393 . S
O1048 C1010 1.435 . S
O1048 C1045 1.458 . S
O1049 C1001 1.468 . S
O1049 C1002 1.408 . S
H1050 C991 0.980 . S
H1051 C990 0.959 . S
H1052 C990 0.959 . S
H1053 C990 0.960 . S
H1054 C993 0.929 . S
H1055 C997 0.929 . S
H1056 C998 0.959 . S
H1057 C998 0.961 . S
H1058 C998 0.961 . S
H1059 C999 0.960 . S
H1060 C999 0.960 . S
H1061 C999 0.961 . S
H1062 C1001 0.980 . S
H1063 C1000 0.961 . S
H1064 C1000 0.960 . S
H1065 C1000 0.959 . S
H1066 C1003 0.930 . S
H1067 C1007 0.931 . S
H1068 C1008 0.959 . S
H1069 C1008 0.961 . S
H1070 C1008 0.959 . S
H1071 C1009 0.960 . S
H1072 C1009 0.960 . S
H1073 C1009 0.960 . S
H1074 C1045 0.980 . S
H1075 C1011 0.930 . S
H1076 C1015 0.930 . S
H1077 C1016 0.961 . S
H1078 C1016 0.960 . S
H1079 C1016 0.958 . S
H1080 C1017 0.961 . S
H1081 C1017 0.960 . S
H1082 C1017 0.960 . S
H1083 C1019 0.980 . S
H1084 C1018 0.961 . S
H1085 C1018 0.961 . S
H1086 C1018 0.959 . S
H1087 C1021 0.932 . S
H1088 C1025 0.929 . S
H1089 C1026 0.961 . S
H1090 C1026 0.959 . S
H1091 C1026 0.959 . S
H1092 C1027 0.960 . S
H1093 C1027 0.962 . S
H1094 C1027 0.961 . S
H1095 C1029 0.929 . S
H1096 C1032 0.930 . S
H1097 C1033 0.929 . S
H1098 C1036 0.930 . S
H1099 C1039 0.929 . S
H1100 C1040 0.930 . S
H1101 C1044 0.962 . S
H1102 C1044 0.959 . S
H1103 C1044 0.958 . S
C1104 C1105 1.560 . S
C1104 H1165 0.959 . S
C1104 H1166 0.959 . S
C1104 H1167 0.960 . S
C1105 C1104 1.560 . S
C1105 O1160 1.426 . S
C1105 H1164 0.980 . S
C1106 C1107 1.407 . S
C1106 C1111 1.418 . S
C1106 O1160 1.334 . S
C1107 C1106 1.407 . S
C1107 C1108 1.360 . S
C1107 H1168 0.929 . S
C1108 C1107 1.360 . S
C1108 C1109 1.401 . S
C1108 C1112 1.527 . S
C1109 C1108 1.401 . S
C1109 C1110 1.405 . S
C1109 C1142 1.587 . S
C1110 C1109 1.405 . S
C1110 C1111 1.332 . S
C1110 C1113 1.496 . S
C1111 C1106 1.418 . S
C1111 C1110 1.332 . S
C1111 H1169 0.929 . S
C1112 C1108 1.527 . S
C1112 H1170 0.959 . S
C1112 H1171 0.961 . S
C1112 H1172 0.961 . S
C1113 C1110 1.496 . S
C1113 H1173 0.960 . S
C1113 H1174 0.960 . S
C1113 H1175 0.961 . S
C1114 C1115 1.517 . S
C1114 H1177 0.961 . S
C1114 H1178 0.960 . S
C1114 H1179 0.959 . S
C1115 C1114 1.517 . S
C1115 O1163 1.468 . S
C1115 H1176 0.980 . S
C1116 C1117 1.349 . S
C1116 C1121 1.367 . S
C1116 O1163 1.408 . S
C1117 C1116 1.349 . S
C1117 C1118 1.407 . S
C1117 H1180 0.930 . S
C1118 C1117 1.407 . S
C1118 C1119 1.449 . S
C1118 C1122 1.535 . S
C1119 C1118 1.449 . S
C1119 C1120 1.384 . S
C1119 C1144 1.553 . S
C1120 C1119 1.384 . S
C1120 C1121 1.364 . S
C1120 C1123 1.450 . S
C1121 C1116 1.367 . S
C1121 C1120 1.364 . S
C1121 H1181 0.931 . S
C1122 C1118 1.535 . S
C1122 H1182 0.959 . S
C1122 H1183 0.961 . S
C1122 H1184 0.959 . S
C1123 C1120 1.450 . S
C1123 H1185 0.960 . S
C1123 H1186 0.960 . S
C1123 H1187 0.960 . S
C1124 C1125 1.309 . S
C1124 C1129 1.304 . S
C1124 O1162 1.435 . S
C1125 C1124 1.309 . S
C1125 C1126 1.476 . S
C1125 H1189 0.930 . S
C1126 C1125 1.476 . S
C1126 C1127 1.400 . S
C1126 C1130 1.567 . S
C1127 C1126 1.400 . S
C1127 C1128 1.373 . S
C1127 C1149 1.432 . S
C1128 C1127 1.373 . S
C1128 C1129 1.339 . S
C1128 C1131 1.530 . S
C1129 C1124 1.304 . S
C1129 C1128 1.339 . S
C1129 H1190 0.930 . S
C1130 C1126 1.567 . S
C1130 H1191 0.961 . S
C1130 H1192 0.960 . S
C1130 H1193 0.958 . S
C1131 C1128 1.530 . S
C1131 H1194 0.961 . S
C1131 H1195 0.960 . S
C1131 H1196 0.960 . S
C1132 C1133 1.530 . S
C1132 H1198 0.961 . S
C1132 H1199 0.961 . S
C1132 H1200 0.959 . S
C1133 C1132 1.530 . S
C1133 O1161 1.412 . S
C1133 H1197 0.980 . S
C1134 C1135 1.288 . S
C1134 C1139 1.377 . S
C1134 O1161 1.393 . S
C1135 C1134 1.288 . S
C1135 C1136 1.369 . S
C1135 H1201 0.932 . S
C1136 C1135 1.369 . S
C1136 C1137 1.398 . S
C1136 C1140 1.527 . S
C1137 C1136 1.398 . S
C1137 C1138 1.380 . S
C1137 C1151 1.497 . S
C1138 C1137 1.380 . S
C1138 C1139 1.383 . S
C1138 C1141 1.603 . S
C1139 C1134 1.377 . S
C1139 C1138 1.383 . S
C1139 H1202 0.929 . S
C1140 C1136 1.527 . S
C1140 H1203 0.961 . S
C1140 H1204 0.959 . S
C1140 H1205 0.959 . S
C1141 C1138 1.603 . S
C1141 H1206 0.960 . S
C1141 H1207 0.962 . S
C1141 H1208 0.961 . S
C1142 C1109 1.587 . S
C1142 C1143 1.360 . S
C1142 C1155 1.412 . S
C1143 C1142 1.360 . S
C1143 C1144 1.365 . S
C1143 H1209 0.929 . S
C1144 C1119 1.553 . S
C1144 C1143 1.365 . S
C1144 C1145 1.404 . S
C1145 C1144 1.404 . S
C1145 C1146 1.395 . S
C1145 C1156 1.451 . S
C1146 C1145 1.395 . S
C1146 C1147 1.322 . S
C1146 H1210 0.930 . S
C1147 C1146 1.322 . S
C1147 C1148 1.459 . S
C1147 H1211 0.929 . S
C1148 C1147 1.459 . S
C1148 C1149 1.445 . S
C1148 C1157 1.395 . S
C1149 C1127 1.432 . S
C1149 C1148 1.445 . S
C1149 C1150 1.370 . S
C1150 C1149 1.370 . S
C1150 C1151 1.438 . S
C1150 H1212 0.930 . S
C1151 C1137 1.497 . S
C1151 C1150 1.438 . S
C1151 C1152 1.360 . S
C1152 C1151 1.360 . S
C1152 C1153 1.401 . S
C1152 C1157 1.446 . S
C1153 C1152 1.401 . S
C1153 C1154 1.347 . S
C1153 H1213 0.929 . S
C1154 C1153 1.347 . S
C1154 C1155 1.455 . S
C1154 H1214 0.930 . S
C1155 C1142 1.412 . S
C1155 C1154 1.455 . S
C1155 C1156 1.331 . S
C1156 C1145 1.451 . S
C1156 C1155 1.331 . S
C1156 C1157 1.497 . S
C1157 C1148 1.395 . S
C1157 C1152 1.446 . S
C1157 C1156 1.497 . S
C1158 C1159 1.582 . S
C1158 H1215 0.962 . S
C1158 H1216 0.959 . S
C1158 H1217 0.958 . S
C1159 C1158 1.582 . S
C1159 O1162 1.458 . S
C1159 H1188 0.980 . S
O1160 C1105 1.426 . S
O1160 C1106 1.334 . S
O1161 C1133 1.412 . S
O1161 C1134 1.393 . S
O1162 C1124 1.435 . S
O1162 C1159 1.458 . S
O1163 C1115 1.468 . S
O1163 C1116 1.408 . S
H1164 C1105 0.980 . S
H1165 C1104 0.959 . S
H1166 C1104 0.959 . S
H1167 C1104 0.960 . S
H1168 C1107 0.929 . S
H1169 C1111 0.929 . S
H1170 C1112 0.959 . S
H1171 C1112 0.961 . S
H1172 C1112 0.961 . S
H1173 C1113 0.960 . S
H1174 C1113 0.960 . S
H1175 C1113 0.961 . S
H1176 C1115 0.980 . S
H1177 C1114 0.961 . S
H1178 C1114 0.960 . S
H1179 C1114 0.959 . S
H1180 C1117 0.930 . S
H1181 C1121 0.931 . S
H1182 C1122 0.959 . S
H1183 C1122 0.961 . S
H1184 C1122 0.959 . S
H1185 C1123 0.960 . S
H1186 C1123 0.960 . S
H1187 C1123 0.960 . S
H1188 C1159 0.980 . S
H1189 C1125 0.930 . S
H1190 C1129 0.930 . S
H1191 C1130 0.961 . S
H1192 C1130 0.960 . S
H1193 C1130 0.958 . S
H1194 C1131 0.961 . S
H1195 C1131 0.960 . S
H1196 C1131 0.960 . S
H1197 C1133 0.980 . S
H1198 C1132 0.961 . S
H1199 C1132 0.961 . S
H1200 C1132 0.959 . S
H1201 C1135 0.932 . S
H1202 C1139 0.929 . S
H1203 C1140 0.961 . S
H1204 C1140 0.959 . S
H1205 C1140 0.959 . S
H1206 C1141 0.960 . S
H1207 C1141 0.962 . S
H1208 C1141 0.961 . S
H1209 C1143 0.929 . S
H1210 C1146 0.930 . S
H1211 C1147 0.929 . S
H1212 C1150 0.930 . S
H1213 C1153 0.929 . S
H1214 C1154 0.930 . S
H1215 C1158 0.962 . S
H1216 C1158 0.959 . S
H1217 C1158 0.958 . S
C1218 C1219 1.560 . S
C1218 H1279 0.959 . S
C1218 H1280 0.959 . S
C1218 H1281 0.960 . S
C1219 C1218 1.560 . S
C1219 O1274 1.426 . S
C1219 H1278 0.980 . S
C1220 C1221 1.407 . S
C1220 C1225 1.418 . S
C1220 O1274 1.334 . S
C1221 C1220 1.407 . S
C1221 C1222 1.360 . S
C1221 H1282 0.929 . S
C1222 C1221 1.360 . S
C1222 C1223 1.401 . S
C1222 C1226 1.527 . S
C1223 C1222 1.401 . S
C1223 C1224 1.405 . S
C1223 C1256 1.587 . S
C1224 C1223 1.405 . S
C1224 C1225 1.332 . S
C1224 C1227 1.496 . S
C1225 C1220 1.418 . S
C1225 C1224 1.332 . S
C1225 H1283 0.929 . S
C1226 C1222 1.527 . S
C1226 H1284 0.959 . S
C1226 H1285 0.961 . S
C1226 H1286 0.961 . S
C1227 C1224 1.496 . S
C1227 H1287 0.960 . S
C1227 H1288 0.960 . S
C1227 H1289 0.961 . S
C1228 C1229 1.517 . S
C1228 H1291 0.961 . S
C1228 H1292 0.960 . S
C1228 H1293 0.959 . S
C1229 C1228 1.517 . S
C1229 O1277 1.468 . S
C1229 H1290 0.980 . S
C1230 C1231 1.349 . S
C1230 C1235 1.367 . S
C1230 O1277 1.408 . S
C1231 C1230 1.349 . S
C1231 C1232 1.407 . S
C1231 H1294 0.930 . S
C1232 C1231 1.407 . S
C1232 C1233 1.449 . S
C1232 C1236 1.535 . S
C1233 C1232 1.449 . S
C1233 C1234 1.384 . S
C1233 C1258 1.553 . S
C1234 C1233 1.384 . S
C1234 C1235 1.364 . S
C1234 C1237 1.450 . S
C1235 C1230 1.367 . S
C1235 C1234 1.364 . S
C1235 H1295 0.931 . S
C1236 C1232 1.535 . S
C1236 H1296 0.959 . S
C1236 H1297 0.961 . S
C1236 H1298 0.959 . S
C1237 C1234 1.450 . S
C1237 H1299 0.960 . S
C1237 H1300 0.960 . S
C1237 H1301 0.960 . S
C1238 C1239 1.309 . S
C1238 C1243 1.304 . S
C1238 O1276 1.435 . S
C1239 C1238 1.309 . S
C1239 C1240 1.476 . S
C1239 H1303 0.930 . S
C1240 C1239 1.476 . S
C1240 C1241 1.400 . S
C1240 C1244 1.567 . S
C1241 C1240 1.400 . S
C1241 C1242 1.373 . S
C1241 C1263 1.432 . S
C1242 C1241 1.373 . S
C1242 C1243 1.339 . S
C1242 C1245 1.530 . S
C1243 C1238 1.304 . S
C1243 C1242 1.339 . S
C1243 H1304 0.930 . S
C1244 C1240 1.567 . S
C1244 H1305 0.961 . S
C1244 H1306 0.960 . S
C1244 H1307 0.958 . S
C1245 C1242 1.530 . S
C1245 H1308 0.961 . S
C1245 H1309 0.960 . S
C1245 H1310 0.960 . S
C1246 C1247 1.530 . S
C1246 H1312 0.961 . S
C1246 H1313 0.961 . S
C1246 H1314 0.959 . S
C1247 C1246 1.530 . S
C1247 O1275 1.412 . S
C1247 H1311 0.980 . S
C1248 C1249 1.288 . S
C1248 C1253 1.377 . S
C1248 O1275 1.393 . S
C1249 C1248 1.288 . S
C1249 C1250 1.369 . S
C1249 H1315 0.932 . S
C1250 C1249 1.369 . S
C1250 C1251 1.398 . S
C1250 C1254 1.527 . S
C1251 C1250 1.398 . S
C1251 C1252 1.380 . S
C1251 C1265 1.497 . S
C1252 C1251 1.380 . S
C1252 C1253 1.383 . S
C1252 C1255 1.603 . S
C1253 C1248 1.377 . S
C1253 C1252 1.383 . S
C1253 H1316 0.929 . S
C1254 C1250 1.527 . S
C1254 H1317 0.961 . S
C1254 H1318 0.959 . S
C1254 H1319 0.959 . S
C1255 C1252 1.603 . S
C1255 H1320 0.960 . S
C1255 H1321 0.962 . S
C1255 H1322 0.961 . S
C1256 C1223 1.587 . S
C1256 C1257 1.360 . S
C1256 C1269 1.412 . S
C1257 C1256 1.360 . S
C1257 C1258 1.365 . S
C1257 H1323 0.929 . S
C1258 C1233 1.553 . S
C1258 C1257 1.365 . S
C1258 C1259 1.404 . S
C1259 C1258 1.404 . S
C1259 C1260 1.395 . S
C1259 C1270 1.451 . S
C1260 C1259 1.395 . S
C1260 C1261 1.322 . S
C1260 H1324 0.930 . S
C1261 C1260 1.322 . S
C1261 C1262 1.459 . S
C1261 H1325 0.929 . S
C1262 C1261 1.459 . S
C1262 C1263 1.445 . S
C1262 C1271 1.395 . S
C1263 C1241 1.432 . S
C1263 C1262 1.445 . S
C1263 C1264 1.370 . S
C1264 C1263 1.370 . S
C1264 C1265 1.438 . S
C1264 H1326 0.930 . S
C1265 C1251 1.497 . S
C1265 C1264 1.438 . S
C1265 C1266 1.360 . S
C1266 C1265 1.360 . S
C1266 C1267 1.401 . S
C1266 C1271 1.446 . S
C1267 C1266 1.401 . S
C1267 C1268 1.347 . S
C1267 H1327 0.929 . S
C1268 C1267 1.347 . S
C1268 C1269 1.455 . S
C1268 H1328 0.930 . S
C1269 C1256 1.412 . S
C1269 C1268 1.455 . S
C1269 C1270 1.331 . S
C1270 C1259 1.451 . S
C1270 C1269 1.331 . S
C1270 C1271 1.497 . S
C1271 C1262 1.395 . S
C1271 C1266 1.446 . S
C1271 C1270 1.497 . S
C1272 C1273 1.582 . S
C1272 H1329 0.962 . S
C1272 H1330 0.959 . S
C1272 H1331 0.958 . S
C1273 C1272 1.582 . S
C1273 O1276 1.458 . S
C1273 H1302 0.980 . S
O1274 C1219 1.426 . S
O1274 C1220 1.334 . S
O1275 C1247 1.412 . S
O1275 C1248 1.393 . S
O1276 C1238 1.435 . S
O1276 C1273 1.458 . S
O1277 C1229 1.468 . S
O1277 C1230 1.408 . S
H1278 C1219 0.980 . S
H1279 C1218 0.959 . S
H1280 C1218 0.959 . S
H1281 C1218 0.960 . S
H1282 C1221 0.929 . S
H1283 C1225 0.929 . S
H1284 C1226 0.959 . S
H1285 C1226 0.961 . S
H1286 C1226 0.961 . S
H1287 C1227 0.960 . S
H1288 C1227 0.960 . S
H1289 C1227 0.961 . S
H1290 C1229 0.980 . S
H1291 C1228 0.961 . S
H1292 C1228 0.960 . S
H1293 C1228 0.959 . S
H1294 C1231 0.930 . S
H1295 C1235 0.931 . S
H1296 C1236 0.959 . S
H1297 C1236 0.961 . S
H1298 C1236 0.959 . S
H1299 C1237 0.960 . S
H1300 C1237 0.960 . S
H1301 C1237 0.960 . S
H1302 C1273 0.980 . S
H1303 C1239 0.930 . S
H1304 C1243 0.930 . S
H1305 C1244 0.961 . S
H1306 C1244 0.960 . S
H1307 C1244 0.958 . S
H1308 C1245 0.961 . S
H1309 C1245 0.960 . S
H1310 C1245 0.960 . S
H1311 C1247 0.980 . S
H1312 C1246 0.961 . S
H1313 C1246 0.961 . S
H1314 C1246 0.959 . S
H1315 C1249 0.932 . S
H1316 C1253 0.929 . S
H1317 C1254 0.961 . S
H1318 C1254 0.959 . S
H1319 C1254 0.959 . S
H1320 C1255 0.960 . S
H1321 C1255 0.962 . S
H1322 C1255 0.961 . S
H1323 C1257 0.929 . S
H1324 C1260 0.930 . S
H1325 C1261 0.929 . S
H1326 C1264 0.930 . S
H1327 C1267 0.929 . S
H1328 C1268 0.930 . S
H1329 C1272 0.962 . S
H1330 C1272 0.959 . S
H1331 C1272 0.958 . S
C1332 C1333 1.560 . S
C1332 H1393 0.959 . S
C1332 H1394 0.959 . S
C1332 H1395 0.960 . S
C1333 C1332 1.560 . S
C1333 O1388 1.426 . S
C1333 H1392 0.980 . S
C1334 C1335 1.407 . S
C1334 C1339 1.418 . S
C1334 O1388 1.334 . S
C1335 C1334 1.407 . S
C1335 C1336 1.360 . S
C1335 H1396 0.929 . S
C1336 C1335 1.360 . S
C1336 C1337 1.401 . S
C1336 C1340 1.527 . S
C1337 C1336 1.401 . S
C1337 C1338 1.405 . S
C1337 C1370 1.587 . S
C1338 C1337 1.405 . S
C1338 C1339 1.332 . S
C1338 C1341 1.496 . S
C1339 C1334 1.418 . S
C1339 C1338 1.332 . S
C1339 H1397 0.929 . S
C1340 C1336 1.527 . S
C1340 H1398 0.959 . S
C1340 H1399 0.961 . S
C1340 H1400 0.961 . S
C1341 C1338 1.496 . S
C1341 H1401 0.960 . S
C1341 H1402 0.960 . S
C1341 H1403 0.961 . S
C1342 C1343 1.517 . S
C1342 H1405 0.961 . S
C1342 H1406 0.960 . S
C1342 H1407 0.959 . S
C1343 C1342 1.517 . S
C1343 O1391 1.468 . S
C1343 H1404 0.980 . S
C1344 C1345 1.349 . S
C1344 C1349 1.367 . S
C1344 O1391 1.408 . S
C1345 C1344 1.349 . S
C1345 C1346 1.407 . S
C1345 H1408 0.930 . S
C1346 C1345 1.407 . S
C1346 C1347 1.449 . S
C1346 C1350 1.535 . S
C1347 C1346 1.449 . S
C1347 C1348 1.384 . S
C1347 C1372 1.553 . S
C1348 C1347 1.384 . S
C1348 C1349 1.364 . S
C1348 C1351 1.450 . S
C1349 C1344 1.367 . S
C1349 C1348 1.364 . S
C1349 H1409 0.931 . S
C1350 C1346 1.535 . S
C1350 H1410 0.959 . S
C1350 H1411 0.961 . S
C1350 H1412 0.959 . S
C1351 C1348 1.450 . S
C1351 H1413 0.960 . S
C1351 H1414 0.960 . S
C1351 H1415 0.960 . S
C1352 C1353 1.309 . S
C1352 C1357 1.304 . S
C1352 O1390 1.435 . S
C1353 C1352 1.309 . S
C1353 C1354 1.476 . S
C1353 H1417 0.930 . S
C1354 C1353 1.476 . S
C1354 C1355 1.400 . S
C1354 C1358 1.567 . S
C1355 C1354 1.400 . S
C1355 C1356 1.373 . S
C1355 C1377 1.432 . S
C1356 C1355 1.373 . S
C1356 C1357 1.339 . S
C1356 C1359 1.530 . S
C1357 C1352 1.304 . S
C1357 C1356 1.339 . S
C1357 H1418 0.930 . S
C1358 C1354 1.567 . S
C1358 H1419 0.961 . S
C1358 H1420 0.960 . S
C1358 H1421 0.958 . S
C1359 C1356 1.530 . S
C1359 H1422 0.961 . S
C1359 H1423 0.960 . S
C1359 H1424 0.960 . S
C1360 C1361 1.530 . S
C1360 H1426 0.961 . S
C1360 H1427 0.961 . S
C1360 H1428 0.959 . S
C1361 C1360 1.530 . S
C1361 O1389 1.412 . S
C1361 H1425 0.980 . S
C1362 C1363 1.288 . S
C1362 C1367 1.377 . S
C1362 O1389 1.393 . S
C1363 C1362 1.288 . S
C1363 C1364 1.369 . S
C1363 H1429 0.932 . S
C1364 C1363 1.369 . S
C1364 C1365 1.398 . S
C1364 C1368 1.527 . S
C1365 C1364 1.398 . S
C1365 C1366 1.380 . S
C1365 C1379 1.497 . S
C1366 C1365 1.380 . S
C1366 C1367 1.383 . S
C1366 C1369 1.603 . S
C1367 C1362 1.377 . S
C1367 C1366 1.383 . S
C1367 H1430 0.929 . S
C1368 C1364 1.527 . S
C1368 H1431 0.961 . S
C1368 H1432 0.959 . S
C1368 H1433 0.959 . S
C1369 C1366 1.603 . S
C1369 H1434 0.960 . S
C1369 H1435 0.962 . S
C1369 H1436 0.961 . S
C1370 C1337 1.587 . S
C1370 C1371 1.360 . S
C1370 C1383 1.412 . S
C1371 C1370 1.360 . S
C1371 C1372 1.365 . S
C1371 H1437 0.929 . S
C1372 C1347 1.553 . S
C1372 C1371 1.365 . S
C1372 C1373 1.404 . S
C1373 C1372 1.404 . S
C1373 C1374 1.395 . S
C1373 C1384 1.451 . S
C1374 C1373 1.395 . S
C1374 C1375 1.322 . S
C1374 H1438 0.930 . S
C1375 C1374 1.322 . S
C1375 C1376 1.459 . S
C1375 H1439 0.929 . S
C1376 C1375 1.459 . S
C1376 C1377 1.445 . S
C1376 C1385 1.395 . S
C1377 C1355 1.432 . S
C1377 C1376 1.445 . S
C1377 C1378 1.370 . S
C1378 C1377 1.370 . S
C1378 C1379 1.438 . S
C1378 H1440 0.930 . S
C1379 C1365 1.497 . S
C1379 C1378 1.438 . S
C1379 C1380 1.360 . S
C1380 C1379 1.360 . S
C1380 C1381 1.401 . S
C1380 C1385 1.446 . S
C1381 C1380 1.401 . S
C1381 C1382 1.347 . S
C1381 H1441 0.929 . S
C1382 C1381 1.347 . S
C1382 C1383 1.455 . S
C1382 H1442 0.930 . S
C1383 C1370 1.412 . S
C1383 C1382 1.455 . S
C1383 C1384 1.331 . S
C1384 C1373 1.451 . S
C1384 C1383 1.331 . S
C1384 C1385 1.497 . S
C1385 C1376 1.395 . S
C1385 C1380 1.446 . S
C1385 C1384 1.497 . S
C1386 C1387 1.582 . S
C1386 H1443 0.962 . S
C1386 H1444 0.959 . S
C1386 H1445 0.958 . S
C1387 C1386 1.582 . S
C1387 O1390 1.458 . S
C1387 H1416 0.980 . S
O1388 C1333 1.426 . S
O1388 C1334 1.334 . S
O1389 C1361 1.412 . S
O1389 C1362 1.393 . S
O1390 C1352 1.435 . S
O1390 C1387 1.458 . S
O1391 C1343 1.468 . S
O1391 C1344 1.408 . S
H1392 C1333 0.980 . S
H1393 C1332 0.959 . S
H1394 C1332 0.959 . S
H1395 C1332 0.960 . S
H1396 C1335 0.929 . S
H1397 C1339 0.929 . S
H1398 C1340 0.959 . S
H1399 C1340 0.961 . S
H1400 C1340 0.961 . S
H1401 C1341 0.960 . S
H1402 C1341 0.960 . S
H1403 C1341 0.961 . S
H1404 C1343 0.980 . S
H1405 C1342 0.961 . S
H1406 C1342 0.960 . S
H1407 C1342 0.959 . S
H1408 C1345 0.930 . S
H1409 C1349 0.931 . S
H1410 C1350 0.959 . S
H1411 C1350 0.961 . S
H1412 C1350 0.959 . S
H1413 C1351 0.960 . S
H1414 C1351 0.960 . S
H1415 C1351 0.960 . S
H1416 C1387 0.980 . S
H1417 C1353 0.930 . S
H1418 C1357 0.930 . S
H1419 C1358 0.961 . S
H1420 C1358 0.960 . S
H1421 C1358 0.958 . S
H1422 C1359 0.961 . S
H1423 C1359 0.960 . S
H1424 C1359 0.960 . S
H1425 C1361 0.980 . S
H1426 C1360 0.961 . S
H1427 C1360 0.961 . S
H1428 C1360 0.959 . S
H1429 C1363 0.932 . S
H1430 C1367 0.929 . S
H1431 C1368 0.961 . S
H1432 C1368 0.959 . S
H1433 C1368 0.959 . S
H1434 C1369 0.960 . S
H1435 C1369 0.962 . S
H1436 C1369 0.961 . S
H1437 C1371 0.929 . S
H1438 C1374 0.930 . S
H1439 C1375 0.929 . S
H1440 C1378 0.930 . S
H1441 C1381 0.929 . S
H1442 C1382 0.930 . S
H1443 C1386 0.962 . S
H1444 C1386 0.959 . S
H1445 C1386 0.958 . S
C1446 C1447 1.560 . S
C1446 H1507 0.959 . S
C1446 H1508 0.959 . S
C1446 H1509 0.960 . S
C1447 C1446 1.560 . S
C1447 O1502 1.426 . S
C1447 H1506 0.980 . S
C1448 C1449 1.407 . S
C1448 C1453 1.418 . S
C1448 O1502 1.334 . S
C1449 C1448 1.407 . S
C1449 C1450 1.360 . S
C1449 H1510 0.929 . S
C1450 C1449 1.360 . S
C1450 C1451 1.401 . S
C1450 C1454 1.527 . S
C1451 C1450 1.401 . S
C1451 C1452 1.405 . S
C1451 C1484 1.587 . S
C1452 C1451 1.405 . S
C1452 C1453 1.332 . S
C1452 C1455 1.496 . S
C1453 C1448 1.418 . S
C1453 C1452 1.332 . S
C1453 H1511 0.929 . S
C1454 C1450 1.527 . S
C1454 H1512 0.959 . S
C1454 H1513 0.961 . S
C1454 H1514 0.961 . S
C1455 C1452 1.496 . S
C1455 H1515 0.960 . S
C1455 H1516 0.960 . S
C1455 H1517 0.961 . S
C1456 C1457 1.517 . S
C1456 H1519 0.961 . S
C1456 H1520 0.960 . S
C1456 H1521 0.959 . S
C1457 C1456 1.517 . S
C1457 O1505 1.468 . S
C1457 H1518 0.980 . S
C1458 C1459 1.349 . S
C1458 C1463 1.367 . S
C1458 O1505 1.408 . S
C1459 C1458 1.349 . S
C1459 C1460 1.407 . S
C1459 H1522 0.930 . S
C1460 C1459 1.407 . S
C1460 C1461 1.449 . S
C1460 C1464 1.535 . S
C1461 C1460 1.449 . S
C1461 C1462 1.384 . S
C1461 C1486 1.553 . S
C1462 C1461 1.384 . S
C1462 C1463 1.364 . S
C1462 C1465 1.450 . S
C1463 C1458 1.367 . S
C1463 C1462 1.364 . S
C1463 H1523 0.931 . S
C1464 C1460 1.535 . S
C1464 H1524 0.959 . S
C1464 H1525 0.961 . S
C1464 H1526 0.959 . S
C1465 C1462 1.450 . S
C1465 H1527 0.960 . S
C1465 H1528 0.960 . S
C1465 H1529 0.960 . S
C1466 C1467 1.309 . S
C1466 C1471 1.304 . S
C1466 O1504 1.435 . S
C1467 C1466 1.309 . S
C1467 C1468 1.476 . S
C1467 H1531 0.930 . S
C1468 C1467 1.476 . S
C1468 C1469 1.400 . S
C1468 C1472 1.567 . S
C1469 C1468 1.400 . S
C1469 C1470 1.373 . S
C1469 C1491 1.432 . S
C1470 C1469 1.373 . S
C1470 C1471 1.339 . S
C1470 C1473 1.530 . S
C1471 C1466 1.304 . S
C1471 C1470 1.339 . S
C1471 H1532 0.930 . S
C1472 C1468 1.567 . S
C1472 H1533 0.961 . S
C1472 H1534 0.960 . S
C1472 H1535 0.958 . S
C1473 C1470 1.530 . S
C1473 H1536 0.961 . S
C1473 H1537 0.960 . S
C1473 H1538 0.960 . S
C1474 C1475 1.530 . S
C1474 H1540 0.961 . S
C1474 H1541 0.961 . S
C1474 H1542 0.959 . S
C1475 C1474 1.530 . S
C1475 O1503 1.412 . S
C1475 H1539 0.980 . S
C1476 C1477 1.288 . S
C1476 C1481 1.377 . S
C1476 O1503 1.393 . S
C1477 C1476 1.288 . S
C1477 C1478 1.369 . S
C1477 H1543 0.932 . S
C1478 C1477 1.369 . S
C1478 C1479 1.398 . S
C1478 C1482 1.527 . S
C1479 C1478 1.398 . S
C1479 C1480 1.380 . S
C1479 C1493 1.497 . S
C1480 C1479 1.380 . S
C1480 C1481 1.383 . S
C1480 C1483 1.603 . S
C1481 C1476 1.377 . S
C1481 C1480 1.383 . S
C1481 H1544 0.929 . S
C1482 C1478 1.527 . S
C1482 H1545 0.961 . S
C1482 H1546 0.959 . S
C1482 H1547 0.959 . S
C1483 C1480 1.603 . S
C1483 H1548 0.960 . S
C1483 H1549 0.962 . S
C1483 H1550 0.961 . S
C1484 C1451 1.587 . S
C1484 C1485 1.360 . S
C1484 C1497 1.412 . S
C1485 C1484 1.360 . S
C1485 C1486 1.365 . S
C1485 H1551 0.929 . S
C1486 C1461 1.553 . S
C1486 C1485 1.365 . S
C1486 C1487 1.404 . S
C1487 C1486 1.404 . S
C1487 C1488 1.395 . S
C1487 C1498 1.451 . S
C1488 C1487 1.395 . S
C1488 C1489 1.322 . S
C1488 H1552 0.930 . S
C1489 C1488 1.322 . S
C1489 C1490 1.459 . S
C1489 H1553 0.929 . S
C1490 C1489 1.459 . S
C1490 C1491 1.445 . S
C1490 C1499 1.395 . S
C1491 C1469 1.432 . S
C1491 C1490 1.445 . S
C1491 C1492 1.370 . S
C1492 C1491 1.370 . S
C1492 C1493 1.438 . S
C1492 H1554 0.930 . S
C1493 C1479 1.497 . S
C1493 C1492 1.438 . S
C1493 C1494 1.360 . S
C1494 C1493 1.360 . S
C1494 C1495 1.401 . S
C1494 C1499 1.446 . S
C1495 C1494 1.401 . S
C1495 C1496 1.347 . S
C1495 H1555 0.929 . S
C1496 C1495 1.347 . S
C1496 C1497 1.455 . S
C1496 H1556 0.930 . S
C1497 C1484 1.412 . S
C1497 C1496 1.455 . S
C1497 C1498 1.331 . S
C1498 C1487 1.451 . S
C1498 C1497 1.331 . S
C1498 C1499 1.497 . S
C1499 C1490 1.395 . S
C1499 C1494 1.446 . S
C1499 C1498 1.497 . S
C1500 C1501 1.582 . S
C1500 H1557 0.962 . S
C1500 H1558 0.959 . S
C1500 H1559 0.958 . S
C1501 C1500 1.582 . S
C1501 O1504 1.458 . S
C1501 H1530 0.980 . S
O1502 C1447 1.426 . S
O1502 C1448 1.334 . S
O1503 C1475 1.412 . S
O1503 C1476 1.393 . S
O1504 C1466 1.435 . S
O1504 C1501 1.458 . S
O1505 C1457 1.468 . S
O1505 C1458 1.408 . S
H1506 C1447 0.980 . S
H1507 C1446 0.959 . S
H1508 C1446 0.959 . S
H1509 C1446 0.960 . S
H1510 C1449 0.929 . S
H1511 C1453 0.929 . S
H1512 C1454 0.959 . S
H1513 C1454 0.961 . S
H1514 C1454 0.961 . S
H1515 C1455 0.960 . S
H1516 C1455 0.960 . S
H1517 C1455 0.961 . S
H1518 C1457 0.980 . S
H1519 C1456 0.961 . S
H1520 C1456 0.960 . S
H1521 C1456 0.959 . S
H1522 C1459 0.930 . S
H1523 C1463 0.931 . S
H1524 C1464 0.959 . S
H1525 C1464 0.961 . S
H1526 C1464 0.959 . S
H1527 C1465 0.960 . S
H1528 C1465 0.960 . S
H1529 C1465 0.960 . S
H1530 C1501 0.980 . S
H1531 C1467 0.930 . S
H1532 C1471 0.930 . S
H1533 C1472 0.961 . S
H1534 C1472 0.960 . S
H1535 C1472 0.958 . S
H1536 C1473 0.961 . S
H1537 C1473 0.960 . S
H1538 C1473 0.960 . S
H1539 C1475 0.980 . S
H1540 C1474 0.961 . S
H1541 C1474 0.961 . S
H1542 C1474 0.959 . S
H1543 C1477 0.932 . S
H1544 C1481 0.929 . S
H1545 C1482 0.961 . S
H1546 C1482 0.959 . S
H1547 C1482 0.959 . S
H1548 C1483 0.960 . S
H1549 C1483 0.962 . S
H1550 C1483 0.961 . S
H1551 C1485 0.929 . S
H1552 C1488 0.930 . S
H1553 C1489 0.929 . S
H1554 C1492 0.930 . S
H1555 C1495 0.929 . S
H1556 C1496 0.930 . S
H1557 C1500 0.962 . S
H1558 C1500 0.959 . S
H1559 C1500 0.958 . S
C1560 C1561 1.560 . S
C1560 H1621 0.959 . S
C1560 H1622 0.959 . S
C1560 H1623 0.960 . S
C1561 C1560 1.560 . S
C1561 O1616 1.426 . S
C1561 H1620 0.980 . S
C1562 C1563 1.407 . S
C1562 C1567 1.418 . S
C1562 O1616 1.334 . S
C1563 C1562 1.407 . S
C1563 C1564 1.360 . S
C1563 H1624 0.929 . S
C1564 C1563 1.360 . S
C1564 C1565 1.401 . S
C1564 C1568 1.527 . S
C1565 C1564 1.401 . S
C1565 C1566 1.405 . S
C1565 C1598 1.587 . S
C1566 C1565 1.405 . S
C1566 C1567 1.332 . S
C1566 C1569 1.496 . S
C1567 C1562 1.418 . S
C1567 C1566 1.332 . S
C1567 H1625 0.929 . S
C1568 C1564 1.527 . S
C1568 H1626 0.959 . S
C1568 H1627 0.961 . S
C1568 H1628 0.961 . S
C1569 C1566 1.496 . S
C1569 H1629 0.960 . S
C1569 H1630 0.960 . S
C1569 H1631 0.961 . S
C1570 C1571 1.517 . S
C1570 H1633 0.961 . S
C1570 H1634 0.960 . S
C1570 H1635 0.959 . S
C1571 C1570 1.517 . S
C1571 O1619 1.468 . S
C1571 H1632 0.980 . S
C1572 C1573 1.349 . S
C1572 C1577 1.367 . S
C1572 O1619 1.408 . S
C1573 C1572 1.349 . S
C1573 C1574 1.407 . S
C1573 H1636 0.930 . S
C1574 C1573 1.407 . S
C1574 C1575 1.449 . S
C1574 C1578 1.535 . S
C1575 C1574 1.449 . S
C1575 C1576 1.384 . S
C1575 C1600 1.553 . S
C1576 C1575 1.384 . S
C1576 C1577 1.364 . S
C1576 C1579 1.450 . S
C1577 C1572 1.367 . S
C1577 C1576 1.364 . S
C1577 H1637 0.931 . S
C1578 C1574 1.535 . S
C1578 H1638 0.959 . S
C1578 H1639 0.961 . S
C1578 H1640 0.959 . S
C1579 C1576 1.450 . S
C1579 H1641 0.960 . S
C1579 H1642 0.960 . S
C1579 H1643 0.960 . S
C1580 C1581 1.309 . S
C1580 C1585 1.304 . S
C1580 O1618 1.435 . S
C1581 C1580 1.309 . S
C1581 C1582 1.476 . S
C1581 H1645 0.930 . S
C1582 C1581 1.476 . S
C1582 C1583 1.400 . S
C1582 C1586 1.567 . S
C1583 C1582 1.400 . S
C1583 C1584 1.373 . S
C1583 C1605 1.432 . S
C1584 C1583 1.373 . S
C1584 C1585 1.339 . S
C1584 C1587 1.530 . S
C1585 C1580 1.304 . S
C1585 C1584 1.339 . S
C1585 H1646 0.930 . S
C1586 C1582 1.567 . S
C1586 H1647 0.961 . S
C1586 H1648 0.960 . S
C1586 H1649 0.958 . S
C1587 C1584 1.530 . S
C1587 H1650 0.961 . S
C1587 H1651 0.960 . S
C1587 H1652 0.960 . S
C1588 C1589 1.530 . S
C1588 H1654 0.961 . S
C1588 H1655 0.961 . S
C1588 H1656 0.959 . S
C1589 C1588 1.530 . S
C1589 O1617 1.412 . S
C1589 H1653 0.980 . S
C1590 C1591 1.288 . S
C1590 C1595 1.377 . S
C1590 O1617 1.393 . S
C1591 C1590 1.288 . S
C1591 C1592 1.369 . S
C1591 H1657 0.932 . S
C1592 C1591 1.369 . S
C1592 C1593 1.398 . S
C1592 C1596 1.527 . S
C1593 C1592 1.398 . S
C1593 C1594 1.380 . S
C1593 C1607 1.497 . S
C1594 C1593 1.380 . S
C1594 C1595 1.383 . S
C1594 C1597 1.603 . S
C1595 C1590 1.377 . S
C1595 C1594 1.383 . S
C1595 H1658 0.929 . S
C1596 C1592 1.527 . S
C1596 H1659 0.961 . S
C1596 H1660 0.959 . S
C1596 H1661 0.959 . S
C1597 C1594 1.603 . S
C1597 H1662 0.960 . S
C1597 H1663 0.962 . S
C1597 H1664 0.961 . S
C1598 C1565 1.587 . S
C1598 C1599 1.360 . S
C1598 C1611 1.412 . S
C1599 C1598 1.360 . S
C1599 C1600 1.365 . S
C1599 H1665 0.929 . S
C1600 C1575 1.553 . S
C1600 C1599 1.365 . S
C1600 C1601 1.404 . S
C1601 C1600 1.404 . S
C1601 C1602 1.395 . S
C1601 C1612 1.451 . S
C1602 C1601 1.395 . S
C1602 C1603 1.322 . S
C1602 H1666 0.930 . S
C1603 C1602 1.322 . S
C1603 C1604 1.459 . S
C1603 H1667 0.929 . S
C1604 C1603 1.459 . S
C1604 C1605 1.445 . S
C1604 C1613 1.395 . S
C1605 C1583 1.432 . S
C1605 C1604 1.445 . S
C1605 C1606 1.370 . S
C1606 C1605 1.370 . S
C1606 C1607 1.438 . S
C1606 H1668 0.930 . S
C1607 C1593 1.497 . S
C1607 C1606 1.438 . S
C1607 C1608 1.360 . S
C1608 C1607 1.360 . S
C1608 C1609 1.401 . S
C1608 C1613 1.446 . S
C1609 C1608 1.401 . S
C1609 C1610 1.347 . S
C1609 H1669 0.929 . S
C1610 C1609 1.347 . S
C1610 C1611 1.455 . S
C1610 H1670 0.930 . S
C1611 C1598 1.412 . S
C1611 C1610 1.455 . S
C1611 C1612 1.331 . S
C1612 C1601 1.451 . S
C1612 C1611 1.331 . S
C1612 C1613 1.497 . S
C1613 C1604 1.395 . S
C1613 C1608 1.446 . S
C1613 C1612 1.497 . S
C1614 C1615 1.582 . S
C1614 H1671 0.962 . S
C1614 H1672 0.959 . S
C1614 H1673 0.958 . S
C1615 C1614 1.582 . S
C1615 O1618 1.458 . S
C1615 H1644 0.980 . S
O1616 C1561 1.426 . S
O1616 C1562 1.334 . S
O1617 C1589 1.412 . S
O1617 C1590 1.393 . S
O1618 C1580 1.435 . S
O1618 C1615 1.458 . S
O1619 C1571 1.468 . S
O1619 C1572 1.408 . S
H1620 C1561 0.980 . S
H1621 C1560 0.959 . S
H1622 C1560 0.959 . S
H1623 C1560 0.960 . S
H1624 C1563 0.929 . S
H1625 C1567 0.929 . S
H1626 C1568 0.959 . S
H1627 C1568 0.961 . S
H1628 C1568 0.961 . S
H1629 C1569 0.960 . S
H1630 C1569 0.960 . S
H1631 C1569 0.961 . S
H1632 C1571 0.980 . S
H1633 C1570 0.961 . S
H1634 C1570 0.960 . S
H1635 C1570 0.959 . S
H1636 C1573 0.930 . S
H1637 C1577 0.931 . S
H1638 C1578 0.959 . S
H1639 C1578 0.961 . S
H1640 C1578 0.959 . S
H1641 C1579 0.960 . S
H1642 C1579 0.960 . S
H1643 C1579 0.960 . S
H1644 C1615 0.980 . S
H1645 C1581 0.930 . S
H1646 C1585 0.930 . S
H1647 C1586 0.961 . S
H1648 C1586 0.960 . S
H1649 C1586 0.958 . S
H1650 C1587 0.961 . S
H1651 C1587 0.960 . S
H1652 C1587 0.960 . S
H1653 C1589 0.980 . S
H1654 C1588 0.961 . S
H1655 C1588 0.961 . S
H1656 C1588 0.959 . S
H1657 C1591 0.932 . S
H1658 C1595 0.929 . S
H1659 C1596 0.961 . S
H1660 C1596 0.959 . S
H1661 C1596 0.959 . S
H1662 C1597 0.960 . S
H1663 C1597 0.962 . S
H1664 C1597 0.961 . S
H1665 C1599 0.929 . S
H1666 C1602 0.930 . S
H1667 C1603 0.929 . S
H1668 C1606 0.930 . S
H1669 C1609 0.929 . S
H1670 C1610 0.930 . S
H1671 C1614 0.962 . S
H1672 C1614 0.959 . S
H1673 C1614 0.958 . S
C1674 C1675 1.560 . S
C1674 H1735 0.959 . S
C1674 H1736 0.959 . S
C1674 H1737 0.960 . S
C1675 C1674 1.560 . S
C1675 O1730 1.426 . S
C1675 H1734 0.980 . S
C1676 C1677 1.407 1_455 S
C1676 C1681 1.418 . S
C1676 O1730 1.334 . S
C1677 C1676 1.407 1_655 S
C1677 C1678 1.360 . S
C1677 H1738 0.929 . S
C1678 C1677 1.360 . S
C1678 C1679 1.401 1_655 S
C1678 C1682 1.527 . S
C1679 C1678 1.401 1_455 S
C1679 C1680 1.405 . S
C1679 C1712 1.587 1_455 S
C1680 C1679 1.405 . S
C1680 C1681 1.332 . S
C1680 C1683 1.496 . S
C1681 C1676 1.418 . S
C1681 C1680 1.332 . S
C1681 H1739 0.929 . S
C1682 C1678 1.527 . S
C1682 H1740 0.959 . S
C1682 H1741 0.961 . S
C1682 H1742 0.961 . S
C1683 C1680 1.496 . S
C1683 H1743 0.960 . S
C1683 H1744 0.960 . S
C1683 H1745 0.961 . S
C1684 C1685 1.517 . S
C1684 H1747 0.976 . S
C1684 H1748 0.960 . S
C1684 H1749 0.959 . S
C1685 C1684 1.517 . S
C1685 O1733 1.468 . S
C1685 H1746 0.980 1_655 S
C1686 C1687 1.349 . S
C1686 C1691 1.367 . S
C1686 O1733 1.408 . S
C1687 C1686 1.349 . S
C1687 C1688 1.407 1_655 S
C1687 H1750 0.930 1_655 S
C1688 C1687 1.407 1_455 S
C1688 C1689 1.449 1_455 S
C1688 C1692 1.535 . S
C1689 C1688 1.449 1_655 S
C1689 C1690 1.384 . S
C1689 C1714 1.553 . S
C1690 C1689 1.384 . S
C1690 C1691 1.364 . S
C1690 C1693 1.450 . S
C1691 C1686 1.367 . S
C1691 C1690 1.364 . S
C1691 H1751 0.931 . S
C1692 C1688 1.535 . S
C1692 H1752 0.959 . S
C1692 H1753 0.961 . S
C1692 H1754 0.959 . S
C1693 C1690 1.450 . S
C1693 H1755 0.960 . S
C1693 H1756 0.960 . S
C1693 H1757 0.960 . S
C1694 C1695 1.309 . S
C1694 C1699 1.304 . S
C1694 O1732 1.435 . S
C1695 C1694 1.309 . S
C1695 C1696 1.448 1_655 S
C1695 H1759 0.930 1_655 S
C1696 C1695 1.448 1_455 S
C1696 C1697 1.381 1_455 S
C1696 C1700 1.614 . S
C1697 C1696 1.381 1_655 S
C1697 C1698 1.373 . S
C1697 C1719 1.432 . S
C1698 C1697 1.373 . S
C1698 C1699 1.339 . S
C1698 C1701 1.530 . S
C1699 C1694 1.304 . S
C1699 C1698 1.339 . S
C1699 H1760 0.930 . S
C1700 C1696 1.614 . S
C1700 H1761 0.961 . S
C1700 H1762 0.960 . S
C1700 H1763 0.958 . S
C1701 C1698 1.530 . S
C1701 H1764 0.961 . S
C1701 H1765 0.960 . S
C1701 H1766 0.960 . S
C1702 C1703 1.509 1_455 S
C1702 H1768 0.961 . S
C1702 H1769 0.961 . S
C1702 H1770 0.959 . S
C1703 C1702 1.509 1_655 S
C1703 O1731 1.407 1_655 S
C1703 H1767 0.987 . S
C1704 C1705 1.288 . S
C1704 C1709 1.377 1_455 S
C1704 O1731 1.393 . S
C1705 C1704 1.288 . S
C1705 C1706 1.369 . S
C1705 H1771 0.932 . S
C1706 C1705 1.369 . S
C1706 C1707 1.398 1_455 S
C1706 C1710 1.527 . S
C1707 C1706 1.398 1_655 S
C1707 C1708 1.380 . S
C1707 C1721 1.497 . S
C1708 C1707 1.380 . S
C1708 C1709 1.383 . S
C1708 C1711 1.603 . S
C1709 C1704 1.377 1_655 S
C1709 C1708 1.383 . S
C1709 H1772 0.929 . S
C1710 C1706 1.527 . S
C1710 H1773 0.961 . S
C1710 H1774 0.959 . S
C1710 H1775 0.959 . S
C1711 C1708 1.603 . S
C1711 H1776 0.960 . S
C1711 H1777 0.962 . S
C1711 H1778 0.961 . S
C1712 C1679 1.587 1_655 S
C1712 C1713 1.360 . S
C1712 C1725 1.412 . S
C1713 C1712 1.360 . S
C1713 C1714 1.365 . S
C1713 H1779 0.929 . S
C1714 C1689 1.553 . S
C1714 C1713 1.365 . S
C1714 C1715 1.404 . S
C1715 C1714 1.404 . S
C1715 C1716 1.395 . S
C1715 C1726 1.451 . S
C1716 C1715 1.395 . S
C1716 C1717 1.322 . S
C1716 H1780 0.930 . S
C1717 C1716 1.322 . S
C1717 C1718 1.459 . S
C1717 H1781 0.929 . S
C1718 C1717 1.459 . S
C1718 C1719 1.445 . S
C1718 C1727 1.395 . S
C1719 C1697 1.432 . S
C1719 C1718 1.445 . S
C1719 C1720 1.370 . S
C1720 C1719 1.370 . S
C1720 C1721 1.438 . S
C1720 H1782 0.930 . S
C1721 C1707 1.497 . S
C1721 C1720 1.438 . S
C1721 C1722 1.360 . S
C1722 C1721 1.360 . S
C1722 C1723 1.401 . S
C1722 C1727 1.446 . S
C1723 C1722 1.401 . S
C1723 C1724 1.347 . S
C1723 H1783 0.929 . S
C1724 C1723 1.347 . S
C1724 C1725 1.455 . S
C1724 H1784 0.930 . S
C1725 C1712 1.412 . S
C1725 C1724 1.455 . S
C1725 C1726 1.331 . S
C1726 C1715 1.451 . S
C1726 C1725 1.331 . S
C1726 C1727 1.497 . S
C1727 C1718 1.395 . S
C1727 C1722 1.446 . S
C1727 C1726 1.497 . S
C1728 C1729 1.582 . S
C1728 H1785 0.962 . S
C1728 H1786 0.959 . S
C1728 H1787 0.958 . S
C1729 C1728 1.582 . S
C1729 O1732 1.458 . S
C1729 H1758 0.980 . S
O1730 C1675 1.426 . S
O1730 C1676 1.334 . S
O1731 C1703 1.407 1_455 S
O1731 C1704 1.393 . S
O1732 C1694 1.435 . S
O1732 C1729 1.458 . S
O1733 C1685 1.468 . S
O1733 C1686 1.408 . S
H1734 C1675 0.980 . S
H1735 C1674 0.959 . S
H1736 C1674 0.959 . S
H1737 C1674 0.960 . S
H1738 C1677 0.929 . S
H1739 C1681 0.929 . S
H1740 C1682 0.959 . S
H1741 C1682 0.961 . S
H1742 C1682 0.961 . S
H1743 C1683 0.960 . S
H1744 C1683 0.960 . S
H1745 C1683 0.961 . S
H1746 C1685 0.980 1_455 S
H1747 C1684 0.976 . S
H1748 C1684 0.960 . S
H1749 C1684 0.959 . S
H1750 C1687 0.930 1_455 S
H1751 C1691 0.931 . S
H1752 C1692 0.959 . S
H1753 C1692 0.961 . S
H1754 C1692 0.959 . S
H1755 C1693 0.960 . S
H1756 C1693 0.960 . S
H1757 C1693 0.960 . S
H1758 C1729 0.980 . S
H1759 C1695 0.930 1_455 S
H1760 C1699 0.930 . S
H1761 C1700 0.961 . S
H1762 C1700 0.960 . S
H1763 C1700 0.958 . S
H1764 C1701 0.961 . S
H1765 C1701 0.960 . S
H1766 C1701 0.960 . S
H1767 C1703 0.987 . S
H1768 C1702 0.961 . S
H1769 C1702 0.961 . S
H1770 C1702 0.959 . S
H1771 C1705 0.932 . S
H1772 C1709 0.929 . S
H1773 C1710 0.961 . S
H1774 C1710 0.959 . S
H1775 C1710 0.959 . S
H1776 C1711 0.960 . S
H1777 C1711 0.962 . S
H1778 C1711 0.961 . S
H1779 C1713 0.929 . S
H1780 C1716 0.930 . S
H1781 C1717 0.929 . S
H1782 C1720 0.930 . S
H1783 C1723 0.929 . S
H1784 C1724 0.930 . S
H1785 C1728 0.962 . S
H1786 C1728 0.959 . S
H1787 C1728 0.958 . S
C1788 C1789 1.560 . S
C1788 H1849 0.959 . S
C1788 H1850 0.959 . S
C1788 H1851 0.960 . S
C1789 C1788 1.560 . S
C1789 O1844 1.426 . S
C1789 H1848 0.980 . S
C1790 C1791 1.407 . S
C1790 C1795 1.418 . S
C1790 O1844 1.334 . S
C1791 C1790 1.407 . S
C1791 C1792 1.360 . S
C1791 H1852 0.929 . S
C1792 C1791 1.360 . S
C1792 C1793 1.401 . S
C1792 C1796 1.527 . S
C1793 C1792 1.401 . S
C1793 C1794 1.405 . S
C1793 C1826 1.587 . S
C1794 C1793 1.405 . S
C1794 C1795 1.332 . S
C1794 C1797 1.496 . S
C1795 C1790 1.418 . S
C1795 C1794 1.332 . S
C1795 H1853 0.929 . S
C1796 C1792 1.527 . S
C1796 H1854 0.959 . S
C1796 H1855 0.961 . S
C1796 H1856 0.961 . S
C1797 C1794 1.496 . S
C1797 H1857 0.960 . S
C1797 H1858 0.960 . S
C1797 H1859 0.961 . S
C1798 C1799 1.517 . S
C1798 H1861 0.961 . S
C1798 H1862 0.960 . S
C1798 H1863 0.959 . S
C1799 C1798 1.517 . S
C1799 O1847 1.468 . S
C1799 H1860 0.980 . S
C1800 C1801 1.349 . S
C1800 C1805 1.367 . S
C1800 O1847 1.408 . S
C1801 C1800 1.349 . S
C1801 C1802 1.407 . S
C1801 H1864 0.930 . S
C1802 C1801 1.407 . S
C1802 C1803 1.449 . S
C1802 C1806 1.535 . S
C1803 C1802 1.449 . S
C1803 C1804 1.384 . S
C1803 C1828 1.553 . S
C1804 C1803 1.384 . S
C1804 C1805 1.364 . S
C1804 C1807 1.450 . S
C1805 C1800 1.367 . S
C1805 C1804 1.364 . S
C1805 H1865 0.931 . S
C1806 C1802 1.535 . S
C1806 H1866 0.959 . S
C1806 H1867 0.961 . S
C1806 H1868 0.959 . S
C1807 C1804 1.450 . S
C1807 H1869 0.960 . S
C1807 H1870 0.960 . S
C1807 H1871 0.960 . S
C1808 C1809 1.309 . S
C1808 C1813 1.304 . S
C1808 O1846 1.435 . S
C1809 C1808 1.309 . S
C1809 C1810 1.476 . S
C1809 H1873 0.930 . S
C1810 C1809 1.476 . S
C1810 C1811 1.400 . S
C1810 C1814 1.567 . S
C1811 C1810 1.400 . S
C1811 C1812 1.373 . S
C1811 C1833 1.432 . S
C1812 C1811 1.373 . S
C1812 C1813 1.339 . S
C1812 C1815 1.530 . S
C1813 C1808 1.304 . S
C1813 C1812 1.339 . S
C1813 H1874 0.930 . S
C1814 C1810 1.567 . S
C1814 H1875 0.961 . S
C1814 H1876 0.960 . S
C1814 H1877 0.958 . S
C1815 C1812 1.530 . S
C1815 H1878 0.961 . S
C1815 H1879 0.960 . S
C1815 H1880 0.960 . S
C1816 C1817 1.530 . S
C1816 H1882 0.961 . S
C1816 H1883 0.961 . S
C1816 H1884 0.959 . S
C1817 C1816 1.530 . S
C1817 O1845 1.412 . S
C1817 H1881 0.980 . S
C1818 C1819 1.288 . S
C1818 C1823 1.377 . S
C1818 O1845 1.393 . S
C1819 C1818 1.288 . S
C1819 C1820 1.369 . S
C1819 H1885 0.932 . S
C1820 C1819 1.369 . S
C1820 C1821 1.398 . S
C1820 C1824 1.527 . S
C1821 C1820 1.398 . S
C1821 C1822 1.380 . S
C1821 C1835 1.497 . S
C1822 C1821 1.380 . S
C1822 C1823 1.383 . S
C1822 C1825 1.603 . S
C1823 C1818 1.377 . S
C1823 C1822 1.383 . S
C1823 H1886 0.929 . S
C1824 C1820 1.527 . S
C1824 H1887 0.961 . S
C1824 H1888 0.959 . S
C1824 H1889 0.959 . S
C1825 C1822 1.603 . S
C1825 H1890 0.960 . S
C1825 H1891 0.962 . S
C1825 H1892 0.961 . S
C1826 C1793 1.587 . S
C1826 C1827 1.360 . S
C1826 C1839 1.412 . S
C1827 C1826 1.360 . S
C1827 C1828 1.365 . S
C1827 H1893 0.929 . S
C1828 C1803 1.553 . S
C1828 C1827 1.365 . S
C1828 C1829 1.404 . S
C1829 C1828 1.404 . S
C1829 C1830 1.395 . S
C1829 C1840 1.451 . S
C1830 C1829 1.395 . S
C1830 C1831 1.322 . S
C1830 H1894 0.930 . S
C1831 C1830 1.322 . S
C1831 C1832 1.459 . S
C1831 H1895 0.929 . S
C1832 C1831 1.459 . S
C1832 C1833 1.445 . S
C1832 C1841 1.395 . S
C1833 C1811 1.432 . S
C1833 C1832 1.445 . S
C1833 C1834 1.370 . S
C1834 C1833 1.370 . S
C1834 C1835 1.438 . S
C1834 H1896 0.930 . S
C1835 C1821 1.497 . S
C1835 C1834 1.438 . S
C1835 C1836 1.360 . S
C1836 C1835 1.360 . S
C1836 C1837 1.401 . S
C1836 C1841 1.446 . S
C1837 C1836 1.401 . S
C1837 C1838 1.347 . S
C1837 H1897 0.929 . S
C1838 C1837 1.347 . S
C1838 C1839 1.455 . S
C1838 H1898 0.930 . S
C1839 C1826 1.412 . S
C1839 C1838 1.455 . S
C1839 C1840 1.331 . S
C1840 C1829 1.451 . S
C1840 C1839 1.331 . S
C1840 C1841 1.497 . S
C1841 C1832 1.395 . S
C1841 C1836 1.446 . S
C1841 C1840 1.497 . S
C1842 C1843 1.582 . S
C1842 H1899 0.962 . S
C1842 H1900 0.959 . S
C1842 H1901 0.958 . S
C1843 C1842 1.582 . S
C1843 O1846 1.458 . S
C1843 H1872 0.980 . S
O1844 C1789 1.426 . S
O1844 C1790 1.334 . S
O1845 C1817 1.412 . S
O1845 C1818 1.393 . S
O1846 C1808 1.435 . S
O1846 C1843 1.458 . S
O1847 C1799 1.468 . S
O1847 C1800 1.408 . S
H1848 C1789 0.980 . S
H1849 C1788 0.959 . S
H1850 C1788 0.959 . S
H1851 C1788 0.960 . S
H1852 C1791 0.929 . S
H1853 C1795 0.929 . S
H1854 C1796 0.959 . S
H1855 C1796 0.961 . S
H1856 C1796 0.961 . S
H1857 C1797 0.960 . S
H1858 C1797 0.960 . S
H1859 C1797 0.961 . S
H1860 C1799 0.980 . S
H1861 C1798 0.961 . S
H1862 C1798 0.960 . S
H1863 C1798 0.959 . S
H1864 C1801 0.930 . S
H1865 C1805 0.931 . S
H1866 C1806 0.959 . S
H1867 C1806 0.961 . S
H1868 C1806 0.959 . S
H1869 C1807 0.960 . S
H1870 C1807 0.960 . S
H1871 C1807 0.960 . S
H1872 C1843 0.980 . S
H1873 C1809 0.930 . S
H1874 C1813 0.930 . S
H1875 C1814 0.961 . S
H1876 C1814 0.960 . S
H1877 C1814 0.958 . S
H1878 C1815 0.961 . S
H1879 C1815 0.960 . S
H1880 C1815 0.960 . S
H1881 C1817 0.980 . S
H1882 C1816 0.961 . S
H1883 C1816 0.961 . S
H1884 C1816 0.959 . S
H1885 C1819 0.932 . S
H1886 C1823 0.929 . S
H1887 C1824 0.961 . S
H1888 C1824 0.959 . S
H1889 C1824 0.959 . S
H1890 C1825 0.960 . S
H1891 C1825 0.962 . S
H1892 C1825 0.961 . S
H1893 C1827 0.929 . S
H1894 C1830 0.930 . S
H1895 C1831 0.929 . S
H1896 C1834 0.930 . S
H1897 C1837 0.929 . S
H1898 C1838 0.930 . S
H1899 C1842 0.962 . S
H1900 C1842 0.959 . S
H1901 C1842 0.958 . S
C1902 C1903 1.560 . S
C1902 H1963 0.959 . S
C1902 H1964 0.959 . S
C1902 H1965 0.960 . S
C1903 C1902 1.560 . S
C1903 O1958 1.426 . S
C1903 H1962 0.980 . S
C1904 C1905 1.407 1_565 S
C1904 C1909 1.418 . S
C1904 O1958 1.334 . S
C1905 C1904 1.407 1_545 S
C1905 C1906 1.360 . S
C1905 H1966 0.929 . S
C1906 C1905 1.360 . S
C1906 C1907 1.401 1_545 S
C1906 C1910 1.527 . S
C1907 C1906 1.401 1_565 S
C1907 C1908 1.405 . S
C1907 C1940 1.587 1_565 S
C1908 C1907 1.405 . S
C1908 C1909 1.332 . S
C1908 C1911 1.496 . S
C1909 C1904 1.418 . S
C1909 C1908 1.332 . S
C1909 H1967 0.929 . S
C1910 C1906 1.527 . S
C1910 H1968 0.959 . S
C1910 H1969 0.961 . S
C1910 H1970 0.961 . S
C1911 C1908 1.496 . S
C1911 H1971 0.960 . S
C1911 H1972 0.960 . S
C1911 H1973 0.961 . S
C1912 C1913 1.517 . S
C1912 H1975 0.908 1_545 S
C1912 H1976 0.960 . S
C1912 H1977 0.959 . S
C1913 C1912 1.517 . S
C1913 O1961 1.468 . S
C1913 H1974 0.980 1_545 S
C1914 C1915 1.349 . S
C1914 C1919 1.367 . S
C1914 O1961 1.408 . S
C1915 C1914 1.349 . S
C1915 C1916 1.407 1_545 S
C1915 H1978 0.930 1_545 S
C1916 C1915 1.407 1_565 S
C1916 C1917 1.449 1_565 S
C1916 C1920 1.535 . S
C1917 C1916 1.449 1_545 S
C1917 C1918 1.384 . S
C1917 C1942 1.553 . S
C1918 C1917 1.384 . S
C1918 C1919 1.364 . S
C1918 C1921 1.450 . S
C1919 C1914 1.367 . S
C1919 C1918 1.364 . S
C1919 H1979 0.931 . S
C1920 C1916 1.535 . S
C1920 H1980 0.959 . S
C1920 H1981 0.961 . S
C1920 H1982 0.959 . S
C1921 C1918 1.450 . S
C1921 H1983 0.960 . S
C1921 H1984 0.960 . S
C1921 H1985 0.960 . S
C1922 C1923 1.309 . S
C1922 C1927 1.304 . S
C1922 O1960 1.435 . S
C1923 C1922 1.309 . S
C1923 C1924 1.485 1_545 S
C1923 H1987 0.930 1_545 S
C1924 C1923 1.485 1_565 S
C1924 C1925 1.369 1_565 S
C1924 C1928 1.589 . S
C1925 C1924 1.369 1_545 S
C1925 C1926 1.373 . S
C1925 C1947 1.432 . S
C1926 C1925 1.373 . S
C1926 C1927 1.339 . S
C1926 C1929 1.530 . S
C1927 C1922 1.304 . S
C1927 C1926 1.339 . S
C1927 H1988 0.930 . S
C1928 C1924 1.589 . S
C1928 H1989 0.961 . S
C1928 H1990 0.960 . S
C1928 H1991 0.958 . S
C1929 C1926 1.530 . S
C1929 H1992 0.961 . S
C1929 H1993 0.960 . S
C1929 H1994 0.960 . S
C1930 C1931 1.530 1_565 S
C1930 H1996 0.961 . S
C1930 H1997 0.961 . S
C1930 H1998 0.959 . S
C1931 C1930 1.530 1_545 S
C1931 O1959 1.412 1_545 S
C1931 H1995 0.980 . S
C1932 C1933 1.288 . S
C1932 C1937 1.377 1_565 S
C1932 O1959 1.393 . S
C1933 C1932 1.288 . S
C1933 C1934 1.369 . S
C1933 H1999 0.932 . S
C1934 C1933 1.369 . S
C1934 C1935 1.398 1_565 S
C1934 C1938 1.527 . S
C1935 C1934 1.398 1_545 S
C1935 C1936 1.380 . S
C1935 C1949 1.497 . S
C1936 C1935 1.380 . S
C1936 C1937 1.383 . S
C1936 C1939 1.603 . S
C1937 C1932 1.377 1_545 S
C1937 C1936 1.383 . S
C1937 H2000 0.929 . S
C1938 C1934 1.527 . S
C1938 H2001 0.961 . S
C1938 H2002 0.959 . S
C1938 H2003 0.959 . S
C1939 C1936 1.603 . S
C1939 H2004 0.960 . S
C1939 H2005 0.962 . S
C1939 H2006 0.961 . S
C1940 C1907 1.587 1_545 S
C1940 C1941 1.360 . S
C1940 C1953 1.412 . S
C1941 C1940 1.360 . S
C1941 C1942 1.365 . S
C1941 H2007 0.929 . S
C1942 C1917 1.553 . S
C1942 C1941 1.365 . S
C1942 C1943 1.404 . S
C1943 C1942 1.404 . S
C1943 C1944 1.395 . S
C1943 C1954 1.451 . S
C1944 C1943 1.395 . S
C1944 C1945 1.322 . S
C1944 H2008 0.930 . S
C1945 C1944 1.322 . S
C1945 C1946 1.459 . S
C1945 H2009 0.929 . S
C1946 C1945 1.459 . S
C1946 C1947 1.445 . S
C1946 C1955 1.395 . S
C1947 C1925 1.432 . S
C1947 C1946 1.445 . S
C1947 C1948 1.370 . S
C1948 C1947 1.370 . S
C1948 C1949 1.438 . S
C1948 H2010 0.930 . S
C1949 C1935 1.497 . S
C1949 C1948 1.438 . S
C1949 C1950 1.360 . S
C1950 C1949 1.360 . S
C1950 C1951 1.401 . S
C1950 C1955 1.446 . S
C1951 C1950 1.401 . S
C1951 C1952 1.347 . S
C1951 H2011 0.929 . S
C1952 C1951 1.347 . S
C1952 C1953 1.455 . S
C1952 H2012 0.930 . S
C1953 C1940 1.412 . S
C1953 C1952 1.455 . S
C1953 C1954 1.331 . S
C1954 C1943 1.451 . S
C1954 C1953 1.331 . S
C1954 C1955 1.497 . S
C1955 C1946 1.395 . S
C1955 C1950 1.446 . S
C1955 C1954 1.497 . S
C1956 C1957 1.582 . S
C1956 H2013 0.962 . S
C1956 H2014 0.959 . S
C1956 H2015 0.958 . S
C1957 C1956 1.582 . S
C1957 O1960 1.458 . S
C1957 H1986 0.980 . S
O1958 C1903 1.426 . S
O1958 C1904 1.334 . S
O1959 C1931 1.412 1_565 S
O1959 C1932 1.393 . S
O1960 C1922 1.435 . S
O1960 C1957 1.458 . S
O1961 C1913 1.468 . S
O1961 C1914 1.408 . S
H1962 C1903 0.980 . S
H1963 C1902 0.959 . S
H1964 C1902 0.959 . S
H1965 C1902 0.960 . S
H1966 C1905 0.929 . S
H1967 C1909 0.929 . S
H1968 C1910 0.959 . S
H1969 C1910 0.961 . S
H1970 C1910 0.961 . S
H1971 C1911 0.960 . S
H1972 C1911 0.960 . S
H1973 C1911 0.961 . S
H1974 C1913 0.980 1_565 S
H1975 C1912 0.908 1_565 S
H1976 C1912 0.960 . S
H1977 C1912 0.959 . S
H1978 C1915 0.930 1_565 S
H1979 C1919 0.931 . S
H1980 C1920 0.959 . S
H1981 C1920 0.961 . S
H1982 C1920 0.959 . S
H1983 C1921 0.960 . S
H1984 C1921 0.960 . S
H1985 C1921 0.960 . S
H1986 C1957 0.980 . S
H1987 C1923 0.930 1_565 S
H1988 C1927 0.930 . S
H1989 C1928 0.961 . S
H1990 C1928 0.960 . S
H1991 C1928 0.958 . S
H1992 C1929 0.961 . S
H1993 C1929 0.960 . S
H1994 C1929 0.960 . S
H1995 C1931 0.980 . S
H1996 C1930 0.961 . S
H1997 C1930 0.961 . S
H1998 C1930 0.959 . S
H1999 C1933 0.932 . S
H2000 C1937 0.929 . S
H2001 C1938 0.961 . S
H2002 C1938 0.959 . S
H2003 C1938 0.959 . S
H2004 C1939 0.960 . S
H2005 C1939 0.962 . S
H2006 C1939 0.961 . S
H2007 C1941 0.929 . S
H2008 C1944 0.930 . S
H2009 C1945 0.929 . S
H2010 C1948 0.930 . S
H2011 C1951 0.929 . S
H2012 C1952 0.930 . S
H2013 C1956 0.962 . S
H2014 C1956 0.959 . S
H2015 C1956 0.958 . S
C2016 C2017 1.560 . S
C2016 H2077 0.959 . S
C2016 H2078 0.959 . S
C2016 H2079 0.960 . S
C2017 C2016 1.560 . S
C2017 O2072 1.426 . S
C2017 H2076 0.980 1_565 S
C2018 C2019 1.407 1_565 S
C2018 C2023 1.418 . S
C2018 O2072 1.334 . S
C2019 C2018 1.407 1_545 S
C2019 C2020 1.360 . S
C2019 H2080 0.929 . S
C2020 C2019 1.360 . S
C2020 C2021 1.401 . S
C2020 C2024 1.527 . S
C2021 C2020 1.401 . S
C2021 C2022 1.405 1_545 S
C2021 C2054 1.587 . S
C2022 C2021 1.405 1_565 S
C2022 C2023 1.332 . S
C2022 C2025 1.496 . S
C2023 C2018 1.418 . S
C2023 C2022 1.332 . S
C2023 H2081 0.929 . S
C2024 C2020 1.527 . S
C2024 H2082 0.959 . S
C2024 H2083 0.961 . S
C2024 H2084 0.961 . S
C2025 C2022 1.496 . S
C2025 H2085 0.960 . S
C2025 H2086 0.960 . S
C2025 H2087 0.961 . S
C2026 C2027 1.517 . S
C2026 H2089 0.961 . S
C2026 H2090 0.960 . S
C2026 H2091 0.959 . S
C2027 C2026 1.517 . S
C2027 O2075 1.468 . S
C2027 H2088 0.980 . S
C2028 C2029 1.349 . S
C2028 C2033 1.367 . S
C2028 O2075 1.408 . S
C2029 C2028 1.349 . S
C2029 C2030 1.407 . S
C2029 H2092 0.921 1_545 S
C2030 C2029 1.407 . S
C2030 C2031 1.449 . S
C2030 C2034 1.535 1_545 S
C2031 C2030 1.449 . S
C2031 C2032 1.384 . S
C2031 C2056 1.553 . S
C2032 C2031 1.384 . S
C2032 C2033 1.364 . S
C2032 C2035 1.450 . S
C2033 C2028 1.367 . S
C2033 C2032 1.364 . S
C2033 H2093 0.931 . S
C2034 C2030 1.535 1_565 S
C2034 H2094 0.959 . S
C2034 H2095 0.961 . S
C2034 H2096 0.959 . S
C2035 C2032 1.450 . S
C2035 H2097 0.960 . S
C2035 H2098 0.960 . S
C2035 H2099 0.960 . S
C2036 C2037 1.309 1_545 S
C2036 C2041 1.304 . S
C2036 O2074 1.435 . S
C2037 C2036 1.309 1_565 S
C2037 C2038 1.476 . S
C2037 H2101 0.930 . S
C2038 C2037 1.476 . S
C2038 C2039 1.400 1_565 S
C2038 C2042 1.567 . S
C2039 C2038 1.400 1_545 S
C2039 C2040 1.373 . S
C2039 C2061 1.432 . S
C2040 C2039 1.373 . S
C2040 C2041 1.339 . S
C2040 C2043 1.530 . S
C2041 C2036 1.304 . S
C2041 C2040 1.339 . S
C2041 H2102 0.930 . S
C2042 C2038 1.567 . S
C2042 H2103 0.961 . S
C2042 H2104 0.960 . S
C2042 H2105 0.958 . S
C2043 C2040 1.530 . S
C2043 H2106 0.961 . S
C2043 H2107 0.960 . S
C2043 H2108 0.960 . S
C2044 C2045 1.530 . S
C2044 H2110 0.961 . S
C2044 H2111 0.961 . S
C2044 H2112 0.959 . S
C2045 C2044 1.530 . S
C2045 O2073 1.412 . S
C2045 H2109 0.987 . S
C2046 C2047 1.288 . S
C2046 C2051 1.377 1_565 S
C2046 O2073 1.393 . S
C2047 C2046 1.288 . S
C2047 C2048 1.369 . S
C2047 H2113 0.932 . S
C2048 C2047 1.369 . S
C2048 C2049 1.398 . S
C2048 C2052 1.527 . S
C2049 C2048 1.398 . S
C2049 C2050 1.380 1_565 S
C2049 C2063 1.497 1_565 S
C2050 C2049 1.380 1_545 S
C2050 C2051 1.383 . S
C2050 C2053 1.603 . S
C2051 C2046 1.377 1_545 S
C2051 C2050 1.383 . S
C2051 H2114 0.929 . S
C2052 C2048 1.527 . S
C2052 H2115 0.961 . S
C2052 H2116 0.959 . S
C2052 H2117 0.959 . S
C2053 C2050 1.603 . S
C2053 H2118 0.960 . S
C2053 H2119 0.962 . S
C2053 H2120 0.961 . S
C2054 C2021 1.587 . S
C2054 C2055 1.360 . S
C2054 C2067 1.412 . S
C2055 C2054 1.360 . S
C2055 C2056 1.365 . S
C2055 H2121 0.929 . S
C2056 C2031 1.553 . S
C2056 C2055 1.365 . S
C2056 C2057 1.404 . S
C2057 C2056 1.404 . S
C2057 C2058 1.395 . S
C2057 C2068 1.451 . S
C2058 C2057 1.395 . S
C2058 C2059 1.322 . S
C2058 H2122 0.930 . S
C2059 C2058 1.322 . S
C2059 C2060 1.459 . S
C2059 H2123 0.929 . S
C2060 C2059 1.459 . S
C2060 C2061 1.445 . S
C2060 C2069 1.395 . S
C2061 C2039 1.432 . S
C2061 C2060 1.445 . S
C2061 C2062 1.370 . S
C2062 C2061 1.370 . S
C2062 C2063 1.438 . S
C2062 H2124 0.930 . S
C2063 C2049 1.497 1_545 S
C2063 C2062 1.438 . S
C2063 C2064 1.360 . S
C2064 C2063 1.360 . S
C2064 C2065 1.401 . S
C2064 C2069 1.446 . S
C2065 C2064 1.401 . S
C2065 C2066 1.347 . S
C2065 H2125 0.929 . S
C2066 C2065 1.347 . S
C2066 C2067 1.455 . S
C2066 H2126 0.930 . S
C2067 C2054 1.412 . S
C2067 C2066 1.455 . S
C2067 C2068 1.331 . S
C2068 C2057 1.451 . S
C2068 C2067 1.331 . S
C2068 C2069 1.497 . S
C2069 C2060 1.395 . S
C2069 C2064 1.446 . S
C2069 C2068 1.497 . S
C2070 C2071 1.601 . S
C2070 H2127 0.962 . S
C2070 H2128 0.959 . S
C2070 H2129 0.958 . S
C2071 C2070 1.601 . S
C2071 O2074 1.466 . S
C2071 H2100 0.980 1_545 S
O2072 C2017 1.426 . S
O2072 C2018 1.334 . S
O2073 C2045 1.412 . S
O2073 C2046 1.393 . S
O2074 C2036 1.435 . S
O2074 C2071 1.466 . S
O2075 C2027 1.468 . S
O2075 C2028 1.408 . S
H2076 C2017 0.980 1_545 S
H2077 C2016 0.959 . S
H2078 C2016 0.959 . S
H2079 C2016 0.960 . S
H2080 C2019 0.929 . S
H2081 C2023 0.929 . S
H2082 C2024 0.959 . S
H2083 C2024 0.961 . S
H2084 C2024 0.961 . S
H2085 C2025 0.960 . S
H2086 C2025 0.960 . S
H2087 C2025 0.961 . S
H2088 C2027 0.980 . S
H2089 C2026 0.961 . S
H2090 C2026 0.960 . S
H2091 C2026 0.959 . S
H2092 C2029 0.921 1_565 S
H2093 C2033 0.931 . S
H2094 C2034 0.959 . S
H2095 C2034 0.961 . S
H2096 C2034 0.959 . S
H2097 C2035 0.960 . S
H2098 C2035 0.960 . S
H2099 C2035 0.960 . S
H2100 C2071 0.980 1_565 S
H2101 C2037 0.930 . S
H2102 C2041 0.930 . S
H2103 C2042 0.961 . S
H2104 C2042 0.960 . S
H2105 C2042 0.958 . S
H2106 C2043 0.961 . S
H2107 C2043 0.960 . S
H2108 C2043 0.960 . S
H2109 C2045 0.987 . S
H2110 C2044 0.961 . S
H2111 C2044 0.961 . S
H2112 C2044 0.959 . S
H2113 C2047 0.932 . S
H2114 C2051 0.929 . S
H2115 C2052 0.961 . S
H2116 C2052 0.959 . S
H2117 C2052 0.959 . S
H2118 C2053 0.960 . S
H2119 C2053 0.962 . S
H2120 C2053 0.961 . S
H2121 C2055 0.929 . S
H2122 C2058 0.930 . S
H2123 C2059 0.929 . S
H2124 C2062 0.930 . S
H2125 C2065 0.929 . S
H2126 C2066 0.930 . S
H2127 C2070 0.962 . S
H2128 C2070 0.959 . S
H2129 C2070 0.958 . S
C2130 C2131 1.560 . S
C2130 H2191 0.959 . S
C2130 H2192 0.959 . S
C2130 H2193 0.960 . S
C2131 C2130 1.560 . S
C2131 O2186 1.426 . S
C2131 H2190 0.980 1_455 S
C2132 C2133 1.407 1_455 S
C2132 C2137 1.418 . S
C2132 O2186 1.334 . S
C2133 C2132 1.407 1_655 S
C2133 C2134 1.360 . S
C2133 H2194 0.929 . S
C2134 C2133 1.360 . S
C2134 C2135 1.401 . S
C2134 C2138 1.527 . S
C2135 C2134 1.401 . S
C2135 C2136 1.405 1_655 S
C2135 C2168 1.587 . S
C2136 C2135 1.405 1_455 S
C2136 C2137 1.332 . S
C2136 C2139 1.496 . S
C2137 C2132 1.418 . S
C2137 C2136 1.332 . S
C2137 H2195 0.929 . S
C2138 C2134 1.527 . S
C2138 H2196 0.959 . S
C2138 H2197 0.961 . S
C2138 H2198 0.961 . S
C2139 C2136 1.496 . S
C2139 H2199 0.960 . S
C2139 H2200 0.960 . S
C2139 H2201 0.961 . S
C2140 C2141 1.517 . S
C2140 H2203 0.961 . S
C2140 H2204 0.960 . S
C2140 H2205 0.959 . S
C2141 C2140 1.517 . S
C2141 O2189 1.468 . S
C2141 H2202 0.980 . S
C2142 C2143 1.349 . S
C2142 C2147 1.367 . S
C2142 O2189 1.408 . S
C2143 C2142 1.349 . S
C2143 C2144 1.407 . S
C2143 H2206 0.979 . S
C2144 C2143 1.407 . S
C2144 C2145 1.449 . S
C2144 C2148 1.535 1_655 S
C2145 C2144 1.449 . S
C2145 C2146 1.384 . S
C2145 C2170 1.553 . S
C2146 C2145 1.384 . S
C2146 C2147 1.364 . S
C2146 C2149 1.450 . S
C2147 C2142 1.367 . S
C2147 C2146 1.364 . S
C2147 H2207 0.931 . S
C2148 C2144 1.535 1_455 S
C2148 H2208 0.959 . S
C2148 H2209 0.961 . S
C2148 H2210 0.959 . S
C2149 C2146 1.450 . S
C2149 H2211 0.960 . S
C2149 H2212 0.960 . S
C2149 H2213 0.960 . S
C2150 C2151 1.309 1_655 S
C2150 C2155 1.304 . S
C2150 O2188 1.435 . S
C2151 C2150 1.309 1_455 S
C2151 C2152 1.476 . S
C2151 H2215 0.930 . S
C2152 C2151 1.476 . S
C2152 C2153 1.400 1_455 S
C2152 C2156 1.567 . S
C2153 C2152 1.400 1_655 S
C2153 C2154 1.373 . S
C2153 C2175 1.432 . S
C2154 C2153 1.373 . S
C2154 C2155 1.339 . S
C2154 C2157 1.530 . S
C2155 C2150 1.304 . S
C2155 C2154 1.339 . S
C2155 H2216 0.930 . S
C2156 C2152 1.567 . S
C2156 H2217 0.961 . S
C2156 H2218 0.960 . S
C2156 H2219 0.958 . S
C2157 C2154 1.530 . S
C2157 H2220 0.961 . S
C2157 H2221 0.960 . S
C2157 H2222 0.960 . S
C2158 C2159 1.530 . S
C2158 H2224 0.961 . S
C2158 H2225 0.961 . S
C2158 H2226 0.959 . S
C2159 C2158 1.530 . S
C2159 O2187 1.412 . S
C2159 H2223 0.980 . S
C2160 C2161 1.288 . S
C2160 C2165 1.377 1_455 S
C2160 O2187 1.393 . S
C2161 C2160 1.288 . S
C2161 C2162 1.369 . S
C2161 H2227 0.932 . S
C2162 C2161 1.369 . S
C2162 C2163 1.398 . S
C2162 C2166 1.527 . S
C2163 C2162 1.398 . S
C2163 C2164 1.380 1_455 S
C2163 C2177 1.497 1_455 S
C2164 C2163 1.380 1_655 S
C2164 C2165 1.383 . S
C2164 C2167 1.603 . S
C2165 C2160 1.377 1_655 S
C2165 C2164 1.383 . S
C2165 H2228 0.929 . S
C2166 C2162 1.527 . S
C2166 H2229 0.961 . S
C2166 H2230 0.959 . S
C2166 H2231 0.959 . S
C2167 C2164 1.603 . S
C2167 H2232 0.960 . S
C2167 H2233 0.962 . S
C2167 H2234 0.961 . S
C2168 C2135 1.587 . S
C2168 C2169 1.360 . S
C2168 C2181 1.412 . S
C2169 C2168 1.360 . S
C2169 C2170 1.365 . S
C2169 H2235 0.929 . S
C2170 C2145 1.553 . S
C2170 C2169 1.365 . S
C2170 C2171 1.404 . S
C2171 C2170 1.404 . S
C2171 C2172 1.395 . S
C2171 C2182 1.451 . S
C2172 C2171 1.395 . S
C2172 C2173 1.322 . S
C2172 H2236 0.930 . S
C2173 C2172 1.322 . S
C2173 C2174 1.459 . S
C2173 H2237 0.929 . S
C2174 C2173 1.459 . S
C2174 C2175 1.445 . S
C2174 C2183 1.395 . S
C2175 C2153 1.432 . S
C2175 C2174 1.445 . S
C2175 C2176 1.370 . S
C2176 C2175 1.370 . S
C2176 C2177 1.438 . S
C2176 H2238 0.930 . S
C2177 C2163 1.497 1_655 S
C2177 C2176 1.438 . S
C2177 C2178 1.360 . S
C2178 C2177 1.360 . S
C2178 C2179 1.401 . S
C2178 C2183 1.446 . S
C2179 C2178 1.401 . S
C2179 C2180 1.347 . S
C2179 H2239 0.916 . S
C2180 C2179 1.347 . S
C2180 C2181 1.455 . S
C2180 H2240 0.930 . S
C2181 C2168 1.412 . S
C2181 C2180 1.455 . S
C2181 C2182 1.331 . S
C2182 C2171 1.451 . S
C2182 C2181 1.331 . S
C2182 C2183 1.497 . S
C2183 C2174 1.395 . S
C2183 C2178 1.446 . S
C2183 C2182 1.497 . S
C2184 C2185 1.580 1_655 S
C2184 H2241 0.966 1_655 S
C2184 H2242 0.959 . S
C2184 H2243 0.958 . S
C2185 C2184 1.580 1_455 S
C2185 O2188 1.394 1_455 S
C2185 H2214 1.007 . S
O2186 C2131 1.426 . S
O2186 C2132 1.334 . S
O2187 C2159 1.412 . S
O2187 C2160 1.393 . S
O2188 C2150 1.435 . S
O2188 C2185 1.394 1_655 S
O2189 C2141 1.468 . S
O2189 C2142 1.408 . S
H2190 C2131 0.980 1_655 S
H2191 C2130 0.959 . S
H2192 C2130 0.959 . S
H2193 C2130 0.960 . S
H2194 C2133 0.929 . S
H2195 C2137 0.929 . S
H2196 C2138 0.959 . S
H2197 C2138 0.961 . S
H2198 C2138 0.961 . S
H2199 C2139 0.960 . S
H2200 C2139 0.960 . S
H2201 C2139 0.961 . S
H2202 C2141 0.980 . S
H2203 C2140 0.961 . S
H2204 C2140 0.960 . S
H2205 C2140 0.959 . S
H2206 C2143 0.979 . S
H2207 C2147 0.931 . S
H2208 C2148 0.959 . S
H2209 C2148 0.961 . S
H2210 C2148 0.959 . S
H2211 C2149 0.960 . S
H2212 C2149 0.960 . S
H2213 C2149 0.960 . S
H2214 C2185 1.007 . S
H2215 C2151 0.930 . S
H2216 C2155 0.930 . S
H2217 C2156 0.961 . S
H2218 C2156 0.960 . S
H2219 C2156 0.958 . S
H2220 C2157 0.961 . S
H2221 C2157 0.960 . S
H2222 C2157 0.960 . S
H2223 C2159 0.980 . S
H2224 C2158 0.961 . S
H2225 C2158 0.961 . S
H2226 C2158 0.959 . S
H2227 C2161 0.932 . S
H2228 C2165 0.929 . S
H2229 C2166 0.961 . S
H2230 C2166 0.959 . S
H2231 C2166 0.959 . S
H2232 C2167 0.960 . S
H2233 C2167 0.962 . S
H2234 C2167 0.961 . S
H2235 C2169 0.929 . S
H2236 C2172 0.930 . S
H2237 C2173 0.929 . S
H2238 C2176 0.930 . S
H2239 C2179 0.916 . S
H2240 C2180 0.930 . S
H2241 C2184 0.966 1_455 S
H2242 C2184 0.959 . S
H2243 C2184 0.958 . S
C2244 C2245 1.560 . S
C2244 H2305 0.959 . S
C2244 H2306 0.959 . S
C2244 H2307 0.960 . S
C2245 C2244 1.560 . S
C2245 O2300 1.426 . S
C2245 H2304 0.980 . S
C2246 C2247 1.407 . S
C2246 C2251 1.418 . S
C2246 O2300 1.334 . S
C2247 C2246 1.407 . S
C2247 C2248 1.360 . S
C2247 H2308 0.929 . S
C2248 C2247 1.360 . S
C2248 C2249 1.401 . S
C2248 C2252 1.527 . S
C2249 C2248 1.401 . S
C2249 C2250 1.405 . S
C2249 C2282 1.587 . S
C2250 C2249 1.405 . S
C2250 C2251 1.332 . S
C2250 C2253 1.496 . S
C2251 C2246 1.418 . S
C2251 C2250 1.332 . S
C2251 H2309 0.929 . S
C2252 C2248 1.527 . S
C2252 H2310 0.959 . S
C2252 H2311 0.961 . S
C2252 H2312 0.961 . S
C2253 C2250 1.496 . S
C2253 H2313 0.960 . S
C2253 H2314 0.960 . S
C2253 H2315 0.961 . S
C2254 C2255 1.517 . S
C2254 H2317 0.961 . S
C2254 H2318 0.960 . S
C2254 H2319 0.959 . S
C2255 C2254 1.517 . S
C2255 O2303 1.468 . S
C2255 H2316 0.980 . S
C2256 C2257 1.349 . S
C2256 C2261 1.367 . S
C2256 O2303 1.408 . S
C2257 C2256 1.349 . S
C2257 C2258 1.407 . S
C2257 H2320 0.930 . S
C2258 C2257 1.407 . S
C2258 C2259 1.449 . S
C2258 C2262 1.535 . S
C2259 C2258 1.449 . S
C2259 C2260 1.384 . S
C2259 C2284 1.553 . S
C2260 C2259 1.384 . S
C2260 C2261 1.364 . S
C2260 C2263 1.450 . S
C2261 C2256 1.367 . S
C2261 C2260 1.364 . S
C2261 H2321 0.931 . S
C2262 C2258 1.535 . S
C2262 H2322 0.959 . S
C2262 H2323 0.961 . S
C2262 H2324 0.959 . S
C2263 C2260 1.450 . S
C2263 H2325 0.960 . S
C2263 H2326 0.960 . S
C2263 H2327 0.960 . S
C2264 C2265 1.309 . S
C2264 C2269 1.304 . S
C2264 O2302 1.435 . S
C2265 C2264 1.309 . S
C2265 C2266 1.476 . S
C2265 H2329 0.930 . S
C2266 C2265 1.476 . S
C2266 C2267 1.400 . S
C2266 C2270 1.567 . S
C2267 C2266 1.400 . S
C2267 C2268 1.373 . S
C2267 C2289 1.432 . S
C2268 C2267 1.373 . S
C2268 C2269 1.339 . S
C2268 C2271 1.530 . S
C2269 C2264 1.304 . S
C2269 C2268 1.339 . S
C2269 H2330 0.930 . S
C2270 C2266 1.567 . S
C2270 H2331 0.961 . S
C2270 H2332 0.960 . S
C2270 H2333 0.958 . S
C2271 C2268 1.530 . S
C2271 H2334 0.961 . S
C2271 H2335 0.960 . S
C2271 H2336 0.960 . S
C2272 C2273 1.530 . S
C2272 H2338 0.961 . S
C2272 H2339 0.961 . S
C2272 H2340 0.959 . S
C2273 C2272 1.530 . S
C2273 O2301 1.412 . S
C2273 H2337 0.980 . S
C2274 C2275 1.288 . S
C2274 C2279 1.377 . S
C2274 O2301 1.393 . S
C2275 C2274 1.288 . S
C2275 C2276 1.369 . S
C2275 H2341 0.932 . S
C2276 C2275 1.369 . S
C2276 C2277 1.398 . S
C2276 C2280 1.527 . S
C2277 C2276 1.398 . S
C2277 C2278 1.380 . S
C2277 C2291 1.497 . S
C2278 C2277 1.380 . S
C2278 C2279 1.383 . S
C2278 C2281 1.603 . S
C2279 C2274 1.377 . S
C2279 C2278 1.383 . S
C2279 H2342 0.929 . S
C2280 C2276 1.527 . S
C2280 H2343 0.961 . S
C2280 H2344 0.959 . S
C2280 H2345 0.959 . S
C2281 C2278 1.603 . S
C2281 H2346 0.960 . S
C2281 H2347 0.962 . S
C2281 H2348 0.961 . S
C2282 C2249 1.587 . S
C2282 C2283 1.360 . S
C2282 C2295 1.412 . S
C2283 C2282 1.360 . S
C2283 C2284 1.365 . S
C2283 H2349 0.929 . S
C2284 C2259 1.553 . S
C2284 C2283 1.365 . S
C2284 C2285 1.404 . S
C2285 C2284 1.404 . S
C2285 C2286 1.395 . S
C2285 C2296 1.451 . S
C2286 C2285 1.395 . S
C2286 C2287 1.322 . S
C2286 H2350 0.930 . S
C2287 C2286 1.322 . S
C2287 C2288 1.459 . S
C2287 H2351 0.929 . S
C2288 C2287 1.459 . S
C2288 C2289 1.445 . S
C2288 C2297 1.395 . S
C2289 C2267 1.432 . S
C2289 C2288 1.445 . S
C2289 C2290 1.370 . S
C2290 C2289 1.370 . S
C2290 C2291 1.438 . S
C2290 H2352 0.930 . S
C2291 C2277 1.497 . S
C2291 C2290 1.438 . S
C2291 C2292 1.360 . S
C2292 C2291 1.360 . S
C2292 C2293 1.401 . S
C2292 C2297 1.446 . S
C2293 C2292 1.401 . S
C2293 C2294 1.347 . S
C2293 H2353 0.929 . S
C2294 C2293 1.347 . S
C2294 C2295 1.455 . S
C2294 H2354 0.930 . S
C2295 C2282 1.412 . S
C2295 C2294 1.455 . S
C2295 C2296 1.331 . S
C2296 C2285 1.451 . S
C2296 C2295 1.331 . S
C2296 C2297 1.497 . S
C2297 C2288 1.395 . S
C2297 C2292 1.446 . S
C2297 C2296 1.497 . S
C2298 C2299 1.582 . S
C2298 H2355 0.962 . S
C2298 H2356 0.959 . S
C2298 H2357 0.958 . S
C2299 C2298 1.582 . S
C2299 O2302 1.458 . S
C2299 H2328 0.980 . S
O2300 C2245 1.426 . S
O2300 C2246 1.334 . S
O2301 C2273 1.412 . S
O2301 C2274 1.393 . S
O2302 C2264 1.435 . S
O2302 C2299 1.458 . S
O2303 C2255 1.468 . S
O2303 C2256 1.408 . S
H2304 C2245 0.980 . S
H2305 C2244 0.959 . S
H2306 C2244 0.959 . S
H2307 C2244 0.960 . S
H2308 C2247 0.929 . S
H2309 C2251 0.929 . S
H2310 C2252 0.959 . S
H2311 C2252 0.961 . S
H2312 C2252 0.961 . S
H2313 C2253 0.960 . S
H2314 C2253 0.960 . S
H2315 C2253 0.961 . S
H2316 C2255 0.980 . S
H2317 C2254 0.961 . S
H2318 C2254 0.960 . S
H2319 C2254 0.959 . S
H2320 C2257 0.930 . S
H2321 C2261 0.931 . S
H2322 C2262 0.959 . S
H2323 C2262 0.961 . S
H2324 C2262 0.959 . S
H2325 C2263 0.960 . S
H2326 C2263 0.960 . S
H2327 C2263 0.960 . S
H2328 C2299 0.980 . S
H2329 C2265 0.930 . S
H2330 C2269 0.930 . S
H2331 C2270 0.961 . S
H2332 C2270 0.960 . S
H2333 C2270 0.958 . S
H2334 C2271 0.961 . S
H2335 C2271 0.960 . S
H2336 C2271 0.960 . S
H2337 C2273 0.980 . S
H2338 C2272 0.961 . S
H2339 C2272 0.961 . S
H2340 C2272 0.959 . S
H2341 C2275 0.932 . S
H2342 C2279 0.929 . S
H2343 C2280 0.961 . S
H2344 C2280 0.959 . S
H2345 C2280 0.959 . S
H2346 C2281 0.960 . S
H2347 C2281 0.962 . S
H2348 C2281 0.961 . S
H2349 C2283 0.929 . S
H2350 C2286 0.930 . S
H2351 C2287 0.929 . S
H2352 C2290 0.930 . S
H2353 C2293 0.929 . S
H2354 C2294 0.930 . S
H2355 C2298 0.962 . S
H2356 C2298 0.959 . S
H2357 C2298 0.958 . S
C2358 C2359 1.560 . S
C2358 H2419 0.959 . S
C2358 H2420 0.959 . S
C2358 H2421 0.960 . S
C2359 C2358 1.560 . S
C2359 O2414 1.426 . S
C2359 H2418 0.980 . S
C2360 C2361 1.407 . S
C2360 C2365 1.418 . S
C2360 O2414 1.334 . S
C2361 C2360 1.407 . S
C2361 C2362 1.360 . S
C2361 H2422 0.929 . S
C2362 C2361 1.360 . S
C2362 C2363 1.401 . S
C2362 C2366 1.527 . S
C2363 C2362 1.401 . S
C2363 C2364 1.405 . S
C2363 C2396 1.587 . S
C2364 C2363 1.405 . S
C2364 C2365 1.332 . S
C2364 C2367 1.496 . S
C2365 C2360 1.418 . S
C2365 C2364 1.332 . S
C2365 H2423 0.929 . S
C2366 C2362 1.527 . S
C2366 H2424 0.959 . S
C2366 H2425 0.961 . S
C2366 H2426 0.961 . S
C2367 C2364 1.496 . S
C2367 H2427 0.960 . S
C2367 H2428 0.960 . S
C2367 H2429 0.961 . S
C2368 C2369 1.517 . S
C2368 H2431 0.961 . S
C2368 H2432 0.960 . S
C2368 H2433 0.959 . S
C2369 C2368 1.517 . S
C2369 O2417 1.468 . S
C2369 H2430 0.980 . S
C2370 C2371 1.349 . S
C2370 C2375 1.367 . S
C2370 O2417 1.408 . S
C2371 C2370 1.349 . S
C2371 C2372 1.407 . S
C2371 H2434 0.930 . S
C2372 C2371 1.407 . S
C2372 C2373 1.449 . S
C2372 C2376 1.535 . S
C2373 C2372 1.449 . S
C2373 C2374 1.384 . S
C2373 C2398 1.553 . S
C2374 C2373 1.384 . S
C2374 C2375 1.364 . S
C2374 C2377 1.450 . S
C2375 C2370 1.367 . S
C2375 C2374 1.364 . S
C2375 H2435 0.931 . S
C2376 C2372 1.535 . S
C2376 H2436 0.959 . S
C2376 H2437 0.961 . S
C2376 H2438 0.959 . S
C2377 C2374 1.450 . S
C2377 H2439 0.960 . S
C2377 H2440 0.960 . S
C2377 H2441 0.960 . S
C2378 C2379 1.309 . S
C2378 C2383 1.304 . S
C2378 O2416 1.435 . S
C2379 C2378 1.309 . S
C2379 C2380 1.476 . S
C2379 H2443 0.930 . S
C2380 C2379 1.476 . S
C2380 C2381 1.400 . S
C2380 C2384 1.567 . S
C2381 C2380 1.400 . S
C2381 C2382 1.373 . S
C2381 C2403 1.432 . S
C2382 C2381 1.373 . S
C2382 C2383 1.339 . S
C2382 C2385 1.530 . S
C2383 C2378 1.304 . S
C2383 C2382 1.339 . S
C2383 H2444 0.930 . S
C2384 C2380 1.567 . S
C2384 H2445 0.961 . S
C2384 H2446 0.960 . S
C2384 H2447 0.958 . S
C2385 C2382 1.530 . S
C2385 H2448 0.961 . S
C2385 H2449 0.960 . S
C2385 H2450 0.960 . S
C2386 C2387 1.530 . S
C2386 H2452 0.961 . S
C2386 H2453 0.961 . S
C2386 H2454 0.959 . S
C2387 C2386 1.530 . S
C2387 O2415 1.412 . S
C2387 H2451 0.980 . S
C2388 C2389 1.288 . S
C2388 C2393 1.377 . S
C2388 O2415 1.393 . S
C2389 C2388 1.288 . S
C2389 C2390 1.369 . S
C2389 H2455 0.932 . S
C2390 C2389 1.369 . S
C2390 C2391 1.398 . S
C2390 C2394 1.527 . S
C2391 C2390 1.398 . S
C2391 C2392 1.380 . S
C2391 C2405 1.497 . S
C2392 C2391 1.380 . S
C2392 C2393 1.383 . S
C2392 C2395 1.603 . S
C2393 C2388 1.377 . S
C2393 C2392 1.383 . S
C2393 H2456 0.929 . S
C2394 C2390 1.527 . S
C2394 H2457 0.961 . S
C2394 H2458 0.959 . S
C2394 H2459 0.959 . S
C2395 C2392 1.603 . S
C2395 H2460 0.960 . S
C2395 H2461 0.962 . S
C2395 H2462 0.961 . S
C2396 C2363 1.587 . S
C2396 C2397 1.360 . S
C2396 C2409 1.412 . S
C2397 C2396 1.360 . S
C2397 C2398 1.365 . S
C2397 H2463 0.929 . S
C2398 C2373 1.553 . S
C2398 C2397 1.365 . S
C2398 C2399 1.404 . S
C2399 C2398 1.404 . S
C2399 C2400 1.395 . S
C2399 C2410 1.451 . S
C2400 C2399 1.395 . S
C2400 C2401 1.322 . S
C2400 H2464 0.930 . S
C2401 C2400 1.322 . S
C2401 C2402 1.459 . S
C2401 H2465 0.929 . S
C2402 C2401 1.459 . S
C2402 C2403 1.445 . S
C2402 C2411 1.395 . S
C2403 C2381 1.432 . S
C2403 C2402 1.445 . S
C2403 C2404 1.370 . S
C2404 C2403 1.370 . S
C2404 C2405 1.438 . S
C2404 H2466 0.930 . S
C2405 C2391 1.497 . S
C2405 C2404 1.438 . S
C2405 C2406 1.360 . S
C2406 C2405 1.360 . S
C2406 C2407 1.401 . S
C2406 C2411 1.446 . S
C2407 C2406 1.401 . S
C2407 C2408 1.347 . S
C2407 H2467 0.929 . S
C2408 C2407 1.347 . S
C2408 C2409 1.455 . S
C2408 H2468 0.930 . S
C2409 C2396 1.412 . S
C2409 C2408 1.455 . S
C2409 C2410 1.331 . S
C2410 C2399 1.451 . S
C2410 C2409 1.331 . S
C2410 C2411 1.497 . S
C2411 C2402 1.395 . S
C2411 C2406 1.446 . S
C2411 C2410 1.497 . S
C2412 C2413 1.582 . S
C2412 H2469 0.962 . S
C2412 H2470 0.959 . S
C2412 H2471 0.958 . S
C2413 C2412 1.582 . S
C2413 O2416 1.458 . S
C2413 H2442 0.980 . S
O2414 C2359 1.426 . S
O2414 C2360 1.334 . S
O2415 C2387 1.412 . S
O2415 C2388 1.393 . S
O2416 C2378 1.435 . S
O2416 C2413 1.458 . S
O2417 C2369 1.468 . S
O2417 C2370 1.408 . S
H2418 C2359 0.980 . S
H2419 C2358 0.959 . S
H2420 C2358 0.959 . S
H2421 C2358 0.960 . S
H2422 C2361 0.929 . S
H2423 C2365 0.929 . S
H2424 C2366 0.959 . S
H2425 C2366 0.961 . S
H2426 C2366 0.961 . S
H2427 C2367 0.960 . S
H2428 C2367 0.960 . S
H2429 C2367 0.961 . S
H2430 C2369 0.980 . S
H2431 C2368 0.961 . S
H2432 C2368 0.960 . S
H2433 C2368 0.959 . S
H2434 C2371 0.930 . S
H2435 C2375 0.931 . S
H2436 C2376 0.959 . S
H2437 C2376 0.961 . S
H2438 C2376 0.959 . S
H2439 C2377 0.960 . S
H2440 C2377 0.960 . S
H2441 C2377 0.960 . S
H2442 C2413 0.980 . S
H2443 C2379 0.930 . S
H2444 C2383 0.930 . S
H2445 C2384 0.961 . S
H2446 C2384 0.960 . S
H2447 C2384 0.958 . S
H2448 C2385 0.961 . S
H2449 C2385 0.960 . S
H2450 C2385 0.960 . S
H2451 C2387 0.980 . S
H2452 C2386 0.961 . S
H2453 C2386 0.961 . S
H2454 C2386 0.959 . S
H2455 C2389 0.932 . S
H2456 C2393 0.929 . S
H2457 C2394 0.961 . S
H2458 C2394 0.959 . S
H2459 C2394 0.959 . S
H2460 C2395 0.960 . S
H2461 C2395 0.962 . S
H2462 C2395 0.961 . S
H2463 C2397 0.929 . S
H2464 C2400 0.930 . S
H2465 C2401 0.929 . S
H2466 C2404 0.930 . S
H2467 C2407 0.929 . S
H2468 C2408 0.930 . S
H2469 C2412 0.962 . S
H2470 C2412 0.959 . S
H2471 C2412 0.958 . S
C2472 C2473 1.560 . S
C2472 H2533 0.959 . S
C2472 H2534 0.959 . S
C2472 H2535 0.960 . S
C2473 C2472 1.560 . S
C2473 O2528 1.426 . S
C2473 H2532 0.980 . S
C2474 C2475 1.407 . S
C2474 C2479 1.418 . S
C2474 O2528 1.334 . S
C2475 C2474 1.407 . S
C2475 C2476 1.360 . S
C2475 H2536 0.929 . S
C2476 C2475 1.360 . S
C2476 C2477 1.401 . S
C2476 C2480 1.527 . S
C2477 C2476 1.401 . S
C2477 C2478 1.405 . S
C2477 C2510 1.587 . S
C2478 C2477 1.405 . S
C2478 C2479 1.332 . S
C2478 C2481 1.496 . S
C2479 C2474 1.418 . S
C2479 C2478 1.332 . S
C2479 H2537 0.929 . S
C2480 C2476 1.527 . S
C2480 H2538 0.959 . S
C2480 H2539 0.961 . S
C2480 H2540 0.961 . S
C2481 C2478 1.496 . S
C2481 H2541 0.960 . S
C2481 H2542 0.960 . S
C2481 H2543 0.961 . S
C2482 C2483 1.517 . S
C2482 H2545 0.961 . S
C2482 H2546 0.960 . S
C2482 H2547 0.959 . S
C2483 C2482 1.517 . S
C2483 O2531 1.468 . S
C2483 H2544 0.980 . S
C2484 C2485 1.349 . S
C2484 C2489 1.367 . S
C2484 O2531 1.408 . S
C2485 C2484 1.349 . S
C2485 C2486 1.407 . S
C2485 H2548 0.930 . S
C2486 C2485 1.407 . S
C2486 C2487 1.449 . S
C2486 C2490 1.535 . S
C2487 C2486 1.449 . S
C2487 C2488 1.384 . S
C2487 C2512 1.553 . S
C2488 C2487 1.384 . S
C2488 C2489 1.364 . S
C2488 C2491 1.450 . S
C2489 C2484 1.367 . S
C2489 C2488 1.364 . S
C2489 H2549 0.931 . S
C2490 C2486 1.535 . S
C2490 H2550 0.959 . S
C2490 H2551 0.961 . S
C2490 H2552 0.959 . S
C2491 C2488 1.450 . S
C2491 H2553 0.960 . S
C2491 H2554 0.960 . S
C2491 H2555 0.960 . S
C2492 C2493 1.309 . S
C2492 C2497 1.304 . S
C2492 O2530 1.435 . S
C2493 C2492 1.309 . S
C2493 C2494 1.476 . S
C2493 H2557 0.930 . S
C2494 C2493 1.476 . S
C2494 C2495 1.400 . S
C2494 C2498 1.567 . S
C2495 C2494 1.400 . S
C2495 C2496 1.373 . S
C2495 C2517 1.432 . S
C2496 C2495 1.373 . S
C2496 C2497 1.339 . S
C2496 C2499 1.530 . S
C2497 C2492 1.304 . S
C2497 C2496 1.339 . S
C2497 H2558 0.930 . S
C2498 C2494 1.567 . S
C2498 H2559 0.961 . S
C2498 H2560 0.960 . S
C2498 H2561 0.958 . S
C2499 C2496 1.530 . S
C2499 H2562 0.961 . S
C2499 H2563 0.960 . S
C2499 H2564 0.960 . S
C2500 C2501 1.530 . S
C2500 H2566 0.961 . S
C2500 H2567 0.961 . S
C2500 H2568 0.959 . S
C2501 C2500 1.530 . S
C2501 O2529 1.412 . S
C2501 H2565 0.980 . S
C2502 C2503 1.288 . S
C2502 C2507 1.377 . S
C2502 O2529 1.393 . S
C2503 C2502 1.288 . S
C2503 C2504 1.369 . S
C2503 H2569 0.932 . S
C2504 C2503 1.369 . S
C2504 C2505 1.398 . S
C2504 C2508 1.527 . S
C2505 C2504 1.398 . S
C2505 C2506 1.380 . S
C2505 C2519 1.497 . S
C2506 C2505 1.380 . S
C2506 C2507 1.383 . S
C2506 C2509 1.603 . S
C2507 C2502 1.377 . S
C2507 C2506 1.383 . S
C2507 H2570 0.929 . S
C2508 C2504 1.527 . S
C2508 H2571 0.961 . S
C2508 H2572 0.959 . S
C2508 H2573 0.959 . S
C2509 C2506 1.603 . S
C2509 H2574 0.960 . S
C2509 H2575 0.962 . S
C2509 H2576 0.961 . S
C2510 C2477 1.587 . S
C2510 C2511 1.360 . S
C2510 C2523 1.412 . S
C2511 C2510 1.360 . S
C2511 C2512 1.365 . S
C2511 H2577 0.929 . S
C2512 C2487 1.553 . S
C2512 C2511 1.365 . S
C2512 C2513 1.404 . S
C2513 C2512 1.404 . S
C2513 C2514 1.395 . S
C2513 C2524 1.451 . S
C2514 C2513 1.395 . S
C2514 C2515 1.322 . S
C2514 H2578 0.930 . S
C2515 C2514 1.322 . S
C2515 C2516 1.459 . S
C2515 H2579 0.929 . S
C2516 C2515 1.459 . S
C2516 C2517 1.445 . S
C2516 C2525 1.395 . S
C2517 C2495 1.432 . S
C2517 C2516 1.445 . S
C2517 C2518 1.370 . S
C2518 C2517 1.370 . S
C2518 C2519 1.438 . S
C2518 H2580 0.930 . S
C2519 C2505 1.497 . S
C2519 C2518 1.438 . S
C2519 C2520 1.360 . S
C2520 C2519 1.360 . S
C2520 C2521 1.401 . S
C2520 C2525 1.446 . S
C2521 C2520 1.401 . S
C2521 C2522 1.347 . S
C2521 H2581 0.929 . S
C2522 C2521 1.347 . S
C2522 C2523 1.455 . S
C2522 H2582 0.930 . S
C2523 C2510 1.412 . S
C2523 C2522 1.455 . S
C2523 C2524 1.331 . S
C2524 C2513 1.451 . S
C2524 C2523 1.331 . S
C2524 C2525 1.497 . S
C2525 C2516 1.395 . S
C2525 C2520 1.446 . S
C2525 C2524 1.497 . S
C2526 C2527 1.582 . S
C2526 H2583 0.962 . S
C2526 H2584 0.959 . S
C2526 H2585 0.958 . S
C2527 C2526 1.582 . S
C2527 O2530 1.458 . S
C2527 H2556 0.980 . S
O2528 C2473 1.426 . S
O2528 C2474 1.334 . S
O2529 C2501 1.412 . S
O2529 C2502 1.393 . S
O2530 C2492 1.435 . S
O2530 C2527 1.458 . S
O2531 C2483 1.468 . S
O2531 C2484 1.408 . S
H2532 C2473 0.980 . S
H2533 C2472 0.959 . S
H2534 C2472 0.959 . S
H2535 C2472 0.960 . S
H2536 C2475 0.929 . S
H2537 C2479 0.929 . S
H2538 C2480 0.959 . S
H2539 C2480 0.961 . S
H2540 C2480 0.961 . S
H2541 C2481 0.960 . S
H2542 C2481 0.960 . S
H2543 C2481 0.961 . S
H2544 C2483 0.980 . S
H2545 C2482 0.961 . S
H2546 C2482 0.960 . S
H2547 C2482 0.959 . S
H2548 C2485 0.930 . S
H2549 C2489 0.931 . S
H2550 C2490 0.959 . S
H2551 C2490 0.961 . S
H2552 C2490 0.959 . S
H2553 C2491 0.960 . S
H2554 C2491 0.960 . S
H2555 C2491 0.960 . S
H2556 C2527 0.980 . S
H2557 C2493 0.930 . S
H2558 C2497 0.930 . S
H2559 C2498 0.961 . S
H2560 C2498 0.960 . S
H2561 C2498 0.958 . S
H2562 C2499 0.961 . S
H2563 C2499 0.960 . S
H2564 C2499 0.960 . S
H2565 C2501 0.980 . S
H2566 C2500 0.961 . S
H2567 C2500 0.961 . S
H2568 C2500 0.959 . S
H2569 C2503 0.932 . S
H2570 C2507 0.929 . S
H2571 C2508 0.961 . S
H2572 C2508 0.959 . S
H2573 C2508 0.959 . S
H2574 C2509 0.960 . S
H2575 C2509 0.962 . S
H2576 C2509 0.961 . S
H2577 C2511 0.929 . S
H2578 C2514 0.930 . S
H2579 C2515 0.929 . S
H2580 C2518 0.930 . S
H2581 C2521 0.929 . S
H2582 C2522 0.930 . S
H2583 C2526 0.962 . S
H2584 C2526 0.959 . S
H2585 C2526 0.958 . S
C2586 C2587 1.560 . S
C2586 H2647 0.959 . S
C2586 H2648 0.959 . S
C2586 H2649 0.960 . S
C2587 C2586 1.560 . S
C2587 O2642 1.426 . S
C2587 H2646 0.980 . S
C2588 C2589 1.407 . S
C2588 C2593 1.418 . S
C2588 O2642 1.334 . S
C2589 C2588 1.407 . S
C2589 C2590 1.360 . S
C2589 H2650 0.929 . S
C2590 C2589 1.360 . S
C2590 C2591 1.401 . S
C2590 C2594 1.527 . S
C2591 C2590 1.401 . S
C2591 C2592 1.405 . S
C2591 C2624 1.587 . S
C2592 C2591 1.405 . S
C2592 C2593 1.332 . S
C2592 C2595 1.496 . S
C2593 C2588 1.418 . S
C2593 C2592 1.332 . S
C2593 H2651 0.929 . S
C2594 C2590 1.527 . S
C2594 H2652 0.959 . S
C2594 H2653 0.961 . S
C2594 H2654 0.961 . S
C2595 C2592 1.496 . S
C2595 H2655 0.960 . S
C2595 H2656 0.960 . S
C2595 H2657 0.961 . S
C2596 C2597 1.517 . S
C2596 H2659 0.961 . S
C2596 H2660 0.960 . S
C2596 H2661 0.959 . S
C2597 C2596 1.517 . S
C2597 O2645 1.468 . S
C2597 H2658 0.980 . S
C2598 C2599 1.349 . S
C2598 C2603 1.367 . S
C2598 O2645 1.408 . S
C2599 C2598 1.349 . S
C2599 C2600 1.407 . S
C2599 H2662 0.930 . S
C2600 C2599 1.407 . S
C2600 C2601 1.449 . S
C2600 C2604 1.535 . S
C2601 C2600 1.449 . S
C2601 C2602 1.384 . S
C2601 C2626 1.553 . S
C2602 C2601 1.384 . S
C2602 C2603 1.364 . S
C2602 C2605 1.450 . S
C2603 C2598 1.367 . S
C2603 C2602 1.364 . S
C2603 H2663 0.931 . S
C2604 C2600 1.535 . S
C2604 H2664 0.959 . S
C2604 H2665 0.961 . S
C2604 H2666 0.959 . S
C2605 C2602 1.450 . S
C2605 H2667 0.960 . S
C2605 H2668 0.960 . S
C2605 H2669 0.960 . S
C2606 C2607 1.309 . S
C2606 C2611 1.304 . S
C2606 O2644 1.435 . S
C2607 C2606 1.309 . S
C2607 C2608 1.476 . S
C2607 H2671 0.930 . S
C2608 C2607 1.476 . S
C2608 C2609 1.400 . S
C2608 C2612 1.567 . S
C2609 C2608 1.400 . S
C2609 C2610 1.373 . S
C2609 C2631 1.432 . S
C2610 C2609 1.373 . S
C2610 C2611 1.339 . S
C2610 C2613 1.530 . S
C2611 C2606 1.304 . S
C2611 C2610 1.339 . S
C2611 H2672 0.930 . S
C2612 C2608 1.567 . S
C2612 H2673 0.961 . S
C2612 H2674 0.960 . S
C2612 H2675 0.958 . S
C2613 C2610 1.530 . S
C2613 H2676 0.961 . S
C2613 H2677 0.960 . S
C2613 H2678 0.960 . S
C2614 C2615 1.530 . S
C2614 H2680 0.961 . S
C2614 H2681 0.961 . S
C2614 H2682 0.959 . S
C2615 C2614 1.530 . S
C2615 O2643 1.412 . S
C2615 H2679 0.980 . S
C2616 C2617 1.288 . S
C2616 C2621 1.377 . S
C2616 O2643 1.393 . S
C2617 C2616 1.288 . S
C2617 C2618 1.369 . S
C2617 H2683 0.932 . S
C2618 C2617 1.369 . S
C2618 C2619 1.398 . S
C2618 C2622 1.527 . S
C2619 C2618 1.398 . S
C2619 C2620 1.380 . S
C2619 C2633 1.497 . S
C2620 C2619 1.380 . S
C2620 C2621 1.383 . S
C2620 C2623 1.603 . S
C2621 C2616 1.377 . S
C2621 C2620 1.383 . S
C2621 H2684 0.929 . S
C2622 C2618 1.527 . S
C2622 H2685 0.961 . S
C2622 H2686 0.959 . S
C2622 H2687 0.959 . S
C2623 C2620 1.603 . S
C2623 H2688 0.960 . S
C2623 H2689 0.962 . S
C2623 H2690 0.961 . S
C2624 C2591 1.587 . S
C2624 C2625 1.360 . S
C2624 C2637 1.412 . S
C2625 C2624 1.360 . S
C2625 C2626 1.365 . S
C2625 H2691 0.929 . S
C2626 C2601 1.553 . S
C2626 C2625 1.365 . S
C2626 C2627 1.404 . S
C2627 C2626 1.404 . S
C2627 C2628 1.395 . S
C2627 C2638 1.451 . S
C2628 C2627 1.395 . S
C2628 C2629 1.322 . S
C2628 H2692 0.930 . S
C2629 C2628 1.322 . S
C2629 C2630 1.459 . S
C2629 H2693 0.929 . S
C2630 C2629 1.459 . S
C2630 C2631 1.445 . S
C2630 C2639 1.395 . S
C2631 C2609 1.432 . S
C2631 C2630 1.445 . S
C2631 C2632 1.370 . S
C2632 C2631 1.370 . S
C2632 C2633 1.438 . S
C2632 H2694 0.930 . S
C2633 C2619 1.497 . S
C2633 C2632 1.438 . S
C2633 C2634 1.360 . S
C2634 C2633 1.360 . S
C2634 C2635 1.401 . S
C2634 C2639 1.446 . S
C2635 C2634 1.401 . S
C2635 C2636 1.347 . S
C2635 H2695 0.929 . S
C2636 C2635 1.347 . S
C2636 C2637 1.455 . S
C2636 H2696 0.930 . S
C2637 C2624 1.412 . S
C2637 C2636 1.455 . S
C2637 C2638 1.331 . S
C2638 C2627 1.451 . S
C2638 C2637 1.331 . S
C2638 C2639 1.497 . S
C2639 C2630 1.395 . S
C2639 C2634 1.446 . S
C2639 C2638 1.497 . S
C2640 C2641 1.582 . S
C2640 H2697 0.962 . S
C2640 H2698 0.959 . S
C2640 H2699 0.958 . S
C2641 C2640 1.582 . S
C2641 O2644 1.458 . S
C2641 H2670 0.980 . S
O2642 C2587 1.426 . S
O2642 C2588 1.334 . S
O2643 C2615 1.412 . S
O2643 C2616 1.393 . S
O2644 C2606 1.435 . S
O2644 C2641 1.458 . S
O2645 C2597 1.468 . S
O2645 C2598 1.408 . S
H2646 C2587 0.980 . S
H2647 C2586 0.959 . S
H2648 C2586 0.959 . S
H2649 C2586 0.960 . S
H2650 C2589 0.929 . S
H2651 C2593 0.929 . S
H2652 C2594 0.959 . S
H2653 C2594 0.961 . S
H2654 C2594 0.961 . S
H2655 C2595 0.960 . S
H2656 C2595 0.960 . S
H2657 C2595 0.961 . S
H2658 C2597 0.980 . S
H2659 C2596 0.961 . S
H2660 C2596 0.960 . S
H2661 C2596 0.959 . S
H2662 C2599 0.930 . S
H2663 C2603 0.931 . S
H2664 C2604 0.959 . S
H2665 C2604 0.961 . S
H2666 C2604 0.959 . S
H2667 C2605 0.960 . S
H2668 C2605 0.960 . S
H2669 C2605 0.960 . S
H2670 C2641 0.980 . S
H2671 C2607 0.930 . S
H2672 C2611 0.930 . S
H2673 C2612 0.961 . S
H2674 C2612 0.960 . S
H2675 C2612 0.958 . S
H2676 C2613 0.961 . S
H2677 C2613 0.960 . S
H2678 C2613 0.960 . S
H2679 C2615 0.980 . S
H2680 C2614 0.961 . S
H2681 C2614 0.961 . S
H2682 C2614 0.959 . S
H2683 C2617 0.932 . S
H2684 C2621 0.929 . S
H2685 C2622 0.961 . S
H2686 C2622 0.959 . S
H2687 C2622 0.959 . S
H2688 C2623 0.960 . S
H2689 C2623 0.962 . S
H2690 C2623 0.961 . S
H2691 C2625 0.929 . S
H2692 C2628 0.930 . S
H2693 C2629 0.929 . S
H2694 C2632 0.930 . S
H2695 C2635 0.929 . S
H2696 C2636 0.930 . S
H2697 C2640 0.962 . S
H2698 C2640 0.959 . S
H2699 C2640 0.958 . S
C2700 C2701 1.369 . S
C2700 C2702 1.419 . S
C2700 H2704 0.930 . S
C2701 C2700 1.369 . S
C2701 C2710 1.429 1_655 S
C2702 C2700 1.419 . S
C2702 C2703 1.363 . S
C2702 H2705 0.929 . S
C2703 C2702 1.363 . S
C2703 C2709 1.428 1_655 S
H2704 C2700 0.930 . S
H2705 C2702 0.929 . S
S2706 N2707 1.613 . S
S2706 N2708 1.610 . S
N2707 S2706 1.613 . S
N2707 C2710 1.350 . S
N2708 S2706 1.610 . S
N2708 C2709 1.351 . S
C2709 C2703 1.428 1_455 S
C2709 N2708 1.351 . S
C2709 C2710 1.434 . S
C2710 C2701 1.429 1_455 S
C2710 N2707 1.350 . S
C2710 C2709 1.434 . S
C2711 C2712 1.369 . S
C2711 C2713 1.419 . S
C2711 H2715 0.930 . S
C2712 C2711 1.369 . S
C2712 C2721 1.429 . S
C2713 C2711 1.419 . S
C2713 C2714 1.363 . S
C2713 H2716 0.929 . S
C2714 C2713 1.363 . S
C2714 C2720 1.428 . S
H2715 C2711 0.930 . S
H2716 C2713 0.929 . S
S2717 N2718 1.613 . S
S2717 N2719 1.610 . S
N2718 S2717 1.613 . S
N2718 C2721 1.350 . S
N2719 S2717 1.610 . S
N2719 C2720 1.351 . S
C2720 C2714 1.428 . S
C2720 N2719 1.351 . S
C2720 C2721 1.434 . S
C2721 C2712 1.429 . S
C2721 N2718 1.350 . S
C2721 C2720 1.434 . S
C2722 C2723 1.369 . S
C2722 C2724 1.419 . S
C2722 H2726 0.930 . S
C2723 C2722 1.369 . S
C2723 C2732 1.429 . S
C2724 C2722 1.419 . S
C2724 C2725 1.363 . S
C2724 H2727 0.929 . S
C2725 C2724 1.363 . S
C2725 C2731 1.428 . S
H2726 C2722 0.930 . S
H2727 C2724 0.929 . S
S2728 N2729 1.613 . S
S2728 N2730 1.610 . S
N2729 S2728 1.613 . S
N2729 C2732 1.350 . S
N2730 S2728 1.610 . S
N2730 C2731 1.351 . S
C2731 C2725 1.428 . S
C2731 N2730 1.351 . S
C2731 C2732 1.434 . S
C2732 C2723 1.429 . S
C2732 N2729 1.350 . S
C2732 C2731 1.434 . S
C2733 C2734 1.369 . S
C2733 C2735 1.419 . S
C2733 H2737 0.930 . S
C2734 C2733 1.369 . S
C2734 C2743 1.429 . S
C2735 C2733 1.419 . S
C2735 C2736 1.363 . S
C2735 H2738 0.929 . S
C2736 C2735 1.363 . S
C2736 C2742 1.428 . S
H2737 C2733 0.930 . S
H2738 C2735 0.929 . S
S2739 N2740 1.613 . S
S2739 N2741 1.610 . S
N2740 S2739 1.613 . S
N2740 C2743 1.350 . S
N2741 S2739 1.610 . S
N2741 C2742 1.351 . S
C2742 C2736 1.428 . S
C2742 N2741 1.351 . S
C2742 C2743 1.434 . S
C2743 C2734 1.429 . S
C2743 N2740 1.350 . S
C2743 C2742 1.434 . S
C2744 C2745 1.369 . S
C2744 C2746 1.419 . S
C2744 H2748 0.930 . S
C2745 C2744 1.369 . S
C2745 C2754 1.429 1_455 S
C2746 C2744 1.419 . S
C2746 C2747 1.363 . S
C2746 H2749 0.929 . S
C2747 C2746 1.363 . S
C2747 C2753 1.428 1_455 S
H2748 C2744 0.930 . S
H2749 C2746 0.929 . S
S2750 N2751 1.613 . S
S2750 N2752 1.610 . S
N2751 S2750 1.613 . S
N2751 C2754 1.350 . S
N2752 S2750 1.610 . S
N2752 C2753 1.351 . S
C2753 C2747 1.428 1_655 S
C2753 N2752 1.351 . S
C2753 C2754 1.434 . S
C2754 C2745 1.429 1_655 S
C2754 N2751 1.350 . S
C2754 C2753 1.434 . S
C2755 C2756 1.369 . S
C2755 C2757 1.419 . S
C2755 H2759 0.930 . S
C2756 C2755 1.369 . S
C2756 C2765 1.429 . S
C2757 C2755 1.419 . S
C2757 C2758 1.363 . S
C2757 H2760 0.929 . S
C2758 C2757 1.363 . S
C2758 C2764 1.428 . S
H2759 C2755 0.930 . S
H2760 C2757 0.929 . S
S2761 N2762 1.613 . S
S2761 N2763 1.610 . S
N2762 S2761 1.613 . S
N2762 C2765 1.350 . S
N2763 S2761 1.610 . S
N2763 C2764 1.351 . S
C2764 C2758 1.428 . S
C2764 N2763 1.351 . S
C2764 C2765 1.434 . S
C2765 C2756 1.429 . S
C2765 N2762 1.350 . S
C2765 C2764 1.434 . S
C2766 C2767 1.369 . S
C2766 C2768 1.419 . S
C2766 H2770 0.930 . S
C2767 C2766 1.369 . S
C2767 C2776 1.429 1_455 S
C2768 C2766 1.419 . S
C2768 C2769 1.363 . S
C2768 H2771 0.929 . S
C2769 C2768 1.363 . S
C2769 C2775 1.428 1_455 S
H2770 C2766 0.930 . S
H2771 C2768 0.929 . S
S2772 N2773 1.613 . S
S2772 N2774 1.610 . S
N2773 S2772 1.613 . S
N2773 C2776 1.350 . S
N2774 S2772 1.610 . S
N2774 C2775 1.351 . S
C2775 C2769 1.428 1_655 S
C2775 N2774 1.351 . S
C2775 C2776 1.434 . S
C2776 C2767 1.429 1_655 S
C2776 N2773 1.350 . S
C2776 C2775 1.434 . S
C2777 C2778 1.369 . S
C2777 C2779 1.419 . S
C2777 H2781 0.930 . S
C2778 C2777 1.369 . S
C2778 C2787 1.429 . S
C2779 C2777 1.419 . S
C2779 C2780 1.363 . S
C2779 H2782 0.929 . S
C2780 C2779 1.363 . S
C2780 C2786 1.428 . S
H2781 C2777 0.930 . S
H2782 C2779 0.929 . S
S2783 N2784 1.613 . S
S2783 N2785 1.610 . S
N2784 S2783 1.613 . S
N2784 C2787 1.350 . S
N2785 S2783 1.610 . S
N2785 C2786 1.351 . S
C2786 C2780 1.428 . S
C2786 N2785 1.351 . S
C2786 C2787 1.434 . S
C2787 C2778 1.429 . S
C2787 N2784 1.350 . S
C2787 C2786 1.434 . S
C2788 C2789 1.369 . S
C2788 C2790 1.419 . S
C2788 H2792 0.930 . S
C2789 C2788 1.369 . S
C2789 C2798 1.429 . S
C2790 C2788 1.419 . S
C2790 C2791 1.363 . S
C2790 H2793 0.929 . S
C2791 C2790 1.363 . S
C2791 C2797 1.428 . S
H2792 C2788 0.930 . S
H2793 C2790 0.929 . S
S2794 N2795 1.613 1_545 S
S2794 N2796 1.610 . S
N2795 S2794 1.613 1_565 S
N2795 C2798 1.350 . S
N2796 S2794 1.610 . S
N2796 C2797 1.351 1_545 S
C2797 C2791 1.428 . S
C2797 N2796 1.351 1_565 S
C2797 C2798 1.434 . S
C2798 C2789 1.429 . S
C2798 N2795 1.350 . S
C2798 C2797 1.434 . S
C2799 C2800 1.369 . S
C2799 C2801 1.419 . S
C2799 H2803 0.930 . S
C2800 C2799 1.369 . S
C2800 C2809 1.429 1_545 S
C2801 C2799 1.419 . S
C2801 C2802 1.363 . S
C2801 H2804 0.929 . S
C2802 C2801 1.363 . S
C2802 C2808 1.428 1_545 S
H2803 C2799 0.930 . S
H2804 C2801 0.929 . S
S2805 N2806 1.613 . S
S2805 N2807 1.610 . S
N2806 S2805 1.613 . S
N2806 C2809 1.350 . S
N2807 S2805 1.610 . S
N2807 C2808 1.351 . S
C2808 C2802 1.428 1_565 S
C2808 N2807 1.351 . S
C2808 C2809 1.434 . S
C2809 C2800 1.429 1_565 S
C2809 N2806 1.350 . S
C2809 C2808 1.434 . S
C2810 C2811 1.369 1_455 S
C2810 C2812 1.419 . S
C2810 H2814 0.930 . S
C2811 C2810 1.369 1_655 S
C2811 C2820 1.429 . S
C2812 C2810 1.419 . S
C2812 C2813 1.363 1_455 S
C2812 H2815 0.929 . S
C2813 C2812 1.363 1_655 S
C2813 C2819 1.428 . S
H2814 C2810 0.930 . S
H2815 C2812 0.929 . S
S2816 N2817 1.613 . S
S2816 N2818 1.610 . S
N2817 S2816 1.613 . S
N2817 C2820 1.350 . S
N2818 S2816 1.610 . S
N2818 C2819 1.351 . S
C2819 C2813 1.428 . S
C2819 N2818 1.351 . S
C2819 C2820 1.434 . S
C2820 C2811 1.429 . S
C2820 N2817 1.350 . S
C2820 C2819 1.434 . S
C2821 C2822 1.369 . S
C2821 C2823 1.419 . S
C2821 H2825 0.930 . S
C2822 C2821 1.369 . S
C2822 C2831 1.429 . S
C2823 C2821 1.419 . S
C2823 C2824 1.363 . S
C2823 H2826 0.929 . S
C2824 C2823 1.363 . S
C2824 C2830 1.428 . S
H2825 C2821 0.930 . S
H2826 C2823 0.929 . S
S2827 N2828 1.613 . S
S2827 N2829 1.610 . S
N2828 S2827 1.613 . S
N2828 C2831 1.350 . S
N2829 S2827 1.610 . S
N2829 C2830 1.351 . S
C2830 C2824 1.428 . S
C2830 N2829 1.351 . S
C2830 C2831 1.434 . S
C2831 C2822 1.429 . S
C2831 N2828 1.350 . S
C2831 C2830 1.434 . S
C2832 C2833 1.369 . S
C2832 C2834 1.419 . S
C2832 H2836 0.930 . S
C2833 C2832 1.369 . S
C2833 C2842 1.429 . S
C2834 C2832 1.419 . S
C2834 C2835 1.363 . S
C2834 H2837 0.929 . S
C2835 C2834 1.363 . S
C2835 C2841 1.428 . S
H2836 C2832 0.930 . S
H2837 C2834 0.929 . S
S2838 N2839 1.613 . S
S2838 N2840 1.610 . S
N2839 S2838 1.613 . S
N2839 C2842 1.350 . S
N2840 S2838 1.610 . S
N2840 C2841 1.351 . S
C2841 C2835 1.428 . S
C2841 N2840 1.351 . S
C2841 C2842 1.434 . S
C2842 C2833 1.429 . S
C2842 N2839 1.350 . S
C2842 C2841 1.434 . S
C2843 C2844 1.369 . S
C2843 C2845 1.419 . S
C2843 H2847 0.930 . S
C2844 C2843 1.369 . S
C2844 C2853 1.429 . S
C2845 C2843 1.419 . S
C2845 C2846 1.363 . S
C2845 H2848 0.929 . S
C2846 C2845 1.363 . S
C2846 C2852 1.428 . S
H2847 C2843 0.930 . S
H2848 C2845 0.929 . S
S2849 N2850 1.613 . S
S2849 N2851 1.610 . S
N2850 S2849 1.613 . S
N2850 C2853 1.350 . S
N2851 S2849 1.610 . S
N2851 C2852 1.351 . S
C2852 C2846 1.428 . S
C2852 N2851 1.351 . S
C2852 C2853 1.434 . S
C2853 C2844 1.429 . S
C2853 N2850 1.350 . S
C2853 C2852 1.434 . S
C2854 C2855 1.369 . S
C2854 C2856 1.419 . S
C2854 H2858 0.930 . S
C2855 C2854 1.369 . S
C2855 C2864 1.429 . S
C2856 C2854 1.419 . S
C2856 C2857 1.363 . S
C2856 H2859 0.929 . S
C2857 C2856 1.363 . S
C2857 C2863 1.428 . S
H2858 C2854 0.930 . S
H2859 C2856 0.929 . S
S2860 N2861 1.613 . S
S2860 N2862 1.610 . S
N2861 S2860 1.613 . S
N2861 C2864 1.350 . S
N2862 S2860 1.610 . S
N2862 C2863 1.351 . S
C2863 C2857 1.428 . S
C2863 N2862 1.351 . S
C2863 C2864 1.434 . S
C2864 C2855 1.429 . S
C2864 N2861 1.350 . S
C2864 C2863 1.434 . S
C2865 C2866 1.369 . S
C2865 C2867 1.419 . S
C2865 H2869 0.930 . S
C2866 C2865 1.369 . S
C2866 C2875 1.429 . S
C2867 C2865 1.419 . S
C2867 C2868 1.363 . S
C2867 H2870 0.929 . S
C2868 C2867 1.363 . S
C2868 C2874 1.428 . S
H2869 C2865 0.930 . S
H2870 C2867 0.929 . S
S2871 N2872 1.613 . S
S2871 N2873 1.610 . S
N2872 S2871 1.613 . S
N2872 C2875 1.350 . S
N2873 S2871 1.610 . S
N2873 C2874 1.351 . S
C2874 C2868 1.428 . S
C2874 N2873 1.351 . S
C2874 C2875 1.434 . S
C2875 C2866 1.429 . S
C2875 N2872 1.350 . S
C2875 C2874 1.434 . S
C2876 C2877 1.369 . S
C2876 C2878 1.419 . S
C2876 H2880 0.930 . S
C2877 C2876 1.369 . S
C2877 C2886 1.429 . S
C2878 C2876 1.419 . S
C2878 C2879 1.363 . S
C2878 H2881 0.929 . S
C2879 C2878 1.363 . S
C2879 C2885 1.428 . S
H2880 C2876 0.930 . S
H2881 C2878 0.929 . S
S2882 N2883 1.613 . S
S2882 N2884 1.610 . S
N2883 S2882 1.613 . S
N2883 C2886 1.350 . S
N2884 S2882 1.610 . S
N2884 C2885 1.351 . S
C2885 C2879 1.428 . S
C2885 N2884 1.351 . S
C2885 C2886 1.434 . S
C2886 C2877 1.429 . S
C2886 N2883 1.350 . S
C2886 C2885 1.434 . S
C2887 C2888 1.369 . S
C2887 C2889 1.419 . S
C2887 H2891 0.930 . S
C2888 C2887 1.369 . S
C2888 C2897 1.429 . S
C2889 C2887 1.419 . S
C2889 C2890 1.363 . S
C2889 H2892 0.929 . S
C2890 C2889 1.363 . S
C2890 C2896 1.428 . S
H2891 C2887 0.930 . S
H2892 C2889 0.929 . S
S2893 N2894 1.613 . S
S2893 N2895 1.610 . S
N2894 S2893 1.613 . S
N2894 C2897 1.350 . S
N2895 S2893 1.610 . S
N2895 C2896 1.351 . S
C2896 C2890 1.428 . S
C2896 N2895 1.351 . S
C2896 C2897 1.434 . S
C2897 C2888 1.429 . S
C2897 N2894 1.350 . S
C2897 C2896 1.434 . S
C2898 C2899 1.369 . S
C2898 C2900 1.419 . S
C2898 H2902 0.930 . S
C2899 C2898 1.369 . S
C2899 C2908 1.429 . S
C2900 C2898 1.419 . S
C2900 C2901 1.363 . S
C2900 H2903 0.929 . S
C2901 C2900 1.363 . S
C2901 C2907 1.428 . S
H2902 C2898 0.930 . S
H2903 C2900 0.929 . S
S2904 N2905 1.613 1_545 S
S2904 N2906 1.610 1_545 S
N2905 S2904 1.613 1_565 S
N2905 C2908 1.350 . S
N2906 S2904 1.610 1_565 S
N2906 C2907 1.351 . S
C2907 C2901 1.428 . S
C2907 N2906 1.351 . S
C2907 C2908 1.434 . S
C2908 C2899 1.429 . S
C2908 N2905 1.350 . S
C2908 C2907 1.434 . S
C2909 C2910 1.369 . S
C2909 C2911 1.419 . S
C2909 H2913 0.930 . S
C2910 C2909 1.369 . S
C2910 C2919 1.429 . S
C2911 C2909 1.419 . S
C2911 C2912 1.363 . S
C2911 H2914 0.929 . S
C2912 C2911 1.363 . S
C2912 C2918 1.428 . S
H2913 C2909 0.930 . S
H2914 C2911 0.929 . S
S2915 N2916 1.613 . S
S2915 N2917 1.610 . S
N2916 S2915 1.613 . S
N2916 C2919 1.350 . S
N2917 S2915 1.610 . S
N2917 C2918 1.351 . S
C2918 C2912 1.428 . S
C2918 N2917 1.351 . S
C2918 C2919 1.434 . S
C2919 C2910 1.429 . S
C2919 N2916 1.350 . S
C2919 C2918 1.434 . S
C2920 C2921 1.369 . S
C2920 C2922 1.419 . S
C2920 H2924 0.930 . S
C2921 C2920 1.369 . S
C2921 C2930 1.429 . S
C2922 C2920 1.419 . S
C2922 C2923 1.363 . S
C2922 H2925 0.929 . S
C2923 C2922 1.363 . S
C2923 C2929 1.428 . S
H2924 C2920 0.930 . S
H2925 C2922 0.929 . S
S2926 N2927 1.613 . S
S2926 N2928 1.610 . S
N2927 S2926 1.613 . S
N2927 C2930 1.350 . S
N2928 S2926 1.610 . S
N2928 C2929 1.351 . S
C2929 C2923 1.428 . S
C2929 N2928 1.351 . S
C2929 C2930 1.434 . S
C2930 C2921 1.429 . S
C2930 N2927 1.350 . S
C2930 C2929 1.434 . S
C2931 C2932 1.369 . S
C2931 C2933 1.419 . S
C2931 H2935 0.930 . S
C2932 C2931 1.369 . S
C2932 C2941 1.429 . S
C2933 C2931 1.419 . S
C2933 C2934 1.363 . S
C2933 H2936 0.929 . S
C2934 C2933 1.363 . S
C2934 C2940 1.428 . S
H2935 C2931 0.930 . S
H2936 C2933 0.929 . S
S2937 N2938 1.613 . S
S2937 N2939 1.610 . S
N2938 S2937 1.613 . S
N2938 C2941 1.350 . S
N2939 S2937 1.610 . S
N2939 C2940 1.351 . S
C2940 C2934 1.428 . S
C2940 N2939 1.351 . S
C2940 C2941 1.434 . S
C2941 C2932 1.429 . S
C2941 N2938 1.350 . S
C2941 C2940 1.434 . S
C2942 C2943 1.369 . S
C2942 C2944 1.419 . S
C2942 H2946 0.930 . S
C2943 C2942 1.369 . S
C2943 C2952 1.429 . S
C2944 C2942 1.419 . S
C2944 C2945 1.363 . S
C2944 H2947 0.929 . S
C2945 C2944 1.363 . S
C2945 C2951 1.428 . S
H2946 C2942 0.930 . S
H2947 C2944 0.929 . S
S2948 N2949 1.613 . S
S2948 N2950 1.610 . S
N2949 S2948 1.613 . S
N2949 C2952 1.350 . S
N2950 S2948 1.610 . S
N2950 C2951 1.351 . S
C2951 C2945 1.428 . S
C2951 N2950 1.351 . S
C2951 C2952 1.434 . S
C2952 C2943 1.429 . S
C2952 N2949 1.350 . S
C2952 C2951 1.434 . S
C2953 C2954 1.369 . S
C2953 C2955 1.419 . S
C2953 H2957 0.930 . S
C2954 C2953 1.369 . S
C2954 C2963 1.429 . S
C2955 C2953 1.419 . S
C2955 C2956 1.363 . S
C2955 H2958 0.929 . S
C2956 C2955 1.363 . S
C2956 C2962 1.428 . S
H2957 C2953 0.930 . S
H2958 C2955 0.929 . S
S2959 N2960 1.613 . S
S2959 N2961 1.610 . S
N2960 S2959 1.613 . S
N2960 C2963 1.350 . S
N2961 S2959 1.610 . S
N2961 C2962 1.351 . S
C2962 C2956 1.428 . S
C2962 N2961 1.351 . S
C2962 C2963 1.434 . S
C2963 C2954 1.429 . S
C2963 N2960 1.350 . S
C2963 C2962 1.434 . S
C2964 C2965 1.369 . S
C2964 C2966 1.419 . S
C2964 H2968 0.930 . S
C2965 C2964 1.369 . S
C2965 C2974 1.429 . S
C2966 C2964 1.419 . S
C2966 C2967 1.363 . S
C2966 H2969 0.929 . S
C2967 C2966 1.363 . S
C2967 C2973 1.428 . S
H2968 C2964 0.930 . S
H2969 C2966 0.929 . S
S2970 N2971 1.612 1_565 S
S2970 N2972 1.601 1_565 S
N2971 S2970 1.612 1_545 S
N2971 C2974 1.350 . S
N2972 S2970 1.601 1_545 S
N2972 C2973 1.351 . S
C2973 C2967 1.428 . S
C2973 N2972 1.351 . S
C2973 C2974 1.434 . S
C2974 C2965 1.429 . S
C2974 N2971 1.350 . S
C2974 C2973 1.434 . S
C2975 C2976 1.369 . S
C2975 C2977 1.419 . S
C2975 H2979 0.930 . S
C2976 C2975 1.369 . S
C2976 C2985 1.429 . S
C2977 C2975 1.419 . S
C2977 C2978 1.363 . S
C2977 H2980 0.929 . S
C2978 C2977 1.363 . S
C2978 C2984 1.428 . S
H2979 C2975 0.930 . S
H2980 C2977 0.929 . S
S2981 N2982 1.613 . S
S2981 N2983 1.610 . S
N2982 S2981 1.613 . S
N2982 C2985 1.350 . S
N2983 S2981 1.610 . S
N2983 C2984 1.351 . S
C2984 C2978 1.428 . S
C2984 N2983 1.351 . S
C2984 C2985 1.434 . S
C2985 C2976 1.429 . S
C2985 N2982 1.350 . S
C2985 C2984 1.434 . S
C2986 C2987 1.369 . S
C2986 C2988 1.419 . S
C2986 H2990 0.930 . S
C2987 C2986 1.369 . S
C2987 C2996 1.429 . S
C2988 C2986 1.419 . S
C2988 C2989 1.363 . S
C2988 H2991 0.929 . S
C2989 C2988 1.363 . S
C2989 C2995 1.428 . S
H2990 C2986 0.930 . S
H2991 C2988 0.929 . S
S2992 N2993 1.613 . S
S2992 N2994 1.610 . S
N2993 S2992 1.613 . S
N2993 C2996 1.350 . S
N2994 S2992 1.610 . S
N2994 C2995 1.351 . S
C2995 C2989 1.428 . S
C2995 N2994 1.351 . S
C2995 C2996 1.434 . S
C2996 C2987 1.429 . S
C2996 N2993 1.350 . S
C2996 C2995 1.434 . S
C2997 C2998 1.369 . S
C2997 C2999 1.419 . S
C2997 H3001 0.930 . S
C2998 C2997 1.369 . S
C2998 C3007 1.429 . S
C2999 C2997 1.419 . S
C2999 C3000 1.363 . S
C2999 H3002 0.929 . S
C3000 C2999 1.363 . S
C3000 C3006 1.428 . S
H3001 C2997 0.930 . S
H3002 C2999 0.929 . S
S3003 N3004 1.613 . S
S3003 N3005 1.610 . S
N3004 S3003 1.613 . S
N3004 C3007 1.350 . S
N3005 S3003 1.610 . S
N3005 C3006 1.351 . S
C3006 C3000 1.428 . S
C3006 N3005 1.351 . S
C3006 C3007 1.434 . S
C3007 C2998 1.429 . S
C3007 N3004 1.350 . S
C3007 C3006 1.434 . S
C3008 C3009 1.369 . S
C3008 C3010 1.419 . S
C3008 H3012 0.930 . S
C3009 C3008 1.369 . S
C3009 C3018 1.429 . S
C3010 C3008 1.419 . S
C3010 C3011 1.363 . S
C3010 H3013 0.929 . S
C3011 C3010 1.363 . S
C3011 C3017 1.428 . S
H3012 C3008 0.930 . S
H3013 C3010 0.929 . S
S3014 N3015 1.613 . S
S3014 N3016 1.610 . S
N3015 S3014 1.613 . S
N3015 C3018 1.350 . S
N3016 S3014 1.610 . S
N3016 C3017 1.351 . S
C3017 C3011 1.428 . S
C3017 N3016 1.351 . S
C3017 C3018 1.434 . S
C3018 C3009 1.429 . S
C3018 N3015 1.350 . S
C3018 C3017 1.434 . S
C3019 C3020 1.369 . S
C3019 C3021 1.419 . S
C3019 H3023 0.930 . S
C3020 C3019 1.369 . S
C3020 C3029 1.429 . S
C3021 C3019 1.419 . S
C3021 C3022 1.363 . S
C3021 H3024 0.929 . S
C3022 C3021 1.363 . S
C3022 C3028 1.428 . S
H3023 C3019 0.930 . S
H3024 C3021 0.929 . S
S3025 N3026 1.613 . S
S3025 N3027 1.610 . S
N3026 S3025 1.613 . S
N3026 C3029 1.350 . S
N3027 S3025 1.610 . S
N3027 C3028 1.351 . S
C3028 C3022 1.428 . S
C3028 N3027 1.351 . S
C3028 C3029 1.434 . S
C3029 C3020 1.429 . S
C3029 N3026 1.350 . S
C3029 C3028 1.434 . S
C3030 C3031 1.369 . S
C3030 C3032 1.419 . S
C3030 H3034 0.930 . S
C3031 C3030 1.369 . S
C3031 C3040 1.429 . S
C3032 C3030 1.419 . S
C3032 C3033 1.363 . S
C3032 H3035 0.929 . S
C3033 C3032 1.363 . S
C3033 C3039 1.428 . S
H3034 C3030 0.930 . S
H3035 C3032 0.929 . S
S3036 N3037 1.613 . S
S3036 N3038 1.610 . S
N3037 S3036 1.613 . S
N3037 C3040 1.350 . S
N3038 S3036 1.610 . S
N3038 C3039 1.351 . S
C3039 C3033 1.428 . S
C3039 N3038 1.351 . S
C3039 C3040 1.434 . S
C3040 C3031 1.429 . S
C3040 N3037 1.350 . S
C3040 C3039 1.434 . S
C3041 C3042 1.369 . S
C3041 C3043 1.419 . S
C3041 H3045 0.930 . S
C3042 C3041 1.369 . S
C3042 C3051 1.429 . S
C3043 C3041 1.419 . S
C3043 C3044 1.363 . S
C3043 H3046 0.929 . S
C3044 C3043 1.363 . S
C3044 C3050 1.428 . S
H3045 C3041 0.930 . S
H3046 C3043 0.929 . S
S3047 N3048 1.613 . S
S3047 N3049 1.610 . S
N3048 S3047 1.613 . S
N3048 C3051 1.350 . S
N3049 S3047 1.610 . S
N3049 C3050 1.351 . S
C3050 C3044 1.428 . S
C3050 N3049 1.351 . S
C3050 C3051 1.434 . S
C3051 C3042 1.429 . S
C3051 N3048 1.350 . S
C3051 C3050 1.434 . S
C3052 C3053 1.369 . S
C3052 C3054 1.419 . S
C3052 H3056 0.930 . S
C3053 C3052 1.369 . S
C3053 C3062 1.429 . S
C3054 C3052 1.419 . S
C3054 C3055 1.363 . S
C3054 H3057 0.929 . S
C3055 C3054 1.363 . S
C3055 C3061 1.428 . S
H3056 C3052 0.930 . S
H3057 C3054 0.929 . S
S3058 N3059 1.613 . S
S3058 N3060 1.610 . S
N3059 S3058 1.613 . S
N3059 C3062 1.350 . S
N3060 S3058 1.610 . S
N3060 C3061 1.351 . S
C3061 C3055 1.428 . S
C3061 N3060 1.351 . S
C3061 C3062 1.434 . S
C3062 C3053 1.429 . S
C3062 N3059 1.350 . S
C3062 C3061 1.434 . S
C3063 C3064 1.369 . S
C3063 C3065 1.419 . S
C3063 H3067 0.930 . S
C3064 C3063 1.369 . S
C3064 C3073 1.429 . S
C3065 C3063 1.419 . S
C3065 C3066 1.363 . S
C3065 H3068 0.929 . S
C3066 C3065 1.363 . S
C3066 C3072 1.428 . S
H3067 C3063 0.930 . S
H3068 C3065 0.929 . S
S3069 N3070 1.613 . S
S3069 N3071 1.610 . S
N3070 S3069 1.613 . S
N3070 C3073 1.350 . S
N3071 S3069 1.610 . S
N3071 C3072 1.351 . S
C3072 C3066 1.428 . S
C3072 N3071 1.351 . S
C3072 C3073 1.434 . S
C3073 C3064 1.429 . S
C3073 N3070 1.350 . S
C3073 C3072 1.434 . S
C3074 C3075 1.369 . S
C3074 C3076 1.419 . S
C3074 H3078 0.930 . S
C3075 C3074 1.369 . S
C3075 C3084 1.429 . S
C3076 C3074 1.419 . S
C3076 C3077 1.363 . S
C3076 H3079 0.929 . S
C3077 C3076 1.363 . S
C3077 C3083 1.428 . S
H3078 C3074 0.930 . S
H3079 C3076 0.929 . S
S3080 N3081 1.613 . S
S3080 N3082 1.610 . S
N3081 S3080 1.613 . S
N3081 C3084 1.350 . S
N3082 S3080 1.610 . S
N3082 C3083 1.351 . S
C3083 C3077 1.428 . S
C3083 N3082 1.351 . S
C3083 C3084 1.434 . S
C3084 C3075 1.429 . S
C3084 N3081 1.350 . S
C3084 C3083 1.434 . S
C3085 C3086 1.369 . S
C3085 C3087 1.419 . S
C3085 H3089 0.930 . S
C3086 C3085 1.369 . S
C3086 C3095 1.429 . S
C3087 C3085 1.419 . S
C3087 C3088 1.363 . S
C3087 H3090 0.929 . S
C3088 C3087 1.363 . S
C3088 C3094 1.428 . S
H3089 C3085 0.930 . S
H3090 C3087 0.929 . S
S3091 N3092 1.613 . S
S3091 N3093 1.610 . S
N3092 S3091 1.613 . S
N3092 C3095 1.350 . S
N3093 S3091 1.610 . S
N3093 C3094 1.351 . S
C3094 C3088 1.428 . S
C3094 N3093 1.351 . S
C3094 C3095 1.434 . S
C3095 C3086 1.429 . S
C3095 N3092 1.350 . S
C3095 C3094 1.434 . S
C3096 C3097 1.369 . S
C3096 C3098 1.419 . S
C3096 H3100 0.930 . S
C3097 C3096 1.369 . S
C3097 C3106 1.429 . S
C3098 C3096 1.419 . S
C3098 C3099 1.363 . S
C3098 H3101 0.929 . S
C3099 C3098 1.363 . S
C3099 C3105 1.428 . S
H3100 C3096 0.930 . S
H3101 C3098 0.929 . S
S3102 N3103 1.613 1_655 S
S3102 N3104 1.610 1_655 S
N3103 S3102 1.613 1_455 S
N3103 C3106 1.350 . S
N3104 S3102 1.610 1_455 S
N3104 C3105 1.351 . S
C3105 C3099 1.428 . S
C3105 N3104 1.351 . S
C3105 C3106 1.434 . S
C3106 C3097 1.429 . S
C3106 N3103 1.350 . S
C3106 C3105 1.434 . S
C3107 C3108 1.369 . S
C3107 C3109 1.419 . S
C3107 H3111 0.930 . S
C3108 C3107 1.369 . S
C3108 C3117 1.429 . S
C3109 C3107 1.419 . S
C3109 C3110 1.363 . S
C3109 H3112 0.929 . S
C3110 C3109 1.363 . S
C3110 C3116 1.428 . S
H3111 C3107 0.930 . S
H3112 C3109 0.929 . S
S3113 N3114 1.613 . S
S3113 N3115 1.610 . S
N3114 S3113 1.613 . S
N3114 C3117 1.350 . S
N3115 S3113 1.610 . S
N3115 C3116 1.351 . S
C3116 C3110 1.428 . S
C3116 N3115 1.351 . S
C3116 C3117 1.434 . S
C3117 C3108 1.429 . S
C3117 N3114 1.350 . S
C3117 C3116 1.434 . S
C3118 C3119 1.369 . S
C3118 C3120 1.419 . S
C3118 H3122 0.930 . S
C3119 C3118 1.369 . S
C3119 C3128 1.429 . S
C3120 C3118 1.419 . S
C3120 C3121 1.363 . S
C3120 H3123 0.929 . S
C3121 C3120 1.363 . S
C3121 C3127 1.428 . S
H3122 C3118 0.930 . S
H3123 C3120 0.929 . S
S3124 N3125 1.613 . S
S3124 N3126 1.610 . S
N3125 S3124 1.613 . S
N3125 C3128 1.350 . S
N3126 S3124 1.610 . S
N3126 C3127 1.351 . S
C3127 C3121 1.428 . S
C3127 N3126 1.351 . S
C3127 C3128 1.434 . S
C3128 C3119 1.429 . S
C3128 N3125 1.350 . S
C3128 C3127 1.434 . S
C3129 C3130 1.369 . S
C3129 C3131 1.419 . S
C3129 H3133 0.930 . S
C3130 C3129 1.369 . S
C3130 C3139 1.429 . S
C3131 C3129 1.419 . S
C3131 C3132 1.363 . S
C3131 H3134 0.929 . S
C3132 C3131 1.363 . S
C3132 C3138 1.428 . S
H3133 C3129 0.930 . S
H3134 C3131 0.929 . S
S3135 N3136 1.613 . S
S3135 N3137 1.610 . S
N3136 S3135 1.613 . S
N3136 C3139 1.350 . S
N3137 S3135 1.610 . S
N3137 C3138 1.351 . S
C3138 C3132 1.428 . S
C3138 N3137 1.351 . S
C3138 C3139 1.434 . S
C3139 C3130 1.429 . S
C3139 N3136 1.350 . S
C3139 C3138 1.434 . S
C3140 C3141 1.369 . S
C3140 C3142 1.419 . S
C3140 H3144 0.930 . S
C3141 C3140 1.369 . S
C3141 C3150 1.429 . S
C3142 C3140 1.419 . S
C3142 C3143 1.363 . S
C3142 H3145 0.929 . S
C3143 C3142 1.363 . S
C3143 C3149 1.428 . S
H3144 C3140 0.930 . S
H3145 C3142 0.929 . S
S3146 N3147 1.567 1_455 S
S3146 N3148 1.610 1_455 S
N3147 S3146 1.567 1_655 S
N3147 C3150 1.396 . S
N3148 S3146 1.610 1_655 S
N3148 C3149 1.351 . S
C3149 C3143 1.428 . S
C3149 N3148 1.351 . S
C3149 C3150 1.434 . S
C3150 C3141 1.429 . S
C3150 N3147 1.396 . S
C3150 C3149 1.434 . S
C3151 C3152 1.369 . S
C3151 C3153 1.419 . S
C3151 H3155 0.930 . S
C3152 C3151 1.369 . S
C3152 C3161 1.429 . S
C3153 C3151 1.419 . S
C3153 C3154 1.363 . S
C3153 H3156 0.929 . S
C3154 C3153 1.363 . S
C3154 C3160 1.428 . S
H3155 C3151 0.930 . S
H3156 C3153 0.929 . S
S3157 N3158 1.613 . S
S3157 N3159 1.610 . S
N3158 S3157 1.613 . S
N3158 C3161 1.350 . S
N3159 S3157 1.610 . S
N3159 C3160 1.351 . S
C3160 C3154 1.428 . S
C3160 N3159 1.351 . S
C3160 C3161 1.434 . S
C3161 C3152 1.429 . S
C3161 N3158 1.350 . S
C3161 C3160 1.434 . S
C3162 C3163 1.369 . S
C3162 C3164 1.419 . S
C3162 H3166 0.930 1_556 S
C3163 C3162 1.369 . S
C3163 C3172 1.429 . S
C3164 C3162 1.419 . S
C3164 C3165 1.363 . S
C3164 H3167 0.929 . S
C3165 C3164 1.363 . S
C3165 C3171 1.428 . S
H3166 C3162 0.930 1_554 S
H3167 C3164 0.929 . S
S3168 N3169 1.613 . S
S3168 N3170 1.610 . S
N3169 S3168 1.613 . S
N3169 C3172 1.350 . S
N3170 S3168 1.610 . S
N3170 C3171 1.351 . S
C3171 C3165 1.428 . S
C3171 N3170 1.351 . S
C3171 C3172 1.434 . S
C3172 C3163 1.429 . S
C3172 N3169 1.350 . S
C3172 C3171 1.434 . S
C3173 C3174 1.369 . S
C3173 C3175 1.419 . S
C3173 H3177 0.930 . S
C3174 C3173 1.369 . S
C3174 C3183 1.429 . S
C3175 C3173 1.419 . S
C3175 C3176 1.363 . S
C3175 H3178 0.929 . S
C3176 C3175 1.363 . S
C3176 C3182 1.428 . S
H3177 C3173 0.930 . S
H3178 C3175 0.929 . S
S3179 N3180 1.613 . S
S3179 N3181 1.610 . S
N3180 S3179 1.613 . S
N3180 C3183 1.350 . S
N3181 S3179 1.610 . S
N3181 C3182 1.351 . S
C3182 C3176 1.428 . S
C3182 N3181 1.351 . S
C3182 C3183 1.434 . S
C3183 C3174 1.429 . S
C3183 N3180 1.350 . S
C3183 C3182 1.434 . S
C3184 C3185 1.369 . S
C3184 C3186 1.419 . S
C3184 H3188 0.930 1_556 S
C3185 C3184 1.369 . S
C3185 C3194 1.429 . S
C3186 C3184 1.419 . S
C3186 C3187 1.363 . S
C3186 H3189 0.929 . S
C3187 C3186 1.363 . S
C3187 C3193 1.428 . S
H3188 C3184 0.930 1_554 S
H3189 C3186 0.929 . S
S3190 N3191 1.613 . S
S3190 N3192 1.610 . S
N3191 S3190 1.613 . S
N3191 C3194 1.350 . S
N3192 S3190 1.610 . S
N3192 C3193 1.351 . S
C3193 C3187 1.428 . S
C3193 N3192 1.351 . S
C3193 C3194 1.434 . S
C3194 C3185 1.429 . S
C3194 N3191 1.350 . S
C3194 C3193 1.434 . S
C3195 C3196 1.369 . S
C3195 C3197 1.419 . S
C3195 H3199 0.930 . S
C3196 C3195 1.369 . S
C3196 C3205 1.429 . S
C3197 C3195 1.419 . S
C3197 C3198 1.363 . S
C3197 H3200 0.929 . S
C3198 C3197 1.363 . S
C3198 C3204 1.428 . S
H3199 C3195 0.930 . S
H3200 C3197 0.929 . S
S3201 N3202 1.613 . S
S3201 N3203 1.610 . S
N3202 S3201 1.613 . S
N3202 C3205 1.350 . S
N3203 S3201 1.610 . S
N3203 C3204 1.351 . S
C3204 C3198 1.428 . S
C3204 N3203 1.351 . S
C3204 C3205 1.434 . S
C3205 C3196 1.429 . S
C3205 N3202 1.350 . S
C3205 C3204 1.434 . S
C3206 C3207 1.369 . S
C3206 C3208 1.419 . S
C3206 H3210 0.930 . S
C3207 C3206 1.369 . S
C3207 C3216 1.429 . S
C3208 C3206 1.419 . S
C3208 C3209 1.363 . S
C3208 H3211 0.929 . S
C3209 C3208 1.363 . S
C3209 C3215 1.428 . S
H3210 C3206 0.930 . S
H3211 C3208 0.929 . S
S3212 N3213 1.615 . S
S3212 N3214 1.611 . S
N3213 S3212 1.615 . S
N3213 C3216 1.350 . S
N3214 S3212 1.611 . S
N3214 C3215 1.351 . S
C3215 C3209 1.428 . S
C3215 N3214 1.351 . S
C3215 C3216 1.434 . S
C3216 C3207 1.429 . S
C3216 N3213 1.350 . S
C3216 C3215 1.434 . S
C3217 C3218 1.369 . S
C3217 C3219 1.419 . S
C3217 H3221 0.930 . S
C3218 C3217 1.369 . S
C3218 C3227 1.429 . S
C3219 C3217 1.419 . S
C3219 C3220 1.363 . S
C3219 H3222 0.929 . S
C3220 C3219 1.363 . S
C3220 C3226 1.428 . S
H3221 C3217 0.930 . S
H3222 C3219 0.929 . S
S3223 N3224 1.613 . S
S3223 N3225 1.610 . S
N3224 S3223 1.613 . S
N3224 C3227 1.350 . S
N3225 S3223 1.610 . S
N3225 C3226 1.351 . S
C3226 C3220 1.428 . S
C3226 N3225 1.351 . S
C3226 C3227 1.434 . S
C3227 C3218 1.429 . S
C3227 N3224 1.350 . S
C3227 C3226 1.434 . S
C3228 C3229 1.369 . S
C3228 C3230 1.419 . S
C3228 H3232 0.930 . S
C3229 C3228 1.369 . S
C3229 C3238 1.429 . S
C3230 C3228 1.419 . S
C3230 C3231 1.363 . S
C3230 H3233 0.929 . S
C3231 C3230 1.363 . S
C3231 C3237 1.428 . S
H3232 C3228 0.930 . S
H3233 C3230 0.929 . S
S3234 N3235 1.613 . S
S3234 N3236 1.610 . S
N3235 S3234 1.613 . S
N3235 C3238 1.350 . S
N3236 S3234 1.610 . S
N3236 C3237 1.351 . S
C3237 C3231 1.428 . S
C3237 N3236 1.351 . S
C3237 C3238 1.434 . S
C3238 C3229 1.429 . S
C3238 N3235 1.350 . S
C3238 C3237 1.434 . S
C3239 C3240 1.369 . S
C3239 C3241 1.419 . S
C3239 H3243 0.930 . S
C3240 C3239 1.369 . S
C3240 C3249 1.429 . S
C3241 C3239 1.419 . S
C3241 C3242 1.363 . S
C3241 H3244 0.929 . S
C3242 C3241 1.363 . S
C3242 C3248 1.428 . S
H3243 C3239 0.930 . S
H3244 C3241 0.929 . S
S3245 N3246 1.613 . S
S3245 N3247 1.610 . S
N3246 S3245 1.613 . S
N3246 C3249 1.350 . S
N3247 S3245 1.610 . S
N3247 C3248 1.351 . S
C3248 C3242 1.428 . S
C3248 N3247 1.351 . S
C3248 C3249 1.434 . S
C3249 C3240 1.429 . S
C3249 N3246 1.350 . S
C3249 C3248 1.434 . S
C3250 C3251 1.369 . S
C3250 C3252 1.419 . S
C3250 H3254 0.930 . S
C3251 C3250 1.369 . S
C3251 C3260 1.429 . S
C3252 C3250 1.419 . S
C3252 C3253 1.363 . S
C3252 H3255 0.929 . S
C3253 C3252 1.363 . S
C3253 C3259 1.428 . S
H3254 C3250 0.930 . S
H3255 C3252 0.929 . S
S3256 N3257 1.613 . S
S3256 N3258 1.610 . S
N3257 S3256 1.613 . S
N3257 C3260 1.350 . S
N3258 S3256 1.610 . S
N3258 C3259 1.351 . S
C3259 C3253 1.428 . S
C3259 N3258 1.351 . S
C3259 C3260 1.434 . S
C3260 C3251 1.429 . S
C3260 N3257 1.350 . S
C3260 C3259 1.434 . S
C3261 C3262 1.369 . S
C3261 C3263 1.419 . S
C3261 H3265 0.930 . S
C3262 C3261 1.369 . S
C3262 C3271 1.429 . S
C3263 C3261 1.419 . S
C3263 C3264 1.363 . S
C3263 H3266 0.929 . S
C3264 C3263 1.363 . S
C3264 C3270 1.428 . S
H3265 C3261 0.930 . S
H3266 C3263 0.929 . S
S3267 N3268 1.613 . S
S3267 N3269 1.610 . S
N3268 S3267 1.613 . S
N3268 C3271 1.350 . S
N3269 S3267 1.610 . S
N3269 C3270 1.351 . S
C3270 C3264 1.428 . S
C3270 N3269 1.351 . S
C3270 C3271 1.434 . S
C3271 C3262 1.429 . S
C3271 N3268 1.350 . S
C3271 C3270 1.434 . S
C3272 C3273 1.369 . S
C3272 C3274 1.419 . S
C3272 H3276 0.930 . S
C3273 C3272 1.369 . S
C3273 C3282 1.429 . S
C3274 C3272 1.419 . S
C3274 C3275 1.363 . S
C3274 H3277 0.929 . S
C3275 C3274 1.363 . S
C3275 C3281 1.428 . S
H3276 C3272 0.930 . S
H3277 C3274 0.929 . S
S3278 N3279 1.613 . S
S3278 N3280 1.610 . S
N3279 S3278 1.613 . S
N3279 C3282 1.350 . S
N3280 S3278 1.610 . S
N3280 C3281 1.351 . S
C3281 C3275 1.428 . S
C3281 N3280 1.351 . S
C3281 C3282 1.434 . S
C3282 C3273 1.429 . S
C3282 N3279 1.350 . S
C3282 C3281 1.434 . S
C3283 C3284 1.371 . S
C3283 C3285 1.426 . S
C3283 H3287 0.912 1_565 S
C3284 C3283 1.371 . S
C3284 C3293 1.429 . S
C3285 C3283 1.426 . S
C3285 C3286 1.374 . S
C3285 H3288 0.929 1_565 S
C3286 C3285 1.374 . S
C3286 C3292 1.428 . S
H3287 C3283 0.912 1_545 S
H3288 C3285 0.929 1_545 S
S3289 N3290 1.613 . S
S3289 N3291 1.610 . S
N3290 S3289 1.613 . S
N3290 C3293 1.350 . S
N3291 S3289 1.610 . S
N3291 C3292 1.351 . S
C3292 C3286 1.428 . S
C3292 N3291 1.351 . S
C3292 C3293 1.434 . S
C3293 C3284 1.429 . S
C3293 N3290 1.350 . S
C3293 C3292 1.434 . S
C3294 C3295 1.369 . S
C3294 C3296 1.419 . S
C3294 H3298 0.930 . S
C3295 C3294 1.369 . S
C3295 C3304 1.429 1_565 S
C3296 C3294 1.419 . S
C3296 C3297 1.363 . S
C3296 H3299 0.929 . S
C3297 C3296 1.363 . S
C3297 C3303 1.428 1_565 S
H3298 C3294 0.930 . S
H3299 C3296 0.929 . S
S3300 N3301 1.613 . S
S3300 N3302 1.610 . S
N3301 S3300 1.613 . S
N3301 C3304 1.350 . S
N3302 S3300 1.610 . S
N3302 C3303 1.351 . S
C3303 C3297 1.428 1_545 S
C3303 N3302 1.351 . S
C3303 C3304 1.434 . S
C3304 C3295 1.429 1_545 S
C3304 N3301 1.350 . S
C3304 C3303 1.434 . S
C3305 C3306 1.369 . S
C3305 C3307 1.419 . S
C3305 H3309 0.930 . S
C3306 C3305 1.369 . S
C3306 C3315 1.429 1_455 S
C3307 C3305 1.419 . S
C3307 C3308 1.363 . S
C3307 H3310 0.929 . S
C3308 C3307 1.363 . S
C3308 C3314 1.428 1_455 S
H3309 C3305 0.930 . S
H3310 C3307 0.929 . S
S3311 N3312 1.613 . S
S3311 N3313 1.610 . S
N3312 S3311 1.613 . S
N3312 C3315 1.350 . S
N3313 S3311 1.610 . S
N3313 C3314 1.351 . S
C3314 C3308 1.428 1_655 S
C3314 N3313 1.351 . S
C3314 C3315 1.434 . S
C3315 C3306 1.429 1_655 S
C3315 N3312 1.350 . S
C3315 C3314 1.434 . S
C3316 C3317 1.369 . S
C3316 C3318 1.419 . S
C3316 H3320 0.930 . S
C3317 C3316 1.369 . S
C3317 C3326 1.429 . S
C3318 C3316 1.419 . S
C3318 C3319 1.363 . S
C3318 H3321 0.929 . S
C3319 C3318 1.363 . S
C3319 C3325 1.428 . S
H3320 C3316 0.930 . S
H3321 C3318 0.929 . S
S3322 N3323 1.613 . S
S3322 N3324 1.610 . S
N3323 S3322 1.613 . S
N3323 C3326 1.350 . S
N3324 S3322 1.610 . S
N3324 C3325 1.351 . S
C3325 C3319 1.428 . S
C3325 N3324 1.351 . S
C3325 C3326 1.434 . S
C3326 C3317 1.429 . S
C3326 N3323 1.350 . S
C3326 C3325 1.434 . S
C3327 C3328 1.369 . S
C3327 C3329 1.419 . S
C3327 H3331 0.930 . S
C3328 C3327 1.369 . S
C3328 C3337 1.429 . S
C3329 C3327 1.419 . S
C3329 C3330 1.363 . S
C3329 H3332 0.929 . S
C3330 C3329 1.363 . S
C3330 C3336 1.428 . S
H3331 C3327 0.930 . S
H3332 C3329 0.929 . S
S3333 N3334 1.613 . S
S3333 N3335 1.610 . S
N3334 S3333 1.613 . S
N3334 C3337 1.350 . S
N3335 S3333 1.610 . S
N3335 C3336 1.351 . S
C3336 C3330 1.428 . S
C3336 N3335 1.351 . S
C3336 C3337 1.434 . S
C3337 C3328 1.429 . S
C3337 N3334 1.350 . S
C3337 C3336 1.434 . S
C3338 C3339 1.369 . S
C3338 C3340 1.419 . S
C3338 H3342 0.930 . S
C3339 C3338 1.369 . S
C3339 C3348 1.429 . S
C3340 C3338 1.419 . S
C3340 C3341 1.363 . S
C3340 H3343 0.929 . S
C3341 C3340 1.363 . S
C3341 C3347 1.428 . S
H3342 C3338 0.930 . S
H3343 C3340 0.929 . S
S3344 N3345 1.613 . S
S3344 N3346 1.610 . S
N3345 S3344 1.613 . S
N3345 C3348 1.350 . S
N3346 S3344 1.610 . S
N3346 C3347 1.351 . S
C3347 C3341 1.428 . S
C3347 N3346 1.351 . S
C3347 C3348 1.434 . S
C3348 C3339 1.429 . S
C3348 N3345 1.350 . S
C3348 C3347 1.434 . S
C3349 C3350 1.369 . S
C3349 C3351 1.419 . S
C3349 H3353 0.930 . S
C3350 C3349 1.369 . S
C3350 C3359 1.429 . S
C3351 C3349 1.419 . S
C3351 C3352 1.363 . S
C3351 H3354 0.929 . S
C3352 C3351 1.363 . S
C3352 C3358 1.428 . S
H3353 C3349 0.930 . S
H3354 C3351 0.929 . S
S3355 N3356 1.613 . S
S3355 N3357 1.610 . S
N3356 S3355 1.613 . S
N3356 C3359 1.350 . S
N3357 S3355 1.610 . S
N3357 C3358 1.351 . S
C3358 C3352 1.428 . S
C3358 N3357 1.351 . S
C3358 C3359 1.434 . S
C3359 C3350 1.429 . S
C3359 N3356 1.350 . S
C3359 C3358 1.434 . S
C3360 C3361 1.369 . S
C3360 C3362 1.419 . S
C3360 H3364 0.930 . S
C3361 C3360 1.369 . S
C3361 C3370 1.429 . S
C3362 C3360 1.419 . S
C3362 C3363 1.363 . S
C3362 H3365 0.929 . S
C3363 C3362 1.363 . S
C3363 C3369 1.432 . S
H3364 C3360 0.930 . S
H3365 C3362 0.929 . S
S3366 N3367 1.613 . S
S3366 N3368 1.610 . S
N3367 S3366 1.613 . S
N3367 C3370 1.350 1_565 S
N3368 S3366 1.610 . S
N3368 C3369 1.341 1_565 S
C3369 C3363 1.432 . S
C3369 N3368 1.341 1_545 S
C3369 C3370 1.439 . S
C3370 C3361 1.429 . S
C3370 N3367 1.350 1_545 S
C3370 C3369 1.439 . S
C3371 C3372 1.369 . S
C3371 C3373 1.419 . S
C3371 H3375 0.930 . S
C3372 C3371 1.369 . S
C3372 C3381 1.429 1_655 S
C3373 C3371 1.419 . S
C3373 C3374 1.363 . S
C3373 H3376 0.929 . S
C3374 C3373 1.363 . S
C3374 C3380 1.428 1_655 S
H3375 C3371 0.930 . S
H3376 C3373 0.929 . S
S3377 N3378 1.613 . S
S3377 N3379 1.610 . S
N3378 S3377 1.613 . S
N3378 C3381 1.350 . S
N3379 S3377 1.610 . S
N3379 C3380 1.351 . S
C3380 C3374 1.428 1_455 S
C3380 N3379 1.351 . S
C3380 C3381 1.434 . S
C3381 C3372 1.429 1_455 S
C3381 N3378 1.350 . S
C3381 C3380 1.434 . S
C3382 C3383 1.369 . S
C3382 C3384 1.419 . S
C3382 H3386 0.930 . S
C3383 C3382 1.369 . S
C3383 C3392 1.429 . S
C3384 C3382 1.419 . S
C3384 C3385 1.363 . S
C3384 H3387 0.929 . S
C3385 C3384 1.363 . S
C3385 C3391 1.428 . S
H3386 C3382 0.930 . S
H3387 C3384 0.929 . S
S3388 N3389 1.613 . S
S3388 N3390 1.610 . S
N3389 S3388 1.613 . S
N3389 C3392 1.350 . S
N3390 S3388 1.610 . S
N3390 C3391 1.351 . S
C3391 C3385 1.428 . S
C3391 N3390 1.351 . S
C3391 C3392 1.434 . S
C3392 C3383 1.429 . S
C3392 N3389 1.350 . S
C3392 C3391 1.434 . S
C3393 C3394 1.369 . S
C3393 C3395 1.419 . S
C3393 H3397 0.930 . S
C3394 C3393 1.369 . S
C3394 C3403 1.429 . S
C3395 C3393 1.419 . S
C3395 C3396 1.363 . S
C3395 H3398 0.929 . S
C3396 C3395 1.363 . S
C3396 C3402 1.428 . S
H3397 C3393 0.930 . S
H3398 C3395 0.929 . S
S3399 N3400 1.613 . S
S3399 N3401 1.610 . S
N3400 S3399 1.613 . S
N3400 C3403 1.350 . S
N3401 S3399 1.610 . S
N3401 C3402 1.351 . S
C3402 C3396 1.428 . S
C3402 N3401 1.351 . S
C3402 C3403 1.434 . S
C3403 C3394 1.429 . S
C3403 N3400 1.350 . S
C3403 C3402 1.434 . S
C3404 C3405 1.369 . S
C3404 C3406 1.419 . S
C3404 H3408 0.930 . S
C3405 C3404 1.369 . S
C3405 C3414 1.429 . S
C3406 C3404 1.419 . S
C3406 C3407 1.363 . S
C3406 H3409 0.929 . S
C3407 C3406 1.363 . S
C3407 C3413 1.428 . S
H3408 C3404 0.930 . S
H3409 C3406 0.929 . S
S3410 N3411 1.613 . S
S3410 N3412 1.610 . S
N3411 S3410 1.613 . S
N3411 C3414 1.350 . S
N3412 S3410 1.610 . S
N3412 C3413 1.351 . S
C3413 C3407 1.428 . S
C3413 N3412 1.351 . S
C3413 C3414 1.434 . S
C3414 C3405 1.429 . S
C3414 N3411 1.350 . S
C3414 C3413 1.434 . S
C3415 C3416 1.369 . S
C3415 C3417 1.419 . S
C3415 H3419 0.930 . S
C3416 C3415 1.369 . S
C3416 C3425 1.429 . S
C3417 C3415 1.419 . S
C3417 C3418 1.363 . S
C3417 H3420 0.929 . S
C3418 C3417 1.363 . S
C3418 C3424 1.428 . S
H3419 C3415 0.930 . S
H3420 C3417 0.929 . S
S3421 N3422 1.613 . S
S3421 N3423 1.610 . S
N3422 S3421 1.613 . S
N3422 C3425 1.350 . S
N3423 S3421 1.610 . S
N3423 C3424 1.351 . S
C3424 C3418 1.428 . S
C3424 N3423 1.351 . S
C3424 C3425 1.434 . S
C3425 C3416 1.429 . S
C3425 N3422 1.350 . S
C3425 C3424 1.434 . S
C3426 C3427 1.369 . S
C3426 C3428 1.419 . S
C3426 H3430 0.930 . S
C3427 C3426 1.369 . S
C3427 C3436 1.429 . S
C3428 C3426 1.419 . S
C3428 C3429 1.363 . S
C3428 H3431 0.929 . S
C3429 C3428 1.363 . S
C3429 C3435 1.428 . S
H3430 C3426 0.930 . S
H3431 C3428 0.929 . S
S3432 N3433 1.613 . S
S3432 N3434 1.610 . S
N3433 S3432 1.613 . S
N3433 C3436 1.350 . S
N3434 S3432 1.610 . S
N3434 C3435 1.351 . S
C3435 C3429 1.428 . S
C3435 N3434 1.351 . S
C3435 C3436 1.434 . S
C3436 C3427 1.429 . S
C3436 N3433 1.350 . S
C3436 C3435 1.434 . S
C3437 C3438 1.369 . S
C3437 C3439 1.419 . S
C3437 H3441 0.930 . S
C3438 C3437 1.369 . S
C3438 C3447 1.429 . S
C3439 C3437 1.419 . S
C3439 C3440 1.363 . S
C3439 H3442 0.929 . S
C3440 C3439 1.363 . S
C3440 C3446 1.428 . S
H3441 C3437 0.930 . S
H3442 C3439 0.929 . S
S3443 N3444 1.613 . S
S3443 N3445 1.610 . S
N3444 S3443 1.613 . S
N3444 C3447 1.350 . S
N3445 S3443 1.610 . S
N3445 C3446 1.351 . S
C3446 C3440 1.428 . S
C3446 N3445 1.351 . S
C3446 C3447 1.434 . S
C3447 C3438 1.429 . S
C3447 N3444 1.350 . S
C3447 C3446 1.434 . S
C3448 C3449 1.369 . S
C3448 C3450 1.419 . S
C3448 H3452 0.930 . S
C3449 C3448 1.369 . S
C3449 C3458 1.429 . S
C3450 C3448 1.419 . S
C3450 C3451 1.363 . S
C3450 H3453 0.929 . S
C3451 C3450 1.363 . S
C3451 C3457 1.428 . S
H3452 C3448 0.930 . S
H3453 C3450 0.929 . S
S3454 N3455 1.613 . S
S3454 N3456 1.610 . S
N3455 S3454 1.613 . S
N3455 C3458 1.350 . S
N3456 S3454 1.610 . S
N3456 C3457 1.351 . S
C3457 C3451 1.428 . S
C3457 N3456 1.351 . S
C3457 C3458 1.434 . S
C3458 C3449 1.429 . S
C3458 N3455 1.350 . S
C3458 C3457 1.434 . S
C3459 C3460 1.369 1_455 S
C3459 C3461 1.419 . S
C3459 H3463 0.930 . S
C3460 C3459 1.369 1_655 S
C3460 C3469 1.429 . S
C3461 C3459 1.419 . S
C3461 C3462 1.363 1_455 S
C3461 H3464 0.929 . S
C3462 C3461 1.363 1_655 S
C3462 C3468 1.428 . S
H3463 C3459 0.930 . S
H3464 C3461 0.929 . S
S3465 N3466 1.613 . S
S3465 N3467 1.610 . S
N3466 S3465 1.613 . S
N3466 C3469 1.350 . S
N3467 S3465 1.610 . S
N3467 C3468 1.351 . S
C3468 C3462 1.428 . S
C3468 N3467 1.351 . S
C3468 C3469 1.434 . S
C3469 C3460 1.429 . S
C3469 N3466 1.350 . S
C3469 C3468 1.434 . S
C3470 C3471 1.369 . S
C3470 C3472 1.419 . S
C3470 H3474 0.930 . S
C3471 C3470 1.369 . S
C3471 C3480 1.429 . S
C3472 C3470 1.419 . S
C3472 C3473 1.363 . S
C3472 H3475 0.929 . S
C3473 C3472 1.363 . S
C3473 C3479 1.428 . S
H3474 C3470 0.930 . S
H3475 C3472 0.929 . S
S3476 N3477 1.613 . S
S3476 N3478 1.610 . S
N3477 S3476 1.613 . S
N3477 C3480 1.350 . S
N3478 S3476 1.610 . S
N3478 C3479 1.351 . S
C3479 C3473 1.428 . S
C3479 N3478 1.351 . S
C3479 C3480 1.434 . S
C3480 C3471 1.429 . S
C3480 N3477 1.350 . S
C3480 C3479 1.434 . S
C3481 C3482 1.369 . S
C3481 C3483 1.419 . S
C3481 H3485 0.930 . S
C3482 C3481 1.369 . S
C3482 C3491 1.429 1_545 S
C3483 C3481 1.419 . S
C3483 C3484 1.363 . S
C3483 H3486 0.929 . S
C3484 C3483 1.363 . S
C3484 C3490 1.428 1_545 S
H3485 C3481 0.930 . S
H3486 C3483 0.929 . S
S3487 N3488 1.613 . S
S3487 N3489 1.610 . S
N3488 S3487 1.613 . S
N3488 C3491 1.350 . S
N3489 S3487 1.610 . S
N3489 C3490 1.351 . S
C3490 C3484 1.428 1_565 S
C3490 N3489 1.351 . S
C3490 C3491 1.434 . S
C3491 C3482 1.429 1_565 S
C3491 N3488 1.350 . S
C3491 C3490 1.434 . S
C2701 C4 1.331 . S
C2703 C1703 1.080 . S
C2712 C38 1.974 . S
C2714 C1843 1.183 . S
C2725 C1931 1.131 . S
C2723 C74 1.352 . S
C2734 C76 1.383 . S
C2736 C2071 1.048 1_565 S
C2745 C2 1.457 . S
C2747 C2185 1.163 . S
C2756 C40 1.785 . S
C2758 C2273 1.247 . S
C2767 C110 1.362 . S
C2769 C2159 1.127 . S
C2780 C2299 1.502 . S
C2778 C148 1.686 . S
C2791 C2045 1.174 . S
C2789 C182 1.392 . S
C2800 C184 1.427 . S
C2802 C1957 1.071 . S
C2813 C1729 1.031 . S
C2811 C112 1.365 . S
C2822 C146 1.755 . S
C2824 C1817 1.602 . S
C2833 C220 1.903 . S
C2835 C2387 1.322 . S
C2844 C254 2.090 . S
C2846 C2527 1.291 . S
C2857 C2615 1.343 . S
C2855 C290 1.924 . S
C2866 C292 1.841 . S
C2868 C703 1.113 . S
C2877 C218 1.981 . S
C2879 C817 1.220 . S
C2888 C256 1.872 . S
C2890 C905 1.316 . S
C2899 C326 1.769 . S
C2901 C791 1.622 . S
C2910 C364 1.787 . S
C2912 C931 1.625 . S
C2923 C677 1.686 . S
C2921 C398 1.826 . S
C2934 C2641 1.645 . S
C2932 C400 1.853 . S
C2945 C2413 1.512 . S
C2943 C328 1.677 . S
C2956 C2501 1.737 . S
C2954 C362 1.860 . S
C2965 C436 1.794 . S
C2967 C1019 1.216 . S
C2976 C470 2.076 . S
C2978 C1159 1.262 . S
C2987 C506 1.927 . S
C2989 C1247 1.349 . S
C2998 C508 1.956 . S
C3000 C1387 1.220 . S
C3011 C1501 1.191 . S
C3009 C434 1.966 . S
C3022 C1589 1.325 . S
C3020 C472 1.888 . S
C3033 C1475 1.733 . S
C3031 C542 1.888 . S
C3044 C1615 1.644 . S
C3042 C580 1.801 . S
C3053 C614 1.795 . S
C3055 C1361 1.667 . S
C3066 C1273 1.535 . S
C3064 C616 1.730 . S
C3075 C544 1.699 . S
C3077 C1045 1.510 . S
C3088 C1133 1.697 . S
C3086 C578 1.823 . S
C3099 C659 1.044 . S
C3097 C14 1.977 . S
C3108 C39 1.759 . S
C3110 C773 0.946 . S
C3121 C877 1.284 . S
C3119 C75 1.802 . S
C3132 C991 1.204 . S
C3130 C86 1.710 . S
C3143 C1115 0.992 . S
C3141 C3 1.847 . S
C3154 C1219 1.260 . S
C3152 C50 1.823 . S
C3163 C111 1.987 . S
C3165 C1229 1.650 . S
C3174 C158 1.930 . S
C3176 C1001 1.609 . S
C3185 C183 2.067 . S
C3187 C1105 1.918 . S
C3196 C194 1.986 . S
C3198 C763 1.786 . S
C3209 C887 1.660 . S
C3207 C122 2.022 . S
C3218 C147 1.821 . S
C3220 C649 1.698 . S
C3231 C1343 1.025 . S
C3229 C230 1.892 . S
C3240 C255 1.870 . S
C3242 C1457 1.068 . S
C3251 C291 1.810 . S
C3253 C1561 1.370 . S
C3264 C1675 1.084 . S
C3262 C302 1.209 . S
C3273 C219 1.746 . S
C3275 C1799 0.934 . S
C3284 C266 1.340 . S
C3286 C1903 1.149 . S
C3295 C327 1.399 . S
C3297 C1913 0.941 1_565 S
C3306 C374 1.329 . S
C3308 C1685 0.953 1_455 S
C3319 C1789 1.801 . S
C3317 C399 1.960 . S
C3328 C410 1.919 . S
C3330 C1447 1.747 . S
C3339 C338 1.983 . S
C3341 C1571 1.638 . S
C3352 C1333 1.776 . S
C3350 C363 1.923 . S
C3363 C2027 0.936 . S
C3361 C446 1.412 . S
C3372 C471 1.360 . S
C3374 C2141 0.902 . S
C3383 C507 1.715 . S
C3385 C2245 1.251 . S
C3396 C2359 1.241 . S
C3394 C518 1.669 . S
C3407 C2483 1.073 . S
C3405 C435 1.851 . S
C3416 C482 1.899 . S
C3418 C2587 1.366 . S
C3427 C543 1.896 . S
C3429 C2597 1.580 . S
C3438 C590 2.009 . S
C3440 C2369 1.662 . S
C3451 C2473 1.899 . S
C3449 C615 2.041 . S
C3462 C2131 1.146 1_655 S
C3460 C626 1.294 . S
C3473 C2255 1.543 . S
C3471 C554 1.911 . S
C3482 C579 1.345 . S
C3484 C2017 1.121 1_545 S
