# Generated by pormake.
# Topology zzz, (3,6)-cn, num edge types: 1
# Building blocks:
#     Node 0, Type 0, BuildingBlock: BETDAH_clean_linker_0, # of connection points: 3
#     Node 1, Type 0, BuildingBlock: BETDAH_clean_linker_0, # of connection points: 3
#     Node 2, Type 0, BuildingBlock: BETDAH_clean_linker_0, # of connection points: 3
#     Node 3, Type 0, BuildingBlock: BETDAH_clean_linker_0, # of connection points: 3
#     Node 4, Type 0, BuildingBlock: BETDAH_clean_linker_0, # of connection points: 3
#     Node 5, Type 0, BuildingBlock: BETDAH_clean_linker_0, # of connection points: 3
#     Node 6, Type 0, BuildingBlock: BETDAH_clean_linker_0, # of connection points: 3
#     Node 7, Type 0, BuildingBlock: BETDAH_clean_linker_0, # of connection points: 3
#     Node 8, Type 1, BuildingBlock: PAMTOO_clean_sbu_0, # of connection points: 6
#     Node 9, Type 1, BuildingBlock: PAMTOO_clean_sbu_0, # of connection points: 6
#     Node 10, Type 1, BuildingBlock: PAMTOO_clean_sbu_0, # of connection points: 6
#     Node 11, Type 1, BuildingBlock: PAMTOO_clean_sbu_0, # of connection points: 6
#     Edge 12, Type (0, 1), BuildingBlock: XUDNAN_clean_linker_2, # of connection points: 2
#     Edge 13, Type (0, 1), BuildingBlock: XUDNAN_clean_linker_2, # of connection points: 2
#     Edge 14, Type (0, 1), BuildingBlock: XUDNAN_clean_linker_2, # of connection points: 2
#     Edge 15, Type (0, 1), BuildingBlock: XUDNAN_clean_linker_2, # of connection points: 2
#     Edge 16, Type (0, 1), BuildingBlock: XUDNAN_clean_linker_2, # of connection points: 2
#     Edge 17, Type (0, 1), BuildingBlock: XUDNAN_clean_linker_2, # of connection points: 2
#     Edge 18, Type (0, 1), BuildingBlock: XUDNAN_clean_linker_2, # of connection points: 2
#     Edge 19, Type (0, 1), BuildingBlock: XUDNAN_clean_linker_2, # of connection points: 2
#     Edge 20, Type (0, 1), BuildingBlock: XUDNAN_clean_linker_2, # of connection points: 2
#     Edge 21, Type (0, 1), BuildingBlock: XUDNAN_clean_linker_2, # of connection points: 2
#     Edge 22, Type (0, 1), BuildingBlock: XUDNAN_clean_linker_2, # of connection points: 2
#     Edge 23, Type (0, 1), BuildingBlock: XUDNAN_clean_linker_2, # of connection points: 2
#     Edge 24, Type (0, 1), BuildingBlock: XUDNAN_clean_linker_2, # of connection points: 2
#     Edge 25, Type (0, 1), BuildingBlock: XUDNAN_clean_linker_2, # of connection points: 2
#     Edge 26, Type (0, 1), BuildingBlock: XUDNAN_clean_linker_2, # of connection points: 2
#     Edge 27, Type (0, 1), BuildingBlock: XUDNAN_clean_linker_2, # of connection points: 2
#     Edge 28, Type (0, 1), BuildingBlock: XUDNAN_clean_linker_2, # of connection points: 2
#     Edge 29, Type (0, 1), BuildingBlock: XUDNAN_clean_linker_2, # of connection points: 2
#     Edge 30, Type (0, 1), BuildingBlock: XUDNAN_clean_linker_2, # of connection points: 2
#     Edge 31, Type (0, 1), BuildingBlock: XUDNAN_clean_linker_2, # of connection points: 2
#     Edge 32, Type (0, 1), BuildingBlock: XUDNAN_clean_linker_2, # of connection points: 2
#     Edge 33, Type (0, 1), BuildingBlock: XUDNAN_clean_linker_2, # of connection points: 2
#     Edge 34, Type (0, 1), BuildingBlock: XUDNAN_clean_linker_2, # of connection points: 2
#     Edge 35, Type (0, 1), BuildingBlock: XUDNAN_clean_linker_2, # of connection points: 2
# Relax obj value: 0.220
# Max RMSD: 0.237
# Mean RMSD: 0.126
data_MOF--net-zzz--node1-PAMTOO_clean_sbu_0--node2-BETDAH_clean_linker_0--edge1-XUDNAN_clean_linker_2
_symmetry_space_group_name_H-M    P1
_symmetry_Int_Tables_number       1
_symmetry_cell_setting            triclinic
loop_
_symmetry_equiv_pos_as_xyz
'x, y, z'
_cell_length_a     57.276576
_cell_length_b     49.339762
_cell_length_c     15.717725
_cell_angle_alpha  91.976148
_cell_angle_beta   79.321107
_cell_angle_gamma 85.820839
loop_
_atom_site_label
_atom_site_type_symbol
_atom_site_fract_x
_atom_site_fract_y
_atom_site_fract_z
_atom_type_partial_charge
H0 H 0.85904 0.45573 0.48665 0.0
H1 H 0.79084 0.46015 0.40818 0.0
H2 H 0.80514 0.51838 0.59792 0.0
C3 C 0.84086 0.4645 0.49424 0.0
C4 C 0.83369 0.48709 0.55229 0.0
C5 C 0.82558 0.45416 0.44257 0.0
C6 C 0.80292 0.46778 0.44698 0.0
C7 C 0.79573 0.49137 0.50111 0.0
C8 C 0.81095 0.50054 0.55502 0.0
N9 N 0.77351 0.50644 0.50146 0.0
C10 C 0.76043 0.50413 0.43519 0.0
H11 H 0.99087 0.80024 0.40726 0.0
H12 H 0.99637 0.71529 0.34034 0.0
H13 H 1.00001 0.74274 0.60136 0.0
C14 C 0.99192 0.77956 0.42835 0.0
C15 C 0.99462 0.77461 0.51342 0.0
C16 C 0.99246 0.75824 0.36706 0.0
C17 C 0.99554 0.73138 0.38968 0.0
C18 C 0.99815 0.72549 0.4746 0.0
C19 C 0.99761 0.74722 0.53642 0.0
N20 N 1.00222 0.69805 0.49752 0.0
C21 C 1.00775 0.67645 0.43539 0.0
H22 H 0.71241 0.04024 0.35727 0.0
H23 H 0.78357 0.03353 0.20845 0.0
H24 H 0.76467 0.98131 0.42131 0.0
C25 C 0.73068 0.03137 0.3477 0.0
C26 C 0.73641 0.01022 0.39907 0.0
C27 C 0.74747 0.03952 0.27869 0.0
C28 C 0.77088 0.02737 0.26285 0.0
C29 C 0.77754 0.00682 0.31589 0.0
C30 C 0.75999 0.99788 0.38263 0.0
N31 N 0.80133 0.9942 0.30223 0.0
C32 C 0.82074 1.00187 0.24211 0.0
H33 H 0.49757 0.67334 0.29102 0.0
H34 H 0.51218 0.74363 0.14373 0.0
H35 H 0.55175 0.72418 0.34391 0.0
C36 C 0.50747 0.69113 0.27923 0.0
C37 C 0.52562 0.69588 0.32558 0.0
C38 C 0.50315 0.70751 0.21182 0.0
C39 C 0.51515 0.73122 0.19685 0.0
C40 C 0.53195 0.73792 0.24756 0.0
C41 C 0.53761 0.71977 0.30968 0.0
N42 N 0.54473 0.76161 0.23372 0.0
C43 C 0.5374 0.78476 0.19366 0.0
H44 H 0.19871 0.54584 0.10609 0.0
H45 H 0.26572 0.53102 0.18686 0.0
H46 H 0.24848 0.48057 0.98065 0.0
C47 C 0.21594 0.53438 0.09799 0.0
C48 C 0.22147 0.51238 0.03697 0.0
C49 C 0.2319 0.54117 0.15134 0.0
C50 C 0.25385 0.52597 0.14354 0.0
C51 C 0.26018 0.50423 0.08102 0.0
C52 C 0.24392 0.49763 0.02754 0.0
N53 N 0.28239 0.48833 0.07239 0.0
C54 C 0.2996 0.49329 0.12218 0.0
H55 H 0.98339 0.22504 0.13297 0.0
H56 H 0.98139 0.30606 0.24604 0.0
H57 H 0.02906 0.28208 0.00507 0.0
C58 C 0.98866 0.24569 0.12928 0.0
C59 C 1.00621 0.25158 0.05948 0.0
C60 C 0.97957 0.26501 0.19745 0.0
C61 C 0.98827 0.29094 0.19418 0.0
C62 C 1.00615 0.29727 0.12496 0.0
C63 C 1.01496 0.27752 0.05747 0.0
N64 N 1.01612 0.3229 0.12369 0.0
C65 C 1.01593 0.33898 0.19866 0.0
H66 H 0.33902 0.98155 0.27146 0.0
H67 H 0.26612 0.99305 0.40348 0.0
H68 H 0.29063 0.03957 0.18113 0.0
C69 C 0.32111 0.99094 0.27465 0.0
C70 C 0.31713 0.01074 0.21625 0.0
C71 C 0.30298 0.9848 0.34236 0.0
C72 C 0.27992 0.99754 0.34996 0.0
C73 C 0.27513 0.01693 0.2904 0.0
C74 C 0.29401 0.02394 0.22508 0.0
N75 N 0.25201 0.03069 0.29674 0.0
C76 C 0.23067 0.02256 0.34424 0.0
H77 H 0.50576 0.33253 0.30634 0.0
H78 H 0.51757 0.25752 0.4297 0.0
H79 H 0.50133 0.25672 0.17212 0.0
C80 C 0.50642 0.31049 0.30604 0.0
C81 C 0.50299 0.2964 0.2317 0.0
C82 C 0.51316 0.29682 0.37547 0.0
C83 C 0.51288 0.26826 0.37557 0.0
C84 C 0.50755 0.25365 0.30338 0.0
C85 C 0.50357 0.26788 0.23028 0.0
N86 N 0.50707 0.22476 0.29993 0.0
C87 C 0.51103 0.2076 0.36554 0.0
Dy88 Dy 1.00858 0.02307 0.68341 0.0
Dy89 Dy 0.03354 1.00315 0.84107 0.0
C90 C 0.06565 0.01254 0.65964 0.0
O91 O 1.00182 0.97862 0.69392 0.0
O92 O 0.03471 0.96719 0.75045 0.0
O93 O 1.01089 0.03975 0.55745 0.0
O94 O 0.97694 0.02838 0.62677 0.0
O95 O 0.99372 0.99968 0.87832 0.0
O96 O 0.98277 0.03554 0.80519 0.0
O97 O 0.03289 0.04815 0.86141 0.0
O98 O 0.01962 0.0618 0.73805 0.0
O99 O 0.03153 0.99841 0.97849 0.0
O100 O 0.06106 0.97845 0.88624 0.0
C101 C 1.01716 0.95997 0.71434 0.0
O102 O 0.04665 0.00849 0.62605 0.0
O103 O 0.06373 0.01683 0.74379 0.0
C104 C 0.97695 0.06964 0.55631 0.0
C105 C 0.95622 0.1228 0.54492 0.0
C106 C 0.97761 0.11858 0.57628 0.0
C107 C 0.98772 0.09237 0.5825 0.0
C108 C 0.95533 0.07356 0.52702 0.0
C109 C 0.945 0.09992 0.52151 0.0
C110 C 0.98777 0.04201 0.56362 0.0
C111 C 0.97753 0.01878 0.86717 0.0
C112 C 0.02762 0.06712 0.80971 0.0
C113 C 0.04051 0.95187 0.9889 0.0
C114 C 0.02614 0.89926 0.02058 0.0
C115 C 1.016 0.91547 0.96335 0.0
C116 C 0.02293 0.9415 0.94856 0.0
C117 C 0.051 0.93586 0.04557 0.0
C118 C 0.04372 0.9097 0.06188 0.0
C119 C 0.04838 0.97857 0.96426 0.0
H120 H 0.98715 0.1355 0.59319 0.0
H121 H 1.00423 0.08996 0.60667 0.0
H122 H 0.9465 0.05626 0.5081 0.0
H123 H 0.92839 0.10236 0.49805 0.0
H124 H 1.0028 0.90801 0.92916 0.0
H125 H 1.01471 0.95344 0.90413 0.0
H126 H 0.06473 0.94349 0.07675 0.0
H127 H 0.05163 0.89786 0.10754 0.0
Dy128 Dy 0.52014 0.98612 0.74157 0.0
Dy129 Dy 0.53647 0.02268 0.89442 0.0
C130 C 0.52879 0.04936 0.72127 0.0
O131 O 0.55932 0.98744 0.69169 0.0
O132 O 0.57122 0.00469 0.81403 0.0
O133 O 0.50949 0.9818 0.61685 0.0
O134 O 0.50981 0.94756 0.69854 0.0
O135 O 0.52383 0.98419 0.9516 0.0
O136 O 0.53495 0.95707 0.82897 0.0
O137 O 0.49694 0.03324 0.90946 0.0
O138 O 0.48748 0.99422 0.84529 0.0
O139 O 0.55332 0.02436 0.00594 0.0
O140 O 0.53748 0.06134 0.96214 0.0
C141 C 0.57608 0.99402 0.73399 0.0
O142 O 0.51449 0.03034 0.71011 0.0
O143 O 0.54328 0.04638 0.7762 0.0
C144 C 0.47908 0.95202 0.61918 0.0
C145 C 0.43246 0.94233 0.5988 0.0
C146 C 0.43635 0.95637 0.67367 0.0
C147 C 0.45944 0.96119 0.68369 0.0
C148 C 0.4754 0.9377 0.54502 0.0
C149 C 0.45229 0.9329 0.53479 0.0
C150 C 0.50336 0.95713 0.6296 0.0
C151 C 0.52923 0.95986 0.91374 0.0
C152 C 0.48111 0.0164 0.89524 0.0
C153 C 0.57293 0.06393 0.01657 0.0
C154 C 0.61744 0.08263 0.03008 0.0
C155 C 0.59825 0.08585 0.10094 0.0
C156 C 0.57618 0.07649 0.09422 0.0
C157 C 0.59159 0.06192 0.94429 0.0
C158 C 0.6137 0.07118 0.95101 0.0
C159 C 0.55088 0.05089 0.01335 0.0
H160 H 0.42153 0.96376 0.72438 0.0
H161 H 0.46194 0.97219 0.74167 0.0
H162 H 0.49037 0.93047 0.49463 0.0
H163 H 0.44993 0.92247 0.47558 0.0
H164 H 0.60063 0.09419 0.16312 0.0
H165 H 0.56196 0.0781 0.15065 0.0
H166 H 0.58932 0.0523 0.88367 0.0
H167 H 0.62809 0.06861 0.89526 0.0
Dy168 Dy 0.54699 0.50186 0.84569 0.0
Dy169 Dy 0.49523 0.49827 0.7709 0.0
C170 C 0.50749 0.46382 0.93007 0.0
O171 O 0.54669 0.46121 0.77842 0.0
O172 O 0.52456 0.47467 0.67841 0.0
O173 O 0.56332 0.51117 0.95508 0.0
O174 O 0.58562 0.49449 0.83253 0.0
O175 O 0.5141 0.52961 0.69085 0.0
O176 O 0.55137 0.5282 0.73088 0.0
O177 O 0.48862 0.52714 0.88783 0.0
O178 O 0.5261 0.54189 0.87291 0.0
O179 O 0.46172 0.5169 0.74832 0.0
O180 O 0.47047 0.47366 0.72054 0.0
C181 C 0.53882 0.45647 0.70649 0.0
O182 O 0.5215 0.48249 0.94605 0.0
O183 O 0.49731 0.46447 0.86178 0.0
C184 C 0.60595 0.50417 0.95454 0.0
C185 C 0.64576 0.50413 0.03916 0.0
C186 C 0.62348 0.51701 0.0789 0.0
C187 C 0.60386 0.51697 0.03728 0.0
C188 C 0.62822 0.4916 0.91406 0.0
C189 C 0.64786 0.49153 0.95586 0.0
C190 C 0.58469 0.50301 0.91308 0.0
C191 C 0.53575 0.53782 0.68483 0.0
C192 C 0.50294 0.54616 0.89796 0.0
C193 C 0.44291 0.49559 0.64331 0.0
C194 C 0.41569 0.50044 0.51031 0.0
C195 C 0.43552 0.5158 0.51057 0.0
C196 C 0.449 0.51342 0.57645 0.0
C197 C 0.42363 0.47972 0.64187 0.0
C198 C 0.41018 0.48209 0.57634 0.0
C199 C 0.45506 0.4943 0.7185 0.0
H200 H 0.62117 0.52736 0.14212 0.0
H201 H 0.58697 0.52692 0.07032 0.0
H202 H 0.63039 0.48139 0.85065 0.0
H203 H 0.66459 0.48108 0.92342 0.0
H204 H 0.44055 0.52984 0.4602 0.0
H205 H 0.46385 0.52584 0.576 0.0
H206 H 0.41854 0.46595 0.69309 0.0
H207 H 0.39491 0.4702 0.57938 0.0
Dy208 Dy 0.03003 0.52685 0.7416 0.0
Dy209 Dy 0.01736 0.48222 0.88786 0.0
C210 C 0.02626 0.46524 0.68606 0.0
O211 O 0.99035 0.53135 0.78351 0.0
O212 O 0.98497 0.48816 0.8268 0.0
O213 O 0.04615 0.53741 0.61327 0.0
O214 O 0.02696 0.56864 0.7057 0.0
O215 O 1.01054 0.52301 0.96049 0.0
O216 O 0.03635 0.5458 0.86554 0.0
O217 O 0.05459 0.49169 0.89461 0.0
O218 O 0.06534 0.50636 0.75693 0.0
O219 O 0.99786 0.47036 0.00964 0.0
O220 O 0.02338 0.44127 0.92924 0.0
C221 C 0.97672 0.51114 0.79934 0.0
O222 O 0.02048 0.49048 0.66966 0.0
O223 O 0.03167 0.45937 0.76125 0.0
C224 C 0.06158 0.57987 0.61266 0.0
C225 C 0.10542 0.60235 0.56162 0.0
C226 C 0.08806 0.60396 0.50875 0.0
C227 C 0.06631 0.59273 0.53411 0.0
C228 C 0.07802 0.58003 0.66867 0.0
C229 C 0.09975 0.5913 0.6435 0.0
C230 C 0.04112 0.56345 0.6309 0.0
C231 C 0.02365 0.54363 0.94318 0.0
C232 C 0.07101 0.49782 0.82954 0.0
C233 C 0.98806 0.42517 0.00461 0.0
C234 C 0.94924 0.39289 0.04452 0.0
C235 C 0.9485 0.41447 0.98824 0.0
C236 C 0.96775 0.43028 0.96816 0.0
C237 C 0.98996 0.4023 0.05399 0.0
C238 C 0.97077 0.38607 0.07315 0.0
C239 C 1.00619 0.44494 0.99651 0.0
H240 H 0.09194 0.61192 0.44475 0.0
H241 H 0.0538 0.59267 0.49013 0.0
H242 H 0.0746 0.5701 0.72969 0.0
H243 H 0.11268 0.58993 0.68581 0.0
H244 H 0.93242 0.42085 0.96504 0.0
H245 H 0.96611 0.44762 0.92863 0.0
H246 H 1.0058 0.39773 0.08096 0.0
H247 H 0.97235 0.3692 0.11451 0.0
H248 H 0.20558 0.03481 0.50988 0.0
H249 H 0.20106 0.99685 0.26141 0.0
H250 H 0.15876 0.98934 0.31615 0.0
H251 H 0.1663 0.98998 0.64325 0.0
H252 H 0.15282 0.01697 0.72095 0.0
H253 H 0.18303 0.01828 0.66379 0.0
H254 H 0.17178 0.06562 0.6101 0.0
H255 H 0.14152 0.06437 0.66659 0.0
H256 H 0.1475 0.06966 0.55195 0.0
H257 H 0.11639 0.98855 0.39407 0.0
H258 H 0.07728 0.99196 0.49215 0.0
H259 H 0.1085 0.02927 0.69416 0.0
C260 C 0.1957 0.02452 0.46778 0.0
C261 C 0.20657 0.01611 0.38156 0.0
C262 C 0.19309 1.00315 0.3278 0.0
C263 C 0.16904 0.99889 0.35832 0.0
C264 C 0.15865 0.00764 0.44318 0.0
C265 C 0.17156 0.01996 0.49763 0.0
C266 C 0.15583 0.02775 0.5856 0.0
C267 C 0.16505 0.01232 0.65766 0.0
C268 C 0.15406 0.05869 0.60465 0.0
C269 C 0.13206 0.01822 0.57162 0.0
C270 C 0.13416 0.00675 0.48882 0.0
C271 C 0.1146 0.99727 0.4593 0.0
C272 C 0.09236 0.99941 0.51565 0.0
C273 C 0.08962 0.01079 0.60137 0.0
C274 C 0.10992 0.02024 0.62946 0.0
H275 H 0.49474 0.15718 0.3798 0.0
H276 H 0.53739 0.21298 0.49005 0.0
H277 H 0.54631 0.17841 0.59282 0.0
H278 H 0.46951 0.12735 0.58164 0.0
H279 H 0.47057 0.09353 0.53315 0.0
H280 H 0.46728 0.12269 0.46922 0.0
H281 H 0.50454 0.10412 0.35721 0.0
H282 H 0.508 0.07495 0.42093 0.0
H283 H 0.5323 0.0962 0.39288 0.0
H284 H 0.5514 0.13773 0.68017 0.0
H285 H 0.55167 0.09425 0.75126 0.0
H286 H 0.50511 0.06377 0.58723 0.0
C287 C 0.50582 0.16206 0.42618 0.0
C288 C 0.51536 0.18768 0.42786 0.0
C289 C 0.52989 0.19347 0.48846 0.0
C290 C 0.53505 0.17395 0.54678 0.0
C291 C 0.5255 0.14876 0.54348 0.0
C292 C 0.51111 0.14275 0.48506 0.0
C293 C 0.5033 0.114 0.49506 0.0
C294 C 0.47604 0.11443 0.52135 0.0
C295 C 0.51259 0.09627 0.41155 0.0
C296 C 0.51553 0.10479 0.56833 0.0
C297 C 0.5283 0.12521 0.59473 0.0
C298 C 0.54141 0.12165 0.66021 0.0
C299 C 0.54145 0.0967 0.70015 0.0
C300 C 0.52839 0.07535 0.67526 0.0
C301 C 0.51522 0.07959 0.60817 0.0
H302 H 0.32457 0.45754 0.20664 0.0
H303 H 0.31411 0.54272 0.1542 0.0
H304 H 0.34394 0.5538 0.24339 0.0
H305 H 0.33087 0.46768 0.42791 0.0
H306 H 0.35346 0.44 0.42367 0.0
H307 H 0.33196 0.43875 0.3536 0.0
H308 H 0.3662 0.43187 0.2197 0.0
H309 H 0.38781 0.43312 0.28943 0.0
H310 H 0.38851 0.45609 0.20243 0.0
H311 H 0.37425 0.55557 0.34106 0.0
H312 H 0.40194 0.54836 0.44261 0.0
H313 H 0.39333 0.46168 0.43016 0.0
C314 C 0.32873 0.47847 0.21385 0.0
C315 C 0.31726 0.49937 0.17374 0.0
C316 C 0.32288 0.52652 0.18451 0.0
C317 C 0.33977 0.53295 0.23487 0.0
C318 C 0.35088 0.51192 0.27383 0.0
C319 C 0.34559 0.48521 0.26396 0.0
C320 C 0.35972 0.46655 0.31422 0.0
C321 C 0.343 0.45242 0.38399 0.0
C322 C 0.37656 0.44568 0.25276 0.0
C323 C 0.37357 0.48694 0.3546 0.0
C324 C 0.36832 0.51296 0.33007 0.0
C325 C 0.37862 0.53524 0.36019 0.0
C326 C 0.39451 0.53089 0.41749 0.0
C327 C 0.40003 0.50443 0.44456 0.0
C328 C 0.38944 0.48221 0.41165 0.0
H329 H 1.0047 0.39319 0.24223 0.0
H330 H 0.03112 0.31731 0.33451 0.0
H331 H 0.03627 0.34142 0.46978 0.0
H332 H 0.04414 0.43574 0.32485 0.0
H333 H 0.02232 0.46426 0.35586 0.0
H334 H 0.01975 0.44102 0.26775 0.0
H335 H 0.97705 0.43227 0.34418 0.0
H336 H 0.97944 0.45563 0.43231 0.0
H337 H 0.97218 0.42129 0.45383 0.0
H338 H 0.03971 0.3736 0.59201 0.0
H339 H 0.04045 0.4116 0.69672 0.0
H340 H 1.01181 0.46755 0.5272 0.0
C341 C 1.01142 0.38177 0.29141 0.0
C342 C 0.01759 0.35347 0.27872 0.0
C343 C 0.02634 0.33902 0.34373 0.0
C344 C 0.02931 0.35254 0.42052 0.0
C345 C 0.02336 0.38052 0.43119 0.0
C346 C 1.01446 0.39502 0.36882 0.0
C347 C 1.00971 0.42504 0.39668 0.0
C348 C 0.02489 0.44254 0.33246 0.0
C349 C 0.98301 0.43409 0.40739 0.0
C350 C 0.01771 0.42518 0.48367 0.0
C351 C 0.02539 0.39922 0.50221 0.0
C352 C 0.03369 0.39401 0.57834 0.0
C353 C 0.03407 0.41583 0.63747 0.0
C354 C 0.02627 0.44271 0.62049 0.0
C355 C 0.01801 0.44733 0.54216 0.0
H356 H 0.86466 0.97379 0.20746 0.0
H357 H 0.8247 0.04557 0.14224 0.0
H358 H 0.86056 0.05783 0.04129 0.0
H359 H 0.9206 1.00442 0.20209 0.0
H360 H 0.93892 0.97442 0.15501 0.0
H361 H 0.91019 0.97118 0.22193 0.0
H362 H 0.89765 0.94335 0.09754 0.0
H363 H 0.92636 0.94646 0.03041 0.0
H364 H 0.89956 0.95751 0.99248 0.0
H365 H 0.90069 0.0622 0.94695 0.0
H366 H 0.94188 0.05852 0.86479 0.0
H367 H 0.95687 0.98386 0.99017 0.0
C368 C 0.86355 0.99206 0.17168 0.0
C369 C 0.84192 0.00878 0.18225 0.0
C370 C 0.84106 0.03251 0.13479 0.0
C371 C 0.86137 0.03962 0.07743 0.0
C372 C 0.88248 0.02279 0.06829 0.0
C373 C 0.88375 0.99947 0.11404 0.0
C374 C 0.90868 0.98496 0.09189 0.0
C375 C 0.92028 0.98367 0.17254 0.0
C376 C 0.90801 0.95638 0.05062 0.0
C377 C 0.92121 1.00368 0.02641 0.0
C378 C 0.90571 0.02538 0.01399 0.0
C379 C 0.91295 0.0453 0.95632 0.0
C380 C 0.9365 0.043 0.90977 0.0
C381 C 0.95285 0.02092 0.92059 0.0
C382 C 0.94497 1.00107 0.98038 0.0
H383 H 0.55104 0.80319 0.03071 0.0
H384 H 0.51122 0.82645 0.28813 0.0
H385 H 0.50408 0.87348 0.24327 0.0
H386 H 0.57983 0.86436 0.99486 0.0
H387 H 0.57804 0.86558 0.88174 0.0
H388 H 0.57893 0.83334 0.93186 0.0
H389 H 0.53962 0.82261 0.88357 0.0
H390 H 0.53871 0.85475 0.83268 0.0
H391 H 0.51371 0.84644 0.91253 0.0
H392 H 0.50361 0.91846 0.17412 0.0
H393 H 0.50751 0.95814 0.08315 0.0
H394 H 0.54675 0.90635 0.86703 0.0
C395 C 0.54047 0.81816 0.07683 0.0
C396 C 0.5314 0.81131 0.16266 0.0
C397 C 0.51803 0.83136 0.22193 0.0
C398 C 0.51398 0.8581 0.19704 0.0
C399 C 0.52337 0.86445 0.11236 0.0
C400 C 0.53613 0.84504 0.05271 0.0
C401 C 0.5446 0.85754 0.96632 0.0
C402 C 0.57197 0.85505 0.94232 0.0
C403 C 0.53349 0.84456 0.89453 0.0
C404 C 0.53489 0.88702 0.98714 0.0
C405 C 0.52276 0.89048 0.07189 0.0
C406 C 0.51289 0.91594 0.10744 0.0
C407 C 0.51531 0.93843 0.05515 0.0
C408 C 0.52741 0.93551 0.96763 0.0
C409 C 0.53726 0.90931 0.93338 0.0
H410 H 0.71288 0.49948 0.44579 0.0
H411 H 0.77884 0.50696 0.26533 0.0
H412 H 0.75688 0.50728 0.14327 0.0
H413 H 0.68681 0.45489 0.30563 0.0
H414 H 0.65697 0.47046 0.34136 0.0
H415 H 0.67799 0.47028 0.41362 0.0
H416 H 0.67115 0.52276 0.43472 0.0
H417 H 0.6502 0.52309 0.36223 0.0
H418 H 0.67546 0.54326 0.34117 0.0
H419 H 0.72734 0.50816 0.04161 0.0
H420 H 0.69293 0.50865 0.96755 0.0
H421 H 0.64611 0.49925 0.21397 0.0
C422 C 0.72263 0.501 0.38037 0.0
C423 C 0.74748 0.50314 0.36423 0.0
C424 C 0.75976 0.50524 0.27837 0.0
C425 C 0.74744 0.50546 0.20888 0.0
C426 C 0.72284 0.50348 0.22658 0.0
C427 C 0.71056 0.50117 0.3102 0.0
C428 C 0.68413 0.49951 0.31158 0.0
C429 C 0.676 0.47216 0.34502 0.0
C430 C 0.66937 0.52359 0.36563 0.0
C431 C 0.68341 0.50149 0.21593 0.0
C432 C 0.70591 0.50374 0.16802 0.0
C433 C 0.70967 0.50618 0.07849 0.0
C434 C 0.68996 0.50626 0.03683 0.0
C435 C 0.66665 0.50387 0.08436 0.0
C436 C 0.66354 0.50143 0.17536 0.0
H437 H 0.98455 0.63262 0.39369 0.0
H438 H 0.0465 0.67731 0.3111 0.0
H439 H 0.05797 0.64704 0.17877 0.0
H440 H 1.01308 0.56492 0.31109 0.0
H441 H 0.9867 0.55401 0.27736 0.0
H442 H 0.984 0.57819 0.36793 0.0
H443 H 0.95848 0.61188 0.29302 0.0
H444 H 0.96118 0.58789 0.20208 0.0
H445 H 0.97018 0.62184 0.18512 0.0
H446 H 0.06138 0.6142 0.05223 0.0
H447 H 0.0577 0.57954 0.94025 0.0
H448 H 0.99387 0.55453 0.10342 0.0
C449 C 1.0007 0.63563 0.3481 0.0
C450 C 1.01488 0.65701 0.36228 0.0
C451 C 0.03565 0.6608 0.30125 0.0
C452 C 0.04224 0.64376 0.22602 0.0
C453 C 0.02785 0.62296 0.21302 0.0
C454 C 1.0076 0.61863 0.27248 0.0
C455 C 0.99505 0.59516 0.24113 0.0
C456 C 0.99469 0.57168 0.30307 0.0
C457 C 0.96972 0.60478 0.22966 0.0
C458 C 1.01119 0.58731 0.15427 0.0
C459 C 0.02999 0.60367 0.13971 0.0
C460 C 0.04685 0.60113 0.06316 0.0
C461 C 0.04451 0.5814 0.99965 0.0
C462 C 0.02549 0.56421 0.01269 0.0
C463 C 1.0087 0.56718 0.09159 0.0
H464 H 0.94508 0.22905 0.2053 0.0
H465 H 0.97926 0.27979 0.36839 0.0
H466 H 0.96314 0.25432 0.49417 0.0
H467 H 0.8951 0.20497 0.38313 0.0
H468 H 0.90033 0.17111 0.33302 0.0
H469 H 0.90365 0.20028 0.26697 0.0
H470 H 0.9466 0.18116 0.19816 0.0
H471 H 0.94349 0.15229 0.26378 0.0
H472 H 0.96771 0.17342 0.26766 0.0
H473 H 0.95443 0.21664 0.59038 0.0
H474 H 0.95748 0.17022 0.64146 0.0
H475 H 0.93593 0.13925 0.40868 0.0
C476 C 0.9485 0.23539 0.26813 0.0
C477 C 0.96371 0.25625 0.27627 0.0
C478 C 0.96743 0.2642 0.35987 0.0
C479 C 0.95833 0.24968 0.43217 0.0
C480 C 0.9457 0.22717 0.41991 0.0
C481 C 0.94069 0.22012 0.33957 0.0
C482 C 0.93281 0.19149 0.3367 0.0
C483 C 0.9064 0.19201 0.32957 0.0
C484 C 0.94861 0.17357 0.26232 0.0
C485 C 0.93647 0.18258 0.42478 0.0
C486 C 0.9425 0.20392 0.47369 0.0
C487 C 0.94936 0.19992 0.55318 0.0
C488 C 0.95136 0.17335 0.58115 0.0
C489 C 0.94742 0.15092 0.52824 0.0
C490 C 0.93867 0.15589 0.45142 0.0
H491 H 0.31296 1.00409 0.49158 0.0
H492 H 0.31277 0.92994 0.33765 0.0
H493 H 0.34074 0.90663 0.41862 0.0
H494 H 0.3696 1.00287 0.47148 0.0
H495 H 0.37208 0.0163 0.57729 0.0
H496 H 0.34536 0.02413 0.53624 0.0
H497 H 0.32 0.00468 0.6706 0.0
H498 H 0.3467 0.99731 0.71388 0.0
H499 H 0.32752 0.97069 0.70091 0.0
H500 H 0.37647 0.89588 0.48234 0.0
H501 H 0.41537 0.89792 0.52739 0.0
H502 H 0.39424 0.98015 0.6341 0.0
C503 C 0.31748 0.9824 0.48 0.0
C504 C 0.3102 0.96842 0.41102 0.0
C505 C 0.31755 0.94056 0.39264 0.0
C506 C 0.33356 0.92728 0.43805 0.0
C507 C 0.34203 0.94223 0.50134 0.0
C508 C 0.33387 0.96915 0.52358 0.0
C509 C 0.34918 0.98238 0.57955 0.0
C510 C 0.35967 0.00788 0.5386 0.0
C511 C 0.335 0.98916 0.67172 0.0
C512 C 0.36832 0.95955 0.57911 0.0
C513 C 0.36349 0.93627 0.53621 0.0
C514 C 0.38009 0.91372 0.51816 0.0
C515 C 0.40227 0.91519 0.54307 0.0
C516 C 0.40784 0.93919 0.58448 0.0
C517 C 0.3903 0.96126 0.60473 0.0
H518 H 0.54124 0.33917 0.34901 0.0
H519 H 0.50462 0.29214 0.5535 0.0
H520 H 0.5136 0.32531 0.66281 0.0
H521 H 0.58534 0.36831 0.46366 0.0
H522 H 0.58146 0.40083 0.41709 0.0
H523 H 0.57784 0.37004 0.35742 0.0
H524 H 0.53557 0.38921 0.34186 0.0
H525 H 0.53894 0.41989 0.40183 0.0
H526 H 0.514 0.40017 0.43784 0.0
H527 H 0.52201 0.36674 0.7477 0.0
H528 H 0.52614 0.41337 0.80054 0.0
H529 H 0.55172 0.43603 0.53825 0.0
C530 C 0.53527 0.33554 0.41685 0.0
C531 C 0.52192 0.31317 0.44271 0.0
C532 C 0.51499 0.30897 0.53212 0.0
C533 C 0.51997 0.32777 0.59449 0.0
C534 C 0.5318 0.35057 0.56606 0.0
C535 C 0.53926 0.35449 0.47909 0.0
C536 C 0.54811 0.38244 0.46386 0.0
C537 C 0.57477 0.38026 0.42311 0.0
C538 C 0.53326 0.39888 0.40811 0.0
C539 C 0.54383 0.39415 0.55595 0.0
C540 C 0.53516 0.37514 0.61413 0.0
C541 C 0.52911 0.38155 0.70273 0.0
C542 C 0.53165 0.40807 0.7323 0.0
C543 C 0.53964 0.42805 0.67363 0.0
C544 C 0.5459 0.42097 0.58438 0.0
H545 H 0.22323 0.53302 0.32222 0.0
H546 H 0.21992 0.59495 0.13622 0.0
H547 H 0.19453 0.62553 0.24926 0.0
H548 H 0.16757 0.53614 0.3975 0.0
H549 H 0.16779 0.53069 0.51025 0.0
H550 H 0.19311 0.51878 0.42986 0.0
H551 H 0.22033 0.54639 0.50824 0.0
H552 H 0.19483 0.55838 0.58982 0.0
H553 H 0.21323 0.58238 0.53166 0.0
H554 H 0.16086 0.64264 0.36196 0.0
H555 H 0.12178 0.64379 0.45964 0.0
H556 H 0.14508 0.57026 0.57334 0.0
C557 C 0.21835 0.55372 0.30754 0.0
C558 C 0.2238 0.56206 0.22192 0.0
C559 C 0.21625 0.58861 0.20236 0.0
C560 C 0.20189 0.60609 0.26634 0.0
C561 C 0.19524 0.59662 0.34934 0.0
C562 C 0.20354 0.57109 0.37051 0.0
C563 C 0.18969 0.56313 0.4565 0.0
C564 C 0.17889 0.53561 0.44785 0.0
C565 C 0.20546 0.56255 0.52566 0.0
C566 C 0.17069 0.58665 0.47535 0.0
C567 C 0.17484 0.6064 0.41516 0.0
C568 C 0.15779 0.62778 0.41104 0.0
C569 C 0.13555 0.6282 0.46638 0.0
C570 C 0.13044 0.60713 0.52415 0.0
C571 C 0.14872 0.58707 0.53174 0.0
H572 H 0.0316 0.7634 0.24892 0.0
H573 H 0.95473 0.77206 0.29136 0.0
H574 H 0.95639 0.80181 0.16796 0.0
H575 H 0.03905 0.82526 0.23911 0.0
H576 H 0.06541 0.82539 0.15618 0.0
H577 H 0.0598 0.79546 0.21524 0.0
H578 H 0.06151 0.76655 0.07354 0.0
H579 H 0.06808 0.79629 0.01265 0.0
H580 H 0.04331 0.7774 0.99695 0.0
H581 H 0.96522 0.84134 0.08452 0.0
H582 H 0.98029 0.88479 0.03883 0.0
H583 H 0.05229 0.85261 0.04797 0.0
C584 C 1.01532 0.77002 0.22725 0.0
C585 C 0.9931 0.76513 0.27689 0.0
C586 C 0.97185 0.7751 0.25168 0.0
C587 C 0.97271 0.79206 0.18186 0.0
C588 C 0.99496 0.79877 0.13871 0.0
C589 C 1.01602 0.7875 0.15899 0.0
C590 C 0.03711 0.80253 0.11815 0.0
C591 C 0.05111 0.81276 0.18627 0.0
C592 C 0.05346 0.78463 0.046 0.0
C593 C 0.02433 0.8258 0.08078 0.0
C594 C 1.00019 0.82266 0.09019 0.0
C595 C 0.9842 0.8435 0.07327 0.0
C596 C 0.99297 0.86823 0.04753 0.0
C597 C 0.01756 0.87206 0.03919 0.0
C598 C 0.03343 0.85024 0.05365 0.0
H599 H 0.73887 0.02487 0.12199 0.0
H600 H 0.73323 0.09343 0.30507 0.0
H601 H 0.70487 0.11827 0.22914 0.0
H602 H 0.72439 0.06559 0.92484 0.0
H603 H 0.70723 0.03854 0.89694 0.0
H604 H 0.73358 0.03079 0.942 0.0
H605 H 0.70861 0.00495 0.06275 0.0
H606 H 0.68229 0.01289 0.01944 0.0
H607 H 0.68271 0.02246 0.13087 0.0
H608 H 0.6695 0.12943 0.16494 0.0
H609 H 0.63114 0.12633 0.11651 0.0
H610 H 0.65823 0.04984 0.97706 0.0
C611 C 0.73289 0.04586 0.14172 0.0
C612 C 0.73867 0.05771 0.21716 0.0
C613 C 0.72951 0.08451 0.24553 0.0
C614 C 0.71334 0.09868 0.20282 0.0
C615 C 0.70653 0.08569 0.13202 0.0
C616 C 0.71637 0.05997 0.10055 0.0
C617 C 0.70264 0.04814 0.03629 0.0
C618 C 0.71787 0.04563 0.94457 0.0
C619 C 0.69352 0.02052 0.06413 0.0
C620 C 0.68237 0.07003 0.0426 0.0
C621 C 0.68536 0.09195 0.09569 0.0
C622 C 0.66733 0.1128 0.12111 0.0
C623 C 0.64551 0.11078 0.09391 0.0
C624 C 0.6418 0.08794 0.04255 0.0
C625 C 0.66082 0.06793 0.01405 0.0
H626 H 0.52214 0.69352 0.04575 0.0
H627 H 0.45787 0.69096 0.23797 0.0
H628 H 0.44587 0.65276 0.15471 0.0
H629 H 0.49751 0.66413 0.847 0.0
H630 H 0.52593 0.64528 0.80949 0.0
H631 H 0.52454 0.67847 0.86286 0.0
H632 H 0.54859 0.65771 0.97221 0.0
H633 H 0.54944 0.62449 0.92174 0.0
H634 H 0.53721 0.63014 0.03574 0.0
H635 H 0.44706 0.6073 0.07726 0.0
H636 H 0.46004 0.5615 0.00706 0.0
H637 H 0.52448 0.59288 0.86985 0.0
C638 C 0.50469 0.68625 0.06643 0.0
C639 C 0.49071 0.6954 0.14709 0.0
C640 C 0.46852 0.68456 0.17515 0.0
C641 C 0.46168 0.6627 0.12844 0.0
C642 C 0.47711 0.65218 0.05337 0.0
C643 C 0.49793 0.66412 0.02116 0.0
C644 C 0.51374 0.64613 0.95011 0.0
C645 C 0.51552 0.65929 0.86215 0.0
C646 C 0.53868 0.63921 0.97136 0.0
C647 C 0.49963 0.62137 0.95274 0.0
C648 C 0.47819 0.62542 0.01039 0.0
C649 C 0.46349 0.60418 0.0301 0.0
C650 C 0.47103 0.5782 0.99048 0.0
C651 C 0.49332 0.57366 0.93371 0.0
C652 C 0.50736 0.59573 0.91329 0.0
H653 H 0.85821 0.41161 0.45686 0.0
H654 H 0.81409 0.44401 0.2814 0.0
H655 H 0.83608 0.4127 0.1654 0.0
H656 H 0.90684 0.42223 0.32912 0.0
H657 H 0.92543 0.39351 0.35345 0.0
H658 H 0.89988 0.40626 0.43128 0.0
H659 H 0.88411 0.35826 0.43392 0.0
H660 H 0.90976 0.34554 0.35407 0.0
H661 H 0.88016 0.34146 0.3345 0.0
H662 H 0.86844 0.38899 0.05924 0.0
H663 H 0.90914 0.38526 0.97426 0.0
H664 H 0.93708 0.37693 0.21113 0.0
C665 C 0.85279 0.41181 0.39452 0.0
C666 C 0.8345 0.43076 0.37892 0.0
C667 C 0.82768 0.4296 0.29675 0.0
C668 C 0.84017 0.41168 0.22979 0.0
C669 C 0.85975 0.39528 0.24499 0.0
C670 C 0.86611 0.39537 0.32578 0.0
C671 C 0.89137 0.38293 0.3204 0.0
C672 C 0.90675 0.40241 0.36074 0.0
C673 C 0.89133 0.35541 0.36325 0.0
C674 C 0.89915 0.379 0.22299 0.0
C675 C 0.88012 0.38406 0.1813 0.0
C676 C 0.88339 0.38484 0.09134 0.0
C677 C 0.90669 0.38302 0.04355 0.0
C678 C 0.92645 0.38203 0.08626 0.0
C679 C 0.92252 0.37762 0.17606 0.0
H680 H 0.98339 0.22091 0.9575 0.0
H681 H 0.05218 0.22948 0.02773 0.0
H682 H 0.06676 0.18409 0.95798 0.0
H683 H 0.97913 0.15465 0.00295 0.0
H684 H 0.96533 0.14446 0.91401 0.0
H685 H 0.96151 0.17934 0.95455 0.0
H686 H 0.97809 0.19524 0.80145 0.0
H687 H 0.98168 0.16037 0.75979 0.0
H688 H 1.00675 0.18091 0.7438 0.0
H689 H 0.07075 0.13442 0.90865 0.0
H690 H 0.06602 0.08688 0.86285 0.0
H691 H 0.99576 0.11147 0.81375 0.0
C692 C 1.00186 0.2137 0.95442 0.0
C693 C 1.01684 0.22885 0.99652 0.0
C694 C 0.04066 0.21848 0.99396 0.0
C695 C 0.04899 0.19262 0.95515 0.0
C696 C 0.03341 0.17762 0.91767 0.0
C697 C 1.01054 0.18812 0.9147 0.0
C698 C 0.99681 0.1672 0.87598 0.0
C699 C 0.97438 0.16106 0.94075 0.0
C700 C 0.99047 0.1765 0.79015 0.0
C701 C 1.01517 0.14295 0.86076 0.0
C702 C 0.03614 0.14933 0.88557 0.0
C703 C 0.0547 0.12944 0.88658 0.0
C704 C 0.05182 0.10249 0.86105 0.0
C705 C 0.03073 0.09572 0.83348 0.0
C706 C 1.01232 0.1163 0.83244 0.0
H707 H 0.35031 0.97718 0.10451 0.0
H708 H 0.33243 0.06178 0.19019 0.0
H709 H 0.37173 0.07328 0.11045 0.0
H710 H 0.40923 0.97363 0.12821 0.0
H711 H 0.42085 0.95169 0.03346 0.0
H712 H 0.39036 0.95067 0.08732 0.0
H713 H 0.37572 0.96077 0.94414 0.0
H714 H 0.40628 0.96109 0.88977 0.0
H715 H 0.38542 0.98995 0.88548 0.0
H716 H 0.41558 0.07407 0.03782 0.0
H717 H 0.45787 0.06511 0.96586 0.0
H718 H 0.44641 0.98019 0.92289 0.0
C719 C 0.35439 0.99827 0.10426 0.0
C720 C 0.33814 0.01866 0.153 0.0
C721 C 0.34433 0.04593 0.15211 0.0
C722 C 0.36674 0.05258 0.10754 0.0
C723 C 0.38269 0.0318 0.06287 0.0
C724 C 0.37653 0.00526 0.05936 0.0
C725 C 0.39716 0.98645 0.01013 0.0
C726 C 0.40484 0.96431 0.06827 0.0
C727 C 0.39076 0.97383 0.92746 0.0
C728 C 0.41614 0.00633 0.98842 0.0
C729 C 0.40751 0.0324 0.01946 0.0
C730 C 0.42233 0.05381 0.01197 0.0
C731 C 0.4464 0.0485 0.97134 0.0
C732 C 0.45554 0.02201 0.93786 0.0
C733 C 0.44 1.00077 0.94644 0.0
H734 H 0.46842 0.33171 0.18625 0.0
H735 H 0.54199 0.2995 0.10961 0.0
H736 H 0.55068 0.33917 0.02133 0.0
H737 H 0.46515 0.36298 0.96572 0.0
H738 H 0.44553 0.39124 0.01891 0.0
H739 H 0.44432 0.35816 0.06404 0.0
H740 H 0.45085 0.37966 0.20944 0.0
H741 H 0.45307 0.41256 0.16407 0.0
H742 H 0.47702 0.3977 0.21166 0.0
H743 H 0.55362 0.38696 0.97821 0.0
H744 H 0.54843 0.43433 0.93568 0.0
H745 H 0.47183 0.4339 0.01586 0.0
C746 C 0.48591 0.33221 0.14619 0.0
C747 C 0.50446 0.31226 0.15298 0.0
C748 C 0.52745 0.31412 0.10302 0.0
C749 C 0.53262 0.33683 0.05389 0.0
C750 C 0.51437 0.35705 0.05307 0.0
C751 C 0.49118 0.35439 0.09401 0.0
C752 C 0.47516 0.37961 0.08386 0.0
C753 C 0.45643 0.37258 0.02989 0.0
C754 C 0.46334 0.39317 0.17255 0.0
C755 C 0.49322 0.3973 0.03481 0.0
C756 C 0.5158 0.384 0.01974 0.0
C757 C 0.53593 0.3972 0.98633 0.0
C758 C 0.53283 0.42425 0.96374 0.0
C759 C 0.50974 0.43755 0.97133 0.0
C760 C 0.48964 0.42397 0.00803 0.0
H761 H 0.17517 0.5038 0.10166 0.0
H762 H 0.2257 0.50503 0.86006 0.0
H763 H 0.19303 0.49916 0.77842 0.0
H764 H 0.13802 0.45335 0.02854 0.0
H765 H 0.11093 0.47023 0.09065 0.0
H766 H 0.13866 0.47231 0.12811 0.0
H767 H 0.13249 0.52495 0.13406 0.0
H768 H 0.10487 0.52305 0.09598 0.0
H769 H 0.12799 0.54201 0.0381 0.0
H770 H 0.1533 0.49823 0.72461 0.0
H771 H 0.11148 0.49823 0.70362 0.0
H772 H 0.08779 0.49604 0.98176 0.0
C773 C 0.17943 0.50238 0.03148 0.0
C774 C 0.20297 0.50485 0.98701 0.0
C775 C 0.20785 0.5029 0.89527 0.0
C776 C 0.18936 0.49974 0.84855 0.0
C777 C 0.16618 0.49816 0.89463 0.0
C778 C 0.16131 0.499 0.98421 0.0
C779 C 0.13494 0.49767 0.01897 0.0
C780 C 0.13037 0.47185 0.06954 0.0
C781 C 0.12447 0.52345 0.07506 0.0
C782 C 0.12553 0.49639 0.93515 0.0
C783 C 0.14374 0.4968 0.86396 0.0
C784 C 0.13902 0.49742 0.77997 0.0
C785 C 0.11518 0.49749 0.76865 0.0
C786 C 0.09631 0.49674 0.84084 0.0
C787 C 0.10176 0.49606 0.92495 0.0
H788 H 0.96949 0.82507 0.5296 0.0
H789 H 0.02567 0.77902 0.62677 0.0
H790 H 0.03511 0.82112 0.69839 0.0
H791 H 1.00183 0.88024 0.47053 0.0
H792 H 0.97728 0.9059 0.49926 0.0
H793 H 0.97181 0.87175 0.46914 0.0
H794 H 0.94238 0.86885 0.61438 0.0
H795 H 0.94746 0.9032 0.64458 0.0
H796 H 0.95203 0.87605 0.71508 0.0
H797 H 0.04205 0.86891 0.74234 0.0
H798 H 0.04473 0.91802 0.76303 0.0
H799 H 0.98496 0.93414 0.63264 0.0
C800 C 0.98351 0.82365 0.5673 0.0
C801 C 0.99684 0.79849 0.57226 0.0
C802 C 1.01491 0.79774 0.62288 0.0
C803 C 0.02054 0.82169 0.66321 0.0
C804 C 1.00791 0.84628 0.65279 0.0
C805 C 0.98956 0.84739 0.60692 0.0
C806 C 0.98004 0.87664 0.59942 0.0
C807 C 0.98292 0.88405 0.50393 0.0
C808 C 0.95392 0.88147 0.64617 0.0
C809 C 0.99633 0.89195 0.64627 0.0
C810 C 1.01211 0.87396 0.67718 0.0
C811 C 0.0296 0.8831 0.71922 0.0
C812 C 0.03102 0.91121 0.73023 0.0
C813 C 1.01504 0.93024 0.69959 0.0
C814 C 0.99738 0.92029 0.65724 0.0
H815 H 0.70597 0.03836 0.53466 0.0
H816 H 0.72072 0.9593 0.39912 0.0
H817 H 0.68224 0.9452 0.47763 0.0
H818 H 0.67478 0.01277 0.74617 0.0
H819 H 0.65395 0.04248 0.76646 0.0
H820 H 0.68375 0.04508 0.70723 0.0
H821 H 0.66641 0.06563 0.58058 0.0
H822 H 0.63659 0.06283 0.6388 0.0
H823 H 0.64594 0.04709 0.53147 0.0
H824 H 0.63909 0.94286 0.55192 0.0
H825 H 0.59744 0.9498 0.63229 0.0
H826 H 0.61171 0.02881 0.73057 0.0
C827 C 0.70145 0.01774 0.52406 0.0
C828 C 0.71655 0.99973 0.46165 0.0
C829 C 0.70975 0.97316 0.4479 0.0
C830 C 0.68779 0.9651 0.49173 0.0
C831 C 0.67296 0.98365 0.55066 0.0
C832 C 0.67981 0.00918 0.56874 0.0
C833 C 0.66026 0.02557 0.63284 0.0
C834 C 0.66869 0.03184 0.71824 0.0
C835 C 0.65181 0.05182 0.59354 0.0
C836 C 0.64097 0.0057 0.64548 0.0
C837 C 0.64861 0.98168 0.59707 0.0
C838 C 0.63319 0.96129 0.59178 0.0
C839 C 0.60951 0.96544 0.6373 0.0
C840 C 0.60145 0.98958 0.68894 0.0
C841 C 0.61754 0.00983 0.69349 0.0
H842 H 0.52266 0.64002 0.31363 0.0
H843 H 0.54448 0.70319 0.47512 0.0
H844 H 0.55397 0.6683 0.57534 0.0
H845 H 0.49076 0.60718 0.4908 0.0
H846 H 0.4977 0.57366 0.43894 0.0
H847 H 0.4961 0.60288 0.37425 0.0
H848 H 0.53894 0.5891 0.29054 0.0
H849 H 0.54079 0.55994 0.35562 0.0
H850 H 0.56295 0.58429 0.34962 0.0
H851 H 0.55998 0.62582 0.66093 0.0
H852 H 0.55718 0.5819 0.73214 0.0
H853 H 0.52553 0.54896 0.52504 0.0
C854 C 0.52903 0.64703 0.37045 0.0
C855 C 0.5325 0.67488 0.38584 0.0
C856 C 0.54188 0.68218 0.4602 0.0
C857 C 0.54724 0.66244 0.51801 0.0
C858 C 0.54291 0.63543 0.50148 0.0
C859 C 0.53367 0.62789 0.42999 0.0
C860 C 0.52839 0.59821 0.43043 0.0
C861 C 0.50165 0.59533 0.43384 0.0
C862 C 0.54369 0.58193 0.35188 0.0
C863 C 0.53589 0.59013 0.51403 0.0
C864 C 0.54482 0.61166 0.55303 0.0
C865 C 0.55302 0.60891 0.63075 0.0
C866 C 0.55152 0.58382 0.67043 0.0
C867 C 0.54129 0.562 0.63372 0.0
C868 C 0.53359 0.56523 0.55413 0.0
H869 H 0.86465 0.45636 0.6323 0.0
H870 H 0.84255 0.54004 0.58972 0.0
H871 H 0.87463 0.5556 0.66069 0.0
H872 H 0.88338 0.46851 0.84081 0.0
H873 H 0.90858 0.44362 0.8143 0.0
H874 H 0.88218 0.43937 0.76976 0.0
H875 H 0.9076 0.43619 0.61447 0.0
H876 H 0.93402 0.44042 0.65851 0.0
H877 H 0.92613 0.46322 0.57941 0.0
H878 H 0.91204 0.56161 0.72214 0.0
H879 H 0.95051 0.55773 0.77226 0.0
H880 H 0.9484 0.47 0.77329 0.0
C881 C 0.86633 0.47802 0.63863 0.0
C882 C 0.85091 0.49696 0.60521 0.0
C883 C 0.85377 0.5251 0.61571 0.0
C884 C 0.87209 0.53413 0.65552 0.0
C885 C 0.88738 0.51481 0.68511 0.0
C886 C 0.88455 0.48733 0.67766 0.0
C887 C 0.90421 0.47056 0.70955 0.0
C888 C 0.89397 0.45457 0.78829 0.0
C889 C 0.91885 0.45149 0.63612 0.0
C890 C 0.9188 0.49287 0.73511 0.0
C891 C 0.90877 0.51826 0.72078 0.0
C892 C 0.91983 0.54185 0.7347 0.0
C893 C 0.94173 0.53943 0.76311 0.0
C894 C 0.95244 0.5136 0.77769 0.0
C895 C 0.94053 0.4901 0.76445 0.0
loop_
_geom_bond_atom_site_label_1
_geom_bond_atom_site_label_2
_geom_bond_distance
_geom_bond_site_symmetry_2
_ccdc_geom_bond_type
H0 C3 0.929 . S
H1 C6 0.929 . S
H2 C8 0.930 . S
C3 H0 0.929 . S
C3 C4 1.398 . S
C3 C5 1.396 . S
C4 C3 1.398 . S
C4 C8 1.407 . S
C5 C3 1.396 . S
C5 C6 1.394 . S
C6 H1 0.929 . S
C6 C5 1.394 . S
C6 C7 1.382 . S
C7 C6 1.382 . S
C7 C8 1.392 . S
C7 N9 1.420 . S
C8 H2 0.930 . S
C8 C4 1.407 . S
C8 C7 1.392 . S
N9 C7 1.420 . S
N9 C10 1.244 . S
C10 N9 1.244 . S
H11 C14 0.929 . S
H12 C17 0.931 1_455 S
H13 C19 0.928 1_455 S
C14 H11 0.929 . S
C14 C15 1.398 . S
C14 C16 1.396 . S
C15 C14 1.398 . S
C15 C19 1.408 . S
C16 C14 1.396 . S
C16 C17 1.394 . S
C17 H12 0.931 1_655 S
C17 C16 1.394 . S
C17 C18 1.380 1_655 S
C18 C17 1.380 1_455 S
C18 C19 1.396 1_455 S
C18 N20 1.421 . S
C19 H13 0.928 1_655 S
C19 C15 1.408 . S
C19 C18 1.396 1_655 S
N20 C18 1.421 . S
N20 C21 1.244 1_455 S
C21 N20 1.244 1_655 S
H22 C25 0.929 . S
H23 C28 0.929 . S
H24 C30 0.930 . S
C25 H22 0.929 . S
C25 C26 1.395 1_565 S
C25 C27 1.393 1_565 S
C26 C25 1.395 1_545 S
C26 C30 1.416 . S
C27 C25 1.393 1_545 S
C27 C28 1.398 . S
C28 H23 0.929 . S
C28 C27 1.398 . S
C28 C29 1.382 . S
C29 C28 1.382 . S
C29 C30 1.392 . S
C29 N31 1.420 . S
C30 H24 0.930 . S
C30 C26 1.416 . S
C30 C29 1.392 . S
N31 C29 1.420 . S
N31 C32 1.234 1_545 S
C32 N31 1.234 1_565 S
H33 C36 0.929 . S
H34 C39 0.929 . S
H35 C41 0.930 . S
C36 H33 0.929 . S
C36 C37 1.398 . S
C36 C38 1.396 . S
C37 C36 1.398 . S
C37 C41 1.407 . S
C38 C36 1.396 . S
C38 C39 1.394 . S
C39 H34 0.929 . S
C39 C38 1.394 . S
C39 C40 1.382 . S
C40 C39 1.382 . S
C40 C41 1.392 . S
C40 N42 1.420 . S
C41 H35 0.930 . S
C41 C37 1.407 . S
C41 C40 1.392 . S
N42 C40 1.420 . S
N42 C43 1.244 . S
C43 N42 1.244 . S
H44 C47 0.929 . S
H45 C50 0.929 . S
H46 C52 0.930 . S
C47 H44 0.929 . S
C47 C48 1.398 . S
C47 C49 1.396 1_556 S
C48 C47 1.398 . S
C48 C52 1.407 . S
C49 C47 1.396 1_554 S
C49 C50 1.394 . S
C50 H45 0.929 . S
C50 C49 1.394 . S
C50 C51 1.382 1_554 S
C51 C50 1.382 1_556 S
C51 C52 1.392 . S
C51 N53 1.420 . S
C52 H46 0.930 . S
C52 C48 1.407 . S
C52 C51 1.392 . S
N53 C51 1.420 . S
N53 C54 1.244 1_556 S
C54 N53 1.244 1_554 S
H55 C58 0.929 . S
H56 C61 0.929 . S
H57 C63 0.930 1_556 S
C58 H55 0.929 . S
C58 C59 1.398 . S
C58 C60 1.396 . S
C59 C58 1.398 . S
C59 C63 1.407 . S
C60 C58 1.396 . S
C60 C61 1.394 . S
C61 H56 0.929 . S
C61 C60 1.394 . S
C61 C62 1.382 . S
C62 C61 1.382 . S
C62 C63 1.392 . S
C62 N64 1.420 . S
C63 H57 0.930 1_554 S
C63 C59 1.407 . S
C63 C62 1.392 . S
N64 C62 1.420 . S
N64 C65 1.244 . S
C65 N64 1.244 . S
H66 C69 0.929 . S
H67 C72 0.929 . S
H68 C74 0.930 . S
C69 H66 0.929 . S
C69 C70 1.395 1_565 S
C69 C71 1.396 1_565 S
C70 C69 1.395 1_545 S
C70 C74 1.412 . S
C71 C69 1.396 1_545 S
C71 C72 1.396 . S
C72 H67 0.929 . S
C72 C71 1.396 . S
C72 C73 1.382 . S
C73 C72 1.382 . S
C73 C74 1.392 . S
C73 N75 1.420 . S
C74 H68 0.930 . S
C74 C70 1.412 . S
C74 C73 1.392 . S
N75 C73 1.420 . S
N75 C76 1.235 1_545 S
C76 N75 1.235 1_565 S
H77 C80 0.929 . S
H78 C83 0.929 . S
H79 C85 0.930 . S
C80 H77 0.929 . S
C80 C81 1.398 . S
C80 C82 1.396 . S
C81 C80 1.398 . S
C81 C85 1.407 . S
C82 C80 1.396 . S
C82 C83 1.394 . S
C83 H78 0.929 . S
C83 C82 1.394 . S
C83 C84 1.382 . S
C84 C83 1.382 . S
C84 C85 1.392 . S
C84 N86 1.420 . S
C85 H79 0.930 . S
C85 C81 1.407 . S
C85 C84 1.392 . S
N86 C84 1.420 . S
N86 C87 1.244 . S
C87 N86 1.244 . S
Dy88 O91 2.307 1_545 S
Dy88 O93 2.395 1_655 S
Dy88 O94 2.379 . S
Dy88 O96 2.339 . S
Dy88 O98 2.298 . S
Dy88 O102 2.275 1_655 S
Dy88 C110 2.738 . S
Dy89 O92 2.298 . S
Dy89 O95 2.275 1_455 S
Dy89 O97 2.307 1_565 S
Dy89 O99 2.395 1_455 S
Dy89 O100 2.379 . S
Dy89 O103 2.339 . S
Dy89 C119 2.738 . S
C90 O102 1.254 1_565 S
C90 O103 1.257 . S
O91 Dy88 2.307 1_565 S
O91 C101 1.266 . S
O92 Dy89 2.298 . S
O92 C101 1.236 1_455 S
O93 Dy88 2.395 1_455 S
O93 C110 1.255 1_455 S
O94 Dy88 2.379 . S
O94 C110 1.249 . S
O95 Dy89 2.275 1_655 S
O95 C111 1.254 1_565 S
O96 Dy88 2.339 . S
O96 C111 1.257 . S
O97 Dy89 2.307 1_545 S
O97 C112 1.266 . S
O98 Dy88 2.298 . S
O98 C112 1.236 1_655 S
O99 Dy89 2.395 1_655 S
O99 C119 1.255 1_655 S
O100 Dy89 2.379 . S
O100 C119 1.249 . S
C101 O91 1.266 . S
C101 O92 1.236 1_655 S
O102 Dy88 2.275 1_455 S
O102 C90 1.254 1_545 S
O103 Dy89 2.339 . S
O103 C90 1.257 . S
C104 C107 1.344 1_655 S
C104 C108 1.328 . S
C104 C110 1.516 . S
C105 C106 1.304 1_655 S
C105 C109 1.323 . S
C106 C105 1.304 1_455 S
C106 C107 1.371 . S
C106 H120 0.930 . S
C107 C104 1.344 1_455 S
C107 C106 1.371 . S
C107 H121 0.931 . S
C108 C104 1.328 . S
C108 C109 1.433 . S
C108 H122 0.931 . S
C109 C105 1.323 . S
C109 C108 1.433 . S
C109 H123 0.933 . S
C110 Dy88 2.738 . S
C110 O93 1.255 1_655 S
C110 O94 1.249 . S
C110 C104 1.516 . S
C111 O95 1.254 1_545 S
C111 O96 1.257 . S
C112 O97 1.266 . S
C112 O98 1.236 1_455 S
C113 C116 1.344 1_455 S
C113 C117 1.328 . S
C113 C119 1.516 1_554 S
C114 C115 1.304 1_455 S
C114 C118 1.323 . S
C115 C114 1.304 1_655 S
C115 C116 1.371 . S
C115 H124 0.930 . S
C116 C113 1.344 1_655 S
C116 C115 1.371 . S
C116 H125 0.931 . S
C117 C113 1.328 . S
C117 C118 1.433 . S
C117 H126 0.931 . S
C118 C114 1.323 . S
C118 C117 1.433 . S
C118 H127 0.933 . S
C119 Dy89 2.738 . S
C119 O99 1.255 1_455 S
C119 O100 1.249 . S
C119 C113 1.516 1_556 S
H120 C106 0.930 . S
H121 C107 0.931 . S
H122 C108 0.931 . S
H123 C109 0.933 . S
H124 C115 0.930 . S
H125 C116 0.931 . S
H126 C117 0.931 . S
H127 C118 0.933 . S
Dy128 O131 2.307 . S
Dy128 O133 2.395 1_565 S
Dy128 O134 2.379 . S
Dy128 O136 2.339 . S
Dy128 O138 2.298 . S
Dy128 O142 2.275 1_565 S
Dy128 C150 2.738 . S
Dy129 O132 2.298 . S
Dy129 O135 2.275 1_545 S
Dy129 O137 2.307 . S
Dy129 O139 2.395 1_545 S
Dy129 O140 2.379 . S
Dy129 O143 2.339 . S
Dy129 C159 2.738 . S
C130 O142 1.254 . S
C130 O143 1.257 . S
O131 Dy128 2.307 . S
O131 C141 1.266 . S
O132 Dy129 2.298 . S
O132 C141 1.236 1_545 S
O133 Dy128 2.395 1_545 S
O133 C150 1.255 1_545 S
O134 Dy128 2.379 . S
O134 C150 1.249 . S
O135 Dy129 2.275 1_565 S
O135 C151 1.254 . S
O136 Dy128 2.339 . S
O136 C151 1.257 . S
O137 Dy129 2.307 . S
O137 C152 1.266 . S
O138 Dy128 2.298 . S
O138 C152 1.236 1_565 S
O139 Dy129 2.395 1_565 S
O139 C159 1.255 1_565 S
O140 Dy129 2.379 . S
O140 C159 1.249 . S
C141 O131 1.266 . S
C141 O132 1.236 1_565 S
O142 Dy128 2.275 1_545 S
O142 C130 1.254 . S
O143 Dy129 2.339 . S
O143 C130 1.257 . S
C144 C147 1.344 1_565 S
C144 C148 1.328 . S
C144 C150 1.516 . S
C145 C146 1.304 1_565 S
C145 C149 1.323 . S
C146 C145 1.304 1_545 S
C146 C147 1.371 . S
C146 H160 0.930 . S
C147 C144 1.344 1_545 S
C147 C146 1.371 . S
C147 H161 0.931 . S
C148 C144 1.328 . S
C148 C149 1.433 . S
C148 H162 0.931 . S
C149 C145 1.323 . S
C149 C148 1.433 . S
C149 H163 0.933 . S
C150 Dy128 2.738 . S
C150 O133 1.255 1_565 S
C150 O134 1.249 . S
C150 C144 1.516 . S
C151 O135 1.254 . S
C151 O136 1.257 . S
C152 O137 1.266 . S
C152 O138 1.236 1_545 S
C153 C156 1.344 1_545 S
C153 C157 1.328 . S
C153 C159 1.516 1_554 S
C154 C155 1.304 1_545 S
C154 C158 1.323 . S
C155 C154 1.304 1_565 S
C155 C156 1.371 . S
C155 H164 0.930 . S
C156 C153 1.344 1_565 S
C156 C155 1.371 . S
C156 H165 0.931 1_554 S
C157 C153 1.328 . S
C157 C158 1.433 . S
C157 H166 0.931 . S
C158 C154 1.323 . S
C158 C157 1.433 . S
C158 H167 0.933 . S
C159 Dy129 2.738 . S
C159 O139 1.255 1_545 S
C159 O140 1.249 . S
C159 C153 1.516 1_556 S
H160 C146 0.930 . S
H161 C147 0.931 . S
H162 C148 0.931 . S
H163 C149 0.933 . S
H164 C155 0.930 . S
H165 C156 0.931 1_556 S
H166 C157 0.931 . S
H167 C158 0.933 . S
Dy168 O171 2.307 . S
Dy168 O173 2.395 . S
Dy168 O174 2.379 . S
Dy168 O176 2.339 . S
Dy168 O178 2.298 . S
Dy168 O182 2.275 . S
Dy168 C190 2.738 . S
Dy169 O172 2.298 . S
Dy169 O175 2.275 . S
Dy169 O177 2.307 . S
Dy169 O179 2.395 . S
Dy169 O180 2.379 . S
Dy169 O183 2.339 . S
Dy169 C199 2.738 . S
C170 O182 1.254 . S
C170 O183 1.257 . S
O171 Dy168 2.307 . S
O171 C181 1.266 . S
O172 Dy169 2.298 . S
O172 C181 1.236 . S
O173 Dy168 2.395 . S
O173 C190 1.255 . S
O174 Dy168 2.379 . S
O174 C190 1.249 . S
O175 Dy169 2.275 . S
O175 C191 1.254 . S
O176 Dy168 2.339 . S
O176 C191 1.257 . S
O177 Dy169 2.307 . S
O177 C192 1.266 . S
O178 Dy168 2.298 . S
O178 C192 1.236 . S
O179 Dy169 2.395 . S
O179 C199 1.255 . S
O180 Dy169 2.379 . S
O180 C199 1.249 . S
C181 O171 1.266 . S
C181 O172 1.236 . S
O182 Dy168 2.275 . S
O182 C170 1.254 . S
O183 Dy169 2.339 . S
O183 C170 1.257 . S
C184 C187 1.344 1_556 S
C184 C188 1.328 . S
C184 C190 1.516 . S
C185 C186 1.304 . S
C185 C189 1.323 1_554 S
C186 C185 1.304 . S
C186 C187 1.371 . S
C186 H200 0.930 . S
C187 C184 1.344 1_554 S
C187 C186 1.371 . S
C187 H201 0.931 . S
C188 C184 1.328 . S
C188 C189 1.433 . S
C188 H202 0.931 . S
C189 C185 1.323 1_556 S
C189 C188 1.433 . S
C189 H203 0.933 . S
C190 Dy168 2.738 . S
C190 O173 1.255 . S
C190 O174 1.249 . S
C190 C184 1.516 . S
C191 O175 1.254 . S
C191 O176 1.257 . S
C192 O177 1.266 . S
C192 O178 1.236 . S
C193 C196 1.344 . S
C193 C197 1.328 . S
C193 C199 1.516 . S
C194 C195 1.304 . S
C194 C198 1.323 . S
C195 C194 1.304 . S
C195 C196 1.371 . S
C195 H204 0.930 . S
C196 C193 1.344 . S
C196 C195 1.371 . S
C196 H205 0.931 . S
C197 C193 1.328 . S
C197 C198 1.433 . S
C197 H206 0.931 . S
C198 C194 1.323 . S
C198 C197 1.433 . S
C198 H207 0.933 . S
C199 Dy169 2.738 . S
C199 O179 1.255 . S
C199 O180 1.249 . S
C199 C193 1.516 . S
H200 C186 0.930 . S
H201 C187 0.931 . S
H202 C188 0.931 . S
H203 C189 0.933 . S
H204 C195 0.930 . S
H205 C196 0.931 . S
H206 C197 0.931 . S
H207 C198 0.933 . S
Dy208 O211 2.307 1_455 S
Dy208 O213 2.395 . S
Dy208 O214 2.379 . S
Dy208 O216 2.339 . S
Dy208 O218 2.298 . S
Dy208 O222 2.275 . S
Dy208 C230 2.738 . S
Dy209 O212 2.298 . S
Dy209 O215 2.275 . S
Dy209 O217 2.307 1_655 S
Dy209 O219 2.395 . S
Dy209 O220 2.379 . S
Dy209 O223 2.339 . S
Dy209 C239 2.738 . S
C210 O222 1.254 . S
C210 O223 1.257 1_455 S
O211 Dy208 2.307 1_655 S
O211 C221 1.266 . S
O212 Dy209 2.298 . S
O212 C221 1.236 . S
O213 Dy208 2.395 . S
O213 C230 1.255 . S
O214 Dy208 2.379 . S
O214 C230 1.249 . S
O215 Dy209 2.275 . S
O215 C231 1.254 1_655 S
O216 Dy208 2.339 . S
O216 C231 1.257 . S
O217 Dy209 2.307 1_455 S
O217 C232 1.266 . S
O218 Dy208 2.298 . S
O218 C232 1.236 . S
O219 Dy209 2.395 . S
O219 C239 1.255 . S
O220 Dy209 2.379 . S
O220 C239 1.250 . S
C221 O211 1.266 . S
C221 O212 1.236 . S
O222 Dy208 2.275 . S
O222 C210 1.254 . S
O223 Dy209 2.339 . S
O223 C210 1.257 1_655 S
C224 C227 1.344 . S
C224 C228 1.328 . S
C224 C230 1.516 . S
C225 C226 1.304 . S
C225 C229 1.323 . S
C226 C225 1.304 . S
C226 C227 1.371 . S
C226 H240 0.930 . S
C227 C224 1.344 . S
C227 C226 1.371 . S
C227 H241 0.931 . S
C228 C224 1.328 . S
C228 C229 1.433 . S
C228 H242 0.931 . S
C229 C225 1.323 . S
C229 C228 1.433 . S
C229 H243 0.933 . S
C230 Dy208 2.738 . S
C230 O213 1.255 . S
C230 O214 1.249 . S
C230 C224 1.516 . S
C231 O215 1.254 1_455 S
C231 O216 1.257 . S
C232 O217 1.266 . S
C232 O218 1.236 . S
C233 C236 1.344 . S
C233 C237 1.328 . S
C233 C239 1.515 1_554 S
C234 C235 1.304 . S
C234 C238 1.323 . S
C235 C234 1.304 . S
C235 C236 1.371 . S
C235 H244 0.930 . S
C236 C233 1.344 . S
C236 C235 1.371 . S
C236 H245 0.931 . S
C237 C233 1.328 . S
C237 C238 1.433 . S
C237 H246 0.931 . S
C238 C234 1.323 . S
C238 C237 1.433 . S
C238 H247 0.933 . S
C239 Dy209 2.738 . S
C239 O219 1.255 . S
C239 O220 1.250 . S
C239 C233 1.515 1_556 S
H240 C226 0.930 . S
H241 C227 0.931 . S
H242 C228 0.931 . S
H243 C229 0.933 . S
H244 C235 0.930 . S
H245 C236 0.931 . S
H246 C237 0.931 . S
H247 C238 0.933 . S
H248 C260 0.930 . S
H249 C262 0.930 . S
H250 C263 0.930 . S
H251 C267 0.959 . S
H252 C267 0.959 . S
H253 C267 0.961 . S
H254 C268 0.960 . S
H255 C268 0.961 . S
H256 C268 0.959 . S
H257 C271 0.929 . S
H258 C272 0.931 . S
H259 C274 0.930 . S
C260 H248 0.930 . S
C260 C261 1.399 1_565 S
C260 C265 1.399 . S
C261 C260 1.399 1_545 S
C261 C262 1.376 . S
C262 H249 0.930 . S
C262 C261 1.376 . S
C262 C263 1.388 . S
C263 H250 0.930 . S
C263 C262 1.388 . S
C263 C264 1.390 . S
C264 C263 1.390 . S
C264 C265 1.394 1_545 S
C264 C270 1.465 . S
C265 C260 1.399 . S
C265 C264 1.394 1_565 S
C265 C266 1.516 . S
C266 C265 1.516 . S
C266 C267 1.502 . S
C266 C268 1.561 . S
C266 C269 1.526 . S
C267 H251 0.959 . S
C267 H252 0.959 . S
C267 H253 0.961 . S
C267 C266 1.502 . S
C268 H254 0.960 . S
C268 H255 0.961 . S
C268 H256 0.959 . S
C268 C266 1.561 . S
C269 C266 1.526 . S
C269 C270 1.396 1_565 S
C269 C274 1.390 . S
C270 C264 1.465 . S
C270 C269 1.396 1_545 S
C270 C271 1.399 . S
C271 H257 0.929 . S
C271 C270 1.399 . S
C271 C272 1.385 . S
C272 H258 0.931 . S
C272 C271 1.385 . S
C272 C273 1.389 . S
C273 C272 1.389 . S
C273 C274 1.387 1_545 S
C274 H259 0.930 . S
C274 C269 1.390 . S
C274 C273 1.387 1_565 S
H275 C287 0.930 . S
H276 C289 0.930 . S
H277 C290 0.930 . S
H278 C294 0.959 . S
H279 C294 0.959 . S
H280 C294 0.961 . S
H281 C295 0.960 . S
H282 C295 0.961 . S
H283 C295 0.959 . S
H284 C298 0.929 . S
H285 C299 0.931 . S
H286 C301 0.930 . S
C287 H275 0.930 . S
C287 C288 1.399 . S
C287 C292 1.399 . S
C288 C287 1.399 . S
C288 C289 1.376 . S
C289 H276 0.930 . S
C289 C288 1.376 . S
C289 C290 1.388 . S
C290 H277 0.930 . S
C290 C289 1.388 . S
C290 C291 1.390 . S
C291 C290 1.390 . S
C291 C292 1.394 . S
C291 C297 1.465 . S
C292 C287 1.399 . S
C292 C291 1.394 . S
C292 C293 1.516 . S
C293 C292 1.516 . S
C293 C294 1.502 . S
C293 C295 1.561 . S
C293 C296 1.526 . S
C294 H278 0.959 . S
C294 H279 0.959 . S
C294 H280 0.961 . S
C294 C293 1.502 . S
C295 H281 0.960 . S
C295 H282 0.961 . S
C295 H283 0.959 . S
C295 C293 1.561 . S
C296 C293 1.526 . S
C296 C297 1.396 . S
C296 C301 1.390 . S
C297 C291 1.465 . S
C297 C296 1.396 . S
C297 C298 1.399 . S
C298 H284 0.929 . S
C298 C297 1.399 . S
C298 C299 1.385 . S
C299 H285 0.931 . S
C299 C298 1.385 . S
C299 C300 1.389 . S
C300 C299 1.389 . S
C300 C301 1.387 . S
C301 H286 0.930 . S
C301 C296 1.390 . S
C301 C300 1.387 . S
H302 C314 0.930 . S
H303 C316 0.930 . S
H304 C317 0.930 . S
H305 C321 0.959 . S
H306 C321 0.959 . S
H307 C321 0.961 . S
H308 C322 0.960 . S
H309 C322 0.961 . S
H310 C322 0.959 . S
H311 C325 0.929 . S
H312 C326 0.931 . S
H313 C328 0.930 . S
C314 H302 0.930 . S
C314 C315 1.399 . S
C314 C319 1.399 . S
C315 C314 1.399 . S
C315 C316 1.376 . S
C316 H303 0.930 . S
C316 C315 1.376 . S
C316 C317 1.388 . S
C317 H304 0.930 . S
C317 C316 1.388 . S
C317 C318 1.390 . S
C318 C317 1.390 . S
C318 C319 1.394 . S
C318 C324 1.465 . S
C319 C314 1.399 . S
C319 C318 1.394 . S
C319 C320 1.516 . S
C320 C319 1.516 . S
C320 C321 1.502 . S
C320 C322 1.561 . S
C320 C323 1.526 . S
C321 H305 0.959 . S
C321 H306 0.959 . S
C321 H307 0.961 . S
C321 C320 1.502 . S
C322 H308 0.960 . S
C322 H309 0.961 . S
C322 H310 0.959 . S
C322 C320 1.561 . S
C323 C320 1.526 . S
C323 C324 1.396 . S
C323 C328 1.390 . S
C324 C318 1.465 . S
C324 C323 1.396 . S
C324 C325 1.399 . S
C325 H311 0.929 . S
C325 C324 1.399 . S
C325 C326 1.385 . S
C326 H312 0.931 . S
C326 C325 1.385 . S
C326 C327 1.389 . S
C327 C326 1.389 . S
C327 C328 1.387 . S
C328 H313 0.930 . S
C328 C323 1.390 . S
C328 C327 1.387 . S
H329 C341 0.930 . S
H330 C343 0.930 . S
H331 C344 0.930 . S
H332 C348 0.959 . S
H333 C348 0.959 . S
H334 C348 0.961 . S
H335 C349 0.960 . S
H336 C349 0.961 . S
H337 C349 0.959 . S
H338 C352 0.929 . S
H339 C353 0.931 . S
H340 C355 0.930 . S
C341 H329 0.930 . S
C341 C342 1.399 . S
C341 C346 1.399 . S
C342 C341 1.399 . S
C342 C343 1.376 1_455 S
C343 H330 0.930 . S
C343 C342 1.376 1_655 S
C343 C344 1.388 . S
C344 H331 0.930 . S
C344 C343 1.388 . S
C344 C345 1.390 1_655 S
C345 C344 1.390 1_455 S
C345 C346 1.394 . S
C345 C351 1.465 . S
C346 C341 1.399 . S
C346 C345 1.394 . S
C346 C347 1.516 . S
C347 C346 1.516 . S
C347 C348 1.502 . S
C347 C349 1.561 1_455 S
C347 C350 1.526 . S
C348 H332 0.959 . S
C348 H333 0.959 . S
C348 H334 0.961 . S
C348 C347 1.502 . S
C349 H335 0.960 . S
C349 H336 0.961 . S
C349 H337 0.959 . S
C349 C347 1.561 1_655 S
C350 C347 1.526 . S
C350 C351 1.396 . S
C350 C355 1.390 . S
C351 C345 1.465 . S
C351 C350 1.396 . S
C351 C352 1.399 1_455 S
C352 H338 0.929 . S
C352 C351 1.399 1_655 S
C352 C353 1.385 . S
C353 H339 0.931 . S
C353 C352 1.385 . S
C353 C354 1.389 1_655 S
C354 C353 1.389 1_455 S
C354 C355 1.387 . S
C355 H340 0.930 . S
C355 C350 1.390 . S
C355 C354 1.387 . S
H356 C368 0.930 . S
H357 C370 0.930 . S
H358 C371 0.930 . S
H359 C375 0.959 . S
H360 C375 0.959 . S
H361 C375 0.961 . S
H362 C376 0.960 . S
H363 C376 0.961 . S
H364 C376 0.959 . S
H365 C379 0.929 . S
H366 C380 0.931 . S
H367 C382 0.930 . S
C368 H356 0.930 . S
C368 C369 1.399 1_565 S
C368 C373 1.399 . S
C369 C368 1.399 1_545 S
C369 C370 1.376 . S
C370 H357 0.930 . S
C370 C369 1.376 . S
C370 C371 1.388 . S
C371 H358 0.930 . S
C371 C370 1.388 . S
C371 C372 1.390 . S
C372 C371 1.390 . S
C372 C373 1.394 1_545 S
C372 C378 1.465 . S
C373 C368 1.399 . S
C373 C372 1.394 1_565 S
C373 C374 1.516 . S
C374 C373 1.516 . S
C374 C375 1.502 . S
C374 C376 1.561 . S
C374 C377 1.526 . S
C375 H359 0.959 . S
C375 H360 0.959 . S
C375 H361 0.961 . S
C375 C374 1.502 . S
C376 H362 0.960 . S
C376 H363 0.961 . S
C376 H364 0.959 . S
C376 C374 1.561 . S
C377 C374 1.526 . S
C377 C378 1.396 1_565 S
C377 C382 1.390 1_554 S
C378 C372 1.465 . S
C378 C377 1.396 1_545 S
C378 C379 1.399 1_554 S
C379 H365 0.929 . S
C379 C378 1.399 1_556 S
C379 C380 1.385 . S
C380 H366 0.931 . S
C380 C379 1.385 . S
C380 C381 1.389 . S
C381 C380 1.389 . S
C381 C382 1.387 1_545 S
C382 H367 0.930 . S
C382 C377 1.390 1_556 S
C382 C381 1.387 1_565 S
H383 C395 0.930 1_556 S
H384 C397 0.930 . S
H385 C398 0.930 . S
H386 C402 0.959 . S
H387 C402 0.959 . S
H388 C402 0.961 . S
H389 C403 0.960 . S
H390 C403 0.961 . S
H391 C403 0.959 . S
H392 C406 0.929 . S
H393 C407 0.931 1_554 S
H394 C409 0.930 . S
C395 H383 0.930 1_554 S
C395 C396 1.399 . S
C395 C400 1.399 1_554 S
C396 C395 1.399 . S
C396 C397 1.376 . S
C397 H384 0.930 . S
C397 C396 1.376 . S
C397 C398 1.388 . S
C398 H385 0.930 . S
C398 C397 1.388 . S
C398 C399 1.390 . S
C399 C398 1.390 . S
C399 C400 1.394 1_554 S
C399 C405 1.465 . S
C400 C395 1.399 1_556 S
C400 C399 1.394 1_556 S
C400 C401 1.516 . S
C401 C400 1.516 . S
C401 C402 1.502 . S
C401 C403 1.561 . S
C401 C404 1.526 . S
C402 H386 0.959 . S
C402 H387 0.959 . S
C402 H388 0.961 . S
C402 C401 1.502 . S
C403 H389 0.960 . S
C403 H390 0.961 . S
C403 H391 0.959 . S
C403 C401 1.561 . S
C404 C401 1.526 . S
C404 C405 1.396 1_556 S
C404 C409 1.390 . S
C405 C399 1.465 . S
C405 C404 1.396 1_554 S
C405 C406 1.399 . S
C406 H392 0.929 . S
C406 C405 1.399 . S
C406 C407 1.385 1_554 S
C407 H393 0.931 1_556 S
C407 C406 1.385 1_556 S
C407 C408 1.389 . S
C408 C407 1.389 . S
C408 C409 1.387 . S
C409 H394 0.930 . S
C409 C404 1.390 . S
C409 C408 1.387 . S
H410 C422 0.930 . S
H411 C424 0.930 . S
H412 C425 0.930 . S
H413 C429 0.959 . S
H414 C429 0.959 . S
H415 C429 0.961 . S
H416 C430 0.960 . S
H417 C430 0.961 . S
H418 C430 0.959 . S
H419 C433 0.929 . S
H420 C434 0.931 . S
H421 C436 0.930 . S
C422 H410 0.930 . S
C422 C423 1.399 . S
C422 C427 1.399 . S
C423 C422 1.399 . S
C423 C424 1.376 . S
C424 H411 0.930 . S
C424 C423 1.376 . S
C424 C425 1.388 . S
C425 H412 0.930 . S
C425 C424 1.388 . S
C425 C426 1.390 . S
C426 C425 1.390 . S
C426 C427 1.394 . S
C426 C432 1.465 . S
C427 C422 1.399 . S
C427 C426 1.394 . S
C427 C428 1.516 . S
C428 C427 1.516 . S
C428 C429 1.502 . S
C428 C430 1.561 . S
C428 C431 1.526 . S
C429 H413 0.959 . S
C429 H414 0.959 . S
C429 H415 0.961 . S
C429 C428 1.502 . S
C430 H416 0.960 . S
C430 H417 0.961 . S
C430 H418 0.959 . S
C430 C428 1.561 . S
C431 C428 1.526 . S
C431 C432 1.396 . S
C431 C436 1.390 . S
C432 C426 1.465 . S
C432 C431 1.396 . S
C432 C433 1.399 . S
C433 H419 0.929 . S
C433 C432 1.399 . S
C433 C434 1.385 . S
C434 H420 0.931 . S
C434 C433 1.385 . S
C434 C435 1.389 . S
C435 C434 1.389 . S
C435 C436 1.387 . S
C436 H421 0.930 . S
C436 C431 1.390 . S
C436 C435 1.387 . S
H437 C449 0.930 . S
H438 C451 0.930 . S
H439 C452 0.930 . S
H440 C456 0.959 . S
H441 C456 0.959 . S
H442 C456 0.961 . S
H443 C457 0.960 . S
H444 C457 0.961 . S
H445 C457 0.959 . S
H446 C460 0.929 . S
H447 C461 0.931 . S
H448 C463 0.930 . S
C449 H437 0.930 . S
C449 C450 1.399 . S
C449 C454 1.399 . S
C450 C449 1.399 . S
C450 C451 1.376 1_655 S
C451 H438 0.930 . S
C451 C450 1.376 1_455 S
C451 C452 1.388 . S
C452 H439 0.930 . S
C452 C451 1.388 . S
C452 C453 1.390 . S
C453 C452 1.390 . S
C453 C454 1.394 1_455 S
C453 C459 1.465 . S
C454 C449 1.399 . S
C454 C453 1.394 1_655 S
C454 C455 1.516 . S
C455 C454 1.516 . S
C455 C456 1.502 . S
C455 C457 1.561 . S
C455 C458 1.526 . S
C456 H440 0.959 . S
C456 H441 0.959 . S
C456 H442 0.961 . S
C456 C455 1.502 . S
C457 H443 0.960 . S
C457 H444 0.961 . S
C457 H445 0.959 . S
C457 C455 1.561 . S
C458 C455 1.526 . S
C458 C459 1.396 1_655 S
C458 C463 1.390 . S
C459 C453 1.465 . S
C459 C458 1.396 1_455 S
C459 C460 1.399 . S
C460 H446 0.929 . S
C460 C459 1.399 . S
C460 C461 1.385 1_554 S
C461 H447 0.931 . S
C461 C460 1.385 1_556 S
C461 C462 1.426 . S
C462 C461 1.426 . S
C462 C463 1.364 1_456 S
C463 H448 0.930 . S
C463 C458 1.390 . S
C463 C462 1.364 1_654 S
H464 C476 0.930 1_655 S
H465 C478 0.930 . S
H466 C479 0.930 . S
H467 C483 0.959 . S
H468 C483 0.959 . S
H469 C483 0.961 . S
H470 C484 0.960 . S
H471 C484 0.961 1_655 S
H472 C484 0.959 . S
H473 C487 0.929 . S
H474 C488 0.928 1_455 S
H475 C490 0.930 . S
C476 H464 0.930 1_455 S
C476 C477 1.399 . S
C476 C481 1.398 1_455 S
C477 C476 1.399 . S
C477 C478 1.376 . S
C478 H465 0.930 . S
C478 C477 1.376 . S
C478 C479 1.388 . S
C479 H466 0.930 . S
C479 C478 1.388 . S
C479 C480 1.390 . S
C480 C479 1.390 . S
C480 C481 1.378 1_455 S
C480 C486 1.465 . S
C481 C476 1.398 1_655 S
C481 C480 1.378 1_655 S
C481 C482 1.531 . S
C482 C481 1.531 . S
C482 C483 1.502 . S
C482 C484 1.561 1_655 S
C482 C485 1.526 . S
C483 H467 0.959 . S
C483 H468 0.959 . S
C483 H469 0.961 . S
C483 C482 1.502 . S
C484 H470 0.960 . S
C484 H471 0.961 1_455 S
C484 H472 0.959 . S
C484 C482 1.561 1_455 S
C485 C482 1.526 . S
C485 C486 1.396 1_655 S
C485 C490 1.390 . S
C486 C480 1.465 . S
C486 C485 1.396 1_455 S
C486 C487 1.399 . S
C487 H473 0.929 . S
C487 C486 1.399 . S
C487 C488 1.385 1_455 S
C488 H474 0.928 1_655 S
C488 C487 1.385 1_655 S
C488 C489 1.389 . S
C489 C488 1.389 . S
C489 C490 1.387 . S
C490 H475 0.930 . S
C490 C485 1.390 . S
C490 C489 1.387 . S
H491 C503 0.930 . S
H492 C505 0.930 . S
H493 C506 0.930 . S
H494 C510 0.959 . S
H495 C510 0.959 . S
H496 C510 0.958 1_545 S
H497 C511 0.960 . S
H498 C511 0.961 . S
H499 C511 0.959 . S
H500 C514 0.929 . S
H501 C515 0.931 . S
H502 C517 0.930 . S
C503 H491 0.930 . S
C503 C504 1.402 . S
C503 C508 1.395 1_545 S
C504 C503 1.402 . S
C504 C505 1.372 1_545 S
C505 H492 0.930 . S
C505 C504 1.372 1_565 S
C505 C506 1.388 . S
C506 H493 0.930 . S
C506 C505 1.388 . S
C506 C507 1.390 . S
C507 C506 1.390 . S
C507 C508 1.405 . S
C507 C513 1.465 . S
C508 C503 1.395 1_565 S
C508 C507 1.405 . S
C508 C509 1.511 1_565 S
C509 C508 1.511 1_545 S
C509 C510 1.502 1_545 S
C509 C511 1.561 . S
C509 C512 1.526 1_545 S
C510 H494 0.959 . S
C510 H495 0.959 . S
C510 H496 0.958 1_565 S
C510 C509 1.502 1_565 S
C511 H497 0.960 . S
C511 H498 0.961 . S
C511 H499 0.959 . S
C511 C509 1.561 . S
C512 C509 1.526 1_565 S
C512 C513 1.396 . S
C512 C517 1.390 . S
C513 C507 1.465 . S
C513 C512 1.396 . S
C513 C514 1.399 . S
C514 H500 0.929 . S
C514 C513 1.399 . S
C514 C515 1.385 . S
C515 H501 0.931 . S
C515 C514 1.385 . S
C515 C516 1.389 . S
C516 C515 1.389 . S
C516 C517 1.387 . S
C517 H502 0.930 . S
C517 C512 1.390 . S
C517 C516 1.387 . S
H518 C530 0.930 . S
H519 C532 0.930 . S
H520 C533 0.930 . S
H521 C537 0.959 . S
H522 C537 0.959 . S
H523 C537 0.961 . S
H524 C538 0.960 . S
H525 C538 0.961 . S
H526 C538 0.959 . S
H527 C541 0.929 . S
H528 C542 0.931 . S
H529 C544 0.930 . S
C530 H518 0.930 . S
C530 C531 1.399 . S
C530 C535 1.399 . S
C531 C530 1.399 . S
C531 C532 1.376 . S
C532 H519 0.930 . S
C532 C531 1.376 . S
C532 C533 1.388 . S
C533 H520 0.930 . S
C533 C532 1.388 . S
C533 C534 1.390 . S
C534 C533 1.390 . S
C534 C535 1.394 . S
C534 C540 1.465 . S
C535 C530 1.399 . S
C535 C534 1.394 . S
C535 C536 1.516 . S
C536 C535 1.516 . S
C536 C537 1.502 . S
C536 C538 1.561 . S
C536 C539 1.526 . S
C537 H521 0.959 . S
C537 H522 0.959 . S
C537 H523 0.961 . S
C537 C536 1.502 . S
C538 H524 0.960 . S
C538 H525 0.961 . S
C538 H526 0.959 . S
C538 C536 1.561 . S
C539 C536 1.526 . S
C539 C540 1.396 . S
C539 C544 1.390 . S
C540 C534 1.465 . S
C540 C539 1.396 . S
C540 C541 1.399 . S
C541 H527 0.929 . S
C541 C540 1.399 . S
C541 C542 1.385 . S
C542 H528 0.931 . S
C542 C541 1.385 . S
C542 C543 1.389 . S
C543 C542 1.389 . S
C543 C544 1.387 . S
C544 H529 0.930 . S
C544 C539 1.390 . S
C544 C543 1.387 . S
H545 C557 0.930 . S
H546 C559 0.930 . S
H547 C560 0.930 . S
H548 C564 0.959 . S
H549 C564 0.959 . S
H550 C564 0.961 . S
H551 C565 0.960 . S
H552 C565 0.961 . S
H553 C565 0.959 . S
H554 C568 0.929 . S
H555 C569 0.931 . S
H556 C571 0.930 . S
C557 H545 0.930 . S
C557 C558 1.399 . S
C557 C562 1.399 . S
C558 C557 1.399 . S
C558 C559 1.376 . S
C559 H546 0.930 . S
C559 C558 1.376 . S
C559 C560 1.388 . S
C560 H547 0.930 . S
C560 C559 1.388 . S
C560 C561 1.390 . S
C561 C560 1.390 . S
C561 C562 1.394 . S
C561 C567 1.465 . S
C562 C557 1.399 . S
C562 C561 1.394 . S
C562 C563 1.516 . S
C563 C562 1.516 . S
C563 C564 1.502 . S
C563 C565 1.561 . S
C563 C566 1.526 . S
C564 H548 0.959 . S
C564 H549 0.959 . S
C564 H550 0.961 . S
C564 C563 1.502 . S
C565 H551 0.960 . S
C565 H552 0.961 . S
C565 H553 0.959 . S
C565 C563 1.561 . S
C566 C563 1.526 . S
C566 C567 1.396 . S
C566 C571 1.390 . S
C567 C561 1.465 . S
C567 C566 1.396 . S
C567 C568 1.399 . S
C568 H554 0.929 . S
C568 C567 1.399 . S
C568 C569 1.385 . S
C569 H555 0.931 . S
C569 C568 1.385 . S
C569 C570 1.389 . S
C570 C569 1.389 . S
C570 C571 1.387 . S
C571 H556 0.930 . S
C571 C566 1.390 . S
C571 C570 1.387 . S
H572 C584 0.930 . S
H573 C586 0.930 . S
H574 C587 0.930 . S
H575 C591 0.959 . S
H576 C591 0.959 . S
H577 C591 0.961 . S
H578 C592 0.960 . S
H579 C592 0.961 . S
H580 C592 0.959 . S
H581 C595 0.929 . S
H582 C596 0.931 . S
H583 C598 0.930 . S
C584 H572 0.930 . S
C584 C585 1.399 1_455 S
C584 C589 1.399 . S
C585 C584 1.399 1_655 S
C585 C586 1.376 . S
C586 H573 0.930 . S
C586 C585 1.376 . S
C586 C587 1.388 . S
C587 H574 0.930 . S
C587 C586 1.388 . S
C587 C588 1.390 . S
C588 C587 1.390 . S
C588 C589 1.394 1_655 S
C588 C594 1.465 . S
C589 C584 1.399 . S
C589 C588 1.394 1_455 S
C589 C590 1.516 . S
C590 C589 1.516 . S
C590 C591 1.502 . S
C590 C592 1.561 . S
C590 C593 1.526 . S
C591 H575 0.959 . S
C591 H576 0.959 . S
C591 H577 0.961 . S
C591 C590 1.502 . S
C592 H578 0.960 . S
C592 H579 0.961 . S
C592 H580 0.959 . S
C592 C590 1.561 . S
C593 C590 1.526 . S
C593 C594 1.396 1_455 S
C593 C598 1.390 . S
C594 C588 1.465 . S
C594 C593 1.396 1_655 S
C594 C595 1.399 . S
C595 H581 0.929 . S
C595 C594 1.399 . S
C595 C596 1.385 . S
C596 H582 0.931 . S
C596 C595 1.385 . S
C596 C597 1.389 1_655 S
C597 C596 1.389 1_455 S
C597 C598 1.387 . S
C598 H583 0.930 . S
C598 C593 1.390 . S
C598 C597 1.387 . S
H599 C611 0.930 . S
H600 C613 0.930 . S
H601 C614 0.930 . S
H602 C618 0.959 . S
H603 C618 0.959 . S
H604 C618 0.961 . S
H605 C619 0.960 . S
H606 C619 0.961 . S
H607 C619 0.959 . S
H608 C622 0.929 . S
H609 C623 0.931 . S
H610 C625 0.930 1_565 S
C611 H599 0.930 . S
C611 C612 1.399 1_565 S
C611 C616 1.399 . S
C612 C611 1.399 1_545 S
C612 C613 1.376 . S
C613 H600 0.930 . S
C613 C612 1.376 . S
C613 C614 1.388 . S
C614 H601 0.930 . S
C614 C613 1.388 . S
C614 C615 1.390 . S
C615 C614 1.390 . S
C615 C616 1.394 1_545 S
C615 C621 1.465 . S
C616 C611 1.399 . S
C616 C615 1.394 1_565 S
C616 C617 1.516 . S
C617 C616 1.516 . S
C617 C618 1.502 . S
C617 C619 1.561 . S
C617 C620 1.526 1_565 S
C618 H602 0.959 . S
C618 H603 0.959 . S
C618 H604 0.961 . S
C618 C617 1.502 . S
C619 H605 0.960 . S
C619 H606 0.961 . S
C619 H607 0.959 . S
C619 C617 1.561 . S
C620 C617 1.526 1_545 S
C620 C621 1.396 . S
C620 C625 1.390 . S
C621 C615 1.465 . S
C621 C620 1.396 . S
C621 C622 1.399 . S
C622 H608 0.929 . S
C622 C621 1.399 . S
C622 C623 1.385 . S
C623 H609 0.931 . S
C623 C622 1.385 . S
C623 C624 1.389 . S
C624 C623 1.389 . S
C624 C625 1.387 . S
C625 H610 0.930 1_545 S
C625 C620 1.390 . S
C625 C624 1.387 . S
H626 C638 0.930 . S
H627 C640 0.930 . S
H628 C641 0.930 . S
H629 C645 0.959 . S
H630 C645 0.959 . S
H631 C645 0.961 . S
H632 C646 0.960 . S
H633 C646 0.961 . S
H634 C646 0.959 . S
H635 C649 0.929 . S
H636 C650 0.931 . S
H637 C652 0.930 . S
C638 H626 0.930 . S
C638 C639 1.399 . S
C638 C643 1.399 . S
C639 C638 1.399 . S
C639 C640 1.376 . S
C640 H627 0.930 . S
C640 C639 1.376 . S
C640 C641 1.388 . S
C641 H628 0.930 . S
C641 C640 1.388 . S
C641 C642 1.390 . S
C642 C641 1.390 . S
C642 C643 1.394 . S
C642 C648 1.465 . S
C643 C638 1.399 . S
C643 C642 1.394 . S
C643 C644 1.516 . S
C644 C643 1.516 . S
C644 C645 1.502 1_554 S
C644 C646 1.561 . S
C644 C647 1.526 1_554 S
C645 H629 0.959 . S
C645 H630 0.959 . S
C645 H631 0.961 . S
C645 C644 1.502 1_556 S
C646 H632 0.960 . S
C646 H633 0.961 . S
C646 H634 0.959 . S
C646 C644 1.561 . S
C647 C644 1.526 1_556 S
C647 C648 1.396 1_556 S
C647 C652 1.390 . S
C648 C642 1.465 . S
C648 C647 1.396 1_554 S
C648 C649 1.399 . S
C649 H635 0.929 . S
C649 C648 1.399 . S
C649 C650 1.385 1_554 S
C650 H636 0.931 . S
C650 C649 1.385 1_556 S
C650 C651 1.389 . S
C651 C650 1.389 . S
C651 C652 1.387 . S
C652 H637 0.930 . S
C652 C647 1.390 . S
C652 C651 1.387 . S
H653 C665 0.930 . S
H654 C667 0.930 . S
H655 C668 0.930 . S
H656 C672 0.959 . S
H657 C672 0.959 . S
H658 C672 0.961 . S
H659 C673 0.960 . S
H660 C673 0.961 . S
H661 C673 0.959 . S
H662 C676 0.929 . S
H663 C677 0.931 . S
H664 C679 0.930 . S
C665 H653 0.930 . S
C665 C666 1.399 . S
C665 C670 1.399 . S
C666 C665 1.399 . S
C666 C667 1.376 . S
C667 H654 0.930 . S
C667 C666 1.376 . S
C667 C668 1.388 . S
C668 H655 0.930 . S
C668 C667 1.388 . S
C668 C669 1.390 . S
C669 C668 1.390 . S
C669 C670 1.394 . S
C669 C675 1.465 . S
C670 C665 1.399 . S
C670 C669 1.394 . S
C670 C671 1.516 . S
C671 C670 1.516 . S
C671 C672 1.502 . S
C671 C673 1.561 . S
C671 C674 1.526 . S
C672 H656 0.959 . S
C672 H657 0.959 . S
C672 H658 0.961 . S
C672 C671 1.502 . S
C673 H659 0.960 . S
C673 H660 0.961 . S
C673 H661 0.959 . S
C673 C671 1.561 . S
C674 C671 1.526 . S
C674 C675 1.396 . S
C674 C679 1.390 . S
C675 C669 1.465 . S
C675 C674 1.396 . S
C675 C676 1.399 . S
C676 H662 0.929 . S
C676 C675 1.399 . S
C676 C677 1.385 . S
C677 H663 0.931 . S
C677 C676 1.385 . S
C677 C678 1.389 . S
C678 C677 1.389 . S
C678 C679 1.387 . S
C679 H664 0.930 . S
C679 C674 1.390 . S
C679 C678 1.387 . S
H680 C692 0.930 . S
H681 C694 0.930 . S
H682 C695 0.930 . S
H683 C699 0.959 . S
H684 C699 0.959 . S
H685 C699 0.961 . S
H686 C700 0.960 . S
H687 C700 0.961 . S
H688 C700 0.959 . S
H689 C703 0.929 . S
H690 C704 0.931 1_554 S
H691 C706 0.930 . S
C692 H680 0.930 . S
C692 C693 1.399 . S
C692 C697 1.399 . S
C693 C692 1.399 . S
C693 C694 1.376 1_556 S
C694 H681 0.930 . S
C694 C693 1.376 1_554 S
C694 C695 1.388 . S
C695 H682 0.930 . S
C695 C694 1.388 . S
C695 C696 1.390 1_554 S
C696 C695 1.390 1_556 S
C696 C697 1.394 . S
C696 C702 1.465 . S
C697 C692 1.399 . S
C697 C696 1.394 . S
C697 C698 1.516 . S
C698 C697 1.516 . S
C698 C699 1.502 1_455 S
C698 C700 1.561 . S
C698 C701 1.526 . S
C699 H683 0.959 . S
C699 H684 0.959 . S
C699 H685 0.961 . S
C699 C698 1.502 1_655 S
C700 H686 0.960 . S
C700 H687 0.961 . S
C700 H688 0.959 . S
C700 C698 1.561 . S
C701 C698 1.526 . S
C701 C702 1.396 . S
C701 C706 1.390 . S
C702 C696 1.465 . S
C702 C701 1.396 . S
C702 C703 1.399 1_556 S
C703 H689 0.929 . S
C703 C702 1.399 1_554 S
C703 C704 1.385 1_554 S
C704 H690 0.931 1_556 S
C704 C703 1.385 1_556 S
C704 C705 1.389 . S
C705 C704 1.389 . S
C705 C706 1.387 . S
C706 H691 0.930 . S
C706 C701 1.390 . S
C706 C705 1.387 . S
H707 C719 0.930 . S
H708 C721 0.930 . S
H709 C722 0.930 . S
H710 C726 0.959 . S
H711 C726 0.959 . S
H712 C726 0.961 . S
H713 C727 0.960 . S
H714 C727 0.961 . S
H715 C727 0.959 1_545 S
H716 C730 0.929 . S
H717 C731 0.931 . S
H718 C733 0.930 . S
C719 H707 0.930 . S
C719 C720 1.399 1_566 S
C719 C724 1.399 . S
C720 C719 1.399 1_544 S
C720 C721 1.376 . S
C721 H708 0.930 . S
C721 C720 1.376 . S
C721 C722 1.388 . S
C722 H709 0.930 . S
C722 C721 1.388 . S
C722 C723 1.390 . S
C723 C722 1.390 . S
C723 C724 1.394 1_544 S
C723 C729 1.465 . S
C724 C719 1.399 . S
C724 C723 1.394 1_566 S
C724 C725 1.516 . S
C725 C724 1.516 . S
C725 C726 1.502 . S
C725 C727 1.561 . S
C725 C728 1.531 . S
C726 H710 0.959 . S
C726 H711 0.959 . S
C726 H712 0.961 . S
C726 C725 1.502 . S
C727 H713 0.960 . S
C727 H714 0.961 . S
C727 H715 0.959 1_565 S
C727 C725 1.561 . S
C728 C725 1.531 . S
C728 C729 1.390 1_566 S
C728 C733 1.390 . S
C729 C723 1.465 . S
C729 C728 1.390 1_544 S
C729 C730 1.399 . S
C730 H716 0.929 . S
C730 C729 1.399 . S
C730 C731 1.385 . S
C731 H717 0.931 . S
C731 C730 1.385 . S
C731 C732 1.389 1_554 S
C732 C731 1.389 1_556 S
C732 C733 1.387 1_545 S
C733 H718 0.930 . S
C733 C728 1.390 . S
C733 C732 1.387 1_565 S
H734 C746 0.930 . S
H735 C748 0.930 . S
H736 C749 0.930 . S
H737 C753 0.959 . S
H738 C753 0.959 . S
H739 C753 0.961 . S
H740 C754 0.960 . S
H741 C754 0.961 . S
H742 C754 0.959 . S
H743 C757 0.929 . S
H744 C758 0.931 . S
H745 C760 0.930 . S
C746 H734 0.930 . S
C746 C747 1.399 . S
C746 C751 1.399 . S
C747 C746 1.399 . S
C747 C748 1.376 . S
C748 H735 0.930 . S
C748 C747 1.376 . S
C748 C749 1.388 . S
C749 H736 0.930 . S
C749 C748 1.388 . S
C749 C750 1.390 . S
C750 C749 1.390 . S
C750 C751 1.394 . S
C750 C756 1.465 . S
C751 C746 1.399 . S
C751 C750 1.394 . S
C751 C752 1.516 . S
C752 C751 1.516 . S
C752 C753 1.502 . S
C752 C754 1.561 . S
C752 C755 1.526 . S
C753 H737 0.959 . S
C753 H738 0.959 . S
C753 H739 0.961 . S
C753 C752 1.502 . S
C754 H740 0.960 . S
C754 H741 0.961 . S
C754 H742 0.959 . S
C754 C752 1.561 . S
C755 C752 1.526 . S
C755 C756 1.396 . S
C755 C760 1.390 . S
C756 C750 1.465 . S
C756 C755 1.396 . S
C756 C757 1.399 . S
C757 H743 0.929 . S
C757 C756 1.399 . S
C757 C758 1.385 1_554 S
C758 H744 0.931 . S
C758 C757 1.385 1_556 S
C758 C759 1.389 . S
C759 C758 1.389 . S
C759 C760 1.387 1_556 S
C760 H745 0.930 . S
C760 C755 1.390 . S
C760 C759 1.387 1_554 S
H761 C773 0.930 . S
H762 C775 0.930 . S
H763 C776 0.930 . S
H764 C780 0.959 . S
H765 C780 0.959 . S
H766 C780 0.961 . S
H767 C781 0.960 . S
H768 C781 0.961 . S
H769 C781 0.959 . S
H770 C784 0.929 . S
H771 C785 0.931 . S
H772 C787 0.930 . S
C773 H761 0.930 . S
C773 C774 1.399 . S
C773 C778 1.399 . S
C774 C773 1.399 . S
C774 C775 1.376 . S
C775 H762 0.930 . S
C775 C774 1.376 . S
C775 C776 1.388 . S
C776 H763 0.930 . S
C776 C775 1.388 . S
C776 C777 1.390 . S
C777 C776 1.390 . S
C777 C778 1.394 . S
C777 C783 1.465 . S
C778 C773 1.399 . S
C778 C777 1.394 . S
C778 C779 1.516 . S
C779 C778 1.516 . S
C779 C780 1.502 1_556 S
C779 C781 1.561 . S
C779 C782 1.526 . S
C780 H764 0.959 . S
C780 H765 0.959 . S
C780 H766 0.961 . S
C780 C779 1.502 1_554 S
C781 H767 0.960 . S
C781 H768 0.961 . S
C781 H769 0.959 . S
C781 C779 1.561 . S
C782 C779 1.526 . S
C782 C783 1.396 . S
C782 C787 1.390 . S
C783 C777 1.465 . S
C783 C782 1.396 . S
C783 C784 1.399 . S
C784 H770 0.929 . S
C784 C783 1.399 . S
C784 C785 1.385 . S
C785 H771 0.931 . S
C785 C784 1.385 . S
C785 C786 1.389 . S
C786 C785 1.389 . S
C786 C787 1.387 . S
C787 H772 0.930 . S
C787 C782 1.390 . S
C787 C786 1.387 . S
H788 C800 0.930 . S
H789 C802 0.930 . S
H790 C803 0.930 . S
H791 C807 0.959 . S
H792 C807 0.959 . S
H793 C807 0.961 . S
H794 C808 0.960 . S
H795 C808 0.961 . S
H796 C808 0.959 . S
H797 C811 0.929 . S
H798 C812 0.931 . S
H799 C814 0.930 . S
C800 H788 0.930 . S
C800 C801 1.399 . S
C800 C805 1.399 . S
C801 C800 1.399 . S
C801 C802 1.376 1_655 S
C802 H789 0.930 . S
C802 C801 1.376 1_455 S
C802 C803 1.388 . S
C803 H790 0.930 . S
C803 C802 1.388 . S
C803 C804 1.390 . S
C804 C803 1.390 . S
C804 C805 1.394 1_455 S
C804 C810 1.465 . S
C805 C800 1.399 . S
C805 C804 1.394 1_655 S
C805 C806 1.516 . S
C806 C805 1.516 . S
C806 C807 1.502 . S
C806 C808 1.561 . S
C806 C809 1.526 . S
C807 H791 0.959 . S
C807 H792 0.959 . S
C807 H793 0.961 . S
C807 C806 1.502 . S
C808 H794 0.960 . S
C808 H795 0.961 . S
C808 H796 0.959 . S
C808 C806 1.561 . S
C809 C806 1.526 . S
C809 C810 1.396 1_655 S
C809 C814 1.390 . S
C810 C804 1.465 . S
C810 C809 1.396 1_455 S
C810 C811 1.399 . S
C811 H797 0.929 . S
C811 C810 1.399 . S
C811 C812 1.385 . S
C812 H798 0.931 . S
C812 C811 1.385 . S
C812 C813 1.389 1_455 S
C813 C812 1.389 1_655 S
C813 C814 1.387 . S
C814 H799 0.930 . S
C814 C809 1.390 . S
C814 C813 1.387 . S
H815 C827 0.930 . S
H816 C829 0.930 . S
H817 C830 0.930 . S
H818 C834 0.959 . S
H819 C834 0.959 . S
H820 C834 0.961 . S
H821 C835 0.960 . S
H822 C835 0.961 . S
H823 C835 0.959 . S
H824 C838 0.929 . S
H825 C839 0.931 . S
H826 C841 0.930 . S
C827 H815 0.930 . S
C827 C828 1.399 1_545 S
C827 C832 1.399 . S
C828 C827 1.399 1_565 S
C828 C829 1.376 . S
C829 H816 0.930 . S
C829 C828 1.376 . S
C829 C830 1.388 . S
C830 H817 0.930 . S
C830 C829 1.388 . S
C830 C831 1.390 . S
C831 C830 1.390 . S
C831 C832 1.394 1_565 S
C831 C837 1.465 . S
C832 C827 1.399 . S
C832 C831 1.394 1_545 S
C832 C833 1.516 . S
C833 C832 1.516 . S
C833 C834 1.502 . S
C833 C835 1.561 . S
C833 C836 1.526 . S
C834 H818 0.959 . S
C834 H819 0.959 . S
C834 H820 0.961 . S
C834 C833 1.502 . S
C835 H821 0.960 . S
C835 H822 0.961 . S
C835 H823 0.959 . S
C835 C833 1.561 . S
C836 C833 1.526 . S
C836 C837 1.396 1_545 S
C836 C841 1.390 . S
C837 C831 1.465 . S
C837 C836 1.396 1_565 S
C837 C838 1.399 . S
C838 H824 0.929 . S
C838 C837 1.399 . S
C838 C839 1.385 . S
C839 H825 0.931 . S
C839 C838 1.385 . S
C839 C840 1.389 . S
C840 C839 1.389 . S
C840 C841 1.387 1_565 S
C841 H826 0.930 . S
C841 C836 1.390 . S
C841 C840 1.387 1_545 S
H842 C854 0.930 . S
H843 C856 0.930 . S
H844 C857 0.930 . S
H845 C861 0.959 . S
H846 C861 0.959 . S
H847 C861 0.961 . S
H848 C862 0.960 . S
H849 C862 0.961 . S
H850 C862 0.959 . S
H851 C865 0.929 . S
H852 C866 0.931 . S
H853 C868 0.930 . S
C854 H842 0.930 . S
C854 C855 1.399 . S
C854 C859 1.399 . S
C855 C854 1.399 . S
C855 C856 1.376 . S
C856 H843 0.930 . S
C856 C855 1.376 . S
C856 C857 1.388 . S
C857 H844 0.930 . S
C857 C856 1.388 . S
C857 C858 1.390 . S
C858 C857 1.390 . S
C858 C859 1.394 . S
C858 C864 1.465 . S
C859 C854 1.399 . S
C859 C858 1.394 . S
C859 C860 1.516 . S
C860 C859 1.516 . S
C860 C861 1.502 . S
C860 C862 1.561 . S
C860 C863 1.526 . S
C861 H845 0.959 . S
C861 H846 0.959 . S
C861 H847 0.961 . S
C861 C860 1.502 . S
C862 H848 0.960 . S
C862 H849 0.961 . S
C862 H850 0.959 . S
C862 C860 1.561 . S
C863 C860 1.526 . S
C863 C864 1.396 . S
C863 C868 1.390 . S
C864 C858 1.465 . S
C864 C863 1.396 . S
C864 C865 1.399 . S
C865 H851 0.929 . S
C865 C864 1.399 . S
C865 C866 1.385 . S
C866 H852 0.931 . S
C866 C865 1.385 . S
C866 C867 1.389 . S
C867 C866 1.389 . S
C867 C868 1.387 . S
C868 H853 0.930 . S
C868 C863 1.390 . S
C868 C867 1.387 . S
H869 C881 0.930 . S
H870 C883 0.930 . S
H871 C884 0.930 . S
H872 C888 0.959 . S
H873 C888 0.959 . S
H874 C888 0.961 . S
H875 C889 0.960 . S
H876 C889 0.961 . S
H877 C889 0.959 . S
H878 C892 0.929 . S
H879 C893 0.931 . S
H880 C895 0.930 . S
C881 H869 0.930 . S
C881 C882 1.399 . S
C881 C886 1.399 . S
C882 C881 1.399 . S
C882 C883 1.376 . S
C883 H870 0.930 . S
C883 C882 1.376 . S
C883 C884 1.388 . S
C884 H871 0.930 . S
C884 C883 1.388 . S
C884 C885 1.390 . S
C885 C884 1.390 . S
C885 C886 1.394 . S
C885 C891 1.465 . S
C886 C881 1.399 . S
C886 C885 1.394 . S
C886 C887 1.516 . S
C887 C886 1.516 . S
C887 C888 1.502 . S
C887 C889 1.561 . S
C887 C890 1.526 . S
C888 H872 0.959 . S
C888 H873 0.959 . S
C888 H874 0.961 . S
C888 C887 1.502 . S
C889 H875 0.960 . S
C889 H876 0.961 . S
C889 H877 0.959 . S
C889 C887 1.561 . S
C890 C887 1.526 . S
C890 C891 1.396 . S
C890 C895 1.390 . S
C891 C885 1.465 . S
C891 C890 1.396 . S
C891 C892 1.399 . S
C892 H878 0.929 . S
C892 C891 1.399 . S
C892 C893 1.385 . S
C893 H879 0.931 . S
C893 C892 1.385 . S
C893 C894 1.389 . S
C894 C893 1.389 . S
C894 C895 1.387 . S
C895 H880 0.930 . S
C895 C890 1.390 . S
C895 C894 1.387 . S
C261 C76 1.979 1_545 S
C273 C90 2.052 1_545 S
C300 C130 2.025 . S
C288 C87 1.978 . S
C327 C194 1.872 . S
C315 C54 1.814 . S
C354 C210 1.644 . S
C342 C65 1.442 . S
C381 C111 2.022 . S
C369 C32 1.951 1_545 S
C396 C43 2.025 . S
C408 C151 2.045 . S
C423 C10 1.819 . S
C435 C185 1.876 . S
C450 C21 1.468 . S
C462 C231 1.619 . S
C489 C105 0.376 . S
C477 C60 0.526 . S
C516 C145 0.721 . S
C504 C71 0.801 . S
C543 C181 0.645 . S
C531 C82 0.795 . S
C558 C49 0.514 . S
C570 C225 0.731 . S
C585 C16 0.542 . S
C597 C114 0.346 . S
C624 C154 0.787 . S
C612 C27 0.653 . S
C651 C192 0.768 . S
C639 C38 0.665 . S
C666 C5 0.641 . S
C678 C234 0.592 . S
C693 C59 1.763 1_556 S
C705 C112 2.024 . S
C720 C70 1.848 . S
C732 C152 2.049 . S
C759 C170 1.638 . S
C747 C81 1.588 . S
C786 C232 2.415 . S
C774 C48 2.208 . S
C801 C15 1.852 . S
C813 C101 2.006 . S
C840 C141 2.048 . S
C828 C26 1.817 1_565 S
C867 C191 1.653 . S
C855 C37 1.554 . S
C882 C4 2.181 . S
C894 C221 2.422 . S
