# Generated by pormake.
# Topology zzz, (3,6)-cn, num edge types: 1
# Building blocks:
#     Node 0, Type 0, BuildingBlock: CUQRIR_clean_linker_1, # of connection points: 3
#     Node 1, Type 0, BuildingBlock: CUQRIR_clean_linker_1, # of connection points: 3
#     Node 2, Type 0, BuildingBlock: CUQRIR_clean_linker_1, # of connection points: 3
#     Node 3, Type 0, BuildingBlock: CUQRIR_clean_linker_1, # of connection points: 3
#     Node 4, Type 0, BuildingBlock: CUQRIR_clean_linker_1, # of connection points: 3
#     Node 5, Type 0, BuildingBlock: CUQRIR_clean_linker_1, # of connection points: 3
#     Node 6, Type 0, BuildingBlock: CUQRIR_clean_linker_1, # of connection points: 3
#     Node 7, Type 0, BuildingBlock: CUQRIR_clean_linker_1, # of connection points: 3
#     Node 8, Type 1, BuildingBlock: NUHQIS_clean_sbu_0, # of connection points: 6
#     Node 9, Type 1, BuildingBlock: NUHQIS_clean_sbu_0, # of connection points: 6
#     Node 10, Type 1, BuildingBlock: NUHQIS_clean_sbu_0, # of connection points: 6
#     Node 11, Type 1, BuildingBlock: NUHQIS_clean_sbu_0, # of connection points: 6
#     Edge 12, Type (0, 1), BuildingBlock: UVAHIK_clean_linker_0, # of connection points: 2
#     Edge 13, Type (0, 1), BuildingBlock: UVAHIK_clean_linker_0, # of connection points: 2
#     Edge 14, Type (0, 1), BuildingBlock: UVAHIK_clean_linker_0, # of connection points: 2
#     Edge 15, Type (0, 1), BuildingBlock: UVAHIK_clean_linker_0, # of connection points: 2
#     Edge 16, Type (0, 1), BuildingBlock: UVAHIK_clean_linker_0, # of connection points: 2
#     Edge 17, Type (0, 1), BuildingBlock: UVAHIK_clean_linker_0, # of connection points: 2
#     Edge 18, Type (0, 1), BuildingBlock: UVAHIK_clean_linker_0, # of connection points: 2
#     Edge 19, Type (0, 1), BuildingBlock: UVAHIK_clean_linker_0, # of connection points: 2
#     Edge 20, Type (0, 1), BuildingBlock: UVAHIK_clean_linker_0, # of connection points: 2
#     Edge 21, Type (0, 1), BuildingBlock: UVAHIK_clean_linker_0, # of connection points: 2
#     Edge 22, Type (0, 1), BuildingBlock: UVAHIK_clean_linker_0, # of connection points: 2
#     Edge 23, Type (0, 1), BuildingBlock: UVAHIK_clean_linker_0, # of connection points: 2
#     Edge 24, Type (0, 1), BuildingBlock: UVAHIK_clean_linker_0, # of connection points: 2
#     Edge 25, Type (0, 1), BuildingBlock: UVAHIK_clean_linker_0, # of connection points: 2
#     Edge 26, Type (0, 1), BuildingBlock: UVAHIK_clean_linker_0, # of connection points: 2
#     Edge 27, Type (0, 1), BuildingBlock: UVAHIK_clean_linker_0, # of connection points: 2
#     Edge 28, Type (0, 1), BuildingBlock: UVAHIK_clean_linker_0, # of connection points: 2
#     Edge 29, Type (0, 1), BuildingBlock: UVAHIK_clean_linker_0, # of connection points: 2
#     Edge 30, Type (0, 1), BuildingBlock: UVAHIK_clean_linker_0, # of connection points: 2
#     Edge 31, Type (0, 1), BuildingBlock: UVAHIK_clean_linker_0, # of connection points: 2
#     Edge 32, Type (0, 1), BuildingBlock: UVAHIK_clean_linker_0, # of connection points: 2
#     Edge 33, Type (0, 1), BuildingBlock: UVAHIK_clean_linker_0, # of connection points: 2
#     Edge 34, Type (0, 1), BuildingBlock: UVAHIK_clean_linker_0, # of connection points: 2
#     Edge 35, Type (0, 1), BuildingBlock: UVAHIK_clean_linker_0, # of connection points: 2
# Relax obj value: 0.229
# Max RMSD: 0.145
# Mean RMSD: 0.134
data_MOF--net-zzz--node1-NUHQIS_clean_sbu_0--node2-CUQRIR_clean_linker_1--edge1-UVAHIK_clean_linker_0
_symmetry_space_group_name_H-M    P1
_symmetry_Int_Tables_number       1
_symmetry_cell_setting            triclinic
loop_
_symmetry_equiv_pos_as_xyz
'x, y, z'
_cell_length_a     64.197574
_cell_length_b     64.017219
_cell_length_c     16.232928
_cell_angle_alpha  90.030432
_cell_angle_beta   90.181266
_cell_angle_gamma 89.916526
loop_
_atom_site_label
_atom_site_type_symbol
_atom_site_fract_x
_atom_site_fract_y
_atom_site_fract_z
_atom_type_partial_charge
C0 C 0.74498 0.51776 0.39488 0.0
N1 N 0.76407 0.5086 0.39942 0.0
N2 N 0.73342 0.50905 0.33332 0.0
C3 C 0.73742 0.53468 0.45128 0.0
C4 C 0.74628 0.49455 0.3001 0.0
N5 N 0.76473 0.49428 0.34015 0.0
C6 C 0.74136 0.48178 0.22464 0.0
H7 H 0.74475 0.5332 0.51301 0.0
H8 H 0.72021 0.53418 0.45708 0.0
H9 H 0.74183 0.55005 0.42505 0.0
H10 H 0.73072 0.4904 0.1827 0.0
H11 H 0.73351 0.46716 0.24399 0.0
H12 H 0.75573 0.47753 0.19072 0.0
C13 C 1.00267 0.74137 0.41246 0.0
N14 N 1.00779 0.76196 0.40968 0.0
N15 N 1.00538 0.73228 0.33726 0.0
C16 C 0.99548 0.73006 0.48795 0.0
C17 C 0.01238 0.74806 0.28922 0.0
N18 N 0.01373 0.76592 0.333 0.0
C19 C 0.01777 0.74595 0.19951 0.0
H20 H 1.00905 0.7221 0.51664 0.0
H21 H 0.98387 0.71795 0.47113 0.0
H22 H 0.98872 0.74105 0.53349 0.0
H23 H 1.00317 0.74613 0.16275 0.0
H24 H 0.02574 0.73083 0.18813 0.0
H25 H 0.0278 0.75895 0.17825 0.0
C26 C 0.78361 1.01316 0.38807 0.0
N27 N 0.76609 0.02423 0.40424 0.0
N28 N 0.79718 0.02475 0.34306 0.0
C29 C 0.78702 0.99085 0.41277 0.0
C30 C 0.78699 0.04309 0.33137 0.0
N31 N 0.76817 0.04278 0.36863 0.0
C32 C 0.7948 0.06056 0.2777 0.0
H33 H 0.77923 0.98755 0.47227 0.0
H34 H 0.80391 0.9873 0.41769 0.0
H35 H 0.78008 0.98053 0.36514 0.0
H36 H 0.79792 0.05448 0.21489 0.0
H37 H 0.80969 0.06659 0.30284 0.0
H38 H 0.78359 0.07372 0.27407 0.0
C39 C 0.51466 0.78615 0.38671 0.0
N40 N 0.5069 0.7664 0.3892 0.0
N41 N 0.50667 0.79687 0.32118 0.0
C42 C 0.52917 0.79523 0.44979 0.0
C43 C 0.49404 0.78278 0.28373 0.0
N44 N 0.49414 0.76452 0.32503 0.0
C45 C 0.48282 0.78629 0.2033 0.0
H46 H 0.52699 0.78756 0.51043 0.0
H47 H 0.52667 0.81231 0.45585 0.0
H48 H 0.54545 0.79252 0.42963 0.0
H49 H 0.49125 0.79772 0.16441 0.0
H50 H 0.46702 0.79249 0.21614 0.0
H51 H 0.4811 0.77144 0.16868 0.0
C52 C 0.28703 0.51023 0.07553 0.0
N53 N 0.26761 0.51809 0.06359 0.0
N54 N 0.29663 0.52 0.13998 0.0
C55 C 0.29657 0.49331 0.02406 0.0
C56 C 0.28203 0.53373 0.16725 0.0
N57 N 0.26469 0.53269 0.12029 0.0
C58 C 0.28405 0.54701 0.24335 0.0
H59 H 0.29326 0.47798 0.05302 0.0
H60 H 0.31371 0.4953 0.02044 0.0
H61 H 0.28974 0.4933 0.96117 0.0
H62 H 0.29149 0.56204 0.22658 0.0
H63 H 0.29389 0.53914 0.29033 0.0
H64 H 0.26858 0.55053 0.2703 0.0
C65 C 0.02511 0.28812 0.05526 0.0
N66 N 0.0279 0.26708 0.05484 0.0
N67 N 0.03119 0.29639 0.12887 0.0
C68 C 0.01583 0.30039 0.9857 0.0
C69 C 0.03732 0.27953 0.17322 0.0
N70 N 0.03549 0.26189 0.12817 0.0
C71 C 0.04362 0.28025 0.2625 0.0
H72 H 0.02193 0.3166 0.98565 0.0
H73 H 0.99869 0.30107 0.9939 0.0
H74 H 0.01914 0.29271 0.92583 0.0
H75 H 0.03209 0.28952 0.29794 0.0
H76 H 0.05889 0.28823 0.26807 0.0
H77 H 0.04503 0.26441 0.2896 0.0
C78 C 0.24466 1.01014 0.1003 0.0
N79 N 0.26358 1.00052 0.10015 0.0
N80 N 0.23203 1.00164 0.15853 0.0
C81 C 0.23823 0.02718 0.04209 0.0
C82 C 0.24404 0.98677 0.19427 0.0
N83 N 0.26298 0.98594 0.15841 0.0
C84 C 0.23805 0.97457 0.27001 0.0
H85 H 0.24252 0.04248 0.06935 0.0
H86 H 0.22113 0.02698 0.03197 0.0
H87 H 0.24639 0.02553 0.98226 0.0
H88 H 0.2309 0.95957 0.25064 0.0
H89 H 0.22662 0.9833 0.30792 0.0
H90 H 0.25187 0.971 0.30874 0.0
C91 C 0.50507 0.24225 0.053 0.0
N92 N 0.50129 0.26312 0.05177 0.0
N93 N 0.49788 0.23362 0.12407 0.0
C94 C 0.5165 0.23057 0.98714 0.0
C95 C 0.49006 0.2501 0.16628 0.0
N96 N 0.49201 0.26789 0.12228 0.0
C97 C 0.48222 0.24899 0.25341 0.0
H98 H 0.51149 0.21399 0.98543 0.0
H99 H 0.53343 0.23104 1.00106 0.0
H100 H 0.51389 0.23798 0.92617 0.0
H101 H 0.49407 0.24128 0.29301 0.0
H102 H 0.46793 0.23929 0.25516 0.0
H103 H 0.4785 0.26466 0.27863 0.0
Tb104 Tb 0.0248 0.01353 0.79729 0.0
Eu105 Eu 0.99417 0.01959 0.63779 0.0
C106 C 0.04394 0.02148 0.62104 0.0
C107 C 1.00983 0.05874 0.74273 0.0
C108 C 0.04894 0.99693 0.99454 0.0
C109 C 0.06704 0.98424 0.11594 0.0
C110 C 0.0659 0.9979 0.04893 0.0
C111 C 0.03282 0.9827 0.00875 0.0
C112 C 0.0339 0.96913 0.07559 0.0
C113 C 0.05116 0.96953 0.12926 0.0
C114 C 0.04817 1.01057 0.92251 0.0
O115 O 0.99443 1.00286 0.84068 0.0
O116 O 0.97358 0.02086 0.74996 0.0
O117 O 0.99293 0.98529 0.66845 0.0
O118 O 0.02311 0.98201 0.7436 0.0
C119 C 0.97623 1.01085 0.81996 0.0
O120 O 0.97074 0.03668 0.56687 0.0
O121 O 0.98207 1.00692 0.52269 0.0
O122 O 0.02643 0.01559 0.58652 0.0
O123 O 0.04503 0.02564 0.70027 0.0
O124 O 0.01277 0.04541 0.80307 0.0
O125 O 1.00649 0.05205 0.66721 0.0
C126 C 1.00789 0.97371 0.69976 0.0
O127 O 0.05208 1.00167 0.85205 0.0
O128 O 0.03192 0.02266 0.91809 0.0
C129 C 0.97622 0.03299 0.42514 0.0
C130 C 0.9851 0.05576 0.28158 0.0
C131 C 0.96511 0.04725 0.29386 0.0
C132 C 0.96069 0.03597 0.36553 0.0
C133 C 0.99649 0.04006 0.41027 0.0
C134 C 1.00092 0.05127 0.33913 0.0
C135 C 0.9714 0.02366 0.50505 0.0
H136 H 0.08048 0.9849 0.15637 0.0
H137 H 0.07839 1.00895 0.03872 0.0
H138 H 0.01963 0.98179 0.96709 0.0
H139 H 0.02164 0.95769 0.08299 0.0
H140 H 0.95265 0.0503 0.25034 0.0
H141 H 0.945 0.03037 0.37596 0.0
H142 H 1.00865 0.03785 0.45583 0.0
H143 H 0.01638 0.05782 0.33292 0.0
Tb144 Tb 0.51718 0.03042 0.8006 0.0
Eu145 Eu 0.50757 0.99811 0.64898 0.0
C146 C 0.50965 0.04717 0.62163 0.0
C147 C 0.47041 0.01592 0.76202 0.0
C148 C 0.54009 0.05951 0.97848 0.0
C149 C 0.55464 0.08123 0.08676 0.0
C150 C 0.5388 0.07706 0.02986 0.0
C151 C 0.55722 0.04603 0.98476 0.0
C152 C 0.573 0.05013 0.04178 0.0
C153 C 0.57192 0.06782 0.09314 0.0
C154 C 0.52354 0.05553 0.91833 0.0
O155 O 0.52716 0.99944 0.84259 0.0
O156 O 0.5032 0.98089 0.76892 0.0
O157 O 0.5425 0.9986 0.65998 0.0
O158 O 0.54779 0.02744 0.74233 0.0
C159 C 0.51586 0.9825 0.83222 0.0
O160 O 0.51199 0.96726 0.59487 0.0
O161 O 0.49448 0.99093 0.52822 0.0
O162 O 0.51591 0.02913 0.59249 0.0
O163 O 0.50411 0.04888 0.69926 0.0
O164 O 0.48453 0.0217 0.81634 0.0
O165 O 0.47564 1.00936 0.68806 0.0
C166 C 0.55481 1.01278 0.6925 0.0
O167 O 0.52811 0.05952 0.84181 0.0
O168 O 0.5139 0.03776 0.92582 0.0
C169 C 0.48454 0.95597 0.50745 0.0
C170 C 0.45049 0.93044 0.46409 0.0
C171 C 0.45953 0.92902 0.54306 0.0
C172 C 0.47632 0.94181 0.56482 0.0
C173 C 0.47655 0.95637 0.42721 0.0
C174 C 0.45966 0.94384 0.40575 0.0
C175 C 0.50041 0.97142 0.53063 0.0
H176 H 0.55335 0.09489 0.12583 0.0
H177 H 0.5256 0.08758 0.02566 0.0
H178 H 0.55844 0.03245 0.94513 0.0
H179 H 0.5863 0.03971 0.04431 0.0
H180 H 0.45313 0.91865 0.58915 0.0
H181 H 0.48233 0.94113 0.62718 0.0
H182 H 0.48275 0.96715 0.38205 0.0
H183 H 0.45304 0.94577 0.34483 0.0
Tb184 Tb 0.50244 0.51678 0.79654 0.0
Eu185 Eu 0.53459 0.5112 0.64218 0.0
C186 C 0.48546 0.50797 0.61819 0.0
C187 C 0.51917 0.47189 0.74878 0.0
C188 C 0.46623 0.53645 0.96231 0.0
C189 C 0.43854 0.56163 0.98675 0.0
C190 C 0.44723 0.54573 0.93914 0.0
C191 C 0.47573 0.54251 0.03659 0.0
C192 C 0.46697 0.55835 0.08446 0.0
C193 C 0.44853 0.56835 0.059 0.0
C194 C 0.47559 0.52017 0.90969 0.0
O195 O 0.53236 0.52709 0.84751 0.0
O196 O 0.55472 0.5112 0.75614 0.0
O197 O 0.53515 0.54539 0.67419 0.0
O198 O 0.50376 0.54805 0.74081 0.0
C199 C 0.55109 0.52031 0.82735 0.0
O200 O 0.55854 0.49416 0.57427 0.0
O201 O 0.54734 0.52381 0.5284 0.0
O202 O 0.50268 0.51532 0.58662 0.0
O203 O 0.48475 0.50245 0.69598 0.0
O204 O 0.51476 0.48516 0.80803 0.0
O205 O 0.52319 0.47852 0.67369 0.0
C206 C 0.51947 0.55663 0.70111 0.0
O207 O 0.47142 0.52138 0.83134 0.0
O208 O 0.49503 0.51522 0.92262 0.0
C209 C 0.55376 0.49753 0.43201 0.0
C210 C 0.5453 0.47324 0.29165 0.0
C211 C 0.56571 0.48024 0.30796 0.0
C212 C 0.56992 0.49227 0.37809 0.0
C213 C 0.53323 0.49203 0.41238 0.0
C214 C 0.52901 0.48009 0.34275 0.0
C215 C 0.55813 0.50708 0.51214 0.0
H216 H 0.42421 0.56895 0.96622 0.0
H217 H 0.43925 0.54099 0.88329 0.0
H218 H 0.49015 0.53536 0.05696 0.0
H219 H 0.47511 0.56338 0.13953 0.0
H220 H 0.57856 0.47537 0.26932 0.0
H221 H 0.58585 0.49656 0.39225 0.0
H222 H 0.52058 0.49594 0.45358 0.0
H223 H 0.51317 0.47477 0.3333 0.0
Tb224 Tb 0.01261 0.49854 0.8067 0.0
Eu225 Eu 0.01985 0.53269 0.66008 0.0
C226 C 0.02146 0.48367 0.62412 0.0
C227 C 0.05799 0.51398 0.76212 0.0
C228 C 0.99187 0.46207 0.96939 0.0
C229 C 0.96615 0.43513 0.99681 0.0
C230 C 0.98223 0.44308 0.94857 0.0
C231 C 0.98588 0.4724 0.04196 0.0
C232 C 0.96987 0.46436 0.09055 0.0
C233 C 0.95957 0.44589 0.06746 0.0
C234 C 1.00827 0.47059 0.91555 0.0
O235 O 1.0019 0.52798 0.86142 0.0
O236 O 0.0211 0.5501 0.78095 0.0
O237 O 0.98547 0.53348 0.68729 0.0
O238 O 0.98167 0.50157 0.75024 0.0
C239 C 1.0105 0.54636 0.84844 0.0
O240 O 0.03597 0.56003 0.61161 0.0
O241 O 1.01014 0.54669 0.54375 0.0
O242 O 0.01558 0.50186 0.5951 0.0
O243 O 0.02608 0.48142 0.70262 0.0
O244 O 0.04446 0.51 0.82068 0.0
O245 O 0.05169 0.51875 0.6872 0.0
C246 C 0.97376 0.51789 0.71176 0.0
O247 O 1.00579 0.46749 0.83687 0.0
O248 O 0.01508 0.48938 0.9308 0.0
C249 C 0.03647 0.56329 0.46755 0.0
C250 C 0.06211 0.56935 0.32975 0.0
C251 C 0.05215 0.58644 0.36721 0.0
C252 C 0.03939 0.5834 0.43566 0.0
C253 C 0.04556 0.54608 0.42816 0.0
C254 C 0.05824 0.54908 0.35946 0.0
C255 C 0.02486 0.56068 0.5443 0.0
H256 H 0.95858 0.42077 0.97808 0.0
H257 H 0.98688 0.43454 0.89396 0.0
H258 H 0.99322 0.48689 0.06043 0.0
H259 H 0.96496 0.47309 0.14429 0.0
H260 H 0.05483 0.60219 0.34535 0.0
H261 H 0.03236 0.59682 0.46536 0.0
H262 H 0.04346 0.53045 0.45227 0.0
H263 H 0.06597 0.53566 0.33267 0.0
C264 C 0.19598 0.99112 0.18841 0.0
C265 C 0.21097 1.00698 0.18181 0.0
C266 C 0.17713 0.99473 0.22895 0.0
C267 C 0.13962 0.03348 0.30235 0.0
H268 H 0.13046 0.99425 0.4808 0.0
C269 C 0.06145 0.0242 0.48281 0.0
C270 C 0.06299 0.02301 0.56926 0.0
C271 C 0.07938 0.0244 0.43366 0.0
C272 C 0.13282 1.00537 0.43146 0.0
H273 H 0.21744 0.03948 0.20728 0.0
H274 H 0.18389 0.04615 0.27603 0.0
H275 H 0.16118 0.99059 0.39335 0.0
H276 H 0.08472 0.02135 0.67156 0.0
H277 H 0.11597 0.02116 0.58558 0.0
H278 H 0.11088 0.04793 0.33966 0.0
C279 C 0.18694 0.03081 0.25057 0.0
C280 C 0.15033 1.0032 0.38101 0.0
C281 C 0.20603 0.02707 0.21085 0.0
C282 C 0.08293 0.02234 0.6053 0.0
C283 C 0.10084 0.02213 0.55605 0.0
C284 C 0.12181 0.0354 0.35193 0.0
C285 C 0.17264 0.01444 0.26269 0.0
C286 C 0.15395 0.01719 0.31585 0.0
C287 C 0.09928 0.02301 0.46964 0.0
C288 C 0.11826 0.02139 0.41725 0.0
H289 H 0.19941 0.97555 0.1661 0.0
H290 H 0.16631 0.9819 0.23631 0.0
H291 H 0.14201 0.04447 0.25256 0.0
H292 H 0.04636 0.02478 0.45288 0.0
H293 H 0.07766 0.02495 0.36729 0.0
C294 C 0.48173 0.20127 0.17519 0.0
C295 C 0.49972 0.21249 0.15456 0.0
C296 C 0.4831 0.18244 0.2188 0.0
C297 C 0.51969 0.14042 0.28862 0.0
H298 H 0.4783 0.13299 0.45954 0.0
C299 C 0.51387 0.06398 0.48197 0.0
C300 C 0.50864 0.06573 0.5659 0.0
C301 C 0.51311 0.08142 0.42966 0.0
C302 C 0.49012 0.13482 0.41268 0.0
H303 H 0.53331 0.21265 0.16119 0.0
H304 H 0.53593 0.17963 0.23766 0.0
H305 H 0.47673 0.16358 0.37117 0.0
H306 H 0.49869 0.0875 0.66029 0.0
H307 H 0.49758 0.11785 0.56976 0.0
H308 H 0.53337 0.11184 0.33187 0.0
C309 C 0.52067 0.1852 0.21936 0.0
C310 C 0.48904 0.1523 0.36088 0.0
C311 C 0.51924 0.20407 0.17534 0.0
C312 C 0.50269 0.08546 0.59602 0.0
C313 C 0.50195 0.10291 0.54375 0.0
C314 C 0.52076 0.12287 0.34055 0.0
C315 C 0.50257 0.17436 0.24362 0.0
C316 C 0.50377 0.1554 0.29791 0.0
C317 C 0.5071 0.10118 0.45965 0.0
C318 C 0.50601 0.11983 0.40358 0.0
H319 H 0.46652 0.2075 0.15976 0.0
H320 H 0.46882 0.17441 0.23442 0.0
H321 H 0.53125 0.14212 0.24069 0.0
H322 H 0.51851 0.04907 0.45631 0.0
H323 H 0.51693 0.07931 0.36527 0.0
C324 C 0.33012 0.53404 0.19086 0.0
C325 C 0.31725 0.51679 0.17433 0.0
C326 C 0.34877 0.53165 0.23474 0.0
C327 C 0.38997 0.49512 0.29622 0.0
H328 H 0.39643 0.53158 0.48561 0.0
C329 C 0.46782 0.50681 0.47911 0.0
C330 C 0.46644 0.50624 0.56565 0.0
C331 C 0.44979 0.50635 0.42994 0.0
C332 C 0.39484 0.52123 0.43313 0.0
H333 H 0.31437 0.48331 0.18768 0.0
H334 H 0.34758 0.47892 0.26196 0.0
H335 H 0.36517 0.53418 0.39969 0.0
H336 H 0.44488 0.50462 0.66799 0.0
H337 H 0.41347 0.50436 0.58225 0.0
H338 H 0.41996 0.48252 0.32892 0.0
C339 C 0.343 0.49437 0.24163 0.0
C340 C 0.377 0.52282 0.38358 0.0
C341 C 0.32407 0.49684 0.19875 0.0
C342 C 0.44657 0.50499 0.60164 0.0
C343 C 0.42854 0.50495 0.55253 0.0
C344 C 0.40807 0.49383 0.34494 0.0
C345 C 0.35529 0.51185 0.26196 0.0
C346 C 0.37432 0.50979 0.31454 0.0
C347 C 0.42992 0.50575 0.46609 0.0
C348 C 0.41068 0.50683 0.41419 0.0
H349 H 0.32543 0.54953 0.17151 0.0
H350 H 0.35803 0.54538 0.24824 0.0
H351 H 0.38838 0.48492 0.24332 0.0
H352 H 0.48284 0.50778 0.44921 0.0
H353 H 0.45138 0.50712 0.36359 0.0
C354 C 1.01096 0.32739 0.17355 0.0
C355 C 0.03019 0.31766 0.15859 0.0
C356 C 1.01002 0.34642 0.21687 0.0
C357 C 0.0415 0.3778 0.36592 0.0
H358 H 0.99981 0.42048 0.32622 0.0
C359 C 0.02801 0.44535 0.59791 0.0
C360 C 0.02309 0.46532 0.5673 0.0
C361 C 0.02883 0.42796 0.54533 0.0
C362 C 1.01171 0.40884 0.33789 0.0
H363 H 0.06347 0.32048 0.17366 0.0
H364 H 0.06208 0.35385 0.24672 0.0
H365 H 1.00151 0.38996 0.23612 0.0
H366 H 0.01524 0.48248 0.45624 0.0
H367 H 0.01699 0.45229 0.36454 0.0
H368 H 0.05198 0.39673 0.46648 0.0
C369 C 0.0476 0.34673 0.22721 0.0
C370 C 0.01252 0.39114 0.28657 0.0
C371 C 0.04847 0.32774 0.18443 0.0
C372 C 0.01908 0.46738 0.48231 0.0
C373 C 0.01993 0.44997 0.42962 0.0
C374 C 0.0407 0.39545 0.41703 0.0
C375 C 0.02833 0.35614 0.24621 0.0
C376 C 0.02745 0.37532 0.29974 0.0
C377 C 0.0248 0.42995 0.46026 0.0
C378 C 0.02575 0.41124 0.4042 0.0
H379 H 0.99664 0.31972 0.15539 0.0
H380 H 0.99487 0.35299 0.23059 0.0
H381 H 0.05303 0.36592 0.37936 0.0
H382 H 0.03103 0.44304 0.66296 0.0
H383 H 0.03229 0.41284 0.57192 0.0
C384 C 0.83469 0.03003 0.31816 0.0
C385 C 0.81644 0.01848 0.30454 0.0
C386 C 0.85264 0.02618 0.2717 0.0
C387 C 0.86847 1.00393 0.07036 0.0
H388 H 0.92424 1.01266 0.156 0.0
C389 C 0.93866 0.01724 0.85545 0.0
C390 C 0.95822 1.00892 0.87726 0.0
C391 C 0.92183 0.01623 0.90984 0.0
C392 C 0.90881 1.00991 0.13108 0.0
H393 H 0.80278 0.99332 0.23423 0.0
H394 H 0.83428 0.98602 0.15415 0.0
H395 H 0.89456 0.01367 0.24939 0.0
H396 H 0.97521 0.99284 0.97406 0.0
H397 H 0.94573 0.9909 0.06873 0.0
H398 H 0.88269 0.99997 0.9523 0.0
C399 C 0.83471 0.99838 0.19966 0.0
C400 C 0.89171 1.01074 0.18464 0.0
C401 C 0.81673 1.00232 0.24616 0.0
C402 C 0.9604 0.99941 0.95499 0.0
C403 C 0.94351 0.99842 0.0096 0.0
C404 C 0.88554 1.00307 0.01694 0.0
C405 C 0.8528 1.01059 0.21041 0.0
C406 C 0.87125 1.00803 0.1549 0.0
C407 C 0.92397 1.00686 0.98783 0.0
C408 C 0.90595 1.00635 0.0462 0.0
H409 H 0.83482 0.0425 0.36322 0.0
H410 H 0.86609 0.03605 0.28157 0.0
H411 H 0.85301 1.00199 0.04464 0.0
H412 H 0.93634 0.02478 0.79643 0.0
H413 H 0.90719 0.02324 0.8912 0.0
C414 C 0.49263 0.83112 0.27899 0.0
C415 C 0.50988 0.81831 0.29581 0.0
C416 C 0.49508 0.85048 0.24036 0.0
C417 C 0.53314 0.88029 0.11113 0.0
H418 H 0.4913 0.92366 0.13319 0.0
C419 C 0.53471 0.96162 0.94168 0.0
C420 C 0.51684 0.96514 0.89313 0.0
C421 C 0.5355 0.94482 0.99744 0.0
C422 C 0.50314 0.9117 0.12656 0.0
H423 H 0.54342 0.81626 0.28976 0.0
H424 H 0.54804 0.85068 0.22605 0.0
H425 H 0.49036 0.89342 0.22405 0.0
H426 H 0.48564 0.95401 0.86668 0.0
H427 H 0.48677 0.92531 0.9659 0.0
H428 H 0.5461 0.89921 0.01457 0.0
C429 C 0.5324 0.84549 0.23991 0.0
C430 C 0.50254 0.89418 0.17823 0.0
C431 C 0.52986 0.82588 0.27777 0.0
C432 C 0.49968 0.95171 0.90275 0.0
C433 C 0.50028 0.93532 0.95984 0.0
C434 C 0.53398 0.8981 0.06065 0.0
C435 C 0.51498 0.85791 0.21857 0.0
C436 C 0.51719 0.87785 0.17003 0.0
C437 C 0.51821 0.93158 1.00745 0.0
C438 C 0.5187 0.91376 0.06656 0.0
H439 H 0.47706 0.82568 0.29274 0.0
H440 H 0.48114 0.85913 0.22447 0.0
H441 H 0.54459 0.86812 0.10149 0.0
H442 H 0.5482 0.97164 0.93558 0.0
H443 H 0.54951 0.94231 0.03345 0.0
C444 C 0.69736 0.4986 0.30136 0.0
C445 C 0.7127 0.51418 0.30478 0.0
C446 C 0.67849 0.50209 0.25997 0.0
C447 C 0.65701 0.53351 0.08954 0.0
H448 H 0.60434 0.50966 0.15808 0.0
C449 C 0.58934 0.51884 0.861 0.0
C450 C 0.56876 0.52268 0.88664 0.0
C451 C 0.606 0.52011 0.91668 0.0
C452 C 0.61885 0.51662 0.13827 0.0
H453 H 0.72021 0.54581 0.27002 0.0
H454 H 0.68709 0.55218 0.19778 0.0
H455 H 0.63439 0.50831 0.25086 0.0
H456 H 0.54973 0.53099 0.99185 0.0
H457 H 0.57887 0.53309 0.08931 0.0
H458 H 0.6416 0.54159 0.97665 0.0
C459 C 0.68964 0.53716 0.22684 0.0
C460 C 0.63616 0.51568 0.19127 0.0
C461 C 0.70849 0.53368 0.26896 0.0
C462 C 0.56535 0.52799 0.96971 0.0
C463 C 0.58206 0.52906 0.02578 0.0
C464 C 0.63977 0.53431 0.03639 0.0
C465 C 0.67456 0.52124 0.22019 0.0
C466 C 0.65557 0.52389 0.16725 0.0
C467 C 0.60262 0.5251 1.0 0.0
C468 C 0.62052 0.52562 0.05945 0.0
H469 H 0.7004 0.48338 0.32794 0.0
H470 H 0.66744 0.48937 0.25562 0.0
H471 H 0.67169 0.53982 0.06839 0.0
H472 H 0.59265 0.51469 0.79768 0.0
H473 H 0.62154 0.51667 0.89466 0.0
C474 C 0.98782 0.70631 0.24889 0.0
C475 C 1.00222 0.71088 0.31161 0.0
C476 C 0.98729 0.68648 0.2122 0.0
C477 C 0.0218 0.6416 0.1696 0.0
H478 H 0.97111 0.61568 0.08889 0.0
C479 C 0.02187 0.58101 0.90572 0.0
C480 C 1.00883 0.56339 0.9112 0.0
C481 C 0.02068 0.59719 0.96359 0.0
C482 C 0.98542 0.62257 0.11164 0.0
H483 H 0.02699 0.69825 0.38679 0.0
H484 H 0.02608 0.66336 0.32337 0.0
H485 H 0.96902 0.6467 0.1767 0.0
H486 H 0.98423 0.54916 0.98291 0.0
H487 H 0.98188 0.57773 0.0836 0.0
H488 H 0.0382 0.61772 0.10348 0.0
C489 C 0.01519 0.67512 0.30214 0.0
C490 C 0.98423 0.64049 0.16149 0.0
C491 C 0.01557 0.69497 0.33928 0.0
C492 C 0.99451 0.56246 0.97661 0.0
C493 C 0.99311 0.57888 0.03417 0.0
C494 C 0.02298 0.62383 0.11922 0.0
C495 C 1.00133 0.67072 0.23676 0.0
C496 C 1.00242 0.65046 0.19027 0.0
C497 C 1.00625 0.59645 0.02853 0.0
C498 C 1.00483 0.61424 0.08838 0.0
H499 H 0.97754 0.71843 0.22605 0.0
H500 H 0.97655 0.68386 0.16167 0.0
H501 H 0.03616 0.64886 0.18981 0.0
H502 H 0.03317 0.58234 0.8566 0.0
H503 H 0.03086 0.61054 0.95645 0.0
C504 C 0.0177 0.23372 0.19931 0.0
C505 C 0.0354 0.24089 0.15837 0.0
C506 C 0.01416 0.21239 0.20731 0.0
C507 C 0.02776 0.16261 0.10583 0.0
H508 H 0.99578 0.14012 0.28727 0.0
C509 C 1.00836 0.07568 0.18558 0.0
C510 C 0.98857 0.07274 0.221 0.0
C511 C 0.01434 0.09544 0.15779 0.0
C512 C 1.00451 0.14628 0.23568 0.0
H513 H 0.06391 0.23205 0.09753 0.0
H514 H 0.05838 0.19439 0.11473 0.0
H515 H 1.00856 0.17569 0.29496 0.0
H516 H 0.95841 0.08726 0.24129 0.0
H517 H 0.96872 0.12134 0.19113 0.0
H518 H 0.02428 0.13253 0.04876 0.0
C519 C 0.04692 0.20516 0.13902 0.0
C520 C 1.01188 0.16665 0.24013 0.0
C521 C 0.05032 0.2266 0.13046 0.0
C522 C 0.97382 0.08892 0.2152 0.0
C523 C 0.97977 0.10856 0.18716 0.0
C524 C 0.02066 0.14197 0.10214 0.0
C525 C 0.02844 0.19782 0.17515 0.0
C526 C 0.0231 0.17529 0.17441 0.0
C527 C 1.0005 0.11231 0.16456 0.0
C528 C 1.00847 0.1339 0.16608 0.0
H529 H 1.00582 0.24465 0.21899 0.0
H530 H 0.99956 0.20741 0.23406 0.0
H531 H 0.03626 0.1688 0.05379 0.0
H532 H 0.01988 0.0633 0.18716 0.0
H533 H 0.03035 0.09794 0.13946 0.0
C534 C 0.29811 0.98458 0.21767 0.0
C535 C 0.2805 0.97414 0.18795 0.0
C536 C 0.3144 0.97338 0.25332 0.0
C537 C 0.33932 0.92218 0.26759 0.0
H538 H 0.36259 0.94677 0.46568 0.0
C539 C 0.42433 0.91547 0.3648 0.0
C540 C 0.42983 0.92091 0.44599 0.0
C541 C 0.40341 0.91359 0.34229 0.0
C542 C 0.35608 0.93921 0.41178 0.0
H543 H 0.266 0.94407 0.16925 0.0
H544 H 0.29474 0.92414 0.23217 0.0
H545 H 0.33129 0.96143 0.40606 0.0
H546 H 0.41773 0.92483 0.57001 0.0
H547 H 0.38159 0.92018 0.53166 0.0
H548 H 0.36452 0.90019 0.27257 0.0
C549 C 0.29594 0.94097 0.22772 0.0
C550 C 0.33828 0.94792 0.37678 0.0
C551 C 0.27957 0.95227 0.19214 0.0
C552 C 0.41421 0.92095 0.50659 0.0
C553 C 0.39335 0.91856 0.48438 0.0
C554 C 0.35723 0.91337 0.30284 0.0
C555 C 0.31332 0.9515 0.2601 0.0
C556 C 0.33022 0.94004 0.3027 0.0
C557 C 0.38764 0.91663 0.40104 0.0
C558 C 0.36624 0.92228 0.3738 0.0
H559 H 0.29894 1.00147 0.21523 0.0
H560 H 0.32779 0.98186 0.27641 0.0
H561 H 0.3333 0.91572 0.21064 0.0
H562 H 0.43604 0.91447 0.31709 0.0
H563 H 0.39969 0.9118 0.27758 0.0
C564 C 0.47685 0.30309 0.11965 0.0
C565 C 0.491 0.28879 0.15354 0.0
C566 C 0.47968 0.32451 0.13184 0.0
C567 C 0.51106 0.36282 0.25251 0.0
H568 H 0.50622 0.39693 0.05584 0.0
C569 C 0.55471 0.43806 0.23851 0.0
C570 C 0.54141 0.45549 0.23494 0.0
C571 C 0.54773 0.41859 0.21224 0.0
C572 C 0.50763 0.38751 0.11089 0.0
H573 H 0.5185 0.28498 0.22855 0.0
H574 H 0.5237 0.32218 0.25036 0.0
H575 H 0.49302 0.36106 0.05461 0.0
H576 H 0.51181 0.4669 0.18806 0.0
H577 H 0.49953 0.43257 0.14269 0.0
H578 H 0.52635 0.38892 0.30762 0.0
C579 C 0.51013 0.31721 0.21585 0.0
C580 C 0.49986 0.3671 0.1108 0.0
C581 C 0.50719 0.2959 0.20392 0.0
C582 C 0.5222 0.45362 0.19334 0.0
C583 C 0.51519 0.43403 0.16706 0.0
C584 C 0.51909 0.38297 0.25202 0.0
C585 C 0.49678 0.33181 0.17791 0.0
C586 C 0.502 0.35436 0.18111 0.0
C587 C 0.52739 0.41624 0.18182 0.0
C588 C 0.51795 0.39527 0.18065 0.0
H589 H 0.46443 0.2977 0.07973 0.0
H590 H 0.46897 0.33533 0.10273 0.0
H591 H 0.51238 0.3537 0.30847 0.0
H592 H 0.5696 0.43886 0.26988 0.0
H593 H 0.55754 0.40505 0.22258 0.0
C594 C 0.23857 0.55961 0.08989 0.0
C595 C 0.24491 0.54222 0.13596 0.0
C596 C 0.21763 0.56565 0.08897 0.0
C597 C 0.16556 0.54329 0.1271 0.0
H598 H 0.14746 0.60083 0.14737 0.0
C599 C 0.08101 0.55948 0.20038 0.0
C600 C 0.07888 0.57271 0.26889 0.0
C601 C 0.09944 0.55948 0.15474 0.0
C602 C 0.15224 0.58468 0.14117 0.0
H603 H 0.2352 0.51791 0.21913 0.0
H604 H 0.19869 0.52883 0.22114 0.0
H605 H 0.18449 0.593 0.13401 0.0
H606 H 0.09352 0.59749 0.33918 0.0
H607 H 0.12565 0.59712 0.26202 0.0
H608 H 0.13374 0.5347 0.14032 0.0
C609 C 0.20961 0.53759 0.18398 0.0
C610 C 0.17346 0.58022 0.13293 0.0
C611 C 0.23046 0.53157 0.18446 0.0
C612 C 0.09466 0.5872 0.28636 0.0
C613 C 0.11314 0.58702 0.2416 0.0
C614 C 0.14443 0.54771 0.13606 0.0
C615 C 0.20284 0.55428 0.13424 0.0
C616 C 0.18036 0.55941 0.12953 0.0
C617 C 0.11617 0.57244 0.17785 0.0
C618 C 0.13759 0.56841 0.14692 0.0
H619 H 0.24961 0.56765 0.0509 0.0
H620 H 0.21288 0.57854 0.05003 0.0
H621 H 0.17038 0.52712 0.12201 0.0
H622 H 0.06888 0.5484 0.18485 0.0
H623 H 0.10103 0.54844 0.10456 0.0
C624 C 1.0064 0.80278 0.30771 0.0
C625 C 0.02043 0.78603 0.30514 0.0
C626 C 0.01367 0.82324 0.30498 0.0
C627 C 0.05687 0.85594 0.24144 0.0
H628 H 0.03338 0.89494 0.39921 0.0
C629 C 0.07224 0.94178 0.19852 0.0
C630 C 0.05345 0.95294 0.19206 0.0
C631 C 0.07279 0.92258 0.23916 0.0
C632 C 0.04019 0.88422 0.35516 0.0
H633 H 0.05271 0.77704 0.29383 0.0
H634 H 0.06563 0.81308 0.28517 0.0
H635 H 0.02449 0.8579 0.40743 0.0
H636 H 0.02139 0.9544 0.23305 0.0
H637 H 0.0221 0.9207 0.30143 0.0
H638 H 0.07162 0.88216 0.186 0.0
C639 C 0.04903 0.81039 0.29032 0.0
C640 C 0.03503 0.86308 0.35964 0.0
C641 C 0.04171 0.78988 0.29399 0.0
C642 C 0.03595 0.94584 0.23545 0.0
C643 C 0.03645 0.9266 0.27553 0.0
C644 C 0.06192 0.87707 0.23658 0.0
C645 C 0.03512 0.82721 0.29865 0.0
C646 C 0.04277 0.84893 0.30098 0.0
C647 C 0.05454 0.9142 0.27333 0.0
C648 C 0.05307 0.89156 0.29158 0.0
H649 H 0.98996 0.79994 0.3173 0.0
H650 H 1.00259 0.83595 0.3098 0.0
H651 H 0.06302 0.84533 0.19551 0.0
H652 H 0.08604 0.94691 0.16613 0.0
H653 H 0.0871 0.91359 0.23828 0.0
C654 C 0.74244 0.05802 0.27467 0.0
C655 C 0.75103 0.05673 0.35388 0.0
C656 C 0.72308 0.06739 0.26255 0.0
C657 C 0.67445 0.07215 0.3696 0.0
H658 H 0.65816 0.10165 0.17099 0.0
C659 C 0.59755 0.09294 0.15453 0.0
C660 C 0.58931 0.07264 0.15021 0.0
C661 C 0.61575 0.09683 0.19941 0.0
C662 C 0.66235 0.09385 0.22787 0.0
H663 H 0.74714 0.06525 0.48167 0.0
H664 H 0.7127 0.08126 0.46125 0.0
H665 H 0.69481 0.0998 0.20946 0.0
H666 H 0.59261 0.04089 0.19474 0.0
H667 H 0.62451 0.04753 0.2717 0.0
H668 H 0.64208 0.0653 0.38583 0.0
C669 C 0.72102 0.07517 0.40848 0.0
C670 C 0.68337 0.09266 0.24945 0.0
C671 C 0.74061 0.06607 0.4202 0.0
C672 C 0.59881 0.05662 0.19596 0.0
C673 C 0.61693 0.06051 0.24097 0.0
C674 C 0.65341 0.07329 0.34788 0.0
C675 C 0.71183 0.07536 0.32981 0.0
C676 C 0.68967 0.08106 0.31854 0.0
C677 C 0.62597 0.0805 0.24105 0.0
C678 C 0.64725 0.0834 0.27488 0.0
H679 H 0.75012 0.05052 0.2232 0.0
H680 H 0.71626 0.06701 0.20144 0.0
H681 H 0.67888 0.06298 0.42297 0.0
H682 H 0.59057 0.10559 0.11977 0.0
H683 H 0.62226 0.11243 0.19896 0.0
C684 C 0.49537 0.72759 0.28655 0.0
C685 C 0.48369 0.74563 0.3017 0.0
C686 C 0.48543 0.70853 0.2748 0.0
C687 C 0.43626 0.68439 0.21376 0.0
H688 H 0.46345 0.63563 0.30651 0.0
C689 C 0.4369 0.60544 0.05711 0.0
C690 C 0.44126 0.58729 0.10244 0.0
C691 C 0.43444 0.62454 0.09705 0.0
C692 C 0.45519 0.64899 0.28175 0.0
H693 H 0.45275 0.7585 0.31425 0.0
H694 H 0.435 0.72491 0.29241 0.0
H695 H 0.47494 0.67017 0.34692 0.0
H696 H 0.44414 0.57432 0.22517 0.0
H697 H 0.43942 0.60774 0.2956 0.0
H698 H 0.4167 0.66314 0.14747 0.0
C699 C 0.45184 0.72549 0.28991 0.0
C700 C 0.46206 0.66883 0.30396 0.0
C701 C 0.46188 0.74463 0.30184 0.0
C702 C 0.44117 0.58821 0.18884 0.0
C703 C 0.43848 0.60732 0.22899 0.0
C704 C 0.42924 0.66449 0.19193 0.0
C705 C 0.46358 0.70719 0.27791 0.0
C706 C 0.45338 0.68667 0.26699 0.0
C707 C 0.43617 0.62586 0.18329 0.0
C708 C 0.43934 0.64656 0.22257 0.0
H709 H 0.51222 0.72825 0.28591 0.0
H710 H 0.49488 0.6948 0.26342 0.0
H711 H 0.42916 0.69789 0.18484 0.0
H712 H 0.43703 0.60522 0.99037 0.0
H713 H 0.43293 0.63845 0.05957 0.0
C714 C 0.7843 0.46147 0.32069 0.0
C715 C 0.78322 0.48331 0.31568 0.0
C716 C 0.80327 0.45122 0.30754 0.0
C717 C 0.85964 0.46158 0.31361 0.0
H718 H 0.865 0.41529 0.16111 0.0
C719 C 0.93983 0.43976 0.19822 0.0
C720 C 0.94061 0.43927 0.11182 0.0
C721 C 0.92082 0.43751 0.23888 0.0
C722 C 0.86374 0.42809 0.20448 0.0
H723 H 0.80022 0.51159 0.28963 0.0
H724 H 0.83334 0.49387 0.26576 0.0
H725 H 0.83035 0.42775 0.19978 0.0
H726 H 0.92251 0.43453 1.00047 0.0
H727 H 0.88943 0.43117 0.0706 0.0
H728 H 0.89274 0.46316 0.3141 0.0
C729 C 0.81983 0.4846 0.28156 0.0
C730 C 0.84391 0.4351 0.22701 0.0
C731 C 0.80095 0.49473 0.29423 0.0
C732 C 0.92239 0.43485 0.0672 0.0
C733 C 0.90339 0.43281 0.10766 0.0
C734 C 0.87938 0.45468 0.29093 0.0
C735 C 0.8213 0.46279 0.28975 0.0
C736 C 0.84176 0.45254 0.27876 0.0
C737 C 0.90224 0.43505 0.19371 0.0
C738 C 0.88168 0.43846 0.2332 0.0
H739 H 0.77067 0.45254 0.33775 0.0
H740 H 0.804 0.43439 0.31378 0.0
H741 H 0.85838 0.47477 0.35519 0.0
H742 H 0.95377 0.44279 0.23407 0.0
H743 H 0.92053 0.43884 0.30538 0.0
C744 C 0.03764 0.24239 0.94513 0.0
C745 C 0.02207 0.25176 0.99324 0.0
C746 C 0.03426 0.22303 0.90651 0.0
C747 C 1.00089 0.17559 0.92829 0.0
H748 H 0.02929 0.15794 0.72968 0.0
C749 C 1.01047 0.08808 0.84612 0.0
C750 C 1.00958 0.08162 0.76317 0.0
C751 C 1.0104 0.10929 0.86741 0.0
C752 C 0.02104 0.16259 0.78481 0.0
H753 H 0.99053 0.2485 0.03661 0.0
H754 H 0.98406 0.21521 0.96647 0.0
H755 H 0.03126 0.19436 0.77366 0.0
H756 H 1.00786 0.09289 0.63752 0.0
H757 H 1.0078 0.13006 0.67467 0.0
H758 H 0.99057 0.14392 0.93935 0.0
C759 C 0.99912 0.22256 0.95921 0.0
C760 C 0.02237 0.18354 0.81074 0.0
C761 C 1.00259 0.24191 0.99793 0.0
C762 C 1.00859 0.09719 0.702 0.0
C763 C 1.00867 0.11856 0.72343 0.0
C764 C 0.99958 0.15468 0.90247 0.0
C765 C 0.01514 0.21242 0.91508 0.0
C766 C 0.01251 0.19038 0.88351 0.0
C767 C 1.00955 0.12496 0.80667 0.0
C768 C 1.00986 0.14772 0.83089 0.0
H769 H 0.05301 0.24931 0.94297 0.0
H770 H 0.04715 0.21581 0.87441 0.0
H771 H 0.99327 0.17994 0.98519 0.0
H772 H 1.01125 0.0767 0.8954 0.0
H773 H 1.01136 0.11335 0.93198 0.0
C774 C 0.29155 0.98759 0.00908 0.0
C775 C 0.28144 1.00439 0.04779 0.0
C776 C 0.31069 0.99036 0.96939 0.0
C777 C 0.35613 0.0267 0.96419 0.0
H778 H 0.37317 0.99116 0.78308 0.0
C779 C 0.44273 0.01948 0.87063 0.0
C780 C 0.44804 0.016 0.78765 0.0
C781 C 0.42191 0.01923 0.89631 0.0
C782 C 0.3687 1.00146 0.83292 0.0
H783 H 0.28314 0.03748 0.0728 0.0
H784 H 0.31617 0.04273 1.00033 0.0
H785 H 0.33758 0.98945 0.83346 0.0
H786 H 0.43525 1.00968 0.6665 0.0
H787 H 0.39888 1.00976 0.71071 0.0
H788 H 0.38704 0.03915 0.96217 0.0
C789 C 0.3096 0.02717 1.00225 0.0
C790 C 0.34823 1.00025 0.86285 0.0
C791 C 0.29046 0.02431 0.04265 0.0
C792 C 0.43182 1.01237 0.73092 0.0
C793 C 0.4109 1.01229 0.75656 0.0
C794 C 0.37653 0.02804 0.93382 0.0
C795 C 0.32027 1.01014 0.96641 0.0
C796 C 0.34166 1.01262 0.92988 0.0
C797 C 0.40559 0.01568 0.83984 0.0
C798 C 0.3833 0.01519 0.86853 0.0
H799 H 0.28492 0.97206 0.01218 0.0
H800 H 0.31833 0.97674 0.94397 0.0
H801 H 0.35195 0.03638 0.01627 0.0
H802 H 0.4547 0.02215 0.91657 0.0
H803 H 0.41872 0.02143 0.96117 0.0
C804 C 0.49321 0.28761 0.93934 0.0
C805 C 0.50793 0.27872 0.99295 0.0
C806 C 0.49688 0.30704 0.90192 0.0
C807 C 0.5285 0.35529 0.93494 0.0
H808 H 0.50325 0.3723 0.72837 0.0
C809 C 0.51748 0.44249 0.85155 0.0
C810 C 0.51977 0.44906 0.76925 0.0
C811 C 0.51785 0.42126 0.87247 0.0
C812 C 0.51061 0.36784 0.78582 0.0
H813 H 0.53834 0.2828 0.04737 0.0
H814 H 0.54542 0.31619 0.9793 0.0
H815 H 0.50161 0.3358 0.771 0.0
H816 H 0.52432 0.438 0.64439 0.0
H817 H 0.52497 0.40084 0.68093 0.0
H818 H 0.53766 0.38724 0.94949 0.0
C819 C 0.53076 0.30846 0.96689 0.0
C820 C 0.50946 0.34684 0.81093 0.0
C821 C 0.52698 0.28907 1.00453 0.0
C822 C 0.52248 0.43361 0.70837 0.0
C823 C 0.52274 0.41224 0.72939 0.0
C824 C 0.52965 0.37624 0.90987 0.0
C825 C 0.51546 0.31815 0.91714 0.0
C826 C 0.51813 0.34023 0.88653 0.0
C827 C 0.52046 0.40573 0.81194 0.0
C828 C 0.52045 0.38297 0.83551 0.0
H829 H 0.47814 0.28026 0.93167 0.0
H830 H 0.48452 0.31389 0.86534 0.0
H831 H 0.53518 0.35112 0.99399 0.0
H832 H 0.51534 0.45378 0.90052 0.0
H833 H 0.51574 0.41707 0.93642 0.0
C834 C 0.24478 0.5255 0.94548 0.0
C835 C 0.25143 0.51159 1.00698 0.0
C836 C 0.22497 0.52362 0.90964 0.0
C837 C 0.17283 0.50064 0.95682 0.0
H838 H 0.15884 0.52249 0.74109 0.0
C839 C 0.08699 0.51588 0.86605 0.0
C840 C 0.08064 0.51356 0.7835 0.0
C841 C 0.10808 0.51494 0.8882 0.0
C842 C 0.16235 0.51605 0.80117 0.0
H843 H 0.24308 0.48411 0.07605 0.0
H844 H 0.20898 0.47978 0.01013 0.0
H845 H 0.19515 0.52005 0.78303 0.0
H846 H 0.09174 0.50848 0.65934 0.0
H847 H 0.12852 0.50597 0.69796 0.0
H848 H 0.14021 0.49592 0.97414 0.0
C849 C 0.21872 0.49266 0.99092 0.0
C850 C 0.18333 0.51492 0.82589 0.0
C851 C 0.2385 0.49474 0.02738 0.0
C852 C 0.09606 0.51043 0.72343 0.0
C853 C 0.11724 0.5091 0.74581 0.0
C854 C 0.15191 0.50155 0.93181 0.0
C855 C 0.21126 0.50757 0.93384 0.0
C856 C 0.18895 0.50739 0.90454 0.0
C857 C 0.12362 0.51122 0.8288 0.0
C858 C 0.14622 0.50952 0.8539 0.0
H859 H 0.25429 0.53891 0.93035 0.0
H860 H 0.21997 0.53563 0.86703 0.0
H861 H 0.17623 0.49506 0.01833 0.0
H862 H 0.07561 0.51861 0.91401 0.0
H863 H 0.11212 0.51733 0.95229 0.0
C864 C 0.98865 0.78693 0.49779 0.0
C865 C 1.00754 0.77772 0.47395 0.0
C866 C 0.98835 0.80671 0.53582 0.0
C867 C 0.02342 0.84933 0.62246 0.0
H868 H 0.97655 0.88441 0.56356 0.0
C869 C 0.01848 0.93631 0.7316 0.0
C870 C 1.00773 0.95075 0.68181 0.0
C871 C 0.01813 0.91479 0.71323 0.0
C872 C 0.98999 0.87507 0.57992 0.0
H873 H 0.04092 0.78144 0.47534 0.0
H874 H 0.04065 0.81584 0.53884 0.0
H875 H 0.9768 0.84817 0.52203 0.0
H876 H 0.98873 0.95372 0.57184 0.0
H877 H 0.98893 0.91687 0.53769 0.0
H878 H 0.03722 0.87665 0.67555 0.0
C879 C 0.02591 0.80792 0.53081 0.0
C880 C 0.98992 0.85388 0.55741 0.0
C881 C 0.02616 0.78803 0.49448 0.0
C882 C 0.99693 0.9431 0.61256 0.0
C883 C 0.99692 0.92173 0.59324 0.0
C884 C 0.02366 0.87065 0.64372 0.0
C885 C 1.00696 0.81801 0.54969 0.0
C886 C 1.00664 0.84054 0.57803 0.0
C887 C 1.00735 0.90706 0.64348 0.0
C888 C 1.00698 0.884 0.62258 0.0
H889 H 0.97406 0.77954 0.48133 0.0
H890 H 0.97339 0.81342 0.55126 0.0
H891 H 0.03654 0.8398 0.64107 0.0
H892 H 0.02693 0.9416 0.78555 0.0
H893 H 0.02613 0.90424 0.75467 0.0
C894 C 0.74273 0.02238 0.52392 0.0
C895 C 0.74705 0.01706 0.4419 0.0
C896 C 0.72249 0.02041 0.55527 0.0
C897 C 0.67172 0.99472 0.52559 0.0
H898 H 0.64881 0.04415 0.62974 0.0
C899 C 0.5838 1.00102 0.5996 0.0
C900 C 0.57727 1.0125 0.66884 0.0
C901 C 0.60468 1.00105 0.57483 0.0
C902 C 0.65496 0.03003 0.60229 0.0
H903 H 0.734 1.00505 0.32882 0.0
H904 H 0.69867 1.00065 0.3843 0.0
H905 H 0.68492 0.04408 0.58347 0.0
H906 H 0.58788 0.03288 0.76691 0.0
H907 H 0.62444 0.03237 0.72569 0.0
H908 H 0.6421 0.9804 0.54562 0.0
C909 C 0.71087 1.00642 0.42449 0.0
C910 C 0.67572 0.03005 0.57543 0.0
C911 C 0.73106 1.00872 0.39286 0.0
C912 C 0.5923 0.02392 0.71311 0.0
C913 C 0.61331 0.02372 0.68892 0.0
C914 C 0.65107 0.99457 0.55355 0.0
C915 C 0.70622 1.01279 0.50543 0.0
C916 C 0.68432 1.01244 0.53635 0.0
C917 C 0.61986 1.01233 0.6191 0.0
C918 C 0.64224 1.01228 0.59182 0.0
H919 H 0.75478 0.02924 0.56204 0.0
H920 H 0.71947 0.02532 0.61797 0.0
H921 H 0.67793 0.98084 0.49634 0.0
H922 H 0.57269 0.99224 0.56317 0.0
H923 H 0.60877 0.99247 0.51974 0.0
C924 C 0.49325 0.73984 0.48478 0.0
C925 C 0.51041 0.74993 0.44913 0.0
C926 C 0.49546 0.72042 0.52359 0.0
C927 C 0.53312 0.67519 0.53795 0.0
H928 H 0.49037 0.65367 0.68243 0.0
C929 C 0.52886 0.58665 0.60924 0.0
C930 C 0.51923 0.57942 0.68143 0.0
C931 C 0.52847 0.60787 0.5881 0.0
C932 C 0.50276 0.6593 0.64333 0.0
H933 H 0.54371 0.74842 0.43253 0.0
H934 H 0.54814 0.71542 0.50669 0.0
H935 H 0.48967 0.68997 0.64264 0.0
H936 H 0.50187 0.58906 0.78892 0.0
H937 H 0.50226 0.62623 0.75549 0.0
H938 H 0.54707 0.64496 0.54338 0.0
C939 C 0.53259 0.72179 0.50081 0.0
C940 C 0.50211 0.68033 0.61869 0.0
C941 C 0.53023 0.74106 0.45988 0.0
C942 C 0.50936 0.59408 0.73262 0.0
C943 C 0.50947 0.6155 0.7127 0.0
C944 C 0.5341 0.65433 0.5644 0.0
C945 C 0.51511 0.71066 0.53062 0.0
C946 C 0.51701 0.68864 0.56393 0.0
C947 C 0.51895 0.62285 0.63963 0.0
C948 C 0.51867 0.64576 0.61614 0.0
H949 H 0.47779 0.74635 0.47733 0.0
H950 H 0.48143 0.7127 0.54384 0.0
H951 H 0.54487 0.68049 0.49523 0.0
H952 H 0.53634 0.57576 0.56758 0.0
H953 H 0.5354 0.61233 0.53008 0.0
C954 C 0.79072 0.49533 0.49575 0.0
C955 C 0.78104 0.51237 0.45681 0.0
C956 C 0.81019 0.49745 0.53384 0.0
C957 C 0.85624 0.53403 0.54199 0.0
H958 H 0.87636 0.49218 0.69489 0.0
C959 C 0.94432 0.52794 0.61792 0.0
C960 C 0.95111 0.51849 0.69134 0.0
C961 C 0.92318 0.5281 0.59605 0.0
C962 C 0.87115 0.50434 0.65344 0.0
H963 H 0.78346 0.54545 0.43307 0.0
H964 H 0.81657 0.54981 0.50604 0.0
H965 H 0.84024 0.49219 0.65443 0.0
H966 H 0.94086 0.5022 0.80056 0.0
H967 H 0.9039 0.50371 0.76611 0.0
H968 H 0.88673 0.54717 0.54592 0.0
C969 C 0.8098 0.53437 0.5034 0.0
C970 C 0.8502 0.50406 0.62836 0.0
C971 C 0.79048 0.53207 0.46308 0.0
C972 C 0.93614 0.50949 0.74324 0.0
C973 C 0.91484 0.51023 0.72268 0.0
C974 C 0.87704 0.53469 0.56898 0.0
C975 C 0.82043 0.51692 0.53696 0.0
C976 C 0.84239 0.51858 0.57053 0.0
C977 C 0.9079 0.5194 0.64815 0.0
C978 C 0.8851 0.51957 0.62382 0.0
H979 H 0.78376 0.47997 0.49192 0.0
H980 H 0.81753 0.48341 0.55695 0.0
H981 H 0.85131 0.54546 0.49692 0.0
H982 H 0.95548 0.53475 0.57587 0.0
H983 H 0.91903 0.53477 0.53705 0.0
loop_
_geom_bond_atom_site_label_1
_geom_bond_atom_site_label_2
_geom_bond_distance
_geom_bond_site_symmetry_2
_ccdc_geom_bond_type
C0 N1 1.317 . S
C0 N2 1.348 . S
C0 C3 1.485 . S
N1 C0 1.317 . S
N1 N5 1.370 . S
N2 C0 1.348 . S
N2 C4 1.346 . S
C3 C0 1.485 . S
C3 H7 0.960 . S
C3 H8 0.961 . S
C3 H9 0.960 . S
C4 N2 1.346 . S
C4 N5 1.307 . S
C4 C6 1.486 . S
N5 N1 1.370 . S
N5 C4 1.307 . S
C6 C4 1.486 . S
C6 H10 0.960 . S
C6 H11 0.960 . S
C6 H12 0.959 . S
H7 C3 0.960 . S
H8 C3 0.961 . S
H9 C3 0.960 . S
H10 C6 0.960 . S
H11 C6 0.960 . S
H12 C6 0.959 . S
C13 N14 1.317 . S
C13 N15 1.350 . S
C13 C16 1.485 . S
N14 C13 1.317 . S
N14 N18 1.371 . S
N15 C13 1.350 . S
N15 C17 1.345 1_655 S
C16 C13 1.485 . S
C16 H20 0.960 1_655 S
C16 H21 0.961 . S
C16 H22 0.960 . S
C17 N15 1.345 1_455 S
C17 N18 1.307 1_455 S
C17 C19 1.486 . S
N18 N14 1.371 . S
N18 C17 1.307 1_655 S
C19 C17 1.486 . S
C19 H23 0.925 1_455 S
C19 H24 0.989 . S
C19 H25 0.967 . S
H20 C16 0.960 1_455 S
H21 C16 0.961 . S
H22 C16 0.960 . S
H23 C19 0.925 1_655 S
H24 C19 0.989 . S
H25 C19 0.967 . S
C26 N27 1.317 . S
C26 N28 1.350 . S
C26 C29 1.485 . S
N27 C26 1.317 . S
N27 N31 1.371 . S
N28 C26 1.350 . S
N28 C30 1.345 1_565 S
C29 C26 1.485 . S
C29 H33 0.960 1_565 S
C29 H34 0.961 . S
C29 H35 0.960 . S
C30 N28 1.345 1_545 S
C30 N31 1.307 1_545 S
C30 C32 1.486 . S
N31 N27 1.371 . S
N31 C30 1.307 1_565 S
C32 C30 1.486 . S
C32 H36 0.925 1_545 S
C32 H37 0.989 . S
C32 H38 0.967 . S
H33 C29 0.960 1_545 S
H34 C29 0.961 . S
H35 C29 0.960 . S
H36 C32 0.925 1_565 S
H37 C32 0.989 . S
H38 C32 0.967 . S
C39 N40 1.317 . S
C39 N41 1.348 . S
C39 C42 1.485 . S
N40 C39 1.317 . S
N40 N44 1.370 . S
N41 C39 1.348 . S
N41 C43 1.346 . S
C42 C39 1.485 . S
C42 H46 0.960 . S
C42 H47 0.961 . S
C42 H48 0.960 . S
C43 N41 1.346 . S
C43 N44 1.307 . S
C43 C45 1.486 . S
N44 N40 1.370 . S
N44 C43 1.307 . S
C45 C43 1.486 . S
C45 H49 0.960 . S
C45 H50 0.960 . S
C45 H51 0.959 . S
H46 C42 0.960 . S
H47 C42 0.961 . S
H48 C42 0.960 . S
H49 C45 0.960 . S
H50 C45 0.960 . S
H51 C45 0.959 . S
C52 N53 1.317 1_556 S
C52 N54 1.348 1_556 S
C52 C55 1.485 . S
N53 C52 1.317 1_554 S
N53 N57 1.370 . S
N54 C52 1.348 1_554 S
N54 C56 1.346 . S
C55 C52 1.485 . S
C55 H59 0.960 . S
C55 H60 0.961 . S
C55 H61 0.960 . S
C56 N54 1.346 . S
C56 N57 1.307 . S
C56 C58 1.486 . S
N57 N53 1.370 . S
N57 C56 1.307 . S
C58 C56 1.486 . S
C58 H62 0.960 . S
C58 H63 0.960 . S
C58 H64 0.959 . S
H59 C55 0.960 . S
H60 C55 0.961 . S
H61 C55 0.960 . S
H62 C58 0.960 . S
H63 C58 0.960 . S
H64 C58 0.959 . S
C65 N66 1.317 1_556 S
C65 N67 1.350 1_556 S
C65 C68 1.485 . S
N66 C65 1.317 1_554 S
N66 N70 1.370 . S
N67 C65 1.350 1_554 S
N67 C69 1.345 1_655 S
C68 C65 1.485 . S
C68 H72 0.960 1_655 S
C68 H73 0.961 . S
C68 H74 0.960 . S
C69 N67 1.345 1_455 S
C69 N70 1.307 1_455 S
C69 C71 1.485 . S
N70 N66 1.370 . S
N70 C69 1.307 1_655 S
C71 C69 1.485 . S
C71 H75 0.913 1_455 S
C71 H76 0.999 . S
C71 H77 0.970 . S
H72 C68 0.960 1_455 S
H73 C68 0.961 . S
H74 C68 0.960 . S
H75 C71 0.913 1_655 S
H76 C71 0.999 . S
H77 C71 0.970 . S
C78 N79 1.317 1_556 S
C78 N80 1.350 1_556 S
C78 C81 1.485 . S
N79 C78 1.317 1_554 S
N79 N83 1.370 . S
N80 C78 1.350 1_554 S
N80 C82 1.345 1_565 S
C81 C78 1.485 . S
C81 H85 0.960 1_565 S
C81 H86 0.961 . S
C81 H87 0.960 . S
C82 N80 1.345 1_545 S
C82 N83 1.307 1_545 S
C82 C84 1.485 . S
N83 N79 1.370 . S
N83 C82 1.307 1_565 S
C84 C82 1.485 . S
C84 H88 0.913 1_545 S
C84 H89 0.999 . S
C84 H90 0.970 . S
H85 C81 0.960 1_545 S
H86 C81 0.961 . S
H87 C81 0.960 . S
H88 C84 0.913 1_565 S
H89 C84 0.999 . S
H90 C84 0.970 . S
C91 N92 1.317 1_556 S
C91 N93 1.348 1_556 S
C91 C94 1.485 . S
N92 C91 1.317 1_554 S
N92 N96 1.370 . S
N93 C91 1.348 1_554 S
N93 C95 1.346 . S
C94 C91 1.485 . S
C94 H98 0.960 . S
C94 H99 0.961 . S
C94 H100 0.960 . S
C95 N93 1.346 . S
C95 N96 1.307 . S
C95 C97 1.486 . S
N96 N92 1.370 . S
N96 C95 1.307 . S
C97 C95 1.486 . S
C97 H101 0.960 . S
C97 H102 0.960 . S
C97 H103 0.959 . S
H98 C94 0.960 . S
H99 C94 0.961 . S
H100 C94 0.960 . S
H101 C97 0.960 . S
H102 C97 0.960 . S
H103 C97 0.959 . S
Tb104 C114 2.825 . S
Tb104 O115 2.347 1_455 S
Tb104 O118 2.366 . S
Tb104 O123 2.418 . S
Tb104 O124 2.384 1_565 S
Tb104 O127 2.479 . S
Tb104 O128 2.471 . S
Eu105 O116 2.418 . S
Eu105 O117 2.384 1_545 S
Eu105 O120 2.479 . S
Eu105 O121 2.471 . S
Eu105 O122 2.347 1_655 S
Eu105 O125 2.366 . S
Eu105 C135 2.825 . S
C106 O122 1.259 1_565 S
C106 O123 1.265 . S
C107 O124 1.255 . S
C107 O125 1.265 1_455 S
C108 C110 1.380 . S
C108 C111 1.374 . S
C108 C114 1.507 . S
C109 C110 1.384 . S
C109 C113 1.387 1_556 S
C109 H136 0.930 1_556 S
C110 C108 1.380 . S
C110 C109 1.384 . S
C110 H137 0.931 . S
C111 C108 1.374 . S
C111 C112 1.390 . S
C111 H138 0.930 1_455 S
C112 C111 1.390 . S
C112 C113 1.391 1_556 S
C112 H139 0.930 1_456 S
C113 C109 1.387 1_554 S
C113 C112 1.391 1_554 S
C114 Tb104 2.825 . S
C114 C108 1.507 . S
C114 O127 1.238 . S
C114 O128 1.247 . S
O115 Tb104 2.347 1_655 S
O115 C119 1.259 1_565 S
O116 Eu105 2.418 . S
O116 C119 1.265 . S
O117 Eu105 2.384 1_565 S
O117 C126 1.255 . S
O118 Tb104 2.366 . S
O118 C126 1.265 1_455 S
C119 O115 1.259 1_545 S
C119 O116 1.265 . S
O120 Eu105 2.479 . S
O120 C135 1.238 . S
O121 Eu105 2.471 . S
O121 C135 1.247 . S
O122 Eu105 2.347 1_455 S
O122 C106 1.259 1_545 S
O123 Tb104 2.418 . S
O123 C106 1.265 . S
O124 Tb104 2.384 1_545 S
O124 C107 1.255 . S
O125 Eu105 2.366 . S
O125 C107 1.265 1_655 S
C126 O117 1.255 . S
C126 O118 1.265 1_655 S
O127 Tb104 2.479 . S
O127 C114 1.238 . S
O128 Tb104 2.471 . S
O128 C114 1.247 . S
C129 C132 1.380 . S
C129 C133 1.374 . S
C129 C135 1.507 . S
C130 C131 1.387 . S
C130 C134 1.391 . S
C131 C130 1.387 . S
C131 C132 1.384 . S
C131 H140 0.930 . S
C132 C129 1.380 . S
C132 C131 1.384 . S
C132 H141 0.931 . S
C133 C129 1.374 . S
C133 C134 1.390 . S
C133 H142 0.930 1_655 S
C134 C130 1.391 . S
C134 C133 1.390 . S
C134 H143 0.930 1_655 S
C135 Eu105 2.825 . S
C135 O120 1.238 . S
C135 O121 1.247 . S
C135 C129 1.507 . S
H136 C109 0.930 1_554 S
H137 C110 0.931 . S
H138 C111 0.930 1_655 S
H139 C112 0.930 1_654 S
H140 C131 0.930 . S
H141 C132 0.931 . S
H142 C133 0.930 1_455 S
H143 C134 0.930 1_455 S
Tb144 C154 2.825 . S
Tb144 O155 2.347 1_545 S
Tb144 O158 2.366 . S
Tb144 O163 2.418 . S
Tb144 O164 2.384 . S
Tb144 O167 2.479 . S
Tb144 O168 2.471 . S
Eu145 O156 2.418 . S
Eu145 O157 2.384 . S
Eu145 O160 2.479 . S
Eu145 O161 2.471 . S
Eu145 O162 2.347 1_565 S
Eu145 O165 2.366 . S
Eu145 C175 2.825 . S
C146 O162 1.259 . S
C146 O163 1.265 . S
C147 O164 1.255 . S
C147 O165 1.265 1_545 S
C148 C150 1.380 . S
C148 C151 1.374 . S
C148 C154 1.507 . S
C149 C150 1.384 . S
C149 C153 1.387 1_556 S
C149 H176 0.930 1_556 S
C150 C148 1.380 . S
C150 C149 1.384 . S
C150 H177 0.931 . S
C151 C148 1.374 . S
C151 C152 1.390 . S
C151 H178 0.930 1_545 S
C152 C151 1.390 . S
C152 C153 1.391 1_556 S
C152 H179 0.930 1_546 S
C153 C149 1.387 1_554 S
C153 C152 1.391 1_554 S
C154 Tb144 2.825 . S
C154 C148 1.507 . S
C154 O167 1.238 . S
C154 O168 1.247 . S
O155 Tb144 2.347 1_565 S
O155 C159 1.259 . S
O156 Eu145 2.418 . S
O156 C159 1.265 . S
O157 Eu145 2.384 . S
O157 C166 1.255 . S
O158 Tb144 2.366 . S
O158 C166 1.265 1_545 S
C159 O155 1.259 . S
C159 O156 1.265 . S
O160 Eu145 2.479 . S
O160 C175 1.238 . S
O161 Eu145 2.471 . S
O161 C175 1.247 . S
O162 Eu145 2.347 1_545 S
O162 C146 1.259 . S
O163 Tb144 2.418 . S
O163 C146 1.265 . S
O164 Tb144 2.384 . S
O164 C147 1.255 . S
O165 Eu145 2.366 . S
O165 C147 1.265 1_565 S
C166 O157 1.255 . S
C166 O158 1.265 1_565 S
O167 Tb144 2.479 . S
O167 C154 1.238 . S
O168 Tb144 2.471 . S
O168 C154 1.247 . S
C169 C172 1.380 . S
C169 C173 1.374 . S
C169 C175 1.507 . S
C170 C171 1.387 . S
C170 C174 1.391 . S
C171 C170 1.387 . S
C171 C172 1.384 . S
C171 H180 0.930 . S
C172 C169 1.380 . S
C172 C171 1.384 . S
C172 H181 0.931 . S
C173 C169 1.374 . S
C173 C174 1.390 . S
C173 H182 0.930 1_565 S
C174 C170 1.391 . S
C174 C173 1.390 . S
C174 H183 0.930 1_565 S
C175 Eu145 2.825 . S
C175 O160 1.238 . S
C175 O161 1.247 . S
C175 C169 1.507 . S
H176 C149 0.930 1_554 S
H177 C150 0.931 . S
H178 C151 0.930 1_565 S
H179 C152 0.930 1_564 S
H180 C171 0.930 . S
H181 C172 0.931 . S
H182 C173 0.930 1_545 S
H183 C174 0.930 1_545 S
Tb184 C194 2.825 . S
Tb184 O195 2.347 . S
Tb184 O198 2.366 . S
Tb184 O203 2.418 . S
Tb184 O204 2.384 . S
Tb184 O207 2.479 . S
Tb184 O208 2.471 . S
Eu185 O196 2.418 . S
Eu185 O197 2.384 . S
Eu185 O200 2.479 . S
Eu185 O201 2.471 . S
Eu185 O202 2.347 . S
Eu185 O205 2.366 . S
Eu185 C215 2.825 . S
C186 O202 1.259 . S
C186 O203 1.265 . S
C187 O204 1.255 . S
C187 O205 1.265 . S
C188 C190 1.380 . S
C188 C191 1.374 . S
C188 C194 1.507 . S
C189 C190 1.384 . S
C189 C193 1.387 1_556 S
C189 H216 0.930 1_556 S
C190 C188 1.380 . S
C190 C189 1.384 . S
C190 H217 0.931 . S
C191 C188 1.374 . S
C191 C192 1.390 . S
C191 H218 0.930 . S
C192 C191 1.390 . S
C192 C193 1.391 1_556 S
C192 H219 0.930 1_556 S
C193 C189 1.387 1_554 S
C193 C192 1.391 1_554 S
C194 Tb184 2.825 . S
C194 C188 1.507 . S
C194 O207 1.238 . S
C194 O208 1.247 . S
O195 Tb184 2.347 . S
O195 C199 1.259 . S
O196 Eu185 2.418 . S
O196 C199 1.265 . S
O197 Eu185 2.384 . S
O197 C206 1.255 . S
O198 Tb184 2.366 . S
O198 C206 1.265 . S
C199 O195 1.259 . S
C199 O196 1.265 . S
O200 Eu185 2.479 . S
O200 C215 1.238 . S
O201 Eu185 2.471 . S
O201 C215 1.247 . S
O202 Eu185 2.347 . S
O202 C186 1.259 . S
O203 Tb184 2.418 . S
O203 C186 1.265 . S
O204 Tb184 2.384 . S
O204 C187 1.255 . S
O205 Eu185 2.366 . S
O205 C187 1.265 . S
C206 O197 1.255 . S
C206 O198 1.265 . S
O207 Tb184 2.479 . S
O207 C194 1.238 . S
O208 Tb184 2.471 . S
O208 C194 1.247 . S
C209 C212 1.380 . S
C209 C213 1.374 . S
C209 C215 1.507 . S
C210 C211 1.387 . S
C210 C214 1.391 . S
C211 C210 1.387 . S
C211 C212 1.384 . S
C211 H220 0.930 . S
C212 C209 1.380 . S
C212 C211 1.384 . S
C212 H221 0.931 . S
C213 C209 1.374 . S
C213 C214 1.390 . S
C213 H222 0.930 . S
C214 C210 1.391 . S
C214 C213 1.390 . S
C214 H223 0.930 . S
C215 Eu185 2.825 . S
C215 O200 1.238 . S
C215 O201 1.247 . S
C215 C209 1.507 . S
H216 C189 0.930 1_554 S
H217 C190 0.931 . S
H218 C191 0.930 . S
H219 C192 0.930 1_554 S
H220 C211 0.930 . S
H221 C212 0.931 . S
H222 C213 0.930 . S
H223 C214 0.930 . S
Tb224 C234 2.825 . S
Tb224 O235 2.347 . S
Tb224 O238 2.366 . S
Tb224 O243 2.418 . S
Tb224 O244 2.384 1_655 S
Tb224 O247 2.479 . S
Tb224 O248 2.471 . S
Eu225 O236 2.418 . S
Eu225 O237 2.384 1_455 S
Eu225 O240 2.479 . S
Eu225 O241 2.471 . S
Eu225 O242 2.347 . S
Eu225 O245 2.366 . S
Eu225 C255 2.825 . S
C226 O242 1.259 1_655 S
C226 O243 1.265 . S
C227 O244 1.255 . S
C227 O245 1.265 . S
C228 C230 1.380 . S
C228 C231 1.374 . S
C228 C234 1.507 . S
C229 C230 1.384 . S
C229 C233 1.387 1_556 S
C229 H256 0.930 1_556 S
C230 C228 1.380 . S
C230 C229 1.384 . S
C230 H257 0.931 . S
C231 C228 1.374 . S
C231 C232 1.390 . S
C231 H258 0.930 . S
C232 C231 1.390 . S
C232 C233 1.391 1_556 S
C232 H259 0.930 1_556 S
C233 C229 1.387 1_554 S
C233 C232 1.391 1_554 S
C234 Tb224 2.825 . S
C234 C228 1.507 . S
C234 O247 1.238 . S
C234 O248 1.247 . S
O235 Tb224 2.347 . S
O235 C239 1.259 1_655 S
O236 Eu225 2.418 . S
O236 C239 1.265 . S
O237 Eu225 2.384 1_655 S
O237 C246 1.255 . S
O238 Tb224 2.366 . S
O238 C246 1.265 . S
C239 O235 1.259 1_455 S
C239 O236 1.265 . S
O240 Eu225 2.479 . S
O240 C255 1.238 . S
O241 Eu225 2.471 . S
O241 C255 1.247 . S
O242 Eu225 2.347 . S
O242 C226 1.259 1_455 S
O243 Tb224 2.418 . S
O243 C226 1.265 . S
O244 Tb224 2.384 1_455 S
O244 C227 1.255 . S
O245 Eu225 2.366 . S
O245 C227 1.265 . S
C246 O237 1.255 . S
C246 O238 1.265 . S
O247 Tb224 2.479 . S
O247 C234 1.238 . S
O248 Tb224 2.471 . S
O248 C234 1.247 . S
C249 C252 1.380 . S
C249 C253 1.374 . S
C249 C255 1.507 . S
C250 C251 1.387 . S
C250 C254 1.391 . S
C251 C250 1.387 . S
C251 C252 1.384 . S
C251 H260 0.930 . S
C252 C249 1.380 . S
C252 C251 1.384 . S
C252 H261 0.931 . S
C253 C249 1.374 . S
C253 C254 1.390 . S
C253 H262 0.930 . S
C254 C250 1.391 . S
C254 C253 1.390 . S
C254 H263 0.930 . S
C255 Eu225 2.825 . S
C255 O240 1.238 . S
C255 O241 1.247 . S
C255 C249 1.507 . S
H256 C229 0.930 1_554 S
H257 C230 0.931 . S
H258 C231 0.930 . S
H259 C232 0.930 1_554 S
H260 C251 0.930 . S
H261 C252 0.931 . S
H262 C253 0.930 . S
H263 C254 0.930 . S
C264 C265 1.347 1_565 S
C264 C266 1.327 . S
C264 H289 0.950 . S
C265 C264 1.347 1_545 S
C265 C281 1.351 . S
C266 C264 1.327 . S
C266 C285 1.423 1_565 S
C266 H290 0.950 . S
C267 C284 1.574 . S
C267 C286 1.377 . S
C267 H291 0.949 . S
H268 C272 0.949 . S
C269 C270 1.368 . S
C269 C271 1.327 . S
C269 H292 0.950 . S
C270 C269 1.368 . S
C270 C282 1.330 1_545 S
C271 C269 1.327 . S
C271 C287 1.443 . S
C271 H293 0.950 . S
C272 H268 0.949 . S
C272 C280 1.574 . S
C272 C288 1.355 1_565 S
H273 C281 0.950 . S
H274 C279 0.950 . S
H275 C280 0.949 . S
H276 C282 0.950 . S
H277 C283 0.950 . S
H278 C284 0.949 . S
C279 H274 0.950 . S
C279 C281 1.327 . S
C279 C285 1.434 . S
C280 C272 1.574 . S
C280 H275 0.949 . S
C280 C286 1.359 1_565 S
C281 C265 1.351 . S
C281 H273 0.950 . S
C281 C279 1.327 . S
C282 C270 1.330 1_565 S
C282 H276 0.950 . S
C282 C283 1.327 . S
C283 H277 0.950 . S
C283 C282 1.327 . S
C283 C287 1.414 1_565 S
C284 C267 1.574 . S
C284 H278 0.949 . S
C284 C288 1.382 . S
C285 C266 1.423 1_545 S
C285 C279 1.434 . S
C285 C286 1.523 . S
C286 C267 1.377 . S
C286 C280 1.359 1_545 S
C286 C285 1.523 . S
C287 C271 1.443 . S
C287 C283 1.414 1_545 S
C287 C288 1.523 . S
C288 C272 1.355 1_545 S
C288 C284 1.382 . S
C288 C287 1.523 . S
H289 C264 0.950 . S
H290 C266 0.950 . S
H291 C267 0.949 . S
H292 C269 0.950 . S
H293 C271 0.950 . S
C294 C295 1.349 . S
C294 C296 1.327 . S
C294 H319 0.950 . S
C295 C294 1.349 . S
C295 C311 1.349 . S
C296 C294 1.327 . S
C296 C315 1.429 . S
C296 H320 0.950 . S
C297 C314 1.574 . S
C297 C316 1.368 . S
C297 H321 0.949 . S
H298 C302 0.949 . S
C299 C300 1.349 . S
C299 C301 1.327 . S
C299 H322 0.950 . S
C300 C299 1.349 . S
C300 C312 1.349 . S
C301 C299 1.327 . S
C301 C317 1.429 . S
C301 H323 0.950 . S
C302 H298 0.949 . S
C302 C310 1.574 . S
C302 C318 1.368 . S
H303 C311 0.950 . S
H304 C309 0.950 . S
H305 C310 0.949 . S
H306 C312 0.950 . S
H307 C313 0.950 . S
H308 C314 0.949 . S
C309 H304 0.950 . S
C309 C311 1.327 . S
C309 C315 1.429 . S
C310 C302 1.574 . S
C310 H305 0.949 . S
C310 C316 1.368 . S
C311 C295 1.349 . S
C311 H303 0.950 . S
C311 C309 1.327 . S
C312 C300 1.349 . S
C312 H306 0.950 . S
C312 C313 1.327 . S
C313 H307 0.950 . S
C313 C312 1.327 . S
C313 C317 1.429 . S
C314 C297 1.574 . S
C314 H308 0.949 . S
C314 C318 1.368 . S
C315 C296 1.429 . S
C315 C309 1.429 . S
C315 C316 1.523 . S
C316 C297 1.368 . S
C316 C310 1.368 . S
C316 C315 1.523 . S
C317 C301 1.429 . S
C317 C313 1.429 . S
C317 C318 1.523 . S
C318 C302 1.368 . S
C318 C314 1.368 . S
C318 C317 1.523 . S
H319 C294 0.950 . S
H320 C296 0.950 . S
H321 C297 0.949 . S
H322 C299 0.950 . S
H323 C301 0.950 . S
C324 C325 1.349 . S
C324 C326 1.327 . S
C324 H349 0.950 . S
C325 C324 1.349 . S
C325 C341 1.349 . S
C326 C324 1.327 . S
C326 C345 1.429 . S
C326 H350 0.950 . S
C327 C344 1.574 . S
C327 C346 1.368 . S
C327 H351 0.949 . S
H328 C332 0.949 . S
C329 C330 1.349 . S
C329 C331 1.327 . S
C329 H352 0.950 . S
C330 C329 1.349 . S
C330 C342 1.349 . S
C331 C329 1.327 . S
C331 C347 1.429 . S
C331 H353 0.950 . S
C332 H328 0.949 . S
C332 C340 1.574 . S
C332 C348 1.368 . S
H333 C341 0.950 . S
H334 C339 0.950 . S
H335 C340 0.949 . S
H336 C342 0.950 . S
H337 C343 0.950 . S
H338 C344 0.949 . S
C339 H334 0.950 . S
C339 C341 1.327 . S
C339 C345 1.429 . S
C340 C332 1.574 . S
C340 H335 0.949 . S
C340 C346 1.368 . S
C341 C325 1.349 . S
C341 H333 0.950 . S
C341 C339 1.327 . S
C342 C330 1.349 . S
C342 H336 0.950 . S
C342 C343 1.327 . S
C343 H337 0.950 . S
C343 C342 1.327 . S
C343 C347 1.429 . S
C344 C327 1.574 . S
C344 H338 0.949 . S
C344 C348 1.368 . S
C345 C326 1.429 . S
C345 C339 1.429 . S
C345 C346 1.523 . S
C346 C327 1.368 . S
C346 C340 1.368 . S
C346 C345 1.523 . S
C347 C331 1.429 . S
C347 C343 1.429 . S
C347 C348 1.523 . S
C348 C332 1.368 . S
C348 C344 1.368 . S
C348 C347 1.523 . S
H349 C324 0.950 . S
H350 C326 0.950 . S
H351 C327 0.949 . S
H352 C329 0.950 . S
H353 C331 0.950 . S
C354 C355 1.347 1_655 S
C354 C356 1.327 . S
C354 H379 0.950 . S
C355 C354 1.347 1_455 S
C355 C371 1.351 . S
C356 C354 1.327 . S
C356 C375 1.420 1_655 S
C356 H380 0.950 . S
C357 C374 1.574 . S
C357 C376 1.381 . S
C357 H381 0.949 . S
H358 C362 0.949 . S
C359 C360 1.376 . S
C359 C361 1.327 . S
C359 H382 0.950 . S
C360 C359 1.376 . S
C360 C372 1.322 1_455 S
C361 C359 1.327 . S
C361 C377 1.449 . S
C361 H383 0.950 . S
C362 H358 0.949 . S
C362 C370 1.574 . S
C362 C378 1.350 1_655 S
H363 C371 0.950 . S
H364 C369 0.950 . S
H365 C370 0.949 . S
H366 C372 0.950 . S
H367 C373 0.950 . S
H368 C374 0.949 . S
C369 H364 0.950 . S
C369 C371 1.327 . S
C369 C375 1.437 . S
C370 C362 1.574 . S
C370 H365 0.949 . S
C370 C376 1.356 1_655 S
C371 C355 1.351 . S
C371 H363 0.950 . S
C371 C369 1.327 . S
C372 C360 1.322 1_655 S
C372 H366 0.950 . S
C372 C373 1.327 . S
C373 H367 0.950 . S
C373 C372 1.327 . S
C373 C377 1.409 1_655 S
C374 C357 1.574 . S
C374 H368 0.949 . S
C374 C378 1.387 . S
C375 C356 1.420 1_455 S
C375 C369 1.437 . S
C375 C376 1.523 . S
C376 C357 1.381 . S
C376 C370 1.356 1_455 S
C376 C375 1.523 . S
C377 C361 1.449 . S
C377 C373 1.409 1_455 S
C377 C378 1.523 . S
C378 C362 1.350 1_455 S
C378 C374 1.387 . S
C378 C377 1.523 . S
H379 C354 0.950 . S
H380 C356 0.950 . S
H381 C357 0.949 . S
H382 C359 0.950 . S
H383 C361 0.950 . S
C384 C385 1.347 . S
C384 C386 1.327 . S
C384 H409 0.950 . S
C385 C384 1.347 . S
C385 C401 1.351 1_545 S
C386 C384 1.327 . S
C386 C405 1.432 1_545 S
C386 H410 0.950 . S
C387 C404 1.574 . S
C387 C406 1.367 . S
C387 H411 0.949 . S
H388 C392 0.949 . S
C389 C390 1.359 . S
C389 C391 1.327 . S
C389 H412 0.950 . S
C390 C389 1.359 . S
C390 C402 1.339 1_565 S
C391 C389 1.327 . S
C391 C407 1.434 . S
C391 H413 0.950 . S
C392 H388 0.949 . S
C392 C400 1.574 . S
C392 C408 1.365 1_545 S
H393 C401 0.950 . S
H394 C399 0.950 . S
H395 C400 0.949 . S
H396 C402 0.950 . S
H397 C403 0.950 1_554 S
H398 C404 0.949 1_556 S
C399 H394 0.950 . S
C399 C401 1.327 . S
C399 C405 1.425 . S
C400 C392 1.574 . S
C400 H395 0.949 . S
C400 C406 1.369 1_545 S
C401 C385 1.351 1_565 S
C401 H393 0.950 . S
C401 C399 1.327 . S
C402 C390 1.339 1_545 S
C402 H396 0.950 . S
C402 C403 1.327 . S
C403 H397 0.950 1_556 S
C403 C402 1.327 . S
C403 C407 1.423 1_545 S
C404 C387 1.574 . S
C404 H398 0.949 1_554 S
C404 C408 1.372 . S
C405 C386 1.432 1_565 S
C405 C399 1.425 . S
C405 C406 1.523 . S
C406 C387 1.367 . S
C406 C400 1.369 1_565 S
C406 C405 1.523 . S
C407 C391 1.434 . S
C407 C403 1.423 1_565 S
C407 C408 1.523 1_556 S
C408 C392 1.365 1_565 S
C408 C404 1.372 . S
C408 C407 1.523 1_554 S
H409 C384 0.950 . S
H410 C386 0.950 . S
H411 C387 0.949 . S
H412 C389 0.950 . S
H413 C391 0.950 . S
C414 C415 1.349 . S
C414 C416 1.327 . S
C414 H439 0.950 . S
C415 C414 1.349 . S
C415 C431 1.349 . S
C416 C414 1.327 . S
C416 C435 1.429 . S
C416 H440 0.950 . S
C417 C434 1.574 . S
C417 C436 1.368 . S
C417 H441 0.949 . S
H418 C422 0.949 . S
C419 C420 1.349 . S
C419 C421 1.327 . S
C419 H442 0.950 . S
C420 C419 1.349 . S
C420 C432 1.349 . S
C421 C419 1.327 . S
C421 C437 1.429 . S
C421 H443 0.950 . S
C422 H418 0.949 . S
C422 C430 1.574 . S
C422 C438 1.368 . S
H423 C431 0.950 . S
H424 C429 0.950 . S
H425 C430 0.949 . S
H426 C432 0.950 . S
H427 C433 0.950 . S
H428 C434 0.949 . S
C429 H424 0.950 . S
C429 C431 1.327 . S
C429 C435 1.429 . S
C430 C422 1.574 . S
C430 H425 0.949 . S
C430 C436 1.368 . S
C431 C415 1.349 . S
C431 H423 0.950 . S
C431 C429 1.327 . S
C432 C420 1.349 . S
C432 H426 0.950 . S
C432 C433 1.327 . S
C433 H427 0.950 . S
C433 C432 1.327 . S
C433 C437 1.429 . S
C434 C417 1.574 . S
C434 H428 0.949 . S
C434 C438 1.368 . S
C435 C416 1.429 . S
C435 C429 1.429 . S
C435 C436 1.523 . S
C436 C417 1.368 . S
C436 C430 1.368 . S
C436 C435 1.523 . S
C437 C421 1.429 . S
C437 C433 1.429 . S
C437 C438 1.523 1_556 S
C438 C422 1.368 . S
C438 C434 1.368 . S
C438 C437 1.523 1_554 S
H439 C414 0.950 . S
H440 C416 0.950 . S
H441 C417 0.949 . S
H442 C419 0.950 . S
H443 C421 0.950 . S
C444 C445 1.349 . S
C444 C446 1.327 . S
C444 H469 0.950 . S
C445 C444 1.349 . S
C445 C461 1.349 . S
C446 C444 1.327 . S
C446 C465 1.429 . S
C446 H470 0.950 . S
C447 C464 1.574 . S
C447 C466 1.368 . S
C447 H471 0.949 . S
H448 C452 0.949 . S
C449 C450 1.349 . S
C449 C451 1.327 . S
C449 H472 0.950 . S
C450 C449 1.349 . S
C450 C462 1.349 . S
C451 C449 1.327 . S
C451 C467 1.429 . S
C451 H473 0.950 . S
C452 H448 0.949 . S
C452 C460 1.574 . S
C452 C468 1.368 . S
H453 C461 0.950 . S
H454 C459 0.950 . S
H455 C460 0.949 . S
H456 C462 0.950 . S
H457 C463 0.950 1_554 S
H458 C464 0.949 1_556 S
C459 H454 0.950 . S
C459 C461 1.327 . S
C459 C465 1.429 . S
C460 C452 1.574 . S
C460 H455 0.949 . S
C460 C466 1.368 . S
C461 C445 1.349 . S
C461 H453 0.950 . S
C461 C459 1.327 . S
C462 C450 1.349 . S
C462 H456 0.950 . S
C462 C463 1.327 . S
C463 H457 0.950 1_556 S
C463 C462 1.327 . S
C463 C467 1.429 . S
C464 C447 1.574 . S
C464 H458 0.949 1_554 S
C464 C468 1.368 . S
C465 C446 1.429 . S
C465 C459 1.429 . S
C465 C466 1.523 . S
C466 C447 1.368 . S
C466 C460 1.368 . S
C466 C465 1.523 . S
C467 C451 1.429 . S
C467 C463 1.429 . S
C467 C468 1.523 1_556 S
C468 C452 1.368 . S
C468 C464 1.368 . S
C468 C467 1.523 1_554 S
H469 C444 0.950 . S
H470 C446 0.950 . S
H471 C447 0.949 . S
H472 C449 0.950 . S
H473 C451 0.950 . S
C474 C475 1.351 . S
C474 C476 1.327 . S
C474 H499 0.950 . S
C475 C474 1.351 . S
C475 C491 1.347 1_655 S
C476 C474 1.327 . S
C476 C495 1.435 . S
C476 H500 0.950 . S
C477 C494 1.574 . S
C477 C496 1.359 1_455 S
C477 H501 0.949 . S
H478 C482 0.949 . S
C479 C480 1.328 1_455 S
C479 C481 1.327 . S
C479 H502 0.950 . S
C480 C479 1.328 1_655 S
C480 C492 1.370 . S
C481 C479 1.327 . S
C481 C497 1.413 1_455 S
C481 H503 0.950 . S
C482 H478 0.949 . S
C482 C490 1.574 . S
C482 C498 1.383 . S
H483 C491 0.950 . S
H484 C489 0.950 . S
H485 C490 0.949 . S
H486 C492 0.950 . S
H487 C493 0.950 1_554 S
H488 C494 0.949 1_556 S
C489 H484 0.950 . S
C489 C491 1.327 . S
C489 C495 1.422 1_455 S
C490 C482 1.574 . S
C490 H485 0.949 . S
C490 C496 1.378 . S
C491 C475 1.347 1_455 S
C491 H483 0.950 . S
C491 C489 1.327 . S
C492 C480 1.370 . S
C492 H486 0.950 . S
C492 C493 1.327 . S
C493 H487 0.950 1_556 S
C493 C492 1.327 . S
C493 C497 1.445 . S
C494 C477 1.574 . S
C494 H488 0.949 1_554 S
C494 C498 1.354 1_455 S
C495 C476 1.435 . S
C495 C489 1.422 1_655 S
C495 C496 1.523 . S
C496 C477 1.359 1_655 S
C496 C490 1.378 . S
C496 C495 1.523 . S
C497 C481 1.413 1_655 S
C497 C493 1.445 . S
C497 C498 1.523 1_556 S
C498 C482 1.383 . S
C498 C494 1.354 1_655 S
C498 C497 1.523 1_554 S
H499 C474 0.950 . S
H500 C476 0.950 . S
H501 C477 0.949 . S
H502 C479 0.950 . S
H503 C481 0.950 . S
C504 C505 1.349 1_655 S
C504 C506 1.327 . S
C504 H529 0.950 . S
C505 C504 1.349 1_455 S
C505 C521 1.349 . S
C506 C504 1.327 . S
C506 C525 1.429 . S
C506 H530 0.950 . S
C507 C524 1.577 . S
C507 C526 1.368 1_455 S
C507 H531 0.949 . S
H508 C512 0.949 . S
C509 C510 1.349 . S
C509 C511 1.327 . S
C509 H532 0.950 . S
C510 C509 1.349 . S
C510 C522 1.349 . S
C511 C509 1.327 . S
C511 C527 1.429 . S
C511 H533 0.950 1_655 S
C512 H508 0.949 . S
C512 C520 1.574 . S
C512 C528 1.368 . S
H513 C521 0.950 . S
H514 C519 0.950 . S
H515 C520 0.949 . S
H516 C522 0.950 . S
H517 C523 0.950 . S
H518 C524 0.959 . S
C519 H514 0.950 . S
C519 C521 1.327 . S
C519 C525 1.429 1_455 S
C520 C512 1.574 . S
C520 H515 0.949 . S
C520 C526 1.368 . S
C521 C505 1.349 . S
C521 H513 0.950 . S
C521 C519 1.327 . S
C522 C510 1.349 . S
C522 H516 0.950 . S
C522 C523 1.327 . S
C523 H517 0.950 . S
C523 C522 1.327 . S
C523 C527 1.429 . S
C524 C507 1.577 . S
C524 H518 0.959 . S
C524 C528 1.354 1_455 S
C525 C506 1.429 . S
C525 C519 1.429 1_655 S
C525 C526 1.523 . S
C526 C507 1.368 1_655 S
C526 C520 1.368 . S
C526 C525 1.523 . S
C527 C511 1.429 . S
C527 C523 1.429 . S
C527 C528 1.523 . S
C528 C512 1.368 . S
C528 C524 1.354 1_655 S
C528 C527 1.523 . S
H529 C504 0.950 . S
H530 C506 0.950 . S
H531 C507 0.949 . S
H532 C509 0.950 . S
H533 C511 0.950 1_455 S
C534 C535 1.349 . S
C534 C536 1.327 . S
C534 H559 0.950 . S
C535 C534 1.349 . S
C535 C551 1.349 1_545 S
C536 C534 1.327 . S
C536 C555 1.429 1_545 S
C536 H560 0.950 . S
C537 C554 1.574 . S
C537 C556 1.368 . S
C537 H561 0.949 . S
H538 C542 0.929 1_545 S
C539 C540 1.349 . S
C539 C541 1.327 . S
C539 H562 0.950 . S
C540 C539 1.349 . S
C540 C552 1.349 . S
C541 C539 1.327 . S
C541 C557 1.429 . S
C541 H563 0.950 . S
C542 H538 0.929 1_565 S
C542 C550 1.568 1_565 S
C542 C558 1.399 . S
H543 C551 0.950 . S
H544 C549 0.950 . S
H545 C550 0.949 . S
H546 C552 0.950 . S
H547 C553 0.950 1_545 S
H548 C554 0.949 . S
C549 H544 0.950 . S
C549 C551 1.327 . S
C549 C555 1.429 . S
C550 C542 1.568 1_545 S
C550 H545 0.949 . S
C550 C556 1.368 1_545 S
C551 C535 1.349 1_565 S
C551 H543 0.950 . S
C551 C549 1.327 . S
C552 C540 1.349 . S
C552 H546 0.950 . S
C552 C553 1.327 . S
C553 H547 0.950 1_565 S
C553 C552 1.327 . S
C553 C557 1.429 . S
C554 C537 1.574 . S
C554 H548 0.949 . S
C554 C558 1.368 . S
C555 C536 1.429 1_565 S
C555 C549 1.429 . S
C555 C556 1.523 . S
C556 C537 1.368 . S
C556 C550 1.368 1_565 S
C556 C555 1.523 . S
C557 C541 1.429 . S
C557 C553 1.429 . S
C557 C558 1.523 . S
C558 C542 1.399 . S
C558 C554 1.368 . S
C558 C557 1.523 . S
H559 C534 0.950 . S
H560 C536 0.950 . S
H561 C537 0.949 . S
H562 C539 0.950 . S
H563 C541 0.950 . S
C564 C565 1.349 . S
C564 C566 1.327 . S
C564 H589 0.950 . S
C565 C564 1.349 . S
C565 C581 1.349 . S
C566 C564 1.327 . S
C566 C585 1.429 . S
C566 H590 0.950 . S
C567 C584 1.574 . S
C567 C586 1.368 . S
C567 H591 0.949 . S
H568 C572 0.949 . S
C569 C570 1.349 . S
C569 C571 1.327 . S
C569 H592 0.950 . S
C570 C569 1.349 . S
C570 C582 1.349 . S
C571 C569 1.327 . S
C571 C587 1.429 . S
C571 H593 0.950 . S
C572 H568 0.949 . S
C572 C580 1.574 . S
C572 C588 1.368 . S
H573 C581 0.950 . S
H574 C579 0.950 . S
H575 C580 0.949 . S
H576 C582 0.950 . S
H577 C583 0.950 . S
H578 C584 0.949 . S
C579 H574 0.950 . S
C579 C581 1.327 . S
C579 C585 1.429 . S
C580 C572 1.574 . S
C580 H575 0.949 . S
C580 C586 1.368 . S
C581 C565 1.349 . S
C581 H573 0.950 . S
C581 C579 1.327 . S
C582 C570 1.349 . S
C582 H576 0.950 . S
C582 C583 1.327 . S
C583 H577 0.950 . S
C583 C582 1.327 . S
C583 C587 1.429 . S
C584 C567 1.574 . S
C584 H578 0.949 . S
C584 C588 1.368 . S
C585 C566 1.429 . S
C585 C579 1.429 . S
C585 C586 1.523 . S
C586 C567 1.368 . S
C586 C580 1.368 . S
C586 C585 1.523 . S
C587 C571 1.429 . S
C587 C583 1.429 . S
C587 C588 1.523 . S
C588 C572 1.368 . S
C588 C584 1.368 . S
C588 C587 1.523 . S
H589 C564 0.950 . S
H590 C566 0.950 . S
H591 C567 0.949 . S
H592 C569 0.950 . S
H593 C571 0.950 . S
C594 C595 1.349 . S
C594 C596 1.327 . S
C594 H619 0.950 . S
C595 C594 1.349 . S
C595 C611 1.349 . S
C596 C594 1.327 . S
C596 C615 1.429 . S
C596 H620 0.950 . S
C597 C614 1.574 . S
C597 C616 1.368 . S
C597 H621 0.949 . S
H598 C602 0.949 . S
C599 C600 1.349 . S
C599 C601 1.327 . S
C599 H622 0.950 . S
C600 C599 1.349 . S
C600 C612 1.349 . S
C601 C599 1.327 . S
C601 C617 1.429 . S
C601 H623 0.950 . S
C602 H598 0.949 . S
C602 C610 1.574 . S
C602 C618 1.368 . S
H603 C611 0.950 . S
H604 C609 0.950 . S
H605 C610 0.949 . S
H606 C612 0.950 . S
H607 C613 0.950 . S
H608 C614 0.949 . S
C609 H604 0.950 . S
C609 C611 1.327 . S
C609 C615 1.429 . S
C610 C602 1.574 . S
C610 H605 0.949 . S
C610 C616 1.368 . S
C611 C595 1.349 . S
C611 H603 0.950 . S
C611 C609 1.327 . S
C612 C600 1.349 . S
C612 H606 0.950 . S
C612 C613 1.327 . S
C613 H607 0.950 . S
C613 C612 1.327 . S
C613 C617 1.429 . S
C614 C597 1.574 . S
C614 H608 0.949 . S
C614 C618 1.368 . S
C615 C596 1.429 . S
C615 C609 1.429 . S
C615 C616 1.523 . S
C616 C597 1.368 . S
C616 C610 1.368 . S
C616 C615 1.523 . S
C617 C601 1.429 . S
C617 C613 1.429 . S
C617 C618 1.523 . S
C618 C602 1.368 . S
C618 C614 1.368 . S
C618 C617 1.523 . S
H619 C594 0.950 . S
H620 C596 0.950 . S
H621 C597 0.949 . S
H622 C599 0.950 . S
H623 C601 0.950 . S
C624 C625 1.349 . S
C624 C626 1.327 . S
C624 H649 0.950 . S
C625 C624 1.349 . S
C625 C641 1.349 1_655 S
C626 C624 1.327 . S
C626 C645 1.429 1_655 S
C626 H650 0.950 . S
C627 C644 1.574 . S
C627 C646 1.368 . S
C627 H651 0.949 . S
H628 C632 0.949 . S
C629 C630 1.349 . S
C629 C631 1.327 . S
C629 H652 0.950 . S
C630 C629 1.349 . S
C630 C642 1.349 . S
C631 C629 1.327 . S
C631 C647 1.429 . S
C631 H653 0.950 . S
C632 H628 0.949 . S
C632 C640 1.574 . S
C632 C648 1.368 1_655 S
H633 C641 0.950 . S
H634 C639 0.950 . S
H635 C640 0.949 . S
H636 C642 0.950 1_655 S
H637 C643 0.912 1_655 S
H638 C644 0.949 . S
C639 H634 0.950 . S
C639 C641 1.327 . S
C639 C645 1.429 . S
C640 C632 1.574 . S
C640 H635 0.949 . S
C640 C646 1.368 1_655 S
C641 C625 1.349 1_455 S
C641 H633 0.950 . S
C641 C639 1.327 . S
C642 C630 1.349 . S
C642 H636 0.950 1_455 S
C642 C643 1.334 . S
C643 H637 0.912 1_455 S
C643 C642 1.334 . S
C643 C647 1.459 . S
C644 C627 1.574 . S
C644 H638 0.949 . S
C644 C648 1.368 . S
C645 C626 1.429 1_455 S
C645 C639 1.429 . S
C645 C646 1.523 . S
C646 C627 1.368 . S
C646 C640 1.368 1_455 S
C646 C645 1.523 . S
C647 C631 1.429 . S
C647 C643 1.459 . S
C647 C648 1.523 . S
C648 C632 1.368 1_455 S
C648 C644 1.368 . S
C648 C647 1.523 . S
H649 C624 0.950 . S
H650 C626 0.950 . S
H651 C627 0.949 . S
H652 C629 0.950 . S
H653 C631 0.950 . S
C654 C655 1.349 . S
C654 C656 1.327 . S
C654 H679 0.950 . S
C655 C654 1.349 . S
C655 C671 1.349 1_565 S
C656 C654 1.327 . S
C656 C675 1.429 1_565 S
C656 H680 0.950 . S
C657 C674 1.574 . S
C657 C676 1.368 . S
C657 H681 0.949 . S
H658 C662 0.949 . S
C659 C660 1.349 . S
C659 C661 1.327 . S
C659 H682 0.950 . S
C660 C659 1.349 . S
C660 C672 1.349 . S
C661 C659 1.327 . S
C661 C677 1.429 . S
C661 H683 0.950 . S
C662 H658 0.949 . S
C662 C670 1.574 . S
C662 C678 1.368 1_565 S
H663 C671 0.950 . S
H664 C669 0.950 . S
H665 C670 0.949 . S
H666 C672 0.950 1_565 S
H667 C673 0.911 1_565 S
H668 C674 0.949 . S
C669 H664 0.950 . S
C669 C671 1.327 . S
C669 C675 1.429 . S
C670 C662 1.574 . S
C670 H665 0.949 . S
C670 C676 1.368 1_565 S
C671 C655 1.349 1_545 S
C671 H663 0.950 . S
C671 C669 1.327 . S
C672 C660 1.349 . S
C672 H666 0.950 1_545 S
C672 C673 1.334 . S
C673 H667 0.911 1_545 S
C673 C672 1.334 . S
C673 C677 1.460 . S
C674 C657 1.574 . S
C674 H668 0.949 . S
C674 C678 1.368 . S
C675 C656 1.429 1_545 S
C675 C669 1.429 . S
C675 C676 1.523 . S
C676 C657 1.368 . S
C676 C670 1.368 1_545 S
C676 C675 1.523 . S
C677 C661 1.429 . S
C677 C673 1.460 . S
C677 C678 1.523 . S
C678 C662 1.368 1_545 S
C678 C674 1.368 . S
C678 C677 1.523 . S
H679 C654 0.950 . S
H680 C656 0.950 . S
H681 C657 0.949 . S
H682 C659 0.950 . S
H683 C661 0.950 . S
C684 C685 1.349 . S
C684 C686 1.327 . S
C684 H709 0.950 . S
C685 C684 1.349 . S
C685 C701 1.349 . S
C686 C684 1.327 . S
C686 C705 1.429 . S
C686 H710 0.950 . S
C687 C704 1.574 . S
C687 C706 1.368 . S
C687 H711 0.949 . S
H688 C692 0.949 . S
C689 C690 1.349 . S
C689 C691 1.327 . S
C689 H712 0.950 1_554 S
C690 C689 1.349 . S
C690 C702 1.349 . S
C691 C689 1.327 . S
C691 C707 1.429 . S
C691 H713 0.950 . S
C692 H688 0.949 . S
C692 C700 1.574 . S
C692 C708 1.368 . S
H693 C701 0.950 . S
H694 C699 0.950 . S
H695 C700 0.949 . S
H696 C702 0.950 . S
H697 C703 0.950 . S
H698 C704 0.949 . S
C699 H694 0.950 . S
C699 C701 1.327 . S
C699 C705 1.429 . S
C700 C692 1.574 . S
C700 H695 0.949 . S
C700 C706 1.368 . S
C701 C685 1.349 . S
C701 H693 0.950 . S
C701 C699 1.327 . S
C702 C690 1.349 . S
C702 H696 0.950 . S
C702 C703 1.327 . S
C703 H697 0.950 . S
C703 C702 1.327 . S
C703 C707 1.429 . S
C704 C687 1.574 . S
C704 H698 0.949 . S
C704 C708 1.368 . S
C705 C686 1.429 . S
C705 C699 1.429 . S
C705 C706 1.523 . S
C706 C687 1.368 . S
C706 C700 1.368 . S
C706 C705 1.523 . S
C707 C691 1.429 . S
C707 C703 1.429 . S
C707 C708 1.523 . S
C708 C692 1.368 . S
C708 C704 1.368 . S
C708 C707 1.523 . S
H709 C684 0.950 . S
H710 C686 0.950 . S
H711 C687 0.949 . S
H712 C689 0.950 1_556 S
H713 C691 0.950 . S
C714 C715 1.349 . S
C714 C716 1.327 . S
C714 H739 0.950 . S
C715 C714 1.349 . S
C715 C731 1.349 . S
C716 C714 1.327 . S
C716 C735 1.429 . S
C716 H740 0.950 . S
C717 C734 1.574 . S
C717 C736 1.368 . S
C717 H741 0.949 . S
H718 C722 0.949 . S
C719 C720 1.349 . S
C719 C721 1.327 . S
C719 H742 0.950 . S
C720 C719 1.349 . S
C720 C732 1.349 . S
C721 C719 1.327 . S
C721 C737 1.429 . S
C721 H743 0.950 . S
C722 H718 0.949 . S
C722 C730 1.574 . S
C722 C738 1.368 . S
H723 C731 0.950 . S
H724 C729 0.950 . S
H725 C730 0.949 . S
H726 C732 0.950 . S
H727 C733 0.950 . S
H728 C734 0.949 . S
C729 H724 0.950 . S
C729 C731 1.327 . S
C729 C735 1.429 . S
C730 C722 1.574 . S
C730 H725 0.949 . S
C730 C736 1.368 . S
C731 C715 1.349 . S
C731 H723 0.950 . S
C731 C729 1.327 . S
C732 C720 1.349 . S
C732 H726 0.950 . S
C732 C733 1.327 . S
C733 H727 0.950 . S
C733 C732 1.327 . S
C733 C737 1.429 . S
C734 C717 1.574 . S
C734 H728 0.949 . S
C734 C738 1.368 . S
C735 C716 1.429 . S
C735 C729 1.429 . S
C735 C736 1.523 . S
C736 C717 1.368 . S
C736 C730 1.368 . S
C736 C735 1.523 . S
C737 C721 1.429 . S
C737 C733 1.429 . S
C737 C738 1.523 . S
C738 C722 1.368 . S
C738 C734 1.368 . S
C738 C737 1.523 . S
H739 C714 0.950 . S
H740 C716 0.950 . S
H741 C717 0.949 . S
H742 C719 0.950 . S
H743 C721 0.950 . S
C744 C745 1.374 . S
C744 C746 1.327 . S
C744 H769 0.950 . S
C745 C744 1.374 . S
C745 C761 1.327 1_456 S
C746 C744 1.327 . S
C746 C765 1.429 . S
C746 H770 0.950 . S
C747 C764 1.574 . S
C747 C766 1.368 1_655 S
C747 H771 0.949 . S
H748 C752 0.949 . S
C749 C750 1.349 1_655 S
C749 C751 1.327 . S
C749 H772 0.950 . S
C750 C749 1.349 1_455 S
C750 C762 1.349 . S
C751 C749 1.327 . S
C751 C767 1.429 1_655 S
C751 H773 0.950 . S
C752 H748 0.949 . S
C752 C760 1.574 . S
C752 C768 1.368 . S
H753 C761 0.950 . S
H754 C759 0.950 1_554 S
H755 C760 0.949 . S
H756 C762 0.950 . S
H757 C763 0.950 . S
H758 C764 0.949 . S
C759 H754 0.950 1_556 S
C759 C761 1.327 1_556 S
C759 C765 1.429 1_655 S
C760 C752 1.574 . S
C760 H755 0.949 . S
C760 C766 1.368 . S
C761 C745 1.327 1_654 S
C761 H753 0.950 . S
C761 C759 1.327 1_554 S
C762 C750 1.349 . S
C762 H756 0.950 . S
C762 C763 1.327 . S
C763 H757 0.950 . S
C763 C762 1.327 . S
C763 C767 1.429 . S
C764 C747 1.574 . S
C764 H758 0.949 . S
C764 C768 1.368 1_655 S
C765 C746 1.429 . S
C765 C759 1.429 1_455 S
C765 C766 1.523 . S
C766 C747 1.368 1_455 S
C766 C760 1.368 . S
C766 C765 1.523 . S
C767 C751 1.429 1_455 S
C767 C763 1.429 . S
C767 C768 1.523 . S
C768 C752 1.368 . S
C768 C764 1.368 1_455 S
C768 C767 1.523 . S
H769 C744 0.950 . S
H770 C746 0.950 . S
H771 C747 0.949 . S
H772 C749 0.950 . S
H773 C751 0.950 . S
C774 C775 1.321 1_565 S
C774 C776 1.327 . S
C774 H799 0.950 . S
C775 C774 1.321 1_545 S
C775 C791 1.380 . S
C776 C774 1.327 . S
C776 C795 1.429 1_565 S
C776 H800 0.950 . S
C777 C794 1.574 . S
C777 C796 1.368 . S
C777 H801 0.949 . S
H778 C782 0.949 . S
C779 C780 1.349 . S
C779 C781 1.327 . S
C779 H802 0.950 . S
C780 C779 1.349 . S
C780 C792 1.349 1_545 S
C781 C779 1.327 . S
C781 C797 1.429 . S
C781 H803 0.950 . S
C782 H778 0.949 . S
C782 C790 1.574 . S
C782 C798 1.368 1_565 S
H783 C791 0.950 1_554 S
H784 C789 0.950 1_554 S
H785 C790 0.949 . S
H786 C792 0.950 . S
H787 C793 0.950 . S
H788 C794 0.949 . S
C789 H784 0.950 1_556 S
C789 C791 1.327 . S
C789 C795 1.429 . S
C790 C782 1.574 . S
C790 H785 0.949 . S
C790 C796 1.368 1_565 S
C791 C775 1.380 . S
C791 H783 0.950 1_556 S
C791 C789 1.327 . S
C792 C780 1.349 1_565 S
C792 H786 0.950 . S
C792 C793 1.327 . S
C793 H787 0.950 . S
C793 C792 1.327 . S
C793 C797 1.429 1_565 S
C794 C777 1.574 . S
C794 H788 0.949 . S
C794 C798 1.368 . S
C795 C776 1.429 1_545 S
C795 C789 1.429 . S
C795 C796 1.523 . S
C796 C777 1.368 . S
C796 C790 1.368 1_545 S
C796 C795 1.523 . S
C797 C781 1.429 . S
C797 C793 1.429 1_545 S
C797 C798 1.523 . S
C798 C782 1.368 1_545 S
C798 C794 1.368 . S
C798 C797 1.523 . S
H799 C774 0.950 . S
H800 C776 0.950 . S
H801 C777 0.949 . S
H802 C779 0.950 . S
H803 C781 0.950 . S
C804 C805 1.349 . S
C804 C806 1.327 . S
C804 H829 0.950 . S
C805 C804 1.349 . S
C805 C821 1.349 1_556 S
C806 C804 1.327 . S
C806 C825 1.429 . S
C806 H830 0.950 . S
C807 C824 1.574 . S
C807 C826 1.368 . S
C807 H831 0.949 1_556 S
H808 C812 0.949 . S
C809 C810 1.349 . S
C809 C811 1.327 . S
C809 H832 0.950 . S
C810 C809 1.349 . S
C810 C822 1.349 . S
C811 C809 1.327 . S
C811 C827 1.429 . S
C811 H833 0.950 . S
C812 H808 0.949 . S
C812 C820 1.574 . S
C812 C828 1.368 . S
H813 C821 0.950 . S
H814 C819 0.950 1_554 S
H815 C820 0.949 . S
H816 C822 0.950 . S
H817 C823 0.950 . S
H818 C824 0.949 . S
C819 H814 0.950 1_556 S
C819 C821 1.327 1_556 S
C819 C825 1.429 . S
C820 C812 1.574 . S
C820 H815 0.949 . S
C820 C826 1.368 . S
C821 C805 1.349 1_554 S
C821 H813 0.950 . S
C821 C819 1.327 1_554 S
C822 C810 1.349 . S
C822 H816 0.950 . S
C822 C823 1.327 . S
C823 H817 0.950 . S
C823 C822 1.327 . S
C823 C827 1.429 . S
C824 C807 1.574 . S
C824 H818 0.949 . S
C824 C828 1.368 . S
C825 C806 1.429 . S
C825 C819 1.429 . S
C825 C826 1.523 . S
C826 C807 1.368 . S
C826 C820 1.368 . S
C826 C825 1.523 . S
C827 C811 1.429 . S
C827 C823 1.429 . S
C827 C828 1.523 . S
C828 C812 1.368 . S
C828 C824 1.368 . S
C828 C827 1.523 . S
H829 C804 0.950 . S
H830 C806 0.950 . S
H831 C807 0.949 1_554 S
H832 C809 0.950 . S
H833 C811 0.950 . S
C834 C835 1.349 . S
C834 C836 1.327 . S
C834 H859 0.950 . S
C835 C834 1.349 . S
C835 C851 1.349 1_556 S
C836 C834 1.327 . S
C836 C855 1.429 . S
C836 H860 0.950 . S
C837 C854 1.574 . S
C837 C856 1.368 . S
C837 H861 0.939 1_556 S
H838 C842 0.949 . S
C839 C840 1.349 . S
C839 C841 1.327 . S
C839 H862 0.950 . S
C840 C839 1.349 . S
C840 C852 1.349 . S
C841 C839 1.327 . S
C841 C857 1.429 . S
C841 H863 0.950 . S
C842 H838 0.949 . S
C842 C850 1.574 . S
C842 C858 1.368 . S
H843 C851 0.950 . S
H844 C849 0.950 1_554 S
H845 C850 0.949 . S
H846 C852 0.950 . S
H847 C853 0.950 . S
H848 C854 0.949 . S
C849 H844 0.950 1_556 S
C849 C851 1.327 1_556 S
C849 C855 1.429 . S
C850 C842 1.574 . S
C850 H845 0.949 . S
C850 C856 1.368 . S
C851 C835 1.349 1_554 S
C851 H843 0.950 . S
C851 C849 1.327 1_554 S
C852 C840 1.349 . S
C852 H846 0.950 . S
C852 C853 1.327 . S
C853 H847 0.950 . S
C853 C852 1.327 . S
C853 C857 1.429 . S
C854 C837 1.574 . S
C854 H848 0.949 . S
C854 C858 1.368 . S
C855 C836 1.429 . S
C855 C849 1.429 . S
C855 C856 1.523 . S
C856 C837 1.368 . S
C856 C850 1.368 . S
C856 C855 1.523 . S
C857 C841 1.429 . S
C857 C853 1.429 . S
C857 C858 1.523 . S
C858 C842 1.368 . S
C858 C854 1.368 . S
C858 C857 1.523 . S
H859 C834 0.950 . S
H860 C836 0.950 . S
H861 C837 0.939 1_554 S
H862 C839 0.950 . S
H863 C841 0.950 . S
C864 C865 1.375 . S
C864 C866 1.327 . S
C864 H889 0.950 . S
C865 C864 1.375 . S
C865 C881 1.326 1_655 S
C866 C864 1.327 . S
C866 C885 1.429 . S
C866 H890 0.950 . S
C867 C884 1.574 . S
C867 C886 1.368 1_455 S
C867 H891 0.949 . S
H868 C872 0.949 . S
C869 C870 1.349 1_455 S
C869 C871 1.327 . S
C869 H892 0.950 . S
C870 C869 1.349 1_655 S
C870 C882 1.349 . S
C871 C869 1.327 . S
C871 C887 1.429 1_455 S
C871 H893 0.950 . S
C872 H868 0.949 . S
C872 C880 1.574 . S
C872 C888 1.368 . S
H873 C881 0.950 . S
H874 C879 0.950 . S
H875 C880 0.949 . S
H876 C882 0.950 . S
H877 C883 0.950 . S
H878 C884 0.949 . S
C879 H874 0.950 . S
C879 C881 1.327 . S
C879 C885 1.429 1_455 S
C880 C872 1.574 . S
C880 H875 0.949 . S
C880 C886 1.368 . S
C881 C865 1.326 1_455 S
C881 H873 0.950 . S
C881 C879 1.327 . S
C882 C870 1.349 . S
C882 H876 0.950 . S
C882 C883 1.327 . S
C883 H877 0.950 . S
C883 C882 1.327 . S
C883 C887 1.429 . S
C884 C867 1.574 . S
C884 H878 0.949 . S
C884 C888 1.368 1_455 S
C885 C866 1.429 . S
C885 C879 1.429 1_655 S
C885 C886 1.523 . S
C886 C867 1.368 1_655 S
C886 C880 1.368 . S
C886 C885 1.523 . S
C887 C871 1.429 1_655 S
C887 C883 1.429 . S
C887 C888 1.523 . S
C888 C872 1.368 . S
C888 C884 1.368 1_655 S
C888 C887 1.523 . S
H889 C864 0.950 . S
H890 C866 0.950 . S
H891 C867 0.949 . S
H892 C869 0.950 . S
H893 C871 0.950 . S
C894 C895 1.320 1_545 S
C894 C896 1.327 . S
C894 H919 0.950 . S
C895 C894 1.320 1_565 S
C895 C911 1.380 . S
C896 C894 1.327 . S
C896 C915 1.429 1_545 S
C896 H920 0.950 . S
C897 C914 1.574 . S
C897 C916 1.368 . S
C897 H921 0.949 . S
H898 C902 0.949 . S
C899 C900 1.349 . S
C899 C901 1.327 . S
C899 H922 0.950 . S
C900 C899 1.349 . S
C900 C912 1.349 1_565 S
C901 C899 1.327 . S
C901 C917 1.429 . S
C901 H923 0.950 . S
C902 H898 0.949 . S
C902 C910 1.574 . S
C902 C918 1.368 1_545 S
H903 C911 0.950 . S
H904 C909 0.950 . S
H905 C910 0.949 . S
H906 C912 0.950 . S
H907 C913 0.950 . S
H908 C914 0.949 . S
C909 H904 0.950 . S
C909 C911 1.327 . S
C909 C915 1.429 . S
C910 C902 1.574 . S
C910 H905 0.949 . S
C910 C916 1.368 1_545 S
C911 C895 1.380 . S
C911 H903 0.950 . S
C911 C909 1.327 . S
C912 C900 1.349 1_545 S
C912 H906 0.950 . S
C912 C913 1.327 . S
C913 H907 0.950 . S
C913 C912 1.327 . S
C913 C917 1.429 1_545 S
C914 C897 1.574 . S
C914 H908 0.949 . S
C914 C918 1.368 . S
C915 C896 1.429 1_565 S
C915 C909 1.429 . S
C915 C916 1.523 . S
C916 C897 1.368 . S
C916 C910 1.368 1_565 S
C916 C915 1.523 . S
C917 C901 1.429 . S
C917 C913 1.429 1_565 S
C917 C918 1.523 . S
C918 C902 1.368 1_565 S
C918 C914 1.368 . S
C918 C917 1.523 . S
H919 C894 0.950 . S
H920 C896 0.950 . S
H921 C897 0.949 . S
H922 C899 0.950 . S
H923 C901 0.950 . S
C924 C925 1.349 . S
C924 C926 1.327 . S
C924 H949 0.950 . S
C925 C924 1.349 . S
C925 C941 1.349 . S
C926 C924 1.327 . S
C926 C945 1.429 . S
C926 H950 0.950 . S
C927 C944 1.574 . S
C927 C946 1.368 . S
C927 H951 0.949 . S
H928 C932 0.949 . S
C929 C930 1.349 . S
C929 C931 1.327 . S
C929 H952 0.950 . S
C930 C929 1.349 . S
C930 C942 1.349 . S
C931 C929 1.327 . S
C931 C947 1.429 . S
C931 H953 0.950 . S
C932 H928 0.949 . S
C932 C940 1.574 . S
C932 C948 1.368 . S
H933 C941 0.950 . S
H934 C939 0.950 . S
H935 C940 0.949 . S
H936 C942 0.950 . S
H937 C943 0.950 . S
H938 C944 0.949 . S
C939 H934 0.950 . S
C939 C941 1.327 . S
C939 C945 1.429 . S
C940 C932 1.574 . S
C940 H935 0.949 . S
C940 C946 1.368 . S
C941 C925 1.349 . S
C941 H933 0.950 . S
C941 C939 1.327 . S
C942 C930 1.349 . S
C942 H936 0.950 . S
C942 C943 1.327 . S
C943 H937 0.950 . S
C943 C942 1.327 . S
C943 C947 1.429 . S
C944 C927 1.574 . S
C944 H938 0.949 . S
C944 C948 1.368 . S
C945 C926 1.429 . S
C945 C939 1.429 . S
C945 C946 1.523 . S
C946 C927 1.368 . S
C946 C940 1.368 . S
C946 C945 1.523 . S
C947 C931 1.429 . S
C947 C943 1.429 . S
C947 C948 1.523 . S
C948 C932 1.368 . S
C948 C944 1.368 . S
C948 C947 1.523 . S
H949 C924 0.950 . S
H950 C926 0.950 . S
H951 C927 0.949 . S
H952 C929 0.950 . S
H953 C931 0.950 . S
C954 C955 1.349 . S
C954 C956 1.327 . S
C954 H979 0.950 . S
C955 C954 1.349 . S
C955 C971 1.349 . S
C956 C954 1.327 . S
C956 C975 1.429 . S
C956 H980 0.950 . S
C957 C974 1.574 . S
C957 C976 1.368 . S
C957 H981 0.949 . S
H958 C962 0.949 . S
C959 C960 1.349 . S
C959 C961 1.327 . S
C959 H982 0.950 . S
C960 C959 1.349 . S
C960 C972 1.349 . S
C961 C959 1.327 . S
C961 C977 1.429 . S
C961 H983 0.950 . S
C962 H958 0.949 . S
C962 C970 1.574 . S
C962 C978 1.368 . S
H963 C971 0.950 . S
H964 C969 0.950 . S
H965 C970 0.949 . S
H966 C972 0.950 . S
H967 C973 0.950 . S
H968 C974 0.949 . S
C969 H964 0.950 . S
C969 C971 1.327 . S
C969 C975 1.429 . S
C970 C962 1.574 . S
C970 H965 0.949 . S
C970 C976 1.368 . S
C971 C955 1.349 . S
C971 H963 0.950 . S
C971 C969 1.327 . S
C972 C960 1.349 . S
C972 H966 0.950 . S
C972 C973 1.327 . S
C973 H967 0.950 . S
C973 C972 1.327 . S
C973 C977 1.429 . S
C974 C957 1.574 . S
C974 H968 0.949 . S
C974 C978 1.368 . S
C975 C956 1.429 . S
C975 C969 1.429 . S
C975 C976 1.523 . S
C976 C957 1.368 . S
C976 C970 1.368 . S
C976 C975 1.523 . S
C977 C961 1.429 . S
C977 C973 1.429 . S
C977 C978 1.523 . S
C978 C962 1.368 . S
C978 C974 1.368 . S
C978 C977 1.523 . S
H979 C954 0.950 . S
H980 C956 0.950 . S
H981 C957 0.949 . S
H982 C959 0.950 . S
H983 C961 0.950 . S
C265 N80 1.814 1_545 S
C270 C106 1.858 1_545 S
C300 C146 1.869 . S
C295 N93 1.817 . S
C330 C186 1.872 . S
C325 N54 1.824 . S
C360 C226 1.864 1_455 S
C355 N67 1.818 1_455 S
C390 C119 1.863 1_565 S
C385 N28 1.819 1_545 S
C415 N41 1.819 . S
C420 C159 1.871 . S
C445 N2 1.823 . S
C450 C199 1.871 . S
C475 N15 1.818 . S
C480 C239 1.865 1_655 S
C510 C130 0.249 . S
C505 N70 0.240 1_455 S
C540 C170 0.256 . S
C535 N83 0.254 1_545 S
C570 C210 0.263 . S
C565 N96 0.259 . S
C595 N57 0.251 . S
C600 C250 0.250 . S
C625 N18 0.242 . S
C630 C113 0.250 . S
C660 C153 0.257 . S
C655 N31 0.247 . S
C690 C193 0.263 . S
C685 N44 0.253 . S
C715 N5 0.244 . S
C720 C233 0.261 . S
C745 N66 2.006 1_456 S
C750 C107 2.083 . S
C775 N79 1.991 1_546 S
C780 C147 2.074 . S
C810 C187 2.065 . S
C805 N92 1.985 1_556 S
C840 C227 2.080 . S
C835 N53 1.994 1_556 S
C865 N14 2.006 . S
C870 C126 2.096 . S
C900 C166 2.074 . S
C895 N27 1.991 . S
C930 C206 2.065 . S
C925 N40 1.980 . S
C955 N1 1.995 . S
C960 C246 2.087 . S
