# Generated by pormake.
# Topology ctn, (3,4)-cn, num edge types: 1
# Building blocks:
#     Node 0, Type 0, BuildingBlock: VETTIZ_charged_linker_0, # of connection points: 3
#     Node 1, Type 0, BuildingBlock: VETTIZ_charged_linker_0, # of connection points: 3
#     Node 2, Type 0, BuildingBlock: VETTIZ_charged_linker_0, # of connection points: 3
#     Node 3, Type 0, BuildingBlock: VETTIZ_charged_linker_0, # of connection points: 3
#     Node 4, Type 0, BuildingBlock: VETTIZ_charged_linker_0, # of connection points: 3
#     Node 5, Type 0, BuildingBlock: VETTIZ_charged_linker_0, # of connection points: 3
#     Node 6, Type 0, BuildingBlock: VETTIZ_charged_linker_0, # of connection points: 3
#     Node 7, Type 0, BuildingBlock: VETTIZ_charged_linker_0, # of connection points: 3
#     Node 8, Type 0, BuildingBlock: VETTIZ_charged_linker_0, # of connection points: 3
#     Node 9, Type 0, BuildingBlock: VETTIZ_charged_linker_0, # of connection points: 3
#     Node 10, Type 0, BuildingBlock: VETTIZ_charged_linker_0, # of connection points: 3
#     Node 11, Type 0, BuildingBlock: VETTIZ_charged_linker_0, # of connection points: 3
#     Node 12, Type 0, BuildingBlock: VETTIZ_charged_linker_0, # of connection points: 3
#     Node 13, Type 0, BuildingBlock: VETTIZ_charged_linker_0, # of connection points: 3
#     Node 14, Type 0, BuildingBlock: VETTIZ_charged_linker_0, # of connection points: 3
#     Node 15, Type 0, BuildingBlock: VETTIZ_charged_linker_0, # of connection points: 3
#     Node 16, Type 1, BuildingBlock: TATPOV_clean_sbu_0, # of connection points: 4
#     Node 17, Type 1, BuildingBlock: TATPOV_clean_sbu_0, # of connection points: 4
#     Node 18, Type 1, BuildingBlock: TATPOV_clean_sbu_0, # of connection points: 4
#     Node 19, Type 1, BuildingBlock: TATPOV_clean_sbu_0, # of connection points: 4
#     Node 20, Type 1, BuildingBlock: TATPOV_clean_sbu_0, # of connection points: 4
#     Node 21, Type 1, BuildingBlock: TATPOV_clean_sbu_0, # of connection points: 4
#     Node 22, Type 1, BuildingBlock: TATPOV_clean_sbu_0, # of connection points: 4
#     Node 23, Type 1, BuildingBlock: TATPOV_clean_sbu_0, # of connection points: 4
#     Node 24, Type 1, BuildingBlock: TATPOV_clean_sbu_0, # of connection points: 4
#     Node 25, Type 1, BuildingBlock: TATPOV_clean_sbu_0, # of connection points: 4
#     Node 26, Type 1, BuildingBlock: TATPOV_clean_sbu_0, # of connection points: 4
#     Node 27, Type 1, BuildingBlock: TATPOV_clean_sbu_0, # of connection points: 4
#     Edge 28, Type (0, 1), BuildingBlock: ZUJKAS_clean_linker_0, # of connection points: 2
#     Edge 29, Type (0, 1), BuildingBlock: ZUJKAS_clean_linker_0, # of connection points: 2
#     Edge 30, Type (0, 1), BuildingBlock: ZUJKAS_clean_linker_0, # of connection points: 2
#     Edge 31, Type (0, 1), BuildingBlock: ZUJKAS_clean_linker_0, # of connection points: 2
#     Edge 32, Type (0, 1), BuildingBlock: ZUJKAS_clean_linker_0, # of connection points: 2
#     Edge 33, Type (0, 1), BuildingBlock: ZUJKAS_clean_linker_0, # of connection points: 2
#     Edge 34, Type (0, 1), BuildingBlock: ZUJKAS_clean_linker_0, # of connection points: 2
#     Edge 35, Type (0, 1), BuildingBlock: ZUJKAS_clean_linker_0, # of connection points: 2
#     Edge 36, Type (0, 1), BuildingBlock: ZUJKAS_clean_linker_0, # of connection points: 2
#     Edge 37, Type (0, 1), BuildingBlock: ZUJKAS_clean_linker_0, # of connection points: 2
#     Edge 38, Type (0, 1), BuildingBlock: ZUJKAS_clean_linker_0, # of connection points: 2
#     Edge 39, Type (0, 1), BuildingBlock: ZUJKAS_clean_linker_0, # of connection points: 2
#     Edge 40, Type (0, 1), BuildingBlock: ZUJKAS_clean_linker_0, # of connection points: 2
#     Edge 41, Type (0, 1), BuildingBlock: ZUJKAS_clean_linker_0, # of connection points: 2
#     Edge 42, Type (0, 1), BuildingBlock: ZUJKAS_clean_linker_0, # of connection points: 2
#     Edge 43, Type (0, 1), BuildingBlock: ZUJKAS_clean_linker_0, # of connection points: 2
#     Edge 44, Type (0, 1), BuildingBlock: ZUJKAS_clean_linker_0, # of connection points: 2
#     Edge 45, Type (0, 1), BuildingBlock: ZUJKAS_clean_linker_0, # of connection points: 2
#     Edge 46, Type (0, 1), BuildingBlock: ZUJKAS_clean_linker_0, # of connection points: 2
#     Edge 47, Type (0, 1), BuildingBlock: ZUJKAS_clean_linker_0, # of connection points: 2
#     Edge 48, Type (0, 1), BuildingBlock: ZUJKAS_clean_linker_0, # of connection points: 2
#     Edge 49, Type (0, 1), BuildingBlock: ZUJKAS_clean_linker_0, # of connection points: 2
#     Edge 50, Type (0, 1), BuildingBlock: ZUJKAS_clean_linker_0, # of connection points: 2
#     Edge 51, Type (0, 1), BuildingBlock: ZUJKAS_clean_linker_0, # of connection points: 2
#     Edge 52, Type (0, 1), BuildingBlock: ZUJKAS_clean_linker_0, # of connection points: 2
#     Edge 53, Type (0, 1), BuildingBlock: ZUJKAS_clean_linker_0, # of connection points: 2
#     Edge 54, Type (0, 1), BuildingBlock: ZUJKAS_clean_linker_0, # of connection points: 2
#     Edge 55, Type (0, 1), BuildingBlock: ZUJKAS_clean_linker_0, # of connection points: 2
#     Edge 56, Type (0, 1), BuildingBlock: ZUJKAS_clean_linker_0, # of connection points: 2
#     Edge 57, Type (0, 1), BuildingBlock: ZUJKAS_clean_linker_0, # of connection points: 2
#     Edge 58, Type (0, 1), BuildingBlock: ZUJKAS_clean_linker_0, # of connection points: 2
#     Edge 59, Type (0, 1), BuildingBlock: ZUJKAS_clean_linker_0, # of connection points: 2
#     Edge 60, Type (0, 1), BuildingBlock: ZUJKAS_clean_linker_0, # of connection points: 2
#     Edge 61, Type (0, 1), BuildingBlock: ZUJKAS_clean_linker_0, # of connection points: 2
#     Edge 62, Type (0, 1), BuildingBlock: ZUJKAS_clean_linker_0, # of connection points: 2
#     Edge 63, Type (0, 1), BuildingBlock: ZUJKAS_clean_linker_0, # of connection points: 2
#     Edge 64, Type (0, 1), BuildingBlock: ZUJKAS_clean_linker_0, # of connection points: 2
#     Edge 65, Type (0, 1), BuildingBlock: ZUJKAS_clean_linker_0, # of connection points: 2
#     Edge 66, Type (0, 1), BuildingBlock: ZUJKAS_clean_linker_0, # of connection points: 2
#     Edge 67, Type (0, 1), BuildingBlock: ZUJKAS_clean_linker_0, # of connection points: 2
#     Edge 68, Type (0, 1), BuildingBlock: ZUJKAS_clean_linker_0, # of connection points: 2
#     Edge 69, Type (0, 1), BuildingBlock: ZUJKAS_clean_linker_0, # of connection points: 2
#     Edge 70, Type (0, 1), BuildingBlock: ZUJKAS_clean_linker_0, # of connection points: 2
#     Edge 71, Type (0, 1), BuildingBlock: ZUJKAS_clean_linker_0, # of connection points: 2
#     Edge 72, Type (0, 1), BuildingBlock: ZUJKAS_clean_linker_0, # of connection points: 2
#     Edge 73, Type (0, 1), BuildingBlock: ZUJKAS_clean_linker_0, # of connection points: 2
#     Edge 74, Type (0, 1), BuildingBlock: ZUJKAS_clean_linker_0, # of connection points: 2
#     Edge 75, Type (0, 1), BuildingBlock: ZUJKAS_clean_linker_0, # of connection points: 2
# Relax obj value: 0.003
# Max RMSD: 0.049
# Mean RMSD: 0.021
data_MOF--net-ctn--node1-TATPOV_clean_sbu_0--node2-VETTIZ_charged_linker_0--edge1-ZUJKAS_clean_linker_0
_symmetry_space_group_name_H-M    P1
_symmetry_Int_Tables_number       1
_symmetry_cell_setting            triclinic
loop_
_symmetry_equiv_pos_as_xyz
'x, y, z'
_cell_length_a     83.507179
_cell_length_b     83.519386
_cell_length_c     83.502904
_cell_angle_alpha  90.908835
_cell_angle_beta   90.918252
_cell_angle_gamma 90.898653
loop_
_atom_site_label
_atom_site_type_symbol
_atom_site_fract_x
_atom_site_fract_y
_atom_site_fract_z
_atom_type_partial_charge
C0 C 0.03397 0.07375 0.99841 0.0
C1 C 0.02136 0.08473 0.99912 0.0
C2 C 0.01025 0.08345 0.01161 0.0
C3 C 0.02434 0.06068 0.0223 0.0
C4 C 0.0352 0.06189 0.01005 0.0
C5 C 0.04782 0.04925 0.01093 0.0
H6 H 0.07907 0.98525 0.04846 0.0
C7 C 0.02904 0.04707 0.03241 0.0
C8 C 0.0428 0.04032 0.02579 0.0
H9 H 0.09566 0.00799 0.00546 0.0
H10 H 0.0745 0.02719 0.00724 0.0
H11 H 0.07209 0.01741 0.06788 0.0
H12 H 0.04143 0.98632 0.03897 0.0
H13 H 0.03077 0.9917 0.05615 0.0
H14 H 0.04909 0.98074 0.05826 0.0
H15 H 0.0652 0.99829 0.07476 0.0
H16 H 0.05362 0.01616 0.07758 0.0
C17 C 0.06433 0.05775 0.01331 0.0
C18 C 0.0463 0.03857 0.99561 0.0
C19 C 0.99621 0.03278 0.08122 0.0
C20 C 0.99773 0.0209 0.09292 0.0
C21 C 0.01069 0.0103 0.09198 0.0
C22 C 0.0218 0.01138 0.07963 0.0
C23 C 0.02005 0.02322 0.06799 0.0
C24 C 0.00747 0.03372 0.06895 0.0
C25 C 0.00764 0.04565 0.05561 0.0
C26 C 0.02234 0.04052 0.04648 0.0
C27 C 0.02953 0.02734 0.05377 0.0
C28 C 0.00983 0.06262 0.06318 0.0
C29 C 0.99205 0.04323 0.04549 0.0
C30 C 0.07808 0.99427 0.03935 0.0
C31 C 0.08913 0.99505 0.02681 0.0
C32 C 0.08749 0.0072 0.01537 0.0
C33 C 0.0751 0.0183 0.01636 0.0
C34 C 0.06414 0.01732 0.02892 0.0
C35 C 0.06576 0.00546 0.04015 0.0
C36 C 0.053 0.00624 0.05266 0.0
C37 C 0.04342 0.02046 0.04703 0.0
C38 C 0.05001 0.02692 0.03313 0.0
C39 C 0.06129 0.00958 0.06915 0.0
C40 C 0.04304 0.99043 0.05164 0.0
H41 H 0.00285 0.07125 0.03236 0.0
H42 H 0.0426 0.07423 0.98888 0.0
H43 H 0.03356 0.03719 0.99165 0.0
H44 H 0.05038 0.02622 0.99748 0.0
H45 H 0.05303 0.04388 0.98558 0.0
H46 H 0.06335 0.06848 0.02128 0.0
H47 H 0.06914 0.0618 0.0017 0.0
H48 H 0.07329 0.05019 0.01927 0.0
H49 H 0.98636 0.04105 0.08144 0.0
H50 H 0.01239 0.00123 0.10095 0.0
H51 H 0.03136 0.00295 0.07964 0.0
H52 H 0.01794 0.06237 0.07387 0.0
H53 H 0.99819 0.06747 0.06709 0.0
H54 H 0.01556 0.07121 0.05506 0.0
H55 H 0.98865 0.03031 0.04453 0.0
H56 H 0.9933 0.04712 0.03299 0.0
H57 H 0.98191 0.04962 0.051 0.0
H58 H 0.00054 0.09184 0.01258 0.0
C59 C 0.01167 0.07153 0.02317 0.0
C60 C 0.24175 0.67169 0.23641 0.0
C61 C 0.22699 0.6702 0.22812 0.0
C62 C 0.22288 0.6819 0.21683 0.0
C63 C 0.24816 0.6959 0.22196 0.0
C64 C 0.25209 0.68454 0.23314 0.0
C65 C 0.26832 0.68767 0.24072 0.0
H66 H 0.33609 0.73302 0.24637 0.0
C67 C 0.26169 0.70748 0.22118 0.0
C68 C 0.27353 0.70272 0.23215 0.0
H69 H 0.32382 0.69062 0.27289 0.0
H70 H 0.29847 0.68848 0.25879 0.0
H71 H 0.30073 0.74928 0.24817 0.0
H72 H 0.32339 0.71975 0.21265 0.0
H73 H 0.31221 0.73403 0.20233 0.0
H74 H 0.32853 0.74056 0.21541 0.0
H75 H 0.31721 0.75621 0.23644 0.0
H76 H 0.29682 0.75743 0.22923 0.0
C77 C 0.26603 0.69079 0.25888 0.0
C78 C 0.27912 0.67328 0.23666 0.0
C79 C 0.25945 0.75297 0.18157 0.0
C80 C 0.27054 0.76496 0.17723 0.0
C81 C 0.28532 0.76614 0.18566 0.0
C82 C 0.28907 0.75548 0.19793 0.0
C83 C 0.27801 0.74336 0.20182 0.0
C84 C 0.26346 0.74231 0.19371 0.0
C85 C 0.25338 0.72837 0.19906 0.0
C86 C 0.26427 0.72121 0.21168 0.0
C87 C 0.27867 0.73007 0.2133 0.0
C88 C 0.23786 0.73502 0.2064 0.0
C89 C 0.25057 0.71685 0.18449 0.0
C90 C 0.32787 0.72336 0.24923 0.0
C91 C 0.33198 0.71197 0.26078 0.0
C92 C 0.32104 0.69943 0.26393 0.0
C93 C 0.30626 0.69827 0.25578 0.0
C94 C 0.30233 0.70972 0.24427 0.0
C95 C 0.31306 0.72199 0.24114 0.0
C96 C 0.30691 0.73293 0.22834 0.0
C97 C 0.29063 0.7253 0.22448 0.0
C98 C 0.28805 0.71172 0.23385 0.0
C99 C 0.30539 0.74992 0.23578 0.0
C100 C 0.31833 0.73194 0.21392 0.0
H101 H 0.22957 0.70315 0.20493 0.0
H102 H 0.24521 0.66307 0.24533 0.0
H103 H 0.2763 0.6684 0.22444 0.0
H104 H 0.29197 0.67655 0.23639 0.0
H105 H 0.27735 0.66341 0.24525 0.0
H106 H 0.2547 0.69725 0.2611 0.0
H107 H 0.26545 0.67938 0.26551 0.0
H108 H 0.27551 0.69859 0.26431 0.0
H109 H 0.24791 0.75177 0.17555 0.0
H110 H 0.29425 0.77502 0.18248 0.0
H111 H 0.30057 0.75692 0.20373 0.0
H112 H 0.24041 0.74636 0.21321 0.0
H113 H 0.22883 0.73762 0.19692 0.0
H114 H 0.23244 0.7269 0.21517 0.0
H115 H 0.26118 0.71677 0.1766 0.0
H116 H 0.24889 0.70424 0.18795 0.0
H117 H 0.2401 0.72053 0.17714 0.0
H118 H 0.21168 0.68097 0.21014 0.0
C119 C 0.23335 0.69472 0.21373 0.0
C120 C 0.97136 0.39659 0.0173 0.0
C121 C 0.95884 0.39059 0.00734 0.0
C122 C 0.9444 0.39913 0.00649 0.0
C123 C 0.95533 0.41941 0.02487 0.0
C124 C 0.96934 0.41089 0.02593 0.0
C125 C 0.98155 0.41883 0.03696 0.0
H126 H 0.00201 0.47969 0.08793 0.0
C127 C 0.95733 0.43399 0.03505 0.0
C128 C 0.97265 0.43365 0.0422 0.0
H129 H 0.02974 0.43819 0.07533 0.0
H130 H 0.00875 0.42897 0.05713 0.0
H131 H 0.96893 0.46155 0.09082 0.0
H132 H 0.98987 0.48683 0.05166 0.0
H133 H 0.96941 0.49128 0.05143 0.0
H134 H 0.98166 0.49703 0.06864 0.0
H135 H 0.97078 0.48299 0.09058 0.0
H136 H 0.95361 0.47261 0.08181 0.0
C137 C 0.98479 0.40744 0.0511 0.0
C138 C 0.99653 0.42309 0.02705 0.0
C139 C 0.91329 0.47532 0.03704 0.0
C140 C 0.9121 0.49031 0.04487 0.0
C141 C 0.92473 0.49563 0.05512 0.0
C142 C 0.93841 0.48638 0.05731 0.0
C143 C 0.93955 0.47161 0.04915 0.0
C144 C 0.92707 0.46624 0.03931 0.0
C145 C 0.93048 0.45031 0.03149 0.0
C146 C 0.94715 0.44713 0.03811 0.0
C147 C 0.95237 0.45965 0.04844 0.0
C148 C 0.91798 0.43791 0.03736 0.0
C149 C 0.93044 0.45256 0.01311 0.0
C150 C 0.00367 0.46876 0.08104 0.0
C151 C 0.01753 0.45963 0.0831 0.0
C152 C 0.01909 0.44533 0.07409 0.0
C153 C 0.00689 0.44 0.06352 0.0
C154 C 0.9929 0.44903 0.06194 0.0
C155 C 0.99154 0.46322 0.07049 0.0
C156 C 0.97578 0.47116 0.06739 0.0
C157 C 0.9678 0.45923 0.05578 0.0
C158 C 0.97789 0.44633 0.05262 0.0
C159 C 0.96674 0.4723 0.08344 0.0
C160 C 0.97922 0.48749 0.05947 0.0
H161 H 0.93135 0.41943 0.01397 0.0
H162 H 0.98269 0.39051 0.01812 0.0
H163 H 0.993 0.42688 0.01479 0.0
H164 H 0.00354 0.43331 0.03216 0.0
H165 H 0.00448 0.41262 0.02579 0.0
H166 H 0.97379 0.4005 0.05412 0.0
H167 H 0.99422 0.39871 0.04811 0.0
H168 H 0.9882 0.41388 0.06233 0.0
H169 H 0.90373 0.47076 0.02924 0.0
H170 H 0.92425 0.50719 0.06114 0.0
H171 H 0.94765 0.4912 0.06513 0.0
H172 H 0.91479 0.4404 0.05003 0.0
H173 H 0.90678 0.43824 0.03003 0.0
H174 H 0.92252 0.42556 0.03732 0.0
H175 H 0.93609 0.46425 0.01004 0.0
H176 H 0.93747 0.44348 0.00671 0.0
H177 H 0.91802 0.45238 0.00812 0.0
H178 H 0.93447 0.39469 0.99909 0.0
C179 C 0.94258 0.41347 0.01519 0.0
C180 C 0.68614 0.77265 0.25226 0.0
C181 C 0.67633 0.7588 0.2517 0.0
C182 C 0.67837 0.74747 0.23922 0.0
C183 C 0.69944 0.76395 0.22804 0.0
C184 C 0.69751 0.77501 0.24033 0.0
C185 C 0.70851 0.78934 0.23882 0.0
H186 H 0.76632 0.82814 0.19776 0.0
C187 C 0.712 0.77015 0.21739 0.0
C188 C 0.71734 0.78506 0.22362 0.0
H189 H 0.74365 0.84347 0.2415 0.0
H190 H 0.72723 0.81944 0.24109 0.0
H191 H 0.73451 0.81521 0.18006 0.0
H192 H 0.77064 0.79175 0.20801 0.0
H193 H 0.76562 0.77883 0.19186 0.0
H194 H 0.77406 0.79839 0.188 0.0
H195 H 0.75408 0.81125 0.17252 0.0
H196 H 0.73792 0.79671 0.17055 0.0
C197 C 0.69808 0.80438 0.23672 0.0
C198 C 0.71986 0.79004 0.25368 0.0
C199 C 0.72811 0.73759 0.16836 0.0
C200 C 0.73934 0.7403 0.15626 0.0
C201 C 0.74849 0.75464 0.15673 0.0
C202 C 0.74657 0.76602 0.16901 0.0
C203 C 0.73537 0.76311 0.18103 0.0
C204 C 0.72634 0.74911 0.18057 0.0
C205 C 0.71495 0.74814 0.19433 0.0
C206 C 0.71871 0.76384 0.20314 0.0
C207 C 0.73067 0.77254 0.19528 0.0
C208 C 0.69763 0.74758 0.18736 0.0
C209 C 0.71946 0.73347 0.20449 0.0
C210 C 0.7579 0.82628 0.20732 0.0
C211 C 0.7563 0.83777 0.21967 0.0
C212 C 0.745 0.83494 0.23173 0.0
C213 C 0.73554 0.82091 0.23153 0.0
C214 C 0.73734 0.80953 0.21914 0.0
C215 C 0.74837 0.81234 0.20731 0.0
C216 C 0.7487 0.79895 0.19508 0.0
C217 C 0.73606 0.78762 0.20153 0.0
C218 C 0.72944 0.79385 0.21562 0.0
C219 C 0.74367 0.80578 0.17862 0.0
C220 C 0.76562 0.79158 0.19558 0.0
H221 H 0.69081 0.74089 0.21827 0.0
H222 H 0.68471 0.78169 0.26156 0.0
H223 H 0.72332 0.77778 0.25728 0.0
H224 H 0.7313 0.79635 0.25143 0.0
H225 H 0.71399 0.79582 0.26407 0.0
H226 H 0.68707 0.80145 0.2295 0.0
H227 H 0.69426 0.80923 0.24849 0.0
H228 H 0.70416 0.81398 0.23009 0.0
H229 H 0.72097 0.72665 0.16846 0.0
H230 H 0.75702 0.75719 0.14744 0.0
H231 H 0.75389 0.77668 0.16863 0.0
H232 H 0.69668 0.75483 0.17633 0.0
H233 H 0.69383 0.73512 0.18414 0.0
H234 H 0.68881 0.75281 0.19557 0.0
H235 H 0.73269 0.73211 0.20515 0.0
H236 H 0.71572 0.73458 0.21707 0.0
H237 H 0.71425 0.72224 0.19918 0.0
H238 H 0.67106 0.73664 0.2386 0.0
C239 C 0.68988 0.74995 0.22745 0.0
C240 C 0.04019 0.91584 0.48815 0.0
C241 C 0.02724 0.90515 0.48536 0.0
C242 C 0.01795 0.90658 0.4712 0.0
C243 C 0.03458 0.92896 0.46298 0.0
C244 C 0.04362 0.92756 0.47688 0.0
C245 C 0.05701 0.93977 0.47809 0.0
H246 H 0.09799 0.00108 0.44534 0.0
C247 C 0.04155 0.94219 0.45367 0.0
C248 C 0.05474 0.9485 0.46245 0.0
H249 H 0.10514 0.98039 0.49206 0.0
H250 H 0.08355 0.96153 0.48664 0.0
H251 H 0.05917 0.00165 0.44784 0.0
H252 H 0.09211 0.96923 0.42587 0.0
H253 H 0.0752 0.9696 0.41313 0.0
H254 H 0.08682 0.98777 0.41675 0.0
H255 H 0.07074 0.00662 0.43063 0.0
H256 H 0.05157 0.99659 0.42865 0.0
C257 C 0.05403 0.95078 0.49285 0.0
C258 C 0.07308 0.93077 0.4787 0.0
C259 C 0.01561 0.95877 0.40102 0.0
C260 C 0.01976 0.97035 0.38963 0.0
C261 C 0.03435 0.97895 0.39171 0.0
C262 C 0.04419 0.97666 0.40518 0.0
C263 C 0.03952 0.96559 0.41675 0.0
C264 C 0.02569 0.95652 0.41436 0.0
C265 C 0.02315 0.9447 0.42756 0.0
C266 C 0.03736 0.9487 0.43857 0.0
C267 C 0.04678 0.96108 0.43224 0.0
C268 C 0.00703 0.94838 0.43563 0.0
C269 C 0.02413 0.92757 0.42024 0.0
C270 C 0.09482 0.99263 0.45451 0.0
C271 C 0.10336 0.9923 0.46917 0.0
C272 C 0.09896 0.98082 0.48058 0.0
C273 C 0.08631 0.96994 0.47746 0.0
C274 C 0.07784 0.97055 0.4628 0.0
C275 C 0.08211 0.98181 0.45167 0.0
C276 C 0.07146 0.98109 0.43698 0.0
C277 C 0.06007 0.96749 0.44114 0.0
C278 C 0.06394 0.96132 0.45622 0.0
C279 C 0.06279 0.99731 0.43578 0.0
C280 C 0.08184 0.97682 0.42234 0.0
H281 H 0.014 0.91894 0.44952 0.0
H282 H 0.04769 0.91498 0.4988 0.0
H283 H 0.07274 0.92031 0.47026 0.0
H284 H 0.08338 0.93818 0.47497 0.0
H285 H 0.07557 0.92621 0.4909 0.0
H286 H 0.04102 0.95172 0.4953 0.0
H287 H 0.05993 0.9461 0.5038 0.0
H288 H 0.05809 0.96327 0.49106 0.0
H289 H 0.00455 0.95189 0.39989 0.0
H290 H 0.03816 0.98757 0.38294 0.0
H291 H 0.05499 0.98375 0.40612 0.0
H292 H 0.00559 0.96153 0.43721 0.0
H293 H 0.99676 0.94375 0.42821 0.0
H294 H 0.00613 0.94342 0.44775 0.0
H295 H 0.03241 0.92726 0.40994 0.0
H296 H 0.02908 0.91886 0.42875 0.0
H297 H 0.0122 0.92321 0.41582 0.0
H298 H 0.00778 0.89864 0.46884 0.0
C299 C 0.02155 0.91841 0.46001 0.0
C300 C 0.25543 0.68518 0.77091 0.0
C301 C 0.25542 0.67554 0.75692 0.0
C302 C 0.24393 0.67835 0.74476 0.0
C303 C 0.23241 0.69957 0.76084 0.0
C304 C 0.2439 0.69706 0.77259 0.0
C305 C 0.24212 0.70818 0.78679 0.0
H306 H 0.2012 0.76715 0.82388 0.0
C307 C 0.22188 0.71247 0.76653 0.0
C308 C 0.22756 0.71762 0.78171 0.0
H309 H 0.24366 0.74325 0.84081 0.0
H310 H 0.24401 0.72721 0.81657 0.0
H311 H 0.18328 0.73506 0.80969 0.0
H312 H 0.21257 0.77151 0.78833 0.0
H313 H 0.1973 0.76653 0.77435 0.0
H314 H 0.19214 0.77491 0.79362 0.0
H315 H 0.17647 0.75506 0.80655 0.0
H316 H 0.17433 0.73972 0.7912 0.0
C317 C 0.23879 0.69788 0.80168 0.0
C318 C 0.2574 0.71891 0.78825 0.0
C319 C 0.17367 0.72848 0.73274 0.0
C320 C 0.16156 0.73979 0.73504 0.0
C321 C 0.16206 0.74949 0.74903 0.0
C322 C 0.17423 0.74783 0.76059 0.0
C323 C 0.1861 0.73634 0.75822 0.0
C324 C 0.18577 0.72698 0.74442 0.0
C325 C 0.19945 0.71548 0.7439 0.0
C326 C 0.20798 0.71942 0.75971 0.0
C327 C 0.20006 0.7316 0.76806 0.0
C328 C 0.19235 0.69822 0.7435 0.0
C329 C 0.20993 0.71964 0.72934 0.0
C330 C 0.21048 0.75835 0.82243 0.0
C331 C 0.22242 0.75649 0.8343 0.0
C332 C 0.23443 0.74507 0.83179 0.0
C333 C 0.23457 0.7357 0.81772 0.0
C334 C 0.22258 0.73771 0.80596 0.0
C335 C 0.21082 0.74891 0.80842 0.0
C336 C 0.19914 0.74953 0.79455 0.0
C337 C 0.20583 0.73687 0.78337 0.0
C338 C 0.21952 0.72994 0.79014 0.0
C339 C 0.18236 0.74472 0.80071 0.0
C340 C 0.20016 0.76649 0.78731 0.0
H341 H 0.22393 0.69167 0.73704 0.0
H342 H 0.26422 0.68348 0.78039 0.0
H343 H 0.26225 0.72159 0.77623 0.0
H344 H 0.25512 0.73077 0.79372 0.0
H345 H 0.26697 0.71294 0.79524 0.0
H346 H 0.23085 0.68746 0.79846 0.0
H347 H 0.25008 0.69315 0.80683 0.0
H348 H 0.23239 0.70441 0.81115 0.0
H349 H 0.1736 0.72073 0.72221 0.0
H350 H 0.15309 0.7585 0.751 0.0
H351 H 0.17389 0.75556 0.77096 0.0
H352 H 0.18175 0.69733 0.75137 0.0
H353 H 0.1884 0.69464 0.73117 0.0
H354 H 0.20075 0.68925 0.74807 0.0
H355 H 0.21001 0.73275 0.72715 0.0
H356 H 0.22267 0.71668 0.73121 0.0
H357 H 0.20535 0.71351 0.71826 0.0
H358 H 0.24354 0.67102 0.73395 0.0
C359 C 0.23246 0.69029 0.74664 0.0
C360 C 0.90577 0.52001 0.47621 0.0
C361 C 0.89778 0.51137 0.46381 0.0
C362 C 0.90488 0.51052 0.4486 0.0
C363 C 0.92761 0.52645 0.45844 0.0
C364 C 0.92055 0.52742 0.47327 0.0
C365 C 0.93052 0.53704 0.48521 0.0
H366 H 0.99534 0.58445 0.50104 0.0
C367 C 0.94305 0.53535 0.45948 0.0
C368 C 0.94479 0.54159 0.47514 0.0
H369 H 0.95706 0.57172 0.5329 0.0
H370 H 0.94536 0.55409 0.5126 0.0
H371 H 0.9738 0.58863 0.46992 0.0
H372 H 0.00043 0.54874 0.48745 0.0
H373 H 0.00178 0.5478 0.46652 0.0
H374 H 0.00997 0.56502 0.47737 0.0
H375 H 0.99529 0.5881 0.4703 0.0
H376 H 0.98375 0.58007 0.45355 0.0
C377 C 0.92077 0.55185 0.49032 0.0
C378 C 0.9353 0.52595 0.49916 0.0
C379 C 0.97949 0.53758 0.41125 0.0
C380 C 0.9947 0.54458 0.40891 0.0
C381 C 0.00197 0.55364 0.42151 0.0
C382 C 0.99437 0.55552 0.43622 0.0
C383 C 0.97931 0.54825 0.43846 0.0
C384 C 0.97207 0.53952 0.42608 0.0
C385 C 0.95614 0.53249 0.43077 0.0
C386 C 0.95519 0.53821 0.44808 0.0
C387 C 0.96878 0.54748 0.45246 0.0
C388 C 0.94296 0.53992 0.42008 0.0
C389 C 0.95709 0.51401 0.42938 0.0
C390 C 0.98448 0.57778 0.50364 0.0
C391 C 0.97704 0.57955 0.51852 0.0
C392 C 0.96307 0.57048 0.52156 0.0
C393 C 0.9562 0.56039 0.50968 0.0
C394 C 0.96335 0.55935 0.49459 0.0
C395 C 0.97747 0.56765 0.49191 0.0
C396 C 0.98354 0.56487 0.47526 0.0
C397 C 0.97042 0.55399 0.46821 0.0
C398 C 0.95859 0.55088 0.47954 0.0
C399 C 0.98428 0.58122 0.46673 0.0
C400 C 0.99982 0.55627 0.47658 0.0
H401 H 0.9245 0.51687 0.43405 0.0
H402 H 0.90082 0.52073 0.4881 0.0
H403 H 0.93699 0.51345 0.49477 0.0
H404 H 0.9469 0.52942 0.50486 0.0
H405 H 0.92592 0.52565 0.50843 0.0
H406 H 0.91386 0.55658 0.47997 0.0
H407 H 0.91208 0.54875 0.49976 0.0
H408 H 0.92835 0.56203 0.49461 0.0
H409 H 0.97348 0.53066 0.40179 0.0
H410 H 0.01378 0.55896 0.42016 0.0
H411 H 0.00061 0.56245 0.44534 0.0
H412 H 0.94595 0.55263 0.41742 0.0
H413 H 0.94162 0.53333 0.40847 0.0
H414 H 0.93121 0.54035 0.42594 0.0
H415 H 0.96904 0.50985 0.43349 0.0
H416 H 0.94841 0.50775 0.43701 0.0
H417 H 0.95523 0.50984 0.41678 0.0
H418 H 0.89892 0.5041 0.43877 0.0
C419 C 0.91972 0.518 0.44586 0.0
C420 C 0.80809 0.77138 0.85378 0.0
C421 C 0.79542 0.77276 0.86459 0.0
C422 C 0.78508 0.78589 0.86333 0.0
C423 C 0.79978 0.79559 0.84052 0.0
C424 C 0.81 0.78283 0.84189 0.0
C425 C 0.82262 0.78281 0.82926 0.0
H426 H 0.85364 0.81583 0.76294 0.0
C427 C 0.80495 0.80514 0.82671 0.0
C428 C 0.81836 0.79773 0.82011 0.0
H429 H 0.86921 0.7734 0.78737 0.0
H430 H 0.84924 0.77749 0.80754 0.0
H431 H 0.84965 0.83735 0.79388 0.0
H432 H 0.81563 0.80866 0.76633 0.0
H433 H 0.80684 0.82724 0.77051 0.0
H434 H 0.82487 0.82662 0.75902 0.0
H435 H 0.84117 0.84421 0.77539 0.0
H436 H 0.83151 0.84767 0.79432 0.0
C437 C 0.83925 0.78446 0.83769 0.0
C438 C 0.82026 0.76738 0.81885 0.0
C439 C 0.77338 0.85388 0.81018 0.0
C440 C 0.77525 0.86505 0.79787 0.0
C441 C 0.78853 0.86375 0.78772 0.0
C442 C 0.79949 0.85136 0.78955 0.0
C443 C 0.79722 0.8401 0.80166 0.0
C444 C 0.78449 0.84163 0.81189 0.0
C445 C 0.7842 0.82878 0.82432 0.0
C446 C 0.79877 0.8192 0.81972 0.0
C447 C 0.80624 0.8258 0.80635 0.0
C448 C 0.78631 0.83691 0.84105 0.0
C449 C 0.76845 0.81889 0.82201 0.0
C450 C 0.85268 0.80736 0.77259 0.0
C451 C 0.86294 0.79421 0.7735 0.0
C452 C 0.86152 0.78368 0.78645 0.0
C453 C 0.84983 0.78601 0.79808 0.0
C454 C 0.83941 0.79901 0.79677 0.0
C455 C 0.84106 0.80951 0.78427 0.0
C456 C 0.82903 0.8227 0.78482 0.0
C457 C 0.81971 0.81824 0.79959 0.0
C458 C 0.82578 0.80433 0.80648 0.0
C459 C 0.8382 0.83889 0.7871 0.0
C460 C 0.81853 0.82141 0.76936 0.0
H461 H 0.77884 0.80692 0.85095 0.0
H462 H 0.81641 0.76159 0.85453 0.0
H463 H 0.80731 0.76428 0.8173 0.0
H464 H 0.82469 0.76865 0.80655 0.0
H465 H 0.82616 0.75702 0.82451 0.0
H466 H 0.83864 0.7923 0.84856 0.0
H467 H 0.84367 0.77262 0.84152 0.0
H468 H 0.84834 0.79024 0.83014 0.0
H469 H 0.76326 0.85438 0.81812 0.0
H470 H 0.79047 0.87233 0.77834 0.0
H471 H 0.80925 0.85098 0.78137 0.0
H472 H 0.79422 0.84772 0.84047 0.0
H473 H 0.77461 0.84077 0.84581 0.0
H474 H 0.79224 0.82916 0.84987 0.0
H475 H 0.76544 0.81721 0.80905 0.0
H476 H 0.76924 0.80666 0.82672 0.0
H477 H 0.75826 0.82503 0.82771 0.0
H478 H 0.77513 0.78716 0.87139 0.0
C479 C 0.7872 0.7973 0.85137 0.0
C480 C 0.30354 0.27942 0.3619 0.0
C481 C 0.29046 0.28177 0.37204 0.0
C482 C 0.28063 0.29513 0.36957 0.0
C483 C 0.29665 0.30309 0.34697 0.0
C484 C 0.30644 0.29019 0.34959 0.0
C485 C 0.31984 0.28928 0.33781 0.0
H486 H 0.35453 0.31689 0.27097 0.0
C487 C 0.30275 0.31169 0.33292 0.0
C488 C 0.31642 0.30373 0.3276 0.0
H489 H 0.3697 0.27776 0.30073 0.0
H490 H 0.34823 0.28307 0.31887 0.0
H491 H 0.34941 0.34114 0.29975 0.0
H492 H 0.31635 0.31034 0.27331 0.0
H493 H 0.30776 0.32939 0.27526 0.0
H494 H 0.32632 0.32735 0.26483 0.0
H495 H 0.34163 0.34651 0.28046 0.0
H496 H 0.33127 0.35142 0.29869 0.0
C497 C 0.33596 0.29114 0.34719 0.0
C498 C 0.31783 0.27337 0.32814 0.0
C499 C 0.27245 0.35913 0.31115 0.0
C500 C 0.27508 0.36942 0.29822 0.0
C501 C 0.28881 0.36725 0.28884 0.0
C502 C 0.29952 0.35492 0.29207 0.0
C503 C 0.29656 0.34461 0.30486 0.0
C504 C 0.28333 0.34696 0.31429 0.0
C505 C 0.28232 0.33511 0.32763 0.0
C506 C 0.29706 0.32519 0.32456 0.0
C507 C 0.30525 0.33071 0.31111 0.0
C508 C 0.28359 0.34445 0.3438 0.0
C509 C 0.26665 0.32513 0.32522 0.0
C510 C 0.35341 0.30957 0.2815 0.0
C511 C 0.36382 0.29676 0.28427 0.0
C512 C 0.3617 0.28749 0.29807 0.0
C513 C 0.34926 0.29065 0.30867 0.0
C514 C 0.33879 0.30326 0.30552 0.0
C515 C 0.34112 0.31264 0.29227 0.0
C516 C 0.32911 0.32581 0.29108 0.0
C517 C 0.31902 0.32262 0.30569 0.0
C518 C 0.32465 0.30931 0.31399 0.0
C519 C 0.33822 0.34212 0.29244 0.0
C520 C 0.31936 0.32326 0.27528 0.0
H521 H 0.27568 0.31564 0.3558 0.0
H522 H 0.31124 0.2692 0.36324 0.0
H523 H 0.30499 0.27092 0.32514 0.0
H524 H 0.32391 0.27353 0.31651 0.0
H525 H 0.32232 0.26312 0.33513 0.0
H526 H 0.33463 0.29861 0.35822 0.0
H527 H 0.34054 0.27932 0.3509 0.0
H528 H 0.34526 0.29745 0.3403 0.0
H529 H 0.26198 0.36028 0.31853 0.0
H530 H 0.29134 0.37514 0.279 0.0
H531 H 0.30966 0.35385 0.28442 0.0
H532 H 0.29122 0.35542 0.34276 0.0
H533 H 0.27161 0.34826 0.34787 0.0
H534 H 0.28943 0.33752 0.35336 0.0
H535 H 0.26455 0.32216 0.31231 0.0
H536 H 0.26692 0.31349 0.33125 0.0
H537 H 0.25615 0.33189 0.3295 0.0
H538 H 0.2706 0.29739 0.3773 0.0
C539 C 0.28365 0.30577 0.3571 0.0
C540 C 0.47441 0.89904 0.5152 0.0
C541 C 0.46287 0.89406 0.50366 0.0
C542 C 0.44846 0.90256 0.50235 0.0
C543 C 0.45758 0.92106 0.52338 0.0
C544 C 0.47151 0.91246 0.5249 0.0
C545 C 0.4826 0.91931 0.5377 0.0
H546 H 0.49828 0.97604 0.59474 0.0
C547 C 0.45852 0.93462 0.53499 0.0
C548 C 0.47312 0.93357 0.54348 0.0
H549 H 0.5275 0.93585 0.58135 0.0
H550 H 0.50796 0.92772 0.56109 0.0
H551 H 0.46498 0.957 0.5939 0.0
H552 H 0.48902 0.98578 0.55918 0.0
H553 H 0.4686 0.99011 0.55737 0.0
H554 H 0.47907 0.9944 0.57605 0.0
H555 H 0.46637 0.97843 0.59552 0.0
H556 H 0.45024 0.96849 0.58448 0.0
C557 C 0.48459 0.90662 0.55089 0.0
C558 C 0.49843 0.92453 0.5297 0.0
C559 C 0.41483 0.97643 0.53594 0.0
C560 C 0.41294 0.99063 0.54499 0.0
C561 C 0.42427 0.99458 0.55717 0.0
C562 C 0.43744 0.98483 0.56003 0.0
C563 C 0.43941 0.97094 0.5506 0.0
C564 C 0.42811 0.96681 0.53894 0.0
C565 C 0.43223 0.95157 0.53014 0.0
C566 C 0.44804 0.94748 0.53821 0.0
C567 C 0.45217 0.95891 0.55015 0.0
C568 C 0.41899 0.93888 0.53338 0.0
C569 C 0.4343 0.9555 0.51222 0.0
C570 C 0.50042 0.96543 0.5875 0.0
C571 C 0.51442 0.95655 0.58968 0.0
C572 C 0.51688 0.94299 0.57981 0.0
C573 C 0.50546 0.93822 0.56813 0.0
C574 C 0.49142 0.94712 0.56625 0.0
C575 C 0.48915 0.96053 0.5758 0.0
C576 C 0.47364 0.96865 0.57205 0.0
C577 C 0.46683 0.95776 0.55884 0.0
C578 C 0.47727 0.94518 0.55549 0.0
C579 C 0.46321 0.96829 0.58724 0.0
C580 C 0.47764 0.98567 0.56594 0.0
H581 H 0.43465 0.92211 0.51044 0.0
H582 H 0.48549 0.89262 0.51667 0.0
H583 H 0.49604 0.92942 0.51759 0.0
H584 H 0.50483 0.93428 0.53632 0.0
H585 H 0.50658 0.91424 0.52826 0.0
H586 H 0.47326 0.89966 0.55245 0.0
H587 H 0.49408 0.89798 0.54778 0.0
H588 H 0.48731 0.91195 0.56283 0.0
H589 H 0.40623 0.97294 0.52663 0.0
H590 H 0.42323 0.00552 0.56419 0.0
H591 H 0.44573 0.98864 0.56932 0.0
H592 H 0.4141 0.94047 0.54561 0.0
H593 H 0.40886 0.9398 0.52468 0.0
H594 H 0.4235 0.92651 0.5331 0.0
H595 H 0.44077 0.96714 0.51091 0.0
H596 H 0.44154 0.94667 0.50573 0.0
H597 H 0.42249 0.95642 0.50601 0.0
H598 H 0.43943 0.89902 0.49348 0.0
C599 C 0.44576 0.91603 0.51214 0.0
C600 C 0.18451 0.26997 0.75826 0.0
C601 C 0.17473 0.25609 0.75837 0.0
C602 C 0.17694 0.24414 0.74652 0.0
C603 C 0.19808 0.26005 0.73467 0.0
C604 C 0.19603 0.27169 0.74636 0.0
C605 C 0.20725 0.28579 0.74445 0.0
H606 H 0.26596 0.32225 0.70259 0.0
C607 C 0.21087 0.26563 0.72395 0.0
C608 C 0.21632 0.2807 0.72965 0.0
H609 H 0.24287 0.33961 0.74532 0.0
H610 H 0.22658 0.31552 0.746 0.0
H611 H 0.2336 0.30826 0.68508 0.0
H612 H 0.27028 0.287 0.71412 0.0
H613 H 0.26484 0.27266 0.69938 0.0
H614 H 0.27334 0.29164 0.69348 0.0
H615 H 0.25355 0.30503 0.67817 0.0
H616 H 0.23815 0.28973 0.67614 0.0
C617 C 0.19706 0.30082 0.74145 0.0
C618 C 0.21833 0.28703 0.7595 0.0
C619 C 0.22664 0.23129 0.676 0.0
C620 C 0.23819 0.23331 0.66408 0.0
C621 C 0.24791 0.24727 0.66442 0.0
C622 C 0.24615 0.25904 0.67636 0.0
C623 C 0.23454 0.25689 0.68816 0.0
C624 C 0.22508 0.24316 0.68791 0.0
C625 C 0.21357 0.24285 0.7016 0.0
C626 C 0.21765 0.25869 0.71002 0.0
C627 C 0.22988 0.26687 0.70203 0.0
C628 C 0.19631 0.24256 0.69449 0.0
C629 C 0.2176 0.22834 0.71218 0.0
C630 C 0.25728 0.32093 0.712 0.0
C631 C 0.2557 0.33288 0.72389 0.0
C632 C 0.24445 0.33053 0.7361 0.0
C633 C 0.23493 0.31655 0.73643 0.0
C634 C 0.23665 0.30473 0.72443 0.0
C635 C 0.24772 0.30703 0.71253 0.0
C636 C 0.24811 0.29311 0.70091 0.0
C637 C 0.23538 0.28212 0.70774 0.0
C638 C 0.22867 0.28899 0.72149 0.0
C639 C 0.24322 0.29924 0.68413 0.0
C640 C 0.26501 0.2857 0.70184 0.0
H641 H 0.18952 0.23655 0.72598 0.0
H642 H 0.18329 0.27931 0.76728 0.0
H643 H 0.22121 0.27493 0.76402 0.0
H644 H 0.23008 0.29266 0.75708 0.0
H645 H 0.21252 0.29376 0.76935 0.0
H646 H 0.18638 0.29775 0.7338 0.0
H647 H 0.19272 0.306 0.75289 0.0
H648 H 0.20353 0.31021 0.73488 0.0
H649 H 0.21911 0.22062 0.67617 0.0
H650 H 0.25676 0.24922 0.65527 0.0
H651 H 0.25387 0.2694 0.67587 0.0
H652 H 0.19552 0.25021 0.68372 0.0
H653 H 0.19254 0.23021 0.6908 0.0
H654 H 0.18742 0.24747 0.70279 0.0
H655 H 0.23072 0.22619 0.71247 0.0
H656 H 0.21443 0.2302 0.72486 0.0
H657 H 0.21157 0.21723 0.70752 0.0
H658 H 0.16946 0.23342 0.74617 0.0
C659 C 0.18854 0.24603 0.73471 0.0
C660 C 0.74425 0.16836 0.73247 0.0
C661 C 0.7298 0.16652 0.72369 0.0
C662 C 0.72581 0.17811 0.71226 0.0
C663 C 0.75048 0.19283 0.71838 0.0
C664 C 0.75435 0.18151 0.72962 0.0
C665 C 0.77017 0.1851 0.73786 0.0
H666 H 0.83611 0.2327 0.74676 0.0
C667 C 0.76361 0.20493 0.71831 0.0
C668 C 0.77517 0.20045 0.72971 0.0
H669 H 0.82452 0.18924 0.77187 0.0
H670 H 0.79967 0.18657 0.75696 0.0
H671 H 0.80054 0.24759 0.74814 0.0
H672 H 0.82447 0.21983 0.71207 0.0
H673 H 0.81375 0.23481 0.70225 0.0
H674 H 0.82957 0.24044 0.71628 0.0
H675 H 0.81644 0.25575 0.7364 0.0
H676 H 0.79587 0.25585 0.72945 0.0
C677 C 0.7671 0.18784 0.75595 0.0
C678 C 0.78162 0.17116 0.73403 0.0
C679 C 0.76112 0.25123 0.67963 0.0
C680 C 0.77166 0.26405 0.67642 0.0
C681 C 0.78589 0.26582 0.68567 0.0
C682 C 0.78967 0.2549 0.69769 0.0
C683 C 0.77915 0.24198 0.70053 0.0
C684 C 0.76509 0.2404 0.69164 0.0
C685 C 0.75541 0.22588 0.6962 0.0
C686 C 0.76601 0.21897 0.70922 0.0
C687 C 0.77991 0.22843 0.7117 0.0
C688 C 0.73923 0.23164 0.70284 0.0
C689 C 0.75388 0.21456 0.68134 0.0
C690 C 0.82815 0.22269 0.74913 0.0
C691 C 0.83232 0.21115 0.76052 0.0
C692 C 0.82171 0.19818 0.76304 0.0
C693 C 0.80722 0.1967 0.75442 0.0
C694 C 0.80324 0.20828 0.74306 0.0
C695 C 0.81363 0.22101 0.74057 0.0
C696 C 0.80746 0.23206 0.72788 0.0
C697 C 0.79163 0.22391 0.72325 0.0
C698 C 0.78924 0.20999 0.73219 0.0
C699 C 0.80501 0.24876 0.73573 0.0
C700 C 0.8194 0.23196 0.71387 0.0
H701 H 0.73235 0.19957 0.70064 0.0
H702 H 0.7476 0.15982 0.74151 0.0
H703 H 0.77932 0.16626 0.72172 0.0
H704 H 0.79436 0.17493 0.73412 0.0
H705 H 0.78001 0.16118 0.74252 0.0
H706 H 0.75553 0.194 0.75779 0.0
H707 H 0.76651 0.1763 0.76236 0.0
H708 H 0.77619 0.19575 0.76187 0.0
H709 H 0.75019 0.24937 0.67263 0.0
H710 H 0.79413 0.27569 0.6836 0.0
H711 H 0.80071 0.25687 0.70423 0.0
H712 H 0.74083 0.24307 0.70974 0.0
H713 H 0.73046 0.23374 0.69298 0.0
H714 H 0.73389 0.22322 0.71139 0.0
H715 H 0.76503 0.21489 0.67423 0.0
H716 H 0.75223 0.20186 0.68449 0.0
H717 H 0.74384 0.21813 0.67334 0.0
H718 H 0.71485 0.17692 0.70519 0.0
C719 C 0.73605 0.19123 0.70956 0.0
C720 C 0.5331 0.58128 0.49762 0.0
C721 C 0.52086 0.59264 0.49878 0.0
C722 C 0.51009 0.59159 0.5116 0.0
C723 C 0.52356 0.56812 0.5215 0.0
C724 C 0.53423 0.5692 0.50907 0.0
C725 C 0.54652 0.55621 0.5096 0.0
H726 H 0.57664 0.49099 0.54607 0.0
C727 C 0.52794 0.55416 0.53125 0.0
C728 C 0.54143 0.54714 0.52437 0.0
H729 H 0.59359 0.51414 0.50342 0.0
H730 H 0.57271 0.53359 0.50547 0.0
H731 H 0.56953 0.5233 0.56612 0.0
H732 H 0.5393 0.49253 0.53634 0.0
H733 H 0.52813 0.49816 0.55309 0.0
H734 H 0.54612 0.48679 0.55589 0.0
H735 H 0.56332 0.50363 0.5721 0.0
H736 H 0.55115 0.5209 0.57584 0.0
C737 C 0.56325 0.56426 0.51193 0.0
C738 C 0.54458 0.54582 0.49413 0.0
C739 C 0.4945 0.53953 0.57943 0.0
C740 C 0.49542 0.5272 0.5907 0.0
C741 C 0.50794 0.51611 0.58949 0.0
C742 C 0.51925 0.51722 0.57729 0.0
C743 C 0.51809 0.52956 0.56609 0.0
C744 C 0.50588 0.54046 0.5673 0.0
C745 C 0.50652 0.55279 0.55438 0.0
C746 C 0.52105 0.54743 0.54513 0.0
C747 C 0.5278 0.53382 0.55204 0.0
C748 C 0.50927 0.56947 0.56246 0.0
C749 C 0.49089 0.55118 0.54417 0.0
C750 C 0.5758 0.50016 0.53709 0.0
C751 C 0.58691 0.50099 0.5246 0.0
C752 C 0.58542 0.51332 0.51332 0.0
C753 C 0.57319 0.52457 0.51446 0.0
C754 C 0.56221 0.52358 0.52701 0.0
C755 C 0.56361 0.5115 0.53804 0.0
C756 C 0.55079 0.51222 0.55048 0.0
C757 C 0.54151 0.52676 0.54514 0.0
C758 C 0.54827 0.53337 0.53138 0.0
C759 C 0.55901 0.51505 0.56707 0.0
C760 C 0.54054 0.49661 0.54906 0.0
H761 H 0.50279 0.57934 0.53233 0.0
H762 H 0.54151 0.5816 0.48789 0.0
H763 H 0.53174 0.54458 0.49047 0.0
H764 H 0.54865 0.53342 0.49566 0.0
H765 H 0.55109 0.55129 0.48404 0.0
H766 H 0.56261 0.575 0.51994 0.0
H767 H 0.56812 0.56822 0.50032 0.0
H768 H 0.57202 0.55644 0.51784 0.0
H769 H 0.4852 0.5484 0.5801 0.0
H770 H 0.50887 0.50637 0.59785 0.0
H771 H 0.52842 0.50837 0.57701 0.0
H772 H 0.51691 0.56857 0.57345 0.0
H773 H 0.49775 0.57484 0.56604 0.0
H774 H 0.5158 0.57794 0.55481 0.0
H775 H 0.48715 0.53839 0.5427 0.0
H776 H 0.49224 0.55553 0.53184 0.0
H777 H 0.48092 0.55763 0.54994 0.0
H778 H 0.50074 0.60031 0.51302 0.0
C779 C 0.51137 0.57943 0.52291 0.0
C780 C 0.54406 0.41191 0.98774 0.0
C781 C 0.53186 0.40024 0.98571 0.0
C782 C 0.52194 0.4006 0.97189 0.0
C783 C 0.53602 0.42431 0.96283 0.0
C784 C 0.5459 0.42376 0.97624 0.0
C785 C 0.55798 0.43728 0.97693 0.0
H786 H 0.58775 0.50536 0.94546 0.0
C787 C 0.5408 0.4385 0.95355 0.0
C788 C 0.55368 0.4461 0.96176 0.0
H789 H 0.60371 0.48123 0.98813 0.0
H790 H 0.58365 0.4605 0.98357 0.0
H791 H 0.54935 0.49988 0.95112 0.0
H792 H 0.58446 0.47457 0.92386 0.0
H793 H 0.56656 0.47336 0.91259 0.0
H794 H 0.57575 0.49272 0.91687 0.0
H795 H 0.55837 0.50777 0.93348 0.0
H796 H 0.54076 0.49505 0.93227 0.0
C797 C 0.55487 0.44751 0.9922 0.0
C798 C 0.57493 0.43003 0.97619 0.0
C799 C 0.50967 0.45304 0.90309 0.0
C800 C 0.51116 0.46574 0.8923 0.0
C801 C 0.52383 0.47694 0.89451 0.0
C802 C 0.53461 0.47576 0.90744 0.0
C803 C 0.53274 0.46325 0.91834 0.0
C804 C 0.52058 0.45201 0.91594 0.0
C805 C 0.52059 0.43944 0.92867 0.0
C806 C 0.53463 0.44512 0.93918 0.0
C807 C 0.5416 0.45914 0.93312 0.0
C808 C 0.50449 0.4403 0.93759 0.0
C809 C 0.52378 0.42302 0.92054 0.0
C810 C 0.58676 0.4957 0.95391 0.0
C811 C 0.59722 0.49495 0.96722 0.0
C812 C 0.59581 0.48201 0.97775 0.0
C813 C 0.58413 0.47001 0.9751 0.0
C814 C 0.57375 0.4709 0.96174 0.0
C815 C 0.57522 0.48355 0.95137 0.0
C816 C 0.56343 0.4823 0.93759 0.0
C817 C 0.55456 0.46688 0.94148 0.0
C818 C 0.5606 0.46033 0.95568 0.0
C819 C 0.5524 0.49702 0.93848 0.0
C820 C 0.57292 0.48077 0.92184 0.0
H821 H 0.51598 0.41222 0.95024 0.0
H822 H 0.55177 0.41212 0.99831 0.0
H823 H 0.57485 0.41888 0.96871 0.0
H824 H 0.58374 0.43802 0.97046 0.0
H825 H 0.57944 0.42694 0.98832 0.0
H826 H 0.54181 0.44821 0.99452 0.0
H827 H 0.56068 0.44224 0.0029 0.0
H828 H 0.55893 0.46008 0.99119 0.0
H829 H 0.50018 0.44413 0.9016 0.0
H830 H 0.52516 0.48692 0.88649 0.0
H831 H 0.54385 0.48479 0.90857 0.0
H832 H 0.50073 0.45295 0.93913 0.0
H833 H 0.49482 0.43376 0.93079 0.0
H834 H 0.50519 0.43559 0.94984 0.0
H835 H 0.53225 0.42435 0.91048 0.0
H836 H 0.52956 0.41449 0.92869 0.0
H837 H 0.51252 0.41752 0.91558 0.0
H838 H 0.51257 0.39163 0.96994 0.0
C839 C 0.52397 0.41254 0.96044 0.0
C840 C 0.75203 0.18546 0.27858 0.0
C841 C 0.75177 0.17528 0.26498 0.0
C842 C 0.74023 0.17776 0.2528 0.0
C843 C 0.7293 0.19993 0.26798 0.0
C844 C 0.74076 0.19766 0.2798 0.0
C845 C 0.73936 0.20947 0.29349 0.0
H846 H 0.7014 0.27251 0.32694 0.0
C847 C 0.71923 0.21345 0.27304 0.0
C848 C 0.72512 0.21915 0.28795 0.0
H849 H 0.74196 0.24692 0.34592 0.0
H850 H 0.74156 0.22951 0.32264 0.0
H851 H 0.68171 0.24075 0.31489 0.0
H852 H 0.71303 0.27382 0.29116 0.0
H853 H 0.69732 0.269 0.27762 0.0
H854 H 0.69294 0.27884 0.29641 0.0
H855 H 0.67593 0.26075 0.31015 0.0
H856 H 0.67312 0.24438 0.29599 0.0
C857 C 0.7357 0.20001 0.30886 0.0
C858 C 0.75497 0.21974 0.29446 0.0
C859 C 0.67175 0.22968 0.23832 0.0
C860 C 0.66029 0.24175 0.23991 0.0
C861 C 0.66131 0.25228 0.25326 0.0
C862 C 0.67339 0.25071 0.26494 0.0
C863 C 0.68464 0.23848 0.26329 0.0
C864 C 0.6838 0.22831 0.25008 0.0
C865 C 0.69696 0.21621 0.25021 0.0
C866 C 0.70568 0.22065 0.26579 0.0
C867 C 0.69835 0.23365 0.27343 0.0
C868 C 0.68913 0.19929 0.25076 0.0
C869 C 0.70758 0.21908 0.23543 0.0
C870 C 0.7101 0.26306 0.32618 0.0
C871 C 0.72176 0.26118 0.33832 0.0
C872 C 0.73299 0.24883 0.33667 0.0
C873 C 0.73269 0.23864 0.32315 0.0
C874 C 0.72102 0.24075 0.3111 0.0
C875 C 0.70994 0.25276 0.31277 0.0
C876 C 0.69836 0.25318 0.29882 0.0
C877 C 0.70435 0.23949 0.28846 0.0
C878 C 0.71763 0.23226 0.2957 0.0
C879 C 0.68133 0.24971 0.30517 0.0
C880 C 0.70033 0.26956 0.29055 0.0
H881 H 0.72047 0.19116 0.2446 0.0
H882 H 0.76086 0.18401 0.28807 0.0
H883 H 0.75957 0.22211 0.28227 0.0
H884 H 0.75324 0.23171 0.29988 0.0
H885 H 0.76451 0.21353 0.30125 0.0
H886 H 0.7278 0.18945 0.30606 0.0
H887 H 0.74688 0.19555 0.3145 0.0
H888 H 0.7291 0.20707 0.3178 0.0
H889 H 0.67143 0.22154 0.22809 0.0
H890 H 0.65255 0.26157 0.25485 0.0
H891 H 0.67342 0.25903 0.27486 0.0
H892 H 0.67866 0.19927 0.25883 0.0
H893 H 0.68482 0.19528 0.23867 0.0
H894 H 0.69722 0.19018 0.25563 0.0
H895 H 0.70801 0.23198 0.23233 0.0
H896 H 0.72023 0.21592 0.23757 0.0
H897 H 0.70288 0.21232 0.22475 0.0
H898 H 0.73964 0.16999 0.24229 0.0
C899 C 0.72902 0.19 0.25422 0.0
C900 C 0.40127 0.02192 0.96769 0.0
C901 C 0.39549 0.01137 0.95557 0.0
C902 C 0.40321 0.01106 0.94068 0.0
C903 C 0.42255 0.03105 0.95042 0.0
C904 C 0.4147 0.03161 0.96486 0.0
C905 C 0.42235 0.04339 0.97654 0.0
H906 H 0.47982 0.09935 0.99328 0.0
C907 C 0.43633 0.04238 0.95155 0.0
C908 C 0.43618 0.04971 0.9668 0.0
H909 H 0.44153 0.08326 0.02365 0.0
H910 H 0.43257 0.06428 0.00323 0.0
H911 H 0.4592 0.10027 0.96079 0.0
H912 H 0.48936 0.0644 0.9812 0.0
H913 H 0.49242 0.06364 0.96048 0.0
H914 H 0.49744 0.08176 0.97164 0.0
H915 H 0.48064 0.10221 0.96179 0.0
H916 H 0.47053 0.09217 0.94514 0.0
C917 C 0.41001 0.05656 0.98025 0.0
C918 C 0.42822 0.03406 0.99138 0.0
C919 C 0.47599 0.04586 0.90611 0.0
C920 C 0.49035 0.05465 0.90426 0.0
C921 C 0.49496 0.0661 0.91611 0.0
C922 C 0.48577 0.06835 0.92981 0.0
C923 C 0.4718 0.05904 0.93178 0.0
C924 C 0.46697 0.04821 0.91993 0.0
C925 C 0.45182 0.03933 0.92414 0.0
C926 C 0.44866 0.04629 0.94068 0.0
C927 C 0.46042 0.0578 0.94507 0.0
C928 C 0.43857 0.04372 0.91185 0.0
C929 C 0.45552 0.02123 0.92469 0.0
C930 C 0.46949 0.09174 0.9955 0.0
C931 C 0.46133 0.09282 0.01006 0.0
C932 C 0.4481 0.08254 0.01259 0.0
C933 C 0.44283 0.07163 0.00065 0.0
C934 C 0.4509 0.07092 0.98602 0.0
C935 C 0.46411 0.08074 0.98372 0.0
C936 C 0.47141 0.0781 0.96757 0.0
C937 C 0.46015 0.06537 0.9604 0.0
C938 C 0.44816 0.06125 0.97124 0.0
C939 C 0.47056 0.09398 0.95827 0.0
C940 C 0.48859 0.07175 0.97022 0.0
H941 H 0.42218 0.01991 0.92653 0.0
H942 H 0.39545 0.02262 0.97918 0.0
H943 H 0.4324 0.02194 0.98784 0.0
H944 H 0.43867 0.03983 0.99751 0.0
H945 H 0.41846 0.03247 0.00012 0.0
H946 H 0.40266 0.05924 0.96941 0.0
H947 H 0.4017 0.05274 0.98976 0.0
H948 H 0.41566 0.06815 0.98381 0.0
H949 H 0.47198 0.03713 0.89713 0.0
H950 H 0.50603 0.07292 0.91509 0.0
H951 H 0.49009 0.07705 0.9385 0.0
H952 H 0.44017 0.05625 0.90775 0.0
H953 H 0.43881 0.03573 0.9011 0.0
H954 H 0.42645 0.04334 0.91697 0.0
H955 H 0.46743 0.01929 0.93044 0.0
H956 H 0.44694 0.01434 0.93189 0.0
H957 H 0.45574 0.01588 0.91244 0.0
H958 H 0.39904 0.00297 0.93118 0.0
C959 C 0.4167 0.02083 0.93804 0.0
Zn960 Zn 0.27624 0.85535 0.00083 0.0
Zn961 Zn 0.25011 0.87289 0.00379 0.0
O962 O 0.25253 0.86225 0.02608 0.0
O963 O 0.27521 0.84933 0.0239 0.0
O964 O 0.23099 0.88728 0.00627 0.0
O965 O 0.28935 0.87453 0.99471 0.0
O966 O 0.26796 0.88921 0.99792 0.0
C967 C 0.26342 0.85358 0.03221 0.0
C968 C 0.25094 0.84554 0.97883 0.0
O969 O 0.24368 0.85733 0.98515 0.0
O970 O 0.26483 0.84198 0.98377 0.0
C971 C 0.21735 0.8824 0.0109 0.0
O972 O 0.21526 0.86718 0.01418 0.0
C973 C 0.28275 0.88806 0.99452 0.0
Zn974 Zn 0.10561 0.46919 0.26023 0.0
Zn975 Zn 0.12141 0.49729 0.25661 0.0
O976 O 0.10511 0.50252 0.2741 0.0
O977 O 0.09169 0.47984 0.27669 0.0
O978 O 0.1338 0.51792 0.2541 0.0
O979 O 0.12619 0.4588 0.26706 0.0
O980 O 0.13907 0.48149 0.26274 0.0
C981 C 0.09402 0.4944 0.28065 0.0
C982 C 0.10325 0.48162 0.22821 0.0
O983 O 0.1114 0.49328 0.23431 0.0
O984 O 0.09948 0.46974 0.2367 0.0
C985 C 0.12689 0.53113 0.2516 0.0
O986 O 0.11117 0.53138 0.25074 0.0
C987 C 0.13918 0.46682 0.26671 0.0
Zn988 Zn 0.76786 0.60283 0.96473 0.0
Zn989 Zn 0.76147 0.61778 0.99266 0.0
O990 O 0.78005 0.60297 0.99872 0.0
O991 O 0.78558 0.59098 0.97585 0.0
O992 O 0.75671 0.62945 0.01328 0.0
O993 O 0.7723 0.62414 0.95462 0.0
O994 O 0.76701 0.63621 0.9775 0.0
C995 C 0.78832 0.59306 0.99071 0.0
C996 C 0.73593 0.59649 0.9757 0.0
O997 O 0.74039 0.60572 0.98729 0.0
O998 O 0.74546 0.59341 0.96446 0.0
C999 C 0.76787 0.63685 0.02099 0.0
O1000 O 0.78249 0.63655 0.01541 0.0
C1001 C 0.77101 0.6369 0.96286 0.0
Zn1002 Zn 0.85471 0.0045 0.27881 0.0
Zn1003 Zn 0.87048 0.00873 0.2517 0.0
O1004 O 0.85759 0.02969 0.2542 0.0
O1005 O 0.84536 0.02641 0.2771 0.0
O1006 O 0.88326 0.01221 0.23158 0.0
O1007 O 0.87521 0.00129 0.29104 0.0
O1008 O 0.88837 0.00529 0.2688 0.0
C1009 C 0.84832 0.03491 0.26505 0.0
C1010 C 0.84627 0.98077 0.25479 0.0
O1011 O 0.85652 0.98845 0.24658 0.0
O1012 O 0.84322 0.98541 0.2689 0.0
C1013 C 0.89081 0.00067 0.22524 0.0
O1014 O 0.88983 0.98646 0.23172 0.0
C1015 C 0.88834 0.0023 0.28374 0.0
Zn1016 Zn 0.2711 0.10724 0.46651 0.0
Zn1017 Zn 0.26443 0.12103 0.49506 0.0
O1018 O 0.28456 0.10804 0.50026 0.0
O1019 O 0.28991 0.09652 0.47709 0.0
O1020 O 0.25928 0.13259 0.51568 0.0
O1021 O 0.27399 0.12885 0.4566 0.0
O1022 O 0.26746 0.13987 0.47965 0.0
C1023 C 0.29317 0.0988 0.49182 0.0
C1024 C 0.24019 0.09804 0.47865 0.0
O1025 O 0.24456 0.10685 0.49058 0.0
O1026 O 0.24918 0.09658 0.46665 0.0
C1027 C 0.26209 0.12725 0.5296 0.0
O1028 O 0.26871 0.11318 0.53111 0.0
C1029 C 0.27136 0.14123 0.46503 0.0
Zn1030 Zn 0.35048 0.50225 0.77391 0.0
Zn1031 Zn 0.36852 0.50513 0.74811 0.0
O1032 O 0.35656 0.5268 0.74909 0.0
O1033 O 0.34285 0.5247 0.77128 0.0
O1034 O 0.38334 0.50737 0.72929 0.0
O1035 O 0.36969 0.49796 0.78785 0.0
O1036 O 0.38466 0.5012 0.76668 0.0
C1037 C 0.34697 0.53275 0.75927 0.0
C1038 C 0.34248 0.47876 0.74946 0.0
O1039 O 0.35406 0.48543 0.74217 0.0
O1040 O 0.33842 0.48397 0.7631 0.0
C1041 C 0.3788 0.51147 0.71536 0.0
O1042 O 0.36358 0.51439 0.71269 0.0
C1043 C 0.38338 0.49837 0.78158 0.0
Zn1044 Zn 0.77558 0.36281 0.50441 0.0
Zn1045 Zn 0.74831 0.37837 0.50828 0.0
O1046 O 0.75033 0.36491 0.52901 0.0
O1047 O 0.77259 0.3517 0.52523 0.0
O1048 O 0.72832 0.39148 0.51181 0.0
O1049 O 0.78827 0.38332 0.50382 0.0
O1050 O 0.76558 0.39624 0.50553 0.0
C1051 C 0.76064 0.35484 0.5338 0.0
C1052 C 0.75253 0.35568 0.47929 0.0
O1053 O 0.74372 0.36496 0.48751 0.0
O1054 O 0.76674 0.35302 0.48392 0.0
C1055 C 0.71452 0.38819 0.50583 0.0
O1056 O 0.71251 0.37523 0.49687 0.0
C1057 C 0.78078 0.39637 0.50414 0.0
Zn1058 Zn 0.60638 0.9688 0.76712 0.0
Zn1059 Zn 0.62295 0.99581 0.76069 0.0
O1060 O 0.60742 0.00306 0.77826 0.0
O1061 O 0.59381 0.98102 0.78348 0.0
O1062 O 0.63581 0.01576 0.75612 0.0
O1063 O 0.62686 0.95812 0.77373 0.0
O1064 O 0.64032 0.98002 0.76769 0.0
C1065 C 0.59658 0.9958 0.78605 0.0
C1066 C 0.60302 0.97861 0.7343 0.0
O1067 O 0.61216 0.99015 0.73903 0.0
O1068 O 0.59887 0.96785 0.744 0.0
C1069 C 0.62915 0.02887 0.75266 0.0
O1070 O 0.61344 0.02945 0.75208 0.0
C1071 C 0.64006 0.96565 0.77261 0.0
Zn1072 Zn 0.00282 0.26934 0.85458 0.0
Zn1073 Zn 0.00541 0.24279 0.87191 0.0
O1074 O 0.0272 0.2444 0.86022 0.0
O1075 O 0.02513 0.26666 0.84662 0.0
O1076 O 0.00805 0.22362 0.88628 0.0
O1077 O 0.9991 0.28269 0.87437 0.0
O1078 O 0.00099 0.26078 0.88851 0.0
C1079 C 0.03319 0.25466 0.85074 0.0
C1080 C 0.979 0.24512 0.84606 0.0
O1081 O 0.98583 0.23729 0.85718 0.0
O1082 O 0.98415 0.25897 0.84261 0.0
C1083 C 0.00447 0.2092 0.88241 0.0
O1084 O 0.99866 0.20596 0.86798 0.0
C1085 C 0.99879 0.27583 0.88776 0.0
Zn1086 Zn 0.50386 0.77224 0.34739 0.0
Zn1087 Zn 0.50779 0.74667 0.36578 0.0
O1088 O 0.52946 0.749 0.35399 0.0
O1089 O 0.52609 0.77016 0.33901 0.0
O1090 O 0.51128 0.72753 0.37997 0.0
O1091 O 0.4999 0.7859 0.36696 0.0
O1092 O 0.50284 0.76476 0.38208 0.0
C1093 C 0.53482 0.7589 0.3438 0.0
C1094 C 0.48096 0.7471 0.34002 0.0
O1095 O 0.48829 0.74003 0.35135 0.0
O1096 O 0.48546 0.76097 0.33591 0.0
C1097 C 0.4997 0.72108 0.38735 0.0
O1098 O 0.48526 0.72687 0.38548 0.0
C1099 C 0.50001 0.77964 0.38067 0.0
Zn1100 Zn 0.96425 0.75526 0.60477 0.0
Zn1101 Zn 0.99255 0.75584 0.62072 0.0
O1102 O 0.99546 0.77375 0.60421 0.0
O1103 O 0.97231 0.77331 0.59118 0.0
O1104 O 0.01323 0.75615 0.63345 0.0
O1105 O 0.95278 0.76011 0.62531 0.0
O1106 O 0.97601 0.76037 0.63813 0.0
C1107 C 0.98627 0.77919 0.5933 0.0
C1108 C 0.9811 0.72552 0.60242 0.0
O1109 O 0.9915 0.73301 0.61113 0.0
O1110 O 0.96837 0.73241 0.5981 0.0
C1111 C 0.02665 0.75302 0.62726 0.0
O1112 O 0.02726 0.74974 0.61184 0.0
C1113 C 0.96083 0.76172 0.63823 0.0
Zn1114 Zn 0.4612 0.26467 0.11269 0.0
Zn1115 Zn 0.4895 0.26003 0.12776 0.0
O1116 O 0.49443 0.2788 0.11268 0.0
O1117 O 0.47123 0.28278 0.10061 0.0
O1118 O 0.51016 0.25664 0.14 0.0
O1119 O 0.45068 0.26901 0.13379 0.0
O1120 O 0.47376 0.26472 0.14595 0.0
C1121 C 0.4859 0.28644 0.10267 0.0
C1122 C 0.47412 0.23327 0.10695 0.0
O1123 O 0.48552 0.23853 0.116 0.0
O1124 O 0.46231 0.24209 0.10379 0.0
C1125 C 0.52401 0.25895 0.13429 0.0
O1126 O 0.52533 0.26382 0.11948 0.0
C1127 C 0.45894 0.2681 0.14657 0.0
H1128 H 0.24809 0.77114 0.84941 0.0
H1129 H 0.24831 0.78702 0.87427 0.0
H1130 H 0.19713 0.78075 0.87755 0.0
H1131 H 0.19683 0.76452 0.85282 0.0
H1132 H 0.23097 0.81576 0.88135 0.0
H1133 H 0.21526 0.76531 0.92131 0.0
H1134 H 0.22247 0.7621 0.90126 0.0
H1135 H 0.20227 0.76836 0.90427 0.0
C1136 C 0.23689 0.77302 0.85548 0.0
C1137 C 0.22246 0.76646 0.8492 0.0
C1138 C 0.23702 0.78219 0.86961 0.0
C1139 C 0.22277 0.78493 0.8778 0.0
C1140 C 0.20829 0.77863 0.87149 0.0
H1141 H 0.22462 0.85293 0.96024 0.0
H1142 H 0.21481 0.83864 0.93596 0.0
C1143 C 0.20813 0.76947 0.8573 0.0
C1144 C 0.22326 0.79427 0.89304 0.0
H1145 H 0.22015 0.79051 0.93353 0.0
C1146 C 0.2284 0.81034 0.89276 0.0
C1147 C 0.21995 0.78708 0.90787 0.0
C1148 C 0.21477 0.76974 0.90883 0.0
C1149 C 0.23081 0.8193 0.90699 0.0
C1150 C 0.22786 0.812 0.92185 0.0
C1151 C 0.22225 0.79608 0.9221 0.0
C1152 C 0.23249 0.82001 0.93722 0.0
C1153 C 0.23728 0.83623 0.90609 0.0
C1154 C 0.2453 0.81398 0.94618 0.0
C1155 C 0.2509 0.82205 0.95995 0.0
C1156 C 0.24374 0.83631 0.96514 0.0
C1157 C 0.23042 0.842 0.95653 0.0
C1158 C 0.22486 0.83391 0.94264 0.0
H1159 H 0.24102 0.83931 0.89379 0.0
H1160 H 0.22788 0.8447 0.9098 0.0
H1161 H 0.2477 0.83799 0.91438 0.0
H1162 H 0.25133 0.80325 0.94223 0.0
H1163 H 0.2611 0.81725 0.96634 0.0
H1164 H 0.01301 0.5661 0.39238 0.0
H1165 H 0.02905 0.56084 0.36863 0.0
H1166 H 0.01213 0.51179 0.3674 0.0
H1167 H 0.9963 0.51682 0.39124 0.0
H1168 H 0.05347 0.53791 0.36656 0.0
H1169 H 0.00566 0.52622 0.32087 0.0
H1170 H 0.00201 0.53639 0.33969 0.0
H1171 H 0.00318 0.51491 0.33879 0.0
C1172 C 0.01267 0.5542 0.38703 0.0
C1173 C 0.00337 0.54187 0.39372 0.0
C1174 C 0.02177 0.55126 0.37342 0.0
C1175 C 0.0216 0.536 0.36616 0.0
C1176 C 0.01213 0.52375 0.37262 0.0
H1177 H 0.07033 0.47995 0.29757 0.0
H1178 H 0.05319 0.49199 0.31764 0.0
C1179 C 0.00308 0.52666 0.38624 0.0
C1180 C 0.03216 0.53248 0.35253 0.0
H1181 H 0.03194 0.51741 0.31432 0.0
C1182 C 0.0488 0.53367 0.35503 0.0
C1183 C 0.02599 0.52698 0.33754 0.0
C1184 C 0.00823 0.52618 0.33397 0.0
C1185 C 0.05947 0.52868 0.34319 0.0
C1186 C 0.05328 0.52263 0.3284 0.0
C1187 C 0.03664 0.52202 0.3257 0.0
C1188 C 0.06376 0.51571 0.31604 0.0
C1189 C 0.07722 0.5292 0.34689 0.0
C1190 C 0.07535 0.52511 0.3084 0.0
C1191 C 0.08528 0.51823 0.29692 0.0
C1192 C 0.08368 0.50187 0.29283 0.0
C1193 C 0.07193 0.49258 0.30042 0.0
C1194 C 0.06207 0.49944 0.31188 0.0
H1195 H 0.07981 0.5312 0.35987 0.0
H1196 H 0.08289 0.51787 0.34301 0.0
H1197 H 0.08288 0.53915 0.34026 0.0
H1198 H 0.07666 0.53776 0.31127 0.0
H1199 H 0.09413 0.52574 0.29121 0.0
H1200 H 0.78699 0.77699 0.89603 0.0
H1201 H 0.78334 0.75625 0.9162 0.0
H1202 H 0.79448 0.7199 0.88106 0.0
H1203 H 0.79787 0.74038 0.86084 0.0
H1204 H 0.76195 0.72859 0.91499 0.0
H1205 H 0.82584 0.71187 0.91902 0.0
H1206 H 0.81936 0.73051 0.91057 0.0
H1207 H 0.81809 0.71226 0.89885 0.0
C1208 C 0.78855 0.76456 0.89258 0.0
C1209 C 0.79288 0.76034 0.87687 0.0
C1210 C 0.78654 0.75277 0.90413 0.0
C1211 C 0.78895 0.73662 0.90016 0.0
C1212 C 0.79294 0.73235 0.88444 0.0
H1213 H 0.78076 0.64215 0.93237 0.0
H1214 H 0.78513 0.66775 0.91943 0.0
C1215 C 0.79491 0.74408 0.87291 0.0
C1216 C 0.78706 0.72401 0.91225 0.0
H1217 H 0.80685 0.69305 0.92934 0.0
C1218 C 0.77179 0.72097 0.9184 0.0
C1219 C 0.79997 0.7142 0.9167 0.0
C1220 C 0.81678 0.71744 0.91107 0.0
C1221 C 0.7689 0.70769 0.92812 0.0
C1222 C 0.78167 0.69741 0.93188 0.0
C1223 C 0.79708 0.70094 0.92636 0.0
C1224 C 0.77905 0.6821 0.94017 0.0
C1225 C 0.75207 0.70424 0.93356 0.0
C1226 C 0.77431 0.68172 0.95621 0.0
C1227 C 0.77178 0.66703 0.96371 0.0
C1228 C 0.77398 0.65254 0.95526 0.0
C1229 C 0.7789 0.65306 0.93924 0.0
C1230 C 0.78144 0.66768 0.93181 0.0
H1231 H 0.74315 0.71202 0.92765 0.0
H1232 H 0.7487 0.69152 0.93103 0.0
H1233 H 0.75146 0.7063 0.9467 0.0
H1234 H 0.77262 0.69275 0.96292 0.0
H1235 H 0.76805 0.66705 0.97607 0.0
H1236 H 9e-05 0.94954 0.37217 0.0
H1237 H 0.98023 0.95621 0.35169 0.0
H1238 H 0.99487 0.00591 0.35523 0.0
H1239 H 0.01391 0.99958 0.37647 0.0
H1240 H 0.96394 0.00345 0.35648 0.0
H1241 H 0.98337 0.96632 0.30521 0.0
H1242 H 0.98018 0.95442 0.32259 0.0
H1243 H 0.99576 0.9696 0.32291 0.0
C1244 C 0.99909 0.96191 0.36864 0.0
C1245 C 0.00865 0.974 0.37606 0.0
C1246 C 0.9879 0.96566 0.35668 0.0
C1247 C 0.98625 0.98153 0.35167 0.0
C1248 C 0.99602 0.99355 0.35878 0.0
H1249 H 0.9193 0.0066 0.27356 0.0
H1250 H 0.94409 0.00274 0.28918 0.0
C1251 C 0.00704 0.98986 0.37086 0.0
C1252 C 0.97335 0.98584 0.34013 0.0
H1253 H 0.95626 0.97585 0.30381 0.0
C1254 C 0.96242 0.99755 0.34487 0.0
C1255 C 0.97147 0.97838 0.32486 0.0
C1256 C 0.98344 0.96661 0.31852 0.0
C1257 C 0.94934 0.00151 0.33508 0.0
C1258 C 0.94681 0.99321 0.32034 0.0
C1259 C 0.95809 0.98203 0.31523 0.0
C1260 C 0.932 0.99533 0.31063 0.0
C1261 C 0.93831 0.01453 0.3407 0.0
C1262 C 0.91707 0.99212 0.3174 0.0
C1263 C 0.90298 0.99442 0.30862 0.0
C1264 C 0.9035 -0.00023 0.29275 0.0
C1265 C 0.9185 0.00256 0.28578 0.0
C1266 C 0.93266 0.00034 0.29467 0.0
H1267 H 0.94459 0.02306 0.34911 0.0
H1268 H 0.9334 0.02134 0.33047 0.0
H1269 H 0.92817 0.00904 0.34718 0.0
H1270 H 0.91629 0.98783 0.32954 0.0
H1271 H 0.89167 0.99194 0.31432 0.0
H1272 H 0.26603 0.22142 0.65235 0.0
H1273 H 0.26918 0.20245 0.63006 0.0
H1274 H 0.21785 0.19858 0.62432 0.0
H1275 H 0.21459 0.21752 0.6467 0.0
H1276 H 0.23283 0.16919 0.6221 0.0
H1277 H 0.26206 0.21386 0.58322 0.0
H1278 H 0.27196 0.21175 0.60229 0.0
H1279 H 0.25196 0.21943 0.60137 0.0
C1280 C 0.25541 0.21657 0.64631 0.0
C1281 C 0.24006 0.22109 0.65117 0.0
C1282 C 0.25723 0.20575 0.63357 0.0
C1283 C 0.24376 0.19936 0.62534 0.0
C1284 C 0.2284 0.20344 0.63047 0.0
H1285 H 0.24604 0.15549 0.53063 0.0
H1286 H 0.24063 0.17224 0.55409 0.0
C1287 C 0.22657 0.21421 0.64328 0.0
C1288 C 0.24571 0.18862 0.61122 0.0
H1289 H 0.2622 0.18678 0.57413 0.0
C1290 C 0.2392 0.17303 0.61157 0.0
C1291 C 0.2538 0.19375 0.59742 0.0
C1292 C 0.26021 0.21066 0.59593 0.0
C1293 C 0.24085 0.16232 0.59858 0.0
C1294 C 0.24947 0.16727 0.58502 0.0
C1295 C 0.25573 0.18295 0.58459 0.0
C1296 C 0.25203 0.15651 0.57101 0.0
C1297 C 0.23309 0.14592 0.59938 0.0
C1298 C 0.26025 0.14209 0.57271 0.0
C1299 C 0.26329 0.13241 0.55931 0.0
C1300 C 0.25833 0.1371 0.54393 0.0
C1301 C 0.25005 0.15153 0.54229 0.0
C1302 C 0.24694 0.16113 0.55569 0.0
H1303 H 0.22336 0.14561 0.6083 0.0
H1304 H 0.22804 0.14207 0.58752 0.0
H1305 H 0.24223 0.13713 0.60304 0.0
H1306 H 0.26462 0.13847 0.58437 0.0
H1307 H 0.26979 0.12143 0.56097 0.0
H1308 H 0.463 0.53163 0.5884 0.0
H1309 H 0.44325 0.52953 0.60962 0.0
H1310 H 0.48057 0.51697 0.6432 0.0
H1311 H 0.50048 0.51956 0.6222 0.0
H1312 H 0.43539 0.50306 0.62793 0.0
H1313 H 0.4581 0.55329 0.66668 0.0
H1314 H 0.46425 0.55059 0.6462 0.0
H1315 H 0.47296 0.53877 0.6618 0.0
C1316 C 0.46706 0.52865 0.60035 0.0
C1317 C 0.48336 0.52586 0.6036 0.0
C1318 C 0.45573 0.52734 0.61244 0.0
C1319 C 0.46046 0.52332 0.62805 0.0
C1320 C 0.47668 0.52038 0.63132 0.0
H1321 H 0.41115 0.5067 0.71705 0.0
H1322 H 0.43058 0.50934 0.69562 0.0
C1323 C 0.48802 0.52168 0.61924 0.0
C1324 C 0.44835 0.5218 0.64081 0.0
H1325 H 0.43801 0.53645 0.6776 0.0
C1326 C 0.4359 0.51042 0.63875 0.0
C1327 C 0.44905 0.5314 0.65493 0.0
C1328 C 0.46171 0.54431 0.65752 0.0
C1329 C 0.42433 0.50814 0.65057 0.0
C1330 C 0.42507 0.5177 0.66471 0.0
C1331 C 0.43748 0.52911 0.66676 0.0
C1332 C 0.41313 0.51599 0.6776 0.0
C1333 C 0.41163 0.49526 0.64798 0.0
C1334 C 0.39687 0.51901 0.67463 0.0
C1335 C 0.3857 0.5175 0.68687 0.0
C1336 C 0.3906 0.51302 0.70234 0.0
C1337 C 0.40694 0.51012 0.70528 0.0
C1338 C 0.41808 0.51165 0.69305 0.0
H1339 H 0.41506 0.48644 0.63859 0.0
H1340 H 0.40934 0.48878 0.65925 0.0
H1341 H 0.40029 0.50086 0.64407 0.0
H1342 H 0.39282 0.52268 0.66288 0.0
H1343 H 0.37324 0.51991 0.6842 0.0
H1344 H 0.79252 0.27573 0.65442 0.0
H1345 H 0.78657 0.29277 0.6316 0.0
H1346 H 0.73697 0.29409 0.64493 0.0
H1347 H 0.74283 0.27719 0.66803 0.0
H1348 H 0.75547 0.28266 0.60749 0.0
H1349 H 0.75936 0.3433 0.63632 0.0
H1350 H 0.77196 0.32742 0.6434 0.0
H1351 H 0.75083 0.32642 0.64665 0.0
C1352 C 0.7804 0.27986 0.6527 0.0
C1353 C 0.76815 0.2751 0.66307 0.0
C1354 C 0.77701 0.28952 0.63961 0.0
C1355 C 0.76137 0.29468 0.63669 0.0
C1356 C 0.74913 0.29023 0.64708 0.0
H1357 H 0.73672 0.35774 0.55608 0.0
H1358 H 0.73432 0.34324 0.58139 0.0
C1359 C 0.75249 0.28051 0.66019 0.0
C1360 C 0.75783 0.30398 0.62219 0.0
H1361 H 0.75696 0.34211 0.6081 0.0
C1362 C 0.75556 0.29566 0.60761 0.0
C1363 C 0.75781 0.32088 0.6225 0.0
C1364 C 0.76009 0.33017 0.63802 0.0
C1365 C 0.75388 0.30385 0.59317 0.0
C1366 C 0.75481 0.32079 0.59332 0.0
C1367 C 0.75629 0.32913 0.60802 0.0
C1368 C 0.75604 0.32983 0.57825 0.0
C1369 C 0.75147 0.29429 0.57781 0.0
C1370 C 0.76917 0.32731 0.56835 0.0
C1371 C 0.77058 0.3355 0.55403 0.0
C1372 C 0.75892 0.34652 0.54927 0.0
C1373 C 0.74586 0.34928 0.55936 0.0
C1374 C 0.74448 0.34103 0.5738 0.0
H1375 H 0.74615 0.28228 0.58008 0.0
H1376 H 0.74361 0.30065 0.56924 0.0
H1377 H 0.76325 0.29252 0.57214 0.0
H1378 H 0.7784 0.31897 0.57173 0.0
H1379 H 0.78087 0.33312 0.54668 0.0
H1380 H 0.50801 0.96559 0.62036 0.0
H1381 H 0.52708 0.97233 0.64193 0.0
H1382 H 0.56632 0.96438 0.60994 0.0
H1383 H 0.5472 0.95752 0.5882 0.0
H1384 H 0.57052 0.94934 0.63799 0.0
H1385 H 0.55426 0.01211 0.65032 0.0
H1386 H 0.53694 0.99916 0.65056 0.0
H1387 H 0.54785 0.00148 0.63228 0.0
C1388 C 0.52069 0.96556 0.61783 0.0
C1389 C 0.52611 0.96112 0.60257 0.0
C1390 C 0.53158 0.96947 0.63015 0.0
C1391 C 0.54811 0.96922 0.62745 0.0
C1392 C 0.5536 0.9648 0.61223 0.0
H1393 H 0.60924 0.99933 0.70985 0.0
H1394 H 0.5987 0.99769 0.68227 0.0
C1395 C 0.54268 0.9608 0.59987 0.0
C1396 C 0.55952 0.97236 0.64093 0.0
H1397 H 0.56739 0.99834 0.67211 0.0
C1398 C 0.57007 0.96019 0.64528 0.0
C1399 C 0.55919 0.98664 0.65025 0.0
C1400 C 0.54907 0.00065 0.6455 0.0
C1401 C 0.57945 0.96146 0.65933 0.0
C1402 C 0.57797 0.9751 0.66943 0.0
C1403 C 0.56831 0.98776 0.66449 0.0
C1404 C 0.58511 0.97579 0.68576 0.0
C1405 C 0.59059 0.94802 0.66339 0.0
C1406 C 0.58079 0.96414 0.69687 0.0
C1407 C 0.58675 0.96501 0.71255 0.0
C1408 C 0.59706 0.97768 0.71752 0.0
C1409 C 0.60135 0.9894 0.70638 0.0
C1410 C 0.59537 0.98849 0.69063 0.0
H1411 H 0.59449 0.94159 0.65241 0.0
H1412 H 0.60137 0.95251 0.67012 0.0
H1413 H 0.5842 0.93924 0.67092 0.0
H1414 H 0.57253 0.95448 0.69349 0.0
H1415 H 0.58311 0.95584 0.7208 0.0
H1416 H 0.84583 0.23815 0.77434 0.0
H1417 H 0.87117 0.24054 0.7894 0.0
H1418 H 0.87861 0.18989 0.78306 0.0
H1419 H 0.85343 0.18742 0.76769 0.0
H1420 H 0.8805 0.22365 0.81807 0.0
H1421 H 0.92025 0.21172 0.76647 0.0
H1422 H 0.89958 0.21733 0.76387 0.0
H1423 H 0.9044 0.19735 0.76965 0.0
C1424 C 0.85293 0.22754 0.77602 0.0
C1425 C 0.84766 0.21261 0.76975 0.0
C1426 C 0.86733 0.22891 0.78472 0.0
C1427 C 0.87679 0.21542 0.78723 0.0
C1428 C 0.87154 0.20047 0.78112 0.0
H1429 H 0.96078 0.21843 0.85304 0.0
H1430 H 0.93611 0.20898 0.8392 0.0
C1431 C 0.8571 0.19907 0.77245 0.0
C1432 C 0.89219 0.21711 0.79619 0.0
H1433 H 0.93273 0.21635 0.79164 0.0
C1434 C 0.89194 0.2219 0.81237 0.0
C1435 C 0.90705 0.21488 0.78865 0.0
C1436 C 0.90796 0.21014 0.77118 0.0
C1437 C 0.9062 0.22485 0.82114 0.0
C1438 C 0.92105 0.22282 0.81354 0.0
C1439 C 0.9213 0.21772 0.79745 0.0
C1440 C 0.93638 0.22765 0.82153 0.0
C1441 C 0.9053 0.23074 0.83827 0.0
C1442 C 0.94482 0.241 0.81593 0.0
C1443 C 0.9588 0.24641 0.82376 0.0
C1444 C 0.96472 0.23851 0.83733 0.0
C1445 C 0.95651 0.2248 0.84265 0.0
C1446 C 0.9424 0.21943 0.83482 0.0
H1447 H 0.8929 0.23381 0.84166 0.0
H1448 H 0.90961 0.22128 0.84639 0.0
H1449 H 0.91315 0.24148 0.84021 0.0
H1450 H 0.94038 0.24748 0.80568 0.0
H1451 H 0.96485 0.25694 0.81925 0.0
H1452 H 0.49047 0.8881 0.48778 0.0
H1453 H 0.49567 0.86625 0.46885 0.0
H1454 H 0.44802 0.84721 0.47584 0.0
H1455 H 0.44266 0.86922 0.49468 0.0
H1456 H 0.49541 0.83367 0.47197 0.0
H1457 H 0.44916 0.85205 0.42763 0.0
H1458 H 0.45537 0.86468 0.44439 0.0
H1459 H 0.44172 0.84815 0.44726 0.0
C1460 C 0.48114 0.87919 0.48539 0.0
C1461 C 0.46612 0.88042 0.49264 0.0
C1462 C 0.48411 0.86672 0.47456 0.0
C1463 C 0.47216 0.85523 0.47077 0.0
C1464 C 0.45729 0.85615 0.47832 0.0
H1465 H 0.4937 0.77009 0.41134 0.0
H1466 H 0.48643 0.78714 0.4342 0.0
C1467 C 0.45425 0.86871 0.48908 0.0
C1468 C 0.47528 0.84258 0.45859 0.0
H1469 H 0.46345 0.82872 0.42152 0.0
C1470 C 0.48838 0.8325 0.46097 0.0
C1471 C 0.46615 0.84119 0.4442 0.0
C1472 C 0.4524 0.85217 0.44059 0.0
C1473 C 0.49282 0.82128 0.4492 0.0
C1474 C 0.48369 0.81991 0.43482 0.0
C1475 C 0.47037 0.82974 0.43261 0.0
C1476 C 0.48843 0.80935 0.42131 0.0
C1477 C 0.5076 0.81147 0.452 0.0
C1478 C 0.49175 0.81614 0.40645 0.0
C1479 C 0.49571 0.80647 0.39339 0.0
C1480 C 0.49648 0.78975 0.39488 0.0
C1481 C 0.49332 0.78294 0.40983 0.0
C1482 C 0.48923 0.79267 0.42292 0.0
H1483 H 0.51518 0.81645 0.46199 0.0
H1484 H 0.50395 0.79909 0.4551 0.0
H1485 H 0.51492 0.81086 0.44103 0.0
H1486 H 0.49123 0.82899 0.40494 0.0
H1487 H 0.49811 0.81214 0.38208 0.0
H1488 H 0.15434 0.27894 0.76932 0.0
H1489 H 0.1328 0.27583 0.78849 0.0
H1490 H 0.1443 0.22602 0.79377 0.0
H1491 H 0.16603 0.22905 0.77461 0.0
H1492 H 0.112 0.23087 0.78865 0.0
H1493 H 0.13507 0.27149 0.83694 0.0
H1494 H 0.13469 0.28097 0.81782 0.0
H1495 H 0.14757 0.2642 0.82104 0.0
C1496 C 0.15251 0.26739 0.77477 0.0
C1497 C 0.16198 0.25427 0.77048 0.0
C1498 C 0.14018 0.26563 0.78575 0.0
C1499 C 0.13713 0.25076 0.79279 0.0
C1500 C 0.14653 0.23762 0.78855 0.0
H1501 H 0.05286 0.22849 0.85242 0.0
H1502 H 0.07925 0.22548 0.84015 0.0
C1503 C 0.15887 0.23937 0.77754 0.0
C1504 C 0.1235 0.24885 0.80382 0.0
H1505 H 0.1068 0.26533 0.83717 0.0
C1506 C 0.11098 0.23816 0.79944 0.0
C1507 C 0.12225 0.25829 0.81795 0.0
C1508 C 0.13569 0.26926 0.82382 0.0
C1509 C 0.0968 0.23743 0.80826 0.0
C1510 C 0.09521 0.24753 0.82187 0.0
C1511 C 0.10804 0.25763 0.82669 0.0
C1512 C 0.07973 0.2492 0.83009 0.0
C1513 C 0.08325 0.22655 0.80245 0.0
C1514 C 0.07148 0.2636 0.82875 0.0
C1515 C 0.05652 0.26534 0.83567 0.0
C1516 C 0.04947 0.25273 0.8442 0.0
C1517 C 0.05794 0.2384 0.8459 0.0
C1518 C 0.07297 0.23664 0.83886 0.0
H1519 H 0.08568 0.22096 0.79059 0.0
H1520 H 0.0814 0.21686 0.8112 0.0
H1521 H 0.07194 0.23333 0.80154 0.0
H1522 H 0.0765 0.27344 0.82206 0.0
H1523 H 0.05042 0.27658 0.83418 0.0
H1524 H 0.54478 0.61008 0.48455 0.0
H1525 H 0.54188 0.63169 0.46527 0.0
H1526 H 0.49052 0.62621 0.46664 0.0
H1527 H 0.49325 0.60443 0.48564 0.0
H1528 H 0.52562 0.63113 0.43436 0.0
H1529 H 0.49904 0.67434 0.47721 0.0
H1530 H 0.50961 0.65681 0.48364 0.0
H1531 H 0.48934 0.65498 0.47621 0.0
C1532 C 0.53286 0.61335 0.48064 0.0
C1533 C 0.51924 0.60557 0.48677 0.0
C1534 C 0.53124 0.62576 0.46968 0.0
C1535 C 0.51599 0.63071 0.46473 0.0
C1536 C 0.50239 0.62279 0.47056 0.0
H1537 H 0.47733 0.70364 0.40345 0.0
H1538 H 0.48185 0.68149 0.42167 0.0
C1539 C 0.50399 0.61037 0.48147 0.0
C1540 C 0.51422 0.6441 0.45339 0.0
H1541 H 0.49893 0.68158 0.44989 0.0
C1542 C 0.51988 0.64222 0.43775 0.0
C1543 C 0.50671 0.65851 0.45787 0.0
C1544 C 0.50093 0.66141 0.47468 0.0
C1545 C 0.51783 0.65422 0.42631 0.0
C1546 C 0.51022 0.66862 0.43075 0.0
C1547 C 0.50472 0.67053 0.44647 0.0
C1548 C 0.50762 0.6818 0.41928 0.0
C1549 C 0.52338 0.65115 0.40944 0.0
C1550 C 0.52061 0.68944 0.41194 0.0
C1551 C 0.51805 0.70208 0.40143 0.0
C1552 C 0.50246 0.70745 0.39819 0.0
C1553 C 0.48949 0.69982 0.40565 0.0
C1554 C 0.49205 0.68715 0.41609 0.0
H1555 H 0.52492 0.63817 0.40693 0.0
H1556 H 0.51477 0.65594 0.40052 0.0
H1557 H 0.53513 0.65724 0.40782 0.0
H1558 H 0.53275 0.68579 0.4145 0.0
H1559 H 0.52832 0.70777 0.39599 0.0
H1560 H 0.89421 0.78508 0.77683 0.0
H1561 H 0.91348 0.78031 0.75546 0.0
H1562 H 0.87736 0.79159 0.72008 0.0
H1563 H 0.85813 0.79635 0.74126 0.0
H1564 H 0.91175 0.75849 0.72995 0.0
H1565 H 0.91473 0.82061 0.70787 0.0
H1566 H 0.90622 0.81565 0.72694 0.0
H1567 H 0.89458 0.81295 0.70874 0.0
C1568 C 0.8904 0.78651 0.76448 0.0
C1569 C 0.87471 0.79125 0.76072 0.0
C1570 C 0.90142 0.78384 0.75232 0.0
C1571 C 0.89693 0.78593 0.73623 0.0
C1572 C 0.8812 0.79036 0.73245 0.0
H1573 H 0.92921 0.76829 0.64198 0.0
H1574 H 0.91534 0.77414 0.66685 0.0
C1575 C 0.87022 0.79307 0.74456 0.0
C1576 C 0.90844 0.78302 0.72325 0.0
H1577 H 0.92458 0.80018 0.69025 0.0
C1578 C 0.91479 0.76765 0.72141 0.0
C1579 C 0.91243 0.79505 0.7122 0.0
C1580 C 0.90677 0.81203 0.71411 0.0
C1581 C 0.92437 0.76377 0.70828 0.0
C1582 C 0.92773 0.77561 0.69687 0.0
C1583 C 0.92188 0.79112 0.69902 0.0
C1584 C 0.93638 0.77189 0.68202 0.0
C1585 C 0.93029 0.74689 0.7063 0.0
C1586 C 0.95284 0.76879 0.68238 0.0
C1587 C 0.96086 0.7655 0.66815 0.0
C1588 C 0.95251 0.76523 0.65337 0.0
C1589 C 0.93601 0.76836 0.65314 0.0
C1590 C 0.92805 0.77173 0.66733 0.0
H1591 H 0.92502 0.73864 0.71517 0.0
H1592 H 0.92737 0.74223 0.69405 0.0
H1593 H 0.94352 0.74688 0.70783 0.0
H1594 H 0.95947 0.76903 0.69364 0.0
H1595 H 0.97358 0.76315 0.66873 0.0
H1596 H 0.01856 0.87386 0.4793 0.0
H1597 H 0.01261 0.85308 0.49877 0.0
H1598 H 0.02231 0.88684 0.53745 0.0
H1599 H 0.02774 0.90782 0.5181 0.0
H1600 H 0.03247 0.84111 0.52315 0.0
H1601 H 0.97779 0.86876 0.54774 0.0
H1602 H 0.98662 0.87513 0.52927 0.0
H1603 H 0.9953 0.88154 0.54818 0.0
C1604 C 0.01921 0.87692 0.49194 0.0
C1605 C 0.02353 0.89252 0.49714 0.0
C1606 C 0.01595 0.86501 0.50305 0.0
C1607 C 0.01687 0.86848 0.51953 0.0
C1608 C 0.02131 0.88398 0.52478 0.0
H1609 H 0.01507 0.79567 0.59439 0.0
H1610 H 0.02351 0.81765 0.57713 0.0
C1611 C 0.02456 0.8959 0.51369 0.0
C1612 C 0.01318 0.85584 0.53121 0.0
H1613 H 0.98707 0.84551 0.56047 0.0
C1614 C 0.02258 0.84205 0.53135 0.0
C1615 C 0.0002 0.85711 0.54179 0.0
C1616 C 0.98929 0.87136 0.54171 0.0
C1617 C 0.01928 0.82943 0.54176 0.0
C1618 C 0.00637 0.83077 0.55243 0.0
C1619 C 0.99705 0.84461 0.55236 0.0
C1620 C 0.00156 0.8175 0.56298 0.0
C1621 C 0.02929 0.81456 0.54091 0.0
C1622 C 0.98636 0.81036 0.56091 0.0
C1623 C 0.98148 0.79794 0.57076 0.0
C1624 C 0.9917 0.79239 0.58295 0.0
C1625 C 0.00694 0.79961 0.58507 0.0
C1626 C 0.01181 0.81211 0.57518 0.0
H1627 H 0.03653 0.81409 0.52987 0.0
H1628 H 0.03762 0.81444 0.55139 0.0
H1629 H 0.02159 0.80361 0.54128 0.0
H1630 H 0.97826 0.81437 0.55158 0.0
H1631 H 0.96966 0.79269 0.56876 0.0
H1632 H 0.12975 0.7444 0.74067 0.0
H1633 H 0.10804 0.74726 0.721 0.0
H1634 H 0.1415 0.74139 0.68265 0.0
H1635 H 0.1634 0.73879 0.70224 0.0
H1636 H 0.10591 0.77054 0.69596 0.0
H1637 H 0.10532 0.7078 0.67249 0.0
H1638 H 0.11483 0.71353 0.69134 0.0
H1639 H 0.12441 0.71808 0.67283 0.0
C1640 C 0.13255 0.74385 0.72806 0.0
C1641 C 0.14834 0.74138 0.72304 0.0
C1642 C 0.1201 0.7454 0.71684 0.0
C1643 C 0.12315 0.74437 0.7004 0.0
C1644 C 0.13887 0.74195 0.6953 0.0
H1645 H 0.05739 0.74723 0.61801 0.0
H1646 H 0.08142 0.74605 0.63514 0.0
C1647 C 0.15135 0.74044 0.70652 0.0
C1648 C 0.10985 0.74611 0.68865 0.0
H1649 H 0.08753 0.7257 0.66021 0.0
C1650 C 0.10189 0.76076 0.68811 0.0
C1651 C 0.10474 0.73335 0.67838 0.0
C1652 C 0.11265 0.71724 0.67879 0.0
C1653 C 0.08889 0.763 0.67757 0.0
C1654 C 0.08351 0.75011 0.66757 0.0
C1655 C 0.09167 0.73555 0.6679 0.0
C1656 C 0.06905 0.7513 0.65713 0.0
C1657 C 0.08116 0.7792 0.67714 0.0
C1658 C 0.05412 0.75448 0.66384 0.0
C1659 C 0.0404 0.75522 0.65411 0.0
C1660 C 0.04131 0.75262 0.63747 0.0
C1661 C 0.05628 0.74934 0.63078 0.0
C1662 C 0.07002 0.74864 0.64054 0.0
H1663 H 0.08945 0.78882 0.6817 0.0
H1664 H 0.07721 0.78217 0.66479 0.0
H1665 H 0.07049 0.77908 0.68489 0.0
H1666 H 0.05302 0.75619 0.67666 0.0
H1667 H 0.02905 0.75766 0.65968 0.0
H1668 H 0.98117 0.57694 0.55105 0.0
H1669 H 0.98738 0.5987 0.57039 0.0
H1670 H 0.99135 0.63192 0.53154 0.0
H1671 H 0.98558 0.6103 0.51229 0.0
H1672 H 0.01361 0.6383 0.55506 0.0
H1673 H 0.95293 0.63041 0.58087 0.0
H1674 H 0.96586 0.61349 0.58213 0.0
H1675 H 0.95879 0.62 0.56289 0.0
C1676 C 0.98358 0.58887 0.54669 0.0
C1677 C 0.98279 0.59197 0.53019 0.0
C1678 C 0.98708 0.60127 0.55772 0.0
C1679 C 0.98951 0.61698 0.55242 0.0
C1680 C 0.98954 0.61989 0.53591 0.0
H1681 H 0.96288 0.70777 0.58125 0.0
H1682 H 0.96711 0.68046 0.57199 0.0
C1683 C 0.98624 0.60751 0.52491 0.0
C1684 C 0.99062 0.63078 0.56378 0.0
H1685 H 0.96799 0.65281 0.58939 0.0
C1686 C 0.00378 0.64138 0.5628 0.0
C1687 C 0.97771 0.63475 0.57382 0.0
C1688 C 0.96296 0.62417 0.57497 0.0
C1689 C 0.00394 0.65631 0.57079 0.0
C1690 C 0.99072 0.66053 0.58026 0.0
C1691 C 0.97809 0.64948 0.5821 0.0
C1692 C 0.98855 0.67708 0.58638 0.0
C1693 C 0.0177 0.66785 0.56815 0.0
C1694 C 0.9992 0.68428 0.59761 0.0
C1695 C 0.99689 0.70008 0.60287 0.0
C1696 C 0.98378 0.70881 0.59709 0.0
C1697 C 0.97308 0.70143 0.58599 0.0
C1698 C 0.97546 0.68577 0.5807 0.0
H1699 H 0.02569 0.66366 0.55848 0.0
H1700 H 0.01317 0.67985 0.56501 0.0
H1701 H 0.02494 0.66916 0.57936 0.0
H1702 H 0.00924 0.67769 0.60234 0.0
H1703 H 0.00529 0.70541 0.6115 0.0
H1704 H 0.74753 0.86839 0.22733 0.0
H1705 H 0.76467 0.89236 0.22922 0.0
H1706 H 0.8052 0.86466 0.21455 0.0
H1707 H 0.78825 0.84051 0.21313 0.0
H1708 H 0.81158 0.883 0.24131 0.0
H1709 H 0.78379 0.92008 0.19438 0.0
H1710 H 0.76951 0.9127 0.20842 0.0
H1711 H 0.77991 0.89881 0.19577 0.0
C1712 C 0.76009 0.86739 0.22451 0.0
C1713 C 0.76652 0.85252 0.22009 0.0
C1714 C 0.76982 0.88115 0.22536 0.0
C1715 C 0.78615 0.88036 0.22173 0.0
C1716 C 0.79259 0.86557 0.21722 0.0
H1717 H 0.84883 0.96681 0.22479 0.0
H1718 H 0.83561 0.94194 0.21493 0.0
C1719 C 0.78287 0.8518 0.21635 0.0
C1720 C 0.79671 0.8947 0.22388 0.0
H1721 H 0.80073 0.93403 0.2138 0.0
C1722 C 0.80936 0.89408 0.2351 0.0
C1723 C 0.79395 0.90909 0.21562 0.0
C1724 C 0.78115 0.9102 0.20275 0.0
C1725 C 0.81877 0.9077 0.23892 0.0
C1726 C 0.81531 0.92235 0.23145 0.0
C1727 C 0.80325 0.9228 0.2196 0.0
C1728 C 0.82311 0.93754 0.23695 0.0
C1729 C 0.83211 0.90643 0.25121 0.0
C1730 C 0.82017 0.94336 0.25243 0.0
C1731 C 0.82758 0.95746 0.25804 0.0
C1732 C 0.83811 0.96612 0.24828 0.0
C1733 C 0.84083 0.96041 0.23262 0.0
C1734 C 0.8333 0.94624 0.22697 0.0
H1735 H 0.83602 0.89385 0.25253 0.0
H1736 H 0.8426 0.91396 0.24796 0.0
H1737 H 0.8278 0.9107 0.26301 0.0
H1738 H 0.81214 0.93693 0.26022 0.0
H1739 H 0.82511 0.96149 0.27013 0.0
H1740 H 0.76839 0.1653 0.23865 0.0
H1741 H 0.78596 0.14212 0.23641 0.0
H1742 H 0.77852 0.1318 0.28619 0.0
H1743 H 0.76076 0.15469 0.28847 0.0
H1744 H 0.81482 0.13449 0.25538 0.0
H1745 H 0.76528 0.08992 0.26104 0.0
H1746 H 0.76189 0.11055 0.25595 0.0
H1747 H 0.76593 0.10527 0.27638 0.0
C1748 C 0.77046 0.15805 0.2491 0.0
C1749 C 0.76311 0.16178 0.26372 0.0
C1750 C 0.78057 0.1449 0.24782 0.0
C1751 C 0.78337 0.13518 0.26108 0.0
C1752 C 0.77636 0.13907 0.27577 0.0
H1753 H 0.83122 0.05048 0.28779 0.0
H1754 H 0.81656 0.07528 0.28526 0.0
C1755 C 0.76632 0.15224 0.27708 0.0
C1756 C 0.79333 0.12074 0.25962 0.0
H1757 H 0.79176 0.08012 0.26324 0.0
C1758 C 0.80981 0.12256 0.25692 0.0
C1759 C 0.78669 0.10523 0.26153 0.0
C1760 C 0.76895 0.10254 0.26374 0.0
C1761 C 0.81996 0.10928 0.25686 0.0
C1762 C 0.81337 0.09382 0.2593 0.0
C1763 C 0.7968 0.092 0.26144 0.0
C1764 C 0.82343 0.07943 0.26079 0.0
C1765 C 0.83772 0.11193 0.25485 0.0
C1766 C 0.83233 0.07357 0.24788 0.0
C1767 C 0.84085 0.0593 0.2493 0.0
C1768 C 0.84045 0.05063 0.2636 0.0
C1769 C 0.83175 0.05677 0.27656 0.0
C1770 C 0.82334 0.07097 0.27515 0.0
H1771 H 0.84123 0.12478 0.25618 0.0
H1772 H 0.8446 0.10496 0.26376 0.0
H1773 H 0.84115 0.10775 0.24272 0.0
H1774 H 0.83236 0.07979 0.2366 0.0
H1775 H 0.84737 0.05487 0.23908 0.0
H1776 H 0.39062 0.9936 0.98219 0.0
H1777 H 0.36859 0.97489 0.98725 0.0
H1778 H 0.34733 0.98559 0.94131 0.0
H1779 H 0.36952 0.00428 0.93607 0.0
H1780 H 0.33608 0.9792 0.98889 0.0
H1781 H 0.35077 0.9371 0.93919 0.0
H1782 H 0.36425 0.95304 0.94579 0.0
H1783 H 0.34716 0.95734 0.93332 0.0
C1784 C 0.38119 0.99207 0.97321 0.0
C1785 C 0.38182 0.00036 0.9587 0.0
C1786 C 0.36862 0.98136 0.97611 0.0
C1787 C 0.35642 0.9787 0.96458 0.0
C1788 C 0.3568 0.98722 0.95023 0.0
H1789 H 0.27238 0.91863 0.98897 0.0
H1790 H 0.28863 0.94178 0.98087 0.0
C1791 C 0.36946 0.99788 0.94726 0.0
C1792 C 0.3436 0.96671 0.96763 0.0
H1793 H 0.32854 0.93042 0.9548 0.0
C1794 C 0.3343 0.96859 0.98138 0.0
C1795 C 0.34142 0.95284 0.95784 0.0
C1796 C 0.35149 0.94982 0.94328 0.0
C1797 C 0.3232 0.95675 0.98588 0.0
C1798 C 0.32115 0.94281 0.97618 0.0
C1799 C 0.33009 0.94118 0.96216 0.0
C1800 C 0.31103 0.92907 0.98109 0.0
C1801 C 0.31433 0.95891 0.00135 0.0
C1802 C 0.31818 0.91424 0.98365 0.0
C1803 C 0.30897 0.90103 0.98811 0.0
C1804 C 0.29235 0.90235 0.99013 0.0
C1805 C 0.28516 0.91725 0.98762 0.0
C1806 C 0.29443 0.93049 0.98305 0.0
H1807 H 0.31963 0.96873 0.00896 0.0
H1808 H 0.30169 0.96191 0.99861 0.0
H1809 H 0.31434 0.94769 0.0083 0.0
H1810 H 0.33097 0.91287 0.98223 0.0
H1811 H 0.31493 0.88977 0.98997 0.0
H1812 H 0.26526 0.37921 0.26849 0.0
H1813 H 0.24491 0.39884 0.26206 0.0
H1814 H 0.23694 0.40688 0.31244 0.0
H1815 H 0.25799 0.38808 0.319 0.0
H1816 H 0.21437 0.39669 0.26809 0.0
H1817 H 0.2381 0.45208 0.29743 0.0
H1818 H 0.25021 0.4346 0.29453 0.0
H1819 H 0.23699 0.43598 0.31133 0.0
C1820 C 0.25953 0.38548 0.27823 0.0
C1821 C 0.26331 0.38203 0.29428 0.0
C1822 C 0.24779 0.39662 0.27452 0.0
C1823 C 0.23954 0.40452 0.28676 0.0
C1824 C 0.2434 0.40126 0.30278 0.0
H1825 H 0.14325 0.43803 0.28102 0.0
H1826 H 0.16822 0.42388 0.2854 0.0
C1827 C 0.25527 0.39026 0.30651 0.0
C1828 C 0.22595 0.41506 0.28278 0.0
H1829 H 0.2098 0.45151 0.29114 0.0
C1830 C 0.21349 0.40876 0.27298 0.0
C1831 C 0.22488 0.4309 0.28891 0.0
C1832 C 0.23835 0.43884 0.29849 0.0
C1833 C 0.19975 0.4176 0.26964 0.0
C1834 C 0.19818 0.43299 0.27671 0.0
C1835 C 0.2109 0.43959 0.28596 0.0
C1836 C 0.18324 0.44218 0.27496 0.0
C1837 C 0.18709 0.41035 0.25851 0.0
C1838 C 0.18348 0.45753 0.26837 0.0
C1839 C 0.1692 0.46581 0.26607 0.0
C1840 C 0.15446 0.45881 0.2703 0.0
C1841 C 0.15437 0.44367 0.27742 0.0
C1842 C 0.16862 0.43551 0.27985 0.0
H1843 H 0.19222 0.40126 0.25029 0.0
H1844 H 0.17781 0.40426 0.2657 0.0
H1845 H 0.18121 0.41965 0.25122 0.0
H1846 H 0.19466 0.46295 0.26465 0.0
H1847 H 0.16967 0.47747 0.26059 0.0
H1848 H 0.10537 0.02388 0.46089 0.0
H1849 H 0.12826 0.04217 0.46438 0.0
H1850 H 0.15422 0.0057 0.48939 0.0
H1851 H 0.13178 0.98695 0.48506 0.0
H1852 H 0.14397 0.05449 0.49024 0.0
H1853 H 0.18491 0.01692 0.4545 0.0
H1854 H 0.16367 0.0129 0.45521 0.0
H1855 H 0.17665 0.00679 0.47133 0.0
C1856 C 0.11602 0.01964 0.46695 0.0
C1857 C 0.11681 0.00382 0.47244 0.0
C1858 C 0.12903 0.03019 0.4691 0.0
C1859 C 0.14306 0.0252 0.47686 0.0
C1860 C 0.14364 0.00968 0.48303 0.0
H1861 H 0.22219 0.09053 0.50469 0.0
H1862 H 0.19821 0.0733 0.50511 0.0
C1863 C 0.13071 0.99904 0.48072 0.0
C1864 C 0.15717 0.03614 0.47805 0.0
H1865 H 0.19632 0.03982 0.46746 0.0
C1866 C 0.15543 0.05131 0.48527 0.0
C1867 C 0.17204 0.03203 0.47135 0.0
C1868 C 0.17443 0.01635 0.46252 0.0
C1869 C 0.16814 0.06252 0.4859 0.0
C1870 C 0.1831 0.05825 0.47951 0.0
C1871 C 0.18486 0.04304 0.47242 0.0
C1872 C 0.19701 0.0695 0.4794 0.0
C1873 C 0.16526 0.07895 0.49294 0.0
C1874 C 0.20441 0.07292 0.46486 0.0
C1875 C 0.21824 0.08248 0.46462 0.0
C1876 C 0.2249 0.08892 0.47892 0.0
C1877 C 0.21725 0.08585 0.49346 0.0
C1878 C 0.2035 0.07607 0.49371 0.0
H1879 H 0.15229 0.08172 0.49313 0.0
H1880 H 0.16988 0.07947 0.50547 0.0
H1881 H 0.17156 0.08836 0.48607 0.0
H1882 H 0.19961 0.06799 0.45367 0.0
H1883 H 0.22381 0.08469 0.45322 0.0
H1884 H 0.69699 0.16597 0.72501 0.0
H1885 H 0.67935 0.14291 0.72984 0.0
H1886 H 0.72044 0.11248 0.73346 0.0
H1887 H 0.73814 0.13537 0.72843 0.0
H1888 H 0.67652 0.11336 0.71221 0.0
H1889 H 0.69605 0.10438 0.77527 0.0
H1890 H 0.70015 0.12267 0.76472 0.0
H1891 H 0.71207 0.10527 0.76118 0.0
C1892 C 0.70227 0.15435 0.72671 0.0
C1893 C 0.71899 0.15254 0.72643 0.0
C1894 C 0.69218 0.14121 0.72954 0.0
C1895 C 0.69862 0.12607 0.73226 0.0
C1896 C 0.71526 0.12415 0.73174 0.0
H1897 H 0.66182 0.03136 0.75191 0.0
H1898 H 0.67812 0.05517 0.74652 0.0
C1899 C 0.72536 0.13726 0.72889 0.0
C1900 C 0.68795 0.11219 0.73543 0.0
H1901 H 0.67937 0.08407 0.76338 0.0
C1902 C 0.67704 0.10699 0.72342 0.0
C1903 C 0.68871 0.10394 0.75008 0.0
C1904 C 0.69977 0.1094 0.76363 0.0
C1905 C 0.66713 0.09347 0.72551 0.0
C1906 C 0.66797 0.08514 0.74012 0.0
C1907 C 0.67878 0.09045 0.75218 0.0
C1908 C 0.65792 0.07074 0.7431 0.0
C1909 C 0.65619 0.08794 0.7119 0.0
C1910 C 0.64115 0.07163 0.74311 0.0
C1911 C 0.63178 0.05802 0.74615 0.0
C1912 C 0.63903 0.0433 0.74936 0.0
C1913 C 0.65584 0.0425 0.74946 0.0
C1914 C 0.66519 0.05609 0.74639 0.0
H1915 H 0.65988 0.09307 0.7003 0.0
H1916 H 0.65598 0.07468 0.71072 0.0
H1917 H 0.64382 0.0919 0.71431 0.0
H1918 H 0.63531 0.08289 0.74093 0.0
H1919 H 0.61887 0.05908 0.74607 0.0
H1920 H 0.39432 0.00728 0.56606 0.0
H1921 H 0.37414 0.02728 0.55973 0.0
H1922 H 0.38148 0.01908 0.50929 0.0
H1923 H 0.40198 0.99944 0.51548 0.0
H1924 H 0.38261 0.05176 0.51913 0.0
H1925 H 0.32839 0.0201 0.54136 0.0
H1926 H 0.34504 0.02202 0.55521 0.0
H1927 H 0.34684 0.00988 0.53742 0.0
C1928 C 0.39161 0.00972 0.55362 0.0
C1929 C 0.39974 0.00176 0.54127 0.0
C1930 C 0.37999 0.02104 0.55003 0.0
C1931 C 0.37624 0.02453 0.53405 0.0
C1932 C 0.38417 0.01648 0.52171 0.0
H1933 H 0.31572 0.08128 0.47655 0.0
H1934 H 0.33651 0.06497 0.48852 0.0
C1935 C 0.39578 0.00516 0.52527 0.0
C1936 C 0.36455 0.03705 0.53007 0.0
H1937 H 0.32482 0.04596 0.5311 0.0
C1938 C 0.36998 0.05055 0.52182 0.0
C1939 C 0.34814 0.03549 0.53376 0.0
C1940 C 0.34166 0.02106 0.54232 0.0
C1941 C 0.35937 0.06238 0.51684 0.0
C1942 C 0.34286 0.06052 0.51997 0.0
C1943 C 0.3375 0.04734 0.52874 0.0
C1944 C 0.33083 0.0713 0.51298 0.0
C1945 C 0.36588 0.07672 0.50814 0.0
C1946 C 0.32062 0.08017 0.52279 0.0
C1947 C 0.30864 0.08956 0.51597 0.0
C1948 C 0.30658 0.09002 0.49922 0.0
C1949 C 0.31698 0.08123 0.48948 0.0
C1950 C 0.32895 0.07196 0.4963 0.0
H1951 H 0.3788 0.07882 0.51093 0.0
H1952 H 0.36457 0.07455 0.49503 0.0
H1953 H 0.35922 0.0877 0.51128 0.0
H1954 H 0.32184 0.07971 0.53571 0.0
H1955 H 0.30078 0.09613 0.52379 0.0
H1956 H 0.61814 0.50624 0.51608 0.0
H1957 H 0.63927 0.48653 0.51314 0.0
H1958 H 0.60662 0.44909 0.52737 0.0
H1959 H 0.58528 0.46866 0.53009 0.0
H1960 H 0.63744 0.44856 0.54286 0.0
H1961 H 0.64175 0.45245 0.47672 0.0
H1962 H 0.64325 0.47133 0.4873 0.0
H1963 H 0.62484 0.45992 0.48761 0.0
C1964 C 0.61536 0.49379 0.51842 0.0
C1965 C 0.59993 0.48905 0.52322 0.0
C1966 C 0.62749 0.48255 0.51676 0.0
C1967 C 0.62446 0.46632 0.51983 0.0
C1968 C 0.6092 0.46156 0.52491 0.0
H1969 H 0.68413 0.38596 0.49308 0.0
H1970 H 0.66205 0.40445 0.49703 0.0
C1971 C 0.59704 0.47279 0.52653 0.0
C1972 C 0.63725 0.45434 0.51783 0.0
H1973 H 0.6617 0.43747 0.49005 0.0
C1974 C 0.64273 0.44609 0.53131 0.0
C1975 C 0.64399 0.45101 0.50272 0.0
C1976 C 0.6381 0.45902 0.48771 0.0
C1977 C 0.655 0.43482 0.53015 0.0
C1978 C 0.66206 0.43184 0.51512 0.0
C1979 C 0.65636 0.43986 0.50158 0.0
C1980 C 0.67537 0.42042 0.51316 0.0
C1981 C 0.66019 0.42605 0.54496 0.0
C1982 C 0.69023 0.42331 0.52084 0.0
C1983 C 0.7029 0.41279 0.51858 0.0
C1984 C 0.70097 0.39916 0.50856 0.0
C1985 C 0.68604 0.39629 0.50091 0.0
C1986 C 0.6734 0.40686 0.50313 0.0
H1987 H 0.6511 0.42676 0.55451 0.0
H1988 H 0.66242 0.41325 0.54214 0.0
H1989 H 0.67151 0.43153 0.54974 0.0
H1990 H 0.6921 0.43385 0.5284 0.0
H1991 H 0.71424 0.4154 0.52461 0.0
H1992 H 0.74831 0.27429 0.35336 0.0
H1993 H 0.74943 0.29203 0.37688 0.0
H1994 H 0.69784 0.29136 0.37862 0.0
H1995 H 0.69661 0.27308 0.3554 0.0
H1996 H 0.73641 0.32235 0.38064 0.0
H1997 H 0.71093 0.27965 0.42436 0.0
H1998 H 0.71789 0.27325 0.40497 0.0
H1999 H 0.69896 0.28298 0.40669 0.0
C2000 C 0.73719 0.27771 0.35886 0.0
C2001 C 0.72238 0.27214 0.35255 0.0
C2002 C 0.73785 0.28797 0.37223 0.0
C2003 C 0.72373 0.29287 0.37962 0.0
C2004 C 0.70889 0.28752 0.37327 0.0
H2005 H 0.72146 0.35333 0.4677 0.0
H2006 H 0.71208 0.33961 0.44289 0.0
C2007 C 0.70822 0.27721 0.35989 0.0
C2008 C 0.72473 0.30369 0.39386 0.0
H2009 H 0.71851 0.30528 0.4342 0.0
C2010 C 0.73234 0.31868 0.39232 0.0
C2011 C 0.71931 0.29893 0.40907 0.0
C2012 C 0.71141 0.28279 0.41149 0.0
C2013 C 0.73517 0.3288 0.40567 0.0
C2014 C 0.73039 0.32373 0.42095 0.0
C2015 C 0.72209 0.30911 0.42242 0.0
C2016 C 0.73572 0.33247 0.4357 0.0
C2017 C 0.74363 0.34467 0.4034 0.0
C2018 C 0.75204 0.33281 0.43985 0.0
C2019 C 0.75738 0.34044 0.45394 0.0
C2020 C 0.74652 0.34796 0.46422 0.0
C2021 C 0.73013 0.3477 0.46 0.0
C2022 C 0.72475 0.33988 0.44588 0.0
H2023 H 0.74261 0.3487 0.39082 0.0
H2024 H 0.7387 0.35404 0.41143 0.0
H2025 H 0.75654 0.34342 0.40642 0.0
H2026 H 0.76066 0.32697 0.43225 0.0
H2027 H 0.77008 0.3404 0.45677 0.0
H2028 H 0.5075 0.07591 0.88621 0.0
H2029 H 0.52707 0.06961 0.86554 0.0
H2030 H 0.51698 0.01922 0.87102 0.0
H2031 H 0.49782 0.02534 0.89191 0.0
H2032 H 0.55018 0.02841 0.87296 0.0
H2033 H 0.5194 0.05243 0.81894 0.0
H2034 H 0.52138 0.06549 0.83623 0.0
H2035 H 0.5088 0.04793 0.83706 0.0
C2036 C 0.50942 0.0635 0.88295 0.0
C2037 C 0.50108 0.05112 0.89069 0.0
C2038 C 0.52049 0.05994 0.87106 0.0
C2039 C 0.52335 0.04396 0.8667 0.0
C2040 C 0.51486 0.03163 0.87418 0.0
H2041 H 0.57544 0.98288 0.80689 0.0
H2042 H 0.55932 0.99676 0.8266 0.0
C2043 C 0.50381 0.03516 0.88603 0.0
C2044 C 0.53579 0.03986 0.85498 0.0
H2045 H 0.54426 0.04011 0.81511 0.0
C2046 C 0.54897 0.0311 0.86033 0.0
C2047 C 0.53424 0.04357 0.83857 0.0
C2048 C 0.52017 0.05279 0.83224 0.0
C2049 C 0.56039 0.02544 0.84961 0.0
C2050 C 0.55843 0.02844 0.8331 0.0
C2051 C 0.54568 0.03786 0.8278 0.0
C2052 C 0.56845 0.02038 0.82108 0.0
C2053 C 0.57429 0.01599 0.85598 0.0
C2054 C 0.57874 0.02914 0.81126 0.0
C2055 C 0.58808 0.02121 0.79992 0.0
C2056 C 0.58706 0.00443 0.79814 0.0
C2057 C 0.57658 0.9958 0.80794 0.0
C2058 C 0.56738 0.00369 0.81927 0.0
H2059 H 0.57659 0.01856 0.86892 0.0
H2060 H 0.5715 0.00301 0.85454 0.0
H2061 H 0.58538 0.01867 0.84928 0.0
H2062 H 0.57962 0.04206 0.81245 0.0
H2063 H 0.59597 0.0282 0.79249 0.0
H2064 H 0.31173 0.26605 0.39127 0.0
H2065 H 0.30601 0.2442 0.40946 0.0
H2066 H 0.25537 0.24957 0.40062 0.0
H2067 H 0.261 0.27078 0.3816 0.0
H2068 H 0.28922 0.24105 0.43666 0.0
H2069 H 0.26159 0.20337 0.38787 0.0
H2070 H 0.27215 0.22186 0.38403 0.0
H2071 H 0.25195 0.22216 0.39118 0.0
C2072 C 0.29937 0.26253 0.39309 0.0
C2073 C 0.28685 0.26998 0.3847 0.0
C2074 C 0.29611 0.25015 0.40364 0.0
C2075 C 0.28029 0.24502 0.40613 0.0
C2076 C 0.2677 0.25308 0.39858 0.0
H2077 H 0.26014 0.16985 0.47649 0.0
H2078 H 0.26115 0.19585 0.46329 0.0
C2079 C 0.27094 0.26536 0.38786 0.0
C2080 C 0.27719 0.23067 0.41591 0.0
H2081 H 0.2623 0.19241 0.41361 0.0
C2082 C 0.28325 0.23043 0.43169 0.0
C2083 C 0.26954 0.21678 0.40929 0.0
C2084 C 0.26355 0.21593 0.39213 0.0
C2085 C 0.28221 0.21655 0.44092 0.0
C2086 C 0.27455 0.20268 0.43429 0.0
C2087 C 0.26811 0.20309 0.41868 0.0
C2088 C 0.27414 0.18721 0.44274 0.0
C2089 C 0.28993 0.21666 0.45739 0.0
C2090 C 0.28085 0.17368 0.43545 0.0
C2091 C 0.28006 0.15883 0.44281 0.0
C2092 C 0.27262 0.15718 0.45768 0.0
C2093 C 0.26606 0.17077 0.46509 0.0
C2094 C 0.2667 0.18565 0.45761 0.0
H2095 H 0.2985 0.22687 0.45913 0.0
H2096 H 0.28051 0.21779 0.46654 0.0
H2097 H 0.29639 0.20535 0.45951 0.0
H2098 H 0.28667 0.17461 0.42399 0.0
H2099 H 0.28528 0.14863 0.43679 0.0
H2100 H 0.47866 0.46274 0.89414 0.0
H2101 H 0.45866 0.46811 0.87326 0.0
H2102 H 0.49628 0.47945 0.84034 0.0
H2103 H 0.51642 0.47385 0.86111 0.0
H2104 H 0.45671 0.49897 0.85717 0.0
H2105 H 0.46534 0.44747 0.81516 0.0
H2106 H 0.47164 0.44699 0.83595 0.0
H2107 H 0.48296 0.45843 0.82196 0.0
C2108 C 0.48269 0.46606 0.88237 0.0
C2109 C 0.49912 0.46785 0.87926 0.0
C2110 C 0.47126 0.46922 0.8705 0.0
C2111 C 0.47602 0.47406 0.85527 0.0
C2112 C 0.49239 0.47555 0.85198 0.0
H2113 H 0.41501 0.49875 0.77281 0.0
H2114 H 0.43851 0.49383 0.78997 0.0
C2115 C 0.50385 0.47247 0.86389 0.0
C2116 C 0.46377 0.47846 0.8432 0.0
H2117 H 0.44608 0.46646 0.80778 0.0
C2118 C 0.45441 0.49191 0.84634 0.0
C2119 C 0.46099 0.46933 0.82901 0.0
C2120 C 0.47066 0.45468 0.82526 0.0
C2121 C 0.44212 0.49635 0.83576 0.0
C2122 C 0.43888 0.48685 0.82187 0.0
C2123 C 0.44858 0.47368 0.81846 0.0
C2124 C 0.42482 0.48982 0.81136 0.0
C2125 C 0.43272 0.51118 0.83956 0.0
C2126 C 0.40938 0.48894 0.81765 0.0
C2127 C 0.396 0.49177 0.80796 0.0
C2128 C 0.39775 0.49541 0.79168 0.0
C2129 C 0.41325 0.49605 0.78531 0.0
C2130 C 0.42668 0.49322 0.79507 0.0
H2131 H 0.43966 0.51961 0.84753 0.0
H2132 H 0.42925 0.51753 0.82848 0.0
H2133 H 0.42163 0.50769 0.84587 0.0
H2134 H 0.40765 0.48597 0.83009 0.0
H2135 H 0.38427 0.49104 0.81327 0.0
H2136 H 0.76743 0.73071 0.14301 0.0
H2137 H 0.77096 0.71199 0.1206 0.0
H2138 H 0.71991 0.70355 0.11782 0.0
H2139 H 0.71619 0.72272 0.13987 0.0
H2140 H 0.76243 0.67964 0.11759 0.0
H2141 H 0.73086 0.71587 0.072 0.0
H2142 H 0.73705 0.72399 0.09133 0.0
H2143 H 0.71941 0.71145 0.08945 0.0
C2144 C 0.75692 0.72501 0.13753 0.0
C2145 C 0.74151 0.72834 0.14313 0.0
C2146 C 0.75898 0.71422 0.12481 0.0
C2147 C 0.74568 0.70658 0.11739 0.0
C2148 C 0.73031 0.70955 0.12318 0.0
H2149 H 0.73873 0.64139 0.0348 0.0
H2150 H 0.73299 0.65734 0.05881 0.0
C2151 C 0.72823 0.72037 0.13591 0.0
C2152 C 0.748 0.69553 0.10359 0.0
H2153 H 0.7396 0.69034 0.06367 0.0
C2154 C 0.75743 0.68196 0.1058 0.0
C2155 C 0.74144 0.6986 0.08823 0.0
C2156 C 0.73173 0.71333 0.085 0.0
C2157 C 0.76047 0.67133 0.09306 0.0
C2158 C 0.75409 0.67451 0.07767 0.0
C2159 C 0.74445 0.68794 0.0755 0.0
C2160 C 0.75768 0.66435 0.06352 0.0
C2161 C 0.77036 0.65671 0.09619 0.0
C2162 C 0.77346 0.66311 0.05816 0.0
C2163 C 0.77679 0.65403 0.04444 0.0
C2164 C 0.76438 0.64608 0.03578 0.0
C2165 C 0.74857 0.64732 0.04121 0.0
C2166 C 0.74526 0.65644 0.05492 0.0
H2167 H 0.77071 0.65375 0.10912 0.0
H2168 H 0.76559 0.64616 0.08928 0.0
H2169 H 0.78284 0.65905 0.09238 0.0
H2170 H 0.78318 0.66938 0.06445 0.0
H2171 H 0.78908 0.65339 0.04056 0.0
H2172 H 0.98531 0.9935 0.10586 0.0
H2173 H 0.96672 0.99118 0.12805 0.0
H2174 H 0.96455 0.04262 0.13187 0.0
H2175 H 0.98342 0.04511 0.10987 0.0
H2176 H 0.97137 0.00437 0.15988 0.0
H2177 H 0.91684 0.02754 0.12961 0.0
H2178 H 0.93393 0.02059 0.11864 0.0
H2179 H 0.93462 0.03987 0.12846 0.0
C2180 C 0.98098 0.00435 0.11146 0.0
C2181 C 0.98593 0.0195 0.10607 0.0
C2182 C 0.97027 0.00299 0.12408 0.0
C2183 C 0.96413 0.01672 0.13149 0.0
C2184 C 0.96893 0.03187 0.12612 0.0
H2185 H 0.89812 0.02905 0.21069 0.0
H2186 H 0.91608 0.03327 0.18817 0.0
C2187 C 0.9797 0.03326 0.11352 0.0
C2188 C 0.95318 0.0151 0.14521 0.0
H2189 H 0.91485 0.02169 0.15711 0.0
C2190 C 0.95901 0.00813 0.15928 0.0
C2191 C 0.9371 0.02014 0.14443 0.0
C2192 C 0.93014 0.02735 0.12945 0.0
C2193 C 0.94921 0.00613 0.17264 0.0
C2194 C 0.93301 0.01086 0.17177 0.0
C2195 C 0.92724 0.01802 0.15775 0.0
C2196 C 0.92184 0.00824 0.1852 0.0
C2197 C 0.95642 0.99923 0.18767 0.0
C2198 C 0.91884 0.99274 0.1908 0.0
C2199 C 0.90867 0.99029 0.2037 0.0
C2200 C 0.9011 0.00329 0.21117 0.0
C2201 C 0.90378 0.01877 0.20525 0.0
C2202 C 0.91403 0.02121 0.19237 0.0
H2203 H 0.96967 0.00069 0.18803 0.0
H2204 H 0.9515 0.005 0.19856 0.0
H2205 H 0.95356 0.98622 0.18799 0.0
H2206 H 0.9244 0.98249 0.18519 0.0
H2207 H 0.90677 0.97819 0.20783 0.0
H2208 H 0.25463 0.75728 0.14907 0.0
H2209 H 0.25042 0.77418 0.12591 0.0
H2210 H 0.27515 0.81335 0.15039 0.0
H2211 H 0.2786 0.79682 0.17408 0.0
H2212 H 0.24901 0.82349 0.13284 0.0
H2213 H 0.28685 0.78372 0.09602 0.0
H2214 H 0.26998 0.77356 0.1045 0.0
H2215 H 0.28551 0.78191 0.11744 0.0
C2216 C 0.25888 0.76959 0.14974 0.0
C2217 C 0.2671 0.77561 0.16347 0.0
C2218 C 0.25663 0.77919 0.13637 0.0
C2219 C 0.26278 0.79491 0.13628 0.0
C2220 C 0.27042 0.8012 0.15015 0.0
H2221 H 0.28815 0.84551 0.05166 0.0
H2222 H 0.28695 0.83296 0.07775 0.0
C2223 C 0.27254 0.79166 0.16362 0.0
C2224 C 0.26201 0.80448 0.12147 0.0
H2225 H 0.27362 0.80445 0.08249 0.0
C2226 C 0.25439 0.81937 0.12181 0.0
C2227 C 0.26923 0.79917 0.10717 0.0
C2228 C 0.27849 0.7838 0.10625 0.0
C2229 C 0.25377 0.82906 0.10819 0.0
C2230 C 0.26069 0.82355 0.0938 0.0
C2231 C 0.26823 0.80864 0.0935 0.0
C2232 C 0.26109 0.83321 0.07902 0.0
C2233 C 0.24612 0.84526 0.10945 0.0
C2234 C 0.24694 0.83796 0.07118 0.0
C2235 C 0.24762 0.84541 0.05626 0.0
C2236 C 0.26243 0.84789 0.04885 0.0
C2237 C 0.27654 0.84362 0.057 0.0
C2238 C 0.27588 0.83644 0.07192 0.0
H2239 H 0.24515 0.84937 0.12211 0.0
H2240 H 0.25306 0.85437 0.10279 0.0
H2241 H 0.23386 0.8445 0.10416 0.0
H2242 H 0.23537 0.83532 0.07627 0.0
H2243 H 0.23655 0.84848 0.05018 0.0
H2244 H 0.03237 0.44049 0.10465 0.0
H2245 H 0.05089 0.44853 0.1263 0.0
H2246 H 0.04895 0.49759 0.11109 0.0
H2247 H 0.03023 0.48961 0.08935 0.0
H2248 H 0.08075 0.46376 0.12661 0.0
H2249 H 0.03527 0.50058 0.15772 0.0
H2250 H 0.03 0.48698 0.14142 0.0
H2251 H 0.03957 0.50588 0.13745 0.0
C2252 C 0.03607 0.45295 0.10574 0.0
C2253 C 0.0298 0.46444 0.09535 0.0
C2254 C 0.04662 0.45754 0.11814 0.0
C2255 C 0.05111 0.47368 0.12042 0.0
C2256 C 0.04537 0.48512 0.10972 0.0
H2257 H 0.10288 0.50721 0.20799 0.0
H2258 H 0.09263 0.50752 0.18026 0.0
C2259 C 0.03471 0.48055 0.09732 0.0
C2260 C 0.06124 0.47835 0.13448 0.0
H2261 H 0.05993 0.4973 0.17096 0.0
C2262 C 0.07631 0.4713 0.13621 0.0
C2263 C 0.05543 0.48825 0.14695 0.0
C2264 C 0.03915 0.4958 0.14594 0.0
C2265 C 0.0854 0.47328 0.15038 0.0
C2266 C 0.07919 0.48244 0.16314 0.0
C2267 C 0.06461 0.4903 0.16109 0.0
C2268 C 0.08653 0.48226 0.17934 0.0
C2269 C 0.10133 0.46513 0.15182 0.0
C2270 C 0.08634 0.46799 0.18794 0.0
C2271 C 0.09197 0.46779 0.20373 0.0
C2272 C 0.09796 0.48188 0.21124 0.0
C2273 C 0.09839 0.49615 0.20251 0.0
C2274 C 0.09257 0.49636 0.1867 0.0
H2275 H 0.10642 0.46248 0.13987 0.0
H2276 H 0.11006 0.47264 0.1589 0.0
H2277 H 0.09968 0.45361 0.15808 0.0
H2278 H 0.08146 0.45704 0.18253 0.0
H2279 H 0.0915 0.4566 0.21009 0.0
H2280 H 0.35266 0.68781 0.26768 0.0
H2281 H 0.37821 0.68982 0.2825 0.0
H2282 H 0.37219 0.74075 0.28831 0.0
H2283 H 0.34654 0.73882 0.27376 0.0
H2284 H 0.40558 0.70871 0.27473 0.0
H2285 H 0.38181 0.72522 0.33428 0.0
H2286 H 0.36941 0.71642 0.31844 0.0
H2287 H 0.37452 0.73741 0.31828 0.0
C2288 C 0.3567 0.69941 0.27227 0.0
C2289 C 0.34755 0.71316 0.2696 0.0
C2290 C 0.37132 0.70054 0.28066 0.0
C2291 C 0.37695 0.71538 0.2867 0.0
C2292 C 0.36791 0.72913 0.28398 0.0
H2293 H 0.46705 0.75603 0.31194 0.0
H2294 H 0.4425 0.74545 0.29936 0.0
C2295 C 0.35335 0.72804 0.27552 0.0
C2296 C 0.39255 0.71668 0.29534 0.0
H2297 H 0.40991 0.72955 0.33064 0.0
C2298 C 0.40654 0.71306 0.28702 0.0
C2299 C 0.39374 0.72211 0.31146 0.0
C2300 C 0.37907 0.72537 0.32122 0.0
C2301 C 0.42174 0.71555 0.29413 0.0
C2302 C 0.42294 0.72194 0.30989 0.0
C2303 C 0.40895 0.72474 0.31851 0.0
C2304 C 0.43851 0.72725 0.31706 0.0
C2305 C 0.43641 0.71163 0.2846 0.0
C2306 C 0.44438 0.72057 0.33129 0.0
C2307 C 0.45852 0.7266 0.33855 0.0
C2308 C 0.46682 0.73958 0.33183 0.0
C2309 C 0.46096 0.74604 0.31746 0.0
C2310 C 0.44697 0.73994 0.31017 0.0
H2311 H 0.43361 0.7027 0.27492 0.0
H2312 H 0.441 0.72269 0.27896 0.0
H2313 H 0.44605 0.7069 0.29244 0.0
H2314 H 0.43791 0.71084 0.33684 0.0
H2315 H 0.46268 0.72142 0.34965 0.0
H2316 H 0.94887 0.38483 0.97635 0.0
H2317 H 0.95472 0.36168 0.95933 0.0
H2318 H 0.98044 0.34018 0.99843 0.0
H2319 H 0.97432 0.36313 0.01573 0.0
H2320 H 0.9978 0.3427 0.9695 0.0
H2321 H 0.93776 0.31474 0.95914 0.0
H2322 H 0.93843 0.33598 0.95601 0.0
H2323 H 0.94217 0.32838 0.97571 0.0
C2324 C 0.95541 0.37501 0.98149 0.0
C2325 C 0.96115 0.37588 0.99742 0.0
C2326 C 0.95876 0.36179 0.97172 0.0
C2327 C 0.96788 0.34917 0.97768 0.0
C2328 C 0.97334 0.34979 0.99364 0.0
H2329 H 0.99036 0.26504 0.91742 0.0
H2330 H 0.98353 0.28133 0.94104 0.0
C2331 C 0.96992 0.36297 0.00346 0.0
C2332 C 0.97286 0.33607 0.9668 0.0
H2333 H 0.9583 0.3071 0.94093 0.0
C2334 C 0.9892 0.33474 0.96344 0.0
C2335 C 0.96162 0.32563 0.95903 0.0
C2336 C 0.94402 0.32611 0.96274 0.0
C2337 C 0.99451 0.32378 0.95186 0.0
C2338 C 0.98318 0.31398 0.94345 0.0
C2339 C 0.96693 0.31471 0.94738 0.0
C2340 C 0.98781 0.304 0.92957 0.0
C2341 C 0.01215 0.32301 0.94839 0.0
C2342 C 0.9924 0.31141 0.91539 0.0
C2343 C 0.99616 0.30221 0.90192 0.0
C2344 C 0.99547 0.28539 0.90239 0.0
C2345 C 0.99107 0.27796 0.91671 0.0
C2346 C 0.98714 0.28722 0.93018 0.0
H2347 H 0.01957 0.32849 0.95826 0.0
H2348 H 0.01585 0.31042 0.94648 0.0
H2349 H 0.01463 0.32966 0.93727 0.0
H2350 H 0.99283 0.32435 0.91467 0.0
H2351 H 0.99952 0.30832 0.8911 0.0
H2352 H 0.6785 0.76339 0.28423 0.0
H2353 H 0.65711 0.76038 0.30378 0.0
H2354 H 0.62402 0.74642 0.26568 0.0
H2355 H 0.64535 0.74913 0.24622 0.0
H2356 H 0.63034 0.77644 0.30611 0.0
H2357 H 0.61411 0.71255 0.29761 0.0
H2358 H 0.63223 0.72114 0.28967 0.0
H2359 H 0.61347 0.72267 0.27886 0.0
C2360 C 0.66668 0.75956 0.28007 0.0
C2361 C 0.66362 0.7564 0.26371 0.0
C2362 C 0.65449 0.75778 0.29125 0.0
C2363 C 0.63902 0.75283 0.28627 0.0
C2364 C 0.63596 0.74971 0.26992 0.0
H2365 H 0.54852 0.77727 0.32097 0.0
H2366 H 0.57497 0.77493 0.30958 0.0
C2367 C 0.64816 0.75135 0.25878 0.0
C2368 C 0.62571 0.75219 0.29786 0.0
H2369 H 0.59361 0.72935 0.309 0.0
C2370 C 0.62249 0.76602 0.30695 0.0
C2371 C 0.61562 0.73851 0.2993 0.0
C2372 C 0.61915 0.72283 0.29096 0.0
C2373 C 0.60891 0.7669 0.31658 0.0
C2374 C 0.59803 0.75374 0.31682 0.0
C2375 C 0.6018 0.73953 0.30861 0.0
C2376 C 0.58207 0.75505 0.32424 0.0
C2377 C 0.60622 0.78204 0.32619 0.0
C2378 C 0.577 0.74428 0.33596 0.0
C2379 C 0.56166 0.74547 0.34246 0.0
C2380 C 0.55115 0.7574 0.33725 0.0
C2381 C 0.5563 0.76802 0.3254 0.0
C2382 C 0.57151 0.76679 0.31893 0.0
H2383 H 0.61775 0.78827 0.32925 0.0
H2384 H 0.59892 0.79033 0.31895 0.0
H2385 H 0.5998 0.77953 0.33745 0.0
H2386 H 0.58491 0.735 0.3401 0.0
H2387 H 0.55805 0.73706 0.35152 0.0
H2388 H 0.04521 0.10318 0.98626 0.0
H2389 H 0.04254 0.12429 0.96644 0.0
H2390 H 0.99142 0.11619 0.96449 0.0
H2391 H 0.99398 0.09506 0.98427 0.0
H2392 H 0.03036 0.12293 0.93544 0.0
H2393 H 0.99511 0.16434 0.97307 0.0
H2394 H 0.00544 0.1474 0.98122 0.0
H2395 H 0.98643 0.14459 0.97104 0.0
C2396 C 0.0334 0.10582 0.98155 0.0
C2397 C 0.01979 0.09748 0.98694 0.0
C2398 C 0.03189 0.11794 0.97027 0.0
C2399 C 0.01676 0.122 0.96417 0.0
C2400 C 0.00318 0.11353 0.96931 0.0
H2401 H 0.99684 0.1773 0.87868 0.0
H2402 H 9e-05 0.15611 0.89831 0.0
C2403 C 0.00467 0.10144 0.98062 0.0
C2404 C 0.01521 0.13495 0.95226 0.0
H2405 H 0.99758 0.17094 0.94564 0.0
C2406 C 0.02323 0.13345 0.93767 0.0
C2407 C 0.00608 0.14878 0.95529 0.0
C2408 C 0.99789 0.1515 0.97106 0.0
C2409 C 0.02215 0.14527 0.92593 0.0
C2410 C 0.01258 0.15884 0.92874 0.0
C2411 C 0.00478 0.16046 0.94343 0.0
C2412 C 0.0107 0.17164 0.91671 0.0
C2413 C 0.03152 0.14326 0.91074 0.0
C2414 C 0.01523 0.18749 0.92063 0.0
C2415 C 0.01327 0.19966 0.90948 0.0
C2416 C 0.00667 0.19624 0.89417 0.0
C2417 C 0.00206 0.18035 0.89031 0.0
C2418 C 0.004 0.16819 0.90149 0.0
H2419 H 0.04143 0.13466 0.91225 0.0
H2420 H 0.0234 0.13855 0.90106 0.0
H2421 H 0.03663 0.1549 0.90686 0.0
H2422 H 0.02036 0.19045 0.93233 0.0
H2423 H 0.01693 0.21175 0.91289 0.0
H2424 H 0.37386 0.26701 0.27482 0.0
H2425 H 0.3934 0.2605 0.25442 0.0
H2426 H 0.40096 0.31081 0.24577 0.0
H2427 H 0.38228 0.31748 0.26689 0.0
H2428 H 0.39085 0.26603 0.22392 0.0
H2429 H 0.44625 0.29625 0.24634 0.0
H2430 H 0.429 0.29339 0.25878 0.0
H2431 H 0.43005 0.31003 0.24534 0.0
C2432 C 0.38002 0.27673 0.26894 0.0
C2433 C 0.37646 0.29279 0.27254 0.0
C2434 C 0.39111 0.27297 0.25717 0.0
C2435 C 0.39884 0.28515 0.2487 0.0
C2436 C 0.39548 0.30119 0.2524 0.0
H2437 H 0.42962 0.28079 0.15188 0.0
H2438 H 0.41611 0.28399 0.17735 0.0
C2439 C 0.38454 0.30498 0.2643 0.0
C2440 C 0.40921 0.2811 0.235 0.0
H2441 H 0.4451 0.29003 0.21796 0.0
C2442 C 0.40281 0.2711 0.22275 0.0
C2443 C 0.42493 0.28746 0.23355 0.0
C2444 C 0.43301 0.29723 0.24681 0.0
C2445 C 0.41138 0.26787 0.20881 0.0
C2446 C 0.42657 0.27525 0.20683 0.0
C2447 C 0.43332 0.28462 0.21938 0.0
C2448 C 0.43525 0.2739 0.19155 0.0
C2449 C 0.40403 0.25658 0.19634 0.0
C2450 C 0.45084 0.26785 0.19116 0.0
C2451 C 0.45874 0.26623 0.17658 0.0
C2452 C 0.45115 0.27062 0.16218 0.0
C2453 C 0.43572 0.27709 0.16272 0.0
C2454 C 0.42793 0.27884 0.17726 0.0
H2455 H 0.39538 0.24808 0.20177 0.0
H2456 H 0.39738 0.26361 0.18732 0.0
H2457 H 0.41333 0.2496 0.1901 0.0
H2458 H 0.45676 0.26412 0.20208 0.0
H2459 H 0.47064 0.26125 0.17655 0.0
H2460 H 0.50322 0.3899 0.99742 0.0
H2461 H 0.4987 0.3711 0.01907 0.0
H2462 H 0.54965 0.36494 0.02458 0.0
H2463 H 0.55429 0.38344 0.00257 0.0
H2464 H 0.53157 0.33604 0.02477 0.0
H2465 H 0.50734 0.38121 0.06681 0.0
H2466 H 0.49745 0.38094 0.04756 0.0
H2467 H 0.51829 0.38662 0.04917 0.0
C2468 C 0.51347 0.3844 0.00309 0.0
C2469 C 0.52912 0.3882 0.99831 0.0
C2470 C 0.51087 0.37382 0.01559 0.0
C2471 C 0.52386 0.36691 0.02362 0.0
C2472 C 0.53949 0.37031 0.01864 0.0
H2473 H 0.51772 0.29478 0.0998 0.0
H2474 H 0.52918 0.31486 0.08191 0.0
C2475 C 0.5421 0.38092 0.00612 0.0
C2476 C 0.521 0.35598 0.03709 0.0
H2477 H 0.50251 0.35371 0.07315 0.0
C2478 C 0.52546 0.33991 0.03549 0.0
C2479 C 0.51315 0.36115 0.05109 0.0
C2480 C 0.50892 0.37846 0.05388 0.0
C2481 C 0.52139 0.32865 0.04711 0.0
C2482 C 0.51285 0.33369 0.06073 0.0
C2483 C 0.50904 0.3499 0.06266 0.0
C2484 C 0.50627 0.32212 0.07223 0.0
C2485 C 0.52551 0.3113 0.04438 0.0
C2486 C 0.48964 0.31991 0.07296 0.0
C2487 C 0.48309 0.30855 0.08311 0.0
C2488 C 0.49305 0.2992 0.09283 0.0
C2489 C 0.50974 0.30176 0.09244 0.0
C2490 C 0.5163 0.31314 0.08218 0.0
H2491 H 0.53012 0.30903 0.03215 0.0
H2492 H 0.53485 0.30783 0.0532 0.0
H2493 H 0.51482 0.30349 0.04616 0.0
H2494 H 0.48171 0.32676 0.0654 0.0
H2495 H 0.47019 0.30697 0.08316 0.0
H2496 H 0.64898 0.26909 0.22649 0.0
H2497 H 0.62638 0.2716 0.20773 0.0
H2498 H 0.61917 0.22035 0.20751 0.0
H2499 H 0.64185 0.21773 0.22619 0.0
H2500 H 0.61684 0.23295 0.17731 0.0
H2501 H 0.57962 0.26704 0.21997 0.0
H2502 H 0.59888 0.27614 0.2167 0.0
H2503 H 0.59759 0.25695 0.22612 0.0
C2504 C 0.64253 0.25836 0.22249 0.0
C2505 C 0.6471 0.24323 0.22791 0.0
C2506 C 0.62962 0.25982 0.21179 0.0
C2507 C 0.6209 0.24619 0.20647 0.0
C2508 C 0.6257 0.23103 0.21152 0.0
H2509 H 0.52548 0.24627 0.16423 0.0
H2510 H 0.54923 0.24251 0.18111 0.0
C2511 C 0.63868 0.22955 0.22214 0.0
C2512 C 0.60669 0.24775 0.19576 0.0
H2513 H 0.56995 0.26497 0.19313 0.0
C2514 C 0.60656 0.23991 0.18076 0.0
C2515 C 0.5932 0.25665 0.20041 0.0
C2516 C 0.5922 0.26455 0.21674 0.0
C2517 C 0.59338 0.24091 0.17018 0.0
C2518 C 0.58012 0.25026 0.1746 0.0
C2519 C 0.58019 0.25793 0.18969 0.0
C2520 C 0.56589 0.25203 0.16396 0.0
C2521 C 0.59365 0.23167 0.15451 0.0
C2522 C 0.56733 0.2587 0.14871 0.0
C2523 C 0.55376 0.26078 0.13896 0.0
C2524 C 0.53847 0.2564 0.14438 0.0
C2525 C 0.53707 0.24978 0.15968 0.0
C2526 C 0.55064 0.24762 0.16936 0.0
H2527 H 0.6024 0.22179 0.1549 0.0
H2528 H 0.58163 0.22652 0.1514 0.0
H2529 H 0.59723 0.23986 0.14483 0.0
H2530 H 0.57893 0.26254 0.14443 0.0
H2531 H 0.55525 0.26602 0.12729 0.0
H2532 H 0.46468 0.08942 0.04251 0.0
H2533 H 0.47045 0.11058 0.06259 0.0
H2534 H 0.47387 0.14527 0.02501 0.0
H2535 H 0.46839 0.12422 0.00496 0.0
H2536 H 0.49716 0.14987 0.04829 0.0
H2537 H 0.43695 0.14293 0.07521 0.0
H2538 H 0.44905 0.12534 0.07523 0.0
H2539 H 0.44205 0.13329 0.05655 0.0
C2540 C 0.46673 0.10157 0.03857 0.0
C2541 C 0.46599 0.10522 0.0222 0.0
C2542 C 0.47 0.11362 0.05003 0.0
C2543 C 0.47232 0.12953 0.04529 0.0
C2544 C 0.47213 0.13307 0.02892 0.0
H2545 H 0.45305 0.21974 0.08529 0.0
H2546 H 0.45426 0.19344 0.07247 0.0
C2547 C 0.46902 0.12103 0.01748 0.0
C2548 C 0.47414 0.14275 0.05723 0.0
H2549 H 0.45365 0.16352 0.08561 0.0
C2550 C 0.48776 0.15278 0.05661 0.0
C2551 C 0.46177 0.14652 0.06799 0.0
C2552 C 0.44656 0.13656 0.06877 0.0
C2553 C 0.48906 0.16686 0.06597 0.0
C2554 C 0.47653 0.1708 0.07645 0.0
C2555 C 0.46325 0.1604 0.0776 0.0
C2556 C 0.47597 0.18652 0.08485 0.0
C2557 C 0.50338 0.17784 0.06389 0.0
C2558 C 0.48772 0.19131 0.09622 0.0
C2559 C 0.48714 0.20649 0.10354 0.0
C2560 C 0.47471 0.21701 0.0997 0.0
C2561 C 0.46281 0.21197 0.08855 0.0
C2562 C 0.46345 0.19691 0.08121 0.0
H2563 H 0.51043 0.1745 0.05321 0.0
H2564 H 0.49956 0.19045 0.0627 0.0
H2565 H 0.51136 0.17717 0.0746 0.0
H2566 H 0.49733 0.18335 0.09941 0.0
H2567 H 0.49643 0.20997 0.11216 0.0
H2568 H 0.26311 0.3512 0.69804 0.0
H2569 H 0.27968 0.37569 0.69773 0.0
H2570 H 0.28726 0.37269 0.74879 0.0
H2571 H 0.27102 0.34808 0.74916 0.0
H2572 H 0.27429 0.40451 0.7146 0.0
H2573 H 0.33285 0.3789 0.73155 0.0
H2574 H 0.31614 0.36671 0.72423 0.0
H2575 H 0.31704 0.37339 0.74481 0.0
C2576 C 0.26849 0.35565 0.70916 0.0
C2577 C 0.26578 0.34769 0.72363 0.0
C2578 C 0.27788 0.36966 0.70897 0.0
C2579 C 0.28489 0.37585 0.72319 0.0
C2580 C 0.2822 0.36794 0.73763 0.0
H2581 H 0.31389 0.46633 0.75874 0.0
H2582 H 0.30045 0.44188 0.74912 0.0
C2583 C 0.27276 0.35399 0.73785 0.0
C2584 C 0.29436 0.391 0.72317 0.0
H2585 H 0.33051 0.40739 0.73473 0.0
C2586 C 0.28666 0.40512 0.71875 0.0
C2587 C 0.31058 0.39174 0.72833 0.0
C2588 C 0.31971 0.37685 0.73235 0.0
C2589 C 0.29447 0.42008 0.7203 0.0
C2590 C 0.31031 0.42092 0.72656 0.0
C2591 C 0.31833 0.40673 0.73004 0.0
C2592 C 0.31808 0.4364 0.73123 0.0
C2593 C 0.28558 0.43492 0.71561 0.0
C2594 C 0.33255 0.4414 0.72442 0.0
C2595 C 0.34033 0.4555 0.7299 0.0
C2596 C 0.33385 0.4646 0.74248 0.0
C2597 C 0.31924 0.4596 0.74907 0.0
C2598 C 0.31146 0.44567 0.7435 0.0
H2599 H 0.27586 0.43208 0.70672 0.0
H2600 H 0.28004 0.44025 0.7264 0.0
H2601 H 0.29382 0.444 0.71049 0.0
H2602 H 0.33791 0.4343 0.71501 0.0
H2603 H 0.3516 0.45899 0.72464 0.0
H2604 H 0.26396 0.65408 0.7797 0.0
H2605 H 0.28157 0.63115 0.77682 0.0
H2606 H 0.2899 0.64331 0.72764 0.0
H2607 H 0.27242 0.66651 0.73047 0.0
H2608 H 0.27592 0.60571 0.75215 0.0
H2609 H 0.33573 0.63593 0.74862 0.0
H2610 H 0.31885 0.64553 0.7578 0.0
H2611 H 0.31952 0.6433 0.73644 0.0
C2612 C 0.26975 0.65207 0.76835 0.0
C2613 C 0.26682 0.66214 0.75532 0.0
C2614 C 0.27974 0.63892 0.7667 0.0
C2615 C 0.28711 0.63563 0.75206 0.0
C2616 C 0.28444 0.64576 0.73908 0.0
H2617 H 0.34812 0.55205 0.73276 0.0
H2618 H 0.3341 0.57746 0.72893 0.0
C2619 C 0.27436 0.65891 0.74069 0.0
C2620 C 0.29675 0.62102 0.75028 0.0
H2621 H 0.33515 0.60769 0.74805 0.0
C2622 C 0.28885 0.60613 0.7511 0.0
C2623 C 0.31358 0.62165 0.74872 0.0
C2624 C 0.32254 0.63742 0.7479 0.0
C2625 C 0.29739 0.59182 0.75089 0.0
C2626 C 0.3143 0.59244 0.75017 0.0
C2627 C 0.32218 0.60729 0.74864 0.0
C2628 C 0.32388 0.57787 0.75258 0.0
C2629 C 0.28824 0.57613 0.75172 0.0
C2630 C 0.32315 0.57005 0.76726 0.0
C2631 C 0.33104 0.55567 0.76947 0.0
C2632 C 0.33996 0.54878 0.75705 0.0
C2633 C 0.3413 0.55701 0.74253 0.0
C2634 C 0.33331 0.57149 0.74032 0.0
H2635 H 0.27562 0.57736 0.74757 0.0
H2636 H 0.29398 0.5667 0.74436 0.0
H2637 H 0.28811 0.57213 0.76433 0.0
H2638 H 0.31618 0.57495 0.77697 0.0
H2639 H 0.32989 0.5498 0.78088 0.0
H2640 H 0.88826 0.48151 0.45319 0.0
H2641 H 0.86404 0.46661 0.4601 0.0
H2642 H 0.84848 0.50663 0.48883 0.0
H2643 H 0.87264 0.52177 0.48178 0.0
H2644 H 0.84821 0.47796 0.505 0.0
H2645 H 0.81704 0.47065 0.44631 0.0
H2646 H 0.83767 0.465 0.44553 0.0
H2647 H 0.83272 0.48548 0.44997 0.0
C2648 C 0.87952 0.48732 0.46065 0.0
C2649 C 0.88241 0.50284 0.46694 0.0
C2650 C 0.86565 0.47878 0.46459 0.0
C2651 C 0.85436 0.4856 0.47481 0.0
C2652 C 0.85702 0.50119 0.48086 0.0
H2653 H 0.76926 0.42583 0.49588 0.0
H2654 H 0.78509 0.4501 0.49021 0.0
C2655 C 0.87088 0.50977 0.4769 0.0
C2656 C 0.84059 0.47583 0.48027 0.0
H2657 H 0.80984 0.45165 0.46658 0.0
C2658 C 0.83962 0.47245 0.49664 0.0
C2659 C 0.82923 0.46885 0.4694 0.0
C2660 C 0.82909 0.47281 0.45184 0.0
C2661 C 0.82828 0.46142 0.50227 0.0
C2662 C 0.81779 0.45347 0.49122 0.0
C2663 C 0.81801 0.45766 0.47502 0.0
C2664 C 0.80791 0.43949 0.49589 0.0
C2665 C 0.82797 0.45796 0.51994 0.0
C2666 C 0.81553 0.42557 0.50094 0.0
C2667 C 0.80661 0.41176 0.50405 0.0
C2668 C 0.78984 0.41156 0.50219 0.0
C2669 C 0.78215 0.42565 0.49751 0.0
C2670 C 0.79116 0.43949 0.49423 0.0
H2671 H 0.83301 0.46817 0.52719 0.0
H2672 H 0.81557 0.45537 0.5239 0.0
H2673 H 0.83536 0.44732 0.52237 0.0
H2674 H 0.82847 0.42525 0.50202 0.0
H2675 H 0.81292 0.40114 0.50765 0.0
H2676 H 0.75926 0.88246 0.82054 0.0
H2677 H 0.73755 0.90126 0.81612 0.0
H2678 H 0.74258 0.89557 0.76504 0.0
H2679 H 0.76368 0.87613 0.76929 0.0
H2680 H 0.73563 0.92994 0.8004 0.0
H2681 H 0.69583 0.88381 0.77136 0.0
H2682 H 0.71411 0.87883 0.78179 0.0
H2683 H 0.71474 0.8863 0.76173 0.0
C2684 C 0.75567 0.8851 0.80835 0.0
C2685 C 0.76309 0.8776 0.79527 0.0
C2686 C 0.74337 0.89597 0.80586 0.0
C2687 C 0.73828 0.89958 0.79026 0.0
C2688 C 0.74613 0.89271 0.77718 0.0
H2689 H 0.67071 0.97457 0.76497 0.0
H2690 H 0.69521 0.95944 0.76958 0.0
C2691 C 0.75833 0.88173 0.77965 0.0
C2692 C 0.72434 0.91004 0.78772 0.0
H2693 H 0.68666 0.91043 0.77137 0.0
C2694 C 0.7249 0.92572 0.79406 0.0
C2695 C 0.7103 0.90438 0.77963 0.0
C2696 C 0.70859 0.88737 0.77336 0.0
C2697 C 0.71178 0.93592 0.79249 0.0
C2698 C 0.69788 0.93036 0.78409 0.0
C2699 C 0.69737 0.9147 0.77773 0.0
C2700 C 0.68341 0.94024 0.7822 0.0
C2701 C 0.71275 0.95237 0.80021 0.0
C2702 C 0.66865 0.93441 0.78762 0.0
C2703 C 0.65465 0.94288 0.7848 0.0
C2704 C 0.65513 0.95741 0.77654 0.0
C2705 C 0.66998 0.96347 0.77147 0.0
C2706 C 0.684 0.95488 0.77416 0.0
H2707 H 0.72231 0.95319 0.80961 0.0
H2708 H 0.71556 0.96133 0.79095 0.0
H2709 H 0.70117 0.95558 0.80568 0.0
H2710 H 0.66792 0.92315 0.79385 0.0
H2711 H 0.64342 0.93791 0.78894 0.0
H2712 H 0.59426 0.52745 0.96586 0.0
H2713 H 0.61553 0.54784 0.96927 0.0
H2714 H 0.64993 0.51075 0.97761 0.0
H2715 H 0.62871 0.4904 0.97452 0.0
H2716 H 0.65408 0.53597 0.99844 0.0
H2717 H 0.64884 0.55732 0.93587 0.0
H2718 H 0.6308 0.55858 0.94721 0.0
H2719 H 0.63892 0.5393 0.94243 0.0
C2720 C 0.60638 0.52369 0.96841 0.0
C2721 C 0.60988 0.50736 0.96985 0.0
C2722 C 0.6185 0.53533 0.97032 0.0
C2723 C 0.63435 0.53079 0.97344 0.0
C2724 C 0.63778 0.51451 0.97521 0.0
H2725 H 0.72434 0.57366 0.95473 0.0
H2726 H 0.69862 0.55959 0.95526 0.0
C2727 C 0.62566 0.5029 0.97346 0.0
C2728 C 0.64753 0.54284 0.97451 0.0
H2729 H 0.66814 0.57021 0.9526 0.0
C2730 C 0.65711 0.54356 0.98848 0.0
C2731 C 0.65147 0.55264 0.96143 0.0
C2732 C 0.64208 0.55188 0.94583 0.0
C2733 C 0.67083 0.55346 0.98956 0.0
C2734 C 0.67483 0.56317 0.97644 0.0
C2735 C 0.66496 0.56283 0.96267 0.0
C2736 C 0.69006 0.57246 0.97604 0.0
C2737 C 0.68133 0.55281 0.00442 0.0
C2738 C 0.6937 0.58458 0.98743 0.0
C2739 C 0.70855 0.5926 0.98726 0.0
C2740 C 0.71987 0.58874 0.97558 0.0
C2741 C 0.71593 0.57694 0.96392 0.0
C2742 C 0.7012 0.56888 0.96417 0.0
H2743 H 0.6784 0.54227 0.01185 0.0
H2744 H 0.69417 0.55232 0.00122 0.0
H2745 H 0.67956 0.56377 0.01182 0.0
H2746 H 0.68513 0.58776 0.99649 0.0
H2747 H 0.71117 0.60172 0.99633 0.0
H2748 H 0.19423 0.67011 0.23025 0.0
H2749 H 0.17637 0.64715 0.23483 0.0
H2750 H 0.21709 0.61613 0.2372 0.0
H2751 H 0.235 0.6389 0.23239 0.0
H2752 H 0.17319 0.61826 0.2162 0.0
H2753 H 0.19273 0.60677 0.27877 0.0
H2754 H 0.19697 0.62542 0.2689 0.0
H2755 H 0.20877 0.60807 0.26474 0.0
C2756 C 0.19938 0.65839 0.23166 0.0
C2757 C 0.21606 0.65636 0.23104 0.0
C2758 C 0.18917 0.64531 0.23435 0.0
C2759 C 0.19544 0.63002 0.2366 0.0
C2760 C 0.21204 0.62791 0.23585 0.0
H2761 H 0.15951 0.53434 0.25146 0.0
H2762 H 0.1754 0.55876 0.24768 0.0
C2763 C 0.22226 0.64095 0.23313 0.0
C2764 C 0.18464 0.61613 0.23932 0.0
H2765 H 0.17616 0.58681 0.26604 0.0
C2766 C 0.17371 0.61144 0.22713 0.0
C2767 C 0.18541 0.60729 0.2536 0.0
C2768 C 0.19649 0.61219 0.26733 0.0
C2769 C 0.16384 0.59779 0.22865 0.0
C2770 C 0.16474 0.58883 0.24287 0.0
C2771 C 0.17552 0.59369 0.25514 0.0
C2772 C 0.15493 0.57413 0.24511 0.0
C2773 C 0.15293 0.5928 0.21482 0.0
C2774 C 0.13814 0.5747 0.2451 0.0
C2775 C 0.129 0.56074 0.24721 0.0
C2776 C 0.13651 0.54597 0.2495 0.0
C2777 C 0.15334 0.5455 0.2497 0.0
C2778 C 0.16245 0.55945 0.24756 0.0
H2779 H 0.15649 0.59856 0.20349 0.0
H2780 H 0.15291 0.5796 0.21299 0.0
H2781 H 0.14051 0.59643 0.21748 0.0
H2782 H 0.1321 0.58597 0.24356 0.0
H2783 H 0.11607 0.56154 0.24709 0.0
H2784 H 0.89674 0.49537 0.01631 0.0
H2785 H 0.87439 0.51314 0.01104 0.0
H2786 H 0.8736 0.52677 0.06103 0.0
H2787 H 0.89588 0.50879 0.06651 0.0
H2788 H 0.8432 0.51301 0.02527 0.0
H2789 H 0.87749 0.56988 0.03699 0.0
H2790 H 0.88726 0.55104 0.03349 0.0
H2791 H 0.87806 0.55506 0.05237 0.0
C2792 C 0.8917 0.50196 0.02625 0.0
C2793 C 0.89811 0.50067 0.04184 0.0
C2794 C 0.87899 0.51219 0.02319 0.0
C2795 C 0.8725 0.52138 0.03561 0.0
C2796 C 0.87865 0.51996 0.05124 0.0
H2797 H 0.79742 0.59341 0.02253 0.0
H2798 H 0.81707 0.57608 0.03555 0.0
C2799 C 0.89137 0.5097 0.05433 0.0
C2800 C 0.85931 0.53243 0.03201 0.0
H2801 H 0.85067 0.57206 0.02835 0.0
C2802 C 0.84476 0.52592 0.0261 0.0
C2803 C 0.86138 0.54926 0.03323 0.0
C2804 C 0.8769 0.55682 0.03927 0.0
C2805 C 0.83236 0.5358 0.02091 0.0
C2806 C 0.83471 0.55261 0.02139 0.0
C2807 C 0.84897 0.55916 0.02798 0.0
C2808 C 0.82312 0.56341 0.01373 0.0
C2809 C 0.81694 0.52817 0.01471 0.0
C2810 C 0.82038 0.56225 0.99715 0.0
C2811 C 0.80929 0.57208 0.98971 0.0
C2812 C 0.80071 0.58336 0.99869 0.0
C2813 C 0.80378 0.58481 0.01529 0.0
C2814 C 0.81497 0.57493 0.02274 0.0
H2815 H 0.81521 0.5159 0.01942 0.0
H2816 H 0.80647 0.53549 0.01801 0.0
H2817 H 0.81729 0.52723 0.00145 0.0
H2818 H 0.82681 0.55365 0.98995 0.0
H2819 H 0.80733 0.57069 0.97691 0.0
H2820 H 0.12038 0.00054 0.0186 0.0
H2821 H 0.14172 0.98099 0.01593 0.0
H2822 H 0.10921 0.94339 0.03011 0.0
H2823 H 0.08765 0.96276 0.03229 0.0
H2824 H 0.15472 0.961 0.03899 0.0
H2825 H 0.12747 0.92543 0.98854 0.0
H2826 H 0.12041 0.94499 0.99428 0.0
H2827 H 0.11478 0.92769 0.00556 0.0
C2828 C 0.1177 0.98808 0.02096 0.0
C2829 C 0.10225 0.98322 0.02555 0.0
C2830 C 0.12995 0.97694 0.01953 0.0
C2831 C 0.127 0.96069 0.02258 0.0
C2832 C 0.11168 0.95582 0.02741 0.0
H2833 H 0.18663 0.87604 0.02029 0.0
H2834 H 0.16484 0.89503 0.02357 0.0
C2835 C 0.09941 0.96695 0.02883 0.0
C2836 C 0.14006 0.94892 0.02096 0.0
H2837 H 0.15093 0.91508 0.00061 0.0
C2838 C 0.15392 0.95098 0.03056 0.0
C2839 C 0.13898 0.93585 0.00998 0.0
C2840 C 0.12468 0.93338 0.99889 0.0
C2841 C 0.16664 0.94022 0.02963 0.0
C2842 C 0.16559 0.92718 0.0186 0.0
C2843 C 0.1517 0.92507 0.00906 0.0
C2844 C 0.17886 0.91572 0.01665 0.0
C2845 C 0.18098 0.94272 0.04066 0.0
C2846 C 0.19391 0.921 0.01145 0.0
C2847 C 0.20639 0.91019 0.00956 0.0
C2848 C 0.20404 0.89383 0.01275 0.0
C2849 C 0.18888 0.88855 0.01777 0.0
C2850 C 0.1764 0.89938 0.01964 0.0
H2851 H 0.17817 0.95054 0.0511 0.0
H2852 H 0.18541 0.93112 0.04513 0.0
H2853 H 0.19078 0.94859 0.03398 0.0
H2854 H 0.19599 0.9335 0.00875 0.0
H2855 H 0.21788 0.91467 0.00558 0.0
loop_
_geom_bond_atom_site_label_1
_geom_bond_atom_site_label_2
_geom_bond_distance
_geom_bond_site_symmetry_2
_ccdc_geom_bond_type
C0 C1 1.390 1_556 S
C0 C4 1.382 1_556 S
C0 H42 0.959 . S
C1 C0 1.390 1_554 S
C1 C2 1.391 . S
C2 C1 1.391 . S
C2 H58 0.947 . S
C2 C59 1.392 . S
C3 C4 1.391 . S
C3 C7 1.397 . S
C3 C59 1.419 . S
C4 C0 1.382 1_554 S
C4 C3 1.391 . S
C4 C5 1.399 . S
C5 C4 1.399 . S
C5 C8 1.396 . S
C5 C17 1.453 . S
C5 C18 1.684 1_554 S
H6 C30 0.959 . S
C7 C3 1.397 . S
C7 C8 1.394 . S
C7 C26 1.723 . S
C8 C5 1.396 . S
C8 C7 1.394 . S
C8 C38 1.723 . S
H9 C32 0.947 . S
H10 C33 0.948 . S
H11 C39 0.982 . S
H12 C40 0.979 . S
H13 C40 0.980 . S
H14 C40 0.983 . S
H15 C39 0.979 . S
H16 C39 0.977 . S
C17 C5 1.453 . S
C17 H46 0.982 . S
C17 H47 0.979 . S
C17 H48 0.977 . S
C18 C5 1.684 1_556 S
C18 H43 0.979 . S
C18 H44 0.980 . S
C18 H45 0.983 . S
C19 C20 1.390 1_655 S
C19 C24 1.382 1_655 S
C19 H49 0.959 . S
C20 C19 1.390 1_455 S
C20 C21 1.391 . S
C21 C20 1.391 . S
C21 C22 1.392 . S
C21 H50 0.947 . S
C22 C21 1.392 . S
C22 C23 1.419 . S
C22 H51 0.948 . S
C23 C22 1.419 . S
C23 C24 1.391 . S
C23 C27 1.397 . S
C24 C19 1.382 1_455 S
C24 C23 1.391 . S
C24 C25 1.399 . S
C25 C24 1.399 . S
C25 C26 1.396 . S
C25 C28 1.453 . S
C25 C29 1.684 1_455 S
C26 C7 1.723 . S
C26 C25 1.396 . S
C26 C27 1.394 . S
C27 C23 1.397 . S
C27 C26 1.394 . S
C27 C37 1.723 . S
C28 C25 1.453 . S
C28 H52 0.982 . S
C28 H53 0.979 . S
C28 H54 0.977 . S
C29 C25 1.684 1_655 S
C29 H55 0.979 . S
C29 H56 0.980 . S
C29 H57 0.983 . S
C30 H6 0.959 . S
C30 C31 1.390 1_565 S
C30 C35 1.382 1_565 S
C31 C30 1.390 1_545 S
C31 C32 1.391 . S
C32 H9 0.947 . S
C32 C31 1.391 . S
C32 C33 1.392 . S
C33 H10 0.948 . S
C33 C32 1.392 . S
C33 C34 1.419 . S
C34 C33 1.419 . S
C34 C35 1.391 . S
C34 C38 1.397 . S
C35 C30 1.382 1_545 S
C35 C34 1.391 . S
C35 C36 1.399 . S
C36 C35 1.399 . S
C36 C37 1.396 . S
C36 C39 1.453 . S
C36 C40 1.684 1_545 S
C37 C27 1.723 . S
C37 C36 1.396 . S
C37 C38 1.394 . S
C38 C8 1.723 . S
C38 C34 1.397 . S
C38 C37 1.394 . S
C39 H11 0.982 . S
C39 H15 0.979 . S
C39 H16 0.977 . S
C39 C36 1.453 . S
C40 H12 0.979 . S
C40 H13 0.980 . S
C40 H14 0.983 . S
C40 C36 1.684 1_565 S
H41 C59 0.948 . S
H42 C0 0.959 . S
H43 C18 0.979 . S
H44 C18 0.980 . S
H45 C18 0.983 . S
H46 C17 0.982 . S
H47 C17 0.979 . S
H48 C17 0.977 . S
H49 C19 0.959 . S
H50 C21 0.947 . S
H51 C22 0.948 . S
H52 C28 0.982 . S
H53 C28 0.979 . S
H54 C28 0.977 . S
H55 C29 0.979 . S
H56 C29 0.980 . S
H57 C29 0.983 . S
H58 C2 0.947 . S
C59 C2 1.392 . S
C59 C3 1.419 . S
C59 H41 0.948 . S
C60 C61 1.391 . S
C60 C64 1.391 . S
C60 H102 0.948 . S
C61 C60 1.391 . S
C61 C62 1.391 . S
C62 C61 1.391 . S
C62 H118 0.947 . S
C62 C119 1.392 . S
C63 C64 1.391 . S
C63 C67 1.397 . S
C63 C119 1.419 . S
C64 C60 1.391 . S
C64 C63 1.391 . S
C64 C65 1.399 . S
C65 C64 1.399 . S
C65 C68 1.396 . S
C65 C77 1.453 . S
C65 C78 1.684 . S
H66 C90 0.948 . S
C67 C63 1.397 . S
C67 C68 1.394 . S
C67 C86 1.723 . S
C68 C65 1.396 . S
C68 C67 1.394 . S
C68 C98 1.723 . S
H69 C92 0.947 . S
H70 C93 0.948 . S
H71 C99 0.982 . S
H72 C100 0.979 . S
H73 C100 0.980 . S
H74 C100 0.983 . S
H75 C99 0.979 . S
H76 C99 0.977 . S
C77 C65 1.453 . S
C77 H106 0.982 . S
C77 H107 0.979 . S
C77 H108 0.977 . S
C78 C65 1.684 . S
C78 H103 0.979 . S
C78 H104 0.980 . S
C78 H105 0.983 . S
C79 C80 1.391 . S
C79 C84 1.391 . S
C79 H109 0.948 . S
C80 C79 1.391 . S
C80 C81 1.391 . S
C81 C80 1.391 . S
C81 C82 1.392 . S
C81 H110 0.947 . S
C82 C81 1.392 . S
C82 C83 1.419 . S
C82 H111 0.948 . S
C83 C82 1.419 . S
C83 C84 1.391 . S
C83 C87 1.397 . S
C84 C79 1.391 . S
C84 C83 1.391 . S
C84 C85 1.399 . S
C85 C84 1.399 . S
C85 C86 1.396 . S
C85 C88 1.453 . S
C85 C89 1.684 . S
C86 C67 1.723 . S
C86 C85 1.396 . S
C86 C87 1.394 . S
C87 C83 1.397 . S
C87 C86 1.394 . S
C87 C97 1.723 . S
C88 C85 1.453 . S
C88 H112 0.982 . S
C88 H113 0.979 . S
C88 H114 0.977 . S
C89 C85 1.684 . S
C89 H115 0.979 . S
C89 H116 0.980 . S
C89 H117 0.983 . S
C90 H66 0.948 . S
C90 C91 1.391 . S
C90 C95 1.391 . S
C91 C90 1.391 . S
C91 C92 1.391 . S
C92 H69 0.947 . S
C92 C91 1.391 . S
C92 C93 1.392 . S
C93 H70 0.948 . S
C93 C92 1.392 . S
C93 C94 1.419 . S
C94 C93 1.419 . S
C94 C95 1.391 . S
C94 C98 1.397 . S
C95 C90 1.391 . S
C95 C94 1.391 . S
C95 C96 1.399 . S
C96 C95 1.399 . S
C96 C97 1.396 . S
C96 C99 1.453 . S
C96 C100 1.684 . S
C97 C87 1.723 . S
C97 C96 1.396 . S
C97 C98 1.394 . S
C98 C68 1.723 . S
C98 C94 1.397 . S
C98 C97 1.394 . S
C99 H71 0.982 . S
C99 H75 0.979 . S
C99 H76 0.977 . S
C99 C96 1.453 . S
C100 H72 0.979 . S
C100 H73 0.980 . S
C100 H74 0.983 . S
C100 C96 1.684 . S
H101 C119 0.948 . S
H102 C60 0.948 . S
H103 C78 0.979 . S
H104 C78 0.980 . S
H105 C78 0.983 . S
H106 C77 0.982 . S
H107 C77 0.979 . S
H108 C77 0.977 . S
H109 C79 0.948 . S
H110 C81 0.947 . S
H111 C82 0.948 . S
H112 C88 0.982 . S
H113 C88 0.979 . S
H114 C88 0.977 . S
H115 C89 0.979 . S
H116 C89 0.980 . S
H117 C89 0.983 . S
H118 C62 0.947 . S
C119 C62 1.392 . S
C119 C63 1.419 . S
C119 H101 0.948 . S
C120 C121 1.391 . S
C120 C124 1.391 . S
C120 H162 0.948 . S
C121 C120 1.391 . S
C121 C122 1.391 . S
C122 C121 1.391 . S
C122 H178 0.947 1_554 S
C122 C179 1.392 . S
C123 C124 1.391 . S
C123 C127 1.397 . S
C123 C179 1.419 . S
C124 C120 1.391 . S
C124 C123 1.391 . S
C124 C125 1.399 . S
C125 C124 1.399 . S
C125 C128 1.396 . S
C125 C137 1.453 . S
C125 C138 1.684 . S
H126 C150 0.948 . S
C127 C123 1.397 . S
C127 C128 1.394 . S
C127 C146 1.723 . S
C128 C125 1.396 . S
C128 C127 1.394 . S
C128 C158 1.723 . S
H129 C152 0.947 1_455 S
H130 C153 0.948 . S
H131 C159 0.982 . S
H132 C160 0.979 . S
H133 C160 0.980 . S
H134 C160 0.983 . S
H135 C159 0.979 . S
H136 C159 0.977 . S
C137 C125 1.453 . S
C137 H166 0.982 . S
C137 H167 0.979 . S
C137 H168 0.977 . S
C138 C125 1.684 . S
C138 H163 0.979 . S
C138 H164 0.980 . S
C138 H165 0.983 . S
C139 C140 1.391 . S
C139 C144 1.391 . S
C139 H169 0.948 . S
C140 C139 1.391 . S
C140 C141 1.391 . S
C141 C140 1.391 . S
C141 C142 1.392 . S
C141 H170 0.947 . S
C142 C141 1.392 . S
C142 C143 1.419 . S
C142 H171 0.948 . S
C143 C142 1.419 . S
C143 C144 1.391 . S
C143 C147 1.397 . S
C144 C139 1.391 . S
C144 C143 1.391 . S
C144 C145 1.399 . S
C145 C144 1.399 . S
C145 C146 1.396 . S
C145 C148 1.453 . S
C145 C149 1.684 . S
C146 C127 1.723 . S
C146 C145 1.396 . S
C146 C147 1.394 . S
C147 C143 1.397 . S
C147 C146 1.394 . S
C147 C157 1.723 . S
C148 C145 1.453 . S
C148 H172 0.982 . S
C148 H173 0.979 . S
C148 H174 0.977 . S
C149 C145 1.684 . S
C149 H175 0.979 . S
C149 H176 0.980 . S
C149 H177 0.983 . S
C150 H126 0.948 . S
C150 C151 1.391 . S
C150 C155 1.391 . S
C151 C150 1.391 . S
C151 C152 1.391 . S
C152 H129 0.947 1_655 S
C152 C151 1.391 . S
C152 C153 1.392 . S
C153 H130 0.948 . S
C153 C152 1.392 . S
C153 C154 1.419 . S
C154 C153 1.419 . S
C154 C155 1.391 . S
C154 C158 1.397 . S
C155 C150 1.391 . S
C155 C154 1.391 . S
C155 C156 1.399 . S
C156 C155 1.399 . S
C156 C157 1.396 . S
C156 C159 1.453 . S
C156 C160 1.684 . S
C157 C147 1.723 . S
C157 C156 1.396 . S
C157 C158 1.394 . S
C158 C128 1.723 . S
C158 C154 1.397 . S
C158 C157 1.394 . S
C159 H131 0.982 . S
C159 H135 0.979 . S
C159 H136 0.977 . S
C159 C156 1.453 . S
C160 H132 0.979 . S
C160 H133 0.980 . S
C160 H134 0.983 . S
C160 C156 1.684 . S
H161 C179 0.948 . S
H162 C120 0.948 . S
H163 C138 0.979 . S
H164 C138 0.980 . S
H165 C138 0.983 . S
H166 C137 0.982 . S
H167 C137 0.979 . S
H168 C137 0.977 . S
H169 C139 0.948 . S
H170 C141 0.947 . S
H171 C142 0.948 . S
H172 C148 0.982 . S
H173 C148 0.979 . S
H174 C148 0.977 . S
H175 C149 0.979 . S
H176 C149 0.980 . S
H177 C149 0.983 . S
H178 C122 0.947 1_556 S
C179 C122 1.392 . S
C179 C123 1.419 . S
C179 H161 0.948 . S
C180 C181 1.391 . S
C180 C184 1.391 . S
C180 H222 0.948 . S
C181 C180 1.391 . S
C181 C182 1.391 . S
C182 C181 1.391 . S
C182 H238 0.947 . S
C182 C239 1.392 . S
C183 C184 1.391 . S
C183 C187 1.397 . S
C183 C239 1.419 . S
C184 C180 1.391 . S
C184 C183 1.391 . S
C184 C185 1.399 . S
C185 C184 1.399 . S
C185 C188 1.396 . S
C185 C197 1.453 . S
C185 C198 1.684 . S
H186 C210 0.948 . S
C187 C183 1.397 . S
C187 C188 1.394 . S
C187 C206 1.723 . S
C188 C185 1.396 . S
C188 C187 1.394 . S
C188 C218 1.723 . S
H189 C212 0.947 . S
H190 C213 0.948 . S
H191 C219 0.982 . S
H192 C220 0.979 . S
H193 C220 0.980 . S
H194 C220 0.983 . S
H195 C219 0.979 . S
H196 C219 0.977 . S
C197 C185 1.453 . S
C197 H226 0.982 . S
C197 H227 0.979 . S
C197 H228 0.977 . S
C198 C185 1.684 . S
C198 H223 0.979 . S
C198 H224 0.980 . S
C198 H225 0.983 . S
C199 C200 1.391 . S
C199 C204 1.391 . S
C199 H229 0.948 . S
C200 C199 1.391 . S
C200 C201 1.391 . S
C201 C200 1.391 . S
C201 C202 1.392 . S
C201 H230 0.947 . S
C202 C201 1.392 . S
C202 C203 1.419 . S
C202 H231 0.948 . S
C203 C202 1.419 . S
C203 C204 1.391 . S
C203 C207 1.397 . S
C204 C199 1.391 . S
C204 C203 1.391 . S
C204 C205 1.399 . S
C205 C204 1.399 . S
C205 C206 1.396 . S
C205 C208 1.453 . S
C205 C209 1.684 . S
C206 C187 1.723 . S
C206 C205 1.396 . S
C206 C207 1.394 . S
C207 C203 1.397 . S
C207 C206 1.394 . S
C207 C217 1.723 . S
C208 C205 1.453 . S
C208 H232 0.982 . S
C208 H233 0.979 . S
C208 H234 0.977 . S
C209 C205 1.684 . S
C209 H235 0.979 . S
C209 H236 0.980 . S
C209 H237 0.983 . S
C210 H186 0.948 . S
C210 C211 1.391 . S
C210 C215 1.391 . S
C211 C210 1.391 . S
C211 C212 1.391 . S
C212 H189 0.947 . S
C212 C211 1.391 . S
C212 C213 1.392 . S
C213 H190 0.948 . S
C213 C212 1.392 . S
C213 C214 1.419 . S
C214 C213 1.419 . S
C214 C215 1.391 . S
C214 C218 1.397 . S
C215 C210 1.391 . S
C215 C214 1.391 . S
C215 C216 1.399 . S
C216 C215 1.399 . S
C216 C217 1.396 . S
C216 C219 1.453 . S
C216 C220 1.684 . S
C217 C207 1.723 . S
C217 C216 1.396 . S
C217 C218 1.394 . S
C218 C188 1.723 . S
C218 C214 1.397 . S
C218 C217 1.394 . S
C219 H191 0.982 . S
C219 H195 0.979 . S
C219 H196 0.977 . S
C219 C216 1.453 . S
C220 H192 0.979 . S
C220 H193 0.980 . S
C220 H194 0.983 . S
C220 C216 1.684 . S
H221 C239 0.948 . S
H222 C180 0.948 . S
H223 C198 0.979 . S
H224 C198 0.980 . S
H225 C198 0.983 . S
H226 C197 0.982 . S
H227 C197 0.979 . S
H228 C197 0.977 . S
H229 C199 0.948 . S
H230 C201 0.947 . S
H231 C202 0.948 . S
H232 C208 0.982 . S
H233 C208 0.979 . S
H234 C208 0.977 . S
H235 C209 0.979 . S
H236 C209 0.980 . S
H237 C209 0.983 . S
H238 C182 0.947 . S
C239 C182 1.392 . S
C239 C183 1.419 . S
C239 H221 0.948 . S
C240 C241 1.391 . S
C240 C244 1.391 . S
C240 H282 0.948 . S
C241 C240 1.391 . S
C241 C242 1.391 . S
C242 C241 1.391 . S
C242 H298 0.947 . S
C242 C299 1.392 . S
C243 C244 1.391 . S
C243 C247 1.397 . S
C243 C299 1.419 . S
C244 C240 1.391 . S
C244 C243 1.391 . S
C244 C245 1.399 . S
C245 C244 1.399 . S
C245 C248 1.396 . S
C245 C257 1.453 . S
C245 C258 1.684 . S
H246 C270 0.948 . S
C247 C243 1.397 . S
C247 C248 1.394 . S
C247 C266 1.723 . S
C248 C245 1.396 . S
C248 C247 1.394 . S
C248 C278 1.723 . S
H249 C272 0.947 . S
H250 C273 0.948 . S
H251 C279 0.982 . S
H252 C280 0.979 . S
H253 C280 0.980 . S
H254 C280 0.983 . S
H255 C279 0.937 1_545 S
H256 C279 0.977 . S
C257 C245 1.453 . S
C257 H286 0.982 . S
C257 H287 0.979 . S
C257 H288 0.977 . S
C258 C245 1.684 . S
C258 H283 0.979 . S
C258 H284 0.980 . S
C258 H285 0.983 . S
C259 C260 1.391 . S
C259 C264 1.391 . S
C259 H289 0.948 . S
C260 C259 1.391 . S
C260 C261 1.391 . S
C261 C260 1.391 . S
C261 C262 1.392 . S
C261 H290 0.947 . S
C262 C261 1.392 . S
C262 C263 1.419 . S
C262 H291 0.948 . S
C263 C262 1.419 . S
C263 C264 1.391 . S
C263 C267 1.397 . S
C264 C259 1.391 . S
C264 C263 1.391 . S
C264 C265 1.399 . S
C265 C264 1.399 . S
C265 C266 1.396 . S
C265 C268 1.453 . S
C265 C269 1.684 . S
C266 C247 1.723 . S
C266 C265 1.396 . S
C266 C267 1.394 . S
C267 C263 1.397 . S
C267 C266 1.394 . S
C267 C277 1.723 . S
C268 C265 1.453 . S
C268 H292 0.982 . S
C268 H293 0.979 . S
C268 H294 0.977 . S
C269 C265 1.684 . S
C269 H295 0.979 . S
C269 H296 0.980 . S
C269 H297 0.983 . S
C270 H246 0.948 . S
C270 C271 1.391 . S
C270 C275 1.391 . S
C271 C270 1.391 . S
C271 C272 1.391 . S
C272 H249 0.947 . S
C272 C271 1.391 . S
C272 C273 1.392 . S
C273 H250 0.948 . S
C273 C272 1.392 . S
C273 C274 1.419 . S
C274 C273 1.419 . S
C274 C275 1.391 . S
C274 C278 1.397 . S
C275 C270 1.391 . S
C275 C274 1.391 . S
C275 C276 1.399 . S
C276 C275 1.399 . S
C276 C277 1.396 . S
C276 C279 1.453 . S
C276 C280 1.684 . S
C277 C267 1.723 . S
C277 C276 1.396 . S
C277 C278 1.394 . S
C278 C248 1.723 . S
C278 C274 1.397 . S
C278 C277 1.394 . S
C279 H251 0.982 . S
C279 H255 0.937 1_565 S
C279 H256 0.977 . S
C279 C276 1.453 . S
C280 H252 0.979 . S
C280 H253 0.980 . S
C280 H254 0.983 . S
C280 C276 1.684 . S
H281 C299 0.948 . S
H282 C240 0.948 . S
H283 C258 0.979 . S
H284 C258 0.980 . S
H285 C258 0.983 . S
H286 C257 0.982 . S
H287 C257 0.979 . S
H288 C257 0.977 . S
H289 C259 0.948 . S
H290 C261 0.947 . S
H291 C262 0.948 . S
H292 C268 0.982 . S
H293 C268 0.979 . S
H294 C268 0.977 . S
H295 C269 0.979 . S
H296 C269 0.980 . S
H297 C269 0.983 . S
H298 C242 0.947 . S
C299 C242 1.392 . S
C299 C243 1.419 . S
C299 H281 0.948 . S
C300 C301 1.391 . S
C300 C304 1.391 . S
C300 H342 0.948 . S
C301 C300 1.391 . S
C301 C302 1.391 . S
C302 C301 1.391 . S
C302 H358 0.947 . S
C302 C359 1.392 . S
C303 C304 1.391 . S
C303 C307 1.397 . S
C303 C359 1.419 . S
C304 C300 1.391 . S
C304 C303 1.391 . S
C304 C305 1.399 . S
C305 C304 1.399 . S
C305 C308 1.396 . S
C305 C317 1.453 . S
C305 C318 1.684 . S
H306 C330 0.948 . S
C307 C303 1.397 . S
C307 C308 1.394 . S
C307 C326 1.723 . S
C308 C305 1.396 . S
C308 C307 1.394 . S
C308 C338 1.723 . S
H309 C332 0.947 . S
H310 C333 0.948 . S
H311 C339 0.982 . S
H312 C340 0.979 . S
H313 C340 0.980 . S
H314 C340 0.983 . S
H315 C339 0.979 . S
H316 C339 0.977 . S
C317 C305 1.453 . S
C317 H346 0.982 . S
C317 H347 0.979 . S
C317 H348 0.977 . S
C318 C305 1.684 . S
C318 H343 0.979 . S
C318 H344 0.980 . S
C318 H345 0.983 . S
C319 C320 1.391 . S
C319 C324 1.391 . S
C319 H349 0.948 . S
C320 C319 1.391 . S
C320 C321 1.391 . S
C321 C320 1.391 . S
C321 C322 1.392 . S
C321 H350 0.947 . S
C322 C321 1.392 . S
C322 C323 1.419 . S
C322 H351 0.948 . S
C323 C322 1.419 . S
C323 C324 1.391 . S
C323 C327 1.397 . S
C324 C319 1.391 . S
C324 C323 1.391 . S
C324 C325 1.399 . S
C325 C324 1.399 . S
C325 C326 1.396 . S
C325 C328 1.453 . S
C325 C329 1.684 . S
C326 C307 1.723 . S
C326 C325 1.396 . S
C326 C327 1.394 . S
C327 C323 1.397 . S
C327 C326 1.394 . S
C327 C337 1.723 . S
C328 C325 1.453 . S
C328 H352 0.982 . S
C328 H353 0.979 . S
C328 H354 0.977 . S
C329 C325 1.684 . S
C329 H355 0.979 . S
C329 H356 0.980 . S
C329 H357 0.983 . S
C330 H306 0.948 . S
C330 C331 1.391 . S
C330 C335 1.391 . S
C331 C330 1.391 . S
C331 C332 1.391 . S
C332 H309 0.947 . S
C332 C331 1.391 . S
C332 C333 1.392 . S
C333 H310 0.948 . S
C333 C332 1.392 . S
C333 C334 1.419 . S
C334 C333 1.419 . S
C334 C335 1.391 . S
C334 C338 1.397 . S
C335 C330 1.391 . S
C335 C334 1.391 . S
C335 C336 1.399 . S
C336 C335 1.399 . S
C336 C337 1.396 . S
C336 C339 1.453 . S
C336 C340 1.684 . S
C337 C327 1.723 . S
C337 C336 1.396 . S
C337 C338 1.394 . S
C338 C308 1.723 . S
C338 C334 1.397 . S
C338 C337 1.394 . S
C339 H311 0.982 . S
C339 H315 0.979 . S
C339 H316 0.977 . S
C339 C336 1.453 . S
C340 H312 0.979 . S
C340 H313 0.980 . S
C340 H314 0.983 . S
C340 C336 1.684 . S
H341 C359 0.948 . S
H342 C300 0.948 . S
H343 C318 0.979 . S
H344 C318 0.980 . S
H345 C318 0.983 . S
H346 C317 0.982 . S
H347 C317 0.979 . S
H348 C317 0.977 . S
H349 C319 0.948 . S
H350 C321 0.947 . S
H351 C322 0.948 . S
H352 C328 0.982 . S
H353 C328 0.979 . S
H354 C328 0.977 . S
H355 C329 0.979 . S
H356 C329 0.980 . S
H357 C329 0.983 . S
H358 C302 0.947 . S
C359 C302 1.392 . S
C359 C303 1.419 . S
C359 H341 0.948 . S
C360 C361 1.391 . S
C360 C364 1.391 . S
C360 H402 0.948 . S
C361 C360 1.391 . S
C361 C362 1.391 . S
C362 C361 1.391 . S
C362 H418 0.947 . S
C362 C419 1.392 . S
C363 C364 1.391 . S
C363 C367 1.397 . S
C363 C419 1.419 . S
C364 C360 1.391 . S
C364 C363 1.391 . S
C364 C365 1.399 . S
C365 C364 1.399 . S
C365 C368 1.396 . S
C365 C377 1.453 . S
C365 C378 1.684 . S
H366 C390 0.948 . S
C367 C363 1.397 . S
C367 C368 1.394 . S
C367 C386 1.723 . S
C368 C365 1.396 . S
C368 C367 1.394 . S
C368 C398 1.723 . S
H369 C392 0.947 . S
H370 C393 0.948 . S
H371 C399 0.982 . S
H372 C400 0.981 1_455 S
H373 C400 0.982 1_455 S
H374 C400 0.985 1_455 S
H375 C399 0.979 . S
H376 C399 0.977 . S
C377 C365 1.453 . S
C377 H406 0.982 . S
C377 H407 0.979 . S
C377 H408 0.977 . S
C378 C365 1.684 . S
C378 H403 0.979 . S
C378 H404 0.980 . S
C378 H405 0.983 . S
C379 C380 1.395 1_655 S
C379 C384 1.391 . S
C379 H409 0.948 . S
C380 C379 1.395 1_455 S
C380 C381 1.390 . S
C381 C380 1.390 . S
C381 C382 1.392 1_455 S
C381 H410 0.947 . S
C382 C381 1.392 1_655 S
C382 C383 1.419 . S
C382 H411 0.948 . S
C383 C382 1.419 . S
C383 C384 1.391 . S
C383 C387 1.397 . S
C384 C379 1.391 . S
C384 C383 1.391 . S
C384 C385 1.399 . S
C385 C384 1.399 . S
C385 C386 1.396 . S
C385 C388 1.453 . S
C385 C389 1.684 . S
C386 C367 1.723 . S
C386 C385 1.396 . S
C386 C387 1.394 . S
C387 C383 1.397 . S
C387 C386 1.394 . S
C387 C397 1.723 . S
C388 C385 1.453 . S
C388 H412 0.982 . S
C388 H413 0.979 . S
C388 H414 0.977 . S
C389 C385 1.684 . S
C389 H415 0.979 . S
C389 H416 0.980 . S
C389 H417 0.983 . S
C390 H366 0.948 . S
C390 C391 1.391 . S
C390 C395 1.391 . S
C391 C390 1.391 . S
C391 C392 1.391 . S
C392 H369 0.947 . S
C392 C391 1.391 . S
C392 C393 1.392 . S
C393 H370 0.948 . S
C393 C392 1.392 . S
C393 C394 1.419 . S
C394 C393 1.419 . S
C394 C395 1.391 . S
C394 C398 1.397 . S
C395 C390 1.391 . S
C395 C394 1.391 . S
C395 C396 1.399 . S
C396 C395 1.399 . S
C396 C397 1.396 . S
C396 C399 1.453 . S
C396 C400 1.678 . S
C397 C387 1.723 . S
C397 C396 1.396 . S
C397 C398 1.394 . S
C398 C368 1.723 . S
C398 C394 1.397 . S
C398 C397 1.394 . S
C399 H371 0.982 . S
C399 H375 0.979 . S
C399 H376 0.977 . S
C399 C396 1.453 . S
C400 H372 0.981 1_655 S
C400 H373 0.982 1_655 S
C400 H374 0.985 1_655 S
C400 C396 1.678 . S
H401 C419 0.948 . S
H402 C360 0.948 . S
H403 C378 0.979 . S
H404 C378 0.980 . S
H405 C378 0.983 . S
H406 C377 0.982 . S
H407 C377 0.979 . S
H408 C377 0.977 . S
H409 C379 0.948 . S
H410 C381 0.947 . S
H411 C382 0.948 . S
H412 C388 0.982 . S
H413 C388 0.979 . S
H414 C388 0.977 . S
H415 C389 0.979 . S
H416 C389 0.980 . S
H417 C389 0.983 . S
H418 C362 0.947 . S
C419 C362 1.392 . S
C419 C363 1.419 . S
C419 H401 0.948 . S
C420 C421 1.391 . S
C420 C424 1.391 . S
C420 H462 0.948 . S
C421 C420 1.391 . S
C421 C422 1.391 . S
C422 C421 1.391 . S
C422 H478 0.947 . S
C422 C479 1.392 . S
C423 C424 1.391 . S
C423 C427 1.397 . S
C423 C479 1.419 . S
C424 C420 1.391 . S
C424 C423 1.391 . S
C424 C425 1.399 . S
C425 C424 1.399 . S
C425 C428 1.396 . S
C425 C437 1.453 . S
C425 C438 1.684 . S
H426 C450 0.948 . S
C427 C423 1.397 . S
C427 C428 1.394 . S
C427 C446 1.723 . S
C428 C425 1.396 . S
C428 C427 1.394 . S
C428 C458 1.723 . S
H429 C452 0.947 . S
H430 C453 0.948 . S
H431 C459 0.982 . S
H432 C460 0.979 . S
H433 C460 0.980 . S
H434 C460 0.983 . S
H435 C459 0.979 . S
H436 C459 0.977 . S
C437 C425 1.453 . S
C437 H466 0.982 . S
C437 H467 0.979 . S
C437 H468 0.977 . S
C438 C425 1.684 . S
C438 H463 0.979 . S
C438 H464 0.980 . S
C438 H465 0.983 . S
C439 C440 1.391 . S
C439 C444 1.391 . S
C439 H469 0.948 . S
C440 C439 1.391 . S
C440 C441 1.391 . S
C441 C440 1.391 . S
C441 C442 1.392 . S
C441 H470 0.947 . S
C442 C441 1.392 . S
C442 C443 1.419 . S
C442 H471 0.948 . S
C443 C442 1.419 . S
C443 C444 1.391 . S
C443 C447 1.397 . S
C444 C439 1.391 . S
C444 C443 1.391 . S
C444 C445 1.399 . S
C445 C444 1.399 . S
C445 C446 1.396 . S
C445 C448 1.453 . S
C445 C449 1.684 . S
C446 C427 1.723 . S
C446 C445 1.396 . S
C446 C447 1.394 . S
C447 C443 1.397 . S
C447 C446 1.394 . S
C447 C457 1.723 . S
C448 C445 1.453 . S
C448 H472 0.982 . S
C448 H473 0.979 . S
C448 H474 0.977 . S
C449 C445 1.684 . S
C449 H475 0.979 . S
C449 H476 0.980 . S
C449 H477 0.983 . S
C450 H426 0.948 . S
C450 C451 1.391 . S
C450 C455 1.391 . S
C451 C450 1.391 . S
C451 C452 1.391 . S
C452 H429 0.947 . S
C452 C451 1.391 . S
C452 C453 1.392 . S
C453 H430 0.948 . S
C453 C452 1.392 . S
C453 C454 1.419 . S
C454 C453 1.419 . S
C454 C455 1.391 . S
C454 C458 1.397 . S
C455 C450 1.391 . S
C455 C454 1.391 . S
C455 C456 1.399 . S
C456 C455 1.399 . S
C456 C457 1.396 . S
C456 C459 1.453 . S
C456 C460 1.684 . S
C457 C447 1.723 . S
C457 C456 1.396 . S
C457 C458 1.394 . S
C458 C428 1.723 . S
C458 C454 1.397 . S
C458 C457 1.394 . S
C459 H431 0.982 . S
C459 H435 0.979 . S
C459 H436 0.977 . S
C459 C456 1.453 . S
C460 H432 0.979 . S
C460 H433 0.980 . S
C460 H434 0.983 . S
C460 C456 1.684 . S
H461 C479 0.948 . S
H462 C420 0.948 . S
H463 C438 0.979 . S
H464 C438 0.980 . S
H465 C438 0.983 . S
H466 C437 0.982 . S
H467 C437 0.979 . S
H468 C437 0.977 . S
H469 C439 0.948 . S
H470 C441 0.947 . S
H471 C442 0.948 . S
H472 C448 0.982 . S
H473 C448 0.979 . S
H474 C448 0.977 . S
H475 C449 0.979 . S
H476 C449 0.980 . S
H477 C449 0.983 . S
H478 C422 0.947 . S
C479 C422 1.392 . S
C479 C423 1.419 . S
C479 H461 0.948 . S
C480 C481 1.391 . S
C480 C484 1.391 . S
C480 H522 0.948 . S
C481 C480 1.391 . S
C481 C482 1.391 . S
C482 C481 1.391 . S
C482 H538 0.947 . S
C482 C539 1.392 . S
C483 C484 1.391 . S
C483 C487 1.397 . S
C483 C539 1.419 . S
C484 C480 1.391 . S
C484 C483 1.391 . S
C484 C485 1.399 . S
C485 C484 1.399 . S
C485 C488 1.396 . S
C485 C497 1.453 . S
C485 C498 1.684 . S
H486 C510 0.948 . S
C487 C483 1.397 . S
C487 C488 1.394 . S
C487 C506 1.723 . S
C488 C485 1.396 . S
C488 C487 1.394 . S
C488 C518 1.723 . S
H489 C512 0.947 . S
H490 C513 0.948 . S
H491 C519 0.982 . S
H492 C520 0.979 . S
H493 C520 0.980 . S
H494 C520 0.983 . S
H495 C519 0.979 . S
H496 C519 0.977 . S
C497 C485 1.453 . S
C497 H526 0.982 . S
C497 H527 0.979 . S
C497 H528 0.977 . S
C498 C485 1.684 . S
C498 H523 0.979 . S
C498 H524 0.980 . S
C498 H525 0.983 . S
C499 C500 1.391 . S
C499 C504 1.391 . S
C499 H529 0.948 . S
C500 C499 1.391 . S
C500 C501 1.391 . S
C501 C500 1.391 . S
C501 C502 1.392 . S
C501 H530 0.947 . S
C502 C501 1.392 . S
C502 C503 1.419 . S
C502 H531 0.948 . S
C503 C502 1.419 . S
C503 C504 1.391 . S
C503 C507 1.397 . S
C504 C499 1.391 . S
C504 C503 1.391 . S
C504 C505 1.399 . S
C505 C504 1.399 . S
C505 C506 1.396 . S
C505 C508 1.453 . S
C505 C509 1.684 . S
C506 C487 1.723 . S
C506 C505 1.396 . S
C506 C507 1.394 . S
C507 C503 1.397 . S
C507 C506 1.394 . S
C507 C517 1.723 . S
C508 C505 1.453 . S
C508 H532 0.982 . S
C508 H533 0.979 . S
C508 H534 0.977 . S
C509 C505 1.684 . S
C509 H535 0.979 . S
C509 H536 0.980 . S
C509 H537 0.983 . S
C510 H486 0.948 . S
C510 C511 1.391 . S
C510 C515 1.391 . S
C511 C510 1.391 . S
C511 C512 1.391 . S
C512 H489 0.947 . S
C512 C511 1.391 . S
C512 C513 1.392 . S
C513 H490 0.948 . S
C513 C512 1.392 . S
C513 C514 1.419 . S
C514 C513 1.419 . S
C514 C515 1.391 . S
C514 C518 1.397 . S
C515 C510 1.391 . S
C515 C514 1.391 . S
C515 C516 1.399 . S
C516 C515 1.399 . S
C516 C517 1.396 . S
C516 C519 1.453 . S
C516 C520 1.684 . S
C517 C507 1.723 . S
C517 C516 1.396 . S
C517 C518 1.394 . S
C518 C488 1.723 . S
C518 C514 1.397 . S
C518 C517 1.394 . S
C519 H491 0.982 . S
C519 H495 0.979 . S
C519 H496 0.977 . S
C519 C516 1.453 . S
C520 H492 0.979 . S
C520 H493 0.980 . S
C520 H494 0.983 . S
C520 C516 1.684 . S
H521 C539 0.948 . S
H522 C480 0.948 . S
H523 C498 0.979 . S
H524 C498 0.980 . S
H525 C498 0.983 . S
H526 C497 0.982 . S
H527 C497 0.979 . S
H528 C497 0.977 . S
H529 C499 0.948 . S
H530 C501 0.947 . S
H531 C502 0.948 . S
H532 C508 0.982 . S
H533 C508 0.979 . S
H534 C508 0.977 . S
H535 C509 0.979 . S
H536 C509 0.980 . S
H537 C509 0.983 . S
H538 C482 0.947 . S
C539 C482 1.392 . S
C539 C483 1.419 . S
C539 H521 0.948 . S
C540 C541 1.391 . S
C540 C544 1.391 . S
C540 H582 0.948 . S
C541 C540 1.391 . S
C541 C542 1.391 . S
C542 C541 1.391 . S
C542 H598 0.947 . S
C542 C599 1.392 . S
C543 C544 1.391 . S
C543 C547 1.397 . S
C543 C599 1.419 . S
C544 C540 1.391 . S
C544 C543 1.391 . S
C544 C545 1.399 . S
C545 C544 1.399 . S
C545 C548 1.396 . S
C545 C557 1.453 . S
C545 C558 1.684 . S
H546 C570 0.948 . S
C547 C543 1.397 . S
C547 C548 1.394 . S
C547 C566 1.723 . S
C548 C545 1.396 . S
C548 C547 1.394 . S
C548 C578 1.723 . S
H549 C572 0.947 . S
H550 C573 0.948 . S
H551 C579 0.982 . S
H552 C580 0.981 1_545 S
H553 C580 0.982 1_545 S
H554 C580 0.985 1_545 S
H555 C579 0.979 . S
H556 C579 0.977 . S
C557 C545 1.453 . S
C557 H586 0.982 . S
C557 H587 0.979 . S
C557 H588 0.977 . S
C558 C545 1.684 . S
C558 H583 0.979 . S
C558 H584 0.980 . S
C558 H585 0.983 . S
C559 C560 1.395 1_565 S
C559 C564 1.391 . S
C559 H589 0.948 . S
C560 C559 1.395 1_545 S
C560 C561 1.390 . S
C561 C560 1.390 . S
C561 C562 1.392 1_545 S
C561 H590 0.947 . S
C562 C561 1.392 1_565 S
C562 C563 1.419 . S
C562 H591 0.948 . S
C563 C562 1.419 . S
C563 C564 1.391 . S
C563 C567 1.397 . S
C564 C559 1.391 . S
C564 C563 1.391 . S
C564 C565 1.399 . S
C565 C564 1.399 . S
C565 C566 1.396 . S
C565 C568 1.453 . S
C565 C569 1.684 . S
C566 C547 1.723 . S
C566 C565 1.396 . S
C566 C567 1.394 . S
C567 C563 1.397 . S
C567 C566 1.394 . S
C567 C577 1.723 . S
C568 C565 1.453 . S
C568 H592 0.982 . S
C568 H593 0.979 . S
C568 H594 0.977 . S
C569 C565 1.684 . S
C569 H595 0.979 . S
C569 H596 0.980 . S
C569 H597 0.983 . S
C570 H546 0.948 . S
C570 C571 1.391 . S
C570 C575 1.391 . S
C571 C570 1.391 . S
C571 C572 1.391 . S
C572 H549 0.947 . S
C572 C571 1.391 . S
C572 C573 1.392 . S
C573 H550 0.948 . S
C573 C572 1.392 . S
C573 C574 1.419 . S
C574 C573 1.419 . S
C574 C575 1.391 . S
C574 C578 1.397 . S
C575 C570 1.391 . S
C575 C574 1.391 . S
C575 C576 1.399 . S
C576 C575 1.399 . S
C576 C577 1.396 . S
C576 C579 1.453 . S
C576 C580 1.678 . S
C577 C567 1.723 . S
C577 C576 1.396 . S
C577 C578 1.394 . S
C578 C548 1.723 . S
C578 C574 1.397 . S
C578 C577 1.394 . S
C579 H551 0.982 . S
C579 H555 0.979 . S
C579 H556 0.977 . S
C579 C576 1.453 . S
C580 H552 0.981 1_565 S
C580 H553 0.982 1_565 S
C580 H554 0.985 1_565 S
C580 C576 1.678 . S
H581 C599 0.948 . S
H582 C540 0.948 . S
H583 C558 0.979 . S
H584 C558 0.980 . S
H585 C558 0.983 . S
H586 C557 0.982 . S
H587 C557 0.979 . S
H588 C557 0.977 . S
H589 C559 0.948 . S
H590 C561 0.947 . S
H591 C562 0.948 . S
H592 C568 0.982 . S
H593 C568 0.979 . S
H594 C568 0.977 . S
H595 C569 0.979 . S
H596 C569 0.980 . S
H597 C569 0.983 . S
H598 C542 0.947 . S
C599 C542 1.392 . S
C599 C543 1.419 . S
C599 H581 0.948 . S
C600 C601 1.391 . S
C600 C604 1.391 . S
C600 H642 0.948 . S
C601 C600 1.391 . S
C601 C602 1.391 . S
C602 C601 1.391 . S
C602 H658 0.947 . S
C602 C659 1.392 . S
C603 C604 1.391 . S
C603 C607 1.397 . S
C603 C659 1.419 . S
C604 C600 1.391 . S
C604 C603 1.391 . S
C604 C605 1.399 . S
C605 C604 1.399 . S
C605 C608 1.396 . S
C605 C617 1.453 . S
C605 C618 1.684 . S
H606 C630 0.948 . S
C607 C603 1.397 . S
C607 C608 1.394 . S
C607 C626 1.723 . S
C608 C605 1.396 . S
C608 C607 1.394 . S
C608 C638 1.723 . S
H609 C632 0.947 . S
H610 C633 0.948 . S
H611 C639 0.982 . S
H612 C640 0.979 . S
H613 C640 0.980 . S
H614 C640 0.983 . S
H615 C639 0.979 . S
H616 C639 0.977 . S
C617 C605 1.453 . S
C617 H646 0.982 . S
C617 H647 0.979 . S
C617 H648 0.977 . S
C618 C605 1.684 . S
C618 H643 0.979 . S
C618 H644 0.980 . S
C618 H645 0.983 . S
C619 C620 1.391 . S
C619 C624 1.391 . S
C619 H649 0.948 . S
C620 C619 1.391 . S
C620 C621 1.391 . S
C621 C620 1.391 . S
C621 C622 1.392 . S
C621 H650 0.947 . S
C622 C621 1.392 . S
C622 C623 1.419 . S
C622 H651 0.948 . S
C623 C622 1.419 . S
C623 C624 1.391 . S
C623 C627 1.397 . S
C624 C619 1.391 . S
C624 C623 1.391 . S
C624 C625 1.399 . S
C625 C624 1.399 . S
C625 C626 1.396 . S
C625 C628 1.453 . S
C625 C629 1.684 . S
C626 C607 1.723 . S
C626 C625 1.396 . S
C626 C627 1.394 . S
C627 C623 1.397 . S
C627 C626 1.394 . S
C627 C637 1.723 . S
C628 C625 1.453 . S
C628 H652 0.982 . S
C628 H653 0.979 . S
C628 H654 0.977 . S
C629 C625 1.684 . S
C629 H655 0.979 . S
C629 H656 0.980 . S
C629 H657 0.983 . S
C630 H606 0.948 . S
C630 C631 1.391 . S
C630 C635 1.391 . S
C631 C630 1.391 . S
C631 C632 1.391 . S
C632 H609 0.947 . S
C632 C631 1.391 . S
C632 C633 1.392 . S
C633 H610 0.948 . S
C633 C632 1.392 . S
C633 C634 1.419 . S
C634 C633 1.419 . S
C634 C635 1.391 . S
C634 C638 1.397 . S
C635 C630 1.391 . S
C635 C634 1.391 . S
C635 C636 1.399 . S
C636 C635 1.399 . S
C636 C637 1.396 . S
C636 C639 1.453 . S
C636 C640 1.684 . S
C637 C627 1.723 . S
C637 C636 1.396 . S
C637 C638 1.394 . S
C638 C608 1.723 . S
C638 C634 1.397 . S
C638 C637 1.394 . S
C639 H611 0.982 . S
C639 H615 0.979 . S
C639 H616 0.977 . S
C639 C636 1.453 . S
C640 H612 0.979 . S
C640 H613 0.980 . S
C640 H614 0.983 . S
C640 C636 1.684 . S
H641 C659 0.948 . S
H642 C600 0.948 . S
H643 C618 0.979 . S
H644 C618 0.980 . S
H645 C618 0.983 . S
H646 C617 0.982 . S
H647 C617 0.979 . S
H648 C617 0.977 . S
H649 C619 0.948 . S
H650 C621 0.947 . S
H651 C622 0.948 . S
H652 C628 0.982 . S
H653 C628 0.979 . S
H654 C628 0.977 . S
H655 C629 0.979 . S
H656 C629 0.980 . S
H657 C629 0.983 . S
H658 C602 0.947 . S
C659 C602 1.392 . S
C659 C603 1.419 . S
C659 H641 0.948 . S
C660 C661 1.391 . S
C660 C664 1.391 . S
C660 H702 0.948 . S
C661 C660 1.391 . S
C661 C662 1.391 . S
C662 C661 1.391 . S
C662 H718 0.947 . S
C662 C719 1.392 . S
C663 C664 1.391 . S
C663 C667 1.397 . S
C663 C719 1.419 . S
C664 C660 1.391 . S
C664 C663 1.391 . S
C664 C665 1.399 . S
C665 C664 1.399 . S
C665 C668 1.396 . S
C665 C677 1.453 . S
C665 C678 1.684 . S
H666 C690 0.948 . S
C667 C663 1.397 . S
C667 C668 1.394 . S
C667 C686 1.723 . S
C668 C665 1.396 . S
C668 C667 1.394 . S
C668 C698 1.723 . S
H669 C692 0.947 . S
H670 C693 0.948 . S
H671 C699 0.982 . S
H672 C700 0.979 . S
H673 C700 0.980 . S
H674 C700 0.983 . S
H675 C699 0.979 . S
H676 C699 0.977 . S
C677 C665 1.453 . S
C677 H706 0.982 . S
C677 H707 0.979 . S
C677 H708 0.977 . S
C678 C665 1.684 . S
C678 H703 0.979 . S
C678 H704 0.980 . S
C678 H705 0.983 . S
C679 C680 1.391 . S
C679 C684 1.391 . S
C679 H709 0.948 . S
C680 C679 1.391 . S
C680 C681 1.391 . S
C681 C680 1.391 . S
C681 C682 1.392 . S
C681 H710 0.947 . S
C682 C681 1.392 . S
C682 C683 1.419 . S
C682 H711 0.948 . S
C683 C682 1.419 . S
C683 C684 1.391 . S
C683 C687 1.397 . S
C684 C679 1.391 . S
C684 C683 1.391 . S
C684 C685 1.399 . S
C685 C684 1.399 . S
C685 C686 1.396 . S
C685 C688 1.453 . S
C685 C689 1.684 . S
C686 C667 1.723 . S
C686 C685 1.396 . S
C686 C687 1.394 . S
C687 C683 1.397 . S
C687 C686 1.394 . S
C687 C697 1.723 . S
C688 C685 1.453 . S
C688 H712 0.982 . S
C688 H713 0.979 . S
C688 H714 0.977 . S
C689 C685 1.684 . S
C689 H715 0.979 . S
C689 H716 0.980 . S
C689 H717 0.983 . S
C690 H666 0.948 . S
C690 C691 1.391 . S
C690 C695 1.391 . S
C691 C690 1.391 . S
C691 C692 1.391 . S
C692 H669 0.947 . S
C692 C691 1.391 . S
C692 C693 1.392 . S
C693 H670 0.948 . S
C693 C692 1.392 . S
C693 C694 1.419 . S
C694 C693 1.419 . S
C694 C695 1.391 . S
C694 C698 1.397 . S
C695 C690 1.391 . S
C695 C694 1.391 . S
C695 C696 1.399 . S
C696 C695 1.399 . S
C696 C697 1.396 . S
C696 C699 1.453 . S
C696 C700 1.684 . S
C697 C687 1.723 . S
C697 C696 1.396 . S
C697 C698 1.394 . S
C698 C668 1.723 . S
C698 C694 1.397 . S
C698 C697 1.394 . S
C699 H671 0.982 . S
C699 H675 0.979 . S
C699 H676 0.977 . S
C699 C696 1.453 . S
C700 H672 0.979 . S
C700 H673 0.980 . S
C700 H674 0.983 . S
C700 C696 1.684 . S
H701 C719 0.948 . S
H702 C660 0.948 . S
H703 C678 0.979 . S
H704 C678 0.980 . S
H705 C678 0.983 . S
H706 C677 0.982 . S
H707 C677 0.979 . S
H708 C677 0.977 . S
H709 C679 0.948 . S
H710 C681 0.947 . S
H711 C682 0.948 . S
H712 C688 0.982 . S
H713 C688 0.979 . S
H714 C688 0.977 . S
H715 C689 0.979 . S
H716 C689 0.980 . S
H717 C689 0.983 . S
H718 C662 0.947 . S
C719 C662 1.392 . S
C719 C663 1.419 . S
C719 H701 0.948 . S
C720 C721 1.391 . S
C720 C724 1.391 . S
C720 H762 0.948 . S
C721 C720 1.391 . S
C721 C722 1.391 . S
C722 C721 1.391 . S
C722 H778 0.947 . S
C722 C779 1.392 . S
C723 C724 1.391 . S
C723 C727 1.397 . S
C723 C779 1.419 . S
C724 C720 1.391 . S
C724 C723 1.391 . S
C724 C725 1.399 . S
C725 C724 1.399 . S
C725 C728 1.396 . S
C725 C737 1.453 . S
C725 C738 1.684 . S
H726 C750 0.948 . S
C727 C723 1.397 . S
C727 C728 1.394 . S
C727 C746 1.723 . S
C728 C725 1.396 . S
C728 C727 1.394 . S
C728 C758 1.723 . S
H729 C752 0.947 . S
H730 C753 0.948 . S
H731 C759 0.982 . S
H732 C760 0.979 . S
H733 C760 0.980 . S
H734 C760 0.983 . S
H735 C759 0.979 . S
H736 C759 0.977 . S
C737 C725 1.453 . S
C737 H766 0.982 . S
C737 H767 0.979 . S
C737 H768 0.977 . S
C738 C725 1.684 . S
C738 H763 0.979 . S
C738 H764 0.980 . S
C738 H765 0.983 . S
C739 C740 1.391 . S
C739 C744 1.391 . S
C739 H769 0.948 . S
C740 C739 1.391 . S
C740 C741 1.391 . S
C741 C740 1.391 . S
C741 C742 1.392 . S
C741 H770 0.947 . S
C742 C741 1.392 . S
C742 C743 1.419 . S
C742 H771 0.948 . S
C743 C742 1.419 . S
C743 C744 1.391 . S
C743 C747 1.397 . S
C744 C739 1.391 . S
C744 C743 1.391 . S
C744 C745 1.399 . S
C745 C744 1.399 . S
C745 C746 1.396 . S
C745 C748 1.453 . S
C745 C749 1.684 . S
C746 C727 1.723 . S
C746 C745 1.396 . S
C746 C747 1.394 . S
C747 C743 1.397 . S
C747 C746 1.394 . S
C747 C757 1.723 . S
C748 C745 1.453 . S
C748 H772 0.982 . S
C748 H773 0.979 . S
C748 H774 0.977 . S
C749 C745 1.684 . S
C749 H775 0.979 . S
C749 H776 0.980 . S
C749 H777 0.983 . S
C750 H726 0.948 . S
C750 C751 1.391 . S
C750 C755 1.391 . S
C751 C750 1.391 . S
C751 C752 1.391 . S
C752 H729 0.947 . S
C752 C751 1.391 . S
C752 C753 1.392 . S
C753 H730 0.948 . S
C753 C752 1.392 . S
C753 C754 1.419 . S
C754 C753 1.419 . S
C754 C755 1.391 . S
C754 C758 1.397 . S
C755 C750 1.391 . S
C755 C754 1.391 . S
C755 C756 1.399 . S
C756 C755 1.399 . S
C756 C757 1.396 . S
C756 C759 1.453 . S
C756 C760 1.684 . S
C757 C747 1.723 . S
C757 C756 1.396 . S
C757 C758 1.394 . S
C758 C728 1.723 . S
C758 C754 1.397 . S
C758 C757 1.394 . S
C759 H731 0.982 . S
C759 H735 0.979 . S
C759 H736 0.977 . S
C759 C756 1.453 . S
C760 H732 0.979 . S
C760 H733 0.980 . S
C760 H734 0.983 . S
C760 C756 1.684 . S
H761 C779 0.948 . S
H762 C720 0.948 . S
H763 C738 0.979 . S
H764 C738 0.980 . S
H765 C738 0.983 . S
H766 C737 0.982 . S
H767 C737 0.979 . S
H768 C737 0.977 . S
H769 C739 0.948 . S
H770 C741 0.947 . S
H771 C742 0.948 . S
H772 C748 0.982 . S
H773 C748 0.979 . S
H774 C748 0.977 . S
H775 C749 0.979 . S
H776 C749 0.980 . S
H777 C749 0.983 . S
H778 C722 0.947 . S
C779 C722 1.392 . S
C779 C723 1.419 . S
C779 H761 0.948 . S
C780 C781 1.391 . S
C780 C784 1.391 . S
C780 H822 0.948 1_556 S
C781 C780 1.391 . S
C781 C782 1.391 . S
C782 C781 1.391 . S
C782 H838 0.947 . S
C782 C839 1.392 . S
C783 C784 1.391 . S
C783 C787 1.397 . S
C783 C839 1.419 . S
C784 C780 1.391 . S
C784 C783 1.391 . S
C784 C785 1.399 . S
C785 C784 1.399 . S
C785 C788 1.396 . S
C785 C797 1.453 . S
C785 C798 1.684 . S
H786 C810 0.948 . S
C787 C783 1.397 . S
C787 C788 1.394 . S
C787 C806 1.723 . S
C788 C785 1.396 . S
C788 C787 1.394 . S
C788 C818 1.723 . S
H789 C812 0.947 . S
H790 C813 0.948 . S
H791 C819 0.982 . S
H792 C820 0.979 . S
H793 C820 0.980 . S
H794 C820 0.983 . S
H795 C819 0.979 . S
H796 C819 0.977 . S
C797 C785 1.453 . S
C797 H826 0.982 1_556 S
C797 H827 0.979 1_556 S
C797 H828 0.977 . S
C798 C785 1.684 . S
C798 H823 0.979 . S
C798 H824 0.980 . S
C798 H825 0.983 . S
C799 C800 1.391 . S
C799 C804 1.391 . S
C799 H829 0.948 . S
C800 C799 1.391 . S
C800 C801 1.391 . S
C801 C800 1.391 . S
C801 C802 1.392 . S
C801 H830 0.947 . S
C802 C801 1.392 . S
C802 C803 1.419 . S
C802 H831 0.948 . S
C803 C802 1.419 . S
C803 C804 1.391 . S
C803 C807 1.397 . S
C804 C799 1.391 . S
C804 C803 1.391 . S
C804 C805 1.399 . S
C805 C804 1.399 . S
C805 C806 1.396 . S
C805 C808 1.453 . S
C805 C809 1.684 . S
C806 C787 1.723 . S
C806 C805 1.396 . S
C806 C807 1.394 . S
C807 C803 1.397 . S
C807 C806 1.394 . S
C807 C817 1.723 . S
C808 C805 1.453 . S
C808 H832 0.982 . S
C808 H833 0.979 . S
C808 H834 0.977 . S
C809 C805 1.684 . S
C809 H835 0.979 . S
C809 H836 0.980 . S
C809 H837 0.983 . S
C810 H786 0.948 . S
C810 C811 1.391 . S
C810 C815 1.391 . S
C811 C810 1.391 . S
C811 C812 1.391 . S
C812 H789 0.947 . S
C812 C811 1.391 . S
C812 C813 1.392 . S
C813 H790 0.948 . S
C813 C812 1.392 . S
C813 C814 1.419 . S
C814 C813 1.419 . S
C814 C815 1.391 . S
C814 C818 1.397 . S
C815 C810 1.391 . S
C815 C814 1.391 . S
C815 C816 1.399 . S
C816 C815 1.399 . S
C816 C817 1.396 . S
C816 C819 1.453 . S
C816 C820 1.684 . S
C817 C807 1.723 . S
C817 C816 1.396 . S
C817 C818 1.394 . S
C818 C788 1.723 . S
C818 C814 1.397 . S
C818 C817 1.394 . S
C819 H791 0.982 . S
C819 H795 0.979 . S
C819 H796 0.977 . S
C819 C816 1.453 . S
C820 H792 0.979 . S
C820 H793 0.980 . S
C820 H794 0.983 . S
C820 C816 1.684 . S
H821 C839 0.948 . S
H822 C780 0.948 1_554 S
H823 C798 0.979 . S
H824 C798 0.980 . S
H825 C798 0.983 . S
H826 C797 0.982 1_554 S
H827 C797 0.979 1_554 S
H828 C797 0.977 . S
H829 C799 0.948 . S
H830 C801 0.947 . S
H831 C802 0.948 . S
H832 C808 0.982 . S
H833 C808 0.979 . S
H834 C808 0.977 . S
H835 C809 0.979 . S
H836 C809 0.980 . S
H837 C809 0.983 . S
H838 C782 0.947 . S
C839 C782 1.392 . S
C839 C783 1.419 . S
C839 H821 0.948 . S
C840 C841 1.391 . S
C840 C844 1.391 . S
C840 H882 0.948 . S
C841 C840 1.391 . S
C841 C842 1.391 . S
C842 C841 1.391 . S
C842 H898 0.947 . S
C842 C899 1.392 . S
C843 C844 1.391 . S
C843 C847 1.397 . S
C843 C899 1.419 . S
C844 C840 1.391 . S
C844 C843 1.391 . S
C844 C845 1.399 . S
C845 C844 1.399 . S
C845 C848 1.396 . S
C845 C857 1.453 . S
C845 C858 1.684 . S
H846 C870 0.948 . S
C847 C843 1.397 . S
C847 C848 1.394 . S
C847 C866 1.723 . S
C848 C845 1.396 . S
C848 C847 1.394 . S
C848 C878 1.723 . S
H849 C872 0.947 . S
H850 C873 0.948 . S
H851 C879 0.982 . S
H852 C880 0.979 . S
H853 C880 0.980 . S
H854 C880 0.983 . S
H855 C879 0.979 . S
H856 C879 0.977 . S
C857 C845 1.453 . S
C857 H886 0.982 . S
C857 H887 0.979 . S
C857 H888 0.977 . S
C858 C845 1.684 . S
C858 H883 0.979 . S
C858 H884 0.980 . S
C858 H885 0.983 . S
C859 C860 1.391 . S
C859 C864 1.391 . S
C859 H889 0.948 . S
C860 C859 1.391 . S
C860 C861 1.391 . S
C861 C860 1.391 . S
C861 C862 1.392 . S
C861 H890 0.947 . S
C862 C861 1.392 . S
C862 C863 1.419 . S
C862 H891 0.948 . S
C863 C862 1.419 . S
C863 C864 1.391 . S
C863 C867 1.397 . S
C864 C859 1.391 . S
C864 C863 1.391 . S
C864 C865 1.399 . S
C865 C864 1.399 . S
C865 C866 1.396 . S
C865 C868 1.453 . S
C865 C869 1.684 . S
C866 C847 1.723 . S
C866 C865 1.396 . S
C866 C867 1.394 . S
C867 C863 1.397 . S
C867 C866 1.394 . S
C867 C877 1.723 . S
C868 C865 1.453 . S
C868 H892 0.982 . S
C868 H893 0.979 . S
C868 H894 0.977 . S
C869 C865 1.684 . S
C869 H895 0.979 . S
C869 H896 0.980 . S
C869 H897 0.983 . S
C870 H846 0.948 . S
C870 C871 1.391 . S
C870 C875 1.391 . S
C871 C870 1.391 . S
C871 C872 1.391 . S
C872 H849 0.947 . S
C872 C871 1.391 . S
C872 C873 1.392 . S
C873 H850 0.948 . S
C873 C872 1.392 . S
C873 C874 1.419 . S
C874 C873 1.419 . S
C874 C875 1.391 . S
C874 C878 1.397 . S
C875 C870 1.391 . S
C875 C874 1.391 . S
C875 C876 1.399 . S
C876 C875 1.399 . S
C876 C877 1.396 . S
C876 C879 1.453 . S
C876 C880 1.684 . S
C877 C867 1.723 . S
C877 C876 1.396 . S
C877 C878 1.394 . S
C878 C848 1.723 . S
C878 C874 1.397 . S
C878 C877 1.394 . S
C879 H851 0.982 . S
C879 H855 0.979 . S
C879 H856 0.977 . S
C879 C876 1.453 . S
C880 H852 0.979 . S
C880 H853 0.980 . S
C880 H854 0.983 . S
C880 C876 1.684 . S
H881 C899 0.948 . S
H882 C840 0.948 . S
H883 C858 0.979 . S
H884 C858 0.980 . S
H885 C858 0.983 . S
H886 C857 0.982 . S
H887 C857 0.979 . S
H888 C857 0.977 . S
H889 C859 0.948 . S
H890 C861 0.947 . S
H891 C862 0.948 . S
H892 C868 0.982 . S
H893 C868 0.979 . S
H894 C868 0.977 . S
H895 C869 0.979 . S
H896 C869 0.980 . S
H897 C869 0.983 . S
H898 C842 0.947 . S
C899 C842 1.392 . S
C899 C843 1.419 . S
C899 H881 0.948 . S
C900 C901 1.391 . S
C900 C904 1.391 . S
C900 H942 0.948 . S
C901 C900 1.391 . S
C901 C902 1.391 . S
C902 C901 1.391 . S
C902 H958 0.947 1_545 S
C902 C959 1.392 . S
C903 C904 1.391 . S
C903 C907 1.397 . S
C903 C959 1.419 . S
C904 C900 1.391 . S
C904 C903 1.391 . S
C904 C905 1.399 . S
C905 C904 1.399 . S
C905 C908 1.396 . S
C905 C917 1.453 . S
C905 C918 1.684 . S
H906 C930 0.948 . S
C907 C903 1.397 . S
C907 C908 1.394 . S
C907 C926 1.723 . S
C908 C905 1.396 . S
C908 C907 1.394 . S
C908 C938 1.723 . S
H909 C932 0.947 1_554 S
H910 C933 0.948 . S
H911 C939 0.982 . S
H912 C940 0.979 . S
H913 C940 0.980 . S
H914 C940 0.983 . S
H915 C939 0.979 . S
H916 C939 0.977 . S
C917 C905 1.453 . S
C917 H946 0.982 . S
C917 H947 0.979 . S
C917 H948 0.977 . S
C918 C905 1.684 . S
C918 H943 0.979 . S
C918 H944 0.980 . S
C918 H945 0.983 . S
C919 C920 1.391 . S
C919 C924 1.391 . S
C919 H949 0.948 . S
C920 C919 1.391 . S
C920 C921 1.391 . S
C921 C920 1.391 . S
C921 C922 1.392 . S
C921 H950 0.947 . S
C922 C921 1.392 . S
C922 C923 1.419 . S
C922 H951 0.948 . S
C923 C922 1.419 . S
C923 C924 1.391 . S
C923 C927 1.397 . S
C924 C919 1.391 . S
C924 C923 1.391 . S
C924 C925 1.399 . S
C925 C924 1.399 . S
C925 C926 1.396 . S
C925 C928 1.453 . S
C925 C929 1.684 . S
C926 C907 1.723 . S
C926 C925 1.396 . S
C926 C927 1.394 . S
C927 C923 1.397 . S
C927 C926 1.394 . S
C927 C937 1.723 . S
C928 C925 1.453 . S
C928 H952 0.982 . S
C928 H953 0.979 . S
C928 H954 0.977 . S
C929 C925 1.684 . S
C929 H955 0.979 . S
C929 H956 0.980 . S
C929 H957 0.983 . S
C930 H906 0.948 . S
C930 C931 1.391 . S
C930 C935 1.391 . S
C931 C930 1.391 . S
C931 C932 1.391 . S
C932 H909 0.947 1_556 S
C932 C931 1.391 . S
C932 C933 1.392 . S
C933 H910 0.948 . S
C933 C932 1.392 . S
C933 C934 1.419 . S
C934 C933 1.419 . S
C934 C935 1.391 . S
C934 C938 1.397 . S
C935 C930 1.391 . S
C935 C934 1.391 . S
C935 C936 1.399 . S
C936 C935 1.399 . S
C936 C937 1.396 . S
C936 C939 1.453 . S
C936 C940 1.684 . S
C937 C927 1.723 . S
C937 C936 1.396 . S
C937 C938 1.394 . S
C938 C908 1.723 . S
C938 C934 1.397 . S
C938 C937 1.394 . S
C939 H911 0.982 . S
C939 H915 0.979 . S
C939 H916 0.977 . S
C939 C936 1.453 . S
C940 H912 0.979 . S
C940 H913 0.980 . S
C940 H914 0.983 . S
C940 C936 1.684 . S
H941 C959 0.948 . S
H942 C900 0.948 . S
H943 C918 0.979 . S
H944 C918 0.980 . S
H945 C918 0.983 . S
H946 C917 0.982 . S
H947 C917 0.979 . S
H948 C917 0.977 . S
H949 C919 0.948 . S
H950 C921 0.947 . S
H951 C922 0.948 . S
H952 C928 0.982 . S
H953 C928 0.979 . S
H954 C928 0.977 . S
H955 C929 0.979 . S
H956 C929 0.980 . S
H957 C929 0.983 . S
H958 C902 0.947 1_565 S
C959 C902 1.392 . S
C959 C903 1.419 . S
C959 H941 0.948 . S
Zn960 O963 2.055 . S
Zn960 O965 2.033 1_554 S
Zn960 O970 2.034 1_554 S
Zn961 O962 1.962 . S
Zn961 O964 1.986 . S
Zn961 O966 1.996 . S
Zn961 O969 1.943 1_554 S
O962 Zn961 1.962 . S
O962 C967 1.254 . S
O963 Zn960 2.055 . S
O963 C967 1.269 . S
O964 Zn961 1.986 . S
O964 C971 1.262 . S
O965 Zn960 2.033 1_556 S
O965 C973 1.260 . S
O966 Zn961 1.996 . S
O966 C973 1.257 1_554 S
C967 O962 1.254 . S
C967 O963 1.269 . S
C968 O969 1.249 . S
C968 O970 1.270 . S
O969 Zn961 1.943 1_556 S
O969 C968 1.249 . S
O970 Zn960 2.034 1_556 S
O970 C968 1.270 . S
C971 O964 1.262 . S
C971 O972 1.232 . S
O972 C971 1.232 . S
C973 O965 1.260 . S
C973 O966 1.257 1_556 S
Zn974 O977 2.031 . S
Zn974 O979 2.049 . S
Zn974 O984 2.067 . S
Zn975 O976 1.962 . S
Zn975 O978 1.986 . S
Zn975 O980 1.996 . S
Zn975 O983 1.943 . S
O976 Zn975 1.962 . S
O976 C981 1.254 . S
O977 Zn974 2.031 . S
O977 C981 1.269 . S
O978 Zn975 1.986 . S
O978 C985 1.262 . S
O979 Zn974 2.049 . S
O979 C987 1.260 . S
O980 Zn975 1.996 . S
O980 C987 1.257 . S
C981 O976 1.254 . S
C981 O977 1.269 . S
C982 O983 1.249 . S
C982 O984 1.270 . S
O983 Zn975 1.943 . S
O983 C982 1.249 . S
O984 Zn974 2.067 . S
O984 C982 1.270 . S
C985 O978 1.262 . S
C985 O986 1.232 . S
O986 C985 1.232 . S
C987 O979 1.260 . S
C987 O980 1.257 . S
Zn988 O991 2.031 . S
Zn988 O993 2.049 . S
Zn988 O998 2.067 . S
Zn989 O990 1.962 . S
Zn989 O992 1.986 . S
Zn989 O994 1.996 1_554 S
Zn989 O997 1.943 . S
O990 Zn989 1.962 . S
O990 C995 1.254 . S
O991 Zn988 2.031 . S
O991 C995 1.269 1_556 S
O992 Zn989 1.986 . S
O992 C999 1.262 . S
O993 Zn988 2.049 . S
O993 C1001 1.260 . S
O994 Zn989 1.996 1_556 S
O994 C1001 1.257 . S
C995 O990 1.254 . S
C995 O991 1.269 1_554 S
C996 O997 1.249 1_556 S
C996 O998 1.270 . S
O997 Zn989 1.943 . S
O997 C996 1.249 1_554 S
O998 Zn988 2.067 . S
O998 C996 1.270 . S
C999 O992 1.262 . S
C999 O1000 1.232 . S
O1000 C999 1.232 . S
C1001 O993 1.260 . S
C1001 O994 1.257 . S
Zn1002 O1005 2.055 . S
Zn1002 O1007 2.033 1_545 S
Zn1002 O1012 2.034 1_545 S
Zn1003 O1004 1.962 . S
Zn1003 O1006 1.986 . S
Zn1003 O1008 1.996 . S
Zn1003 O1011 1.943 1_545 S
O1004 Zn1003 1.962 . S
O1004 C1009 1.254 . S
O1005 Zn1002 2.055 . S
O1005 C1009 1.269 . S
O1006 Zn1003 1.986 . S
O1006 C1013 1.262 . S
O1007 Zn1002 2.033 1_565 S
O1007 C1015 1.260 . S
O1008 Zn1003 1.996 . S
O1008 C1015 1.257 1_545 S
C1009 O1004 1.254 . S
C1009 O1005 1.269 . S
C1010 O1011 1.249 . S
C1010 O1012 1.270 . S
O1011 Zn1003 1.943 1_565 S
O1011 C1010 1.249 . S
O1012 Zn1002 2.034 1_565 S
O1012 C1010 1.270 . S
C1013 O1006 1.262 . S
C1013 O1014 1.232 . S
O1014 C1013 1.232 . S
C1015 O1007 1.260 . S
C1015 O1008 1.257 1_565 S
Zn1016 O1019 2.031 . S
Zn1016 O1021 2.049 . S
Zn1016 O1026 2.067 . S
Zn1017 O1018 1.962 . S
Zn1017 O1020 1.986 . S
Zn1017 O1022 1.996 . S
Zn1017 O1025 1.943 . S
O1018 Zn1017 1.962 . S
O1018 C1023 1.254 . S
O1019 Zn1016 2.031 . S
O1019 C1023 1.269 . S
O1020 Zn1017 1.986 . S
O1020 C1027 1.262 . S
O1021 Zn1016 2.049 . S
O1021 C1029 1.260 . S
O1022 Zn1017 1.996 . S
O1022 C1029 1.257 . S
C1023 O1018 1.254 . S
C1023 O1019 1.269 . S
C1024 O1025 1.249 . S
C1024 O1026 1.270 . S
O1025 Zn1017 1.943 . S
O1025 C1024 1.249 . S
O1026 Zn1016 2.067 . S
O1026 C1024 1.270 . S
C1027 O1020 1.262 . S
C1027 O1028 1.232 . S
O1028 C1027 1.232 . S
C1029 O1021 1.260 . S
C1029 O1022 1.257 . S
Zn1030 O1033 2.031 . S
Zn1030 O1035 2.049 . S
Zn1030 O1040 2.067 . S
Zn1031 O1032 1.962 . S
Zn1031 O1034 1.986 . S
Zn1031 O1036 1.996 . S
Zn1031 O1039 1.943 . S
O1032 Zn1031 1.962 . S
O1032 C1037 1.254 . S
O1033 Zn1030 2.031 . S
O1033 C1037 1.269 . S
O1034 Zn1031 1.986 . S
O1034 C1041 1.262 . S
O1035 Zn1030 2.049 . S
O1035 C1043 1.260 . S
O1036 Zn1031 1.996 . S
O1036 C1043 1.257 . S
C1037 O1032 1.254 . S
C1037 O1033 1.269 . S
C1038 O1039 1.249 . S
C1038 O1040 1.270 . S
O1039 Zn1031 1.943 . S
O1039 C1038 1.249 . S
O1040 Zn1030 2.067 . S
O1040 C1038 1.270 . S
C1041 O1034 1.262 . S
C1041 O1042 1.232 . S
O1042 C1041 1.232 . S
C1043 O1035 1.260 . S
C1043 O1036 1.257 . S
Zn1044 O1047 2.031 . S
Zn1044 O1049 2.049 . S
Zn1044 O1054 2.067 . S
Zn1045 O1046 1.962 . S
Zn1045 O1048 1.986 . S
Zn1045 O1050 1.996 . S
Zn1045 O1053 1.943 . S
O1046 Zn1045 1.962 . S
O1046 C1051 1.254 . S
O1047 Zn1044 2.031 . S
O1047 C1051 1.269 . S
O1048 Zn1045 1.986 . S
O1048 C1055 1.262 . S
O1049 Zn1044 2.049 . S
O1049 C1057 1.260 . S
O1050 Zn1045 1.996 . S
O1050 C1057 1.257 . S
C1051 O1046 1.254 . S
C1051 O1047 1.269 . S
C1052 O1053 1.249 . S
C1052 O1054 1.270 . S
O1053 Zn1045 1.943 . S
O1053 C1052 1.249 . S
O1054 Zn1044 2.067 . S
O1054 C1052 1.270 . S
C1055 O1048 1.262 . S
C1055 O1056 1.232 . S
O1056 C1055 1.232 . S
C1057 O1049 1.260 . S
C1057 O1050 1.257 . S
Zn1058 O1061 2.031 . S
Zn1058 O1063 2.049 . S
Zn1058 O1068 2.067 . S
Zn1059 O1060 1.962 . S
Zn1059 O1062 1.986 . S
Zn1059 O1064 1.996 1_545 S
Zn1059 O1067 1.943 . S
O1060 Zn1059 1.962 . S
O1060 C1065 1.254 . S
O1061 Zn1058 2.031 . S
O1061 C1065 1.269 1_565 S
O1062 Zn1059 1.986 . S
O1062 C1069 1.262 . S
O1063 Zn1058 2.049 . S
O1063 C1071 1.260 . S
O1064 Zn1059 1.996 1_565 S
O1064 C1071 1.257 . S
C1065 O1060 1.254 . S
C1065 O1061 1.269 1_545 S
C1066 O1067 1.249 1_565 S
C1066 O1068 1.270 . S
O1067 Zn1059 1.943 . S
O1067 C1066 1.249 1_545 S
O1068 Zn1058 2.067 . S
O1068 C1066 1.270 . S
C1069 O1062 1.262 . S
C1069 O1070 1.232 . S
O1070 C1069 1.232 . S
C1071 O1063 1.260 . S
C1071 O1064 1.257 . S
Zn1072 O1075 2.055 . S
Zn1072 O1077 2.033 1_455 S
Zn1072 O1082 2.034 1_455 S
Zn1073 O1074 1.962 . S
Zn1073 O1076 1.986 . S
Zn1073 O1078 1.996 . S
Zn1073 O1081 1.943 1_455 S
O1074 Zn1073 1.962 . S
O1074 C1079 1.254 . S
O1075 Zn1072 2.055 . S
O1075 C1079 1.269 . S
O1076 Zn1073 1.986 . S
O1076 C1083 1.262 . S
O1077 Zn1072 2.033 1_655 S
O1077 C1085 1.260 . S
O1078 Zn1073 1.996 . S
O1078 C1085 1.257 1_455 S
C1079 O1074 1.254 . S
C1079 O1075 1.269 . S
C1080 O1081 1.249 . S
C1080 O1082 1.270 . S
O1081 Zn1073 1.943 1_655 S
O1081 C1080 1.249 . S
O1082 Zn1072 2.034 1_655 S
O1082 C1080 1.270 . S
C1083 O1076 1.262 . S
C1083 O1084 1.232 . S
O1084 C1083 1.232 . S
C1085 O1077 1.260 . S
C1085 O1078 1.257 1_655 S
Zn1086 O1089 2.031 . S
Zn1086 O1091 2.049 . S
Zn1086 O1096 2.067 . S
Zn1087 O1088 1.962 . S
Zn1087 O1090 1.986 . S
Zn1087 O1092 1.996 . S
Zn1087 O1095 1.943 . S
O1088 Zn1087 1.962 . S
O1088 C1093 1.254 . S
O1089 Zn1086 2.031 . S
O1089 C1093 1.269 . S
O1090 Zn1087 1.986 . S
O1090 C1097 1.262 . S
O1091 Zn1086 2.049 . S
O1091 C1099 1.260 . S
O1092 Zn1087 1.996 . S
O1092 C1099 1.257 . S
C1093 O1088 1.254 . S
C1093 O1089 1.269 . S
C1094 O1095 1.249 . S
C1094 O1096 1.270 . S
O1095 Zn1087 1.943 . S
O1095 C1094 1.249 . S
O1096 Zn1086 2.067 . S
O1096 C1094 1.270 . S
C1097 O1090 1.262 . S
C1097 O1098 1.232 . S
O1098 C1097 1.232 . S
C1099 O1091 1.260 . S
C1099 O1092 1.257 . S
Zn1100 O1103 2.031 . S
Zn1100 O1105 2.049 . S
Zn1100 O1110 2.067 . S
Zn1101 O1102 1.962 . S
Zn1101 O1104 1.986 . S
Zn1101 O1106 1.996 1_455 S
Zn1101 O1109 1.943 . S
O1102 Zn1101 1.962 . S
O1102 C1107 1.254 . S
O1103 Zn1100 2.031 . S
O1103 C1107 1.269 1_655 S
O1104 Zn1101 1.986 . S
O1104 C1111 1.262 . S
O1105 Zn1100 2.049 . S
O1105 C1113 1.260 . S
O1106 Zn1101 1.996 1_655 S
O1106 C1113 1.257 . S
C1107 O1102 1.254 . S
C1107 O1103 1.269 1_455 S
C1108 O1109 1.249 1_655 S
C1108 O1110 1.270 . S
O1109 Zn1101 1.943 . S
O1109 C1108 1.249 1_455 S
O1110 Zn1100 2.067 . S
O1110 C1108 1.270 . S
C1111 O1104 1.262 . S
C1111 O1112 1.232 . S
O1112 C1111 1.232 . S
C1113 O1105 1.260 . S
C1113 O1106 1.257 . S
Zn1114 O1117 2.031 . S
Zn1114 O1119 2.049 . S
Zn1114 O1124 2.067 . S
Zn1115 O1116 1.962 . S
Zn1115 O1118 1.986 . S
Zn1115 O1120 1.996 . S
Zn1115 O1123 1.943 . S
O1116 Zn1115 1.962 . S
O1116 C1121 1.254 . S
O1117 Zn1114 2.031 . S
O1117 C1121 1.269 . S
O1118 Zn1115 1.986 . S
O1118 C1125 1.262 . S
O1119 Zn1114 2.049 . S
O1119 C1127 1.260 . S
O1120 Zn1115 1.996 . S
O1120 C1127 1.257 . S
C1121 O1116 1.254 . S
C1121 O1117 1.269 . S
C1122 O1123 1.249 . S
C1122 O1124 1.270 . S
O1123 Zn1115 1.943 . S
O1123 C1122 1.249 . S
O1124 Zn1114 2.067 . S
O1124 C1122 1.270 . S
C1125 O1118 1.262 . S
C1125 O1126 1.232 . S
O1126 C1125 1.232 . S
C1127 O1119 1.260 . S
C1127 O1120 1.257 . S
H1128 C1136 0.929 . S
H1129 C1138 0.930 . S
H1130 C1140 0.930 . S
H1131 C1143 0.929 . S
H1132 C1146 0.930 . S
H1133 C1148 0.960 . S
H1134 C1148 0.960 . S
H1135 C1148 0.960 . S
C1136 H1128 0.929 . S
C1136 C1137 1.377 . S
C1136 C1138 1.384 . S
C1137 C1136 1.377 . S
C1137 C1143 1.390 . S
C1138 H1129 0.930 . S
C1138 C1136 1.384 . S
C1138 C1139 1.372 . S
C1139 C1138 1.372 . S
C1139 C1140 1.400 . S
C1139 C1144 1.490 . S
C1140 H1130 0.930 . S
C1140 C1139 1.400 . S
C1140 C1143 1.386 . S
H1141 C1157 0.930 . S
H1142 C1158 0.931 . S
C1143 H1131 0.929 . S
C1143 C1137 1.390 . S
C1143 C1140 1.386 . S
C1144 C1139 1.490 . S
C1144 C1146 1.395 . S
C1144 C1147 1.403 . S
H1145 C1151 0.930 . S
C1146 H1132 0.930 . S
C1146 C1144 1.395 . S
C1146 C1149 1.403 . S
C1147 C1144 1.403 . S
C1147 C1148 1.524 . S
C1147 C1151 1.400 . S
C1148 H1133 0.960 . S
C1148 H1134 0.960 . S
C1148 H1135 0.960 . S
C1148 C1147 1.524 . S
C1149 C1146 1.403 . S
C1149 C1150 1.392 . S
C1149 C1153 1.495 . S
C1150 C1149 1.392 . S
C1150 C1151 1.385 . S
C1150 C1152 1.478 . S
C1151 H1145 0.930 . S
C1151 C1147 1.400 . S
C1151 C1150 1.385 . S
C1152 C1150 1.478 . S
C1152 C1154 1.381 . S
C1152 C1158 1.383 . S
C1153 C1149 1.495 . S
C1153 H1159 0.959 . S
C1153 H1160 0.961 . S
C1153 H1161 0.960 . S
C1154 C1152 1.381 . S
C1154 C1155 1.394 . S
C1154 H1162 0.930 . S
C1155 C1154 1.394 . S
C1155 C1156 1.383 . S
C1155 H1163 0.929 . S
C1156 C1155 1.383 . S
C1156 C1157 1.377 . S
C1157 H1141 0.930 . S
C1157 C1156 1.377 . S
C1157 C1158 1.379 . S
C1158 H1142 0.931 . S
C1158 C1152 1.383 . S
C1158 C1157 1.379 . S
H1159 C1153 0.959 . S
H1160 C1153 0.961 . S
H1161 C1153 0.960 . S
H1162 C1154 0.930 . S
H1163 C1155 0.929 . S
H1164 C1172 0.929 . S
H1165 C1174 0.930 . S
H1166 C1176 0.930 . S
H1167 C1179 0.894 1_655 S
H1168 C1182 0.930 . S
H1169 C1184 0.960 . S
H1170 C1184 0.960 . S
H1171 C1184 0.960 . S
C1172 H1164 0.929 . S
C1172 C1173 1.377 . S
C1172 C1174 1.384 . S
C1173 C1172 1.377 . S
C1173 C1179 1.390 . S
C1174 H1165 0.930 . S
C1174 C1172 1.384 . S
C1174 C1175 1.372 . S
C1175 C1174 1.372 . S
C1175 C1176 1.400 . S
C1175 C1180 1.490 . S
C1176 H1166 0.930 . S
C1176 C1175 1.400 . S
C1176 C1179 1.386 . S
H1177 C1193 0.930 . S
H1178 C1194 0.931 . S
C1179 H1167 0.894 1_455 S
C1179 C1173 1.390 . S
C1179 C1176 1.386 . S
C1180 C1175 1.490 . S
C1180 C1182 1.395 . S
C1180 C1183 1.403 . S
H1181 C1187 0.930 . S
C1182 H1168 0.930 . S
C1182 C1180 1.395 . S
C1182 C1185 1.403 . S
C1183 C1180 1.403 . S
C1183 C1184 1.524 . S
C1183 C1187 1.400 . S
C1184 H1169 0.960 . S
C1184 H1170 0.960 . S
C1184 H1171 0.960 . S
C1184 C1183 1.524 . S
C1185 C1182 1.403 . S
C1185 C1186 1.392 . S
C1185 C1189 1.495 . S
C1186 C1185 1.392 . S
C1186 C1187 1.385 . S
C1186 C1188 1.478 . S
C1187 H1181 0.930 . S
C1187 C1183 1.400 . S
C1187 C1186 1.385 . S
C1188 C1186 1.478 . S
C1188 C1190 1.381 . S
C1188 C1194 1.383 . S
C1189 C1185 1.495 . S
C1189 H1195 0.959 . S
C1189 H1196 0.961 . S
C1189 H1197 0.960 . S
C1190 C1188 1.381 . S
C1190 C1191 1.394 . S
C1190 H1198 0.930 . S
C1191 C1190 1.394 . S
C1191 C1192 1.383 . S
C1191 H1199 0.929 . S
C1192 C1191 1.383 . S
C1192 C1193 1.377 . S
C1193 H1177 0.930 . S
C1193 C1192 1.377 . S
C1193 C1194 1.379 . S
C1194 H1178 0.931 . S
C1194 C1188 1.383 . S
C1194 C1193 1.379 . S
H1195 C1189 0.959 . S
H1196 C1189 0.961 . S
H1197 C1189 0.960 . S
H1198 C1190 0.930 . S
H1199 C1191 0.929 . S
H1200 C1208 0.929 . S
H1201 C1210 0.930 . S
H1202 C1212 0.930 . S
H1203 C1215 0.929 . S
H1204 C1218 0.930 . S
H1205 C1220 0.960 . S
H1206 C1220 0.960 . S
H1207 C1220 0.960 . S
C1208 H1200 0.929 . S
C1208 C1209 1.377 . S
C1208 C1210 1.384 . S
C1209 C1208 1.377 . S
C1209 C1215 1.390 . S
C1210 H1201 0.930 . S
C1210 C1208 1.384 . S
C1210 C1211 1.372 . S
C1211 C1210 1.372 . S
C1211 C1212 1.400 . S
C1211 C1216 1.490 . S
C1212 H1202 0.930 . S
C1212 C1211 1.400 . S
C1212 C1215 1.386 . S
H1213 C1229 0.930 . S
H1214 C1230 0.931 . S
C1215 H1203 0.929 . S
C1215 C1209 1.390 . S
C1215 C1212 1.386 . S
C1216 C1211 1.490 . S
C1216 C1218 1.395 . S
C1216 C1219 1.403 . S
H1217 C1223 0.930 . S
C1218 H1204 0.930 . S
C1218 C1216 1.395 . S
C1218 C1221 1.403 . S
C1219 C1216 1.403 . S
C1219 C1220 1.524 . S
C1219 C1223 1.400 . S
C1220 H1205 0.960 . S
C1220 H1206 0.960 . S
C1220 H1207 0.960 . S
C1220 C1219 1.524 . S
C1221 C1218 1.403 . S
C1221 C1222 1.392 . S
C1221 C1225 1.495 . S
C1222 C1221 1.392 . S
C1222 C1223 1.385 . S
C1222 C1224 1.478 . S
C1223 H1217 0.930 . S
C1223 C1219 1.400 . S
C1223 C1222 1.385 . S
C1224 C1222 1.478 . S
C1224 C1226 1.381 . S
C1224 C1230 1.383 . S
C1225 C1221 1.495 . S
C1225 H1231 0.959 . S
C1225 H1232 0.961 . S
C1225 H1233 0.960 . S
C1226 C1224 1.381 . S
C1226 C1227 1.394 . S
C1226 H1234 0.930 . S
C1227 C1226 1.394 . S
C1227 C1228 1.383 . S
C1227 H1235 0.929 . S
C1228 C1227 1.383 . S
C1228 C1229 1.377 . S
C1229 H1213 0.930 . S
C1229 C1228 1.377 . S
C1229 C1230 1.379 . S
C1230 H1214 0.931 . S
C1230 C1224 1.383 . S
C1230 C1229 1.379 . S
H1231 C1225 0.959 . S
H1232 C1225 0.961 . S
H1233 C1225 0.960 . S
H1234 C1226 0.930 . S
H1235 C1227 0.929 . S
H1236 C1244 0.929 . S
H1237 C1246 0.930 . S
H1238 C1248 0.930 . S
H1239 C1251 0.927 1_455 S
H1240 C1254 0.930 . S
H1241 C1256 0.960 . S
H1242 C1256 0.960 . S
H1243 C1256 0.960 . S
C1244 H1236 0.929 . S
C1244 C1245 1.377 1_655 S
C1244 C1246 1.384 . S
C1245 C1244 1.377 1_455 S
C1245 C1251 1.389 1_455 S
C1246 H1237 0.930 . S
C1246 C1244 1.384 . S
C1246 C1247 1.372 . S
C1247 C1246 1.372 . S
C1247 C1248 1.400 . S
C1247 C1252 1.490 . S
C1248 H1238 0.930 . S
C1248 C1247 1.400 . S
C1248 C1251 1.389 . S
H1249 C1265 0.930 . S
H1250 C1266 0.894 1_545 S
C1251 H1239 0.927 1_655 S
C1251 C1245 1.389 1_655 S
C1251 C1248 1.389 . S
C1252 C1247 1.490 . S
C1252 C1254 1.395 . S
C1252 C1255 1.403 . S
H1253 C1259 0.930 . S
C1254 H1240 0.930 . S
C1254 C1252 1.395 . S
C1254 C1257 1.403 . S
C1255 C1252 1.403 . S
C1255 C1256 1.524 . S
C1255 C1259 1.400 . S
C1256 H1241 0.960 . S
C1256 H1242 0.960 . S
C1256 H1243 0.960 . S
C1256 C1255 1.524 . S
C1257 C1254 1.403 . S
C1257 C1258 1.392 . S
C1257 C1261 1.495 . S
C1258 C1257 1.392 . S
C1258 C1259 1.385 . S
C1258 C1260 1.478 . S
C1259 H1253 0.930 . S
C1259 C1255 1.400 . S
C1259 C1258 1.385 . S
C1260 C1258 1.478 . S
C1260 C1262 1.381 . S
C1260 C1266 1.435 . S
C1261 C1257 1.495 . S
C1261 H1267 0.959 . S
C1261 H1268 0.961 . S
C1261 H1269 0.960 . S
C1262 C1260 1.381 . S
C1262 C1263 1.394 . S
C1262 H1270 0.930 . S
C1263 C1262 1.394 . S
C1263 C1264 1.383 . S
C1263 H1271 0.929 . S
C1264 C1263 1.383 . S
C1264 C1265 1.377 1_565 S
C1265 H1249 0.930 . S
C1265 C1264 1.377 1_545 S
C1265 C1266 1.366 1_545 S
C1266 H1250 0.894 1_565 S
C1266 C1260 1.435 . S
C1266 C1265 1.366 1_565 S
H1267 C1261 0.959 . S
H1268 C1261 0.961 . S
H1269 C1261 0.960 . S
H1270 C1262 0.930 . S
H1271 C1263 0.929 . S
H1272 C1280 0.929 . S
H1273 C1282 0.930 . S
H1274 C1284 0.930 . S
H1275 C1287 0.929 . S
H1276 C1290 0.930 . S
H1277 C1292 0.960 . S
H1278 C1292 0.960 . S
H1279 C1292 0.960 . S
C1280 H1272 0.929 . S
C1280 C1281 1.377 . S
C1280 C1282 1.384 . S
C1281 C1280 1.377 . S
C1281 C1287 1.390 . S
C1282 H1273 0.930 . S
C1282 C1280 1.384 . S
C1282 C1283 1.372 . S
C1283 C1282 1.372 . S
C1283 C1284 1.400 . S
C1283 C1288 1.490 . S
C1284 H1274 0.930 . S
C1284 C1283 1.400 . S
C1284 C1287 1.386 . S
H1285 C1301 0.930 . S
H1286 C1302 0.931 . S
C1287 H1275 0.929 . S
C1287 C1281 1.390 . S
C1287 C1284 1.386 . S
C1288 C1283 1.490 . S
C1288 C1290 1.395 . S
C1288 C1291 1.403 . S
H1289 C1295 0.930 . S
C1290 H1276 0.930 . S
C1290 C1288 1.395 . S
C1290 C1293 1.403 . S
C1291 C1288 1.403 . S
C1291 C1292 1.524 . S
C1291 C1295 1.400 . S
C1292 H1277 0.960 . S
C1292 H1278 0.960 . S
C1292 H1279 0.960 . S
C1292 C1291 1.524 . S
C1293 C1290 1.403 . S
C1293 C1294 1.392 . S
C1293 C1297 1.495 . S
C1294 C1293 1.392 . S
C1294 C1295 1.385 . S
C1294 C1296 1.478 . S
C1295 H1289 0.930 . S
C1295 C1291 1.400 . S
C1295 C1294 1.385 . S
C1296 C1294 1.478 . S
C1296 C1298 1.381 . S
C1296 C1302 1.383 . S
C1297 C1293 1.495 . S
C1297 H1303 0.959 . S
C1297 H1304 0.961 . S
C1297 H1305 0.960 . S
C1298 C1296 1.381 . S
C1298 C1299 1.394 . S
C1298 H1306 0.930 . S
C1299 C1298 1.394 . S
C1299 C1300 1.383 . S
C1299 H1307 0.929 . S
C1300 C1299 1.383 . S
C1300 C1301 1.377 . S
C1301 H1285 0.930 . S
C1301 C1300 1.377 . S
C1301 C1302 1.379 . S
C1302 H1286 0.931 . S
C1302 C1296 1.383 . S
C1302 C1301 1.379 . S
H1303 C1297 0.959 . S
H1304 C1297 0.961 . S
H1305 C1297 0.960 . S
H1306 C1298 0.930 . S
H1307 C1299 0.929 . S
H1308 C1316 0.929 . S
H1309 C1318 0.930 . S
H1310 C1320 0.930 . S
H1311 C1323 0.929 . S
H1312 C1326 0.930 . S
H1313 C1328 0.960 . S
H1314 C1328 0.960 . S
H1315 C1328 0.960 . S
C1316 H1308 0.929 . S
C1316 C1317 1.377 . S
C1316 C1318 1.384 . S
C1317 C1316 1.377 . S
C1317 C1323 1.390 . S
C1318 H1309 0.930 . S
C1318 C1316 1.384 . S
C1318 C1319 1.372 . S
C1319 C1318 1.372 . S
C1319 C1320 1.400 . S
C1319 C1324 1.490 . S
C1320 H1310 0.930 . S
C1320 C1319 1.400 . S
C1320 C1323 1.386 . S
H1321 C1337 0.930 . S
H1322 C1338 0.931 . S
C1323 H1311 0.929 . S
C1323 C1317 1.390 . S
C1323 C1320 1.386 . S
C1324 C1319 1.490 . S
C1324 C1326 1.395 . S
C1324 C1327 1.403 . S
H1325 C1331 0.930 . S
C1326 H1312 0.930 . S
C1326 C1324 1.395 . S
C1326 C1329 1.403 . S
C1327 C1324 1.403 . S
C1327 C1328 1.524 . S
C1327 C1331 1.400 . S
C1328 H1313 0.960 . S
C1328 H1314 0.960 . S
C1328 H1315 0.960 . S
C1328 C1327 1.524 . S
C1329 C1326 1.403 . S
C1329 C1330 1.392 . S
C1329 C1333 1.495 . S
C1330 C1329 1.392 . S
C1330 C1331 1.385 . S
C1330 C1332 1.478 . S
C1331 H1325 0.930 . S
C1331 C1327 1.400 . S
C1331 C1330 1.385 . S
C1332 C1330 1.478 . S
C1332 C1334 1.381 . S
C1332 C1338 1.383 . S
C1333 C1329 1.495 . S
C1333 H1339 0.959 . S
C1333 H1340 0.961 . S
C1333 H1341 0.960 . S
C1334 C1332 1.381 . S
C1334 C1335 1.394 . S
C1334 H1342 0.930 . S
C1335 C1334 1.394 . S
C1335 C1336 1.383 . S
C1335 H1343 0.929 . S
C1336 C1335 1.383 . S
C1336 C1337 1.377 . S
C1337 H1321 0.930 . S
C1337 C1336 1.377 . S
C1337 C1338 1.379 . S
C1338 H1322 0.931 . S
C1338 C1332 1.383 . S
C1338 C1337 1.379 . S
H1339 C1333 0.959 . S
H1340 C1333 0.961 . S
H1341 C1333 0.960 . S
H1342 C1334 0.930 . S
H1343 C1335 0.929 . S
H1344 C1352 0.929 . S
H1345 C1354 0.930 . S
H1346 C1356 0.930 . S
H1347 C1359 0.929 . S
H1348 C1362 0.930 . S
H1349 C1364 0.960 . S
H1350 C1364 0.960 . S
H1351 C1364 0.960 . S
C1352 H1344 0.929 . S
C1352 C1353 1.377 . S
C1352 C1354 1.384 . S
C1353 C1352 1.377 . S
C1353 C1359 1.390 . S
C1354 H1345 0.930 . S
C1354 C1352 1.384 . S
C1354 C1355 1.372 . S
C1355 C1354 1.372 . S
C1355 C1356 1.400 . S
C1355 C1360 1.490 . S
C1356 H1346 0.930 . S
C1356 C1355 1.400 . S
C1356 C1359 1.386 . S
H1357 C1373 0.930 . S
H1358 C1374 0.931 . S
C1359 H1347 0.929 . S
C1359 C1353 1.390 . S
C1359 C1356 1.386 . S
C1360 C1355 1.490 . S
C1360 C1362 1.395 . S
C1360 C1363 1.403 . S
H1361 C1367 0.930 . S
C1362 H1348 0.930 . S
C1362 C1360 1.395 . S
C1362 C1365 1.403 . S
C1363 C1360 1.403 . S
C1363 C1364 1.524 . S
C1363 C1367 1.400 . S
C1364 H1349 0.960 . S
C1364 H1350 0.960 . S
C1364 H1351 0.960 . S
C1364 C1363 1.524 . S
C1365 C1362 1.403 . S
C1365 C1366 1.392 . S
C1365 C1369 1.495 . S
C1366 C1365 1.392 . S
C1366 C1367 1.385 . S
C1366 C1368 1.478 . S
C1367 H1361 0.930 . S
C1367 C1363 1.400 . S
C1367 C1366 1.385 . S
C1368 C1366 1.478 . S
C1368 C1370 1.381 . S
C1368 C1374 1.383 . S
C1369 C1365 1.495 . S
C1369 H1375 0.959 . S
C1369 H1376 0.961 . S
C1369 H1377 0.960 . S
C1370 C1368 1.381 . S
C1370 C1371 1.394 . S
C1370 H1378 0.930 . S
C1371 C1370 1.394 . S
C1371 C1372 1.383 . S
C1371 H1379 0.929 . S
C1372 C1371 1.383 . S
C1372 C1373 1.377 . S
C1373 H1357 0.930 . S
C1373 C1372 1.377 . S
C1373 C1374 1.379 . S
C1374 H1358 0.931 . S
C1374 C1368 1.383 . S
C1374 C1373 1.379 . S
H1375 C1369 0.959 . S
H1376 C1369 0.961 . S
H1377 C1369 0.960 . S
H1378 C1370 0.930 . S
H1379 C1371 0.929 . S
H1380 C1388 0.929 . S
H1381 C1390 0.930 . S
H1382 C1392 0.930 . S
H1383 C1395 0.929 . S
H1384 C1398 0.930 . S
H1385 C1400 0.960 . S
H1386 C1400 0.960 . S
H1387 C1400 0.960 . S
C1388 H1380 0.929 . S
C1388 C1389 1.377 . S
C1388 C1390 1.384 . S
C1389 C1388 1.377 . S
C1389 C1395 1.390 . S
C1390 H1381 0.930 . S
C1390 C1388 1.384 . S
C1390 C1391 1.372 . S
C1391 C1390 1.372 . S
C1391 C1392 1.400 . S
C1391 C1396 1.490 . S
C1392 H1382 0.930 . S
C1392 C1391 1.400 . S
C1392 C1395 1.386 . S
H1393 C1409 0.930 . S
H1394 C1410 0.931 . S
C1395 H1383 0.929 . S
C1395 C1389 1.390 . S
C1395 C1392 1.386 . S
C1396 C1391 1.490 . S
C1396 C1398 1.395 . S
C1396 C1399 1.403 . S
H1397 C1403 0.930 1_545 S
C1398 H1384 0.930 . S
C1398 C1396 1.395 . S
C1398 C1401 1.403 . S
C1399 C1396 1.403 . S
C1399 C1400 1.524 1_565 S
C1399 C1403 1.400 . S
C1400 H1385 0.960 . S
C1400 H1386 0.960 . S
C1400 H1387 0.960 . S
C1400 C1399 1.524 1_545 S
C1401 C1398 1.403 . S
C1401 C1402 1.392 . S
C1401 C1405 1.495 . S
C1402 C1401 1.392 . S
C1402 C1403 1.385 . S
C1402 C1404 1.478 . S
C1403 H1397 0.930 1_565 S
C1403 C1399 1.400 . S
C1403 C1402 1.385 . S
C1404 C1402 1.478 . S
C1404 C1406 1.381 . S
C1404 C1410 1.383 . S
C1405 C1401 1.495 . S
C1405 H1411 0.959 . S
C1405 H1412 0.961 . S
C1405 H1413 0.960 . S
C1406 C1404 1.381 . S
C1406 C1407 1.394 . S
C1406 H1414 0.930 . S
C1407 C1406 1.394 . S
C1407 C1408 1.383 . S
C1407 H1415 0.929 . S
C1408 C1407 1.383 . S
C1408 C1409 1.377 . S
C1409 H1393 0.930 . S
C1409 C1408 1.377 . S
C1409 C1410 1.379 . S
C1410 H1394 0.931 . S
C1410 C1404 1.383 . S
C1410 C1409 1.379 . S
H1411 C1405 0.959 . S
H1412 C1405 0.961 . S
H1413 C1405 0.960 . S
H1414 C1406 0.930 . S
H1415 C1407 0.929 . S
H1416 C1424 0.929 . S
H1417 C1426 0.930 . S
H1418 C1428 0.930 . S
H1419 C1431 0.929 . S
H1420 C1434 0.930 . S
H1421 C1436 0.960 . S
H1422 C1436 0.960 . S
H1423 C1436 0.960 . S
C1424 H1416 0.929 . S
C1424 C1425 1.377 . S
C1424 C1426 1.384 . S
C1425 C1424 1.377 . S
C1425 C1431 1.390 . S
C1426 H1417 0.930 . S
C1426 C1424 1.384 . S
C1426 C1427 1.372 . S
C1427 C1426 1.372 . S
C1427 C1428 1.400 . S
C1427 C1432 1.490 . S
C1428 H1418 0.930 . S
C1428 C1427 1.400 . S
C1428 C1431 1.386 . S
H1429 C1445 0.930 . S
H1430 C1446 0.931 . S
C1431 H1419 0.929 . S
C1431 C1425 1.390 . S
C1431 C1428 1.386 . S
C1432 C1427 1.490 . S
C1432 C1434 1.395 . S
C1432 C1435 1.403 . S
H1433 C1439 0.930 . S
C1434 H1420 0.930 . S
C1434 C1432 1.395 . S
C1434 C1437 1.403 . S
C1435 C1432 1.403 . S
C1435 C1436 1.524 . S
C1435 C1439 1.400 . S
C1436 H1421 0.960 . S
C1436 H1422 0.960 . S
C1436 H1423 0.960 . S
C1436 C1435 1.524 . S
C1437 C1434 1.403 . S
C1437 C1438 1.392 . S
C1437 C1441 1.495 . S
C1438 C1437 1.392 . S
C1438 C1439 1.385 . S
C1438 C1440 1.478 . S
C1439 H1433 0.930 . S
C1439 C1435 1.400 . S
C1439 C1438 1.385 . S
C1440 C1438 1.478 . S
C1440 C1442 1.381 . S
C1440 C1446 1.383 . S
C1441 C1437 1.495 . S
C1441 H1447 0.959 . S
C1441 H1448 0.961 . S
C1441 H1449 0.960 . S
C1442 C1440 1.381 . S
C1442 C1443 1.394 . S
C1442 H1450 0.930 . S
C1443 C1442 1.394 . S
C1443 C1444 1.383 . S
C1443 H1451 0.929 . S
C1444 C1443 1.383 . S
C1444 C1445 1.377 . S
C1445 H1429 0.930 . S
C1445 C1444 1.377 . S
C1445 C1446 1.379 . S
C1446 H1430 0.931 . S
C1446 C1440 1.383 . S
C1446 C1445 1.379 . S
H1447 C1441 0.959 . S
H1448 C1441 0.961 . S
H1449 C1441 0.960 . S
H1450 C1442 0.930 . S
H1451 C1443 0.929 . S
H1452 C1460 0.929 . S
H1453 C1462 0.930 . S
H1454 C1464 0.930 . S
H1455 C1467 0.929 . S
H1456 C1470 0.930 . S
H1457 C1472 0.960 . S
H1458 C1472 0.960 . S
H1459 C1472 0.960 . S
C1460 H1452 0.929 . S
C1460 C1461 1.377 . S
C1460 C1462 1.384 . S
C1461 C1460 1.377 . S
C1461 C1467 1.390 . S
C1462 H1453 0.930 . S
C1462 C1460 1.384 . S
C1462 C1463 1.372 . S
C1463 C1462 1.372 . S
C1463 C1464 1.400 . S
C1463 C1468 1.490 . S
C1464 H1454 0.930 . S
C1464 C1463 1.400 . S
C1464 C1467 1.386 . S
H1465 C1481 0.930 . S
H1466 C1482 0.931 . S
C1467 H1455 0.929 . S
C1467 C1461 1.390 . S
C1467 C1464 1.386 . S
C1468 C1463 1.490 . S
C1468 C1470 1.395 . S
C1468 C1471 1.403 . S
H1469 C1475 0.930 . S
C1470 H1456 0.930 . S
C1470 C1468 1.395 . S
C1470 C1473 1.403 . S
C1471 C1468 1.403 . S
C1471 C1472 1.524 . S
C1471 C1475 1.400 . S
C1472 H1457 0.960 . S
C1472 H1458 0.960 . S
C1472 H1459 0.960 . S
C1472 C1471 1.524 . S
C1473 C1470 1.403 . S
C1473 C1474 1.392 . S
C1473 C1477 1.495 . S
C1474 C1473 1.392 . S
C1474 C1475 1.385 . S
C1474 C1476 1.478 . S
C1475 H1469 0.930 . S
C1475 C1471 1.400 . S
C1475 C1474 1.385 . S
C1476 C1474 1.478 . S
C1476 C1478 1.381 . S
C1476 C1482 1.383 . S
C1477 C1473 1.495 . S
C1477 H1483 0.959 . S
C1477 H1484 0.961 . S
C1477 H1485 0.960 . S
C1478 C1476 1.381 . S
C1478 C1479 1.394 . S
C1478 H1486 0.930 . S
C1479 C1478 1.394 . S
C1479 C1480 1.383 . S
C1479 H1487 0.929 . S
C1480 C1479 1.383 . S
C1480 C1481 1.377 . S
C1481 H1465 0.930 . S
C1481 C1480 1.377 . S
C1481 C1482 1.379 . S
C1482 H1466 0.931 . S
C1482 C1476 1.383 . S
C1482 C1481 1.379 . S
H1483 C1477 0.959 . S
H1484 C1477 0.961 . S
H1485 C1477 0.960 . S
H1486 C1478 0.930 . S
H1487 C1479 0.929 . S
H1488 C1496 0.929 . S
H1489 C1498 0.930 . S
H1490 C1500 0.930 . S
H1491 C1503 0.929 . S
H1492 C1506 0.930 . S
H1493 C1508 0.960 . S
H1494 C1508 0.960 . S
H1495 C1508 0.960 . S
C1496 H1488 0.929 . S
C1496 C1497 1.377 . S
C1496 C1498 1.384 . S
C1497 C1496 1.377 . S
C1497 C1503 1.390 . S
C1498 H1489 0.930 . S
C1498 C1496 1.384 . S
C1498 C1499 1.372 . S
C1499 C1498 1.372 . S
C1499 C1500 1.400 . S
C1499 C1504 1.490 . S
C1500 H1490 0.930 . S
C1500 C1499 1.400 . S
C1500 C1503 1.386 . S
H1501 C1517 0.930 . S
H1502 C1518 0.931 . S
C1503 H1491 0.929 . S
C1503 C1497 1.390 . S
C1503 C1500 1.386 . S
C1504 C1499 1.490 . S
C1504 C1506 1.395 . S
C1504 C1507 1.403 . S
H1505 C1511 0.930 . S
C1506 H1492 0.930 . S
C1506 C1504 1.395 . S
C1506 C1509 1.403 . S
C1507 C1504 1.403 . S
C1507 C1508 1.524 . S
C1507 C1511 1.400 . S
C1508 H1493 0.960 . S
C1508 H1494 0.960 . S
C1508 H1495 0.960 . S
C1508 C1507 1.524 . S
C1509 C1506 1.403 . S
C1509 C1510 1.392 . S
C1509 C1513 1.495 . S
C1510 C1509 1.392 . S
C1510 C1511 1.385 . S
C1510 C1512 1.478 . S
C1511 H1505 0.930 . S
C1511 C1507 1.400 . S
C1511 C1510 1.385 . S
C1512 C1510 1.478 . S
C1512 C1514 1.381 . S
C1512 C1518 1.383 . S
C1513 C1509 1.495 . S
C1513 H1519 0.959 . S
C1513 H1520 0.961 . S
C1513 H1521 0.960 . S
C1514 C1512 1.381 . S
C1514 C1515 1.394 . S
C1514 H1522 0.930 . S
C1515 C1514 1.394 . S
C1515 C1516 1.383 . S
C1515 H1523 0.929 . S
C1516 C1515 1.383 . S
C1516 C1517 1.377 . S
C1517 H1501 0.930 . S
C1517 C1516 1.377 . S
C1517 C1518 1.379 . S
C1518 H1502 0.931 . S
C1518 C1512 1.383 . S
C1518 C1517 1.379 . S
H1519 C1513 0.959 . S
H1520 C1513 0.961 . S
H1521 C1513 0.960 . S
H1522 C1514 0.930 . S
H1523 C1515 0.929 . S
H1524 C1532 0.929 . S
H1525 C1534 0.930 . S
H1526 C1536 0.930 . S
H1527 C1539 0.929 . S
H1528 C1542 0.930 . S
H1529 C1544 0.960 . S
H1530 C1544 0.960 . S
H1531 C1544 0.960 . S
C1532 H1524 0.929 . S
C1532 C1533 1.377 . S
C1532 C1534 1.384 . S
C1533 C1532 1.377 . S
C1533 C1539 1.390 . S
C1534 H1525 0.930 . S
C1534 C1532 1.384 . S
C1534 C1535 1.372 . S
C1535 C1534 1.372 . S
C1535 C1536 1.400 . S
C1535 C1540 1.490 . S
C1536 H1526 0.930 . S
C1536 C1535 1.400 . S
C1536 C1539 1.386 . S
H1537 C1553 0.930 . S
H1538 C1554 0.931 . S
C1539 H1527 0.929 . S
C1539 C1533 1.390 . S
C1539 C1536 1.386 . S
C1540 C1535 1.490 . S
C1540 C1542 1.395 . S
C1540 C1543 1.403 . S
H1541 C1547 0.930 . S
C1542 H1528 0.930 . S
C1542 C1540 1.395 . S
C1542 C1545 1.403 . S
C1543 C1540 1.403 . S
C1543 C1544 1.524 . S
C1543 C1547 1.400 . S
C1544 H1529 0.960 . S
C1544 H1530 0.960 . S
C1544 H1531 0.960 . S
C1544 C1543 1.524 . S
C1545 C1542 1.403 . S
C1545 C1546 1.392 . S
C1545 C1549 1.495 . S
C1546 C1545 1.392 . S
C1546 C1547 1.385 . S
C1546 C1548 1.478 . S
C1547 H1541 0.930 . S
C1547 C1543 1.400 . S
C1547 C1546 1.385 . S
C1548 C1546 1.478 . S
C1548 C1550 1.381 . S
C1548 C1554 1.383 . S
C1549 C1545 1.495 . S
C1549 H1555 0.959 . S
C1549 H1556 0.961 . S
C1549 H1557 0.960 . S
C1550 C1548 1.381 . S
C1550 C1551 1.394 . S
C1550 H1558 0.930 . S
C1551 C1550 1.394 . S
C1551 C1552 1.383 . S
C1551 H1559 0.929 . S
C1552 C1551 1.383 . S
C1552 C1553 1.377 . S
C1553 H1537 0.930 . S
C1553 C1552 1.377 . S
C1553 C1554 1.379 . S
C1554 H1538 0.931 . S
C1554 C1548 1.383 . S
C1554 C1553 1.379 . S
H1555 C1549 0.959 . S
H1556 C1549 0.961 . S
H1557 C1549 0.960 . S
H1558 C1550 0.930 . S
H1559 C1551 0.929 . S
H1560 C1568 0.929 . S
H1561 C1570 0.930 . S
H1562 C1572 0.930 . S
H1563 C1575 0.929 . S
H1564 C1578 0.930 . S
H1565 C1580 0.960 . S
H1566 C1580 0.960 . S
H1567 C1580 0.960 . S
C1568 H1560 0.929 . S
C1568 C1569 1.377 . S
C1568 C1570 1.384 . S
C1569 C1568 1.377 . S
C1569 C1575 1.390 . S
C1570 H1561 0.930 . S
C1570 C1568 1.384 . S
C1570 C1571 1.372 . S
C1571 C1570 1.372 . S
C1571 C1572 1.400 . S
C1571 C1576 1.490 . S
C1572 H1562 0.930 . S
C1572 C1571 1.400 . S
C1572 C1575 1.386 . S
H1573 C1589 0.930 . S
H1574 C1590 0.931 . S
C1575 H1563 0.929 . S
C1575 C1569 1.390 . S
C1575 C1572 1.386 . S
C1576 C1571 1.490 . S
C1576 C1578 1.395 . S
C1576 C1579 1.403 . S
H1577 C1583 0.930 . S
C1578 H1564 0.930 . S
C1578 C1576 1.395 . S
C1578 C1581 1.403 . S
C1579 C1576 1.403 . S
C1579 C1580 1.524 . S
C1579 C1583 1.400 . S
C1580 H1565 0.960 . S
C1580 H1566 0.960 . S
C1580 H1567 0.960 . S
C1580 C1579 1.524 . S
C1581 C1578 1.403 . S
C1581 C1582 1.392 . S
C1581 C1585 1.495 . S
C1582 C1581 1.392 . S
C1582 C1583 1.385 . S
C1582 C1584 1.478 . S
C1583 H1577 0.930 . S
C1583 C1579 1.400 . S
C1583 C1582 1.385 . S
C1584 C1582 1.478 . S
C1584 C1586 1.381 . S
C1584 C1590 1.383 . S
C1585 C1581 1.495 . S
C1585 H1591 0.959 . S
C1585 H1592 0.961 . S
C1585 H1593 0.960 . S
C1586 C1584 1.381 . S
C1586 C1587 1.394 . S
C1586 H1594 0.930 . S
C1587 C1586 1.394 . S
C1587 C1588 1.383 . S
C1587 H1595 0.929 . S
C1588 C1587 1.383 . S
C1588 C1589 1.377 . S
C1589 H1573 0.930 . S
C1589 C1588 1.377 . S
C1589 C1590 1.379 . S
C1590 H1574 0.931 . S
C1590 C1584 1.383 . S
C1590 C1589 1.379 . S
H1591 C1585 0.959 . S
H1592 C1585 0.961 . S
H1593 C1585 0.960 . S
H1594 C1586 0.930 . S
H1595 C1587 0.929 . S
H1596 C1604 0.929 . S
H1597 C1606 0.930 . S
H1598 C1608 0.930 . S
H1599 C1611 0.929 . S
H1600 C1614 0.930 . S
H1601 C1616 0.960 . S
H1602 C1616 0.960 . S
H1603 C1616 0.960 . S
C1604 H1596 0.929 . S
C1604 C1605 1.377 . S
C1604 C1606 1.384 . S
C1605 C1604 1.377 . S
C1605 C1611 1.390 . S
C1606 H1597 0.930 . S
C1606 C1604 1.384 . S
C1606 C1607 1.372 . S
C1607 C1606 1.372 . S
C1607 C1608 1.400 . S
C1607 C1612 1.490 . S
C1608 H1598 0.930 . S
C1608 C1607 1.400 . S
C1608 C1611 1.386 . S
H1609 C1625 0.930 . S
H1610 C1626 0.931 . S
C1611 H1599 0.929 . S
C1611 C1605 1.390 . S
C1611 C1608 1.386 . S
C1612 C1607 1.490 . S
C1612 C1614 1.395 . S
C1612 C1615 1.403 . S
H1613 C1619 0.930 . S
C1614 H1600 0.930 . S
C1614 C1612 1.395 . S
C1614 C1617 1.403 . S
C1615 C1612 1.403 . S
C1615 C1616 1.524 . S
C1615 C1619 1.400 . S
C1616 H1601 0.960 . S
C1616 H1602 0.960 . S
C1616 H1603 0.960 . S
C1616 C1615 1.524 . S
C1617 C1614 1.403 . S
C1617 C1618 1.392 . S
C1617 C1621 1.495 . S
C1618 C1617 1.392 . S
C1618 C1619 1.385 . S
C1618 C1620 1.478 . S
C1619 H1613 0.930 . S
C1619 C1615 1.400 . S
C1619 C1618 1.385 . S
C1620 C1618 1.478 . S
C1620 C1622 1.381 . S
C1620 C1626 1.383 . S
C1621 C1617 1.495 . S
C1621 H1627 0.959 . S
C1621 H1628 0.961 . S
C1621 H1629 0.960 . S
C1622 C1620 1.381 . S
C1622 C1623 1.394 . S
C1622 H1630 0.930 . S
C1623 C1622 1.394 . S
C1623 C1624 1.383 . S
C1623 H1631 0.929 . S
C1624 C1623 1.383 . S
C1624 C1625 1.377 . S
C1625 H1609 0.930 . S
C1625 C1624 1.377 . S
C1625 C1626 1.379 . S
C1626 H1610 0.931 . S
C1626 C1620 1.383 . S
C1626 C1625 1.379 . S
H1627 C1621 0.959 . S
H1628 C1621 0.961 . S
H1629 C1621 0.960 . S
H1630 C1622 0.930 . S
H1631 C1623 0.929 . S
H1632 C1640 0.929 . S
H1633 C1642 0.930 . S
H1634 C1644 0.930 . S
H1635 C1647 0.929 . S
H1636 C1650 0.930 . S
H1637 C1652 0.960 . S
H1638 C1652 0.960 . S
H1639 C1652 0.960 . S
C1640 H1632 0.929 . S
C1640 C1641 1.377 . S
C1640 C1642 1.384 . S
C1641 C1640 1.377 . S
C1641 C1647 1.390 . S
C1642 H1633 0.930 . S
C1642 C1640 1.384 . S
C1642 C1643 1.372 . S
C1643 C1642 1.372 . S
C1643 C1644 1.400 . S
C1643 C1648 1.490 . S
C1644 H1634 0.930 . S
C1644 C1643 1.400 . S
C1644 C1647 1.386 . S
H1645 C1661 0.930 . S
H1646 C1662 0.931 . S
C1647 H1635 0.929 . S
C1647 C1641 1.390 . S
C1647 C1644 1.386 . S
C1648 C1643 1.490 . S
C1648 C1650 1.395 . S
C1648 C1651 1.403 . S
H1649 C1655 0.930 . S
C1650 H1636 0.930 . S
C1650 C1648 1.395 . S
C1650 C1653 1.403 . S
C1651 C1648 1.403 . S
C1651 C1652 1.524 . S
C1651 C1655 1.400 . S
C1652 H1637 0.960 . S
C1652 H1638 0.960 . S
C1652 H1639 0.960 . S
C1652 C1651 1.524 . S
C1653 C1650 1.403 . S
C1653 C1654 1.392 . S
C1653 C1657 1.495 . S
C1654 C1653 1.392 . S
C1654 C1655 1.385 . S
C1654 C1656 1.478 . S
C1655 H1649 0.930 . S
C1655 C1651 1.400 . S
C1655 C1654 1.385 . S
C1656 C1654 1.478 . S
C1656 C1658 1.381 . S
C1656 C1662 1.383 . S
C1657 C1653 1.495 . S
C1657 H1663 0.959 . S
C1657 H1664 0.961 . S
C1657 H1665 0.960 . S
C1658 C1656 1.381 . S
C1658 C1659 1.394 . S
C1658 H1666 0.930 . S
C1659 C1658 1.394 . S
C1659 C1660 1.383 . S
C1659 H1667 0.929 . S
C1660 C1659 1.383 . S
C1660 C1661 1.377 . S
C1661 H1645 0.930 . S
C1661 C1660 1.377 . S
C1661 C1662 1.379 . S
C1662 H1646 0.931 . S
C1662 C1656 1.383 . S
C1662 C1661 1.379 . S
H1663 C1657 0.959 . S
H1664 C1657 0.961 . S
H1665 C1657 0.960 . S
H1666 C1658 0.930 . S
H1667 C1659 0.929 . S
H1668 C1676 0.929 . S
H1669 C1678 0.930 . S
H1670 C1680 0.930 . S
H1671 C1683 0.929 . S
H1672 C1686 0.930 1_455 S
H1673 C1688 0.960 . S
H1674 C1688 0.960 . S
H1675 C1688 0.960 . S
C1676 H1668 0.929 . S
C1676 C1677 1.377 . S
C1676 C1678 1.384 . S
C1677 C1676 1.377 . S
C1677 C1683 1.390 . S
C1678 H1669 0.930 . S
C1678 C1676 1.384 . S
C1678 C1679 1.372 . S
C1679 C1678 1.372 . S
C1679 C1680 1.400 . S
C1679 C1684 1.490 . S
C1680 H1670 0.930 . S
C1680 C1679 1.400 . S
C1680 C1683 1.386 . S
H1681 C1697 0.930 . S
H1682 C1698 0.931 . S
C1683 H1671 0.929 . S
C1683 C1677 1.390 . S
C1683 C1680 1.386 . S
C1684 C1679 1.490 . S
C1684 C1686 1.395 . S
C1684 C1687 1.403 . S
H1685 C1691 0.930 . S
C1686 H1672 0.930 1_655 S
C1686 C1684 1.395 . S
C1686 C1689 1.403 1_655 S
C1687 C1684 1.403 . S
C1687 C1688 1.524 . S
C1687 C1691 1.400 . S
C1688 H1673 0.960 . S
C1688 H1674 0.960 . S
C1688 H1675 0.960 . S
C1688 C1687 1.524 . S
C1689 C1686 1.403 1_455 S
C1689 C1690 1.392 1_455 S
C1689 C1693 1.495 . S
C1690 C1689 1.392 1_655 S
C1690 C1691 1.385 . S
C1690 C1692 1.478 . S
C1691 H1685 0.930 . S
C1691 C1687 1.400 . S
C1691 C1690 1.385 . S
C1692 C1690 1.478 . S
C1692 C1694 1.386 . S
C1692 C1698 1.383 . S
C1693 C1689 1.495 . S
C1693 H1699 0.959 . S
C1693 H1700 0.961 . S
C1693 H1701 0.960 . S
C1694 C1692 1.386 . S
C1694 C1695 1.393 1_655 S
C1694 H1702 0.926 1_655 S
C1695 C1694 1.393 1_455 S
C1695 C1696 1.383 1_455 S
C1695 H1703 0.929 . S
C1696 C1695 1.383 1_655 S
C1696 C1697 1.377 . S
C1697 H1681 0.930 . S
C1697 C1696 1.377 . S
C1697 C1698 1.379 . S
C1698 H1682 0.931 . S
C1698 C1692 1.383 . S
C1698 C1697 1.379 . S
H1699 C1693 0.959 . S
H1700 C1693 0.961 . S
H1701 C1693 0.960 . S
H1702 C1694 0.926 1_455 S
H1703 C1695 0.929 . S
H1704 C1712 0.929 . S
H1705 C1714 0.930 . S
H1706 C1716 0.930 . S
H1707 C1719 0.929 . S
H1708 C1722 0.930 . S
H1709 C1724 0.960 . S
H1710 C1724 0.960 . S
H1711 C1724 0.960 . S
C1712 H1704 0.929 . S
C1712 C1713 1.377 . S
C1712 C1714 1.384 . S
C1713 C1712 1.377 . S
C1713 C1719 1.390 . S
C1714 H1705 0.930 . S
C1714 C1712 1.384 . S
C1714 C1715 1.372 . S
C1715 C1714 1.372 . S
C1715 C1716 1.400 . S
C1715 C1720 1.490 . S
C1716 H1706 0.930 . S
C1716 C1715 1.400 . S
C1716 C1719 1.386 . S
H1717 C1733 0.930 . S
H1718 C1734 0.931 . S
C1719 H1707 0.929 . S
C1719 C1713 1.390 . S
C1719 C1716 1.386 . S
C1720 C1715 1.490 . S
C1720 C1722 1.395 . S
C1720 C1723 1.403 . S
H1721 C1727 0.930 . S
C1722 H1708 0.930 . S
C1722 C1720 1.395 . S
C1722 C1725 1.403 . S
C1723 C1720 1.403 . S
C1723 C1724 1.524 . S
C1723 C1727 1.400 . S
C1724 H1709 0.960 . S
C1724 H1710 0.960 . S
C1724 H1711 0.960 . S
C1724 C1723 1.524 . S
C1725 C1722 1.403 . S
C1725 C1726 1.392 . S
C1725 C1729 1.495 . S
C1726 C1725 1.392 . S
C1726 C1727 1.385 . S
C1726 C1728 1.478 . S
C1727 H1721 0.930 . S
C1727 C1723 1.400 . S
C1727 C1726 1.385 . S
C1728 C1726 1.478 . S
C1728 C1730 1.381 . S
C1728 C1734 1.383 . S
C1729 C1725 1.495 . S
C1729 H1735 0.959 . S
C1729 H1736 0.961 . S
C1729 H1737 0.960 . S
C1730 C1728 1.381 . S
C1730 C1731 1.394 . S
C1730 H1738 0.930 . S
C1731 C1730 1.394 . S
C1731 C1732 1.383 . S
C1731 H1739 0.929 . S
C1732 C1731 1.383 . S
C1732 C1733 1.377 . S
C1733 H1717 0.930 . S
C1733 C1732 1.377 . S
C1733 C1734 1.379 . S
C1734 H1718 0.931 . S
C1734 C1728 1.383 . S
C1734 C1733 1.379 . S
H1735 C1729 0.959 . S
H1736 C1729 0.961 . S
H1737 C1729 0.960 . S
H1738 C1730 0.930 . S
H1739 C1731 0.929 . S
H1740 C1748 0.929 . S
H1741 C1750 0.930 . S
H1742 C1752 0.930 . S
H1743 C1755 0.929 . S
H1744 C1758 0.930 . S
H1745 C1760 0.960 . S
H1746 C1760 0.960 . S
H1747 C1760 0.960 . S
C1748 H1740 0.929 . S
C1748 C1749 1.377 . S
C1748 C1750 1.384 . S
C1749 C1748 1.377 . S
C1749 C1755 1.390 . S
C1750 H1741 0.930 . S
C1750 C1748 1.384 . S
C1750 C1751 1.372 . S
C1751 C1750 1.372 . S
C1751 C1752 1.400 . S
C1751 C1756 1.490 . S
C1752 H1742 0.930 . S
C1752 C1751 1.400 . S
C1752 C1755 1.386 . S
H1753 C1769 0.930 . S
H1754 C1770 0.931 . S
C1755 H1743 0.929 . S
C1755 C1749 1.390 . S
C1755 C1752 1.386 . S
C1756 C1751 1.490 . S
C1756 C1758 1.395 . S
C1756 C1759 1.403 . S
H1757 C1763 0.930 . S
C1758 H1744 0.930 . S
C1758 C1756 1.395 . S
C1758 C1761 1.403 . S
C1759 C1756 1.403 . S
C1759 C1760 1.524 . S
C1759 C1763 1.400 . S
C1760 H1745 0.960 . S
C1760 H1746 0.960 . S
C1760 H1747 0.960 . S
C1760 C1759 1.524 . S
C1761 C1758 1.403 . S
C1761 C1762 1.392 . S
C1761 C1765 1.495 . S
C1762 C1761 1.392 . S
C1762 C1763 1.385 . S
C1762 C1764 1.478 . S
C1763 H1757 0.930 . S
C1763 C1759 1.400 . S
C1763 C1762 1.385 . S
C1764 C1762 1.478 . S
C1764 C1766 1.381 . S
C1764 C1770 1.383 . S
C1765 C1761 1.495 . S
C1765 H1771 0.959 . S
C1765 H1772 0.961 . S
C1765 H1773 0.960 . S
C1766 C1764 1.381 . S
C1766 C1767 1.394 . S
C1766 H1774 0.930 . S
C1767 C1766 1.394 . S
C1767 C1768 1.383 . S
C1767 H1775 0.929 . S
C1768 C1767 1.383 . S
C1768 C1769 1.377 . S
C1769 H1753 0.930 . S
C1769 C1768 1.377 . S
C1769 C1770 1.379 . S
C1770 H1754 0.931 . S
C1770 C1764 1.383 . S
C1770 C1769 1.379 . S
H1771 C1765 0.959 . S
H1772 C1765 0.961 . S
H1773 C1765 0.960 . S
H1774 C1766 0.930 . S
H1775 C1767 0.929 . S
H1776 C1784 0.929 . S
H1777 C1786 0.930 . S
H1778 C1788 0.930 . S
H1779 C1791 0.930 . S
H1780 C1794 0.930 . S
H1781 C1796 0.960 . S
H1782 C1796 0.960 . S
H1783 C1796 0.960 . S
C1784 H1776 0.929 . S
C1784 C1785 1.338 1_565 S
C1784 C1786 1.384 . S
C1785 C1784 1.338 1_545 S
C1785 C1791 1.390 . S
C1786 H1777 0.930 . S
C1786 C1784 1.384 . S
C1786 C1787 1.372 . S
C1787 C1786 1.372 . S
C1787 C1788 1.400 . S
C1787 C1792 1.490 . S
C1788 H1778 0.930 . S
C1788 C1787 1.400 . S
C1788 C1791 1.385 1_565 S
H1789 C1805 0.930 . S
H1790 C1806 0.931 . S
C1791 H1779 0.930 . S
C1791 C1785 1.390 . S
C1791 C1788 1.385 1_545 S
C1792 C1787 1.490 . S
C1792 C1794 1.395 . S
C1792 C1795 1.403 . S
H1793 C1799 0.930 . S
C1794 H1780 0.930 . S
C1794 C1792 1.395 . S
C1794 C1797 1.403 . S
C1795 C1792 1.403 . S
C1795 C1796 1.524 . S
C1795 C1799 1.400 . S
C1796 H1781 0.960 . S
C1796 H1782 0.960 . S
C1796 H1783 0.960 . S
C1796 C1795 1.524 . S
C1797 C1794 1.403 . S
C1797 C1798 1.392 . S
C1797 C1801 1.495 1_556 S
C1798 C1797 1.392 . S
C1798 C1799 1.385 . S
C1798 C1800 1.478 . S
C1799 H1793 0.930 . S
C1799 C1795 1.400 . S
C1799 C1798 1.385 . S
C1800 C1798 1.478 . S
C1800 C1802 1.381 . S
C1800 C1806 1.383 . S
C1801 C1797 1.495 1_554 S
C1801 H1807 0.959 . S
C1801 H1808 0.961 . S
C1801 H1809 0.960 . S
C1802 C1800 1.381 . S
C1802 C1803 1.394 1_556 S
C1802 H1810 0.930 1_556 S
C1803 C1802 1.394 1_554 S
C1803 C1804 1.383 1_554 S
C1803 H1811 0.929 . S
C1804 C1803 1.383 1_556 S
C1804 C1805 1.377 . S
C1805 H1789 0.930 . S
C1805 C1804 1.377 . S
C1805 C1806 1.379 . S
C1806 H1790 0.931 . S
C1806 C1800 1.383 . S
C1806 C1805 1.379 . S
H1807 C1801 0.959 . S
H1808 C1801 0.961 . S
H1809 C1801 0.960 . S
H1810 C1802 0.930 1_554 S
H1811 C1803 0.929 . S
H1812 C1820 0.929 . S
H1813 C1822 0.930 . S
H1814 C1824 0.930 . S
H1815 C1827 0.929 . S
H1816 C1830 0.930 . S
H1817 C1832 0.960 . S
H1818 C1832 0.960 . S
H1819 C1832 0.960 . S
C1820 H1812 0.929 . S
C1820 C1821 1.377 . S
C1820 C1822 1.384 . S
C1821 C1820 1.377 . S
C1821 C1827 1.390 . S
C1822 H1813 0.930 . S
C1822 C1820 1.384 . S
C1822 C1823 1.372 . S
C1823 C1822 1.372 . S
C1823 C1824 1.400 . S
C1823 C1828 1.490 . S
C1824 H1814 0.930 . S
C1824 C1823 1.400 . S
C1824 C1827 1.386 . S
H1825 C1841 0.930 . S
H1826 C1842 0.931 . S
C1827 H1815 0.929 . S
C1827 C1821 1.390 . S
C1827 C1824 1.386 . S
C1828 C1823 1.490 . S
C1828 C1830 1.395 . S
C1828 C1831 1.403 . S
H1829 C1835 0.930 . S
C1830 H1816 0.930 . S
C1830 C1828 1.395 . S
C1830 C1833 1.403 . S
C1831 C1828 1.403 . S
C1831 C1832 1.524 . S
C1831 C1835 1.400 . S
C1832 H1817 0.960 . S
C1832 H1818 0.960 . S
C1832 H1819 0.960 . S
C1832 C1831 1.524 . S
C1833 C1830 1.403 . S
C1833 C1834 1.392 . S
C1833 C1837 1.495 . S
C1834 C1833 1.392 . S
C1834 C1835 1.385 . S
C1834 C1836 1.478 . S
C1835 H1829 0.930 . S
C1835 C1831 1.400 . S
C1835 C1834 1.385 . S
C1836 C1834 1.478 . S
C1836 C1838 1.381 . S
C1836 C1842 1.383 . S
C1837 C1833 1.495 . S
C1837 H1843 0.959 . S
C1837 H1844 0.961 . S
C1837 H1845 0.960 . S
C1838 C1836 1.381 . S
C1838 C1839 1.394 . S
C1838 H1846 0.930 . S
C1839 C1838 1.394 . S
C1839 C1840 1.383 . S
C1839 H1847 0.929 . S
C1840 C1839 1.383 . S
C1840 C1841 1.377 . S
C1841 H1825 0.930 . S
C1841 C1840 1.377 . S
C1841 C1842 1.379 . S
C1842 H1826 0.931 . S
C1842 C1836 1.383 . S
C1842 C1841 1.379 . S
H1843 C1837 0.959 . S
H1844 C1837 0.961 . S
H1845 C1837 0.960 . S
H1846 C1838 0.930 . S
H1847 C1839 0.929 . S
H1848 C1856 0.929 . S
H1849 C1858 0.930 . S
H1850 C1860 0.930 . S
H1851 C1863 0.916 1_565 S
H1852 C1866 0.930 . S
H1853 C1868 0.960 . S
H1854 C1868 0.960 . S
H1855 C1868 0.960 . S
C1856 H1848 0.929 . S
C1856 C1857 1.377 . S
C1856 C1858 1.384 . S
C1857 C1856 1.377 . S
C1857 C1863 1.393 . S
C1858 H1849 0.930 . S
C1858 C1856 1.384 . S
C1858 C1859 1.372 . S
C1859 C1858 1.372 . S
C1859 C1860 1.400 . S
C1859 C1864 1.490 . S
C1860 H1850 0.930 . S
C1860 C1859 1.400 . S
C1860 C1863 1.396 . S
H1861 C1877 0.930 . S
H1862 C1878 0.931 . S
C1863 H1851 0.916 1_545 S
C1863 C1857 1.393 . S
C1863 C1860 1.396 . S
C1864 C1859 1.490 . S
C1864 C1866 1.395 . S
C1864 C1867 1.403 . S
H1865 C1871 0.930 . S
C1866 H1852 0.930 . S
C1866 C1864 1.395 . S
C1866 C1869 1.403 . S
C1867 C1864 1.403 . S
C1867 C1868 1.524 . S
C1867 C1871 1.400 . S
C1868 H1853 0.960 . S
C1868 H1854 0.960 . S
C1868 H1855 0.960 . S
C1868 C1867 1.524 . S
C1869 C1866 1.403 . S
C1869 C1870 1.392 . S
C1869 C1873 1.495 . S
C1870 C1869 1.392 . S
C1870 C1871 1.385 . S
C1870 C1872 1.478 . S
C1871 H1865 0.930 . S
C1871 C1867 1.400 . S
C1871 C1870 1.385 . S
C1872 C1870 1.478 . S
C1872 C1874 1.381 . S
C1872 C1878 1.383 . S
C1873 C1869 1.495 . S
C1873 H1879 0.959 . S
C1873 H1880 0.961 . S
C1873 H1881 0.960 . S
C1874 C1872 1.381 . S
C1874 C1875 1.394 . S
C1874 H1882 0.930 . S
C1875 C1874 1.394 . S
C1875 C1876 1.383 . S
C1875 H1883 0.929 . S
C1876 C1875 1.383 . S
C1876 C1877 1.377 . S
C1877 H1861 0.930 . S
C1877 C1876 1.377 . S
C1877 C1878 1.379 . S
C1878 H1862 0.931 . S
C1878 C1872 1.383 . S
C1878 C1877 1.379 . S
H1879 C1873 0.959 . S
H1880 C1873 0.961 . S
H1881 C1873 0.960 . S
H1882 C1874 0.930 . S
H1883 C1875 0.929 . S
H1884 C1892 0.929 . S
H1885 C1894 0.930 . S
H1886 C1896 0.930 . S
H1887 C1899 0.929 . S
H1888 C1902 0.930 . S
H1889 C1904 0.960 . S
H1890 C1904 0.960 . S
H1891 C1904 0.960 . S
C1892 H1884 0.929 . S
C1892 C1893 1.377 . S
C1892 C1894 1.384 . S
C1893 C1892 1.377 . S
C1893 C1899 1.390 . S
C1894 H1885 0.930 . S
C1894 C1892 1.384 . S
C1894 C1895 1.372 . S
C1895 C1894 1.372 . S
C1895 C1896 1.400 . S
C1895 C1900 1.490 . S
C1896 H1886 0.930 . S
C1896 C1895 1.400 . S
C1896 C1899 1.386 . S
H1897 C1913 0.930 . S
H1898 C1914 0.931 . S
C1899 H1887 0.929 . S
C1899 C1893 1.390 . S
C1899 C1896 1.386 . S
C1900 C1895 1.490 . S
C1900 C1902 1.395 . S
C1900 C1903 1.403 . S
H1901 C1907 0.930 . S
C1902 H1888 0.930 . S
C1902 C1900 1.395 . S
C1902 C1905 1.403 . S
C1903 C1900 1.403 . S
C1903 C1904 1.524 . S
C1903 C1907 1.400 . S
C1904 H1889 0.960 . S
C1904 H1890 0.960 . S
C1904 H1891 0.960 . S
C1904 C1903 1.524 . S
C1905 C1902 1.403 . S
C1905 C1906 1.392 . S
C1905 C1909 1.495 . S
C1906 C1905 1.392 . S
C1906 C1907 1.385 . S
C1906 C1908 1.478 . S
C1907 H1901 0.930 . S
C1907 C1903 1.400 . S
C1907 C1906 1.385 . S
C1908 C1906 1.478 . S
C1908 C1910 1.381 . S
C1908 C1914 1.383 . S
C1909 C1905 1.495 . S
C1909 H1915 0.959 . S
C1909 H1916 0.961 . S
C1909 H1917 0.960 . S
C1910 C1908 1.381 . S
C1910 C1911 1.394 . S
C1910 H1918 0.930 . S
C1911 C1910 1.394 . S
C1911 C1912 1.383 . S
C1911 H1919 0.929 . S
C1912 C1911 1.383 . S
C1912 C1913 1.377 . S
C1913 H1897 0.930 . S
C1913 C1912 1.377 . S
C1913 C1914 1.379 . S
C1914 H1898 0.931 . S
C1914 C1908 1.383 . S
C1914 C1913 1.379 . S
H1915 C1909 0.959 . S
H1916 C1909 0.961 . S
H1917 C1909 0.960 . S
H1918 C1910 0.930 . S
H1919 C1911 0.929 . S
H1920 C1928 0.929 . S
H1921 C1930 0.930 . S
H1922 C1932 0.930 . S
H1923 C1935 0.929 1_565 S
H1924 C1938 0.930 . S
H1925 C1940 0.960 . S
H1926 C1940 0.960 . S
H1927 C1940 0.960 . S
C1928 H1920 0.929 . S
C1928 C1929 1.377 . S
C1928 C1930 1.384 . S
C1929 C1928 1.377 . S
C1929 C1935 1.390 . S
C1930 H1921 0.930 . S
C1930 C1928 1.384 . S
C1930 C1931 1.372 . S
C1931 C1930 1.372 . S
C1931 C1932 1.400 . S
C1931 C1936 1.490 . S
C1932 H1922 0.930 . S
C1932 C1931 1.400 . S
C1932 C1935 1.386 . S
H1933 C1949 0.930 . S
H1934 C1950 0.931 . S
C1935 H1923 0.929 1_545 S
C1935 C1929 1.390 . S
C1935 C1932 1.386 . S
C1936 C1931 1.490 . S
C1936 C1938 1.395 . S
C1936 C1939 1.403 . S
H1937 C1943 0.930 . S
C1938 H1924 0.930 . S
C1938 C1936 1.395 . S
C1938 C1941 1.403 . S
C1939 C1936 1.403 . S
C1939 C1940 1.524 . S
C1939 C1943 1.400 . S
C1940 H1925 0.960 . S
C1940 H1926 0.960 . S
C1940 H1927 0.960 . S
C1940 C1939 1.524 . S
C1941 C1938 1.403 . S
C1941 C1942 1.392 . S
C1941 C1945 1.495 . S
C1942 C1941 1.392 . S
C1942 C1943 1.385 . S
C1942 C1944 1.478 . S
C1943 H1937 0.930 . S
C1943 C1939 1.400 . S
C1943 C1942 1.385 . S
C1944 C1942 1.478 . S
C1944 C1946 1.381 . S
C1944 C1950 1.383 . S
C1945 C1941 1.495 . S
C1945 H1951 0.959 . S
C1945 H1952 0.961 . S
C1945 H1953 0.960 . S
C1946 C1944 1.381 . S
C1946 C1947 1.394 . S
C1946 H1954 0.930 . S
C1947 C1946 1.394 . S
C1947 C1948 1.383 . S
C1947 H1955 0.929 . S
C1948 C1947 1.383 . S
C1948 C1949 1.377 . S
C1949 H1933 0.930 . S
C1949 C1948 1.377 . S
C1949 C1950 1.379 . S
C1950 H1934 0.931 . S
C1950 C1944 1.383 . S
C1950 C1949 1.379 . S
H1951 C1945 0.959 . S
H1952 C1945 0.961 . S
H1953 C1945 0.960 . S
H1954 C1946 0.930 . S
H1955 C1947 0.929 . S
H1956 C1964 0.929 . S
H1957 C1966 0.930 . S
H1958 C1968 0.930 . S
H1959 C1971 0.929 . S
H1960 C1974 0.930 . S
H1961 C1976 0.960 . S
H1962 C1976 0.960 . S
H1963 C1976 0.960 . S
C1964 H1956 0.929 . S
C1964 C1965 1.377 . S
C1964 C1966 1.384 . S
C1965 C1964 1.377 . S
C1965 C1971 1.390 . S
C1966 H1957 0.930 . S
C1966 C1964 1.384 . S
C1966 C1967 1.372 . S
C1967 C1966 1.372 . S
C1967 C1968 1.400 . S
C1967 C1972 1.490 . S
C1968 H1958 0.930 . S
C1968 C1967 1.400 . S
C1968 C1971 1.386 . S
H1969 C1985 0.930 . S
H1970 C1986 0.931 . S
C1971 H1959 0.929 . S
C1971 C1965 1.390 . S
C1971 C1968 1.386 . S
C1972 C1967 1.490 . S
C1972 C1974 1.395 . S
C1972 C1975 1.403 . S
H1973 C1979 0.930 . S
C1974 H1960 0.930 . S
C1974 C1972 1.395 . S
C1974 C1977 1.403 . S
C1975 C1972 1.403 . S
C1975 C1976 1.524 . S
C1975 C1979 1.400 . S
C1976 H1961 0.960 . S
C1976 H1962 0.960 . S
C1976 H1963 0.960 . S
C1976 C1975 1.524 . S
C1977 C1974 1.403 . S
C1977 C1978 1.392 . S
C1977 C1981 1.495 . S
C1978 C1977 1.392 . S
C1978 C1979 1.385 . S
C1978 C1980 1.478 . S
C1979 H1973 0.930 . S
C1979 C1975 1.400 . S
C1979 C1978 1.385 . S
C1980 C1978 1.478 . S
C1980 C1982 1.381 . S
C1980 C1986 1.383 . S
C1981 C1977 1.495 . S
C1981 H1987 0.959 . S
C1981 H1988 0.961 . S
C1981 H1989 0.960 . S
C1982 C1980 1.381 . S
C1982 C1983 1.394 . S
C1982 H1990 0.930 . S
C1983 C1982 1.394 . S
C1983 C1984 1.383 . S
C1983 H1991 0.929 . S
C1984 C1983 1.383 . S
C1984 C1985 1.377 . S
C1985 H1969 0.930 . S
C1985 C1984 1.377 . S
C1985 C1986 1.379 . S
C1986 H1970 0.931 . S
C1986 C1980 1.383 . S
C1986 C1985 1.379 . S
H1987 C1981 0.959 . S
H1988 C1981 0.961 . S
H1989 C1981 0.960 . S
H1990 C1982 0.930 . S
H1991 C1983 0.929 . S
H1992 C2000 0.929 . S
H1993 C2002 0.930 . S
H1994 C2004 0.930 . S
H1995 C2007 0.929 . S
H1996 C2010 0.930 . S
H1997 C2012 0.960 . S
H1998 C2012 0.960 . S
H1999 C2012 0.960 . S
C2000 H1992 0.929 . S
C2000 C2001 1.377 . S
C2000 C2002 1.384 . S
C2001 C2000 1.377 . S
C2001 C2007 1.390 . S
C2002 H1993 0.930 . S
C2002 C2000 1.384 . S
C2002 C2003 1.372 . S
C2003 C2002 1.372 . S
C2003 C2004 1.400 . S
C2003 C2008 1.490 . S
C2004 H1994 0.930 . S
C2004 C2003 1.400 . S
C2004 C2007 1.386 . S
H2005 C2021 0.930 . S
H2006 C2022 0.931 . S
C2007 H1995 0.929 . S
C2007 C2001 1.390 . S
C2007 C2004 1.386 . S
C2008 C2003 1.490 . S
C2008 C2010 1.395 . S
C2008 C2011 1.403 . S
H2009 C2015 0.930 . S
C2010 H1996 0.930 . S
C2010 C2008 1.395 . S
C2010 C2013 1.403 . S
C2011 C2008 1.403 . S
C2011 C2012 1.524 . S
C2011 C2015 1.400 . S
C2012 H1997 0.960 . S
C2012 H1998 0.960 . S
C2012 H1999 0.960 . S
C2012 C2011 1.524 . S
C2013 C2010 1.403 . S
C2013 C2014 1.392 . S
C2013 C2017 1.495 . S
C2014 C2013 1.392 . S
C2014 C2015 1.385 . S
C2014 C2016 1.478 . S
C2015 H2009 0.930 . S
C2015 C2011 1.400 . S
C2015 C2014 1.385 . S
C2016 C2014 1.478 . S
C2016 C2018 1.381 . S
C2016 C2022 1.383 . S
C2017 C2013 1.495 . S
C2017 H2023 0.959 . S
C2017 H2024 0.961 . S
C2017 H2025 0.960 . S
C2018 C2016 1.381 . S
C2018 C2019 1.394 . S
C2018 H2026 0.930 . S
C2019 C2018 1.394 . S
C2019 C2020 1.383 . S
C2019 H2027 0.929 . S
C2020 C2019 1.383 . S
C2020 C2021 1.377 . S
C2021 H2005 0.930 . S
C2021 C2020 1.377 . S
C2021 C2022 1.379 . S
C2022 H2006 0.931 . S
C2022 C2016 1.383 . S
C2022 C2021 1.379 . S
H2023 C2017 0.959 . S
H2024 C2017 0.961 . S
H2025 C2017 0.960 . S
H2026 C2018 0.930 . S
H2027 C2019 0.929 . S
H2028 C2036 0.929 . S
H2029 C2038 0.930 . S
H2030 C2040 0.930 . S
H2031 C2043 0.929 . S
H2032 C2046 0.930 . S
H2033 C2048 0.960 . S
H2034 C2048 0.960 . S
H2035 C2048 0.960 . S
C2036 H2028 0.929 . S
C2036 C2037 1.377 . S
C2036 C2038 1.384 . S
C2037 C2036 1.377 . S
C2037 C2043 1.390 . S
C2038 H2029 0.930 . S
C2038 C2036 1.384 . S
C2038 C2039 1.372 . S
C2039 C2038 1.372 . S
C2039 C2040 1.400 . S
C2039 C2044 1.490 . S
C2040 H2030 0.930 . S
C2040 C2039 1.400 . S
C2040 C2043 1.386 . S
H2041 C2057 0.930 1_565 S
H2042 C2058 0.931 1_565 S
C2043 H2031 0.929 . S
C2043 C2037 1.390 . S
C2043 C2040 1.386 . S
C2044 C2039 1.490 . S
C2044 C2046 1.395 . S
C2044 C2047 1.403 . S
H2045 C2051 0.930 . S
C2046 H2032 0.930 . S
C2046 C2044 1.395 . S
C2046 C2049 1.403 . S
C2047 C2044 1.403 . S
C2047 C2048 1.524 . S
C2047 C2051 1.400 . S
C2048 H2033 0.960 . S
C2048 H2034 0.960 . S
C2048 H2035 0.960 . S
C2048 C2047 1.524 . S
C2049 C2046 1.403 . S
C2049 C2050 1.392 . S
C2049 C2053 1.495 . S
C2050 C2049 1.392 . S
C2050 C2051 1.385 . S
C2050 C2052 1.478 . S
C2051 H2045 0.930 . S
C2051 C2047 1.400 . S
C2051 C2050 1.385 . S
C2052 C2050 1.478 . S
C2052 C2054 1.381 . S
C2052 C2058 1.383 . S
C2053 C2049 1.495 . S
C2053 H2059 0.959 . S
C2053 H2060 0.961 . S
C2053 H2061 0.960 . S
C2054 C2052 1.381 . S
C2054 C2055 1.394 . S
C2054 H2062 0.930 . S
C2055 C2054 1.394 . S
C2055 C2056 1.383 . S
C2055 H2063 0.929 . S
C2056 C2055 1.383 . S
C2056 C2057 1.377 . S
C2057 H2041 0.930 1_545 S
C2057 C2056 1.377 . S
C2057 C2058 1.379 . S
C2058 H2042 0.931 1_545 S
C2058 C2052 1.383 . S
C2058 C2057 1.379 . S
H2059 C2053 0.959 . S
H2060 C2053 0.961 . S
H2061 C2053 0.960 . S
H2062 C2054 0.930 . S
H2063 C2055 0.929 . S
H2064 C2072 0.929 . S
H2065 C2074 0.930 . S
H2066 C2076 0.930 . S
H2067 C2079 0.929 . S
H2068 C2082 0.930 . S
H2069 C2084 0.960 . S
H2070 C2084 0.960 . S
H2071 C2084 0.960 . S
C2072 H2064 0.929 . S
C2072 C2073 1.377 . S
C2072 C2074 1.384 . S
C2073 C2072 1.377 . S
C2073 C2079 1.390 . S
C2074 H2065 0.930 . S
C2074 C2072 1.384 . S
C2074 C2075 1.372 . S
C2075 C2074 1.372 . S
C2075 C2076 1.400 . S
C2075 C2080 1.490 . S
C2076 H2066 0.930 . S
C2076 C2075 1.400 . S
C2076 C2079 1.386 . S
H2077 C2093 0.930 . S
H2078 C2094 0.931 . S
C2079 H2067 0.929 . S
C2079 C2073 1.390 . S
C2079 C2076 1.386 . S
C2080 C2075 1.490 . S
C2080 C2082 1.395 . S
C2080 C2083 1.403 . S
H2081 C2087 0.930 . S
C2082 H2068 0.930 . S
C2082 C2080 1.395 . S
C2082 C2085 1.403 . S
C2083 C2080 1.403 . S
C2083 C2084 1.524 . S
C2083 C2087 1.400 . S
C2084 H2069 0.960 . S
C2084 H2070 0.960 . S
C2084 H2071 0.960 . S
C2084 C2083 1.524 . S
C2085 C2082 1.403 . S
C2085 C2086 1.392 . S
C2085 C2089 1.495 . S
C2086 C2085 1.392 . S
C2086 C2087 1.385 . S
C2086 C2088 1.478 . S
C2087 H2081 0.930 . S
C2087 C2083 1.400 . S
C2087 C2086 1.385 . S
C2088 C2086 1.478 . S
C2088 C2090 1.381 . S
C2088 C2094 1.383 . S
C2089 C2085 1.495 . S
C2089 H2095 0.959 . S
C2089 H2096 0.961 . S
C2089 H2097 0.960 . S
C2090 C2088 1.381 . S
C2090 C2091 1.394 . S
C2090 H2098 0.930 . S
C2091 C2090 1.394 . S
C2091 C2092 1.383 . S
C2091 H2099 0.929 . S
C2092 C2091 1.383 . S
C2092 C2093 1.377 . S
C2093 H2077 0.930 . S
C2093 C2092 1.377 . S
C2093 C2094 1.379 . S
C2094 H2078 0.931 . S
C2094 C2088 1.383 . S
C2094 C2093 1.379 . S
H2095 C2089 0.959 . S
H2096 C2089 0.961 . S
H2097 C2089 0.960 . S
H2098 C2090 0.930 . S
H2099 C2091 0.929 . S
H2100 C2108 0.929 . S
H2101 C2110 0.930 . S
H2102 C2112 0.930 . S
H2103 C2115 0.929 . S
H2104 C2118 0.930 . S
H2105 C2120 0.960 . S
H2106 C2120 0.960 . S
H2107 C2120 0.960 . S
C2108 H2100 0.929 . S
C2108 C2109 1.377 . S
C2108 C2110 1.384 . S
C2109 C2108 1.377 . S
C2109 C2115 1.390 . S
C2110 H2101 0.930 . S
C2110 C2108 1.384 . S
C2110 C2111 1.372 . S
C2111 C2110 1.372 . S
C2111 C2112 1.400 . S
C2111 C2116 1.490 . S
C2112 H2102 0.930 . S
C2112 C2111 1.400 . S
C2112 C2115 1.386 . S
H2113 C2129 0.930 . S
H2114 C2130 0.931 . S
C2115 H2103 0.929 . S
C2115 C2109 1.390 . S
C2115 C2112 1.386 . S
C2116 C2111 1.490 . S
C2116 C2118 1.395 . S
C2116 C2119 1.403 . S
H2117 C2123 0.930 . S
C2118 H2104 0.930 . S
C2118 C2116 1.395 . S
C2118 C2121 1.403 . S
C2119 C2116 1.403 . S
C2119 C2120 1.524 . S
C2119 C2123 1.400 . S
C2120 H2105 0.960 . S
C2120 H2106 0.960 . S
C2120 H2107 0.960 . S
C2120 C2119 1.524 . S
C2121 C2118 1.403 . S
C2121 C2122 1.392 . S
C2121 C2125 1.495 . S
C2122 C2121 1.392 . S
C2122 C2123 1.385 . S
C2122 C2124 1.478 . S
C2123 H2117 0.930 . S
C2123 C2119 1.400 . S
C2123 C2122 1.385 . S
C2124 C2122 1.478 . S
C2124 C2126 1.381 . S
C2124 C2130 1.383 . S
C2125 C2121 1.495 . S
C2125 H2131 0.959 . S
C2125 H2132 0.961 . S
C2125 H2133 0.960 . S
C2126 C2124 1.381 . S
C2126 C2127 1.394 . S
C2126 H2134 0.930 . S
C2127 C2126 1.394 . S
C2127 C2128 1.383 . S
C2127 H2135 0.929 . S
C2128 C2127 1.383 . S
C2128 C2129 1.377 . S
C2129 H2113 0.930 . S
C2129 C2128 1.377 . S
C2129 C2130 1.379 . S
C2130 H2114 0.931 . S
C2130 C2124 1.383 . S
C2130 C2129 1.379 . S
H2131 C2125 0.959 . S
H2132 C2125 0.961 . S
H2133 C2125 0.960 . S
H2134 C2126 0.930 . S
H2135 C2127 0.929 . S
H2136 C2144 0.929 . S
H2137 C2146 0.930 . S
H2138 C2148 0.930 . S
H2139 C2151 0.929 . S
H2140 C2154 0.930 . S
H2141 C2156 0.960 . S
H2142 C2156 0.960 . S
H2143 C2156 0.960 . S
C2144 H2136 0.929 . S
C2144 C2145 1.377 . S
C2144 C2146 1.384 . S
C2145 C2144 1.377 . S
C2145 C2151 1.390 . S
C2146 H2137 0.930 . S
C2146 C2144 1.384 . S
C2146 C2147 1.372 . S
C2147 C2146 1.372 . S
C2147 C2148 1.400 . S
C2147 C2152 1.490 . S
C2148 H2138 0.930 . S
C2148 C2147 1.400 . S
C2148 C2151 1.386 . S
H2149 C2165 0.930 . S
H2150 C2166 0.931 . S
C2151 H2139 0.929 . S
C2151 C2145 1.390 . S
C2151 C2148 1.386 . S
C2152 C2147 1.490 . S
C2152 C2154 1.395 . S
C2152 C2155 1.403 . S
H2153 C2159 0.930 . S
C2154 H2140 0.930 . S
C2154 C2152 1.395 . S
C2154 C2157 1.403 . S
C2155 C2152 1.403 . S
C2155 C2156 1.524 . S
C2155 C2159 1.400 . S
C2156 H2141 0.960 . S
C2156 H2142 0.960 . S
C2156 H2143 0.960 . S
C2156 C2155 1.524 . S
C2157 C2154 1.403 . S
C2157 C2158 1.392 . S
C2157 C2161 1.495 . S
C2158 C2157 1.392 . S
C2158 C2159 1.385 . S
C2158 C2160 1.478 . S
C2159 H2153 0.930 . S
C2159 C2155 1.400 . S
C2159 C2158 1.385 . S
C2160 C2158 1.478 . S
C2160 C2162 1.381 . S
C2160 C2166 1.383 . S
C2161 C2157 1.495 . S
C2161 H2167 0.959 . S
C2161 H2168 0.961 . S
C2161 H2169 0.960 . S
C2162 C2160 1.381 . S
C2162 C2163 1.394 . S
C2162 H2170 0.930 . S
C2163 C2162 1.394 . S
C2163 C2164 1.383 . S
C2163 H2171 0.929 . S
C2164 C2163 1.383 . S
C2164 C2165 1.377 . S
C2165 H2149 0.930 . S
C2165 C2164 1.377 . S
C2165 C2166 1.379 . S
C2166 H2150 0.931 . S
C2166 C2160 1.383 . S
C2166 C2165 1.379 . S
H2167 C2161 0.959 . S
H2168 C2161 0.961 . S
H2169 C2161 0.960 . S
H2170 C2162 0.930 . S
H2171 C2163 0.929 . S
H2172 C2180 0.929 . S
H2173 C2182 0.930 . S
H2174 C2184 0.930 . S
H2175 C2187 0.913 1_455 S
H2176 C2190 0.930 1_565 S
H2177 C2192 0.960 . S
H2178 C2192 0.960 . S
H2179 C2192 0.960 . S
C2180 H2172 0.929 . S
C2180 C2181 1.377 . S
C2180 C2182 1.384 . S
C2181 C2180 1.377 . S
C2181 C2187 1.390 . S
C2182 H2173 0.930 . S
C2182 C2180 1.384 . S
C2182 C2183 1.372 . S
C2183 C2182 1.372 . S
C2183 C2184 1.400 . S
C2183 C2188 1.490 . S
C2184 H2174 0.930 . S
C2184 C2183 1.400 . S
C2184 C2187 1.386 . S
H2185 C2201 0.930 . S
H2186 C2202 0.931 . S
C2187 H2175 0.913 1_655 S
C2187 C2181 1.390 . S
C2187 C2184 1.386 . S
C2188 C2183 1.490 . S
C2188 C2190 1.395 . S
C2188 C2191 1.403 . S
H2189 C2195 0.930 . S
C2190 H2176 0.930 1_545 S
C2190 C2188 1.395 . S
C2190 C2193 1.403 . S
C2191 C2188 1.403 . S
C2191 C2192 1.524 . S
C2191 C2195 1.400 . S
C2192 H2177 0.960 . S
C2192 H2178 0.960 . S
C2192 H2179 0.960 . S
C2192 C2191 1.524 . S
C2193 C2190 1.403 . S
C2193 C2194 1.392 . S
C2193 C2197 1.495 1_545 S
C2194 C2193 1.392 . S
C2194 C2195 1.385 . S
C2194 C2196 1.478 . S
C2195 H2189 0.930 . S
C2195 C2191 1.400 . S
C2195 C2194 1.385 . S
C2196 C2194 1.478 . S
C2196 C2198 1.381 . S
C2196 C2202 1.383 . S
C2197 C2193 1.495 1_565 S
C2197 H2203 0.959 . S
C2197 H2204 0.961 . S
C2197 H2205 0.960 . S
C2198 C2196 1.381 . S
C2198 C2199 1.394 . S
C2198 H2206 0.930 1_545 S
C2199 C2198 1.394 . S
C2199 C2200 1.383 . S
C2199 H2207 0.929 1_545 S
C2200 C2199 1.383 . S
C2200 C2201 1.377 . S
C2201 H2185 0.930 . S
C2201 C2200 1.377 . S
C2201 C2202 1.379 . S
C2202 H2186 0.931 . S
C2202 C2196 1.383 . S
C2202 C2201 1.379 . S
H2203 C2197 0.959 . S
H2204 C2197 0.961 . S
H2205 C2197 0.960 . S
H2206 C2198 0.930 1_565 S
H2207 C2199 0.929 1_565 S
H2208 C2216 0.929 . S
H2209 C2218 0.930 . S
H2210 C2220 0.930 . S
H2211 C2223 0.929 . S
H2212 C2226 0.930 . S
H2213 C2228 0.960 . S
H2214 C2228 0.960 . S
H2215 C2228 0.960 . S
C2216 H2208 0.929 . S
C2216 C2217 1.377 . S
C2216 C2218 1.384 . S
C2217 C2216 1.377 . S
C2217 C2223 1.390 . S
C2218 H2209 0.930 . S
C2218 C2216 1.384 . S
C2218 C2219 1.372 . S
C2219 C2218 1.372 . S
C2219 C2220 1.400 . S
C2219 C2224 1.490 . S
C2220 H2210 0.930 . S
C2220 C2219 1.400 . S
C2220 C2223 1.386 . S
H2221 C2237 0.930 . S
H2222 C2238 0.931 . S
C2223 H2211 0.929 . S
C2223 C2217 1.390 . S
C2223 C2220 1.386 . S
C2224 C2219 1.490 . S
C2224 C2226 1.395 . S
C2224 C2227 1.403 . S
H2225 C2231 0.930 . S
C2226 H2212 0.930 . S
C2226 C2224 1.395 . S
C2226 C2229 1.403 . S
C2227 C2224 1.403 . S
C2227 C2228 1.524 . S
C2227 C2231 1.400 . S
C2228 H2213 0.960 . S
C2228 H2214 0.960 . S
C2228 H2215 0.960 . S
C2228 C2227 1.524 . S
C2229 C2226 1.403 . S
C2229 C2230 1.392 . S
C2229 C2233 1.495 . S
C2230 C2229 1.392 . S
C2230 C2231 1.385 . S
C2230 C2232 1.478 . S
C2231 H2225 0.930 . S
C2231 C2227 1.400 . S
C2231 C2230 1.385 . S
C2232 C2230 1.478 . S
C2232 C2234 1.381 . S
C2232 C2238 1.383 . S
C2233 C2229 1.495 . S
C2233 H2239 0.959 . S
C2233 H2240 0.961 . S
C2233 H2241 0.960 . S
C2234 C2232 1.381 . S
C2234 C2235 1.394 . S
C2234 H2242 0.930 . S
C2235 C2234 1.394 . S
C2235 C2236 1.383 . S
C2235 H2243 0.929 . S
C2236 C2235 1.383 . S
C2236 C2237 1.377 . S
C2237 H2221 0.930 . S
C2237 C2236 1.377 . S
C2237 C2238 1.379 . S
C2238 H2222 0.931 . S
C2238 C2232 1.383 . S
C2238 C2237 1.379 . S
H2239 C2233 0.959 . S
H2240 C2233 0.961 . S
H2241 C2233 0.960 . S
H2242 C2234 0.930 . S
H2243 C2235 0.929 . S
H2244 C2252 0.929 . S
H2245 C2254 0.930 . S
H2246 C2256 0.930 . S
H2247 C2259 0.929 1_655 S
H2248 C2262 0.930 . S
H2249 C2264 0.960 . S
H2250 C2264 0.960 . S
H2251 C2264 0.960 . S
C2252 H2244 0.929 . S
C2252 C2253 1.377 . S
C2252 C2254 1.384 . S
C2253 C2252 1.377 . S
C2253 C2259 1.390 . S
C2254 H2245 0.930 . S
C2254 C2252 1.384 . S
C2254 C2255 1.372 . S
C2255 C2254 1.372 . S
C2255 C2256 1.400 . S
C2255 C2260 1.490 . S
C2256 H2246 0.930 . S
C2256 C2255 1.400 . S
C2256 C2259 1.386 . S
H2257 C2273 0.930 . S
H2258 C2274 0.931 . S
C2259 H2247 0.929 1_455 S
C2259 C2253 1.390 . S
C2259 C2256 1.386 . S
C2260 C2255 1.490 . S
C2260 C2262 1.395 . S
C2260 C2263 1.403 . S
H2261 C2267 0.930 . S
C2262 H2248 0.930 . S
C2262 C2260 1.395 . S
C2262 C2265 1.403 . S
C2263 C2260 1.403 . S
C2263 C2264 1.524 . S
C2263 C2267 1.400 . S
C2264 H2249 0.960 . S
C2264 H2250 0.960 . S
C2264 H2251 0.960 . S
C2264 C2263 1.524 . S
C2265 C2262 1.403 . S
C2265 C2266 1.392 . S
C2265 C2269 1.495 . S
C2266 C2265 1.392 . S
C2266 C2267 1.385 . S
C2266 C2268 1.478 . S
C2267 H2261 0.930 . S
C2267 C2263 1.400 . S
C2267 C2266 1.385 . S
C2268 C2266 1.478 . S
C2268 C2270 1.381 . S
C2268 C2274 1.383 . S
C2269 C2265 1.495 . S
C2269 H2275 0.959 . S
C2269 H2276 0.961 . S
C2269 H2277 0.960 . S
C2270 C2268 1.381 . S
C2270 C2271 1.394 . S
C2270 H2278 0.930 . S
C2271 C2270 1.394 . S
C2271 C2272 1.383 . S
C2271 H2279 0.929 . S
C2272 C2271 1.383 . S
C2272 C2273 1.377 . S
C2273 H2257 0.930 . S
C2273 C2272 1.377 . S
C2273 C2274 1.379 . S
C2274 H2258 0.931 . S
C2274 C2268 1.383 . S
C2274 C2273 1.379 . S
H2275 C2269 0.959 . S
H2276 C2269 0.961 . S
H2277 C2269 0.960 . S
H2278 C2270 0.930 . S
H2279 C2271 0.929 . S
H2280 C2288 0.929 . S
H2281 C2290 0.930 . S
H2282 C2292 0.930 . S
H2283 C2295 0.929 . S
H2284 C2298 0.930 . S
H2285 C2300 0.960 . S
H2286 C2300 0.960 . S
H2287 C2300 0.960 . S
C2288 H2280 0.929 . S
C2288 C2289 1.377 . S
C2288 C2290 1.384 . S
C2289 C2288 1.377 . S
C2289 C2295 1.390 . S
C2290 H2281 0.930 . S
C2290 C2288 1.384 . S
C2290 C2291 1.372 . S
C2291 C2290 1.372 . S
C2291 C2292 1.400 . S
C2291 C2296 1.490 . S
C2292 H2282 0.930 . S
C2292 C2291 1.400 . S
C2292 C2295 1.386 . S
H2293 C2309 0.930 . S
H2294 C2310 0.931 . S
C2295 H2283 0.929 . S
C2295 C2289 1.390 . S
C2295 C2292 1.386 . S
C2296 C2291 1.490 . S
C2296 C2298 1.395 . S
C2296 C2299 1.403 . S
H2297 C2303 0.930 . S
C2298 H2284 0.930 . S
C2298 C2296 1.395 . S
C2298 C2301 1.403 . S
C2299 C2296 1.403 . S
C2299 C2300 1.524 . S
C2299 C2303 1.400 . S
C2300 H2285 0.960 . S
C2300 H2286 0.960 . S
C2300 H2287 0.960 . S
C2300 C2299 1.524 . S
C2301 C2298 1.403 . S
C2301 C2302 1.392 . S
C2301 C2305 1.495 . S
C2302 C2301 1.392 . S
C2302 C2303 1.385 . S
C2302 C2304 1.478 . S
C2303 H2297 0.930 . S
C2303 C2299 1.400 . S
C2303 C2302 1.385 . S
C2304 C2302 1.478 . S
C2304 C2306 1.381 . S
C2304 C2310 1.383 . S
C2305 C2301 1.495 . S
C2305 H2311 0.959 . S
C2305 H2312 0.961 . S
C2305 H2313 0.960 . S
C2306 C2304 1.381 . S
C2306 C2307 1.394 . S
C2306 H2314 0.930 . S
C2307 C2306 1.394 . S
C2307 C2308 1.383 . S
C2307 H2315 0.929 . S
C2308 C2307 1.383 . S
C2308 C2309 1.377 . S
C2309 H2293 0.930 . S
C2309 C2308 1.377 . S
C2309 C2310 1.379 . S
C2310 H2294 0.931 . S
C2310 C2304 1.383 . S
C2310 C2309 1.379 . S
H2311 C2305 0.959 . S
H2312 C2305 0.961 . S
H2313 C2305 0.960 . S
H2314 C2306 0.930 . S
H2315 C2307 0.929 . S
H2316 C2324 0.929 . S
H2317 C2326 0.930 . S
H2318 C2328 0.930 . S
H2319 C2331 0.929 . S
H2320 C2334 0.930 . S
H2321 C2336 0.960 . S
H2322 C2336 0.960 . S
H2323 C2336 0.960 . S
C2324 H2316 0.929 . S
C2324 C2325 1.326 1_556 S
C2324 C2326 1.384 . S
C2325 C2324 1.326 1_554 S
C2325 C2331 1.401 . S
C2326 H2317 0.930 . S
C2326 C2324 1.384 . S
C2326 C2327 1.372 . S
C2327 C2326 1.372 . S
C2327 C2328 1.400 . S
C2327 C2332 1.490 . S
C2328 H2318 0.930 . S
C2328 C2327 1.400 . S
C2328 C2331 1.386 1_556 S
H2329 C2345 0.930 . S
H2330 C2346 0.931 . S
C2331 H2319 0.929 . S
C2331 C2325 1.401 . S
C2331 C2328 1.386 1_554 S
C2332 C2327 1.490 . S
C2332 C2334 1.395 . S
C2332 C2335 1.403 . S
H2333 C2339 0.930 . S
C2334 H2320 0.930 . S
C2334 C2332 1.395 . S
C2334 C2337 1.403 . S
C2335 C2332 1.403 . S
C2335 C2336 1.524 . S
C2335 C2339 1.400 . S
C2336 H2321 0.960 . S
C2336 H2322 0.960 . S
C2336 H2323 0.960 . S
C2336 C2335 1.524 . S
C2337 C2334 1.403 . S
C2337 C2338 1.392 . S
C2337 C2341 1.495 1_655 S
C2338 C2337 1.392 . S
C2338 C2339 1.385 . S
C2338 C2340 1.478 . S
C2339 H2333 0.930 . S
C2339 C2335 1.400 . S
C2339 C2338 1.385 . S
C2340 C2338 1.478 . S
C2340 C2342 1.381 . S
C2340 C2346 1.383 . S
C2341 C2337 1.495 1_455 S
C2341 H2347 0.959 . S
C2341 H2348 0.961 . S
C2341 H2349 0.960 . S
C2342 C2340 1.381 . S
C2342 C2343 1.394 . S
C2342 H2350 0.930 . S
C2343 C2342 1.394 . S
C2343 C2344 1.383 . S
C2343 H2351 0.929 1_655 S
C2344 C2343 1.383 . S
C2344 C2345 1.377 . S
C2345 H2329 0.930 . S
C2345 C2344 1.377 . S
C2345 C2346 1.379 . S
C2346 H2330 0.931 . S
C2346 C2340 1.383 . S
C2346 C2345 1.379 . S
H2347 C2341 0.959 . S
H2348 C2341 0.961 . S
H2349 C2341 0.960 . S
H2350 C2342 0.930 . S
H2351 C2343 0.929 1_455 S
H2352 C2360 0.929 . S
H2353 C2362 0.930 . S
H2354 C2364 0.930 . S
H2355 C2367 0.929 . S
H2356 C2370 0.930 . S
H2357 C2372 0.960 . S
H2358 C2372 0.960 . S
H2359 C2372 0.960 . S
C2360 H2352 0.929 . S
C2360 C2361 1.377 . S
C2360 C2362 1.384 . S
C2361 C2360 1.377 . S
C2361 C2367 1.390 . S
C2362 H2353 0.930 . S
C2362 C2360 1.384 . S
C2362 C2363 1.372 . S
C2363 C2362 1.372 . S
C2363 C2364 1.400 . S
C2363 C2368 1.490 . S
C2364 H2354 0.930 . S
C2364 C2363 1.400 . S
C2364 C2367 1.386 . S
H2365 C2381 0.930 . S
H2366 C2382 0.931 . S
C2367 H2355 0.929 . S
C2367 C2361 1.390 . S
C2367 C2364 1.386 . S
C2368 C2363 1.490 . S
C2368 C2370 1.395 . S
C2368 C2371 1.403 . S
H2369 C2375 0.930 . S
C2370 H2356 0.930 . S
C2370 C2368 1.395 . S
C2370 C2373 1.403 . S
C2371 C2368 1.403 . S
C2371 C2372 1.524 . S
C2371 C2375 1.400 . S
C2372 H2357 0.960 . S
C2372 H2358 0.960 . S
C2372 H2359 0.960 . S
C2372 C2371 1.524 . S
C2373 C2370 1.403 . S
C2373 C2374 1.392 . S
C2373 C2377 1.495 . S
C2374 C2373 1.392 . S
C2374 C2375 1.385 . S
C2374 C2376 1.478 . S
C2375 H2369 0.930 . S
C2375 C2371 1.400 . S
C2375 C2374 1.385 . S
C2376 C2374 1.478 . S
C2376 C2378 1.381 . S
C2376 C2382 1.383 . S
C2377 C2373 1.495 . S
C2377 H2383 0.959 . S
C2377 H2384 0.961 . S
C2377 H2385 0.960 . S
C2378 C2376 1.381 . S
C2378 C2379 1.394 . S
C2378 H2386 0.930 . S
C2379 C2378 1.394 . S
C2379 C2380 1.383 . S
C2379 H2387 0.929 . S
C2380 C2379 1.383 . S
C2380 C2381 1.377 . S
C2381 H2365 0.930 . S
C2381 C2380 1.377 . S
C2381 C2382 1.379 . S
C2382 H2366 0.931 . S
C2382 C2376 1.383 . S
C2382 C2381 1.379 . S
H2383 C2377 0.959 . S
H2384 C2377 0.961 . S
H2385 C2377 0.960 . S
H2386 C2378 0.930 . S
H2387 C2379 0.929 . S
H2388 C2396 0.929 1_554 S
H2389 C2398 0.930 . S
H2390 C2400 0.930 . S
H2391 C2403 0.929 . S
H2392 C2406 0.930 . S
H2393 C2408 0.960 . S
H2394 C2408 0.960 . S
H2395 C2408 0.960 . S
C2396 H2388 0.929 1_556 S
C2396 C2397 1.377 . S
C2396 C2398 1.384 . S
C2397 C2396 1.377 . S
C2397 C2403 1.390 . S
C2398 H2389 0.930 . S
C2398 C2396 1.384 . S
C2398 C2399 1.372 . S
C2399 C2398 1.372 . S
C2399 C2400 1.400 . S
C2399 C2404 1.490 . S
C2400 H2390 0.930 . S
C2400 C2399 1.400 . S
C2400 C2403 1.386 . S
H2401 C2417 0.930 1_655 S
H2402 C2418 0.931 . S
C2403 H2391 0.929 . S
C2403 C2397 1.390 . S
C2403 C2400 1.386 . S
C2404 C2399 1.490 . S
C2404 C2406 1.395 . S
C2404 C2407 1.403 . S
H2405 C2411 0.930 1_655 S
C2406 H2392 0.930 . S
C2406 C2404 1.395 . S
C2406 C2409 1.403 . S
C2407 C2404 1.403 . S
C2407 C2408 1.524 1_455 S
C2407 C2411 1.400 . S
C2408 H2393 0.960 . S
C2408 H2394 0.960 . S
C2408 H2395 0.960 . S
C2408 C2407 1.524 1_655 S
C2409 C2406 1.403 . S
C2409 C2410 1.392 . S
C2409 C2413 1.495 . S
C2410 C2409 1.392 . S
C2410 C2411 1.385 . S
C2410 C2412 1.478 . S
C2411 H2405 0.930 1_455 S
C2411 C2407 1.400 . S
C2411 C2410 1.385 . S
C2412 C2410 1.478 . S
C2412 C2414 1.381 . S
C2412 C2418 1.383 . S
C2413 C2409 1.495 . S
C2413 H2419 0.959 . S
C2413 H2420 0.961 . S
C2413 H2421 0.960 . S
C2414 C2412 1.381 . S
C2414 C2415 1.394 . S
C2414 H2422 0.930 . S
C2415 C2414 1.394 . S
C2415 C2416 1.383 . S
C2415 H2423 0.929 . S
C2416 C2415 1.383 . S
C2416 C2417 1.377 . S
C2417 H2401 0.930 1_455 S
C2417 C2416 1.377 . S
C2417 C2418 1.379 . S
C2418 H2402 0.931 . S
C2418 C2412 1.383 . S
C2418 C2417 1.379 . S
H2419 C2413 0.959 . S
H2420 C2413 0.961 . S
H2421 C2413 0.960 . S
H2422 C2414 0.930 . S
H2423 C2415 0.929 . S
H2424 C2432 0.929 . S
H2425 C2434 0.930 . S
H2426 C2436 0.930 . S
H2427 C2439 0.929 . S
H2428 C2442 0.930 . S
H2429 C2444 0.960 . S
H2430 C2444 0.960 . S
H2431 C2444 0.960 . S
C2432 H2424 0.929 . S
C2432 C2433 1.377 . S
C2432 C2434 1.384 . S
C2433 C2432 1.377 . S
C2433 C2439 1.390 . S
C2434 H2425 0.930 . S
C2434 C2432 1.384 . S
C2434 C2435 1.372 . S
C2435 C2434 1.372 . S
C2435 C2436 1.400 . S
C2435 C2440 1.490 . S
C2436 H2426 0.930 . S
C2436 C2435 1.400 . S
C2436 C2439 1.386 . S
H2437 C2453 0.930 . S
H2438 C2454 0.931 . S
C2439 H2427 0.929 . S
C2439 C2433 1.390 . S
C2439 C2436 1.386 . S
C2440 C2435 1.490 . S
C2440 C2442 1.395 . S
C2440 C2443 1.403 . S
H2441 C2447 0.930 . S
C2442 H2428 0.930 . S
C2442 C2440 1.395 . S
C2442 C2445 1.403 . S
C2443 C2440 1.403 . S
C2443 C2444 1.524 . S
C2443 C2447 1.400 . S
C2444 H2429 0.960 . S
C2444 H2430 0.960 . S
C2444 H2431 0.960 . S
C2444 C2443 1.524 . S
C2445 C2442 1.403 . S
C2445 C2446 1.392 . S
C2445 C2449 1.495 . S
C2446 C2445 1.392 . S
C2446 C2447 1.385 . S
C2446 C2448 1.478 . S
C2447 H2441 0.930 . S
C2447 C2443 1.400 . S
C2447 C2446 1.385 . S
C2448 C2446 1.478 . S
C2448 C2450 1.381 . S
C2448 C2454 1.383 . S
C2449 C2445 1.495 . S
C2449 H2455 0.959 . S
C2449 H2456 0.961 . S
C2449 H2457 0.960 . S
C2450 C2448 1.381 . S
C2450 C2451 1.394 . S
C2450 H2458 0.930 . S
C2451 C2450 1.394 . S
C2451 C2452 1.383 . S
C2451 H2459 0.929 . S
C2452 C2451 1.383 . S
C2452 C2453 1.377 . S
C2453 H2437 0.930 . S
C2453 C2452 1.377 . S
C2453 C2454 1.379 . S
C2454 H2438 0.931 . S
C2454 C2448 1.383 . S
C2454 C2453 1.379 . S
H2455 C2449 0.959 . S
H2456 C2449 0.961 . S
H2457 C2449 0.960 . S
H2458 C2450 0.930 . S
H2459 C2451 0.929 . S
H2460 C2468 0.929 . S
H2461 C2470 0.930 . S
H2462 C2472 0.930 . S
H2463 C2475 0.892 1_556 S
H2464 C2478 0.930 . S
H2465 C2480 0.960 . S
H2466 C2480 0.960 . S
H2467 C2480 0.960 . S
C2468 H2460 0.929 . S
C2468 C2469 1.377 . S
C2468 C2470 1.384 . S
C2469 C2468 1.377 . S
C2469 C2475 1.390 . S
C2470 H2461 0.930 . S
C2470 C2468 1.384 . S
C2470 C2471 1.372 . S
C2471 C2470 1.372 . S
C2471 C2472 1.400 . S
C2471 C2476 1.490 . S
C2472 H2462 0.930 . S
C2472 C2471 1.400 . S
C2472 C2475 1.386 . S
H2473 C2489 0.930 . S
H2474 C2490 0.931 . S
C2475 H2463 0.892 1_554 S
C2475 C2469 1.390 . S
C2475 C2472 1.386 . S
C2476 C2471 1.490 . S
C2476 C2478 1.395 . S
C2476 C2479 1.403 . S
H2477 C2483 0.930 . S
C2478 H2464 0.930 . S
C2478 C2476 1.395 . S
C2478 C2481 1.403 . S
C2479 C2476 1.403 . S
C2479 C2480 1.524 . S
C2479 C2483 1.400 . S
C2480 H2465 0.960 . S
C2480 H2466 0.960 . S
C2480 H2467 0.960 . S
C2480 C2479 1.524 . S
C2481 C2478 1.403 . S
C2481 C2482 1.392 . S
C2481 C2485 1.495 . S
C2482 C2481 1.392 . S
C2482 C2483 1.385 . S
C2482 C2484 1.478 . S
C2483 H2477 0.930 . S
C2483 C2479 1.400 . S
C2483 C2482 1.385 . S
C2484 C2482 1.478 . S
C2484 C2486 1.381 . S
C2484 C2490 1.383 . S
C2485 C2481 1.495 . S
C2485 H2491 0.959 . S
C2485 H2492 0.961 . S
C2485 H2493 0.960 . S
C2486 C2484 1.381 . S
C2486 C2487 1.394 . S
C2486 H2494 0.930 . S
C2487 C2486 1.394 . S
C2487 C2488 1.383 . S
C2487 H2495 0.929 . S
C2488 C2487 1.383 . S
C2488 C2489 1.377 . S
C2489 H2473 0.930 . S
C2489 C2488 1.377 . S
C2489 C2490 1.379 . S
C2490 H2474 0.931 . S
C2490 C2484 1.383 . S
C2490 C2489 1.379 . S
H2491 C2485 0.959 . S
H2492 C2485 0.961 . S
H2493 C2485 0.960 . S
H2494 C2486 0.930 . S
H2495 C2487 0.929 . S
H2496 C2504 0.929 . S
H2497 C2506 0.930 . S
H2498 C2508 0.930 . S
H2499 C2511 0.929 . S
H2500 C2514 0.930 . S
H2501 C2516 0.960 . S
H2502 C2516 0.960 . S
H2503 C2516 0.960 . S
C2504 H2496 0.929 . S
C2504 C2505 1.377 . S
C2504 C2506 1.384 . S
C2505 C2504 1.377 . S
C2505 C2511 1.390 . S
C2506 H2497 0.930 . S
C2506 C2504 1.384 . S
C2506 C2507 1.372 . S
C2507 C2506 1.372 . S
C2507 C2508 1.400 . S
C2507 C2512 1.490 . S
C2508 H2498 0.930 . S
C2508 C2507 1.400 . S
C2508 C2511 1.386 . S
H2509 C2525 0.930 . S
H2510 C2526 0.931 . S
C2511 H2499 0.929 . S
C2511 C2505 1.390 . S
C2511 C2508 1.386 . S
C2512 C2507 1.490 . S
C2512 C2514 1.395 . S
C2512 C2515 1.403 . S
H2513 C2519 0.930 . S
C2514 H2500 0.930 . S
C2514 C2512 1.395 . S
C2514 C2517 1.403 . S
C2515 C2512 1.403 . S
C2515 C2516 1.524 . S
C2515 C2519 1.400 . S
C2516 H2501 0.960 . S
C2516 H2502 0.960 . S
C2516 H2503 0.960 . S
C2516 C2515 1.524 . S
C2517 C2514 1.403 . S
C2517 C2518 1.392 . S
C2517 C2521 1.495 . S
C2518 C2517 1.392 . S
C2518 C2519 1.385 . S
C2518 C2520 1.478 . S
C2519 H2513 0.930 . S
C2519 C2515 1.400 . S
C2519 C2518 1.385 . S
C2520 C2518 1.478 . S
C2520 C2522 1.381 . S
C2520 C2526 1.383 . S
C2521 C2517 1.495 . S
C2521 H2527 0.959 . S
C2521 H2528 0.961 . S
C2521 H2529 0.960 . S
C2522 C2520 1.381 . S
C2522 C2523 1.394 . S
C2522 H2530 0.930 . S
C2523 C2522 1.394 . S
C2523 C2524 1.383 . S
C2523 H2531 0.929 . S
C2524 C2523 1.383 . S
C2524 C2525 1.377 . S
C2525 H2509 0.930 . S
C2525 C2524 1.377 . S
C2525 C2526 1.379 . S
C2526 H2510 0.931 . S
C2526 C2520 1.383 . S
C2526 C2525 1.379 . S
H2527 C2521 0.959 . S
H2528 C2521 0.961 . S
H2529 C2521 0.960 . S
H2530 C2522 0.930 . S
H2531 C2523 0.929 . S
H2532 C2540 0.929 . S
H2533 C2542 0.930 . S
H2534 C2544 0.930 . S
H2535 C2547 0.961 . S
H2536 C2550 0.930 . S
H2537 C2552 0.960 . S
H2538 C2552 0.960 . S
H2539 C2552 0.960 . S
C2540 H2532 0.929 . S
C2540 C2541 1.377 . S
C2540 C2542 1.384 . S
C2541 C2540 1.377 . S
C2541 C2547 1.381 1_554 S
C2542 H2533 0.930 . S
C2542 C2540 1.384 . S
C2542 C2543 1.372 . S
C2543 C2542 1.372 . S
C2543 C2544 1.400 . S
C2543 C2548 1.490 . S
C2544 H2534 0.930 . S
C2544 C2543 1.400 . S
C2544 C2547 1.363 1_554 S
H2545 C2561 0.930 . S
H2546 C2562 0.931 . S
C2547 H2535 0.961 . S
C2547 C2541 1.381 1_556 S
C2547 C2544 1.363 1_556 S
C2548 C2543 1.490 . S
C2548 C2550 1.395 . S
C2548 C2551 1.403 . S
H2549 C2555 0.930 . S
C2550 H2536 0.930 . S
C2550 C2548 1.395 . S
C2550 C2553 1.403 . S
C2551 C2548 1.403 . S
C2551 C2552 1.524 . S
C2551 C2555 1.400 . S
C2552 H2537 0.960 . S
C2552 H2538 0.960 . S
C2552 H2539 0.960 . S
C2552 C2551 1.524 . S
C2553 C2550 1.403 . S
C2553 C2554 1.392 . S
C2553 C2557 1.495 . S
C2554 C2553 1.392 . S
C2554 C2555 1.385 . S
C2554 C2556 1.478 . S
C2555 H2549 0.930 . S
C2555 C2551 1.400 . S
C2555 C2554 1.385 . S
C2556 C2554 1.478 . S
C2556 C2558 1.381 . S
C2556 C2562 1.383 . S
C2557 C2553 1.495 . S
C2557 H2563 0.959 . S
C2557 H2564 0.961 . S
C2557 H2565 0.960 . S
C2558 C2556 1.381 . S
C2558 C2559 1.394 . S
C2558 H2566 0.930 . S
C2559 C2558 1.394 . S
C2559 C2560 1.383 . S
C2559 H2567 0.929 . S
C2560 C2559 1.383 . S
C2560 C2561 1.377 . S
C2561 H2545 0.930 . S
C2561 C2560 1.377 . S
C2561 C2562 1.379 . S
C2562 H2546 0.931 . S
C2562 C2556 1.383 . S
C2562 C2561 1.379 . S
H2563 C2557 0.959 . S
H2564 C2557 0.961 . S
H2565 C2557 0.960 . S
H2566 C2558 0.930 . S
H2567 C2559 0.929 . S
H2568 C2576 0.929 . S
H2569 C2578 0.930 . S
H2570 C2580 0.930 . S
H2571 C2583 0.929 . S
H2572 C2586 0.930 . S
H2573 C2588 0.960 . S
H2574 C2588 0.960 . S
H2575 C2588 0.960 . S
C2576 H2568 0.929 . S
C2576 C2577 1.377 . S
C2576 C2578 1.384 . S
C2577 C2576 1.377 . S
C2577 C2583 1.390 . S
C2578 H2569 0.930 . S
C2578 C2576 1.384 . S
C2578 C2579 1.372 . S
C2579 C2578 1.372 . S
C2579 C2580 1.400 . S
C2579 C2584 1.490 . S
C2580 H2570 0.930 . S
C2580 C2579 1.400 . S
C2580 C2583 1.386 . S
H2581 C2597 0.930 . S
H2582 C2598 0.931 . S
C2583 H2571 0.929 . S
C2583 C2577 1.390 . S
C2583 C2580 1.386 . S
C2584 C2579 1.490 . S
C2584 C2586 1.395 . S
C2584 C2587 1.403 . S
H2585 C2591 0.930 . S
C2586 H2572 0.930 . S
C2586 C2584 1.395 . S
C2586 C2589 1.403 . S
C2587 C2584 1.403 . S
C2587 C2588 1.524 . S
C2587 C2591 1.400 . S
C2588 H2573 0.960 . S
C2588 H2574 0.960 . S
C2588 H2575 0.960 . S
C2588 C2587 1.524 . S
C2589 C2586 1.403 . S
C2589 C2590 1.392 . S
C2589 C2593 1.495 . S
C2590 C2589 1.392 . S
C2590 C2591 1.385 . S
C2590 C2592 1.478 . S
C2591 H2585 0.930 . S
C2591 C2587 1.400 . S
C2591 C2590 1.385 . S
C2592 C2590 1.478 . S
C2592 C2594 1.381 . S
C2592 C2598 1.383 . S
C2593 C2589 1.495 . S
C2593 H2599 0.959 . S
C2593 H2600 0.961 . S
C2593 H2601 0.960 . S
C2594 C2592 1.381 . S
C2594 C2595 1.394 . S
C2594 H2602 0.930 . S
C2595 C2594 1.394 . S
C2595 C2596 1.383 . S
C2595 H2603 0.929 . S
C2596 C2595 1.383 . S
C2596 C2597 1.377 . S
C2597 H2581 0.930 . S
C2597 C2596 1.377 . S
C2597 C2598 1.379 . S
C2598 H2582 0.931 . S
C2598 C2592 1.383 . S
C2598 C2597 1.379 . S
H2599 C2593 0.959 . S
H2600 C2593 0.961 . S
H2601 C2593 0.960 . S
H2602 C2594 0.930 . S
H2603 C2595 0.929 . S
H2604 C2612 0.929 . S
H2605 C2614 0.930 . S
H2606 C2616 0.930 . S
H2607 C2619 0.929 . S
H2608 C2622 0.930 . S
H2609 C2624 0.960 . S
H2610 C2624 0.960 . S
H2611 C2624 0.960 . S
C2612 H2604 0.929 . S
C2612 C2613 1.377 . S
C2612 C2614 1.384 . S
C2613 C2612 1.377 . S
C2613 C2619 1.390 . S
C2614 H2605 0.930 . S
C2614 C2612 1.384 . S
C2614 C2615 1.372 . S
C2615 C2614 1.372 . S
C2615 C2616 1.400 . S
C2615 C2620 1.490 . S
C2616 H2606 0.930 . S
C2616 C2615 1.400 . S
C2616 C2619 1.386 . S
H2617 C2633 0.930 . S
H2618 C2634 0.931 . S
C2619 H2607 0.929 . S
C2619 C2613 1.390 . S
C2619 C2616 1.386 . S
C2620 C2615 1.490 . S
C2620 C2622 1.395 . S
C2620 C2623 1.403 . S
H2621 C2627 0.930 . S
C2622 H2608 0.930 . S
C2622 C2620 1.395 . S
C2622 C2625 1.403 . S
C2623 C2620 1.403 . S
C2623 C2624 1.524 . S
C2623 C2627 1.400 . S
C2624 H2609 0.960 . S
C2624 H2610 0.960 . S
C2624 H2611 0.960 . S
C2624 C2623 1.524 . S
C2625 C2622 1.403 . S
C2625 C2626 1.392 . S
C2625 C2629 1.495 . S
C2626 C2625 1.392 . S
C2626 C2627 1.385 . S
C2626 C2628 1.478 . S
C2627 H2621 0.930 . S
C2627 C2623 1.400 . S
C2627 C2626 1.385 . S
C2628 C2626 1.478 . S
C2628 C2630 1.381 . S
C2628 C2634 1.383 . S
C2629 C2625 1.495 . S
C2629 H2635 0.959 . S
C2629 H2636 0.961 . S
C2629 H2637 0.960 . S
C2630 C2628 1.381 . S
C2630 C2631 1.394 . S
C2630 H2638 0.930 . S
C2631 C2630 1.394 . S
C2631 C2632 1.383 . S
C2631 H2639 0.929 . S
C2632 C2631 1.383 . S
C2632 C2633 1.377 . S
C2633 H2617 0.930 . S
C2633 C2632 1.377 . S
C2633 C2634 1.379 . S
C2634 H2618 0.931 . S
C2634 C2628 1.383 . S
C2634 C2633 1.379 . S
H2635 C2629 0.959 . S
H2636 C2629 0.961 . S
H2637 C2629 0.960 . S
H2638 C2630 0.930 . S
H2639 C2631 0.929 . S
H2640 C2648 0.929 . S
H2641 C2650 0.930 . S
H2642 C2652 0.930 . S
H2643 C2655 0.929 . S
H2644 C2658 0.930 . S
H2645 C2660 0.960 . S
H2646 C2660 0.960 . S
H2647 C2660 0.960 . S
C2648 H2640 0.929 . S
C2648 C2649 1.377 . S
C2648 C2650 1.384 . S
C2649 C2648 1.377 . S
C2649 C2655 1.390 . S
C2650 H2641 0.930 . S
C2650 C2648 1.384 . S
C2650 C2651 1.372 . S
C2651 C2650 1.372 . S
C2651 C2652 1.400 . S
C2651 C2656 1.490 . S
C2652 H2642 0.930 . S
C2652 C2651 1.400 . S
C2652 C2655 1.386 . S
H2653 C2669 0.930 . S
H2654 C2670 0.931 . S
C2655 H2643 0.929 . S
C2655 C2649 1.390 . S
C2655 C2652 1.386 . S
C2656 C2651 1.490 . S
C2656 C2658 1.395 . S
C2656 C2659 1.403 . S
H2657 C2663 0.930 . S
C2658 H2644 0.930 . S
C2658 C2656 1.395 . S
C2658 C2661 1.403 . S
C2659 C2656 1.403 . S
C2659 C2660 1.524 . S
C2659 C2663 1.400 . S
C2660 H2645 0.960 . S
C2660 H2646 0.960 . S
C2660 H2647 0.960 . S
C2660 C2659 1.524 . S
C2661 C2658 1.403 . S
C2661 C2662 1.392 . S
C2661 C2665 1.495 . S
C2662 C2661 1.392 . S
C2662 C2663 1.385 . S
C2662 C2664 1.478 . S
C2663 H2657 0.930 . S
C2663 C2659 1.400 . S
C2663 C2662 1.385 . S
C2664 C2662 1.478 . S
C2664 C2666 1.381 . S
C2664 C2670 1.383 . S
C2665 C2661 1.495 . S
C2665 H2671 0.959 . S
C2665 H2672 0.961 . S
C2665 H2673 0.960 . S
C2666 C2664 1.381 . S
C2666 C2667 1.394 . S
C2666 H2674 0.930 . S
C2667 C2666 1.394 . S
C2667 C2668 1.383 . S
C2667 H2675 0.929 . S
C2668 C2667 1.383 . S
C2668 C2669 1.377 . S
C2669 H2653 0.930 . S
C2669 C2668 1.377 . S
C2669 C2670 1.379 . S
C2670 H2654 0.931 . S
C2670 C2664 1.383 . S
C2670 C2669 1.379 . S
H2671 C2665 0.959 . S
H2672 C2665 0.961 . S
H2673 C2665 0.960 . S
H2674 C2666 0.930 . S
H2675 C2667 0.929 . S
H2676 C2684 0.929 . S
H2677 C2686 0.930 . S
H2678 C2688 0.930 . S
H2679 C2691 0.929 . S
H2680 C2694 0.930 . S
H2681 C2696 0.960 . S
H2682 C2696 0.960 . S
H2683 C2696 0.960 . S
C2684 H2676 0.929 . S
C2684 C2685 1.377 . S
C2684 C2686 1.384 . S
C2685 C2684 1.377 . S
C2685 C2691 1.390 . S
C2686 H2677 0.930 . S
C2686 C2684 1.384 . S
C2686 C2687 1.372 . S
C2687 C2686 1.372 . S
C2687 C2688 1.400 . S
C2687 C2692 1.490 . S
C2688 H2678 0.930 . S
C2688 C2687 1.400 . S
C2688 C2691 1.386 . S
H2689 C2705 0.930 . S
H2690 C2706 0.931 . S
C2691 H2679 0.929 . S
C2691 C2685 1.390 . S
C2691 C2688 1.386 . S
C2692 C2687 1.490 . S
C2692 C2694 1.395 . S
C2692 C2695 1.403 . S
H2693 C2699 0.930 . S
C2694 H2680 0.930 . S
C2694 C2692 1.395 . S
C2694 C2697 1.403 . S
C2695 C2692 1.403 . S
C2695 C2696 1.524 . S
C2695 C2699 1.400 . S
C2696 H2681 0.960 . S
C2696 H2682 0.960 . S
C2696 H2683 0.960 . S
C2696 C2695 1.524 . S
C2697 C2694 1.403 . S
C2697 C2698 1.392 . S
C2697 C2701 1.495 . S
C2698 C2697 1.392 . S
C2698 C2699 1.385 . S
C2698 C2700 1.478 . S
C2699 H2693 0.930 . S
C2699 C2695 1.400 . S
C2699 C2698 1.385 . S
C2700 C2698 1.478 . S
C2700 C2702 1.381 . S
C2700 C2706 1.383 . S
C2701 C2697 1.495 . S
C2701 H2707 0.959 . S
C2701 H2708 0.961 . S
C2701 H2709 0.960 . S
C2702 C2700 1.381 . S
C2702 C2703 1.394 . S
C2702 H2710 0.930 . S
C2703 C2702 1.394 . S
C2703 C2704 1.383 . S
C2703 H2711 0.929 . S
C2704 C2703 1.383 . S
C2704 C2705 1.377 . S
C2705 H2689 0.930 . S
C2705 C2704 1.377 . S
C2705 C2706 1.379 . S
C2706 H2690 0.931 . S
C2706 C2700 1.383 . S
C2706 C2705 1.379 . S
H2707 C2701 0.959 . S
H2708 C2701 0.961 . S
H2709 C2701 0.960 . S
H2710 C2702 0.930 . S
H2711 C2703 0.929 . S
H2712 C2720 0.929 . S
H2713 C2722 0.930 . S
H2714 C2724 0.930 . S
H2715 C2727 0.929 . S
H2716 C2730 0.930 1_554 S
H2717 C2732 0.960 . S
H2718 C2732 0.960 . S
H2719 C2732 0.960 . S
C2720 H2712 0.929 . S
C2720 C2721 1.377 . S
C2720 C2722 1.384 . S
C2721 C2720 1.377 . S
C2721 C2727 1.390 . S
C2722 H2713 0.930 . S
C2722 C2720 1.384 . S
C2722 C2723 1.372 . S
C2723 C2722 1.372 . S
C2723 C2724 1.400 . S
C2723 C2728 1.490 . S
C2724 H2714 0.930 . S
C2724 C2723 1.400 . S
C2724 C2727 1.386 . S
H2725 C2741 0.935 . S
H2726 C2742 0.931 . S
C2727 H2715 0.929 . S
C2727 C2721 1.390 . S
C2727 C2724 1.386 . S
C2728 C2723 1.490 . S
C2728 C2730 1.395 . S
C2728 C2731 1.403 . S
H2729 C2735 0.930 . S
C2730 H2716 0.930 1_556 S
C2730 C2728 1.395 . S
C2730 C2733 1.403 . S
C2731 C2728 1.403 . S
C2731 C2732 1.524 . S
C2731 C2735 1.400 . S
C2732 H2717 0.960 . S
C2732 H2718 0.960 . S
C2732 H2719 0.960 . S
C2732 C2731 1.524 . S
C2733 C2730 1.403 . S
C2733 C2734 1.392 . S
C2733 C2737 1.495 1_556 S
C2734 C2733 1.392 . S
C2734 C2735 1.385 . S
C2734 C2736 1.478 . S
C2735 H2729 0.930 . S
C2735 C2731 1.400 . S
C2735 C2734 1.385 . S
C2736 C2734 1.478 . S
C2736 C2738 1.381 . S
C2736 C2742 1.383 . S
C2737 C2733 1.495 1_554 S
C2737 H2743 0.959 . S
C2737 H2744 0.961 . S
C2737 H2745 0.960 . S
C2738 C2736 1.381 . S
C2738 C2739 1.394 . S
C2738 H2746 0.930 . S
C2739 C2738 1.394 . S
C2739 C2740 1.383 . S
C2739 H2747 0.929 . S
C2740 C2739 1.383 . S
C2740 C2741 1.377 . S
C2741 H2725 0.935 . S
C2741 C2740 1.377 . S
C2741 C2742 1.379 . S
C2742 H2726 0.931 . S
C2742 C2736 1.383 . S
C2742 C2741 1.379 . S
H2743 C2737 0.959 . S
H2744 C2737 0.961 . S
H2745 C2737 0.960 . S
H2746 C2738 0.930 . S
H2747 C2739 0.929 . S
H2748 C2756 0.929 . S
H2749 C2758 0.930 . S
H2750 C2760 0.930 . S
H2751 C2763 0.929 . S
H2752 C2766 0.930 . S
H2753 C2768 0.960 . S
H2754 C2768 0.960 . S
H2755 C2768 0.960 . S
C2756 H2748 0.929 . S
C2756 C2757 1.377 . S
C2756 C2758 1.384 . S
C2757 C2756 1.377 . S
C2757 C2763 1.390 . S
C2758 H2749 0.930 . S
C2758 C2756 1.384 . S
C2758 C2759 1.372 . S
C2759 C2758 1.372 . S
C2759 C2760 1.400 . S
C2759 C2764 1.490 . S
C2760 H2750 0.930 . S
C2760 C2759 1.400 . S
C2760 C2763 1.386 . S
H2761 C2777 0.930 . S
H2762 C2778 0.931 . S
C2763 H2751 0.929 . S
C2763 C2757 1.390 . S
C2763 C2760 1.386 . S
C2764 C2759 1.490 . S
C2764 C2766 1.395 . S
C2764 C2767 1.403 . S
H2765 C2771 0.930 . S
C2766 H2752 0.930 . S
C2766 C2764 1.395 . S
C2766 C2769 1.403 . S
C2767 C2764 1.403 . S
C2767 C2768 1.524 . S
C2767 C2771 1.400 . S
C2768 H2753 0.960 . S
C2768 H2754 0.960 . S
C2768 H2755 0.960 . S
C2768 C2767 1.524 . S
C2769 C2766 1.403 . S
C2769 C2770 1.392 . S
C2769 C2773 1.495 . S
C2770 C2769 1.392 . S
C2770 C2771 1.385 . S
C2770 C2772 1.478 . S
C2771 H2765 0.930 . S
C2771 C2767 1.400 . S
C2771 C2770 1.385 . S
C2772 C2770 1.478 . S
C2772 C2774 1.381 . S
C2772 C2778 1.383 . S
C2773 C2769 1.495 . S
C2773 H2779 0.959 . S
C2773 H2780 0.961 . S
C2773 H2781 0.960 . S
C2774 C2772 1.381 . S
C2774 C2775 1.394 . S
C2774 H2782 0.930 . S
C2775 C2774 1.394 . S
C2775 C2776 1.383 . S
C2775 H2783 0.929 . S
C2776 C2775 1.383 . S
C2776 C2777 1.377 . S
C2777 H2761 0.930 . S
C2777 C2776 1.377 . S
C2777 C2778 1.379 . S
C2778 H2762 0.931 . S
C2778 C2772 1.383 . S
C2778 C2777 1.379 . S
H2779 C2773 0.959 . S
H2780 C2773 0.961 . S
H2781 C2773 0.960 . S
H2782 C2774 0.930 . S
H2783 C2775 0.929 . S
H2784 C2792 0.929 . S
H2785 C2794 0.930 . S
H2786 C2796 0.930 . S
H2787 C2799 0.929 . S
H2788 C2802 0.930 . S
H2789 C2804 0.960 . S
H2790 C2804 0.960 . S
H2791 C2804 0.960 . S
C2792 H2784 0.929 . S
C2792 C2793 1.377 . S
C2792 C2794 1.384 . S
C2793 C2792 1.377 . S
C2793 C2799 1.390 . S
C2794 H2785 0.930 . S
C2794 C2792 1.384 . S
C2794 C2795 1.372 . S
C2795 C2794 1.372 . S
C2795 C2796 1.400 . S
C2795 C2800 1.490 . S
C2796 H2786 0.930 . S
C2796 C2795 1.400 . S
C2796 C2799 1.386 . S
H2797 C2813 0.930 . S
H2798 C2814 0.931 . S
C2799 H2787 0.929 . S
C2799 C2793 1.390 . S
C2799 C2796 1.386 . S
C2800 C2795 1.490 . S
C2800 C2802 1.395 . S
C2800 C2803 1.403 . S
H2801 C2807 0.930 . S
C2802 H2788 0.930 . S
C2802 C2800 1.395 . S
C2802 C2805 1.403 . S
C2803 C2800 1.403 . S
C2803 C2804 1.524 . S
C2803 C2807 1.400 . S
C2804 H2789 0.960 . S
C2804 H2790 0.960 . S
C2804 H2791 0.960 . S
C2804 C2803 1.524 . S
C2805 C2802 1.403 . S
C2805 C2806 1.392 . S
C2805 C2809 1.495 . S
C2806 C2805 1.392 . S
C2806 C2807 1.385 . S
C2806 C2808 1.478 . S
C2807 H2801 0.930 . S
C2807 C2803 1.400 . S
C2807 C2806 1.385 . S
C2808 C2806 1.478 . S
C2808 C2810 1.381 . S
C2808 C2814 1.383 . S
C2809 C2805 1.495 . S
C2809 H2815 0.959 . S
C2809 H2816 0.961 . S
C2809 H2817 0.960 1_554 S
C2810 C2808 1.381 . S
C2810 C2811 1.396 . S
C2810 H2818 0.930 1_554 S
C2811 C2810 1.396 . S
C2811 C2812 1.392 . S
C2811 H2819 0.918 1_554 S
C2812 C2811 1.392 . S
C2812 C2813 1.377 . S
C2813 H2797 0.930 . S
C2813 C2812 1.377 . S
C2813 C2814 1.379 . S
C2814 H2798 0.931 . S
C2814 C2808 1.383 . S
C2814 C2813 1.379 . S
H2815 C2809 0.959 . S
H2816 C2809 0.961 . S
H2817 C2809 0.960 1_556 S
H2818 C2810 0.930 1_556 S
H2819 C2811 0.918 1_556 S
H2820 C2828 0.929 1_545 S
H2821 C2830 0.930 . S
H2822 C2832 0.930 . S
H2823 C2835 0.929 . S
H2824 C2838 0.930 . S
H2825 C2840 0.960 . S
H2826 C2840 0.908 1_556 S
H2827 C2840 0.960 . S
C2828 H2820 0.929 1_565 S
C2828 C2829 1.377 . S
C2828 C2830 1.384 . S
C2829 C2828 1.377 . S
C2829 C2835 1.390 . S
C2830 H2821 0.930 . S
C2830 C2828 1.384 . S
C2830 C2831 1.372 . S
C2831 C2830 1.372 . S
C2831 C2832 1.400 . S
C2831 C2836 1.490 . S
C2832 H2822 0.930 . S
C2832 C2831 1.400 . S
C2832 C2835 1.386 . S
H2833 C2849 0.930 . S
H2834 C2850 0.931 . S
C2835 H2823 0.929 . S
C2835 C2829 1.390 . S
C2835 C2832 1.386 . S
C2836 C2831 1.490 . S
C2836 C2838 1.395 . S
C2836 C2839 1.403 . S
H2837 C2843 0.930 . S
C2838 H2824 0.930 . S
C2838 C2836 1.395 . S
C2838 C2841 1.403 . S
C2839 C2836 1.403 . S
C2839 C2840 1.524 . S
C2839 C2843 1.400 . S
C2840 H2825 0.960 . S
C2840 H2826 0.908 1_554 S
C2840 H2827 0.960 . S
C2840 C2839 1.524 . S
C2841 C2838 1.403 . S
C2841 C2842 1.392 . S
C2841 C2845 1.495 . S
C2842 C2841 1.392 . S
C2842 C2843 1.385 . S
C2842 C2844 1.478 . S
C2843 H2837 0.930 . S
C2843 C2839 1.400 . S
C2843 C2842 1.385 . S
C2844 C2842 1.478 . S
C2844 C2846 1.381 . S
C2844 C2850 1.383 . S
C2845 C2841 1.495 . S
C2845 H2851 0.959 . S
C2845 H2852 0.961 . S
C2845 H2853 0.960 . S
C2846 C2844 1.381 . S
C2846 C2847 1.394 . S
C2846 H2854 0.930 . S
C2847 C2846 1.394 . S
C2847 C2848 1.383 . S
C2847 H2855 0.929 1_554 S
C2848 C2847 1.383 . S
C2848 C2849 1.377 . S
C2849 H2833 0.930 . S
C2849 C2848 1.377 . S
C2849 C2850 1.379 . S
C2850 H2834 0.931 . S
C2850 C2844 1.383 . S
C2850 C2849 1.379 . S
H2851 C2845 0.959 . S
H2852 C2845 0.961 . S
H2853 C2845 0.960 . S
H2854 C2846 0.930 . S
H2855 C2847 0.929 1_556 S
C1156 C968 1.479 . S
C1137 C331 1.498 . S
C1192 C981 1.471 . S
C1173 C380 1.449 . S
C1209 C421 1.660 . S
C1228 C1001 1.560 . S
C1264 C1015 1.321 . S
C1245 C260 1.410 . S
C1300 C1027 1.513 . S
C1281 C620 1.495 . S
C1336 C1041 1.402 . S
C1317 C740 1.395 . S
C1353 C680 1.471 . S
C1372 C1051 1.475 . S
C1408 C1066 1.488 . S
C1389 C571 1.515 . S
C1425 C691 1.502 . S
C1444 C1080 1.494 . S
C1480 C1099 1.385 . S
C1461 C541 1.403 . S
C1497 C601 1.470 . S
C1516 C1079 1.482 . S
C1552 C1097 1.397 . S
C1533 C721 1.391 . S
C1569 C451 1.659 . S
C1588 C1113 1.559 . S
C1605 C241 1.460 . S
C1624 C1107 1.476 . S
C1641 C320 1.503 . S
C1660 C1111 1.521 . S
C1677 C391 1.506 . S
C1696 C1108 1.529 . S
C1713 C211 1.502 . S
C1732 C1010 1.474 . S
C1749 C841 1.462 . S
C1768 C1009 1.481 . S
C1804 C973 1.365 . S
C1785 C901 1.432 . S
C1840 C987 1.539 . S
C1821 C500 1.658 . S
C1857 C271 1.533 1_545 S
C1876 C1024 1.520 . S
C1912 C1069 1.522 . S
C1893 C661 1.509 . S
C1948 C1023 1.469 . S
C1929 C560 1.449 . S
C1984 C1055 1.398 . S
C1965 C751 1.390 . S
C2020 C1052 1.487 . S
C2001 C871 1.497 . S
C2037 C920 1.452 . S
C2056 C1065 1.471 . S
C2073 C481 1.663 . S
C2092 C1029 1.592 . S
C2128 C1043 1.320 . S
C2109 C800 1.412 . S
C2145 C200 1.496 . S
C2164 C999 1.512 . S
C2200 C1013 1.412 . S
C2181 C20 1.393 1_655 S
C2236 C967 1.491 . S
C2217 C80 1.474 . S
C2272 C982 1.510 . S
C2253 C151 1.511 1_455 S
C2289 C91 1.494 . S
C2308 C1094 1.498 . S
C2325 C121 1.432 . S
C2344 C1085 1.352 . S
C2361 C181 1.463 . S
C2380 C1093 1.471 . S
C2397 C1 1.391 1_556 S
C2416 C1083 1.397 . S
C2452 C1127 1.535 . S
C2433 C511 1.658 . S
C2488 C1121 1.460 . S
C2469 C781 1.466 1_554 S
C2524 C1125 1.515 . S
C2505 C860 1.495 . S
C2541 C931 1.507 1_554 S
C2560 C1122 1.529 . S
C2577 C631 1.504 . S
C2596 C1038 1.496 . S
C2632 C1037 1.474 . S
C2613 C301 1.469 . S
C2668 C1057 1.324 . S
C2649 C361 1.404 . S
C2704 C1071 1.591 . S
C2685 C440 1.663 . S
C2721 C811 1.534 . S
C2740 C996 1.528 . S
C2776 C985 1.523 . S
C2757 C61 1.509 . S
C2793 C140 1.449 . S
C2812 C995 1.466 . S
C2848 C971 1.405 . S
C2829 C31 1.388 1_565 S
