# Generated by pormake.
# Topology rtl, (3,6)-cn, num edge types: 1
# Building blocks:
#     Node 0, Type 0, BuildingBlock: BELTOD_clean_linker_0, # of connection points: 3
#     Node 1, Type 0, BuildingBlock: BELTOD_clean_linker_0, # of connection points: 3
#     Node 2, Type 0, BuildingBlock: BELTOD_clean_linker_0, # of connection points: 3
#     Node 3, Type 0, BuildingBlock: BELTOD_clean_linker_0, # of connection points: 3
#     Node 4, Type 1, BuildingBlock: KUMJIN_clean_sbu_1, # of connection points: 6
#     Node 5, Type 1, BuildingBlock: KUMJIN_clean_sbu_1, # of connection points: 6
#     Edge 6, Type (0, 1), BuildingBlock: CIFDUS_clean_linker_0, # of connection points: 2
#     Edge 7, Type (0, 1), BuildingBlock: CIFDUS_clean_linker_0, # of connection points: 2
#     Edge 8, Type (0, 1), BuildingBlock: CIFDUS_clean_linker_0, # of connection points: 2
#     Edge 9, Type (0, 1), BuildingBlock: CIFDUS_clean_linker_0, # of connection points: 2
#     Edge 10, Type (0, 1), BuildingBlock: CIFDUS_clean_linker_0, # of connection points: 2
#     Edge 11, Type (0, 1), BuildingBlock: CIFDUS_clean_linker_0, # of connection points: 2
#     Edge 12, Type (0, 1), BuildingBlock: CIFDUS_clean_linker_0, # of connection points: 2
#     Edge 13, Type (0, 1), BuildingBlock: CIFDUS_clean_linker_0, # of connection points: 2
#     Edge 14, Type (0, 1), BuildingBlock: CIFDUS_clean_linker_0, # of connection points: 2
#     Edge 15, Type (0, 1), BuildingBlock: CIFDUS_clean_linker_0, # of connection points: 2
#     Edge 16, Type (0, 1), BuildingBlock: CIFDUS_clean_linker_0, # of connection points: 2
#     Edge 17, Type (0, 1), BuildingBlock: CIFDUS_clean_linker_0, # of connection points: 2
# Relax obj value: 0.020
# Max RMSD: 0.107
# Mean RMSD: 0.067
data_MOF--net-rtl--node1-KUMJIN_clean_sbu_1--node2-BELTOD_clean_linker_0--edge1-CIFDUS_clean_linker_0
_symmetry_space_group_name_H-M    P1
_symmetry_Int_Tables_number       1
_symmetry_cell_setting            triclinic
loop_
_symmetry_equiv_pos_as_xyz
'x, y, z'
_cell_length_a     33.300869
_cell_length_b     33.880791
_cell_length_c     29.469197
_cell_angle_alpha  77.442028
_cell_angle_beta   99.950849
_cell_angle_gamma 90.279369
loop_
_atom_site_label
_atom_site_type_symbol
_atom_site_fract_x
_atom_site_fract_y
_atom_site_fract_z
_atom_type_partial_charge
P0 P 0.26525 0.89949 0.01238 0.0
H1 H 0.285 0.93995 0.09099 0.0
H2 H 0.25054 0.94564 0.15584 0.0
H3 H 0.15224 0.87503 0.10228 0.0
H4 H 0.18629 0.87129 0.03595 0.0
H5 H 0.33172 0.86963 0.97563 0.0
H6 H 0.36396 0.80254 0.98746 0.0
H7 H 0.28721 0.7543 0.08905 0.0
H8 H 0.25473 0.82128 0.07676 0.0
H9 H 0.21097 0.96728 0.95927 0.0
H10 H 0.24669 0.85055 0.94002 0.0
O11 O 0.30065 0.93449 0.00809 0.0
H12 H 0.17219 0.98297 0.8784 0.0
H13 H 0.20877 0.86631 0.85962 0.0
C14 C 0.23805 0.90545 0.05848 0.0
C15 C 0.25576 0.92616 0.0928 0.0
C16 C 0.23612 0.92903 0.13025 0.0
C17 C 0.19863 0.91053 0.13475 0.0
C18 C 0.18074 0.89016 0.09976 0.0
C19 C 0.20025 0.88777 0.06191 0.0
C20 C 0.29112 0.85062 0.0256 0.0
C21 C 0.32212 0.8447 1.00082 0.0
C22 C 0.34024 0.80634 0.00726 0.0
C23 C 0.32795 0.77324 0.03904 0.0
C24 C 0.2974 0.77937 0.06454 0.0
C25 C 0.27884 0.8177 0.05752 0.0
C26 C 0.23193 0.9079 0.95578 0.0
C27 C 0.21009 0.94487 0.93794 0.0
C28 C 0.18803 0.95382 0.89177 0.0
C29 C 0.18794 0.92604 0.86257 0.0
C30 C 0.20891 0.88857 0.88106 0.0
C31 C 0.23054 0.87951 0.92728 0.0
P32 P 0.72259 0.66405 0.65626 0.0
H33 H 0.74983 0.62294 0.5889 0.0
H34 H 0.71779 0.6151 0.51045 0.0
H35 H 0.60664 0.67202 0.52613 0.0
H36 H 0.63925 0.68049 0.60423 0.0
H37 H 0.77636 0.712 0.71148 0.0
H38 H 0.80687 0.77729 0.69055 0.0
H39 H 0.74662 0.789 0.54547 0.0
H40 H 0.71273 0.72697 0.56793 0.0
H41 H 0.66029 0.60522 0.67508 0.0
H42 H 0.71316 0.70321 0.73484 0.0
O43 O 0.76286 0.63234 0.67817 0.0
H44 H 0.62123 0.58739 0.73901 0.0
H45 H 0.67543 0.68411 0.80001 0.0
C46 C 0.69661 0.65152 0.60268 0.0
C47 C 0.71826 0.63283 0.57592 0.0
C48 C 0.69988 0.62833 0.53109 0.0
C49 C 0.65966 0.64291 0.51212 0.0
C50 C 0.63774 0.66073 0.53966 0.0
C51 C 0.65617 0.66518 0.58447 0.0
C52 C 0.74138 0.7146 0.64183 0.0
C53 C 0.7684 0.72952 0.67562 0.0
C54 C 0.78671 0.76666 0.66314 0.0
C55 C 0.77993 0.78888 0.61591 0.0
C56 C 0.75227 0.77384 0.58239 0.0
C57 C 0.73292 0.73755 0.5953 0.0
C58 C 0.68929 0.65607 0.69944 0.0
C59 C 0.66289 0.62355 0.70124 0.0
C60 C 0.64061 0.61324 0.73786 0.0
C61 C 0.64531 0.63448 0.77421 0.0
C62 C 0.67132 0.66734 0.77224 0.0
C63 C 0.69296 0.67821 0.73494 0.0
P64 P 0.82705 0.21918 0.03926 0.0
H65 H 0.81227 0.25162 0.93815 0.0
H66 H 0.82827 0.22536 0.87226 0.0
H67 H 0.86231 0.10925 0.96633 0.0
H68 H 0.84611 0.1357 0.0321 0.0
H69 H 0.80748 0.28224 0.08475 0.0
H70 H 0.74556 0.32247 0.07934 0.0
H71 H 0.6815 0.25892 0.97794 0.0
H72 H 0.74392 0.2184 0.98376 0.0
H73 H 0.90056 0.17225 0.08955 0.0
H74 H 0.77886 0.19059 0.11469 0.0
O75 O 0.86433 0.25227 0.03799 0.0
H76 H 0.92036 0.13414 0.17124 0.0
H77 H 0.79889 0.15351 0.19655 0.0
C78 C 0.82813 0.19577 0.99007 0.0
C79 C 0.82199 0.22015 0.94433 0.0
C80 C 0.83108 0.20504 0.90662 0.0
C81 C 0.84694 0.1653 0.91414 0.0
C82 C 0.85062 0.14015 0.95955 0.0
C83 C 0.84126 0.15527 0.99722 0.0
C84 C 0.78046 0.2479 0.03407 0.0
C85 C 0.78014 0.27699 0.06128 0.0
C86 C 0.74463 0.29972 0.05844 0.0
C87 C 0.70865 0.29385 0.02821 0.0
C88 C 0.7089 0.26435 1.00119 0.0
C89 C 0.74452 0.24122 0.00447 0.0
C90 C 0.8384 0.18457 0.09608 0.0
C91 C 0.87791 0.16743 0.11235 0.0
C92 C 0.88918 0.14564 0.15895 0.0
C93 C 0.86122 0.14124 0.19021 0.0
C94 C 0.8211 0.15682 0.17321 0.0
C95 C 0.80967 0.17803 0.12638 0.0
P96 P 0.37872 0.24204 0.48981 0.0
H97 H 0.39836 0.21716 0.5921 0.0
H98 H 0.39487 0.25256 0.65535 0.0
H99 H 0.36209 0.36395 0.55166 0.0
H100 H 0.36593 0.32862 0.48867 0.0
H101 H 0.34771 0.16413 0.47516 0.0
H102 H 0.28092 0.1345 0.4769 0.0
H103 H 0.23091 0.24862 0.4886 0.0
H104 H 0.29809 0.27784 0.48769 0.0
H105 H 0.44905 0.2403 0.44353 0.0
H106 H 0.33522 0.30853 0.41622 0.0
O107 O 0.41174 0.20256 0.50904 0.0
H108 H 0.46805 0.28135 0.3727 0.0
H109 H 0.35547 0.35238 0.34703 0.0
C110 C 0.38299 0.27025 0.53558 0.0
C111 C 0.39143 0.24941 0.58297 0.0
C112 C 0.38941 0.26965 0.61912 0.0
C113 C 0.37817 0.31099 0.60837 0.0
C114 C 0.37062 0.33202 0.5609 0.0
C115 C 0.37306 0.31182 0.52481 0.0
C116 C 0.32804 0.22293 0.48219 0.0
C117 C 0.32228 0.18294 0.47751 0.0
C118 C 0.28396 0.16608 0.47825 0.0
C119 C 0.25063 0.18907 0.48345 0.0
C120 C 0.25611 0.22989 0.48548 0.0
C121 C 0.29449 0.2467 0.48469 0.0
C122 C 0.39084 0.2715 0.43544 0.0
C123 C 0.42815 0.26435 0.42238 0.0
C124 C 0.43925 0.28837 0.38196 0.0
C125 C 0.41378 0.32097 0.35422 0.0
C126 C 0.37586 0.32749 0.36701 0.0
C127 C 0.36435 0.30266 0.40697 0.0
Eu128 Eu 0.02583 0.95847 0.50786 0.0
C129 C 0.90961 0.11316 0.49555 0.0
N130 N 0.95071 0.10722 0.50611 0.0
C131 C 0.95975 0.17197 0.45741 0.0
C132 C 0.89178 0.14859 0.46399 0.0
C133 C 0.97599 0.13637 0.48894 0.0
C134 C 0.91745 0.17798 0.44455 0.0
C135 C 0.84257 0.08943 0.507 0.0
C136 C 0.88542 0.08394 0.51687 0.0
C137 C 0.82457 0.12399 0.47432 0.0
C138 C 0.84912 0.15355 0.45294 0.0
Eu139 Eu 0.97602 0.04708 0.5599 0.0
N140 N 0.90378 0.05119 0.54892 0.0
C141 C 0.81912 0.06057 0.53123 0.0
C142 C 0.88112 0.02452 0.57496 0.0
C143 C 0.83853 0.02827 0.56581 0.0
H144 H 0.00868 0.13174 0.49917 0.0
H145 H 0.82073 0.00658 0.58595 0.0
H146 H 0.96264 0.88012 0.52608 0.0
H147 H 0.19076 0.95589 0.56181 0.0
H148 H 0.8956 1.00058 0.60347 0.0
H149 H 0.78613 0.06364 0.5246 0.0
H150 H 0.12326 0.98263 0.5156 0.0
H151 H 0.97983 0.19476 0.44313 0.0
H152 H 0.79171 0.12855 0.46607 0.0
H153 H 0.83484 0.18034 0.42837 0.0
H154 H 0.96186 0.81408 0.58091 0.0
H155 H 0.90494 0.20555 0.42005 0.0
H156 H 0.19547 0.89245 0.62319 0.0
N157 N 0.02228 0.89358 0.55721 0.0
C158 C 0.05733 0.87834 0.58688 0.0
C159 C 0.98873 0.83211 0.58352 0.0
C160 C 0.05878 0.83997 0.61774 0.0
C161 C 0.98902 0.87003 0.55309 0.0
C162 C 0.02348 0.81738 0.61672 0.0
N163 N 0.09071 0.93555 0.55187 0.0
C164 C 0.12534 0.95507 0.54258 0.0
C165 C 0.13043 0.88318 0.61061 0.0
C166 C 0.09277 0.89958 0.58351 0.0
C167 C 0.16594 0.90411 0.60314 0.0
C168 C 0.16342 0.93995 0.56853 0.0
H169 H 0.02332 0.78778 0.63984 0.0
H170 H 0.09735 0.79531 0.67115 0.0
H171 H 0.16011 0.8332 0.66489 0.0
O172 O 0.05444 0.96768 0.4447 0.0
O173 O 0.05833 0.97552 0.57584 0.0
O174 O 1.00188 0.98742 0.60398 0.0
O175 O 0.02214 0.91337 0.46468 0.0
O176 O 0.04601 0.02227 0.48326 0.0
O177 O 0.03941 0.05751 0.54133 0.0
O178 O 0.95648 0.07195 0.61617 0.0
O179 O 0.96929 0.05614 0.47993 0.0
O180 O 0.96596 0.99066 0.47045 0.0
O181 O 0.01936 0.07771 0.60361 0.0
O182 O 0.95696 0.98183 0.58068 0.0
O183 O 0.95884 0.95272 0.51711 0.0
C184 C 0.041 0.97991 0.61122 0.0
C185 C 0.08135 0.90713 0.43255 0.0
C186 C 0.13183 0.89244 0.38666 0.0
C187 C 0.14859 0.86098 0.42485 0.0
C188 C 0.09865 0.87539 0.46997 0.0
C189 C 0.13207 0.85261 0.46611 0.0
C190 C 0.09794 0.91546 0.39075 0.0
C191 C 0.05703 0.0506 0.5068 0.0
C192 C 0.04649 0.93171 0.43747 0.0
C193 C 0.09578 0.82454 0.64689 0.0
C194 C 0.13156 0.84606 0.64325 0.0
C195 C 0.96081 0.02971 0.45313 0.0
C196 C 0.00338 0.10663 0.66711 0.0
C197 C 0.9907 0.12377 0.73986 0.0
C198 C 0.02766 0.14405 0.74307 0.0
C199 C 0.04015 0.12716 0.67109 0.0
C200 C 0.97834 0.1055 0.70133 0.0
C201 C 0.05203 0.1459 0.70873 0.0
C202 C 0.94242 0.95705 0.5535 0.0
C203 C 0.99275 0.08483 0.62865 0.0
H204 H 0.1742 0.84236 0.42258 0.0
H205 H 0.08623 0.86797 0.50221 0.0
H206 H 0.14511 0.82821 0.49515 0.0
H207 H 0.08486 0.94004 0.36186 0.0
H208 H 0.03761 0.15867 0.77214 0.0
H209 H 0.05993 0.12855 0.64524 0.0
H210 H 0.95014 0.08935 0.69896 0.0
H211 H 0.08041 0.16164 0.71151 0.0
Eu212 Eu 0.44136 0.48124 0.9987 0.0
C213 C 0.61434 0.554 0.06934 0.0
N214 N 0.59665 0.52089 0.09176 0.0
C215 C 0.66161 0.48569 0.11709 0.0
C216 C 0.65676 0.55401 0.06977 0.0
C217 C 0.61949 0.48713 0.11583 0.0
C218 C 0.68034 0.51925 0.0939 0.0
C219 C 0.60739 0.62237 0.02108 0.0
C220 C 0.58986 0.58778 0.04508 0.0
C221 C 0.64966 0.62254 0.02177 0.0
C222 C 0.67425 0.58845 0.04595 0.0
Eu223 Eu 0.52556 0.52609 0.08739 0.0
N224 N 0.54874 0.58622 0.04345 0.0
C225 C 0.58185 0.65563 0.99659 0.0
C226 C 0.52394 0.61906 0.02089 0.0
C227 C 0.53999 0.65403 0.99676 0.0
H228 H 0.60526 0.46169 0.13499 0.0
H229 H 0.52007 0.67985 0.97856 0.0
H230 H 0.35827 0.5425 0.97773 0.0
H231 H 0.46352 0.32041 0.08434 0.0
H232 H 0.49193 0.61876 0.02183 0.0
H233 H 0.59415 0.68272 0.97769 0.0
H234 H 0.48306 0.38622 0.04182 0.0
H235 H 0.67963 0.45883 0.13621 0.0
H236 H 0.6636 0.64879 1.00337 0.0
H237 H 0.70677 0.58897 0.04586 0.0
H238 H 0.2872 0.53853 0.99161 0.0
H239 H 0.71301 0.51806 0.09498 0.0
H240 H 0.39393 0.31181 0.10277 0.0
N241 N 0.3735 0.48102 0.01128 0.0
C242 C 0.36022 0.44487 0.03272 0.0
C243 C 0.30748 0.51205 1.00358 0.0
C244 C 0.31976 0.44119 0.04101 0.0
C245 C 0.34786 0.51432 0.99621 0.0
C246 C 0.29337 0.47536 0.02615 0.0
N247 N 0.42665 0.41621 0.03987 0.0
C248 C 0.45336 0.38373 0.05146 0.0
C249 C 0.37464 0.37403 0.07069 0.0
C250 C 0.3875 0.41163 0.04748 0.0
C251 C 0.40263 0.34116 0.08482 0.0
C252 C 0.44202 0.34596 0.07476 0.0
H253 H 0.26207 0.47373 0.03186 0.0
H254 H 0.27607 0.40041 0.07091 0.0
H255 H 0.32405 0.3417 0.09686 0.0
O256 O 0.44677 0.44589 0.94586 0.0
O257 O 0.43068 0.47816 0.07414 0.0
O258 O 0.49557 0.46863 0.1164 0.0
O259 O 0.39892 0.49203 0.93181 0.0
O260 O 0.50673 0.45533 0.01257 0.0
O261 O 0.53257 0.45936 0.0893 0.0
O262 O 0.50719 0.56164 0.13418 0.0
O263 O 0.53783 0.5317 0.01272 0.0
O264 O 0.47428 0.53592 0.96649 0.0
O265 O 0.56242 0.52413 0.15705 0.0
O266 O 0.4609 0.55338 0.06976 0.0
O267 O 0.43443 0.54841 0.99365 0.0
C268 C 0.45613 0.46486 0.11398 0.0
C269 C 0.38496 0.43552 0.89725 0.0
C270 C 0.36629 0.39382 0.83954 0.0
C271 C 0.32858 0.38691 0.85463 0.0
C272 C 0.3471 0.42829 0.91188 0.0
C273 C 0.31923 0.40388 0.89082 0.0
C274 C 0.39455 0.41788 0.86139 0.0
C275 C 0.53351 0.44417 0.05196 0.0
C276 C 0.4141 0.46269 0.91729 0.0
C277 C 0.30702 0.40378 0.06416 0.0
C278 C 0.33437 0.37034 0.07899 0.0
C279 C 0.51382 0.5403 0.97129 0.0
C280 C 0.56155 0.58516 0.18287 0.0
C281 C 0.59443 0.61426 0.24801 0.0
C282 C 0.60201 0.64916 0.21525 0.0
C283 C 0.56903 0.62041 0.1508 0.0
C284 C 0.57443 0.58211 0.23143 0.0
C285 C 0.58939 0.6521 0.16695 0.0
C286 C 0.43591 0.56606 0.02943 0.0
C287 C 0.53991 0.55166 0.16622 0.0
H288 H 0.30642 0.36828 0.83849 0.0
H289 H 0.33873 0.44192 0.93896 0.0
H290 H 0.2901 0.39848 0.90222 0.0
H291 H 0.4235 0.42387 0.84953 0.0
H292 H 0.61786 0.67413 0.227 0.0
H293 H 0.55888 0.6237 0.11338 0.0
H294 H 0.5681 0.55513 0.25625 0.0
H295 H 0.5952 0.67912 0.14197 0.0
H296 H 0.21121 0.13531 0.43607 0.0
H297 H 0.20176 0.19888 0.546 0.0
H298 H 0.1399 0.16334 0.56122 0.0
H299 H 0.09077 0.11144 0.54655 0.0
H300 H 0.10133 0.04663 0.43778 0.0
H301 H 0.16058 0.08514 0.4194 0.0
C302 C 0.19563 0.14137 0.46338 0.0
C303 C 0.21122 0.16968 0.48986 0.0
C304 C 0.16038 0.12039 0.47248 0.0
C305 C 0.19022 0.17764 0.52463 0.0
C306 C 0.155 0.15707 0.53366 0.0
C307 C 0.10581 0.10582 0.51862 0.0
C308 C 0.09158 0.07588 0.49389 0.0
C309 C 0.14011 0.12799 0.50823 0.0
C310 C 0.11154 0.0693 0.45766 0.0
C311 C 0.14554 0.09132 0.44706 0.0
H312 H 0.33921 0.73449 0.97046 0.0
H313 H 0.35888 0.72065 0.12168 0.0
H314 H 0.39263 0.65448 0.13213 0.0
H315 H 0.41868 0.6019 0.09816 0.0
H316 H 0.39802 0.61509 0.94683 0.0
H317 H 0.36227 0.68009 0.93654 0.0
C318 C 0.35097 0.71693 0.00566 0.0
C319 C 0.3469 0.73247 0.04526 0.0
C320 C 0.37005 0.67886 0.01136 0.0
C321 C 0.36158 0.70921 0.09071 0.0
C322 C 0.38097 0.67149 0.09667 0.0
C323 C 0.4062 0.61887 0.0629 0.0
C324 C 0.41121 0.60371 0.02331 0.0
C325 C 0.38566 0.65618 0.05724 0.0
C326 C 0.39449 0.62596 0.97792 0.0
C327 C 0.37421 0.66324 0.97199 0.0
H328 H 0.85671 0.80714 0.65543 0.0
H329 H 0.7568 0.85491 0.54197 0.0
H330 H 0.79876 0.90977 0.51127 0.0
H331 H 0.86515 0.9433 0.51489 0.0
H332 H 0.95993 0.90168 0.63534 0.0
H333 H 0.91812 0.84591 0.66585 0.0
C334 C 0.84327 0.82991 0.62477 0.0
C335 C 0.80355 0.82574 0.60077 0.0
C336 C 0.86686 0.86261 0.60834 0.0
C337 C 0.78766 0.85591 0.56054 0.0
C338 C 0.81154 0.88776 0.54303 0.0
C339 C 0.87632 0.92195 0.54784 0.0
C340 C 0.91564 0.92555 0.57241 0.0
C341 C 0.85143 0.89102 0.56616 0.0
C342 C 0.92974 0.89885 0.61578 0.0
C343 C 0.90592 0.86705 0.63314 0.0
H344 H 0.67653 0.31228 0.09995 0.0
H345 H 0.65758 0.33262 0.94807 0.0
H346 H 0.60026 0.3796 0.94186 0.0
H347 H 0.55854 0.4183 0.97969 0.0
H348 H 0.57725 0.39664 0.13182 0.0
H349 H 0.63198 0.34729 0.13778 0.0
C350 C 0.6598 0.32699 0.06549 0.0
C351 C 0.6715 0.31928 0.02453 0.0
C352 C 0.62716 0.3541 0.06222 0.0
C353 C 0.64905 0.33791 0.98014 0.0
C354 C 0.61646 0.36497 0.97658 0.0
C355 C 0.57439 0.40255 0.01415 0.0
C356 C 0.5645 0.41198 0.05522 0.0
C357 C 0.60566 0.37379 0.01738 0.0
C358 C 0.58504 0.39093 0.09958 0.0
C359 C 0.61618 0.36244 0.10308 0.0
H360 H 0.23659 0.90472 0.22574 0.0
H361 H 0.11699 0.91728 0.13867 0.0
H362 H 0.0857 0.9148 0.20835 0.0
H363 H 0.09232 0.90634 0.29488 0.0
H364 H 0.21243 0.89608 0.38041 0.0
H365 H 0.24339 0.90142 0.31026 0.0
C366 C 0.20369 0.90775 0.22162 0.0
C367 C 0.17932 0.91109 0.17676 0.0
C368 C 0.1859 0.90673 0.2617 0.0
C369 C 0.13663 0.91401 0.17272 0.0
C370 C 0.11866 0.91289 0.21257 0.0
C371 C 0.12525 0.90595 0.298 0.0
C372 C 0.14999 0.90039 0.34294 0.0
C373 C 0.14299 0.90888 0.25735 0.0
C374 C 0.19266 0.89964 0.34639 0.0
C375 C 0.21042 0.90277 0.30626 0.0
H376 H 0.56501 0.62095 0.77577 0.0
H377 H 0.68255 0.61469 0.86584 0.0
H378 H 0.65236 0.58404 0.93465 0.0
H379 H 0.59361 0.55576 0.96792 0.0
H380 H 0.47453 0.56682 0.87987 0.0
H381 H 0.50449 0.59776 0.81105 0.0
C382 C 0.58378 0.61315 0.81061 0.0
C383 C 0.62585 0.61993 0.81595 0.0
C384 C 0.56612 0.59599 0.85005 0.0
C385 C 0.65002 0.61 0.86112 0.0
C386 C 0.63285 0.59226 0.90033 0.0
C387 C 0.57387 0.56583 0.93409 0.0
C388 C 0.53172 0.55949 0.92947 0.0
C389 C 0.59104 0.58475 0.89508 0.0
C390 C 0.50706 0.57146 0.88466 0.0
C391 C 0.52414 0.58926 0.84525 0.0
H392 H 0.90265 0.0696 0.23147 0.0
H393 H 0.85106 0.17486 0.26311 0.0
H394 H 0.87769 0.14991 0.34712 0.0
H395 H 0.91743 0.0994 0.4108 0.0
H396 H 0.96586 0.99199 0.38127 0.0
H397 H 0.93905 0.01652 0.29701 0.0
C398 C 0.89716 0.08685 0.25691 0.0
C399 C 0.87498 0.12397 0.24125 0.0
C400 C 0.9122 0.07209 0.30529 0.0
C401 C 0.86772 0.14601 0.27445 0.0
C402 C 0.88315 0.13191 0.3224 0.0
C403 C 0.92201 0.08133 0.38613 0.0
C404 C 0.94368 0.04411 0.40238 0.0
C405 C 0.90571 0.0952 0.33812 0.0
C406 C 0.94911 0.02078 0.3697 0.0
C407 C 0.93386 0.03481 0.32152 0.0
H408 H 0.42803 0.30839 0.69265 0.0
H409 H 0.31302 0.3587 0.6092 0.0
H410 H 0.29936 0.38901 0.67322 0.0
H411 H 0.3191 0.39951 0.75381 0.0
H412 H 0.43458 0.35074 0.83707 0.0
H413 H 0.44916 0.32143 0.77237 0.0
C414 C 0.40004 0.32605 0.68859 0.0
C415 C 0.37156 0.3313 0.64635 0.0
C416 C 0.39242 0.34346 0.72553 0.0
C417 C 0.3356 0.35461 0.64121 0.0
C418 C 0.32764 0.3717 0.6779 0.0
C419 C 0.34737 0.38233 0.75773 0.0
C420 C 0.37558 0.37688 0.80012 0.0
C421 C 0.35565 0.36603 0.72033 0.0
C422 C 0.41246 0.35527 0.80463 0.0
C423 C 0.42073 0.33847 0.76775 0.0
H424 H 0.66365 0.5813 0.46683 0.0
H425 H 0.61612 0.70345 0.44599 0.0
H426 H 0.59039 0.70462 0.36306 0.0
H427 H 0.58386 0.67217 0.29572 0.0
H428 H 0.63266 0.55076 0.31531 0.0
H429 H 0.6554 0.54802 0.3995 0.0
C430 C 0.64768 0.60815 0.44408 0.0
C431 C 0.64182 0.64221 0.46258 0.0
C432 C 0.63334 0.60881 0.39622 0.0
C433 C 0.62057 0.67661 0.43284 0.0
C434 C 0.60612 0.67745 0.3853 0.0
C435 C 0.59966 0.64519 0.3184 0.0
C436 C 0.6069 0.61187 0.29932 0.0
C437 C 0.61276 0.64392 0.36653 0.0
C438 C 0.6266 0.57675 0.32926 0.0
C439 C 0.63975 0.57524 0.37731 0.0
H440 H 0.9195 0.12614 0.92317 0.0
H441 H 0.81411 0.17649 0.81992 0.0
H442 H 0.84788 0.16419 0.75652 0.0
H443 H 0.91034 0.14525 0.73007 0.0
H444 H 0.01619 0.09784 0.83414 0.0
H445 H 0.9791 0.10215 0.89761 0.0
C446 C 0.90344 0.13348 0.88693 0.0
C447 C 0.86435 0.15224 0.87632 0.0
C448 C 0.92335 0.12714 0.85073 0.0
C449 C 0.84436 0.16231 0.82899 0.0
C450 C 0.86366 0.15529 0.79274 0.0
C451 C 0.92488 0.13521 0.7667 0.0
C452 C 0.96596 0.12154 0.77755 0.0
C453 C 0.9036 0.13868 0.80309 0.0
C454 C 0.98469 0.10886 0.82506 0.0
C455 C 0.96352 0.11132 0.86132 0.0
H456 H 0.36719 0.36074 0.2703 0.0
H457 H 0.49157 0.3442 0.34562 0.0
H458 H 0.51512 0.38603 0.2781 0.0
H459 H 0.50112 0.42678 0.19771 0.0
H460 H 0.37665 0.45099 0.12552 0.0
H461 H 0.35254 0.40709 0.19196 0.0
C462 C 0.3994 0.36664 0.27241 0.0
C463 C 0.42747 0.34836 0.31311 0.0
C464 C 0.41285 0.39204 0.23383 0.0
C465 C 0.46916 0.35647 0.31451 0.0
C466 C 0.48276 0.38087 0.27598 0.0
C467 C 0.46865 0.42267 0.19637 0.0
C468 C 0.44085 0.44107 0.15571 0.0
C469 C 0.45494 0.39858 0.2354 0.0
C470 C 0.39889 0.43593 0.15538 0.0
C471 C 0.38503 0.41113 0.19369 0.0
H472 H 0.11124 0.95819 0.82864 0.0
H473 H 0.21741 0.91659 0.78467 0.0
H474 H 0.18234 0.93183 0.70246 0.0
H475 H 0.12105 0.95623 0.64337 0.0
H476 H 0.01363 0.99382 0.6884 0.0
H477 H 0.05001 0.98237 0.76945 0.0
C478 C 0.12675 0.9528 0.80097 0.0
C479 C 0.16676 0.93623 0.81267 0.0
C480 C 0.10626 0.96115 0.75391 0.0
C481 C 0.18641 0.92895 0.77655 0.0
C482 C 0.16647 0.93782 0.72955 0.0
C483 C 0.10549 0.96143 0.6709 0.0
C484 C 0.06447 0.97503 0.65974 0.0
C485 C 0.12627 0.95366 0.71785 0.0
C486 C 0.0451 0.98285 0.69588 0.0
C487 C 0.06586 0.97628 0.74239 0.0
loop_
_geom_bond_atom_site_label_1
_geom_bond_atom_site_label_2
_geom_bond_distance
_geom_bond_site_symmetry_2
_ccdc_geom_bond_type
P0 O11 1.490 . S
P0 C14 1.812 . S
P0 C20 1.803 . S
P0 C26 1.819 1_554 S
H1 C15 0.941 . S
H2 C16 0.939 . S
H3 C18 0.940 . S
H4 C19 0.940 . S
H5 C21 0.938 1_556 S
H6 C22 0.942 . S
H7 C24 0.940 . S
H8 C25 0.939 . S
H9 C27 0.941 . S
H10 C31 0.939 . S
O11 P0 1.490 . S
H12 C28 0.939 . S
H13 C30 0.940 . S
C14 P0 1.812 . S
C14 C15 1.389 . S
C14 C19 1.391 . S
C15 H1 0.941 . S
C15 C14 1.389 . S
C15 C16 1.397 . S
C16 H2 0.939 . S
C16 C15 1.397 . S
C16 C17 1.378 . S
C17 C16 1.378 . S
C17 C18 1.378 . S
C18 H3 0.940 . S
C18 C17 1.378 . S
C18 C19 1.396 . S
C19 H4 0.940 . S
C19 C14 1.391 . S
C19 C18 1.396 . S
C20 P0 1.803 . S
C20 C21 1.378 . S
C20 C25 1.400 . S
C21 H5 0.938 1_554 S
C21 C20 1.378 . S
C21 C22 1.361 . S
C22 H6 0.942 . S
C22 C21 1.361 . S
C22 C23 1.369 . S
C23 C22 1.369 . S
C23 C24 1.404 . S
C24 H7 0.940 . S
C24 C23 1.404 . S
C24 C25 1.389 . S
C25 H8 0.939 . S
C25 C20 1.400 . S
C25 C24 1.389 . S
C26 P0 1.819 1_556 S
C26 C27 1.391 . S
C26 C31 1.391 . S
C27 H9 0.941 . S
C27 C26 1.391 . S
C27 C28 1.396 . S
C28 H12 0.939 . S
C28 C27 1.396 . S
C28 C29 1.397 . S
C29 C28 1.397 . S
C29 C30 1.385 . S
C30 H13 0.940 . S
C30 C29 1.385 . S
C30 C31 1.388 . S
C31 H10 0.939 . S
C31 C26 1.391 . S
C31 C30 1.388 . S
P32 O43 1.490 . S
P32 C46 1.812 . S
P32 C52 1.803 . S
P32 C58 1.819 . S
H33 C47 0.941 . S
H34 C48 0.939 . S
H35 C50 0.940 . S
H36 C51 0.940 . S
H37 C53 0.939 . S
H38 C54 0.942 . S
H39 C56 0.940 . S
H40 C57 0.939 . S
H41 C59 0.941 . S
H42 C63 0.939 . S
O43 P32 1.490 . S
H44 C60 0.939 . S
H45 C62 0.940 . S
C46 P32 1.812 . S
C46 C47 1.389 . S
C46 C51 1.391 . S
C47 H33 0.941 . S
C47 C46 1.389 . S
C47 C48 1.397 . S
C48 H34 0.939 . S
C48 C47 1.397 . S
C48 C49 1.378 . S
C49 C48 1.378 . S
C49 C50 1.378 . S
C50 H35 0.940 . S
C50 C49 1.378 . S
C50 C51 1.396 . S
C51 H36 0.940 . S
C51 C46 1.391 . S
C51 C50 1.396 . S
C52 P32 1.803 . S
C52 C53 1.378 . S
C52 C57 1.400 . S
C53 H37 0.939 . S
C53 C52 1.378 . S
C53 C54 1.361 . S
C54 H38 0.942 . S
C54 C53 1.361 . S
C54 C55 1.369 . S
C55 C54 1.369 . S
C55 C56 1.404 . S
C56 H39 0.940 . S
C56 C55 1.404 . S
C56 C57 1.389 . S
C57 H40 0.939 . S
C57 C52 1.400 . S
C57 C56 1.389 . S
C58 P32 1.819 . S
C58 C59 1.391 . S
C58 C63 1.391 . S
C59 H41 0.941 . S
C59 C58 1.391 . S
C59 C60 1.396 . S
C60 H44 0.939 . S
C60 C59 1.396 . S
C60 C61 1.397 . S
C61 C60 1.397 . S
C61 C62 1.385 . S
C62 H45 0.940 . S
C62 C61 1.385 . S
C62 C63 1.388 . S
C63 H42 0.939 . S
C63 C58 1.391 . S
C63 C62 1.388 . S
P64 O75 1.490 . S
P64 C78 1.812 . S
P64 C84 1.803 . S
P64 C90 1.819 . S
H65 C79 0.941 . S
H66 C80 0.939 . S
H67 C82 0.940 . S
H68 C83 0.940 . S
H69 C85 0.939 . S
H70 C86 0.942 . S
H71 C88 0.940 . S
H72 C89 0.939 . S
H73 C91 0.941 . S
H74 C95 0.939 . S
O75 P64 1.490 . S
H76 C92 0.939 . S
H77 C94 0.940 . S
C78 P64 1.812 . S
C78 C79 1.389 1_554 S
C78 C83 1.391 . S
C79 H65 0.941 . S
C79 C78 1.389 1_556 S
C79 C80 1.397 . S
C80 H66 0.939 . S
C80 C79 1.397 . S
C80 C81 1.378 . S
C81 C80 1.378 . S
C81 C82 1.378 . S
C82 H67 0.940 . S
C82 C81 1.378 . S
C82 C83 1.396 1_556 S
C83 H68 0.940 . S
C83 C78 1.391 . S
C83 C82 1.396 1_554 S
C84 P64 1.803 . S
C84 C85 1.378 . S
C84 C89 1.400 . S
C85 H69 0.939 . S
C85 C84 1.378 . S
C85 C86 1.361 . S
C86 H70 0.942 . S
C86 C85 1.361 . S
C86 C87 1.369 . S
C87 C86 1.369 . S
C87 C88 1.404 . S
C88 H71 0.940 . S
C88 C87 1.404 . S
C88 C89 1.389 . S
C89 H72 0.939 . S
C89 C84 1.400 . S
C89 C88 1.389 . S
C90 P64 1.819 . S
C90 C91 1.391 . S
C90 C95 1.391 . S
C91 H73 0.941 . S
C91 C90 1.391 . S
C91 C92 1.396 . S
C92 H76 0.939 . S
C92 C91 1.396 . S
C92 C93 1.397 . S
C93 C92 1.397 . S
C93 C94 1.385 . S
C94 H77 0.940 . S
C94 C93 1.385 . S
C94 C95 1.388 . S
C95 H74 0.939 . S
C95 C90 1.391 . S
C95 C94 1.388 . S
P96 O107 1.490 . S
P96 C110 1.812 . S
P96 C116 1.803 . S
P96 C122 1.819 . S
H97 C111 0.941 . S
H98 C112 0.939 . S
H99 C114 0.940 . S
H100 C115 0.940 . S
H101 C117 0.939 . S
H102 C118 0.942 . S
H103 C120 0.940 . S
H104 C121 0.939 . S
H105 C123 0.941 . S
H106 C127 0.939 . S
O107 P96 1.490 . S
H108 C124 0.939 . S
H109 C126 0.940 . S
C110 P96 1.812 . S
C110 C111 1.389 . S
C110 C115 1.391 . S
C111 H97 0.941 . S
C111 C110 1.389 . S
C111 C112 1.397 . S
C112 H98 0.939 . S
C112 C111 1.397 . S
C112 C113 1.378 . S
C113 C112 1.378 . S
C113 C114 1.378 . S
C114 H99 0.940 . S
C114 C113 1.378 . S
C114 C115 1.396 . S
C115 H100 0.940 . S
C115 C110 1.391 . S
C115 C114 1.396 . S
C116 P96 1.803 . S
C116 C117 1.378 . S
C116 C121 1.400 . S
C117 H101 0.939 . S
C117 C116 1.378 . S
C117 C118 1.361 . S
C118 H102 0.942 . S
C118 C117 1.361 . S
C118 C119 1.369 . S
C119 C118 1.369 . S
C119 C120 1.404 . S
C120 H103 0.940 . S
C120 C119 1.404 . S
C120 C121 1.389 . S
C121 H104 0.939 . S
C121 C116 1.400 . S
C121 C120 1.389 . S
C122 P96 1.819 . S
C122 C123 1.391 . S
C122 C127 1.391 . S
C123 H105 0.941 . S
C123 C122 1.391 . S
C123 C124 1.396 . S
C124 H108 0.939 . S
C124 C123 1.396 . S
C124 C125 1.397 . S
C125 C124 1.397 . S
C125 C126 1.385 . S
C126 H109 0.940 . S
C126 C125 1.385 . S
C126 C127 1.388 . S
C127 H106 0.939 . S
C127 C122 1.391 . S
C127 C126 1.388 . S
Eu128 N157 2.600 . S
Eu128 N163 2.562 . S
Eu128 O172 2.462 . S
Eu128 O173 2.373 . S
Eu128 O175 2.432 . S
Eu128 O176 2.291 1_565 S
Eu128 O180 2.325 1_465 S
Eu128 O183 2.372 1_455 S
Eu128 C192 2.787 . S
C129 N130 1.365 . S
C129 C132 1.405 . S
C129 C136 1.448 . S
N130 C129 1.365 . S
N130 C133 1.328 . S
N130 Eu139 2.600 . S
C131 C133 1.397 . S
C131 C134 1.367 . S
C131 H151 0.931 1_655 S
C132 C129 1.405 . S
C132 C134 1.403 . S
C132 C138 1.439 . S
C133 N130 1.328 . S
C133 C131 1.397 . S
C133 H144 0.920 1_655 S
C134 C131 1.367 . S
C134 C132 1.403 . S
C134 H155 0.929 . S
C135 C136 1.430 . S
C135 C137 1.387 . S
C135 C141 1.404 . S
C136 C129 1.448 . S
C136 C135 1.430 . S
C136 N140 1.351 . S
C137 C135 1.387 . S
C137 C138 1.374 . S
C137 H152 0.931 . S
C138 C132 1.439 . S
C138 C137 1.374 . S
C138 H153 0.931 . S
Eu139 N130 2.600 . S
Eu139 N140 2.562 . S
Eu139 O174 2.335 1_655 S
Eu139 O177 2.372 1_655 S
Eu139 O178 2.462 . S
Eu139 O179 2.373 . S
Eu139 O181 2.432 . S
Eu139 O182 2.291 1_545 S
Eu139 C203 2.787 . S
N140 C136 1.351 . S
N140 Eu139 2.562 . S
N140 C142 1.325 . S
C141 C135 1.404 . S
C141 C143 1.366 . S
C141 H149 0.930 . S
C142 N140 1.325 . S
C142 C143 1.416 . S
C142 H148 0.929 . S
C143 C141 1.366 . S
C143 C142 1.416 . S
C143 H145 0.930 . S
H144 C133 0.920 1_455 S
H145 C143 0.930 . S
H146 C161 0.930 1_655 S
H147 C168 0.930 . S
H148 C142 0.929 . S
H149 C141 0.930 . S
H150 C164 0.929 . S
H151 C131 0.931 1_455 S
H152 C137 0.931 . S
H153 C138 0.931 . S
H154 C159 0.931 1_655 S
H155 C134 0.929 . S
H156 C167 0.930 . S
N157 Eu128 2.600 . S
N157 C158 1.365 . S
N157 C161 1.319 . S
C158 N157 1.365 . S
C158 C160 1.405 . S
C158 C166 1.448 . S
C159 H154 0.931 1_455 S
C159 C161 1.397 . S
C159 C162 1.367 . S
C160 C158 1.405 . S
C160 C162 1.403 . S
C160 C193 1.439 . S
C161 H146 0.930 1_455 S
C161 N157 1.319 . S
C161 C159 1.397 . S
C162 C159 1.367 . S
C162 C160 1.403 . S
C162 H169 0.929 . S
N163 Eu128 2.562 . S
N163 C164 1.325 . S
N163 C166 1.351 . S
C164 H150 0.929 . S
C164 N163 1.325 . S
C164 C168 1.416 . S
C165 C166 1.430 . S
C165 C167 1.404 . S
C165 C194 1.387 . S
C166 C158 1.448 . S
C166 N163 1.351 . S
C166 C165 1.430 . S
C167 H156 0.930 . S
C167 C165 1.404 . S
C167 C168 1.366 . S
C168 H147 0.930 . S
C168 C164 1.416 . S
C168 C167 1.366 . S
H169 C162 0.929 . S
H170 C193 0.931 . S
H171 C194 0.931 . S
O172 Eu128 2.462 . S
O172 C192 1.252 . S
O173 Eu128 2.373 . S
O173 C184 1.249 . S
O174 Eu139 2.335 1_455 S
O174 C184 1.264 1_545 S
O175 Eu128 2.432 . S
O175 C192 1.268 . S
O176 Eu128 2.291 1_545 S
O176 C191 1.255 . S
O177 Eu139 2.372 1_455 S
O177 C191 1.257 . S
O178 Eu139 2.462 . S
O178 C203 1.252 . S
O179 Eu139 2.373 . S
O179 C195 1.249 . S
O180 Eu128 2.325 1_645 S
O180 C195 1.280 . S
O181 Eu139 2.432 . S
O181 C203 1.268 . S
O182 Eu139 2.291 1_565 S
O182 C202 1.255 . S
O183 Eu128 2.372 1_655 S
O183 C202 1.257 . S
C184 O173 1.249 . S
C184 O174 1.264 1_565 S
C185 C188 1.382 . S
C185 C190 1.390 . S
C185 C192 1.506 . S
C186 C187 1.398 . S
C186 C190 1.392 . S
C187 C186 1.398 . S
C187 C189 1.372 . S
C187 H204 0.931 . S
C188 C185 1.382 . S
C188 C189 1.390 . S
C188 H205 0.931 . S
C189 C187 1.372 . S
C189 C188 1.390 . S
C189 H206 0.929 . S
C190 C185 1.390 . S
C190 C186 1.392 . S
C190 H207 0.930 . S
C191 O176 1.255 . S
C191 O177 1.257 . S
C192 Eu128 2.787 . S
C192 O172 1.252 . S
C192 O175 1.268 . S
C192 C185 1.506 . S
C193 C160 1.439 . S
C193 H170 0.931 . S
C193 C194 1.374 . S
C194 C165 1.387 . S
C194 H171 0.931 . S
C194 C193 1.374 . S
C195 O179 1.249 . S
C195 O180 1.280 . S
C196 C199 1.382 . S
C196 C200 1.390 . S
C196 C203 1.506 . S
C197 C198 1.398 . S
C197 C200 1.392 . S
C198 C197 1.398 . S
C198 C201 1.372 . S
C198 H208 0.931 . S
C199 C196 1.382 . S
C199 C201 1.390 . S
C199 H209 0.931 . S
C200 C196 1.390 . S
C200 C197 1.392 . S
C200 H210 0.930 . S
C201 C198 1.372 . S
C201 C199 1.390 . S
C201 H211 0.929 . S
C202 O182 1.255 . S
C202 O183 1.257 . S
C203 Eu139 2.787 . S
C203 O178 1.252 . S
C203 O181 1.268 . S
C203 C196 1.506 . S
H204 C187 0.931 . S
H205 C188 0.931 . S
H206 C189 0.929 . S
H207 C190 0.930 . S
H208 C198 0.931 . S
H209 C199 0.931 . S
H210 C200 0.930 . S
H211 C201 0.929 . S
Eu212 N241 2.602 . S
Eu212 N247 2.562 1_556 S
Eu212 O256 2.462 . S
Eu212 O257 2.373 1_556 S
Eu212 O259 2.432 . S
Eu212 O260 2.291 1_556 S
Eu212 O264 2.335 . S
Eu212 O267 2.372 1_556 S
Eu212 C276 2.787 . S
C213 N214 1.365 . S
C213 C216 1.405 . S
C213 C220 1.448 . S
N214 C213 1.365 . S
N214 C217 1.319 . S
N214 Eu223 2.600 . S
C215 C217 1.397 . S
C215 C218 1.367 . S
C215 H235 0.931 . S
C216 C213 1.405 . S
C216 C218 1.403 . S
C216 C222 1.439 . S
C217 N214 1.319 . S
C217 C215 1.397 . S
C217 H228 0.930 . S
C218 C215 1.367 . S
C218 C216 1.403 . S
C218 H239 0.929 . S
C219 C220 1.430 . S
C219 C221 1.387 . S
C219 C225 1.404 . S
C220 C213 1.448 . S
C220 C219 1.430 . S
C220 N224 1.351 . S
C221 C219 1.387 . S
C221 C222 1.374 . S
C221 H236 0.931 . S
C222 C216 1.439 . S
C222 C221 1.374 . S
C222 H237 0.931 . S
Eu223 N214 2.600 . S
Eu223 N224 2.562 . S
Eu223 O258 2.335 . S
Eu223 O261 2.372 . S
Eu223 O262 2.462 . S
Eu223 O263 2.373 . S
Eu223 O265 2.432 . S
Eu223 O266 2.291 . S
Eu223 C287 2.787 . S
N224 C220 1.351 . S
N224 Eu223 2.562 . S
N224 C226 1.325 . S
C225 C219 1.404 . S
C225 C227 1.366 . S
C225 H233 0.930 . S
C226 N224 1.325 . S
C226 C227 1.416 . S
C226 H232 0.929 . S
C227 C225 1.366 . S
C227 C226 1.416 . S
C227 H229 0.930 . S
H228 C217 0.930 . S
H229 C227 0.930 . S
H230 C245 0.930 . S
H231 C252 0.930 . S
H232 C226 0.929 . S
H233 C225 0.930 . S
H234 C248 0.929 . S
H235 C215 0.931 . S
H236 C221 0.931 . S
H237 C222 0.931 . S
H238 C243 0.931 . S
H239 C218 0.929 . S
H240 C251 0.930 . S
N241 Eu212 2.602 . S
N241 C242 1.363 1_556 S
N241 C245 1.318 . S
C242 N241 1.363 1_554 S
C242 C244 1.405 . S
C242 C250 1.448 . S
C243 H238 0.931 . S
C243 C245 1.397 . S
C243 C246 1.367 1_556 S
C244 C242 1.405 . S
C244 C246 1.403 . S
C244 C277 1.439 . S
C245 H230 0.930 . S
C245 N241 1.318 . S
C245 C243 1.397 . S
C246 C243 1.367 1_554 S
C246 C244 1.403 . S
C246 H253 0.929 . S
N247 Eu212 2.562 1_554 S
N247 C248 1.325 . S
N247 C250 1.351 . S
C248 H234 0.929 . S
C248 N247 1.325 . S
C248 C252 1.416 . S
C249 C250 1.430 . S
C249 C251 1.404 . S
C249 C278 1.387 . S
C250 C242 1.448 . S
C250 N247 1.351 . S
C250 C249 1.430 . S
C251 H240 0.930 . S
C251 C249 1.404 . S
C251 C252 1.366 . S
C252 H231 0.930 . S
C252 C248 1.416 . S
C252 C251 1.366 . S
H253 C246 0.929 . S
H254 C277 0.931 . S
H255 C278 0.931 . S
O256 Eu212 2.462 . S
O256 C276 1.252 . S
O257 Eu212 2.373 1_554 S
O257 C268 1.249 . S
O258 Eu223 2.335 . S
O258 C268 1.264 . S
O259 Eu212 2.432 . S
O259 C276 1.268 . S
O260 Eu212 2.291 1_554 S
O260 C275 1.255 . S
O261 Eu223 2.372 . S
O261 C275 1.257 . S
O262 Eu223 2.462 . S
O262 C287 1.252 . S
O263 Eu223 2.373 . S
O263 C279 1.249 1_554 S
O264 Eu212 2.335 . S
O264 C279 1.264 . S
O265 Eu223 2.432 . S
O265 C287 1.268 . S
O266 Eu223 2.291 . S
O266 C286 1.255 . S
O267 Eu212 2.372 1_554 S
O267 C286 1.257 . S
C268 O257 1.249 . S
C268 O258 1.264 . S
C269 C272 1.382 . S
C269 C274 1.390 . S
C269 C276 1.506 . S
C270 C271 1.398 . S
C270 C274 1.392 . S
C271 C270 1.398 . S
C271 C273 1.372 . S
C271 H288 0.931 . S
C272 C269 1.382 . S
C272 C273 1.390 . S
C272 H289 0.931 . S
C273 C271 1.372 . S
C273 C272 1.390 . S
C273 H290 0.929 . S
C274 C269 1.390 . S
C274 C270 1.392 . S
C274 H291 0.930 . S
C275 O260 1.255 . S
C275 O261 1.257 . S
C276 Eu212 2.787 . S
C276 O256 1.252 . S
C276 O259 1.268 . S
C276 C269 1.506 . S
C277 C244 1.439 . S
C277 H254 0.931 . S
C277 C278 1.374 . S
C278 C249 1.387 . S
C278 H255 0.931 . S
C278 C277 1.374 . S
C279 O263 1.249 1_556 S
C279 O264 1.264 . S
C280 C283 1.382 . S
C280 C284 1.390 . S
C280 C287 1.506 . S
C281 C282 1.398 . S
C281 C284 1.392 . S
C282 C281 1.398 . S
C282 C285 1.372 . S
C282 H292 0.931 . S
C283 C280 1.382 . S
C283 C285 1.390 . S
C283 H293 0.931 . S
C284 C280 1.390 . S
C284 C281 1.392 . S
C284 H294 0.930 . S
C285 C282 1.372 . S
C285 C283 1.390 . S
C285 H295 0.929 . S
C286 O266 1.255 . S
C286 O267 1.257 . S
C287 Eu223 2.787 . S
C287 O262 1.252 . S
C287 O265 1.268 . S
C287 C280 1.506 . S
H288 C271 0.931 . S
H289 C272 0.931 . S
H290 C273 0.929 . S
H291 C274 0.930 . S
H292 C282 0.931 . S
H293 C283 0.931 . S
H294 C284 0.930 . S
H295 C285 0.929 . S
H296 C302 0.930 . S
H297 C305 0.930 . S
H298 C306 0.930 . S
H299 C307 0.930 . S
H300 C310 0.930 . S
H301 C311 0.930 . S
C302 H296 0.930 . S
C302 C303 1.355 . S
C302 C304 1.415 . S
C303 C302 1.355 . S
C303 C305 1.419 . S
C304 C302 1.415 . S
C304 C309 1.425 . S
C304 C311 1.409 . S
C305 H297 0.930 . S
C305 C303 1.419 . S
C305 C306 1.362 . S
C306 H298 0.930 . S
C306 C305 1.362 . S
C306 C309 1.409 . S
C307 H299 0.930 . S
C307 C308 1.355 . S
C307 C309 1.415 . S
C308 C307 1.355 . S
C308 C310 1.419 . S
C309 C304 1.425 . S
C309 C306 1.409 . S
C309 C307 1.415 . S
C310 H300 0.930 . S
C310 C308 1.419 . S
C310 C311 1.362 . S
C311 H301 0.930 . S
C311 C304 1.409 . S
C311 C310 1.362 . S
H312 C318 0.930 . S
H313 C321 0.930 . S
H314 C322 0.930 . S
H315 C323 0.930 . S
H316 C326 0.930 . S
H317 C327 0.930 . S
C318 H312 0.930 . S
C318 C319 1.355 . S
C318 C320 1.415 . S
C319 C318 1.355 . S
C319 C321 1.419 . S
C320 C318 1.415 . S
C320 C325 1.425 . S
C320 C327 1.409 . S
C321 H313 0.930 . S
C321 C319 1.419 . S
C321 C322 1.362 . S
C322 H314 0.930 . S
C322 C321 1.362 . S
C322 C325 1.409 . S
C323 H315 0.930 . S
C323 C324 1.355 . S
C323 C325 1.415 . S
C324 C323 1.355 . S
C324 C326 1.419 . S
C325 C320 1.425 . S
C325 C322 1.409 . S
C325 C323 1.415 . S
C326 H316 0.930 . S
C326 C324 1.419 . S
C326 C327 1.362 . S
C327 H317 0.930 . S
C327 C320 1.409 . S
C327 C326 1.362 . S
H328 C334 0.930 . S
H329 C337 0.930 . S
H330 C338 0.930 . S
H331 C339 0.930 . S
H332 C342 0.930 . S
H333 C343 0.930 . S
C334 H328 0.930 . S
C334 C335 1.355 . S
C334 C336 1.415 . S
C335 C334 1.355 . S
C335 C337 1.419 . S
C336 C334 1.415 . S
C336 C341 1.425 . S
C336 C343 1.409 . S
C337 H329 0.930 . S
C337 C335 1.419 . S
C337 C338 1.362 . S
C338 H330 0.930 . S
C338 C337 1.362 . S
C338 C341 1.409 . S
C339 H331 0.930 . S
C339 C340 1.355 . S
C339 C341 1.415 . S
C340 C339 1.355 . S
C340 C342 1.419 . S
C341 C336 1.425 . S
C341 C338 1.409 . S
C341 C339 1.415 . S
C342 H332 0.930 . S
C342 C340 1.419 . S
C342 C343 1.362 . S
C343 H333 0.930 . S
C343 C336 1.409 . S
C343 C342 1.362 . S
H344 C350 0.930 . S
H345 C353 0.930 . S
H346 C354 0.930 1_556 S
H347 C355 0.930 . S
H348 C358 0.930 . S
H349 C359 0.930 . S
C350 H344 0.930 . S
C350 C351 1.355 . S
C350 C352 1.415 . S
C351 C350 1.355 . S
C351 C353 1.419 . S
C352 C350 1.415 . S
C352 C357 1.425 . S
C352 C359 1.409 . S
C353 H345 0.930 . S
C353 C351 1.419 . S
C353 C354 1.362 . S
C354 H346 0.930 1_554 S
C354 C353 1.362 . S
C354 C357 1.409 . S
C355 H347 0.930 . S
C355 C356 1.355 . S
C355 C357 1.415 . S
C356 C355 1.355 . S
C356 C358 1.419 . S
C357 C352 1.425 . S
C357 C354 1.409 . S
C357 C355 1.415 . S
C358 H348 0.930 . S
C358 C356 1.419 . S
C358 C359 1.362 . S
C359 H349 0.930 . S
C359 C352 1.409 . S
C359 C358 1.362 . S
H360 C366 0.930 . S
H361 C369 0.930 . S
H362 C370 0.930 . S
H363 C371 0.930 . S
H364 C374 0.930 . S
H365 C375 0.930 . S
C366 H360 0.930 . S
C366 C367 1.355 . S
C366 C368 1.415 . S
C367 C366 1.355 . S
C367 C369 1.419 . S
C368 C366 1.415 . S
C368 C373 1.425 . S
C368 C375 1.409 . S
C369 H361 0.930 . S
C369 C367 1.419 . S
C369 C370 1.362 . S
C370 H362 0.930 . S
C370 C369 1.362 . S
C370 C373 1.409 . S
C371 H363 0.930 . S
C371 C372 1.355 . S
C371 C373 1.415 . S
C372 C371 1.355 . S
C372 C374 1.419 . S
C373 C368 1.425 . S
C373 C370 1.409 . S
C373 C371 1.415 . S
C374 H364 0.930 . S
C374 C372 1.419 . S
C374 C375 1.362 . S
C375 H365 0.930 . S
C375 C368 1.409 . S
C375 C374 1.362 . S
H376 C382 0.930 . S
H377 C385 0.930 . S
H378 C386 0.930 . S
H379 C387 0.930 . S
H380 C390 0.930 . S
H381 C391 0.930 . S
C382 H376 0.930 . S
C382 C383 1.355 . S
C382 C384 1.415 . S
C383 C382 1.355 . S
C383 C385 1.419 . S
C384 C382 1.415 . S
C384 C389 1.425 . S
C384 C391 1.409 . S
C385 H377 0.930 . S
C385 C383 1.419 . S
C385 C386 1.362 . S
C386 H378 0.930 . S
C386 C385 1.362 . S
C386 C389 1.409 . S
C387 H379 0.930 . S
C387 C388 1.355 . S
C387 C389 1.415 . S
C388 C387 1.355 . S
C388 C390 1.419 . S
C389 C384 1.425 . S
C389 C386 1.409 . S
C389 C387 1.415 . S
C390 H380 0.930 . S
C390 C388 1.419 . S
C390 C391 1.362 . S
C391 H381 0.930 . S
C391 C384 1.409 . S
C391 C390 1.362 . S
H392 C398 0.930 . S
H393 C401 0.930 . S
H394 C402 0.930 . S
H395 C403 0.930 . S
H396 C406 0.930 . S
H397 C407 0.930 . S
C398 H392 0.930 . S
C398 C399 1.355 . S
C398 C400 1.415 . S
C399 C398 1.355 . S
C399 C401 1.419 . S
C400 C398 1.415 . S
C400 C405 1.425 . S
C400 C407 1.409 . S
C401 H393 0.930 . S
C401 C399 1.419 . S
C401 C402 1.362 . S
C402 H394 0.930 . S
C402 C401 1.362 . S
C402 C405 1.409 . S
C403 H395 0.930 . S
C403 C404 1.355 . S
C403 C405 1.415 . S
C404 C403 1.355 . S
C404 C406 1.419 . S
C405 C400 1.425 . S
C405 C402 1.409 . S
C405 C403 1.415 . S
C406 H396 0.930 . S
C406 C404 1.419 . S
C406 C407 1.362 . S
C407 H397 0.930 . S
C407 C400 1.409 . S
C407 C406 1.362 . S
H408 C414 0.930 . S
H409 C417 0.930 . S
H410 C418 0.930 . S
H411 C419 0.930 . S
H412 C422 0.930 . S
H413 C423 0.930 . S
C414 H408 0.930 . S
C414 C415 1.355 . S
C414 C416 1.415 . S
C415 C414 1.355 . S
C415 C417 1.419 . S
C416 C414 1.415 . S
C416 C421 1.425 . S
C416 C423 1.409 . S
C417 H409 0.930 . S
C417 C415 1.419 . S
C417 C418 1.362 . S
C418 H410 0.930 . S
C418 C417 1.362 . S
C418 C421 1.409 . S
C419 H411 0.930 . S
C419 C420 1.355 . S
C419 C421 1.415 . S
C420 C419 1.355 . S
C420 C422 1.419 . S
C421 C416 1.425 . S
C421 C418 1.409 . S
C421 C419 1.415 . S
C422 H412 0.930 . S
C422 C420 1.419 . S
C422 C423 1.362 . S
C423 H413 0.930 . S
C423 C416 1.409 . S
C423 C422 1.362 . S
H424 C430 0.930 . S
H425 C433 0.930 . S
H426 C434 0.930 . S
H427 C435 0.930 . S
H428 C438 0.930 . S
H429 C439 0.930 . S
C430 H424 0.930 . S
C430 C431 1.355 . S
C430 C432 1.415 . S
C431 C430 1.355 . S
C431 C433 1.419 . S
C432 C430 1.415 . S
C432 C437 1.425 . S
C432 C439 1.409 . S
C433 H425 0.930 . S
C433 C431 1.419 . S
C433 C434 1.362 . S
C434 H426 0.930 . S
C434 C433 1.362 . S
C434 C437 1.409 . S
C435 H427 0.930 . S
C435 C436 1.355 . S
C435 C437 1.415 . S
C436 C435 1.355 . S
C436 C438 1.419 . S
C437 C432 1.425 . S
C437 C434 1.409 . S
C437 C435 1.415 . S
C438 H428 0.930 . S
C438 C436 1.419 . S
C438 C439 1.362 . S
C439 H429 0.930 . S
C439 C432 1.409 . S
C439 C438 1.362 . S
H440 C446 0.930 . S
H441 C449 0.930 . S
H442 C450 0.930 . S
H443 C451 0.930 . S
H444 C454 0.938 . S
H445 C455 0.930 . S
C446 H440 0.930 . S
C446 C447 1.355 . S
C446 C448 1.415 . S
C447 C446 1.355 . S
C447 C449 1.419 . S
C448 C446 1.415 . S
C448 C453 1.425 . S
C448 C455 1.409 . S
C449 H441 0.930 . S
C449 C447 1.419 . S
C449 C450 1.362 . S
C450 H442 0.930 . S
C450 C449 1.362 . S
C450 C453 1.409 . S
C451 H443 0.930 . S
C451 C452 1.355 . S
C451 C453 1.415 . S
C452 C451 1.355 . S
C452 C454 1.419 . S
C453 C448 1.425 . S
C453 C450 1.409 . S
C453 C451 1.415 . S
C454 H444 0.938 . S
C454 C452 1.419 . S
C454 C455 1.362 . S
C455 H445 0.930 . S
C455 C448 1.409 . S
C455 C454 1.362 . S
H456 C462 0.930 . S
H457 C465 0.930 . S
H458 C466 0.930 . S
H459 C467 0.930 . S
H460 C470 0.930 . S
H461 C471 0.930 . S
C462 H456 0.930 . S
C462 C463 1.355 . S
C462 C464 1.415 . S
C463 C462 1.355 . S
C463 C465 1.419 . S
C464 C462 1.415 . S
C464 C469 1.425 . S
C464 C471 1.409 . S
C465 H457 0.930 . S
C465 C463 1.419 . S
C465 C466 1.362 . S
C466 H458 0.930 . S
C466 C465 1.362 . S
C466 C469 1.409 . S
C467 H459 0.930 . S
C467 C468 1.355 . S
C467 C469 1.415 . S
C468 C467 1.355 . S
C468 C470 1.419 . S
C469 C464 1.425 . S
C469 C466 1.409 . S
C469 C467 1.415 . S
C470 H460 0.930 . S
C470 C468 1.419 . S
C470 C471 1.362 . S
C471 H461 0.930 . S
C471 C464 1.409 . S
C471 C470 1.362 . S
H472 C478 0.930 . S
H473 C481 0.930 . S
H474 C482 0.930 . S
H475 C483 0.930 . S
H476 C486 0.930 . S
H477 C487 0.930 . S
C478 H472 0.930 . S
C478 C479 1.355 . S
C478 C480 1.415 . S
C479 C478 1.355 . S
C479 C481 1.419 . S
C480 C478 1.415 . S
C480 C485 1.425 . S
C480 C487 1.409 . S
C481 H473 0.930 . S
C481 C479 1.419 . S
C481 C482 1.362 . S
C482 H474 0.930 . S
C482 C481 1.362 . S
C482 C485 1.409 . S
C483 H475 0.930 . S
C483 C484 1.355 . S
C483 C485 1.415 . S
C484 C483 1.355 . S
C484 C486 1.419 . S
C485 C480 1.425 . S
C485 C482 1.409 . S
C485 C483 1.415 . S
C486 H476 0.930 . S
C486 C484 1.419 . S
C486 C487 1.362 . S
C487 H477 0.930 . S
C487 C480 1.409 . S
C487 C486 1.362 . S
C308 C191 1.634 . S
C303 C119 1.619 . S
C319 C23 1.620 . S
C324 C286 1.590 . S
C335 C55 1.599 . S
C340 C202 1.622 . S
C351 C87 1.497 . S
C356 C275 1.580 . S
C372 C186 1.445 . S
C367 C17 1.547 . S
C388 C279 1.605 . S
C383 C61 1.546 . S
C399 C93 1.517 . S
C404 C195 1.605 . S
C415 C113 1.527 . S
C420 C270 1.448 . S
C436 C281 1.360 . S
C431 C49 1.495 . S
C452 C197 1.434 . S
C447 C81 1.468 . S
C468 C268 1.599 . S
C463 C125 1.580 . S
C479 C29 1.592 . S
C484 C184 1.601 . S
