# Generated by pormake.
# Topology pyr, (3,6)-cn, num edge types: 1
# Building blocks:
#     Node 0, Type 0, BuildingBlock: KAKCAD_clean_linker_0, # of connection points: 3
#     Node 1, Type 0, BuildingBlock: KAKCAD_clean_linker_0, # of connection points: 3
#     Node 2, Type 0, BuildingBlock: KAKCAD_clean_linker_0, # of connection points: 3
#     Node 3, Type 0, BuildingBlock: KAKCAD_clean_linker_0, # of connection points: 3
#     Node 4, Type 0, BuildingBlock: KAKCAD_clean_linker_0, # of connection points: 3
#     Node 5, Type 0, BuildingBlock: KAKCAD_clean_linker_0, # of connection points: 3
#     Node 6, Type 0, BuildingBlock: KAKCAD_clean_linker_0, # of connection points: 3
#     Node 7, Type 0, BuildingBlock: KAKCAD_clean_linker_0, # of connection points: 3
#     Node 8, Type 1, BuildingBlock: PAMTOO_clean_sbu_0, # of connection points: 6
#     Node 9, Type 1, BuildingBlock: PAMTOO_clean_sbu_0, # of connection points: 6
#     Node 10, Type 1, BuildingBlock: PAMTOO_clean_sbu_0, # of connection points: 6
#     Node 11, Type 1, BuildingBlock: PAMTOO_clean_sbu_0, # of connection points: 6
#     Edge 12, Type (0, 1), BuildingBlock: MIFKUJ_clean_linker_0, # of connection points: 2
#     Edge 13, Type (0, 1), BuildingBlock: MIFKUJ_clean_linker_0, # of connection points: 2
#     Edge 14, Type (0, 1), BuildingBlock: MIFKUJ_clean_linker_0, # of connection points: 2
#     Edge 15, Type (0, 1), BuildingBlock: MIFKUJ_clean_linker_0, # of connection points: 2
#     Edge 16, Type (0, 1), BuildingBlock: MIFKUJ_clean_linker_0, # of connection points: 2
#     Edge 17, Type (0, 1), BuildingBlock: MIFKUJ_clean_linker_0, # of connection points: 2
#     Edge 18, Type (0, 1), BuildingBlock: MIFKUJ_clean_linker_0, # of connection points: 2
#     Edge 19, Type (0, 1), BuildingBlock: MIFKUJ_clean_linker_0, # of connection points: 2
#     Edge 20, Type (0, 1), BuildingBlock: MIFKUJ_clean_linker_0, # of connection points: 2
#     Edge 21, Type (0, 1), BuildingBlock: MIFKUJ_clean_linker_0, # of connection points: 2
#     Edge 22, Type (0, 1), BuildingBlock: MIFKUJ_clean_linker_0, # of connection points: 2
#     Edge 23, Type (0, 1), BuildingBlock: MIFKUJ_clean_linker_0, # of connection points: 2
#     Edge 24, Type (0, 1), BuildingBlock: MIFKUJ_clean_linker_0, # of connection points: 2
#     Edge 25, Type (0, 1), BuildingBlock: MIFKUJ_clean_linker_0, # of connection points: 2
#     Edge 26, Type (0, 1), BuildingBlock: MIFKUJ_clean_linker_0, # of connection points: 2
#     Edge 27, Type (0, 1), BuildingBlock: MIFKUJ_clean_linker_0, # of connection points: 2
#     Edge 28, Type (0, 1), BuildingBlock: MIFKUJ_clean_linker_0, # of connection points: 2
#     Edge 29, Type (0, 1), BuildingBlock: MIFKUJ_clean_linker_0, # of connection points: 2
#     Edge 30, Type (0, 1), BuildingBlock: MIFKUJ_clean_linker_0, # of connection points: 2
#     Edge 31, Type (0, 1), BuildingBlock: MIFKUJ_clean_linker_0, # of connection points: 2
#     Edge 32, Type (0, 1), BuildingBlock: MIFKUJ_clean_linker_0, # of connection points: 2
#     Edge 33, Type (0, 1), BuildingBlock: MIFKUJ_clean_linker_0, # of connection points: 2
#     Edge 34, Type (0, 1), BuildingBlock: MIFKUJ_clean_linker_0, # of connection points: 2
#     Edge 35, Type (0, 1), BuildingBlock: MIFKUJ_clean_linker_0, # of connection points: 2
# Relax obj value: 0.070
# Max RMSD: 0.145
# Mean RMSD: 0.064
data_MOF--net-pyr--node1-PAMTOO_clean_sbu_0--node2-KAKCAD_clean_linker_0--edge1-MIFKUJ_clean_linker_0
_symmetry_space_group_name_H-M    P1
_symmetry_Int_Tables_number       1
_symmetry_cell_setting            triclinic
loop_
_symmetry_equiv_pos_as_xyz
'x, y, z'
_cell_length_a     56.349906
_cell_length_b     58.879933
_cell_length_c     59.054203
_cell_angle_alpha  90.138924
_cell_angle_beta   90.072436
_cell_angle_gamma 101.32112
loop_
_atom_site_label
_atom_site_type_symbol
_atom_site_fract_x
_atom_site_fract_y
_atom_site_fract_z
_atom_type_partial_charge
C0 C 0.25504 0.22387 0.27339 0.0
C1 C 0.2704 0.21987 0.29107 0.0
C2 C 0.26456 0.23398 0.25323 0.0
C3 C 0.28971 0.24039 0.25016 0.0
C4 C 0.30517 0.23623 0.2677 0.0
C5 C 0.29561 0.22609 0.288 0.0
C6 C 0.29944 0.25101 0.22846 0.0
C7 C 0.28825 0.26748 0.21797 0.0
C8 C 0.29499 0.2756 0.19617 0.0
C9 C 0.31394 0.26788 0.18509 0.0
C10 C 0.32544 0.25131 0.1953 0.0
C11 C 0.31822 0.24319 0.21714 0.0
C12 C 0.34281 0.24038 0.18225 0.0
C13 C 0.33816 0.23423 0.15941 0.0
C14 C 0.36299 0.23426 0.1929 0.0
C15 C 0.3775 0.22139 0.18128 0.0
C16 C 0.37215 0.21437 0.15877 0.0
C17 C 0.28014 0.28991 0.18419 0.0
C18 C 0.2549 0.28267 0.18381 0.0
C19 C 0.29068 0.31053 0.17316 0.0
C20 C 0.27604 0.32404 0.16253 0.0
C21 C 0.25067 0.31697 0.1626 0.0
C22 C 0.24037 0.29593 0.17307 0.0
C23 C 0.35269 0.22145 0.14781 0.0
H24 H 0.23557 0.21874 0.27494 0.0
H25 H 0.25215 0.2364 0.23983 0.0
H26 H 0.32463 0.24106 0.26583 0.0
H27 H 0.30792 0.22333 0.30135 0.0
H28 H 0.27366 0.27357 0.22654 0.0
H29 H 0.32607 0.22961 0.22472 0.0
H30 H 0.31891 0.27394 0.16811 0.0
H31 H 0.32263 0.23839 0.15072 0.0
H32 H 0.36721 0.23894 0.2104 0.0
H33 H 0.39228 0.2161 0.19026 0.0
H34 H 0.24635 0.26654 0.19173 0.0
H35 H 0.31014 0.31641 0.17319 0.0
H36 H 0.3483 0.21661 0.13037 0.0
H37 H 0.22099 0.28955 0.17286 0.0
H38 H 0.28454 0.34018 0.15466 0.0
C39 C 0.21734 0.79881 0.78379 0.0
C40 C 0.24257 0.80358 0.78697 0.0
C41 C 0.20725 0.78845 0.76371 0.0
C42 C 0.2222 0.78277 0.7464 0.0
C43 C 0.24741 0.7874 0.74976 0.0
C44 C 0.25744 0.79759 0.7698 0.0
C45 C 0.21191 0.77305 0.72442 0.0
C46 C 0.19348 0.78199 0.7137 0.0
C47 C 0.18558 0.77476 0.69173 0.0
C48 C 0.19647 0.75828 0.68054 0.0
C49 C 0.21525 0.74955 0.69089 0.0
C50 C 0.22223 0.75645 0.71306 0.0
C51 C 0.22961 0.73543 0.67782 0.0
C52 C 0.21848 0.71712 0.66373 0.0
C53 C 0.255 0.74088 0.679 0.0
C54 C 0.26897 0.72832 0.66652 0.0
C55 C 0.25797 0.71004 0.65241 0.0
C56 C 0.16794 0.78636 0.67976 0.0
C57 C 0.14886 0.79322 0.69161 0.0
C58 C 0.17115 0.79226 0.65675 0.0
C59 C 0.15631 0.80543 0.64613 0.0
C60 C 0.13811 0.81339 0.65831 0.0
C61 C 0.13421 0.80667 0.68106 0.0
C62 C 0.23255 0.70442 0.65122 0.0
H63 H 0.20543 0.80312 0.79681 0.0
H64 H 0.18776 0.78494 0.76172 0.0
H65 H 0.25954 0.78382 0.7366 0.0
H66 H 0.27696 0.8015 0.77151 0.0
H67 H 0.18636 0.79569 0.72193 0.0
H68 H 0.23638 0.74934 0.72124 0.0
H69 H 0.19109 0.753 0.66341 0.0
H70 H 0.19894 0.71254 0.66251 0.0
H71 H 0.26417 0.75513 0.68939 0.0
H72 H 0.28849 0.73286 0.66809 0.0
H73 H 0.14559 0.78867 0.70924 0.0
H74 H 0.18577 0.78756 0.64706 0.0
H75 H 0.22359 0.69045 0.64042 0.0
H76 H 0.12047 0.81255 0.69105 0.0
H77 H 0.15953 0.80984 0.62846 0.0
C78 C 0.72232 0.41051 0.87384 0.0
C79 C 0.73917 0.3981 0.88277 0.0
C80 C 0.70187 0.39906 0.86181 0.0
C81 C 0.6978 0.37494 0.85836 0.0
C82 C 0.71507 0.36273 0.86676 0.0
C83 C 0.73535 0.3741 0.87882 0.0
C84 C 0.67544 0.36217 0.84671 0.0
C85 C 0.66585 0.37121 0.82744 0.0
C86 C 0.6454 0.35851 0.81604 0.0
C87 C 0.63463 0.33631 0.82425 0.0
C88 C 0.64376 0.32703 0.84374 0.0
C89 C 0.66386 0.34042 0.85488 0.0
C90 C 0.63274 0.30349 0.85287 0.0
C91 C 0.60755 0.29514 0.85288 0.0
C92 C 0.64756 0.28955 0.8628 0.0
C93 C 0.63759 0.26856 0.87328 0.0
C94 C 0.61238 0.26035 0.87382 0.0
C95 C 0.63566 0.36847 0.79542 0.0
C96 C 0.63312 0.39177 0.79505 0.0
C97 C 0.62929 0.35502 0.77581 0.0
C98 C 0.62104 0.3647 0.75627 0.0
C99 C 0.61858 0.38811 0.75581 0.0
C100 C 0.62459 0.40138 0.77566 0.0
C101 C 0.59753 0.27387 0.86314 0.0
H102 H 0.7246 0.42899 0.87664 0.0
H103 H 0.68894 0.40904 0.85574 0.0
H104 H 0.71295 0.34425 0.86399 0.0
H105 H 0.74819 0.36404 0.88492 0.0
H106 H 0.67475 0.38787 0.82086 0.0
H107 H 0.67042 0.334 0.87038 0.0
H108 H 0.61915 0.3263 0.81546 0.0
H109 H 0.59546 0.30531 0.8455 0.0
H110 H 0.66707 0.29495 0.86275 0.0
H111 H 0.64984 0.25911 0.88146 0.0
H112 H 0.6375 0.40259 0.80993 0.0
H113 H 0.63127 0.33709 0.77535 0.0
H114 H 0.57807 0.26812 0.86272 0.0
H115 H 0.6225 0.41924 0.77641 0.0
H116 H 0.61707 0.35387 0.74138 0.0
C117 C 0.86633 0.63733 0.25654 0.0
C118 C 0.89116 0.63769 0.25334 0.0
C119 C 0.85797 0.64665 0.27622 0.0
C120 C 0.87419 0.65681 0.29326 0.0
C121 C 0.89905 0.65735 0.28997 0.0
C122 C 0.90739 0.64784 0.27038 0.0
C123 C 0.86517 0.66659 0.31438 0.0
C124 C 0.84396 0.65479 0.32524 0.0
C125 C 0.8354 0.66366 0.34517 0.0
C126 C 0.84783 0.68495 0.35381 0.0
C127 C 0.8688 0.69717 0.34328 0.0
C128 C 0.87762 0.68772 0.32379 0.0
C129 C 0.88102 0.71995 0.35282 0.0
C130 C 0.86794 0.73777 0.35579 0.0
C131 C 0.90511 0.72355 0.36043 0.0
C132 C 0.91565 0.7443 0.37141 0.0
C133 C 0.90248 0.76207 0.37453 0.0
C134 C 0.81367 0.65078 0.35733 0.0
C135 C 0.7919 0.6423 0.34579 0.0
C136 C 0.81439 0.64765 0.38089 0.0
C137 C 0.79381 0.63662 0.3927 0.0
C138 C 0.7717 0.62867 0.38137 0.0
C139 C 0.77114 0.63154 0.35766 0.0
C140 C 0.87862 0.75867 0.36628 0.0
H141 H 0.85323 0.62952 0.24396 0.0
H142 H 0.83873 0.64609 0.27798 0.0
H143 H 0.91209 0.66483 0.30274 0.0
H144 H 0.92665 0.64867 0.26847 0.0
H145 H 0.8345 0.6383 0.31862 0.0
H146 H 0.89371 0.69723 0.31558 0.0
H147 H 0.84113 0.69211 0.36891 0.0
H148 H 0.84932 0.73543 0.35013 0.0
H149 H 0.91553 0.71004 0.35851 0.0
H150 H 0.9341 0.74646 0.3775 0.0
H151 H 0.79071 0.64461 0.32766 0.0
H152 H 0.83099 0.65369 0.39024 0.0
H153 H 0.86796 0.77194 0.36854 0.0
H154 H 0.75451 0.62601 0.34824 0.0
H155 H 0.79536 0.63427 0.41077 0.0
C156 C 0.73908 0.78011 0.75633 0.0
C157 C 0.74497 0.80404 0.7522 0.0
C158 C 0.72655 0.77166 0.77595 0.0
C159 C 0.71985 0.787 0.79194 0.0
C160 C 0.72537 0.81091 0.78752 0.0
C161 C 0.7377 0.81931 0.76785 0.0
C162 C 0.70853 0.77836 0.81383 0.0
C163 C 0.71681 0.76079 0.82564 0.0
C164 C 0.70797 0.75393 0.84731 0.0
C165 C 0.69075 0.76514 0.85735 0.0
C166 C 0.68225 0.78285 0.84579 0.0
C167 C 0.69086 0.7889 0.82384 0.0
C168 C 0.66557 0.79612 0.85697 0.0
C169 C 0.64656 0.78509 0.87093 0.0
C170 C 0.66884 0.82022 0.85386 0.0
C171 C 0.65335 0.83291 0.86413 0.0
C172 C 0.63435 0.82192 0.87799 0.0
C173 C 0.7184 0.73634 0.85985 0.0
C174 C 0.72349 0.71687 0.84842 0.0
C175 C 0.72545 0.73992 0.88264 0.0
C176 C 0.73858 0.72513 0.89331 0.0
C177 C 0.745 0.70659 0.88134 0.0
C178 C 0.73672 0.70222 0.85902 0.0
C179 C 0.63116 0.79789 0.88142 0.0
H180 H 0.74425 0.76793 0.74442 0.0
H181 H 0.7223 0.75313 0.77869 0.0
H182 H 0.72095 0.82327 0.79964 0.0
H183 H 0.74232 0.83787 0.76532 0.0
H184 H 0.73117 0.75325 0.81843 0.0
H185 H 0.68397 0.80209 0.81457 0.0
H186 H 0.68444 0.76044 0.87434 0.0
H187 H 0.6434 0.76654 0.87354 0.0
H188 H 0.68365 0.82943 0.84374 0.0
H189 H 0.65656 0.85148 0.86156 0.0
H190 H 0.71788 0.71338 0.83099 0.0
H191 H 0.722 0.75486 0.89187 0.0
H192 H 0.61657 0.78898 0.89197 0.0
H193 H 0.7411 0.68782 0.84953 0.0
H194 H 0.74488 0.72897 0.9105 0.0
C195 C 0.76979 0.20721 0.27519 0.0
C196 C 0.76355 0.22111 0.25776 0.0
C197 C 0.78374 0.21717 0.29347 0.0
C198 C 0.79165 0.24129 0.29481 0.0
C199 C 0.78596 0.25521 0.27707 0.0
C200 C 0.77216 0.24516 0.25857 0.0
C201 C 0.80417 0.2517 0.31555 0.0
C202 C 0.82206 0.24163 0.32574 0.0
C203 C 0.83111 0.2487 0.34734 0.0
C204 C 0.82285 0.26689 0.35831 0.0
C205 C 0.80499 0.27732 0.34828 0.0
C206 C 0.79597 0.2697 0.32677 0.0
C207 C 0.7934 0.29397 0.3612 0.0
C208 C 0.78798 0.29034 0.38431 0.0
C209 C 0.78543 0.31219 0.35005 0.0
C210 C 0.77104 0.32541 0.36129 0.0
C211 C 0.76448 0.32092 0.38406 0.0
C212 C 0.84695 0.23524 0.35937 0.0
C213 C 0.84169 0.21091 0.35834 0.0
C214 C 0.86664 0.24628 0.37263 0.0
C215 C 0.88062 0.23319 0.3847 0.0
C216 C 0.87505 0.20885 0.38387 0.0
C217 C 0.85559 0.19791 0.37036 0.0
C218 C 0.77383 0.30374 0.39562 0.0
H219 H 0.76357 0.18859 0.27484 0.0
H220 H 0.78755 0.20601 0.30701 0.0
H221 H 0.79189 0.27385 0.27768 0.0
H222 H 0.76752 0.25623 0.24533 0.0
H223 H 0.82835 0.22766 0.31712 0.0
H224 H 0.78119 0.27654 0.31944 0.0
H225 H 0.82948 0.27216 0.37512 0.0
H226 H 0.79359 0.27637 0.39346 0.0
H227 H 0.7896 0.31571 0.33235 0.0
H228 H 0.76411 0.33839 0.35175 0.0
H229 H 0.82642 0.20181 0.34862 0.0
H230 H 0.87119 0.26499 0.37369 0.0
H231 H 0.76959 0.30012 0.41329 0.0
H232 H 0.85102 0.1792 0.3691 0.0
H233 H 0.89545 0.24211 0.39507 0.0
C234 C 0.2664 0.62985 0.18935 0.0
C235 C 0.26691 0.62303 0.16652 0.0
C236 C 0.28781 0.64014 0.2006 0.0
C237 C 0.31004 0.6443 0.18907 0.0
C238 C 0.31054 0.63735 0.16631 0.0
C239 C 0.28928 0.62662 0.15524 0.0
C240 C 0.33252 0.65705 0.20013 0.0
C241 C 0.34148 0.64886 0.2201 0.0
C242 C 0.36342 0.6605 0.22988 0.0
C243 C 0.37617 0.68084 0.2193 0.0
C244 C 0.3672 0.6896 0.19941 0.0
C245 C 0.34527 0.67742 0.19018 0.0
C246 C 0.38017 0.71146 0.18813 0.0
C247 C 0.39298 0.73029 0.20074 0.0
C248 C 0.37886 0.7141 0.16447 0.0
C249 C 0.38884 0.73506 0.15394 0.0
C250 C 0.40125 0.75412 0.1665 0.0
C251 C 0.37308 0.65104 0.25086 0.0
C252 C 0.35739 0.64155 0.26846 0.0
C253 C 0.3979 0.65083 0.25329 0.0
C254 C 0.40669 0.64114 0.27254 0.0
C255 C 0.39095 0.63141 0.29005 0.0
C256 C 0.36617 0.63194 0.28773 0.0
C257 C 0.40349 0.75119 0.19009 0.0
H258 H 0.24942 0.62722 0.19848 0.0
H259 H 0.28691 0.64546 0.2181 0.0
H260 H 0.32744 0.64038 0.15703 0.0
H261 H 0.29023 0.62171 0.13762 0.0
H262 H 0.33171 0.63296 0.22756 0.0
H263 H 0.33757 0.68398 0.17532 0.0
H264 H 0.39306 0.68983 0.2266 0.0
H265 H 0.39441 0.72919 0.21897 0.0
H266 H 0.36984 0.69998 0.15388 0.0
H267 H 0.38619 0.73631 0.13587 0.0
H268 H 0.33824 0.64172 0.26746 0.0
H269 H 0.41053 0.65764 0.24002 0.0
H270 H 0.4133 0.76506 0.20052 0.0
H271 H 0.35347 0.62512 0.30094 0.0
H272 H 0.42581 0.64082 0.27342 0.0
C273 C 0.14173 0.27287 0.67711 0.0
C274 C 0.11713 0.2673 0.6709 0.0
C275 C 0.15137 0.2939 0.68784 0.0
C276 C 0.13673 0.31005 0.69287 0.0
C277 C 0.11194 0.30421 0.68754 0.0
C278 C 0.10227 0.28315 0.67662 0.0
C279 C 0.14786 0.33341 0.70218 0.0
C280 C 0.16958 0.34556 0.69274 0.0
C281 C 0.18063 0.36754 0.70077 0.0
C282 C 0.17001 0.3774 0.71891 0.0
C283 C 0.14848 0.36549 0.72908 0.0
C284 C 0.13725 0.34365 0.72024 0.0
C285 C 0.1383 0.37573 0.74929 0.0
C286 C 0.15357 0.38532 0.76722 0.0
C287 C 0.11349 0.37626 0.75084 0.0
C288 C 0.1043 0.38647 0.76962 0.0
C289 C 0.1196 0.39602 0.78755 0.0
C290 C 0.20326 0.38004 0.68988 0.0
C291 C 0.2235 0.36949 0.68808 0.0
C292 C 0.20431 0.40192 0.68002 0.0
C293 C 0.22495 0.41271 0.66803 0.0
C294 C 0.24515 0.40207 0.66612 0.0
C295 C 0.24431 0.3805 0.67657 0.0
C296 C 0.14433 0.39516 0.78612 0.0
H297 H 0.15369 0.26096 0.67365 0.0
H298 H 0.17045 0.29761 0.69206 0.0
H299 H 0.10018 0.31631 0.69102 0.0
H300 H 0.0833 0.27967 0.67203 0.0
H301 H 0.17767 0.33813 0.67858 0.0
H302 H 0.12078 0.33425 0.72793 0.0
H303 H 0.17864 0.39432 0.7252 0.0
H304 H 0.17272 0.38506 0.76672 0.0
H305 H 0.10123 0.36912 0.73733 0.0
H306 H 0.08513 0.38668 0.77021 0.0
H307 H 0.22314 0.35261 0.6955 0.0
H308 H 0.1889 0.41035 0.68102 0.0
H309 H 0.15669 0.40246 0.7995 0.0
H310 H 0.25954 0.37184 0.67527 0.0
H311 H 0.22513 0.42937 0.66022 0.0
Dy312 Dy 0.03337 0.01839 0.50704 0.0
Dy313 Dy 0.98426 1.00943 0.53856 0.0
C314 C 0.02734 0.05353 0.5478 0.0
O315 O 0.03634 0.98853 0.5292 0.0
O316 O 0.01066 0.99359 0.55817 0.0
O317 O 0.07188 0.02091 0.50311 0.0
O318 O 0.04918 0.02263 0.47369 0.0
O319 O 0.98427 0.97591 0.52057 0.0
O320 O 0.00517 0.99172 0.48948 0.0
O321 O 0.97656 0.02808 0.50725 0.0
O322 O 0.01479 0.04735 0.49888 0.0
O323 O 0.94539 0.9995 0.53987 0.0
O324 O 0.96577 1.0106 0.57047 0.0
C325 C 0.02816 0.98432 0.54987 0.0
O326 O 0.04235 0.04388 0.53567 0.0
O327 O 1.00393 0.04498 0.54824 0.0
C328 C 0.08965 0.04256 0.47185 0.0
C329 C 0.1251 0.07736 0.45234 0.0
C330 C 0.10728 0.08327 0.46667 0.0
C331 C 0.08966 0.06596 0.4764 0.0
C332 C 0.10739 0.03661 0.45772 0.0
C333 C 0.12494 0.05382 0.44803 0.0
C334 C 0.07117 0.02402 0.48128 0.0
C335 C 0.99076 0.97433 0.4994 0.0
C336 C 0.99127 0.04531 0.49749 0.0
C337 C 0.92984 0.98273 0.57426 0.0
C338 C 0.90016 0.9464 0.59787 0.0
C339 C 0.917 0.94163 0.58183 0.0
C340 C 0.93176 0.95968 0.57013 0.0
C341 C 0.91338 0.98758 0.59041 0.0
C342 C 0.8987 0.96961 0.60215 0.0
C343 C 0.94463 1.00193 0.5618 0.0
H344 H 0.10701 0.10124 0.47041 0.0
H345 H 0.07602 0.07079 0.48733 0.0
H346 H 0.10751 0.01861 0.45398 0.0
H347 H 0.13808 0.04867 0.43673 0.0
H348 H 0.91847 0.92395 0.57803 0.0
H349 H 0.9445 0.95566 0.55773 0.0
H350 H 0.91182 1.00531 0.5939 0.0
H351 H 0.88633 0.97393 0.61473 0.0
Dy352 Dy 0.47633 1.00799 1.00957 0.0
Dy353 Dy 0.525 0.01532 0.04135 0.0
C354 C 0.48115 0.97203 0.04851 0.0
O355 O 0.46815 0.02553 0.04143 0.0
O356 O 0.50646 0.04398 0.05085 0.0
O357 O 0.4375 0.99936 1.00665 0.0
O358 O 0.45942 1.01057 0.97703 0.0
O359 O 0.53439 0.03948 1.01176 0.0
O360 O 0.49609 0.04417 1.0029 0.0
O361 O 0.52601 0.98412 1.02036 0.0
O362 O 0.50342 0.99241 0.99032 0.0
O363 O 0.5638 0.02005 0.04511 0.0
O364 O 0.54069 0.01701 0.07476 0.0
C365 C 0.48294 0.04208 0.05217 0.0
O366 O 0.47425 0.97418 0.0275 0.0
O367 O 0.49658 0.98874 0.05849 0.0
C368 C 0.42215 0.98487 0.97113 0.0
C369 C 0.39021 0.95173 0.94552 0.0
C370 C 0.40388 0.94474 0.96323 0.0
C371 C 0.41977 0.9612 0.97595 0.0
C372 C 0.40894 0.99186 0.95326 0.0
C373 C 0.39316 0.97547 0.94053 0.0
C374 C 0.43772 1.00266 0.98481 0.0
C375 C 0.51967 0.05112 1.00172 0.0
C376 C 0.51889 0.98094 0.99925 0.0
C377 C 0.5792 0.04059 0.07826 0.0
C378 C 0.60836 0.07735 0.10189 0.0
C379 C 0.5991 0.0811 0.0804 0.0
C380 C 0.58443 0.06284 0.0687 0.0
C381 C 0.58882 0.03678 0.09945 0.0
C382 C 0.60324 0.05498 0.11119 0.0
C383 C 0.56282 0.02132 0.06716 0.0
H384 H 0.40194 0.92661 0.96758 0.0
H385 H 0.42993 0.95549 0.98968 0.0
H386 H 0.41069 1.01007 0.94925 0.0
H387 H 0.38331 0.98141 0.9267 0.0
H388 H 0.60272 0.09821 0.07292 0.0
H389 H 0.57694 0.06616 0.05241 0.0
H390 H 0.58492 0.01973 0.10708 0.0
H391 H 0.61044 0.05154 0.12758 0.0
Dy392 Dy 0.50502 0.4869 0.50659 0.0
Dy393 Dy 0.51117 0.53584 0.5355 0.0
C394 C 0.53174 0.49258 0.55647 0.0
O395 O 0.47027 0.48106 0.5257 0.0
O396 O 0.47429 0.51593 0.54473 0.0
O397 O 0.5 0.44969 0.50373 0.0
O398 O 0.5068 0.47103 0.47376 0.0
O399 O 0.50022 0.54251 0.49978 0.0
O400 O 0.47961 0.50655 0.48989 0.0
O401 O 0.54864 0.53683 0.523 0.0
O402 O 0.53848 0.51084 0.49389 0.0
O403 O 0.51593 0.57318 0.53473 0.0
O404 O 0.50922 0.55496 0.56647 0.0
C405 C 0.4622 0.49504 0.53982 0.0
O406 O 0.52449 0.47993 0.53838 0.0
O407 O 0.52907 0.51419 0.55851 0.0
C408 C 0.52515 0.43838 0.47528 0.0
C409 C 0.5646 0.41869 0.46149 0.0
C410 C 0.55823 0.41893 0.48447 0.0
C411 C 0.53876 0.42876 0.49133 0.0
C412 C 0.53112 0.43758 0.45225 0.0
C413 C 0.55073 0.42793 0.44543 0.0
C414 C 0.50571 0.45046 0.4823 0.0
C415 C 0.48474 0.52899 0.48657 0.0
C416 C 0.554 0.52739 0.50401 0.0
C417 C 0.48923 0.5855 0.56029 0.0
C418 C 0.44823 0.60412 0.57087 0.0
C419 C 0.44619 0.58477 0.5565 0.0
C420 C 0.46651 0.57558 0.55124 0.0
C421 C 0.49152 0.60502 0.57432 0.0
C422 C 0.47115 0.61435 0.57952 0.0
C423 C 0.50996 0.57448 0.55594 0.0
H424 H 0.56872 0.41208 0.49723 0.0
H425 H 0.53473 0.42921 0.50923 0.0
H426 H 0.52088 0.44483 0.43956 0.0
H427 H 0.55507 0.42772 0.42757 0.0
H428 H 0.42886 0.57673 0.54933 0.0
H429 H 0.46444 0.56049 0.54033 0.0
H430 H 0.50892 0.61277 0.58154 0.0
H431 H 0.47321 0.62916 0.59077 0.0
Dy432 Dy 0.00515 0.54276 1.00589 0.0
Dy433 Dy 1.00398 0.49425 0.0333 0.0
C434 C 0.98172 0.53561 0.05464 0.0
O435 O 0.03641 0.54949 0.0302 0.0
O436 O 0.04273 0.51249 0.03403 0.0
O437 O 0.00755 0.57983 1.00692 0.0
O438 O 0.00457 0.56185 0.97478 0.0
O439 O 0.01724 0.48724 0.99873 0.0
O440 O 0.02901 0.52435 0.9851 0.0
O441 O 0.96589 0.4915 1.0206 0.0
O442 O 0.97322 0.5182 0.99195 0.0
O443 O 0.9975 0.4569 0.03553 0.0
O444 O 0.00862 0.47793 0.06523 0.0
C445 C 0.05002 0.53493 0.03665 0.0
O446 O 0.97822 0.5424 0.03396 0.0
O447 O 0.99534 0.52027 0.05822 0.0
C448 C 0.98314 0.59235 0.97847 0.0
C449 C 0.94242 0.61064 0.96537 0.0
C450 C 0.95021 0.6119 0.98806 0.0
C451 C 0.97032 0.60283 0.99455 0.0
C452 C 0.97581 0.5917 0.95571 0.0
C453 C 0.95561 0.60061 0.94925 0.0
C454 C 1.0033 0.58107 0.98529 0.0
C455 C 0.02818 0.50188 0.98349 0.0
C456 C 0.95915 0.50069 1.00195 0.0
C457 C 0.02436 0.44416 0.06139 0.0
C458 C 0.06337 0.42269 0.07261 0.0
C459 C 0.05938 0.42852 0.05001 0.0
C460 C 0.04015 0.4393 0.04446 0.0
C461 C 0.02801 0.43803 0.08383 0.0
C462 C 0.04736 0.4275 0.08943 0.0
C463 C 0.00529 0.45728 0.05637 0.0
H464 H 0.94076 0.61988 1.00085 0.0
H465 H 0.97556 0.60377 1.01223 0.0
H466 H 0.98537 0.5838 0.94293 0.0
H467 H 0.94999 0.59908 0.93168 0.0
H468 H 0.07113 0.4248 0.03658 0.0
H469 H 0.03788 0.44411 0.02701 0.0
H470 H 0.01622 0.44193 0.09717 0.0
H471 H 0.05009 0.42369 0.10706 0.0
H472 H 0.23093 0.22802 0.31423 0.0
H473 H 0.21069 0.20641 0.34624 0.0
H474 H 0.26604 0.16515 0.34845 0.0
H475 H 0.28585 0.18609 0.31569 0.0
H476 H 0.22291 0.13838 0.34905 0.0
H477 H 0.26081 0.20536 0.39047 0.0
H478 H 0.27267 0.24703 0.39914 0.0
H479 H 0.19794 0.2516 0.4064 0.0
H480 H 0.1856 0.21001 0.39745 0.0
H481 H 0.1733 0.07787 0.44621 0.0
H482 H 0.20196 0.10496 0.42338 0.0
H483 H 0.147 0.14496 0.41034 0.0
H484 H 0.11806 0.11772 0.43288 0.0
H485 H 0.19311 0.1725 0.41778 0.0
H486 H 0.15564 0.10678 0.37255 0.0
H487 H 0.14355 0.06516 0.36368 0.0
H488 H 0.21813 0.05866 0.36351 0.0
H489 H 0.23064 0.10021 0.37273 0.0
C490 C 0.23886 0.21439 0.32156 0.0
C491 C 0.25989 0.20864 0.31227 0.0
C492 C 0.22742 0.20224 0.34007 0.0
C493 C 0.23695 0.18428 0.34991 0.0
C494 C 0.25841 0.179 0.34117 0.0
C495 C 0.26981 0.1911 0.32255 0.0
C496 C 0.22336 0.1698 0.36799 0.0
C497 C 0.21689 0.14583 0.36432 0.0
C498 C 0.21493 0.17956 0.38765 0.0
C499 C 0.22228 0.20457 0.39312 0.0
C500 C 0.24689 0.21527 0.39375 0.0
C501 C 0.2537 0.23888 0.39874 0.0
C502 C 0.23607 0.25196 0.40327 0.0
C503 C 0.21158 0.24145 0.40287 0.0
C504 C 0.20467 0.21785 0.39787 0.0
C505 C 0.16733 0.09249 0.43857 0.0
C506 C 0.1433 0.09546 0.44108 0.0
C507 C 0.18376 0.108 0.42564 0.0
C508 C 0.17647 0.12675 0.41496 0.0
C509 C 0.15295 0.13057 0.41848 0.0
C510 C 0.13646 0.11502 0.4314 0.0
C511 C 0.19275 0.14126 0.39869 0.0
C512 C 0.19954 0.16514 0.40266 0.0
C513 C 0.20153 0.13147 0.37927 0.0
C514 C 0.19405 0.10653 0.37359 0.0
C515 C 0.16944 0.09643 0.37081 0.0
C516 C 0.16252 0.07287 0.36569 0.0
C517 C 0.18005 0.05926 0.3631 0.0
C518 C 0.20456 0.06921 0.36556 0.0
C519 C 0.21158 0.09277 0.37073 0.0
H520 H 0.17466 0.04102 0.35913 0.0
H521 H 0.24138 0.27023 0.40713 0.0
H522 H 0.28006 0.79402 0.81225 0.0
H523 H 0.30179 0.81741 0.84279 0.0
H524 H 0.25199 0.86433 0.83864 0.0
H525 H 0.23053 0.84132 0.80765 0.0
H526 H 0.29812 0.887 0.837 0.0
H527 H 0.25171 0.82904 0.88425 0.0
H528 H 0.23496 0.78944 0.89738 0.0
H529 H 0.30675 0.77803 0.91003 0.0
H530 H 0.32397 0.81747 0.89666 0.0
H531 H 0.34496 0.95525 0.93117 0.0
H532 H 0.31735 0.92819 0.90728 0.0
H533 H 0.36796 0.88195 0.90639 0.0
H534 H 0.39598 0.90916 0.93004 0.0
H535 H 0.31999 0.85889 0.91187 0.0
H536 H 0.36627 0.91559 0.86258 0.0
H537 H 0.38337 0.95503 0.84919 0.0
H538 H 0.31176 0.96837 0.84002 0.0
H539 H 0.29421 0.92909 0.85369 0.0
C540 C 0.27362 0.80921 0.81798 0.0
C541 C 0.25367 0.81591 0.80747 0.0
C542 C 0.28592 0.82245 0.83557 0.0
C543 C 0.27844 0.84255 0.84306 0.0
C544 C 0.25802 0.84884 0.83314 0.0
C545 C 0.24567 0.83559 0.81555 0.0
C546 C 0.29312 0.858 0.85989 0.0
C547 C 0.30249 0.88095 0.85355 0.0
C548 C 0.29943 0.8499 0.88119 0.0
C549 C 0.28914 0.82616 0.88926 0.0
C550 C 0.26394 0.81803 0.88965 0.0
C551 C 0.25436 0.79562 0.89717 0.0
C552 C 0.26978 0.78121 0.90449 0.0
C553 C 0.29483 0.7892 0.90434 0.0
C554 C 0.30451 0.8116 0.89681 0.0
C555 C 0.35031 0.93938 0.92582 0.0
C556 C 0.37282 0.9345 0.93227 0.0
C557 C 0.33444 0.92389 0.91228 0.0
C558 C 0.34076 0.90322 0.90489 0.0
C559 C 0.36278 0.89783 0.91196 0.0
C560 C 0.37873 0.91337 0.92549 0.0
C561 C 0.32483 0.8878 0.88895 0.0
C562 C 0.31537 0.8649 0.8954 0.0
C563 C 0.31844 0.89588 0.86769 0.0
C564 C 0.32894 0.91949 0.8594 0.0
C565 C 0.35417 0.927 0.8579 0.0
C566 C 0.36394 0.94931 0.85022 0.0
C567 C 0.34866 0.96422 0.84382 0.0
C568 C 0.32357 0.95682 0.84502 0.0
C569 C 0.3137 0.93453 0.85272 0.0
H570 H 0.35626 0.98148 0.83787 0.0
H571 H 0.26233 0.76386 0.91031 0.0
H572 H 0.58584 0.36737 0.72326 0.0
H573 H 0.57241 0.38462 0.68914 0.0
H574 H 0.61736 0.45029 0.70653 0.0
H575 H 0.6317 0.43309 0.74018 0.0
H576 H 0.57068 0.45442 0.69349 0.0
H577 H 0.63462 0.41839 0.66526 0.0
H578 H 0.65557 0.38586 0.65914 0.0
H579 H 0.59337 0.34813 0.62395 0.0
H580 H 0.57191 0.38033 0.63015 0.0
H581 H 0.55969 0.51418 0.59144 0.0
H582 H 0.57535 0.49647 0.62417 0.0
H583 H 0.54275 0.42864 0.59903 0.0
H584 H 0.52807 0.44628 0.56569 0.0
H585 H 0.58292 0.42508 0.61644 0.0
H586 H 0.51806 0.45866 0.64442 0.0
H587 H 0.49483 0.48944 0.65109 0.0
H588 H 0.55494 0.52933 0.68746 0.0
H589 H 0.57866 0.49891 0.68075 0.0
C590 C 0.59325 0.3854 0.71978 0.0
C591 C 0.61001 0.39867 0.7348 0.0
C592 C 0.58538 0.3953 0.70021 0.0
C593 C 0.59389 0.4188 0.6951 0.0
C594 C 0.61039 0.43217 0.71007 0.0
C595 C 0.61848 0.42224 0.7295 0.0
C596 C 0.58555 0.42949 0.67425 0.0
C597 C 0.57363 0.4482 0.67662 0.0
C598 C 0.58865 0.42099 0.6522 0.0
C599 C 0.60158 0.40168 0.64837 0.0
C600 C 0.62534 0.40308 0.65638 0.0
C601 C 0.63732 0.38472 0.65286 0.0
C602 C 0.62579 0.36491 0.64122 0.0
C603 C 0.60227 0.36347 0.633 0.0
C604 C 0.5902 0.38178 0.63649 0.0
C605 C 0.55594 0.49548 0.59278 0.0
C606 C 0.54248 0.48172 0.57586 0.0
C607 C 0.56477 0.48531 0.6117 0.0
C608 C 0.55981 0.4611 0.61463 0.0
C609 C 0.54686 0.44732 0.59743 0.0
C610 C 0.53841 0.45747 0.57828 0.0
C611 C 0.56798 0.45017 0.63555 0.0
C612 C 0.57987 0.43138 0.63325 0.0
C613 C 0.56446 0.45833 0.65773 0.0
C614 C 0.55022 0.47661 0.66189 0.0
C615 C 0.52638 0.47407 0.65371 0.0
C616 C 0.51312 0.49144 0.65752 0.0
C617 C 0.52342 0.51135 0.66964 0.0
C618 C 0.547 0.51391 0.67804 0.0
C619 C 0.56035 0.4966 0.67426 0.0
H620 H 0.51313 0.52478 0.67256 0.0
H621 H 0.63509 0.35071 0.63851 0.0
H622 H 0.92617 0.61122 0.24995 0.0
H623 H 0.94062 0.59447 0.21597 0.0
H624 H 0.89098 0.62408 0.17514 0.0
H625 H 0.87619 0.6406 0.20918 0.0
H626 H 0.89086 0.58249 0.16024 0.0
H627 H 0.95392 0.64705 0.17771 0.0
H628 H 0.98469 0.67203 0.20123 0.0
H629 H 0.02213 0.61582 0.21031 0.0
H630 H 0.99138 0.59039 0.18711 0.0
H631 H 0.94902 0.56491 0.05479 0.0
H632 H 0.93293 0.5825 0.08766 0.0
H633 H 0.97493 0.54792 0.13225 0.0
H634 H 0.99098 0.5303 0.09966 0.0
H635 H 0.9787 0.59323 0.14406 0.0
H636 H 0.91439 0.52874 0.12649 0.0
H637 H 0.8842 0.50495 0.10151 0.0
H638 H 0.84962 0.5629 0.09107 0.0
H639 H 0.87984 0.58715 0.11575 0.0
C640 C 0.91844 0.61436 0.23374 0.0
C641 C 0.90006 0.62743 0.23243 0.0
C642 C 0.92676 0.60475 0.21422 0.0
C643 C 0.91726 0.60823 0.19272 0.0
C644 C 0.8987 0.62105 0.1914 0.0
C645 C 0.89021 0.6305 0.21096 0.0
C646 C 0.9266 0.59845 0.17172 0.0
C647 C 0.91007 0.58518 0.15661 0.0
C648 C 0.95169 0.60152 0.16686 0.0
C649 C 0.9702 0.61675 0.18086 0.0
C650 C 0.96861 0.63996 0.18488 0.0
C651 C 0.98606 0.65421 0.19813 0.0
C652 C 0.00531 0.6455 0.20731 0.0
C653 C 0.00718 0.62253 0.20322 0.0
C654 C 0.98975 0.6082 0.19001 0.0
C655 C 0.95475 0.56095 0.07159 0.0
C656 C 0.97125 0.54604 0.07447 0.0
C657 C 0.94548 0.571 0.09041 0.0
C658 C 0.95256 0.56648 0.11256 0.0
C659 C 0.96914 0.55173 0.11542 0.0
C660 C 0.97823 0.54155 0.09668 0.0
C661 C 0.943 0.5772 0.1328 0.0
C662 C 0.9595 0.59065 0.14773 0.0
C663 C 0.91791 0.57446 0.13736 0.0
C664 C 0.89953 0.55983 0.12278 0.0
C665 C 0.90045 0.53646 0.11874 0.0
C666 C 0.88332 0.52288 0.10465 0.0
C667 C 0.86504 0.53242 0.09465 0.0
C668 C 0.86381 0.55554 0.0988 0.0
C669 C 0.88092 0.5692 0.11285 0.0
H670 H 0.85182 0.52189 0.08372 0.0
H671 H 0.01881 0.65656 0.21755 0.0
H672 H 0.35348 0.17694 0.13251 0.0
H673 H 0.37484 0.14911 0.1153 0.0
H674 H 0.44235 0.18663 0.14251 0.0
H675 H 0.4211 0.21513 0.15935 0.0
H676 H 0.44655 0.17181 0.09807 0.0
H677 H 0.41479 0.13917 0.16872 0.0
H678 H 0.3832 0.12705 0.1975 0.0
H679 H 0.34202 0.07972 0.14996 0.0
H680 H 0.3732 0.09181 0.12079 0.0
H681 H 0.50769 0.07886 0.07656 0.0
H682 H 0.49101 0.10893 0.09595 0.0
H683 H 0.41899 0.07541 0.0758 0.0
H684 H 0.4354 0.04511 0.0567 0.0
H685 H 0.41979 0.08914 0.11896 0.0
H686 H 0.44978 0.12267 0.04783 0.0
H687 H 0.48065 0.13463 1.01837 0.0
H688 H 0.52437 0.18014 0.06576 0.0
H689 H 0.49394 0.16813 0.09564 0.0
C690 C 0.37293 0.17958 0.13452 0.0
C691 C 0.38559 0.19828 0.14731 0.0
C692 C 0.38508 0.16351 0.12485 0.0
C693 C 0.41011 0.16565 0.1279 0.0
C694 C 0.42299 0.18464 0.14006 0.0
C695 C 0.41081 0.20078 0.1498 0.0
C696 C 0.42251 0.14757 0.1189 0.0
C697 C 0.44102 0.15378 0.10289 0.0
C698 C 0.41494 0.12401 0.12493 0.0
C699 C 0.39625 0.11653 0.14252 0.0
C700 C 0.39892 0.12629 0.16436 0.0
C701 C 0.38109 0.11941 0.18075 0.0
C702 C 0.36059 0.10266 0.17555 0.0
C703 C 0.3579 0.0927 0.15396 0.0
C704 C 0.37566 0.09955 0.1375 0.0
C705 C 0.48828 0.0778 0.07635 0.0
C706 C 0.47288 0.05961 0.065 0.0
C707 C 0.4788 0.09507 0.08736 0.0
C708 C 0.45379 0.09456 0.08706 0.0
C709 C 0.43835 0.07614 0.07621 0.0
C710 C 0.44779 0.05885 0.06526 0.0
C711 C 0.4436 0.11328 0.09785 0.0
C712 C 0.4255 0.10719 0.11424 0.0
C713 C 0.45148 0.13689 0.09206 0.0
C714 C 0.4697 0.14431 0.07405 0.0
C715 C 0.46607 0.13509 0.05203 0.0
C716 C 0.48347 0.14189 0.03524 0.0
C717 C 0.50449 0.15809 0.0402 0.0
C718 C 0.5081 0.16756 0.06195 0.0
C719 C 0.49078 0.16077 0.07882 0.0
H720 H 0.51794 0.16334 0.02718 0.0
H721 H 0.34681 0.09735 0.18826 0.0
H722 H 0.15525 0.84868 0.629 0.0
H723 H 0.13379 0.87685 0.61298 0.0
H724 H 0.06908 0.84519 0.64877 0.0
H725 H 0.09012 0.81586 0.66392 0.0
H726 H 0.05781 0.85733 0.60747 0.0
H727 H 0.10501 0.89539 0.66834 0.0
H728 H 0.14156 0.90831 0.6916 0.0
H729 H 0.17684 0.94705 0.63541 0.0
H730 H 0.14062 0.93409 0.6117 0.0
H731 H 0.00713 0.95866 0.58577 0.0
H732 H 0.02343 0.92938 0.60705 0.0
H733 H 0.08823 0.94324 0.56649 0.0
H734 H 0.07203 0.9722 0.545 0.0
H735 H 0.09601 0.94051 0.61459 0.0
H736 H 0.04857 0.89885 0.55336 0.0
H737 H 0.01089 0.88687 0.53143 0.0
H738 H 0.97458 0.85577 0.59087 0.0
H739 H 0.01196 0.86795 0.61325 0.0
C740 C 0.13632 0.8473 0.63315 0.0
C741 C 0.12446 0.82991 0.6478 0.0
C742 C 0.12415 0.8637 0.62422 0.0
C743 C 0.09997 0.86347 0.63007 0.0
C744 C 0.0878 0.84582 0.64419 0.0
C745 C 0.09993 0.82919 0.65298 0.0
C746 C 0.08771 0.88188 0.62154 0.0
C747 C 0.06595 0.87552 0.6094 0.0
C748 C 0.09833 0.90566 0.62396 0.0
C749 C 0.12014 0.91362 0.63819 0.0
C750 C 0.12062 0.90654 0.66089 0.0
C751 C 0.14127 0.91389 0.67417 0.0
C752 C 0.16152 0.92846 0.66498 0.0
C753 C 0.16114 0.93575 0.64251 0.0
C754 C 0.14054 0.92843 0.62915 0.0
C755 C 0.02493 0.95558 0.58153 0.0
C756 C 0.0383 0.96765 0.56369 0.0
C757 C 0.03415 0.93883 0.59363 0.0
C758 C 0.05696 0.93417 0.58823 0.0
C759 C 0.07059 0.94665 0.57088 0.0
C760 C 0.06126 0.96309 0.55857 0.0
C761 C 0.06658 0.91587 0.60018 0.0
C762 C 0.08779 0.9223 0.61297 0.0
C763 C 0.0553 0.89225 0.59859 0.0
C764 C 0.03298 0.88454 0.58504 0.0
C765 C 0.0325 0.88962 0.56179 0.0
C766 C 0.01121 0.88278 0.54927 0.0
C767 C 0.99034 0.87062 0.55976 0.0
C768 C 0.99075 0.86522 0.58278 0.0
C769 C 0.01198 0.87209 0.59539 0.0
H770 H 0.97387 0.86535 0.55004 0.0
H771 H 0.1775 0.93413 0.67528 0.0
H772 H 0.76914 0.44018 0.87474 0.0
H773 H 0.80511 0.45852 0.89618 0.0
H774 H 0.794 0.40098 0.94257 0.0
H775 H 0.75779 0.38282 0.92154 0.0
H776 H 0.807 0.44192 0.96513 0.0
H777 H 0.83601 0.40494 0.90093 0.0
H778 H 0.84014 0.39647 0.86037 0.0
H779 H 0.87034 0.46814 0.84793 0.0
H780 H 0.86608 0.47709 0.88839 0.0
H781 H 0.92562 0.46204 1.0144 0.0
H782 H 0.88738 0.44556 0.99543 0.0
H783 H 0.90023 0.50095 0.94661 0.0
H784 H 0.93845 0.51727 0.96515 0.0
H785 H 0.88595 0.46124 0.92554 0.0
H786 H 0.85783 0.4986 0.98937 0.0
H787 H 0.85398 0.50764 0.02984 0.0
H788 H 0.82219 0.43648 0.04299 0.0
H789 H 0.82618 0.42695 1.00264 0.0
C790 C 0.77418 0.43154 0.88965 0.0
C791 C 0.76061 0.4099 0.89626 0.0
C792 C 0.79488 0.44197 0.90181 0.0
C793 C 0.80251 0.43103 0.92089 0.0
C794 C 0.7886 0.40976 0.9279 0.0
C795 C 0.76798 0.39929 0.9157 0.0
C796 C 0.82528 0.44139 0.93319 0.0
C797 C 0.82431 0.44591 0.95653 0.0
C798 C 0.84786 0.44707 0.92196 0.0
C799 C 0.8505 0.44172 0.89764 0.0
C800 C 0.84336 0.41892 0.88951 0.0
C801 C 0.84575 0.41403 0.86655 0.0
C802 C 0.85543 0.43177 0.85157 0.0
C803 C 0.86281 0.45442 0.85954 0.0
C804 C 0.86042 0.45941 0.88249 0.0
C805 C 0.92025 0.4708 0.99971 0.0
C806 C 0.93524 0.491 0.99135 0.0
C807 C 0.89829 0.46139 0.9889 0.0
C808 C 0.89073 0.47205 0.9696 0.0
C809 C 0.9056 0.49231 0.96138 0.0
C810 C 0.92751 0.50167 0.97211 0.0
C811 C 0.86773 0.46189 0.95752 0.0
C812 C 0.86866 0.45734 0.93419 0.0
C813 C 0.84513 0.45631 0.96876 0.0
C814 C 0.84253 0.46201 0.99301 0.0
C815 C 0.85018 0.48484 1.00092 0.0
C816 C 0.84795 0.49006 0.02384 0.0
C817 C 0.83791 0.47263 0.03899 0.0
C818 C 0.83 0.44996 0.03124 0.0
C819 C 0.83223 0.44464 1.00834 0.0
H820 H 0.83621 0.47671 0.05672 0.0
H821 H 0.85728 0.42794 0.83379 0.0
H822 H 0.75819 0.63903 0.4245 0.0
H823 H 0.72242 0.62094 0.44578 0.0
H824 H 0.69777 0.57644 0.389 0.0
H825 H 0.73409 0.59365 0.3678 0.0
H826 H 0.66136 0.59788 0.40846 0.0
H827 H 0.7206 0.55391 0.43232 0.0
H828 H 0.75993 0.54888 0.44773 0.0
H829 H 0.74568 0.58219 0.50961 0.0
H830 H 0.70639 0.58771 0.49444 0.0
H831 H 0.56805 0.51781 0.4612 0.0
H832 H 0.60535 0.53481 0.4415 0.0
H833 H 0.63075 0.57515 0.50083 0.0
H834 H 0.59328 0.55828 0.52075 0.0
H835 H 0.6671 0.55644 0.48074 0.0
H836 H 0.60953 0.60096 0.45904 0.0
H837 H 0.57066 0.60865 0.44507 0.0
H838 H 0.5822 0.57819 0.38089 0.0
H839 H 0.62091 0.5698 0.39466 0.0
C840 C 0.74549 0.62512 0.41654 0.0
C841 C 0.7494 0.61781 0.39431 0.0
C842 C 0.72487 0.61489 0.42877 0.0
C843 C 0.70743 0.59722 0.41908 0.0
C844 C 0.71095 0.59008 0.39683 0.0
C845 C 0.73174 0.6001 0.38466 0.0
C846 C 0.68549 0.58632 0.43214 0.0
C847 C 0.66259 0.58849 0.42406 0.0
C848 C 0.6871 0.57481 0.45297 0.0
C849 C 0.71067 0.57144 0.46215 0.0
C850 C 0.72595 0.56035 0.44913 0.0
C851 C 0.74821 0.55737 0.45784 0.0
C852 C 0.75533 0.56527 0.47961 0.0
C853 C 0.74016 0.57611 0.49274 0.0
C854 C 0.71788 0.57915 0.4841 0.0
C855 C 0.58158 0.53018 0.4702 0.0
C856 C 0.5775 0.53671 0.49261 0.0
C857 C 0.60292 0.53996 0.45883 0.0
C858 C 0.62082 0.55645 0.46957 0.0
C859 C 0.61721 0.5625 0.49216 0.0
C860 C 0.59571 0.55287 0.50351 0.0
C861 C 0.64293 0.56774 0.45691 0.0
C862 C 0.66584 0.56573 0.46509 0.0
C863 C 0.64138 0.57973 0.43634 0.0
C864 C 0.618 0.58449 0.42798 0.0
C865 C 0.60365 0.59563 0.44204 0.0
C866 C 0.58165 0.60014 0.43415 0.0
C867 C 0.57391 0.59383 0.41215 0.0
C868 C 0.58816 0.58298 0.39797 0.0
C869 C 0.61014 0.57833 0.40581 0.0
H870 H 0.55694 0.5975 0.4061 0.0
H871 H 0.77257 0.56294 0.48633 0.0
H872 H 0.2576 0.34163 0.12276 0.0
H873 H 0.22899 0.36205 0.10402 0.0
H874 H 0.1788 0.34411 0.15914 0.0
H875 H 0.20744 0.32468 0.17839 0.0
H876 H 0.16063 0.33099 0.11311 0.0
H877 H 0.20494 0.3957 0.15734 0.0
H878 H 0.24186 0.4232 0.16884 0.0
H879 H 0.25299 0.44674 0.1002 0.0
H880 H 0.21629 0.41911 0.08823 0.0
H881 H 0.06499 0.38923 0.10439 0.0
H882 H 0.09973 0.37322 0.11593 0.0
H883 H 0.1438 0.41475 0.06568 0.0
H884 H 0.1094 0.43213 0.05504 0.0
H885 H 0.16853 0.41575 0.10294 0.0
H886 H 0.12325 0.35529 0.05842 0.0
H887 H 0.08731 0.32764 0.04496 0.0
H888 H 0.07953 0.29516 0.11027 0.0
H889 H 0.11522 0.32282 0.12424 0.0
C890 C 0.24069 0.34246 0.13111 0.0
C891 C 0.23466 0.3312 0.15193 0.0
C892 C 0.22436 0.35401 0.12032 0.0
C893 C 0.20178 0.35432 0.13016 0.0
C894 C 0.19607 0.34381 0.15122 0.0
C895 C 0.21242 0.33258 0.1621 0.0
C896 C 0.18334 0.3645 0.11823 0.0
C897 C 0.16223 0.34952 0.11094 0.0
C898 C 0.18603 0.38856 0.11463 0.0
C899 C 0.20807 0.40512 0.12184 0.0
C900 C 0.21541 0.40655 0.14466 0.0
C901 C 0.23626 0.42221 0.15127 0.0
C902 C 0.24982 0.43665 0.13525 0.0
C903 C 0.24251 0.43551 0.11258 0.0
C904 C 0.22168 0.41986 0.10588 0.0
C905 C 0.08209 0.39519 0.0959 0.0
C906 C 0.08433 0.41201 0.07877 0.0
C907 C 0.10191 0.38574 0.10231 0.0
C908 C 0.1243 0.39244 0.09138 0.0
C909 C 0.12666 0.4092 0.07425 0.0
C910 C 0.10688 0.41891 0.06801 0.0
C911 C 0.14527 0.38227 0.09842 0.0
C912 C 0.16694 0.39718 0.10471 0.0
C913 C 0.14329 0.35804 0.10075 0.0
C914 C 0.12185 0.34125 0.09241 0.0
C915 C 0.11379 0.34235 0.06996 0.0
C916 C 0.09347 0.32666 0.06224 0.0
C917 C 0.08112 0.30968 0.07676 0.0
C918 C 0.08911 0.30832 0.09904 0.0
C919 C 0.10941 0.32399 0.10686 0.0
H920 H 0.06539 0.29755 0.07075 0.0
H921 H 0.26595 0.44877 0.1404 0.0
H922 H 0.56883 0.24878 0.89675 0.0
H923 H 0.55278 0.21338 0.91747 0.0
H924 H 0.61666 0.18665 0.90102 0.0
H925 H 0.63182 0.22099 0.87861 0.0
H926 H 0.582 0.15296 0.8992 0.0
H927 H 0.60493 0.21175 0.95542 0.0
H928 H 0.60582 0.24891 0.97507 0.0
H929 H 0.52937 0.23006 0.98723 0.0
H930 H 0.52796 0.19291 0.96736 0.0
H931 H 0.56612 0.06643 0.9863 0.0
H932 H 0.58178 0.10171 0.96465 0.0
H933 H 0.5116 0.1204 0.96726 0.0
H934 H 0.49579 0.08517 0.98865 0.0
H935 H 0.54959 0.1577 0.97674 0.0
H936 H 0.52869 0.0978 0.91993 0.0
H937 H 0.53042 0.06013 0.90234 0.0
H938 H 0.60726 0.08122 0.89389 0.0
H939 H 0.60603 0.11893 0.91172 0.0
C940 C 0.57935 0.23526 0.89709 0.0
C941 C 0.6019 0.23819 0.886 0.0
C942 C 0.57028 0.21504 0.9094 0.0
C943 C 0.58371 0.19735 0.91149 0.0
C944 C 0.6059 0.19997 0.89998 0.0
C945 C 0.61476 0.21994 0.88733 0.0
C946 C 0.57474 0.17613 0.92552 0.0
C947 C 0.57526 0.15417 0.91626 0.0
C948 C 0.56554 0.17729 0.9478 0.0
C949 C 0.5663 0.19966 0.95966 0.0
C950 C 0.58827 0.21562 0.96211 0.0
C951 C 0.58887 0.23666 0.97332 0.0
C952 C 0.56765 0.24188 0.98233 0.0
C953 C 0.54579 0.22602 0.9802 0.0
C954 C 0.54508 0.20496 0.96897 0.0
C955 C 0.55403 0.07806 0.98231 0.0
C956 C 0.52963 0.07281 0.98911 0.0
C957 C 0.56299 0.09821 0.96986 0.0
C958 C 0.54783 0.11367 0.96413 0.0
C959 C 0.52365 0.10875 0.97139 0.0
C960 C 0.51461 0.08849 0.98355 0.0
C961 C 0.55699 0.13485 0.95037 0.0
C962 C 0.55644 0.1567 0.95968 0.0
C963 C 0.56659 0.13362 0.92835 0.0
C964 C 0.56729 0.11109 0.91735 0.0
C965 C 0.54598 0.09434 0.91446 0.0
C966 C 0.54687 0.073 0.90443 0.0
C967 C 0.56895 0.06826 0.89706 0.0
C968 C 0.59018 0.0849 0.89963 0.0
C969 C 0.58939 0.10627 0.90968 0.0
H970 H 0.56961 0.05172 0.88931 0.0
H971 H 0.56816 0.25817 0.99101 0.0
H972 H 0.92496 0.76653 0.41591 0.0
H973 H 0.94051 0.80235 0.43712 0.0
H974 H 0.91999 0.84261 0.38222 0.0
H975 H 0.9039 0.80684 0.36118 0.0
H976 H 0.96981 0.8584 0.40182 0.0
H977 H 0.88519 0.83726 0.42316 0.0
H978 H 0.84939 0.81046 0.43792 0.0
H979 H 0.88659 0.80488 0.50055 0.0
H980 H 0.92277 0.83139 0.48602 0.0
H981 H 0.9846 0.96875 0.45358 0.0
H982 H 0.97006 0.9329 0.43257 0.0
H983 H 0.96388 0.89434 0.49509 0.0
H984 H 0.97696 0.93044 0.51622 0.0
H985 H 0.92824 0.87646 0.47167 0.0
H986 H 0.01204 0.89592 0.4533 0.0
H987 H 0.05019 0.92033 0.44022 0.0
H988 H 0.01879 0.92617 0.37472 0.0
H989 H 0.98033 0.90202 0.3875 0.0
C990 C 0.92394 0.78304 0.4083 0.0
C991 C 0.9132 0.78386 0.38686 0.0
C992 C 0.93274 0.80347 0.42047 0.0
C993 C 0.93138 0.82518 0.41128 0.0
C994 C 0.92125 0.82608 0.38964 0.0
C995 C 0.91199 0.80563 0.37767 0.0
C996 C 0.94004 0.84691 0.42443 0.0
C997 C 0.9606 0.86254 0.41696 0.0
C998 C 0.92856 0.8519 0.44463 0.0
C999 C 0.90677 0.83609 0.45341 0.0
C1000 C 0.88582 0.83014 0.44 0.0
C1001 C 0.86544 0.81505 0.44834 0.0
C1002 C 0.86574 0.80592 0.47014 0.0
C1003 C 0.8864 0.81193 0.48366 0.0
C1004 C 0.90684 0.827 0.47538 0.0
C1005 C 0.98011 0.95262 0.46284 0.0
C1006 C 0.98199 0.95248 0.48657 0.0
C1007 C 0.97197 0.93201 0.45077 0.0
C1008 C 0.9663 0.91056 0.46203 0.0
C1009 C 0.96807 0.91048 0.48582 0.0
C1010 C 0.97562 0.93118 0.49794 0.0
C1011 C 0.95819 0.88834 0.44911 0.0
C1012 C 0.93767 0.8725 0.4566 0.0
C1013 C 0.97012 0.88287 0.42922 0.0
C1014 C 0.99323 0.89734 0.42143 0.0
C1015 C 0.01322 0.90254 0.43615 0.0
C1016 C 0.0349 0.91631 0.42878 0.0
C1017 C 0.03689 0.92485 0.40667 0.0
C1018 C 0.01721 0.91957 0.39185 0.0
C1019 C 0.99547 0.90582 0.39914 0.0
H1020 H 0.0537 0.93551 0.401 0.0
H1021 H 0.84994 0.79424 0.47657 0.0
H1022 H 0.25182 0.66299 0.64671 0.0
H1023 H 0.27998 0.64159 0.62875 0.0
H1024 H 0.32718 0.70614 0.61144 0.0
H1025 H 0.29883 0.72751 0.62857 0.0
H1026 H 0.32598 0.67553 0.57798 0.0
H1027 H 0.33599 0.67594 0.65949 0.0
H1028 H 0.32234 0.66811 0.69887 0.0
H1029 H 0.30241 0.59545 0.68387 0.0
H1030 H 0.31565 0.60291 0.64429 0.0
H1031 H 0.44306 0.64932 0.57247 0.0
H1032 H 0.40687 0.66411 0.58289 0.0
H1033 H 0.36785 0.59426 0.59352 0.0
H1034 H 0.40408 0.57938 0.58349 0.0
H1035 H 0.36118 0.62313 0.62803 0.0
H1036 H 0.35617 0.62264 0.54738 0.0
H1037 H 0.37087 0.63091 0.50839 0.0
H1038 H 0.38226 0.70395 0.52187 0.0
H1039 H 0.36795 0.69612 0.56107 0.0
C1040 C 0.26795 0.67258 0.63864 0.0
C1041 C 0.2733 0.69692 0.63933 0.0
C1042 C 0.28411 0.66035 0.62856 0.0
C1043 C 0.30589 0.67229 0.61913 0.0
C1044 C 0.31056 0.69657 0.61871 0.0
C1045 C 0.29445 0.70876 0.6287 0.0
C1046 C 0.32465 0.65978 0.61096 0.0
C1047 C 0.33375 0.66414 0.58894 0.0
C1048 C 0.33443 0.64451 0.6251 0.0
C1049 C 0.32652 0.64002 0.64888 0.0
C1050 C 0.32851 0.65832 0.66455 0.0
C1051 C 0.32088 0.65394 0.68691 0.0
C1052 C 0.31144 0.6313 0.69385 0.0
C1053 C 0.30967 0.61298 0.67845 0.0
C1054 C 0.31724 0.61727 0.65606 0.0
C1055 C 0.42679 0.63714 0.57712 0.0
C1056 C 0.42637 0.6132 0.5771 0.0
C1057 C 0.40609 0.64558 0.58286 0.0
C1058 C 0.38461 0.63024 0.5887 0.0
C1059 C 0.3842 0.60636 0.58893 0.0
C1060 C 0.40486 0.5979 0.58307 0.0
C1061 C 0.36281 0.63924 0.59522 0.0
C1062 C 0.35317 0.63422 0.61693 0.0
C1063 C 0.35263 0.65397 0.58083 0.0
C1064 C 0.36116 0.65878 0.55723 0.0
C1065 C 0.36198 0.64047 0.54209 0.0
C1066 C 0.37022 0.64508 0.51994 0.0
C1067 C 0.37754 0.66794 0.51267 0.0
C1068 C 0.37659 0.68624 0.52753 0.0
C1069 C 0.3684 0.68173 0.54971 0.0
H1070 H 0.38391 0.67148 0.49551 0.0
H1071 H 0.30555 0.62795 0.71117 0.0
H1072 H 0.73762 0.83832 0.72352 0.0
H1073 H 0.76428 0.85644 0.69328 0.0
H1074 H 0.81223 0.80898 0.70561 0.0
H1075 H 0.7858 0.79101 0.73622 0.0
H1076 H 0.83618 0.85374 0.70457 0.0
H1077 H 0.77951 0.80417 0.65758 0.0
H1078 H 0.73916 0.78584 0.64325 0.0
H1079 H 0.72587 0.85233 0.62339 0.0
H1080 H 0.76601 0.87112 0.63789 0.0
H1081 H 0.91152 0.90663 0.61525 0.0
H1082 H 0.88534 0.8765 0.63717 0.0
H1083 H 0.82671 0.91349 0.63091 0.0
H1084 H 0.85234 0.94302 0.60817 0.0
H1085 H 0.81012 0.86834 0.62657 0.0
H1086 H 0.86315 0.9181 0.67858 0.0
H1087 H 0.9027 0.93745 0.69398 0.0
H1088 H 0.92194 0.87133 0.70527 0.0
H1089 H 0.88259 0.85161 0.68965 0.0
C1090 C 0.75375 0.83163 0.71966 0.0
C1091 C 0.75967 0.8133 0.73226 0.0
C1092 C 0.76885 0.84186 0.70226 0.0
C1093 C 0.79014 0.83393 0.69709 0.0
C1094 C 0.79583 0.81527 0.70928 0.0
C1095 C 0.78064 0.80494 0.72664 0.0
C1096 C 0.80725 0.84635 0.68014 0.0
C1097 C 0.83068 0.85649 0.68734 0.0
C1098 C 0.79987 0.85032 0.65784 0.0
C1099 C 0.77574 0.83907 0.64897 0.0
C1100 C 0.76792 0.81491 0.6503 0.0
C1101 C 0.74509 0.80443 0.64212 0.0
C1102 C 0.72995 0.81791 0.63245 0.0
C1103 C 0.73762 0.84191 0.63089 0.0
C1104 C 0.76043 0.85248 0.63906 0.0
C1105 C 0.89293 0.90814 0.61821 0.0
C1106 C 0.8841 0.92738 0.61018 0.0
C1107 C 0.87805 0.891 0.6309 0.0
C1108 C 0.85418 0.89293 0.63597 0.0
C1109 C 0.84509 0.91168 0.62729 0.0
C1110 C 0.85987 0.9287 0.61451 0.0
C1111 C 0.83885 0.87613 0.65117 0.0
C1112 C 0.81576 0.86521 0.64366 0.0
C1113 C 0.84646 0.87157 0.67327 0.0
C1114 C 0.87007 0.8834 0.6827 0.0
C1115 C 0.8759 0.90771 0.68419 0.0
C1116 C 0.89826 0.91873 0.69298 0.0
C1117 C 0.91485 0.90563 0.70053 0.0
C1118 C 0.90909 0.88146 0.69937 0.0
C1119 C 0.88676 0.87035 0.69056 0.0
H1120 H 0.93215 0.9142 0.70734 0.0
H1121 H 0.71228 0.80976 0.62613 0.0
H1122 H 0.76947 0.22667 0.21189 0.0
H1123 H 0.7435 0.2059 0.18196 0.0
H1124 H 0.69464 0.17108 0.2328 0.0
H1125 H 0.72066 0.19132 0.26252 0.0
H1126 H 0.70584 0.14101 0.20398 0.0
H1127 H 0.68099 0.21491 0.1983 0.0
H1128 H 0.68745 0.25717 0.19269 0.0
H1129 H 0.71676 0.24974 0.12661 0.0
H1130 H 0.71076 0.20744 0.13195 0.0
H1131 H 0.60289 0.08821 0.14604 0.0
H1132 H 0.62982 0.11674 0.16908 0.0
H1133 H 0.67417 0.13836 0.11054 0.0
H1134 H 0.64698 0.10978 0.08722 0.0
H1135 H 0.66907 0.17551 0.13942 0.0
H1136 H 0.69155 0.10123 0.14464 0.0
H1137 H 0.68407 0.05894 0.15025 0.0
H1138 H 0.65895 0.06739 0.21778 0.0
H1139 H 0.66592 0.10972 0.21244 0.0
C1140 C 0.75302 0.21477 0.21655 0.0
C1141 C 0.74715 0.21036 0.23945 0.0
C1142 C 0.73819 0.20297 0.19949 0.0
C1143 C 0.71711 0.18692 0.20515 0.0
C1144 C 0.71089 0.18322 0.22803 0.0
C1145 C 0.72577 0.19475 0.245 0.0
C1146 C 0.70212 0.17279 0.18758 0.0
C1147 C 0.69763 0.14863 0.19002 0.0
C1148 C 0.69212 0.18264 0.16886 0.0
C1149 C 0.69568 0.20805 0.16563 0.0
C1150 C 0.689 0.22231 0.18265 0.0
C1151 C 0.69254 0.24626 0.17951 0.0
C1152 C 0.70258 0.25614 0.15934 0.0
C1153 C 0.70903 0.24207 0.14225 0.0
C1154 C 0.70554 0.21811 0.14531 0.0
C1155 C 0.61827 0.09917 0.13804 0.0
C1156 C 0.62312 0.09656 0.11496 0.0
C1157 C 0.63358 0.11549 0.15118 0.0
C1158 C 0.6542 0.12933 0.14158 0.0
C1159 C 0.65836 0.12776 0.11825 0.0
C1160 C 0.64288 0.11146 0.10499 0.0
C1161 C 0.67221 0.14393 0.15644 0.0
C1162 C 0.67743 0.16802 0.15336 0.0
C1163 C 0.68293 0.13408 0.17468 0.0
C1164 C 0.67911 0.10864 0.17808 0.0
C1165 C 0.6843 0.09406 0.16064 0.0
C1166 C 0.68016 0.07008 0.16377 0.0
C1167 C 0.671 0.06048 0.18434 0.0
C1168 C 0.66603 0.07485 0.20185 0.0
C1169 C 0.6701 0.09884 0.19879 0.0
H1170 H 0.6678 0.04191 0.18674 0.0
H1171 H 0.7053 0.27469 0.15694 0.0
H1172 H 0.36894 0.5927 0.31385 0.0
H1173 H 0.38394 0.57528 0.34709 0.0
H1174 H 0.44923 0.62758 0.34594 0.0
H1175 H 0.43423 0.64534 0.31284 0.0
H1176 H 0.45986 0.58583 0.35302 0.0
H1177 H 0.40397 0.62866 0.38528 0.0
H1178 H 0.3647 0.64062 0.38991 0.0
H1179 H 0.33105 0.57082 0.40673 0.0
H1180 H 0.37008 0.55838 0.4019 0.0
H1181 H 0.50229 0.57015 0.46527 0.0
H1182 H 0.48599 0.58634 0.43183 0.0
H1183 H 0.42686 0.52756 0.42938 0.0
H1184 H 0.44343 0.51092 0.46257 0.0
H1185 H 0.41244 0.57138 0.42403 0.0
H1186 H 0.46907 0.52915 0.39428 0.0
H1187 H 0.50805 0.51696 0.38884 0.0
H1188 H 0.54015 0.58517 0.36582 0.0
H1189 H 0.50167 0.59811 0.37212 0.0
C1190 C 0.38636 0.60076 0.32077 0.0
C1191 C 0.40023 0.62061 0.3105 0.0
C1192 C 0.39498 0.59068 0.33985 0.0
C1193 C 0.41768 0.60017 0.34933 0.0
C1194 C 0.43168 0.61982 0.33902 0.0
C1195 C 0.42307 0.62994 0.31995 0.0
C1196 C 0.42695 0.58951 0.36978 0.0
C1197 C 0.44964 0.58303 0.36866 0.0
C1198 C 0.41338 0.58511 0.39007 0.0
C1199 C 0.3899 0.59255 0.39299 0.0
C1200 C 0.38816 0.61583 0.38978 0.0
C1201 C 0.36595 0.6227 0.39248 0.0
C1202 C 0.34538 0.60648 0.39854 0.0
C1203 C 0.34699 0.58336 0.40199 0.0
C1204 C 0.36915 0.57639 0.3993 0.0
C1205 C 0.48577 0.56065 0.4577 0.0
C1206 C 0.4742 0.53918 0.46668 0.0
C1207 C 0.47651 0.56992 0.43848 0.0
C1208 C 0.45521 0.55817 0.42795 0.0
C1209 C 0.44331 0.53697 0.43715 0.0
C1210 C 0.45285 0.52744 0.45611 0.0
C1211 C 0.44549 0.56801 0.40733 0.0
C1212 C 0.4227 0.57427 0.40842 0.0
C1213 C 0.45901 0.57223 0.38701 0.0
C1214 C 0.4825 0.56472 0.38405 0.0
C1215 C 0.48455 0.54172 0.38853 0.0
C1216 C 0.50658 0.53466 0.38526 0.0
C1217 C 0.52662 0.55032 0.37714 0.0
C1218 C 0.52467 0.57309 0.37228 0.0
C1219 C 0.50278 0.58033 0.37581 0.0
H1220 H 0.54362 0.54478 0.37449 0.0
H1221 H 0.3282 0.61184 0.40063 0.0
H1222 H 0.12894 0.3903 0.83262 0.0
H1223 H 0.11372 0.40864 0.86543 0.0
H1224 H 0.07351 0.44513 0.82097 0.0
H1225 H 0.08853 0.42667 0.78805 0.0
H1226 H 0.10048 0.47364 0.85569 0.0
H1227 H 0.0436 0.40093 0.84867 0.0
H1228 H 0.03211 0.35839 0.84587 0.0
H1229 H 0.0654 0.35161 0.9103 0.0
H1230 H 0.07739 0.39412 0.91333 0.0
H1231 H 0.03125 0.51788 0.93985 0.0
H1232 H 0.04634 0.5004 0.90658 0.0
H1233 H 0.0664 0.44751 0.94894 0.0
H1234 H 0.04959 0.46403 0.98186 0.0
H1235 H 0.04998 0.42724 0.91436 0.0
H1236 H 0.10854 0.49757 0.92262 0.0
H1237 H 0.1235 0.53967 0.92651 0.0
H1238 H 0.09234 0.55088 0.86209 0.0
H1239 H 0.07694 0.50886 0.85794 0.0
C1240 C 0.11689 0.40226 0.8298 0.0
C1241 C 0.10995 0.40695 0.80763 0.0
C1242 C 0.10811 0.41268 0.84861 0.0
C1243 C 0.09238 0.42827 0.84576 0.0
C1244 C 0.0856 0.43318 0.82366 0.0
C1245 C 0.09408 0.42248 0.80484 0.0
C1246 C 0.08301 0.4394 0.86583 0.0
C1247 C 0.08918 0.46356 0.86842 0.0
C1248 C 0.06896 0.42624 0.88286 0.0
C1249 C 0.06159 0.4007 0.88112 0.0
C1250 C 0.04864 0.39036 0.86215 0.0
C1251 C 0.042 0.36625 0.86054 0.0
C1252 C 0.04807 0.3523 0.87787 0.0
C1253 C 0.06073 0.36243 0.89688 0.0
C1254 C 0.06743 0.38653 0.89856 0.0
C1255 C 0.03909 0.50263 0.94206 0.0
C1256 C 0.03934 0.49245 0.96355 0.0
C1257 C 0.04792 0.49266 0.92298 0.0
C1258 C 0.05815 0.47272 0.92497 0.0
C1259 C 0.05865 0.46278 0.94662 0.0
C1260 C 0.04914 0.47234 0.96556 0.0
C1261 C 0.06754 0.46175 0.90459 0.0
C1262 C 0.06135 0.43752 0.90183 0.0
C1263 C 0.08211 0.47483 0.88767 0.0
C1264 C 0.09139 0.50009 0.89008 0.0
C1265 C 0.10475 0.50903 0.90935 0.0
C1266 C 0.11332 0.53287 0.91159 0.0
C1267 C 0.10882 0.54794 0.89458 0.0
C1268 C 0.09579 0.53919 0.87527 0.0
C1269 C 0.08715 0.51536 0.87295 0.0
H1270 H 0.11547 0.5664 0.89635 0.0
H1271 H 0.04292 0.33364 0.87659 0.0
H1272 H 0.62008 0.82051 0.92226 0.0
H1273 H 0.59667 0.84587 0.94118 0.0
H1274 H 0.58908 0.87987 0.87765 0.0
H1275 H 0.61286 0.85484 0.8588 0.0
H1276 H 0.60243 0.91085 0.90888 0.0
H1277 H 0.54096 0.84266 0.90345 0.0
H1278 H 0.52241 0.80135 0.90771 0.0
H1279 H 0.5305 0.80736 0.97991 0.0
H1280 H 0.54945 0.84864 0.97607 0.0
H1281 H 0.51854 0.97622 0.95308 0.0
H1282 H 0.53478 0.94754 0.93082 0.0
H1283 H 0.55556 0.91726 0.99238 0.0
H1284 H 0.5396 0.94583 1.01469 0.0
H1285 H 0.53305 0.88434 0.96034 0.0
H1286 H 0.59724 0.95203 0.96464 0.0
H1287 H 0.6148 0.99353 0.95996 0.0
H1288 H 0.59993 0.98814 0.8886 0.0
H1289 H 0.58196 0.94664 0.89293 0.0
C1290 C 0.61307 0.83315 0.9123 0.0
C1291 C 0.61833 0.83576 0.88909 0.0
C1292 C 0.59966 0.84762 0.9231 0.0
C1293 C 0.59093 0.86469 0.91081 0.0
C1294 C 0.59568 0.8669 0.8875 0.0
C1295 C 0.60927 0.85261 0.87676 0.0
C1296 C 0.57808 0.88113 0.92246 0.0
C1297 C 0.58697 0.90499 0.91978 0.0
C1298 C 0.55818 0.87357 0.93706 0.0
C1299 C 0.54685 0.84871 0.93944 0.0
C1300 C 0.53898 0.83513 0.92022 0.0
C1301 C 0.52836 0.81173 0.92257 0.0
C1302 C 0.52534 0.80172 0.94406 0.0
C1303 C 0.53289 0.81512 0.96327 0.0
C1304 C 0.54355 0.83853 0.96102 0.0
C1305 C 0.52649 0.96339 0.96185 0.0
C1306 C 0.528 0.96341 0.98561 0.0
C1307 C 0.53577 0.94707 0.94913 0.0
C1308 C 0.54646 0.9304 0.96 0.0
C1309 C 0.54738 0.93 0.9837 0.0
C1310 C 0.5384 0.94645 0.9964 0.0
C1311 C 0.5575 0.91383 0.94672 0.0
C1312 C 0.54834 0.89004 0.94919 0.0
C1313 C 0.57702 0.92142 0.9318 0.0
C1314 C 0.58801 0.94631 0.92915 0.0
C1315 C 0.59753 0.95974 0.94798 0.0
C1316 C 0.60759 0.98325 0.94539 0.0
C1317 C 0.60841 0.99349 0.92401 0.0
C1318 C 0.59924 0.9802 0.90516 0.0
C1319 C 0.58913 0.95668 0.90767 0.0
H1320 H 0.61619 0.0117 0.92203 0.0
H1321 H 0.5171 0.7836 0.94584 0.0
H1322 H 0.85739 0.17002 0.40835 0.0
H1323 H 0.88015 0.14524 0.42855 0.0
H1324 H 0.94707 0.19091 0.4106 0.0
H1325 H 0.92429 0.21552 0.38959 0.0
H1326 H 0.94955 0.14616 0.40351 0.0
H1327 H 0.92594 0.18997 0.4645 0.0
H1328 H 0.898 0.20748 0.48785 0.0
H1329 H 0.85685 0.13991 0.50325 0.0
H1330 H 0.88434 0.12198 0.47973 0.0
H1331 H 0.01588 0.08498 0.47755 0.0
H1332 H 0.99875 0.11528 0.45914 0.0
H1333 H 0.9267 0.07651 0.47156 0.0
H1334 H 0.94358 0.04631 0.49024 0.0
H1335 H 0.93065 0.12146 0.48281 0.0
H1336 H 0.95222 0.07817 0.41904 0.0
H1337 H 0.98004 0.06064 0.39554 0.0
H1338 H 0.02522 0.12759 0.38561 0.0
H1339 H 0.99781 0.14549 0.40931 0.0
C1340 C 0.87696 0.17478 0.40861 0.0
C1341 C 0.88905 0.19468 0.39726 0.0
C1342 C 0.88994 0.16072 0.42038 0.0
C1343 C 0.9153 0.16636 0.4213 0.0
C1344 C 0.92749 0.18631 0.41016 0.0
C1345 C 0.91447 0.20043 0.39833 0.0
C1346 C 0.9289 0.15082 0.43325 0.0
C1347 C 0.94578 0.1411 0.421 0.0
C1348 C 0.92366 0.14393 0.45594 0.0
C1349 C 0.90712 0.15464 0.47021 0.0
C1350 C 0.91083 0.17884 0.47273 0.0
C1351 C 0.89509 0.18884 0.48602 0.0
C1352 C 0.87564 0.17482 0.49699 0.0
C1353 C 0.87192 0.15075 0.49473 0.0
C1354 C 0.8876 0.14066 0.48145 0.0
C1355 C 0.99636 0.08281 0.47625 0.0
C1356 C 0.98108 0.06317 0.48533 0.0
C1357 C 0.98664 0.10015 0.46568 0.0
C1358 C 0.96146 0.09808 0.46387 0.0
C1359 C 0.94619 0.07847 0.47283 0.0
C1360 C 0.95587 0.06116 0.48342 0.0
C1361 C 0.95088 0.11644 0.45292 0.0
C1362 C 0.9346 0.12672 0.46541 0.0
C1363 C 0.9567 0.12385 0.43048 0.0
C1364 C 0.97312 0.11312 0.41615 0.0
C1365 C 0.96819 0.08913 0.41199 0.0
C1366 C 0.98386 0.07913 0.39861 0.0
C1367 C 1.00442 0.09298 0.38915 0.0
C1368 C 0.00931 0.11687 0.39299 0.0
C1369 C 0.9937 0.12696 0.40638 0.0
H1370 H 0.01653 0.0852 0.37879 0.0
H1371 H 0.86347 0.1826 0.50727 0.0
H1372 H 0.25752 0.58325 0.14128 0.0
H1373 H 0.22088 0.56735 0.11971 0.0
H1374 H 0.18888 0.62467 0.14126 0.0
H1375 H 0.22508 0.63988 0.16377 0.0
H1376 H 0.1555 0.58913 0.14114 0.0
H1377 H 0.21522 0.61969 0.0859 0.0
H1378 H 0.25445 0.62492 0.06615 0.0
H1379 H 0.24064 0.55268 0.0487 0.0
H1380 H 0.20145 0.54695 0.06861 0.0
H1381 H 0.06606 0.57837 0.05413 0.0
H1382 H 0.10289 0.59238 0.07608 0.0
H1383 H 0.12367 0.52614 0.06834 0.0
H1384 H 0.08665 0.51182 0.04655 0.0
H1385 H 0.16223 0.56546 0.06108 0.0
H1386 H 0.10052 0.5369 0.11627 0.0
H1387 H 0.06063 0.53442 0.13424 0.0
H1388 H 0.07802 0.60708 0.1498 0.0
H1389 H 0.1179 0.61006 0.13158 0.0
C1390 C 0.2426 0.59238 0.14146 0.0
C1391 C 0.24421 0.61285 0.15416 0.0
C1392 C 0.22168 0.58338 0.12897 0.0
C1393 C 0.20212 0.59503 0.12828 0.0
C1394 C 0.20359 0.61528 0.14136 0.0
C1395 C 0.22432 0.624 0.15425 0.0
C1396 C 0.18024 0.58622 0.11393 0.0
C1397 C 0.1571 0.58428 0.12356 0.0
C1398 C 0.182 0.57946 0.09098 0.0
C1399 C 0.20551 0.58285 0.07894 0.0
C1400 C 0.22063 0.60489 0.07798 0.0
C1401 C 0.24284 0.60795 0.06675 0.0
C1402 C 0.25006 0.58913 0.05623 0.0
C1403 C 0.23504 0.56723 0.05688 0.0
C1404 C 0.21282 0.56407 0.06812 0.0
C1405 C 0.07852 0.56679 0.0569 0.0
C1406 C 0.07331 0.54392 0.04855 0.0
C1407 C 0.09954 0.57482 0.06956 0.0
C1408 C 0.11597 0.56027 0.07402 0.0
C1409 C 0.11124 0.53767 0.06514 0.0
C1410 C 0.09003 0.5295 0.05271 0.0
C1411 C 0.13779 0.56853 0.08834 0.0
C1412 C 0.16082 0.57034 0.07869 0.0
C1413 C 0.13593 0.57559 0.11109 0.0
C1414 C 0.11211 0.57374 0.12237 0.0
C1415 C 0.09578 0.55238 0.12337 0.0
C1416 C 0.07317 0.55088 0.13363 0.0
C1417 C 0.06677 0.57059 0.1431 0.0
C1418 C 0.08299 0.59183 0.14242 0.0
C1419 C 0.10561 0.59343 0.13215 0.0
H1420 H 0.04925 0.5694 0.15102 0.0
H1421 H 0.26727 0.59153 0.04754 0.0
H1422 H 0.29262 0.4107 0.67942 0.0
H1423 H 0.32834 0.4279 0.65697 0.0
H1424 H 0.28235 0.43444 0.59998 0.0
H1425 H 0.24651 0.4179 0.62256 0.0
H1426 H 0.32971 0.40985 0.59642 0.0
H1427 H 0.29867 0.47956 0.61585 0.0
H1428 H 0.28465 0.50574 0.64322 0.0
H1429 H 0.35226 0.51399 0.6789 0.0
H1430 H 0.36652 0.48753 0.65192 0.0
H1431 H 0.42057 0.46857 0.52264 0.0
H1432 H 0.38249 0.45445 0.54261 0.0
H1433 H 0.41414 0.48685 0.6042 0.0
H1434 H 0.45132 0.50257 0.58369 0.0
H1435 H 0.37218 0.49155 0.60518 0.0
H1436 H 0.40477 0.42382 0.58963 0.0
H1437 H 0.42101 0.39564 0.56623 0.0
H1438 H 0.3546 0.38056 0.52844 0.0
H1439 H 0.33806 0.40885 0.55145 0.0
C1440 C 0.29015 0.41593 0.66214 0.0
C1441 C 0.26678 0.41304 0.65277 0.0
C1442 C 0.31053 0.42575 0.64936 0.0
C1443 C 0.30797 0.43245 0.62683 0.0
C1444 C 0.2847 0.42943 0.61735 0.0
C1445 C 0.26427 0.42009 0.63029 0.0
C1446 C 0.32967 0.4423 0.61312 0.0
C1447 C 0.33889 0.4278 0.59803 0.0
C1448 C 0.34207 0.46543 0.61589 0.0
C1449 C 0.33352 0.48135 0.63204 0.0
C1450 C 0.31042 0.48674 0.62968 0.0
C1451 C 0.30247 0.50168 0.64509 0.0
C1452 C 0.31752 0.51146 0.66283 0.0
C1453 C 0.3406 0.50637 0.66517 0.0
C1454 C 0.34863 0.49141 0.64982 0.0
C1455 C 0.41925 0.47274 0.54041 0.0
C1456 C 0.4389 0.48662 0.55162 0.0
C1457 C 0.39753 0.46446 0.55195 0.0
C1458 C 0.39534 0.46893 0.57525 0.0
C1459 C 0.41506 0.48303 0.58631 0.0
C1460 C 0.43642 0.49199 0.57458 0.0
C1461 C 0.37268 0.45912 0.58817 0.0
C1462 C 0.36319 0.47359 0.60329 0.0
C1463 C 0.36043 0.4357 0.58589 0.0
C1464 C 0.37028 0.41862 0.5721 0.0
C1465 C 0.39369 0.41459 0.57624 0.0
C1466 C 0.40294 0.39859 0.56306 0.0
C1467 C 0.38887 0.38637 0.54582 0.0
C1468 C 0.36549 0.39007 0.54177 0.0
C1469 C 0.35616 0.40607 0.55489 0.0
H1470 H 0.39607 0.374 0.53564 0.0
H1471 H 0.31134 0.52305 0.67473 0.0
H1472 H 0.74402 0.68717 0.92362 0.0
H1473 H 0.77414 0.66712 0.94022 0.0
H1474 H 0.81528 0.67707 0.87818 0.0
H1475 H 0.78502 0.69638 0.86145 0.0
H1476 H 0.8154 0.63592 0.89333 0.0
H1477 H 0.82929 0.71264 0.9267 0.0
H1478 H 0.81792 0.74485 0.9482 0.0
H1479 H 0.80173 0.70094 1.00637 0.0
H1480 H 0.81273 0.66838 0.9851 0.0
H1481 H 0.93505 0.63376 0.92658 0.0
H1482 H 0.8982 0.64633 0.91465 0.0
H1483 H 0.86319 0.62045 0.97689 0.0
H1484 H 0.89977 0.60711 0.98874 0.0
H1485 H 0.85648 0.66531 0.96499 0.0
H1486 H 0.84788 0.58989 0.93179 0.0
H1487 H 0.86105 0.55893 0.90981 0.0
H1488 H 0.869 0.60186 0.85056 0.0
H1489 H 0.85622 0.63322 0.87227 0.0
C1490 C 0.75944 0.6849 0.91355 0.0
C1491 C 0.76218 0.69326 0.89125 0.0
C1492 C 0.77666 0.67353 0.92304 0.0
C1493 C 0.79717 0.67084 0.91055 0.0
C1494 C 0.79959 0.67882 0.88814 0.0
C1495 C 0.78227 0.68984 0.87857 0.0
C1496 C 0.81659 0.66036 0.92076 0.0
C1497 C 0.82445 0.64247 0.90893 0.0
C1498 C 0.82805 0.66844 0.94143 0.0
C1499 C 0.82155 0.68802 0.95424 0.0
C1500 C 0.82314 0.70982 0.94403 0.0
C1501 C 0.81679 0.72814 0.95618 0.0
C1502 C 0.80903 0.72492 0.97861 0.0
C1503 C 0.80769 0.70339 0.98897 0.0
C1504 C 0.81399 0.68501 0.97689 0.0
C1505 C 0.91947 0.63049 0.93767 0.0
C1506 C 0.92037 0.61928 0.95857 0.0
C1507 C 0.89846 0.63778 0.93086 0.0
C1508 C 0.87794 0.63409 0.94481 0.0
C1509 C 0.87887 0.62343 0.9659 0.0
C1510 C 0.89984 0.61595 0.97267 0.0
C1511 C 0.85558 0.64142 0.93721 0.0
C1512 C 0.84718 0.65862 0.94954 0.0
C1513 C 0.84377 0.63289 0.91689 0.0
C1514 C 0.85125 0.61397 0.90371 0.0
C1515 C 0.8526 0.5928 0.91411 0.0
C1516 C 0.85998 0.57516 0.9017 0.0
C1517 C 0.86591 0.57844 0.87882 0.0
C1518 C 0.86442 0.59935 0.86829 0.0
C1519 C 0.85708 0.61705 0.88063 0.0
H1520 H 0.87161 0.56477 0.86923 0.0
H1521 H 0.80412 0.73912 0.98799 0.0
H1522 H 0.40772 0.79861 0.18426 0.0
H1523 H 0.42259 0.83521 0.16533 0.0
H1524 H 0.42994 0.79878 0.10308 0.0
H1525 H 0.41775 0.76206 0.12244 0.0
H1526 H 0.46406 0.83203 0.10335 0.0
H1527 H 0.37999 0.82875 0.11694 0.0
H1528 H 0.34228 0.82451 0.13904 0.0
H1529 H 0.37329 0.88379 0.17929 0.0
H1530 H 0.41131 0.8882 0.1576 0.0
H1531 H 0.46103 0.92946 0.03089 0.0
H1532 H 0.44803 0.89294 0.05134 0.0
H1533 H 0.46759 0.92818 0.11468 0.0
H1534 H 0.48109 0.9647 0.09436 0.0
H1535 H 0.41998 0.89644 0.11347 0.0
H1536 H 0.50447 0.89866 0.09556 0.0
H1537 H 0.53878 0.90258 0.06901 0.0
H1538 H 0.50184 0.84359 0.03143 0.0
H1539 H 0.46713 0.83954 0.05756 0.0
C1540 C 0.41297 0.79816 0.16668 0.0
C1541 C 0.41109 0.77691 0.15505 0.0
C1542 C 0.42107 0.81935 0.15566 0.0
C1543 C 0.42677 0.8201 0.13243 0.0
C1544 C 0.42549 0.79897 0.12091 0.0
C1545 C 0.41805 0.77777 0.13205 0.0
C1546 C 0.43403 0.84274 0.12012 0.0
C1547 C 0.45412 0.8459 0.10545 0.0
C1548 C 0.4214 0.86125 0.1227 0.0
C1549 C 0.39858 0.85865 0.1358 0.0
C1550 C 0.37883 0.84078 0.13061 0.0
C1551 C 0.35739 0.83836 0.14304 0.0
C1552 C 0.35542 0.85383 0.1606 0.0
C1553 C 0.37486 0.87179 0.16571 0.0
C1554 C 0.39635 0.87427 0.15334 0.0
C1555 C 0.46245 0.9295 0.04919 0.0
C1556 C 0.47214 0.95006 0.06097 0.0
C1557 C 0.45508 0.90857 0.06084 0.0
C1558 C 0.4569 0.90778 0.08455 0.0
C1559 C 0.466 0.92836 0.0964 0.0
C1560 C 0.47379 0.94922 0.08474 0.0
C1561 C 0.44976 0.88543 0.09694 0.0
C1562 C 0.42976 0.88242 0.11153 0.0
C1563 C 0.46198 0.86685 0.09376 0.0
C1564 C 0.48311 0.86893 0.0784 0.0
C1565 C 0.5036 0.88662 0.08155 0.0
C1566 C 0.52312 0.88885 0.06659 0.0
C1567 C 0.52246 0.87339 0.04851 0.0
C1568 C 0.50232 0.85558 0.04542 0.0
C1569 C 0.48272 0.85329 0.06032 0.0
H1570 H 0.53758 0.87517 0.03691 0.0
H1571 H 0.3388 0.85193 0.17021 0.0
H1572 H 0.07222 0.23848 0.67446 0.0
H1573 H 0.05672 0.20278 0.65347 0.0
H1574 H 0.12451 0.21002 0.61782 0.0
H1575 H 0.13967 0.24623 0.63785 0.0
H1576 H 0.08942 0.19639 0.58918 0.0
H1577 H 0.10833 0.17081 0.66289 0.0
H1578 H 0.10682 0.16873 0.70458 0.0
H1579 H 0.02996 0.14377 0.70192 0.0
H1580 H 0.03097 0.14599 0.6602 0.0
H1581 H 0.07318 0.08053 0.54702 0.0
H1582 H 0.08811 0.11654 0.56786 0.0
H1583 H 0.01807 0.11187 0.59879 0.0
H1584 H 1.00303 0.07587 0.57818 0.0
H1585 H 0.05404 0.124 0.62972 0.0
H1586 H 0.03579 0.14918 0.55552 0.0
H1587 H 0.03812 0.15029 0.51383 0.0
H1588 H 0.11492 0.17531 0.51754 0.0
H1589 H 0.1131 0.17402 0.55928 0.0
C1590 C 0.08379 0.23266 0.662 0.0
C1591 C 0.10736 0.24534 0.65811 0.0
C1592 C 0.07497 0.21201 0.65014 0.0
C1593 C 0.08953 0.20332 0.63423 0.0
C1594 C 0.11288 0.21615 0.63004 0.0
C1595 C 0.12166 0.23682 0.64178 0.0
C1596 C 0.08054 0.18096 0.62191 0.0
C1597 C 0.08198 0.18053 0.59813 0.0
C1598 C 0.07035 0.16018 0.63337 0.0
C1599 C 0.06969 0.1588 0.65844 0.0
C1600 C 0.09108 0.16505 0.67121 0.0
C1601 C 0.09032 0.16381 0.69484 0.0
C1602 C 0.0683 0.15618 0.7059 0.0
C1603 C 0.047 0.14971 0.69334 0.0
C1604 C 0.04766 0.15094 0.6697 0.0
C1605 C 0.06093 0.08709 0.55831 0.0
C1606 C 0.03683 0.07521 0.56081 0.0
C1607 C 0.0695 0.10779 0.57015 0.0
C1608 C 0.05419 0.11714 0.58479 0.0
C1609 C 0.03027 0.1051 0.58761 0.0
C1610 C 0.02166 0.08449 0.57571 0.0
C1611 C 0.06299 0.13948 0.59708 0.0
C1612 C 0.06149 0.13989 0.62082 0.0
C1613 C 0.07324 0.16019 0.58561 0.0
C1614 C 0.07434 0.16129 0.56052 0.0
C1615 C 0.0532 0.15477 0.54744 0.0
C1616 C 0.05443 0.15545 0.5238 0.0
C1617 C 0.07667 0.16281 0.51304 0.0
C1618 C 0.09771 0.16959 0.5259 0.0
C1619 C 0.09659 0.1689 0.54955 0.0
H1620 H 0.07758 0.16332 0.49474 0.0
H1621 H 0.06775 0.15524 0.72419 0.0
H1622 H 0.75918 0.36619 0.37947 0.0
H1623 H 0.72647 0.38372 0.39418 0.0
H1624 H 0.69649 0.32012 0.42878 0.0
H1625 H 0.72817 0.30205 0.4131 0.0
H1626 H 0.66237 0.33462 0.40722 0.0
H1627 H 0.72599 0.37013 0.45718 0.0
H1628 H 0.76634 0.39226 0.46764 0.0
H1629 H 0.75167 0.45174 0.43243 0.0
H1630 H 0.71133 0.42985 0.42149 0.0
H1631 H 0.57711 0.37821 0.47482 0.0
H1632 H 0.61253 0.36279 0.4631 0.0
H1633 H 0.63568 0.42241 0.42051 0.0
H1634 H 0.60039 0.43803 0.4323 0.0
H1635 H 0.6733 0.41055 0.44648 0.0
H1636 H 0.60953 0.37398 0.39646 0.0
H1637 H 0.56897 0.35153 0.38713 0.0
H1638 H 0.5842 0.29337 0.4242 0.0
H1639 H 0.62475 0.31561 0.43402 0.0
C1640 C 0.74563 0.35591 0.3902 0.0
C1641 C 0.74637 0.33266 0.39504 0.0
C1642 C 0.72707 0.36607 0.39883 0.0
C1643 C 0.70909 0.3533 0.41275 0.0
C1644 C 0.71017 0.33033 0.4181 0.0
C1645 C 0.72853 0.3201 0.40932 0.0
C1646 C 0.68834 0.36334 0.42067 0.0
C1647 C 0.66482 0.35105 0.41613 0.0
C1648 C 0.69147 0.38506 0.43179 0.0
C1649 C 0.71573 0.39827 0.43832 0.0
C1650 C 0.73144 0.38786 0.4515 0.0
C1651 C 0.7543 0.40038 0.45755 0.0
C1652 C 0.76159 0.42337 0.45065 0.0
C1653 C 0.74601 0.43392 0.43774 0.0
C1654 C 0.72314 0.42147 0.43163 0.0
C1655 C 0.58983 0.38807 0.46305 0.0
C1656 C 0.58595 0.40925 0.45437 0.0
C1657 C 0.60996 0.37921 0.45631 0.0
C1658 C 0.6266 0.39142 0.44085 0.0
C1659 C 0.62301 0.41274 0.43244 0.0
C1660 C 0.60276 0.42152 0.43903 0.0
C1661 C 0.64754 0.3817 0.43316 0.0
C1662 C 0.67099 0.39408 0.43765 0.0
C1663 C 0.64441 0.35998 0.42215 0.0
C1664 C 0.62008 0.34654 0.41616 0.0
C1665 C 0.60416 0.35647 0.40278 0.0
C1666 C 0.58118 0.34377 0.39737 0.0
C1667 C 0.57399 0.32106 0.40512 0.0
C1668 C 0.58979 0.31098 0.41824 0.0
C1669 C 0.61277 0.32361 0.42371 0.0
H1670 H 0.5562 0.31126 0.40092 0.0
H1671 H 0.77929 0.43303 0.45536 0.0
loop_
_geom_bond_atom_site_label_1
_geom_bond_atom_site_label_2
_geom_bond_distance
_geom_bond_site_symmetry_2
_ccdc_geom_bond_type
C0 C1 1.386 . S
C0 C2 1.397 . S
C0 H24 0.931 . S
C1 C0 1.386 . S
C1 C5 1.397 . S
C2 C0 1.397 . S
C2 C3 1.384 . S
C2 H25 0.930 . S
C3 C2 1.384 . S
C3 C4 1.377 . S
C3 C6 1.481 . S
C4 C3 1.377 . S
C4 C5 1.389 . S
C4 H26 0.929 . S
C5 C1 1.397 . S
C5 C4 1.389 . S
C5 H27 0.931 . S
C6 C3 1.481 . S
C6 C7 1.387 . S
C6 C11 1.390 . S
C7 C6 1.387 . S
C7 C8 1.401 . S
C7 H28 0.930 . S
C8 C7 1.401 . S
C8 C9 1.376 . S
C8 C17 1.511 . S
C9 C8 1.376 . S
C9 C10 1.392 . S
C9 H30 0.931 . S
C10 C9 1.392 . S
C10 C11 1.361 . S
C10 C12 1.500 . S
C11 C6 1.390 . S
C11 C10 1.361 . S
C11 H29 0.931 . S
C12 C10 1.500 . S
C12 C13 1.371 . S
C12 C14 1.365 . S
C13 C12 1.371 . S
C13 C23 1.386 . S
C13 H31 0.931 . S
C14 C12 1.365 . S
C14 C15 1.409 . S
C14 H32 0.929 . S
C15 C14 1.409 . S
C15 C16 1.380 . S
C15 H33 0.930 . S
C16 C15 1.380 . S
C16 C23 1.357 . S
C17 C8 1.511 . S
C17 C18 1.341 . S
C17 C19 1.371 . S
C18 C17 1.341 . S
C18 C22 1.394 . S
C18 H34 0.930 . S
C19 C17 1.371 . S
C19 C20 1.392 . S
C19 H35 0.931 . S
C20 C19 1.392 . S
C20 C21 1.331 . S
C20 H38 0.932 . S
C21 C20 1.331 . S
C21 C22 1.336 . S
C22 C18 1.394 . S
C22 C21 1.336 . S
C22 H37 0.929 . S
C23 C13 1.386 . S
C23 C16 1.357 . S
C23 H36 0.928 . S
H24 C0 0.931 . S
H25 C2 0.930 . S
H26 C4 0.929 . S
H27 C5 0.931 . S
H28 C7 0.930 . S
H29 C11 0.931 . S
H30 C9 0.931 . S
H31 C13 0.931 . S
H32 C14 0.929 . S
H33 C15 0.930 . S
H34 C18 0.930 . S
H35 C19 0.931 . S
H36 C23 0.928 . S
H37 C22 0.929 . S
H38 C20 0.932 . S
C39 C40 1.386 . S
C39 C41 1.397 . S
C39 H63 0.931 . S
C40 C39 1.386 . S
C40 C44 1.397 . S
C41 C39 1.397 . S
C41 C42 1.384 . S
C41 H64 0.930 . S
C42 C41 1.384 . S
C42 C43 1.377 . S
C42 C45 1.481 . S
C43 C42 1.377 . S
C43 C44 1.389 . S
C43 H65 0.929 . S
C44 C40 1.397 . S
C44 C43 1.389 . S
C44 H66 0.931 . S
C45 C42 1.481 . S
C45 C46 1.387 . S
C45 C50 1.390 . S
C46 C45 1.387 . S
C46 C47 1.401 . S
C46 H67 0.930 . S
C47 C46 1.401 . S
C47 C48 1.376 . S
C47 C56 1.511 . S
C48 C47 1.376 . S
C48 C49 1.392 . S
C48 H69 0.931 . S
C49 C48 1.392 . S
C49 C50 1.361 . S
C49 C51 1.500 . S
C50 C45 1.390 . S
C50 C49 1.361 . S
C50 H68 0.931 . S
C51 C49 1.500 . S
C51 C52 1.371 . S
C51 C53 1.365 . S
C52 C51 1.371 . S
C52 C62 1.386 . S
C52 H70 0.931 . S
C53 C51 1.365 . S
C53 C54 1.409 . S
C53 H71 0.929 . S
C54 C53 1.409 . S
C54 C55 1.380 . S
C54 H72 0.930 . S
C55 C54 1.380 . S
C55 C62 1.357 . S
C56 C47 1.511 . S
C56 C57 1.341 . S
C56 C58 1.371 . S
C57 C56 1.341 . S
C57 C61 1.394 . S
C57 H73 0.930 . S
C58 C56 1.371 . S
C58 C59 1.392 . S
C58 H74 0.931 . S
C59 C58 1.392 . S
C59 C60 1.331 . S
C59 H77 0.932 . S
C60 C59 1.331 . S
C60 C61 1.336 . S
C61 C57 1.394 . S
C61 C60 1.336 . S
C61 H76 0.929 . S
C62 C52 1.386 . S
C62 C55 1.357 . S
C62 H75 0.928 . S
H63 C39 0.931 . S
H64 C41 0.930 . S
H65 C43 0.929 . S
H66 C44 0.931 . S
H67 C46 0.930 . S
H68 C50 0.931 . S
H69 C48 0.931 . S
H70 C52 0.931 . S
H71 C53 0.929 . S
H72 C54 0.930 . S
H73 C57 0.930 . S
H74 C58 0.931 . S
H75 C62 0.928 . S
H76 C61 0.929 . S
H77 C59 0.932 . S
C78 C79 1.386 . S
C78 C80 1.397 . S
C78 H102 0.931 . S
C79 C78 1.386 . S
C79 C83 1.397 . S
C80 C78 1.397 . S
C80 C81 1.384 . S
C80 H103 0.930 . S
C81 C80 1.384 . S
C81 C82 1.377 . S
C81 C84 1.481 . S
C82 C81 1.377 . S
C82 C83 1.389 . S
C82 H104 0.929 . S
C83 C79 1.397 . S
C83 C82 1.389 . S
C83 H105 0.931 . S
C84 C81 1.481 . S
C84 C85 1.387 . S
C84 C89 1.390 . S
C85 C84 1.387 . S
C85 C86 1.401 . S
C85 H106 0.930 . S
C86 C85 1.401 . S
C86 C87 1.376 . S
C86 C95 1.511 . S
C87 C86 1.376 . S
C87 C88 1.392 . S
C87 H108 0.931 . S
C88 C87 1.392 . S
C88 C89 1.361 . S
C88 C90 1.500 . S
C89 C84 1.390 . S
C89 C88 1.361 . S
C89 H107 0.931 . S
C90 C88 1.500 . S
C90 C91 1.371 . S
C90 C92 1.365 . S
C91 C90 1.371 . S
C91 C101 1.386 . S
C91 H109 0.931 . S
C92 C90 1.365 . S
C92 C93 1.409 . S
C92 H110 0.929 . S
C93 C92 1.409 . S
C93 C94 1.380 . S
C93 H111 0.930 . S
C94 C93 1.380 . S
C94 C101 1.357 . S
C95 C86 1.511 . S
C95 C96 1.341 . S
C95 C97 1.371 . S
C96 C95 1.341 . S
C96 C100 1.394 . S
C96 H112 0.930 . S
C97 C95 1.371 . S
C97 C98 1.392 . S
C97 H113 0.931 . S
C98 C97 1.392 . S
C98 C99 1.331 . S
C98 H116 0.932 . S
C99 C98 1.331 . S
C99 C100 1.336 . S
C100 C96 1.394 . S
C100 C99 1.336 . S
C100 H115 0.929 . S
C101 C91 1.386 . S
C101 C94 1.357 . S
C101 H114 0.928 . S
H102 C78 0.931 . S
H103 C80 0.930 . S
H104 C82 0.929 . S
H105 C83 0.931 . S
H106 C85 0.930 . S
H107 C89 0.931 . S
H108 C87 0.931 . S
H109 C91 0.931 . S
H110 C92 0.929 . S
H111 C93 0.930 . S
H112 C96 0.930 . S
H113 C97 0.931 . S
H114 C101 0.928 . S
H115 C100 0.929 . S
H116 C98 0.932 . S
C117 C118 1.386 . S
C117 C119 1.397 . S
C117 H141 0.931 . S
C118 C117 1.386 . S
C118 C122 1.397 . S
C119 C117 1.397 . S
C119 C120 1.384 . S
C119 H142 0.930 . S
C120 C119 1.384 . S
C120 C121 1.377 . S
C120 C123 1.481 . S
C121 C120 1.377 . S
C121 C122 1.389 . S
C121 H143 0.929 . S
C122 C118 1.397 . S
C122 C121 1.389 . S
C122 H144 0.931 . S
C123 C120 1.481 . S
C123 C124 1.387 . S
C123 C128 1.390 . S
C124 C123 1.387 . S
C124 C125 1.401 . S
C124 H145 0.930 . S
C125 C124 1.401 . S
C125 C126 1.376 . S
C125 C134 1.511 . S
C126 C125 1.376 . S
C126 C127 1.392 . S
C126 H147 0.931 . S
C127 C126 1.392 . S
C127 C128 1.361 . S
C127 C129 1.500 . S
C128 C123 1.390 . S
C128 C127 1.361 . S
C128 H146 0.931 . S
C129 C127 1.500 . S
C129 C130 1.371 . S
C129 C131 1.365 . S
C130 C129 1.371 . S
C130 C140 1.386 . S
C130 H148 0.931 . S
C131 C129 1.365 . S
C131 C132 1.409 . S
C131 H149 0.929 . S
C132 C131 1.409 . S
C132 C133 1.380 . S
C132 H150 0.930 . S
C133 C132 1.380 . S
C133 C140 1.357 . S
C134 C125 1.511 . S
C134 C135 1.341 . S
C134 C136 1.371 . S
C135 C134 1.341 . S
C135 C139 1.394 . S
C135 H151 0.930 . S
C136 C134 1.371 . S
C136 C137 1.392 . S
C136 H152 0.931 . S
C137 C136 1.392 . S
C137 C138 1.331 . S
C137 H155 0.932 . S
C138 C137 1.331 . S
C138 C139 1.336 . S
C139 C135 1.394 . S
C139 C138 1.336 . S
C139 H154 0.929 . S
C140 C130 1.386 . S
C140 C133 1.357 . S
C140 H153 0.928 . S
H141 C117 0.931 . S
H142 C119 0.930 . S
H143 C121 0.929 . S
H144 C122 0.931 . S
H145 C124 0.930 . S
H146 C128 0.931 . S
H147 C126 0.931 . S
H148 C130 0.931 . S
H149 C131 0.929 . S
H150 C132 0.930 . S
H151 C135 0.930 . S
H152 C136 0.931 . S
H153 C140 0.928 . S
H154 C139 0.929 . S
H155 C137 0.932 . S
C156 C157 1.386 . S
C156 C158 1.397 . S
C156 H180 0.931 . S
C157 C156 1.386 . S
C157 C161 1.397 . S
C158 C156 1.397 . S
C158 C159 1.384 . S
C158 H181 0.930 . S
C159 C158 1.384 . S
C159 C160 1.377 . S
C159 C162 1.481 . S
C160 C159 1.377 . S
C160 C161 1.389 . S
C160 H182 0.929 . S
C161 C157 1.397 . S
C161 C160 1.389 . S
C161 H183 0.931 . S
C162 C159 1.481 . S
C162 C163 1.387 . S
C162 C167 1.390 . S
C163 C162 1.387 . S
C163 C164 1.401 . S
C163 H184 0.930 . S
C164 C163 1.401 . S
C164 C165 1.376 . S
C164 C173 1.511 . S
C165 C164 1.376 . S
C165 C166 1.392 . S
C165 H186 0.931 . S
C166 C165 1.392 . S
C166 C167 1.361 . S
C166 C168 1.500 . S
C167 C162 1.390 . S
C167 C166 1.361 . S
C167 H185 0.931 . S
C168 C166 1.500 . S
C168 C169 1.371 . S
C168 C170 1.365 . S
C169 C168 1.371 . S
C169 C179 1.386 . S
C169 H187 0.931 . S
C170 C168 1.365 . S
C170 C171 1.409 . S
C170 H188 0.929 . S
C171 C170 1.409 . S
C171 C172 1.380 . S
C171 H189 0.930 . S
C172 C171 1.380 . S
C172 C179 1.357 . S
C173 C164 1.511 . S
C173 C174 1.341 . S
C173 C175 1.371 . S
C174 C173 1.341 . S
C174 C178 1.394 . S
C174 H190 0.930 . S
C175 C173 1.371 . S
C175 C176 1.392 . S
C175 H191 0.931 . S
C176 C175 1.392 . S
C176 C177 1.331 . S
C176 H194 0.932 . S
C177 C176 1.331 . S
C177 C178 1.336 . S
C178 C174 1.394 . S
C178 C177 1.336 . S
C178 H193 0.929 . S
C179 C169 1.386 . S
C179 C172 1.357 . S
C179 H192 0.928 . S
H180 C156 0.931 . S
H181 C158 0.930 . S
H182 C160 0.929 . S
H183 C161 0.931 . S
H184 C163 0.930 . S
H185 C167 0.931 . S
H186 C165 0.931 . S
H187 C169 0.931 . S
H188 C170 0.929 . S
H189 C171 0.930 . S
H190 C174 0.930 . S
H191 C175 0.931 . S
H192 C179 0.928 . S
H193 C178 0.929 . S
H194 C176 0.932 . S
C195 C196 1.386 . S
C195 C197 1.397 . S
C195 H219 0.931 . S
C196 C195 1.386 . S
C196 C200 1.397 . S
C197 C195 1.397 . S
C197 C198 1.384 . S
C197 H220 0.930 . S
C198 C197 1.384 . S
C198 C199 1.377 . S
C198 C201 1.481 . S
C199 C198 1.377 . S
C199 C200 1.389 . S
C199 H221 0.929 . S
C200 C196 1.397 . S
C200 C199 1.389 . S
C200 H222 0.931 . S
C201 C198 1.481 . S
C201 C202 1.387 . S
C201 C206 1.390 . S
C202 C201 1.387 . S
C202 C203 1.401 . S
C202 H223 0.930 . S
C203 C202 1.401 . S
C203 C204 1.376 . S
C203 C212 1.511 . S
C204 C203 1.376 . S
C204 C205 1.392 . S
C204 H225 0.931 . S
C205 C204 1.392 . S
C205 C206 1.361 . S
C205 C207 1.500 . S
C206 C201 1.390 . S
C206 C205 1.361 . S
C206 H224 0.931 . S
C207 C205 1.500 . S
C207 C208 1.371 . S
C207 C209 1.365 . S
C208 C207 1.371 . S
C208 C218 1.386 . S
C208 H226 0.931 . S
C209 C207 1.365 . S
C209 C210 1.409 . S
C209 H227 0.929 . S
C210 C209 1.409 . S
C210 C211 1.380 . S
C210 H228 0.930 . S
C211 C210 1.380 . S
C211 C218 1.357 . S
C212 C203 1.511 . S
C212 C213 1.341 . S
C212 C214 1.371 . S
C213 C212 1.341 . S
C213 C217 1.394 . S
C213 H229 0.930 . S
C214 C212 1.371 . S
C214 C215 1.392 . S
C214 H230 0.931 . S
C215 C214 1.392 . S
C215 C216 1.331 . S
C215 H233 0.932 . S
C216 C215 1.331 . S
C216 C217 1.336 . S
C217 C213 1.394 . S
C217 C216 1.336 . S
C217 H232 0.929 . S
C218 C208 1.386 . S
C218 C211 1.357 . S
C218 H231 0.928 . S
H219 C195 0.931 . S
H220 C197 0.930 . S
H221 C199 0.929 . S
H222 C200 0.931 . S
H223 C202 0.930 . S
H224 C206 0.931 . S
H225 C204 0.931 . S
H226 C208 0.931 . S
H227 C209 0.929 . S
H228 C210 0.930 . S
H229 C213 0.930 . S
H230 C214 0.931 . S
H231 C218 0.928 . S
H232 C217 0.929 . S
H233 C215 0.932 . S
C234 C235 1.386 . S
C234 C236 1.397 . S
C234 H258 0.931 . S
C235 C234 1.386 . S
C235 C239 1.397 . S
C236 C234 1.397 . S
C236 C237 1.384 . S
C236 H259 0.930 . S
C237 C236 1.384 . S
C237 C238 1.377 . S
C237 C240 1.481 . S
C238 C237 1.377 . S
C238 C239 1.389 . S
C238 H260 0.929 . S
C239 C235 1.397 . S
C239 C238 1.389 . S
C239 H261 0.931 . S
C240 C237 1.481 . S
C240 C241 1.387 . S
C240 C245 1.390 . S
C241 C240 1.387 . S
C241 C242 1.401 . S
C241 H262 0.930 . S
C242 C241 1.401 . S
C242 C243 1.376 . S
C242 C251 1.511 . S
C243 C242 1.376 . S
C243 C244 1.392 . S
C243 H264 0.931 . S
C244 C243 1.392 . S
C244 C245 1.361 . S
C244 C246 1.500 . S
C245 C240 1.390 . S
C245 C244 1.361 . S
C245 H263 0.931 . S
C246 C244 1.500 . S
C246 C247 1.371 . S
C246 C248 1.365 . S
C247 C246 1.371 . S
C247 C257 1.386 . S
C247 H265 0.931 . S
C248 C246 1.365 . S
C248 C249 1.409 . S
C248 H266 0.929 . S
C249 C248 1.409 . S
C249 C250 1.380 . S
C249 H267 0.930 . S
C250 C249 1.380 . S
C250 C257 1.357 . S
C251 C242 1.511 . S
C251 C252 1.341 . S
C251 C253 1.371 . S
C252 C251 1.341 . S
C252 C256 1.394 . S
C252 H268 0.930 . S
C253 C251 1.371 . S
C253 C254 1.392 . S
C253 H269 0.931 . S
C254 C253 1.392 . S
C254 C255 1.331 . S
C254 H272 0.932 . S
C255 C254 1.331 . S
C255 C256 1.336 . S
C256 C252 1.394 . S
C256 C255 1.336 . S
C256 H271 0.929 . S
C257 C247 1.386 . S
C257 C250 1.357 . S
C257 H270 0.928 . S
H258 C234 0.931 . S
H259 C236 0.930 . S
H260 C238 0.929 . S
H261 C239 0.931 . S
H262 C241 0.930 . S
H263 C245 0.931 . S
H264 C243 0.931 . S
H265 C247 0.931 . S
H266 C248 0.929 . S
H267 C249 0.930 . S
H268 C252 0.930 . S
H269 C253 0.931 . S
H270 C257 0.928 . S
H271 C256 0.929 . S
H272 C254 0.932 . S
C273 C274 1.386 . S
C273 C275 1.397 . S
C273 H297 0.931 . S
C274 C273 1.386 . S
C274 C278 1.397 . S
C275 C273 1.397 . S
C275 C276 1.384 . S
C275 H298 0.930 . S
C276 C275 1.384 . S
C276 C277 1.377 . S
C276 C279 1.481 . S
C277 C276 1.377 . S
C277 C278 1.389 . S
C277 H299 0.929 . S
C278 C274 1.397 . S
C278 C277 1.389 . S
C278 H300 0.931 . S
C279 C276 1.481 . S
C279 C280 1.387 . S
C279 C284 1.390 . S
C280 C279 1.387 . S
C280 C281 1.401 . S
C280 H301 0.930 . S
C281 C280 1.401 . S
C281 C282 1.376 . S
C281 C290 1.511 . S
C282 C281 1.376 . S
C282 C283 1.392 . S
C282 H303 0.931 . S
C283 C282 1.392 . S
C283 C284 1.361 . S
C283 C285 1.500 . S
C284 C279 1.390 . S
C284 C283 1.361 . S
C284 H302 0.931 . S
C285 C283 1.500 . S
C285 C286 1.371 . S
C285 C287 1.365 . S
C286 C285 1.371 . S
C286 C296 1.386 . S
C286 H304 0.931 . S
C287 C285 1.365 . S
C287 C288 1.409 . S
C287 H305 0.929 . S
C288 C287 1.409 . S
C288 C289 1.380 . S
C288 H306 0.930 . S
C289 C288 1.380 . S
C289 C296 1.357 . S
C290 C281 1.511 . S
C290 C291 1.341 . S
C290 C292 1.371 . S
C291 C290 1.341 . S
C291 C295 1.394 . S
C291 H307 0.930 . S
C292 C290 1.371 . S
C292 C293 1.392 . S
C292 H308 0.931 . S
C293 C292 1.392 . S
C293 C294 1.331 . S
C293 H311 0.932 . S
C294 C293 1.331 . S
C294 C295 1.336 . S
C295 C291 1.394 . S
C295 C294 1.336 . S
C295 H310 0.929 . S
C296 C286 1.386 . S
C296 C289 1.357 . S
C296 H309 0.928 . S
H297 C273 0.931 . S
H298 C275 0.930 . S
H299 C277 0.929 . S
H300 C278 0.931 . S
H301 C280 0.930 . S
H302 C284 0.931 . S
H303 C282 0.931 . S
H304 C286 0.931 . S
H305 C287 0.929 . S
H306 C288 0.930 . S
H307 C291 0.930 . S
H308 C292 0.931 . S
H309 C296 0.928 . S
H310 C295 0.929 . S
H311 C293 0.932 . S
Dy312 O315 2.307 1_545 S
Dy312 O317 2.395 . S
Dy312 O318 2.379 . S
Dy312 O320 2.339 1_545 S
Dy312 O322 2.298 1_455 S
Dy312 O326 2.275 . S
Dy312 C334 2.738 . S
Dy313 O316 2.327 1_655 S
Dy313 O319 2.305 . S
Dy313 O321 2.272 1_565 S
Dy313 O323 2.439 . S
Dy313 O324 2.387 . S
Dy313 O327 2.299 1_565 S
Dy313 C343 2.767 . S
C314 O326 1.254 . S
C314 O327 1.257 1_455 S
O315 Dy312 2.307 1_565 S
O315 C325 1.266 . S
O316 Dy313 2.327 1_455 S
O316 C325 1.236 . S
O317 Dy312 2.395 . S
O317 C334 1.255 . S
O318 Dy312 2.379 . S
O318 C334 1.249 . S
O319 Dy313 2.305 . S
O319 C335 1.254 . S
O320 Dy312 2.339 1_565 S
O320 C335 1.257 1_455 S
O321 Dy313 2.272 1_545 S
O321 C336 1.266 . S
O322 Dy312 2.298 1_655 S
O322 C336 1.236 . S
O323 Dy313 2.439 . S
O323 C343 1.255 . S
O324 Dy313 2.387 . S
O324 C343 1.249 . S
C325 O315 1.266 . S
C325 O316 1.236 . S
O326 Dy312 2.275 . S
O326 C314 1.254 . S
O327 Dy313 2.299 1_545 S
O327 C314 1.257 1_655 S
C328 C331 1.344 . S
C328 C332 1.328 . S
C328 C334 1.516 . S
C329 C330 1.304 . S
C329 C333 1.323 . S
C330 C329 1.304 . S
C330 C331 1.371 . S
C330 H344 0.930 . S
C331 C328 1.344 . S
C331 C330 1.371 . S
C331 H345 0.931 . S
C332 C328 1.328 . S
C332 C333 1.433 . S
C332 H346 0.931 . S
C333 C329 1.323 . S
C333 C332 1.433 . S
C333 H347 0.933 . S
C334 Dy312 2.738 . S
C334 O317 1.255 . S
C334 O318 1.249 . S
C334 C328 1.516 . S
C335 O319 1.254 . S
C335 O320 1.257 1_655 S
C336 O321 1.266 . S
C336 O322 1.236 . S
C337 C340 1.344 . S
C337 C341 1.328 . S
C337 C343 1.516 . S
C338 C339 1.304 . S
C338 C342 1.323 . S
C339 C338 1.304 . S
C339 C340 1.371 . S
C339 H348 0.930 . S
C340 C337 1.344 . S
C340 C339 1.371 . S
C340 H349 0.931 . S
C341 C337 1.328 . S
C341 C342 1.433 . S
C341 H350 0.931 . S
C342 C338 1.323 . S
C342 C341 1.433 . S
C342 H351 0.933 . S
C343 Dy313 2.767 . S
C343 O323 1.255 . S
C343 O324 1.249 . S
C343 C337 1.516 . S
H344 C330 0.930 . S
H345 C331 0.931 . S
H346 C332 0.931 . S
H347 C333 0.933 . S
H348 C339 0.930 . S
H349 C340 0.931 . S
H350 C341 0.931 . S
H351 C342 0.933 . S
Dy352 O355 2.307 1_566 S
Dy352 O357 2.395 . S
Dy352 O358 2.379 . S
Dy352 O360 2.339 1_565 S
Dy352 O362 2.298 . S
Dy352 O366 2.275 1_556 S
Dy352 C374 2.738 . S
Dy353 O356 2.298 . S
Dy353 O359 2.275 1_554 S
Dy353 O361 2.307 1_544 S
Dy353 O363 2.395 . S
Dy353 O364 2.379 . S
Dy353 O367 2.339 1_545 S
Dy353 C383 2.738 . S
C354 O366 1.254 . S
C354 O367 1.257 . S
O355 Dy352 2.307 1_544 S
O355 C365 1.266 . S
O356 Dy353 2.298 . S
O356 C365 1.236 . S
O357 Dy352 2.395 . S
O357 C374 1.255 . S
O358 Dy352 2.379 . S
O358 C374 1.249 . S
O359 Dy353 2.275 1_556 S
O359 C375 1.254 . S
O360 Dy352 2.339 1_545 S
O360 C375 1.257 . S
O361 Dy353 2.307 1_566 S
O361 C376 1.266 . S
O362 Dy352 2.298 . S
O362 C376 1.236 . S
O363 Dy353 2.395 . S
O363 C383 1.255 . S
O364 Dy353 2.379 . S
O364 C383 1.249 . S
C365 O355 1.266 . S
C365 O356 1.236 . S
O366 Dy352 2.275 1_554 S
O366 C354 1.254 . S
O367 Dy353 2.339 1_565 S
O367 C354 1.257 . S
C368 C371 1.344 . S
C368 C372 1.328 . S
C368 C374 1.516 . S
C369 C370 1.304 . S
C369 C373 1.323 . S
C370 C369 1.304 . S
C370 C371 1.371 . S
C370 H384 0.930 . S
C371 C368 1.344 . S
C371 C370 1.371 . S
C371 H385 0.931 . S
C372 C368 1.328 . S
C372 C373 1.433 . S
C372 H386 0.931 . S
C373 C369 1.323 . S
C373 C372 1.433 . S
C373 H387 0.933 . S
C374 Dy352 2.738 . S
C374 O357 1.255 . S
C374 O358 1.249 . S
C374 C368 1.516 . S
C375 O359 1.254 . S
C375 O360 1.257 . S
C376 O361 1.266 . S
C376 O362 1.236 . S
C377 C380 1.344 . S
C377 C381 1.328 . S
C377 C383 1.516 . S
C378 C379 1.304 . S
C378 C382 1.323 . S
C379 C378 1.304 . S
C379 C380 1.371 . S
C379 H388 0.930 . S
C380 C377 1.344 . S
C380 C379 1.371 . S
C380 H389 0.931 . S
C381 C377 1.328 . S
C381 C382 1.433 . S
C381 H390 0.931 . S
C382 C378 1.323 . S
C382 C381 1.433 . S
C382 H391 0.933 . S
C383 Dy353 2.738 . S
C383 O363 1.255 . S
C383 O364 1.249 . S
C383 C377 1.516 . S
H384 C370 0.930 . S
H385 C371 0.931 . S
H386 C372 0.931 . S
H387 C373 0.933 . S
H388 C379 0.930 . S
H389 C380 0.931 . S
H390 C381 0.931 . S
H391 C382 0.933 . S
Dy392 O395 2.307 . S
Dy392 O397 2.395 . S
Dy392 O398 2.379 . S
Dy392 O400 2.339 . S
Dy392 O402 2.298 . S
Dy392 O406 2.275 . S
Dy392 C414 2.738 . S
Dy393 O396 2.298 . S
Dy393 O399 2.275 . S
Dy393 O401 2.307 . S
Dy393 O403 2.395 . S
Dy393 O404 2.379 . S
Dy393 O407 2.339 . S
Dy393 C423 2.738 . S
C394 O406 1.254 . S
C394 O407 1.257 . S
O395 Dy392 2.307 . S
O395 C405 1.266 . S
O396 Dy393 2.298 . S
O396 C405 1.236 . S
O397 Dy392 2.395 . S
O397 C414 1.255 . S
O398 Dy392 2.379 . S
O398 C414 1.249 . S
O399 Dy393 2.275 . S
O399 C415 1.254 . S
O400 Dy392 2.339 . S
O400 C415 1.257 . S
O401 Dy393 2.307 . S
O401 C416 1.266 . S
O402 Dy392 2.298 . S
O402 C416 1.236 . S
O403 Dy393 2.395 . S
O403 C423 1.255 . S
O404 Dy393 2.379 . S
O404 C423 1.249 . S
C405 O395 1.266 . S
C405 O396 1.236 . S
O406 Dy392 2.275 . S
O406 C394 1.254 . S
O407 Dy393 2.339 . S
O407 C394 1.257 . S
C408 C411 1.344 . S
C408 C412 1.328 . S
C408 C414 1.516 . S
C409 C410 1.304 . S
C409 C413 1.323 . S
C410 C409 1.304 . S
C410 C411 1.371 . S
C410 H424 0.930 . S
C411 C408 1.344 . S
C411 C410 1.371 . S
C411 H425 0.931 . S
C412 C408 1.328 . S
C412 C413 1.433 . S
C412 H426 0.931 . S
C413 C409 1.323 . S
C413 C412 1.433 . S
C413 H427 0.933 . S
C414 Dy392 2.738 . S
C414 O397 1.255 . S
C414 O398 1.249 . S
C414 C408 1.516 . S
C415 O399 1.254 . S
C415 O400 1.257 . S
C416 O401 1.266 . S
C416 O402 1.236 . S
C417 C420 1.344 . S
C417 C421 1.328 . S
C417 C423 1.516 . S
C418 C419 1.304 . S
C418 C422 1.323 . S
C419 C418 1.304 . S
C419 C420 1.371 . S
C419 H428 0.930 . S
C420 C417 1.344 . S
C420 C419 1.371 . S
C420 H429 0.931 . S
C421 C417 1.328 . S
C421 C422 1.433 . S
C421 H430 0.931 . S
C422 C418 1.323 . S
C422 C421 1.433 . S
C422 H431 0.933 . S
C423 Dy393 2.738 . S
C423 O403 1.255 . S
C423 O404 1.249 . S
C423 C417 1.516 . S
H424 C410 0.930 . S
H425 C411 0.931 . S
H426 C412 0.931 . S
H427 C413 0.933 . S
H428 C419 0.930 . S
H429 C420 0.931 . S
H430 C421 0.931 . S
H431 C422 0.933 . S
Dy432 O435 2.286 1_656 S
Dy432 O437 2.395 . S
Dy432 O438 2.379 . S
Dy432 O440 2.339 1_655 S
Dy432 O442 2.298 . S
Dy432 O446 2.275 1_556 S
Dy432 C454 2.738 . S
Dy433 O436 2.298 . S
Dy433 O439 2.275 1_554 S
Dy433 O441 2.324 1_455 S
Dy433 O443 2.395 . S
Dy433 O444 2.379 . S
Dy433 O447 2.339 1_455 S
Dy433 C463 2.738 . S
C434 O446 1.254 . S
C434 O447 1.257 . S
O435 Dy432 2.286 1_454 S
O435 C445 1.301 . S
O436 Dy433 2.298 . S
O436 C445 1.236 . S
O437 Dy432 2.395 . S
O437 C454 1.255 . S
O438 Dy432 2.379 . S
O438 C454 1.249 . S
O439 Dy433 2.275 1_556 S
O439 C455 1.254 . S
O440 Dy432 2.339 1_455 S
O440 C455 1.257 . S
O441 Dy433 2.324 1_655 S
O441 C456 1.240 1_554 S
O442 Dy432 2.298 . S
O442 C456 1.236 . S
O443 Dy433 2.395 . S
O443 C463 1.255 . S
O444 Dy433 2.379 . S
O444 C463 1.249 . S
C445 O435 1.301 . S
C445 O436 1.236 . S
O446 Dy432 2.275 1_554 S
O446 C434 1.254 . S
O447 Dy433 2.339 1_655 S
O447 C434 1.257 . S
C448 C451 1.344 . S
C448 C452 1.328 . S
C448 C454 1.516 . S
C449 C450 1.304 . S
C449 C453 1.323 . S
C450 C449 1.304 . S
C450 C451 1.371 . S
C450 H464 0.930 . S
C451 C448 1.344 . S
C451 C450 1.371 . S
C451 H465 0.931 . S
C452 C448 1.328 . S
C452 C453 1.433 . S
C452 H466 0.931 . S
C453 C449 1.323 . S
C453 C452 1.433 . S
C453 H467 0.933 . S
C454 Dy432 2.738 . S
C454 O437 1.255 . S
C454 O438 1.249 . S
C454 C448 1.516 . S
C455 O439 1.254 . S
C455 O440 1.257 . S
C456 O441 1.240 1_556 S
C456 O442 1.236 . S
C457 C460 1.344 . S
C457 C461 1.328 . S
C457 C463 1.516 . S
C458 C459 1.304 . S
C458 C462 1.323 . S
C459 C458 1.304 . S
C459 C460 1.371 . S
C459 H468 0.930 . S
C460 C457 1.344 . S
C460 C459 1.371 . S
C460 H469 0.931 . S
C461 C457 1.328 . S
C461 C462 1.433 . S
C461 H470 0.931 . S
C462 C458 1.323 . S
C462 C461 1.433 . S
C462 H471 0.933 . S
C463 Dy433 2.738 . S
C463 O443 1.255 . S
C463 O444 1.249 . S
C463 C457 1.516 . S
H464 C450 0.930 . S
H465 C451 0.931 . S
H466 C452 0.931 . S
H467 C453 0.933 . S
H468 C459 0.930 . S
H469 C460 0.931 . S
H470 C461 0.931 . S
H471 C462 0.933 . S
H472 C490 0.951 . S
H473 C492 0.951 . S
H474 C494 0.950 . S
H475 C495 0.950 . S
H476 C497 0.950 . S
H477 C500 0.950 . S
H478 C501 0.950 . S
H479 C503 0.950 . S
H480 C504 0.950 . S
H481 C505 0.951 . S
H482 C507 0.951 . S
H483 C509 0.950 . S
H484 C510 0.950 . S
H485 C512 0.950 . S
H486 C515 0.950 . S
H487 C516 0.950 . S
H488 C518 0.950 . S
H489 C519 0.950 . S
C490 H472 0.951 . S
C490 C491 1.366 . S
C490 C492 1.388 . S
C491 C490 1.366 . S
C491 C495 1.385 . S
C492 H473 0.951 . S
C492 C490 1.388 . S
C492 C493 1.366 . S
C493 C492 1.366 . S
C493 C494 1.414 . S
C493 C496 1.499 . S
C494 H474 0.950 . S
C494 C493 1.414 . S
C494 C495 1.374 . S
C495 H475 0.950 . S
C495 C491 1.385 . S
C495 C494 1.374 . S
C496 C493 1.499 . S
C496 C497 1.373 . S
C496 C498 1.389 . S
C497 H476 0.950 . S
C497 C496 1.373 . S
C497 C513 1.377 . S
C498 C496 1.389 . S
C498 C499 1.524 . S
C498 C512 1.377 . S
C499 C498 1.524 . S
C499 C500 1.397 . S
C499 C504 1.363 . S
C500 H477 0.950 . S
C500 C499 1.397 . S
C500 C501 1.334 . S
C501 H478 0.950 . S
C501 C500 1.334 . S
C501 C502 1.287 . S
C502 C501 1.287 . S
C502 C503 1.524 . S
C502 H521 0.913 . S
C503 H479 0.950 . S
C503 C502 1.524 . S
C503 C504 1.415 . S
C504 H480 0.950 . S
C504 C499 1.363 . S
C504 C503 1.415 . S
C505 H481 0.951 . S
C505 C506 1.366 . S
C505 C507 1.388 . S
C506 C505 1.366 . S
C506 C510 1.385 . S
C507 H482 0.951 . S
C507 C505 1.388 . S
C507 C508 1.366 . S
C508 C507 1.366 . S
C508 C509 1.414 . S
C508 C511 1.499 . S
C509 H483 0.950 . S
C509 C508 1.414 . S
C509 C510 1.374 . S
C510 H484 0.950 . S
C510 C506 1.385 . S
C510 C509 1.374 . S
C511 C508 1.499 . S
C511 C512 1.373 . S
C511 C513 1.389 . S
C512 H485 0.950 . S
C512 C498 1.377 . S
C512 C511 1.373 . S
C513 C497 1.377 . S
C513 C511 1.389 . S
C513 C514 1.524 . S
C514 C513 1.524 . S
C514 C515 1.397 . S
C514 C519 1.363 . S
C515 H486 0.950 . S
C515 C514 1.397 . S
C515 C516 1.334 . S
C516 H487 0.950 . S
C516 C515 1.334 . S
C516 C517 1.287 . S
C517 C516 1.287 . S
C517 C518 1.524 . S
C517 H520 0.999 . S
C518 H488 0.950 . S
C518 C517 1.524 . S
C518 C519 1.415 . S
C519 H489 0.950 . S
C519 C514 1.363 . S
C519 C518 1.415 . S
H520 C517 0.999 . S
H521 C502 0.913 . S
H522 C540 0.951 . S
H523 C542 0.951 . S
H524 C544 0.950 . S
H525 C545 0.950 . S
H526 C547 0.950 . S
H527 C550 0.950 . S
H528 C551 0.950 . S
H529 C553 0.950 . S
H530 C554 0.950 . S
H531 C555 0.951 . S
H532 C557 0.951 . S
H533 C559 0.950 . S
H534 C560 0.950 . S
H535 C562 0.950 . S
H536 C565 0.950 . S
H537 C566 0.950 . S
H538 C568 0.950 . S
H539 C569 0.950 . S
C540 H522 0.951 . S
C540 C541 1.366 . S
C540 C542 1.388 . S
C541 C540 1.366 . S
C541 C545 1.385 . S
C542 H523 0.951 . S
C542 C540 1.388 . S
C542 C543 1.366 . S
C543 C542 1.366 . S
C543 C544 1.414 . S
C543 C546 1.499 . S
C544 H524 0.950 . S
C544 C543 1.414 . S
C544 C545 1.374 . S
C545 H525 0.950 . S
C545 C541 1.385 . S
C545 C544 1.374 . S
C546 C543 1.499 . S
C546 C547 1.373 . S
C546 C548 1.389 . S
C547 H526 0.950 . S
C547 C546 1.373 . S
C547 C563 1.377 . S
C548 C546 1.389 . S
C548 C549 1.524 . S
C548 C562 1.377 . S
C549 C548 1.524 . S
C549 C550 1.397 . S
C549 C554 1.363 . S
C550 H527 0.950 . S
C550 C549 1.397 . S
C550 C551 1.334 . S
C551 H528 0.950 . S
C551 C550 1.334 . S
C551 C552 1.287 . S
C552 C551 1.287 . S
C552 C553 1.524 . S
C552 H571 0.913 . S
C553 H529 0.950 . S
C553 C552 1.524 . S
C553 C554 1.415 . S
C554 H530 0.950 . S
C554 C549 1.363 . S
C554 C553 1.415 . S
C555 H531 0.951 . S
C555 C556 1.366 . S
C555 C557 1.388 . S
C556 C555 1.366 . S
C556 C560 1.385 . S
C557 H532 0.951 . S
C557 C555 1.388 . S
C557 C558 1.366 . S
C558 C557 1.366 . S
C558 C559 1.414 . S
C558 C561 1.499 . S
C559 H533 0.950 . S
C559 C558 1.414 . S
C559 C560 1.374 . S
C560 H534 0.950 . S
C560 C556 1.385 . S
C560 C559 1.374 . S
C561 C558 1.499 . S
C561 C562 1.373 . S
C561 C563 1.389 . S
C562 H535 0.950 . S
C562 C548 1.377 . S
C562 C561 1.373 . S
C563 C547 1.377 . S
C563 C561 1.389 . S
C563 C564 1.524 . S
C564 C563 1.524 . S
C564 C565 1.397 . S
C564 C569 1.363 . S
C565 H536 0.950 . S
C565 C564 1.397 . S
C565 C566 1.334 . S
C566 H537 0.950 . S
C566 C565 1.334 . S
C566 C567 1.287 . S
C567 C566 1.287 . S
C567 C568 1.524 . S
C567 H570 0.999 . S
C568 H538 0.950 . S
C568 C567 1.524 . S
C568 C569 1.415 . S
C569 H539 0.950 . S
C569 C564 1.363 . S
C569 C568 1.415 . S
H570 C567 0.999 . S
H571 C552 0.913 . S
H572 C590 0.951 . S
H573 C592 0.951 . S
H574 C594 0.950 . S
H575 C595 0.950 . S
H576 C597 0.950 . S
H577 C600 0.950 . S
H578 C601 0.950 . S
H579 C603 0.950 . S
H580 C604 0.950 . S
H581 C605 0.951 . S
H582 C607 0.951 . S
H583 C609 0.950 . S
H584 C610 0.950 . S
H585 C612 0.950 . S
H586 C615 0.950 . S
H587 C616 0.950 . S
H588 C618 0.950 . S
H589 C619 0.950 . S
C590 H572 0.951 . S
C590 C591 1.366 . S
C590 C592 1.388 . S
C591 C590 1.366 . S
C591 C595 1.385 . S
C592 H573 0.951 . S
C592 C590 1.388 . S
C592 C593 1.366 . S
C593 C592 1.366 . S
C593 C594 1.414 . S
C593 C596 1.499 . S
C594 H574 0.950 . S
C594 C593 1.414 . S
C594 C595 1.374 . S
C595 H575 0.950 . S
C595 C591 1.385 . S
C595 C594 1.374 . S
C596 C593 1.499 . S
C596 C597 1.373 . S
C596 C598 1.389 . S
C597 H576 0.950 . S
C597 C596 1.373 . S
C597 C613 1.377 . S
C598 C596 1.389 . S
C598 C599 1.524 . S
C598 C612 1.377 . S
C599 C598 1.524 . S
C599 C600 1.397 . S
C599 C604 1.363 . S
C600 H577 0.950 . S
C600 C599 1.397 . S
C600 C601 1.334 . S
C601 H578 0.950 . S
C601 C600 1.334 . S
C601 C602 1.287 . S
C602 C601 1.287 . S
C602 C603 1.524 . S
C602 H621 0.913 . S
C603 H579 0.950 . S
C603 C602 1.524 . S
C603 C604 1.415 . S
C604 H580 0.950 . S
C604 C599 1.363 . S
C604 C603 1.415 . S
C605 H581 0.951 . S
C605 C606 1.366 . S
C605 C607 1.388 . S
C606 C605 1.366 . S
C606 C610 1.385 . S
C607 H582 0.951 . S
C607 C605 1.388 . S
C607 C608 1.366 . S
C608 C607 1.366 . S
C608 C609 1.414 . S
C608 C611 1.499 . S
C609 H583 0.950 . S
C609 C608 1.414 . S
C609 C610 1.374 . S
C610 H584 0.950 . S
C610 C606 1.385 . S
C610 C609 1.374 . S
C611 C608 1.499 . S
C611 C612 1.373 . S
C611 C613 1.389 . S
C612 H585 0.950 . S
C612 C598 1.377 . S
C612 C611 1.373 . S
C613 C597 1.377 . S
C613 C611 1.389 . S
C613 C614 1.524 . S
C614 C613 1.524 . S
C614 C615 1.397 . S
C614 C619 1.363 . S
C615 H586 0.950 . S
C615 C614 1.397 . S
C615 C616 1.334 . S
C616 H587 0.950 . S
C616 C615 1.334 . S
C616 C617 1.287 . S
C617 C616 1.287 . S
C617 C618 1.524 . S
C617 H620 0.999 . S
C618 H588 0.950 . S
C618 C617 1.524 . S
C618 C619 1.415 . S
C619 H589 0.950 . S
C619 C614 1.363 . S
C619 C618 1.415 . S
H620 C617 0.999 . S
H621 C602 0.913 . S
H622 C640 0.951 . S
H623 C642 0.951 . S
H624 C644 0.950 . S
H625 C645 0.950 . S
H626 C647 0.950 . S
H627 C650 0.950 . S
H628 C651 0.950 . S
H629 C653 0.950 1_455 S
H630 C654 0.950 . S
H631 C655 0.951 . S
H632 C657 0.951 . S
H633 C659 0.950 . S
H634 C660 0.950 . S
H635 C662 0.950 . S
H636 C665 0.950 . S
H637 C666 0.950 . S
H638 C668 0.950 . S
H639 C669 0.950 . S
C640 H622 0.951 . S
C640 C641 1.366 . S
C640 C642 1.388 . S
C641 C640 1.366 . S
C641 C645 1.385 . S
C642 H623 0.951 . S
C642 C640 1.388 . S
C642 C643 1.366 . S
C643 C642 1.366 . S
C643 C644 1.414 . S
C643 C646 1.499 . S
C644 H624 0.950 . S
C644 C643 1.414 . S
C644 C645 1.374 . S
C645 H625 0.950 . S
C645 C641 1.385 . S
C645 C644 1.374 . S
C646 C643 1.499 . S
C646 C647 1.373 . S
C646 C648 1.389 . S
C647 H626 0.950 . S
C647 C646 1.373 . S
C647 C663 1.377 . S
C648 C646 1.389 . S
C648 C649 1.524 . S
C648 C662 1.377 . S
C649 C648 1.524 . S
C649 C650 1.397 . S
C649 C654 1.363 . S
C650 H627 0.950 . S
C650 C649 1.397 . S
C650 C651 1.334 . S
C651 H628 0.950 . S
C651 C650 1.334 . S
C651 C652 1.287 . S
C652 C651 1.287 . S
C652 C653 1.524 . S
C652 H671 0.913 . S
C653 H629 0.950 1_655 S
C653 C652 1.524 . S
C653 C654 1.415 . S
C654 H630 0.950 . S
C654 C649 1.363 . S
C654 C653 1.415 . S
C655 H631 0.951 . S
C655 C656 1.366 . S
C655 C657 1.388 . S
C656 C655 1.366 . S
C656 C660 1.385 . S
C657 H632 0.951 . S
C657 C655 1.388 . S
C657 C658 1.366 . S
C658 C657 1.366 . S
C658 C659 1.414 . S
C658 C661 1.499 . S
C659 H633 0.950 . S
C659 C658 1.414 . S
C659 C660 1.374 . S
C660 H634 0.950 . S
C660 C656 1.385 . S
C660 C659 1.374 . S
C661 C658 1.499 . S
C661 C662 1.373 . S
C661 C663 1.389 . S
C662 H635 0.950 . S
C662 C648 1.377 . S
C662 C661 1.373 . S
C663 C647 1.377 . S
C663 C661 1.389 . S
C663 C664 1.524 . S
C664 C663 1.524 . S
C664 C665 1.397 . S
C664 C669 1.363 . S
C665 H636 0.950 . S
C665 C664 1.397 . S
C665 C666 1.334 . S
C666 H637 0.950 . S
C666 C665 1.334 . S
C666 C667 1.287 . S
C667 C666 1.287 . S
C667 C668 1.524 . S
C667 H670 0.999 . S
C668 H638 0.950 . S
C668 C667 1.524 . S
C668 C669 1.415 . S
C669 H639 0.950 . S
C669 C664 1.363 . S
C669 C668 1.415 . S
H670 C667 0.999 . S
H671 C652 0.913 . S
H672 C690 0.951 . S
H673 C692 0.951 . S
H674 C694 0.950 . S
H675 C695 0.950 . S
H676 C697 0.950 . S
H677 C700 0.950 . S
H678 C701 0.950 . S
H679 C703 0.950 . S
H680 C704 0.950 . S
H681 C705 0.951 . S
H682 C707 0.951 . S
H683 C709 0.950 . S
H684 C710 0.950 . S
H685 C712 0.950 . S
H686 C715 0.950 . S
H687 C716 0.950 . S
H688 C718 0.950 . S
H689 C719 0.950 . S
C690 H672 0.951 . S
C690 C691 1.366 . S
C690 C692 1.388 . S
C691 C690 1.366 . S
C691 C695 1.385 . S
C692 H673 0.951 . S
C692 C690 1.388 . S
C692 C693 1.366 . S
C693 C692 1.366 . S
C693 C694 1.414 . S
C693 C696 1.499 . S
C694 H674 0.950 . S
C694 C693 1.414 . S
C694 C695 1.374 . S
C695 H675 0.950 . S
C695 C691 1.385 . S
C695 C694 1.374 . S
C696 C693 1.499 . S
C696 C697 1.373 . S
C696 C698 1.389 . S
C697 H676 0.950 . S
C697 C696 1.373 . S
C697 C713 1.377 . S
C698 C696 1.389 . S
C698 C699 1.524 . S
C698 C712 1.377 . S
C699 C698 1.524 . S
C699 C700 1.397 . S
C699 C704 1.363 . S
C700 H677 0.950 . S
C700 C699 1.397 . S
C700 C701 1.334 . S
C701 H678 0.950 . S
C701 C700 1.334 . S
C701 C702 1.287 . S
C702 C701 1.287 . S
C702 C703 1.524 . S
C702 H721 0.913 . S
C703 H679 0.950 . S
C703 C702 1.524 . S
C703 C704 1.415 . S
C704 H680 0.950 . S
C704 C699 1.363 . S
C704 C703 1.415 . S
C705 H681 0.951 . S
C705 C706 1.366 . S
C705 C707 1.388 . S
C706 C705 1.366 . S
C706 C710 1.385 . S
C707 H682 0.951 . S
C707 C705 1.388 . S
C707 C708 1.366 . S
C708 C707 1.366 . S
C708 C709 1.414 . S
C708 C711 1.499 . S
C709 H683 0.950 . S
C709 C708 1.414 . S
C709 C710 1.374 . S
C710 H684 0.950 . S
C710 C706 1.385 . S
C710 C709 1.374 . S
C711 C708 1.499 . S
C711 C712 1.373 . S
C711 C713 1.389 . S
C712 H685 0.950 . S
C712 C698 1.377 . S
C712 C711 1.373 . S
C713 C697 1.377 . S
C713 C711 1.389 . S
C713 C714 1.524 . S
C714 C713 1.524 . S
C714 C715 1.397 . S
C714 C719 1.363 . S
C715 H686 0.950 . S
C715 C714 1.397 . S
C715 C716 1.334 . S
C716 H687 0.950 . S
C716 C715 1.334 . S
C716 C717 1.287 . S
C717 C716 1.287 . S
C717 C718 1.524 . S
C717 H720 0.999 . S
C718 H688 0.950 . S
C718 C717 1.524 . S
C718 C719 1.415 . S
C719 H689 0.950 . S
C719 C714 1.363 . S
C719 C718 1.415 . S
H720 C717 0.999 . S
H721 C702 0.913 . S
H722 C740 0.951 . S
H723 C742 0.951 . S
H724 C744 0.950 . S
H725 C745 0.950 . S
H726 C747 0.950 . S
H727 C750 0.950 . S
H728 C751 0.950 . S
H729 C753 0.950 . S
H730 C754 0.950 . S
H731 C755 0.951 . S
H732 C757 0.951 . S
H733 C759 0.950 . S
H734 C760 0.950 . S
H735 C762 0.950 . S
H736 C765 0.950 . S
H737 C766 0.950 . S
H738 C768 0.950 . S
H739 C769 0.950 . S
C740 H722 0.951 . S
C740 C741 1.366 . S
C740 C742 1.388 . S
C741 C740 1.366 . S
C741 C745 1.385 . S
C742 H723 0.951 . S
C742 C740 1.388 . S
C742 C743 1.366 . S
C743 C742 1.366 . S
C743 C744 1.414 . S
C743 C746 1.499 . S
C744 H724 0.950 . S
C744 C743 1.414 . S
C744 C745 1.374 . S
C745 H725 0.950 . S
C745 C741 1.385 . S
C745 C744 1.374 . S
C746 C743 1.499 . S
C746 C747 1.373 . S
C746 C748 1.389 . S
C747 H726 0.950 . S
C747 C746 1.373 . S
C747 C763 1.377 . S
C748 C746 1.389 . S
C748 C749 1.524 . S
C748 C762 1.377 . S
C749 C748 1.524 . S
C749 C750 1.397 . S
C749 C754 1.363 . S
C750 H727 0.950 . S
C750 C749 1.397 . S
C750 C751 1.334 . S
C751 H728 0.950 . S
C751 C750 1.334 . S
C751 C752 1.287 . S
C752 C751 1.287 . S
C752 C753 1.524 . S
C752 H771 0.913 . S
C753 H729 0.950 . S
C753 C752 1.524 . S
C753 C754 1.415 . S
C754 H730 0.950 . S
C754 C749 1.363 . S
C754 C753 1.415 . S
C755 H731 0.951 . S
C755 C756 1.366 . S
C755 C757 1.388 . S
C756 C755 1.366 . S
C756 C760 1.385 . S
C757 H732 0.951 . S
C757 C755 1.388 . S
C757 C758 1.366 . S
C758 C757 1.366 . S
C758 C759 1.414 . S
C758 C761 1.499 . S
C759 H733 0.950 . S
C759 C758 1.414 . S
C759 C760 1.374 . S
C760 H734 0.950 . S
C760 C756 1.385 . S
C760 C759 1.374 . S
C761 C758 1.499 . S
C761 C762 1.373 . S
C761 C763 1.389 . S
C762 H735 0.950 . S
C762 C748 1.377 . S
C762 C761 1.373 . S
C763 C747 1.377 . S
C763 C761 1.389 . S
C763 C764 1.524 . S
C764 C763 1.524 . S
C764 C765 1.397 . S
C764 C769 1.363 . S
C765 H736 0.950 . S
C765 C764 1.397 . S
C765 C766 1.334 . S
C766 H737 0.950 . S
C766 C765 1.334 . S
C766 C767 1.287 1_455 S
C767 C766 1.287 1_655 S
C767 C768 1.524 . S
C767 H770 0.999 . S
C768 H738 0.950 . S
C768 C767 1.524 . S
C768 C769 1.415 1_655 S
C769 H739 0.950 . S
C769 C764 1.363 . S
C769 C768 1.415 1_455 S
H770 C767 0.999 . S
H771 C752 0.913 . S
H772 C790 0.951 . S
H773 C792 0.951 . S
H774 C794 0.950 . S
H775 C795 0.950 . S
H776 C797 0.950 . S
H777 C800 0.950 . S
H778 C801 0.950 . S
H779 C803 0.950 . S
H780 C804 0.950 . S
H781 C805 0.951 1_554 S
H782 C807 0.951 . S
H783 C809 0.950 . S
H784 C810 0.950 . S
H785 C812 0.950 . S
H786 C815 0.950 . S
H787 C816 0.950 . S
H788 C818 0.945 1_554 S
H789 C819 0.950 . S
C790 H772 0.951 . S
C790 C791 1.366 . S
C790 C792 1.388 . S
C791 C790 1.366 . S
C791 C795 1.385 . S
C792 H773 0.951 . S
C792 C790 1.388 . S
C792 C793 1.366 . S
C793 C792 1.366 . S
C793 C794 1.414 . S
C793 C796 1.499 . S
C794 H774 0.950 . S
C794 C793 1.414 . S
C794 C795 1.374 . S
C795 H775 0.950 . S
C795 C791 1.385 . S
C795 C794 1.374 . S
C796 C793 1.499 . S
C796 C797 1.373 . S
C796 C798 1.389 . S
C797 H776 0.950 . S
C797 C796 1.373 . S
C797 C813 1.377 . S
C798 C796 1.389 . S
C798 C799 1.524 . S
C798 C812 1.377 . S
C799 C798 1.524 . S
C799 C800 1.397 . S
C799 C804 1.363 . S
C800 H777 0.950 . S
C800 C799 1.397 . S
C800 C801 1.334 . S
C801 H778 0.950 . S
C801 C800 1.334 . S
C801 C802 1.287 . S
C802 C801 1.287 . S
C802 C803 1.524 . S
C802 H821 0.913 . S
C803 H779 0.950 . S
C803 C802 1.524 . S
C803 C804 1.415 . S
C804 H780 0.950 . S
C804 C799 1.363 . S
C804 C803 1.415 . S
C805 H781 0.951 1_556 S
C805 C806 1.366 . S
C805 C807 1.388 . S
C806 C805 1.366 . S
C806 C810 1.385 . S
C807 H782 0.951 . S
C807 C805 1.388 . S
C807 C808 1.366 . S
C808 C807 1.366 . S
C808 C809 1.414 . S
C808 C811 1.499 . S
C809 H783 0.950 . S
C809 C808 1.414 . S
C809 C810 1.374 . S
C810 H784 0.950 . S
C810 C806 1.385 . S
C810 C809 1.374 . S
C811 C808 1.499 . S
C811 C812 1.373 . S
C811 C813 1.389 . S
C812 H785 0.950 . S
C812 C798 1.377 . S
C812 C811 1.373 . S
C813 C797 1.377 . S
C813 C811 1.389 . S
C813 C814 1.524 . S
C814 C813 1.524 . S
C814 C815 1.397 . S
C814 C819 1.363 . S
C815 H786 0.950 . S
C815 C814 1.397 . S
C815 C816 1.334 . S
C816 H787 0.950 . S
C816 C815 1.334 . S
C816 C817 1.287 . S
C817 C816 1.287 . S
C817 C818 1.525 . S
C817 H820 0.999 1_556 S
C818 H788 0.945 1_556 S
C818 C817 1.525 . S
C818 C819 1.420 . S
C819 H789 0.950 . S
C819 C814 1.363 . S
C819 C818 1.420 . S
H820 C817 0.999 1_554 S
H821 C802 0.913 . S
H822 C840 0.951 . S
H823 C842 0.951 . S
H824 C844 0.950 . S
H825 C845 0.950 . S
H826 C847 0.950 . S
H827 C850 0.950 . S
H828 C851 0.950 . S
H829 C853 0.950 . S
H830 C854 0.950 . S
H831 C855 0.951 . S
H832 C857 0.951 . S
H833 C859 0.950 . S
H834 C860 0.950 . S
H835 C862 0.950 . S
H836 C865 0.950 . S
H837 C866 0.950 . S
H838 C868 0.950 . S
H839 C869 0.950 . S
C840 H822 0.951 . S
C840 C841 1.366 . S
C840 C842 1.388 . S
C841 C840 1.366 . S
C841 C845 1.385 . S
C842 H823 0.951 . S
C842 C840 1.388 . S
C842 C843 1.366 . S
C843 C842 1.366 . S
C843 C844 1.414 . S
C843 C846 1.499 . S
C844 H824 0.950 . S
C844 C843 1.414 . S
C844 C845 1.374 . S
C845 H825 0.950 . S
C845 C841 1.385 . S
C845 C844 1.374 . S
C846 C843 1.499 . S
C846 C847 1.373 . S
C846 C848 1.389 . S
C847 H826 0.950 . S
C847 C846 1.373 . S
C847 C863 1.377 . S
C848 C846 1.389 . S
C848 C849 1.524 . S
C848 C862 1.377 . S
C849 C848 1.524 . S
C849 C850 1.397 . S
C849 C854 1.363 . S
C850 H827 0.950 . S
C850 C849 1.397 . S
C850 C851 1.334 . S
C851 H828 0.950 . S
C851 C850 1.334 . S
C851 C852 1.287 . S
C852 C851 1.287 . S
C852 C853 1.524 . S
C852 H871 0.913 . S
C853 H829 0.950 . S
C853 C852 1.524 . S
C853 C854 1.415 . S
C854 H830 0.950 . S
C854 C849 1.363 . S
C854 C853 1.415 . S
C855 H831 0.951 . S
C855 C856 1.366 . S
C855 C857 1.388 . S
C856 C855 1.366 . S
C856 C860 1.385 . S
C857 H832 0.951 . S
C857 C855 1.388 . S
C857 C858 1.366 . S
C858 C857 1.366 . S
C858 C859 1.414 . S
C858 C861 1.499 . S
C859 H833 0.950 . S
C859 C858 1.414 . S
C859 C860 1.374 . S
C860 H834 0.950 . S
C860 C856 1.385 . S
C860 C859 1.374 . S
C861 C858 1.499 . S
C861 C862 1.373 . S
C861 C863 1.389 . S
C862 H835 0.950 . S
C862 C848 1.377 . S
C862 C861 1.373 . S
C863 C847 1.377 . S
C863 C861 1.389 . S
C863 C864 1.524 . S
C864 C863 1.524 . S
C864 C865 1.397 . S
C864 C869 1.363 . S
C865 H836 0.950 . S
C865 C864 1.397 . S
C865 C866 1.334 . S
C866 H837 0.950 . S
C866 C865 1.334 . S
C866 C867 1.287 . S
C867 C866 1.287 . S
C867 C868 1.524 . S
C867 H870 0.999 . S
C868 H838 0.950 . S
C868 C867 1.524 . S
C868 C869 1.415 . S
C869 H839 0.950 . S
C869 C864 1.363 . S
C869 C868 1.415 . S
H870 C867 0.999 . S
H871 C852 0.913 . S
H872 C890 0.951 . S
H873 C892 0.951 . S
H874 C894 0.950 . S
H875 C895 0.950 . S
H876 C897 0.950 . S
H877 C900 0.950 . S
H878 C901 0.950 . S
H879 C903 0.950 . S
H880 C904 0.950 . S
H881 C905 0.951 . S
H882 C907 0.951 . S
H883 C909 0.950 . S
H884 C910 0.950 . S
H885 C912 0.950 . S
H886 C915 0.950 . S
H887 C916 0.950 . S
H888 C918 0.950 . S
H889 C919 0.950 . S
C890 H872 0.951 . S
C890 C891 1.366 . S
C890 C892 1.388 . S
C891 C890 1.366 . S
C891 C895 1.385 . S
C892 H873 0.951 . S
C892 C890 1.388 . S
C892 C893 1.366 . S
C893 C892 1.366 . S
C893 C894 1.414 . S
C893 C896 1.499 . S
C894 H874 0.950 . S
C894 C893 1.414 . S
C894 C895 1.374 . S
C895 H875 0.950 . S
C895 C891 1.385 . S
C895 C894 1.374 . S
C896 C893 1.499 . S
C896 C897 1.373 . S
C896 C898 1.389 . S
C897 H876 0.950 . S
C897 C896 1.373 . S
C897 C913 1.377 . S
C898 C896 1.389 . S
C898 C899 1.524 . S
C898 C912 1.377 . S
C899 C898 1.524 . S
C899 C900 1.397 . S
C899 C904 1.363 . S
C900 H877 0.950 . S
C900 C899 1.397 . S
C900 C901 1.334 . S
C901 H878 0.950 . S
C901 C900 1.334 . S
C901 C902 1.287 . S
C902 C901 1.287 . S
C902 C903 1.524 . S
C902 H921 0.913 . S
C903 H879 0.950 . S
C903 C902 1.524 . S
C903 C904 1.415 . S
C904 H880 0.950 . S
C904 C899 1.363 . S
C904 C903 1.415 . S
C905 H881 0.951 . S
C905 C906 1.366 . S
C905 C907 1.388 . S
C906 C905 1.366 . S
C906 C910 1.385 . S
C907 H882 0.951 . S
C907 C905 1.388 . S
C907 C908 1.366 . S
C908 C907 1.366 . S
C908 C909 1.414 . S
C908 C911 1.499 . S
C909 H883 0.950 . S
C909 C908 1.414 . S
C909 C910 1.374 . S
C910 H884 0.950 . S
C910 C906 1.385 . S
C910 C909 1.374 . S
C911 C908 1.499 . S
C911 C912 1.373 . S
C911 C913 1.389 . S
C912 H885 0.950 . S
C912 C898 1.377 . S
C912 C911 1.373 . S
C913 C897 1.377 . S
C913 C911 1.389 . S
C913 C914 1.524 . S
C914 C913 1.524 . S
C914 C915 1.397 . S
C914 C919 1.363 . S
C915 H886 0.950 . S
C915 C914 1.397 . S
C915 C916 1.334 . S
C916 H887 0.950 . S
C916 C915 1.334 . S
C916 C917 1.287 . S
C917 C916 1.287 . S
C917 C918 1.524 . S
C917 H920 0.999 . S
C918 H888 0.950 . S
C918 C917 1.524 . S
C918 C919 1.415 . S
C919 H889 0.950 . S
C919 C914 1.363 . S
C919 C918 1.415 . S
H920 C917 0.999 . S
H921 C902 0.913 . S
H922 C940 0.951 . S
H923 C942 0.951 . S
H924 C944 0.950 . S
H925 C945 0.950 . S
H926 C947 0.950 . S
H927 C950 0.950 . S
H928 C951 0.950 . S
H929 C953 0.950 . S
H930 C954 0.950 . S
H931 C955 0.951 . S
H932 C957 0.951 . S
H933 C959 0.950 . S
H934 C960 0.950 . S
H935 C962 0.950 . S
H936 C965 0.950 . S
H937 C966 0.950 . S
H938 C968 0.950 . S
H939 C969 0.950 . S
C940 H922 0.951 . S
C940 C941 1.366 . S
C940 C942 1.388 . S
C941 C940 1.366 . S
C941 C945 1.385 . S
C942 H923 0.951 . S
C942 C940 1.388 . S
C942 C943 1.366 . S
C943 C942 1.366 . S
C943 C944 1.414 . S
C943 C946 1.499 . S
C944 H924 0.950 . S
C944 C943 1.414 . S
C944 C945 1.374 . S
C945 H925 0.950 . S
C945 C941 1.385 . S
C945 C944 1.374 . S
C946 C943 1.499 . S
C946 C947 1.373 . S
C946 C948 1.389 . S
C947 H926 0.950 . S
C947 C946 1.373 . S
C947 C963 1.377 . S
C948 C946 1.389 . S
C948 C949 1.524 . S
C948 C962 1.377 . S
C949 C948 1.524 . S
C949 C950 1.397 . S
C949 C954 1.363 . S
C950 H927 0.950 . S
C950 C949 1.397 . S
C950 C951 1.334 . S
C951 H928 0.950 . S
C951 C950 1.334 . S
C951 C952 1.287 . S
C952 C951 1.287 . S
C952 C953 1.524 . S
C952 H971 0.913 . S
C953 H929 0.950 . S
C953 C952 1.524 . S
C953 C954 1.415 . S
C954 H930 0.950 . S
C954 C949 1.363 . S
C954 C953 1.415 . S
C955 H931 0.951 . S
C955 C956 1.366 . S
C955 C957 1.388 . S
C956 C955 1.366 . S
C956 C960 1.385 . S
C957 H932 0.951 . S
C957 C955 1.388 . S
C957 C958 1.366 . S
C958 C957 1.366 . S
C958 C959 1.414 . S
C958 C961 1.499 . S
C959 H933 0.950 . S
C959 C958 1.414 . S
C959 C960 1.374 . S
C960 H934 0.950 . S
C960 C956 1.385 . S
C960 C959 1.374 . S
C961 C958 1.499 . S
C961 C962 1.373 . S
C961 C963 1.389 . S
C962 H935 0.950 . S
C962 C948 1.377 . S
C962 C961 1.373 . S
C963 C947 1.377 . S
C963 C961 1.389 . S
C963 C964 1.524 . S
C964 C963 1.524 . S
C964 C965 1.397 . S
C964 C969 1.363 . S
C965 H936 0.950 . S
C965 C964 1.397 . S
C965 C966 1.334 . S
C966 H937 0.950 . S
C966 C965 1.334 . S
C966 C967 1.287 . S
C967 C966 1.287 . S
C967 C968 1.524 . S
C967 H970 0.999 . S
C968 H938 0.950 . S
C968 C967 1.524 . S
C968 C969 1.415 . S
C969 H939 0.950 . S
C969 C964 1.363 . S
C969 C968 1.415 . S
H970 C967 0.999 . S
H971 C952 0.913 . S
H972 C990 0.951 . S
H973 C992 0.951 . S
H974 C994 0.950 . S
H975 C995 0.950 . S
H976 C997 0.950 . S
H977 C1000 0.950 . S
H978 C1001 0.950 . S
H979 C1003 0.950 . S
H980 C1004 0.950 . S
H981 C1005 0.951 . S
H982 C1007 0.951 . S
H983 C1009 0.950 . S
H984 C1010 0.950 . S
H985 C1012 0.950 . S
H986 C1015 0.944 1_455 S
H987 C1016 0.950 . S
H988 C1018 0.950 . S
H989 C1019 0.950 . S
C990 H972 0.951 . S
C990 C991 1.366 . S
C990 C992 1.388 . S
C991 C990 1.366 . S
C991 C995 1.385 . S
C992 H973 0.951 . S
C992 C990 1.388 . S
C992 C993 1.366 . S
C993 C992 1.366 . S
C993 C994 1.414 . S
C993 C996 1.499 . S
C994 H974 0.950 . S
C994 C993 1.414 . S
C994 C995 1.374 . S
C995 H975 0.950 . S
C995 C991 1.385 . S
C995 C994 1.374 . S
C996 C993 1.499 . S
C996 C997 1.373 . S
C996 C998 1.389 . S
C997 H976 0.950 . S
C997 C996 1.373 . S
C997 C1013 1.377 . S
C998 C996 1.389 . S
C998 C999 1.524 . S
C998 C1012 1.377 . S
C999 C998 1.524 . S
C999 C1000 1.397 . S
C999 C1004 1.363 . S
C1000 H977 0.950 . S
C1000 C999 1.397 . S
C1000 C1001 1.334 . S
C1001 H978 0.950 . S
C1001 C1000 1.334 . S
C1001 C1002 1.287 . S
C1002 C1001 1.287 . S
C1002 C1003 1.524 . S
C1002 H1021 0.913 . S
C1003 H979 0.950 . S
C1003 C1002 1.524 . S
C1003 C1004 1.415 . S
C1004 H980 0.950 . S
C1004 C999 1.363 . S
C1004 C1003 1.415 . S
C1005 H981 0.951 . S
C1005 C1006 1.366 . S
C1005 C1007 1.388 . S
C1006 C1005 1.366 . S
C1006 C1010 1.385 . S
C1007 H982 0.951 . S
C1007 C1005 1.388 . S
C1007 C1008 1.366 . S
C1008 C1007 1.366 . S
C1008 C1009 1.414 . S
C1008 C1011 1.499 . S
C1009 H983 0.950 . S
C1009 C1008 1.414 . S
C1009 C1010 1.374 . S
C1010 H984 0.950 . S
C1010 C1006 1.385 . S
C1010 C1009 1.374 . S
C1011 C1008 1.499 . S
C1011 C1012 1.373 . S
C1011 C1013 1.389 . S
C1012 H985 0.950 . S
C1012 C998 1.377 . S
C1012 C1011 1.373 . S
C1013 C997 1.377 . S
C1013 C1011 1.389 . S
C1013 C1014 1.524 . S
C1014 C1013 1.524 . S
C1014 C1015 1.424 . S
C1014 C1019 1.363 . S
C1015 H986 0.944 1_655 S
C1015 C1014 1.424 . S
C1015 C1016 1.313 1_655 S
C1016 H987 0.950 . S
C1016 C1015 1.313 1_455 S
C1016 C1017 1.287 . S
C1017 C1016 1.287 . S
C1017 C1018 1.524 1_455 S
C1017 H1020 0.999 . S
C1018 H988 0.950 . S
C1018 C1017 1.524 1_655 S
C1018 C1019 1.415 . S
C1019 H989 0.950 . S
C1019 C1014 1.363 . S
C1019 C1018 1.415 . S
H1020 C1017 0.999 . S
H1021 C1002 0.913 . S
H1022 C1040 0.951 . S
H1023 C1042 0.951 . S
H1024 C1044 0.950 . S
H1025 C1045 0.950 . S
H1026 C1047 0.950 . S
H1027 C1050 0.950 . S
H1028 C1051 0.950 . S
H1029 C1053 0.950 . S
H1030 C1054 0.950 . S
H1031 C1055 0.951 . S
H1032 C1057 0.951 . S
H1033 C1059 0.950 . S
H1034 C1060 0.950 . S
H1035 C1062 0.950 . S
H1036 C1065 0.950 . S
H1037 C1066 0.950 . S
H1038 C1068 0.950 . S
H1039 C1069 0.950 . S
C1040 H1022 0.951 . S
C1040 C1041 1.366 . S
C1040 C1042 1.388 . S
C1041 C1040 1.366 . S
C1041 C1045 1.385 . S
C1042 H1023 0.951 . S
C1042 C1040 1.388 . S
C1042 C1043 1.366 . S
C1043 C1042 1.366 . S
C1043 C1044 1.414 . S
C1043 C1046 1.499 . S
C1044 H1024 0.950 . S
C1044 C1043 1.414 . S
C1044 C1045 1.374 . S
C1045 H1025 0.950 . S
C1045 C1041 1.385 . S
C1045 C1044 1.374 . S
C1046 C1043 1.499 . S
C1046 C1047 1.373 . S
C1046 C1048 1.389 . S
C1047 H1026 0.950 . S
C1047 C1046 1.373 . S
C1047 C1063 1.377 . S
C1048 C1046 1.389 . S
C1048 C1049 1.524 . S
C1048 C1062 1.377 . S
C1049 C1048 1.524 . S
C1049 C1050 1.397 . S
C1049 C1054 1.363 . S
C1050 H1027 0.950 . S
C1050 C1049 1.397 . S
C1050 C1051 1.334 . S
C1051 H1028 0.950 . S
C1051 C1050 1.334 . S
C1051 C1052 1.287 . S
C1052 C1051 1.287 . S
C1052 C1053 1.524 . S
C1052 H1071 0.913 . S
C1053 H1029 0.950 . S
C1053 C1052 1.524 . S
C1053 C1054 1.415 . S
C1054 H1030 0.950 . S
C1054 C1049 1.363 . S
C1054 C1053 1.415 . S
C1055 H1031 0.951 . S
C1055 C1056 1.366 . S
C1055 C1057 1.388 . S
C1056 C1055 1.366 . S
C1056 C1060 1.385 . S
C1057 H1032 0.951 . S
C1057 C1055 1.388 . S
C1057 C1058 1.366 . S
C1058 C1057 1.366 . S
C1058 C1059 1.414 . S
C1058 C1061 1.499 . S
C1059 H1033 0.950 . S
C1059 C1058 1.414 . S
C1059 C1060 1.374 . S
C1060 H1034 0.950 . S
C1060 C1056 1.385 . S
C1060 C1059 1.374 . S
C1061 C1058 1.499 . S
C1061 C1062 1.373 . S
C1061 C1063 1.389 . S
C1062 H1035 0.950 . S
C1062 C1048 1.377 . S
C1062 C1061 1.373 . S
C1063 C1047 1.377 . S
C1063 C1061 1.389 . S
C1063 C1064 1.524 . S
C1064 C1063 1.524 . S
C1064 C1065 1.397 . S
C1064 C1069 1.363 . S
C1065 H1036 0.950 . S
C1065 C1064 1.397 . S
C1065 C1066 1.334 . S
C1066 H1037 0.950 . S
C1066 C1065 1.334 . S
C1066 C1067 1.287 . S
C1067 C1066 1.287 . S
C1067 C1068 1.524 . S
C1067 H1070 0.999 . S
C1068 H1038 0.950 . S
C1068 C1067 1.524 . S
C1068 C1069 1.415 . S
C1069 H1039 0.950 . S
C1069 C1064 1.363 . S
C1069 C1068 1.415 . S
H1070 C1067 0.999 . S
H1071 C1052 0.913 . S
H1072 C1090 0.951 . S
H1073 C1092 0.951 . S
H1074 C1094 0.950 . S
H1075 C1095 0.950 . S
H1076 C1097 0.950 . S
H1077 C1100 0.950 . S
H1078 C1101 0.950 . S
H1079 C1103 0.950 . S
H1080 C1104 0.950 . S
H1081 C1105 0.951 . S
H1082 C1107 0.951 . S
H1083 C1109 0.950 . S
H1084 C1110 0.950 . S
H1085 C1112 0.950 . S
H1086 C1115 0.950 . S
H1087 C1116 0.950 . S
H1088 C1118 0.950 . S
H1089 C1119 0.950 . S
C1090 H1072 0.951 . S
C1090 C1091 1.366 . S
C1090 C1092 1.388 . S
C1091 C1090 1.366 . S
C1091 C1095 1.385 . S
C1092 H1073 0.951 . S
C1092 C1090 1.388 . S
C1092 C1093 1.366 . S
C1093 C1092 1.366 . S
C1093 C1094 1.414 . S
C1093 C1096 1.499 . S
C1094 H1074 0.950 . S
C1094 C1093 1.414 . S
C1094 C1095 1.374 . S
C1095 H1075 0.950 . S
C1095 C1091 1.385 . S
C1095 C1094 1.374 . S
C1096 C1093 1.499 . S
C1096 C1097 1.373 . S
C1096 C1098 1.389 . S
C1097 H1076 0.950 . S
C1097 C1096 1.373 . S
C1097 C1113 1.377 . S
C1098 C1096 1.389 . S
C1098 C1099 1.524 . S
C1098 C1112 1.377 . S
C1099 C1098 1.524 . S
C1099 C1100 1.397 . S
C1099 C1104 1.363 . S
C1100 H1077 0.950 . S
C1100 C1099 1.397 . S
C1100 C1101 1.334 . S
C1101 H1078 0.950 . S
C1101 C1100 1.334 . S
C1101 C1102 1.287 . S
C1102 C1101 1.287 . S
C1102 C1103 1.524 . S
C1102 H1121 0.913 . S
C1103 H1079 0.950 . S
C1103 C1102 1.524 . S
C1103 C1104 1.415 . S
C1104 H1080 0.950 . S
C1104 C1099 1.363 . S
C1104 C1103 1.415 . S
C1105 H1081 0.951 . S
C1105 C1106 1.366 . S
C1105 C1107 1.388 . S
C1106 C1105 1.366 . S
C1106 C1110 1.385 . S
C1107 H1082 0.951 . S
C1107 C1105 1.388 . S
C1107 C1108 1.366 . S
C1108 C1107 1.366 . S
C1108 C1109 1.414 . S
C1108 C1111 1.499 . S
C1109 H1083 0.950 . S
C1109 C1108 1.414 . S
C1109 C1110 1.374 . S
C1110 H1084 0.950 . S
C1110 C1106 1.385 . S
C1110 C1109 1.374 . S
C1111 C1108 1.499 . S
C1111 C1112 1.373 . S
C1111 C1113 1.389 . S
C1112 H1085 0.950 . S
C1112 C1098 1.377 . S
C1112 C1111 1.373 . S
C1113 C1097 1.377 . S
C1113 C1111 1.389 . S
C1113 C1114 1.524 . S
C1114 C1113 1.524 . S
C1114 C1115 1.397 . S
C1114 C1119 1.363 . S
C1115 H1086 0.950 . S
C1115 C1114 1.397 . S
C1115 C1116 1.334 . S
C1116 H1087 0.950 . S
C1116 C1115 1.334 . S
C1116 C1117 1.287 . S
C1117 C1116 1.287 . S
C1117 C1118 1.524 . S
C1117 H1120 0.999 . S
C1118 H1088 0.950 . S
C1118 C1117 1.524 . S
C1118 C1119 1.415 . S
C1119 H1089 0.950 . S
C1119 C1114 1.363 . S
C1119 C1118 1.415 . S
H1120 C1117 0.999 . S
H1121 C1102 0.913 . S
H1122 C1140 0.951 . S
H1123 C1142 0.951 . S
H1124 C1144 0.950 . S
H1125 C1145 0.950 . S
H1126 C1147 0.950 . S
H1127 C1150 0.950 . S
H1128 C1151 0.950 . S
H1129 C1153 0.950 . S
H1130 C1154 0.950 . S
H1131 C1155 0.951 . S
H1132 C1157 0.951 . S
H1133 C1159 0.950 . S
H1134 C1160 0.950 . S
H1135 C1162 0.950 . S
H1136 C1165 0.950 . S
H1137 C1166 0.950 . S
H1138 C1168 0.950 . S
H1139 C1169 0.950 . S
C1140 H1122 0.951 . S
C1140 C1141 1.366 . S
C1140 C1142 1.388 . S
C1141 C1140 1.366 . S
C1141 C1145 1.385 . S
C1142 H1123 0.951 . S
C1142 C1140 1.388 . S
C1142 C1143 1.366 . S
C1143 C1142 1.366 . S
C1143 C1144 1.414 . S
C1143 C1146 1.499 . S
C1144 H1124 0.950 . S
C1144 C1143 1.414 . S
C1144 C1145 1.374 . S
C1145 H1125 0.950 . S
C1145 C1141 1.385 . S
C1145 C1144 1.374 . S
C1146 C1143 1.499 . S
C1146 C1147 1.373 . S
C1146 C1148 1.389 . S
C1147 H1126 0.950 . S
C1147 C1146 1.373 . S
C1147 C1163 1.377 . S
C1148 C1146 1.389 . S
C1148 C1149 1.524 . S
C1148 C1162 1.377 . S
C1149 C1148 1.524 . S
C1149 C1150 1.397 . S
C1149 C1154 1.363 . S
C1150 H1127 0.950 . S
C1150 C1149 1.397 . S
C1150 C1151 1.334 . S
C1151 H1128 0.950 . S
C1151 C1150 1.334 . S
C1151 C1152 1.287 . S
C1152 C1151 1.287 . S
C1152 C1153 1.524 . S
C1152 H1171 0.913 . S
C1153 H1129 0.950 . S
C1153 C1152 1.524 . S
C1153 C1154 1.415 . S
C1154 H1130 0.950 . S
C1154 C1149 1.363 . S
C1154 C1153 1.415 . S
C1155 H1131 0.951 . S
C1155 C1156 1.366 . S
C1155 C1157 1.388 . S
C1156 C1155 1.366 . S
C1156 C1160 1.385 . S
C1157 H1132 0.951 . S
C1157 C1155 1.388 . S
C1157 C1158 1.366 . S
C1158 C1157 1.366 . S
C1158 C1159 1.414 . S
C1158 C1161 1.499 . S
C1159 H1133 0.950 . S
C1159 C1158 1.414 . S
C1159 C1160 1.374 . S
C1160 H1134 0.950 . S
C1160 C1156 1.385 . S
C1160 C1159 1.374 . S
C1161 C1158 1.499 . S
C1161 C1162 1.373 . S
C1161 C1163 1.389 . S
C1162 H1135 0.950 . S
C1162 C1148 1.377 . S
C1162 C1161 1.373 . S
C1163 C1147 1.377 . S
C1163 C1161 1.389 . S
C1163 C1164 1.524 . S
C1164 C1163 1.524 . S
C1164 C1165 1.397 . S
C1164 C1169 1.363 . S
C1165 H1136 0.950 . S
C1165 C1164 1.397 . S
C1165 C1166 1.334 . S
C1166 H1137 0.950 . S
C1166 C1165 1.334 . S
C1166 C1167 1.287 . S
C1167 C1166 1.287 . S
C1167 C1168 1.524 . S
C1167 H1170 0.999 . S
C1168 H1138 0.950 . S
C1168 C1167 1.524 . S
C1168 C1169 1.415 . S
C1169 H1139 0.950 . S
C1169 C1164 1.363 . S
C1169 C1168 1.415 . S
H1170 C1167 0.999 . S
H1171 C1152 0.913 . S
H1172 C1190 0.951 . S
H1173 C1192 0.951 . S
H1174 C1194 0.950 . S
H1175 C1195 0.950 . S
H1176 C1197 0.950 . S
H1177 C1200 0.950 . S
H1178 C1201 0.950 . S
H1179 C1203 0.950 . S
H1180 C1204 0.950 . S
H1181 C1205 0.951 . S
H1182 C1207 0.951 . S
H1183 C1209 0.950 . S
H1184 C1210 0.950 . S
H1185 C1212 0.950 . S
H1186 C1215 0.950 . S
H1187 C1216 0.950 . S
H1188 C1218 0.950 . S
H1189 C1219 0.950 . S
C1190 H1172 0.951 . S
C1190 C1191 1.366 . S
C1190 C1192 1.388 . S
C1191 C1190 1.366 . S
C1191 C1195 1.385 . S
C1192 H1173 0.951 . S
C1192 C1190 1.388 . S
C1192 C1193 1.366 . S
C1193 C1192 1.366 . S
C1193 C1194 1.414 . S
C1193 C1196 1.499 . S
C1194 H1174 0.950 . S
C1194 C1193 1.414 . S
C1194 C1195 1.374 . S
C1195 H1175 0.950 . S
C1195 C1191 1.385 . S
C1195 C1194 1.374 . S
C1196 C1193 1.499 . S
C1196 C1197 1.373 . S
C1196 C1198 1.389 . S
C1197 H1176 0.950 . S
C1197 C1196 1.373 . S
C1197 C1213 1.377 . S
C1198 C1196 1.389 . S
C1198 C1199 1.524 . S
C1198 C1212 1.377 . S
C1199 C1198 1.524 . S
C1199 C1200 1.397 . S
C1199 C1204 1.363 . S
C1200 H1177 0.950 . S
C1200 C1199 1.397 . S
C1200 C1201 1.334 . S
C1201 H1178 0.950 . S
C1201 C1200 1.334 . S
C1201 C1202 1.287 . S
C1202 C1201 1.287 . S
C1202 C1203 1.524 . S
C1202 H1221 0.913 . S
C1203 H1179 0.950 . S
C1203 C1202 1.524 . S
C1203 C1204 1.415 . S
C1204 H1180 0.950 . S
C1204 C1199 1.363 . S
C1204 C1203 1.415 . S
C1205 H1181 0.951 . S
C1205 C1206 1.366 . S
C1205 C1207 1.388 . S
C1206 C1205 1.366 . S
C1206 C1210 1.385 . S
C1207 H1182 0.951 . S
C1207 C1205 1.388 . S
C1207 C1208 1.366 . S
C1208 C1207 1.366 . S
C1208 C1209 1.414 . S
C1208 C1211 1.499 . S
C1209 H1183 0.950 . S
C1209 C1208 1.414 . S
C1209 C1210 1.374 . S
C1210 H1184 0.950 . S
C1210 C1206 1.385 . S
C1210 C1209 1.374 . S
C1211 C1208 1.499 . S
C1211 C1212 1.373 . S
C1211 C1213 1.389 . S
C1212 H1185 0.950 . S
C1212 C1198 1.377 . S
C1212 C1211 1.373 . S
C1213 C1197 1.377 . S
C1213 C1211 1.389 . S
C1213 C1214 1.524 . S
C1214 C1213 1.524 . S
C1214 C1215 1.397 . S
C1214 C1219 1.363 . S
C1215 H1186 0.950 . S
C1215 C1214 1.397 . S
C1215 C1216 1.334 . S
C1216 H1187 0.950 . S
C1216 C1215 1.334 . S
C1216 C1217 1.287 . S
C1217 C1216 1.287 . S
C1217 C1218 1.524 . S
C1217 H1220 0.999 . S
C1218 H1188 0.950 . S
C1218 C1217 1.524 . S
C1218 C1219 1.415 . S
C1219 H1189 0.950 . S
C1219 C1214 1.363 . S
C1219 C1218 1.415 . S
H1220 C1217 0.999 . S
H1221 C1202 0.913 . S
H1222 C1240 0.951 . S
H1223 C1242 0.951 . S
H1224 C1244 0.950 . S
H1225 C1245 0.950 . S
H1226 C1247 0.950 . S
H1227 C1250 0.950 . S
H1228 C1251 0.950 . S
H1229 C1253 0.950 . S
H1230 C1254 0.950 . S
H1231 C1255 0.951 . S
H1232 C1257 0.951 . S
H1233 C1259 0.950 . S
H1234 C1260 0.950 . S
H1235 C1262 0.950 . S
H1236 C1265 0.950 . S
H1237 C1266 0.950 . S
H1238 C1268 0.950 1_655 S
H1239 C1269 0.950 . S
C1240 H1222 0.951 . S
C1240 C1241 1.366 . S
C1240 C1242 1.388 . S
C1241 C1240 1.366 . S
C1241 C1245 1.385 . S
C1242 H1223 0.951 . S
C1242 C1240 1.388 . S
C1242 C1243 1.366 . S
C1243 C1242 1.366 . S
C1243 C1244 1.414 . S
C1243 C1246 1.499 . S
C1244 H1224 0.950 . S
C1244 C1243 1.414 . S
C1244 C1245 1.374 . S
C1245 H1225 0.950 . S
C1245 C1241 1.385 . S
C1245 C1244 1.374 . S
C1246 C1243 1.499 . S
C1246 C1247 1.373 . S
C1246 C1248 1.389 . S
C1247 H1226 0.950 . S
C1247 C1246 1.373 . S
C1247 C1263 1.377 . S
C1248 C1246 1.389 . S
C1248 C1249 1.524 . S
C1248 C1262 1.377 . S
C1249 C1248 1.524 . S
C1249 C1250 1.397 . S
C1249 C1254 1.363 . S
C1250 H1227 0.950 . S
C1250 C1249 1.397 . S
C1250 C1251 1.334 . S
C1251 H1228 0.950 . S
C1251 C1250 1.334 . S
C1251 C1252 1.287 . S
C1252 C1251 1.287 . S
C1252 C1253 1.524 . S
C1252 H1271 0.913 . S
C1253 H1229 0.950 . S
C1253 C1252 1.524 . S
C1253 C1254 1.415 . S
C1254 H1230 0.950 . S
C1254 C1249 1.363 . S
C1254 C1253 1.415 . S
C1255 H1231 0.951 . S
C1255 C1256 1.366 . S
C1255 C1257 1.388 . S
C1256 C1255 1.366 . S
C1256 C1260 1.385 . S
C1257 H1232 0.951 . S
C1257 C1255 1.388 . S
C1257 C1258 1.366 . S
C1258 C1257 1.366 . S
C1258 C1259 1.414 . S
C1258 C1261 1.499 . S
C1259 H1233 0.950 . S
C1259 C1258 1.414 . S
C1259 C1260 1.374 . S
C1260 H1234 0.950 . S
C1260 C1256 1.385 . S
C1260 C1259 1.374 . S
C1261 C1258 1.499 . S
C1261 C1262 1.373 . S
C1261 C1263 1.389 . S
C1262 H1235 0.950 . S
C1262 C1248 1.377 . S
C1262 C1261 1.373 . S
C1263 C1247 1.377 . S
C1263 C1261 1.389 . S
C1263 C1264 1.524 . S
C1264 C1263 1.524 . S
C1264 C1265 1.397 . S
C1264 C1269 1.363 . S
C1265 H1236 0.950 . S
C1265 C1264 1.397 . S
C1265 C1266 1.334 . S
C1266 H1237 0.950 . S
C1266 C1265 1.334 . S
C1266 C1267 1.287 . S
C1267 C1266 1.287 . S
C1267 C1268 1.524 . S
C1267 H1270 0.999 . S
C1268 H1238 0.950 1_455 S
C1268 C1267 1.524 . S
C1268 C1269 1.415 . S
C1269 H1239 0.950 . S
C1269 C1264 1.363 . S
C1269 C1268 1.415 . S
H1270 C1267 0.999 . S
H1271 C1252 0.913 . S
H1272 C1290 0.951 . S
H1273 C1292 0.951 . S
H1274 C1294 0.950 . S
H1275 C1295 0.950 . S
H1276 C1297 0.950 . S
H1277 C1300 0.950 . S
H1278 C1301 0.950 . S
H1279 C1303 0.950 . S
H1280 C1304 0.950 . S
H1281 C1305 0.951 . S
H1282 C1307 0.951 . S
H1283 C1309 0.950 . S
H1284 C1310 0.950 . S
H1285 C1312 0.950 . S
H1286 C1315 0.950 . S
H1287 C1316 0.950 . S
H1288 C1318 0.950 . S
H1289 C1319 0.950 . S
C1290 H1272 0.951 . S
C1290 C1291 1.366 . S
C1290 C1292 1.388 . S
C1291 C1290 1.366 . S
C1291 C1295 1.385 . S
C1292 H1273 0.951 . S
C1292 C1290 1.388 . S
C1292 C1293 1.366 . S
C1293 C1292 1.366 . S
C1293 C1294 1.414 . S
C1293 C1296 1.499 . S
C1294 H1274 0.950 . S
C1294 C1293 1.414 . S
C1294 C1295 1.374 . S
C1295 H1275 0.950 . S
C1295 C1291 1.385 . S
C1295 C1294 1.374 . S
C1296 C1293 1.499 . S
C1296 C1297 1.373 . S
C1296 C1298 1.389 . S
C1297 H1276 0.950 . S
C1297 C1296 1.373 . S
C1297 C1313 1.377 . S
C1298 C1296 1.389 . S
C1298 C1299 1.524 . S
C1298 C1312 1.377 . S
C1299 C1298 1.524 . S
C1299 C1300 1.397 . S
C1299 C1304 1.363 . S
C1300 H1277 0.950 . S
C1300 C1299 1.397 . S
C1300 C1301 1.334 . S
C1301 H1278 0.950 . S
C1301 C1300 1.334 . S
C1301 C1302 1.287 . S
C1302 C1301 1.287 . S
C1302 C1303 1.524 . S
C1302 H1321 0.913 . S
C1303 H1279 0.950 . S
C1303 C1302 1.524 . S
C1303 C1304 1.415 . S
C1304 H1280 0.950 . S
C1304 C1299 1.363 . S
C1304 C1303 1.415 . S
C1305 H1281 0.951 . S
C1305 C1306 1.366 . S
C1305 C1307 1.388 . S
C1306 C1305 1.366 . S
C1306 C1310 1.385 . S
C1307 H1282 0.951 . S
C1307 C1305 1.388 . S
C1307 C1308 1.366 . S
C1308 C1307 1.366 . S
C1308 C1309 1.414 . S
C1308 C1311 1.499 . S
C1309 H1283 0.950 . S
C1309 C1308 1.414 . S
C1309 C1310 1.374 . S
C1310 H1284 0.950 . S
C1310 C1306 1.385 . S
C1310 C1309 1.374 . S
C1311 C1308 1.499 . S
C1311 C1312 1.373 . S
C1311 C1313 1.389 . S
C1312 H1285 0.950 . S
C1312 C1298 1.377 . S
C1312 C1311 1.373 . S
C1313 C1297 1.377 . S
C1313 C1311 1.389 . S
C1313 C1314 1.524 . S
C1314 C1313 1.524 . S
C1314 C1315 1.397 . S
C1314 C1319 1.363 . S
C1315 H1286 0.950 . S
C1315 C1314 1.397 . S
C1315 C1316 1.334 . S
C1316 H1287 0.950 . S
C1316 C1315 1.334 . S
C1316 C1317 1.287 . S
C1317 C1316 1.287 . S
C1317 C1318 1.524 . S
C1317 H1320 0.999 . S
C1318 H1288 0.950 . S
C1318 C1317 1.524 . S
C1318 C1319 1.415 . S
C1319 H1289 0.950 . S
C1319 C1314 1.363 . S
C1319 C1318 1.415 . S
H1320 C1317 0.999 . S
H1321 C1302 0.913 . S
H1322 C1340 0.951 . S
H1323 C1342 0.951 . S
H1324 C1344 0.950 . S
H1325 C1345 0.950 . S
H1326 C1347 0.950 . S
H1327 C1350 0.950 . S
H1328 C1351 0.950 . S
H1329 C1353 0.950 . S
H1330 C1354 0.950 . S
H1331 C1355 0.951 . S
H1332 C1357 0.951 . S
H1333 C1359 0.950 . S
H1334 C1360 0.950 . S
H1335 C1362 0.950 . S
H1336 C1365 0.950 . S
H1337 C1366 0.950 . S
H1338 C1368 0.950 . S
H1339 C1369 0.950 . S
C1340 H1322 0.951 . S
C1340 C1341 1.366 . S
C1340 C1342 1.388 . S
C1341 C1340 1.366 . S
C1341 C1345 1.385 . S
C1342 H1323 0.951 . S
C1342 C1340 1.388 . S
C1342 C1343 1.366 . S
C1343 C1342 1.366 . S
C1343 C1344 1.414 . S
C1343 C1346 1.499 . S
C1344 H1324 0.950 . S
C1344 C1343 1.414 . S
C1344 C1345 1.374 . S
C1345 H1325 0.950 . S
C1345 C1341 1.385 . S
C1345 C1344 1.374 . S
C1346 C1343 1.499 . S
C1346 C1347 1.373 . S
C1346 C1348 1.389 . S
C1347 H1326 0.950 . S
C1347 C1346 1.373 . S
C1347 C1363 1.377 . S
C1348 C1346 1.389 . S
C1348 C1349 1.524 . S
C1348 C1362 1.377 . S
C1349 C1348 1.524 . S
C1349 C1350 1.397 . S
C1349 C1354 1.363 . S
C1350 H1327 0.950 . S
C1350 C1349 1.397 . S
C1350 C1351 1.334 . S
C1351 H1328 0.950 . S
C1351 C1350 1.334 . S
C1351 C1352 1.287 . S
C1352 C1351 1.287 . S
C1352 C1353 1.524 . S
C1352 H1371 0.913 . S
C1353 H1329 0.950 . S
C1353 C1352 1.524 . S
C1353 C1354 1.415 . S
C1354 H1330 0.950 . S
C1354 C1349 1.363 . S
C1354 C1353 1.415 . S
C1355 H1331 0.951 . S
C1355 C1356 1.366 . S
C1355 C1357 1.388 . S
C1356 C1355 1.366 . S
C1356 C1360 1.385 . S
C1357 H1332 0.951 . S
C1357 C1355 1.388 . S
C1357 C1358 1.366 . S
C1358 C1357 1.366 . S
C1358 C1359 1.414 . S
C1358 C1361 1.499 . S
C1359 H1333 0.950 . S
C1359 C1358 1.414 . S
C1359 C1360 1.374 . S
C1360 H1334 0.950 . S
C1360 C1356 1.385 . S
C1360 C1359 1.374 . S
C1361 C1358 1.499 . S
C1361 C1362 1.373 . S
C1361 C1363 1.389 . S
C1362 H1335 0.950 . S
C1362 C1348 1.377 . S
C1362 C1361 1.373 . S
C1363 C1347 1.377 . S
C1363 C1361 1.389 . S
C1363 C1364 1.524 . S
C1364 C1363 1.524 . S
C1364 C1365 1.397 . S
C1364 C1369 1.363 . S
C1365 H1336 0.950 . S
C1365 C1364 1.397 . S
C1365 C1366 1.334 . S
C1366 H1337 0.950 . S
C1366 C1365 1.334 . S
C1366 C1367 1.287 1_655 S
C1367 C1366 1.287 1_455 S
C1367 C1368 1.524 . S
C1367 H1370 0.999 . S
C1368 H1338 0.950 . S
C1368 C1367 1.524 . S
C1368 C1369 1.415 1_455 S
C1369 H1339 0.950 . S
C1369 C1364 1.363 . S
C1369 C1368 1.415 1_655 S
H1370 C1367 0.999 . S
H1371 C1352 0.913 . S
H1372 C1390 0.951 . S
H1373 C1392 0.951 . S
H1374 C1394 0.950 . S
H1375 C1395 0.950 . S
H1376 C1397 0.950 . S
H1377 C1400 0.950 . S
H1378 C1401 0.950 . S
H1379 C1403 0.950 . S
H1380 C1404 0.950 . S
H1381 C1405 0.951 . S
H1382 C1407 0.951 . S
H1383 C1409 0.950 . S
H1384 C1410 0.950 . S
H1385 C1412 0.950 . S
H1386 C1415 0.950 . S
H1387 C1416 0.950 . S
H1388 C1418 0.950 . S
H1389 C1419 0.950 . S
C1390 H1372 0.951 . S
C1390 C1391 1.366 . S
C1390 C1392 1.388 . S
C1391 C1390 1.366 . S
C1391 C1395 1.385 . S
C1392 H1373 0.951 . S
C1392 C1390 1.388 . S
C1392 C1393 1.366 . S
C1393 C1392 1.366 . S
C1393 C1394 1.414 . S
C1393 C1396 1.499 . S
C1394 H1374 0.950 . S
C1394 C1393 1.414 . S
C1394 C1395 1.374 . S
C1395 H1375 0.950 . S
C1395 C1391 1.385 . S
C1395 C1394 1.374 . S
C1396 C1393 1.499 . S
C1396 C1397 1.373 . S
C1396 C1398 1.389 . S
C1397 H1376 0.950 . S
C1397 C1396 1.373 . S
C1397 C1413 1.377 . S
C1398 C1396 1.389 . S
C1398 C1399 1.524 . S
C1398 C1412 1.377 . S
C1399 C1398 1.524 . S
C1399 C1400 1.397 . S
C1399 C1404 1.363 . S
C1400 H1377 0.950 . S
C1400 C1399 1.397 . S
C1400 C1401 1.334 . S
C1401 H1378 0.950 . S
C1401 C1400 1.334 . S
C1401 C1402 1.287 . S
C1402 C1401 1.287 . S
C1402 C1403 1.524 . S
C1402 H1421 0.913 . S
C1403 H1379 0.950 . S
C1403 C1402 1.524 . S
C1403 C1404 1.415 . S
C1404 H1380 0.950 . S
C1404 C1399 1.363 . S
C1404 C1403 1.415 . S
C1405 H1381 0.951 . S
C1405 C1406 1.366 . S
C1405 C1407 1.388 . S
C1406 C1405 1.366 . S
C1406 C1410 1.385 . S
C1407 H1382 0.951 . S
C1407 C1405 1.388 . S
C1407 C1408 1.366 . S
C1408 C1407 1.366 . S
C1408 C1409 1.414 . S
C1408 C1411 1.499 . S
C1409 H1383 0.950 . S
C1409 C1408 1.414 . S
C1409 C1410 1.374 . S
C1410 H1384 0.950 . S
C1410 C1406 1.385 . S
C1410 C1409 1.374 . S
C1411 C1408 1.499 . S
C1411 C1412 1.373 . S
C1411 C1413 1.389 . S
C1412 H1385 0.950 . S
C1412 C1398 1.377 . S
C1412 C1411 1.373 . S
C1413 C1397 1.377 . S
C1413 C1411 1.389 . S
C1413 C1414 1.524 . S
C1414 C1413 1.524 . S
C1414 C1415 1.397 . S
C1414 C1419 1.363 . S
C1415 H1386 0.950 . S
C1415 C1414 1.397 . S
C1415 C1416 1.334 . S
C1416 H1387 0.950 . S
C1416 C1415 1.334 . S
C1416 C1417 1.287 . S
C1417 C1416 1.287 . S
C1417 C1418 1.524 . S
C1417 H1420 0.999 . S
C1418 H1388 0.950 . S
C1418 C1417 1.524 . S
C1418 C1419 1.415 . S
C1419 H1389 0.950 . S
C1419 C1414 1.363 . S
C1419 C1418 1.415 . S
H1420 C1417 0.999 . S
H1421 C1402 0.913 . S
H1422 C1440 0.951 . S
H1423 C1442 0.951 . S
H1424 C1444 0.950 . S
H1425 C1445 0.950 . S
H1426 C1447 0.950 . S
H1427 C1450 0.950 . S
H1428 C1451 0.950 . S
H1429 C1453 0.950 . S
H1430 C1454 0.950 . S
H1431 C1455 0.951 . S
H1432 C1457 0.951 . S
H1433 C1459 0.950 . S
H1434 C1460 0.950 . S
H1435 C1462 0.950 . S
H1436 C1465 0.950 . S
H1437 C1466 0.950 . S
H1438 C1468 0.950 . S
H1439 C1469 0.950 . S
C1440 H1422 0.951 . S
C1440 C1441 1.366 . S
C1440 C1442 1.388 . S
C1441 C1440 1.366 . S
C1441 C1445 1.385 . S
C1442 H1423 0.951 . S
C1442 C1440 1.388 . S
C1442 C1443 1.366 . S
C1443 C1442 1.366 . S
C1443 C1444 1.414 . S
C1443 C1446 1.499 . S
C1444 H1424 0.950 . S
C1444 C1443 1.414 . S
C1444 C1445 1.374 . S
C1445 H1425 0.950 . S
C1445 C1441 1.385 . S
C1445 C1444 1.374 . S
C1446 C1443 1.499 . S
C1446 C1447 1.373 . S
C1446 C1448 1.389 . S
C1447 H1426 0.950 . S
C1447 C1446 1.373 . S
C1447 C1463 1.377 . S
C1448 C1446 1.389 . S
C1448 C1449 1.524 . S
C1448 C1462 1.377 . S
C1449 C1448 1.524 . S
C1449 C1450 1.397 . S
C1449 C1454 1.363 . S
C1450 H1427 0.950 . S
C1450 C1449 1.397 . S
C1450 C1451 1.334 . S
C1451 H1428 0.950 . S
C1451 C1450 1.334 . S
C1451 C1452 1.287 . S
C1452 C1451 1.287 . S
C1452 C1453 1.524 . S
C1452 H1471 0.913 . S
C1453 H1429 0.950 . S
C1453 C1452 1.524 . S
C1453 C1454 1.415 . S
C1454 H1430 0.950 . S
C1454 C1449 1.363 . S
C1454 C1453 1.415 . S
C1455 H1431 0.951 . S
C1455 C1456 1.366 . S
C1455 C1457 1.388 . S
C1456 C1455 1.366 . S
C1456 C1460 1.385 . S
C1457 H1432 0.951 . S
C1457 C1455 1.388 . S
C1457 C1458 1.366 . S
C1458 C1457 1.366 . S
C1458 C1459 1.414 . S
C1458 C1461 1.499 . S
C1459 H1433 0.950 . S
C1459 C1458 1.414 . S
C1459 C1460 1.374 . S
C1460 H1434 0.950 . S
C1460 C1456 1.385 . S
C1460 C1459 1.374 . S
C1461 C1458 1.499 . S
C1461 C1462 1.373 . S
C1461 C1463 1.389 . S
C1462 H1435 0.950 . S
C1462 C1448 1.377 . S
C1462 C1461 1.373 . S
C1463 C1447 1.377 . S
C1463 C1461 1.389 . S
C1463 C1464 1.524 . S
C1464 C1463 1.524 . S
C1464 C1465 1.397 . S
C1464 C1469 1.363 . S
C1465 H1436 0.950 . S
C1465 C1464 1.397 . S
C1465 C1466 1.334 . S
C1466 H1437 0.950 . S
C1466 C1465 1.334 . S
C1466 C1467 1.287 . S
C1467 C1466 1.287 . S
C1467 C1468 1.524 . S
C1467 H1470 0.999 . S
C1468 H1438 0.950 . S
C1468 C1467 1.524 . S
C1468 C1469 1.415 . S
C1469 H1439 0.950 . S
C1469 C1464 1.363 . S
C1469 C1468 1.415 . S
H1470 C1467 0.999 . S
H1471 C1452 0.913 . S
H1472 C1490 0.951 . S
H1473 C1492 0.951 . S
H1474 C1494 0.950 . S
H1475 C1495 0.950 . S
H1476 C1497 0.950 . S
H1477 C1500 0.950 . S
H1478 C1501 0.950 . S
H1479 C1503 0.950 . S
H1480 C1504 0.950 . S
H1481 C1505 0.951 . S
H1482 C1507 0.951 . S
H1483 C1509 0.950 . S
H1484 C1510 0.950 . S
H1485 C1512 0.950 . S
H1486 C1515 0.950 . S
H1487 C1516 0.950 . S
H1488 C1518 0.950 . S
H1489 C1519 0.950 . S
C1490 H1472 0.951 . S
C1490 C1491 1.366 . S
C1490 C1492 1.388 . S
C1491 C1490 1.366 . S
C1491 C1495 1.385 . S
C1492 H1473 0.951 . S
C1492 C1490 1.388 . S
C1492 C1493 1.366 . S
C1493 C1492 1.366 . S
C1493 C1494 1.414 . S
C1493 C1496 1.499 . S
C1494 H1474 0.950 . S
C1494 C1493 1.414 . S
C1494 C1495 1.374 . S
C1495 H1475 0.950 . S
C1495 C1491 1.385 . S
C1495 C1494 1.374 . S
C1496 C1493 1.499 . S
C1496 C1497 1.373 . S
C1496 C1498 1.389 . S
C1497 H1476 0.950 . S
C1497 C1496 1.373 . S
C1497 C1513 1.377 . S
C1498 C1496 1.389 . S
C1498 C1499 1.524 . S
C1498 C1512 1.377 . S
C1499 C1498 1.524 . S
C1499 C1500 1.397 . S
C1499 C1504 1.363 . S
C1500 H1477 0.950 . S
C1500 C1499 1.397 . S
C1500 C1501 1.334 . S
C1501 H1478 0.950 . S
C1501 C1500 1.334 . S
C1501 C1502 1.287 . S
C1502 C1501 1.287 . S
C1502 C1503 1.524 . S
C1502 H1521 0.913 . S
C1503 H1479 0.950 . S
C1503 C1502 1.524 . S
C1503 C1504 1.415 . S
C1504 H1480 0.950 . S
C1504 C1499 1.363 . S
C1504 C1503 1.415 . S
C1505 H1481 0.951 . S
C1505 C1506 1.366 . S
C1505 C1507 1.388 . S
C1506 C1505 1.366 . S
C1506 C1510 1.385 . S
C1507 H1482 0.951 . S
C1507 C1505 1.388 . S
C1507 C1508 1.366 . S
C1508 C1507 1.366 . S
C1508 C1509 1.414 . S
C1508 C1511 1.499 . S
C1509 H1483 0.950 . S
C1509 C1508 1.414 . S
C1509 C1510 1.374 . S
C1510 H1484 0.950 . S
C1510 C1506 1.385 . S
C1510 C1509 1.374 . S
C1511 C1508 1.499 . S
C1511 C1512 1.373 . S
C1511 C1513 1.389 . S
C1512 H1485 0.950 . S
C1512 C1498 1.377 . S
C1512 C1511 1.373 . S
C1513 C1497 1.377 . S
C1513 C1511 1.389 . S
C1513 C1514 1.524 . S
C1514 C1513 1.524 . S
C1514 C1515 1.397 . S
C1514 C1519 1.363 . S
C1515 H1486 0.950 . S
C1515 C1514 1.397 . S
C1515 C1516 1.334 . S
C1516 H1487 0.950 . S
C1516 C1515 1.334 . S
C1516 C1517 1.287 . S
C1517 C1516 1.287 . S
C1517 C1518 1.524 . S
C1517 H1520 0.999 . S
C1518 H1488 0.950 . S
C1518 C1517 1.524 . S
C1518 C1519 1.415 . S
C1519 H1489 0.950 . S
C1519 C1514 1.363 . S
C1519 C1518 1.415 . S
H1520 C1517 0.999 . S
H1521 C1502 0.913 . S
H1522 C1540 0.951 . S
H1523 C1542 0.951 . S
H1524 C1544 0.950 . S
H1525 C1545 0.950 . S
H1526 C1547 0.950 . S
H1527 C1550 0.950 . S
H1528 C1551 0.950 . S
H1529 C1553 0.950 . S
H1530 C1554 0.950 . S
H1531 C1555 0.951 . S
H1532 C1557 0.951 . S
H1533 C1559 0.950 . S
H1534 C1560 0.950 . S
H1535 C1562 0.950 . S
H1536 C1565 0.950 . S
H1537 C1566 0.950 . S
H1538 C1568 0.950 . S
H1539 C1569 0.950 . S
C1540 H1522 0.951 . S
C1540 C1541 1.366 . S
C1540 C1542 1.388 . S
C1541 C1540 1.366 . S
C1541 C1545 1.385 . S
C1542 H1523 0.951 . S
C1542 C1540 1.388 . S
C1542 C1543 1.366 . S
C1543 C1542 1.366 . S
C1543 C1544 1.414 . S
C1543 C1546 1.499 . S
C1544 H1524 0.950 . S
C1544 C1543 1.414 . S
C1544 C1545 1.374 . S
C1545 H1525 0.950 . S
C1545 C1541 1.385 . S
C1545 C1544 1.374 . S
C1546 C1543 1.499 . S
C1546 C1547 1.373 . S
C1546 C1548 1.389 . S
C1547 H1526 0.950 . S
C1547 C1546 1.373 . S
C1547 C1563 1.377 . S
C1548 C1546 1.389 . S
C1548 C1549 1.524 . S
C1548 C1562 1.377 . S
C1549 C1548 1.524 . S
C1549 C1550 1.397 . S
C1549 C1554 1.363 . S
C1550 H1527 0.950 . S
C1550 C1549 1.397 . S
C1550 C1551 1.334 . S
C1551 H1528 0.950 . S
C1551 C1550 1.334 . S
C1551 C1552 1.287 . S
C1552 C1551 1.287 . S
C1552 C1553 1.524 . S
C1552 H1571 0.913 . S
C1553 H1529 0.950 . S
C1553 C1552 1.524 . S
C1553 C1554 1.415 . S
C1554 H1530 0.950 . S
C1554 C1549 1.363 . S
C1554 C1553 1.415 . S
C1555 H1531 0.951 . S
C1555 C1556 1.366 . S
C1555 C1557 1.388 . S
C1556 C1555 1.366 . S
C1556 C1560 1.385 . S
C1557 H1532 0.951 . S
C1557 C1555 1.388 . S
C1557 C1558 1.366 . S
C1558 C1557 1.366 . S
C1558 C1559 1.414 . S
C1558 C1561 1.499 . S
C1559 H1533 0.950 . S
C1559 C1558 1.414 . S
C1559 C1560 1.374 . S
C1560 H1534 0.950 . S
C1560 C1556 1.385 . S
C1560 C1559 1.374 . S
C1561 C1558 1.499 . S
C1561 C1562 1.373 . S
C1561 C1563 1.389 . S
C1562 H1535 0.950 . S
C1562 C1548 1.377 . S
C1562 C1561 1.373 . S
C1563 C1547 1.377 . S
C1563 C1561 1.389 . S
C1563 C1564 1.524 . S
C1564 C1563 1.524 . S
C1564 C1565 1.397 . S
C1564 C1569 1.363 . S
C1565 H1536 0.950 . S
C1565 C1564 1.397 . S
C1565 C1566 1.334 . S
C1566 H1537 0.950 . S
C1566 C1565 1.334 . S
C1566 C1567 1.287 . S
C1567 C1566 1.287 . S
C1567 C1568 1.524 . S
C1567 H1570 0.999 . S
C1568 H1538 0.950 . S
C1568 C1567 1.524 . S
C1568 C1569 1.415 . S
C1569 H1539 0.950 . S
C1569 C1564 1.363 . S
C1569 C1568 1.415 . S
H1570 C1567 0.999 . S
H1571 C1552 0.913 . S
H1572 C1590 0.951 . S
H1573 C1592 0.951 . S
H1574 C1594 0.950 . S
H1575 C1595 0.950 . S
H1576 C1597 0.950 . S
H1577 C1600 0.950 . S
H1578 C1601 0.950 . S
H1579 C1603 0.950 . S
H1580 C1604 0.950 . S
H1581 C1605 0.951 . S
H1582 C1607 0.951 . S
H1583 C1609 0.950 . S
H1584 C1610 0.923 1_655 S
H1585 C1612 0.950 . S
H1586 C1615 0.950 . S
H1587 C1616 0.950 . S
H1588 C1618 0.950 . S
H1589 C1619 0.950 . S
C1590 H1572 0.951 . S
C1590 C1591 1.366 . S
C1590 C1592 1.388 . S
C1591 C1590 1.366 . S
C1591 C1595 1.385 . S
C1592 H1573 0.951 . S
C1592 C1590 1.388 . S
C1592 C1593 1.366 . S
C1593 C1592 1.366 . S
C1593 C1594 1.414 . S
C1593 C1596 1.499 . S
C1594 H1574 0.950 . S
C1594 C1593 1.414 . S
C1594 C1595 1.374 . S
C1595 H1575 0.950 . S
C1595 C1591 1.385 . S
C1595 C1594 1.374 . S
C1596 C1593 1.499 . S
C1596 C1597 1.373 . S
C1596 C1598 1.389 . S
C1597 H1576 0.950 . S
C1597 C1596 1.373 . S
C1597 C1613 1.377 . S
C1598 C1596 1.389 . S
C1598 C1599 1.524 . S
C1598 C1612 1.377 . S
C1599 C1598 1.524 . S
C1599 C1600 1.397 . S
C1599 C1604 1.363 . S
C1600 H1577 0.950 . S
C1600 C1599 1.397 . S
C1600 C1601 1.334 . S
C1601 H1578 0.950 . S
C1601 C1600 1.334 . S
C1601 C1602 1.287 . S
C1602 C1601 1.287 . S
C1602 C1603 1.524 . S
C1602 H1621 0.913 . S
C1603 H1579 0.950 . S
C1603 C1602 1.524 . S
C1603 C1604 1.415 . S
C1604 H1580 0.950 . S
C1604 C1599 1.363 . S
C1604 C1603 1.415 . S
C1605 H1581 0.951 . S
C1605 C1606 1.366 . S
C1605 C1607 1.388 . S
C1606 C1605 1.366 . S
C1606 C1610 1.385 . S
C1607 H1582 0.951 . S
C1607 C1605 1.388 . S
C1607 C1608 1.366 . S
C1608 C1607 1.366 . S
C1608 C1609 1.414 . S
C1608 C1611 1.499 . S
C1609 H1583 0.950 . S
C1609 C1608 1.414 . S
C1609 C1610 1.374 . S
C1610 H1584 0.923 1_455 S
C1610 C1606 1.385 . S
C1610 C1609 1.374 . S
C1611 C1608 1.499 . S
C1611 C1612 1.373 . S
C1611 C1613 1.389 . S
C1612 H1585 0.950 . S
C1612 C1598 1.377 . S
C1612 C1611 1.373 . S
C1613 C1597 1.377 . S
C1613 C1611 1.389 . S
C1613 C1614 1.524 . S
C1614 C1613 1.524 . S
C1614 C1615 1.397 . S
C1614 C1619 1.363 . S
C1615 H1586 0.950 . S
C1615 C1614 1.397 . S
C1615 C1616 1.334 . S
C1616 H1587 0.950 . S
C1616 C1615 1.334 . S
C1616 C1617 1.287 . S
C1617 C1616 1.287 . S
C1617 C1618 1.524 . S
C1617 H1620 0.999 . S
C1618 H1588 0.950 . S
C1618 C1617 1.524 . S
C1618 C1619 1.415 . S
C1619 H1589 0.950 . S
C1619 C1614 1.363 . S
C1619 C1618 1.415 . S
H1620 C1617 0.999 . S
H1621 C1602 0.913 . S
H1622 C1640 0.951 . S
H1623 C1642 0.951 . S
H1624 C1644 0.950 . S
H1625 C1645 0.950 . S
H1626 C1647 0.950 . S
H1627 C1650 0.950 . S
H1628 C1651 0.950 . S
H1629 C1653 0.950 . S
H1630 C1654 0.950 . S
H1631 C1655 0.951 . S
H1632 C1657 0.951 . S
H1633 C1659 0.950 . S
H1634 C1660 0.950 . S
H1635 C1662 0.950 . S
H1636 C1665 0.950 . S
H1637 C1666 0.950 . S
H1638 C1668 0.950 . S
H1639 C1669 0.950 . S
C1640 H1622 0.951 . S
C1640 C1641 1.366 . S
C1640 C1642 1.388 . S
C1641 C1640 1.366 . S
C1641 C1645 1.385 . S
C1642 H1623 0.951 . S
C1642 C1640 1.388 . S
C1642 C1643 1.366 . S
C1643 C1642 1.366 . S
C1643 C1644 1.414 . S
C1643 C1646 1.499 . S
C1644 H1624 0.950 . S
C1644 C1643 1.414 . S
C1644 C1645 1.374 . S
C1645 H1625 0.950 . S
C1645 C1641 1.385 . S
C1645 C1644 1.374 . S
C1646 C1643 1.499 . S
C1646 C1647 1.373 . S
C1646 C1648 1.389 . S
C1647 H1626 0.950 . S
C1647 C1646 1.373 . S
C1647 C1663 1.377 . S
C1648 C1646 1.389 . S
C1648 C1649 1.524 . S
C1648 C1662 1.377 . S
C1649 C1648 1.524 . S
C1649 C1650 1.397 . S
C1649 C1654 1.363 . S
C1650 H1627 0.950 . S
C1650 C1649 1.397 . S
C1650 C1651 1.334 . S
C1651 H1628 0.950 . S
C1651 C1650 1.334 . S
C1651 C1652 1.287 . S
C1652 C1651 1.287 . S
C1652 C1653 1.524 . S
C1652 H1671 0.913 . S
C1653 H1629 0.950 . S
C1653 C1652 1.524 . S
C1653 C1654 1.415 . S
C1654 H1630 0.950 . S
C1654 C1649 1.363 . S
C1654 C1653 1.415 . S
C1655 H1631 0.951 . S
C1655 C1656 1.366 . S
C1655 C1657 1.388 . S
C1656 C1655 1.366 . S
C1656 C1660 1.385 . S
C1657 H1632 0.951 . S
C1657 C1655 1.388 . S
C1657 C1658 1.366 . S
C1658 C1657 1.366 . S
C1658 C1659 1.414 . S
C1658 C1661 1.499 . S
C1659 H1633 0.950 . S
C1659 C1658 1.414 . S
C1659 C1660 1.374 . S
C1660 H1634 0.950 . S
C1660 C1656 1.385 . S
C1660 C1659 1.374 . S
C1661 C1658 1.499 . S
C1661 C1662 1.373 . S
C1661 C1663 1.389 . S
C1662 H1635 0.950 . S
C1662 C1648 1.377 . S
C1662 C1661 1.373 . S
C1663 C1647 1.377 . S
C1663 C1661 1.389 . S
C1663 C1664 1.524 . S
C1664 C1663 1.524 . S
C1664 C1665 1.397 . S
C1664 C1669 1.363 . S
C1665 H1636 0.950 . S
C1665 C1664 1.397 . S
C1665 C1666 1.334 . S
C1666 H1637 0.950 . S
C1666 C1665 1.334 . S
C1666 C1667 1.287 . S
C1667 C1666 1.287 . S
C1667 C1668 1.524 . S
C1667 H1670 0.999 . S
C1668 H1638 0.950 . S
C1668 C1667 1.524 . S
C1668 C1669 1.415 . S
C1669 H1639 0.950 . S
C1669 C1664 1.363 . S
C1669 C1668 1.415 . S
H1670 C1667 0.999 . S
H1671 C1652 0.913 . S
C491 C1 1.177 . S
C506 C329 1.199 . S
C541 C40 1.181 . S
C556 C369 1.195 . S
C606 C394 2.333 . S
C591 C99 2.393 . S
C641 C118 2.376 . S
C656 C434 2.319 . S
C706 C365 1.803 . S
C691 C16 1.759 . S
C756 C325 1.798 . S
C741 C60 1.759 . S
C806 C456 1.595 . S
C791 C79 1.614 . S
C856 C416 1.558 . S
C841 C138 1.572 . S
C891 C21 1.266 . S
C906 C458 1.290 . S
C956 C375 2.116 . S
C941 C94 2.153 . S
C991 C133 2.120 . S
C1006 C335 2.086 . S
C1041 C55 1.269 . S
C1056 C418 1.290 . S
C1106 C338 1.203 . S
C1091 C157 1.186 . S
C1141 C196 1.177 . S
C1156 C378 1.197 . S
C1191 C255 2.388 . S
C1206 C415 2.331 . S
C1241 C289 2.373 . S
C1256 C455 2.315 . S
C1291 C172 1.750 . S
C1306 C376 1.800 . S
C1356 C336 1.800 . S
C1341 C216 1.745 . S
C1406 C445 1.596 . S
C1391 C235 1.615 . S
C1456 C405 1.554 . S
C1441 C294 1.573 . S
C1491 C177 1.276 . S
C1506 C449 1.289 . S
C1556 C354 2.118 . S
C1541 C250 2.155 . S
C1606 C314 2.089 . S
C1591 C274 2.122 . S
C1641 C211 1.269 . S
C1656 C409 1.287 . S
