# Generated by pormake.
# Topology ptr, (4,4)-cn, num edge types: 1
# Building blocks:
#     Node 0, Type 0, BuildingBlock: TATPOV_clean_sbu_0, # of connection points: 4
#     Node 1, Type 0, BuildingBlock: TATPOV_clean_sbu_0, # of connection points: 4
#     Node 2, Type 0, BuildingBlock: TATPOV_clean_sbu_0, # of connection points: 4
#     Node 3, Type 0, BuildingBlock: TATPOV_clean_sbu_0, # of connection points: 4
#     Node 4, Type 0, BuildingBlock: TATPOV_clean_sbu_0, # of connection points: 4
#     Node 5, Type 0, BuildingBlock: TATPOV_clean_sbu_0, # of connection points: 4
#     Node 6, Type 0, BuildingBlock: TATPOV_clean_sbu_0, # of connection points: 4
#     Node 7, Type 0, BuildingBlock: TATPOV_clean_sbu_0, # of connection points: 4
#     Node 8, Type 0, BuildingBlock: TATPOV_clean_sbu_0, # of connection points: 4
#     Node 9, Type 0, BuildingBlock: TATPOV_clean_sbu_0, # of connection points: 4
#     Node 10, Type 0, BuildingBlock: TATPOV_clean_sbu_0, # of connection points: 4
#     Node 11, Type 0, BuildingBlock: TATPOV_clean_sbu_0, # of connection points: 4
#     Node 12, Type 0, BuildingBlock: TATPOV_clean_sbu_0, # of connection points: 4
#     Node 13, Type 0, BuildingBlock: TATPOV_clean_sbu_0, # of connection points: 4
#     Node 14, Type 0, BuildingBlock: TATPOV_clean_sbu_0, # of connection points: 4
#     Node 15, Type 0, BuildingBlock: TATPOV_clean_sbu_0, # of connection points: 4
#     Node 16, Type 0, BuildingBlock: TATPOV_clean_sbu_0, # of connection points: 4
#     Node 17, Type 0, BuildingBlock: TATPOV_clean_sbu_0, # of connection points: 4
#     Node 18, Type 1, BuildingBlock: AZAVOO_clean_linker_0, # of connection points: 4
#     Node 19, Type 1, BuildingBlock: AZAVOO_clean_linker_0, # of connection points: 4
#     Node 20, Type 1, BuildingBlock: AZAVOO_clean_linker_0, # of connection points: 4
#     Node 21, Type 1, BuildingBlock: AZAVOO_clean_linker_0, # of connection points: 4
#     Node 22, Type 1, BuildingBlock: AZAVOO_clean_linker_0, # of connection points: 4
#     Node 23, Type 1, BuildingBlock: AZAVOO_clean_linker_0, # of connection points: 4
#     Node 24, Type 1, BuildingBlock: AZAVOO_clean_linker_0, # of connection points: 4
#     Node 25, Type 1, BuildingBlock: AZAVOO_clean_linker_0, # of connection points: 4
#     Node 26, Type 1, BuildingBlock: AZAVOO_clean_linker_0, # of connection points: 4
#     Node 27, Type 1, BuildingBlock: AZAVOO_clean_linker_0, # of connection points: 4
#     Node 28, Type 1, BuildingBlock: AZAVOO_clean_linker_0, # of connection points: 4
#     Node 29, Type 1, BuildingBlock: AZAVOO_clean_linker_0, # of connection points: 4
#     Node 30, Type 1, BuildingBlock: AZAVOO_clean_linker_0, # of connection points: 4
#     Node 31, Type 1, BuildingBlock: AZAVOO_clean_linker_0, # of connection points: 4
#     Node 32, Type 1, BuildingBlock: AZAVOO_clean_linker_0, # of connection points: 4
#     Node 33, Type 1, BuildingBlock: AZAVOO_clean_linker_0, # of connection points: 4
#     Node 34, Type 1, BuildingBlock: AZAVOO_clean_linker_0, # of connection points: 4
#     Node 35, Type 1, BuildingBlock: AZAVOO_clean_linker_0, # of connection points: 4
#     Edge 36, Type (0, 1), BuildingBlock: XUDNAN_clean_linker_2, # of connection points: 2
#     Edge 37, Type (0, 1), BuildingBlock: XUDNAN_clean_linker_2, # of connection points: 2
#     Edge 38, Type (0, 1), BuildingBlock: XUDNAN_clean_linker_2, # of connection points: 2
#     Edge 39, Type (0, 1), BuildingBlock: XUDNAN_clean_linker_2, # of connection points: 2
#     Edge 40, Type (0, 1), BuildingBlock: XUDNAN_clean_linker_2, # of connection points: 2
#     Edge 41, Type (0, 1), BuildingBlock: XUDNAN_clean_linker_2, # of connection points: 2
#     Edge 42, Type (0, 1), BuildingBlock: XUDNAN_clean_linker_2, # of connection points: 2
#     Edge 43, Type (0, 1), BuildingBlock: XUDNAN_clean_linker_2, # of connection points: 2
#     Edge 44, Type (0, 1), BuildingBlock: XUDNAN_clean_linker_2, # of connection points: 2
#     Edge 45, Type (0, 1), BuildingBlock: XUDNAN_clean_linker_2, # of connection points: 2
#     Edge 46, Type (0, 1), BuildingBlock: XUDNAN_clean_linker_2, # of connection points: 2
#     Edge 47, Type (0, 1), BuildingBlock: XUDNAN_clean_linker_2, # of connection points: 2
#     Edge 48, Type (0, 1), BuildingBlock: XUDNAN_clean_linker_2, # of connection points: 2
#     Edge 49, Type (0, 1), BuildingBlock: XUDNAN_clean_linker_2, # of connection points: 2
#     Edge 50, Type (0, 1), BuildingBlock: XUDNAN_clean_linker_2, # of connection points: 2
#     Edge 51, Type (0, 1), BuildingBlock: XUDNAN_clean_linker_2, # of connection points: 2
#     Edge 52, Type (0, 1), BuildingBlock: XUDNAN_clean_linker_2, # of connection points: 2
#     Edge 53, Type (0, 1), BuildingBlock: XUDNAN_clean_linker_2, # of connection points: 2
#     Edge 54, Type (0, 1), BuildingBlock: XUDNAN_clean_linker_2, # of connection points: 2
#     Edge 55, Type (0, 1), BuildingBlock: XUDNAN_clean_linker_2, # of connection points: 2
#     Edge 56, Type (0, 1), BuildingBlock: XUDNAN_clean_linker_2, # of connection points: 2
#     Edge 57, Type (0, 1), BuildingBlock: XUDNAN_clean_linker_2, # of connection points: 2
#     Edge 58, Type (0, 1), BuildingBlock: XUDNAN_clean_linker_2, # of connection points: 2
#     Edge 59, Type (0, 1), BuildingBlock: XUDNAN_clean_linker_2, # of connection points: 2
#     Edge 60, Type (0, 1), BuildingBlock: XUDNAN_clean_linker_2, # of connection points: 2
#     Edge 61, Type (0, 1), BuildingBlock: XUDNAN_clean_linker_2, # of connection points: 2
#     Edge 62, Type (0, 1), BuildingBlock: XUDNAN_clean_linker_2, # of connection points: 2
#     Edge 63, Type (0, 1), BuildingBlock: XUDNAN_clean_linker_2, # of connection points: 2
#     Edge 64, Type (0, 1), BuildingBlock: XUDNAN_clean_linker_2, # of connection points: 2
#     Edge 65, Type (0, 1), BuildingBlock: XUDNAN_clean_linker_2, # of connection points: 2
#     Edge 66, Type (0, 1), BuildingBlock: XUDNAN_clean_linker_2, # of connection points: 2
#     Edge 67, Type (0, 1), BuildingBlock: XUDNAN_clean_linker_2, # of connection points: 2
#     Edge 68, Type (0, 1), BuildingBlock: XUDNAN_clean_linker_2, # of connection points: 2
#     Edge 69, Type (0, 1), BuildingBlock: XUDNAN_clean_linker_2, # of connection points: 2
#     Edge 70, Type (0, 1), BuildingBlock: XUDNAN_clean_linker_2, # of connection points: 2
#     Edge 71, Type (0, 1), BuildingBlock: XUDNAN_clean_linker_2, # of connection points: 2
#     Edge 72, Type (0, 1), BuildingBlock: XUDNAN_clean_linker_2, # of connection points: 2
#     Edge 73, Type (0, 1), BuildingBlock: XUDNAN_clean_linker_2, # of connection points: 2
#     Edge 74, Type (0, 1), BuildingBlock: XUDNAN_clean_linker_2, # of connection points: 2
#     Edge 75, Type (0, 1), BuildingBlock: XUDNAN_clean_linker_2, # of connection points: 2
#     Edge 76, Type (0, 1), BuildingBlock: XUDNAN_clean_linker_2, # of connection points: 2
#     Edge 77, Type (0, 1), BuildingBlock: XUDNAN_clean_linker_2, # of connection points: 2
#     Edge 78, Type (0, 1), BuildingBlock: XUDNAN_clean_linker_2, # of connection points: 2
#     Edge 79, Type (0, 1), BuildingBlock: XUDNAN_clean_linker_2, # of connection points: 2
#     Edge 80, Type (0, 1), BuildingBlock: XUDNAN_clean_linker_2, # of connection points: 2
#     Edge 81, Type (0, 1), BuildingBlock: XUDNAN_clean_linker_2, # of connection points: 2
#     Edge 82, Type (0, 1), BuildingBlock: XUDNAN_clean_linker_2, # of connection points: 2
#     Edge 83, Type (0, 1), BuildingBlock: XUDNAN_clean_linker_2, # of connection points: 2
#     Edge 84, Type (0, 1), BuildingBlock: XUDNAN_clean_linker_2, # of connection points: 2
#     Edge 85, Type (0, 1), BuildingBlock: XUDNAN_clean_linker_2, # of connection points: 2
#     Edge 86, Type (0, 1), BuildingBlock: XUDNAN_clean_linker_2, # of connection points: 2
#     Edge 87, Type (0, 1), BuildingBlock: XUDNAN_clean_linker_2, # of connection points: 2
#     Edge 88, Type (0, 1), BuildingBlock: XUDNAN_clean_linker_2, # of connection points: 2
#     Edge 89, Type (0, 1), BuildingBlock: XUDNAN_clean_linker_2, # of connection points: 2
#     Edge 90, Type (0, 1), BuildingBlock: XUDNAN_clean_linker_2, # of connection points: 2
#     Edge 91, Type (0, 1), BuildingBlock: XUDNAN_clean_linker_2, # of connection points: 2
#     Edge 92, Type (0, 1), BuildingBlock: XUDNAN_clean_linker_2, # of connection points: 2
#     Edge 93, Type (0, 1), BuildingBlock: XUDNAN_clean_linker_2, # of connection points: 2
#     Edge 94, Type (0, 1), BuildingBlock: XUDNAN_clean_linker_2, # of connection points: 2
#     Edge 95, Type (0, 1), BuildingBlock: XUDNAN_clean_linker_2, # of connection points: 2
#     Edge 96, Type (0, 1), BuildingBlock: XUDNAN_clean_linker_2, # of connection points: 2
#     Edge 97, Type (0, 1), BuildingBlock: XUDNAN_clean_linker_2, # of connection points: 2
#     Edge 98, Type (0, 1), BuildingBlock: XUDNAN_clean_linker_2, # of connection points: 2
#     Edge 99, Type (0, 1), BuildingBlock: XUDNAN_clean_linker_2, # of connection points: 2
#     Edge 100, Type (0, 1), BuildingBlock: XUDNAN_clean_linker_2, # of connection points: 2
#     Edge 101, Type (0, 1), BuildingBlock: XUDNAN_clean_linker_2, # of connection points: 2
#     Edge 102, Type (0, 1), BuildingBlock: XUDNAN_clean_linker_2, # of connection points: 2
#     Edge 103, Type (0, 1), BuildingBlock: XUDNAN_clean_linker_2, # of connection points: 2
#     Edge 104, Type (0, 1), BuildingBlock: XUDNAN_clean_linker_2, # of connection points: 2
#     Edge 105, Type (0, 1), BuildingBlock: XUDNAN_clean_linker_2, # of connection points: 2
#     Edge 106, Type (0, 1), BuildingBlock: XUDNAN_clean_linker_2, # of connection points: 2
#     Edge 107, Type (0, 1), BuildingBlock: XUDNAN_clean_linker_2, # of connection points: 2
# Relax obj value: 0.094
# Max RMSD: 0.270
# Mean RMSD: 0.172
data_MOF--net-ptr--node1-TATPOV_clean_sbu_0--node2-AZAVOO_clean_linker_0--edge1-XUDNAN_clean_linker_2
_symmetry_space_group_name_H-M    P1
_symmetry_Int_Tables_number       1
_symmetry_cell_setting            triclinic
loop_
_symmetry_equiv_pos_as_xyz
'x, y, z'
_cell_length_a     81.466204
_cell_length_b     81.672577
_cell_length_c     68.06371
_cell_angle_alpha  92.425208
_cell_angle_beta   93.143968
_cell_angle_gamma 121.59397
loop_
_atom_site_label
_atom_site_type_symbol
_atom_site_fract_x
_atom_site_fract_y
_atom_site_fract_z
_atom_type_partial_charge
Zn0 Zn 0.9544 0.36521 0.01083 0.0
Zn1 Zn 0.98962 0.37286 0.02506 0.0
O2 O 0.97368 0.34358 0.01711 0.0
O3 O 0.94497 0.33711 0.00548 0.0
O4 O 0.0138 0.37638 0.03924 0.0
O5 O 0.9506 0.37537 0.03679 0.0
O6 O 0.98013 0.38316 0.0469 0.0
C7 C 0.95655 0.33155 0.00947 0.0
C8 C 0.98692 0.39159 0.98868 0.0
O9 O 0.9976 0.38935 0.00132 0.0
O10 O 0.96884 0.38319 0.98997 0.0
C11 C 0.02117 0.36652 0.03451 0.0
O12 O 0.01406 0.35472 0.01837 0.0
C13 C 0.96477 0.38303 0.04989 0.0
Zn14 Zn 0.62611 0.58596 0.05466 0.0
Zn15 Zn 0.62836 0.61883 0.06854 0.0
O16 O 0.65582 0.62868 0.06093 0.0
O17 O 0.65468 0.60207 0.05087 0.0
O18 O 0.63026 0.64238 0.08146 0.0
O19 O 0.6166 0.57379 0.08038 0.0
O20 O 0.61998 0.60126 0.09113 0.0
C21 C 0.66404 0.62028 0.05416 0.0
C22 C 0.60219 0.59624 0.03136 0.0
O23 O 0.60839 0.61024 0.04451 0.0
O24 O 0.60764 0.58431 0.03239 0.0
C25 C 0.63892 0.65894 0.07489 0.0
O26 O 0.64677 0.6612 0.05809 0.0
C27 C 0.61571 0.58423 0.09405 0.0
Zn28 Zn 0.38618 0.97584 0.02223 0.0
Zn29 Zn 0.39182 0.01223 0.02355 0.0
O30 O 0.36368 0.99411 0.0279 0.0
O31 O 0.35765 0.96451 0.02658 0.0
O32 O 0.39288 0.03739 0.02404 0.0
O33 O 0.39526 0.98009 0.99453 0.0
O34 O 0.39923 0.00899 0.9962 0.0
C35 C 0.35193 0.97617 0.02882 0.0
C36 C 0.41431 0.00329 0.05394 0.0
O37 O 0.41045 0.01513 0.04664 0.0
O38 O 0.40604 0.98607 0.04626 0.0
C39 C 0.38566 0.04148 0.03813 0.0
O40 O 0.37963 0.03014 0.05263 0.0
C41 C 0.39994 0.99562 0.98673 0.0
Zn42 Zn 0.0387 0.62811 0.04989 0.0
Zn43 Zn 0.00424 0.62652 0.04574 0.0
O44 O 0.02643 0.65438 0.05153 0.0
O45 O 0.05486 0.65741 0.05414 0.0
O46 O 0.98342 0.63223 0.03956 0.0
O47 O 0.03213 0.61401 0.02235 0.0
O48 O 0.00359 0.61104 0.02107 0.0
C49 C 0.04474 0.665 0.05448 0.0
C50 C 0.01002 0.60735 0.0794 0.0
O51 O 0.9987 0.61126 0.06996 0.0
O52 O 0.02664 0.61284 0.07375 0.0
C53 C 0.96857 0.62349 0.02719 0.0
O54 O 0.9635 0.60661 0.01853 0.0
C55 C 0.0155 0.60752 0.01355 0.0
Zn56 Zn 0.37828 0.42798 0.02302 0.0
Zn57 Zn 0.37765 0.39814 0.00442 0.0
O58 O 0.34954 0.38666 0.01164 0.0
O59 O 0.35006 0.41129 0.0268 0.0
O60 O 0.37603 0.3757 0.9889 0.0
O61 O 0.38697 0.44319 0.99918 0.0
O62 O 0.38729 0.41888 0.98439 0.0
C63 C 0.34092 0.39362 0.02062 0.0
C64 C 0.40325 0.41725 0.04296 0.0
O65 O 0.39714 0.40441 0.02852 0.0
O66 O 0.39754 0.42899 0.04373 0.0
C67 C 0.3679 0.35902 0.99522 0.0
O68 O 0.36105 0.35655 0.0126 0.0
C69 C 0.39007 0.43576 0.98424 0.0
Zn70 Zn 0.63177 0.04868 0.0553 0.0
Zn71 Zn 0.61994 0.01147 0.04431 0.0
O72 O 0.64931 0.02752 0.04367 0.0
O73 O 0.66023 0.0571 0.05601 0.0
O74 O 0.61552 0.9848 0.04012 0.0
O75 O 0.61742 0.04043 0.08005 0.0
O76 O 0.60926 0.01071 0.0712 0.0
C77 C 0.66339 0.04455 0.04883 0.0
C78 C 0.60763 0.0317 0.01685 0.0
O79 O 0.60604 0.01586 0.02092 0.0
O80 O 0.6176 0.04675 0.02865 0.0
C81 C 0.62469 0.98147 0.02764 0.0
O82 O 0.63443 0.99453 0.01536 0.0
C83 C 0.60908 0.02283 0.08347 0.0
Zn84 Zn 0.61722 0.70102 0.33715 0.0
Zn85 Zn 0.65224 0.70912 0.35184 0.0
O86 O 0.63711 0.68027 0.34232 0.0
O87 O 0.60745 0.67256 0.333 0.0
O88 O 0.67666 0.71192 0.36438 0.0
O89 O 0.61403 0.71207 0.36277 0.0
O90 O 0.64225 0.71764 0.37493 0.0
C91 C 0.61976 0.6677 0.33581 0.0
C92 C 0.64949 0.72886 0.31601 0.0
O93 O 0.66005 0.72713 0.32928 0.0
O94 O 0.63121 0.71898 0.31597 0.0
C95 C 0.6933 0.72723 0.36722 0.0
O96 O 0.69583 0.74346 0.36135 0.0
C97 C 0.6271 0.71824 0.37695 0.0
Zn98 Zn 0.27217 0.90345 0.39056 0.0
Zn99 Zn 0.287 0.94123 0.39478 0.0
O100 O 0.31008 0.93955 0.38613 0.0
O101 O 0.29684 0.90827 0.38005 0.0
O102 O 0.29799 0.9697 0.40084 0.0
O103 O 0.26843 0.90042 0.4194 0.0
O104 O 0.2759 0.93056 0.42118 0.0
C105 C 0.31129 0.92528 0.38001 0.0
C106 C 0.25219 0.91635 0.3652 0.0
O107 O 0.26611 0.93306 0.37185 0.0
O108 O 0.25076 0.90138 0.37172 0.0
C109 C 0.31206 0.98304 0.39273 0.0
O110 O 0.32006 0.97845 0.37904 0.0
C111 C 0.26993 0.91475 0.42911 0.0
Zn112 Zn 0.05622 0.29922 0.36669 0.0
Zn113 Zn 0.06456 0.33464 0.35989 0.0
O114 O 0.03618 0.31999 0.36667 0.0
O115 O 0.02934 0.291 0.373 0.0
O116 O 0.06783 0.36029 0.35487 0.0
O117 O 0.06158 0.29552 0.33893 0.0
O118 O 0.06966 0.32514 0.33357 0.0
C119 C 0.02433 0.30322 0.37178 0.0
C120 C 0.08724 0.32913 0.39357 0.0
O121 O 0.08427 0.34043 0.38372 0.0
O122 O 0.07742 0.31112 0.38886 0.0
C123 C 0.06331 0.36804 0.36842 0.0
O124 O 0.05872 0.35994 0.38516 0.0
C125 C 0.06743 0.30902 0.32757 0.0
Zn126 Zn 0.70129 0.96426 0.3931 0.0
Zn127 Zn 0.6668 0.96253 0.38669 0.0
O128 O 0.68562 0.9902 0.39759 0.0
O129 O 0.71397 0.99301 0.40206 0.0
O130 O 0.64296 0.96295 0.37848 0.0
O131 O 0.69974 0.95547 0.36417 0.0
O132 O 0.67233 0.95466 0.36025 0.0
C133 C 0.70364 0.0004 0.4029 0.0
C134 C 0.66987 0.93749 0.41645 0.0
O135 O 0.65984 0.94327 0.40766 0.0
O136 O 0.68722 0.94399 0.41263 0.0
C137 C 0.63706 0.97194 0.38866 0.0
O138 O 0.64565 0.97985 0.40636 0.0
C139 C 0.6852 0.95239 0.35314 0.0
Zn140 Zn 0.05228 0.75668 0.35899 0.0
Zn141 Zn 0.04888 0.72449 0.34296 0.0
O142 O 0.0213 0.71558 0.35023 0.0
O143 O 0.0247 0.74145 0.36588 0.0
O144 O 0.04565 0.69937 0.33239 0.0
O145 O 0.05804 0.76758 0.33259 0.0
O146 O 0.05803 0.74225 0.32 0.0
C147 C 0.01417 0.72379 0.35979 0.0
C148 C 0.07755 0.7476 0.37953 0.0
O149 O 0.06888 0.73283 0.36711 0.0
O150 O 0.07372 0.76073 0.3787 0.0
C151 C 0.04034 0.68663 0.34473 0.0
O152 O 0.03778 0.69088 0.36269 0.0
C153 C 0.06031 0.7588 0.31823 0.0
Zn154 Zn 0.28356 0.3661 0.37053 0.0
Zn155 Zn 0.27672 0.3311 0.37859 0.0
O156 O 0.30484 0.34636 0.37169 0.0
O157 O 0.31119 0.37515 0.36523 0.0
O158 O 0.27458 0.30613 0.38453 0.0
O159 O 0.27689 0.36934 0.398 0.0
O160 O 0.27099 0.34064 0.40444 0.0
C161 C 0.31655 0.3632 0.36668 0.0
C162 C 0.25321 0.33452 0.34406 0.0
O163 O 0.25696 0.32411 0.35458 0.0
O164 O 0.26239 0.35264 0.34804 0.0
C165 C 0.27769 0.29726 0.37085 0.0
O166 O 0.28041 0.30383 0.35328 0.0
C167 C 0.27181 0.35623 0.40978 0.0
Zn168 Zn 0.29945 0.05119 0.68272 0.0
Zn169 Zn 0.32505 0.0402 0.68782 0.0
O170 O 0.29984 0.01543 0.67669 0.0
O171 O 0.27861 0.02415 0.67235 0.0
O172 O 0.34208 0.02974 0.69468 0.0
O173 O 0.30292 0.06022 0.71143 0.0
O174 O 0.32451 0.0519 0.71513 0.0
C175 C 0.2828 0.01127 0.67114 0.0
C176 C 0.33225 0.07025 0.65889 0.0
O177 O 0.33775 0.05977 0.66673 0.0
O178 O 0.31699 0.06929 0.66376 0.0
C179 C 0.35916 0.03981 0.70312 0.0
O180 O 0.36723 0.05857 0.70625 0.0
C181 C 0.31525 0.05901 0.72237 0.0
Zn182 Zn 0.95799 0.23966 0.72459 0.0
Zn183 Zn 0.96281 0.27469 0.73461 0.0
O184 O 0.98938 0.28113 0.72712 0.0
O185 O 0.98611 0.25336 0.7179 0.0
O186 O 0.96766 0.30116 0.74224 0.0
O187 O 0.95062 0.23212 0.7522 0.0
O188 O 0.95341 0.26004 0.75959 0.0
C189 C 0.99651 0.2716 0.72048 0.0
C190 C 0.93344 0.24822 0.70036 0.0
O191 O 0.94255 0.26439 0.71064 0.0
O192 O 0.93686 0.2351 0.70373 0.0
C193 C 0.97513 0.31381 0.72987 0.0
O194 O 0.97866 0.30889 0.71271 0.0
C195 C 0.9493 0.24346 0.76438 0.0
Zn196 Zn 0.73726 0.64114 0.68895 0.0
Zn197 Zn 0.72703 0.66771 0.69135 0.0
O198 O 0.70254 0.64319 0.69784 0.0
O199 O 0.71112 0.62173 0.69819 0.0
O200 O 0.71909 0.68728 0.69061 0.0
O201 O 0.74092 0.64442 0.65996 0.0
O202 O 0.73526 0.66789 0.66327 0.0
C203 C 0.69864 0.62626 0.7007 0.0
C204 C 0.76068 0.67292 0.7186 0.0
O205 O 0.74866 0.67792 0.71391 0.0
O206 O 0.75965 0.65853 0.70944 0.0
C207 C 0.70668 0.6873 0.70114 0.0
O208 O 0.69907 0.67455 0.71424 0.0
C209 C 0.73985 0.65788 0.6527 0.0
Zn210 Zn 0.38932 0.3014 0.72289 0.0
Zn211 Zn 0.35477 0.29455 0.70805 0.0
O212 O 0.3714 0.32357 0.7171 0.0
O213 O 0.40003 0.32978 0.72846 0.0
O214 O 0.33046 0.29307 0.69703 0.0
O215 O 0.39213 0.29094 0.69676 0.0
O216 O 0.36364 0.2849 0.6848 0.0
C217 C 0.38855 0.3355 0.7247 0.0
C218 C 0.35682 0.27437 0.7439 0.0
O219 O 0.34664 0.27687 0.73089 0.0
O220 O 0.37505 0.28326 0.74364 0.0
C221 C 0.32366 0.30028 0.70852 0.0
O222 O 0.33162 0.30623 0.72676 0.0
C223 C 0.37889 0.28449 0.6827 0.0
Zn224 Zn 0.72884 0.09056 0.69424 0.0
Zn225 Zn 0.71502 0.05414 0.68075 0.0
O226 O 0.69012 0.0537 0.68699 0.0
O227 O 0.70177 0.08442 0.69543 0.0
O228 O 0.70541 0.02801 0.66686 0.0
O229 O 0.74256 0.10144 0.67011 0.0
O230 O 0.7302 0.07123 0.65894 0.0
C231 C 0.68748 0.06728 0.69225 0.0
C232 C 0.7413 0.07024 0.71895 0.0
O233 O 0.73203 0.05636 0.70557 0.0
O234 O 0.74173 0.08588 0.71757 0.0
C235 C 0.69761 0.01158 0.67373 0.0
O236 O 0.69476 0.01018 0.69255 0.0
C237 C 0.74028 0.08918 0.65653 0.0
Zn238 Zn 0.93999 0.69428 0.70288 0.0
Zn239 Zn 0.93248 0.65741 0.7028 0.0
O240 O 0.96182 0.6747 0.702 0.0
O241 O 0.9685 0.70442 0.70077 0.0
O242 O 0.92876 0.63113 0.70517 0.0
O243 O 0.92954 0.69151 0.72994 0.0
O244 O 0.92109 0.66102 0.72745 0.0
C245 C 0.97405 0.69254 0.70088 0.0
C246 C 0.91383 0.66738 0.66938 0.0
O247 O 0.91696 0.65527 0.67724 0.0
O248 O 0.9215 0.68438 0.67753 0.0
C249 C 0.9401 0.62659 0.69806 0.0
O250 O 0.95376 0.63872 0.68754 0.0
C251 C 0.9214 0.67507 0.73667 0.0
H252 H 0.13177 0.34869 0.01943 0.0
H253 H 0.25483 0.29379 0.16428 0.0
H254 H 0.14738 0.3538 0.14298 0.0
H255 H 0.12509 0.36354 0.13151 0.0
H256 H 0.08898 0.30801 0.09847 0.0
H257 H 0.11182 0.29867 0.10963 0.0
H258 H 0.16056 0.35416 0.10154 0.0
H259 H 0.15035 0.35756 0.06829 0.0
H260 H 0.13397 0.29909 0.05053 0.0
H261 H 0.14395 0.29578 0.08397 0.0
H262 H 0.19516 0.35328 0.10137 0.0
H263 H 0.21902 0.36022 0.07793 0.0
H264 H 0.20875 0.30282 0.081 0.0
H265 H 0.18362 0.29551 0.10336 0.0
H266 H 0.21703 0.34625 0.13941 0.0
H267 H 0.24545 0.3439 0.14664 0.0
H268 H 0.20799 0.28368 0.15636 0.0
H269 H 0.17969 0.28618 0.14886 0.0
H270 H 0.19913 0.34316 0.17827 0.0
H271 H 0.2092 0.34014 0.21164 0.0
H272 H 0.15822 0.2829 0.21036 0.0
H273 H 0.1486 0.28586 0.17651 0.0
H274 H 0.16143 0.34306 0.18357 0.0
H275 H 0.14254 0.33809 0.21186 0.0
H276 H 0.09449 0.28623 0.18073 0.0
H277 H 0.11391 0.29079 0.15302 0.0
O278 O 0.13593 0.3471 0.03243 0.0
O279 O 0.1285 0.31726 0.02379 0.0
O280 O 0.26247 0.32609 0.15601 0.0
O281 O 0.24385 0.29511 0.16129 0.0
C282 C 0.14678 0.32148 0.13106 0.0
C283 C 0.15808 0.32222 0.11567 0.0
C284 C 0.17437 0.32063 0.11971 0.0
C285 C 0.17906 0.31779 0.13908 0.0
C286 C 0.16756 0.31669 0.15441 0.0
C287 C 0.15143 0.31859 0.15039 0.0
C288 C 0.13122 0.32557 0.1271 0.0
C289 C 0.13441 0.34359 0.13363 0.0
C290 C 0.12163 0.34912 0.12703 0.0
C291 C 0.1053 0.33664 0.11388 0.0
C292 C 0.10161 0.31813 0.10825 0.0
C293 C 0.11449 0.31266 0.11479 0.0
C294 C 0.15282 0.32466 0.0952 0.0
C295 C 0.1547 0.34208 0.09046 0.0
C296 C 0.1489 0.344 0.07144 0.0
C297 C 0.14127 0.32857 0.05676 0.0
C298 C 0.13974 0.31124 0.0615 0.0
C299 C 0.14547 0.30932 0.08056 0.0
C300 C 0.18763 0.3239 0.10411 0.0
C301 C 0.19767 0.34202 0.09658 0.0
C302 C 0.21155 0.34604 0.08339 0.0
C303 C 0.21613 0.33221 0.07783 0.0
C304 C 0.20554 0.31378 0.08484 0.0
C305 C 0.1913 0.30962 0.09777 0.0
C306 C 0.19632 0.31636 0.14352 0.0
C307 C 0.215 0.33254 0.143 0.0
C308 C 0.2312 0.33117 0.14719 0.0
C309 C 0.22899 0.31359 0.15207 0.0
C310 C 0.21021 0.29743 0.15265 0.0
C311 C 0.19403 0.29881 0.1484 0.0
C312 C 0.17319 0.31471 0.17493 0.0
C313 C 0.19017 0.32994 0.18517 0.0
C314 C 0.19579 0.32824 0.20433 0.0
C315 C 0.18446 0.3113 0.21376 0.0
C316 C 0.16736 0.29606 0.20347 0.0
C317 C 0.16178 0.29776 0.18421 0.0
C318 C 0.13915 0.31712 0.16639 0.0
C319 C 0.14679 0.33068 0.18287 0.0
C320 C 0.13589 0.32791 0.19894 0.0
C321 C 0.11705 0.31163 0.19867 0.0
C322 C 0.10909 0.29869 0.18161 0.0
C323 C 0.12008 0.30136 0.16567 0.0
C324 C 0.13485 0.33056 0.03665 0.0
C325 C 0.24615 0.31205 0.15656 0.0
H326 H 0.63562 0.78921 0.02889 0.0
H327 H 0.69366 0.97502 0.16937 0.0
H328 H 0.64024 0.80468 0.15244 0.0
H329 H 0.63464 0.77247 0.14565 0.0
H330 H 0.68945 0.7973 0.12024 0.0
H331 H 0.69479 0.82957 0.12692 0.0
H332 H 0.63592 0.81553 0.11025 0.0
H333 H 0.63028 0.80016 0.07687 0.0
H334 H 0.6878 0.84483 0.06478 0.0
H335 H 0.69331 0.85994 0.09829 0.0
H336 H 0.6344 0.85395 0.11141 0.0
H337 H 0.62677 0.8704 0.0865 0.0
H338 H 0.68764 0.91324 0.0865 0.0
H339 H 0.69513 0.89679 0.11161 0.0
H340 H 0.6423 0.87972 0.14704 0.0
H341 H 0.64352 0.91019 0.15234 0.0
H342 H 0.70568 0.94029 0.16469 0.0
H343 H 0.70424 0.90973 0.15915 0.0
H344 H 0.64387 0.86082 0.18396 0.0
H345 H 0.64449 0.87697 0.21522 0.0
H346 H 0.70667 0.90417 0.2234 0.0
H347 H 0.70574 0.88732 0.19216 0.0
H348 H 0.64708 0.82966 0.1896 0.0
H349 H 0.64885 0.81218 0.21705 0.0
H350 H 0.70444 0.82387 0.2011 0.0
H351 H 0.70285 0.84207 0.17411 0.0
O352 O 0.63814 0.79555 0.04201 0.0
O353 O 0.66777 0.81894 0.03648 0.0
O354 O 0.66079 0.94664 0.16057 0.0
O355 O 0.69276 0.96278 0.16714 0.0
C356 C 0.67054 0.83875 0.14342 0.0
C357 C 0.66857 0.8479 0.12704 0.0
C358 C 0.66942 0.86553 0.13006 0.0
C359 C 0.67245 0.87412 0.1494 0.0
C360 C 0.67415 0.86488 0.16577 0.0
C361 C 0.67339 0.84727 0.16283 0.0
C362 C 0.66795 0.81942 0.14027 0.0
C363 C 0.65114 0.80316 0.14563 0.0
C364 C 0.648 0.78478 0.14178 0.0
C365 C 0.66163 0.78232 0.13244 0.0
C366 C 0.67859 0.79871 0.12726 0.0
C367 C 0.68172 0.81712 0.13116 0.0
C368 C 0.66505 0.83877 0.10669 0.0
C369 C 0.6473 0.82192 0.10038 0.0
C370 C 0.64411 0.8132 0.0813 0.0
C371 C 0.6586 0.82125 0.06816 0.0
C372 C 0.67634 0.83825 0.07453 0.0
C373 C 0.67951 0.84692 0.09363 0.0
C374 C 0.6653 0.87418 0.11323 0.0
C375 C 0.64609 0.86671 0.10577 0.0
C376 C 0.64176 0.87615 0.09168 0.0
C377 C 0.65662 0.89309 0.08463 0.0
C378 C 0.67594 0.90011 0.09156 0.0
C379 C 0.68024 0.89079 0.10588 0.0
C380 C 0.6732 0.8926 0.1526 0.0
C381 C 0.65616 0.89294 0.15079 0.0
C382 C 0.6569 0.91034 0.15388 0.0
C383 C 0.67471 0.92769 0.15892 0.0
C384 C 0.69174 0.92722 0.1608 0.0
C385 C 0.69097 0.9098 0.15766 0.0
C386 C 0.67474 0.8729 0.1859 0.0
C387 C 0.65757 0.87 0.1927 0.0
C388 C 0.65801 0.87941 0.21044 0.0
C389 C 0.67568 0.89212 0.22164 0.0
C390 C 0.69283 0.89441 0.21515 0.0
C391 C 0.69235 0.88484 0.19736 0.0
C392 C 0.67494 0.83736 0.18002 0.0
C393 C 0.6598 0.82875 0.19227 0.0
C394 C 0.66073 0.81853 0.20778 0.0
C395 C 0.67676 0.81651 0.21125 0.0
C396 C 0.69201 0.82532 0.19901 0.0
C397 C 0.69109 0.83565 0.18354 0.0
C398 C 0.65519 0.81191 0.04793 0.0
C399 C 0.67558 0.94622 0.16224 0.0
H400 H 0.16388 0.83912 0.02075 0.0
H401 H 0.28496 0.98525 0.19306 0.0
H402 H 0.13366 0.84471 0.11658 0.0
H403 H 0.10956 0.8132 0.10011 0.0
H404 H 0.13295 0.78658 0.13634 0.0
H405 H 0.15767 0.81839 0.15197 0.0
H406 H 0.16634 0.87599 0.09736 0.0
H407 H 0.16365 0.86407 0.06301 0.0
H408 H 0.18193 0.82587 0.0825 0.0
H409 H 0.18476 0.8381 0.11677 0.0
H410 H 0.19454 0.91132 0.1152 0.0
H411 H 0.21817 0.92932 0.0917 0.0
H412 H 0.24851 0.90061 0.10752 0.0
H413 H 0.22406 0.88188 0.12976 0.0
H414 H 0.19139 0.92067 0.16763 0.0
H415 H 0.21706 0.95348 0.17983 0.0
H416 H 0.25943 0.9371 0.17556 0.0
H417 H 0.23361 0.90432 0.16362 0.0
H418 H 0.15932 0.88473 0.19434 0.0
H419 H 0.16523 0.89333 0.23021 0.0
H420 H 0.21872 0.89425 0.2304 0.0
H421 H 0.2124 0.88492 0.19497 0.0
H422 H 0.12822 0.84858 0.1628 0.0
H423 H 0.10507 0.82948 0.18617 0.0
H424 H 0.14902 0.82388 0.2181 0.0
H425 H 0.17182 0.84234 0.19414 0.0
O426 O 0.16513 0.8437 0.03444 0.0
O427 O 0.1745 0.82427 0.04522 0.0
O428 O 0.25218 0.98009 0.1902 0.0
O429 O 0.27454 0.97241 0.18824 0.0
C430 C 0.16369 0.85324 0.14319 0.0
C431 C 0.17735 0.86514 0.13034 0.0
C432 C 0.19288 0.88363 0.13744 0.0
C433 C 0.19494 0.89028 0.15741 0.0
C434 C 0.18177 0.8781 0.17053 0.0
C435 C 0.16598 0.85959 0.16335 0.0
C436 C 0.14743 0.83382 0.1354 0.0
C437 C 0.13345 0.83202 0.12104 0.0
C438 C 0.11962 0.81398 0.11174 0.0
C439 C 0.11937 0.79733 0.1168 0.0
C440 C 0.13295 0.79913 0.13181 0.0
C441 C 0.14692 0.81724 0.14096 0.0
C442 C 0.17582 0.85795 0.10949 0.0
C443 C 0.16988 0.86514 0.09415 0.0
C444 C 0.16829 0.85826 0.07456 0.0
C445 C 0.17258 0.84401 0.07 0.0
C446 C 0.17853 0.83684 0.08548 0.0
C447 C 0.18015 0.84378 0.10506 0.0
C448 C 0.20772 0.89542 0.12414 0.0
C449 C 0.20632 0.90899 0.11347 0.0
C450 C 0.21989 0.91929 0.10014 0.0
C451 C 0.23527 0.9164 0.09757 0.0
C452 C 0.23665 0.90292 0.10864 0.0
C453 C 0.22287 0.89238 0.12159 0.0
C454 C 0.21068 0.9102 0.16454 0.0
C455 C 0.20624 0.92423 0.1693 0.0
C456 C 0.22092 0.94295 0.17626 0.0
C457 C 0.24032 0.94794 0.17861 0.0
C458 C 0.24467 0.93378 0.17386 0.0
C459 C 0.22997 0.91507 0.16692 0.0
C460 C 0.18548 0.88427 0.19201 0.0
C461 C 0.1723 0.88681 0.20216 0.0
C462 C 0.1757 0.89175 0.22256 0.0
C463 C 0.19253 0.89465 0.23296 0.0
C464 C 0.20581 0.89244 0.22267 0.0
C465 C 0.20222 0.88712 0.20245 0.0
C466 C 0.15172 0.84696 0.17688 0.0
C467 C 0.13274 0.84298 0.17469 0.0
C468 C 0.11959 0.8322 0.18814 0.0
C469 C 0.12524 0.82529 0.20411 0.0
C470 C 0.14413 0.82881 0.20587 0.0
C471 C 0.15724 0.8395 0.19232 0.0
C472 C 0.17082 0.83669 0.04918 0.0
C473 C 0.25597 0.96779 0.18603 0.0
H474 H 0.33191 0.21396 0.04402 0.0
H475 H 0.3478 0.06145 0.93326 0.0
H476 H 0.3071 0.18816 0.94113 0.0
H477 H 0.3127 0.22063 0.94652 0.0
H478 H 0.36708 0.2441 0.92051 0.0
H479 H 0.36133 0.21166 0.91517 0.0
H480 H 0.30892 0.16101 0.97316 0.0
H481 H 0.31334 0.17909 0.00463 0.0
H482 H 0.37032 0.22359 0.99094 0.0
H483 H 0.36579 0.20524 0.95963 0.0
H484 H 0.30894 0.1234 0.96425 0.0
H485 H 0.31782 0.10829 0.98975 0.0
H486 H 0.37784 0.15348 0.98952 0.0
H487 H 0.36886 0.16868 0.96433 0.0
H488 H 0.30072 0.10703 0.91736 0.0
H489 H 0.30038 0.07689 0.91794 0.0
H490 H 0.36209 0.10953 0.93426 0.0
H491 H 0.36227 0.13951 0.93322 0.0
H492 H 0.29871 0.12955 0.88057 0.0
H493 H 0.29775 0.11143 0.85036 0.0
H494 H 0.35859 0.1327 0.86298 0.0
H495 H 0.35922 0.15029 0.8932 0.0
H496 H 0.30056 0.17331 0.89462 0.0
H497 H 0.29933 0.18881 0.86501 0.0
H498 H 0.35395 0.19648 0.85095 0.0
H499 H 0.35551 0.18199 0.88103 0.0
O500 O 0.33054 0.20694 0.0316 0.0
O501 O 0.35965 0.2295 0.02375 0.0
O502 O 0.31603 0.05702 0.92311 0.0
O503 O 0.34757 0.07313 0.93248 0.0
C504 C 0.33182 0.17841 0.92698 0.0
C505 C 0.33397 0.17109 0.94479 0.0
C506 C 0.33382 0.15375 0.94421 0.0
C507 C 0.33144 0.14361 0.9259 0.0
C508 C 0.32949 0.15095 0.90811 0.0
C509 C 0.32952 0.1683 0.9086 0.0
C510 C 0.33379 0.19757 0.92774 0.0
C511 C 0.32006 0.20031 0.93633 0.0
C512 C 0.32335 0.21886 0.93951 0.0
C513 C 0.34039 0.23495 0.93404 0.0
C514 C 0.35371 0.23201 0.92468 0.0
C515 C 0.35045 0.21348 0.9216 0.0
C516 C 0.33699 0.18187 0.9641 0.0
C517 C 0.32238 0.17462 0.97705 0.0
C518 C 0.32493 0.185 0.99499 0.0
C519 C 0.34216 0.20283 0.00027 0.0
C520 C 0.35685 0.20994 0.9873 0.0
C521 C 0.3543 0.19951 0.96941 0.0
C522 C 0.33827 0.1471 0.96252 0.0
C523 C 0.32389 0.13037 0.97024 0.0
C524 C 0.32897 0.12179 0.98473 0.0
C525 C 0.3485 0.12974 0.99142 0.0
C526 C 0.3627 0.14712 0.98452 0.0
C527 C 0.35759 0.15585 0.97028 0.0
C528 C 0.33148 0.12541 0.9254 0.0
C529 C 0.31415 0.10762 0.92092 0.0
C530 C 0.314 0.09044 0.92131 0.0
C531 C 0.3312 0.0908 0.92625 0.0
C532 C 0.34858 0.10872 0.93047 0.0
C533 C 0.34872 0.12587 0.92993 0.0
C534 C 0.329 0.14112 0.88906 0.0
C535 C 0.31181 0.13034 0.87667 0.0
C536 C 0.31133 0.12006 0.85943 0.0
C537 C 0.32806 0.12047 0.85435 0.0
C538 C 0.34535 0.13172 0.86665 0.0
C539 C 0.34578 0.14189 0.88384 0.0
C540 C 0.32807 0.17642 0.88993 0.0
C541 C 0.31221 0.17831 0.88507 0.0
C542 C 0.31147 0.18705 0.86808 0.0
C543 C 0.32658 0.19399 0.85562 0.0
C544 C 0.34222 0.19163 0.86037 0.0
C545 C 0.34302 0.18309 0.87742 0.0
C546 C 0.34472 0.21394 0.01922 0.0
C547 C 0.33107 0.0726 0.92714 0.0
H548 H 0.83391 0.15434 0.05508 0.0
H549 H 0.7447 0.99556 0.89103 0.0
H550 H 0.84239 0.16393 0.95088 0.0
H551 H 0.86551 0.19669 0.96475 0.0
H552 H 0.91263 0.18862 0.95331 0.0
H553 H 0.88907 0.1552 0.94033 0.0
H554 H 0.81359 0.13221 0.97037 0.0
H555 H 0.8173 0.14187 0.00561 0.0
H556 H 0.86933 0.13991 0.01236 0.0
H557 H 0.86528 0.12996 0.97711 0.0
H558 H 0.78375 0.096 0.93824 0.0
H559 H 0.75956 0.08136 0.96191 0.0
H560 H 0.79987 0.07554 0.00022 0.0
H561 H 0.82382 0.08912 0.97575 0.0
H562 H 0.78716 0.09134 0.89749 0.0
H563 H 0.76043 0.05946 0.88424 0.0
H564 H 0.78687 0.03309 0.91601 0.0
H565 H 0.81366 0.06509 0.92896 0.0
H566 H 0.82192 0.13058 0.88223 0.0
H567 H 0.81083 0.12053 0.8476 0.0
H568 H 0.81825 0.07211 0.85261 0.0
H569 H 0.83131 0.08357 0.88706 0.0
H570 H 0.84825 0.1641 0.90729 0.0
H571 H 0.86864 0.1875 0.88481 0.0
H572 H 0.8949 0.15426 0.87282 0.0
H573 H 0.87408 0.13068 0.89518 0.0
O574 O 0.83273 0.15052 0.04116 0.0
O575 O 0.85955 0.14957 0.0438 0.0
O576 O 0.74215 0.02263 0.87995 0.0
O577 O 0.7551 0.00834 0.89605 0.0
C578 C 0.8495 0.13698 0.93704 0.0
C579 C 0.83664 0.124 0.94986 0.0
C580 C 0.82107 0.10558 0.94225 0.0
C581 C 0.81888 0.09991 0.92188 0.0
C582 C 0.83181 0.1129 0.90898 0.0
C583 C 0.8471 0.1315 0.9166 0.0
C584 C 0.86404 0.15713 0.94481 0.0
C585 C 0.8577 0.16917 0.95153 0.0
C586 C 0.87098 0.18799 0.95922 0.0
C587 C 0.89098 0.19538 0.96002 0.0
C588 C 0.89734 0.18332 0.95309 0.0
C589 C 0.88394 0.16431 0.94555 0.0
C590 C 0.83905 0.13019 0.97124 0.0
C591 C 0.82571 0.13376 0.97951 0.0
C592 C 0.82791 0.13934 0.99964 0.0
C593 C 0.84359 0.14161 0.01182 0.0
C594 C 0.85706 0.13824 0.00341 0.0
C595 C 0.8548 0.13258 0.98329 0.0
C596 C 0.80557 0.09356 0.95514 0.0
C597 C 0.78715 0.09081 0.95129 0.0
C598 C 0.77338 0.08258 0.96488 0.0
C599 C 0.77794 0.0774 0.98283 0.0
C600 C 0.79608 0.07943 0.98643 0.0
C601 C 0.8097 0.08715 0.9725 0.0
C602 C 0.80246 0.08053 0.91401 0.0
C603 C 0.78722 0.07867 0.90146 0.0
C604 C 0.77193 0.06044 0.89397 0.0
C605 C 0.77154 0.04371 0.89902 0.0
C606 C 0.78674 0.04566 0.91178 0.0
C607 C 0.80205 0.06391 0.91922 0.0
C608 C 0.82758 0.10793 0.88724 0.0
C609 C 0.82189 0.11824 0.87572 0.0
C610 C 0.81509 0.11215 0.85596 0.0
C611 C 0.81307 0.09514 0.84736 0.0
C612 C 0.81962 0.08528 0.85867 0.0
C613 C 0.82699 0.09175 0.87841 0.0
C614 C 0.85979 0.14577 0.90301 0.0
C615 C 0.85854 0.16197 0.89994 0.0
C616 C 0.87027 0.17537 0.88712 0.0
C617 C 0.88354 0.17287 0.87707 0.0
C618 C 0.88472 0.15655 0.88016 0.0
C619 C 0.87292 0.14311 0.89299 0.0
C620 C 0.84584 0.14747 0.03322 0.0
C621 C 0.75535 0.02431 0.89107 0.0
H622 H 0.86917 0.68822 0.0595 0.0
H623 H 0.7277 0.68404 0.90284 0.0
H624 H 0.88628 0.70957 0.95784 0.0
H625 H 0.91017 0.70364 0.97297 0.0
H626 H 0.88072 0.64707 0.94113 0.0
H627 H 0.85575 0.65248 0.92797 0.0
H628 H 0.85405 0.71009 0.98298 0.0
H629 H 0.86181 0.70632 0.01709 0.0
H630 H 0.8466 0.64813 0.99979 0.0
H631 H 0.83861 0.65199 0.96582 0.0
H632 H 0.81668 0.71162 0.96225 0.0
H633 H 0.79206 0.7052 0.98495 0.0
H634 H 0.78015 0.64719 0.98813 0.0
H635 H 0.80347 0.65327 0.9643 0.0
H636 H 0.823 0.72181 0.9172 0.0
H637 H 0.79576 0.72569 0.90838 0.0
H638 H 0.75592 0.66551 0.91649 0.0
H639 H 0.7833 0.66179 0.92508 0.0
H640 H 0.85305 0.721 0.89141 0.0
H641 H 0.8462 0.7243 0.85668 0.0
H642 H 0.7952 0.66699 0.85222 0.0
H643 H 0.80262 0.6634 0.88665 0.0
H644 H 0.87862 0.71303 0.89757 0.0
H645 H 0.8888 0.70771 0.86613 0.0
H646 H 0.85009 0.64606 0.86821 0.0
H647 H 0.8383 0.65196 0.89796 0.0
O648 O 0.86594 0.68937 0.04593 0.0
O649 O 0.8581 0.6596 0.03624 0.0
O650 O 0.75982 0.71374 0.90222 0.0
O651 O 0.73873 0.68291 0.90626 0.0
C652 C 0.85278 0.68386 0.93618 0.0
C653 C 0.84138 0.68385 0.95117 0.0
C654 C 0.82549 0.68594 0.94646 0.0
C655 C 0.8217 0.68925 0.92699 0.0
C656 C 0.83319 0.68948 0.91208 0.0
C657 C 0.84831 0.68612 0.91652 0.0
C658 C 0.8694 0.68162 0.9415 0.0
C659 C 0.88521 0.69603 0.95387 0.0
C660 C 0.89896 0.69258 0.96246 0.0
C661 C 0.89753 0.67478 0.95843 0.0
C662 C 0.88221 0.6608 0.94503 0.0
C663 C 0.86813 0.66406 0.93695 0.0
C664 C 0.84591 0.68137 0.97191 0.0
C665 C 0.85236 0.69653 0.98661 0.0
C666 C 0.85681 0.69434 0.00607 0.0
C667 C 0.85488 0.67694 0.01116 0.0
C668 C 0.84831 0.66174 0.99637 0.0
C669 C 0.8438 0.66393 0.97694 0.0
C670 C 0.81182 0.68289 0.96154 0.0
C671 C 0.80866 0.69753 0.96783 0.0
C672 C 0.79472 0.69387 0.98098 0.0
C673 C 0.78394 0.6756 0.9883 0.0
C674 C 0.78777 0.66127 0.98248 0.0
C675 C 0.80134 0.6648 0.96905 0.0
C676 C 0.8051 0.69156 0.92187 0.0
C677 C 0.80838 0.70949 0.91704 0.0
C678 C 0.7928 0.71166 0.91203 0.0
C679 C 0.77365 0.6959 0.91176 0.0
C680 C 0.77046 0.67794 0.91659 0.0
C681 C 0.78606 0.67578 0.92155 0.0
C682 C 0.82849 0.69186 0.89141 0.0
C683 C 0.8405 0.70911 0.88287 0.0
C684 C 0.83655 0.71102 0.86314 0.0
C685 C 0.82019 0.6959 0.85192 0.0
C686 C 0.80784 0.67887 0.86068 0.0
C687 C 0.81206 0.6768 0.88025 0.0
C688 C 0.85775 0.68288 0.90006 0.0
C689 C 0.87249 0.6984 0.89118 0.0
C690 C 0.87838 0.69525 0.8732 0.0
C691 C 0.87009 0.67639 0.86412 0.0
C692 C 0.85635 0.66085 0.87405 0.0
C693 C 0.8499 0.66411 0.89147 0.0
C694 C 0.85972 0.67471 0.03183 0.0
C695 C 0.75705 0.69813 0.90645 0.0
H696 H 0.8178 0.70588 0.34194 0.0
H697 H 0.91176 0.63093 0.49798 0.0
H698 H 0.82131 0.70887 0.46732 0.0
H699 H 0.80172 0.72142 0.45485 0.0
H700 H 0.7651 0.66812 0.4183 0.0
H701 H 0.78427 0.65535 0.43168 0.0
H702 H 0.83666 0.70742 0.42642 0.0
H703 H 0.83078 0.71249 0.39223 0.0
H704 H 0.80909 0.65251 0.37509 0.0
H705 H 0.81481 0.64758 0.4094 0.0
H706 H 0.86914 0.7017 0.42909 0.0
H707 H 0.89407 0.70553 0.40824 0.0
H708 H 0.87496 0.64544 0.41182 0.0
H709 H 0.8491 0.64146 0.43168 0.0
H710 H 0.88573 0.69179 0.46875 0.0
H711 H 0.9112 0.68549 0.47827 0.0
H712 H 0.86758 0.62644 0.48664 0.0
H713 H 0.84227 0.63288 0.47684 0.0
H714 H 0.86631 0.69286 0.50591 0.0
H715 H 0.87517 0.688 0.53905 0.0
H716 H 0.82217 0.63205 0.53562 0.0
H717 H 0.81379 0.63687 0.50209 0.0
H718 H 0.8319 0.7017 0.5026 0.0
H719 H 0.81417 0.70264 0.53018 0.0
H720 H 0.76703 0.6449 0.51093 0.0
H721 H 0.78474 0.64422 0.48313 0.0
O722 O 0.82002 0.70355 0.35537 0.0
O723 O 0.80915 0.67264 0.3473 0.0
O724 O 0.92385 0.66426 0.48944 0.0
O725 O 0.90199 0.63381 0.4941 0.0
C726 C 0.81797 0.67499 0.45577 0.0
C727 C 0.82923 0.67389 0.44123 0.0
C728 C 0.84376 0.66993 0.44651 0.0
C729 C 0.84672 0.6666 0.46624 0.0
C730 C 0.83536 0.66749 0.4807 0.0
C731 C 0.82103 0.67171 0.47547 0.0
C732 C 0.80416 0.68115 0.45051 0.0
C733 C 0.80869 0.69968 0.4571 0.0
C734 C 0.79766 0.70694 0.44969 0.0
C735 C 0.78198 0.69591 0.43533 0.0
C736 C 0.77695 0.67698 0.42944 0.0
C737 C 0.78791 0.66965 0.43703 0.0
C738 C 0.826 0.6771 0.4204 0.0
C739 C 0.83053 0.69538 0.41527 0.0
C740 C 0.82721 0.69824 0.39572 0.0
C741 C 0.81942 0.68289 0.38093 0.0
C742 C 0.81507 0.66463 0.38612 0.0
C743 C 0.81835 0.66177 0.40569 0.0
C744 C 0.8573 0.67132 0.43193 0.0
C745 C 0.86997 0.68923 0.42493 0.0
C746 C 0.88442 0.69144 0.41325 0.0
C747 C 0.88678 0.67587 0.40865 0.0
C748 C 0.8735 0.6577 0.41497 0.0
C749 C 0.8588 0.65542 0.42643 0.0
C750 C 0.86218 0.66276 0.47201 0.0
C751 C 0.88173 0.67748 0.47255 0.0
C752 C 0.89623 0.67385 0.47804 0.0
C753 C 0.89142 0.65544 0.4832 0.0
C754 C 0.87179 0.64076 0.48273 0.0
C755 C 0.8573 0.6444 0.47717 0.0
C756 C 0.83946 0.6652 0.50161 0.0
C757 C 0.85654 0.67964 0.51242 0.0
C758 C 0.8615 0.67687 0.53141 0.0
C759 C 0.8494 0.6596 0.54001 0.0
C760 C 0.83194 0.6454 0.52933 0.0
C761 C 0.82703 0.64818 0.51027 0.0
C762 C 0.80951 0.67295 0.49087 0.0
C763 C 0.81759 0.68943 0.50415 0.0
C764 C 0.80746 0.68994 0.51981 0.0
C765 C 0.78926 0.67384 0.52261 0.0
C766 C 0.78106 0.65747 0.50908 0.0
C767 C 0.79107 0.65709 0.49321 0.0
C768 C 0.81586 0.68597 0.36018 0.0
C769 C 0.90678 0.65152 0.48909 0.0
H770 H 0.2882 0.1214 0.35836 0.0
H771 H 0.36273 0.29393 0.50557 0.0
H772 H 0.31062 0.12414 0.46206 0.0
H773 H 0.30972 0.09569 0.4477 0.0
H774 H 0.37218 0.12637 0.45604 0.0
H775 H 0.37291 0.15495 0.46988 0.0
H776 H 0.30031 0.15094 0.44105 0.0
H777 H 0.28961 0.13694 0.40688 0.0
H778 H 0.34817 0.15322 0.39738 0.0
H779 H 0.35871 0.16736 0.43153 0.0
H780 H 0.30446 0.18651 0.46792 0.0
H781 H 0.29242 0.20208 0.44664 0.0
H782 H 0.34046 0.21942 0.41115 0.0
H783 H 0.35245 0.20381 0.43262 0.0
H784 H 0.32161 0.19896 0.51002 0.0
H785 H 0.32357 0.22905 0.52035 0.0
H786 H 0.3706 0.25989 0.48372 0.0
H787 H 0.36865 0.22973 0.47374 0.0
H788 H 0.33006 0.17338 0.53152 0.0
H789 H 0.33977 0.19043 0.5646 0.0
H790 H 0.39411 0.23413 0.5447 0.0
H791 H 0.38436 0.21687 0.51182 0.0
H792 H 0.32169 0.13541 0.50843 0.0
H793 H 0.32629 0.11982 0.53631 0.0
H794 H 0.38794 0.16049 0.53977 0.0
H795 H 0.3832 0.17626 0.51182 0.0
O796 O 0.29276 0.12709 0.37181 0.0
O797 O 0.32308 0.1357 0.36772 0.0
O798 O 0.3376 0.26534 0.52055 0.0
O799 O 0.36168 0.28184 0.50178 0.0
C800 C 0.34245 0.15957 0.47327 0.0
C801 C 0.33673 0.16859 0.4595 0.0
C802 C 0.33703 0.18551 0.46558 0.0
C803 C 0.34397 0.19395 0.4851 0.0
C804 C 0.34975 0.18501 0.49881 0.0
C805 C 0.34862 0.16761 0.49302 0.0
C806 C 0.34183 0.14163 0.46688 0.0
C807 C 0.32408 0.12462 0.46094 0.0
C808 C 0.32361 0.10836 0.45285 0.0
C809 C 0.3409 0.10879 0.4506 0.0
C810 C 0.35863 0.12566 0.45728 0.0
C811 C 0.35908 0.14193 0.46536 0.0
C812 C 0.33028 0.16021 0.43872 0.0
C813 C 0.31081 0.15156 0.43152 0.0
C814 C 0.30474 0.14352 0.41202 0.0
C815 C 0.31804 0.14396 0.39939 0.0
C816 C 0.33755 0.15264 0.4067 0.0
C817 C 0.34361 0.16071 0.42619 0.0
C818 C 0.32935 0.19409 0.45184 0.0
C819 C 0.31235 0.19364 0.45552 0.0
C820 C 0.30554 0.20259 0.4434 0.0
C821 C 0.31554 0.21204 0.42727 0.0
C822 C 0.33235 0.21209 0.42336 0.0
C823 C 0.33924 0.20324 0.43559 0.0
C824 C 0.34507 0.21221 0.49125 0.0
C825 C 0.3324 0.21226 0.50436 0.0
C826 C 0.33351 0.22944 0.51017 0.0
C827 C 0.34726 0.24689 0.50287 0.0
C828 C 0.35986 0.24673 0.48963 0.0
C829 C 0.35877 0.22953 0.48389 0.0
C830 C 0.35657 0.19388 0.51937 0.0
C831 C 0.3442 0.18643 0.53447 0.0
C832 C 0.34968 0.19628 0.55324 0.0
C833 C 0.36765 0.21366 0.55719 0.0
C834 C 0.38026 0.22068 0.54216 0.0
C835 C 0.37473 0.21088 0.52339 0.0
C836 C 0.3521 0.15694 0.50814 0.0
C837 C 0.33622 0.14077 0.51498 0.0
C838 C 0.33886 0.13196 0.53092 0.0
C839 C 0.35746 0.13907 0.54021 0.0
C840 C 0.37349 0.15473 0.53278 0.0
C841 C 0.3708 0.16372 0.51691 0.0
C842 C 0.31153 0.13536 0.37868 0.0
C843 C 0.34849 0.26519 0.50898 0.0
H844 H 0.80603 0.19031 0.3583 0.0
H845 H 0.96388 0.31515 0.51926 0.0
H846 H 0.79497 0.18191 0.46112 0.0
H847 H 0.76916 0.14955 0.44779 0.0
H848 H 0.80186 0.12611 0.47253 0.0
H849 H 0.82797 0.15853 0.48451 0.0
H850 H 0.82938 0.2222 0.44063 0.0
H851 H 0.81872 0.21327 0.40543 0.0
H852 H 0.82757 0.1656 0.40827 0.0
H853 H 0.83844 0.17483 0.44337 0.0
H854 H 0.87362 0.25963 0.46211 0.0
H855 H 0.89995 0.27718 0.44096 0.0
H856 H 0.8992 0.2247 0.42638 0.0
H857 H 0.87465 0.20808 0.44889 0.0
H858 H 0.86738 0.26044 0.51002 0.0
H859 H 0.89711 0.29118 0.5209 0.0
H860 H 0.93097 0.26828 0.50017 0.0
H861 H 0.90115 0.23757 0.48958 0.0
H862 H 0.83385 0.2226 0.53518 0.0
H863 H 0.84274 0.2285 0.57098 0.0
H864 H 0.89465 0.22824 0.56203 0.0
H865 H 0.88526 0.2214 0.52646 0.0
H866 H 0.80066 0.18766 0.51282 0.0
H867 H 0.78322 0.16479 0.5374 0.0
H868 H 0.82996 0.15457 0.54559 0.0
H869 H 0.84749 0.17772 0.52139 0.0
O870 O 0.81034 0.19362 0.37222 0.0
O871 O 0.81506 0.16927 0.37448 0.0
O872 O 0.93384 0.31418 0.52566 0.0
O873 O 0.9519 0.30313 0.51514 0.0
C874 C 0.82989 0.1923 0.48029 0.0
C875 C 0.8409 0.20465 0.46602 0.0
C876 C 0.8584 0.22222 0.47204 0.0
C877 C 0.864 0.22822 0.49241 0.0
C878 C 0.85261 0.21614 0.5067 0.0
C879 C 0.83587 0.19799 0.50058 0.0
C880 C 0.81328 0.17256 0.47391 0.0
C881 C 0.79644 0.16973 0.46371 0.0
C882 C 0.78168 0.1512 0.45621 0.0
C883 C 0.78344 0.13517 0.45898 0.0
C884 C 0.80013 0.1381 0.46974 0.0
C885 C 0.81496 0.15661 0.47693 0.0
C886 C 0.83446 0.19904 0.44462 0.0
C887 C 0.829 0.20983 0.43362 0.0
C888 C 0.82291 0.20469 0.41352 0.0
C889 C 0.82221 0.18867 0.40405 0.0
C890 C 0.82784 0.17796 0.41512 0.0
C891 C 0.83397 0.18315 0.4352 0.0
C892 C 0.87225 0.23258 0.45716 0.0
C893 C 0.8792 0.252 0.4543 0.0
C894 C 0.89411 0.26195 0.44205 0.0
C895 C 0.90199 0.25246 0.43221 0.0
C896 C 0.89398 0.23268 0.43417 0.0
C897 C 0.87962 0.223 0.44678 0.0
C898 C 0.88212 0.24685 0.49888 0.0
C899 C 0.88124 0.26211 0.50786 0.0
C900 C 0.89824 0.27964 0.51404 0.0
C901 C 0.91643 0.28221 0.51135 0.0
C902 C 0.91722 0.26682 0.50242 0.0
C903 C 0.90021 0.24928 0.4963 0.0
C904 C 0.85896 0.22168 0.52815 0.0
C905 C 0.84718 0.22392 0.54095 0.0
C906 C 0.85226 0.22729 0.56132 0.0
C907 C 0.86941 0.22893 0.56915 0.0
C908 C 0.88148 0.2273 0.55629 0.0
C909 C 0.87617 0.22347 0.53599 0.0
C910 C 0.8253 0.18431 0.51543 0.0
C911 C 0.80711 0.1805 0.52 0.0
C912 C 0.79724 0.16753 0.53398 0.0
C913 C 0.80529 0.15795 0.54323 0.0
C914 C 0.82344 0.1617 0.53851 0.0
C915 C 0.83345 0.17492 0.52483 0.0
C916 C 0.81567 0.18321 0.38271 0.0
C917 C 0.93452 0.30082 0.51784 0.0
H918 H 0.03196 0.53659 0.38209 0.0
H919 H 0.00873 0.38539 0.22723 0.0
H920 H 0.98564 0.51432 0.28034 0.0
H921 H 0.98865 0.5433 0.29614 0.0
H922 H 0.04241 0.57853 0.27014 0.0
H923 H 0.03913 0.54927 0.25414 0.0
H924 H 0.99613 0.49081 0.30657 0.0
H925 H 0.00618 0.50588 0.34041 0.0
H926 H 0.06126 0.54976 0.32195 0.0
H927 H 0.05108 0.5344 0.2882 0.0
H928 H 0.99148 0.45602 0.29129 0.0
H929 H 0.00076 0.43932 0.31442 0.0
H930 H 0.0605 0.47614 0.30281 0.0
H931 H 0.05119 0.49312 0.28013 0.0
H932 H 0.97407 0.44264 0.24184 0.0
H933 H 0.96833 0.41044 0.23383 0.0
H934 H 0.03011 0.43441 0.23891 0.0
H935 H 0.03563 0.46654 0.2466 0.0
H936 H 0.97071 0.47451 0.21312 0.0
H937 H 0.95977 0.45768 0.18016 0.0
H938 H 0.01333 0.4586 0.17874 0.0
H939 H 0.02478 0.47713 0.21062 0.0
H940 H 0.97897 0.51341 0.23588 0.0
H941 H 0.97484 0.53116 0.20996 0.0
H942 H 0.02325 0.53489 0.18257 0.0
H943 H 0.02799 0.51836 0.20917 0.0
O944 O 0.02836 0.53075 0.36865 0.0
O945 O 0.05644 0.55297 0.3584 0.0
O946 O 0.97896 0.38638 0.22765 0.0
O947 O 0.01058 0.39796 0.23031 0.0
C948 C 0.01189 0.51192 0.25995 0.0
C949 C 0.01652 0.50266 0.27438 0.0
C950 C 0.01506 0.48503 0.26922 0.0
C951 C 0.00856 0.47636 0.24975 0.0
C952 C 0.00466 0.48594 0.23505 0.0
C953 C 0.00656 0.50393 0.24012 0.0
C954 C 0.01219 0.52972 0.26618 0.0
C955 C 0.99784 0.52832 0.2777 0.0
C956 C 0.99967 0.54487 0.28682 0.0
C957 C 0.01593 0.56316 0.28463 0.0
C958 C 0.02971 0.56463 0.27204 0.0
C959 C 0.02786 0.54798 0.2629 0.0
C960 C 0.02291 0.51148 0.29501 0.0
C961 C 0.01042 0.50357 0.30992 0.0
C962 C 0.01617 0.51227 0.32921 0.0
C963 C 0.03452 0.52905 0.33389 0.0
C964 C 0.04703 0.53686 0.31886 0.0
C965 C 0.04127 0.52812 0.29959 0.0
C966 C 0.02069 0.47575 0.28413 0.0
C967 C 0.00658 0.46062 0.29398 0.0
C968 C 0.01189 0.45115 0.30714 0.0
C969 C 0.03132 0.45647 0.31029 0.0
C970 C 0.04543 0.47176 0.30053 0.0
C971 C 0.04017 0.48147 0.28769 0.0
C972 C 0.00524 0.45687 0.24494 0.0
C973 C 0.98633 0.44089 0.2412 0.0
C974 C 0.9831 0.42253 0.23665 0.0
C975 C 0.99877 0.41985 0.23578 0.0
C976 C 0.01772 0.43595 0.23951 0.0
C977 C 0.02092 0.4543 0.244 0.0
C978 C 0.99848 0.47691 0.2144 0.0
C979 C 0.98022 0.47144 0.20544 0.0
C980 C 0.97387 0.46152 0.18668 0.0
C981 C 0.98548 0.45643 0.17668 0.0
C982 C 0.00399 0.46241 0.18563 0.0
C983 C 0.01051 0.4728 0.20409 0.0
C984 C 0.00388 0.51471 0.22451 0.0
C985 C 0.98885 0.51835 0.22442 0.0
C986 C 0.98637 0.52829 0.20945 0.0
C987 C 0.99874 0.53456 0.19414 0.0
C988 C 0.01369 0.53071 0.19429 0.0
C989 C 0.01632 0.52106 0.20939 0.0
C990 C 0.0405 0.53836 0.35435 0.0
C991 C 0.99543 0.40037 0.231 0.0
H992 H 0.49069 0.48918 0.37799 0.0
H993 H 0.40143 0.33833 0.2048 0.0
H994 H 0.50626 0.50348 0.26849 0.0
H995 H 0.52958 0.53612 0.28233 0.0
H996 H 0.57257 0.52056 0.29162 0.0
H997 H 0.54925 0.48817 0.27603 0.0
H998 H 0.47579 0.47173 0.29232 0.0
H999 H 0.47766 0.4801 0.32766 0.0
H1000 H 0.52421 0.46974 0.33802 0.0
H1001 H 0.52204 0.46123 0.30264 0.0
H1002 H 0.44612 0.43809 0.26087 0.0
H1003 H 0.41959 0.42049 0.2814 0.0
H1004 H 0.45422 0.40423 0.31588 0.0
H1005 H 0.48058 0.42137 0.29459 0.0
H1006 H 0.45037 0.43438 0.21934 0.0
H1007 H 0.42256 0.40434 0.20363 0.0
H1008 H 0.44395 0.37206 0.23243 0.0
H1009 H 0.47183 0.40225 0.24785 0.0
H1010 H 0.48789 0.47339 0.20736 0.0
H1011 H 0.47864 0.46679 0.17214 0.0
H1012 H 0.48127 0.41527 0.17286 0.0
H1013 H 0.49255 0.42321 0.20807 0.0
H1014 H 0.51445 0.50367 0.23225 0.0
H1015 H 0.53764 0.52725 0.2117 0.0
H1016 H 0.56092 0.49108 0.20128 0.0
H1017 H 0.53771 0.46754 0.22232 0.0
O1018 O 0.49018 0.48578 0.36407 0.0
O1019 O 0.51412 0.48035 0.3686 0.0
O1020 O 0.40197 0.36771 0.19628 0.0
O1021 O 0.4123 0.35043 0.2108 0.0
C1022 C 0.51165 0.47399 0.262 0.0
C1023 C 0.49752 0.46065 0.27355 0.0
C1024 C 0.48168 0.44313 0.26452 0.0
C1025 C 0.48024 0.43874 0.24394 0.0
C1026 C 0.49444 0.4521 0.23229 0.0
C1027 C 0.51025 0.46969 0.24142 0.0
C1028 C 0.52617 0.4936 0.27109 0.0
C1029 C 0.52078 0.50721 0.27342 0.0
C1030 C 0.53414 0.52585 0.28163 0.0
C1031 C 0.55308 0.53115 0.28839 0.0
C1032 C 0.55829 0.51723 0.28633 0.0
C1033 C 0.54497 0.49865 0.27757 0.0
C1034 C 0.49868 0.46574 0.29499 0.0
C1035 C 0.4863 0.47118 0.30228 0.0
C1036 C 0.48744 0.476 0.32245 0.0
C1037 C 0.50107 0.47556 0.33568 0.0
C1038 C 0.51354 0.4702 0.32825 0.0
C1039 C 0.51234 0.46535 0.30807 0.0
C1040 C 0.4652 0.43087 0.27614 0.0
C1041 C 0.44785 0.43041 0.2726 0.0
C1042 C 0.43282 0.42058 0.28454 0.0
C1043 C 0.4349 0.41118 0.30045 0.0
C1044 C 0.45215 0.41124 0.30368 0.0
C1045 C 0.46721 0.42104 0.2916 0.0
C1046 C 0.46322 0.42049 0.23455 0.0
C1047 C 0.44909 0.42082 0.22212 0.0
C1048 C 0.43319 0.40363 0.21323 0.0
C1049 C 0.43106 0.38579 0.21673 0.0
C1050 C 0.44517 0.38554 0.22937 0.0
C1051 C 0.46109 0.40275 0.23822 0.0
C1052 C 0.49112 0.44893 0.21035 0.0
C1053 C 0.48726 0.4611 0.19983 0.0
C1054 C 0.48151 0.45702 0.17969 0.0
C1055 C 0.47869 0.44019 0.16965 0.0
C1056 C 0.48335 0.42839 0.18003 0.0
C1057 C 0.48968 0.43283 0.20019 0.0
C1058 C 0.52472 0.48412 0.2292 0.0
C1059 C 0.52487 0.50104 0.22598 0.0
C1060 C 0.53807 0.51446 0.21415 0.0
C1061 C 0.55124 0.5111 0.20508 0.0
C1062 C 0.55093 0.49402 0.20811 0.0
C1063 C 0.53778 0.48064 0.22014 0.0
C1064 C 0.50224 0.48069 0.35711 0.0
C1065 C 0.41422 0.36749 0.20729 0.0
H1066 H 0.5256 0.01185 0.39153 0.0
H1067 H 0.37244 0.96697 0.22118 0.0
H1068 H 0.54008 0.02935 0.29023 0.0
H1069 H 0.56456 0.02835 0.31168 0.0
H1070 H 0.54305 0.97018 0.28729 0.0
H1071 H 0.51887 0.97151 0.26565 0.0
H1072 H 0.50233 0.02184 0.31227 0.0
H1073 H 0.51202 0.02252 0.34713 0.0
H1074 H 0.50847 0.96826 0.33525 0.0
H1075 H 0.49845 0.96759 0.30055 0.0
H1076 H 0.45719 0.00898 0.288 0.0
H1077 H 0.42872 0.99447 0.30677 0.0
H1078 H 0.43468 0.94534 0.31374 0.0
H1079 H 0.4615 0.95892 0.29328 0.0
H1080 H 0.46781 0.02273 0.24437 0.0
H1081 H 0.43724 0.01932 0.23224 0.0
H1082 H 0.40741 0.95809 0.23898 0.0
H1083 H 0.43811 0.96167 0.25087 0.0
H1084 H 0.50826 0.03139 0.22401 0.0
H1085 H 0.50168 0.03751 0.19052 0.0
H1086 H 0.45278 0.97881 0.18096 0.0
H1087 H 0.46024 0.97259 0.214 0.0
H1088 H 0.54176 0.02919 0.24271 0.0
H1089 H 0.56168 0.02998 0.21646 0.0
H1090 H 0.51699 0.97169 0.19525 0.0
H1091 H 0.49754 0.97095 0.22159 0.0
O1092 O 0.52133 0.01109 0.37779 0.0
O1093 O 0.51966 0.98338 0.37079 0.0
O1094 O 0.40076 0.00026 0.22261 0.0
O1095 O 0.38473 0.96872 0.2259 0.0
C1096 C 0.50933 0.99871 0.26904 0.0
C1097 C 0.49538 0.99524 0.28249 0.0
C1098 C 0.47727 0.99232 0.2757 0.0
C1099 C 0.47378 0.99459 0.2557 0.0
C1100 C 0.48792 0.9985 0.24235 0.0
C1101 C 0.50529 0.99961 0.24884 0.0
C1102 C 0.52767 0.00047 0.27649 0.0
C1103 C 0.54122 0.01672 0.28894 0.0
C1104 C 0.55497 0.01599 0.30139 0.0
C1105 C 0.5554 0.999 0.30154 0.0
C1106 C 0.54311 0.98348 0.28754 0.0
C1107 C 0.52935 0.98424 0.27506 0.0
C1108 C 0.49986 0.99477 0.30387 0.0
C1109 C 0.50347 0.01003 0.31729 0.0
C1110 C 0.50909 0.01042 0.33716 0.0
C1111 C 0.51115 0.99551 0.34396 0.0
C1112 C 0.50711 0.98002 0.33051 0.0
C1113 C 0.50142 0.97962 0.31067 0.0
C1114 C 0.4614 0.98497 0.28909 0.0
C1115 C 0.45221 0.99503 0.29352 0.0
C1116 C 0.43605 0.98678 0.30448 0.0
C1117 C 0.42907 0.96851 0.31162 0.0
C1118 C 0.43909 0.95909 0.30802 0.0
C1119 C 0.45477 0.96703 0.2966 0.0
C1120 C 0.45515 0.99246 0.24856 0.0
C1121 C 0.45465 0.0086 0.24319 0.0
C1122 C 0.43718 0.00661 0.23629 0.0
C1123 C 0.41987 0.98843 0.23467 0.0
C1124 C 0.42046 0.9723 0.24007 0.0
C1125 C 0.43795 0.9743 0.24691 0.0
C1126 C 0.48459 0.00162 0.22151 0.0
C1127 C 0.49632 0.01979 0.21453 0.0
C1128 C 0.49241 0.0233 0.19545 0.0
C1129 C 0.47656 0.00873 0.18306 0.0
C1130 C 0.46522 0.99034 0.18995 0.0
C1131 C 0.46931 0.98678 0.20893 0.0
C1132 C 0.51824 -1e-05 0.23407 0.0
C1133 C 0.53646 0.01654 0.23253 0.0
C1134 C 0.54771 0.01701 0.21744 0.0
C1135 C 0.54094 0.00088 0.20377 0.0
C1136 C 0.5228 0.98425 0.20568 0.0
C1137 C 0.51161 0.98382 0.22066 0.0
C1138 C 0.51761 0.99621 0.36496 0.0
C1139 C 0.40126 0.98624 0.22736 0.0
H1140 H 0.46865 0.00179 0.68015 0.0
H1141 H 0.62461 0.02481 0.8471 0.0
H1142 H 0.4828 0.0309 0.80509 0.0
H1143 H 0.45521 0.03133 0.79028 0.0
H1144 H 0.43158 0.97354 0.76325 0.0
H1145 H 0.45853 0.97271 0.77969 0.0
H1146 H 0.49573 0.02683 0.76354 0.0
H1147 H 0.48419 0.02122 0.72856 0.0
H1148 H 0.48536 0.96886 0.72472 0.0
H1149 H 0.49661 0.97447 0.75983 0.0
H1150 H 0.53376 0.03713 0.76714 0.0
H1151 H 0.55778 0.04723 0.74365 0.0
H1152 H 0.5698 0.00389 0.76124 0.0
H1153 H 0.54333 0.99193 0.78246 0.0
H1154 H 0.56006 0.04664 0.81467 0.0
H1155 H 0.59351 0.05695 0.82545 0.0
H1156 H 0.57523 0.99781 0.83422 0.0
H1157 H 0.54189 0.98772 0.82327 0.0
H1158 H 0.53021 0.04124 0.85023 0.0
H1159 H 0.54483 0.04803 0.88396 0.0
H1160 H 0.5347 0.99037 0.88272 0.0
H1161 H 0.51807 0.98318 0.84963 0.0
H1162 H 0.49872 0.03559 0.83973 0.0
H1163 H 0.47861 0.03512 0.86521 0.0
H1164 H 0.44661 0.97275 0.85972 0.0
H1165 H 0.46739 0.97346 0.83454 0.0
O1166 O 0.47322 0.00372 0.69398 0.0
O1167 O 0.47427 0.97703 0.69274 0.0
O1168 O 0.6202 0.0513 0.83792 0.0
O1169 O 0.61153 0.02114 0.84274 0.0
C1170 C 0.49107 0.00296 0.8001 0.0
C1171 C 0.50343 0.00403 0.78569 0.0
C1172 C 0.52235 0.00845 0.79156 0.0
C1173 C 0.52836 0.01038 0.81187 0.0
C1174 C 0.51572 0.00838 0.82627 0.0
C1175 C 0.49725 0.00511 0.82038 0.0
C1176 C 0.47261 0.00168 0.79375 0.0
C1177 C 0.47126 0.01801 0.79669 0.0
C1178 C 0.45565 0.0184 0.78774 0.0
C1179 C 0.44125 0.00263 0.77516 0.0
C1180 C 0.44222 0.98592 0.77294 0.0
C1181 C 0.45766 0.9854 0.7823 0.0
C1182 C 0.49677 0.00092 0.7643 0.0
C1183 C 0.49332 0.01406 0.75517 0.0
C1184 C 0.48682 0.01087 0.73515 0.0
C1185 C 0.48379 0.99455 0.72385 0.0
C1186 C 0.48749 0.98154 0.73301 0.0
C1187 C 0.49394 0.98472 0.75305 0.0
C1188 C 0.53668 0.01376 0.77661 0.0
C1189 C 0.54109 0.02935 0.76544 0.0
C1190 C 0.55531 0.03545 0.75229 0.0
C1191 C 0.5664 0.02688 0.75078 0.0
C1192 C 0.56164 0.0109 0.76172 0.0
C1193 C 0.54668 0.0042 0.77421 0.0
C1194 C 0.54862 0.01646 0.81824 0.0
C1195 C 0.56335 0.03596 0.81891 0.0
C1196 C 0.58242 0.04179 0.82507 0.0
C1197 C 0.58704 0.02819 0.83072 0.0
C1198 C 0.57217 0.00865 0.83 0.0
C1199 C 0.55312 0.00284 0.8238 0.0
C1200 C 0.52279 0.01164 0.84755 0.0
C1201 C 0.53051 0.02986 0.85752 0.0
C1202 C 0.53933 0.03384 0.87673 0.0
C1203 C 0.54147 0.01993 0.88618 0.0
C1204 C 0.53324 0.00145 0.87622 0.0
C1205 C 0.52381 0.99731 0.85719 0.0
C1206 C 0.48463 0.00457 0.8355 0.0
C1207 C 0.48746 0.02183 0.84414 0.0
C1208 C 0.47578 0.02152 0.85851 0.0
C1209 C 0.46094 0.00389 0.86445 0.0
C1210 C 0.45804 0.98656 0.8556 0.0
C1211 C 0.4698 0.98692 0.8412 0.0
C1212 C 0.47682 0.99118 0.70259 0.0
C1213 C 0.60727 0.03432 0.83733 0.0
H1214 H 0.97951 0.4491 0.68882 0.0
H1215 H 0.00159 0.61361 0.84392 0.0
H1216 H 0.97422 0.45179 0.81067 0.0
H1217 H 0.97373 0.4234 0.79674 0.0
H1218 H 0.03006 0.46053 0.7762 0.0
H1219 H 0.03022 0.48881 0.78989 0.0
H1220 H 0.96946 0.46443 0.77059 0.0
H1221 H 0.96854 0.45292 0.73654 0.0
H1222 H 0.02191 0.50634 0.72943 0.0
H1223 H 0.02279 0.51756 0.76362 0.0
H1224 H 0.96043 0.49481 0.77191 0.0
H1225 H 0.94684 0.50841 0.7499 0.0
H1226 H 0.99973 0.56427 0.76087 0.0
H1227 H 0.01357 0.55023 0.78207 0.0
H1228 H 0.96298 0.5219 0.80931 0.0
H1229 H 0.95936 0.54935 0.81674 0.0
H1230 H 0.0199 0.58402 0.83825 0.0
H1231 H 0.02338 0.55652 0.83047 0.0
H1232 H 0.96825 0.50904 0.8466 0.0
H1233 H 0.9675 0.52187 0.8791 0.0
H1234 H 0.02696 0.53859 0.8938 0.0
H1235 H 0.02795 0.52713 0.86032 0.0
H1236 H 0.97479 0.47474 0.85129 0.0
H1237 H 0.97854 0.45891 0.87918 0.0
H1238 H 0.03619 0.4764 0.86442 0.0
H1239 H 0.0326 0.4932 0.83706 0.0
O1240 O 0.98012 0.45397 0.70223 0.0
O1241 O 0.00741 0.48181 0.69923 0.0
O1242 O 0.97164 0.58416 0.82935 0.0
O1243 O 0.00264 0.60254 0.84076 0.0
C1244 C 0.00068 0.48937 0.80605 0.0
C1245 C 0.99722 0.49848 0.7905 0.0
C1246 C 0.99444 0.51388 0.79477 0.0
C1247 C 0.99574 0.52062 0.81461 0.0
C1248 C 0.99887 0.51136 0.83019 0.0
C1249 C 0.00128 0.49566 0.82592 0.0
C1250 C 0.00222 0.47234 0.80122 0.0
C1251 C 0.98666 0.45374 0.80361 0.0
C1252 C 0.98641 0.43754 0.79563 0.0
C1253 C 0.00174 0.4397 0.78511 0.0
C1254 C 0.01785 0.45838 0.78386 0.0
C1255 C 0.01807 0.47454 0.79183 0.0
C1256 C 0.99628 0.49175 0.7696 0.0
C1257 C 0.98098 0.47358 0.76167 0.0
C1258 C 0.98047 0.46707 0.74221 0.0
C1259 C 0.99519 0.47869 0.73027 0.0
C1260 C 0.01037 0.49701 0.73822 0.0
C1261 C 0.01089 0.50348 0.75772 0.0
C1262 C 0.98796 0.52154 0.77867 0.0
C1263 C 0.96932 0.50984 0.76904 0.0
C1264 C 0.96148 0.51771 0.75668 0.0
C1265 C 0.97205 0.53751 0.75389 0.0
C1266 C 0.99122 0.54895 0.76257 0.0
C1267 C 0.99914 0.54099 0.77477 0.0
C1268 C 0.99348 0.53728 0.81919 0.0
C1269 C 0.97547 0.53548 0.81548 0.0
C1270 C 0.97343 0.55116 0.81981 0.0
C1271 C 0.98936 0.5689 0.82806 0.0
C1272 C 0.00735 0.57059 0.83187 0.0
C1273 C 0.00938 0.55491 0.82746 0.0
C1274 C 0.99823 0.51742 0.85094 0.0
C1275 C 0.98116 0.51559 0.8568 0.0
C1276 C 0.9807 0.52271 0.87559 0.0
C1277 C 0.99717 0.53132 0.8893 0.0
C1278 C 0.01409 0.53243 0.8836 0.0
C1279 C 0.01465 0.52567 0.86454 0.0
C1280 C 0.00346 0.48523 0.84223 0.0
C1281 C 0.98826 0.47523 0.85413 0.0
C1282 C 0.99038 0.466 0.86996 0.0
C1283 C 0.00765 0.46625 0.87403 0.0
C1284 C 0.02279 0.47609 0.86187 0.0
C1285 C 0.02071 0.48554 0.84612 0.0
C1286 C 0.99467 0.47166 0.70964 0.0
C1287 C 0.98727 0.5856 0.83273 0.0
H1288 H 0.49092 0.50533 0.68712 0.0
H1289 H 0.64005 0.62389 0.85961 0.0
H1290 H 0.46853 0.51502 0.78346 0.0
H1291 H 0.44309 0.48332 0.76786 0.0
H1292 H 0.46185 0.45582 0.80844 0.0
H1293 H 0.48765 0.4873 0.82314 0.0
H1294 H 0.51016 0.54772 0.76477 0.0
H1295 H 0.5026 0.5348 0.73016 0.0
H1296 H 0.49769 0.48223 0.74769 0.0
H1297 H 0.50559 0.49543 0.78216 0.0
H1298 H 0.55524 0.58159 0.79024 0.0
H1299 H 0.58359 0.59165 0.77195 0.0
H1300 H 0.57067 0.53292 0.76805 0.0
H1301 H 0.54403 0.52374 0.7882 0.0
H1302 H 0.54691 0.59089 0.83424 0.0
H1303 H 0.57925 0.61751 0.84677 0.0
H1304 H 0.60089 0.57932 0.84148 0.0
H1305 H 0.56844 0.55278 0.82916 0.0
H1306 H 0.51166 0.56794 0.85877 0.0
H1307 H 0.52198 0.57994 0.89373 0.0
H1308 H 0.55213 0.54939 0.89715 0.0
H1309 H 0.54242 0.53826 0.86235 0.0
H1310 H 0.46912 0.52925 0.83313 0.0
H1311 H 0.44547 0.51398 0.85748 0.0
H1312 H 0.4804 0.49397 0.88448 0.0
H1313 H 0.50348 0.50868 0.85977 0.0
O1314 O 0.49398 0.5102 0.70089 0.0
O1315 O 0.49147 0.4834 0.7107 0.0
O1316 O 0.61526 0.63264 0.8572 0.0
O1317 O 0.62714 0.61363 0.85468 0.0
C1318 C 0.49828 0.52209 0.81048 0.0
C1319 C 0.51263 0.53039 0.79699 0.0
C1320 C 0.53148 0.5459 0.80359 0.0
C1321 C 0.53563 0.55383 0.82341 0.0
C1322 C 0.52122 0.54575 0.83677 0.0
C1323 C 0.50262 0.52977 0.83038 0.0
C1324 C 0.47999 0.50348 0.8044 0.0
C1325 C 0.46678 0.5021 0.78927 0.0
C1326 C 0.45226 0.48401 0.7804 0.0
C1327 C 0.45075 0.46713 0.78669 0.0
C1328 C 0.46294 0.46859 0.80299 0.0
C1329 C 0.4775 0.48658 0.81165 0.0
C1330 C 0.5082 0.52244 0.77599 0.0
C1331 C 0.50747 0.53343 0.76108 0.0
C1332 C 0.50313 0.52601 0.74134 0.0
C1333 C 0.49946 0.50745 0.73616 0.0
C1334 C 0.50037 0.49654 0.75116 0.0
C1335 C 0.50479 0.50401 0.77088 0.0
C1336 C 0.54747 0.5519 0.79055 0.0
C1337 C 0.55865 0.57097 0.78546 0.0
C1338 C 0.57476 0.57663 0.77478 0.0
C1339 C 0.57969 0.56318 0.76855 0.0
C1340 C 0.56784 0.54391 0.77299 0.0
C1341 C 0.55223 0.53847 0.78419 0.0
C1342 C 0.55539 0.56998 0.83064 0.0
C1343 C 0.55867 0.58833 0.83578 0.0
C1344 C 0.57715 0.6035 0.84293 0.0
C1345 C 0.59268 0.60055 0.84508 0.0
C1346 C 0.58928 0.5821 0.83995 0.0
C1347 C 0.57078 0.56693 0.83285 0.0
C1348 C 0.52651 0.55244 0.85806 0.0
C1349 C 0.52052 0.56393 0.86717 0.0
C1350 C 0.52634 0.57066 0.88713 0.0
C1351 C 0.53814 0.56588 0.8982 0.0
C1352 C 0.54353 0.55385 0.889 0.0
C1353 C 0.5379 0.54734 0.86914 0.0
C1354 C 0.48811 0.52028 0.84487 0.0
C1355 C 0.47156 0.52149 0.84428 0.0
C1356 C 0.45815 0.51284 0.85823 0.0
C1357 C 0.46108 0.5028 0.87295 0.0
C1358 C 0.47757 0.50139 0.87323 0.0
C1359 C 0.4909 0.50999 0.85928 0.0
C1360 C 0.49473 0.49956 0.71518 0.0
C1361 C 0.61233 0.61662 0.85269 0.0
H1362 H 0.66673 0.85095 0.71526 0.0
H1363 H 0.65935 0.70875 0.55885 0.0
H1364 H 0.63332 0.84014 0.61097 0.0
H1365 H 0.63913 0.8722 0.62074 0.0
H1366 H 0.69375 0.89861 0.59494 0.0
H1367 H 0.68809 0.86667 0.58575 0.0
H1368 H 0.6359 0.80879 0.63735 0.0
H1369 H 0.64356 0.82241 0.67171 0.0
H1370 H 0.7009 0.86619 0.65816 0.0
H1371 H 0.6931 0.85228 0.6239 0.0
H1372 H 0.63012 0.77044 0.61838 0.0
H1373 H 0.63654 0.75174 0.6414 0.0
H1374 H 0.69778 0.79429 0.64403 0.0
H1375 H 0.69121 0.8127 0.62079 0.0
H1376 H 0.6185 0.76021 0.57481 0.0
H1377 H 0.61519 0.7291 0.5664 0.0
H1378 H 0.67753 0.75719 0.57096 0.0
H1379 H 0.68059 0.7882 0.57919 0.0
H1380 H 0.61413 0.78181 0.54821 0.0
H1381 H 0.60654 0.76679 0.51444 0.0
H1382 H 0.66769 0.79643 0.50668 0.0
H1383 H 0.67504 0.81075 0.5408 0.0
H1384 H 0.61994 0.82164 0.55636 0.0
H1385 H 0.61721 0.83894 0.52909 0.0
H1386 H 0.67916 0.86842 0.52596 0.0
H1387 H 0.68134 0.85005 0.55218 0.0
O1388 O 0.66404 0.84574 0.70162 0.0
O1389 O 0.69332 0.86797 0.69388 0.0
O1390 O 0.62826 0.70714 0.55973 0.0
O1391 O 0.66023 0.72086 0.56206 0.0
C1392 C 0.6571 0.83179 0.59222 0.0
C1393 C 0.65909 0.82138 0.60729 0.0
C1394 C 0.65659 0.80317 0.60248 0.0
C1395 C 0.65173 0.7952 0.58268 0.0
C1396 C 0.64962 0.80551 0.56767 0.0
C1397 C 0.65246 0.82386 0.57238 0.0
C1398 C 0.6601 0.85109 0.59728 0.0
C1399 C 0.64647 0.85288 0.60734 0.0
C1400 C 0.64984 0.87114 0.61299 0.0
C1401 C 0.66681 0.88786 0.60844 0.0
C1402 C 0.68039 0.88597 0.59833 0.0
C1403 C 0.67714 0.86775 0.59296 0.0
C1404 C 0.66392 0.8296 0.62816 0.0
C1405 C 0.65012 0.82128 0.64187 0.0
C1406 C 0.65453 0.82911 0.66147 0.0
C1407 C 0.67283 0.84542 0.66768 0.0
C1408 C 0.68666 0.85365 0.65387 0.0
C1409 C 0.68224 0.84577 0.63428 0.0
C1410 C 0.66021 0.79287 0.61793 0.0
C1411 C 0.64488 0.77579 0.62413 0.0
C1412 C 0.64857 0.76521 0.63733 0.0
C1413 C 0.66768 0.77152 0.64446 0.0
C1414 C 0.68293 0.78896 0.63862 0.0
C1415 C 0.67921 0.79955 0.62548 0.0
C1416 C 0.64977 0.7764 0.57751 0.0
C1417 C 0.6314 0.75959 0.57388 0.0
C1418 C 0.62956 0.74186 0.56913 0.0
C1419 C 0.64611 0.74066 0.56799 0.0
C1420 C 0.6645 0.75759 0.57169 0.0
C1421 C 0.6663 0.77532 0.5764 0.0
C1422 C 0.6451 0.7973 0.54686 0.0
C1423 C 0.62584 0.78504 0.53915 0.0
C1424 C 0.62156 0.77659 0.51982 0.0
C1425 C 0.6365 0.78039 0.50779 0.0
C1426 C 0.65583 0.79294 0.51559 0.0
C1427 C 0.66008 0.80127 0.53499 0.0
C1428 C 0.65087 0.83483 0.55637 0.0
C1429 C 0.63286 0.83185 0.5497 0.0
C1430 C 0.63138 0.84186 0.5342 0.0
C1431 C 0.64796 0.85518 0.52523 0.0
C1432 C 0.66599 0.85807 0.53214 0.0
C1433 C 0.66736 0.8478 0.54735 0.0
C1434 C 0.67743 0.85377 0.68849 0.0
C1435 C 0.64425 0.72185 0.56301 0.0
H1436 H 0.14889 0.8242 0.72071 0.0
H1437 H 0.07897 0.6701 0.55352 0.0
H1438 H 0.1541 0.83567 0.61669 0.0
H1439 H 0.17204 0.86979 0.62773 0.0
H1440 H 0.22542 0.87375 0.6152 0.0
H1441 H 0.20724 0.83898 0.60517 0.0
H1442 H 0.12999 0.80371 0.63566 0.0
H1443 H 0.13271 0.81192 0.67113 0.0
H1444 H 0.18822 0.81671 0.67718 0.0
H1445 H 0.1852 0.80822 0.64169 0.0
H1446 H 0.10468 0.77102 0.60147 0.0
H1447 H 0.0789 0.75261 0.62253 0.0
H1448 H 0.11783 0.74385 0.65984 0.0
H1449 H 0.14371 0.76213 0.63821 0.0
H1450 H 0.1084 0.76348 0.56134 0.0
H1451 H 0.08507 0.73049 0.5475 0.0
H1452 H 0.11795 0.71058 0.57921 0.0
H1453 H 0.1413 0.74369 0.59276 0.0
H1454 H 0.13685 0.80187 0.5467 0.0
H1455 H 0.1291 0.79214 0.51149 0.0
H1456 H 0.15514 0.75782 0.51685 0.0
H1457 H 0.16216 0.76717 0.55245 0.0
H1458 H 0.16707 0.8424 0.57461 0.0
H1459 H 0.18713 0.86699 0.55346 0.0
H1460 H 0.21014 0.83222 0.53421 0.0
H1461 H 0.19249 0.80957 0.55805 0.0
O1462 O 0.14809 0.82093 0.70671 0.0
O1463 O 0.17662 0.82333 0.70901 0.0
O1464 O 0.07166 0.69428 0.54269 0.0
O1465 O 0.08799 0.68329 0.55874 0.0
C1466 C 0.1677 0.81424 0.60222 0.0
C1467 C 0.15567 0.8 0.6146 0.0
C1468 C 0.14185 0.78111 0.60645 0.0
C1469 C 0.14095 0.77605 0.58617 0.0
C1470 C 0.15315 0.79013 0.57378 0.0
C1471 C 0.16648 0.80932 0.58172 0.0
C1472 C 0.17936 0.83476 0.61029 0.0
C1473 C 0.16972 0.84375 0.6168 0.0
C1474 C 0.17999 0.86336 0.62279 0.0
C1475 C 0.20014 0.87459 0.62204 0.0
C1476 C 0.20992 0.86548 0.61604 0.0
C1477 C 0.19958 0.84567 0.61023 0.0
C1478 C 0.15729 0.80513 0.63614 0.0
C1479 C 0.14264 0.80637 0.64469 0.0
C1480 C 0.14428 0.81115 0.66495 0.0
C1481 C 0.16066 0.81492 0.67701 0.0
C1482 C 0.17539 0.81384 0.66833 0.0
C1483 C 0.17371 0.80901 0.64807 0.0
C1484 C 0.12603 0.76784 0.61826 0.0
C1485 C 0.10757 0.7648 0.61394 0.0
C1486 C 0.09294 0.75451 0.62614 0.0
C1487 C 0.09647 0.74708 0.64301 0.0
C1488 C 0.11475 0.74944 0.64693 0.0
C1489 C 0.1295 0.75983 0.63464 0.0
C1490 C 0.12666 0.756 0.57785 0.0
C1491 C 0.11062 0.752 0.56514 0.0
C1492 C 0.09728 0.73313 0.55732 0.0
C1493 C 0.09968 0.71789 0.5622 0.0
C1494 C 0.1157 0.72196 0.57511 0.0
C1495 C 0.12905 0.74086 0.58288 0.0
C1496 C 0.15012 0.78529 0.55208 0.0
C1497 C 0.14109 0.79244 0.54021 0.0
C1498 C 0.13679 0.78693 0.52002 0.0
C1499 C 0.1416 0.77426 0.5112 0.0
C1500 C 0.15104 0.76742 0.52315 0.0
C1501 C 0.15518 0.77283 0.54344 0.0
C1502 C 0.17854 0.82429 0.5683 0.0
C1503 C 0.177 0.84047 0.56634 0.0
C1504 C 0.18823 0.85438 0.55368 0.0
C1505 C 0.20048 0.85192 0.54164 0.0
C1506 C 0.20156 0.83533 0.54341 0.0
C1507 C 0.1911 0.82199 0.55687 0.0
C1508 C 0.16234 0.81999 0.69853 0.0
C1509 C 0.08557 0.69782 0.55392 0.0
H1510 H 0.19994 0.31523 0.72375 0.0
H1511 H 0.06575 0.32703 0.55142 0.0
H1512 H 0.22449 0.36038 0.62031 0.0
H1513 H 0.24956 0.35759 0.63867 0.0
H1514 H 0.21537 0.29575 0.62585 0.0
H1515 H 0.19024 0.29865 0.60773 0.0
H1516 H 0.19965 0.35043 0.65078 0.0
H1517 H 0.20402 0.34115 0.68345 0.0
H1518 H 0.15825 0.28224 0.66583 0.0
H1519 H 0.15426 0.29171 0.6331 0.0
H1520 H 0.16264 0.34932 0.64793 0.0
H1521 H 0.1381 0.34323 0.67054 0.0
H1522 H 0.09586 0.29296 0.63253 0.0
H1523 H 0.12081 0.2986 0.61067 0.0
H1524 H 0.14859 0.36034 0.60749 0.0
H1525 H 0.12086 0.36298 0.59719 0.0
H1526 H 0.09816 0.31194 0.55692 0.0
H1527 H 0.12583 0.30934 0.56754 0.0
H1528 H 0.17202 0.3692 0.56882 0.0
H1529 H 0.16338 0.37423 0.53555 0.0
H1530 H 0.15433 0.31922 0.51406 0.0
H1531 H 0.16128 0.31371 0.54749 0.0
H1532 H 0.21676 0.37114 0.58078 0.0
H1533 H 0.23727 0.37947 0.55351 0.0
H1534 H 0.20858 0.31889 0.53359 0.0
H1535 H 0.18933 0.31082 0.56188 0.0
O1536 O 0.19792 0.3186 0.71074 0.0
O1537 O 0.17407 0.28859 0.70109 0.0
O1538 O 0.08898 0.35232 0.57694 0.0
O1539 O 0.0768 0.32626 0.55585 0.0
C1540 C 0.1887 0.33099 0.60622 0.0
C1541 C 0.17461 0.32726 0.61954 0.0
C1542 C 0.15837 0.32841 0.61368 0.0
C1543 C 0.15619 0.33326 0.59442 0.0
C1544 C 0.17021 0.33688 0.58107 0.0
C1545 C 0.18655 0.33586 0.58704 0.0
C1546 C 0.20561 0.32972 0.61272 0.0
C1547 C 0.22272 0.34631 0.62094 0.0
C1548 C 0.2369 0.34468 0.63153 0.0
C1549 C 0.23427 0.32644 0.63379 0.0
C1550 C 0.21778 0.30997 0.62423 0.0
C1551 C 0.20348 0.3116 0.61386 0.0
C1552 C 0.17672 0.32171 0.63958 0.0
C1553 C 0.19064 0.33552 0.654 0.0
C1554 C 0.19306 0.33018 0.67266 0.0
C1555 C 0.18151 0.31094 0.67725 0.0
C1556 C 0.16741 0.29718 0.66278 0.0
C1557 C 0.16506 0.30254 0.6441 0.0
C1558 C 0.14352 0.3244 0.62766 0.0
C1559 C 0.14814 0.33685 0.64466 0.0
C1560 C 0.13402 0.33345 0.65745 0.0
C1561 C 0.11492 0.31764 0.65336 0.0
C1562 C 0.11044 0.3051 0.63636 0.0
C1563 C 0.12463 0.3084 0.62371 0.0
C1564 C 0.13922 0.33468 0.58824 0.0
C1565 C 0.13756 0.34971 0.59651 0.0
C1566 C 0.12174 0.3512 0.59057 0.0
C1567 C 0.1073 0.33768 0.5762 0.0
C1568 C 0.10902 0.3226 0.56799 0.0
C1569 C 0.12482 0.3211 0.57399 0.0
C1570 C 0.16738 0.34113 0.56056 0.0
C1571 C 0.16826 0.35833 0.55684 0.0
C1572 C 0.16348 0.36124 0.53778 0.0
C1573 C 0.15796 0.34706 0.52206 0.0
C1574 C 0.15805 0.33028 0.52581 0.0
C1575 C 0.16238 0.32722 0.54488 0.0
C1576 C 0.20147 0.34042 0.57314 0.0
C1577 C 0.2154 0.35969 0.57085 0.0
C1578 C 0.22688 0.36439 0.55504 0.0
C1579 C 0.22427 0.34992 0.54088 0.0
C1580 C 0.21117 0.33049 0.54411 0.0
C1581 C 0.20004 0.32579 0.56026 0.0
C1582 C 0.18421 0.30529 0.69705 0.0
C1583 C 0.09051 0.33926 0.56975 0.0
H1584 H 0.99472 0.41257 0.07367 0.0
H1585 H 0.93228 0.37417 0.06805 0.0
H1586 H 0.93054 0.38923 0.09956 0.0
H1587 H 0.00259 0.41374 0.12583 0.0
H1588 H 0.02119 0.439 0.12889 0.0
H1589 H 0.01745 0.42509 0.10602 0.0
H1590 H 0.01279 0.44931 0.08678 0.0
H1591 H 0.01654 0.4633 0.1096 0.0
H1592 H 0.99479 0.45453 0.09346 0.0
H1593 H 0.93603 0.40722 0.13273 0.0
H1594 H 0.94787 0.42793 0.16388 0.0
H1595 H 0.00639 0.45695 0.14575 0.0
C1596 C 0.98068 0.4073 0.0791 0.0
C1597 C 0.96364 0.39211 0.06856 0.0
C1598 C 0.94551 0.3858 0.07595 0.0
C1599 C 0.94439 0.39424 0.09382 0.0
C1600 C 0.96149 0.4092 0.10387 0.0
C1601 C 0.97927 0.41583 0.09665 0.0
C1602 C 0.99543 0.43238 0.11005 0.0
C1603 C 0.01002 0.42723 0.11818 0.0
C1604 C 0.00547 0.45098 0.09933 0.0
C1605 C 0.98401 0.43379 0.12613 0.0
C1606 C 0.9645 0.42023 0.12238 0.0
C1607 C 0.95125 0.41814 0.13566 0.0
C1608 C 0.95815 0.43016 0.15329 0.0
C1609 C 0.97813 0.44435 0.15743 0.0
C1610 C 0.99108 0.44621 0.14339 0.0
H1611 H 0.59708 0.54652 0.10332 0.0
H1612 H 0.62006 0.60502 0.12851 0.0
H1613 H 0.60854 0.59268 0.16056 0.0
H1614 H 0.55415 0.52537 0.12716 0.0
H1615 H 0.55335 0.50328 0.13107 0.0
H1616 H 0.56508 0.51678 0.11062 0.0
H1617 H 0.5966 0.51834 0.12287 0.0
H1618 H 0.58495 0.50485 0.14341 0.0
H1619 H 0.60721 0.52798 0.14776 0.0
H1620 H 0.59289 0.57413 0.18912 0.0
H1621 H 0.57301 0.55032 0.21214 0.0
H1622 H 0.55952 0.50377 0.1684 0.0
C1623 C 0.59996 0.55675 0.11567 0.0
C1624 C 0.60955 0.57674 0.11344 0.0
C1625 C 0.61274 0.58964 0.12986 0.0
C1626 C 0.60634 0.58278 0.14816 0.0
C1627 C 0.59676 0.56299 0.1498 0.0
C1628 C 0.59353 0.55013 0.13402 0.0
C1629 C 0.58167 0.52948 0.13941 0.0
C1630 C 0.56243 0.51806 0.12629 0.0
C1631 C 0.59331 0.51958 0.1383 0.0
C1632 C 0.57844 0.53276 0.16055 0.0
C1633 C 0.58746 0.55221 0.1663 0.0
C1634 C 0.58587 0.55885 0.18485 0.0
C1635 C 0.57448 0.54524 0.19777 0.0
C1636 C 0.56476 0.52523 0.19204 0.0
C1637 C 0.56706 0.51896 0.17329 0.0
H1638 H 0.42549 0.98158 0.07359 0.0
H1639 H 0.43258 0.03819 0.07593 0.0
H1640 H 0.45189 0.04681 0.10809 0.0
H1641 H 0.41851 0.97414 0.12306 0.0
H1642 H 0.43159 0.96204 0.12593 0.0
H1643 H 0.42028 0.96106 0.1021 0.0
H1644 H 0.45312 0.97492 0.08703 0.0
H1645 H 0.46454 0.97583 0.11083 0.0
H1646 H 0.47386 0.99731 0.09782 0.0
H1647 H 0.46733 0.04796 0.14148 0.0
H1648 H 0.47831 0.04184 0.17324 0.0
H1649 H 0.46217 0.98489 0.14858 0.0
C1650 C 0.43139 0.99593 0.08065 0.0
C1651 C 0.42753 0.00922 0.07219 0.0
C1652 C 0.4354 0.02778 0.08206 0.0
C1653 C 0.44641 0.03283 0.10033 0.0
C1654 C 0.44957 0.01922 0.10844 0.0
C1655 C 0.44244 0.00122 0.09884 0.0
C1656 C 0.44691 0.98883 0.11123 0.0
C1657 C 0.42821 0.97044 0.11585 0.0
C1658 C 0.46041 0.98394 0.10112 0.0
C1659 C 0.45714 0.00247 0.12957 0.0
C1660 C 0.45869 0.01998 0.12761 0.0
C1661 C 0.46655 0.03444 0.14305 0.0
C1662 C 0.47285 0.03085 0.16103 0.0
C1663 C 0.47127 0.01292 0.16345 0.0
C1664 C 0.46353 0.99871 0.14732 0.0
H1665 H 0.41302 0.97566 0.96633 0.0
H1666 H 0.40216 0.02212 0.96202 0.0
H1667 H 0.41429 0.02757 0.929 0.0
H1668 H 0.45735 0.99896 0.94471 0.0
H1669 H 0.45363 0.97733 0.93193 0.0
H1670 H 0.44245 0.97591 0.9544 0.0
H1671 H 0.40882 0.95128 0.93627 0.0
H1672 H 0.41991 0.95267 0.91371 0.0
H1673 H 0.40072 0.95748 0.91422 0.0
H1674 H 0.42877 0.02886 0.89718 0.0
H1675 H 0.44614 0.02702 0.86941 0.0
H1676 H 0.44885 0.98066 0.89517 0.0
C1677 C 0.41292 0.98679 0.95832 0.0
C1678 C 0.40653 0.99839 0.96668 0.0
C1679 C 0.40698 0.01306 0.95589 0.0
C1680 C 0.41376 0.0162 0.93709 0.0
C1681 C 0.42011 0.00462 0.92935 0.0
C1682 C 0.41984 0.99027 0.93964 0.0
C1683 C 0.42868 0.98072 0.92857 0.0
C1684 C 0.44659 0.9834 0.94062 0.0
C1685 C 0.41363 0.95926 0.92285 0.0
C1686 C 0.4342 0.99213 0.91056 0.0
C1687 C 0.42892 0.00568 0.9112 0.0
C1688 C 0.43296 0.01829 0.89649 0.0
C1689 C 0.44294 0.01721 0.88086 0.0
C1690 C 0.44893 0.00375 0.88015 0.0
C1691 C 0.44423 0.9909 0.89511 0.0
H1692 H 0.96774 0.38958 0.9539 0.0
H1693 H 0.02462 0.42111 0.98613 0.0
H1694 H 0.03716 0.44274 0.95902 0.0
H1695 H 0.98458 0.3929 0.90454 0.0
H1696 H 0.96534 0.39523 0.89356 0.0
H1697 H 0.96156 0.38169 0.91486 0.0
H1698 H 0.95154 0.40307 0.93341 0.0
H1699 H 0.95539 0.41672 0.91225 0.0
H1700 H 0.96786 0.42889 0.93595 0.0
H1701 H 0.04229 0.46273 0.92942 0.0
H1702 H 0.03991 0.4783 0.89993 0.0
H1703 H 0.97994 0.43194 0.88687 0.0
C1704 C 0.9829 0.40092 0.95523 0.0
C1705 C 0.9952 0.40377 0.97216 0.0
C1706 C 0.01497 0.41868 0.97324 0.0
C1707 C 0.02218 0.43101 0.95794 0.0
C1708 C 0.0095 0.42797 0.94158 0.0
C1709 C 0.99033 0.4131 0.94008 0.0
C1710 C 0.97942 0.41304 0.92137 0.0
C1711 C 0.97231 0.39462 0.90778 0.0
C1712 C 0.96257 0.41559 0.92604 0.0
C1713 C 0.99527 0.43059 0.91277 0.0
C1714 C 0.01255 0.43901 0.92451 0.0
C1715 C 0.0289 0.45605 0.91997 0.0
C1716 C 0.02742 0.46474 0.90312 0.0
C1717 C 0.00973 0.45638 0.89102 0.0
C1718 C 0.99363 0.43888 0.89586 0.0
H1719 H 0.61008 0.59377 0.99395 0.0
H1720 H 0.56803 0.59558 0.02871 0.0
H1721 H 0.54734 0.59027 0.99788 0.0
H1722 H 0.60417 0.61905 0.95288 0.0
H1723 H 0.60804 0.60492 0.9348 0.0
H1724 H 0.61964 0.61014 0.95951 0.0
H1725 H 0.6045 0.57354 0.96272 0.0
H1726 H 0.59277 0.56821 0.93813 0.0
H1727 H 0.57862 0.55748 0.95855 0.0
H1728 H 0.52991 0.58093 0.96287 0.0
H1729 H 0.51842 0.57061 0.92749 0.0
H1730 H 0.57386 0.57817 0.91645 0.0
C1731 C 0.59661 0.59328 0.99501 0.0
C1732 C 0.59044 0.5949 0.01351 0.0
C1733 C 0.57289 0.59437 0.01453 0.0
C1734 C 0.56112 0.59136 0.99714 0.0
C1735 C 0.5675 0.58948 0.97902 0.0
C1736 C 0.58506 0.59081 0.97792 0.0
C1737 C 0.58869 0.58808 0.95687 0.0
C1738 C 0.60617 0.60666 0.95065 0.0
C1739 C 0.59129 0.5708 0.95391 0.0
C1740 C 0.57004 0.58407 0.94625 0.0
C1741 C 0.55798 0.58502 0.95914 0.0
C1742 C 0.53942 0.58053 0.95262 0.0
C1743 C 0.53304 0.57474 0.93249 0.0
C1744 C 0.5452 0.57349 0.91916 0.0
C1745 C 0.56407 0.57868 0.92622 0.0
H1746 H 0.03778 0.6075 0.98462 0.0
H1747 H 0.97899 0.57797 0.00162 0.0
H1748 H 0.96834 0.5545 0.97254 0.0
H1749 H 0.0238 0.60224 0.93204 0.0
H1750 H 0.04312 0.59919 0.92503 0.0
H1751 H 0.04624 0.61329 0.94756 0.0
H1752 H 0.05468 0.59174 0.96718 0.0
H1753 H 0.05136 0.57744 0.94472 0.0
H1754 H 0.03787 0.56601 0.96532 0.0
H1755 H 0.96448 0.53318 0.94301 0.0
H1756 H 0.96636 0.51789 0.91206 0.0
H1757 H 0.02688 0.56334 0.91189 0.0
C1758 C 0.02268 0.59609 0.98216 0.0
C1759 C 0.00921 0.59443 0.99539 0.0
C1760 C 0.98952 0.5795 0.99161 0.0
C1761 C 0.98336 0.56604 0.97522 0.0
C1762 C 0.997 0.56793 0.96257 0.0
C1763 C 0.01617 0.58279 0.96557 0.0
C1764 C 0.0276 0.58206 0.94907 0.0
C1765 C 0.03566 0.60027 0.93776 0.0
C1766 C 0.04383 0.57914 0.95706 0.0
C1767 C 0.01189 0.56436 0.93647 0.0
C1768 C 0.99445 0.5563 0.94472 0.0
C1769 C 0.97796 0.53956 0.93618 0.0
C1770 C 0.97918 0.53107 0.91846 0.0
C1771 C 0.99666 0.53953 0.90912 0.0
C1772 C 0.01328 0.55632 0.91853 0.0
H1773 H 0.40658 0.42876 0.9534 0.0
H1774 H 0.39077 0.46862 0.97624 0.0
H1775 H 0.40501 0.48878 0.94866 0.0
H1776 H 0.45206 0.46411 0.93971 0.0
H1777 H 0.45112 0.45052 0.91766 0.0
H1778 H 0.43796 0.43811 0.93801 0.0
H1779 H 0.40618 0.41976 0.91487 0.0
H1780 H 0.41927 0.43208 0.8944 0.0
H1781 H 0.39864 0.43319 0.90063 0.0
H1782 H 0.42286 0.50577 0.92005 0.0
H1783 H 0.44372 0.51876 0.89275 0.0
H1784 H 0.4479 0.46789 0.88841 0.0
C1785 C 0.40581 0.44154 0.95241 0.0
C1786 C 0.39748 0.44706 0.96694 0.0
C1787 C 0.39707 0.46409 0.96529 0.0
C1788 C 0.40506 0.47561 0.94964 0.0
C1789 C 0.41342 0.46993 0.93575 0.0
C1790 C 0.41384 0.4533 0.93695 0.0
C1791 C 0.4248 0.45112 0.9208 0.0
C1792 C 0.44253 0.45096 0.92958 0.0
C1793 C 0.41142 0.43296 0.90684 0.0
C1794 C 0.43077 0.4693 0.91059 0.0
C1795 C 0.42388 0.47984 0.9193 0.0
C1796 C 0.42814 0.49754 0.91293 0.0
C1797 C 0.43992 0.50475 0.89735 0.0
C1798 C 0.4474 0.49433 0.88838 0.0
C1799 C 0.44251 0.47626 0.89501 0.0
H1800 H 0.57688 0.00281 0.99206 0.0
H1801 H 0.61954 0.06433 0.99821 0.0
H1802 H 0.60715 0.06772 0.96585 0.0
H1803 H 0.57766 0.9951 0.93993 0.0
H1804 H 0.55195 0.97836 0.93523 0.0
H1805 H 0.56404 0.98042 0.95901 0.0
H1806 H 0.54061 0.98768 0.97606 0.0
H1807 H 0.52839 0.98554 0.95233 0.0
H1808 H 0.5381 0.00722 0.96853 0.0
H1809 H 0.59205 0.06441 0.93222 0.0
H1810 H 0.57298 0.05528 0.90024 0.0
H1811 H 0.53734 0.99641 0.91648 0.0
C1812 C 0.58354 0.01697 0.98658 0.0
C1813 C 0.59922 0.03331 0.99769 0.0
C1814 C 0.60746 0.05163 0.99007 0.0
C1815 C 0.60059 0.05371 0.97164 0.0
C1816 C 0.58523 0.03739 0.96105 0.0
C1817 C 0.57658 0.01941 0.96827 0.0
C1818 C 0.55993 0.00441 0.9539 0.0
C1819 C 0.56362 0.98864 0.94659 0.0
C1820 C 0.54061 0.9957 0.96327 0.0
C1821 C 0.56084 0.01678 0.93743 0.0
C1822 C 0.57568 0.0357 0.94187 0.0
C1823 C 0.58008 0.04972 0.92873 0.0
C1824 C 0.56893 0.04436 0.91059 0.0
C1825 C 0.55315 0.02516 0.90573 0.0
C1826 C 0.54919 0.01121 0.91949 0.0
H1827 H 0.60042 0.04311 0.10985 0.0
H1828 H 0.59536 0.98784 0.09856 0.0
H1829 H 0.57897 0.97694 0.12903 0.0
H1830 H 0.60899 0.04697 0.16319 0.0
H1831 H 0.59471 0.05754 0.16739 0.0
H1832 H 0.60679 0.06138 0.14511 0.0
H1833 H 0.57413 0.04788 0.12408 0.0
H1834 H 0.56199 0.0441 0.14629 0.0
H1835 H 0.55398 0.02427 0.12787 0.0
H1836 H 0.56271 0.97182 0.1604 0.0
H1837 H 0.54631 0.97225 0.18966 0.0
H1838 H 0.56106 0.03048 0.18012 0.0
C1839 C 0.59598 0.02875 0.11384 0.0
C1840 C 0.59925 0.01635 0.10181 0.0
C1841 C 0.59302 0.9976 0.10749 0.0
C1842 C 0.58376 0.9913 0.12482 0.0
C1843 C 0.58076 0.00388 0.13631 0.0
C1844 C 0.58659 0.02217 0.13102 0.0
C1845 C 0.58093 0.03255 0.14557 0.0
C1846 C 0.59893 0.05068 0.15593 0.0
C1847 C 0.56692 0.03748 0.13534 0.0
C1848 C 0.5709 0.01718 0.1598 0.0
C1849 C 0.5711 0.00081 0.15426 0.0
C1850 C 0.56244 0.98455 0.16487 0.0
C1851 C 0.55309 0.9849 0.18142 0.0
C1852 C 0.55232 0.00136 0.18718 0.0
C1853 C 0.5616 0.01778 0.17629 0.0
H1854 H 0.0334 0.60536 0.10816 0.0
H1855 H 0.97315 0.58425 0.09041 0.0
H1856 H 0.96346 0.56432 0.11897 0.0
H1857 H 0.027 0.562 0.12323 0.0
H1858 H 0.04507 0.57315 0.14398 0.0
H1859 H 0.04715 0.58642 0.12285 0.0
H1860 H 0.04865 0.61367 0.14538 0.0
H1861 H 0.04668 0.60051 0.16662 0.0
H1862 H 0.02965 0.60785 0.16129 0.0
H1863 H 0.96053 0.54473 0.14817 0.0
H1864 H 0.96458 0.52833 0.176 0.0
H1865 H 0.02699 0.56422 0.17533 0.0
C1866 C 0.01816 0.59665 0.11031 0.0
C1867 C 0.00401 0.59627 0.09701 0.0
C1868 C 0.98423 0.58479 0.10046 0.0
C1869 C 0.97861 0.57342 0.11661 0.0
C1870 C 0.99297 0.57396 0.12929 0.0
C1871 C 0.01235 0.58548 0.12641 0.0
C1872 C 0.02499 0.58335 0.1419 0.0
C1873 C 0.03674 0.57578 0.13242 0.0
C1874 C 0.03827 0.60248 0.15455 0.0
C1875 C 0.0097 0.56846 0.1537 0.0
C1876 C 0.99131 0.56321 0.14628 0.0
C1877 C 0.97488 0.54896 0.15428 0.0
C1878 C 0.97735 0.5398 0.17019 0.0
C1879 C 0.99612 0.54495 0.17797 0.0
C1880 C 0.01242 0.5597 0.16967 0.0
H1881 H 0.40806 0.43323 0.08017 0.0
H1882 H 0.42749 0.40306 0.04348 0.0
H1883 H 0.44933 0.40541 0.0719 0.0
H1884 H 0.45295 0.46609 0.10757 0.0
H1885 H 0.4422 0.46492 0.13033 0.0
H1886 H 0.42851 0.46088 0.10705 0.0
H1887 H 0.4013 0.42767 0.11685 0.0
H1888 H 0.41487 0.43165 0.1402 0.0
H1889 H 0.40719 0.41026 0.1242 0.0
H1890 H 0.47002 0.4125 0.10492 0.0
H1891 H 0.48595 0.42197 0.13905 0.0
H1892 H 0.45026 0.44506 0.15336 0.0
C1893 C 0.41697 0.42718 0.078 0.0
C1894 C 0.41627 0.41815 0.05957 0.0
C1895 C 0.42788 0.4101 0.0575 0.0
C1896 C 0.44032 0.4114 0.07353 0.0
C1897 C 0.44069 0.42054 0.09152 0.0
C1898 C 0.42911 0.42808 0.09379 0.0
C1899 C 0.43161 0.43674 0.11458 0.0
C1900 C 0.43928 0.45844 0.11489 0.0
C1901 C 0.41261 0.42593 0.12454 0.0
C1902 C 0.44664 0.43319 0.12371 0.0
C1903 C 0.45185 0.42392 0.11029 0.0
C1904 C 0.4659 0.41963 0.11555 0.0
C1905 C 0.47481 0.42498 0.13501 0.0
C1906 C 0.46954 0.43445 0.14896 0.0
C1907 C 0.45508 0.43832 0.14308 0.0
H1908 H 0.65049 0.7302 0.41191 0.0
H1909 H 0.5989 0.7258 0.38404 0.0
H1910 H 0.59578 0.74114 0.41436 0.0
H1911 H 0.63348 0.71991 0.46068 0.0
H1912 H 0.65695 0.73666 0.47334 0.0
H1913 H 0.65508 0.72513 0.44946 0.0
H1914 H 0.67669 0.75861 0.43631 0.0
H1915 H 0.67854 0.77025 0.46012 0.0
H1916 H 0.66977 0.77624 0.43838 0.0
H1917 H 0.59876 0.75793 0.44715 0.0
H1918 H 0.60691 0.77384 0.48088 0.0
H1919 H 0.65576 0.76621 0.48807 0.0
C1920 C 0.6385 0.73239 0.4122 0.0
C1921 C 0.62496 0.72679 0.39554 0.0
C1922 C 0.60945 0.7299 0.39658 0.0
C1923 C 0.60755 0.73866 0.41374 0.0
C1924 C 0.6212 0.74412 0.4298 0.0
C1925 C 0.63629 0.741 0.42927 0.0
C1926 C 0.64891 0.74819 0.44867 0.0
C1927 C 0.64858 0.73147 0.45863 0.0
C1928 C 0.66971 0.76428 0.44568 0.0
C1929 C 0.63863 0.75597 0.46009 0.0
C1930 C 0.62271 0.75351 0.44891 0.0
C1931 C 0.61109 0.75978 0.45613 0.0
C1932 C 0.61578 0.76871 0.47537 0.0
C1933 C 0.63191 0.77121 0.48725 0.0
C1934 C 0.64345 0.76473 0.47937 0.0
H1935 H 0.27308 0.894 0.45786 0.0
H1936 H 0.24879 0.9287 0.44366 0.0
H1937 H 0.23032 0.91876 0.47308 0.0
H1938 H 0.23295 0.85536 0.47307 0.0
H1939 H 0.2447 0.85087 0.49349 0.0
H1940 H 0.25801 0.86263 0.473 0.0
H1941 H 0.28386 0.89166 0.49661 0.0
H1942 H 0.27082 0.87981 0.51729 0.0
H1943 H 0.27645 0.90383 0.5133 0.0
H1944 H 0.20963 0.89956 0.49933 0.0
H1945 H 0.19213 0.87712 0.52388 0.0
H1946 H 0.23385 0.85901 0.52483 0.0
C1947 C 0.26434 0.89996 0.46135 0.0
C1948 C 0.26232 0.91211 0.44862 0.0
C1949 C 0.25066 0.91955 0.45343 0.0
C1950 C 0.24007 0.91392 0.47003 0.0
C1951 C 0.24183 0.90135 0.48194 0.0
C1952 C 0.25417 0.89497 0.4782 0.0
C1953 C 0.25292 0.88105 0.49292 0.0
C1954 C 0.24678 0.86132 0.48249 0.0
C1955 C 0.27216 0.8896 0.5058 0.0
C1956 C 0.23718 0.87978 0.50484 0.0
C1957 C 0.23093 0.89151 0.49822 0.0
C1958 C 0.21493 0.89091 0.50524 0.0
C1959 C 0.20512 0.87808 0.51945 0.0
C1960 C 0.21153 0.86618 0.52699 0.0
C1961 C 0.22811 0.8675 0.51962 0.0
H1962 H 0.08905 0.30801 0.42238 0.0
H1963 H 0.11634 0.36671 0.4055 0.0
H1964 H 0.13848 0.37814 0.43628 0.0
H1965 H 0.08955 0.31953 0.47326 0.0
H1966 H 0.09375 0.30113 0.48112 0.0
H1967 H 0.08111 0.29788 0.45738 0.0
H1968 H 0.106 0.29268 0.44048 0.0
H1969 H 0.11874 0.29595 0.46419 0.0
H1970 H 0.13142 0.31079 0.44481 0.0
H1971 H 0.15764 0.38265 0.46961 0.0
H1972 H 0.17075 0.38002 0.50222 0.0
H1973 H 0.12856 0.3184 0.4969 0.0
C1974 C 0.09981 0.32327 0.42495 0.0
C1975 C 0.10112 0.33646 0.41142 0.0
C1976 C 0.11516 0.35635 0.41563 0.0
C1977 C 0.12779 0.36294 0.43304 0.0
C1978 C 0.12599 0.34945 0.4461 0.0
C1979 C 0.11222 0.33005 0.44222 0.0
C1980 C 0.11243 0.31844 0.4588 0.0
C1981 C 0.09306 0.30868 0.46819 0.0
C1982 C 0.11745 0.30359 0.45164 0.0
C1983 C 0.12856 0.33428 0.4727 0.0
C1984 C 0.13637 0.35208 0.46518 0.0
C1985 C 0.15154 0.36876 0.47562 0.0
C1986 C 0.15882 0.36714 0.4942 0.0
C1987 C 0.15082 0.34898 0.50219 0.0
C1988 C 0.13542 0.33246 0.49117 0.0
H1989 H 0.08673 0.33586 0.3008 0.0
H1990 H 0.05784 0.27464 0.30882 0.0
H1991 H 0.06582 0.26869 0.27602 0.0
H1992 H 0.07266 0.33053 0.24763 0.0
H1993 H 0.09563 0.35089 0.24248 0.0
H1994 H 0.08657 0.35039 0.26616 0.0
H1995 H 0.11819 0.35548 0.28358 0.0
H1996 H 0.12731 0.35594 0.25998 0.0
H1997 H 0.12583 0.33902 0.27703 0.0
H1998 H 0.07829 0.26928 0.24358 0.0
H1999 H 0.09486 0.27649 0.21312 0.0
H2000 H 0.11541 0.33722 0.2252 0.0
C2001 C 0.08189 0.32119 0.29554 0.0
C2002 C 0.07164 0.30572 0.30741 0.0
C2003 C 0.06575 0.28675 0.30006 0.0
C2004 C 0.07015 0.28318 0.2814 0.0
C2005 C 0.08044 0.29871 0.27019 0.0
C2006 C 0.08624 0.31734 0.27689 0.0
C2007 C 0.0979 0.33148 0.26212 0.0
C2008 C 0.08757 0.34141 0.25412 0.0
C2009 C 0.11853 0.34636 0.27122 0.0
C2010 C 0.09795 0.31788 0.24628 0.0
C2011 C 0.08766 0.29905 0.25122 0.0
C2012 C 0.08617 0.28394 0.23937 0.0
C2013 C 0.09554 0.28818 0.222 0.0
C2014 C 0.10627 0.3074 0.21657 0.0
C2015 C 0.10735 0.32239 0.2289 0.0
H2016 H 0.63103 0.73185 0.2829 0.0
H2017 H 0.68772 0.75762 0.31496 0.0
H2018 H 0.70147 0.78224 0.29075 0.0
H2019 H 0.64779 0.73992 0.23348 0.0
H2020 H 0.62963 0.7448 0.22466 0.0
H2021 H 0.62477 0.72868 0.24381 0.0
H2022 H 0.61666 0.74944 0.26633 0.0
H2023 H 0.62162 0.76568 0.24733 0.0
H2024 H 0.63426 0.77483 0.27159 0.0
H2025 H 0.70836 0.80542 0.26397 0.0
H2026 H 0.70793 0.8244 0.23679 0.0
H2027 H 0.64676 0.78243 0.2222 0.0
C2028 C 0.64639 0.74254 0.28479 0.0
C2029 C 0.65829 0.74282 0.30088 0.0
C2030 C 0.67832 0.75707 0.30272 0.0
C2031 C 0.68625 0.77112 0.28905 0.0
C2032 C 0.67398 0.77058 0.27354 0.0
C2033 C 0.65451 0.75652 0.27128 0.0
C2034 C 0.64425 0.75927 0.25372 0.0
C2035 C 0.63614 0.74215 0.23799 0.0
C2036 C 0.62826 0.7625 0.26014 0.0
C2037 C 0.66087 0.77738 0.24668 0.0
C2038 C 0.67795 0.78367 0.25818 0.0
C2039 C 0.6951 0.80048 0.25475 0.0
C2040 C 0.69473 0.81113 0.23922 0.0
C2041 C 0.67731 0.80496 0.22733 0.0
C2042 C 0.66027 0.78773 0.23112 0.0
H2043 H 0.26034 0.93666 0.33269 0.0
H2044 H 0.21347 0.88998 0.36023 0.0
H2045 H 0.19124 0.88302 0.33051 0.0
H2046 H 0.23079 0.95126 0.30213 0.0
H2047 H 0.24505 0.95513 0.28152 0.0
H2048 H 0.25604 0.95932 0.3064 0.0
H2049 H 0.26736 0.93577 0.29774 0.0
H2050 H 0.25637 0.93147 0.27294 0.0
H2051 H 0.24974 0.91148 0.28777 0.0
H2052 H 0.17529 0.87852 0.2966 0.0
H2053 H 0.16764 0.87499 0.26042 0.0
H2054 H 0.22545 0.92317 0.25422 0.0
C2055 C 0.24521 0.92548 0.33269 0.0
C2056 C 0.23842 0.91409 0.3488 0.0
C2057 C 0.21879 0.899 0.34806 0.0
C2058 C 0.20608 0.89502 0.3313 0.0
C2059 C 0.21331 0.90615 0.31535 0.0
C2060 C 0.23246 0.92103 0.31587 0.0
C2061 C 0.23735 0.92883 0.29582 0.0
C2062 C 0.24262 0.94989 0.29651 0.0
C2063 C 0.25366 0.92675 0.28812 0.0
C2064 C 0.21821 0.91554 0.2838 0.0
C2065 C 0.20436 0.90293 0.29543 0.0
C2066 C 0.18591 0.88851 0.28739 0.0
C2067 C 0.18166 0.88664 0.26686 0.0
C2068 C 0.19595 0.89887 0.25465 0.0
C2069 C 0.21426 0.91374 0.2633 0.0
H2070 H 0.70321 0.93634 0.3343 0.0
H2071 H 0.6615 0.95364 0.32421 0.0
H2072 H 0.65613 0.94176 0.28918 0.0
H2073 H 0.72338 0.94767 0.28633 0.0
H2074 H 0.72567 0.9269 0.2841 0.0
H2075 H 0.72748 0.9381 0.30818 0.0
H2076 H 0.7 0.90535 0.31848 0.0
H2077 H 0.6981 0.89407 0.29447 0.0
H2078 H 0.67707 0.89257 0.30371 0.0
H2079 H 0.6543 0.92722 0.25581 0.0
H2080 H 0.65527 0.90974 0.22597 0.0
H2081 H 0.6971 0.90042 0.25755 0.0
C2082 C 0.69316 0.93787 0.32464 0.0
C2083 C 0.68284 0.946 0.33197 0.0
C2084 C 0.66957 0.94745 0.31894 0.0
C2085 C 0.66646 0.94082 0.29899 0.0
C2086 C 0.67668 0.93269 0.29229 0.0
C2087 C 0.68972 0.93112 0.30466 0.0
C2088 C 0.69797 0.9208 0.29382 0.0
C2089 C 0.71993 0.93417 0.29306 0.0
C2090 C 0.69298 0.90209 0.30318 0.0
C2091 C 0.68729 0.9166 0.27352 0.0
C2092 C 0.67525 0.92379 0.27297 0.0
C2093 C 0.66364 0.92149 0.25604 0.0
C2094 C 0.66418 0.91139 0.23922 0.0
C2095 C 0.67608 0.9035 0.23947 0.0
C2096 C 0.68796 0.90638 0.25684 0.0
H2097 H 0.08094 0.75433 0.28996 0.0
H2098 H 0.05248 0.78505 0.30492 0.0
H2099 H 0.06383 0.80336 0.27567 0.0
H2100 H 0.12283 0.79446 0.27549 0.0
H2101 H 0.12625 0.78173 0.25543 0.0
H2102 H 0.11395 0.76912 0.27609 0.0
H2103 H 0.08425 0.74431 0.25242 0.0
H2104 H 0.09652 0.75679 0.23164 0.0
H2105 H 0.07298 0.75269 0.23547 0.0
H2106 H 0.08023 0.82022 0.24688 0.0
H2107 H 0.10119 0.83504 0.22013 0.0
H2108 H 0.11949 0.79386 0.22337 0.0
C2109 C 0.07675 0.76459 0.28677 0.0
C2110 C 0.06575 0.76821 0.29962 0.0
C2111 C 0.06092 0.78207 0.29527 0.0
C2112 C 0.06722 0.79249 0.27865 0.0
C2113 C 0.0784 0.78895 0.26653 0.0
C2114 C 0.08315 0.77534 0.2703 0.0
C2115 C 0.09663 0.77551 0.25569 0.0
C2116 C 0.11606 0.78051 0.26631 0.0
C2117 C 0.08701 0.75617 0.24306 0.0
C2118 C 0.09901 0.7916 0.24347 0.0
C2119 C 0.08816 0.79895 0.24985 0.0
C2120 C 0.08856 0.81441 0.24151 0.0
C2121 C 0.10045 0.82267 0.22624 0.0
C2122 C 0.11185 0.81551 0.21948 0.0
C2123 C 0.11097 0.79967 0.22819 0.0
H2124 H 0.24058 0.35261 0.32031 0.0
H2125 H 0.23429 0.29708 0.32739 0.0
H2126 H 0.21345 0.284 0.29588 0.0
H2127 H 0.19136 0.33392 0.29704 0.0
H2128 H 0.19982 0.35314 0.28084 0.0
H2129 H 0.21239 0.35729 0.30489 0.0
H2130 H 0.24435 0.36867 0.28872 0.0
H2131 H 0.2319 0.36443 0.26465 0.0
H2132 H 0.24523 0.35293 0.26998 0.0
H2133 H 0.19587 0.27809 0.26183 0.0
H2134 H 0.18301 0.27983 0.22872 0.0
H2135 H 0.20053 0.33914 0.2448 0.0
C2136 C 0.23457 0.33759 0.31547 0.0
C2137 C 0.23906 0.32586 0.32637 0.0
C2138 C 0.23097 0.30632 0.31937 0.0
C2139 C 0.21912 0.29877 0.30148 0.0
C2140 C 0.21536 0.31089 0.2909 0.0
C2141 C 0.22274 0.32985 0.29777 0.0
C2142 C 0.21756 0.34028 0.2832 0.0
C2143 C 0.2045 0.34652 0.29202 0.0
C2144 C 0.23585 0.35759 0.27623 0.0
C2145 C 0.20658 0.32441 0.26675 0.0
C2146 C 0.20527 0.3075 0.27149 0.0
C2147 C 0.19657 0.29119 0.2581 0.0
C2148 C 0.18924 0.29229 0.23935 0.0
C2149 C 0.19074 0.30962 0.23412 0.0
C2150 C 0.19927 0.32572 0.24823 0.0
H2151 H 0.26299 0.333 0.44082 0.0
H2152 H 0.26836 0.38608 0.42344 0.0
H2153 H 0.25851 0.39088 0.45561 0.0
H2154 H 0.22115 0.31707 0.46676 0.0
H2155 H 0.22871 0.3075 0.48623 0.0
H2156 H 0.23704 0.30846 0.4621 0.0
H2157 H 0.27259 0.32814 0.47746 0.0
H2158 H 0.26436 0.32722 0.50167 0.0
H2159 H 0.281 0.35016 0.49268 0.0
H2160 H 0.24599 0.389 0.48831 0.0
H2161 H 0.2323 0.38105 0.52022 0.0
H2162 H 0.23684 0.33026 0.51803 0.0
C2163 C 0.26221 0.34569 0.44383 0.0
C2164 C 0.26645 0.35914 0.42953 0.0
C2165 C 0.26524 0.37556 0.4341 0.0
C2166 C 0.25966 0.37845 0.45236 0.0
C2167 C 0.25548 0.36491 0.46604 0.0
C2168 C 0.25679 0.34891 0.46213 0.0
C2169 C 0.25112 0.33644 0.47942 0.0
C2170 C 0.23345 0.31617 0.47325 0.0
C2171 C 0.26829 0.33544 0.48833 0.0
C2172 C 0.24608 0.34778 0.49344 0.0
C2173 C 0.24875 0.36415 0.48539 0.0
C2174 C 0.24419 0.37643 0.49498 0.0
C2175 C 0.23658 0.37184 0.51329 0.0
C2176 C 0.23373 0.35517 0.52204 0.0
C2177 C 0.23876 0.3431 0.51191 0.0
H2178 H 0.68281 0.91505 0.43069 0.0
H2179 H 0.6387 0.92902 0.43708 0.0
H2180 H 0.62699 0.90807 0.46468 0.0
H2181 H 0.65291 0.86447 0.44188 0.0
H2182 H 0.67306 0.86485 0.45475 0.0
H2183 H 0.67705 0.88001 0.43482 0.0
H2184 H 0.70183 0.91 0.45808 0.0
H2185 H 0.69781 0.89497 0.4781 0.0
H2186 H 0.69453 0.91509 0.48093 0.0
H2187 H 0.62233 0.88803 0.4937 0.0
H2188 H 0.62369 0.86907 0.52028 0.0
H2189 H 0.66936 0.86644 0.49303 0.0
C2190 C 0.67055 0.91355 0.43774 0.0
C2191 C 0.6617 0.92371 0.43179 0.0
C2192 C 0.64564 0.9213 0.44135 0.0
C2193 C 0.63893 0.90947 0.45706 0.0
C2194 C 0.64822 0.89992 0.46278 0.0
C2195 C 0.66351 0.90162 0.4532 0.0
C2196 C 0.67124 0.89014 0.46236 0.0
C2197 C 0.66839 0.8739 0.44757 0.0
C2198 C 0.69262 0.90334 0.47034 0.0
C2199 C 0.65828 0.88214 0.47895 0.0
C2200 C 0.64509 0.8879 0.47897 0.0
C2201 C 0.63236 0.88313 0.4936 0.0
C2202 C 0.63318 0.87223 0.50861 0.0
C2203 C 0.64658 0.86609 0.50884 0.0
C2204 C 0.65908 0.87101 0.49357 0.0
H2205 H 0.10306 0.77939 0.40408 0.0
H2206 H 0.08125 0.71837 0.39297 0.0
H2207 H 0.09927 0.71949 0.42395 0.0
H2208 H 0.15169 0.79334 0.42849 0.0
H2209 H 0.15166 0.81075 0.44564 0.0
H2210 H 0.13974 0.80574 0.42109 0.0
H2211 H 0.10797 0.79769 0.43597 0.0
H2212 H 0.11967 0.80246 0.46049 0.0
H2213 H 0.09796 0.77943 0.45325 0.0
H2214 H 0.11497 0.72616 0.45872 0.0
H2215 H 0.12815 0.73804 0.49334 0.0
H2216 H 0.14129 0.79517 0.48075 0.0
C2217 C 0.10249 0.76637 0.40787 0.0
C2218 C 0.09076 0.74879 0.39612 0.0
C2219 C 0.09027 0.73203 0.40167 0.0
C2220 C 0.10045 0.73254 0.41925 0.0
C2221 C 0.11133 0.74998 0.43087 0.0
C2222 C 0.11268 0.76667 0.42521 0.0
C2223 C 0.12399 0.78321 0.44098 0.0
C2224 C 0.1429 0.7992 0.43361 0.0
C2225 C 0.11165 0.79114 0.44808 0.0
C2226 C 0.12796 0.77299 0.45683 0.0
C2227 C 0.12077 0.75391 0.45069 0.0
C2228 C 0.12111 0.74121 0.46352 0.0
C2229 C 0.12872 0.74813 0.48318 0.0
C2230 C 0.13586 0.76759 0.48985 0.0
C2231 C 0.13588 0.7802 0.47624 0.0
H2232 H 0.30162 0.07926 0.74116 0.0
H2233 H 0.3374 0.05497 0.75133 0.0
H2234 H 0.34372 0.06717 0.78649 0.0
H2235 H 0.33123 0.12248 0.77251 0.0
H2236 H 0.31114 0.12334 0.7811 0.0
H2237 H 0.30886 0.11204 0.75698 0.0
H2238 H 0.27867 0.08054 0.76606 0.0
H2239 H 0.28089 0.09173 0.79024 0.0
H2240 H 0.28042 0.06943 0.78775 0.0
H2241 H 0.3463 0.08226 0.82045 0.0
H2242 H 0.34583 0.09994 0.85049 0.0
H2243 H 0.30923 0.11526 0.81767 0.0
C2244 C 0.31069 0.07638 0.75078 0.0
C2245 C 0.31895 0.06608 0.7435 0.0
C2246 C 0.3309 0.0628 0.75657 0.0
C2247 C 0.33454 0.06964 0.77656 0.0
C2248 C 0.32618 0.07976 0.78321 0.0
C2249 C 0.31456 0.08318 0.7707 0.0
C2250 C 0.3078 0.09493 0.78139 0.0
C2251 C 0.3152 0.11435 0.77246 0.0
C2252 C 0.28563 0.08347 0.78136 0.0
C2253 C 0.31749 0.09767 0.80189 0.0
C2254 C 0.32794 0.08873 0.80266 0.0
C2255 C 0.33823 0.08938 0.81999 0.0
C2256 C 0.33798 0.09958 0.83695 0.0
C2257 C 0.3276 0.10912 0.83644 0.0
C2258 C 0.31713 0.10797 0.81864 0.0
H2259 H 0.93207 0.20675 0.77604 0.0
H2260 H 0.9498 0.26525 0.79657 0.0
H2261 H 0.93638 0.25383 0.8284 0.0
H2262 H 0.88716 0.18388 0.79687 0.0
H2263 H 0.88805 0.16311 0.80312 0.0
H2264 H 0.90027 0.17614 0.78262 0.0
H2265 H 0.93247 0.18102 0.79813 0.0
H2266 H 0.92033 0.168 0.81871 0.0
H2267 H 0.94135 0.19206 0.82298 0.0
H2268 H 0.92009 0.23572 0.85763 0.0
H2269 H 0.90143 0.21234 0.88152 0.0
H2270 H 0.89328 0.1656 0.84106 0.0
C2271 C 0.93339 0.21725 0.7873 0.0
C2272 C 0.94212 0.23695 0.78385 0.0
C2273 C 0.94323 0.25011 0.79889 0.0
C2274 C 0.93568 0.24376 0.81702 0.0
C2275 C 0.92702 0.22421 0.81984 0.0
C2276 C 0.9258 0.21115 0.80536 0.0
C2277 C 0.91493 0.19078 0.81166 0.0
C2278 C 0.89651 0.17772 0.79774 0.0
C2279 C 0.92806 0.18248 0.81295 0.0
C2280 C 0.91008 0.19437 0.83192 0.0
C2281 C 0.9173 0.21375 0.83644 0.0
C2282 C 0.91436 0.22051 0.85422 0.0
C2283 C 0.90362 0.20709 0.86765 0.0
C2284 C 0.89579 0.18708 0.86319 0.0
C2285 C 0.89927 0.18077 0.84509 0.0
H2286 H 0.75319 0.68057 0.75507 0.0
H2287 H 0.79884 0.68477 0.72173 0.0
H2288 H 0.82082 0.69568 0.75245 0.0
H2289 H 0.78414 0.72058 0.7944 0.0
H2290 H 0.76922 0.70693 0.81331 0.0
H2291 H 0.75861 0.70364 0.78841 0.0
H2292 H 0.7451 0.66697 0.78785 0.0
H2293 H 0.75579 0.67015 0.81261 0.0
H2294 H 0.76149 0.65882 0.79308 0.0
H2295 H 0.8366 0.70282 0.78697 0.0
H2296 H 0.84422 0.70333 0.82281 0.0
H2297 H 0.78726 0.69155 0.83377 0.0
C2298 C 0.76807 0.68456 0.75422 0.0
C2299 C 0.77461 0.6824 0.73611 0.0
C2300 C 0.7938 0.68675 0.73551 0.0
C2301 C 0.80634 0.69297 0.75285 0.0
C2302 C 0.79931 0.69443 0.77064 0.0
C2303 C 0.78057 0.69026 0.77146 0.0
C2304 C 0.77567 0.69022 0.79262 0.0
C2305 C 0.77168 0.70631 0.79747 0.0
C2306 C 0.7585 0.67036 0.79677 0.0
C2307 C 0.79435 0.69447 0.80354 0.0
C2308 C 0.80798 0.69735 0.79063 0.0
C2309 C 0.82612 0.7008 0.79723 0.0
C2310 C 0.83033 0.70108 0.81755 0.0
C2311 C 0.81631 0.69752 0.83088 0.0
C2312 C 0.7982 0.69437 0.82379 0.0
H2313 H 0.74686 0.6374 0.62509 0.0
H2314 H 0.74409 0.68883 0.63402 0.0
H2315 H 0.75445 0.69755 0.60063 0.0
H2316 H 0.7889 0.65827 0.60005 0.0
H2317 H 0.78094 0.63738 0.58315 0.0
H2318 H 0.77196 0.63449 0.60713 0.0
H2319 H 0.73672 0.61586 0.59081 0.0
H2320 H 0.7456 0.61867 0.56675 0.0
H2321 H 0.72959 0.62685 0.57253 0.0
H2322 H 0.76796 0.70211 0.56746 0.0
H2323 H 0.78221 0.70133 0.53646 0.0
H2324 H 0.77508 0.64647 0.54901 0.0
C2325 C 0.7482 0.65039 0.61998 0.0
C2326 C 0.74468 0.66244 0.6322 0.0
C2327 C 0.74666 0.67933 0.62492 0.0
C2328 C 0.75253 0.68441 0.60597 0.0
C2329 C 0.75616 0.67234 0.59443 0.0
C2330 C 0.7539 0.65558 0.60109 0.0
C2331 C 0.75935 0.64543 0.58609 0.0
C2332 C 0.77629 0.64381 0.59462 0.0
C2333 C 0.74176 0.62552 0.5786 0.0
C2334 C 0.76541 0.65928 0.5701 0.0
C2335 C 0.76346 0.67472 0.57515 0.0
C2336 C 0.76928 0.68996 0.56322 0.0
C2337 C 0.7774 0.68944 0.54572 0.0
C2338 C 0.77947 0.67374 0.54032 0.0
C2339 C 0.77322 0.65842 0.5526 0.0
H2340 H 0.32516 0.09594 0.6425 0.0
H2341 H 0.36189 0.07231 0.63883 0.0
H2342 H 0.37524 0.09025 0.60939 0.0
H2343 H 0.31179 0.09059 0.59287 0.0
H2344 H 0.31131 0.11238 0.59242 0.0
H2345 H 0.30711 0.10024 0.6147 0.0
H2346 H 0.33512 0.13155 0.63387 0.0
H2347 H 0.33931 0.14389 0.61163 0.0
H2348 H 0.35881 0.14349 0.62498 0.0
H2349 H 0.38204 0.10869 0.57805 0.0
H2350 H 0.38097 0.12487 0.5483 0.0
H2351 H 0.33873 0.13476 0.57304 0.0
C2352 C 0.33631 0.09476 0.63583 0.0
C2353 C 0.3425 0.08272 0.64302 0.0
C2354 C 0.35702 0.08156 0.63367 0.0
C2355 C 0.36467 0.0917 0.61694 0.0
C2356 C 0.35772 0.10298 0.60989 0.0
C2357 C 0.34393 0.1046 0.61922 0.0
C2358 C 0.3375 0.1162 0.60808 0.0
C2359 C 0.31564 0.10412 0.60164 0.0
C2360 C 0.34302 0.13489 0.62038 0.0
C2361 C 0.34932 0.12038 0.59061 0.0
C2362 C 0.3612 0.113 0.59197 0.0
C2363 C 0.37292 0.11465 0.57699 0.0
C2364 C 0.37224 0.12384 0.56018 0.0
C2365 C 0.35967 0.13089 0.55843 0.0
C2366 C 0.34837 0.12936 0.57399 0.0
H2367 H 0.94029 0.26854 0.66801 0.0
H2368 H 0.89563 0.21944 0.69496 0.0
H2369 H 0.87285 0.21147 0.66535 0.0
H2370 H 0.90877 0.28115 0.63939 0.0
H2371 H 0.92275 0.28654 0.61835 0.0
H2372 H 0.93434 0.29034 0.64287 0.0
H2373 H 0.94709 0.26848 0.63213 0.0
H2374 H 0.9355 0.26456 0.60766 0.0
H2375 H 0.93019 0.24425 0.62149 0.0
H2376 H 0.85578 0.20761 0.63207 0.0
H2377 H 0.84658 0.20624 0.59649 0.0
H2378 H 0.9033 0.2562 0.5902 0.0
C2379 C 0.92551 0.25649 0.66782 0.0
C2380 C 0.91941 0.24483 0.68379 0.0
C2381 C 0.90032 0.22866 0.68289 0.0
C2382 C 0.88733 0.22409 0.66619 0.0
C2383 C 0.89384 0.23567 0.65046 0.0
C2384 C 0.91254 0.25144 0.65105 0.0
C2385 C 0.91666 0.26004 0.63129 0.0
C2386 C 0.92087 0.28075 0.63309 0.0
C2387 C 0.93334 0.25928 0.62264 0.0
C2388 C 0.89752 0.24642 0.6194 0.0
C2389 C 0.88439 0.23275 0.63085 0.0
C2390 C 0.86588 0.21832 0.623 0.0
C2391 C 0.86076 0.21768 0.60283 0.0
C2392 C 0.87424 0.23114 0.59074 0.0
C2393 C 0.89275 0.24578 0.5992 0.0
H2394 H 0.35151 0.26382 0.65136 0.0
H2395 H 0.41126 0.2854 0.67235 0.0
H2396 H 0.4148 0.26969 0.64261 0.0
H2397 H 0.34058 0.21778 0.63128 0.0
H2398 H 0.3255 0.21657 0.61018 0.0
H2399 H 0.32769 0.23016 0.63276 0.0
H2400 H 0.3388 0.26066 0.61385 0.0
H2401 H 0.3365 0.24713 0.59119 0.0
H2402 H 0.35914 0.269 0.59927 0.0
H2403 H 0.41186 0.25116 0.61108 0.0
H2404 H 0.40256 0.2313 0.57935 0.0
H2405 H 0.3448 0.2216 0.57878 0.0
C2406 C 0.36539 0.2654 0.64961 0.0
C2407 C 0.3811 0.27588 0.66421 0.0
C2408 C 0.39898 0.27744 0.66141 0.0
C2409 C 0.40116 0.26857 0.64456 0.0
C2410 C 0.38534 0.25814 0.63061 0.0
C2411 C 0.36782 0.25655 0.63288 0.0
C2412 C 0.35303 0.2442 0.61578 0.0
C2413 C 0.33568 0.22611 0.62294 0.0
C2414 C 0.34649 0.25595 0.60435 0.0
C2415 C 0.36498 0.23905 0.60365 0.0
C2416 C 0.38359 0.24729 0.61244 0.0
C2417 C 0.39734 0.24467 0.604 0.0
C2418 C 0.39195 0.23342 0.58598 0.0
C2419 C 0.37297 0.22489 0.57664 0.0
C2420 C 0.35934 0.22772 0.5857 0.0
H2421 H 0.75464 0.12479 0.64286 0.0
H2422 H 0.74605 0.06842 0.62803 0.0
H2423 H 0.76153 0.07977 0.59709 0.0
H2424 H 0.74439 0.13305 0.59335 0.0
H2425 H 0.7623 0.15852 0.59639 0.0
H2426 H 0.75071 0.14597 0.6174 0.0
H2427 H 0.78426 0.15779 0.63576 0.0
H2428 H 0.79595 0.17037 0.61482 0.0
H2429 H 0.80086 0.15293 0.62426 0.0
H2430 H 0.77921 0.0978 0.56849 0.0
H2431 H 0.79612 0.12069 0.54338 0.0
H2432 H 0.79155 0.16452 0.57633 0.0
C2433 C 0.75604 0.11482 0.63314 0.0
C2434 C 0.74925 0.09575 0.63789 0.0
C2435 C 0.75115 0.0831 0.62467 0.0
C2436 C 0.75994 0.08941 0.60709 0.0
C2437 C 0.76652 0.10833 0.6029 0.0
C2438 C 0.76452 0.12079 0.61547 0.0
C2439 C 0.77254 0.14031 0.60743 0.0
C2440 C 0.75652 0.14471 0.6034 0.0
C2441 C 0.7894 0.15628 0.6214 0.0
C2442 C 0.77951 0.13695 0.58843 0.0
C2443 C 0.77604 0.11846 0.58613 0.0
C2444 C 0.78185 0.11225 0.57004 0.0
C2445 C 0.79146 0.12531 0.55593 0.0
C2446 C 0.79491 0.1442 0.55796 0.0
C2447 C 0.78879 0.15003 0.57435 0.0
H2448 H 0.90559 0.69014 0.64756 0.0
H2449 H 0.8944 0.63201 0.64819 0.0
H2450 H 0.87492 0.62308 0.61609 0.0
H2451 H 0.85823 0.67681 0.62446 0.0
H2452 H 0.86813 0.69745 0.61009 0.0
H2453 H 0.8802 0.69891 0.63369 0.0
H2454 H 0.91183 0.70943 0.61717 0.0
H2455 H 0.89987 0.70799 0.59355 0.0
H2456 H 0.91147 0.69448 0.59669 0.0
H2457 H 0.85808 0.621 0.58304 0.0
H2458 H 0.84572 0.62609 0.55143 0.0
H2459 H 0.86746 0.68541 0.57277 0.0
C2460 C 0.89891 0.67547 0.64108 0.0
C2461 C 0.90152 0.66177 0.65047 0.0
C2462 C 0.89261 0.64276 0.64134 0.0
C2463 C 0.88147 0.63754 0.62311 0.0
C2464 C 0.87932 0.65145 0.61422 0.0
C2465 C 0.88777 0.67001 0.62292 0.0
C2466 C 0.88389 0.68245 0.60995 0.0
C2467 C 0.87189 0.6893 0.62016 0.0
C2468 C 0.90289 0.6996 0.60399 0.0
C2469 C 0.87223 0.66808 0.59243 0.0
C2470 C 0.86962 0.65024 0.59523 0.0
C2471 C 0.85985 0.63486 0.58078 0.0
C2472 C 0.85277 0.63786 0.56291 0.0
C2473 C 0.85552 0.65613 0.5596 0.0
C2474 C 0.8652 0.67131 0.57474 0.0
H2475 H 0.933 0.69896 0.7708 0.0
H2476 H 0.8868 0.64374 0.74293 0.0
H2477 H 0.86857 0.63832 0.7723 0.0
H2478 H 0.93046 0.6821 0.81987 0.0
H2479 H 0.93609 0.70458 0.83239 0.0
H2480 H 0.94522 0.70446 0.80891 0.0
H2481 H 0.92945 0.72256 0.7949 0.0
H2482 H 0.92019 0.72262 0.81831 0.0
H2483 H 0.90389 0.71248 0.79614 0.0
H2484 H 0.8544 0.64017 0.80322 0.0
H2485 H 0.84661 0.64668 0.83569 0.0
H2486 H 0.90411 0.6985 0.84601 0.0
C2487 C 0.91903 0.68576 0.77096 0.0
C2488 C 0.91114 0.6718 0.75463 0.0
C2489 C 0.89302 0.65456 0.75536 0.0
C2490 C 0.88256 0.65141 0.7719 0.0
C2491 C 0.89066 0.66546 0.78776 0.0
C2492 C 0.90864 0.68211 0.78764 0.0
C2493 C 0.91437 0.69438 0.80707 0.0
C2494 C 0.93261 0.69649 0.81769 0.0
C2495 C 0.91713 0.71418 0.80391 0.0
C2496 C 0.89666 0.68213 0.81796 0.0
C2497 C 0.88309 0.66569 0.8064 0.0
C2498 C 0.86512 0.65272 0.81267 0.0
C2499 C 0.86094 0.65649 0.83139 0.0
C2500 C 0.87488 0.67286 0.84404 0.0
C2501 C 0.89299 0.68584 0.837 0.0
H2502 H 0.37487 0.27178 0.77744 0.0
H2503 H 0.3182 0.24697 0.74562 0.0
H2504 H 0.30373 0.22399 0.77128 0.0
H2505 H 0.36924 0.22847 0.79241 0.0
H2506 H 0.38234 0.23891 0.8163 0.0
H2507 H 0.38788 0.25372 0.79588 0.0
H2508 H 0.38168 0.27729 0.81611 0.0
H2509 H 0.37623 0.2626 0.83665 0.0
H2510 H 0.35891 0.26813 0.82662 0.0
H2511 H 0.29601 0.20255 0.79998 0.0
H2512 H 0.29562 0.18547 0.8293 0.0
H2513 H 0.35738 0.2258 0.84227 0.0
C2514 C 0.35939 0.26158 0.77583 0.0
C2515 C 0.34767 0.2611 0.75947 0.0
C2516 C 0.32746 0.2476 0.75806 0.0
C2517 C 0.31913 0.23449 0.77254 0.0
C2518 C 0.3312 0.23526 0.78839 0.0
C2519 C 0.35088 0.2486 0.79015 0.0
C2520 C 0.36084 0.24649 0.80838 0.0
C2521 C 0.37596 0.2416 0.80291 0.0
C2522 C 0.36995 0.26471 0.82279 0.0
C2523 C 0.34377 0.22962 0.8165 0.0
C2524 C 0.32677 0.2233 0.80486 0.0
C2525 C 0.30923 0.20752 0.80929 0.0
C2526 C 0.30914 0.19796 0.82602 0.0
C2527 C 0.32648 0.20423 0.8381 0.0
C2528 C 0.34391 0.2204 0.83324 0.0
H2529 H 0.7416 0.08282 0.75626 0.0
H2530 H 0.76351 0.05395 0.72143 0.0
H2531 H 0.78342 0.05525 0.7512 0.0
H2532 H 0.78386 0.11507 0.78475 0.0
H2533 H 0.77266 0.1138 0.80721 0.0
H2534 H 0.75909 0.10894 0.7837 0.0
H2535 H 0.73258 0.07544 0.79357 0.0
H2536 H 0.74595 0.08029 0.81727 0.0
H2537 H 0.73928 0.05886 0.80182 0.0
H2538 H 0.80395 0.0638 0.78448 0.0
H2539 H 0.82067 0.07593 0.81813 0.0
H2540 H 0.78242 0.09636 0.83079 0.0
C2541 C 0.75036 0.07648 0.75499 0.0
C2542 C 0.75119 0.06837 0.73668 0.0
C2543 C 0.76268 0.06013 0.73546 0.0
C2544 C 0.77403 0.06087 0.75225 0.0
C2545 C 0.77326 0.06948 0.77008 0.0
C2546 C 0.76134 0.07674 0.77155 0.0
C2547 C 0.76324 0.08561 0.79209 0.0
C2548 C 0.77013 0.10712 0.79191 0.0
C2549 C 0.74413 0.07437 0.80176 0.0
C2550 C 0.77863 0.08291 0.80187 0.0
C2551 C 0.78431 0.0736 0.78907 0.0
C2552 C 0.79932 0.07077 0.79471 0.0
C2553 C 0.80871 0.07767 0.81389 0.0
C2554 C 0.80302 0.08726 0.82718 0.0
C2555 C 0.78751 0.08949 0.82101 0.0
H2556 H 0.04017 0.34726 0.02928 0.0
H2557 H 0.03442 0.3848 0.07172 0.0
H2558 H 0.05549 0.38145 0.09649 0.0
H2559 H 0.03874 0.31475 0.06254 0.0
H2560 H 0.05658 0.31145 0.05162 0.0
H2561 H 0.04201 0.31765 0.03665 0.0
H2562 H 0.07295 0.34753 0.02618 0.0
H2563 H 0.08762 0.34128 0.04092 0.0
H2564 H 0.09101 0.36486 0.0449 0.0
H2565 H 0.07509 0.37206 0.11746 0.0
H2566 H 0.09412 0.35941 0.13232 0.0
H2567 H 0.08833 0.32918 0.07584 0.0
C2568 C 0.04356 0.35501 0.04369 0.0
C2569 C 0.0356 0.36628 0.04853 0.0
C2570 C 0.04036 0.37612 0.0676 0.0
C2571 C 0.05228 0.37427 0.08182 0.0
C2572 C 0.05949 0.36268 0.07671 0.0
C2573 C 0.05555 0.35344 0.05802 0.0
C2574 C 0.06494 0.34164 0.05643 0.0
C2575 C 0.04965 0.3201 0.05152 0.0
C2576 C 0.08003 0.34929 0.04121 0.0
C2577 C 0.07447 0.34544 0.07724 0.0
C2578 C 0.07113 0.35758 0.0887 0.0
C2579 C 0.07803 0.36275 0.10855 0.0
C2580 C 0.08889 0.35553 0.11684 0.0
C2581 C 0.09284 0.34335 0.10528 0.0
C2582 C 0.0854 0.33824 0.08521 0.0
H2583 H 0.65477 0.69621 0.0647 0.0
H2584 H 0.62744 0.65936 0.1118 0.0
H2585 H 0.6312 0.68711 0.13193 0.0
H2586 H 0.68976 0.73859 0.09591 0.0
H2587 H 0.68807 0.75514 0.08048 0.0
H2588 H 0.68348 0.73243 0.0697 0.0
H2589 H 0.64974 0.72397 0.05469 0.0
H2590 H 0.65427 0.74669 0.06532 0.0
H2591 H 0.63302 0.72449 0.07062 0.0
H2592 H 0.63799 0.71871 0.14707 0.0
H2593 H 0.64619 0.75197 0.15567 0.0
H2594 H 0.6683 0.76813 0.09847 0.0
C2595 C 0.64958 0.69397 0.07924 0.0
C2596 C 0.64083 0.6756 0.08667 0.0
C2597 C 0.63417 0.67328 0.10576 0.0
C2598 C 0.63628 0.68896 0.11736 0.0
C2599 C 0.64504 0.70687 0.10964 0.0
C2600 C 0.6515 0.70946 0.091 0.0
C2601 C 0.66007 0.73017 0.08611 0.0
C2602 C 0.68162 0.73963 0.08287 0.0
C2603 C 0.64858 0.73139 0.06812 0.0
C2604 C 0.65735 0.73877 0.1049 0.0
C2605 C 0.64875 0.7251 0.11831 0.0
C2606 C 0.64466 0.72954 0.13667 0.0
C2607 C 0.64928 0.74844 0.14137 0.0
C2608 C 0.65782 0.76265 0.12773 0.0
C2609 C 0.66202 0.75769 0.10932 0.0
H2610 H 0.32331 0.93928 0.03526 0.0
H2611 H 0.33623 0.9981 0.03571 0.0
H2612 H 0.3055 0.98818 0.04979 0.0
H2613 H 0.26941 0.91522 0.0243 0.0
H2614 H 0.2648 0.89641 0.04017 0.0
H2615 H 0.28636 0.90744 0.02724 0.0
H2616 H 0.30727 0.91585 0.0605 0.0
H2617 H 0.28587 0.90507 0.07353 0.0
H2618 H 0.30492 0.92978 0.08017 0.0
H2619 H 0.27649 0.97337 0.06874 0.0
H2620 H 0.25014 0.95414 0.08949 0.0
H2621 H 0.25453 0.90433 0.07481 0.0
C2622 C 0.31942 0.94995 0.03779 0.0
C2623 C 0.3322 0.96945 0.03437 0.0
C2624 C 0.32669 0.98305 0.03815 0.0
C2625 C 0.30921 0.97756 0.04612 0.0
C2626 C 0.29726 0.95837 0.04996 0.0
C2627 C 0.30194 0.94469 0.04563 0.0
C2628 C 0.28727 0.92538 0.05261 0.0
C2629 C 0.27631 0.91021 0.03503 0.0
C2630 C 0.29691 0.91864 0.06759 0.0
C2631 C 0.27418 0.93062 0.06234 0.0
C2632 C 0.28008 0.94966 0.06049 0.0
C2633 C 0.27136 0.95828 0.06984 0.0
C2634 C 0.25632 0.94718 0.08156 0.0
C2635 C 0.25008 0.92762 0.08379 0.0
C2636 C 0.25896 0.91924 0.07362 0.0
H2637 H 0.39514 0.06687 0.0095 0.0
H2638 H 0.36588 0.05054 0.06319 0.0
H2639 H 0.35509 0.07337 0.05852 0.0
H2640 H 0.41058 0.1183 0.01526 0.0
H2641 H 0.40646 0.11916 0.98914 0.0
H2642 H 0.41347 0.10296 0.99781 0.0
H2643 H 0.38316 0.0742 0.97795 0.0
H2644 H 0.37605 0.09031 0.96933 0.0
H2645 H 0.35954 0.06981 0.98201 0.0
H2646 H 0.3441 0.09494 0.04575 0.0
H2647 H 0.33586 0.11542 0.0269 0.0
H2648 H 0.37325 0.1184 0.98248 0.0
C2649 C 0.38682 0.06838 0.02051 0.0
C2650 C 0.3814 0.05694 0.03673 0.0
C2651 C 0.37031 0.05921 0.05069 0.0
C2652 C 0.36408 0.07213 0.04816 0.0
C2653 C 0.36924 0.08282 0.03173 0.0
C2654 C 0.38057 0.08126 0.01827 0.0
C2655 C 0.38331 0.09363 0.00133 0.0
C2656 C 0.40473 0.10945 0.00087 0.0
C2657 C 0.37501 0.08124 0.98149 0.0
C2658 C 0.37143 0.10207 0.00716 0.0
C2659 C 0.3634 0.09568 0.02472 0.0
C2660 C 0.35064 0.10038 0.03221 0.0
C2661 C 0.34599 0.11192 0.02144 0.0
C2662 C 0.35427 0.11872 0.00356 0.0
C2663 C 0.36721 0.11382 0.99645 0.0
H2664 H 0.92499 0.30502 0.98523 0.0
H2665 H 0.97425 0.31228 0.02148 0.0
H2666 H 0.9637 0.27832 0.01189 0.0
H2667 H 0.89084 0.25702 0.9954 0.0
H2668 H 0.87917 0.2499 0.97062 0.0
H2669 H 0.89081 0.27466 0.98037 0.0
H2670 H 0.91183 0.28545 0.95072 0.0
H2671 H 0.90028 0.26069 0.94091 0.0
H2672 H 0.92626 0.27522 0.94555 0.0
H2673 H 0.94665 0.24287 0.99893 0.0
H2674 H 0.92492 0.20951 0.9838 0.0
H2675 H 0.88844 0.22703 0.95474 0.0
C2676 C 0.93356 0.29951 0.99126 0.0
C2677 C 0.95036 0.31124 0.00423 0.0
C2678 C 0.96129 0.3035 0.01156 0.0
C2679 C 0.95542 0.28426 0.00617 0.0
C2680 C 0.93877 0.27311 0.99329 0.0
C2681 C 0.92809 0.28054 0.98587 0.0
C2682 C 0.91084 0.26576 0.9722 0.0
C2683 C 0.8918 0.26159 0.98013 0.0
C2684 C 0.91241 0.27217 0.9511 0.0
C2685 C 0.91323 0.24869 0.97332 0.0
C2686 C 0.9294 0.25312 0.9855 0.0
C2687 C 0.93406 0.2393 0.98922 0.0
C2688 C 0.9217 0.22043 0.98046 0.0
C2689 C 0.90492 0.21559 0.96812 0.0
C2690 C 0.90096 0.23011 0.96431 0.0
H2691 H 0.68092 0.60887 0.028 0.0
H2692 H 0.69193 0.65783 0.06671 0.0
H2693 H 0.72459 0.67738 0.05506 0.0
H2694 H 0.72935 0.61741 0.03221 0.0
H2695 H 0.72807 0.61014 0.00651 0.0
H2696 H 0.70636 0.59983 0.01915 0.0
H2697 H 0.69074 0.61074 0.99269 0.0
H2698 H 0.7124 0.62111 0.98001 0.0
H2699 H 0.70302 0.63579 0.98776 0.0
H2700 H 0.75603 0.69157 0.03838 0.0
H2701 H 0.78276 0.69941 0.01755 0.0
H2702 H 0.74917 0.6415 0.98828 0.0
C2703 C 0.69031 0.6236 0.03432 0.0
C2704 C 0.68403 0.63177 0.04845 0.0
C2705 C 0.69655 0.65126 0.05596 0.0
C2706 C 0.7151 0.66244 0.04945 0.0
C2707 C 0.72073 0.65396 0.03528 0.0
C2708 C 0.70862 0.63499 0.02776 0.0
C2709 C 0.71748 0.62953 0.01181 0.0
C2710 C 0.72049 0.61327 0.01779 0.0
C2711 C 0.70518 0.62397 0.99189 0.0
C2712 C 0.73654 0.64835 0.01152 0.0
C2713 C 0.73829 0.66226 0.02523 0.0
C2714 C 0.75476 0.68078 0.02755 0.0
C2715 C 0.76981 0.68515 0.01554 0.0
C2716 C 0.76819 0.67108 0.00126 0.0
C2717 C 0.75119 0.65251 0.99929 0.0
H2718 H 0.93204 0.60925 0.00874 0.0
H2719 H 0.98623 0.66246 0.0279 0.0
H2720 H 0.97412 0.6811 0.01204 0.0
H2721 H 0.92337 0.62239 0.96213 0.0
H2722 H 0.89767 0.61144 0.9632 0.0
H2723 H 0.91024 0.60193 0.97635 0.0
H2724 H 0.89754 0.60623 0.00906 0.0
H2725 H 0.8847 0.61548 0.99594 0.0
H2726 H 0.90161 0.62952 0.01696 0.0
H2727 H 0.95768 0.69374 0.99136 0.0
H2728 H 0.93592 0.70027 0.97157 0.0
H2729 H 0.89071 0.63949 0.96922 0.0
C2730 C 0.94123 0.62483 0.00976 0.0
C2731 C 0.96008 0.63438 0.01952 0.0
C2732 C 0.97168 0.65481 0.02063 0.0
C2733 C 0.965 0.66555 0.01155 0.0
C2734 C 0.94653 0.65571 0.00174 0.0
C2735 C 0.93459 0.63588 0.00118 0.0
C2736 C 0.91513 0.62906 0.99011 0.0
C2737 C 0.9114 0.6154 0.97186 0.0
C2738 C 0.89878 0.61951 0.00384 0.0
C2739 C 0.91822 0.64812 0.98423 0.0
C2740 C 0.93651 0.66325 0.99089 0.0
C2741 C 0.94312 0.68208 0.98646 0.0
C2742 C 0.93052 0.68565 0.97529 0.0
C2743 C 0.91131 0.67053 0.96897 0.0
C2744 C 0.90526 0.65148 0.97351 0.0
H2745 H 0.35176 0.32155 0.00456 0.0
H2746 H 0.37833 0.35891 0.95763 0.0
H2747 H 0.37338 0.33109 0.93651 0.0
H2748 H 0.37208 0.29221 0.99634 0.0
H2749 H 0.35067 0.27027 0.00187 0.0
H2750 H 0.35621 0.29313 0.0132 0.0
H2751 H 0.32247 0.28584 0.99965 0.0
H2752 H 0.31689 0.263 0.98817 0.0
H2753 H 0.31535 0.28011 0.97352 0.0
H2754 H 0.36548 0.29915 0.92045 0.0
H2755 H 0.3561 0.26558 0.91106 0.0
H2756 H 0.33517 0.24933 0.96867 0.0
C2757 C 0.35657 0.32392 0.98985 0.0
C2758 C 0.36542 0.34243 0.98276 0.0
C2759 C 0.37152 0.34488 0.96342 0.0
C2760 C 0.36874 0.32915 0.95128 0.0
C2761 C 0.35986 0.31108 0.9587 0.0
C2762 C 0.35394 0.3084 0.97756 0.0
C2763 C 0.34498 0.28755 0.98206 0.0
C2764 C 0.35669 0.28569 0.99939 0.0
C2765 C 0.32366 0.2786 0.98609 0.0
C2766 C 0.3468 0.27893 0.96279 0.0
C2767 C 0.35537 0.29272 0.94948 0.0
C2768 C 0.35878 0.28822 0.93076 0.0
C2769 C 0.35347 0.26915 0.92559 0.0
C2770 C 0.34486 0.25482 0.9391 0.0
C2771 C 0.34141 0.25986 0.95788 0.0
H2772 H 0.67329 0.02843 0.01971 0.0
H2773 H 0.69794 0.07335 0.06792 0.0
H2774 H 0.73087 0.08358 0.05891 0.0
H2775 H 0.71204 0.01744 0.02064 0.0
H2776 H 0.71046 0.0145 0.99408 0.0
H2777 H 0.68925 0.00871 0.00642 0.0
H2778 H 0.6845 0.0321 0.98575 0.0
H2779 H 0.70562 0.03793 0.97338 0.0
H2780 H 0.70405 0.05688 0.98594 0.0
H2781 H 0.76087 0.09036 0.04298 0.0
H2782 H 0.78501 0.09556 0.01947 0.0
H2783 H 0.74024 0.0477 0.98043 0.0
C2784 C 0.68563 0.04008 0.02872 0.0
C2785 C 0.68314 0.04991 0.04472 0.0
C2786 C 0.6996 0.06554 0.05572 0.0
C2787 C 0.71832 0.07135 0.05077 0.0
C2788 C 0.72026 0.0615 0.03468 0.0
C2789 C 0.70431 0.0463 0.02372 0.0
C2790 C 0.71003 0.03967 0.00566 0.0
C2791 C 0.70515 0.01884 0.00678 0.0
C2792 C 0.70049 0.04179 0.98656 0.0
C2793 C 0.73167 0.05385 0.00784 0.0
C2794 C 0.73737 0.06599 0.02495 0.0
C2795 C 0.75659 0.08081 0.02968 0.0
C2796 C 0.7702 0.0836 0.01632 0.0
C2797 C 0.76441 0.07189 0.99834 0.0
C2798 C 0.745 0.05665 0.99424 0.0
H2799 H 0.61073 0.95462 0.05498 0.0
H2800 H 0.64672 0.97248 0.00599 0.0
H2801 H 0.65665 0.94942 0.01343 0.0
H2802 H 0.64302 0.95191 0.08745 0.0
H2803 H 0.62527 0.9311 0.0989 0.0
H2804 H 0.61867 0.94678 0.08805 0.0
H2805 H 0.59084 0.91785 0.06585 0.0
H2806 H 0.59722 0.90199 0.0768 0.0
H2807 H 0.59606 0.90296 0.05039 0.0
H2808 H 0.66618 0.92784 0.02905 0.0
H2809 H 0.67281 0.90777 0.05043 0.0
H2810 H 0.63033 0.90379 0.08881 0.0
C2811 C 0.62024 0.95329 0.04543 0.0
C2812 C 0.62785 0.96531 0.02982 0.0
C2813 C 0.64057 0.96334 0.01793 0.0
C2814 C 0.64633 0.95029 0.02206 0.0
C2815 C 0.6391 0.93918 0.038 0.0
C2816 C 0.62613 0.94035 0.04934 0.0
C2817 C 0.62163 0.92791 0.06653 0.0
C2818 C 0.6275 0.94016 0.0864 0.0
C2819 C 0.60016 0.91171 0.06478 0.0
C2820 C 0.63448 0.91995 0.06341 0.0
C2821 C 0.6444 0.92654 0.04683 0.0
C2822 C 0.65822 0.92228 0.04183 0.0
C2823 C 0.66197 0.911 0.05409 0.0
C2824 C 0.65189 0.90406 0.07107 0.0
C2825 C 0.63788 0.9085 0.07563 0.0
H2826 H 0.08262 0.69165 0.06808 0.0
H2827 H 0.02682 0.68539 0.05415 0.0
H2828 H 0.04021 0.7189 0.06745 0.0
H2829 H 0.09406 0.71873 0.11338 0.0
H2830 H 0.1195 0.73438 0.11069 0.0
H2831 H 0.10627 0.71045 0.09835 0.0
H2832 H 0.11687 0.7245 0.06468 0.0
H2833 H 0.13037 0.74848 0.07695 0.0
H2834 H 0.11231 0.7427 0.05689 0.0
H2835 H 0.0585 0.7518 0.08509 0.0
H2836 H 0.08136 0.78296 0.10388 0.0
H2837 H 0.12568 0.76851 0.1053 0.0
C2838 C 0.07334 0.69745 0.06744 0.0
C2839 C 0.05367 0.68585 0.06007 0.0
C2840 C 0.04194 0.69395 0.05973 0.0
C2841 C 0.04939 0.71299 0.06725 0.0
C2842 C 0.06865 0.72384 0.07494 0.0
C2843 C 0.08056 0.71649 0.07487 0.0
C2844 C 0.10053 0.73102 0.08472 0.0
C2845 C 0.10536 0.72317 0.10286 0.0
C2846 C 0.11593 0.73703 0.06992 0.0
C2847 C 0.0978 0.74745 0.09072 0.0
C2848 C 0.07933 0.74302 0.08489 0.0
C2849 C 0.07313 0.7556 0.08945 0.0
C2850 C 0.08625 0.77329 0.10008 0.0
C2851 C 0.10539 0.7783 0.106 0.0
C2852 C 0.11114 0.76511 0.1012 0.0
H2853 H 0.32173 0.40256 0.0462 0.0
H2854 H 0.3144 0.35613 0.00588 0.0
H2855 H 0.28096 0.33513 0.01522 0.0
H2856 H 0.29711 0.37327 0.08422 0.0
H2857 H 0.28678 0.38722 0.09142 0.0
H2858 H 0.30947 0.39862 0.08052 0.0
H2859 H 0.29535 0.41039 0.0534 0.0
H2860 H 0.27261 0.39903 0.06422 0.0
H2861 H 0.27335 0.3931 0.03861 0.0
H2862 H 0.24809 0.31923 0.02984 0.0
H2863 H 0.21969 0.30987 0.04867 0.0
H2864 H 0.25057 0.36672 0.08034 0.0
C2865 C 0.31308 0.38806 0.03908 0.0
C2866 C 0.32061 0.38104 0.02515 0.0
C2867 C 0.30887 0.36184 0.01651 0.0
C2868 C 0.28988 0.34984 0.02172 0.0
C2869 C 0.28299 0.35725 0.03567 0.0
C2870 C 0.29433 0.37592 0.04424 0.0
C2871 C 0.28411 0.38035 0.05948 0.0
C2872 C 0.29501 0.38514 0.08012 0.0
C2873 C 0.28118 0.39668 0.05356 0.0
C2874 C 0.26514 0.36126 0.05817 0.0
C2875 C 0.2646 0.34809 0.04432 0.0
C2876 C 0.2484 0.32946 0.04073 0.0
C2877 C 0.23238 0.32423 0.05158 0.0
C2878 C 0.23276 0.33758 0.06592 0.0
C2879 C 0.24949 0.35626 0.06919 0.0
H2880 H 0.6918 0.69651 0.38379 0.0
H2881 H 0.73148 0.75646 0.37356 0.0
H2882 H 0.7584 0.75514 0.39037 0.0
H2883 H 0.71327 0.6985 0.43223 0.0
H2884 H 0.7092 0.67462 0.42857 0.0
H2885 H 0.69311 0.68035 0.41581 0.0
H2886 H 0.6995 0.66938 0.38231 0.0
H2887 H 0.7156 0.66362 0.39496 0.0
H2888 H 0.72402 0.68005 0.37582 0.0
H2889 H 0.78106 0.74697 0.40768 0.0
H2890 H 0.79778 0.73278 0.42431 0.0
H2891 H 0.74296 0.67844 0.42414 0.0
C2892 C 0.70614 0.7094 0.38505 0.0
C2893 C 0.70953 0.72661 0.37731 0.0
C2894 C 0.72852 0.74313 0.37937 0.0
C2895 C 0.7439 0.74251 0.38889 0.0
C2896 C 0.74002 0.7253 0.39634 0.0
C2897 C 0.7216 0.70906 0.39457 0.0
C2898 C 0.72126 0.69235 0.40382 0.0
C2899 C 0.70845 0.6861 0.42114 0.0
C2900 C 0.71471 0.67535 0.3883 0.0
C2901 C 0.74242 0.70168 0.41098 0.0
C2902 C 0.753 0.72068 0.40654 0.0
C2903 C 0.77289 0.73216 0.41139 0.0
C2904 C 0.78223 0.72398 0.42099 0.0
C2905 C 0.77169 0.70451 0.42575 0.0
C2906 C 0.75149 0.69331 0.42065 0.0
H2907 H 0.29848 0.99728 0.42047 0.0
H2908 H 0.34273 0.01517 0.37943 0.0
H2909 H 0.35547 0.04929 0.39036 0.0
H2910 H 0.28927 0.03509 0.41387 0.0
H2911 H 0.2857 0.0377 0.43944 0.0
H2912 H 0.28029 0.01472 0.42858 0.0
H2913 H 0.30339 0.01405 0.45584 0.0
H2914 H 0.30889 0.03705 0.46677 0.0
H2915 H 0.32816 0.03393 0.45973 0.0
H2916 H 0.36318 0.0815 0.40563 0.0
H2917 H 0.36477 0.10935 0.42343 0.0
H2918 H 0.31572 0.07025 0.45474 0.0
C2919 C 0.31086 0.00834 0.41376 0.0
C2920 C 0.3196 0.00352 0.39907 0.0
C2921 C 0.33577 0.01848 0.39068 0.0
C2922 C 0.34313 0.03791 0.39682 0.0
C2923 C 0.33418 0.04213 0.41136 0.0
C2924 C 0.31838 0.02777 0.41969 0.0
C2925 C 0.31127 0.03613 0.43489 0.0
C2926 C 0.2904 0.03058 0.42883 0.0
C2927 C 0.31304 0.02992 0.45553 0.0
C2928 C 0.32546 0.05747 0.43373 0.0
C2929 C 0.33862 0.06064 0.42014 0.0
C2930 C 0.35301 0.07919 0.41638 0.0
C2931 C 0.35388 0.09492 0.42667 0.0
C2932 C 0.34043 0.09201 0.44055 0.0
C2933 C 0.32613 0.07298 0.44413 0.0
H2934 H 0.00121 0.2743 0.39402 0.0
H2935 H 0.00464 0.3215 0.36365 0.0
H2936 H 0.97313 0.31362 0.37523 0.0
H2937 H 0.94992 0.24104 0.38541 0.0
H2938 H 0.94797 0.2323 0.40957 0.0
H2939 H 0.9701 0.24121 0.39792 0.0
H2940 H 0.98925 0.26556 0.42838 0.0
H2941 H 0.96718 0.25674 0.4401 0.0
H2942 H 0.98215 0.28205 0.43663 0.0
H2943 H 0.94072 0.29992 0.39053 0.0
H2944 H 0.91153 0.28263 0.40876 0.0
H2945 H 0.93205 0.24673 0.43073 0.0
C2946 C 0.99527 0.28286 0.38954 0.0
C2947 C 0.00522 0.29835 0.37774 0.0
C2948 C 0.99714 0.30947 0.37261 0.0
C2949 C 0.97928 0.3051 0.3791 0.0
C2950 C 0.96991 0.28974 0.39088 0.0
C2951 C 0.97776 0.27892 0.39613 0.0
C2952 C 0.9655 0.26378 0.40963 0.0
C2953 C 0.95793 0.24338 0.40005 0.0
C2954 C 0.97669 0.26725 0.42988 0.0
C2955 C 0.94938 0.2676 0.4111 0.0
C2956 C 0.95198 0.2825 0.40014 0.0
C2957 C 0.93861 0.28827 0.39922 0.0
C2958 C 0.92213 0.27846 0.40972 0.0
C2959 C 0.91931 0.26315 0.42106 0.0
C2960 C 0.93336 0.25797 0.42183 0.0
H2961 H 0.07007 0.38747 0.33484 0.0
H2962 H 0.04956 0.38461 0.39292 0.0
H2963 H 0.041 0.40855 0.38508 0.0
H2964 H 0.09001 0.43964 0.3315 0.0
H2965 H 0.08257 0.43637 0.30547 0.0
H2966 H 0.08874 0.42031 0.31631 0.0
H2967 H 0.05525 0.39105 0.3027 0.0
H2968 H 0.04893 0.407 0.29197 0.0
H2969 H 0.0336 0.39025 0.30883 0.0
H2970 H 0.03121 0.42985 0.36968 0.0
H2971 H 0.02319 0.44905 0.34843 0.0
H2972 H 0.05111 0.43911 0.30097 0.0
C2973 C 0.06414 0.39217 0.34606 0.0
C2974 C 0.06051 0.38415 0.36451 0.0
C2975 C 0.05256 0.39057 0.37871 0.0
C2976 C 0.04762 0.40416 0.3744 0.0
C2977 C 0.05093 0.4114 0.35591 0.0
C2978 C 0.05925 0.40584 0.34206 0.0
C2979 C 0.06052 0.41523 0.32301 0.0
C2980 C 0.08173 0.42869 0.31884 0.0
C2981 C 0.04888 0.39997 0.30561 0.0
C2982 C 0.0512 0.42655 0.32817 0.0
C2983 C 0.04575 0.42414 0.34722 0.0
C2984 C 0.0357 0.43213 0.35486 0.0
C2985 C 0.03113 0.4429 0.34271 0.0
C2986 C 0.03676 0.44568 0.32324 0.0
C2987 C 0.04702 0.4375 0.31597 0.0
H2988 H 0.58378 0.63524 0.33542 0.0
H2989 H 0.64301 0.65479 0.32446 0.0
H2990 H 0.63296 0.62139 0.31309 0.0
H2991 H 0.57257 0.5887 0.35337 0.0
H2992 H 0.54799 0.57629 0.34231 0.0
H2993 H 0.56019 0.60152 0.35063 0.0
H2994 H 0.553 0.60908 0.31572 0.0
H2995 H 0.54091 0.58394 0.30727 0.0
H2996 H 0.56071 0.60165 0.29462 0.0
H2997 H 0.61549 0.58651 0.29913 0.0
H2998 H 0.59269 0.55274 0.28632 0.0
H2999 H 0.54566 0.5555 0.31011 0.0
C3000 C 0.59466 0.63244 0.33084 0.0
C3001 C 0.61413 0.64756 0.33071 0.0
C3002 C 0.62801 0.64336 0.32473 0.0
C3003 C 0.62244 0.62446 0.31823 0.0
C3004 C 0.60304 0.6099 0.31824 0.0
C3005 C 0.58944 0.61363 0.32475 0.0
C3006 C 0.56949 0.59553 0.32308 0.0
C3007 C 0.56213 0.5902 0.34357 0.0
C3008 C 0.5552 0.59769 0.30935 0.0
C3009 C 0.57385 0.58116 0.31395 0.0
C3010 C 0.59324 0.58969 0.31123 0.0
C3011 C 0.60034 0.57956 0.30162 0.0
C3012 C 0.58723 0.56027 0.29449 0.0
C3013 C 0.56723 0.5512 0.29717 0.0
C3014 C 0.56071 0.56186 0.30745 0.0
H3015 H 0.3455 0.95974 0.37623 0.0
H3016 H 0.31672 0.89767 0.36356 0.0
H3017 H 0.34409 0.90223 0.34584 0.0
H3018 H 0.365 0.97283 0.33043 0.0
H3019 H 0.38783 0.99361 0.3403 0.0
H3020 H 0.36659 0.98576 0.3533 0.0
H3021 H 0.38424 0.98318 0.38474 0.0
H3022 H 0.40562 0.99122 0.37189 0.0
H3023 H 0.39501 0.96876 0.38331 0.0
H3024 H 0.37233 0.91317 0.32666 0.0
H3025 H 0.40183 0.92976 0.30957 0.0
H3026 H 0.41446 0.98493 0.33637 0.0
C3027 C 0.34511 0.9471 0.37 0.0
C3028 C 0.32888 0.92833 0.3713 0.0
C3029 C 0.32892 0.91219 0.36283 0.0
C3030 C 0.34441 0.91461 0.35268 0.0
C3031 C 0.35992 0.93325 0.35128 0.0
C3032 C 0.36061 0.94924 0.35992 0.0
C3033 C 0.379 0.96766 0.35581 0.0
C3034 C 0.37432 0.98073 0.34427 0.0
C3035 C 0.39172 0.97833 0.37508 0.0
C3036 C 0.38824 0.95947 0.34316 0.0
C3037 C 0.37689 0.93959 0.34075 0.0
C3038 C 0.38164 0.92871 0.32884 0.0
C3039 C 0.39861 0.93834 0.3193 0.0
C3040 C 0.41095 0.95873 0.32191 0.0
C3041 C 0.40552 0.96938 0.33401 0.0
H3042 H 0.62225 0.96406 0.34994 0.0
H3043 H 0.61969 0.98898 0.40646 0.0
H3044 H 0.59804 0.99813 0.39035 0.0
H3045 H 0.62461 0.00023 0.32156 0.0
H3046 H 0.60995 0.98401 0.30038 0.0
H3047 H 0.62397 0.97804 0.31652 0.0
H3048 H 0.59303 0.94553 0.32199 0.0
H3049 H 0.57893 0.95131 0.3057 0.0
H3050 H 0.57241 0.94545 0.33045 0.0
H3051 H 0.57779 0.0057 0.36784 0.0
H3052 H 0.55976 0.01052 0.34076 0.0
H3053 H 0.57663 0.98171 0.29875 0.0
C3054 C 0.6169 0.97115 0.35903 0.0
C3055 C 0.62259 0.97571 0.37951 0.0
C3056 C 0.61547 0.98527 0.39077 0.0
C3057 C 0.60319 0.99054 0.38175 0.0
C3058 C 0.59821 0.98618 0.36146 0.0
C3059 C 0.60477 0.97663 0.35026 0.0
C3060 C 0.59792 0.97432 0.3286 0.0
C3061 C 0.61514 0.98478 0.31603 0.0
C3062 C 0.58479 0.95288 0.32126 0.0
C3063 C 0.58659 0.98421 0.32934 0.0
C3064 C 0.58689 0.99089 0.34844 0.0
C3065 C 0.57752 0.00059 0.35282 0.0
C3066 C 0.5675 0.00344 0.33729 0.0
C3067 C 0.567 0.99673 0.31757 0.0
C3068 C 0.57671 0.98698 0.31364 0.0
H3069 H 0.0424 0.67185 0.30828 0.0
H3070 H 0.02976 0.65731 0.36853 0.0
H3071 H 0.02272 0.6246 0.35961 0.0
H3072 H 0.00512 0.626 0.2847 0.0
H3073 H 0.01942 0.62579 0.26552 0.0
H3074 H 0.02402 0.6484 0.27658 0.0
H3075 H 0.05987 0.65946 0.2856 0.0
H3076 H 0.05538 0.63688 0.27454 0.0
H3077 H 0.06547 0.64461 0.29984 0.0
H3078 H 0.01644 0.59349 0.34445 0.0
H3079 H 0.01151 0.56551 0.32378 0.0
H3080 H 0.02795 0.59955 0.27307 0.0
C3081 C 0.03825 0.66181 0.31961 0.0
C3082 C 0.03665 0.66718 0.33913 0.0
C3083 C 0.0311 0.65358 0.35349 0.0
C3084 C 0.02706 0.63494 0.34858 0.0
C3085 C 0.02867 0.63007 0.32925 0.0
C3086 C 0.03415 0.64306 0.31496 0.0
C3087 C 0.0345 0.63392 0.29522 0.0
C3088 C 0.01989 0.6335 0.27958 0.0
C3089 C 0.05503 0.64434 0.2884 0.0
C3090 C 0.02825 0.61376 0.30068 0.0
C3091 C 0.02499 0.61193 0.3204 0.0
C3092 C 0.0189 0.59471 0.32898 0.0
C3093 C 0.01601 0.57886 0.31707 0.0
C3094 C 0.01915 0.58029 0.29678 0.0
C3095 C 0.0255 0.59806 0.28854 0.0
H3096 H 0.34435 0.39707 0.35317 0.0
H3097 H 0.33221 0.34052 0.36683 0.0
H3098 H 0.36287 0.34771 0.35396 0.0
H3099 H 0.36242 0.39756 0.30817 0.0
H3100 H 0.38091 0.42286 0.31072 0.0
H3101 H 0.35932 0.41429 0.32324 0.0
H3102 H 0.38003 0.42928 0.35674 0.0
H3103 H 0.40174 0.43806 0.34428 0.0
H3104 H 0.39749 0.42307 0.36443 0.0
H3105 H 0.39329 0.3599 0.33647 0.0
H3106 H 0.42096 0.37624 0.31614 0.0
H3107 H 0.41317 0.42484 0.31464 0.0
C3108 C 0.34829 0.38633 0.35386 0.0
C3109 C 0.33588 0.36826 0.36108 0.0
C3110 C 0.34151 0.35452 0.36146 0.0
C3111 C 0.35892 0.35847 0.3542 0.0
C3112 C 0.37059 0.37627 0.34676 0.0
C3113 C 0.36557 0.39003 0.3467 0.0
C3114 C 0.37993 0.40751 0.33672 0.0
C3115 C 0.37005 0.41073 0.31864 0.0
C3116 C 0.39042 0.42555 0.35142 0.0
C3117 C 0.3935 0.40121 0.33064 0.0
C3118 C 0.38803 0.38325 0.33672 0.0
C3119 C 0.39787 0.3741 0.33189 0.0
C3120 C 0.41359 0.3835 0.32038 0.0
C3121 C 0.41919 0.40178 0.31375 0.0
C3122 C 0.40913 0.41078 0.3193 0.0
H3123 H 0.27975 0.28438 0.407 0.0
H3124 H 0.28309 0.27461 0.34454 0.0
H3125 H 0.29159 0.25049 0.352 0.0
H3126 H 0.31999 0.28223 0.42391 0.0
H3127 H 0.3098 0.27012 0.44562 0.0
H3128 H 0.3022 0.28529 0.4353 0.0
H3129 H 0.26647 0.25688 0.43241 0.0
H3130 H 0.27395 0.24164 0.44285 0.0
H3131 H 0.25987 0.23434 0.41926 0.0
H3132 H 0.30218 0.22929 0.36646 0.0
H3133 H 0.31292 0.2117 0.38689 0.0
H3134 H 0.30293 0.23558 0.43981 0.0
C3135 C 0.28189 0.2769 0.39484 0.0
C3136 C 0.28067 0.28134 0.37517 0.0
C3137 C 0.28388 0.27142 0.35973 0.0
C3138 C 0.28872 0.25769 0.36381 0.0
C3139 C 0.29023 0.25399 0.3834 0.0
C3140 C 0.28678 0.2632 0.39865 0.0
C3141 C 0.29028 0.25729 0.41849 0.0
C3142 C 0.30653 0.27478 0.43159 0.0
C3143 C 0.27152 0.24692 0.42886 0.0
C3144 C 0.2965 0.24354 0.41202 0.0
C3145 C 0.29632 0.24177 0.39172 0.0
C3146 C 0.30222 0.23043 0.38236 0.0
C3147 C 0.30842 0.22061 0.39408 0.0
C3148 C 0.30867 0.22219 0.41491 0.0
C3149 C 0.30256 0.23379 0.4239 0.0
H3150 H 0.74222 0.02831 0.41093 0.0
H3151 H 0.68452 0.01851 0.41241 0.0
H3152 H 0.69857 0.05201 0.42634 0.0
H3153 H 0.76268 0.05802 0.45606 0.0
H3154 H 0.78588 0.074 0.44718 0.0
H3155 H 0.77134 0.04933 0.43689 0.0
H3156 H 0.77264 0.06086 0.40179 0.0
H3157 H 0.78726 0.08557 0.41197 0.0
H3158 H 0.76501 0.07754 0.39701 0.0
H3159 H 0.71882 0.08616 0.44156 0.0
H3160 H 0.74394 0.11885 0.45578 0.0
H3161 H 0.78838 0.10683 0.44264 0.0
C3162 C 0.73254 0.03322 0.41412 0.0
C3163 C 0.71227 0.02074 0.41061 0.0
C3164 C 0.7001 0.02778 0.41493 0.0
C3165 C 0.70794 0.04679 0.42287 0.0
C3166 C 0.72796 0.05866 0.42627 0.0
C3167 C 0.74011 0.05221 0.42188 0.0
C3168 C 0.76113 0.06791 0.42694 0.0
C3169 C 0.77082 0.06195 0.4427 0.0
C3170 C 0.77215 0.07329 0.40831 0.0
C3171 C 0.75886 0.08409 0.43508 0.0
C3172 C 0.73963 0.07847 0.4346 0.0
C3173 C 0.73396 0.09081 0.44183 0.0
C3174 C 0.74835 0.1094 0.44978 0.0
C3175 C 0.7682 0.11552 0.45035 0.0
C3176 C 0.77338 0.10261 0.44274 0.0
H3177 H 0.99693 0.73519 0.38559 0.0
H3178 H 0.98517 0.68752 0.34431 0.0
H3179 H 0.95094 0.66968 0.35204 0.0
H3180 H 0.9668 0.70622 0.42203 0.0
H3181 H 0.95933 0.72282 0.42854 0.0
H3182 H 0.98264 0.73161 0.41945 0.0
H3183 H 0.97401 0.74744 0.39175 0.0
H3184 H 0.95066 0.73863 0.40071 0.0
H3185 H 0.95234 0.73281 0.37535 0.0
H3186 H 0.91755 0.65746 0.36425 0.0
H3187 H 0.88865 0.65176 0.38035 0.0
H3188 H 0.92369 0.70718 0.41436 0.0
C3189 C 0.98719 0.72102 0.37808 0.0
C3190 C 0.99369 0.7128 0.36424 0.0
C3191 C 0.98049 0.69412 0.35494 0.0
C3192 C 0.96103 0.6839 0.35923 0.0
C3193 C 0.95513 0.69252 0.37294 0.0
C3194 C 0.96791 0.71063 0.38229 0.0
C3195 C 0.95822 0.71669 0.39667 0.0
C3196 C 0.96729 0.71949 0.41793 0.0
C3197 C 0.95885 0.73497 0.39076 0.0
C3198 C 0.93789 0.69926 0.39387 0.0
C3199 C 0.93628 0.68544 0.38013 0.0
C3200 C 0.9187 0.66818 0.3751 0.0
C3201 C 0.90239 0.66503 0.38438 0.0
C3202 C 0.90382 0.67907 0.39853 0.0
C3203 C 0.92191 0.6963 0.40332 0.0
H3204 H 0.39712 0.05651 0.71786 0.0
H3205 H 0.34289 0.00132 0.70771 0.0
H3206 H 0.358 0.98562 0.72448 0.0
H3207 H 0.42841 0.03738 0.71019 0.0
H3208 H 0.44674 0.05416 0.72903 0.0
H3209 H 0.4318 0.06083 0.71547 0.0
H3210 H 0.42165 0.06844 0.74841 0.0
H3211 H 0.43639 0.06159 0.76205 0.0
H3212 H 0.41101 0.05006 0.76549 0.0
H3213 H 0.37838 0.97638 0.74478 0.0
H3214 H 0.40315 0.97391 0.76461 0.0
H3215 H 0.44461 0.03469 0.75939 0.0
C3216 C 0.38848 0.04109 0.71897 0.0
C3217 C 0.36881 0.03017 0.71149 0.0
C3218 C 0.35801 0.01 0.71324 0.0
C3219 C 0.36645 0.00094 0.72281 0.0
C3220 C 0.38576 0.01218 0.73033 0.0
C3221 C 0.39673 0.03176 0.72826 0.0
C3222 C 0.41717 0.04056 0.73772 0.0
C3223 C 0.4319 0.04871 0.72217 0.0
C3224 C 0.42182 0.05607 0.75441 0.0
C3225 C 0.41586 0.02295 0.7458 0.0
C3226 C 0.39763 0.00673 0.74144 0.0
C3227 C 0.39281 0.98894 0.74802 0.0
C3228 C 0.40704 0.98766 0.75922 0.0
C3229 C 0.42597 0.00406 0.76364 0.0
C3230 C 0.43029 0.02188 0.75667 0.0
H3231 H 0.97095 0.32945 0.76455 0.0
H3232 H 0.99148 0.3438 0.70646 0.0
H3233 H 0.0011 0.37753 0.71464 0.0
H3234 H 0.95145 0.36005 0.76784 0.0
H3235 H 0.95873 0.36693 0.79383 0.0
H3236 H 0.95351 0.34384 0.78351 0.0
H3237 H 0.98749 0.35206 0.79735 0.0
H3238 H 0.99283 0.37519 0.80766 0.0
H3239 H 0.00866 0.37383 0.79107 0.0
H3240 H 0.00834 0.40956 0.72884 0.0
H3241 H 0.01207 0.4378 0.74794 0.0
H3242 H 0.98743 0.40308 0.79714 0.0
C3243 C 0.97744 0.33968 0.75353 0.0
C3244 C 0.98045 0.33394 0.73484 0.0
C3245 C 0.98901 0.3478 0.72086 0.0
C3246 C 0.99456 0.36702 0.72538 0.0
C3247 C 0.99148 0.37221 0.74393 0.0
C3248 C 0.98309 0.35896 0.75779 0.0
C3249 C 0.98131 0.36835 0.7766 0.0
C3250 C 0.95998 0.35925 0.78068 0.0
C3251 C 0.99329 0.3673 0.79421 0.0
C3252 C 0.98994 0.3889 0.77108 0.0
C3253 C 0.99576 0.39079 0.7522 0.0
C3254 C 0.00397 0.40831 0.7437 0.0
C3255 C 0.00618 0.42431 0.75475 0.0
C3256 C 0.00024 0.42276 0.77414 0.0
C3257 C 0.99206 0.40476 0.78236 0.0
H3258 H 0.66662 0.62902 0.70365 0.0
H3259 H 0.68945 0.59272 0.7168 0.0
H3260 H 0.66082 0.57196 0.73432 0.0
H3261 H 0.64781 0.62787 0.7488 0.0
H3262 H 0.62623 0.62665 0.73874 0.0
H3263 H 0.6477 0.63792 0.72575 0.0
H3264 H 0.62852 0.61497 0.69449 0.0
H3265 H 0.6069 0.60377 0.7073 0.0
H3266 H 0.61518 0.58925 0.69622 0.0
H3267 H 0.63223 0.55779 0.75383 0.0
H3268 H 0.60337 0.54855 0.77113 0.0
H3269 H 0.59707 0.59203 0.74295 0.0
C3270 C 0.66543 0.6165 0.7099 0.0
C3271 C 0.6803 0.61251 0.70886 0.0
C3272 C 0.67822 0.59603 0.7173 0.0
C3273 C 0.66203 0.58418 0.72734 0.0
C3274 C 0.64791 0.58881 0.72854 0.0
C3275 C 0.64922 0.60434 0.71975 0.0
C3276 C 0.63215 0.60631 0.72363 0.0
C3277 C 0.63889 0.62584 0.7349 0.0
C3278 C 0.61996 0.6034 0.70425 0.0
C3279 C 0.62135 0.58976 0.73642 0.0
C3280 C 0.63076 0.57993 0.73909 0.0
C3281 C 0.62439 0.56499 0.7514 0.0
C3282 C 0.6078 0.55974 0.76106 0.0
C3283 C 0.59744 0.56916 0.75815 0.0
C3284 C 0.60447 0.58443 0.7456 0.0
H3285 H 0.71866 0.7144 0.67416 0.0
H3286 H 0.67853 0.68962 0.71915 0.0
H3287 H 0.66518 0.7098 0.7108 0.0
H3288 H 0.72759 0.76313 0.68101 0.0
H3289 H 0.72864 0.76632 0.65497 0.0
H3290 H 0.73589 0.75096 0.66553 0.0
H3291 H 0.71134 0.72266 0.64036 0.0
H3292 H 0.70398 0.7379 0.62978 0.0
H3293 H 0.68622 0.7154 0.63876 0.0
H3294 H 0.65472 0.73114 0.69582 0.0
H3295 H 0.64867 0.75249 0.67601 0.0
H3296 H 0.69566 0.76291 0.64098 0.0
C3297 C 0.70725 0.71338 0.68248 0.0
C3298 C 0.69968 0.70045 0.69736 0.0
C3299 C 0.68463 0.69947 0.70775 0.0
C3300 C 0.67694 0.71087 0.70311 0.0
C3301 C 0.68454 0.72323 0.68813 0.0
C3302 C 0.69944 0.72462 0.67806 0.0
C3303 C 0.70454 0.73839 0.66205 0.0
C3304 C 0.72541 0.75573 0.66614 0.0
C3305 C 0.70132 0.72796 0.64153 0.0
C3306 C 0.69 0.74435 0.66447 0.0
C3307 C 0.67862 0.73552 0.67962 0.0
C3308 C 0.66367 0.73826 0.68405 0.0
C3309 C 0.66027 0.75031 0.67266 0.0
C3310 C 0.67178 0.75947 0.65707 0.0
C3311 C 0.68688 0.75645 0.65307 0.0
H3312 H 0.28404 0.97822 0.67171 0.0
H3313 H 0.24826 -3e-05 0.65073 0.0
H3314 H 0.22401 0.96768 0.6351 0.0
H3315 H 0.27372 0.94547 0.62905 0.0
H3316 H 0.27294 0.92692 0.64316 0.0
H3317 H 0.28787 0.95187 0.65253 0.0
H3318 H 0.27058 0.94401 0.68474 0.0
H3319 H 0.25569 0.91902 0.67552 0.0
H3320 H 0.24459 0.93208 0.68328 0.0
H3321 H 0.20404 0.93362 0.62121 0.0
H3322 H 0.18813 0.89887 0.61174 0.0
H3323 H 0.23582 0.89835 0.64292 0.0
C3324 C 0.27111 0.97618 0.66382 0.0
C3325 C 0.26807 0.99165 0.66241 0.0
C3326 C 0.25089 0.98836 0.65207 0.0
C3327 C 0.23706 0.97008 0.64306 0.0
C3328 C 0.24053 0.95521 0.64462 0.0
C3329 C 0.25701 0.95795 0.65487 0.0
C3330 C 0.25684 0.93928 0.65474 0.0
C3331 C 0.27386 0.941 0.64424 0.0
C3332 C 0.25692 0.93324 0.67583 0.0
C3333 C 0.23768 0.92566 0.64282 0.0
C3334 C 0.22864 0.93524 0.63703 0.0
C3335 C 0.21086 0.92589 0.62582 0.0
C3336 C 0.20189 0.90611 0.62063 0.0
C3337 C 0.21056 0.89578 0.62684 0.0
C3338 C 0.22885 0.90582 0.63789 0.0
H3339 H 0.01566 0.25626 0.70281 0.0
H3340 H 0.0224 0.31063 0.72375 0.0
H3341 H 0.05435 0.32825 0.71066 0.0
H3342 H 0.06694 0.27155 0.71248 0.0
H3343 H 0.06638 0.2581 0.69049 0.0
H3344 H 0.04479 0.24971 0.70308 0.0
H3345 H 0.0264 0.2494 0.67062 0.0
H3346 H 0.04793 0.25792 0.65799 0.0
H3347 H 0.03583 0.27112 0.65799 0.0
H3348 H 0.08418 0.34003 0.69277 0.0
H3349 H 0.11016 0.34511 0.67218 0.0
H3350 H 0.08461 0.28313 0.66377 0.0
C3351 C 0.02399 0.27186 0.70498 0.0
C3352 C 0.0165 0.28203 0.71439 0.0
C3353 C 0.02781 0.30247 0.71668 0.0
C3354 C 0.046 0.31264 0.70929 0.0
C3355 C 0.05276 0.30218 0.69975 0.0
C3356 C 0.04219 0.28225 0.69772 0.0
C3357 C 0.05236 0.27451 0.68603 0.0
C3358 C 0.05795 0.26278 0.69879 0.0
C3359 C 0.03989 0.26254 0.66704 0.0
C3360 C 0.07008 0.29321 0.68145 0.0
C3361 C 0.07009 0.309 0.68959 0.0
C3362 C 0.0845 0.32779 0.6866 0.0
C3363 C 0.09929 0.33052 0.67495 0.0
C3364 C 0.09961 0.31455 0.66642 0.0
C3365 C 0.08481 0.29567 0.66993 0.0
H3366 H 0.30389 0.29022 0.67148 0.0
H3367 H 0.31013 0.31983 0.72851 0.0
H3368 H 0.28783 0.32938 0.71552 0.0
H3369 H 0.30258 0.32435 0.64204 0.0
H3370 H 0.28456 0.30679 0.62345 0.0
H3371 H 0.30034 0.30134 0.63732 0.0
H3372 H 0.27063 0.27056 0.64827 0.0
H3373 H 0.25475 0.27582 0.63429 0.0
H3374 H 0.25243 0.27248 0.66022 0.0
H3375 H 0.26674 0.33762 0.69605 0.0
H3376 H 0.24582 0.34182 0.67179 0.0
H3377 H 0.25219 0.3062 0.62751 0.0
C3378 C 0.30037 0.2985 0.6813 0.0
C3379 C 0.30879 0.30427 0.70103 0.0
C3380 C 0.30385 0.31517 0.71337 0.0
C3381 C 0.29122 0.32073 0.70612 0.0
C3382 C 0.28349 0.31514 0.68654 0.0
C3383 C 0.28764 0.30407 0.67434 0.0
C3384 C 0.27744 0.30018 0.65382 0.0
C3385 C 0.29211 0.30867 0.63824 0.0
C3386 C 0.26295 0.27847 0.64886 0.0
C3387 C 0.26713 0.31101 0.65636 0.0
C3388 C 0.27092 0.3196 0.67535 0.0
C3389 C 0.26356 0.33088 0.68117 0.0
C3390 C 0.25185 0.33331 0.66727 0.0
C3391 C 0.24753 0.32442 0.64781 0.0
C3392 C 0.25524 0.31309 0.64233 0.0
H3393 H 0.68194 0.97394 0.68308 0.0
H3394 H 0.70175 0.01033 0.63425 0.0
H3395 H 0.69449 0.98231 0.6121 0.0
H3396 H 0.70145 0.94538 0.67003 0.0
H3397 H 0.68143 0.92315 0.67714 0.0
H3398 H 0.68718 0.94585 0.68913 0.0
H3399 H 0.65216 0.93733 0.67973 0.0
H3400 H 0.6463 0.91459 0.6677 0.0
H3401 H 0.64248 0.93101 0.65422 0.0
H3402 H 0.68689 0.95105 0.59553 0.0
H3403 H 0.67885 0.91805 0.58552 0.0
H3404 H 0.66356 0.90154 0.64466 0.0
C3405 C 0.68459 0.97598 0.66769 0.0
C3406 C 0.69242 0.99438 0.66045 0.0
C3407 C 0.69576 0.99642 0.64021 0.0
C3408 C 0.69165 0.98057 0.62746 0.0
C3409 C 0.68412 0.96271 0.63509 0.0
C3410 C 0.68053 0.96026 0.65469 0.0
C3411 C 0.67287 0.93955 0.65917 0.0
C3412 C 0.68655 0.93843 0.67479 0.0
C3413 C 0.65222 0.93006 0.66558 0.0
C3414 C 0.67302 0.93088 0.63908 0.0
C3415 C 0.67952 0.9445 0.62542 0.0
C3416 C 0.68165 0.9402 0.60605 0.0
C3417 C 0.67714 0.92147 0.60053 0.0
C3418 C 0.67055 0.90728 0.61429 0.0
C3419 C 0.66829 0.91204 0.63376 0.0
H3420 H 0.00219 0.72782 0.69051 0.0
H3421 H 0.99162 0.67168 0.70353 0.0
H3422 H 0.02405 0.68114 0.69396 0.0
H3423 H 0.02375 0.73077 0.64793 0.0
H3424 H 0.04131 0.75631 0.65135 0.0
H3425 H 0.01881 0.74647 0.66239 0.0
H3426 H 0.0374 0.76134 0.69688 0.0
H3427 H 0.06003 0.77139 0.6859 0.0
H3428 H 0.05526 0.7561 0.70586 0.0
H3429 H 0.05603 0.69533 0.67902 0.0
H3430 H 0.08433 0.71288 0.65961 0.0
H3431 H 0.0736 0.75945 0.65652 0.0
C3432 C 0.00688 0.71769 0.69191 0.0
C3433 C 0.99438 0.69905 0.69786 0.0
C3434 C 0.00095 0.68608 0.69907 0.0
C3435 C 0.01939 0.69135 0.69372 0.0
C3436 C 0.03113 0.70966 0.68733 0.0
C3437 C 0.02516 0.72267 0.68655 0.0
C3438 C 0.03961 0.7407 0.67736 0.0
C3439 C 0.03031 0.74372 0.65865 0.0
C3440 C 0.04861 0.75843 0.6924 0.0
C3441 C 0.05427 0.7355 0.67241 0.0
C3442 C 0.04937 0.7177 0.67855 0.0
C3443 C 0.06018 0.70942 0.67442 0.0
C3444 C 0.07623 0.71947 0.66344 0.0
C3445 C 0.08106 0.73744 0.65654 0.0
C3446 C 0.07016 0.74566 0.66152 0.0
H3447 H 0.96858 0.61845 0.69579 0.0
H3448 H 0.91087 0.5957 0.7143 0.0
H3449 H 0.91163 0.56841 0.7276 0.0
H3450 H 0.96394 0.57138 0.68325 0.0
H3451 H 0.98847 0.58028 0.69293 0.0
H3452 H 0.98232 0.59648 0.6824 0.0
H3453 H 0.99627 0.61886 0.71484 0.0
H3454 H 0.00233 0.6027 0.72551 0.0
H3455 H 0.9872 0.6091 0.73786 0.0
H3456 H 0.91992 0.54575 0.74191 0.0
H3457 H 0.93513 0.5293 0.75652 0.0
H3458 H 0.98759 0.56665 0.72873 0.0
C3459 C 0.95589 0.60745 0.70215 0.0
C3460 C 0.93958 0.60909 0.70386 0.0
C3461 C 0.92346 0.59467 0.71275 0.0
C3462 C 0.92375 0.5791 0.7203 0.0
C3463 C 0.94024 0.57817 0.71882 0.0
C3464 C 0.956 0.59192 0.70991 0.0
C3465 C 0.97258 0.5885 0.71178 0.0
C3466 C 0.97708 0.58388 0.69137 0.0
C3467 C 0.99065 0.60582 0.72318 0.0
C3468 C 0.96386 0.57098 0.72359 0.0
C3469 C 0.94512 0.56512 0.72726 0.0
C3470 C 0.93445 0.54996 0.73881 0.0
C3471 C 0.94321 0.54062 0.74696 0.0
C3472 C 0.96251 0.54648 0.74359 0.0
C3473 C 0.97283 0.56177 0.73156 0.0
H3474 H 0.42444 0.36475 0.73987 0.0
H3475 H 0.36647 0.35193 0.72292 0.0
H3476 H 0.37629 0.38498 0.73544 0.0
H3477 H 0.43168 0.39121 0.78453 0.0
H3478 H 0.45695 0.40849 0.78259 0.0
H3479 H 0.44584 0.38453 0.77068 0.0
H3480 H 0.45672 0.39863 0.73705 0.0
H3481 H 0.46805 0.42268 0.74891 0.0
H3482 H 0.45029 0.41518 0.72809 0.0
H3483 H 0.39223 0.41909 0.75216 0.0
H3484 H 0.413 0.45104 0.77095 0.0
H3485 H 0.46008 0.44071 0.77618 0.0
C3486 C 0.41384 0.36892 0.7385 0.0
C3487 C 0.3947 0.35575 0.73038 0.0
C3488 C 0.38127 0.36181 0.72899 0.0
C3489 C 0.3867 0.38054 0.73608 0.0
C3490 C 0.40562 0.39304 0.74438 0.0
C3491 C 0.419 0.38748 0.74544 0.0
C3492 C 0.43817 0.40321 0.75572 0.0
C3493 C 0.44346 0.39645 0.77449 0.0
C3494 C 0.45425 0.41035 0.7416 0.0
C3495 C 0.43341 0.41836 0.76069 0.0
C3496 C 0.41465 0.41239 0.75395 0.0
C3497 C 0.407 0.42395 0.75737 0.0
C3498 C 0.41886 0.44205 0.76802 0.0
C3499 C 0.43805 0.44823 0.77521 0.0
C3500 C 0.44536 0.43624 0.77123 0.0
H3501 H 0.65456 0.03244 0.69811 0.0
H3502 H 0.67686 0.09361 0.69571 0.0
H3503 H 0.64684 0.08897 0.70732 0.0
H3504 H 0.60238 0.01588 0.68336 0.0
H3505 H 0.59358 0.99697 0.69993 0.0
H3506 H 0.6157 0.00436 0.68866 0.0
H3507 H 0.63374 0.01074 0.72332 0.0
H3508 H 0.61179 0.00364 0.73469 0.0
H3509 H 0.63315 0.02703 0.74158 0.0
H3510 H 0.61801 0.07947 0.72452 0.0
H3511 H 0.58968 0.06491 0.74324 0.0
H3512 H 0.58314 0.00879 0.73209 0.0
C3513 C 0.65284 0.04471 0.69945 0.0
C3514 C 0.6681 0.0634 0.69605 0.0
C3515 C 0.66544 0.07917 0.69831 0.0
C3516 C 0.6484 0.0767 0.70485 0.0
C3517 C 0.63397 0.05831 0.70884 0.0
C3518 C 0.63575 0.04248 0.70592 0.0
C3519 C 0.61841 0.02457 0.71266 0.0
C3520 C 0.60683 0.00956 0.6951 0.0
C3521 C 0.62465 0.016 0.72903 0.0
C3522 C 0.60715 0.0331 0.72056 0.0
C3523 C 0.61644 0.05256 0.71809 0.0
C3524 C 0.61013 0.06408 0.72589 0.0
C3525 C 0.59377 0.05552 0.73643 0.0
C3526 C 0.58349 0.03542 0.73884 0.0
C3527 C 0.59037 0.02412 0.73058 0.0
loop_
_geom_bond_atom_site_label_1
_geom_bond_atom_site_label_2
_geom_bond_distance
_geom_bond_site_symmetry_2
_ccdc_geom_bond_type
Zn0 O3 2.031 . S
Zn0 O5 2.049 . S
Zn0 O10 2.067 . S
Zn1 O2 1.962 1_455 S
Zn1 O4 1.986 . S
Zn1 O6 1.996 1_455 S
Zn1 O9 1.943 . S
O2 Zn1 1.962 1_655 S
O2 C7 1.254 . S
O3 Zn0 2.031 . S
O3 C7 1.269 . S
O4 Zn1 1.986 . S
O4 C11 1.262 . S
O5 Zn0 2.049 . S
O5 C13 1.260 . S
O6 Zn1 1.996 1_655 S
O6 C13 1.257 . S
C7 O2 1.254 . S
C7 O3 1.269 . S
C8 O9 1.279 . S
C8 O10 1.288 1_455 S
O9 Zn1 1.943 . S
O9 C8 1.279 . S
O10 Zn0 2.067 . S
O10 C8 1.288 1_655 S
C11 O4 1.262 . S
C11 O12 1.232 . S
O12 C11 1.232 . S
C13 O5 1.260 . S
C13 O6 1.257 . S
Zn14 O17 2.031 . S
Zn14 O19 2.049 . S
Zn14 O24 2.067 . S
Zn15 O16 1.962 . S
Zn15 O18 1.986 . S
Zn15 O20 1.996 . S
Zn15 O23 1.943 . S
O16 Zn15 1.962 . S
O16 C21 1.254 . S
O17 Zn14 2.031 . S
O17 C21 1.269 . S
O18 Zn15 1.986 . S
O18 C25 1.262 . S
O19 Zn14 2.049 . S
O19 C27 1.260 . S
O20 Zn15 1.996 . S
O20 C27 1.257 . S
C21 O16 1.254 . S
C21 O17 1.269 . S
C22 O23 1.249 . S
C22 O24 1.270 . S
O23 Zn15 1.943 . S
O23 C22 1.249 . S
O24 Zn14 2.067 . S
O24 C22 1.270 . S
C25 O18 1.262 . S
C25 O26 1.232 . S
O26 C25 1.232 . S
C27 O19 1.260 . S
C27 O20 1.257 . S
Zn28 O31 2.031 . S
Zn28 O33 2.049 . S
Zn28 O38 2.067 . S
Zn29 O30 1.962 1_545 S
Zn29 O32 2.016 . S
Zn29 O34 1.996 1_545 S
Zn29 O37 1.943 . S
O30 Zn29 1.962 1_565 S
O30 C35 1.254 . S
O31 Zn28 2.031 . S
O31 C35 1.269 . S
O32 Zn29 2.016 . S
O32 C39 1.286 . S
O33 Zn28 2.049 . S
O33 C41 1.260 1_554 S
O34 Zn29 1.996 1_565 S
O34 C41 1.257 1_554 S
C35 O30 1.254 . S
C35 O31 1.269 . S
C36 O37 1.249 . S
C36 O38 1.270 1_545 S
O37 Zn29 1.943 . S
O37 C36 1.249 . S
O38 Zn28 2.067 . S
O38 C36 1.270 1_565 S
C39 O32 1.286 . S
C39 O40 1.232 . S
O40 C39 1.232 . S
C41 O33 1.260 1_556 S
C41 O34 1.257 1_556 S
Zn42 O45 2.031 . S
Zn42 O47 2.049 . S
Zn42 O52 2.067 . S
Zn43 O44 1.962 1_655 S
Zn43 O46 1.986 . S
Zn43 O48 1.996 1_655 S
Zn43 O51 1.943 . S
O44 Zn43 1.962 1_455 S
O44 C49 1.254 . S
O45 Zn42 2.031 . S
O45 C49 1.269 . S
O46 Zn43 1.986 . S
O46 C53 1.262 . S
O47 Zn42 2.049 . S
O47 C55 1.260 . S
O48 Zn43 1.996 1_455 S
O48 C55 1.257 . S
C49 O44 1.254 . S
C49 O45 1.269 . S
C50 O51 1.249 . S
C50 O52 1.270 1_655 S
O51 Zn43 1.943 . S
O51 C50 1.249 . S
O52 Zn42 2.067 . S
O52 C50 1.270 1_455 S
C53 O46 1.262 . S
C53 O54 1.232 . S
O54 C53 1.232 . S
C55 O47 1.260 . S
C55 O48 1.257 . S
Zn56 O59 2.031 . S
Zn56 O61 2.049 1_554 S
Zn56 O66 2.067 . S
Zn57 O58 1.980 . S
Zn57 O60 1.946 1_554 S
Zn57 O62 1.966 1_554 S
Zn57 O65 1.983 . S
O58 Zn57 1.980 . S
O58 C63 1.254 . S
O59 Zn56 2.031 . S
O59 C63 1.269 . S
O60 Zn57 1.946 1_556 S
O60 C67 1.262 . S
O61 Zn56 2.049 1_556 S
O61 C69 1.260 . S
O62 Zn57 1.966 1_556 S
O62 C69 1.257 . S
C63 O58 1.254 . S
C63 O59 1.269 . S
C64 O65 1.249 . S
C64 O66 1.270 . S
O65 Zn57 1.983 . S
O65 C64 1.249 . S
O66 Zn56 2.067 . S
O66 C64 1.270 . S
C67 O60 1.262 . S
C67 O68 1.232 1_556 S
O68 C67 1.232 1_554 S
C69 O61 1.260 . S
C69 O62 1.257 . S
Zn70 O73 2.031 . S
Zn70 O75 2.049 . S
Zn70 O80 2.067 . S
Zn71 O72 1.962 1_565 S
Zn71 O74 1.986 . S
Zn71 O76 1.996 1_565 S
Zn71 O79 1.943 . S
O72 Zn71 1.962 1_545 S
O72 C77 1.254 . S
O73 Zn70 2.031 . S
O73 C77 1.269 . S
O74 Zn71 1.986 . S
O74 C81 1.262 . S
O75 Zn70 2.049 . S
O75 C83 1.260 . S
O76 Zn71 1.996 1_545 S
O76 C83 1.257 . S
C77 O72 1.254 . S
C77 O73 1.269 . S
C78 O79 1.249 . S
C78 O80 1.270 1_565 S
O79 Zn71 1.943 . S
O79 C78 1.249 . S
O80 Zn70 2.067 . S
O80 C78 1.270 1_545 S
C81 O74 1.262 . S
C81 O82 1.232 . S
O82 C81 1.232 . S
C83 O75 1.260 . S
C83 O76 1.257 . S
Zn84 O87 2.031 . S
Zn84 O89 2.049 . S
Zn84 O94 2.067 . S
Zn85 O86 1.962 . S
Zn85 O88 1.986 . S
Zn85 O90 1.996 . S
Zn85 O93 1.943 . S
O86 Zn85 1.962 . S
O86 C91 1.254 . S
O87 Zn84 2.031 . S
O87 C91 1.269 . S
O88 Zn85 1.986 . S
O88 C95 1.262 . S
O89 Zn84 2.049 . S
O89 C97 1.260 . S
O90 Zn85 1.996 . S
O90 C97 1.257 . S
C91 O86 1.254 . S
C91 O87 1.269 . S
C92 O93 1.249 . S
C92 O94 1.270 . S
O93 Zn85 1.943 . S
O93 C92 1.249 . S
O94 Zn84 2.067 . S
O94 C92 1.270 . S
C95 O88 1.262 . S
C95 O96 1.232 . S
O96 C95 1.232 . S
C97 O89 1.260 . S
C97 O90 1.257 . S
Zn98 O101 2.031 . S
Zn98 O103 2.049 . S
Zn98 O108 2.067 . S
Zn99 O100 1.962 . S
Zn99 O102 1.986 . S
Zn99 O104 1.996 . S
Zn99 O107 1.943 . S
O100 Zn99 1.962 . S
O100 C105 1.254 . S
O101 Zn98 2.031 . S
O101 C105 1.269 . S
O102 Zn99 1.986 . S
O102 C109 1.262 1_565 S
O103 Zn98 2.049 . S
O103 C111 1.260 . S
O104 Zn99 1.996 . S
O104 C111 1.257 . S
C105 O100 1.254 . S
C105 O101 1.269 . S
C106 O107 1.249 . S
C106 O108 1.270 . S
O107 Zn99 1.943 . S
O107 C106 1.249 . S
O108 Zn98 2.067 . S
O108 C106 1.270 . S
C109 O102 1.262 1_545 S
C109 O110 1.232 . S
O110 C109 1.232 . S
C111 O103 1.260 . S
C111 O104 1.257 . S
Zn112 O115 2.031 . S
Zn112 O117 2.049 . S
Zn112 O122 2.067 . S
Zn113 O114 1.962 . S
Zn113 O116 1.986 . S
Zn113 O118 1.996 . S
Zn113 O121 1.943 . S
O114 Zn113 1.962 . S
O114 C119 1.254 . S
O115 Zn112 2.031 . S
O115 C119 1.269 . S
O116 Zn113 1.986 . S
O116 C123 1.262 . S
O117 Zn112 2.049 . S
O117 C125 1.260 . S
O118 Zn113 1.996 . S
O118 C125 1.257 . S
C119 O114 1.254 . S
C119 O115 1.269 . S
C120 O121 1.249 . S
C120 O122 1.270 . S
O121 Zn113 1.943 . S
O121 C120 1.249 . S
O122 Zn112 2.067 . S
O122 C120 1.270 . S
C123 O116 1.262 . S
C123 O124 1.232 . S
O124 C123 1.232 . S
C125 O117 1.260 . S
C125 O118 1.257 . S
Zn126 O129 2.031 . S
Zn126 O131 2.049 . S
Zn126 O136 2.067 . S
Zn127 O128 1.962 . S
Zn127 O130 1.986 . S
Zn127 O132 1.996 . S
Zn127 O135 1.943 . S
O128 Zn127 1.962 . S
O128 C133 1.254 . S
O129 Zn126 2.031 . S
O129 C133 1.269 . S
O130 Zn127 1.986 . S
O130 C137 1.262 . S
O131 Zn126 2.049 . S
O131 C139 1.260 . S
O132 Zn127 1.996 . S
O132 C139 1.257 . S
C133 O128 1.254 . S
C133 O129 1.269 . S
C134 O135 1.249 . S
C134 O136 1.270 . S
O135 Zn127 1.943 . S
O135 C134 1.249 . S
O136 Zn126 2.067 . S
O136 C134 1.270 . S
C137 O130 1.262 . S
C137 O138 1.232 . S
O138 C137 1.232 . S
C139 O131 1.260 . S
C139 O132 1.257 . S
Zn140 O143 2.031 . S
Zn140 O145 2.049 . S
Zn140 O150 2.067 . S
Zn141 O142 1.962 . S
Zn141 O144 1.986 . S
Zn141 O146 1.996 . S
Zn141 O149 1.943 . S
O142 Zn141 1.962 . S
O142 C147 1.254 . S
O143 Zn140 2.031 . S
O143 C147 1.269 . S
O144 Zn141 1.986 . S
O144 C151 1.262 . S
O145 Zn140 2.049 . S
O145 C153 1.260 . S
O146 Zn141 1.996 . S
O146 C153 1.257 . S
C147 O142 1.254 . S
C147 O143 1.269 . S
C148 O149 1.249 . S
C148 O150 1.270 . S
O149 Zn141 1.943 . S
O149 C148 1.249 . S
O150 Zn140 2.067 . S
O150 C148 1.270 . S
C151 O144 1.262 . S
C151 O152 1.232 . S
O152 C151 1.232 . S
C153 O145 1.260 . S
C153 O146 1.257 . S
Zn154 O157 2.031 . S
Zn154 O159 2.049 . S
Zn154 O164 2.067 . S
Zn155 O156 1.962 . S
Zn155 O158 1.986 . S
Zn155 O160 1.996 . S
Zn155 O163 1.943 . S
O156 Zn155 1.962 . S
O156 C161 1.254 . S
O157 Zn154 2.031 . S
O157 C161 1.269 . S
O158 Zn155 1.986 . S
O158 C165 1.262 . S
O159 Zn154 2.049 . S
O159 C167 1.260 . S
O160 Zn155 1.996 . S
O160 C167 1.257 . S
C161 O156 1.254 . S
C161 O157 1.269 . S
C162 O163 1.249 . S
C162 O164 1.270 . S
O163 Zn155 1.943 . S
O163 C162 1.249 . S
O164 Zn154 2.067 . S
O164 C162 1.270 . S
C165 O158 1.262 . S
C165 O166 1.232 . S
O166 C165 1.232 . S
C167 O159 1.260 . S
C167 O160 1.257 . S
Zn168 O171 2.031 . S
Zn168 O173 2.049 . S
Zn168 O178 2.067 . S
Zn169 O170 1.962 . S
Zn169 O172 1.986 . S
Zn169 O174 1.996 . S
Zn169 O177 1.943 . S
O170 Zn169 1.962 . S
O170 C175 1.254 . S
O171 Zn168 2.031 . S
O171 C175 1.269 . S
O172 Zn169 1.986 . S
O172 C179 1.262 . S
O173 Zn168 2.049 . S
O173 C181 1.260 . S
O174 Zn169 1.996 . S
O174 C181 1.257 . S
C175 O170 1.254 . S
C175 O171 1.269 . S
C176 O177 1.249 . S
C176 O178 1.270 . S
O177 Zn169 1.943 . S
O177 C176 1.249 . S
O178 Zn168 2.067 . S
O178 C176 1.270 . S
C179 O172 1.262 . S
C179 O180 1.232 . S
O180 C179 1.232 . S
C181 O173 1.260 . S
C181 O174 1.257 . S
Zn182 O185 2.031 . S
Zn182 O187 2.049 . S
Zn182 O192 2.067 . S
Zn183 O184 1.962 . S
Zn183 O186 1.986 . S
Zn183 O188 1.996 . S
Zn183 O191 1.943 . S
O184 Zn183 1.962 . S
O184 C189 1.254 . S
O185 Zn182 2.031 . S
O185 C189 1.269 . S
O186 Zn183 1.986 . S
O186 C193 1.262 . S
O187 Zn182 2.049 . S
O187 C195 1.260 . S
O188 Zn183 1.996 . S
O188 C195 1.257 . S
C189 O184 1.254 . S
C189 O185 1.269 . S
C190 O191 1.249 . S
C190 O192 1.270 . S
O191 Zn183 1.943 . S
O191 C190 1.249 . S
O192 Zn182 2.067 . S
O192 C190 1.270 . S
C193 O186 1.262 . S
C193 O194 1.232 . S
O194 C193 1.232 . S
C195 O187 1.260 . S
C195 O188 1.257 . S
Zn196 O199 2.031 . S
Zn196 O201 2.049 . S
Zn196 O206 2.067 . S
Zn197 O198 1.962 . S
Zn197 O200 1.986 . S
Zn197 O202 1.996 . S
Zn197 O205 1.943 . S
O198 Zn197 1.962 . S
O198 C203 1.254 . S
O199 Zn196 2.031 . S
O199 C203 1.269 . S
O200 Zn197 1.986 . S
O200 C207 1.262 . S
O201 Zn196 2.049 . S
O201 C209 1.260 . S
O202 Zn197 1.996 . S
O202 C209 1.257 . S
C203 O198 1.254 . S
C203 O199 1.269 . S
C204 O205 1.249 . S
C204 O206 1.270 . S
O205 Zn197 1.943 . S
O205 C204 1.249 . S
O206 Zn196 2.067 . S
O206 C204 1.270 . S
C207 O200 1.262 . S
C207 O208 1.232 . S
O208 C207 1.232 . S
C209 O201 1.260 . S
C209 O202 1.257 . S
Zn210 O213 2.031 . S
Zn210 O215 2.049 . S
Zn210 O220 2.067 . S
Zn211 O212 1.962 . S
Zn211 O214 1.986 . S
Zn211 O216 1.996 . S
Zn211 O219 1.943 . S
O212 Zn211 1.962 . S
O212 C217 1.254 . S
O213 Zn210 2.031 . S
O213 C217 1.269 . S
O214 Zn211 1.986 . S
O214 C221 1.262 . S
O215 Zn210 2.049 . S
O215 C223 1.260 . S
O216 Zn211 1.996 . S
O216 C223 1.257 . S
C217 O212 1.254 . S
C217 O213 1.269 . S
C218 O219 1.249 . S
C218 O220 1.270 . S
O219 Zn211 1.943 . S
O219 C218 1.249 . S
O220 Zn210 2.067 . S
O220 C218 1.270 . S
C221 O214 1.262 . S
C221 O222 1.232 . S
O222 C221 1.232 . S
C223 O215 1.260 . S
C223 O216 1.257 . S
Zn224 O227 2.031 . S
Zn224 O229 2.049 . S
Zn224 O234 2.067 . S
Zn225 O226 1.962 . S
Zn225 O228 1.986 . S
Zn225 O230 1.996 . S
Zn225 O233 1.943 . S
O226 Zn225 1.962 . S
O226 C231 1.254 . S
O227 Zn224 2.031 . S
O227 C231 1.269 . S
O228 Zn225 1.986 . S
O228 C235 1.262 . S
O229 Zn224 2.049 . S
O229 C237 1.260 . S
O230 Zn225 1.996 . S
O230 C237 1.257 . S
C231 O226 1.254 . S
C231 O227 1.269 . S
C232 O233 1.249 . S
C232 O234 1.270 . S
O233 Zn225 1.943 . S
O233 C232 1.249 . S
O234 Zn224 2.067 . S
O234 C232 1.270 . S
C235 O228 1.262 . S
C235 O236 1.232 . S
O236 C235 1.232 . S
C237 O229 1.260 . S
C237 O230 1.257 . S
Zn238 O241 2.031 . S
Zn238 O243 2.049 . S
Zn238 O248 2.067 . S
Zn239 O240 1.962 . S
Zn239 O242 1.986 . S
Zn239 O244 1.996 . S
Zn239 O247 1.943 . S
O240 Zn239 1.962 . S
O240 C245 1.254 . S
O241 Zn238 2.031 . S
O241 C245 1.269 . S
O242 Zn239 1.986 . S
O242 C249 1.262 . S
O243 Zn238 2.049 . S
O243 C251 1.260 . S
O244 Zn239 1.996 . S
O244 C251 1.257 . S
C245 O240 1.254 . S
C245 O241 1.269 . S
C246 O247 1.249 . S
C246 O248 1.270 . S
O247 Zn239 1.943 . S
O247 C246 1.249 . S
O248 Zn238 2.067 . S
O248 C246 1.270 . S
C249 O242 1.262 . S
C249 O250 1.232 . S
O250 C249 1.232 . S
C251 O243 1.260 . S
C251 O244 1.257 . S
H252 O278 0.856 . S
H253 O281 0.854 . S
H254 C289 0.930 . S
H255 C290 0.930 . S
H256 C292 0.930 . S
H257 C293 0.930 . S
H258 C295 0.931 . S
H259 C296 0.930 . S
H260 C298 0.930 . S
H261 C299 0.929 . S
H262 C301 0.930 . S
H263 C302 0.931 . S
H264 C304 0.930 . S
H265 C305 0.929 . S
H266 C307 0.931 . S
H267 C308 0.930 . S
H268 C310 0.930 . S
H269 C311 0.932 . S
H270 C313 0.930 . S
H271 C314 0.929 . S
H272 C316 0.931 . S
H273 C317 0.930 . S
H274 C319 0.929 . S
H275 C320 0.931 . S
H276 C322 0.930 . S
H277 C323 0.929 . S
O278 H252 0.856 . S
O278 C324 1.300 . S
O279 C324 1.209 . S
O280 C325 1.199 . S
O281 H253 0.854 . S
O281 C325 1.297 . S
C282 C283 1.404 . S
C282 C287 1.397 . S
C282 C288 1.492 . S
C283 C282 1.404 . S
C283 C284 1.396 . S
C283 C294 1.492 . S
C284 C283 1.396 . S
C284 C285 1.397 . S
C284 C300 1.509 . S
C285 C284 1.397 . S
C285 C286 1.412 . S
C285 C306 1.485 . S
C286 C285 1.412 . S
C286 C287 1.388 . S
C286 C312 1.490 . S
C287 C282 1.397 . S
C287 C286 1.388 . S
C287 C318 1.519 . S
C288 C282 1.492 . S
C288 C289 1.363 . S
C288 C293 1.390 . S
C289 H254 0.930 . S
C289 C288 1.363 . S
C289 C290 1.372 . S
C290 H255 0.930 . S
C290 C289 1.372 . S
C290 C291 1.383 . S
C291 C290 1.383 . S
C291 C292 1.395 . S
C292 H256 0.930 . S
C292 C291 1.395 . S
C292 C293 1.362 . S
C293 H257 0.930 . S
C293 C288 1.390 . S
C293 C292 1.362 . S
C294 C283 1.492 . S
C294 C295 1.377 . S
C294 C299 1.397 . S
C295 H258 0.931 . S
C295 C294 1.377 . S
C295 C296 1.376 . S
C296 H259 0.930 . S
C296 C295 1.376 . S
C296 C297 1.376 . S
C297 C296 1.376 . S
C297 C298 1.378 . S
C297 C324 1.486 . S
C298 H260 0.930 . S
C298 C297 1.378 . S
C298 C299 1.376 . S
C299 H261 0.929 . S
C299 C294 1.397 . S
C299 C298 1.376 . S
C300 C284 1.509 . S
C300 C301 1.391 . S
C300 C305 1.386 . S
C301 H262 0.930 . S
C301 C300 1.391 . S
C301 C302 1.375 . S
C302 H263 0.931 . S
C302 C301 1.375 . S
C302 C303 1.375 . S
C303 C302 1.375 . S
C303 C304 1.361 . S
C304 H264 0.930 . S
C304 C303 1.361 . S
C304 C305 1.399 . S
C305 H265 0.929 . S
C305 C300 1.386 . S
C305 C304 1.399 . S
C306 C285 1.485 . S
C306 C307 1.394 . S
C306 C311 1.360 . S
C307 H266 0.931 . S
C307 C306 1.394 . S
C307 C308 1.372 . S
C308 H267 0.930 . S
C308 C307 1.372 . S
C308 C309 1.397 . S
C309 C308 1.397 . S
C309 C310 1.390 . S
C309 C325 1.476 . S
C310 H268 0.930 . S
C310 C309 1.390 . S
C310 C311 1.366 . S
C311 H269 0.932 . S
C311 C306 1.360 . S
C311 C310 1.366 . S
C312 C286 1.490 . S
C312 C313 1.380 . S
C312 C317 1.386 . S
C313 H270 0.930 . S
C313 C312 1.380 . S
C313 C314 1.381 . S
C314 H271 0.929 . S
C314 C313 1.381 . S
C314 C315 1.371 . S
C315 C314 1.371 . S
C315 C316 1.380 . S
C316 H272 0.931 . S
C316 C315 1.380 . S
C316 C317 1.387 . S
C317 H273 0.930 . S
C317 C312 1.386 . S
C317 C316 1.387 . S
C318 C287 1.519 . S
C318 C319 1.377 . S
C318 C323 1.361 . S
C319 H274 0.929 . S
C319 C318 1.377 . S
C319 C320 1.386 . S
C320 H275 0.931 . S
C320 C319 1.386 . S
C320 C321 1.363 . S
C321 C320 1.363 . S
C321 C322 1.385 . S
C322 H276 0.930 . S
C322 C321 1.385 . S
C322 C323 1.396 . S
C323 H277 0.929 . S
C323 C318 1.361 . S
C323 C322 1.396 . S
C324 O278 1.300 . S
C324 O279 1.209 . S
C324 C297 1.486 . S
C325 O280 1.199 . S
C325 O281 1.297 . S
C325 C309 1.476 . S
H326 O352 0.856 . S
H327 O355 0.854 . S
H328 C363 0.930 . S
H329 C364 0.930 . S
H330 C366 0.930 . S
H331 C367 0.930 . S
H332 C369 0.931 . S
H333 C370 0.930 . S
H334 C372 0.930 . S
H335 C373 0.929 . S
H336 C375 0.930 . S
H337 C376 0.931 . S
H338 C378 0.930 . S
H339 C379 0.929 . S
H340 C381 0.931 . S
H341 C382 0.930 . S
H342 C384 0.930 . S
H343 C385 0.932 . S
H344 C387 0.930 . S
H345 C388 0.929 . S
H346 C390 0.931 . S
H347 C391 0.930 . S
H348 C393 0.929 . S
H349 C394 0.931 . S
H350 C396 0.930 . S
H351 C397 0.929 . S
O352 H326 0.856 . S
O352 C398 1.300 . S
O353 C398 1.209 . S
O354 C399 1.199 . S
O355 H327 0.854 . S
O355 C399 1.297 . S
C356 C357 1.404 . S
C356 C361 1.397 . S
C356 C362 1.492 . S
C357 C356 1.404 . S
C357 C358 1.396 . S
C357 C368 1.492 . S
C358 C357 1.396 . S
C358 C359 1.397 . S
C358 C374 1.509 . S
C359 C358 1.397 . S
C359 C360 1.412 . S
C359 C380 1.485 . S
C360 C359 1.412 . S
C360 C361 1.388 . S
C360 C386 1.490 . S
C361 C356 1.397 . S
C361 C360 1.388 . S
C361 C392 1.519 . S
C362 C356 1.492 . S
C362 C363 1.363 . S
C362 C367 1.390 . S
C363 H328 0.930 . S
C363 C362 1.363 . S
C363 C364 1.372 . S
C364 H329 0.930 . S
C364 C363 1.372 . S
C364 C365 1.383 . S
C365 C364 1.383 . S
C365 C366 1.395 . S
C366 H330 0.930 . S
C366 C365 1.395 . S
C366 C367 1.362 . S
C367 H331 0.930 . S
C367 C362 1.390 . S
C367 C366 1.362 . S
C368 C357 1.492 . S
C368 C369 1.377 . S
C368 C373 1.397 . S
C369 H332 0.931 . S
C369 C368 1.377 . S
C369 C370 1.376 . S
C370 H333 0.930 . S
C370 C369 1.376 . S
C370 C371 1.376 . S
C371 C370 1.376 . S
C371 C372 1.378 . S
C371 C398 1.486 . S
C372 H334 0.930 . S
C372 C371 1.378 . S
C372 C373 1.376 . S
C373 H335 0.929 . S
C373 C368 1.397 . S
C373 C372 1.376 . S
C374 C358 1.509 . S
C374 C375 1.391 . S
C374 C379 1.386 . S
C375 H336 0.930 . S
C375 C374 1.391 . S
C375 C376 1.375 . S
C376 H337 0.931 . S
C376 C375 1.375 . S
C376 C377 1.375 . S
C377 C376 1.375 . S
C377 C378 1.361 . S
C378 H338 0.930 . S
C378 C377 1.361 . S
C378 C379 1.399 . S
C379 H339 0.929 . S
C379 C374 1.386 . S
C379 C378 1.399 . S
C380 C359 1.485 . S
C380 C381 1.394 . S
C380 C385 1.360 . S
C381 H340 0.931 . S
C381 C380 1.394 . S
C381 C382 1.372 . S
C382 H341 0.930 . S
C382 C381 1.372 . S
C382 C383 1.397 . S
C383 C382 1.397 . S
C383 C384 1.390 . S
C383 C399 1.476 . S
C384 H342 0.930 . S
C384 C383 1.390 . S
C384 C385 1.366 . S
C385 H343 0.932 . S
C385 C380 1.360 . S
C385 C384 1.366 . S
C386 C360 1.490 . S
C386 C387 1.380 . S
C386 C391 1.386 . S
C387 H344 0.930 . S
C387 C386 1.380 . S
C387 C388 1.381 . S
C388 H345 0.929 . S
C388 C387 1.381 . S
C388 C389 1.371 . S
C389 C388 1.371 . S
C389 C390 1.380 . S
C390 H346 0.931 . S
C390 C389 1.380 . S
C390 C391 1.387 . S
C391 H347 0.930 . S
C391 C386 1.386 . S
C391 C390 1.387 . S
C392 C361 1.519 . S
C392 C393 1.377 . S
C392 C397 1.361 . S
C393 H348 0.929 . S
C393 C392 1.377 . S
C393 C394 1.386 . S
C394 H349 0.931 . S
C394 C393 1.386 . S
C394 C395 1.363 . S
C395 C394 1.363 . S
C395 C396 1.385 . S
C396 H350 0.930 . S
C396 C395 1.385 . S
C396 C397 1.396 . S
C397 H351 0.929 . S
C397 C392 1.361 . S
C397 C396 1.396 . S
C398 O352 1.300 . S
C398 O353 1.209 . S
C398 C371 1.486 . S
C399 O354 1.199 . S
C399 O355 1.297 . S
C399 C383 1.476 . S
H400 O426 0.856 . S
H401 O429 0.854 . S
H402 C437 0.930 . S
H403 C438 0.930 . S
H404 C440 0.930 . S
H405 C441 0.930 . S
H406 C443 0.931 . S
H407 C444 0.930 . S
H408 C446 0.930 . S
H409 C447 0.929 . S
H410 C449 0.930 . S
H411 C450 0.931 . S
H412 C452 0.930 . S
H413 C453 0.929 . S
H414 C455 0.931 . S
H415 C456 0.930 . S
H416 C458 0.930 . S
H417 C459 0.932 . S
H418 C461 0.930 . S
H419 C462 0.929 . S
H420 C464 0.931 . S
H421 C465 0.930 . S
H422 C467 0.929 . S
H423 C468 0.931 . S
H424 C470 0.930 . S
H425 C471 0.929 . S
O426 H400 0.856 . S
O426 C472 1.300 . S
O427 C472 1.209 . S
O428 C473 1.199 . S
O429 H401 0.854 . S
O429 C473 1.297 . S
C430 C431 1.404 . S
C430 C435 1.397 . S
C430 C436 1.492 . S
C431 C430 1.404 . S
C431 C432 1.396 . S
C431 C442 1.492 . S
C432 C431 1.396 . S
C432 C433 1.397 . S
C432 C448 1.509 . S
C433 C432 1.397 . S
C433 C434 1.412 . S
C433 C454 1.485 . S
C434 C433 1.412 . S
C434 C435 1.388 . S
C434 C460 1.490 . S
C435 C430 1.397 . S
C435 C434 1.388 . S
C435 C466 1.519 . S
C436 C430 1.492 . S
C436 C437 1.363 . S
C436 C441 1.390 . S
C437 H402 0.930 . S
C437 C436 1.363 . S
C437 C438 1.372 . S
C438 H403 0.930 . S
C438 C437 1.372 . S
C438 C439 1.383 . S
C439 C438 1.383 . S
C439 C440 1.395 . S
C440 H404 0.930 . S
C440 C439 1.395 . S
C440 C441 1.362 . S
C441 H405 0.930 . S
C441 C436 1.390 . S
C441 C440 1.362 . S
C442 C431 1.492 . S
C442 C443 1.377 . S
C442 C447 1.397 . S
C443 H406 0.931 . S
C443 C442 1.377 . S
C443 C444 1.376 . S
C444 H407 0.930 . S
C444 C443 1.376 . S
C444 C445 1.376 . S
C445 C444 1.376 . S
C445 C446 1.378 . S
C445 C472 1.486 . S
C446 H408 0.930 . S
C446 C445 1.378 . S
C446 C447 1.376 . S
C447 H409 0.929 . S
C447 C442 1.397 . S
C447 C446 1.376 . S
C448 C432 1.509 . S
C448 C449 1.391 . S
C448 C453 1.386 . S
C449 H410 0.930 . S
C449 C448 1.391 . S
C449 C450 1.375 . S
C450 H411 0.931 . S
C450 C449 1.375 . S
C450 C451 1.375 . S
C451 C450 1.375 . S
C451 C452 1.361 . S
C452 H412 0.930 . S
C452 C451 1.361 . S
C452 C453 1.399 . S
C453 H413 0.929 . S
C453 C448 1.386 . S
C453 C452 1.399 . S
C454 C433 1.485 . S
C454 C455 1.394 . S
C454 C459 1.360 . S
C455 H414 0.931 . S
C455 C454 1.394 . S
C455 C456 1.372 . S
C456 H415 0.930 . S
C456 C455 1.372 . S
C456 C457 1.397 . S
C457 C456 1.397 . S
C457 C458 1.390 . S
C457 C473 1.476 . S
C458 H416 0.930 . S
C458 C457 1.390 . S
C458 C459 1.366 . S
C459 H417 0.932 . S
C459 C454 1.360 . S
C459 C458 1.366 . S
C460 C434 1.490 . S
C460 C461 1.380 . S
C460 C465 1.386 . S
C461 H418 0.930 . S
C461 C460 1.380 . S
C461 C462 1.381 . S
C462 H419 0.929 . S
C462 C461 1.381 . S
C462 C463 1.371 . S
C463 C462 1.371 . S
C463 C464 1.380 . S
C464 H420 0.931 . S
C464 C463 1.380 . S
C464 C465 1.387 . S
C465 H421 0.930 . S
C465 C460 1.386 . S
C465 C464 1.387 . S
C466 C435 1.519 . S
C466 C467 1.377 . S
C466 C471 1.361 . S
C467 H422 0.929 . S
C467 C466 1.377 . S
C467 C468 1.386 . S
C468 H423 0.931 . S
C468 C467 1.386 . S
C468 C469 1.363 . S
C469 C468 1.363 . S
C469 C470 1.385 . S
C470 H424 0.930 . S
C470 C469 1.385 . S
C470 C471 1.396 . S
C471 H425 0.929 . S
C471 C466 1.361 . S
C471 C470 1.396 . S
C472 O426 1.300 . S
C472 O427 1.209 . S
C472 C445 1.486 . S
C473 O428 1.199 . S
C473 O429 1.297 . S
C473 C457 1.476 . S
H474 O500 0.856 . S
H475 O503 0.854 . S
H476 C511 0.930 . S
H477 C512 0.930 . S
H478 C514 0.930 . S
H479 C515 0.930 . S
H480 C517 0.931 . S
H481 C518 0.930 . S
H482 C520 0.930 . S
H483 C521 0.929 . S
H484 C523 0.930 . S
H485 C524 0.931 . S
H486 C526 0.930 . S
H487 C527 0.929 . S
H488 C529 0.931 . S
H489 C530 0.930 . S
H490 C532 0.930 . S
H491 C533 0.932 . S
H492 C535 0.930 . S
H493 C536 0.929 . S
H494 C538 0.931 . S
H495 C539 0.930 . S
H496 C541 0.929 . S
H497 C542 0.931 . S
H498 C544 0.930 . S
H499 C545 0.929 . S
O500 H474 0.856 . S
O500 C546 1.300 1_554 S
O501 C546 1.209 1_554 S
O502 C547 1.199 . S
O503 H475 0.854 . S
O503 C547 1.297 . S
C504 C505 1.404 . S
C504 C509 1.397 . S
C504 C510 1.492 . S
C505 C504 1.404 . S
C505 C506 1.396 . S
C505 C516 1.492 . S
C506 C505 1.396 . S
C506 C507 1.397 . S
C506 C522 1.509 . S
C507 C506 1.397 . S
C507 C508 1.412 . S
C507 C528 1.485 . S
C508 C507 1.412 . S
C508 C509 1.388 . S
C508 C534 1.490 . S
C509 C504 1.397 . S
C509 C508 1.388 . S
C509 C540 1.519 . S
C510 C504 1.492 . S
C510 C511 1.363 . S
C510 C515 1.390 . S
C511 H476 0.930 . S
C511 C510 1.363 . S
C511 C512 1.372 . S
C512 H477 0.930 . S
C512 C511 1.372 . S
C512 C513 1.383 . S
C513 C512 1.383 . S
C513 C514 1.395 . S
C514 H478 0.930 . S
C514 C513 1.395 . S
C514 C515 1.362 . S
C515 H479 0.930 . S
C515 C510 1.390 . S
C515 C514 1.362 . S
C516 C505 1.492 . S
C516 C517 1.377 . S
C516 C521 1.397 . S
C517 H480 0.931 . S
C517 C516 1.377 . S
C517 C518 1.376 . S
C518 H481 0.930 . S
C518 C517 1.376 . S
C518 C519 1.376 . S
C519 C518 1.376 . S
C519 C520 1.378 . S
C519 C546 1.486 . S
C520 H482 0.930 . S
C520 C519 1.378 . S
C520 C521 1.376 . S
C521 H483 0.929 . S
C521 C516 1.397 . S
C521 C520 1.376 . S
C522 C506 1.509 . S
C522 C523 1.391 . S
C522 C527 1.386 . S
C523 H484 0.930 . S
C523 C522 1.391 . S
C523 C524 1.375 . S
C524 H485 0.931 . S
C524 C523 1.375 . S
C524 C525 1.375 . S
C525 C524 1.375 . S
C525 C526 1.361 . S
C526 H486 0.930 . S
C526 C525 1.361 . S
C526 C527 1.399 . S
C527 H487 0.929 . S
C527 C522 1.386 . S
C527 C526 1.399 . S
C528 C507 1.485 . S
C528 C529 1.394 . S
C528 C533 1.360 . S
C529 H488 0.931 . S
C529 C528 1.394 . S
C529 C530 1.372 . S
C530 H489 0.930 . S
C530 C529 1.372 . S
C530 C531 1.397 . S
C531 C530 1.397 . S
C531 C532 1.390 . S
C531 C547 1.476 . S
C532 H490 0.930 . S
C532 C531 1.390 . S
C532 C533 1.366 . S
C533 H491 0.932 . S
C533 C528 1.360 . S
C533 C532 1.366 . S
C534 C508 1.490 . S
C534 C535 1.380 . S
C534 C539 1.386 . S
C535 H492 0.930 . S
C535 C534 1.380 . S
C535 C536 1.381 . S
C536 H493 0.929 . S
C536 C535 1.381 . S
C536 C537 1.371 . S
C537 C536 1.371 . S
C537 C538 1.380 . S
C538 H494 0.931 . S
C538 C537 1.380 . S
C538 C539 1.387 . S
C539 H495 0.930 . S
C539 C534 1.386 . S
C539 C538 1.387 . S
C540 C509 1.519 . S
C540 C541 1.377 . S
C540 C545 1.361 . S
C541 H496 0.929 . S
C541 C540 1.377 . S
C541 C542 1.386 . S
C542 H497 0.931 . S
C542 C541 1.386 . S
C542 C543 1.363 . S
C543 C542 1.363 . S
C543 C544 1.385 . S
C544 H498 0.930 . S
C544 C543 1.385 . S
C544 C545 1.396 . S
C545 H499 0.929 . S
C545 C540 1.361 . S
C545 C544 1.396 . S
C546 O500 1.300 1_556 S
C546 O501 1.209 1_556 S
C546 C519 1.486 . S
C547 O502 1.199 . S
C547 O503 1.297 . S
C547 C531 1.476 . S
H548 O574 0.856 . S
H549 O577 0.854 . S
H550 C585 0.930 . S
H551 C586 0.930 . S
H552 C588 0.930 . S
H553 C589 0.930 . S
H554 C591 0.931 . S
H555 C592 0.930 . S
H556 C594 0.930 . S
H557 C595 0.929 . S
H558 C597 0.930 . S
H559 C598 0.931 . S
H560 C600 0.930 . S
H561 C601 0.929 . S
H562 C603 0.931 . S
H563 C604 0.930 . S
H564 C606 0.930 . S
H565 C607 0.932 . S
H566 C609 0.930 . S
H567 C610 0.929 . S
H568 C612 0.931 . S
H569 C613 0.930 . S
H570 C615 0.929 . S
H571 C616 0.931 . S
H572 C618 0.930 . S
H573 C619 0.929 . S
O574 H548 0.856 . S
O574 C620 1.300 . S
O575 C620 1.209 . S
O576 C621 1.199 . S
O577 H549 0.854 . S
O577 C621 1.297 . S
C578 C579 1.404 . S
C578 C583 1.397 . S
C578 C584 1.492 . S
C579 C578 1.404 . S
C579 C580 1.396 . S
C579 C590 1.492 . S
C580 C579 1.396 . S
C580 C581 1.397 . S
C580 C596 1.509 . S
C581 C580 1.397 . S
C581 C582 1.412 . S
C581 C602 1.485 . S
C582 C581 1.412 . S
C582 C583 1.388 . S
C582 C608 1.490 . S
C583 C578 1.397 . S
C583 C582 1.388 . S
C583 C614 1.519 . S
C584 C578 1.492 . S
C584 C585 1.363 . S
C584 C589 1.390 . S
C585 H550 0.930 . S
C585 C584 1.363 . S
C585 C586 1.372 . S
C586 H551 0.930 . S
C586 C585 1.372 . S
C586 C587 1.383 . S
C587 C586 1.383 . S
C587 C588 1.395 . S
C588 H552 0.930 . S
C588 C587 1.395 . S
C588 C589 1.362 . S
C589 H553 0.930 . S
C589 C584 1.390 . S
C589 C588 1.362 . S
C590 C579 1.492 . S
C590 C591 1.377 . S
C590 C595 1.397 . S
C591 H554 0.931 . S
C591 C590 1.377 . S
C591 C592 1.376 . S
C592 H555 0.930 . S
C592 C591 1.376 . S
C592 C593 1.376 . S
C593 C592 1.376 . S
C593 C594 1.378 . S
C593 C620 1.486 1_556 S
C594 H556 0.930 . S
C594 C593 1.378 . S
C594 C595 1.376 . S
C595 H557 0.929 . S
C595 C590 1.397 . S
C595 C594 1.376 . S
C596 C580 1.509 . S
C596 C597 1.391 . S
C596 C601 1.386 . S
C597 H558 0.930 . S
C597 C596 1.391 . S
C597 C598 1.375 . S
C598 H559 0.931 . S
C598 C597 1.375 . S
C598 C599 1.375 . S
C599 C598 1.375 . S
C599 C600 1.361 . S
C600 H560 0.930 . S
C600 C599 1.361 . S
C600 C601 1.399 . S
C601 H561 0.929 . S
C601 C596 1.386 . S
C601 C600 1.399 . S
C602 C581 1.485 . S
C602 C603 1.394 . S
C602 C607 1.360 . S
C603 H562 0.931 . S
C603 C602 1.394 . S
C603 C604 1.372 . S
C604 H563 0.930 . S
C604 C603 1.372 . S
C604 C605 1.397 . S
C605 C604 1.397 . S
C605 C606 1.390 . S
C605 C621 1.476 . S
C606 H564 0.930 . S
C606 C605 1.390 . S
C606 C607 1.366 . S
C607 H565 0.932 . S
C607 C602 1.360 . S
C607 C606 1.366 . S
C608 C582 1.490 . S
C608 C609 1.380 . S
C608 C613 1.386 . S
C609 H566 0.930 . S
C609 C608 1.380 . S
C609 C610 1.381 . S
C610 H567 0.929 . S
C610 C609 1.381 . S
C610 C611 1.371 . S
C611 C610 1.371 . S
C611 C612 1.380 . S
C612 H568 0.931 . S
C612 C611 1.380 . S
C612 C613 1.387 . S
C613 H569 0.930 . S
C613 C608 1.386 . S
C613 C612 1.387 . S
C614 C583 1.519 . S
C614 C615 1.377 . S
C614 C619 1.361 . S
C615 H570 0.929 . S
C615 C614 1.377 . S
C615 C616 1.386 . S
C616 H571 0.931 . S
C616 C615 1.386 . S
C616 C617 1.363 . S
C617 C616 1.363 . S
C617 C618 1.385 . S
C618 H572 0.930 . S
C618 C617 1.385 . S
C618 C619 1.396 . S
C619 H573 0.929 . S
C619 C614 1.361 . S
C619 C618 1.396 . S
C620 O574 1.300 . S
C620 O575 1.209 . S
C620 C593 1.486 1_554 S
C621 O576 1.199 . S
C621 O577 1.297 . S
C621 C605 1.476 . S
H622 O648 0.856 . S
H623 O651 0.854 . S
H624 C659 0.930 . S
H625 C660 0.930 . S
H626 C662 0.930 . S
H627 C663 0.930 . S
H628 C665 0.931 . S
H629 C666 0.930 1_554 S
H630 C668 0.930 . S
H631 C669 0.929 . S
H632 C671 0.930 . S
H633 C672 0.931 . S
H634 C674 0.930 . S
H635 C675 0.929 . S
H636 C677 0.931 . S
H637 C678 0.930 . S
H638 C680 0.930 . S
H639 C681 0.932 . S
H640 C683 0.930 . S
H641 C684 0.929 . S
H642 C686 0.931 . S
H643 C687 0.930 . S
H644 C689 0.929 . S
H645 C690 0.931 . S
H646 C692 0.930 . S
H647 C693 0.929 . S
O648 H622 0.856 . S
O648 C694 1.300 . S
O649 C694 1.209 . S
O650 C695 1.199 . S
O651 H623 0.854 . S
O651 C695 1.297 . S
C652 C653 1.404 . S
C652 C657 1.397 . S
C652 C658 1.492 . S
C653 C652 1.404 . S
C653 C654 1.396 . S
C653 C664 1.492 . S
C654 C653 1.396 . S
C654 C655 1.397 . S
C654 C670 1.509 . S
C655 C654 1.397 . S
C655 C656 1.412 . S
C655 C676 1.485 . S
C656 C655 1.412 . S
C656 C657 1.388 . S
C656 C682 1.490 . S
C657 C652 1.397 . S
C657 C656 1.388 . S
C657 C688 1.519 . S
C658 C652 1.492 . S
C658 C659 1.363 . S
C658 C663 1.390 . S
C659 H624 0.930 . S
C659 C658 1.363 . S
C659 C660 1.372 . S
C660 H625 0.930 . S
C660 C659 1.372 . S
C660 C661 1.383 . S
C661 C660 1.383 . S
C661 C662 1.395 . S
C662 H626 0.930 . S
C662 C661 1.395 . S
C662 C663 1.362 . S
C663 H627 0.930 . S
C663 C658 1.390 . S
C663 C662 1.362 . S
C664 C653 1.492 . S
C664 C665 1.377 . S
C664 C669 1.397 . S
C665 H628 0.931 . S
C665 C664 1.377 . S
C665 C666 1.376 . S
C666 H629 0.930 1_556 S
C666 C665 1.376 . S
C666 C667 1.376 . S
C667 C666 1.376 . S
C667 C668 1.378 . S
C667 C694 1.486 1_556 S
C668 H630 0.930 . S
C668 C667 1.378 . S
C668 C669 1.376 . S
C669 H631 0.929 . S
C669 C664 1.397 . S
C669 C668 1.376 . S
C670 C654 1.509 . S
C670 C671 1.391 . S
C670 C675 1.386 . S
C671 H632 0.930 . S
C671 C670 1.391 . S
C671 C672 1.375 . S
C672 H633 0.931 . S
C672 C671 1.375 . S
C672 C673 1.375 . S
C673 C672 1.375 . S
C673 C674 1.361 . S
C674 H634 0.930 . S
C674 C673 1.361 . S
C674 C675 1.399 . S
C675 H635 0.929 . S
C675 C670 1.386 . S
C675 C674 1.399 . S
C676 C655 1.485 . S
C676 C677 1.394 . S
C676 C681 1.360 . S
C677 H636 0.931 . S
C677 C676 1.394 . S
C677 C678 1.372 . S
C678 H637 0.930 . S
C678 C677 1.372 . S
C678 C679 1.397 . S
C679 C678 1.397 . S
C679 C680 1.390 . S
C679 C695 1.476 . S
C680 H638 0.930 . S
C680 C679 1.390 . S
C680 C681 1.366 . S
C681 H639 0.932 . S
C681 C676 1.360 . S
C681 C680 1.366 . S
C682 C656 1.490 . S
C682 C683 1.380 . S
C682 C687 1.386 . S
C683 H640 0.930 . S
C683 C682 1.380 . S
C683 C684 1.381 . S
C684 H641 0.929 . S
C684 C683 1.381 . S
C684 C685 1.371 . S
C685 C684 1.371 . S
C685 C686 1.380 . S
C686 H642 0.931 . S
C686 C685 1.380 . S
C686 C687 1.387 . S
C687 H643 0.930 . S
C687 C682 1.386 . S
C687 C686 1.387 . S
C688 C657 1.519 . S
C688 C689 1.377 . S
C688 C693 1.361 . S
C689 H644 0.929 . S
C689 C688 1.377 . S
C689 C690 1.386 . S
C690 H645 0.931 . S
C690 C689 1.386 . S
C690 C691 1.363 . S
C691 C690 1.363 . S
C691 C692 1.385 . S
C692 H646 0.930 . S
C692 C691 1.385 . S
C692 C693 1.396 . S
C693 H647 0.929 . S
C693 C688 1.361 . S
C693 C692 1.396 . S
C694 O648 1.300 . S
C694 O649 1.209 . S
C694 C667 1.486 1_554 S
C695 O650 1.199 . S
C695 O651 1.297 . S
C695 C679 1.476 . S
H696 O722 0.856 . S
H697 O725 0.854 . S
H698 C733 0.930 . S
H699 C734 0.930 . S
H700 C736 0.930 . S
H701 C737 0.930 . S
H702 C739 0.931 . S
H703 C740 0.930 . S
H704 C742 0.930 . S
H705 C743 0.929 . S
H706 C745 0.930 . S
H707 C746 0.931 . S
H708 C748 0.930 . S
H709 C749 0.929 . S
H710 C751 0.931 . S
H711 C752 0.930 . S
H712 C754 0.930 . S
H713 C755 0.932 . S
H714 C757 0.930 . S
H715 C758 0.929 . S
H716 C760 0.931 . S
H717 C761 0.930 . S
H718 C763 0.929 . S
H719 C764 0.931 . S
H720 C766 0.930 . S
H721 C767 0.929 . S
O722 H696 0.856 . S
O722 C768 1.300 . S
O723 C768 1.209 . S
O724 C769 1.199 . S
O725 H697 0.854 . S
O725 C769 1.297 . S
C726 C727 1.404 . S
C726 C731 1.397 . S
C726 C732 1.492 . S
C727 C726 1.404 . S
C727 C728 1.396 . S
C727 C738 1.492 . S
C728 C727 1.396 . S
C728 C729 1.397 . S
C728 C744 1.509 . S
C729 C728 1.397 . S
C729 C730 1.412 . S
C729 C750 1.485 . S
C730 C729 1.412 . S
C730 C731 1.388 . S
C730 C756 1.490 . S
C731 C726 1.397 . S
C731 C730 1.388 . S
C731 C762 1.519 . S
C732 C726 1.492 . S
C732 C733 1.363 . S
C732 C737 1.390 . S
C733 H698 0.930 . S
C733 C732 1.363 . S
C733 C734 1.372 . S
C734 H699 0.930 . S
C734 C733 1.372 . S
C734 C735 1.383 . S
C735 C734 1.383 . S
C735 C736 1.395 . S
C736 H700 0.930 . S
C736 C735 1.395 . S
C736 C737 1.362 . S
C737 H701 0.930 . S
C737 C732 1.390 . S
C737 C736 1.362 . S
C738 C727 1.492 . S
C738 C739 1.377 . S
C738 C743 1.397 . S
C739 H702 0.931 . S
C739 C738 1.377 . S
C739 C740 1.376 . S
C740 H703 0.930 . S
C740 C739 1.376 . S
C740 C741 1.376 . S
C741 C740 1.376 . S
C741 C742 1.378 . S
C741 C768 1.486 . S
C742 H704 0.930 . S
C742 C741 1.378 . S
C742 C743 1.376 . S
C743 H705 0.929 . S
C743 C738 1.397 . S
C743 C742 1.376 . S
C744 C728 1.509 . S
C744 C745 1.391 . S
C744 C749 1.386 . S
C745 H706 0.930 . S
C745 C744 1.391 . S
C745 C746 1.375 . S
C746 H707 0.931 . S
C746 C745 1.375 . S
C746 C747 1.375 . S
C747 C746 1.375 . S
C747 C748 1.361 . S
C748 H708 0.930 . S
C748 C747 1.361 . S
C748 C749 1.399 . S
C749 H709 0.929 . S
C749 C744 1.386 . S
C749 C748 1.399 . S
C750 C729 1.485 . S
C750 C751 1.394 . S
C750 C755 1.360 . S
C751 H710 0.931 . S
C751 C750 1.394 . S
C751 C752 1.372 . S
C752 H711 0.930 . S
C752 C751 1.372 . S
C752 C753 1.397 . S
C753 C752 1.397 . S
C753 C754 1.390 . S
C753 C769 1.476 . S
C754 H712 0.930 . S
C754 C753 1.390 . S
C754 C755 1.366 . S
C755 H713 0.932 . S
C755 C750 1.360 . S
C755 C754 1.366 . S
C756 C730 1.490 . S
C756 C757 1.380 . S
C756 C761 1.386 . S
C757 H714 0.930 . S
C757 C756 1.380 . S
C757 C758 1.381 . S
C758 H715 0.929 . S
C758 C757 1.381 . S
C758 C759 1.371 . S
C759 C758 1.371 . S
C759 C760 1.380 . S
C760 H716 0.931 . S
C760 C759 1.380 . S
C760 C761 1.387 . S
C761 H717 0.930 . S
C761 C756 1.386 . S
C761 C760 1.387 . S
C762 C731 1.519 . S
C762 C763 1.377 . S
C762 C767 1.361 . S
C763 H718 0.929 . S
C763 C762 1.377 . S
C763 C764 1.386 . S
C764 H719 0.931 . S
C764 C763 1.386 . S
C764 C765 1.363 . S
C765 C764 1.363 . S
C765 C766 1.385 . S
C766 H720 0.930 . S
C766 C765 1.385 . S
C766 C767 1.396 . S
C767 H721 0.929 . S
C767 C762 1.361 . S
C767 C766 1.396 . S
C768 O722 1.300 . S
C768 O723 1.209 . S
C768 C741 1.486 . S
C769 O724 1.199 . S
C769 O725 1.297 . S
C769 C753 1.476 . S
H770 O796 0.856 . S
H771 O799 0.854 . S
H772 C807 0.930 . S
H773 C808 0.930 . S
H774 C810 0.930 . S
H775 C811 0.930 . S
H776 C813 0.931 . S
H777 C814 0.930 . S
H778 C816 0.930 . S
H779 C817 0.929 . S
H780 C819 0.930 . S
H781 C820 0.931 . S
H782 C822 0.930 . S
H783 C823 0.929 . S
H784 C825 0.931 . S
H785 C826 0.930 . S
H786 C828 0.930 . S
H787 C829 0.932 . S
H788 C831 0.930 . S
H789 C832 0.929 . S
H790 C834 0.931 . S
H791 C835 0.930 . S
H792 C837 0.929 . S
H793 C838 0.931 . S
H794 C840 0.930 . S
H795 C841 0.929 . S
O796 H770 0.856 . S
O796 C842 1.300 . S
O797 C842 1.209 . S
O798 C843 1.199 . S
O799 H771 0.854 . S
O799 C843 1.297 . S
C800 C801 1.404 . S
C800 C805 1.397 . S
C800 C806 1.492 . S
C801 C800 1.404 . S
C801 C802 1.396 . S
C801 C812 1.492 . S
C802 C801 1.396 . S
C802 C803 1.397 . S
C802 C818 1.509 . S
C803 C802 1.397 . S
C803 C804 1.412 . S
C803 C824 1.485 . S
C804 C803 1.412 . S
C804 C805 1.388 . S
C804 C830 1.490 . S
C805 C800 1.397 . S
C805 C804 1.388 . S
C805 C836 1.519 . S
C806 C800 1.492 . S
C806 C807 1.363 . S
C806 C811 1.390 . S
C807 H772 0.930 . S
C807 C806 1.363 . S
C807 C808 1.372 . S
C808 H773 0.930 . S
C808 C807 1.372 . S
C808 C809 1.383 . S
C809 C808 1.383 . S
C809 C810 1.395 . S
C810 H774 0.930 . S
C810 C809 1.395 . S
C810 C811 1.362 . S
C811 H775 0.930 . S
C811 C806 1.390 . S
C811 C810 1.362 . S
C812 C801 1.492 . S
C812 C813 1.377 . S
C812 C817 1.397 . S
C813 H776 0.931 . S
C813 C812 1.377 . S
C813 C814 1.376 . S
C814 H777 0.930 . S
C814 C813 1.376 . S
C814 C815 1.376 . S
C815 C814 1.376 . S
C815 C816 1.378 . S
C815 C842 1.486 . S
C816 H778 0.930 . S
C816 C815 1.378 . S
C816 C817 1.376 . S
C817 H779 0.929 . S
C817 C812 1.397 . S
C817 C816 1.376 . S
C818 C802 1.509 . S
C818 C819 1.391 . S
C818 C823 1.386 . S
C819 H780 0.930 . S
C819 C818 1.391 . S
C819 C820 1.375 . S
C820 H781 0.931 . S
C820 C819 1.375 . S
C820 C821 1.375 . S
C821 C820 1.375 . S
C821 C822 1.361 . S
C822 H782 0.930 . S
C822 C821 1.361 . S
C822 C823 1.399 . S
C823 H783 0.929 . S
C823 C818 1.386 . S
C823 C822 1.399 . S
C824 C803 1.485 . S
C824 C825 1.394 . S
C824 C829 1.360 . S
C825 H784 0.931 . S
C825 C824 1.394 . S
C825 C826 1.372 . S
C826 H785 0.930 . S
C826 C825 1.372 . S
C826 C827 1.397 . S
C827 C826 1.397 . S
C827 C828 1.390 . S
C827 C843 1.476 . S
C828 H786 0.930 . S
C828 C827 1.390 . S
C828 C829 1.366 . S
C829 H787 0.932 . S
C829 C824 1.360 . S
C829 C828 1.366 . S
C830 C804 1.490 . S
C830 C831 1.380 . S
C830 C835 1.386 . S
C831 H788 0.930 . S
C831 C830 1.380 . S
C831 C832 1.381 . S
C832 H789 0.929 . S
C832 C831 1.381 . S
C832 C833 1.371 . S
C833 C832 1.371 . S
C833 C834 1.380 . S
C834 H790 0.931 . S
C834 C833 1.380 . S
C834 C835 1.387 . S
C835 H791 0.930 . S
C835 C830 1.386 . S
C835 C834 1.387 . S
C836 C805 1.519 . S
C836 C837 1.377 . S
C836 C841 1.361 . S
C837 H792 0.929 . S
C837 C836 1.377 . S
C837 C838 1.386 . S
C838 H793 0.931 . S
C838 C837 1.386 . S
C838 C839 1.363 . S
C839 C838 1.363 . S
C839 C840 1.385 . S
C840 H794 0.930 . S
C840 C839 1.385 . S
C840 C841 1.396 . S
C841 H795 0.929 . S
C841 C836 1.361 . S
C841 C840 1.396 . S
C842 O796 1.300 . S
C842 O797 1.209 . S
C842 C815 1.486 . S
C843 O798 1.199 . S
C843 O799 1.297 . S
C843 C827 1.476 . S
H844 O870 0.856 . S
H845 O873 0.854 . S
H846 C881 0.930 . S
H847 C882 0.930 . S
H848 C884 0.930 . S
H849 C885 0.930 . S
H850 C887 0.931 . S
H851 C888 0.930 . S
H852 C890 0.930 . S
H853 C891 0.929 . S
H854 C893 0.930 . S
H855 C894 0.931 . S
H856 C896 0.930 . S
H857 C897 0.929 . S
H858 C899 0.931 . S
H859 C900 0.930 . S
H860 C902 0.930 . S
H861 C903 0.932 . S
H862 C905 0.930 . S
H863 C906 0.929 . S
H864 C908 0.931 . S
H865 C909 0.930 . S
H866 C911 0.929 . S
H867 C912 0.931 . S
H868 C914 0.930 . S
H869 C915 0.929 . S
O870 H844 0.856 . S
O870 C916 1.300 . S
O871 C916 1.209 . S
O872 C917 1.199 . S
O873 H845 0.854 . S
O873 C917 1.297 . S
C874 C875 1.404 . S
C874 C879 1.397 . S
C874 C880 1.492 . S
C875 C874 1.404 . S
C875 C876 1.396 . S
C875 C886 1.492 . S
C876 C875 1.396 . S
C876 C877 1.397 . S
C876 C892 1.509 . S
C877 C876 1.397 . S
C877 C878 1.412 . S
C877 C898 1.485 . S
C878 C877 1.412 . S
C878 C879 1.388 . S
C878 C904 1.490 . S
C879 C874 1.397 . S
C879 C878 1.388 . S
C879 C910 1.519 . S
C880 C874 1.492 . S
C880 C881 1.363 . S
C880 C885 1.390 . S
C881 H846 0.930 . S
C881 C880 1.363 . S
C881 C882 1.372 . S
C882 H847 0.930 . S
C882 C881 1.372 . S
C882 C883 1.383 . S
C883 C882 1.383 . S
C883 C884 1.395 . S
C884 H848 0.930 . S
C884 C883 1.395 . S
C884 C885 1.362 . S
C885 H849 0.930 . S
C885 C880 1.390 . S
C885 C884 1.362 . S
C886 C875 1.492 . S
C886 C887 1.377 . S
C886 C891 1.397 . S
C887 H850 0.931 . S
C887 C886 1.377 . S
C887 C888 1.376 . S
C888 H851 0.930 . S
C888 C887 1.376 . S
C888 C889 1.376 . S
C889 C888 1.376 . S
C889 C890 1.378 . S
C889 C916 1.486 . S
C890 H852 0.930 . S
C890 C889 1.378 . S
C890 C891 1.376 . S
C891 H853 0.929 . S
C891 C886 1.397 . S
C891 C890 1.376 . S
C892 C876 1.509 . S
C892 C893 1.391 . S
C892 C897 1.386 . S
C893 H854 0.930 . S
C893 C892 1.391 . S
C893 C894 1.375 . S
C894 H855 0.931 . S
C894 C893 1.375 . S
C894 C895 1.375 . S
C895 C894 1.375 . S
C895 C896 1.361 . S
C896 H856 0.930 . S
C896 C895 1.361 . S
C896 C897 1.399 . S
C897 H857 0.929 . S
C897 C892 1.386 . S
C897 C896 1.399 . S
C898 C877 1.485 . S
C898 C899 1.394 . S
C898 C903 1.360 . S
C899 H858 0.931 . S
C899 C898 1.394 . S
C899 C900 1.372 . S
C900 H859 0.930 . S
C900 C899 1.372 . S
C900 C901 1.397 . S
C901 C900 1.397 . S
C901 C902 1.390 . S
C901 C917 1.476 . S
C902 H860 0.930 . S
C902 C901 1.390 . S
C902 C903 1.366 . S
C903 H861 0.932 . S
C903 C898 1.360 . S
C903 C902 1.366 . S
C904 C878 1.490 . S
C904 C905 1.380 . S
C904 C909 1.386 . S
C905 H862 0.930 . S
C905 C904 1.380 . S
C905 C906 1.381 . S
C906 H863 0.929 . S
C906 C905 1.381 . S
C906 C907 1.371 . S
C907 C906 1.371 . S
C907 C908 1.380 . S
C908 H864 0.931 . S
C908 C907 1.380 . S
C908 C909 1.387 . S
C909 H865 0.930 . S
C909 C904 1.386 . S
C909 C908 1.387 . S
C910 C879 1.519 . S
C910 C911 1.377 . S
C910 C915 1.361 . S
C911 H866 0.929 . S
C911 C910 1.377 . S
C911 C912 1.386 . S
C912 H867 0.931 . S
C912 C911 1.386 . S
C912 C913 1.363 . S
C913 C912 1.363 . S
C913 C914 1.385 . S
C914 H868 0.930 . S
C914 C913 1.385 . S
C914 C915 1.396 . S
C915 H869 0.929 . S
C915 C910 1.361 . S
C915 C914 1.396 . S
C916 O870 1.300 . S
C916 O871 1.209 . S
C916 C889 1.486 . S
C917 O872 1.199 . S
C917 O873 1.297 . S
C917 C901 1.476 . S
H918 O944 0.856 . S
H919 O947 0.854 . S
H920 C955 0.930 . S
H921 C956 0.930 . S
H922 C958 0.930 . S
H923 C959 0.930 . S
H924 C961 0.931 . S
H925 C962 0.930 1_655 S
H926 C964 0.930 . S
H927 C965 0.929 . S
H928 C967 0.930 . S
H929 C968 0.931 1_655 S
H930 C970 0.930 . S
H931 C971 0.929 . S
H932 C973 0.931 . S
H933 C974 0.930 . S
H934 C976 0.930 . S
H935 C977 0.932 . S
H936 C979 0.930 . S
H937 C980 0.929 . S
H938 C982 0.931 . S
H939 C983 0.930 . S
H940 C985 0.929 . S
H941 C986 0.931 . S
H942 C988 0.930 . S
H943 C989 0.929 . S
O944 H918 0.856 . S
O944 C990 1.300 . S
O945 C990 1.209 . S
O946 C991 1.199 1_655 S
O947 H919 0.854 . S
O947 C991 1.297 . S
C948 C949 1.404 . S
C948 C953 1.393 . S
C948 C954 1.492 . S
C949 C948 1.404 . S
C949 C950 1.396 . S
C949 C960 1.492 . S
C950 C949 1.396 . S
C950 C951 1.397 . S
C950 C966 1.509 . S
C951 C950 1.397 . S
C951 C952 1.428 . S
C951 C972 1.485 . S
C952 C951 1.428 . S
C952 C953 1.401 . S
C952 C978 1.491 1_455 S
C953 C948 1.393 . S
C953 C952 1.401 . S
C953 C984 1.483 1_455 S
C954 C948 1.492 . S
C954 C955 1.363 1_455 S
C954 C959 1.390 . S
C955 H920 0.930 . S
C955 C954 1.363 1_655 S
C955 C956 1.372 . S
C956 H921 0.930 . S
C956 C955 1.372 . S
C956 C957 1.383 . S
C957 C956 1.383 . S
C957 C958 1.395 1_655 S
C958 H922 0.930 . S
C958 C957 1.395 1_455 S
C958 C959 1.362 . S
C959 H923 0.930 . S
C959 C954 1.390 . S
C959 C958 1.362 . S
C960 C949 1.492 . S
C960 C961 1.377 1_455 S
C960 C965 1.397 . S
C961 H924 0.931 . S
C961 C960 1.377 1_655 S
C961 C962 1.376 1_655 S
C962 H925 0.930 1_455 S
C962 C961 1.376 1_455 S
C962 C963 1.376 . S
C963 C962 1.376 . S
C963 C964 1.378 . S
C963 C990 1.486 . S
C964 H926 0.930 . S
C964 C963 1.378 . S
C964 C965 1.376 . S
C965 H927 0.929 . S
C965 C960 1.397 . S
C965 C964 1.376 . S
C966 C950 1.509 . S
C966 C967 1.391 1_455 S
C966 C971 1.386 . S
C967 H928 0.930 . S
C967 C966 1.391 1_655 S
C967 C968 1.375 1_655 S
C968 H929 0.931 1_455 S
C968 C967 1.375 1_455 S
C968 C969 1.375 . S
C969 C968 1.375 . S
C969 C970 1.361 . S
C970 H930 0.930 . S
C970 C969 1.361 . S
C970 C971 1.399 . S
C971 H931 0.929 . S
C971 C966 1.386 . S
C971 C970 1.399 . S
C972 C951 1.485 . S
C972 C973 1.394 1_455 S
C972 C977 1.360 . S
C973 H932 0.931 . S
C973 C972 1.394 1_655 S
C973 C974 1.372 . S
C974 H933 0.930 . S
C974 C973 1.372 . S
C974 C975 1.397 1_655 S
C975 C974 1.397 1_455 S
C975 C976 1.390 . S
C975 C991 1.476 . S
C976 H934 0.930 . S
C976 C975 1.390 . S
C976 C977 1.366 . S
C977 H935 0.932 . S
C977 C972 1.360 . S
C977 C976 1.366 . S
C978 C952 1.491 1_655 S
C978 C979 1.380 . S
C978 C983 1.386 1_655 S
C979 H936 0.930 . S
C979 C978 1.380 . S
C979 C980 1.381 . S
C980 H937 0.929 . S
C980 C979 1.381 . S
C980 C981 1.371 . S
C981 C980 1.371 . S
C981 C982 1.380 1_655 S
C982 H938 0.931 . S
C982 C981 1.380 1_455 S
C982 C983 1.387 . S
C983 H939 0.930 . S
C983 C978 1.386 1_455 S
C983 C982 1.387 . S
C984 C953 1.483 1_655 S
C984 C985 1.419 . S
C984 C989 1.334 1_655 S
C985 H940 0.929 . S
C985 C984 1.419 . S
C985 C986 1.386 . S
C986 H941 0.931 . S
C986 C985 1.386 . S
C986 C987 1.399 . S
C987 C986 1.399 . S
C987 C988 1.330 1_655 S
C988 H942 0.930 . S
C988 C987 1.330 1_455 S
C988 C989 1.396 . S
C989 H943 0.929 . S
C989 C984 1.334 1_455 S
C989 C988 1.396 . S
C990 O944 1.300 . S
C990 O945 1.209 . S
C990 C963 1.486 . S
C991 O946 1.199 1_455 S
C991 O947 1.297 . S
C991 C975 1.476 . S
H992 O1018 0.856 . S
H993 O1021 0.854 . S
H994 C1029 0.930 . S
H995 C1030 0.930 . S
H996 C1032 0.930 . S
H997 C1033 0.930 . S
H998 C1035 0.931 . S
H999 C1036 0.930 . S
H1000 C1038 0.930 . S
H1001 C1039 0.929 . S
H1002 C1041 0.930 . S
H1003 C1042 0.931 . S
H1004 C1044 0.930 . S
H1005 C1045 0.929 . S
H1006 C1047 0.931 . S
H1007 C1048 0.930 . S
H1008 C1050 0.930 . S
H1009 C1051 0.932 . S
H1010 C1053 0.930 . S
H1011 C1054 0.929 . S
H1012 C1056 0.931 . S
H1013 C1057 0.930 . S
H1014 C1059 0.929 . S
H1015 C1060 0.931 . S
H1016 C1062 0.930 . S
H1017 C1063 0.929 . S
O1018 H992 0.856 . S
O1018 C1064 1.300 . S
O1019 C1064 1.209 . S
O1020 C1065 1.199 . S
O1021 H993 0.854 . S
O1021 C1065 1.297 . S
C1022 C1023 1.404 . S
C1022 C1027 1.397 . S
C1022 C1028 1.492 . S
C1023 C1022 1.404 . S
C1023 C1024 1.396 . S
C1023 C1034 1.492 . S
C1024 C1023 1.396 . S
C1024 C1025 1.397 . S
C1024 C1040 1.509 . S
C1025 C1024 1.397 . S
C1025 C1026 1.412 . S
C1025 C1046 1.485 . S
C1026 C1025 1.412 . S
C1026 C1027 1.388 . S
C1026 C1052 1.490 . S
C1027 C1022 1.397 . S
C1027 C1026 1.388 . S
C1027 C1058 1.519 . S
C1028 C1022 1.492 . S
C1028 C1029 1.363 . S
C1028 C1033 1.390 . S
C1029 H994 0.930 . S
C1029 C1028 1.363 . S
C1029 C1030 1.372 . S
C1030 H995 0.930 . S
C1030 C1029 1.372 . S
C1030 C1031 1.383 . S
C1031 C1030 1.383 . S
C1031 C1032 1.395 . S
C1032 H996 0.930 . S
C1032 C1031 1.395 . S
C1032 C1033 1.362 . S
C1033 H997 0.930 . S
C1033 C1028 1.390 . S
C1033 C1032 1.362 . S
C1034 C1023 1.492 . S
C1034 C1035 1.377 . S
C1034 C1039 1.397 . S
C1035 H998 0.931 . S
C1035 C1034 1.377 . S
C1035 C1036 1.376 . S
C1036 H999 0.930 . S
C1036 C1035 1.376 . S
C1036 C1037 1.376 . S
C1037 C1036 1.376 . S
C1037 C1038 1.378 . S
C1037 C1064 1.486 . S
C1038 H1000 0.930 . S
C1038 C1037 1.378 . S
C1038 C1039 1.376 . S
C1039 H1001 0.929 . S
C1039 C1034 1.397 . S
C1039 C1038 1.376 . S
C1040 C1024 1.509 . S
C1040 C1041 1.391 . S
C1040 C1045 1.386 . S
C1041 H1002 0.930 . S
C1041 C1040 1.391 . S
C1041 C1042 1.375 . S
C1042 H1003 0.931 . S
C1042 C1041 1.375 . S
C1042 C1043 1.375 . S
C1043 C1042 1.375 . S
C1043 C1044 1.361 . S
C1044 H1004 0.930 . S
C1044 C1043 1.361 . S
C1044 C1045 1.399 . S
C1045 H1005 0.929 . S
C1045 C1040 1.386 . S
C1045 C1044 1.399 . S
C1046 C1025 1.485 . S
C1046 C1047 1.394 . S
C1046 C1051 1.360 . S
C1047 H1006 0.931 . S
C1047 C1046 1.394 . S
C1047 C1048 1.372 . S
C1048 H1007 0.930 . S
C1048 C1047 1.372 . S
C1048 C1049 1.397 . S
C1049 C1048 1.397 . S
C1049 C1050 1.390 . S
C1049 C1065 1.476 . S
C1050 H1008 0.930 . S
C1050 C1049 1.390 . S
C1050 C1051 1.366 . S
C1051 H1009 0.932 . S
C1051 C1046 1.360 . S
C1051 C1050 1.366 . S
C1052 C1026 1.490 . S
C1052 C1053 1.380 . S
C1052 C1057 1.386 . S
C1053 H1010 0.930 . S
C1053 C1052 1.380 . S
C1053 C1054 1.381 . S
C1054 H1011 0.929 . S
C1054 C1053 1.381 . S
C1054 C1055 1.371 . S
C1055 C1054 1.371 . S
C1055 C1056 1.380 . S
C1056 H1012 0.931 . S
C1056 C1055 1.380 . S
C1056 C1057 1.387 . S
C1057 H1013 0.930 . S
C1057 C1052 1.386 . S
C1057 C1056 1.387 . S
C1058 C1027 1.519 . S
C1058 C1059 1.377 . S
C1058 C1063 1.361 . S
C1059 H1014 0.929 . S
C1059 C1058 1.377 . S
C1059 C1060 1.386 . S
C1060 H1015 0.931 . S
C1060 C1059 1.386 . S
C1060 C1061 1.363 . S
C1061 C1060 1.363 . S
C1061 C1062 1.385 . S
C1062 H1016 0.930 . S
C1062 C1061 1.385 . S
C1062 C1063 1.396 . S
C1063 H1017 0.929 . S
C1063 C1058 1.361 . S
C1063 C1062 1.396 . S
C1064 O1018 1.300 . S
C1064 O1019 1.209 . S
C1064 C1037 1.486 . S
C1065 O1020 1.199 . S
C1065 O1021 1.297 . S
C1065 C1049 1.476 . S
H1066 O1092 0.856 . S
H1067 O1095 0.854 . S
H1068 C1103 0.930 . S
H1069 C1104 0.930 . S
H1070 C1106 0.930 . S
H1071 C1107 0.930 . S
H1072 C1109 0.931 . S
H1073 C1110 0.939 . S
H1074 C1112 0.930 . S
H1075 C1113 0.929 . S
H1076 C1115 0.930 . S
H1077 C1116 0.931 . S
H1078 C1118 0.930 . S
H1079 C1119 0.929 . S
H1080 C1121 0.931 . S
H1081 C1122 0.930 . S
H1082 C1124 0.930 . S
H1083 C1125 0.932 . S
H1084 C1127 0.930 . S
H1085 C1128 0.929 . S
H1086 C1130 0.931 . S
H1087 C1131 0.930 . S
H1088 C1133 0.929 . S
H1089 C1134 0.931 . S
H1090 C1136 0.930 . S
H1091 C1137 0.929 . S
O1092 H1066 0.856 . S
O1092 C1138 1.300 . S
O1093 C1138 1.209 . S
O1094 C1139 1.199 1_545 S
O1095 H1067 0.854 . S
O1095 C1139 1.297 . S
C1096 C1097 1.404 . S
C1096 C1101 1.413 . S
C1096 C1102 1.492 . S
C1097 C1096 1.404 . S
C1097 C1098 1.396 . S
C1097 C1108 1.492 . S
C1098 C1097 1.396 . S
C1098 C1099 1.397 . S
C1098 C1114 1.509 . S
C1099 C1098 1.397 . S
C1099 C1100 1.412 1_565 S
C1099 C1120 1.485 . S
C1100 C1099 1.412 1_545 S
C1100 C1101 1.362 1_545 S
C1100 C1126 1.491 . S
C1101 C1096 1.413 . S
C1101 C1100 1.362 1_565 S
C1101 C1132 1.535 . S
C1102 C1096 1.492 . S
C1102 C1103 1.363 1_565 S
C1102 C1107 1.390 . S
C1103 H1068 0.930 . S
C1103 C1102 1.363 1_545 S
C1103 C1104 1.372 . S
C1104 H1069 0.930 . S
C1104 C1103 1.372 . S
C1104 C1105 1.450 . S
C1105 C1104 1.450 . S
C1105 C1106 1.362 1_545 S
C1106 H1070 0.930 . S
C1106 C1105 1.362 1_565 S
C1106 C1107 1.362 . S
C1107 H1071 0.930 . S
C1107 C1102 1.390 . S
C1107 C1106 1.362 . S
C1108 C1097 1.492 . S
C1108 C1109 1.377 1_565 S
C1108 C1113 1.397 . S
C1109 H1072 0.931 . S
C1109 C1108 1.377 1_545 S
C1109 C1110 1.380 . S
C1110 H1073 0.939 . S
C1110 C1109 1.380 . S
C1110 C1111 1.362 1_545 S
C1111 C1110 1.362 1_565 S
C1111 C1112 1.378 . S
C1111 C1138 1.486 . S
C1112 H1074 0.930 . S
C1112 C1111 1.378 . S
C1112 C1113 1.376 . S
C1113 H1075 0.929 . S
C1113 C1108 1.397 . S
C1113 C1112 1.376 . S
C1114 C1098 1.509 . S
C1114 C1115 1.391 1_565 S
C1114 C1119 1.386 . S
C1115 H1076 0.930 . S
C1115 C1114 1.391 1_545 S
C1115 C1116 1.375 . S
C1116 H1077 0.931 . S
C1116 C1115 1.375 . S
C1116 C1117 1.375 1_545 S
C1117 C1116 1.375 1_565 S
C1117 C1118 1.361 . S
C1118 H1078 0.930 . S
C1118 C1117 1.361 . S
C1118 C1119 1.399 . S
C1119 H1079 0.929 . S
C1119 C1114 1.386 . S
C1119 C1118 1.399 . S
C1120 C1099 1.485 . S
C1120 C1121 1.394 1_565 S
C1120 C1125 1.360 . S
C1121 H1080 0.931 . S
C1121 C1120 1.394 1_545 S
C1121 C1122 1.372 . S
C1122 H1081 0.930 . S
C1122 C1121 1.372 . S
C1122 C1123 1.397 1_545 S
C1123 C1122 1.397 1_565 S
C1123 C1124 1.390 . S
C1123 C1139 1.476 . S
C1124 H1082 0.930 . S
C1124 C1123 1.390 . S
C1124 C1125 1.366 . S
C1125 H1083 0.932 . S
C1125 C1120 1.360 . S
C1125 C1124 1.366 . S
C1126 C1100 1.491 . S
C1126 C1127 1.380 . S
C1126 C1131 1.386 1_545 S
C1127 H1084 0.930 . S
C1127 C1126 1.380 . S
C1127 C1128 1.381 . S
C1128 H1085 0.929 . S
C1128 C1127 1.381 . S
C1128 C1129 1.371 . S
C1129 C1128 1.371 . S
C1129 C1130 1.380 1_545 S
C1130 H1086 0.931 . S
C1130 C1129 1.380 1_565 S
C1130 C1131 1.387 . S
C1131 H1087 0.930 . S
C1131 C1126 1.386 1_565 S
C1131 C1130 1.387 . S
C1132 C1101 1.535 . S
C1132 C1133 1.378 1_565 S
C1132 C1137 1.359 . S
C1133 H1088 0.929 . S
C1133 C1132 1.378 1_545 S
C1133 C1134 1.386 . S
C1134 H1089 0.931 . S
C1134 C1133 1.386 . S
C1134 C1135 1.363 1_545 S
C1135 C1134 1.363 1_565 S
C1135 C1136 1.385 . S
C1136 H1090 0.930 . S
C1136 C1135 1.385 . S
C1136 C1137 1.396 . S
C1137 H1091 0.929 . S
C1137 C1132 1.359 . S
C1137 C1136 1.396 . S
C1138 O1092 1.300 . S
C1138 O1093 1.209 . S
C1138 C1111 1.486 . S
C1139 O1094 1.199 1_565 S
C1139 O1095 1.297 . S
C1139 C1123 1.476 . S
H1140 O1166 0.856 . S
H1141 O1169 0.854 . S
H1142 C1177 0.930 . S
H1143 C1178 0.930 . S
H1144 C1180 0.930 . S
H1145 C1181 0.930 . S
H1146 C1183 0.931 . S
H1147 C1184 0.930 . S
H1148 C1186 0.930 . S
H1149 C1187 0.929 . S
H1150 C1189 0.930 . S
H1151 C1190 0.931 . S
H1152 C1192 0.930 . S
H1153 C1193 0.929 . S
H1154 C1195 0.931 . S
H1155 C1196 0.930 . S
H1156 C1198 0.930 . S
H1157 C1199 0.932 . S
H1158 C1201 0.930 . S
H1159 C1202 0.929 . S
H1160 C1204 0.931 . S
H1161 C1205 0.930 . S
H1162 C1207 0.929 . S
H1163 C1208 0.931 . S
H1164 C1210 0.930 . S
H1165 C1211 0.929 . S
O1166 H1140 0.856 . S
O1166 C1212 1.300 . S
O1167 C1212 1.209 1_565 S
O1168 C1213 1.199 1_545 S
O1169 H1141 0.854 . S
O1169 C1213 1.297 . S
C1170 C1171 1.404 . S
C1170 C1175 1.396 1_545 S
C1170 C1176 1.492 . S
C1171 C1170 1.404 . S
C1171 C1172 1.413 . S
C1171 C1182 1.492 . S
C1172 C1171 1.413 . S
C1172 C1173 1.376 1_545 S
C1172 C1188 1.499 . S
C1173 C1172 1.376 1_565 S
C1173 C1174 1.412 . S
C1173 C1194 1.524 . S
C1174 C1173 1.412 . S
C1174 C1175 1.354 . S
C1174 C1200 1.505 . S
C1175 C1170 1.396 1_565 S
C1175 C1174 1.354 . S
C1175 C1206 1.518 . S
C1176 C1170 1.492 . S
C1176 C1177 1.363 . S
C1176 C1181 1.390 1_545 S
C1177 H1142 0.930 . S
C1177 C1176 1.363 . S
C1177 C1178 1.372 . S
C1178 H1143 0.930 . S
C1178 C1177 1.372 . S
C1178 C1179 1.383 . S
C1179 C1178 1.383 . S
C1179 C1180 1.395 1_545 S
C1180 H1144 0.930 . S
C1180 C1179 1.395 1_565 S
C1180 C1181 1.362 . S
C1181 H1145 0.930 . S
C1181 C1176 1.390 1_565 S
C1181 C1180 1.362 . S
C1182 C1171 1.492 . S
C1182 C1183 1.377 . S
C1182 C1187 1.397 1_545 S
C1183 H1146 0.931 . S
C1183 C1182 1.377 . S
C1183 C1184 1.376 . S
C1184 H1147 0.930 . S
C1184 C1183 1.376 . S
C1184 C1185 1.376 . S
C1185 C1184 1.376 . S
C1185 C1186 1.378 1_545 S
C1185 C1212 1.486 . S
C1186 H1148 0.930 . S
C1186 C1185 1.378 1_565 S
C1186 C1187 1.376 . S
C1187 H1149 0.929 . S
C1187 C1182 1.397 1_565 S
C1187 C1186 1.376 . S
C1188 C1172 1.499 . S
C1188 C1189 1.392 . S
C1188 C1193 1.386 1_545 S
C1189 H1150 0.930 . S
C1189 C1188 1.392 . S
C1189 C1190 1.375 . S
C1190 H1151 0.931 . S
C1190 C1189 1.375 . S
C1190 C1191 1.344 1_545 S
C1191 C1190 1.344 1_565 S
C1191 C1192 1.379 . S
C1192 H1152 0.930 . S
C1192 C1191 1.379 . S
C1192 C1193 1.399 . S
C1193 H1153 0.929 . S
C1193 C1188 1.386 1_565 S
C1193 C1192 1.399 . S
C1194 C1173 1.524 . S
C1194 C1195 1.394 1_565 S
C1194 C1199 1.360 . S
C1195 H1154 0.931 . S
C1195 C1194 1.394 1_545 S
C1195 C1196 1.372 . S
C1196 H1155 0.930 . S
C1196 C1195 1.372 . S
C1196 C1197 1.397 1_545 S
C1197 C1196 1.397 1_565 S
C1197 C1198 1.390 . S
C1197 C1213 1.476 . S
C1198 H1156 0.930 . S
C1198 C1197 1.390 . S
C1198 C1199 1.366 . S
C1199 H1157 0.932 . S
C1199 C1194 1.360 . S
C1199 C1198 1.366 . S
C1200 C1174 1.505 . S
C1200 C1201 1.380 1_565 S
C1200 C1205 1.386 . S
C1201 H1158 0.930 . S
C1201 C1200 1.380 1_545 S
C1201 C1202 1.381 . S
C1202 H1159 0.929 . S
C1202 C1201 1.381 . S
C1202 C1203 1.355 1_545 S
C1203 C1202 1.355 1_565 S
C1203 C1204 1.393 . S
C1204 H1160 0.931 . S
C1204 C1203 1.393 . S
C1204 C1205 1.387 . S
C1205 H1161 0.930 . S
C1205 C1200 1.386 . S
C1205 C1204 1.387 . S
C1206 C1175 1.518 . S
C1206 C1207 1.377 1_565 S
C1206 C1211 1.361 . S
C1207 H1162 0.929 . S
C1207 C1206 1.377 1_545 S
C1207 C1208 1.386 . S
C1208 H1163 0.931 . S
C1208 C1207 1.386 . S
C1208 C1209 1.363 1_545 S
C1209 C1208 1.363 1_565 S
C1209 C1210 1.385 . S
C1210 H1164 0.930 . S
C1210 C1209 1.385 . S
C1210 C1211 1.396 . S
C1211 H1165 0.929 . S
C1211 C1206 1.361 . S
C1211 C1210 1.396 . S
C1212 O1166 1.300 . S
C1212 O1167 1.209 1_545 S
C1212 C1185 1.486 . S
C1213 O1168 1.199 1_565 S
C1213 O1169 1.297 . S
C1213 C1197 1.476 . S
H1214 O1240 0.856 . S
H1215 O1243 0.854 . S
H1216 C1251 0.930 . S
H1217 C1252 0.930 . S
H1218 C1254 0.930 . S
H1219 C1255 0.930 . S
H1220 C1257 0.931 . S
H1221 C1258 0.930 . S
H1222 C1260 0.930 . S
H1223 C1261 0.929 . S
H1224 C1263 0.930 . S
H1225 C1264 0.931 . S
H1226 C1266 0.930 . S
H1227 C1267 0.929 . S
H1228 C1269 0.931 . S
H1229 C1270 0.930 . S
H1230 C1272 0.930 . S
H1231 C1273 0.932 . S
H1232 C1275 0.930 . S
H1233 C1276 0.929 . S
H1234 C1278 0.931 . S
H1235 C1279 0.930 . S
H1236 C1281 0.929 . S
H1237 C1282 0.931 . S
H1238 C1284 0.930 . S
H1239 C1285 0.929 . S
O1240 H1214 0.856 . S
O1240 C1286 1.300 . S
O1241 C1286 1.209 1_455 S
O1242 C1287 1.199 1_655 S
O1243 H1215 0.854 . S
O1243 C1287 1.297 . S
C1244 C1245 1.404 . S
C1244 C1249 1.398 . S
C1244 C1250 1.492 . S
C1245 C1244 1.404 . S
C1245 C1246 1.396 . S
C1245 C1256 1.492 . S
C1246 C1245 1.396 . S
C1246 C1247 1.395 . S
C1246 C1262 1.509 . S
C1247 C1246 1.395 . S
C1247 C1248 1.392 1_655 S
C1247 C1268 1.524 1_655 S
C1248 C1247 1.392 1_455 S
C1248 C1249 1.403 1_455 S
C1248 C1274 1.486 . S
C1249 C1244 1.398 . S
C1249 C1248 1.403 1_655 S
C1249 C1280 1.522 1_655 S
C1250 C1244 1.492 . S
C1250 C1251 1.363 . S
C1250 C1255 1.390 1_655 S
C1251 H1216 0.930 . S
C1251 C1250 1.363 . S
C1251 C1252 1.372 . S
C1252 H1217 0.930 . S
C1252 C1251 1.372 . S
C1252 C1253 1.383 . S
C1253 C1252 1.383 . S
C1253 C1254 1.395 1_655 S
C1254 H1218 0.930 . S
C1254 C1253 1.395 1_455 S
C1254 C1255 1.362 . S
C1255 H1219 0.930 . S
C1255 C1250 1.390 1_455 S
C1255 C1254 1.362 . S
C1256 C1245 1.492 . S
C1256 C1257 1.377 . S
C1256 C1261 1.397 1_655 S
C1257 H1220 0.931 . S
C1257 C1256 1.377 . S
C1257 C1258 1.376 . S
C1258 H1221 0.930 . S
C1258 C1257 1.376 . S
C1258 C1259 1.376 . S
C1259 C1258 1.376 . S
C1259 C1260 1.378 1_655 S
C1259 C1286 1.486 . S
C1260 H1222 0.930 . S
C1260 C1259 1.378 1_455 S
C1260 C1261 1.376 . S
C1261 H1223 0.929 . S
C1261 C1256 1.397 1_455 S
C1261 C1260 1.376 . S
C1262 C1246 1.509 . S
C1262 C1263 1.391 . S
C1262 C1267 1.386 1_655 S
C1263 H1224 0.930 . S
C1263 C1262 1.391 . S
C1263 C1264 1.375 . S
C1264 H1225 0.931 . S
C1264 C1263 1.375 . S
C1264 C1265 1.375 . S
C1265 C1264 1.375 . S
C1265 C1266 1.361 1_655 S
C1266 H1226 0.930 . S
C1266 C1265 1.361 1_455 S
C1266 C1267 1.399 . S
C1267 H1227 0.929 . S
C1267 C1262 1.386 1_455 S
C1267 C1266 1.399 . S
C1268 C1247 1.524 1_455 S
C1268 C1269 1.347 1_455 S
C1268 C1273 1.380 . S
C1269 H1228 0.931 . S
C1269 C1268 1.347 1_655 S
C1269 C1270 1.372 . S
C1270 H1229 0.930 . S
C1270 C1269 1.372 . S
C1270 C1271 1.397 1_655 S
C1271 C1270 1.397 1_455 S
C1271 C1272 1.390 . S
C1271 C1287 1.476 . S
C1272 H1230 0.930 . S
C1272 C1271 1.390 . S
C1272 C1273 1.366 . S
C1273 H1231 0.932 . S
C1273 C1268 1.380 . S
C1273 C1272 1.366 . S
C1274 C1248 1.486 . S
C1274 C1275 1.380 1_455 S
C1274 C1279 1.386 . S
C1275 H1232 0.930 . S
C1275 C1274 1.380 1_655 S
C1275 C1276 1.381 . S
C1276 H1233 0.929 . S
C1276 C1275 1.381 . S
C1276 C1277 1.371 1_655 S
C1277 C1276 1.371 1_455 S
C1277 C1278 1.380 . S
C1278 H1234 0.931 . S
C1278 C1277 1.380 . S
C1278 C1279 1.387 . S
C1279 H1235 0.930 . S
C1279 C1274 1.386 . S
C1279 C1278 1.387 . S
C1280 C1249 1.522 1_455 S
C1280 C1281 1.377 1_455 S
C1280 C1285 1.361 . S
C1281 H1236 0.929 . S
C1281 C1280 1.377 1_655 S
C1281 C1282 1.386 . S
C1282 H1237 0.931 . S
C1282 C1281 1.386 . S
C1282 C1283 1.363 1_655 S
C1283 C1282 1.363 1_455 S
C1283 C1284 1.385 . S
C1284 H1238 0.930 . S
C1284 C1283 1.385 . S
C1284 C1285 1.396 . S
C1285 H1239 0.929 . S
C1285 C1280 1.361 . S
C1285 C1284 1.396 . S
C1286 O1240 1.300 . S
C1286 O1241 1.209 1_655 S
C1286 C1259 1.486 . S
C1287 O1242 1.199 1_455 S
C1287 O1243 1.297 . S
C1287 C1271 1.476 . S
H1288 O1314 0.856 . S
H1289 O1317 0.854 . S
H1290 C1325 0.930 . S
H1291 C1326 0.930 . S
H1292 C1328 0.930 . S
H1293 C1329 0.930 . S
H1294 C1331 0.931 . S
H1295 C1332 0.930 . S
H1296 C1334 0.930 . S
H1297 C1335 0.929 . S
H1298 C1337 0.930 . S
H1299 C1338 0.931 . S
H1300 C1340 0.930 . S
H1301 C1341 0.929 . S
H1302 C1343 0.931 . S
H1303 C1344 0.930 . S
H1304 C1346 0.930 . S
H1305 C1347 0.932 . S
H1306 C1349 0.930 . S
H1307 C1350 0.929 . S
H1308 C1352 0.931 . S
H1309 C1353 0.930 . S
H1310 C1355 0.929 . S
H1311 C1356 0.931 . S
H1312 C1358 0.930 . S
H1313 C1359 0.929 . S
O1314 H1288 0.856 . S
O1314 C1360 1.300 . S
O1315 C1360 1.209 . S
O1316 C1361 1.199 . S
O1317 H1289 0.854 . S
O1317 C1361 1.297 . S
C1318 C1319 1.404 . S
C1318 C1323 1.397 . S
C1318 C1324 1.492 . S
C1319 C1318 1.404 . S
C1319 C1320 1.396 . S
C1319 C1330 1.492 . S
C1320 C1319 1.396 . S
C1320 C1321 1.397 . S
C1320 C1336 1.509 . S
C1321 C1320 1.397 . S
C1321 C1322 1.412 . S
C1321 C1342 1.485 . S
C1322 C1321 1.412 . S
C1322 C1323 1.388 . S
C1322 C1348 1.490 . S
C1323 C1318 1.397 . S
C1323 C1322 1.388 . S
C1323 C1354 1.519 . S
C1324 C1318 1.492 . S
C1324 C1325 1.363 . S
C1324 C1329 1.390 . S
C1325 H1290 0.930 . S
C1325 C1324 1.363 . S
C1325 C1326 1.372 . S
C1326 H1291 0.930 . S
C1326 C1325 1.372 . S
C1326 C1327 1.383 . S
C1327 C1326 1.383 . S
C1327 C1328 1.395 . S
C1328 H1292 0.930 . S
C1328 C1327 1.395 . S
C1328 C1329 1.362 . S
C1329 H1293 0.930 . S
C1329 C1324 1.390 . S
C1329 C1328 1.362 . S
C1330 C1319 1.492 . S
C1330 C1331 1.377 . S
C1330 C1335 1.397 . S
C1331 H1294 0.931 . S
C1331 C1330 1.377 . S
C1331 C1332 1.376 . S
C1332 H1295 0.930 . S
C1332 C1331 1.376 . S
C1332 C1333 1.376 . S
C1333 C1332 1.376 . S
C1333 C1334 1.378 . S
C1333 C1360 1.486 . S
C1334 H1296 0.930 . S
C1334 C1333 1.378 . S
C1334 C1335 1.376 . S
C1335 H1297 0.929 . S
C1335 C1330 1.397 . S
C1335 C1334 1.376 . S
C1336 C1320 1.509 . S
C1336 C1337 1.391 . S
C1336 C1341 1.386 . S
C1337 H1298 0.930 . S
C1337 C1336 1.391 . S
C1337 C1338 1.375 . S
C1338 H1299 0.931 . S
C1338 C1337 1.375 . S
C1338 C1339 1.375 . S
C1339 C1338 1.375 . S
C1339 C1340 1.361 . S
C1340 H1300 0.930 . S
C1340 C1339 1.361 . S
C1340 C1341 1.399 . S
C1341 H1301 0.929 . S
C1341 C1336 1.386 . S
C1341 C1340 1.399 . S
C1342 C1321 1.485 . S
C1342 C1343 1.394 . S
C1342 C1347 1.360 . S
C1343 H1302 0.931 . S
C1343 C1342 1.394 . S
C1343 C1344 1.372 . S
C1344 H1303 0.930 . S
C1344 C1343 1.372 . S
C1344 C1345 1.397 . S
C1345 C1344 1.397 . S
C1345 C1346 1.390 . S
C1345 C1361 1.476 . S
C1346 H1304 0.930 . S
C1346 C1345 1.390 . S
C1346 C1347 1.366 . S
C1347 H1305 0.932 . S
C1347 C1342 1.360 . S
C1347 C1346 1.366 . S
C1348 C1322 1.490 . S
C1348 C1349 1.380 . S
C1348 C1353 1.386 . S
C1349 H1306 0.930 . S
C1349 C1348 1.380 . S
C1349 C1350 1.381 . S
C1350 H1307 0.929 . S
C1350 C1349 1.381 . S
C1350 C1351 1.371 . S
C1351 C1350 1.371 . S
C1351 C1352 1.380 . S
C1352 H1308 0.931 . S
C1352 C1351 1.380 . S
C1352 C1353 1.387 . S
C1353 H1309 0.930 . S
C1353 C1348 1.386 . S
C1353 C1352 1.387 . S
C1354 C1323 1.519 . S
C1354 C1355 1.377 . S
C1354 C1359 1.361 . S
C1355 H1310 0.929 . S
C1355 C1354 1.377 . S
C1355 C1356 1.386 . S
C1356 H1311 0.931 . S
C1356 C1355 1.386 . S
C1356 C1357 1.363 . S
C1357 C1356 1.363 . S
C1357 C1358 1.385 . S
C1358 H1312 0.930 . S
C1358 C1357 1.385 . S
C1358 C1359 1.396 . S
C1359 H1313 0.929 . S
C1359 C1354 1.361 . S
C1359 C1358 1.396 . S
C1360 O1314 1.300 . S
C1360 O1315 1.209 . S
C1360 C1333 1.486 . S
C1361 O1316 1.199 . S
C1361 O1317 1.297 . S
C1361 C1345 1.476 . S
H1362 O1388 0.856 . S
H1363 O1391 0.854 . S
H1364 C1399 0.930 . S
H1365 C1400 0.930 . S
H1366 C1402 0.930 . S
H1367 C1403 0.930 . S
H1368 C1405 0.931 . S
H1369 C1406 0.930 . S
H1370 C1408 0.930 . S
H1371 C1409 0.929 . S
H1372 C1411 0.930 . S
H1373 C1412 0.931 . S
H1374 C1414 0.930 . S
H1375 C1415 0.929 . S
H1376 C1417 0.931 . S
H1377 C1418 0.930 . S
H1378 C1420 0.930 . S
H1379 C1421 0.932 . S
H1380 C1423 0.930 . S
H1381 C1424 0.929 . S
H1382 C1426 0.931 . S
H1383 C1427 0.930 . S
H1384 C1429 0.929 . S
H1385 C1430 0.931 . S
H1386 C1432 0.930 . S
H1387 C1433 0.929 . S
O1388 H1362 0.856 . S
O1388 C1434 1.300 . S
O1389 C1434 1.209 . S
O1390 C1435 1.199 . S
O1391 H1363 0.854 . S
O1391 C1435 1.297 . S
C1392 C1393 1.404 . S
C1392 C1397 1.397 . S
C1392 C1398 1.492 . S
C1393 C1392 1.404 . S
C1393 C1394 1.396 . S
C1393 C1404 1.492 . S
C1394 C1393 1.396 . S
C1394 C1395 1.397 . S
C1394 C1410 1.509 . S
C1395 C1394 1.397 . S
C1395 C1396 1.412 . S
C1395 C1416 1.485 . S
C1396 C1395 1.412 . S
C1396 C1397 1.388 . S
C1396 C1422 1.490 . S
C1397 C1392 1.397 . S
C1397 C1396 1.388 . S
C1397 C1428 1.519 . S
C1398 C1392 1.492 . S
C1398 C1399 1.363 . S
C1398 C1403 1.390 . S
C1399 H1364 0.930 . S
C1399 C1398 1.363 . S
C1399 C1400 1.372 . S
C1400 H1365 0.930 . S
C1400 C1399 1.372 . S
C1400 C1401 1.383 . S
C1401 C1400 1.383 . S
C1401 C1402 1.395 . S
C1402 H1366 0.930 . S
C1402 C1401 1.395 . S
C1402 C1403 1.362 . S
C1403 H1367 0.930 . S
C1403 C1398 1.390 . S
C1403 C1402 1.362 . S
C1404 C1393 1.492 . S
C1404 C1405 1.377 . S
C1404 C1409 1.397 . S
C1405 H1368 0.931 . S
C1405 C1404 1.377 . S
C1405 C1406 1.376 . S
C1406 H1369 0.930 . S
C1406 C1405 1.376 . S
C1406 C1407 1.376 . S
C1407 C1406 1.376 . S
C1407 C1408 1.378 . S
C1407 C1434 1.486 . S
C1408 H1370 0.930 . S
C1408 C1407 1.378 . S
C1408 C1409 1.376 . S
C1409 H1371 0.929 . S
C1409 C1404 1.397 . S
C1409 C1408 1.376 . S
C1410 C1394 1.509 . S
C1410 C1411 1.391 . S
C1410 C1415 1.386 . S
C1411 H1372 0.930 . S
C1411 C1410 1.391 . S
C1411 C1412 1.375 . S
C1412 H1373 0.931 . S
C1412 C1411 1.375 . S
C1412 C1413 1.375 . S
C1413 C1412 1.375 . S
C1413 C1414 1.361 . S
C1414 H1374 0.930 . S
C1414 C1413 1.361 . S
C1414 C1415 1.399 . S
C1415 H1375 0.929 . S
C1415 C1410 1.386 . S
C1415 C1414 1.399 . S
C1416 C1395 1.485 . S
C1416 C1417 1.394 . S
C1416 C1421 1.360 . S
C1417 H1376 0.931 . S
C1417 C1416 1.394 . S
C1417 C1418 1.372 . S
C1418 H1377 0.930 . S
C1418 C1417 1.372 . S
C1418 C1419 1.397 . S
C1419 C1418 1.397 . S
C1419 C1420 1.390 . S
C1419 C1435 1.476 . S
C1420 H1378 0.930 . S
C1420 C1419 1.390 . S
C1420 C1421 1.366 . S
C1421 H1379 0.932 . S
C1421 C1416 1.360 . S
C1421 C1420 1.366 . S
C1422 C1396 1.490 . S
C1422 C1423 1.380 . S
C1422 C1427 1.386 . S
C1423 H1380 0.930 . S
C1423 C1422 1.380 . S
C1423 C1424 1.381 . S
C1424 H1381 0.929 . S
C1424 C1423 1.381 . S
C1424 C1425 1.371 . S
C1425 C1424 1.371 . S
C1425 C1426 1.380 . S
C1426 H1382 0.931 . S
C1426 C1425 1.380 . S
C1426 C1427 1.387 . S
C1427 H1383 0.930 . S
C1427 C1422 1.386 . S
C1427 C1426 1.387 . S
C1428 C1397 1.519 . S
C1428 C1429 1.377 . S
C1428 C1433 1.361 . S
C1429 H1384 0.929 . S
C1429 C1428 1.377 . S
C1429 C1430 1.386 . S
C1430 H1385 0.931 . S
C1430 C1429 1.386 . S
C1430 C1431 1.363 . S
C1431 C1430 1.363 . S
C1431 C1432 1.385 . S
C1432 H1386 0.930 . S
C1432 C1431 1.385 . S
C1432 C1433 1.396 . S
C1433 H1387 0.929 . S
C1433 C1428 1.361 . S
C1433 C1432 1.396 . S
C1434 O1388 1.300 . S
C1434 O1389 1.209 . S
C1434 C1407 1.486 . S
C1435 O1390 1.199 . S
C1435 O1391 1.297 . S
C1435 C1419 1.476 . S
H1436 O1462 0.856 . S
H1437 O1465 0.854 . S
H1438 C1473 0.930 . S
H1439 C1474 0.930 . S
H1440 C1476 0.930 . S
H1441 C1477 0.930 . S
H1442 C1479 0.931 . S
H1443 C1480 0.930 . S
H1444 C1482 0.930 . S
H1445 C1483 0.929 . S
H1446 C1485 0.930 . S
H1447 C1486 0.931 . S
H1448 C1488 0.930 . S
H1449 C1489 0.929 . S
H1450 C1491 0.931 . S
H1451 C1492 0.930 . S
H1452 C1494 0.930 . S
H1453 C1495 0.932 . S
H1454 C1497 0.930 . S
H1455 C1498 0.929 . S
H1456 C1500 0.931 . S
H1457 C1501 0.930 . S
H1458 C1503 0.929 . S
H1459 C1504 0.931 . S
H1460 C1506 0.930 . S
H1461 C1507 0.929 . S
O1462 H1436 0.856 . S
O1462 C1508 1.300 . S
O1463 C1508 1.209 . S
O1464 C1509 1.199 . S
O1465 H1437 0.854 . S
O1465 C1509 1.297 . S
C1466 C1467 1.404 . S
C1466 C1471 1.397 . S
C1466 C1472 1.492 . S
C1467 C1466 1.404 . S
C1467 C1468 1.396 . S
C1467 C1478 1.492 . S
C1468 C1467 1.396 . S
C1468 C1469 1.397 . S
C1468 C1484 1.509 . S
C1469 C1468 1.397 . S
C1469 C1470 1.412 . S
C1469 C1490 1.485 . S
C1470 C1469 1.412 . S
C1470 C1471 1.388 . S
C1470 C1496 1.490 . S
C1471 C1466 1.397 . S
C1471 C1470 1.388 . S
C1471 C1502 1.519 . S
C1472 C1466 1.492 . S
C1472 C1473 1.363 . S
C1472 C1477 1.390 . S
C1473 H1438 0.930 . S
C1473 C1472 1.363 . S
C1473 C1474 1.372 . S
C1474 H1439 0.930 . S
C1474 C1473 1.372 . S
C1474 C1475 1.383 . S
C1475 C1474 1.383 . S
C1475 C1476 1.395 . S
C1476 H1440 0.930 . S
C1476 C1475 1.395 . S
C1476 C1477 1.362 . S
C1477 H1441 0.930 . S
C1477 C1472 1.390 . S
C1477 C1476 1.362 . S
C1478 C1467 1.492 . S
C1478 C1479 1.377 . S
C1478 C1483 1.397 . S
C1479 H1442 0.931 . S
C1479 C1478 1.377 . S
C1479 C1480 1.376 . S
C1480 H1443 0.930 . S
C1480 C1479 1.376 . S
C1480 C1481 1.376 . S
C1481 C1480 1.376 . S
C1481 C1482 1.378 . S
C1481 C1508 1.486 . S
C1482 H1444 0.930 . S
C1482 C1481 1.378 . S
C1482 C1483 1.376 . S
C1483 H1445 0.929 . S
C1483 C1478 1.397 . S
C1483 C1482 1.376 . S
C1484 C1468 1.509 . S
C1484 C1485 1.391 . S
C1484 C1489 1.386 . S
C1485 H1446 0.930 . S
C1485 C1484 1.391 . S
C1485 C1486 1.375 . S
C1486 H1447 0.931 . S
C1486 C1485 1.375 . S
C1486 C1487 1.375 . S
C1487 C1486 1.375 . S
C1487 C1488 1.361 . S
C1488 H1448 0.930 . S
C1488 C1487 1.361 . S
C1488 C1489 1.399 . S
C1489 H1449 0.929 . S
C1489 C1484 1.386 . S
C1489 C1488 1.399 . S
C1490 C1469 1.485 . S
C1490 C1491 1.394 . S
C1490 C1495 1.360 . S
C1491 H1450 0.931 . S
C1491 C1490 1.394 . S
C1491 C1492 1.372 . S
C1492 H1451 0.930 . S
C1492 C1491 1.372 . S
C1492 C1493 1.397 . S
C1493 C1492 1.397 . S
C1493 C1494 1.390 . S
C1493 C1509 1.476 . S
C1494 H1452 0.930 . S
C1494 C1493 1.390 . S
C1494 C1495 1.366 . S
C1495 H1453 0.932 . S
C1495 C1490 1.360 . S
C1495 C1494 1.366 . S
C1496 C1470 1.490 . S
C1496 C1497 1.380 . S
C1496 C1501 1.386 . S
C1497 H1454 0.930 . S
C1497 C1496 1.380 . S
C1497 C1498 1.381 . S
C1498 H1455 0.929 . S
C1498 C1497 1.381 . S
C1498 C1499 1.371 . S
C1499 C1498 1.371 . S
C1499 C1500 1.380 . S
C1500 H1456 0.931 . S
C1500 C1499 1.380 . S
C1500 C1501 1.387 . S
C1501 H1457 0.930 . S
C1501 C1496 1.386 . S
C1501 C1500 1.387 . S
C1502 C1471 1.519 . S
C1502 C1503 1.377 . S
C1502 C1507 1.361 . S
C1503 H1458 0.929 . S
C1503 C1502 1.377 . S
C1503 C1504 1.386 . S
C1504 H1459 0.931 . S
C1504 C1503 1.386 . S
C1504 C1505 1.363 . S
C1505 C1504 1.363 . S
C1505 C1506 1.385 . S
C1506 H1460 0.930 . S
C1506 C1505 1.385 . S
C1506 C1507 1.396 . S
C1507 H1461 0.929 . S
C1507 C1502 1.361 . S
C1507 C1506 1.396 . S
C1508 O1462 1.300 . S
C1508 O1463 1.209 . S
C1508 C1481 1.486 . S
C1509 O1464 1.199 . S
C1509 O1465 1.297 . S
C1509 C1493 1.476 . S
H1510 O1536 0.856 . S
H1511 O1539 0.854 . S
H1512 C1547 0.930 . S
H1513 C1548 0.930 . S
H1514 C1550 0.930 . S
H1515 C1551 0.930 . S
H1516 C1553 0.931 . S
H1517 C1554 0.930 . S
H1518 C1556 0.930 . S
H1519 C1557 0.929 . S
H1520 C1559 0.930 . S
H1521 C1560 0.931 . S
H1522 C1562 0.930 . S
H1523 C1563 0.929 . S
H1524 C1565 0.931 . S
H1525 C1566 0.930 . S
H1526 C1568 0.930 . S
H1527 C1569 0.932 . S
H1528 C1571 0.930 . S
H1529 C1572 0.929 . S
H1530 C1574 0.931 . S
H1531 C1575 0.930 . S
H1532 C1577 0.929 . S
H1533 C1578 0.931 . S
H1534 C1580 0.930 . S
H1535 C1581 0.929 . S
O1536 H1510 0.856 . S
O1536 C1582 1.300 . S
O1537 C1582 1.209 . S
O1538 C1583 1.199 . S
O1539 H1511 0.854 . S
O1539 C1583 1.297 . S
C1540 C1541 1.404 . S
C1540 C1545 1.397 . S
C1540 C1546 1.492 . S
C1541 C1540 1.404 . S
C1541 C1542 1.396 . S
C1541 C1552 1.492 . S
C1542 C1541 1.396 . S
C1542 C1543 1.397 . S
C1542 C1558 1.509 . S
C1543 C1542 1.397 . S
C1543 C1544 1.412 . S
C1543 C1564 1.485 . S
C1544 C1543 1.412 . S
C1544 C1545 1.388 . S
C1544 C1570 1.490 . S
C1545 C1540 1.397 . S
C1545 C1544 1.388 . S
C1545 C1576 1.519 . S
C1546 C1540 1.492 . S
C1546 C1547 1.363 . S
C1546 C1551 1.390 . S
C1547 H1512 0.930 . S
C1547 C1546 1.363 . S
C1547 C1548 1.372 . S
C1548 H1513 0.930 . S
C1548 C1547 1.372 . S
C1548 C1549 1.383 . S
C1549 C1548 1.383 . S
C1549 C1550 1.395 . S
C1550 H1514 0.930 . S
C1550 C1549 1.395 . S
C1550 C1551 1.362 . S
C1551 H1515 0.930 . S
C1551 C1546 1.390 . S
C1551 C1550 1.362 . S
C1552 C1541 1.492 . S
C1552 C1553 1.377 . S
C1552 C1557 1.397 . S
C1553 H1516 0.931 . S
C1553 C1552 1.377 . S
C1553 C1554 1.376 . S
C1554 H1517 0.930 . S
C1554 C1553 1.376 . S
C1554 C1555 1.376 . S
C1555 C1554 1.376 . S
C1555 C1556 1.378 . S
C1555 C1582 1.486 . S
C1556 H1518 0.930 . S
C1556 C1555 1.378 . S
C1556 C1557 1.376 . S
C1557 H1519 0.929 . S
C1557 C1552 1.397 . S
C1557 C1556 1.376 . S
C1558 C1542 1.509 . S
C1558 C1559 1.391 . S
C1558 C1563 1.386 . S
C1559 H1520 0.930 . S
C1559 C1558 1.391 . S
C1559 C1560 1.375 . S
C1560 H1521 0.931 . S
C1560 C1559 1.375 . S
C1560 C1561 1.375 . S
C1561 C1560 1.375 . S
C1561 C1562 1.361 . S
C1562 H1522 0.930 . S
C1562 C1561 1.361 . S
C1562 C1563 1.399 . S
C1563 H1523 0.929 . S
C1563 C1558 1.386 . S
C1563 C1562 1.399 . S
C1564 C1543 1.485 . S
C1564 C1565 1.394 . S
C1564 C1569 1.360 . S
C1565 H1524 0.931 . S
C1565 C1564 1.394 . S
C1565 C1566 1.372 . S
C1566 H1525 0.930 . S
C1566 C1565 1.372 . S
C1566 C1567 1.397 . S
C1567 C1566 1.397 . S
C1567 C1568 1.390 . S
C1567 C1583 1.476 . S
C1568 H1526 0.930 . S
C1568 C1567 1.390 . S
C1568 C1569 1.366 . S
C1569 H1527 0.932 . S
C1569 C1564 1.360 . S
C1569 C1568 1.366 . S
C1570 C1544 1.490 . S
C1570 C1571 1.380 . S
C1570 C1575 1.386 . S
C1571 H1528 0.930 . S
C1571 C1570 1.380 . S
C1571 C1572 1.381 . S
C1572 H1529 0.929 . S
C1572 C1571 1.381 . S
C1572 C1573 1.371 . S
C1573 C1572 1.371 . S
C1573 C1574 1.380 . S
C1574 H1530 0.931 . S
C1574 C1573 1.380 . S
C1574 C1575 1.387 . S
C1575 H1531 0.930 . S
C1575 C1570 1.386 . S
C1575 C1574 1.387 . S
C1576 C1545 1.519 . S
C1576 C1577 1.377 . S
C1576 C1581 1.361 . S
C1577 H1532 0.929 . S
C1577 C1576 1.377 . S
C1577 C1578 1.386 . S
C1578 H1533 0.931 . S
C1578 C1577 1.386 . S
C1578 C1579 1.363 . S
C1579 C1578 1.363 . S
C1579 C1580 1.385 . S
C1580 H1534 0.930 . S
C1580 C1579 1.385 . S
C1580 C1581 1.396 . S
C1581 H1535 0.929 . S
C1581 C1576 1.361 . S
C1581 C1580 1.396 . S
C1582 O1536 1.300 . S
C1582 O1537 1.209 . S
C1582 C1555 1.486 . S
C1583 O1538 1.199 . S
C1583 O1539 1.297 . S
C1583 C1567 1.476 . S
H1584 C1596 0.930 . S
H1585 C1598 0.930 . S
H1586 C1599 0.930 . S
H1587 C1603 0.959 . S
H1588 C1603 0.959 . S
H1589 C1603 0.961 . S
H1590 C1604 0.960 1_455 S
H1591 C1604 0.973 1_455 S
H1592 C1604 0.959 . S
H1593 C1607 0.929 . S
H1594 C1608 0.931 . S
H1595 C1610 0.930 1_455 S
C1596 H1584 0.930 . S
C1596 C1597 1.399 1_455 S
C1596 C1601 1.399 1_455 S
C1597 C1596 1.399 1_655 S
C1597 C1598 1.376 . S
C1598 H1585 0.930 . S
C1598 C1597 1.376 . S
C1598 C1599 1.388 . S
C1599 H1586 0.930 . S
C1599 C1598 1.388 . S
C1599 C1600 1.390 . S
C1600 C1599 1.390 . S
C1600 C1601 1.394 . S
C1600 C1606 1.465 . S
C1601 C1596 1.399 1_655 S
C1601 C1600 1.394 . S
C1601 C1602 1.516 1_655 S
C1602 C1601 1.516 1_455 S
C1602 C1603 1.502 . S
C1602 C1604 1.561 1_455 S
C1602 C1605 1.526 1_455 S
C1603 H1587 0.959 . S
C1603 H1588 0.959 . S
C1603 H1589 0.961 . S
C1603 C1602 1.502 . S
C1604 H1590 0.960 1_655 S
C1604 H1591 0.973 1_655 S
C1604 H1592 0.959 . S
C1604 C1602 1.561 1_655 S
C1605 C1602 1.526 1_655 S
C1605 C1606 1.396 . S
C1605 C1610 1.390 . S
C1606 C1600 1.465 . S
C1606 C1605 1.396 . S
C1606 C1607 1.399 . S
C1607 H1593 0.929 . S
C1607 C1606 1.399 . S
C1607 C1608 1.385 . S
C1608 H1594 0.931 . S
C1608 C1607 1.385 . S
C1608 C1609 1.389 . S
C1609 C1608 1.389 . S
C1609 C1610 1.387 . S
C1610 H1595 0.930 1_655 S
C1610 C1605 1.390 . S
C1610 C1609 1.387 . S
H1611 C1623 0.930 . S
H1612 C1625 0.930 . S
H1613 C1626 0.930 . S
H1614 C1630 0.959 . S
H1615 C1630 0.959 . S
H1616 C1630 0.961 . S
H1617 C1631 0.960 . S
H1618 C1631 0.961 . S
H1619 C1631 0.959 . S
H1620 C1634 0.929 . S
H1621 C1635 0.931 . S
H1622 C1637 0.930 . S
C1623 H1611 0.930 . S
C1623 C1624 1.399 . S
C1623 C1628 1.399 . S
C1624 C1623 1.399 . S
C1624 C1625 1.376 . S
C1625 H1612 0.930 . S
C1625 C1624 1.376 . S
C1625 C1626 1.388 . S
C1626 H1613 0.930 . S
C1626 C1625 1.388 . S
C1626 C1627 1.390 . S
C1627 C1626 1.390 . S
C1627 C1628 1.394 . S
C1627 C1633 1.465 . S
C1628 C1623 1.399 . S
C1628 C1627 1.394 . S
C1628 C1629 1.516 . S
C1629 C1628 1.516 . S
C1629 C1630 1.502 . S
C1629 C1631 1.561 . S
C1629 C1632 1.526 . S
C1630 H1614 0.959 . S
C1630 H1615 0.959 . S
C1630 H1616 0.961 . S
C1630 C1629 1.502 . S
C1631 H1617 0.960 . S
C1631 H1618 0.961 . S
C1631 H1619 0.959 . S
C1631 C1629 1.561 . S
C1632 C1629 1.526 . S
C1632 C1633 1.396 . S
C1632 C1637 1.390 . S
C1633 C1627 1.465 . S
C1633 C1632 1.396 . S
C1633 C1634 1.399 . S
C1634 H1620 0.929 . S
C1634 C1633 1.399 . S
C1634 C1635 1.385 . S
C1635 H1621 0.931 . S
C1635 C1634 1.385 . S
C1635 C1636 1.389 . S
C1636 C1635 1.389 . S
C1636 C1637 1.387 . S
C1637 H1622 0.930 . S
C1637 C1632 1.390 . S
C1637 C1636 1.387 . S
H1638 C1650 0.930 . S
H1639 C1652 0.930 . S
H1640 C1653 0.930 . S
H1641 C1657 0.959 . S
H1642 C1657 0.959 . S
H1643 C1657 0.961 . S
H1644 C1658 0.960 . S
H1645 C1658 0.961 . S
H1646 C1658 0.959 . S
H1647 C1661 0.929 . S
H1648 C1662 0.931 . S
H1649 C1664 0.930 . S
C1650 H1638 0.930 . S
C1650 C1651 1.399 . S
C1650 C1655 1.399 . S
C1651 C1650 1.399 . S
C1651 C1652 1.376 1_545 S
C1652 H1639 0.930 . S
C1652 C1651 1.376 1_565 S
C1652 C1653 1.388 . S
C1653 H1640 0.930 . S
C1653 C1652 1.388 . S
C1653 C1654 1.390 1_565 S
C1654 C1653 1.390 1_545 S
C1654 C1655 1.394 . S
C1654 C1660 1.465 . S
C1655 C1650 1.399 . S
C1655 C1654 1.394 . S
C1655 C1656 1.516 . S
C1656 C1655 1.516 . S
C1656 C1657 1.502 . S
C1656 C1658 1.561 . S
C1656 C1659 1.526 . S
C1657 H1641 0.959 . S
C1657 H1642 0.959 . S
C1657 H1643 0.961 . S
C1657 C1656 1.502 . S
C1658 H1644 0.960 . S
C1658 H1645 0.961 . S
C1658 H1646 0.959 . S
C1658 C1656 1.561 . S
C1659 C1656 1.526 . S
C1659 C1660 1.396 . S
C1659 C1664 1.390 . S
C1660 C1654 1.465 . S
C1660 C1659 1.396 . S
C1660 C1661 1.399 1_545 S
C1661 H1647 0.929 . S
C1661 C1660 1.399 1_565 S
C1661 C1662 1.385 . S
C1662 H1648 0.931 . S
C1662 C1661 1.385 . S
C1662 C1663 1.389 1_565 S
C1663 C1662 1.389 1_545 S
C1663 C1664 1.387 . S
C1664 H1649 0.930 . S
C1664 C1659 1.390 . S
C1664 C1663 1.387 . S
H1665 C1677 0.930 . S
H1666 C1679 0.930 . S
H1667 C1680 0.930 . S
H1668 C1684 0.959 . S
H1669 C1684 0.959 . S
H1670 C1684 0.961 . S
H1671 C1685 0.960 . S
H1672 C1685 0.961 . S
H1673 C1685 0.959 . S
H1674 C1688 0.929 . S
H1675 C1689 0.931 . S
H1676 C1691 0.930 . S
C1677 H1665 0.930 . S
C1677 C1678 1.399 . S
C1677 C1682 1.399 . S
C1678 C1677 1.399 . S
C1678 C1679 1.376 1_565 S
C1679 H1666 0.930 . S
C1679 C1678 1.376 1_545 S
C1679 C1680 1.388 . S
C1680 H1667 0.930 . S
C1680 C1679 1.388 . S
C1680 C1681 1.390 1_545 S
C1681 C1680 1.390 1_565 S
C1681 C1682 1.394 . S
C1681 C1687 1.465 . S
C1682 C1677 1.399 . S
C1682 C1681 1.394 . S
C1682 C1683 1.516 . S
C1683 C1682 1.516 . S
C1683 C1684 1.502 . S
C1683 C1685 1.561 . S
C1683 C1686 1.526 . S
C1684 H1668 0.959 . S
C1684 H1669 0.959 . S
C1684 H1670 0.961 . S
C1684 C1683 1.502 . S
C1685 H1671 0.960 . S
C1685 H1672 0.961 . S
C1685 H1673 0.959 . S
C1685 C1683 1.561 . S
C1686 C1683 1.526 . S
C1686 C1687 1.396 . S
C1686 C1691 1.390 . S
C1687 C1681 1.465 . S
C1687 C1686 1.396 . S
C1687 C1688 1.399 1_565 S
C1688 H1674 0.929 . S
C1688 C1687 1.399 1_545 S
C1688 C1689 1.385 . S
C1689 H1675 0.931 . S
C1689 C1688 1.385 . S
C1689 C1690 1.389 1_545 S
C1690 C1689 1.389 1_565 S
C1690 C1691 1.387 . S
C1691 H1676 0.930 . S
C1691 C1686 1.390 . S
C1691 C1690 1.387 . S
H1692 C1704 0.930 . S
H1693 C1706 0.930 1_554 S
H1694 C1707 0.930 . S
H1695 C1711 0.959 . S
H1696 C1711 0.959 . S
H1697 C1711 0.961 . S
H1698 C1712 0.960 . S
H1699 C1712 0.961 . S
H1700 C1712 0.959 . S
H1701 C1715 0.929 . S
H1702 C1716 0.931 . S
H1703 C1718 0.930 . S
C1704 H1692 0.930 . S
C1704 C1705 1.399 . S
C1704 C1709 1.399 . S
C1705 C1704 1.399 . S
C1705 C1706 1.376 . S
C1706 H1693 0.930 1_556 S
C1706 C1705 1.376 . S
C1706 C1707 1.388 . S
C1707 H1694 0.930 . S
C1707 C1706 1.388 . S
C1707 C1708 1.390 . S
C1708 C1707 1.390 . S
C1708 C1709 1.394 . S
C1708 C1714 1.465 . S
C1709 C1704 1.399 . S
C1709 C1708 1.394 . S
C1709 C1710 1.516 . S
C1710 C1709 1.516 . S
C1710 C1711 1.502 . S
C1710 C1712 1.561 1_455 S
C1710 C1713 1.526 . S
C1711 H1695 0.959 . S
C1711 H1696 0.959 . S
C1711 H1697 0.961 . S
C1711 C1710 1.502 . S
C1712 H1698 0.960 . S
C1712 H1699 0.961 . S
C1712 H1700 0.959 . S
C1712 C1710 1.561 1_655 S
C1713 C1710 1.526 . S
C1713 C1714 1.396 . S
C1713 C1718 1.390 . S
C1714 C1708 1.465 . S
C1714 C1713 1.396 . S
C1714 C1715 1.399 . S
C1715 H1701 0.929 . S
C1715 C1714 1.399 . S
C1715 C1716 1.385 . S
C1716 H1702 0.931 . S
C1716 C1715 1.385 . S
C1716 C1717 1.389 . S
C1717 C1716 1.389 . S
C1717 C1718 1.387 . S
C1718 H1703 0.930 . S
C1718 C1713 1.390 . S
C1718 C1717 1.387 . S
H1719 C1731 0.930 . S
H1720 C1733 0.930 . S
H1721 C1734 0.930 . S
H1722 C1738 0.959 . S
H1723 C1738 0.959 . S
H1724 C1738 0.961 . S
H1725 C1739 0.960 . S
H1726 C1739 0.961 . S
H1727 C1739 0.959 . S
H1728 C1742 0.929 . S
H1729 C1743 0.931 . S
H1730 C1745 0.930 . S
C1731 H1719 0.930 . S
C1731 C1732 1.399 . S
C1731 C1736 1.399 1_554 S
C1732 C1731 1.399 . S
C1732 C1733 1.376 . S
C1733 H1720 0.930 . S
C1733 C1732 1.376 . S
C1733 C1734 1.388 1_554 S
C1734 H1721 0.930 . S
C1734 C1733 1.388 1_556 S
C1734 C1735 1.390 . S
C1735 C1734 1.390 . S
C1735 C1736 1.394 . S
C1735 C1741 1.465 . S
C1736 C1731 1.399 1_556 S
C1736 C1735 1.394 . S
C1736 C1737 1.516 . S
C1737 C1736 1.516 . S
C1737 C1738 1.502 . S
C1737 C1739 1.561 . S
C1737 C1740 1.526 . S
C1738 H1722 0.959 . S
C1738 H1723 0.959 . S
C1738 H1724 0.961 . S
C1738 C1737 1.502 . S
C1739 H1725 0.960 . S
C1739 H1726 0.961 . S
C1739 H1727 0.959 . S
C1739 C1737 1.561 . S
C1740 C1737 1.526 . S
C1740 C1741 1.396 . S
C1740 C1745 1.390 . S
C1741 C1735 1.465 . S
C1741 C1740 1.396 . S
C1741 C1742 1.399 . S
C1742 H1728 0.929 . S
C1742 C1741 1.399 . S
C1742 C1743 1.385 . S
C1743 H1729 0.931 . S
C1743 C1742 1.385 . S
C1743 C1744 1.389 . S
C1744 C1743 1.389 . S
C1744 C1745 1.387 . S
C1745 H1730 0.930 . S
C1745 C1740 1.390 . S
C1745 C1744 1.387 . S
H1746 C1758 0.930 . S
H1747 C1760 0.930 . S
H1748 C1761 0.930 . S
H1749 C1765 0.959 . S
H1750 C1765 0.959 . S
H1751 C1765 0.961 . S
H1752 C1766 0.960 . S
H1753 C1766 0.961 . S
H1754 C1766 0.959 . S
H1755 C1769 0.929 . S
H1756 C1770 0.931 . S
H1757 C1772 0.930 . S
C1758 H1746 0.930 . S
C1758 C1759 1.399 1_556 S
C1758 C1763 1.399 . S
C1759 C1758 1.399 1_554 S
C1759 C1760 1.376 1_455 S
C1760 H1747 0.930 . S
C1760 C1759 1.376 1_655 S
C1760 C1761 1.388 1_554 S
C1761 H1748 0.930 . S
C1761 C1760 1.388 1_556 S
C1761 C1762 1.410 . S
C1762 C1761 1.410 . S
C1762 C1763 1.381 1_655 S
C1762 C1768 1.456 . S
C1763 C1758 1.399 . S
C1763 C1762 1.381 1_455 S
C1763 C1764 1.516 . S
C1764 C1763 1.516 . S
C1764 C1765 1.502 . S
C1764 C1766 1.561 . S
C1764 C1767 1.526 . S
C1765 H1749 0.959 . S
C1765 H1750 0.959 . S
C1765 H1751 0.961 . S
C1765 C1764 1.502 . S
C1766 H1752 0.960 . S
C1766 H1753 0.961 . S
C1766 H1754 0.959 . S
C1766 C1764 1.561 . S
C1767 C1764 1.526 . S
C1767 C1768 1.396 1_455 S
C1767 C1772 1.390 . S
C1768 C1762 1.456 . S
C1768 C1767 1.396 1_655 S
C1768 C1769 1.399 . S
C1769 H1755 0.929 . S
C1769 C1768 1.399 . S
C1769 C1770 1.385 . S
C1770 H1756 0.931 . S
C1770 C1769 1.385 . S
C1770 C1771 1.366 1_655 S
C1771 C1770 1.366 1_455 S
C1771 C1772 1.395 . S
C1772 H1757 0.930 . S
C1772 C1767 1.390 . S
C1772 C1771 1.395 . S
H1773 C1785 0.930 . S
H1774 C1787 0.930 . S
H1775 C1788 0.930 . S
H1776 C1792 0.959 . S
H1777 C1792 0.959 . S
H1778 C1792 0.961 . S
H1779 C1793 0.960 . S
H1780 C1793 0.961 . S
H1781 C1793 0.959 . S
H1782 C1796 0.929 . S
H1783 C1797 0.931 . S
H1784 C1799 0.930 . S
C1785 H1773 0.930 . S
C1785 C1786 1.399 . S
C1785 C1790 1.399 . S
C1786 C1785 1.399 . S
C1786 C1787 1.376 . S
C1787 H1774 0.930 . S
C1787 C1786 1.376 . S
C1787 C1788 1.388 . S
C1788 H1775 0.930 . S
C1788 C1787 1.388 . S
C1788 C1789 1.390 . S
C1789 C1788 1.390 . S
C1789 C1790 1.394 . S
C1789 C1795 1.465 . S
C1790 C1785 1.399 . S
C1790 C1789 1.394 . S
C1790 C1791 1.516 . S
C1791 C1790 1.516 . S
C1791 C1792 1.502 . S
C1791 C1793 1.561 . S
C1791 C1794 1.526 . S
C1792 H1776 0.959 . S
C1792 H1777 0.959 . S
C1792 H1778 0.961 . S
C1792 C1791 1.502 . S
C1793 H1779 0.960 . S
C1793 H1780 0.961 . S
C1793 H1781 0.959 . S
C1793 C1791 1.561 . S
C1794 C1791 1.526 . S
C1794 C1795 1.396 . S
C1794 C1799 1.390 . S
C1795 C1789 1.465 . S
C1795 C1794 1.396 . S
C1795 C1796 1.399 . S
C1796 H1782 0.929 . S
C1796 C1795 1.399 . S
C1796 C1797 1.385 . S
C1797 H1783 0.931 . S
C1797 C1796 1.385 . S
C1797 C1798 1.389 . S
C1798 C1797 1.389 . S
C1798 C1799 1.387 . S
C1799 H1784 0.930 . S
C1799 C1794 1.390 . S
C1799 C1798 1.387 . S
H1800 C1812 0.930 . S
H1801 C1814 0.930 . S
H1802 C1815 0.930 . S
H1803 C1819 0.959 . S
H1804 C1819 0.959 . S
H1805 C1819 0.961 . S
H1806 C1820 0.960 . S
H1807 C1820 0.961 . S
H1808 C1820 0.959 . S
H1809 C1823 0.929 . S
H1810 C1824 0.931 . S
H1811 C1826 0.930 . S
C1812 H1800 0.930 . S
C1812 C1813 1.399 1_556 S
C1812 C1817 1.399 . S
C1813 C1812 1.399 1_554 S
C1813 C1814 1.376 1_565 S
C1814 H1801 0.930 . S
C1814 C1813 1.376 1_545 S
C1814 C1815 1.388 1_554 S
C1815 H1802 0.930 . S
C1815 C1814 1.388 1_556 S
C1815 C1816 1.390 . S
C1816 C1815 1.390 . S
C1816 C1817 1.394 1_545 S
C1816 C1822 1.465 . S
C1817 C1812 1.399 . S
C1817 C1816 1.394 1_565 S
C1817 C1818 1.516 . S
C1818 C1817 1.516 . S
C1818 C1819 1.502 . S
C1818 C1820 1.561 . S
C1818 C1821 1.526 . S
C1819 H1803 0.959 . S
C1819 H1804 0.959 . S
C1819 H1805 0.961 . S
C1819 C1818 1.502 . S
C1820 H1806 0.960 . S
C1820 H1807 0.961 . S
C1820 H1808 0.959 . S
C1820 C1818 1.561 . S
C1821 C1818 1.526 . S
C1821 C1822 1.396 1_565 S
C1821 C1826 1.390 . S
C1822 C1816 1.465 . S
C1822 C1821 1.396 1_545 S
C1822 C1823 1.399 . S
C1823 H1809 0.929 . S
C1823 C1822 1.399 . S
C1823 C1824 1.385 . S
C1824 H1810 0.931 . S
C1824 C1823 1.385 . S
C1824 C1825 1.389 . S
C1825 C1824 1.389 . S
C1825 C1826 1.387 1_545 S
C1826 H1811 0.930 . S
C1826 C1821 1.390 . S
C1826 C1825 1.387 1_565 S
H1827 C1839 0.930 . S
H1828 C1841 0.930 . S
H1829 C1842 0.930 . S
H1830 C1846 0.959 . S
H1831 C1846 0.959 . S
H1832 C1846 0.961 . S
H1833 C1847 0.960 . S
H1834 C1847 0.961 . S
H1835 C1847 0.959 . S
H1836 C1850 0.929 . S
H1837 C1851 0.931 . S
H1838 C1853 0.930 . S
C1839 H1827 0.930 . S
C1839 C1840 1.399 . S
C1839 C1844 1.399 . S
C1840 C1839 1.399 . S
C1840 C1841 1.376 1_545 S
C1841 H1828 0.930 . S
C1841 C1840 1.376 1_565 S
C1841 C1842 1.388 . S
C1842 H1829 0.930 . S
C1842 C1841 1.388 . S
C1842 C1843 1.390 . S
C1843 C1842 1.390 . S
C1843 C1844 1.394 1_565 S
C1843 C1849 1.465 . S
C1844 C1839 1.399 . S
C1844 C1843 1.394 1_545 S
C1844 C1845 1.516 . S
C1845 C1844 1.516 . S
C1845 C1846 1.502 . S
C1845 C1847 1.561 . S
C1845 C1848 1.526 . S
C1846 H1830 0.959 . S
C1846 H1831 0.959 . S
C1846 H1832 0.961 . S
C1846 C1845 1.502 . S
C1847 H1833 0.960 . S
C1847 H1834 0.961 . S
C1847 H1835 0.959 . S
C1847 C1845 1.561 . S
C1848 C1845 1.526 . S
C1848 C1849 1.396 1_545 S
C1848 C1853 1.390 . S
C1849 C1843 1.465 . S
C1849 C1848 1.396 1_565 S
C1849 C1850 1.399 . S
C1850 H1836 0.929 . S
C1850 C1849 1.399 . S
C1850 C1851 1.385 . S
C1851 H1837 0.931 . S
C1851 C1850 1.385 . S
C1851 C1852 1.389 . S
C1852 C1851 1.389 . S
C1852 C1853 1.387 1_565 S
C1853 H1838 0.930 . S
C1853 C1848 1.390 . S
C1853 C1852 1.387 1_545 S
H1854 C1866 0.930 . S
H1855 C1868 0.930 . S
H1856 C1869 0.930 . S
H1857 C1873 0.959 . S
H1858 C1873 0.956 1_655 S
H1859 C1873 0.948 1_655 S
H1860 C1874 0.960 . S
H1861 C1874 0.961 . S
H1862 C1874 0.959 . S
H1863 C1877 0.900 1_455 S
H1864 C1878 0.931 . S
H1865 C1880 0.930 . S
C1866 H1854 0.930 . S
C1866 C1867 1.399 . S
C1866 C1871 1.399 . S
C1867 C1866 1.399 . S
C1867 C1868 1.376 . S
C1868 H1855 0.930 . S
C1868 C1867 1.376 . S
C1868 C1869 1.388 . S
C1869 H1856 0.930 . S
C1869 C1868 1.388 . S
C1869 C1870 1.390 . S
C1870 C1869 1.390 . S
C1870 C1871 1.394 . S
C1870 C1876 1.465 . S
C1871 C1866 1.399 . S
C1871 C1870 1.394 . S
C1871 C1872 1.516 . S
C1872 C1871 1.516 . S
C1872 C1873 1.502 1_655 S
C1872 C1874 1.561 . S
C1872 C1875 1.526 . S
C1873 H1857 0.959 . S
C1873 H1858 0.956 1_455 S
C1873 H1859 0.948 1_455 S
C1873 C1872 1.502 1_455 S
C1874 H1860 0.960 . S
C1874 H1861 0.961 . S
C1874 H1862 0.959 . S
C1874 C1872 1.561 . S
C1875 C1872 1.526 . S
C1875 C1876 1.396 . S
C1875 C1880 1.390 . S
C1876 C1870 1.465 . S
C1876 C1875 1.396 . S
C1876 C1877 1.424 . S
C1877 H1863 0.900 1_655 S
C1877 C1876 1.424 . S
C1877 C1878 1.375 1_655 S
C1878 H1864 0.931 . S
C1878 C1877 1.375 1_455 S
C1878 C1879 1.389 1_455 S
C1879 C1878 1.389 1_655 S
C1879 C1880 1.387 . S
C1880 H1865 0.930 . S
C1880 C1875 1.390 . S
C1880 C1879 1.387 . S
H1881 C1893 0.930 . S
H1882 C1895 0.930 . S
H1883 C1896 0.930 . S
H1884 C1900 0.959 . S
H1885 C1900 0.959 . S
H1886 C1900 0.961 . S
H1887 C1901 0.960 . S
H1888 C1901 0.961 . S
H1889 C1901 0.959 . S
H1890 C1904 0.929 . S
H1891 C1905 0.931 . S
H1892 C1907 0.930 . S
C1893 H1881 0.930 . S
C1893 C1894 1.399 . S
C1893 C1898 1.399 . S
C1894 C1893 1.399 . S
C1894 C1895 1.376 . S
C1895 H1882 0.930 . S
C1895 C1894 1.376 . S
C1895 C1896 1.388 . S
C1896 H1883 0.930 . S
C1896 C1895 1.388 . S
C1896 C1897 1.390 . S
C1897 C1896 1.390 . S
C1897 C1898 1.394 . S
C1897 C1903 1.465 . S
C1898 C1893 1.399 . S
C1898 C1897 1.394 . S
C1898 C1899 1.516 . S
C1899 C1898 1.516 . S
C1899 C1900 1.502 . S
C1899 C1901 1.561 . S
C1899 C1902 1.526 . S
C1900 H1884 0.959 . S
C1900 H1885 0.959 . S
C1900 H1886 0.961 . S
C1900 C1899 1.502 . S
C1901 H1887 0.960 . S
C1901 H1888 0.961 . S
C1901 H1889 0.959 . S
C1901 C1899 1.561 . S
C1902 C1899 1.526 . S
C1902 C1903 1.396 . S
C1902 C1907 1.390 . S
C1903 C1897 1.465 . S
C1903 C1902 1.396 . S
C1903 C1904 1.399 . S
C1904 H1890 0.929 . S
C1904 C1903 1.399 . S
C1904 C1905 1.385 . S
C1905 H1891 0.931 . S
C1905 C1904 1.385 . S
C1905 C1906 1.389 . S
C1906 C1905 1.389 . S
C1906 C1907 1.387 . S
C1907 H1892 0.930 . S
C1907 C1902 1.390 . S
C1907 C1906 1.387 . S
H1908 C1920 0.930 . S
H1909 C1922 0.930 . S
H1910 C1923 0.930 . S
H1911 C1927 0.959 . S
H1912 C1927 0.959 . S
H1913 C1927 0.961 . S
H1914 C1928 0.960 . S
H1915 C1928 0.961 . S
H1916 C1928 0.959 . S
H1917 C1931 0.929 . S
H1918 C1932 0.931 . S
H1919 C1934 0.930 . S
C1920 H1908 0.930 . S
C1920 C1921 1.399 . S
C1920 C1925 1.399 . S
C1921 C1920 1.399 . S
C1921 C1922 1.376 . S
C1922 H1909 0.930 . S
C1922 C1921 1.376 . S
C1922 C1923 1.388 . S
C1923 H1910 0.930 . S
C1923 C1922 1.388 . S
C1923 C1924 1.390 . S
C1924 C1923 1.390 . S
C1924 C1925 1.394 . S
C1924 C1930 1.465 . S
C1925 C1920 1.399 . S
C1925 C1924 1.394 . S
C1925 C1926 1.516 . S
C1926 C1925 1.516 . S
C1926 C1927 1.502 . S
C1926 C1928 1.561 . S
C1926 C1929 1.526 . S
C1927 H1911 0.959 . S
C1927 H1912 0.959 . S
C1927 H1913 0.961 . S
C1927 C1926 1.502 . S
C1928 H1914 0.960 . S
C1928 H1915 0.961 . S
C1928 H1916 0.959 . S
C1928 C1926 1.561 . S
C1929 C1926 1.526 . S
C1929 C1930 1.396 . S
C1929 C1934 1.390 . S
C1930 C1924 1.465 . S
C1930 C1929 1.396 . S
C1930 C1931 1.399 . S
C1931 H1917 0.929 . S
C1931 C1930 1.399 . S
C1931 C1932 1.385 . S
C1932 H1918 0.931 . S
C1932 C1931 1.385 . S
C1932 C1933 1.389 . S
C1933 C1932 1.389 . S
C1933 C1934 1.387 . S
C1934 H1919 0.930 . S
C1934 C1929 1.390 . S
C1934 C1933 1.387 . S
H1935 C1947 0.930 . S
H1936 C1949 0.930 . S
H1937 C1950 0.930 . S
H1938 C1954 0.959 . S
H1939 C1954 0.959 . S
H1940 C1954 0.961 . S
H1941 C1955 0.960 . S
H1942 C1955 0.961 . S
H1943 C1955 0.959 . S
H1944 C1958 0.929 . S
H1945 C1959 0.931 . S
H1946 C1961 0.930 . S
C1947 H1935 0.930 . S
C1947 C1948 1.399 . S
C1947 C1952 1.399 . S
C1948 C1947 1.399 . S
C1948 C1949 1.376 . S
C1949 H1936 0.930 . S
C1949 C1948 1.376 . S
C1949 C1950 1.388 . S
C1950 H1937 0.930 . S
C1950 C1949 1.388 . S
C1950 C1951 1.390 . S
C1951 C1950 1.390 . S
C1951 C1952 1.394 . S
C1951 C1957 1.465 . S
C1952 C1947 1.399 . S
C1952 C1951 1.394 . S
C1952 C1953 1.516 . S
C1953 C1952 1.516 . S
C1953 C1954 1.502 . S
C1953 C1955 1.561 . S
C1953 C1956 1.526 . S
C1954 H1938 0.959 . S
C1954 H1939 0.959 . S
C1954 H1940 0.961 . S
C1954 C1953 1.502 . S
C1955 H1941 0.960 . S
C1955 H1942 0.961 . S
C1955 H1943 0.959 . S
C1955 C1953 1.561 . S
C1956 C1953 1.526 . S
C1956 C1957 1.396 . S
C1956 C1961 1.390 . S
C1957 C1951 1.465 . S
C1957 C1956 1.396 . S
C1957 C1958 1.399 . S
C1958 H1944 0.929 . S
C1958 C1957 1.399 . S
C1958 C1959 1.385 . S
C1959 H1945 0.931 . S
C1959 C1958 1.385 . S
C1959 C1960 1.389 . S
C1960 C1959 1.389 . S
C1960 C1961 1.387 . S
C1961 H1946 0.930 . S
C1961 C1956 1.390 . S
C1961 C1960 1.387 . S
H1962 C1974 0.930 . S
H1963 C1976 0.930 . S
H1964 C1977 0.930 . S
H1965 C1981 0.959 . S
H1966 C1981 0.959 . S
H1967 C1981 0.961 . S
H1968 C1982 0.960 . S
H1969 C1982 0.961 . S
H1970 C1982 0.959 . S
H1971 C1985 0.929 . S
H1972 C1986 0.931 . S
H1973 C1988 0.930 . S
C1974 H1962 0.930 . S
C1974 C1975 1.399 . S
C1974 C1979 1.399 . S
C1975 C1974 1.399 . S
C1975 C1976 1.376 . S
C1976 H1963 0.930 . S
C1976 C1975 1.376 . S
C1976 C1977 1.388 . S
C1977 H1964 0.930 . S
C1977 C1976 1.388 . S
C1977 C1978 1.390 . S
C1978 C1977 1.390 . S
C1978 C1979 1.394 . S
C1978 C1984 1.465 . S
C1979 C1974 1.399 . S
C1979 C1978 1.394 . S
C1979 C1980 1.516 . S
C1980 C1979 1.516 . S
C1980 C1981 1.502 . S
C1980 C1982 1.561 . S
C1980 C1983 1.526 . S
C1981 H1965 0.959 . S
C1981 H1966 0.959 . S
C1981 H1967 0.961 . S
C1981 C1980 1.502 . S
C1982 H1968 0.960 . S
C1982 H1969 0.961 . S
C1982 H1970 0.959 . S
C1982 C1980 1.561 . S
C1983 C1980 1.526 . S
C1983 C1984 1.396 . S
C1983 C1988 1.390 . S
C1984 C1978 1.465 . S
C1984 C1983 1.396 . S
C1984 C1985 1.399 . S
C1985 H1971 0.929 . S
C1985 C1984 1.399 . S
C1985 C1986 1.385 . S
C1986 H1972 0.931 . S
C1986 C1985 1.385 . S
C1986 C1987 1.389 . S
C1987 C1986 1.389 . S
C1987 C1988 1.387 . S
C1988 H1973 0.930 . S
C1988 C1983 1.390 . S
C1988 C1987 1.387 . S
H1989 C2001 0.930 . S
H1990 C2003 0.930 . S
H1991 C2004 0.930 . S
H1992 C2008 0.959 . S
H1993 C2008 0.959 . S
H1994 C2008 0.961 . S
H1995 C2009 0.960 . S
H1996 C2009 0.961 . S
H1997 C2009 0.959 . S
H1998 C2012 0.929 . S
H1999 C2013 0.931 . S
H2000 C2015 0.930 . S
C2001 H1989 0.930 . S
C2001 C2002 1.399 . S
C2001 C2006 1.399 . S
C2002 C2001 1.399 . S
C2002 C2003 1.376 . S
C2003 H1990 0.930 . S
C2003 C2002 1.376 . S
C2003 C2004 1.388 . S
C2004 H1991 0.930 . S
C2004 C2003 1.388 . S
C2004 C2005 1.390 . S
C2005 C2004 1.390 . S
C2005 C2006 1.394 . S
C2005 C2011 1.465 . S
C2006 C2001 1.399 . S
C2006 C2005 1.394 . S
C2006 C2007 1.516 . S
C2007 C2006 1.516 . S
C2007 C2008 1.502 . S
C2007 C2009 1.561 . S
C2007 C2010 1.526 . S
C2008 H1992 0.959 . S
C2008 H1993 0.959 . S
C2008 H1994 0.961 . S
C2008 C2007 1.502 . S
C2009 H1995 0.960 . S
C2009 H1996 0.961 . S
C2009 H1997 0.959 . S
C2009 C2007 1.561 . S
C2010 C2007 1.526 . S
C2010 C2011 1.396 . S
C2010 C2015 1.390 . S
C2011 C2005 1.465 . S
C2011 C2010 1.396 . S
C2011 C2012 1.399 . S
C2012 H1998 0.929 . S
C2012 C2011 1.399 . S
C2012 C2013 1.385 . S
C2013 H1999 0.931 . S
C2013 C2012 1.385 . S
C2013 C2014 1.389 . S
C2014 C2013 1.389 . S
C2014 C2015 1.387 . S
C2015 H2000 0.930 . S
C2015 C2010 1.390 . S
C2015 C2014 1.387 . S
H2016 C2028 0.930 . S
H2017 C2030 0.930 . S
H2018 C2031 0.930 . S
H2019 C2035 0.959 . S
H2020 C2035 0.959 . S
H2021 C2035 0.961 . S
H2022 C2036 0.960 . S
H2023 C2036 0.961 . S
H2024 C2036 0.959 . S
H2025 C2039 0.929 . S
H2026 C2040 0.931 . S
H2027 C2042 0.930 . S
C2028 H2016 0.930 . S
C2028 C2029 1.399 . S
C2028 C2033 1.399 . S
C2029 C2028 1.399 . S
C2029 C2030 1.376 . S
C2030 H2017 0.930 . S
C2030 C2029 1.376 . S
C2030 C2031 1.388 . S
C2031 H2018 0.930 . S
C2031 C2030 1.388 . S
C2031 C2032 1.390 . S
C2032 C2031 1.390 . S
C2032 C2033 1.394 . S
C2032 C2038 1.465 . S
C2033 C2028 1.399 . S
C2033 C2032 1.394 . S
C2033 C2034 1.516 . S
C2034 C2033 1.516 . S
C2034 C2035 1.502 . S
C2034 C2036 1.561 . S
C2034 C2037 1.526 . S
C2035 H2019 0.959 . S
C2035 H2020 0.959 . S
C2035 H2021 0.961 . S
C2035 C2034 1.502 . S
C2036 H2022 0.960 . S
C2036 H2023 0.961 . S
C2036 H2024 0.959 . S
C2036 C2034 1.561 . S
C2037 C2034 1.526 . S
C2037 C2038 1.396 . S
C2037 C2042 1.390 . S
C2038 C2032 1.465 . S
C2038 C2037 1.396 . S
C2038 C2039 1.399 . S
C2039 H2025 0.929 . S
C2039 C2038 1.399 . S
C2039 C2040 1.385 . S
C2040 H2026 0.931 . S
C2040 C2039 1.385 . S
C2040 C2041 1.389 . S
C2041 C2040 1.389 . S
C2041 C2042 1.387 . S
C2042 H2027 0.930 . S
C2042 C2037 1.390 . S
C2042 C2041 1.387 . S
H2043 C2055 0.930 . S
H2044 C2057 0.930 . S
H2045 C2058 0.930 . S
H2046 C2062 0.959 . S
H2047 C2062 0.959 . S
H2048 C2062 0.961 . S
H2049 C2063 0.960 . S
H2050 C2063 0.961 . S
H2051 C2063 0.959 . S
H2052 C2066 0.929 . S
H2053 C2067 0.931 . S
H2054 C2069 0.930 . S
C2055 H2043 0.930 . S
C2055 C2056 1.399 . S
C2055 C2060 1.399 . S
C2056 C2055 1.399 . S
C2056 C2057 1.376 . S
C2057 H2044 0.930 . S
C2057 C2056 1.376 . S
C2057 C2058 1.388 . S
C2058 H2045 0.930 . S
C2058 C2057 1.388 . S
C2058 C2059 1.390 . S
C2059 C2058 1.390 . S
C2059 C2060 1.394 . S
C2059 C2065 1.465 . S
C2060 C2055 1.399 . S
C2060 C2059 1.394 . S
C2060 C2061 1.516 . S
C2061 C2060 1.516 . S
C2061 C2062 1.502 . S
C2061 C2063 1.561 . S
C2061 C2064 1.526 . S
C2062 H2046 0.959 . S
C2062 H2047 0.959 . S
C2062 H2048 0.961 . S
C2062 C2061 1.502 . S
C2063 H2049 0.960 . S
C2063 H2050 0.961 . S
C2063 H2051 0.959 . S
C2063 C2061 1.561 . S
C2064 C2061 1.526 . S
C2064 C2065 1.396 . S
C2064 C2069 1.390 . S
C2065 C2059 1.465 . S
C2065 C2064 1.396 . S
C2065 C2066 1.399 . S
C2066 H2052 0.929 . S
C2066 C2065 1.399 . S
C2066 C2067 1.385 . S
C2067 H2053 0.931 . S
C2067 C2066 1.385 . S
C2067 C2068 1.389 . S
C2068 C2067 1.389 . S
C2068 C2069 1.387 . S
C2069 H2054 0.930 . S
C2069 C2064 1.390 . S
C2069 C2068 1.387 . S
H2070 C2082 0.930 . S
H2071 C2084 0.930 . S
H2072 C2085 0.930 . S
H2073 C2089 0.959 . S
H2074 C2089 0.959 . S
H2075 C2089 0.961 . S
H2076 C2090 0.960 . S
H2077 C2090 0.961 . S
H2078 C2090 0.959 . S
H2079 C2093 0.929 . S
H2080 C2094 0.931 . S
H2081 C2096 0.930 . S
C2082 H2070 0.930 . S
C2082 C2083 1.399 . S
C2082 C2087 1.399 . S
C2083 C2082 1.399 . S
C2083 C2084 1.376 . S
C2084 H2071 0.930 . S
C2084 C2083 1.376 . S
C2084 C2085 1.388 . S
C2085 H2072 0.930 . S
C2085 C2084 1.388 . S
C2085 C2086 1.390 . S
C2086 C2085 1.390 . S
C2086 C2087 1.394 . S
C2086 C2092 1.465 . S
C2087 C2082 1.399 . S
C2087 C2086 1.394 . S
C2087 C2088 1.516 . S
C2088 C2087 1.516 . S
C2088 C2089 1.502 . S
C2088 C2090 1.561 . S
C2088 C2091 1.526 . S
C2089 H2073 0.959 . S
C2089 H2074 0.959 . S
C2089 H2075 0.961 . S
C2089 C2088 1.502 . S
C2090 H2076 0.960 . S
C2090 H2077 0.961 . S
C2090 H2078 0.959 . S
C2090 C2088 1.561 . S
C2091 C2088 1.526 . S
C2091 C2092 1.396 . S
C2091 C2096 1.390 . S
C2092 C2086 1.465 . S
C2092 C2091 1.396 . S
C2092 C2093 1.399 . S
C2093 H2079 0.929 . S
C2093 C2092 1.399 . S
C2093 C2094 1.385 . S
C2094 H2080 0.931 . S
C2094 C2093 1.385 . S
C2094 C2095 1.389 . S
C2095 C2094 1.389 . S
C2095 C2096 1.387 . S
C2096 H2081 0.930 . S
C2096 C2091 1.390 . S
C2096 C2095 1.387 . S
H2097 C2109 0.930 . S
H2098 C2111 0.930 . S
H2099 C2112 0.930 . S
H2100 C2116 0.959 . S
H2101 C2116 0.959 . S
H2102 C2116 0.961 . S
H2103 C2117 0.960 . S
H2104 C2117 0.961 . S
H2105 C2117 0.959 . S
H2106 C2120 0.929 . S
H2107 C2121 0.931 . S
H2108 C2123 0.930 . S
C2109 H2097 0.930 . S
C2109 C2110 1.399 . S
C2109 C2114 1.399 . S
C2110 C2109 1.399 . S
C2110 C2111 1.376 . S
C2111 H2098 0.930 . S
C2111 C2110 1.376 . S
C2111 C2112 1.388 . S
C2112 H2099 0.930 . S
C2112 C2111 1.388 . S
C2112 C2113 1.390 . S
C2113 C2112 1.390 . S
C2113 C2114 1.394 . S
C2113 C2119 1.465 . S
C2114 C2109 1.399 . S
C2114 C2113 1.394 . S
C2114 C2115 1.516 . S
C2115 C2114 1.516 . S
C2115 C2116 1.502 . S
C2115 C2117 1.561 . S
C2115 C2118 1.526 . S
C2116 H2100 0.959 . S
C2116 H2101 0.959 . S
C2116 H2102 0.961 . S
C2116 C2115 1.502 . S
C2117 H2103 0.960 . S
C2117 H2104 0.961 . S
C2117 H2105 0.959 . S
C2117 C2115 1.561 . S
C2118 C2115 1.526 . S
C2118 C2119 1.396 . S
C2118 C2123 1.390 . S
C2119 C2113 1.465 . S
C2119 C2118 1.396 . S
C2119 C2120 1.399 . S
C2120 H2106 0.929 . S
C2120 C2119 1.399 . S
C2120 C2121 1.385 . S
C2121 H2107 0.931 . S
C2121 C2120 1.385 . S
C2121 C2122 1.389 . S
C2122 C2121 1.389 . S
C2122 C2123 1.387 . S
C2123 H2108 0.930 . S
C2123 C2118 1.390 . S
C2123 C2122 1.387 . S
H2124 C2136 0.930 . S
H2125 C2138 0.930 . S
H2126 C2139 0.930 . S
H2127 C2143 0.959 . S
H2128 C2143 0.959 . S
H2129 C2143 0.961 . S
H2130 C2144 0.960 . S
H2131 C2144 0.961 . S
H2132 C2144 0.959 . S
H2133 C2147 0.929 . S
H2134 C2148 0.931 . S
H2135 C2150 0.930 . S
C2136 H2124 0.930 . S
C2136 C2137 1.399 . S
C2136 C2141 1.399 . S
C2137 C2136 1.399 . S
C2137 C2138 1.376 . S
C2138 H2125 0.930 . S
C2138 C2137 1.376 . S
C2138 C2139 1.388 . S
C2139 H2126 0.930 . S
C2139 C2138 1.388 . S
C2139 C2140 1.390 . S
C2140 C2139 1.390 . S
C2140 C2141 1.394 . S
C2140 C2146 1.465 . S
C2141 C2136 1.399 . S
C2141 C2140 1.394 . S
C2141 C2142 1.516 . S
C2142 C2141 1.516 . S
C2142 C2143 1.502 . S
C2142 C2144 1.561 . S
C2142 C2145 1.526 . S
C2143 H2127 0.959 . S
C2143 H2128 0.959 . S
C2143 H2129 0.961 . S
C2143 C2142 1.502 . S
C2144 H2130 0.960 . S
C2144 H2131 0.961 . S
C2144 H2132 0.959 . S
C2144 C2142 1.561 . S
C2145 C2142 1.526 . S
C2145 C2146 1.396 . S
C2145 C2150 1.390 . S
C2146 C2140 1.465 . S
C2146 C2145 1.396 . S
C2146 C2147 1.399 . S
C2147 H2133 0.929 . S
C2147 C2146 1.399 . S
C2147 C2148 1.385 . S
C2148 H2134 0.931 . S
C2148 C2147 1.385 . S
C2148 C2149 1.389 . S
C2149 C2148 1.389 . S
C2149 C2150 1.387 . S
C2150 H2135 0.930 . S
C2150 C2145 1.390 . S
C2150 C2149 1.387 . S
H2151 C2163 0.930 . S
H2152 C2165 0.930 . S
H2153 C2166 0.930 . S
H2154 C2170 0.959 . S
H2155 C2170 0.959 . S
H2156 C2170 0.961 . S
H2157 C2171 0.960 . S
H2158 C2171 0.961 . S
H2159 C2171 0.959 . S
H2160 C2174 0.929 . S
H2161 C2175 0.931 . S
H2162 C2177 0.930 . S
C2163 H2151 0.930 . S
C2163 C2164 1.399 . S
C2163 C2168 1.399 . S
C2164 C2163 1.399 . S
C2164 C2165 1.376 . S
C2165 H2152 0.930 . S
C2165 C2164 1.376 . S
C2165 C2166 1.388 . S
C2166 H2153 0.930 . S
C2166 C2165 1.388 . S
C2166 C2167 1.390 . S
C2167 C2166 1.390 . S
C2167 C2168 1.394 . S
C2167 C2173 1.465 . S
C2168 C2163 1.399 . S
C2168 C2167 1.394 . S
C2168 C2169 1.516 . S
C2169 C2168 1.516 . S
C2169 C2170 1.502 . S
C2169 C2171 1.561 . S
C2169 C2172 1.526 . S
C2170 H2154 0.959 . S
C2170 H2155 0.959 . S
C2170 H2156 0.961 . S
C2170 C2169 1.502 . S
C2171 H2157 0.960 . S
C2171 H2158 0.961 . S
C2171 H2159 0.959 . S
C2171 C2169 1.561 . S
C2172 C2169 1.526 . S
C2172 C2173 1.396 . S
C2172 C2177 1.390 . S
C2173 C2167 1.465 . S
C2173 C2172 1.396 . S
C2173 C2174 1.399 . S
C2174 H2160 0.929 . S
C2174 C2173 1.399 . S
C2174 C2175 1.385 . S
C2175 H2161 0.931 . S
C2175 C2174 1.385 . S
C2175 C2176 1.389 . S
C2176 C2175 1.389 . S
C2176 C2177 1.387 . S
C2177 H2162 0.930 . S
C2177 C2172 1.390 . S
C2177 C2176 1.387 . S
H2178 C2190 0.930 . S
H2179 C2192 0.930 . S
H2180 C2193 0.930 . S
H2181 C2197 0.959 . S
H2182 C2197 0.959 . S
H2183 C2197 0.961 . S
H2184 C2198 0.960 . S
H2185 C2198 0.961 . S
H2186 C2198 0.959 . S
H2187 C2201 0.929 . S
H2188 C2202 0.931 . S
H2189 C2204 0.930 . S
C2190 H2178 0.930 . S
C2190 C2191 1.399 . S
C2190 C2195 1.399 . S
C2191 C2190 1.399 . S
C2191 C2192 1.376 . S
C2192 H2179 0.930 . S
C2192 C2191 1.376 . S
C2192 C2193 1.388 . S
C2193 H2180 0.930 . S
C2193 C2192 1.388 . S
C2193 C2194 1.390 . S
C2194 C2193 1.390 . S
C2194 C2195 1.394 . S
C2194 C2200 1.465 . S
C2195 C2190 1.399 . S
C2195 C2194 1.394 . S
C2195 C2196 1.516 . S
C2196 C2195 1.516 . S
C2196 C2197 1.502 . S
C2196 C2198 1.561 . S
C2196 C2199 1.526 . S
C2197 H2181 0.959 . S
C2197 H2182 0.959 . S
C2197 H2183 0.961 . S
C2197 C2196 1.502 . S
C2198 H2184 0.960 . S
C2198 H2185 0.961 . S
C2198 H2186 0.959 . S
C2198 C2196 1.561 . S
C2199 C2196 1.526 . S
C2199 C2200 1.396 . S
C2199 C2204 1.390 . S
C2200 C2194 1.465 . S
C2200 C2199 1.396 . S
C2200 C2201 1.399 . S
C2201 H2187 0.929 . S
C2201 C2200 1.399 . S
C2201 C2202 1.385 . S
C2202 H2188 0.931 . S
C2202 C2201 1.385 . S
C2202 C2203 1.389 . S
C2203 C2202 1.389 . S
C2203 C2204 1.387 . S
C2204 H2189 0.930 . S
C2204 C2199 1.390 . S
C2204 C2203 1.387 . S
H2205 C2217 0.930 . S
H2206 C2219 0.930 . S
H2207 C2220 0.930 . S
H2208 C2224 0.959 . S
H2209 C2224 0.959 . S
H2210 C2224 0.961 . S
H2211 C2225 0.960 . S
H2212 C2225 0.961 . S
H2213 C2225 0.959 . S
H2214 C2228 0.929 . S
H2215 C2229 0.931 . S
H2216 C2231 0.930 . S
C2217 H2205 0.930 . S
C2217 C2218 1.399 . S
C2217 C2222 1.399 . S
C2218 C2217 1.399 . S
C2218 C2219 1.376 . S
C2219 H2206 0.930 . S
C2219 C2218 1.376 . S
C2219 C2220 1.388 . S
C2220 H2207 0.930 . S
C2220 C2219 1.388 . S
C2220 C2221 1.390 . S
C2221 C2220 1.390 . S
C2221 C2222 1.394 . S
C2221 C2227 1.465 . S
C2222 C2217 1.399 . S
C2222 C2221 1.394 . S
C2222 C2223 1.516 . S
C2223 C2222 1.516 . S
C2223 C2224 1.502 . S
C2223 C2225 1.561 . S
C2223 C2226 1.526 . S
C2224 H2208 0.959 . S
C2224 H2209 0.959 . S
C2224 H2210 0.961 . S
C2224 C2223 1.502 . S
C2225 H2211 0.960 . S
C2225 H2212 0.961 . S
C2225 H2213 0.959 . S
C2225 C2223 1.561 . S
C2226 C2223 1.526 . S
C2226 C2227 1.396 . S
C2226 C2231 1.390 . S
C2227 C2221 1.465 . S
C2227 C2226 1.396 . S
C2227 C2228 1.399 . S
C2228 H2214 0.929 . S
C2228 C2227 1.399 . S
C2228 C2229 1.385 . S
C2229 H2215 0.931 . S
C2229 C2228 1.385 . S
C2229 C2230 1.389 . S
C2230 C2229 1.389 . S
C2230 C2231 1.387 . S
C2231 H2216 0.930 . S
C2231 C2226 1.390 . S
C2231 C2230 1.387 . S
H2232 C2244 0.930 . S
H2233 C2246 0.930 . S
H2234 C2247 0.930 . S
H2235 C2251 0.959 . S
H2236 C2251 0.959 . S
H2237 C2251 0.961 . S
H2238 C2252 0.960 . S
H2239 C2252 0.961 . S
H2240 C2252 0.959 . S
H2241 C2255 0.929 . S
H2242 C2256 0.931 . S
H2243 C2258 0.930 . S
C2244 H2232 0.930 . S
C2244 C2245 1.399 . S
C2244 C2249 1.399 . S
C2245 C2244 1.399 . S
C2245 C2246 1.376 . S
C2246 H2233 0.930 . S
C2246 C2245 1.376 . S
C2246 C2247 1.388 . S
C2247 H2234 0.930 . S
C2247 C2246 1.388 . S
C2247 C2248 1.390 . S
C2248 C2247 1.390 . S
C2248 C2249 1.394 . S
C2248 C2254 1.465 . S
C2249 C2244 1.399 . S
C2249 C2248 1.394 . S
C2249 C2250 1.516 . S
C2250 C2249 1.516 . S
C2250 C2251 1.502 . S
C2250 C2252 1.561 . S
C2250 C2253 1.526 . S
C2251 H2235 0.959 . S
C2251 H2236 0.959 . S
C2251 H2237 0.961 . S
C2251 C2250 1.502 . S
C2252 H2238 0.960 . S
C2252 H2239 0.961 . S
C2252 H2240 0.959 . S
C2252 C2250 1.561 . S
C2253 C2250 1.526 . S
C2253 C2254 1.396 . S
C2253 C2258 1.390 . S
C2254 C2248 1.465 . S
C2254 C2253 1.396 . S
C2254 C2255 1.399 . S
C2255 H2241 0.929 . S
C2255 C2254 1.399 . S
C2255 C2256 1.385 . S
C2256 H2242 0.931 . S
C2256 C2255 1.385 . S
C2256 C2257 1.389 . S
C2257 C2256 1.389 . S
C2257 C2258 1.387 . S
C2258 H2243 0.930 . S
C2258 C2253 1.390 . S
C2258 C2257 1.387 . S
H2259 C2271 0.930 . S
H2260 C2273 0.930 . S
H2261 C2274 0.930 . S
H2262 C2278 0.959 . S
H2263 C2278 0.959 . S
H2264 C2278 0.961 . S
H2265 C2279 0.960 . S
H2266 C2279 0.961 . S
H2267 C2279 0.959 . S
H2268 C2282 0.929 . S
H2269 C2283 0.931 . S
H2270 C2285 0.930 . S
C2271 H2259 0.930 . S
C2271 C2272 1.399 . S
C2271 C2276 1.399 . S
C2272 C2271 1.399 . S
C2272 C2273 1.376 . S
C2273 H2260 0.930 . S
C2273 C2272 1.376 . S
C2273 C2274 1.388 . S
C2274 H2261 0.930 . S
C2274 C2273 1.388 . S
C2274 C2275 1.390 . S
C2275 C2274 1.390 . S
C2275 C2276 1.394 . S
C2275 C2281 1.465 . S
C2276 C2271 1.399 . S
C2276 C2275 1.394 . S
C2276 C2277 1.516 . S
C2277 C2276 1.516 . S
C2277 C2278 1.502 . S
C2277 C2279 1.561 . S
C2277 C2280 1.526 . S
C2278 H2262 0.959 . S
C2278 H2263 0.959 . S
C2278 H2264 0.961 . S
C2278 C2277 1.502 . S
C2279 H2265 0.960 . S
C2279 H2266 0.961 . S
C2279 H2267 0.959 . S
C2279 C2277 1.561 . S
C2280 C2277 1.526 . S
C2280 C2281 1.396 . S
C2280 C2285 1.390 . S
C2281 C2275 1.465 . S
C2281 C2280 1.396 . S
C2281 C2282 1.399 . S
C2282 H2268 0.929 . S
C2282 C2281 1.399 . S
C2282 C2283 1.385 . S
C2283 H2269 0.931 . S
C2283 C2282 1.385 . S
C2283 C2284 1.389 . S
C2284 C2283 1.389 . S
C2284 C2285 1.387 . S
C2285 H2270 0.930 . S
C2285 C2280 1.390 . S
C2285 C2284 1.387 . S
H2286 C2298 0.930 . S
H2287 C2300 0.930 . S
H2288 C2301 0.930 . S
H2289 C2305 0.959 . S
H2290 C2305 0.959 . S
H2291 C2305 0.961 . S
H2292 C2306 0.960 . S
H2293 C2306 0.961 . S
H2294 C2306 0.959 . S
H2295 C2309 0.929 . S
H2296 C2310 0.931 . S
H2297 C2312 0.930 . S
C2298 H2286 0.930 . S
C2298 C2299 1.399 . S
C2298 C2303 1.399 . S
C2299 C2298 1.399 . S
C2299 C2300 1.376 . S
C2300 H2287 0.930 . S
C2300 C2299 1.376 . S
C2300 C2301 1.388 . S
C2301 H2288 0.930 . S
C2301 C2300 1.388 . S
C2301 C2302 1.390 . S
C2302 C2301 1.390 . S
C2302 C2303 1.394 . S
C2302 C2308 1.465 . S
C2303 C2298 1.399 . S
C2303 C2302 1.394 . S
C2303 C2304 1.516 . S
C2304 C2303 1.516 . S
C2304 C2305 1.502 . S
C2304 C2306 1.561 . S
C2304 C2307 1.526 . S
C2305 H2289 0.959 . S
C2305 H2290 0.959 . S
C2305 H2291 0.961 . S
C2305 C2304 1.502 . S
C2306 H2292 0.960 . S
C2306 H2293 0.961 . S
C2306 H2294 0.959 . S
C2306 C2304 1.561 . S
C2307 C2304 1.526 . S
C2307 C2308 1.396 . S
C2307 C2312 1.390 . S
C2308 C2302 1.465 . S
C2308 C2307 1.396 . S
C2308 C2309 1.399 . S
C2309 H2295 0.929 . S
C2309 C2308 1.399 . S
C2309 C2310 1.385 . S
C2310 H2296 0.931 . S
C2310 C2309 1.385 . S
C2310 C2311 1.389 . S
C2311 C2310 1.389 . S
C2311 C2312 1.387 . S
C2312 H2297 0.930 . S
C2312 C2307 1.390 . S
C2312 C2311 1.387 . S
H2313 C2325 0.930 . S
H2314 C2327 0.930 . S
H2315 C2328 0.930 . S
H2316 C2332 0.959 . S
H2317 C2332 0.959 . S
H2318 C2332 0.961 . S
H2319 C2333 0.960 . S
H2320 C2333 0.961 . S
H2321 C2333 0.959 . S
H2322 C2336 0.929 . S
H2323 C2337 0.931 . S
H2324 C2339 0.930 . S
C2325 H2313 0.930 . S
C2325 C2326 1.399 . S
C2325 C2330 1.399 . S
C2326 C2325 1.399 . S
C2326 C2327 1.376 . S
C2327 H2314 0.930 . S
C2327 C2326 1.376 . S
C2327 C2328 1.388 . S
C2328 H2315 0.930 . S
C2328 C2327 1.388 . S
C2328 C2329 1.390 . S
C2329 C2328 1.390 . S
C2329 C2330 1.394 . S
C2329 C2335 1.465 . S
C2330 C2325 1.399 . S
C2330 C2329 1.394 . S
C2330 C2331 1.516 . S
C2331 C2330 1.516 . S
C2331 C2332 1.502 . S
C2331 C2333 1.561 . S
C2331 C2334 1.526 . S
C2332 H2316 0.959 . S
C2332 H2317 0.959 . S
C2332 H2318 0.961 . S
C2332 C2331 1.502 . S
C2333 H2319 0.960 . S
C2333 H2320 0.961 . S
C2333 H2321 0.959 . S
C2333 C2331 1.561 . S
C2334 C2331 1.526 . S
C2334 C2335 1.396 . S
C2334 C2339 1.390 . S
C2335 C2329 1.465 . S
C2335 C2334 1.396 . S
C2335 C2336 1.399 . S
C2336 H2322 0.929 . S
C2336 C2335 1.399 . S
C2336 C2337 1.385 . S
C2337 H2323 0.931 . S
C2337 C2336 1.385 . S
C2337 C2338 1.389 . S
C2338 C2337 1.389 . S
C2338 C2339 1.387 . S
C2339 H2324 0.930 . S
C2339 C2334 1.390 . S
C2339 C2338 1.387 . S
H2340 C2352 0.930 . S
H2341 C2354 0.930 . S
H2342 C2355 0.930 . S
H2343 C2359 0.959 . S
H2344 C2359 0.959 . S
H2345 C2359 0.961 . S
H2346 C2360 0.960 . S
H2347 C2360 0.961 . S
H2348 C2360 0.959 . S
H2349 C2363 0.929 . S
H2350 C2364 0.931 . S
H2351 C2366 0.930 . S
C2352 H2340 0.930 . S
C2352 C2353 1.399 . S
C2352 C2357 1.399 . S
C2353 C2352 1.399 . S
C2353 C2354 1.376 . S
C2354 H2341 0.930 . S
C2354 C2353 1.376 . S
C2354 C2355 1.388 . S
C2355 H2342 0.930 . S
C2355 C2354 1.388 . S
C2355 C2356 1.390 . S
C2356 C2355 1.390 . S
C2356 C2357 1.394 . S
C2356 C2362 1.465 . S
C2357 C2352 1.399 . S
C2357 C2356 1.394 . S
C2357 C2358 1.516 . S
C2358 C2357 1.516 . S
C2358 C2359 1.502 . S
C2358 C2360 1.561 . S
C2358 C2361 1.526 . S
C2359 H2343 0.959 . S
C2359 H2344 0.959 . S
C2359 H2345 0.961 . S
C2359 C2358 1.502 . S
C2360 H2346 0.960 . S
C2360 H2347 0.961 . S
C2360 H2348 0.959 . S
C2360 C2358 1.561 . S
C2361 C2358 1.526 . S
C2361 C2362 1.396 . S
C2361 C2366 1.390 . S
C2362 C2356 1.465 . S
C2362 C2361 1.396 . S
C2362 C2363 1.399 . S
C2363 H2349 0.929 . S
C2363 C2362 1.399 . S
C2363 C2364 1.385 . S
C2364 H2350 0.931 . S
C2364 C2363 1.385 . S
C2364 C2365 1.389 . S
C2365 C2364 1.389 . S
C2365 C2366 1.387 . S
C2366 H2351 0.930 . S
C2366 C2361 1.390 . S
C2366 C2365 1.387 . S
H2367 C2379 0.930 . S
H2368 C2381 0.930 . S
H2369 C2382 0.930 . S
H2370 C2386 0.959 . S
H2371 C2386 0.959 . S
H2372 C2386 0.961 . S
H2373 C2387 0.960 . S
H2374 C2387 0.961 . S
H2375 C2387 0.959 . S
H2376 C2390 0.929 . S
H2377 C2391 0.931 . S
H2378 C2393 0.930 . S
C2379 H2367 0.930 . S
C2379 C2380 1.399 . S
C2379 C2384 1.399 . S
C2380 C2379 1.399 . S
C2380 C2381 1.376 . S
C2381 H2368 0.930 . S
C2381 C2380 1.376 . S
C2381 C2382 1.388 . S
C2382 H2369 0.930 . S
C2382 C2381 1.388 . S
C2382 C2383 1.390 . S
C2383 C2382 1.390 . S
C2383 C2384 1.394 . S
C2383 C2389 1.465 . S
C2384 C2379 1.399 . S
C2384 C2383 1.394 . S
C2384 C2385 1.516 . S
C2385 C2384 1.516 . S
C2385 C2386 1.502 . S
C2385 C2387 1.561 . S
C2385 C2388 1.526 . S
C2386 H2370 0.959 . S
C2386 H2371 0.959 . S
C2386 H2372 0.961 . S
C2386 C2385 1.502 . S
C2387 H2373 0.960 . S
C2387 H2374 0.961 . S
C2387 H2375 0.959 . S
C2387 C2385 1.561 . S
C2388 C2385 1.526 . S
C2388 C2389 1.396 . S
C2388 C2393 1.390 . S
C2389 C2383 1.465 . S
C2389 C2388 1.396 . S
C2389 C2390 1.399 . S
C2390 H2376 0.929 . S
C2390 C2389 1.399 . S
C2390 C2391 1.385 . S
C2391 H2377 0.931 . S
C2391 C2390 1.385 . S
C2391 C2392 1.389 . S
C2392 C2391 1.389 . S
C2392 C2393 1.387 . S
C2393 H2378 0.930 . S
C2393 C2388 1.390 . S
C2393 C2392 1.387 . S
H2394 C2406 0.930 . S
H2395 C2408 0.930 . S
H2396 C2409 0.930 . S
H2397 C2413 0.959 . S
H2398 C2413 0.959 . S
H2399 C2413 0.961 . S
H2400 C2414 0.960 . S
H2401 C2414 0.961 . S
H2402 C2414 0.959 . S
H2403 C2417 0.929 . S
H2404 C2418 0.931 . S
H2405 C2420 0.930 . S
C2406 H2394 0.930 . S
C2406 C2407 1.399 . S
C2406 C2411 1.399 . S
C2407 C2406 1.399 . S
C2407 C2408 1.376 . S
C2408 H2395 0.930 . S
C2408 C2407 1.376 . S
C2408 C2409 1.388 . S
C2409 H2396 0.930 . S
C2409 C2408 1.388 . S
C2409 C2410 1.390 . S
C2410 C2409 1.390 . S
C2410 C2411 1.394 . S
C2410 C2416 1.465 . S
C2411 C2406 1.399 . S
C2411 C2410 1.394 . S
C2411 C2412 1.516 . S
C2412 C2411 1.516 . S
C2412 C2413 1.502 . S
C2412 C2414 1.561 . S
C2412 C2415 1.526 . S
C2413 H2397 0.959 . S
C2413 H2398 0.959 . S
C2413 H2399 0.961 . S
C2413 C2412 1.502 . S
C2414 H2400 0.960 . S
C2414 H2401 0.961 . S
C2414 H2402 0.959 . S
C2414 C2412 1.561 . S
C2415 C2412 1.526 . S
C2415 C2416 1.396 . S
C2415 C2420 1.390 . S
C2416 C2410 1.465 . S
C2416 C2415 1.396 . S
C2416 C2417 1.399 . S
C2417 H2403 0.929 . S
C2417 C2416 1.399 . S
C2417 C2418 1.385 . S
C2418 H2404 0.931 . S
C2418 C2417 1.385 . S
C2418 C2419 1.389 . S
C2419 C2418 1.389 . S
C2419 C2420 1.387 . S
C2420 H2405 0.930 . S
C2420 C2415 1.390 . S
C2420 C2419 1.387 . S
H2421 C2433 0.930 . S
H2422 C2435 0.930 . S
H2423 C2436 0.930 . S
H2424 C2440 0.959 . S
H2425 C2440 0.959 . S
H2426 C2440 0.961 . S
H2427 C2441 0.960 . S
H2428 C2441 0.961 . S
H2429 C2441 0.959 . S
H2430 C2444 0.929 . S
H2431 C2445 0.931 . S
H2432 C2447 0.930 . S
C2433 H2421 0.930 . S
C2433 C2434 1.399 . S
C2433 C2438 1.399 . S
C2434 C2433 1.399 . S
C2434 C2435 1.376 . S
C2435 H2422 0.930 . S
C2435 C2434 1.376 . S
C2435 C2436 1.388 . S
C2436 H2423 0.930 . S
C2436 C2435 1.388 . S
C2436 C2437 1.390 . S
C2437 C2436 1.390 . S
C2437 C2438 1.394 . S
C2437 C2443 1.465 . S
C2438 C2433 1.399 . S
C2438 C2437 1.394 . S
C2438 C2439 1.516 . S
C2439 C2438 1.516 . S
C2439 C2440 1.502 . S
C2439 C2441 1.561 . S
C2439 C2442 1.526 . S
C2440 H2424 0.959 . S
C2440 H2425 0.959 . S
C2440 H2426 0.961 . S
C2440 C2439 1.502 . S
C2441 H2427 0.960 . S
C2441 H2428 0.961 . S
C2441 H2429 0.959 . S
C2441 C2439 1.561 . S
C2442 C2439 1.526 . S
C2442 C2443 1.396 . S
C2442 C2447 1.390 . S
C2443 C2437 1.465 . S
C2443 C2442 1.396 . S
C2443 C2444 1.399 . S
C2444 H2430 0.929 . S
C2444 C2443 1.399 . S
C2444 C2445 1.385 . S
C2445 H2431 0.931 . S
C2445 C2444 1.385 . S
C2445 C2446 1.389 . S
C2446 C2445 1.389 . S
C2446 C2447 1.387 . S
C2447 H2432 0.930 . S
C2447 C2442 1.390 . S
C2447 C2446 1.387 . S
H2448 C2460 0.930 . S
H2449 C2462 0.930 . S
H2450 C2463 0.930 . S
H2451 C2467 0.959 . S
H2452 C2467 0.959 . S
H2453 C2467 0.961 . S
H2454 C2468 0.960 . S
H2455 C2468 0.961 . S
H2456 C2468 0.959 . S
H2457 C2471 0.929 . S
H2458 C2472 0.931 . S
H2459 C2474 0.930 . S
C2460 H2448 0.930 . S
C2460 C2461 1.399 . S
C2460 C2465 1.399 . S
C2461 C2460 1.399 . S
C2461 C2462 1.376 . S
C2462 H2449 0.930 . S
C2462 C2461 1.376 . S
C2462 C2463 1.388 . S
C2463 H2450 0.930 . S
C2463 C2462 1.388 . S
C2463 C2464 1.390 . S
C2464 C2463 1.390 . S
C2464 C2465 1.394 . S
C2464 C2470 1.465 . S
C2465 C2460 1.399 . S
C2465 C2464 1.394 . S
C2465 C2466 1.516 . S
C2466 C2465 1.516 . S
C2466 C2467 1.502 . S
C2466 C2468 1.561 . S
C2466 C2469 1.526 . S
C2467 H2451 0.959 . S
C2467 H2452 0.959 . S
C2467 H2453 0.961 . S
C2467 C2466 1.502 . S
C2468 H2454 0.960 . S
C2468 H2455 0.961 . S
C2468 H2456 0.959 . S
C2468 C2466 1.561 . S
C2469 C2466 1.526 . S
C2469 C2470 1.396 . S
C2469 C2474 1.390 . S
C2470 C2464 1.465 . S
C2470 C2469 1.396 . S
C2470 C2471 1.399 . S
C2471 H2457 0.929 . S
C2471 C2470 1.399 . S
C2471 C2472 1.385 . S
C2472 H2458 0.931 . S
C2472 C2471 1.385 . S
C2472 C2473 1.389 . S
C2473 C2472 1.389 . S
C2473 C2474 1.387 . S
C2474 H2459 0.930 . S
C2474 C2469 1.390 . S
C2474 C2473 1.387 . S
H2475 C2487 0.930 . S
H2476 C2489 0.930 . S
H2477 C2490 0.930 . S
H2478 C2494 0.959 . S
H2479 C2494 0.959 . S
H2480 C2494 0.961 . S
H2481 C2495 0.960 . S
H2482 C2495 0.961 . S
H2483 C2495 0.959 . S
H2484 C2498 0.929 . S
H2485 C2499 0.931 . S
H2486 C2501 0.930 . S
C2487 H2475 0.930 . S
C2487 C2488 1.399 . S
C2487 C2492 1.399 . S
C2488 C2487 1.399 . S
C2488 C2489 1.376 . S
C2489 H2476 0.930 . S
C2489 C2488 1.376 . S
C2489 C2490 1.388 . S
C2490 H2477 0.930 . S
C2490 C2489 1.388 . S
C2490 C2491 1.390 . S
C2491 C2490 1.390 . S
C2491 C2492 1.394 . S
C2491 C2497 1.465 . S
C2492 C2487 1.399 . S
C2492 C2491 1.394 . S
C2492 C2493 1.516 . S
C2493 C2492 1.516 . S
C2493 C2494 1.502 . S
C2493 C2495 1.561 . S
C2493 C2496 1.526 . S
C2494 H2478 0.959 . S
C2494 H2479 0.959 . S
C2494 H2480 0.961 . S
C2494 C2493 1.502 . S
C2495 H2481 0.960 . S
C2495 H2482 0.961 . S
C2495 H2483 0.959 . S
C2495 C2493 1.561 . S
C2496 C2493 1.526 . S
C2496 C2497 1.396 . S
C2496 C2501 1.390 . S
C2497 C2491 1.465 . S
C2497 C2496 1.396 . S
C2497 C2498 1.399 . S
C2498 H2484 0.929 . S
C2498 C2497 1.399 . S
C2498 C2499 1.385 . S
C2499 H2485 0.931 . S
C2499 C2498 1.385 . S
C2499 C2500 1.389 . S
C2500 C2499 1.389 . S
C2500 C2501 1.387 . S
C2501 H2486 0.930 . S
C2501 C2496 1.390 . S
C2501 C2500 1.387 . S
H2502 C2514 0.930 . S
H2503 C2516 0.930 . S
H2504 C2517 0.930 . S
H2505 C2521 0.959 . S
H2506 C2521 0.959 . S
H2507 C2521 0.961 . S
H2508 C2522 0.960 . S
H2509 C2522 0.961 . S
H2510 C2522 0.959 . S
H2511 C2525 0.929 . S
H2512 C2526 0.931 . S
H2513 C2528 0.930 . S
C2514 H2502 0.930 . S
C2514 C2515 1.399 . S
C2514 C2519 1.399 . S
C2515 C2514 1.399 . S
C2515 C2516 1.376 . S
C2516 H2503 0.930 . S
C2516 C2515 1.376 . S
C2516 C2517 1.388 . S
C2517 H2504 0.930 . S
C2517 C2516 1.388 . S
C2517 C2518 1.390 . S
C2518 C2517 1.390 . S
C2518 C2519 1.394 . S
C2518 C2524 1.465 . S
C2519 C2514 1.399 . S
C2519 C2518 1.394 . S
C2519 C2520 1.516 . S
C2520 C2519 1.516 . S
C2520 C2521 1.502 . S
C2520 C2522 1.561 . S
C2520 C2523 1.526 . S
C2521 H2505 0.959 . S
C2521 H2506 0.959 . S
C2521 H2507 0.961 . S
C2521 C2520 1.502 . S
C2522 H2508 0.960 . S
C2522 H2509 0.961 . S
C2522 H2510 0.959 . S
C2522 C2520 1.561 . S
C2523 C2520 1.526 . S
C2523 C2524 1.396 . S
C2523 C2528 1.390 . S
C2524 C2518 1.465 . S
C2524 C2523 1.396 . S
C2524 C2525 1.399 . S
C2525 H2511 0.929 . S
C2525 C2524 1.399 . S
C2525 C2526 1.385 . S
C2526 H2512 0.931 . S
C2526 C2525 1.385 . S
C2526 C2527 1.389 . S
C2527 C2526 1.389 . S
C2527 C2528 1.387 . S
C2528 H2513 0.930 . S
C2528 C2523 1.390 . S
C2528 C2527 1.387 . S
H2529 C2541 0.930 . S
H2530 C2543 0.930 . S
H2531 C2544 0.930 . S
H2532 C2548 0.959 . S
H2533 C2548 0.959 . S
H2534 C2548 0.961 . S
H2535 C2549 0.960 . S
H2536 C2549 0.961 . S
H2537 C2549 0.959 . S
H2538 C2552 0.929 . S
H2539 C2553 0.931 . S
H2540 C2555 0.930 . S
C2541 H2529 0.930 . S
C2541 C2542 1.399 . S
C2541 C2546 1.399 . S
C2542 C2541 1.399 . S
C2542 C2543 1.376 . S
C2543 H2530 0.930 . S
C2543 C2542 1.376 . S
C2543 C2544 1.388 . S
C2544 H2531 0.930 . S
C2544 C2543 1.388 . S
C2544 C2545 1.390 . S
C2545 C2544 1.390 . S
C2545 C2546 1.394 . S
C2545 C2551 1.465 . S
C2546 C2541 1.399 . S
C2546 C2545 1.394 . S
C2546 C2547 1.516 . S
C2547 C2546 1.516 . S
C2547 C2548 1.502 . S
C2547 C2549 1.561 . S
C2547 C2550 1.526 . S
C2548 H2532 0.959 . S
C2548 H2533 0.959 . S
C2548 H2534 0.961 . S
C2548 C2547 1.502 . S
C2549 H2535 0.960 . S
C2549 H2536 0.961 . S
C2549 H2537 0.959 . S
C2549 C2547 1.561 . S
C2550 C2547 1.526 . S
C2550 C2551 1.396 . S
C2550 C2555 1.390 . S
C2551 C2545 1.465 . S
C2551 C2550 1.396 . S
C2551 C2552 1.399 . S
C2552 H2538 0.929 . S
C2552 C2551 1.399 . S
C2552 C2553 1.385 . S
C2553 H2539 0.931 . S
C2553 C2552 1.385 . S
C2553 C2554 1.389 . S
C2554 C2553 1.389 . S
C2554 C2555 1.387 . S
C2555 H2540 0.930 . S
C2555 C2550 1.390 . S
C2555 C2554 1.387 . S
H2556 C2568 0.930 . S
H2557 C2570 0.930 . S
H2558 C2571 0.930 . S
H2559 C2575 0.959 . S
H2560 C2575 0.959 . S
H2561 C2575 0.961 . S
H2562 C2576 0.960 . S
H2563 C2576 0.961 . S
H2564 C2576 0.959 . S
H2565 C2579 0.929 . S
H2566 C2580 0.931 . S
H2567 C2582 0.930 . S
C2568 H2556 0.930 . S
C2568 C2569 1.399 . S
C2568 C2573 1.399 . S
C2569 C2568 1.399 . S
C2569 C2570 1.376 . S
C2570 H2557 0.930 . S
C2570 C2569 1.376 . S
C2570 C2571 1.388 . S
C2571 H2558 0.930 . S
C2571 C2570 1.388 . S
C2571 C2572 1.390 . S
C2572 C2571 1.390 . S
C2572 C2573 1.394 . S
C2572 C2578 1.465 . S
C2573 C2568 1.399 . S
C2573 C2572 1.394 . S
C2573 C2574 1.516 . S
C2574 C2573 1.516 . S
C2574 C2575 1.502 . S
C2574 C2576 1.561 . S
C2574 C2577 1.526 . S
C2575 H2559 0.959 . S
C2575 H2560 0.959 . S
C2575 H2561 0.961 . S
C2575 C2574 1.502 . S
C2576 H2562 0.960 . S
C2576 H2563 0.961 . S
C2576 H2564 0.959 . S
C2576 C2574 1.561 . S
C2577 C2574 1.526 . S
C2577 C2578 1.396 . S
C2577 C2582 1.390 . S
C2578 C2572 1.465 . S
C2578 C2577 1.396 . S
C2578 C2579 1.399 . S
C2579 H2565 0.929 . S
C2579 C2578 1.399 . S
C2579 C2580 1.385 . S
C2580 H2566 0.931 . S
C2580 C2579 1.385 . S
C2580 C2581 1.389 . S
C2581 C2580 1.389 . S
C2581 C2582 1.387 . S
C2582 H2567 0.930 . S
C2582 C2577 1.390 . S
C2582 C2581 1.387 . S
H2583 C2595 0.930 . S
H2584 C2597 0.930 . S
H2585 C2598 0.930 . S
H2586 C2602 0.959 . S
H2587 C2602 0.959 . S
H2588 C2602 0.961 . S
H2589 C2603 0.960 . S
H2590 C2603 0.961 . S
H2591 C2603 0.959 . S
H2592 C2606 0.929 . S
H2593 C2607 0.931 . S
H2594 C2609 0.930 . S
C2595 H2583 0.930 . S
C2595 C2596 1.399 . S
C2595 C2600 1.399 . S
C2596 C2595 1.399 . S
C2596 C2597 1.376 . S
C2597 H2584 0.930 . S
C2597 C2596 1.376 . S
C2597 C2598 1.388 . S
C2598 H2585 0.930 . S
C2598 C2597 1.388 . S
C2598 C2599 1.390 . S
C2599 C2598 1.390 . S
C2599 C2600 1.394 . S
C2599 C2605 1.465 . S
C2600 C2595 1.399 . S
C2600 C2599 1.394 . S
C2600 C2601 1.516 . S
C2601 C2600 1.516 . S
C2601 C2602 1.502 . S
C2601 C2603 1.561 . S
C2601 C2604 1.526 . S
C2602 H2586 0.959 . S
C2602 H2587 0.959 . S
C2602 H2588 0.961 . S
C2602 C2601 1.502 . S
C2603 H2589 0.960 . S
C2603 H2590 0.961 . S
C2603 H2591 0.959 . S
C2603 C2601 1.561 . S
C2604 C2601 1.526 . S
C2604 C2605 1.396 . S
C2604 C2609 1.390 . S
C2605 C2599 1.465 . S
C2605 C2604 1.396 . S
C2605 C2606 1.399 . S
C2606 H2592 0.929 . S
C2606 C2605 1.399 . S
C2606 C2607 1.385 . S
C2607 H2593 0.931 . S
C2607 C2606 1.385 . S
C2607 C2608 1.389 . S
C2608 C2607 1.389 . S
C2608 C2609 1.387 . S
C2609 H2594 0.930 . S
C2609 C2604 1.390 . S
C2609 C2608 1.387 . S
H2610 C2622 0.930 . S
H2611 C2624 0.930 . S
H2612 C2625 0.930 . S
H2613 C2629 0.959 . S
H2614 C2629 0.959 . S
H2615 C2629 0.961 . S
H2616 C2630 0.960 . S
H2617 C2630 0.961 . S
H2618 C2630 0.959 . S
H2619 C2633 0.929 . S
H2620 C2634 0.931 . S
H2621 C2636 0.930 . S
C2622 H2610 0.930 . S
C2622 C2623 1.399 . S
C2622 C2627 1.399 . S
C2623 C2622 1.399 . S
C2623 C2624 1.376 . S
C2624 H2611 0.930 . S
C2624 C2623 1.376 . S
C2624 C2625 1.388 . S
C2625 H2612 0.930 . S
C2625 C2624 1.388 . S
C2625 C2626 1.390 . S
C2626 C2625 1.390 . S
C2626 C2627 1.394 . S
C2626 C2632 1.465 . S
C2627 C2622 1.399 . S
C2627 C2626 1.394 . S
C2627 C2628 1.516 . S
C2628 C2627 1.516 . S
C2628 C2629 1.502 . S
C2628 C2630 1.561 . S
C2628 C2631 1.526 . S
C2629 H2613 0.959 . S
C2629 H2614 0.959 . S
C2629 H2615 0.961 . S
C2629 C2628 1.502 . S
C2630 H2616 0.960 . S
C2630 H2617 0.961 . S
C2630 H2618 0.959 . S
C2630 C2628 1.561 . S
C2631 C2628 1.526 . S
C2631 C2632 1.396 . S
C2631 C2636 1.390 . S
C2632 C2626 1.465 . S
C2632 C2631 1.396 . S
C2632 C2633 1.399 . S
C2633 H2619 0.929 . S
C2633 C2632 1.399 . S
C2633 C2634 1.385 . S
C2634 H2620 0.931 . S
C2634 C2633 1.385 . S
C2634 C2635 1.389 . S
C2635 C2634 1.389 . S
C2635 C2636 1.387 . S
C2636 H2621 0.930 . S
C2636 C2631 1.390 . S
C2636 C2635 1.387 . S
H2637 C2649 0.930 . S
H2638 C2651 0.930 . S
H2639 C2652 0.933 . S
H2640 C2656 0.959 . S
H2641 C2656 0.959 . S
H2642 C2656 0.961 . S
H2643 C2657 0.960 . S
H2644 C2657 0.961 . S
H2645 C2657 0.959 . S
H2646 C2660 0.929 . S
H2647 C2661 0.931 . S
H2648 C2663 0.930 . S
C2649 H2637 0.930 . S
C2649 C2650 1.399 1_556 S
C2649 C2654 1.399 . S
C2650 C2649 1.399 1_554 S
C2650 C2651 1.376 . S
C2651 H2638 0.930 . S
C2651 C2650 1.376 . S
C2651 C2652 1.392 . S
C2652 H2639 0.933 . S
C2652 C2651 1.392 . S
C2652 C2653 1.383 1_554 S
C2653 C2652 1.383 1_556 S
C2653 C2654 1.394 . S
C2653 C2659 1.465 . S
C2654 C2649 1.399 . S
C2654 C2653 1.394 . S
C2654 C2655 1.516 . S
C2655 C2654 1.516 . S
C2655 C2656 1.502 . S
C2655 C2657 1.561 . S
C2655 C2658 1.526 . S
C2656 H2640 0.959 . S
C2656 H2641 0.959 . S
C2656 H2642 0.961 . S
C2656 C2655 1.502 . S
C2657 H2643 0.960 . S
C2657 H2644 0.961 . S
C2657 H2645 0.959 . S
C2657 C2655 1.561 . S
C2658 C2655 1.526 . S
C2658 C2659 1.396 . S
C2658 C2663 1.390 . S
C2659 C2653 1.465 . S
C2659 C2658 1.396 . S
C2659 C2660 1.399 . S
C2660 H2646 0.929 . S
C2660 C2659 1.399 . S
C2660 C2661 1.385 . S
C2661 H2647 0.931 . S
C2661 C2660 1.385 . S
C2661 C2662 1.389 . S
C2662 C2661 1.389 . S
C2662 C2663 1.387 . S
C2663 H2648 0.930 . S
C2663 C2658 1.390 . S
C2663 C2662 1.387 . S
H2664 C2676 0.930 . S
H2665 C2678 0.930 . S
H2666 C2679 0.930 . S
H2667 C2683 0.959 . S
H2668 C2683 0.959 . S
H2669 C2683 0.961 . S
H2670 C2684 0.960 . S
H2671 C2684 0.961 . S
H2672 C2684 0.959 . S
H2673 C2687 0.929 . S
H2674 C2688 0.931 . S
H2675 C2690 0.930 . S
C2676 H2664 0.930 . S
C2676 C2677 1.399 . S
C2676 C2681 1.399 . S
C2677 C2676 1.399 . S
C2677 C2678 1.376 1_556 S
C2678 H2665 0.930 . S
C2678 C2677 1.376 1_554 S
C2678 C2679 1.388 . S
C2679 H2666 0.930 . S
C2679 C2678 1.388 . S
C2679 C2680 1.390 1_554 S
C2680 C2679 1.390 1_556 S
C2680 C2681 1.394 . S
C2680 C2686 1.465 . S
C2681 C2676 1.399 . S
C2681 C2680 1.394 . S
C2681 C2682 1.516 . S
C2682 C2681 1.516 . S
C2682 C2683 1.502 . S
C2682 C2684 1.561 . S
C2682 C2685 1.526 . S
C2683 H2667 0.959 . S
C2683 H2668 0.959 . S
C2683 H2669 0.961 . S
C2683 C2682 1.502 . S
C2684 H2670 0.960 . S
C2684 H2671 0.961 . S
C2684 H2672 0.959 . S
C2684 C2682 1.561 . S
C2685 C2682 1.526 . S
C2685 C2686 1.396 . S
C2685 C2690 1.390 . S
C2686 C2680 1.465 . S
C2686 C2685 1.396 . S
C2686 C2687 1.399 . S
C2687 H2673 0.929 . S
C2687 C2686 1.399 . S
C2687 C2688 1.385 . S
C2688 H2674 0.931 . S
C2688 C2687 1.385 . S
C2688 C2689 1.389 . S
C2689 C2688 1.389 . S
C2689 C2690 1.387 . S
C2690 H2675 0.930 . S
C2690 C2685 1.390 . S
C2690 C2689 1.387 . S
H2691 C2703 0.930 . S
H2692 C2705 0.930 . S
H2693 C2706 0.930 . S
H2694 C2710 0.959 . S
H2695 C2710 0.967 . S
H2696 C2710 0.961 . S
H2697 C2711 0.960 . S
H2698 C2711 0.961 . S
H2699 C2711 0.959 . S
H2700 C2714 0.929 . S
H2701 C2715 0.931 . S
H2702 C2717 0.930 . S
C2703 H2691 0.930 . S
C2703 C2704 1.399 . S
C2703 C2708 1.399 . S
C2704 C2703 1.399 . S
C2704 C2705 1.376 . S
C2705 H2692 0.930 . S
C2705 C2704 1.376 . S
C2705 C2706 1.388 . S
C2706 H2693 0.930 . S
C2706 C2705 1.388 . S
C2706 C2707 1.390 . S
C2707 C2706 1.390 . S
C2707 C2708 1.394 . S
C2707 C2713 1.465 . S
C2708 C2703 1.399 . S
C2708 C2707 1.394 . S
C2708 C2709 1.516 . S
C2709 C2708 1.516 . S
C2709 C2710 1.502 . S
C2709 C2711 1.561 1_554 S
C2709 C2712 1.518 1_554 S
C2710 H2694 0.959 . S
C2710 H2695 0.967 . S
C2710 H2696 0.961 . S
C2710 C2709 1.502 . S
C2711 H2697 0.960 . S
C2711 H2698 0.961 . S
C2711 H2699 0.959 . S
C2711 C2709 1.561 1_556 S
C2712 C2709 1.518 1_556 S
C2712 C2713 1.382 1_556 S
C2712 C2717 1.409 . S
C2713 C2707 1.465 . S
C2713 C2712 1.382 1_554 S
C2713 C2714 1.399 . S
C2714 H2700 0.929 . S
C2714 C2713 1.399 . S
C2714 C2715 1.385 1_554 S
C2715 H2701 0.931 . S
C2715 C2714 1.385 1_556 S
C2715 C2716 1.389 . S
C2716 C2715 1.389 . S
C2716 C2717 1.387 . S
C2717 H2702 0.930 . S
C2717 C2712 1.409 . S
C2717 C2716 1.387 . S
H2718 C2730 0.932 . S
H2719 C2732 0.930 . S
H2720 C2733 0.930 . S
H2721 C2737 0.959 . S
H2722 C2737 0.959 . S
H2723 C2737 0.961 . S
H2724 C2738 0.957 1_554 S
H2725 C2738 0.961 . S
H2726 C2738 0.959 1_554 S
H2727 C2741 0.929 . S
H2728 C2742 0.931 . S
H2729 C2744 0.930 . S
C2730 H2718 0.932 . S
C2730 C2731 1.399 . S
C2730 C2735 1.399 1_554 S
C2731 C2730 1.399 . S
C2731 C2732 1.376 . S
C2732 H2719 0.930 . S
C2732 C2731 1.376 . S
C2732 C2733 1.388 . S
C2733 H2720 0.930 . S
C2733 C2732 1.388 . S
C2733 C2734 1.390 1_554 S
C2734 C2733 1.390 1_556 S
C2734 C2735 1.394 . S
C2734 C2740 1.465 . S
C2735 C2730 1.399 1_556 S
C2735 C2734 1.394 . S
C2735 C2736 1.516 . S
C2736 C2735 1.516 . S
C2736 C2737 1.502 . S
C2736 C2738 1.561 . S
C2736 C2739 1.526 . S
C2737 H2721 0.959 . S
C2737 H2722 0.959 . S
C2737 H2723 0.961 . S
C2737 C2736 1.502 . S
C2738 H2724 0.957 1_556 S
C2738 H2725 0.961 . S
C2738 H2726 0.959 1_556 S
C2738 C2736 1.561 . S
C2739 C2736 1.526 . S
C2739 C2740 1.396 . S
C2739 C2744 1.390 . S
C2740 C2734 1.465 . S
C2740 C2739 1.396 . S
C2740 C2741 1.399 . S
C2741 H2727 0.929 . S
C2741 C2740 1.399 . S
C2741 C2742 1.385 . S
C2742 H2728 0.931 . S
C2742 C2741 1.385 . S
C2742 C2743 1.389 . S
C2743 C2742 1.389 . S
C2743 C2744 1.387 . S
C2744 H2729 0.930 . S
C2744 C2739 1.390 . S
C2744 C2743 1.387 . S
H2745 C2757 0.930 . S
H2746 C2759 0.930 . S
H2747 C2760 0.930 . S
H2748 C2764 0.959 . S
H2749 C2764 0.959 . S
H2750 C2764 0.961 . S
H2751 C2765 0.993 . S
H2752 C2765 0.961 . S
H2753 C2765 0.959 . S
H2754 C2768 0.929 . S
H2755 C2769 0.931 . S
H2756 C2771 0.930 . S
C2757 H2745 0.930 . S
C2757 C2758 1.399 . S
C2757 C2762 1.399 . S
C2758 C2757 1.399 . S
C2758 C2759 1.376 . S
C2759 H2746 0.930 . S
C2759 C2758 1.376 . S
C2759 C2760 1.388 . S
C2760 H2747 0.930 . S
C2760 C2759 1.388 . S
C2760 C2761 1.390 . S
C2761 C2760 1.390 . S
C2761 C2762 1.394 . S
C2761 C2767 1.465 . S
C2762 C2757 1.399 . S
C2762 C2761 1.394 . S
C2762 C2763 1.516 . S
C2763 C2762 1.516 . S
C2763 C2764 1.502 . S
C2763 C2765 1.561 . S
C2763 C2766 1.526 . S
C2764 H2748 0.959 . S
C2764 H2749 0.959 . S
C2764 H2750 0.961 . S
C2764 C2763 1.502 . S
C2765 H2751 0.993 . S
C2765 H2752 0.961 . S
C2765 H2753 0.959 . S
C2765 C2763 1.561 . S
C2766 C2763 1.526 . S
C2766 C2767 1.396 . S
C2766 C2771 1.390 . S
C2767 C2761 1.465 . S
C2767 C2766 1.396 . S
C2767 C2768 1.399 . S
C2768 H2754 0.929 . S
C2768 C2767 1.399 . S
C2768 C2769 1.385 . S
C2769 H2755 0.931 . S
C2769 C2768 1.385 . S
C2769 C2770 1.389 . S
C2770 C2769 1.389 . S
C2770 C2771 1.387 . S
C2771 H2756 0.930 . S
C2771 C2766 1.390 . S
C2771 C2770 1.387 . S
H2772 C2784 0.930 . S
H2773 C2786 0.930 . S
H2774 C2787 0.930 . S
H2775 C2791 0.915 1_554 S
H2776 C2791 0.998 . S
H2777 C2791 0.943 1_554 S
H2778 C2792 0.960 . S
H2779 C2792 0.961 . S
H2780 C2792 0.959 . S
H2781 C2795 0.948 . S
H2782 C2796 0.931 . S
H2783 C2798 0.930 . S
C2784 H2772 0.930 . S
C2784 C2785 1.399 . S
C2784 C2789 1.399 . S
C2785 C2784 1.399 . S
C2785 C2786 1.376 . S
C2786 H2773 0.930 . S
C2786 C2785 1.376 . S
C2786 C2787 1.388 . S
C2787 H2774 0.930 . S
C2787 C2786 1.388 . S
C2787 C2788 1.390 . S
C2788 C2787 1.390 . S
C2788 C2789 1.394 . S
C2788 C2794 1.465 1_554 S
C2789 C2784 1.399 . S
C2789 C2788 1.394 . S
C2789 C2790 1.516 1_554 S
C2790 C2789 1.516 1_556 S
C2790 C2791 1.527 . S
C2790 C2792 1.561 . S
C2790 C2793 1.526 . S
C2791 H2775 0.915 1_556 S
C2791 H2776 0.998 . S
C2791 H2777 0.943 1_556 S
C2791 C2790 1.527 . S
C2792 H2778 0.960 . S
C2792 H2779 0.961 . S
C2792 H2780 0.959 . S
C2792 C2790 1.561 . S
C2793 C2790 1.526 . S
C2793 C2794 1.396 . S
C2793 C2798 1.390 . S
C2794 C2788 1.465 1_556 S
C2794 C2793 1.396 . S
C2794 C2795 1.399 . S
C2795 H2781 0.948 . S
C2795 C2794 1.399 . S
C2795 C2796 1.385 . S
C2796 H2782 0.931 . S
C2796 C2795 1.385 . S
C2796 C2797 1.389 . S
C2797 C2796 1.389 . S
C2797 C2798 1.387 . S
C2798 H2783 0.930 . S
C2798 C2793 1.390 . S
C2798 C2797 1.387 . S
H2799 C2811 0.930 . S
H2800 C2813 0.930 . S
H2801 C2814 0.930 . S
H2802 C2818 0.959 . S
H2803 C2818 0.959 . S
H2804 C2818 0.961 . S
H2805 C2819 0.960 . S
H2806 C2819 0.961 . S
H2807 C2819 0.959 . S
H2808 C2822 0.929 . S
H2809 C2823 0.931 . S
H2810 C2825 0.930 . S
C2811 H2799 0.930 . S
C2811 C2812 1.399 . S
C2811 C2816 1.399 . S
C2812 C2811 1.399 . S
C2812 C2813 1.376 . S
C2813 H2800 0.930 . S
C2813 C2812 1.376 . S
C2813 C2814 1.388 . S
C2814 H2801 0.930 . S
C2814 C2813 1.388 . S
C2814 C2815 1.390 . S
C2815 C2814 1.390 . S
C2815 C2816 1.394 . S
C2815 C2821 1.465 . S
C2816 C2811 1.399 . S
C2816 C2815 1.394 . S
C2816 C2817 1.516 . S
C2817 C2816 1.516 . S
C2817 C2818 1.502 . S
C2817 C2819 1.561 . S
C2817 C2820 1.526 . S
C2818 H2802 0.959 . S
C2818 H2803 0.959 . S
C2818 H2804 0.961 . S
C2818 C2817 1.502 . S
C2819 H2805 0.960 . S
C2819 H2806 0.961 . S
C2819 H2807 0.959 . S
C2819 C2817 1.561 . S
C2820 C2817 1.526 . S
C2820 C2821 1.396 . S
C2820 C2825 1.390 . S
C2821 C2815 1.465 . S
C2821 C2820 1.396 . S
C2821 C2822 1.399 . S
C2822 H2808 0.929 . S
C2822 C2821 1.399 . S
C2822 C2823 1.385 . S
C2823 H2809 0.931 . S
C2823 C2822 1.385 . S
C2823 C2824 1.389 . S
C2824 C2823 1.389 . S
C2824 C2825 1.387 . S
C2825 H2810 0.930 . S
C2825 C2820 1.390 . S
C2825 C2824 1.387 . S
H2826 C2838 0.930 . S
H2827 C2840 0.930 . S
H2828 C2841 0.930 . S
H2829 C2845 0.959 . S
H2830 C2845 0.959 . S
H2831 C2845 0.961 . S
H2832 C2846 0.960 . S
H2833 C2846 0.961 . S
H2834 C2846 0.959 . S
H2835 C2849 0.929 . S
H2836 C2850 0.931 . S
H2837 C2852 0.930 . S
C2838 H2826 0.930 . S
C2838 C2839 1.399 . S
C2838 C2843 1.399 . S
C2839 C2838 1.399 . S
C2839 C2840 1.376 . S
C2840 H2827 0.930 . S
C2840 C2839 1.376 . S
C2840 C2841 1.388 . S
C2841 H2828 0.930 . S
C2841 C2840 1.388 . S
C2841 C2842 1.390 . S
C2842 C2841 1.390 . S
C2842 C2843 1.394 . S
C2842 C2848 1.465 . S
C2843 C2838 1.399 . S
C2843 C2842 1.394 . S
C2843 C2844 1.516 . S
C2844 C2843 1.516 . S
C2844 C2845 1.502 . S
C2844 C2846 1.561 . S
C2844 C2847 1.526 . S
C2845 H2829 0.959 . S
C2845 H2830 0.959 . S
C2845 H2831 0.961 . S
C2845 C2844 1.502 . S
C2846 H2832 0.960 . S
C2846 H2833 0.961 . S
C2846 H2834 0.959 . S
C2846 C2844 1.561 . S
C2847 C2844 1.526 . S
C2847 C2848 1.396 . S
C2847 C2852 1.390 . S
C2848 C2842 1.465 . S
C2848 C2847 1.396 . S
C2848 C2849 1.399 . S
C2849 H2835 0.929 . S
C2849 C2848 1.399 . S
C2849 C2850 1.385 . S
C2850 H2836 0.931 . S
C2850 C2849 1.385 . S
C2850 C2851 1.389 . S
C2851 C2850 1.389 . S
C2851 C2852 1.387 . S
C2852 H2837 0.930 . S
C2852 C2847 1.390 . S
C2852 C2851 1.387 . S
H2853 C2865 0.930 . S
H2854 C2867 0.930 . S
H2855 C2868 0.930 . S
H2856 C2872 0.959 . S
H2857 C2872 0.959 . S
H2858 C2872 0.961 . S
H2859 C2873 0.960 . S
H2860 C2873 0.961 . S
H2861 C2873 0.959 . S
H2862 C2876 0.929 . S
H2863 C2877 0.931 . S
H2864 C2879 0.930 . S
C2865 H2853 0.930 . S
C2865 C2866 1.399 . S
C2865 C2870 1.399 . S
C2866 C2865 1.399 . S
C2866 C2867 1.376 . S
C2867 H2854 0.930 . S
C2867 C2866 1.376 . S
C2867 C2868 1.388 . S
C2868 H2855 0.930 . S
C2868 C2867 1.388 . S
C2868 C2869 1.390 . S
C2869 C2868 1.390 . S
C2869 C2870 1.394 . S
C2869 C2875 1.465 . S
C2870 C2865 1.399 . S
C2870 C2869 1.394 . S
C2870 C2871 1.516 . S
C2871 C2870 1.516 . S
C2871 C2872 1.502 . S
C2871 C2873 1.561 . S
C2871 C2874 1.526 . S
C2872 H2856 0.959 . S
C2872 H2857 0.959 . S
C2872 H2858 0.961 . S
C2872 C2871 1.502 . S
C2873 H2859 0.960 . S
C2873 H2860 0.961 . S
C2873 H2861 0.959 . S
C2873 C2871 1.561 . S
C2874 C2871 1.526 . S
C2874 C2875 1.396 . S
C2874 C2879 1.390 . S
C2875 C2869 1.465 . S
C2875 C2874 1.396 . S
C2875 C2876 1.399 . S
C2876 H2862 0.929 . S
C2876 C2875 1.399 . S
C2876 C2877 1.385 . S
C2877 H2863 0.931 . S
C2877 C2876 1.385 . S
C2877 C2878 1.389 . S
C2878 C2877 1.389 . S
C2878 C2879 1.387 . S
C2879 H2864 0.930 . S
C2879 C2874 1.390 . S
C2879 C2878 1.387 . S
H2880 C2892 0.930 . S
H2881 C2894 0.930 . S
H2882 C2895 0.930 . S
H2883 C2899 0.959 . S
H2884 C2899 0.959 . S
H2885 C2899 0.961 . S
H2886 C2900 0.960 . S
H2887 C2900 0.961 . S
H2888 C2900 0.959 . S
H2889 C2903 0.929 . S
H2890 C2904 0.931 . S
H2891 C2906 0.930 . S
C2892 H2880 0.930 . S
C2892 C2893 1.399 . S
C2892 C2897 1.399 . S
C2893 C2892 1.399 . S
C2893 C2894 1.376 . S
C2894 H2881 0.930 . S
C2894 C2893 1.376 . S
C2894 C2895 1.388 . S
C2895 H2882 0.930 . S
C2895 C2894 1.388 . S
C2895 C2896 1.390 . S
C2896 C2895 1.390 . S
C2896 C2897 1.394 . S
C2896 C2902 1.465 . S
C2897 C2892 1.399 . S
C2897 C2896 1.394 . S
C2897 C2898 1.516 . S
C2898 C2897 1.516 . S
C2898 C2899 1.502 . S
C2898 C2900 1.561 . S
C2898 C2901 1.526 . S
C2899 H2883 0.959 . S
C2899 H2884 0.959 . S
C2899 H2885 0.961 . S
C2899 C2898 1.502 . S
C2900 H2886 0.960 . S
C2900 H2887 0.961 . S
C2900 H2888 0.959 . S
C2900 C2898 1.561 . S
C2901 C2898 1.526 . S
C2901 C2902 1.396 . S
C2901 C2906 1.390 . S
C2902 C2896 1.465 . S
C2902 C2901 1.396 . S
C2902 C2903 1.399 . S
C2903 H2889 0.929 . S
C2903 C2902 1.399 . S
C2903 C2904 1.385 . S
C2904 H2890 0.931 . S
C2904 C2903 1.385 . S
C2904 C2905 1.389 . S
C2905 C2904 1.389 . S
C2905 C2906 1.387 . S
C2906 H2891 0.930 . S
C2906 C2901 1.390 . S
C2906 C2905 1.387 . S
H2907 C2919 0.930 . S
H2908 C2921 0.930 . S
H2909 C2922 0.930 . S
H2910 C2926 0.959 . S
H2911 C2926 0.959 . S
H2912 C2926 0.961 . S
H2913 C2927 0.960 . S
H2914 C2927 0.961 . S
H2915 C2927 0.959 . S
H2916 C2930 0.929 . S
H2917 C2931 0.931 . S
H2918 C2933 0.930 . S
C2919 H2907 0.930 . S
C2919 C2920 1.399 . S
C2919 C2924 1.399 . S
C2920 C2919 1.399 . S
C2920 C2921 1.376 . S
C2921 H2908 0.930 . S
C2921 C2920 1.376 . S
C2921 C2922 1.388 . S
C2922 H2909 0.930 . S
C2922 C2921 1.388 . S
C2922 C2923 1.390 . S
C2923 C2922 1.390 . S
C2923 C2924 1.394 . S
C2923 C2929 1.465 . S
C2924 C2919 1.399 . S
C2924 C2923 1.394 . S
C2924 C2925 1.516 . S
C2925 C2924 1.516 . S
C2925 C2926 1.502 . S
C2925 C2927 1.561 . S
C2925 C2928 1.526 . S
C2926 H2910 0.959 . S
C2926 H2911 0.959 . S
C2926 H2912 0.961 . S
C2926 C2925 1.502 . S
C2927 H2913 0.960 . S
C2927 H2914 0.961 . S
C2927 H2915 0.959 . S
C2927 C2925 1.561 . S
C2928 C2925 1.526 . S
C2928 C2929 1.396 . S
C2928 C2933 1.390 . S
C2929 C2923 1.465 . S
C2929 C2928 1.396 . S
C2929 C2930 1.399 . S
C2930 H2916 0.929 . S
C2930 C2929 1.399 . S
C2930 C2931 1.385 . S
C2931 H2917 0.931 . S
C2931 C2930 1.385 . S
C2931 C2932 1.389 . S
C2932 C2931 1.389 . S
C2932 C2933 1.387 . S
C2933 H2918 0.930 . S
C2933 C2928 1.390 . S
C2933 C2932 1.387 . S
H2934 C2946 0.930 1_455 S
H2935 C2948 0.930 . S
H2936 C2949 0.930 . S
H2937 C2953 0.959 . S
H2938 C2953 0.959 . S
H2939 C2953 0.961 . S
H2940 C2954 0.960 . S
H2941 C2954 0.961 . S
H2942 C2954 0.959 . S
H2943 C2957 0.929 . S
H2944 C2958 0.931 . S
H2945 C2960 0.930 . S
C2946 H2934 0.930 1_655 S
C2946 C2947 1.400 1_655 S
C2946 C2951 1.399 . S
C2947 C2946 1.400 1_455 S
C2947 C2948 1.382 1_455 S
C2948 H2935 0.930 . S
C2948 C2947 1.382 1_655 S
C2948 C2949 1.388 . S
C2949 H2936 0.930 . S
C2949 C2948 1.388 . S
C2949 C2950 1.390 . S
C2950 C2949 1.390 . S
C2950 C2951 1.394 . S
C2950 C2956 1.465 . S
C2951 C2946 1.399 . S
C2951 C2950 1.394 . S
C2951 C2952 1.516 . S
C2952 C2951 1.516 . S
C2952 C2953 1.502 . S
C2952 C2954 1.561 . S
C2952 C2955 1.526 . S
C2953 H2937 0.959 . S
C2953 H2938 0.959 . S
C2953 H2939 0.961 . S
C2953 C2952 1.502 . S
C2954 H2940 0.960 . S
C2954 H2941 0.961 . S
C2954 H2942 0.959 . S
C2954 C2952 1.561 . S
C2955 C2952 1.526 . S
C2955 C2956 1.396 . S
C2955 C2960 1.390 . S
C2956 C2950 1.465 . S
C2956 C2955 1.396 . S
C2956 C2957 1.399 . S
C2957 H2943 0.929 . S
C2957 C2956 1.399 . S
C2957 C2958 1.385 . S
C2958 H2944 0.931 . S
C2958 C2957 1.385 . S
C2958 C2959 1.389 . S
C2959 C2958 1.389 . S
C2959 C2960 1.387 . S
C2960 H2945 0.930 . S
C2960 C2955 1.390 . S
C2960 C2959 1.387 . S
H2961 C2973 0.930 . S
H2962 C2975 0.930 . S
H2963 C2976 0.930 . S
H2964 C2980 0.959 . S
H2965 C2980 0.959 . S
H2966 C2980 0.961 . S
H2967 C2981 0.960 . S
H2968 C2981 0.961 . S
H2969 C2981 0.959 . S
H2970 C2984 0.929 1_655 S
H2971 C2985 0.931 1_655 S
H2972 C2987 0.930 . S
C2973 H2961 0.930 . S
C2973 C2974 1.399 . S
C2973 C2978 1.399 . S
C2974 C2973 1.399 . S
C2974 C2975 1.376 . S
C2975 H2962 0.930 . S
C2975 C2974 1.376 . S
C2975 C2976 1.388 . S
C2976 H2963 0.930 . S
C2976 C2975 1.388 . S
C2976 C2977 1.390 . S
C2977 C2976 1.390 . S
C2977 C2978 1.394 . S
C2977 C2983 1.465 . S
C2978 C2973 1.399 . S
C2978 C2977 1.394 . S
C2978 C2979 1.516 . S
C2979 C2978 1.516 . S
C2979 C2980 1.502 . S
C2979 C2981 1.561 . S
C2979 C2982 1.526 . S
C2980 H2964 0.959 . S
C2980 H2965 0.959 . S
C2980 H2966 0.961 . S
C2980 C2979 1.502 . S
C2981 H2967 0.960 . S
C2981 H2968 0.961 . S
C2981 H2969 0.959 . S
C2981 C2979 1.561 . S
C2982 C2979 1.526 . S
C2982 C2983 1.396 . S
C2982 C2987 1.390 . S
C2983 C2977 1.465 . S
C2983 C2982 1.396 . S
C2983 C2984 1.399 . S
C2984 H2970 0.929 1_455 S
C2984 C2983 1.399 . S
C2984 C2985 1.385 . S
C2985 H2971 0.931 1_455 S
C2985 C2984 1.385 . S
C2985 C2986 1.389 . S
C2986 C2985 1.389 . S
C2986 C2987 1.387 . S
C2987 H2972 0.930 . S
C2987 C2982 1.390 . S
C2987 C2986 1.387 . S
H2988 C3000 0.930 . S
H2989 C3002 0.930 . S
H2990 C3003 0.930 . S
H2991 C3007 0.959 . S
H2992 C3007 0.959 . S
H2993 C3007 0.961 . S
H2994 C3008 0.960 . S
H2995 C3008 0.961 . S
H2996 C3008 0.959 . S
H2997 C3011 0.929 . S
H2998 C3012 0.931 . S
H2999 C3014 0.930 . S
C3000 H2988 0.930 . S
C3000 C3001 1.399 . S
C3000 C3005 1.399 . S
C3001 C3000 1.399 . S
C3001 C3002 1.376 . S
C3002 H2989 0.930 . S
C3002 C3001 1.376 . S
C3002 C3003 1.388 . S
C3003 H2990 0.930 . S
C3003 C3002 1.388 . S
C3003 C3004 1.390 . S
C3004 C3003 1.390 . S
C3004 C3005 1.394 . S
C3004 C3010 1.465 . S
C3005 C3000 1.399 . S
C3005 C3004 1.394 . S
C3005 C3006 1.516 . S
C3006 C3005 1.516 . S
C3006 C3007 1.502 . S
C3006 C3008 1.561 . S
C3006 C3009 1.526 . S
C3007 H2991 0.959 . S
C3007 H2992 0.959 . S
C3007 H2993 0.961 . S
C3007 C3006 1.502 . S
C3008 H2994 0.960 . S
C3008 H2995 0.961 . S
C3008 H2996 0.959 . S
C3008 C3006 1.561 . S
C3009 C3006 1.526 . S
C3009 C3010 1.396 . S
C3009 C3014 1.390 . S
C3010 C3004 1.465 . S
C3010 C3009 1.396 . S
C3010 C3011 1.399 . S
C3011 H2997 0.929 . S
C3011 C3010 1.399 . S
C3011 C3012 1.385 . S
C3012 H2998 0.931 . S
C3012 C3011 1.385 . S
C3012 C3013 1.389 . S
C3013 C3012 1.389 . S
C3013 C3014 1.387 . S
C3014 H2999 0.930 . S
C3014 C3009 1.390 . S
C3014 C3013 1.387 . S
H3015 C3027 0.930 . S
H3016 C3029 0.930 . S
H3017 C3030 0.930 . S
H3018 C3034 0.959 . S
H3019 C3034 0.959 . S
H3020 C3034 0.961 . S
H3021 C3035 0.938 1_545 S
H3022 C3035 0.950 1_545 S
H3023 C3035 1.002 . S
H3024 C3038 0.929 . S
H3025 C3039 0.931 . S
H3026 C3041 0.930 1_545 S
C3027 H3015 0.930 . S
C3027 C3028 1.399 . S
C3027 C3032 1.399 . S
C3028 C3027 1.399 . S
C3028 C3029 1.376 . S
C3029 H3016 0.930 . S
C3029 C3028 1.376 . S
C3029 C3030 1.388 . S
C3030 H3017 0.930 . S
C3030 C3029 1.388 . S
C3030 C3031 1.390 . S
C3031 C3030 1.390 . S
C3031 C3032 1.394 . S
C3031 C3037 1.465 . S
C3032 C3027 1.399 . S
C3032 C3031 1.394 . S
C3032 C3033 1.516 . S
C3033 C3032 1.516 . S
C3033 C3034 1.502 1_565 S
C3033 C3035 1.554 . S
C3033 C3036 1.526 . S
C3034 H3018 0.959 . S
C3034 H3019 0.959 . S
C3034 H3020 0.961 . S
C3034 C3033 1.502 1_545 S
C3035 H3021 0.938 1_565 S
C3035 H3022 0.950 1_565 S
C3035 H3023 1.002 . S
C3035 C3033 1.554 . S
C3036 C3033 1.526 . S
C3036 C3037 1.396 . S
C3036 C3041 1.390 . S
C3037 C3031 1.465 . S
C3037 C3036 1.396 . S
C3037 C3038 1.399 . S
C3038 H3024 0.929 . S
C3038 C3037 1.399 . S
C3038 C3039 1.385 . S
C3039 H3025 0.931 . S
C3039 C3038 1.385 . S
C3039 C3040 1.389 . S
C3040 C3039 1.389 . S
C3040 C3041 1.387 . S
C3041 H3026 0.930 1_565 S
C3041 C3036 1.390 . S
C3041 C3040 1.387 . S
H3042 C3054 0.930 . S
H3043 C3056 0.930 . S
H3044 C3057 0.930 1_545 S
H3045 C3061 0.959 . S
H3046 C3061 0.959 . S
H3047 C3061 0.961 . S
H3048 C3062 0.960 . S
H3049 C3062 0.961 . S
H3050 C3062 0.959 . S
H3051 C3065 0.929 . S
H3052 C3066 0.931 . S
H3053 C3068 0.930 . S
C3054 H3042 0.930 . S
C3054 C3055 1.399 . S
C3054 C3059 1.399 . S
C3055 C3054 1.399 . S
C3055 C3056 1.376 . S
C3056 H3043 0.930 . S
C3056 C3055 1.376 . S
C3056 C3057 1.388 . S
C3057 H3044 0.930 1_565 S
C3057 C3056 1.388 . S
C3057 C3058 1.390 . S
C3058 C3057 1.390 . S
C3058 C3059 1.394 . S
C3058 C3064 1.465 . S
C3059 C3054 1.399 . S
C3059 C3058 1.394 . S
C3059 C3060 1.516 . S
C3060 C3059 1.516 . S
C3060 C3061 1.502 . S
C3060 C3062 1.561 . S
C3060 C3063 1.526 . S
C3061 H3045 0.959 . S
C3061 H3046 0.959 . S
C3061 H3047 0.961 . S
C3061 C3060 1.502 . S
C3062 H3048 0.960 . S
C3062 H3049 0.961 . S
C3062 H3050 0.959 . S
C3062 C3060 1.561 . S
C3063 C3060 1.526 . S
C3063 C3064 1.396 . S
C3063 C3068 1.390 . S
C3064 C3058 1.465 . S
C3064 C3063 1.396 . S
C3064 C3065 1.399 1_565 S
C3065 H3051 0.929 . S
C3065 C3064 1.399 1_545 S
C3065 C3066 1.385 . S
C3066 H3052 0.931 . S
C3066 C3065 1.385 . S
C3066 C3067 1.387 1_545 S
C3067 C3066 1.387 1_565 S
C3067 C3068 1.392 . S
C3068 H3053 0.930 . S
C3068 C3063 1.390 . S
C3068 C3067 1.392 . S
H3069 C3081 0.930 . S
H3070 C3083 0.930 . S
H3071 C3084 0.930 1_655 S
H3072 C3088 0.959 . S
H3073 C3088 0.959 . S
H3074 C3088 0.961 . S
H3075 C3089 0.960 . S
H3076 C3089 0.961 . S
H3077 C3089 0.959 . S
H3078 C3092 0.929 . S
H3079 C3093 0.931 . S
H3080 C3095 0.930 . S
C3081 H3069 0.930 . S
C3081 C3082 1.399 . S
C3081 C3086 1.399 . S
C3082 C3081 1.399 . S
C3082 C3083 1.376 . S
C3083 H3070 0.930 . S
C3083 C3082 1.376 . S
C3083 C3084 1.388 . S
C3084 H3071 0.930 1_455 S
C3084 C3083 1.388 . S
C3084 C3085 1.390 . S
C3085 C3084 1.390 . S
C3085 C3086 1.394 . S
C3085 C3091 1.465 . S
C3086 C3081 1.399 . S
C3086 C3085 1.394 . S
C3086 C3087 1.516 . S
C3087 C3086 1.516 . S
C3087 C3088 1.502 . S
C3087 C3089 1.561 . S
C3087 C3090 1.526 . S
C3088 H3072 0.959 . S
C3088 H3073 0.959 . S
C3088 H3074 0.961 . S
C3088 C3087 1.502 . S
C3089 H3075 0.960 . S
C3089 H3076 0.961 . S
C3089 H3077 0.959 . S
C3089 C3087 1.561 . S
C3090 C3087 1.526 . S
C3090 C3091 1.396 . S
C3090 C3095 1.390 . S
C3091 C3085 1.465 . S
C3091 C3090 1.396 . S
C3091 C3092 1.399 1_455 S
C3092 H3078 0.929 . S
C3092 C3091 1.399 1_655 S
C3092 C3093 1.385 . S
C3093 H3079 0.931 . S
C3093 C3092 1.385 . S
C3093 C3094 1.389 . S
C3094 C3093 1.389 . S
C3094 C3095 1.387 1_655 S
C3095 H3080 0.930 . S
C3095 C3090 1.390 . S
C3095 C3094 1.387 1_455 S
H3096 C3108 0.930 . S
H3097 C3110 0.930 . S
H3098 C3111 0.930 . S
H3099 C3115 0.959 . S
H3100 C3115 0.959 . S
H3101 C3115 0.961 . S
H3102 C3116 0.960 . S
H3103 C3116 0.961 . S
H3104 C3116 0.959 . S
H3105 C3119 0.929 . S
H3106 C3120 0.931 . S
H3107 C3122 0.930 . S
C3108 H3096 0.930 . S
C3108 C3109 1.399 . S
C3108 C3113 1.399 . S
C3109 C3108 1.399 . S
C3109 C3110 1.376 . S
C3110 H3097 0.930 . S
C3110 C3109 1.376 . S
C3110 C3111 1.388 . S
C3111 H3098 0.930 . S
C3111 C3110 1.388 . S
C3111 C3112 1.390 . S
C3112 C3111 1.390 . S
C3112 C3113 1.394 . S
C3112 C3118 1.465 . S
C3113 C3108 1.399 . S
C3113 C3112 1.394 . S
C3113 C3114 1.516 . S
C3114 C3113 1.516 . S
C3114 C3115 1.502 . S
C3114 C3116 1.561 . S
C3114 C3117 1.526 . S
C3115 H3099 0.959 . S
C3115 H3100 0.959 . S
C3115 H3101 0.961 . S
C3115 C3114 1.502 . S
C3116 H3102 0.960 . S
C3116 H3103 0.961 . S
C3116 H3104 0.959 . S
C3116 C3114 1.561 . S
C3117 C3114 1.526 . S
C3117 C3118 1.396 . S
C3117 C3122 1.390 . S
C3118 C3112 1.465 . S
C3118 C3117 1.396 . S
C3118 C3119 1.399 . S
C3119 H3105 0.929 . S
C3119 C3118 1.399 . S
C3119 C3120 1.385 . S
C3120 H3106 0.931 . S
C3120 C3119 1.385 . S
C3120 C3121 1.389 . S
C3121 C3120 1.389 . S
C3121 C3122 1.387 . S
C3122 H3107 0.930 . S
C3122 C3117 1.390 . S
C3122 C3121 1.387 . S
H3123 C3135 0.930 . S
H3124 C3137 0.930 . S
H3125 C3138 0.930 . S
H3126 C3142 0.959 . S
H3127 C3142 0.959 . S
H3128 C3142 0.961 . S
H3129 C3143 0.960 . S
H3130 C3143 0.961 . S
H3131 C3143 0.959 . S
H3132 C3146 0.929 . S
H3133 C3147 0.931 . S
H3134 C3149 0.930 . S
C3135 H3123 0.930 . S
C3135 C3136 1.399 . S
C3135 C3140 1.399 . S
C3136 C3135 1.399 . S
C3136 C3137 1.376 . S
C3137 H3124 0.930 . S
C3137 C3136 1.376 . S
C3137 C3138 1.388 . S
C3138 H3125 0.930 . S
C3138 C3137 1.388 . S
C3138 C3139 1.390 . S
C3139 C3138 1.390 . S
C3139 C3140 1.394 . S
C3139 C3145 1.465 . S
C3140 C3135 1.399 . S
C3140 C3139 1.394 . S
C3140 C3141 1.516 . S
C3141 C3140 1.516 . S
C3141 C3142 1.502 . S
C3141 C3143 1.561 . S
C3141 C3144 1.526 . S
C3142 H3126 0.959 . S
C3142 H3127 0.959 . S
C3142 H3128 0.961 . S
C3142 C3141 1.502 . S
C3143 H3129 0.960 . S
C3143 H3130 0.961 . S
C3143 H3131 0.959 . S
C3143 C3141 1.561 . S
C3144 C3141 1.526 . S
C3144 C3145 1.396 . S
C3144 C3149 1.390 . S
C3145 C3139 1.465 . S
C3145 C3144 1.396 . S
C3145 C3146 1.399 . S
C3146 H3132 0.929 . S
C3146 C3145 1.399 . S
C3146 C3147 1.385 . S
C3147 H3133 0.931 . S
C3147 C3146 1.385 . S
C3147 C3148 1.389 . S
C3148 C3147 1.389 . S
C3148 C3149 1.387 . S
C3149 H3134 0.930 . S
C3149 C3144 1.390 . S
C3149 C3148 1.387 . S
H3150 C3162 0.930 . S
H3151 C3164 0.930 . S
H3152 C3165 0.930 . S
H3153 C3169 0.959 . S
H3154 C3169 0.959 . S
H3155 C3169 0.961 . S
H3156 C3170 0.960 . S
H3157 C3170 0.961 . S
H3158 C3170 0.959 . S
H3159 C3173 0.929 . S
H3160 C3174 0.931 . S
H3161 C3176 0.930 . S
C3162 H3150 0.930 . S
C3162 C3163 1.399 . S
C3162 C3167 1.399 . S
C3163 C3162 1.399 . S
C3163 C3164 1.376 . S
C3164 H3151 0.930 . S
C3164 C3163 1.376 . S
C3164 C3165 1.388 . S
C3165 H3152 0.930 . S
C3165 C3164 1.388 . S
C3165 C3166 1.390 . S
C3166 C3165 1.390 . S
C3166 C3167 1.394 . S
C3166 C3172 1.465 . S
C3167 C3162 1.399 . S
C3167 C3166 1.394 . S
C3167 C3168 1.516 . S
C3168 C3167 1.516 . S
C3168 C3169 1.502 . S
C3168 C3170 1.561 . S
C3168 C3171 1.526 . S
C3169 H3153 0.959 . S
C3169 H3154 0.959 . S
C3169 H3155 0.961 . S
C3169 C3168 1.502 . S
C3170 H3156 0.960 . S
C3170 H3157 0.961 . S
C3170 H3158 0.959 . S
C3170 C3168 1.561 . S
C3171 C3168 1.526 . S
C3171 C3172 1.396 . S
C3171 C3176 1.390 . S
C3172 C3166 1.465 . S
C3172 C3171 1.396 . S
C3172 C3173 1.399 . S
C3173 H3159 0.929 . S
C3173 C3172 1.399 . S
C3173 C3174 1.385 . S
C3174 H3160 0.931 . S
C3174 C3173 1.385 . S
C3174 C3175 1.389 . S
C3175 C3174 1.389 . S
C3175 C3176 1.387 . S
C3176 H3161 0.930 . S
C3176 C3171 1.390 . S
C3176 C3175 1.387 . S
H3177 C3189 0.930 . S
H3178 C3191 0.930 . S
H3179 C3192 0.930 . S
H3180 C3196 0.959 . S
H3181 C3196 0.959 . S
H3182 C3196 0.961 . S
H3183 C3197 0.960 . S
H3184 C3197 0.961 . S
H3185 C3197 0.959 . S
H3186 C3200 0.929 . S
H3187 C3201 0.931 . S
H3188 C3203 0.930 . S
C3189 H3177 0.930 . S
C3189 C3190 1.399 . S
C3189 C3194 1.399 . S
C3190 C3189 1.399 . S
C3190 C3191 1.376 . S
C3191 H3178 0.930 . S
C3191 C3190 1.376 . S
C3191 C3192 1.388 . S
C3192 H3179 0.930 . S
C3192 C3191 1.388 . S
C3192 C3193 1.390 . S
C3193 C3192 1.390 . S
C3193 C3194 1.394 . S
C3193 C3199 1.465 . S
C3194 C3189 1.399 . S
C3194 C3193 1.394 . S
C3194 C3195 1.516 . S
C3195 C3194 1.516 . S
C3195 C3196 1.502 . S
C3195 C3197 1.561 . S
C3195 C3198 1.526 . S
C3196 H3180 0.959 . S
C3196 H3181 0.959 . S
C3196 H3182 0.961 . S
C3196 C3195 1.502 . S
C3197 H3183 0.960 . S
C3197 H3184 0.961 . S
C3197 H3185 0.959 . S
C3197 C3195 1.561 . S
C3198 C3195 1.526 . S
C3198 C3199 1.396 . S
C3198 C3203 1.390 . S
C3199 C3193 1.465 . S
C3199 C3198 1.396 . S
C3199 C3200 1.399 . S
C3200 H3186 0.929 . S
C3200 C3199 1.399 . S
C3200 C3201 1.385 . S
C3201 H3187 0.931 . S
C3201 C3200 1.385 . S
C3201 C3202 1.389 . S
C3202 C3201 1.389 . S
C3202 C3203 1.387 . S
C3203 H3188 0.930 . S
C3203 C3198 1.390 . S
C3203 C3202 1.387 . S
H3204 C3216 0.930 . S
H3205 C3218 0.930 . S
H3206 C3219 0.930 1_565 S
H3207 C3223 0.959 . S
H3208 C3223 0.959 . S
H3209 C3223 0.961 . S
H3210 C3224 0.960 . S
H3211 C3224 0.961 . S
H3212 C3224 0.959 . S
H3213 C3227 0.929 . S
H3214 C3228 0.931 . S
H3215 C3230 0.930 . S
C3216 H3204 0.930 . S
C3216 C3217 1.399 . S
C3216 C3221 1.399 . S
C3217 C3216 1.399 . S
C3217 C3218 1.376 . S
C3218 H3205 0.930 . S
C3218 C3217 1.376 . S
C3218 C3219 1.388 . S
C3219 H3206 0.930 1_545 S
C3219 C3218 1.388 . S
C3219 C3220 1.390 . S
C3220 C3219 1.390 . S
C3220 C3221 1.394 . S
C3220 C3226 1.465 . S
C3221 C3216 1.399 . S
C3221 C3220 1.394 . S
C3221 C3222 1.516 . S
C3222 C3221 1.516 . S
C3222 C3223 1.502 . S
C3222 C3224 1.561 . S
C3222 C3225 1.526 . S
C3223 H3207 0.959 . S
C3223 H3208 0.959 . S
C3223 H3209 0.961 . S
C3223 C3222 1.502 . S
C3224 H3210 0.960 . S
C3224 H3211 0.961 . S
C3224 H3212 0.959 . S
C3224 C3222 1.561 . S
C3225 C3222 1.526 . S
C3225 C3226 1.396 . S
C3225 C3230 1.390 . S
C3226 C3220 1.465 . S
C3226 C3225 1.396 . S
C3226 C3227 1.399 1_545 S
C3227 H3213 0.929 . S
C3227 C3226 1.399 1_565 S
C3227 C3228 1.385 . S
C3228 H3214 0.931 . S
C3228 C3227 1.385 . S
C3228 C3229 1.389 1_565 S
C3229 C3228 1.389 1_545 S
C3229 C3230 1.387 . S
C3230 H3215 0.930 . S
C3230 C3225 1.390 . S
C3230 C3229 1.387 . S
H3231 C3243 0.930 . S
H3232 C3245 0.930 . S
H3233 C3246 0.930 . S
H3234 C3250 0.959 . S
H3235 C3250 0.959 . S
H3236 C3250 0.961 . S
H3237 C3251 0.960 . S
H3238 C3251 0.961 . S
H3239 C3251 0.959 . S
H3240 C3254 0.929 . S
H3241 C3255 0.931 . S
H3242 C3257 0.930 . S
C3243 H3231 0.930 . S
C3243 C3244 1.399 . S
C3243 C3248 1.399 . S
C3244 C3243 1.399 . S
C3244 C3245 1.376 . S
C3245 H3232 0.930 . S
C3245 C3244 1.376 . S
C3245 C3246 1.388 . S
C3246 H3233 0.930 . S
C3246 C3245 1.388 . S
C3246 C3247 1.390 . S
C3247 C3246 1.390 . S
C3247 C3248 1.394 . S
C3247 C3253 1.465 . S
C3248 C3243 1.399 . S
C3248 C3247 1.394 . S
C3248 C3249 1.516 . S
C3249 C3248 1.516 . S
C3249 C3250 1.502 . S
C3249 C3251 1.561 1_655 S
C3249 C3252 1.526 . S
C3250 H3234 0.959 . S
C3250 H3235 0.959 . S
C3250 H3236 0.961 . S
C3250 C3249 1.502 . S
C3251 H3237 0.960 . S
C3251 H3238 0.961 . S
C3251 H3239 0.959 . S
C3251 C3249 1.561 1_455 S
C3252 C3249 1.526 . S
C3252 C3253 1.396 . S
C3252 C3257 1.390 . S
C3253 C3247 1.465 . S
C3253 C3252 1.396 . S
C3253 C3254 1.399 . S
C3254 H3240 0.929 . S
C3254 C3253 1.399 . S
C3254 C3255 1.385 . S
C3255 H3241 0.931 . S
C3255 C3254 1.385 . S
C3255 C3256 1.389 . S
C3256 C3255 1.389 . S
C3256 C3257 1.387 . S
C3257 H3242 0.930 . S
C3257 C3252 1.390 . S
C3257 C3256 1.387 . S
H3258 C3270 0.930 . S
H3259 C3272 0.930 . S
H3260 C3273 0.930 . S
H3261 C3277 0.959 . S
H3262 C3277 0.959 . S
H3263 C3277 0.961 . S
H3264 C3278 0.960 . S
H3265 C3278 0.961 . S
H3266 C3278 0.959 . S
H3267 C3281 0.929 . S
H3268 C3282 0.931 . S
H3269 C3284 0.930 . S
C3270 H3258 0.930 . S
C3270 C3271 1.399 . S
C3270 C3275 1.399 . S
C3271 C3270 1.399 . S
C3271 C3272 1.376 . S
C3272 H3259 0.930 . S
C3272 C3271 1.376 . S
C3272 C3273 1.388 . S
C3273 H3260 0.930 . S
C3273 C3272 1.388 . S
C3273 C3274 1.390 . S
C3274 C3273 1.390 . S
C3274 C3275 1.394 . S
C3274 C3280 1.465 . S
C3275 C3270 1.399 . S
C3275 C3274 1.394 . S
C3275 C3276 1.516 . S
C3276 C3275 1.516 . S
C3276 C3277 1.502 . S
C3276 C3278 1.561 . S
C3276 C3279 1.526 . S
C3277 H3261 0.959 . S
C3277 H3262 0.959 . S
C3277 H3263 0.961 . S
C3277 C3276 1.502 . S
C3278 H3264 0.960 . S
C3278 H3265 0.961 . S
C3278 H3266 0.959 . S
C3278 C3276 1.561 . S
C3279 C3276 1.526 . S
C3279 C3280 1.396 . S
C3279 C3284 1.390 . S
C3280 C3274 1.465 . S
C3280 C3279 1.396 . S
C3280 C3281 1.399 . S
C3281 H3267 0.929 . S
C3281 C3280 1.399 . S
C3281 C3282 1.385 . S
C3282 H3268 0.931 . S
C3282 C3281 1.385 . S
C3282 C3283 1.389 . S
C3283 C3282 1.389 . S
C3283 C3284 1.387 . S
C3284 H3269 0.930 . S
C3284 C3279 1.390 . S
C3284 C3283 1.387 . S
H3285 C3297 0.930 . S
H3286 C3299 0.930 . S
H3287 C3300 0.930 . S
H3288 C3304 0.959 . S
H3289 C3304 0.959 . S
H3290 C3304 0.961 . S
H3291 C3305 0.960 . S
H3292 C3305 0.961 . S
H3293 C3305 0.959 . S
H3294 C3308 0.929 . S
H3295 C3309 0.931 . S
H3296 C3311 0.930 . S
C3297 H3285 0.930 . S
C3297 C3298 1.399 . S
C3297 C3302 1.399 . S
C3298 C3297 1.399 . S
C3298 C3299 1.376 . S
C3299 H3286 0.930 . S
C3299 C3298 1.376 . S
C3299 C3300 1.388 . S
C3300 H3287 0.930 . S
C3300 C3299 1.388 . S
C3300 C3301 1.390 . S
C3301 C3300 1.390 . S
C3301 C3302 1.394 . S
C3301 C3307 1.465 . S
C3302 C3297 1.399 . S
C3302 C3301 1.394 . S
C3302 C3303 1.516 . S
C3303 C3302 1.516 . S
C3303 C3304 1.502 . S
C3303 C3305 1.561 . S
C3303 C3306 1.526 . S
C3304 H3288 0.959 . S
C3304 H3289 0.959 . S
C3304 H3290 0.961 . S
C3304 C3303 1.502 . S
C3305 H3291 0.960 . S
C3305 H3292 0.961 . S
C3305 H3293 0.959 . S
C3305 C3303 1.561 . S
C3306 C3303 1.526 . S
C3306 C3307 1.396 . S
C3306 C3311 1.390 . S
C3307 C3301 1.465 . S
C3307 C3306 1.396 . S
C3307 C3308 1.399 . S
C3308 H3294 0.929 . S
C3308 C3307 1.399 . S
C3308 C3309 1.385 . S
C3309 H3295 0.931 . S
C3309 C3308 1.385 . S
C3309 C3310 1.389 . S
C3310 C3309 1.389 . S
C3310 C3311 1.387 . S
C3311 H3296 0.930 . S
C3311 C3306 1.390 . S
C3311 C3310 1.387 . S
H3312 C3324 0.930 . S
H3313 C3326 0.930 1_545 S
H3314 C3327 0.930 . S
H3315 C3331 0.959 . S
H3316 C3331 0.959 . S
H3317 C3331 0.961 . S
H3318 C3332 0.960 . S
H3319 C3332 0.961 . S
H3320 C3332 0.959 . S
H3321 C3335 0.929 . S
H3322 C3336 0.931 . S
H3323 C3338 0.930 . S
C3324 H3312 0.930 . S
C3324 C3325 1.399 . S
C3324 C3329 1.399 . S
C3325 C3324 1.399 . S
C3325 C3326 1.376 . S
C3326 H3313 0.930 1_565 S
C3326 C3325 1.376 . S
C3326 C3327 1.388 . S
C3327 H3314 0.930 . S
C3327 C3326 1.388 . S
C3327 C3328 1.390 . S
C3328 C3327 1.390 . S
C3328 C3329 1.394 . S
C3328 C3334 1.465 . S
C3329 C3324 1.399 . S
C3329 C3328 1.394 . S
C3329 C3330 1.516 . S
C3330 C3329 1.516 . S
C3330 C3331 1.502 . S
C3330 C3332 1.561 . S
C3330 C3333 1.526 . S
C3331 H3315 0.959 . S
C3331 H3316 0.959 . S
C3331 H3317 0.961 . S
C3331 C3330 1.502 . S
C3332 H3318 0.960 . S
C3332 H3319 0.961 . S
C3332 H3320 0.959 . S
C3332 C3330 1.561 . S
C3333 C3330 1.526 . S
C3333 C3334 1.396 . S
C3333 C3338 1.390 . S
C3334 C3328 1.465 . S
C3334 C3333 1.396 . S
C3334 C3335 1.399 . S
C3335 H3321 0.929 . S
C3335 C3334 1.399 . S
C3335 C3336 1.385 . S
C3336 H3322 0.931 . S
C3336 C3335 1.385 . S
C3336 C3337 1.389 . S
C3337 C3336 1.389 . S
C3337 C3338 1.387 . S
C3338 H3323 0.930 . S
C3338 C3333 1.390 . S
C3338 C3337 1.387 . S
H3339 C3351 0.930 . S
H3340 C3353 0.930 . S
H3341 C3354 0.930 . S
H3342 C3358 0.959 . S
H3343 C3358 0.959 . S
H3344 C3358 0.961 . S
H3345 C3359 0.960 . S
H3346 C3359 0.961 . S
H3347 C3359 0.959 . S
H3348 C3362 0.929 . S
H3349 C3363 0.931 . S
H3350 C3365 0.930 . S
C3351 H3339 0.930 . S
C3351 C3352 1.399 . S
C3351 C3356 1.399 . S
C3352 C3351 1.399 . S
C3352 C3353 1.376 . S
C3353 H3340 0.930 . S
C3353 C3352 1.376 . S
C3353 C3354 1.388 . S
C3354 H3341 0.930 . S
C3354 C3353 1.388 . S
C3354 C3355 1.390 . S
C3355 C3354 1.390 . S
C3355 C3356 1.394 . S
C3355 C3361 1.465 . S
C3356 C3351 1.399 . S
C3356 C3355 1.394 . S
C3356 C3357 1.516 . S
C3357 C3356 1.516 . S
C3357 C3358 1.502 . S
C3357 C3359 1.561 . S
C3357 C3360 1.526 . S
C3358 H3342 0.959 . S
C3358 H3343 0.959 . S
C3358 H3344 0.961 . S
C3358 C3357 1.502 . S
C3359 H3345 0.960 . S
C3359 H3346 0.961 . S
C3359 H3347 0.959 . S
C3359 C3357 1.561 . S
C3360 C3357 1.526 . S
C3360 C3361 1.396 . S
C3360 C3365 1.390 . S
C3361 C3355 1.465 . S
C3361 C3360 1.396 . S
C3361 C3362 1.399 . S
C3362 H3348 0.929 . S
C3362 C3361 1.399 . S
C3362 C3363 1.385 . S
C3363 H3349 0.931 . S
C3363 C3362 1.385 . S
C3363 C3364 1.389 . S
C3364 C3363 1.389 . S
C3364 C3365 1.387 . S
C3365 H3350 0.930 . S
C3365 C3360 1.390 . S
C3365 C3364 1.387 . S
H3366 C3378 0.930 . S
H3367 C3380 0.930 . S
H3368 C3381 0.930 . S
H3369 C3385 0.959 . S
H3370 C3385 0.959 . S
H3371 C3385 0.961 . S
H3372 C3386 0.960 . S
H3373 C3386 0.961 . S
H3374 C3386 0.959 . S
H3375 C3389 0.929 . S
H3376 C3390 0.931 . S
H3377 C3392 0.930 . S
C3378 H3366 0.930 . S
C3378 C3379 1.399 . S
C3378 C3383 1.399 . S
C3379 C3378 1.399 . S
C3379 C3380 1.376 . S
C3380 H3367 0.930 . S
C3380 C3379 1.376 . S
C3380 C3381 1.388 . S
C3381 H3368 0.930 . S
C3381 C3380 1.388 . S
C3381 C3382 1.390 . S
C3382 C3381 1.390 . S
C3382 C3383 1.394 . S
C3382 C3388 1.465 . S
C3383 C3378 1.399 . S
C3383 C3382 1.394 . S
C3383 C3384 1.516 . S
C3384 C3383 1.516 . S
C3384 C3385 1.502 . S
C3384 C3386 1.561 . S
C3384 C3387 1.526 . S
C3385 H3369 0.959 . S
C3385 H3370 0.959 . S
C3385 H3371 0.961 . S
C3385 C3384 1.502 . S
C3386 H3372 0.960 . S
C3386 H3373 0.961 . S
C3386 H3374 0.959 . S
C3386 C3384 1.561 . S
C3387 C3384 1.526 . S
C3387 C3388 1.396 . S
C3387 C3392 1.390 . S
C3388 C3382 1.465 . S
C3388 C3387 1.396 . S
C3388 C3389 1.399 . S
C3389 H3375 0.929 . S
C3389 C3388 1.399 . S
C3389 C3390 1.385 . S
C3390 H3376 0.931 . S
C3390 C3389 1.385 . S
C3390 C3391 1.389 . S
C3391 C3390 1.389 . S
C3391 C3392 1.387 . S
C3392 H3377 0.930 . S
C3392 C3387 1.390 . S
C3392 C3391 1.387 . S
H3393 C3405 0.930 . S
H3394 C3407 0.930 . S
H3395 C3408 0.930 . S
H3396 C3412 0.959 . S
H3397 C3412 0.959 . S
H3398 C3412 0.961 . S
H3399 C3413 0.960 . S
H3400 C3413 0.961 . S
H3401 C3413 0.959 . S
H3402 C3416 0.929 . S
H3403 C3417 0.931 . S
H3404 C3419 0.930 . S
C3405 H3393 0.930 . S
C3405 C3406 1.399 . S
C3405 C3410 1.399 . S
C3406 C3405 1.399 . S
C3406 C3407 1.376 . S
C3407 H3394 0.930 . S
C3407 C3406 1.376 . S
C3407 C3408 1.388 . S
C3408 H3395 0.930 . S
C3408 C3407 1.388 . S
C3408 C3409 1.390 . S
C3409 C3408 1.390 . S
C3409 C3410 1.394 . S
C3409 C3415 1.465 . S
C3410 C3405 1.399 . S
C3410 C3409 1.394 . S
C3410 C3411 1.516 . S
C3411 C3410 1.516 . S
C3411 C3412 1.502 . S
C3411 C3413 1.561 . S
C3411 C3414 1.526 . S
C3412 H3396 0.959 . S
C3412 H3397 0.959 . S
C3412 H3398 0.961 . S
C3412 C3411 1.502 . S
C3413 H3399 0.960 . S
C3413 H3400 0.961 . S
C3413 H3401 0.959 . S
C3413 C3411 1.561 . S
C3414 C3411 1.526 . S
C3414 C3415 1.396 . S
C3414 C3419 1.390 . S
C3415 C3409 1.465 . S
C3415 C3414 1.396 . S
C3415 C3416 1.399 . S
C3416 H3402 0.929 . S
C3416 C3415 1.399 . S
C3416 C3417 1.385 . S
C3417 H3403 0.931 . S
C3417 C3416 1.385 . S
C3417 C3418 1.389 . S
C3418 C3417 1.389 . S
C3418 C3419 1.387 . S
C3419 H3404 0.930 . S
C3419 C3414 1.390 . S
C3419 C3418 1.387 . S
H3420 C3432 0.930 . S
H3421 C3434 0.930 1_655 S
H3422 C3435 0.930 . S
H3423 C3439 0.959 . S
H3424 C3439 0.959 . S
H3425 C3439 0.961 . S
H3426 C3440 0.960 . S
H3427 C3440 0.961 . S
H3428 C3440 0.959 . S
H3429 C3443 0.929 . S
H3430 C3444 0.931 . S
H3431 C3446 0.930 . S
C3432 H3420 0.930 . S
C3432 C3433 1.399 . S
C3432 C3437 1.399 . S
C3433 C3432 1.399 . S
C3433 C3434 1.376 . S
C3434 H3421 0.930 1_455 S
C3434 C3433 1.376 . S
C3434 C3435 1.388 . S
C3435 H3422 0.930 . S
C3435 C3434 1.388 . S
C3435 C3436 1.390 . S
C3436 C3435 1.390 . S
C3436 C3437 1.394 . S
C3436 C3442 1.465 . S
C3437 C3432 1.399 . S
C3437 C3436 1.394 . S
C3437 C3438 1.516 . S
C3438 C3437 1.516 . S
C3438 C3439 1.502 . S
C3438 C3440 1.561 . S
C3438 C3441 1.526 . S
C3439 H3423 0.959 . S
C3439 H3424 0.959 . S
C3439 H3425 0.961 . S
C3439 C3438 1.502 . S
C3440 H3426 0.960 . S
C3440 H3427 0.961 . S
C3440 H3428 0.959 . S
C3440 C3438 1.561 . S
C3441 C3438 1.526 . S
C3441 C3442 1.396 . S
C3441 C3446 1.390 . S
C3442 C3436 1.465 . S
C3442 C3441 1.396 . S
C3442 C3443 1.399 . S
C3443 H3429 0.929 . S
C3443 C3442 1.399 . S
C3443 C3444 1.385 . S
C3444 H3430 0.931 . S
C3444 C3443 1.385 . S
C3444 C3445 1.389 . S
C3445 C3444 1.389 . S
C3445 C3446 1.387 . S
C3446 H3431 0.930 . S
C3446 C3441 1.390 . S
C3446 C3445 1.387 . S
H3447 C3459 0.930 . S
H3448 C3461 0.930 . S
H3449 C3462 0.930 . S
H3450 C3466 0.959 . S
H3451 C3466 0.959 . S
H3452 C3466 0.961 . S
H3453 C3467 0.960 . S
H3454 C3467 0.971 . S
H3455 C3467 0.959 1_455 S
H3456 C3470 0.929 . S
H3457 C3471 0.931 . S
H3458 C3473 0.930 . S
C3459 H3447 0.930 . S
C3459 C3460 1.399 . S
C3459 C3464 1.399 . S
C3460 C3459 1.399 . S
C3460 C3461 1.376 . S
C3461 H3448 0.930 . S
C3461 C3460 1.376 . S
C3461 C3462 1.388 . S
C3462 H3449 0.930 . S
C3462 C3461 1.388 . S
C3462 C3463 1.390 . S
C3463 C3462 1.390 . S
C3463 C3464 1.394 . S
C3463 C3469 1.465 . S
C3464 C3459 1.399 . S
C3464 C3463 1.394 . S
C3464 C3465 1.516 . S
C3465 C3464 1.516 . S
C3465 C3466 1.502 . S
C3465 C3467 1.561 . S
C3465 C3468 1.526 . S
C3466 H3450 0.959 . S
C3466 H3451 0.959 . S
C3466 H3452 0.961 . S
C3466 C3465 1.502 . S
C3467 H3453 0.960 . S
C3467 H3454 0.971 . S
C3467 H3455 0.959 1_655 S
C3467 C3465 1.561 . S
C3468 C3465 1.526 . S
C3468 C3469 1.396 . S
C3468 C3473 1.390 . S
C3469 C3463 1.465 . S
C3469 C3468 1.396 . S
C3469 C3470 1.399 . S
C3470 H3456 0.929 . S
C3470 C3469 1.399 . S
C3470 C3471 1.385 . S
C3471 H3457 0.931 . S
C3471 C3470 1.385 . S
C3471 C3472 1.389 . S
C3472 C3471 1.389 . S
C3472 C3473 1.387 . S
C3473 H3458 0.930 . S
C3473 C3468 1.390 . S
C3473 C3472 1.387 . S
H3474 C3486 0.930 . S
H3475 C3488 0.930 . S
H3476 C3489 0.930 . S
H3477 C3493 0.959 . S
H3478 C3493 0.959 . S
H3479 C3493 0.961 . S
H3480 C3494 0.960 . S
H3481 C3494 0.961 . S
H3482 C3494 0.959 . S
H3483 C3497 0.929 . S
H3484 C3498 0.931 . S
H3485 C3500 0.930 . S
C3486 H3474 0.930 . S
C3486 C3487 1.399 . S
C3486 C3491 1.399 . S
C3487 C3486 1.399 . S
C3487 C3488 1.376 . S
C3488 H3475 0.930 . S
C3488 C3487 1.376 . S
C3488 C3489 1.388 . S
C3489 H3476 0.930 . S
C3489 C3488 1.388 . S
C3489 C3490 1.390 . S
C3490 C3489 1.390 . S
C3490 C3491 1.394 . S
C3490 C3496 1.465 . S
C3491 C3486 1.399 . S
C3491 C3490 1.394 . S
C3491 C3492 1.516 . S
C3492 C3491 1.516 . S
C3492 C3493 1.502 . S
C3492 C3494 1.561 . S
C3492 C3495 1.526 . S
C3493 H3477 0.959 . S
C3493 H3478 0.959 . S
C3493 H3479 0.961 . S
C3493 C3492 1.502 . S
C3494 H3480 0.960 . S
C3494 H3481 0.961 . S
C3494 H3482 0.959 . S
C3494 C3492 1.561 . S
C3495 C3492 1.526 . S
C3495 C3496 1.396 . S
C3495 C3500 1.390 . S
C3496 C3490 1.465 . S
C3496 C3495 1.396 . S
C3496 C3497 1.399 . S
C3497 H3483 0.929 . S
C3497 C3496 1.399 . S
C3497 C3498 1.385 . S
C3498 H3484 0.931 . S
C3498 C3497 1.385 . S
C3498 C3499 1.389 . S
C3499 C3498 1.389 . S
C3499 C3500 1.387 . S
C3500 H3485 0.930 . S
C3500 C3495 1.390 . S
C3500 C3499 1.387 . S
H3501 C3513 0.930 . S
H3502 C3515 0.930 . S
H3503 C3516 0.930 . S
H3504 C3520 0.959 1_545 S
H3505 C3520 0.959 . S
H3506 C3520 0.961 . S
H3507 C3521 0.960 . S
H3508 C3521 0.961 . S
H3509 C3521 0.959 . S
H3510 C3524 0.929 . S
H3511 C3525 0.931 . S
H3512 C3527 0.930 . S
C3513 H3501 0.930 . S
C3513 C3514 1.399 . S
C3513 C3518 1.399 . S
C3514 C3513 1.399 . S
C3514 C3515 1.376 . S
C3515 H3502 0.930 . S
C3515 C3514 1.376 . S
C3515 C3516 1.388 . S
C3516 H3503 0.930 . S
C3516 C3515 1.388 . S
C3516 C3517 1.390 . S
C3517 C3516 1.390 . S
C3517 C3518 1.394 . S
C3517 C3523 1.465 . S
C3518 C3513 1.399 . S
C3518 C3517 1.394 . S
C3518 C3519 1.516 1_545 S
C3519 C3518 1.516 1_565 S
C3519 C3520 1.502 . S
C3519 C3521 1.561 . S
C3519 C3522 1.526 1_565 S
C3520 H3504 0.959 1_565 S
C3520 H3505 0.959 . S
C3520 H3506 0.961 . S
C3520 C3519 1.502 . S
C3521 H3507 0.960 . S
C3521 H3508 0.961 . S
C3521 H3509 0.959 . S
C3521 C3519 1.561 . S
C3522 C3519 1.526 1_545 S
C3522 C3523 1.396 . S
C3522 C3527 1.390 1_545 S
C3523 C3517 1.465 . S
C3523 C3522 1.396 . S
C3523 C3524 1.399 . S
C3524 H3510 0.929 . S
C3524 C3523 1.399 . S
C3524 C3525 1.385 . S
C3525 H3511 0.931 . S
C3525 C3524 1.385 . S
C3525 C3526 1.389 . S
C3526 C3525 1.389 . S
C3526 C3527 1.387 1_545 S
C3527 H3512 0.930 . S
C3527 C3522 1.390 1_565 S
C3527 C3526 1.387 1_565 S
C1597 C13 1.127 . S
C1609 C981 1.165 . S
C1624 C27 1.382 . S
C1636 C1061 1.406 . S
C1663 C1129 1.232 . S
C1651 C36 1.227 . S
C1678 C41 1.688 . S
C1690 C1209 1.679 . S
C1705 C8 1.401 1_556 S
C1717 C1283 1.559 . S
C1732 C22 1.458 . S
C1744 C1351 1.425 . S
C1759 C55 1.090 . S
C1771 C1277 1.163 . S
C1798 C1357 1.324 . S
C1786 C69 1.250 . S
C1825 C1203 1.299 1_545 S
C1813 C78 1.147 . S
C1840 C83 1.652 . S
C1852 C1135 1.674 . S
C1879 C987 1.568 . S
C1867 C50 1.430 . S
C1894 C64 1.351 . S
C1906 C1055 1.381 . S
C1921 C97 1.362 . S
C1933 C1425 1.384 . S
C1948 C111 1.434 . S
C1960 C1505 1.408 . S
C1987 C1573 1.482 . S
C1975 C120 1.478 . S
C2002 C125 1.764 . S
C2014 C321 1.819 . S
C2029 C92 1.737 . S
C2041 C395 1.756 . S
C2056 C106 1.501 . S
C2068 C463 1.456 . S
C2083 C139 1.160 . S
C2095 C389 1.099 . S
C2110 C153 1.282 . S
C2122 C469 1.355 . S
C2149 C315 1.334 . S
C2137 C162 1.352 . S
C2176 C1579 1.804 . S
C2164 C167 1.738 . S
C2203 C1431 1.626 . S
C2191 C134 1.585 . S
C2230 C1499 1.377 . S
C2218 C148 1.390 . S
C2245 C181 1.269 . S
C2257 C537 1.288 . S
C2272 C195 1.457 . S
C2284 C617 1.424 . S
C2299 C204 1.479 . S
C2311 C685 1.464 . S
C2326 C209 1.888 . S
C2338 C765 1.881 . S
C2365 C839 1.757 . S
C2353 C176 1.787 . S
C2392 C907 1.497 . S
C2380 C190 1.538 . S
C2419 C833 1.278 . S
C2407 C223 1.140 . S
C2446 C913 1.348 . S
C2434 C237 1.318 . S
C2461 C246 1.313 . S
C2473 C759 1.289 . S
C2500 C691 1.696 . S
C2488 C251 1.674 . S
C2515 C218 1.597 . S
C2527 C543 1.656 . S
C2554 C611 1.405 . S
C2542 C232 1.368 . S
C2581 C291 1.925 . S
C2569 C11 1.860 . S
C2596 C25 1.332 . S
C2608 C365 1.283 . S
C2635 C451 1.426 . S
C2623 C35 1.420 . S
C2662 C525 1.233 . S
C2650 C39 1.154 . S
C2689 C587 1.602 . S
C2677 C7 1.629 1_556 S
C2716 C673 1.509 . S
C2704 C21 1.494 . S
C2731 C53 2.039 . S
C2743 C661 2.055 . S
C2758 C67 1.486 . S
C2770 C513 1.484 . S
C2785 C77 1.677 . S
C2797 C599 1.582 . S
C2812 C81 1.513 . S
C2824 C377 1.434 . S
C2851 C439 1.754 . S
C2839 C49 1.813 . S
C2866 C63 1.759 . S
C2878 C303 1.699 . S
C2905 C735 1.809 . S
C2893 C95 1.848 . S
C2920 C109 1.381 . S
C2932 C809 1.400 . S
C2947 C119 1.486 . S
C2959 C895 1.497 . S
C2986 C969 0.967 . S
C2974 C123 0.964 . S
C3001 C91 1.532 . S
C3013 C1031 1.533 . S
C3028 C105 1.294 . S
C3040 C1117 1.307 . S
C3055 C137 1.763 . S
C3067 C1105 1.699 1_565 S
C3082 C151 1.184 . S
C3094 C957 1.187 . S
C3121 C1043 1.556 . S
C3109 C161 1.560 . S
C3136 C165 1.498 . S
C3148 C821 1.397 . S
C3163 C133 1.836 1_545 S
C3175 C883 1.776 . S
C3202 C747 1.753 . S
C3190 C147 1.831 1_655 S
C3229 C1179 1.718 . S
C3217 C179 1.698 . S
C3244 C193 1.078 . S
C3256 C1253 1.044 . S
C3271 C203 1.362 . S
C3283 C1339 1.336 . S
C3310 C1413 1.218 . S
C3298 C207 1.145 . S
C3337 C1475 1.646 . S
C3325 C175 1.657 1_565 S
C3352 C189 1.576 1_455 S
C3364 C1561 1.566 . S
C3379 C221 2.012 . S
C3391 C1549 1.958 . S
C3406 C235 1.591 1_565 S
C3418 C1401 1.569 . S
C3445 C1487 1.641 . S
C3433 C245 1.697 1_455 S
C3472 C1265 1.029 . S
C3460 C249 1.065 . S
C3499 C1327 1.674 . S
C3487 C217 1.708 . S
C3514 C231 1.427 . S
C3526 C1191 1.393 1_545 S
