# Generated by pormake.
# Topology ctn, (3,4)-cn, num edge types: 1
# Building blocks:
#     Node 0, Type 0, BuildingBlock: BELTOD_clean_linker_0, # of connection points: 3
#     Node 1, Type 0, BuildingBlock: BELTOD_clean_linker_0, # of connection points: 3
#     Node 2, Type 0, BuildingBlock: BELTOD_clean_linker_0, # of connection points: 3
#     Node 3, Type 0, BuildingBlock: BELTOD_clean_linker_0, # of connection points: 3
#     Node 4, Type 0, BuildingBlock: BELTOD_clean_linker_0, # of connection points: 3
#     Node 5, Type 0, BuildingBlock: BELTOD_clean_linker_0, # of connection points: 3
#     Node 6, Type 0, BuildingBlock: BELTOD_clean_linker_0, # of connection points: 3
#     Node 7, Type 0, BuildingBlock: BELTOD_clean_linker_0, # of connection points: 3
#     Node 8, Type 0, BuildingBlock: BELTOD_clean_linker_0, # of connection points: 3
#     Node 9, Type 0, BuildingBlock: BELTOD_clean_linker_0, # of connection points: 3
#     Node 10, Type 0, BuildingBlock: BELTOD_clean_linker_0, # of connection points: 3
#     Node 11, Type 0, BuildingBlock: BELTOD_clean_linker_0, # of connection points: 3
#     Node 12, Type 0, BuildingBlock: BELTOD_clean_linker_0, # of connection points: 3
#     Node 13, Type 0, BuildingBlock: BELTOD_clean_linker_0, # of connection points: 3
#     Node 14, Type 0, BuildingBlock: BELTOD_clean_linker_0, # of connection points: 3
#     Node 15, Type 0, BuildingBlock: BELTOD_clean_linker_0, # of connection points: 3
#     Node 16, Type 1, BuildingBlock: AZAVOO_clean_sbu_0, # of connection points: 4
#     Node 17, Type 1, BuildingBlock: AZAVOO_clean_sbu_0, # of connection points: 4
#     Node 18, Type 1, BuildingBlock: AZAVOO_clean_sbu_0, # of connection points: 4
#     Node 19, Type 1, BuildingBlock: AZAVOO_clean_sbu_0, # of connection points: 4
#     Node 20, Type 1, BuildingBlock: AZAVOO_clean_sbu_0, # of connection points: 4
#     Node 21, Type 1, BuildingBlock: AZAVOO_clean_sbu_0, # of connection points: 4
#     Node 22, Type 1, BuildingBlock: AZAVOO_clean_sbu_0, # of connection points: 4
#     Node 23, Type 1, BuildingBlock: AZAVOO_clean_sbu_0, # of connection points: 4
#     Node 24, Type 1, BuildingBlock: AZAVOO_clean_sbu_0, # of connection points: 4
#     Node 25, Type 1, BuildingBlock: AZAVOO_clean_sbu_0, # of connection points: 4
#     Node 26, Type 1, BuildingBlock: AZAVOO_clean_sbu_0, # of connection points: 4
#     Node 27, Type 1, BuildingBlock: AZAVOO_clean_sbu_0, # of connection points: 4
#     Edge 28, Type (0, 1), BuildingBlock: ZUJKAS_clean_linker_0, # of connection points: 2
#     Edge 29, Type (0, 1), BuildingBlock: ZUJKAS_clean_linker_0, # of connection points: 2
#     Edge 30, Type (0, 1), BuildingBlock: ZUJKAS_clean_linker_0, # of connection points: 2
#     Edge 31, Type (0, 1), BuildingBlock: ZUJKAS_clean_linker_0, # of connection points: 2
#     Edge 32, Type (0, 1), BuildingBlock: ZUJKAS_clean_linker_0, # of connection points: 2
#     Edge 33, Type (0, 1), BuildingBlock: ZUJKAS_clean_linker_0, # of connection points: 2
#     Edge 34, Type (0, 1), BuildingBlock: ZUJKAS_clean_linker_0, # of connection points: 2
#     Edge 35, Type (0, 1), BuildingBlock: ZUJKAS_clean_linker_0, # of connection points: 2
#     Edge 36, Type (0, 1), BuildingBlock: ZUJKAS_clean_linker_0, # of connection points: 2
#     Edge 37, Type (0, 1), BuildingBlock: ZUJKAS_clean_linker_0, # of connection points: 2
#     Edge 38, Type (0, 1), BuildingBlock: ZUJKAS_clean_linker_0, # of connection points: 2
#     Edge 39, Type (0, 1), BuildingBlock: ZUJKAS_clean_linker_0, # of connection points: 2
#     Edge 40, Type (0, 1), BuildingBlock: ZUJKAS_clean_linker_0, # of connection points: 2
#     Edge 41, Type (0, 1), BuildingBlock: ZUJKAS_clean_linker_0, # of connection points: 2
#     Edge 42, Type (0, 1), BuildingBlock: ZUJKAS_clean_linker_0, # of connection points: 2
#     Edge 43, Type (0, 1), BuildingBlock: ZUJKAS_clean_linker_0, # of connection points: 2
#     Edge 44, Type (0, 1), BuildingBlock: ZUJKAS_clean_linker_0, # of connection points: 2
#     Edge 45, Type (0, 1), BuildingBlock: ZUJKAS_clean_linker_0, # of connection points: 2
#     Edge 46, Type (0, 1), BuildingBlock: ZUJKAS_clean_linker_0, # of connection points: 2
#     Edge 47, Type (0, 1), BuildingBlock: ZUJKAS_clean_linker_0, # of connection points: 2
#     Edge 48, Type (0, 1), BuildingBlock: ZUJKAS_clean_linker_0, # of connection points: 2
#     Edge 49, Type (0, 1), BuildingBlock: ZUJKAS_clean_linker_0, # of connection points: 2
#     Edge 50, Type (0, 1), BuildingBlock: ZUJKAS_clean_linker_0, # of connection points: 2
#     Edge 51, Type (0, 1), BuildingBlock: ZUJKAS_clean_linker_0, # of connection points: 2
#     Edge 52, Type (0, 1), BuildingBlock: ZUJKAS_clean_linker_0, # of connection points: 2
#     Edge 53, Type (0, 1), BuildingBlock: ZUJKAS_clean_linker_0, # of connection points: 2
#     Edge 54, Type (0, 1), BuildingBlock: ZUJKAS_clean_linker_0, # of connection points: 2
#     Edge 55, Type (0, 1), BuildingBlock: ZUJKAS_clean_linker_0, # of connection points: 2
#     Edge 56, Type (0, 1), BuildingBlock: ZUJKAS_clean_linker_0, # of connection points: 2
#     Edge 57, Type (0, 1), BuildingBlock: ZUJKAS_clean_linker_0, # of connection points: 2
#     Edge 58, Type (0, 1), BuildingBlock: ZUJKAS_clean_linker_0, # of connection points: 2
#     Edge 59, Type (0, 1), BuildingBlock: ZUJKAS_clean_linker_0, # of connection points: 2
#     Edge 60, Type (0, 1), BuildingBlock: ZUJKAS_clean_linker_0, # of connection points: 2
#     Edge 61, Type (0, 1), BuildingBlock: ZUJKAS_clean_linker_0, # of connection points: 2
#     Edge 62, Type (0, 1), BuildingBlock: ZUJKAS_clean_linker_0, # of connection points: 2
#     Edge 63, Type (0, 1), BuildingBlock: ZUJKAS_clean_linker_0, # of connection points: 2
#     Edge 64, Type (0, 1), BuildingBlock: ZUJKAS_clean_linker_0, # of connection points: 2
#     Edge 65, Type (0, 1), BuildingBlock: ZUJKAS_clean_linker_0, # of connection points: 2
#     Edge 66, Type (0, 1), BuildingBlock: ZUJKAS_clean_linker_0, # of connection points: 2
#     Edge 67, Type (0, 1), BuildingBlock: ZUJKAS_clean_linker_0, # of connection points: 2
#     Edge 68, Type (0, 1), BuildingBlock: ZUJKAS_clean_linker_0, # of connection points: 2
#     Edge 69, Type (0, 1), BuildingBlock: ZUJKAS_clean_linker_0, # of connection points: 2
#     Edge 70, Type (0, 1), BuildingBlock: ZUJKAS_clean_linker_0, # of connection points: 2
#     Edge 71, Type (0, 1), BuildingBlock: ZUJKAS_clean_linker_0, # of connection points: 2
#     Edge 72, Type (0, 1), BuildingBlock: ZUJKAS_clean_linker_0, # of connection points: 2
#     Edge 73, Type (0, 1), BuildingBlock: ZUJKAS_clean_linker_0, # of connection points: 2
#     Edge 74, Type (0, 1), BuildingBlock: ZUJKAS_clean_linker_0, # of connection points: 2
#     Edge 75, Type (0, 1), BuildingBlock: ZUJKAS_clean_linker_0, # of connection points: 2
# Relax obj value: 0.002
# Max RMSD: 0.044
# Mean RMSD: 0.026
data_MOF--net-ctn--node1-AZAVOO_clean_sbu_0--node2-BELTOD_clean_linker_0--edge1-ZUJKAS_clean_linker_0
_symmetry_space_group_name_H-M    P1
_symmetry_Int_Tables_number       1
_symmetry_cell_setting            triclinic
loop_
_symmetry_equiv_pos_as_xyz
'x, y, z'
_cell_length_a     77.824189
_cell_length_b     79.423783
_cell_length_c     78.75077
_cell_angle_alpha  89.451484
_cell_angle_beta   92.623728
_cell_angle_gamma 93.51037
loop_
_atom_site_label
_atom_site_type_symbol
_atom_site_fract_x
_atom_site_fract_y
_atom_site_fract_z
_atom_type_partial_charge
P0 P 0.06505 0.04248 0.05164 0.0
H1 H 0.06563 0.03018 0.08658 0.0
H2 H 0.04286 0.02172 0.10574 0.0
H3 H 0.00469 0.02745 0.06479 0.0
H4 H 0.02763 0.03623 0.04575 0.0
H5 H 0.09516 0.04373 0.03131 0.0
H6 H 0.11114 0.02197 0.0185 0.0
H7 H 0.07323 0.98389 0.03486 0.0
H8 H 0.05753 0.00575 0.04796 0.0
H9 H 0.05653 0.07706 0.05631 0.0
H10 H 0.05433 0.04138 0.01523 0.0
O11 O 0.08021 0.05249 0.06414 0.0
H12 H 0.04548 0.09848 0.03702 0.0
H13 H 0.043 0.06273 0.99579 0.0
C14 C 0.04827 0.0342 0.06489 0.0
C15 C 0.05236 0.0295 0.0817 0.0
C16 C 0.03932 0.02452 0.09261 0.0
C17 C 0.02191 0.02403 0.08684 0.0
C18 C 0.01793 0.02798 0.0697 0.0
C19 C 0.03103 0.03296 0.05879 0.0
C20 C 0.0753 0.02633 0.0407 0.0
C21 C 0.09023 0.0307 0.03199 0.0
C22 C 0.09928 0.01825 0.02457 0.0
C23 C 0.09352 0.00116 0.02571 0.0
C24 C 0.07816 0.9969 0.03398 0.0
C25 C 0.06912 0.0094 0.04141 0.0
C26 C 0.0566 0.05781 0.0371 0.0
C27 C 0.05364 0.07386 0.04311 0.0
C28 C 0.04716 0.08603 0.03209 0.0
C29 C 0.04337 0.08232 0.01484 0.0
C30 C 0.04601 0.06604 0.00894 0.0
C31 C 0.05248 0.05384 0.02003 0.0
P32 P 0.32991 0.70147 0.20444 0.0
H33 H 0.3491 0.7259 0.18382 0.0
H34 H 0.34055 0.74976 0.16619 0.0
H35 H 0.28817 0.74112 0.18182 0.0
H36 H 0.29698 0.71783 0.19987 0.0
H37 H 0.35698 0.68397 0.22257 0.0
H38 H 0.37647 0.69157 0.24684 0.0
H39 H 0.35266 0.73906 0.25076 0.0
H40 H 0.33335 0.73143 0.22625 0.0
H41 H 0.30335 0.682 0.18483 0.0
H42 H 0.31538 0.69312 0.2377 0.0
O43 O 0.34074 0.69001 0.1914 0.0
H44 H 0.2782 0.66414 0.19271 0.0
H45 H 0.29024 0.6753 0.24567 0.0
C46 C 0.32362 0.71989 0.19284 0.0
C47 C 0.33582 0.72928 0.18353 0.0
C48 C 0.33088 0.74286 0.17341 0.0
C49 C 0.31361 0.74725 0.17239 0.0
C50 C 0.30159 0.7382 0.18236 0.0
C51 C 0.30659 0.72471 0.19257 0.0
C52 C 0.34402 0.70729 0.22242 0.0
C53 C 0.35603 0.69605 0.22861 0.0
C54 C 0.36706 0.70036 0.24258 0.0
C55 C 0.36617 0.71596 0.2507 0.0
C56 C 0.35386 0.72707 0.24461 0.0
C57 C 0.3428 0.72272 0.23063 0.0
C58 C 0.31133 0.68869 0.21067 0.0
C59 C 0.30055 0.6806 0.19813 0.0
C60 C 0.28611 0.67052 0.20265 0.0
C61 C 0.28226 0.6683 0.21982 0.0
C62 C 0.29299 0.67663 0.23235 0.0
C63 C 0.30737 0.68683 0.2278 0.0
P64 P 0.00107 0.50385 0.02988 0.0
H65 H 0.01068 0.49592 0.99564 0.0
H66 H 0.00945 0.46978 0.97953 0.0
H67 H 0.98674 0.44307 0.02191 0.0
H68 H 0.98742 0.46953 0.03767 0.0
H69 H 0.98853 0.5302 0.00739 0.0
H70 H 0.96111 0.54347 0.00439 0.0
H71 H 0.94102 0.51126 0.04433 0.0
H72 H 0.96853 0.49774 0.04697 0.0
H73 H 0.02188 0.47872 0.04721 0.0
H74 H 0.9962 0.52299 0.06065 0.0
O75 O 0.01612 0.51695 0.02163 0.0
H76 H 0.03356 0.47636 0.07637 0.0
H77 H 0.00792 0.52072 0.08989 0.0
C78 C 0.9996 0.48453 0.01802 0.0
C79 C 0.00545 0.48443 0.00147 0.0
C80 C 0.00481 0.46943 0.99229 0.0
C81 C 0.99825 0.45421 0.9995 0.0
C82 C 0.99181 0.45453 0.01591 0.0
C83 C 0.99233 0.46961 0.02502 0.0
C84 C 0.98066 0.5133 0.0277 0.0
C85 C 0.97825 0.52603 0.01555 0.0
C86 C 0.96257 0.53365 0.01389 0.0
C87 C 0.94892 0.52861 0.02429 0.0
C88 C 0.95123 0.51542 0.0361 0.0
C89 C 0.96697 0.50778 0.03772 0.0
C90 C 0.00767 0.5007 0.05186 0.0
C91 C 0.01833 0.48766 0.05653 0.0
C92 C 0.02505 0.48634 0.07323 0.0
C93 C 0.02156 0.49829 0.08547 0.0
C94 C 0.01083 0.51133 0.08074 0.0
C95 C 0.00401 0.51254 0.06407 0.0
P96 P 0.68906 0.83465 0.1903 0.0
H97 H 0.70406 0.86541 0.17485 0.0
H98 H 0.72844 0.8847 0.18315 0.0
H99 H 0.73942 0.85323 0.22701 0.0
H100 H 0.71426 0.83461 0.21911 0.0
H101 H 0.6775 0.81735 0.15884 0.0
H102 H 0.68689 0.79258 0.14473 0.0
H103 H 0.72482 0.78586 0.18571 0.0
H104 H 0.71568 0.81103 0.19946 0.0
H105 H 0.66998 0.85512 0.21214 0.0
H106 H 0.68116 0.80274 0.2089 0.0
O107 O 0.67629 0.8448 0.17658 0.0
H108 H 0.65263 0.84862 0.23678 0.0
H109 H 0.66381 0.79616 0.23341 0.0
C110 C 0.7073 0.84864 0.19641 0.0
C111 C 0.71165 0.86273 0.18632 0.0
C112 C 0.72576 0.87368 0.19101 0.0
C113 C 0.73604 0.87057 0.20576 0.0
C114 C 0.73169 0.85625 0.21574 0.0
C115 C 0.71739 0.84546 0.21115 0.0
C116 C 0.69606 0.81621 0.18008 0.0
C117 C 0.6879 0.81062 0.16476 0.0
C118 C 0.69318 0.7963 0.15678 0.0
C119 C 0.70662 0.78716 0.16407 0.0
C120 C 0.71462 0.79272 0.17958 0.0
C121 C 0.70939 0.80712 0.1875 0.0
C122 C 0.6768 0.82944 0.20865 0.0
C123 C 0.66869 0.84222 0.21673 0.0
C124 C 0.65873 0.83848 0.23075 0.0
C125 C 0.6568 0.82186 0.23699 0.0
C126 C 0.66518 0.80911 0.22899 0.0
C127 C 0.67507 0.81287 0.2149 0.0
P128 P 0.06894 0.95992 0.45847 0.0
H129 H 0.10598 0.96238 0.46524 0.0
H130 H 0.12599 0.98463 0.47667 0.0
H131 H 0.08329 0.01565 0.48449 0.0
H132 H 0.06336 0.99339 0.47241 0.0
H133 H 0.0597 0.92401 0.45702 0.0
H134 H 0.05069 0.90321 0.47834 0.0
H135 H 0.05263 0.94236 0.51622 0.0
H136 H 0.0616 0.96323 0.49467 0.0
H137 H 0.06285 0.96743 0.42254 0.0
H138 H 0.03528 0.97054 0.46858 0.0
O139 O 0.08015 0.94947 0.44487 0.0
H140 H 0.03762 0.97607 0.4059 0.0
H141 H 0.00988 0.97937 0.45189 0.0
C142 C 0.08324 0.97639 0.46764 0.0
C143 C 0.10092 0.974 0.46935 0.0
C144 C 0.11235 0.9867 0.47608 0.0
C145 C 0.10629 0.002 0.48149 0.0
C146 C 0.08844 0.00415 0.48017 0.0
C147 C 0.07701 0.99142 0.47333 0.0
C148 C 0.06172 0.94505 0.47437 0.0
C149 C 0.05826 0.92813 0.46992 0.0
C150 C 0.05316 0.91624 0.48213 0.0
C151 C 0.05121 0.92111 0.49902 0.0
C152 C 0.05405 0.93824 0.50332 0.0
C153 C 0.05928 0.95014 0.49105 0.0
C154 C 0.05081 0.96801 0.44674 0.0
C155 C 0.05138 0.97003 0.42909 0.0
C156 C 0.03694 0.97494 0.41958 0.0
C157 C 0.02172 0.97815 0.42759 0.0
C158 C 0.02144 0.97694 0.4454 0.0
C159 C 0.0359 0.97184 0.45492 0.0
P160 P 0.22135 0.72718 0.75215 0.0
H161 H 0.24543 0.75264 0.76795 0.0
H162 H 0.24617 0.76723 0.79517 0.0
H163 H 0.1993 0.73904 0.80823 0.0
H164 H 0.19877 0.72433 0.78099 0.0
H165 H 0.23898 0.70819 0.7276 0.0
H166 H 0.25417 0.68219 0.72956 0.0
H167 H 0.24184 0.67685 0.78236 0.0
H168 H 0.22673 0.70299 0.78032 0.0
H169 H 0.193 0.74939 0.75005 0.0
H170 H 0.20186 0.69871 0.7349 0.0
O171 O 0.23196 0.73977 0.73857 0.0
H172 H 0.16427 0.74689 0.73613 0.0
H173 H 0.17309 0.69607 0.72106 0.0
C174 C 0.22188 0.73764 0.77236 0.0
C175 C 0.23527 0.74965 0.77664 0.0
C176 C 0.23563 0.75804 0.79217 0.0
C177 C 0.22269 0.75442 0.80378 0.0
C178 C 0.20948 0.74208 0.79958 0.0
C179 C 0.2091 0.73374 0.78399 0.0
C180 C 0.232 0.70769 0.75387 0.0
C181 C 0.23956 0.70144 0.73961 0.0
C182 C 0.24812 0.68649 0.74071 0.0
C183 C 0.24926 0.67747 0.75614 0.0
C184 C 0.24138 0.68363 0.77036 0.0
C185 C 0.23271 0.69856 0.7692 0.0
C186 C 0.1995 0.72418 0.74372 0.0
C187 C 0.18863 0.7376 0.74401 0.0
C188 C 0.17219 0.73614 0.73608 0.0
C189 C 0.16639 0.72127 0.72749 0.0
C190 C 0.17724 0.70774 0.72744 0.0
C191 C 0.19367 0.7092 0.73546 0.0
P192 P 0.98294 0.49675 0.48352 0.0
H193 H 0.01781 0.49101 0.47391 0.0
H194 H 0.03159 0.49161 0.4467 0.0
H195 H 0.98372 0.50468 0.42135 0.0
H196 H 0.97014 0.50445 0.44883 0.0
H197 H 0.00385 0.5137 0.51084 0.0
H198 H 0.00368 0.54175 0.5232 0.0
H199 H 0.96346 0.55446 0.48648 0.0
H200 H 0.96359 0.52618 0.47427 0.0
H201 H 0.96642 0.4696 0.4626 0.0
H202 H 0.95208 0.5025 0.50215 0.0
O203 O 0.99412 0.48466 0.49688 0.0
H204 H 0.93786 0.45495 0.46259 0.0
H205 H 0.92361 0.48783 0.50232 0.0
C206 C 0.99286 0.49731 0.46331 0.0
C207 C 0.01025 0.49392 0.46249 0.0
C208 C 0.01809 0.49419 0.44689 0.0
C209 C 0.00871 0.49796 0.43177 0.0
C210 C 0.99135 0.50177 0.43273 0.0
C211 C 0.98352 0.50154 0.4484 0.0
C212 C 0.98354 0.51781 0.49182 0.0
C213 C 0.99502 0.52252 0.50541 0.0
C214 C 0.99499 0.53861 0.5124 0.0
C215 C 0.98349 0.5503 0.50588 0.0
C216 C 0.9723 0.54565 0.49194 0.0
C217 C 0.97241 0.52955 0.4849 0.0
C218 C 0.96123 0.48747 0.482 0.0
C219 C 0.95702 0.4739 0.47103 0.0
C220 C 0.94074 0.46543 0.47115 0.0
C221 C 0.92844 0.47027 0.48241 0.0
C222 C 0.93266 0.484 0.49327 0.0
C223 C 0.94897 0.49242 0.49317 0.0
P224 P 0.81789 0.80544 0.80727 0.0
H225 H 0.83317 0.82726 0.78152 0.0
H226 H 0.85057 0.82189 0.75727 0.0
H227 H 0.84464 0.76834 0.76751 0.0
H228 H 0.82747 0.77382 0.79181 0.0
H229 H 0.79726 0.82577 0.82782 0.0
H230 H 0.77164 0.84139 0.82149 0.0
H231 H 0.76984 0.82363 0.76969 0.0
H232 H 0.79565 0.80816 0.77613 0.0
H233 H 0.83768 0.7876 0.83321 0.0
H234 H 0.78751 0.78159 0.80767 0.0
O235 O 0.83101 0.81833 0.81927 0.0
H236 H 0.83086 0.76285 0.85083 0.0
H237 H 0.78063 0.75659 0.8251 0.0
C238 C 0.8291 0.80098 0.7885 0.0
C239 C 0.83551 0.81436 0.77843 0.0
C240 C 0.84539 0.81126 0.76454 0.0
C241 C 0.84908 0.79469 0.76052 0.0
C242 C 0.84225 0.78127 0.77043 0.0
C243 C 0.83233 0.78439 0.78429 0.0
C244 C 0.79856 0.81616 0.80235 0.0
C245 C 0.79133 0.82524 0.81511 0.0
C246 C 0.77658 0.83403 0.8115 0.0
C247 C 0.76872 0.83382 0.79506 0.0
C248 C 0.77574 0.82425 0.78241 0.0
C249 C 0.79049 0.8154 0.78607 0.0
C250 C 0.81294 0.78665 0.81948 0.0
C251 C 0.8252 0.7809 0.83137 0.0
C252 C 0.82134 0.76663 0.84131 0.0
C253 C 0.80515 0.75778 0.83944 0.0
C254 C 0.79311 0.76328 0.82704 0.0
C255 C 0.79702 0.77756 0.81707 0.0
P256 P 0.32234 0.30515 0.31042 0.0
H257 H 0.35185 0.3227 0.29516 0.0
H258 H 0.36852 0.31672 0.27067 0.0
H259 H 0.33432 0.27289 0.25948 0.0
H260 H 0.31785 0.27885 0.28428 0.0
H261 H 0.30897 0.33466 0.32583 0.0
H262 H 0.28431 0.35127 0.31866 0.0
H263 H 0.27024 0.31853 0.2761 0.0
H264 H 0.2952 0.30204 0.28327 0.0
H265 H 0.33736 0.27232 0.31465 0.0
H266 H 0.29318 0.29655 0.33163 0.0
O267 O 0.33569 0.3163 0.32385 0.0
H268 H 0.32983 0.24761 0.33207 0.0
H269 H 0.286 0.27233 0.34963 0.0
C270 C 0.33387 0.30099 0.29175 0.0
C271 C 0.34794 0.31179 0.28746 0.0
C272 C 0.35739 0.30843 0.27335 0.0
C273 C 0.35284 0.29425 0.26317 0.0
C274 C 0.33836 0.28374 0.26723 0.0
C275 C 0.32889 0.28715 0.28136 0.0
C276 C 0.30413 0.31735 0.30485 0.0
C277 C 0.30065 0.33109 0.3149 0.0
C278 C 0.28641 0.34047 0.31089 0.0
C279 C 0.27529 0.33623 0.2968 0.0
C280 C 0.27868 0.32225 0.28691 0.0
C281 C 0.29294 0.31282 0.29098 0.0
C282 C 0.31555 0.28609 0.32143 0.0
C283 C 0.32585 0.27221 0.32187 0.0
C284 C 0.32164 0.25815 0.33203 0.0
C285 C 0.30726 0.25789 0.34227 0.0
C286 C 0.29692 0.27184 0.34165 0.0
C287 C 0.30106 0.2858 0.33137 0.0
P288 P 0.49484 0.00244 0.52942 0.0
H289 H 0.50285 0.99461 0.49457 0.0
H290 H 0.50273 0.96818 0.479 0.0
H291 H 0.48367 0.9411 0.52286 0.0
H292 H 0.48438 0.96759 0.53852 0.0
H293 H 0.48039 0.03314 0.51569 0.0
H294 H 0.45178 0.04394 0.516 0.0
H295 H 0.43363 0.99937 0.54336 0.0
H296 H 0.46257 0.98887 0.54342 0.0
H297 H 0.52222 0.98201 0.54292 0.0
H298 H 0.48822 0.01738 0.56233 0.0
O299 O 0.50795 0.01653 0.51977 0.0
H300 H 0.53678 0.9801 0.57093 0.0
H301 H 0.50294 0.01579 0.59036 0.0
C302 C 0.49389 0.983 0.51778 0.0
C303 C 0.49868 0.98298 0.50085 0.0
C304 C 0.49846 0.96785 0.4919 0.0
C305 C 0.49328 0.95247 0.4997 0.0
C306 C 0.48803 0.95266 0.51656 0.0
C307 C 0.48831 0.9678 0.5255 0.0
C308 C 0.47359 0.01019 0.52952 0.0
C309 C 0.47028 0.02567 0.52176 0.0
C310 C 0.45384 0.03178 0.52182 0.0
C311 C 0.44034 0.02248 0.52962 0.0
C312 C 0.44374 0.00692 0.53738 0.0
C313 C 0.46024 0.00084 0.53733 0.0
C314 C 0.50388 0.99953 0.55063 0.0
C315 C 0.51769 0.98915 0.55329 0.0
C316 C 0.52611 0.9882 0.56928 0.0
C317 C 0.52104 0.99781 0.58289 0.0
C318 C 0.50699 0.00802 0.58023 0.0
C319 C 0.49857 0.00896 0.56419 0.0
P320 P 0.18865 0.33636 0.6923 0.0
H321 H 0.20465 0.36533 0.67474 0.0
H322 H 0.22942 0.38474 0.68205 0.0
H323 H 0.23822 0.35735 0.72901 0.0
H324 H 0.2133 0.33802 0.72163 0.0
H325 H 0.18769 0.32633 0.65667 0.0
H326 H 0.1979 0.302 0.6423 0.0
H327 H 0.21734 0.28276 0.69048 0.0
H328 H 0.20701 0.30726 0.70484 0.0
H329 H 0.1798 0.3552 0.72196 0.0
H330 H 0.17023 0.30472 0.70258 0.0
O331 O 0.17529 0.34622 0.67895 0.0
H332 H 0.16253 0.34772 0.74642 0.0
H333 H 0.15301 0.29716 0.72698 0.0
C334 C 0.20692 0.35053 0.69784 0.0
C335 C 0.21185 0.36357 0.68665 0.0
C336 C 0.22609 0.37457 0.69079 0.0
C337 C 0.23572 0.37265 0.70616 0.0
C338 C 0.23089 0.35933 0.71721 0.0
C339 C 0.21669 0.34827 0.713 0.0
C340 C 0.19631 0.3184 0.68185 0.0
C341 C 0.19409 0.31687 0.66417 0.0
C342 C 0.20005 0.30301 0.65595 0.0
C343 C 0.20837 0.29044 0.66527 0.0
C344 C 0.21077 0.29213 0.683 0.0
C345 C 0.20493 0.30612 0.6912 0.0
C346 C 0.1768 0.33037 0.71075 0.0
C347 C 0.17418 0.34244 0.72308 0.0
C348 C 0.16419 0.3382 0.73697 0.0
C349 C 0.15653 0.32181 0.73868 0.0
C350 C 0.15903 0.30979 0.72617 0.0
C351 C 0.16892 0.3141 0.71223 0.0
P352 P 0.83786 0.19562 0.7021 0.0
H353 H 0.85428 0.21279 0.67369 0.0
H354 H 0.84599 0.23609 0.65518 0.0
H355 H 0.80068 0.24111 0.68405 0.0
H356 H 0.80932 0.21806 0.70276 0.0
H357 H 0.87241 0.18718 0.71414 0.0
H358 H 0.89114 0.19681 0.73824 0.0
H359 H 0.85241 0.22974 0.75325 0.0
H360 H 0.83359 0.21988 0.72908 0.0
H361 H 0.80707 0.18271 0.68318 0.0
H362 H 0.82675 0.18232 0.73527 0.0
O363 O 0.84845 0.18278 0.69023 0.0
H364 H 0.78157 0.16553 0.69115 0.0
H365 H 0.80107 0.16557 0.74344 0.0
C366 C 0.83216 0.21345 0.68927 0.0
C367 C 0.84259 0.21895 0.67604 0.0
C368 C 0.83781 0.23223 0.66545 0.0
C369 C 0.82255 0.24031 0.66799 0.0
C370 C 0.81254 0.23521 0.68178 0.0
C371 C 0.81737 0.22193 0.69239 0.0
C372 C 0.85165 0.20288 0.71982 0.0
C373 C 0.86794 0.19651 0.72257 0.0
C374 C 0.87869 0.20209 0.73631 0.0
C375 C 0.87329 0.2141 0.74761 0.0
C376 C 0.85688 0.2204 0.74484 0.0
C377 C 0.84617 0.21486 0.731 0.0
C378 C 0.81869 0.18397 0.70863 0.0
C379 C 0.80576 0.17913 0.69638 0.0
C380 C 0.79114 0.16938 0.70098 0.0
C381 C 0.78921 0.16422 0.71796 0.0
C382 C 0.8022 0.1692 0.73024 0.0
C383 C 0.81686 0.17893 0.72559 0.0
P384 P 0.5683 0.5446 0.55004 0.0
H385 H 0.56813 0.53279 0.58511 0.0
H386 H 0.54497 0.52385 0.60361 0.0
H387 H 0.50794 0.52732 0.56127 0.0
H388 H 0.53128 0.53664 0.54289 0.0
H389 H 0.60412 0.5432 0.54158 0.0
H390 H 0.62035 0.5214 0.52934 0.0
H391 H 0.57367 0.48911 0.52378 0.0
H392 H 0.55759 0.51096 0.53657 0.0
H393 H 0.55339 0.57671 0.5538 0.0
H394 H 0.56392 0.54413 0.51253 0.0
O395 O 0.58223 0.55577 0.56289 0.0
H396 H 0.54257 0.59737 0.53351 0.0
H397 H 0.5528 0.56464 0.49207 0.0
C398 C 0.55136 0.53573 0.56277 0.0
C399 C 0.55505 0.53149 0.57978 0.0
C400 C 0.54177 0.52623 0.59031 0.0
C401 C 0.52454 0.52499 0.58397 0.0
C402 C 0.52102 0.52844 0.56663 0.0
C403 C 0.53435 0.53371 0.5561 0.0
C404 C 0.57977 0.52851 0.54034 0.0
C405 C 0.59739 0.53141 0.53778 0.0
C406 C 0.60662 0.51897 0.53059 0.0
C407 C 0.59835 0.50345 0.5256 0.0
C408 C 0.58051 0.5008 0.52774 0.0
C409 C 0.57128 0.51328 0.53501 0.0
C410 C 0.55966 0.55905 0.53466 0.0
C411 C 0.55326 0.57398 0.54034 0.0
C412 C 0.54693 0.5857 0.52872 0.0
C413 C 0.54681 0.58265 0.51115 0.0
C414 C 0.5529 0.56744 0.50551 0.0
C415 C 0.55923 0.55569 0.5172 0.0
P416 P 0.56064 0.46141 0.96561 0.0
H417 H 0.59732 0.45951 0.97365 0.0
H418 H 0.61989 0.48036 0.98347 0.0
H419 H 0.5819 0.51758 0.98645 0.0
H420 H 0.55933 0.4965 0.97691 0.0
H421 H 0.53394 0.43437 0.96356 0.0
H422 H 0.52345 0.4133 0.98398 0.0
H423 H 0.55776 0.43617 0.02308 0.0
H424 H 0.56823 0.45727 0.00251 0.0
H425 H 0.56088 0.4786 0.93298 0.0
H426 H 0.52429 0.46755 0.97166 0.0
O427 O 0.57021 0.44934 0.95211 0.0
H428 H 0.53829 0.49028 0.91472 0.0
H429 H 0.50152 0.47912 0.95336 0.0
C430 C 0.57676 0.47659 0.97421 0.0
C431 C 0.59385 0.47215 0.97648 0.0
C432 C 0.60675 0.4841 0.98203 0.0
C433 C 0.60275 0.50071 0.98552 0.0
C434 C 0.58542 0.50489 0.98393 0.0
C435 C 0.57251 0.49289 0.97836 0.0
C436 C 0.5517 0.44748 0.98154 0.0
C437 C 0.53897 0.43504 0.97661 0.0
C438 C 0.53294 0.42304 0.98832 0.0
C439 C 0.53972 0.42311 0.00518 0.0
C440 C 0.55234 0.43576 0.01016 0.0
C441 C 0.55828 0.44788 0.99843 0.0
C442 C 0.54417 0.47182 0.95346 0.0
C443 C 0.548 0.47883 0.93759 0.0
C444 C 0.53509 0.48562 0.92722 0.0
C445 C 0.51808 0.4855 0.93255 0.0
C446 C 0.51445 0.47916 0.94882 0.0
C447 C 0.52746 0.47251 0.95927 0.0
P448 P 0.72535 0.23005 0.2527 0.0
H449 H 0.74582 0.25937 0.26638 0.0
H450 H 0.74608 0.27407 0.29349 0.0
H451 H 0.70555 0.23898 0.31021 0.0
H452 H 0.70555 0.22419 0.28306 0.0
H453 H 0.76003 0.22171 0.24489 0.0
H454 H 0.7763 0.19681 0.25019 0.0
H455 H 0.73245 0.17202 0.27383 0.0
H456 H 0.71607 0.19711 0.26823 0.0
H457 H 0.69589 0.25076 0.25242 0.0
H458 H 0.70721 0.20206 0.2335 0.0
O459 O 0.73562 0.24244 0.2387 0.0
H460 H 0.66725 0.24795 0.23834 0.0
H461 H 0.67846 0.19915 0.2194 0.0
C462 C 0.72551 0.24083 0.27268 0.0
C463 C 0.73694 0.25488 0.27585 0.0
C464 C 0.73702 0.26333 0.29133 0.0
C465 C 0.72574 0.25778 0.30396 0.0
C466 C 0.71447 0.24351 0.30079 0.0
C467 C 0.71439 0.23509 0.28527 0.0
C468 C 0.73673 0.21113 0.25586 0.0
C469 C 0.75382 0.21088 0.25105 0.0
C470 C 0.76319 0.19667 0.25425 0.0
C471 C 0.7557 0.18243 0.26248 0.0
C472 C 0.73852 0.18272 0.2673 0.0
C473 C 0.72916 0.19703 0.26414 0.0
C474 C 0.70353 0.22645 0.24437 0.0
C475 C 0.69207 0.23929 0.24554 0.0
C476 C 0.67576 0.23774 0.23738 0.0
C477 C 0.67063 0.22332 0.22779 0.0
C478 C 0.68199 0.21029 0.22691 0.0
C479 C 0.69841 0.21193 0.23499 0.0
P480 P 0.48294 0.99029 0.98548 0.0
H481 H 0.51916 0.99439 0.97845 0.0
H482 H 0.53469 0.99615 0.95221 0.0
H483 H 0.48627 0.99201 0.92295 0.0
H484 H 0.4708 0.98997 0.9494 0.0
H485 H 0.47962 0.00027 0.02053 0.0
H486 H 0.47935 0.02768 0.03432 0.0
H487 H 0.48544 0.0525 0.98568 0.0
H488 H 0.48528 0.025 0.97196 0.0
H489 H 0.46989 0.95561 0.98029 0.0
H490 H 0.44863 0.00424 0.9841 0.0
O491 O 0.49394 0.97784 0.99862 0.0
H492 H 0.44085 0.94202 0.9788 0.0
H493 H 0.41949 0.99077 0.98237 0.0
C494 C 0.49389 0.99176 0.96585 0.0
C495 C 0.51189 0.9938 0.96638 0.0
C496 C 0.52074 0.99496 0.95135 0.0
C497 C 0.51172 0.99422 0.93546 0.0
C498 C 0.4936 0.99239 0.93498 0.0
C499 C 0.48474 0.99127 0.95008 0.0
C500 C 0.48283 0.01064 0.99531 0.0
C501 C 0.48097 0.01163 0.01287 0.0
C502 C 0.48089 0.02731 0.02073 0.0
C503 C 0.48255 0.0423 0.01114 0.0
C504 C 0.48404 0.04121 0.99344 0.0
C505 C 0.48411 0.02549 0.98558 0.0
C506 C 0.4614 0.98085 0.98264 0.0
C507 C 0.45894 0.96337 0.98065 0.0
C508 C 0.44232 0.95564 0.97967 0.0
C509 C 0.42783 0.96531 0.98058 0.0
C510 C 0.43037 0.98295 0.98192 0.0
C511 C 0.44704 0.99067 0.98287 0.0
Mg512 Mg 0.23329 0.84859 0.00306 0.0
O513 O 0.26014 0.86189 -6e-05 0.0
O514 O 0.27922 0.84199 0.00261 0.0
Mg515 Mg 0.265 0.81644 0.00711 0.0
C516 C 0.27563 0.85734 0.0002 0.0
C517 C 0.20366 0.86996 0.99167 0.0
O518 O 0.19633 0.85469 0.99317 0.0
O519 O 0.23371 0.83802 0.97619 0.0
O520 O 0.2524 0.81792 0.98019 0.0
O521 O 0.23621 0.85191 0.03121 0.0
O522 O 0.24408 0.82964 0.01765 0.0
C523 C 0.24191 0.8259 0.97062 0.0
C524 C 0.24346 0.83766 0.0317 0.0
O525 O 0.21993 0.87197 0.99398 0.0
Mg526 Mg 0.14969 0.50437 0.27247 0.0
O527 O 0.13417 0.50252 0.24677 0.0
O528 O 0.15328 0.50471 0.22641 0.0
Mg529 Mg 0.18047 0.50746 0.23852 0.0
C530 C 0.13777 0.50299 0.23108 0.0
C531 C 0.11311 0.50546 0.28664 0.0
O532 O 0.11349 0.51886 0.27672 0.0
O533 O 0.15771 0.47724 0.26983 0.0
O534 O 0.17696 0.4807 0.24963 0.0
O535 O 0.14986 0.53267 0.27166 0.0
O536 O 0.16993 0.5179 0.26118 0.0
C537 C 0.16875 0.4714 0.26026 0.0
C538 C 0.16396 0.53238 0.26359 0.0
O539 O 0.12582 0.49611 0.28701 0.0
Mg540 Mg 0.77234 0.65038 0.02399 0.0
O541 O 0.74727 0.63343 0.02073 0.0
O542 O 0.72583 0.65072 0.01661 0.0
Mg543 Mg 0.73662 0.67808 0.01788 0.0
C544 C 0.7313 0.6359 0.01797 0.0
C545 C 0.80483 0.63236 0.01868 0.0
O546 O 0.80967 0.6485 0.01838 0.0
O547 O 0.77156 0.65629 0.99552 0.0
O548 O 0.75064 0.67437 0.99323 0.0
O549 O 0.76945 0.65213 0.05213 0.0
O550 O 0.75882 0.66983 0.03326 0.0
C551 C 0.76243 0.66633 0.98671 0.0
C552 C 0.76061 0.66517 0.0489 0.0
O553 O 0.78901 0.62811 0.02055 0.0
Mg554 Mg 0.89707 0.02598 0.25422 0.0
O555 O 0.87953 0.00203 0.24904 0.0
O556 O 0.89651 0.98068 0.2458 0.0
Mg557 Mg 0.92458 0.99097 0.2477 0.0
C558 C 0.8816 0.98644 0.24642 0.0
C559 C 0.87696 0.05514 0.26719 0.0
O560 O 0.89291 0.06164 0.26785 0.0
O561 O 0.90391 0.01689 0.28132 0.0
O562 O 0.92165 0.9967 0.27586 0.0
O563 O 0.89781 0.03141 0.22631 0.0
O564 O 0.91648 0.01619 0.24052 0.0
C565 C 0.91412 0.00564 0.28633 0.0
C566 C 0.911 0.02223 0.22619 0.0
O567 O 0.87411 0.03988 0.26262 0.0
Mg568 Mg 0.27318 0.15153 0.52841 0.0
O569 O 0.24801 0.13496 0.52438 0.0
O570 O 0.22677 0.1524 0.51981 0.0
Mg571 Mg 0.23786 0.17964 0.52185 0.0
C572 C 0.23213 0.13755 0.52117 0.0
C573 C 0.29056 0.11742 0.53587 0.0
O574 O 0.28145 0.11803 0.54947 0.0
O575 O 0.27311 0.15796 0.50009 0.0
O576 O 0.25231 0.17614 0.49739 0.0
O577 O 0.26961 0.15281 0.55645 0.0
O578 O 0.25965 0.171 0.53769 0.0
C579 C 0.26424 0.16808 0.49114 0.0
C580 C 0.26097 0.16599 0.55326 0.0
O581 O 0.28939 0.12897 0.52466 0.0
Mg582 Mg 0.3987 0.52756 0.75033 0.0
O583 O 0.38073 0.5038 0.74533 0.0
O584 O 0.39718 0.48232 0.74099 0.0
Mg585 Mg 0.4254 0.49195 0.74351 0.0
C586 C 0.38241 0.48828 0.74206 0.0
C587 C 0.36291 0.54271 0.74874 0.0
O588 O 0.36238 0.53416 0.7345 0.0
O589 O 0.40551 0.51836 0.77734 0.0
O590 O 0.4224 0.49749 0.77176 0.0
O591 O 0.39952 0.533 0.72241 0.0
O592 O 0.41788 0.51741 0.73655 0.0
C593 C 0.41523 0.50668 0.78227 0.0
C594 C 0.41253 0.52361 0.72225 0.0
O595 O 0.3761 0.54204 0.75882 0.0
Mg596 Mg 0.73715 0.34757 0.5051 0.0
O597 O 0.7634 0.36224 0.50204 0.0
O598 O 0.78326 0.34301 0.50309 0.0
Mg599 Mg 0.77031 0.31677 0.50671 0.0
C600 C 0.77906 0.35827 0.50162 0.0
C601 C 0.70638 0.36863 0.49982 0.0
O602 O 0.70023 0.35397 0.50552 0.0
O603 O 0.73741 0.33837 0.47769 0.0
O604 O 0.75703 0.31899 0.4802 0.0
O605 O 0.74045 0.34961 0.53337 0.0
O606 O 0.74919 0.32857 0.51853 0.0
C607 C 0.74597 0.32696 0.4713 0.0
C608 C 0.74847 0.33582 0.53301 0.0
O609 O 0.72241 0.37055 0.49733 0.0
Mg610 Mg 0.6504 0.00571 0.76971 0.0
O611 O 0.63442 0.00392 0.74425 0.0
O612 O 0.65352 0.00424 0.72386 0.0
Mg613 Mg 0.68089 0.00628 0.7356 0.0
C614 C 0.638 0.00356 0.72856 0.0
C615 C 0.62708 0.0073 0.79885 0.0
O616 O 0.64019 0.01819 0.80211 0.0
O617 O 0.65704 0.97813 0.76774 0.0
O618 O 0.67654 0.98003 0.74772 0.0
O619 O 0.65162 0.03394 0.76827 0.0
O620 O 0.67091 0.0182 0.75778 0.0
C621 C 0.6679 0.97144 0.75858 0.0
C622 C 0.66549 0.03298 0.75995 0.0
O623 O 0.62675 0.99896 0.78512 0.0
Mg624 Mg 0.02841 0.26276 0.90654 0.0
O625 O 0.00384 0.25699 0.88984 0.0
O626 O 0.98248 0.24976 0.907 0.0
Mg627 Mg 0.99337 0.25058 0.93447 0.0
C628 C 0.98808 0.25242 0.89216 0.0
C629 C 0.05597 0.26872 0.88027 0.0
O630 O 0.06166 0.25626 0.88961 0.0
O631 O 0.01854 0.2878 0.9145 0.0
O632 O 0.99815 0.27946 0.93238 0.0
O633 O 0.03454 0.23577 0.90572 0.0
O634 O 0.01912 0.2464 0.9254 0.0
C635 C 0.00709 0.2911 0.9249 0.0
C636 C 0.02546 0.23339 0.91899 0.0
O637 O 0.04189 0.27485 0.88392 0.0
Mg638 Mg 0.52825 0.76332 0.40409 0.0
O639 O 0.5034 0.75724 0.38788 0.0
O640 O 0.48281 0.74895 0.40555 0.0
Mg641 Mg 0.49446 0.7494 0.43276 0.0
C642 C 0.48786 0.75214 0.39059 0.0
C643 C 0.55667 0.77324 0.38012 0.0
O644 O 0.56405 0.76368 0.39168 0.0
O645 O 0.51779 0.78783 0.41284 0.0
O646 O 0.49846 0.77837 0.43136 0.0
O647 O 0.53529 0.73665 0.4024 0.0
O648 O 0.51997 0.74626 0.42273 0.0
C649 C 0.5067 0.79048 0.42383 0.0
C650 C 0.52657 0.73365 0.41582 0.0
O651 O 0.54092 0.77619 0.38148 0.0
Mg652 Mg 0.9795 0.73983 0.60133 0.0
O653 O 0.00464 0.73376 0.6161 0.0
O654 O 0.02338 0.72679 0.59706 0.0
Mg655 Mg 0.01068 0.72881 0.57045 0.0
C656 C 0.01945 0.72911 0.6124 0.0
C657 C 0.95795 0.76185 0.62352 0.0
O658 O 0.9537 0.76739 0.60822 0.0
O659 O 0.99187 0.76534 0.59336 0.0
O660 O 0.00986 0.7575 0.57398 0.0
O661 O 0.97026 0.71266 0.60195 0.0
O662 O 0.98538 0.72433 0.58143 0.0
C663 C 0.00309 0.76893 0.58232 0.0
C664 C 0.97814 0.71095 0.588 0.0
O665 O 0.96904 0.75078 0.62514 0.0
Mg666 Mg 0.48079 0.23344 0.10361 0.0
O667 O 0.50673 0.22899 0.11778 0.0
O668 O 0.52514 0.22287 0.09806 0.0
Mg669 Mg 0.51124 0.2228 0.07189 0.0
C670 C 0.52171 0.2253 0.11352 0.0
C671 C 0.45721 0.2535 0.12485 0.0
O672 O 0.45118 0.25595 0.10922 0.0
O673 O 0.49159 0.2591 0.0942 0.0
O674 O 0.50899 0.25144 0.0742 0.0
O675 O 0.47287 0.20601 0.1056 0.0
O676 O 0.48671 0.21752 0.08413 0.0
C677 C 0.50204 0.2628 0.08248 0.0
C678 C 0.48033 0.20413 0.09143 0.0
O679 O 0.47041 0.24495 0.12719 0.0
H680 H 0.22982 0.78809 0.80957 0.0
H681 H 0.23167 0.80268 0.83689 0.0
H682 H 0.21834 0.75578 0.86251 0.0
H683 H 0.21645 0.7411 0.83525 0.0
H684 H 0.20091 0.78299 0.87405 0.0
H685 H 0.27141 0.79867 0.87228 0.0
H686 H 0.25889 0.80586 0.85421 0.0
H687 H 0.2602 0.78363 0.85804 0.0
C688 C 0.22737 0.78087 0.82104 0.0
C689 C 0.22313 0.76341 0.82027 0.0
C690 C 0.22841 0.78923 0.83662 0.0
C691 C 0.22539 0.78027 0.85174 0.0
C692 C 0.22073 0.76293 0.85098 0.0
H693 H 0.2572 0.80075 0.95473 0.0
H694 H 0.25229 0.79124 0.92555 0.0
C695 C 0.21962 0.75457 0.83539 0.0
C696 C 0.22742 0.78882 0.86841 0.0
H697 H 0.25721 0.80903 0.89548 0.0
C698 C 0.21318 0.78877 0.87873 0.0
C699 C 0.2435 0.79623 0.87449 0.0
C700 C 0.25943 0.79602 0.86428 0.0
C701 C 0.21463 0.79576 0.89509 0.0
C702 C 0.23071 0.80319 0.90115 0.0
C703 C 0.24487 0.80345 0.89072 0.0
C704 C 0.23354 0.80945 0.91878 0.0
C705 C 0.19915 0.79457 0.906 0.0
C706 C 0.22473 0.82301 0.92465 0.0
C707 C 0.22747 0.82852 0.94146 0.0
C708 C 0.23913 0.82058 0.95264 0.0
C709 C 0.24809 0.80717 0.94655 0.0
C710 C 0.24533 0.8017 0.92983 0.0
H711 H 0.18881 0.78557 0.90075 0.0
H712 H 0.20285 0.79055 0.91913 0.0
H713 H 0.19382 0.80718 0.90669 0.0
H714 H 0.21579 0.82935 0.91622 0.0
H715 H 0.22042 0.83893 0.94569 0.0
H716 H 0.0312 0.47565 0.42082 0.0
H717 H 0.04636 0.47655 0.3943 0.0
H718 H 0.01994 0.52054 0.37823 0.0
H719 H 0.00519 0.52014 0.40504 0.0
H720 H 0.03416 0.47501 0.36053 0.0
H721 H 0.07055 0.53611 0.3743 0.0
H722 H 0.05903 0.52427 0.3903 0.0
H723 H 0.04757 0.53674 0.37492 0.0
C724 C 0.02872 0.48563 0.41173 0.0
C725 C 0.01713 0.49796 0.41517 0.0
C726 C 0.03728 0.48602 0.39651 0.0
C727 C 0.03448 0.49876 0.38441 0.0
C728 C 0.02253 0.51077 0.38753 0.0
H729 H 0.08544 0.52444 0.2906 0.0
H730 H 0.0647 0.52194 0.31301 0.0
C731 C 0.01397 0.51042 0.40279 0.0
C732 C 0.04437 0.49957 0.36872 0.0
H733 H 0.07406 0.52407 0.34751 0.0
C734 C 0.04286 0.48574 0.35764 0.0
C735 C 0.05573 0.51358 0.36501 0.0
C736 C 0.05849 0.52847 0.37681 0.0
C737 C 0.05238 0.48559 0.34291 0.0
C738 C 0.06386 0.49952 0.33931 0.0
C739 C 0.06518 0.51343 0.35026 0.0
C740 C 0.07517 0.49978 0.32464 0.0
C741 C 0.04998 0.47058 0.33126 0.0
C742 C 0.08783 0.48802 0.32362 0.0
C743 C 0.09973 0.4894 0.31082 0.0
C744 C 0.09926 0.50266 0.29886 0.0
C745 C 0.08619 0.51408 0.29959 0.0
C746 C 0.07432 0.51269 0.31241 0.0
H747 H 0.03755 0.46331 0.33317 0.0
H748 H 0.05042 0.47457 0.31773 0.0
H749 H 0.06054 0.46204 0.334 0.0
H750 H 0.08893 0.47813 0.33311 0.0
H751 H 0.10965 0.48043 0.31066 0.0
H752 H 0.82539 0.73241 0.85053 0.0
H753 H 0.81882 0.71079 0.87205 0.0
H754 H 0.7683 0.72942 0.87631 0.0
H755 H 0.77477 0.75104 0.85494 0.0
H756 H 0.8116 0.71758 0.90474 0.0
H757 H 0.75728 0.67882 0.87473 0.0
H758 H 0.77115 0.69303 0.86268 0.0
H759 H 0.75367 0.70091 0.87385 0.0
C760 C 0.81282 0.73179 0.85594 0.0
C761 C 0.80061 0.74347 0.85103 0.0
C762 C 0.80905 0.71937 0.86815 0.0
C763 C 0.79298 0.71833 0.8756 0.0
C764 C 0.78061 0.72968 0.8704 0.0
H765 H 0.74421 0.68485 0.96361 0.0
H766 H 0.75269 0.69425 0.93551 0.0
C767 C 0.78435 0.74208 0.85819 0.0
C768 C 0.78974 0.70668 0.89009 0.0
H769 H 0.76021 0.67746 0.90537 0.0
C770 C 0.80058 0.70853 0.90478 0.0
C771 C 0.77536 0.69488 0.8901 0.0
C772 C 0.7638 0.69166 0.87442 0.0
C773 C 0.79683 0.69971 0.91981 0.0
C774 C 0.78198 0.68851 0.92006 0.0
C775 C 0.77158 0.68606 0.90514 0.0
C776 C 0.77604 0.68079 0.93613 0.0
C777 C 0.8082 0.70322 0.93559 0.0
C778 C 0.78609 0.66961 0.94558 0.0
C779 C 0.78131 0.66422 0.96178 0.0
C780 C 0.76638 0.66992 0.96874 0.0
C781 C 0.75588 0.68033 0.95876 0.0
C782 C 0.76066 0.68568 0.94263 0.0
H783 H 0.81737 0.71434 0.93396 0.0
H784 H 0.8003 0.70546 0.94664 0.0
H785 H 0.8158 0.69211 0.93857 0.0
H786 H 0.79787 0.66547 0.94064 0.0
H787 H 0.78964 0.65613 0.96906 0.0
H788 H 1.00006 0.00368 0.43181 0.0
H789 H 0.97516 0.01065 0.4132 0.0
H790 H 0.98349 0.96829 0.38138 0.0
H791 H 0.00817 0.96131 0.39979 0.0
H792 H 0.97707 0.01779 0.37712 0.0
H793 H 0.93112 0.96369 0.38971 0.0
H794 H 0.94886 0.97004 0.40435 0.0
H795 H 0.95244 0.95744 0.38612 0.0
C796 C 0.99638 0.99576 0.42096 0.0
C797 C 0.00608 0.98201 0.41716 0.0
C798 C 0.98221 0.99976 0.41037 0.0
C799 C 0.97736 0.98984 0.39607 0.0
C800 C 0.98683 0.97593 0.39251 0.0
H801 H 0.93005 0.97952 0.30148 0.0
H802 H 0.94167 0.97772 0.33056 0.0
C803 C 0.00104 0.97206 0.40293 0.0
C804 C 0.96335 0.99455 0.3839 0.0
H805 H 0.92737 0.97763 0.3625 0.0
C806 C 0.9659 0.0093 0.37417 0.0
C807 C 0.94881 0.98344 0.38018 0.0
C808 C 0.94502 0.96784 0.39075 0.0
C809 C 0.95513 0.01247 0.35983 0.0
C810 C 0.94129 0.0007 0.35537 0.0
C811 C 0.938 0.98662 0.36591 0.0
C812 C 0.93205 0.00125 0.33849 0.0
C813 C 0.95948 0.02767 0.34883 0.0
C814 C 0.92222 0.01484 0.33339 0.0
C815 C 0.91553 0.01596 0.31659 0.0
C816 C 0.91861 0.00349 0.30469 0.0
C817 C 0.92759 0.98945 0.31021 0.0
C818 C 0.9342 0.98835 0.3269 0.0
H819 H 0.972 0.03424 0.35286 0.0
H820 H 0.96006 0.02389 0.33534 0.0
H821 H 0.94927 0.03675 0.3496 0.0
H822 H 0.92016 0.02479 0.34224 0.0
H823 H 0.90862 0.0269 0.31277 0.0
H824 H 0.22566 0.29028 0.63591 0.0
H825 H 0.23406 0.26579 0.62034 0.0
H826 H 0.21333 0.23266 0.65903 0.0
H827 H 0.20468 0.25714 0.67465 0.0
H828 H 0.25582 0.2385 0.63273 0.0
H829 H 0.18856 0.21701 0.61242 0.0
H830 H 0.19418 0.23826 0.61957 0.0
H831 H 0.19317 0.2212 0.63465 0.0
C832 C 0.22286 0.27778 0.6411 0.0
C833 C 0.2144 0.27562 0.65643 0.0
C834 C 0.22775 0.26383 0.63225 0.0
C835 C 0.22416 0.24746 0.63848 0.0
C836 C 0.21607 0.24521 0.65397 0.0
H837 H 0.26381 0.16019 0.58762 0.0
H838 H 0.25419 0.17795 0.61025 0.0
C839 C 0.21126 0.2592 0.66291 0.0
C840 C 0.22859 0.23283 0.62841 0.0
H841 H 0.21089 0.20198 0.60196 0.0
C842 C 0.24603 0.23033 0.6262 0.0
C843 C 0.21574 0.22233 0.61985 0.0
C844 C 0.19683 0.22478 0.62158 0.0
C845 C 0.25098 0.21783 0.61524 0.0
C846 C 0.23812 0.20758 0.60637 0.0
C847 C 0.22068 0.20979 0.60893 0.0
C848 C 0.24254 0.1958 0.59303 0.0
C849 C 0.26988 0.21618 0.6126 0.0
C850 C 0.23874 0.19974 0.57594 0.0
C851 C 0.24423 0.18971 0.56304 0.0
C852 C 0.25351 0.17542 0.56698 0.0
C853 C 0.25668 0.1711 0.58416 0.0
C854 C 0.25126 0.18125 0.5971 0.0
H855 H 0.2781 0.2265 0.6188 0.0
H856 H 0.27382 0.20398 0.61801 0.0
H857 H 0.27232 0.21622 0.59881 0.0
H858 H 0.23203 0.21094 0.57257 0.0
H859 H 0.24163 0.19349 0.54999 0.0
H860 H 0.52344 0.50219 0.61035 0.0
H861 H 0.50186 0.49906 0.63197 0.0
H862 H 0.47198 0.53618 0.60595 0.0
H863 H 0.49362 0.53967 0.58446 0.0
H864 H 0.49371 0.52738 0.65189 0.0
H865 H 0.43571 0.49754 0.61777 0.0
H866 H 0.4572 0.49632 0.61025 0.0
H867 H 0.44611 0.51538 0.60735 0.0
C868 C 0.51221 0.50959 0.60913 0.0
C869 C 0.51033 0.52126 0.59571 0.0
C870 C 0.49984 0.5077 0.62143 0.0
C871 C 0.48528 0.51728 0.62047 0.0
C872 C 0.48297 0.52843 0.60675 0.0
H873 H 0.40598 0.53702 0.69061 0.0
H874 H 0.42301 0.53463 0.66541 0.0
C875 C 0.49537 0.53039 0.59446 0.0
C876 C 0.47355 0.517 0.63476 0.0
H877 H 0.43204 0.50758 0.6456 0.0
C878 C 0.48025 0.52294 0.65056 0.0
C879 C 0.45598 0.51142 0.63287 0.0
C880 C 0.44827 0.50467 0.61619 0.0
C881 C 0.46981 0.52364 0.66454 0.0
C882 C 0.45227 0.5178 0.66278 0.0
C883 C 0.44551 0.51194 0.64693 0.0
C884 C 0.44086 0.51781 0.67734 0.0
C885 C 0.4776 0.53106 0.68094 0.0
C886 C 0.4449 0.50869 0.69218 0.0
C887 C 0.43534 0.51016 0.70661 0.0
C888 C 0.42134 0.52056 0.7064 0.0
C889 C 0.41671 0.52894 0.6912 0.0
C890 C 0.42641 0.52758 0.67679 0.0
H891 H 0.4895 0.53911 0.67881 0.0
H892 H 0.46831 0.53875 0.68723 0.0
H893 H 0.48108 0.52068 0.68973 0.0
H894 H 0.45577 0.50079 0.69276 0.0
H895 H 0.43928 0.50351 0.71803 0.0
H896 H 0.82343 0.23991 0.63342 0.0
H897 H 0.81268 0.26054 0.61313 0.0
H898 H 0.79705 0.29066 0.65433 0.0
H899 H 0.80794 0.27001 0.67487 0.0
H900 H 0.77154 0.2852 0.62912 0.0
H901 H 0.83262 0.30729 0.60067 0.0
H902 H 0.82957 0.28472 0.60062 0.0
H903 H 0.83202 0.29576 0.62054 0.0
C904 C 0.81805 0.25108 0.63823 0.0
C905 C 0.81667 0.25337 0.65578 0.0
C906 C 0.81191 0.26288 0.62659 0.0
C907 C 0.80438 0.2773 0.63223 0.0
C908 C 0.80296 0.27967 0.64973 0.0
H909 H 0.75134 0.3494 0.56498 0.0
H910 H 0.76524 0.33743 0.59058 0.0
C911 C 0.8091 0.26783 0.66143 0.0
C912 C 0.79701 0.28918 0.61967 0.0
H913 H 0.80656 0.3118 0.58389 0.0
C914 C 0.77923 0.29132 0.61943 0.0
C915 C 0.80711 0.29722 0.60711 0.0
C916 C 0.82642 0.29628 0.60733 0.0
C917 C 0.7711 0.30041 0.6063 0.0
C918 C 0.78107 0.3076 0.59322 0.0
C919 C 0.79896 0.30617 0.59391 0.0
C920 C 0.77299 0.31526 0.57791 0.0
C921 C 0.7518 0.30152 0.60596 0.0
C922 C 0.77295 0.30682 0.56237 0.0
C923 C 0.76502 0.31354 0.54781 0.0
C924 C 0.75711 0.32895 0.54847 0.0
C925 C 0.75732 0.3375 0.56406 0.0
C926 C 0.76521 0.33069 0.57868 0.0
H927 H 0.74572 0.29365 0.61605 0.0
H928 H 0.74873 0.31481 0.60784 0.0
H929 H 0.74601 0.29744 0.59341 0.0
H930 H 0.77885 0.29486 0.56156 0.0
H931 H 0.76492 0.30651 0.53611 0.0
H932 H 0.55599 0.99895 0.58816 0.0
H933 H 0.57262 0.99987 0.6152 0.0
H934 H 0.5256 0.99867 0.64221 0.0
H935 H 0.50874 0.99734 0.61509 0.0
H936 H 0.57125 0.02532 0.64064 0.0
H937 H 0.5536 0.96081 0.66511 0.0
H938 H 0.55066 0.96643 0.64294 0.0
H939 H 0.53625 0.97354 0.65811 0.0
C940 C 0.54913 0.99858 0.59983 0.0
C941 C 0.53102 0.99794 0.59946 0.0
C942 C 0.55867 0.99924 0.61528 0.0
C943 C 0.55034 0.99917 0.63069 0.0
C944 C 0.53227 0.9985 0.63045 0.0
H945 H 0.6029 0.00183 0.73252 0.0
H946 H 0.57999 0.00147 0.70999 0.0
C947 C 0.52267 0.99789 0.61495 0.0
C948 C 0.56078 0.00042 0.64689 0.0
H949 H 0.57324 0.9779 0.68204 0.0
C950 C 0.57157 0.01501 0.64978 0.0
C951 C 0.56105 0.98702 0.65883 0.0
C952 C 0.54987 0.97099 0.65615 0.0
C953 C 0.58299 0.01638 0.66406 0.0
C954 C 0.58385 0.00267 0.6756 0.0
C955 C 0.57255 0.98836 0.67313 0.0
C956 C 0.59746 0.00247 0.68937 0.0
C957 C 0.59422 0.03242 0.66656 0.0
C958 C 0.61479 0.00278 0.6852 0.0
C959 C 0.62784 0.00295 0.69794 0.0
C960 C 0.62387 0.00275 0.7152 0.0
C961 C 0.60643 0.00207 0.71937 0.0
C962 C 0.59332 0.00185 0.70654 0.0
H963 H 0.58862 0.04323 0.65971 0.0
H964 H 0.59609 0.03558 0.68025 0.0
H965 H 0.60705 0.03068 0.66146 0.0
H966 H 0.61823 0.00293 0.67202 0.0
H967 H 0.64107 0.00337 0.69418 0.0
H968 H 0.86453 0.21846 0.78046 0.0
H969 H 0.88369 0.22672 0.80492 0.0
H970 H 0.92702 0.23037 0.77257 0.0
H971 H 0.90792 0.22244 0.74802 0.0
H972 H 0.91291 0.20899 0.81681 0.0
H973 H 0.93109 0.27535 0.79901 0.0
H974 H 0.91242 0.26372 0.7896 0.0
H975 H 0.93358 0.26004 0.78279 0.0
C976 C 0.87809 0.22129 0.77851 0.0
C977 C 0.88472 0.21981 0.76232 0.0
C978 C 0.88902 0.22592 0.7925 0.0
C979 C 0.90671 0.22933 0.79049 0.0
C980 C 0.91335 0.22804 0.77433 0.0
H981 H 0.9955 0.25325 0.85843 0.0
H982 H 0.97556 0.24768 0.83393 0.0
C983 C 0.90245 0.22334 0.76036 0.0
C984 C 0.9184 0.23337 0.80545 0.0
H985 H 0.94659 0.26389 0.8226 0.0
C986 C 0.9202 0.22103 0.81816 0.0
C987 C 0.92796 0.24903 0.80706 0.0
C988 C 0.92611 0.26288 0.79398 0.0
C989 C 0.93158 0.22381 0.83233 0.0
C990 C 0.9411 0.23951 0.834 0.0
C991 C 0.93927 0.25187 0.82129 0.0
C992 C 0.95304 0.24333 0.84886 0.0
C993 C 0.93364 0.20972 0.84513 0.0
C994 C 0.94693 0.24305 0.86535 0.0
C995 C 0.95828 0.24613 0.87938 0.0
C996 C 0.97598 0.24974 0.8772 0.0
C997 C 0.98198 0.25047 0.8606 0.0
C998 C 0.9706 0.2473 0.84657 0.0
H999 H 0.92921 0.19726 0.8397 0.0
H1000 H 0.94728 0.20919 0.84978 0.0
H1001 H 0.92575 0.21196 0.85618 0.0
H1002 H 0.93335 0.24042 0.86737 0.0
H1003 H 0.95316 0.24564 0.89195 0.0
H1004 H 0.48426 0.94604 0.46615 0.0
H1005 H 0.48614 0.91961 0.45083 0.0
H1006 H 0.50484 0.89578 0.49691 0.0
H1007 H 0.50368 0.92228 0.51216 0.0
H1008 H 0.52385 0.88923 0.46942 0.0
H1009 H 0.45388 0.87737 0.4536 0.0
H1010 H 0.46285 0.89752 0.44669 0.0
H1011 H 0.46209 0.89285 0.46903 0.0
C1012 C 0.48886 0.9352 0.47301 0.0
C1013 C 0.49376 0.93628 0.49042 0.0
C1014 C 0.48974 0.92005 0.46427 0.0
C1015 C 0.49539 0.90567 0.47279 0.0
C1016 C 0.50033 0.90671 0.49012 0.0
H1017 H 0.48538 0.80084 0.4478 0.0
H1018 H 0.48274 0.8294 0.45797 0.0
C1019 C 0.49951 0.92184 0.49886 0.0
C1020 C 0.49657 0.88957 0.46365 0.0
H1021 H 0.4726 0.85852 0.44211 0.0
C1022 C 0.51266 0.88253 0.46339 0.0
C1023 C 0.48192 0.88082 0.4559 0.0
C1024 C 0.46417 0.88741 0.4564 0.0
C1025 C 0.5145 0.86688 0.45578 0.0
C1026 C 0.49988 0.85819 0.44791 0.0
C1027 C 0.48381 0.86531 0.448 0.0
C1028 C 0.50076 0.84111 0.44066 0.0
C1029 C 0.53194 0.8595 0.4568 0.0
C1030 C 0.51146 0.83825 0.42724 0.0
C1031 C 0.51309 0.82185 0.42141 0.0
C1032 C 0.50394 0.80805 0.42884 0.0
C1033 C 0.4927 0.81111 0.44181 0.0
C1034 C 0.49113 0.82746 0.44765 0.0
H1035 H 0.54079 0.86591 0.46651 0.0
H1036 H 0.53073 0.84583 0.4599 0.0
H1037 H 0.5379 0.86103 0.4443 0.0
H1038 H 0.51873 0.84866 0.42143 0.0
H1039 H 0.52176 0.81999 0.41131 0.0
H1040 H 0.157 0.29335 0.75842 0.0
H1041 H 0.13911 0.28587 0.78249 0.0
H1042 H 0.11407 0.33261 0.77624 0.0
H1043 H 0.1318 0.34014 0.75204 0.0
H1044 H 0.13637 0.30703 0.8134 0.0
H1045 H 0.07436 0.29369 0.77645 0.0
H1046 H 0.09501 0.29324 0.76692 0.0
H1047 H 0.08656 0.31305 0.77179 0.0
C1048 C 0.14759 0.30197 0.76209 0.0
C1049 C 0.14578 0.31731 0.75333 0.0
C1050 C 0.13746 0.29772 0.77587 0.0
C1051 C 0.12521 0.30863 0.781 0.0
C1052 C 0.12337 0.32397 0.77234 0.0
H1053 H 0.0496 0.29598 0.85972 0.0
H1054 H 0.06651 0.30681 0.83601 0.0
C1055 C 0.13359 0.3283 0.75863 0.0
C1056 C 0.11459 0.30405 0.79563 0.0
H1057 H 0.07375 0.29141 0.80628 0.0
C1058 C 0.12267 0.30364 0.81189 0.0
C1059 C 0.09672 0.29981 0.79356 0.0
C1060 C 0.08757 0.29984 0.77626 0.0
C1061 C 0.11334 0.29904 0.82621 0.0
C1062 C 0.09553 0.29429 0.82411 0.0
C1063 C 0.08739 0.29502 0.80786 0.0
C1064 C 0.08532 0.28787 0.83851 0.0
C1065 C 0.12261 0.2995 0.84348 0.0
C1066 C 0.09012 0.27348 0.84757 0.0
C1067 C 0.08058 0.26734 0.86113 0.0
C1068 C 0.06589 0.27533 0.86579 0.0
C1069 C 0.06089 0.28957 0.85649 0.0
C1070 C 0.07052 0.29577 0.84294 0.0
H1071 H 0.13432 0.30823 0.84359 0.0
H1072 H 0.1141 0.30347 0.85345 0.0
H1073 H 0.12674 0.2867 0.84677 0.0
H1074 H 0.10121 0.2669 0.84408 0.0
H1075 H 0.08471 0.25624 0.86789 0.0
H1076 H 0.56157 0.59273 0.48152 0.0
H1077 H 0.55418 0.61654 0.46318 0.0
H1078 H 0.51221 0.62628 0.49485 0.0
H1079 H 0.51926 0.60231 0.51308 0.0
H1080 H 0.5202 0.62556 0.44571 0.0
H1081 H 0.54687 0.66966 0.49622 0.0
H1082 H 0.55203 0.64781 0.49578 0.0
H1083 H 0.53139 0.6533 0.50252 0.0
C1084 C 0.55051 0.59968 0.48436 0.0
C1085 C 0.54111 0.59574 0.49888 0.0
C1086 C 0.54636 0.6133 0.4739 0.0
C1087 C 0.5328 0.62321 0.47781 0.0
C1088 C 0.52285 0.61884 0.49176 0.0
H1089 H 0.50825 0.72327 0.44328 0.0
H1090 H 0.50745 0.69557 0.457 0.0
C1091 C 0.52695 0.60521 0.5022 0.0
C1092 C 0.52993 0.6389 0.46814 0.0
H1093 H 0.535 0.6817 0.47135 0.0
C1094 C 0.52336 0.63786 0.45127 0.0
C1095 C 0.53408 0.65486 0.4755 0.0
C1096 C 0.5416 0.6566 0.49346 0.0
C1097 C 0.52069 0.6525 0.44157 0.0
C1098 C 0.5251 0.6685 0.44886 0.0
C1099 C 0.53155 0.66945 0.46579 0.0
C1100 C 0.52376 0.68449 0.43915 0.0
C1101 C 0.51294 0.65068 0.42372 0.0
C1102 C 0.53301 0.68743 0.42442 0.0
C1103 C 0.53334 0.70323 0.41642 0.0
C1104 C 0.52462 0.71646 0.42316 0.0
C1105 C 0.51503 0.71336 0.43768 0.0
C1106 C 0.51459 0.69753 0.44558 0.0
H1107 H 0.50543 0.63841 0.42201 0.0
H1108 H 0.50438 0.66103 0.42046 0.0
H1109 H 0.52345 0.65115 0.41464 0.0
H1110 H 0.54054 0.67772 0.41946 0.0
H1111 H 0.54094 0.70523 0.40532 0.0
H1112 H 0.84923 0.8094 0.72888 0.0
H1113 H 0.86851 0.80439 0.70596 0.0
H1114 H 0.8941 0.76797 0.73744 0.0
H1115 H 0.87494 0.7729 0.76038 0.0
H1116 H 0.90431 0.80853 0.70599 0.0
H1117 H 0.88209 0.74184 0.69376 0.0
H1118 H 0.87018 0.75571 0.70617 0.0
H1119 H 0.88868 0.74604 0.71553 0.0
C1120 C 0.85898 0.80034 0.73092 0.0
C1121 C 0.86047 0.79145 0.74641 0.0
C1122 C 0.86995 0.79746 0.71781 0.0
C1123 C 0.88256 0.78563 0.71991 0.0
C1124 C 0.88419 0.77687 0.7354 0.0
H1125 H 0.96092 0.75016 0.65629 0.0
H1126 H 0.94353 0.75699 0.68012 0.0
C1127 C 0.87321 0.77969 0.74849 0.0
C1128 C 0.89423 0.78267 0.70602 0.0
H1129 H 0.90715 0.75217 0.68 0.0
C1130 C 0.90489 0.79624 0.70024 0.0
C1131 C 0.89496 0.7666 0.69857 0.0
C1132 C 0.88326 0.75174 0.70369 0.0
C1133 C 0.91648 0.7941 0.68738 0.0
C1134 C 0.91724 0.77802 0.67999 0.0
C1135 C 0.9066 0.76446 0.68577 0.0
C1136 C 0.92869 0.775 0.66595 0.0
C1137 C 0.92802 0.80897 0.682 0.0
C1138 C 0.92617 0.78296 0.65013 0.0
C1139 C 0.93607 0.77908 0.63648 0.0
C1140 C 0.94863 0.76711 0.63839 0.0
C1141 C 0.95139 0.75946 0.65439 0.0
C1142 C 0.94144 0.76331 0.66801 0.0
H1143 H 0.92896 0.81912 0.69167 0.0
H1144 H 0.94118 0.80507 0.67974 0.0
H1145 H 0.92264 0.81428 0.66995 0.0
H1146 H 0.9162 0.79181 0.64819 0.0
H1147 H 0.93358 0.78517 0.62433 0.0
H1148 H 0.02727 0.92247 0.52345 0.0
H1149 H 0.01869 0.90014 0.54374 0.0
H1150 H 0.0558 0.86827 0.52382 0.0
H1151 H 0.06459 0.89047 0.50385 0.0
H1152 H 0.00521 0.86758 0.53501 0.0
H1153 H 0.06504 0.86431 0.57522 0.0
H1154 H 0.06072 0.88228 0.56181 0.0
H1155 H 0.06904 0.86377 0.55298 0.0
C1156 C 0.03378 0.91079 0.52363 0.0
C1157 C 0.04656 0.90818 0.51203 0.0
C1158 C 0.02884 0.89806 0.53517 0.0
C1159 C 0.03679 0.88266 0.53545 0.0
C1160 C 0.04973 0.88017 0.52407 0.0
H1161 H 0.02883 0.78104 0.56234 0.0
H1162 H 0.03589 0.81019 0.55414 0.0
C1163 C 0.0546 0.8928 0.51251 0.0
C1164 C 0.03083 0.86855 0.5466 0.0
H1165 H 0.04583 0.8392 0.57456 0.0
C1166 C 0.01392 0.86157 0.54399 0.0
C1167 C 0.04223 0.86081 0.55834 0.0
C1168 C 0.06022 0.86829 0.5624 0.0
C1169 C 0.00851 0.84632 0.55183 0.0
C1170 C 0.02029 0.83802 0.56273 0.0
C1171 C 0.03685 0.84555 0.56614 0.0
C1172 C 0.01641 0.8206 0.56896 0.0
C1173 C 0.99064 0.83863 0.54755 0.0
C1174 C 0.0033 0.81682 0.5803 0.0
C1175 C 0.99917 0.80006 0.58505 0.0
C1176 C 0.0081 0.78684 0.57849 0.0
C1177 C 0.02158 0.79084 0.56755 0.0
C1178 C 0.0257 0.80752 0.56288 0.0
H1179 H 0.98398 0.84553 0.53709 0.0
H1180 H 0.99123 0.82525 0.54378 0.0
H1181 H 0.98279 0.83891 0.55894 0.0
H1182 H 0.99614 0.82679 0.5853 0.0
H1183 H 0.98877 0.79744 0.59355 0.0
H1184 H 0.15906 0.70842 0.69575 0.0
H1185 H 0.13183 0.70853 0.67903 0.0
H1186 H 0.10829 0.73208 0.72049 0.0
H1187 H 0.13556 0.73206 0.73732 0.0
H1188 H 0.09911 0.69441 0.68511 0.0
H1189 H 0.09929 0.76436 0.68091 0.0
H1190 H 0.11798 0.75355 0.68827 0.0
H1191 H 0.10056 0.75586 0.70211 0.0
C1192 C 0.14804 0.71342 0.70141 0.0
C1193 C 0.1495 0.7203 0.71784 0.0
C1194 C 0.1325 0.71355 0.69181 0.0
C1195 C 0.11812 0.72057 0.69841 0.0
C1196 C 0.11934 0.72695 0.71501 0.0
H1197 H 0.01839 0.7372 0.64617 0.0
H1198 H 0.04103 0.73416 0.66849 0.0
C1199 C 0.13492 0.7269 0.72461 0.0
C1200 C 0.10201 0.72141 0.6877 0.0
H1201 H 0.07549 0.74895 0.66788 0.0
C1202 C 0.09389 0.70632 0.68141 0.0
C1203 C 0.09521 0.73698 0.68293 0.0
C1204 C 0.10375 0.75364 0.68876 0.0
C1205 C 0.07926 0.7064 0.6703 0.0
C1206 C 0.07274 0.72197 0.66519 0.0
C1207 C 0.08053 0.73703 0.67187 0.0
C1208 C 0.05863 0.723 0.65201 0.0
C1209 C 0.07095 0.68981 0.66404 0.0
C1210 C 0.06111 0.71784 0.63537 0.0
C1211 C 0.04829 0.71962 0.62261 0.0
C1212 C 0.0327 0.72665 0.62621 0.0
C1213 C 0.03019 0.73168 0.64296 0.0
C1214 C 0.04311 0.72997 0.65573 0.0
H1215 H 0.07436 0.67919 0.67259 0.0
H1216 H 0.05671 0.69021 0.66298 0.0
H1217 H 0.07555 0.68722 0.65125 0.0
H1218 H 0.07313 0.71272 0.63217 0.0
H1219 H 0.0507 0.71562 0.60987 0.0
H1220 H 0.01063 0.57166 0.51676 0.0
H1221 H 0.00953 0.59875 0.53109 0.0
H1222 H 0.95399 0.59393 0.52765 0.0
H1223 H 0.95497 0.56686 0.51327 0.0
H1224 H 0.96683 0.62555 0.51873 0.0
H1225 H 0.99719 0.60558 0.58015 0.0
H1226 H 0.00993 0.60215 0.56222 0.0
H1227 H 0.9894 0.59073 0.56394 0.0
C1228 C 0.99818 0.57633 0.51915 0.0
C1229 C 0.98288 0.56708 0.51395 0.0
C1230 C 0.99758 0.59178 0.52738 0.0
C1231 C 0.98168 0.59819 0.53073 0.0
C1232 C 0.96639 0.58917 0.52526 0.0
H1233 H 0.96559 0.68027 0.59973 0.0
H1234 H 0.9661 0.65287 0.58583 0.0
C1235 C 0.96698 0.57374 0.51696 0.0
C1236 C 0.98097 0.61446 0.53969 0.0
H1237 H 0.99351 0.63495 0.57656 0.0
C1238 C 0.97261 0.62759 0.5314 0.0
C1239 C 0.98828 0.61701 0.55633 0.0
C1240 C 0.99656 0.60307 0.56627 0.0
C1241 C 0.97165 0.64333 0.53915 0.0
C1242 C 0.97957 0.64609 0.5555 0.0
C1243 C 0.98762 0.63285 0.56395 0.0
C1244 C 0.9796 0.66264 0.56407 0.0
C1245 C 0.96195 0.65675 0.52984 0.0
C1246 C 0.98731 0.67714 0.5566 0.0
C1247 C 0.98697 0.6928 0.56446 0.0
C1248 C 0.9791 0.69423 0.58006 0.0
C1249 C 0.97173 0.67961 0.58771 0.0
C1250 C 0.97202 0.66394 0.5798 0.0
H1251 H 0.95275 0.65125 0.51989 0.0
H1252 H 0.9547 0.66408 0.53876 0.0
H1253 H 0.97125 0.6656 0.5235 0.0
H1254 H 0.99354 0.67637 0.54464 0.0
H1255 H 0.99272 0.70379 0.55817 0.0
H1256 H 0.75834 0.88792 0.1848 0.0
H1257 H 0.7825 0.90758 0.19283 0.0
H1258 H 0.7732 0.89859 0.24582 0.0
H1259 H 0.74814 0.87988 0.23791 0.0
H1260 H 0.77987 0.93086 0.24051 0.0
H1261 H 0.82941 0.89634 0.20966 0.0
H1262 H 0.8126 0.90184 0.19469 0.0
H1263 H 0.80775 0.88745 0.21189 0.0
C1264 C 0.76123 0.89024 0.19818 0.0
C1265 C 0.7512 0.88221 0.21068 0.0
C1266 C 0.77529 0.9013 0.20276 0.0
C1267 C 0.77996 0.90427 0.21994 0.0
C1268 C 0.76996 0.89637 0.23247 0.0
H1269 H 0.87964 0.95234 0.25123 0.0
H1270 H 0.85464 0.93264 0.2462 0.0
C1271 C 0.75572 0.88551 0.2279 0.0
C1272 C 0.79499 0.91595 0.22484 0.0
H1273 H 0.83767 0.92458 0.21822 0.0
C1274 C 0.79255 0.9294 0.23575 0.0
C1275 C 0.81163 0.91391 0.21889 0.0
C1276 C 0.81556 0.899 0.20829 0.0
C1277 C 0.80617 0.94104 0.24061 0.0
C1278 C 0.82257 0.93953 0.23388 0.0
C1279 C 0.82507 0.92589 0.22322 0.0
C1280 C 0.83742 0.95177 0.23781 0.0
C1281 C 0.80287 0.95456 0.25318 0.0
C1282 C 0.83612 0.96913 0.23481 0.0
C1283 C 0.85035 0.98048 0.238 0.0
C1284 C 0.86627 0.97463 0.24381 0.0
C1285 C 0.86757 0.95725 0.24669 0.0
C1286 C 0.85328 0.94596 0.24381 0.0
H1287 H 0.79186 0.95069 0.26115 0.0
H1288 H 0.81439 0.95757 0.2617 0.0
H1289 H 0.79956 0.96619 0.24617 0.0
H1290 H 0.82421 0.9739 0.22969 0.0
H1291 H 0.849 0.99378 0.23546 0.0
H1292 H 0.74542 0.14899 0.25841 0.0
H1293 H 0.76304 0.12458 0.26264 0.0
H1294 H 0.80677 0.15778 0.27812 0.0
H1295 H 0.7892 0.18208 0.27438 0.0
H1296 H 0.79253 0.1189 0.24563 0.0
H1297 H 0.8075 0.12148 0.31496 0.0
H1298 H 0.79029 0.13268 0.3048 0.0
H1299 H 0.81221 0.1413 0.30454 0.0
C1300 C 0.7587 0.15104 0.26304 0.0
C1301 C 0.76592 0.16747 0.26601 0.0
C1302 C 0.76876 0.1371 0.26537 0.0
C1303 C 0.78615 0.13934 0.27092 0.0
C1304 C 0.79329 0.1557 0.27416 0.0
H1305 H 0.87898 0.08818 0.27672 0.0
H1306 H 0.85539 0.10688 0.27863 0.0
C1307 C 0.78328 0.16961 0.2718 0.0
C1308 C 0.79728 0.12482 0.27211 0.0
H1309 H 0.82596 0.10537 0.29864 0.0
C1310 C 0.79962 0.11572 0.25728 0.0
C1311 C 0.80652 0.12071 0.28733 0.0
C1312 C 0.80389 0.12945 0.30385 0.0
C1313 C 0.81162 0.10323 0.25704 0.0
C1314 C 0.82132 0.09955 0.27212 0.0
C1315 C 0.81854 0.10824 0.28709 0.0
C1316 C 0.8353 0.08766 0.27226 0.0
C1317 C 0.81443 0.09466 0.24045 0.0
C1318 C 0.83179 0.07052 0.26848 0.0
C1319 C 0.84528 0.05976 0.26734 0.0
C1320 C 0.86251 0.06597 0.27002 0.0
C1321 C 0.86589 0.08299 0.27449 0.0
C1322 C 0.85241 0.09371 0.27562 0.0
H1323 H 0.80842 0.10126 0.22941 0.0
H1324 H 0.82841 0.09403 0.23845 0.0
H1325 H 0.80861 0.08156 0.24081 0.0
H1326 H 0.81864 0.06553 0.26614 0.0
H1327 H 0.84222 0.04669 0.26398 0.0
H1328 H 0.40164 0.97282 0.00077 0.0
H1329 H 0.37373 0.95731 0.00331 0.0
H1330 H 0.38655 0.92285 0.96452 0.0
H1331 H 0.41428 0.93859 0.96151 0.0
H1332 H 0.35194 0.93271 0.96169 0.0
H1333 H 0.37054 0.91068 0.02685 0.0
H1334 H 0.37204 0.93315 0.02366 0.0
H1335 H 0.38601 0.92018 0.0127 0.0
C1336 C 0.3984 0.96214 0.99254 0.0
C1337 C 0.41026 0.95686 0.98103 0.0
C1338 C 0.38251 0.9532 0.99413 0.0
C1339 C 0.37821 0.93878 0.98431 0.0
C1340 C 0.38968 0.93389 0.9723 0.0
H1341 H 0.31009 0.85236 0.00065 0.0
H1342 H 0.33383 0.87323 0.99657 0.0
C1343 C 0.40557 0.94282 0.97069 0.0
C1344 C 0.36219 0.92826 0.98707 0.0
H1345 H 0.34265 0.90222 0.0161 0.0
C1346 C 0.34981 0.92612 0.97361 0.0
C1347 C 0.35959 0.91956 0.0026 0.0
C1348 C 0.37278 0.92084 0.01726 0.0
C1349 C 0.33493 0.91537 0.97522 0.0
C1350 C 0.33235 0.9067 0.99074 0.0
C1351 C 0.34463 0.90899 0.00425 0.0
C1352 C 0.31762 0.89425 0.99292 0.0
C1353 C 0.3224 0.91293 0.96013 0.0
C1354 C 0.30059 0.89918 0.99231 0.0
C1355 C 0.28688 0.88723 0.99464 0.0
C1356 C 0.29001 0.87016 0.99767 0.0
C1357 C 0.30714 0.86536 0.99832 0.0
C1358 C 0.32077 0.87728 0.99601 0.0
H1359 H 0.32791 0.91796 0.9482 0.0
H1360 H 0.31852 0.89934 0.95837 0.0
H1361 H 0.31063 0.91964 0.96238 0.0
H1362 H 0.29791 0.91227 0.9902 0.0
H1363 H 0.27387 0.89139 0.99411 0.0
H1364 H 0.26449 0.3467 0.26507 0.0
H1365 H 0.24223 0.36634 0.25781 0.0
H1366 H 0.23099 0.36974 0.31071 0.0
H1367 H 0.25294 0.34975 0.31808 0.0
H1368 H 0.20087 0.36817 0.28669 0.0
H1369 H 0.25198 0.41694 0.27055 0.0
H1370 H 0.25275 0.39712 0.25988 0.0
H1371 H 0.25655 0.39813 0.28253 0.0
C1372 C 0.25705 0.35134 0.27513 0.0
C1373 C 0.26062 0.3468 0.29218 0.0
C1374 C 0.24442 0.36265 0.27097 0.0
C1375 C 0.23516 0.36964 0.28376 0.0
C1376 C 0.23807 0.36452 0.30068 0.0
H1377 H 0.1661 0.45114 0.28856 0.0
H1378 H 0.18005 0.42464 0.2938 0.0
C1379 C 0.25071 0.35323 0.30486 0.0
C1380 C 0.22341 0.38323 0.27965 0.0
H1381 H 0.22324 0.42394 0.26556 0.0
C1382 C 0.20569 0.38037 0.28204 0.0
C1383 C 0.22981 0.39914 0.27372 0.0
C1384 C 0.24882 0.40315 0.27163 0.0
C1385 C 0.19413 0.39298 0.27828 0.0
C1386 C 0.20056 0.40889 0.27228 0.0
C1387 C 0.2183 0.4117 0.27001 0.0
C1388 C 0.1894 0.42305 0.26842 0.0
C1389 C 0.17515 0.38909 0.28048 0.0
C1390 C 0.18975 0.43083 0.25236 0.0
C1391 C 0.18202 0.44603 0.24942 0.0
C1392 C 0.17371 0.45379 0.26247 0.0
C1393 C 0.1723 0.44542 0.27822 0.0
C1394 C 0.18023 0.43023 0.28121 0.0
H1395 H 0.17184 0.37529 0.28057 0.0
H1396 H 0.17159 0.39423 0.2928 0.0
H1397 H 0.1673 0.39501 0.27019 0.0
H1398 H 0.19672 0.42551 0.24229 0.0
H1399 H 0.18321 0.4521 0.23711 0.0
H1400 H 0.13559 0.99913 0.50184 0.0
H1401 H 0.15707 0.02154 0.51054 0.0
H1402 H 0.12655 0.05837 0.48492 0.0
H1403 H 0.10523 0.03605 0.47569 0.0
H1404 H 0.1748 0.04485 0.48655 0.0
H1405 H 0.13812 0.07715 0.53426 0.0
H1406 H 0.1329 0.05556 0.52794 0.0
H1407 H 0.12688 0.07259 0.5142 0.0
C1408 C 0.13344 0.01198 0.49799 0.0
C1409 C 0.11867 0.01575 0.48799 0.0
C1410 C 0.14568 0.02477 0.50307 0.0
C1411 C 0.1433 0.04158 0.49847 0.0
C1412 C 0.12847 0.04548 0.4888 0.0
H1413 H 0.19859 0.13805 0.50939 0.0
H1414 H 0.17785 0.11415 0.50448 0.0
C1415 C 0.11627 0.03269 0.4836 0.0
C1416 C 0.15675 0.05496 0.50302 0.0
H1417 H 0.16442 0.09089 0.52625 0.0
C1418 C 0.17264 0.05487 0.49533 0.0
C1419 C 0.15378 0.06798 0.51442 0.0
C1420 C 0.13705 0.06836 0.52332 0.0
C1421 C 0.18552 0.06781 0.49832 0.0
C1422 C 0.18254 0.08093 0.50967 0.0
C1423 C 0.16671 0.08083 0.51758 0.0
C1424 C 0.19534 0.09531 0.51294 0.0
C1425 C 0.20189 0.06763 0.48878 0.0
C1426 C 0.21205 0.0927 0.51954 0.0
C1427 C 0.22406 0.10638 0.52223 0.0
C1428 C 0.21947 0.12295 0.51861 0.0
C1429 C 0.2026 0.12549 0.51233 0.0
C1430 C 0.19069 0.11183 0.50953 0.0
H1431 H 0.20027 0.05935 0.47745 0.0
H1432 H 0.20617 0.08053 0.48456 0.0
H1433 H 0.21223 0.06273 0.49728 0.0
H1434 H 0.2158 0.0801 0.52265 0.0
H1435 H 0.23688 0.10398 0.52721 0.0
H1436 H 0.75549 0.16588 0.70654 0.0
H1437 H 0.73096 0.14649 0.71311 0.0
H1438 H 0.76406 0.11812 0.74646 0.0
H1439 H 0.78865 0.13721 0.7398 0.0
H1440 H 0.72801 0.11166 0.70739 0.0
H1441 H 0.72287 0.12574 0.77566 0.0
H1442 H 0.7347 0.13962 0.76144 0.0
H1443 H 0.74429 0.12126 0.7703 0.0
C1444 C 0.75755 0.15552 0.71528 0.0
C1445 C 0.77405 0.15313 0.72267 0.0
C1446 C 0.7435 0.14452 0.71909 0.0
C1447 C 0.74566 0.13103 0.73046 0.0
C1448 C 0.76204 0.12869 0.73796 0.0
H1449 H 0.69533 0.03458 0.74292 0.0
H1450 H 0.71236 0.05971 0.73435 0.0
C1451 C 0.77609 0.13964 0.73415 0.0
C1452 C 0.73108 0.11874 0.73374 0.0
H1453 H 0.70876 0.09974 0.76572 0.0
C1454 C 0.72361 0.10921 0.7201 0.0
C1455 C 0.72518 0.11575 0.75028 0.0
C1456 C 0.73204 0.12624 0.76524 0.0
C1457 C 0.71104 0.09613 0.72271 0.0
C1458 C 0.70598 0.0924 0.73942 0.0
C1459 C 0.71277 0.10252 0.75293 0.0
C1460 C 0.69472 0.07729 0.74336 0.0
C1461 C 0.70346 0.08625 0.70761 0.0
C1462 C 0.67918 0.07882 0.75142 0.0
C1463 C 0.66933 0.0644 0.75634 0.0
C1464 C 0.67498 0.04823 0.75342 0.0
C1465 C 0.69045 0.04679 0.74515 0.0
C1466 C 0.70021 0.06117 0.74019 0.0
H1467 H 0.70456 0.09368 0.69564 0.0
H1468 H 0.7106 0.07469 0.70627 0.0
H1469 H 0.68967 0.08237 0.70925 0.0
H1470 H 0.6748 0.09116 0.75411 0.0
H1471 H 0.65753 0.06594 0.76276 0.0
H1472 H 0.41826 0.02146 0.55582 0.0
H1473 H 0.39033 0.03392 0.55661 0.0
H1474 H 0.39553 0.05199 0.50517 0.0
H1475 H 0.42306 0.03898 0.50402 0.0
H1476 H 0.38474 0.06718 0.55337 0.0
H1477 H 0.34658 0.03167 0.50294 0.0
H1478 H 0.36677 0.02479 0.51187 0.0
H1479 H 0.36655 0.04094 0.49568 0.0
C1480 C 0.41328 0.02774 0.54454 0.0
C1481 C 0.42292 0.02922 0.52986 0.0
C1482 C 0.39736 0.03495 0.54505 0.0
C1483 C 0.39071 0.04368 0.53088 0.0
C1484 C 0.4002 0.04499 0.51614 0.0
H1485 H 0.31195 0.11307 0.50982 0.0
H1486 H 0.3352 0.09376 0.509 0.0
C1487 C 0.41607 0.03776 0.51559 0.0
C1488 C 0.37455 0.05254 0.53192 0.0
H1489 H 0.33515 0.05727 0.51208 0.0
C1490 C 0.3738 0.06485 0.54449 0.0
C1491 C 0.36031 0.04952 0.52028 0.0
C1492 C 0.35999 0.03589 0.50704 0.0
C1493 C 0.35945 0.07462 0.5454 0.0
C1494 C 0.34538 0.07185 0.53354 0.0
C1495 C 0.34598 0.05936 0.52113 0.0
C1496 C 0.33027 0.08232 0.53346 0.0
C1497 C 0.35971 0.08824 0.55866 0.0
C1498 C 0.31949 0.08192 0.54728 0.0
C1499 C 0.30618 0.09293 0.54781 0.0
C1500 C 0.30341 0.10453 0.53449 0.0
C1501 C 0.31378 0.10437 0.52033 0.0
C1502 C 0.32706 0.09333 0.51981 0.0
H1503 H 0.37282 0.09101 0.56451 0.0
H1504 H 0.35498 0.10007 0.55304 0.0
H1505 H 0.35104 0.08407 0.5689 0.0
H1506 H 0.32161 0.07331 0.55782 0.0
H1507 H 0.29838 0.09264 0.55885 0.0
H1508 H 0.59496 0.4695 0.53226 0.0
H1509 H 0.61326 0.44765 0.52309 0.0
H1510 H 0.64336 0.48481 0.49506 0.0
H1511 H 0.62487 0.50672 0.50376 0.0
H1512 H 0.62307 0.43887 0.48728 0.0
H1513 H 0.67735 0.46215 0.53123 0.0
H1514 H 0.65538 0.4672 0.53416 0.0
H1515 H 0.66727 0.4773 0.51753 0.0
C1516 C 0.60523 0.473 0.52385 0.0
C1517 C 0.60851 0.48992 0.51886 0.0
C1518 C 0.61573 0.46051 0.5187 0.0
C1519 C 0.62973 0.46469 0.50857 0.0
C1520 C 0.63271 0.4814 0.50305 0.0
H1521 H 0.71478 0.40107 0.48934 0.0
H1522 H 0.69622 0.42495 0.48853 0.0
C1523 C 0.62218 0.4939 0.50812 0.0
C1524 C 0.64166 0.45168 0.50448 0.0
H1525 H 0.68146 0.43805 0.51527 0.0
C1526 C 0.63589 0.43871 0.49327 0.0
C1527 C 0.6584 0.45166 0.51223 0.0
C1528 C 0.66505 0.46524 0.52454 0.0
C1529 C 0.64639 0.42552 0.48978 0.0
C1530 C 0.66289 0.42509 0.49809 0.0
C1531 C 0.66883 0.43838 0.5089 0.0
C1532 C 0.67368 0.41041 0.49686 0.0
C1533 C 0.63971 0.4122 0.4772 0.0
C1534 C 0.66717 0.39432 0.50178 0.0
C1535 C 0.67768 0.38069 0.50217 0.0
C1536 C 0.69502 0.38289 0.49788 0.0
C1537 C 0.70148 0.39896 0.49269 0.0
C1538 C 0.6909 0.41261 0.49223 0.0
H1539 H 0.63016 0.41726 0.46786 0.0
H1540 H 0.65032 0.40719 0.47019 0.0
H1541 H 0.63311 0.40161 0.48412 0.0
H1542 H 0.6541 0.39239 0.50586 0.0
H1543 H 0.6723 0.36853 0.50631 0.0
H1544 H 0.72793 0.29186 0.30944 0.0
H1545 H 0.72955 0.30649 0.33675 0.0
H1546 H 0.72559 0.25863 0.36304 0.0
H1547 H 0.72403 0.24391 0.33583 0.0
H1548 H 0.70465 0.28299 0.3758 0.0
H1549 H 0.77236 0.30817 0.36944 0.0
H1550 H 0.75754 0.31319 0.35223 0.0
H1551 H 0.76252 0.29165 0.356 0.0
C1552 C 0.7275 0.28445 0.32104 0.0
C1553 C 0.72598 0.26671 0.32047 0.0
C1554 C 0.72839 0.29283 0.33662 0.0
C1555 C 0.72791 0.28363 0.3519 0.0
C1556 C 0.72598 0.26596 0.35137 0.0
H1557 H 0.76322 0.3047 0.45333 0.0
H1558 H 0.75775 0.29606 0.42393 0.0
C1559 C 0.72504 0.25757 0.33582 0.0
C1560 C 0.72982 0.2923 0.36851 0.0
H1561 H 0.7586 0.31567 0.39404 0.0
C1562 C 0.71637 0.29026 0.37977 0.0
C1563 C 0.7452 0.30167 0.37364 0.0
C1564 C 0.76031 0.30374 0.36229 0.0
C1565 C 0.71802 0.29709 0.39619 0.0
C1566 C 0.73344 0.30636 0.40135 0.0
C1567 C 0.74674 0.30868 0.38996 0.0
C1568 C 0.73674 0.31229 0.41904 0.0
C1569 C 0.70355 0.29375 0.40813 0.0
C1570 C 0.72685 0.3245 0.42599 0.0
C1571 C 0.72993 0.32951 0.44293 0.0
C1572 C 0.74296 0.32239 0.45314 0.0
C1573 C 0.75302 0.31042 0.44593 0.0
C1574 C 0.74995 0.30546 0.42908 0.0
H1575 H 0.69387 0.28392 0.40321 0.0
H1576 H 0.70867 0.28967 0.42081 0.0
H1577 H 0.69692 0.30555 0.40984 0.0
H1578 H 0.71676 0.33011 0.41835 0.0
H1579 H 0.72199 0.33881 0.44805 0.0
H1580 H 0.53988 0.015 0.92852 0.0
H1581 H 0.55706 0.01514 0.90332 0.0
H1582 H 0.52264 0.97595 0.88108 0.0
H1583 H 0.50542 0.97556 0.90641 0.0
H1584 H 0.57329 0.98629 0.89145 0.0
H1585 H 0.52775 0.01206 0.84263 0.0
H1586 H 0.52532 0.01463 0.86515 0.0
H1587 H 0.51969 0.99463 0.85536 0.0
C1588 C 0.53593 0.0064 0.91828 0.0
C1589 C 0.52133 0.99519 0.91953 0.0
C1590 C 0.54571 0.00657 0.90386 0.0
C1591 C 0.54106 0.99564 0.89031 0.0
C1592 C 0.52629 0.98467 0.89129 0.0
H1593 H 0.59822 0.98536 0.79705 0.0
H1594 H 0.57646 0.98084 0.81858 0.0
C1595 C 0.51647 0.98448 0.90577 0.0
C1596 C 0.55234 0.99517 0.87569 0.0
H1597 H 0.55487 0.00507 0.83352 0.0
C1598 C 0.56923 0.99029 0.87876 0.0
C1599 C 0.54693 0.00022 0.85913 0.0
C1600 C 0.52898 0.0058 0.85527 0.0
C1601 C 0.58101 0.99071 0.8658 0.0
C1602 C 0.57585 0.99645 0.8494 0.0
C1603 C 0.55877 0.00072 0.84613 0.0
C1604 C 0.58847 0.9994 0.836 0.0
C1605 C 0.59896 0.98517 0.86981 0.0
C1606 C 0.60216 0.01154 0.83854 0.0
C1607 C 0.61452 0.01414 0.82637 0.0
C1608 C 0.61343 0.0047 0.8113 0.0
C1609 C 0.59946 0.99278 0.80855 0.0
C1610 C 0.58702 0.9902 0.82081 0.0
H1611 H 0.59937 0.97672 0.88113 0.0
H1612 H 0.60388 0.97849 0.85887 0.0
H1613 H 0.60775 0.99643 0.87259 0.0
H1614 H 0.60333 0.01899 0.85004 0.0
H1615 H 0.625 0.02352 0.82887 0.0
H1616 H 0.33059 0.24023 0.36127 0.0
H1617 H 0.32471 0.21907 0.38323 0.0
H1618 H 0.2701 0.22334 0.37388 0.0
H1619 H 0.27583 0.24372 0.35118 0.0
H1620 H 0.3098 0.22492 0.41159 0.0
H1621 H 0.27135 0.17329 0.3786 0.0
H1622 H 0.28326 0.18967 0.36723 0.0
H1623 H 0.2622 0.19319 0.3746 0.0
C1624 C 0.31731 0.23628 0.36345 0.0
C1625 C 0.30368 0.24375 0.35442 0.0
C1626 C 0.31397 0.22425 0.37613 0.0
C1627 C 0.29696 0.21943 0.38011 0.0
C1628 C 0.28333 0.22651 0.37081 0.0
H1629 H 0.24509 0.18406 0.4667 0.0
H1630 H 0.25406 0.19373 0.43875 0.0
C1631 C 0.28664 0.23841 0.358 0.0
C1632 C 0.29351 0.20858 0.39518 0.0
H1633 H 0.26869 0.17465 0.40907 0.0
C1634 C 0.30109 0.21373 0.41096 0.0
C1635 C 0.28212 0.19396 0.39439 0.0
C1636 C 0.27442 0.18711 0.37775 0.0
C1637 C 0.29699 0.20517 0.42603 0.0
C1638 C 0.28504 0.19105 0.4253 0.0
C1639 C 0.27784 0.18552 0.40953 0.0
C1640 C 0.27887 0.18289 0.44103 0.0
C1641 C 0.30486 0.21171 0.44275 0.0
C1642 C 0.2897 0.17316 0.4513 0.0
C1643 C 0.2846 0.16754 0.46731 0.0
C1644 C 0.26865 0.17172 0.47331 0.0
C1645 C 0.25752 0.18075 0.46255 0.0
C1646 C 0.26257 0.18623 0.44654 0.0
H1647 H 0.31251 0.22387 0.44127 0.0
H1648 H 0.29463 0.21349 0.45182 0.0
H1649 H 0.31349 0.20232 0.4484 0.0
H1650 H 0.30233 0.17044 0.44719 0.0
H1651 H 0.29348 0.1606 0.47526 0.0
H1652 H 0.48643 0.46944 0.92609 0.0
H1653 H 0.46535 0.47558 0.9032 0.0
H1654 H 0.497 0.51943 0.8889 0.0
H1655 H 0.5182 0.51332 0.91173 0.0
H1656 H 0.44617 0.50394 0.89277 0.0
H1657 H 0.49513 0.48874 0.84693 0.0
H1658 H 0.49764 0.48417 0.86935 0.0
H1659 H 0.50187 0.5053 0.86158 0.0
C1660 C 0.48871 0.48062 0.91834 0.0
C1661 C 0.50408 0.49079 0.92057 0.0
C1662 C 0.47666 0.48409 0.90525 0.0
C1663 C 0.47977 0.49778 0.89419 0.0
C1664 C 0.49452 0.50862 0.89712 0.0
H1665 H 0.41471 0.53 0.80775 0.0
H1666 H 0.42834 0.52805 0.83635 0.0
C1667 C 0.50662 0.50511 0.91014 0.0
C1668 C 0.46854 0.49968 0.87866 0.0
H1669 H 0.46873 0.49758 0.83543 0.0
C1670 C 0.45106 0.50262 0.88021 0.0
C1671 C 0.47494 0.49768 0.86232 0.0
C1672 C 0.49337 0.49365 0.85986 0.0
C1673 C 0.43981 0.50367 0.86577 0.0
C1674 C 0.4463 0.50185 0.84945 0.0
C1675 C 0.46378 0.49899 0.84797 0.0
C1676 C 0.43531 0.50228 0.83358 0.0
C1677 C 0.42103 0.50628 0.86807 0.0
C1678 C 0.43439 0.48836 0.82268 0.0
C1679 C 0.42682 0.4895 0.80635 0.0
C1680 C 0.41995 0.50459 0.80056 0.0
C1681 C 0.4198 0.51817 0.81188 0.0
C1682 C 0.42755 0.51706 0.82825 0.0
H1683 H 0.41736 0.5037 0.88136 0.0
H1684 H 0.41847 0.51957 0.86494 0.0
H1685 H 0.41271 0.49802 0.85939 0.0
H1686 H 0.44026 0.47682 0.82655 0.0
H1687 H 0.42701 0.47875 0.798 0.0
H1688 H 0.68684 0.7627 0.14659 0.0
H1689 H 0.69669 0.73962 0.13007 0.0
H1690 H 0.74937 0.75401 0.1456 0.0
H1691 H 0.7397 0.7777 0.16144 0.0
H1692 H 0.74594 0.74998 0.11229 0.0
H1693 H 0.714 0.69441 0.14315 0.0
H1694 H 0.69889 0.70963 0.13662 0.0
H1695 H 0.71549 0.71507 0.15267 0.0
C1696 C 0.70053 0.76098 0.14651 0.0
C1697 C 0.71247 0.77215 0.1553 0.0
C1698 C 0.70612 0.74757 0.13727 0.0
C1699 C 0.72375 0.74488 0.13682 0.0
C1700 C 0.73568 0.75575 0.14589 0.0
H1701 H 0.76463 0.66038 0.08336 0.0
H1702 H 0.756 0.67896 0.10577 0.0
C1703 C 0.73012 0.76924 0.15504 0.0
C1704 C 0.72981 0.73175 0.12562 0.0
H1705 H 0.72405 0.69006 0.11512 0.0
C1706 C 0.74131 0.73684 0.11307 0.0
C1707 C 0.72397 0.71455 0.12676 0.0
C1708 C 0.71255 0.70805 0.14065 0.0
C1709 C 0.74659 0.72538 0.10124 0.0
C1710 C 0.73987 0.70843 0.10168 0.0
C1711 C 0.72895 0.70313 0.11464 0.0
C1712 C 0.74371 0.69627 0.08842 0.0
C1713 C 0.75934 0.73157 0.08834 0.0
C1714 C 0.73911 0.69954 0.07134 0.0
C1715 C 0.74408 0.68907 0.05856 0.0
C1716 C 0.75356 0.67494 0.06261 0.0
C1717 C 0.75736 0.67117 0.07982 0.0
C1718 C 0.75245 0.68176 0.09263 0.0
H1719 H 0.76697 0.74311 0.09278 0.0
H1720 H 0.76836 0.72174 0.0856 0.0
H1721 H 0.75225 0.73478 0.07632 0.0
H1722 H 0.73203 0.71047 0.06784 0.0
H1723 H 0.7409 0.69239 0.04549 0.0
H1724 H 0.99179 0.03986 0.08891 0.0
H1725 H 0.97072 0.0364 0.11099 0.0
H1726 H 0.99971 0.99729 0.13467 0.0
H1727 H 0.02071 0.00042 0.11247 0.0
H1728 H 0.95044 0.00615 0.12392 0.0
H1729 H 0.99845 0.03582 0.17079 0.0
H1730 H 0.00078 0.03761 0.14813 0.0
H1731 H 0.00548 0.01839 0.15907 0.0
C1732 C 0.99349 0.03023 0.09857 0.0
C1733 C 0.00804 0.02051 0.09901 0.0
C1734 C 0.98147 0.02833 0.11121 0.0
C1735 C 0.98381 0.01675 0.12453 0.0
C1736 C 0.99782 0.00646 0.12458 0.0
H1737 H 0.93854 0.00311 0.2222 0.0
H1738 H 0.95467 0.00012 0.19673 0.0
C1739 C 0.00984 0.00831 0.11194 0.0
C1740 C 0.97234 0.0163 0.13901 0.0
H1741 H 0.97176 0.02588 0.18109 0.0
C1742 C 0.95504 0.01043 0.13644 0.0
C1743 C 0.97843 0.02196 0.15528 0.0
C1744 C 0.99676 0.02894 0.15856 0.0
C1745 C 0.94371 0.0098 0.14988 0.0
C1746 C 0.94982 0.01553 0.16615 0.0
C1747 C 0.96712 0.02142 0.16864 0.0
C1748 C 0.93859 0.01574 0.18087 0.0
C1749 C 0.92545 0.00271 0.1466 0.0
C1750 C 0.92402 0.02535 0.1804 0.0
C1751 C 0.9146 0.02693 0.19496 0.0
C1752 C 0.91973 0.01911 0.21031 0.0
C1753 C 0.93411 0.0092 0.21061 0.0
C1754 C 0.94341 0.00752 0.19605 0.0
H1755 H 0.92425 0.99456 0.13517 0.0
H1756 H 0.92085 0.99524 0.15767 0.0
H1757 H 0.9169 0.01326 0.14438 0.0
H1758 H 0.92028 0.03213 0.16896 0.0
H1759 H 0.90367 0.03476 0.19434 0.0
H1760 H 0.32416 0.75321 0.14012 0.0
H1761 H 0.31307 0.77307 0.11917 0.0
H1762 H 0.27851 0.79049 0.15553 0.0
H1763 H 0.28984 0.77088 0.17683 0.0
H1764 H 0.26255 0.78014 0.124 0.0
H1765 H 0.31887 0.82496 0.11483 0.0
H1766 H 0.32379 0.8032 0.11385 0.0
H1767 H 0.31699 0.81156 0.13342 0.0
C1768 C 0.31455 0.76158 0.14388 0.0
C1769 C 0.30792 0.76044 0.1602 0.0
C1770 C 0.30821 0.77292 0.13185 0.0
C1771 C 0.29513 0.78338 0.13588 0.0
C1772 C 0.28869 0.78257 0.15223 0.0
H1773 H 0.24953 0.85393 0.06213 0.0
H1774 H 0.26175 0.84228 0.08873 0.0
C1775 C 0.29509 0.77127 0.16433 0.0
C1776 C 0.28714 0.79392 0.12247 0.0
H1777 H 0.29642 0.82442 0.09283 0.0
C1778 C 0.26986 0.79002 0.11737 0.0
C1779 C 0.2967 0.80685 0.11391 0.0
C1780 C 0.31508 0.81203 0.11936 0.0
C1781 C 0.26213 0.79813 0.10336 0.0
C1782 C 0.27197 0.81038 0.09426 0.0
C1783 C 0.28898 0.81491 0.09983 0.0
C1784 C 0.26511 0.81771 0.07823 0.0
C1785 C 0.24363 0.79326 0.09808 0.0
C1786 C 0.26322 0.80776 0.06359 0.0
C1787 C 0.25639 0.81435 0.04843 0.0
C1788 C 0.25126 0.83102 0.04767 0.0
C1789 C 0.25333 0.84103 0.06235 0.0
C1790 C 0.26032 0.83444 0.07752 0.0
H1791 H 0.23686 0.7861 0.10824 0.0
H1792 H 0.23656 0.80465 0.09477 0.0
H1793 H 0.24328 0.78521 0.08662 0.0
H1794 H 0.26695 0.79483 0.06394 0.0
H1795 H 0.25488 0.80628 0.0374 0.0
H1796 H 0.02512 0.47081 0.10635 0.0
H1797 H 0.04104 0.46975 0.13388 0.0
H1798 H 0.05362 0.52331 0.13067 0.0
H1799 H 0.03752 0.52448 0.10339 0.0
H1800 H 0.07428 0.47644 0.14006 0.0
H1801 H 0.03939 0.51947 0.17887 0.0
H1802 H 0.03069 0.5115 0.15867 0.0
H1803 H 0.04589 0.52956 0.15954 0.0
C1804 C 0.03112 0.48238 0.11164 0.0
C1805 C 0.03 0.49774 0.10275 0.0
C1806 C 0.04016 0.48177 0.12738 0.0
C1807 C 0.04829 0.4965 0.13452 0.0
C1808 C 0.04703 0.51187 0.12573 0.0
H1809 H 0.14038 0.50732 0.19685 0.0
H1810 H 0.11756 0.50445 0.17473 0.0
C1811 C 0.03787 0.51251 0.11008 0.0
C1812 C 0.05937 0.49561 0.15035 0.0
H1813 H 0.06857 0.51459 0.18872 0.0
C1814 C 0.07284 0.48461 0.1508 0.0
C1815 C 0.05738 0.50602 0.16454 0.0
C1816 C 0.04243 0.51715 0.16547 0.0
C1817 C 0.08485 0.48435 0.16462 0.0
C1818 C 0.08364 0.49572 0.17819 0.0
C1819 C 0.06966 0.50608 0.17819 0.0
C1820 C 0.09731 0.49769 0.19192 0.0
C1821 C 0.09878 0.47195 0.16448 0.0
C1822 C 0.09343 0.49549 0.20907 0.0
C1823 C 0.1065 0.49732 0.22189 0.0
C1824 C 0.12367 0.50143 0.21775 0.0
C1825 C 0.12737 0.50394 0.20055 0.0
C1826 C 0.11433 0.5022 0.18782 0.0
H1827 H 0.09466 0.46077 0.15659 0.0
H1828 H 0.11041 0.47813 0.1589 0.0
H1829 H 0.10235 0.46757 0.17753 0.0
H1830 H 0.08033 0.49216 0.21253 0.0
H1831 H 0.10318 0.49536 0.235 0.0
H1832 H 0.37622 0.69586 0.27731 0.0
H1833 H 0.39678 0.70322 0.30087 0.0
H1834 H 0.40387 0.75378 0.28088 0.0
H1835 H 0.38339 0.7465 0.25718 0.0
H1836 H 0.43134 0.71462 0.29897 0.0
H1837 H 0.39361 0.76131 0.33086 0.0
H1838 H 0.38406 0.7468 0.31509 0.0
H1839 H 0.39659 0.76534 0.30866 0.0
C1840 C 0.38218 0.70854 0.27789 0.0
C1841 C 0.37816 0.7206 0.26537 0.0
C1842 C 0.39387 0.71273 0.2914 0.0
C1843 C 0.4017 0.72908 0.29271 0.0
C1844 C 0.39771 0.74118 0.28028 0.0
H1845 H 0.49345 0.75703 0.35668 0.0
H1846 H 0.47281 0.75201 0.33263 0.0
C1847 C 0.386 0.737 0.26676 0.0
C1848 C 0.41443 0.73325 0.30684 0.0
H1849 H 0.42228 0.75849 0.34153 0.0
C1850 C 0.42938 0.72421 0.30828 0.0
C1851 C 0.41174 0.74567 0.31902 0.0
C1852 C 0.39557 0.75526 0.31849 0.0
C1853 C 0.44177 0.7273 0.32158 0.0
C1854 C 0.43923 0.73994 0.33359 0.0
C1855 C 0.42425 0.74893 0.33219 0.0
C1856 C 0.45166 0.74354 0.3481 0.0
C1857 C 0.45726 0.71674 0.3229 0.0
C1858 C 0.44647 0.74086 0.36478 0.0
C1859 C 0.45818 0.74378 0.37856 0.0
C1860 C 0.47534 0.74953 0.37594 0.0
C1861 C 0.4804 0.75251 0.35918 0.0
C1862 C 0.46864 0.74958 0.3454 0.0
H1863 H 0.45529 0.70513 0.31511 0.0
H1864 H 0.46863 0.72422 0.31825 0.0
H1865 H 0.4602 0.71305 0.3363 0.0
H1866 H 0.43339 0.73625 0.36713 0.0
H1867 H 0.45379 0.74139 0.39126 0.0
H1868 H 0.9738 0.4277 0.9982 0.0
H1869 H 0.97515 0.40076 0.98367 0.0
H1870 H 0.02427 0.41752 0.96425 0.0
H1871 H 0.02348 0.44408 0.97939 0.0
H1872 H 0.9773 0.39344 0.94979 0.0
H1873 H 0.03504 0.37304 0.98652 0.0
H1874 H 0.02329 0.39066 0.99282 0.0
H1875 H 0.03841 0.39316 0.97624 0.0
C1876 C 0.985 0.42559 0.99102 0.0
C1877 C 0.99859 0.43806 0.99009 0.0
C1878 C 0.98568 0.41023 0.9826 0.0
C1879 C 0.99994 0.40702 0.97311 0.0
C1880 C 0.0133 0.41958 0.97179 0.0
H1881 H 0.02768 0.31918 0.91724 0.0
H1882 H 0.02533 0.34801 0.92725 0.0
C1883 C 0.0127 0.43488 0.98028 0.0
C1884 C 0.00088 0.39052 0.96465 0.0
H1885 H 0.02515 0.35622 0.96294 0.0
C1886 C 0.98774 0.38529 0.95268 0.0
C1887 C 0.01451 0.37989 0.96845 0.0
C1888 C 0.02853 0.38436 0.98182 0.0
C1889 C 0.98796 0.36976 0.94432 0.0
C1890 C 0.00159 0.35919 0.94813 0.0
C1891 C 0.01479 0.36446 0.95996 0.0
C1892 C 0.00203 0.34219 0.94065 0.0
C1893 C 0.97369 0.36483 0.93138 0.0
C1894 C 0.98964 0.32944 0.9448 0.0
C1895 C 0.99098 0.31296 0.9392 0.0
C1896 C 0.00477 0.3089 0.92933 0.0
C1897 C 0.01688 0.32186 0.92476 0.0
C1898 C 0.01558 0.33833 0.93049 0.0
H1899 H 0.96658 0.37587 0.92694 0.0
H1900 H 0.97889 0.35876 0.92021 0.0
H1901 H 0.9644 0.35559 0.93722 0.0
H1902 H 0.97924 0.33212 0.95285 0.0
H1903 H 0.98141 0.30333 0.94295 0.0
H1904 H 0.66404 0.8016 0.26435 0.0
H1905 H 0.64597 0.7948 0.28845 0.0
H1906 H 0.60723 0.82641 0.26714 0.0
H1907 H 0.62508 0.83306 0.24286 0.0
H1908 H 0.63262 0.81873 0.31165 0.0
H1909 H 0.58106 0.77997 0.27625 0.0
H1910 H 0.60217 0.78447 0.26807 0.0
H1911 H 0.58677 0.80041 0.2674 0.0
C1912 C 0.65161 0.80698 0.26472 0.0
C1913 C 0.64596 0.81783 0.25169 0.0
C1914 C 0.64136 0.80316 0.27852 0.0
C1915 C 0.62522 0.80998 0.27945 0.0
C1916 C 0.61957 0.82088 0.26653 0.0
H1917 H 0.54557 0.79325 0.35371 0.0
H1918 H 0.56201 0.80359 0.32949 0.0
C1919 C 0.62984 0.82477 0.25277 0.0
C1920 C 0.61444 0.80584 0.29409 0.0
H1921 H 0.57701 0.78484 0.30526 0.0
C1922 C 0.62045 0.81134 0.31028 0.0
C1923 C 0.59853 0.79633 0.29218 0.0
C1924 C 0.59173 0.78981 0.27508 0.0
C1925 C 0.61094 0.80753 0.32469 0.0
C1926 C 0.59522 0.79765 0.32287 0.0
C1927 C 0.58906 0.79242 0.30661 0.0
C1928 C 0.58539 0.7919 0.33776 0.0
C1929 C 0.61776 0.81427 0.34171 0.0
C1930 C 0.59303 0.78178 0.35031 0.0
C1931 C 0.58373 0.77592 0.36413 0.0
C1932 C 0.56651 0.77992 0.36561 0.0
C1933 C 0.55882 0.79 0.35297 0.0
C1934 C 0.56818 0.7959 0.33913 0.0
H1935 H 0.62676 0.82555 0.34025 0.0
H1936 H 0.60711 0.81769 0.34968 0.0
H1937 H 0.62495 0.80442 0.34853 0.0
H1938 H 0.60615 0.77821 0.3493 0.0
H1939 H 0.59002 0.76809 0.37356 0.0
H1940 H 0.01984 0.10563 0.02057 0.0
H1941 H 0.01259 0.12963 0.00252 0.0
H1942 H 0.04601 0.11333 0.96453 0.0
H1943 H 0.0535 0.08939 0.98257 0.0
H1944 H 0.03763 0.15424 0.99253 0.0
H1945 H 0.00221 0.12493 0.93645 0.0
H1946 H 0.00498 0.11395 0.9565 0.0
H1947 H 0.02235 0.11601 0.94221 0.0
C1948 C 0.02554 0.10707 0.00831 0.0
C1949 C 0.03734 0.09566 0.00305 0.0
C1950 C 0.0213 0.12072 0.99798 0.0
C1951 C 0.02863 0.12316 0.98214 0.0
C1952 C 0.03993 0.11148 0.97656 0.0
H1953 H 0.03883 0.20418 0.90926 0.0
H1954 H 0.03784 0.1771 0.92433 0.0
C1955 C 0.04421 0.09781 0.9869 0.0
C1956 C 0.02591 0.13883 0.97231 0.0
H1957 H 0.01135 0.15402 0.93393 0.0
C1958 C 0.0317 0.15423 0.97979 0.0
C1959 C 0.01833 0.13871 0.95565 0.0
C1960 C 0.01146 0.12254 0.94724 0.0
C1961 C 0.03055 0.16951 0.9709 0.0
C1962 C 0.023 0.16943 0.9542 0.0
C1963 C 0.01705 0.15404 0.94675 0.0
C1964 C 0.02186 0.1852 0.94411 0.0
C1965 C 0.03802 0.18554 0.97925 0.0
C1966 C 0.01272 0.19854 0.94992 0.0
C1967 C 0.01339 0.21408 0.94144 0.0
C1968 C 0.02302 0.21647 0.92684 0.0
C1969 C 0.03135 0.20277 0.92051 0.0
C1970 C 0.03077 0.18727 0.92908 0.0
H1971 H 0.04707 0.1829 0.99015 0.0
H1972 H 0.04498 0.19377 0.97002 0.0
H1973 H 0.02742 0.19257 0.98414 0.0
H1974 H 0.00547 0.19707 0.96131 0.0
H1975 H 0.00677 0.22432 0.94662 0.0
H1976 H 0.36275 0.26334 0.25373 0.0
H1977 H 0.38116 0.25697 0.23054 0.0
H1978 H 0.38546 0.30967 0.21672 0.0
H1979 H 0.36698 0.31615 0.2398 0.0
H1980 H 0.37648 0.26274 0.19577 0.0
H1981 H 0.43587 0.29734 0.22185 0.0
H1982 H 0.41743 0.29227 0.23446 0.0
H1983 H 0.41739 0.30982 0.21989 0.0
C1984 C 0.36748 0.27356 0.24566 0.0
C1985 C 0.36346 0.29027 0.24867 0.0
C1986 C 0.37808 0.26991 0.23249 0.0
C1987 C 0.38492 0.28288 0.22212 0.0
C1988 C 0.38066 0.29952 0.22484 0.0
H1989 H 0.42848 0.27164 0.12383 0.0
H1990 H 0.4114 0.27906 0.14761 0.0
C1991 C 0.37007 0.3032 0.23802 0.0
C1992 C 0.39626 0.27894 0.20825 0.0
H1993 H 0.43662 0.2871 0.19363 0.0
C1994 C 0.38964 0.26803 0.19532 0.0
C1995 C 0.4135 0.28568 0.20782 0.0
C1996 C 0.42157 0.29681 0.22182 0.0
C1997 C 0.3997 0.2639 0.18178 0.0
C1998 C 0.41674 0.2711 0.18105 0.0
C1999 C 0.42348 0.28176 0.19415 0.0
C2000 C 0.42777 0.26758 0.1668 0.0
C2001 C 0.39207 0.25169 0.16851 0.0
C2002 C 0.44301 0.25924 0.16979 0.0
C2003 C 0.4529 0.25505 0.15622 0.0
C2004 C 0.44772 0.25921 0.13943 0.0
C2005 C 0.43278 0.26813 0.13658 0.0
C2006 C 0.42293 0.2723 0.15014 0.0
H2007 H 0.38071 0.24414 0.17313 0.0
H2008 H 0.3878 0.25885 0.15707 0.0
H2009 H 0.40176 0.24294 0.16467 0.0
H2010 H 0.44703 0.25559 0.18259 0.0
H2011 H 0.46437 0.24823 0.15886 0.0
H2012 H 0.56039 0.40536 0.0269 0.0
H2013 H 0.55219 0.38009 0.04336 0.0
H2014 H 0.49907 0.38412 0.02661 0.0
H2015 H 0.50716 0.40941 0.01007 0.0
H2016 H 0.52825 0.37224 0.06909 0.0
H2017 H 0.51125 0.33799 0.00879 0.0
H2018 H 0.52301 0.35828 0.00932 0.0
H2019 H 0.50009 0.35684 0.01158 0.0
C2020 C 0.5469 0.40109 0.02701 0.0
C2021 C 0.53444 0.40927 0.01702 0.0
C2022 C 0.54225 0.38662 0.03639 0.0
C2023 C 0.52508 0.38009 0.03596 0.0
C2024 C 0.51245 0.38879 0.02685 0.0
H2025 H 0.48657 0.29089 0.09311 0.0
H2026 H 0.49174 0.32006 0.08321 0.0
C2027 C 0.51709 0.40321 0.0174 0.0
C2028 C 0.52068 0.36348 0.04391 0.0
H2029 H 0.50692 0.32293 0.03426 0.0
C2030 C 0.52349 0.36146 0.06153 0.0
C2031 C 0.51468 0.34941 0.03394 0.0
C2032 C 0.5122 0.35062 0.01484 0.0
C2033 C 0.52051 0.34566 0.06945 0.0
C2034 C 0.51444 0.33164 0.05947 0.0
C2035 C 0.51149 0.33374 0.04189 0.0
C2036 C 0.51204 0.31438 0.06666 0.0
C2037 C 0.52441 0.34396 0.08831 0.0
C2038 C 0.52169 0.30155 0.06062 0.0
C2039 C 0.5187 0.28493 0.06611 0.0
C2040 C 0.50593 0.28073 0.07777 0.0
C2041 C 0.49654 0.29369 0.08417 0.0
C2042 C 0.49953 0.31038 0.07859 0.0
H2043 H 0.53222 0.35507 0.09351 0.0
H2044 H 0.51213 0.34281 0.09496 0.0
H2045 H 0.53142 0.33243 0.09116 0.0
H2046 H 0.53141 0.30437 0.05141 0.0
H2047 H 0.52626 0.27534 0.06097 0.0
H2048 H 0.64625 0.19692 0.22553 0.0
H2049 H 0.61898 0.19561 0.20853 0.0
H2050 H 0.63047 0.24629 0.19034 0.0
H2051 H 0.6574 0.24778 0.20757 0.0
H2052 H 0.5975 0.24193 0.19846 0.0
H2053 H 0.61408 0.18897 0.15794 0.0
H2054 H 0.6144 0.18411 0.18024 0.0
H2055 H 0.62969 0.19979 0.17225 0.0
C2056 C 0.64291 0.20774 0.21787 0.0
C2057 C 0.65393 0.22245 0.21786 0.0
C2058 C 0.62738 0.20697 0.20812 0.0
C2059 C 0.6228 0.22076 0.19793 0.0
C2060 C 0.63371 0.2355 0.1981 0.0
H2061 H 0.55619 0.22464 0.10891 0.0
H2062 H 0.57944 0.22302 0.13053 0.0
C2063 C 0.64909 0.23635 0.20797 0.0
C2064 C 0.60676 0.21997 0.18691 0.0
H2065 H 0.58636 0.19905 0.15331 0.0
C2066 C 0.59501 0.23251 0.18863 0.0
C2067 C 0.60362 0.20776 0.17398 0.0
C2068 C 0.61617 0.19448 0.17083 0.0
C2069 C 0.58042 0.23344 0.17756 0.0
C2070 C 0.57722 0.22116 0.1647 0.0
C2071 C 0.58877 0.20839 0.16324 0.0
C2072 C 0.56276 0.22203 0.1518 0.0
C2073 C 0.56903 0.24798 0.17929 0.0
C2074 C 0.54556 0.22189 0.15653 0.0
C2075 C 0.53216 0.22304 0.14415 0.0
C2076 C 0.53572 0.22403 0.1268 0.0
C2077 C 0.55294 0.22385 0.12214 0.0
C2078 C 0.56629 0.2229 0.13449 0.0
H2079 H 0.57562 0.25845 0.18683 0.0
H2080 H 0.56496 0.25302 0.16663 0.0
H2081 H 0.55731 0.24355 0.18593 0.0
H2082 H 0.54247 0.22081 0.16978 0.0
H2083 H 0.51903 0.22298 0.14817 0.0
H2084 H 0.46676 0.07058 7e-05 0.0
H2085 H 0.46738 0.09803 0.01401 0.0
H2086 H 0.49888 0.07906 0.05553 0.0
H2087 H 0.49883 0.05177 0.04143 0.0
H2088 H 0.45587 0.1056 0.04579 0.0
H2089 H 0.52586 0.12259 0.04206 0.0
H2090 H 0.51499 0.10572 0.02977 0.0
H2091 H 0.52094 0.10245 0.05183 0.0
C2092 C 0.47402 0.07231 0.01205 0.0
C2093 C 0.48281 0.05899 0.01959 0.0
C2094 C 0.47426 0.08797 0.02006 0.0
C2095 C 0.48337 0.09064 0.03569 0.0
C2096 C 0.49203 0.07735 0.04333 0.0
H2097 H 0.47064 0.17341 0.10517 0.0
H2098 H 0.47163 0.14565 0.0921 0.0
C2099 C 0.49181 0.0617 0.03534 0.0
C2100 C 0.48346 0.10723 0.04417 0.0
H2101 H 0.50999 0.14031 0.05877 0.0
C2102 C 0.46769 0.11321 0.04862 0.0
C2103 C 0.49889 0.11719 0.04767 0.0
C2104 C 0.51613 0.11177 0.04246 0.0
C2105 C 0.46694 0.12885 0.05663 0.0
C2106 C 0.48241 0.13861 0.06054 0.0
C2107 C 0.49817 0.1327 0.05593 0.0
C2108 C 0.48245 0.15527 0.06885 0.0
C2109 C 0.44956 0.13494 0.06051 0.0
C2110 C 0.48871 0.16981 0.06033 0.0
C2111 C 0.48828 0.18566 0.06779 0.0
C2112 C 0.48165 0.18725 0.08398 0.0
C2113 C 0.47575 0.17262 0.09266 0.0
C2114 C 0.47621 0.15676 0.08517 0.0
H2115 H 0.43894 0.12803 0.05307 0.0
H2116 H 0.44732 0.13287 0.07421 0.0
H2117 H 0.449 0.14864 0.05775 0.0
H2118 H 0.49363 0.16894 0.04774 0.0
H2119 H 0.49284 0.19666 0.06072 0.0
H2120 H 0.26097 0.3848 0.68547 0.0
H2121 H 0.28536 0.40473 0.6927 0.0
H2122 H 0.26862 0.40749 0.744 0.0
H2123 H 0.24423 0.38748 0.73689 0.0
H2124 H 0.28545 0.43728 0.70401 0.0
H2125 H 0.31897 0.39722 0.75152 0.0
H2126 H 0.30171 0.38895 0.7373 0.0
H2127 H 0.29697 0.40036 0.75597 0.0
C2128 C 0.26246 0.38967 0.69829 0.0
C2129 C 0.25071 0.38452 0.71063 0.0
C2130 C 0.27643 0.40102 0.7024 0.0
C2131 C 0.27894 0.40743 0.71894 0.0
C2132 C 0.26716 0.40242 0.73126 0.0
H2133 H 0.34852 0.49525 0.74505 0.0
H2134 H 0.32297 0.4761 0.74004 0.0
C2135 C 0.25322 0.39099 0.72718 0.0
C2136 C 0.29373 0.41958 0.72311 0.0
H2137 H 0.33016 0.42549 0.74873 0.0
C2138 C 0.29523 0.43472 0.7138 0.0
C2139 C 0.30656 0.41613 0.73577 0.0
C2140 C 0.30612 0.39973 0.74562 0.0
C2141 C 0.30922 0.4465 0.71677 0.0
C2142 C 0.32187 0.4432 0.72965 0.0
C2143 C 0.32036 0.42806 0.73898 0.0
C2144 C 0.33725 0.45485 0.73308 0.0
C2145 C 0.31058 0.46214 0.70575 0.0
C2146 C 0.35376 0.44914 0.73128 0.0
C2147 C 0.36837 0.45997 0.73429 0.0
C2148 C 0.3668 0.47678 0.73919 0.0
C2149 C 0.35022 0.48243 0.74118 0.0
C2150 C 0.33558 0.47153 0.73823 0.0
H2151 H 0.30232 0.46076 0.6939 0.0
H2152 H 0.30632 0.473 0.71288 0.0
H2153 H 0.3241 0.46511 0.70224 0.0
H2154 H 0.35534 0.43631 0.72737 0.0
H2155 H 0.38091 0.45515 0.73264 0.0
H2156 H 0.24876 0.65171 0.73328 0.0
H2157 H 0.26644 0.62728 0.73423 0.0
H2158 H 0.28965 0.64376 0.78249 0.0
H2159 H 0.27197 0.66823 0.78164 0.0
H2160 H 0.30175 0.62862 0.73496 0.0
H2161 H 0.27793 0.59387 0.79156 0.0
H2162 H 0.2663 0.61038 0.78119 0.0
H2163 H 0.28455 0.61561 0.7954 0.0
C2164 C 0.25756 0.65009 0.74414 0.0
C2165 C 0.25899 0.66193 0.75737 0.0
C2166 C 0.26759 0.63608 0.74471 0.0
C2167 C 0.27923 0.63357 0.75852 0.0
C2168 C 0.28048 0.64521 0.7719 0.0
H2169 H 0.36155 0.56492 0.77508 0.0
H2170 H 0.34067 0.58647 0.77816 0.0
C2171 C 0.27039 0.65921 0.77138 0.0
C2172 C 0.29091 0.6195 0.75823 0.0
H2173 H 0.30315 0.58427 0.77972 0.0
C2174 C 0.30197 0.61887 0.7447 0.0
C2175 C 0.29128 0.60687 0.77102 0.0
C2176 C 0.27928 0.60657 0.78555 0.0
C2177 C 0.31348 0.60605 0.74365 0.0
C2178 C 0.31377 0.59335 0.75635 0.0
C2179 C 0.30285 0.59402 0.76999 0.0
C2180 C 0.32534 0.57927 0.75549 0.0
C2181 C 0.32546 0.60637 0.72909 0.0
C2182 C 0.32328 0.56777 0.74204 0.0
C2183 C 0.33515 0.55548 0.74023 0.0
C2184 C 0.3493 0.55442 0.75189 0.0
C2185 C 0.35085 0.56544 0.76584 0.0
C2186 C 0.33893 0.57775 0.76763 0.0
H2187 H 0.32651 0.61895 0.72281 0.0
H2188 H 0.33856 0.60295 0.73353 0.0
H2189 H 0.32043 0.597 0.71944 0.0
H2190 H 0.3127 0.56856 0.7327 0.0
H2191 H 0.33347 0.54712 0.72943 0.0
H2192 H 0.89631 0.48214 0.48535 0.0
H2193 H 0.86907 0.46553 0.48908 0.0
H2194 H 0.89551 0.41962 0.48585 0.0
H2195 H 0.92274 0.43602 0.48242 0.0
H2196 H 0.85226 0.43894 0.46706 0.0
H2197 H 0.87076 0.41637 0.53187 0.0
H2198 H 0.88155 0.43448 0.52205 0.0
H2199 H 0.88649 0.41354 0.5163 0.0
C2200 C 0.89631 0.4685 0.48546 0.0
C2201 C 0.91169 0.46039 0.48362 0.0
C2202 C 0.88074 0.45906 0.48751 0.0
C2203 C 0.88036 0.44139 0.48794 0.0
C2204 C 0.8956 0.43326 0.48574 0.0
H2205 H 0.8134 0.35419 0.49892 0.0
H2206 H 0.83649 0.37589 0.49569 0.0
C2207 C 0.91111 0.44266 0.48362 0.0
C2208 C 0.86415 0.43127 0.49086 0.0
H2209 H 0.84618 0.40226 0.51806 0.0
C2210 C 0.85077 0.43106 0.47829 0.0
C2211 C 0.86228 0.42113 0.50558 0.0
C2212 C 0.87596 0.42145 0.51982 0.0
C2213 C 0.83589 0.42025 0.47966 0.0
C2214 C 0.83432 0.40964 0.49411 0.0
C2215 C 0.84745 0.41036 0.50696 0.0
C2216 C 0.81988 0.39674 0.49564 0.0
C2217 C 0.82235 0.4197 0.46531 0.0
C2218 C 0.8028 0.40127 0.49673 0.0
C2219 C 0.78944 0.38882 0.49856 0.0
C2220 C 0.79298 0.37165 0.49942 0.0
C2221 C 0.81014 0.36725 0.49832 0.0
C2222 C 0.8234 0.37965 0.49648 0.0
H2223 H 0.82701 0.42629 0.45373 0.0
H2224 H 0.81825 0.40645 0.462 0.0
H2225 H 0.81086 0.42595 0.46937 0.0
H2226 H 0.79984 0.41442 0.49639 0.0
H2227 H 0.7764 0.39267 0.49943 0.0
H2228 H 0.76298 0.85323 0.76674 0.0
H2229 H 0.74002 0.87253 0.76135 0.0
H2230 H 0.71788 0.85754 0.80878 0.0
H2231 H 0.7408 0.83812 0.81426 0.0
H2232 H 0.70326 0.8678 0.75959 0.0
H2233 H 0.72779 0.90887 0.81343 0.0
H2234 H 0.74028 0.89268 0.80511 0.0
H2235 H 0.72274 0.88707 0.81853 0.0
C2236 C 0.75306 0.85379 0.77589 0.0
C2237 C 0.75381 0.84424 0.79101 0.0
C2238 C 0.73998 0.86487 0.77281 0.0
C2239 C 0.72742 0.86664 0.78479 0.0
C2240 C 0.72765 0.85659 0.79953 0.0
H2241 H 0.65916 0.95065 0.78536 0.0
H2242 H 0.6699 0.92283 0.79198 0.0
C2243 C 0.74076 0.84552 0.80265 0.0
C2244 C 0.71474 0.87971 0.78216 0.0
H2245 H 0.70427 0.91788 0.79687 0.0
C2246 C 0.70332 0.87867 0.76783 0.0
C2247 C 0.71479 0.89383 0.793 0.0
C2248 C 0.72711 0.89584 0.80832 0.0
C2249 C 0.69227 0.8916 0.7638 0.0
C2250 C 0.69291 0.90608 0.7742 0.0
C2251 C 0.70376 0.90675 0.78894 0.0
C2252 C 0.68407 0.92148 0.76907 0.0
C2253 C 0.68019 0.88975 0.74831 0.0
C2254 C 0.68827 0.92982 0.7539 0.0
C2255 C 0.68221 0.94565 0.75011 0.0
C2256 C 0.6719 0.95359 0.76147 0.0
C2257 C 0.66703 0.94488 0.77631 0.0
C2258 C 0.67317 0.929 0.78013 0.0
H2259 H 0.67685 0.87625 0.74541 0.0
H2260 H 0.66813 0.89618 0.75002 0.0
H2261 H 0.68663 0.89547 0.73717 0.0
H2262 H 0.69696 0.92447 0.74535 0.0
H2263 H 0.68619 0.95195 0.73855 0.0
H2264 H 0.60286 0.52537 0.00972 0.0
H2265 H 0.62545 0.5476 0.01608 0.0
H2266 H 0.65678 0.52755 0.97825 0.0
H2267 H 0.63418 0.50559 0.97153 0.0
H2268 H 0.6614 0.54478 0.02647 0.0
H2269 H 0.65242 0.57768 0.96437 0.0
H2270 H 0.63661 0.56231 0.97224 0.0
H2271 H 0.65572 0.55554 0.96308 0.0
C2272 C 0.61453 0.52575 0.00271 0.0
C2273 C 0.61669 0.51375 0.99007 0.0
C2274 C 0.62746 0.53837 0.00644 0.0
C2275 C 0.64268 0.53929 0.99751 0.0
C2276 C 0.64504 0.52715 0.98515 0.0
H2277 H 0.73722 0.6021 0.01958 0.0
H2278 H 0.71608 0.57819 0.01528 0.0
C2279 C 0.63216 0.51452 0.98145 0.0
C2280 C 0.65597 0.55317 0.00083 0.0
H2281 H 0.67585 0.58775 0.9824 0.0
C2282 C 0.66459 0.55419 0.01687 0.0
C2283 C 0.65996 0.56548 0.98829 0.0
C2284 C 0.65062 0.56536 0.97106 0.0
C2285 C 0.67724 0.56718 0.02066 0.0
C2286 C 0.68142 0.57932 0.00802 0.0
C2287 C 0.67271 0.57834 0.99202 0.0
C2288 C 0.69426 0.59362 0.01127 0.0
C2289 C 0.68577 0.56802 0.03825 0.0
C2290 C 0.68903 0.61018 0.01024 0.0
C2291 C 0.70103 0.62384 0.01261 0.0
C2292 C 0.7186 0.62124 0.01598 0.0
C2293 C 0.72381 0.60458 0.01707 0.0
C2294 C 0.71174 0.59089 0.01471 0.0
H2295 H 0.67858 0.55996 0.04747 0.0
H2296 H 0.69898 0.56356 0.03779 0.0
H2297 H 0.68685 0.5812 0.04294 0.0
H2298 H 0.67561 0.61255 0.00754 0.0
H2299 H 0.6965 0.63645 0.01166 0.0
H2300 H 0.28158 0.64462 0.24516 0.0
H2301 H 0.25794 0.62423 0.2517 0.0
H2302 H 0.22586 0.64565 0.212 0.0
H2303 H 0.24957 0.66599 0.20525 0.0
H2304 H 0.2248 0.62767 0.26142 0.0
H2305 H 0.22476 0.59627 0.19861 0.0
H2306 H 0.24174 0.61134 0.20584 0.0
H2307 H 0.22144 0.61844 0.19772 0.0
C2308 C 0.26943 0.64512 0.23796 0.0
C2309 C 0.26747 0.65681 0.2246 0.0
C2310 C 0.25595 0.63344 0.24168 0.0
C2311 C 0.24025 0.63324 0.23215 0.0
C2312 C 0.23801 0.64533 0.21925 0.0
H2313 H 0.15354 0.56479 0.26404 0.0
H2314 H 0.16998 0.59062 0.25549 0.0
C2315 C 0.25154 0.65694 0.21543 0.0
C2316 C 0.22654 0.61997 0.23546 0.0
H2317 H 0.20443 0.58554 0.21776 0.0
C2318 C 0.22021 0.61853 0.25185 0.0
C2319 C 0.2207 0.608 0.22296 0.0
C2320 C 0.22758 0.60843 0.20533 0.0
C2321 C 0.20853 0.60518 0.25623 0.0
C2322 C 0.20279 0.59315 0.24376 0.0
C2323 C 0.20875 0.59487 0.22724 0.0
C2324 C 0.19211 0.57772 0.24801 0.0
C2325 C 0.2031 0.60362 0.27436 0.0
C2326 C 0.19886 0.56191 0.2461 0.0
C2327 C 0.18949 0.54722 0.25079 0.0
C2328 C 0.17312 0.54799 0.25748 0.0
C2329 C 0.16615 0.5638 0.25899 0.0
C2330 C 0.17555 0.57856 0.25421 0.0
H2331 H 0.21133 0.61194 0.28308 0.0
H2332 H 0.18961 0.60726 0.27499 0.0
H2333 H 0.20365 0.5904 0.27898 0.0
H2334 H 0.21161 0.56097 0.24134 0.0
H2335 H 0.19532 0.53529 0.24957 0.0
H2336 H 0.91572 0.51473 0.02539 0.0
H2337 H 0.88892 0.52949 0.02286 0.0
H2338 H 0.91834 0.57691 0.01777 0.0
H2339 H 0.94507 0.56239 0.02048 0.0
H2340 H 0.87813 0.55587 0.04328 0.0
H2341 H 0.88424 0.57642 0.97629 0.0
H2342 H 0.89662 0.55998 0.9858 0.0
H2343 H 0.90315 0.5818 0.9895 0.0
C2344 C 0.91648 0.52832 0.02381 0.0
C2345 C 0.93255 0.53736 0.02296 0.0
C2346 C 0.90116 0.5367 0.02229 0.0
C2347 C 0.90166 0.55424 0.01978 0.0
C2348 C 0.91766 0.56332 0.01925 0.0
H2349 H 0.83934 0.638 0.01508 0.0
H2350 H 0.86117 0.61729 0.01478 0.0
C2351 C 0.93293 0.55498 0.02079 0.0
C2352 C 0.88555 0.56329 0.01817 0.0
H2353 H 0.86416 0.59056 0.99235 0.0
C2354 C 0.87488 0.56326 0.03206 0.0
C2355 C 0.88134 0.57283 0.00348 0.0
C2356 C 0.89184 0.57266 0.98785 0.0
C2357 C 0.86062 0.5733 0.03201 0.0
C2358 C 0.85684 0.5834 0.01757 0.0
C2359 C 0.86712 0.58287 0.00343 0.0
C2360 C 0.84319 0.59565 0.01737 0.0
C2361 C 0.85024 0.57369 0.04771 0.0
C2362 C 0.82575 0.59033 0.01869 0.0
C2363 C 0.81316 0.6022 0.0189 0.0
C2364 C 0.81783 0.61956 0.01772 0.0
C2365 C 0.83528 0.62475 0.01606 0.0
C2366 C 0.8478 0.61292 0.01586 0.0
H2367 H 0.85679 0.56769 0.05883 0.0
H2368 H 0.84783 0.58687 0.05103 0.0
H2369 H 0.83758 0.56675 0.04521 0.0
H2370 H 0.82189 0.57703 0.01956 0.0
H2371 H 0.79983 0.59779 0.02012 0.0
H2372 H 0.1002 0.97087 0.04065 0.0
H2373 H 0.11926 0.94993 0.03111 0.0
H2374 H 0.13046 0.98049 0.98697 0.0
H2375 H 0.1109 0.00131 0.99613 0.0
H2376 H 0.12517 0.94588 0.97984 0.0
H2377 H 0.17191 0.95742 0.03433 0.0
H2378 H 0.15032 0.95235 0.04064 0.0
H2379 H 0.15509 0.97146 0.02887 0.0
C2380 C 0.10645 0.97304 0.02876 0.0
C2381 C 0.10408 0.98784 0.0192 0.0
C2382 C 0.11752 0.96114 0.02343 0.0
C2383 C 0.12654 0.96384 0.00853 0.0
C2384 C 0.12375 0.97826 0.99861 0.0
H2385 H 0.21428 0.90353 0.99122 0.0
H2386 H 0.19616 0.92759 0.99236 0.0
C2387 C 0.11265 0.99018 0.00391 0.0
C2388 C 0.13909 0.95171 0.00352 0.0
H2389 H 0.17526 0.93286 0.0179 0.0
C2390 C 0.13622 0.94313 0.98806 0.0
C2391 C 0.1537 0.94841 0.01409 0.0
C2392 C 0.15808 0.95801 0.03033 0.0
C2393 C 0.14718 0.93076 0.98325 0.0
C2394 C 0.16119 0.92673 0.99434 0.0
C2395 C 0.16445 0.93585 0.00945 0.0
C2396 C 0.17204 0.91247 0.99116 0.0
C2397 C 0.14363 0.92212 0.96637 0.0
C2398 C 0.16451 0.896 0.98985 0.0
C2399 C 0.17481 0.88225 0.98913 0.0
C2400 C 0.19288 0.88467 0.98992 0.0
C2401 C 0.20041 0.90123 0.99058 0.0
C2402 C 0.19007 0.91499 0.99126 0.0
H2403 H 0.13648 0.93019 0.95725 0.0
H2404 H 0.15576 0.91883 0.96066 0.0
H2405 H 0.13554 0.91031 0.96829 0.0
H2406 H 0.15067 0.89368 0.99014 0.0
H2407 H 0.16858 0.86968 0.98866 0.0
loop_
_geom_bond_atom_site_label_1
_geom_bond_atom_site_label_2
_geom_bond_distance
_geom_bond_site_symmetry_2
_ccdc_geom_bond_type
P0 O11 1.490 . S
P0 C14 1.812 . S
P0 C20 1.803 . S
P0 C26 1.819 . S
H1 C15 0.941 . S
H2 C16 0.939 . S
H3 C18 0.940 1_655 S
H4 C19 0.940 . S
H5 C21 0.939 . S
H6 C22 0.942 . S
H7 C24 0.940 1_565 S
H8 C25 0.939 . S
H9 C27 0.941 . S
H10 C31 0.939 . S
O11 P0 1.490 . S
H12 C28 0.939 . S
H13 C30 0.935 . S
C14 P0 1.812 . S
C14 C15 1.389 . S
C14 C19 1.391 . S
C15 H1 0.941 . S
C15 C14 1.389 . S
C15 C16 1.397 . S
C16 H2 0.939 . S
C16 C15 1.397 . S
C16 C17 1.378 . S
C17 C16 1.378 . S
C17 C18 1.378 . S
C18 H3 0.940 1_455 S
C18 C17 1.378 . S
C18 C19 1.396 . S
C19 H4 0.940 . S
C19 C14 1.391 . S
C19 C18 1.396 . S
C20 P0 1.803 . S
C20 C21 1.378 . S
C20 C25 1.400 . S
C21 H5 0.939 . S
C21 C20 1.378 . S
C21 C22 1.361 . S
C22 H6 0.942 . S
C22 C21 1.361 . S
C22 C23 1.369 . S
C23 C22 1.369 . S
C23 C24 1.404 . S
C24 H7 0.940 1_545 S
C24 C23 1.404 . S
C24 C25 1.389 . S
C25 H8 0.939 . S
C25 C20 1.400 . S
C25 C24 1.389 . S
C26 P0 1.819 . S
C26 C27 1.391 . S
C26 C31 1.391 . S
C27 H9 0.941 . S
C27 C26 1.391 . S
C27 C28 1.396 . S
C28 H12 0.939 . S
C28 C27 1.396 . S
C28 C29 1.397 . S
C29 C28 1.397 . S
C29 C30 1.386 1_554 S
C30 H13 0.935 . S
C30 C29 1.386 1_556 S
C30 C31 1.392 1_556 S
C31 H10 0.939 . S
C31 C26 1.391 . S
C31 C30 1.392 1_554 S
P32 O43 1.490 . S
P32 C46 1.812 . S
P32 C52 1.803 . S
P32 C58 1.819 . S
H33 C47 0.941 . S
H34 C48 0.939 . S
H35 C50 0.940 . S
H36 C51 0.940 . S
H37 C53 0.939 . S
H38 C54 0.942 . S
H39 C56 0.940 . S
H40 C57 0.939 . S
H41 C59 0.941 . S
H42 C63 0.939 . S
O43 P32 1.490 . S
H44 C60 0.939 . S
H45 C62 0.940 . S
C46 P32 1.812 . S
C46 C47 1.389 . S
C46 C51 1.391 . S
C47 H33 0.941 . S
C47 C46 1.389 . S
C47 C48 1.397 . S
C48 H34 0.939 . S
C48 C47 1.397 . S
C48 C49 1.378 . S
C49 C48 1.378 . S
C49 C50 1.378 . S
C50 H35 0.940 . S
C50 C49 1.378 . S
C50 C51 1.396 . S
C51 H36 0.940 . S
C51 C46 1.391 . S
C51 C50 1.396 . S
C52 P32 1.803 . S
C52 C53 1.378 . S
C52 C57 1.400 . S
C53 H37 0.939 . S
C53 C52 1.378 . S
C53 C54 1.361 . S
C54 H38 0.942 . S
C54 C53 1.361 . S
C54 C55 1.369 . S
C55 C54 1.369 . S
C55 C56 1.404 . S
C56 H39 0.940 . S
C56 C55 1.404 . S
C56 C57 1.389 . S
C57 H40 0.939 . S
C57 C52 1.400 . S
C57 C56 1.389 . S
C58 P32 1.819 . S
C58 C59 1.391 . S
C58 C63 1.391 . S
C59 H41 0.941 . S
C59 C58 1.391 . S
C59 C60 1.396 . S
C60 H44 0.939 . S
C60 C59 1.396 . S
C60 C61 1.397 . S
C61 C60 1.397 . S
C61 C62 1.385 . S
C62 H45 0.940 . S
C62 C61 1.385 . S
C62 C63 1.388 . S
C63 H42 0.939 . S
C63 C58 1.391 . S
C63 C62 1.388 . S
P64 O75 1.490 1_655 S
P64 C78 1.812 . S
P64 C84 1.803 . S
P64 C90 1.819 1_655 S
H65 C79 0.928 1_556 S
H66 C80 0.938 1_556 S
H67 C82 0.940 . S
H68 C83 0.940 . S
H69 C85 0.939 . S
H70 C86 0.942 . S
H71 C88 0.940 . S
H72 C89 0.939 . S
H73 C91 0.941 . S
H74 C95 0.939 . S
O75 P64 1.490 1_455 S
H76 C92 0.939 . S
H77 C94 0.940 . S
C78 P64 1.812 . S
C78 C79 1.389 . S
C78 C83 1.391 . S
C79 H65 0.928 1_554 S
C79 C78 1.389 . S
C79 C80 1.397 . S
C80 H66 0.938 1_554 S
C80 C79 1.397 . S
C80 C81 1.379 . S
C81 C80 1.379 . S
C81 C82 1.378 . S
C82 H67 0.940 . S
C82 C81 1.378 . S
C82 C83 1.396 . S
C83 H68 0.940 . S
C83 C78 1.391 . S
C83 C82 1.396 . S
C84 P64 1.803 . S
C84 C85 1.378 . S
C84 C89 1.400 . S
C85 H69 0.939 . S
C85 C84 1.378 . S
C85 C86 1.361 . S
C86 H70 0.942 . S
C86 C85 1.361 . S
C86 C87 1.369 . S
C87 C86 1.369 . S
C87 C88 1.404 . S
C88 H71 0.940 . S
C88 C87 1.404 . S
C88 C89 1.389 . S
C89 H72 0.939 . S
C89 C84 1.400 . S
C89 C88 1.389 . S
C90 P64 1.819 1_455 S
C90 C91 1.391 . S
C90 C95 1.391 1_455 S
C91 H73 0.941 . S
C91 C90 1.391 . S
C91 C92 1.396 . S
C92 H76 0.939 . S
C92 C91 1.396 . S
C92 C93 1.397 . S
C93 C92 1.397 . S
C93 C94 1.385 1_455 S
C94 H77 0.940 . S
C94 C93 1.385 1_655 S
C94 C95 1.388 . S
C95 H74 0.939 . S
C95 C90 1.391 1_655 S
C95 C94 1.388 . S
P96 O107 1.490 . S
P96 C110 1.812 . S
P96 C116 1.803 . S
P96 C122 1.819 . S
H97 C111 0.941 . S
H98 C112 0.939 . S
H99 C114 0.940 . S
H100 C115 0.940 . S
H101 C117 0.939 . S
H102 C118 0.942 . S
H103 C120 0.940 . S
H104 C121 0.939 . S
H105 C123 0.941 . S
H106 C127 0.939 . S
O107 P96 1.490 . S
H108 C124 0.939 . S
H109 C126 0.940 . S
C110 P96 1.812 . S
C110 C111 1.389 . S
C110 C115 1.391 . S
C111 H97 0.941 . S
C111 C110 1.389 . S
C111 C112 1.397 . S
C112 H98 0.939 . S
C112 C111 1.397 . S
C112 C113 1.378 . S
C113 C112 1.378 . S
C113 C114 1.378 . S
C114 H99 0.940 . S
C114 C113 1.378 . S
C114 C115 1.396 . S
C115 H100 0.940 . S
C115 C110 1.391 . S
C115 C114 1.396 . S
C116 P96 1.803 . S
C116 C117 1.378 . S
C116 C121 1.400 . S
C117 H101 0.939 . S
C117 C116 1.378 . S
C117 C118 1.361 . S
C118 H102 0.942 . S
C118 C117 1.361 . S
C118 C119 1.369 . S
C119 C118 1.369 . S
C119 C120 1.404 . S
C120 H103 0.940 . S
C120 C119 1.404 . S
C120 C121 1.389 . S
C121 H104 0.939 . S
C121 C116 1.400 . S
C121 C120 1.389 . S
C122 P96 1.819 . S
C122 C123 1.391 . S
C122 C127 1.391 . S
C123 H105 0.941 . S
C123 C122 1.391 . S
C123 C124 1.396 . S
C124 H108 0.939 . S
C124 C123 1.396 . S
C124 C125 1.397 . S
C125 C124 1.397 . S
C125 C126 1.385 . S
C126 H109 0.940 . S
C126 C125 1.385 . S
C126 C127 1.388 . S
C127 H106 0.939 . S
C127 C122 1.391 . S
C127 C126 1.388 . S
P128 O139 1.490 . S
P128 C142 1.812 . S
P128 C148 1.803 . S
P128 C154 1.819 . S
H129 C143 0.941 . S
H130 C144 0.939 . S
H131 C146 0.940 . S
H132 C147 0.940 . S
H133 C149 0.939 . S
H134 C150 0.942 . S
H135 C152 0.940 . S
H136 C153 0.939 . S
H137 C155 0.941 . S
H138 C159 0.939 . S
O139 P128 1.490 . S
H140 C156 0.939 . S
H141 C158 0.940 . S
C142 P128 1.812 . S
C142 C143 1.389 . S
C142 C147 1.391 . S
C143 H129 0.941 . S
C143 C142 1.389 . S
C143 C144 1.397 . S
C144 H130 0.939 . S
C144 C143 1.397 . S
C144 C145 1.378 1_565 S
C145 C144 1.378 1_545 S
C145 C146 1.378 . S
C146 H131 0.940 . S
C146 C145 1.378 . S
C146 C147 1.396 1_545 S
C147 H132 0.940 . S
C147 C142 1.391 . S
C147 C146 1.396 1_565 S
C148 P128 1.803 . S
C148 C149 1.378 . S
C148 C153 1.400 . S
C149 H133 0.939 . S
C149 C148 1.378 . S
C149 C150 1.361 . S
C150 H134 0.942 . S
C150 C149 1.361 . S
C150 C151 1.369 . S
C151 C150 1.369 . S
C151 C152 1.404 . S
C152 H135 0.940 . S
C152 C151 1.404 . S
C152 C153 1.389 . S
C153 H136 0.939 . S
C153 C148 1.400 . S
C153 C152 1.389 . S
C154 P128 1.819 . S
C154 C155 1.391 . S
C154 C159 1.391 . S
C155 H137 0.941 . S
C155 C154 1.391 . S
C155 C156 1.396 . S
C156 H140 0.939 . S
C156 C155 1.396 . S
C156 C157 1.397 . S
C157 C156 1.397 . S
C157 C158 1.385 . S
C158 H141 0.940 . S
C158 C157 1.385 . S
C158 C159 1.388 . S
C159 H138 0.939 . S
C159 C154 1.391 . S
C159 C158 1.388 . S
P160 O171 1.490 . S
P160 C174 1.812 . S
P160 C180 1.803 . S
P160 C186 1.819 . S
H161 C175 0.941 . S
H162 C176 0.939 . S
H163 C178 0.940 . S
H164 C179 0.940 . S
H165 C181 0.939 . S
H166 C182 0.942 . S
H167 C184 0.940 . S
H168 C185 0.939 . S
H169 C187 0.941 . S
H170 C191 0.939 . S
O171 P160 1.490 . S
H172 C188 0.939 . S
H173 C190 0.940 . S
C174 P160 1.812 . S
C174 C175 1.389 . S
C174 C179 1.391 . S
C175 H161 0.941 . S
C175 C174 1.389 . S
C175 C176 1.397 . S
C176 H162 0.939 . S
C176 C175 1.397 . S
C176 C177 1.378 . S
C177 C176 1.378 . S
C177 C178 1.378 . S
C178 H163 0.940 . S
C178 C177 1.378 . S
C178 C179 1.396 . S
C179 H164 0.940 . S
C179 C174 1.391 . S
C179 C178 1.396 . S
C180 P160 1.803 . S
C180 C181 1.378 . S
C180 C185 1.400 . S
C181 H165 0.939 . S
C181 C180 1.378 . S
C181 C182 1.361 . S
C182 H166 0.942 . S
C182 C181 1.361 . S
C182 C183 1.369 . S
C183 C182 1.369 . S
C183 C184 1.404 . S
C184 H167 0.940 . S
C184 C183 1.404 . S
C184 C185 1.389 . S
C185 H168 0.939 . S
C185 C180 1.400 . S
C185 C184 1.389 . S
C186 P160 1.819 . S
C186 C187 1.391 . S
C186 C191 1.391 . S
C187 H169 0.941 . S
C187 C186 1.391 . S
C187 C188 1.396 . S
C188 H172 0.939 . S
C188 C187 1.396 . S
C188 C189 1.397 . S
C189 C188 1.397 . S
C189 C190 1.385 . S
C190 H173 0.940 . S
C190 C189 1.385 . S
C190 C191 1.388 . S
C191 H170 0.939 . S
C191 C186 1.391 . S
C191 C190 1.388 . S
P192 O203 1.490 . S
P192 C206 1.812 . S
P192 C212 1.803 . S
P192 C218 1.819 . S
H193 C207 0.941 . S
H194 C208 0.939 . S
H195 C210 0.940 . S
H196 C211 0.940 . S
H197 C213 0.939 . S
H198 C214 0.942 . S
H199 C216 0.940 . S
H200 C217 0.939 . S
H201 C219 0.941 . S
H202 C223 0.939 . S
O203 P192 1.490 . S
H204 C220 0.939 . S
H205 C222 0.940 . S
C206 P192 1.812 . S
C206 C207 1.389 1_655 S
C206 C211 1.391 . S
C207 H193 0.941 . S
C207 C206 1.389 1_455 S
C207 C208 1.397 . S
C208 H194 0.939 . S
C208 C207 1.397 . S
C208 C209 1.378 . S
C209 C208 1.378 . S
C209 C210 1.378 1_455 S
C210 H195 0.940 . S
C210 C209 1.378 1_655 S
C210 C211 1.396 . S
C211 H196 0.940 . S
C211 C206 1.391 . S
C211 C210 1.396 . S
C212 P192 1.803 . S
C212 C213 1.378 . S
C212 C217 1.400 . S
C213 H197 0.939 . S
C213 C212 1.378 . S
C213 C214 1.361 . S
C214 H198 0.942 . S
C214 C213 1.361 . S
C214 C215 1.369 . S
C215 C214 1.369 . S
C215 C216 1.404 . S
C216 H199 0.940 . S
C216 C215 1.404 . S
C216 C217 1.389 . S
C217 H200 0.939 . S
C217 C212 1.400 . S
C217 C216 1.389 . S
C218 P192 1.819 . S
C218 C219 1.391 . S
C218 C223 1.391 . S
C219 H201 0.941 . S
C219 C218 1.391 . S
C219 C220 1.396 . S
C220 H204 0.939 . S
C220 C219 1.396 . S
C220 C221 1.397 . S
C221 C220 1.397 . S
C221 C222 1.385 . S
C222 H205 0.940 . S
C222 C221 1.385 . S
C222 C223 1.388 . S
C223 H202 0.939 . S
C223 C218 1.391 . S
C223 C222 1.388 . S
P224 O235 1.490 . S
P224 C238 1.812 . S
P224 C244 1.803 . S
P224 C250 1.819 . S
H225 C239 0.941 . S
H226 C240 0.939 . S
H227 C242 0.940 . S
H228 C243 0.940 . S
H229 C245 0.939 . S
H230 C246 0.942 . S
H231 C248 0.940 . S
H232 C249 0.939 . S
H233 C251 0.941 . S
H234 C255 0.939 . S
O235 P224 1.490 . S
H236 C252 0.939 . S
H237 C254 0.940 . S
C238 P224 1.812 . S
C238 C239 1.389 . S
C238 C243 1.391 . S
C239 H225 0.941 . S
C239 C238 1.389 . S
C239 C240 1.397 . S
C240 H226 0.939 . S
C240 C239 1.397 . S
C240 C241 1.378 . S
C241 C240 1.378 . S
C241 C242 1.378 . S
C242 H227 0.940 . S
C242 C241 1.378 . S
C242 C243 1.396 . S
C243 H228 0.940 . S
C243 C238 1.391 . S
C243 C242 1.396 . S
C244 P224 1.803 . S
C244 C245 1.378 . S
C244 C249 1.400 . S
C245 H229 0.939 . S
C245 C244 1.378 . S
C245 C246 1.361 . S
C246 H230 0.942 . S
C246 C245 1.361 . S
C246 C247 1.369 . S
C247 C246 1.369 . S
C247 C248 1.404 . S
C248 H231 0.940 . S
C248 C247 1.404 . S
C248 C249 1.389 . S
C249 H232 0.939 . S
C249 C244 1.400 . S
C249 C248 1.389 . S
C250 P224 1.819 . S
C250 C251 1.391 . S
C250 C255 1.391 . S
C251 H233 0.941 . S
C251 C250 1.391 . S
C251 C252 1.396 . S
C252 H236 0.939 . S
C252 C251 1.396 . S
C252 C253 1.397 . S
C253 C252 1.397 . S
C253 C254 1.385 . S
C254 H237 0.940 . S
C254 C253 1.385 . S
C254 C255 1.388 . S
C255 H234 0.939 . S
C255 C250 1.391 . S
C255 C254 1.388 . S
P256 O267 1.490 . S
P256 C270 1.812 . S
P256 C276 1.803 . S
P256 C282 1.819 . S
H257 C271 0.941 . S
H258 C272 0.939 . S
H259 C274 0.940 . S
H260 C275 0.940 . S
H261 C277 0.939 . S
H262 C278 0.942 . S
H263 C280 0.940 . S
H264 C281 0.939 . S
H265 C283 0.941 . S
H266 C287 0.939 . S
O267 P256 1.490 . S
H268 C284 0.939 . S
H269 C286 0.940 . S
C270 P256 1.812 . S
C270 C271 1.389 . S
C270 C275 1.391 . S
C271 H257 0.941 . S
C271 C270 1.389 . S
C271 C272 1.397 . S
C272 H258 0.939 . S
C272 C271 1.397 . S
C272 C273 1.378 . S
C273 C272 1.378 . S
C273 C274 1.378 . S
C274 H259 0.940 . S
C274 C273 1.378 . S
C274 C275 1.396 . S
C275 H260 0.940 . S
C275 C270 1.391 . S
C275 C274 1.396 . S
C276 P256 1.803 . S
C276 C277 1.378 . S
C276 C281 1.400 . S
C277 H261 0.939 . S
C277 C276 1.378 . S
C277 C278 1.361 . S
C278 H262 0.942 . S
C278 C277 1.361 . S
C278 C279 1.369 . S
C279 C278 1.369 . S
C279 C280 1.404 . S
C280 H263 0.940 . S
C280 C279 1.404 . S
C280 C281 1.389 . S
C281 H264 0.939 . S
C281 C276 1.400 . S
C281 C280 1.389 . S
C282 P256 1.819 . S
C282 C283 1.391 . S
C282 C287 1.391 . S
C283 H265 0.941 . S
C283 C282 1.391 . S
C283 C284 1.396 . S
C284 H268 0.939 . S
C284 C283 1.396 . S
C284 C285 1.397 . S
C285 C284 1.397 . S
C285 C286 1.385 . S
C286 H269 0.940 . S
C286 C285 1.385 . S
C286 C287 1.388 . S
C287 H266 0.939 . S
C287 C282 1.391 . S
C287 C286 1.388 . S
P288 O299 1.490 . S
P288 C302 1.812 . S
P288 C308 1.803 . S
P288 C314 1.819 . S
H289 C303 0.941 . S
H290 C304 0.939 . S
H291 C306 0.940 . S
H292 C307 0.940 . S
H293 C309 0.939 . S
H294 C310 0.942 . S
H295 C312 0.940 . S
H296 C313 0.939 . S
H297 C315 0.941 . S
H298 C319 0.939 . S
O299 P288 1.490 . S
H300 C316 0.939 . S
H301 C318 0.940 . S
C302 P288 1.812 . S
C302 C303 1.389 . S
C302 C307 1.391 . S
C303 H289 0.941 . S
C303 C302 1.389 . S
C303 C304 1.397 . S
C304 H290 0.939 . S
C304 C303 1.397 . S
C304 C305 1.378 . S
C305 C304 1.378 . S
C305 C306 1.378 . S
C306 H291 0.940 . S
C306 C305 1.378 . S
C306 C307 1.396 . S
C307 H292 0.940 . S
C307 C302 1.391 . S
C307 C306 1.396 . S
C308 P288 1.803 . S
C308 C309 1.378 1_565 S
C308 C313 1.400 . S
C309 H293 0.939 . S
C309 C308 1.378 1_545 S
C309 C310 1.361 . S
C310 H294 0.942 . S
C310 C309 1.361 . S
C310 C311 1.369 . S
C311 C310 1.369 . S
C311 C312 1.404 1_545 S
C312 H295 0.940 . S
C312 C311 1.404 1_565 S
C312 C313 1.389 . S
C313 H296 0.939 . S
C313 C308 1.400 . S
C313 C312 1.389 . S
C314 P288 1.819 . S
C314 C315 1.391 . S
C314 C319 1.391 . S
C315 H297 0.941 . S
C315 C314 1.391 . S
C315 C316 1.396 . S
C316 H300 0.939 . S
C316 C315 1.396 . S
C316 C317 1.397 . S
C317 C316 1.397 . S
C317 C318 1.385 . S
C318 H301 0.940 . S
C318 C317 1.385 . S
C318 C319 1.388 . S
C319 H298 0.939 . S
C319 C314 1.391 . S
C319 C318 1.388 . S
P320 O331 1.490 . S
P320 C334 1.812 . S
P320 C340 1.803 . S
P320 C346 1.819 . S
H321 C335 0.941 . S
H322 C336 0.939 . S
H323 C338 0.940 . S
H324 C339 0.940 . S
H325 C341 0.939 . S
H326 C342 0.942 . S
H327 C344 0.940 . S
H328 C345 0.939 . S
H329 C347 0.941 . S
H330 C351 0.939 . S
O331 P320 1.490 . S
H332 C348 0.939 . S
H333 C350 0.940 . S
C334 P320 1.812 . S
C334 C335 1.389 . S
C334 C339 1.391 . S
C335 H321 0.941 . S
C335 C334 1.389 . S
C335 C336 1.397 . S
C336 H322 0.939 . S
C336 C335 1.397 . S
C336 C337 1.378 . S
C337 C336 1.378 . S
C337 C338 1.378 . S
C338 H323 0.940 . S
C338 C337 1.378 . S
C338 C339 1.396 . S
C339 H324 0.940 . S
C339 C334 1.391 . S
C339 C338 1.396 . S
C340 P320 1.803 . S
C340 C341 1.378 . S
C340 C345 1.400 . S
C341 H325 0.939 . S
C341 C340 1.378 . S
C341 C342 1.361 . S
C342 H326 0.942 . S
C342 C341 1.361 . S
C342 C343 1.369 . S
C343 C342 1.369 . S
C343 C344 1.404 . S
C344 H327 0.940 . S
C344 C343 1.404 . S
C344 C345 1.389 . S
C345 H328 0.939 . S
C345 C340 1.400 . S
C345 C344 1.389 . S
C346 P320 1.819 . S
C346 C347 1.391 . S
C346 C351 1.391 . S
C347 H329 0.941 . S
C347 C346 1.391 . S
C347 C348 1.396 . S
C348 H332 0.939 . S
C348 C347 1.396 . S
C348 C349 1.397 . S
C349 C348 1.397 . S
C349 C350 1.385 . S
C350 H333 0.940 . S
C350 C349 1.385 . S
C350 C351 1.388 . S
C351 H330 0.939 . S
C351 C346 1.391 . S
C351 C350 1.388 . S
P352 O363 1.490 . S
P352 C366 1.812 . S
P352 C372 1.803 . S
P352 C378 1.819 . S
H353 C367 0.941 . S
H354 C368 0.939 . S
H355 C370 0.940 . S
H356 C371 0.940 . S
H357 C373 0.939 . S
H358 C374 0.942 . S
H359 C376 0.940 . S
H360 C377 0.939 . S
H361 C379 0.941 . S
H362 C383 0.939 . S
O363 P352 1.490 . S
H364 C380 0.939 . S
H365 C382 0.940 . S
C366 P352 1.812 . S
C366 C367 1.389 . S
C366 C371 1.391 . S
C367 H353 0.941 . S
C367 C366 1.389 . S
C367 C368 1.397 . S
C368 H354 0.939 . S
C368 C367 1.397 . S
C368 C369 1.378 . S
C369 C368 1.378 . S
C369 C370 1.378 . S
C370 H355 0.940 . S
C370 C369 1.378 . S
C370 C371 1.396 . S
C371 H356 0.940 . S
C371 C366 1.391 . S
C371 C370 1.396 . S
C372 P352 1.803 . S
C372 C373 1.378 . S
C372 C377 1.400 . S
C373 H357 0.939 . S
C373 C372 1.378 . S
C373 C374 1.361 . S
C374 H358 0.942 . S
C374 C373 1.361 . S
C374 C375 1.369 . S
C375 C374 1.369 . S
C375 C376 1.404 . S
C376 H359 0.940 . S
C376 C375 1.404 . S
C376 C377 1.389 . S
C377 H360 0.939 . S
C377 C372 1.400 . S
C377 C376 1.389 . S
C378 P352 1.819 . S
C378 C379 1.391 . S
C378 C383 1.391 . S
C379 H361 0.941 . S
C379 C378 1.391 . S
C379 C380 1.396 . S
C380 H364 0.939 . S
C380 C379 1.396 . S
C380 C381 1.397 . S
C381 C380 1.397 . S
C381 C382 1.385 . S
C382 H365 0.940 . S
C382 C381 1.385 . S
C382 C383 1.388 . S
C383 H362 0.939 . S
C383 C378 1.391 . S
C383 C382 1.388 . S
P384 O395 1.490 . S
P384 C398 1.812 . S
P384 C404 1.803 . S
P384 C410 1.819 . S
H385 C399 0.941 . S
H386 C400 0.939 . S
H387 C402 0.940 . S
H388 C403 0.940 . S
H389 C405 0.939 . S
H390 C406 0.942 . S
H391 C408 0.940 . S
H392 C409 0.939 . S
H393 C411 0.941 . S
H394 C415 0.939 . S
O395 P384 1.490 . S
H396 C412 0.939 . S
H397 C414 0.940 . S
C398 P384 1.812 . S
C398 C399 1.389 . S
C398 C403 1.391 . S
C399 H385 0.941 . S
C399 C398 1.389 . S
C399 C400 1.397 . S
C400 H386 0.939 . S
C400 C399 1.397 . S
C400 C401 1.378 . S
C401 C400 1.378 . S
C401 C402 1.378 . S
C402 H387 0.940 . S
C402 C401 1.378 . S
C402 C403 1.396 . S
C403 H388 0.940 . S
C403 C398 1.391 . S
C403 C402 1.396 . S
C404 P384 1.803 . S
C404 C405 1.378 . S
C404 C409 1.400 . S
C405 H389 0.939 . S
C405 C404 1.378 . S
C405 C406 1.361 . S
C406 H390 0.942 . S
C406 C405 1.361 . S
C406 C407 1.369 . S
C407 C406 1.369 . S
C407 C408 1.404 . S
C408 H391 0.940 . S
C408 C407 1.404 . S
C408 C409 1.389 . S
C409 H392 0.939 . S
C409 C404 1.400 . S
C409 C408 1.389 . S
C410 P384 1.819 . S
C410 C411 1.391 . S
C410 C415 1.391 . S
C411 H393 0.941 . S
C411 C410 1.391 . S
C411 C412 1.396 . S
C412 H396 0.939 . S
C412 C411 1.396 . S
C412 C413 1.397 . S
C413 C412 1.397 . S
C413 C414 1.385 . S
C414 H397 0.940 . S
C414 C413 1.385 . S
C414 C415 1.388 . S
C415 H394 0.939 . S
C415 C410 1.391 . S
C415 C414 1.388 . S
P416 O427 1.490 . S
P416 C430 1.812 . S
P416 C436 1.803 . S
P416 C442 1.819 . S
H417 C431 0.941 . S
H418 C432 0.939 . S
H419 C434 0.940 . S
H420 C435 0.940 . S
H421 C437 0.939 . S
H422 C438 0.942 . S
H423 C440 0.940 . S
H424 C441 0.939 . S
H425 C443 0.941 . S
H426 C447 0.939 . S
O427 P416 1.490 . S
H428 C444 0.939 . S
H429 C446 0.940 . S
C430 P416 1.812 . S
C430 C431 1.389 . S
C430 C435 1.391 . S
C431 H417 0.941 . S
C431 C430 1.389 . S
C431 C432 1.397 . S
C432 H418 0.939 . S
C432 C431 1.397 . S
C432 C433 1.378 . S
C433 C432 1.378 . S
C433 C434 1.378 . S
C434 H419 0.940 . S
C434 C433 1.378 . S
C434 C435 1.396 . S
C435 H420 0.940 . S
C435 C430 1.391 . S
C435 C434 1.396 . S
C436 P416 1.803 . S
C436 C437 1.378 . S
C436 C441 1.400 . S
C437 H421 0.939 . S
C437 C436 1.378 . S
C437 C438 1.361 . S
C438 H422 0.942 . S
C438 C437 1.361 . S
C438 C439 1.361 1_556 S
C439 C438 1.361 1_554 S
C439 C440 1.405 . S
C440 H423 0.940 . S
C440 C439 1.405 . S
C440 C441 1.389 1_554 S
C441 H424 0.939 . S
C441 C436 1.400 . S
C441 C440 1.389 1_556 S
C442 P416 1.819 . S
C442 C443 1.391 . S
C442 C447 1.391 . S
C443 H425 0.941 . S
C443 C442 1.391 . S
C443 C444 1.396 . S
C444 H428 0.939 . S
C444 C443 1.396 . S
C444 C445 1.397 . S
C445 C444 1.397 . S
C445 C446 1.385 . S
C446 H429 0.940 . S
C446 C445 1.385 . S
C446 C447 1.388 . S
C447 H426 0.939 . S
C447 C442 1.391 . S
C447 C446 1.388 . S
P448 O459 1.490 . S
P448 C462 1.812 . S
P448 C468 1.803 . S
P448 C474 1.819 . S
H449 C463 0.941 . S
H450 C464 0.939 . S
H451 C466 0.940 . S
H452 C467 0.940 . S
H453 C469 0.939 . S
H454 C470 0.942 . S
H455 C472 0.940 . S
H456 C473 0.939 . S
H457 C475 0.941 . S
H458 C479 0.939 . S
O459 P448 1.490 . S
H460 C476 0.939 . S
H461 C478 0.940 . S
C462 P448 1.812 . S
C462 C463 1.389 . S
C462 C467 1.391 . S
C463 H449 0.941 . S
C463 C462 1.389 . S
C463 C464 1.397 . S
C464 H450 0.939 . S
C464 C463 1.397 . S
C464 C465 1.378 . S
C465 C464 1.378 . S
C465 C466 1.378 . S
C466 H451 0.940 . S
C466 C465 1.378 . S
C466 C467 1.396 . S
C467 H452 0.940 . S
C467 C462 1.391 . S
C467 C466 1.396 . S
C468 P448 1.803 . S
C468 C469 1.378 . S
C468 C473 1.400 . S
C469 H453 0.939 . S
C469 C468 1.378 . S
C469 C470 1.361 . S
C470 H454 0.942 . S
C470 C469 1.361 . S
C470 C471 1.369 . S
C471 C470 1.369 . S
C471 C472 1.404 . S
C472 H455 0.940 . S
C472 C471 1.404 . S
C472 C473 1.389 . S
C473 H456 0.939 . S
C473 C468 1.400 . S
C473 C472 1.389 . S
C474 P448 1.819 . S
C474 C475 1.391 . S
C474 C479 1.391 . S
C475 H457 0.941 . S
C475 C474 1.391 . S
C475 C476 1.396 . S
C476 H460 0.939 . S
C476 C475 1.396 . S
C476 C477 1.397 . S
C477 C476 1.397 . S
C477 C478 1.385 . S
C478 H461 0.940 . S
C478 C477 1.385 . S
C478 C479 1.388 . S
C479 H458 0.939 . S
C479 C474 1.391 . S
C479 C478 1.388 . S
P480 O491 1.458 1_556 S
P480 C494 1.812 . S
P480 C500 1.803 . S
P480 C506 1.819 . S
H481 C495 0.941 . S
H482 C496 0.939 . S
H483 C498 0.940 . S
H484 C499 0.940 . S
H485 C501 0.939 . S
H486 C502 0.942 . S
H487 C504 0.940 . S
H488 C505 0.939 . S
H489 C507 0.941 . S
H490 C511 0.939 . S
O491 P480 1.458 1_554 S
H492 C508 0.939 . S
H493 C510 0.940 . S
C494 P480 1.812 . S
C494 C495 1.389 . S
C494 C499 1.391 . S
C495 H481 0.941 . S
C495 C494 1.389 . S
C495 C496 1.397 . S
C496 H482 0.939 . S
C496 C495 1.397 . S
C496 C497 1.378 . S
C497 C496 1.378 . S
C497 C498 1.378 . S
C498 H483 0.940 . S
C498 C497 1.378 . S
C498 C499 1.396 . S
C499 H484 0.940 . S
C499 C494 1.391 . S
C499 C498 1.396 . S
C500 P480 1.803 . S
C500 C501 1.378 1_556 S
C500 C505 1.400 . S
C501 H485 0.939 . S
C501 C500 1.378 1_554 S
C501 C502 1.361 . S
C502 H486 0.942 . S
C502 C501 1.361 . S
C502 C503 1.369 . S
C503 C502 1.369 . S
C503 C504 1.404 1_554 S
C504 H487 0.940 . S
C504 C503 1.404 1_556 S
C504 C505 1.389 . S
C505 H488 0.939 . S
C505 C500 1.400 . S
C505 C504 1.389 . S
C506 P480 1.819 . S
C506 C507 1.391 1_545 S
C506 C511 1.391 . S
C507 H489 0.941 . S
C507 C506 1.391 1_565 S
C507 C508 1.396 . S
C508 H492 0.939 . S
C508 C507 1.396 . S
C508 C509 1.397 . S
C509 C508 1.397 . S
C509 C510 1.385 1_565 S
C510 H493 0.940 . S
C510 C509 1.385 1_545 S
C510 C511 1.388 . S
C511 H490 0.939 . S
C511 C506 1.391 . S
C511 C510 1.388 . S
Mg512 O513 2.028 . S
Mg512 O519 1.986 1_554 S
Mg512 O521 2.114 . S
Mg512 O522 2.251 . S
Mg512 O525 2.010 . S
O513 Mg512 2.028 . S
O513 C516 1.250 1_554 S
O514 Mg515 2.028 . S
O514 C516 1.248 . S
Mg515 O514 2.028 . S
Mg515 O520 2.032 . S
Mg515 O522 2.079 1_556 S
C516 O513 1.250 1_556 S
C516 O514 1.248 . S
C517 O518 1.264 . S
C517 O525 1.249 . S
O518 C517 1.264 . S
O519 Mg512 1.986 1_556 S
O519 C523 1.246 . S
O520 Mg515 2.032 . S
O520 C523 1.259 . S
O521 Mg512 2.114 . S
O521 C524 1.252 . S
O522 Mg512 2.251 . S
O522 Mg515 2.079 1_554 S
O522 C524 1.273 . S
C523 O519 1.246 . S
C523 O520 1.259 . S
C524 O521 1.252 . S
C524 O522 1.273 . S
O525 Mg512 2.010 . S
O525 C517 1.249 . S
Mg526 O527 2.028 . S
Mg526 O533 1.986 . S
Mg526 O535 2.114 . S
Mg526 O536 2.251 . S
Mg526 O539 2.010 . S
O527 Mg526 2.028 . S
O527 C530 1.250 . S
O528 Mg529 2.028 . S
O528 C530 1.248 . S
Mg529 O528 2.028 . S
Mg529 O534 2.032 . S
Mg529 O536 2.079 . S
C530 O527 1.250 . S
C530 O528 1.248 . S
C531 O532 1.264 . S
C531 O539 1.249 . S
O532 C531 1.264 . S
O533 Mg526 1.986 . S
O533 C537 1.246 . S
O534 Mg529 2.032 . S
O534 C537 1.259 . S
O535 Mg526 2.114 . S
O535 C538 1.252 . S
O536 Mg526 2.251 . S
O536 Mg529 2.079 . S
O536 C538 1.273 . S
C537 O533 1.246 . S
C537 O534 1.259 . S
C538 O535 1.252 . S
C538 O536 1.273 . S
O539 Mg526 2.010 . S
O539 C531 1.249 . S
Mg540 O541 2.028 . S
Mg540 O547 1.986 1_554 S
Mg540 O549 2.114 . S
Mg540 O550 2.251 . S
Mg540 O553 2.010 . S
O541 Mg540 2.028 . S
O541 C544 1.250 . S
O542 Mg543 2.027 1_554 S
O542 C544 1.250 . S
Mg543 O542 2.027 1_556 S
Mg543 O548 2.070 . S
Mg543 O550 2.048 1_556 S
C544 O541 1.250 . S
C544 O542 1.250 . S
C545 O546 1.264 . S
C545 O553 1.249 . S
O546 C545 1.264 . S
O547 Mg540 1.986 1_556 S
O547 C551 1.246 . S
O548 Mg543 2.070 . S
O548 C551 1.259 . S
O549 Mg540 2.114 . S
O549 C552 1.252 . S
O550 Mg540 2.251 . S
O550 Mg543 2.048 1_554 S
O550 C552 1.273 . S
C551 O547 1.246 . S
C551 O548 1.259 . S
C552 O549 1.252 . S
C552 O550 1.273 . S
O553 Mg540 2.010 . S
O553 C545 1.249 . S
Mg554 O555 2.028 . S
Mg554 O561 1.986 . S
Mg554 O563 2.114 . S
Mg554 O564 2.251 . S
Mg554 O567 2.010 . S
O555 Mg554 2.028 . S
O555 C558 1.250 1_545 S
O556 Mg557 2.028 . S
O556 C558 1.248 . S
Mg557 O556 2.028 . S
Mg557 O562 2.032 . S
Mg557 O564 2.079 1_565 S
C558 O555 1.250 1_565 S
C558 O556 1.248 . S
C559 O560 1.264 . S
C559 O567 1.249 . S
O560 C559 1.264 . S
O561 Mg554 1.986 . S
O561 C565 1.246 . S
O562 Mg557 2.032 . S
O562 C565 1.259 1_565 S
O563 Mg554 2.114 . S
O563 C566 1.252 . S
O564 Mg554 2.251 . S
O564 Mg557 2.079 1_545 S
O564 C566 1.273 . S
C565 O561 1.246 . S
C565 O562 1.259 1_545 S
C566 O563 1.252 . S
C566 O564 1.273 . S
O567 Mg554 2.010 . S
O567 C559 1.249 . S
Mg568 O569 2.028 . S
Mg568 O575 1.986 . S
Mg568 O577 2.114 . S
Mg568 O578 2.251 . S
Mg568 O581 2.010 . S
O569 Mg568 2.028 . S
O569 C572 1.250 . S
O570 Mg571 2.028 . S
O570 C572 1.248 . S
Mg571 O570 2.028 . S
Mg571 O576 2.032 . S
Mg571 O578 2.079 . S
C572 O569 1.250 . S
C572 O570 1.248 . S
C573 O574 1.264 . S
C573 O581 1.249 . S
O574 C573 1.264 . S
O575 Mg568 1.986 . S
O575 C579 1.246 . S
O576 Mg571 2.032 . S
O576 C579 1.259 . S
O577 Mg568 2.114 . S
O577 C580 1.252 . S
O578 Mg568 2.251 . S
O578 Mg571 2.079 . S
O578 C580 1.273 . S
C579 O575 1.246 . S
C579 O576 1.259 . S
C580 O577 1.252 . S
C580 O578 1.273 . S
O581 Mg568 2.010 . S
O581 C573 1.249 . S
Mg582 O583 2.028 . S
Mg582 O589 1.986 . S
Mg582 O591 2.114 . S
Mg582 O592 2.251 . S
Mg582 O595 2.010 . S
O583 Mg582 2.028 . S
O583 C586 1.250 . S
O584 Mg585 2.028 . S
O584 C586 1.248 . S
Mg585 O584 2.028 . S
Mg585 O590 2.032 . S
Mg585 O592 2.079 . S
C586 O583 1.250 . S
C586 O584 1.248 . S
C587 O588 1.264 . S
C587 O595 1.249 . S
O588 C587 1.264 . S
O589 Mg582 1.986 . S
O589 C593 1.246 . S
O590 Mg585 2.032 . S
O590 C593 1.259 . S
O591 Mg582 2.114 . S
O591 C594 1.252 . S
O592 Mg582 2.251 . S
O592 Mg585 2.079 . S
O592 C594 1.273 . S
C593 O589 1.246 . S
C593 O590 1.259 . S
C594 O591 1.252 . S
C594 O592 1.273 . S
O595 Mg582 2.010 . S
O595 C587 1.249 . S
Mg596 O597 2.028 . S
Mg596 O603 1.986 . S
Mg596 O605 2.114 . S
Mg596 O606 2.251 . S
Mg596 O609 2.010 . S
O597 Mg596 2.028 . S
O597 C600 1.250 . S
O598 Mg599 2.028 . S
O598 C600 1.248 . S
Mg599 O598 2.028 . S
Mg599 O604 2.032 . S
Mg599 O606 2.079 . S
C600 O597 1.250 . S
C600 O598 1.248 . S
C601 O602 1.264 . S
C601 O609 1.249 . S
O602 C601 1.264 . S
O603 Mg596 1.986 . S
O603 C607 1.246 . S
O604 Mg599 2.032 . S
O604 C607 1.259 . S
O605 Mg596 2.114 . S
O605 C608 1.252 . S
O606 Mg596 2.251 . S
O606 Mg599 2.079 . S
O606 C608 1.273 . S
C607 O603 1.246 . S
C607 O604 1.259 . S
C608 O605 1.252 . S
C608 O606 1.273 . S
O609 Mg596 2.010 . S
O609 C601 1.249 . S
Mg610 O611 2.021 1_545 S
Mg610 O617 1.986 1_545 S
Mg610 O619 2.114 . S
Mg610 O620 2.251 . S
Mg610 O623 2.010 . S
O611 Mg610 2.021 1_565 S
O611 C614 1.262 . S
O612 Mg613 2.028 . S
O612 C614 1.248 . S
Mg613 O612 2.028 . S
Mg613 O618 2.032 . S
Mg613 O620 2.079 1_565 S
C614 O611 1.262 . S
C614 O612 1.248 . S
C615 O616 1.264 . S
C615 O623 1.249 . S
O616 C615 1.264 . S
O617 Mg610 1.986 1_565 S
O617 C621 1.246 . S
O618 Mg613 2.032 . S
O618 C621 1.259 . S
O619 Mg610 2.114 . S
O619 C622 1.252 . S
O620 Mg610 2.251 . S
O620 Mg613 2.079 1_545 S
O620 C622 1.273 . S
C621 O617 1.246 . S
C621 O618 1.259 . S
C622 O619 1.252 . S
C622 O620 1.273 . S
O623 Mg610 2.010 . S
O623 C615 1.249 . S
Mg624 O625 2.028 . S
Mg624 O631 1.986 . S
Mg624 O633 2.114 . S
Mg624 O634 2.251 . S
Mg624 O637 2.010 . S
O625 Mg624 2.028 . S
O625 C628 1.250 1_455 S
O626 Mg627 2.028 . S
O626 C628 1.248 . S
Mg627 O626 2.028 . S
Mg627 O632 2.013 1_655 S
Mg627 O634 2.079 1_655 S
C628 O625 1.250 1_655 S
C628 O626 1.248 . S
C629 O630 1.264 . S
C629 O637 1.249 . S
O630 C629 1.264 . S
O631 Mg624 1.986 . S
O631 C635 1.246 . S
O632 Mg627 2.013 1_455 S
O632 C635 1.309 . S
O633 Mg624 2.114 . S
O633 C636 1.252 . S
O634 Mg624 2.251 . S
O634 Mg627 2.079 1_455 S
O634 C636 1.273 . S
C635 O631 1.246 . S
C635 O632 1.309 . S
C636 O633 1.252 . S
C636 O634 1.273 . S
O637 Mg624 2.010 . S
O637 C629 1.249 . S
Mg638 O639 2.028 . S
Mg638 O645 1.986 . S
Mg638 O647 2.114 . S
Mg638 O648 2.251 . S
Mg638 O651 2.010 . S
O639 Mg638 2.028 . S
O639 C642 1.250 . S
O640 Mg641 2.028 . S
O640 C642 1.248 . S
Mg641 O640 2.028 . S
Mg641 O646 2.032 . S
Mg641 O648 2.079 . S
C642 O639 1.250 . S
C642 O640 1.248 . S
C643 O644 1.264 . S
C643 O651 1.249 . S
O644 C643 1.264 . S
O645 Mg638 1.986 . S
O645 C649 1.246 . S
O646 Mg641 2.032 . S
O646 C649 1.259 . S
O647 Mg638 2.114 . S
O647 C650 1.252 . S
O648 Mg638 2.251 . S
O648 Mg641 2.079 . S
O648 C650 1.273 . S
C649 O645 1.246 . S
C649 O646 1.259 . S
C650 O647 1.252 . S
C650 O648 1.273 . S
O651 Mg638 2.010 . S
O651 C643 1.249 . S
Mg652 O653 2.028 1_655 S
Mg652 O659 1.995 . S
Mg652 O661 2.114 . S
Mg652 O662 2.251 1_655 S
Mg652 O665 2.010 . S
O653 Mg652 2.028 1_455 S
O653 C656 1.250 . S
O654 Mg655 2.028 . S
O654 C656 1.248 . S
Mg655 O654 2.028 . S
Mg655 O660 2.032 . S
Mg655 O662 2.079 . S
C656 O653 1.250 . S
C656 O654 1.248 . S
C657 O658 1.264 . S
C657 O665 1.249 . S
O658 C657 1.264 . S
O659 Mg652 1.995 . S
O659 C663 1.219 1_655 S
O660 Mg655 2.032 . S
O660 C663 1.259 . S
O661 Mg652 2.114 . S
O661 C664 1.252 . S
O662 Mg652 2.251 1_455 S
O662 Mg655 2.079 . S
O662 C664 1.273 1_455 S
C663 O659 1.219 1_455 S
C663 O660 1.259 . S
C664 O661 1.252 . S
C664 O662 1.273 1_655 S
O665 Mg652 2.010 . S
O665 C657 1.249 . S
Mg666 O667 2.028 . S
Mg666 O673 1.986 . S
Mg666 O675 2.114 . S
Mg666 O676 2.251 . S
Mg666 O679 2.010 . S
O667 Mg666 2.028 . S
O667 C670 1.250 . S
O668 Mg669 2.028 . S
O668 C670 1.248 . S
Mg669 O668 2.028 . S
Mg669 O674 2.032 . S
Mg669 O676 2.079 . S
C670 O667 1.250 . S
C670 O668 1.248 . S
C671 O672 1.264 . S
C671 O679 1.249 . S
O672 C671 1.264 . S
O673 Mg666 1.986 . S
O673 C677 1.246 . S
O674 Mg669 2.032 . S
O674 C677 1.259 . S
O675 Mg666 2.114 . S
O675 C678 1.252 . S
O676 Mg666 2.251 . S
O676 Mg669 2.079 . S
O676 C678 1.273 . S
C677 O673 1.246 . S
C677 O674 1.259 . S
C678 O675 1.252 . S
C678 O676 1.273 . S
O679 Mg666 2.010 . S
O679 C671 1.249 . S
H680 C688 0.929 . S
H681 C690 0.930 . S
H682 C692 0.930 . S
H683 C695 0.929 . S
H684 C698 0.930 . S
H685 C700 0.960 . S
H686 C700 0.960 . S
H687 C700 0.960 . S
C688 H680 0.929 . S
C688 C689 1.377 . S
C688 C690 1.384 . S
C689 C688 1.377 . S
C689 C695 1.390 . S
C690 H681 0.930 . S
C690 C688 1.384 . S
C690 C691 1.372 . S
C691 C690 1.372 . S
C691 C692 1.400 . S
C691 C696 1.490 . S
C692 H682 0.930 . S
C692 C691 1.400 . S
C692 C695 1.386 . S
H693 C709 0.930 . S
H694 C710 0.931 . S
C695 H683 0.929 . S
C695 C689 1.390 . S
C695 C692 1.386 . S
C696 C691 1.490 . S
C696 C698 1.395 . S
C696 C699 1.403 . S
H697 C703 0.930 . S
C698 H684 0.930 . S
C698 C696 1.395 . S
C698 C701 1.403 . S
C699 C696 1.403 . S
C699 C700 1.524 . S
C699 C703 1.400 . S
C700 H685 0.960 . S
C700 H686 0.960 . S
C700 H687 0.960 . S
C700 C699 1.524 . S
C701 C698 1.403 . S
C701 C702 1.392 . S
C701 C705 1.495 . S
C702 C701 1.392 . S
C702 C703 1.385 . S
C702 C704 1.478 . S
C703 H697 0.930 . S
C703 C699 1.400 . S
C703 C702 1.385 . S
C704 C702 1.478 . S
C704 C706 1.381 . S
C704 C710 1.383 . S
C705 C701 1.495 . S
C705 H711 0.959 . S
C705 H712 0.961 . S
C705 H713 0.960 . S
C706 C704 1.381 . S
C706 C707 1.394 . S
C706 H714 0.930 . S
C707 C706 1.394 . S
C707 C708 1.383 . S
C707 H715 0.929 . S
C708 C707 1.383 . S
C708 C709 1.377 . S
C709 H693 0.930 . S
C709 C708 1.377 . S
C709 C710 1.379 . S
C710 H694 0.931 . S
C710 C704 1.383 . S
C710 C709 1.379 . S
H711 C705 0.959 . S
H712 C705 0.961 . S
H713 C705 0.960 . S
H714 C706 0.930 . S
H715 C707 0.929 . S
H716 C724 0.929 . S
H717 C726 0.930 . S
H718 C728 0.930 . S
H719 C731 0.929 . S
H720 C734 0.930 . S
H721 C736 0.960 . S
H722 C736 0.960 . S
H723 C736 0.960 . S
C724 H716 0.929 . S
C724 C725 1.377 . S
C724 C726 1.384 . S
C725 C724 1.377 . S
C725 C731 1.390 . S
C726 H717 0.930 . S
C726 C724 1.384 . S
C726 C727 1.372 . S
C727 C726 1.372 . S
C727 C728 1.400 . S
C727 C732 1.490 . S
C728 H718 0.930 . S
C728 C727 1.400 . S
C728 C731 1.386 . S
H729 C745 0.930 . S
H730 C746 0.931 . S
C731 H719 0.929 . S
C731 C725 1.390 . S
C731 C728 1.386 . S
C732 C727 1.490 . S
C732 C734 1.395 . S
C732 C735 1.403 . S
H733 C739 0.930 . S
C734 H720 0.930 . S
C734 C732 1.395 . S
C734 C737 1.403 . S
C735 C732 1.403 . S
C735 C736 1.524 . S
C735 C739 1.400 . S
C736 H721 0.960 . S
C736 H722 0.960 . S
C736 H723 0.960 . S
C736 C735 1.524 . S
C737 C734 1.403 . S
C737 C738 1.392 . S
C737 C741 1.495 . S
C738 C737 1.392 . S
C738 C739 1.385 . S
C738 C740 1.478 . S
C739 H733 0.930 . S
C739 C735 1.400 . S
C739 C738 1.385 . S
C740 C738 1.478 . S
C740 C742 1.381 . S
C740 C746 1.383 . S
C741 C737 1.495 . S
C741 H747 0.959 . S
C741 H748 0.961 . S
C741 H749 0.960 . S
C742 C740 1.381 . S
C742 C743 1.394 . S
C742 H750 0.930 . S
C743 C742 1.394 . S
C743 C744 1.383 . S
C743 H751 0.929 . S
C744 C743 1.383 . S
C744 C745 1.377 . S
C745 H729 0.930 . S
C745 C744 1.377 . S
C745 C746 1.379 . S
C746 H730 0.931 . S
C746 C740 1.383 . S
C746 C745 1.379 . S
H747 C741 0.959 . S
H748 C741 0.961 . S
H749 C741 0.960 . S
H750 C742 0.930 . S
H751 C743 0.929 . S
H752 C760 0.929 . S
H753 C762 0.930 . S
H754 C764 0.930 . S
H755 C767 0.929 . S
H756 C770 0.930 . S
H757 C772 0.960 . S
H758 C772 0.960 . S
H759 C772 0.960 . S
C760 H752 0.929 . S
C760 C761 1.377 . S
C760 C762 1.384 . S
C761 C760 1.377 . S
C761 C767 1.390 . S
C762 H753 0.930 . S
C762 C760 1.384 . S
C762 C763 1.372 . S
C763 C762 1.372 . S
C763 C764 1.400 . S
C763 C768 1.490 . S
C764 H754 0.930 . S
C764 C763 1.400 . S
C764 C767 1.386 . S
H765 C781 0.930 . S
H766 C782 0.931 . S
C767 H755 0.929 . S
C767 C761 1.390 . S
C767 C764 1.386 . S
C768 C763 1.490 . S
C768 C770 1.395 . S
C768 C771 1.403 . S
H769 C775 0.930 . S
C770 H756 0.930 . S
C770 C768 1.395 . S
C770 C773 1.403 . S
C771 C768 1.403 . S
C771 C772 1.524 . S
C771 C775 1.400 . S
C772 H757 0.960 . S
C772 H758 0.960 . S
C772 H759 0.960 . S
C772 C771 1.524 . S
C773 C770 1.403 . S
C773 C774 1.392 . S
C773 C777 1.495 . S
C774 C773 1.392 . S
C774 C775 1.385 . S
C774 C776 1.478 . S
C775 H769 0.930 . S
C775 C771 1.400 . S
C775 C774 1.385 . S
C776 C774 1.478 . S
C776 C778 1.381 . S
C776 C782 1.383 . S
C777 C773 1.495 . S
C777 H783 0.959 . S
C777 H784 0.961 . S
C777 H785 0.960 . S
C778 C776 1.381 . S
C778 C779 1.394 . S
C778 H786 0.930 . S
C779 C778 1.394 . S
C779 C780 1.383 . S
C779 H787 0.929 . S
C780 C779 1.383 . S
C780 C781 1.377 . S
C781 H765 0.930 . S
C781 C780 1.377 . S
C781 C782 1.379 . S
C782 H766 0.931 . S
C782 C776 1.383 . S
C782 C781 1.379 . S
H783 C777 0.959 . S
H784 C777 0.961 . S
H785 C777 0.960 . S
H786 C778 0.930 . S
H787 C779 0.929 . S
H788 C796 0.929 1_545 S
H789 C798 0.915 1_545 S
H790 C800 0.930 . S
H791 C803 0.929 . S
H792 C806 0.930 . S
H793 C808 0.960 . S
H794 C808 0.960 . S
H795 C808 0.960 . S
C796 H788 0.929 1_565 S
C796 C797 1.377 1_655 S
C796 C798 1.388 . S
C797 C796 1.377 1_455 S
C797 C803 1.390 . S
C798 H789 0.915 1_565 S
C798 C796 1.388 . S
C798 C799 1.383 . S
C799 C798 1.383 . S
C799 C800 1.400 . S
C799 C804 1.490 . S
C800 H790 0.930 . S
C800 C799 1.400 . S
C800 C803 1.386 1_655 S
H801 C817 0.930 . S
H802 C818 0.931 . S
C803 H791 0.929 . S
C803 C797 1.390 . S
C803 C800 1.386 1_455 S
C804 C799 1.490 . S
C804 C806 1.395 1_565 S
C804 C807 1.403 . S
H805 C811 0.930 . S
C806 H792 0.930 . S
C806 C804 1.395 1_545 S
C806 C809 1.403 . S
C807 C804 1.403 . S
C807 C808 1.524 . S
C807 C811 1.400 . S
C808 H793 0.960 . S
C808 H794 0.960 . S
C808 H795 0.960 . S
C808 C807 1.524 . S
C809 C806 1.403 . S
C809 C810 1.392 . S
C809 C813 1.495 . S
C810 C809 1.392 . S
C810 C811 1.385 1_545 S
C810 C812 1.478 . S
C811 H805 0.930 . S
C811 C807 1.400 . S
C811 C810 1.385 1_565 S
C812 C810 1.478 . S
C812 C814 1.381 . S
C812 C818 1.383 1_545 S
C813 C809 1.495 . S
C813 H819 0.959 . S
C813 H820 0.961 . S
C813 H821 0.960 . S
C814 C812 1.381 . S
C814 C815 1.394 . S
C814 H822 0.930 . S
C815 C814 1.394 . S
C815 C816 1.383 . S
C815 H823 0.929 . S
C816 C815 1.383 . S
C816 C817 1.377 1_545 S
C817 H801 0.930 . S
C817 C816 1.377 1_565 S
C817 C818 1.379 . S
C818 H802 0.931 . S
C818 C812 1.383 1_565 S
C818 C817 1.379 . S
H819 C813 0.959 . S
H820 C813 0.961 . S
H821 C813 0.960 . S
H822 C814 0.930 . S
H823 C815 0.929 . S
H824 C832 0.929 . S
H825 C834 0.930 . S
H826 C836 0.930 . S
H827 C839 0.929 . S
H828 C842 0.930 . S
H829 C844 0.960 . S
H830 C844 0.960 . S
H831 C844 0.960 . S
C832 H824 0.929 . S
C832 C833 1.377 . S
C832 C834 1.384 . S
C833 C832 1.377 . S
C833 C839 1.390 . S
C834 H825 0.930 . S
C834 C832 1.384 . S
C834 C835 1.372 . S
C835 C834 1.372 . S
C835 C836 1.400 . S
C835 C840 1.490 . S
C836 H826 0.930 . S
C836 C835 1.400 . S
C836 C839 1.386 . S
H837 C853 0.930 . S
H838 C854 0.931 . S
C839 H827 0.929 . S
C839 C833 1.390 . S
C839 C836 1.386 . S
C840 C835 1.490 . S
C840 C842 1.395 . S
C840 C843 1.403 . S
H841 C847 0.930 . S
C842 H828 0.930 . S
C842 C840 1.395 . S
C842 C845 1.403 . S
C843 C840 1.403 . S
C843 C844 1.524 . S
C843 C847 1.400 . S
C844 H829 0.960 . S
C844 H830 0.960 . S
C844 H831 0.960 . S
C844 C843 1.524 . S
C845 C842 1.403 . S
C845 C846 1.392 . S
C845 C849 1.495 . S
C846 C845 1.392 . S
C846 C847 1.385 . S
C846 C848 1.478 . S
C847 H841 0.930 . S
C847 C843 1.400 . S
C847 C846 1.385 . S
C848 C846 1.478 . S
C848 C850 1.381 . S
C848 C854 1.383 . S
C849 C845 1.495 . S
C849 H855 0.959 . S
C849 H856 0.961 . S
C849 H857 0.960 . S
C850 C848 1.381 . S
C850 C851 1.394 . S
C850 H858 0.930 . S
C851 C850 1.394 . S
C851 C852 1.383 . S
C851 H859 0.929 . S
C852 C851 1.383 . S
C852 C853 1.377 . S
C853 H837 0.930 . S
C853 C852 1.377 . S
C853 C854 1.379 . S
C854 H838 0.931 . S
C854 C848 1.383 . S
C854 C853 1.379 . S
H855 C849 0.959 . S
H856 C849 0.961 . S
H857 C849 0.960 . S
H858 C850 0.930 . S
H859 C851 0.929 . S
H860 C868 0.929 . S
H861 C870 0.930 . S
H862 C872 0.930 . S
H863 C875 0.929 . S
H864 C878 0.930 . S
H865 C880 0.960 . S
H866 C880 0.960 . S
H867 C880 0.960 . S
C868 H860 0.929 . S
C868 C869 1.377 . S
C868 C870 1.384 . S
C869 C868 1.377 . S
C869 C875 1.390 . S
C870 H861 0.930 . S
C870 C868 1.384 . S
C870 C871 1.372 . S
C871 C870 1.372 . S
C871 C872 1.400 . S
C871 C876 1.490 . S
C872 H862 0.930 . S
C872 C871 1.400 . S
C872 C875 1.386 . S
H873 C889 0.930 . S
H874 C890 0.931 . S
C875 H863 0.929 . S
C875 C869 1.390 . S
C875 C872 1.386 . S
C876 C871 1.490 . S
C876 C878 1.395 . S
C876 C879 1.403 . S
H877 C883 0.930 . S
C878 H864 0.930 . S
C878 C876 1.395 . S
C878 C881 1.403 . S
C879 C876 1.403 . S
C879 C880 1.524 . S
C879 C883 1.400 . S
C880 H865 0.960 . S
C880 H866 0.960 . S
C880 H867 0.960 . S
C880 C879 1.524 . S
C881 C878 1.403 . S
C881 C882 1.392 . S
C881 C885 1.495 . S
C882 C881 1.392 . S
C882 C883 1.385 . S
C882 C884 1.478 . S
C883 H877 0.930 . S
C883 C879 1.400 . S
C883 C882 1.385 . S
C884 C882 1.478 . S
C884 C886 1.381 . S
C884 C890 1.383 . S
C885 C881 1.495 . S
C885 H891 0.959 . S
C885 H892 0.961 . S
C885 H893 0.960 . S
C886 C884 1.381 . S
C886 C887 1.394 . S
C886 H894 0.930 . S
C887 C886 1.394 . S
C887 C888 1.383 . S
C887 H895 0.929 . S
C888 C887 1.383 . S
C888 C889 1.377 . S
C889 H873 0.930 . S
C889 C888 1.377 . S
C889 C890 1.379 . S
C890 H874 0.931 . S
C890 C884 1.383 . S
C890 C889 1.379 . S
H891 C885 0.959 . S
H892 C885 0.961 . S
H893 C885 0.960 . S
H894 C886 0.930 . S
H895 C887 0.929 . S
H896 C904 0.929 . S
H897 C906 0.930 . S
H898 C908 0.930 . S
H899 C911 0.929 . S
H900 C914 0.930 . S
H901 C916 0.960 . S
H902 C916 0.960 . S
H903 C916 0.960 . S
C904 H896 0.929 . S
C904 C905 1.377 . S
C904 C906 1.384 . S
C905 C904 1.377 . S
C905 C911 1.390 . S
C906 H897 0.930 . S
C906 C904 1.384 . S
C906 C907 1.372 . S
C907 C906 1.372 . S
C907 C908 1.400 . S
C907 C912 1.490 . S
C908 H898 0.930 . S
C908 C907 1.400 . S
C908 C911 1.386 . S
H909 C925 0.930 . S
H910 C926 0.931 . S
C911 H899 0.929 . S
C911 C905 1.390 . S
C911 C908 1.386 . S
C912 C907 1.490 . S
C912 C914 1.395 . S
C912 C915 1.403 . S
H913 C919 0.930 . S
C914 H900 0.930 . S
C914 C912 1.395 . S
C914 C917 1.403 . S
C915 C912 1.403 . S
C915 C916 1.524 . S
C915 C919 1.400 . S
C916 H901 0.960 . S
C916 H902 0.960 . S
C916 H903 0.960 . S
C916 C915 1.524 . S
C917 C914 1.403 . S
C917 C918 1.392 . S
C917 C921 1.495 . S
C918 C917 1.392 . S
C918 C919 1.385 . S
C918 C920 1.478 . S
C919 H913 0.930 . S
C919 C915 1.400 . S
C919 C918 1.385 . S
C920 C918 1.478 . S
C920 C922 1.381 . S
C920 C926 1.383 . S
C921 C917 1.495 . S
C921 H927 0.959 . S
C921 H928 0.961 . S
C921 H929 0.960 . S
C922 C920 1.381 . S
C922 C923 1.394 . S
C922 H930 0.930 . S
C923 C922 1.394 . S
C923 C924 1.383 . S
C923 H931 0.929 . S
C924 C923 1.383 . S
C924 C925 1.377 . S
C925 H909 0.930 . S
C925 C924 1.377 . S
C925 C926 1.379 . S
C926 H910 0.931 . S
C926 C920 1.383 . S
C926 C925 1.379 . S
H927 C921 0.959 . S
H928 C921 0.961 . S
H929 C921 0.960 . S
H930 C922 0.930 . S
H931 C923 0.929 . S
H932 C940 0.929 . S
H933 C942 0.930 . S
H934 C944 0.930 . S
H935 C947 0.929 . S
H936 C950 0.930 1_545 S
H937 C952 0.960 . S
H938 C952 0.960 . S
H939 C952 0.960 . S
C940 H932 0.929 . S
C940 C941 1.377 . S
C940 C942 1.384 . S
C941 C940 1.377 . S
C941 C947 1.390 . S
C942 H933 0.930 . S
C942 C940 1.384 . S
C942 C943 1.372 . S
C943 C942 1.372 . S
C943 C944 1.400 . S
C943 C948 1.490 . S
C944 H934 0.930 . S
C944 C943 1.400 . S
C944 C947 1.386 . S
H945 C961 0.930 . S
H946 C962 0.931 . S
C947 H935 0.929 . S
C947 C941 1.390 . S
C947 C944 1.386 . S
C948 C943 1.490 . S
C948 C950 1.395 . S
C948 C951 1.403 . S
H949 C955 0.930 . S
C950 H936 0.930 1_565 S
C950 C948 1.395 . S
C950 C953 1.403 1_565 S
C951 C948 1.403 . S
C951 C952 1.524 . S
C951 C955 1.400 . S
C952 H937 0.960 . S
C952 H938 0.960 . S
C952 H939 0.960 . S
C952 C951 1.524 . S
C953 C950 1.403 1_545 S
C953 C954 1.392 1_545 S
C953 C957 1.495 . S
C954 C953 1.392 1_565 S
C954 C955 1.385 . S
C954 C956 1.478 . S
C955 H949 0.930 . S
C955 C951 1.400 . S
C955 C954 1.385 . S
C956 C954 1.478 . S
C956 C958 1.381 . S
C956 C962 1.383 . S
C957 C953 1.495 . S
C957 H963 0.959 . S
C957 H964 0.961 . S
C957 H965 0.960 . S
C958 C956 1.381 . S
C958 C959 1.394 . S
C958 H966 0.930 . S
C959 C958 1.394 . S
C959 C960 1.383 . S
C959 H967 0.929 . S
C960 C959 1.383 . S
C960 C961 1.377 . S
C961 H945 0.930 . S
C961 C960 1.377 . S
C961 C962 1.379 . S
C962 H946 0.931 . S
C962 C956 1.383 . S
C962 C961 1.379 . S
H963 C957 0.959 . S
H964 C957 0.961 . S
H965 C957 0.960 . S
H966 C958 0.930 . S
H967 C959 0.929 . S
H968 C976 0.929 . S
H969 C978 0.930 . S
H970 C980 0.930 . S
H971 C983 0.929 . S
H972 C986 0.930 . S
H973 C988 0.960 . S
H974 C988 0.960 . S
H975 C988 0.960 . S
C976 H968 0.929 . S
C976 C977 1.377 . S
C976 C978 1.384 . S
C977 C976 1.377 . S
C977 C983 1.390 . S
C978 H969 0.930 . S
C978 C976 1.384 . S
C978 C979 1.372 . S
C979 C978 1.372 . S
C979 C980 1.400 . S
C979 C984 1.490 . S
C980 H970 0.930 . S
C980 C979 1.400 . S
C980 C983 1.386 . S
H981 C997 0.930 . S
H982 C998 0.931 . S
C983 H971 0.929 . S
C983 C977 1.390 . S
C983 C980 1.386 . S
C984 C979 1.490 . S
C984 C986 1.395 . S
C984 C987 1.403 . S
H985 C991 0.930 . S
C986 H972 0.930 . S
C986 C984 1.395 . S
C986 C989 1.403 . S
C987 C984 1.403 . S
C987 C988 1.524 . S
C987 C991 1.400 . S
C988 H973 0.960 . S
C988 H974 0.960 . S
C988 H975 0.960 . S
C988 C987 1.524 . S
C989 C986 1.403 . S
C989 C990 1.392 . S
C989 C993 1.495 . S
C990 C989 1.392 . S
C990 C991 1.385 . S
C990 C992 1.478 . S
C991 H985 0.930 . S
C991 C987 1.400 . S
C991 C990 1.385 . S
C992 C990 1.478 . S
C992 C994 1.381 . S
C992 C998 1.383 . S
C993 C989 1.495 . S
C993 H999 0.959 . S
C993 H1000 0.961 . S
C993 H1001 0.960 . S
C994 C992 1.381 . S
C994 C995 1.394 . S
C994 H1002 0.930 . S
C995 C994 1.394 . S
C995 C996 1.383 . S
C995 H1003 0.929 . S
C996 C995 1.383 . S
C996 C997 1.377 . S
C997 H981 0.930 . S
C997 C996 1.377 . S
C997 C998 1.379 . S
C998 H982 0.931 . S
C998 C992 1.383 . S
C998 C997 1.379 . S
H999 C993 0.959 . S
H1000 C993 0.961 . S
H1001 C993 0.960 . S
H1002 C994 0.930 . S
H1003 C995 0.929 . S
H1004 C1012 0.929 . S
H1005 C1014 0.930 . S
H1006 C1016 0.930 . S
H1007 C1019 0.929 . S
H1008 C1022 0.930 . S
H1009 C1024 0.960 . S
H1010 C1024 0.960 . S
H1011 C1024 0.960 . S
C1012 H1004 0.929 . S
C1012 C1013 1.377 . S
C1012 C1014 1.384 . S
C1013 C1012 1.377 . S
C1013 C1019 1.390 . S
C1014 H1005 0.930 . S
C1014 C1012 1.384 . S
C1014 C1015 1.372 . S
C1015 C1014 1.372 . S
C1015 C1016 1.400 . S
C1015 C1020 1.490 . S
C1016 H1006 0.930 . S
C1016 C1015 1.400 . S
C1016 C1019 1.386 . S
H1017 C1033 0.930 . S
H1018 C1034 0.931 . S
C1019 H1007 0.929 . S
C1019 C1013 1.390 . S
C1019 C1016 1.386 . S
C1020 C1015 1.490 . S
C1020 C1022 1.395 . S
C1020 C1023 1.403 . S
H1021 C1027 0.930 . S
C1022 H1008 0.930 . S
C1022 C1020 1.395 . S
C1022 C1025 1.403 . S
C1023 C1020 1.403 . S
C1023 C1024 1.524 . S
C1023 C1027 1.400 . S
C1024 H1009 0.960 . S
C1024 H1010 0.960 . S
C1024 H1011 0.960 . S
C1024 C1023 1.524 . S
C1025 C1022 1.403 . S
C1025 C1026 1.392 . S
C1025 C1029 1.495 . S
C1026 C1025 1.392 . S
C1026 C1027 1.385 . S
C1026 C1028 1.478 . S
C1027 H1021 0.930 . S
C1027 C1023 1.400 . S
C1027 C1026 1.385 . S
C1028 C1026 1.478 . S
C1028 C1030 1.381 . S
C1028 C1034 1.383 . S
C1029 C1025 1.495 . S
C1029 H1035 0.959 . S
C1029 H1036 0.961 . S
C1029 H1037 0.960 . S
C1030 C1028 1.381 . S
C1030 C1031 1.394 . S
C1030 H1038 0.930 . S
C1031 C1030 1.394 . S
C1031 C1032 1.383 . S
C1031 H1039 0.929 . S
C1032 C1031 1.383 . S
C1032 C1033 1.377 . S
C1033 H1017 0.930 . S
C1033 C1032 1.377 . S
C1033 C1034 1.379 . S
C1034 H1018 0.931 . S
C1034 C1028 1.383 . S
C1034 C1033 1.379 . S
H1035 C1029 0.959 . S
H1036 C1029 0.961 . S
H1037 C1029 0.960 . S
H1038 C1030 0.930 . S
H1039 C1031 0.929 . S
H1040 C1048 0.929 . S
H1041 C1050 0.930 . S
H1042 C1052 0.930 . S
H1043 C1055 0.929 . S
H1044 C1058 0.930 . S
H1045 C1060 0.960 . S
H1046 C1060 0.960 . S
H1047 C1060 0.960 . S
C1048 H1040 0.929 . S
C1048 C1049 1.377 . S
C1048 C1050 1.384 . S
C1049 C1048 1.377 . S
C1049 C1055 1.390 . S
C1050 H1041 0.930 . S
C1050 C1048 1.384 . S
C1050 C1051 1.372 . S
C1051 C1050 1.372 . S
C1051 C1052 1.400 . S
C1051 C1056 1.490 . S
C1052 H1042 0.930 . S
C1052 C1051 1.400 . S
C1052 C1055 1.386 . S
H1053 C1069 0.930 . S
H1054 C1070 0.931 . S
C1055 H1043 0.929 . S
C1055 C1049 1.390 . S
C1055 C1052 1.386 . S
C1056 C1051 1.490 . S
C1056 C1058 1.395 . S
C1056 C1059 1.403 . S
H1057 C1063 0.930 . S
C1058 H1044 0.930 . S
C1058 C1056 1.395 . S
C1058 C1061 1.403 . S
C1059 C1056 1.403 . S
C1059 C1060 1.524 . S
C1059 C1063 1.400 . S
C1060 H1045 0.960 . S
C1060 H1046 0.960 . S
C1060 H1047 0.960 . S
C1060 C1059 1.524 . S
C1061 C1058 1.403 . S
C1061 C1062 1.392 . S
C1061 C1065 1.495 . S
C1062 C1061 1.392 . S
C1062 C1063 1.385 . S
C1062 C1064 1.478 . S
C1063 H1057 0.930 . S
C1063 C1059 1.400 . S
C1063 C1062 1.385 . S
C1064 C1062 1.478 . S
C1064 C1066 1.381 . S
C1064 C1070 1.383 . S
C1065 C1061 1.495 . S
C1065 H1071 0.959 . S
C1065 H1072 0.961 . S
C1065 H1073 0.960 . S
C1066 C1064 1.381 . S
C1066 C1067 1.394 . S
C1066 H1074 0.930 . S
C1067 C1066 1.394 . S
C1067 C1068 1.383 . S
C1067 H1075 0.929 . S
C1068 C1067 1.383 . S
C1068 C1069 1.377 . S
C1069 H1053 0.930 . S
C1069 C1068 1.377 . S
C1069 C1070 1.379 . S
C1070 H1054 0.931 . S
C1070 C1064 1.383 . S
C1070 C1069 1.379 . S
H1071 C1065 0.959 . S
H1072 C1065 0.961 . S
H1073 C1065 0.960 . S
H1074 C1066 0.930 . S
H1075 C1067 0.929 . S
H1076 C1084 0.929 . S
H1077 C1086 0.930 . S
H1078 C1088 0.930 . S
H1079 C1091 0.929 . S
H1080 C1094 0.930 . S
H1081 C1096 0.960 . S
H1082 C1096 0.960 . S
H1083 C1096 0.960 . S
C1084 H1076 0.929 . S
C1084 C1085 1.377 . S
C1084 C1086 1.384 . S
C1085 C1084 1.377 . S
C1085 C1091 1.390 . S
C1086 H1077 0.930 . S
C1086 C1084 1.384 . S
C1086 C1087 1.372 . S
C1087 C1086 1.372 . S
C1087 C1088 1.400 . S
C1087 C1092 1.490 . S
C1088 H1078 0.930 . S
C1088 C1087 1.400 . S
C1088 C1091 1.386 . S
H1089 C1105 0.930 . S
H1090 C1106 0.931 . S
C1091 H1079 0.929 . S
C1091 C1085 1.390 . S
C1091 C1088 1.386 . S
C1092 C1087 1.490 . S
C1092 C1094 1.395 . S
C1092 C1095 1.403 . S
H1093 C1099 0.930 . S
C1094 H1080 0.930 . S
C1094 C1092 1.395 . S
C1094 C1097 1.403 . S
C1095 C1092 1.403 . S
C1095 C1096 1.524 . S
C1095 C1099 1.400 . S
C1096 H1081 0.960 . S
C1096 H1082 0.960 . S
C1096 H1083 0.960 . S
C1096 C1095 1.524 . S
C1097 C1094 1.403 . S
C1097 C1098 1.392 . S
C1097 C1101 1.495 . S
C1098 C1097 1.392 . S
C1098 C1099 1.385 . S
C1098 C1100 1.478 . S
C1099 H1093 0.930 . S
C1099 C1095 1.400 . S
C1099 C1098 1.385 . S
C1100 C1098 1.478 . S
C1100 C1102 1.381 . S
C1100 C1106 1.383 . S
C1101 C1097 1.495 . S
C1101 H1107 0.959 . S
C1101 H1108 0.961 . S
C1101 H1109 0.960 . S
C1102 C1100 1.381 . S
C1102 C1103 1.394 . S
C1102 H1110 0.930 . S
C1103 C1102 1.394 . S
C1103 C1104 1.383 . S
C1103 H1111 0.929 . S
C1104 C1103 1.383 . S
C1104 C1105 1.377 . S
C1105 H1089 0.930 . S
C1105 C1104 1.377 . S
C1105 C1106 1.379 . S
C1106 H1090 0.931 . S
C1106 C1100 1.383 . S
C1106 C1105 1.379 . S
H1107 C1101 0.959 . S
H1108 C1101 0.961 . S
H1109 C1101 0.960 . S
H1110 C1102 0.930 . S
H1111 C1103 0.929 . S
H1112 C1120 0.929 . S
H1113 C1122 0.930 . S
H1114 C1124 0.930 . S
H1115 C1127 0.929 . S
H1116 C1130 0.930 . S
H1117 C1132 0.960 . S
H1118 C1132 0.960 . S
H1119 C1132 0.960 . S
C1120 H1112 0.929 . S
C1120 C1121 1.377 . S
C1120 C1122 1.384 . S
C1121 C1120 1.377 . S
C1121 C1127 1.390 . S
C1122 H1113 0.930 . S
C1122 C1120 1.384 . S
C1122 C1123 1.372 . S
C1123 C1122 1.372 . S
C1123 C1124 1.400 . S
C1123 C1128 1.490 . S
C1124 H1114 0.930 . S
C1124 C1123 1.400 . S
C1124 C1127 1.386 . S
H1125 C1141 0.930 . S
H1126 C1142 0.931 . S
C1127 H1115 0.929 . S
C1127 C1121 1.390 . S
C1127 C1124 1.386 . S
C1128 C1123 1.490 . S
C1128 C1130 1.395 . S
C1128 C1131 1.403 . S
H1129 C1135 0.930 . S
C1130 H1116 0.930 . S
C1130 C1128 1.395 . S
C1130 C1133 1.403 . S
C1131 C1128 1.403 . S
C1131 C1132 1.524 . S
C1131 C1135 1.400 . S
C1132 H1117 0.960 . S
C1132 H1118 0.960 . S
C1132 H1119 0.960 . S
C1132 C1131 1.524 . S
C1133 C1130 1.403 . S
C1133 C1134 1.392 . S
C1133 C1137 1.495 . S
C1134 C1133 1.392 . S
C1134 C1135 1.385 . S
C1134 C1136 1.478 . S
C1135 H1129 0.930 . S
C1135 C1131 1.400 . S
C1135 C1134 1.385 . S
C1136 C1134 1.478 . S
C1136 C1138 1.381 . S
C1136 C1142 1.383 . S
C1137 C1133 1.495 . S
C1137 H1143 0.959 . S
C1137 H1144 0.961 . S
C1137 H1145 0.960 . S
C1138 C1136 1.381 . S
C1138 C1139 1.394 . S
C1138 H1146 0.930 . S
C1139 C1138 1.394 . S
C1139 C1140 1.383 . S
C1139 H1147 0.929 . S
C1140 C1139 1.383 . S
C1140 C1141 1.377 . S
C1141 H1125 0.930 . S
C1141 C1140 1.377 . S
C1141 C1142 1.379 . S
C1142 H1126 0.931 . S
C1142 C1136 1.383 . S
C1142 C1141 1.379 . S
H1143 C1137 0.959 . S
H1144 C1137 0.961 . S
H1145 C1137 0.960 . S
H1146 C1138 0.930 . S
H1147 C1139 0.929 . S
H1148 C1156 0.929 . S
H1149 C1158 0.930 . S
H1150 C1160 0.930 . S
H1151 C1163 0.929 . S
H1152 C1166 0.930 . S
H1153 C1168 0.960 . S
H1154 C1168 0.960 . S
H1155 C1168 0.960 . S
C1156 H1148 0.929 . S
C1156 C1157 1.377 . S
C1156 C1158 1.384 . S
C1157 C1156 1.377 . S
C1157 C1163 1.390 . S
C1158 H1149 0.930 . S
C1158 C1156 1.384 . S
C1158 C1159 1.372 . S
C1159 C1158 1.372 . S
C1159 C1160 1.400 . S
C1159 C1164 1.490 . S
C1160 H1150 0.930 . S
C1160 C1159 1.400 . S
C1160 C1163 1.386 . S
H1161 C1177 0.930 . S
H1162 C1178 0.931 . S
C1163 H1151 0.929 . S
C1163 C1157 1.390 . S
C1163 C1160 1.386 . S
C1164 C1159 1.490 . S
C1164 C1166 1.395 . S
C1164 C1167 1.403 . S
H1165 C1171 0.930 . S
C1166 H1152 0.930 . S
C1166 C1164 1.395 . S
C1166 C1169 1.403 . S
C1167 C1164 1.403 . S
C1167 C1168 1.524 . S
C1167 C1171 1.400 . S
C1168 H1153 0.960 . S
C1168 H1154 0.960 . S
C1168 H1155 0.960 . S
C1168 C1167 1.524 . S
C1169 C1166 1.403 . S
C1169 C1170 1.392 . S
C1169 C1173 1.495 1_455 S
C1170 C1169 1.392 . S
C1170 C1171 1.385 . S
C1170 C1172 1.478 . S
C1171 H1165 0.930 . S
C1171 C1167 1.400 . S
C1171 C1170 1.385 . S
C1172 C1170 1.478 . S
C1172 C1174 1.376 . S
C1172 C1178 1.383 . S
C1173 C1169 1.495 1_655 S
C1173 H1179 0.959 . S
C1173 H1180 0.961 1_655 S
C1173 H1181 0.960 . S
C1174 C1172 1.376 . S
C1174 C1175 1.395 1_455 S
C1174 H1182 0.934 1_455 S
C1175 C1174 1.395 1_655 S
C1175 C1176 1.383 1_655 S
C1175 H1183 0.929 . S
C1176 C1175 1.383 1_455 S
C1176 C1177 1.377 . S
C1177 H1161 0.930 . S
C1177 C1176 1.377 . S
C1177 C1178 1.379 . S
C1178 H1162 0.931 . S
C1178 C1172 1.383 . S
C1178 C1177 1.379 . S
H1179 C1173 0.959 . S
H1180 C1173 0.961 1_455 S
H1181 C1173 0.960 . S
H1182 C1174 0.934 1_655 S
H1183 C1175 0.929 . S
H1184 C1192 0.929 . S
H1185 C1194 0.930 . S
H1186 C1196 0.930 . S
H1187 C1199 0.929 . S
H1188 C1202 0.930 . S
H1189 C1204 0.960 . S
H1190 C1204 0.960 . S
H1191 C1204 0.960 . S
C1192 H1184 0.929 . S
C1192 C1193 1.377 . S
C1192 C1194 1.384 . S
C1193 C1192 1.377 . S
C1193 C1199 1.390 . S
C1194 H1185 0.930 . S
C1194 C1192 1.384 . S
C1194 C1195 1.372 . S
C1195 C1194 1.372 . S
C1195 C1196 1.400 . S
C1195 C1200 1.490 . S
C1196 H1186 0.930 . S
C1196 C1195 1.400 . S
C1196 C1199 1.386 . S
H1197 C1213 0.930 . S
H1198 C1214 0.931 . S
C1199 H1187 0.929 . S
C1199 C1193 1.390 . S
C1199 C1196 1.386 . S
C1200 C1195 1.490 . S
C1200 C1202 1.395 . S
C1200 C1203 1.403 . S
H1201 C1207 0.930 . S
C1202 H1188 0.930 . S
C1202 C1200 1.395 . S
C1202 C1205 1.403 . S
C1203 C1200 1.403 . S
C1203 C1204 1.524 . S
C1203 C1207 1.400 . S
C1204 H1189 0.960 . S
C1204 H1190 0.960 . S
C1204 H1191 0.960 . S
C1204 C1203 1.524 . S
C1205 C1202 1.403 . S
C1205 C1206 1.392 . S
C1205 C1209 1.495 . S
C1206 C1205 1.392 . S
C1206 C1207 1.385 . S
C1206 C1208 1.478 . S
C1207 H1201 0.930 . S
C1207 C1203 1.400 . S
C1207 C1206 1.385 . S
C1208 C1206 1.478 . S
C1208 C1210 1.381 . S
C1208 C1214 1.383 . S
C1209 C1205 1.495 . S
C1209 H1215 0.959 . S
C1209 H1216 0.961 . S
C1209 H1217 0.960 . S
C1210 C1208 1.381 . S
C1210 C1211 1.394 . S
C1210 H1218 0.930 . S
C1211 C1210 1.394 . S
C1211 C1212 1.383 . S
C1211 H1219 0.929 . S
C1212 C1211 1.383 . S
C1212 C1213 1.377 . S
C1213 H1197 0.930 . S
C1213 C1212 1.377 . S
C1213 C1214 1.379 . S
C1214 H1198 0.931 . S
C1214 C1208 1.383 . S
C1214 C1213 1.379 . S
H1215 C1209 0.959 . S
H1216 C1209 0.961 . S
H1217 C1209 0.960 . S
H1218 C1210 0.930 . S
H1219 C1211 0.929 . S
H1220 C1228 0.929 1_455 S
H1221 C1230 0.930 1_455 S
H1222 C1232 0.930 . S
H1223 C1235 0.929 . S
H1224 C1238 0.932 . S
H1225 C1240 0.960 . S
H1226 C1240 0.960 . S
H1227 C1240 0.960 . S
C1228 H1220 0.929 1_655 S
C1228 C1229 1.377 . S
C1228 C1230 1.384 . S
C1229 C1228 1.377 . S
C1229 C1235 1.390 . S
C1230 H1221 0.930 1_655 S
C1230 C1228 1.384 . S
C1230 C1231 1.372 . S
C1231 C1230 1.372 . S
C1231 C1232 1.400 . S
C1231 C1236 1.490 . S
C1232 H1222 0.930 . S
C1232 C1231 1.400 . S
C1232 C1235 1.386 . S
H1233 C1249 0.930 . S
H1234 C1250 0.931 . S
C1235 H1223 0.929 . S
C1235 C1229 1.390 . S
C1235 C1232 1.386 . S
C1236 C1231 1.490 . S
C1236 C1238 1.395 . S
C1236 C1239 1.403 . S
H1237 C1243 0.930 . S
C1238 H1224 0.932 . S
C1238 C1236 1.395 . S
C1238 C1241 1.403 . S
C1239 C1236 1.403 . S
C1239 C1240 1.524 . S
C1239 C1243 1.400 . S
C1240 H1225 0.960 . S
C1240 H1226 0.960 . S
C1240 H1227 0.960 . S
C1240 C1239 1.524 . S
C1241 C1238 1.403 . S
C1241 C1242 1.392 . S
C1241 C1245 1.495 1_655 S
C1242 C1241 1.392 . S
C1242 C1243 1.385 . S
C1242 C1244 1.478 . S
C1243 H1237 0.930 . S
C1243 C1239 1.400 . S
C1243 C1242 1.385 . S
C1244 C1242 1.478 . S
C1244 C1246 1.381 1_655 S
C1244 C1250 1.383 . S
C1245 C1241 1.495 1_455 S
C1245 H1251 0.959 . S
C1245 H1252 0.983 . S
C1245 H1253 0.960 . S
C1246 C1244 1.381 1_455 S
C1246 C1247 1.394 . S
C1246 H1254 0.930 . S
C1247 C1246 1.394 . S
C1247 C1248 1.383 1_455 S
C1247 H1255 0.929 . S
C1248 C1247 1.383 1_655 S
C1248 C1249 1.377 . S
C1249 H1233 0.930 . S
C1249 C1248 1.377 . S
C1249 C1250 1.379 . S
C1250 H1234 0.931 . S
C1250 C1244 1.383 . S
C1250 C1249 1.379 . S
H1251 C1245 0.959 . S
H1252 C1245 0.983 . S
H1253 C1245 0.960 . S
H1254 C1246 0.930 . S
H1255 C1247 0.929 . S
H1256 C1264 0.929 . S
H1257 C1266 0.930 . S
H1258 C1268 0.930 . S
H1259 C1271 0.929 . S
H1260 C1274 0.930 . S
H1261 C1276 0.960 . S
H1262 C1276 0.960 . S
H1263 C1276 0.960 . S
C1264 H1256 0.929 . S
C1264 C1265 1.377 . S
C1264 C1266 1.384 . S
C1265 C1264 1.377 . S
C1265 C1271 1.390 . S
C1266 H1257 0.930 . S
C1266 C1264 1.384 . S
C1266 C1267 1.372 . S
C1267 C1266 1.372 . S
C1267 C1268 1.400 . S
C1267 C1272 1.490 . S
C1268 H1258 0.930 . S
C1268 C1267 1.400 . S
C1268 C1271 1.386 . S
H1269 C1285 0.930 . S
H1270 C1286 0.931 . S
C1271 H1259 0.929 . S
C1271 C1265 1.390 . S
C1271 C1268 1.386 . S
C1272 C1267 1.490 . S
C1272 C1274 1.395 . S
C1272 C1275 1.403 . S
H1273 C1279 0.930 . S
C1274 H1260 0.930 . S
C1274 C1272 1.395 . S
C1274 C1277 1.403 . S
C1275 C1272 1.403 . S
C1275 C1276 1.524 . S
C1275 C1279 1.400 . S
C1276 H1261 0.960 . S
C1276 H1262 0.960 . S
C1276 H1263 0.960 . S
C1276 C1275 1.524 . S
C1277 C1274 1.403 . S
C1277 C1278 1.392 . S
C1277 C1281 1.495 . S
C1278 C1277 1.392 . S
C1278 C1279 1.385 . S
C1278 C1280 1.478 . S
C1279 H1273 0.930 . S
C1279 C1275 1.400 . S
C1279 C1278 1.385 . S
C1280 C1278 1.478 . S
C1280 C1282 1.381 . S
C1280 C1286 1.383 . S
C1281 C1277 1.495 . S
C1281 H1287 0.959 . S
C1281 H1288 0.961 . S
C1281 H1289 0.960 . S
C1282 C1280 1.381 . S
C1282 C1283 1.394 . S
C1282 H1290 0.930 . S
C1283 C1282 1.394 . S
C1283 C1284 1.383 . S
C1283 H1291 0.929 . S
C1284 C1283 1.383 . S
C1284 C1285 1.377 . S
C1285 H1269 0.930 . S
C1285 C1284 1.377 . S
C1285 C1286 1.379 . S
C1286 H1270 0.931 . S
C1286 C1280 1.383 . S
C1286 C1285 1.379 . S
H1287 C1281 0.959 . S
H1288 C1281 0.961 . S
H1289 C1281 0.960 . S
H1290 C1282 0.930 . S
H1291 C1283 0.929 . S
H1292 C1300 0.929 . S
H1293 C1302 0.930 . S
H1294 C1304 0.930 . S
H1295 C1307 0.929 . S
H1296 C1310 0.930 . S
H1297 C1312 0.960 . S
H1298 C1312 0.960 . S
H1299 C1312 0.960 . S
C1300 H1292 0.929 . S
C1300 C1301 1.377 . S
C1300 C1302 1.384 . S
C1301 C1300 1.377 . S
C1301 C1307 1.390 . S
C1302 H1293 0.930 . S
C1302 C1300 1.384 . S
C1302 C1303 1.372 . S
C1303 C1302 1.372 . S
C1303 C1304 1.400 . S
C1303 C1308 1.490 . S
C1304 H1294 0.930 . S
C1304 C1303 1.400 . S
C1304 C1307 1.386 . S
H1305 C1321 0.930 . S
H1306 C1322 0.931 . S
C1307 H1295 0.929 . S
C1307 C1301 1.390 . S
C1307 C1304 1.386 . S
C1308 C1303 1.490 . S
C1308 C1310 1.395 . S
C1308 C1311 1.403 . S
H1309 C1315 0.930 . S
C1310 H1296 0.930 . S
C1310 C1308 1.395 . S
C1310 C1313 1.403 . S
C1311 C1308 1.403 . S
C1311 C1312 1.524 . S
C1311 C1315 1.400 . S
C1312 H1297 0.960 . S
C1312 H1298 0.960 . S
C1312 H1299 0.960 . S
C1312 C1311 1.524 . S
C1313 C1310 1.403 . S
C1313 C1314 1.392 . S
C1313 C1317 1.495 . S
C1314 C1313 1.392 . S
C1314 C1315 1.385 . S
C1314 C1316 1.478 . S
C1315 H1309 0.930 . S
C1315 C1311 1.400 . S
C1315 C1314 1.385 . S
C1316 C1314 1.478 . S
C1316 C1318 1.381 . S
C1316 C1322 1.383 . S
C1317 C1313 1.495 . S
C1317 H1323 0.959 . S
C1317 H1324 0.961 . S
C1317 H1325 0.960 . S
C1318 C1316 1.381 . S
C1318 C1319 1.394 . S
C1318 H1326 0.930 . S
C1319 C1318 1.394 . S
C1319 C1320 1.383 . S
C1319 H1327 0.929 . S
C1320 C1319 1.383 . S
C1320 C1321 1.377 . S
C1321 H1305 0.930 . S
C1321 C1320 1.377 . S
C1321 C1322 1.379 . S
C1322 H1306 0.931 . S
C1322 C1316 1.383 . S
C1322 C1321 1.379 . S
H1323 C1317 0.959 . S
H1324 C1317 0.961 . S
H1325 C1317 0.960 . S
H1326 C1318 0.930 . S
H1327 C1319 0.929 . S
H1328 C1336 0.929 1_545 S
H1329 C1338 0.930 . S
H1330 C1340 0.930 . S
H1331 C1343 0.929 . S
H1332 C1346 0.930 . S
H1333 C1348 0.960 . S
H1334 C1348 0.960 . S
H1335 C1348 0.960 . S
C1336 H1328 0.929 1_565 S
C1336 C1337 1.377 . S
C1336 C1338 1.384 . S
C1337 C1336 1.377 . S
C1337 C1343 1.390 . S
C1338 H1329 0.930 . S
C1338 C1336 1.384 . S
C1338 C1339 1.372 . S
C1339 C1338 1.372 . S
C1339 C1340 1.400 . S
C1339 C1344 1.490 . S
C1340 H1330 0.930 . S
C1340 C1339 1.400 . S
C1340 C1343 1.386 . S
H1341 C1357 0.930 . S
H1342 C1358 0.931 . S
C1343 H1331 0.929 . S
C1343 C1337 1.390 . S
C1343 C1340 1.386 . S
C1344 C1339 1.490 . S
C1344 C1346 1.395 . S
C1344 C1347 1.444 . S
H1345 C1351 0.911 1_554 S
C1346 H1332 0.930 . S
C1346 C1344 1.395 . S
C1346 C1349 1.403 . S
C1347 C1344 1.444 . S
C1347 C1348 1.487 1_556 S
C1347 C1351 1.398 . S
C1348 H1333 0.960 . S
C1348 H1334 0.960 . S
C1348 H1335 0.960 . S
C1348 C1347 1.487 1_554 S
C1349 C1346 1.403 . S
C1349 C1350 1.392 . S
C1349 C1353 1.495 . S
C1350 C1349 1.392 . S
C1350 C1351 1.402 . S
C1350 C1352 1.478 . S
C1351 H1345 0.911 1_556 S
C1351 C1347 1.398 . S
C1351 C1350 1.402 . S
C1352 C1350 1.478 . S
C1352 C1354 1.381 . S
C1352 C1358 1.383 . S
C1353 C1349 1.495 . S
C1353 H1359 0.959 . S
C1353 H1360 0.961 . S
C1353 H1361 0.960 . S
C1354 C1352 1.381 . S
C1354 C1355 1.390 1_556 S
C1354 H1362 0.927 1_556 S
C1355 C1354 1.390 1_554 S
C1355 C1356 1.378 1_554 S
C1355 H1363 0.940 . S
C1356 C1355 1.378 1_556 S
C1356 C1357 1.377 . S
C1357 H1341 0.930 . S
C1357 C1356 1.377 . S
C1357 C1358 1.379 . S
C1358 H1342 0.931 . S
C1358 C1352 1.383 . S
C1358 C1357 1.379 . S
H1359 C1353 0.959 . S
H1360 C1353 0.961 . S
H1361 C1353 0.960 . S
H1362 C1354 0.927 1_554 S
H1363 C1355 0.940 . S
H1364 C1372 0.929 . S
H1365 C1374 0.930 . S
H1366 C1376 0.930 . S
H1367 C1379 0.929 . S
H1368 C1382 0.930 . S
H1369 C1384 0.960 . S
H1370 C1384 0.960 . S
H1371 C1384 0.960 . S
C1372 H1364 0.929 . S
C1372 C1373 1.377 . S
C1372 C1374 1.384 . S
C1373 C1372 1.377 . S
C1373 C1379 1.390 . S
C1374 H1365 0.930 . S
C1374 C1372 1.384 . S
C1374 C1375 1.372 . S
C1375 C1374 1.372 . S
C1375 C1376 1.400 . S
C1375 C1380 1.490 . S
C1376 H1366 0.930 . S
C1376 C1375 1.400 . S
C1376 C1379 1.386 . S
H1377 C1393 0.930 . S
H1378 C1394 0.931 . S
C1379 H1367 0.929 . S
C1379 C1373 1.390 . S
C1379 C1376 1.386 . S
C1380 C1375 1.490 . S
C1380 C1382 1.395 . S
C1380 C1383 1.403 . S
H1381 C1387 0.930 . S
C1382 H1368 0.930 . S
C1382 C1380 1.395 . S
C1382 C1385 1.403 . S
C1383 C1380 1.403 . S
C1383 C1384 1.524 . S
C1383 C1387 1.400 . S
C1384 H1369 0.960 . S
C1384 H1370 0.960 . S
C1384 H1371 0.960 . S
C1384 C1383 1.524 . S
C1385 C1382 1.403 . S
C1385 C1386 1.392 . S
C1385 C1389 1.495 . S
C1386 C1385 1.392 . S
C1386 C1387 1.385 . S
C1386 C1388 1.478 . S
C1387 H1381 0.930 . S
C1387 C1383 1.400 . S
C1387 C1386 1.385 . S
C1388 C1386 1.478 . S
C1388 C1390 1.381 . S
C1388 C1394 1.383 . S
C1389 C1385 1.495 . S
C1389 H1395 0.959 . S
C1389 H1396 0.961 . S
C1389 H1397 0.960 . S
C1390 C1388 1.381 . S
C1390 C1391 1.394 . S
C1390 H1398 0.930 . S
C1391 C1390 1.394 . S
C1391 C1392 1.383 . S
C1391 H1399 0.929 . S
C1392 C1391 1.383 . S
C1392 C1393 1.377 . S
C1393 H1377 0.930 . S
C1393 C1392 1.377 . S
C1393 C1394 1.379 . S
C1394 H1378 0.931 . S
C1394 C1388 1.383 . S
C1394 C1393 1.379 . S
H1395 C1389 0.959 . S
H1396 C1389 0.961 . S
H1397 C1389 0.960 . S
H1398 C1390 0.930 . S
H1399 C1391 0.929 . S
H1400 C1408 0.980 . S
H1401 C1410 0.930 . S
H1402 C1412 0.930 . S
H1403 C1415 0.929 . S
H1404 C1418 0.930 . S
H1405 C1420 0.960 . S
H1406 C1420 0.960 . S
H1407 C1420 0.960 . S
C1408 H1400 0.980 . S
C1408 C1409 1.377 . S
C1408 C1410 1.384 . S
C1409 C1408 1.377 . S
C1409 C1415 1.390 . S
C1410 H1401 0.930 . S
C1410 C1408 1.384 . S
C1410 C1411 1.372 . S
C1411 C1410 1.372 . S
C1411 C1412 1.400 . S
C1411 C1416 1.490 . S
C1412 H1402 0.930 . S
C1412 C1411 1.400 . S
C1412 C1415 1.386 . S
H1413 C1429 0.930 . S
H1414 C1430 0.931 . S
C1415 H1403 0.929 . S
C1415 C1409 1.390 . S
C1415 C1412 1.386 . S
C1416 C1411 1.490 . S
C1416 C1418 1.395 . S
C1416 C1419 1.403 . S
H1417 C1423 0.930 . S
C1418 H1404 0.930 . S
C1418 C1416 1.395 . S
C1418 C1421 1.403 . S
C1419 C1416 1.403 . S
C1419 C1420 1.524 . S
C1419 C1423 1.400 . S
C1420 H1405 0.960 . S
C1420 H1406 0.960 . S
C1420 H1407 0.960 . S
C1420 C1419 1.524 . S
C1421 C1418 1.403 . S
C1421 C1422 1.392 . S
C1421 C1425 1.495 . S
C1422 C1421 1.392 . S
C1422 C1423 1.385 . S
C1422 C1424 1.478 . S
C1423 H1417 0.930 . S
C1423 C1419 1.400 . S
C1423 C1422 1.385 . S
C1424 C1422 1.478 . S
C1424 C1426 1.381 . S
C1424 C1430 1.383 . S
C1425 C1421 1.495 . S
C1425 H1431 0.959 . S
C1425 H1432 0.961 . S
C1425 H1433 0.960 . S
C1426 C1424 1.381 . S
C1426 C1427 1.394 . S
C1426 H1434 0.930 . S
C1427 C1426 1.394 . S
C1427 C1428 1.383 . S
C1427 H1435 0.929 . S
C1428 C1427 1.383 . S
C1428 C1429 1.377 . S
C1429 H1413 0.930 . S
C1429 C1428 1.377 . S
C1429 C1430 1.379 . S
C1430 H1414 0.931 . S
C1430 C1424 1.383 . S
C1430 C1429 1.379 . S
H1431 C1425 0.959 . S
H1432 C1425 0.961 . S
H1433 C1425 0.960 . S
H1434 C1426 0.930 . S
H1435 C1427 0.929 . S
H1436 C1444 0.929 . S
H1437 C1446 0.930 . S
H1438 C1448 0.930 . S
H1439 C1451 0.929 . S
H1440 C1454 0.930 . S
H1441 C1456 0.960 . S
H1442 C1456 0.960 . S
H1443 C1456 0.960 . S
C1444 H1436 0.929 . S
C1444 C1445 1.377 . S
C1444 C1446 1.384 . S
C1445 C1444 1.377 . S
C1445 C1451 1.390 . S
C1446 H1437 0.930 . S
C1446 C1444 1.384 . S
C1446 C1447 1.372 . S
C1447 C1446 1.372 . S
C1447 C1448 1.400 . S
C1447 C1452 1.490 . S
C1448 H1438 0.930 . S
C1448 C1447 1.400 . S
C1448 C1451 1.386 . S
H1449 C1465 0.930 . S
H1450 C1466 0.931 . S
C1451 H1439 0.929 . S
C1451 C1445 1.390 . S
C1451 C1448 1.386 . S
C1452 C1447 1.490 . S
C1452 C1454 1.395 . S
C1452 C1455 1.403 . S
H1453 C1459 0.930 . S
C1454 H1440 0.930 . S
C1454 C1452 1.395 . S
C1454 C1457 1.403 . S
C1455 C1452 1.403 . S
C1455 C1456 1.524 . S
C1455 C1459 1.400 . S
C1456 H1441 0.960 . S
C1456 H1442 0.960 . S
C1456 H1443 0.960 . S
C1456 C1455 1.524 . S
C1457 C1454 1.403 . S
C1457 C1458 1.392 . S
C1457 C1461 1.495 . S
C1458 C1457 1.392 . S
C1458 C1459 1.385 . S
C1458 C1460 1.478 . S
C1459 H1453 0.930 . S
C1459 C1455 1.400 . S
C1459 C1458 1.385 . S
C1460 C1458 1.478 . S
C1460 C1462 1.381 . S
C1460 C1466 1.383 . S
C1461 C1457 1.495 . S
C1461 H1467 0.959 . S
C1461 H1468 0.961 . S
C1461 H1469 0.960 . S
C1462 C1460 1.381 . S
C1462 C1463 1.394 . S
C1462 H1470 0.930 . S
C1463 C1462 1.394 . S
C1463 C1464 1.383 . S
C1463 H1471 0.929 . S
C1464 C1463 1.383 . S
C1464 C1465 1.377 . S
C1465 H1449 0.930 . S
C1465 C1464 1.377 . S
C1465 C1466 1.379 . S
C1466 H1450 0.931 . S
C1466 C1460 1.383 . S
C1466 C1465 1.379 . S
H1467 C1461 0.959 . S
H1468 C1461 0.961 . S
H1469 C1461 0.960 . S
H1470 C1462 0.930 . S
H1471 C1463 0.929 . S
H1472 C1480 0.929 . S
H1473 C1482 0.930 . S
H1474 C1484 0.930 . S
H1475 C1487 0.929 . S
H1476 C1490 0.930 . S
H1477 C1492 0.960 . S
H1478 C1492 0.960 . S
H1479 C1492 0.960 . S
C1480 H1472 0.929 . S
C1480 C1481 1.377 . S
C1480 C1482 1.384 . S
C1481 C1480 1.377 . S
C1481 C1487 1.390 . S
C1482 H1473 0.930 . S
C1482 C1480 1.384 . S
C1482 C1483 1.372 . S
C1483 C1482 1.372 . S
C1483 C1484 1.400 . S
C1483 C1488 1.490 . S
C1484 H1474 0.930 . S
C1484 C1483 1.400 . S
C1484 C1487 1.386 . S
H1485 C1501 0.930 . S
H1486 C1502 0.931 . S
C1487 H1475 0.929 . S
C1487 C1481 1.390 . S
C1487 C1484 1.386 . S
C1488 C1483 1.490 . S
C1488 C1490 1.395 . S
C1488 C1491 1.403 . S
H1489 C1495 0.930 . S
C1490 H1476 0.930 . S
C1490 C1488 1.395 . S
C1490 C1493 1.403 . S
C1491 C1488 1.403 . S
C1491 C1492 1.524 . S
C1491 C1495 1.400 . S
C1492 H1477 0.960 . S
C1492 H1478 0.960 . S
C1492 H1479 0.960 . S
C1492 C1491 1.524 . S
C1493 C1490 1.403 . S
C1493 C1494 1.392 . S
C1493 C1497 1.495 . S
C1494 C1493 1.392 . S
C1494 C1495 1.385 . S
C1494 C1496 1.478 . S
C1495 H1489 0.930 . S
C1495 C1491 1.400 . S
C1495 C1494 1.385 . S
C1496 C1494 1.478 . S
C1496 C1498 1.381 . S
C1496 C1502 1.383 . S
C1497 C1493 1.495 . S
C1497 H1503 0.959 . S
C1497 H1504 0.961 . S
C1497 H1505 0.960 . S
C1498 C1496 1.381 . S
C1498 C1499 1.394 . S
C1498 H1506 0.930 . S
C1499 C1498 1.394 . S
C1499 C1500 1.383 . S
C1499 H1507 0.929 . S
C1500 C1499 1.383 . S
C1500 C1501 1.377 . S
C1501 H1485 0.930 . S
C1501 C1500 1.377 . S
C1501 C1502 1.379 . S
C1502 H1486 0.931 . S
C1502 C1496 1.383 . S
C1502 C1501 1.379 . S
H1503 C1497 0.959 . S
H1504 C1497 0.961 . S
H1505 C1497 0.960 . S
H1506 C1498 0.930 . S
H1507 C1499 0.929 . S
H1508 C1516 0.929 . S
H1509 C1518 0.930 . S
H1510 C1520 0.930 . S
H1511 C1523 0.929 . S
H1512 C1526 0.930 . S
H1513 C1528 0.960 . S
H1514 C1528 0.960 . S
H1515 C1528 0.960 . S
C1516 H1508 0.929 . S
C1516 C1517 1.377 . S
C1516 C1518 1.384 . S
C1517 C1516 1.377 . S
C1517 C1523 1.390 . S
C1518 H1509 0.930 . S
C1518 C1516 1.384 . S
C1518 C1519 1.372 . S
C1519 C1518 1.372 . S
C1519 C1520 1.400 . S
C1519 C1524 1.490 . S
C1520 H1510 0.930 . S
C1520 C1519 1.400 . S
C1520 C1523 1.386 . S
H1521 C1537 0.930 . S
H1522 C1538 0.931 . S
C1523 H1511 0.929 . S
C1523 C1517 1.390 . S
C1523 C1520 1.386 . S
C1524 C1519 1.490 . S
C1524 C1526 1.395 . S
C1524 C1527 1.403 . S
H1525 C1531 0.930 . S
C1526 H1512 0.930 . S
C1526 C1524 1.395 . S
C1526 C1529 1.403 . S
C1527 C1524 1.403 . S
C1527 C1528 1.524 . S
C1527 C1531 1.400 . S
C1528 H1513 0.960 . S
C1528 H1514 0.960 . S
C1528 H1515 0.960 . S
C1528 C1527 1.524 . S
C1529 C1526 1.403 . S
C1529 C1530 1.392 . S
C1529 C1533 1.495 . S
C1530 C1529 1.392 . S
C1530 C1531 1.385 . S
C1530 C1532 1.478 . S
C1531 H1525 0.930 . S
C1531 C1527 1.400 . S
C1531 C1530 1.385 . S
C1532 C1530 1.478 . S
C1532 C1534 1.381 . S
C1532 C1538 1.383 . S
C1533 C1529 1.495 . S
C1533 H1539 0.959 . S
C1533 H1540 0.961 . S
C1533 H1541 0.960 . S
C1534 C1532 1.381 . S
C1534 C1535 1.394 . S
C1534 H1542 0.930 . S
C1535 C1534 1.394 . S
C1535 C1536 1.383 . S
C1535 H1543 0.929 . S
C1536 C1535 1.383 . S
C1536 C1537 1.377 . S
C1537 H1521 0.930 . S
C1537 C1536 1.377 . S
C1537 C1538 1.379 . S
C1538 H1522 0.931 . S
C1538 C1532 1.383 . S
C1538 C1537 1.379 . S
H1539 C1533 0.959 . S
H1540 C1533 0.961 . S
H1541 C1533 0.960 . S
H1542 C1534 0.930 . S
H1543 C1535 0.929 . S
H1544 C1552 0.929 . S
H1545 C1554 0.930 . S
H1546 C1556 0.930 . S
H1547 C1559 0.929 . S
H1548 C1562 0.930 . S
H1549 C1564 0.960 . S
H1550 C1564 0.960 . S
H1551 C1564 0.960 . S
C1552 H1544 0.929 . S
C1552 C1553 1.377 . S
C1552 C1554 1.384 . S
C1553 C1552 1.377 . S
C1553 C1559 1.390 . S
C1554 H1545 0.930 . S
C1554 C1552 1.384 . S
C1554 C1555 1.372 . S
C1555 C1554 1.372 . S
C1555 C1556 1.400 . S
C1555 C1560 1.490 . S
C1556 H1546 0.930 . S
C1556 C1555 1.400 . S
C1556 C1559 1.386 . S
H1557 C1573 0.930 . S
H1558 C1574 0.931 . S
C1559 H1547 0.929 . S
C1559 C1553 1.390 . S
C1559 C1556 1.386 . S
C1560 C1555 1.490 . S
C1560 C1562 1.395 . S
C1560 C1563 1.403 . S
H1561 C1567 0.930 . S
C1562 H1548 0.930 . S
C1562 C1560 1.395 . S
C1562 C1565 1.403 . S
C1563 C1560 1.403 . S
C1563 C1564 1.524 . S
C1563 C1567 1.400 . S
C1564 H1549 0.960 . S
C1564 H1550 0.960 . S
C1564 H1551 0.960 . S
C1564 C1563 1.524 . S
C1565 C1562 1.403 . S
C1565 C1566 1.392 . S
C1565 C1569 1.495 . S
C1566 C1565 1.392 . S
C1566 C1567 1.385 . S
C1566 C1568 1.478 . S
C1567 H1561 0.930 . S
C1567 C1563 1.400 . S
C1567 C1566 1.385 . S
C1568 C1566 1.478 . S
C1568 C1570 1.381 . S
C1568 C1574 1.383 . S
C1569 C1565 1.495 . S
C1569 H1575 0.959 . S
C1569 H1576 0.961 . S
C1569 H1577 0.960 . S
C1570 C1568 1.381 . S
C1570 C1571 1.394 . S
C1570 H1578 0.930 . S
C1571 C1570 1.394 . S
C1571 C1572 1.383 . S
C1571 H1579 0.929 . S
C1572 C1571 1.383 . S
C1572 C1573 1.377 . S
C1573 H1557 0.930 . S
C1573 C1572 1.377 . S
C1573 C1574 1.379 . S
C1574 H1558 0.931 . S
C1574 C1568 1.383 . S
C1574 C1573 1.379 . S
H1575 C1569 0.959 . S
H1576 C1569 0.961 . S
H1577 C1569 0.960 . S
H1578 C1570 0.930 . S
H1579 C1571 0.929 . S
H1580 C1588 0.929 . S
H1581 C1590 0.930 . S
H1582 C1592 0.930 1_565 S
H1583 C1595 0.929 1_565 S
H1584 C1598 0.930 . S
H1585 C1600 0.960 . S
H1586 C1600 0.960 . S
H1587 C1600 0.960 . S
C1588 H1580 0.929 . S
C1588 C1589 1.377 . S
C1588 C1590 1.384 . S
C1589 C1588 1.377 . S
C1589 C1595 1.390 . S
C1590 H1581 0.930 . S
C1590 C1588 1.384 . S
C1590 C1591 1.372 . S
C1591 C1590 1.372 . S
C1591 C1592 1.400 . S
C1591 C1596 1.490 . S
C1592 H1582 0.930 1_545 S
C1592 C1591 1.400 . S
C1592 C1595 1.386 . S
H1593 C1609 0.930 . S
H1594 C1610 0.931 . S
C1595 H1583 0.929 1_545 S
C1595 C1589 1.390 . S
C1595 C1592 1.386 . S
C1596 C1591 1.490 . S
C1596 C1598 1.395 . S
C1596 C1599 1.403 . S
H1597 C1603 0.930 . S
C1598 H1584 0.930 . S
C1598 C1596 1.395 . S
C1598 C1601 1.403 . S
C1599 C1596 1.403 . S
C1599 C1600 1.524 . S
C1599 C1603 1.400 . S
C1600 H1585 0.960 . S
C1600 H1586 0.960 . S
C1600 H1587 0.960 . S
C1600 C1599 1.524 . S
C1601 C1598 1.403 . S
C1601 C1602 1.392 . S
C1601 C1605 1.495 . S
C1602 C1601 1.392 . S
C1602 C1603 1.385 . S
C1602 C1604 1.478 . S
C1603 H1597 0.930 . S
C1603 C1599 1.400 . S
C1603 C1602 1.385 . S
C1604 C1602 1.478 . S
C1604 C1606 1.381 . S
C1604 C1610 1.383 1_545 S
C1605 C1601 1.495 . S
C1605 H1611 0.959 . S
C1605 H1612 0.961 . S
C1605 H1613 0.960 . S
C1606 C1604 1.381 . S
C1606 C1607 1.394 . S
C1606 H1614 0.930 . S
C1607 C1606 1.394 . S
C1607 C1608 1.383 . S
C1607 H1615 0.929 . S
C1608 C1607 1.383 . S
C1608 C1609 1.377 1_545 S
C1609 H1593 0.930 . S
C1609 C1608 1.377 1_565 S
C1609 C1610 1.379 . S
C1610 H1594 0.931 . S
C1610 C1604 1.383 1_565 S
C1610 C1609 1.379 . S
H1611 C1605 0.959 . S
H1612 C1605 0.961 . S
H1613 C1605 0.960 . S
H1614 C1606 0.930 . S
H1615 C1607 0.929 . S
H1616 C1624 0.929 . S
H1617 C1626 0.930 . S
H1618 C1628 0.930 . S
H1619 C1631 0.929 . S
H1620 C1634 0.930 . S
H1621 C1636 0.960 . S
H1622 C1636 0.960 . S
H1623 C1636 0.960 . S
C1624 H1616 0.929 . S
C1624 C1625 1.377 . S
C1624 C1626 1.384 . S
C1625 C1624 1.377 . S
C1625 C1631 1.390 . S
C1626 H1617 0.930 . S
C1626 C1624 1.384 . S
C1626 C1627 1.372 . S
C1627 C1626 1.372 . S
C1627 C1628 1.400 . S
C1627 C1632 1.490 . S
C1628 H1618 0.930 . S
C1628 C1627 1.400 . S
C1628 C1631 1.386 . S
H1629 C1645 0.930 . S
H1630 C1646 0.931 . S
C1631 H1619 0.929 . S
C1631 C1625 1.390 . S
C1631 C1628 1.386 . S
C1632 C1627 1.490 . S
C1632 C1634 1.395 . S
C1632 C1635 1.403 . S
H1633 C1639 0.930 . S
C1634 H1620 0.930 . S
C1634 C1632 1.395 . S
C1634 C1637 1.403 . S
C1635 C1632 1.403 . S
C1635 C1636 1.524 . S
C1635 C1639 1.400 . S
C1636 H1621 0.960 . S
C1636 H1622 0.960 . S
C1636 H1623 0.960 . S
C1636 C1635 1.524 . S
C1637 C1634 1.403 . S
C1637 C1638 1.392 . S
C1637 C1641 1.495 . S
C1638 C1637 1.392 . S
C1638 C1639 1.385 . S
C1638 C1640 1.478 . S
C1639 H1633 0.930 . S
C1639 C1635 1.400 . S
C1639 C1638 1.385 . S
C1640 C1638 1.478 . S
C1640 C1642 1.381 . S
C1640 C1646 1.383 . S
C1641 C1637 1.495 . S
C1641 H1647 0.959 . S
C1641 H1648 0.961 . S
C1641 H1649 0.960 . S
C1642 C1640 1.381 . S
C1642 C1643 1.394 . S
C1642 H1650 0.930 . S
C1643 C1642 1.394 . S
C1643 C1644 1.383 . S
C1643 H1651 0.929 . S
C1644 C1643 1.383 . S
C1644 C1645 1.377 . S
C1645 H1629 0.930 . S
C1645 C1644 1.377 . S
C1645 C1646 1.379 . S
C1646 H1630 0.931 . S
C1646 C1640 1.383 . S
C1646 C1645 1.379 . S
H1647 C1641 0.959 . S
H1648 C1641 0.961 . S
H1649 C1641 0.960 . S
H1650 C1642 0.930 . S
H1651 C1643 0.929 . S
H1652 C1660 0.929 . S
H1653 C1662 0.930 . S
H1654 C1664 0.930 . S
H1655 C1667 0.929 . S
H1656 C1670 0.930 . S
H1657 C1672 0.960 . S
H1658 C1672 0.960 . S
H1659 C1672 0.960 . S
C1660 H1652 0.929 . S
C1660 C1661 1.377 . S
C1660 C1662 1.384 . S
C1661 C1660 1.377 . S
C1661 C1667 1.390 . S
C1662 H1653 0.930 . S
C1662 C1660 1.384 . S
C1662 C1663 1.372 . S
C1663 C1662 1.372 . S
C1663 C1664 1.400 . S
C1663 C1668 1.490 . S
C1664 H1654 0.930 . S
C1664 C1663 1.400 . S
C1664 C1667 1.386 . S
H1665 C1681 0.930 . S
H1666 C1682 0.931 . S
C1667 H1655 0.929 . S
C1667 C1661 1.390 . S
C1667 C1664 1.386 . S
C1668 C1663 1.490 . S
C1668 C1670 1.395 . S
C1668 C1671 1.403 . S
H1669 C1675 0.930 . S
C1670 H1656 0.930 . S
C1670 C1668 1.395 . S
C1670 C1673 1.403 . S
C1671 C1668 1.403 . S
C1671 C1672 1.524 . S
C1671 C1675 1.400 . S
C1672 H1657 0.960 . S
C1672 H1658 0.960 . S
C1672 H1659 0.960 . S
C1672 C1671 1.524 . S
C1673 C1670 1.403 . S
C1673 C1674 1.392 . S
C1673 C1677 1.495 . S
C1674 C1673 1.392 . S
C1674 C1675 1.385 . S
C1674 C1676 1.478 . S
C1675 H1669 0.930 . S
C1675 C1671 1.400 . S
C1675 C1674 1.385 . S
C1676 C1674 1.478 . S
C1676 C1678 1.381 . S
C1676 C1682 1.383 . S
C1677 C1673 1.495 . S
C1677 H1683 0.959 . S
C1677 H1684 0.961 . S
C1677 H1685 0.960 . S
C1678 C1676 1.381 . S
C1678 C1679 1.394 . S
C1678 H1686 0.930 . S
C1679 C1678 1.394 . S
C1679 C1680 1.383 . S
C1679 H1687 0.929 . S
C1680 C1679 1.383 . S
C1680 C1681 1.377 . S
C1681 H1665 0.930 . S
C1681 C1680 1.377 . S
C1681 C1682 1.379 . S
C1682 H1666 0.931 . S
C1682 C1676 1.383 . S
C1682 C1681 1.379 . S
H1683 C1677 0.959 . S
H1684 C1677 0.961 . S
H1685 C1677 0.960 . S
H1686 C1678 0.930 . S
H1687 C1679 0.929 . S
H1688 C1696 0.929 . S
H1689 C1698 0.930 . S
H1690 C1700 0.930 . S
H1691 C1703 0.929 . S
H1692 C1706 0.930 . S
H1693 C1708 0.960 . S
H1694 C1708 0.960 . S
H1695 C1708 0.960 . S
C1696 H1688 0.929 . S
C1696 C1697 1.377 . S
C1696 C1698 1.384 . S
C1697 C1696 1.377 . S
C1697 C1703 1.390 . S
C1698 H1689 0.930 . S
C1698 C1696 1.384 . S
C1698 C1699 1.372 . S
C1699 C1698 1.372 . S
C1699 C1700 1.400 . S
C1699 C1704 1.490 . S
C1700 H1690 0.930 . S
C1700 C1699 1.400 . S
C1700 C1703 1.386 . S
H1701 C1717 0.930 . S
H1702 C1718 0.931 . S
C1703 H1691 0.929 . S
C1703 C1697 1.390 . S
C1703 C1700 1.386 . S
C1704 C1699 1.490 . S
C1704 C1706 1.395 . S
C1704 C1707 1.403 . S
H1705 C1711 0.930 . S
C1706 H1692 0.930 . S
C1706 C1704 1.395 . S
C1706 C1709 1.403 . S
C1707 C1704 1.403 . S
C1707 C1708 1.524 . S
C1707 C1711 1.400 . S
C1708 H1693 0.960 . S
C1708 H1694 0.960 . S
C1708 H1695 0.960 . S
C1708 C1707 1.524 . S
C1709 C1706 1.403 . S
C1709 C1710 1.392 . S
C1709 C1713 1.495 . S
C1710 C1709 1.392 . S
C1710 C1711 1.385 . S
C1710 C1712 1.478 . S
C1711 H1705 0.930 . S
C1711 C1707 1.400 . S
C1711 C1710 1.385 . S
C1712 C1710 1.478 . S
C1712 C1714 1.381 . S
C1712 C1718 1.383 . S
C1713 C1709 1.495 . S
C1713 H1719 0.959 . S
C1713 H1720 0.961 . S
C1713 H1721 0.960 . S
C1714 C1712 1.381 . S
C1714 C1715 1.394 . S
C1714 H1722 0.930 . S
C1715 C1714 1.394 . S
C1715 C1716 1.383 . S
C1715 H1723 0.929 . S
C1716 C1715 1.383 . S
C1716 C1717 1.377 . S
C1717 H1701 0.930 . S
C1717 C1716 1.377 . S
C1717 C1718 1.379 . S
C1718 H1702 0.931 . S
C1718 C1712 1.383 . S
C1718 C1717 1.379 . S
H1719 C1713 0.959 . S
H1720 C1713 0.961 . S
H1721 C1713 0.960 . S
H1722 C1714 0.930 . S
H1723 C1715 0.929 . S
H1724 C1732 0.929 . S
H1725 C1734 0.930 . S
H1726 C1736 0.930 . S
H1727 C1739 0.929 . S
H1728 C1742 0.930 . S
H1729 C1744 0.960 . S
H1730 C1744 0.960 . S
H1731 C1744 0.960 . S
C1732 H1724 0.929 . S
C1732 C1733 1.377 . S
C1732 C1734 1.384 . S
C1733 C1732 1.377 . S
C1733 C1739 1.390 . S
C1734 H1725 0.930 . S
C1734 C1732 1.384 . S
C1734 C1735 1.372 . S
C1735 C1734 1.372 . S
C1735 C1736 1.400 . S
C1735 C1740 1.490 . S
C1736 H1726 0.930 . S
C1736 C1735 1.400 . S
C1736 C1739 1.386 . S
H1737 C1753 0.930 1_565 S
H1738 C1754 0.931 1_565 S
C1739 H1727 0.929 . S
C1739 C1733 1.390 . S
C1739 C1736 1.386 . S
C1740 C1735 1.490 . S
C1740 C1742 1.395 . S
C1740 C1743 1.403 . S
H1741 C1747 0.930 . S
C1742 H1728 0.930 . S
C1742 C1740 1.395 . S
C1742 C1745 1.403 . S
C1743 C1740 1.403 . S
C1743 C1744 1.524 . S
C1743 C1747 1.400 . S
C1744 H1729 0.960 . S
C1744 H1730 0.960 . S
C1744 H1731 0.960 . S
C1744 C1743 1.524 . S
C1745 C1742 1.403 . S
C1745 C1746 1.392 . S
C1745 C1749 1.495 . S
C1746 C1745 1.392 . S
C1746 C1747 1.385 . S
C1746 C1748 1.478 . S
C1747 H1741 0.930 . S
C1747 C1743 1.400 . S
C1747 C1746 1.385 . S
C1748 C1746 1.478 . S
C1748 C1750 1.381 . S
C1748 C1754 1.383 . S
C1749 C1745 1.495 . S
C1749 H1755 0.959 . S
C1749 H1756 0.961 . S
C1749 H1757 0.960 . S
C1750 C1748 1.381 . S
C1750 C1751 1.394 . S
C1750 H1758 0.930 . S
C1751 C1750 1.394 . S
C1751 C1752 1.383 . S
C1751 H1759 0.929 . S
C1752 C1751 1.383 . S
C1752 C1753 1.377 . S
C1753 H1737 0.930 1_545 S
C1753 C1752 1.377 . S
C1753 C1754 1.379 . S
C1754 H1738 0.931 1_545 S
C1754 C1748 1.383 . S
C1754 C1753 1.379 . S
H1755 C1749 0.959 . S
H1756 C1749 0.961 . S
H1757 C1749 0.960 . S
H1758 C1750 0.930 . S
H1759 C1751 0.929 . S
H1760 C1768 0.929 . S
H1761 C1770 0.930 . S
H1762 C1772 0.930 . S
H1763 C1775 0.929 . S
H1764 C1778 0.930 . S
H1765 C1780 0.960 . S
H1766 C1780 0.960 . S
H1767 C1780 0.960 . S
C1768 H1760 0.929 . S
C1768 C1769 1.377 . S
C1768 C1770 1.384 . S
C1769 C1768 1.377 . S
C1769 C1775 1.390 . S
C1770 H1761 0.930 . S
C1770 C1768 1.384 . S
C1770 C1771 1.372 . S
C1771 C1770 1.372 . S
C1771 C1772 1.400 . S
C1771 C1776 1.490 . S
C1772 H1762 0.930 . S
C1772 C1771 1.400 . S
C1772 C1775 1.386 . S
H1773 C1789 0.930 . S
H1774 C1790 0.931 . S
C1775 H1763 0.929 . S
C1775 C1769 1.390 . S
C1775 C1772 1.386 . S
C1776 C1771 1.490 . S
C1776 C1778 1.395 . S
C1776 C1779 1.403 . S
H1777 C1783 0.930 . S
C1778 H1764 0.930 . S
C1778 C1776 1.395 . S
C1778 C1781 1.403 . S
C1779 C1776 1.403 . S
C1779 C1780 1.524 . S
C1779 C1783 1.400 . S
C1780 H1765 0.960 . S
C1780 H1766 0.960 . S
C1780 H1767 0.960 . S
C1780 C1779 1.524 . S
C1781 C1778 1.403 . S
C1781 C1782 1.392 . S
C1781 C1785 1.495 . S
C1782 C1781 1.392 . S
C1782 C1783 1.385 . S
C1782 C1784 1.478 . S
C1783 H1777 0.930 . S
C1783 C1779 1.400 . S
C1783 C1782 1.385 . S
C1784 C1782 1.478 . S
C1784 C1786 1.381 . S
C1784 C1790 1.383 . S
C1785 C1781 1.495 . S
C1785 H1791 0.959 . S
C1785 H1792 0.961 . S
C1785 H1793 0.960 . S
C1786 C1784 1.381 . S
C1786 C1787 1.394 . S
C1786 H1794 0.930 . S
C1787 C1786 1.394 . S
C1787 C1788 1.383 . S
C1787 H1795 0.929 . S
C1788 C1787 1.383 . S
C1788 C1789 1.377 . S
C1789 H1773 0.930 . S
C1789 C1788 1.377 . S
C1789 C1790 1.379 . S
C1790 H1774 0.931 . S
C1790 C1784 1.383 . S
C1790 C1789 1.379 . S
H1791 C1785 0.959 . S
H1792 C1785 0.961 . S
H1793 C1785 0.960 . S
H1794 C1786 0.930 . S
H1795 C1787 0.929 . S
H1796 C1804 0.929 . S
H1797 C1806 0.930 . S
H1798 C1808 0.930 . S
H1799 C1811 0.929 . S
H1800 C1814 0.930 . S
H1801 C1816 0.960 . S
H1802 C1816 0.960 . S
H1803 C1816 0.960 . S
C1804 H1796 0.929 . S
C1804 C1805 1.377 . S
C1804 C1806 1.384 . S
C1805 C1804 1.377 . S
C1805 C1811 1.390 . S
C1806 H1797 0.930 . S
C1806 C1804 1.384 . S
C1806 C1807 1.372 . S
C1807 C1806 1.372 . S
C1807 C1808 1.400 . S
C1807 C1812 1.490 . S
C1808 H1798 0.930 . S
C1808 C1807 1.400 . S
C1808 C1811 1.386 . S
H1809 C1825 0.930 . S
H1810 C1826 0.931 . S
C1811 H1799 0.929 . S
C1811 C1805 1.390 . S
C1811 C1808 1.386 . S
C1812 C1807 1.490 . S
C1812 C1814 1.395 . S
C1812 C1815 1.403 . S
H1813 C1819 0.930 . S
C1814 H1800 0.930 . S
C1814 C1812 1.395 . S
C1814 C1817 1.403 . S
C1815 C1812 1.403 . S
C1815 C1816 1.524 . S
C1815 C1819 1.400 . S
C1816 H1801 0.960 . S
C1816 H1802 0.960 . S
C1816 H1803 0.960 . S
C1816 C1815 1.524 . S
C1817 C1814 1.403 . S
C1817 C1818 1.392 . S
C1817 C1821 1.495 . S
C1818 C1817 1.392 . S
C1818 C1819 1.385 . S
C1818 C1820 1.478 . S
C1819 H1813 0.930 . S
C1819 C1815 1.400 . S
C1819 C1818 1.385 . S
C1820 C1818 1.478 . S
C1820 C1822 1.381 . S
C1820 C1826 1.383 . S
C1821 C1817 1.495 . S
C1821 H1827 0.959 . S
C1821 H1828 0.961 . S
C1821 H1829 0.960 . S
C1822 C1820 1.381 . S
C1822 C1823 1.394 . S
C1822 H1830 0.930 . S
C1823 C1822 1.394 . S
C1823 C1824 1.383 . S
C1823 H1831 0.929 . S
C1824 C1823 1.383 . S
C1824 C1825 1.377 . S
C1825 H1809 0.930 . S
C1825 C1824 1.377 . S
C1825 C1826 1.379 . S
C1826 H1810 0.931 . S
C1826 C1820 1.383 . S
C1826 C1825 1.379 . S
H1827 C1821 0.959 . S
H1828 C1821 0.961 . S
H1829 C1821 0.960 . S
H1830 C1822 0.930 . S
H1831 C1823 0.929 . S
H1832 C1840 0.929 . S
H1833 C1842 0.930 . S
H1834 C1844 0.930 . S
H1835 C1847 0.929 . S
H1836 C1850 0.930 . S
H1837 C1852 0.960 . S
H1838 C1852 0.960 . S
H1839 C1852 0.960 . S
C1840 H1832 0.929 . S
C1840 C1841 1.377 . S
C1840 C1842 1.384 . S
C1841 C1840 1.377 . S
C1841 C1847 1.390 . S
C1842 H1833 0.930 . S
C1842 C1840 1.384 . S
C1842 C1843 1.372 . S
C1843 C1842 1.372 . S
C1843 C1844 1.400 . S
C1843 C1848 1.490 . S
C1844 H1834 0.930 . S
C1844 C1843 1.400 . S
C1844 C1847 1.386 . S
H1845 C1861 0.930 . S
H1846 C1862 0.931 . S
C1847 H1835 0.929 . S
C1847 C1841 1.390 . S
C1847 C1844 1.386 . S
C1848 C1843 1.490 . S
C1848 C1850 1.395 . S
C1848 C1851 1.403 . S
H1849 C1855 0.930 . S
C1850 H1836 0.930 . S
C1850 C1848 1.395 . S
C1850 C1853 1.403 . S
C1851 C1848 1.403 . S
C1851 C1852 1.524 . S
C1851 C1855 1.400 . S
C1852 H1837 0.960 . S
C1852 H1838 0.960 . S
C1852 H1839 0.960 . S
C1852 C1851 1.524 . S
C1853 C1850 1.403 . S
C1853 C1854 1.392 . S
C1853 C1857 1.495 . S
C1854 C1853 1.392 . S
C1854 C1855 1.385 . S
C1854 C1856 1.478 . S
C1855 H1849 0.930 . S
C1855 C1851 1.400 . S
C1855 C1854 1.385 . S
C1856 C1854 1.478 . S
C1856 C1858 1.381 . S
C1856 C1862 1.383 . S
C1857 C1853 1.495 . S
C1857 H1863 0.959 . S
C1857 H1864 0.961 . S
C1857 H1865 0.960 . S
C1858 C1856 1.381 . S
C1858 C1859 1.394 . S
C1858 H1866 0.930 . S
C1859 C1858 1.394 . S
C1859 C1860 1.383 . S
C1859 H1867 0.929 . S
C1860 C1859 1.383 . S
C1860 C1861 1.377 . S
C1861 H1845 0.930 . S
C1861 C1860 1.377 . S
C1861 C1862 1.379 . S
C1862 H1846 0.931 . S
C1862 C1856 1.383 . S
C1862 C1861 1.379 . S
H1863 C1857 0.959 . S
H1864 C1857 0.961 . S
H1865 C1857 0.960 . S
H1866 C1858 0.930 . S
H1867 C1859 0.929 . S
H1868 C1876 0.929 . S
H1869 C1878 0.940 . S
H1870 C1880 0.930 . S
H1871 C1883 0.934 . S
H1872 C1886 0.930 . S
H1873 C1888 0.960 . S
H1874 C1888 0.960 . S
H1875 C1888 0.960 . S
C1876 H1868 0.929 . S
C1876 C1877 1.396 . S
C1876 C1878 1.384 1_554 S
C1877 C1876 1.396 . S
C1877 C1883 1.328 1_654 S
C1878 H1869 0.940 . S
C1878 C1876 1.384 1_556 S
C1878 C1879 1.372 . S
C1879 C1878 1.372 . S
C1879 C1880 1.400 1_655 S
C1879 C1884 1.489 1_655 S
C1880 H1870 0.930 . S
C1880 C1879 1.400 1_455 S
C1880 C1883 1.390 . S
H1881 C1897 0.930 . S
H1882 C1898 0.931 . S
C1883 H1871 0.934 . S
C1883 C1877 1.328 1_456 S
C1883 C1880 1.390 . S
C1884 C1879 1.489 1_455 S
C1884 C1886 1.390 1_455 S
C1884 C1887 1.409 . S
H1885 C1891 0.930 . S
C1886 H1872 0.930 . S
C1886 C1884 1.390 1_655 S
C1886 C1889 1.403 . S
C1887 C1884 1.409 . S
C1887 C1888 1.524 . S
C1887 C1891 1.400 . S
C1888 H1873 0.960 . S
C1888 H1874 0.960 . S
C1888 H1875 0.960 . S
C1888 C1887 1.524 . S
C1889 C1886 1.403 . S
C1889 C1890 1.392 1_655 S
C1889 C1893 1.495 . S
C1890 C1889 1.392 1_455 S
C1890 C1891 1.385 . S
C1890 C1892 1.478 . S
C1891 H1885 0.930 . S
C1891 C1887 1.400 . S
C1891 C1890 1.385 . S
C1892 C1890 1.478 . S
C1892 C1894 1.381 . S
C1892 C1898 1.383 . S
C1893 C1889 1.495 . S
C1893 H1899 0.959 . S
C1893 H1900 0.961 . S
C1893 H1901 0.960 . S
C1894 C1892 1.381 . S
C1894 C1895 1.394 . S
C1894 H1902 0.930 1_455 S
C1895 C1894 1.394 . S
C1895 C1896 1.383 . S
C1895 H1903 0.929 . S
C1896 C1895 1.383 . S
C1896 C1897 1.377 . S
C1897 H1881 0.930 . S
C1897 C1896 1.377 . S
C1897 C1898 1.379 . S
C1898 H1882 0.931 . S
C1898 C1892 1.383 . S
C1898 C1897 1.379 . S
H1899 C1893 0.959 . S
H1900 C1893 0.961 . S
H1901 C1893 0.960 . S
H1902 C1894 0.930 1_655 S
H1903 C1895 0.929 . S
H1904 C1912 0.929 . S
H1905 C1914 0.930 . S
H1906 C1916 0.930 . S
H1907 C1919 0.929 . S
H1908 C1922 0.930 . S
H1909 C1924 0.960 . S
H1910 C1924 0.960 . S
H1911 C1924 0.960 . S
C1912 H1904 0.929 . S
C1912 C1913 1.377 . S
C1912 C1914 1.384 . S
C1913 C1912 1.377 . S
C1913 C1919 1.390 . S
C1914 H1905 0.930 . S
C1914 C1912 1.384 . S
C1914 C1915 1.372 . S
C1915 C1914 1.372 . S
C1915 C1916 1.400 . S
C1915 C1920 1.490 . S
C1916 H1906 0.930 . S
C1916 C1915 1.400 . S
C1916 C1919 1.386 . S
H1917 C1933 0.930 . S
H1918 C1934 0.931 . S
C1919 H1907 0.929 . S
C1919 C1913 1.390 . S
C1919 C1916 1.386 . S
C1920 C1915 1.490 . S
C1920 C1922 1.395 . S
C1920 C1923 1.403 . S
H1921 C1927 0.930 . S
C1922 H1908 0.930 . S
C1922 C1920 1.395 . S
C1922 C1925 1.403 . S
C1923 C1920 1.403 . S
C1923 C1924 1.524 . S
C1923 C1927 1.400 . S
C1924 H1909 0.960 . S
C1924 H1910 0.960 . S
C1924 H1911 0.960 . S
C1924 C1923 1.524 . S
C1925 C1922 1.403 . S
C1925 C1926 1.392 . S
C1925 C1929 1.495 . S
C1926 C1925 1.392 . S
C1926 C1927 1.385 . S
C1926 C1928 1.478 . S
C1927 H1921 0.930 . S
C1927 C1923 1.400 . S
C1927 C1926 1.385 . S
C1928 C1926 1.478 . S
C1928 C1930 1.381 . S
C1928 C1934 1.383 . S
C1929 C1925 1.495 . S
C1929 H1935 0.959 . S
C1929 H1936 0.961 . S
C1929 H1937 0.960 . S
C1930 C1928 1.381 . S
C1930 C1931 1.394 . S
C1930 H1938 0.930 . S
C1931 C1930 1.394 . S
C1931 C1932 1.383 . S
C1931 H1939 0.929 . S
C1932 C1931 1.383 . S
C1932 C1933 1.377 . S
C1933 H1917 0.930 . S
C1933 C1932 1.377 . S
C1933 C1934 1.379 . S
C1934 H1918 0.931 . S
C1934 C1928 1.383 . S
C1934 C1933 1.379 . S
H1935 C1929 0.959 . S
H1936 C1929 0.961 . S
H1937 C1929 0.960 . S
H1938 C1930 0.930 . S
H1939 C1931 0.929 . S
H1940 C1948 0.929 . S
H1941 C1950 0.930 . S
H1942 C1952 0.930 . S
H1943 C1955 0.929 . S
H1944 C1958 0.930 . S
H1945 C1960 0.960 . S
H1946 C1960 0.960 . S
H1947 C1960 0.960 . S
C1948 H1940 0.929 . S
C1948 C1949 1.377 . S
C1948 C1950 1.384 . S
C1949 C1948 1.377 . S
C1949 C1955 1.390 . S
C1950 H1941 0.930 . S
C1950 C1948 1.384 . S
C1950 C1951 1.372 . S
C1951 C1950 1.372 . S
C1951 C1952 1.400 . S
C1951 C1956 1.490 . S
C1952 H1942 0.930 . S
C1952 C1951 1.400 . S
C1952 C1955 1.386 . S
H1953 C1969 0.930 . S
H1954 C1970 0.931 . S
C1955 H1943 0.929 . S
C1955 C1949 1.390 . S
C1955 C1952 1.386 . S
C1956 C1951 1.490 . S
C1956 C1958 1.395 . S
C1956 C1959 1.403 . S
H1957 C1963 0.930 . S
C1958 H1944 0.930 . S
C1958 C1956 1.395 . S
C1958 C1961 1.403 . S
C1959 C1956 1.403 . S
C1959 C1960 1.524 . S
C1959 C1963 1.400 . S
C1960 H1945 0.960 . S
C1960 H1946 0.960 . S
C1960 H1947 0.960 . S
C1960 C1959 1.524 . S
C1961 C1958 1.403 . S
C1961 C1962 1.392 . S
C1961 C1965 1.495 . S
C1962 C1961 1.392 . S
C1962 C1963 1.385 . S
C1962 C1964 1.478 . S
C1963 H1957 0.930 . S
C1963 C1959 1.400 . S
C1963 C1962 1.385 . S
C1964 C1962 1.478 . S
C1964 C1966 1.381 . S
C1964 C1970 1.383 . S
C1965 C1961 1.495 . S
C1965 H1971 0.959 1_455 S
C1965 H1972 0.961 . S
C1965 H1973 0.960 1_455 S
C1966 C1964 1.381 . S
C1966 C1967 1.394 . S
C1966 H1974 0.912 1_455 S
C1967 C1966 1.394 . S
C1967 C1968 1.383 . S
C1967 H1975 0.920 1_455 S
C1968 C1967 1.383 . S
C1968 C1969 1.377 . S
C1969 H1953 0.930 . S
C1969 C1968 1.377 . S
C1969 C1970 1.379 . S
C1970 H1954 0.931 . S
C1970 C1964 1.383 . S
C1970 C1969 1.379 . S
H1971 C1965 0.959 1_655 S
H1972 C1965 0.961 . S
H1973 C1965 0.960 1_655 S
H1974 C1966 0.912 1_655 S
H1975 C1967 0.920 1_655 S
H1976 C1984 0.929 . S
H1977 C1986 0.930 . S
H1978 C1988 0.930 . S
H1979 C1991 0.929 . S
H1980 C1994 0.930 . S
H1981 C1996 0.960 . S
H1982 C1996 0.960 . S
H1983 C1996 0.960 . S
C1984 H1976 0.929 . S
C1984 C1985 1.377 . S
C1984 C1986 1.384 . S
C1985 C1984 1.377 . S
C1985 C1991 1.390 . S
C1986 H1977 0.930 . S
C1986 C1984 1.384 . S
C1986 C1987 1.372 . S
C1987 C1986 1.372 . S
C1987 C1988 1.400 . S
C1987 C1992 1.490 . S
C1988 H1978 0.930 . S
C1988 C1987 1.400 . S
C1988 C1991 1.386 . S
H1989 C2005 0.930 . S
H1990 C2006 0.931 . S
C1991 H1979 0.929 . S
C1991 C1985 1.390 . S
C1991 C1988 1.386 . S
C1992 C1987 1.490 . S
C1992 C1994 1.395 . S
C1992 C1995 1.403 . S
H1993 C1999 0.930 . S
C1994 H1980 0.930 . S
C1994 C1992 1.395 . S
C1994 C1997 1.403 . S
C1995 C1992 1.403 . S
C1995 C1996 1.524 . S
C1995 C1999 1.400 . S
C1996 H1981 0.960 . S
C1996 H1982 0.960 . S
C1996 H1983 0.960 . S
C1996 C1995 1.524 . S
C1997 C1994 1.403 . S
C1997 C1998 1.392 . S
C1997 C2001 1.495 . S
C1998 C1997 1.392 . S
C1998 C1999 1.385 . S
C1998 C2000 1.478 . S
C1999 H1993 0.930 . S
C1999 C1995 1.400 . S
C1999 C1998 1.385 . S
C2000 C1998 1.478 . S
C2000 C2002 1.381 . S
C2000 C2006 1.383 . S
C2001 C1997 1.495 . S
C2001 H2007 0.959 . S
C2001 H2008 0.961 . S
C2001 H2009 0.960 . S
C2002 C2000 1.381 . S
C2002 C2003 1.394 . S
C2002 H2010 0.930 . S
C2003 C2002 1.394 . S
C2003 C2004 1.383 . S
C2003 H2011 0.929 . S
C2004 C2003 1.383 . S
C2004 C2005 1.377 . S
C2005 H1989 0.930 . S
C2005 C2004 1.377 . S
C2005 C2006 1.379 . S
C2006 H1990 0.931 . S
C2006 C2000 1.383 . S
C2006 C2005 1.379 . S
H2007 C2001 0.959 . S
H2008 C2001 0.961 . S
H2009 C2001 0.960 . S
H2010 C2002 0.930 . S
H2011 C2003 0.929 . S
H2012 C2020 0.929 . S
H2013 C2022 0.930 . S
H2014 C2024 0.930 . S
H2015 C2027 0.929 1_556 S
H2016 C2030 0.930 . S
H2017 C2032 0.960 . S
H2018 C2032 0.960 . S
H2019 C2032 0.960 . S
C2020 H2012 0.929 . S
C2020 C2021 1.377 . S
C2020 C2022 1.384 . S
C2021 C2020 1.377 . S
C2021 C2027 1.390 . S
C2022 H2013 0.930 . S
C2022 C2020 1.384 . S
C2022 C2023 1.372 . S
C2023 C2022 1.372 . S
C2023 C2024 1.400 . S
C2023 C2028 1.490 . S
C2024 H2014 0.930 . S
C2024 C2023 1.400 . S
C2024 C2027 1.386 . S
H2025 C2041 0.930 . S
H2026 C2042 0.931 . S
C2027 H2015 0.929 1_554 S
C2027 C2021 1.390 . S
C2027 C2024 1.386 . S
C2028 C2023 1.490 . S
C2028 C2030 1.395 . S
C2028 C2031 1.403 . S
H2029 C2035 0.930 . S
C2030 H2016 0.930 . S
C2030 C2028 1.395 . S
C2030 C2033 1.403 . S
C2031 C2028 1.403 . S
C2031 C2032 1.524 . S
C2031 C2035 1.400 . S
C2032 H2017 0.960 . S
C2032 H2018 0.960 . S
C2032 H2019 0.960 . S
C2032 C2031 1.524 . S
C2033 C2030 1.403 . S
C2033 C2034 1.392 . S
C2033 C2037 1.495 . S
C2034 C2033 1.392 . S
C2034 C2035 1.385 . S
C2034 C2036 1.478 . S
C2035 H2029 0.930 . S
C2035 C2031 1.400 . S
C2035 C2034 1.385 . S
C2036 C2034 1.478 . S
C2036 C2038 1.381 . S
C2036 C2042 1.383 . S
C2037 C2033 1.495 . S
C2037 H2043 0.959 . S
C2037 H2044 0.961 . S
C2037 H2045 0.960 . S
C2038 C2036 1.381 . S
C2038 C2039 1.394 . S
C2038 H2046 0.930 . S
C2039 C2038 1.394 . S
C2039 C2040 1.383 . S
C2039 H2047 0.929 . S
C2040 C2039 1.383 . S
C2040 C2041 1.377 . S
C2041 H2025 0.930 . S
C2041 C2040 1.377 . S
C2041 C2042 1.379 . S
C2042 H2026 0.931 . S
C2042 C2036 1.383 . S
C2042 C2041 1.379 . S
H2043 C2037 0.959 . S
H2044 C2037 0.961 . S
H2045 C2037 0.960 . S
H2046 C2038 0.930 . S
H2047 C2039 0.929 . S
H2048 C2056 0.929 . S
H2049 C2058 0.930 . S
H2050 C2060 0.930 . S
H2051 C2063 0.929 . S
H2052 C2066 0.930 . S
H2053 C2068 0.960 . S
H2054 C2068 0.960 . S
H2055 C2068 0.960 . S
C2056 H2048 0.929 . S
C2056 C2057 1.377 . S
C2056 C2058 1.384 . S
C2057 C2056 1.377 . S
C2057 C2063 1.390 . S
C2058 H2049 0.930 . S
C2058 C2056 1.384 . S
C2058 C2059 1.372 . S
C2059 C2058 1.372 . S
C2059 C2060 1.400 . S
C2059 C2064 1.490 . S
C2060 H2050 0.930 . S
C2060 C2059 1.400 . S
C2060 C2063 1.386 . S
H2061 C2077 0.930 . S
H2062 C2078 0.931 . S
C2063 H2051 0.929 . S
C2063 C2057 1.390 . S
C2063 C2060 1.386 . S
C2064 C2059 1.490 . S
C2064 C2066 1.395 . S
C2064 C2067 1.403 . S
H2065 C2071 0.930 . S
C2066 H2052 0.930 . S
C2066 C2064 1.395 . S
C2066 C2069 1.403 . S
C2067 C2064 1.403 . S
C2067 C2068 1.524 . S
C2067 C2071 1.400 . S
C2068 H2053 0.960 . S
C2068 H2054 0.960 . S
C2068 H2055 0.960 . S
C2068 C2067 1.524 . S
C2069 C2066 1.403 . S
C2069 C2070 1.392 . S
C2069 C2073 1.495 . S
C2070 C2069 1.392 . S
C2070 C2071 1.385 . S
C2070 C2072 1.478 . S
C2071 H2065 0.930 . S
C2071 C2067 1.400 . S
C2071 C2070 1.385 . S
C2072 C2070 1.478 . S
C2072 C2074 1.381 . S
C2072 C2078 1.383 . S
C2073 C2069 1.495 . S
C2073 H2079 0.959 . S
C2073 H2080 0.961 . S
C2073 H2081 0.960 . S
C2074 C2072 1.381 . S
C2074 C2075 1.394 . S
C2074 H2082 0.930 . S
C2075 C2074 1.394 . S
C2075 C2076 1.383 . S
C2075 H2083 0.929 . S
C2076 C2075 1.383 . S
C2076 C2077 1.377 . S
C2077 H2061 0.930 . S
C2077 C2076 1.377 . S
C2077 C2078 1.379 . S
C2078 H2062 0.931 . S
C2078 C2072 1.383 . S
C2078 C2077 1.379 . S
H2079 C2073 0.959 . S
H2080 C2073 0.961 . S
H2081 C2073 0.960 . S
H2082 C2074 0.930 . S
H2083 C2075 0.929 . S
H2084 C2092 0.929 . S
H2085 C2094 0.930 . S
H2086 C2096 0.930 . S
H2087 C2099 0.929 . S
H2088 C2102 0.930 . S
H2089 C2104 0.960 . S
H2090 C2104 0.960 . S
H2091 C2104 0.960 . S
C2092 H2084 0.929 . S
C2092 C2093 1.377 . S
C2092 C2094 1.384 . S
C2093 C2092 1.377 . S
C2093 C2099 1.390 . S
C2094 H2085 0.930 . S
C2094 C2092 1.384 . S
C2094 C2095 1.372 . S
C2095 C2094 1.372 . S
C2095 C2096 1.400 . S
C2095 C2100 1.490 . S
C2096 H2086 0.930 . S
C2096 C2095 1.400 . S
C2096 C2099 1.386 . S
H2097 C2113 0.930 . S
H2098 C2114 0.931 . S
C2099 H2087 0.929 . S
C2099 C2093 1.390 . S
C2099 C2096 1.386 . S
C2100 C2095 1.490 . S
C2100 C2102 1.395 . S
C2100 C2103 1.403 . S
H2101 C2107 0.930 . S
C2102 H2088 0.930 . S
C2102 C2100 1.395 . S
C2102 C2105 1.403 . S
C2103 C2100 1.403 . S
C2103 C2104 1.524 . S
C2103 C2107 1.400 . S
C2104 H2089 0.960 . S
C2104 H2090 0.960 . S
C2104 H2091 0.960 . S
C2104 C2103 1.524 . S
C2105 C2102 1.403 . S
C2105 C2106 1.392 . S
C2105 C2109 1.495 . S
C2106 C2105 1.392 . S
C2106 C2107 1.385 . S
C2106 C2108 1.478 . S
C2107 H2101 0.930 . S
C2107 C2103 1.400 . S
C2107 C2106 1.385 . S
C2108 C2106 1.478 . S
C2108 C2110 1.381 . S
C2108 C2114 1.383 . S
C2109 C2105 1.495 . S
C2109 H2115 0.959 . S
C2109 H2116 0.961 . S
C2109 H2117 0.960 . S
C2110 C2108 1.381 . S
C2110 C2111 1.394 . S
C2110 H2118 0.930 . S
C2111 C2110 1.394 . S
C2111 C2112 1.383 . S
C2111 H2119 0.929 . S
C2112 C2111 1.383 . S
C2112 C2113 1.377 . S
C2113 H2097 0.930 . S
C2113 C2112 1.377 . S
C2113 C2114 1.379 . S
C2114 H2098 0.931 . S
C2114 C2108 1.383 . S
C2114 C2113 1.379 . S
H2115 C2109 0.959 . S
H2116 C2109 0.961 . S
H2117 C2109 0.960 . S
H2118 C2110 0.930 . S
H2119 C2111 0.929 . S
H2120 C2128 0.929 . S
H2121 C2130 0.930 . S
H2122 C2132 0.930 . S
H2123 C2135 0.929 . S
H2124 C2138 0.930 . S
H2125 C2140 0.960 . S
H2126 C2140 0.960 . S
H2127 C2140 0.960 . S
C2128 H2120 0.929 . S
C2128 C2129 1.377 . S
C2128 C2130 1.384 . S
C2129 C2128 1.377 . S
C2129 C2135 1.390 . S
C2130 H2121 0.930 . S
C2130 C2128 1.384 . S
C2130 C2131 1.372 . S
C2131 C2130 1.372 . S
C2131 C2132 1.400 . S
C2131 C2136 1.490 . S
C2132 H2122 0.930 . S
C2132 C2131 1.400 . S
C2132 C2135 1.386 . S
H2133 C2149 0.930 . S
H2134 C2150 0.931 . S
C2135 H2123 0.929 . S
C2135 C2129 1.390 . S
C2135 C2132 1.386 . S
C2136 C2131 1.490 . S
C2136 C2138 1.395 . S
C2136 C2139 1.403 . S
H2137 C2143 0.930 . S
C2138 H2124 0.930 . S
C2138 C2136 1.395 . S
C2138 C2141 1.403 . S
C2139 C2136 1.403 . S
C2139 C2140 1.524 . S
C2139 C2143 1.400 . S
C2140 H2125 0.960 . S
C2140 H2126 0.960 . S
C2140 H2127 0.960 . S
C2140 C2139 1.524 . S
C2141 C2138 1.403 . S
C2141 C2142 1.392 . S
C2141 C2145 1.495 . S
C2142 C2141 1.392 . S
C2142 C2143 1.385 . S
C2142 C2144 1.478 . S
C2143 H2137 0.930 . S
C2143 C2139 1.400 . S
C2143 C2142 1.385 . S
C2144 C2142 1.478 . S
C2144 C2146 1.381 . S
C2144 C2150 1.383 . S
C2145 C2141 1.495 . S
C2145 H2151 0.959 . S
C2145 H2152 0.961 . S
C2145 H2153 0.960 . S
C2146 C2144 1.381 . S
C2146 C2147 1.394 . S
C2146 H2154 0.930 . S
C2147 C2146 1.394 . S
C2147 C2148 1.383 . S
C2147 H2155 0.929 . S
C2148 C2147 1.383 . S
C2148 C2149 1.377 . S
C2149 H2133 0.930 . S
C2149 C2148 1.377 . S
C2149 C2150 1.379 . S
C2150 H2134 0.931 . S
C2150 C2144 1.383 . S
C2150 C2149 1.379 . S
H2151 C2145 0.959 . S
H2152 C2145 0.961 . S
H2153 C2145 0.960 . S
H2154 C2146 0.930 . S
H2155 C2147 0.929 . S
H2156 C2164 0.929 . S
H2157 C2166 0.930 . S
H2158 C2168 0.930 . S
H2159 C2171 0.929 . S
H2160 C2174 0.930 . S
H2161 C2176 0.960 . S
H2162 C2176 0.960 . S
H2163 C2176 0.960 . S
C2164 H2156 0.929 . S
C2164 C2165 1.377 . S
C2164 C2166 1.384 . S
C2165 C2164 1.377 . S
C2165 C2171 1.390 . S
C2166 H2157 0.930 . S
C2166 C2164 1.384 . S
C2166 C2167 1.372 . S
C2167 C2166 1.372 . S
C2167 C2168 1.400 . S
C2167 C2172 1.490 . S
C2168 H2158 0.930 . S
C2168 C2167 1.400 . S
C2168 C2171 1.386 . S
H2169 C2185 0.930 . S
H2170 C2186 0.931 . S
C2171 H2159 0.929 . S
C2171 C2165 1.390 . S
C2171 C2168 1.386 . S
C2172 C2167 1.490 . S
C2172 C2174 1.395 . S
C2172 C2175 1.403 . S
H2173 C2179 0.930 . S
C2174 H2160 0.930 . S
C2174 C2172 1.395 . S
C2174 C2177 1.403 . S
C2175 C2172 1.403 . S
C2175 C2176 1.524 . S
C2175 C2179 1.400 . S
C2176 H2161 0.960 . S
C2176 H2162 0.960 . S
C2176 H2163 0.960 . S
C2176 C2175 1.524 . S
C2177 C2174 1.403 . S
C2177 C2178 1.392 . S
C2177 C2181 1.495 . S
C2178 C2177 1.392 . S
C2178 C2179 1.385 . S
C2178 C2180 1.478 . S
C2179 H2173 0.930 . S
C2179 C2175 1.400 . S
C2179 C2178 1.385 . S
C2180 C2178 1.478 . S
C2180 C2182 1.381 . S
C2180 C2186 1.383 . S
C2181 C2177 1.495 . S
C2181 H2187 0.959 . S
C2181 H2188 0.961 . S
C2181 H2189 0.960 . S
C2182 C2180 1.381 . S
C2182 C2183 1.394 . S
C2182 H2190 0.930 . S
C2183 C2182 1.394 . S
C2183 C2184 1.383 . S
C2183 H2191 0.929 . S
C2184 C2183 1.383 . S
C2184 C2185 1.377 . S
C2185 H2169 0.930 . S
C2185 C2184 1.377 . S
C2185 C2186 1.379 . S
C2186 H2170 0.931 . S
C2186 C2180 1.383 . S
C2186 C2185 1.379 . S
H2187 C2181 0.959 . S
H2188 C2181 0.961 . S
H2189 C2181 0.960 . S
H2190 C2182 0.930 . S
H2191 C2183 0.929 . S
H2192 C2200 0.929 . S
H2193 C2202 0.930 . S
H2194 C2204 0.930 . S
H2195 C2207 0.929 . S
H2196 C2210 0.930 . S
H2197 C2212 0.960 . S
H2198 C2212 0.960 . S
H2199 C2212 0.960 . S
C2200 H2192 0.929 . S
C2200 C2201 1.377 . S
C2200 C2202 1.384 . S
C2201 C2200 1.377 . S
C2201 C2207 1.390 . S
C2202 H2193 0.930 . S
C2202 C2200 1.384 . S
C2202 C2203 1.372 . S
C2203 C2202 1.372 . S
C2203 C2204 1.400 . S
C2203 C2208 1.490 . S
C2204 H2194 0.930 . S
C2204 C2203 1.400 . S
C2204 C2207 1.386 . S
H2205 C2221 0.930 . S
H2206 C2222 0.931 . S
C2207 H2195 0.929 . S
C2207 C2201 1.390 . S
C2207 C2204 1.386 . S
C2208 C2203 1.490 . S
C2208 C2210 1.395 . S
C2208 C2211 1.403 . S
H2209 C2215 0.930 . S
C2210 H2196 0.930 . S
C2210 C2208 1.395 . S
C2210 C2213 1.403 . S
C2211 C2208 1.403 . S
C2211 C2212 1.524 . S
C2211 C2215 1.400 . S
C2212 H2197 0.960 . S
C2212 H2198 0.960 . S
C2212 H2199 0.960 . S
C2212 C2211 1.524 . S
C2213 C2210 1.403 . S
C2213 C2214 1.392 . S
C2213 C2217 1.495 . S
C2214 C2213 1.392 . S
C2214 C2215 1.385 . S
C2214 C2216 1.478 . S
C2215 H2209 0.930 . S
C2215 C2211 1.400 . S
C2215 C2214 1.385 . S
C2216 C2214 1.478 . S
C2216 C2218 1.381 . S
C2216 C2222 1.383 . S
C2217 C2213 1.495 . S
C2217 H2223 0.959 . S
C2217 H2224 0.961 . S
C2217 H2225 0.960 . S
C2218 C2216 1.381 . S
C2218 C2219 1.394 . S
C2218 H2226 0.930 . S
C2219 C2218 1.394 . S
C2219 C2220 1.383 . S
C2219 H2227 0.929 . S
C2220 C2219 1.383 . S
C2220 C2221 1.377 . S
C2221 H2205 0.930 . S
C2221 C2220 1.377 . S
C2221 C2222 1.379 . S
C2222 H2206 0.931 . S
C2222 C2216 1.383 . S
C2222 C2221 1.379 . S
H2223 C2217 0.959 . S
H2224 C2217 0.961 . S
H2225 C2217 0.960 . S
H2226 C2218 0.930 . S
H2227 C2219 0.929 . S
H2228 C2236 0.929 . S
H2229 C2238 0.930 . S
H2230 C2240 0.930 . S
H2231 C2243 0.929 . S
H2232 C2246 0.930 . S
H2233 C2248 0.960 . S
H2234 C2248 0.960 . S
H2235 C2248 0.960 . S
C2236 H2228 0.929 . S
C2236 C2237 1.377 . S
C2236 C2238 1.384 . S
C2237 C2236 1.377 . S
C2237 C2243 1.390 . S
C2238 H2229 0.930 . S
C2238 C2236 1.384 . S
C2238 C2239 1.372 . S
C2239 C2238 1.372 . S
C2239 C2240 1.400 . S
C2239 C2244 1.490 . S
C2240 H2230 0.930 . S
C2240 C2239 1.400 . S
C2240 C2243 1.386 . S
H2241 C2257 0.930 . S
H2242 C2258 0.931 . S
C2243 H2231 0.929 . S
C2243 C2237 1.390 . S
C2243 C2240 1.386 . S
C2244 C2239 1.490 . S
C2244 C2246 1.395 . S
C2244 C2247 1.403 . S
H2245 C2251 0.930 . S
C2246 H2232 0.930 . S
C2246 C2244 1.395 . S
C2246 C2249 1.403 . S
C2247 C2244 1.403 . S
C2247 C2248 1.524 . S
C2247 C2251 1.400 . S
C2248 H2233 0.960 . S
C2248 H2234 0.960 . S
C2248 H2235 0.960 . S
C2248 C2247 1.524 . S
C2249 C2246 1.403 . S
C2249 C2250 1.392 . S
C2249 C2253 1.495 . S
C2250 C2249 1.392 . S
C2250 C2251 1.385 . S
C2250 C2252 1.478 . S
C2251 H2245 0.930 . S
C2251 C2247 1.400 . S
C2251 C2250 1.385 . S
C2252 C2250 1.478 . S
C2252 C2254 1.381 . S
C2252 C2258 1.383 . S
C2253 C2249 1.495 . S
C2253 H2259 0.959 . S
C2253 H2260 0.961 . S
C2253 H2261 0.960 . S
C2254 C2252 1.381 . S
C2254 C2255 1.394 . S
C2254 H2262 0.930 . S
C2255 C2254 1.394 . S
C2255 C2256 1.383 . S
C2255 H2263 0.929 . S
C2256 C2255 1.383 . S
C2256 C2257 1.377 . S
C2257 H2241 0.930 . S
C2257 C2256 1.377 . S
C2257 C2258 1.379 . S
C2258 H2242 0.931 . S
C2258 C2252 1.383 . S
C2258 C2257 1.379 . S
H2259 C2253 0.959 . S
H2260 C2253 0.961 . S
H2261 C2253 0.960 . S
H2262 C2254 0.930 . S
H2263 C2255 0.929 . S
H2264 C2272 0.927 . S
H2265 C2274 0.930 1_554 S
H2266 C2276 0.930 . S
H2267 C2279 0.929 . S
H2268 C2282 0.930 . S
H2269 C2284 0.960 . S
H2270 C2284 0.960 . S
H2271 C2284 0.960 . S
C2272 H2264 0.927 . S
C2272 C2273 1.377 . S
C2272 C2274 1.384 . S
C2273 C2272 1.377 . S
C2273 C2279 1.390 . S
C2274 H2265 0.930 1_556 S
C2274 C2272 1.384 . S
C2274 C2275 1.372 . S
C2275 C2274 1.372 . S
C2275 C2276 1.400 . S
C2275 C2280 1.490 . S
C2276 H2266 0.930 . S
C2276 C2275 1.400 . S
C2276 C2279 1.386 . S
H2277 C2293 0.930 . S
H2278 C2294 0.931 . S
C2279 H2267 0.929 . S
C2279 C2273 1.390 . S
C2279 C2276 1.386 . S
C2280 C2275 1.490 . S
C2280 C2282 1.395 1_556 S
C2280 C2283 1.403 . S
H2281 C2287 0.930 . S
C2282 H2268 0.930 . S
C2282 C2280 1.395 1_554 S
C2282 C2285 1.403 . S
C2283 C2280 1.403 . S
C2283 C2284 1.524 . S
C2283 C2287 1.400 . S
C2284 H2269 0.960 . S
C2284 H2270 0.960 . S
C2284 H2271 0.960 . S
C2284 C2283 1.524 . S
C2285 C2282 1.403 . S
C2285 C2286 1.392 1_554 S
C2285 C2289 1.495 . S
C2286 C2285 1.392 1_556 S
C2286 C2287 1.385 . S
C2286 C2288 1.478 . S
C2287 H2281 0.930 . S
C2287 C2283 1.400 . S
C2287 C2286 1.385 . S
C2288 C2286 1.478 . S
C2288 C2290 1.381 1_556 S
C2288 C2294 1.383 . S
C2289 C2285 1.495 . S
C2289 H2295 0.959 . S
C2289 H2296 0.961 . S
C2289 H2297 0.960 . S
C2290 C2288 1.381 1_554 S
C2290 C2291 1.394 . S
C2290 H2298 0.930 . S
C2291 C2290 1.394 . S
C2291 C2292 1.383 . S
C2291 H2299 0.929 . S
C2292 C2291 1.383 . S
C2292 C2293 1.377 1_554 S
C2293 H2277 0.930 . S
C2293 C2292 1.377 1_556 S
C2293 C2294 1.379 . S
C2294 H2278 0.931 . S
C2294 C2288 1.383 . S
C2294 C2293 1.379 . S
H2295 C2289 0.959 . S
H2296 C2289 0.961 . S
H2297 C2289 0.960 . S
H2298 C2290 0.930 . S
H2299 C2291 0.929 . S
H2300 C2308 0.929 . S
H2301 C2310 0.930 . S
H2302 C2312 0.930 . S
H2303 C2315 0.929 . S
H2304 C2318 0.930 . S
H2305 C2320 0.960 . S
H2306 C2320 0.960 . S
H2307 C2320 0.960 . S
C2308 H2300 0.929 . S
C2308 C2309 1.377 . S
C2308 C2310 1.384 . S
C2309 C2308 1.377 . S
C2309 C2315 1.390 . S
C2310 H2301 0.930 . S
C2310 C2308 1.384 . S
C2310 C2311 1.372 . S
C2311 C2310 1.372 . S
C2311 C2312 1.400 . S
C2311 C2316 1.490 . S
C2312 H2302 0.930 . S
C2312 C2311 1.400 . S
C2312 C2315 1.386 . S
H2313 C2329 0.930 . S
H2314 C2330 0.931 . S
C2315 H2303 0.929 . S
C2315 C2309 1.390 . S
C2315 C2312 1.386 . S
C2316 C2311 1.490 . S
C2316 C2318 1.395 . S
C2316 C2319 1.403 . S
H2317 C2323 0.930 . S
C2318 H2304 0.930 . S
C2318 C2316 1.395 . S
C2318 C2321 1.403 . S
C2319 C2316 1.403 . S
C2319 C2320 1.524 . S
C2319 C2323 1.400 . S
C2320 H2305 0.960 . S
C2320 H2306 0.960 . S
C2320 H2307 0.960 . S
C2320 C2319 1.524 . S
C2321 C2318 1.403 . S
C2321 C2322 1.392 . S
C2321 C2325 1.495 . S
C2322 C2321 1.392 . S
C2322 C2323 1.385 . S
C2322 C2324 1.478 . S
C2323 H2317 0.930 . S
C2323 C2319 1.400 . S
C2323 C2322 1.385 . S
C2324 C2322 1.478 . S
C2324 C2326 1.381 . S
C2324 C2330 1.383 . S
C2325 C2321 1.495 . S
C2325 H2331 0.959 . S
C2325 H2332 0.961 . S
C2325 H2333 0.960 . S
C2326 C2324 1.381 . S
C2326 C2327 1.394 . S
C2326 H2334 0.930 . S
C2327 C2326 1.394 . S
C2327 C2328 1.383 . S
C2327 H2335 0.929 . S
C2328 C2327 1.383 . S
C2328 C2329 1.377 . S
C2329 H2313 0.930 . S
C2329 C2328 1.377 . S
C2329 C2330 1.379 . S
C2330 H2314 0.931 . S
C2330 C2324 1.383 . S
C2330 C2329 1.379 . S
H2331 C2325 0.959 . S
H2332 C2325 0.961 . S
H2333 C2325 0.960 . S
H2334 C2326 0.930 . S
H2335 C2327 0.929 . S
H2336 C2344 0.929 . S
H2337 C2346 0.930 . S
H2338 C2348 0.930 . S
H2339 C2351 0.929 . S
H2340 C2354 0.930 . S
H2341 C2356 0.960 . S
H2342 C2356 0.960 . S
H2343 C2356 0.960 . S
C2344 H2336 0.929 . S
C2344 C2345 1.377 . S
C2344 C2346 1.384 . S
C2345 C2344 1.377 . S
C2345 C2351 1.390 . S
C2346 H2337 0.930 . S
C2346 C2344 1.384 . S
C2346 C2347 1.372 . S
C2347 C2346 1.372 . S
C2347 C2348 1.400 . S
C2347 C2352 1.490 . S
C2348 H2338 0.930 . S
C2348 C2347 1.400 . S
C2348 C2351 1.386 . S
H2349 C2365 0.930 . S
H2350 C2366 0.931 . S
C2351 H2339 0.929 . S
C2351 C2345 1.390 . S
C2351 C2348 1.386 . S
C2352 C2347 1.490 . S
C2352 C2354 1.395 . S
C2352 C2355 1.403 . S
H2353 C2359 0.930 . S
C2354 H2340 0.930 . S
C2354 C2352 1.395 . S
C2354 C2357 1.403 . S
C2355 C2352 1.403 . S
C2355 C2356 1.524 . S
C2355 C2359 1.400 . S
C2356 H2341 0.960 . S
C2356 H2342 0.960 . S
C2356 H2343 0.960 . S
C2356 C2355 1.524 . S
C2357 C2354 1.403 . S
C2357 C2358 1.392 . S
C2357 C2361 1.495 . S
C2358 C2357 1.392 . S
C2358 C2359 1.385 . S
C2358 C2360 1.478 . S
C2359 H2353 0.930 . S
C2359 C2355 1.400 . S
C2359 C2358 1.385 . S
C2360 C2358 1.478 . S
C2360 C2362 1.381 . S
C2360 C2366 1.383 . S
C2361 C2357 1.495 . S
C2361 H2367 0.959 . S
C2361 H2368 0.961 . S
C2361 H2369 0.960 . S
C2362 C2360 1.381 . S
C2362 C2363 1.394 . S
C2362 H2370 0.947 . S
C2363 C2362 1.394 . S
C2363 C2364 1.383 . S
C2363 H2371 0.929 1_554 S
C2364 C2363 1.383 . S
C2364 C2365 1.377 . S
C2365 H2349 0.930 . S
C2365 C2364 1.377 . S
C2365 C2366 1.379 . S
C2366 H2350 0.931 . S
C2366 C2360 1.383 . S
C2366 C2365 1.379 . S
H2367 C2361 0.959 . S
H2368 C2361 0.961 . S
H2369 C2361 0.960 . S
H2370 C2362 0.947 . S
H2371 C2363 0.929 1_556 S
H2372 C2380 0.929 . S
H2373 C2382 0.930 . S
H2374 C2384 0.930 . S
H2375 C2387 0.929 1_545 S
H2376 C2390 0.930 1_556 S
H2377 C2392 0.960 . S
H2378 C2392 0.960 . S
H2379 C2392 0.960 . S
C2380 H2372 0.929 . S
C2380 C2381 1.377 . S
C2380 C2382 1.384 . S
C2381 C2380 1.377 . S
C2381 C2387 1.390 . S
C2382 H2373 0.930 . S
C2382 C2380 1.384 . S
C2382 C2383 1.372 . S
C2383 C2382 1.372 . S
C2383 C2384 1.400 . S
C2383 C2388 1.490 . S
C2384 H2374 0.930 . S
C2384 C2383 1.400 . S
C2384 C2387 1.386 . S
H2385 C2401 0.930 . S
H2386 C2402 0.931 . S
C2387 H2375 0.929 1_565 S
C2387 C2381 1.390 . S
C2387 C2384 1.386 . S
C2388 C2383 1.490 . S
C2388 C2390 1.395 . S
C2388 C2391 1.403 . S
H2389 C2395 0.930 . S
C2390 H2376 0.930 1_554 S
C2390 C2388 1.395 . S
C2390 C2393 1.395 1_554 S
C2391 C2388 1.403 . S
C2391 C2392 1.524 . S
C2391 C2395 1.400 . S
C2392 H2377 0.960 . S
C2392 H2378 0.960 . S
C2392 H2379 0.960 . S
C2392 C2391 1.524 . S
C2393 C2390 1.395 1_556 S
C2393 C2394 1.365 1_556 S
C2393 C2397 1.532 . S
C2394 C2393 1.365 1_554 S
C2394 C2395 1.385 . S
C2394 C2396 1.478 . S
C2395 H2389 0.930 . S
C2395 C2391 1.400 . S
C2395 C2394 1.385 . S
C2396 C2394 1.478 . S
C2396 C2398 1.381 . S
C2396 C2402 1.383 . S
C2397 C2393 1.532 . S
C2397 H2403 0.959 . S
C2397 H2404 0.961 . S
C2397 H2405 0.960 . S
C2398 C2396 1.381 . S
C2398 C2399 1.394 . S
C2398 H2406 0.930 . S
C2399 C2398 1.394 . S
C2399 C2400 1.383 . S
C2399 H2407 0.929 . S
C2400 C2399 1.383 . S
C2400 C2401 1.377 . S
C2401 H2385 0.930 . S
C2401 C2400 1.377 . S
C2401 C2402 1.379 . S
C2402 H2386 0.931 . S
C2402 C2396 1.383 . S
C2402 C2401 1.379 . S
H2403 C2397 0.959 . S
H2404 C2397 0.961 . S
H2405 C2397 0.960 . S
H2406 C2398 0.930 . S
H2407 C2399 0.929 . S
C708 C523 1.416 . S
C689 C177 1.401 . S
C744 C531 1.348 . S
C725 C209 1.547 . S
C761 C253 1.343 . S
C780 C551 1.361 . S
C816 C565 1.527 . S
C797 C157 1.509 . S
C852 C580 1.546 . S
C833 C343 1.517 . S
C888 C594 1.495 . S
C869 C401 1.459 . S
C905 C369 1.559 . S
C924 C608 1.586 . S
C960 C614 1.420 . S
C941 C317 1.449 . S
C977 C375 1.511 . S
C996 C628 1.479 . S
C1032 C649 1.591 . S
C1013 C305 1.582 . S
C1049 C349 1.464 . S
C1068 C629 1.210 . S
C1104 C650 1.538 . S
C1085 C413 1.487 . S
C1121 C241 1.420 . S
C1140 C657 1.215 . S
C1157 C151 1.456 . S
C1176 C663 1.462 . S
C1193 C189 1.483 . S
C1212 C656 1.455 . S
C1229 C215 1.450 . S
C1248 C664 1.469 . S
C1265 C113 1.458 . S
C1284 C558 1.466 . S
C1301 C471 1.457 . S
C1320 C559 1.271 . S
C1356 C516 1.541 . S
C1337 C509 1.549 . S
C1392 C537 1.430 . S
C1373 C279 1.413 . S
C1409 C145 1.417 . S
C1428 C572 1.421 . S
C1464 C622 1.584 . S
C1445 C381 1.551 . S
C1500 C573 1.185 . S
C1481 C311 1.444 . S
C1536 C601 1.227 . S
C1517 C407 1.491 . S
C1572 C607 1.416 . S
C1553 C465 1.401 . S
C1589 C497 1.552 . S
C1608 C615 1.250 . S
C1625 C285 1.338 . S
C1644 C579 1.345 . S
C1680 C593 1.530 . S
C1661 C445 1.502 . S
C1697 C119 1.524 . S
C1716 C552 1.549 . S
C1752 C566 1.494 . S
C1733 C17 1.453 1_655 S
C1788 C524 1.586 . S
C1769 C49 1.559 . S
C1824 C530 1.405 . S
C1805 C93 1.452 . S
C1841 C55 1.509 . S
C1860 C642 1.517 . S
C1877 C81 1.615 . S
C1896 C635 1.561 . S
C1913 C125 1.464 . S
C1932 C643 1.208 . S
C1949 C29 1.494 1_556 S
C1968 C636 1.539 . S
C2004 C671 1.172 . S
C1985 C273 1.413 . S
C2040 C677 1.477 . S
C2021 C439 1.455 . S
C2076 C670 1.488 . S
C2057 C477 1.487 . S
C2093 C503 1.455 . S
C2112 C678 1.465 . S
C2129 C337 1.459 . S
C2148 C586 1.464 . S
C2184 C587 1.190 . S
C2165 C183 1.457 . S
C2220 C600 1.531 . S
C2201 C221 1.550 . S
C2256 C621 1.421 . S
C2237 C247 1.411 . S
C2273 C433 1.420 . S
C2292 C544 1.418 . S
C2328 C538 1.580 . S
C2309 C61 1.543 . S
C2345 C87 1.439 . S
C2364 C545 1.273 . S
C2400 C517 1.261 . S
C2381 C23 1.494 1_565 S
