# Generated by pormake.
# Topology pth, (4,4)-cn, num edge types: 1
# Building blocks:
#     Node 0, Type 0, BuildingBlock: QUQFOY_clean_sbu_3, # of connection points: 4
#     Node 1, Type 0, BuildingBlock: QUQFOY_clean_sbu_3, # of connection points: 4
#     Node 2, Type 0, BuildingBlock: QUQFOY_clean_sbu_3, # of connection points: 4
#     Node 3, Type 1, BuildingBlock: NAHDIM_clean_linker_0, # of connection points: 4
#     Node 4, Type 1, BuildingBlock: NAHDIM_clean_linker_0, # of connection points: 4
#     Node 5, Type 1, BuildingBlock: NAHDIM_clean_linker_0, # of connection points: 4
#     Edge 6, Type (0, 1), BuildingBlock: UVAHIK_clean_linker_0, # of connection points: 2
#     Edge 7, Type (0, 1), BuildingBlock: UVAHIK_clean_linker_0, # of connection points: 2
#     Edge 8, Type (0, 1), BuildingBlock: UVAHIK_clean_linker_0, # of connection points: 2
#     Edge 9, Type (0, 1), BuildingBlock: UVAHIK_clean_linker_0, # of connection points: 2
#     Edge 10, Type (0, 1), BuildingBlock: UVAHIK_clean_linker_0, # of connection points: 2
#     Edge 11, Type (0, 1), BuildingBlock: UVAHIK_clean_linker_0, # of connection points: 2
#     Edge 12, Type (0, 1), BuildingBlock: UVAHIK_clean_linker_0, # of connection points: 2
#     Edge 13, Type (0, 1), BuildingBlock: UVAHIK_clean_linker_0, # of connection points: 2
#     Edge 14, Type (0, 1), BuildingBlock: UVAHIK_clean_linker_0, # of connection points: 2
#     Edge 15, Type (0, 1), BuildingBlock: UVAHIK_clean_linker_0, # of connection points: 2
#     Edge 16, Type (0, 1), BuildingBlock: UVAHIK_clean_linker_0, # of connection points: 2
#     Edge 17, Type (0, 1), BuildingBlock: UVAHIK_clean_linker_0, # of connection points: 2
# Relax obj value: 0.007
# Max RMSD: 0.056
# Mean RMSD: 0.049
data_MOF--net-pth--node1-QUQFOY_clean_sbu_3--node2-NAHDIM_clean_linker_0--edge1-UVAHIK_clean_linker_0
_symmetry_space_group_name_H-M    P1
_symmetry_Int_Tables_number       1
_symmetry_cell_setting            triclinic
loop_
_symmetry_equiv_pos_as_xyz
'x, y, z'
_cell_length_a     38.509332
_cell_length_b     38.206591
_cell_length_c     99.910071
_cell_angle_alpha  89.657973
_cell_angle_beta   91.266351
_cell_angle_gamma 120.67446
loop_
_atom_site_label
_atom_site_type_symbol
_atom_site_fract_x
_atom_site_fract_y
_atom_site_fract_z
_atom_type_partial_charge
C0 C 0.02612 0.10982 0.07612 0.0
O1 O 0.00598 0.10759 0.06558 0.0
Cd2 Cd 0.99384 0.06132 0.04742 0.0
O3 O 0.0417 0.08746 0.07745 0.0
Cd4 Cd 0.04717 0.0344 0.06528 0.0
C5 C 0.09158 0.09447 0.0386 0.0
O6 O 0.97618 -0.00114 0.05817 0.0
O7 O 0.01139 0.97441 0.05061 0.0
O8 O 0.0507 0.0134 0.08811 0.0
C9 C 0.97734 0.97176 0.05132 0.0
O10 O 0.05665 0.08799 0.0353 0.0
C11 C 0.07347 -0.00055 0.08551 0.0
O12 O 0.09803 0.08188 0.04968 0.0
O13 O 0.08516 0.00279 0.07354 0.0
C14 C 0.13893 0.08657 0.40518 0.0
O15 O 0.15373 0.09994 0.39376 0.0
Cd16 Cd 0.11482 0.0959 0.37412 0.0
O17 O 0.10107 0.06987 0.40695 0.0
Cd18 Cd 0.03851 0.05226 0.39396 0.0
C19 C 0.05227 0.99173 0.37279 0.0
O20 O 0.06644 0.11309 0.38056 0.0
O21 O 0.00603 0.06592 0.37477 0.0
O22 O 0.0163 0.07794 0.4117 0.0
C23 C 0.03564 0.10156 0.37298 0.0
O24 O 0.08002 0.02468 0.36777 0.0
C25 C 0.98384 0.04496 0.41404 0.0
O26 O 0.03342 0.99214 0.38307 0.0
O27 O 0.97675 0.01382 0.40727 0.0
C28 C 0.97283 0.07215 0.71109 0.0
O29 O 0.97149 0.08968 0.72165 0.0
Cd30 Cd 0.01252 0.10014 0.74138 0.0
O31 O 0.99677 0.05857 0.71039 0.0
Cd32 Cd 0.0457 0.0541 0.72548 0.0
C33 C 0.97576 0.00013 0.74852 0.0
O34 O 0.08075 0.12228 0.73576 0.0
O35 O 0.08896 0.07609 0.74536 0.0
O36 O 0.0886 0.06957 0.70626 0.0
C37 C 0.09886 0.11318 0.74465 0.0
O38 O 0.98146 0.03444 0.75233 0.0
C39 C 0.09271 0.03878 0.70736 0.0
O40 O 0.99228 0.99708 0.73801 0.0
O41 O 0.07436 0.01444 0.71688 0.0
C42 C 0.92995 0.63152 0.28808 0.0
C43 C 0.97038 0.64371 0.29511 0.0
C44 C 0.01325 0.63585 0.27887 0.0
C45 C 0.05053 0.65715 0.27266 0.0
C46 C 0.06558 0.63677 0.26534 0.0
C47 C 0.04185 0.59401 0.26378 0.0
C48 C 0.00372 0.57224 0.26986 0.0
C49 C 0.99004 0.59332 0.27751 0.0
C50 C 0.10695 0.66091 0.25938 0.0
C51 C 0.97748 0.52666 0.26835 0.0
C52 C 0.16835 0.48064 0.31903 0.0
C53 C 0.13556 0.45937 0.30815 0.0
C54 C 0.13754 0.48137 0.28527 0.0
C55 C 0.09594 0.46074 0.28237 0.0
C56 C 0.08001 0.47507 0.27248 0.0
C57 C 0.10624 0.51123 0.26555 0.0
C58 C 0.14847 0.53088 0.26799 0.0
C59 C 0.16364 0.5151 0.27768 0.0
C60 C 0.03498 0.45247 0.26986 0.0
C61 C 0.17739 0.56959 0.26085 0.0
C62 C 0.13322 0.455 0.18367 0.0
C63 C 0.0918 0.43654 0.1862 0.0
C64 C 0.07559 0.45969 0.19084 0.0
C65 C 0.10137 0.50201 0.19298 0.0
C66 C 0.14246 0.52104 0.18951 0.0
C67 C 0.15779 0.4972 0.18478 0.0
C68 C 0.03133 0.43872 0.19402 0.0
C69 C 0.17056 0.5662 0.19145 0.0
C70 C 0.95856 0.68687 0.18154 0.0
C71 C 0.00058 0.69363 0.17904 0.0
C72 C 0.01292 0.63723 0.1788 0.0
C73 C 0.98946 0.59484 0.17914 0.0
C74 C 0.00395 0.5718 0.18549 0.0
C75 C 0.04337 0.59184 0.19125 0.0
C76 C 0.0683 0.63459 0.19007 0.0
C77 C 0.05263 0.65693 0.18395 0.0
C78 C 0.97663 0.5263 0.18652 0.0
C79 C 0.11104 0.65681 0.19562 0.0
C80 C 0.0574 0.57189 0.25614 0.0
C81 C 0.074 0.55243 0.2634 0.0
C82 C 0.08913 0.5308 0.25697 0.0
C83 C 0.08793 0.52854 0.24284 0.0
C84 C 0.10224 0.50648 0.23605 0.0
C85 C 0.10177 0.50529 0.22213 0.0
C86 C 0.08673 0.52594 0.21447 0.0
C87 C 0.08652 0.52527 0.2003 0.0
C88 C 0.07227 0.54688 0.19299 0.0
C89 C 0.05731 0.56866 0.19947 0.0
C90 C 0.0561 0.56863 0.21362 0.0
C91 C 0.03973 0.58884 0.22045 0.0
C92 C 0.0396 0.5895 0.23437 0.0
C93 C 0.05619 0.57033 0.242 0.0
C94 C 0.07187 0.54887 0.23533 0.0
C95 C 0.07152 0.54777 0.22113 0.0
C96 C 0.17336 0.38967 0.18864 0.0
C97 C 0.13721 0.39315 0.18392 0.0
O98 O 0.00086 0.65772 0.28585 0.0
O99 O 0.99634 0.65834 0.17358 0.0
O100 O 0.15069 0.43315 0.18038 0.0
O101 O 0.15303 0.47044 0.29569 0.0
H102 H 0.96788 0.61696 0.30051 0.0
H103 H 0.92161 0.60663 0.28075 0.0
H104 H 0.9317 0.6578 0.28263 0.0
H105 H 0.90564 0.62058 0.29555 0.0
H106 H 0.0682 0.68996 0.27379 0.0
H107 H 0.9611 0.57638 0.28225 0.0
H108 H 0.12535 0.64697 0.26209 0.0
H109 H 0.12335 0.69313 0.26281 0.0
H110 H 0.10399 0.66041 0.2483 0.0
H111 H 0.94633 0.51517 0.27186 0.0
H112 H 0.99102 0.51187 0.27432 0.0
H113 H 0.97585 0.51746 0.25772 0.0
H114 H 0.11409 0.4705 0.30944 0.0
H115 H 0.15501 0.47176 0.32912 0.0
H116 H 0.18257 0.51415 0.31806 0.0
H117 H 0.19227 0.47276 0.31814 0.0
H118 H 0.07583 0.43384 0.288 0.0
H119 H 0.19578 0.53041 0.27991 0.0
H120 H 0.02797 0.4514 0.25898 0.0
H121 H 0.02188 0.46869 0.27494 0.0
H122 H 0.02015 0.42087 0.27374 0.0
H123 H 0.20909 0.58236 0.26448 0.0
H124 H 0.16859 0.59282 0.26228 0.0
H125 H 0.17597 0.56355 0.24995 0.0
H126 H 0.11667 0.38412 0.19258 0.0
H127 H 0.07221 0.40405 0.18477 0.0
H128 H 0.18953 0.51121 0.18252 0.0
H129 H 0.02796 0.43859 0.20504 0.0
H130 H 0.01442 0.40678 0.19032 0.0
H131 H 0.01757 0.45561 0.18952 0.0
H132 H 0.20121 0.57669 0.18764 0.0
H133 H 0.17323 0.57387 0.20227 0.0
H134 H 0.15795 0.58314 0.18622 0.0
H135 H 0.0167 0.70054 0.18895 0.0
H136 H 0.96089 0.71431 0.18623 0.0
H137 H 0.94212 0.66081 0.18843 0.0
H138 H 0.94085 0.68003 0.17199 0.0
H139 H 0.95903 0.58 0.17493 0.0
H140 H 0.07124 0.68973 0.18324 0.0
H141 H 0.97279 0.51718 0.19721 0.0
H142 H 0.99066 0.5108 0.18154 0.0
H143 H 0.94637 0.51551 0.18185 0.0
H144 H 0.12838 0.68871 0.19203 0.0
H145 H 0.12705 0.64075 0.19276 0.0
H146 H 0.11049 0.65734 0.20672 0.0
H147 H 0.07517 0.55415 0.27426 0.0
H148 H 0.11417 0.49006 0.24142 0.0
H149 H 0.11357 0.4881 0.21748 0.0
H150 H 0.07282 0.54674 0.18214 0.0
H151 H 0.02681 0.60443 0.21513 0.0
H152 H 0.02663 0.60554 0.23907 0.0
H153 H 0.19588 0.39899 0.18061 0.0
H154 H 0.1633 0.35785 0.1916 0.0
H155 H 0.1882 0.40974 0.19749 0.0
C156 C 0.38016 0.94911 0.64633 0.0
C157 C 0.38352 0.98449 0.63808 0.0
C158 C 0.40787 0.99218 0.61551 0.0
C159 C 0.42975 0.03456 0.61413 0.0
C160 C 0.4618 0.05319 0.60521 0.0
C161 C 0.47251 0.0288 0.59776 0.0
C162 C 0.44961 0.98584 0.59892 0.0
C163 C 0.41689 0.96807 0.60759 0.0
C164 C 0.48474 0.09893 0.60399 0.0
C165 C 0.46054 0.95864 0.59146 0.0
C166 C 0.74651 0.18678 0.64442 0.0
C167 C 0.72353 0.14753 0.6362 0.0
C168 C 0.69056 0.13789 0.61448 0.0
C169 C 0.66606 0.09537 0.61438 0.0
C170 C 0.63165 0.07588 0.60597 0.0
C171 C 0.62106 0.09962 0.59782 0.0
C172 C 0.64612 0.14258 0.59784 0.0
C173 C 0.6812 0.16104 0.60594 0.0
C174 C 0.60644 0.03001 0.60594 0.0
C175 C 0.63543 0.16921 0.58962 0.0
C176 C 0.6885 0.09055 0.5156 0.0
C177 C 0.65847 0.05052 0.51857 0.0
C178 C 0.62155 0.04225 0.52379 0.0
C179 C 0.61427 0.07457 0.5258 0.0
C180 C 0.64333 0.11448 0.5219 0.0
C181 C 0.68012 0.12191 0.51677 0.0
C182 C 0.59083 -0.00084 0.52757 0.0
C183 C 0.63622 0.14947 0.52372 0.0
C184 C 0.28466 0.9485 0.51613 0.0
C185 C 0.32334 0.98769 0.51242 0.0
C186 C 0.39031 0.99523 0.51362 0.0
C187 C 0.40756 0.97095 0.51509 0.0
C188 C 0.44606 0.98647 0.52098 0.0
C189 C 0.46819 0.02771 0.52511 0.0
C190 C 0.45203 0.05325 0.52273 0.0
C191 C 0.41303 0.03664 0.51708 0.0
C192 C 0.46251 0.95845 0.52315 0.0
C193 C 0.47548 0.09775 0.52653 0.0
C194 C 0.50964 0.04809 0.5897 0.0
C195 C 0.54671 0.06504 0.5966 0.0
C196 C 0.58281 0.07983 0.5898 0.0
C197 C 0.58199 0.07652 0.57571 0.0
C198 C 0.61726 0.08773 0.56863 0.0
C199 C 0.61614 0.08459 0.55476 0.0
C200 C 0.57978 0.07062 0.5474 0.0
C201 C 0.57832 0.06714 0.53329 0.0
C202 C 0.5419 0.05402 0.52625 0.0
C203 C 0.50635 0.04303 0.53301 0.0
C204 C 0.50694 0.04488 0.54717 0.0
C205 C 0.47141 0.0323 0.55433 0.0
C206 C 0.47222 0.03361 0.56826 0.0
C207 C 0.50857 0.04761 0.57555 0.0
C208 C 0.54484 0.06125 0.56854 0.0
C209 C 0.54389 0.05917 0.55435 0.0
C210 C 0.78041 0.11216 0.5261 0.0
C211 C 0.74775 0.08277 0.51618 0.0
O212 O 0.37846 0.97391 0.62463 0.0
O213 O 0.35176 0.97762 0.50885 0.0
O214 O 0.72562 0.09995 0.51149 0.0
O215 O 0.72301 0.15746 0.62288 0.0
H216 H 0.41426 0.01123 0.64013 0.0
H217 H 0.40384 0.94248 0.64334 0.0
H218 H 0.35011 0.92127 0.64469 0.0
H219 H 0.38453 0.95701 0.65717 0.0
H220 H 0.42185 0.05298 0.6201 0.0
H221 H 0.39941 0.9353 0.60871 0.0
H222 H 0.51434 0.11163 0.60933 0.0
H223 H 0.46814 0.11267 0.60839 0.0
H224 H 0.49067 0.108 0.59332 0.0
H225 H 0.4434 0.92664 0.59496 0.0
H226 H 0.49333 0.96994 0.59266 0.0
H227 H 0.45379 0.95892 0.58062 0.0
H228 H 0.69209 0.13062 0.63998 0.0
H229 H 0.74658 0.17974 0.65523 0.0
H230 H 0.73164 0.20505 0.64316 0.0
H231 H 0.77822 0.20529 0.6411 0.0
H232 H 0.6739 0.07743 0.62083 0.0
H233 H 0.70059 0.19386 0.60609 0.0
H234 H 0.59785 0.01813 0.59553 0.0
H235 H 0.57821 0.0203 0.61143 0.0
H236 H 0.62258 0.01602 0.61084 0.0
H237 H 0.65414 0.20181 0.59254 0.0
H238 H 0.6031 0.15944 0.59074 0.0
H239 H 0.64037 0.16637 0.57888 0.0
H240 H 0.72858 0.05415 0.52172 0.0
H241 H 0.66373 0.02566 0.5169 0.0
H242 H 0.70315 0.15256 0.51414 0.0
H243 H 0.58522 0.99764 0.53847 0.0
H244 H 0.60076 0.97731 0.52514 0.0
H245 H 0.56177 0.98958 0.52221 0.0
H246 H 0.6599 0.17782 0.51898 0.0
H247 H 0.63596 0.15537 0.53458 0.0
H248 H 0.60627 0.14155 0.51938 0.0
H249 H 0.33374 0.00764 0.52149 0.0
H250 H 0.26151 0.95527 0.51964 0.0
H251 H 0.2913 0.93295 0.52436 0.0
H252 H 0.27219 0.92752 0.50738 0.0
H253 H 0.38999 0.93922 0.5121 0.0
H254 H 0.40031 0.05593 0.51543 0.0
H255 H 0.47142 0.95912 0.53384 0.0
H256 H 0.48995 0.96915 0.51712 0.0
H257 H 0.4403 0.92651 0.52024 0.0
H258 H 0.46156 0.1147 0.5222 0.0
H259 H 0.50707 0.11197 0.5231 0.0
H260 H 0.4766 0.10081 0.53759 0.0
H261 H 0.54744 0.06638 0.60746 0.0
H262 H 0.64608 0.09871 0.57376 0.0
H263 H 0.64427 0.0935 0.54988 0.0
H264 H 0.54105 0.05147 0.51542 0.0
H265 H 0.44244 0.02096 0.54928 0.0
H266 H 0.444 0.02354 0.57325 0.0
H267 H 0.79882 0.09916 0.52985 0.0
H268 H 0.76606 0.11737 0.53479 0.0
H269 H 0.80059 0.14196 0.52132 0.0
C270 C 0.71643 0.63751 0.83158 0.0
C271 C 0.69545 0.6617 0.82847 0.0
C272 C 0.65322 0.65626 0.84699 0.0
C273 C 0.62866 0.67326 0.84771 0.0
C274 C 0.5934 0.65467 0.85528 0.0
C275 C 0.583 0.61856 0.86236 0.0
C276 C 0.60806 0.60148 0.8617 0.0
C277 C 0.6432 0.62089 0.85415 0.0
C278 C 0.56754 0.67379 0.85585 0.0
C279 C 0.59809 0.56301 0.86911 0.0
C280 C 0.31653 0.34892 0.8322 0.0
C281 C 0.34232 0.3743 0.84364 0.0
C282 C 0.37643 0.4443 0.85172 0.0
C283 C 0.40335 0.43963 0.86024 0.0
C284 C 0.43547 0.4731 0.86679 0.0
C285 C 0.44028 0.51216 0.86515 0.0
C286 C 0.41268 0.51697 0.8569 0.0
C287 C 0.38107 0.48287 0.85025 0.0
C288 C 0.46443 0.46646 0.87537 0.0
C289 C 0.41676 0.5581 0.85508 0.0
C290 C 0.37856 0.47257 0.94922 0.0
C291 C 0.40221 0.45882 0.94335 0.0
C292 C 0.43835 0.48618 0.93709 0.0
C293 C 0.45067 0.528 0.93658 0.0
C294 C 0.42792 0.54215 0.94313 0.0
C295 C 0.39228 0.51417 0.94953 0.0
C296 C 0.46267 0.47017 0.93066 0.0
C297 C 0.44043 0.58654 0.9429 0.0
C298 C 0.78425 0.73579 0.93404 0.0
C299 C 0.74712 0.72947 0.94144 0.0
C300 C 0.6803 0.66778 0.9413 0.0
C301 C 0.66089 0.62619 0.93851 0.0
C302 C 0.61984 0.60427 0.93482 0.0
C303 C 0.59777 0.62461 0.93406 0.0
C304 C 0.61633 0.66585 0.93805 0.0
C305 C 0.65751 0.6871 0.94168 0.0
C306 C 0.60065 0.55994 0.931 0.0
C307 C 0.59319 0.68795 0.93774 0.0
C308 C 0.54639 0.59885 0.87067 0.0
C309 C 0.50965 0.57111 0.86442 0.0
C310 C 0.47498 0.54769 0.87188 0.0
C311 C 0.4764 0.55318 0.88589 0.0
C312 C 0.44177 0.53104 0.89361 0.0
C313 C 0.44434 0.53313 0.90752 0.0
C314 C 0.48176 0.55706 0.91422 0.0
C315 C 0.4855 0.55617 0.92833 0.0
C316 C 0.5233 0.57978 0.93465 0.0
C317 C 0.55765 0.60443 0.9272 0.0
C318 C 0.55437 0.60618 0.91311 0.0
C319 C 0.58836 0.63087 0.90533 0.0
C320 C 0.5855 0.62981 0.89143 0.0
C321 C 0.54873 0.60349 0.88476 0.0
C322 C 0.5137 0.5801 0.89239 0.0
C323 C 0.51647 0.58167 0.90659 0.0
C324 C 0.27506 0.41098 0.9459 0.0
C325 C 0.31343 0.40956 0.9489 0.0
O326 O 0.68801 0.67595 0.84016 0.0
O327 O 0.72099 0.68818 0.94322 0.0
O328 O 0.34229 0.44641 0.95457 0.0
O329 O 0.3466 0.41256 0.84455 0.0
H330 H 0.66638 0.64146 0.82301 0.0
H331 H 0.69489 0.60751 0.83589 0.0
H332 H 0.74225 0.65458 0.83871 0.0
H333 H 0.72778 0.63141 0.82226 0.0
H334 H 0.63724 0.70114 0.84233 0.0
H335 H 0.66328 0.60894 0.85414 0.0
H336 H 0.53691 0.65223 0.8517 0.0
H337 H 0.58048 0.70265 0.85014 0.0
H338 H 0.5641 0.68004 0.86643 0.0
H339 H 0.61859 0.55169 0.86655 0.0
H340 H 0.56654 0.5388 0.86673 0.0
H341 H 0.60056 0.56877 0.88006 0.0
H342 H 0.3358 0.3584 0.85348 0.0
H343 H 0.35712 0.34283 0.82009 0.0
H344 H 0.29876 0.36329 0.82857 0.0
H345 H 0.28993 0.32208 0.83693 0.0
H346 H 0.39989 0.40994 0.8617 0.0
H347 H 0.36014 0.48627 0.84372 0.0
H348 H 0.4589 0.46874 0.8861 0.0
H349 H 0.49617 0.49003 0.87337 0.0
H350 H 0.46079 0.43605 0.87364 0.0
H351 H 0.39087 0.55622 0.84931 0.0
H352 H 0.44499 0.57844 0.8497 0.0
H353 H 0.41907 0.5722 0.865 0.0
H354 H 0.3237 0.40441 0.93915 0.0
H355 H 0.3923 0.42671 0.9436 0.0
H356 H 0.37404 0.52444 0.95432 0.0
H357 H 0.45962 0.4709 0.91961 0.0
H358 H 0.45245 0.43838 0.93368 0.0
H359 H 0.49517 0.48972 0.93339 0.0
H360 H 0.41936 0.59264 0.94844 0.0
H361 H 0.44166 0.59659 0.93238 0.0
H362 H 0.47119 0.6051 0.94741 0.0
H363 H 0.73297 0.74261 0.93486 0.0
H364 H 0.80597 0.7688 0.93268 0.0
H365 H 0.77492 0.72117 0.924 0.0
H366 H 0.79961 0.72206 0.93962 0.0
H367 H 0.67853 0.61137 0.93859 0.0
H368 H 0.67186 0.71887 0.9445 0.0
H369 H 0.59221 0.55597 0.92019 0.0
H370 H 0.57255 0.54156 0.93668 0.0
H371 H 0.62114 0.54794 0.933 0.0
H372 H 0.61035 0.71832 0.94265 0.0
H373 H 0.56388 0.66957 0.94278 0.0
H374 H 0.58652 0.69211 0.92718 0.0
H375 H 0.50866 0.56582 0.85372 0.0
H376 H 0.41243 0.51126 0.88896 0.0
H377 H 0.41679 0.51486 0.91294 0.0
H378 H 0.52625 0.57788 0.94541 0.0
H379 H 0.61777 0.65087 0.90988 0.0
H380 H 0.61277 0.64903 0.88597 0.0
H381 H 0.26299 0.41593 0.95525 0.0
H382 H 0.25156 0.38208 0.9411 0.0
H383 H 0.28188 0.43633 0.93891 0.0
C384 C 0.01309 0.16208 0.08615 0.0
C385 C 0.03112 0.13807 0.08707 0.0
C386 C 0.01778 0.18849 0.09659 0.0
C387 C 0.04631 0.20891 0.13257 0.0
H388 H 0.0728 0.31884 0.12402 0.0
C389 C 0.08129 0.32688 0.17406 0.0
C390 C 0.11608 0.36503 0.17213 0.0
C391 C 0.06418 0.29895 0.1635 0.0
C392 C 0.06539 0.28823 0.12657 0.0
H393 H 0.06819 0.123 0.09971 0.0
H394 H 0.07682 0.16934 0.11774 0.0
H395 H 0.05636 0.26963 0.106 0.0
H396 H 0.16008 0.40408 0.15766 0.0
H397 H 0.13054 0.35531 0.13922 0.0
H398 H 0.05708 0.22789 0.15307 0.0
C399 C 0.05849 0.16731 0.10907 0.0
C400 C 0.05557 0.25992 0.11625 0.0
C401 C 0.0538 0.14096 0.09867 0.0
C402 C 0.13293 0.37508 0.15936 0.0
C403 C 0.11587 0.34719 0.1488 0.0
C404 C 0.05613 0.23718 0.14287 0.0
C405 C 0.04056 0.19138 0.10816 0.0
C406 C 0.04682 0.22021 0.11913 0.0
C407 C 0.08172 0.30853 0.1508 0.0
C408 C 0.06662 0.27741 0.13997 0.0
H409 H 0.99525 0.16045 0.07738 0.0
H410 H 0.00332 0.2064 0.09564 0.0
H411 H 0.03904 0.17835 0.13513 0.0
H412 H 0.06789 0.31831 0.18384 0.0
H413 H 0.03764 0.26957 0.16532 0.0
C414 C 0.95586 0.08017 0.42676 0.0
C415 C 0.9554 0.04406 0.42387 0.0
C416 C 0.93034 0.08076 0.43628 0.0
C417 C 0.83972 0.0159 0.45636 0.0
H418 H 0.88584 0.11373 0.47823 0.0
C419 C 0.76594 0.03691 0.50374 0.0
C420 C 0.76674 0.07405 0.50457 0.0
C421 C 0.78609 0.03008 0.49353 0.0
C422 C 0.87244 0.08635 0.47214 0.0
H423 H 0.92726 0.97988 0.42843 0.0
H424 H 0.88341 0.98115 0.44564 0.0
H425 H 0.92673 0.10705 0.46145 0.0
H426 H 0.78879 0.1329 0.49532 0.0
H427 H 0.82412 0.12108 0.47751 0.0
H428 H 0.78555 0.99511 0.46747 0.0
C429 C 0.90302 0.00889 0.4403 0.0
C430 C 0.8958 0.08251 0.46247 0.0
C431 C 0.92822 0.00815 0.43051 0.0
C432 C 0.78758 0.10397 0.49488 0.0
C433 C 0.8079 0.09727 0.48475 0.0
C434 C 0.81639 0.01959 0.4662 0.0
C435 C 0.90427 0.04543 0.44342 0.0
C436 C 0.87958 0.04764 0.45426 0.0
C437 C 0.80784 0.06051 0.48409 0.0
C438 C 0.83241 0.0552 0.474 0.0
H439 H 0.9759 0.10813 0.42158 0.0
H440 H 0.93121 0.10913 0.43806 0.0
H441 H 0.82621 0.98871 0.45018 0.0
H442 H 0.75036 0.01347 0.51115 0.0
H443 H 0.78587 0.00162 0.49329 0.0
C444 C 0.94282 0.96782 0.76992 0.0
C445 C 0.94873 0.96367 0.75635 0.0
C446 C 0.91535 0.93425 0.77727 0.0
C447 C 0.85412 0.82108 0.77693 0.0
H448 H 0.79403 0.84029 0.80366 0.0
C449 C 0.71938 0.69241 0.80561 0.0
C450 C 0.7221 0.69733 0.8196 0.0
C451 C 0.74594 0.72418 0.79737 0.0
C452 C 0.81069 0.83454 0.79625 0.0
H453 H 0.93106 0.921 0.73984 0.0
H454 H 0.88176 0.86232 0.75255 0.0
H455 H 0.84249 0.8966 0.79012 0.0
H456 H 0.75587 0.73895 0.83594 0.0
H457 H 0.80132 0.7948 0.82153 0.0
H458 H 0.82118 0.75857 0.78297 0.0
C459 C 0.89907 0.89139 0.75763 0.0
C460 C 0.8387 0.86682 0.78854 0.0
C461 C 0.92721 0.925 0.75031 0.0
C462 C 0.75221 0.73458 0.82519 0.0
C463 C 0.77831 0.76649 0.81695 0.0
C464 C 0.82558 0.78863 0.78453 0.0
C465 C 0.89241 0.89573 0.77117 0.0
C466 C 0.86129 0.8607 0.77891 0.0
C467 C 0.77556 0.76152 0.80298 0.0
C468 C 0.80403 0.79523 0.79437 0.0
H469 H 0.95944 0.99717 0.7749 0.0
H470 H 0.91205 0.93864 0.78776 0.0
H471 H 0.8712 0.81523 0.76973 0.0
H472 H 0.697 0.66374 0.80107 0.0
H473 H 0.74325 0.71966 0.78662 0.0
C474 C 0.08375 0.98611 0.1093 0.0
C475 C 0.0826 0.97701 0.09567 0.0
C476 C 0.08675 0.96131 0.11903 0.0
C477 C 0.09991 0.8708 0.12376 0.0
H478 H 0.0339 0.85411 0.15461 0.0
C479 C 0.02092 0.72437 0.15582 0.0
C480 C 0.02332 0.7295 0.16981 0.0
C481 C 0.03767 0.75821 0.14741 0.0
C482 C 0.05292 0.85884 0.14615 0.0
H483 H 0.08512 0.93594 0.08142 0.0
H484 H 0.08787 0.89122 0.09829 0.0
H485 H 0.04579 0.90723 0.1388 0.0
H486 H 0.04519 0.77389 0.18591 0.0
H487 H 0.07373 0.83309 0.17116 0.0
H488 H 0.10422 0.81993 0.13086 0.0
C489 C 0.08803 0.9182 0.10162 0.0
C490 C 0.06007 0.88957 0.13707 0.0
C491 C 0.08621 0.94373 0.0919 0.0
C492 C 0.0434 0.76912 0.17518 0.0
C493 C 0.05957 0.8029 0.16677 0.0
C494 C 0.09199 0.83941 0.13273 0.0
C495 C 0.08726 0.92603 0.11534 0.0
C496 C 0.08328 0.89578 0.12564 0.0
C497 C 0.05625 0.79771 0.15281 0.0
C498 C 0.0681 0.83298 0.14392 0.0
H499 H 0.08151 0.01196 0.11245 0.0
H500 H 0.08749 0.96927 0.12945 0.0
H501 H 0.1186 0.87501 0.11527 0.0
H502 H 0.00495 0.69426 0.15137 0.0
H503 H 0.03422 0.75345 0.13666 0.0
C504 C 0.20267 0.09099 0.4136 0.0
C505 C 0.16547 0.08775 0.4163 0.0
C506 C 0.22581 0.0876 0.42392 0.0
C507 C 0.24651 0.09593 0.45981 0.0
H508 H 0.26416 0.00559 0.45507 0.0
C509 C 0.29277 0.02831 0.50371 0.0
C510 C 0.31465 0.00895 0.50111 0.0
C511 C 0.27997 0.04379 0.49326 0.0
C512 C 0.26056 0.03161 0.4565 0.0
H513 H 0.12441 0.08069 0.43202 0.0
H514 H 0.16557 0.07576 0.45013 0.0
H515 H 0.23296 0.02369 0.43706 0.0
H516 H 0.34182 0.99231 0.48542 0.0
H517 H 0.32175 0.02139 0.46735 0.0
H518 H 0.27472 0.10454 0.47915 0.0
C519 C 0.17643 0.0805 0.43999 0.0
C520 C 0.24237 0.04173 0.44618 0.0
C521 C 0.15285 0.08309 0.42963 0.0
C522 C 0.32502 0.00702 0.48784 0.0
C523 C 0.31301 0.02331 0.47742 0.0
C524 C 0.26553 0.08637 0.47008 0.0
C525 C 0.21259 0.08177 0.43716 0.0
C526 C 0.23469 0.07357 0.44781 0.0
C527 C 0.28932 0.04089 0.47992 0.0
C528 C 0.27226 0.05362 0.46865 0.0
H529 H 0.21318 0.09451 0.40344 0.0
H530 H 0.25368 0.08875 0.42154 0.0
H531 H 0.24104 0.12079 0.46124 0.0
H532 H 0.28423 0.03004 0.51384 0.0
H533 H 0.26136 0.05651 0.49564 0.0
C534 C 0.14519 0.1852 0.75227 0.0
C535 C 0.12728 0.14323 0.75454 0.0
C536 C 0.17328 0.21327 0.76153 0.0
C537 C 0.24172 0.21919 0.78925 0.0
H538 H 0.24962 0.32223 0.79726 0.0
C539 C 0.35477 0.31944 0.83757 0.0
C540 C 0.37297 0.37458 0.8362 0.0
C541 C 0.31656 0.28797 0.82541 0.0
C542 C 0.24783 0.29365 0.79503 0.0
H543 H 0.12314 0.09766 0.76851 0.0
H544 H 0.17074 0.14625 0.78479 0.0
H545 H 0.19816 0.27527 0.78117 0.0
H546 H 0.38425 0.43149 0.8193 0.0
H547 H 0.32411 0.37674 0.7999 0.0
H548 H 0.29085 0.23718 0.80316 0.0
C549 C 0.16445 0.15776 0.77569 0.0
C550 C 0.21849 0.2668 0.7858 0.0
C551 C 0.13695 0.12984 0.76638 0.0
C552 C 0.36991 0.39882 0.82031 0.0
C553 C 0.33101 0.36461 0.8087 0.0
C554 C 0.27054 0.2457 0.79855 0.0
C555 C 0.18358 0.19981 0.77329 0.0
C556 C 0.21495 0.22909 0.78287 0.0
C557 C 0.30407 0.31033 0.81152 0.0
C558 C 0.27369 0.28298 0.80157 0.0
H559 H 0.13821 0.19632 0.74321 0.0
H560 H 0.18764 0.24541 0.7593 0.0
H561 H 0.24077 0.19103 0.78697 0.0
H562 H 0.3598 0.3065 0.84654 0.0
H563 H 0.30076 0.25529 0.82656 0.0
C564 C 0.9565 0.06435 0.68649 0.0
C565 C 0.94553 0.06641 0.69967 0.0
C566 C 0.93099 0.06052 0.67569 0.0
C567 C 0.82703 0.02901 0.6661 0.0
H568 H 0.87067 0.12714 0.64487 0.0
C569 C 0.73171 0.09513 0.64889 0.0
C570 C 0.74319 0.12219 0.63812 0.0
C571 C 0.75377 0.07656 0.65233 0.0
C572 C 0.85796 0.0988 0.65031 0.0
H573 H 0.89872 0.06402 0.71197 0.0
H574 H 0.85383 0.05632 0.69315 0.0
H575 H 0.91579 0.11484 0.65881 0.0
H576 H 0.78563 0.14961 0.62203 0.0
H577 H 0.82351 0.11604 0.62773 0.0
H578 H 0.76905 0.0133 0.65794 0.0
C579 C 0.88222 0.05805 0.69117 0.0
C580 C 0.88397 0.09191 0.65835 0.0
C581 C 0.90806 0.06293 0.70191 0.0
C582 C 0.77595 0.12866 0.63036 0.0
C583 C 0.79781 0.10966 0.6337 0.0
C584 C 0.80108 0.03546 0.65786 0.0
C585 C 0.89371 0.05743 0.67799 0.0
C586 C 0.86838 0.05813 0.66683 0.0
C587 C 0.7879 0.08455 0.64503 0.0
C588 C 0.81593 0.07169 0.65051 0.0
H589 H 0.98526 0.06692 0.68452 0.0
H590 H 0.9405 0.06045 0.66557 0.0
H591 H 0.81452 0.00248 0.67248 0.0
H592 H 0.70685 0.08999 0.65511 0.0
H593 H 0.74549 0.05811 0.66126 0.0
C594 C 0.94064 0.90707 0.03824 0.0
C595 C 0.94278 0.94272 0.04289 0.0
C596 C 0.90992 0.88128 0.02928 0.0
C597 C 0.85095 0.88533 0.00186 0.0
H598 H 0.789 0.76778 0.00487 0.0
C599 C 0.75627 0.78536 0.95718 0.0
C600 C 0.75926 0.7508 0.95487 0.0
C601 C 0.77009 0.80665 0.9693 0.0
C602 C 0.80623 0.80055 0.00383 0.0
H603 H 0.91415 0.97905 0.04211 0.0
H604 H 0.86101 0.93438 0.02603 0.0
H605 H 0.82963 0.80903 0.02398 0.0
H606 H 0.77779 0.71058 0.96349 0.0
H607 H 0.80335 0.74838 0.9844 0.0
H608 H 0.83012 0.8772 0.98152 0.0
C609 C 0.88279 0.92624 0.02951 0.0
C610 C 0.82921 0.82407 0.0148 0.0
C611 C 0.91305 0.95162 0.03871 0.0
C612 C 0.77526 0.73723 0.96503 0.0
C613 C 0.78948 0.75871 0.97706 0.0
C614 C 0.82853 0.86182 0.99082 0.0
C615 C 0.8813 0.89112 0.02462 0.0
C616 C 0.85242 0.86657 0.0138 0.0
C617 C 0.78761 0.79404 0.9793 0.0
C618 C 0.80669 0.81907 0.99156 0.0
H619 H 0.96315 0.89951 0.04135 0.0
H620 H 0.90958 0.85454 0.02553 0.0
H621 H 0.86897 0.91809 0.00083 0.0
H622 H 0.74379 0.79627 0.94953 0.0
H623 H 0.76754 0.8333 0.97075 0.0
C624 C 0.05467 0.95279 0.35334 0.0
C625 C 0.04287 0.95286 0.36653 0.0
C626 C 0.04814 0.917 0.34741 0.0
C627 C 0.988 0.8053 0.34952 0.0
H628 H 0.06939 0.81387 0.32532 0.0
C629 C 0.97347 0.66896 0.31881 0.0
C630 C 0.98091 0.67741 0.30511 0.0
C631 C 0.98277 0.70036 0.32794 0.0
C632 C 0.04646 0.81101 0.33208 0.0
H633 H 0.01446 0.91528 0.38383 0.0
H634 H 0.00355 0.85233 0.37349 0.0
H635 H 0.08247 0.87278 0.33858 0.0
H636 H 0.00234 0.72496 0.29016 0.0
H637 H 0.01899 0.77964 0.30607 0.0
H638 H 0.95195 0.74334 0.34282 0.0
C639 C 0.01746 0.88009 0.3677 0.0
C640 C 0.05382 0.84475 0.33963 0.0
C641 C 0.0237 0.91607 0.37362 0.0
C642 C 0.99712 0.71768 0.30069 0.0
C643 C 0.00672 0.74895 0.30979 0.0
C644 C 0.98077 0.77132 0.34202 0.0
C645 C 0.03005 0.88032 0.35457 0.0
C646 C 0.02415 0.84273 0.34808 0.0
C647 C -0.00024 0.74067 0.3235 0.0
C648 C 0.00946 0.77432 0.33292 0.0
H649 H 0.069 0.98051 0.34752 0.0
H650 H 0.0571 0.91811 0.33715 0.0
H651 H 0.9645 0.80275 0.35592 0.0
H652 H 0.9605 0.63809 0.32243 0.0
H653 H 0.97705 0.69324 0.33846 0.0
C654 C 0.13817 0.05984 0.68773 0.0
C655 C 0.11875 0.0325 0.69823 0.0
C656 C 0.16438 0.0552 0.67947 0.0
C657 C 0.19366 0.98098 0.66911 0.0
H658 H 0.29516 0.07769 0.66053 0.0
C659 C 0.31194 0.97147 0.63756 0.0
C660 C 0.35209 0.99444 0.64233 0.0
C661 C 0.28223 0.97808 0.64263 0.0
C662 C 0.26698 0.05038 0.66285 0.0
H663 H 0.11112 0.97853 0.7082 0.0
H664 H 0.15728 0.97073 0.69392 0.0
H665 H 0.24506 0.08417 0.67301 0.0
H666 H 0.39254 0.04195 0.65618 0.0
H667 H 0.34069 0.05317 0.6652 0.0
H668 H 0.21624 0.94703 0.65949 0.0
C669 C 0.15181 0.99542 0.69192 0.0
C670 C 0.23806 0.05413 0.66988 0.0
C671 C 0.12553 2e-05 0.70016 0.0
C672 C 0.36197 0.02435 0.65216 0.0
C673 C 0.33227 0.03085 0.65728 0.0
C674 C 0.2226 0.97723 0.66212 0.0
C675 C 0.17179 0.02316 0.68155 0.0
C676 C 0.2013 0.01941 0.67326 0.0
C677 C 0.29193 0.0074 0.65271 0.0
C678 C 0.25985 0.01183 0.65908 0.0
H679 H 0.13345 0.08512 0.68594 0.0
H680 H 0.17886 0.07677 0.67146 0.0
H681 H 0.16542 0.95369 0.67139 0.0
H682 H 0.30338 0.9478 0.63011 0.0
H683 H 0.25153 0.95979 0.6388 0.0
C684 C 0.15912 0.15495 0.03426 0.0
C685 C 0.12509 0.11901 0.02962 0.0
C686 C 0.18723 0.18223 0.0252 0.0
C687 C 0.19138 0.20791 0.9891 0.0
H688 H 0.30148 0.29015 -0.00129 0.0
C689 C 0.28988 0.33557 0.95283 0.0
C690 C 0.30412 0.37459 0.9582 0.0
C691 C 0.27528 0.30175 0.96119 0.0
C692 C 0.27085 0.26715 0.99589 0.0
H693 H 0.09504 0.0813 0.01223 0.0
H694 H 0.14543 0.12709 0.9965 0.0
H695 H 0.26289 0.23339 0.01387 0.0
H696 H 0.31482 0.40883 0.9766 0.0
H697 H 0.29001 0.34973 0.99124 0.0
H698 H 0.19952 0.24163 0.97113 0.0
C699 C 0.14968 0.13571 0.00698 0.0
C700 C 0.24857 0.23476 0.0046 0.0
C701 C 0.121 0.10915 0.01598 0.0
C702 C 0.30478 0.37928 0.97218 0.0
C703 C 0.29065 0.34549 0.98056 0.0
C704 C 0.21388 0.23972 0.98033 0.0
C705 C 0.18223 0.17353 0.01136 0.0
C706 C 0.20813 0.20517 0.00147 0.0
C707 C 0.27479 0.30631 0.97511 0.0
C708 C 0.25347 0.27012 0.98375 0.0
H709 H 0.16257 0.16321 0.04477 0.0
H710 H 0.21147 0.21106 0.02903 0.0
H711 H 0.16018 0.18661 0.98638 0.0
H712 H 0.28856 0.33105 0.94209 0.0
H713 H 0.26319 0.27183 0.95675 0.0
C714 C 0.0719 0.1576 0.35675 0.0
C715 C 0.03532 0.1279 0.36224 0.0
C716 C 0.07236 0.18439 0.34714 0.0
C717 C 0.02455 0.24001 0.33918 0.0
H718 H 0.08635 0.26822 0.3067 0.0
C719 C 0.07329 0.39215 0.31358 0.0
C720 C 0.11383 0.41368 0.30976 0.0
C721 C 0.05433 0.35067 0.31646 0.0
C722 C 0.06908 0.26086 0.31575 0.0
H723 H 0.97046 0.10213 0.36187 0.0
H724 H 0.97154 0.15065 0.34536 0.0
H725 H 0.07032 0.2058 0.31855 0.0
H726 H 0.16567 0.40841 0.30521 0.0
H727 H 0.13359 0.3367 0.31086 0.0
H728 H 0.0261 0.29636 0.33722 0.0
C729 C -0.0004 0.15238 0.34834 0.0
C730 C 0.05961 0.22495 0.32243 0.0
C731 C -0.00098 0.12479 0.35774 0.0
C732 C 0.13448 0.39255 0.30825 0.0
C733 C 0.1158 0.35126 0.31134 0.0
C734 C 0.03462 0.27628 0.33266 0.0
C735 C 0.03636 0.18254 0.34305 0.0
C736 C 0.03844 0.21499 0.33443 0.0
C737 C 0.07576 0.32997 0.31581 0.0
C738 C 0.05835 0.28794 0.32113 0.0
H739 H 0.10025 0.16042 0.36001 0.0
H740 H 0.10111 0.20777 0.34333 0.0
H741 H 0.00848 0.23307 0.3485 0.0
H742 H 0.05651 0.40764 0.31466 0.0
H743 H 0.02323 0.33513 0.31956 0.0
loop_
_geom_bond_atom_site_label_1
_geom_bond_atom_site_label_2
_geom_bond_distance
_geom_bond_site_symmetry_2
_ccdc_geom_bond_type
C0 O1 1.306 . S
C0 O3 1.160 . S
O1 C0 1.306 . S
O1 Cd2 2.228 . S
Cd2 O1 2.228 . S
Cd2 O6 2.273 1_455 S
Cd2 O10 2.277 . S
O3 C0 1.160 . S
O3 Cd4 2.203 . S
Cd4 O3 2.203 . S
Cd4 O6 2.411 1_455 S
Cd4 O7 2.333 1_545 S
Cd4 O8 2.352 1_545 S
Cd4 O12 2.277 . S
Cd4 O13 2.356 1_545 S
C5 O10 1.209 . S
C5 O12 1.226 . S
O6 Cd2 2.273 1_655 S
O6 Cd4 2.411 1_655 S
O6 C9 1.320 1_545 S
O7 Cd4 2.333 1_565 S
O7 C9 1.214 1_455 S
O8 Cd4 2.352 1_565 S
O8 C11 1.258 . S
C9 O6 1.320 1_565 S
C9 O7 1.214 1_655 S
O10 Cd2 2.277 . S
O10 C5 1.209 . S
C11 O8 1.258 . S
C11 O13 1.282 . S
O12 Cd4 2.277 . S
O12 C5 1.226 . S
O13 Cd4 2.356 1_565 S
O13 C11 1.282 . S
C14 O15 1.306 . S
C14 O17 1.160 . S
O15 C14 1.306 . S
O15 Cd16 2.228 . S
Cd16 O15 2.228 . S
Cd16 O20 2.273 . S
Cd16 O24 2.277 . S
O17 C14 1.160 . S
O17 Cd18 2.203 . S
Cd18 O17 2.203 . S
Cd18 O20 2.411 . S
Cd18 O21 2.333 . S
Cd18 O22 2.352 . S
Cd18 O26 2.277 1_545 S
Cd18 O27 2.356 1_455 S
C19 O24 1.209 1_565 S
C19 O26 1.226 . S
O20 Cd16 2.273 . S
O20 Cd18 2.411 . S
O20 C23 1.320 . S
O21 Cd18 2.333 . S
O21 C23 1.214 . S
O22 Cd18 2.352 . S
O22 C25 1.258 1_455 S
C23 O20 1.320 . S
C23 O21 1.214 . S
O24 Cd16 2.277 . S
O24 C19 1.209 1_545 S
C25 O22 1.258 1_655 S
C25 O27 1.282 . S
O26 Cd18 2.277 1_565 S
O26 C19 1.226 . S
O27 Cd18 2.356 1_655 S
O27 C25 1.282 . S
C28 O29 1.306 . S
C28 O31 1.160 1_655 S
O29 C28 1.306 . S
O29 Cd30 2.228 1_655 S
Cd30 O29 2.228 1_455 S
Cd30 O34 2.273 . S
Cd30 O38 2.277 1_455 S
O31 C28 1.160 1_455 S
O31 Cd32 2.203 . S
Cd32 O31 2.203 . S
Cd32 O34 2.411 . S
Cd32 O35 2.333 . S
Cd32 O36 2.352 . S
Cd32 O40 2.277 1_545 S
Cd32 O41 2.356 . S
C33 O38 1.209 1_565 S
C33 O40 1.226 1_655 S
O34 Cd30 2.273 . S
O34 Cd32 2.411 . S
O34 C37 1.320 . S
O35 Cd32 2.333 . S
O35 C37 1.214 . S
O36 Cd32 2.352 . S
O36 C39 1.258 . S
C37 O34 1.320 . S
C37 O35 1.214 . S
O38 Cd30 2.277 1_655 S
O38 C33 1.209 1_545 S
C39 O36 1.258 . S
C39 O41 1.282 . S
O40 Cd32 2.277 1_565 S
O40 C33 1.226 1_455 S
O41 Cd32 2.356 . S
O41 C39 1.282 . S
C42 C43 1.560 . S
C42 H103 0.959 1_455 S
C42 H104 0.959 1_455 S
C42 H105 0.960 . S
C43 C42 1.560 . S
C43 O98 1.426 . S
C43 H102 0.980 . S
C44 C45 1.407 . S
C44 C49 1.418 . S
C44 O98 1.334 . S
C45 C44 1.407 . S
C45 C46 1.360 . S
C45 H106 0.929 . S
C46 C45 1.360 . S
C46 C47 1.401 . S
C46 C50 1.527 . S
C47 C46 1.401 . S
C47 C48 1.405 . S
C47 C80 1.587 . S
C48 C47 1.405 . S
C48 C49 1.332 . S
C48 C51 1.496 1_455 S
C49 C44 1.418 . S
C49 C48 1.332 . S
C49 H107 0.929 1_455 S
C50 C46 1.527 . S
C50 H108 0.959 . S
C50 H109 0.961 . S
C50 H110 0.961 . S
C51 C48 1.496 1_655 S
C51 H111 0.960 . S
C51 H112 0.960 . S
C51 H113 0.961 . S
C52 C53 1.517 . S
C52 H115 0.961 . S
C52 H116 0.960 . S
C52 H117 0.959 . S
C53 C52 1.517 . S
C53 O101 1.468 . S
C53 H114 0.980 . S
C54 C55 1.349 . S
C54 C59 1.367 . S
C54 O101 1.408 . S
C55 C54 1.349 . S
C55 C56 1.407 . S
C55 H118 0.930 . S
C56 C55 1.407 . S
C56 C57 1.449 . S
C56 C60 1.535 . S
C57 C56 1.449 . S
C57 C58 1.384 . S
C57 C82 1.553 . S
C58 C57 1.384 . S
C58 C59 1.364 . S
C58 C61 1.450 . S
C59 C54 1.367 . S
C59 C58 1.364 . S
C59 H119 0.931 . S
C60 C56 1.535 . S
C60 H120 0.959 . S
C60 H121 0.961 . S
C60 H122 0.959 . S
C61 C58 1.450 . S
C61 H123 0.960 . S
C61 H124 0.960 . S
C61 H125 0.960 . S
C62 C63 1.309 . S
C62 C67 1.304 . S
C62 O100 1.435 . S
C63 C62 1.309 . S
C63 C64 1.476 . S
C63 H127 0.930 . S
C64 C63 1.476 . S
C64 C65 1.400 . S
C64 C68 1.567 . S
C65 C64 1.400 . S
C65 C66 1.373 . S
C65 C87 1.432 . S
C66 C65 1.373 . S
C66 C67 1.339 . S
C66 C69 1.530 . S
C67 C62 1.304 . S
C67 C66 1.339 . S
C67 H128 0.930 . S
C68 C64 1.567 . S
C68 H129 0.961 . S
C68 H130 0.960 1_455 S
C68 H131 0.958 1_455 S
C69 C66 1.530 . S
C69 H132 0.961 . S
C69 H133 0.960 . S
C69 H134 0.960 . S
C70 C71 1.530 . S
C70 H136 0.961 . S
C70 H137 0.961 . S
C70 H138 0.959 . S
C71 C70 1.530 . S
C71 O99 1.412 . S
C71 H135 0.980 . S
C72 C73 1.288 . S
C72 C77 1.377 . S
C72 O99 1.393 . S
C73 C72 1.288 . S
C73 C74 1.369 . S
C73 H139 0.932 1_455 S
C74 C73 1.369 . S
C74 C75 1.398 . S
C74 C78 1.527 1_455 S
C75 C74 1.398 . S
C75 C76 1.380 . S
C75 C89 1.497 . S
C76 C75 1.380 . S
C76 C77 1.383 . S
C76 C79 1.603 . S
C77 C72 1.377 . S
C77 C76 1.383 . S
C77 H140 0.929 . S
C78 C74 1.527 1_655 S
C78 H141 0.961 . S
C78 H142 0.959 . S
C78 H143 0.959 . S
C79 C76 1.603 . S
C79 H144 0.960 . S
C79 H145 0.962 . S
C79 H146 0.961 . S
C80 C47 1.587 . S
C80 C81 1.360 . S
C80 C93 1.412 . S
C81 C80 1.360 . S
C81 C82 1.365 . S
C81 H147 0.929 . S
C82 C57 1.553 . S
C82 C81 1.365 . S
C82 C83 1.404 . S
C83 C82 1.404 . S
C83 C84 1.395 . S
C83 C94 1.451 . S
C84 C83 1.395 . S
C84 C85 1.322 . S
C84 H148 0.930 . S
C85 C84 1.322 . S
C85 C86 1.459 . S
C85 H149 0.929 . S
C86 C85 1.459 . S
C86 C87 1.445 . S
C86 C95 1.395 . S
C87 C65 1.432 . S
C87 C86 1.445 . S
C87 C88 1.370 . S
C88 C87 1.370 . S
C88 C89 1.438 . S
C88 H150 0.930 . S
C89 C75 1.497 . S
C89 C88 1.438 . S
C89 C90 1.360 . S
C90 C89 1.360 . S
C90 C91 1.401 . S
C90 C95 1.446 . S
C91 C90 1.401 . S
C91 C92 1.347 . S
C91 H151 0.929 . S
C92 C91 1.347 . S
C92 C93 1.455 . S
C92 H152 0.930 . S
C93 C80 1.412 . S
C93 C92 1.455 . S
C93 C94 1.331 . S
C94 C83 1.451 . S
C94 C93 1.331 . S
C94 C95 1.497 . S
C95 C86 1.395 . S
C95 C90 1.446 . S
C95 C94 1.497 . S
C96 C97 1.582 . S
C96 H153 0.962 . S
C96 H154 0.959 . S
C96 H155 0.958 . S
C97 C96 1.582 . S
C97 O100 1.458 . S
C97 H126 0.980 . S
O98 C43 1.426 . S
O98 C44 1.334 . S
O99 C71 1.412 . S
O99 C72 1.393 . S
O100 C62 1.435 . S
O100 C97 1.458 . S
O101 C53 1.468 . S
O101 C54 1.408 . S
H102 C43 0.980 . S
H103 C42 0.959 1_655 S
H104 C42 0.959 1_655 S
H105 C42 0.960 . S
H106 C45 0.929 . S
H107 C49 0.929 1_655 S
H108 C50 0.959 . S
H109 C50 0.961 . S
H110 C50 0.961 . S
H111 C51 0.960 . S
H112 C51 0.960 . S
H113 C51 0.961 . S
H114 C53 0.980 . S
H115 C52 0.961 . S
H116 C52 0.960 . S
H117 C52 0.959 . S
H118 C55 0.930 . S
H119 C59 0.931 . S
H120 C60 0.959 . S
H121 C60 0.961 . S
H122 C60 0.959 . S
H123 C61 0.960 . S
H124 C61 0.960 . S
H125 C61 0.960 . S
H126 C97 0.980 . S
H127 C63 0.930 . S
H128 C67 0.930 . S
H129 C68 0.961 . S
H130 C68 0.960 1_655 S
H131 C68 0.958 1_655 S
H132 C69 0.961 . S
H133 C69 0.960 . S
H134 C69 0.960 . S
H135 C71 0.980 . S
H136 C70 0.961 . S
H137 C70 0.961 . S
H138 C70 0.959 . S
H139 C73 0.932 1_655 S
H140 C77 0.929 . S
H141 C78 0.961 . S
H142 C78 0.959 . S
H143 C78 0.959 . S
H144 C79 0.960 . S
H145 C79 0.962 . S
H146 C79 0.961 . S
H147 C81 0.929 . S
H148 C84 0.930 . S
H149 C85 0.929 . S
H150 C88 0.930 . S
H151 C91 0.929 . S
H152 C92 0.930 . S
H153 C96 0.962 . S
H154 C96 0.959 . S
H155 C96 0.958 . S
C156 C157 1.560 1_565 S
C156 H217 0.959 . S
C156 H218 0.959 . S
C156 H219 0.960 1_565 S
C157 C156 1.560 1_545 S
C157 O212 1.426 . S
C157 H216 0.980 . S
C158 C159 1.407 . S
C158 C163 1.389 1_545 S
C158 O212 1.334 . S
C159 C158 1.407 . S
C159 C160 1.360 . S
C159 H220 0.929 . S
C160 C159 1.360 . S
C160 C161 1.401 . S
C160 C164 1.527 . S
C161 C160 1.401 . S
C161 C162 1.405 . S
C161 C194 1.587 . S
C162 C161 1.405 . S
C162 C163 1.337 1_545 S
C162 C165 1.496 1_545 S
C163 C158 1.389 1_565 S
C163 C162 1.337 1_565 S
C163 H221 0.955 . S
C164 C160 1.527 . S
C164 H222 0.959 . S
C164 H223 0.961 . S
C164 H224 0.961 . S
C165 C162 1.496 1_565 S
C165 H225 0.960 . S
C165 H226 0.960 . S
C165 H227 0.961 . S
C166 C167 1.517 . S
C166 H229 0.961 . S
C166 H230 0.960 . S
C166 H231 0.959 . S
C167 C166 1.517 . S
C167 O215 1.468 . S
C167 H228 0.980 . S
C168 C169 1.349 . S
C168 C173 1.367 . S
C168 O215 1.408 . S
C169 C168 1.349 . S
C169 C170 1.407 . S
C169 H232 0.930 . S
C170 C169 1.407 . S
C170 C171 1.449 . S
C170 C174 1.535 . S
C171 C170 1.449 . S
C171 C172 1.384 . S
C171 C196 1.553 . S
C172 C171 1.384 . S
C172 C173 1.364 . S
C172 C175 1.450 . S
C173 C168 1.367 . S
C173 C172 1.364 . S
C173 H233 0.931 . S
C174 C170 1.535 . S
C174 H234 0.959 . S
C174 H235 0.961 1_545 S
C174 H236 0.959 1_545 S
C175 C172 1.450 . S
C175 H237 0.960 . S
C175 H238 0.960 . S
C175 H239 0.960 . S
C176 C177 1.309 . S
C176 C181 1.304 . S
C176 O214 1.435 . S
C177 C176 1.309 . S
C177 C178 1.476 . S
C177 H241 0.930 . S
C178 C177 1.476 . S
C178 C179 1.400 . S
C178 C182 1.567 1_545 S
C179 C178 1.400 . S
C179 C180 1.373 . S
C179 C201 1.432 . S
C180 C179 1.373 . S
C180 C181 1.339 . S
C180 C183 1.530 . S
C181 C176 1.304 . S
C181 C180 1.339 . S
C181 H242 0.930 . S
C182 C178 1.567 1_565 S
C182 H243 0.961 1_565 S
C182 H244 0.959 . S
C182 H245 0.957 . S
C183 C180 1.530 . S
C183 H246 0.961 . S
C183 H247 0.960 . S
C183 H248 0.960 . S
C184 C185 1.530 . S
C184 H250 0.961 . S
C184 H251 0.961 1_545 S
C184 H252 0.959 1_545 S
C185 C184 1.530 . S
C185 O213 1.412 . S
C185 H249 0.980 . S
C186 C187 1.288 1_545 S
C186 C191 1.377 . S
C186 O213 1.393 . S
C187 C186 1.288 1_565 S
C187 C188 1.369 1_565 S
C187 H253 0.932 . S
C188 C187 1.369 1_545 S
C188 C189 1.398 . S
C188 C192 1.527 1_545 S
C189 C188 1.398 . S
C189 C190 1.380 . S
C189 C203 1.497 . S
C190 C189 1.380 . S
C190 C191 1.383 . S
C190 C193 1.603 . S
C191 C186 1.377 . S
C191 C190 1.383 . S
C191 H254 0.929 . S
C192 C188 1.527 1_565 S
C192 H255 0.961 . S
C192 H256 0.959 . S
C192 H257 0.959 . S
C193 C190 1.603 . S
C193 H258 0.960 . S
C193 H259 0.962 . S
C193 H260 0.961 . S
C194 C161 1.587 . S
C194 C195 1.360 . S
C194 C207 1.412 . S
C195 C194 1.360 . S
C195 C196 1.365 . S
C195 H261 0.929 . S
C196 C171 1.553 . S
C196 C195 1.365 . S
C196 C197 1.404 . S
C197 C196 1.404 . S
C197 C198 1.395 . S
C197 C208 1.451 . S
C198 C197 1.395 . S
C198 C199 1.322 . S
C198 H262 0.930 . S
C199 C198 1.322 . S
C199 C200 1.459 . S
C199 H263 0.929 . S
C200 C199 1.459 . S
C200 C201 1.445 . S
C200 C209 1.395 . S
C201 C179 1.432 . S
C201 C200 1.445 . S
C201 C202 1.370 . S
C202 C201 1.370 . S
C202 C203 1.438 . S
C202 H264 0.930 . S
C203 C189 1.497 . S
C203 C202 1.438 . S
C203 C204 1.360 . S
C204 C203 1.360 . S
C204 C205 1.401 . S
C204 C209 1.446 . S
C205 C204 1.401 . S
C205 C206 1.347 . S
C205 H265 0.929 . S
C206 C205 1.347 . S
C206 C207 1.455 . S
C206 H266 0.930 . S
C207 C194 1.412 . S
C207 C206 1.455 . S
C207 C208 1.331 . S
C208 C197 1.451 . S
C208 C207 1.331 . S
C208 C209 1.497 . S
C209 C200 1.395 . S
C209 C204 1.446 . S
C209 C208 1.497 . S
C210 C211 1.582 . S
C210 H267 0.962 . S
C210 H268 0.959 . S
C210 H269 0.958 . S
C211 C210 1.582 . S
C211 O214 1.458 . S
C211 H240 0.980 . S
O212 C157 1.426 . S
O212 C158 1.334 . S
O213 C185 1.412 . S
O213 C186 1.393 . S
O214 C176 1.435 . S
O214 C211 1.458 . S
O215 C167 1.468 . S
O215 C168 1.408 . S
H216 C157 0.980 . S
H217 C156 0.959 . S
H218 C156 0.959 . S
H219 C156 0.960 1_545 S
H220 C159 0.929 . S
H221 C163 0.955 . S
H222 C164 0.959 . S
H223 C164 0.961 . S
H224 C164 0.961 . S
H225 C165 0.960 . S
H226 C165 0.960 . S
H227 C165 0.961 . S
H228 C167 0.980 . S
H229 C166 0.961 . S
H230 C166 0.960 . S
H231 C166 0.959 . S
H232 C169 0.930 . S
H233 C173 0.931 . S
H234 C174 0.959 . S
H235 C174 0.961 1_565 S
H236 C174 0.959 1_565 S
H237 C175 0.960 . S
H238 C175 0.960 . S
H239 C175 0.960 . S
H240 C211 0.980 . S
H241 C177 0.930 . S
H242 C181 0.930 . S
H243 C182 0.961 1_545 S
H244 C182 0.959 . S
H245 C182 0.957 . S
H246 C183 0.961 . S
H247 C183 0.960 . S
H248 C183 0.960 . S
H249 C185 0.980 . S
H250 C184 0.961 . S
H251 C184 0.961 1_565 S
H252 C184 0.959 1_565 S
H253 C187 0.932 . S
H254 C191 0.929 . S
H255 C192 0.961 . S
H256 C192 0.959 . S
H257 C192 0.959 . S
H258 C193 0.960 . S
H259 C193 0.962 . S
H260 C193 0.961 . S
H261 C195 0.929 . S
H262 C198 0.930 . S
H263 C199 0.929 . S
H264 C202 0.930 . S
H265 C205 0.929 . S
H266 C206 0.930 . S
H267 C210 0.962 . S
H268 C210 0.959 . S
H269 C210 0.958 . S
C270 C271 1.560 . S
C270 H331 0.959 . S
C270 H332 0.959 . S
C270 H333 0.960 . S
C271 C270 1.560 . S
C271 O326 1.426 . S
C271 H330 0.980 . S
C272 C273 1.407 . S
C272 C277 1.418 . S
C272 O326 1.334 . S
C273 C272 1.407 . S
C273 C274 1.360 . S
C273 H334 0.929 . S
C274 C273 1.360 . S
C274 C275 1.401 . S
C274 C278 1.527 . S
C275 C274 1.401 . S
C275 C276 1.405 . S
C275 C308 1.587 . S
C276 C275 1.405 . S
C276 C277 1.332 . S
C276 C279 1.496 . S
C277 C272 1.418 . S
C277 C276 1.332 . S
C277 H335 0.929 . S
C278 C274 1.527 . S
C278 H336 0.959 . S
C278 H337 0.961 . S
C278 H338 0.961 . S
C279 C276 1.496 . S
C279 H339 0.960 . S
C279 H340 0.960 . S
C279 H341 0.961 . S
C280 C281 1.517 . S
C280 H343 0.961 . S
C280 H344 0.960 . S
C280 H345 0.959 . S
C281 C280 1.517 . S
C281 O329 1.468 . S
C281 H342 0.980 . S
C282 C283 1.349 . S
C282 C287 1.367 . S
C282 O329 1.408 . S
C283 C282 1.349 . S
C283 C284 1.407 . S
C283 H346 0.930 . S
C284 C283 1.407 . S
C284 C285 1.449 . S
C284 C288 1.535 . S
C285 C284 1.449 . S
C285 C286 1.384 . S
C285 C310 1.553 . S
C286 C285 1.384 . S
C286 C287 1.364 . S
C286 C289 1.450 . S
C287 C282 1.367 . S
C287 C286 1.364 . S
C287 H347 0.931 . S
C288 C284 1.535 . S
C288 H348 0.959 . S
C288 H349 0.961 . S
C288 H350 0.959 . S
C289 C286 1.450 . S
C289 H351 0.960 . S
C289 H352 0.960 . S
C289 H353 0.960 . S
C290 C291 1.309 . S
C290 C295 1.304 . S
C290 O328 1.435 . S
C291 C290 1.309 . S
C291 C292 1.476 . S
C291 H355 0.930 . S
C292 C291 1.476 . S
C292 C293 1.400 . S
C292 C296 1.567 . S
C293 C292 1.400 . S
C293 C294 1.373 . S
C293 C315 1.432 . S
C294 C293 1.373 . S
C294 C295 1.339 . S
C294 C297 1.530 . S
C295 C290 1.304 . S
C295 C294 1.339 . S
C295 H356 0.930 . S
C296 C292 1.567 . S
C296 H357 0.961 . S
C296 H358 0.960 . S
C296 H359 0.958 . S
C297 C294 1.530 . S
C297 H360 0.961 . S
C297 H361 0.960 . S
C297 H362 0.960 . S
C298 C299 1.530 . S
C298 H364 0.961 . S
C298 H365 0.961 . S
C298 H366 0.959 . S
C299 C298 1.530 . S
C299 O327 1.412 . S
C299 H363 0.980 . S
C300 C301 1.288 . S
C300 C305 1.377 . S
C300 O327 1.393 . S
C301 C300 1.288 . S
C301 C302 1.369 . S
C301 H367 0.932 . S
C302 C301 1.369 . S
C302 C303 1.398 . S
C302 C306 1.527 . S
C303 C302 1.398 . S
C303 C304 1.380 . S
C303 C317 1.497 . S
C304 C303 1.380 . S
C304 C305 1.383 . S
C304 C307 1.603 . S
C305 C300 1.377 . S
C305 C304 1.383 . S
C305 H368 0.929 . S
C306 C302 1.527 . S
C306 H369 0.961 . S
C306 H370 0.959 . S
C306 H371 0.959 . S
C307 C304 1.603 . S
C307 H372 0.960 . S
C307 H373 0.962 . S
C307 H374 0.961 . S
C308 C275 1.587 . S
C308 C309 1.360 . S
C308 C321 1.412 . S
C309 C308 1.360 . S
C309 C310 1.365 . S
C309 H375 0.929 . S
C310 C285 1.553 . S
C310 C309 1.365 . S
C310 C311 1.404 . S
C311 C310 1.404 . S
C311 C312 1.395 . S
C311 C322 1.451 . S
C312 C311 1.395 . S
C312 C313 1.322 . S
C312 H376 0.930 . S
C313 C312 1.322 . S
C313 C314 1.459 . S
C313 H377 0.929 . S
C314 C313 1.459 . S
C314 C315 1.445 . S
C314 C323 1.395 . S
C315 C293 1.432 . S
C315 C314 1.445 . S
C315 C316 1.370 . S
C316 C315 1.370 . S
C316 C317 1.438 . S
C316 H378 0.930 . S
C317 C303 1.497 . S
C317 C316 1.438 . S
C317 C318 1.360 . S
C318 C317 1.360 . S
C318 C319 1.401 . S
C318 C323 1.446 . S
C319 C318 1.401 . S
C319 C320 1.347 . S
C319 H379 0.929 . S
C320 C319 1.347 . S
C320 C321 1.455 . S
C320 H380 0.930 . S
C321 C308 1.412 . S
C321 C320 1.455 . S
C321 C322 1.331 . S
C322 C311 1.451 . S
C322 C321 1.331 . S
C322 C323 1.497 . S
C323 C314 1.395 . S
C323 C318 1.446 . S
C323 C322 1.497 . S
C324 C325 1.582 . S
C324 H381 0.962 . S
C324 H382 0.959 . S
C324 H383 0.958 . S
C325 C324 1.582 . S
C325 O328 1.458 . S
C325 H354 0.980 . S
O326 C271 1.426 . S
O326 C272 1.334 . S
O327 C299 1.412 . S
O327 C300 1.393 . S
O328 C290 1.435 . S
O328 C325 1.458 . S
O329 C281 1.468 . S
O329 C282 1.408 . S
H330 C271 0.980 . S
H331 C270 0.959 . S
H332 C270 0.959 . S
H333 C270 0.960 . S
H334 C273 0.929 . S
H335 C277 0.929 . S
H336 C278 0.959 . S
H337 C278 0.961 . S
H338 C278 0.961 . S
H339 C279 0.960 . S
H340 C279 0.960 . S
H341 C279 0.961 . S
H342 C281 0.980 . S
H343 C280 0.961 . S
H344 C280 0.960 . S
H345 C280 0.959 . S
H346 C283 0.930 . S
H347 C287 0.931 . S
H348 C288 0.959 . S
H349 C288 0.961 . S
H350 C288 0.959 . S
H351 C289 0.960 . S
H352 C289 0.960 . S
H353 C289 0.960 . S
H354 C325 0.980 . S
H355 C291 0.930 . S
H356 C295 0.930 . S
H357 C296 0.961 . S
H358 C296 0.960 . S
H359 C296 0.958 . S
H360 C297 0.961 . S
H361 C297 0.960 . S
H362 C297 0.960 . S
H363 C299 0.980 . S
H364 C298 0.961 . S
H365 C298 0.961 . S
H366 C298 0.959 . S
H367 C301 0.932 . S
H368 C305 0.929 . S
H369 C306 0.961 . S
H370 C306 0.959 . S
H371 C306 0.959 . S
H372 C307 0.960 . S
H373 C307 0.962 . S
H374 C307 0.961 . S
H375 C309 0.929 . S
H376 C312 0.930 . S
H377 C313 0.929 . S
H378 C316 0.930 . S
H379 C319 0.929 . S
H380 C320 0.930 . S
H381 C324 0.962 . S
H382 C324 0.959 . S
H383 C324 0.958 . S
C384 C385 1.349 . S
C384 C386 1.327 . S
C384 H409 0.950 . S
C385 C384 1.349 . S
C385 C401 1.349 . S
C386 C384 1.327 . S
C386 C405 1.429 . S
C386 H410 0.950 . S
C387 C404 1.574 . S
C387 C406 1.368 . S
C387 H411 0.949 . S
H388 C392 0.949 . S
C389 C390 1.349 . S
C389 C391 1.327 . S
C389 H412 0.950 . S
C390 C389 1.349 . S
C390 C402 1.349 . S
C391 C389 1.327 . S
C391 C407 1.429 . S
C391 H413 0.950 . S
C392 H388 0.949 . S
C392 C400 1.574 . S
C392 C408 1.368 . S
H393 C401 0.950 . S
H394 C399 0.950 . S
H395 C400 0.949 . S
H396 C402 0.950 . S
H397 C403 0.950 . S
H398 C404 0.949 . S
C399 H394 0.950 . S
C399 C401 1.327 . S
C399 C405 1.429 . S
C400 C392 1.574 . S
C400 H395 0.949 . S
C400 C406 1.368 . S
C401 C385 1.349 . S
C401 H393 0.950 . S
C401 C399 1.327 . S
C402 C390 1.349 . S
C402 H396 0.950 . S
C402 C403 1.327 . S
C403 H397 0.950 . S
C403 C402 1.327 . S
C403 C407 1.429 . S
C404 C387 1.574 . S
C404 H398 0.949 . S
C404 C408 1.368 . S
C405 C386 1.429 . S
C405 C399 1.429 . S
C405 C406 1.523 . S
C406 C387 1.368 . S
C406 C400 1.368 . S
C406 C405 1.523 . S
C407 C391 1.429 . S
C407 C403 1.429 . S
C407 C408 1.523 . S
C408 C392 1.368 . S
C408 C404 1.368 . S
C408 C407 1.523 . S
H409 C384 0.950 . S
H410 C386 0.950 . S
H411 C387 0.949 . S
H412 C389 0.950 . S
H413 C391 0.950 . S
C414 C415 1.349 . S
C414 C416 1.327 . S
C414 H439 0.950 . S
C415 C414 1.349 . S
C415 C431 1.349 . S
C416 C414 1.327 . S
C416 C435 1.429 . S
C416 H440 0.950 . S
C417 C434 1.574 . S
C417 C436 1.368 . S
C417 H441 0.949 1_545 S
H418 C422 0.949 . S
C419 C420 1.349 . S
C419 C421 1.327 . S
C419 H442 0.950 1_545 S
C420 C419 1.349 . S
C420 C432 1.349 . S
C421 C419 1.327 . S
C421 C437 1.429 . S
C421 H443 0.950 1_545 S
C422 H418 0.949 . S
C422 C430 1.574 . S
C422 C438 1.368 . S
H423 C431 0.950 1_565 S
H424 C429 0.950 1_565 S
H425 C430 0.949 . S
H426 C432 0.950 . S
H427 C433 0.950 . S
H428 C434 0.949 1_565 S
C429 H424 0.950 1_545 S
C429 C431 1.327 . S
C429 C435 1.429 . S
C430 C422 1.574 . S
C430 H425 0.949 . S
C430 C436 1.368 . S
C431 C415 1.349 . S
C431 H423 0.950 1_545 S
C431 C429 1.327 . S
C432 C420 1.349 . S
C432 H426 0.950 . S
C432 C433 1.327 . S
C433 H427 0.950 . S
C433 C432 1.327 . S
C433 C437 1.429 . S
C434 C417 1.574 . S
C434 H428 0.949 1_545 S
C434 C438 1.368 . S
C435 C416 1.429 . S
C435 C429 1.429 . S
C435 C436 1.523 . S
C436 C417 1.368 . S
C436 C430 1.368 . S
C436 C435 1.523 . S
C437 C421 1.429 . S
C437 C433 1.429 . S
C437 C438 1.523 . S
C438 C422 1.368 . S
C438 C434 1.368 . S
C438 C437 1.523 . S
H439 C414 0.950 . S
H440 C416 0.950 . S
H441 C417 0.949 1_565 S
H442 C419 0.950 1_565 S
H443 C421 0.950 1_565 S
C444 C445 1.349 . S
C444 C446 1.327 . S
C444 H469 0.950 1_565 S
C445 C444 1.349 . S
C445 C461 1.349 . S
C446 C444 1.327 . S
C446 C465 1.429 . S
C446 H470 0.950 . S
C447 C464 1.574 . S
C447 C466 1.368 . S
C447 H471 0.949 . S
H448 C452 0.949 . S
C449 C450 1.349 . S
C449 C451 1.327 . S
C449 H472 0.950 . S
C450 C449 1.349 . S
C450 C462 1.349 . S
C451 C449 1.327 . S
C451 C467 1.429 . S
C451 H473 0.950 . S
C452 H448 0.949 . S
C452 C460 1.574 . S
C452 C468 1.368 . S
H453 C461 0.950 . S
H454 C459 0.950 . S
H455 C460 0.949 . S
H456 C462 0.950 . S
H457 C463 0.950 . S
H458 C464 0.949 . S
C459 H454 0.950 . S
C459 C461 1.327 . S
C459 C465 1.429 . S
C460 C452 1.574 . S
C460 H455 0.949 . S
C460 C466 1.368 . S
C461 C445 1.349 . S
C461 H453 0.950 . S
C461 C459 1.327 . S
C462 C450 1.349 . S
C462 H456 0.950 . S
C462 C463 1.327 . S
C463 H457 0.950 . S
C463 C462 1.327 . S
C463 C467 1.429 . S
C464 C447 1.574 . S
C464 H458 0.949 . S
C464 C468 1.368 . S
C465 C446 1.429 . S
C465 C459 1.429 . S
C465 C466 1.523 . S
C466 C447 1.368 . S
C466 C460 1.368 . S
C466 C465 1.523 . S
C467 C451 1.429 . S
C467 C463 1.429 . S
C467 C468 1.523 . S
C468 C452 1.368 . S
C468 C464 1.368 . S
C468 C467 1.523 . S
H469 C444 0.950 1_545 S
H470 C446 0.950 . S
H471 C447 0.949 . S
H472 C449 0.950 . S
H473 C451 0.950 . S
C474 C475 1.349 . S
C474 C476 1.327 . S
C474 H499 0.950 . S
C475 C474 1.349 . S
C475 C491 1.349 . S
C476 C474 1.327 . S
C476 C495 1.429 . S
C476 H500 0.950 . S
C477 C494 1.574 . S
C477 C496 1.368 . S
C477 H501 0.949 . S
H478 C482 0.949 . S
C479 C480 1.349 . S
C479 C481 1.327 . S
C479 H502 0.950 . S
C480 C479 1.349 . S
C480 C492 1.349 . S
C481 C479 1.327 . S
C481 C497 1.429 . S
C481 H503 0.950 . S
C482 H478 0.949 . S
C482 C490 1.574 . S
C482 C498 1.368 . S
H483 C491 0.950 . S
H484 C489 0.950 . S
H485 C490 0.949 . S
H486 C492 0.950 . S
H487 C493 0.950 . S
H488 C494 0.949 . S
C489 H484 0.950 . S
C489 C491 1.327 . S
C489 C495 1.429 . S
C490 C482 1.574 . S
C490 H485 0.949 . S
C490 C496 1.368 . S
C491 C475 1.349 . S
C491 H483 0.950 . S
C491 C489 1.327 . S
C492 C480 1.349 . S
C492 H486 0.950 . S
C492 C493 1.327 . S
C493 H487 0.950 . S
C493 C492 1.327 . S
C493 C497 1.429 . S
C494 C477 1.574 . S
C494 H488 0.949 . S
C494 C498 1.368 . S
C495 C476 1.429 . S
C495 C489 1.429 . S
C495 C496 1.523 . S
C496 C477 1.368 . S
C496 C490 1.368 . S
C496 C495 1.523 . S
C497 C481 1.429 . S
C497 C493 1.429 . S
C497 C498 1.523 . S
C498 C482 1.368 . S
C498 C494 1.368 . S
C498 C497 1.523 . S
H499 C474 0.950 . S
H500 C476 0.950 . S
H501 C477 0.949 . S
H502 C479 0.950 . S
H503 C481 0.950 . S
C504 C505 1.349 . S
C504 C506 1.327 . S
C504 H529 0.950 1_545 S
C505 C504 1.349 . S
C505 C521 1.349 . S
C506 C504 1.327 . S
C506 C525 1.429 . S
C506 H530 0.929 1_545 S
C507 C524 1.574 . S
C507 C526 1.368 . S
C507 H531 0.949 . S
H508 C512 0.949 . S
C509 C510 1.349 . S
C509 C511 1.327 . S
C509 H532 0.950 . S
C510 C509 1.349 . S
C510 C522 1.349 . S
C511 C509 1.327 . S
C511 C527 1.429 . S
C511 H533 0.950 . S
C512 H508 0.949 . S
C512 C520 1.574 . S
C512 C528 1.368 . S
H513 C521 0.950 . S
H514 C519 0.950 . S
H515 C520 0.955 . S
H516 C522 0.950 . S
H517 C523 0.950 . S
H518 C524 0.949 . S
C519 H514 0.950 . S
C519 C521 1.327 . S
C519 C525 1.429 . S
C520 C512 1.574 . S
C520 H515 0.955 . S
C520 C526 1.368 . S
C521 C505 1.349 . S
C521 H513 0.950 . S
C521 C519 1.327 . S
C522 C510 1.349 . S
C522 H516 0.950 . S
C522 C523 1.327 . S
C523 H517 0.950 . S
C523 C522 1.327 . S
C523 C527 1.429 . S
C524 C507 1.574 . S
C524 H518 0.949 . S
C524 C528 1.368 . S
C525 C506 1.429 . S
C525 C519 1.429 . S
C525 C526 1.523 . S
C526 C507 1.368 . S
C526 C520 1.368 . S
C526 C525 1.523 . S
C527 C511 1.429 . S
C527 C523 1.429 . S
C527 C528 1.523 . S
C528 C512 1.368 . S
C528 C524 1.368 . S
C528 C527 1.523 . S
H529 C504 0.950 1_565 S
H530 C506 0.929 1_565 S
H531 C507 0.949 . S
H532 C509 0.950 . S
H533 C511 0.950 . S
C534 C535 1.349 . S
C534 C536 1.327 . S
C534 H559 0.950 . S
C535 C534 1.349 . S
C535 C551 1.349 . S
C536 C534 1.327 . S
C536 C555 1.429 . S
C536 H560 0.950 . S
C537 C554 1.574 . S
C537 C556 1.368 . S
C537 H561 0.949 . S
H538 C542 0.949 . S
C539 C540 1.349 . S
C539 C541 1.327 . S
C539 H562 0.950 . S
C540 C539 1.349 . S
C540 C552 1.349 . S
C541 C539 1.327 . S
C541 C557 1.429 . S
C541 H563 0.950 . S
C542 H538 0.949 . S
C542 C550 1.574 . S
C542 C558 1.368 . S
H543 C551 0.950 . S
H544 C549 0.950 . S
H545 C550 0.949 . S
H546 C552 0.950 . S
H547 C553 0.950 . S
H548 C554 0.949 . S
C549 H544 0.950 . S
C549 C551 1.327 . S
C549 C555 1.429 . S
C550 C542 1.574 . S
C550 H545 0.949 . S
C550 C556 1.368 . S
C551 C535 1.349 . S
C551 H543 0.950 . S
C551 C549 1.327 . S
C552 C540 1.349 . S
C552 H546 0.950 . S
C552 C553 1.327 . S
C553 H547 0.950 . S
C553 C552 1.327 . S
C553 C557 1.429 . S
C554 C537 1.574 . S
C554 H548 0.949 . S
C554 C558 1.368 . S
C555 C536 1.429 . S
C555 C549 1.429 . S
C555 C556 1.523 . S
C556 C537 1.368 . S
C556 C550 1.368 . S
C556 C555 1.523 . S
C557 C541 1.429 . S
C557 C553 1.429 . S
C557 C558 1.523 . S
C558 C542 1.368 . S
C558 C554 1.368 . S
C558 C557 1.523 . S
H559 C534 0.950 . S
H560 C536 0.950 . S
H561 C537 0.949 . S
H562 C539 0.950 . S
H563 C541 0.950 . S
C564 C565 1.349 . S
C564 C566 1.327 . S
C564 H589 0.950 1_655 S
C565 C564 1.349 . S
C565 C581 1.349 . S
C566 C564 1.327 . S
C566 C585 1.429 . S
C566 H590 0.950 . S
C567 C584 1.574 . S
C567 C586 1.368 . S
C567 H591 0.949 . S
H568 C572 0.949 . S
C569 C570 1.349 . S
C569 C571 1.327 . S
C569 H592 0.950 . S
C570 C569 1.349 . S
C570 C582 1.349 . S
C571 C569 1.327 . S
C571 C587 1.429 . S
C571 H593 0.950 . S
C572 H568 0.949 . S
C572 C580 1.574 . S
C572 C588 1.368 . S
H573 C581 0.950 . S
H574 C579 0.950 . S
H575 C580 0.949 . S
H576 C582 0.950 . S
H577 C583 0.950 . S
H578 C584 0.949 . S
C579 H574 0.950 . S
C579 C581 1.327 . S
C579 C585 1.429 . S
C580 C572 1.574 . S
C580 H575 0.949 . S
C580 C586 1.368 . S
C581 C565 1.349 . S
C581 H573 0.950 . S
C581 C579 1.327 . S
C582 C570 1.349 . S
C582 H576 0.950 . S
C582 C583 1.327 . S
C583 H577 0.950 . S
C583 C582 1.327 . S
C583 C587 1.429 . S
C584 C567 1.574 . S
C584 H578 0.949 . S
C584 C588 1.368 . S
C585 C566 1.429 . S
C585 C579 1.429 . S
C585 C586 1.523 . S
C586 C567 1.368 . S
C586 C580 1.368 . S
C586 C585 1.523 . S
C587 C571 1.429 . S
C587 C583 1.429 . S
C587 C588 1.523 . S
C588 C572 1.368 . S
C588 C584 1.368 . S
C588 C587 1.523 . S
H589 C564 0.950 1_455 S
H590 C566 0.950 . S
H591 C567 0.949 . S
H592 C569 0.950 . S
H593 C571 0.950 . S
C594 C595 1.349 . S
C594 C596 1.327 . S
C594 H619 0.950 . S
C595 C594 1.349 . S
C595 C611 1.349 . S
C596 C594 1.327 . S
C596 C615 1.429 . S
C596 H620 0.950 . S
C597 C614 1.568 1_554 S
C597 C616 1.377 . S
C597 H621 0.947 1_554 S
H598 C602 0.949 . S
C599 C600 1.349 . S
C599 C601 1.327 . S
C599 H622 0.950 . S
C600 C599 1.349 . S
C600 C612 1.349 . S
C601 C599 1.327 . S
C601 C617 1.429 . S
C601 H623 0.950 . S
C602 H598 0.949 . S
C602 C610 1.574 . S
C602 C618 1.368 1_554 S
H603 C611 0.950 1_545 S
H604 C609 0.950 . S
H605 C610 0.949 . S
H606 C612 0.950 . S
H607 C613 0.950 . S
H608 C614 0.949 . S
C609 H604 0.950 . S
C609 C611 1.327 . S
C609 C615 1.429 . S
C610 C602 1.574 . S
C610 H605 0.949 . S
C610 C616 1.368 . S
C611 C595 1.349 . S
C611 H603 0.950 1_565 S
C611 C609 1.327 . S
C612 C600 1.349 . S
C612 H606 0.950 . S
C612 C613 1.327 . S
C613 H607 0.950 . S
C613 C612 1.327 . S
C613 C617 1.429 . S
C614 C597 1.568 1_556 S
C614 H608 0.949 . S
C614 C618 1.368 . S
C615 C596 1.429 . S
C615 C609 1.429 . S
C615 C616 1.523 . S
C616 C597 1.377 . S
C616 C610 1.368 . S
C616 C615 1.523 . S
C617 C601 1.429 . S
C617 C613 1.429 . S
C617 C618 1.523 . S
C618 C602 1.368 1_556 S
C618 C614 1.368 . S
C618 C617 1.523 . S
H619 C594 0.950 . S
H620 C596 0.950 . S
H621 C597 0.947 1_556 S
H622 C599 0.950 . S
H623 C601 0.950 . S
C624 C625 1.349 . S
C624 C626 1.327 . S
C624 H649 0.950 . S
C625 C624 1.349 . S
C625 C641 1.349 . S
C626 C624 1.327 . S
C626 C645 1.429 . S
C626 H650 0.950 . S
C627 C644 1.574 . S
C627 C646 1.368 . S
C627 H651 0.949 . S
H628 C632 0.949 . S
C629 C630 1.349 . S
C629 C631 1.327 . S
C629 H652 0.950 . S
C630 C629 1.349 . S
C630 C642 1.349 . S
C631 C629 1.327 . S
C631 C647 1.429 . S
C631 H653 0.950 . S
C632 H628 0.949 . S
C632 C640 1.574 . S
C632 C648 1.368 . S
H633 C641 0.950 . S
H634 C639 0.950 . S
H635 C640 0.949 . S
H636 C642 0.950 . S
H637 C643 0.950 . S
H638 C644 0.949 . S
C639 H634 0.950 . S
C639 C641 1.327 . S
C639 C645 1.429 . S
C640 C632 1.574 . S
C640 H635 0.949 . S
C640 C646 1.368 . S
C641 C625 1.349 . S
C641 H633 0.950 . S
C641 C639 1.327 . S
C642 C630 1.349 . S
C642 H636 0.950 . S
C642 C643 1.327 . S
C643 H637 0.950 . S
C643 C642 1.327 . S
C643 C647 1.429 . S
C644 C627 1.574 . S
C644 H638 0.949 . S
C644 C648 1.368 . S
C645 C626 1.429 . S
C645 C639 1.429 . S
C645 C646 1.523 . S
C646 C627 1.368 . S
C646 C640 1.368 . S
C646 C645 1.523 . S
C647 C631 1.429 . S
C647 C643 1.429 . S
C647 C648 1.523 . S
C648 C632 1.368 . S
C648 C644 1.368 . S
C648 C647 1.523 . S
H649 C624 0.950 . S
H650 C626 0.950 . S
H651 C627 0.949 . S
H652 C629 0.950 . S
H653 C631 0.950 . S
C654 C655 1.349 . S
C654 C656 1.327 . S
C654 H679 0.950 . S
C655 C654 1.349 . S
C655 C671 1.349 . S
C656 C654 1.327 . S
C656 C675 1.429 . S
C656 H680 0.950 . S
C657 C674 1.574 . S
C657 C676 1.368 . S
C657 H681 0.949 1_545 S
H658 C662 0.949 . S
C659 C660 1.349 . S
C659 C661 1.327 . S
C659 H682 0.950 1_545 S
C660 C659 1.349 . S
C660 C672 1.349 . S
C661 C659 1.327 . S
C661 C677 1.429 . S
C661 H683 0.950 1_545 S
C662 H658 0.949 . S
C662 C670 1.574 . S
C662 C678 1.368 . S
H663 C671 0.950 1_565 S
H664 C669 0.950 1_565 S
H665 C670 0.949 . S
H666 C672 0.950 . S
H667 C673 0.950 . S
H668 C674 0.949 1_565 S
C669 H664 0.950 1_545 S
C669 C671 1.327 . S
C669 C675 1.429 . S
C670 C662 1.574 . S
C670 H665 0.949 . S
C670 C676 1.368 . S
C671 C655 1.349 . S
C671 H663 0.950 1_545 S
C671 C669 1.327 . S
C672 C660 1.349 . S
C672 H666 0.950 . S
C672 C673 1.327 . S
C673 H667 0.950 . S
C673 C672 1.327 . S
C673 C677 1.429 . S
C674 C657 1.574 . S
C674 H668 0.949 1_545 S
C674 C678 1.368 . S
C675 C656 1.429 . S
C675 C669 1.429 . S
C675 C676 1.523 . S
C676 C657 1.368 . S
C676 C670 1.368 . S
C676 C675 1.523 . S
C677 C661 1.429 . S
C677 C673 1.429 . S
C677 C678 1.523 . S
C678 C662 1.368 . S
C678 C674 1.368 . S
C678 C677 1.523 . S
H679 C654 0.950 . S
H680 C656 0.950 . S
H681 C657 0.949 1_565 S
H682 C659 0.950 1_565 S
H683 C661 0.950 1_565 S
C684 C685 1.349 . S
C684 C686 1.327 . S
C684 H709 0.950 . S
C685 C684 1.349 . S
C685 C701 1.349 . S
C686 C684 1.327 . S
C686 C705 1.429 . S
C686 H710 0.950 . S
C687 C704 1.574 . S
C687 C706 1.368 1_556 S
C687 H711 0.949 . S
H688 C692 0.949 . S
C689 C690 1.349 . S
C689 C691 1.327 . S
C689 H712 0.950 . S
C690 C689 1.349 . S
C690 C702 1.349 . S
C691 C689 1.327 . S
C691 C707 1.429 . S
C691 H713 0.950 . S
C692 H688 0.949 . S
C692 C700 1.574 . S
C692 C708 1.368 1_554 S
H693 C701 0.950 . S
H694 C699 0.950 . S
H695 C700 0.949 . S
H696 C702 0.950 . S
H697 C703 0.950 . S
H698 C704 0.949 . S
C699 H694 0.950 . S
C699 C701 1.327 . S
C699 C705 1.429 . S
C700 C692 1.574 . S
C700 H695 0.949 . S
C700 C706 1.368 . S
C701 C685 1.349 . S
C701 H693 0.950 . S
C701 C699 1.327 . S
C702 C690 1.349 . S
C702 H696 0.950 . S
C702 C703 1.327 . S
C703 H697 0.950 . S
C703 C702 1.327 . S
C703 C707 1.429 . S
C704 C687 1.574 . S
C704 H698 0.949 . S
C704 C708 1.368 . S
C705 C686 1.429 . S
C705 C699 1.429 . S
C705 C706 1.523 . S
C706 C687 1.368 1_554 S
C706 C700 1.368 . S
C706 C705 1.523 . S
C707 C691 1.429 . S
C707 C703 1.429 . S
C707 C708 1.523 . S
C708 C692 1.368 1_556 S
C708 C704 1.368 . S
C708 C707 1.523 . S
H709 C684 0.950 . S
H710 C686 0.950 . S
H711 C687 0.949 . S
H712 C689 0.950 . S
H713 C691 0.950 . S
C714 C715 1.349 . S
C714 C716 1.327 . S
C714 H739 0.950 . S
C715 C714 1.349 . S
C715 C731 1.349 . S
C716 C714 1.327 . S
C716 C735 1.429 . S
C716 H740 0.950 . S
C717 C734 1.574 . S
C717 C736 1.368 . S
C717 H741 0.949 . S
H718 C722 0.949 . S
C719 C720 1.349 . S
C719 C721 1.327 . S
C719 H742 0.950 . S
C720 C719 1.349 . S
C720 C732 1.349 . S
C721 C719 1.327 . S
C721 C737 1.429 . S
C721 H743 0.950 . S
C722 H718 0.949 . S
C722 C730 1.574 . S
C722 C738 1.368 . S
H723 C731 0.950 . S
H724 C729 0.950 . S
H725 C730 0.949 . S
H726 C732 0.950 . S
H727 C733 0.950 . S
H728 C734 0.949 . S
C729 H724 0.950 . S
C729 C731 1.327 . S
C729 C735 1.429 . S
C730 C722 1.574 . S
C730 H725 0.949 . S
C730 C736 1.368 . S
C731 C715 1.349 . S
C731 H723 0.950 . S
C731 C729 1.327 . S
C732 C720 1.349 . S
C732 H726 0.950 . S
C732 C733 1.327 . S
C733 H727 0.950 . S
C733 C732 1.327 . S
C733 C737 1.429 . S
C734 C717 1.574 . S
C734 H728 0.949 . S
C734 C738 1.368 . S
C735 C716 1.429 . S
C735 C729 1.429 . S
C735 C736 1.523 . S
C736 C717 1.368 . S
C736 C730 1.368 . S
C736 C735 1.523 . S
C737 C721 1.429 . S
C737 C733 1.429 . S
C737 C738 1.523 . S
C738 C722 1.368 . S
C738 C734 1.368 . S
C738 C737 1.523 . S
H739 C714 0.950 . S
H740 C716 0.950 . S
H741 C717 0.949 . S
H742 C719 0.950 . S
H743 C721 0.950 . S
C390 C97 1.144 . S
C385 C0 1.533 . S
C415 C25 1.575 . S
C420 C211 1.166 . S
C445 C33 1.332 . S
C450 C271 1.032 . S
C475 C11 1.335 . S
C480 C71 1.071 . S
C510 C185 1.127 . S
C505 C14 1.400 . S
C535 C37 1.522 . S
C540 C281 0.952 . S
C570 C167 0.914 . S
C565 C28 1.489 . S
C595 C9 1.426 . S
C600 C299 1.129 . S
C630 C43 1.066 . S
C625 C19 1.359 . S
C660 C157 1.032 . S
C655 C39 1.309 . S
C690 C325 1.205 . S
C685 C5 1.591 . S
C715 C23 1.560 . S
C720 C53 0.961 . S
