# Generated by pormake.
# Topology rtl, (3,6)-cn, num edge types: 1
# Building blocks:
#     Node 0, Type 0, BuildingBlock: INOVEN_clean_linker_0, # of connection points: 3
#     Node 1, Type 0, BuildingBlock: INOVEN_clean_linker_0, # of connection points: 3
#     Node 2, Type 0, BuildingBlock: INOVEN_clean_linker_0, # of connection points: 3
#     Node 3, Type 0, BuildingBlock: INOVEN_clean_linker_0, # of connection points: 3
#     Node 4, Type 1, BuildingBlock: FUNLAD_clean_sbu_0, # of connection points: 6
#     Node 5, Type 1, BuildingBlock: FUNLAD_clean_sbu_0, # of connection points: 6
#     Edge 6, Type (0, 1), BuildingBlock: UVAHIK_clean_linker_0, # of connection points: 2
#     Edge 7, Type (0, 1), BuildingBlock: UVAHIK_clean_linker_0, # of connection points: 2
#     Edge 8, Type (0, 1), BuildingBlock: UVAHIK_clean_linker_0, # of connection points: 2
#     Edge 9, Type (0, 1), BuildingBlock: UVAHIK_clean_linker_0, # of connection points: 2
#     Edge 10, Type (0, 1), BuildingBlock: UVAHIK_clean_linker_0, # of connection points: 2
#     Edge 11, Type (0, 1), BuildingBlock: UVAHIK_clean_linker_0, # of connection points: 2
#     Edge 12, Type (0, 1), BuildingBlock: UVAHIK_clean_linker_0, # of connection points: 2
#     Edge 13, Type (0, 1), BuildingBlock: UVAHIK_clean_linker_0, # of connection points: 2
#     Edge 14, Type (0, 1), BuildingBlock: UVAHIK_clean_linker_0, # of connection points: 2
#     Edge 15, Type (0, 1), BuildingBlock: UVAHIK_clean_linker_0, # of connection points: 2
#     Edge 16, Type (0, 1), BuildingBlock: UVAHIK_clean_linker_0, # of connection points: 2
#     Edge 17, Type (0, 1), BuildingBlock: UVAHIK_clean_linker_0, # of connection points: 2
# Relax obj value: 0.003
# Max RMSD: 0.052
# Mean RMSD: 0.034
data_MOF--net-rtl--node1-FUNLAD_clean_sbu_0--node2-INOVEN_clean_linker_0--edge1-UVAHIK_clean_linker_0
_symmetry_space_group_name_H-M    P1
_symmetry_Int_Tables_number       1
_symmetry_cell_setting            triclinic
loop_
_symmetry_equiv_pos_as_xyz
'x, y, z'
_cell_length_a     50.938284
_cell_length_b     50.96314
_cell_length_c     27.553983
_cell_angle_alpha  91.175594
_cell_angle_beta   92.209738
_cell_angle_gamma 90.06743
loop_
_atom_site_label
_atom_site_type_symbol
_atom_site_fract_x
_atom_site_fract_y
_atom_site_fract_z
_atom_type_partial_charge
H0 H 0.19134 0.81634 0.93019 0.0
H1 H 0.14615 0.87332 0.00805 0.0
H2 H 0.18955 0.81442 0.08633 0.0
N3 N 0.21102 0.79206 0.0066 0.0
N4 N 0.21734 0.77918 0.04324 0.0
C5 C 0.18439 0.82429 0.96415 0.0
C6 C 0.16769 0.84613 0.96399 0.0
C7 C 0.19259 0.81288 0.00801 0.0
C8 C 0.18339 0.82306 0.05216 0.0
C9 C 0.16688 0.8451 0.05226 0.0
C10 C 0.15931 0.8566 0.00813 0.0
H11 H 0.68951 0.6855 0.62554 0.0
H12 H 0.64565 0.62405 0.54973 0.0
H13 H 0.68879 0.67979 0.46928 0.0
N14 N 0.70917 0.7066 0.54803 0.0
N15 N 0.72004 0.71339 0.51046 0.0
C16 C 0.68296 0.67576 0.59188 0.0
C17 C 0.66675 0.65349 0.59291 0.0
C18 C 0.69145 0.68506 0.54758 0.0
C19 C 0.68271 0.67256 0.50381 0.0
C20 C 0.66628 0.65048 0.5045 0.0
C21 C 0.65869 0.64088 0.54913 0.0
H22 H 0.80649 0.18073 0.91773 0.0
H23 H 0.85766 0.12886 -0.00202 0.0
H24 H 0.80469 0.17904 0.07403 0.0
N25 N 0.7835 0.20189 0.99337 0.0
N26 N 0.77657 0.21402 0.03049 0.0
C27 C 0.81354 0.17283 0.95206 0.0
C28 C 0.83352 0.15394 0.95295 0.0
C29 C 0.80326 0.18229 0.99555 0.0
C30 C 0.81268 0.17217 0.04017 0.0
C31 C 0.83192 0.15252 0.04096 0.0
C32 C 0.84241 0.14371 -0.00265 0.0
H33 H 0.31261 0.30991 0.42934 0.0
H34 H 0.353 0.37177 0.51039 0.0
H35 H 0.3103 0.31344 0.58553 0.0
N36 N 0.29185 0.28739 0.50429 0.0
N37 N 0.27961 0.28041 0.5402 0.0
C38 C 0.3183 0.31933 0.46379 0.0
C39 C 0.33374 0.34216 0.46479 0.0
C40 C 0.30925 0.30918 0.50701 0.0
C41 C 0.31682 0.32133 0.5518 0.0
C42 C 0.33253 0.34396 0.55308 0.0
C43 C 0.3406 0.35443 0.50947 0.0
C44 C 0.02548 0.97179 0.43112 0.0
N45 N 0.04144 0.04313 0.50491 0.0
C46 C 0.06706 0.03604 0.50148 0.0
C47 C 0.08681 0.05506 0.50307 0.0
C48 C 0.08016 0.08161 0.50889 0.0
C49 C 0.0536 0.08842 0.51245 0.0
C50 C 0.03442 0.06877 0.51004 0.0
Zn51 Zn 0.01339 0.0144 0.50335 0.0
C52 C 0.96974 0.02455 0.43235 0.0
N53 N 0.95604 0.95319 0.50006 0.0
C54 C 0.96311 0.92747 0.4981 0.0
C55 C 0.93038 0.96038 0.50175 0.0
C56 C 0.91065 0.94138 0.50201 0.0
C57 C 0.9173 0.91463 0.50005 0.0
C58 C 0.94397 0.9078 0.49788 0.0
Zn59 Zn 0.9841 0.98192 0.50133 0.0
O60 O 0.03303 0.99413 0.44759 0.0
C61 C 0.0278 0.9719 0.57239 0.0
O62 O 0.00498 0.96143 0.4474 0.0
H63 H 0.92516 0.98093 0.50326 0.0
H64 H 0.07225 0.01554 0.49787 0.0
H65 H 0.98363 0.92219 0.49676 0.0
O66 O 0.03549 0.99372 0.55648 0.0
O67 O 0.00623 0.96205 0.55591 0.0
H68 H 0.01394 0.07399 0.51248 0.0
O69 O 0.9636 0.00297 0.55554 0.0
O70 O 0.99339 0.03413 0.55882 0.0
O71 O 0.96255 0.00216 0.44653 0.0
O72 O 0.99075 0.03483 0.45049 0.0
C73 C 0.97211 0.02466 0.57352 0.0
H74 H 0.10711 0.04903 0.50072 0.0
H75 H 0.04771 0.10874 0.5166 0.0
H76 H 0.89044 0.94765 0.50451 0.0
H77 H 0.95005 0.88747 0.4956 0.0
C78 C 0.47042 0.47429 0.95187 0.0
N79 N 0.54076 0.4531 0.02482 0.0
C80 C 0.53302 0.42768 0.01791 0.0
C81 C 0.55164 0.40758 0.01725 0.0
C82 C 0.57839 0.4137 0.02444 0.0
C83 C 0.58582 0.44007 0.03152 0.0
C84 C 0.56661 0.45956 0.03125 0.0
Zn85 Zn 0.51329 0.48229 0.02627 0.0
C86 C 0.52722 0.52637 0.96157 0.0
N87 N 0.45693 0.54423 0.02951 0.0
C88 C 0.43118 0.5373 0.03116 0.0
C89 C 0.46436 0.5699 0.02951 0.0
C90 C 0.44551 0.58976 0.03119 0.0
C91 C 0.41885 0.5831 0.03359 0.0
C92 C 0.41175 0.5565 0.03358 0.0
Zn93 Zn 0.48454 0.51517 0.0277 0.0
O94 O 0.49153 0.4639 0.96826 0.0
C95 C 0.47078 0.47116 0.09268 0.0
O96 O 0.46288 0.49601 0.97001 0.0
H97 H 0.48495 0.57499 0.02843 0.0
H98 H 0.51237 0.42294 0.01315 0.0
H99 H 0.42564 0.51681 0.03069 0.0
O100 O 0.49148 0.46105 0.07613 0.0
O101 O 0.46363 0.49378 0.0789 0.0
H102 H 0.57237 0.47989 0.03629 0.0
O103 O 0.50655 0.534 0.08492 0.0
O104 O 0.53443 0.5012 0.08492 0.0
O105 O 0.50607 0.53603 0.97708 0.0
O106 O 0.53481 0.50397 0.97601 0.0
C107 C 0.52723 0.52322 0.1023 0.0
H108 H 0.54516 0.38743 0.01205 0.0
H109 H 0.6063 0.44557 0.03668 0.0
H110 H 0.45173 0.6101 0.03144 0.0
H111 H 0.39135 0.55061 0.03482 0.0
C112 C 0.24529 0.25531 0.57649 0.0
C113 C 0.26159 0.25914 0.53751 0.0
C114 C 0.22621 0.23557 0.57408 0.0
C115 C 0.20809 0.17304 0.51428 0.0
H116 H 0.13695 0.1923 0.54532 0.0
C117 C 0.12095 0.10196 0.47827 0.0
C118 C 0.10091 0.10201 0.51186 0.0
C119 C 0.14072 0.12101 0.48144 0.0
C120 C 0.15676 0.18642 0.53726 0.0
H121 H 0.27153 0.24489 0.46573 0.0
H122 H 0.23839 0.21003 0.46178 0.0
H123 H 0.17174 0.22516 0.55215 0.0
H124 H 0.086 0.12166 0.57552 0.0
H125 H 0.12085 0.1545 0.58203 0.0
H126 H 0.19339 0.1342 0.50038 0.0
C127 C 0.24025 0.22242 0.49415 0.0
C128 C 0.17665 0.20531 0.54102 0.0
C129 C 0.25911 0.24241 0.49633 0.0
C130 C 0.10104 0.12141 0.54877 0.0
C131 C 0.12099 0.14026 0.55234 0.0
C132 C 0.18826 0.15404 0.51109 0.0
C133 C 0.2234 0.21905 0.53275 0.0
C134 C 0.20248 0.19882 0.52944 0.0
C135 C 0.14109 0.14034 0.51868 0.0
C136 C 0.1623 0.1605 0.52239 0.0
H137 H 0.24704 0.26801 0.60846 0.0
H138 H 0.21365 0.23321 0.60454 0.0
H139 H 0.22791 0.16748 0.50559 0.0
H140 H 0.12113 0.08737 0.44914 0.0
H141 H 0.15554 0.12072 0.4543 0.0
C142 C 0.25343 0.75672 0.00218 0.0
C143 C 0.23679 0.7593 0.04159 0.0
C144 C 0.27314 0.7377 0.00243 0.0
C145 C 0.29204 0.67457 0.05274 0.0
H146 H 0.36286 0.69522 0.02316 0.0
C147 C 0.37887 0.6024 0.0704 0.0
C148 C 0.39846 0.60372 0.03604 0.0
C149 C 0.35939 0.62161 0.07234 0.0
C150 C 0.34315 0.68898 0.03079 0.0
H151 H 0.22748 0.74426 0.11151 0.0
H152 H 0.26177 0.71036 0.11163 0.0
H153 H 0.32802 0.72795 0.02324 0.0
H154 H 0.41293 0.62591 0.97645 0.0
H155 H 0.3785 0.65906 0.97865 0.0
H156 H 0.30678 0.63549 0.0589 0.0
C157 C 0.25954 0.7231 0.08076 0.0
C158 C 0.32323 0.70779 0.03104 0.0
C159 C 0.24005 0.74241 0.08081 0.0
C160 C 0.39821 0.62462 0.00365 0.0
C161 C 0.37852 0.64365 0.00512 0.0
C162 C 0.31187 0.65565 0.05183 0.0
C163 C 0.2764 0.72072 0.04172 0.0
C164 C 0.29751 0.70077 0.04201 0.0
C165 C 0.35882 0.64241 0.0395 0.0
C166 C 0.33771 0.6626 0.04084 0.0
H167 H 0.25148 0.76961 0.9715 0.0
H168 H 0.28576 0.73613 0.97173 0.0
H169 H 0.27228 0.66861 0.06081 0.0
H170 H 0.37881 0.58663 0.09619 0.0
H171 H 0.34492 0.62025 0.09996 0.0
C172 C 0.74289 0.751 0.5514 0.0
C173 C 0.73814 0.73456 0.51039 0.0
C174 C 0.76141 0.77123 0.55022 0.0
C175 C 0.79952 0.81062 0.46501 0.0
H176 H 0.84399 0.82492 0.57986 0.0
C177 C 0.87206 0.89779 0.47635 0.0
C178 C 0.89652 0.89409 0.50068 0.0
C179 C 0.85234 0.87878 0.47781 0.0
C180 C 0.83193 0.82102 0.54728 0.0
H181 H 0.74854 0.72624 0.43657 0.0
H182 H 0.78148 0.76107 0.43457 0.0
H183 H 0.81057 0.79087 0.58153 0.0
H184 H 0.91928 0.86732 0.54578 0.0
H185 H 0.88534 0.83375 0.54665 0.0
H186 H 0.82157 0.84002 0.43014 0.0
C187 C 0.77063 0.75885 0.46726 0.0
C188 C 0.81245 0.80174 0.54848 0.0
C189 C 0.75195 0.73881 0.46836 0.0
C190 C 0.90082 0.87074 0.52611 0.0
C191 C 0.88117 0.85163 0.52724 0.0
C192 C 0.81913 0.82975 0.46369 0.0
C193 C 0.77568 0.77529 0.50824 0.0
C194 C 0.79602 0.79625 0.50732 0.0
C195 C 0.85663 0.85545 0.50327 0.0
C196 C 0.83563 0.83518 0.50479 0.0
H197 H 0.73233 0.74827 0.58428 0.0
H198 H 0.76444 0.78377 0.58215 0.0
H199 H 0.78702 0.80719 0.43281 0.0
H200 H 0.86813 0.91534 0.45583 0.0
H201 H 0.83361 0.88256 0.45938 0.0
C202 C 0.7403 0.23674 0.98673 0.0
C203 C 0.7566 0.23339 0.02853 0.0
C204 C 0.72072 0.25595 0.98622 0.0
C205 C 0.70304 0.31863 0.04237 0.0
H206 H 0.63188 0.30112 -0.00197 0.0
C207 C 0.61818 0.39224 0.06194 0.0
C208 C 0.5985 0.39273 0.02489 0.0
C209 C 0.63723 0.37254 0.06241 0.0
C210 C 0.65172 0.30649 0.00981 0.0
H211 H 0.76533 0.24702 0.10202 0.0
H212 H 0.73132 0.28112 0.101 0.0
H213 H 0.66576 0.26733 -0.00204 0.0
H214 H 0.58341 0.37329 0.95896 0.0
H215 H 0.6171 0.33931 0.95878 0.0
H216 H 0.68942 0.35787 0.05311 0.0
C217 C 0.73369 0.26892 0.06881 0.0
C218 C 0.67108 0.28708 0.00994 0.0
C219 C 0.753 0.24946 0.06952 0.0
C220 C 0.59823 0.37318 0.98824 0.0
C221 C 0.61749 0.35366 0.98831 0.0
C222 C 0.6838 0.33814 0.04164 0.0
C223 C 0.71734 0.27232 0.02717 0.0
C224 C 0.69688 0.29294 0.02645 0.0
C225 C 0.63725 0.35307 0.02544 0.0
C226 C 0.65783 0.33231 0.02559 0.0
H227 H 0.74257 0.22449 0.95461 0.0
H228 H 0.70847 0.25828 0.95358 0.0
H229 H 0.72289 0.32374 0.05469 0.0
H230 H 0.61862 0.4069 0.09099 0.0
H231 H 0.65175 0.37245 0.09215 0.0
C232 C 0.16003 0.88325 0.10827 0.0
C233 C 0.15701 0.85634 0.09791 0.0
C234 C 0.14774 0.89483 0.14765 0.0
C235 C 0.11205 0.8807 0.25974 0.0
H236 H 0.08164 0.94908 0.23467 0.0
C237 C 0.03591 0.93133 0.38222 0.0
C238 C 0.04078 0.95791 0.39401 0.0
C239 C 0.05085 0.9182 0.34781 0.0
C240 C 0.09019 0.93008 0.24234 0.0
H241 H 0.13968 0.82014 0.12115 0.0
H242 H 0.11749 0.84045 0.18954 0.0
H243 H 0.10704 0.92735 0.17276 0.0
H244 H 0.0651 0.99156 0.37896 0.0
H245 H 0.09084 0.96873 0.3185 0.0
H246 H 0.0944 0.88341 0.32912 0.0
C247 C 0.12976 0.85259 0.1679 0.0
C248 C 0.1049 0.91765 0.20698 0.0
C249 C 0.1424 0.84093 0.12876 0.0
C250 C 0.0608 0.9711 0.37061 0.0
C251 C 0.0755 0.95807 0.33588 0.0
C252 C 0.09706 0.89308 0.29501 0.0
C253 C 0.13177 0.87982 0.17709 0.0
C254 C 0.11621 0.89288 0.21529 0.0
C255 C 0.0707 0.93151 0.32415 0.0
C256 C 0.08614 0.91797 0.2867 0.0
H257 H 0.17145 0.89545 0.08516 0.0
H258 H 0.15037 0.91569 0.15441 0.0
H259 H 0.12065 0.86176 0.26758 0.0
H260 H 0.02068 0.9206 0.39979 0.0
H261 H 0.04663 0.89776 0.33914 0.0
C262 C 0.65993 0.61664 0.64937 0.0
C263 C 0.6575 0.64343 0.63922 0.0
C264 C 0.64853 0.60636 0.69012 0.0
C265 C 0.59285 0.61682 0.76589 0.0
H266 H 0.62695 0.56577 0.84943 0.0
C267 C 0.5382 0.56802 0.92014 0.0
C268 C 0.54317 0.54128 0.92788 0.0
C269 C 0.55358 0.58225 0.88901 0.0
C270 C 0.61703 0.57978 0.82612 0.0
H271 H 0.642 0.68068 0.66413 0.0
H272 H 0.62164 0.66256 0.73546 0.0
H273 H 0.6522 0.58785 0.78876 0.0
H274 H 0.56804 0.50845 0.9088 0.0
H275 H 0.59427 0.53297 0.85324 0.0
H276 H 0.55744 0.60807 0.80144 0.0
C277 C 0.63248 0.6496 0.71189 0.0
C278 C 0.63157 0.59253 0.79163 0.0
C279 C 0.64424 0.65997 0.67142 0.0
C280 C 0.56379 0.52906 0.90374 0.0
C281 C 0.57898 0.54321 0.87218 0.0
C282 C 0.57823 0.60385 0.79997 0.0
C283 C 0.63418 0.62262 0.72116 0.0
C284 C 0.61954 0.61096 0.76085 0.0
C285 C 0.57412 0.57001 0.86447 0.0
C286 C 0.59005 0.58492 0.83014 0.0
H287 H 0.67014 0.60354 0.62507 0.0
H288 H 0.64997 0.58547 0.69617 0.0
H289 H 0.583 0.63068 0.74213 0.0
H290 H 0.5226 0.57807 0.93859 0.0
H291 H 0.54951 0.60293 0.88459 0.0
C292 C 0.83904 0.11355 0.09259 0.0
C293 C 0.84125 0.14071 0.08688 0.0
C294 C 0.85049 0.10161 0.13324 0.0
C295 C 0.88219 0.11498 0.25561 0.0
H296 H 0.91485 0.04762 0.23018 0.0
C297 C 0.95811 0.06518 0.38663 0.0
C298 C 0.95375 0.03845 0.39515 0.0
C299 C 0.94297 0.07823 0.3513 0.0
C300 C 0.90563 0.06631 0.2379 0.0
H301 H 0.85639 0.17696 0.11918 0.0
H302 H 0.87734 0.15607 0.18984 0.0
H303 H 0.89071 0.0695 0.16492 0.0
H304 H 0.93003 0.00447 0.37354 0.0
H305 H 0.90397 0.02718 0.31124 0.0
H306 H 0.89817 0.11191 0.32849 0.0
C307 C 0.86623 0.14396 0.16363 0.0
C308 C 0.89164 0.07884 0.2006 0.0
C309 C 0.85434 0.15597 0.1232 0.0
C310 C 0.9339 0.02506 0.36779 0.0
C311 C 0.91903 0.03801 0.33205 0.0
C312 C 0.89654 0.10255 0.29285 0.0
C313 C 0.86491 0.11653 0.16863 0.0
C314 C 0.87958 0.10328 0.20896 0.0
C315 C 0.92346 0.06468 0.32341 0.0
C316 C 0.90828 0.07805 0.28431 0.0
H317 H 0.82882 0.10149 0.06505 0.0
H318 H 0.8484 0.08058 0.13646 0.0
H319 H 0.87294 0.13361 0.26358 0.0
H320 H 0.97319 0.07605 0.40731 0.0
H321 H 0.94687 0.09876 0.34507 0.0
C322 C 0.3379 0.3836 0.60722 0.0
C323 C 0.34137 0.35655 0.59966 0.0
C324 C 0.34898 0.3962 0.64855 0.0
C325 C 0.38198 0.38432 0.76945 0.0
H326 H 0.4124 0.45278 0.74834 0.0
C327 C 0.459 0.43444 0.90075 0.0
C328 C 0.45444 0.46094 0.91285 0.0
C329 C 0.44352 0.42165 0.86457 0.0
C330 C 0.40379 0.43379 0.75487 0.0
H331 H 0.35842 0.32122 0.62951 0.0
H332 H 0.37858 0.34326 0.70113 0.0
H333 H 0.38786 0.43037 0.68227 0.0
H334 H 0.4302 0.49483 0.89642 0.0
H335 H 0.40352 0.47255 0.83247 0.0
H336 H 0.39898 0.38757 0.84176 0.0
C337 C 0.36678 0.35476 0.67593 0.0
C338 C 0.38957 0.42096 0.71712 0.0
C339 C 0.35531 0.34209 0.63489 0.0
C340 C 0.4342 0.47441 0.88788 0.0
C341 C 0.41898 0.46172 0.85123 0.0
C342 C 0.39654 0.39705 0.80705 0.0
C343 C 0.3642 0.38209 0.68279 0.0
C344 C 0.37848 0.39604 0.72385 0.0
C345 C 0.42345 0.43521 0.83935 0.0
C346 C 0.40759 0.42188 0.80003 0.0
H347 H 0.32698 0.39508 0.58066 0.0
H348 H 0.34597 0.41711 0.65318 0.0
H349 H 0.37342 0.36536 0.77624 0.0
H350 H 0.47438 0.4235 0.91951 0.0
H351 H 0.44751 0.40126 0.85577 0.0
C352 C 0.65803 0.61046 0.45224 0.0
C353 C 0.65618 0.63775 0.45882 0.0
C354 C 0.64638 0.59808 0.41117 0.0
C355 C 0.6156 0.61081 0.2888 0.0
H356 H 0.58186 0.54385 0.30904 0.0
C357 C 0.53907 0.56295 0.15345 0.0
C358 C 0.54299 0.53629 0.14193 0.0
C359 C 0.55426 0.57538 0.19049 0.0
C360 C 0.59139 0.56243 0.30279 0.0
H361 H 0.64118 0.67364 0.42764 0.0
H362 H 0.62006 0.65205 0.35655 0.0
H363 H 0.60621 0.56558 0.37617 0.0
H364 H 0.56581 0.5017 0.16025 0.0
H365 H 0.59195 0.52335 0.22566 0.0
H366 H 0.59976 0.60787 0.21564 0.0
C367 C 0.63105 0.64016 0.38229 0.0
C368 C 0.60549 0.57486 0.34116 0.0
C369 C 0.64307 0.65257 0.42306 0.0
C370 C 0.56232 0.52227 0.1683 0.0
C371 C 0.57722 0.5346 0.2058 0.0
C372 C 0.60116 0.59852 0.2506 0.0
C373 C 0.63223 0.61269 0.37617 0.0
C374 C 0.61782 0.59922 0.33471 0.0
C375 C 0.57337 0.56127 0.21715 0.0
C376 C 0.58894 0.57422 0.25729 0.0
H377 H 0.66829 0.59867 0.47917 0.0
H378 H 0.64828 0.577 0.40717 0.0
H379 H 0.62515 0.62932 0.28221 0.0
H380 H 0.5244 0.5743 0.13363 0.0
H381 H 0.55078 0.59592 0.19884 0.0
C382 C 0.8318 0.13011 0.87271 0.0
C383 C 0.84594 0.14505 0.90812 0.0
C384 C 0.84474 0.11868 0.83368 0.0
C385 C 0.91184 0.09852 0.80062 0.0
H386 H 0.87927 0.08758 0.67228 0.0
C387 C 0.9689 0.05992 0.63745 0.0
C388 C 0.9572 0.03899 0.61056 0.0
C389 C 0.95483 0.07357 0.67235 0.0
C390 C 0.8885 0.09042 0.70809 0.0
H391 H 0.884 0.16111 0.92987 0.0
H392 H 0.90644 0.14232 0.86079 0.0
H393 H 0.85548 0.11151 0.73455 0.0
H394 H 0.92144 0.0162 0.59858 0.0
H395 H 0.89674 0.04035 0.65935 0.0
H396 H 0.945 0.07784 0.77379 0.0
C397 C 0.88565 0.13848 0.86366 0.0
C398 C 0.87488 0.10404 0.7438 0.0
C399 C 0.87282 0.1495 0.90292 0.0
C400 C 0.93103 0.03216 0.61892 0.0
C401 C 0.91683 0.04607 0.65339 0.0
C402 C 0.92552 0.08524 0.7648 0.0
C403 C 0.87197 0.12229 0.82925 0.0
C404 C 0.8864 0.10827 0.79057 0.0
C405 C 0.92866 0.0668 0.6806 0.0
C406 C 0.91399 0.08103 0.71825 0.0
H407 H 0.81105 0.12631 0.87644 0.0
H408 H 0.83359 0.10617 0.80821 0.0
H409 H 0.92112 0.10073 0.83649 0.0
H410 H 0.98902 0.06568 0.6318 0.0
H411 H 0.96433 0.0896 0.69264 0.0
C412 C 0.35812 0.33841 0.38781 0.0
C413 C 0.34311 0.35347 0.41965 0.0
C414 C 0.37 0.35024 0.34884 0.0
C415 C 0.39198 0.41589 0.31193 0.0
H416 H 0.40289 0.38099 0.18798 0.0
C417 C 0.43455 0.46956 0.15118 0.0
C418 C 0.45507 0.45683 0.12755 0.0
C419 C 0.41988 0.45626 0.18467 0.0
C420 C 0.40008 0.39086 0.22258 0.0
H421 H 0.32719 0.39205 0.43436 0.0
H422 H 0.34698 0.41254 0.36547 0.0
H423 H 0.37778 0.3589 0.24916 0.0
H424 H 0.47595 0.41998 0.11975 0.0
H425 H 0.4501 0.39668 0.17826 0.0
H426 H 0.414 0.44791 0.2852 0.0
C427 C 0.35048 0.39187 0.3713 0.0
C428 C 0.38576 0.37823 0.25764 0.0
C429 C 0.33896 0.38014 0.41051 0.0
C430 C 0.46033 0.43036 0.13754 0.0
C431 C 0.44545 0.41696 0.17073 0.0
C432 C 0.40602 0.42856 0.27681 0.0
C433 C 0.3668 0.37728 0.34082 0.0
C434 C 0.38152 0.39062 0.30276 0.0
C435 C 0.42524 0.42988 0.19491 0.0
C436 C 0.41022 0.4162 0.23181 0.0
H437 H 0.3617 0.31782 0.39444 0.0
H438 H 0.38257 0.33844 0.32636 0.0
H439 H 0.38975 0.42578 0.34667 0.0
H440 H 0.42993 0.48991 0.14418 0.0
H441 H 0.40423 0.4666 0.20246 0.0
C442 C 0.14453 0.84262 0.88251 0.0
C443 C 0.15825 0.8579 0.91802 0.0
C444 C 0.13251 0.85447 0.84209 0.0
C445 C 0.10795 0.91962 0.80368 0.0
H446 H 0.09911 0.88497 0.67748 0.0
C447 C 0.06431 0.97163 0.63557 0.0
C448 C 0.04388 0.95824 0.60978 0.0
C449 C 0.07937 0.95897 0.67139 0.0
C450 C 0.10137 0.89477 0.71266 0.0
H451 H 0.17168 0.89706 0.93817 0.0
H452 H 0.15179 0.91769 0.8667 0.0
H453 H 0.12495 0.86377 0.74214 0.0
H454 H 0.02354 0.92094 0.60056 0.0
H455 H 0.05023 0.89869 0.66297 0.0
H456 H 0.08476 0.95079 0.77379 0.0
C457 C 0.14934 0.89675 0.87066 0.0
C458 C 0.11608 0.88264 0.74975 0.0
C459 C 0.16095 0.88496 0.91137 0.0
C460 C 0.03908 0.93179 0.62001 0.0
C461 C 0.05442 0.91901 0.65542 0.0
C462 C 0.09359 0.93186 0.76647 0.0
C463 C 0.13432 0.8818 0.83617 0.0
C464 C 0.1195 0.89489 0.79583 0.0
C465 C 0.07455 0.93258 0.68169 0.0
C466 C 0.09008 0.91952 0.7207 0.0
H467 H 0.14204 0.82172 0.8872 0.0
H468 H 0.12091 0.84234 0.81666 0.0
H469 H 0.10951 0.9294 0.83893 0.0
H470 H 0.06851 0.99201 0.6285 0.0
H471 H 0.0949 0.9698 0.69092 0.0
loop_
_geom_bond_atom_site_label_1
_geom_bond_atom_site_label_2
_geom_bond_distance
_geom_bond_site_symmetry_2
_ccdc_geom_bond_type
H0 C5 0.929 . S
H1 C10 0.931 . S
H2 C8 0.930 . S
N3 N4 1.234 . S
N3 C7 1.453 . S
N4 N3 1.234 . S
C5 H0 0.929 . S
C5 C6 1.373 . S
C5 C7 1.368 1_556 S
C6 C5 1.373 . S
C6 C10 1.397 1_556 S
C7 N3 1.453 . S
C7 C5 1.368 1_554 S
C7 C8 1.373 . S
C8 H2 0.930 . S
C8 C7 1.373 . S
C8 C9 1.371 . S
C9 C8 1.371 . S
C9 C10 1.383 . S
C10 H1 0.931 . S
C10 C6 1.397 1_554 S
C10 C9 1.383 . S
H11 C16 0.929 . S
H12 C21 0.931 . S
H13 C19 0.930 . S
N14 N15 1.234 . S
N14 C18 1.453 . S
N15 N14 1.234 . S
C16 H11 0.929 . S
C16 C17 1.373 . S
C16 C18 1.368 . S
C17 C16 1.373 . S
C17 C21 1.397 . S
C18 N14 1.453 . S
C18 C16 1.368 . S
C18 C19 1.373 . S
C19 H13 0.930 . S
C19 C18 1.373 . S
C19 C20 1.371 . S
C20 C19 1.371 . S
C20 C21 1.383 . S
C21 H12 0.931 . S
C21 C17 1.397 . S
C21 C20 1.383 . S
H22 C27 0.929 . S
H23 C32 0.931 . S
H24 C30 0.930 . S
N25 N26 1.234 1_556 S
N25 C29 1.453 . S
N26 N25 1.234 1_554 S
C27 H22 0.929 . S
C27 C28 1.373 . S
C27 C29 1.368 . S
C28 C27 1.373 . S
C28 C32 1.397 1_556 S
C29 N25 1.453 . S
C29 C27 1.368 . S
C29 C30 1.373 1_556 S
C30 H24 0.930 . S
C30 C29 1.373 1_554 S
C30 C31 1.371 . S
C31 C30 1.371 . S
C31 C32 1.383 . S
C32 H23 0.931 . S
C32 C28 1.397 1_554 S
C32 C31 1.383 . S
H33 C38 0.929 . S
H34 C43 0.931 . S
H35 C41 0.930 . S
N36 N37 1.234 . S
N36 C40 1.453 . S
N37 N36 1.234 . S
C38 H33 0.929 . S
C38 C39 1.373 . S
C38 C40 1.368 . S
C39 C38 1.373 . S
C39 C43 1.397 . S
C40 N36 1.453 . S
C40 C38 1.368 . S
C40 C41 1.373 . S
C41 H35 0.930 . S
C41 C40 1.373 . S
C41 C42 1.371 . S
C42 C41 1.371 . S
C42 C43 1.383 . S
C43 H34 0.931 . S
C43 C39 1.397 . S
C43 C42 1.383 . S
C44 O60 1.290 . S
C44 O62 1.254 . S
N45 C46 1.333 . S
N45 C50 1.307 . S
N45 Zn51 2.020 . S
C46 N45 1.333 . S
C46 C47 1.379 . S
C46 H64 0.952 . S
C47 C46 1.379 . S
C47 C48 1.390 . S
C47 H74 0.949 . S
C48 C47 1.390 . S
C48 C49 1.357 . S
C49 C48 1.357 . S
C49 C50 1.370 . S
C49 H75 0.950 . S
C50 N45 1.307 . S
C50 C49 1.370 . S
C50 H68 0.948 . S
Zn51 N45 2.020 . S
Zn51 O60 2.013 1_545 S
Zn51 O66 2.034 1_545 S
Zn51 O70 2.025 1_455 S
Zn51 O72 2.024 1_455 S
C52 O71 1.246 . S
C52 O72 1.249 . S
N53 C54 1.307 . S
N53 C55 1.333 . S
N53 Zn59 2.020 . S
C54 N53 1.307 . S
C54 C58 1.370 . S
C54 H65 0.948 . S
C55 N53 1.333 . S
C55 C56 1.379 . S
C55 H63 0.952 . S
C56 C55 1.379 . S
C56 C57 1.390 . S
C56 H76 0.949 . S
C57 C56 1.390 . S
C57 C58 1.357 . S
C58 C54 1.370 . S
C58 C57 1.357 . S
C58 H77 0.950 . S
Zn59 N53 2.020 . S
Zn59 O62 2.025 1_655 S
Zn59 O67 2.024 1_655 S
Zn59 O69 2.039 1_565 S
Zn59 O71 2.034 1_565 S
O60 C44 1.290 . S
O60 Zn51 2.013 1_565 S
C61 O66 1.246 . S
C61 O67 1.249 . S
O62 C44 1.254 . S
O62 Zn59 2.025 1_455 S
H63 C55 0.952 . S
H64 C46 0.952 . S
H65 C54 0.948 . S
O66 Zn51 2.034 1_565 S
O66 C61 1.246 . S
O67 Zn59 2.024 1_455 S
O67 C61 1.249 . S
H68 C50 0.948 . S
O69 Zn59 2.039 1_545 S
O69 C73 1.251 . S
O70 Zn51 2.025 1_655 S
O70 C73 1.254 . S
O71 C52 1.246 . S
O71 Zn59 2.034 1_545 S
O72 Zn51 2.024 1_655 S
O72 C52 1.249 . S
C73 O69 1.251 . S
C73 O70 1.254 . S
H74 C47 0.949 . S
H75 C49 0.950 . S
H76 C56 0.949 . S
H77 C58 0.950 . S
C78 O94 1.251 . S
C78 O96 1.254 . S
N79 C80 1.333 . S
N79 C84 1.307 . S
N79 Zn85 2.020 . S
C80 N79 1.333 . S
C80 C81 1.379 . S
C80 H98 0.952 . S
C81 C80 1.379 . S
C81 C82 1.390 . S
C81 H108 0.949 . S
C82 C81 1.390 . S
C82 C83 1.357 . S
C83 C82 1.357 . S
C83 C84 1.370 . S
C83 H109 0.950 . S
C84 N79 1.307 . S
C84 C83 1.370 . S
C84 H102 0.948 . S
Zn85 N79 2.020 . S
Zn85 O94 2.039 1_554 S
Zn85 O100 2.034 . S
Zn85 O104 2.025 . S
Zn85 O106 2.024 1_554 S
C86 O105 1.246 . S
C86 O106 1.249 . S
N87 C88 1.307 . S
N87 C89 1.333 . S
N87 Zn93 2.020 . S
C88 N87 1.307 . S
C88 C92 1.370 . S
C88 H99 0.948 . S
C89 N87 1.333 . S
C89 C90 1.379 . S
C89 H97 0.952 . S
C90 C89 1.379 . S
C90 C91 1.390 . S
C90 H110 0.949 . S
C91 C90 1.390 . S
C91 C92 1.357 . S
C92 C88 1.370 . S
C92 C91 1.357 . S
C92 H111 0.950 . S
Zn93 N87 2.020 . S
Zn93 O96 2.025 1_554 S
Zn93 O101 2.024 . S
Zn93 O103 2.039 . S
Zn93 O105 2.034 1_554 S
O94 C78 1.251 . S
O94 Zn85 2.039 1_556 S
C95 O100 1.246 . S
C95 O101 1.249 . S
O96 C78 1.254 . S
O96 Zn93 2.025 1_556 S
H97 C89 0.952 . S
H98 C80 0.952 . S
H99 C88 0.948 . S
O100 Zn85 2.034 . S
O100 C95 1.246 . S
O101 Zn93 2.024 . S
O101 C95 1.249 . S
H102 C84 0.948 . S
O103 Zn93 2.039 . S
O103 C107 1.251 . S
O104 Zn85 2.025 . S
O104 C107 1.254 . S
O105 C86 1.246 . S
O105 Zn93 2.034 1_556 S
O106 Zn85 2.024 1_556 S
O106 C86 1.249 . S
C107 O103 1.251 . S
C107 O104 1.254 . S
H108 C81 0.949 . S
H109 C83 0.950 . S
H110 C90 0.949 . S
H111 C92 0.950 . S
C112 C113 1.349 . S
C112 C114 1.327 . S
C112 H137 0.950 . S
C113 C112 1.349 . S
C113 C129 1.349 . S
C114 C112 1.327 . S
C114 C133 1.429 . S
C114 H138 0.950 . S
C115 C132 1.574 . S
C115 C134 1.368 . S
C115 H139 0.949 . S
H116 C120 0.949 . S
C117 C118 1.349 . S
C117 C119 1.327 . S
C117 H140 0.950 . S
C118 C117 1.349 . S
C118 C130 1.349 . S
C119 C117 1.327 . S
C119 C135 1.429 . S
C119 H141 0.950 . S
C120 H116 0.949 . S
C120 C128 1.574 . S
C120 C136 1.368 . S
H121 C129 0.950 . S
H122 C127 0.950 . S
H123 C128 0.949 . S
H124 C130 0.950 . S
H125 C131 0.950 . S
H126 C132 0.949 . S
C127 H122 0.950 . S
C127 C129 1.327 . S
C127 C133 1.429 . S
C128 C120 1.574 . S
C128 H123 0.949 . S
C128 C134 1.368 . S
C129 C113 1.349 . S
C129 H121 0.950 . S
C129 C127 1.327 . S
C130 C118 1.349 . S
C130 H124 0.950 . S
C130 C131 1.327 . S
C131 H125 0.950 . S
C131 C130 1.327 . S
C131 C135 1.429 . S
C132 C115 1.574 . S
C132 H126 0.949 . S
C132 C136 1.368 . S
C133 C114 1.429 . S
C133 C127 1.429 . S
C133 C134 1.523 . S
C134 C115 1.368 . S
C134 C128 1.368 . S
C134 C133 1.523 . S
C135 C119 1.429 . S
C135 C131 1.429 . S
C135 C136 1.523 . S
C136 C120 1.368 . S
C136 C132 1.368 . S
C136 C135 1.523 . S
H137 C112 0.950 . S
H138 C114 0.950 . S
H139 C115 0.949 . S
H140 C117 0.950 . S
H141 C119 0.950 . S
C142 C143 1.336 1_556 S
C142 C144 1.328 . S
C142 H167 0.963 . S
C143 C142 1.336 1_554 S
C143 C159 1.349 . S
C144 C142 1.328 . S
C144 C163 1.429 1_556 S
C144 H168 0.950 . S
C145 C162 1.574 . S
C145 C164 1.368 . S
C145 H169 0.949 . S
H146 C150 0.949 . S
C147 C148 1.349 . S
C147 C149 1.327 . S
C147 H170 0.950 . S
C148 C147 1.349 . S
C148 C160 1.353 . S
C149 C147 1.327 . S
C149 C165 1.429 . S
C149 H171 0.950 . S
C150 H146 0.949 . S
C150 C158 1.574 . S
C150 C166 1.368 1_556 S
H151 C159 0.950 . S
H152 C157 0.950 . S
H153 C158 0.949 . S
H154 C160 0.946 1_556 S
H155 C161 0.962 . S
H156 C162 0.949 . S
C157 H152 0.950 . S
C157 C159 1.327 . S
C157 C163 1.429 . S
C158 C150 1.574 . S
C158 H153 0.949 . S
C158 C164 1.368 1_556 S
C159 C143 1.349 . S
C159 H151 0.950 . S
C159 C157 1.327 . S
C160 C148 1.353 . S
C160 H154 0.946 1_554 S
C160 C161 1.327 1_554 S
C161 H155 0.962 . S
C161 C160 1.327 1_556 S
C161 C165 1.417 1_556 S
C162 C145 1.574 . S
C162 H156 0.949 . S
C162 C166 1.368 . S
C163 C144 1.429 1_554 S
C163 C157 1.429 . S
C163 C164 1.523 . S
C164 C145 1.368 . S
C164 C158 1.368 1_554 S
C164 C163 1.523 . S
C165 C149 1.429 . S
C165 C161 1.417 1_554 S
C165 C166 1.523 . S
C166 C150 1.368 1_554 S
C166 C162 1.368 . S
C166 C165 1.523 . S
H167 C142 0.963 . S
H168 C144 0.950 . S
H169 C145 0.949 . S
H170 C147 0.950 . S
H171 C149 0.950 . S
C172 C173 1.349 . S
C172 C174 1.327 . S
C172 H197 0.950 . S
C173 C172 1.349 . S
C173 C189 1.349 . S
C174 C172 1.327 . S
C174 C193 1.429 . S
C174 H198 0.950 . S
C175 C192 1.574 . S
C175 C194 1.368 . S
C175 H199 0.949 . S
H176 C180 0.949 . S
C177 C178 1.349 . S
C177 C179 1.327 . S
C177 H200 0.950 . S
C178 C177 1.349 . S
C178 C190 1.349 . S
C179 C177 1.327 . S
C179 C195 1.429 . S
C179 H201 0.950 . S
C180 H176 0.949 . S
C180 C188 1.574 . S
C180 C196 1.368 . S
H181 C189 0.950 . S
H182 C187 0.950 . S
H183 C188 0.949 . S
H184 C190 0.950 . S
H185 C191 0.950 . S
H186 C192 0.949 . S
C187 H182 0.950 . S
C187 C189 1.327 . S
C187 C193 1.429 . S
C188 C180 1.574 . S
C188 H183 0.949 . S
C188 C194 1.368 . S
C189 C173 1.349 . S
C189 H181 0.950 . S
C189 C187 1.327 . S
C190 C178 1.349 . S
C190 H184 0.950 . S
C190 C191 1.327 . S
C191 H185 0.950 . S
C191 C190 1.327 . S
C191 C195 1.429 . S
C192 C175 1.574 . S
C192 H186 0.949 . S
C192 C196 1.368 . S
C193 C174 1.429 . S
C193 C187 1.429 . S
C193 C194 1.523 . S
C194 C175 1.368 . S
C194 C188 1.368 . S
C194 C193 1.523 . S
C195 C179 1.429 . S
C195 C191 1.429 . S
C195 C196 1.523 . S
C196 C180 1.368 . S
C196 C192 1.368 . S
C196 C195 1.523 . S
H197 C172 0.950 . S
H198 C174 0.950 . S
H199 C175 0.949 . S
H200 C177 0.950 . S
H201 C179 0.950 . S
C202 C203 1.349 1_556 S
C202 C204 1.327 . S
C202 H227 0.950 . S
C203 C202 1.349 1_554 S
C203 C219 1.349 . S
C204 C202 1.327 . S
C204 C223 1.429 1_556 S
C204 H228 0.950 . S
C205 C222 1.574 . S
C205 C224 1.368 . S
C205 H229 0.949 . S
H206 C210 0.949 . S
C207 C208 1.349 . S
C207 C209 1.327 . S
C207 H230 0.950 . S
C208 C207 1.349 . S
C208 C220 1.349 1_554 S
C209 C207 1.327 . S
C209 C225 1.429 . S
C209 H231 0.950 . S
C210 H206 0.949 . S
C210 C218 1.574 . S
C210 C226 1.368 1_556 S
H211 C219 0.950 . S
H212 C217 0.950 . S
H213 C218 0.949 . S
H214 C220 0.950 . S
H215 C221 0.950 . S
H216 C222 0.949 . S
C217 H212 0.950 . S
C217 C219 1.327 . S
C217 C223 1.429 . S
C218 C210 1.574 . S
C218 H213 0.949 . S
C218 C224 1.368 1_556 S
C219 C203 1.349 . S
C219 H211 0.950 . S
C219 C217 1.327 . S
C220 C208 1.349 1_556 S
C220 H214 0.950 . S
C220 C221 1.327 . S
C221 H215 0.950 . S
C221 C220 1.327 . S
C221 C225 1.429 1_556 S
C222 C205 1.574 . S
C222 H216 0.949 . S
C222 C226 1.368 . S
C223 C204 1.429 1_554 S
C223 C217 1.429 . S
C223 C224 1.523 . S
C224 C205 1.368 . S
C224 C218 1.368 1_554 S
C224 C223 1.523 . S
C225 C209 1.429 . S
C225 C221 1.429 1_554 S
C225 C226 1.523 . S
C226 C210 1.368 1_554 S
C226 C222 1.368 . S
C226 C225 1.523 . S
H227 C202 0.950 . S
H228 C204 0.950 . S
H229 C205 0.949 . S
H230 C207 0.950 . S
H231 C209 0.950 . S
C232 C233 1.349 . S
C232 C234 1.327 . S
C232 H257 0.950 . S
C233 C232 1.349 . S
C233 C249 1.349 . S
C234 C232 1.327 . S
C234 C253 1.429 . S
C234 H258 0.950 . S
C235 C252 1.574 . S
C235 C254 1.368 . S
C235 H259 0.949 . S
H236 C240 0.949 . S
C237 C238 1.349 . S
C237 C239 1.327 . S
C237 H260 0.950 . S
C238 C237 1.349 . S
C238 C250 1.349 . S
C239 C237 1.327 . S
C239 C255 1.429 . S
C239 H261 0.950 . S
C240 H236 0.949 . S
C240 C248 1.574 . S
C240 C256 1.368 . S
H241 C249 0.950 . S
H242 C247 0.950 . S
H243 C248 0.949 . S
H244 C250 0.950 . S
H245 C251 0.950 . S
H246 C252 0.949 . S
C247 H242 0.950 . S
C247 C249 1.327 . S
C247 C253 1.429 . S
C248 C240 1.574 . S
C248 H243 0.949 . S
C248 C254 1.368 . S
C249 C233 1.349 . S
C249 H241 0.950 . S
C249 C247 1.327 . S
C250 C238 1.349 . S
C250 H244 0.950 . S
C250 C251 1.327 . S
C251 H245 0.950 . S
C251 C250 1.327 . S
C251 C255 1.429 . S
C252 C235 1.574 . S
C252 H246 0.949 . S
C252 C256 1.368 . S
C253 C234 1.429 . S
C253 C247 1.429 . S
C253 C254 1.523 . S
C254 C235 1.368 . S
C254 C248 1.368 . S
C254 C253 1.523 . S
C255 C239 1.429 . S
C255 C251 1.429 . S
C255 C256 1.523 . S
C256 C240 1.368 . S
C256 C252 1.368 . S
C256 C255 1.523 . S
H257 C232 0.950 . S
H258 C234 0.950 . S
H259 C235 0.949 . S
H260 C237 0.950 . S
H261 C239 0.950 . S
C262 C263 1.349 . S
C262 C264 1.327 . S
C262 H287 0.950 . S
C263 C262 1.349 . S
C263 C279 1.349 . S
C264 C262 1.327 . S
C264 C283 1.429 . S
C264 H288 0.950 . S
C265 C282 1.574 . S
C265 C284 1.368 . S
C265 H289 0.949 . S
H266 C270 0.949 . S
C267 C268 1.349 . S
C267 C269 1.327 . S
C267 H290 0.950 . S
C268 C267 1.349 . S
C268 C280 1.349 . S
C269 C267 1.327 . S
C269 C285 1.429 . S
C269 H291 0.950 . S
C270 H266 0.949 . S
C270 C278 1.574 . S
C270 C286 1.368 . S
H271 C279 0.950 . S
H272 C277 0.950 . S
H273 C278 0.949 . S
H274 C280 0.950 . S
H275 C281 0.950 . S
H276 C282 0.949 . S
C277 H272 0.950 . S
C277 C279 1.327 . S
C277 C283 1.429 . S
C278 C270 1.574 . S
C278 H273 0.949 . S
C278 C284 1.368 . S
C279 C263 1.349 . S
C279 H271 0.950 . S
C279 C277 1.327 . S
C280 C268 1.349 . S
C280 H274 0.950 . S
C280 C281 1.327 . S
C281 H275 0.950 . S
C281 C280 1.327 . S
C281 C285 1.429 . S
C282 C265 1.574 . S
C282 H276 0.949 . S
C282 C286 1.368 . S
C283 C264 1.429 . S
C283 C277 1.429 . S
C283 C284 1.523 . S
C284 C265 1.368 . S
C284 C278 1.368 . S
C284 C283 1.523 . S
C285 C269 1.429 . S
C285 C281 1.429 . S
C285 C286 1.523 . S
C286 C270 1.368 . S
C286 C282 1.368 . S
C286 C285 1.523 . S
H287 C262 0.950 . S
H288 C264 0.950 . S
H289 C265 0.949 . S
H290 C267 0.950 . S
H291 C269 0.950 . S
C292 C293 1.349 . S
C292 C294 1.327 . S
C292 H317 0.950 . S
C293 C292 1.349 . S
C293 C309 1.349 . S
C294 C292 1.327 . S
C294 C313 1.429 . S
C294 H318 0.950 . S
C295 C312 1.574 . S
C295 C314 1.368 . S
C295 H319 0.949 . S
H296 C300 0.949 . S
C297 C298 1.349 . S
C297 C299 1.327 . S
C297 H320 0.950 . S
C298 C297 1.349 . S
C298 C310 1.349 . S
C299 C297 1.327 . S
C299 C315 1.429 . S
C299 H321 0.950 . S
C300 H296 0.949 . S
C300 C308 1.574 . S
C300 C316 1.368 . S
H301 C309 0.950 . S
H302 C307 0.950 . S
H303 C308 0.949 . S
H304 C310 0.950 . S
H305 C311 0.950 . S
H306 C312 0.949 . S
C307 H302 0.950 . S
C307 C309 1.327 . S
C307 C313 1.429 . S
C308 C300 1.574 . S
C308 H303 0.949 . S
C308 C314 1.368 . S
C309 C293 1.349 . S
C309 H301 0.950 . S
C309 C307 1.327 . S
C310 C298 1.349 . S
C310 H304 0.950 . S
C310 C311 1.327 . S
C311 H305 0.950 . S
C311 C310 1.327 . S
C311 C315 1.429 . S
C312 C295 1.574 . S
C312 H306 0.949 . S
C312 C316 1.368 . S
C313 C294 1.429 . S
C313 C307 1.429 . S
C313 C314 1.523 . S
C314 C295 1.368 . S
C314 C308 1.368 . S
C314 C313 1.523 . S
C315 C299 1.429 . S
C315 C311 1.429 . S
C315 C316 1.523 . S
C316 C300 1.368 . S
C316 C312 1.368 . S
C316 C315 1.523 . S
H317 C292 0.950 . S
H318 C294 0.950 . S
H319 C295 0.949 . S
H320 C297 0.950 . S
H321 C299 0.950 . S
C322 C323 1.349 . S
C322 C324 1.327 . S
C322 H347 0.950 . S
C323 C322 1.349 . S
C323 C339 1.349 . S
C324 C322 1.327 . S
C324 C343 1.429 . S
C324 H348 0.950 . S
C325 C342 1.574 . S
C325 C344 1.368 . S
C325 H349 0.949 . S
H326 C330 0.949 . S
C327 C328 1.349 . S
C327 C329 1.327 . S
C327 H350 0.950 . S
C328 C327 1.349 . S
C328 C340 1.349 . S
C329 C327 1.327 . S
C329 C345 1.429 . S
C329 H351 0.950 . S
C330 H326 0.949 . S
C330 C338 1.574 . S
C330 C346 1.368 . S
H331 C339 0.950 . S
H332 C337 0.950 . S
H333 C338 0.949 . S
H334 C340 0.950 . S
H335 C341 0.950 . S
H336 C342 0.949 . S
C337 H332 0.950 . S
C337 C339 1.327 . S
C337 C343 1.429 . S
C338 C330 1.574 . S
C338 H333 0.949 . S
C338 C344 1.368 . S
C339 C323 1.349 . S
C339 H331 0.950 . S
C339 C337 1.327 . S
C340 C328 1.349 . S
C340 H334 0.950 . S
C340 C341 1.327 . S
C341 H335 0.950 . S
C341 C340 1.327 . S
C341 C345 1.429 . S
C342 C325 1.574 . S
C342 H336 0.949 . S
C342 C346 1.368 . S
C343 C324 1.429 . S
C343 C337 1.429 . S
C343 C344 1.523 . S
C344 C325 1.368 . S
C344 C338 1.368 . S
C344 C343 1.523 . S
C345 C329 1.429 . S
C345 C341 1.429 . S
C345 C346 1.523 . S
C346 C330 1.368 . S
C346 C342 1.368 . S
C346 C345 1.523 . S
H347 C322 0.950 . S
H348 C324 0.950 . S
H349 C325 0.949 . S
H350 C327 0.950 . S
H351 C329 0.950 . S
C352 C353 1.349 . S
C352 C354 1.327 . S
C352 H377 0.950 . S
C353 C352 1.349 . S
C353 C369 1.349 . S
C354 C352 1.327 . S
C354 C373 1.429 . S
C354 H378 0.950 . S
C355 C372 1.574 . S
C355 C374 1.368 . S
C355 H379 0.949 . S
H356 C360 0.949 . S
C357 C358 1.349 . S
C357 C359 1.327 . S
C357 H380 0.950 . S
C358 C357 1.349 . S
C358 C370 1.349 . S
C359 C357 1.327 . S
C359 C375 1.429 . S
C359 H381 0.950 . S
C360 H356 0.949 . S
C360 C368 1.574 . S
C360 C376 1.368 . S
H361 C369 0.950 . S
H362 C367 0.950 . S
H363 C368 0.949 . S
H364 C370 0.950 . S
H365 C371 0.950 . S
H366 C372 0.949 . S
C367 H362 0.950 . S
C367 C369 1.327 . S
C367 C373 1.429 . S
C368 C360 1.574 . S
C368 H363 0.949 . S
C368 C374 1.368 . S
C369 C353 1.349 . S
C369 H361 0.950 . S
C369 C367 1.327 . S
C370 C358 1.349 . S
C370 H364 0.950 . S
C370 C371 1.327 . S
C371 H365 0.950 . S
C371 C370 1.327 . S
C371 C375 1.429 . S
C372 C355 1.574 . S
C372 H366 0.949 . S
C372 C376 1.368 . S
C373 C354 1.429 . S
C373 C367 1.429 . S
C373 C374 1.523 . S
C374 C355 1.368 . S
C374 C368 1.368 . S
C374 C373 1.523 . S
C375 C359 1.429 . S
C375 C371 1.429 . S
C375 C376 1.523 . S
C376 C360 1.368 . S
C376 C372 1.368 . S
C376 C375 1.523 . S
H377 C352 0.950 . S
H378 C354 0.950 . S
H379 C355 0.949 . S
H380 C357 0.950 . S
H381 C359 0.950 . S
C382 C383 1.349 . S
C382 C384 1.327 . S
C382 H407 0.950 . S
C383 C382 1.349 . S
C383 C399 1.349 . S
C384 C382 1.327 . S
C384 C403 1.429 . S
C384 H408 0.950 . S
C385 C402 1.574 . S
C385 C404 1.368 . S
C385 H409 0.949 . S
H386 C390 0.949 . S
C387 C388 1.349 . S
C387 C389 1.327 . S
C387 H410 0.950 . S
C388 C387 1.349 . S
C388 C400 1.349 . S
C389 C387 1.327 . S
C389 C405 1.429 . S
C389 H411 0.950 . S
C390 H386 0.949 . S
C390 C398 1.574 . S
C390 C406 1.368 . S
H391 C399 0.950 . S
H392 C397 0.950 . S
H393 C398 0.949 . S
H394 C400 0.950 . S
H395 C401 0.950 . S
H396 C402 0.949 . S
C397 H392 0.950 . S
C397 C399 1.327 . S
C397 C403 1.429 . S
C398 C390 1.574 . S
C398 H393 0.949 . S
C398 C404 1.368 . S
C399 C383 1.349 . S
C399 H391 0.950 . S
C399 C397 1.327 . S
C400 C388 1.349 . S
C400 H394 0.950 . S
C400 C401 1.327 . S
C401 H395 0.950 . S
C401 C400 1.327 . S
C401 C405 1.429 . S
C402 C385 1.574 . S
C402 H396 0.949 . S
C402 C406 1.368 . S
C403 C384 1.429 . S
C403 C397 1.429 . S
C403 C404 1.523 . S
C404 C385 1.368 . S
C404 C398 1.368 . S
C404 C403 1.523 . S
C405 C389 1.429 . S
C405 C401 1.429 . S
C405 C406 1.523 . S
C406 C390 1.368 . S
C406 C402 1.368 . S
C406 C405 1.523 . S
H407 C382 0.950 . S
H408 C384 0.950 . S
H409 C385 0.949 . S
H410 C387 0.950 . S
H411 C389 0.950 . S
C412 C413 1.349 . S
C412 C414 1.327 . S
C412 H437 0.950 . S
C413 C412 1.349 . S
C413 C429 1.349 . S
C414 C412 1.327 . S
C414 C433 1.429 . S
C414 H438 0.950 . S
C415 C432 1.574 . S
C415 C434 1.368 . S
C415 H439 0.949 . S
H416 C420 0.949 . S
C417 C418 1.349 . S
C417 C419 1.327 . S
C417 H440 0.950 . S
C418 C417 1.349 . S
C418 C430 1.349 . S
C419 C417 1.327 . S
C419 C435 1.429 . S
C419 H441 0.950 . S
C420 H416 0.949 . S
C420 C428 1.574 . S
C420 C436 1.368 . S
H421 C429 0.950 . S
H422 C427 0.950 . S
H423 C428 0.949 . S
H424 C430 0.950 . S
H425 C431 0.950 . S
H426 C432 0.949 . S
C427 H422 0.950 . S
C427 C429 1.327 . S
C427 C433 1.429 . S
C428 C420 1.574 . S
C428 H423 0.949 . S
C428 C434 1.368 . S
C429 C413 1.349 . S
C429 H421 0.950 . S
C429 C427 1.327 . S
C430 C418 1.349 . S
C430 H424 0.950 . S
C430 C431 1.327 . S
C431 H425 0.950 . S
C431 C430 1.327 . S
C431 C435 1.429 . S
C432 C415 1.574 . S
C432 H426 0.949 . S
C432 C436 1.368 . S
C433 C414 1.429 . S
C433 C427 1.429 . S
C433 C434 1.523 . S
C434 C415 1.368 . S
C434 C428 1.368 . S
C434 C433 1.523 . S
C435 C419 1.429 . S
C435 C431 1.429 . S
C435 C436 1.523 . S
C436 C420 1.368 . S
C436 C432 1.368 . S
C436 C435 1.523 . S
H437 C412 0.950 . S
H438 C414 0.950 . S
H439 C415 0.949 . S
H440 C417 0.950 . S
H441 C419 0.950 . S
C442 C443 1.349 . S
C442 C444 1.327 . S
C442 H467 0.950 . S
C443 C442 1.349 . S
C443 C459 1.349 . S
C444 C442 1.327 . S
C444 C463 1.429 . S
C444 H468 0.950 . S
C445 C462 1.574 . S
C445 C464 1.368 . S
C445 H469 0.949 . S
H446 C450 0.949 . S
C447 C448 1.349 . S
C447 C449 1.327 . S
C447 H470 0.950 . S
C448 C447 1.349 . S
C448 C460 1.349 . S
C449 C447 1.327 . S
C449 C465 1.429 . S
C449 H471 0.950 . S
C450 H446 0.949 . S
C450 C458 1.574 . S
C450 C466 1.368 . S
H451 C459 0.950 . S
H452 C457 0.950 . S
H453 C458 0.949 . S
H454 C460 0.950 . S
H455 C461 0.950 . S
H456 C462 0.949 . S
C457 H452 0.950 . S
C457 C459 1.327 . S
C457 C463 1.429 . S
C458 C450 1.574 . S
C458 H453 0.949 . S
C458 C464 1.368 . S
C459 C443 1.349 . S
C459 H451 0.950 . S
C459 C457 1.327 . S
C460 C448 1.349 . S
C460 H454 0.950 . S
C460 C461 1.327 . S
C461 H455 0.950 . S
C461 C460 1.327 . S
C461 C465 1.429 . S
C462 C445 1.574 . S
C462 H456 0.949 . S
C462 C466 1.368 . S
C463 C444 1.429 . S
C463 C457 1.429 . S
C463 C464 1.523 . S
C464 C445 1.368 . S
C464 C458 1.368 . S
C464 C463 1.523 . S
C465 C449 1.429 . S
C465 C461 1.429 . S
C465 C466 1.523 . S
C466 C450 1.368 . S
C466 C462 1.368 . S
C466 C465 1.523 . S
H467 C442 0.950 . S
H468 C444 0.950 . S
H469 C445 0.949 . S
H470 C447 0.950 . S
H471 C449 0.950 . S
C118 C48 1.506 . S
C113 N37 1.504 . S
C143 N4 1.508 . S
C148 C91 1.509 . S
C173 N15 1.502 . S
C178 C57 1.509 . S
C203 N26 1.504 . S
C208 C82 1.508 . S
C238 C44 1.569 . S
C233 C9 1.544 . S
C268 C86 1.548 . S
C263 C17 1.547 . S
C293 C31 1.546 . S
C298 C52 1.565 . S
C323 C42 1.527 . S
C328 C78 1.549 . S
C358 C107 1.464 . S
C353 C20 1.445 . S
C388 C73 1.447 . S
C383 C28 1.442 . S
C418 C95 1.462 . S
C413 C39 1.460 . S
C443 C6 1.443 . S
C448 C61 1.444 . S
