# Generated by pormake.
# Topology rtl, (3,6)-cn, num edge types: 1
# Building blocks:
#     Node 0, Type 0, BuildingBlock: QEWDON_clean_linker_0, # of connection points: 3
#     Node 1, Type 0, BuildingBlock: QEWDON_clean_linker_0, # of connection points: 3
#     Node 2, Type 0, BuildingBlock: QEWDON_clean_linker_0, # of connection points: 3
#     Node 3, Type 0, BuildingBlock: QEWDON_clean_linker_0, # of connection points: 3
#     Node 4, Type 1, BuildingBlock: KUMBOL_clean_sbu_1, # of connection points: 6
#     Node 5, Type 1, BuildingBlock: KUMBOL_clean_sbu_1, # of connection points: 6
#     Edge 6, Type (0, 1), BuildingBlock: CIFDUS_clean_linker_0, # of connection points: 2
#     Edge 7, Type (0, 1), BuildingBlock: CIFDUS_clean_linker_0, # of connection points: 2
#     Edge 8, Type (0, 1), BuildingBlock: CIFDUS_clean_linker_0, # of connection points: 2
#     Edge 9, Type (0, 1), BuildingBlock: CIFDUS_clean_linker_0, # of connection points: 2
#     Edge 10, Type (0, 1), BuildingBlock: CIFDUS_clean_linker_0, # of connection points: 2
#     Edge 11, Type (0, 1), BuildingBlock: CIFDUS_clean_linker_0, # of connection points: 2
#     Edge 12, Type (0, 1), BuildingBlock: CIFDUS_clean_linker_0, # of connection points: 2
#     Edge 13, Type (0, 1), BuildingBlock: CIFDUS_clean_linker_0, # of connection points: 2
#     Edge 14, Type (0, 1), BuildingBlock: CIFDUS_clean_linker_0, # of connection points: 2
#     Edge 15, Type (0, 1), BuildingBlock: CIFDUS_clean_linker_0, # of connection points: 2
#     Edge 16, Type (0, 1), BuildingBlock: CIFDUS_clean_linker_0, # of connection points: 2
#     Edge 17, Type (0, 1), BuildingBlock: CIFDUS_clean_linker_0, # of connection points: 2
# Relax obj value: 0.086
# Max RMSD: 0.280
# Mean RMSD: 0.213
data_MOF--net-rtl--node1-KUMBOL_clean_sbu_1--node2-QEWDON_clean_linker_0--edge1-CIFDUS_clean_linker_0
_symmetry_space_group_name_H-M    P1
_symmetry_Int_Tables_number       1
_symmetry_cell_setting            triclinic
loop_
_symmetry_equiv_pos_as_xyz
'x, y, z'
_cell_length_a     33.079283
_cell_length_b     33.157799
_cell_length_c     23.827329
_cell_angle_alpha  77.229575
_cell_angle_beta   100.16119
_cell_angle_gamma 91.208156
loop_
_atom_site_label
_atom_site_type_symbol
_atom_site_fract_x
_atom_site_fract_y
_atom_site_fract_z
_atom_type_partial_charge
H0 H 0.23426 0.82853 0.11777 0.0
C1 C 0.22227 0.83996 0.07173 0.0
C2 C 0.1829 0.85871 0.05395 0.0
C3 C 0.247 0.83666 0.03033 0.0
H4 H 0.14002 0.89116 0.97953 0.0
C5 C 0.16893 0.87412 0.9939 0.0
C6 C 0.19269 0.87046 0.95187 0.0
C7 C 0.23191 0.85163 0.97043 0.0
C8 C 0.29071 0.82376 0.05058 0.0
H9 H 0.25125 0.85003 0.93866 0.0
C10 C 0.30628 0.78614 0.04357 0.0
C11 C 0.34784 0.77457 0.06607 0.0
C12 C 0.31713 0.84978 0.07861 0.0
H13 H 0.30576 0.8788 0.08421 0.0
C14 C 0.35832 0.83874 0.09957 0.0
H15 H 0.28603 0.76554 0.02276 0.0
C16 C 0.37356 0.80132 0.0937 0.0
H17 H 0.4055 0.79293 0.11139 0.0
H18 H 0.37841 0.85904 0.12111 0.0
H19 H 0.75098 0.72725 0.60998 0.0
C20 C 0.72982 0.71667 0.63985 0.0
C21 C 0.69231 0.69905 0.61994 0.0
C22 C 0.74174 0.71749 0.6992 0.0
H23 H 0.63701 0.67023 0.64499 0.0
C24 C 0.66589 0.68388 0.65981 0.0
C25 C 0.67719 0.68452 0.71922 0.0
C26 C 0.71513 0.70128 0.73852 0.0
C27 C 0.78377 0.73065 0.7217 0.0
H28 H 0.72414 0.70132 0.78452 0.0
C29 C 0.80073 0.76823 0.69535 0.0
C30 C 0.84016 0.78005 0.71965 0.0
C31 C 0.80736 0.70471 0.77077 0.0
H32 H 0.79558 0.67541 0.79116 0.0
C33 C 0.84655 0.71587 0.79378 0.0
H34 H 0.78287 0.78872 0.65777 0.0
C35 C 0.86277 0.75324 0.76874 0.0
H36 H 0.89323 0.76128 0.78786 0.0
H37 H 0.8644 0.69552 0.83146 0.0
H38 H 0.81613 0.18241 0.17906 0.0
C39 C 0.83004 0.18695 0.14021 0.0
C40 C 0.8716 0.17654 0.14557 0.0
C41 C 0.80618 0.20294 0.08507 0.0
H42 H 0.92142 0.17336 0.09931 0.0
C43 C 0.88941 0.18199 0.09517 0.0
C44 C 0.86564 0.19652 0.03934 0.0
C45 C 0.82393 0.20716 0.0346 0.0
C46 C 0.76177 0.21095 0.08096 0.0
H47 H 0.80525 0.21814 0.99187 0.0
C48 C 0.74565 0.2514 0.07243 0.0
C49 C 0.70405 0.25749 0.07573 0.0
C50 C 0.73586 0.17706 0.09094 0.0
H51 H 0.74778 0.14581 0.09797 0.0
C52 C 0.6946 0.1831 0.09291 0.0
H53 H 0.76563 0.27769 0.0656 0.0
C54 C 0.67884 0.22294 0.08586 0.0
H55 H 0.64676 0.22683 0.0881 0.0
H56 H 0.67486 0.15674 0.10072 0.0
H57 H 0.33121 0.28805 0.51349 0.0
C58 C 0.34698 0.30638 0.48069 0.0
C59 C 0.37197 0.33935 0.49389 0.0
C60 C 0.34382 0.29551 0.4263 0.0
H61 H 0.41349 0.38646 0.46057 0.0
C62 C 0.39292 0.36208 0.45083 0.0
C63 C 0.38886 0.3526 0.39564 0.0
C64 C 0.36416 0.31962 0.3835 0.0
C65 C 0.32398 0.25617 0.41645 0.0
H66 H 0.36207 0.31178 0.34126 0.0
C67 C 0.28551 0.24374 0.43245 0.0
C68 C 0.26798 0.20636 0.42137 0.0
C69 C 0.34486 0.22999 0.39154 0.0
H70 H 0.3748 0.23794 0.38027 0.0
C71 C 0.32794 0.19287 0.38171 0.0
H72 H 0.26883 0.26348 0.45149 0.0
C73 C 0.28981 0.18121 0.39619 0.0
H74 H 0.27723 0.15226 0.38771 0.0
H75 H 0.34445 0.17305 0.36263 0.0
C76 C 0.93613 0.12897 0.49027 0.0
C77 C 0.86832 0.09975 0.47627 0.0
C78 C 0.90963 0.09696 0.50493 0.0
C79 C 0.85471 0.13425 0.43115 0.0
C80 C 0.92233 0.16426 0.4463 0.0
C81 C 0.88164 0.16644 0.41622 0.0
N82 N 0.97567 0.12538 0.51878 0.0
C83 C 1.00235 0.15699 0.5084 0.0
C84 C 0.94992 0.19625 0.43385 0.0
C85 C 0.98998 0.19276 0.4655 0.0
Gd86 Gd 0.05594 0.98529 0.52155 0.0
Gd87 Gd 0.99452 0.06368 0.58796 0.0
N88 N 0.92383 0.06386 0.54858 0.0
C89 C 0.84168 0.06824 0.49475 0.0
C90 C 0.89714 0.03482 0.56967 0.0
C91 C 0.856 0.03604 0.54237 0.0
H92 H 0.90701 1.01106 0.60835 0.0
H93 H 0.83522 1.01245 0.55862 0.0
H94 H 0.14998 0.02449 0.53824 0.0
H95 H 0.03325 0.15448 0.53297 0.0
H96 H 0.21836 1.00496 0.599 0.0
H97 H 0.80972 0.06924 0.47391 0.0
H98 H 0.8232 0.13669 0.40825 0.0
H99 H 1.00187 0.89637 0.53532 0.0
H100 H 0.94052 0.22385 0.40031 0.0
H101 H 1.01136 0.21755 0.45676 0.0
H102 H 0.19907 0.87028 0.71534 0.0
H103 H 0.87059 0.19308 0.38179 0.0
H104 H 0.06869 0.80704 0.67662 0.0
H105 H 1.0063 0.82776 0.602 0.0
N106 N 0.05805 0.917 0.57754 0.0
C107 C 0.09409 0.90494 0.61465 0.0
C108 C 0.02788 0.88892 0.57026 0.0
C109 C 0.06622 0.83783 0.64878 0.0
C110 C 0.03088 0.84946 0.60691 0.0
C111 C 0.09894 0.86516 0.65177 0.0
H112 H 0.14073 0.82312 0.71833 0.0
N113 N 0.12177 0.96961 0.5767 0.0
C114 C 0.12714 0.93155 0.61312 0.0
C115 C 0.19854 0.94612 0.64375 0.0
C116 C 0.16561 0.91905 0.64841 0.0
C117 C 0.15416 0.9953 0.56968 0.0
C118 C 0.19289 0.9842 0.60372 0.0
O119 O 0.99855 0.07423 0.49176 0.0
O120 O 0.9935 1.00981 0.47239 0.0
O121 O 0.07087 1.00426 0.43376 0.0
O122 O 0.07823 0.94062 0.48002 0.0
O123 O 0.97714 0.99569 0.60755 0.0
O124 O 0.98992 0.96794 0.53084 0.0
O125 O 0.08001 1.00248 0.60811 0.0
O126 O 0.02297 1.00525 0.64804 0.0
O127 O 0.95779 0.08152 0.64628 0.0
O128 O 0.02187 0.09723 0.65362 0.0
O129 O 0.07534 0.05237 0.5036 0.0
O130 O 0.06078 0.08101 0.57937 0.0
C131 C 0.98381 0.04937 0.45759 0.0
C132 C 0.97012 0.96825 0.57436 0.0
C133 C 0.06094 0.95199 0.37884 0.0
C134 C 0.07045 0.92031 0.29799 0.0
C135 C 1.00304 0.92188 0.32652 0.0
C136 C 0.01919 0.9425 0.37022 0.0
C137 C 0.02839 0.91016 0.29155 0.0
C138 C 0.08613 0.94193 0.34196 0.0
C139 C 0.07965 0.9667 0.43115 0.0
C140 C 0.16995 0.88014 0.68714 0.0
C141 C 0.13666 0.85336 0.68902 0.0
H142 H 0.22853 0.93769 0.67026 0.0
C143 C 0.06091 0.99271 0.65273 0.0
C144 C 0.08124 0.08011 0.53648 0.0
C145 C 0.97781 0.13964 0.6866 0.0
C146 C 0.94934 0.17634 0.75013 0.0
C147 C 0.98165 0.21438 0.67054 0.0
C148 C 0.98975 0.17753 0.65499 0.0
C149 C 0.96182 0.21386 0.71787 0.0
C150 C 0.95726 0.13926 0.7338 0.0
C151 C 0.98775 0.10005 0.67288 0.0
H152 H 0.97093 0.91379 0.32086 0.0
H153 H 0.9995 0.94969 0.39867 0.0
H154 H 1.01475 0.89225 0.26054 0.0
H155 H 0.11807 0.95046 0.34885 0.0
H156 H 0.991 0.2435 0.64598 0.0
H157 H 1.00568 0.17864 0.61875 0.0
H158 H 0.95587 0.24291 0.72891 0.0
H159 H 0.94836 0.10998 0.75868 0.0
C160 C 0.65238 0.57729 0.06917 0.0
C161 C 0.64067 0.64965 0.02109 0.0
C162 C 0.62642 0.61198 0.05101 0.0
C163 C 0.68064 0.65161 0.00835 0.0
C164 C 0.6927 0.57929 0.05721 0.0
C165 C 0.70659 0.61657 0.02643 0.0
N166 N 0.63781 0.54131 0.09775 0.0
C167 C 0.6621 0.50655 0.11684 0.0
C168 C 0.71767 0.54358 0.07595 0.0
C169 C 0.70232 0.5071 0.10602 0.0
Gd170 Gd 0.48577 0.50147 0.99536 0.0
Gd171 Gd 0.57009 0.54314 0.11366 0.0
N172 N 0.58758 0.60902 0.06336 0.0
C173 C 0.6146 0.68448 1.00581 0.0
C174 C 0.56349 0.64375 0.05272 0.0
C175 C 0.57614 0.68166 0.02261 0.0
H176 H 0.53506 0.64309 0.06886 0.0
H177 H 0.55651 0.70888 0.01339 0.0
H178 H 0.52054 0.40142 0.03202 0.0
H179 H 0.6505 0.47848 0.14079 0.0
H180 H 0.5011 0.3346 0.08734 0.0
H181 H 0.6244 0.71398 0.98284 0.0
H182 H 0.69194 0.68023 0.98504 0.0
H183 H 0.40398 0.56413 0.9708 0.0
H184 H 0.7488 0.54384 0.06747 0.0
H185 H 0.72148 0.47942 0.12096 0.0
H186 H 0.36789 0.36065 0.12603 0.0
H187 H 0.73738 0.61864 0.01644 0.0
H188 H 0.30839 0.49644 0.04806 0.0
H189 H 0.33375 0.56163 0.99363 0.0
N190 N 0.41834 0.50153 0.01341 0.0
C191 C 0.40473 0.46509 0.04219 0.0
C192 C 0.3933 0.53578 0.99527 0.0
C193 C 0.33922 0.49742 0.03833 0.0
C194 C 0.35347 0.53432 0.00773 0.0
C195 C 0.36484 0.46215 0.05576 0.0
H196 H 0.3216 0.4216 0.09799 0.0
N197 N 0.46936 0.43458 0.04389 0.0
C198 C 0.43121 0.4308 0.05858 0.0
C199 C 0.44409 0.35798 0.10051 0.0
C200 C 0.41786 0.39255 0.08811 0.0
C201 C 0.49318 0.40007 0.05092 0.0
C202 C 0.48154 0.36161 0.08075 0.0
O203 O 0.58553 0.5387 0.02608 0.0
O204 O 0.52584 0.55382 0.95952 0.0
O205 O 0.49055 0.46835 0.92722 0.0
O206 O 0.44286 0.51449 0.91276 0.0
O207 O 0.50701 0.57469 0.0864 0.0
O208 O 0.4839 0.57036 0.99025 0.0
O209 O 0.47036 0.50491 0.08371 0.0
O210 O 0.53043 0.49075 0.14987 0.0
O211 O 0.56534 0.57816 0.17973 0.0
O212 O 0.61192 0.53045 0.19711 0.0
O213 O 0.54886 0.46932 0.02343 0.0
O214 O 0.57076 0.47419 0.11969 0.0
C215 C 0.56598 0.55534 0.97338 0.0
C216 C 0.48315 0.58755 0.03495 0.0
C217 C 0.42773 0.45761 0.86808 0.0
C218 C 0.40031 0.42219 0.78989 0.0
C219 C 0.37058 0.41093 0.87826 0.0
C220 C 0.3984 0.43812 0.90027 0.0
C221 C 0.37151 0.4029 0.82355 0.0
C222 C 0.42844 0.44979 0.81246 0.0
C223 C 0.4577 0.48569 0.89258 0.0
C224 C 0.37846 0.38972 0.10288 0.0
C225 C 0.35201 0.42438 0.08668 0.0
H226 H 0.43499 0.32805 0.12312 0.0
C227 C 0.49034 0.48851 0.13631 0.0
C228 C 0.57135 0.45605 0.07586 0.0
C229 C 0.62786 0.58782 0.24055 0.0
C230 C 0.65452 0.62381 0.31858 0.0
C231 C 0.68889 0.62944 0.23495 0.0
C232 C 0.66002 0.60374 0.21149 0.0
C233 C 0.68634 0.63934 0.28809 0.0
C234 C 0.62515 0.59799 0.29416 0.0
C235 C 0.59746 0.5603 0.21565 0.0
H236 H 0.34807 0.39617 0.90362 0.0
H237 H 0.39673 0.444 0.94229 0.0
H238 H 0.34915 0.38207 0.8071 0.0
H239 H 0.45101 0.46471 0.78723 0.0
H240 H 0.71371 0.64129 0.21219 0.0
H241 H 0.66322 0.596 0.17104 0.0
H242 H 0.70999 0.65839 0.30596 0.0
H243 H 0.60025 0.58583 0.31665 0.0
H244 H 0.23982 0.19004 0.52594 0.0
H245 H 0.20371 0.19073 0.34282 0.0
H246 H 0.14109 0.15419 0.36187 0.0
H247 H 0.10056 0.11517 0.43141 0.0
H248 H 0.13459 0.11396 0.61481 0.0
H249 H 0.19364 0.15763 0.59512 0.0
C250 C 0.21762 0.18312 0.49021 0.0
C251 C 0.22647 0.19288 0.43304 0.0
C252 C 0.18164 0.16138 0.50168 0.0
C253 C 0.19762 0.1834 0.38715 0.0
C254 C 0.16192 0.16229 0.39805 0.0
C255 C 0.12068 0.12484 0.46703 0.0
C256 C 0.11358 0.11093 0.52454 0.0
C257 C 0.15429 0.14995 0.45529 0.0
C258 C 0.13945 0.12425 0.57012 0.0
C259 C 0.17332 0.14908 0.55887 0.0
H260 H 0.36872 0.74811 0.97391 0.0
H261 H 0.36751 0.71086 0.15862 0.0
H262 H 0.40798 0.64865 0.16495 0.0
H263 H 0.44857 0.60799 0.11994 0.0
H264 H 0.45085 0.64421 0.93531 0.0
H265 H 0.40521 0.70345 0.9267 0.0
C266 C 0.37654 0.72573 0.01506 0.0
C267 C 0.36494 0.73368 0.0657 0.0
C268 C 0.4006 0.69027 0.01854 0.0
C269 C 0.37583 0.70501 0.1191 0.0
C270 C 0.39923 0.66966 0.12279 0.0
C271 C 0.43902 0.6288 0.07775 0.0
C272 C 0.45354 0.62205 0.02849 0.0
C273 C 0.41267 0.66253 0.07316 0.0
C274 C 0.44023 0.64883 0.97394 0.0
C275 C 0.41415 0.68273 0.96904 0.0
H276 H 0.85343 0.81315 0.60812 0.0
H277 H 0.86878 0.83735 0.78105 0.0
H278 H 0.90871 0.89848 0.75082 0.0
H279 H 0.94398 0.94188 0.67811 0.0
H280 H 0.92911 0.91937 0.50425 0.0
H281 H 0.88472 0.86095 0.53186 0.0
C282 C 0.86486 0.83237 0.63865 0.0
C283 C 0.85829 0.82061 0.69685 0.0
C284 C 0.88853 0.86742 0.62112 0.0
C285 C 0.87362 0.8456 0.73615 0.0
C286 C 0.89658 0.88051 0.71895 0.0
C287 C 0.93073 0.92454 0.64593 0.0
C288 C 0.94058 0.93467 0.58944 0.0
C289 C 0.90504 0.89119 0.662 0.0
C290 C 0.92281 0.91181 0.54843 0.0
C291 C 0.89721 0.87846 0.56412 0.0
H292 H 0.66685 0.28422 0.15367 0.0
H293 H 0.70038 0.32397 0.98361 0.0
H294 H 0.66236 0.38946 0.96827 0.0
H295 H 0.61593 0.43359 1.00142 0.0
H296 H 0.58595 0.39482 0.17395 0.0
H297 H 0.62605 0.33081 0.19029 0.0
C298 C 0.66617 0.30751 0.11356 0.0
C299 C 0.68616 0.29932 0.06967 0.0
C300 C 0.64455 0.34503 0.10537 0.0
C301 C 0.68539 0.32974 0.01806 0.0
C302 C 0.66341 0.367 0.00918 0.0
C303 C 0.61838 0.41109 0.04259 0.0
C304 C 0.59772 0.41862 0.08625 0.0
C305 C 0.64226 0.37468 0.05213 0.0
C306 C 0.60163 0.38968 0.13979 0.0
C307 C 0.62445 0.35305 0.14907 0.0
H308 H 0.20729 0.87319 0.16475 0.0
H309 H 0.09882 0.85768 0.04097 0.0
H310 H 0.05562 0.87811 0.10262 0.0
H311 H 0.04842 0.90392 0.18806 0.0
H312 H 0.15515 0.9065 0.32165 0.0
H313 H 0.1988 0.88856 0.25878 0.0
C314 C 0.17422 0.87331 0.15159 0.0
C315 C 0.15679 0.86501 0.09689 0.0
C316 C 0.149 0.8836 0.18853 0.0
C317 C 0.11361 0.86549 0.08137 0.0
C318 C 0.08864 0.8769 0.11692 0.0
C319 C 0.08096 0.89957 0.205 0.0
C320 C 0.0977 0.90747 0.26022 0.0
C321 C 0.10602 0.88668 0.17013 0.0
C322 C 0.14063 0.90241 0.279 0.0
C323 C 0.16594 0.8914 0.24324 0.0
H324 H 0.69868 0.62426 0.81699 0.0
H325 H 0.59585 0.70036 0.71545 0.0
H326 H 0.55171 0.66698 0.7843 0.0
H327 H 0.54264 0.61603 0.87445 0.0
H328 H 0.64498 0.53669 0.97059 0.0
H329 H 0.68889 0.57139 0.90344 0.0
C330 C 0.66666 0.63369 0.81026 0.0
C331 C 0.6506 0.66499 0.76164 0.0
C332 C 0.64134 0.61369 0.84917 0.0
C333 C 0.60888 0.67638 0.75271 0.0
C334 C 0.58366 0.65728 0.79203 0.0
C335 C 0.57443 0.60613 0.88025 0.0
C336 C 0.59071 0.57441 0.92836 0.0
C337 C 0.59951 0.62576 0.84043 0.0
C338 C 0.63193 0.56179 0.93498 0.0
C339 C 0.65707 0.58147 0.89634 0.0
H340 H 0.86482 0.10039 0.21334 0.0
H341 H 0.93297 0.21289 0.20744 0.0
H342 H 0.97335 0.1838 0.30432 0.0
H343 H 0.98988 0.12583 0.38976 0.0
H344 H 0.92393 1.01199 0.39405 0.0
H345 H 0.88249 0.04163 0.29837 0.0
C346 C 0.88857 0.11836 0.23352 0.0
C347 C 0.89606 0.15864 0.20381 0.0
C348 C 0.91214 0.10106 0.28855 0.0
C349 C 0.92693 0.18177 0.22976 0.0
C350 C 0.94993 0.16515 0.28499 0.0
C351 C 0.96626 0.10763 0.36983 0.0
C352 C 0.95965 0.06693 0.39905 0.0
C353 C 0.9429 0.12478 0.31468 0.0
C354 C 0.92956 0.04338 0.3723 0.0
C355 C 0.90578 0.06038 0.31775 0.0
H356 H 0.38155 0.41484 0.52374 0.0
H357 H 0.37782 0.28403 0.59941 0.0
H358 H 0.38738 0.29819 0.69674 0.0
H359 H 0.39615 0.34739 0.76087 0.0
H360 H 0.40288 0.47781 0.68688 0.0
H361 H 0.39462 0.4639 0.5887 0.0
C362 C 0.38332 0.3893 0.56144 0.0
C363 C 0.37829 0.3484 0.55359 0.0
C364 C 0.38988 0.39753 0.61781 0.0
C365 C 0.38031 0.31592 0.60341 0.0
C366 C 0.3863 0.32391 0.6594 0.0
C367 C 0.3959 0.37277 0.72322 0.0
C368 C 0.39985 0.4136 0.73109 0.0
C369 C 0.39089 0.36455 0.66709 0.0
C370 C 0.40017 0.44609 0.68203 0.0
C371 C 0.39509 0.43816 0.62588 0.0
H372 H 0.66224 0.63032 0.58338 0.0
H373 H 0.70086 0.75453 0.51914 0.0
H374 H 0.68951 0.74317 0.41961 0.0
H375 H 0.67167 0.69698 0.35175 0.0
H376 H 0.63584 0.57179 0.41688 0.0
H377 H 0.64145 0.58512 0.51469 0.0
C378 C 0.66748 0.65519 0.54748 0.0
C379 C 0.68242 0.69326 0.55879 0.0
C380 C 0.66121 0.64832 0.49045 0.0
C381 C 0.68976 0.72483 0.51179 0.0
C382 C 0.68313 0.71839 0.45485 0.0
C383 C 0.66515 0.67251 0.38731 0.0
C384 C 0.65364 0.63329 0.37676 0.0
C385 C 0.66947 0.68005 0.44382 0.0
C386 C 0.64437 0.60237 0.4233 0.0
C387 C 0.64797 0.60985 0.47949 0.0
H388 H 0.84022 0.15946 0.94817 0.0
H389 H 0.9341 0.238 0.01312 0.0
H390 H 0.96788 0.23929 0.92921 0.0
H391 H 0.97167 0.21678 0.83844 0.0
H392 H 0.87993 0.13528 0.77573 0.0
H393 H 0.84466 0.13601 0.85766 0.0
C394 C 0.86783 0.17717 0.94345 0.0
C395 C 0.88447 0.19895 0.98641 0.0
C396 C 0.88768 0.17688 0.89577 0.0
C397 C 0.9207 0.22113 0.98049 0.0
C398 C 0.94003 0.22181 0.93259 0.0
C399 C 0.94382 0.19937 0.84254 0.0
C400 C 0.9284 0.17611 0.80083 0.0
C401 C 0.92396 0.1996 0.89014 0.0
C402 C 0.89263 0.15318 0.80738 0.0
C403 C 0.87232 0.15378 0.85408 0.0
H404 H 0.36329 0.41441 0.30071 0.0
H405 H 0.46931 0.34014 0.39455 0.0
H406 H 0.51067 0.37575 0.32323 0.0
H407 H 0.51634 0.42769 0.23317 0.0
H408 H 0.41104 0.50459 0.14251 0.0
H409 H 0.36974 0.46841 0.21281 0.0
C410 C 0.39546 0.40622 0.3053 0.0
C411 C 0.4134 0.37479 0.35243 0.0
C412 C 0.4191 0.42722 0.26453 0.0
C413 C 0.45507 0.36433 0.35843 0.0
C414 C 0.47864 0.38467 0.31772 0.0
C415 C 0.48446 0.43674 0.22917 0.0
C416 C 0.46658 0.46826 0.18192 0.0
C417 C 0.46101 0.4162 0.27053 0.0
C418 C 0.42526 0.47969 0.17752 0.0
C419 C 0.40166 0.45919 0.21799 0.0
H420 H 0.11626 0.86465 0.89101 0.0
H421 H 0.23331 0.9211 0.87337 0.0
H422 H 0.20307 0.9634 0.77772 0.0
H423 H 0.14142 0.98936 0.70391 0.0
H424 H 0.02452 0.93326 0.72351 0.0
H425 H 0.05624 0.88676 0.81454 0.0
C426 C 0.13525 0.88597 0.86596 0.0
C427 C 0.17686 0.89003 0.88954 0.0
C428 C 0.11741 0.91097 0.81208 0.0
C429 C 0.20127 0.91721 0.85614 0.0
C430 C 0.18384 0.9418 0.80182 0.0
C431 C 0.12311 0.96666 0.72803 0.0
C432 C 0.08076 0.96471 0.70734 0.0
C433 C 0.14168 0.93981 0.7802 0.0
C434 C 0.05712 0.93556 0.73902 0.0
C435 C 0.07529 0.90877 0.79076 0.0
loop_
_geom_bond_atom_site_label_1
_geom_bond_atom_site_label_2
_geom_bond_distance
_geom_bond_site_symmetry_2
_ccdc_geom_bond_type
H0 C1 0.949 . S
C1 H0 0.949 . S
C1 C2 1.395 . S
C1 C3 1.391 . S
C2 C1 1.395 . S
C2 C5 1.390 . S
C3 C1 1.391 . S
C3 C7 1.387 1_554 S
C3 C8 1.491 . S
H4 C5 0.950 . S
C5 C2 1.390 . S
C5 H4 0.950 . S
C5 C6 1.378 1_554 S
C6 C5 1.378 1_556 S
C6 C7 1.409 . S
C7 C3 1.387 1_556 S
C7 C6 1.409 . S
C7 H9 0.951 . S
C8 C3 1.491 . S
C8 C10 1.382 . S
C8 C12 1.404 1_554 S
H9 C7 0.951 . S
C10 C8 1.382 . S
C10 C11 1.390 . S
C10 H15 0.949 . S
C11 C10 1.390 . S
C11 C16 1.399 . S
C12 C8 1.404 1_556 S
C12 H13 0.950 . S
C12 C14 1.375 . S
H13 C12 0.950 . S
C14 C12 1.375 . S
C14 C16 1.382 1_556 S
C14 H18 0.950 . S
H15 C10 0.949 . S
C16 C11 1.399 . S
C16 C14 1.382 1_554 S
C16 H17 0.952 . S
H17 C16 0.952 . S
H18 C14 0.950 . S
H19 C20 0.949 . S
C20 H19 0.949 . S
C20 C21 1.395 . S
C20 C22 1.391 . S
C21 C20 1.395 . S
C21 C24 1.390 . S
C22 C20 1.391 . S
C22 C26 1.387 . S
C22 C27 1.491 . S
H23 C24 0.950 . S
C24 C21 1.390 . S
C24 H23 0.950 . S
C24 C25 1.378 . S
C25 C24 1.378 . S
C25 C26 1.409 . S
C26 C22 1.387 . S
C26 C25 1.409 . S
C26 H28 0.951 . S
C27 C22 1.491 . S
C27 C29 1.382 . S
C27 C31 1.404 . S
H28 C26 0.951 . S
C29 C27 1.382 . S
C29 C30 1.390 . S
C29 H34 0.949 . S
C30 C29 1.390 . S
C30 C35 1.399 . S
C31 C27 1.404 . S
C31 H32 0.950 . S
C31 C33 1.375 . S
H32 C31 0.950 . S
C33 C31 1.375 . S
C33 C35 1.382 . S
C33 H37 0.950 . S
H34 C29 0.949 . S
C35 C30 1.399 . S
C35 C33 1.382 . S
C35 H36 0.952 . S
H36 C35 0.952 . S
H37 C33 0.950 . S
H38 C39 0.949 . S
C39 H38 0.949 . S
C39 C40 1.395 . S
C39 C41 1.391 . S
C40 C39 1.395 . S
C40 C43 1.390 . S
C41 C39 1.391 . S
C41 C45 1.387 . S
C41 C46 1.491 . S
H42 C43 0.950 . S
C43 C40 1.390 . S
C43 H42 0.950 . S
C43 C44 1.378 . S
C44 C43 1.378 . S
C44 C45 1.409 . S
C45 C41 1.387 . S
C45 C44 1.409 . S
C45 H47 0.951 1_554 S
C46 C41 1.491 . S
C46 C48 1.382 . S
C46 C50 1.404 1_554 S
H47 C45 0.951 1_556 S
C48 C46 1.382 . S
C48 C49 1.390 . S
C48 H53 0.949 . S
C49 C48 1.390 . S
C49 C54 1.399 1_554 S
C50 C46 1.404 1_556 S
C50 H51 0.950 . S
C50 C52 1.375 . S
H51 C50 0.950 . S
C52 C50 1.375 . S
C52 C54 1.382 . S
C52 H56 0.950 . S
H53 C48 0.949 . S
C54 C49 1.399 1_556 S
C54 C52 1.382 . S
C54 H55 0.952 . S
H55 C54 0.952 . S
H56 C52 0.950 . S
H57 C58 0.949 . S
C58 H57 0.949 . S
C58 C59 1.395 . S
C58 C60 1.391 . S
C59 C58 1.395 . S
C59 C62 1.390 . S
C60 C58 1.391 . S
C60 C64 1.387 . S
C60 C65 1.491 . S
H61 C62 0.950 . S
C62 C59 1.390 . S
C62 H61 0.950 . S
C62 C63 1.378 . S
C63 C62 1.378 . S
C63 C64 1.409 . S
C64 C60 1.387 . S
C64 C63 1.409 . S
C64 H66 0.951 . S
C65 C60 1.491 . S
C65 C67 1.382 . S
C65 C69 1.404 . S
H66 C64 0.951 . S
C67 C65 1.382 . S
C67 C68 1.390 . S
C67 H72 0.949 . S
C68 C67 1.390 . S
C68 C73 1.399 . S
C69 C65 1.404 . S
C69 H70 0.950 . S
C69 C71 1.375 . S
H70 C69 0.950 . S
C71 C69 1.375 . S
C71 C73 1.382 . S
C71 H75 0.950 . S
H72 C67 0.949 . S
C73 C68 1.399 . S
C73 C71 1.382 . S
C73 H74 0.952 . S
H74 C73 0.952 . S
H75 C71 0.950 . S
C76 C78 1.422 . S
C76 C80 1.415 . S
C76 N82 1.369 . S
C77 C78 1.421 . S
C77 C79 1.417 . S
C77 C89 1.422 . S
C78 C76 1.422 . S
C78 C77 1.421 . S
C78 N88 1.359 . S
C79 C77 1.417 . S
C79 C81 1.329 . S
C79 H98 0.930 . S
C80 C76 1.415 . S
C80 C81 1.437 . S
C80 C84 1.413 . S
C81 C79 1.329 . S
C81 C80 1.437 . S
C81 H103 0.929 . S
N82 C76 1.369 . S
N82 C83 1.338 1_655 S
N82 Gd87 2.622 . S
C83 N82 1.338 1_455 S
C83 C85 1.378 . S
C83 H95 0.929 . S
C84 C80 1.413 . S
C84 C85 1.348 1_655 S
C84 H100 0.931 . S
C85 C83 1.378 . S
C85 C84 1.348 1_455 S
C85 H101 0.930 . S
Gd86 N106 2.622 . S
Gd86 N113 2.570 . S
Gd86 O120 2.353 1_465 S
Gd86 O121 2.468 . S
Gd86 O122 2.427 . S
Gd86 O124 2.388 1_455 S
Gd86 O125 2.386 . S
Gd86 O129 2.307 1_565 S
Gd86 C139 2.805 . S
Gd87 N82 2.622 . S
Gd87 N88 2.570 . S
Gd87 O119 2.386 . S
Gd87 O123 2.307 1_545 S
Gd87 O126 2.353 1_655 S
Gd87 O127 2.468 . S
Gd87 O128 2.427 . S
Gd87 O130 2.388 1_655 S
Gd87 C151 2.805 . S
N88 C78 1.359 . S
N88 Gd87 2.570 . S
N88 C90 1.343 . S
C89 C77 1.422 . S
C89 C91 1.321 . S
C89 H97 0.931 . S
C90 N88 1.343 . S
C90 C91 1.390 . S
C90 H92 0.931 . S
C91 C89 1.321 . S
C91 C90 1.390 . S
C91 H93 0.930 . S
H92 C90 0.931 . S
H93 C91 0.930 . S
H94 C117 0.931 . S
H95 C83 0.929 . S
H96 C118 0.930 . S
H97 C89 0.931 . S
H98 C79 0.930 . S
H99 C108 0.929 1_655 S
H100 C84 0.931 . S
H101 C85 0.930 . S
H102 C140 0.930 . S
H103 C81 0.929 . S
H104 C109 0.931 . S
H105 C110 0.930 1_655 S
N106 Gd86 2.622 . S
N106 C107 1.369 . S
N106 C108 1.338 . S
C107 N106 1.369 . S
C107 C111 1.415 . S
C107 C114 1.422 . S
C108 H99 0.929 1_455 S
C108 N106 1.338 . S
C108 C110 1.378 . S
C109 H104 0.931 . S
C109 C110 1.348 . S
C109 C111 1.413 . S
C110 H105 0.930 1_455 S
C110 C108 1.378 . S
C110 C109 1.348 . S
C111 C107 1.415 . S
C111 C109 1.413 . S
C111 C141 1.437 . S
H112 C141 0.929 . S
N113 Gd86 2.570 . S
N113 C114 1.359 . S
N113 C117 1.343 . S
C114 C107 1.422 . S
C114 N113 1.359 . S
C114 C116 1.421 . S
C115 C116 1.422 . S
C115 C118 1.321 . S
C115 H142 0.931 . S
C116 C114 1.421 . S
C116 C115 1.422 . S
C116 C140 1.417 . S
C117 H94 0.931 . S
C117 N113 1.343 . S
C117 C118 1.390 . S
C118 H96 0.930 . S
C118 C115 1.321 . S
C118 C117 1.390 . S
O119 Gd87 2.386 . S
O119 C131 1.265 . S
O120 Gd86 2.353 1_645 S
O120 C131 1.242 . S
O121 Gd86 2.468 . S
O121 C139 1.263 . S
O122 Gd86 2.427 . S
O122 C139 1.252 . S
O123 Gd87 2.307 1_565 S
O123 C132 1.261 . S
O124 Gd86 2.388 1_655 S
O124 C132 1.252 . S
O125 Gd86 2.386 . S
O125 C143 1.265 . S
O126 Gd87 2.353 1_455 S
O126 C143 1.242 1_545 S
O127 Gd87 2.468 . S
O127 C151 1.263 . S
O128 Gd87 2.427 . S
O128 C151 1.252 . S
O129 Gd86 2.307 1_545 S
O129 C144 1.261 . S
O130 Gd87 2.388 1_455 S
O130 C144 1.252 . S
C131 O119 1.265 . S
C131 O120 1.242 . S
C132 O123 1.261 . S
C132 O124 1.252 . S
C133 C136 1.394 . S
C133 C138 1.370 . S
C133 C139 1.500 . S
C134 C137 1.383 . S
C134 C138 1.395 . S
C135 C136 1.396 . S
C135 C137 1.365 . S
C135 H152 0.929 . S
C136 C133 1.394 . S
C136 C135 1.396 . S
C136 H153 0.930 . S
C137 C134 1.383 . S
C137 C135 1.365 . S
C137 H154 0.931 . S
C138 C133 1.370 . S
C138 C134 1.395 . S
C138 H155 0.930 . S
C139 Gd86 2.805 . S
C139 O121 1.263 . S
C139 O122 1.252 . S
C139 C133 1.500 . S
C140 H102 0.930 . S
C140 C116 1.417 . S
C140 C141 1.329 . S
C141 C111 1.437 . S
C141 H112 0.929 . S
C141 C140 1.329 . S
H142 C115 0.931 . S
C143 O125 1.265 . S
C143 O126 1.242 1_565 S
C144 O129 1.261 . S
C144 O130 1.252 . S
C145 C148 1.394 . S
C145 C150 1.370 . S
C145 C151 1.500 . S
C146 C149 1.383 . S
C146 C150 1.395 . S
C147 C148 1.396 . S
C147 C149 1.365 . S
C147 H156 0.929 . S
C148 C145 1.394 . S
C148 C147 1.396 . S
C148 H157 0.930 . S
C149 C146 1.383 . S
C149 C147 1.365 . S
C149 H158 0.931 . S
C150 C145 1.370 . S
C150 C146 1.395 . S
C150 H159 0.930 . S
C151 Gd87 2.805 . S
C151 O127 1.263 . S
C151 O128 1.252 . S
C151 C145 1.500 . S
H152 C135 0.929 . S
H153 C136 0.930 . S
H154 C137 0.931 . S
H155 C138 0.930 . S
H156 C147 0.929 . S
H157 C148 0.930 . S
H158 C149 0.931 . S
H159 C150 0.930 . S
C160 C162 1.422 . S
C160 C164 1.415 . S
C160 N166 1.369 . S
C161 C162 1.421 . S
C161 C163 1.417 . S
C161 C173 1.422 . S
C162 C160 1.422 . S
C162 C161 1.421 . S
C162 N172 1.359 . S
C163 C161 1.417 . S
C163 C165 1.329 . S
C163 H182 0.930 . S
C164 C160 1.415 . S
C164 C165 1.437 . S
C164 C168 1.413 . S
C165 C163 1.329 . S
C165 C164 1.437 . S
C165 H187 0.929 . S
N166 C160 1.369 . S
N166 C167 1.338 . S
N166 Gd171 2.622 . S
C167 N166 1.338 . S
C167 C169 1.378 . S
C167 H179 0.929 . S
C168 C164 1.413 . S
C168 C169 1.348 . S
C168 H184 0.931 . S
C169 C167 1.378 . S
C169 C168 1.348 . S
C169 H185 0.930 . S
Gd170 N190 2.626 . S
Gd170 N197 2.572 . S
Gd170 O204 2.344 1_554 S
Gd170 O205 2.451 1_554 S
Gd170 O206 2.411 1_554 S
Gd170 O208 2.394 . S
Gd170 O209 2.404 . S
Gd170 O213 2.310 . S
Gd170 C223 2.787 1_554 S
Gd171 N166 2.622 . S
Gd171 N172 2.570 . S
Gd171 O203 2.386 . S
Gd171 O207 2.307 . S
Gd171 O210 2.353 . S
Gd171 O211 2.468 . S
Gd171 O212 2.427 . S
Gd171 O214 2.388 . S
Gd171 C235 2.805 . S
N172 C162 1.359 . S
N172 Gd171 2.570 . S
N172 C174 1.343 . S
C173 C161 1.422 . S
C173 C175 1.321 . S
C173 H181 0.931 . S
C174 N172 1.343 . S
C174 C175 1.390 . S
C174 H176 0.931 . S
C175 C173 1.321 . S
C175 C174 1.390 . S
C175 H177 0.930 . S
H176 C174 0.931 . S
H177 C175 0.930 . S
H178 C201 0.931 . S
H179 C167 0.929 . S
H180 C202 0.930 . S
H181 C173 0.931 . S
H182 C163 0.930 . S
H183 C192 0.929 . S
H184 C168 0.931 . S
H185 C169 0.930 . S
H186 C224 0.930 . S
H187 C165 0.929 . S
H188 C193 0.931 . S
H189 C194 0.930 . S
N190 Gd170 2.626 . S
N190 C191 1.369 . S
N190 C192 1.338 1_554 S
C191 N190 1.369 . S
C191 C195 1.415 . S
C191 C198 1.422 . S
C192 H183 0.929 . S
C192 N190 1.338 1_556 S
C192 C194 1.378 . S
C193 H188 0.931 . S
C193 C194 1.348 1_554 S
C193 C195 1.413 . S
C194 H189 0.930 . S
C194 C192 1.378 . S
C194 C193 1.348 1_556 S
C195 C191 1.415 . S
C195 C193 1.413 . S
C195 C225 1.437 . S
H196 C225 0.929 . S
N197 Gd170 2.572 . S
N197 C198 1.359 . S
N197 C201 1.343 . S
C198 C191 1.422 . S
C198 N197 1.359 . S
C198 C200 1.421 . S
C199 C200 1.422 . S
C199 C202 1.321 . S
C199 H226 0.931 . S
C200 C198 1.421 . S
C200 C199 1.422 . S
C200 C224 1.417 . S
C201 H178 0.931 . S
C201 N197 1.343 . S
C201 C202 1.390 . S
C202 H180 0.930 . S
C202 C199 1.321 . S
C202 C201 1.390 . S
O203 Gd171 2.386 . S
O203 C215 1.265 1_554 S
O204 Gd170 2.344 1_556 S
O204 C215 1.242 . S
O205 Gd170 2.451 1_556 S
O205 C223 1.263 . S
O206 Gd170 2.411 1_556 S
O206 C223 1.252 . S
O207 Gd171 2.307 . S
O207 C216 1.261 . S
O208 Gd170 2.394 . S
O208 C216 1.252 . S
O209 Gd170 2.404 . S
O209 C227 1.265 . S
O210 Gd171 2.353 . S
O210 C227 1.242 . S
O211 Gd171 2.468 . S
O211 C235 1.263 . S
O212 Gd171 2.427 . S
O212 C235 1.252 . S
O213 Gd170 2.310 . S
O213 C228 1.261 . S
O214 Gd171 2.388 . S
O214 C228 1.252 . S
C215 O203 1.265 1_556 S
C215 O204 1.242 . S
C216 O207 1.261 . S
C216 O208 1.252 . S
C217 C220 1.394 . S
C217 C222 1.370 . S
C217 C223 1.500 . S
C218 C221 1.383 . S
C218 C222 1.395 . S
C219 C220 1.396 . S
C219 C221 1.365 . S
C219 H236 0.929 . S
C220 C217 1.394 . S
C220 C219 1.396 . S
C220 H237 0.930 . S
C221 C218 1.383 . S
C221 C219 1.365 . S
C221 H238 0.931 . S
C222 C217 1.370 . S
C222 C218 1.395 . S
C222 H239 0.930 . S
C223 Gd170 2.787 1_556 S
C223 O205 1.263 . S
C223 O206 1.252 . S
C223 C217 1.500 . S
C224 H186 0.930 . S
C224 C200 1.417 . S
C224 C225 1.329 . S
C225 C195 1.437 . S
C225 H196 0.929 . S
C225 C224 1.329 . S
H226 C199 0.931 . S
C227 O209 1.265 . S
C227 O210 1.242 . S
C228 O213 1.261 . S
C228 O214 1.252 . S
C229 C232 1.394 . S
C229 C234 1.370 . S
C229 C235 1.500 . S
C230 C233 1.383 . S
C230 C234 1.395 . S
C231 C232 1.396 . S
C231 C233 1.365 . S
C231 H240 0.929 . S
C232 C229 1.394 . S
C232 C231 1.396 . S
C232 H241 0.930 . S
C233 C230 1.383 . S
C233 C231 1.365 . S
C233 H242 0.931 . S
C234 C229 1.370 . S
C234 C230 1.395 . S
C234 H243 0.930 . S
C235 Gd171 2.805 . S
C235 O211 1.263 . S
C235 O212 1.252 . S
C235 C229 1.500 . S
H236 C219 0.929 . S
H237 C220 0.930 . S
H238 C221 0.931 . S
H239 C222 0.930 . S
H240 C231 0.929 . S
H241 C232 0.930 . S
H242 C233 0.931 . S
H243 C234 0.930 . S
H244 C250 0.930 . S
H245 C253 0.930 . S
H246 C254 0.930 . S
H247 C255 0.930 . S
H248 C258 0.930 . S
H249 C259 0.930 . S
C250 H244 0.930 . S
C250 C251 1.355 . S
C250 C252 1.415 . S
C251 C250 1.355 . S
C251 C253 1.419 . S
C252 C250 1.415 . S
C252 C257 1.425 . S
C252 C259 1.409 . S
C253 H245 0.930 . S
C253 C251 1.419 . S
C253 C254 1.362 . S
C254 H246 0.930 . S
C254 C253 1.362 . S
C254 C257 1.409 . S
C255 H247 0.930 . S
C255 C256 1.355 . S
C255 C257 1.415 . S
C256 C255 1.355 . S
C256 C258 1.419 . S
C257 C252 1.425 . S
C257 C254 1.409 . S
C257 C255 1.415 . S
C258 H248 0.930 . S
C258 C256 1.419 . S
C258 C259 1.362 . S
C259 H249 0.930 . S
C259 C252 1.409 . S
C259 C258 1.362 . S
H260 C266 0.930 . S
H261 C269 0.930 . S
H262 C270 0.930 . S
H263 C271 0.930 . S
H264 C274 0.930 1_556 S
H265 C275 0.930 1_556 S
C266 H260 0.930 . S
C266 C267 1.355 . S
C266 C268 1.415 . S
C267 C266 1.355 . S
C267 C269 1.419 . S
C268 C266 1.415 . S
C268 C273 1.425 . S
C268 C275 1.409 . S
C269 H261 0.930 . S
C269 C267 1.419 . S
C269 C270 1.362 . S
C270 H262 0.930 . S
C270 C269 1.362 . S
C270 C273 1.409 . S
C271 H263 0.930 . S
C271 C272 1.355 . S
C271 C273 1.415 . S
C272 C271 1.355 . S
C272 C274 1.419 . S
C273 C268 1.425 . S
C273 C270 1.409 . S
C273 C271 1.415 . S
C274 H264 0.930 1_554 S
C274 C272 1.419 . S
C274 C275 1.362 . S
C275 H265 0.930 1_554 S
C275 C268 1.409 . S
C275 C274 1.362 . S
H276 C282 0.930 . S
H277 C285 0.930 . S
H278 C286 0.930 . S
H279 C287 0.930 . S
H280 C290 0.930 . S
H281 C291 0.930 . S
C282 H276 0.930 . S
C282 C283 1.355 . S
C282 C284 1.415 . S
C283 C282 1.355 . S
C283 C285 1.419 . S
C284 C282 1.415 . S
C284 C289 1.425 . S
C284 C291 1.409 . S
C285 H277 0.930 . S
C285 C283 1.419 . S
C285 C286 1.362 . S
C286 H278 0.930 . S
C286 C285 1.362 . S
C286 C289 1.409 . S
C287 H279 0.930 . S
C287 C288 1.355 . S
C287 C289 1.415 . S
C288 C287 1.355 . S
C288 C290 1.419 . S
C289 C284 1.425 . S
C289 C286 1.409 . S
C289 C287 1.415 . S
C290 H280 0.930 . S
C290 C288 1.419 . S
C290 C291 1.362 . S
C291 H281 0.930 . S
C291 C284 1.409 . S
C291 C290 1.362 . S
H292 C298 0.930 . S
H293 C301 0.930 . S
H294 C302 0.930 . S
H295 C303 0.930 . S
H296 C306 0.930 . S
H297 C307 0.930 . S
C298 H292 0.930 . S
C298 C299 1.355 . S
C298 C300 1.415 . S
C299 C298 1.355 . S
C299 C301 1.419 . S
C300 C298 1.415 . S
C300 C305 1.425 . S
C300 C307 1.409 . S
C301 H293 0.930 . S
C301 C299 1.419 . S
C301 C302 1.362 . S
C302 H294 0.930 . S
C302 C301 1.362 . S
C302 C305 1.409 . S
C303 H295 0.930 . S
C303 C304 1.355 . S
C303 C305 1.415 . S
C304 C303 1.355 . S
C304 C306 1.419 . S
C305 C300 1.425 . S
C305 C302 1.409 . S
C305 C303 1.415 . S
C306 H296 0.930 . S
C306 C304 1.419 . S
C306 C307 1.362 . S
C307 H297 0.930 . S
C307 C300 1.409 . S
C307 C306 1.362 . S
H308 C314 0.930 . S
H309 C317 0.930 . S
H310 C318 0.930 . S
H311 C319 0.930 . S
H312 C322 0.930 . S
H313 C323 0.930 . S
C314 H308 0.930 . S
C314 C315 1.355 . S
C314 C316 1.415 . S
C315 C314 1.355 . S
C315 C317 1.419 . S
C316 C314 1.415 . S
C316 C321 1.425 . S
C316 C323 1.409 . S
C317 H309 0.930 . S
C317 C315 1.419 . S
C317 C318 1.362 . S
C318 H310 0.930 . S
C318 C317 1.362 . S
C318 C321 1.409 . S
C319 H311 0.930 . S
C319 C320 1.355 . S
C319 C321 1.415 . S
C320 C319 1.355 . S
C320 C322 1.419 . S
C321 C316 1.425 . S
C321 C318 1.409 . S
C321 C319 1.415 . S
C322 H312 0.930 . S
C322 C320 1.419 . S
C322 C323 1.362 . S
C323 H313 0.930 . S
C323 C316 1.409 . S
C323 C322 1.362 . S
H324 C330 0.930 . S
H325 C333 0.930 . S
H326 C334 0.930 . S
H327 C335 0.930 . S
H328 C338 0.930 . S
H329 C339 0.930 . S
C330 H324 0.930 . S
C330 C331 1.355 . S
C330 C332 1.415 . S
C331 C330 1.355 . S
C331 C333 1.419 . S
C332 C330 1.415 . S
C332 C337 1.425 . S
C332 C339 1.409 . S
C333 H325 0.930 . S
C333 C331 1.419 . S
C333 C334 1.362 . S
C334 H326 0.930 . S
C334 C333 1.362 . S
C334 C337 1.409 . S
C335 H327 0.930 . S
C335 C336 1.355 . S
C335 C337 1.415 . S
C336 C335 1.355 . S
C336 C338 1.419 . S
C337 C332 1.425 . S
C337 C334 1.409 . S
C337 C335 1.415 . S
C338 H328 0.930 . S
C338 C336 1.419 . S
C338 C339 1.362 . S
C339 H329 0.930 . S
C339 C332 1.409 . S
C339 C338 1.362 . S
H340 C346 0.930 . S
H341 C349 0.930 . S
H342 C350 0.930 . S
H343 C351 0.930 . S
H344 C354 0.930 1_565 S
H345 C355 0.930 . S
C346 H340 0.930 . S
C346 C347 1.355 . S
C346 C348 1.415 . S
C347 C346 1.355 . S
C347 C349 1.419 . S
C348 C346 1.415 . S
C348 C353 1.425 . S
C348 C355 1.409 . S
C349 H341 0.930 . S
C349 C347 1.419 . S
C349 C350 1.362 . S
C350 H342 0.930 . S
C350 C349 1.362 . S
C350 C353 1.409 . S
C351 H343 0.930 . S
C351 C352 1.355 . S
C351 C353 1.415 . S
C352 C351 1.355 . S
C352 C354 1.419 . S
C353 C348 1.425 . S
C353 C350 1.409 . S
C353 C351 1.415 . S
C354 H344 0.930 1_545 S
C354 C352 1.419 . S
C354 C355 1.362 . S
C355 H345 0.930 . S
C355 C348 1.409 . S
C355 C354 1.362 . S
H356 C362 0.930 . S
H357 C365 0.930 . S
H358 C366 0.930 . S
H359 C367 0.930 . S
H360 C370 0.930 . S
H361 C371 0.930 . S
C362 H356 0.930 . S
C362 C363 1.355 . S
C362 C364 1.415 . S
C363 C362 1.355 . S
C363 C365 1.419 . S
C364 C362 1.415 . S
C364 C369 1.425 . S
C364 C371 1.409 . S
C365 H357 0.930 . S
C365 C363 1.419 . S
C365 C366 1.362 . S
C366 H358 0.930 . S
C366 C365 1.362 . S
C366 C369 1.409 . S
C367 H359 0.930 . S
C367 C368 1.355 . S
C367 C369 1.415 . S
C368 C367 1.355 . S
C368 C370 1.419 . S
C369 C364 1.425 . S
C369 C366 1.409 . S
C369 C367 1.415 . S
C370 H360 0.930 . S
C370 C368 1.419 . S
C370 C371 1.362 . S
C371 H361 0.930 . S
C371 C364 1.409 . S
C371 C370 1.362 . S
H372 C378 0.930 . S
H373 C381 0.930 . S
H374 C382 0.930 . S
H375 C383 0.930 . S
H376 C386 0.930 . S
H377 C387 0.930 . S
C378 H372 0.930 . S
C378 C379 1.355 . S
C378 C380 1.415 . S
C379 C378 1.355 . S
C379 C381 1.419 . S
C380 C378 1.415 . S
C380 C385 1.425 . S
C380 C387 1.409 . S
C381 H373 0.930 . S
C381 C379 1.419 . S
C381 C382 1.362 . S
C382 H374 0.930 . S
C382 C381 1.362 . S
C382 C385 1.409 . S
C383 H375 0.930 . S
C383 C384 1.355 . S
C383 C385 1.415 . S
C384 C383 1.355 . S
C384 C386 1.419 . S
C385 C380 1.425 . S
C385 C382 1.409 . S
C385 C383 1.415 . S
C386 H376 0.930 . S
C386 C384 1.419 . S
C386 C387 1.362 . S
C387 H377 0.930 . S
C387 C380 1.409 . S
C387 C386 1.362 . S
H388 C394 0.930 . S
H389 C397 0.930 . S
H390 C398 0.930 . S
H391 C399 0.930 . S
H392 C402 0.930 . S
H393 C403 0.930 . S
C394 H388 0.930 . S
C394 C395 1.355 . S
C394 C396 1.415 . S
C395 C394 1.355 . S
C395 C397 1.419 1_556 S
C396 C394 1.415 . S
C396 C401 1.425 . S
C396 C403 1.409 . S
C397 H389 0.930 . S
C397 C395 1.419 1_554 S
C397 C398 1.362 1_554 S
C398 H390 0.930 . S
C398 C397 1.362 1_556 S
C398 C401 1.409 . S
C399 H391 0.930 . S
C399 C400 1.355 . S
C399 C401 1.415 . S
C400 C399 1.355 . S
C400 C402 1.419 . S
C401 C396 1.425 . S
C401 C398 1.409 . S
C401 C399 1.415 . S
C402 H392 0.930 . S
C402 C400 1.419 . S
C402 C403 1.362 . S
C403 H393 0.930 . S
C403 C396 1.409 . S
C403 C402 1.362 . S
H404 C410 0.930 . S
H405 C413 0.930 . S
H406 C414 0.930 . S
H407 C415 0.930 . S
H408 C418 0.930 . S
H409 C419 0.930 . S
C410 H404 0.930 . S
C410 C411 1.355 . S
C410 C412 1.415 . S
C411 C410 1.355 . S
C411 C413 1.419 . S
C412 C410 1.415 . S
C412 C417 1.425 . S
C412 C419 1.409 . S
C413 H405 0.930 . S
C413 C411 1.419 . S
C413 C414 1.362 . S
C414 H406 0.930 . S
C414 C413 1.362 . S
C414 C417 1.409 . S
C415 H407 0.930 . S
C415 C416 1.355 . S
C415 C417 1.415 . S
C416 C415 1.355 . S
C416 C418 1.419 . S
C417 C412 1.425 . S
C417 C414 1.409 . S
C417 C415 1.415 . S
C418 H408 0.930 . S
C418 C416 1.419 . S
C418 C419 1.362 . S
C419 H409 0.930 . S
C419 C412 1.409 . S
C419 C418 1.362 . S
H420 C426 0.930 . S
H421 C429 0.930 . S
H422 C430 0.930 . S
H423 C431 0.930 . S
H424 C434 0.930 . S
H425 C435 0.930 . S
C426 H420 0.930 . S
C426 C427 1.355 . S
C426 C428 1.415 . S
C427 C426 1.355 . S
C427 C429 1.419 . S
C428 C426 1.415 . S
C428 C433 1.425 . S
C428 C435 1.409 . S
C429 H421 0.930 . S
C429 C427 1.419 . S
C429 C430 1.362 . S
C430 H422 0.930 . S
C430 C429 1.362 . S
C430 C433 1.409 . S
C431 H423 0.930 . S
C431 C432 1.355 . S
C431 C433 1.415 . S
C432 C431 1.355 . S
C432 C434 1.419 . S
C433 C428 1.425 . S
C433 C430 1.409 . S
C433 C431 1.415 . S
C434 H424 0.930 . S
C434 C432 1.419 . S
C434 C435 1.362 . S
C435 H425 0.930 . S
C435 C428 1.409 . S
C435 C434 1.362 . S
C256 C144 1.667 . S
C251 C68 1.654 . S
C267 C11 1.587 . S
C272 C216 1.688 . S
C283 C30 1.565 . S
C288 C132 1.681 . S
C299 C49 1.594 . S
C304 C228 1.637 . S
C320 C134 1.532 . S
C315 C2 1.643 . S
C336 C215 1.760 . S
C331 C25 1.768 . S
C347 C40 1.679 . S
C352 C131 1.707 . S
C363 C59 1.664 . S
C368 C218 1.444 . S
C384 C230 1.404 . S
C379 C21 1.612 . S
C400 C146 1.410 . S
C395 C44 1.588 1_556 S
C416 C227 1.657 . S
C411 C63 1.669 . S
C427 C6 1.628 . S
C432 C143 1.636 . S
