# Generated by pormake.
# Topology ptr, (4,4)-cn, num edge types: 1
# Building blocks:
#     Node 0, Type 0, BuildingBlock: QUQFOY_clean_sbu_3, # of connection points: 4
#     Node 1, Type 0, BuildingBlock: QUQFOY_clean_sbu_3, # of connection points: 4
#     Node 2, Type 0, BuildingBlock: QUQFOY_clean_sbu_3, # of connection points: 4
#     Node 3, Type 0, BuildingBlock: QUQFOY_clean_sbu_3, # of connection points: 4
#     Node 4, Type 0, BuildingBlock: QUQFOY_clean_sbu_3, # of connection points: 4
#     Node 5, Type 0, BuildingBlock: QUQFOY_clean_sbu_3, # of connection points: 4
#     Node 6, Type 0, BuildingBlock: QUQFOY_clean_sbu_3, # of connection points: 4
#     Node 7, Type 0, BuildingBlock: QUQFOY_clean_sbu_3, # of connection points: 4
#     Node 8, Type 0, BuildingBlock: QUQFOY_clean_sbu_3, # of connection points: 4
#     Node 9, Type 0, BuildingBlock: QUQFOY_clean_sbu_3, # of connection points: 4
#     Node 10, Type 0, BuildingBlock: QUQFOY_clean_sbu_3, # of connection points: 4
#     Node 11, Type 0, BuildingBlock: QUQFOY_clean_sbu_3, # of connection points: 4
#     Node 12, Type 0, BuildingBlock: QUQFOY_clean_sbu_3, # of connection points: 4
#     Node 13, Type 0, BuildingBlock: QUQFOY_clean_sbu_3, # of connection points: 4
#     Node 14, Type 0, BuildingBlock: QUQFOY_clean_sbu_3, # of connection points: 4
#     Node 15, Type 0, BuildingBlock: QUQFOY_clean_sbu_3, # of connection points: 4
#     Node 16, Type 0, BuildingBlock: QUQFOY_clean_sbu_3, # of connection points: 4
#     Node 17, Type 0, BuildingBlock: QUQFOY_clean_sbu_3, # of connection points: 4
#     Node 18, Type 1, BuildingBlock: GIZVER_clean_linker_0, # of connection points: 4
#     Node 19, Type 1, BuildingBlock: GIZVER_clean_linker_0, # of connection points: 4
#     Node 20, Type 1, BuildingBlock: GIZVER_clean_linker_0, # of connection points: 4
#     Node 21, Type 1, BuildingBlock: GIZVER_clean_linker_0, # of connection points: 4
#     Node 22, Type 1, BuildingBlock: GIZVER_clean_linker_0, # of connection points: 4
#     Node 23, Type 1, BuildingBlock: GIZVER_clean_linker_0, # of connection points: 4
#     Node 24, Type 1, BuildingBlock: GIZVER_clean_linker_0, # of connection points: 4
#     Node 25, Type 1, BuildingBlock: GIZVER_clean_linker_0, # of connection points: 4
#     Node 26, Type 1, BuildingBlock: GIZVER_clean_linker_0, # of connection points: 4
#     Node 27, Type 1, BuildingBlock: GIZVER_clean_linker_0, # of connection points: 4
#     Node 28, Type 1, BuildingBlock: GIZVER_clean_linker_0, # of connection points: 4
#     Node 29, Type 1, BuildingBlock: GIZVER_clean_linker_0, # of connection points: 4
#     Node 30, Type 1, BuildingBlock: GIZVER_clean_linker_0, # of connection points: 4
#     Node 31, Type 1, BuildingBlock: GIZVER_clean_linker_0, # of connection points: 4
#     Node 32, Type 1, BuildingBlock: GIZVER_clean_linker_0, # of connection points: 4
#     Node 33, Type 1, BuildingBlock: GIZVER_clean_linker_0, # of connection points: 4
#     Node 34, Type 1, BuildingBlock: GIZVER_clean_linker_0, # of connection points: 4
#     Node 35, Type 1, BuildingBlock: GIZVER_clean_linker_0, # of connection points: 4
#     Edge 36, Type (0, 1), BuildingBlock: XUDNAN_clean_linker_2, # of connection points: 2
#     Edge 37, Type (0, 1), BuildingBlock: XUDNAN_clean_linker_2, # of connection points: 2
#     Edge 38, Type (0, 1), BuildingBlock: XUDNAN_clean_linker_2, # of connection points: 2
#     Edge 39, Type (0, 1), BuildingBlock: XUDNAN_clean_linker_2, # of connection points: 2
#     Edge 40, Type (0, 1), BuildingBlock: XUDNAN_clean_linker_2, # of connection points: 2
#     Edge 41, Type (0, 1), BuildingBlock: XUDNAN_clean_linker_2, # of connection points: 2
#     Edge 42, Type (0, 1), BuildingBlock: XUDNAN_clean_linker_2, # of connection points: 2
#     Edge 43, Type (0, 1), BuildingBlock: XUDNAN_clean_linker_2, # of connection points: 2
#     Edge 44, Type (0, 1), BuildingBlock: XUDNAN_clean_linker_2, # of connection points: 2
#     Edge 45, Type (0, 1), BuildingBlock: XUDNAN_clean_linker_2, # of connection points: 2
#     Edge 46, Type (0, 1), BuildingBlock: XUDNAN_clean_linker_2, # of connection points: 2
#     Edge 47, Type (0, 1), BuildingBlock: XUDNAN_clean_linker_2, # of connection points: 2
#     Edge 48, Type (0, 1), BuildingBlock: XUDNAN_clean_linker_2, # of connection points: 2
#     Edge 49, Type (0, 1), BuildingBlock: XUDNAN_clean_linker_2, # of connection points: 2
#     Edge 50, Type (0, 1), BuildingBlock: XUDNAN_clean_linker_2, # of connection points: 2
#     Edge 51, Type (0, 1), BuildingBlock: XUDNAN_clean_linker_2, # of connection points: 2
#     Edge 52, Type (0, 1), BuildingBlock: XUDNAN_clean_linker_2, # of connection points: 2
#     Edge 53, Type (0, 1), BuildingBlock: XUDNAN_clean_linker_2, # of connection points: 2
#     Edge 54, Type (0, 1), BuildingBlock: XUDNAN_clean_linker_2, # of connection points: 2
#     Edge 55, Type (0, 1), BuildingBlock: XUDNAN_clean_linker_2, # of connection points: 2
#     Edge 56, Type (0, 1), BuildingBlock: XUDNAN_clean_linker_2, # of connection points: 2
#     Edge 57, Type (0, 1), BuildingBlock: XUDNAN_clean_linker_2, # of connection points: 2
#     Edge 58, Type (0, 1), BuildingBlock: XUDNAN_clean_linker_2, # of connection points: 2
#     Edge 59, Type (0, 1), BuildingBlock: XUDNAN_clean_linker_2, # of connection points: 2
#     Edge 60, Type (0, 1), BuildingBlock: XUDNAN_clean_linker_2, # of connection points: 2
#     Edge 61, Type (0, 1), BuildingBlock: XUDNAN_clean_linker_2, # of connection points: 2
#     Edge 62, Type (0, 1), BuildingBlock: XUDNAN_clean_linker_2, # of connection points: 2
#     Edge 63, Type (0, 1), BuildingBlock: XUDNAN_clean_linker_2, # of connection points: 2
#     Edge 64, Type (0, 1), BuildingBlock: XUDNAN_clean_linker_2, # of connection points: 2
#     Edge 65, Type (0, 1), BuildingBlock: XUDNAN_clean_linker_2, # of connection points: 2
#     Edge 66, Type (0, 1), BuildingBlock: XUDNAN_clean_linker_2, # of connection points: 2
#     Edge 67, Type (0, 1), BuildingBlock: XUDNAN_clean_linker_2, # of connection points: 2
#     Edge 68, Type (0, 1), BuildingBlock: XUDNAN_clean_linker_2, # of connection points: 2
#     Edge 69, Type (0, 1), BuildingBlock: XUDNAN_clean_linker_2, # of connection points: 2
#     Edge 70, Type (0, 1), BuildingBlock: XUDNAN_clean_linker_2, # of connection points: 2
#     Edge 71, Type (0, 1), BuildingBlock: XUDNAN_clean_linker_2, # of connection points: 2
#     Edge 72, Type (0, 1), BuildingBlock: XUDNAN_clean_linker_2, # of connection points: 2
#     Edge 73, Type (0, 1), BuildingBlock: XUDNAN_clean_linker_2, # of connection points: 2
#     Edge 74, Type (0, 1), BuildingBlock: XUDNAN_clean_linker_2, # of connection points: 2
#     Edge 75, Type (0, 1), BuildingBlock: XUDNAN_clean_linker_2, # of connection points: 2
#     Edge 76, Type (0, 1), BuildingBlock: XUDNAN_clean_linker_2, # of connection points: 2
#     Edge 77, Type (0, 1), BuildingBlock: XUDNAN_clean_linker_2, # of connection points: 2
#     Edge 78, Type (0, 1), BuildingBlock: XUDNAN_clean_linker_2, # of connection points: 2
#     Edge 79, Type (0, 1), BuildingBlock: XUDNAN_clean_linker_2, # of connection points: 2
#     Edge 80, Type (0, 1), BuildingBlock: XUDNAN_clean_linker_2, # of connection points: 2
#     Edge 81, Type (0, 1), BuildingBlock: XUDNAN_clean_linker_2, # of connection points: 2
#     Edge 82, Type (0, 1), BuildingBlock: XUDNAN_clean_linker_2, # of connection points: 2
#     Edge 83, Type (0, 1), BuildingBlock: XUDNAN_clean_linker_2, # of connection points: 2
#     Edge 84, Type (0, 1), BuildingBlock: XUDNAN_clean_linker_2, # of connection points: 2
#     Edge 85, Type (0, 1), BuildingBlock: XUDNAN_clean_linker_2, # of connection points: 2
#     Edge 86, Type (0, 1), BuildingBlock: XUDNAN_clean_linker_2, # of connection points: 2
#     Edge 87, Type (0, 1), BuildingBlock: XUDNAN_clean_linker_2, # of connection points: 2
#     Edge 88, Type (0, 1), BuildingBlock: XUDNAN_clean_linker_2, # of connection points: 2
#     Edge 89, Type (0, 1), BuildingBlock: XUDNAN_clean_linker_2, # of connection points: 2
#     Edge 90, Type (0, 1), BuildingBlock: XUDNAN_clean_linker_2, # of connection points: 2
#     Edge 91, Type (0, 1), BuildingBlock: XUDNAN_clean_linker_2, # of connection points: 2
#     Edge 92, Type (0, 1), BuildingBlock: XUDNAN_clean_linker_2, # of connection points: 2
#     Edge 93, Type (0, 1), BuildingBlock: XUDNAN_clean_linker_2, # of connection points: 2
#     Edge 94, Type (0, 1), BuildingBlock: XUDNAN_clean_linker_2, # of connection points: 2
#     Edge 95, Type (0, 1), BuildingBlock: XUDNAN_clean_linker_2, # of connection points: 2
#     Edge 96, Type (0, 1), BuildingBlock: XUDNAN_clean_linker_2, # of connection points: 2
#     Edge 97, Type (0, 1), BuildingBlock: XUDNAN_clean_linker_2, # of connection points: 2
#     Edge 98, Type (0, 1), BuildingBlock: XUDNAN_clean_linker_2, # of connection points: 2
#     Edge 99, Type (0, 1), BuildingBlock: XUDNAN_clean_linker_2, # of connection points: 2
#     Edge 100, Type (0, 1), BuildingBlock: XUDNAN_clean_linker_2, # of connection points: 2
#     Edge 101, Type (0, 1), BuildingBlock: XUDNAN_clean_linker_2, # of connection points: 2
#     Edge 102, Type (0, 1), BuildingBlock: XUDNAN_clean_linker_2, # of connection points: 2
#     Edge 103, Type (0, 1), BuildingBlock: XUDNAN_clean_linker_2, # of connection points: 2
#     Edge 104, Type (0, 1), BuildingBlock: XUDNAN_clean_linker_2, # of connection points: 2
#     Edge 105, Type (0, 1), BuildingBlock: XUDNAN_clean_linker_2, # of connection points: 2
#     Edge 106, Type (0, 1), BuildingBlock: XUDNAN_clean_linker_2, # of connection points: 2
#     Edge 107, Type (0, 1), BuildingBlock: XUDNAN_clean_linker_2, # of connection points: 2
# Relax obj value: 0.044
# Max RMSD: 0.106
# Mean RMSD: 0.074
data_MOF--net-ptr--node1-QUQFOY_clean_sbu_3--node2-GIZVER_clean_linker_0--edge1-XUDNAN_clean_linker_2
_symmetry_space_group_name_H-M    P1
_symmetry_Int_Tables_number       1
_symmetry_cell_setting            triclinic
loop_
_symmetry_equiv_pos_as_xyz
'x, y, z'
_cell_length_a     80.746448
_cell_length_b     80.946728
_cell_length_c     49.623845
_cell_angle_alpha  90.61214
_cell_angle_beta   89.78143
_cell_angle_gamma 120.56268
loop_
_atom_site_label
_atom_site_type_symbol
_atom_site_fract_x
_atom_site_fract_y
_atom_site_fract_z
_atom_type_partial_charge
C0 C 0.96466 0.34327 0.00594 0.0
O1 O 0.95997 0.35521 0.01435 0.0
Cd2 Cd 0.98262 0.38852 0.0227 0.0
O3 O 0.98231 0.34857 0.00203 0.0
Cd4 Cd 0.01487 0.37787 0.00742 0.0
C5 C 0.00625 0.40382 0.96211 0.0
O6 O 0.00795 0.3896 0.04914 0.0
O7 O 0.03518 0.40862 0.03036 0.0
O8 O 0.02664 0.35733 0.02382 0.0
C9 C 0.02378 0.4054 0.04984 0.0
O10 O 0.99451 0.40406 0.9791 0.0
C11 C 0.04064 0.36325 0.00753 0.0
O12 O 0.01485 0.39461 0.96675 0.0
O13 O 0.04263 0.37591 0.99084 0.0
C14 C 0.62379 0.66352 0.02253 0.0
O15 O 0.606 0.65165 0.01911 0.0
Cd16 Cd 0.59473 0.61858 0.00706 0.0
O17 O 0.63598 0.65797 0.02157 0.0
Cd18 Cd 0.63724 0.62817 0.01549 0.0
C19 C 0.60448 0.60099 0.06306 0.0
O20 O 0.61688 0.61785 0.97467 0.0
O21 O 0.62659 0.59913 0.98897 0.0
O22 O 0.67001 0.65216 0.00256 0.0
C23 C 0.61749 0.6026 0.97138 0.0
O24 O 0.59172 0.60061 0.04768 0.0
C25 C 0.67796 0.64363 0.01279 0.0
O26 O 0.62226 0.61115 0.05724 0.0
O27 O 0.66702 0.62778 0.02425 0.0
C28 C 0.32053 0.95812 0.98861 0.0
O29 O 0.32701 0.94902 0.97558 0.0
Cd30 Cd 0.35977 0.96028 0.96468 0.0
O31 O 0.33157 0.9755 -0.00372 0.0
Cd32 Cd 0.36604 0.00209 0.99125 0.0
C33 C 0.38165 0.97688 0.02744 0.0
O34 O 0.36941 0.99085 0.94782 0.0
O35 O 0.39535 0.01545 0.96196 0.0
O36 O 0.35261 0.0229 0.98488 0.0
C37 C 0.38711 0.00246 0.94412 0.0
O38 O 0.3766 0.96527 0.00745 0.0
C39 C 0.36463 0.03648 -2e-05 0.0
O40 O 0.37866 0.99093 0.02752 0.0
O41 O 0.37729 0.03405 0.01138 0.0
C42 C 0.95983 0.62193 0.00217 0.0
O43 O 0.95022 0.60398 0.00632 0.0
Cd44 Cd 0.96431 0.58499 0.01731 0.0
O45 O 0.97815 0.63106 0.0035 0.0
Cd46 Cd 0.00479 0.62495 0.01372 0.0
C47 C 0.99343 0.59156 0.96332 0.0
O48 O 0.98781 0.6038 0.05125 0.0
O49 O 0.01606 0.60832 0.04315 0.0
O50 O 0.02163 0.65777 0.03183 0.0
C51 C 0.00099 0.6004 0.05746 0.0
O52 O 0.97806 0.58024 0.97589 0.0
C53 C 0.03708 0.66314 0.01877 0.0
O54 O 0.00491 0.6084 0.9723 0.0
O55 O 0.03758 0.6507 0.00355 0.0
C56 C 0.34 0.39461 0.00748 0.0
O57 O 0.35002 0.41131 -0.00221 0.0
Cd58 Cd 0.38409 0.42644 0.98947 0.0
O59 O 0.34772 0.38463 0.01274 0.0
Cd60 Cd 0.37943 0.38673 0.00925 0.0
C61 C 0.40173 0.42489 0.05181 0.0
O62 O 0.39043 0.40411 0.96672 0.0
O63 O 0.41157 0.40167 0.99019 0.0
O64 O 0.3653 0.35486 0.98973 0.0
C65 C 0.40743 0.40715 0.96872 0.0
O66 O 0.40085 0.4348 0.03269 0.0
C67 C 0.37053 0.34761 0.00799 0.0
O68 O 0.39374 0.4067 0.04964 0.0
O69 O 0.37957 0.35842 0.02795 0.0
C70 C 0.66954 0.04582 0.0087 0.0
O71 O 0.65887 0.05225 0.01654 0.0
Cd72 Cd 0.62561 0.03147 0.02968 0.0
O73 O 0.66276 0.02785 0.00591 0.0
Cd74 Cd 0.63203 0.99691 0.0098 0.0
C75 C 0.60528 0.00816 0.96982 0.0
O76 O 0.62224 0.00434 0.05349 0.0
O77 O 0.60237 0.97752 0.034 0.0
O78 O 0.65484 0.98632 0.01937 0.0
C79 C 0.60598 0.98891 0.0537 0.0
O80 O 0.60629 0.01906 0.98922 0.0
C81 C 0.64545 0.9702 0.00747 0.0
O82 O 0.61504 0.99974 0.97018 0.0
O83 O 0.62977 0.96637 -0.00378 0.0
C84 C 0.61154 0.66849 0.34603 0.0
O85 O 0.60485 0.67926 0.35209 0.0
Cd86 Cd 0.62406 0.7123 0.36469 0.0
O87 O 0.62966 0.67497 0.34651 0.0
Cd88 Cd 0.66082 0.70498 0.35794 0.0
C89 C 0.65463 0.73149 0.31011 0.0
O90 O 0.646 0.71146 0.39591 0.0
O91 O 0.67574 0.73253 0.39016 0.0
O92 O 0.66982 0.68097 0.36858 0.0
C93 C 0.66044 0.72712 0.40346 0.0
O94 O 0.64041 0.72971 0.32371 0.0
C95 C 0.68734 0.69123 0.36182 0.0
O96 O 0.66398 0.72352 0.31753 0.0
O97 O 0.6927 0.70799 0.3535 0.0
C98 C 0.29181 0.01276 0.34768 0.0
O99 O 0.27427 0.00577 0.34138 0.0
Cd100 Cd 0.25398 0.97298 0.32678 0.0
O101 O 0.29937 0.00226 0.34754 0.0
Cd102 Cd 0.28954 0.96833 0.33829 0.0
C103 C 0.25318 0.94849 0.38317 0.0
O104 O 0.27092 0.96326 0.29687 0.0
O105 O 0.2671 0.9379 0.31664 0.0
O106 O 0.32083 0.97994 0.31728 0.0
C107 C 0.26363 0.94519 0.29655 0.0
O108 O 0.24399 0.95237 0.36602 0.0
C109 C 0.32576 0.97015 0.33136 0.0
O110 O 0.27105 0.95452 0.38004 0.0
O111 O 0.31384 0.9594 0.34908 0.0
C112 C 0.9964 0.28794 0.32011 0.0
O113 O 0.00409 0.27958 0.30814 0.0
Cd114 Cd 0.03775 0.29441 0.29884 0.0
O115 O 0.00648 0.30559 0.32694 0.0
Cd116 Cd 0.04022 0.33307 0.32338 0.0
C117 C 0.05572 0.3099 0.36328 0.0
O118 O 0.04804 0.32496 0.27974 0.0
O119 O 0.07215 0.34658 0.30243 0.0
O120 O 0.02669 0.35266 0.31012 0.0
C121 C 0.06601 0.33658 0.28103 0.0
O122 O 0.05262 0.29885 0.34306 0.0
C123 C 0.03607 0.36617 0.32697 0.0
O124 O 0.05161 0.32317 0.36245 0.0
O125 O 0.04738 0.36427 0.34268 0.0
C126 C 0.61294 0.95766 0.33376 0.0
O127 O 0.60346 0.94069 0.34268 0.0
Cd128 Cd 0.61729 0.9213 0.35226 0.0
O129 O 0.63092 0.9654 0.3293 0.0
Cd130 Cd 0.65617 0.95662 0.33403 0.0
C131 C 0.63638 0.91876 0.29137 0.0
O132 O 0.64646 0.93994 0.37694 0.0
O133 O 0.66562 0.93471 0.35254 0.0
O134 O 0.67852 0.9864 0.3563 0.0
C135 C 0.65717 0.93274 0.37487 0.0
O136 O 0.62438 0.91021 0.31028 0.0
C137 C 0.6914 0.99279 0.33827 0.0
O138 O 0.64881 0.93661 0.29327 0.0
O139 O 0.68793 0.98248 0.31717 0.0
C140 C 0.99453 0.71232 0.34043 0.0
O141 O 0.00546 0.72944 0.33269 0.0
Cd142 Cd 0.03941 0.74398 0.32496 0.0
O143 O 0.00124 0.70126 0.3442 0.0
Cd144 Cd 0.03289 0.70302 0.33914 0.0
C145 C 0.05693 0.739 0.38486 0.0
O146 O 0.04426 0.72211 0.29755 0.0
O147 O 0.06467 0.71751 0.31904 0.0
O148 O 0.01767 0.66937 0.32357 0.0
C149 C 0.06097 0.72432 0.29865 0.0
O150 O 0.05637 0.75056 0.3682 0.0
C151 C 0.02587 0.66463 0.34114 0.0
O152 O 0.04847 0.72109 0.37983 0.0
O153 O 0.03667 0.6775 0.358 0.0
C154 C 0.33075 0.36602 0.34149 0.0
O155 O 0.32015 0.37323 0.34512 0.0
Cd156 Cd 0.28624 0.35367 0.35419 0.0
O157 O 0.32354 0.34789 0.34172 0.0
Cd158 Cd 0.29226 0.31759 0.34756 0.0
C159 C 0.2691 0.3256 0.29692 0.0
O160 O 0.28227 0.32978 0.38624 0.0
O161 O 0.26203 0.30126 0.37185 0.0
O162 O 0.31513 0.30838 0.36261 0.0
C163 C 0.26592 0.31468 0.38855 0.0
O164 O 0.27003 0.33901 0.31168 0.0
C165 C 0.30556 0.29116 0.35427 0.0
O166 O 0.27705 0.31621 0.3042 0.0
O167 O 0.28956 0.28589 0.34291 0.0
C168 C 0.29606 0.00412 0.68367 0.0
O169 O 0.28723 0.01266 0.69111 0.0
Cd170 Cd 0.30209 0.0447 0.7093 0.0
O171 O 0.3144 0.01278 0.6839 0.0
Cd172 Cd 0.34235 0.04524 0.6947 0.0
C173 C 0.32863 0.07032 0.65465 0.0
O174 O 0.32786 0.04776 0.736 0.0
O175 O 0.35517 0.07263 0.72704 0.0
O176 O 0.35879 0.02799 0.70608 0.0
C177 C 0.34081 0.06455 0.74267 0.0
O178 O 0.31546 0.06675 0.67177 0.0
C179 C 0.37428 0.03901 0.69364 0.0
O180 O 0.33923 0.06291 0.65674 0.0
O181 O 0.37502 0.05307 0.6814 0.0
C182 C 0.94527 0.32768 0.67421 0.0
O183 O 0.92827 0.31497 0.66756 0.0
Cd184 Cd 0.91963 0.28223 0.65814 0.0
O185 O 0.95849 0.32351 0.67518 0.0
Cd186 Cd 0.96316 0.2959 0.66592 0.0
C187 C 0.933 0.26873 0.71552 0.0
O188 O 0.94212 0.2823 0.62598 0.0
O189 O 0.9529 0.26533 0.64356 0.0
O190 O 0.99419 0.31957 0.64684 0.0
C191 C 0.94354 0.26738 0.62481 0.0
O192 O 0.91932 0.26664 0.70042 0.0
C193 C 0.00395 0.31371 0.65918 0.0
O194 O 0.95045 0.27973 0.70867 0.0
O195 O 0.9948 0.29965 0.67495 0.0
C196 C 0.67631 0.63837 0.68205 0.0
O197 O 0.68555 0.62991 0.67656 0.0
Cd198 Cd 0.71924 0.64583 0.66687 0.0
O199 O 0.68497 0.65666 0.68296 0.0
Cd200 Cd 0.71844 0.68422 0.67572 0.0
C201 C 0.74044 0.67256 0.72383 0.0
O202 O 0.72537 0.67086 0.63609 0.0
O203 O 0.74966 0.6963 0.65293 0.0
O204 O 0.7086 0.70374 0.65158 0.0
C205 C 0.7429 0.68385 0.63414 0.0
O206 O 0.73746 0.65847 0.70876 0.0
C207 C 0.71395 0.71687 0.66934 0.0
O208 O 0.73408 0.68349 0.71731 0.0
O209 O 0.72121 0.71481 0.69077 0.0
C210 C 0.28721 0.29156 0.67799 0.0
O211 O 0.2784 0.27361 0.68211 0.0
Cd212 Cd 0.29414 0.25701 0.69742 0.0
O213 O 0.30531 0.30176 0.68185 0.0
Cd214 Cd 0.33289 0.29869 0.69761 0.0
C215 C 0.32786 0.26653 0.64853 0.0
O216 O 0.31447 0.27665 0.73379 0.0
O217 O 0.34377 0.2833 0.73011 0.0
O218 O 0.34492 0.33176 0.71274 0.0
C219 C 0.32779 0.27414 0.74221 0.0
O220 O 0.31213 0.25422 0.65949 0.0
C221 C 0.36196 0.3383 0.70421 0.0
O222 O 0.33747 0.28362 0.65771 0.0
O223 O 0.36573 0.32633 0.69331 0.0
C224 C 0.67338 0.06405 0.67555 0.0
O225 O 0.68345 0.08184 0.67052 0.0
Cd226 Cd 0.71677 0.0984 0.65923 0.0
O227 O 0.68082 0.05339 0.67478 0.0
Cd228 Cd 0.71264 0.05652 0.66372 0.0
C229 C 0.73827 0.09016 0.71253 0.0
O230 O 0.71837 0.07757 0.62606 0.0
O231 O 0.74149 0.07244 0.63437 0.0
O232 O 0.69793 0.0249 0.64184 0.0
C233 C 0.73476 0.08036 0.61964 0.0
O234 O 0.73524 0.10207 0.70015 0.0
C235 C 0.70438 0.01765 0.65837 0.0
O236 O 0.73137 0.07305 0.70384 0.0
O237 O 0.7146 0.0284 0.67764 0.0
C238 C -0.00025 0.71141 0.66902 0.0
O239 O 0.98937 0.71819 0.67673 0.0
Cd240 Cd 0.95643 0.69828 0.69102 0.0
O241 O 0.99267 0.69334 0.66667 0.0
Cd242 Cd 0.96115 0.66295 0.67156 0.0
C243 C 0.9342 0.67429 0.63234 0.0
O244 O 0.95361 0.67179 0.71583 0.0
O245 O 0.93186 0.6454 0.69738 0.0
O246 O 0.98313 0.65095 0.67936 0.0
C247 C 0.937 0.65692 0.7172 0.0
O248 O 0.93593 0.68557 0.65161 0.0
C249 C 0.97204 0.63424 0.66998 0.0
O250 O 0.94367 0.66557 0.63235 0.0
O251 O 0.95598 0.63081 0.66065 0.0
H252 H 0.14804 0.30844 0.13498 0.0
H253 H 0.13948 0.31276 0.04997 0.0
H254 H 0.11293 0.33093 0.10908 0.0
H255 H 0.14907 0.28569 0.09436 0.0
H256 H 0.15665 0.29751 0.06286 0.0
H257 H 0.1702 0.29757 0.13454 0.0
H258 H 0.23035 0.33515 0.11978 0.0
H259 H 0.18936 0.32486 0.05727 0.0
C260 C 0.14231 0.3129 0.11877 0.0
C261 C 0.13026 0.32016 0.12501 0.0
C262 C 0.146 0.31038 0.09166 0.0
C263 C 0.13738 0.31527 0.07087 0.0
C264 C 0.12509 0.3223 0.07715 0.0
C265 C 0.1221 0.32512 0.10416 0.0
C266 C 0.15679 0.30011 0.08495 0.0
C267 C 0.17732 0.31069 0.09512 0.0
C268 C 0.18162 0.30741 0.12134 0.0
C269 C 0.20071 0.31661 0.13042 0.0
C270 C 0.21555 0.32853 0.11296 0.0
C271 C 0.21166 0.33124 0.08642 0.0
C272 C 0.19246 0.32284 0.0778 0.0
H273 H 0.68693 0.83019 0.14878 0.0
H274 H 0.67078 0.81234 0.06624 0.0
H275 H 0.65495 0.7703 0.12845 0.0
H276 H 0.70276 0.85273 0.11118 0.0
H277 H 0.69532 0.84526 0.07715 0.0
H278 H 0.67262 0.84938 0.14256 0.0
H279 H 0.65264 0.88387 0.10623 0.0
H280 H 0.68271 0.86312 0.05809 0.0
C281 C 0.67925 0.81893 0.1339 0.0
C282 C 0.6701 0.79969 0.14183 0.0
C283 C 0.67896 0.82366 0.10675 0.0
C284 C 0.67018 0.80882 0.08738 0.0
C285 C 0.66151 0.7895 0.09505 0.0
C286 C 0.661 0.78512 0.12242 0.0
C287 C 0.68993 0.84442 0.09806 0.0
C288 C 0.67795 0.85396 0.09972 0.0
C289 C 0.6705 0.85561 0.12468 0.0
C290 C 0.66144 0.86645 0.12707 0.0
C291 C 0.65936 0.87523 0.10425 0.0
C292 C 0.66691 0.87407 0.07934 0.0
C293 C 0.67629 0.86349 0.07714 0.0
H294 H 0.16819 0.81316 0.15416 0.0
H295 H 0.15984 0.802 0.06881 0.0
H296 H 0.11437 0.76769 0.12433 0.0
H297 H 0.19598 0.82256 0.12175 0.0
H298 H 0.19181 0.82145 0.08637 0.0
H299 H 0.18879 0.84487 0.15065 0.0
H300 H 0.2067 0.89872 0.11245 0.0
H301 H 0.19994 0.85052 0.06599 0.0
C302 C 0.15891 0.8055 0.13728 0.0
C303 C 0.13999 0.79073 0.14215 0.0
C304 C 0.16613 0.80988 0.11084 0.0
C305 C 0.15419 0.79904 0.08914 0.0
C306 C 0.13537 0.78381 0.09378 0.0
C307 C 0.12843 0.78002 0.12032 0.0
C308 C 0.18716 0.82433 0.10614 0.0
C309 C 0.1915 0.84486 0.10757 0.0
C310 C 0.19173 0.85325 0.13261 0.0
C311 C 0.19756 0.8728 0.13476 0.0
C312 C 0.20268 0.88377 0.1112 0.0
C313 C 0.2047 0.87628 0.08656 0.0
C314 C 0.19826 0.85655 0.08468 0.0
H315 H 0.3512 0.1929 0.88157 0.0
H316 H 0.36968 0.21851 0.9603 0.0
H317 H 0.32797 0.22533 0.91573 0.0
H318 H 0.38403 0.20093 0.90698 0.0
H319 H 0.38291 0.20049 0.94278 0.0
H320 H 0.36011 0.17151 0.87955 0.0
H321 H 0.34182 0.11805 0.91768 0.0
H322 H 0.36819 0.17008 0.96525 0.0
C323 C 0.34961 0.20014 0.89889 0.0
C324 C 0.33793 0.20821 0.89649 0.0
C325 C 0.36009 0.20255 0.92273 0.0
C326 C 0.36008 0.21483 0.94321 0.0
C327 C 0.34911 0.22379 0.94031 0.0
C328 C 0.33682 0.21888 0.91797 0.0
C329 C 0.37391 0.19504 0.92426 0.0
C330 C 0.364 0.17331 0.92294 0.0
C331 C 0.35775 0.16361 0.89797 0.0
C332 C 0.34891 0.14362 0.89649 0.0
C333 C 0.3474 0.13334 0.91968 0.0
C334 C 0.35466 0.14266 0.94452 0.0
C335 C 0.36253 0.16269 0.94619 0.0
H336 H 0.86687 0.173 0.87944 0.0
H337 H 0.86369 0.19384 0.95871 0.0
H338 H 0.90099 0.23287 0.89829 0.0
H339 H 0.85492 0.15131 0.92017 0.0
H340 H 0.85079 0.15993 0.95122 0.0
H341 H 0.8348 0.15308 0.87782 0.0
H342 H 0.77513 0.124 0.89867 0.0
H343 H 0.81799 0.14663 0.96125 0.0
C344 C 0.87067 0.18469 0.89352 0.0
C345 C 0.88416 0.20341 0.8858 0.0
C346 C 0.86282 0.18107 0.91973 0.0
C347 C 0.86909 0.1965 0.93823 0.0
C348 C 0.88326 0.21515 0.93077 0.0
C349 C 0.89034 0.21845 0.90438 0.0
C350 C 0.84979 0.16062 0.92894 0.0
C351 C 0.82898 0.1523 0.92051 0.0
C352 C 0.82385 0.14891 0.89309 0.0
C353 C 0.80448 0.13907 0.88517 0.0
C354 C 0.79007 0.13256 0.90482 0.0
C355 C 0.79479 0.13494 0.93232 0.0
C356 C 0.81428 0.14512 0.94004 0.0
H357 H 0.83631 0.64445 0.86917 0.0
H358 H 0.85026 0.64987 0.95364 0.0
H359 H 0.89429 0.66441 0.89444 0.0
H360 H 0.81129 0.62667 0.90437 0.0
H361 H 0.81715 0.6319 0.93923 0.0
H362 H 0.8166 0.65643 0.87456 0.0
H363 H 0.78884 0.6836 0.91264 0.0
H364 H 0.8052 0.65006 0.95987 0.0
C365 C 0.84692 0.64906 0.88508 0.0
C366 C 0.86619 0.65555 0.87842 0.0
C367 C 0.84109 0.64752 0.91215 0.0
C368 C 0.85475 0.65209 0.93273 0.0
C369 C 0.87401 0.65844 0.9263 0.0
C370 C 0.87965 0.66057 0.89924 0.0
C371 C 0.81997 0.63851 0.91894 0.0
C372 C 0.813 0.65267 0.91769 0.0
C373 C 0.81179 0.66015 0.89275 0.0
C374 C 0.80344 0.67165 0.89089 0.0
C375 C 0.79637 0.67574 0.91426 0.0
C376 C 0.79681 0.66792 0.93913 0.0
C377 C 0.80533 0.65655 0.94083 0.0
H378 H 0.81225 0.65426 0.4753 0.0
H379 H 0.7941 0.64878 0.39233 0.0
H380 H 0.77828 0.67811 0.45026 0.0
H381 H 0.80474 0.6247 0.43834 0.0
H382 H 0.81123 0.63357 0.40509 0.0
H383 H 0.82867 0.63854 0.47615 0.0
H384 H 0.88791 0.66542 0.45268 0.0
H385 H 0.84489 0.65501 0.39351 0.0
C386 C 0.80574 0.6578 0.4591 0.0
C387 C 0.79591 0.66745 0.46539 0.0
C388 C 0.80562 0.6513 0.43257 0.0
C389 C 0.79529 0.6546 0.41247 0.0
C390 C 0.78566 0.66457 0.41866 0.0
C391 C 0.7864 0.6712 0.44503 0.0
C392 C 0.81341 0.63807 0.42667 0.0
C393 C 0.8344 0.64648 0.43417 0.0
C394 C 0.83963 0.64525 0.46083 0.0
C395 C 0.85895 0.65223 0.46772 0.0
C396 C 0.87292 0.65971 0.44749 0.0
C397 C 0.86798 0.66046 0.42069 0.0
C398 C 0.84877 0.65436 0.4142 0.0
H399 H 0.37004 0.17298 0.4989 0.0
H400 H 0.36449 0.16085 0.41352 0.0
H401 H 0.33994 0.11468 0.47024 0.0
H402 H 0.39249 0.1974 0.46345 0.0
H403 H 0.3851 0.19331 0.42896 0.0
H404 H 0.37347 0.20341 0.4981 0.0
H405 H 0.33948 0.22633 0.46869 0.0
H406 H 0.3611 0.20055 0.41324 0.0
C407 C 0.3645 0.16281 0.48228 0.0
C408 C 0.35441 0.1431 0.48768 0.0
C409 C 0.36804 0.1694 0.45557 0.0
C410 C 0.36153 0.15598 0.43418 0.0
C411 C 0.35132 0.13623 0.43947 0.0
C412 C 0.34772 0.12995 0.46618 0.0
C413 C 0.37965 0.19066 0.45004 0.0
C414 C 0.36795 0.20016 0.45521 0.0
C415 C 0.36624 0.20575 0.48153 0.0
C416 C 0.3556 0.21477 0.4865 0.0
C417 C 0.34681 0.21842 0.46495 0.0
C418 C 0.34901 0.2137 0.43841 0.0
C419 C 0.35931 0.20422 0.43369 0.0
H420 H 0.83444 0.14613 0.46657 0.0
H421 H 0.82579 0.1173 0.38991 0.0
H422 H 0.77747 0.10951 0.43691 0.0
H423 H 0.85853 0.13464 0.43796 0.0
H424 H 0.85785 0.13941 0.40328 0.0
H425 H 0.86732 0.15993 0.47272 0.0
H426 H 0.89897 0.21815 0.44547 0.0
H427 H 0.86902 0.17216 0.38819 0.0
C428 C 0.82513 0.1374 0.45033 0.0
C429 C 0.80523 0.12865 0.45386 0.0
C430 C 0.8328 0.13422 0.42661 0.0
C431 C 0.82007 0.12107 0.40715 0.0
C432 C 0.80003 0.11165 0.41103 0.0
C433 C 0.79287 0.11647 0.43374 0.0
C434 C 0.85428 0.14238 0.42377 0.0
C435 C 0.86613 0.16369 0.42991 0.0
C436 C 0.87172 0.17024 0.45659 0.0
C437 C 0.88305 0.18993 0.46251 0.0
C438 C 0.88921 0.20304 0.4413 0.0
C439 C 0.88443 0.19678 0.41449 0.0
C440 C 0.87261 0.17709 0.4089 0.0
H441 H 0.03019 0.52885 0.20474 0.0
H442 H 0.03698 0.54202 0.28967 0.0
H443 H 0.006 0.56026 0.23918 0.0
H444 H 0.06083 0.53565 0.23542 0.0
H445 H 0.05585 0.5307 0.27021 0.0
H446 H 0.04341 0.51003 0.2006 0.0
H447 H 0.02661 0.45357 0.22738 0.0
H448 H 0.03779 0.49788 0.2855 0.0
C449 C 0.02701 0.53453 0.22254 0.0
C450 C 0.01592 0.54325 0.21992 0.0
C451 C 0.03454 0.53388 0.24779 0.0
C452 C 0.03096 0.54233 0.27036 0.0
C453 C 0.02083 0.55219 0.26774 0.0
C454 C 0.01309 0.55213 0.24236 0.0
C455 C 0.04899 0.52727 0.24993 0.0
C456 C 0.04065 0.50615 0.24371 0.0
C457 C 0.03933 0.49987 0.21684 0.0
C458 C 0.03364 0.48073 0.21084 0.0
C459 C 0.02957 0.46794 0.23204 0.0
C460 C 0.03108 0.47387 0.25907 0.0
C461 C 0.03628 0.493 0.26475 0.0
H462 H 0.53082 0.49715 0.21913 0.0
H463 H 0.52389 0.51736 0.29691 0.0
H464 H 0.56045 0.55743 0.23689 0.0
H465 H 0.51748 0.47507 0.25784 0.0
H466 H 0.51454 0.4836 0.28989 0.0
H467 H 0.49647 0.48226 0.21839 0.0
H468 H 0.43735 0.4496 0.24207 0.0
H469 H 0.48173 0.46575 0.30136 0.0
C470 C 0.53377 0.5088 0.23295 0.0
C471 C 0.54614 0.52776 0.22504 0.0
C472 C 0.52531 0.50488 0.25876 0.0
C473 C 0.5299 0.52024 0.27677 0.0
C474 C 0.543 0.53921 0.26918 0.0
C475 C 0.55067 0.54279 0.24313 0.0
C476 C 0.51274 0.48434 0.26779 0.0
C477 C 0.49168 0.47617 0.26103 0.0
C478 C 0.48587 0.47588 0.2342 0.0
C479 C 0.4663 0.46627 0.22734 0.0
C480 C 0.45247 0.45727 0.24749 0.0
C481 C 0.45787 0.45699 0.27418 0.0
C482 C 0.47751 0.46641 0.28088 0.0
H483 H 0.49242 0.9685 0.18837 0.0
H484 H 0.50235 0.97778 0.27373 0.0
H485 H 0.54997 0.99757 0.21942 0.0
H486 H 0.46862 0.94641 0.22406 0.0
H487 H 0.47139 0.95461 0.25796 0.0
H488 H 0.46357 0.96614 0.18735 0.0
H489 H 0.42035 0.97844 0.2135 0.0
H490 H 0.45434 0.96981 0.27202 0.0
C491 C 0.50222 0.97514 0.20511 0.0
C492 C 0.52215 0.98434 0.20045 0.0
C493 C 0.49487 0.97306 0.23144 0.0
C494 C 0.50781 0.98038 0.25327 0.0
C495 C 0.52773 0.98941 0.24897 0.0
C496 C 0.53472 0.99181 0.22253 0.0
C497 C 0.47365 0.95955 0.23671 0.0
C498 C 0.46103 0.96787 0.23039 0.0
C499 C 0.45655 0.96929 0.20349 0.0
C500 C 0.44217 0.97353 0.19723 0.0
C501 C 0.43235 0.97653 0.21831 0.0
C502 C 0.43655 0.97525 0.24541 0.0
C503 C 0.45121 0.97125 0.25125 0.0
H504 H 0.47892 0.97938 0.80851 0.0
H505 H 0.48002 0.99637 0.72613 0.0
H506 H 0.4542 0.01345 0.78779 0.0
H507 H 0.48217 0.9614 0.76744 0.0
H508 H 0.48934 0.97336 0.73592 0.0
H509 H 0.5047 0.97513 0.80799 0.0
H510 H 0.56471 0.00499 0.78798 0.0
H511 H 0.52293 0.99512 0.72705 0.0
C512 C 0.47663 0.98776 0.79375 0.0
C513 C 0.46698 0.99736 0.80153 0.0
C514 C 0.48218 0.98797 0.76672 0.0
C515 C 0.47717 0.9973 0.74728 0.0
C516 C 0.46696 0.00638 0.75494 0.0
C517 C 0.46269 0.00702 0.78214 0.0
C518 C 0.49063 0.97579 0.75812 0.0
C519 C 0.51141 0.98448 0.76667 0.0
C520 C 0.51603 0.98261 0.79339 0.0
C521 C 0.53524 0.99002 0.80127 0.0
C522 C 0.5498 0.99883 0.78197 0.0
C523 C 0.5455 0.00055 0.75519 0.0
C524 C 0.52631 0.99374 0.74772 0.0
H525 H 0.02704 0.49865 0.79882 0.0
H526 H -0.00091 0.47672 0.72195 0.0
H527 H 0.99209 0.43802 0.78551 0.0
H528 H 0.03785 0.5187 0.75705 0.0
H529 H 0.02421 0.51004 0.72664 0.0
H530 H 0.01803 0.52129 0.79945 0.0
H531 H 0.99195 0.55372 0.77644 0.0
H532 H 0.00756 0.52591 0.71559 0.0
C533 C 0.01726 0.48678 0.78598 0.0
C534 C 0.00915 0.46801 0.79552 0.0
C535 C 0.01312 0.49016 0.75972 0.0
C536 C 0.00153 0.47437 0.74265 0.0
C537 C 0.99432 0.45555 0.75176 0.0
C538 C 0.99767 0.45255 0.77842 0.0
C539 C 0.02294 0.5104 0.74894 0.0
C540 C 0.01266 0.52105 0.75673 0.0
C541 C 0.0119 0.52581 0.78388 0.0
C542 C 0.0041 0.53726 0.79107 0.0
C543 C 0.99702 0.54404 0.77094 0.0
C544 C 0.99849 0.54027 0.74365 0.0
C545 C 0.00607 0.52853 0.73667 0.0
H546 H 0.50983 0.48201 0.8122 0.0
H547 H 0.49373 0.47051 0.72838 0.0
H548 H 0.45065 0.44741 0.78998 0.0
H549 H 0.53203 0.48114 0.77153 0.0
H550 H 0.52695 0.487 0.73938 0.0
H551 H 0.53929 0.50427 0.81138 0.0
H552 H 0.57093 0.56339 0.78931 0.0
H553 H 0.54088 0.52014 0.72852 0.0
C554 C 0.49903 0.47622 0.79667 0.0
C555 C 0.47967 0.46524 0.8044 0.0
C556 C 0.5044 0.47883 0.76928 0.0
C557 C 0.48991 0.46967 0.74949 0.0
C558 C 0.4705 0.45865 0.75706 0.0
C559 C 0.46556 0.45681 0.78436 0.0
C560 C 0.5255 0.48866 0.7614 0.0
C561 C 0.53706 0.50974 0.76942 0.0
C562 C 0.54298 0.51513 0.79635 0.0
C563 C 0.55456 0.5345 0.8039 0.0
C564 C 0.56088 0.54854 0.78398 0.0
C565 C 0.55635 0.54346 0.75679 0.0
C566 C 0.54409 0.52409 0.7496 0.0
H567 H 0.69448 0.8715 0.52781 0.0
H568 H 0.7031 0.88878 0.61054 0.0
H569 H 0.66163 0.89416 0.56333 0.0
H570 H 0.72075 0.87248 0.55677 0.0
H571 H 0.71894 0.87303 0.59263 0.0
H572 H 0.68909 0.84273 0.53205 0.0
H573 H 0.67331 0.78995 0.57025 0.0
H574 H 0.71069 0.84315 0.61158 0.0
C575 C 0.68964 0.87582 0.54538 0.0
C576 C 0.67678 0.88249 0.54226 0.0
C577 C 0.69736 0.87591 0.57078 0.0
C578 C 0.69495 0.88619 0.59213 0.0
C579 C 0.68333 0.89441 0.58863 0.0
C580 C 0.67231 0.8899 0.56497 0.0
C581 C 0.71035 0.86754 0.57376 0.0
C582 C 0.69931 0.8457 0.57333 0.0
C583 C 0.68906 0.83541 0.55006 0.0
C584 C 0.67932 0.81536 0.54932 0.0
C585 C 0.6804 0.80548 0.5714 0.0
C586 C 0.69258 0.81533 0.59319 0.0
C587 C 0.70132 0.83544 0.59474 0.0
H588 H 0.18652 0.84536 0.53821 0.0
H589 H 0.1985 0.85631 0.62331 0.0
H590 H 0.2218 0.90298 0.56749 0.0
H591 H 0.18621 0.82032 0.57418 0.0
H592 H 0.18147 0.82398 0.60808 0.0
H593 H 0.16258 0.81441 0.5374 0.0
H594 H 0.10381 0.7877 0.56236 0.0
H595 H 0.149 0.81438 0.62144 0.0
C596 C 0.1927 0.85522 0.55503 0.0
C597 C 0.20411 0.87492 0.54987 0.0
C598 C 0.19022 0.84828 0.58157 0.0
C599 C 0.19963 0.86142 0.6029 0.0
C600 C 0.21092 0.88115 0.59783 0.0
C601 C 0.21287 0.88774 0.57141 0.0
C602 C 0.1796 0.82689 0.58678 0.0
C603 C 0.15837 0.81704 0.57996 0.0
C604 C 0.15219 0.81159 0.55317 0.0
C605 C 0.13256 0.80152 0.54675 0.0
C606 C 0.11897 0.79657 0.56727 0.0
C607 C 0.12472 0.8007 0.59431 0.0
C608 C 0.14447 0.81137 0.60055 0.0
H609 H 0.16237 0.30701 0.53204 0.0
H610 H 0.17496 0.31172 0.61695 0.0
H611 H 0.2201 0.32818 0.55913 0.0
H612 H 0.13826 0.28443 0.57162 0.0
H613 H 0.14246 0.29598 0.60356 0.0
H614 H 0.13197 0.29876 0.53084 0.0
H615 H 0.10184 0.32847 0.54876 0.0
H616 H 0.13209 0.31866 0.61163 0.0
C617 C 0.17261 0.31168 0.54834 0.0
C618 C 0.19205 0.31857 0.54223 0.0
C619 C 0.16623 0.30952 0.57524 0.0
C620 C 0.17973 0.31439 0.59617 0.0
C621 C 0.19922 0.3215 0.59032 0.0
C622 C 0.20528 0.32392 0.56344 0.0
C623 C 0.14489 0.29879 0.58157 0.0
C624 C 0.1344 0.30872 0.57191 0.0
C625 C 0.12843 0.3068 0.54486 0.0
C626 C 0.11712 0.31435 0.53606 0.0
C627 C 0.1116 0.3237 0.55484 0.0
C628 C 0.11682 0.32521 0.58206 0.0
C629 C 0.12846 0.31794 0.59048 0.0
H630 H 0.00227 0.40211 0.09451 0.0
H631 H 0.05468 0.44195 0.05253 0.0
H632 H 0.06147 0.46671 0.08723 0.0
H633 H 0.98932 0.43705 0.11683 0.0
H634 H 0.98059 0.42582 0.14904 0.0
H635 H 0.97927 0.41155 0.12012 0.0
H636 H 0.99833 0.39886 0.14603 0.0
H637 H -0.00042 0.41298 0.17504 0.0
H638 H 0.02135 0.41573 0.16061 0.0
H639 H 0.06325 0.48666 0.12753 0.0
H640 H 0.06087 0.49954 0.1718 0.0
H641 H 0.00706 0.44684 0.18695 0.0
C642 C 0.01512 0.41608 0.09252 0.0
C643 C 0.02793 0.42013 0.07079 0.0
C644 C 0.04466 0.43853 0.06902 0.0
C645 C 0.04859 0.45272 0.08855 0.0
C646 C 0.03564 0.44828 0.10968 0.0
C647 C 0.01929 0.43037 0.11185 0.0
C648 C 0.00818 0.42896 0.13721 0.0
C649 C 0.98816 0.42565 0.13038 0.0
C650 C 0.00679 0.41321 0.15581 0.0
C651 C 0.02101 0.44876 0.14918 0.0
C652 C 0.03667 0.45976 0.13288 0.0
C653 C 0.05094 0.47826 0.14034 0.0
C654 C 0.04939 0.48552 0.16543 0.0
C655 C 0.03374 0.47424 0.18278 0.0
C656 C 0.0192 0.4558 0.17414 0.0
H657 H 0.56968 0.5846 0.0888 0.0
H658 H 0.62558 0.58913 0.09135 0.0
H659 H 0.61487 0.56699 0.12991 0.0
H660 H 0.56412 0.58524 0.15963 0.0
H661 H 0.53852 0.56876 0.15891 0.0
H662 H 0.55025 0.5837 0.13032 0.0
H663 H 0.53619 0.55336 0.0997 0.0
H664 H 0.5247 0.53831 0.12838 0.0
H665 H 0.54084 0.53441 0.1077 0.0
H666 H 0.59848 0.5453 0.16922 0.0
H667 H 0.57902 0.52904 0.20961 0.0
H668 H 0.53431 0.5393 0.18192 0.0
C669 C 0.57963 0.58084 0.09735 0.0
C670 C 0.59843 0.58851 0.08699 0.0
C671 C 0.61112 0.58346 0.09901 0.0
C672 C 0.60511 0.57076 0.12074 0.0
C673 C 0.58641 0.5633 0.13028 0.0
C674 C 0.57395 0.56836 0.1192 0.0
C675 C 0.55515 0.55957 0.1345 0.0
C676 C 0.55183 0.57525 0.14656 0.0
C677 C 0.53822 0.54558 0.11649 0.0
C678 C 0.55908 0.549 0.1562 0.0
C679 C 0.57705 0.55103 0.15314 0.0
C680 C 0.58428 0.5434 0.17162 0.0
C681 C 0.57313 0.53406 0.19431 0.0
C682 C 0.55508 0.53258 0.19824 0.0
C683 C 0.54782 0.53978 0.17873 0.0
H684 H 0.39447 0.99802 0.07471 0.0
H685 H 0.39136 0.94925 0.03232 0.0
H686 H 0.40814 0.94443 0.06992 0.0
H687 H 0.44179 0.01585 0.10411 0.0
H688 H 0.43569 0.0227 0.13562 0.0
H689 H 0.42388 0.02286 0.10497 0.0
H690 H 0.39067 0.00023 0.12654 0.0
H691 H 0.40237 6e-05 0.15727 0.0
H692 H 0.38592 0.97776 0.14054 0.0
H693 H 0.42423 0.94404 0.11237 0.0
H694 H 0.43765 0.94747 0.15792 0.0
H695 H 0.43128 0.99695 0.17276 0.0
C696 C 0.39735 0.98636 0.07329 0.0
C697 C 0.39157 0.97404 0.05047 0.0
C698 C 0.3956 0.95891 0.04952 0.0
C699 C 0.4052 0.95606 0.07076 0.0
C700 C 0.41074 0.96846 0.09286 0.0
C701 C 0.40694 0.98328 0.09437 0.0
C702 C 0.41402 0.99418 0.12084 0.0
C703 C 0.42979 0.01514 0.11609 0.0
C704 C 0.39725 0.99298 0.13726 0.0
C705 C 0.42215 0.983 0.13402 0.0
C706 C 0.42021 0.96831 0.11744 0.0
C707 C 0.42605 0.95562 0.12546 0.0
C708 C 0.43382 0.95781 0.15133 0.0
C709 C 0.43574 0.97261 0.16891 0.0
C710 C 0.43001 0.98548 0.15986 0.0
H711 H 0.42144 0.02771 0.92004 0.0
H712 H 0.37767 0.96739 0.92346 0.0
H713 H 0.39687 0.95946 0.89326 0.0
H714 H 0.429 0.02652 0.84963 0.0
H715 H 0.45439 0.04383 0.85106 0.0
H716 H 0.43853 0.04448 0.87603 0.0
H717 H 0.45946 0.04219 0.91366 0.0
H718 H 0.47518 0.04116 0.88867 0.0
H719 H 0.46384 0.02246 0.91332 0.0
H720 H 0.42009 0.95783 0.86206 0.0
H721 H 0.4423 0.96323 0.82441 0.0
H722 H 0.46966 0.02467 0.83722 0.0
C723 C 0.41607 0.01283 0.91463 0.0
C724 C 0.39828 0.99812 0.92463 0.0
C725 C 0.39138 0.97888 0.91648 0.0
C726 C 0.40226 0.97419 0.89944 0.0
C727 C 0.41985 0.98895 0.8902 0.0
C728 C 0.42649 0.00794 0.89689 0.0
C729 C 0.44457 0.02119 0.88129 0.0
C730 C 0.44143 0.0348 0.86344 0.0
C731 C 0.46178 0.03241 0.90038 0.0
C732 C 0.44681 0.00666 0.86453 0.0
C733 C 0.43272 0.98813 0.87065 0.0
C734 C 0.4313 0.97226 0.85718 0.0
C735 C 0.44407 0.97544 0.83601 0.0
C736 C 0.45777 0.99433 0.82824 0.0
C737 C 0.4595 0.01009 0.84317 0.0
H738 H 0.98248 0.41231 0.93404 0.0
H739 H 0.0402 0.42127 0.93456 0.0
H740 H 0.04834 0.44195 0.89454 0.0
H741 H 0.97706 0.40798 0.86259 0.0
H742 H 0.96303 0.41956 0.86103 0.0
H743 H 0.96244 0.40684 0.89087 0.0
H744 H 0.9726 0.43753 0.91954 0.0
H745 H 0.9735 0.45041 0.88966 0.0
H746 H 0.99433 0.4595 0.91118 0.0
H747 H 0.05011 0.46158 0.85434 0.0
H748 H 0.04386 0.47458 0.81307 0.0
H749 H 0.98452 0.45103 0.83727 0.0
C750 C 0.99686 0.41874 0.9258 0.0
C751 C 0.01077 0.41535 0.93743 0.0
C752 C 0.02933 0.42368 0.92585 0.0
C753 C 0.03413 0.43557 0.90331 0.0
C754 C 0.02013 0.43877 0.89243 0.0
C755 C 0.00176 0.4303 0.90299 0.0
C756 C 0.98889 0.4347 0.8862 0.0
C757 C 0.97186 0.41617 0.87447 0.0
C758 C 0.98193 0.44622 0.90263 0.0
C759 C 0.00283 0.44684 0.86442 0.0
C760 C 0.0209 0.44938 0.86867 0.0
C761 C 0.03605 0.45977 0.85087 0.0
C762 C 0.03245 0.46721 0.82765 0.0
C763 C 0.01383 0.46395 0.82241 0.0
C764 C -0.00105 0.45393 0.84121 0.0
H765 H 0.59709 0.60618 0.92984 0.0
H766 H 0.61569 0.56849 0.96175 0.0
H767 H 0.5995 0.54581 0.92412 0.0
H768 H 0.55018 0.56841 0.90543 0.0
H769 H 0.55109 0.58135 0.8756 0.0
H770 H 0.5633 0.59427 0.90585 0.0
H771 H 0.59529 0.61268 0.87939 0.0
H772 H 0.58317 0.59987 0.84909 0.0
H773 H 0.604 0.59936 0.86082 0.0
H774 H 0.58281 0.52801 0.88207 0.0
H775 H 0.56759 0.51679 0.83749 0.0
H776 H 0.55895 0.56546 0.83326 0.0
C777 C 0.59765 0.5931 0.92899 0.0
C778 C 0.60763 0.5891 0.94875 0.0
C779 C 0.60812 0.57187 0.94685 0.0
C780 C 0.59892 0.55885 0.9256 0.0
C781 C 0.58922 0.56322 0.90645 0.0
C782 C 0.58852 0.57992 0.90788 0.0
C783 C 0.57775 0.58148 0.88405 0.0
C784 C 0.55949 0.58137 0.8933 0.0
C785 C 0.59084 0.59941 0.86735 0.0
C786 C 0.57282 0.56323 0.8688 0.0
C787 C 0.57943 0.55283 0.88219 0.0
C788 C 0.57733 0.53588 0.87153 0.0
C789 C 0.56851 0.52954 0.84626 0.0
C790 C 0.56189 0.54013 0.83192 0.0
C791 C 0.56386 0.55704 0.84368 0.0
H792 H 0.96922 0.56689 0.92436 0.0
H793 H 0.02937 0.60096 0.94705 0.0
H794 H 0.03829 0.58874 0.90706 0.0
H795 H 0.97007 0.52585 0.89659 0.0
H796 H 0.95421 0.52251 0.86893 0.0
H797 H 0.95232 0.53295 0.9002 0.0
H798 H 0.95684 0.56275 0.87469 0.0
H799 H 0.95858 0.55232 0.84335 0.0
H800 H 0.97758 0.57588 0.8534 0.0
H801 H 0.04062 0.57237 0.86528 0.0
H802 H 0.03673 0.55649 0.82099 0.0
H803 H 0.97543 0.53505 0.82339 0.0
C804 C 0.98424 0.57167 0.92092 0.0
C805 C 0.99862 0.58473 0.93882 0.0
C806 C 0.01816 0.59097 0.9335 0.0
C807 C 0.02335 0.58401 0.91097 0.0
C808 C 0.00883 0.57107 0.89375 0.0
C809 C 0.98971 0.56523 0.89815 0.0
C810 C 0.97711 0.5523 0.87547 0.0
C811 C 0.96257 0.53221 0.88593 0.0
C812 C 0.96693 0.56136 0.86087 0.0
C813 C 0.99213 0.55178 0.85768 0.0
C814 C 0.01029 0.56242 0.86887 0.0
C815 C 0.02649 0.56403 0.85629 0.0
C816 C 0.02414 0.55487 0.83128 0.0
C817 C 0.00579 0.54452 0.819 0.0
C818 C 0.98959 0.54284 0.83249 0.0
H819 H 0.40422 0.425 0.92409 0.0
H820 H 0.44375 0.4128 0.96624 0.0
H821 H 0.4681 0.42956 0.93091 0.0
H822 H 0.4156 0.41739 0.8586 0.0
H823 H 0.41368 0.43652 0.84357 0.0
H824 H 0.39999 0.4249 0.87325 0.0
H825 H 0.41495 0.45783 0.89787 0.0
H826 H 0.42877 0.46955 0.86823 0.0
H827 H 0.44075 0.47278 0.9001 0.0
H828 H 0.48688 0.44491 0.8891 0.0
H829 H 0.49854 0.4573 0.84361 0.0
H830 H 0.44767 0.46145 0.82997 0.0
C831 C 0.41806 0.42601 0.92601 0.0
C832 C 0.4221 0.4176 0.94788 0.0
C833 C 0.44036 0.41918 0.94967 0.0
C834 C 0.45431 0.42873 0.92976 0.0
C835 C 0.44984 0.4368 0.90839 0.0
C836 C 0.4322 0.43563 0.90645 0.0
C837 C 0.4307 0.44475 0.88081 0.0
C838 C 0.41401 0.43001 0.86302 0.0
C839 C 0.42868 0.46227 0.88714 0.0
C840 C 0.45002 0.45068 0.86825 0.0
C841 C 0.46091 0.44613 0.88457 0.0
C842 C 0.47866 0.44892 0.87635 0.0
C843 C 0.48525 0.45614 0.8505 0.0
C844 C 0.47412 0.46053 0.83316 0.0
C845 C 0.45653 0.45822 0.84263 0.0
H846 H 0.6043 0.99383 0.91863 0.0
H847 H 0.57522 0.0144 0.97095 0.0
H848 H 0.55208 0.00866 0.93483 0.0
H849 H 0.6006 0.01589 0.85946 0.0
H850 H 0.59675 0.99659 0.83702 0.0
H851 H 0.6101 0.00066 0.86776 0.0
H852 H 0.58669 0.96551 0.88181 0.0
H853 H 0.57319 0.96138 0.85113 0.0
H854 H 0.56123 0.95674 0.88326 0.0
H855 H 0.53296 0.00226 0.89284 0.0
H856 H 0.52084 0.9981 0.84619 0.0
H857 H 0.56211 0.98183 0.82061 0.0
C858 C 0.59294 0.99693 0.92253 0.0
C859 C 0.59158 0.00454 0.94765 0.0
C860 C 0.57665 0.00865 0.95185 0.0
C861 C 0.56331 0.0053 0.93153 0.0
C862 C 0.56506 0.99787 0.90701 0.0
C863 C 0.57956 0.99385 0.90229 0.0
C864 C 0.57895 0.98725 0.87343 0.0
C865 C 0.59771 0.00092 0.85855 0.0
C866 C 0.57476 0.96648 0.87236 0.0
C867 C 0.56212 0.98858 0.86265 0.0
C868 C 0.55413 0.99444 0.88248 0.0
C869 C 0.53895 0.99748 0.87715 0.0
C870 C 0.53207 0.99496 0.85064 0.0
C871 C 0.5405 0.98963 0.82979 0.0
C872 C 0.55542 0.98598 0.83612 0.0
H873 H 0.60638 0.0132 0.09356 0.0
H874 H 0.57109 0.95633 0.0585 0.0
H875 H 0.54473 0.9503 0.08942 0.0
H876 H 0.59096 0.99986 0.16173 0.0
H877 H 0.59112 0.02167 0.16999 0.0
H878 H 0.60707 0.02178 0.14446 0.0
H879 H 0.59318 0.03567 0.11039 0.0
H880 H 0.57701 0.03538 0.13577 0.0
H881 H 0.56764 0.0231 0.10405 0.0
H882 H 0.52262 0.94978 0.12486 0.0
H883 H 0.507 0.95396 0.16485 0.0
H884 H 0.55571 0.01165 0.1762 0.0
C885 C 0.59312 0.99948 0.09246 0.0
C886 C 0.59081 0.98525 0.07358 0.0
C887 C 0.57321 0.96748 0.07275 0.0
C888 C 0.55809 0.96393 0.09015 0.0
C889 C 0.56071 0.9783 0.10824 0.0
C890 C 0.57779 0.99568 0.10968 0.0
C891 C 0.57696 0.00841 0.13165 0.0
C892 C 0.59244 0.0132 0.15324 0.0
C893 C 0.5788 0.02672 0.11975 0.0
C894 C 0.55691 0.99529 0.14258 0.0
C895 C 0.54774 0.97808 0.1286 0.0
C896 C 0.52952 0.96329 0.13578 0.0
C897 C 0.52065 0.96591 0.15843 0.0
C898 C 0.52998 0.98321 0.17367 0.0
C899 C 0.54815 0.99825 0.16503 0.0
H900 H 0.02863 0.59476 0.08026 0.0
H901 H 0.96835 0.57765 0.08616 0.0
H902 H 0.96477 0.55742 0.12513 0.0
H903 H 0.02336 0.54858 0.10136 0.0
H904 H 0.04547 0.56017 0.12037 0.0
H905 H 0.0429 0.5716 0.09099 0.0
H906 H 0.05143 0.60193 0.11952 0.0
H907 H 0.05416 0.59067 0.14885 0.0
H908 H 0.03776 0.59959 0.14952 0.0
H909 H 0.96829 0.54165 0.16576 0.0
H910 H 0.97919 0.53265 0.20661 0.0
H911 H 0.03706 0.55967 0.17457 0.0
C912 C 0.01463 0.58651 0.08947 0.0
C913 C -0.00124 0.58771 0.08011 0.0
C914 C 0.98071 0.57693 0.09299 0.0
C915 C 0.97848 0.5653 0.11503 0.0
C916 C 0.99444 0.56455 0.12391 0.0
C917 C 0.01217 0.57487 0.11159 0.0
C918 C 0.02735 0.57279 0.1265 0.0
C919 C 0.03523 0.56268 0.10874 0.0
C920 C 0.04363 0.59241 0.13671 0.0
C921 C 0.0155 0.56015 0.14958 0.0
C922 C 0.99648 0.55533 0.14746 0.0
C923 C 0.98305 0.54502 0.16741 0.0
C924 C 0.98934 0.53996 0.19048 0.0
C925 C 0.00884 0.54521 0.19339 0.0
C926 C 0.02196 0.55501 0.1724 0.0
H927 H 0.40268 0.40893 0.09992 0.0
H928 H 0.42657 0.46344 0.05881 0.0
H929 H 0.44666 0.48001 0.0986 0.0
H930 H 0.40015 0.42692 0.16543 0.0
H931 H 0.40639 0.41149 0.18307 0.0
H932 H 0.39415 0.40397 0.15112 0.0
H933 H 0.42133 0.39896 0.13244 0.0
H934 H 0.43372 0.40659 0.16429 0.0
H935 H 0.44589 0.41854 0.13377 0.0
H936 H 0.46479 0.4906 0.14283 0.0
H937 H 0.47738 0.49443 0.18945 0.0
H938 H 0.44103 0.43316 0.20131 0.0
C939 C 0.41211 0.42435 0.09927 0.0
C940 C 0.41306 0.43486 0.07621 0.0
C941 C 0.42552 0.45506 0.07627 0.0
C942 C 0.43708 0.46461 0.09873 0.0
C943 C 0.43591 0.45379 0.12104 0.0
C944 C 0.42361 0.43413 0.12157 0.0
C945 C 0.4247 0.42589 0.14824 0.0
C946 C 0.40519 0.41652 0.16283 0.0
C947 C 0.43184 0.41166 0.14444 0.0
C948 C 0.43951 0.44397 0.16263 0.0
C949 C 0.44597 0.45992 0.14658 0.0
C950 C 0.45979 0.47822 0.15563 0.0
C951 C 0.46691 0.48027 0.182 0.0
C952 C 0.46 0.46413 0.19892 0.0
C953 C 0.44634 0.44578 0.18888 0.0
H954 H 0.68874 0.76245 0.42167 0.0
H955 H 0.62841 0.71975 0.43203 0.0
H956 H 0.62551 0.7404 0.46643 0.0
H957 H 0.69886 0.77485 0.49018 0.0
H958 H 0.71536 0.79997 0.48432 0.0
H959 H 0.71205 0.7825 0.45898 0.0
H960 H 0.7033 0.80058 0.42422 0.0
H961 H 0.70629 0.81794 0.44969 0.0
H962 H 0.68393 0.80493 0.43143 0.0
H963 H 0.62991 0.7641 0.50268 0.0
H964 H 0.64187 0.78838 0.53948 0.0
H965 H 0.69882 0.81621 0.50445 0.0
C966 C 0.67488 0.75752 0.43099 0.0
C967 C 0.6588 0.7395 0.42415 0.0
C968 C 0.64093 0.73351 0.43696 0.0
C969 C 0.63911 0.74519 0.45639 0.0
C970 C 0.65523 0.7629 0.46264 0.0
C971 C 0.67278 0.76903 0.45036 0.0
C972 C 0.68819 0.78806 0.462 0.0
C973 C 0.70457 0.78622 0.47462 0.0
C974 C 0.69588 0.80381 0.44055 0.0
C975 C 0.6767 0.79143 0.48327 0.0
C976 C 0.65764 0.77685 0.48312 0.0
C977 C 0.64466 0.77584 0.5026 0.0
C978 C 0.6515 0.7897 0.52329 0.0
C979 C 0.67105 0.8044 0.52414 0.0
C980 C 0.68363 0.80556 0.50349 0.0
H981 H 0.2677 0.94294 0.43022 0.0
H982 H 0.2143 0.92514 0.38745 0.0
H983 H 0.19609 0.903 0.42418 0.0
H984 H 0.2543 0.89672 0.45824 0.0
H985 H 0.26598 0.90656 0.49013 0.0
H986 H 0.27504 0.92058 0.45998 0.0
H987 H 0.27194 0.94798 0.48232 0.0
H988 H 0.26299 0.9341 0.51258 0.0
H989 H 0.2491 0.9428 0.49606 0.0
H990 H 0.18352 0.88248 0.46543 0.0
H991 H 0.17753 0.86747 0.51041 0.0
H992 H 0.2388 0.89935 0.52685 0.0
C993 C 0.25218 0.93435 0.42857 0.0
C994 C 0.24245 0.93577 0.40592 0.0
C995 C 0.2221 0.9244 0.40464 0.0
C996 C 0.2116 0.91166 0.42533 0.0
C997 C 0.22162 0.91054 0.44731 0.0
C998 C 0.24143 0.92172 0.44923 0.0
C999 C 0.24858 0.91836 0.4756 0.0
C1000 C 0.26175 0.91006 0.47068 0.0
C1001 C 0.25875 0.93691 0.49264 0.0
C1002 C 0.2297 0.90366 0.4882 0.0
C1003 C 0.21433 0.89914 0.47142 0.0
C1004 C 0.19544 0.88592 0.47878 0.0
C1005 C 0.19216 0.8774 0.50423 0.0
C1006 C 0.20768 0.88236 0.52203 0.0
C1007 C 0.22667 0.89544 0.51367 0.0
H1008 H 0.07326 0.33527 0.4055 0.0
H1009 H 0.05821 0.27855 0.37624 0.0
H1010 H 0.0735 0.27411 0.41619 0.0
H1011 H 0.11983 0.34765 0.43236 0.0
H1012 H 0.11803 0.36042 0.46114 0.0
H1013 H 0.10584 0.35925 0.43022 0.0
H1014 H 0.07348 0.34499 0.45587 0.0
H1015 H 0.08559 0.34621 0.48687 0.0
H1016 H 0.06542 0.3237 0.47569 0.0
H1017 H 0.08929 0.27524 0.45992 0.0
H1018 H 0.10452 0.28187 0.50467 0.0
H1019 H 0.11135 0.33871 0.50428 0.0
C1020 C 0.07312 0.32189 0.40756 0.0
C1021 C 0.06449 0.30724 0.38776 0.0
C1022 C 0.06476 0.29 0.39109 0.0
C1023 C 0.07342 0.28733 0.41372 0.0
C1024 C 0.08191 0.30209 0.43273 0.0
C1025 C 0.0819 0.31905 0.4299 0.0
C1026 C 0.0921 0.33263 0.45331 0.0
C1027 C 0.11002 0.35108 0.44367 0.0
C1028 C 0.07832 0.33714 0.46885 0.0
C1029 C 0.09759 0.32051 0.46988 0.0
C1030 C 0.09158 0.30297 0.45763 0.0
C1031 C 0.09431 0.28904 0.46958 0.0
C1032 C 0.10318 0.29304 0.49495 0.0
C1033 C 0.10937 0.31091 0.50806 0.0
C1034 C 0.10673 0.32487 0.49498 0.0
H1035 H 0.05664 0.31634 0.23363 0.0
H1036 H 0.10541 0.35523 0.28346 0.0
H1037 H 0.1274 0.35283 0.25092 0.0
H1038 H 0.07473 0.28563 0.21214 0.0
H1039 H 0.0652 0.28258 0.17849 0.0
H1040 H 0.05331 0.28675 0.20628 0.0
H1041 H 0.05594 0.31618 0.18185 0.0
H1042 H 0.06759 0.31193 0.15389 0.0
H1043 H 0.07916 0.33499 0.17063 0.0
H1044 H 0.14415 0.34664 0.21183 0.0
H1045 H 0.15402 0.33952 0.16777 0.0
H1046 H 0.09411 0.30478 0.1446 0.0
C1047 C 0.07194 0.32433 0.23776 0.0
C1048 C 0.07931 0.33592 0.26109 0.0
C1049 C 0.09945 0.34625 0.26567 0.0
C1050 C 0.11204 0.34489 0.2474 0.0
C1051 C 0.10425 0.33314 0.2247 0.0
C1052 C 0.08467 0.32318 0.21977 0.0
C1053 C 0.07993 0.31226 0.19334 0.0
C1054 C 0.06756 0.29052 0.19785 0.0
C1055 C 0.07008 0.31927 0.17378 0.0
C1056 C 0.09991 0.31784 0.18396 0.0
C1057 C 0.1138 0.3297 0.20238 0.0
C1058 C 0.13338 0.33726 0.19735 0.0
C1059 C 0.13887 0.33307 0.17244 0.0
C1060 C 0.1248 0.32162 0.153 0.0
C1061 C 0.10513 0.31353 0.15924 0.0
H1062 H 0.632 0.7366 0.27429 0.0
H1063 H 0.6913 0.75397 0.29169 0.0
H1064 H 0.70196 0.77581 0.25268 0.0
H1065 H 0.63672 0.73513 0.2026 0.0
H1066 H 0.62028 0.74342 0.19557 0.0
H1067 H 0.61762 0.7303 0.2259 0.0
H1068 H 0.61942 0.75827 0.25424 0.0
H1069 H 0.62234 0.77158 0.22397 0.0
H1070 H 0.63988 0.78213 0.25065 0.0
H1071 H 0.7061 0.79608 0.2121 0.0
H1072 H 0.70311 0.80952 0.16899 0.0
H1073 H 0.64103 0.77707 0.17629 0.0
C1074 C 0.64723 0.74509 0.26993 0.0
C1075 C 0.66087 0.74377 0.28605 0.0
C1076 C 0.68064 0.75479 0.2795 0.0
C1077 C 0.68683 0.76732 0.25755 0.0
C1078 C 0.67302 0.76842 0.24215 0.0
C1079 C 0.6536 0.75732 0.24774 0.0
C1080 C 0.6416 0.76005 0.22685 0.0
C1081 C 0.62828 0.74111 0.21184 0.0
C1082 C 0.63014 0.76851 0.2397 0.0
C1083 C 0.65729 0.77441 0.2086 0.0
C1084 C 0.67533 0.77936 0.21807 0.0
C1085 C 0.69205 0.79232 0.2045 0.0
C1086 C 0.69024 0.79999 0.18021 0.0
C1087 C 0.67187 0.7944 0.16962 0.0
C1088 C 0.65523 0.78167 0.1842 0.0
H1089 H 0.26501 0.95167 0.24259 0.0
H1090 H 0.23084 0.91096 0.30439 0.0
H1091 H 0.20745 0.88976 0.2698 0.0
H1092 H 0.22547 0.9438 0.19725 0.0
H1093 H 0.23888 0.94528 0.16734 0.0
H1094 H 0.25133 0.95858 0.19725 0.0
H1095 H 0.27209 0.94248 0.1967 0.0
H1096 H 0.25985 0.92937 0.16668 0.0
H1097 H 0.26035 0.91666 0.19599 0.0
H1098 H 0.18859 0.8724 0.22818 0.0
H1099 H 0.17805 0.85831 0.1827 0.0
H1100 H 0.22684 0.90902 0.14844 0.0
C1101 C 0.25238 0.93846 0.24879 0.0
C1102 C 0.24949 0.93297 0.27602 0.0
C1103 C 0.23318 0.91537 0.28351 0.0
C1104 C 0.21977 0.90334 0.26408 0.0
C1105 C 0.22308 0.90904 0.23726 0.0
C1106 C 0.23914 0.92606 0.22956 0.0
C1107 C 0.24062 0.92775 0.19922 0.0
C1108 C 0.23897 0.94487 0.18971 0.0
C1109 C 0.25933 0.92913 0.18906 0.0
C1110 C 0.2231 0.90889 0.19108 0.0
C1111 C 0.21289 0.89851 0.21324 0.0
C1112 C 0.19648 0.8804 0.21064 0.0
C1113 C 0.19069 0.87246 0.1847 0.0
C1114 C 0.20155 0.88243 0.16172 0.0
C1115 C 0.21776 0.90106 0.16521 0.0
H1116 H 0.65637 0.93199 0.24388 0.0
H1117 H 0.61737 0.87965 0.28629 0.0
H1118 H 0.61978 0.86047 0.24923 0.0
H1119 H 0.63793 0.91346 0.17683 0.0
H1120 H 0.66131 0.9264 0.16133 0.0
H1121 H 0.65625 0.93598 0.19111 0.0
H1122 H 0.68561 0.93777 0.21505 0.0
H1123 H 0.69066 0.92805 0.18543 0.0
H1124 H 0.68723 0.91642 0.21744 0.0
H1125 H 0.62783 0.84692 0.20851 0.0
H1126 H 0.63867 0.84023 0.16501 0.0
H1127 H 0.67135 0.90123 0.14896 0.0
C1128 C 0.64822 0.9165 0.2453 0.0
C1129 C 0.6367 0.90736 0.26804 0.0
C1130 C 0.62624 0.88702 0.26905 0.0
C1131 C 0.62756 0.87597 0.24814 0.0
C1132 C 0.63927 0.88543 0.22623 0.0
C1133 C 0.64921 0.90522 0.2245 0.0
C1134 C 0.66064 0.91185 0.19864 0.0
C1135 C 0.65361 0.92255 0.18093 0.0
C1136 C 0.68232 0.92425 0.20451 0.0
C1137 C 0.65567 0.89271 0.18623 0.0
C1138 C 0.64344 0.87762 0.20251 0.0
C1139 C 0.63727 0.85861 0.19547 0.0
C1140 C 0.64354 0.85493 0.17088 0.0
C1141 C 0.65563 0.8702 0.15366 0.0
C1142 C 0.66186 0.88929 0.16163 0.0
H1143 H 0.05726 0.73964 0.25144 0.0
H1144 H 0.09892 0.7352 0.30119 0.0
H1145 H 0.12445 0.75464 0.26857 0.0
H1146 H 0.07551 0.73476 0.1888 0.0
H1147 H 0.07103 0.75152 0.17135 0.0
H1148 H 0.05631 0.73849 0.19963 0.0
H1149 H 0.06463 0.77058 0.2231 0.0
H1150 H 0.07949 0.78372 0.19492 0.0
H1151 H 0.08947 0.78871 0.22846 0.0
H1152 H 0.1451 0.77297 0.22957 0.0
H1153 H 0.15893 0.78718 0.18546 0.0
H1154 H 0.10411 0.78025 0.16131 0.0
C1155 C 0.07178 0.7429 0.25556 0.0
C1156 C 0.07611 0.73596 0.27889 0.0
C1157 C 0.09526 0.74037 0.28345 0.0
C1158 C 0.1099 0.75149 0.26512 0.0
C1159 C 0.10517 0.75812 0.24234 0.0
C1160 C 0.08658 0.75394 0.23741 0.0
C1161 C 0.08516 0.76189 0.2106 0.0
C1162 C 0.07118 0.7457 0.19147 0.0
C1163 C 0.07935 0.77713 0.21452 0.0
C1164 C 0.10576 0.77083 0.20103 0.0
C1165 C 0.11712 0.7687 0.21976 0.0
C1166 C 0.13642 0.77494 0.21485 0.0
C1167 C 0.1442 0.78314 0.18981 0.0
C1168 C 0.13264 0.78492 0.16998 0.0
C1169 C 0.1133 0.77907 0.17605 0.0
H1170 H 0.26113 0.34848 0.2661 0.0
H1171 H 0.25094 0.29057 0.27138 0.0
H1172 H 0.22959 0.28106 0.23147 0.0
H1173 H 0.21384 0.33652 0.24438 0.0
H1174 H 0.2225 0.35628 0.22135 0.0
H1175 H 0.23631 0.35833 0.25094 0.0
H1176 H 0.26599 0.36659 0.22123 0.0
H1177 H 0.25237 0.36489 0.19165 0.0
H1178 H 0.26364 0.35063 0.19398 0.0
H1179 H 0.20887 0.2779 0.1912 0.0
H1180 H 0.19443 0.28256 0.15002 0.0
H1181 H 0.21965 0.34282 0.17025 0.0
C1182 C 0.25439 0.33379 0.25887 0.0
C1183 C 0.25758 0.32022 0.27188 0.0
C1184 C 0.24873 0.3012 0.26161 0.0
C1185 C 0.23646 0.29564 0.23914 0.0
C1186 C 0.23338 0.30932 0.22702 0.0
C1187 C 0.24239 0.32809 0.23626 0.0
C1188 C 0.2377 0.34035 0.21872 0.0
C1189 C 0.22695 0.34834 0.23482 0.0
C1190 C 0.25601 0.35657 0.20562 0.0
C1191 C 0.22469 0.32558 0.19809 0.0
C1192 C 0.22207 0.30768 0.20345 0.0
C1193 C 0.21079 0.29184 0.18685 0.0
C1194 C 0.20252 0.29455 0.16369 0.0
C1195 C 0.20584 0.31297 0.15732 0.0
C1196 C 0.21676 0.32855 0.17498 0.0
H1197 H 0.27026 0.34028 0.42882 0.0
H1198 H 0.22866 0.28566 0.39245 0.0
H1199 H 0.20409 0.28281 0.42468 0.0
H1200 H 0.25588 0.32672 0.49607 0.0
H1201 H 0.25951 0.34968 0.50681 0.0
H1202 H 0.27339 0.34831 0.47935 0.0
H1203 H 0.26175 0.36618 0.44874 0.0
H1204 H 0.2477 0.36746 0.47613 0.0
H1205 H 0.23633 0.35674 0.44439 0.0
H1206 H 0.18475 0.28455 0.46242 0.0
H1207 H 0.17248 0.28974 0.50514 0.0
H1208 H 0.22603 0.34371 0.51684 0.0
C1209 C 0.25593 0.32782 0.42749 0.0
C1210 C 0.25137 0.31322 0.40807 0.0
C1211 C 0.2325 0.29704 0.40715 0.0
C1212 C 0.2184 0.29533 0.42526 0.0
C1213 C 0.22333 0.30994 0.44415 0.0
C1214 C 0.24164 0.32585 0.44551 0.0
C1215 C 0.24347 0.33884 0.46894 0.0
C1216 C 0.25898 0.341 0.48897 0.0
C1217 C 0.24755 0.35847 0.45894 0.0
C1218 C 0.22348 0.32746 0.48092 0.0
C1219 C 0.21204 0.31099 0.46605 0.0
C1220 C 0.19344 0.29756 0.47402 0.0
C1221 C 0.18652 0.30075 0.49826 0.0
C1222 C 0.19818 0.31724 0.51435 0.0
C1223 C 0.21672 0.33098 0.50503 0.0
H1224 H 0.65718 0.93901 0.42863 0.0
H1225 H 0.66008 0.90067 0.36969 0.0
H1226 H 0.66204 0.88128 0.40654 0.0
H1227 H 0.69247 0.94011 0.47175 0.0
H1228 H 0.68121 0.94181 0.50226 0.0
H1229 H 0.67778 0.95101 0.47128 0.0
H1230 H 0.64081 0.92955 0.47683 0.0
H1231 H 0.64423 0.92013 0.5077 0.0
H1232 H 0.63026 0.90402 0.48069 0.0
H1233 H 0.66391 0.86634 0.45044 0.0
H1234 H 0.66991 0.85966 0.4967 0.0
H1235 H 0.66981 0.91063 0.52514 0.0
C1236 C 0.65794 0.92636 0.42356 0.0
C1237 C 0.65823 0.92109 0.39653 0.0
C1238 C 0.65977 0.90481 0.39043 0.0
C1239 C 0.66075 0.89368 0.41118 0.0
C1240 C 0.66049 0.89929 0.43777 0.0
C1241 C 0.65945 0.91545 0.44394 0.0
C1242 C 0.66143 0.91961 0.47385 0.0
C1243 C 0.67929 0.93929 0.48014 0.0
C1244 C 0.64308 0.91823 0.48544 0.0
C1245 C 0.66388 0.90335 0.48356 0.0
C1246 C 0.66287 0.89151 0.46264 0.0
C1247 C 0.66485 0.87561 0.46697 0.0
C1248 C 0.6684 0.87202 0.49334 0.0
C1249 C 0.67041 0.88456 0.51493 0.0
C1250 C 0.66788 0.9003 0.50967 0.0
H1251 H 0.06302 0.76871 0.41874 0.0
H1252 H 0.07999 0.7265 0.40362 0.0
H1253 H 0.10358 0.74028 0.44074 0.0
H1254 H 0.10958 0.80847 0.43847 0.0
H1255 H 0.10025 0.81661 0.46528 0.0
H1256 H 0.0855 0.80439 0.43631 0.0
H1257 H 0.05892 0.77924 0.46735 0.0
H1258 H 0.07348 0.79154 0.49638 0.0
H1259 H 0.06495 0.7664 0.49109 0.0
H1260 H 0.12571 0.75885 0.47847 0.0
H1261 H 0.14118 0.77753 0.51992 0.0
H1262 H 0.10811 0.80595 0.51351 0.0
C1263 C 0.07175 0.76245 0.42332 0.0
C1264 C 0.06982 0.74663 0.40837 0.0
C1265 C 0.08123 0.73856 0.41503 0.0
C1266 C 0.09478 0.7464 0.43586 0.0
C1267 C 0.0965 0.76209 0.45012 0.0
C1268 C 0.08501 0.76977 0.44462 0.0
C1269 C 0.08869 0.78559 0.46458 0.0
C1270 C 0.09647 0.80491 0.45029 0.0
C1271 C 0.07043 0.78038 0.48081 0.0
C1272 C 0.10399 0.78554 0.48211 0.0
C1273 C 0.10858 0.77217 0.473 0.0
C1274 C 0.12226 0.76937 0.48585 0.0
C1275 C 0.13107 0.78013 0.50919 0.0
C1276 C 0.1259 0.79321 0.51959 0.0
C1277 C 0.11239 0.79614 0.50569 0.0
H1278 H 0.36692 0.09987 0.76387 0.0
H1279 H 0.30795 0.05303 0.77147 0.0
H1280 H 0.30253 0.07067 0.80794 0.0
H1281 H 0.37551 0.10922 0.83353 0.0
H1282 H 0.39035 0.13487 0.83022 0.0
H1283 H 0.38899 0.11934 0.80305 0.0
H1284 H 0.37851 0.13726 0.77059 0.0
H1285 H 0.37959 0.15269 0.79783 0.0
H1286 H 0.35773 0.13912 0.77865 0.0
H1287 H 0.30399 0.09199 0.84533 0.0
H1288 H 0.31311 0.1146 0.88383 0.0
H1289 H 0.371 0.14781 0.85237 0.0
C1290 C 0.35282 0.09343 0.77305 0.0
C1291 C 0.33783 0.07512 0.76478 0.0
C1292 C 0.31965 0.06704 0.77749 0.0
C1293 C 0.31638 0.07701 0.79808 0.0
C1294 C 0.33143 0.09505 0.8057 0.0
C1295 C 0.34933 0.10315 0.79375 0.0
C1296 C 0.36344 0.12208 0.80717 0.0
C1297 C 0.38057 0.12132 0.81921 0.0
C1298 C 0.37021 0.13877 0.78737 0.0
C1299 C 0.35078 0.12309 0.82897 0.0
C1300 C 0.33228 0.10748 0.82745 0.0
C1301 C 0.31833 0.10444 0.84651 0.0
C1302 C 0.32358 0.11734 0.8682 0.0
C1303 C 0.3426 0.13304 0.87063 0.0
C1304 C 0.35622 0.13623 0.85042 0.0
H1305 H 0.89817 0.24873 0.74134 0.0
H1306 H 0.95783 0.26348 0.74664 0.0
H1307 H 0.95046 0.24441 0.78804 0.0
H1308 H 0.89195 0.25279 0.81105 0.0
H1309 H 0.86741 0.23318 0.81179 0.0
H1310 H 0.87709 0.24658 0.78134 0.0
H1311 H 0.8678 0.21501 0.7555 0.0
H1312 H 0.85833 0.20155 0.78605 0.0
H1313 H 0.87656 0.19984 0.76727 0.0
H1314 H 0.93728 0.22559 0.83016 0.0
H1315 H 0.91968 0.21061 0.87223 0.0
H1316 H 0.86868 0.20802 0.83993 0.0
C1317 C 0.90965 0.24781 0.75105 0.0
C1318 C 0.92857 0.25756 0.74066 0.0
C1319 C 0.94324 0.25618 0.75422 0.0
C1320 C 0.93916 0.24524 0.77763 0.0
C1321 C 0.92035 0.23576 0.78726 0.0
C1322 C 0.90586 0.23705 0.77455 0.0
C1323 C 0.88721 0.22668 0.79022 0.0
C1324 C 0.88053 0.24064 0.79913 0.0
C1325 C 0.87155 0.20977 0.77377 0.0
C1326 C 0.89359 0.21971 0.81403 0.0
C1327 C 0.9127 0.22485 0.81169 0.0
C1328 C 0.92223 0.22119 0.83201 0.0
C1329 C 0.91215 0.21259 0.85571 0.0
C1330 C 0.8928 0.20778 0.85876 0.0
C1331 C 0.88329 0.211 0.83751 0.0
H1332 H 0.75037 0.64896 0.74945 0.0
H1333 H 0.75691 0.70558 0.75424 0.0
H1334 H 0.77704 0.71282 0.79493 0.0
H1335 H 0.74541 0.64039 0.81957 0.0
H1336 H 0.75827 0.62757 0.81969 0.0
H1337 H 0.74571 0.62756 0.78982 0.0
H1338 H 0.77727 0.64063 0.76241 0.0
H1339 H 0.78999 0.64093 0.79236 0.0
H1340 H 0.79842 0.66253 0.77316 0.0
H1341 H 0.79541 0.71348 0.83597 0.0
H1342 H 0.80801 0.70635 0.87677 0.0
H1343 H 0.78872 0.64906 0.84576 0.0
C1344 C 0.75616 0.66295 0.75891 0.0
C1345 C 0.75213 0.67674 0.74858 0.0
C1346 C 0.75977 0.69477 0.7618 0.0
C1347 C 0.77135 0.69908 0.7848 0.0
C1348 C 0.77511 0.68519 0.79436 0.0
C1349 C 0.76761 0.66743 0.78199 0.0
C1350 C 0.77269 0.65456 0.79739 0.0
C1351 C 0.75444 0.63646 0.8072 0.0
C1352 C 0.78535 0.64936 0.7803 0.0
C1353 C 0.78394 0.66774 0.82064 0.0
C1354 C 0.78544 0.68545 0.81829 0.0
C1355 C 0.79443 0.69971 0.83795 0.0
C1356 C 0.80152 0.69553 0.86104 0.0
C1357 C 0.79942 0.6772 0.86437 0.0
C1358 C 0.79095 0.66334 0.84353 0.0
H1359 H 0.73074 0.66221 0.58824 0.0
H1360 H 0.78231 0.70491 0.62982 0.0
H1361 H 0.80219 0.70396 0.59233 0.0
H1362 H 0.75026 0.63442 0.55964 0.0
H1363 H 0.73725 0.62997 0.52842 0.0
H1364 H 0.7274 0.63331 0.55923 0.0
H1365 H 0.72482 0.66091 0.53741 0.0
H1366 H 0.73457 0.65758 0.50654 0.0
H1367 H 0.74594 0.68081 0.5228 0.0
H1368 H 0.8163 0.69832 0.54926 0.0
H1369 H 0.82285 0.69041 0.50329 0.0
H1370 H 0.76171 0.65246 0.49065 0.0
C1371 C 0.74622 0.67127 0.58961 0.0
C1372 C 0.755 0.68355 0.61197 0.0
C1373 C 0.7753 0.69537 0.61283 0.0
C1374 C 0.7867 0.69486 0.59172 0.0
C1375 C 0.77753 0.68252 0.56992 0.0
C1376 C 0.75773 0.67106 0.56872 0.0
C1377 C 0.7512 0.65979 0.54261 0.0
C1378 C 0.74093 0.63809 0.5478 0.0
C1379 C 0.73838 0.6651 0.52639 0.0
C1380 C 0.77039 0.66682 0.5291 0.0
C1381 C 0.7855 0.67973 0.54519 0.0
C1382 C 0.80457 0.68823 0.53653 0.0
C1383 C 0.80818 0.68366 0.51054 0.0
C1384 C 0.79274 0.67098 0.49365 0.0
C1385 C 0.77372 0.66229 0.50326 0.0
H1386 H 0.34639 0.07356 0.606 0.0
H1387 H 0.31812 0.09744 0.65348 0.0
H1388 H 0.32346 0.12009 0.617 0.0
H1389 H 0.38234 0.11796 0.57484 0.0
H1390 H 0.38087 0.10673 0.54268 0.0
H1391 H 0.37591 0.09314 0.5732 0.0
H1392 H 0.3425 0.06767 0.55438 0.0
H1393 H 0.34739 0.08115 0.5238 0.0
H1394 H 0.32612 0.07513 0.54309 0.0
H1395 H 0.33163 0.14003 0.57524 0.0
H1396 H 0.33968 0.1539 0.52948 0.0
H1397 H 0.36138 0.11619 0.50873 0.0
C1398 C 0.34147 0.08366 0.60879 0.0
C1399 C 0.33191 0.0838 0.63261 0.0
C1400 C 0.32543 0.09704 0.63535 0.0
C1401 C 0.32849 0.11005 0.61483 0.0
C1402 C 0.33792 0.10953 0.59158 0.0
C1403 C 0.34416 0.09657 0.58833 0.0
C1404 C 0.35292 0.09827 0.56074 0.0
C1405 C 0.37428 0.10439 0.56302 0.0
C1406 C 0.34155 0.07944 0.54455 0.0
C1407 C 0.35048 0.11408 0.54896 0.0
C1408 C 0.34205 0.12058 0.56718 0.0
C1409 C 0.33825 0.13507 0.56078 0.0
C1410 C 0.34292 0.14291 0.53486 0.0
C1411 C 0.35104 0.13602 0.51568 0.0
C1412 C 0.35504 0.12159 0.523 0.0
H1413 H 0.92296 0.26794 0.58112 0.0
H1414 H 0.94257 0.23326 0.62043 0.0
H1415 H 0.92697 0.20845 0.58502 0.0
H1416 H 0.87657 0.22818 0.55834 0.0
H1417 H 0.87744 0.23935 0.52672 0.0
H1418 H 0.8892 0.25397 0.55602 0.0
H1419 H 0.92138 0.27156 0.52982 0.0
H1420 H 0.90971 0.25705 0.50045 0.0
H1421 H 0.9307 0.25776 0.51417 0.0
H1422 H 0.91068 0.18812 0.54426 0.0
H1423 H 0.89598 0.17439 0.50003 0.0
H1424 H 0.8863 0.22185 0.48766 0.0
C1425 C 0.92384 0.25506 0.58238 0.0
C1426 C 0.93395 0.25253 0.60357 0.0
C1427 C 0.9349 0.23553 0.6044 0.0
C1428 C 0.92602 0.2213 0.58443 0.0
C1429 C 0.9162 0.22424 0.5638 0.0
C1430 C 0.91507 0.2407 0.56259 0.0
C1431 C 0.90435 0.24068 0.5376 0.0
C1432 C 0.88579 0.24053 0.54513 0.0
C1433 C 0.91731 0.25777 0.51944 0.0
C1434 C 0.89996 0.22182 0.52474 0.0
C1435 C 0.90675 0.21247 0.5403 0.0
C1436 C 0.90509 0.19518 0.53203 0.0
C1437 C 0.89658 0.18741 0.50695 0.0
C1438 C 0.8899 0.19697 0.49038 0.0
C1439 C 0.89133 0.21422 0.49978 0.0
H1440 H 0.30775 0.23903 0.60993 0.0
H1441 H 0.36559 0.28081 0.6361 0.0
H1442 H 0.37895 0.2702 0.59943 0.0
H1443 H 0.31691 0.20148 0.58889 0.0
H1444 H 0.30158 0.19478 0.55963 0.0
H1445 H 0.29646 0.2048 0.58888 0.0
H1446 H 0.29722 0.23149 0.55955 0.0
H1447 H 0.30216 0.22145 0.5302 0.0
H1448 H 0.31812 0.24626 0.53926 0.0
H1449 H 0.38601 0.25477 0.56041 0.0
H1450 H 0.38632 0.23862 0.51794 0.0
H1451 H 0.32402 0.20846 0.51537 0.0
C1452 C 0.32322 0.24586 0.60797 0.0
C1453 C 0.33567 0.26064 0.62589 0.0
C1454 C 0.35583 0.26949 0.6225 0.0
C1455 C 0.36354 0.26346 0.60189 0.0
C1456 C 0.35089 0.24877 0.58463 0.0
C1457 C 0.33117 0.24031 0.58715 0.0
C1458 C 0.32078 0.22576 0.5648 0.0
C1459 C 0.30819 0.20551 0.57624 0.0
C1460 C 0.30887 0.2316 0.54743 0.0
C1461 C 0.33774 0.22741 0.54932 0.0
C1462 C 0.35497 0.2405 0.56138 0.0
C1463 C 0.37262 0.24449 0.55076 0.0
C1464 C 0.37267 0.23518 0.5268 0.0
C1465 C 0.35521 0.2223 0.5136 0.0
C1466 C 0.33755 0.21822 0.5252 0.0
H1467 H 0.76901 0.08681 0.59847 0.0
H1468 H 0.72443 0.10116 0.5883 0.0
H1469 H 0.74097 0.11989 0.54796 0.0
H1470 H 0.80977 0.13312 0.57341 0.0
H1471 H 0.8208 0.1213 0.5566 0.0
H1472 H 0.80699 0.11125 0.58686 0.0
H1473 H 0.78543 0.079 0.56173 0.0
H1474 H 0.79925 0.0889 0.53158 0.0
H1475 H 0.77357 0.0789 0.53096 0.0
H1476 H 0.75962 0.13319 0.50572 0.0
H1477 H 0.77876 0.13938 0.46405 0.0
H1478 H 0.81181 0.11742 0.50195 0.0
C1479 C 0.76296 0.09423 0.58807 0.0
C1480 C 0.74547 0.09257 0.59656 0.0
C1481 C 0.73783 0.10224 0.58218 0.0
C1482 C 0.74719 0.11303 0.55933 0.0
C1483 C 0.76427 0.11416 0.55124 0.0
C1484 C 0.77214 0.10509 0.5652 0.0
C1485 C 0.78965 0.1071 0.55086 0.0
C1486 C 0.80788 0.1189 0.56796 0.0
C1487 C 0.78679 0.0873 0.54333 0.0
C1488 C 0.78991 0.11803 0.52612 0.0
C1489 C 0.77532 0.12223 0.52692 0.0
C1490 C 0.77141 0.13045 0.50512 0.0
C1491 C 0.78233 0.13395 0.48159 0.0
C1492 C 0.79698 0.12929 0.48018 0.0
C1493 C 0.80114 0.12175 0.50297 0.0
H1494 H 0.93064 0.65761 0.58209 0.0
H1495 H 0.90552 0.68264 0.63396 0.0
H1496 H 0.88143 0.67649 0.59913 0.0
H1497 H 0.92588 0.67775 0.52144 0.0
H1498 H 0.92026 0.65714 0.50066 0.0
H1499 H 0.93468 0.66206 0.53053 0.0
H1500 H 0.91071 0.62799 0.54809 0.0
H1501 H 0.89614 0.62303 0.51831 0.0
H1502 H 0.8856 0.62046 0.55121 0.0
H1503 H 0.86082 0.66901 0.55834 0.0
H1504 H 0.84698 0.6632 0.51252 0.0
H1505 H 0.88521 0.64311 0.48674 0.0
C1506 C 0.91998 0.66164 0.58618 0.0
C1507 C 0.92 0.67059 0.61081 0.0
C1508 C 0.90591 0.67585 0.61523 0.0
C1509 C 0.89203 0.67229 0.59565 0.0
C1510 C 0.89239 0.66349 0.57162 0.0
C1511 C 0.90606 0.65836 0.56667 0.0
C1512 C 0.90396 0.65026 0.53839 0.0
C1513 C 0.92228 0.66254 0.52178 0.0
C1514 C 0.89879 0.62918 0.53905 0.0
C1515 C 0.88724 0.65201 0.52818 0.0
C1516 C 0.88059 0.65939 0.54781 0.0
C1517 C 0.86577 0.66305 0.54282 0.0
C1518 C 0.8579 0.65958 0.5168 0.0
C1519 C 0.865 0.65271 0.49608 0.0
C1520 C 0.87953 0.64844 0.50215 0.0
H1521 H 0.94238 0.68066 0.76061 0.0
H1522 H 0.90031 0.627 0.72241 0.0
H1523 H 0.8766 0.62254 0.75718 0.0
H1524 H 0.92968 0.66488 0.82818 0.0
H1525 H 0.93331 0.68745 0.84079 0.0
H1526 H 0.9467 0.68697 0.81202 0.0
H1527 H 0.93417 0.70538 0.78431 0.0
H1528 H 0.92058 0.70575 0.81298 0.0
H1529 H 0.90863 0.69578 0.78129 0.0
H1530 H 0.85791 0.62298 0.79689 0.0
H1531 H 0.84619 0.62725 0.84078 0.0
H1532 H 0.89979 0.6811 0.85285 0.0
C1533 C 0.92816 0.668 0.75955 0.0
C1534 C 0.92319 0.6542 0.73877 0.0
C1535 C 0.90446 0.63779 0.73812 0.0
C1536 C 0.89083 0.63516 0.7577 0.0
C1537 C 0.89611 0.64908 0.77777 0.0
C1538 C 0.91433 0.66514 0.77896 0.0
C1539 C 0.91651 0.67746 0.80341 0.0
C1540 C 0.93249 0.67929 0.82221 0.0
C1541 C 0.92019 0.69727 0.79498 0.0
C1542 C 0.89681 0.66558 0.81602 0.0
C1543 C 0.88521 0.6494 0.80072 0.0
C1544 C 0.86675 0.63573 0.80891 0.0
C1545 C 0.86014 0.63839 0.83379 0.0
C1546 C 0.87199 0.65459 0.85024 0.0
C1547 C 0.89037 0.66857 0.84077 0.0
H1548 H 0.35376 0.26544 0.7632 0.0
H1549 H 0.29436 0.25132 0.76961 0.0
H1550 H 0.28896 0.2283 0.80568 0.0
H1551 H 0.34519 0.21694 0.77715 0.0
H1552 H 0.36705 0.22617 0.79646 0.0
H1553 H 0.36571 0.24 0.7692 0.0
H1554 H 0.37557 0.26886 0.80171 0.0
H1555 H 0.37724 0.25524 0.82882 0.0
H1556 H 0.36195 0.26537 0.83215 0.0
H1557 H 0.29103 0.20958 0.84424 0.0
H1558 H 0.30103 0.19826 0.88371 0.0
H1559 H 0.35863 0.22371 0.85118 0.0
C1560 C 0.33954 0.25733 0.77194 0.0
C1561 C 0.32447 0.26015 0.76357 0.0
C1562 C 0.30613 0.24939 0.7757 0.0
C1563 C 0.30288 0.23617 0.79606 0.0
C1564 C 0.31808 0.23376 0.80389 0.0
C1565 C 0.33605 0.24406 0.79221 0.0
C1566 C 0.35036 0.23997 0.80569 0.0
C1567 C 0.35749 0.23019 0.78594 0.0
C1568 C 0.36726 0.25845 0.81782 0.0
C1569 C 0.33782 0.22627 0.8274 0.0
C1570 C 0.31916 0.22263 0.82581 0.0
C1571 C 0.30546 0.21195 0.84534 0.0
C1572 C 0.31121 0.20549 0.86758 0.0
C1573 C 0.33043 0.20971 0.87003 0.0
C1574 C 0.34366 0.21964 0.84921 0.0
H1575 H 0.74104 0.11546 0.75188 0.0
H1576 H 0.76341 0.07895 0.72739 0.0
H1577 H 0.785 0.08994 0.76703 0.0
H1578 H 0.78515 0.15494 0.78013 0.0
H1579 H 0.77317 0.15876 0.80815 0.0
H1580 H 0.76059 0.14932 0.7767 0.0
H1581 H 0.73348 0.11988 0.8015 0.0
H1582 H 0.7459 0.12931 0.833 0.0
H1583 H 0.73956 0.1055 0.82209 0.0
H1584 H 0.80408 0.10484 0.80902 0.0
H1585 H 0.81632 0.11925 0.85401 0.0
H1586 H 0.77984 0.14418 0.8532 0.0
C1587 C 0.75063 0.10995 0.75481 0.0
C1588 C 0.75076 0.09652 0.73656 0.0
C1589 C 0.76315 0.08925 0.74122 0.0
C1590 C 0.77553 0.09551 0.76353 0.0
C1591 C 0.7751 0.10879 0.78116 0.0
C1592 C 0.76275 0.11569 0.77735 0.0
C1593 C 0.76402 0.12862 0.80053 0.0
C1594 C 0.77116 0.14913 0.79078 0.0
C1595 C 0.74459 0.12032 0.81514 0.0
C1596 C 0.77893 0.12784 0.81801 0.0
C1597 C 0.78542 0.11664 0.80617 0.0
C1598 C 0.79915 0.11366 0.81849 0.0
C1599 C 0.8061 0.12199 0.84391 0.0
C1600 C 0.79908 0.13288 0.85684 0.0
C1601 C 0.78548 0.13599 0.84359 0.0
H1602 H 0.03791 0.33432 0.03856 0.0
H1603 H 0.07476 0.37686 0.98024 0.0
H1604 H 0.09912 0.36729 0.98636 0.0
H1605 H 0.07338 0.34219 0.08362 0.0
H1606 H 0.06324 0.31746 0.09307 0.0
H1607 H 0.04782 0.32575 0.08099 0.0
H1608 H 0.03478 0.2994 0.04369 0.0
H1609 H 0.05029 0.29106 0.05567 0.0
H1610 H 0.05137 0.2978 0.02092 0.0
H1611 H 0.12133 0.35608 0.00396 0.0
H1612 H 0.13896 0.34472 0.03193 0.0
H1613 H 0.0868 0.30878 0.07676 0.0
C1614 C 0.05091 0.34135 0.02661 0.0
C1615 C 0.05442 0.35631 0.0089 0.0
C1616 C 0.07172 0.36528 0.99384 0.0
C1617 C 0.08562 0.3599 -0.00287 0.0
C1618 C 0.08187 0.34533 0.01522 0.0
C1619 C 0.06482 0.33608 0.02952 0.0
C1620 C 0.06481 0.32205 0.04937 0.0
C1621 C 0.06217 0.32718 0.07846 0.0
C1622 C 0.0494 0.30135 0.04196 0.0
C1623 C 0.08482 0.32542 0.0449 0.0
C1624 C 0.09444 0.33868 0.0249 0.0
C1625 C 0.1138 0.34537 0.01925 0.0
C1626 C 0.1237 0.3388 0.03509 0.0
C1627 C 0.11419 0.32587 0.05635 0.0
C1628 C 0.09436 0.31859 0.06046 0.0
H1629 H 0.60682 0.67969 0.05218 0.0
H1630 H 0.65654 0.69364 0.00271 0.0
H1631 H 0.66881 0.72821 0.01013 0.0
H1632 H 0.60185 0.72142 0.0349 0.0
H1633 H 0.59601 0.72442 0.06901 0.0
H1634 H 0.5895 0.70089 0.0565 0.0
H1635 H 0.60793 0.69675 0.09606 0.0
H1636 H 0.61429 0.72013 0.10876 0.0
H1637 H 0.63285 0.7146 0.10161 0.0
H1638 H 0.67679 0.76096 0.0252 0.0
H1639 H 0.68236 0.78921 0.05198 0.0
H1640 H 0.62847 0.75417 0.09385 0.0
C1641 C 0.62008 0.69008 0.0425 0.0
C1642 C 0.63065 0.6841 0.02659 0.0
C1643 C 0.64823 0.69801 0.01488 0.0
C1644 C 0.65521 0.71764 0.01879 0.0
C1645 C 0.64455 0.72313 0.03474 0.0
C1646 C 0.62749 0.70977 0.04674 0.0
C1647 C 0.62013 0.7194 0.06569 0.0
C1648 C 0.60072 0.71635 0.05593 0.0
C1649 C 0.61873 0.7123 0.09474 0.0
C1650 C 0.63593 0.74018 0.06295 0.0
C1651 C 0.6496 0.74207 0.04444 0.0
C1652 C 0.66608 0.75972 0.03951 0.0
C1653 C 0.66905 0.77573 0.05466 0.0
C1654 C 0.65577 0.7739 0.0748 0.0
C1655 C 0.63874 0.756 0.07836 0.0
H1656 H 0.30438 0.96071 0.03567 0.0
H1657 H 0.29069 0.93147 0.95824 0.0
H1658 H 0.25694 0.91071 0.97252 0.0
H1659 H 0.27966 0.92007 0.07248 0.0
H1660 H 0.27153 0.93007 0.09837 0.0
H1661 H 0.29309 0.94543 0.07996 0.0
H1662 H 0.279 0.96665 0.06621 0.0
H1663 H 0.25729 0.9512 0.08457 0.0
H1664 H 0.25601 0.95584 0.04942 0.0
H1665 H 0.22605 0.8903 -0.00275 0.0
H1666 H 0.20157 0.87066 0.03117 0.0
H1667 H 0.23665 0.9119 0.0932 0.0
C1668 C 0.29406 0.95043 0.02142 0.0
C1669 C 0.29996 0.94785 -0.00425 0.0
C1670 C 0.28632 0.93374 0.97794 0.0
C1671 C 0.26712 0.92198 0.98582 0.0
C1672 C 0.26182 0.92442 0.01164 0.0
C1673 C 0.27493 0.9383 0.02921 0.0
C1674 C 0.26647 0.93606 0.05711 0.0
C1675 C 0.27839 0.93269 0.0782 0.0
C1676 C 0.26458 0.95347 0.06477 0.0
C1677 C 0.24692 0.91831 0.05275 0.0
C1678 C 0.24426 0.91211 0.02627 0.0
C1679 C 0.22786 0.89516 0.018 0.0
C1680 C 0.21409 0.88401 0.03746 0.0
C1681 C 0.21699 0.88966 0.06498 0.0
C1682 C 0.23347 0.90732 0.07235 0.0
H1683 H 0.33547 0.0428 0.98701 0.0
H1684 H 0.3937 0.0713 0.01829 0.0
H1685 H 0.39495 0.10244 0.01678 0.0
H1686 H 0.34211 0.07571 0.94049 0.0
H1687 H 0.31916 0.07413 0.94455 0.0
H1688 H 0.32171 0.05404 0.95301 0.0
H1689 H 0.30913 0.054 0.00119 0.0
H1690 H 0.30666 0.07427 0.99284 0.0
H1691 H 0.32087 0.07554 0.02157 0.0
H1692 H 0.39219 0.13074 0.00277 0.0
H1693 H 0.38566 0.15296 0.97763 0.0
H1694 H 0.32803 0.10623 0.95998 0.0
C1695 C 0.34828 0.05553 0.99427 0.0
C1696 C 0.36448 0.05465 0.00276 0.0
C1697 C 0.38107 0.07162 0.01187 0.0
C1698 C 0.38188 0.08937 0.01117 0.0
C1699 C 0.36581 0.08984 0.00197 0.0
C1700 C 0.34919 0.07327 0.99411 0.0
C1701 C 0.33462 0.07775 0.98251 0.0
C1702 C 0.3291 0.06996 0.95343 0.0
C1703 C 0.31676 0.06992 0.00062 0.0
C1704 C 0.34609 0.09947 0.98335 0.0
C1705 C 0.36394 0.10623 0.99503 0.0
C1706 C 0.37804 0.12566 0.99436 0.0
C1707 C 0.37415 0.13827 0.98018 0.0
C1708 C 0.35632 0.13137 0.96681 0.0
C1709 C 0.34178 0.11196 0.97006 0.0
H1710 H 0.96877 0.31473 0.98242 0.0
H1711 H 0.92608 0.32614 0.01705 0.0
H1712 H 0.90065 0.29285 0.00661 0.0
H1713 H 0.94089 0.28749 0.92769 0.0
H1714 H 0.94962 0.27095 0.92764 0.0
H1715 H 0.96455 0.29493 0.94056 0.0
H1716 H 0.96789 0.28123 0.9859 0.0
H1717 H 0.95284 0.25715 0.9731 0.0
H1718 H 0.94657 0.26452 0.00403 0.0
H1719 H 0.87942 0.25881 0.98904 0.0
H1720 H 0.8645 0.22806 0.96334 0.0
H1721 H 0.92119 0.23933 0.9408 0.0
C1722 C 0.95413 0.31018 0.9882 0.0
C1723 C 0.94947 0.32307 0.00064 0.0
C1724 C 0.93004 0.31655 0.00752 0.0
C1725 C 0.91549 0.29762 0.00181 0.0
C1726 C 0.92057 0.28533 0.98932 0.0
C1727 C 0.93944 0.29139 0.98259 0.0
C1728 C 0.94099 0.27592 0.96746 0.0
C1729 C 0.94951 0.28273 0.93917 0.0
C1730 C 0.95277 0.26932 0.9836 0.0
C1731 C 0.92001 0.26041 0.96608 0.0
C1732 C 0.90841 0.26591 0.97913 0.0
C1733 C 0.88839 0.25426 0.97905 0.0
C1734 C 0.88003 0.2368 0.96457 0.0
C1735 C 0.89172 0.23141 0.9502 0.0
C1736 C 0.91194 0.24313 0.95171 0.0
H1737 H 0.69682 0.62369 0.00926 0.0
H1738 H 0.70593 0.68127 0.00957 0.0
H1739 H 0.74053 0.69441 0.00088 0.0
H1740 H 0.7456 0.63587 0.0364 0.0
H1741 H 0.74673 0.61894 0.0137 0.0
H1742 H 0.72381 0.61433 0.0264 0.0
H1743 H 0.71113 0.61082 0.97751 0.0
H1744 H 0.73384 0.61521 0.9648 0.0
H1745 H 0.72438 0.63 0.95404 0.0
H1746 H 0.77248 0.70093 0.98545 0.0
H1747 H 0.79812 0.70006 0.95938 0.0
H1748 H 0.7683 0.63824 0.96698 0.0
C1749 C 0.70628 0.6391 0.00845 0.0
C1750 C 0.69887 0.65153 0.01048 0.0
C1751 C 0.71143 0.67155 0.00826 0.0
C1752 C 0.73112 0.67914 0.00358 0.0
C1753 C 0.73798 0.66649 0.00101 0.0
C1754 C 0.72591 0.64686 0.0032 0.0
C1755 C 0.73614 0.63622 0.99515 0.0
C1756 C 0.73819 0.62572 0.01936 0.0
C1757 C 0.72576 0.62226 0.97147 0.0
C1758 C 0.7555 0.65285 0.98676 0.0
C1759 C 0.75647 0.67023 0.99116 0.0
C1760 C 0.77207 0.68747 0.98243 0.0
C1761 C 0.78658 0.68686 0.96769 0.0
C1762 C 0.78526 0.66912 0.96151 0.0
C1763 C 0.76996 0.65203 0.9722 0.0
H1764 H 0.92089 0.60701 -0.00169 0.0
H1765 H 0.97555 0.66028 0.9915 0.0
H1766 H 0.95839 0.67709 0.97906 0.0
H1767 H 0.89967 0.6132 0.9422 0.0
H1768 H 0.87586 0.60254 0.95635 0.0
H1769 H 0.89234 0.59555 0.96837 0.0
H1770 H 0.88801 0.60463 0.01711 0.0
H1771 H 0.87166 0.61191 0.00507 0.0
H1772 H 0.8926 0.62848 0.02431 0.0
H1773 H 0.93577 0.68704 0.96138 0.0
H1774 H 0.90971 0.68874 0.93792 0.0
H1775 H 0.86979 0.62945 0.95773 0.0
C1776 C 0.92928 0.62229 0.99469 0.0
C1777 C 0.94959 0.63231 -0.00407 0.0
C1778 C 0.95998 0.65227 0.99073 0.0
C1779 C 0.95035 0.66198 0.98383 0.0
C1780 C 0.93031 0.65161 0.98253 0.0
C1781 C 0.9199 0.6322 0.98788 0.0
C1782 C 0.89866 0.62395 0.98262 0.0
C1783 C 0.89121 0.60788 0.9611 0.0
C1784 C 0.88705 0.61682 0.00885 0.0
C1785 C 0.89881 0.64156 0.97231 0.0
C1786 C 0.91717 0.65747 0.97285 0.0
C1787 C 0.92127 0.67484 0.96152 0.0
C1788 C 0.9064 0.67573 0.94836 0.0
C1789 C 0.88772 0.65938 0.94673 0.0
C1790 C 0.88377 0.64234 0.9597 0.0
H1791 H 0.36097 0.32639 0.962 0.0
H1792 H 0.37314 0.32463 0.0466 0.0
H1793 H 0.36848 0.29207 0.03965 0.0
H1794 H 0.32487 0.27685 0.95318 0.0
H1795 H 0.33307 0.27543 0.91988 0.0
H1796 H 0.33641 0.29789 0.93237 0.0
H1797 H 0.37306 0.31423 0.92321 0.0
H1798 H 0.3698 0.29184 0.91065 0.0
H1799 H 0.38652 0.30433 0.93774 0.0
H1800 H 0.36218 0.25882 0.02197 0.0
H1801 H 0.3561 0.22995 -0.00441 0.0
H1802 H 0.35119 0.2566 0.92297 0.0
C1803 C 0.36246 0.31913 0.97922 0.0
C1804 C 0.36721 0.32794 0.0049 0.0
C1805 C 0.3694 0.31806 0.02675 0.0
C1806 C 0.36677 0.29958 0.02297 0.0
C1807 C 0.36219 0.29135 -0.00281 0.0
C1808 C 0.36022 0.30099 0.97573 0.0
C1809 C 0.35616 0.28977 0.94974 0.0
C1810 C 0.33646 0.28468 0.93812 0.0
C1811 C 0.37235 0.30069 0.92913 0.0
C1812 C 0.35602 0.27218 0.95978 0.0
C1813 C 0.35934 0.27308 0.98717 0.0
C1814 C 0.35958 0.25805 0.00049 0.0
C1815 C 0.35619 0.24174 0.98536 0.0
C1816 C 0.35269 0.24068 0.95724 0.0
C1817 C 0.35303 0.2564 0.94454 0.0
H1818 H 0.68595 0.07994 0.98171 0.0
H1819 H 0.69938 0.04128 0.02306 0.0
H1820 H 0.73393 0.06287 0.01341 0.0
H1821 H 0.7181 0.08893 0.92815 0.0
H1822 H 0.72468 0.11362 0.92388 0.0
H1823 H 0.70151 0.09671 0.93746 0.0
H1824 H 0.70868 0.11854 0.97961 0.0
H1825 H 0.73199 0.13546 0.96618 0.0
H1826 H 0.73006 0.12556 -0.00081 0.0
H1827 H 0.76663 0.08762 -0.00256 0.0
H1828 H 0.7945 0.11116 0.97097 0.0
H1829 H 0.75978 0.13274 0.93715 0.0
C1830 C 0.69627 0.07629 0.98916 0.0
C1831 C 0.69015 0.05916 0.00348 0.0
C1832 C 0.70388 0.05444 0.0122 0.0
C1833 C 0.72351 0.06667 0.00698 0.0
C1834 C 0.72914 0.08342 0.99265 0.0
C1835 C 0.7159 0.08811 0.98349 0.0
C1836 C 0.72546 0.10571 0.96578 0.0
C1837 C 0.71693 0.10095 0.93713 0.0
C1838 C 0.72395 0.1223 0.97845 0.0
C1839 C 0.74604 0.10996 0.96607 0.0
C1840 C 0.74793 0.09722 0.98224 0.0
C1841 C 0.76539 0.09779 0.98491 0.0
C1842 C 0.78119 0.11132 0.96996 0.0
C1843 C 0.77935 0.12389 0.95223 0.0
C1844 C 0.76163 0.12343 0.95078 0.0
H1845 H 0.62338 0.93171 0.01532 0.0
H1846 H 0.68223 0.97747 0.00392 0.0
H1847 H 0.69357 0.95469 0.0116 0.0
H1848 H 0.63325 0.91351 0.07048 0.0
H1849 H 0.61585 0.88865 0.06375 0.0
H1850 H 0.61208 0.90709 0.05073 0.0
H1851 H 0.60926 0.8934 0.00238 0.0
H1852 H 0.61316 0.87492 0.01536 0.0
H1853 H 0.62844 0.89048 0.9891 0.0
H1854 H 0.69886 0.92833 0.02658 0.0
H1855 H 0.69801 0.90223 0.05314 0.0
H1856 H 0.63597 0.87419 0.05788 0.0
C1857 C 0.63857 0.93668 0.0134 0.0
C1858 C 0.65194 0.95616 0.00842 0.0
C1859 C 0.67179 0.96249 0.00732 0.0
C1860 C 0.67832 0.94962 0.01149 0.0
C1861 C 0.66482 0.93053 0.01706 0.0
C1862 C 0.64534 0.92412 0.01826 0.0
C1863 C 0.63415 0.90393 0.02921 0.0
C1864 C 0.62321 0.90328 0.05507 0.0
C1865 C 0.62044 0.88985 0.00772 0.0
C1866 C 0.65042 0.9003 0.03505 0.0
C1867 C 0.66794 0.91554 0.02706 0.0
C1868 C 0.6852 0.91615 0.03244 0.0
C1869 C 0.6846 0.90122 0.04737 0.0
C1870 C 0.66691 0.88615 0.05716 0.0
C1871 C 0.64961 0.88538 0.05008 0.0
H1872 H 0.03885 0.69343 0.04649 0.0
H1873 H 0.07323 0.67717 -0.00201 0.0
H1874 H 0.10177 0.70926 0.00573 0.0
H1875 H 0.06406 0.74491 0.02598 0.0
H1876 H 0.06201 0.75271 0.05934 0.0
H1877 H 0.04377 0.7295 0.04687 0.0
H1878 H 0.04876 0.71337 0.08847 0.0
H1879 H 0.06687 0.73647 0.10106 0.0
H1880 H 0.07253 0.71781 0.09598 0.0
H1881 H 0.12732 0.7411 0.0243 0.0
H1882 H 0.1476 0.76941 0.0529 0.0
H1883 H 0.09631 0.76607 0.08657 0.0
C1884 C 0.05229 0.69674 0.03705 0.0
C1885 C 0.05382 0.68281 0.02163 0.0
C1886 C 0.0717 0.68765 0.00981 0.0
C1887 C 0.08798 0.70587 0.01398 0.0
C1888 C 0.08606 0.7192 0.02965 0.0
C1889 C 0.06861 0.7149 0.04081 0.0
C1890 C 0.07067 0.73112 0.05866 0.0
C1891 C 0.05946 0.74009 0.04701 0.0
C1892 C 0.06434 0.72428 0.08775 0.0
C1893 C 0.09215 0.74481 0.05688 0.0
C1894 C 0.10076 0.73783 0.03975 0.0
C1895 C 0.12071 0.74696 0.03724 0.0
C1896 C 0.13214 0.76317 0.05346 0.0
C1897 C 0.12359 0.77005 0.072 0.0
C1898 C 0.10332 0.76119 0.07264 0.0
H1899 H 0.31536 0.36104 0.03289 0.0
H1900 H 0.31791 0.41064 -0.00409 0.0
H1901 H 0.28387 0.39819 0.00802 0.0
H1902 H 0.26553 0.326 0.01424 0.0
H1903 H 0.26091 0.31365 0.04586 0.0
H1904 H 0.2848 0.32558 0.03185 0.0
H1905 H 0.2982 0.34533 0.07608 0.0
H1906 H 0.2744 0.33346 0.09019 0.0
H1907 H 0.28808 0.35927 0.08865 0.0
H1908 H 0.24982 0.38109 0.02725 0.0
H1909 H 0.21989 0.36174 0.05365 0.0
H1910 H 0.24043 0.32395 0.07758 0.0
C1911 C 0.30873 0.36919 0.02693 0.0
C1912 C 0.31932 0.38679 0.01335 0.0
C1913 C 0.31009 0.39708 0.00628 0.0
C1914 C 0.29073 0.39009 0.01297 0.0
C1915 C 0.28078 0.37276 0.02665 0.0
C1916 C 0.28952 0.36248 0.03352 0.0
C1917 C 0.27623 0.34496 0.04976 0.0
C1918 C 0.2716 0.32645 0.03451 0.0
C1919 C 0.28474 0.34582 0.07782 0.0
C1920 C 0.2588 0.3472 0.05156 0.0
C1921 C 0.26149 0.36315 0.03784 0.0
C1922 C 0.24751 0.36847 0.03784 0.0
C1923 C 0.23056 0.35741 0.05275 0.0
C1924 C 0.22798 0.34147 0.06763 0.0
C1925 C 0.24211 0.33613 0.06641 0.0
H1926 H 0.72595 0.7119 0.37249 0.0
H1927 H 0.67895 0.65416 0.3565 0.0
H1928 H 0.70117 0.64178 0.36149 0.0
H1929 H 0.76523 0.70722 0.34141 0.0
H1930 H 0.78201 0.72109 0.36782 0.0
H1931 H 0.76325 0.72585 0.35868 0.0
H1932 H 0.75142 0.72082 0.40822 0.0
H1933 H 0.77026 0.71631 0.41747 0.0
H1934 H 0.74557 0.69881 0.42486 0.0
H1935 H 0.72793 0.63538 0.37159 0.0
H1936 H 0.75547 0.63487 0.39235 0.0
H1937 H 0.78453 0.69646 0.40427 0.0
C1938 C 0.72047 0.69672 0.36943 0.0
C1939 C 0.70083 0.684 0.36373 0.0
C1940 C 0.694 0.66414 0.36073 0.0
C1941 C 0.70654 0.65701 0.36331 0.0
C1942 C 0.72584 0.66991 0.36917 0.0
C1943 C 0.73272 0.68932 0.37256 0.0
C1944 C 0.7534 0.69978 0.38225 0.0
C1945 C 0.76676 0.71435 0.36128 0.0
C1946 C 0.75526 0.70949 0.40983 0.0
C1947 C 0.75695 0.68317 0.38443 0.0
C1948 C 0.74106 0.66613 0.3761 0.0
C1949 C 0.74054 0.64867 0.37782 0.0
C1950 C 0.75631 0.64852 0.3894 0.0
C1951 C 0.77219 0.66565 0.39953 0.0
C1952 C 0.77271 0.68323 0.39618 0.0
H1953 H 0.2801 0.0345 0.37492 0.0
H1954 H 0.33012 0.03679 0.33856 0.0
H1955 H 0.35009 0.07081 0.35269 0.0
H1956 H 0.29269 0.08433 0.36183 0.0
H1957 H 0.28407 0.08691 0.39426 0.0
H1958 H 0.27318 0.06371 0.37793 0.0
H1959 H 0.28008 0.04947 0.42009 0.0
H1960 H 0.29081 0.07254 0.43655 0.0
H1961 H 0.30431 0.0605 0.43289 0.0
H1962 H 0.36492 0.10398 0.37298 0.0
H1963 H 0.3742 0.13209 0.4029 0.0
H1964 H 0.31496 0.10725 0.42845 0.0
C1965 C 0.29518 0.04232 0.36947 0.0
C1966 C 0.30357 0.03319 0.35535 0.0
C1967 C 0.32345 0.04362 0.34927 0.0
C1968 C 0.33485 0.06296 0.35703 0.0
C1969 C 0.32617 0.07154 0.37111 0.0
C1970 C 0.30683 0.06147 0.3776 0.0
C1971 C 0.30148 0.07323 0.39562 0.0
C1972 C 0.287 0.07728 0.38156 0.0
C1973 C 0.29372 0.06335 0.42289 0.0
C1974 C 0.32088 0.09135 0.3987 0.0
C1975 C 0.33486 0.09031 0.38387 0.0
C1976 C 0.35407 0.10504 0.38447 0.0
C1977 C 0.3592 0.12098 0.40133 0.0
C1978 C 0.34523 0.12178 0.41762 0.0
C1979 C 0.32581 0.107 0.41582 0.0
H1980 H 0.97315 0.2489 0.31966 0.0
H1981 H 0.97349 0.30144 0.33929 0.0
H1982 H 0.94061 0.28237 0.35752 0.0
H1983 H 0.92004 0.21809 0.30453 0.0
H1984 H 0.91901 0.19763 0.32026 0.0
H1985 H 0.94067 0.21508 0.30344 0.0
H1986 H 0.96028 0.21993 0.34706 0.0
H1987 H 0.9388 0.20249 0.36385 0.0
H1988 H 0.95301 0.22629 0.37801 0.0
H1989 H 0.91048 0.25824 0.38036 0.0
H1990 H 0.88671 0.23137 0.40808 0.0
H1991 H 0.90591 0.19451 0.37395 0.0
C1992 C 0.96608 0.25641 0.32696 0.0
C1993 C 0.97585 0.27667 0.32785 0.0
C1994 C 0.96627 0.28593 0.33827 0.0
C1995 C 0.94753 0.2752 0.3485 0.0
C1996 C 0.9385 0.25523 0.34802 0.0
C1997 C 0.94746 0.24592 0.33742 0.0
C1998 C 0.93589 0.22457 0.34267 0.0
C1999 C 0.92846 0.21317 0.31614 0.0
C2000 C 0.9477 0.21795 0.35887 0.0
C2001 C 0.91954 0.22343 0.35916 0.0
C2002 C 0.92103 0.2412 0.36143 0.0
C2003 C 0.90888 0.24419 0.37819 0.0
C2004 C 0.89542 0.22887 0.39384 0.0
C2005 C 0.89433 0.21085 0.39276 0.0
C2006 C 0.90602 0.20795 0.37442 0.0
H2007 H 0.01039 0.372 0.29914 0.0
H2008 H 0.05888 0.40013 0.35401 0.0
H2009 H 0.05893 0.43053 0.34904 0.0
H2010 H 0.02607 0.40806 0.25388 0.0
H2011 H 0.00289 0.40509 0.24629 0.0
H2012 H 0.0045 0.38504 0.25802 0.0
H2013 H 0.98125 0.38037 0.29727 0.0
H2014 H 0.9796 0.40051 0.28561 0.0
H2015 H 0.98684 0.40015 0.31982 0.0
H2016 H 0.05733 0.45882 0.33167 0.0
H2017 H 0.05443 0.48211 0.30338 0.0
H2018 H 0.00555 0.43522 0.26223 0.0
C2019 C 0.0207 0.38442 0.31069 0.0
C2020 C 0.03461 0.3837 0.327 0.0
C2021 C 0.048 0.40032 0.34153 0.0
C2022 C 0.0481 0.41764 0.33889 0.0
C2023 C 0.03448 0.41799 0.32205 0.0
C2024 C 0.02087 0.40172 0.30846 0.0
C2025 C 0.00904 0.40621 0.28956 0.0
C2026 C 0.01075 0.40079 0.26022 0.0
C2027 C 0.98793 0.39622 0.29862 0.0
C2028 C 0.01881 0.42772 0.29346 0.0
C2029 C 0.03325 0.43426 0.31259 0.0
C2030 C 0.04572 0.45383 0.3172 0.0
C2031 C 0.04388 0.467 0.30112 0.0
C2032 C 0.02972 0.46053 0.28058 0.0
C2033 C 0.0165 0.44064 0.27777 0.0
H2034 H 0.62001 0.6425 0.3235 0.0
H2035 H 0.57244 0.64828 0.35273 0.0
H2036 H 0.54982 0.61436 0.34096 0.0
H2037 H 0.59576 0.61398 0.26682 0.0
H2038 H 0.60678 0.59946 0.26857 0.0
H2039 H 0.61929 0.62361 0.28165 0.0
H2040 H 0.62261 0.61103 0.32797 0.0
H2041 H 0.60995 0.58678 0.31504 0.0
H2042 H 0.60137 0.59295 0.34488 0.0
H2043 H 0.53207 0.5801 0.32367 0.0
H2044 H 0.52076 0.54941 0.29882 0.0
H2045 H 0.57987 0.5664 0.28088 0.0
C2046 C 0.60487 0.63659 0.32773 0.0
C2047 C 0.59804 0.64806 0.33914 0.0
C2048 C 0.57805 0.6398 0.34398 0.0
C2049 C 0.56508 0.6205 0.33753 0.0
C2050 C 0.57229 0.60961 0.32625 0.0
C2051 C 0.59172 0.6174 0.32125 0.0
C2052 C 0.59564 0.60308 0.30718 0.0
C2053 C 0.60491 0.61048 0.27941 0.0
C2054 C 0.60813 0.59817 0.32483 0.0
C2055 C 0.57537 0.58617 0.30453 0.0
C2056 C 0.56209 0.59005 0.31601 0.0
C2057 C 0.54236 0.57682 0.31484 0.0
C2058 C 0.53605 0.55942 0.30087 0.0
C2059 C 0.54946 0.55563 0.28806 0.0
C2060 C 0.56934 0.56898 0.2906 0.0
H2061 H 0.3544 0.99356 0.29673 0.0
H2062 H 0.33861 0.94797 0.35433 0.0
H2063 H 0.36814 0.94736 0.34291 0.0
H2064 H 0.37102 0.9755 0.24697 0.0
H2065 H 0.39058 0.99838 0.23625 0.0
H2066 H 0.36964 0.99691 0.2515 0.0
H2067 H 0.39114 0.02208 0.28759 0.0
H2068 H 0.4122 0.02363 0.2724 0.0
H2069 H 0.40725 0.01796 0.30761 0.0
H2070 H 0.39716 0.94897 0.32091 0.0
H2071 H 0.42271 0.95234 0.29014 0.0
H2072 H 0.42054 0.99816 0.24867 0.0
C2073 C 0.35732 0.98369 0.30734 0.0
C2074 C 0.34421 0.97082 0.32646 0.0
C2075 C 0.34848 0.95802 0.3397 0.0
C2076 C 0.36525 0.95761 0.3334 0.0
C2077 C 0.37771 0.97027 0.31408 0.0
C2078 C 0.374 0.98319 0.30142 0.0
C2079 C 0.38889 0.99431 0.28002 0.0
C2080 C 0.37946 0.99107 0.25204 0.0
C2081 C 0.40056 0.01577 0.28736 0.0
C2082 C 0.40113 0.98511 0.28184 0.0
C2083 C 0.39462 0.97145 0.30181 0.0
C2084 C 0.40265 0.95993 0.30562 0.0
C2085 C 0.4173 0.96206 0.28811 0.0
C2086 C 0.4238 0.9756 0.26697 0.0
C2087 C 0.41594 0.98765 0.26455 0.0
H2088 H 0.57414 0.94351 0.33343 0.0
H2089 H 0.62887 0.99544 0.31946 0.0
H2090 H 0.61172 0.01195 0.30539 0.0
H2091 H 0.55219 0.94598 0.27682 0.0
H2092 H 0.52861 0.93656 0.29135 0.0
H2093 H 0.54512 0.93037 0.30554 0.0
H2094 H 0.54166 0.94311 0.35217 0.0
H2095 H 0.52525 0.94958 0.33787 0.0
H2096 H 0.54652 0.96739 0.35538 0.0
H2097 H 0.58901 0.02105 0.28598 0.0
H2098 H 0.56307 0.02095 0.2596 0.0
H2099 H 0.52322 0.9632 0.28621 0.0
C2100 C 0.58256 0.95852 0.32816 0.0
C2101 C 0.60286 0.9682 0.3277 0.0
C2102 C 0.6133 0.98773 0.32007 0.0
C2103 C 0.60368 0.99727 0.31226 0.0
C2104 C 0.58362 0.98717 0.3124 0.0
C2105 C 0.57318 0.9682 0.3202 0.0
C2106 C 0.5519 0.95973 0.31508 0.0
C2107 C 0.54401 0.94214 0.29606 0.0
C2108 C 0.54067 0.95466 0.34172 0.0
C2109 C 0.55206 0.97654 0.30174 0.0
C2110 C 0.57042 0.99243 0.30106 0.0
C2111 C 0.57451 0.00888 0.28696 0.0
C2112 C 0.5597 0.00874 0.27209 0.0
C2113 C 0.54111 0.99218 0.27124 0.0
C2114 C 0.5371 0.97628 0.28729 0.0
H2115 H -0.00125 0.63162 0.31554 0.0
H2116 H 0.05037 0.6552 0.36453 0.0
H2117 H 0.05136 0.62551 0.35777 0.0
H2118 H 0.97845 0.57991 0.3381 0.0
H2119 H 0.96883 0.57087 0.30496 0.0
H2120 H 0.97028 0.59257 0.31745 0.0
H2121 H 0.98988 0.61068 0.27528 0.0
H2122 H 0.98859 0.58916 0.26277 0.0
H2123 H 0.01168 0.61064 0.26733 0.0
H2124 H 0.05099 0.59714 0.33734 0.0
H2125 H 0.04801 0.57142 0.3077 0.0
H2126 H 0.99365 0.56287 0.27749 0.0
C2127 C 0.0099 0.63026 0.3255 0.0
C2128 C 0.02449 0.6457 0.34052 0.0
C2129 C 0.03897 0.64351 0.35307 0.0
C2130 C 0.03964 0.62667 0.34939 0.0
C2131 C 0.0254 0.61192 0.33377 0.0
C2132 C 0.01051 0.61333 0.32256 0.0
C2133 C 0.99788 0.59601 0.30497 0.0
C2134 C 0.97766 0.58413 0.31711 0.0
C2135 C 0.99698 0.60199 0.27588 0.0
C2136 C 0.00878 0.58536 0.30651 0.0
C2137 C 0.02451 0.59468 0.3234 0.0
C2138 C 0.03832 0.58926 0.32483 0.0
C2139 C 0.03638 0.57438 0.3079 0.0
C2140 C 0.02057 0.56483 0.28987 0.0
C2141 C 0.00613 0.56988 0.2905 0.0
H2142 H 0.34962 0.40275 0.32226 0.0
H2143 H 0.35911 0.35775 0.35081 0.0
H2144 H 0.39401 0.37861 0.34306 0.0
H2145 H 0.38216 0.4164 0.26868 0.0
H2146 H 0.39015 0.44159 0.27111 0.0
H2147 H 0.36643 0.42411 0.28233 0.0
H2148 H 0.37395 0.44071 0.32932 0.0
H2149 H 0.39782 0.45815 0.31826 0.0
H2150 H 0.39465 0.44414 0.34788 0.0
H2151 H 0.42758 0.40353 0.32931 0.0
H2152 H 0.45623 0.42873 0.30565 0.0
H2153 H 0.42468 0.45699 0.28492 0.0
C2154 C 0.35909 0.39743 0.32735 0.0
C2155 C 0.35169 0.3787 0.33737 0.0
C2156 C 0.36449 0.37207 0.34314 0.0
C2157 C 0.38435 0.38387 0.33902 0.0
C2158 C 0.39119 0.40224 0.32899 0.0
C2159 C 0.37891 0.40891 0.32296 0.0
C2160 C 0.38959 0.42836 0.30971 0.0
C2161 C 0.38161 0.42755 0.28128 0.0
C2162 C 0.38896 0.44375 0.32735 0.0
C2163 C 0.40969 0.43139 0.30862 0.0
C2164 C 0.41043 0.41638 0.32038 0.0
C2165 C 0.42724 0.41548 0.32036 0.0
C2166 C 0.44349 0.42992 0.30708 0.0
C2167 C 0.44267 0.44485 0.29371 0.0
C2168 C 0.42573 0.44585 0.29528 0.0
H2169 H 0.28864 0.25764 0.38193 0.0
H2170 H 0.33947 0.29604 0.33631 0.0
H2171 H 0.35352 0.27577 0.34611 0.0
H2172 H 0.31371 0.25303 0.43439 0.0
H2173 H 0.29646 0.22833 0.44172 0.0
H2174 H 0.28865 0.24317 0.42621 0.0
H2175 H 0.27365 0.21865 0.38679 0.0
H2176 H 0.28155 0.20375 0.40221 0.0
H2177 H 0.2884 0.21176 0.36806 0.0
H2178 H 0.3635 0.25371 0.36485 0.0
H2179 H 0.37059 0.23436 0.39568 0.0
H2180 H 0.31423 0.21141 0.43181 0.0
C2181 C 0.30243 0.26131 0.37331 0.0
C2182 C 0.31286 0.27801 0.35785 0.0
C2183 C 0.33122 0.28305 0.34782 0.0
C2184 C 0.33922 0.27157 0.35316 0.0
C2185 C 0.32875 0.25529 0.36889 0.0
C2186 C 0.31082 0.25027 0.37909 0.0
C2187 C 0.30394 0.23396 0.39891 0.0
C2188 C 0.3005 0.24 0.42696 0.0
C2189 C 0.28581 0.21596 0.38835 0.0
C2190 C 0.32107 0.23107 0.39899 0.0
C2191 C 0.33495 0.2431 0.38092 0.0
C2192 C 0.35261 0.244 0.37875 0.0
C2193 C 0.35648 0.23286 0.39623 0.0
C2194 C 0.34289 0.22129 0.41592 0.0
C2195 C 0.32475 0.21997 0.41668 0.0
H2196 H 0.70606 0.01057 0.3861 0.0
H2197 H 0.71801 0.01618 0.30038 0.0
H2198 H 0.74802 0.04735 0.30894 0.0
H2199 H 0.72236 0.05921 0.40086 0.0
H2200 H 0.73257 0.05897 0.43299 0.0
H2201 H 0.71249 0.03727 0.41968 0.0
H2202 H 0.73197 0.01995 0.42366 0.0
H2203 H 0.75209 0.04159 0.43712 0.0
H2204 H 0.7552 0.03014 0.40777 0.0
H2205 H 0.77639 0.07925 0.32805 0.0
H2206 H 0.80008 0.1072 0.35543 0.0
H2207 H 0.76935 0.07807 0.42795 0.0
C2208 C 0.71495 0.01832 0.36905 0.0
C2209 C 0.70966 0.01108 0.34256 0.0
C2210 C 0.72184 0.02153 0.32086 0.0
C2211 C 0.73886 0.03922 0.32555 0.0
C2212 C 0.74357 0.04601 0.35206 0.0
C2213 C 0.73197 0.03567 0.37339 0.0
C2214 C 0.74001 0.04568 0.40004 0.0
C2215 C 0.72603 0.05057 0.41421 0.0
C2216 C 0.74513 0.03362 0.4182 0.0
C2217 C 0.75782 0.06351 0.39049 0.0
C2218 C 0.75976 0.06364 0.36281 0.0
C2219 C 0.77501 0.07917 0.34975 0.0
C2220 C 0.78843 0.09496 0.36544 0.0
C2221 C 0.78645 0.09503 0.39384 0.0
C2222 C 0.77109 0.07884 0.40627 0.0
H2223 H 0.96857 0.67999 0.36753 0.0
H2224 H 0.97399 0.72923 0.32546 0.0
H2225 H 0.94019 0.71871 0.33626 0.0
H2226 H 0.91775 0.64586 0.34983 0.0
H2227 H 0.91258 0.63498 0.38262 0.0
H2228 H 0.93637 0.645 0.36859 0.0
H2229 H 0.95083 0.66658 0.41108 0.0
H2230 H 0.92715 0.65658 0.42523 0.0
H2231 H 0.94204 0.68218 0.42134 0.0
H2232 H 0.90659 0.70437 0.35521 0.0
H2233 H 0.87712 0.68857 0.38327 0.0
H2234 H 0.89399 0.64906 0.4128 0.0
C2235 C 0.96256 0.68836 0.3601 0.0
C2236 C 0.97392 0.70537 0.34551 0.0
C2237 C 0.96557 0.71612 0.33665 0.0
C2238 C 0.94634 0.7102 0.34254 0.0
C2239 C 0.9356 0.69349 0.35727 0.0
C2240 C 0.94345 0.68274 0.36597 0.0
C2241 C 0.9295 0.66637 0.38358 0.0
C2242 C 0.9237 0.6469 0.37035 0.0
C2243 C 0.93788 0.66804 0.41198 0.0
C2244 C 0.91281 0.6699 0.38407 0.0
C2245 C 0.91641 0.68539 0.36842 0.0
C2246 C 0.9035 0.69205 0.36722 0.0
C2247 C 0.88678 0.68297 0.38308 0.0
C2248 C 0.88334 0.66763 0.40006 0.0
C2249 C 0.89627 0.66073 0.39986 0.0
H2250 H 0.37458 0.00768 0.71265 0.0
H2251 H 0.4114 0.06337 0.67691 0.0
H2252 H 0.43943 0.05902 0.68234 0.0
H2253 H 0.40588 0.01159 0.76251 0.0
H2254 H 0.39949 0.98677 0.76129 0.0
H2255 H 0.38232 0.99336 0.75111 0.0
H2256 H 0.37876 0.97681 0.70469 0.0
H2257 H 0.39609 0.97028 0.71474 0.0
H2258 H 0.39981 0.98375 0.68437 0.0
H2259 H 0.46411 0.05028 0.69785 0.0
H2260 H 0.48248 0.03797 0.72214 0.0
H2261 H 0.42903 0.98776 0.74549 0.0
C2262 C 0.38846 0.01882 0.70546 0.0
C2263 C 0.39081 0.03586 0.69435 0.0
C2264 C 0.40925 0.05015 0.68537 0.0
C2265 C 0.42524 0.04778 0.6883 0.0
C2266 C 0.42247 0.03091 0.69984 0.0
C2267 C 0.40445 0.01661 0.70802 0.0
C2268 C 0.40535 0.00051 0.72173 0.0
C2269 C 0.39783 0.99793 0.75087 0.0
C2270 C 0.39435 0.98173 0.70539 0.0
C2271 C 0.42677 0.00826 0.72098 0.0
C2272 C 0.4365 0.02571 0.70802 0.0
C2273 C 0.45661 0.03641 0.70742 0.0
C2274 C 0.46695 0.02933 0.72108 0.0
C2275 C 0.45707 0.0118 0.73505 0.0
C2276 C 0.43683 0.00096 0.73425 0.0
H2277 H 0.97845 0.35661 0.69664 0.0
H2278 H 0.92236 0.34346 0.6676 0.0
H2279 H 0.92999 0.37628 0.68008 0.0
H2280 H 0.9791 0.38281 0.75386 0.0
H2281 H 0.00453 0.3999 0.75218 0.0
H2282 H 0.99516 0.37607 0.73868 0.0
H2283 H 0.01069 0.39033 0.69246 0.0
H2284 H 0.02001 0.41424 0.70583 0.0
H2285 H 0.00516 0.40671 0.67601 0.0
H2286 H 0.94348 0.41047 0.69816 0.0
H2287 H 0.96069 0.44163 0.72296 0.0
H2288 H 0.00725 0.43142 0.74021 0.0
C2289 C 0.96782 0.36065 0.69255 0.0
C2290 C 0.94984 0.34746 0.681 0.0
C2291 C 0.93626 0.35332 0.6764 0.0
C2292 C 0.9405 0.37196 0.6833 0.0
C2293 C 0.95837 0.38458 0.69477 0.0
C2294 C 0.97176 0.37909 0.69944 0.0
C2295 C 0.98938 0.39476 0.71364 0.0
C2296 C 0.99219 0.38798 0.74122 0.0
C2297 C 0.00737 0.40193 0.69592 0.0
C2298 C 0.98372 0.40984 0.71671 0.0
C2299 C 0.96592 0.40391 0.70541 0.0
C2300 C 0.9575 0.41531 0.70686 0.0
C2301 C 0.96735 0.43297 0.72081 0.0
C2302 C 0.98523 0.4388 0.73328 0.0
C2303 C 0.99361 0.42726 0.73065 0.0
H2304 H 0.65358 0.59921 0.68071 0.0
H2305 H 0.65176 0.65107 0.69693 0.0
H2306 H 0.61753 0.63133 0.7096 0.0
H2307 H 0.60313 0.56938 0.65522 0.0
H2308 H 0.60024 0.54819 0.67123 0.0
H2309 H 0.62357 0.5663 0.65926 0.0
H2310 H 0.63801 0.56924 0.7069 0.0
H2311 H 0.61486 0.55104 0.71879 0.0
H2312 H 0.62722 0.57413 0.73545 0.0
H2313 H 0.58532 0.6062 0.72714 0.0
H2314 H 0.55881 0.5781 0.74994 0.0
H2315 H 0.58117 0.54267 0.72087 0.0
C2316 C 0.64591 0.60648 0.68636 0.0
C2317 C 0.6554 0.62673 0.68777 0.0
C2318 C 0.64483 0.63559 0.6956 0.0
C2319 C 0.62533 0.62449 0.70267 0.0
C2320 C 0.61651 0.60454 0.70146 0.0
C2321 C 0.62648 0.59563 0.69337 0.0
C2322 C 0.61441 0.57408 0.69648 0.0
C2323 C 0.61008 0.56389 0.6689 0.0
C2324 C 0.6242 0.56671 0.71554 0.0
C2325 C 0.5964 0.57227 0.70885 0.0
C2326 C 0.59772 0.58996 0.71108 0.0
C2327 C 0.58388 0.59222 0.72482 0.0
C2328 C 0.56881 0.57619 0.73758 0.0
C2329 C 0.56773 0.55819 0.73647 0.0
C2330 C 0.58126 0.55609 0.72102 0.0
H2331 H 0.71176 0.73071 0.62092 0.0
H2332 H 0.71267 0.74164 0.70676 0.0
H2333 H 0.70897 0.76972 0.69748 0.0
H2334 H 0.73927 0.7806 0.60135 0.0
H2335 H 0.72575 0.7763 0.57065 0.0
H2336 H 0.7288 0.75757 0.5846 0.0
H2337 H 0.69176 0.73483 0.58522 0.0
H2338 H 0.68863 0.75349 0.57128 0.0
H2339 H 0.67696 0.74235 0.60246 0.0
H2340 H 0.70283 0.79574 0.67747 0.0
H2341 H 0.69601 0.81679 0.64906 0.0
H2342 H 0.70222 0.78926 0.57745 0.0
C2343 C 0.7112 0.739 0.63782 0.0
C2344 C 0.71231 0.73396 0.66453 0.0
C2345 C 0.71181 0.74531 0.68609 0.0
C2346 C 0.70972 0.76125 0.681 0.0
C2347 C 0.70855 0.76578 0.65426 0.0
C2348 C 0.70952 0.75502 0.6331 0.0
C2349 C 0.708 0.76259 0.60618 0.0
C2350 C 0.72656 0.76969 0.58974 0.0
C2351 C 0.69028 0.74741 0.59037 0.0
C2352 C 0.70557 0.77905 0.61535 0.0
C2353 C 0.70586 0.78081 0.64307 0.0
C2354 C 0.70278 0.79456 0.65572 0.0
C2355 C 0.69898 0.80649 0.63952 0.0
C2356 C 0.69827 0.80445 0.61111 0.0
C2357 C 0.70224 0.79093 0.59914 0.0
H2358 H 0.26009 0.9853 0.66145 0.0
H2359 H 0.30676 0.97705 0.68657 0.0
H2360 H 0.28759 0.94281 0.67314 0.0
H2361 H 0.21998 0.93821 0.6802 0.0
H2362 H 0.20613 0.93628 0.65068 0.0
H2363 H 0.22261 0.95953 0.66498 0.0
H2364 H 0.23999 0.97076 0.61897 0.0
H2365 H 0.2234 0.94767 0.60452 0.0
H2366 H 0.24892 0.95685 0.60256 0.0
H2367 H 0.2637 0.90971 0.65525 0.0
H2368 H 0.23928 0.88203 0.62842 0.0
H2369 H 0.20921 0.91258 0.61318 0.0
C2370 C 0.26617 0.97622 0.66446 0.0
C2371 C 0.28481 0.98373 0.67528 0.0
C2372 C 0.29247 0.97154 0.67832 0.0
C2373 C 0.28163 0.95205 0.67099 0.0
C2374 C 0.26323 0.94506 0.66044 0.0
C2375 C 0.2557 0.95687 0.65681 0.0
C2376 C 0.23646 0.9464 0.64254 0.0
C2377 C 0.22034 0.94502 0.66069 0.0
C2378 C 0.23725 0.95599 0.61555 0.0
C2379 C 0.23446 0.92693 0.6383 0.0
C2380 C 0.24982 0.92627 0.6493 0.0
C2381 C 0.25152 0.91001 0.64679 0.0
C2382 C 0.23754 0.8943 0.63176 0.0
C2383 C 0.22233 0.89519 0.61917 0.0
C2384 C 0.22054 0.91149 0.62309 0.0
H2385 H 0.02571 0.29721 0.66805 0.0
H2386 H 0.02873 0.34859 0.63727 0.0
H2387 H 0.06228 0.36071 0.62309 0.0
H2388 H 0.0782 0.31981 0.68845 0.0
H2389 H 0.07886 0.29894 0.67705 0.0
H2390 H 0.05692 0.29637 0.69061 0.0
H2391 H 0.03874 0.27869 0.64693 0.0
H2392 H 0.0605 0.28109 0.63344 0.0
H2393 H 0.04766 0.29011 0.61485 0.0
H2394 H 0.09271 0.36456 0.60511 0.0
H2395 H 0.11645 0.35871 0.58205 0.0
H2396 H 0.09395 0.30479 0.62377 0.0
C2397 C 0.03369 0.31132 0.65922 0.0
C2398 C 0.02473 0.32207 0.65402 0.0
C2399 C 0.03538 0.34019 0.64159 0.0
C2400 C 0.0545 0.34725 0.63366 0.0
C2401 C 0.06278 0.33605 0.63833 0.0
C2402 C 0.05271 0.31845 0.65086 0.0
C2403 C 0.06374 0.3079 0.64977 0.0
C2404 C 0.06979 0.30563 0.67816 0.0
C2405 C 0.05196 0.28831 0.63538 0.0
C2406 C 0.08104 0.32179 0.63331 0.0
C2407 C 0.08048 0.3382 0.62759 0.0
C2408 C 0.0936 0.35205 0.61003 0.0
C2409 C 0.10706 0.34865 0.59707 0.0
C2410 C 0.10721 0.3315 0.60161 0.0
C2411 C 0.09457 0.31833 0.62077 0.0
H2412 H 0.24831 0.27439 0.66942 0.0
H2413 H 0.3014 0.32947 0.66603 0.0
H2414 H 0.2833 0.34445 0.64976 0.0
H2415 H 0.22861 0.27905 0.60991 0.0
H2416 H 0.20416 0.26718 0.62192 0.0
H2417 H 0.22104 0.26146 0.6362 0.0
H2418 H 0.21384 0.26977 0.68382 0.0
H2419 H 0.19708 0.27576 0.66953 0.0
H2420 H 0.21673 0.29307 0.69016 0.0
H2421 H 0.26016 0.35259 0.62878 0.0
H2422 H 0.234 0.35276 0.60317 0.0
H2423 H 0.1959 0.29285 0.62182 0.0
C2424 C 0.25613 0.28966 0.66564 0.0
C2425 C 0.2763 0.30074 0.66905 0.0
C2426 C 0.28596 0.32066 0.66363 0.0
C2427 C 0.27578 0.32934 0.65453 0.0
C2428 C 0.25592 0.31796 0.65125 0.0
C2429 C 0.2462 0.29856 0.65669 0.0
C2430 C 0.22509 0.28923 0.64951 0.0
C2431 C 0.21941 0.2733 0.62811 0.0
C2432 C 0.21244 0.2815 0.67477 0.0
C2433 C 0.22457 0.30626 0.63822 0.0
C2434 C 0.24245 0.32278 0.63974 0.0
C2435 C 0.24599 0.33988 0.62807 0.0
C2436 C 0.23107 0.3399 0.6137 0.0
C2437 C 0.21288 0.32297 0.61125 0.0
C2438 C 0.20946 0.30615 0.62437 0.0
H2439 H 0.69165 0.99552 0.61291 0.0
H2440 H 0.70918 0.99528 0.69531 0.0
H2441 H 0.7038 0.96253 0.6881 0.0
H2442 H 0.65491 0.94525 0.60755 0.0
H2443 H 0.66111 0.94323 0.57323 0.0
H2444 H 0.66491 0.96584 0.58587 0.0
H2445 H 0.7009 0.98238 0.57232 0.0
H2446 H 0.69709 0.95985 0.55948 0.0
H2447 H 0.71539 0.97292 0.58457 0.0
H2448 H 0.69689 0.92934 0.67051 0.0
H2449 H 0.6911 0.90074 0.64392 0.0
H2450 H 0.681 0.9255 0.57301 0.0
C2451 C 0.69412 0.98851 0.62959 0.0
C2452 C 0.70065 0.99785 0.65473 0.0
C2453 C 0.70409 0.98832 0.67587 0.0
C2454 C 0.70102 0.9697 0.67199 0.0
C2455 C 0.69467 0.96092 0.64679 0.0
C2456 C 0.69142 0.97016 0.62594 0.0
C2457 C 0.68589 0.95839 0.60027 0.0
C2458 C 0.66549 0.95285 0.59121 0.0
C2459 C 0.7007 0.96901 0.57786 0.0
C2460 C 0.68659 0.9411 0.6098 0.0
C2461 C 0.69141 0.94253 0.63669 0.0
C2462 C 0.69306 0.9281 0.64941 0.0
C2463 C 0.68983 0.91192 0.6341 0.0
C2464 C 0.68516 0.9104 0.6063 0.0
C2465 C 0.68369 0.92543 0.59433 0.0
H2466 H 0.01647 0.746 0.6434 0.0
H2467 H 0.02942 0.70613 0.68216 0.0
H2468 H 0.06411 0.72807 0.67368 0.0
H2469 H 0.0494 0.75668 0.59027 0.0
H2470 H 0.0558 0.78142 0.58754 0.0
H2471 H 0.03251 0.76394 0.60015 0.0
H2472 H 0.039 0.78454 0.64351 0.0
H2473 H 0.06248 0.80194 0.63112 0.0
H2474 H 0.0601 0.79104 0.66347 0.0
H2475 H 0.09711 0.75354 0.65925 0.0
H2476 H 0.12505 0.77747 0.63318 0.0
H2477 H 0.0905 0.79971 0.60098 0.0
C2478 C 0.0267 0.7421 0.65046 0.0
C2479 C 0.0204 0.72455 0.66374 0.0
C2480 C 0.03404 0.71958 0.67202 0.0
C2481 C 0.05375 0.73202 0.66753 0.0
C2482 C 0.05955 0.74926 0.65438 0.0
C2483 C 0.04639 0.75413 0.6455 0.0
C2484 C 0.05611 0.77226 0.62889 0.0
C2485 C 0.04798 0.76833 0.60001 0.0
C2486 C 0.05431 0.7884 0.64257 0.0
C2487 C 0.07671 0.77662 0.6294 0.0
C2488 C 0.07848 0.76348 0.64484 0.0
C2489 C 0.09595 0.76402 0.64731 0.0
C2490 C 0.1118 0.77778 0.63265 0.0
C2491 C 0.10996 0.79056 0.61536 0.0
C2492 C 0.09234 0.79031 0.61442 0.0
H2493 H 0.95114 0.59939 0.69342 0.0
H2494 H 0.00498 0.63613 0.65271 0.0
H2495 H 0.0151 0.61235 0.66052 0.0
H2496 H 0.97198 0.58843 0.74556 0.0
H2497 H 0.95251 0.56415 0.75009 0.0
H2498 H 0.94779 0.58178 0.73626 0.0
H2499 H 0.9321 0.56006 0.69424 0.0
H2500 H 0.93684 0.54234 0.70798 0.0
H2501 H 0.9455 0.55182 0.67488 0.0
H2502 H 0.02059 0.58624 0.67646 0.0
H2503 H 0.02304 0.56239 0.70415 0.0
H2504 H 0.96677 0.54398 0.73793 0.0
C2505 C 0.96474 0.60201 0.68536 0.0
C2506 C 0.97711 0.61922 0.67182 0.0
C2507 C 0.99523 0.62279 0.66267 0.0
C2508 C 0.00102 0.60934 0.66692 0.0
C2509 C 0.98864 0.59259 0.68079 0.0
C2510 C 0.97096 0.589 0.69017 0.0
C2511 C 0.96171 0.57152 0.7081 0.0
C2512 C 0.95831 0.57679 0.73668 0.0
C2513 C 0.94292 0.55548 0.69554 0.0
C2514 C 0.97715 0.56615 0.70795 0.0
C2515 C 0.9923 0.57813 0.69144 0.0
C2516 C 0.0087 0.57662 0.68917 0.0
C2517 C 0.00992 0.56295 0.70484 0.0
C2518 C 0.995 0.55124 0.72293 0.0
C2519 C 0.97824 0.55259 0.72397 0.0
H2520 H 0.40123 0.35503 0.70236 0.0
H2521 H 0.35565 0.36809 0.71174 0.0
H2522 H 0.37989 0.40249 0.71682 0.0
H2523 H 0.43031 0.38598 0.75289 0.0
H2524 H 0.4528 0.3929 0.73634 0.0
H2525 H 0.43194 0.36999 0.72889 0.0
H2526 H 0.43588 0.3785 0.67813 0.0
H2527 H 0.45662 0.40165 0.68562 0.0
H2528 H 0.43657 0.40005 0.66742 0.0
H2529 H 0.40851 0.43454 0.72615 0.0
H2530 H 0.43908 0.46099 0.74448 0.0
H2531 H 0.46637 0.42756 0.72977 0.0
C2532 C 0.39638 0.36521 0.7049 0.0
C2533 C 0.37657 0.35894 0.70644 0.0
C2534 C 0.37076 0.3726 0.71047 0.0
C2535 C 0.38442 0.39219 0.71309 0.0
C2536 C 0.40386 0.39792 0.71169 0.0
C2537 C 0.40986 0.38481 0.70792 0.0
C2538 C 0.43151 0.39436 0.71068 0.0
C2539 C 0.43695 0.38527 0.73356 0.0
C2540 C 0.44068 0.39359 0.68386 0.0
C2541 C 0.43668 0.41472 0.71764 0.0
C2542 C 0.42056 0.41656 0.7174 0.0
C2543 C 0.42131 0.43343 0.7258 0.0
C2544 C 0.43874 0.44843 0.73597 0.0
C2545 C 0.45511 0.44643 0.73775 0.0
C2546 C 0.45425 0.42969 0.7275 0.0
H2547 H 0.64949 0.03035 0.70162 0.0
H2548 H 0.65073 0.07913 0.66402 0.0
H2549 H 0.61655 0.06593 0.67553 0.0
H2550 H 0.59965 0.99414 0.68338 0.0
H2551 H 0.59515 0.98224 0.71535 0.0
H2552 H 0.61908 0.99434 0.70146 0.0
H2553 H 0.63214 0.01476 0.74521 0.0
H2554 H 0.60831 0.00267 0.75923 0.0
H2555 H 0.62156 0.02846 0.75705 0.0
H2556 H 0.58283 0.04856 0.69369 0.0
H2557 H 0.55315 0.02969 0.7205 0.0
H2558 H 0.5742 0.99276 0.74684 0.0
C2559 C 0.64248 0.03808 0.69542 0.0
C2560 C 0.65273 0.0557 0.6818 0.0
C2561 C 0.64315 0.0656 0.6745 0.0
C2562 C 0.6237 0.05816 0.68077 0.0
C2563 C 0.61403 0.04083 0.69441 0.0
C2564 C 0.62312 0.03097 0.7018 0.0
C2565 C 0.60999 0.01356 0.71842 0.0
C2566 C 0.60571 0.99497 0.70377 0.0
C2567 C 0.61851 0.01496 0.74664 0.0
C2568 C 0.59229 0.01544 0.71974 0.0
C2569 C 0.59474 0.03104 0.70537 0.0
C2570 C 0.58065 0.03617 0.70478 0.0
C2571 C 0.56382 0.02535 0.71991 0.0
C2572 C 0.56146 0.00982 0.73562 0.0
C2573 C 0.57568 0.00457 0.73492 0.0
loop_
_geom_bond_atom_site_label_1
_geom_bond_atom_site_label_2
_geom_bond_distance
_geom_bond_site_symmetry_2
_ccdc_geom_bond_type
C0 O1 1.306 1_556 S
C0 O3 1.160 . S
O1 C0 1.306 1_554 S
O1 Cd2 2.228 . S
Cd2 O1 2.228 . S
Cd2 O6 2.273 . S
Cd2 O10 2.277 1_554 S
O3 C0 1.160 . S
O3 Cd4 2.203 1_656 S
Cd4 O3 2.203 1_454 S
Cd4 O6 2.411 1_455 S
Cd4 O7 2.333 . S
Cd4 O8 2.352 . S
Cd4 O12 2.277 1_554 S
Cd4 O13 2.356 . S
C5 O10 1.209 1_455 S
C5 O12 1.226 . S
O6 Cd2 2.273 . S
O6 Cd4 2.411 1_655 S
O6 C9 1.320 1_655 S
O7 Cd4 2.333 . S
O7 C9 1.214 . S
O8 Cd4 2.352 . S
O8 C11 1.258 . S
C9 O6 1.320 1_455 S
C9 O7 1.214 . S
O10 Cd2 2.277 1_556 S
O10 C5 1.209 1_655 S
C11 O8 1.258 . S
C11 O13 1.282 . S
O12 Cd4 2.277 1_556 S
O12 C5 1.226 . S
O13 Cd4 2.356 . S
O13 C11 1.282 . S
C14 O15 1.306 . S
C14 O17 1.160 . S
O15 C14 1.306 . S
O15 Cd16 2.228 . S
Cd16 O15 2.228 . S
Cd16 O20 2.273 1_554 S
Cd16 O24 2.277 . S
O17 C14 1.160 . S
O17 Cd18 2.203 . S
Cd18 O17 2.203 . S
Cd18 O20 2.411 1_554 S
Cd18 O21 2.333 1_554 S
Cd18 O22 2.352 1_554 S
Cd18 O26 2.277 . S
Cd18 O27 2.356 . S
C19 O24 1.209 . S
C19 O26 1.226 . S
O20 Cd16 2.273 1_556 S
O20 Cd18 2.411 1_556 S
O20 C23 1.320 . S
O21 Cd18 2.333 1_556 S
O21 C23 1.214 . S
O22 Cd18 2.352 1_556 S
O22 C25 1.258 . S
C23 O20 1.320 . S
C23 O21 1.214 . S
O24 Cd16 2.277 . S
O24 C19 1.209 . S
C25 O22 1.258 . S
C25 O27 1.282 1_556 S
O26 Cd18 2.277 . S
O26 C19 1.226 . S
O27 Cd18 2.356 . S
O27 C25 1.282 1_554 S
C28 O29 1.306 . S
C28 O31 1.160 . S
O29 C28 1.306 . S
O29 Cd30 2.228 . S
Cd30 O29 2.228 . S
Cd30 O34 2.273 1_554 S
Cd30 O38 2.277 . S
O31 C28 1.160 . S
O31 Cd32 2.203 1_565 S
Cd32 O31 2.203 1_545 S
Cd32 O34 2.411 1_544 S
Cd32 O35 2.333 1_554 S
Cd32 O36 2.352 1_554 S
Cd32 O40 2.277 . S
Cd32 O41 2.356 . S
C33 O38 1.209 1_545 S
C33 O40 1.226 . S
O34 Cd30 2.273 1_556 S
O34 Cd32 2.411 1_566 S
O34 C37 1.320 1_565 S
O35 Cd32 2.333 1_556 S
O35 C37 1.214 . S
O36 Cd32 2.352 1_556 S
O36 C39 1.258 . S
C37 O34 1.320 1_545 S
C37 O35 1.214 . S
O38 Cd30 2.277 . S
O38 C33 1.209 1_565 S
C39 O36 1.258 . S
C39 O41 1.282 1_556 S
O40 Cd32 2.277 . S
O40 C33 1.226 . S
O41 Cd32 2.356 . S
O41 C39 1.282 1_554 S
C42 O43 1.306 1_556 S
C42 O45 1.160 . S
O43 C42 1.306 1_554 S
O43 Cd44 2.228 . S
Cd44 O43 2.228 . S
Cd44 O48 2.273 . S
Cd44 O52 2.277 1_554 S
O45 C42 1.160 . S
O45 Cd46 2.203 1_656 S
Cd46 O45 2.203 1_454 S
Cd46 O48 2.411 1_455 S
Cd46 O49 2.333 . S
Cd46 O50 2.352 . S
Cd46 O54 2.277 1_554 S
Cd46 O55 2.356 . S
C47 O52 1.209 1_455 S
C47 O54 1.226 . S
O48 Cd44 2.273 . S
O48 Cd46 2.411 1_655 S
O48 C51 1.253 1_655 S
O49 Cd46 2.333 . S
O49 C51 1.268 . S
O50 Cd46 2.352 . S
O50 C53 1.258 . S
C51 O48 1.253 1_455 S
C51 O49 1.268 . S
O52 Cd44 2.277 1_556 S
O52 C47 1.209 1_655 S
C53 O50 1.258 . S
C53 O55 1.282 . S
O54 Cd46 2.277 1_556 S
O54 C47 1.226 . S
O55 Cd46 2.356 . S
O55 C53 1.282 . S
C56 O57 1.306 . S
C56 O59 1.160 . S
O57 C56 1.306 . S
O57 Cd58 2.228 . S
Cd58 O57 2.228 . S
Cd58 O62 2.273 1_554 S
Cd58 O66 2.277 . S
O59 C56 1.160 . S
O59 Cd60 2.203 . S
Cd60 O59 2.203 . S
Cd60 O62 2.411 1_554 S
Cd60 O63 2.333 1_554 S
Cd60 O64 2.352 1_554 S
Cd60 O68 2.277 . S
Cd60 O69 2.356 . S
C61 O66 1.209 . S
C61 O68 1.226 . S
O62 Cd58 2.273 1_556 S
O62 Cd60 2.411 1_556 S
O62 C65 1.320 . S
O63 Cd60 2.333 1_556 S
O63 C65 1.214 . S
O64 Cd60 2.352 1_556 S
O64 C67 1.258 . S
C65 O62 1.320 . S
C65 O63 1.214 . S
O66 Cd58 2.277 . S
O66 C61 1.209 . S
C67 O64 1.258 . S
C67 O69 1.282 1_556 S
O68 Cd60 2.277 . S
O68 C61 1.226 . S
O69 Cd60 2.356 . S
O69 C67 1.282 1_554 S
C70 O71 1.306 1_556 S
C70 O73 1.160 . S
O71 C70 1.306 1_554 S
O71 Cd72 2.228 . S
Cd72 O71 2.228 . S
Cd72 O76 2.273 . S
Cd72 O80 2.277 1_554 S
O73 C70 1.160 . S
O73 Cd74 2.203 1_546 S
Cd74 O73 2.203 1_564 S
Cd74 O76 2.411 1_565 S
Cd74 O77 2.333 . S
Cd74 O78 2.352 . S
Cd74 O82 2.277 1_554 S
Cd74 O83 2.356 . S
C75 O80 1.181 1_565 S
C75 O82 1.266 . S
O76 Cd72 2.273 . S
O76 Cd74 2.411 1_545 S
O76 C79 1.340 . S
O77 Cd74 2.333 . S
O77 C79 1.172 1_565 S
O78 Cd74 2.352 . S
O78 C81 1.258 . S
C79 O76 1.340 . S
C79 O77 1.172 1_545 S
O80 Cd72 2.277 1_556 S
O80 C75 1.181 1_545 S
C81 O78 1.258 . S
C81 O83 1.282 . S
O82 Cd74 2.277 1_556 S
O82 C75 1.266 . S
O83 Cd74 2.356 . S
O83 C81 1.282 . S
C84 O85 1.306 . S
C84 O87 1.160 . S
O85 C84 1.306 . S
O85 Cd86 2.228 . S
Cd86 O85 2.228 . S
Cd86 O90 2.273 . S
Cd86 O94 2.277 . S
O87 C84 1.160 . S
O87 Cd88 2.203 . S
Cd88 O87 2.203 . S
Cd88 O90 2.411 . S
Cd88 O91 2.333 . S
Cd88 O92 2.352 . S
Cd88 O96 2.277 . S
Cd88 O97 2.356 . S
C89 O94 1.209 . S
C89 O96 1.226 . S
O90 Cd86 2.273 . S
O90 Cd88 2.411 . S
O90 C93 1.320 . S
O91 Cd88 2.333 . S
O91 C93 1.214 . S
O92 Cd88 2.352 . S
O92 C95 1.258 . S
C93 O90 1.320 . S
C93 O91 1.214 . S
O94 Cd86 2.277 . S
O94 C89 1.209 . S
C95 O92 1.258 . S
C95 O97 1.282 . S
O96 Cd88 2.277 . S
O96 C89 1.226 . S
O97 Cd88 2.356 . S
O97 C95 1.282 . S
C98 O99 1.306 . S
C98 O101 1.160 . S
O99 C98 1.306 . S
O99 Cd100 2.228 1_545 S
Cd100 O99 2.228 1_565 S
Cd100 O104 2.273 . S
Cd100 O108 2.277 . S
O101 C98 1.160 . S
O101 Cd102 2.203 1_545 S
Cd102 O101 2.203 1_565 S
Cd102 O104 2.411 . S
Cd102 O105 2.333 . S
Cd102 O106 2.364 . S
Cd102 O110 2.277 . S
Cd102 O111 2.356 . S
C103 O108 1.209 . S
C103 O110 1.226 . S
O104 Cd100 2.273 . S
O104 Cd102 2.411 . S
O104 C107 1.320 . S
O105 Cd102 2.333 . S
O105 C107 1.214 . S
O106 Cd102 2.364 . S
O106 C109 1.312 . S
C107 O104 1.320 . S
C107 O105 1.214 . S
O108 Cd100 2.277 . S
O108 C103 1.209 . S
C109 O106 1.312 . S
C109 O111 1.282 . S
O110 Cd102 2.277 . S
O110 C103 1.226 . S
O111 Cd102 2.356 . S
O111 C109 1.282 . S
C112 O113 1.306 . S
C112 O115 1.160 . S
O113 C112 1.306 . S
O113 Cd114 2.228 1_655 S
Cd114 O113 2.228 1_455 S
Cd114 O118 2.273 . S
Cd114 O122 2.277 . S
O115 C112 1.160 . S
O115 Cd116 2.203 1_655 S
Cd116 O115 2.203 1_455 S
Cd116 O118 2.411 . S
Cd116 O119 2.333 . S
Cd116 O120 2.352 . S
Cd116 O124 2.277 . S
Cd116 O125 2.356 . S
C117 O122 1.209 . S
C117 O124 1.226 . S
O118 Cd114 2.273 . S
O118 Cd116 2.411 . S
O118 C121 1.320 . S
O119 Cd116 2.333 . S
O119 C121 1.214 . S
O120 Cd116 2.352 . S
O120 C123 1.258 . S
C121 O118 1.320 . S
C121 O119 1.214 . S
O122 Cd114 2.277 . S
O122 C117 1.209 . S
C123 O120 1.258 . S
C123 O125 1.282 . S
O124 Cd116 2.277 . S
O124 C117 1.226 . S
O125 Cd116 2.356 . S
O125 C123 1.282 . S
C126 O127 1.306 . S
C126 O129 1.160 . S
O127 C126 1.306 . S
O127 Cd128 2.228 . S
Cd128 O127 2.228 . S
Cd128 O132 2.273 . S
Cd128 O136 2.277 . S
O129 C126 1.160 . S
O129 Cd130 2.203 . S
Cd130 O129 2.203 . S
Cd130 O132 2.411 . S
Cd130 O133 2.333 . S
Cd130 O134 2.352 1_565 S
Cd130 O138 2.277 . S
Cd130 O139 2.356 1_565 S
C131 O136 1.209 . S
C131 O138 1.226 . S
O132 Cd128 2.273 . S
O132 Cd130 2.411 . S
O132 C135 1.320 . S
O133 Cd130 2.333 . S
O133 C135 1.214 . S
O134 Cd130 2.352 1_545 S
O134 C137 1.258 . S
C135 O132 1.320 . S
C135 O133 1.214 . S
O136 Cd128 2.277 . S
O136 C131 1.209 . S
C137 O134 1.258 . S
C137 O139 1.282 . S
O138 Cd130 2.277 . S
O138 C131 1.226 . S
O139 Cd130 2.356 1_545 S
O139 C137 1.282 . S
C140 O141 1.306 . S
C140 O143 1.160 . S
O141 C140 1.306 . S
O141 Cd142 2.228 1_655 S
Cd142 O141 2.228 1_455 S
Cd142 O146 2.273 . S
Cd142 O150 2.277 . S
O143 C140 1.160 . S
O143 Cd144 2.203 1_655 S
Cd144 O143 2.203 1_455 S
Cd144 O146 2.411 . S
Cd144 O147 2.333 . S
Cd144 O148 2.352 . S
Cd144 O152 2.277 . S
Cd144 O153 2.356 . S
C145 O150 1.209 . S
C145 O152 1.226 . S
O146 Cd142 2.273 . S
O146 Cd144 2.411 . S
O146 C149 1.320 . S
O147 Cd144 2.333 . S
O147 C149 1.214 . S
O148 Cd144 2.352 . S
O148 C151 1.258 . S
C149 O146 1.320 . S
C149 O147 1.214 . S
O150 Cd142 2.277 . S
O150 C145 1.209 . S
C151 O148 1.258 . S
C151 O153 1.282 . S
O152 Cd144 2.277 . S
O152 C145 1.226 . S
O153 Cd144 2.356 . S
O153 C151 1.282 . S
C154 O155 1.306 . S
C154 O157 1.160 . S
O155 C154 1.306 . S
O155 Cd156 2.228 . S
Cd156 O155 2.228 . S
Cd156 O160 2.273 . S
Cd156 O164 2.277 . S
O157 C154 1.160 . S
O157 Cd158 2.203 . S
Cd158 O157 2.203 . S
Cd158 O160 2.411 . S
Cd158 O161 2.333 . S
Cd158 O162 2.352 . S
Cd158 O166 2.277 . S
Cd158 O167 2.356 . S
C159 O164 1.209 . S
C159 O166 1.226 . S
O160 Cd156 2.273 . S
O160 Cd158 2.411 . S
O160 C163 1.320 . S
O161 Cd158 2.333 . S
O161 C163 1.214 . S
O162 Cd158 2.352 . S
O162 C165 1.258 . S
C163 O160 1.320 . S
C163 O161 1.214 . S
O164 Cd156 2.277 . S
O164 C159 1.209 . S
C165 O162 1.258 . S
C165 O167 1.282 . S
O166 Cd158 2.277 . S
O166 C159 1.226 . S
O167 Cd158 2.356 . S
O167 C165 1.282 . S
C168 O169 1.306 . S
C168 O171 1.160 . S
O169 C168 1.306 . S
O169 Cd170 2.228 1_565 S
Cd170 O169 2.228 1_545 S
Cd170 O174 2.273 . S
Cd170 O178 2.277 . S
O171 C168 1.160 . S
O171 Cd172 2.203 1_565 S
Cd172 O171 2.203 1_545 S
Cd172 O174 2.411 . S
Cd172 O175 2.333 . S
Cd172 O176 2.352 . S
Cd172 O180 2.277 . S
Cd172 O181 2.356 . S
C173 O178 1.209 . S
C173 O180 1.226 . S
O174 Cd170 2.273 . S
O174 Cd172 2.411 . S
O174 C177 1.320 . S
O175 Cd172 2.333 . S
O175 C177 1.214 . S
O176 Cd172 2.352 . S
O176 C179 1.258 . S
C177 O174 1.320 . S
C177 O175 1.214 . S
O178 Cd170 2.277 . S
O178 C173 1.209 . S
C179 O176 1.258 . S
C179 O181 1.282 . S
O180 Cd172 2.277 . S
O180 C173 1.226 . S
O181 Cd172 2.356 . S
O181 C179 1.282 . S
C182 O183 1.306 . S
C182 O185 1.160 . S
O183 C182 1.306 . S
O183 Cd184 2.228 . S
Cd184 O183 2.228 . S
Cd184 O188 2.273 . S
Cd184 O192 2.277 . S
O185 C182 1.160 . S
O185 Cd186 2.203 . S
Cd186 O185 2.203 . S
Cd186 O188 2.411 . S
Cd186 O189 2.333 . S
Cd186 O190 2.352 1_655 S
Cd186 O194 2.277 . S
Cd186 O195 2.356 1_655 S
C187 O192 1.209 . S
C187 O194 1.226 . S
O188 Cd184 2.273 . S
O188 Cd186 2.411 . S
O188 C191 1.320 . S
O189 Cd186 2.333 . S
O189 C191 1.214 . S
O190 Cd186 2.352 1_455 S
O190 C193 1.258 . S
C191 O188 1.320 . S
C191 O189 1.214 . S
O192 Cd184 2.277 . S
O192 C187 1.209 . S
C193 O190 1.258 . S
C193 O195 1.282 . S
O194 Cd186 2.277 . S
O194 C187 1.226 . S
O195 Cd186 2.356 1_455 S
O195 C193 1.282 . S
C196 O197 1.306 . S
C196 O199 1.160 . S
O197 C196 1.306 . S
O197 Cd198 2.228 . S
Cd198 O197 2.228 . S
Cd198 O202 2.273 . S
Cd198 O206 2.277 . S
O199 C196 1.160 . S
O199 Cd200 2.203 . S
Cd200 O199 2.203 . S
Cd200 O202 2.411 . S
Cd200 O203 2.333 . S
Cd200 O204 2.352 . S
Cd200 O208 2.277 . S
Cd200 O209 2.356 . S
C201 O206 1.209 . S
C201 O208 1.226 . S
O202 Cd198 2.273 . S
O202 Cd200 2.411 . S
O202 C205 1.320 . S
O203 Cd200 2.333 . S
O203 C205 1.214 . S
O204 Cd200 2.352 . S
O204 C207 1.258 . S
C205 O202 1.320 . S
C205 O203 1.214 . S
O206 Cd198 2.277 . S
O206 C201 1.209 . S
C207 O204 1.258 . S
C207 O209 1.282 . S
O208 Cd200 2.277 . S
O208 C201 1.226 . S
O209 Cd200 2.356 . S
O209 C207 1.282 . S
C210 O211 1.306 . S
C210 O213 1.160 . S
O211 C210 1.306 . S
O211 Cd212 2.228 . S
Cd212 O211 2.228 . S
Cd212 O216 2.273 . S
Cd212 O220 2.277 . S
O213 C210 1.160 . S
O213 Cd214 2.203 . S
Cd214 O213 2.203 . S
Cd214 O216 2.411 . S
Cd214 O217 2.333 . S
Cd214 O218 2.352 . S
Cd214 O222 2.277 . S
Cd214 O223 2.356 . S
C215 O220 1.209 . S
C215 O222 1.226 . S
O216 Cd212 2.273 . S
O216 Cd214 2.411 . S
O216 C219 1.320 . S
O217 Cd214 2.333 . S
O217 C219 1.214 . S
O218 Cd214 2.352 . S
O218 C221 1.258 . S
C219 O216 1.320 . S
C219 O217 1.214 . S
O220 Cd212 2.277 . S
O220 C215 1.209 . S
C221 O218 1.258 . S
C221 O223 1.282 . S
O222 Cd214 2.277 . S
O222 C215 1.226 . S
O223 Cd214 2.356 . S
O223 C221 1.282 . S
C224 O225 1.306 . S
C224 O227 1.160 . S
O225 C224 1.306 . S
O225 Cd226 2.228 . S
Cd226 O225 2.228 . S
Cd226 O230 2.273 . S
Cd226 O234 2.277 . S
O227 C224 1.160 . S
O227 Cd228 2.203 . S
Cd228 O227 2.203 . S
Cd228 O230 2.411 . S
Cd228 O231 2.333 . S
Cd228 O232 2.352 1_545 S
Cd228 O236 2.277 . S
Cd228 O237 2.356 1_545 S
C229 O234 1.209 . S
C229 O236 1.226 . S
O230 Cd226 2.273 . S
O230 Cd228 2.411 . S
O230 C233 1.320 . S
O231 Cd228 2.333 . S
O231 C233 1.214 . S
O232 Cd228 2.352 1_565 S
O232 C235 1.258 . S
C233 O230 1.320 . S
C233 O231 1.214 . S
O234 Cd226 2.277 . S
O234 C229 1.209 . S
C235 O232 1.258 . S
C235 O237 1.282 . S
O236 Cd228 2.277 . S
O236 C229 1.226 . S
O237 Cd228 2.356 1_565 S
O237 C235 1.282 . S
C238 O239 1.306 . S
C238 O241 1.160 . S
O239 C238 1.306 . S
O239 Cd240 2.228 1_455 S
Cd240 O239 2.228 1_655 S
Cd240 O244 2.273 . S
Cd240 O248 2.277 . S
O241 C238 1.160 . S
O241 Cd242 2.203 1_455 S
Cd242 O241 2.203 1_655 S
Cd242 O244 2.411 . S
Cd242 O245 2.333 . S
Cd242 O246 2.403 . S
Cd242 O250 2.277 . S
Cd242 O251 2.356 . S
C243 O248 1.209 . S
C243 O250 1.226 . S
O244 Cd240 2.273 . S
O244 Cd242 2.411 . S
O244 C247 1.320 . S
O245 Cd242 2.333 . S
O245 C247 1.214 . S
O246 Cd242 2.403 . S
O246 C249 1.260 . S
C247 O244 1.320 . S
C247 O245 1.214 . S
O248 Cd240 2.277 . S
O248 C243 1.209 . S
C249 O246 1.260 . S
C249 O251 1.282 . S
O250 Cd242 2.277 . S
O250 C243 1.226 . S
O251 Cd242 2.356 . S
O251 C249 1.282 . S
H252 C260 0.930 . S
H253 C263 0.930 . S
H254 C265 0.930 . S
H255 C266 0.970 . S
H256 C266 0.970 . S
H257 C268 0.930 . S
H258 C270 0.930 . S
H259 C272 0.930 . S
C260 H252 0.930 . S
C260 C261 1.382 . S
C260 C262 1.426 . S
C261 C260 1.382 . S
C261 C265 1.389 . S
C262 C260 1.426 . S
C262 C263 1.375 . S
C262 C266 1.532 . S
C263 H253 0.930 . S
C263 C262 1.375 . S
C263 C264 1.416 . S
C264 C263 1.416 . S
C264 C265 1.371 . S
C265 H254 0.930 . S
C265 C261 1.389 . S
C265 C264 1.371 . S
C266 H255 0.970 . S
C266 H256 0.970 . S
C266 C262 1.532 . S
C266 C267 1.499 . S
C267 C266 1.499 . S
C267 C268 1.370 . S
C267 C272 1.415 . S
C268 H257 0.930 . S
C268 C267 1.370 . S
C268 C269 1.407 . S
C269 C268 1.407 . S
C269 C270 1.365 . S
C270 H258 0.930 . S
C270 C269 1.365 . S
C270 C271 1.393 . S
C271 C270 1.393 . S
C271 C272 1.387 . S
C272 H259 0.930 . S
C272 C267 1.415 . S
C272 C271 1.387 . S
H273 C281 0.930 . S
H274 C284 0.930 . S
H275 C286 0.930 . S
H276 C287 0.970 . S
H277 C287 0.970 . S
H278 C289 0.930 . S
H279 C291 0.930 . S
H280 C293 0.930 . S
C281 H273 0.930 . S
C281 C282 1.382 . S
C281 C283 1.426 . S
C282 C281 1.382 . S
C282 C286 1.389 . S
C283 C281 1.426 . S
C283 C284 1.375 . S
C283 C287 1.532 . S
C284 H274 0.930 . S
C284 C283 1.375 . S
C284 C285 1.416 . S
C285 C284 1.416 . S
C285 C286 1.371 . S
C286 H275 0.930 . S
C286 C282 1.389 . S
C286 C285 1.371 . S
C287 H276 0.970 . S
C287 H277 0.970 . S
C287 C283 1.532 . S
C287 C288 1.499 . S
C288 C287 1.499 . S
C288 C289 1.370 . S
C288 C293 1.415 . S
C289 H278 0.930 . S
C289 C288 1.370 . S
C289 C290 1.407 . S
C290 C289 1.407 . S
C290 C291 1.365 . S
C291 H279 0.930 . S
C291 C290 1.365 . S
C291 C292 1.393 . S
C292 C291 1.393 . S
C292 C293 1.387 . S
C293 H280 0.930 . S
C293 C288 1.415 . S
C293 C292 1.387 . S
H294 C302 0.930 . S
H295 C305 0.930 . S
H296 C307 0.930 . S
H297 C308 0.970 . S
H298 C308 0.970 . S
H299 C310 0.930 . S
H300 C312 0.930 . S
H301 C314 0.930 . S
C302 H294 0.930 . S
C302 C303 1.382 . S
C302 C304 1.426 . S
C303 C302 1.382 . S
C303 C307 1.389 . S
C304 C302 1.426 . S
C304 C305 1.375 . S
C304 C308 1.532 . S
C305 H295 0.930 . S
C305 C304 1.375 . S
C305 C306 1.416 . S
C306 C305 1.416 . S
C306 C307 1.371 . S
C307 H296 0.930 . S
C307 C303 1.389 . S
C307 C306 1.371 . S
C308 H297 0.970 . S
C308 H298 0.970 . S
C308 C304 1.532 . S
C308 C309 1.499 . S
C309 C308 1.499 . S
C309 C310 1.370 . S
C309 C314 1.415 . S
C310 H299 0.930 . S
C310 C309 1.370 . S
C310 C311 1.407 . S
C311 C310 1.407 . S
C311 C312 1.365 . S
C312 H300 0.930 . S
C312 C311 1.365 . S
C312 C313 1.393 . S
C313 C312 1.393 . S
C313 C314 1.387 . S
C314 H301 0.930 . S
C314 C309 1.415 . S
C314 C313 1.387 . S
H315 C323 0.930 . S
H316 C326 0.930 . S
H317 C328 0.930 . S
H318 C329 0.970 . S
H319 C329 0.970 . S
H320 C331 0.930 . S
H321 C333 0.930 . S
H322 C335 0.930 . S
C323 H315 0.930 . S
C323 C324 1.382 . S
C323 C325 1.426 . S
C324 C323 1.382 . S
C324 C328 1.389 . S
C325 C323 1.426 . S
C325 C326 1.375 . S
C325 C329 1.532 . S
C326 H316 0.930 . S
C326 C325 1.375 . S
C326 C327 1.416 . S
C327 C326 1.416 . S
C327 C328 1.371 . S
C328 H317 0.930 . S
C328 C324 1.389 . S
C328 C327 1.371 . S
C329 H318 0.970 . S
C329 H319 0.970 . S
C329 C325 1.532 . S
C329 C330 1.499 . S
C330 C329 1.499 . S
C330 C331 1.370 . S
C330 C335 1.415 . S
C331 H320 0.930 . S
C331 C330 1.370 . S
C331 C332 1.407 . S
C332 C331 1.407 . S
C332 C333 1.365 . S
C333 H321 0.930 . S
C333 C332 1.365 . S
C333 C334 1.393 . S
C334 C333 1.393 . S
C334 C335 1.387 . S
C335 H322 0.930 . S
C335 C330 1.415 . S
C335 C334 1.387 . S
H336 C344 0.930 . S
H337 C347 0.930 . S
H338 C349 0.930 . S
H339 C350 0.970 . S
H340 C350 0.970 . S
H341 C352 0.930 . S
H342 C354 0.930 . S
H343 C356 0.930 . S
C344 H336 0.930 . S
C344 C345 1.382 . S
C344 C346 1.426 . S
C345 C344 1.382 . S
C345 C349 1.389 . S
C346 C344 1.426 . S
C346 C347 1.375 . S
C346 C350 1.532 . S
C347 H337 0.930 . S
C347 C346 1.375 . S
C347 C348 1.416 . S
C348 C347 1.416 . S
C348 C349 1.371 . S
C349 H338 0.930 . S
C349 C345 1.389 . S
C349 C348 1.371 . S
C350 H339 0.970 . S
C350 H340 0.970 . S
C350 C346 1.532 . S
C350 C351 1.499 . S
C351 C350 1.499 . S
C351 C352 1.370 . S
C351 C356 1.415 . S
C352 H341 0.930 . S
C352 C351 1.370 . S
C352 C353 1.407 . S
C353 C352 1.407 . S
C353 C354 1.365 . S
C354 H342 0.930 . S
C354 C353 1.365 . S
C354 C355 1.393 . S
C355 C354 1.393 . S
C355 C356 1.387 . S
C356 H343 0.930 . S
C356 C351 1.415 . S
C356 C355 1.387 . S
H357 C365 0.930 . S
H358 C368 0.930 . S
H359 C370 0.930 . S
H360 C371 0.970 . S
H361 C371 0.970 . S
H362 C373 0.930 . S
H363 C375 0.930 . S
H364 C377 0.930 . S
C365 H357 0.930 . S
C365 C366 1.382 . S
C365 C367 1.426 . S
C366 C365 1.382 . S
C366 C370 1.389 . S
C367 C365 1.426 . S
C367 C368 1.375 . S
C367 C371 1.532 . S
C368 H358 0.930 . S
C368 C367 1.375 . S
C368 C369 1.416 . S
C369 C368 1.416 . S
C369 C370 1.371 . S
C370 H359 0.930 . S
C370 C366 1.389 . S
C370 C369 1.371 . S
C371 H360 0.970 . S
C371 H361 0.970 . S
C371 C367 1.532 . S
C371 C372 1.499 . S
C372 C371 1.499 . S
C372 C373 1.370 . S
C372 C377 1.415 . S
C373 H362 0.930 . S
C373 C372 1.370 . S
C373 C374 1.407 . S
C374 C373 1.407 . S
C374 C375 1.365 . S
C375 H363 0.930 . S
C375 C374 1.365 . S
C375 C376 1.393 . S
C376 C375 1.393 . S
C376 C377 1.387 . S
C377 H364 0.930 . S
C377 C372 1.415 . S
C377 C376 1.387 . S
H378 C386 0.930 . S
H379 C389 0.930 . S
H380 C391 0.930 . S
H381 C392 0.970 . S
H382 C392 0.970 . S
H383 C394 0.930 . S
H384 C396 0.930 . S
H385 C398 0.930 . S
C386 H378 0.930 . S
C386 C387 1.382 . S
C386 C388 1.426 . S
C387 C386 1.382 . S
C387 C391 1.389 . S
C388 C386 1.426 . S
C388 C389 1.375 . S
C388 C392 1.532 . S
C389 H379 0.930 . S
C389 C388 1.375 . S
C389 C390 1.416 . S
C390 C389 1.416 . S
C390 C391 1.371 . S
C391 H380 0.930 . S
C391 C387 1.389 . S
C391 C390 1.371 . S
C392 H381 0.970 . S
C392 H382 0.970 . S
C392 C388 1.532 . S
C392 C393 1.499 . S
C393 C392 1.499 . S
C393 C394 1.370 . S
C393 C398 1.415 . S
C394 H383 0.930 . S
C394 C393 1.370 . S
C394 C395 1.407 . S
C395 C394 1.407 . S
C395 C396 1.365 . S
C396 H384 0.930 . S
C396 C395 1.365 . S
C396 C397 1.393 . S
C397 C396 1.393 . S
C397 C398 1.387 . S
C398 H385 0.930 . S
C398 C393 1.415 . S
C398 C397 1.387 . S
H399 C407 0.930 . S
H400 C410 0.930 . S
H401 C412 0.930 . S
H402 C413 0.970 . S
H403 C413 0.970 . S
H404 C415 0.930 . S
H405 C417 0.930 . S
H406 C419 0.930 . S
C407 H399 0.930 . S
C407 C408 1.382 . S
C407 C409 1.426 . S
C408 C407 1.382 . S
C408 C412 1.389 . S
C409 C407 1.426 . S
C409 C410 1.375 . S
C409 C413 1.532 . S
C410 H400 0.930 . S
C410 C409 1.375 . S
C410 C411 1.416 . S
C411 C410 1.416 . S
C411 C412 1.371 . S
C412 H401 0.930 . S
C412 C408 1.389 . S
C412 C411 1.371 . S
C413 H402 0.970 . S
C413 H403 0.970 . S
C413 C409 1.532 . S
C413 C414 1.499 . S
C414 C413 1.499 . S
C414 C415 1.370 . S
C414 C419 1.415 . S
C415 H404 0.930 . S
C415 C414 1.370 . S
C415 C416 1.407 . S
C416 C415 1.407 . S
C416 C417 1.365 . S
C417 H405 0.930 . S
C417 C416 1.365 . S
C417 C418 1.393 . S
C418 C417 1.393 . S
C418 C419 1.387 . S
C419 H406 0.930 . S
C419 C414 1.415 . S
C419 C418 1.387 . S
H420 C428 0.930 . S
H421 C431 0.930 . S
H422 C433 0.930 . S
H423 C434 0.970 . S
H424 C434 0.970 . S
H425 C436 0.930 . S
H426 C438 0.930 . S
H427 C440 0.930 . S
C428 H420 0.930 . S
C428 C429 1.382 . S
C428 C430 1.426 . S
C429 C428 1.382 . S
C429 C433 1.389 . S
C430 C428 1.426 . S
C430 C431 1.375 . S
C430 C434 1.532 . S
C431 H421 0.930 . S
C431 C430 1.375 . S
C431 C432 1.416 . S
C432 C431 1.416 . S
C432 C433 1.371 . S
C433 H422 0.930 . S
C433 C429 1.389 . S
C433 C432 1.371 . S
C434 H423 0.970 . S
C434 H424 0.970 . S
C434 C430 1.532 . S
C434 C435 1.499 . S
C435 C434 1.499 . S
C435 C436 1.370 . S
C435 C440 1.415 . S
C436 H425 0.930 . S
C436 C435 1.370 . S
C436 C437 1.407 . S
C437 C436 1.407 . S
C437 C438 1.365 . S
C438 H426 0.930 . S
C438 C437 1.365 . S
C438 C439 1.393 . S
C439 C438 1.393 . S
C439 C440 1.387 . S
C440 H427 0.930 . S
C440 C435 1.415 . S
C440 C439 1.387 . S
H441 C449 0.930 . S
H442 C452 0.930 . S
H443 C454 0.930 . S
H444 C455 0.970 . S
H445 C455 0.970 . S
H446 C457 0.930 . S
H447 C459 0.930 . S
H448 C461 0.930 . S
C449 H441 0.930 . S
C449 C450 1.382 . S
C449 C451 1.426 . S
C450 C449 1.382 . S
C450 C454 1.389 1_455 S
C451 C449 1.426 . S
C451 C452 1.375 . S
C451 C455 1.532 . S
C452 H442 0.930 . S
C452 C451 1.375 . S
C452 C453 1.416 . S
C453 C452 1.416 . S
C453 C454 1.371 1_455 S
C454 H443 0.930 . S
C454 C450 1.389 1_655 S
C454 C453 1.371 1_655 S
C455 H444 0.970 . S
C455 H445 0.970 . S
C455 C451 1.532 . S
C455 C456 1.499 . S
C456 C455 1.499 . S
C456 C457 1.370 . S
C456 C461 1.415 . S
C457 H446 0.930 . S
C457 C456 1.370 . S
C457 C458 1.410 . S
C458 C457 1.410 . S
C458 C459 1.370 1_455 S
C459 H447 0.930 . S
C459 C458 1.370 1_655 S
C459 C460 1.393 1_655 S
C460 C459 1.393 1_455 S
C460 C461 1.387 . S
C461 H448 0.930 . S
C461 C456 1.415 . S
C461 C460 1.387 . S
H462 C470 0.930 . S
H463 C473 0.930 . S
H464 C475 0.930 . S
H465 C476 0.970 . S
H466 C476 0.970 . S
H467 C478 0.930 . S
H468 C480 0.930 . S
H469 C482 0.930 . S
C470 H462 0.930 . S
C470 C471 1.382 . S
C470 C472 1.426 . S
C471 C470 1.382 . S
C471 C475 1.389 . S
C472 C470 1.426 . S
C472 C473 1.375 . S
C472 C476 1.532 . S
C473 H463 0.930 . S
C473 C472 1.375 . S
C473 C474 1.416 . S
C474 C473 1.416 . S
C474 C475 1.371 . S
C475 H464 0.930 . S
C475 C471 1.389 . S
C475 C474 1.371 . S
C476 H465 0.970 . S
C476 H466 0.970 . S
C476 C472 1.532 . S
C476 C477 1.499 . S
C477 C476 1.499 . S
C477 C478 1.370 . S
C477 C482 1.415 . S
C478 H467 0.930 . S
C478 C477 1.370 . S
C478 C479 1.407 . S
C479 C478 1.407 . S
C479 C480 1.365 . S
C480 H468 0.930 . S
C480 C479 1.365 . S
C480 C481 1.393 . S
C481 C480 1.393 . S
C481 C482 1.387 . S
C482 H469 0.930 . S
C482 C477 1.415 . S
C482 C481 1.387 . S
H483 C491 0.930 . S
H484 C494 0.930 . S
H485 C496 0.930 . S
H486 C497 0.970 . S
H487 C497 0.970 . S
H488 C499 0.930 . S
H489 C501 0.930 . S
H490 C503 0.930 . S
C491 H483 0.930 . S
C491 C492 1.382 . S
C491 C493 1.426 . S
C492 C491 1.382 . S
C492 C496 1.389 1_565 S
C493 C491 1.426 . S
C493 C494 1.375 . S
C493 C497 1.532 . S
C494 H484 0.930 . S
C494 C493 1.375 . S
C494 C495 1.416 . S
C495 C494 1.416 . S
C495 C496 1.371 1_565 S
C496 H485 0.930 . S
C496 C492 1.389 1_545 S
C496 C495 1.371 1_545 S
C497 H486 0.970 . S
C497 H487 0.970 . S
C497 C493 1.532 . S
C497 C498 1.499 . S
C498 C497 1.499 . S
C498 C499 1.370 . S
C498 C503 1.415 . S
C499 H488 0.930 . S
C499 C498 1.370 . S
C499 C500 1.429 . S
C500 C499 1.429 . S
C500 C501 1.356 1_565 S
C501 H489 0.930 . S
C501 C500 1.356 1_545 S
C501 C502 1.393 1_545 S
C502 C501 1.393 1_565 S
C502 C503 1.387 . S
C503 H490 0.930 . S
C503 C498 1.415 . S
C503 C502 1.387 . S
H504 C512 0.930 . S
H505 C515 0.930 . S
H506 C517 0.930 . S
H507 C518 0.970 . S
H508 C518 0.970 . S
H509 C520 0.930 . S
H510 C522 0.930 . S
H511 C524 0.930 . S
C512 H504 0.930 . S
C512 C513 1.382 . S
C512 C514 1.426 . S
C513 C512 1.382 . S
C513 C517 1.389 1_565 S
C514 C512 1.426 . S
C514 C515 1.375 . S
C514 C518 1.532 . S
C515 H505 0.930 . S
C515 C514 1.375 . S
C515 C516 1.416 . S
C516 C515 1.416 . S
C516 C517 1.371 1_565 S
C517 H506 0.930 . S
C517 C513 1.389 1_545 S
C517 C516 1.371 1_545 S
C518 H507 0.970 . S
C518 H508 0.970 . S
C518 C514 1.532 . S
C518 C519 1.499 . S
C519 C518 1.499 . S
C519 C520 1.370 . S
C519 C524 1.415 . S
C520 H509 0.930 . S
C520 C519 1.370 . S
C520 C521 1.407 . S
C521 C520 1.407 . S
C521 C522 1.365 1_565 S
C522 H510 0.930 . S
C522 C521 1.365 1_545 S
C522 C523 1.393 1_545 S
C523 C522 1.393 1_565 S
C523 C524 1.387 . S
C524 H511 0.930 . S
C524 C519 1.415 . S
C524 C523 1.387 . S
H525 C533 0.930 . S
H526 C536 0.930 . S
H527 C538 0.930 . S
H528 C539 0.970 . S
H529 C539 0.970 . S
H530 C541 0.930 . S
H531 C543 0.930 . S
H532 C545 0.930 . S
C533 H525 0.930 . S
C533 C534 1.382 . S
C533 C535 1.426 . S
C534 C533 1.382 . S
C534 C538 1.389 1_455 S
C535 C533 1.426 . S
C535 C536 1.375 . S
C535 C539 1.532 . S
C536 H526 0.930 . S
C536 C535 1.375 . S
C536 C537 1.416 . S
C537 C536 1.416 . S
C537 C538 1.371 1_455 S
C538 H527 0.930 . S
C538 C534 1.389 1_655 S
C538 C537 1.371 1_655 S
C539 H528 0.970 . S
C539 H529 0.970 . S
C539 C535 1.532 . S
C539 C540 1.499 . S
C540 C539 1.499 . S
C540 C541 1.370 . S
C540 C545 1.415 . S
C541 H530 0.930 . S
C541 C540 1.370 . S
C541 C542 1.407 . S
C542 C541 1.407 . S
C542 C543 1.365 1_455 S
C543 H531 0.930 . S
C543 C542 1.365 1_655 S
C543 C544 1.393 1_655 S
C544 C543 1.393 1_455 S
C544 C545 1.387 . S
C545 H532 0.930 . S
C545 C540 1.415 . S
C545 C544 1.387 . S
H546 C554 0.930 . S
H547 C557 0.930 . S
H548 C559 0.930 . S
H549 C560 0.970 . S
H550 C560 0.970 . S
H551 C562 0.930 . S
H552 C564 0.930 . S
H553 C566 0.930 . S
C554 H546 0.930 . S
C554 C555 1.382 . S
C554 C556 1.426 . S
C555 C554 1.382 . S
C555 C559 1.389 . S
C556 C554 1.426 . S
C556 C557 1.375 . S
C556 C560 1.532 . S
C557 H547 0.930 . S
C557 C556 1.375 . S
C557 C558 1.416 . S
C558 C557 1.416 . S
C558 C559 1.371 . S
C559 H548 0.930 . S
C559 C555 1.389 . S
C559 C558 1.371 . S
C560 H549 0.970 . S
C560 H550 0.970 . S
C560 C556 1.532 . S
C560 C561 1.499 . S
C561 C560 1.499 . S
C561 C562 1.370 . S
C561 C566 1.415 . S
C562 H551 0.930 . S
C562 C561 1.370 . S
C562 C563 1.407 . S
C563 C562 1.407 . S
C563 C564 1.365 . S
C564 H552 0.930 . S
C564 C563 1.365 . S
C564 C565 1.393 . S
C565 C564 1.393 . S
C565 C566 1.387 . S
C566 H553 0.930 . S
C566 C561 1.415 . S
C566 C565 1.387 . S
H567 C575 0.930 . S
H568 C578 0.930 . S
H569 C580 0.930 . S
H570 C581 0.970 . S
H571 C581 0.970 . S
H572 C583 0.930 . S
H573 C585 0.930 . S
H574 C587 0.930 . S
C575 H567 0.930 . S
C575 C576 1.382 . S
C575 C577 1.426 . S
C576 C575 1.382 . S
C576 C580 1.389 . S
C577 C575 1.426 . S
C577 C578 1.375 . S
C577 C581 1.532 . S
C578 H568 0.930 . S
C578 C577 1.375 . S
C578 C579 1.416 . S
C579 C578 1.416 . S
C579 C580 1.371 . S
C580 H569 0.930 . S
C580 C576 1.389 . S
C580 C579 1.371 . S
C581 H570 0.970 . S
C581 H571 0.970 . S
C581 C577 1.532 . S
C581 C582 1.499 . S
C582 C581 1.499 . S
C582 C583 1.370 . S
C582 C587 1.415 . S
C583 H572 0.930 . S
C583 C582 1.370 . S
C583 C584 1.407 . S
C584 C583 1.407 . S
C584 C585 1.365 . S
C585 H573 0.930 . S
C585 C584 1.365 . S
C585 C586 1.393 . S
C586 C585 1.393 . S
C586 C587 1.387 . S
C587 H574 0.930 . S
C587 C582 1.415 . S
C587 C586 1.387 . S
H588 C596 0.930 . S
H589 C599 0.930 . S
H590 C601 0.930 . S
H591 C602 0.970 . S
H592 C602 0.970 . S
H593 C604 0.930 . S
H594 C606 0.930 . S
H595 C608 0.930 . S
C596 H588 0.930 . S
C596 C597 1.382 . S
C596 C598 1.426 . S
C597 C596 1.382 . S
C597 C601 1.389 . S
C598 C596 1.426 . S
C598 C599 1.375 . S
C598 C602 1.532 . S
C599 H589 0.930 . S
C599 C598 1.375 . S
C599 C600 1.416 . S
C600 C599 1.416 . S
C600 C601 1.371 . S
C601 H590 0.930 . S
C601 C597 1.389 . S
C601 C600 1.371 . S
C602 H591 0.970 . S
C602 H592 0.970 . S
C602 C598 1.532 . S
C602 C603 1.499 . S
C603 C602 1.499 . S
C603 C604 1.370 . S
C603 C608 1.415 . S
C604 H593 0.930 . S
C604 C603 1.370 . S
C604 C605 1.407 . S
C605 C604 1.407 . S
C605 C606 1.365 . S
C606 H594 0.930 . S
C606 C605 1.365 . S
C606 C607 1.393 . S
C607 C606 1.393 . S
C607 C608 1.387 . S
C608 H595 0.930 . S
C608 C603 1.415 . S
C608 C607 1.387 . S
H609 C617 0.930 . S
H610 C620 0.930 . S
H611 C622 0.930 . S
H612 C623 0.970 . S
H613 C623 0.970 . S
H614 C625 0.930 . S
H615 C627 0.930 . S
H616 C629 0.930 . S
C617 H609 0.930 . S
C617 C618 1.382 . S
C617 C619 1.426 . S
C618 C617 1.382 . S
C618 C622 1.389 . S
C619 C617 1.426 . S
C619 C620 1.375 . S
C619 C623 1.532 . S
C620 H610 0.930 . S
C620 C619 1.375 . S
C620 C621 1.416 . S
C621 C620 1.416 . S
C621 C622 1.371 . S
C622 H611 0.930 . S
C622 C618 1.389 . S
C622 C621 1.371 . S
C623 H612 0.970 . S
C623 H613 0.970 . S
C623 C619 1.532 . S
C623 C624 1.499 . S
C624 C623 1.499 . S
C624 C625 1.370 . S
C624 C629 1.415 . S
C625 H614 0.930 . S
C625 C624 1.370 . S
C625 C626 1.407 . S
C626 C625 1.407 . S
C626 C627 1.365 . S
C627 H615 0.930 . S
C627 C626 1.365 . S
C627 C628 1.393 . S
C628 C627 1.393 . S
C628 C629 1.387 . S
C629 H616 0.930 . S
C629 C624 1.415 . S
C629 C628 1.387 . S
H630 C642 0.930 . S
H631 C644 0.930 . S
H632 C645 0.930 . S
H633 C649 0.959 . S
H634 C649 0.959 . S
H635 C649 0.961 . S
H636 C650 0.960 . S
H637 C650 0.961 . S
H638 C650 0.959 . S
H639 C653 0.929 . S
H640 C654 0.931 . S
H641 C656 0.930 . S
C642 H630 0.930 . S
C642 C643 1.356 1_655 S
C642 C647 1.399 . S
C643 C642 1.356 1_455 S
C643 C644 1.408 . S
C644 H631 0.930 . S
C644 C643 1.408 . S
C644 C645 1.388 . S
C645 H632 0.930 . S
C645 C644 1.388 . S
C645 C646 1.390 . S
C646 C645 1.390 . S
C646 C647 1.394 1_455 S
C646 C652 1.465 . S
C647 C642 1.399 . S
C647 C646 1.394 1_655 S
C647 C648 1.516 . S
C648 C647 1.516 . S
C648 C649 1.502 . S
C648 C650 1.561 . S
C648 C651 1.526 . S
C649 H633 0.959 . S
C649 H634 0.959 . S
C649 H635 0.961 . S
C649 C648 1.502 . S
C650 H636 0.960 . S
C650 H637 0.961 . S
C650 H638 0.959 . S
C650 C648 1.561 . S
C651 C648 1.526 . S
C651 C652 1.396 1_655 S
C651 C656 1.390 . S
C652 C646 1.465 . S
C652 C651 1.396 1_455 S
C652 C653 1.399 . S
C653 H639 0.929 . S
C653 C652 1.399 . S
C653 C654 1.385 . S
C654 H640 0.931 . S
C654 C653 1.385 . S
C654 C655 1.389 1_455 S
C655 C654 1.389 1_655 S
C655 C656 1.387 . S
C656 H641 0.930 . S
C656 C651 1.390 . S
C656 C655 1.387 . S
H657 C669 0.930 . S
H658 C671 0.930 . S
H659 C672 0.930 . S
H660 C676 0.959 . S
H661 C676 0.959 . S
H662 C676 0.961 . S
H663 C677 0.960 . S
H664 C677 0.961 . S
H665 C677 0.959 . S
H666 C680 0.929 . S
H667 C681 0.931 . S
H668 C683 0.930 . S
C669 H657 0.930 . S
C669 C670 1.399 . S
C669 C674 1.399 . S
C670 C669 1.399 . S
C670 C671 1.376 . S
C671 H658 0.930 . S
C671 C670 1.376 . S
C671 C672 1.388 . S
C672 H659 0.930 . S
C672 C671 1.388 . S
C672 C673 1.390 . S
C673 C672 1.390 . S
C673 C674 1.394 . S
C673 C679 1.465 . S
C674 C669 1.399 . S
C674 C673 1.394 . S
C674 C675 1.516 . S
C675 C674 1.516 . S
C675 C676 1.502 . S
C675 C677 1.561 . S
C675 C678 1.526 . S
C676 H660 0.959 . S
C676 H661 0.959 . S
C676 H662 0.961 . S
C676 C675 1.502 . S
C677 H663 0.960 . S
C677 H664 0.961 . S
C677 H665 0.959 . S
C677 C675 1.561 . S
C678 C675 1.526 . S
C678 C679 1.396 . S
C678 C683 1.390 . S
C679 C673 1.465 . S
C679 C678 1.396 . S
C679 C680 1.399 . S
C680 H666 0.929 . S
C680 C679 1.399 . S
C680 C681 1.385 . S
C681 H667 0.931 . S
C681 C680 1.385 . S
C681 C682 1.389 . S
C682 C681 1.389 . S
C682 C683 1.387 . S
C683 H668 0.930 . S
C683 C678 1.390 . S
C683 C682 1.387 . S
H684 C696 0.930 . S
H685 C698 0.930 . S
H686 C699 0.930 . S
H687 C703 0.959 . S
H688 C703 0.959 . S
H689 C703 0.961 . S
H690 C704 0.960 . S
H691 C704 0.961 . S
H692 C704 0.959 . S
H693 C707 0.929 . S
H694 C708 0.931 . S
H695 C710 0.930 . S
C696 H684 0.930 . S
C696 C697 1.399 . S
C696 C701 1.399 . S
C697 C696 1.399 . S
C697 C698 1.376 1_545 S
C698 H685 0.930 . S
C698 C697 1.376 1_565 S
C698 C699 1.388 . S
C699 H686 0.930 . S
C699 C698 1.388 . S
C699 C700 1.390 . S
C700 C699 1.390 . S
C700 C701 1.394 1_565 S
C700 C706 1.465 . S
C701 C696 1.399 . S
C701 C700 1.394 1_545 S
C701 C702 1.516 . S
C702 C701 1.516 . S
C702 C703 1.502 . S
C702 C704 1.561 . S
C702 C705 1.526 . S
C703 H687 0.959 . S
C703 H688 0.959 . S
C703 H689 0.961 . S
C703 C702 1.502 . S
C704 H690 0.960 . S
C704 H691 0.961 . S
C704 H692 0.959 . S
C704 C702 1.561 . S
C705 C702 1.526 . S
C705 C706 1.396 1_545 S
C705 C710 1.390 . S
C706 C700 1.465 . S
C706 C705 1.396 1_565 S
C706 C707 1.399 . S
C707 H693 0.929 . S
C707 C706 1.399 . S
C707 C708 1.385 . S
C708 H694 0.931 . S
C708 C707 1.385 . S
C708 C709 1.389 1_565 S
C709 C708 1.389 1_545 S
C709 C710 1.387 . S
C710 H695 0.930 . S
C710 C705 1.390 . S
C710 C709 1.387 . S
H711 C723 0.930 . S
H712 C725 0.930 . S
H713 C726 0.930 . S
H714 C730 0.959 . S
H715 C730 0.959 . S
H716 C730 0.961 . S
H717 C731 0.960 . S
H718 C731 0.961 . S
H719 C731 0.959 . S
H720 C734 0.929 . S
H721 C735 0.931 . S
H722 C737 0.930 . S
C723 H711 0.930 . S
C723 C724 1.399 1_545 S
C723 C728 1.399 . S
C724 C723 1.399 1_565 S
C724 C725 1.376 . S
C725 H712 0.930 . S
C725 C724 1.376 . S
C725 C726 1.388 . S
C726 H713 0.930 . S
C726 C725 1.388 . S
C726 C727 1.390 . S
C727 C726 1.390 . S
C727 C728 1.394 1_565 S
C727 C733 1.465 . S
C728 C723 1.399 . S
C728 C727 1.394 1_545 S
C728 C729 1.516 . S
C729 C728 1.516 . S
C729 C730 1.502 . S
C729 C731 1.561 . S
C729 C732 1.526 . S
C730 H714 0.959 . S
C730 H715 0.959 . S
C730 H716 0.961 . S
C730 C729 1.502 . S
C731 H717 0.960 . S
C731 H718 0.961 . S
C731 H719 0.959 . S
C731 C729 1.561 . S
C732 C729 1.526 . S
C732 C733 1.396 1_545 S
C732 C737 1.390 . S
C733 C727 1.465 . S
C733 C732 1.396 1_565 S
C733 C734 1.399 . S
C734 H720 0.929 . S
C734 C733 1.399 . S
C734 C735 1.385 . S
C735 H721 0.931 . S
C735 C734 1.385 . S
C735 C736 1.389 . S
C736 C735 1.389 . S
C736 C737 1.387 1_565 S
C737 H722 0.930 . S
C737 C732 1.390 . S
C737 C736 1.387 1_545 S
H738 C750 0.930 . S
H739 C752 0.930 . S
H740 C753 0.930 . S
H741 C757 0.959 . S
H742 C757 0.959 . S
H743 C757 0.961 . S
H744 C758 0.960 . S
H745 C758 0.961 . S
H746 C758 0.959 . S
H747 C761 0.929 . S
H748 C762 0.931 . S
H749 C764 0.930 . S
C750 H738 0.930 . S
C750 C751 1.399 . S
C750 C755 1.399 . S
C751 C750 1.399 . S
C751 C752 1.376 1_455 S
C752 H739 0.930 . S
C752 C751 1.376 1_655 S
C752 C753 1.388 . S
C753 H740 0.930 . S
C753 C752 1.388 . S
C753 C754 1.387 . S
C754 C753 1.387 . S
C754 C755 1.381 1_655 S
C754 C760 1.457 . S
C755 C750 1.399 . S
C755 C754 1.381 1_455 S
C755 C756 1.516 . S
C756 C755 1.516 . S
C756 C757 1.502 . S
C756 C758 1.561 . S
C756 C759 1.526 . S
C757 H741 0.959 . S
C757 H742 0.959 . S
C757 H743 0.961 . S
C757 C756 1.502 . S
C758 H744 0.960 . S
C758 H745 0.961 . S
C758 H746 0.959 . S
C758 C756 1.561 . S
C759 C756 1.526 . S
C759 C760 1.392 1_455 S
C759 C764 1.390 . S
C760 C754 1.457 . S
C760 C759 1.392 1_655 S
C760 C761 1.427 . S
C761 H747 0.929 . S
C761 C760 1.427 . S
C761 C762 1.385 . S
C762 H748 0.931 . S
C762 C761 1.385 . S
C762 C763 1.389 1_655 S
C763 C762 1.389 1_455 S
C763 C764 1.387 . S
C764 H749 0.930 . S
C764 C759 1.390 . S
C764 C763 1.387 . S
H765 C777 0.930 . S
H766 C779 0.930 . S
H767 C780 0.930 . S
H768 C784 0.959 . S
H769 C784 0.959 . S
H770 C784 0.961 . S
H771 C785 0.960 . S
H772 C785 0.961 . S
H773 C785 0.959 . S
H774 C788 0.929 . S
H775 C789 0.931 . S
H776 C791 0.930 . S
C777 H765 0.930 . S
C777 C778 1.399 . S
C777 C782 1.399 . S
C778 C777 1.399 . S
C778 C779 1.376 . S
C779 H766 0.930 . S
C779 C778 1.376 . S
C779 C780 1.388 . S
C780 H767 0.930 . S
C780 C779 1.388 . S
C780 C781 1.390 . S
C781 C780 1.390 . S
C781 C782 1.394 . S
C781 C787 1.465 . S
C782 C777 1.399 . S
C782 C781 1.394 . S
C782 C783 1.516 . S
C783 C782 1.516 . S
C783 C784 1.502 . S
C783 C785 1.561 . S
C783 C786 1.526 . S
C784 H768 0.959 . S
C784 H769 0.959 . S
C784 H770 0.961 . S
C784 C783 1.502 . S
C785 H771 0.960 . S
C785 H772 0.961 . S
C785 H773 0.959 . S
C785 C783 1.561 . S
C786 C783 1.526 . S
C786 C787 1.396 . S
C786 C791 1.390 . S
C787 C781 1.465 . S
C787 C786 1.396 . S
C787 C788 1.399 . S
C788 H774 0.929 . S
C788 C787 1.399 . S
C788 C789 1.385 . S
C789 H775 0.931 . S
C789 C788 1.385 . S
C789 C790 1.389 . S
C790 C789 1.389 . S
C790 C791 1.387 . S
C791 H776 0.930 . S
C791 C786 1.390 . S
C791 C790 1.387 . S
H792 C804 0.935 . S
H793 C806 0.930 . S
H794 C807 0.930 . S
H795 C811 0.959 . S
H796 C811 0.959 . S
H797 C811 0.961 . S
H798 C812 0.960 . S
H799 C812 0.961 . S
H800 C812 0.959 . S
H801 C815 0.929 . S
H802 C816 0.931 . S
H803 C818 0.930 . S
C804 H792 0.935 . S
C804 C805 1.379 . S
C804 C809 1.419 1_455 S
C805 C804 1.379 . S
C805 C806 1.376 . S
C806 H793 0.930 . S
C806 C805 1.376 . S
C806 C807 1.388 . S
C807 H794 0.930 . S
C807 C806 1.388 . S
C807 C808 1.364 . S
C808 C807 1.364 . S
C808 C809 1.405 1_455 S
C808 C814 1.470 . S
C809 C804 1.419 1_655 S
C809 C808 1.405 1_655 S
C809 C810 1.511 . S
C810 C809 1.511 . S
C810 C811 1.502 1_655 S
C810 C812 1.561 . S
C810 C813 1.526 . S
C811 H795 0.959 . S
C811 H796 0.959 . S
C811 H797 0.961 . S
C811 C810 1.502 1_455 S
C812 H798 0.960 . S
C812 H799 0.961 . S
C812 H800 0.959 . S
C812 C810 1.561 . S
C813 C810 1.526 . S
C813 C814 1.415 1_655 S
C813 C818 1.390 . S
C814 C808 1.470 . S
C814 C813 1.415 1_455 S
C814 C815 1.404 . S
C815 H801 0.929 . S
C815 C814 1.404 . S
C815 C816 1.385 . S
C816 H802 0.931 . S
C816 C815 1.385 . S
C816 C817 1.376 . S
C817 C816 1.376 . S
C817 C818 1.383 1_455 S
C818 H803 0.930 . S
C818 C813 1.390 . S
C818 C817 1.383 1_655 S
H819 C831 0.930 . S
H820 C833 0.930 . S
H821 C834 0.930 . S
H822 C838 0.959 . S
H823 C838 0.959 . S
H824 C838 0.961 . S
H825 C839 0.960 . S
H826 C839 0.961 . S
H827 C839 0.959 . S
H828 C842 0.929 . S
H829 C843 0.931 . S
H830 C845 0.930 . S
C831 H819 0.930 . S
C831 C832 1.399 . S
C831 C836 1.399 . S
C832 C831 1.399 . S
C832 C833 1.376 . S
C833 H820 0.930 . S
C833 C832 1.376 . S
C833 C834 1.388 . S
C834 H821 0.930 . S
C834 C833 1.388 . S
C834 C835 1.390 . S
C835 C834 1.390 . S
C835 C836 1.394 . S
C835 C841 1.465 . S
C836 C831 1.399 . S
C836 C835 1.394 . S
C836 C837 1.516 . S
C837 C836 1.516 . S
C837 C838 1.502 . S
C837 C839 1.561 . S
C837 C840 1.526 . S
C838 H822 0.959 . S
C838 H823 0.959 . S
C838 H824 0.961 . S
C838 C837 1.502 . S
C839 H825 0.960 . S
C839 H826 0.961 . S
C839 H827 0.959 . S
C839 C837 1.561 . S
C840 C837 1.526 . S
C840 C841 1.396 . S
C840 C845 1.390 . S
C841 C835 1.465 . S
C841 C840 1.396 . S
C841 C842 1.399 . S
C842 H828 0.929 . S
C842 C841 1.399 . S
C842 C843 1.385 . S
C843 H829 0.931 . S
C843 C842 1.385 . S
C843 C844 1.389 . S
C844 C843 1.389 . S
C844 C845 1.387 . S
C845 H830 0.930 . S
C845 C840 1.390 . S
C845 C844 1.387 . S
H846 C858 0.930 . S
H847 C860 0.930 . S
H848 C861 0.930 . S
H849 C865 0.959 . S
H850 C865 0.959 . S
H851 C865 0.961 . S
H852 C866 0.960 . S
H853 C866 0.961 . S
H854 C866 0.959 . S
H855 C869 0.929 . S
H856 C870 0.931 . S
H857 C872 0.930 . S
C858 H846 0.930 . S
C858 C859 1.382 1_565 S
C858 C863 1.399 . S
C859 C858 1.382 1_545 S
C859 C860 1.422 . S
C860 H847 0.930 . S
C860 C859 1.422 . S
C860 C861 1.388 . S
C861 H848 0.930 . S
C861 C860 1.388 . S
C861 C862 1.390 . S
C862 C861 1.390 . S
C862 C863 1.394 1_545 S
C862 C868 1.465 . S
C863 C858 1.399 . S
C863 C862 1.394 1_565 S
C863 C864 1.516 . S
C864 C863 1.516 . S
C864 C865 1.502 . S
C864 C866 1.561 . S
C864 C867 1.526 . S
C865 H849 0.959 . S
C865 H850 0.959 . S
C865 H851 0.961 . S
C865 C864 1.502 . S
C866 H852 0.960 . S
C866 H853 0.961 . S
C866 H854 0.959 . S
C866 C864 1.561 . S
C867 C864 1.526 . S
C867 C868 1.396 1_565 S
C867 C872 1.390 . S
C868 C862 1.465 . S
C868 C867 1.396 1_545 S
C868 C869 1.399 . S
C869 H855 0.929 . S
C869 C868 1.399 . S
C869 C870 1.385 . S
C870 H856 0.931 . S
C870 C869 1.385 . S
C870 C871 1.389 . S
C871 C870 1.389 . S
C871 C872 1.387 1_545 S
C872 H857 0.930 . S
C872 C867 1.390 . S
C872 C871 1.387 1_565 S
H873 C885 0.930 . S
H874 C887 0.930 . S
H875 C888 0.930 . S
H876 C892 0.959 . S
H877 C892 0.959 . S
H878 C892 0.961 . S
H879 C893 0.960 . S
H880 C893 0.961 . S
H881 C893 0.959 . S
H882 C896 0.929 . S
H883 C897 0.931 . S
H884 C899 0.930 . S
C885 H873 0.930 . S
C885 C886 1.399 . S
C885 C890 1.399 . S
C886 C885 1.399 . S
C886 C887 1.376 1_545 S
C887 H874 0.930 . S
C887 C886 1.376 1_565 S
C887 C888 1.388 . S
C888 H875 0.930 . S
C888 C887 1.388 . S
C888 C889 1.390 . S
C889 C888 1.390 . S
C889 C890 1.394 1_565 S
C889 C895 1.465 . S
C890 C885 1.399 . S
C890 C889 1.394 1_545 S
C890 C891 1.516 . S
C891 C890 1.516 . S
C891 C892 1.502 . S
C891 C893 1.561 . S
C891 C894 1.526 . S
C892 H876 0.959 . S
C892 H877 0.959 . S
C892 H878 0.961 . S
C892 C891 1.502 . S
C893 H879 0.960 . S
C893 H880 0.961 . S
C893 H881 0.959 . S
C893 C891 1.561 . S
C894 C891 1.526 . S
C894 C895 1.396 1_545 S
C894 C899 1.390 . S
C895 C889 1.465 . S
C895 C894 1.396 1_565 S
C895 C896 1.399 . S
C896 H882 0.929 . S
C896 C895 1.399 . S
C896 C897 1.385 . S
C897 H883 0.931 . S
C897 C896 1.385 . S
C897 C898 1.418 . S
C898 C897 1.418 . S
C898 C899 1.382 1_565 S
C899 H884 0.930 . S
C899 C894 1.390 . S
C899 C898 1.382 1_545 S
H900 C912 0.930 . S
H901 C914 0.930 . S
H902 C915 0.930 . S
H903 C919 0.959 . S
H904 C919 0.959 . S
H905 C919 0.961 . S
H906 C920 0.960 . S
H907 C920 0.961 . S
H908 C920 0.959 1_655 S
H909 C923 0.929 . S
H910 C924 0.931 . S
H911 C926 0.930 . S
C912 H900 0.930 . S
C912 C913 1.399 1_455 S
C912 C917 1.399 . S
C913 C912 1.399 1_655 S
C913 C914 1.376 . S
C914 H901 0.930 . S
C914 C913 1.376 . S
C914 C915 1.388 . S
C915 H902 0.930 . S
C915 C914 1.388 . S
C915 C916 1.390 . S
C916 C915 1.390 . S
C916 C917 1.394 1_655 S
C916 C922 1.465 . S
C917 C912 1.399 . S
C917 C916 1.394 1_455 S
C917 C918 1.516 . S
C918 C917 1.516 . S
C918 C919 1.502 . S
C918 C920 1.561 . S
C918 C921 1.526 . S
C919 H903 0.959 . S
C919 H904 0.959 . S
C919 H905 0.961 . S
C919 C918 1.502 . S
C920 H906 0.960 . S
C920 H907 0.961 . S
C920 H908 0.959 1_455 S
C920 C918 1.561 . S
C921 C918 1.526 . S
C921 C922 1.396 1_455 S
C921 C926 1.390 . S
C922 C916 1.465 . S
C922 C921 1.396 1_655 S
C922 C923 1.399 . S
C923 H909 0.929 . S
C923 C922 1.399 . S
C923 C924 1.385 . S
C924 H910 0.931 . S
C924 C923 1.385 . S
C924 C925 1.389 . S
C925 C924 1.389 . S
C925 C926 1.387 1_655 S
C926 H911 0.930 . S
C926 C921 1.390 . S
C926 C925 1.387 1_455 S
H927 C939 0.930 . S
H928 C941 0.930 . S
H929 C942 0.930 . S
H930 C946 0.959 . S
H931 C946 0.959 . S
H932 C946 0.961 . S
H933 C947 0.960 . S
H934 C947 0.961 . S
H935 C947 0.959 . S
H936 C950 0.929 . S
H937 C951 0.931 . S
H938 C953 0.930 . S
C939 H927 0.930 . S
C939 C940 1.399 . S
C939 C944 1.399 . S
C940 C939 1.399 . S
C940 C941 1.376 . S
C941 H928 0.930 . S
C941 C940 1.376 . S
C941 C942 1.388 . S
C942 H929 0.930 . S
C942 C941 1.388 . S
C942 C943 1.390 . S
C943 C942 1.390 . S
C943 C944 1.394 . S
C943 C949 1.465 . S
C944 C939 1.399 . S
C944 C943 1.394 . S
C944 C945 1.516 . S
C945 C944 1.516 . S
C945 C946 1.502 . S
C945 C947 1.561 . S
C945 C948 1.526 . S
C946 H930 0.959 . S
C946 H931 0.959 . S
C946 H932 0.961 . S
C946 C945 1.502 . S
C947 H933 0.960 . S
C947 H934 0.961 . S
C947 H935 0.959 . S
C947 C945 1.561 . S
C948 C945 1.526 . S
C948 C949 1.396 . S
C948 C953 1.390 . S
C949 C943 1.465 . S
C949 C948 1.396 . S
C949 C950 1.399 . S
C950 H936 0.929 . S
C950 C949 1.399 . S
C950 C951 1.385 . S
C951 H937 0.931 . S
C951 C950 1.385 . S
C951 C952 1.389 . S
C952 C951 1.389 . S
C952 C953 1.387 . S
C953 H938 0.930 . S
C953 C948 1.390 . S
C953 C952 1.387 . S
H954 C966 0.930 . S
H955 C968 0.930 . S
H956 C969 0.930 . S
H957 C973 0.959 . S
H958 C973 0.959 . S
H959 C973 0.961 . S
H960 C974 0.960 . S
H961 C974 0.961 . S
H962 C974 0.959 . S
H963 C977 0.929 . S
H964 C978 0.931 . S
H965 C980 0.930 . S
C966 H954 0.930 . S
C966 C967 1.399 . S
C966 C971 1.399 . S
C967 C966 1.399 . S
C967 C968 1.376 . S
C968 H955 0.930 . S
C968 C967 1.376 . S
C968 C969 1.388 . S
C969 H956 0.930 . S
C969 C968 1.388 . S
C969 C970 1.390 . S
C970 C969 1.390 . S
C970 C971 1.394 . S
C970 C976 1.465 . S
C971 C966 1.399 . S
C971 C970 1.394 . S
C971 C972 1.516 . S
C972 C971 1.516 . S
C972 C973 1.502 . S
C972 C974 1.561 . S
C972 C975 1.526 . S
C973 H957 0.959 . S
C973 H958 0.959 . S
C973 H959 0.961 . S
C973 C972 1.502 . S
C974 H960 0.960 . S
C974 H961 0.961 . S
C974 H962 0.959 . S
C974 C972 1.561 . S
C975 C972 1.526 . S
C975 C976 1.396 . S
C975 C980 1.390 . S
C976 C970 1.465 . S
C976 C975 1.396 . S
C976 C977 1.399 . S
C977 H963 0.929 . S
C977 C976 1.399 . S
C977 C978 1.385 . S
C978 H964 0.931 . S
C978 C977 1.385 . S
C978 C979 1.389 . S
C979 C978 1.389 . S
C979 C980 1.387 . S
C980 H965 0.930 . S
C980 C975 1.390 . S
C980 C979 1.387 . S
H981 C993 0.930 . S
H982 C995 0.930 . S
H983 C996 0.930 . S
H984 C1000 0.959 . S
H985 C1000 0.959 . S
H986 C1000 0.961 . S
H987 C1001 0.960 . S
H988 C1001 0.961 . S
H989 C1001 0.959 . S
H990 C1004 0.929 . S
H991 C1005 0.931 . S
H992 C1007 0.930 . S
C993 H981 0.930 . S
C993 C994 1.399 . S
C993 C998 1.399 . S
C994 C993 1.399 . S
C994 C995 1.376 . S
C995 H982 0.930 . S
C995 C994 1.376 . S
C995 C996 1.388 . S
C996 H983 0.930 . S
C996 C995 1.388 . S
C996 C997 1.390 . S
C997 C996 1.390 . S
C997 C998 1.394 . S
C997 C1003 1.465 . S
C998 C993 1.399 . S
C998 C997 1.394 . S
C998 C999 1.516 . S
C999 C998 1.516 . S
C999 C1000 1.502 . S
C999 C1001 1.561 . S
C999 C1002 1.526 . S
C1000 H984 0.959 . S
C1000 H985 0.959 . S
C1000 H986 0.961 . S
C1000 C999 1.502 . S
C1001 H987 0.960 . S
C1001 H988 0.961 . S
C1001 H989 0.959 . S
C1001 C999 1.561 . S
C1002 C999 1.526 . S
C1002 C1003 1.396 . S
C1002 C1007 1.390 . S
C1003 C997 1.465 . S
C1003 C1002 1.396 . S
C1003 C1004 1.399 . S
C1004 H990 0.929 . S
C1004 C1003 1.399 . S
C1004 C1005 1.385 . S
C1005 H991 0.931 . S
C1005 C1004 1.385 . S
C1005 C1006 1.389 . S
C1006 C1005 1.389 . S
C1006 C1007 1.387 . S
C1007 H992 0.930 . S
C1007 C1002 1.390 . S
C1007 C1006 1.387 . S
H1008 C1020 0.930 . S
H1009 C1022 0.930 . S
H1010 C1023 0.930 . S
H1011 C1027 0.959 . S
H1012 C1027 0.959 . S
H1013 C1027 0.961 . S
H1014 C1028 0.960 . S
H1015 C1028 0.961 . S
H1016 C1028 0.959 . S
H1017 C1031 0.929 . S
H1018 C1032 0.931 . S
H1019 C1034 0.930 . S
C1020 H1008 0.930 . S
C1020 C1021 1.399 . S
C1020 C1025 1.399 . S
C1021 C1020 1.399 . S
C1021 C1022 1.376 . S
C1022 H1009 0.930 . S
C1022 C1021 1.376 . S
C1022 C1023 1.388 . S
C1023 H1010 0.930 . S
C1023 C1022 1.388 . S
C1023 C1024 1.390 . S
C1024 C1023 1.390 . S
C1024 C1025 1.394 . S
C1024 C1030 1.465 . S
C1025 C1020 1.399 . S
C1025 C1024 1.394 . S
C1025 C1026 1.516 . S
C1026 C1025 1.516 . S
C1026 C1027 1.502 . S
C1026 C1028 1.561 . S
C1026 C1029 1.526 . S
C1027 H1011 0.959 . S
C1027 H1012 0.959 . S
C1027 H1013 0.961 . S
C1027 C1026 1.502 . S
C1028 H1014 0.960 . S
C1028 H1015 0.961 . S
C1028 H1016 0.959 . S
C1028 C1026 1.561 . S
C1029 C1026 1.526 . S
C1029 C1030 1.396 . S
C1029 C1034 1.390 . S
C1030 C1024 1.465 . S
C1030 C1029 1.396 . S
C1030 C1031 1.399 . S
C1031 H1017 0.929 . S
C1031 C1030 1.399 . S
C1031 C1032 1.385 . S
C1032 H1018 0.931 . S
C1032 C1031 1.385 . S
C1032 C1033 1.389 . S
C1033 C1032 1.389 . S
C1033 C1034 1.387 . S
C1034 H1019 0.930 . S
C1034 C1029 1.390 . S
C1034 C1033 1.387 . S
H1035 C1047 0.930 . S
H1036 C1049 0.930 . S
H1037 C1050 0.930 . S
H1038 C1054 0.959 . S
H1039 C1054 0.959 . S
H1040 C1054 0.961 . S
H1041 C1055 0.960 . S
H1042 C1055 0.961 . S
H1043 C1055 0.959 . S
H1044 C1058 0.929 . S
H1045 C1059 0.931 . S
H1046 C1061 0.930 . S
C1047 H1035 0.930 . S
C1047 C1048 1.399 . S
C1047 C1052 1.399 . S
C1048 C1047 1.399 . S
C1048 C1049 1.376 . S
C1049 H1036 0.930 . S
C1049 C1048 1.376 . S
C1049 C1050 1.388 . S
C1050 H1037 0.930 . S
C1050 C1049 1.388 . S
C1050 C1051 1.390 . S
C1051 C1050 1.390 . S
C1051 C1052 1.394 . S
C1051 C1057 1.465 . S
C1052 C1047 1.399 . S
C1052 C1051 1.394 . S
C1052 C1053 1.516 . S
C1053 C1052 1.516 . S
C1053 C1054 1.502 . S
C1053 C1055 1.561 . S
C1053 C1056 1.526 . S
C1054 H1038 0.959 . S
C1054 H1039 0.959 . S
C1054 H1040 0.961 . S
C1054 C1053 1.502 . S
C1055 H1041 0.960 . S
C1055 H1042 0.961 . S
C1055 H1043 0.959 . S
C1055 C1053 1.561 . S
C1056 C1053 1.526 . S
C1056 C1057 1.396 . S
C1056 C1061 1.390 . S
C1057 C1051 1.465 . S
C1057 C1056 1.396 . S
C1057 C1058 1.399 . S
C1058 H1044 0.929 . S
C1058 C1057 1.399 . S
C1058 C1059 1.385 . S
C1059 H1045 0.931 . S
C1059 C1058 1.385 . S
C1059 C1060 1.389 . S
C1060 C1059 1.389 . S
C1060 C1061 1.387 . S
C1061 H1046 0.930 . S
C1061 C1056 1.390 . S
C1061 C1060 1.387 . S
H1062 C1074 0.930 . S
H1063 C1076 0.930 . S
H1064 C1077 0.930 . S
H1065 C1081 0.959 . S
H1066 C1081 0.959 . S
H1067 C1081 0.961 . S
H1068 C1082 0.960 . S
H1069 C1082 0.961 . S
H1070 C1082 0.959 . S
H1071 C1085 0.929 . S
H1072 C1086 0.931 . S
H1073 C1088 0.930 . S
C1074 H1062 0.930 . S
C1074 C1075 1.399 . S
C1074 C1079 1.399 . S
C1075 C1074 1.399 . S
C1075 C1076 1.376 . S
C1076 H1063 0.930 . S
C1076 C1075 1.376 . S
C1076 C1077 1.388 . S
C1077 H1064 0.930 . S
C1077 C1076 1.388 . S
C1077 C1078 1.390 . S
C1078 C1077 1.390 . S
C1078 C1079 1.394 . S
C1078 C1084 1.465 . S
C1079 C1074 1.399 . S
C1079 C1078 1.394 . S
C1079 C1080 1.516 . S
C1080 C1079 1.516 . S
C1080 C1081 1.502 . S
C1080 C1082 1.561 . S
C1080 C1083 1.526 . S
C1081 H1065 0.959 . S
C1081 H1066 0.959 . S
C1081 H1067 0.961 . S
C1081 C1080 1.502 . S
C1082 H1068 0.960 . S
C1082 H1069 0.961 . S
C1082 H1070 0.959 . S
C1082 C1080 1.561 . S
C1083 C1080 1.526 . S
C1083 C1084 1.396 . S
C1083 C1088 1.390 . S
C1084 C1078 1.465 . S
C1084 C1083 1.396 . S
C1084 C1085 1.399 . S
C1085 H1071 0.929 . S
C1085 C1084 1.399 . S
C1085 C1086 1.385 . S
C1086 H1072 0.931 . S
C1086 C1085 1.385 . S
C1086 C1087 1.389 . S
C1087 C1086 1.389 . S
C1087 C1088 1.387 . S
C1088 H1073 0.930 . S
C1088 C1083 1.390 . S
C1088 C1087 1.387 . S
H1089 C1101 0.930 . S
H1090 C1103 0.930 . S
H1091 C1104 0.930 . S
H1092 C1108 0.959 . S
H1093 C1108 0.959 . S
H1094 C1108 0.961 . S
H1095 C1109 0.960 . S
H1096 C1109 0.961 . S
H1097 C1109 0.959 . S
H1098 C1112 0.929 . S
H1099 C1113 0.931 . S
H1100 C1115 0.930 . S
C1101 H1089 0.930 . S
C1101 C1102 1.399 . S
C1101 C1106 1.399 . S
C1102 C1101 1.399 . S
C1102 C1103 1.376 . S
C1103 H1090 0.930 . S
C1103 C1102 1.376 . S
C1103 C1104 1.388 . S
C1104 H1091 0.930 . S
C1104 C1103 1.388 . S
C1104 C1105 1.390 . S
C1105 C1104 1.390 . S
C1105 C1106 1.394 . S
C1105 C1111 1.465 . S
C1106 C1101 1.399 . S
C1106 C1105 1.394 . S
C1106 C1107 1.516 . S
C1107 C1106 1.516 . S
C1107 C1108 1.502 . S
C1107 C1109 1.561 . S
C1107 C1110 1.526 . S
C1108 H1092 0.959 . S
C1108 H1093 0.959 . S
C1108 H1094 0.961 . S
C1108 C1107 1.502 . S
C1109 H1095 0.960 . S
C1109 H1096 0.961 . S
C1109 H1097 0.959 . S
C1109 C1107 1.561 . S
C1110 C1107 1.526 . S
C1110 C1111 1.396 . S
C1110 C1115 1.390 . S
C1111 C1105 1.465 . S
C1111 C1110 1.396 . S
C1111 C1112 1.399 . S
C1112 H1098 0.929 . S
C1112 C1111 1.399 . S
C1112 C1113 1.385 . S
C1113 H1099 0.931 . S
C1113 C1112 1.385 . S
C1113 C1114 1.389 . S
C1114 C1113 1.389 . S
C1114 C1115 1.387 . S
C1115 H1100 0.930 . S
C1115 C1110 1.390 . S
C1115 C1114 1.387 . S
H1116 C1128 0.930 . S
H1117 C1130 0.930 . S
H1118 C1131 0.930 . S
H1119 C1135 0.959 . S
H1120 C1135 0.959 . S
H1121 C1135 0.961 . S
H1122 C1136 0.960 . S
H1123 C1136 0.961 . S
H1124 C1136 0.959 . S
H1125 C1139 0.929 . S
H1126 C1140 0.931 . S
H1127 C1142 0.930 . S
C1128 H1116 0.930 . S
C1128 C1129 1.399 . S
C1128 C1133 1.399 . S
C1129 C1128 1.399 . S
C1129 C1130 1.376 . S
C1130 H1117 0.930 . S
C1130 C1129 1.376 . S
C1130 C1131 1.388 . S
C1131 H1118 0.930 . S
C1131 C1130 1.388 . S
C1131 C1132 1.390 . S
C1132 C1131 1.390 . S
C1132 C1133 1.394 . S
C1132 C1138 1.465 . S
C1133 C1128 1.399 . S
C1133 C1132 1.394 . S
C1133 C1134 1.516 . S
C1134 C1133 1.516 . S
C1134 C1135 1.502 . S
C1134 C1136 1.561 . S
C1134 C1137 1.526 . S
C1135 H1119 0.959 . S
C1135 H1120 0.959 . S
C1135 H1121 0.961 . S
C1135 C1134 1.502 . S
C1136 H1122 0.960 . S
C1136 H1123 0.961 . S
C1136 H1124 0.959 . S
C1136 C1134 1.561 . S
C1137 C1134 1.526 . S
C1137 C1138 1.396 . S
C1137 C1142 1.390 . S
C1138 C1132 1.465 . S
C1138 C1137 1.396 . S
C1138 C1139 1.399 . S
C1139 H1125 0.929 . S
C1139 C1138 1.399 . S
C1139 C1140 1.385 . S
C1140 H1126 0.931 . S
C1140 C1139 1.385 . S
C1140 C1141 1.389 . S
C1141 C1140 1.389 . S
C1141 C1142 1.387 . S
C1142 H1127 0.930 . S
C1142 C1137 1.390 . S
C1142 C1141 1.387 . S
H1143 C1155 0.930 . S
H1144 C1157 0.930 . S
H1145 C1158 0.930 . S
H1146 C1162 0.959 . S
H1147 C1162 0.959 . S
H1148 C1162 0.961 . S
H1149 C1163 0.960 . S
H1150 C1163 0.961 . S
H1151 C1163 0.959 . S
H1152 C1166 0.929 . S
H1153 C1167 0.931 . S
H1154 C1169 0.930 . S
C1155 H1143 0.930 . S
C1155 C1156 1.399 . S
C1155 C1160 1.399 . S
C1156 C1155 1.399 . S
C1156 C1157 1.376 . S
C1157 H1144 0.930 . S
C1157 C1156 1.376 . S
C1157 C1158 1.388 . S
C1158 H1145 0.930 . S
C1158 C1157 1.388 . S
C1158 C1159 1.390 . S
C1159 C1158 1.390 . S
C1159 C1160 1.394 . S
C1159 C1165 1.465 . S
C1160 C1155 1.399 . S
C1160 C1159 1.394 . S
C1160 C1161 1.516 . S
C1161 C1160 1.516 . S
C1161 C1162 1.502 . S
C1161 C1163 1.561 . S
C1161 C1164 1.526 . S
C1162 H1146 0.959 . S
C1162 H1147 0.959 . S
C1162 H1148 0.961 . S
C1162 C1161 1.502 . S
C1163 H1149 0.960 . S
C1163 H1150 0.961 . S
C1163 H1151 0.959 . S
C1163 C1161 1.561 . S
C1164 C1161 1.526 . S
C1164 C1165 1.396 . S
C1164 C1169 1.390 . S
C1165 C1159 1.465 . S
C1165 C1164 1.396 . S
C1165 C1166 1.399 . S
C1166 H1152 0.929 . S
C1166 C1165 1.399 . S
C1166 C1167 1.385 . S
C1167 H1153 0.931 . S
C1167 C1166 1.385 . S
C1167 C1168 1.389 . S
C1168 C1167 1.389 . S
C1168 C1169 1.387 . S
C1169 H1154 0.930 . S
C1169 C1164 1.390 . S
C1169 C1168 1.387 . S
H1170 C1182 0.930 . S
H1171 C1184 0.930 . S
H1172 C1185 0.930 . S
H1173 C1189 0.959 . S
H1174 C1189 0.959 . S
H1175 C1189 0.961 . S
H1176 C1190 0.960 . S
H1177 C1190 0.961 . S
H1178 C1190 0.959 . S
H1179 C1193 0.929 . S
H1180 C1194 0.931 . S
H1181 C1196 0.930 . S
C1182 H1170 0.930 . S
C1182 C1183 1.399 . S
C1182 C1187 1.399 . S
C1183 C1182 1.399 . S
C1183 C1184 1.376 . S
C1184 H1171 0.930 . S
C1184 C1183 1.376 . S
C1184 C1185 1.388 . S
C1185 H1172 0.930 . S
C1185 C1184 1.388 . S
C1185 C1186 1.390 . S
C1186 C1185 1.390 . S
C1186 C1187 1.394 . S
C1186 C1192 1.465 . S
C1187 C1182 1.399 . S
C1187 C1186 1.394 . S
C1187 C1188 1.516 . S
C1188 C1187 1.516 . S
C1188 C1189 1.502 . S
C1188 C1190 1.561 . S
C1188 C1191 1.526 . S
C1189 H1173 0.959 . S
C1189 H1174 0.959 . S
C1189 H1175 0.961 . S
C1189 C1188 1.502 . S
C1190 H1176 0.960 . S
C1190 H1177 0.961 . S
C1190 H1178 0.959 . S
C1190 C1188 1.561 . S
C1191 C1188 1.526 . S
C1191 C1192 1.396 . S
C1191 C1196 1.390 . S
C1192 C1186 1.465 . S
C1192 C1191 1.396 . S
C1192 C1193 1.399 . S
C1193 H1179 0.929 . S
C1193 C1192 1.399 . S
C1193 C1194 1.385 . S
C1194 H1180 0.931 . S
C1194 C1193 1.385 . S
C1194 C1195 1.389 . S
C1195 C1194 1.389 . S
C1195 C1196 1.387 . S
C1196 H1181 0.930 . S
C1196 C1191 1.390 . S
C1196 C1195 1.387 . S
H1197 C1209 0.930 . S
H1198 C1211 0.930 . S
H1199 C1212 0.930 . S
H1200 C1216 0.959 . S
H1201 C1216 0.959 . S
H1202 C1216 0.961 . S
H1203 C1217 0.960 . S
H1204 C1217 0.961 . S
H1205 C1217 0.959 . S
H1206 C1220 0.929 . S
H1207 C1221 0.931 . S
H1208 C1223 0.930 . S
C1209 H1197 0.930 . S
C1209 C1210 1.399 . S
C1209 C1214 1.399 . S
C1210 C1209 1.399 . S
C1210 C1211 1.376 . S
C1211 H1198 0.930 . S
C1211 C1210 1.376 . S
C1211 C1212 1.388 . S
C1212 H1199 0.930 . S
C1212 C1211 1.388 . S
C1212 C1213 1.390 . S
C1213 C1212 1.390 . S
C1213 C1214 1.394 . S
C1213 C1219 1.465 . S
C1214 C1209 1.399 . S
C1214 C1213 1.394 . S
C1214 C1215 1.516 . S
C1215 C1214 1.516 . S
C1215 C1216 1.502 . S
C1215 C1217 1.561 . S
C1215 C1218 1.526 . S
C1216 H1200 0.959 . S
C1216 H1201 0.959 . S
C1216 H1202 0.961 . S
C1216 C1215 1.502 . S
C1217 H1203 0.960 . S
C1217 H1204 0.961 . S
C1217 H1205 0.959 . S
C1217 C1215 1.561 . S
C1218 C1215 1.526 . S
C1218 C1219 1.396 . S
C1218 C1223 1.390 . S
C1219 C1213 1.465 . S
C1219 C1218 1.396 . S
C1219 C1220 1.399 . S
C1220 H1206 0.929 . S
C1220 C1219 1.399 . S
C1220 C1221 1.385 . S
C1221 H1207 0.931 . S
C1221 C1220 1.385 . S
C1221 C1222 1.389 . S
C1222 C1221 1.389 . S
C1222 C1223 1.387 . S
C1223 H1208 0.930 . S
C1223 C1218 1.390 . S
C1223 C1222 1.387 . S
H1224 C1236 0.930 . S
H1225 C1238 0.930 . S
H1226 C1239 0.930 . S
H1227 C1243 0.959 . S
H1228 C1243 0.959 . S
H1229 C1243 0.961 . S
H1230 C1244 0.960 . S
H1231 C1244 0.961 . S
H1232 C1244 0.959 . S
H1233 C1247 0.929 . S
H1234 C1248 0.931 . S
H1235 C1250 0.930 . S
C1236 H1224 0.930 . S
C1236 C1237 1.399 . S
C1236 C1241 1.399 . S
C1237 C1236 1.399 . S
C1237 C1238 1.376 . S
C1238 H1225 0.930 . S
C1238 C1237 1.376 . S
C1238 C1239 1.388 . S
C1239 H1226 0.930 . S
C1239 C1238 1.388 . S
C1239 C1240 1.390 . S
C1240 C1239 1.390 . S
C1240 C1241 1.394 . S
C1240 C1246 1.465 . S
C1241 C1236 1.399 . S
C1241 C1240 1.394 . S
C1241 C1242 1.516 . S
C1242 C1241 1.516 . S
C1242 C1243 1.502 . S
C1242 C1244 1.561 . S
C1242 C1245 1.526 . S
C1243 H1227 0.959 . S
C1243 H1228 0.959 . S
C1243 H1229 0.961 . S
C1243 C1242 1.502 . S
C1244 H1230 0.960 . S
C1244 H1231 0.961 . S
C1244 H1232 0.959 . S
C1244 C1242 1.561 . S
C1245 C1242 1.526 . S
C1245 C1246 1.396 . S
C1245 C1250 1.390 . S
C1246 C1240 1.465 . S
C1246 C1245 1.396 . S
C1246 C1247 1.399 . S
C1247 H1233 0.929 . S
C1247 C1246 1.399 . S
C1247 C1248 1.385 . S
C1248 H1234 0.931 . S
C1248 C1247 1.385 . S
C1248 C1249 1.389 . S
C1249 C1248 1.389 . S
C1249 C1250 1.387 . S
C1250 H1235 0.930 . S
C1250 C1245 1.390 . S
C1250 C1249 1.387 . S
H1251 C1263 0.930 . S
H1252 C1265 0.930 . S
H1253 C1266 0.930 . S
H1254 C1270 0.959 . S
H1255 C1270 0.959 . S
H1256 C1270 0.961 . S
H1257 C1271 0.960 . S
H1258 C1271 0.961 . S
H1259 C1271 0.959 . S
H1260 C1274 0.929 . S
H1261 C1275 0.931 . S
H1262 C1277 0.930 . S
C1263 H1251 0.930 . S
C1263 C1264 1.399 . S
C1263 C1268 1.399 . S
C1264 C1263 1.399 . S
C1264 C1265 1.376 . S
C1265 H1252 0.930 . S
C1265 C1264 1.376 . S
C1265 C1266 1.388 . S
C1266 H1253 0.930 . S
C1266 C1265 1.388 . S
C1266 C1267 1.390 . S
C1267 C1266 1.390 . S
C1267 C1268 1.394 . S
C1267 C1273 1.465 . S
C1268 C1263 1.399 . S
C1268 C1267 1.394 . S
C1268 C1269 1.516 . S
C1269 C1268 1.516 . S
C1269 C1270 1.502 . S
C1269 C1271 1.561 . S
C1269 C1272 1.526 . S
C1270 H1254 0.959 . S
C1270 H1255 0.959 . S
C1270 H1256 0.961 . S
C1270 C1269 1.502 . S
C1271 H1257 0.960 . S
C1271 H1258 0.961 . S
C1271 H1259 0.959 . S
C1271 C1269 1.561 . S
C1272 C1269 1.526 . S
C1272 C1273 1.396 . S
C1272 C1277 1.390 . S
C1273 C1267 1.465 . S
C1273 C1272 1.396 . S
C1273 C1274 1.399 . S
C1274 H1260 0.929 . S
C1274 C1273 1.399 . S
C1274 C1275 1.385 . S
C1275 H1261 0.931 . S
C1275 C1274 1.385 . S
C1275 C1276 1.389 . S
C1276 C1275 1.389 . S
C1276 C1277 1.387 . S
C1277 H1262 0.930 . S
C1277 C1272 1.390 . S
C1277 C1276 1.387 . S
H1278 C1290 0.930 . S
H1279 C1292 0.930 . S
H1280 C1293 0.930 . S
H1281 C1297 0.959 . S
H1282 C1297 0.959 . S
H1283 C1297 0.961 . S
H1284 C1298 0.960 . S
H1285 C1298 0.961 . S
H1286 C1298 0.959 . S
H1287 C1301 0.929 . S
H1288 C1302 0.931 . S
H1289 C1304 0.930 . S
C1290 H1278 0.930 . S
C1290 C1291 1.399 . S
C1290 C1295 1.399 . S
C1291 C1290 1.399 . S
C1291 C1292 1.376 . S
C1292 H1279 0.930 . S
C1292 C1291 1.376 . S
C1292 C1293 1.388 . S
C1293 H1280 0.930 . S
C1293 C1292 1.388 . S
C1293 C1294 1.390 . S
C1294 C1293 1.390 . S
C1294 C1295 1.394 . S
C1294 C1300 1.465 . S
C1295 C1290 1.399 . S
C1295 C1294 1.394 . S
C1295 C1296 1.516 . S
C1296 C1295 1.516 . S
C1296 C1297 1.502 . S
C1296 C1298 1.561 . S
C1296 C1299 1.526 . S
C1297 H1281 0.959 . S
C1297 H1282 0.959 . S
C1297 H1283 0.961 . S
C1297 C1296 1.502 . S
C1298 H1284 0.960 . S
C1298 H1285 0.961 . S
C1298 H1286 0.959 . S
C1298 C1296 1.561 . S
C1299 C1296 1.526 . S
C1299 C1300 1.396 . S
C1299 C1304 1.390 . S
C1300 C1294 1.465 . S
C1300 C1299 1.396 . S
C1300 C1301 1.399 . S
C1301 H1287 0.929 . S
C1301 C1300 1.399 . S
C1301 C1302 1.385 . S
C1302 H1288 0.931 . S
C1302 C1301 1.385 . S
C1302 C1303 1.389 . S
C1303 C1302 1.389 . S
C1303 C1304 1.387 . S
C1304 H1289 0.930 . S
C1304 C1299 1.390 . S
C1304 C1303 1.387 . S
H1305 C1317 0.930 . S
H1306 C1319 0.930 . S
H1307 C1320 0.930 . S
H1308 C1324 0.959 . S
H1309 C1324 0.959 . S
H1310 C1324 0.961 . S
H1311 C1325 0.960 . S
H1312 C1325 0.961 . S
H1313 C1325 0.959 . S
H1314 C1328 0.929 . S
H1315 C1329 0.931 . S
H1316 C1331 0.930 . S
C1317 H1305 0.930 . S
C1317 C1318 1.399 . S
C1317 C1322 1.399 . S
C1318 C1317 1.399 . S
C1318 C1319 1.376 . S
C1319 H1306 0.930 . S
C1319 C1318 1.376 . S
C1319 C1320 1.388 . S
C1320 H1307 0.930 . S
C1320 C1319 1.388 . S
C1320 C1321 1.390 . S
C1321 C1320 1.390 . S
C1321 C1322 1.394 . S
C1321 C1327 1.465 . S
C1322 C1317 1.399 . S
C1322 C1321 1.394 . S
C1322 C1323 1.516 . S
C1323 C1322 1.516 . S
C1323 C1324 1.502 . S
C1323 C1325 1.561 . S
C1323 C1326 1.526 . S
C1324 H1308 0.959 . S
C1324 H1309 0.959 . S
C1324 H1310 0.961 . S
C1324 C1323 1.502 . S
C1325 H1311 0.960 . S
C1325 H1312 0.961 . S
C1325 H1313 0.959 . S
C1325 C1323 1.561 . S
C1326 C1323 1.526 . S
C1326 C1327 1.396 . S
C1326 C1331 1.390 . S
C1327 C1321 1.465 . S
C1327 C1326 1.396 . S
C1327 C1328 1.399 . S
C1328 H1314 0.929 . S
C1328 C1327 1.399 . S
C1328 C1329 1.385 . S
C1329 H1315 0.931 . S
C1329 C1328 1.385 . S
C1329 C1330 1.389 . S
C1330 C1329 1.389 . S
C1330 C1331 1.387 . S
C1331 H1316 0.930 . S
C1331 C1326 1.390 . S
C1331 C1330 1.387 . S
H1332 C1344 0.930 . S
H1333 C1346 0.930 . S
H1334 C1347 0.930 . S
H1335 C1351 0.959 . S
H1336 C1351 0.959 . S
H1337 C1351 0.961 . S
H1338 C1352 0.960 . S
H1339 C1352 0.961 . S
H1340 C1352 0.959 . S
H1341 C1355 0.929 . S
H1342 C1356 0.931 . S
H1343 C1358 0.930 . S
C1344 H1332 0.930 . S
C1344 C1345 1.399 . S
C1344 C1349 1.399 . S
C1345 C1344 1.399 . S
C1345 C1346 1.376 . S
C1346 H1333 0.930 . S
C1346 C1345 1.376 . S
C1346 C1347 1.388 . S
C1347 H1334 0.930 . S
C1347 C1346 1.388 . S
C1347 C1348 1.390 . S
C1348 C1347 1.390 . S
C1348 C1349 1.394 . S
C1348 C1354 1.465 . S
C1349 C1344 1.399 . S
C1349 C1348 1.394 . S
C1349 C1350 1.516 . S
C1350 C1349 1.516 . S
C1350 C1351 1.502 . S
C1350 C1352 1.561 . S
C1350 C1353 1.526 . S
C1351 H1335 0.959 . S
C1351 H1336 0.959 . S
C1351 H1337 0.961 . S
C1351 C1350 1.502 . S
C1352 H1338 0.960 . S
C1352 H1339 0.961 . S
C1352 H1340 0.959 . S
C1352 C1350 1.561 . S
C1353 C1350 1.526 . S
C1353 C1354 1.396 . S
C1353 C1358 1.390 . S
C1354 C1348 1.465 . S
C1354 C1353 1.396 . S
C1354 C1355 1.399 . S
C1355 H1341 0.929 . S
C1355 C1354 1.399 . S
C1355 C1356 1.385 . S
C1356 H1342 0.931 . S
C1356 C1355 1.385 . S
C1356 C1357 1.389 . S
C1357 C1356 1.389 . S
C1357 C1358 1.387 . S
C1358 H1343 0.930 . S
C1358 C1353 1.390 . S
C1358 C1357 1.387 . S
H1359 C1371 0.930 . S
H1360 C1373 0.930 . S
H1361 C1374 0.930 . S
H1362 C1378 0.959 . S
H1363 C1378 0.959 . S
H1364 C1378 0.961 . S
H1365 C1379 0.960 . S
H1366 C1379 0.961 . S
H1367 C1379 0.959 . S
H1368 C1382 0.929 . S
H1369 C1383 0.931 . S
H1370 C1385 0.930 . S
C1371 H1359 0.930 . S
C1371 C1372 1.399 . S
C1371 C1376 1.399 . S
C1372 C1371 1.399 . S
C1372 C1373 1.376 . S
C1373 H1360 0.930 . S
C1373 C1372 1.376 . S
C1373 C1374 1.388 . S
C1374 H1361 0.930 . S
C1374 C1373 1.388 . S
C1374 C1375 1.390 . S
C1375 C1374 1.390 . S
C1375 C1376 1.394 . S
C1375 C1381 1.465 . S
C1376 C1371 1.399 . S
C1376 C1375 1.394 . S
C1376 C1377 1.516 . S
C1377 C1376 1.516 . S
C1377 C1378 1.502 . S
C1377 C1379 1.561 . S
C1377 C1380 1.526 . S
C1378 H1362 0.959 . S
C1378 H1363 0.959 . S
C1378 H1364 0.961 . S
C1378 C1377 1.502 . S
C1379 H1365 0.960 . S
C1379 H1366 0.961 . S
C1379 H1367 0.959 . S
C1379 C1377 1.561 . S
C1380 C1377 1.526 . S
C1380 C1381 1.396 . S
C1380 C1385 1.390 . S
C1381 C1375 1.465 . S
C1381 C1380 1.396 . S
C1381 C1382 1.399 . S
C1382 H1368 0.929 . S
C1382 C1381 1.399 . S
C1382 C1383 1.385 . S
C1383 H1369 0.931 . S
C1383 C1382 1.385 . S
C1383 C1384 1.389 . S
C1384 C1383 1.389 . S
C1384 C1385 1.387 . S
C1385 H1370 0.930 . S
C1385 C1380 1.390 . S
C1385 C1384 1.387 . S
H1386 C1398 0.930 . S
H1387 C1400 0.930 . S
H1388 C1401 0.930 . S
H1389 C1405 0.959 . S
H1390 C1405 0.959 . S
H1391 C1405 0.961 . S
H1392 C1406 0.960 . S
H1393 C1406 0.961 . S
H1394 C1406 0.959 . S
H1395 C1409 0.929 . S
H1396 C1410 0.931 . S
H1397 C1412 0.930 . S
C1398 H1386 0.930 . S
C1398 C1399 1.399 . S
C1398 C1403 1.399 . S
C1399 C1398 1.399 . S
C1399 C1400 1.376 . S
C1400 H1387 0.930 . S
C1400 C1399 1.376 . S
C1400 C1401 1.388 . S
C1401 H1388 0.930 . S
C1401 C1400 1.388 . S
C1401 C1402 1.390 . S
C1402 C1401 1.390 . S
C1402 C1403 1.394 . S
C1402 C1408 1.465 . S
C1403 C1398 1.399 . S
C1403 C1402 1.394 . S
C1403 C1404 1.516 . S
C1404 C1403 1.516 . S
C1404 C1405 1.502 . S
C1404 C1406 1.561 . S
C1404 C1407 1.526 . S
C1405 H1389 0.959 . S
C1405 H1390 0.959 . S
C1405 H1391 0.961 . S
C1405 C1404 1.502 . S
C1406 H1392 0.960 . S
C1406 H1393 0.961 . S
C1406 H1394 0.959 . S
C1406 C1404 1.561 . S
C1407 C1404 1.526 . S
C1407 C1408 1.396 . S
C1407 C1412 1.390 . S
C1408 C1402 1.465 . S
C1408 C1407 1.396 . S
C1408 C1409 1.399 . S
C1409 H1395 0.929 . S
C1409 C1408 1.399 . S
C1409 C1410 1.385 . S
C1410 H1396 0.931 . S
C1410 C1409 1.385 . S
C1410 C1411 1.389 . S
C1411 C1410 1.389 . S
C1411 C1412 1.387 . S
C1412 H1397 0.930 . S
C1412 C1407 1.390 . S
C1412 C1411 1.387 . S
H1413 C1425 0.930 . S
H1414 C1427 0.930 . S
H1415 C1428 0.930 . S
H1416 C1432 0.959 . S
H1417 C1432 0.959 . S
H1418 C1432 0.961 . S
H1419 C1433 0.960 . S
H1420 C1433 0.961 . S
H1421 C1433 0.959 . S
H1422 C1436 0.929 . S
H1423 C1437 0.931 . S
H1424 C1439 0.930 . S
C1425 H1413 0.930 . S
C1425 C1426 1.399 . S
C1425 C1430 1.399 . S
C1426 C1425 1.399 . S
C1426 C1427 1.376 . S
C1427 H1414 0.930 . S
C1427 C1426 1.376 . S
C1427 C1428 1.388 . S
C1428 H1415 0.930 . S
C1428 C1427 1.388 . S
C1428 C1429 1.390 . S
C1429 C1428 1.390 . S
C1429 C1430 1.394 . S
C1429 C1435 1.465 . S
C1430 C1425 1.399 . S
C1430 C1429 1.394 . S
C1430 C1431 1.516 . S
C1431 C1430 1.516 . S
C1431 C1432 1.502 . S
C1431 C1433 1.561 . S
C1431 C1434 1.526 . S
C1432 H1416 0.959 . S
C1432 H1417 0.959 . S
C1432 H1418 0.961 . S
C1432 C1431 1.502 . S
C1433 H1419 0.960 . S
C1433 H1420 0.961 . S
C1433 H1421 0.959 . S
C1433 C1431 1.561 . S
C1434 C1431 1.526 . S
C1434 C1435 1.396 . S
C1434 C1439 1.390 . S
C1435 C1429 1.465 . S
C1435 C1434 1.396 . S
C1435 C1436 1.399 . S
C1436 H1422 0.929 . S
C1436 C1435 1.399 . S
C1436 C1437 1.385 . S
C1437 H1423 0.931 . S
C1437 C1436 1.385 . S
C1437 C1438 1.389 . S
C1438 C1437 1.389 . S
C1438 C1439 1.387 . S
C1439 H1424 0.930 . S
C1439 C1434 1.390 . S
C1439 C1438 1.387 . S
H1440 C1452 0.930 . S
H1441 C1454 0.930 . S
H1442 C1455 0.930 . S
H1443 C1459 0.959 . S
H1444 C1459 0.959 . S
H1445 C1459 0.961 . S
H1446 C1460 0.960 . S
H1447 C1460 0.961 . S
H1448 C1460 0.959 . S
H1449 C1463 0.929 . S
H1450 C1464 0.931 . S
H1451 C1466 0.930 . S
C1452 H1440 0.930 . S
C1452 C1453 1.399 . S
C1452 C1457 1.399 . S
C1453 C1452 1.399 . S
C1453 C1454 1.376 . S
C1454 H1441 0.930 . S
C1454 C1453 1.376 . S
C1454 C1455 1.388 . S
C1455 H1442 0.930 . S
C1455 C1454 1.388 . S
C1455 C1456 1.390 . S
C1456 C1455 1.390 . S
C1456 C1457 1.394 . S
C1456 C1462 1.465 . S
C1457 C1452 1.399 . S
C1457 C1456 1.394 . S
C1457 C1458 1.516 . S
C1458 C1457 1.516 . S
C1458 C1459 1.502 . S
C1458 C1460 1.561 . S
C1458 C1461 1.526 . S
C1459 H1443 0.959 . S
C1459 H1444 0.959 . S
C1459 H1445 0.961 . S
C1459 C1458 1.502 . S
C1460 H1446 0.960 . S
C1460 H1447 0.961 . S
C1460 H1448 0.959 . S
C1460 C1458 1.561 . S
C1461 C1458 1.526 . S
C1461 C1462 1.396 . S
C1461 C1466 1.390 . S
C1462 C1456 1.465 . S
C1462 C1461 1.396 . S
C1462 C1463 1.399 . S
C1463 H1449 0.929 . S
C1463 C1462 1.399 . S
C1463 C1464 1.385 . S
C1464 H1450 0.931 . S
C1464 C1463 1.385 . S
C1464 C1465 1.389 . S
C1465 C1464 1.389 . S
C1465 C1466 1.387 . S
C1466 H1451 0.930 . S
C1466 C1461 1.390 . S
C1466 C1465 1.387 . S
H1467 C1479 0.930 . S
H1468 C1481 0.930 . S
H1469 C1482 0.930 . S
H1470 C1486 0.959 . S
H1471 C1486 0.959 . S
H1472 C1486 0.961 . S
H1473 C1487 0.960 . S
H1474 C1487 0.961 . S
H1475 C1487 0.959 . S
H1476 C1490 0.929 . S
H1477 C1491 0.931 . S
H1478 C1493 0.930 . S
C1479 H1467 0.930 . S
C1479 C1480 1.399 . S
C1479 C1484 1.399 . S
C1480 C1479 1.399 . S
C1480 C1481 1.376 . S
C1481 H1468 0.930 . S
C1481 C1480 1.376 . S
C1481 C1482 1.388 . S
C1482 H1469 0.930 . S
C1482 C1481 1.388 . S
C1482 C1483 1.390 . S
C1483 C1482 1.390 . S
C1483 C1484 1.394 . S
C1483 C1489 1.465 . S
C1484 C1479 1.399 . S
C1484 C1483 1.394 . S
C1484 C1485 1.516 . S
C1485 C1484 1.516 . S
C1485 C1486 1.502 . S
C1485 C1487 1.561 . S
C1485 C1488 1.526 . S
C1486 H1470 0.959 . S
C1486 H1471 0.959 . S
C1486 H1472 0.961 . S
C1486 C1485 1.502 . S
C1487 H1473 0.960 . S
C1487 H1474 0.961 . S
C1487 H1475 0.959 . S
C1487 C1485 1.561 . S
C1488 C1485 1.526 . S
C1488 C1489 1.396 . S
C1488 C1493 1.390 . S
C1489 C1483 1.465 . S
C1489 C1488 1.396 . S
C1489 C1490 1.399 . S
C1490 H1476 0.929 . S
C1490 C1489 1.399 . S
C1490 C1491 1.385 . S
C1491 H1477 0.931 . S
C1491 C1490 1.385 . S
C1491 C1492 1.389 . S
C1492 C1491 1.389 . S
C1492 C1493 1.387 . S
C1493 H1478 0.930 . S
C1493 C1488 1.390 . S
C1493 C1492 1.387 . S
H1494 C1506 0.930 . S
H1495 C1508 0.930 . S
H1496 C1509 0.930 . S
H1497 C1513 0.959 . S
H1498 C1513 0.959 . S
H1499 C1513 0.961 . S
H1500 C1514 0.960 . S
H1501 C1514 0.961 . S
H1502 C1514 0.959 . S
H1503 C1517 0.929 . S
H1504 C1518 0.931 . S
H1505 C1520 0.930 . S
C1506 H1494 0.930 . S
C1506 C1507 1.399 . S
C1506 C1511 1.399 . S
C1507 C1506 1.399 . S
C1507 C1508 1.376 . S
C1508 H1495 0.930 . S
C1508 C1507 1.376 . S
C1508 C1509 1.388 . S
C1509 H1496 0.930 . S
C1509 C1508 1.388 . S
C1509 C1510 1.390 . S
C1510 C1509 1.390 . S
C1510 C1511 1.394 . S
C1510 C1516 1.465 . S
C1511 C1506 1.399 . S
C1511 C1510 1.394 . S
C1511 C1512 1.516 . S
C1512 C1511 1.516 . S
C1512 C1513 1.502 . S
C1512 C1514 1.561 . S
C1512 C1515 1.526 . S
C1513 H1497 0.959 . S
C1513 H1498 0.959 . S
C1513 H1499 0.961 . S
C1513 C1512 1.502 . S
C1514 H1500 0.960 . S
C1514 H1501 0.961 . S
C1514 H1502 0.959 . S
C1514 C1512 1.561 . S
C1515 C1512 1.526 . S
C1515 C1516 1.396 . S
C1515 C1520 1.390 . S
C1516 C1510 1.465 . S
C1516 C1515 1.396 . S
C1516 C1517 1.399 . S
C1517 H1503 0.929 . S
C1517 C1516 1.399 . S
C1517 C1518 1.385 . S
C1518 H1504 0.931 . S
C1518 C1517 1.385 . S
C1518 C1519 1.389 . S
C1519 C1518 1.389 . S
C1519 C1520 1.387 . S
C1520 H1505 0.930 . S
C1520 C1515 1.390 . S
C1520 C1519 1.387 . S
H1521 C1533 0.930 . S
H1522 C1535 0.930 . S
H1523 C1536 0.930 . S
H1524 C1540 0.959 . S
H1525 C1540 0.959 . S
H1526 C1540 0.961 . S
H1527 C1541 0.960 . S
H1528 C1541 0.961 . S
H1529 C1541 0.959 . S
H1530 C1544 0.929 . S
H1531 C1545 0.931 . S
H1532 C1547 0.930 . S
C1533 H1521 0.930 . S
C1533 C1534 1.399 . S
C1533 C1538 1.399 . S
C1534 C1533 1.399 . S
C1534 C1535 1.376 . S
C1535 H1522 0.930 . S
C1535 C1534 1.376 . S
C1535 C1536 1.388 . S
C1536 H1523 0.930 . S
C1536 C1535 1.388 . S
C1536 C1537 1.390 . S
C1537 C1536 1.390 . S
C1537 C1538 1.394 . S
C1537 C1543 1.465 . S
C1538 C1533 1.399 . S
C1538 C1537 1.394 . S
C1538 C1539 1.516 . S
C1539 C1538 1.516 . S
C1539 C1540 1.502 . S
C1539 C1541 1.561 . S
C1539 C1542 1.526 . S
C1540 H1524 0.959 . S
C1540 H1525 0.959 . S
C1540 H1526 0.961 . S
C1540 C1539 1.502 . S
C1541 H1527 0.960 . S
C1541 H1528 0.961 . S
C1541 H1529 0.959 . S
C1541 C1539 1.561 . S
C1542 C1539 1.526 . S
C1542 C1543 1.396 . S
C1542 C1547 1.390 . S
C1543 C1537 1.465 . S
C1543 C1542 1.396 . S
C1543 C1544 1.399 . S
C1544 H1530 0.929 . S
C1544 C1543 1.399 . S
C1544 C1545 1.385 . S
C1545 H1531 0.931 . S
C1545 C1544 1.385 . S
C1545 C1546 1.389 . S
C1546 C1545 1.389 . S
C1546 C1547 1.387 . S
C1547 H1532 0.930 . S
C1547 C1542 1.390 . S
C1547 C1546 1.387 . S
H1548 C1560 0.930 . S
H1549 C1562 0.930 . S
H1550 C1563 0.930 . S
H1551 C1567 0.959 . S
H1552 C1567 0.959 . S
H1553 C1567 0.961 . S
H1554 C1568 0.960 . S
H1555 C1568 0.961 . S
H1556 C1568 0.959 . S
H1557 C1571 0.929 . S
H1558 C1572 0.931 . S
H1559 C1574 0.930 . S
C1560 H1548 0.930 . S
C1560 C1561 1.399 . S
C1560 C1565 1.399 . S
C1561 C1560 1.399 . S
C1561 C1562 1.376 . S
C1562 H1549 0.930 . S
C1562 C1561 1.376 . S
C1562 C1563 1.388 . S
C1563 H1550 0.930 . S
C1563 C1562 1.388 . S
C1563 C1564 1.390 . S
C1564 C1563 1.390 . S
C1564 C1565 1.394 . S
C1564 C1570 1.465 . S
C1565 C1560 1.399 . S
C1565 C1564 1.394 . S
C1565 C1566 1.516 . S
C1566 C1565 1.516 . S
C1566 C1567 1.502 . S
C1566 C1568 1.561 . S
C1566 C1569 1.526 . S
C1567 H1551 0.959 . S
C1567 H1552 0.959 . S
C1567 H1553 0.961 . S
C1567 C1566 1.502 . S
C1568 H1554 0.960 . S
C1568 H1555 0.961 . S
C1568 H1556 0.959 . S
C1568 C1566 1.561 . S
C1569 C1566 1.526 . S
C1569 C1570 1.396 . S
C1569 C1574 1.390 . S
C1570 C1564 1.465 . S
C1570 C1569 1.396 . S
C1570 C1571 1.399 . S
C1571 H1557 0.929 . S
C1571 C1570 1.399 . S
C1571 C1572 1.385 . S
C1572 H1558 0.931 . S
C1572 C1571 1.385 . S
C1572 C1573 1.389 . S
C1573 C1572 1.389 . S
C1573 C1574 1.387 . S
C1574 H1559 0.930 . S
C1574 C1569 1.390 . S
C1574 C1573 1.387 . S
H1575 C1587 0.930 . S
H1576 C1589 0.930 . S
H1577 C1590 0.930 . S
H1578 C1594 0.959 . S
H1579 C1594 0.959 . S
H1580 C1594 0.961 . S
H1581 C1595 0.960 . S
H1582 C1595 0.961 . S
H1583 C1595 0.959 . S
H1584 C1598 0.929 . S
H1585 C1599 0.931 . S
H1586 C1601 0.930 . S
C1587 H1575 0.930 . S
C1587 C1588 1.399 . S
C1587 C1592 1.399 . S
C1588 C1587 1.399 . S
C1588 C1589 1.376 . S
C1589 H1576 0.930 . S
C1589 C1588 1.376 . S
C1589 C1590 1.388 . S
C1590 H1577 0.930 . S
C1590 C1589 1.388 . S
C1590 C1591 1.390 . S
C1591 C1590 1.390 . S
C1591 C1592 1.394 . S
C1591 C1597 1.465 . S
C1592 C1587 1.399 . S
C1592 C1591 1.394 . S
C1592 C1593 1.516 . S
C1593 C1592 1.516 . S
C1593 C1594 1.502 . S
C1593 C1595 1.561 . S
C1593 C1596 1.526 . S
C1594 H1578 0.959 . S
C1594 H1579 0.959 . S
C1594 H1580 0.961 . S
C1594 C1593 1.502 . S
C1595 H1581 0.960 . S
C1595 H1582 0.961 . S
C1595 H1583 0.959 . S
C1595 C1593 1.561 . S
C1596 C1593 1.526 . S
C1596 C1597 1.396 . S
C1596 C1601 1.390 . S
C1597 C1591 1.465 . S
C1597 C1596 1.396 . S
C1597 C1598 1.399 . S
C1598 H1584 0.929 . S
C1598 C1597 1.399 . S
C1598 C1599 1.385 . S
C1599 H1585 0.931 . S
C1599 C1598 1.385 . S
C1599 C1600 1.389 . S
C1600 C1599 1.389 . S
C1600 C1601 1.387 . S
C1601 H1586 0.930 . S
C1601 C1596 1.390 . S
C1601 C1600 1.387 . S
H1602 C1614 0.930 . S
H1603 C1616 0.930 . S
H1604 C1617 0.930 . S
H1605 C1621 0.959 . S
H1606 C1621 0.959 . S
H1607 C1621 0.961 . S
H1608 C1622 0.960 . S
H1609 C1622 0.961 . S
H1610 C1622 0.959 . S
H1611 C1625 0.929 . S
H1612 C1626 0.931 . S
H1613 C1628 0.930 . S
C1614 H1602 0.930 . S
C1614 C1615 1.399 . S
C1614 C1619 1.399 . S
C1615 C1614 1.399 . S
C1615 C1616 1.376 . S
C1616 H1603 0.930 . S
C1616 C1615 1.376 . S
C1616 C1617 1.388 . S
C1617 H1604 0.930 . S
C1617 C1616 1.388 . S
C1617 C1618 1.390 . S
C1618 C1617 1.390 . S
C1618 C1619 1.394 . S
C1618 C1624 1.465 . S
C1619 C1614 1.399 . S
C1619 C1618 1.394 . S
C1619 C1620 1.516 . S
C1620 C1619 1.516 . S
C1620 C1621 1.502 . S
C1620 C1622 1.561 . S
C1620 C1623 1.526 . S
C1621 H1605 0.959 . S
C1621 H1606 0.959 . S
C1621 H1607 0.961 . S
C1621 C1620 1.502 . S
C1622 H1608 0.960 . S
C1622 H1609 0.961 . S
C1622 H1610 0.959 . S
C1622 C1620 1.561 . S
C1623 C1620 1.526 . S
C1623 C1624 1.396 . S
C1623 C1628 1.390 . S
C1624 C1618 1.465 . S
C1624 C1623 1.396 . S
C1624 C1625 1.399 . S
C1625 H1611 0.929 . S
C1625 C1624 1.399 . S
C1625 C1626 1.385 . S
C1626 H1612 0.931 . S
C1626 C1625 1.385 . S
C1626 C1627 1.389 . S
C1627 C1626 1.389 . S
C1627 C1628 1.387 . S
C1628 H1613 0.930 . S
C1628 C1623 1.390 . S
C1628 C1627 1.387 . S
H1629 C1641 0.930 . S
H1630 C1643 0.930 . S
H1631 C1644 0.930 . S
H1632 C1648 0.959 . S
H1633 C1648 0.959 . S
H1634 C1648 0.961 . S
H1635 C1649 0.960 . S
H1636 C1649 0.961 . S
H1637 C1649 0.959 . S
H1638 C1652 0.929 . S
H1639 C1653 0.931 . S
H1640 C1655 0.930 . S
C1641 H1629 0.930 . S
C1641 C1642 1.399 . S
C1641 C1646 1.399 . S
C1642 C1641 1.399 . S
C1642 C1643 1.376 . S
C1643 H1630 0.930 . S
C1643 C1642 1.376 . S
C1643 C1644 1.388 . S
C1644 H1631 0.930 . S
C1644 C1643 1.388 . S
C1644 C1645 1.390 . S
C1645 C1644 1.390 . S
C1645 C1646 1.394 . S
C1645 C1651 1.465 . S
C1646 C1641 1.399 . S
C1646 C1645 1.394 . S
C1646 C1647 1.516 . S
C1647 C1646 1.516 . S
C1647 C1648 1.502 . S
C1647 C1649 1.561 . S
C1647 C1650 1.526 . S
C1648 H1632 0.959 . S
C1648 H1633 0.959 . S
C1648 H1634 0.961 . S
C1648 C1647 1.502 . S
C1649 H1635 0.960 . S
C1649 H1636 0.961 . S
C1649 H1637 0.959 . S
C1649 C1647 1.561 . S
C1650 C1647 1.526 . S
C1650 C1651 1.396 . S
C1650 C1655 1.390 . S
C1651 C1645 1.465 . S
C1651 C1650 1.396 . S
C1651 C1652 1.399 . S
C1652 H1638 0.929 . S
C1652 C1651 1.399 . S
C1652 C1653 1.385 . S
C1653 H1639 0.931 . S
C1653 C1652 1.385 . S
C1653 C1654 1.389 . S
C1654 C1653 1.389 . S
C1654 C1655 1.387 . S
C1655 H1640 0.930 . S
C1655 C1650 1.390 . S
C1655 C1654 1.387 . S
H1656 C1668 0.930 . S
H1657 C1670 0.930 . S
H1658 C1671 0.930 . S
H1659 C1675 0.959 . S
H1660 C1675 0.959 . S
H1661 C1675 0.961 . S
H1662 C1676 0.960 . S
H1663 C1676 0.961 . S
H1664 C1676 0.959 . S
H1665 C1679 0.929 . S
H1666 C1680 0.931 . S
H1667 C1682 0.930 . S
C1668 H1656 0.930 . S
C1668 C1669 1.399 . S
C1668 C1673 1.399 . S
C1669 C1668 1.399 . S
C1669 C1670 1.376 . S
C1670 H1657 0.930 . S
C1670 C1669 1.376 . S
C1670 C1671 1.388 . S
C1671 H1658 0.930 . S
C1671 C1670 1.388 . S
C1671 C1672 1.390 . S
C1672 C1671 1.390 . S
C1672 C1673 1.394 . S
C1672 C1678 1.465 . S
C1673 C1668 1.399 . S
C1673 C1672 1.394 . S
C1673 C1674 1.516 . S
C1674 C1673 1.516 . S
C1674 C1675 1.502 . S
C1674 C1676 1.561 . S
C1674 C1677 1.526 . S
C1675 H1659 0.959 . S
C1675 H1660 0.959 . S
C1675 H1661 0.961 . S
C1675 C1674 1.502 . S
C1676 H1662 0.960 . S
C1676 H1663 0.961 . S
C1676 H1664 0.959 . S
C1676 C1674 1.561 . S
C1677 C1674 1.526 . S
C1677 C1678 1.396 . S
C1677 C1682 1.390 . S
C1678 C1672 1.465 . S
C1678 C1677 1.396 . S
C1678 C1679 1.399 . S
C1679 H1665 0.929 . S
C1679 C1678 1.399 . S
C1679 C1680 1.385 . S
C1680 H1666 0.931 . S
C1680 C1679 1.385 . S
C1680 C1681 1.389 . S
C1681 C1680 1.389 . S
C1681 C1682 1.387 . S
C1682 H1667 0.930 . S
C1682 C1677 1.390 . S
C1682 C1681 1.387 . S
H1683 C1695 0.930 1_554 S
H1684 C1697 0.930 . S
H1685 C1698 0.930 . S
H1686 C1702 0.959 . S
H1687 C1702 0.959 1_554 S
H1688 C1702 0.961 1_554 S
H1689 C1703 0.960 1_554 S
H1690 C1703 0.961 1_554 S
H1691 C1703 0.959 . S
H1692 C1706 0.929 . S
H1693 C1707 0.931 . S
H1694 C1709 0.930 . S
C1695 H1683 0.930 1_556 S
C1695 C1696 1.399 . S
C1695 C1700 1.399 . S
C1696 C1695 1.399 . S
C1696 C1697 1.376 . S
C1697 H1684 0.930 . S
C1697 C1696 1.376 . S
C1697 C1698 1.388 . S
C1698 H1685 0.930 . S
C1698 C1697 1.388 . S
C1698 C1699 1.390 . S
C1699 C1698 1.390 . S
C1699 C1700 1.394 . S
C1699 C1705 1.465 . S
C1700 C1695 1.399 . S
C1700 C1699 1.394 . S
C1700 C1701 1.516 . S
C1701 C1700 1.516 . S
C1701 C1702 1.502 . S
C1701 C1703 1.561 . S
C1701 C1704 1.526 . S
C1702 H1686 0.959 . S
C1702 H1687 0.959 1_556 S
C1702 H1688 0.961 1_556 S
C1702 C1701 1.502 . S
C1703 H1689 0.960 1_556 S
C1703 H1690 0.961 1_556 S
C1703 H1691 0.959 . S
C1703 C1701 1.561 . S
C1704 C1701 1.526 . S
C1704 C1705 1.396 . S
C1704 C1709 1.390 . S
C1705 C1699 1.465 . S
C1705 C1704 1.396 . S
C1705 C1706 1.399 . S
C1706 H1692 0.929 . S
C1706 C1705 1.399 . S
C1706 C1707 1.385 . S
C1707 H1693 0.931 . S
C1707 C1706 1.385 . S
C1707 C1708 1.389 . S
C1708 C1707 1.389 . S
C1708 C1709 1.387 . S
C1709 H1694 0.930 . S
C1709 C1704 1.390 . S
C1709 C1708 1.387 . S
H1710 C1722 0.930 1_554 S
H1711 C1724 0.930 . S
H1712 C1725 0.930 . S
H1713 C1729 0.959 . S
H1714 C1729 0.959 1_554 S
H1715 C1729 0.961 1_554 S
H1716 C1730 0.960 . S
H1717 C1730 0.961 . S
H1718 C1730 0.959 1_556 S
H1719 C1733 0.929 . S
H1720 C1734 0.931 . S
H1721 C1736 0.930 . S
C1722 H1710 0.930 1_556 S
C1722 C1723 1.399 . S
C1722 C1727 1.399 . S
C1723 C1722 1.399 . S
C1723 C1724 1.376 . S
C1724 H1711 0.930 . S
C1724 C1723 1.376 . S
C1724 C1725 1.388 . S
C1725 H1712 0.930 . S
C1725 C1724 1.388 . S
C1725 C1726 1.390 . S
C1726 C1725 1.390 . S
C1726 C1727 1.394 . S
C1726 C1732 1.465 . S
C1727 C1722 1.399 . S
C1727 C1726 1.394 . S
C1727 C1728 1.516 . S
C1728 C1727 1.516 . S
C1728 C1729 1.502 . S
C1728 C1730 1.561 1_556 S
C1728 C1731 1.526 . S
C1729 H1713 0.959 . S
C1729 H1714 0.959 1_556 S
C1729 H1715 0.961 1_556 S
C1729 C1728 1.502 . S
C1730 H1716 0.960 . S
C1730 H1717 0.961 . S
C1730 H1718 0.959 1_554 S
C1730 C1728 1.561 1_554 S
C1731 C1728 1.526 . S
C1731 C1732 1.396 . S
C1731 C1736 1.390 . S
C1732 C1726 1.465 . S
C1732 C1731 1.396 . S
C1732 C1733 1.399 . S
C1733 H1719 0.929 . S
C1733 C1732 1.399 . S
C1733 C1734 1.385 . S
C1734 H1720 0.931 . S
C1734 C1733 1.385 . S
C1734 C1735 1.389 . S
C1735 C1734 1.389 . S
C1735 C1736 1.387 . S
C1736 H1721 0.930 . S
C1736 C1731 1.390 . S
C1736 C1735 1.387 . S
H1737 C1749 0.930 . S
H1738 C1751 0.930 . S
H1739 C1752 0.930 . S
H1740 C1756 0.959 . S
H1741 C1756 0.959 . S
H1742 C1756 0.961 . S
H1743 C1757 0.960 . S
H1744 C1757 0.961 . S
H1745 C1757 0.959 . S
H1746 C1760 0.929 . S
H1747 C1761 0.931 . S
H1748 C1763 0.930 . S
C1749 H1737 0.930 . S
C1749 C1750 1.399 . S
C1749 C1754 1.399 . S
C1750 C1749 1.399 . S
C1750 C1751 1.376 . S
C1751 H1738 0.930 . S
C1751 C1750 1.376 . S
C1751 C1752 1.388 . S
C1752 H1739 0.930 . S
C1752 C1751 1.388 . S
C1752 C1753 1.390 . S
C1753 C1752 1.390 . S
C1753 C1754 1.394 . S
C1753 C1759 1.465 . S
C1754 C1749 1.399 . S
C1754 C1753 1.394 . S
C1754 C1755 1.516 . S
C1755 C1754 1.516 . S
C1755 C1756 1.502 . S
C1755 C1757 1.561 . S
C1755 C1758 1.526 . S
C1756 H1740 0.959 . S
C1756 H1741 0.959 . S
C1756 H1742 0.961 . S
C1756 C1755 1.502 . S
C1757 H1743 0.960 . S
C1757 H1744 0.961 . S
C1757 H1745 0.959 . S
C1757 C1755 1.561 . S
C1758 C1755 1.526 . S
C1758 C1759 1.396 . S
C1758 C1763 1.390 . S
C1759 C1753 1.465 . S
C1759 C1758 1.396 . S
C1759 C1760 1.399 . S
C1760 H1746 0.929 . S
C1760 C1759 1.399 . S
C1760 C1761 1.385 . S
C1761 H1747 0.931 . S
C1761 C1760 1.385 . S
C1761 C1762 1.389 . S
C1762 C1761 1.389 . S
C1762 C1763 1.387 . S
C1763 H1748 0.930 . S
C1763 C1758 1.390 . S
C1763 C1762 1.387 . S
H1764 C1776 0.930 1_554 S
H1765 C1778 0.930 . S
H1766 C1779 0.930 . S
H1767 C1783 0.978 . S
H1768 C1783 0.950 1_554 S
H1769 C1783 0.931 1_554 S
H1770 C1784 0.960 1_554 S
H1771 C1784 0.954 1_554 S
H1772 C1784 0.959 . S
H1773 C1787 0.929 . S
H1774 C1788 0.931 . S
H1775 C1790 0.930 . S
C1776 H1764 0.930 1_556 S
C1776 C1777 1.399 . S
C1776 C1781 1.399 . S
C1777 C1776 1.399 . S
C1777 C1778 1.376 . S
C1778 H1765 0.930 . S
C1778 C1777 1.376 . S
C1778 C1779 1.388 . S
C1779 H1766 0.930 . S
C1779 C1778 1.388 . S
C1779 C1780 1.390 . S
C1780 C1779 1.390 . S
C1780 C1781 1.394 . S
C1780 C1786 1.465 . S
C1781 C1776 1.399 . S
C1781 C1780 1.394 . S
C1781 C1782 1.516 . S
C1782 C1781 1.516 . S
C1782 C1783 1.524 . S
C1782 C1784 1.561 . S
C1782 C1785 1.526 . S
C1783 H1767 0.978 . S
C1783 H1768 0.950 1_556 S
C1783 H1769 0.931 1_556 S
C1783 C1782 1.524 . S
C1784 H1770 0.960 1_556 S
C1784 H1771 0.954 1_556 S
C1784 H1772 0.959 . S
C1784 C1782 1.561 . S
C1785 C1782 1.526 . S
C1785 C1786 1.396 . S
C1785 C1790 1.390 . S
C1786 C1780 1.465 . S
C1786 C1785 1.396 . S
C1786 C1787 1.399 . S
C1787 H1773 0.929 . S
C1787 C1786 1.399 . S
C1787 C1788 1.385 . S
C1788 H1774 0.931 . S
C1788 C1787 1.385 . S
C1788 C1789 1.389 . S
C1789 C1788 1.389 . S
C1789 C1790 1.387 . S
C1790 H1775 0.930 . S
C1790 C1785 1.390 . S
C1790 C1789 1.387 . S
H1791 C1803 0.930 . S
H1792 C1805 0.930 1_554 S
H1793 C1806 0.930 1_554 S
H1794 C1810 0.959 . S
H1795 C1810 0.959 . S
H1796 C1810 0.961 . S
H1797 C1811 0.960 . S
H1798 C1811 0.961 . S
H1799 C1811 0.959 . S
H1800 C1814 0.929 . S
H1801 C1815 0.931 . S
H1802 C1817 0.930 . S
C1803 H1791 0.930 . S
C1803 C1804 1.399 . S
C1803 C1808 1.399 . S
C1804 C1803 1.399 . S
C1804 C1805 1.376 . S
C1805 H1792 0.930 1_556 S
C1805 C1804 1.376 . S
C1805 C1806 1.388 . S
C1806 H1793 0.930 1_556 S
C1806 C1805 1.388 . S
C1806 C1807 1.390 . S
C1807 C1806 1.390 . S
C1807 C1808 1.394 . S
C1807 C1813 1.465 . S
C1808 C1803 1.399 . S
C1808 C1807 1.394 . S
C1808 C1809 1.516 . S
C1809 C1808 1.516 . S
C1809 C1810 1.502 . S
C1809 C1811 1.561 . S
C1809 C1812 1.526 . S
C1810 H1794 0.959 . S
C1810 H1795 0.959 . S
C1810 H1796 0.961 . S
C1810 C1809 1.502 . S
C1811 H1797 0.960 . S
C1811 H1798 0.961 . S
C1811 H1799 0.959 . S
C1811 C1809 1.561 . S
C1812 C1809 1.526 . S
C1812 C1813 1.396 . S
C1812 C1817 1.390 . S
C1813 C1807 1.465 . S
C1813 C1812 1.396 . S
C1813 C1814 1.399 . S
C1814 H1800 0.929 . S
C1814 C1813 1.399 . S
C1814 C1815 1.385 . S
C1815 H1801 0.931 . S
C1815 C1814 1.385 . S
C1815 C1816 1.389 . S
C1816 C1815 1.389 . S
C1816 C1817 1.387 . S
C1817 H1802 0.930 . S
C1817 C1812 1.390 . S
C1817 C1816 1.387 . S
H1818 C1830 0.930 1_554 S
H1819 C1832 0.930 . S
H1820 C1833 0.930 . S
H1821 C1837 0.959 1_556 S
H1822 C1837 0.959 . S
H1823 C1837 0.961 . S
H1824 C1838 0.960 1_554 S
H1825 C1838 0.961 1_554 S
H1826 C1838 0.959 . S
H1827 C1841 0.929 . S
H1828 C1842 0.931 . S
H1829 C1844 0.930 . S
C1830 H1818 0.930 1_556 S
C1830 C1831 1.399 . S
C1830 C1835 1.399 . S
C1831 C1830 1.399 . S
C1831 C1832 1.376 . S
C1832 H1819 0.930 . S
C1832 C1831 1.376 . S
C1832 C1833 1.388 . S
C1833 H1820 0.930 . S
C1833 C1832 1.388 . S
C1833 C1834 1.390 . S
C1834 C1833 1.390 . S
C1834 C1835 1.394 . S
C1834 C1840 1.465 . S
C1835 C1830 1.399 . S
C1835 C1834 1.394 . S
C1835 C1836 1.516 . S
C1836 C1835 1.516 . S
C1836 C1837 1.502 1_556 S
C1836 C1838 1.561 . S
C1836 C1839 1.526 . S
C1837 H1821 0.959 1_554 S
C1837 H1822 0.959 . S
C1837 H1823 0.961 . S
C1837 C1836 1.502 1_554 S
C1838 H1824 0.960 1_556 S
C1838 H1825 0.961 1_556 S
C1838 H1826 0.959 . S
C1838 C1836 1.561 . S
C1839 C1836 1.526 . S
C1839 C1840 1.396 . S
C1839 C1844 1.390 . S
C1840 C1834 1.465 . S
C1840 C1839 1.396 . S
C1840 C1841 1.399 . S
C1841 H1827 0.929 . S
C1841 C1840 1.399 . S
C1841 C1842 1.385 . S
C1842 H1828 0.931 . S
C1842 C1841 1.385 . S
C1842 C1843 1.389 . S
C1843 C1842 1.389 . S
C1843 C1844 1.387 . S
C1844 H1829 0.930 . S
C1844 C1839 1.390 . S
C1844 C1843 1.387 . S
H1845 C1857 0.930 . S
H1846 C1859 0.930 . S
H1847 C1860 0.930 . S
H1848 C1864 0.959 . S
H1849 C1864 0.959 . S
H1850 C1864 0.961 . S
H1851 C1865 0.960 . S
H1852 C1865 0.961 . S
H1853 C1865 0.959 . S
H1854 C1868 0.929 . S
H1855 C1869 0.931 . S
H1856 C1871 0.930 . S
C1857 H1845 0.930 . S
C1857 C1858 1.399 . S
C1857 C1862 1.399 . S
C1858 C1857 1.399 . S
C1858 C1859 1.376 . S
C1859 H1846 0.930 . S
C1859 C1858 1.376 . S
C1859 C1860 1.388 . S
C1860 H1847 0.930 . S
C1860 C1859 1.388 . S
C1860 C1861 1.390 . S
C1861 C1860 1.390 . S
C1861 C1862 1.394 . S
C1861 C1867 1.465 . S
C1862 C1857 1.399 . S
C1862 C1861 1.394 . S
C1862 C1863 1.516 . S
C1863 C1862 1.516 . S
C1863 C1864 1.502 . S
C1863 C1865 1.561 . S
C1863 C1866 1.526 . S
C1864 H1848 0.959 . S
C1864 H1849 0.959 . S
C1864 H1850 0.961 . S
C1864 C1863 1.502 . S
C1865 H1851 0.960 . S
C1865 H1852 0.961 . S
C1865 H1853 0.959 . S
C1865 C1863 1.561 . S
C1866 C1863 1.526 . S
C1866 C1867 1.396 . S
C1866 C1871 1.390 . S
C1867 C1861 1.465 . S
C1867 C1866 1.396 . S
C1867 C1868 1.399 . S
C1868 H1854 0.929 . S
C1868 C1867 1.399 . S
C1868 C1869 1.385 . S
C1869 H1855 0.931 . S
C1869 C1868 1.385 . S
C1869 C1870 1.389 . S
C1870 C1869 1.389 . S
C1870 C1871 1.387 . S
C1871 H1856 0.930 . S
C1871 C1866 1.390 . S
C1871 C1870 1.387 . S
H1872 C1884 0.930 . S
H1873 C1886 0.930 . S
H1874 C1887 0.930 . S
H1875 C1891 0.959 . S
H1876 C1891 0.959 . S
H1877 C1891 0.961 . S
H1878 C1892 0.960 . S
H1879 C1892 0.961 . S
H1880 C1892 0.959 . S
H1881 C1895 0.929 . S
H1882 C1896 0.931 . S
H1883 C1898 0.930 . S
C1884 H1872 0.930 . S
C1884 C1885 1.399 . S
C1884 C1889 1.399 . S
C1885 C1884 1.399 . S
C1885 C1886 1.376 . S
C1886 H1873 0.930 . S
C1886 C1885 1.376 . S
C1886 C1887 1.388 . S
C1887 H1874 0.930 . S
C1887 C1886 1.388 . S
C1887 C1888 1.390 . S
C1888 C1887 1.390 . S
C1888 C1889 1.394 . S
C1888 C1894 1.465 . S
C1889 C1884 1.399 . S
C1889 C1888 1.394 . S
C1889 C1890 1.516 . S
C1890 C1889 1.516 . S
C1890 C1891 1.502 . S
C1890 C1892 1.561 . S
C1890 C1893 1.526 . S
C1891 H1875 0.959 . S
C1891 H1876 0.959 . S
C1891 H1877 0.961 . S
C1891 C1890 1.502 . S
C1892 H1878 0.960 . S
C1892 H1879 0.961 . S
C1892 H1880 0.959 . S
C1892 C1890 1.561 . S
C1893 C1890 1.526 . S
C1893 C1894 1.396 . S
C1893 C1898 1.390 . S
C1894 C1888 1.465 . S
C1894 C1893 1.396 . S
C1894 C1895 1.399 . S
C1895 H1881 0.929 . S
C1895 C1894 1.399 . S
C1895 C1896 1.385 . S
C1896 H1882 0.931 . S
C1896 C1895 1.385 . S
C1896 C1897 1.389 . S
C1897 C1896 1.389 . S
C1897 C1898 1.387 . S
C1898 H1883 0.930 . S
C1898 C1893 1.390 . S
C1898 C1897 1.387 . S
H1899 C1911 0.930 . S
H1900 C1913 0.930 . S
H1901 C1914 0.930 . S
H1902 C1918 0.959 . S
H1903 C1918 0.959 . S
H1904 C1918 0.961 . S
H1905 C1919 0.960 . S
H1906 C1919 0.961 . S
H1907 C1919 0.959 . S
H1908 C1922 0.929 . S
H1909 C1923 0.931 . S
H1910 C1925 0.930 . S
C1911 H1899 0.930 . S
C1911 C1912 1.399 . S
C1911 C1916 1.399 . S
C1912 C1911 1.399 . S
C1912 C1913 1.376 . S
C1913 H1900 0.930 . S
C1913 C1912 1.376 . S
C1913 C1914 1.388 . S
C1914 H1901 0.930 . S
C1914 C1913 1.388 . S
C1914 C1915 1.390 . S
C1915 C1914 1.390 . S
C1915 C1916 1.394 . S
C1915 C1921 1.465 . S
C1916 C1911 1.399 . S
C1916 C1915 1.394 . S
C1916 C1917 1.516 . S
C1917 C1916 1.516 . S
C1917 C1918 1.502 . S
C1917 C1919 1.561 . S
C1917 C1920 1.526 . S
C1918 H1902 0.959 . S
C1918 H1903 0.959 . S
C1918 H1904 0.961 . S
C1918 C1917 1.502 . S
C1919 H1905 0.960 . S
C1919 H1906 0.961 . S
C1919 H1907 0.959 . S
C1919 C1917 1.561 . S
C1920 C1917 1.526 . S
C1920 C1921 1.396 . S
C1920 C1925 1.390 . S
C1921 C1915 1.465 . S
C1921 C1920 1.396 . S
C1921 C1922 1.399 . S
C1922 H1908 0.929 . S
C1922 C1921 1.399 . S
C1922 C1923 1.385 . S
C1923 H1909 0.931 . S
C1923 C1922 1.385 . S
C1923 C1924 1.389 . S
C1924 C1923 1.389 . S
C1924 C1925 1.387 . S
C1925 H1910 0.930 . S
C1925 C1920 1.390 . S
C1925 C1924 1.387 . S
H1926 C1938 0.930 . S
H1927 C1940 0.930 . S
H1928 C1941 0.930 . S
H1929 C1945 0.959 . S
H1930 C1945 0.959 . S
H1931 C1945 0.961 . S
H1932 C1946 0.960 . S
H1933 C1946 0.961 . S
H1934 C1946 0.959 . S
H1935 C1949 0.929 . S
H1936 C1950 0.931 . S
H1937 C1952 0.930 . S
C1938 H1926 0.930 . S
C1938 C1939 1.399 . S
C1938 C1943 1.399 . S
C1939 C1938 1.399 . S
C1939 C1940 1.376 . S
C1940 H1927 0.930 . S
C1940 C1939 1.376 . S
C1940 C1941 1.388 . S
C1941 H1928 0.930 . S
C1941 C1940 1.388 . S
C1941 C1942 1.390 . S
C1942 C1941 1.390 . S
C1942 C1943 1.394 . S
C1942 C1948 1.465 . S
C1943 C1938 1.399 . S
C1943 C1942 1.394 . S
C1943 C1944 1.516 . S
C1944 C1943 1.516 . S
C1944 C1945 1.502 . S
C1944 C1946 1.561 . S
C1944 C1947 1.526 . S
C1945 H1929 0.959 . S
C1945 H1930 0.959 . S
C1945 H1931 0.961 . S
C1945 C1944 1.502 . S
C1946 H1932 0.960 . S
C1946 H1933 0.961 . S
C1946 H1934 0.959 . S
C1946 C1944 1.561 . S
C1947 C1944 1.526 . S
C1947 C1948 1.396 . S
C1947 C1952 1.390 . S
C1948 C1942 1.465 . S
C1948 C1947 1.396 . S
C1948 C1949 1.399 . S
C1949 H1935 0.929 . S
C1949 C1948 1.399 . S
C1949 C1950 1.385 . S
C1950 H1936 0.931 . S
C1950 C1949 1.385 . S
C1950 C1951 1.389 . S
C1951 C1950 1.389 . S
C1951 C1952 1.387 . S
C1952 H1937 0.930 . S
C1952 C1947 1.390 . S
C1952 C1951 1.387 . S
H1953 C1965 0.930 . S
H1954 C1967 0.930 . S
H1955 C1968 0.930 . S
H1956 C1972 0.959 . S
H1957 C1972 0.959 . S
H1958 C1972 0.961 . S
H1959 C1973 0.960 . S
H1960 C1973 0.961 . S
H1961 C1973 0.959 . S
H1962 C1976 0.929 . S
H1963 C1977 0.931 . S
H1964 C1979 0.930 . S
C1965 H1953 0.930 . S
C1965 C1966 1.399 . S
C1965 C1970 1.399 . S
C1966 C1965 1.399 . S
C1966 C1967 1.376 . S
C1967 H1954 0.930 . S
C1967 C1966 1.376 . S
C1967 C1968 1.388 . S
C1968 H1955 0.930 . S
C1968 C1967 1.388 . S
C1968 C1969 1.390 . S
C1969 C1968 1.390 . S
C1969 C1970 1.394 . S
C1969 C1975 1.465 . S
C1970 C1965 1.399 . S
C1970 C1969 1.394 . S
C1970 C1971 1.516 . S
C1971 C1970 1.516 . S
C1971 C1972 1.502 . S
C1971 C1973 1.561 . S
C1971 C1974 1.526 . S
C1972 H1956 0.959 . S
C1972 H1957 0.959 . S
C1972 H1958 0.961 . S
C1972 C1971 1.502 . S
C1973 H1959 0.960 . S
C1973 H1960 0.961 . S
C1973 H1961 0.959 . S
C1973 C1971 1.561 . S
C1974 C1971 1.526 . S
C1974 C1975 1.396 . S
C1974 C1979 1.390 . S
C1975 C1969 1.465 . S
C1975 C1974 1.396 . S
C1975 C1976 1.399 . S
C1976 H1962 0.929 . S
C1976 C1975 1.399 . S
C1976 C1977 1.385 . S
C1977 H1963 0.931 . S
C1977 C1976 1.385 . S
C1977 C1978 1.389 . S
C1978 C1977 1.389 . S
C1978 C1979 1.387 . S
C1979 H1964 0.930 . S
C1979 C1974 1.390 . S
C1979 C1978 1.387 . S
H1980 C1992 0.930 . S
H1981 C1994 0.930 . S
H1982 C1995 0.930 . S
H1983 C1999 0.959 . S
H1984 C1999 0.959 . S
H1985 C1999 0.961 . S
H1986 C2000 0.960 . S
H1987 C2000 0.961 . S
H1988 C2000 0.959 . S
H1989 C2003 0.929 . S
H1990 C2004 0.931 . S
H1991 C2006 0.930 . S
C1992 H1980 0.930 . S
C1992 C1993 1.399 . S
C1992 C1997 1.399 . S
C1993 C1992 1.399 . S
C1993 C1994 1.376 . S
C1994 H1981 0.930 . S
C1994 C1993 1.376 . S
C1994 C1995 1.388 . S
C1995 H1982 0.930 . S
C1995 C1994 1.388 . S
C1995 C1996 1.390 . S
C1996 C1995 1.390 . S
C1996 C1997 1.394 . S
C1996 C2002 1.465 . S
C1997 C1992 1.399 . S
C1997 C1996 1.394 . S
C1997 C1998 1.516 . S
C1998 C1997 1.516 . S
C1998 C1999 1.502 . S
C1998 C2000 1.561 . S
C1998 C2001 1.526 . S
C1999 H1983 0.959 . S
C1999 H1984 0.959 . S
C1999 H1985 0.961 . S
C1999 C1998 1.502 . S
C2000 H1986 0.960 . S
C2000 H1987 0.961 . S
C2000 H1988 0.959 . S
C2000 C1998 1.561 . S
C2001 C1998 1.526 . S
C2001 C2002 1.396 . S
C2001 C2006 1.390 . S
C2002 C1996 1.465 . S
C2002 C2001 1.396 . S
C2002 C2003 1.399 . S
C2003 H1989 0.929 . S
C2003 C2002 1.399 . S
C2003 C2004 1.385 . S
C2004 H1990 0.931 . S
C2004 C2003 1.385 . S
C2004 C2005 1.389 . S
C2005 C2004 1.389 . S
C2005 C2006 1.387 . S
C2006 H1991 0.930 . S
C2006 C2001 1.390 . S
C2006 C2005 1.387 . S
H2007 C2019 0.930 1_655 S
H2008 C2021 0.930 . S
H2009 C2022 0.930 . S
H2010 C2026 0.959 . S
H2011 C2026 0.959 . S
H2012 C2026 0.961 . S
H2013 C2027 0.960 . S
H2014 C2027 0.961 . S
H2015 C2027 0.959 . S
H2016 C2030 0.929 . S
H2017 C2031 0.931 . S
H2018 C2033 0.984 . S
C2019 H2007 0.930 1_455 S
C2019 C2020 1.399 . S
C2019 C2024 1.399 . S
C2020 C2019 1.399 . S
C2020 C2021 1.376 . S
C2021 H2008 0.930 . S
C2021 C2020 1.376 . S
C2021 C2022 1.388 . S
C2022 H2009 0.930 . S
C2022 C2021 1.388 . S
C2022 C2023 1.390 . S
C2023 C2022 1.390 . S
C2023 C2024 1.394 . S
C2023 C2029 1.465 . S
C2024 C2019 1.399 . S
C2024 C2023 1.394 . S
C2024 C2025 1.516 1_455 S
C2025 C2024 1.516 1_655 S
C2025 C2026 1.502 . S
C2025 C2027 1.561 1_655 S
C2025 C2028 1.526 1_655 S
C2026 H2010 0.959 . S
C2026 H2011 0.959 . S
C2026 H2012 0.961 . S
C2026 C2025 1.502 . S
C2027 H2013 0.960 . S
C2027 H2014 0.961 . S
C2027 H2015 0.959 . S
C2027 C2025 1.561 1_455 S
C2028 C2025 1.526 1_455 S
C2028 C2029 1.396 . S
C2028 C2033 1.346 1_455 S
C2029 C2023 1.465 . S
C2029 C2028 1.396 . S
C2029 C2030 1.399 . S
C2030 H2016 0.929 . S
C2030 C2029 1.399 . S
C2030 C2031 1.385 . S
C2031 H2017 0.931 . S
C2031 C2030 1.385 . S
C2031 C2032 1.389 . S
C2032 C2031 1.389 . S
C2032 C2033 1.380 1_455 S
C2033 H2018 0.984 . S
C2033 C2028 1.346 1_655 S
C2033 C2032 1.380 1_655 S
H2034 C2046 0.930 . S
H2035 C2048 0.930 . S
H2036 C2049 0.930 . S
H2037 C2053 0.959 . S
H2038 C2053 0.959 . S
H2039 C2053 0.961 . S
H2040 C2054 0.960 . S
H2041 C2054 0.961 . S
H2042 C2054 0.959 . S
H2043 C2057 0.929 . S
H2044 C2058 0.931 . S
H2045 C2060 0.930 . S
C2046 H2034 0.930 . S
C2046 C2047 1.399 . S
C2046 C2051 1.399 . S
C2047 C2046 1.399 . S
C2047 C2048 1.376 . S
C2048 H2035 0.930 . S
C2048 C2047 1.376 . S
C2048 C2049 1.388 . S
C2049 H2036 0.930 . S
C2049 C2048 1.388 . S
C2049 C2050 1.390 . S
C2050 C2049 1.390 . S
C2050 C2051 1.394 . S
C2050 C2056 1.465 . S
C2051 C2046 1.399 . S
C2051 C2050 1.394 . S
C2051 C2052 1.516 . S
C2052 C2051 1.516 . S
C2052 C2053 1.502 . S
C2052 C2054 1.561 . S
C2052 C2055 1.526 . S
C2053 H2037 0.959 . S
C2053 H2038 0.959 . S
C2053 H2039 0.961 . S
C2053 C2052 1.502 . S
C2054 H2040 0.960 . S
C2054 H2041 0.961 . S
C2054 H2042 0.959 . S
C2054 C2052 1.561 . S
C2055 C2052 1.526 . S
C2055 C2056 1.396 . S
C2055 C2060 1.390 . S
C2056 C2050 1.465 . S
C2056 C2055 1.396 . S
C2056 C2057 1.399 . S
C2057 H2043 0.929 . S
C2057 C2056 1.399 . S
C2057 C2058 1.385 . S
C2058 H2044 0.931 . S
C2058 C2057 1.385 . S
C2058 C2059 1.389 . S
C2059 C2058 1.389 . S
C2059 C2060 1.387 . S
C2060 H2045 0.930 . S
C2060 C2055 1.390 . S
C2060 C2059 1.387 . S
H2061 C2073 0.966 . S
H2062 C2075 0.930 . S
H2063 C2076 0.930 . S
H2064 C2080 0.959 . S
H2065 C2080 0.959 . S
H2066 C2080 0.961 . S
H2067 C2081 0.960 . S
H2068 C2081 0.962 1_545 S
H2069 C2081 0.959 . S
H2070 C2084 0.929 . S
H2071 C2085 0.931 . S
H2072 C2087 0.930 . S
C2073 H2061 0.966 . S
C2073 C2074 1.404 1_545 S
C2073 C2078 1.363 1_545 S
C2074 C2073 1.404 1_565 S
C2074 C2075 1.376 . S
C2075 H2062 0.930 . S
C2075 C2074 1.376 . S
C2075 C2076 1.388 . S
C2076 H2063 0.930 . S
C2076 C2075 1.388 . S
C2076 C2077 1.390 . S
C2077 C2076 1.390 . S
C2077 C2078 1.394 . S
C2077 C2083 1.465 . S
C2078 C2073 1.363 1_565 S
C2078 C2077 1.394 . S
C2078 C2079 1.516 1_565 S
C2079 C2078 1.516 1_545 S
C2079 C2080 1.502 . S
C2079 C2081 1.561 1_545 S
C2079 C2082 1.504 1_545 S
C2080 H2064 0.959 . S
C2080 H2065 0.959 . S
C2080 H2066 0.961 . S
C2080 C2079 1.502 . S
C2081 H2067 0.960 . S
C2081 H2068 0.962 1_565 S
C2081 H2069 0.959 . S
C2081 C2079 1.561 1_565 S
C2082 C2079 1.504 1_565 S
C2082 C2083 1.404 . S
C2082 C2087 1.405 1_565 S
C2083 C2077 1.465 . S
C2083 C2082 1.404 . S
C2083 C2084 1.399 . S
C2084 H2070 0.929 . S
C2084 C2083 1.399 . S
C2084 C2085 1.385 . S
C2085 H2071 0.931 . S
C2085 C2084 1.385 . S
C2085 C2086 1.389 . S
C2086 C2085 1.389 . S
C2086 C2087 1.387 1_565 S
C2087 H2072 0.930 . S
C2087 C2082 1.405 1_545 S
C2087 C2086 1.387 1_545 S
H2088 C2100 0.930 . S
H2089 C2102 0.930 . S
H2090 C2103 0.930 . S
H2091 C2107 0.959 . S
H2092 C2107 0.959 . S
H2093 C2107 0.961 . S
H2094 C2108 0.960 . S
H2095 C2108 0.961 . S
H2096 C2108 0.959 . S
H2097 C2111 0.929 . S
H2098 C2112 0.931 . S
H2099 C2114 0.930 . S
C2100 H2088 0.930 . S
C2100 C2101 1.399 . S
C2100 C2105 1.399 . S
C2101 C2100 1.399 . S
C2101 C2102 1.376 1_565 S
C2102 H2089 0.930 . S
C2102 C2101 1.376 1_545 S
C2102 C2103 1.388 . S
C2103 H2090 0.930 . S
C2103 C2102 1.388 . S
C2103 C2104 1.390 . S
C2104 C2103 1.390 . S
C2104 C2105 1.394 1_545 S
C2104 C2110 1.465 . S
C2105 C2100 1.399 . S
C2105 C2104 1.394 1_565 S
C2105 C2106 1.516 . S
C2106 C2105 1.516 . S
C2106 C2107 1.502 . S
C2106 C2108 1.561 . S
C2106 C2109 1.526 . S
C2107 H2091 0.959 . S
C2107 H2092 0.959 . S
C2107 H2093 0.961 . S
C2107 C2106 1.502 . S
C2108 H2094 0.960 . S
C2108 H2095 0.961 . S
C2108 H2096 0.959 . S
C2108 C2106 1.561 . S
C2109 C2106 1.526 . S
C2109 C2110 1.396 1_565 S
C2109 C2114 1.390 . S
C2110 C2104 1.465 . S
C2110 C2109 1.396 1_545 S
C2110 C2111 1.399 . S
C2111 H2097 0.929 . S
C2111 C2110 1.399 . S
C2111 C2112 1.385 . S
C2112 H2098 0.931 . S
C2112 C2111 1.385 . S
C2112 C2113 1.402 . S
C2113 C2112 1.402 . S
C2113 C2114 1.367 1_545 S
C2114 H2099 0.930 . S
C2114 C2109 1.390 . S
C2114 C2113 1.367 1_565 S
H2115 C2127 0.930 . S
H2116 C2129 0.930 . S
H2117 C2130 0.930 . S
H2118 C2134 0.959 . S
H2119 C2134 0.959 . S
H2120 C2134 0.961 . S
H2121 C2135 0.960 . S
H2122 C2135 0.961 . S
H2123 C2135 0.959 1_455 S
H2124 C2138 0.929 . S
H2125 C2139 0.931 . S
H2126 C2141 0.930 . S
C2127 H2115 0.930 . S
C2127 C2128 1.399 1_655 S
C2127 C2132 1.424 . S
C2128 C2127 1.399 1_455 S
C2128 C2129 1.376 . S
C2129 H2116 0.930 . S
C2129 C2128 1.376 . S
C2129 C2130 1.388 . S
C2130 H2117 0.930 . S
C2130 C2129 1.388 . S
C2130 C2131 1.390 . S
C2131 C2130 1.390 . S
C2131 C2132 1.354 1_455 S
C2131 C2137 1.465 . S
C2132 C2127 1.424 . S
C2132 C2131 1.354 1_655 S
C2132 C2133 1.526 . S
C2133 C2132 1.526 . S
C2133 C2134 1.502 . S
C2133 C2135 1.561 . S
C2133 C2136 1.526 . S
C2134 H2118 0.959 . S
C2134 H2119 0.959 . S
C2134 H2120 0.961 . S
C2134 C2133 1.502 . S
C2135 H2121 0.960 . S
C2135 H2122 0.961 . S
C2135 H2123 0.959 1_655 S
C2135 C2133 1.561 . S
C2136 C2133 1.526 . S
C2136 C2137 1.396 1_655 S
C2136 C2141 1.390 . S
C2137 C2131 1.465 . S
C2137 C2136 1.396 1_455 S
C2137 C2138 1.399 . S
C2138 H2124 0.929 . S
C2138 C2137 1.399 . S
C2138 C2139 1.385 . S
C2139 H2125 0.931 . S
C2139 C2138 1.385 . S
C2139 C2140 1.389 . S
C2140 C2139 1.389 . S
C2140 C2141 1.387 1_455 S
C2141 H2126 0.930 . S
C2141 C2136 1.390 . S
C2141 C2140 1.387 1_655 S
H2142 C2154 0.930 . S
H2143 C2156 0.930 . S
H2144 C2157 0.930 . S
H2145 C2161 0.959 . S
H2146 C2161 0.959 . S
H2147 C2161 0.961 . S
H2148 C2162 0.960 . S
H2149 C2162 0.961 . S
H2150 C2162 0.959 . S
H2151 C2165 0.929 . S
H2152 C2166 0.931 . S
H2153 C2168 0.930 . S
C2154 H2142 0.930 . S
C2154 C2155 1.399 . S
C2154 C2159 1.399 . S
C2155 C2154 1.399 . S
C2155 C2156 1.376 . S
C2156 H2143 0.930 . S
C2156 C2155 1.376 . S
C2156 C2157 1.388 . S
C2157 H2144 0.930 . S
C2157 C2156 1.388 . S
C2157 C2158 1.390 . S
C2158 C2157 1.390 . S
C2158 C2159 1.394 . S
C2158 C2164 1.465 . S
C2159 C2154 1.399 . S
C2159 C2158 1.394 . S
C2159 C2160 1.516 . S
C2160 C2159 1.516 . S
C2160 C2161 1.502 . S
C2160 C2162 1.561 . S
C2160 C2163 1.526 . S
C2161 H2145 0.959 . S
C2161 H2146 0.959 . S
C2161 H2147 0.961 . S
C2161 C2160 1.502 . S
C2162 H2148 0.960 . S
C2162 H2149 0.961 . S
C2162 H2150 0.959 . S
C2162 C2160 1.561 . S
C2163 C2160 1.526 . S
C2163 C2164 1.396 . S
C2163 C2168 1.390 . S
C2164 C2158 1.465 . S
C2164 C2163 1.396 . S
C2164 C2165 1.399 . S
C2165 H2151 0.929 . S
C2165 C2164 1.399 . S
C2165 C2166 1.385 . S
C2166 H2152 0.931 . S
C2166 C2165 1.385 . S
C2166 C2167 1.389 . S
C2167 C2166 1.389 . S
C2167 C2168 1.387 . S
C2168 H2153 0.930 . S
C2168 C2163 1.390 . S
C2168 C2167 1.387 . S
H2169 C2181 0.930 . S
H2170 C2183 0.930 . S
H2171 C2184 0.930 . S
H2172 C2188 0.959 . S
H2173 C2188 0.959 . S
H2174 C2188 0.961 . S
H2175 C2189 0.960 . S
H2176 C2189 0.961 . S
H2177 C2189 0.959 . S
H2178 C2192 0.929 . S
H2179 C2193 0.931 . S
H2180 C2195 0.930 . S
C2181 H2169 0.930 . S
C2181 C2182 1.399 . S
C2181 C2186 1.399 . S
C2182 C2181 1.399 . S
C2182 C2183 1.376 . S
C2183 H2170 0.930 . S
C2183 C2182 1.376 . S
C2183 C2184 1.388 . S
C2184 H2171 0.930 . S
C2184 C2183 1.388 . S
C2184 C2185 1.390 . S
C2185 C2184 1.390 . S
C2185 C2186 1.394 . S
C2185 C2191 1.465 . S
C2186 C2181 1.399 . S
C2186 C2185 1.394 . S
C2186 C2187 1.516 . S
C2187 C2186 1.516 . S
C2187 C2188 1.502 . S
C2187 C2189 1.561 . S
C2187 C2190 1.526 . S
C2188 H2172 0.959 . S
C2188 H2173 0.959 . S
C2188 H2174 0.961 . S
C2188 C2187 1.502 . S
C2189 H2175 0.960 . S
C2189 H2176 0.961 . S
C2189 H2177 0.959 . S
C2189 C2187 1.561 . S
C2190 C2187 1.526 . S
C2190 C2191 1.396 . S
C2190 C2195 1.390 . S
C2191 C2185 1.465 . S
C2191 C2190 1.396 . S
C2191 C2192 1.399 . S
C2192 H2178 0.929 . S
C2192 C2191 1.399 . S
C2192 C2193 1.385 . S
C2193 H2179 0.931 . S
C2193 C2192 1.385 . S
C2193 C2194 1.389 . S
C2194 C2193 1.389 . S
C2194 C2195 1.387 . S
C2195 H2180 0.930 . S
C2195 C2190 1.390 . S
C2195 C2194 1.387 . S
H2196 C2208 0.930 . S
H2197 C2210 0.930 . S
H2198 C2211 0.930 . S
H2199 C2215 0.959 . S
H2200 C2215 0.959 . S
H2201 C2215 0.961 . S
H2202 C2216 0.960 . S
H2203 C2216 0.961 . S
H2204 C2216 0.959 . S
H2205 C2219 0.929 . S
H2206 C2220 0.931 . S
H2207 C2222 0.930 . S
C2208 H2196 0.930 . S
C2208 C2209 1.399 . S
C2208 C2213 1.399 . S
C2209 C2208 1.399 . S
C2209 C2210 1.376 . S
C2210 H2197 0.930 . S
C2210 C2209 1.376 . S
C2210 C2211 1.388 . S
C2211 H2198 0.930 . S
C2211 C2210 1.388 . S
C2211 C2212 1.390 . S
C2212 C2211 1.390 . S
C2212 C2213 1.394 . S
C2212 C2218 1.465 . S
C2213 C2208 1.399 . S
C2213 C2212 1.394 . S
C2213 C2214 1.516 . S
C2214 C2213 1.516 . S
C2214 C2215 1.502 . S
C2214 C2216 1.561 . S
C2214 C2217 1.526 . S
C2215 H2199 0.959 . S
C2215 H2200 0.959 . S
C2215 H2201 0.961 . S
C2215 C2214 1.502 . S
C2216 H2202 0.960 . S
C2216 H2203 0.961 . S
C2216 H2204 0.959 . S
C2216 C2214 1.561 . S
C2217 C2214 1.526 . S
C2217 C2218 1.396 . S
C2217 C2222 1.390 . S
C2218 C2212 1.465 . S
C2218 C2217 1.396 . S
C2218 C2219 1.399 . S
C2219 H2205 0.929 . S
C2219 C2218 1.399 . S
C2219 C2220 1.385 . S
C2220 H2206 0.931 . S
C2220 C2219 1.385 . S
C2220 C2221 1.389 . S
C2221 C2220 1.389 . S
C2221 C2222 1.387 . S
C2222 H2207 0.930 . S
C2222 C2217 1.390 . S
C2222 C2221 1.387 . S
H2223 C2235 0.930 . S
H2224 C2237 0.930 . S
H2225 C2238 0.930 . S
H2226 C2242 0.959 . S
H2227 C2242 0.959 . S
H2228 C2242 0.961 . S
H2229 C2243 0.960 . S
H2230 C2243 0.961 . S
H2231 C2243 0.959 . S
H2232 C2246 0.929 . S
H2233 C2247 0.931 . S
H2234 C2249 0.930 . S
C2235 H2223 0.930 . S
C2235 C2236 1.399 . S
C2235 C2240 1.399 . S
C2236 C2235 1.399 . S
C2236 C2237 1.376 . S
C2237 H2224 0.930 . S
C2237 C2236 1.376 . S
C2237 C2238 1.388 . S
C2238 H2225 0.930 . S
C2238 C2237 1.388 . S
C2238 C2239 1.390 . S
C2239 C2238 1.390 . S
C2239 C2240 1.394 . S
C2239 C2245 1.465 . S
C2240 C2235 1.399 . S
C2240 C2239 1.394 . S
C2240 C2241 1.516 . S
C2241 C2240 1.516 . S
C2241 C2242 1.502 . S
C2241 C2243 1.561 . S
C2241 C2244 1.526 . S
C2242 H2226 0.959 . S
C2242 H2227 0.959 . S
C2242 H2228 0.961 . S
C2242 C2241 1.502 . S
C2243 H2229 0.960 . S
C2243 H2230 0.961 . S
C2243 H2231 0.959 . S
C2243 C2241 1.561 . S
C2244 C2241 1.526 . S
C2244 C2245 1.396 . S
C2244 C2249 1.390 . S
C2245 C2239 1.465 . S
C2245 C2244 1.396 . S
C2245 C2246 1.399 . S
C2246 H2232 0.929 . S
C2246 C2245 1.399 . S
C2246 C2247 1.385 . S
C2247 H2233 0.931 . S
C2247 C2246 1.385 . S
C2247 C2248 1.389 . S
C2248 C2247 1.389 . S
C2248 C2249 1.387 . S
C2249 H2234 0.930 . S
C2249 C2244 1.390 . S
C2249 C2248 1.387 . S
H2250 C2262 0.930 . S
H2251 C2264 0.930 . S
H2252 C2265 0.930 . S
H2253 C2269 0.959 . S
H2254 C2269 0.959 . S
H2255 C2269 0.961 . S
H2256 C2270 0.960 . S
H2257 C2270 0.961 . S
H2258 C2270 0.959 . S
H2259 C2273 0.929 . S
H2260 C2274 0.931 . S
H2261 C2276 0.930 . S
C2262 H2250 0.930 . S
C2262 C2263 1.399 1_565 S
C2262 C2267 1.399 . S
C2263 C2262 1.399 1_545 S
C2263 C2264 1.376 . S
C2264 H2251 0.930 . S
C2264 C2263 1.376 . S
C2264 C2265 1.388 . S
C2265 H2252 0.930 . S
C2265 C2264 1.388 . S
C2265 C2266 1.390 . S
C2266 C2265 1.390 . S
C2266 C2267 1.394 1_545 S
C2266 C2272 1.465 . S
C2267 C2262 1.399 . S
C2267 C2266 1.394 1_565 S
C2267 C2268 1.516 . S
C2268 C2267 1.516 . S
C2268 C2269 1.502 . S
C2268 C2270 1.561 . S
C2268 C2271 1.526 . S
C2269 H2253 0.959 . S
C2269 H2254 0.959 . S
C2269 H2255 0.961 . S
C2269 C2268 1.502 . S
C2270 H2256 0.960 . S
C2270 H2257 0.961 . S
C2270 H2258 0.959 . S
C2270 C2268 1.561 . S
C2271 C2268 1.526 . S
C2271 C2272 1.396 1_565 S
C2271 C2276 1.390 . S
C2272 C2266 1.465 . S
C2272 C2271 1.396 1_545 S
C2272 C2273 1.399 . S
C2273 H2259 0.929 . S
C2273 C2272 1.399 . S
C2273 C2274 1.385 . S
C2274 H2260 0.931 . S
C2274 C2273 1.385 . S
C2274 C2275 1.389 . S
C2275 C2274 1.389 . S
C2275 C2276 1.387 1_545 S
C2276 H2261 0.930 . S
C2276 C2271 1.390 . S
C2276 C2275 1.387 1_565 S
H2277 C2289 0.943 . S
H2278 C2291 0.930 . S
H2279 C2292 0.930 . S
H2280 C2296 0.959 . S
H2281 C2296 0.959 . S
H2282 C2296 0.961 . S
H2283 C2297 0.960 . S
H2284 C2297 0.961 . S
H2285 C2297 0.959 . S
H2286 C2300 0.929 . S
H2287 C2301 0.931 . S
H2288 C2303 0.940 1_455 S
C2289 H2277 0.943 . S
C2289 C2290 1.399 . S
C2289 C2294 1.399 . S
C2290 C2289 1.399 . S
C2290 C2291 1.376 . S
C2291 H2278 0.930 . S
C2291 C2290 1.376 . S
C2291 C2292 1.388 . S
C2292 H2279 0.930 . S
C2292 C2291 1.388 . S
C2292 C2293 1.390 . S
C2293 C2292 1.390 . S
C2293 C2294 1.394 . S
C2293 C2299 1.465 . S
C2294 C2289 1.399 . S
C2294 C2293 1.394 . S
C2294 C2295 1.516 . S
C2295 C2294 1.516 . S
C2295 C2296 1.502 1_655 S
C2295 C2297 1.561 . S
C2295 C2298 1.526 . S
C2296 H2280 0.959 . S
C2296 H2281 0.959 . S
C2296 H2282 0.961 . S
C2296 C2295 1.502 1_455 S
C2297 H2283 0.960 . S
C2297 H2284 0.961 . S
C2297 H2285 0.959 . S
C2297 C2295 1.561 . S
C2298 C2295 1.526 . S
C2298 C2299 1.396 . S
C2298 C2303 1.390 . S
C2299 C2293 1.465 . S
C2299 C2298 1.396 . S
C2299 C2300 1.399 . S
C2300 H2286 0.929 . S
C2300 C2299 1.399 . S
C2300 C2301 1.385 . S
C2301 H2287 0.931 . S
C2301 C2300 1.385 . S
C2301 C2302 1.389 . S
C2302 C2301 1.389 . S
C2302 C2303 1.387 . S
C2303 H2288 0.940 1_655 S
C2303 C2298 1.390 . S
C2303 C2302 1.387 . S
H2304 C2316 0.930 . S
H2305 C2318 0.930 . S
H2306 C2319 0.930 . S
H2307 C2323 0.959 . S
H2308 C2323 0.959 . S
H2309 C2323 0.961 . S
H2310 C2324 0.960 . S
H2311 C2324 0.961 . S
H2312 C2324 0.959 . S
H2313 C2327 0.929 . S
H2314 C2328 0.931 . S
H2315 C2330 0.930 . S
C2316 H2304 0.930 . S
C2316 C2317 1.399 . S
C2316 C2321 1.399 . S
C2317 C2316 1.399 . S
C2317 C2318 1.376 . S
C2318 H2305 0.930 . S
C2318 C2317 1.376 . S
C2318 C2319 1.388 . S
C2319 H2306 0.930 . S
C2319 C2318 1.388 . S
C2319 C2320 1.390 . S
C2320 C2319 1.390 . S
C2320 C2321 1.394 . S
C2320 C2326 1.465 . S
C2321 C2316 1.399 . S
C2321 C2320 1.394 . S
C2321 C2322 1.516 . S
C2322 C2321 1.516 . S
C2322 C2323 1.502 . S
C2322 C2324 1.561 . S
C2322 C2325 1.526 . S
C2323 H2307 0.959 . S
C2323 H2308 0.959 . S
C2323 H2309 0.961 . S
C2323 C2322 1.502 . S
C2324 H2310 0.960 . S
C2324 H2311 0.961 . S
C2324 H2312 0.959 . S
C2324 C2322 1.561 . S
C2325 C2322 1.526 . S
C2325 C2326 1.396 . S
C2325 C2330 1.390 . S
C2326 C2320 1.465 . S
C2326 C2325 1.396 . S
C2326 C2327 1.399 . S
C2327 H2313 0.929 . S
C2327 C2326 1.399 . S
C2327 C2328 1.385 . S
C2328 H2314 0.931 . S
C2328 C2327 1.385 . S
C2328 C2329 1.389 . S
C2329 C2328 1.389 . S
C2329 C2330 1.387 . S
C2330 H2315 0.930 . S
C2330 C2325 1.390 . S
C2330 C2329 1.387 . S
H2331 C2343 0.930 . S
H2332 C2345 0.930 . S
H2333 C2346 0.930 . S
H2334 C2350 0.959 . S
H2335 C2350 0.959 . S
H2336 C2350 0.961 . S
H2337 C2351 0.960 . S
H2338 C2351 0.961 . S
H2339 C2351 0.959 . S
H2340 C2354 0.929 . S
H2341 C2355 0.931 . S
H2342 C2357 0.930 . S
C2343 H2331 0.930 . S
C2343 C2344 1.399 . S
C2343 C2348 1.399 . S
C2344 C2343 1.399 . S
C2344 C2345 1.376 . S
C2345 H2332 0.930 . S
C2345 C2344 1.376 . S
C2345 C2346 1.388 . S
C2346 H2333 0.930 . S
C2346 C2345 1.388 . S
C2346 C2347 1.390 . S
C2347 C2346 1.390 . S
C2347 C2348 1.394 . S
C2347 C2353 1.465 . S
C2348 C2343 1.399 . S
C2348 C2347 1.394 . S
C2348 C2349 1.516 . S
C2349 C2348 1.516 . S
C2349 C2350 1.502 . S
C2349 C2351 1.561 . S
C2349 C2352 1.526 . S
C2350 H2334 0.959 . S
C2350 H2335 0.959 . S
C2350 H2336 0.961 . S
C2350 C2349 1.502 . S
C2351 H2337 0.960 . S
C2351 H2338 0.961 . S
C2351 H2339 0.959 . S
C2351 C2349 1.561 . S
C2352 C2349 1.526 . S
C2352 C2353 1.396 . S
C2352 C2357 1.390 . S
C2353 C2347 1.465 . S
C2353 C2352 1.396 . S
C2353 C2354 1.399 . S
C2354 H2340 0.929 . S
C2354 C2353 1.399 . S
C2354 C2355 1.385 . S
C2355 H2341 0.931 . S
C2355 C2354 1.385 . S
C2355 C2356 1.389 . S
C2356 C2355 1.389 . S
C2356 C2357 1.387 . S
C2357 H2342 0.930 . S
C2357 C2352 1.390 . S
C2357 C2356 1.387 . S
H2358 C2370 0.930 . S
H2359 C2372 0.930 . S
H2360 C2373 0.930 . S
H2361 C2377 0.959 . S
H2362 C2377 0.959 . S
H2363 C2377 0.961 . S
H2364 C2378 0.960 . S
H2365 C2378 0.961 . S
H2366 C2378 0.959 . S
H2367 C2381 0.929 . S
H2368 C2382 0.931 . S
H2369 C2384 0.930 . S
C2370 H2358 0.930 . S
C2370 C2371 1.399 . S
C2370 C2375 1.399 . S
C2371 C2370 1.399 . S
C2371 C2372 1.376 . S
C2372 H2359 0.930 . S
C2372 C2371 1.376 . S
C2372 C2373 1.388 . S
C2373 H2360 0.930 . S
C2373 C2372 1.388 . S
C2373 C2374 1.390 . S
C2374 C2373 1.390 . S
C2374 C2375 1.394 . S
C2374 C2380 1.465 . S
C2375 C2370 1.399 . S
C2375 C2374 1.394 . S
C2375 C2376 1.516 . S
C2376 C2375 1.516 . S
C2376 C2377 1.502 . S
C2376 C2378 1.561 . S
C2376 C2379 1.526 . S
C2377 H2361 0.959 . S
C2377 H2362 0.959 . S
C2377 H2363 0.961 . S
C2377 C2376 1.502 . S
C2378 H2364 0.960 . S
C2378 H2365 0.961 . S
C2378 H2366 0.959 . S
C2378 C2376 1.561 . S
C2379 C2376 1.526 . S
C2379 C2380 1.396 . S
C2379 C2384 1.390 . S
C2380 C2374 1.465 . S
C2380 C2379 1.396 . S
C2380 C2381 1.399 . S
C2381 H2367 0.929 . S
C2381 C2380 1.399 . S
C2381 C2382 1.385 . S
C2382 H2368 0.931 . S
C2382 C2381 1.385 . S
C2382 C2383 1.389 . S
C2383 C2382 1.389 . S
C2383 C2384 1.387 . S
C2384 H2369 0.930 . S
C2384 C2379 1.390 . S
C2384 C2383 1.387 . S
H2385 C2397 0.930 . S
H2386 C2399 0.930 . S
H2387 C2400 0.930 . S
H2388 C2404 0.959 . S
H2389 C2404 0.959 . S
H2390 C2404 0.961 . S
H2391 C2405 0.960 . S
H2392 C2405 0.961 . S
H2393 C2405 0.959 . S
H2394 C2408 0.929 . S
H2395 C2409 0.931 . S
H2396 C2411 0.930 . S
C2397 H2385 0.930 . S
C2397 C2398 1.399 . S
C2397 C2402 1.399 . S
C2398 C2397 1.399 . S
C2398 C2399 1.376 . S
C2399 H2386 0.930 . S
C2399 C2398 1.376 . S
C2399 C2400 1.388 . S
C2400 H2387 0.930 . S
C2400 C2399 1.388 . S
C2400 C2401 1.390 . S
C2401 C2400 1.390 . S
C2401 C2402 1.394 . S
C2401 C2407 1.465 . S
C2402 C2397 1.399 . S
C2402 C2401 1.394 . S
C2402 C2403 1.516 . S
C2403 C2402 1.516 . S
C2403 C2404 1.502 . S
C2403 C2405 1.561 . S
C2403 C2406 1.526 . S
C2404 H2388 0.959 . S
C2404 H2389 0.959 . S
C2404 H2390 0.961 . S
C2404 C2403 1.502 . S
C2405 H2391 0.960 . S
C2405 H2392 0.961 . S
C2405 H2393 0.959 . S
C2405 C2403 1.561 . S
C2406 C2403 1.526 . S
C2406 C2407 1.396 . S
C2406 C2411 1.390 . S
C2407 C2401 1.465 . S
C2407 C2406 1.396 . S
C2407 C2408 1.399 . S
C2408 H2394 0.929 . S
C2408 C2407 1.399 . S
C2408 C2409 1.385 . S
C2409 H2395 0.931 . S
C2409 C2408 1.385 . S
C2409 C2410 1.389 . S
C2410 C2409 1.389 . S
C2410 C2411 1.387 . S
C2411 H2396 0.930 . S
C2411 C2406 1.390 . S
C2411 C2410 1.387 . S
H2412 C2424 0.930 . S
H2413 C2426 0.930 . S
H2414 C2427 0.930 . S
H2415 C2431 0.959 . S
H2416 C2431 0.959 . S
H2417 C2431 0.961 . S
H2418 C2432 0.960 . S
H2419 C2432 0.961 . S
H2420 C2432 0.959 . S
H2421 C2435 0.929 . S
H2422 C2436 0.931 . S
H2423 C2438 0.930 . S
C2424 H2412 0.930 . S
C2424 C2425 1.399 . S
C2424 C2429 1.399 . S
C2425 C2424 1.399 . S
C2425 C2426 1.376 . S
C2426 H2413 0.930 . S
C2426 C2425 1.376 . S
C2426 C2427 1.388 . S
C2427 H2414 0.930 . S
C2427 C2426 1.388 . S
C2427 C2428 1.390 . S
C2428 C2427 1.390 . S
C2428 C2429 1.394 . S
C2428 C2434 1.465 . S
C2429 C2424 1.399 . S
C2429 C2428 1.394 . S
C2429 C2430 1.516 . S
C2430 C2429 1.516 . S
C2430 C2431 1.502 . S
C2430 C2432 1.561 . S
C2430 C2433 1.526 . S
C2431 H2415 0.959 . S
C2431 H2416 0.959 . S
C2431 H2417 0.961 . S
C2431 C2430 1.502 . S
C2432 H2418 0.960 . S
C2432 H2419 0.961 . S
C2432 H2420 0.959 . S
C2432 C2430 1.561 . S
C2433 C2430 1.526 . S
C2433 C2434 1.396 . S
C2433 C2438 1.390 . S
C2434 C2428 1.465 . S
C2434 C2433 1.396 . S
C2434 C2435 1.399 . S
C2435 H2421 0.929 . S
C2435 C2434 1.399 . S
C2435 C2436 1.385 . S
C2436 H2422 0.931 . S
C2436 C2435 1.385 . S
C2436 C2437 1.389 . S
C2437 C2436 1.389 . S
C2437 C2438 1.387 . S
C2438 H2423 0.930 . S
C2438 C2433 1.390 . S
C2438 C2437 1.387 . S
H2439 C2451 0.930 . S
H2440 C2453 0.930 . S
H2441 C2454 0.930 . S
H2442 C2458 0.959 . S
H2443 C2458 0.959 . S
H2444 C2458 0.961 . S
H2445 C2459 0.960 . S
H2446 C2459 0.961 . S
H2447 C2459 0.959 . S
H2448 C2462 0.929 . S
H2449 C2463 0.931 . S
H2450 C2465 0.930 . S
C2451 H2439 0.930 . S
C2451 C2452 1.399 . S
C2451 C2456 1.399 . S
C2452 C2451 1.399 . S
C2452 C2453 1.376 . S
C2453 H2440 0.930 . S
C2453 C2452 1.376 . S
C2453 C2454 1.388 . S
C2454 H2441 0.930 . S
C2454 C2453 1.388 . S
C2454 C2455 1.390 . S
C2455 C2454 1.390 . S
C2455 C2456 1.394 . S
C2455 C2461 1.465 . S
C2456 C2451 1.399 . S
C2456 C2455 1.394 . S
C2456 C2457 1.516 . S
C2457 C2456 1.516 . S
C2457 C2458 1.502 . S
C2457 C2459 1.561 . S
C2457 C2460 1.526 . S
C2458 H2442 0.959 . S
C2458 H2443 0.959 . S
C2458 H2444 0.961 . S
C2458 C2457 1.502 . S
C2459 H2445 0.960 . S
C2459 H2446 0.961 . S
C2459 H2447 0.959 . S
C2459 C2457 1.561 . S
C2460 C2457 1.526 . S
C2460 C2461 1.396 . S
C2460 C2465 1.390 . S
C2461 C2455 1.465 . S
C2461 C2460 1.396 . S
C2461 C2462 1.399 . S
C2462 H2448 0.929 . S
C2462 C2461 1.399 . S
C2462 C2463 1.385 . S
C2463 H2449 0.931 . S
C2463 C2462 1.385 . S
C2463 C2464 1.389 . S
C2464 C2463 1.389 . S
C2464 C2465 1.387 . S
C2465 H2450 0.930 . S
C2465 C2460 1.390 . S
C2465 C2464 1.387 . S
H2466 C2478 0.930 . S
H2467 C2480 0.930 . S
H2468 C2481 0.930 . S
H2469 C2485 0.959 . S
H2470 C2485 0.959 . S
H2471 C2485 0.961 . S
H2472 C2486 0.960 . S
H2473 C2486 0.961 . S
H2474 C2486 0.959 . S
H2475 C2489 0.929 . S
H2476 C2490 0.931 . S
H2477 C2492 0.930 . S
C2478 H2466 0.930 . S
C2478 C2479 1.399 . S
C2478 C2483 1.399 . S
C2479 C2478 1.399 . S
C2479 C2480 1.376 . S
C2480 H2467 0.930 . S
C2480 C2479 1.376 . S
C2480 C2481 1.388 . S
C2481 H2468 0.930 . S
C2481 C2480 1.388 . S
C2481 C2482 1.390 . S
C2482 C2481 1.390 . S
C2482 C2483 1.394 . S
C2482 C2488 1.465 . S
C2483 C2478 1.399 . S
C2483 C2482 1.394 . S
C2483 C2484 1.516 . S
C2484 C2483 1.516 . S
C2484 C2485 1.502 . S
C2484 C2486 1.561 . S
C2484 C2487 1.526 . S
C2485 H2469 0.959 . S
C2485 H2470 0.959 . S
C2485 H2471 0.961 . S
C2485 C2484 1.502 . S
C2486 H2472 0.960 . S
C2486 H2473 0.961 . S
C2486 H2474 0.959 . S
C2486 C2484 1.561 . S
C2487 C2484 1.526 . S
C2487 C2488 1.396 . S
C2487 C2492 1.390 . S
C2488 C2482 1.465 . S
C2488 C2487 1.396 . S
C2488 C2489 1.399 . S
C2489 H2475 0.929 . S
C2489 C2488 1.399 . S
C2489 C2490 1.385 . S
C2490 H2476 0.931 . S
C2490 C2489 1.385 . S
C2490 C2491 1.389 . S
C2491 C2490 1.389 . S
C2491 C2492 1.387 . S
C2492 H2477 0.930 . S
C2492 C2487 1.390 . S
C2492 C2491 1.387 . S
H2493 C2505 0.930 . S
H2494 C2507 0.930 . S
H2495 C2508 0.930 . S
H2496 C2512 0.959 . S
H2497 C2512 0.959 . S
H2498 C2512 0.961 . S
H2499 C2513 0.960 . S
H2500 C2513 0.961 . S
H2501 C2513 0.959 . S
H2502 C2516 0.929 . S
H2503 C2517 0.931 . S
H2504 C2519 0.914 . S
C2505 H2493 0.930 . S
C2505 C2506 1.399 . S
C2505 C2510 1.399 . S
C2506 C2505 1.399 . S
C2506 C2507 1.376 . S
C2507 H2494 0.930 . S
C2507 C2506 1.376 . S
C2507 C2508 1.388 . S
C2508 H2495 0.930 . S
C2508 C2507 1.388 . S
C2508 C2509 1.390 . S
C2509 C2508 1.390 . S
C2509 C2510 1.394 . S
C2509 C2515 1.465 . S
C2510 C2505 1.399 . S
C2510 C2509 1.394 . S
C2510 C2511 1.528 . S
C2511 C2510 1.528 . S
C2511 C2512 1.511 . S
C2511 C2513 1.544 1_655 S
C2511 C2514 1.537 . S
C2512 H2496 0.959 . S
C2512 H2497 0.959 . S
C2512 H2498 0.961 . S
C2512 C2511 1.511 . S
C2513 H2499 0.960 . S
C2513 H2500 0.961 . S
C2513 H2501 0.959 . S
C2513 C2511 1.544 1_455 S
C2514 C2511 1.537 . S
C2514 C2515 1.423 . S
C2514 C2519 1.373 . S
C2515 C2509 1.465 . S
C2515 C2514 1.423 . S
C2515 C2516 1.399 . S
C2516 H2502 0.929 . S
C2516 C2515 1.399 . S
C2516 C2517 1.385 . S
C2517 H2503 0.931 . S
C2517 C2516 1.385 . S
C2517 C2518 1.389 . S
C2518 C2517 1.389 . S
C2518 C2519 1.382 . S
C2519 H2504 0.914 . S
C2519 C2514 1.373 . S
C2519 C2518 1.382 . S
H2520 C2532 0.930 . S
H2521 C2534 0.930 . S
H2522 C2535 0.930 . S
H2523 C2539 0.959 . S
H2524 C2539 0.959 . S
H2525 C2539 0.961 . S
H2526 C2540 0.960 . S
H2527 C2540 0.961 . S
H2528 C2540 0.959 . S
H2529 C2543 0.929 . S
H2530 C2544 0.931 . S
H2531 C2546 0.930 . S
C2532 H2520 0.930 . S
C2532 C2533 1.399 . S
C2532 C2537 1.399 . S
C2533 C2532 1.399 . S
C2533 C2534 1.376 . S
C2534 H2521 0.930 . S
C2534 C2533 1.376 . S
C2534 C2535 1.388 . S
C2535 H2522 0.930 . S
C2535 C2534 1.388 . S
C2535 C2536 1.390 . S
C2536 C2535 1.390 . S
C2536 C2537 1.394 . S
C2536 C2542 1.465 . S
C2537 C2532 1.399 . S
C2537 C2536 1.394 . S
C2537 C2538 1.516 . S
C2538 C2537 1.516 . S
C2538 C2539 1.502 . S
C2538 C2540 1.561 . S
C2538 C2541 1.526 . S
C2539 H2523 0.959 . S
C2539 H2524 0.959 . S
C2539 H2525 0.961 . S
C2539 C2538 1.502 . S
C2540 H2526 0.960 . S
C2540 H2527 0.961 . S
C2540 H2528 0.959 . S
C2540 C2538 1.561 . S
C2541 C2538 1.526 . S
C2541 C2542 1.396 . S
C2541 C2546 1.390 . S
C2542 C2536 1.465 . S
C2542 C2541 1.396 . S
C2542 C2543 1.399 . S
C2543 H2529 0.929 . S
C2543 C2542 1.399 . S
C2543 C2544 1.385 . S
C2544 H2530 0.931 . S
C2544 C2543 1.385 . S
C2544 C2545 1.389 . S
C2545 C2544 1.389 . S
C2545 C2546 1.387 . S
C2546 H2531 0.930 . S
C2546 C2541 1.390 . S
C2546 C2545 1.387 . S
H2547 C2559 0.930 . S
H2548 C2561 0.930 . S
H2549 C2562 0.930 . S
H2550 C2566 0.959 . S
H2551 C2566 0.959 . S
H2552 C2566 0.961 . S
H2553 C2567 0.960 . S
H2554 C2567 0.961 . S
H2555 C2567 0.959 . S
H2556 C2570 0.929 . S
H2557 C2571 0.931 . S
H2558 C2573 0.930 . S
C2559 H2547 0.930 . S
C2559 C2560 1.399 1_565 S
C2559 C2564 1.399 . S
C2560 C2559 1.399 1_545 S
C2560 C2561 1.376 . S
C2561 H2548 0.930 . S
C2561 C2560 1.376 . S
C2561 C2562 1.388 . S
C2562 H2549 0.930 . S
C2562 C2561 1.388 . S
C2562 C2563 1.390 . S
C2563 C2562 1.390 . S
C2563 C2564 1.394 1_545 S
C2563 C2569 1.465 . S
C2564 C2559 1.399 . S
C2564 C2563 1.394 1_565 S
C2564 C2565 1.516 . S
C2565 C2564 1.516 . S
C2565 C2566 1.502 . S
C2565 C2567 1.561 . S
C2565 C2568 1.526 . S
C2566 H2550 0.959 . S
C2566 H2551 0.959 . S
C2566 H2552 0.961 . S
C2566 C2565 1.502 . S
C2567 H2553 0.960 . S
C2567 H2554 0.961 . S
C2567 H2555 0.959 . S
C2567 C2565 1.561 . S
C2568 C2565 1.526 . S
C2568 C2569 1.396 1_565 S
C2568 C2573 1.390 . S
C2569 C2563 1.465 . S
C2569 C2568 1.396 1_545 S
C2569 C2570 1.399 . S
C2570 H2556 0.929 . S
C2570 C2569 1.399 . S
C2570 C2571 1.385 . S
C2571 H2557 0.931 . S
C2571 C2570 1.385 . S
C2571 C2572 1.389 . S
C2572 C2571 1.389 . S
C2572 C2573 1.387 1_545 S
C2573 H2558 0.930 . S
C2573 C2568 1.390 . S
C2573 C2572 1.387 1_565 S
C643 C9 1.561 . S
C655 C458 1.468 1_655 S
C670 C19 1.545 . S
C682 C471 1.526 . S
C709 C500 1.453 1_545 S
C697 C33 1.570 . S
C724 C37 1.550 1_565 S
C736 C513 1.492 . S
C751 C5 1.545 . S
C763 C534 1.474 . S
C778 C23 1.587 . S
C790 C563 1.448 . S
C805 C47 1.561 . S
C817 C542 1.474 . S
C844 C555 1.469 . S
C832 C65 1.570 . S
C871 C521 1.499 1_545 S
C859 C75 1.483 1_545 S
C886 C79 1.496 . S
C898 C492 1.443 . S
C925 C450 1.547 1_655 S
C913 C51 1.588 1_655 S
C940 C61 1.543 . S
C952 C479 1.547 . S
C967 C93 1.652 . S
C979 C584 1.530 . S
C994 C103 1.588 . S
C1006 C597 1.581 . S
C1033 C626 1.480 . S
C1021 C117 1.628 . S
C1048 C121 1.587 . S
C1060 C261 1.554 . S
C1075 C89 1.609 . S
C1087 C282 1.539 . S
C1102 C107 1.595 . S
C1114 C311 1.541 . S
C1129 C131 1.577 . S
C1141 C290 1.527 . S
C1156 C149 1.589 . S
C1168 C303 1.483 . S
C1195 C269 1.498 . S
C1183 C159 1.579 . S
C1222 C618 1.491 . S
C1210 C163 1.564 . S
C1249 C576 1.579 . S
C1237 C135 1.621 . S
C1276 C605 1.514 . S
C1264 C145 1.599 . S
C1291 C177 1.616 . S
C1303 C332 1.509 . S
C1318 C187 1.560 . S
C1330 C345 1.566 . S
C1345 C201 1.608 . S
C1357 C374 1.572 . S
C1372 C205 1.626 . S
C1384 C387 1.586 . S
C1411 C408 1.595 . S
C1399 C173 1.587 . S
C1438 C437 1.502 . S
C1426 C191 1.616 . S
C1465 C416 1.557 . S
C1453 C215 1.622 . S
C1492 C429 1.574 . S
C1480 C233 1.628 . S
C1507 C243 1.553 . S
C1519 C395 1.551 . S
C1546 C366 1.448 . S
C1534 C247 1.522 . S
C1561 C219 1.620 . S
C1573 C324 1.580 . S
C1600 C353 1.505 . S
C1588 C229 1.589 . S
C1627 C264 1.397 . S
C1615 C11 1.488 . S
C1642 C14 1.472 . S
C1654 C285 1.380 . S
C1681 C313 1.376 . S
C1669 C28 1.519 . S
C1708 C334 1.358 . S
C1696 C39 1.515 . S
C1735 C348 1.366 . S
C1723 C0 1.484 . S
C1762 C376 1.354 . S
C1750 C25 1.445 . S
C1777 C42 1.565 . S
C1789 C369 1.359 . S
C1804 C67 1.484 . S
C1816 C327 1.392 . S
C1831 C70 1.473 . S
C1843 C355 1.345 . S
C1858 C81 1.496 . S
C1870 C292 1.372 . S
C1897 C306 1.311 . S
C1885 C53 1.529 . S
C1912 C56 1.495 . S
C1924 C271 1.466 . S
C1951 C390 1.349 . S
C1939 C95 1.502 . S
C1966 C98 1.536 . S
C1978 C411 1.419 . S
C1993 C112 1.568 . S
C2005 C439 1.415 . S
C2032 C460 1.321 . S
C2020 C123 1.437 . S
C2047 C84 1.506 . S
C2059 C474 1.428 . S
C2074 C109 1.402 . S
C2086 C502 1.293 . S
C2101 C126 1.513 . S
C2113 C495 1.417 1_545 S
C2128 C151 1.432 . S
C2140 C453 1.327 . S
C2167 C481 1.363 . S
C2155 C154 1.500 . S
C2182 C165 1.481 . S
C2194 C418 1.341 . S
C2209 C137 1.558 . S
C2221 C432 1.457 . S
C2248 C397 1.450 . S
C2236 C140 1.562 . S
C2275 C516 1.392 1_545 S
C2263 C179 1.432 . S
C2290 C182 1.422 . S
C2302 C537 1.296 1_655 S
C2317 C196 1.527 . S
C2329 C565 1.379 . S
C2356 C586 1.453 . S
C2344 C207 1.515 . S
C2383 C600 1.392 . S
C2371 C168 1.546 . S
C2398 C193 1.514 . S
C2410 C628 1.404 . S
C2425 C210 1.572 . S
C2437 C621 1.442 . S
C2452 C235 1.542 . S
C2464 C579 1.440 . S
C2491 C607 1.391 . S
C2479 C238 1.526 . S
C2518 C544 1.278 1_655 S
C2506 C249 1.414 . S
C2545 C558 1.356 . S
C2533 C221 1.533 . S
C2560 C224 1.457 . S
C2572 C523 1.384 1_545 S
