# Generated by pormake.
# Topology zzz, (3,6)-cn, num edge types: 1
# Building blocks:
#     Node 0, Type 0, BuildingBlock: VETTIZ_charged_linker_0, # of connection points: 3
#     Node 1, Type 0, BuildingBlock: VETTIZ_charged_linker_0, # of connection points: 3
#     Node 2, Type 0, BuildingBlock: VETTIZ_charged_linker_0, # of connection points: 3
#     Node 3, Type 0, BuildingBlock: VETTIZ_charged_linker_0, # of connection points: 3
#     Node 4, Type 0, BuildingBlock: VETTIZ_charged_linker_0, # of connection points: 3
#     Node 5, Type 0, BuildingBlock: VETTIZ_charged_linker_0, # of connection points: 3
#     Node 6, Type 0, BuildingBlock: VETTIZ_charged_linker_0, # of connection points: 3
#     Node 7, Type 0, BuildingBlock: VETTIZ_charged_linker_0, # of connection points: 3
#     Node 8, Type 1, BuildingBlock: GEDQOX_clean_sbu_0, # of connection points: 6
#     Node 9, Type 1, BuildingBlock: GEDQOX_clean_sbu_0, # of connection points: 6
#     Node 10, Type 1, BuildingBlock: GEDQOX_clean_sbu_0, # of connection points: 6
#     Node 11, Type 1, BuildingBlock: GEDQOX_clean_sbu_0, # of connection points: 6
#     Edge 12, Type (0, 1), BuildingBlock: CIFDUS_clean_linker_0, # of connection points: 2
#     Edge 13, Type (0, 1), BuildingBlock: CIFDUS_clean_linker_0, # of connection points: 2
#     Edge 14, Type (0, 1), BuildingBlock: CIFDUS_clean_linker_0, # of connection points: 2
#     Edge 15, Type (0, 1), BuildingBlock: CIFDUS_clean_linker_0, # of connection points: 2
#     Edge 16, Type (0, 1), BuildingBlock: CIFDUS_clean_linker_0, # of connection points: 2
#     Edge 17, Type (0, 1), BuildingBlock: CIFDUS_clean_linker_0, # of connection points: 2
#     Edge 18, Type (0, 1), BuildingBlock: CIFDUS_clean_linker_0, # of connection points: 2
#     Edge 19, Type (0, 1), BuildingBlock: CIFDUS_clean_linker_0, # of connection points: 2
#     Edge 20, Type (0, 1), BuildingBlock: CIFDUS_clean_linker_0, # of connection points: 2
#     Edge 21, Type (0, 1), BuildingBlock: CIFDUS_clean_linker_0, # of connection points: 2
#     Edge 22, Type (0, 1), BuildingBlock: CIFDUS_clean_linker_0, # of connection points: 2
#     Edge 23, Type (0, 1), BuildingBlock: CIFDUS_clean_linker_0, # of connection points: 2
#     Edge 24, Type (0, 1), BuildingBlock: CIFDUS_clean_linker_0, # of connection points: 2
#     Edge 25, Type (0, 1), BuildingBlock: CIFDUS_clean_linker_0, # of connection points: 2
#     Edge 26, Type (0, 1), BuildingBlock: CIFDUS_clean_linker_0, # of connection points: 2
#     Edge 27, Type (0, 1), BuildingBlock: CIFDUS_clean_linker_0, # of connection points: 2
#     Edge 28, Type (0, 1), BuildingBlock: CIFDUS_clean_linker_0, # of connection points: 2
#     Edge 29, Type (0, 1), BuildingBlock: CIFDUS_clean_linker_0, # of connection points: 2
#     Edge 30, Type (0, 1), BuildingBlock: CIFDUS_clean_linker_0, # of connection points: 2
#     Edge 31, Type (0, 1), BuildingBlock: CIFDUS_clean_linker_0, # of connection points: 2
#     Edge 32, Type (0, 1), BuildingBlock: CIFDUS_clean_linker_0, # of connection points: 2
#     Edge 33, Type (0, 1), BuildingBlock: CIFDUS_clean_linker_0, # of connection points: 2
#     Edge 34, Type (0, 1), BuildingBlock: CIFDUS_clean_linker_0, # of connection points: 2
#     Edge 35, Type (0, 1), BuildingBlock: CIFDUS_clean_linker_0, # of connection points: 2
# Relax obj value: 0.317
# Max RMSD: 0.273
# Mean RMSD: 0.198
data_MOF--net-zzz--node1-GEDQOX_clean_sbu_0--node2-VETTIZ_charged_linker_0--edge1-CIFDUS_clean_linker_0
_symmetry_space_group_name_H-M    P1
_symmetry_Int_Tables_number       1
_symmetry_cell_setting            triclinic
loop_
_symmetry_equiv_pos_as_xyz
'x, y, z'
_cell_length_a     56.064156
_cell_length_b     51.916788
_cell_length_c     20.049707
_cell_angle_alpha  81.074544
_cell_angle_beta   90.335864
_cell_angle_gamma 102.48943
loop_
_atom_site_label
_atom_site_type_symbol
_atom_site_fract_x
_atom_site_fract_y
_atom_site_fract_z
_atom_type_partial_charge
C0 C 0.79786 0.4957 0.34284 0.0
C1 C 0.81859 0.48944 0.37599 0.0
C2 C 0.83067 0.4716 0.35111 0.0
C3 C 0.80343 0.46888 0.25749 0.0
C4 C 0.79038 0.48479 0.28416 0.0
C5 C 0.76859 0.48861 0.24228 0.0
H6 H 0.70444 0.47024 0.95858 0.0
C7 C 0.79269 0.46297 0.19286 0.0
C8 C 0.7719 0.47385 0.18405 0.0
H9 H 0.68584 0.50451 0.12933 0.0
H10 H 0.72285 0.49753 0.18339 0.0
H11 H 0.76321 0.50007 0.95509 0.0
H12 H 0.724 0.42112 0.04319 0.0
H13 H 0.75059 0.4186 1.00035 0.0
H14 H 0.72727 0.43189 0.95347 0.0
H15 H 0.75075 0.47506 0.90426 0.0
H16 H 0.7805 0.47697 0.94031 0.0
C17 C 0.77115 0.51889 0.21797 0.0
C18 C 0.74504 0.47508 0.28535 0.0
C19 C 0.84299 0.42898 0.03265 0.0
C20 C 0.84123 0.42671 0.96377 0.0
C21 C 0.81886 0.42829 0.93218 0.0
C22 C 0.79957 0.43432 0.96712 0.0
C23 C 0.80269 0.43897 0.03424 0.0
C24 C 0.82384 0.43529 0.06635 0.0
C25 C 0.82486 0.44206 0.13646 0.0
C26 C 0.80124 0.4515 0.14054 0.0
C27 C 0.78822 0.44969 0.08073 0.0
C28 C 0.84772 0.46488 0.1396 0.0
C29 C 0.82464 0.41611 0.18695 0.0
C30 C 0.70851 0.47643 0.00731 0.0
C31 C 0.69204 0.48767 0.04004 0.0
C32 C 0.69798 0.49538 0.10359 0.0
C33 C 0.7195 0.49134 0.13499 0.0
C34 C 0.73546 0.4795 0.10267 0.0
C35 C 0.73 0.47236 0.03976 0.0
C36 C 0.74933 0.45999 0.0136 0.0
C37 C 0.76648 0.45968 0.07266 0.0
C38 C 0.75838 0.47156 0.12421 0.0
C39 C 0.7616 0.47875 0.94969 0.0
C40 C 0.73729 0.43141 1.00145 0.0
H41 H 0.83361 0.44845 0.27516 0.0
H42 H 0.78795 0.50894 0.36171 0.0
H43 H 0.74838 0.45929 0.32636 0.0
H44 H 0.7305 0.46455 0.25543 0.0
H45 H 0.73782 0.4898 0.30952 0.0
H46 H 0.79011 0.52827 0.19878 0.0
H47 H 0.76711 0.52909 0.26 0.0
H48 H 0.75915 0.52327 0.17586 0.0
H49 H 0.85981 0.42833 0.05893 0.0
H50 H 0.81664 0.42604 0.87957 0.0
H51 H 0.78332 0.43612 0.93982 0.0
H52 H 0.85007 0.47965 0.09225 0.0
H53 H 0.8646 0.45692 0.14593 0.0
H54 H 0.84665 0.47666 0.18019 0.0
H55 H 0.81632 0.39792 0.165 0.0
H56 H 0.8133 0.41473 0.233 0.0
H57 H 0.84343 0.41445 0.20176 0.0
H58 H 0.84673 0.46656 0.37547 0.0
C59 C 0.82315 0.46123 0.29243 0.0
C60 C 0.93766 0.77749 0.05521 0.0
C61 C 0.93179 0.8012 0.06869 0.0
C62 C 0.91699 0.80042 0.1258 0.0
C63 C 0.92307 0.75649 0.16757 0.0
C64 C 0.93285 0.755 0.1058 0.0
C65 C 0.94099 0.72918 0.10689 0.0
H66 H 0.00307 0.64571 0.24379 0.0
C67 C 0.92986 0.7359 0.21803 0.0
C68 C 0.93782 0.718 0.18263 0.0
H69 H 0.94977 0.6318 0.08835 0.0
H70 H 0.92972 0.66491 0.12381 0.0
H71 H 0.0108 0.71401 0.23379 0.0
H72 H 0.95665 0.65221 0.35573 0.0
H73 H 0.97376 0.6762 0.4019 0.0
H74 H 0.98882 0.65397 0.36659 0.0
H75 H 0.01998 0.68956 0.29657 0.0
H76 H 0.00992 0.71751 0.32038 0.0
C77 C 0.96799 0.73468 0.08231 0.0
C78 C 0.924 0.71222 0.06157 0.0
C79 C 0.95645 0.76928 0.43596 0.0
C80 C 0.97519 0.76588 0.48064 0.0
C81 C 0.98831 0.74603 0.47314 0.0
C82 C 0.98265 0.73004 0.42153 0.0
C83 C 0.96432 0.73461 0.37557 0.0
C84 C 0.95193 0.75436 0.38322 0.0
C85 C 0.93554 0.75975 0.32605 0.0
C86 C 0.93887 0.73887 0.28362 0.0
C87 C 0.9556 0.72379 0.31289 0.0
C88 C 0.94506 0.78909 0.28998 0.0
C89 C 0.90903 0.75418 0.35439 0.0
C90 C 0.98774 0.65051 0.21524 0.0
C91 C 0.97928 0.63756 0.15926 0.0
C92 C 0.95801 0.64297 0.12712 0.0
C93 C 0.94692 0.66254 0.14509 0.0
C94 C 0.95775 0.67761 0.19319 0.0
C95 C 0.97614 0.67037 0.2322 0.0
C96 C 0.98029 0.68594 0.2914 0.0
C97 C 0.96143 0.7036 0.27863 0.0
C98 C 0.95005 0.69934 0.21781 0.0
C99 C 0.00671 0.70266 0.28571 0.0
C100 C 0.97469 0.66609 0.35781 0.0
H101 H 0.90158 0.77778 0.21956 0.0
H102 H 0.94826 0.77753 0.01024 0.0
H103 H 0.91903 0.72498 0.0161 0.0
H104 H 0.90679 0.70119 0.08926 0.0
H105 H 0.93316 0.69802 0.04151 0.0
H106 H 0.97992 0.748 0.1132 0.0
H107 H 0.97024 0.74423 0.02853 0.0
H108 H 0.97457 0.71588 0.08581 0.0
H109 H 0.94658 0.78491 0.43856 0.0
H110 H 0.00302 0.74308 0.50671 0.0
H111 H 0.99315 0.71529 0.41796 0.0
H112 H 0.95502 0.78988 0.24172 0.0
H113 H 0.95826 0.80145 0.3201 0.0
H114 H 0.93011 0.79998 0.28069 0.0
H115 H 0.90488 0.73539 0.39151 0.0
H116 H 0.89544 0.75142 0.31451 0.0
H117 H 0.90614 0.77074 0.38031 0.0
H118 H 0.91139 0.81825 0.13541 0.0
C119 C 0.91203 0.7776 0.175 0.0
C120 C 0.8392 0.02255 0.08282 0.0
C121 C 0.85001 0.03249 0.01761 0.0
C122 C 0.83685 0.04614 0.96928 0.0
C123 C 0.80415 0.04195 0.05116 0.0
C124 C 0.81625 0.02757 0.09852 0.0
C125 C 0.80178 0.01903 0.16495 0.0
H126 H 0.69944 0.02413 0.34361 0.0
C127 C 0.78197 0.04592 0.08359 0.0
C128 C 0.78051 0.03301 0.15113 0.0
H129 H 0.7507 0.97481 0.40649 0.0
H130 H 0.77639 0.99527 0.30552 0.0
H131 H 0.7346 0.07595 0.2964 0.0
H132 H 0.69825 0.01442 0.18826 0.0
H133 H 0.69346 0.04553 0.14829 0.0
H134 H 0.68386 0.03435 0.23412 0.0
H135 H 0.70597 0.07767 0.25814 0.0
H136 H 0.73468 0.09246 0.21281 0.0
C137 C 0.81773 0.02945 0.22215 0.0
C138 C 0.79311 0.9883 0.17556 0.0
C139 C 0.71959 0.08812 0.94678 0.0
C140 C 0.6981 0.09513 0.96721 0.0
C141 C 0.69523 0.09804 0.03528 0.0
C142 C 0.71143 0.09037 0.0835 0.0
C143 C 0.73036 0.07919 0.06383 0.0
C144 C 0.73571 0.08055 0.99624 0.0
C145 C 0.75893 0.0712 0.98597 0.0
C146 C 0.76431 0.06066 0.05869 0.0
C147 C 0.74682 0.06453 0.10329 0.0
C148 C 0.77882 0.09578 0.95448 0.0
C149 C 0.75341 0.04857 0.94245 0.0
C150 C 0.7162 0.01769 0.33556 0.0
C151 C 0.72284 0.9976 0.38177 0.0
C152 C 0.74508 0.99012 0.37078 0.0
C153 C 0.75974 1.00177 0.31192 0.0
C154 C 0.7519 0.02088 0.26382 0.0
C155 C 0.73059 0.02872 0.27736 0.0
C156 C 0.72393 0.04827 0.2215 0.0
C157 C 0.7444 0.05064 0.1704 0.0
C158 C 0.76094 0.03465 0.19471 0.0
C159 C 0.72467 0.07494 0.24832 0.0
C160 C 0.69857 0.03521 0.19646 0.0
H161 H 0.80529 0.06152 0.94656 0.0
H162 H 0.84863 0.01178 0.12111 0.0
H163 H 0.78671 0.98136 0.12742 0.0
H164 H 0.77743 0.98092 0.21146 0.0
H165 H 0.80823 0.97848 0.19349 0.0
H166 H 0.82653 0.05092 0.20712 0.0
H167 H 0.8324 0.01819 0.2337 0.0
H168 H 0.80699 0.02797 0.26906 0.0
H169 H 0.72284 0.0868 0.89436 0.0
H170 H 0.67916 0.10373 0.05279 0.0
H171 H 0.70748 0.09147 0.13498 0.0
H172 H 0.77357 0.11501 0.95809 0.0
H173 H 0.78226 0.09554 0.9001 0.0
H174 H 0.79631 0.09689 0.98117 0.0
H175 H 0.73653 0.03369 0.96174 0.0
H176 H 0.7681 0.0374 0.94325 0.0
H177 H 0.75061 0.05665 0.88905 0.0
H178 H 0.84412 0.05323 0.91821 0.0
C179 C 0.8142 0.05098 0.98572 0.0
C180 C 0.56261 0.71506 0.52748 0.0
C181 C 0.57686 0.69717 0.55889 0.0
C182 C 0.60231 0.70345 0.54462 0.0
C183 C 0.59746 0.73845 0.4559 0.0
C184 C 0.57375 0.73628 0.47659 0.0
C185 C 0.56359 0.75905 0.43772 0.0
H186 H 0.5844 0.8628 0.17043 0.0
C187 C 0.60336 0.75853 0.39615 0.0
C188 C 0.5846 0.77259 0.38647 0.0
H189 H 0.52112 0.84015 0.30641 0.0
H190 H 0.53866 0.80516 0.36969 0.0
H191 H 0.6282 0.85278 0.27066 0.0
H192 H 0.58202 0.81519 0.13462 0.0
H193 H 0.59745 0.7892 0.15896 0.0
H194 H 0.6137 0.82162 0.11678 0.0
H195 H 0.6278 0.85917 0.17987 0.0
H196 H 0.64499 0.83633 0.22272 0.0
C197 C 0.55949 0.77755 0.48769 0.0
C198 C 0.54009 0.74723 0.40285 0.0
C199 C 0.64267 0.73176 0.20374 0.0
C200 C 0.64495 0.74351 0.13514 0.0
C201 C 0.64841 0.77157 0.11957 0.0
C202 C 0.6446 0.7865 0.16961 0.0
C203 C 0.63656 0.77304 0.23432 0.0
C204 C 0.63814 0.74678 0.25256 0.0
C205 C 0.62999 0.73613 0.32484 0.0
C206 C 0.62016 0.75957 0.34315 0.0
C207 C 0.62273 0.7803 0.28818 0.0
C208 C 0.6525 0.73086 0.36522 0.0
C209 C 0.60967 0.71039 0.32818 0.0
C210 C 0.57389 0.8504 0.21329 0.0
C211 C 0.55111 0.85456 0.23229 0.0
C212 C 0.53883 0.83789 0.29025 0.0
C213 C 0.54898 0.81746 0.32703 0.0
C214 C 0.57145 0.81324 0.30524 0.0
C215 C 0.58315 0.82941 0.2483 0.0
C216 C 0.60499 0.82043 0.22561 0.0
C217 C 0.60612 0.79767 0.28219 0.0
C218 C 0.58646 0.79336 0.32941 0.0
C219 C 0.62779 0.84342 0.22425 0.0
C220 C 0.59946 0.81111 0.1557 0.0
H221 H 0.63221 0.72968 0.48585 0.0
H222 H 0.54338 0.71208 0.54034 0.0
H223 H 0.54341 0.73183 0.37333 0.0
H224 H 0.53362 0.76251 0.36721 0.0
H225 H 0.52518 0.73766 0.44077 0.0
H226 H 0.57578 0.78211 0.51925 0.0
H227 H 0.5435 0.76786 0.52202 0.0
H228 H 0.5566 0.79694 0.46203 0.0
H229 H 0.64109 0.71054 0.21839 0.0
H230 H 0.65178 0.78157 0.06787 0.0
H231 H 0.64651 0.80765 0.15569 0.0
H232 H 0.66603 0.72521 0.33307 0.0
H233 H 0.64746 0.71371 0.40667 0.0
H234 H 0.66197 0.74886 0.38615 0.0
H235 H 0.59411 0.71428 0.29641 0.0
H236 H 0.60254 0.70249 0.38032 0.0
H237 H 0.61668 0.69409 0.31069 0.0
H238 H 0.61419 0.69189 0.5721 0.0
C239 C 0.6127 0.7244 0.49396 0.0
C240 C 0.3478 0.53132 0.59386 0.0
C241 C 0.35506 0.5282 0.6618 0.0
C242 C 0.33962 0.5334 0.71141 0.0
C243 C 0.31221 0.54664 0.62563 0.0
C244 C 0.32622 0.54003 0.57725 0.0
C245 C 0.31498 0.54266 0.50856 0.0
H246 H 0.21542 0.56363 0.33509 0.0
C247 C 0.29232 0.55737 0.59142 0.0
C248 C 0.29383 0.55528 0.52262 0.0
H249 H 0.26997 0.52277 0.2808 0.0
H250 H 0.29522 0.53787 0.37273 0.0
H251 H 0.21476 0.54341 0.50191 0.0
H252 H 0.24021 0.6123 0.36321 0.0
H253 H 0.25542 0.62345 0.43538 0.0
H254 H 0.22246 0.61502 0.43336 0.0
H255 H 0.2 0.56408 0.44214 0.0
H256 H 0.20788 0.57352 0.52188 0.0
C257 C 0.30625 0.51424 0.48969 0.0
C258 C 0.33357 0.56167 0.45687 0.0
C259 C 0.22535 0.58383 0.71849 0.0
C260 C 0.20773 0.59883 0.69523 0.0
C261 C 0.21175 0.61471 0.63041 0.0
C262 C 0.2295 0.61147 0.58562 0.0
C263 C 0.2433 0.59248 0.60619 0.0
C264 C 0.24356 0.58177 0.67316 0.0
C265 C 0.26483 0.56827 0.68698 0.0
C266 C 0.27457 0.56977 0.61518 0.0
C267 C 0.26052 0.58246 0.5685 0.0
C268 C 0.2551 0.53905 0.72093 0.0
C269 C 0.28347 0.58493 0.7299 0.0
C270 C 0.23284 0.55799 0.34314 0.0
C271 C 0.24045 0.54143 0.30244 0.0
C272 C 0.26359 0.5352 0.31233 0.0
C273 C 0.27794 0.54351 0.36615 0.0
C274 C 0.26882 0.5578 0.41058 0.0
C275 C 0.24703 0.56569 0.39718 0.0
C276 C 0.23953 0.57995 0.4507 0.0
C277 C 0.25986 0.57778 0.50076 0.0
C278 C 0.27665 0.5644 0.47754 0.0
C279 C 0.2142 0.5644 0.48101 0.0
C280 C 0.23946 0.60919 0.41937 0.0
H281 H 0.30766 0.54666 0.73337 0.0
H282 H 0.35871 0.5275 0.55376 0.0
H283 H 0.34153 0.58042 0.47683 0.0
H284 H 0.32499 0.56749 0.40867 0.0
H285 H 0.34878 0.55219 0.4459 0.0
H286 H 0.30749 0.49817 0.53244 0.0
H287 H 0.31742 0.51121 0.44716 0.0
H288 H 0.28675 0.51024 0.47596 0.0
H289 H 0.22437 0.57269 0.76894 0.0
H290 H 0.20057 0.62883 0.61291 0.0
H291 H 0.23202 0.62344 0.53647 0.0
H292 H 0.23971 0.52912 0.69218 0.0
H293 H 0.24835 0.53822 0.77337 0.0
H294 H 0.26918 0.52701 0.7229 0.0
H295 H 0.2802 0.60536 0.72918 0.0
H296 H 0.30248 0.58813 0.71015 0.0
H297 H 0.28248 0.57528 0.78358 0.0
H298 H 0.34362 0.53005 0.76447 0.0
C299 C 0.31852 0.54293 0.69356 0.0
C300 C 0.09611 0.2244 0.71133 0.0
C301 C 0.10268 0.20086 0.69965 0.0
C302 C 0.116 0.20097 0.64034 0.0
C303 C 0.10756 0.2437 0.59539 0.0
C304 C 0.09878 0.24582 0.65796 0.0
C305 C 0.0894 0.27096 0.65596 0.0
H306 H 0.04578 0.37078 0.47431 0.0
C307 C 0.09958 0.26364 0.54499 0.0
C308 C 0.08957 0.28025 0.57987 0.0
H309 H 0.06378 0.35894 0.68597 0.0
H310 H 0.07737 0.3199 0.67243 0.0
H311 H 0.09209 0.35056 0.40353 0.0
H312 H 0.0222 0.30155 0.48399 0.0
H313 H 0.03011 0.29472 0.40459 0.0
H314 H 0.0239 0.32688 0.41097 0.0
H315 H 0.06359 0.35753 0.37232 0.0
H316 H 0.07528 0.3311 0.34574 0.0
C317 C 0.10801 0.29054 0.69239 0.0
C318 C 0.06315 0.26371 0.6876 0.0
C319 C 0.08571 0.23716 0.31488 0.0
C320 C 0.06952 0.24214 0.26361 0.0
C321 C 0.05732 0.26322 0.26574 0.0
C322 C 0.06103 0.2785 0.31926 0.0
C323 C 0.07619 0.27183 0.37267 0.0
C324 C 0.08803 0.25124 0.36929 0.0
C325 C 0.10083 0.2438 0.43255 0.0
C326 C 0.09472 0.26313 0.47568 0.0
C327 C 0.08076 0.28021 0.44053 0.0
C328 C 0.12858 0.2499 0.41546 0.0
C329 C 0.08971 0.2139 0.4619 0.0
C330 C 0.05276 0.35973 0.5175 0.0
C331 C 0.05467 0.36903 0.58082 0.0
C332 C 0.06323 0.35347 0.63591 0.0
C333 C 0.07106 0.33046 0.62831 0.0
C334 C 0.06974 0.32187 0.5655 0.0
C335 C 0.0605 0.33595 0.51102 0.0
C336 C 0.05968 0.32184 0.44957 0.0
C337 C 0.07296 0.29942 0.47468 0.0
C338 C 0.07783 0.2994 0.54357 0.0
C339 C 0.07337 0.3413 0.38919 0.0
C340 C 0.03257 0.3107 0.43591 0.0
H341 H 0.12808 0.22147 0.54258 0.0
H342 H 0.08639 0.22478 0.75755 0.0
H343 H 0.05199 0.24624 0.66769 0.0
H344 H 0.05319 0.27993 0.67609 0.0
H345 H 0.0635 0.25855 0.74341 0.0
H346 H 0.12534 0.28371 0.70314 0.0
H347 H 0.10043 0.29285 0.74166 0.0
H348 H 0.11362 0.31055 0.66099 0.0
H349 H 0.09487 0.22071 0.31623 0.0
H350 H 0.04471 0.26759 0.22666 0.0
H351 H 0.05158 0.29446 0.31814 0.0
H352 H 0.13419 0.26883 0.37925 0.0
H353 H 0.13351 0.23365 0.39202 0.0
H354 H 0.13983 0.25294 0.46024 0.0
H355 H 0.0753 0.20406 0.43017 0.0
H356 H 0.08039 0.21166 0.51176 0.0
H357 H 0.10376 0.20163 0.46636 0.0
H358 H 0.12187 0.18318 0.63161 0.0
C359 C 0.11888 0.2227 0.58823 0.0
C360 C 0.29985 0.01407 0.35417 0.0
C361 C 0.32027 0.00696 0.32694 0.0
C362 C 0.32869 0.98493 0.36021 0.0
C363 C 0.29936 0.97966 0.45162 0.0
C364 C 0.28943 0.99977 0.41681 0.0
C365 C 0.26763 1.00362 0.45564 0.0
H366 H 0.20363 0.97977 0.7562 0.0
C367 C 0.28736 0.97133 0.51897 0.0
C368 C 0.26839 0.98482 0.52214 0.0
H369 H 0.18488 0.0197 0.56341 0.0
H370 H 0.22076 0.01198 0.51108 0.0
H371 H 0.21943 0.92924 0.69727 0.0
H372 H 0.26054 1.00483 0.74098 0.0
H373 H 0.2791 0.98157 0.75932 0.0
H374 H 0.25072 0.97681 0.80656 0.0
H375 H 0.22161 0.93836 0.78037 0.0
H376 H 0.24482 0.9245 0.7469 0.0
C377 C 0.24425 0.99445 0.41632 0.0
C378 C 0.27197 0.03307 0.4664 0.0
C379 C 0.33272 0.92295 0.69652 0.0
C380 C 0.3328 0.92089 0.76706 0.0
C381 C 0.31264 0.9261 0.80053 0.0
C382 C 0.29385 0.93532 0.76361 0.0
C383 C 0.29552 0.9399 0.69254 0.0
C384 C 0.31457 0.93321 0.66055 0.0
C385 C 0.31565 0.94233 0.58583 0.0
C386 C 0.29445 0.95627 0.57791 0.0
C387 C 0.28227 0.95433 0.64003 0.0
C388 C 0.31068 0.91709 0.55107 0.0
C389 C 0.34083 0.96187 0.56633 0.0
C390 C 0.20695 0.98656 0.70256 0.0
C391 C 0.19118 1.00058 0.66456 0.0
C392 C 0.19676 0.00938 0.59482 0.0
C393 C 0.21748 1.00461 0.56397 0.0
C394 C 0.2329 0.99062 0.60264 0.0
C395 C 0.22744 0.98163 0.67065 0.0
C396 C 0.24584 0.96677 0.70347 0.0
C397 C 0.26213 0.96677 0.64311 0.0
C398 C 0.2549 0.98147 0.58428 0.0
C399 C 0.23233 0.93818 0.73408 0.0
C400 C 0.25976 0.98309 0.75571 0.0
H401 H 0.32604 0.95503 0.44524 0.0
H402 H 0.2927 0.03058 0.32835 0.0
H403 H 0.29021 0.03933 0.4882 0.0
H404 H 0.25833 0.03649 0.50158 0.0
H405 H 0.27137 0.04643 0.41772 0.0
H406 H 0.24677 0.97983 0.3833 0.0
H407 H 0.23913 0.0116 0.38352 0.0
H408 H 0.22855 0.98381 0.45034 0.0
H409 H 0.34812 0.91987 0.66875 0.0
H410 H 0.31211 0.92448 0.85503 0.0
H411 H 0.27941 0.9398 0.79164 0.0
H412 H 0.29687 0.90068 0.58059 0.0
H413 H 0.3276 0.90955 0.54661 0.0
H414 H 0.30281 0.92051 0.50058 0.0
H415 H 0.35023 0.96928 0.6109 0.0
H416 H 0.33917 0.9804 0.53284 0.0
H417 H 0.35346 0.95214 0.54188 0.0
H418 H 0.34406 0.97892 0.33931 0.0
C419 C 0.31827 0.97116 0.42189 0.0
C420 C 0.46054 0.29578 0.2422 0.0
C421 C 0.45239 0.31992 0.22281 0.0
C422 C 0.43392 0.32508 0.26305 0.0
C423 C 0.43303 0.2844 0.34075 0.0
C424 C 0.45044 0.27819 0.30144 0.0
C425 C 0.45671 0.25185 0.33229 0.0
H426 H 0.4382 0.14915 0.60138 0.0
C427 C 0.42712 0.26379 0.40102 0.0
C428 C 0.44036 0.24395 0.39648 0.0
H429 H 0.48706 0.15757 0.43014 0.0
H430 H 0.47448 0.19857 0.38064 0.0
H431 H 0.45335 0.20158 0.62871 0.0
H432 H 0.39234 0.16716 0.52038 0.0
H433 H 0.38184 0.18728 0.57182 0.0
H434 H 0.39587 0.16064 0.61009 0.0
H435 H 0.42409 0.18916 0.67004 0.0
H436 H 0.43408 0.22375 0.6322 0.0
C437 C 0.48409 0.25724 0.34872 0.0
C438 C 0.44967 0.23174 0.28266 0.0
C439 C 0.38776 0.28636 0.60295 0.0
C440 C 0.38667 0.27419 0.67097 0.0
C441 C 0.38568 0.24654 0.68543 0.0
C442 C 0.39033 0.23259 0.6342 0.0
C443 C 0.39645 0.24663 0.56857 0.0
C444 C 0.39336 0.27249 0.55275 0.0
C445 C 0.40169 0.28471 0.48142 0.0
C446 C 0.4127 0.26287 0.45967 0.0
C447 C 0.40968 0.2408 0.51098 0.0
C448 C 0.42127 0.31083 0.48373 0.0
C449 C 0.37875 0.28868 0.4407 0.0
C450 C 0.44592 0.15937 0.55246 0.0
C451 C 0.46325 0.14977 0.51921 0.0
C452 C 0.47355 0.1645 0.45685 0.0
C453 C 0.46621 0.18823 0.42823 0.0
C454 C 0.44876 0.19752 0.46299 0.0
C455 C 0.43915 0.18292 0.52426 0.0
C456 C 0.4223 0.19583 0.55813 0.0
C457 C 0.42233 0.22028 0.50633 0.0
C458 C 0.43782 0.22161 0.44999 0.0
C459 C 0.43381 0.20289 0.62579 0.0
C460 C 0.39671 0.17677 0.56616 0.0
H461 H 0.4103 0.31299 0.34829 0.0
H462 H 0.47448 0.2908 0.21256 0.0
H463 H 0.43087 0.23163 0.26454 0.0
H464 H 0.44968 0.21109 0.30621 0.0
H465 H 0.4624 0.23715 0.23794 0.0
H466 H 0.489 0.27484 0.37535 0.0
H467 H 0.49561 0.26143 0.30174 0.0
H468 H 0.48901 0.24041 0.38238 0.0
H469 H 0.38819 0.30749 0.58993 0.0
H470 H 0.38408 0.23647 0.73726 0.0
H471 H 0.39104 0.21204 0.64891 0.0
H472 H 0.43366 0.30803 0.52656 0.0
H473 H 0.4126 0.3276 0.49048 0.0
H474 H 0.43348 0.31725 0.43869 0.0
H475 H 0.36157 0.27621 0.46603 0.0
H476 H 0.37902 0.28239 0.39034 0.0
H477 H 0.37692 0.30979 0.43414 0.0
H478 H 0.42756 0.34349 0.25227 0.0
C479 C 0.42398 0.30737 0.3203 0.0
Nd480 Nd 0.01222 0.99428 0.82625 0.0
Nd481 Nd 0.02965 1.00632 0.95526 0.0
C482 C 0.99089 0.97028 0.72678 0.0
C483 C 0.98799 0.94317 0.70757 0.0
C484 C 0.97273 0.92061 0.74556 0.0
C485 C 0.97006 0.8953 0.7265 0.0
C486 C 0.98255 0.89175 0.66899 0.0
C487 C 0.99803 0.91428 0.63151 0.0
C488 C 1.00064 0.93964 0.65042 0.0
C489 C 0.06245 1.00303 0.83101 0.0
C490 C 0.01379 0.94521 0.95082 0.0
C491 C 0.05187 0.03089 0.05283 0.0
C492 C 0.05569 0.05848 0.06834 0.0
C493 C 0.07464 0.06774 0.1103 0.0
C494 C 0.07851 0.09377 0.12539 0.0
C495 C 0.06351 0.11126 0.09883 0.0
C496 C 0.04444 0.10185 0.0568 0.0
C497 C 0.04063 0.07577 0.04153 0.0
C498 C 0.97949 0.99733 0.95061 0.0
C499 C 0.02687 0.05521 0.83163 0.0
O500 O 0.97909 0.97244 0.781 0.0
O501 O 0.01292 0.98529 0.72141 0.0
O502 O 0.05053 0.0136 0.78268 0.0
O503 O 0.04788 0.98885 0.87742 0.0
O504 O 0.0034 0.95384 0.89533 0.0
O505 O 0.02903 0.96195 0.98246 0.0
O506 O 0.06339 0.02777 0.99921 0.0
O507 O 0.02944 0.01692 0.05828 0.0
O508 O 0.9914 0.98719 0.99966 0.0
O509 O 0.99401 0.0116 0.90424 0.0
O510 O 0.03811 0.04671 0.8856 0.0
O511 O 0.01138 0.03827 0.80128 0.0
H512 H 0.96274 0.92244 0.79002 0.0
H513 H 0.9581 0.87845 0.75687 0.0
H514 H 0.00765 0.91247 0.58636 0.0
H515 H 0.01244 0.9566 0.61989 0.0
H516 H 0.08645 0.05479 0.13165 0.0
H517 H 0.09315 0.1001 0.15872 0.0
H518 H 0.03269 0.11477 0.03492 0.0
H519 H 0.02594 0.06912 0.00862 0.0
Nd520 Nd 0.52493 0.98679 0.80373 0.0
Nd521 Nd 0.51199 0.02184 0.89851 0.0
C522 C 0.53764 0.95254 0.73266 0.0
C523 C 0.56009 0.95275 0.69411 0.0
C524 C 0.56088 0.93224 0.65682 0.0
C525 C 0.58173 0.93304 0.61762 0.0
C526 C 0.60227 0.9544 0.61492 0.0
C527 C 0.60159 0.97457 0.65397 0.0
C528 C 0.58069 0.97378 0.69296 0.0
C529 C 0.51908 0.03608 0.74088 0.0
C530 C 0.56897 0.03084 0.8488 0.0
C531 C 0.49959 0.05761 0.96473 0.0
C532 C 0.47744 0.05755 1.00423 0.0
C533 C 0.47508 0.08023 0.03127 0.0
C534 C 0.45425 0.07982 0.07016 0.0
C535 C 0.43531 0.05671 0.08245 0.0
C536 C 0.43763 0.03419 0.05401 0.0
C537 C 0.4585 0.0346 0.01554 0.0
C538 C 0.51847 0.97284 0.96283 0.0
C539 C 0.46791 0.97697 0.85756 0.0
O540 O 0.53955 0.95068 0.79811 0.0
O541 O 0.52516 0.97022 0.70803 0.0
O542 O 0.53668 0.02516 0.72632 0.0
O543 O 0.5053 0.02114 0.78748 0.0
O544 O 0.56302 0.00693 0.83115 0.0
O545 O 0.55212 0.04261 0.86845 0.0
O546 O 0.49681 0.05789 0.89984 0.0
O547 O 0.51275 0.0408 0.99065 0.0
O548 O 0.50192 0.98458 0.98086 0.0
O549 O 0.53153 0.98744 0.91431 0.0
O550 O 0.47392 1.00061 0.87637 0.0
O551 O 0.48455 0.96578 0.83395 0.0
H552 H 0.54523 0.91578 0.65722 0.0
H553 H 0.58167 0.91702 0.58881 0.0
H554 H 0.61686 0.99149 0.6525 0.0
H555 H 0.58043 0.9899 0.72118 0.0
H556 H 0.48946 0.09817 0.02288 0.0
H557 H 0.45301 0.09756 0.09088 0.0
H558 H 0.42368 0.01592 0.0633 0.0
H559 H 0.46005 0.01681 0.99547 0.0
Nd560 Nd 0.51243 0.51885 0.92802 0.0
Nd561 Nd 0.52771 0.48939 0.83138 0.0
C562 C 0.50187 0.55529 0.9934 0.0
C563 C 0.51882 0.58011 0.00565 0.0
C564 C 0.5288 0.60016 0.95139 0.0
C565 C 0.54892 0.62037 0.96058 0.0
C566 C 0.55948 0.62089 0.02413 0.0
C567 C 0.54858 0.60185 0.07919 0.0
C568 C 0.5284 0.58173 0.07008 0.0
C569 C 0.55613 0.50456 0.95894 0.0
C570 C 0.54172 0.55206 0.78818 0.0
C571 C 0.54065 0.45185 0.77525 0.0
C572 C 0.52612 0.42433 0.77675 0.0
C573 C 0.52287 0.40579 0.83712 0.0
C574 C 0.50466 0.38237 0.843 0.0
C575 C 0.48932 0.37727 0.78894 0.0
C576 C 0.49352 0.39488 0.72748 0.0
C577 C 0.51188 0.41807 0.72125 0.0
C578 C 0.48319 0.50207 0.80239 0.0
C579 C 0.4952 0.45625 0.96527 0.0
O580 O 0.49579 0.55379 0.9308 0.0
O581 O 0.50708 0.53319 0.02425 0.0
O582 O 0.53863 0.50277 1.00205 0.0
O583 O 0.55076 0.51418 0.90041 0.0
O584 O 0.52507 0.55136 0.83495 0.0
O585 O 0.54975 0.53038 0.78276 0.0
O586 O 0.54918 0.45807 0.83289 0.0
O587 O 0.53131 0.47066 0.74094 0.0
O588 O 0.49954 0.5023 0.75694 0.0
O589 O 0.48968 0.49378 0.86052 0.0
O590 O 0.51347 0.45684 0.92366 0.0
O591 O 0.48722 0.47824 0.96764 0.0
H592 H 0.52188 0.59959 0.90103 0.0
H593 H 0.55684 0.63488 0.91734 0.0
H594 H 0.55596 0.6022 0.12918 0.0
H595 H 0.52108 0.56662 0.11281 0.0
H596 H 0.5335 0.40994 0.88099 0.0
H597 H 0.50187 0.36885 0.89061 0.0
H598 H 0.48224 0.39095 0.68456 0.0
H599 H 0.514 0.43184 0.67409 0.0
Nd600 Nd 0.00998 0.53153 0.79321 0.0
Nd601 Nd 0.03806 0.49325 0.90459 0.0
C602 C 0.97999 0.56194 0.74473 0.0
C603 C 0.95564 0.55581 0.71465 0.0
C604 C 0.93587 0.53794 0.75128 0.0
C605 C 0.9139 0.52952 0.71985 0.0
C606 C 0.91122 0.53854 0.65102 0.0
C607 C 0.93051 0.55752 0.61538 0.0
C608 C 0.95249 0.5661 0.64698 0.0
C609 C 0.02381 0.49051 0.73958 0.0
C610 C 0.97968 0.47318 0.87467 0.0
C611 C 0.06666 0.46273 0.9622 0.0
C612 C 0.08594 0.4672 0.01212 0.0
C613 C 0.10802 0.45925 0.00438 0.0
C614 C 0.12717 0.46555 0.04841 0.0
C615 C 0.12444 0.47982 0.10105 0.0
C616 C 0.10222 0.4876 0.10867 0.0
C617 C 0.08323 0.48145 0.06462 0.0
C618 C 0.02444 0.5343 0.95866 0.0
C619 C 0.06886 0.54949 0.81131 0.0
O620 O 0.98108 0.55301 0.80936 0.0
O621 O 0.99847 0.5589 0.70892 0.0
O622 O 0.01273 0.50749 0.70455 0.0
O623 O 0.02627 0.49615 0.79827 0.0
O624 O 0.97937 0.49709 0.84056 0.0
O625 O 0.99981 0.46607 0.89923 0.0
O626 O 0.07173 0.47752 0.90272 0.0
O627 O 0.04413 0.46073 0.98376 0.0
O628 O 0.03441 0.51646 0.99396 0.0
O629 O 0.02216 0.52891 0.89971 0.0
O630 O 0.06895 0.52628 0.84994 0.0
O631 O 0.0488 0.55715 0.78859 0.0
H632 H 0.93755 0.52966 0.80366 0.0
H633 H 0.89921 0.51531 0.74896 0.0
H634 H 0.92912 0.5647 0.56213 0.0
H635 H 0.9674 0.57992 0.61769 0.0
H636 H 0.11058 0.44853 0.96365 0.0
H637 H 0.14405 0.45922 0.04146 0.0
H638 H 0.09969 0.49904 0.14787 0.0
H639 H 0.06659 0.48832 0.07096 0.0
H640 H 0.16047 0.96902 0.76714 0.0
H641 H 0.17191 0.04513 0.63549 0.0
H642 H 0.13416 0.05302 0.6787 0.0
H643 H 0.0965 0.03741 0.74821 0.0
H644 H 0.08513 0.96263 0.88397 0.0
H645 H 0.12456 0.95559 0.84654 0.0
C646 C 0.15501 0.98756 0.74859 0.0
C647 C 0.16902 1.00612 0.69657 0.0
C648 C 0.13325 0.99231 0.77468 0.0
C649 C 0.16131 0.02997 0.67357 0.0
C650 C 0.13975 0.03469 0.6988 0.0
C651 C 0.10283 0.01974 0.77037 0.0
C652 C 0.08786 1.0005 0.8185 0.0
C653 C 0.12536 0.01582 0.74836 0.0
C654 C 0.09635 0.9778 0.84709 0.0
C655 C 0.11881 0.97369 0.82522 0.0
H656 H 0.50932 0.14023 0.54021 0.0
H657 H 0.43285 0.10332 0.57507 0.0
H658 H 0.44318 0.06573 0.64925 0.0
H659 H 0.47378 0.04419 0.70969 0.0
H660 H 0.55033 0.0788 0.66987 0.0
H661 H 0.54027 0.11633 0.59313 0.0
C662 C 0.49498 0.12366 0.56285 0.0
C663 C 0.47033 0.12482 0.55257 0.0
C664 C 0.50106 0.10187 0.60583 0.0
C665 C 0.45197 0.10317 0.58274 0.0
C666 C 0.45784 0.08165 0.62547 0.0
C667 C 0.48822 0.06004 0.68441 0.0
C668 C 0.51274 0.05902 0.69621 0.0
C669 C 0.48228 0.08106 0.63869 0.0
C670 C 0.5313 0.07934 0.66196 0.0
C671 C 0.52555 0.10073 0.61787 0.0
H672 H 0.3839 0.53944 0.76991 0.0
H673 H 0.38002 0.498 0.59733 0.0
H674 H 0.41963 0.48789 0.62327 0.0
H675 H 0.45579 0.49078 0.69473 0.0
H676 H 0.45618 0.52521 0.87698 0.0
H677 H 0.41703 0.53721 0.84867 0.0
C678 C 0.39113 0.52757 0.7385 0.0
C679 C 0.37864 0.52005 0.68073 0.0
C680 C 0.41342 0.52044 0.75565 0.0
C681 C 0.38919 0.50513 0.64067 0.0
C682 C 0.41187 0.49895 0.65592 0.0
C683 C 0.44718 0.50084 0.7282 0.0
C684 C 0.45889 0.50755 0.78721 0.0
C685 C 0.42423 0.50667 0.71297 0.0
C686 C 0.44749 0.52007 0.83104 0.0
C687 C 0.42516 0.52693 0.81481 0.0
H688 H 0.07727 0.40427 0.66079 0.0
H689 H 0.01644 0.39107 0.52811 0.0
H690 H 0.00227 0.42872 0.56252 0.0
H691 H 0.00538 0.46306 0.63837 0.0
H692 H 0.0637 0.47147 0.77961 0.0
H693 H 0.08007 0.4372 0.73613 0.0
C694 C 0.06069 0.40927 0.6397 0.0
C695 C 0.0477 0.39429 0.59277 0.0
C696 C 0.05194 0.4298 0.66255 0.0
C697 C 0.0269 0.40211 0.56413 0.0
C698 C 0.01862 0.42347 0.58449 0.0
C699 C 0.02166 0.4573 0.65947 0.0
C700 C 0.03321 0.46948 0.71288 0.0
C701 C 0.03067 0.43705 0.63494 0.0
C702 C 0.05425 0.46194 0.73976 0.0
C703 C 0.06372 0.44255 0.71436 0.0
H704 H 0.87106 0.98914 0.05106 0.0
H705 H 0.88565 0.06966 0.94202 0.0
H706 H 0.92563 0.06508 0.90544 0.0
H707 H 0.95744 0.03876 0.90657 0.0
H708 H 0.94416 0.95949 0.02154 0.0
H709 H 0.90299 0.96292 0.05292 0.0
C710 C 0.88304 1.00576 0.01977 0.0
C711 C 0.87503 0.0296 0.99895 0.0
C712 C 0.90635 1.00315 0.99928 0.0
C713 C 0.89094 0.05083 0.9579 0.0
C714 C 0.91396 0.0483 0.93702 0.0
C715 C 0.94534 0.02212 0.93748 0.0
C716 C 0.9537 0.9988 0.9611 0.0
C717 C 0.9219 0.02456 0.95719 0.0
C718 C 0.93804 0.97759 1.0024 0.0
C719 C 0.91454 0.9796 0.0207 0.0
H720 H 0.55704 0.87189 0.09556 0.0
H721 H 0.52066 0.8853 0.27238 0.0
H722 H 0.50571 0.92142 0.20375 0.0
H723 H 0.50511 0.95128 0.09429 0.0
H724 H 0.54707 0.94142 0.9242 0.0
H725 H 0.55835 0.90246 0.99003 0.0
C726 C 0.54635 0.88294 0.12023 0.0
C727 C 0.5405 0.8758 0.19014 0.0
C728 C 0.53887 0.90459 0.08133 0.0
C729 C 0.52548 0.88991 0.21901 0.0
C730 C 0.51707 0.91085 0.17977 0.0
C731 C 0.51662 0.94048 0.07163 0.0
C732 C 0.52493 0.94903 1.00379 0.0
C733 C 0.52394 0.91864 0.11101 0.0
C734 C 0.54014 0.93509 0.97565 0.0
C735 C 0.54667 0.91284 0.01349 0.0
H736 H 0.64797 0.4739 0.10411 0.0
H737 H 0.68259 0.50753 0.9094 0.0
H738 H 0.64329 0.51483 0.86468 0.0
H739 H 0.59909 0.51377 0.88379 0.0
H740 H 0.56605 0.48039 0.08106 0.0
H741 H 0.60463 0.47109 0.12179 0.0
C742 C 0.64697 0.48294 0.0519 0.0
C743 C 0.6682 0.49052 0.01044 0.0
C744 C 0.62453 0.48725 0.02704 0.0
C745 C 0.66647 0.50153 0.94239 0.0
C746 C 0.64403 0.50583 0.91695 0.0
C747 C 0.60042 0.50436 0.93547 0.0
C748 C 0.57978 0.49806 0.9795 0.0
C749 C 0.62294 0.4991 0.95914 0.0
C750 C 0.58168 0.48572 0.04627 0.0
C751 C 0.60375 0.48032 0.06975 0.0
H752 H 0.98795 0.63411 0.02834 0.0
H753 H 0.99814 0.59721 0.23147 0.0
H754 H 0.01366 0.56238 0.18686 0.0
H755 H 0.0218 0.54089 0.0899 0.0
H756 H 0.01104 0.57792 0.88752 0.0
H757 H 0.99758 0.61388 0.93204 0.0
C758 C 0.99353 0.61842 0.06304 0.0
C759 C 0.99158 0.61813 0.13334 0.0
C760 C 0.00188 0.59824 0.03706 0.0
C761 C 0.99951 0.59803 0.17729 0.0
C762 C 0.00816 0.57797 0.15174 0.0
C763 C 0.01649 0.55685 0.0556 0.0
C764 C 0.01676 0.55639 0.98543 0.0
C765 C 0.00901 0.57761 0.08175 0.0
C766 C 0.01019 0.57736 0.94161 0.0
C767 C 0.00277 0.59807 0.96711 0.0
H768 H 0.07023 0.16423 0.6487 0.0
H769 H 0.1048 0.18125 0.83423 0.0
H770 H 0.08157 0.13818 0.89396 0.0
H771 H 0.05354 0.09508 0.8903 0.0
H772 H 0.0191 0.07841 0.70371 0.0
H773 H 0.03978 0.12272 0.64719 0.0
C774 C 0.07278 0.15831 0.70216 0.0
C775 C 0.08961 0.17516 0.7371 0.0
C776 C 0.05923 0.13401 0.73562 0.0
C777 C 0.09227 0.16808 0.80658 0.0
C778 C 0.07894 0.14367 0.84046 0.0
C779 C 0.05029 0.10123 0.83743 0.0
C780 C 0.03505 0.0834 0.80088 0.0
C781 C 0.06262 0.12638 0.80513 0.0
C782 C 0.03074 0.09178 0.73282 0.0
C783 C 0.04274 0.11697 0.70039 0.0
H784 H 0.35373 0.95083 0.85944 0.0
H785 H 0.36535 0.88953 0.74869 0.0
H786 H 0.40893 0.89976 0.77248 0.0
H787 H 0.44461 0.93167 0.80793 0.0
H788 H 0.43154 0.99287 0.91776 0.0
H789 H 0.38789 0.97685 0.9118 0.0
C790 C 0.36551 0.93889 0.84277 0.0
C791 C 0.3563 0.9198 0.80123 0.0
C792 C 0.39058 0.94534 0.85504 0.0
C793 C 0.37204 0.90469 0.77986 0.0
C794 C 0.39703 0.91067 0.79299 0.0
C795 C 0.4322 0.94118 0.83147 0.0
C796 C 0.44153 0.96391 0.86155 0.0
C797 C 0.40672 0.93194 0.82757 0.0
C798 C 0.42509 0.97572 0.89277 0.0
C799 C 0.39996 0.96653 0.8897 0.0
H800 H 0.42143 0.26836 0.7623 0.0
H801 H 0.37267 0.32004 0.69174 0.0
H802 H 0.39988 0.35722 0.73365 0.0
H803 H 0.44183 0.37676 0.76404 0.0
H804 H 0.49117 0.32522 0.82865 0.0
H805 H 0.45926 0.28601 0.816 0.0
C806 C 0.41603 0.28736 0.75891 0.0
C807 C 0.39536 0.29162 0.7222 0.0
C808 C 0.43232 0.30885 0.78014 0.0
C809 C 0.38872 0.3164 0.7187 0.0
C810 C 0.40444 0.33774 0.74187 0.0
C811 C 0.44532 0.35684 0.77669 0.0
C812 C 0.46884 0.35371 0.79554 0.0
C813 C 0.42705 0.33455 0.76821 0.0
C814 C 0.47321 0.32797 0.81336 0.0
C815 C 0.455 0.30562 0.80595 0.0
H816 H 0.16369 0.60562 0.64372 0.0
H817 H 0.19706 0.58328 0.83312 0.0
H818 H 0.15671 0.56739 0.88717 0.0
H819 H 0.11182 0.55505 0.87696 0.0
H820 H 0.07949 0.58127 0.6898 0.0
H821 H 0.11999 0.6017 0.63957 0.0
C822 C 0.16268 0.59835 0.69742 0.0
C823 C 0.18392 0.59517 0.73313 0.0
C824 C 0.13946 0.58985 0.72884 0.0
C825 C 0.18132 0.58514 0.80284 0.0
C826 C 0.15814 0.57619 0.83426 0.0
C827 C 0.11369 0.56571 0.82559 0.0
C828 C 0.09278 0.56633 0.78671 0.0
C829 C 0.13707 0.57756 0.79706 0.0
C830 C 0.09532 0.58051 0.72068 0.0
C831 C 0.11848 0.59203 0.69179 0.0
H832 H 0.96115 0.83815 0.12829 0.0
H833 H 0.93576 0.82076 0.93339 0.0
H834 H 0.96199 0.86287 0.87873 0.0
H835 H 0.99038 0.90516 0.88775 0.0
H836 H 0.01555 0.92265 0.08309 0.0
H837 H 0.99171 0.87917 0.13657 0.0
C838 C 0.96114 0.84385 0.07385 0.0
C839 C 0.94609 0.82703 0.03469 0.0
C840 C 0.9765 0.86763 0.04317 0.0
C841 C 0.94686 0.83385 0.96422 0.0
C842 C 0.96193 0.85772 0.93318 0.0
C843 C 0.99089 0.89935 0.942 0.0
C844 C 0.00447 0.91717 0.98162 0.0
C845 C 0.97665 0.87481 0.9723 0.0
C846 C 0.00532 0.90923 0.05157 0.0
C847 C 0.99145 0.88456 0.08217 0.0
H848 H 0.6819 0.05805 0.8872 0.0
H849 H 0.66481 0.12746 0.95271 0.0
H850 H 0.62293 0.11485 0.91501 0.0
H851 H 0.5897 0.0799 0.88184 0.0
H852 H 0.60762 0.01035 0.81837 0.0
H853 H 0.65061 0.02749 0.83609 0.0
C854 C 0.66938 0.07108 0.89082 0.0
C855 C 0.67639 0.0934 0.92387 0.0
C856 C 0.64521 0.06331 0.8709 0.0
C857 C 0.65974 0.10989 0.92845 0.0
C858 C 0.63574 0.10259 0.90735 0.0
C859 C 0.60305 0.06869 0.87097 0.0
C860 C 0.59527 0.04355 0.85048 0.0
C861 C 0.62795 0.07858 0.88174 0.0
C862 C 0.61291 0.02954 0.83541 0.0
C863 C 0.63761 0.03933 0.84539 0.0
H864 H 0.6519 0.69314 0.12882 0.0
H865 H 0.61771 0.75432 0.02443 0.0
H866 H 0.5902 0.72119 0.97137 0.0
H867 H 0.56929 0.67417 0.97663 0.0
H868 H 0.60013 0.6126 0.0919 0.0
H869 H 0.63455 0.64628 0.12097 0.0
C870 C 0.63868 0.69934 0.09367 0.0
C871 C 0.63643 0.72615 0.08314 0.0
C872 C 0.62148 0.67986 0.06739 0.0
C873 C 0.61998 0.73391 0.03457 0.0
C874 C 0.60376 0.71481 0.00495 0.0
C875 C 0.58383 0.66812 0.00684 0.0
C876 C 0.5819 0.64104 0.03345 0.0
C877 C 0.60328 0.68761 0.02462 0.0
C878 C 0.6009 0.63343 0.0724 0.0
C879 C 0.62067 0.65265 0.0886 0.0
H880 H 0.88037 0.40431 1.0026 0.0
H881 H 0.85403 0.45267 0.83506 0.0
H882 H 0.89505 0.46685 0.78567 0.0
H883 H 0.9389 0.47395 0.80283 0.0
H884 H 0.96636 0.43036 0.97656 0.0
H885 H 0.92457 0.40647 0.01124 0.0
C886 C 0.88351 0.4178 0.95494 0.0
C887 C 0.86404 0.42801 0.92408 0.0
C888 C 0.90754 0.42747 0.92886 0.0
C889 C 0.86841 0.44444 0.86066 0.0
C890 C 0.89206 0.45302 0.83269 0.0
C891 C 0.93583 0.45893 0.84784 0.0
C892 C 0.95564 0.45444 0.88813 0.0
C893 C 0.91184 0.446 0.86847 0.0
C894 C 0.95141 0.4344 0.9451 0.0
C895 C 0.9275 0.42084 0.96508 0.0
H896 H 0.10165 0.22309 0.19401 0.0
H897 H 0.02451 0.21642 0.22655 0.0
H898 H 0.01549 0.17625 0.17264 0.0
H899 H 0.02993 0.13946 0.13086 0.0
H900 H 0.10742 0.14597 0.10333 0.0
H901 H 0.11584 0.18927 0.14166 0.0
C902 C 0.08282 0.21315 0.18807 0.0
C903 C 0.06381 0.22274 0.21475 0.0
C904 C 0.07784 0.18952 0.15943 0.0
C905 C 0.03952 0.20972 0.20602 0.0
C906 C 0.03437 0.18647 0.17603 0.0
C907 C 0.04863 0.15056 0.13212 0.0
C908 C 0.06803 0.13907 0.11531 0.0
C909 C 0.05343 0.17561 0.15479 0.0
C910 C 0.09214 0.15387 0.11747 0.0
C911 C 0.09699 0.17878 0.13899 0.0
H912 H 0.36121 0.04494 0.32622 0.0
H913 H 0.31279 1.00122 0.19533 0.0
H914 H 0.3439 0.01518 0.1037 0.0
H915 H 0.38699 0.03426 0.06738 0.0
H916 H 0.43592 0.07573 0.20219 0.0
H917 H 0.40259 0.06863 0.28511 0.0
C918 C 0.35719 0.03946 0.27662 0.0
C919 C 0.33465 0.02256 0.26681 0.0
C920 C 0.37552 0.04668 0.2254 0.0
C921 C 0.3298 0.01478 0.20326 0.0
C922 C 0.34775 0.02242 0.15136 0.0
C923 C 0.3903 0.04195 0.11466 0.0
C924 C 0.41408 0.05529 0.1286 0.0
C925 C 0.37104 0.03743 0.16284 0.0
C926 C 0.41788 0.06553 0.18971 0.0
C927 C 0.39881 0.06134 0.23748 0.0
H928 H 0.42992 0.35436 0.14045 0.0
H929 H 0.50008 0.33343 0.17206 0.0
H930 H 0.51905 0.37251 0.09038 0.0
H931 H 0.51649 0.41547 0.01923 0.0
H932 H 0.4473 0.43926 0.00452 0.0
H933 H 0.42742 0.39691 0.07298 0.0
C934 C 0.44948 0.35837 0.13084 0.0
C935 C 0.46351 0.34097 0.16448 0.0
C936 C 0.46056 0.38187 0.08767 0.0
C937 C 0.48861 0.34615 0.14747 0.0
C938 C 0.49959 0.3688 0.10128 0.0
C939 C 0.49704 0.4113 0.03104 0.0
C940 C 0.48337 0.43055 0.00716 0.0
C941 C 0.48588 0.38724 0.07265 0.0
C942 C 0.45825 0.42495 0.02293 0.0
C943 C 0.44687 0.40066 0.06173 0.0
H944 H 0.1943 0.51472 0.33314 0.0
H945 H 0.24721 0.53895 0.16792 0.0
H946 H 0.21622 0.52033 0.09082 0.0
H947 H 0.17309 0.49993 0.06987 0.0
H948 H 0.12094 0.47594 0.23754 0.0
H949 H 0.15262 0.49188 0.31428 0.0
C950 C 0.19904 0.51592 0.28016 0.0
C951 C 0.22281 0.52854 0.25579 0.0
C952 C 0.18123 0.50535 0.23669 0.0
C953 C 0.22896 0.52941 0.18758 0.0
C954 C 0.21123 0.51886 0.14362 0.0
C955 C 0.16879 0.49783 0.12337 0.0
C956 C 0.14459 0.48706 0.1478 0.0
C957 C 0.18718 0.50714 0.16747 0.0
C958 C 0.13928 0.4846 0.21723 0.0
C959 C 0.1574 0.49362 0.26122 0.0
H960 H 0.94471 0.78199 0.56243 0.0
H961 H 0.02075 0.79458 0.50446 0.0
H962 H 0.03023 0.83397 0.56139 0.0
H963 H 0.01597 0.86771 0.61684 0.0
H964 H 0.93927 0.8555 0.66879 0.0
H965 H 0.93107 0.81336 0.62504 0.0
C966 C 0.96345 0.7931 0.56323 0.0
C967 C 0.98197 0.78538 0.52882 0.0
C968 C 0.9686 0.81615 0.59412 0.0
C969 C 0.00617 0.79985 0.53099 0.0
C970 C 0.01153 0.82263 0.56278 0.0
C971 C 0.99747 0.85581 0.61872 0.0
C972 C 0.97828 0.86503 0.64605 0.0
C973 C 0.99275 0.83149 0.59261 0.0
C974 C 0.95449 0.84898 0.64892 0.0
C975 C 0.94972 0.82485 0.62349 0.0
H976 H 0.67716 0.96964 0.37047 0.0
H977 H 0.72854 0.99726 0.51792 0.0
H978 H 0.69579 0.98471 0.60558 0.0
H979 H 0.65148 0.97029 0.63657 0.0
H980 H 0.60059 0.94417 0.48557 0.0
H981 H 0.6341 0.95146 0.40342 0.0
C982 C 0.68126 0.97224 0.42229 0.0
C983 C 0.70519 0.9842 0.438 0.0
C984 C 0.6623 0.96559 0.47155 0.0
C985 C 0.71032 0.98775 0.50498 0.0
C986 C 0.69152 0.98087 0.55478 0.0
C987 C 0.64777 0.96606 0.58579 0.0
C988 C 0.6234 0.95674 0.56749 0.0
C989 C 0.66726 0.97054 0.53813 0.0
C990 C 0.61904 0.95104 0.50159 0.0
C991 C 0.63823 0.95537 0.45427 0.0
H992 H 0.58925 0.64913 0.56399 0.0
H993 H 0.54007 0.68746 0.65696 0.0
H994 H 0.5248 0.64596 0.73552 0.0
H995 H 0.52634 0.59911 0.77955 0.0
H996 H 0.57682 0.56194 0.68767 0.0
H997 H 0.59097 0.60296 0.60772 0.0
C998 C 0.57535 0.64864 0.60187 0.0
C999 C 0.5661 0.67169 0.60489 0.0
C1000 C 0.56702 0.62492 0.64741 0.0
C1001 C 0.54752 0.67016 0.65307 0.0
C1002 C 0.53891 0.64644 0.69837 0.0
C1003 C 0.54057 0.59998 0.74241 0.0
C1004 C 0.55061 0.57734 0.74025 0.0
C1005 C 0.5487 0.62376 0.69639 0.0
C1006 C 0.5688 0.57892 0.69095 0.0
C1007 C 0.57688 0.6024 0.64504 0.0
H1008 H 0.83303 0.46618 0.49513 0.0
H1009 H 0.82912 0.5428 0.38229 0.0
H1010 H 0.85579 0.56536 0.46258 0.0
H1011 H 0.88468 0.56291 0.55573 0.0
H1012 H 0.88962 0.48573 0.66426 0.0
H1013 H 0.85801 0.46386 0.59548 0.0
C1014 C 0.83766 0.48783 0.48899 0.0
C1015 C 0.82939 0.50283 0.43266 0.0
C1016 C 0.85346 0.50057 0.53416 0.0
C1017 C 0.8352 0.53085 0.42551 0.0
C1018 C 0.85067 0.54373 0.47096 0.0
C1019 C 0.87863 0.54133 0.56466 0.0
C1020 C 0.88964 0.52601 0.61486 0.0
C1021 C 0.86066 0.52876 0.52397 0.0
C1022 C 0.88134 0.49807 0.62654 0.0
C1023 C 0.86337 0.48548 0.58682 0.0
loop_
_geom_bond_atom_site_label_1
_geom_bond_atom_site_label_2
_geom_bond_distance
_geom_bond_site_symmetry_2
_ccdc_geom_bond_type
C0 C1 1.391 . S
C0 C4 1.391 . S
C0 H42 0.948 . S
C1 C0 1.391 . S
C1 C2 1.391 . S
C2 C1 1.391 . S
C2 H58 0.947 . S
C2 C59 1.392 . S
C3 C4 1.391 . S
C3 C7 1.397 . S
C3 C59 1.419 . S
C4 C0 1.391 . S
C4 C3 1.391 . S
C4 C5 1.399 . S
C5 C4 1.399 . S
C5 C8 1.396 . S
C5 C17 1.453 . S
C5 C18 1.684 . S
H6 C30 0.948 . S
C7 C3 1.397 . S
C7 C8 1.394 . S
C7 C26 1.723 . S
C8 C5 1.396 . S
C8 C7 1.394 . S
C8 C38 1.723 . S
H9 C32 0.947 . S
H10 C33 0.948 . S
H11 C39 0.982 . S
H12 C40 0.979 . S
H13 C40 0.980 . S
H14 C40 0.983 . S
H15 C39 0.979 . S
H16 C39 0.977 . S
C17 C5 1.453 . S
C17 H46 0.982 . S
C17 H47 0.979 . S
C17 H48 0.977 . S
C18 C5 1.684 . S
C18 H43 0.979 . S
C18 H44 0.980 . S
C18 H45 0.983 . S
C19 C20 1.391 . S
C19 C24 1.391 . S
C19 H49 0.948 . S
C20 C19 1.391 . S
C20 C21 1.391 . S
C21 C20 1.391 . S
C21 C22 1.392 . S
C21 H50 0.947 . S
C22 C21 1.392 . S
C22 C23 1.419 . S
C22 H51 0.948 . S
C23 C22 1.419 . S
C23 C24 1.391 . S
C23 C27 1.397 1_556 S
C24 C19 1.391 . S
C24 C23 1.391 . S
C24 C25 1.399 1_556 S
C25 C24 1.399 1_554 S
C25 C26 1.396 . S
C25 C28 1.453 . S
C25 C29 1.684 . S
C26 C7 1.723 . S
C26 C25 1.396 . S
C26 C27 1.394 . S
C27 C23 1.397 1_554 S
C27 C26 1.394 . S
C27 C37 1.723 . S
C28 C25 1.453 . S
C28 H52 0.982 . S
C28 H53 0.979 . S
C28 H54 0.977 . S
C29 C25 1.684 . S
C29 H55 0.979 . S
C29 H56 0.980 . S
C29 H57 0.983 . S
C30 H6 0.948 . S
C30 C31 1.391 1_556 S
C30 C35 1.391 1_556 S
C31 C30 1.391 1_554 S
C31 C32 1.391 . S
C32 H9 0.947 . S
C32 C31 1.391 . S
C32 C33 1.392 . S
C33 H10 0.948 . S
C33 C32 1.392 . S
C33 C34 1.419 . S
C34 C33 1.419 . S
C34 C35 1.391 . S
C34 C38 1.397 . S
C35 C30 1.391 1_554 S
C35 C34 1.391 . S
C35 C36 1.399 1_554 S
C36 C35 1.399 1_556 S
C36 C37 1.396 1_556 S
C36 C39 1.453 . S
C36 C40 1.684 . S
C37 C27 1.723 . S
C37 C36 1.396 1_554 S
C37 C38 1.394 . S
C38 C8 1.723 . S
C38 C34 1.397 . S
C38 C37 1.394 . S
C39 H11 0.982 . S
C39 H15 0.979 . S
C39 H16 0.977 . S
C39 C36 1.453 . S
C40 H12 0.979 . S
C40 H13 0.980 . S
C40 H14 0.983 . S
C40 C36 1.684 . S
H41 C59 0.948 . S
H42 C0 0.948 . S
H43 C18 0.979 . S
H44 C18 0.980 . S
H45 C18 0.983 . S
H46 C17 0.982 . S
H47 C17 0.979 . S
H48 C17 0.977 . S
H49 C19 0.948 . S
H50 C21 0.947 . S
H51 C22 0.948 . S
H52 C28 0.982 . S
H53 C28 0.979 . S
H54 C28 0.977 . S
H55 C29 0.979 . S
H56 C29 0.980 . S
H57 C29 0.983 . S
H58 C2 0.947 . S
C59 C2 1.392 . S
C59 C3 1.419 . S
C59 H41 0.948 . S
C60 C61 1.391 . S
C60 C64 1.391 . S
C60 H102 0.948 . S
C61 C60 1.391 . S
C61 C62 1.391 . S
C62 C61 1.391 . S
C62 H118 0.947 . S
C62 C119 1.392 1_556 S
C63 C64 1.391 1_554 S
C63 C67 1.397 . S
C63 C119 1.419 . S
C64 C60 1.391 . S
C64 C63 1.391 1_556 S
C64 C65 1.399 . S
C65 C64 1.399 . S
C65 C68 1.396 1_556 S
C65 C77 1.453 . S
C65 C78 1.684 . S
H66 C90 0.948 . S
C67 C63 1.397 . S
C67 C68 1.394 . S
C67 C86 1.723 . S
C68 C65 1.396 1_554 S
C68 C67 1.394 . S
C68 C98 1.723 . S
H69 C92 0.947 . S
H70 C93 0.948 . S
H71 C99 0.982 . S
H72 C100 0.979 . S
H73 C100 0.980 . S
H74 C100 0.983 . S
H75 C99 0.979 . S
H76 C99 0.977 . S
C77 C65 1.453 . S
C77 H106 0.982 . S
C77 H107 0.979 . S
C77 H108 0.977 . S
C78 C65 1.684 . S
C78 H103 0.979 . S
C78 H104 0.980 . S
C78 H105 0.983 . S
C79 C80 1.391 . S
C79 C84 1.391 . S
C79 H109 0.948 . S
C80 C79 1.391 . S
C80 C81 1.391 . S
C81 C80 1.391 . S
C81 C82 1.392 . S
C81 H110 0.947 . S
C82 C81 1.392 . S
C82 C83 1.419 . S
C82 H111 0.948 . S
C83 C82 1.419 . S
C83 C84 1.391 . S
C83 C87 1.397 . S
C84 C79 1.391 . S
C84 C83 1.391 . S
C84 C85 1.399 . S
C85 C84 1.399 . S
C85 C86 1.396 . S
C85 C88 1.453 . S
C85 C89 1.684 . S
C86 C67 1.723 . S
C86 C85 1.396 . S
C86 C87 1.394 . S
C87 C83 1.397 . S
C87 C86 1.394 . S
C87 C97 1.723 . S
C88 C85 1.453 . S
C88 H112 0.982 . S
C88 H113 0.979 . S
C88 H114 0.977 . S
C89 C85 1.684 . S
C89 H115 0.979 . S
C89 H116 0.980 . S
C89 H117 0.983 . S
C90 H66 0.948 . S
C90 C91 1.391 . S
C90 C95 1.391 . S
C91 C90 1.391 . S
C91 C92 1.391 1_554 S
C92 H69 0.947 . S
C92 C91 1.391 1_556 S
C92 C93 1.392 . S
C93 H70 0.948 . S
C93 C92 1.392 . S
C93 C94 1.419 1_556 S
C94 C93 1.419 1_554 S
C94 C95 1.391 . S
C94 C98 1.397 . S
C95 C90 1.391 . S
C95 C94 1.391 . S
C95 C96 1.399 . S
C96 C95 1.399 . S
C96 C97 1.396 . S
C96 C99 1.453 . S
C96 C100 1.684 . S
C97 C87 1.723 . S
C97 C96 1.396 . S
C97 C98 1.394 . S
C98 C68 1.723 . S
C98 C94 1.397 . S
C98 C97 1.394 . S
C99 H71 0.982 . S
C99 H75 0.979 . S
C99 H76 0.977 . S
C99 C96 1.453 . S
C100 H72 0.979 . S
C100 H73 0.980 . S
C100 H74 0.983 . S
C100 C96 1.684 . S
H101 C119 0.948 . S
H102 C60 0.948 . S
H103 C78 0.979 . S
H104 C78 0.980 . S
H105 C78 0.983 . S
H106 C77 0.982 . S
H107 C77 0.979 . S
H108 C77 0.977 . S
H109 C79 0.948 . S
H110 C81 0.947 . S
H111 C82 0.948 . S
H112 C88 0.982 . S
H113 C88 0.979 . S
H114 C88 0.977 . S
H115 C89 0.979 . S
H116 C89 0.980 . S
H117 C89 0.983 . S
H118 C62 0.947 . S
C119 C62 1.392 1_554 S
C119 C63 1.419 . S
C119 H101 0.948 . S
C120 C121 1.391 1_554 S
C120 C124 1.391 . S
C120 H162 0.948 . S
C121 C120 1.391 1_556 S
C121 C122 1.391 . S
C122 C121 1.391 . S
C122 H178 0.947 . S
C122 C179 1.392 . S
C123 C124 1.391 1_556 S
C123 C127 1.397 1_565 S
C123 C179 1.419 . S
C124 C120 1.391 . S
C124 C123 1.391 1_554 S
C124 C125 1.399 . S
C125 C124 1.399 . S
C125 C128 1.396 1_565 S
C125 C137 1.453 1_565 S
C125 C138 1.684 . S
H126 C150 0.948 . S
C127 C123 1.397 1_545 S
C127 C128 1.394 1_556 S
C127 C146 1.723 . S
C128 C125 1.396 1_545 S
C128 C127 1.394 1_554 S
C128 C158 1.723 . S
H129 C152 0.947 . S
H130 C153 0.948 . S
H131 C159 0.982 . S
H132 C160 0.979 . S
H133 C160 0.980 . S
H134 C160 0.983 . S
H135 C159 0.979 . S
H136 C159 0.977 . S
C137 C125 1.453 1_545 S
C137 H166 0.982 . S
C137 H167 0.979 . S
C137 H168 0.977 . S
C138 C125 1.684 . S
C138 H163 0.979 . S
C138 H164 0.980 . S
C138 H165 0.983 . S
C139 C140 1.391 . S
C139 C144 1.391 . S
C139 H169 0.948 . S
C140 C139 1.391 . S
C140 C141 1.391 . S
C141 C140 1.391 . S
C141 C142 1.392 . S
C141 H170 0.947 . S
C142 C141 1.392 . S
C142 C143 1.419 . S
C142 H171 0.948 . S
C143 C142 1.419 . S
C143 C144 1.391 . S
C143 C147 1.397 1_565 S
C144 C139 1.391 . S
C144 C143 1.391 . S
C144 C145 1.399 . S
C145 C144 1.399 . S
C145 C146 1.396 1_565 S
C145 C148 1.453 1_565 S
C145 C149 1.684 . S
C146 C127 1.723 . S
C146 C145 1.396 1_545 S
C146 C147 1.395 . S
C147 C143 1.397 1_545 S
C147 C146 1.395 . S
C147 C157 1.722 1_556 S
C148 C145 1.453 1_545 S
C148 H172 0.982 . S
C148 H173 0.979 . S
C148 H174 0.977 . S
C149 C145 1.684 . S
C149 H175 0.979 . S
C149 H176 0.980 . S
C149 H177 0.983 . S
C150 H126 0.948 . S
C150 C151 1.391 . S
C150 C155 1.391 . S
C151 C150 1.391 . S
C151 C152 1.391 . S
C152 H129 0.947 . S
C152 C151 1.391 . S
C152 C153 1.392 . S
C153 H130 0.948 . S
C153 C152 1.392 . S
C153 C154 1.419 . S
C154 C153 1.419 . S
C154 C155 1.391 . S
C154 C158 1.397 1_565 S
C155 C150 1.391 . S
C155 C154 1.391 . S
C155 C156 1.399 . S
C156 C155 1.399 . S
C156 C157 1.396 1_565 S
C156 C159 1.453 1_565 S
C156 C160 1.684 . S
C157 C147 1.722 1_554 S
C157 C156 1.396 1_545 S
C157 C158 1.394 . S
C158 C128 1.723 . S
C158 C154 1.397 1_545 S
C158 C157 1.394 . S
C159 H131 0.982 . S
C159 H135 0.979 . S
C159 H136 0.977 . S
C159 C156 1.453 1_545 S
C160 H132 0.979 . S
C160 H133 0.980 . S
C160 H134 0.983 . S
C160 C156 1.684 . S
H161 C179 0.948 . S
H162 C120 0.948 . S
H163 C138 0.979 . S
H164 C138 0.980 . S
H165 C138 0.983 . S
H166 C137 0.982 . S
H167 C137 0.979 . S
H168 C137 0.977 . S
H169 C139 0.948 . S
H170 C141 0.947 . S
H171 C142 0.948 . S
H172 C148 0.982 . S
H173 C148 0.979 . S
H174 C148 0.977 . S
H175 C149 0.979 . S
H176 C149 0.980 . S
H177 C149 0.983 . S
H178 C122 0.947 . S
C179 C122 1.392 . S
C179 C123 1.419 . S
C179 H161 0.948 . S
C180 C181 1.391 . S
C180 C184 1.391 . S
C180 H222 0.948 . S
C181 C180 1.391 . S
C181 C182 1.391 . S
C182 C181 1.391 . S
C182 H238 0.947 . S
C182 C239 1.392 . S
C183 C184 1.391 . S
C183 C187 1.397 . S
C183 C239 1.419 . S
C184 C180 1.391 . S
C184 C183 1.391 . S
C184 C185 1.399 . S
C185 C184 1.399 . S
C185 C188 1.396 . S
C185 C197 1.453 . S
C185 C198 1.684 . S
H186 C210 0.948 . S
C187 C183 1.397 . S
C187 C188 1.394 . S
C187 C206 1.723 . S
C188 C185 1.396 . S
C188 C187 1.394 . S
C188 C218 1.723 . S
H189 C212 0.947 . S
H190 C213 0.948 . S
H191 C219 0.982 . S
H192 C220 0.979 . S
H193 C220 0.980 . S
H194 C220 0.983 . S
H195 C219 0.979 . S
H196 C219 0.977 . S
C197 C185 1.453 . S
C197 H226 0.982 . S
C197 H227 0.979 . S
C197 H228 0.977 . S
C198 C185 1.684 . S
C198 H223 0.979 . S
C198 H224 0.980 . S
C198 H225 0.983 . S
C199 C200 1.391 . S
C199 C204 1.391 . S
C199 H229 0.948 . S
C200 C199 1.391 . S
C200 C201 1.391 . S
C201 C200 1.391 . S
C201 C202 1.392 . S
C201 H230 0.947 . S
C202 C201 1.392 . S
C202 C203 1.419 . S
C202 H231 0.948 . S
C203 C202 1.419 . S
C203 C204 1.391 . S
C203 C207 1.397 . S
C204 C199 1.391 . S
C204 C203 1.391 . S
C204 C205 1.399 . S
C205 C204 1.399 . S
C205 C206 1.396 . S
C205 C208 1.453 . S
C205 C209 1.684 . S
C206 C187 1.723 . S
C206 C205 1.396 . S
C206 C207 1.394 . S
C207 C203 1.397 . S
C207 C206 1.394 . S
C207 C217 1.723 . S
C208 C205 1.453 . S
C208 H232 0.982 . S
C208 H233 0.979 . S
C208 H234 0.977 . S
C209 C205 1.684 . S
C209 H235 0.979 . S
C209 H236 0.980 . S
C209 H237 0.983 . S
C210 H186 0.948 . S
C210 C211 1.391 . S
C210 C215 1.391 . S
C211 C210 1.391 . S
C211 C212 1.391 . S
C212 H189 0.947 . S
C212 C211 1.391 . S
C212 C213 1.392 . S
C213 H190 0.948 . S
C213 C212 1.392 . S
C213 C214 1.419 . S
C214 C213 1.419 . S
C214 C215 1.391 . S
C214 C218 1.397 . S
C215 C210 1.391 . S
C215 C214 1.391 . S
C215 C216 1.399 . S
C216 C215 1.399 . S
C216 C217 1.396 . S
C216 C219 1.453 . S
C216 C220 1.684 . S
C217 C207 1.723 . S
C217 C216 1.396 . S
C217 C218 1.394 . S
C218 C188 1.723 . S
C218 C214 1.397 . S
C218 C217 1.394 . S
C219 H191 0.982 . S
C219 H195 0.979 . S
C219 H196 0.977 . S
C219 C216 1.453 . S
C220 H192 0.979 . S
C220 H193 0.980 . S
C220 H194 0.983 . S
C220 C216 1.684 . S
H221 C239 0.948 . S
H222 C180 0.948 . S
H223 C198 0.979 . S
H224 C198 0.980 . S
H225 C198 0.983 . S
H226 C197 0.982 . S
H227 C197 0.979 . S
H228 C197 0.977 . S
H229 C199 0.948 . S
H230 C201 0.947 . S
H231 C202 0.948 . S
H232 C208 0.982 . S
H233 C208 0.979 . S
H234 C208 0.977 . S
H235 C209 0.979 . S
H236 C209 0.980 . S
H237 C209 0.983 . S
H238 C182 0.947 . S
C239 C182 1.392 . S
C239 C183 1.419 . S
C239 H221 0.948 . S
C240 C241 1.391 . S
C240 C244 1.391 . S
C240 H282 0.948 . S
C241 C240 1.391 . S
C241 C242 1.391 . S
C242 C241 1.391 . S
C242 H298 0.947 . S
C242 C299 1.392 . S
C243 C244 1.391 . S
C243 C247 1.397 . S
C243 C299 1.419 . S
C244 C240 1.391 . S
C244 C243 1.391 . S
C244 C245 1.399 . S
C245 C244 1.399 . S
C245 C248 1.396 . S
C245 C257 1.453 . S
C245 C258 1.684 . S
H246 C270 0.948 . S
C247 C243 1.397 . S
C247 C248 1.394 . S
C247 C266 1.723 . S
C248 C245 1.396 . S
C248 C247 1.394 . S
C248 C278 1.723 . S
H249 C272 0.947 . S
H250 C273 0.948 . S
H251 C279 0.982 . S
H252 C280 0.979 . S
H253 C280 0.980 . S
H254 C280 0.983 . S
H255 C279 0.979 . S
H256 C279 0.977 . S
C257 C245 1.453 . S
C257 H286 0.982 . S
C257 H287 0.979 . S
C257 H288 0.977 . S
C258 C245 1.684 . S
C258 H283 0.979 . S
C258 H284 0.980 . S
C258 H285 0.983 . S
C259 C260 1.391 . S
C259 C264 1.391 . S
C259 H289 0.948 . S
C260 C259 1.391 . S
C260 C261 1.391 . S
C261 C260 1.391 . S
C261 C262 1.392 . S
C261 H290 0.947 . S
C262 C261 1.392 . S
C262 C263 1.419 . S
C262 H291 0.948 . S
C263 C262 1.419 . S
C263 C264 1.391 . S
C263 C267 1.397 . S
C264 C259 1.391 . S
C264 C263 1.391 . S
C264 C265 1.399 . S
C265 C264 1.399 . S
C265 C266 1.396 . S
C265 C268 1.453 . S
C265 C269 1.684 . S
C266 C247 1.723 . S
C266 C265 1.396 . S
C266 C267 1.394 . S
C267 C263 1.397 . S
C267 C266 1.394 . S
C267 C277 1.723 . S
C268 C265 1.453 . S
C268 H292 0.982 . S
C268 H293 0.979 . S
C268 H294 0.977 . S
C269 C265 1.684 . S
C269 H295 0.979 . S
C269 H296 0.980 . S
C269 H297 0.983 . S
C270 H246 0.948 . S
C270 C271 1.391 . S
C270 C275 1.391 . S
C271 C270 1.391 . S
C271 C272 1.391 . S
C272 H249 0.947 . S
C272 C271 1.391 . S
C272 C273 1.392 . S
C273 H250 0.948 . S
C273 C272 1.392 . S
C273 C274 1.419 . S
C274 C273 1.419 . S
C274 C275 1.391 . S
C274 C278 1.397 . S
C275 C270 1.391 . S
C275 C274 1.391 . S
C275 C276 1.399 . S
C276 C275 1.399 . S
C276 C277 1.396 . S
C276 C279 1.453 . S
C276 C280 1.684 . S
C277 C267 1.723 . S
C277 C276 1.396 . S
C277 C278 1.394 . S
C278 C248 1.723 . S
C278 C274 1.397 . S
C278 C277 1.394 . S
C279 H251 0.982 . S
C279 H255 0.979 . S
C279 H256 0.977 . S
C279 C276 1.453 . S
C280 H252 0.979 . S
C280 H253 0.980 . S
C280 H254 0.983 . S
C280 C276 1.684 . S
H281 C299 0.948 . S
H282 C240 0.948 . S
H283 C258 0.979 . S
H284 C258 0.980 . S
H285 C258 0.983 . S
H286 C257 0.982 . S
H287 C257 0.979 . S
H288 C257 0.977 . S
H289 C259 0.948 . S
H290 C261 0.947 . S
H291 C262 0.948 . S
H292 C268 0.982 . S
H293 C268 0.979 . S
H294 C268 0.977 . S
H295 C269 0.979 . S
H296 C269 0.980 . S
H297 C269 0.983 . S
H298 C242 0.947 . S
C299 C242 1.392 . S
C299 C243 1.419 . S
C299 H281 0.948 . S
C300 C301 1.391 . S
C300 C304 1.391 . S
C300 H342 0.948 . S
C301 C300 1.391 . S
C301 C302 1.391 . S
C302 C301 1.391 . S
C302 H358 0.947 . S
C302 C359 1.392 . S
C303 C304 1.391 . S
C303 C307 1.397 . S
C303 C359 1.419 . S
C304 C300 1.391 . S
C304 C303 1.391 . S
C304 C305 1.399 . S
C305 C304 1.399 . S
C305 C308 1.396 . S
C305 C317 1.453 . S
C305 C318 1.684 . S
H306 C330 0.948 . S
C307 C303 1.397 . S
C307 C308 1.394 . S
C307 C326 1.723 . S
C308 C305 1.396 . S
C308 C307 1.394 . S
C308 C338 1.723 . S
H309 C332 0.947 . S
H310 C333 0.948 . S
H311 C339 0.982 . S
H312 C340 0.979 . S
H313 C340 0.980 . S
H314 C340 0.983 . S
H315 C339 0.979 . S
H316 C339 0.977 . S
C317 C305 1.453 . S
C317 H346 0.982 . S
C317 H347 0.979 . S
C317 H348 0.977 . S
C318 C305 1.684 . S
C318 H343 0.979 . S
C318 H344 0.980 . S
C318 H345 0.983 . S
C319 C320 1.391 . S
C319 C324 1.391 . S
C319 H349 0.948 . S
C320 C319 1.391 . S
C320 C321 1.391 . S
C321 C320 1.391 . S
C321 C322 1.392 . S
C321 H350 0.947 . S
C322 C321 1.392 . S
C322 C323 1.419 . S
C322 H351 0.948 . S
C323 C322 1.419 . S
C323 C324 1.391 . S
C323 C327 1.397 . S
C324 C319 1.391 . S
C324 C323 1.391 . S
C324 C325 1.399 . S
C325 C324 1.399 . S
C325 C326 1.396 . S
C325 C328 1.453 . S
C325 C329 1.684 . S
C326 C307 1.723 . S
C326 C325 1.396 . S
C326 C327 1.394 . S
C327 C323 1.397 . S
C327 C326 1.394 . S
C327 C337 1.723 . S
C328 C325 1.453 . S
C328 H352 0.982 . S
C328 H353 0.979 . S
C328 H354 0.977 . S
C329 C325 1.684 . S
C329 H355 0.979 . S
C329 H356 0.980 . S
C329 H357 0.983 . S
C330 H306 0.948 . S
C330 C331 1.391 . S
C330 C335 1.391 . S
C331 C330 1.391 . S
C331 C332 1.391 . S
C332 H309 0.947 . S
C332 C331 1.391 . S
C332 C333 1.392 . S
C333 H310 0.948 . S
C333 C332 1.392 . S
C333 C334 1.419 . S
C334 C333 1.419 . S
C334 C335 1.391 . S
C334 C338 1.397 . S
C335 C330 1.391 . S
C335 C334 1.391 . S
C335 C336 1.399 . S
C336 C335 1.399 . S
C336 C337 1.396 . S
C336 C339 1.453 . S
C336 C340 1.684 . S
C337 C327 1.723 . S
C337 C336 1.396 . S
C337 C338 1.394 . S
C338 C308 1.723 . S
C338 C334 1.397 . S
C338 C337 1.394 . S
C339 H311 0.982 . S
C339 H315 0.979 . S
C339 H316 0.977 . S
C339 C336 1.453 . S
C340 H312 0.979 . S
C340 H313 0.980 . S
C340 H314 0.983 . S
C340 C336 1.684 . S
H341 C359 0.948 . S
H342 C300 0.948 . S
H343 C318 0.979 . S
H344 C318 0.980 . S
H345 C318 0.983 . S
H346 C317 0.982 . S
H347 C317 0.979 . S
H348 C317 0.977 . S
H349 C319 0.948 . S
H350 C321 0.947 . S
H351 C322 0.948 . S
H352 C328 0.982 . S
H353 C328 0.979 . S
H354 C328 0.977 . S
H355 C329 0.979 . S
H356 C329 0.980 . S
H357 C329 0.983 . S
H358 C302 0.947 . S
C359 C302 1.392 . S
C359 C303 1.419 . S
C359 H341 0.948 . S
C360 C361 1.391 . S
C360 C364 1.391 . S
C360 H402 0.948 . S
C361 C360 1.391 . S
C361 C362 1.391 . S
C362 C361 1.391 . S
C362 H418 0.947 . S
C362 C419 1.392 . S
C363 C364 1.391 . S
C363 C367 1.397 1_545 S
C363 C419 1.419 . S
C364 C360 1.391 . S
C364 C363 1.391 . S
C364 C365 1.399 . S
C365 C364 1.399 . S
C365 C368 1.396 1_545 S
C365 C377 1.453 1_545 S
C365 C378 1.684 . S
H366 C390 0.948 . S
C367 C363 1.397 1_565 S
C367 C368 1.395 . S
C367 C386 1.723 . S
C368 C365 1.396 1_565 S
C368 C367 1.395 . S
C368 C398 1.722 . S
H369 C392 0.947 . S
H370 C393 0.948 . S
H371 C399 0.982 . S
H372 C400 0.979 . S
H373 C400 0.980 . S
H374 C400 0.983 . S
H375 C399 0.979 . S
H376 C399 0.977 . S
C377 C365 1.453 1_565 S
C377 H406 0.982 . S
C377 H407 0.979 . S
C377 H408 0.977 . S
C378 C365 1.684 . S
C378 H403 0.979 . S
C378 H404 0.980 . S
C378 H405 0.983 . S
C379 C380 1.391 . S
C379 C384 1.391 . S
C379 H409 0.948 . S
C380 C379 1.391 . S
C380 C381 1.391 . S
C381 C380 1.391 . S
C381 C382 1.392 . S
C381 H410 0.947 . S
C382 C381 1.392 . S
C382 C383 1.419 . S
C382 H411 0.948 . S
C383 C382 1.419 . S
C383 C384 1.391 . S
C383 C387 1.397 1_545 S
C384 C379 1.391 . S
C384 C383 1.391 . S
C384 C385 1.399 . S
C385 C384 1.399 . S
C385 C386 1.396 1_545 S
C385 C388 1.453 1_545 S
C385 C389 1.684 . S
C386 C367 1.723 . S
C386 C385 1.396 1_565 S
C386 C387 1.394 . S
C387 C383 1.397 1_565 S
C387 C386 1.394 . S
C387 C397 1.723 . S
C388 C385 1.453 1_565 S
C388 H412 0.982 . S
C388 H413 0.979 . S
C388 H414 0.977 . S
C389 C385 1.684 . S
C389 H415 0.979 . S
C389 H416 0.980 . S
C389 H417 0.983 . S
C390 H366 0.948 . S
C390 C391 1.391 . S
C390 C395 1.391 . S
C391 C390 1.391 . S
C391 C392 1.391 . S
C392 H369 0.947 . S
C392 C391 1.391 . S
C392 C393 1.392 . S
C393 H370 0.948 . S
C393 C392 1.392 . S
C393 C394 1.419 . S
C394 C393 1.419 . S
C394 C395 1.391 . S
C394 C398 1.397 1_545 S
C395 C390 1.391 . S
C395 C394 1.391 . S
C395 C396 1.399 . S
C396 C395 1.399 . S
C396 C397 1.396 1_545 S
C396 C399 1.453 1_545 S
C396 C400 1.684 . S
C397 C387 1.723 . S
C397 C396 1.396 1_565 S
C397 C398 1.394 . S
C398 C368 1.722 . S
C398 C394 1.397 1_565 S
C398 C397 1.394 . S
C399 H371 0.982 . S
C399 H375 0.979 . S
C399 H376 0.977 . S
C399 C396 1.453 1_565 S
C400 H372 0.979 . S
C400 H373 0.980 . S
C400 H374 0.983 . S
C400 C396 1.684 . S
H401 C419 0.948 . S
H402 C360 0.948 . S
H403 C378 0.979 . S
H404 C378 0.980 . S
H405 C378 0.983 . S
H406 C377 0.982 . S
H407 C377 0.979 . S
H408 C377 0.977 . S
H409 C379 0.948 . S
H410 C381 0.947 . S
H411 C382 0.948 . S
H412 C388 0.982 . S
H413 C388 0.979 . S
H414 C388 0.977 . S
H415 C389 0.979 . S
H416 C389 0.980 . S
H417 C389 0.983 . S
H418 C362 0.947 . S
C419 C362 1.392 . S
C419 C363 1.419 . S
C419 H401 0.948 . S
C420 C421 1.391 . S
C420 C424 1.391 . S
C420 H462 0.948 . S
C421 C420 1.391 . S
C421 C422 1.391 . S
C422 C421 1.391 . S
C422 H478 0.947 . S
C422 C479 1.392 . S
C423 C424 1.391 . S
C423 C427 1.397 . S
C423 C479 1.419 . S
C424 C420 1.391 . S
C424 C423 1.391 . S
C424 C425 1.399 . S
C425 C424 1.399 . S
C425 C428 1.396 . S
C425 C437 1.453 . S
C425 C438 1.684 . S
H426 C450 0.948 . S
C427 C423 1.397 . S
C427 C428 1.394 . S
C427 C446 1.723 . S
C428 C425 1.396 . S
C428 C427 1.394 . S
C428 C458 1.723 . S
H429 C452 0.947 . S
H430 C453 0.948 . S
H431 C459 0.982 . S
H432 C460 0.979 . S
H433 C460 0.980 . S
H434 C460 0.983 . S
H435 C459 0.979 . S
H436 C459 0.977 . S
C437 C425 1.453 . S
C437 H466 0.982 . S
C437 H467 0.979 . S
C437 H468 0.977 . S
C438 C425 1.684 . S
C438 H463 0.979 . S
C438 H464 0.980 . S
C438 H465 0.983 . S
C439 C440 1.391 . S
C439 C444 1.391 . S
C439 H469 0.948 . S
C440 C439 1.391 . S
C440 C441 1.391 . S
C441 C440 1.391 . S
C441 C442 1.392 . S
C441 H470 0.947 . S
C442 C441 1.392 . S
C442 C443 1.419 . S
C442 H471 0.948 . S
C443 C442 1.419 . S
C443 C444 1.391 . S
C443 C447 1.397 . S
C444 C439 1.391 . S
C444 C443 1.391 . S
C444 C445 1.399 . S
C445 C444 1.399 . S
C445 C446 1.396 . S
C445 C448 1.453 . S
C445 C449 1.684 . S
C446 C427 1.723 . S
C446 C445 1.396 . S
C446 C447 1.394 . S
C447 C443 1.397 . S
C447 C446 1.394 . S
C447 C457 1.723 . S
C448 C445 1.453 . S
C448 H472 0.982 . S
C448 H473 0.979 . S
C448 H474 0.977 . S
C449 C445 1.684 . S
C449 H475 0.979 . S
C449 H476 0.980 . S
C449 H477 0.983 . S
C450 H426 0.948 . S
C450 C451 1.391 . S
C450 C455 1.391 . S
C451 C450 1.391 . S
C451 C452 1.391 . S
C452 H429 0.947 . S
C452 C451 1.391 . S
C452 C453 1.392 . S
C453 H430 0.948 . S
C453 C452 1.392 . S
C453 C454 1.419 . S
C454 C453 1.419 . S
C454 C455 1.391 . S
C454 C458 1.397 . S
C455 C450 1.391 . S
C455 C454 1.391 . S
C455 C456 1.399 . S
C456 C455 1.399 . S
C456 C457 1.396 . S
C456 C459 1.453 . S
C456 C460 1.684 . S
C457 C447 1.723 . S
C457 C456 1.396 . S
C457 C458 1.394 . S
C458 C428 1.723 . S
C458 C454 1.397 . S
C458 C457 1.394 . S
C459 H431 0.982 . S
C459 H435 0.979 . S
C459 H436 0.977 . S
C459 C456 1.453 . S
C460 H432 0.979 . S
C460 H433 0.980 . S
C460 H434 0.983 . S
C460 C456 1.684 . S
H461 C479 0.948 . S
H462 C420 0.948 . S
H463 C438 0.979 . S
H464 C438 0.980 . S
H465 C438 0.983 . S
H466 C437 0.982 . S
H467 C437 0.979 . S
H468 C437 0.977 . S
H469 C439 0.948 . S
H470 C441 0.947 . S
H471 C442 0.948 . S
H472 C448 0.982 . S
H473 C448 0.979 . S
H474 C448 0.977 . S
H475 C449 0.979 . S
H476 C449 0.980 . S
H477 C449 0.983 . S
H478 C422 0.947 . S
C479 C422 1.392 . S
C479 C423 1.419 . S
C479 H461 0.948 . S
Nd480 C482 2.836 1_455 S
Nd480 O500 2.500 1_455 S
Nd480 O501 2.492 . S
Nd480 O502 2.487 . S
Nd480 O503 2.682 1_565 S
Nd480 O504 2.410 . S
Nd480 O509 2.414 1_455 S
Nd480 O511 2.424 1_565 S
Nd481 C491 2.836 1_556 S
Nd481 O503 2.414 . S
Nd481 O505 2.424 1_545 S
Nd481 O506 2.500 . S
Nd481 O507 2.492 1_556 S
Nd481 O508 2.487 1_455 S
Nd481 O509 2.682 1_445 S
Nd481 O510 2.410 . S
C482 Nd480 2.836 1_655 S
C482 C483 1.498 . S
C482 O500 1.258 . S
C482 O501 1.239 1_655 S
C483 C482 1.498 . S
C483 C484 1.366 . S
C483 C488 1.407 . S
C484 C483 1.366 . S
C484 C485 1.392 . S
C484 H512 0.930 . S
C485 C484 1.392 . S
C485 C486 1.398 . S
C485 H513 0.929 . S
C486 C485 1.398 . S
C486 C487 1.352 . S
C487 C486 1.352 . S
C487 C488 1.384 . S
C487 H514 0.930 . S
C488 C483 1.407 . S
C488 C487 1.384 . S
C488 H515 0.929 1_655 S
C489 O502 1.241 . S
C489 O503 1.273 1_565 S
C490 O504 1.251 . S
C490 O505 1.268 . S
C491 Nd481 2.836 1_554 S
C491 C492 1.498 . S
C491 O506 1.258 1_554 S
C491 O507 1.239 . S
C492 C491 1.498 . S
C492 C493 1.366 . S
C492 C497 1.407 . S
C493 C492 1.366 . S
C493 C494 1.392 . S
C493 H516 0.930 . S
C494 C493 1.392 . S
C494 C495 1.398 . S
C494 H517 0.929 . S
C495 C494 1.398 . S
C495 C496 1.352 . S
C496 C495 1.352 . S
C496 C497 1.384 . S
C496 H518 0.930 . S
C497 C492 1.407 . S
C497 C496 1.384 . S
C497 H519 0.929 . S
C498 O508 1.241 . S
C498 O509 1.273 1_545 S
C499 O510 1.251 . S
C499 O511 1.268 . S
O500 Nd480 2.500 1_655 S
O500 C482 1.258 . S
O501 Nd480 2.492 . S
O501 C482 1.239 1_455 S
O502 Nd480 2.487 . S
O502 C489 1.241 . S
O503 Nd480 2.682 1_545 S
O503 Nd481 2.414 . S
O503 C489 1.273 1_545 S
O504 Nd480 2.410 . S
O504 C490 1.251 . S
O505 Nd481 2.424 1_565 S
O505 C490 1.268 . S
O506 Nd481 2.500 . S
O506 C491 1.258 1_556 S
O507 Nd481 2.492 1_554 S
O507 C491 1.239 . S
O508 Nd481 2.487 1_655 S
O508 C498 1.241 . S
O509 Nd480 2.414 1_655 S
O509 Nd481 2.682 1_665 S
O509 C498 1.273 1_565 S
O510 Nd481 2.410 . S
O510 C499 1.251 . S
O511 Nd480 2.424 1_545 S
O511 C499 1.268 . S
H512 C484 0.930 . S
H513 C485 0.929 . S
H514 C487 0.930 . S
H515 C488 0.929 1_455 S
H516 C493 0.930 . S
H517 C494 0.929 . S
H518 C496 0.930 . S
H519 C497 0.929 . S
Nd520 C522 2.836 . S
Nd520 O540 2.500 . S
Nd520 O541 2.492 . S
Nd520 O542 2.487 1_565 S
Nd520 O543 2.682 1_565 S
Nd520 O544 2.410 1_565 S
Nd520 O549 2.414 . S
Nd520 O551 2.424 . S
Nd521 C531 2.836 1_556 S
Nd521 O543 2.414 . S
Nd521 O545 2.424 . S
Nd521 O546 2.500 . S
Nd521 O547 2.492 1_556 S
Nd521 O548 2.487 1_546 S
Nd521 O549 2.682 1_545 S
Nd521 O550 2.410 1_545 S
C522 Nd520 2.836 . S
C522 C523 1.498 . S
C522 O540 1.258 . S
C522 O541 1.239 . S
C523 C522 1.498 . S
C523 C524 1.366 . S
C523 C528 1.407 . S
C524 C523 1.366 . S
C524 C525 1.392 . S
C524 H552 0.930 . S
C525 C524 1.392 . S
C525 C526 1.398 . S
C525 H553 0.929 . S
C526 C525 1.398 . S
C526 C527 1.352 . S
C527 C526 1.352 . S
C527 C528 1.384 . S
C527 H554 0.930 . S
C528 C523 1.407 . S
C528 C527 1.384 . S
C528 H555 0.929 1_565 S
C529 O542 1.241 . S
C529 O543 1.273 . S
C530 O544 1.251 . S
C530 O545 1.268 . S
C531 Nd521 2.836 1_554 S
C531 C532 1.498 . S
C531 O546 1.258 1_554 S
C531 O547 1.239 . S
C532 C531 1.498 . S
C532 C533 1.366 . S
C532 C537 1.407 . S
C533 C532 1.366 . S
C533 C534 1.392 . S
C533 H556 0.930 1_554 S
C534 C533 1.392 . S
C534 C535 1.398 . S
C534 H557 0.929 . S
C535 C534 1.398 . S
C535 C536 1.352 . S
C536 C535 1.352 . S
C536 C537 1.384 . S
C536 H558 0.930 . S
C537 C532 1.407 . S
C537 C536 1.384 . S
C537 H559 0.929 1_545 S
C538 O548 1.241 1_556 S
C538 O549 1.273 . S
C539 O550 1.251 . S
C539 O551 1.268 . S
O540 Nd520 2.500 . S
O540 C522 1.258 . S
O541 Nd520 2.492 . S
O541 C522 1.239 . S
O542 Nd520 2.487 1_545 S
O542 C529 1.241 . S
O543 Nd520 2.682 1_545 S
O543 Nd521 2.414 . S
O543 C529 1.273 . S
O544 Nd520 2.410 1_545 S
O544 C530 1.251 . S
O545 Nd521 2.424 . S
O545 C530 1.268 . S
O546 Nd521 2.500 . S
O546 C531 1.258 1_556 S
O547 Nd521 2.492 1_554 S
O547 C531 1.239 . S
O548 Nd521 2.487 1_564 S
O548 C538 1.241 1_554 S
O549 Nd520 2.414 . S
O549 Nd521 2.682 1_565 S
O549 C538 1.273 . S
O550 Nd521 2.410 1_565 S
O550 C539 1.251 . S
O551 Nd520 2.424 . S
O551 C539 1.268 . S
H552 C524 0.930 . S
H553 C525 0.929 . S
H554 C527 0.930 . S
H555 C528 0.929 1_545 S
H556 C533 0.930 1_556 S
H557 C534 0.929 . S
H558 C536 0.930 . S
H559 C537 0.929 1_565 S
Nd560 C562 2.836 . S
Nd560 O580 2.500 . S
Nd560 O581 2.492 1_556 S
Nd560 O582 2.487 . S
Nd560 O583 2.682 . S
Nd560 O584 2.410 . S
Nd560 O589 2.414 . S
Nd560 O591 2.424 . S
Nd561 C571 2.836 . S
Nd561 O583 2.414 . S
Nd561 O585 2.424 . S
Nd561 O586 2.500 . S
Nd561 O587 2.492 . S
Nd561 O588 2.487 . S
Nd561 O589 2.682 . S
Nd561 O590 2.410 . S
C562 Nd560 2.836 . S
C562 C563 1.498 1_556 S
C562 O580 1.258 . S
C562 O581 1.239 1_556 S
C563 C562 1.498 1_554 S
C563 C564 1.366 1_554 S
C563 C568 1.407 . S
C564 C563 1.366 1_556 S
C564 C565 1.395 . S
C564 H592 0.930 . S
C565 C564 1.395 . S
C565 C566 1.394 1_556 S
C565 H593 0.931 . S
C566 C565 1.394 1_554 S
C566 C567 1.352 . S
C567 C566 1.352 . S
C567 C568 1.384 . S
C567 H594 0.930 . S
C568 C563 1.407 . S
C568 C567 1.384 . S
C568 H595 0.929 . S
C569 O582 1.241 . S
C569 O583 1.273 . S
C570 O584 1.251 . S
C570 O585 1.268 . S
C571 Nd561 2.836 . S
C571 C572 1.498 . S
C571 O586 1.258 . S
C571 O587 1.239 . S
C572 C571 1.498 . S
C572 C573 1.366 . S
C572 C577 1.407 . S
C573 C572 1.366 . S
C573 C574 1.392 . S
C573 H596 0.930 . S
C574 C573 1.392 . S
C574 C575 1.398 . S
C574 H597 0.929 . S
C575 C574 1.398 . S
C575 C576 1.352 . S
C576 C575 1.352 . S
C576 C577 1.384 . S
C576 H598 0.930 . S
C577 C572 1.407 . S
C577 C576 1.384 . S
C577 H599 0.929 . S
C578 O588 1.241 . S
C578 O589 1.273 . S
C579 O590 1.251 . S
C579 O591 1.268 . S
O580 Nd560 2.500 . S
O580 C562 1.258 . S
O581 Nd560 2.492 1_554 S
O581 C562 1.239 1_554 S
O582 Nd560 2.487 . S
O582 C569 1.241 . S
O583 Nd560 2.682 . S
O583 Nd561 2.414 . S
O583 C569 1.273 . S
O584 Nd560 2.410 . S
O584 C570 1.251 . S
O585 Nd561 2.424 . S
O585 C570 1.268 . S
O586 Nd561 2.500 . S
O586 C571 1.258 . S
O587 Nd561 2.492 . S
O587 C571 1.239 . S
O588 Nd561 2.487 . S
O588 C578 1.241 . S
O589 Nd560 2.414 . S
O589 Nd561 2.682 . S
O589 C578 1.273 . S
O590 Nd561 2.410 . S
O590 C579 1.251 . S
O591 Nd560 2.424 . S
O591 C579 1.268 . S
H592 C564 0.930 . S
H593 C565 0.931 . S
H594 C567 0.930 . S
H595 C568 0.929 . S
H596 C573 0.930 . S
H597 C574 0.929 . S
H598 C576 0.930 . S
H599 C577 0.929 . S
Nd600 C602 2.836 1_455 S
Nd600 O620 2.500 1_455 S
Nd600 O621 2.492 1_455 S
Nd600 O622 2.487 . S
Nd600 O623 2.682 . S
Nd600 O624 2.410 1_455 S
Nd600 O629 2.414 . S
Nd600 O631 2.424 . S
Nd601 C611 2.836 1_556 S
Nd601 O623 2.414 . S
Nd601 O625 2.424 1_455 S
Nd601 O626 2.498 1_556 S
Nd601 O627 2.492 1_556 S
Nd601 O628 2.487 . S
Nd601 O629 2.682 . S
Nd601 O630 2.410 . S
C602 Nd600 2.836 1_655 S
C602 C603 1.498 . S
C602 O620 1.258 . S
C602 O621 1.239 . S
C603 C602 1.498 . S
C603 C604 1.366 . S
C603 C608 1.407 . S
C604 C603 1.366 . S
C604 C605 1.392 . S
C604 H632 0.930 . S
C605 C604 1.392 . S
C605 C606 1.398 . S
C605 H633 0.929 . S
C606 C605 1.398 . S
C606 C607 1.352 . S
C607 C606 1.352 . S
C607 C608 1.384 . S
C607 H634 0.930 . S
C608 C603 1.407 . S
C608 C607 1.384 . S
C608 H635 0.929 . S
C609 O622 1.241 . S
C609 O623 1.273 . S
C610 O624 1.251 . S
C610 O625 1.268 . S
C611 Nd601 2.836 1_554 S
C611 C612 1.498 . S
C611 O626 1.263 . S
C611 O627 1.239 . S
C612 C611 1.498 . S
C612 C613 1.366 . S
C612 C617 1.407 . S
C613 C612 1.366 . S
C613 C614 1.392 . S
C613 H636 0.930 . S
C614 C613 1.392 . S
C614 C615 1.398 . S
C614 H637 0.929 . S
C615 C614 1.398 . S
C615 C616 1.352 . S
C616 C615 1.352 . S
C616 C617 1.384 . S
C616 H638 0.930 . S
C617 C612 1.407 . S
C617 C616 1.384 . S
C617 H639 0.929 . S
C618 O628 1.241 . S
C618 O629 1.273 . S
C619 O630 1.251 . S
C619 O631 1.268 . S
O620 Nd600 2.500 1_655 S
O620 C602 1.258 . S
O621 Nd600 2.492 1_655 S
O621 C602 1.239 . S
O622 Nd600 2.487 . S
O622 C609 1.241 . S
O623 Nd600 2.682 . S
O623 Nd601 2.414 . S
O623 C609 1.273 . S
O624 Nd600 2.410 1_655 S
O624 C610 1.251 . S
O625 Nd601 2.424 1_655 S
O625 C610 1.268 . S
O626 Nd601 2.498 1_554 S
O626 C611 1.263 . S
O627 Nd601 2.492 1_554 S
O627 C611 1.239 . S
O628 Nd601 2.487 . S
O628 C618 1.241 . S
O629 Nd600 2.414 . S
O629 Nd601 2.682 . S
O629 C618 1.273 . S
O630 Nd601 2.410 . S
O630 C619 1.251 . S
O631 Nd600 2.424 . S
O631 C619 1.268 . S
H632 C604 0.930 . S
H633 C605 0.929 . S
H634 C607 0.930 . S
H635 C608 0.929 . S
H636 C613 0.930 . S
H637 C614 0.929 . S
H638 C616 0.930 . S
H639 C617 0.929 . S
H640 C646 0.930 . S
H641 C649 0.930 . S
H642 C650 0.930 . S
H643 C651 0.930 . S
H644 C654 0.930 . S
H645 C655 0.930 . S
C646 H640 0.930 . S
C646 C647 1.355 1_565 S
C646 C648 1.415 . S
C647 C646 1.355 1_545 S
C647 C649 1.419 . S
C648 C646 1.415 . S
C648 C653 1.425 1_565 S
C648 C655 1.409 . S
C649 H641 0.930 . S
C649 C647 1.419 . S
C649 C650 1.362 . S
C650 H642 0.930 . S
C650 C649 1.362 . S
C650 C653 1.409 . S
C651 H643 0.930 . S
C651 C652 1.355 1_545 S
C651 C653 1.415 . S
C652 C651 1.355 1_565 S
C652 C654 1.419 . S
C653 C648 1.425 1_545 S
C653 C650 1.409 . S
C653 C651 1.415 . S
C654 H644 0.930 . S
C654 C652 1.419 . S
C654 C655 1.362 . S
C655 H645 0.930 . S
C655 C648 1.409 . S
C655 C654 1.362 . S
H656 C662 0.930 . S
H657 C665 0.930 . S
H658 C666 0.930 . S
H659 C667 0.930 . S
H660 C670 0.930 . S
H661 C671 0.930 . S
C662 H656 0.930 . S
C662 C663 1.355 . S
C662 C664 1.415 . S
C663 C662 1.355 . S
C663 C665 1.419 . S
C664 C662 1.415 . S
C664 C669 1.425 . S
C664 C671 1.409 . S
C665 H657 0.930 . S
C665 C663 1.419 . S
C665 C666 1.362 . S
C666 H658 0.930 . S
C666 C665 1.362 . S
C666 C669 1.409 . S
C667 H659 0.930 . S
C667 C668 1.355 . S
C667 C669 1.415 . S
C668 C667 1.355 . S
C668 C670 1.419 . S
C669 C664 1.425 . S
C669 C666 1.409 . S
C669 C667 1.415 . S
C670 H660 0.930 . S
C670 C668 1.419 . S
C670 C671 1.362 . S
C671 H661 0.930 . S
C671 C664 1.409 . S
C671 C670 1.362 . S
H672 C678 0.930 . S
H673 C681 0.930 . S
H674 C682 0.930 . S
H675 C683 0.930 . S
H676 C686 0.930 . S
H677 C687 0.930 . S
C678 H672 0.930 . S
C678 C679 1.355 . S
C678 C680 1.415 . S
C679 C678 1.355 . S
C679 C681 1.419 . S
C680 C678 1.415 . S
C680 C685 1.425 . S
C680 C687 1.409 . S
C681 H673 0.930 . S
C681 C679 1.419 . S
C681 C682 1.362 . S
C682 H674 0.930 . S
C682 C681 1.362 . S
C682 C685 1.409 . S
C683 H675 0.930 . S
C683 C684 1.355 . S
C683 C685 1.415 . S
C684 C683 1.355 . S
C684 C686 1.419 . S
C685 C680 1.425 . S
C685 C682 1.409 . S
C685 C683 1.415 . S
C686 H676 0.930 . S
C686 C684 1.419 . S
C686 C687 1.362 . S
C687 H677 0.930 . S
C687 C680 1.409 . S
C687 C686 1.362 . S
H688 C694 0.930 . S
H689 C697 0.930 . S
H690 C698 0.930 . S
H691 C699 0.930 . S
H692 C702 0.930 . S
H693 C703 0.930 . S
C694 H688 0.930 . S
C694 C695 1.355 . S
C694 C696 1.415 . S
C695 C694 1.355 . S
C695 C697 1.419 . S
C696 C694 1.415 . S
C696 C701 1.425 . S
C696 C703 1.409 . S
C697 H689 0.930 . S
C697 C695 1.419 . S
C697 C698 1.362 . S
C698 H690 0.930 . S
C698 C697 1.362 . S
C698 C701 1.409 . S
C699 H691 0.930 . S
C699 C700 1.355 . S
C699 C701 1.415 . S
C700 C699 1.355 . S
C700 C702 1.419 . S
C701 C696 1.425 . S
C701 C698 1.409 . S
C701 C699 1.415 . S
C702 H692 0.930 . S
C702 C700 1.419 . S
C702 C703 1.362 . S
C703 H693 0.930 . S
C703 C696 1.409 . S
C703 C702 1.362 . S
H704 C710 0.930 . S
H705 C713 0.930 . S
H706 C714 0.930 . S
H707 C715 0.930 . S
H708 C718 0.930 . S
H709 C719 0.930 . S
C710 H704 0.930 . S
C710 C711 1.355 1_565 S
C710 C712 1.415 . S
C711 C710 1.355 1_545 S
C711 C713 1.419 . S
C712 C710 1.415 . S
C712 C717 1.425 1_565 S
C712 C719 1.409 . S
C713 H705 0.930 . S
C713 C711 1.419 . S
C713 C714 1.362 . S
C714 H706 0.930 . S
C714 C713 1.362 . S
C714 C717 1.409 . S
C715 H707 0.930 . S
C715 C716 1.355 . S
C715 C717 1.415 . S
C716 C715 1.355 . S
C716 C718 1.419 1_545 S
C717 C712 1.425 1_545 S
C717 C714 1.409 . S
C717 C715 1.415 . S
C718 H708 0.930 . S
C718 C716 1.419 1_565 S
C718 C719 1.362 . S
C719 H709 0.930 . S
C719 C712 1.409 . S
C719 C718 1.362 . S
H720 C726 0.930 . S
H721 C729 0.930 . S
H722 C730 0.930 . S
H723 C731 0.930 . S
H724 C734 0.930 1_556 S
H725 C735 0.930 . S
C726 H720 0.930 . S
C726 C727 1.355 . S
C726 C728 1.415 . S
C727 C726 1.355 . S
C727 C729 1.419 . S
C728 C726 1.415 . S
C728 C733 1.425 . S
C728 C735 1.409 . S
C729 H721 0.930 . S
C729 C727 1.419 . S
C729 C730 1.362 . S
C730 H722 0.930 . S
C730 C729 1.362 . S
C730 C733 1.409 . S
C731 H723 0.930 . S
C731 C732 1.355 . S
C731 C733 1.415 . S
C732 C731 1.355 . S
C732 C734 1.419 . S
C733 C728 1.425 . S
C733 C730 1.409 . S
C733 C731 1.415 . S
C734 H724 0.930 1_554 S
C734 C732 1.419 . S
C734 C735 1.362 . S
C735 H725 0.930 . S
C735 C728 1.409 . S
C735 C734 1.362 . S
H736 C742 0.930 1_554 S
H737 C745 0.930 . S
H738 C746 0.930 . S
H739 C747 0.930 . S
H740 C750 0.930 . S
H741 C751 0.930 1_554 S
C742 H736 0.930 1_556 S
C742 C743 1.355 . S
C742 C744 1.415 . S
C743 C742 1.355 . S
C743 C745 1.419 . S
C744 C742 1.415 . S
C744 C749 1.425 . S
C744 C751 1.409 . S
C745 H737 0.930 . S
C745 C743 1.419 . S
C745 C746 1.362 . S
C746 H738 0.930 . S
C746 C745 1.362 . S
C746 C749 1.409 . S
C747 H739 0.930 . S
C747 C748 1.355 . S
C747 C749 1.415 . S
C748 C747 1.355 . S
C748 C750 1.419 . S
C749 C744 1.425 . S
C749 C746 1.409 . S
C749 C747 1.415 . S
C750 H740 0.930 . S
C750 C748 1.419 . S
C750 C751 1.362 . S
C751 H741 0.930 1_556 S
C751 C744 1.409 . S
C751 C750 1.362 . S
H752 C758 0.930 . S
H753 C761 0.930 . S
H754 C762 0.930 . S
H755 C763 0.930 . S
H756 C766 0.929 1_455 S
H757 C767 0.930 . S
C758 H752 0.930 . S
C758 C759 1.355 1_556 S
C758 C760 1.415 . S
C759 C758 1.355 1_554 S
C759 C761 1.419 . S
C760 C758 1.415 . S
C760 C765 1.425 . S
C760 C767 1.409 . S
C761 H753 0.930 . S
C761 C759 1.419 . S
C761 C762 1.362 . S
C762 H754 0.930 . S
C762 C761 1.362 . S
C762 C765 1.409 1_554 S
C763 H755 0.930 . S
C763 C764 1.355 . S
C763 C765 1.415 . S
C764 C763 1.355 . S
C764 C766 1.419 . S
C765 C760 1.425 . S
C765 C762 1.409 1_556 S
C765 C763 1.415 . S
C766 H756 0.929 1_655 S
C766 C764 1.419 . S
C766 C767 1.362 . S
C767 H757 0.930 . S
C767 C760 1.409 . S
C767 C766 1.362 . S
H768 C774 0.930 . S
H769 C777 0.930 . S
H770 C778 0.930 . S
H771 C779 0.930 . S
H772 C782 0.930 . S
H773 C783 0.930 . S
C774 H768 0.930 . S
C774 C775 1.355 . S
C774 C776 1.415 . S
C775 C774 1.355 . S
C775 C777 1.419 . S
C776 C774 1.415 . S
C776 C781 1.425 . S
C776 C783 1.409 . S
C777 H769 0.930 . S
C777 C775 1.419 . S
C777 C778 1.362 . S
C778 H770 0.930 . S
C778 C777 1.362 . S
C778 C781 1.409 . S
C779 H771 0.930 . S
C779 C780 1.355 . S
C779 C781 1.415 . S
C780 C779 1.355 . S
C780 C782 1.419 . S
C781 C776 1.425 . S
C781 C778 1.409 . S
C781 C779 1.415 . S
C782 H772 0.930 . S
C782 C780 1.419 . S
C782 C783 1.362 . S
C783 H773 0.930 . S
C783 C776 1.409 . S
C783 C782 1.362 . S
H784 C790 0.930 . S
H785 C793 0.930 . S
H786 C794 0.930 . S
H787 C795 0.930 . S
H788 C798 0.930 . S
H789 C799 0.930 . S
C790 H784 0.930 . S
C790 C791 1.355 1_545 S
C790 C792 1.415 . S
C791 C790 1.355 1_565 S
C791 C793 1.419 . S
C792 C790 1.415 . S
C792 C797 1.425 1_545 S
C792 C799 1.409 . S
C793 H785 0.930 . S
C793 C791 1.419 . S
C793 C794 1.362 . S
C794 H786 0.930 . S
C794 C793 1.362 . S
C794 C797 1.409 . S
C795 H787 0.930 . S
C795 C796 1.355 . S
C795 C797 1.415 . S
C796 C795 1.355 . S
C796 C798 1.419 1_565 S
C797 C792 1.425 1_565 S
C797 C794 1.409 . S
C797 C795 1.415 . S
C798 H788 0.930 . S
C798 C796 1.419 1_545 S
C798 C799 1.362 . S
C799 H789 0.930 . S
C799 C792 1.409 . S
C799 C798 1.362 . S
H800 C806 0.930 . S
H801 C809 0.930 . S
H802 C810 0.930 . S
H803 C811 0.930 . S
H804 C814 0.930 . S
H805 C815 0.930 . S
C806 H800 0.930 . S
C806 C807 1.355 . S
C806 C808 1.415 . S
C807 C806 1.355 . S
C807 C809 1.419 . S
C808 C806 1.415 . S
C808 C813 1.425 . S
C808 C815 1.409 . S
C809 H801 0.930 . S
C809 C807 1.419 . S
C809 C810 1.362 . S
C810 H802 0.930 . S
C810 C809 1.362 . S
C810 C813 1.409 . S
C811 H803 0.930 . S
C811 C812 1.355 . S
C811 C813 1.415 . S
C812 C811 1.355 . S
C812 C814 1.419 . S
C813 C808 1.425 . S
C813 C810 1.409 . S
C813 C811 1.415 . S
C814 H804 0.930 . S
C814 C812 1.419 . S
C814 C815 1.362 . S
C815 H805 0.930 . S
C815 C808 1.409 . S
C815 C814 1.362 . S
H816 C822 0.930 . S
H817 C825 0.930 . S
H818 C826 0.930 . S
H819 C827 0.930 . S
H820 C830 0.930 . S
H821 C831 0.930 . S
C822 H816 0.930 . S
C822 C823 1.355 . S
C822 C824 1.415 . S
C823 C822 1.355 . S
C823 C825 1.419 . S
C824 C822 1.415 . S
C824 C829 1.425 . S
C824 C831 1.409 . S
C825 H817 0.930 . S
C825 C823 1.419 . S
C825 C826 1.362 . S
C826 H818 0.930 . S
C826 C825 1.362 . S
C826 C829 1.409 . S
C827 H819 0.930 . S
C827 C828 1.355 . S
C827 C829 1.415 . S
C828 C827 1.355 . S
C828 C830 1.419 . S
C829 C824 1.425 . S
C829 C826 1.409 . S
C829 C827 1.415 . S
C830 H820 0.930 . S
C830 C828 1.419 . S
C830 C831 1.362 . S
C831 H821 0.930 . S
C831 C824 1.409 . S
C831 C830 1.362 . S
H832 C838 0.930 . S
H833 C841 0.930 . S
H834 C842 0.930 . S
H835 C843 0.930 . S
H836 C846 0.930 1_455 S
H837 C847 0.930 . S
C838 H832 0.930 . S
C838 C839 1.355 . S
C838 C840 1.415 . S
C839 C838 1.355 . S
C839 C841 1.419 . S
C840 C838 1.415 . S
C840 C845 1.425 . S
C840 C847 1.409 . S
C841 H833 0.930 . S
C841 C839 1.419 . S
C841 C842 1.362 . S
C842 H834 0.930 . S
C842 C841 1.362 . S
C842 C845 1.409 . S
C843 H835 0.930 . S
C843 C844 1.355 . S
C843 C845 1.415 . S
C844 C843 1.355 . S
C844 C846 1.419 . S
C845 C840 1.425 . S
C845 C842 1.409 . S
C845 C843 1.415 . S
C846 H836 0.930 1_655 S
C846 C844 1.419 . S
C846 C847 1.362 . S
C847 H837 0.930 . S
C847 C840 1.409 . S
C847 C846 1.362 . S
H848 C854 0.930 . S
H849 C857 0.930 . S
H850 C858 0.930 . S
H851 C859 0.930 . S
H852 C862 0.930 . S
H853 C863 0.930 . S
C854 H848 0.930 . S
C854 C855 1.355 1_565 S
C854 C856 1.415 . S
C855 C854 1.355 1_545 S
C855 C857 1.419 . S
C856 C854 1.415 . S
C856 C861 1.425 1_565 S
C856 C863 1.409 . S
C857 H849 0.930 . S
C857 C855 1.419 . S
C857 C858 1.362 . S
C858 H850 0.930 . S
C858 C857 1.362 . S
C858 C861 1.409 . S
C859 H851 0.930 . S
C859 C860 1.355 . S
C859 C861 1.415 . S
C860 C859 1.355 . S
C860 C862 1.419 1_545 S
C861 C856 1.425 1_545 S
C861 C858 1.409 . S
C861 C859 1.415 . S
C862 H852 0.930 . S
C862 C860 1.419 1_565 S
C862 C863 1.362 . S
C863 H853 0.930 . S
C863 C856 1.409 . S
C863 C862 1.362 . S
H864 C870 0.930 . S
H865 C873 0.930 . S
H866 C874 0.930 . S
H867 C875 0.930 . S
H868 C878 0.930 1_556 S
H869 C879 0.930 . S
C870 H864 0.930 . S
C870 C871 1.355 . S
C870 C872 1.415 . S
C871 C870 1.355 . S
C871 C873 1.419 . S
C872 C870 1.415 . S
C872 C877 1.425 . S
C872 C879 1.409 . S
C873 H865 0.930 . S
C873 C871 1.419 . S
C873 C874 1.362 . S
C874 H866 0.930 . S
C874 C873 1.362 . S
C874 C877 1.409 . S
C875 H867 0.930 . S
C875 C876 1.355 . S
C875 C877 1.415 . S
C876 C875 1.355 . S
C876 C878 1.419 . S
C877 C872 1.425 . S
C877 C874 1.409 . S
C877 C875 1.415 . S
C878 H868 0.930 1_554 S
C878 C876 1.419 . S
C878 C879 1.362 . S
C879 H869 0.930 . S
C879 C872 1.409 . S
C879 C878 1.362 . S
H880 C886 0.930 . S
H881 C889 0.930 . S
H882 C890 0.930 . S
H883 C891 0.930 . S
H884 C894 0.930 . S
H885 C895 0.930 . S
C886 H880 0.930 . S
C886 C887 1.355 . S
C886 C888 1.415 . S
C887 C886 1.355 . S
C887 C889 1.419 . S
C888 C886 1.415 . S
C888 C893 1.425 . S
C888 C895 1.409 . S
C889 H881 0.930 . S
C889 C887 1.419 . S
C889 C890 1.362 . S
C890 H882 0.930 . S
C890 C889 1.362 . S
C890 C893 1.409 . S
C891 H883 0.930 . S
C891 C892 1.355 . S
C891 C893 1.415 . S
C892 C891 1.355 . S
C892 C894 1.419 . S
C893 C888 1.425 . S
C893 C890 1.409 . S
C893 C891 1.415 . S
C894 H884 0.930 . S
C894 C892 1.419 . S
C894 C895 1.362 . S
C895 H885 0.930 . S
C895 C888 1.409 . S
C895 C894 1.362 . S
H896 C902 0.930 . S
H897 C905 0.930 . S
H898 C906 0.930 . S
H899 C907 0.930 . S
H900 C910 0.930 . S
H901 C911 0.930 . S
C902 H896 0.930 . S
C902 C903 1.355 . S
C902 C904 1.415 . S
C903 C902 1.355 . S
C903 C905 1.419 . S
C904 C902 1.415 . S
C904 C909 1.425 . S
C904 C911 1.409 . S
C905 H897 0.930 . S
C905 C903 1.419 . S
C905 C906 1.362 . S
C906 H898 0.930 . S
C906 C905 1.362 . S
C906 C909 1.409 . S
C907 H899 0.930 . S
C907 C908 1.355 . S
C907 C909 1.415 . S
C908 C907 1.355 . S
C908 C910 1.419 . S
C909 C904 1.425 . S
C909 C906 1.409 . S
C909 C907 1.415 . S
C910 H900 0.930 . S
C910 C908 1.419 . S
C910 C911 1.362 . S
C911 H901 0.930 . S
C911 C904 1.409 . S
C911 C910 1.362 . S
H912 C918 0.930 . S
H913 C921 0.930 . S
H914 C922 0.930 . S
H915 C923 0.930 1_565 S
H916 C926 0.930 . S
H917 C927 0.930 . S
C918 H912 0.930 . S
C918 C919 1.355 . S
C918 C920 1.415 . S
C919 C918 1.355 . S
C919 C921 1.419 1_545 S
C920 C918 1.415 . S
C920 C925 1.425 . S
C920 C927 1.409 . S
C921 H913 0.930 . S
C921 C919 1.419 1_565 S
C921 C922 1.362 . S
C922 H914 0.930 . S
C922 C921 1.362 . S
C922 C925 1.409 1_565 S
C923 H915 0.930 1_545 S
C923 C924 1.355 . S
C923 C925 1.415 . S
C924 C923 1.355 . S
C924 C926 1.419 . S
C925 C920 1.425 . S
C925 C922 1.409 1_545 S
C925 C923 1.415 . S
C926 H916 0.930 . S
C926 C924 1.419 . S
C926 C927 1.362 . S
C927 H917 0.930 . S
C927 C920 1.409 . S
C927 C926 1.362 . S
H928 C934 0.930 . S
H929 C937 0.930 . S
H930 C938 0.930 . S
H931 C939 0.930 . S
H932 C942 0.930 . S
H933 C943 0.930 . S
C934 H928 0.930 . S
C934 C935 1.355 1_556 S
C934 C936 1.415 . S
C935 C934 1.355 1_554 S
C935 C937 1.419 . S
C936 C934 1.415 . S
C936 C941 1.425 1_556 S
C936 C943 1.409 . S
C937 H929 0.930 . S
C937 C935 1.419 . S
C937 C938 1.362 . S
C938 H930 0.930 . S
C938 C937 1.362 . S
C938 C941 1.409 . S
C939 H931 0.930 . S
C939 C940 1.355 1_554 S
C939 C941 1.415 . S
C940 C939 1.355 1_556 S
C940 C942 1.419 . S
C941 C936 1.425 1_554 S
C941 C938 1.409 . S
C941 C939 1.415 . S
C942 H932 0.930 . S
C942 C940 1.419 . S
C942 C943 1.362 . S
C943 H933 0.930 . S
C943 C936 1.409 . S
C943 C942 1.362 . S
H944 C950 0.930 . S
H945 C953 0.930 . S
H946 C954 0.930 . S
H947 C955 0.930 . S
H948 C958 0.930 . S
H949 C959 0.930 . S
C950 H944 0.930 . S
C950 C951 1.355 . S
C950 C952 1.415 . S
C951 C950 1.355 . S
C951 C953 1.419 . S
C952 C950 1.415 . S
C952 C957 1.425 . S
C952 C959 1.409 . S
C953 H945 0.930 . S
C953 C951 1.419 . S
C953 C954 1.362 . S
C954 H946 0.930 . S
C954 C953 1.362 . S
C954 C957 1.409 . S
C955 H947 0.930 . S
C955 C956 1.355 . S
C955 C957 1.415 . S
C956 C955 1.355 . S
C956 C958 1.419 . S
C957 C952 1.425 . S
C957 C954 1.409 . S
C957 C955 1.415 . S
C958 H948 0.930 . S
C958 C956 1.419 . S
C958 C959 1.362 . S
C959 H949 0.930 . S
C959 C952 1.409 . S
C959 C958 1.362 . S
H960 C966 0.930 . S
H961 C969 0.930 . S
H962 C970 0.930 . S
H963 C971 0.930 . S
H964 C974 0.930 . S
H965 C975 0.930 . S
C966 H960 0.930 . S
C966 C967 1.355 . S
C966 C968 1.415 . S
C967 C966 1.355 . S
C967 C969 1.419 . S
C968 C966 1.415 . S
C968 C973 1.425 . S
C968 C975 1.409 . S
C969 H961 0.930 . S
C969 C967 1.419 . S
C969 C970 1.362 . S
C970 H962 0.930 . S
C970 C969 1.362 . S
C970 C973 1.409 . S
C971 H963 0.930 . S
C971 C972 1.355 . S
C971 C973 1.415 . S
C972 C971 1.355 . S
C972 C974 1.419 . S
C973 C968 1.425 . S
C973 C970 1.409 . S
C973 C971 1.415 . S
C974 H964 0.930 . S
C974 C972 1.419 . S
C974 C975 1.362 . S
C975 H965 0.930 . S
C975 C968 1.409 . S
C975 C974 1.362 . S
H976 C982 0.930 . S
H977 C985 0.930 . S
H978 C986 0.930 . S
H979 C987 0.930 1_545 S
H980 C990 0.930 . S
H981 C991 0.930 . S
C982 H976 0.930 . S
C982 C983 1.355 . S
C982 C984 1.415 . S
C983 C982 1.355 . S
C983 C985 1.419 1_565 S
C984 C982 1.415 . S
C984 C989 1.425 . S
C984 C991 1.409 . S
C985 H977 0.930 . S
C985 C983 1.419 1_545 S
C985 C986 1.362 . S
C986 H978 0.930 . S
C986 C985 1.362 . S
C986 C989 1.409 1_545 S
C987 H979 0.930 1_565 S
C987 C988 1.355 . S
C987 C989 1.415 . S
C988 C987 1.355 . S
C988 C990 1.419 . S
C989 C984 1.425 . S
C989 C986 1.409 1_565 S
C989 C987 1.415 . S
C990 H980 0.930 . S
C990 C988 1.419 . S
C990 C991 1.362 . S
C991 H981 0.930 . S
C991 C984 1.409 . S
C991 C990 1.362 . S
H992 C998 0.930 . S
H993 C1001 0.930 . S
H994 C1002 0.930 . S
H995 C1003 0.930 . S
H996 C1006 0.930 . S
H997 C1007 0.930 . S
C998 H992 0.930 . S
C998 C999 1.355 . S
C998 C1000 1.415 . S
C999 C998 1.355 . S
C999 C1001 1.419 . S
C1000 C998 1.415 . S
C1000 C1005 1.425 . S
C1000 C1007 1.409 . S
C1001 H993 0.930 . S
C1001 C999 1.419 . S
C1001 C1002 1.362 . S
C1002 H994 0.930 . S
C1002 C1001 1.362 . S
C1002 C1005 1.409 . S
C1003 H995 0.930 . S
C1003 C1004 1.355 . S
C1003 C1005 1.415 . S
C1004 C1003 1.355 . S
C1004 C1006 1.419 . S
C1005 C1000 1.425 . S
C1005 C1002 1.409 . S
C1005 C1003 1.415 . S
C1006 H996 0.930 . S
C1006 C1004 1.419 . S
C1006 C1007 1.362 . S
C1007 H997 0.930 . S
C1007 C1000 1.409 . S
C1007 C1006 1.362 . S
H1008 C1014 0.930 . S
H1009 C1017 0.930 . S
H1010 C1018 0.930 . S
H1011 C1019 0.930 . S
H1012 C1022 0.930 . S
H1013 C1023 0.930 . S
C1014 H1008 0.930 . S
C1014 C1015 1.355 . S
C1014 C1016 1.415 . S
C1015 C1014 1.355 . S
C1015 C1017 1.419 . S
C1016 C1014 1.415 . S
C1016 C1021 1.425 . S
C1016 C1023 1.409 . S
C1017 H1009 0.930 . S
C1017 C1015 1.419 . S
C1017 C1018 1.362 . S
C1018 H1010 0.930 . S
C1018 C1017 1.362 . S
C1018 C1021 1.409 . S
C1019 H1011 0.930 . S
C1019 C1020 1.355 . S
C1019 C1021 1.415 . S
C1020 C1019 1.355 . S
C1020 C1022 1.419 . S
C1021 C1016 1.425 . S
C1021 C1018 1.409 . S
C1021 C1019 1.415 . S
C1022 H1012 0.930 . S
C1022 C1020 1.419 . S
C1022 C1023 1.362 . S
C1023 H1013 0.930 . S
C1023 C1016 1.409 . S
C1023 C1022 1.362 . S
C647 C391 0.952 . S
C652 C489 0.999 . S
C668 C529 2.089 . S
C663 C451 2.289 . S
C684 C578 1.710 . S
C679 C241 1.685 . S
C700 C609 2.230 . S
C695 C331 2.059 . S
C716 C498 0.957 . S
C711 C121 0.995 1_545 S
C727 C211 2.189 . S
C732 C538 2.138 1_554 S
C743 C31 1.712 1_556 S
C748 C569 1.682 . S
C759 C91 2.245 . S
C764 C618 2.237 1_655 S
C780 C499 1.704 . S
C775 C301 1.211 . S
C796 C539 1.185 . S
C791 C380 1.111 1_565 S
C812 C575 0.782 . S
C807 C440 0.794 . S
C823 C260 1.422 . S
C828 C619 1.750 . S
C839 C61 1.349 . S
C844 C490 1.719 1_655 S
C860 C530 1.231 . S
C855 C140 1.058 1_545 S
C876 C566 0.688 . S
C871 C200 0.640 . S
C887 C20 1.601 . S
C892 C610 1.720 . S
C903 C320 2.068 . S
C908 C495 2.203 . S
C919 C361 1.653 . S
C924 C535 1.750 . S
C940 C579 3.024 . S
C935 C421 2.500 . S
C956 C615 1.820 . S
C951 C271 1.834 . S
C967 C80 2.152 . S
C972 C486 2.212 . S
C988 C526 1.766 . S
C983 C151 1.759 . S
C1004 C570 3.030 . S
C999 C181 2.454 . S
C1015 C1 1.669 . S
C1020 C606 1.813 . S
