# Generated by pormake.
# Topology zzz, (3,6)-cn, num edge types: 1
# Building blocks:
#     Node 0, Type 0, BuildingBlock: MIDCAF_clean_linker_0, # of connection points: 3
#     Node 1, Type 0, BuildingBlock: MIDCAF_clean_linker_0, # of connection points: 3
#     Node 2, Type 0, BuildingBlock: MIDCAF_clean_linker_0, # of connection points: 3
#     Node 3, Type 0, BuildingBlock: MIDCAF_clean_linker_0, # of connection points: 3
#     Node 4, Type 0, BuildingBlock: MIDCAF_clean_linker_0, # of connection points: 3
#     Node 5, Type 0, BuildingBlock: MIDCAF_clean_linker_0, # of connection points: 3
#     Node 6, Type 0, BuildingBlock: MIDCAF_clean_linker_0, # of connection points: 3
#     Node 7, Type 0, BuildingBlock: MIDCAF_clean_linker_0, # of connection points: 3
#     Node 8, Type 1, BuildingBlock: CUKXOW_clean_sbu_0, # of connection points: 6
#     Node 9, Type 1, BuildingBlock: CUKXOW_clean_sbu_0, # of connection points: 6
#     Node 10, Type 1, BuildingBlock: CUKXOW_clean_sbu_0, # of connection points: 6
#     Node 11, Type 1, BuildingBlock: CUKXOW_clean_sbu_0, # of connection points: 6
#     Edge 12, Type (0, 1), BuildingBlock: MIFKUJ_clean_linker_0, # of connection points: 2
#     Edge 13, Type (0, 1), BuildingBlock: MIFKUJ_clean_linker_0, # of connection points: 2
#     Edge 14, Type (0, 1), BuildingBlock: MIFKUJ_clean_linker_0, # of connection points: 2
#     Edge 15, Type (0, 1), BuildingBlock: MIFKUJ_clean_linker_0, # of connection points: 2
#     Edge 16, Type (0, 1), BuildingBlock: MIFKUJ_clean_linker_0, # of connection points: 2
#     Edge 17, Type (0, 1), BuildingBlock: MIFKUJ_clean_linker_0, # of connection points: 2
#     Edge 18, Type (0, 1), BuildingBlock: MIFKUJ_clean_linker_0, # of connection points: 2
#     Edge 19, Type (0, 1), BuildingBlock: MIFKUJ_clean_linker_0, # of connection points: 2
#     Edge 20, Type (0, 1), BuildingBlock: MIFKUJ_clean_linker_0, # of connection points: 2
#     Edge 21, Type (0, 1), BuildingBlock: MIFKUJ_clean_linker_0, # of connection points: 2
#     Edge 22, Type (0, 1), BuildingBlock: MIFKUJ_clean_linker_0, # of connection points: 2
#     Edge 23, Type (0, 1), BuildingBlock: MIFKUJ_clean_linker_0, # of connection points: 2
#     Edge 24, Type (0, 1), BuildingBlock: MIFKUJ_clean_linker_0, # of connection points: 2
#     Edge 25, Type (0, 1), BuildingBlock: MIFKUJ_clean_linker_0, # of connection points: 2
#     Edge 26, Type (0, 1), BuildingBlock: MIFKUJ_clean_linker_0, # of connection points: 2
#     Edge 27, Type (0, 1), BuildingBlock: MIFKUJ_clean_linker_0, # of connection points: 2
#     Edge 28, Type (0, 1), BuildingBlock: MIFKUJ_clean_linker_0, # of connection points: 2
#     Edge 29, Type (0, 1), BuildingBlock: MIFKUJ_clean_linker_0, # of connection points: 2
#     Edge 30, Type (0, 1), BuildingBlock: MIFKUJ_clean_linker_0, # of connection points: 2
#     Edge 31, Type (0, 1), BuildingBlock: MIFKUJ_clean_linker_0, # of connection points: 2
#     Edge 32, Type (0, 1), BuildingBlock: MIFKUJ_clean_linker_0, # of connection points: 2
#     Edge 33, Type (0, 1), BuildingBlock: MIFKUJ_clean_linker_0, # of connection points: 2
#     Edge 34, Type (0, 1), BuildingBlock: MIFKUJ_clean_linker_0, # of connection points: 2
#     Edge 35, Type (0, 1), BuildingBlock: MIFKUJ_clean_linker_0, # of connection points: 2
# Relax obj value: 0.219
# Max RMSD: 0.233
# Mean RMSD: 0.189
data_MOF--net-zzz--node1-CUKXOW_clean_sbu_0--node2-MIDCAF_clean_linker_0--edge1-MIFKUJ_clean_linker_0
_symmetry_space_group_name_H-M    P1
_symmetry_Int_Tables_number       1
_symmetry_cell_setting            triclinic
loop_
_symmetry_equiv_pos_as_xyz
'x, y, z'
_cell_length_a     72.614565
_cell_length_b     70.38631
_cell_length_c     25.296325
_cell_angle_alpha  92.173622
_cell_angle_beta   88.572
_cell_angle_gamma 95.379713
loop_
_atom_site_label
_atom_site_type_symbol
_atom_site_fract_x
_atom_site_fract_y
_atom_site_fract_z
_atom_type_partial_charge
C0 C 0.79562 0.43367 0.2518 0.0
C1 C 0.79237 0.44946 0.28526 0.0
C2 C 0.77787 0.46046 0.27349 0.0
C3 C 0.76767 0.45648 0.2274 0.0
H4 H 0.71363 0.45588 0.14031 0.0
H5 H 0.68479 0.46813 0.11413 0.0
H6 H 0.70418 0.46803 0.95137 0.0
H7 H 0.73272 0.45611 0.97697 0.0
H8 H 0.77022 0.44373 0.94409 0.0
H9 H 0.79547 0.44201 0.87917 0.0
H10 H 0.82501 0.41059 0.98729 0.0
H11 H 0.7999 0.41242 0.05277 0.0
H12 H 0.78911 0.41811 0.17954 0.0
H13 H 0.80675 0.42498 0.25927 0.0
H14 H 0.77489 0.47258 0.29885 0.0
H15 H 0.75727 0.46581 0.2179 0.0
N16 N 0.7483 0.44695 0.12629 0.0
N17 N 0.75393 0.44026 0.03593 0.0
N18 N 0.77521 0.43306 0.0981 0.0
C19 C 0.74284 0.44694 0.07508 0.0
C20 C 0.77007 0.43323 0.04705 0.0
C21 C 0.7645 0.43985 0.13794 0.0
C22 C 0.72549 0.45492 0.06081 0.0
C23 C 0.71176 0.45861 0.09904 0.0
C24 C 0.69523 0.46555 0.08406 0.0
C25 C 0.69228 0.46915 0.03074 0.0
C26 C 0.70614 0.46571 0.99287 0.0
C27 C 0.72248 0.45867 0.00763 0.0
C28 C 0.7832 0.4285 0.00399 0.0
C29 C 0.78184 0.436 0.95363 0.0
C30 C 0.79628 0.43505 0.91642 0.0
C31 C 0.81216 0.42629 0.92854 0.0
C32 C 0.81283 0.41732 0.97697 0.0
C33 C 0.79852 0.41851 0.01454 0.0
C34 C 0.77195 0.44157 0.19204 0.0
C35 C 0.78556 0.42981 0.20576 0.0
C36 C 0.89516 0.79616 0.25967 0.0
C37 C 0.9108 0.79215 0.28727 0.0
C38 C 0.92075 0.77689 0.26901 0.0
C39 C 0.91578 0.76659 0.22223 0.0
H40 H 0.92394 0.7177 0.11292 0.0
H41 H 0.93258 0.68703 0.07768 0.0
H42 H 0.89251 0.68807 0.95423 0.0
H43 H 0.88489 0.71928 0.98768 0.0
H44 H 0.89331 0.76694 0.93987 0.0
H45 H 0.89814 0.79205 0.87575 0.0
H46 H 0.89912 0.83461 0.00391 0.0
H47 H 0.89326 0.8099 0.06669 0.0
H48 H 0.87896 0.79033 0.19048 0.0
H49 H 0.88732 0.80793 0.27247 0.0
H50 H 0.93283 0.77347 0.28974 0.0
H51 H 0.92426 0.7556 0.20742 0.0
N52 N 0.90153 0.74624 0.12226 0.0
N53 N 0.8965 0.75322 0.03374 0.0
N54 N 0.89477 0.77688 0.10055 0.0
C55 C 0.90013 0.74047 0.07036 0.0
C56 C 0.89392 0.77154 0.04858 0.0
C57 C 0.89844 0.76442 0.13755 0.0
C58 C 0.90387 0.72092 0.05276 0.0
C59 C 0.91691 0.71125 0.0785 0.0
C60 C 0.92178 0.69357 0.05833 0.0
C61 C 0.91341 0.68498 0.01258 0.0
C62 C 0.8997 0.69438 0.9885 0.0
C63 C 0.89518 0.71223 0.00793 0.0
C64 C 0.89322 0.78633 0.00862 0.0
C65 C 0.89409 0.7817 0.95409 0.0
C66 C 0.89703 0.79612 0.91732 0.0
C67 C 0.89936 0.81547 0.93436 0.0
C68 C 0.89719 0.82001 0.98867 0.0
C69 C 0.89399 0.80568 0.02513 0.0
C70 C 0.90102 0.77169 0.19258 0.0
C71 C 0.89042 0.78614 0.2126 0.0
C72 C 0.71831 0.99331 0.35774 0.0
C73 C 0.71828 0.01094 0.38577 0.0
C74 C 0.72941 0.0268 0.36686 0.0
C75 C 0.73899 0.02546 0.31831 0.0
H76 H 0.79445 0.00814 0.19807 0.0
H77 H 0.8244 0.009 0.1507 0.0
H78 H 0.79837 0.02385 0.00827 0.0
H79 H 0.76876 0.02285 0.05461 0.0
H80 H 0.72741 0.00781 0.03751 0.0
H81 H 0.70042 0.00714 0.98201 0.0
H82 H 0.66477 0.00496 0.12141 0.0
H83 H 0.69162 0.00517 0.17688 0.0
H84 H 0.72596 0.97881 0.2857 0.0
H85 H 0.7097 0.9809 0.37086 0.0
H86 H 0.72964 0.04054 0.38776 0.0
H87 H 0.74614 0.03824 0.30224 0.0
N88 N 0.75822 0.01169 0.2092 0.0
N89 N 0.7454 0.01072 0.12456 0.0
N90 N 0.72599 0.00676 0.19894 0.0
C91 C 0.76052 0.01259 0.15562 0.0
C92 C 0.72811 0.00784 0.14582 0.0
C93 C 0.74086 0.00866 0.23069 0.0
C94 C 0.77913 0.01512 0.13 0.0
C95 C 0.7952 0.0118 0.15682 0.0
C96 C 0.81234 0.01231 0.12977 0.0
C97 C 0.81364 0.01614 0.07555 0.0
C98 C 0.79773 0.02038 0.04967 0.0
C99 C 0.78073 0.01985 0.07645 0.0
C100 C 0.71173 0.00661 0.11175 0.0
C101 C 0.71382 0.00708 0.05639 0.0
C102 C 0.69836 0.0068 0.02453 0.0
C103 C 0.68046 0.00607 0.04731 0.0
C104 C 0.67835 0.00528 0.10256 0.0
C105 C 0.69379 0.00551 0.13441 0.0
C106 C 0.73738 0.00831 0.28801 0.0
C107 C 0.72763 0.99208 0.30901 0.0
C108 C 0.61564 0.67472 0.99007 0.0
C109 C 0.61097 0.68011 0.93954 0.0
C110 C 0.61215 0.6996 0.92863 0.0
C111 C 0.61603 0.71343 0.96886 0.0
H112 H 0.62224 0.77275 0.0114 0.0
H113 H 0.61034 0.80119 0.97948 0.0
H114 H 0.57499 0.80434 0.11877 0.0
H115 H 0.58721 0.77571 0.15149 0.0
H116 H 0.59259 0.74087 0.24259 0.0
H117 H 0.58622 0.72479 0.3263 0.0
H118 H 0.62278 0.68223 0.27627 0.0
H119 H 0.62927 0.69826 0.1938 0.0
H120 H 0.62171 0.68382 0.06978 0.0
H121 H 0.61481 0.6598 0.99976 0.0
H122 H 0.60891 0.70415 0.88976 0.0
H123 H 0.61564 0.7283 0.95977 0.0
N124 N 0.61442 0.7403 0.05662 0.0
N125 N 0.60937 0.7465 0.1475 0.0
N126 N 0.6171 0.7163 0.11628 0.0
C127 C 0.61038 0.75263 0.09691 0.0
C128 C 0.61311 0.72834 0.15739 0.0
C129 C 0.61772 0.72211 0.06576 0.0
C130 C 0.60546 0.7718 0.08362 0.0
C131 C 0.6121 0.77961 0.03572 0.0
C132 C 0.60521 0.79587 0.01723 0.0
C133 C 0.59139 0.80473 0.04595 0.0
C134 C 0.58561 0.79777 0.0957 0.0
C135 C 0.59261 0.78141 0.11446 0.0
C136 C 0.6113 0.72075 0.21134 0.0
C137 C 0.59956 0.72833 0.25011 0.0
C138 C 0.59582 0.71905 0.29785 0.0
C139 C 0.60394 0.70218 0.30791 0.0
C140 C 0.61645 0.69529 0.27023 0.0
C141 C 0.62004 0.70442 0.22261 0.0
C142 C 0.61867 0.70801 0.02092 0.0
C143 C 0.61946 0.68854 0.03039 0.0
C144 C 0.21275 0.5678 0.0841 0.0
C145 C 0.21615 0.55144 0.05326 0.0
C146 C 0.22918 0.53956 0.07046 0.0
C147 C 0.23819 0.54369 0.11852 0.0
H148 H 0.28345 0.53154 0.22292 0.0
H149 H 0.31246 0.52094 0.25404 0.0
H150 H 0.31333 0.5638 0.38083 0.0
H151 H 0.2845 0.5742 0.35052 0.0
H152 H 0.23799 0.56919 0.4012 0.0
H153 H 0.21408 0.57452 0.46825 0.0
H154 H 0.17978 0.5942 0.34847 0.0
H155 H 0.20359 0.58904 0.28157 0.0
H156 H 0.21797 0.58406 0.1561 0.0
H157 H 0.20263 0.57709 0.07221 0.0
H158 H 0.23206 0.52687 0.04735 0.0
H159 H 0.24771 0.534 0.13174 0.0
N160 N 0.25767 0.55683 0.21815 0.0
N161 N 0.25234 0.5669 0.30645 0.0
N162 N 0.2301 0.5701 0.243 0.0
C163 C 0.26352 0.55936 0.26892 0.0
C164 C 0.23558 0.57224 0.29388 0.0
C165 C 0.241 0.56247 0.20494 0.0
C166 C 0.28167 0.55364 0.28441 0.0
C167 C 0.28996 0.53878 0.2571 0.0
C168 C 0.30647 0.53265 0.27501 0.0
C169 C 0.31511 0.54159 0.31973 0.0
C170 C 0.30706 0.55677 0.34598 0.0
C171 C 0.29048 0.56264 0.32877 0.0
C172 C 0.22259 0.57842 0.33581 0.0
C173 C 0.22552 0.57504 0.38929 0.0
C174 C 0.21181 0.57801 0.42773 0.0
C175 C 0.19502 0.58464 0.41357 0.0
C176 C 0.19263 0.58923 0.36075 0.0
C177 C 0.20624 0.58611 0.32227 0.0
C178 C 0.23396 0.55951 0.1506 0.0
C179 C 0.22144 0.57171 0.13235 0.0
C180 C 0.12183 0.20622 0.10033 0.0
C181 C 0.10683 0.21048 0.07035 0.0
C182 C 0.09748 0.22654 0.08518 0.0
C183 C 0.10224 0.23734 0.13129 0.0
H184 H 0.10112 0.29091 0.22215 0.0
H185 H 0.09312 0.32279 0.25034 0.0
H186 H 0.11121 0.31381 0.40804 0.0
H187 H 0.11933 0.28222 0.38017 0.0
H188 H 0.10451 0.23563 0.40968 0.0
H189 H 0.09599 0.20934 0.46784 0.0
H190 H 0.12316 0.1712 0.36029 0.0
H191 H 0.13119 0.19737 0.30127 0.0
H192 H 0.13713 0.21233 0.17115 0.0
H193 H 0.12918 0.19385 0.0901 0.0
H194 H 0.08589 0.23013 0.06259 0.0
H195 H 0.09408 0.24891 0.14364 0.0
N196 N 0.11474 0.25799 0.23186 0.0
N197 N 0.1164 0.25141 0.32195 0.0
N198 N 0.11995 0.22728 0.25748 0.0
C199 C 0.11446 0.26408 0.28363 0.0
C200 C 0.11917 0.23299 0.30917 0.0
C201 C 0.11779 0.23961 0.21867 0.0
C202 C 0.11077 0.28394 0.29895 0.0
C203 C 0.10358 0.29582 0.26268 0.0
C204 C 0.0989 0.31404 0.27884 0.0
C205 C 0.10153 0.32079 0.33139 0.0
C206 C 0.10922 0.30912 0.36713 0.0
C207 C 0.11373 0.29091 0.35118 0.0
C208 C 0.11818 0.2185 0.35028 0.0
C209 C 0.1091 0.22176 0.39906 0.0
C210 C 0.10424 0.20666 0.43256 0.0
C211 C 0.10854 0.18807 0.41812 0.0
C212 C 0.11921 0.18526 0.37183 0.0
C213 C 0.12389 0.20028 0.33814 0.0
C214 C 0.11614 0.23195 0.16373 0.0
C215 C 0.12633 0.21675 0.14683 0.0
C216 C 0.29635 0.0037 0.04263 0.0
C217 C 0.30024 0.01894 0.00838 0.0
C218 C 0.29251 0.03626 0.02055 0.0
C219 C 0.28291 0.0389 0.06852 0.0
H220 H 0.22458 0.01242 0.18801 0.0
H221 H 0.19457 0.00396 0.2307 0.0
H222 H 0.21707 0.02335 0.38191 0.0
H223 H 0.24701 0.03142 0.33989 0.0
H224 H 0.29103 0.02817 0.35005 0.0
H225 H 0.31911 0.02581 0.39937 0.0
H226 H 0.35233 0.04574 0.26522 0.0
H227 H 0.32432 0.04816 0.21561 0.0
H228 H 0.28514 0.99484 0.11781 0.0
H229 H 0.30222 0.99024 0.03532 0.0
H230 H 0.29487 0.04818 0.99464 0.0
H231 H 0.27856 0.05286 0.07931 0.0
N232 N 0.25944 0.0249 0.18207 0.0
N233 N 0.27172 0.03193 0.26648 0.0
N234 N 0.29125 0.03345 0.19167 0.0
C235 C 0.25685 0.02694 0.23547 0.0
C236 C 0.28895 0.03528 0.24481 0.0
C237 C 0.27665 0.02843 0.16023 0.0
C238 C 0.2383 0.02254 0.26043 0.0
C239 C 0.22313 0.01492 0.23034 0.0
C240 C 0.2059 0.01011 0.25478 0.0
C241 C 0.20346 0.01282 0.30979 0.0
C242 C 0.21855 0.02069 0.33964 0.0
C243 C 0.23573 0.02546 0.31534 0.0
C244 C 0.30544 0.038 0.27851 0.0
C245 C 0.30427 0.03254 0.33145 0.0
C246 C 0.32034 0.03112 0.35966 0.0
C247 C 0.33784 0.03534 0.33573 0.0
C248 C 0.339 0.04243 0.28457 0.0
C249 C 0.32294 0.04368 0.25612 0.0
C250 C 0.28049 0.02411 0.10426 0.0
C251 C 0.28655 0.00628 0.09007 0.0
C252 C 0.40327 0.31164 0.36002 0.0
C253 C 0.41296 0.30673 0.40414 0.0
C254 C 0.41545 0.28743 0.4111 0.0
C255 C 0.40943 0.27349 0.37291 0.0
H256 H 0.38772 0.21341 0.32952 0.0
H257 H 0.39409 0.18118 0.3495 0.0
H258 H 0.42238 0.17557 0.19834 0.0
H259 H 0.41584 0.20809 0.17794 0.0
H260 H 0.41533 0.24939 0.09797 0.0
H261 H 0.42035 0.26838 0.01861 0.0
H262 H 0.38307 0.30804 0.08347 0.0
H263 H 0.37811 0.2892 0.16195 0.0
H264 H 0.39076 0.30221 0.28695 0.0
H265 H 0.40125 0.3264 0.35326 0.0
H266 H 0.4227 0.28322 0.44505 0.0
H267 H 0.41238 0.25889 0.37817 0.0
N268 N 0.39953 0.246 0.28702 0.0
N269 N 0.39841 0.2406 0.19468 0.0
N270 N 0.39658 0.27143 0.23218 0.0
C271 C 0.39943 0.23373 0.24414 0.0
C272 C 0.39662 0.2595 0.18879 0.0
C273 C 0.39818 0.26488 0.28133 0.0
C274 C 0.4014 0.21332 0.2523 0.0
C275 C 0.39507 0.20523 0.30013 0.0
C276 C 0.39859 0.18669 0.31143 0.0
C277 C 0.40873 0.17585 0.2755 0.0
C278 C 0.41457 0.18366 0.2268 0.0
C279 C 0.41075 0.20219 0.21504 0.0
C280 C 0.39645 0.26792 0.13619 0.0
C281 C 0.40779 0.26182 0.09432 0.0
C282 C 0.41076 0.27277 0.04917 0.0
C283 C 0.4022 0.28978 0.04494 0.0
C284 C 0.38974 0.29495 0.08514 0.0
C285 C 0.38699 0.2842 0.13032 0.0
C286 C 0.40099 0.27865 0.32677 0.0
C287 C 0.39737 0.29776 0.32174 0.0
Tb288 Tb 0.99583 0.98779 0.64284 0.0
C289 C 0.03903 0.99442 0.63317 0.0
Tb290 Tb 0.01727 0.01353 0.72763 0.0
O291 O -0.00031 0.00983 0.58332 0.0
O292 O 0.00039 0.0173 0.66306 0.0
O293 O 0.02439 0.98187 0.62585 0.0
C294 C 0.03585 0.04212 0.78229 0.0
O295 O 0.03889 0.00891 0.66834 0.0
C296 C 0.00905 0.97762 0.7518 0.0
C297 C 0.97397 0.0085 0.73467 0.0
O298 O 0.04036 0.03594 0.7352 0.0
O299 O 0.02119 0.03197 0.79877 0.0
O300 O 0.01252 0.99138 0.78668 0.0
O301 O 0.01295 0.98408 0.70702 0.0
O302 O 0.98898 0.02054 0.74204 0.0
O303 O 0.97371 0.99376 0.70005 0.0
C304 C 0.9779 0.9584 0.58954 0.0
O305 O 0.97448 0.96348 0.63841 0.0
O306 O 0.9911 0.97004 0.5707 0.0
C307 C 0.00383 0.02359 0.61782 0.0
Tb308 Tb 0.50215 0.01765 0.6462 0.0
C309 C 0.5395 0.99958 0.62874 0.0
Tb310 Tb 0.50748 0.97974 0.70107 0.0
O311 O 0.52169 0.03502 0.69638 0.0
O312 O 0.50852 0.00928 0.72193 0.0
O313 O 0.52717 0.00927 0.60584 0.0
C314 C 0.51836 0.95221 0.75966 0.0
O315 O 0.53519 0.98881 0.67018 0.0
C316 C 0.48934 0.97666 0.61189 0.0
C317 C 0.47144 1.0 0.729 0.0
O318 O 0.51725 0.95141 0.70845 0.0
O319 O 0.51342 0.9685 0.77768 0.0
O320 O 0.4865 0.96455 0.64943 0.0
O321 O 0.5026 0.98856 0.62427 0.0
O322 O 0.48156 0.98597 0.74032 0.0
O323 O 0.47668 0.01316 0.69396 0.0
C324 C 0.48619 0.04039 0.58238 0.0
O325 O 0.47805 0.02565 0.60526 0.0
O326 O 0.50345 0.04262 0.59597 0.0
C327 C 0.52145 0.02207 0.73197 0.0
Tb328 Tb 0.51128 0.51518 0.64966 0.0
C329 C 0.46945 0.5039 0.62548 0.0
Tb330 Tb 0.4888 0.48544 0.71981 0.0
O331 O 0.5097 0.49516 0.58092 0.0
O332 O 0.50884 0.48522 0.65745 0.0
O333 O 0.48346 0.51739 0.62259 0.0
C334 C 0.47124 0.45416 0.76056 0.0
O335 O 0.46962 0.48891 0.65597 0.0
C336 C 0.4932 0.52066 0.75942 0.0
C337 C 0.53003 0.49816 0.74776 0.0
O338 O 0.46428 0.47041 0.75737 0.0
O339 O 0.48787 0.45549 0.74021 0.0
O340 O 0.49039 0.50574 0.78834 0.0
O341 O 0.49147 0.51519 0.7119 0.0
O342 O 0.51624 0.48445 0.75089 0.0
O343 O 0.53004 0.51255 0.71511 0.0
C344 C 0.52941 0.54666 0.61115 0.0
O345 O 0.53661 0.53073 0.61784 0.0
O346 O 0.51214 0.54473 0.62565 0.0
C347 C 0.50733 0.48013 0.60946 0.0
Tb348 Tb 0.98913 0.50096 0.62958 0.0
C349 C 0.02238 0.47701 0.60109 0.0
Tb350 Tb 0.02235 0.50432 0.70527 0.0
O351 O 0.00678 0.51495 0.56808 0.0
O352 O 0.01162 0.52106 0.64816 0.0
O353 O 0.0045 0.47851 0.59436 0.0
C354 C 0.05598 0.51131 0.74599 0.0
O355 O 0.03215 0.48709 0.63809 0.0
C356 C 0.99388 0.48144 0.73469 0.0
C357 C 0.98864 0.52754 0.73489 0.0
O358 O 0.04505 0.49583 0.75199 0.0
O359 O 0.04789 0.52291 0.71766 0.0
O360 O 0.00556 0.49015 0.7677 0.0
O361 O 0.99959 0.48436 0.68795 0.0
O362 O 0.00656 0.52621 0.74185 0.0
O363 O 0.97893 0.51762 0.69741 0.0
C364 C 0.95631 0.49469 0.58332 0.0
O365 O 0.96656 0.51083 0.58476 0.0
O366 O 0.96453 0.48218 0.60793 0.0
C367 C 0.01779 0.52405 0.60214 0.0
H368 H 0.19686 0.9955 0.40429 0.0
H369 H 0.16731 0.98938 0.4514 0.0
H370 H 0.13925 0.01159 0.32208 0.0
H371 H 0.16893 0.01849 0.27554 0.0
H372 H 0.12792 0.02656 0.41148 0.0
H373 H 0.13491 0.96351 0.34638 0.0
H374 H 0.15055 0.93427 0.32818 0.0
H375 H 0.15466 0.92661 0.49491 0.0
H376 H 0.13928 0.95596 0.51416 0.0
H377 H 0.04331 0.9703 0.5468 0.0
H378 H 0.06965 0.9709 0.48432 0.0
H379 H 0.09854 0.01599 0.5785 0.0
H380 H 0.07238 0.01531 0.64152 0.0
H381 H 0.10627 0.96553 0.49479 0.0
H382 H 0.11986 0.04862 0.49326 0.0
H383 H 0.10254 0.0772 0.4961 0.0
H384 H 0.05376 0.04299 0.44453 0.0
H385 H 0.07078 0.0143 0.44107 0.0
C386 C 0.18441 0.99912 0.38585 0.0
C387 C 0.18528 0.00763 0.3363 0.0
C388 C 0.16748 0.99538 0.41257 0.0
C389 C 0.15102 0.99986 0.39011 0.0
C390 C 0.15177 0.00797 0.34012 0.0
C391 C 0.16873 0.01178 0.31339 0.0
C392 C 0.13325 0.99728 0.42047 0.0
C393 C 0.12319 0.0132 0.42958 0.0
C394 C 0.1268 0.97971 0.44304 0.0
C395 C 0.13606 0.96204 0.4317 0.0
C396 C 0.13928 0.95568 0.37918 0.0
C397 C 0.14807 0.93906 0.36867 0.0
C398 C 0.15363 0.92861 0.41036 0.0
C399 C 0.15036 0.93473 0.46266 0.0
C400 C 0.14159 0.95134 0.47339 0.0
C401 C 0.05536 0.98018 0.55465 0.0
C402 C 0.05569 0.99295 0.59888 0.0
C403 C 0.07036 0.98054 0.51877 0.0
C404 C 0.08585 0.99377 0.52628 0.0
C405 C 0.08652 0.00598 0.57144 0.0
C406 C 0.0716 0.00554 0.60743 0.0
C407 C 0.10137 0.99499 0.48704 0.0
C408 C 0.11102 0.97885 0.47646 0.0
C409 C 0.10722 0.01224 0.46206 0.0
C410 C 0.09659 0.02927 0.4673 0.0
C411 C 0.10542 0.0472 0.48267 0.0
C412 C 0.09568 0.06344 0.48419 0.0
C413 C 0.07709 0.06194 0.47026 0.0
C414 C 0.06815 0.04416 0.45541 0.0
C415 C 0.07782 0.02788 0.45386 0.0
H416 H 0.0696 0.07455 0.47127 0.0
H417 H 0.16043 0.91574 0.40214 0.0
H418 H 0.44323 0.16355 0.26773 0.0
H419 H 0.45396 0.13589 0.30881 0.0
H420 H 0.39812 0.11858 0.36155 0.0
H421 H 0.38742 0.14656 0.32137 0.0
H422 H 0.41928 0.11904 0.44062 0.0
H423 H 0.42203 0.09071 0.26909 0.0
H424 H 0.4291 0.08731 0.17358 0.0
H425 H 0.48725 0.09612 0.20376 0.0
H426 H 0.48054 0.09978 0.29948 0.0
H427 H 0.45003 0.03687 0.55553 0.0
H428 H 0.43493 0.05565 0.49279 0.0
H429 H 0.48705 0.08814 0.46003 0.0
H430 H 0.50228 0.06931 0.52296 0.0
H431 H 0.46494 0.07628 0.36753 0.0
H432 H 0.45948 0.1076 0.54152 0.0
H433 H 0.45062 0.10822 0.63629 0.0
H434 H 0.39429 0.09013 0.59753 0.0
H435 H 0.40289 0.08914 0.50246 0.0
C436 C 0.43317 0.15355 0.28677 0.0
C437 C 0.41451 0.15725 0.29154 0.0
C438 C 0.4393 0.13769 0.31024 0.0
C439 C 0.42686 0.12503 0.33825 0.0
C440 C 0.40802 0.12815 0.34044 0.0
C441 C 0.40191 0.14413 0.31744 0.0
C442 C 0.43384 0.10995 0.37004 0.0
C443 C 0.42891 0.1094 0.42408 0.0
C444 C 0.4466 0.09745 0.34905 0.0
C445 C 0.45076 0.09574 0.29144 0.0
C446 C 0.43632 0.09216 0.25532 0.0
C447 C 0.44027 0.09011 0.20115 0.0
C448 C 0.45861 0.09156 0.1826 0.0
C449 C 0.47305 0.09502 0.21819 0.0
C450 C 0.46918 0.09706 0.27242 0.0
C451 C 0.45827 0.04801 0.53497 0.0
C452 C 0.47728 0.05182 0.54447 0.0
C453 C 0.44964 0.05867 0.49905 0.0
C454 C 0.45988 0.07332 0.47206 0.0
C455 C 0.47895 0.07684 0.48046 0.0
C456 C 0.48759 0.06622 0.51664 0.0
C457 C 0.4505 0.08573 0.43748 0.0
C458 C 0.45503 0.08576 0.38329 0.0
C459 C 0.43706 0.09746 0.45796 0.0
C460 C 0.43185 0.09814 0.51499 0.0
C461 C 0.44523 0.10361 0.55325 0.0
C462 C 0.44026 0.10405 0.60698 0.0
C463 C 0.42191 0.09919 0.62291 0.0
C464 C 0.4085 0.09389 0.58511 0.0
C465 C 0.41341 0.09339 0.53131 0.0
H466 H 0.41809 0.09961 0.66452 0.0
H467 H 0.46163 0.08995 0.14064 0.0
H468 H 0.34687 0.56302 0.34691 0.0
H469 H 0.37352 0.55254 0.39126 0.0
H470 H 0.34818 0.49459 0.38601 0.0
H471 H 0.3214 0.50505 0.34138 0.0
H472 H 0.36014 0.5075 0.48681 0.0
H473 H 0.38475 0.5045 0.31027 0.0
H474 H 0.39275 0.51615 0.22116 0.0
H475 H 0.42832 0.56248 0.28862 0.0
H476 H 0.42032 0.55127 0.37824 0.0
H477 H 0.44068 0.47675 0.60365 0.0
H478 H 0.41475 0.47944 0.54521 0.0
H479 H 0.43552 0.53751 0.51422 0.0
H480 H 0.46162 0.53478 0.57109 0.0
H481 H 0.42545 0.51977 0.42553 0.0
H482 H 0.3981 0.52597 0.60052 0.0
H483 H 0.38973 0.51587 0.69097 0.0
H484 H 0.35911 0.46524 0.62799 0.0
H485 H 0.36749 0.47495 0.53712 0.0
C486 C 0.3471 0.54801 0.35464 0.0
C487 C 0.33211 0.53483 0.34078 0.0
C488 C 0.36234 0.54203 0.37975 0.0
C489 C 0.36283 0.52278 0.39173 0.0
C490 C 0.34806 0.50949 0.37695 0.0
C491 C 0.33287 0.51545 0.3512 0.0
C492 C 0.37832 0.51693 0.42254 0.0
C493 C 0.37442 0.50978 0.47303 0.0
C494 C 0.39692 0.52033 0.40492 0.0
C495 C 0.40182 0.52711 0.35104 0.0
C496 C 0.39416 0.51726 0.30616 0.0
C497 C 0.39872 0.52377 0.25553 0.0
C498 C 0.41101 0.54006 0.24924 0.0
C499 C 0.41879 0.54986 0.29356 0.0
C500 C 0.41427 0.54342 0.34428 0.0
C501 C 0.43967 0.49012 0.58457 0.0
C502 C 0.45323 0.50555 0.59212 0.0
C503 C 0.42482 0.49164 0.5512 0.0
C504 C 0.4231 0.50874 0.52554 0.0
C505 C 0.43658 0.52415 0.53332 0.0
C506 C 0.45149 0.52258 0.5661 0.0
C507 C 0.40733 0.51077 0.49047 0.0
C508 C 0.41118 0.5172 0.43911 0.0
C509 C 0.38868 0.5069 0.50752 0.0
C510 C 0.3836 0.50107 0.56208 0.0
C511 C 0.3897 0.51261 0.60599 0.0
C512 C 0.38493 0.50697 0.65731 0.0
C513 C 0.37394 0.48989 0.66522 0.0
C514 C 0.36765 0.47845 0.6218 0.0
C515 C 0.3724 0.48402 0.57038 0.0
H516 H 0.37026 0.48555 0.70499 0.0
H517 H 0.41452 0.54508 0.21001 0.0
H518 H 0.06907 0.33559 0.31097 0.0
H519 H 0.05762 0.36466 0.34991 0.0
H520 H 0.10863 0.37718 0.43362 0.0
H521 H 0.1201 0.34804 0.39503 0.0
H522 H 0.08009 0.37962 0.49886 0.0
H523 H 0.09752 0.40405 0.32945 0.0
H524 H 0.09869 0.40458 0.23203 0.0
H525 H 0.03978 0.40646 0.22997 0.0
H526 H 0.03821 0.40567 0.3274 0.0
H527 H 0.05876 0.46977 0.6021 0.0
H528 H 0.07381 0.44559 0.5497 0.0
H529 H 0.02258 0.42846 0.471 0.0
H530 H 0.00739 0.45276 0.52286 0.0
H531 H 0.05253 0.42962 0.40199 0.0
H532 H 0.0353 0.40315 0.57122 0.0
H533 H 0.03433 0.40284 0.66871 0.0
H534 H 0.09361 0.40509 0.67033 0.0
H535 H 0.09494 0.40566 0.57281 0.0
C536 C 0.078 0.34475 0.33677 0.0
C537 C 0.09547 0.33951 0.35007 0.0
C538 C 0.07144 0.36137 0.35903 0.0
C539 C 0.0823 0.37318 0.39451 0.0
C540 C 0.09998 0.36827 0.4065 0.0
C541 C 0.10651 0.35161 0.38449 0.0
C542 C 0.07472 0.38985 0.42201 0.0
C543 C 0.07439 0.39073 0.47756 0.0
C544 C 0.06685 0.40412 0.39435 0.0
C545 C 0.06773 0.40462 0.33573 0.0
C546 C 0.08479 0.40442 0.30821 0.0
C547 C 0.08553 0.4048 0.25299 0.0
C548 C 0.06932 0.40551 0.22482 0.0
C549 C 0.05233 0.40589 0.25184 0.0
C550 C 0.05151 0.4055 0.30707 0.0
C551 C 0.05067 0.46096 0.57348 0.0
C552 C 0.03179 0.4631 0.56714 0.0
C553 C 0.05931 0.44712 0.54358 0.0
C554 C 0.04925 0.43508 0.50697 0.0
C555 C 0.03059 0.4376 0.49913 0.0
C556 C 0.02191 0.45145 0.52902 0.0
C557 C 0.05796 0.4193 0.47858 0.0
C558 C 0.05841 0.41857 0.42305 0.0
C559 C 0.06601 0.40516 0.50617 0.0
C560 C 0.06522 0.40464 0.56477 0.0
C561 C 0.04813 0.40371 0.59239 0.0
C562 C 0.04751 0.40347 0.64765 0.0
C563 C 0.0639 0.404 0.6757 0.0
C564 C 0.08093 0.40471 0.64855 0.0
C565 C 0.08162 0.40497 0.59329 0.0
H566 H 0.0634 0.40381 0.71848 0.0
H567 H 0.06992 0.4058 0.18206 0.0
H568 H 0.81811 0.99879 0.97886 0.0
H569 H 0.84632 0.99823 0.92491 0.0
H570 H 0.87724 0.02978 0.04836 0.0
H571 H 0.84872 0.03079 0.10249 0.0
H572 H 0.88521 0.04437 0.9502 0.0
H573 H 0.88323 0.9828 0.02672 0.0
H574 H 0.86888 0.95126 0.05274 0.0
H575 H 0.8572 0.93601 0.89022 0.0
H576 H 0.87114 0.96762 0.86344 0.0
H577 H 0.97238 0.02906 0.82768 0.0
H578 H 0.94579 0.03123 0.88762 0.0
H579 H 0.9113 0.99705 0.77723 0.0
H580 H 0.93815 0.99403 0.71764 0.0
H581 H 0.9063 0.98392 0.87392 0.0
H582 H 0.90819 0.04542 0.79697 0.0
H583 H 0.92252 0.07687 0.77043 0.0
H584 H 0.93398 0.09261 0.93278 0.0
H585 H 0.91993 0.06114 0.96024 0.0
C586 C 0.83089 0.00566 0.99457 0.0
C587 C 0.83118 0.01496 0.04477 0.0
C588 C 0.84704 0.00517 0.96386 0.0
C589 C 0.86391 0.01381 0.9828 0.0
C590 C 0.86435 0.02298 0.03313 0.0
C591 C 0.84812 0.02344 0.06409 0.0
C592 C 0.88084 0.01367 0.94886 0.0
C593 C 0.89006 0.03116 0.93424 0.0
C594 C 0.88683 0.99645 0.92702 0.0
C595 C 0.87825 0.97753 0.94308 0.0
C596 C 0.8775 0.97275 0.9966 0.0
C597 C 0.86944 0.95487 0.01149 0.0
C598 C 0.86215 0.94163 0.97316 0.0
C599 C 0.86288 0.94626 0.91986 0.0
C600 C 0.87089 0.96413 0.9048 0.0
C601 C 0.9591 0.02215 0.81574 0.0
C602 C 0.95735 0.01134 0.76787 0.0
C603 C 0.94389 0.02344 0.8501 0.0
C604 C 0.92654 0.01428 0.83684 0.0
C605 C 0.92465 0.00396 0.78838 0.0
C606 C 0.93994 0.00236 0.75432 0.0
C607 C 0.91059 0.01465 0.87459 0.0
C608 C 0.90154 0.99716 0.88999 0.0
C609 C 0.90477 0.03189 0.897 0.0
C610 C 0.91317 0.05085 0.88059 0.0
C611 C 0.9139 0.05553 0.82697 0.0
C612 C 0.92195 0.07337 0.81177 0.0
C613 C 0.9292 0.08671 0.84987 0.0
C614 C 0.92838 0.08225 0.90329 0.0
C615 C 0.92036 0.06442 0.9187 0.0
H616 H 0.93543 0.10052 0.83802 0.0
H617 H 0.85593 0.92779 0.98475 0.0
H618 H 0.57976 0.80563 0.94487 0.0
H619 H 0.56646 0.83147 0.90231 0.0
H620 H 0.56875 0.86479 0.04904 0.0
H621 H 0.58219 0.83874 0.0923 0.0
H622 H 0.5362 0.8673 0.99672 0.0
H623 H 0.60089 0.87484 0.95464 0.0
H624 H 0.63101 0.86467 0.92361 0.0
H625 H 0.60882 0.84985 0.7702 0.0
H626 H 0.57847 0.85967 0.80053 0.0
H627 H 0.52334 0.95371 0.86611 0.0
H628 H 0.53409 0.92896 0.92004 0.0
H629 H 0.53726 0.89187 0.78091 0.0
H630 H 0.52676 0.91672 0.72682 0.0
H631 H 0.56793 0.89295 0.83496 0.0
H632 H 0.50284 0.88439 0.87853 0.0
H633 H 0.47276 0.89459 0.90989 0.0
H634 H 0.49587 0.91185 0.06074 0.0
H635 H 0.52617 0.90198 0.03002 0.0
C636 C 0.57757 0.8185 0.96813 0.0
C637 C 0.58236 0.82029 0.02174 0.0
C638 C 0.56991 0.83324 0.94374 0.0
C639 C 0.56696 0.85021 0.97219 0.0
C640 C 0.57103 0.85184 0.02629 0.0
C641 C 0.57869 0.83697 0.05093 0.0
C642 C 0.55999 0.86626 0.94452 0.0
C643 C 0.54328 0.87316 0.96187 0.0
C644 C 0.56908 0.87367 0.89853 0.0
C645 C 0.58735 0.86785 0.88002 0.0
C646 C 0.60239 0.86928 0.9144 0.0
C647 C 0.61951 0.8636 0.89692 0.0
C648 C 0.62182 0.85658 0.845 0.0
C649 C 0.60701 0.85527 0.81042 0.0
C650 C 0.58985 0.86091 0.82772 0.0
C651 C 0.52617 0.9402 0.84721 0.0
C652 C 0.52425 0.93708 0.79236 0.0
C653 C 0.53218 0.92601 0.8781 0.0
C654 C 0.5363 0.90845 0.85467 0.0
C655 C 0.53415 0.90529 0.79989 0.0
C656 C 0.52816 0.91947 0.76901 0.0
C657 C 0.54392 0.89379 0.88644 0.0
C658 C 0.56085 0.88718 0.86994 0.0
C659 C 0.53504 0.88675 0.93321 0.0
C660 C 0.51682 0.89262 0.95179 0.0
C661 C 0.50155 0.8905 0.91825 0.0
C662 C 0.48445 0.8962 0.93593 0.0
C663 C 0.48242 0.90392 0.98723 0.0
C664 C 0.49747 0.9059 0.02099 0.0
C665 C 0.5146 0.90024 0.00348 0.0
H666 H 0.46917 0.90832 0.00084 0.0
H667 H 0.63509 0.85219 0.83154 0.0
H668 H 0.68754 0.49681 0.96071 0.0
H669 H 0.65866 0.50415 0.92216 0.0
H670 H 0.62808 0.46368 0.02283 0.0
H671 H 0.65707 0.45589 0.06065 0.0
H672 H 0.61905 0.45746 0.92112 0.0
H673 H 0.62507 0.51183 0.04101 0.0
H674 H 0.64084 0.54064 0.08426 0.0
H675 H 0.64704 0.56765 0.93467 0.0
H676 H 0.63154 0.53889 0.89036 0.0
H677 H 0.53173 0.47638 0.8341 0.0
H678 H 0.55807 0.47413 0.89055 0.0
H679 H 0.59072 0.51567 0.79783 0.0
H680 H 0.56413 0.51847 0.74187 0.0
H681 H 0.59783 0.52168 0.90012 0.0
H682 H 0.59443 0.46719 0.77925 0.0
H683 H 0.57923 0.43852 0.73379 0.0
H684 H 0.5691 0.41183 0.88292 0.0
H685 H 0.58403 0.44047 0.92935 0.0
C686 C 0.67465 0.48961 0.97503 0.0
C687 C 0.67458 0.47567 0.01344 0.0
C688 C 0.65812 0.49395 0.95329 0.0
C689 C 0.64118 0.48453 0.96976 0.0
C690 C 0.641 0.47114 0.00962 0.0
C691 C 0.65755 0.46681 0.03148 0.0
C692 C 0.62394 0.48743 0.94202 0.0
C693 C 0.6142 0.47146 0.91746 0.0
C694 C 0.61797 0.50578 0.93572 0.0
C695 C 0.62727 0.52312 0.96229 0.0
C696 C 0.62993 0.52385 0.01725 0.0
C697 C 0.63879 0.54018 0.04198 0.0
C698 C 0.64497 0.55595 0.01222 0.0
C699 C 0.64226 0.55542 0.95767 0.0
C700 C 0.63342 0.53911 0.93274 0.0
C701 C 0.5445 0.48508 0.82562 0.0
C702 C 0.54592 0.49739 0.78291 0.0
C703 C 0.55957 0.48375 0.85798 0.0
C704 C 0.57651 0.49442 0.84778 0.0
C705 C 0.57781 0.50722 0.80628 0.0
C706 C 0.56263 0.50875 0.77419 0.0
C707 C 0.59298 0.4917 0.87933 0.0
C708 C 0.6026 0.50767 0.90429 0.0
C709 C 0.59898 0.47336 0.88571 0.0
C710 C 0.59019 0.45604 0.85781 0.0
C711 C 0.58886 0.45525 0.80237 0.0
C712 C 0.58031 0.439 0.77643 0.0
C713 C 0.57316 0.42338 0.80546 0.0
C714 C 0.57462 0.42395 0.86049 0.0
C715 C 0.58314 0.44018 0.88664 0.0
H716 H 0.56653 0.41082 0.78531 0.0
H717 H 0.65183 0.56858 0.03143 0.0
H718 H 0.91539 0.67403 0.90721 0.0
H719 H 0.92595 0.64471 0.86802 0.0
H720 H 0.93731 0.62583 0.02285 0.0
H721 H 0.92558 0.65456 0.06328 0.0
H722 H 0.96787 0.62741 0.93149 0.0
H723 H 0.90558 0.60243 0.98154 0.0
H724 H 0.87165 0.60289 0.98439 0.0
H725 H 0.87081 0.59982 0.8146 0.0
H726 H 0.90478 0.59965 0.81074 0.0
H727 H 0.99667 0.53933 0.83636 0.0
H728 H 0.98211 0.56344 0.89076 0.0
H729 H 0.94555 0.57165 0.7632 0.0
H730 H 0.95933 0.54673 0.71008 0.0
H731 H 0.92712 0.5747 0.84815 0.0
H732 H 0.9869 0.60221 0.79204 0.0
H733 H 0.02085 0.60455 0.7804 0.0
H734 H 0.02695 0.60644 0.94898 0.0
H735 H 0.99301 0.60385 0.96161 0.0
C736 C 0.91963 0.66351 0.93338 0.0
C737 C 0.91949 0.66679 0.98872 0.0
C738 C 0.92584 0.64681 0.91069 0.0
C739 C 0.93234 0.63319 0.94263 0.0
C740 C 0.93233 0.63627 0.99766 0.0
C741 C 0.92575 0.65281 0.02058 0.0
C742 C 0.9398 0.61607 0.91792 0.0
C743 C 0.95903 0.61565 0.91412 0.0
C744 C 0.92817 0.60124 0.89359 0.0
C745 C 0.90774 0.60122 0.89587 0.0
C746 C 0.89818 0.60205 0.94481 0.0
C747 C 0.87894 0.60221 0.94661 0.0
C748 C 0.86908 0.60144 0.8997 0.0
C749 C 0.87846 0.60044 0.8509 0.0
C750 C 0.8977 0.60029 0.84889 0.0
C751 C 0.98543 0.54621 0.82017 0.0
C752 C 0.97923 0.54131 0.76888 0.0
C753 C 0.97718 0.56007 0.85115 0.0
C754 C 0.96302 0.5698 0.83071 0.0
C755 C 0.95646 0.56445 0.77997 0.0
C756 C 0.96438 0.55023 0.74953 0.0
C757 C 0.9554 0.58589 0.86133 0.0
C758 C 0.9361 0.58625 0.866 0.0
C759 C 0.96701 0.60099 0.8852 0.0
C760 C 0.98742 0.60262 0.87775 0.0
C761 C 0.99548 0.60299 0.82662 0.0
C762 C 0.01472 0.60438 0.81984 0.0
C763 C 0.02605 0.60559 0.86392 0.0
C764 C 0.01816 0.60546 0.91488 0.0
C765 C 0.99892 0.60405 0.92187 0.0
H766 H 0.04094 0.60666 0.8586 0.0
H767 H 0.85419 0.60156 0.90117 0.0
H768 H 0.09351 0.1541 0.37602 0.0
H769 H 0.07656 0.12794 0.4218 0.0
H770 H 0.08592 0.15828 0.57145 0.0
H771 H 0.10357 0.18452 0.52581 0.0
H772 H 0.0898 0.11937 0.57544 0.0
H773 H 0.04525 0.1592 0.51805 0.0
H774 H 0.03028 0.17819 0.45447 0.0
H775 H 0.01744 0.12787 0.35603 0.0
H776 H 0.0326 0.10862 0.41864 0.0
H777 H 0.01552 0.05309 0.6865 0.0
H778 H 0.03535 0.08227 0.66542 0.0
H779 H 0.03518 0.06443 0.50043 0.0
H780 H 0.01645 0.03501 0.52155 0.0
H781 H 0.02571 0.10058 0.51786 0.0
H782 H 0.0707 0.0606 0.57956 0.0
H783 H 0.09091 0.04396 0.63483 0.0
H784 H 0.10437 0.09538 0.72738 0.0
H785 H 0.08412 0.1125 0.67315 0.0
C786 C 0.09241 0.1551 0.41879 0.0
C787 C 0.09995 0.17144 0.44725 0.0
C788 C 0.08249 0.14021 0.44483 0.0
C789 C 0.0797 0.14136 0.49984 0.0
C790 C 0.08781 0.15723 0.52886 0.0
C791 C 0.09779 0.17222 0.50273 0.0
C792 C 0.06785 0.1261 0.52622 0.0
C793 C 0.0756 0.11544 0.56413 0.0
C794 C 0.04947 0.121 0.51047 0.0
C795 C 0.04016 0.13249 0.47293 0.0
C796 C 0.03934 0.1522 0.48268 0.0
C797 C 0.03081 0.16301 0.44683 0.0
C798 C 0.02294 0.15425 0.40121 0.0
C799 C 0.02355 0.13464 0.3914 0.0
C800 C 0.03209 0.12377 0.42709 0.0
C801 C 0.02009 0.0553 0.64597 0.0
C802 C 0.01472 0.04171 0.60576 0.0
C803 C 0.03136 0.07193 0.634 0.0
C804 C 0.037 0.07533 0.58145 0.0
C805 C 0.03126 0.06191 0.54132 0.0
C806 C 0.0204 0.0452 0.55337 0.0
C807 C 0.04777 0.09333 0.5666 0.0
C808 C 0.03974 0.10464 0.5306 0.0
C809 C 0.06584 0.09904 0.58481 0.0
C810 C 0.07568 0.08789 0.62215 0.0
C811 C 0.07756 0.06836 0.6123 0.0
C812 C 0.08909 0.0588 0.64347 0.0
C813 C 0.09874 0.06851 0.68486 0.0
C814 C 0.09679 0.08781 0.69551 0.0
C815 C 0.08524 0.09745 0.66464 0.0
H816 H 0.10776 0.06107 0.70863 0.0
H817 H 0.01634 0.16264 0.37349 0.0
H818 H 0.3712 0.05666 0.34964 0.0
H819 H 0.39917 0.04624 0.38828 0.0
H820 H 0.37025 0.99075 0.41335 0.0
H821 H 0.34239 0.00128 0.37684 0.0
H822 H 0.388 0.00256 0.49716 0.0
H823 H 0.40281 0.00204 0.30839 0.0
H824 H 0.40851 0.01688 0.22202 0.0
H825 H 0.45301 0.05424 0.2872 0.0
H826 H 0.44716 0.04013 0.37451 0.0
H827 H 0.45801 0.95393 0.58585 0.0
H828 H 0.43478 0.96102 0.52295 0.0
H829 H 0.46918 0.01154 0.47831 0.0
H830 H 0.49348 0.00268 0.53478 0.0
H831 H 0.44901 0.00409 0.40414 0.0
H832 H 0.43346 0.00822 0.59099 0.0
H833 H 0.42857 0.99551 0.67948 0.0
H834 H 0.38622 0.95388 0.62159 0.0
H835 H 0.3908 0.9665 0.53197 0.0
C836 C 0.3709 0.0423 0.3638 0.0
C837 C 0.35462 0.02983 0.36097 0.0
C838 C 0.38687 0.03631 0.38539 0.0
C839 C 0.38688 0.01761 0.40314 0.0
C840 C 0.37059 0.00524 0.40012 0.0
C841 C 0.35463 0.0113 0.37952 0.0
C842 C 0.40346 0.01076 0.42662 0.0
C843 C 0.40128 0.0027 0.47642 0.0
C844 C 0.421 0.01161 0.40063 0.0
C845 C 0.42439 0.02016 0.34816 0.0
C846 C 0.41366 0.01359 0.3045 0.0
C847 C 0.4169 0.0219 0.2554 0.0
C848 C 0.43101 0.03662 0.24927 0.0
C849 C 0.44195 0.04301 0.29219 0.0
C850 C 0.43866 0.03488 0.34149 0.0
C851 C 0.46077 0.96623 0.56141 0.0
C852 C 0.47699 0.97849 0.56738 0.0
C853 C 0.44739 0.97046 0.52596 0.0
C854 C 0.44953 0.98767 0.49882 0.0
C855 C 0.46676 0.99854 0.50001 0.0
C856 C 0.48057 0.99364 0.53299 0.0
C857 C 0.43342 0.99539 0.47425 0.0
C858 C 0.43572 0.00385 0.42473 0.0
C859 C 0.41596 0.99525 0.50075 0.0
C860 C 0.41265 0.98814 0.55477 0.0
C861 C 0.42317 0.99631 0.59703 0.0
C862 C 0.42053 0.98901 0.64739 0.0
C863 C 0.40736 0.97363 0.65626 0.0
C864 C 0.39654 0.96569 0.61467 0.0
C865 C 0.3991 0.97294 0.56406 0.0
H866 H 0.40536 0.96806 0.69549 0.0
H867 H 0.43354 0.04301 0.2112 0.0
H868 H 0.39891 0.33905 0.44535 0.0
H869 H 0.41631 0.36686 0.48711 0.0
H870 H 0.46559 0.337 0.48103 0.0
H871 H 0.44831 0.30917 0.43945 0.0
H872 H 0.46388 0.3595 0.57053 0.0
H873 H 0.45835 0.36555 0.38402 0.0
H874 H 0.44168 0.36544 0.30024 0.0
H875 H 0.41166 0.41158 0.361 0.0
H876 H 0.42796 0.41176 0.44549 0.0
H877 H 0.5227 0.44635 0.61097 0.0
H878 H 0.50942 0.41515 0.57647 0.0
H879 H 0.45986 0.44059 0.53624 0.0
H880 H 0.47462 0.47185 0.56145 0.0
H881 H 0.46435 0.41783 0.46655 0.0
H882 H 0.47228 0.41067 0.65879 0.0
H883 H 0.49173 0.40933 0.73682 0.0
H884 H 0.5189 0.36347 0.6632 0.0
H885 H 0.50043 0.36511 0.58334 0.0
C886 C 0.41337 0.33831 0.45375 0.0
C887 C 0.42229 0.32201 0.43863 0.0
C888 C 0.42329 0.35419 0.47757 0.0
C889 C 0.44231 0.35409 0.4861 0.0
C890 C 0.45093 0.33736 0.47464 0.0
C891 C 0.44101 0.32145 0.45104 0.0
C892 C 0.45352 0.37193 0.50228 0.0
C893 C 0.46404 0.37234 0.54802 0.0
C894 C 0.45392 0.38849 0.47225 0.0
C895 C 0.44425 0.38855 0.42124 0.0
C896 C 0.4481 0.37559 0.37964 0.0
C897 C 0.43873 0.37552 0.33202 0.0
C898 C 0.42559 0.38846 0.32535 0.0
C899 C 0.42183 0.40154 0.36625 0.0
C900 C 0.43113 0.40164 0.414 0.0
C901 C 0.50903 0.4451 0.59422 0.0
C902 C 0.4994 0.4613 0.59 0.0
C903 C 0.50128 0.42723 0.57528 0.0
C904 C 0.48319 0.42509 0.5555 0.0
C905 C 0.47374 0.44154 0.55141 0.0
C906 C 0.48202 0.45947 0.56679 0.0
C907 C 0.47396 0.40614 0.53755 0.0
C908 C 0.46402 0.40529 0.4903 0.0
C909 C 0.47429 0.38916 0.56618 0.0
C910 C 0.4851 0.38816 0.6148 0.0
C911 C 0.48248 0.40038 0.65904 0.0
C912 C 0.49331 0.39956 0.70364 0.0
C913 C 0.50638 0.38627 0.70526 0.0
C914 C 0.50876 0.37378 0.66198 0.0
C915 C 0.49821 0.37471 0.61689 0.0
H916 H 0.51469 0.38569 0.74 0.0
H917 H 0.41834 0.38839 0.28845 0.0
H918 H 0.1709 0.61206 0.43052 0.0
H919 H 0.1415 0.60883 0.48027 0.0
H920 H 0.15362 0.55348 0.5303 0.0
H921 H 0.183 0.55676 0.4814 0.0
H922 H 0.1148 0.58451 0.45541 0.0
H923 H 0.1289 0.54035 0.64201 0.0
H924 H 0.15223 0.541 0.71153 0.0
H925 H 0.16968 0.59955 0.68123 0.0
H926 H 0.14633 0.59947 0.61224 0.0
H927 H 0.03925 0.51969 0.51396 0.0
H928 H 0.06985 0.53594 0.49507 0.0
H929 H 0.06714 0.56837 0.64295 0.0
H930 H 0.03659 0.55187 0.66217 0.0
H931 H 0.10007 0.55668 0.63039 0.0
H932 H 0.06153 0.58955 0.52553 0.0
H933 H 0.03706 0.59366 0.46222 0.0
H934 H 0.06754 0.56574 0.3393 0.0
H935 H 0.09208 0.5612 0.40207 0.0
C936 C 0.16745 0.59941 0.45318 0.0
C937 C 0.17918 0.58461 0.45177 0.0
C938 C 0.15068 0.59759 0.48166 0.0
C939 C 0.1453 0.5809 0.50905 0.0
C940 C 0.15755 0.56664 0.51036 0.0
C941 C 0.17437 0.56852 0.48223 0.0
C942 C 0.12598 0.57704 0.52924 0.0
C943 C 0.11162 0.57864 0.49396 0.0
C944 C 0.12169 0.56982 0.58007 0.0
C945 C 0.13594 0.56983 0.62133 0.0
C946 C 0.13766 0.5534 0.65018 0.0
C947 C 0.15088 0.55366 0.68956 0.0
C948 C 0.16242 0.57025 0.70065 0.0
C949 C 0.16078 0.58666 0.67244 0.0
C950 C 0.14758 0.58651 0.63309 0.0
C951 C 0.04515 0.5304 0.54211 0.0
C952 C 0.03571 0.53453 0.58952 0.0
C953 C 0.0626 0.5397 0.53136 0.0
C954 C 0.07071 0.55355 0.56735 0.0
C955 C 0.06118 0.55774 0.61467 0.0
C956 C 0.04377 0.54833 0.62558 0.0
C957 C 0.08923 0.56338 0.55552 0.0
C958 C 0.10335 0.56285 0.59226 0.0
C959 C 0.09328 0.5722 0.50675 0.0
C960 C 0.0786 0.57494 0.46864 0.0
C961 C 0.06296 0.58417 0.48509 0.0
C962 C 0.04909 0.58659 0.44928 0.0
C963 C 0.05073 0.57994 0.39679 0.0
C964 C 0.06628 0.57088 0.37998 0.0
C965 C 0.08019 0.56841 0.41564 0.0
H966 H 0.03997 0.58182 0.36913 0.0
H967 H 0.17262 0.57041 0.73118 0.0
H968 H 0.9228 0.81289 0.84754 0.0
H969 H 0.93838 0.83906 0.79869 0.0
H970 H 0.9086 0.87921 0.89211 0.0
H971 H 0.89144 0.85301 0.93686 0.0
H972 H 0.91465 0.89316 0.80408 0.0
H973 H 0.95411 0.86512 0.92338 0.0
H974 H 0.96991 0.83918 0.96012 0.0
H975 H 0.99792 0.8305 0.81086 0.0
H976 H 0.98209 0.85625 0.77306 0.0
H977 H 0.98488 0.9714 0.83424 0.0
H978 H 0.96355 0.94291 0.849 0.0
H979 H 0.98433 0.91608 0.7064 0.0
H980 H 0.00543 0.94485 0.69067 0.0
H981 H 0.98303 0.89434 0.80581 0.0
H982 H 0.94647 0.9304 0.69977 0.0
H983 H 0.92963 0.95721 0.67247 0.0
H984 H 0.8959 0.95309 0.81372 0.0
H985 H 0.91289 0.92683 0.84294 0.0
C986 C 0.91898 0.82718 0.85647 0.0
C987 C 0.90614 0.83078 0.89747 0.0
C988 C 0.92821 0.84223 0.82902 0.0
C989 C 0.92533 0.86123 0.84326 0.0
C990 C 0.9114 0.86473 0.88088 0.0
C991 C 0.90174 0.84968 0.90712 0.0
C992 C 0.93762 0.87749 0.82238 0.0
C993 C 0.9296 0.89347 0.80499 0.0
C994 C 0.95719 0.87785 0.8226 0.0
C995 C 0.96676 0.86243 0.84525 0.0
C996 C 0.96356 0.85759 0.89833 0.0
C997 C 0.97252 0.84294 0.91935 0.0
C998 C 0.98487 0.83316 0.88779 0.0
C999 C 0.98832 0.83806 0.8352 0.0
C1000 C 0.97936 0.85268 0.81397 0.0
C1001 C 0.98494 0.95939 0.80617 0.0
C1002 C 0.99686 0.96016 0.76157 0.0
C1003 C 0.97267 0.94323 0.8144 0.0
C1004 C 0.97234 0.92751 0.77861 0.0
C1005 C 0.98439 0.92814 0.73432 0.0
C1006 C 0.99642 0.94448 0.72549 0.0
C1007 C 0.95999 0.91009 0.78913 0.0
C1008 C 0.96807 0.89393 0.80457 0.0
C1009 C 0.94049 0.90993 0.78933 0.0
C1010 C 0.93105 0.92662 0.77351 0.0
C1011 C 0.93568 0.93542 0.7254 0.0
C1012 C 0.92606 0.95046 0.70951 0.0
C1013 C 0.9116 0.95666 0.74104 0.0
C1014 C 0.90703 0.94819 0.78921 0.0
C1015 C 0.9167 0.93327 0.80552 0.0
H1016 H 0.9039 0.96798 0.728 0.0
H1017 H 0.99179 0.82182 0.90413 0.0
H1018 H 0.67708 0.02807 0.96185 0.0
H1019 H 0.64979 0.02965 0.90823 0.0
H1020 H 0.61929 0.98768 0.00452 0.0
H1021 H 0.64676 0.98543 0.05703 0.0
H1022 H 0.61306 0.98045 0.90177 0.0
H1023 H 0.61321 0.03518 0.02099 0.0
H1024 H 0.62665 0.06495 0.06505 0.0
H1025 H 0.63415 0.09133 0.91477 0.0
H1026 H 0.62098 0.06161 0.86971 0.0
H1027 H 0.52214 0.0009 0.82014 0.0
H1028 H 0.54939 0.99558 0.87159 0.0
H1029 H 0.58338 0.03357 0.7717 0.0
H1030 H 0.5565 0.0383 0.71927 0.0
H1031 H 0.58748 0.04234 0.87762 0.0
H1032 H 0.58584 0.98753 0.75879 0.0
H1033 H 0.57627 0.95648 0.7144 0.0
H1034 H 0.57324 0.92944 0.86376 0.0
H1035 H 0.58195 0.96028 0.90948 0.0
C1036 C 0.66464 0.01898 0.97119 0.0
C1037 C 0.66406 0.00666 0.01381 0.0
C1038 C 0.649 0.02007 0.9409 0.0
C1039 C 0.63244 0.00901 0.95298 0.0
C1040 C 0.63191 0.99642 0.99479 0.0
C1041 C 0.64756 0.99527 0.02499 0.0
C1042 C 0.61567 0.0105 0.92185 0.0
C1043 C 0.60718 0.99389 0.89721 0.0
C1044 C 0.60845 0.02818 0.91491 0.0
C1045 C 0.61626 0.04611 0.94195 0.0
C1046 C 0.61784 0.04728 0.9973 0.0
C1047 C 0.62539 0.06416 0.02246 0.0
C1048 C 0.63129 0.08001 0.99272 0.0
C1049 C 0.6296 0.07904 0.93775 0.0
C1050 C 0.62207 0.06219 0.91239 0.0
C1051 C 0.53553 0.00772 0.80865 0.0
C1052 C 0.53731 0.01974 0.76546 0.0
C1053 C 0.55102 0.00477 0.83807 0.0
C1054 C 0.5684 0.01406 0.82496 0.0
C1055 C 0.57009 0.02626 0.78223 0.0
C1056 C 0.5547 0.02905 0.75265 0.0
C1057 C 0.5847 0.01219 0.85762 0.0
C1058 C 0.59315 0.0288 0.88255 0.0
C1059 C 0.59179 0.99444 0.86495 0.0
C1060 C 0.5843 0.97637 0.83779 0.0
C1061 C 0.58257 0.97511 0.78244 0.0
C1062 C 0.57731 0.95751 0.75696 0.0
C1063 C 0.57394 0.94107 0.78621 0.0
C1064 C 0.57561 0.9422 0.8411 0.0
C1065 C 0.58061 0.95974 0.86688 0.0
H1066 H 0.57021 0.92743 0.76627 0.0
H1067 H 0.63713 0.09306 0.01227 0.0
H1068 H 0.62095 0.64432 0.9109 0.0
H1069 H 0.60148 0.61856 0.86564 0.0
H1070 H 0.56018 0.6574 0.842 0.0
H1071 H 0.57942 0.68309 0.8865 0.0
H1072 H 0.55003 0.62361 0.90669 0.0
H1073 H 0.57797 0.64416 0.7439 0.0
H1074 H 0.60216 0.65156 0.67609 0.0
H1075 H 0.61443 0.59304 0.66864 0.0
H1076 H 0.59065 0.58532 0.73762 0.0
H1077 H 0.49533 0.55432 0.7101 0.0
H1078 H 0.51643 0.58289 0.72983 0.0
H1079 H 0.53484 0.55643 0.86774 0.0
H1080 H 0.51433 0.52759 0.84681 0.0
H1081 H 0.55565 0.58545 0.73913 0.0
H1082 H 0.5406 0.59244 0.96365 0.0
H1083 H 0.51484 0.58532 0.02744 0.0
H1084 H 0.47563 0.59052 0.90573 0.0
H1085 H 0.50114 0.59793 0.84145 0.0
C1086 C 0.60796 0.64745 0.89467 0.0
C1087 C 0.6017 0.6657 0.90233 0.0
C1088 C 0.59692 0.63278 0.86871 0.0
C1089 C 0.57945 0.63617 0.85066 0.0
C1090 C 0.57369 0.65461 0.85544 0.0
C1091 C 0.58478 0.66929 0.88062 0.0
C1092 C 0.566 0.6201 0.83466 0.0
C1093 C 0.5513 0.61523 0.87009 0.0
C1094 C 0.5677 0.60937 0.78668 0.0
C1095 C 0.58267 0.61421 0.74691 0.0
C1096 C 0.58612 0.63293 0.72898 0.0
C1097 C 0.5997 0.63717 0.68996 0.0
C1098 C 0.60989 0.6228 0.66824 0.0
C1099 C 0.60656 0.60417 0.68559 0.0
C1100 C 0.59303 0.59986 0.7247 0.0
C1101 C 0.50403 0.55461 0.74428 0.0
C1102 C 0.50351 0.53875 0.77639 0.0
C1103 C 0.51599 0.57089 0.75558 0.0
C1104 C 0.52725 0.57166 0.79996 0.0
C1105 C 0.52622 0.55607 0.8333 0.0
C1106 C 0.5144 0.53971 0.82163 0.0
C1107 C 0.54001 0.58881 0.81177 0.0
C1108 C 0.55456 0.5938 0.77582 0.0
C1109 C 0.53825 0.59977 0.85919 0.0
C1110 C 0.52279 0.59554 0.89766 0.0
C1111 C 0.52648 0.59213 0.95057 0.0
C1112 C 0.51192 0.58803 0.9868 0.0
C1113 C 0.49361 0.58741 0.97061 0.0
C1114 C 0.48981 0.59094 0.91818 0.0
C1115 C 0.50432 0.59505 0.88181 0.0
H1116 H 0.48236 0.58423 0.99871 0.0
H1117 H 0.62032 0.6261 0.63781 0.0
H1118 H 0.83403 0.39928 0.88816 0.0
H1119 H 0.86422 0.40513 0.84287 0.0
H1120 H 0.85896 0.4658 0.85311 0.0
H1121 H 0.82858 0.45987 0.89532 0.0
H1122 H 0.87544 0.45917 0.76769 0.0
H1123 H 0.88303 0.44082 0.94648 0.0
H1124 H 0.87874 0.41976 0.02244 0.0
H1125 H 0.90469 0.37595 0.93378 0.0
H1126 H 0.90891 0.39669 0.85702 0.0
H1127 H 0.97697 0.48331 0.8312 0.0
H1128 H 0.94561 0.47034 0.85568 0.0
H1129 H 0.93801 0.44641 0.69736 0.0
H1130 H 0.97 0.4582 0.67388 0.0
H1131 H 0.92817 0.43248 0.85026 0.0
H1132 H 0.88902 0.46127 0.67307 0.0
H1133 H 0.89145 0.48856 0.61435 0.0
H1134 H 0.92948 0.51998 0.71977 0.0
H1135 H 0.9262 0.49358 0.78117 0.0
C1136 C 0.83925 0.41379 0.87954 0.0
C1137 C 0.82905 0.42913 0.895 0.0
C1138 C 0.85651 0.41715 0.85408 0.0
C1139 C 0.86408 0.43595 0.84549 0.0
C1140 C 0.85347 0.45116 0.85902 0.0
C1141 C 0.83609 0.44778 0.88319 0.0
C1142 C 0.88344 0.44012 0.82585 0.0
C1143 C 0.88695 0.45312 0.78521 0.0
C1144 C 0.89854 0.43265 0.84975 0.0
C1145 C 0.89608 0.4202 0.89586 0.0
C1146 C 0.88771 0.42664 0.9431 0.0
C1147 C 0.8853 0.41478 0.98629 0.0
C1148 C 0.89139 0.39651 0.98288 0.0
C1149 C 0.89995 0.39009 0.93631 0.0
C1150 C 0.90235 0.40189 0.89296 0.0
C1151 C 0.96871 0.47505 0.80184 0.0
C1152 C 0.97559 0.47229 0.75006 0.0
C1153 C 0.95084 0.46767 0.81586 0.0
C1154 C 0.93947 0.45772 0.77804 0.0
C1155 C 0.94652 0.45435 0.72676 0.0
C1156 C 0.96461 0.46133 0.71316 0.0
C1157 C 0.92006 0.45148 0.79223 0.0
C1158 C 0.9166 0.43811 0.83178 0.0
C1159 C 0.90508 0.45933 0.76899 0.0
C1160 C 0.9078 0.47507 0.73112 0.0
C1161 C 0.89795 0.47396 0.68374 0.0
C1162 C 0.89935 0.48937 0.65015 0.0
C1163 C 0.91084 0.50587 0.66287 0.0
C1164 C 0.92075 0.50711 0.70964 0.0
C1165 C 0.91906 0.49193 0.74401 0.0
H1166 H 0.91193 0.51775 0.63669 0.0
H1167 H 0.88952 0.38734 0.01636 0.0
H1168 H 0.12564 0.19363 0.98863 0.0
H1169 H 0.11399 0.16623 0.93181 0.0
H1170 H 0.05993 0.16756 0.0055 0.0
H1171 H 0.07134 0.19502 0.06156 0.0
H1172 H 0.0784 0.13159 0.00923 0.0
H1173 H 0.06202 0.17908 0.88984 0.0
H1174 H 0.06827 0.20681 0.83332 0.0
H1175 H 0.10699 0.17675 0.73931 0.0
H1176 H 0.1012 0.14893 0.79588 0.0
H1177 H 0.0233 0.0595 0.87189 0.0
H1178 H 0.03639 0.08911 0.91535 0.0
H1179 H 0.08117 0.09292 0.79993 0.0
H1180 H 0.06752 0.06357 0.75473 0.0
H1181 H 0.06964 0.12641 0.81519 0.0
H1182 H 0.08728 0.07946 0.92896 0.0
H1183 H 0.08344 0.05128 0.98458 0.0
H1184 H 0.04612 0.07941 0.08856 0.0
H1185 H 0.04953 0.10767 0.03313 0.0
C1186 C 0.11117 0.18834 0.99166 0.0
C1187 C 0.09936 0.19647 0.02928 0.0
C1188 C 0.10455 0.17274 0.95929 0.0
C1189 C 0.08614 0.16492 0.96471 0.0
C1190 C 0.07417 0.17348 0.00073 0.0
C1191 C 0.08068 0.18924 0.03239 0.0
C1192 C 0.07977 0.14676 0.93678 0.0
C1193 C 0.07625 0.13045 0.96689 0.0
C1194 C 0.07778 0.14524 0.88134 0.0
C1195 C 0.08137 0.16202 0.8476 0.0
C1196 C 0.07205 0.17847 0.85756 0.0
C1197 C 0.07547 0.19419 0.8254 0.0
C1198 C 0.08808 0.19358 0.78288 0.0
C1199 C 0.09727 0.17723 0.77235 0.0
C1200 C 0.09392 0.16148 0.80445 0.0
C1201 C 0.03601 0.06659 0.85598 0.0
C1202 C 0.04454 0.05925 0.81022 0.0
C1203 C 0.04353 0.08348 0.88094 0.0
C1204 C 0.05994 0.09313 0.86127 0.0
C1205 C 0.06851 0.08572 0.81562 0.0
C1206 C 0.06082 0.06895 0.79014 0.0
C1207 C 0.06788 0.11115 0.88779 0.0
C1208 C 0.07182 0.12744 0.85752 0.0
C1209 C 0.07065 0.1126 0.94308 0.0
C1210 C 0.06854 0.09563 0.97659 0.0
C1211 C 0.07814 0.07958 0.96345 0.0
C1212 C 0.07606 0.06361 0.99499 0.0
C1213 C 0.06451 0.06354 0.04001 0.0
C1214 C 0.05505 0.07948 0.05364 0.0
C1215 C 0.05706 0.09549 0.02221 0.0
H1216 H 0.06292 0.05116 0.06438 0.0
H1217 H 0.09069 0.20575 0.75798 0.0
H1218 H 0.30699 0.98781 0.94376 0.0
H1219 H 0.33468 0.9841 0.88863 0.0
H1220 H 0.35354 0.04325 0.91986 0.0
H1221 H 0.32655 0.04696 0.97691 0.0
H1222 H 0.35959 0.02922 0.81193 0.0
H1223 H 0.36932 0.01398 0.99387 0.0
H1224 H 0.36145 0.99675 0.07568 0.0
H1225 H 0.36663 0.94325 0.99184 0.0
H1226 H 0.37424 0.96017 0.90928 0.0
H1227 H 0.45482 0.03236 0.75261 0.0
H1228 H 0.4244 0.0351 0.79313 0.0
H1229 H 0.41647 0.97384 0.80548 0.0
H1230 H 0.44767 0.97123 0.76852 0.0
H1231 H 0.40318 0.98772 0.88721 0.0
H1232 H 0.38599 0.0012 0.70412 0.0
H1233 H 0.39069 0.01705 0.61855 0.0
H1234 H 0.39784 0.0717 0.7004 0.0
H1235 H 0.39295 0.05611 0.78611 0.0
C1236 C 0.31693 1.0001 0.93862 0.0
C1237 C 0.31457 0.01762 0.96553 0.0
C1238 C 0.33268 0.99795 0.90687 0.0
C1239 C 0.34619 0.01335 0.90085 0.0
C1240 C 0.34322 0.03121 0.92406 0.0
C1241 C 0.32764 0.03331 0.95642 0.0
C1242 C 0.36419 0.01051 0.87457 0.0
C1243 C 0.36919 0.02021 0.82835 0.0
C1244 C 0.37649 0.99848 0.89559 0.0
C1245 C 0.37213 0.98832 0.94531 0.0
C1246 C 0.36862 0.99853 0.99279 0.0
C1247 C 0.36423 0.98882 0.0393 0.0
C1248 C 0.36348 0.96891 0.03893 0.0
C1249 C 0.36718 0.95867 0.99205 0.0
C1250 C 0.37153 0.96831 0.9454 0.0
C1251 C 0.44661 0.01948 0.76423 0.0
C1252 C 0.45355 0.00156 0.75709 0.0
C1253 C 0.42902 0.02102 0.7865 0.0
C1254 C 0.41765 0.00463 0.8004 0.0
C1255 C 0.42482 0.98673 0.79468 0.0
C1256 C 0.44269 0.98523 0.7738 0.0
C1257 C 0.39876 0.00629 0.82361 0.0
C1258 C 0.39357 0.99649 0.86986 0.0
C1259 C 0.38616 0.01805 0.80221 0.0
C1260 C 0.38969 0.02746 0.75122 0.0
C1261 C 0.38894 0.01655 0.70364 0.0
C1262 C 0.3915 0.02549 0.65521 0.0
C1263 C 0.39492 0.04534 0.65405 0.0
C1264 C 0.39543 0.05631 0.7013 0.0
C1265 C 0.39265 0.04745 0.74977 0.0
H1266 H 0.39697 0.05221 0.61653 0.0
H1267 H 0.36009 0.96142 0.07498 0.0
H1268 H 0.43724 0.30087 0.01002 0.0
H1269 H 0.4471 0.32778 0.9545 0.0
H1270 H 0.39012 0.33737 0.93142 0.0
H1271 H 0.38009 0.31024 0.98661 0.0
H1272 H 0.41353 0.34358 0.83934 0.0
H1273 H 0.4109 0.36233 0.02388 0.0
H1274 H 0.41759 0.36005 0.1184 0.0
H1275 H 0.47584 0.36937 0.08361 0.0
H1276 H 0.46951 0.37139 0.98869 0.0
H1277 H 0.43453 0.44117 0.76587 0.0
H1278 H 0.42077 0.41221 0.80878 0.0
H1279 H 0.47492 0.40069 0.85866 0.0
H1280 H 0.48846 0.42968 0.81713 0.0
H1281 H 0.45051 0.39581 0.93712 0.0
H1282 H 0.45367 0.37556 0.75278 0.0
H1283 H 0.44741 0.37658 0.65761 0.0
H1284 H 0.38899 0.37021 0.69096 0.0
H1285 H 0.39485 0.36912 0.78646 0.0
C1286 C 0.42677 0.3083 0.99182 0.0
C1287 C 0.40788 0.30349 0.00295 0.0
C1288 C 0.43244 0.32378 0.96044 0.0
C1289 C 0.41934 0.33472 0.93955 0.0
C1290 C 0.40044 0.32915 0.94736 0.0
C1291 C 0.39475 0.31371 0.97906 0.0
C1292 C 0.42545 0.35294 0.91403 0.0
C1293 C 0.42141 0.35513 0.86077 0.0
C1294 C 0.43589 0.36789 0.94198 0.0
C1295 C 0.43974 0.36683 0.99911 0.0
C1296 C 0.42515 0.36373 0.03632 0.0
C1297 C 0.42887 0.36251 0.08998 0.0
C1298 C 0.44713 0.36452 0.10699 0.0
C1299 C 0.4617 0.36779 0.07037 0.0
C1300 C 0.45806 0.36899 0.01664 0.0
C1301 C 0.44339 0.43242 0.78621 0.0
C1302 C 0.46256 0.43732 0.78746 0.0
C1303 C 0.43558 0.41584 0.8103 0.0
C1304 C 0.44687 0.40409 0.8362 0.0
C1305 C 0.46595 0.40943 0.83866 0.0
C1306 C 0.47368 0.42592 0.8147 0.0
C1307 C 0.43896 0.38641 0.86187 0.0
C1308 C 0.44258 0.38434 0.91549 0.0
C1309 C 0.42822 0.37161 0.83411 0.0
C1310 C 0.42469 0.37246 0.77681 0.0
C1311 C 0.43948 0.37454 0.73988 0.0
C1312 C 0.43602 0.37509 0.68587 0.0
C1313 C 0.41784 0.37358 0.66826 0.0
C1314 C 0.40307 0.37142 0.70465 0.0
C1315 C 0.40644 0.37078 0.75872 0.0
H1316 H 0.41522 0.37401 0.6264 0.0
H1317 H 0.44998 0.36358 0.14856 0.0
H1318 H 0.20849 0.57401 0.97252 0.0
H1319 H 0.185 0.56683 0.90507 0.0
H1320 H 0.17373 0.50989 0.96258 0.0
H1321 H 0.19752 0.51688 0.02916 0.0
H1322 H 0.16956 0.50934 0.85799 0.0
H1323 H 0.14887 0.54638 0.00799 0.0
H1324 H 0.1502 0.57377 0.07196 0.0
H1325 H 0.14557 0.61193 0.94547 0.0
H1326 H 0.14452 0.58477 0.8806 0.0
H1327 H 0.07368 0.48853 0.80848 0.0
H1328 H 0.10438 0.49523 0.84651 0.0
H1329 H 0.11127 0.54917 0.76941 0.0
H1330 H 0.08043 0.5426 0.73174 0.0
H1331 H 0.11949 0.55272 0.87393 0.0
H1332 H 0.13364 0.51205 0.72627 0.0
H1333 H 0.13099 0.48318 0.66807 0.0
H1334 H 0.1457 0.44957 0.79595 0.0
H1335 H 0.14824 0.47823 0.8553 0.0
C1336 C 0.20126 0.55984 0.96995 0.0
C1337 C 0.20469 0.54606 0.00635 0.0
C1338 C 0.18782 0.55576 0.93152 0.0
C1339 C 0.17729 0.53796 0.92954 0.0
C1340 C 0.18163 0.52373 0.96339 0.0
C1341 C 0.19525 0.52773 0.00142 0.0
C1342 C 0.16059 0.53481 0.89634 0.0
C1343 C 0.15856 0.51875 0.86156 0.0
C1344 C 0.14634 0.54725 0.90049 0.0
C1345 C 0.14684 0.56358 0.93941 0.0
C1346 C 0.14828 0.56063 0.99379 0.0
C1347 C 0.14897 0.57611 0.0302 0.0
C1348 C 0.14802 0.59459 0.01277 0.0
C1349 C 0.14634 0.59762 0.95889 0.0
C1350 C 0.1457 0.58219 0.92228 0.0
C1351 C 0.08179 0.50176 0.79949 0.0
C1352 C 0.07469 0.5151 0.76752 0.0
C1353 C 0.09936 0.50553 0.82093 0.0
C1354 C 0.11017 0.52263 0.81043 0.0
C1355 C 0.10315 0.53589 0.77799 0.0
C1356 C 0.08556 0.53213 0.75656 0.0
C1357 C 0.12832 0.52712 0.83593 0.0
C1358 C 0.1306 0.54345 0.8695 0.0
C1359 C 0.14257 0.51469 0.8313 0.0
C1360 C 0.14112 0.49739 0.79543 0.0
C1361 C 0.13628 0.49854 0.74217 0.0
C1362 C 0.13478 0.48218 0.70891 0.0
C1363 C 0.13817 0.46455 0.72829 0.0
C1364 C 0.14309 0.46325 0.78097 0.0
C1365 C 0.14459 0.47957 0.81443 0.0
H1366 H 0.13698 0.45189 0.70247 0.0
H1367 H 0.14855 0.60656 0.04103 0.0
H1368 H 0.94591 0.80863 0.29858 0.0
H1369 H 0.9565 0.83478 0.35962 0.0
H1370 H 0.90223 0.83237 0.43405 0.0
H1371 H 0.89143 0.80648 0.37163 0.0
H1372 H 0.91265 0.86719 0.41349 0.0
H1373 H 0.94168 0.81917 0.49833 0.0
H1374 H 0.96049 0.79204 0.50576 0.0
H1375 H 0.00838 0.82609 0.44779 0.0
H1376 H 0.9898 0.85336 0.43931 0.0
H1377 H 0.94505 0.93778 0.6106 0.0
H1378 H 0.93286 0.90749 0.56794 0.0
H1379 H 0.98052 0.90954 0.46231 0.0
H1380 H 0.99276 0.93969 0.50546 0.0
H1381 H 0.97203 0.87375 0.5082 0.0
H1382 H 0.94112 0.92077 0.41754 0.0
H1383 H 0.92178 0.94763 0.41311 0.0
H1384 H 0.87652 0.9144 0.48797 0.0
H1385 H 0.8957 0.88742 0.49347 0.0
C1386 C 0.93638 0.81331 0.3289 0.0
C1387 C 0.91787 0.80547 0.33051 0.0
C1388 C 0.94245 0.82829 0.36388 0.0
C1389 C 0.93023 0.8355 0.40193 0.0
C1390 C 0.91191 0.82711 0.40504 0.0
C1391 C 0.90577 0.81228 0.36954 0.0
C1392 C 0.93618 0.8528 0.43509 0.0
C1393 C 0.92544 0.86842 0.43512 0.0
C1394 C 0.95303 0.85464 0.46268 0.0
C1395 C 0.96429 0.83828 0.46783 0.0
C1396 C 0.95619 0.82084 0.48681 0.0
C1397 C 0.96682 0.80544 0.49126 0.0
C1398 C 0.98561 0.80733 0.47716 0.0
C1399 C 0.99382 0.82464 0.45868 0.0
C1400 C 0.98325 0.84009 0.45411 0.0
C1401 C 0.95294 0.93164 0.5787 0.0
C1402 C 0.96988 0.9409 0.56178 0.0
C1403 C 0.94593 0.91445 0.55406 0.0
C1404 C 0.95583 0.90626 0.51206 0.0
C1405 C 0.97272 0.91558 0.49483 0.0
C1406 C 0.97962 0.93285 0.51921 0.0
C1407 C 0.94861 0.888 0.48577 0.0
C1408 C 0.95912 0.87229 0.48707 0.0
C1409 C 0.93146 0.88598 0.45998 0.0
C1410 C 0.91991 0.90216 0.45645 0.0
C1411 C 0.9271 0.91925 0.43346 0.0
C1412 C 0.91616 0.93449 0.43068 0.0
C1413 C 0.89795 0.93275 0.45039 0.0
C1414 C 0.89064 0.91574 0.47279 0.0
C1415 C 0.90153 0.90047 0.47572 0.0
H1416 H 0.8895 0.94456 0.4482 0.0
H1417 H 0.99382 0.79539 0.48063 0.0
H1418 H 0.70927 0.98811 0.46988 0.0
H1419 H 0.68114 0.98795 0.52547 0.0
H1420 H 0.66637 0.03811 0.44968 0.0
H1421 H 0.69459 0.03862 0.3953 0.0
H1422 H 0.65454 0.039 0.54888 0.0
H1423 H 0.6514 0.99254 0.40382 0.0
H1424 H 0.66152 0.96526 0.35026 0.0
H1425 H 0.65295 0.92948 0.48411 0.0
H1426 H 0.64305 0.95666 0.53873 0.0
H1427 H 0.556 0.025 0.55851 0.0
H1428 H 0.58853 0.02841 0.52951 0.0
H1429 H 0.59948 0.9817 0.62606 0.0
H1430 H 0.56701 0.97815 0.65485 0.0
H1431 H 0.61407 0.97861 0.5246 0.0
H1432 H 0.61396 0.02608 0.66674 0.0
H1433 H 0.60333 0.05415 0.71572 0.0
H1434 H 0.61643 0.08857 0.58102 0.0
H1435 H 0.6271 0.06072 0.53109 0.0
C1436 C 0.70026 0.99939 0.46624 0.0
C1437 C 0.70406 0.0133 0.42804 0.0
C1438 C 0.68416 0.99924 0.49778 0.0
C1439 C 0.67139 0.01272 0.49074 0.0
C1440 C 0.67595 0.02752 0.45572 0.0
C1441 C 0.69215 0.02783 0.42474 0.0
C1442 C 0.65253 0.01033 0.51515 0.0
C1443 C 0.64568 0.02582 0.5434 0.0
C1444 C 0.64095 0.99308 0.50839 0.0
C1445 C 0.64669 0.97668 0.47549 0.0
C1446 C 0.65179 0.97888 0.42191 0.0
C1447 C 0.65748 0.96344 0.39136 0.0
C1448 C 0.65792 0.94566 0.41381 0.0
C1449 C 0.65263 0.94327 0.46681 0.0
C1450 C 0.64698 0.95869 0.49759 0.0
C1451 C 0.56531 0.01539 0.57335 0.0
C1452 C 0.55892 0.00125 0.60894 0.0
C1453 C 0.58392 0.01747 0.55711 0.0
C1454 C 0.59645 0.00543 0.5761 0.0
C1455 C 0.59006 0.99118 0.61109 0.0
C1456 C 0.57151 0.98918 0.62753 0.0
C1457 C 0.61609 0.00729 0.55809 0.0
C1458 C 0.62303 0.99169 0.53076 0.0
C1459 C 0.62761 0.02452 0.56502 0.0
C1460 C 0.6212 0.04127 0.59503 0.0
C1461 C 0.61445 0.0396 0.64742 0.0
C1462 C 0.60844 0.05547 0.67538 0.0
C1463 C 0.60911 0.07309 0.65143 0.0
C1464 C 0.61589 0.0749 0.59951 0.0
C1465 C 0.62197 0.0591 0.5714 0.0
H1466 H 0.60444 0.08535 0.67316 0.0
H1467 H 0.66233 0.93371 0.39009 0.0
H1468 H 0.62594 0.68389 0.37215 0.0
H1469 H 0.61587 0.6602 0.43773 0.0
H1470 H 0.55903 0.67034 0.41437 0.0
H1471 H 0.56898 0.69396 0.34864 0.0
H1472 H 0.56554 0.66363 0.51858 0.0
H1473 H 0.5776 0.63497 0.34565 0.0
H1474 H 0.59689 0.62874 0.26639 0.0
H1475 H 0.63646 0.60536 0.36271 0.0
H1476 H 0.61751 0.61172 0.44269 0.0
H1477 H 0.51359 0.57712 0.57678 0.0
H1478 H 0.52886 0.60582 0.53797 0.0
H1479 H 0.58209 0.58497 0.56021 0.0
H1480 H 0.56665 0.55567 0.59696 0.0
H1481 H 0.58096 0.59826 0.46604 0.0
H1482 H 0.56402 0.62099 0.63764 0.0
H1483 H 0.54352 0.62688 0.71455 0.0
H1484 H 0.51203 0.66119 0.62106 0.0
H1485 H 0.532 0.65519 0.54322 0.0
C1486 C 0.61131 0.68127 0.38153 0.0
C1487 C 0.59824 0.69064 0.35467 0.0
C1488 C 0.60558 0.66776 0.41909 0.0
C1489 C 0.58667 0.66326 0.43026 0.0
C1490 C 0.57369 0.67357 0.40635 0.0
C1491 C 0.57941 0.68712 0.36884 0.0
C1492 C 0.58028 0.64662 0.46257 0.0
C1493 C 0.5688 0.64929 0.50716 0.0
C1494 C 0.58495 0.628 0.44825 0.0
C1495 C 0.59626 0.62403 0.40017 0.0
C1496 C 0.59048 0.62863 0.34995 0.0
C1497 C 0.60134 0.62506 0.30491 0.0
C1498 C 0.61792 0.61671 0.30953 0.0
C1499 C 0.62363 0.61186 0.3592 0.0
C1500 C 0.61284 0.61545 0.4044 0.0
C1501 C 0.52856 0.57869 0.57352 0.0
C1502 C 0.53897 0.56419 0.58961 0.0
C1503 C 0.53729 0.59517 0.5517 0.0
C1504 C 0.55667 0.59777 0.54689 0.0
C1505 C 0.56713 0.58333 0.56356 0.0
C1506 C 0.55833 0.56662 0.58456 0.0
C1507 C 0.56585 0.61509 0.52191 0.0
C1508 C 0.57788 0.61256 0.47845 0.0
C1509 C 0.56155 0.63381 0.53728 0.0
C1510 C 0.54958 0.63761 0.58441 0.0
C1511 C 0.55271 0.62975 0.63337 0.0
C1512 C 0.54116 0.63308 0.67715 0.0
C1513 C 0.52654 0.64442 0.67272 0.0
C1514 C 0.52339 0.65243 0.62447 0.0
C1515 C 0.53483 0.64907 0.58048 0.0
H1516 H 0.51763 0.64699 0.70669 0.0
H1517 H 0.6263 0.61396 0.2746 0.0
H1518 H 0.80787 0.42692 0.35494 0.0
H1519 H 0.83372 0.43628 0.41332 0.0
H1520 H 0.83262 0.49496 0.37115 0.0
H1521 H 0.80719 0.48562 0.31139 0.0
H1522 H 0.86643 0.48386 0.35832 0.0
H1523 H 0.82014 0.48012 0.49623 0.0
H1524 H 0.7938 0.46547 0.54851 0.0
H1525 H 0.8259 0.42007 0.58862 0.0
H1526 H 0.85236 0.43428 0.53591 0.0
H1527 H 0.93709 0.5201 0.53399 0.0
H1528 H 0.9074 0.51368 0.48984 0.0
H1529 H 0.90574 0.4543 0.52809 0.0
H1530 H 0.93517 0.46081 0.57357 0.0
H1531 H 0.87265 0.46715 0.54534 0.0
H1532 H 0.91783 0.46933 0.40317 0.0
H1533 H 0.94431 0.48337 0.35026 0.0
H1534 H 0.91421 0.53112 0.31757 0.0
H1535 H 0.88762 0.51748 0.37092 0.0
C1536 C 0.81297 0.44186 0.35864 0.0
C1537 C 0.80551 0.4555 0.32824 0.0
C1538 C 0.82767 0.44722 0.39238 0.0
C1539 C 0.83512 0.46634 0.39673 0.0
C1540 C 0.8271 0.48013 0.36843 0.0
C1541 C 0.81242 0.47478 0.33466 0.0
C1542 C 0.85229 0.47166 0.42671 0.0
C1543 C 0.86766 0.48055 0.39956 0.0
C1544 C 0.8541 0.4668 0.48002 0.0
C1545 C 0.83818 0.45818 0.51166 0.0
C1546 C 0.82153 0.46692 0.51579 0.0
C1547 C 0.80659 0.45871 0.54559 0.0
C1548 C 0.80816 0.44183 0.57176 0.0
C1549 C 0.82469 0.43314 0.56827 0.0
C1550 C 0.83968 0.44127 0.53847 0.0
C1551 C 0.93037 0.5057 0.53288 0.0
C1552 C 0.93842 0.49092 0.55684 0.0
C1553 C 0.91346 0.50202 0.50752 0.0
C1554 C 0.90446 0.48345 0.50498 0.0
C1555 C 0.91245 0.46872 0.52938 0.0
C1556 C 0.92928 0.47243 0.55516 0.0
C1557 C 0.88672 0.47935 0.47689 0.0
C1558 C 0.87132 0.47063 0.50429 0.0
C1559 C 0.88486 0.48428 0.42369 0.0
C1560 C 0.90082 0.49248 0.39149 0.0
C1561 C 0.91691 0.4829 0.38505 0.0
C1562 C 0.93193 0.49077 0.35492 0.0
C1563 C 0.93096 0.50815 0.3307 0.0
C1564 C 0.91495 0.51767 0.33643 0.0
C1565 C 0.8999 0.50987 0.36657 0.0
H1566 H 0.9426 0.51422 0.30738 0.0
H1567 H 0.79657 0.4355 0.59483 0.0
loop_
_geom_bond_atom_site_label_1
_geom_bond_atom_site_label_2
_geom_bond_distance
_geom_bond_site_symmetry_2
_ccdc_geom_bond_type
C0 C1 1.384 . S
C0 H13 0.947 . S
C0 C35 1.382 . S
C1 C0 1.384 . S
C1 C2 1.378 . S
C2 C1 1.378 . S
C2 C3 1.378 . S
C2 H14 0.952 . S
C3 C2 1.378 . S
C3 H15 0.950 . S
C3 C34 1.383 . S
H4 C23 0.947 . S
H5 C24 0.946 . S
H6 C26 0.953 . S
H7 C27 0.945 . S
H8 C29 0.952 . S
H9 C30 0.949 . S
H10 C32 0.950 . S
H11 C33 0.948 1_554 S
H12 C35 0.951 . S
H13 C0 0.947 . S
H14 C2 0.952 . S
H15 C3 0.950 . S
N16 C19 1.382 . S
N16 C21 1.363 . S
N17 C19 1.371 . S
N17 C20 1.372 . S
N18 C20 1.361 . S
N18 C21 1.377 . S
C19 N16 1.382 . S
C19 N17 1.371 . S
C19 C22 1.480 . S
C20 N17 1.372 . S
C20 N18 1.361 . S
C20 C28 1.457 1_554 S
C21 N16 1.363 . S
C21 N18 1.377 . S
C21 C34 1.479 . S
C22 C19 1.480 . S
C22 C23 1.383 . S
C22 C27 1.385 1_554 S
C23 H4 0.947 . S
C23 C22 1.383 . S
C23 C24 1.388 . S
C24 H5 0.946 . S
C24 C23 1.388 . S
C24 C25 1.384 . S
C25 C24 1.384 . S
C25 C26 1.377 1_554 S
C26 H6 0.953 . S
C26 C25 1.377 1_556 S
C26 C27 1.369 . S
C27 H7 0.945 . S
C27 C22 1.385 1_556 S
C27 C26 1.369 . S
C28 C20 1.457 1_556 S
C28 C29 1.372 . S
C28 C33 1.364 . S
C29 H8 0.952 . S
C29 C28 1.372 . S
C29 C30 1.389 . S
C30 H9 0.949 . S
C30 C29 1.389 . S
C30 C31 1.387 . S
C31 C30 1.387 . S
C31 C32 1.372 . S
C32 H10 0.950 . S
C32 C31 1.372 . S
C32 C33 1.379 . S
C33 H11 0.948 1_556 S
C33 C28 1.364 . S
C33 C32 1.379 . S
C34 C3 1.383 . S
C34 C21 1.479 . S
C34 C35 1.398 . S
C35 C0 1.382 . S
C35 H12 0.951 . S
C35 C34 1.398 . S
C36 C37 1.384 . S
C36 H49 0.947 . S
C36 C71 1.382 . S
C37 C36 1.384 . S
C37 C38 1.378 . S
C38 C37 1.378 . S
C38 C39 1.378 . S
C38 H50 0.952 . S
C39 C38 1.378 . S
C39 H51 0.950 . S
C39 C70 1.383 . S
H40 C59 0.947 . S
H41 C60 0.946 . S
H42 C62 0.953 . S
H43 C63 0.945 . S
H44 C65 0.952 . S
H45 C66 0.949 . S
H46 C68 0.950 . S
H47 C69 0.948 . S
H48 C71 0.951 . S
H49 C36 0.947 . S
H50 C38 0.952 . S
H51 C39 0.950 . S
N52 C55 1.382 . S
N52 C57 1.363 . S
N53 C55 1.371 1_556 S
N53 C56 1.372 . S
N54 C56 1.361 1_554 S
N54 C57 1.377 . S
C55 N52 1.382 . S
C55 N53 1.371 1_554 S
C55 C58 1.480 1_554 S
C56 N53 1.372 . S
C56 N54 1.361 1_556 S
C56 C64 1.457 . S
C57 N52 1.363 . S
C57 N54 1.377 . S
C57 C70 1.479 . S
C58 C55 1.480 1_556 S
C58 C59 1.383 1_556 S
C58 C63 1.385 . S
C59 H40 0.947 . S
C59 C58 1.383 1_554 S
C59 C60 1.388 . S
C60 H41 0.946 . S
C60 C59 1.388 . S
C60 C61 1.384 1_554 S
C61 C60 1.384 1_556 S
C61 C62 1.377 . S
C62 H42 0.953 . S
C62 C61 1.377 . S
C62 C63 1.369 . S
C63 H43 0.945 . S
C63 C58 1.385 . S
C63 C62 1.369 . S
C64 C56 1.457 . S
C64 C65 1.372 . S
C64 C69 1.364 . S
C65 H44 0.952 . S
C65 C64 1.372 . S
C65 C66 1.389 . S
C66 H45 0.949 . S
C66 C65 1.389 . S
C66 C67 1.387 . S
C67 C66 1.387 . S
C67 C68 1.372 . S
C68 H46 0.950 . S
C68 C67 1.372 . S
C68 C69 1.379 . S
C69 H47 0.948 . S
C69 C64 1.364 . S
C69 C68 1.379 . S
C70 C39 1.383 . S
C70 C57 1.479 . S
C70 C71 1.398 . S
C71 C36 1.382 . S
C71 H48 0.951 . S
C71 C70 1.398 . S
C72 C73 1.384 1_565 S
C72 H85 0.947 . S
C72 C107 1.382 1_565 S
C73 C72 1.384 1_545 S
C73 C74 1.378 . S
C74 C73 1.378 . S
C74 C75 1.378 . S
C74 H86 0.952 . S
C75 C74 1.378 . S
C75 H87 0.950 . S
C75 C106 1.383 . S
H76 C95 0.947 . S
H77 C96 0.954 . S
H78 C98 0.959 . S
H79 C99 0.945 1_556 S
H80 C101 0.948 1_565 S
H81 C102 0.956 . S
H82 C104 0.950 . S
H83 C105 0.948 . S
H84 C107 0.951 1_565 S
H85 C72 0.947 . S
H86 C74 0.952 . S
H87 C75 0.950 . S
N88 C91 1.382 . S
N88 C93 1.363 . S
N89 C91 1.371 . S
N89 C92 1.372 . S
N90 C92 1.361 . S
N90 C93 1.377 . S
C91 N88 1.382 . S
C91 N89 1.371 . S
C91 C94 1.480 . S
C92 N89 1.372 . S
C92 N90 1.361 . S
C92 C100 1.457 . S
C93 N88 1.363 . S
C93 N90 1.377 . S
C93 C106 1.479 . S
C94 C91 1.480 . S
C94 C95 1.383 . S
C94 C99 1.385 . S
C95 H76 0.947 . S
C95 C94 1.383 . S
C95 C96 1.383 1_545 S
C96 H77 0.954 . S
C96 C95 1.383 1_565 S
C96 C97 1.381 1_565 S
C97 C96 1.381 1_545 S
C97 C98 1.372 1_554 S
C98 H78 0.959 . S
C98 C97 1.372 1_556 S
C98 C99 1.368 1_556 S
C99 H79 0.945 1_554 S
C99 C94 1.385 . S
C99 C98 1.368 1_554 S
C100 C92 1.457 . S
C100 C101 1.376 1_554 S
C100 C105 1.364 . S
C101 H80 0.948 1_545 S
C101 C100 1.376 1_556 S
C101 C102 1.392 1_545 S
C102 H81 0.956 . S
C102 C101 1.392 1_565 S
C102 C103 1.379 1_565 S
C103 C102 1.379 1_545 S
C103 C104 1.372 . S
C104 H82 0.950 . S
C104 C103 1.372 . S
C104 C105 1.379 1_556 S
C105 H83 0.948 . S
C105 C100 1.364 . S
C105 C104 1.379 1_554 S
C106 C75 1.383 . S
C106 C93 1.479 . S
C106 C107 1.398 . S
C107 C72 1.382 1_545 S
C107 H84 0.951 1_545 S
C107 C106 1.398 . S
C108 C109 1.384 . S
C108 H121 0.947 . S
C108 C143 1.382 1_556 S
C109 C108 1.384 . S
C109 C110 1.378 . S
C110 C109 1.378 . S
C110 C111 1.378 . S
C110 H122 0.952 . S
C111 C110 1.378 . S
C111 H123 0.950 . S
C111 C142 1.383 . S
H112 C131 0.947 1_556 S
H113 C132 0.946 . S
H114 C134 0.953 . S
H115 C135 0.945 . S
H116 C137 0.952 . S
H117 C138 0.949 . S
H118 C140 0.950 . S
H119 C141 0.948 . S
H120 C143 0.951 . S
H121 C108 0.947 . S
H122 C110 0.952 . S
H123 C111 0.950 . S
N124 C127 1.382 . S
N124 C129 1.363 . S
N125 C127 1.371 . S
N125 C128 1.372 . S
N126 C128 1.361 . S
N126 C129 1.377 . S
C127 N124 1.382 . S
C127 N125 1.371 . S
C127 C130 1.480 . S
C128 N125 1.372 . S
C128 N126 1.361 . S
C128 C136 1.457 . S
C129 N124 1.363 . S
C129 N126 1.377 . S
C129 C142 1.479 1_554 S
C130 C127 1.480 . S
C130 C131 1.383 . S
C130 C135 1.385 . S
C131 H112 0.947 1_554 S
C131 C130 1.383 . S
C131 C132 1.388 1_554 S
C132 H113 0.946 . S
C132 C131 1.388 1_556 S
C132 C133 1.384 1_556 S
C133 C132 1.384 1_554 S
C133 C134 1.377 . S
C134 H114 0.953 . S
C134 C133 1.377 . S
C134 C135 1.369 . S
C135 H115 0.945 . S
C135 C130 1.385 . S
C135 C134 1.369 . S
C136 C128 1.457 . S
C136 C137 1.372 . S
C136 C141 1.364 . S
C137 H116 0.952 . S
C137 C136 1.372 . S
C137 C138 1.389 . S
C138 H117 0.949 . S
C138 C137 1.389 . S
C138 C139 1.387 . S
C139 C138 1.387 . S
C139 C140 1.372 . S
C140 H118 0.950 . S
C140 C139 1.372 . S
C140 C141 1.379 . S
C141 H119 0.948 . S
C141 C136 1.364 . S
C141 C140 1.379 . S
C142 C111 1.383 . S
C142 C129 1.479 1_556 S
C142 C143 1.398 1_556 S
C143 C108 1.382 1_554 S
C143 H120 0.951 . S
C143 C142 1.398 1_554 S
C144 C145 1.384 . S
C144 H157 0.947 . S
C144 C179 1.382 . S
C145 C144 1.384 . S
C145 C146 1.378 . S
C146 C145 1.378 . S
C146 C147 1.378 . S
C146 H158 0.952 . S
C147 C146 1.378 . S
C147 H159 0.950 . S
C147 C178 1.383 . S
H148 C167 0.947 . S
H149 C168 0.946 . S
H150 C170 0.953 . S
H151 C171 0.945 . S
H152 C173 0.952 . S
H153 C174 0.949 . S
H154 C176 0.950 . S
H155 C177 0.948 . S
H156 C179 0.951 . S
H157 C144 0.947 . S
H158 C146 0.952 . S
H159 C147 0.950 . S
N160 C163 1.382 . S
N160 C165 1.363 . S
N161 C163 1.371 . S
N161 C164 1.372 . S
N162 C164 1.361 . S
N162 C165 1.377 . S
C163 N160 1.382 . S
C163 N161 1.371 . S
C163 C166 1.480 . S
C164 N161 1.372 . S
C164 N162 1.361 . S
C164 C172 1.457 . S
C165 N160 1.363 . S
C165 N162 1.377 . S
C165 C178 1.479 . S
C166 C163 1.480 . S
C166 C167 1.383 . S
C166 C171 1.385 . S
C167 H148 0.947 . S
C167 C166 1.383 . S
C167 C168 1.388 . S
C168 H149 0.946 . S
C168 C167 1.388 . S
C168 C169 1.384 . S
C169 C168 1.384 . S
C169 C170 1.377 . S
C170 H150 0.953 . S
C170 C169 1.377 . S
C170 C171 1.369 . S
C171 H151 0.945 . S
C171 C166 1.385 . S
C171 C170 1.369 . S
C172 C164 1.457 . S
C172 C173 1.372 . S
C172 C177 1.364 . S
C173 H152 0.952 . S
C173 C172 1.372 . S
C173 C174 1.389 . S
C174 H153 0.949 . S
C174 C173 1.389 . S
C174 C175 1.387 . S
C175 C174 1.387 . S
C175 C176 1.372 . S
C176 H154 0.950 . S
C176 C175 1.372 . S
C176 C177 1.379 . S
C177 H155 0.948 . S
C177 C172 1.364 . S
C177 C176 1.379 . S
C178 C147 1.383 . S
C178 C165 1.479 . S
C178 C179 1.398 . S
C179 C144 1.382 . S
C179 H156 0.951 . S
C179 C178 1.398 . S
C180 C181 1.384 . S
C180 H193 0.947 . S
C180 C215 1.382 . S
C181 C180 1.384 . S
C181 C182 1.378 . S
C182 C181 1.378 . S
C182 C183 1.378 . S
C182 H194 0.952 . S
C183 C182 1.378 . S
C183 H195 0.950 . S
C183 C214 1.383 . S
H184 C203 0.947 . S
H185 C204 0.946 . S
H186 C206 0.953 . S
H187 C207 0.945 . S
H188 C209 0.952 . S
H189 C210 0.949 . S
H190 C212 0.950 . S
H191 C213 0.948 . S
H192 C215 0.951 . S
H193 C180 0.947 . S
H194 C182 0.952 . S
H195 C183 0.950 . S
N196 C199 1.382 . S
N196 C201 1.363 . S
N197 C199 1.371 . S
N197 C200 1.372 . S
N198 C200 1.361 . S
N198 C201 1.377 . S
C199 N196 1.382 . S
C199 N197 1.371 . S
C199 C202 1.480 . S
C200 N197 1.372 . S
C200 N198 1.361 . S
C200 C208 1.457 . S
C201 N196 1.363 . S
C201 N198 1.377 . S
C201 C214 1.479 . S
C202 C199 1.480 . S
C202 C203 1.383 . S
C202 C207 1.385 . S
C203 H184 0.947 . S
C203 C202 1.383 . S
C203 C204 1.388 . S
C204 H185 0.946 . S
C204 C203 1.388 . S
C204 C205 1.384 . S
C205 C204 1.384 . S
C205 C206 1.377 . S
C206 H186 0.953 . S
C206 C205 1.377 . S
C206 C207 1.369 . S
C207 H187 0.945 . S
C207 C202 1.385 . S
C207 C206 1.369 . S
C208 C200 1.457 . S
C208 C209 1.372 . S
C208 C213 1.364 . S
C209 H188 0.952 . S
C209 C208 1.372 . S
C209 C210 1.389 . S
C210 H189 0.949 . S
C210 C209 1.389 . S
C210 C211 1.387 . S
C211 C210 1.387 . S
C211 C212 1.372 . S
C212 H190 0.950 . S
C212 C211 1.372 . S
C212 C213 1.379 . S
C213 H191 0.948 . S
C213 C208 1.364 . S
C213 C212 1.379 . S
C214 C183 1.383 . S
C214 C201 1.479 . S
C214 C215 1.398 . S
C215 C180 1.382 . S
C215 H192 0.951 . S
C215 C214 1.398 . S
C216 C217 1.384 . S
C216 H229 0.947 . S
C216 C251 1.382 . S
C217 C216 1.384 . S
C217 C218 1.378 . S
C218 C217 1.378 . S
C218 C219 1.378 . S
C218 H230 0.952 . S
C219 C218 1.378 . S
C219 H231 0.950 . S
C219 C250 1.383 . S
H220 C239 0.947 . S
H221 C240 0.954 . S
H222 C242 0.953 . S
H223 C243 0.945 . S
H224 C245 0.952 . S
H225 C246 0.949 . S
H226 C248 0.950 . S
H227 C249 0.948 . S
H228 C251 0.951 . S
H229 C216 0.947 . S
H230 C218 0.952 . S
H231 C219 0.950 . S
N232 C235 1.382 . S
N232 C237 1.363 . S
N233 C235 1.371 . S
N233 C236 1.372 . S
N234 C236 1.361 . S
N234 C237 1.377 . S
C235 N232 1.382 . S
C235 N233 1.371 . S
C235 C238 1.480 . S
C236 N233 1.372 . S
C236 N234 1.361 . S
C236 C244 1.457 . S
C237 N232 1.363 . S
C237 N234 1.377 . S
C237 C250 1.479 . S
C238 C235 1.480 . S
C238 C239 1.383 . S
C238 C243 1.385 . S
C239 H220 0.947 . S
C239 C238 1.383 . S
C239 C240 1.388 . S
C240 H221 0.954 . S
C240 C239 1.388 . S
C240 C241 1.384 . S
C241 C240 1.384 . S
C241 C242 1.377 . S
C242 H222 0.953 . S
C242 C241 1.377 . S
C242 C243 1.369 . S
C243 H223 0.945 . S
C243 C238 1.385 . S
C243 C242 1.369 . S
C244 C236 1.457 . S
C244 C245 1.372 . S
C244 C249 1.364 . S
C245 H224 0.952 . S
C245 C244 1.372 . S
C245 C246 1.389 . S
C246 H225 0.949 . S
C246 C245 1.389 . S
C246 C247 1.387 . S
C247 C246 1.387 . S
C247 C248 1.372 . S
C248 H226 0.950 . S
C248 C247 1.372 . S
C248 C249 1.379 . S
C249 H227 0.948 . S
C249 C244 1.364 . S
C249 C248 1.379 . S
C250 C219 1.383 . S
C250 C237 1.479 . S
C250 C251 1.398 . S
C251 C216 1.382 . S
C251 H228 0.951 . S
C251 C250 1.398 . S
C252 C253 1.384 . S
C252 H265 0.947 . S
C252 C287 1.382 . S
C253 C252 1.384 . S
C253 C254 1.378 . S
C254 C253 1.378 . S
C254 C255 1.378 . S
C254 H266 0.952 . S
C255 C254 1.378 . S
C255 H267 0.950 . S
C255 C286 1.383 . S
H256 C275 0.947 . S
H257 C276 0.946 . S
H258 C278 0.953 . S
H259 C279 0.945 . S
H260 C281 0.952 . S
H261 C282 0.949 . S
H262 C284 0.950 . S
H263 C285 0.948 . S
H264 C287 0.951 . S
H265 C252 0.947 . S
H266 C254 0.952 . S
H267 C255 0.950 . S
N268 C271 1.382 . S
N268 C273 1.363 . S
N269 C271 1.371 . S
N269 C272 1.372 . S
N270 C272 1.361 . S
N270 C273 1.377 . S
C271 N268 1.382 . S
C271 N269 1.371 . S
C271 C274 1.480 . S
C272 N269 1.372 . S
C272 N270 1.361 . S
C272 C280 1.457 . S
C273 N268 1.363 . S
C273 N270 1.377 . S
C273 C286 1.479 . S
C274 C271 1.480 . S
C274 C275 1.383 . S
C274 C279 1.385 . S
C275 H256 0.947 . S
C275 C274 1.383 . S
C275 C276 1.388 . S
C276 H257 0.946 . S
C276 C275 1.388 . S
C276 C277 1.384 . S
C277 C276 1.384 . S
C277 C278 1.377 . S
C278 H258 0.953 . S
C278 C277 1.377 . S
C278 C279 1.369 . S
C279 H259 0.945 . S
C279 C274 1.385 . S
C279 C278 1.369 . S
C280 C272 1.457 . S
C280 C281 1.372 . S
C280 C285 1.364 . S
C281 H260 0.952 . S
C281 C280 1.372 . S
C281 C282 1.389 . S
C282 H261 0.949 . S
C282 C281 1.389 . S
C282 C283 1.387 . S
C283 C282 1.387 . S
C283 C284 1.372 . S
C284 H262 0.950 . S
C284 C283 1.372 . S
C284 C285 1.379 . S
C285 H263 0.948 . S
C285 C280 1.364 . S
C285 C284 1.379 . S
C286 C255 1.383 . S
C286 C273 1.479 . S
C286 C287 1.398 . S
C287 C252 1.382 . S
C287 H264 0.951 . S
C287 C286 1.398 . S
Tb288 O291 2.453 1_665 S
Tb288 O292 2.596 1_665 S
Tb288 O293 2.374 1_655 S
Tb288 O301 2.343 . S
Tb288 O303 2.353 1_565 S
Tb288 O305 2.427 . S
Tb288 O306 2.513 . S
C289 O293 1.251 . S
C289 O295 1.263 . S
Tb290 O292 2.343 . S
Tb290 O295 2.353 1_545 S
Tb290 O298 2.427 . S
Tb290 O299 2.513 . S
Tb290 O300 2.453 1_545 S
Tb290 O301 2.596 1_445 S
Tb290 O302 2.374 1_455 S
O291 Tb288 2.453 1_445 S
O291 C307 1.245 . S
O292 Tb288 2.596 1_445 S
O292 Tb290 2.343 . S
O292 C307 1.259 . S
O293 Tb288 2.374 1_455 S
O293 C289 1.251 . S
C294 O298 1.275 . S
C294 O299 1.246 . S
O295 C289 1.263 . S
O295 Tb290 2.353 1_565 S
C296 O300 1.245 1_655 S
C296 O301 1.259 . S
C297 O302 1.250 . S
C297 O303 1.263 . S
O298 Tb290 2.427 . S
O298 C294 1.275 . S
O299 Tb290 2.513 . S
O299 C294 1.246 . S
O300 Tb290 2.453 1_565 S
O300 C296 1.245 1_455 S
O301 Tb288 2.343 . S
O301 Tb290 2.596 1_665 S
O301 C296 1.259 . S
O302 Tb290 2.374 1_655 S
O302 C297 1.250 . S
O303 Tb288 2.353 1_545 S
O303 C297 1.263 . S
C304 O305 1.275 . S
C304 O306 1.246 . S
O305 Tb288 2.427 . S
O305 C304 1.275 . S
O306 Tb288 2.513 . S
O306 C304 1.246 . S
C307 O291 1.245 . S
C307 O292 1.259 . S
Tb308 O311 2.453 . S
Tb308 O312 2.542 1_545 S
Tb308 O313 2.374 . S
Tb308 O321 2.343 . S
Tb308 O323 2.353 . S
Tb308 O325 2.427 . S
Tb308 O326 2.513 . S
C309 O313 1.251 . S
C309 O315 1.263 1_545 S
Tb310 O312 2.385 . S
Tb310 O315 2.353 . S
Tb310 O318 2.427 . S
Tb310 O319 2.513 . S
Tb310 O320 2.453 . S
Tb310 O321 2.596 1_565 S
Tb310 O322 2.374 . S
O311 Tb308 2.453 . S
O311 C327 1.245 . S
O312 Tb308 2.542 1_565 S
O312 Tb310 2.385 . S
O312 C327 1.233 1_565 S
O313 Tb308 2.374 . S
O313 C309 1.251 . S
C314 O318 1.275 . S
C314 O319 1.246 . S
O315 C309 1.263 1_565 S
O315 Tb310 2.353 . S
C316 O320 1.245 . S
C316 O321 1.259 1_565 S
C317 O322 1.250 1_545 S
C317 O323 1.263 . S
O318 Tb310 2.427 . S
O318 C314 1.275 . S
O319 Tb310 2.513 . S
O319 C314 1.246 . S
O320 Tb310 2.453 . S
O320 C316 1.245 . S
O321 Tb308 2.343 . S
O321 Tb310 2.596 1_545 S
O321 C316 1.259 1_545 S
O322 Tb310 2.374 . S
O322 C317 1.250 1_565 S
O323 Tb308 2.353 . S
O323 C317 1.263 . S
C324 O325 1.275 . S
C324 O326 1.246 . S
O325 Tb308 2.427 . S
O325 C324 1.275 . S
O326 Tb308 2.513 . S
O326 C324 1.246 . S
C327 O311 1.245 . S
C327 O312 1.233 1_545 S
Tb328 O331 2.453 . S
Tb328 O332 2.596 . S
Tb328 O333 2.374 . S
Tb328 O341 2.343 . S
Tb328 O343 2.353 . S
Tb328 O345 2.427 . S
Tb328 O346 2.513 . S
C329 O333 1.251 . S
C329 O335 1.263 . S
Tb330 O332 2.343 . S
Tb330 O335 2.353 . S
Tb330 O338 2.427 . S
Tb330 O339 2.513 . S
Tb330 O340 2.453 . S
Tb330 O341 2.596 . S
Tb330 O342 2.374 . S
O331 Tb328 2.453 . S
O331 C347 1.245 . S
O332 Tb328 2.596 . S
O332 Tb330 2.343 . S
O332 C347 1.259 . S
O333 Tb328 2.374 . S
O333 C329 1.251 . S
C334 O338 1.275 . S
C334 O339 1.246 . S
O335 C329 1.263 . S
O335 Tb330 2.353 . S
C336 O340 1.245 . S
C336 O341 1.259 . S
C337 O342 1.250 . S
C337 O343 1.263 . S
O338 Tb330 2.427 . S
O338 C334 1.275 . S
O339 Tb330 2.513 . S
O339 C334 1.246 . S
O340 Tb330 2.453 . S
O340 C336 1.245 . S
O341 Tb328 2.343 . S
O341 Tb330 2.596 . S
O341 C336 1.259 . S
O342 Tb330 2.374 . S
O342 C337 1.250 . S
O343 Tb328 2.353 . S
O343 C337 1.263 . S
C344 O345 1.275 . S
C344 O346 1.246 . S
O345 Tb328 2.427 . S
O345 C344 1.275 . S
O346 Tb328 2.513 . S
O346 C344 1.246 . S
C347 O331 1.245 . S
C347 O332 1.259 . S
Tb348 O351 2.453 1_655 S
Tb348 O352 2.596 1_655 S
Tb348 O353 2.374 1_655 S
Tb348 O361 2.343 . S
Tb348 O363 2.353 . S
Tb348 O365 2.427 . S
Tb348 O366 2.513 . S
C349 O353 1.251 . S
C349 O355 1.263 . S
Tb350 O352 2.343 . S
Tb350 O355 2.353 . S
Tb350 O358 2.427 . S
Tb350 O359 2.513 . S
Tb350 O360 2.453 1_455 S
Tb350 O361 2.596 1_455 S
Tb350 O362 2.374 . S
O351 Tb348 2.453 1_455 S
O351 C367 1.245 . S
O352 Tb348 2.596 1_455 S
O352 Tb350 2.343 . S
O352 C367 1.259 . S
O353 Tb348 2.374 1_455 S
O353 C349 1.251 . S
C354 O358 1.275 . S
C354 O359 1.246 . S
O355 C349 1.263 . S
O355 Tb350 2.353 . S
C356 O360 1.245 . S
C356 O361 1.259 . S
C357 O362 1.250 1_655 S
C357 O363 1.263 . S
O358 Tb350 2.427 . S
O358 C354 1.275 . S
O359 Tb350 2.513 . S
O359 C354 1.246 . S
O360 Tb350 2.453 1_655 S
O360 C356 1.245 . S
O361 Tb348 2.343 . S
O361 Tb350 2.596 1_655 S
O361 C356 1.259 . S
O362 Tb350 2.374 . S
O362 C357 1.250 1_455 S
O363 Tb348 2.353 . S
O363 C357 1.263 . S
C364 O365 1.275 . S
C364 O366 1.246 . S
O365 Tb348 2.427 . S
O365 C364 1.275 . S
O366 Tb348 2.513 . S
O366 C364 1.246 . S
C367 O351 1.245 . S
C367 O352 1.259 . S
H368 C386 0.955 . S
H369 C388 0.951 . S
H370 C390 0.950 . S
H371 C391 0.950 . S
H372 C393 0.950 . S
H373 C396 0.950 . S
H374 C397 0.950 . S
H375 C399 0.950 . S
H376 C400 0.950 . S
H377 C401 0.951 . S
H378 C403 0.951 . S
H379 C405 0.950 . S
H380 C406 0.950 . S
H381 C408 0.950 . S
H382 C411 0.950 . S
H383 C412 0.950 . S
H384 C414 0.950 . S
H385 C415 0.950 . S
C386 H368 0.955 . S
C386 C387 1.362 1_565 S
C386 C388 1.388 . S
C387 C386 1.362 1_545 S
C387 C391 1.385 . S
C388 H369 0.951 . S
C388 C386 1.388 . S
C388 C389 1.366 1_565 S
C389 C388 1.366 1_545 S
C389 C390 1.414 . S
C389 C392 1.498 . S
C390 H370 0.950 . S
C390 C389 1.414 . S
C390 C391 1.374 . S
C391 H371 0.950 . S
C391 C387 1.385 . S
C391 C390 1.374 . S
C392 C389 1.498 . S
C392 C393 1.423 . S
C392 C394 1.345 1_545 S
C393 H372 0.950 . S
C393 C392 1.423 . S
C393 C409 1.377 . S
C394 C392 1.345 1_565 S
C394 C395 1.524 . S
C394 C408 1.377 . S
C395 C394 1.524 . S
C395 C396 1.397 . S
C395 C400 1.363 . S
C396 H373 0.950 . S
C396 C395 1.397 . S
C396 C397 1.334 . S
C397 H374 0.950 . S
C397 C396 1.334 . S
C397 C398 1.287 . S
C398 C397 1.287 . S
C398 C399 1.524 . S
C398 H417 0.913 . S
C399 H375 0.950 . S
C399 C398 1.524 . S
C399 C400 1.415 . S
C400 H376 0.950 . S
C400 C395 1.363 . S
C400 C399 1.415 . S
C401 H377 0.951 . S
C401 C402 1.366 1_545 S
C401 C403 1.388 . S
C402 C401 1.366 1_565 S
C402 C406 1.385 . S
C403 H378 0.951 . S
C403 C401 1.388 . S
C403 C404 1.381 . S
C404 C403 1.381 . S
C404 C405 1.399 1_545 S
C404 C407 1.498 . S
C405 H379 0.950 . S
C405 C404 1.399 1_565 S
C405 C406 1.374 . S
C406 H380 0.950 . S
C406 C402 1.385 . S
C406 C405 1.374 . S
C407 C404 1.498 . S
C407 C408 1.373 1_545 S
C407 C409 1.389 . S
C408 H381 0.950 . S
C408 C394 1.377 . S
C408 C407 1.373 1_565 S
C409 C393 1.377 . S
C409 C407 1.389 . S
C409 C410 1.524 . S
C410 C409 1.524 . S
C410 C411 1.397 . S
C410 C415 1.363 . S
C411 H382 0.950 . S
C411 C410 1.397 . S
C411 C412 1.334 . S
C412 H383 0.950 . S
C412 C411 1.334 . S
C412 C413 1.287 . S
C413 C412 1.287 . S
C413 C414 1.524 . S
C413 H416 0.999 . S
C414 H384 0.950 . S
C414 C413 1.524 . S
C414 C415 1.415 . S
C415 H385 0.950 . S
C415 C410 1.363 . S
C415 C414 1.415 . S
H416 C413 0.999 . S
H417 C398 0.913 . S
H418 C436 0.951 . S
H419 C438 0.951 . S
H420 C440 0.950 . S
H421 C441 0.950 . S
H422 C443 0.950 . S
H423 C446 0.950 . S
H424 C447 0.950 . S
H425 C449 0.950 . S
H426 C450 0.950 . S
H427 C451 0.951 . S
H428 C453 0.951 . S
H429 C455 0.950 . S
H430 C456 0.950 . S
H431 C458 0.950 . S
H432 C461 0.950 . S
H433 C462 0.950 . S
H434 C464 0.950 . S
H435 C465 0.950 . S
C436 H418 0.951 . S
C436 C437 1.366 . S
C436 C438 1.388 . S
C437 C436 1.366 . S
C437 C441 1.385 . S
C438 H419 0.951 . S
C438 C436 1.388 . S
C438 C439 1.366 . S
C439 C438 1.366 . S
C439 C440 1.414 . S
C439 C442 1.499 . S
C440 H420 0.950 . S
C440 C439 1.414 . S
C440 C441 1.374 . S
C441 H421 0.950 . S
C441 C437 1.385 . S
C441 C440 1.374 . S
C442 C439 1.499 . S
C442 C443 1.373 . S
C442 C444 1.389 . S
C443 H422 0.950 . S
C443 C442 1.373 . S
C443 C459 1.377 . S
C444 C442 1.389 . S
C444 C445 1.524 . S
C444 C458 1.377 . S
C445 C444 1.524 . S
C445 C446 1.397 . S
C445 C450 1.363 . S
C446 H423 0.950 . S
C446 C445 1.397 . S
C446 C447 1.334 . S
C447 H424 0.950 . S
C447 C446 1.334 . S
C447 C448 1.287 . S
C448 C447 1.287 . S
C448 C449 1.524 . S
C448 H467 0.913 . S
C449 H425 0.950 . S
C449 C448 1.524 . S
C449 C450 1.415 . S
C450 H426 0.950 . S
C450 C445 1.363 . S
C450 C449 1.415 . S
C451 H427 0.951 . S
C451 C452 1.366 . S
C451 C453 1.388 . S
C452 C451 1.366 . S
C452 C456 1.385 . S
C453 H428 0.951 . S
C453 C451 1.388 . S
C453 C454 1.366 . S
C454 C453 1.366 . S
C454 C455 1.414 . S
C454 C457 1.499 . S
C455 H429 0.950 . S
C455 C454 1.414 . S
C455 C456 1.374 . S
C456 H430 0.950 . S
C456 C452 1.385 . S
C456 C455 1.374 . S
C457 C454 1.499 . S
C457 C458 1.373 . S
C457 C459 1.389 . S
C458 H431 0.950 . S
C458 C444 1.377 . S
C458 C457 1.373 . S
C459 C443 1.377 . S
C459 C457 1.389 . S
C459 C460 1.524 . S
C460 C459 1.524 . S
C460 C461 1.397 . S
C460 C465 1.363 . S
C461 H432 0.950 . S
C461 C460 1.397 . S
C461 C462 1.334 . S
C462 H433 0.950 . S
C462 C461 1.334 . S
C462 C463 1.287 . S
C463 C462 1.287 . S
C463 C464 1.524 . S
C463 H466 0.999 . S
C464 H434 0.950 . S
C464 C463 1.524 . S
C464 C465 1.415 . S
C465 H435 0.950 . S
C465 C460 1.363 . S
C465 C464 1.415 . S
H466 C463 0.999 . S
H467 C448 0.913 . S
H468 C486 0.951 . S
H469 C488 0.951 . S
H470 C490 0.950 . S
H471 C491 0.950 . S
H472 C493 0.950 . S
H473 C496 0.950 . S
H474 C497 0.950 . S
H475 C499 0.950 . S
H476 C500 0.950 . S
H477 C501 0.951 . S
H478 C503 0.951 . S
H479 C505 0.950 . S
H480 C506 0.950 . S
H481 C508 0.950 . S
H482 C511 0.950 . S
H483 C512 0.950 . S
H484 C514 0.950 . S
H485 C515 0.950 . S
C486 H468 0.951 . S
C486 C487 1.366 . S
C486 C488 1.388 . S
C487 C486 1.366 . S
C487 C491 1.385 . S
C488 H469 0.951 . S
C488 C486 1.388 . S
C488 C489 1.366 . S
C489 C488 1.366 . S
C489 C490 1.414 . S
C489 C492 1.499 . S
C490 H470 0.950 . S
C490 C489 1.414 . S
C490 C491 1.374 . S
C491 H471 0.950 . S
C491 C487 1.385 . S
C491 C490 1.374 . S
C492 C489 1.499 . S
C492 C493 1.373 . S
C492 C494 1.389 . S
C493 H472 0.950 . S
C493 C492 1.373 . S
C493 C509 1.377 . S
C494 C492 1.389 . S
C494 C495 1.524 . S
C494 C508 1.377 . S
C495 C494 1.524 . S
C495 C496 1.397 . S
C495 C500 1.363 . S
C496 H473 0.950 . S
C496 C495 1.397 . S
C496 C497 1.334 . S
C497 H474 0.950 . S
C497 C496 1.334 . S
C497 C498 1.287 . S
C498 C497 1.287 . S
C498 C499 1.524 . S
C498 H517 0.913 . S
C499 H475 0.950 . S
C499 C498 1.524 . S
C499 C500 1.415 . S
C500 H476 0.950 . S
C500 C495 1.363 . S
C500 C499 1.415 . S
C501 H477 0.951 . S
C501 C502 1.366 . S
C501 C503 1.388 . S
C502 C501 1.366 . S
C502 C506 1.385 . S
C503 H478 0.951 . S
C503 C501 1.388 . S
C503 C504 1.366 . S
C504 C503 1.366 . S
C504 C505 1.414 . S
C504 C507 1.499 . S
C505 H479 0.950 . S
C505 C504 1.414 . S
C505 C506 1.374 . S
C506 H480 0.950 . S
C506 C502 1.385 . S
C506 C505 1.374 . S
C507 C504 1.499 . S
C507 C508 1.373 . S
C507 C509 1.389 . S
C508 H481 0.950 . S
C508 C494 1.377 . S
C508 C507 1.373 . S
C509 C493 1.377 . S
C509 C507 1.389 . S
C509 C510 1.524 . S
C510 C509 1.524 . S
C510 C511 1.397 . S
C510 C515 1.363 . S
C511 H482 0.950 . S
C511 C510 1.397 . S
C511 C512 1.334 . S
C512 H483 0.950 . S
C512 C511 1.334 . S
C512 C513 1.287 . S
C513 C512 1.287 . S
C513 C514 1.524 . S
C513 H516 0.999 . S
C514 H484 0.950 . S
C514 C513 1.524 . S
C514 C515 1.415 . S
C515 H485 0.950 . S
C515 C510 1.363 . S
C515 C514 1.415 . S
H516 C513 0.999 . S
H517 C498 0.913 . S
H518 C536 0.951 . S
H519 C538 0.951 . S
H520 C540 0.950 . S
H521 C541 0.950 . S
H522 C543 0.950 . S
H523 C546 0.950 . S
H524 C547 0.950 . S
H525 C549 0.950 . S
H526 C550 0.950 . S
H527 C551 0.951 . S
H528 C553 0.951 . S
H529 C555 0.950 . S
H530 C556 0.950 . S
H531 C558 0.950 . S
H532 C561 0.950 . S
H533 C562 0.950 . S
H534 C564 0.950 . S
H535 C565 0.950 . S
C536 H518 0.951 . S
C536 C537 1.366 . S
C536 C538 1.388 . S
C537 C536 1.366 . S
C537 C541 1.385 . S
C538 H519 0.951 . S
C538 C536 1.388 . S
C538 C539 1.366 . S
C539 C538 1.366 . S
C539 C540 1.414 . S
C539 C542 1.499 . S
C540 H520 0.950 . S
C540 C539 1.414 . S
C540 C541 1.374 . S
C541 H521 0.950 . S
C541 C537 1.385 . S
C541 C540 1.374 . S
C542 C539 1.499 . S
C542 C543 1.373 . S
C542 C544 1.389 . S
C543 H522 0.950 . S
C543 C542 1.373 . S
C543 C559 1.377 . S
C544 C542 1.389 . S
C544 C545 1.524 . S
C544 C558 1.377 . S
C545 C544 1.524 . S
C545 C546 1.397 . S
C545 C550 1.363 . S
C546 H523 0.950 . S
C546 C545 1.397 . S
C546 C547 1.334 . S
C547 H524 0.950 . S
C547 C546 1.334 . S
C547 C548 1.287 . S
C548 C547 1.287 . S
C548 C549 1.524 . S
C548 H567 0.913 . S
C549 H525 0.950 . S
C549 C548 1.524 . S
C549 C550 1.415 . S
C550 H526 0.950 . S
C550 C545 1.363 . S
C550 C549 1.415 . S
C551 H527 0.951 . S
C551 C552 1.366 . S
C551 C553 1.388 . S
C552 C551 1.366 . S
C552 C556 1.385 . S
C553 H528 0.951 . S
C553 C551 1.388 . S
C553 C554 1.366 . S
C554 C553 1.366 . S
C554 C555 1.414 . S
C554 C557 1.499 . S
C555 H529 0.950 . S
C555 C554 1.414 . S
C555 C556 1.374 . S
C556 H530 0.950 . S
C556 C552 1.385 . S
C556 C555 1.374 . S
C557 C554 1.499 . S
C557 C558 1.373 . S
C557 C559 1.389 . S
C558 H531 0.950 . S
C558 C544 1.377 . S
C558 C557 1.373 . S
C559 C543 1.377 . S
C559 C557 1.389 . S
C559 C560 1.524 . S
C560 C559 1.524 . S
C560 C561 1.397 . S
C560 C565 1.363 . S
C561 H532 0.950 . S
C561 C560 1.397 . S
C561 C562 1.334 . S
C562 H533 0.950 . S
C562 C561 1.334 . S
C562 C563 1.287 . S
C563 C562 1.287 . S
C563 C564 1.524 . S
C563 H566 0.999 . S
C564 H534 0.950 . S
C564 C563 1.524 . S
C564 C565 1.415 . S
C565 H535 0.950 . S
C565 C560 1.363 . S
C565 C564 1.415 . S
H566 C563 0.999 . S
H567 C548 0.913 . S
H568 C586 0.951 . S
H569 C588 0.951 . S
H570 C590 0.950 . S
H571 C591 0.950 . S
H572 C593 0.950 . S
H573 C596 0.950 . S
H574 C597 0.950 . S
H575 C599 0.950 . S
H576 C600 0.950 . S
H577 C601 0.951 . S
H578 C603 0.951 . S
H579 C605 0.954 . S
H580 C606 0.950 1_565 S
H581 C608 0.950 . S
H582 C611 0.950 . S
H583 C612 0.950 . S
H584 C614 0.950 . S
H585 C615 0.950 . S
C586 H568 0.951 . S
C586 C587 1.362 1_566 S
C586 C588 1.388 . S
C587 C586 1.362 1_544 S
C587 C591 1.388 . S
C588 H569 0.951 . S
C588 C586 1.388 . S
C588 C589 1.360 1_565 S
C589 C588 1.360 1_545 S
C589 C590 1.423 1_556 S
C589 C592 1.498 . S
C590 H570 0.950 . S
C590 C589 1.423 1_554 S
C590 C591 1.374 . S
C591 H571 0.950 . S
C591 C587 1.388 . S
C591 C590 1.374 . S
C592 C589 1.498 . S
C592 C593 1.373 . S
C592 C594 1.389 1_545 S
C593 H572 0.950 . S
C593 C592 1.373 . S
C593 C609 1.377 . S
C594 C592 1.389 1_565 S
C594 C595 1.524 . S
C594 C608 1.377 . S
C595 C594 1.524 . S
C595 C596 1.397 . S
C595 C600 1.363 . S
C596 H573 0.950 . S
C596 C595 1.397 . S
C596 C597 1.334 . S
C597 H574 0.950 . S
C597 C596 1.334 . S
C597 C598 1.287 . S
C598 C597 1.287 . S
C598 C599 1.524 . S
C598 H617 0.913 . S
C599 H575 0.950 . S
C599 C598 1.524 . S
C599 C600 1.415 . S
C600 H576 0.950 . S
C600 C595 1.363 . S
C600 C599 1.415 . S
C601 H577 0.951 . S
C601 C602 1.366 . S
C601 C603 1.388 . S
C602 C601 1.366 . S
C602 C606 1.384 . S
C603 H578 0.951 . S
C603 C601 1.388 . S
C603 C604 1.366 . S
C604 C603 1.366 . S
C604 C605 1.410 1_545 S
C604 C607 1.499 . S
C605 H579 0.954 . S
C605 C604 1.410 1_565 S
C605 C606 1.374 1_565 S
C606 H580 0.950 1_545 S
C606 C602 1.384 . S
C606 C605 1.374 1_545 S
C607 C604 1.499 . S
C607 C608 1.373 1_545 S
C607 C609 1.389 . S
C608 H581 0.950 . S
C608 C594 1.377 . S
C608 C607 1.373 1_565 S
C609 C593 1.377 . S
C609 C607 1.389 . S
C609 C610 1.524 . S
C610 C609 1.524 . S
C610 C611 1.397 . S
C610 C615 1.363 . S
C611 H582 0.950 . S
C611 C610 1.397 . S
C611 C612 1.334 . S
C612 H583 0.950 . S
C612 C611 1.334 . S
C612 C613 1.287 . S
C613 C612 1.287 . S
C613 C614 1.524 . S
C613 H616 0.999 . S
C614 H584 0.950 . S
C614 C613 1.524 . S
C614 C615 1.415 . S
C615 H585 0.950 . S
C615 C610 1.363 . S
C615 C614 1.415 . S
H616 C613 0.999 . S
H617 C598 0.913 . S
H618 C636 0.951 . S
H619 C638 0.951 . S
H620 C640 0.950 1_554 S
H621 C641 0.950 . S
H622 C643 0.950 . S
H623 C646 0.950 . S
H624 C647 0.950 . S
H625 C649 0.950 . S
H626 C650 0.950 . S
H627 C651 0.951 . S
H628 C653 0.951 . S
H629 C655 0.950 . S
H630 C656 0.950 . S
H631 C658 0.950 . S
H632 C661 0.950 . S
H633 C662 0.950 . S
H634 C664 0.950 . S
H635 C665 0.950 1_554 S
C636 H618 0.951 . S
C636 C637 1.376 . S
C636 C638 1.388 . S
C637 C636 1.376 . S
C637 C641 1.381 1_556 S
C638 H619 0.951 . S
C638 C636 1.388 . S
C638 C639 1.366 . S
C639 C638 1.366 . S
C639 C640 1.414 . S
C639 C642 1.499 . S
C640 H620 0.950 1_556 S
C640 C639 1.414 . S
C640 C641 1.374 1_556 S
C641 H621 0.950 . S
C641 C637 1.381 1_554 S
C641 C640 1.374 1_554 S
C642 C639 1.499 . S
C642 C643 1.373 . S
C642 C644 1.389 . S
C643 H622 0.950 . S
C643 C642 1.373 . S
C643 C659 1.377 . S
C644 C642 1.389 . S
C644 C645 1.524 . S
C644 C658 1.377 . S
C645 C644 1.524 . S
C645 C646 1.397 . S
C645 C650 1.363 . S
C646 H623 0.950 . S
C646 C645 1.397 . S
C646 C647 1.334 . S
C647 H624 0.950 . S
C647 C646 1.334 . S
C647 C648 1.287 . S
C648 C647 1.287 . S
C648 C649 1.524 . S
C648 H667 0.913 . S
C649 H625 0.950 . S
C649 C648 1.524 . S
C649 C650 1.415 . S
C650 H626 0.950 . S
C650 C645 1.363 . S
C650 C649 1.415 . S
C651 H627 0.951 . S
C651 C652 1.366 . S
C651 C653 1.388 . S
C652 C651 1.366 . S
C652 C656 1.385 . S
C653 H628 0.951 . S
C653 C651 1.388 . S
C653 C654 1.366 . S
C654 C653 1.366 . S
C654 C655 1.414 . S
C654 C657 1.499 . S
C655 H629 0.950 . S
C655 C654 1.414 . S
C655 C656 1.374 . S
C656 H630 0.950 . S
C656 C652 1.385 . S
C656 C655 1.374 . S
C657 C654 1.499 . S
C657 C658 1.373 . S
C657 C659 1.389 . S
C658 H631 0.950 . S
C658 C644 1.377 . S
C658 C657 1.373 . S
C659 C643 1.377 . S
C659 C657 1.389 . S
C659 C660 1.524 . S
C660 C659 1.524 . S
C660 C661 1.397 . S
C660 C665 1.363 . S
C661 H632 0.950 . S
C661 C660 1.397 . S
C661 C662 1.334 . S
C662 H633 0.950 . S
C662 C661 1.334 . S
C662 C663 1.287 1_556 S
C663 C662 1.287 1_554 S
C663 C664 1.524 . S
C663 H666 0.999 . S
C664 H634 0.950 . S
C664 C663 1.524 . S
C664 C665 1.415 1_554 S
C665 H635 0.950 1_556 S
C665 C660 1.363 . S
C665 C664 1.415 1_556 S
H666 C663 0.999 . S
H667 C648 0.913 . S
H668 C686 0.951 . S
H669 C688 0.951 . S
H670 C690 0.950 . S
H671 C691 0.950 . S
H672 C693 0.950 . S
H673 C696 0.950 . S
H674 C697 0.950 . S
H675 C699 0.950 . S
H676 C700 0.950 . S
H677 C701 0.951 . S
H678 C703 0.951 . S
H679 C705 0.950 . S
H680 C706 0.950 . S
H681 C708 0.950 . S
H682 C711 0.950 . S
H683 C712 0.950 . S
H684 C714 0.950 . S
H685 C715 0.950 . S
C686 H668 0.951 . S
C686 C687 1.366 . S
C686 C688 1.388 . S
C687 C686 1.366 . S
C687 C691 1.385 1_556 S
C688 H669 0.951 . S
C688 C686 1.388 . S
C688 C689 1.366 . S
C689 C688 1.366 . S
C689 C690 1.414 . S
C689 C692 1.499 . S
C690 H670 0.950 . S
C690 C689 1.414 . S
C690 C691 1.374 1_556 S
C691 H671 0.950 . S
C691 C687 1.385 1_554 S
C691 C690 1.374 1_554 S
C692 C689 1.499 . S
C692 C693 1.373 . S
C692 C694 1.389 . S
C693 H672 0.950 . S
C693 C692 1.373 . S
C693 C709 1.377 . S
C694 C692 1.389 . S
C694 C695 1.524 . S
C694 C708 1.377 . S
C695 C694 1.524 . S
C695 C696 1.397 . S
C695 C700 1.363 . S
C696 H673 0.950 . S
C696 C695 1.397 . S
C696 C697 1.334 . S
C697 H674 0.950 . S
C697 C696 1.334 . S
C697 C698 1.287 . S
C698 C697 1.287 . S
C698 C699 1.524 . S
C698 H717 0.913 . S
C699 H675 0.950 . S
C699 C698 1.524 . S
C699 C700 1.415 . S
C700 H676 0.950 . S
C700 C695 1.363 . S
C700 C699 1.415 . S
C701 H677 0.951 . S
C701 C702 1.366 . S
C701 C703 1.388 . S
C702 C701 1.366 . S
C702 C706 1.385 . S
C703 H678 0.951 . S
C703 C701 1.388 . S
C703 C704 1.366 . S
C704 C703 1.366 . S
C704 C705 1.414 . S
C704 C707 1.499 . S
C705 H679 0.950 . S
C705 C704 1.414 . S
C705 C706 1.374 . S
C706 H680 0.950 . S
C706 C702 1.385 . S
C706 C705 1.374 . S
C707 C704 1.499 . S
C707 C708 1.373 . S
C707 C709 1.389 . S
C708 H681 0.950 . S
C708 C694 1.377 . S
C708 C707 1.373 . S
C709 C693 1.377 . S
C709 C707 1.389 . S
C709 C710 1.524 . S
C710 C709 1.524 . S
C710 C711 1.397 . S
C710 C715 1.363 . S
C711 H682 0.950 . S
C711 C710 1.397 . S
C711 C712 1.334 . S
C712 H683 0.950 . S
C712 C711 1.334 . S
C712 C713 1.287 . S
C713 C712 1.287 . S
C713 C714 1.524 . S
C713 H716 0.999 . S
C714 H684 0.950 . S
C714 C713 1.524 . S
C714 C715 1.415 . S
C715 H685 0.950 . S
C715 C710 1.363 . S
C715 C714 1.415 . S
H716 C713 0.999 . S
H717 C698 0.913 . S
H718 C736 0.951 . S
H719 C738 0.951 . S
H720 C740 0.950 . S
H721 C741 0.950 1_554 S
H722 C743 0.950 . S
H723 C746 0.950 . S
H724 C747 0.950 . S
H725 C749 0.950 . S
H726 C750 0.950 . S
H727 C751 0.951 . S
H728 C753 0.951 . S
H729 C755 0.950 . S
H730 C756 0.950 . S
H731 C758 0.950 . S
H732 C761 0.950 . S
H733 C762 0.950 . S
H734 C764 0.950 1_554 S
H735 C765 0.950 . S
C736 H718 0.951 . S
C736 C737 1.366 . S
C736 C738 1.388 . S
C737 C736 1.366 . S
C737 C741 1.385 . S
C738 H719 0.951 . S
C738 C736 1.388 . S
C738 C739 1.366 . S
C739 C738 1.366 . S
C739 C740 1.414 . S
C739 C742 1.499 . S
C740 H720 0.950 . S
C740 C739 1.414 . S
C740 C741 1.374 . S
C741 H721 0.950 1_556 S
C741 C737 1.385 . S
C741 C740 1.374 . S
C742 C739 1.499 . S
C742 C743 1.373 . S
C742 C744 1.389 . S
C743 H722 0.950 . S
C743 C742 1.373 . S
C743 C759 1.377 . S
C744 C742 1.389 . S
C744 C745 1.524 . S
C744 C758 1.377 . S
C745 C744 1.524 . S
C745 C746 1.397 . S
C745 C750 1.363 . S
C746 H723 0.950 . S
C746 C745 1.397 . S
C746 C747 1.334 . S
C747 H724 0.950 . S
C747 C746 1.334 . S
C747 C748 1.287 . S
C748 C747 1.287 . S
C748 C749 1.524 . S
C748 H767 0.913 . S
C749 H725 0.950 . S
C749 C748 1.524 . S
C749 C750 1.415 . S
C750 H726 0.950 . S
C750 C745 1.363 . S
C750 C749 1.415 . S
C751 H727 0.951 . S
C751 C752 1.366 . S
C751 C753 1.388 . S
C752 C751 1.366 . S
C752 C756 1.385 . S
C753 H728 0.951 . S
C753 C751 1.388 . S
C753 C754 1.366 . S
C754 C753 1.366 . S
C754 C755 1.414 . S
C754 C757 1.499 . S
C755 H729 0.950 . S
C755 C754 1.414 . S
C755 C756 1.374 . S
C756 H730 0.950 . S
C756 C752 1.385 . S
C756 C755 1.374 . S
C757 C754 1.499 . S
C757 C758 1.373 . S
C757 C759 1.389 . S
C758 H731 0.950 . S
C758 C744 1.377 . S
C758 C757 1.373 . S
C759 C743 1.377 . S
C759 C757 1.389 . S
C759 C760 1.524 . S
C760 C759 1.524 . S
C760 C761 1.397 . S
C760 C765 1.363 . S
C761 H732 0.950 . S
C761 C760 1.397 . S
C761 C762 1.334 1_655 S
C762 H733 0.950 . S
C762 C761 1.334 1_455 S
C762 C763 1.287 . S
C763 C762 1.287 . S
C763 C764 1.524 1_455 S
C763 H766 0.999 . S
C764 H734 0.950 1_556 S
C764 C763 1.524 1_655 S
C764 C765 1.415 . S
C765 H735 0.950 . S
C765 C760 1.363 . S
C765 C764 1.415 . S
H766 C763 0.999 . S
H767 C748 0.913 . S
H768 C786 0.951 . S
H769 C788 0.951 . S
H770 C790 0.950 . S
H771 C791 0.950 . S
H772 C793 0.950 . S
H773 C796 0.950 . S
H774 C797 0.950 . S
H775 C799 0.950 . S
H776 C800 0.950 . S
H777 C801 0.951 . S
H778 C803 0.951 . S
H779 C805 0.950 . S
H780 C806 0.950 . S
H781 C808 0.950 . S
H782 C811 0.950 . S
H783 C812 0.950 . S
H784 C814 0.950 . S
H785 C815 0.950 . S
C786 H768 0.951 . S
C786 C787 1.366 . S
C786 C788 1.388 . S
C787 C786 1.366 . S
C787 C791 1.385 . S
C788 H769 0.951 . S
C788 C786 1.388 . S
C788 C789 1.366 . S
C789 C788 1.366 . S
C789 C790 1.414 . S
C789 C792 1.499 . S
C790 H770 0.950 . S
C790 C789 1.414 . S
C790 C791 1.374 . S
C791 H771 0.950 . S
C791 C787 1.385 . S
C791 C790 1.374 . S
C792 C789 1.499 . S
C792 C793 1.373 . S
C792 C794 1.389 . S
C793 H772 0.950 . S
C793 C792 1.373 . S
C793 C809 1.377 . S
C794 C792 1.389 . S
C794 C795 1.524 . S
C794 C808 1.377 . S
C795 C794 1.524 . S
C795 C796 1.397 . S
C795 C800 1.363 . S
C796 H773 0.950 . S
C796 C795 1.397 . S
C796 C797 1.334 . S
C797 H774 0.950 . S
C797 C796 1.334 . S
C797 C798 1.287 . S
C798 C797 1.287 . S
C798 C799 1.524 . S
C798 H817 0.913 . S
C799 H775 0.950 . S
C799 C798 1.524 . S
C799 C800 1.415 . S
C800 H776 0.950 . S
C800 C795 1.363 . S
C800 C799 1.415 . S
C801 H777 0.951 . S
C801 C802 1.366 . S
C801 C803 1.388 . S
C802 C801 1.366 . S
C802 C806 1.385 . S
C803 H778 0.951 . S
C803 C801 1.388 . S
C803 C804 1.366 . S
C804 C803 1.366 . S
C804 C805 1.414 . S
C804 C807 1.499 . S
C805 H779 0.950 . S
C805 C804 1.414 . S
C805 C806 1.374 . S
C806 H780 0.950 . S
C806 C802 1.385 . S
C806 C805 1.374 . S
C807 C804 1.499 . S
C807 C808 1.373 . S
C807 C809 1.389 . S
C808 H781 0.950 . S
C808 C794 1.377 . S
C808 C807 1.373 . S
C809 C793 1.377 . S
C809 C807 1.389 . S
C809 C810 1.524 . S
C810 C809 1.524 . S
C810 C811 1.397 . S
C810 C815 1.363 . S
C811 H782 0.950 . S
C811 C810 1.397 . S
C811 C812 1.334 . S
C812 H783 0.950 . S
C812 C811 1.334 . S
C812 C813 1.287 . S
C813 C812 1.287 . S
C813 C814 1.524 . S
C813 H816 0.999 . S
C814 H784 0.950 . S
C814 C813 1.524 . S
C814 C815 1.415 . S
C815 H785 0.950 . S
C815 C810 1.363 . S
C815 C814 1.415 . S
H816 C813 0.999 . S
H817 C798 0.913 . S
H818 C836 0.951 . S
H819 C838 0.951 . S
H820 C840 0.950 . S
H821 C841 0.950 . S
H822 C843 0.950 . S
H823 C846 0.950 . S
H824 C847 0.978 . S
H825 C849 0.950 . S
H826 C850 0.950 . S
H827 C851 0.951 . S
H828 C853 0.951 . S
H829 C855 0.950 . S
H830 C856 0.950 . S
H831 C858 0.950 . S
H832 C861 0.950 . S
H833 C862 0.950 . S
H834 C864 0.950 . S
H835 C865 0.950 . S
C836 H818 0.951 . S
C836 C837 1.366 . S
C836 C838 1.388 . S
C837 C836 1.366 . S
C837 C841 1.385 1_545 S
C838 H819 0.951 . S
C838 C836 1.388 . S
C838 C839 1.366 . S
C839 C838 1.366 . S
C839 C840 1.414 1_545 S
C839 C842 1.499 . S
C840 H820 0.950 . S
C840 C839 1.414 1_565 S
C840 C841 1.374 . S
C841 H821 0.950 . S
C841 C837 1.385 1_565 S
C841 C840 1.374 . S
C842 C839 1.499 . S
C842 C843 1.373 1_545 S
C842 C844 1.389 . S
C843 H822 0.950 . S
C843 C842 1.373 1_565 S
C843 C859 1.377 . S
C844 C842 1.389 . S
C844 C845 1.524 . S
C844 C858 1.377 . S
C845 C844 1.524 . S
C845 C846 1.397 1_545 S
C845 C850 1.363 . S
C846 H823 0.950 . S
C846 C845 1.397 1_565 S
C846 C847 1.341 . S
C847 H824 0.978 . S
C847 C846 1.341 . S
C847 C848 1.252 1_565 S
C848 C847 1.252 1_545 S
C848 C849 1.524 . S
C848 H867 0.913 . S
C849 H825 0.950 . S
C849 C848 1.524 . S
C849 C850 1.415 . S
C850 H826 0.950 . S
C850 C845 1.363 . S
C850 C849 1.415 . S
C851 H827 0.951 . S
C851 C852 1.361 . S
C851 C853 1.388 . S
C852 C851 1.361 . S
C852 C856 1.390 1_565 S
C853 H828 0.951 . S
C853 C851 1.388 . S
C853 C854 1.366 1_565 S
C854 C853 1.366 1_545 S
C854 C855 1.414 . S
C854 C857 1.499 . S
C855 H829 0.950 . S
C855 C854 1.414 . S
C855 C856 1.374 . S
C856 H830 0.950 . S
C856 C852 1.390 1_545 S
C856 C855 1.374 . S
C857 C854 1.499 . S
C857 C858 1.373 . S
C857 C859 1.389 1_545 S
C858 H831 0.950 . S
C858 C844 1.377 . S
C858 C857 1.373 . S
C859 C843 1.377 . S
C859 C857 1.389 1_565 S
C859 C860 1.524 . S
C860 C859 1.524 . S
C860 C861 1.397 1_565 S
C860 C865 1.363 . S
C861 H832 0.950 . S
C861 C860 1.397 1_545 S
C861 C862 1.334 . S
C862 H833 0.950 . S
C862 C861 1.334 . S
C862 C863 1.287 1_545 S
C863 C862 1.287 1_565 S
C863 C864 1.524 . S
C863 H866 0.999 . S
C864 H834 0.950 . S
C864 C863 1.524 . S
C864 C865 1.415 . S
C865 H835 0.950 . S
C865 C860 1.363 . S
C865 C864 1.415 . S
H866 C863 0.999 . S
H867 C848 0.913 . S
H868 C886 0.951 . S
H869 C888 0.951 . S
H870 C890 0.950 . S
H871 C891 0.950 . S
H872 C893 0.950 . S
H873 C896 0.950 . S
H874 C897 0.950 . S
H875 C899 0.950 . S
H876 C900 0.950 . S
H877 C901 0.951 . S
H878 C903 0.951 . S
H879 C905 0.950 . S
H880 C906 0.950 . S
H881 C908 0.950 . S
H882 C911 0.950 . S
H883 C912 0.950 . S
H884 C914 0.950 . S
H885 C915 0.950 . S
C886 H868 0.951 . S
C886 C887 1.366 . S
C886 C888 1.388 . S
C887 C886 1.366 . S
C887 C891 1.385 . S
C888 H869 0.951 . S
C888 C886 1.388 . S
C888 C889 1.366 . S
C889 C888 1.366 . S
C889 C890 1.414 . S
C889 C892 1.499 . S
C890 H870 0.950 . S
C890 C889 1.414 . S
C890 C891 1.374 . S
C891 H871 0.950 . S
C891 C887 1.385 . S
C891 C890 1.374 . S
C892 C889 1.499 . S
C892 C893 1.373 . S
C892 C894 1.389 . S
C893 H872 0.950 . S
C893 C892 1.373 . S
C893 C909 1.377 . S
C894 C892 1.389 . S
C894 C895 1.524 . S
C894 C908 1.377 . S
C895 C894 1.524 . S
C895 C896 1.397 . S
C895 C900 1.363 . S
C896 H873 0.950 . S
C896 C895 1.397 . S
C896 C897 1.334 . S
C897 H874 0.950 . S
C897 C896 1.334 . S
C897 C898 1.287 . S
C898 C897 1.287 . S
C898 C899 1.524 . S
C898 H917 0.913 . S
C899 H875 0.950 . S
C899 C898 1.524 . S
C899 C900 1.415 . S
C900 H876 0.950 . S
C900 C895 1.363 . S
C900 C899 1.415 . S
C901 H877 0.951 . S
C901 C902 1.366 . S
C901 C903 1.388 . S
C902 C901 1.366 . S
C902 C906 1.385 . S
C903 H878 0.951 . S
C903 C901 1.388 . S
C903 C904 1.366 . S
C904 C903 1.366 . S
C904 C905 1.414 . S
C904 C907 1.499 . S
C905 H879 0.950 . S
C905 C904 1.414 . S
C905 C906 1.374 . S
C906 H880 0.950 . S
C906 C902 1.385 . S
C906 C905 1.374 . S
C907 C904 1.499 . S
C907 C908 1.373 . S
C907 C909 1.389 . S
C908 H881 0.950 . S
C908 C894 1.377 . S
C908 C907 1.373 . S
C909 C893 1.377 . S
C909 C907 1.389 . S
C909 C910 1.524 . S
C910 C909 1.524 . S
C910 C911 1.397 . S
C910 C915 1.363 . S
C911 H882 0.950 . S
C911 C910 1.397 . S
C911 C912 1.334 . S
C912 H883 0.950 . S
C912 C911 1.334 . S
C912 C913 1.287 . S
C913 C912 1.287 . S
C913 C914 1.524 . S
C913 H916 0.999 . S
C914 H884 0.950 . S
C914 C913 1.524 . S
C914 C915 1.415 . S
C915 H885 0.950 . S
C915 C910 1.363 . S
C915 C914 1.415 . S
H916 C913 0.999 . S
H917 C898 0.913 . S
H918 C936 0.951 . S
H919 C938 0.951 . S
H920 C940 0.950 . S
H921 C941 0.950 . S
H922 C943 0.950 . S
H923 C946 0.950 . S
H924 C947 0.950 . S
H925 C949 0.950 . S
H926 C950 0.950 . S
H927 C951 0.951 . S
H928 C953 0.951 . S
H929 C955 0.950 . S
H930 C956 0.950 . S
H931 C958 0.950 . S
H932 C961 0.950 . S
H933 C962 0.950 . S
H934 C964 0.950 . S
H935 C965 0.950 . S
C936 H918 0.951 . S
C936 C937 1.366 . S
C936 C938 1.388 . S
C937 C936 1.366 . S
C937 C941 1.385 . S
C938 H919 0.951 . S
C938 C936 1.388 . S
C938 C939 1.366 . S
C939 C938 1.366 . S
C939 C940 1.414 . S
C939 C942 1.499 . S
C940 H920 0.950 . S
C940 C939 1.414 . S
C940 C941 1.374 . S
C941 H921 0.950 . S
C941 C937 1.385 . S
C941 C940 1.374 . S
C942 C939 1.499 . S
C942 C943 1.373 . S
C942 C944 1.389 . S
C943 H922 0.950 . S
C943 C942 1.373 . S
C943 C959 1.377 . S
C944 C942 1.389 . S
C944 C945 1.524 . S
C944 C958 1.377 . S
C945 C944 1.524 . S
C945 C946 1.397 . S
C945 C950 1.363 . S
C946 H923 0.950 . S
C946 C945 1.397 . S
C946 C947 1.334 . S
C947 H924 0.950 . S
C947 C946 1.334 . S
C947 C948 1.287 . S
C948 C947 1.287 . S
C948 C949 1.524 . S
C948 H967 0.913 . S
C949 H925 0.950 . S
C949 C948 1.524 . S
C949 C950 1.415 . S
C950 H926 0.950 . S
C950 C945 1.363 . S
C950 C949 1.415 . S
C951 H927 0.951 . S
C951 C952 1.366 . S
C951 C953 1.388 . S
C952 C951 1.366 . S
C952 C956 1.385 . S
C953 H928 0.951 . S
C953 C951 1.388 . S
C953 C954 1.366 . S
C954 C953 1.366 . S
C954 C955 1.414 . S
C954 C957 1.499 . S
C955 H929 0.950 . S
C955 C954 1.414 . S
C955 C956 1.374 . S
C956 H930 0.950 . S
C956 C952 1.385 . S
C956 C955 1.374 . S
C957 C954 1.499 . S
C957 C958 1.373 . S
C957 C959 1.389 . S
C958 H931 0.950 . S
C958 C944 1.377 . S
C958 C957 1.373 . S
C959 C943 1.377 . S
C959 C957 1.389 . S
C959 C960 1.524 . S
C960 C959 1.524 . S
C960 C961 1.397 . S
C960 C965 1.363 . S
C961 H932 0.950 . S
C961 C960 1.397 . S
C961 C962 1.334 . S
C962 H933 0.950 . S
C962 C961 1.334 . S
C962 C963 1.287 . S
C963 C962 1.287 . S
C963 C964 1.524 . S
C963 H966 0.999 . S
C964 H934 0.950 . S
C964 C963 1.524 . S
C964 C965 1.415 . S
C965 H935 0.950 . S
C965 C960 1.363 . S
C965 C964 1.415 . S
H966 C963 0.999 . S
H967 C948 0.913 . S
H968 C986 0.951 . S
H969 C988 0.951 . S
H970 C990 0.950 . S
H971 C991 0.950 . S
H972 C993 0.950 . S
H973 C996 0.950 . S
H974 C997 0.950 . S
H975 C999 0.950 . S
H976 C1000 0.950 . S
H977 C1001 0.951 . S
H978 C1003 0.951 . S
H979 C1005 0.950 . S
H980 C1006 0.950 . S
H981 C1008 0.950 . S
H982 C1011 0.950 . S
H983 C1012 0.950 . S
H984 C1014 0.950 . S
H985 C1015 0.950 . S
C986 H968 0.951 . S
C986 C987 1.366 . S
C986 C988 1.388 . S
C987 C986 1.366 . S
C987 C991 1.385 . S
C988 H969 0.951 . S
C988 C986 1.388 . S
C988 C989 1.366 . S
C989 C988 1.366 . S
C989 C990 1.414 . S
C989 C992 1.499 . S
C990 H970 0.950 . S
C990 C989 1.414 . S
C990 C991 1.374 . S
C991 H971 0.950 . S
C991 C987 1.385 . S
C991 C990 1.374 . S
C992 C989 1.499 . S
C992 C993 1.373 . S
C992 C994 1.389 . S
C993 H972 0.950 . S
C993 C992 1.373 . S
C993 C1009 1.377 . S
C994 C992 1.389 . S
C994 C995 1.524 . S
C994 C1008 1.377 . S
C995 C994 1.524 . S
C995 C996 1.397 . S
C995 C1000 1.363 . S
C996 H973 0.950 . S
C996 C995 1.397 . S
C996 C997 1.334 . S
C997 H974 0.950 . S
C997 C996 1.334 . S
C997 C998 1.287 . S
C998 C997 1.287 . S
C998 C999 1.524 . S
C998 H1017 0.913 . S
C999 H975 0.950 . S
C999 C998 1.524 . S
C999 C1000 1.415 . S
C1000 H976 0.950 . S
C1000 C995 1.363 . S
C1000 C999 1.415 . S
C1001 H977 0.951 . S
C1001 C1002 1.366 . S
C1001 C1003 1.388 . S
C1002 C1001 1.366 . S
C1002 C1006 1.385 . S
C1003 H978 0.951 . S
C1003 C1001 1.388 . S
C1003 C1004 1.366 . S
C1004 C1003 1.366 . S
C1004 C1005 1.414 . S
C1004 C1007 1.499 . S
C1005 H979 0.950 . S
C1005 C1004 1.414 . S
C1005 C1006 1.374 . S
C1006 H980 0.950 . S
C1006 C1002 1.385 . S
C1006 C1005 1.374 . S
C1007 C1004 1.499 . S
C1007 C1008 1.373 . S
C1007 C1009 1.389 . S
C1008 H981 0.950 . S
C1008 C994 1.377 . S
C1008 C1007 1.373 . S
C1009 C993 1.377 . S
C1009 C1007 1.389 . S
C1009 C1010 1.524 . S
C1010 C1009 1.524 . S
C1010 C1011 1.397 . S
C1010 C1015 1.363 . S
C1011 H982 0.950 . S
C1011 C1010 1.397 . S
C1011 C1012 1.334 . S
C1012 H983 0.950 . S
C1012 C1011 1.334 . S
C1012 C1013 1.287 . S
C1013 C1012 1.287 . S
C1013 C1014 1.524 . S
C1013 H1016 0.999 . S
C1014 H984 0.950 . S
C1014 C1013 1.524 . S
C1014 C1015 1.415 . S
C1015 H985 0.950 . S
C1015 C1010 1.363 . S
C1015 C1014 1.415 . S
H1016 C1013 0.999 . S
H1017 C998 0.913 . S
H1018 C1036 0.951 . S
H1019 C1038 0.951 . S
H1020 C1040 0.950 . S
H1021 C1041 0.950 . S
H1022 C1043 0.950 . S
H1023 C1046 0.950 . S
H1024 C1047 0.950 . S
H1025 C1049 0.950 . S
H1026 C1050 0.950 . S
H1027 C1051 0.951 . S
H1028 C1053 0.951 . S
H1029 C1055 0.950 . S
H1030 C1056 0.950 . S
H1031 C1058 0.950 . S
H1032 C1061 0.950 . S
H1033 C1062 0.950 . S
H1034 C1064 0.950 . S
H1035 C1065 0.950 . S
C1036 H1018 0.951 . S
C1036 C1037 1.363 1_545 S
C1036 C1038 1.388 . S
C1037 C1036 1.363 1_565 S
C1037 C1041 1.386 . S
C1038 H1019 0.951 . S
C1038 C1036 1.388 . S
C1038 C1039 1.366 . S
C1039 C1038 1.366 . S
C1039 C1040 1.414 1_545 S
C1039 C1042 1.499 . S
C1040 H1020 0.950 . S
C1040 C1039 1.414 1_565 S
C1040 C1041 1.374 . S
C1041 H1021 0.950 . S
C1041 C1037 1.386 . S
C1041 C1040 1.374 . S
C1042 C1039 1.499 . S
C1042 C1043 1.373 1_545 S
C1042 C1044 1.389 . S
C1043 H1022 0.950 . S
C1043 C1042 1.373 1_565 S
C1043 C1059 1.377 . S
C1044 C1042 1.389 . S
C1044 C1045 1.524 . S
C1044 C1058 1.377 . S
C1045 C1044 1.524 . S
C1045 C1046 1.397 . S
C1045 C1050 1.363 . S
C1046 H1023 0.950 . S
C1046 C1045 1.397 . S
C1046 C1047 1.334 . S
C1047 H1024 0.950 . S
C1047 C1046 1.334 . S
C1047 C1048 1.287 . S
C1048 C1047 1.287 . S
C1048 C1049 1.524 . S
C1048 H1067 0.913 . S
C1049 H1025 0.950 . S
C1049 C1048 1.524 . S
C1049 C1050 1.415 . S
C1050 H1026 0.950 . S
C1050 C1045 1.363 . S
C1050 C1049 1.415 . S
C1051 H1027 0.951 . S
C1051 C1052 1.366 1_565 S
C1051 C1053 1.388 . S
C1052 C1051 1.366 1_545 S
C1052 C1056 1.385 . S
C1053 H1028 0.951 . S
C1053 C1051 1.388 . S
C1053 C1054 1.366 1_565 S
C1054 C1053 1.366 1_545 S
C1054 C1055 1.414 . S
C1054 C1057 1.499 . S
C1055 H1029 0.950 . S
C1055 C1054 1.414 . S
C1055 C1056 1.374 . S
C1056 H1030 0.950 . S
C1056 C1052 1.385 . S
C1056 C1055 1.374 . S
C1057 C1054 1.499 . S
C1057 C1058 1.373 . S
C1057 C1059 1.389 1_545 S
C1058 H1031 0.950 . S
C1058 C1044 1.377 . S
C1058 C1057 1.373 . S
C1059 C1043 1.377 . S
C1059 C1057 1.389 1_565 S
C1059 C1060 1.524 . S
C1060 C1059 1.524 . S
C1060 C1061 1.397 . S
C1060 C1065 1.363 . S
C1061 H1032 0.950 . S
C1061 C1060 1.397 . S
C1061 C1062 1.334 . S
C1062 H1033 0.950 . S
C1062 C1061 1.334 . S
C1062 C1063 1.287 . S
C1063 C1062 1.287 . S
C1063 C1064 1.524 . S
C1063 H1066 0.999 . S
C1064 H1034 0.950 . S
C1064 C1063 1.524 . S
C1064 C1065 1.415 . S
C1065 H1035 0.950 . S
C1065 C1060 1.363 . S
C1065 C1064 1.415 . S
H1066 C1063 0.999 . S
H1067 C1048 0.913 . S
H1068 C1086 0.951 . S
H1069 C1088 0.951 . S
H1070 C1090 0.950 . S
H1071 C1091 0.950 . S
H1072 C1093 0.950 . S
H1073 C1096 0.950 . S
H1074 C1097 0.950 . S
H1075 C1099 0.950 . S
H1076 C1100 0.950 . S
H1077 C1101 0.951 . S
H1078 C1103 0.951 . S
H1079 C1105 0.950 . S
H1080 C1106 0.950 . S
H1081 C1108 0.950 . S
H1082 C1111 0.950 . S
H1083 C1112 0.950 . S
H1084 C1114 0.950 . S
H1085 C1115 0.950 . S
C1086 H1068 0.951 . S
C1086 C1087 1.366 . S
C1086 C1088 1.388 . S
C1087 C1086 1.366 . S
C1087 C1091 1.385 . S
C1088 H1069 0.951 . S
C1088 C1086 1.388 . S
C1088 C1089 1.366 . S
C1089 C1088 1.366 . S
C1089 C1090 1.414 . S
C1089 C1092 1.499 . S
C1090 H1070 0.950 . S
C1090 C1089 1.414 . S
C1090 C1091 1.374 . S
C1091 H1071 0.950 . S
C1091 C1087 1.385 . S
C1091 C1090 1.374 . S
C1092 C1089 1.499 . S
C1092 C1093 1.373 . S
C1092 C1094 1.389 . S
C1093 H1072 0.950 . S
C1093 C1092 1.373 . S
C1093 C1109 1.377 . S
C1094 C1092 1.389 . S
C1094 C1095 1.524 . S
C1094 C1108 1.377 . S
C1095 C1094 1.524 . S
C1095 C1096 1.397 . S
C1095 C1100 1.363 . S
C1096 H1073 0.950 . S
C1096 C1095 1.397 . S
C1096 C1097 1.334 . S
C1097 H1074 0.950 . S
C1097 C1096 1.334 . S
C1097 C1098 1.287 . S
C1098 C1097 1.287 . S
C1098 C1099 1.524 . S
C1098 H1117 0.913 . S
C1099 H1075 0.950 . S
C1099 C1098 1.524 . S
C1099 C1100 1.415 . S
C1100 H1076 0.950 . S
C1100 C1095 1.363 . S
C1100 C1099 1.415 . S
C1101 H1077 0.951 . S
C1101 C1102 1.366 . S
C1101 C1103 1.388 . S
C1102 C1101 1.366 . S
C1102 C1106 1.385 . S
C1103 H1078 0.951 . S
C1103 C1101 1.388 . S
C1103 C1104 1.366 . S
C1104 C1103 1.366 . S
C1104 C1105 1.414 . S
C1104 C1107 1.499 . S
C1105 H1079 0.950 . S
C1105 C1104 1.414 . S
C1105 C1106 1.374 . S
C1106 H1080 0.950 . S
C1106 C1102 1.385 . S
C1106 C1105 1.374 . S
C1107 C1104 1.499 . S
C1107 C1108 1.373 . S
C1107 C1109 1.389 . S
C1108 H1081 0.950 . S
C1108 C1094 1.377 . S
C1108 C1107 1.373 . S
C1109 C1093 1.377 . S
C1109 C1107 1.389 . S
C1109 C1110 1.524 . S
C1110 C1109 1.524 . S
C1110 C1111 1.397 . S
C1110 C1115 1.363 . S
C1111 H1082 0.950 . S
C1111 C1110 1.397 . S
C1111 C1112 1.334 . S
C1112 H1083 0.950 . S
C1112 C1111 1.334 . S
C1112 C1113 1.287 . S
C1113 C1112 1.287 . S
C1113 C1114 1.524 . S
C1113 H1116 0.999 . S
C1114 H1084 0.950 . S
C1114 C1113 1.524 . S
C1114 C1115 1.415 . S
C1115 H1085 0.950 . S
C1115 C1110 1.363 . S
C1115 C1114 1.415 . S
H1116 C1113 0.999 . S
H1117 C1098 0.913 . S
H1118 C1136 0.951 . S
H1119 C1138 0.951 . S
H1120 C1140 0.950 . S
H1121 C1141 0.950 . S
H1122 C1143 0.950 . S
H1123 C1146 0.950 . S
H1124 C1147 0.950 1_554 S
H1125 C1149 0.950 . S
H1126 C1150 0.950 . S
H1127 C1151 0.951 . S
H1128 C1153 0.951 . S
H1129 C1155 0.950 . S
H1130 C1156 0.950 . S
H1131 C1158 0.950 . S
H1132 C1161 0.950 . S
H1133 C1162 0.950 . S
H1134 C1164 0.950 . S
H1135 C1165 0.950 . S
C1136 H1118 0.951 . S
C1136 C1137 1.366 . S
C1136 C1138 1.388 . S
C1137 C1136 1.366 . S
C1137 C1141 1.385 . S
C1138 H1119 0.951 . S
C1138 C1136 1.388 . S
C1138 C1139 1.366 . S
C1139 C1138 1.366 . S
C1139 C1140 1.414 . S
C1139 C1142 1.499 . S
C1140 H1120 0.950 . S
C1140 C1139 1.414 . S
C1140 C1141 1.374 . S
C1141 H1121 0.950 . S
C1141 C1137 1.385 . S
C1141 C1140 1.374 . S
C1142 C1139 1.499 . S
C1142 C1143 1.373 . S
C1142 C1144 1.389 . S
C1143 H1122 0.950 . S
C1143 C1142 1.373 . S
C1143 C1159 1.377 . S
C1144 C1142 1.389 . S
C1144 C1145 1.524 . S
C1144 C1158 1.377 . S
C1145 C1144 1.524 . S
C1145 C1146 1.397 . S
C1145 C1150 1.363 . S
C1146 H1123 0.950 . S
C1146 C1145 1.397 . S
C1146 C1147 1.334 . S
C1147 H1124 0.950 1_556 S
C1147 C1146 1.334 . S
C1147 C1148 1.287 . S
C1148 C1147 1.287 . S
C1148 C1149 1.524 . S
C1148 H1167 0.913 1_556 S
C1149 H1125 0.950 . S
C1149 C1148 1.524 . S
C1149 C1150 1.415 . S
C1150 H1126 0.950 . S
C1150 C1145 1.363 . S
C1150 C1149 1.415 . S
C1151 H1127 0.951 . S
C1151 C1152 1.366 . S
C1151 C1153 1.388 . S
C1152 C1151 1.366 . S
C1152 C1156 1.385 . S
C1153 H1128 0.951 . S
C1153 C1151 1.388 . S
C1153 C1154 1.366 . S
C1154 C1153 1.366 . S
C1154 C1155 1.414 . S
C1154 C1157 1.499 . S
C1155 H1129 0.950 . S
C1155 C1154 1.414 . S
C1155 C1156 1.374 . S
C1156 H1130 0.950 . S
C1156 C1152 1.385 . S
C1156 C1155 1.374 . S
C1157 C1154 1.499 . S
C1157 C1158 1.373 . S
C1157 C1159 1.389 . S
C1158 H1131 0.950 . S
C1158 C1144 1.377 . S
C1158 C1157 1.373 . S
C1159 C1143 1.377 . S
C1159 C1157 1.389 . S
C1159 C1160 1.524 . S
C1160 C1159 1.524 . S
C1160 C1161 1.397 . S
C1160 C1165 1.363 . S
C1161 H1132 0.950 . S
C1161 C1160 1.397 . S
C1161 C1162 1.334 . S
C1162 H1133 0.950 . S
C1162 C1161 1.334 . S
C1162 C1163 1.287 . S
C1163 C1162 1.287 . S
C1163 C1164 1.524 . S
C1163 H1166 0.999 . S
C1164 H1134 0.950 . S
C1164 C1163 1.524 . S
C1164 C1165 1.415 . S
C1165 H1135 0.950 . S
C1165 C1160 1.363 . S
C1165 C1164 1.415 . S
H1166 C1163 0.999 . S
H1167 C1148 0.913 1_554 S
H1168 C1186 0.951 1_556 S
H1169 C1188 0.951 . S
H1170 C1190 0.950 . S
H1171 C1191 0.950 . S
H1172 C1193 0.950 1_554 S
H1173 C1196 0.950 . S
H1174 C1197 0.950 . S
H1175 C1199 0.950 . S
H1176 C1200 0.950 . S
H1177 C1201 0.951 . S
H1178 C1203 0.951 . S
H1179 C1205 0.950 . S
H1180 C1206 0.950 . S
H1181 C1208 0.950 . S
H1182 C1211 0.950 . S
H1183 C1212 0.950 . S
H1184 C1214 0.950 . S
H1185 C1215 0.950 . S
C1186 H1168 0.951 1_554 S
C1186 C1187 1.366 . S
C1186 C1188 1.388 1_554 S
C1187 C1186 1.366 . S
C1187 C1191 1.385 . S
C1188 H1169 0.951 . S
C1188 C1186 1.388 1_556 S
C1188 C1189 1.366 . S
C1189 C1188 1.366 . S
C1189 C1190 1.414 1_556 S
C1189 C1192 1.499 . S
C1190 H1170 0.950 . S
C1190 C1189 1.414 1_554 S
C1190 C1191 1.374 . S
C1191 H1171 0.950 . S
C1191 C1187 1.385 . S
C1191 C1190 1.374 . S
C1192 C1189 1.499 . S
C1192 C1193 1.373 . S
C1192 C1194 1.389 . S
C1193 H1172 0.950 1_556 S
C1193 C1192 1.373 . S
C1193 C1209 1.377 . S
C1194 C1192 1.389 . S
C1194 C1195 1.524 . S
C1194 C1208 1.377 . S
C1195 C1194 1.524 . S
C1195 C1196 1.397 . S
C1195 C1200 1.363 . S
C1196 H1173 0.950 . S
C1196 C1195 1.397 . S
C1196 C1197 1.334 . S
C1197 H1174 0.950 . S
C1197 C1196 1.334 . S
C1197 C1198 1.287 . S
C1198 C1197 1.287 . S
C1198 C1199 1.524 . S
C1198 H1217 0.913 . S
C1199 H1175 0.950 . S
C1199 C1198 1.524 . S
C1199 C1200 1.415 . S
C1200 H1176 0.950 . S
C1200 C1195 1.363 . S
C1200 C1199 1.415 . S
C1201 H1177 0.951 . S
C1201 C1202 1.366 . S
C1201 C1203 1.388 . S
C1202 C1201 1.366 . S
C1202 C1206 1.385 . S
C1203 H1178 0.951 . S
C1203 C1201 1.388 . S
C1203 C1204 1.366 . S
C1204 C1203 1.366 . S
C1204 C1205 1.414 . S
C1204 C1207 1.499 . S
C1205 H1179 0.950 . S
C1205 C1204 1.414 . S
C1205 C1206 1.374 . S
C1206 H1180 0.950 . S
C1206 C1202 1.385 . S
C1206 C1205 1.374 . S
C1207 C1204 1.499 . S
C1207 C1208 1.373 . S
C1207 C1209 1.389 . S
C1208 H1181 0.950 . S
C1208 C1194 1.377 . S
C1208 C1207 1.373 . S
C1209 C1193 1.377 . S
C1209 C1207 1.389 . S
C1209 C1210 1.524 . S
C1210 C1209 1.524 . S
C1210 C1211 1.397 . S
C1210 C1215 1.363 1_556 S
C1211 H1182 0.950 . S
C1211 C1210 1.397 . S
C1211 C1212 1.334 . S
C1212 H1183 0.950 . S
C1212 C1211 1.334 . S
C1212 C1213 1.287 1_556 S
C1213 C1212 1.287 1_554 S
C1213 C1214 1.524 . S
C1213 H1216 0.999 . S
C1214 H1184 0.950 . S
C1214 C1213 1.524 . S
C1214 C1215 1.415 . S
C1215 H1185 0.950 . S
C1215 C1210 1.363 1_554 S
C1215 C1214 1.415 . S
H1216 C1213 0.999 . S
H1217 C1198 0.913 . S
H1218 C1236 0.951 . S
H1219 C1238 0.951 . S
H1220 C1240 0.950 . S
H1221 C1241 0.950 . S
H1222 C1243 0.950 . S
H1223 C1246 0.950 . S
H1224 C1247 0.950 . S
H1225 C1249 0.950 . S
H1226 C1250 0.950 . S
H1227 C1251 0.951 . S
H1228 C1253 0.951 . S
H1229 C1255 0.950 . S
H1230 C1256 0.950 . S
H1231 C1258 0.950 . S
H1232 C1261 0.950 . S
H1233 C1262 0.950 . S
H1234 C1264 0.950 . S
H1235 C1265 0.950 . S
C1236 H1218 0.951 . S
C1236 C1237 1.366 1_566 S
C1236 C1238 1.388 . S
C1237 C1236 1.366 1_544 S
C1237 C1241 1.385 . S
C1238 H1219 0.951 . S
C1238 C1236 1.388 . S
C1238 C1239 1.366 1_565 S
C1239 C1238 1.366 1_545 S
C1239 C1240 1.414 . S
C1239 C1242 1.499 . S
C1240 H1220 0.950 . S
C1240 C1239 1.414 . S
C1240 C1241 1.374 1_556 S
C1241 H1221 0.950 . S
C1241 C1237 1.385 . S
C1241 C1240 1.374 1_554 S
C1242 C1239 1.499 . S
C1242 C1243 1.373 . S
C1242 C1244 1.389 1_545 S
C1243 H1222 0.950 . S
C1243 C1242 1.373 . S
C1243 C1259 1.377 . S
C1244 C1242 1.389 1_565 S
C1244 C1245 1.524 . S
C1244 C1258 1.377 . S
C1245 C1244 1.524 . S
C1245 C1246 1.397 1_556 S
C1245 C1250 1.363 . S
C1246 H1223 0.950 . S
C1246 C1245 1.397 1_554 S
C1246 C1247 1.334 . S
C1247 H1224 0.950 . S
C1247 C1246 1.334 . S
C1247 C1248 1.287 . S
C1248 C1247 1.287 . S
C1248 C1249 1.524 1_554 S
C1248 H1267 0.913 . S
C1249 H1225 0.950 . S
C1249 C1248 1.524 1_556 S
C1249 C1250 1.415 . S
C1250 H1226 0.950 . S
C1250 C1245 1.363 . S
C1250 C1249 1.415 . S
C1251 H1227 0.951 . S
C1251 C1252 1.366 . S
C1251 C1253 1.388 . S
C1252 C1251 1.366 . S
C1252 C1256 1.385 1_545 S
C1253 H1228 0.951 . S
C1253 C1251 1.388 . S
C1253 C1254 1.366 . S
C1254 C1253 1.366 . S
C1254 C1255 1.414 1_545 S
C1254 C1257 1.499 . S
C1255 H1229 0.950 . S
C1255 C1254 1.414 1_565 S
C1255 C1256 1.374 . S
C1256 H1230 0.950 . S
C1256 C1252 1.385 1_565 S
C1256 C1255 1.374 . S
C1257 C1254 1.499 . S
C1257 C1258 1.373 1_545 S
C1257 C1259 1.389 . S
C1258 H1231 0.950 . S
C1258 C1244 1.377 . S
C1258 C1257 1.373 1_565 S
C1259 C1243 1.377 . S
C1259 C1257 1.389 . S
C1259 C1260 1.524 . S
C1260 C1259 1.524 . S
C1260 C1261 1.397 . S
C1260 C1265 1.363 . S
C1261 H1232 0.950 . S
C1261 C1260 1.397 . S
C1261 C1262 1.334 . S
C1262 H1233 0.950 . S
C1262 C1261 1.334 . S
C1262 C1263 1.287 . S
C1263 C1262 1.287 . S
C1263 C1264 1.524 . S
C1263 H1266 0.999 . S
C1264 H1234 0.950 . S
C1264 C1263 1.524 . S
C1264 C1265 1.415 . S
C1265 H1235 0.950 . S
C1265 C1260 1.363 . S
C1265 C1264 1.415 . S
H1266 C1263 0.999 . S
H1267 C1248 0.913 . S
H1268 C1286 0.951 . S
H1269 C1288 0.951 . S
H1270 C1290 0.950 . S
H1271 C1291 0.950 . S
H1272 C1293 0.950 . S
H1273 C1296 0.950 1_554 S
H1274 C1297 0.950 . S
H1275 C1299 0.950 . S
H1276 C1300 0.950 . S
H1277 C1301 0.951 . S
H1278 C1303 0.951 . S
H1279 C1305 0.950 . S
H1280 C1306 0.950 . S
H1281 C1308 0.950 . S
H1282 C1311 0.950 . S
H1283 C1312 0.950 . S
H1284 C1314 0.950 . S
H1285 C1315 0.950 . S
C1286 H1268 0.951 . S
C1286 C1287 1.366 1_556 S
C1286 C1288 1.388 . S
C1287 C1286 1.366 1_554 S
C1287 C1291 1.385 . S
C1288 H1269 0.951 . S
C1288 C1286 1.388 . S
C1288 C1289 1.366 . S
C1289 C1288 1.366 . S
C1289 C1290 1.414 1_556 S
C1289 C1292 1.499 . S
C1290 H1270 0.950 . S
C1290 C1289 1.414 1_554 S
C1290 C1291 1.374 . S
C1291 H1271 0.950 . S
C1291 C1287 1.385 . S
C1291 C1290 1.374 . S
C1292 C1289 1.499 . S
C1292 C1293 1.373 . S
C1292 C1294 1.389 . S
C1293 H1272 0.950 . S
C1293 C1292 1.373 . S
C1293 C1309 1.377 . S
C1294 C1292 1.389 . S
C1294 C1295 1.524 . S
C1294 C1308 1.377 . S
C1295 C1294 1.524 . S
C1295 C1296 1.397 . S
C1295 C1300 1.363 . S
C1296 H1273 0.950 1_556 S
C1296 C1295 1.397 . S
C1296 C1297 1.334 1_556 S
C1297 H1274 0.950 . S
C1297 C1296 1.334 1_554 S
C1297 C1298 1.287 1_554 S
C1298 C1297 1.287 1_556 S
C1298 C1299 1.524 . S
C1298 H1317 0.913 . S
C1299 H1275 0.950 . S
C1299 C1298 1.524 . S
C1299 C1300 1.415 . S
C1300 H1276 0.950 . S
C1300 C1295 1.363 . S
C1300 C1299 1.415 . S
C1301 H1277 0.951 . S
C1301 C1302 1.366 . S
C1301 C1303 1.388 . S
C1302 C1301 1.366 . S
C1302 C1306 1.385 . S
C1303 H1278 0.951 . S
C1303 C1301 1.388 . S
C1303 C1304 1.366 . S
C1304 C1303 1.366 . S
C1304 C1305 1.414 . S
C1304 C1307 1.499 . S
C1305 H1279 0.950 . S
C1305 C1304 1.414 . S
C1305 C1306 1.374 . S
C1306 H1280 0.950 . S
C1306 C1302 1.385 . S
C1306 C1305 1.374 . S
C1307 C1304 1.499 . S
C1307 C1308 1.373 . S
C1307 C1309 1.389 . S
C1308 H1281 0.950 . S
C1308 C1294 1.377 . S
C1308 C1307 1.373 . S
C1309 C1293 1.377 . S
C1309 C1307 1.389 . S
C1309 C1310 1.524 . S
C1310 C1309 1.524 . S
C1310 C1311 1.397 . S
C1310 C1315 1.363 . S
C1311 H1282 0.950 . S
C1311 C1310 1.397 . S
C1311 C1312 1.334 . S
C1312 H1283 0.950 . S
C1312 C1311 1.334 . S
C1312 C1313 1.287 . S
C1313 C1312 1.287 . S
C1313 C1314 1.524 . S
C1313 H1316 0.999 . S
C1314 H1284 0.950 . S
C1314 C1313 1.524 . S
C1314 C1315 1.415 . S
C1315 H1285 0.950 . S
C1315 C1310 1.363 . S
C1315 C1314 1.415 . S
H1316 C1313 0.999 . S
H1317 C1298 0.913 . S
H1318 C1336 0.951 . S
H1319 C1338 0.951 . S
H1320 C1340 0.950 . S
H1321 C1341 0.950 . S
H1322 C1343 0.950 . S
H1323 C1346 0.950 . S
H1324 C1347 0.950 . S
H1325 C1349 0.950 . S
H1326 C1350 0.950 . S
H1327 C1351 0.951 . S
H1328 C1353 0.951 . S
H1329 C1355 0.950 . S
H1330 C1356 0.950 . S
H1331 C1358 0.950 . S
H1332 C1361 0.950 . S
H1333 C1362 0.950 . S
H1334 C1364 0.950 . S
H1335 C1365 0.950 . S
C1336 H1318 0.951 . S
C1336 C1337 1.366 . S
C1336 C1338 1.388 . S
C1337 C1336 1.366 . S
C1337 C1341 1.385 1_554 S
C1338 H1319 0.951 . S
C1338 C1336 1.388 . S
C1338 C1339 1.366 1_554 S
C1339 C1338 1.366 1_556 S
C1339 C1340 1.414 . S
C1339 C1342 1.499 . S
C1340 H1320 0.950 . S
C1340 C1339 1.414 . S
C1340 C1341 1.374 . S
C1341 H1321 0.950 . S
C1341 C1337 1.385 1_556 S
C1341 C1340 1.374 . S
C1342 C1339 1.499 . S
C1342 C1343 1.373 . S
C1342 C1344 1.389 . S
C1343 H1322 0.950 . S
C1343 C1342 1.373 . S
C1343 C1359 1.377 . S
C1344 C1342 1.389 . S
C1344 C1345 1.524 1_556 S
C1344 C1358 1.377 . S
C1345 C1344 1.524 1_554 S
C1345 C1346 1.397 . S
C1345 C1350 1.363 . S
C1346 H1323 0.950 . S
C1346 C1345 1.397 . S
C1346 C1347 1.334 . S
C1347 H1324 0.950 . S
C1347 C1346 1.334 . S
C1347 C1348 1.287 . S
C1348 C1347 1.287 . S
C1348 C1349 1.524 . S
C1348 H1367 0.913 . S
C1349 H1325 0.950 . S
C1349 C1348 1.524 . S
C1349 C1350 1.415 . S
C1350 H1326 0.950 . S
C1350 C1345 1.363 . S
C1350 C1349 1.415 . S
C1351 H1327 0.951 . S
C1351 C1352 1.366 . S
C1351 C1353 1.388 . S
C1352 C1351 1.366 . S
C1352 C1356 1.385 . S
C1353 H1328 0.951 . S
C1353 C1351 1.388 . S
C1353 C1354 1.366 . S
C1354 C1353 1.366 . S
C1354 C1355 1.414 . S
C1354 C1357 1.499 . S
C1355 H1329 0.950 . S
C1355 C1354 1.414 . S
C1355 C1356 1.374 . S
C1356 H1330 0.950 . S
C1356 C1352 1.385 . S
C1356 C1355 1.374 . S
C1357 C1354 1.499 . S
C1357 C1358 1.373 . S
C1357 C1359 1.389 . S
C1358 H1331 0.950 . S
C1358 C1344 1.377 . S
C1358 C1357 1.373 . S
C1359 C1343 1.377 . S
C1359 C1357 1.389 . S
C1359 C1360 1.524 . S
C1360 C1359 1.524 . S
C1360 C1361 1.397 . S
C1360 C1365 1.363 . S
C1361 H1332 0.950 . S
C1361 C1360 1.397 . S
C1361 C1362 1.334 . S
C1362 H1333 0.950 . S
C1362 C1361 1.334 . S
C1362 C1363 1.287 . S
C1363 C1362 1.287 . S
C1363 C1364 1.524 . S
C1363 H1366 0.999 . S
C1364 H1334 0.950 . S
C1364 C1363 1.524 . S
C1364 C1365 1.415 . S
C1365 H1335 0.950 . S
C1365 C1360 1.363 . S
C1365 C1364 1.415 . S
H1366 C1363 0.999 . S
H1367 C1348 0.913 . S
H1368 C1386 0.951 . S
H1369 C1388 0.951 . S
H1370 C1390 0.950 . S
H1371 C1391 0.950 . S
H1372 C1393 0.950 . S
H1373 C1396 0.950 . S
H1374 C1397 0.950 . S
H1375 C1399 0.950 . S
H1376 C1400 0.950 . S
H1377 C1401 0.951 . S
H1378 C1403 0.951 . S
H1379 C1405 0.950 . S
H1380 C1406 0.950 . S
H1381 C1408 0.950 . S
H1382 C1411 0.950 . S
H1383 C1412 0.950 . S
H1384 C1414 0.950 . S
H1385 C1415 0.950 . S
C1386 H1368 0.951 . S
C1386 C1387 1.366 . S
C1386 C1388 1.388 . S
C1387 C1386 1.366 . S
C1387 C1391 1.385 . S
C1388 H1369 0.951 . S
C1388 C1386 1.388 . S
C1388 C1389 1.366 . S
C1389 C1388 1.366 . S
C1389 C1390 1.414 . S
C1389 C1392 1.499 . S
C1390 H1370 0.950 . S
C1390 C1389 1.414 . S
C1390 C1391 1.374 . S
C1391 H1371 0.950 . S
C1391 C1387 1.385 . S
C1391 C1390 1.374 . S
C1392 C1389 1.499 . S
C1392 C1393 1.373 . S
C1392 C1394 1.389 . S
C1393 H1372 0.950 . S
C1393 C1392 1.373 . S
C1393 C1409 1.377 . S
C1394 C1392 1.389 . S
C1394 C1395 1.524 . S
C1394 C1408 1.377 . S
C1395 C1394 1.524 . S
C1395 C1396 1.397 . S
C1395 C1400 1.363 . S
C1396 H1373 0.950 . S
C1396 C1395 1.397 . S
C1396 C1397 1.334 . S
C1397 H1374 0.950 . S
C1397 C1396 1.334 . S
C1397 C1398 1.287 . S
C1398 C1397 1.287 . S
C1398 C1399 1.524 . S
C1398 H1417 0.913 . S
C1399 H1375 0.950 . S
C1399 C1398 1.524 . S
C1399 C1400 1.415 . S
C1400 H1376 0.950 . S
C1400 C1395 1.363 . S
C1400 C1399 1.415 . S
C1401 H1377 0.951 . S
C1401 C1402 1.366 . S
C1401 C1403 1.388 . S
C1402 C1401 1.366 . S
C1402 C1406 1.385 . S
C1403 H1378 0.951 . S
C1403 C1401 1.388 . S
C1403 C1404 1.366 . S
C1404 C1403 1.366 . S
C1404 C1405 1.414 . S
C1404 C1407 1.499 . S
C1405 H1379 0.950 . S
C1405 C1404 1.414 . S
C1405 C1406 1.374 . S
C1406 H1380 0.950 . S
C1406 C1402 1.385 . S
C1406 C1405 1.374 . S
C1407 C1404 1.499 . S
C1407 C1408 1.373 . S
C1407 C1409 1.389 . S
C1408 H1381 0.950 . S
C1408 C1394 1.377 . S
C1408 C1407 1.373 . S
C1409 C1393 1.377 . S
C1409 C1407 1.389 . S
C1409 C1410 1.524 . S
C1410 C1409 1.524 . S
C1410 C1411 1.397 . S
C1410 C1415 1.363 . S
C1411 H1382 0.950 . S
C1411 C1410 1.397 . S
C1411 C1412 1.334 . S
C1412 H1383 0.950 . S
C1412 C1411 1.334 . S
C1412 C1413 1.287 . S
C1413 C1412 1.287 . S
C1413 C1414 1.524 . S
C1413 H1416 0.999 . S
C1414 H1384 0.950 . S
C1414 C1413 1.524 . S
C1414 C1415 1.415 . S
C1415 H1385 0.950 . S
C1415 C1410 1.363 . S
C1415 C1414 1.415 . S
H1416 C1413 0.999 . S
H1417 C1398 0.913 . S
H1418 C1436 0.951 . S
H1419 C1438 0.951 . S
H1420 C1440 0.950 . S
H1421 C1441 0.950 . S
H1422 C1443 0.950 . S
H1423 C1446 0.950 . S
H1424 C1447 0.950 . S
H1425 C1449 0.950 . S
H1426 C1450 0.950 . S
H1427 C1451 0.951 . S
H1428 C1453 0.951 . S
H1429 C1455 0.950 . S
H1430 C1456 0.950 . S
H1431 C1458 0.950 . S
H1432 C1461 0.950 . S
H1433 C1462 0.950 . S
H1434 C1464 0.950 . S
H1435 C1465 0.950 . S
C1436 H1418 0.951 . S
C1436 C1437 1.367 1_565 S
C1436 C1438 1.388 . S
C1437 C1436 1.367 1_545 S
C1437 C1441 1.383 . S
C1438 H1419 0.951 . S
C1438 C1436 1.388 . S
C1438 C1439 1.388 . S
C1439 C1438 1.388 . S
C1439 C1440 1.394 1_565 S
C1439 C1442 1.497 . S
C1440 H1420 0.950 . S
C1440 C1439 1.394 1_545 S
C1440 C1441 1.374 . S
C1441 H1421 0.950 . S
C1441 C1437 1.383 . S
C1441 C1440 1.374 . S
C1442 C1439 1.497 . S
C1442 C1443 1.354 1_565 S
C1442 C1444 1.407 . S
C1443 H1422 0.950 . S
C1443 C1442 1.354 1_545 S
C1443 C1459 1.377 . S
C1444 C1442 1.407 . S
C1444 C1445 1.524 . S
C1444 C1458 1.377 . S
C1445 C1444 1.524 . S
C1445 C1446 1.397 . S
C1445 C1450 1.363 . S
C1446 H1423 0.950 . S
C1446 C1445 1.397 . S
C1446 C1447 1.334 . S
C1447 H1424 0.950 . S
C1447 C1446 1.334 . S
C1447 C1448 1.287 . S
C1448 C1447 1.287 . S
C1448 C1449 1.524 . S
C1448 H1467 0.913 . S
C1449 H1425 0.950 . S
C1449 C1448 1.524 . S
C1449 C1450 1.415 . S
C1450 H1426 0.950 . S
C1450 C1445 1.363 . S
C1450 C1449 1.415 . S
C1451 H1427 0.951 . S
C1451 C1452 1.378 . S
C1451 C1453 1.388 . S
C1452 C1451 1.378 . S
C1452 C1456 1.371 1_545 S
C1453 H1428 0.951 . S
C1453 C1451 1.388 . S
C1453 C1454 1.366 . S
C1454 C1453 1.366 . S
C1454 C1455 1.414 1_545 S
C1454 C1457 1.504 . S
C1455 H1429 0.950 . S
C1455 C1454 1.414 1_565 S
C1455 C1456 1.374 . S
C1456 H1430 0.950 . S
C1456 C1452 1.371 1_565 S
C1456 C1455 1.374 . S
C1457 C1454 1.504 . S
C1457 C1458 1.321 1_545 S
C1457 C1459 1.436 . S
C1458 H1431 0.950 . S
C1458 C1444 1.377 . S
C1458 C1457 1.321 1_565 S
C1459 C1443 1.377 . S
C1459 C1457 1.436 . S
C1459 C1460 1.524 . S
C1460 C1459 1.524 . S
C1460 C1461 1.397 . S
C1460 C1465 1.363 . S
C1461 H1432 0.950 . S
C1461 C1460 1.397 . S
C1461 C1462 1.334 . S
C1462 H1433 0.950 . S
C1462 C1461 1.334 . S
C1462 C1463 1.287 . S
C1463 C1462 1.287 . S
C1463 C1464 1.524 . S
C1463 H1466 0.999 . S
C1464 H1434 0.950 . S
C1464 C1463 1.524 . S
C1464 C1465 1.415 . S
C1465 H1435 0.950 . S
C1465 C1460 1.363 . S
C1465 C1464 1.415 . S
H1466 C1463 0.999 . S
H1467 C1448 0.913 . S
H1468 C1486 0.951 . S
H1469 C1488 0.951 . S
H1470 C1490 0.950 . S
H1471 C1491 0.950 . S
H1472 C1493 0.950 . S
H1473 C1496 0.950 . S
H1474 C1497 0.950 . S
H1475 C1499 0.950 . S
H1476 C1500 0.950 . S
H1477 C1501 0.951 . S
H1478 C1503 0.951 . S
H1479 C1505 0.950 . S
H1480 C1506 0.950 . S
H1481 C1508 0.950 . S
H1482 C1511 0.950 . S
H1483 C1512 0.950 . S
H1484 C1514 0.950 . S
H1485 C1515 0.950 . S
C1486 H1468 0.951 . S
C1486 C1487 1.366 . S
C1486 C1488 1.388 . S
C1487 C1486 1.366 . S
C1487 C1491 1.385 . S
C1488 H1469 0.951 . S
C1488 C1486 1.388 . S
C1488 C1489 1.366 . S
C1489 C1488 1.366 . S
C1489 C1490 1.414 . S
C1489 C1492 1.499 . S
C1490 H1470 0.950 . S
C1490 C1489 1.414 . S
C1490 C1491 1.374 . S
C1491 H1471 0.950 . S
C1491 C1487 1.385 . S
C1491 C1490 1.374 . S
C1492 C1489 1.499 . S
C1492 C1493 1.373 . S
C1492 C1494 1.389 . S
C1493 H1472 0.950 . S
C1493 C1492 1.373 . S
C1493 C1509 1.377 . S
C1494 C1492 1.389 . S
C1494 C1495 1.524 . S
C1494 C1508 1.377 . S
C1495 C1494 1.524 . S
C1495 C1496 1.397 . S
C1495 C1500 1.363 . S
C1496 H1473 0.950 . S
C1496 C1495 1.397 . S
C1496 C1497 1.334 . S
C1497 H1474 0.950 . S
C1497 C1496 1.334 . S
C1497 C1498 1.287 . S
C1498 C1497 1.287 . S
C1498 C1499 1.524 . S
C1498 H1517 0.913 . S
C1499 H1475 0.950 . S
C1499 C1498 1.524 . S
C1499 C1500 1.415 . S
C1500 H1476 0.950 . S
C1500 C1495 1.363 . S
C1500 C1499 1.415 . S
C1501 H1477 0.951 . S
C1501 C1502 1.366 . S
C1501 C1503 1.388 . S
C1502 C1501 1.366 . S
C1502 C1506 1.385 . S
C1503 H1478 0.951 . S
C1503 C1501 1.388 . S
C1503 C1504 1.366 . S
C1504 C1503 1.366 . S
C1504 C1505 1.414 . S
C1504 C1507 1.499 . S
C1505 H1479 0.950 . S
C1505 C1504 1.414 . S
C1505 C1506 1.374 . S
C1506 H1480 0.950 . S
C1506 C1502 1.385 . S
C1506 C1505 1.374 . S
C1507 C1504 1.499 . S
C1507 C1508 1.373 . S
C1507 C1509 1.389 . S
C1508 H1481 0.950 . S
C1508 C1494 1.377 . S
C1508 C1507 1.373 . S
C1509 C1493 1.377 . S
C1509 C1507 1.389 . S
C1509 C1510 1.524 . S
C1510 C1509 1.524 . S
C1510 C1511 1.397 . S
C1510 C1515 1.363 . S
C1511 H1482 0.950 . S
C1511 C1510 1.397 . S
C1511 C1512 1.334 . S
C1512 H1483 0.950 . S
C1512 C1511 1.334 . S
C1512 C1513 1.287 . S
C1513 C1512 1.287 . S
C1513 C1514 1.524 . S
C1513 H1516 0.999 . S
C1514 H1484 0.950 . S
C1514 C1513 1.524 . S
C1514 C1515 1.415 . S
C1515 H1485 0.950 . S
C1515 C1510 1.363 . S
C1515 C1514 1.415 . S
H1516 C1513 0.999 . S
H1517 C1498 0.913 . S
H1518 C1536 0.951 . S
H1519 C1538 0.951 . S
H1520 C1540 0.950 . S
H1521 C1541 0.950 . S
H1522 C1543 0.950 . S
H1523 C1546 0.950 . S
H1524 C1547 0.950 . S
H1525 C1549 0.950 . S
H1526 C1550 0.950 . S
H1527 C1551 0.951 . S
H1528 C1553 0.951 . S
H1529 C1555 0.950 . S
H1530 C1556 0.950 . S
H1531 C1558 0.950 . S
H1532 C1561 0.950 . S
H1533 C1562 0.950 . S
H1534 C1564 0.950 . S
H1535 C1565 0.950 . S
C1536 H1518 0.951 . S
C1536 C1537 1.366 . S
C1536 C1538 1.388 . S
C1537 C1536 1.366 . S
C1537 C1541 1.385 . S
C1538 H1519 0.951 . S
C1538 C1536 1.388 . S
C1538 C1539 1.366 . S
C1539 C1538 1.366 . S
C1539 C1540 1.414 . S
C1539 C1542 1.499 . S
C1540 H1520 0.950 . S
C1540 C1539 1.414 . S
C1540 C1541 1.374 . S
C1541 H1521 0.950 . S
C1541 C1537 1.385 . S
C1541 C1540 1.374 . S
C1542 C1539 1.499 . S
C1542 C1543 1.373 . S
C1542 C1544 1.389 . S
C1543 H1522 0.950 . S
C1543 C1542 1.373 . S
C1543 C1559 1.377 . S
C1544 C1542 1.389 . S
C1544 C1545 1.524 . S
C1544 C1558 1.377 . S
C1545 C1544 1.524 . S
C1545 C1546 1.397 . S
C1545 C1550 1.363 . S
C1546 H1523 0.950 . S
C1546 C1545 1.397 . S
C1546 C1547 1.334 . S
C1547 H1524 0.950 . S
C1547 C1546 1.334 . S
C1547 C1548 1.287 . S
C1548 C1547 1.287 . S
C1548 C1549 1.524 . S
C1548 H1567 0.913 . S
C1549 H1525 0.950 . S
C1549 C1548 1.524 . S
C1549 C1550 1.415 . S
C1550 H1526 0.950 . S
C1550 C1545 1.363 . S
C1550 C1549 1.415 . S
C1551 H1527 0.951 . S
C1551 C1552 1.366 . S
C1551 C1553 1.388 . S
C1552 C1551 1.366 . S
C1552 C1556 1.385 . S
C1553 H1528 0.951 . S
C1553 C1551 1.388 . S
C1553 C1554 1.366 . S
C1554 C1553 1.366 . S
C1554 C1555 1.414 . S
C1554 C1557 1.499 . S
C1555 H1529 0.950 . S
C1555 C1554 1.414 . S
C1555 C1556 1.374 . S
C1556 H1530 0.950 . S
C1556 C1552 1.385 . S
C1556 C1555 1.374 . S
C1557 C1554 1.499 . S
C1557 C1558 1.373 . S
C1557 C1559 1.389 . S
C1558 H1531 0.950 . S
C1558 C1544 1.377 . S
C1558 C1557 1.373 . S
C1559 C1543 1.377 . S
C1559 C1557 1.389 . S
C1559 C1560 1.524 . S
C1560 C1559 1.524 . S
C1560 C1561 1.397 . S
C1560 C1565 1.363 . S
C1561 H1532 0.950 . S
C1561 C1560 1.397 . S
C1561 C1562 1.334 . S
C1562 H1533 0.950 . S
C1562 C1561 1.334 . S
C1562 C1563 1.287 . S
C1563 C1562 1.287 . S
C1563 C1564 1.524 . S
C1563 H1566 0.999 . S
C1564 H1534 0.950 . S
C1564 C1563 1.524 . S
C1564 C1565 1.415 . S
C1565 H1535 0.950 . S
C1565 C1560 1.363 . S
C1565 C1564 1.415 . S
H1566 C1563 0.999 . S
H1567 C1548 0.913 . S
C387 C241 1.441 . S
C402 C289 1.471 . S
C452 C324 2.224 . S
C437 C277 2.073 . S
C502 C329 1.331 . S
C487 C169 1.295 . S
C552 C349 1.860 . S
C537 C205 1.796 . S
C602 C297 1.471 . S
C587 C97 1.439 . S
C637 C133 2.148 1_556 S
C652 C314 2.225 . S
C687 C25 1.319 1_556 S
C702 C337 1.331 . S
C737 C61 1.725 . S
C752 C357 1.861 . S
C802 C307 1.153 . S
C787 C211 1.109 . S
C852 C316 0.430 . S
C837 C247 0.439 . S
C902 C347 1.354 . S
C887 C253 1.257 . S
C937 C175 0.673 . S
C952 C367 0.669 . S
C987 C67 1.060 . S
C1002 C296 1.153 . S
C1052 C327 0.434 . S
C1037 C103 0.441 1_565 S
C1102 C336 1.355 . S
C1087 C109 1.307 . S
C1137 C31 0.668 . S
C1152 C356 0.667 . S
C1187 C181 2.119 . S
C1202 C294 2.202 . S
C1237 C217 1.613 . S
C1252 C317 1.717 . S
C1302 C334 2.328 . S
C1287 C283 2.107 . S
C1352 C354 2.013 . S
C1337 C145 1.909 . S
C1387 C37 2.070 . S
C1402 C304 2.202 . S
C1452 C309 1.721 . S
C1437 C73 1.614 . S
C1502 C344 2.327 . S
C1487 C139 2.180 . S
C1537 C1 1.931 . S
C1552 C364 2.013 . S
