# Generated by pormake.
# Topology pyr, (3,6)-cn, num edge types: 1
# Building blocks:
#     Node 0, Type 0, BuildingBlock: KAKCAD_clean_linker_0, # of connection points: 3
#     Node 1, Type 0, BuildingBlock: KAKCAD_clean_linker_0, # of connection points: 3
#     Node 2, Type 0, BuildingBlock: KAKCAD_clean_linker_0, # of connection points: 3
#     Node 3, Type 0, BuildingBlock: KAKCAD_clean_linker_0, # of connection points: 3
#     Node 4, Type 0, BuildingBlock: KAKCAD_clean_linker_0, # of connection points: 3
#     Node 5, Type 0, BuildingBlock: KAKCAD_clean_linker_0, # of connection points: 3
#     Node 6, Type 0, BuildingBlock: KAKCAD_clean_linker_0, # of connection points: 3
#     Node 7, Type 0, BuildingBlock: KAKCAD_clean_linker_0, # of connection points: 3
#     Node 8, Type 1, BuildingBlock: MIDCAF_clean_sbu_0, # of connection points: 6
#     Node 9, Type 1, BuildingBlock: MIDCAF_clean_sbu_0, # of connection points: 6
#     Node 10, Type 1, BuildingBlock: MIDCAF_clean_sbu_0, # of connection points: 6
#     Node 11, Type 1, BuildingBlock: MIDCAF_clean_sbu_0, # of connection points: 6
#     Edge 12, Type (0, 1), BuildingBlock: MIFKUJ_clean_linker_0, # of connection points: 2
#     Edge 13, Type (0, 1), BuildingBlock: MIFKUJ_clean_linker_0, # of connection points: 2
#     Edge 14, Type (0, 1), BuildingBlock: MIFKUJ_clean_linker_0, # of connection points: 2
#     Edge 15, Type (0, 1), BuildingBlock: MIFKUJ_clean_linker_0, # of connection points: 2
#     Edge 16, Type (0, 1), BuildingBlock: MIFKUJ_clean_linker_0, # of connection points: 2
#     Edge 17, Type (0, 1), BuildingBlock: MIFKUJ_clean_linker_0, # of connection points: 2
#     Edge 18, Type (0, 1), BuildingBlock: MIFKUJ_clean_linker_0, # of connection points: 2
#     Edge 19, Type (0, 1), BuildingBlock: MIFKUJ_clean_linker_0, # of connection points: 2
#     Edge 20, Type (0, 1), BuildingBlock: MIFKUJ_clean_linker_0, # of connection points: 2
#     Edge 21, Type (0, 1), BuildingBlock: MIFKUJ_clean_linker_0, # of connection points: 2
#     Edge 22, Type (0, 1), BuildingBlock: MIFKUJ_clean_linker_0, # of connection points: 2
#     Edge 23, Type (0, 1), BuildingBlock: MIFKUJ_clean_linker_0, # of connection points: 2
#     Edge 24, Type (0, 1), BuildingBlock: MIFKUJ_clean_linker_0, # of connection points: 2
#     Edge 25, Type (0, 1), BuildingBlock: MIFKUJ_clean_linker_0, # of connection points: 2
#     Edge 26, Type (0, 1), BuildingBlock: MIFKUJ_clean_linker_0, # of connection points: 2
#     Edge 27, Type (0, 1), BuildingBlock: MIFKUJ_clean_linker_0, # of connection points: 2
#     Edge 28, Type (0, 1), BuildingBlock: MIFKUJ_clean_linker_0, # of connection points: 2
#     Edge 29, Type (0, 1), BuildingBlock: MIFKUJ_clean_linker_0, # of connection points: 2
#     Edge 30, Type (0, 1), BuildingBlock: MIFKUJ_clean_linker_0, # of connection points: 2
#     Edge 31, Type (0, 1), BuildingBlock: MIFKUJ_clean_linker_0, # of connection points: 2
#     Edge 32, Type (0, 1), BuildingBlock: MIFKUJ_clean_linker_0, # of connection points: 2
#     Edge 33, Type (0, 1), BuildingBlock: MIFKUJ_clean_linker_0, # of connection points: 2
#     Edge 34, Type (0, 1), BuildingBlock: MIFKUJ_clean_linker_0, # of connection points: 2
#     Edge 35, Type (0, 1), BuildingBlock: MIFKUJ_clean_linker_0, # of connection points: 2
# Relax obj value: 0.019
# Max RMSD: 0.063
# Mean RMSD: 0.024
data_MOF--net-pry--node1-MIDCAF_clean_sbu_0--node2-KAKCAD_clean_linker_0--edge1-MIFKUJ_clean_linker_0
_symmetry_space_group_name_H-M    P1
_symmetry_Int_Tables_number       1
_symmetry_cell_setting            triclinic
loop_
_symmetry_equiv_pos_as_xyz
'x, y, z'
_cell_length_a     54.697126
_cell_length_b     54.690612
_cell_length_c     54.619101
_cell_angle_alpha  90.230691
_cell_angle_beta   89.920366
_cell_angle_gamma 90.315744
loop_
_atom_site_label
_atom_site_type_symbol
_atom_site_fract_x
_atom_site_fract_y
_atom_site_fract_z
_atom_type_partial_charge
C0 C 0.16215 0.20877 0.29414 0.0
C1 C 0.1745 0.19892 0.31437 0.0
C2 C 0.17514 0.21783 0.27404 0.0
C3 C 0.20085 0.21733 0.27364 0.0
C4 C 0.21323 0.20784 0.29404 0.0
C5 C 0.20022 0.19875 0.31415 0.0
C6 C 0.21461 0.22614 0.25179 0.0
C7 C 0.20698 0.24713 0.23916 0.0
C8 C 0.21928 0.25504 0.21799 0.0
C9 C 0.23952 0.24177 0.2095 0.0
C10 C 0.24739 0.22067 0.22175 0.0
C11 C 0.23493 0.21311 0.24297 0.0
C12 C 0.26791 0.20594 0.21175 0.0
C13 C 0.26919 0.20073 0.18656 0.0
C14 C 0.28612 0.19668 0.22726 0.0
C15 C 0.30522 0.18256 0.21776 0.0
C16 C 0.30636 0.17721 0.19258 0.0
C17 C 0.21044 0.27662 0.20419 0.0
C18 C 0.18543 0.2792 0.19905 0.0
C19 C 0.22692 0.29445 0.19557 0.0
C20 C 0.21855 0.31438 0.18199 0.0
C21 C 0.19358 0.31671 0.17651 0.0
C22 C 0.17711 0.29896 0.18528 0.0
C23 C 0.28815 0.1865 0.17711 0.0
H24 H 0.14237 0.20945 0.29379 0.0
H25 H 0.16498 0.22475 0.25856 0.0
H26 H 0.23302 0.20741 0.29446 0.0
H27 H 0.21033 0.19109 0.3293 0.0
H28 H 0.19157 0.25753 0.24596 0.0
H29 H 0.24046 0.19644 0.25203 0.0
H30 H 0.24894 0.24765 0.19305 0.0
H31 H 0.25531 0.20736 0.17417 0.0
H32 H 0.2857 0.2005 0.24673 0.0
H33 H 0.31888 0.17552 0.23017 0.0
H34 H 0.17231 0.26566 0.20527 0.0
H35 H 0.24629 0.29302 0.19939 0.0
H36 H 0.28865 0.18293 0.15759 0.0
H37 H 0.15772 0.3004 0.18158 0.0
H38 H 0.23168 0.32772 0.17538 0.0
C39 C 0.33822 0.84789 0.81332 0.0
C40 C 0.36357 0.84447 0.81601 0.0
C41 C 0.32622 0.84069 0.79183 0.0
C42 C 0.33928 0.83015 0.77229 0.0
C43 C 0.36462 0.82672 0.77501 0.0
C44 C 0.37653 0.83355 0.79661 0.0
C45 C 0.32672 0.82295 0.74906 0.0
C46 C 0.30744 0.83701 0.73961 0.0
C47 C 0.29618 0.83071 0.71729 0.0
C48 C 0.30462 0.81018 0.70422 0.0
C49 C 0.32397 0.79604 0.71318 0.0
C50 C 0.33452 0.80231 0.73581 0.0
C51 C 0.33392 0.77527 0.69862 0.0
C52 C 0.31836 0.75888 0.68615 0.0
C53 C 0.35932 0.77185 0.697 0.0
C54 C 0.36894 0.75236 0.68361 0.0
C55 C 0.35344 0.73575 0.67142 0.0
C56 C 0.27604 0.8459 0.70726 0.0
C57 C 0.25741 0.85489 0.7226 0.0
C58 C 0.2752 0.85134 0.68215 0.0
C59 C 0.256 0.86499 0.67252 0.0
C60 C 0.23711 0.87358 0.68773 0.0
C61 C 0.23816 0.86861 0.71294 0.0
C62 C 0.32803 0.73933 0.67266 0.0
H63 H 0.3276 0.85655 0.82763 0.0
H64 H 0.30666 0.84336 0.79061 0.0
H65 H 0.37548 0.81907 0.7603 0.0
H66 H 0.39596 0.83022 0.79803 0.0
H67 H 0.3017 0.85339 0.74916 0.0
H68 H 0.34882 0.79087 0.74319 0.0
H69 H 0.2963 0.80537 0.68685 0.0
H70 H 0.2987 0.76089 0.68716 0.0
H71 H 0.37187 0.78444 0.70588 0.0
H72 H 0.38862 0.75047 0.68259 0.0
H73 H 0.2574 0.85086 0.74199 0.0
H74 H 0.28952 0.84521 0.6699 0.0
H75 H 0.3156 0.72675 0.66361 0.0
H76 H 0.22381 0.8748 0.72511 0.0
H77 H 0.25603 0.86894 0.6531 0.0
C78 C 0.78197 0.38342 0.84001 0.0
C79 C 0.80052 0.37005 0.85158 0.0
C80 C 0.76152 0.37153 0.83018 0.0
C81 C 0.75911 0.34597 0.83167 0.0
C82 C 0.77785 0.33255 0.84288 0.0
C83 C 0.79832 0.34445 0.85271 0.0
C84 C 0.73681 0.33348 0.82216 0.0
C85 C 0.72621 0.34082 0.79998 0.0
C86 C 0.70444 0.32999 0.79141 0.0
C87 C 0.69357 0.31115 0.80518 0.0
C88 C 0.70403 0.30334 0.82732 0.0
C89 C 0.7256 0.31469 0.83566 0.0
C90 C 0.6922 0.2837 0.84204 0.0
C91 C 0.66665 0.2828 0.84476 0.0
C92 C 0.70642 0.26581 0.85366 0.0
C93 C 0.69534 0.24745 0.86763 0.0
C94 C 0.66979 0.24649 0.8702 0.0
C95 C 0.69281 0.33885 0.76845 0.0
C96 C 0.6928 0.36396 0.76297 0.0
C97 C 0.68149 0.3225 0.75196 0.0
C98 C 0.67053 0.33108 0.7305 0.0
C99 C 0.67087 0.35614 0.72498 0.0
C100 C 0.68208 0.37246 0.74148 0.0
C101 C 0.65557 0.26439 0.85863 0.0
H102 H 0.78322 0.40313 0.83858 0.0
H103 H 0.74733 0.38245 0.82189 0.0
H104 H 0.77668 0.31282 0.84411 0.0
H105 H 0.81215 0.33361 0.8617 0.0
H106 H 0.73513 0.35488 0.78921 0.0
H107 H 0.73324 0.30944 0.85315 0.0
H108 H 0.6768 0.30268 0.79878 0.0
H109 H 0.65517 0.29654 0.83646 0.0
H110 H 0.72612 0.26576 0.85168 0.0
H111 H 0.70676 0.23374 0.87604 0.0
H112 H 0.7008 0.37717 0.77547 0.0
H113 H 0.68139 0.30302 0.75542 0.0
H114 H 0.63586 0.26435 0.86057 0.0
H115 H 0.68222 0.39194 0.73796 0.0
H116 H 0.66215 0.31807 0.71803 0.0
C117 C 0.83565 0.69567 0.21765 0.0
C118 C 0.8613 0.69786 0.21676 0.0
C119 C 0.8225 0.70398 0.23803 0.0
C120 C 0.83464 0.71439 0.25828 0.0
C121 C 0.86027 0.71666 0.25731 0.0
C122 C 0.87336 0.70877 0.23678 0.0
C123 C 0.82082 0.72252 0.28048 0.0
C124 C 0.79997 0.7096 0.28856 0.0
C125 C 0.78765 0.71657 0.31008 0.0
C126 C 0.79633 0.73668 0.32366 0.0
C127 C 0.81704 0.74981 0.31594 0.0
C128 C 0.82894 0.74281 0.29423 0.0
C129 C 0.8269 0.77031 0.33095 0.0
C130 C 0.81138 0.78843 0.34047 0.0
C131 C 0.85206 0.77173 0.33596 0.0
C132 C 0.86151 0.79079 0.35022 0.0
C133 C 0.84607 0.80899 0.35966 0.0
C134 C 0.76621 0.70231 0.31887 0.0
C135 C 0.74689 0.69638 0.30294 0.0
C136 C 0.76496 0.69455 0.34334 0.0
C137 C 0.74486 0.68105 0.35168 0.0
C138 C 0.72543 0.67529 0.33583 0.0
C139 C 0.72658 0.68318 0.3114 0.0
C140 C 0.82091 0.8077 0.35456 0.0
H141 H 0.82564 0.68709 0.20282 0.0
H142 H 0.80278 0.7022 0.23785 0.0
H143 H 0.87045 0.72417 0.2726 0.0
H144 H 0.89301 0.71124 0.23673 0.0
H145 H 0.79377 0.69352 0.27868 0.0
H146 H 0.8445 0.75343 0.28799 0.0
H147 H 0.78713 0.74191 0.34046 0.0
H148 H 0.79193 0.78786 0.33679 0.0
H149 H 0.86443 0.75791 0.32906 0.0
H150 H 0.88101 0.79143 0.35364 0.0
H151 H 0.74736 0.70224 0.28402 0.0
H152 H 0.77967 0.69871 0.35597 0.0
H153 H 0.80856 0.82142 0.36169 0.0
H154 H 0.71191 0.67889 0.29877 0.0
H155 H 0.74436 0.67538 0.37066 0.0
C156 C 0.9538 0.9033 0.82379 0.0
C157 C 0.95694 0.928 0.81748 0.0
C158 C 0.94164 0.89685 0.84535 0.0
C159 C 0.93219 0.91494 0.86105 0.0
C160 C 0.93556 0.93967 0.85489 0.0
C161 C 0.94791 0.94613 0.83338 0.0
C162 C 0.91829 0.90784 0.88335 0.0
C163 C 0.92669 0.8888 0.89827 0.0
C164 C 0.91277 0.88032 0.91823 0.0
C165 C 0.89033 0.8917 0.92343 0.0
C166 C 0.88191 0.91124 0.90911 0.0
C167 C 0.89604 0.91922 0.88913 0.0
C168 C 0.85802 0.92287 0.91461 0.0
C169 C 0.83737 0.90844 0.91998 0.0
C170 C 0.8557 0.94846 0.91461 0.0
C171 C 0.83328 0.95938 0.92013 0.0
C172 C 0.81265 0.94494 0.92557 0.0
C173 C 0.92141 0.8592 0.9331 0.0
C174 C 0.93448 0.84005 0.92191 0.0
C175 C 0.91668 0.85781 0.95846 0.0
C176 C 0.92483 0.83784 0.97216 0.0
C177 C 0.9383 0.81918 0.96087 0.0
C178 C 0.94304 0.82046 0.93568 0.0
C179 C 0.81493 0.91935 0.92532 0.0
H180 H 0.9607 0.88893 0.812 0.0
H181 H 0.93913 0.87764 0.84945 0.0
H182 H 0.92863 0.95401 0.86669 0.0
H183 H 0.94985 0.96532 0.82889 0.0
H184 H 0.94429 0.8807 0.89428 0.0
H185 H 0.8892 0.93364 0.87748 0.0
H186 H 0.87921 0.88526 0.93852 0.0
H187 H 0.83851 0.88868 0.91987 0.0
H188 H 0.87133 0.96006 0.91067 0.0
H189 H 0.83205 0.97914 0.92 0.0
H190 H 0.93793 0.83996 0.90239 0.0
H191 H 0.907 0.87228 0.96786 0.0
H192 H 0.79944 0.90772 0.92966 0.0
H193 H 0.95311 0.80605 0.92654 0.0
H194 H 0.92104 0.83719 0.99162 0.0
C195 C 0.58704 0.09347 0.34614 0.0
C196 C 0.58754 0.1092 0.32576 0.0
C197 C 0.59787 0.10046 0.36828 0.0
C198 C 0.6089 0.12353 0.37076 0.0
C199 C 0.60878 0.13962 0.35083 0.0
C200 C 0.59844 0.13246 0.3285 0.0
C201 C 0.62135 0.13046 0.3938 0.0
C202 C 0.64043 0.11598 0.40279 0.0
C203 C 0.65323 0.1229 0.42403 0.0
C204 C 0.64596 0.14401 0.43683 0.0
C205 C 0.6269 0.15866 0.42805 0.0
C206 C 0.61486 0.15193 0.40632 0.0
C207 C 0.62012 0.18135 0.4413 0.0
C208 C 0.61615 0.18105 0.46672 0.0
C209 C 0.61796 0.20353 0.42863 0.0
C210 C 0.61206 0.22503 0.44117 0.0
C211 C 0.60788 0.22471 0.46656 0.0
C212 C 0.67529 0.10919 0.43178 0.0
C213 C 0.67587 0.08349 0.43083 0.0
C214 C 0.69643 0.12194 0.43915 0.0
C215 C 0.71776 0.10938 0.44496 0.0
C216 C 0.71855 0.08374 0.4435 0.0
C217 C 0.69728 0.07088 0.4367 0.0
C218 C 0.60989 0.2025 0.47921 0.0
H219 H 0.57833 0.07568 0.34508 0.0
H220 H 0.59759 0.08784 0.38352 0.0
H221 H 0.6174 0.15745 0.3523 0.0
H222 H 0.59968 0.14497 0.31324 0.0
H223 H 0.64603 0.09996 0.39251 0.0
H224 H 0.60017 0.16315 0.39936 0.0
H225 H 0.65554 0.14942 0.45336 0.0
H226 H 0.61762 0.16416 0.47689 0.0
H227 H 0.62111 0.20429 0.40906 0.0
H228 H 0.61037 0.24186 0.43093 0.0
H229 H 0.65982 0.07313 0.4254 0.0
H230 H 0.69674 0.14174 0.4398 0.0
H231 H 0.60681 0.20177 0.49879 0.0
H232 H 0.69734 0.05112 0.4353 0.0
H233 H 0.73374 0.11981 0.45048 0.0
C234 C 0.33025 0.57338 0.11926 0.0
C235 C 0.32389 0.57098 0.09443 0.0
C236 C 0.35123 0.58634 0.1262 0.0
C237 C 0.36657 0.59708 0.10849 0.0
C238 C 0.36037 0.59445 0.08365 0.0
C239 C 0.33928 0.58164 0.07671 0.0
C240 C 0.38882 0.61106 0.11598 0.0
C241 C 0.40295 0.60321 0.13594 0.0
C242 C 0.42351 0.61659 0.14364 0.0
C243 C 0.43017 0.6379 0.13111 0.0
C244 C 0.41612 0.64638 0.1114 0.0
C245 C 0.39561 0.63273 0.10378 0.0
C246 C 0.42224 0.67022 0.09984 0.0
C247 C 0.42878 0.69031 0.11459 0.0
C248 C 0.42182 0.67313 0.07427 0.0
C249 C 0.42846 0.69553 0.06369 0.0
C250 C 0.43563 0.71539 0.07851 0.0
C251 C 0.43715 0.60919 0.16576 0.0
C252 C 0.42461 0.60542 0.18787 0.0
C253 C 0.4627 0.60671 0.16519 0.0
C254 C 0.47548 0.60039 0.18641 0.0
C255 C 0.46292 0.59702 0.20861 0.0
C256 C 0.4374 0.59959 0.20914 0.0
C257 C 0.43537 0.71257 0.10408 0.0
H258 H 0.31902 0.56522 0.13341 0.0
H259 H 0.35518 0.58825 0.14554 0.0
H260 H 0.37187 0.60223 0.06949 0.0
H261 H 0.33482 0.58052 0.05743 0.0
H262 H 0.39813 0.58652 0.14548 0.0
H263 H 0.38435 0.63957 0.08904 0.0
H264 H 0.446 0.64826 0.1372 0.0
H265 H 0.42867 0.68888 0.13437 0.0
H266 H 0.41692 0.65795 0.06243 0.0
H267 H 0.42856 0.69711 0.04393 0.0
H268 H 0.40493 0.60743 0.18879 0.0
H269 H 0.47273 0.60953 0.14831 0.0
H270 H 0.44017 0.72768 0.11606 0.0
H271 H 0.4273 0.59685 0.226 0.0
H272 H 0.49516 0.59848 0.1856 0.0
C273 C 0.12907 0.3245 0.57573 0.0
C274 C 0.1041 0.31868 0.57348 0.0
C275 C 0.13668 0.34464 0.58963 0.0
C276 C 0.11953 0.35975 0.60145 0.0
C277 C 0.09452 0.35434 0.59864 0.0
C278 C 0.08691 0.33402 0.58494 0.0
C279 C 0.12783 0.3805 0.61725 0.0
C280 C 0.14863 0.3943 0.61084 0.0
C281 C 0.15796 0.41259 0.62651 0.0
C282 C 0.14558 0.41756 0.64854 0.0
C283 C 0.12425 0.4046 0.65488 0.0
C284 C 0.11561 0.38603 0.63925 0.0
C285 C 0.11112 0.41032 0.67799 0.0
C286 C 0.12401 0.41309 0.70007 0.0
C287 C 0.08562 0.41342 0.67804 0.0
C288 C 0.07334 0.4196 0.69965 0.0
C289 C 0.08626 0.42249 0.72171 0.0
C290 C 0.18085 0.42605 0.61998 0.0
C291 C 0.19993 0.41394 0.60768 0.0
C292 C 0.18392 0.451 0.6259 0.0
C293 C 0.20543 0.46345 0.61952 0.0
C294 C 0.22408 0.45135 0.60674 0.0
C295 C 0.22116 0.42649 0.60095 0.0
C296 C 0.1117 0.41899 0.72172 0.0
H297 H 0.14284 0.31337 0.56691 0.0
H298 H 0.15611 0.34798 0.59158 0.0
H299 H 0.08075 0.36572 0.60714 0.0
H300 H 0.06753 0.33001 0.58393 0.0
H301 H 0.15748 0.3909 0.59342 0.0
H302 H 0.09979 0.37534 0.64472 0.0
H303 H 0.15253 0.43148 0.66089 0.0
H304 H 0.14364 0.41061 0.70061 0.0
H305 H 0.07525 0.41152 0.66125 0.0
H306 H 0.05371 0.42206 0.69914 0.0
H307 H 0.19863 0.39464 0.60338 0.0
H308 H 0.16956 0.46106 0.63506 0.0
H309 H 0.12216 0.42132 0.7384 0.0
H310 H 0.23546 0.41668 0.59139 0.0
H311 H 0.20726 0.48268 0.62405 0.0
Zn312 Zn 0.98067 0.05009 0.55162 0.0
Zn313 Zn 0.04252 0.99737 0.49456 0.0
Zn314 Zn 0.01247 0.02421 0.52317 0.0
C315 C 0.0501 0.04733 0.48399 0.0
C316 C 0.99509 0.98244 0.48424 0.0
O317 O 0.01701 0.01261 0.56159 0.0
O318 O 0.99204 0.03613 0.58326 0.0
C319 C 0.01114 0.08337 0.52669 0.0
O320 O 0.03577 0.04999 0.50254 0.0
O321 O 0.05471 0.0263 0.47556 0.0
O322 O 0.01683 0.97574 0.48057 0.0
O323 O 0.99044 0.00089 0.49822 0.0
O324 O 0.99281 0.08272 0.54077 0.0
O325 O 0.02092 0.06346 0.51877 0.0
O326 O 0.97448 0.01671 0.51061 0.0
O327 O 0.95036 0.03682 0.53631 0.0
C328 C 0.95298 0.02294 0.51799 0.0
O329 O 0.03584 0.00211 0.54764 0.0
O330 O 0.06195 0.98431 0.5223 0.0
C331 C 0.00772 0.01929 0.58224 0.0
C332 C 0.05463 0.98847 0.54386 0.0
Zn333 Zn 0.4918 0.03514 0.00085 0.0
Zn334 Zn 0.55644 0.98664 0.05587 0.0
Zn335 Zn 0.52413 0.01308 0.02989 0.0
C336 C 0.58283 0.01296 0.02068 0.0
C337 C 0.52495 0.9533 0.03413 0.0
O338 O 0.50174 0.03597 0.05467 0.0
O339 O 0.47267 0.04781 0.02917 0.0
C340 C 0.53843 0.0532 0.98875 0.0
O341 O 0.56119 0.02006 0.0148 0.0
O342 O 0.58603 0.99904 0.03875 0.0
O343 O 0.5441 0.95347 0.04701 0.0
O344 O 0.51556 0.97354 0.02669 0.0
O345 O 0.51607 0.05648 0.98406 0.0
O346 O 0.54486 0.03699 0.00451 0.0
O347 O 0.50059 0.98598 0.01024 0.0
O348 O 0.47839 0.00638 0.98334 0.0
C349 C 0.4849 0.98639 0.99264 0.0
O350 O 0.521 0.02536 0.06858 0.0
O351 O 0.54693 0.00108 0.08786 0.0
C352 C 0.48129 0.04682 0.05059 0.0
C353 C 0.53149 0.01816 0.0884 0.0
Zn354 Zn 0.54307 0.54583 0.52893 0.0
Zn355 Zn 0.48151 0.48456 0.48012 0.0
Zn356 Zn 0.51092 0.51543 0.50486 0.0
C357 C 0.51198 0.45601 0.50869 0.0
C358 C 0.50739 0.51142 0.44556 0.0
O359 O 0.48881 0.53971 0.52822 0.0
O360 O 0.51633 0.56261 0.54748 0.0
C361 C 0.55411 0.49751 0.54172 0.0
O362 O 0.52113 0.47728 0.51343 0.0
O363 O 0.4932 0.4539 0.49543 0.0
O364 O 0.49335 0.49306 0.44674 0.0
O365 O 0.51493 0.52213 0.46523 0.0
O366 O 0.56163 0.51915 0.54507 0.0
O367 O 0.53574 0.49317 0.52756 0.0
O368 O 0.53164 0.53726 0.47761 0.0
O369 O 0.55707 0.56093 0.49875 0.0
C370 C 0.54862 0.55367 0.47848 0.0
O371 O 0.473 0.52254 0.51702 0.0
O372 O 0.45066 0.49916 0.49246 0.0
C373 C 0.49426 0.55684 0.54355 0.0
C374 C 0.45202 0.51471 0.50958 0.0
Zn375 Zn 0.05465 0.55039 0.97745 0.0
Zn376 Zn 0.00128 0.50027 0.04288 0.0
Zn377 Zn 0.02796 0.52541 0.00953 0.0
C378 C 0.05023 0.48736 0.04903 0.0
C379 C 0.98474 0.48795 0.99555 0.0
O380 O 0.01905 0.56469 0.01331 0.0
O381 O 0.0459 0.58352 0.98946 0.0
C382 C 0.08723 0.52482 0.00647 0.0
O383 O 0.05312 0.50481 0.0335 0.0
O384 O 0.02909 0.48019 0.05504 0.0
O385 O 0.97854 0.48643 0.01777 0.0
O386 O 0.00372 0.50042 0.98916 0.0
O387 O 0.08698 0.53683 0.9868 0.0
O388 O 0.06712 0.51969 0.01772 0.0
O389 O 0.01944 0.51164 0.97198 0.0
O390 O 0.03854 0.53765 0.94744 0.0
C391 C 0.0247 0.51933 0.95029 0.0
O392 O 0.00558 0.55153 0.031 0.0
O393 O 0.9905 0.52966 0.06168 0.0
C394 C 0.0285 0.5845 0.00464 0.0
C395 C 0.99333 0.54997 0.05112 0.0
H396 H 0.18437 0.20263 0.36359 0.0
H397 H 0.16235 0.18316 0.39745 0.0
H398 H 0.11122 0.15143 0.34618 0.0
H399 H 0.13317 0.17058 0.31233 0.0
H400 H 0.088 0.16911 0.38655 0.0
H401 H 0.15867 0.11831 0.3691 0.0
H402 H 0.20282 0.11056 0.36448 0.0
H403 H 0.2149 0.13317 0.43889 0.0
H404 H 0.17082 0.14135 0.44384 0.0
H405 H 0.04004 0.06173 0.438 0.0
H406 H 0.05981 0.09453 0.41479 0.0
H407 H 0.10358 0.11327 0.4779 0.0
H408 H 0.08416 0.07977 0.50089 0.0
H409 H 0.13131 0.10868 0.438 0.0
H410 H 0.05982 0.15375 0.45753 0.0
H411 H 0.01575 0.16188 0.46221 0.0
H412 H 0.00501 0.15035 0.38522 0.0
H413 H 0.04901 0.14219 0.37997 0.0
C414 C 0.16848 0.19145 0.35952 0.0
C415 C 0.1606 0.18811 0.3352 0.0
C416 C 0.15586 0.18041 0.37891 0.0
C417 C 0.13523 0.1657 0.37434 0.0
C418 C 0.12701 0.16281 0.35017 0.0
C419 C 0.13957 0.17383 0.33081 0.0
C420 C 0.12263 0.1524 0.39445 0.0
C421 C 0.09743 0.15583 0.39777 0.0
C422 C 0.13509 0.13572 0.4097 0.0
C423 C 0.16153 0.1307 0.40675 0.0
C424 C 0.17078 0.1218 0.38441 0.0
C425 C 0.19578 0.1173 0.38175 0.0
C426 C 0.21167 0.12144 0.40136 0.0
C427 C 0.20258 0.13002 0.42371 0.0
C428 C 0.17759 0.13458 0.42646 0.0
C429 C 0.05357 0.07319 0.44698 0.0
C430 C 0.06026 0.06875 0.47131 0.0
C431 C 0.06475 0.092 0.4338 0.0
C432 C 0.08291 0.10669 0.44471 0.0
C433 C 0.08943 0.10237 0.4692 0.0
C434 C 0.0782 0.08347 0.48239 0.0
C435 C 0.09648 0.12483 0.42963 0.0
C436 C 0.1219 0.12232 0.42722 0.0
C437 C 0.08422 0.14243 0.4153 0.0
C438 C 0.05771 0.14723 0.41838 0.0
C439 C 0.04805 0.15279 0.44161 0.0
C440 C 0.02309 0.15743 0.44437 0.0
C441 C 0.00759 0.1565 0.42408 0.0
C442 C 0.01703 0.15105 0.40093 0.0
C443 C 0.042 0.14651 0.39803 0.0
H444 H 0.98826 0.16008 0.42629 0.0
H445 H 0.23102 0.11794 0.39926 0.0
H446 H 0.40981 0.86407 0.81974 0.0
H447 H 0.43046 0.8792 0.85631 0.0
H448 H 0.36741 0.86067 0.89999 0.0
H449 H 0.3469 0.84424 0.86367 0.0
H450 H 0.38404 0.90982 0.90468 0.0
H451 H 0.41552 0.82895 0.90866 0.0
H452 H 0.43537 0.79164 0.89311 0.0
H453 H 0.50143 0.83211 0.87947 0.0
H454 H 0.4818 0.86984 0.89434 0.0
H455 H 0.44289 0.96314 0.00534 0.0
H456 H 0.42253 0.93006 0.98259 0.0
H457 H 0.48333 0.92761 0.93213 0.0
H458 H 0.50414 0.95971 0.95575 0.0
H459 H 0.46471 0.88352 0.93626 0.0
H460 H 0.43179 0.96434 0.92245 0.0
H461 H 0.41292 0.00333 0.93492 0.0
H462 H 0.35094 0.96443 0.96382 0.0
H463 H 0.36962 0.92517 0.95177 0.0
C464 C 0.40046 0.86253 0.83714 0.0
C465 C 0.37657 0.85286 0.83859 0.0
C466 C 0.41233 0.87131 0.85806 0.0
C467 C 0.40053 0.87089 0.88085 0.0
C468 C 0.37684 0.86109 0.88254 0.0
C469 C 0.36506 0.85194 0.86167 0.0
C470 C 0.41224 0.88264 0.90237 0.0
C471 C 0.4014 0.90374 0.91201 0.0
C472 C 0.43518 0.875 0.91143 0.0
C473 C 0.44708 0.85232 0.90243 0.0
C474 C 0.43419 0.82998 0.90208 0.0
C475 C 0.44541 0.80874 0.89339 0.0
C476 C 0.46963 0.80951 0.88528 0.0
C477 C 0.48266 0.83154 0.88577 0.0
C478 C 0.47149 0.85287 0.89431 0.0
C479 C 0.45213 0.95489 0.98984 0.0
C480 C 0.47501 0.96368 0.98222 0.0
C481 C 0.44047 0.93616 0.97676 0.0
C482 C 0.45111 0.92674 0.95526 0.0
C483 C 0.47471 0.93457 0.9486 0.0
C484 C 0.48657 0.95292 0.962 0.0
C485 C 0.43675 0.91104 0.93818 0.0
C486 C 0.4471 0.88928 0.9293 0.0
C487 C 0.41352 0.91828 0.9294 0.0
C488 C 0.40221 0.94185 0.93649 0.0
C489 C 0.4142 0.96411 0.9316 0.0
C490 C 0.40354 0.98625 0.93857 0.0
C491 C 0.38078 0.98635 0.95022 0.0
C492 C 0.36859 0.96431 0.95485 0.0
C493 C 0.3792 0.94212 0.94795 0.0
H494 H 0.37255 0.0035 0.95561 0.0
H495 H 0.47831 0.79302 0.87865 0.0
H496 H 0.62595 0.34461 0.70575 0.0
H497 H 0.60594 0.36349 0.67043 0.0
H498 H 0.67033 0.40758 0.65763 0.0
H499 H 0.69019 0.38903 0.69293 0.0
H500 H 0.63081 0.43495 0.6598 0.0
H501 H 0.65264 0.35914 0.62037 0.0
H502 H 0.65305 0.31427 0.61601 0.0
H503 H 0.57494 0.31337 0.60851 0.0
H504 H 0.57395 0.35817 0.61353 0.0
H505 H 0.60246 0.49313 0.5512 0.0
H506 H 0.62209 0.4635 0.57808 0.0
H507 H 0.55259 0.42779 0.59 0.0
H508 H 0.53281 0.45761 0.56311 0.0
H509 H 0.59234 0.39462 0.58787 0.0
H510 H 0.56947 0.46817 0.62991 0.0
H511 H 0.56715 0.51277 0.63618 0.0
H512 H 0.64547 0.51719 0.6397 0.0
H513 H 0.64827 0.47263 0.63307 0.0
C514 C 0.63595 0.35803 0.69511 0.0
C515 C 0.65954 0.36554 0.70222 0.0
C516 C 0.62452 0.36876 0.67491 0.0
C517 C 0.63665 0.38693 0.66133 0.0
C518 C 0.66056 0.39369 0.66789 0.0
C519 C 0.67187 0.38315 0.68811 0.0
C520 C 0.62392 0.40054 0.64165 0.0
C521 C 0.62275 0.42607 0.64392 0.0
C522 C 0.61252 0.38892 0.62136 0.0
C523 C 0.61319 0.36202 0.61778 0.0
C524 C 0.63551 0.34937 0.61811 0.0
C525 C 0.63584 0.32393 0.61556 0.0
C526 C 0.61401 0.31096 0.61229 0.0
C527 C 0.59182 0.32342 0.61127 0.0
C528 C 0.59136 0.34884 0.614 0.0
C529 C 0.59146 0.47869 0.55922 0.0
C530 C 0.56617 0.47754 0.55504 0.0
C531 C 0.60268 0.46176 0.57449 0.0
C532 C 0.58874 0.44364 0.58623 0.0
C533 C 0.56368 0.44159 0.58105 0.0
C534 C 0.55242 0.45857 0.56567 0.0
C535 C 0.59991 0.42888 0.60593 0.0
C536 C 0.60056 0.40331 0.60376 0.0
C537 C 0.6107 0.44032 0.62655 0.0
C538 C 0.60908 0.4671 0.63077 0.0
C539 C 0.5862 0.47868 0.63184 0.0
C540 C 0.5848 0.50394 0.63548 0.0
C541 C 0.60615 0.51781 0.63827 0.0
C542 C 0.62895 0.50642 0.6375 0.0
C543 C 0.63045 0.48116 0.63382 0.0
H544 H 0.60503 0.53737 0.64109 0.0
H545 H 0.61431 0.29127 0.61029 0.0
H546 H 0.90667 0.67645 0.21708 0.0
H547 H 0.92927 0.65937 0.18268 0.0
H548 H 0.87063 0.67834 0.13383 0.0
H549 H 0.84824 0.69681 0.16796 0.0
H550 H 0.88569 0.6284 0.13173 0.0
H551 H 0.91979 0.70809 0.12685 0.0
H552 H 0.93946 0.7461 0.14135 0.0
H553 H 0.00305 0.7058 0.16268 0.0
H554 H 0.98363 0.66745 0.14865 0.0
H555 H 0.95276 0.57362 0.03575 0.0
H556 H 0.93075 0.60621 0.05739 0.0
H557 H 0.98537 0.60569 0.11434 0.0
H558 H 0.00777 0.57377 0.09216 0.0
H559 H 0.96975 0.65166 0.10627 0.0
H560 H 0.93258 0.57198 0.11901 0.0
H561 H 0.91324 0.53333 0.10562 0.0
H562 H 0.8556 0.57344 0.07106 0.0
H563 H 0.8748 0.61235 0.084 0.0
C564 C 0.89872 0.67769 0.19899 0.0
C565 C 0.8755 0.68814 0.19547 0.0
C566 C 0.9117 0.66776 0.17932 0.0
C567 C 0.90169 0.66773 0.15571 0.0
C568 C 0.87867 0.67822 0.15195 0.0
C569 C 0.86581 0.68856 0.17157 0.0
C570 C 0.9146 0.655 0.13552 0.0
C571 C 0.90384 0.6338 0.12573 0.0
C572 C 0.93846 0.66183 0.12808 0.0
C573 C 0.95015 0.68483 0.13682 0.0
C574 C 0.93788 0.70727 0.13483 0.0
C575 C 0.94901 0.7289 0.14292 0.0
C576 C 0.97248 0.72837 0.15294 0.0
C577 C 0.98487 0.70619 0.1549 0.0
C578 C 0.97381 0.6845 0.14685 0.0
C579 C 0.96036 0.58109 0.0525 0.0
C580 C 0.98208 0.57169 0.06217 0.0
C581 C 0.94772 0.59951 0.06495 0.0
C582 C 0.95626 0.60822 0.08765 0.0
C583 C 0.97849 0.59936 0.09683 0.0
C584 C 0.99122 0.58112 0.08424 0.0
C585 C 0.94108 0.62473 0.103 0.0
C586 C 0.95141 0.64656 0.11193 0.0
C587 C 0.91687 0.6184 0.10986 0.0
C588 C 0.90526 0.59504 0.10221 0.0
C589 C 0.91587 0.57254 0.10841 0.0
C590 C 0.90493 0.5506 0.10092 0.0
C591 C 0.88325 0.55093 0.08743 0.0
C592 C 0.87242 0.57321 0.08146 0.0
C593 C 0.88332 0.59521 0.08887 0.0
H594 H 0.8748 0.53393 0.08166 0.0
H595 H 0.98108 0.74514 0.15917 0.0
H596 H 0.30255 0.14018 0.15907 0.0
H597 H 0.33547 0.11619 0.14085 0.0
H598 H 0.3883 0.15525 0.18489 0.0
H599 H 0.35536 0.17972 0.20292 0.0
H600 H 0.40251 0.1523 0.13728 0.0
H601 H 0.37513 0.09682 0.19842 0.0
H602 H 0.34529 0.07276 0.22229 0.0
H603 H 0.32401 0.03368 0.15732 0.0
H604 H 0.35349 0.05775 0.13298 0.0
H605 H 0.49582 0.07632 0.08859 0.0
H606 H 0.46967 0.0954 0.11981 0.0
H607 H 0.40637 0.06166 0.08641 0.0
H608 H 0.43269 0.04145 0.05656 0.0
H609 H 0.40138 0.06161 0.13451 0.0
H610 H 0.42535 0.1212 0.07298 0.0
H611 H 0.4554 0.14531 0.04937 0.0
H612 H 0.48344 0.17656 0.11597 0.0
H613 H 0.45369 0.15244 0.13997 0.0
C614 C 0.32117 0.14371 0.16486 0.0
C615 C 0.32635 0.16191 0.18238 0.0
C616 C 0.33995 0.12981 0.15461 0.0
C617 C 0.36433 0.13377 0.16168 0.0
C618 C 0.3696 0.15184 0.17925 0.0
C619 C 0.35076 0.16568 0.18964 0.0
C620 C 0.38427 0.11967 0.14984 0.0
C621 C 0.40253 0.13246 0.13706 0.0
C622 C 0.38414 0.09379 0.1493 0.0
C623 C 0.36638 0.07925 0.16384 0.0
C624 C 0.36394 0.08324 0.18918 0.0
C625 C 0.34712 0.06957 0.2028 0.0
C626 C 0.33272 0.05174 0.19132 0.0
C627 C 0.33516 0.04751 0.16619 0.0
C628 C 0.35195 0.06114 0.15248 0.0
C629 C 0.47654 0.07213 0.08879 0.0
C630 C 0.46638 0.05697 0.07068 0.0
C631 C 0.46149 0.08345 0.10621 0.0
C632 C 0.43596 0.08019 0.10528 0.0
C633 C 0.42596 0.06443 0.08757 0.0
C634 C 0.441 0.05301 0.07043 0.0
C635 C 0.41926 0.09424 0.12147 0.0
C636 C 0.40152 0.08144 0.13499 0.0
C637 C 0.41988 0.12012 0.12271 0.0
C638 C 0.43752 0.13482 0.10827 0.0
C639 C 0.43803 0.13311 0.08258 0.0
C640 C 0.45498 0.14679 0.06913 0.0
C641 C 0.47137 0.1624 0.08117 0.0
C642 C 0.47077 0.16443 0.10667 0.0
C643 C 0.45387 0.15077 0.12021 0.0
H644 H 0.48449 0.17297 0.07072 0.0
H645 H 0.31971 0.04117 0.2019 0.0
H646 H 0.21444 0.91469 0.7058 0.0
H647 H 0.1814 0.93802 0.68669 0.0
H648 H 0.17976 0.88662 0.62659 0.0
H649 H 0.2125 0.86332 0.64551 0.0
H650 H 0.18186 0.93246 0.61039 0.0
H651 H 0.1354 0.8881 0.67132 0.0
H652 H 0.12366 0.87528 0.71296 0.0
H653 H 0.10918 0.94992 0.73257 0.0
H654 H 0.12121 0.96324 0.69114 0.0
H655 H 0.07674 0.94449 0.54456 0.0
H656 H 0.10569 0.92934 0.5747 0.0
H657 H 0.09407 0.99355 0.61924 0.0
H658 H 0.06475 0.00887 0.58884 0.0
H659 H 0.1011 0.95101 0.64723 0.0
H660 H 0.14224 0.99373 0.5843 0.0
H661 H 0.15201 0.00596 0.542 0.0
H662 H 0.17515 0.93283 0.52546 0.0
H663 H 0.16514 0.92005 0.56757 0.0
C664 C 0.2068 0.90823 0.68866 0.0
C665 C 0.21627 0.88728 0.67705 0.0
C666 C 0.18793 0.92158 0.67777 0.0
C667 C 0.1781 0.91409 0.65518 0.0
C668 C 0.18719 0.89288 0.64391 0.0
C669 C 0.20599 0.87963 0.65471 0.0
C670 C 0.15916 0.92866 0.64243 0.0
C671 C 0.16408 0.93619 0.61838 0.0
C672 C 0.13638 0.93465 0.65323 0.0
C673 C 0.12962 0.92671 0.67827 0.0
C674 C 0.13004 0.90182 0.68461 0.0
C675 C 0.12325 0.89445 0.70815 0.0
C676 C 0.11579 0.91178 0.72544 0.0
C677 C 0.11505 0.93652 0.7192 0.0
C678 C 0.12187 0.94399 0.6957 0.0
C679 C 0.08002 0.95521 0.56097 0.0
C680 C 0.06858 0.97789 0.56434 0.0
C681 C 0.09661 0.94658 0.57815 0.0
C682 C 0.10252 0.96062 0.59889 0.0
C683 C 0.0899 0.98253 0.60325 0.0
C684 C 0.07305 0.99117 0.586 0.0
C685 C 0.12314 0.95283 0.61464 0.0
C686 C 0.11882 0.94712 0.63928 0.0
C687 C 0.14646 0.94827 0.6044 0.0
C688 C 0.15281 0.95591 0.57909 0.0
C689 C 0.14927 0.98021 0.57161 0.0
C690 C 0.15486 0.98725 0.54766 0.0
C691 C 0.16417 0.97017 0.53104 0.0
C692 C 0.16794 0.94604 0.53836 0.0
C693 C 0.16235 0.9389 0.56228 0.0
H694 H 0.16848 0.97565 0.51251 0.0
H695 H 0.1105 0.90604 0.74364 0.0
H696 H 0.84883 0.35675 0.85082 0.0
H697 H 0.88315 0.37701 0.87145 0.0
H698 H 0.83436 0.4324 0.89902 0.0
H699 H 0.80002 0.41223 0.87863 0.0
H700 H 0.87614 0.45259 0.88336 0.0
H701 H 0.85242 0.38599 0.93466 0.0
H702 H 0.84306 0.34311 0.94497 0.0
H703 H 0.91672 0.32274 0.9273 0.0
H704 H 0.92643 0.36543 0.91659 0.0
H705 H 0.93692 0.49707 0.98902 0.0
H706 H 0.90894 0.47737 0.95995 0.0
H707 H 0.96825 0.43354 0.93211 0.0
H708 H 0.99627 0.45327 0.96147 0.0
H709 H 0.925 0.40683 0.94423 0.0
H710 H 0.94879 0.47725 0.89848 0.0
H711 H 0.9559 0.52101 0.89061 0.0
H712 H 0.87967 0.53553 0.90178 0.0
H713 H 0.87203 0.49185 0.90993 0.0
C714 C 0.84541 0.3732 0.86134 0.0
C715 C 0.82166 0.38282 0.86314 0.0
C716 C 0.86504 0.3848 0.87306 0.0
C717 C 0.86128 0.40612 0.88694 0.0
C718 C 0.83771 0.41604 0.88831 0.0
C719 C 0.8181 0.4045 0.87659 0.0
C720 C 0.88167 0.41776 0.9007 0.0
C721 C 0.88671 0.44264 0.89681 0.0
C722 C 0.89577 0.40462 0.9179 0.0
C723 C 0.89004 0.37888 0.92439 0.0
C724 C 0.86656 0.37233 0.93271 0.0
C725 C 0.8612 0.34805 0.93869 0.0
C726 C 0.87925 0.33018 0.93668 0.0
C727 C 0.90273 0.33658 0.92877 0.0
C728 C 0.90816 0.36083 0.92273 0.0
C729 C 0.94396 0.48341 0.97647 0.0
C730 C 0.96872 0.47692 0.97698 0.0
C731 C 0.92805 0.47225 0.95989 0.0
C732 C 0.9366 0.4542 0.94373 0.0
C733 C 0.96138 0.44759 0.94428 0.0
C734 C 0.97739 0.45901 0.96077 0.0
C735 C 0.9192 0.4417 0.92711 0.0
C736 C 0.91466 0.41668 0.93054 0.0
C737 C 0.90525 0.45484 0.90984 0.0
C738 C 0.90984 0.48118 0.90492 0.0
C739 C 0.93353 0.48973 0.89938 0.0
C740 C 0.93766 0.51455 0.89486 0.0
C741 C 0.91827 0.53104 0.89574 0.0
C742 C 0.89468 0.52273 0.9011 0.0
C743 C 0.89042 0.49793 0.90562 0.0
H744 H 0.92153 0.55025 0.89224 0.0
H745 H 0.87508 0.3114 0.94133 0.0
H746 H 0.67695 0.68577 0.32989 0.0
H747 H 0.64173 0.66378 0.34719 0.0
H748 H 0.69038 0.61123 0.37953 0.0
H749 H 0.7256 0.63319 0.36243 0.0
H750 H 0.64772 0.59023 0.35671 0.0
H751 H 0.67046 0.65464 0.41419 0.0
H752 H 0.67856 0.69751 0.42592 0.0
H753 H 0.60568 0.71706 0.40477 0.0
H754 H 0.59727 0.67432 0.39258 0.0
H755 H 0.58978 0.53641 0.45796 0.0
H756 H 0.61416 0.55554 0.42574 0.0
H757 H 0.55854 0.61048 0.41651 0.0
H758 H 0.53463 0.5917 0.4497 0.0
H759 H 0.59964 0.63193 0.42147 0.0
H760 H 0.5743 0.56822 0.368 0.0
H761 H 0.56527 0.52653 0.35299 0.0
H762 H 0.64 0.50611 0.36447 0.0
H763 H 0.64961 0.54783 0.379 0.0
C764 C 0.68007 0.66937 0.34046 0.0
C765 C 0.704 0.66125 0.34495 0.0
C766 C 0.65998 0.65688 0.35037 0.0
C767 C 0.66349 0.63594 0.36469 0.0
C768 C 0.6873 0.62733 0.36849 0.0
C769 C 0.70738 0.63998 0.35888 0.0
C770 C 0.64256 0.62365 0.37691 0.0
C771 C 0.63721 0.59924 0.37095 0.0
C772 C 0.62831 0.63574 0.3948 0.0
C773 C 0.63334 0.66138 0.4022 0.0
C774 C 0.65624 0.66813 0.41184 0.0
C775 C 0.66087 0.69239 0.41861 0.0
C776 C 0.64267 0.71002 0.41602 0.0
C777 C 0.61977 0.7034 0.40672 0.0
C778 C 0.61506 0.67917 0.39988 0.0
C779 C 0.58254 0.55219 0.44854 0.0
C780 C 0.56033 0.5625 0.45595 0.0
C781 C 0.59638 0.56306 0.42999 0.0
C782 C 0.58815 0.58437 0.41835 0.0
C783 C 0.56529 0.59404 0.42511 0.0
C784 C 0.55157 0.58327 0.44392 0.0
C785 C 0.60486 0.59811 0.4017 0.0
C786 C 0.60962 0.62288 0.40688 0.0
C787 C 0.61833 0.5864 0.38286 0.0
C788 C 0.6126 0.56111 0.37472 0.0
C789 C 0.58874 0.55478 0.36746 0.0
C790 C 0.58353 0.53117 0.359 0.0
C791 C 0.60196 0.51362 0.35802 0.0
C792 C 0.62572 0.51971 0.36528 0.0
C793 C 0.63109 0.54339 0.37348 0.0
H794 H 0.59786 0.49533 0.35151 0.0
H795 H 0.64629 0.72879 0.42128 0.0
H796 H 0.20535 0.36535 0.18071 0.0
H797 H 0.18879 0.39948 0.15697 0.0
H798 H 0.14506 0.34879 0.1148 0.0
H799 H 0.16163 0.3147 0.13827 0.0
H800 H 0.16732 0.38518 0.08607 0.0
H801 H 0.11998 0.37844 0.16185 0.0
H802 H 0.11571 0.37825 0.20682 0.0
H803 H 0.14718 0.45027 0.21071 0.0
H804 H 0.15191 0.45074 0.16575 0.0
H805 H 0.062 0.44028 0.04089 0.0
H806 H 0.0945 0.41678 0.06029 0.0
H807 H 0.11823 0.48141 0.09943 0.0
H808 H 0.08476 0.50462 0.08071 0.0
H809 H 0.11459 0.44476 0.12961 0.0
H810 H 0.15507 0.45543 0.05393 0.0
H811 H 0.16048 0.45649 0.00911 0.0
H812 H 0.14437 0.37974 0.00455 0.0
H813 H 0.13874 0.37813 0.04931 0.0
C814 C 0.19242 0.3615 0.16618 0.0
C815 C 0.18462 0.33738 0.16147 0.0
C816 C 0.18293 0.381 0.15271 0.0
C817 C 0.1656 0.37666 0.13422 0.0
C818 C 0.15843 0.35253 0.12897 0.0
C819 C 0.16773 0.33311 0.14254 0.0
C820 C 0.15377 0.39714 0.1211 0.0
C821 C 0.15576 0.39823 0.09552 0.0
C822 C 0.13952 0.41476 0.13356 0.0
C823 C 0.13655 0.41451 0.16051 0.0
C824 C 0.12615 0.39415 0.17232 0.0
C825 C 0.12362 0.394 0.1978 0.0
C826 C 0.13124 0.4142 0.21162 0.0
C827 C 0.14133 0.43462 0.19998 0.0
C828 C 0.14393 0.43484 0.17452 0.0
C829 C 0.07446 0.44949 0.05333 0.0
C830 C 0.07145 0.47431 0.05889 0.0
C831 C 0.09314 0.43615 0.06427 0.0
C832 C 0.10922 0.44741 0.08097 0.0
C833 C 0.10629 0.47239 0.08638 0.0
C834 C 0.08742 0.4857 0.0755 0.0
C835 C 0.12736 0.43234 0.09434 0.0
C836 C 0.1266 0.43221 0.12004 0.0
C837 C 0.143 0.41583 0.08198 0.0
C838 C 0.14637 0.41668 0.05501 0.0
C839 C 0.15253 0.43879 0.04337 0.0
C840 C 0.15565 0.43949 0.01798 0.0
C841 C 0.15268 0.41824 0.004 0.0
C842 C 0.14666 0.39619 0.0154 0.0
C843 C 0.14358 0.39535 0.04079 0.0
H844 H 0.15509 0.41886 0.98434 0.0
H845 H 0.12926 0.41406 0.23134 0.0
H846 H 0.62929 0.21972 0.85807 0.0
H847 H 0.60976 0.18715 0.88156 0.0
H848 H 0.66388 0.19579 0.93839 0.0
H849 H 0.68368 0.22838 0.91478 0.0
H850 H 0.65624 0.14886 0.92935 0.0
H851 H 0.6055 0.2168 0.94663 0.0
H852 H 0.58034 0.25297 0.93784 0.0
H853 H 0.53026 0.20837 0.89656 0.0
H854 H 0.55531 0.17196 0.9048 0.0
H855 H 0.58243 0.06954 0.00686 0.0
H856 H 0.60826 0.10208 0.9897 0.0
H857 H 0.56093 0.10578 0.92666 0.0
H858 H 0.53492 0.07395 0.94398 0.0
H859 H 0.56696 0.14939 0.94514 0.0
H860 H 0.62153 0.08196 0.92573 0.0
H861 H 0.64834 0.04718 0.93447 0.0
H862 H 0.69188 0.09224 0.98222 0.0
H863 H 0.66504 0.12736 0.97391 0.0
C864 C 0.6369 0.21487 0.87568 0.0
C865 C 0.65794 0.22673 0.88463 0.0
C866 C 0.62571 0.19624 0.88911 0.0
C867 C 0.63511 0.18928 0.91195 0.0
C868 C 0.65627 0.2009 0.92085 0.0
C869 C 0.66758 0.21947 0.90732 0.0
C870 C 0.62299 0.1695 0.92616 0.0
C871 C 0.63677 0.14914 0.9332 0.0
C872 C 0.59761 0.16982 0.93114 0.0
C873 C 0.5824 0.19167 0.92619 0.0
C874 C 0.58922 0.21472 0.93553 0.0
C875 C 0.57496 0.23527 0.93067 0.0
C876 C 0.55374 0.23298 0.91661 0.0
C877 C 0.54671 0.21012 0.90743 0.0
C878 C 0.56092 0.18951 0.91222 0.0
C879 C 0.57795 0.07691 0.98909 0.0
C880 C 0.55664 0.0693 0.9768 0.0
C881 C 0.59268 0.09556 0.97929 0.0
C882 C 0.58648 0.10654 0.9569 0.0
C883 C 0.56596 0.09785 0.94407 0.0
C884 C 0.55116 0.07956 0.95395 0.0
C885 C 0.59999 0.1282 0.94735 0.0
C886 C 0.58646 0.14913 0.94145 0.0
C887 C 0.62562 0.12848 0.94371 0.0
C888 C 0.64115 0.10718 0.94939 0.0
C889 C 0.63665 0.08437 0.93832 0.0
C890 C 0.65193 0.06461 0.94314 0.0
C891 C 0.67189 0.06747 0.95889 0.0
C892 C 0.67645 0.09006 0.97001 0.0
C893 C 0.66121 0.1099 0.96524 0.0
H894 H 0.68391 0.05228 0.96244 0.0
H895 H 0.54272 0.24891 0.91287 0.0
H896 H 0.83684 0.85801 0.35591 0.0
H897 H 0.85625 0.8915 0.37891 0.0
H898 H 0.8981 0.83914 0.41996 0.0
H899 H 0.87867 0.80569 0.39722 0.0
H900 H 0.87988 0.87664 0.44919 0.0
H901 H 0.92383 0.86676 0.3725 0.0
H902 H 0.92706 0.86494 0.32748 0.0
H903 H 0.89935 0.93806 0.32244 0.0
H904 H 0.89564 0.94015 0.3674 0.0
H905 H 0.9898 0.93344 0.48633 0.0
H906 H 0.95799 0.90824 0.46712 0.0
H907 H 0.92444 0.97315 0.43814 0.0
H908 H 0.95642 0.9984 0.45734 0.0
H909 H 0.93272 0.93446 0.40308 0.0
H910 H 0.89473 0.94642 0.48091 0.0
H911 H 0.89272 0.94769 0.52603 0.0
H912 H 0.90932 0.87117 0.52912 0.0
H913 H 0.91175 0.86943 0.48405 0.0
C914 C 0.84992 0.85367 0.37008 0.0
C915 C 0.85639 0.82926 0.37465 0.0
C916 C 0.86106 0.87279 0.38311 0.0
C917 C 0.87873 0.86779 0.40101 0.0
C918 C 0.88451 0.8434 0.40622 0.0
C919 C 0.87356 0.82433 0.39309 0.0
C920 C 0.89227 0.88782 0.41349 0.0
C921 C 0.8914 0.88933 0.43913 0.0
C922 C 0.90687 0.9047 0.4003 0.0
C923 C 0.90922 0.90352 0.37329 0.0
C924 C 0.91825 0.88237 0.36177 0.0
C925 C 0.9202 0.8813 0.33627 0.0
C926 C 0.91335 0.90134 0.3221 0.0
C927 C 0.90461 0.92253 0.33343 0.0
C928 C 0.9026 0.92368 0.35893 0.0
C929 C 0.97545 0.94229 0.47603 0.0
C930 C 0.97515 0.96781 0.47357 0.0
C931 C 0.95728 0.92794 0.46517 0.0
C932 C 0.93869 0.93885 0.4514 0.0
C933 C 0.93843 0.96439 0.44885 0.0
C934 C 0.95649 0.97881 0.46001 0.0
C935 C 0.92047 0.92315 0.43879 0.0
C936 C 0.92072 0.92222 0.41313 0.0
C937 C 0.90519 0.90691 0.45196 0.0
C938 C 0.90356 0.90783 0.47908 0.0
C939 C 0.89812 0.9299 0.4912 0.0
C940 C 0.89688 0.9307 0.51677 0.0
C941 C 0.90094 0.90956 0.53041 0.0
C942 C 0.90619 0.88754 0.51852 0.0
C943 C 0.90745 0.88662 0.49297 0.0
H944 H 0.89998 0.91024 0.55019 0.0
H945 H 0.91487 0.90048 0.30236 0.0
H946 H 0.34006 0.71797 0.6262 0.0
H947 H 0.35962 0.68507 0.60274 0.0
H948 H 0.41021 0.67353 0.66203 0.0
H949 H 0.39078 0.70612 0.68551 0.0
H950 H 0.43324 0.67847 0.61832 0.0
H951 H 0.36278 0.63422 0.65 0.0
H952 H 0.31832 0.62873 0.65535 0.0
H953 H 0.30938 0.62211 0.57753 0.0
H954 H 0.35375 0.62807 0.57165 0.0
H955 H 0.49524 0.57273 0.59047 0.0
H956 H 0.46646 0.60021 0.61065 0.0
H957 H 0.42158 0.60054 0.54574 0.0
H958 H 0.45031 0.57246 0.52557 0.0
H959 H 0.39346 0.60261 0.58746 0.0
H960 H 0.46145 0.64595 0.55437 0.0
H961 H 0.50494 0.65483 0.54624 0.0
H962 H 0.51748 0.66585 0.62309 0.0
H963 H 0.47412 0.65666 0.63174 0.0
C964 C 0.35512 0.70815 0.63435 0.0
C965 C 0.364 0.7148 0.65764 0.0
C966 C 0.36628 0.68939 0.62092 0.0
C967 C 0.38636 0.67683 0.63065 0.0
C968 C 0.39484 0.68307 0.6541 0.0
C969 C 0.38377 0.70178 0.66747 0.0
C970 C 0.39957 0.65802 0.61617 0.0
C971 C 0.42457 0.66177 0.61183 0.0
C972 C 0.38802 0.63673 0.60673 0.0
C973 C 0.36154 0.63199 0.61037 0.0
C974 C 0.35132 0.63176 0.63401 0.0
C975 C 0.32614 0.62861 0.63714 0.0
C976 C 0.31102 0.6254 0.61677 0.0
C977 C 0.3211 0.62484 0.59326 0.0
C978 C 0.34627 0.62809 0.59003 0.0
C979 C 0.47903 0.57835 0.58065 0.0
C980 C 0.475 0.57059 0.55647 0.0
C981 C 0.46262 0.59406 0.59216 0.0
C982 C 0.44215 0.60285 0.57952 0.0
C983 C 0.4373 0.59405 0.5558 0.0
C984 C 0.45368 0.57803 0.54432 0.0
C985 C 0.4273 0.62275 0.59051 0.0
C986 C 0.40206 0.61934 0.59395 0.0
C987 C 0.43849 0.64466 0.59883 0.0
C988 C 0.46456 0.65043 0.59371 0.0
C989 C 0.47351 0.65011 0.56956 0.0
C990 C 0.49814 0.65521 0.56485 0.0
C991 C 0.51397 0.66086 0.58414 0.0
C992 C 0.50519 0.66146 0.60817 0.0
C993 C 0.48059 0.65633 0.61298 0.0
H994 H 0.53304 0.6648 0.58046 0.0
H995 H 0.2915 0.62322 0.61921 0.0
H996 H 0.99131 0.96369 0.8093 0.0
H997 H 0.00869 0.97637 0.76997 0.0
H998 H 0.96625 0.92061 0.73316 0.0
H999 H 0.94915 0.90766 0.7724 0.0
H1000 H 0.01039 0.92404 0.71281 0.0
H1001 H 0.94686 0.98032 0.73651 0.0
H1002 H 0.92643 0.00982 0.76389 0.0
H1003 H 0.98976 0.05653 0.76175 0.0
H1004 H 0.01069 0.02712 0.73459 0.0
H1005 H 0.99485 0.97291 0.59315 0.0
H1006 H 0.99448 0.95445 0.63382 0.0
H1007 H 0.03306 0.01738 0.66272 0.0
H1008 H 0.03146 0.03659 0.62231 0.0
H1009 H 0.99643 0.01017 0.68891 0.0
H1010 H 0.05614 0.95443 0.65639 0.0
H1011 H 0.07231 0.92416 0.62689 0.0
H1012 H 0.01334 0.87513 0.64377 0.0
H1013 H 0.99622 0.90523 0.67262 0.0
C1014 C 0.98578 0.9541 0.79282 0.0
C1015 C 0.96873 0.9348 0.79392 0.0
C1016 C 0.99576 0.9613 0.77037 0.0
C1017 C 0.98854 0.94964 0.74854 0.0
C1018 C 0.97217 0.92983 0.74973 0.0
C1019 C 0.96238 0.92247 0.77218 0.0
C1020 C 0.99666 0.95904 0.72433 0.0
C1021 C 0.00735 0.94286 0.70744 0.0
C1022 C 0.99304 0.98367 0.71753 0.0
C1023 C 0.98044 0.0014 0.73377 0.0
C1024 C 0.95649 0.9968 0.74203 0.0
C1025 C 0.94481 0.01351 0.75748 0.0
C1026 C 0.95682 0.035 0.76462 0.0
C1027 C 0.9805 0.03985 0.75625 0.0
C1028 C 0.99228 0.02318 0.74083 0.0
C1029 C 0.00383 0.98239 0.60813 0.0
C1030 C 0.0133 0.00601 0.6048 0.0
C1031 C 0.00377 0.9718 0.63138 0.0
C1032 C 0.01398 0.98433 0.65151 0.0
C1033 C 0.025 0.00731 0.64761 0.0
C1034 C 0.02426 0.01824 0.62454 0.0
C1035 C 0.01026 0.9752 0.67695 0.0
C1036 C 1.00017 0.99145 0.69418 0.0
C1037 C 0.01416 0.95051 0.68379 0.0
C1038 C 0.02484 0.93221 0.66669 0.0
C1039 C 0.04654 0.93725 0.65375 0.0
C1040 C 0.05588 0.92014 0.63713 0.0
C1041 C 0.04396 0.89777 0.63358 0.0
C1042 C 0.0226 0.89245 0.64657 0.0
C1043 C 0.01304 0.90955 0.66303 0.0
H1044 H 0.05126 0.88457 0.62073 0.0
H1045 H 0.94775 0.04792 0.77658 0.0
H1046 H 0.58723 0.06281 0.30605 0.0
H1047 H 0.57197 0.04969 0.2664 0.0
H1048 H 0.55192 0.12392 0.24957 0.0
H1049 H 0.56508 0.13693 0.29025 0.0
H1050 H 0.51908 0.09576 0.23182 0.0
H1051 H 0.60595 0.09586 0.22695 0.0
H1052 H 0.6482 0.08624 0.23912 0.0
H1053 H 0.63342 0.00959 0.22974 0.0
H1054 H 0.59097 0.01873 0.21783 0.0
H1055 H 0.53595 0.06663 0.09891 0.0
H1056 H 0.5379 0.08529 0.1399 0.0
H1057 H 0.52362 0.01491 0.1723 0.0
H1058 H 0.52053 0.99652 0.13143 0.0
H1059 H 0.57292 0.04372 0.18066 0.0
H1060 H 0.48418 0.04718 0.18394 0.0
H1061 H 0.44258 0.06033 0.17292 0.0
H1062 H 0.46361 0.13542 0.18289 0.0
H1063 H 0.5055 0.12281 0.19336 0.0
C1064 C 0.57908 0.07637 0.29428 0.0
C1065 C 0.57759 0.10106 0.30156 0.0
C1066 C 0.57072 0.06885 0.2713 0.0
C1067 C 0.56138 0.08589 0.25462 0.0
C1068 C 0.55927 0.11042 0.26197 0.0
C1069 C 0.56714 0.1179 0.2852 0.0
C1070 C 0.55415 0.07809 0.22948 0.0
C1071 C 0.53103 0.08468 0.2205 0.0
C1072 C 0.56965 0.06357 0.21462 0.0
C1073 C 0.59521 0.05798 0.2217 0.0
C1074 C 0.61166 0.07695 0.22764 0.0
C1075 C 0.63565 0.07158 0.23448 0.0
C1076 C 0.64347 0.04732 0.23526 0.0
C1077 C 0.62733 0.02837 0.22915 0.0
C1078 C 0.60331 0.03364 0.22233 0.0
C1079 C 0.53178 0.05552 0.11476 0.0
C1080 C 0.52724 0.03037 0.11208 0.0
C1081 C 0.53316 0.0661 0.13813 0.0
C1082 C 0.5306 0.05149 0.15904 0.0
C1083 C 0.52524 0.02653 0.15634 0.0
C1084 C 0.52348 0.01607 0.13305 0.0
C1085 C 0.53781 0.06105 0.18335 0.0
C1086 C 0.56107 0.0549 0.19201 0.0
C1087 C 0.52271 0.07648 0.19751 0.0
C1088 C 0.49809 0.08404 0.1892 0.0
C1089 C 0.48012 0.06651 0.18324 0.0
C1090 C 0.45644 0.07387 0.17722 0.0
C1091 C 0.45048 0.09868 0.17732 0.0
C1092 C 0.46828 0.11622 0.18286 0.0
C1093 C 0.49199 0.10898 0.18879 0.0
H1094 H 0.43202 0.10433 0.17341 0.0
H1095 H 0.66206 0.0432 0.24056 0.0
H1096 H 0.4606 0.61972 0.25297 0.0
H1097 H 0.47881 0.6062 0.29155 0.0
H1098 H 0.51252 0.54559 0.25397 0.0
H1099 H 0.49463 0.55932 0.21518 0.0
H1100 H 0.48168 0.53319 0.29439 0.0
H1101 H 0.54883 0.58598 0.27583 0.0
H1102 H 0.56951 0.62439 0.26425 0.0
H1103 H 0.5406 0.65982 0.32824 0.0
H1104 H 0.51938 0.62173 0.34001 0.0
H1105 H 0.52236 0.48631 0.4054 0.0
H1106 H 0.52515 0.50167 0.36349 0.0
H1107 H 0.50656 0.57401 0.38921 0.0
H1108 H 0.50484 0.55873 0.43125 0.0
H1109 H 0.53488 0.57891 0.35229 0.0
H1110 H 0.46259 0.53089 0.36704 0.0
H1111 H 0.43906 0.49436 0.37939 0.0
H1112 H 0.47419 0.45219 0.3231 0.0
H1113 H 0.49817 0.48844 0.31062 0.0
C1114 C 0.47224 0.60376 0.25292 0.0
C1115 C 0.47616 0.59046 0.23122 0.0
C1116 C 0.48276 0.59617 0.27488 0.0
C1117 C 0.4971 0.57499 0.27553 0.0
C1118 C 0.50164 0.56209 0.25375 0.0
C1119 C 0.49147 0.56993 0.23167 0.0
C1120 C 0.50469 0.56484 0.29939 0.0
C1121 C 0.49386 0.54282 0.30684 0.0
C1122 C 0.51983 0.57796 0.31586 0.0
C1123 C 0.5323 0.60102 0.30868 0.0
C1124 C 0.54664 0.60202 0.2873 0.0
C1125 C 0.55851 0.62373 0.28073 0.0
C1126 C 0.55632 0.64455 0.29547 0.0
C1127 C 0.54226 0.64369 0.31682 0.0
C1128 C 0.53031 0.62203 0.32346 0.0
C1129 C 0.51948 0.5056 0.40207 0.0
C1130 C 0.5134 0.52141 0.42137 0.0
C1131 C 0.52088 0.51434 0.37815 0.0
C1132 C 0.5153 0.53886 0.37303 0.0
C1133 C 0.51082 0.555 0.3926 0.0
C1134 C 0.50992 0.54633 0.41662 0.0
C1135 C 0.51193 0.54714 0.34736 0.0
C1136 C 0.52327 0.56889 0.33964 0.0
C1137 C 0.49684 0.53406 0.3307 0.0
C1138 C 0.48236 0.51228 0.33809 0.0
C1139 C 0.4654 0.51378 0.35741 0.0
C1140 C 0.45198 0.49314 0.36442 0.0
C1141 C 0.45518 0.47095 0.35208 0.0
C1142 C 0.47177 0.46938 0.33266 0.0
C1143 C 0.48527 0.48996 0.32561 0.0
H1144 H 0.44477 0.45499 0.35754 0.0
H1145 H 0.56555 0.66132 0.29037 0.0
H1146 H 0.05253 0.45871 0.72747 0.0
H1147 H 0.03351 0.4727 0.76564 0.0
H1148 H 0.07212 0.41712 0.80558 0.0
H1149 H 0.09117 0.40298 0.76744 0.0
H1150 H 0.02195 0.42311 0.82019 0.0
H1151 H 0.09509 0.47145 0.80587 0.0
H1152 H 0.12199 0.49835 0.78153 0.0
H1153 H 0.06506 0.55193 0.77741 0.0
H1154 H 0.0377 0.52517 0.80144 0.0
H1155 H 0.03128 0.47107 0.94105 0.0
H1156 H 0.03105 0.45155 0.90073 0.0
H1157 H 0.00333 0.51793 0.86888 0.0
H1158 H 0.00394 0.53749 0.90924 0.0
H1159 H 0.0438 0.50682 0.84809 0.0
H1160 H 0.96953 0.46014 0.85778 0.0
H1161 H 0.93917 0.43312 0.87745 0.0
H1162 H 0.9944 0.37902 0.88931 0.0
H1163 H 0.02493 0.40536 0.86873 0.0
C1164 C 0.05667 0.44924 0.74433 0.0
C1165 C 0.07343 0.42984 0.74452 0.0
C1166 C 0.04587 0.4573 0.7661 0.0
C1167 C 0.05153 0.44601 0.78841 0.0
C1168 C 0.06752 0.42605 0.78854 0.0
C1169 C 0.07852 0.41814 0.7668 0.0
C1170 C 0.04202 0.456 0.81179 0.0
C1171 C 0.02684 0.44135 0.82643 0.0
C1172 C 0.04778 0.48005 0.81952 0.0
C1173 C 0.06427 0.49619 0.8052 0.0
C1174 C 0.08824 0.48888 0.79959 0.0
C1175 C 0.10358 0.50411 0.78588 0.0
C1176 C 0.09521 0.5268 0.77786 0.0
C1177 C 0.07151 0.53433 0.78359 0.0
C1178 C 0.05608 0.51914 0.79726 0.0
C1179 C 0.02391 0.481 0.92564 0.0
C1180 C 0.01732 0.50562 0.92822 0.0
C1181 C 0.02385 0.46987 0.90251 0.0
C1182 C 0.01719 0.48324 0.88162 0.0
C1183 C 0.00863 0.50724 0.88464 0.0
C1184 C 0.00887 0.51839 0.9077 0.0
C1185 C 0.02351 0.47399 0.85674 0.0
C1186 C 0.03845 0.48872 0.84182 0.0
C1187 C 0.01724 0.45019 0.84863 0.0
C1188 C 0.99949 0.43479 0.86205 0.0
C1189 C 0.97522 0.44257 0.86481 0.0
C1190 C 0.95797 0.42733 0.87598 0.0
C1191 C 0.9649 0.40451 0.88492 0.0
C1192 C 0.98908 0.39674 0.88245 0.0
C1193 C 0.00632 0.41172 0.87084 0.0
H1194 H 0.95151 0.39281 0.8936 0.0
H1195 H 0.10712 0.53858 0.76726 0.0
H1196 H 0.76697 0.93179 0.90971 0.0
H1197 H 0.72774 0.94924 0.9221 0.0
H1198 H 0.76534 0.00156 0.96804 0.0
H1199 H 0.80464 0.98391 0.95603 0.0
H1200 H 0.72815 0.97845 0.992 0.0
H1201 H 0.73876 0.02011 0.91573 0.0
H1202 H 0.74667 0.0236 0.87143 0.0
H1203 H 0.68331 0.97944 0.85616 0.0
H1204 H 0.67521 0.9754 0.90041 0.0
H1205 H 0.62438 0.03847 0.03081 0.0
H1206 H 0.6636 0.03362 0.00969 0.0
H1207 H 0.62839 0.98857 0.95489 0.0
H1208 H 0.58896 0.9951 0.97503 0.0
H1209 H 0.66496 0.00827 0.93455 0.0
H1210 H 0.65549 0.96462 0.00927 0.0
H1211 H 0.64708 0.95892 0.05325 0.0
H1212 H 0.70824 0.00507 0.0714 0.0
H1213 H 0.71681 0.01132 0.02748 0.0
C1214 C 0.76688 0.94703 0.92243 0.0
C1215 C 0.7889 0.95644 0.93194 0.0
C1216 C 0.74447 0.95714 0.92931 0.0
C1217 C 0.74363 0.97684 0.94584 0.0
C1218 C 0.76559 0.98643 0.95518 0.0
C1219 C 0.78802 0.97642 0.94819 0.0
C1220 C 0.71979 0.98652 0.95442 0.0
C1221 C 0.71455 0.98563 0.97953 0.0
C1222 C 0.7017 0.9949 0.93803 0.0
C1223 C 0.70652 0.99725 0.9114 0.0
C1224 C 0.72663 0.01096 0.90294 0.0
C1225 C 0.73113 0.01308 0.87783 0.0
C1226 C 0.71554 0.0017 0.86099 0.0
C1227 C 0.69539 0.98822 0.86922 0.0
C1228 C 0.69082 0.98603 0.89431 0.0
C1229 C 0.62495 0.0285 0.01364 0.0
C1230 C 0.60382 0.01719 0.00443 0.0
C1231 C 0.64739 0.02533 0.0018 0.0
C1232 C 0.64921 0.00974 0.98132 0.0
C1233 C 0.62763 1.00039 0.97083 0.0
C1234 C 0.60505 0.00425 0.98224 0.0
C1235 C 0.67355 0.00132 0.97238 0.0
C1236 C 0.67873 0.00186 0.94718 0.0
C1237 C 0.69162 0.99249 0.98868 0.0
C1238 C 0.68664 0.98863 0.0151 0.0
C1239 C 0.66706 0.97366 0.02264 0.0
C1240 C 0.66227 0.97033 0.04756 0.0
C1241 C 0.67708 0.98167 0.06511 0.0
C1242 C 0.69676 0.99633 0.05778 0.0
C1243 C 0.7016 0.99976 0.03288 0.0
H1244 H 0.67334 0.97907 0.08439 0.0
H1245 H 0.71905 0.00336 0.84156 0.0
H1246 H 0.72523 0.04154 0.46972 0.0
H1247 H 0.76401 0.02118 0.4788 0.0
H1248 H 0.80292 0.07638 0.43786 0.0
H1249 H 0.76437 0.09634 0.4282 0.0
H1250 H 0.82033 0.03107 0.42817 0.0
H1251 H 0.79877 0.07885 0.50042 0.0
H1252 H 0.77199 0.09039 0.53491 0.0
H1253 H 0.77453 0.01689 0.56213 0.0
H1254 H 0.8011 0.00486 0.52761 0.0
H1255 H 0.93902 0.04285 0.4753 0.0
H1256 H 0.898 0.04186 0.45788 0.0
H1257 H 0.87591 0.9888 0.51201 0.0
H1258 H 0.91699 0.99066 0.53001 0.0
H1259 H 0.84699 0.02418 0.51456 0.0
H1260 H 0.86667 0.97492 0.44369 0.0
H1261 H 0.88894 0.96047 0.40725 0.0
H1262 H 0.88951 0.03314 0.37788 0.0
H1263 H 0.86615 0.04785 0.41372 0.0
C1264 C 0.74204 0.04915 0.46243 0.0
C1265 C 0.74177 0.07069 0.44845 0.0
C1266 C 0.76418 0.0376 0.46776 0.0
C1267 C 0.78637 0.04743 0.45922 0.0
C1268 C 0.78603 0.06851 0.44469 0.0
C1269 C 0.76399 0.08004 0.4394 0.0
C1270 C 0.81017 0.03643 0.46588 0.0
C1271 C 0.82623 0.0296 0.44706 0.0
C1272 C 0.81752 0.03361 0.49052 0.0
C1273 C 0.80166 0.0409 0.5113 0.0
C1274 C 0.79345 0.06512 0.51366 0.0
C1275 C 0.77835 0.07175 0.53323 0.0
C1276 C 0.77149 0.05436 0.55066 0.0
C1277 C 0.77981 0.03032 0.54859 0.0
C1278 C 0.79489 0.0236 0.52904 0.0
C1279 C 0.92563 0.03026 0.4828 0.0
C1280 C 0.93107 0.01662 0.50374 0.0
C1281 C 0.90216 0.02954 0.47275 0.0
C1282 C 0.88371 0.01506 0.48342 0.0
C1283 C 0.88977 1.00006 0.50337 0.0
C1284 C 0.91322 0.00101 0.51359 0.0
C1285 C 0.85762 0.01916 0.47678 0.0
C1286 C 0.84106 0.02494 0.49564 0.0
C1287 C 0.8497 0.02077 0.45219 0.0
C1288 C 0.86499 0.0125 0.43146 0.0
C1289 C 0.87172 0.98784 0.42954 0.0
C1290 C 0.88433 0.97957 0.40888 0.0
C1291 C 0.89094 0.99589 0.39037 0.0
C1292 C 0.88452 0.02052 0.39229 0.0
C1293 C 0.87136 0.02879 0.41263 0.0
H1294 H 0.90089 0.98942 0.37449 0.0
H1295 H 0.7598 0.05953 0.5658 0.0
H1296 H 0.27933 0.57177 0.11757 0.0
H1297 H 0.24101 0.5533 0.10387 0.0
H1298 H 0.27751 0.52348 0.04053 0.0
H1299 H 0.31619 0.54126 0.05445 0.0
H1300 H 0.23745 0.55037 0.02879 0.0
H1301 H 0.25649 0.4858 0.08345 0.0
H1302 H 0.26808 0.46612 0.12222 0.0
H1303 H 0.20352 0.49432 0.1568 0.0
H1304 H 0.19175 0.51458 0.11837 0.0
H1305 H 0.12648 0.50472 0.98369 0.0
H1306 H 0.16825 0.50233 0.99965 0.0
H1307 H 0.1435 0.53091 0.06909 0.0
H1308 H 0.10182 0.53343 0.053 0.0
H1309 H 0.17976 0.49818 0.07578 0.0
H1310 H 0.16533 0.56875 0.02471 0.0
H1311 H 0.15305 0.5896 0.98674 0.0
H1312 H 0.20888 0.55149 0.94681 0.0
H1313 H 0.22128 0.53016 0.98452 0.0
C1314 C 0.27944 0.56076 0.10105 0.0
C1315 C 0.30092 0.55816 0.08706 0.0
C1316 C 0.25745 0.5502 0.09325 0.0
C1317 C 0.25643 0.53688 0.07127 0.0
C1318 C 0.27791 0.53367 0.05757 0.0
C1319 C 0.29996 0.54406 0.06546 0.0
C1320 C 0.23251 0.52873 0.06131 0.0
C1321 C 0.22508 0.53848 0.03883 0.0
C1322 C 0.21613 0.51375 0.07473 0.0
C1323 C 0.22336 0.50194 0.09803 0.0
C1324 C 0.2449 0.48807 0.09939 0.0
C1325 C 0.25148 0.47675 0.1213 0.0
C1326 C 0.23658 0.47902 0.14198 0.0
C1327 C 0.21506 0.49261 0.14078 0.0
C1328 C 0.20843 0.50401 0.11893 0.0
C1329 C 0.12994 0.50985 0.00256 0.0
C1330 C 0.11101 0.51886 0.01735 0.0
C1331 C 0.15375 0.50853 0.01164 0.0
C1332 C 0.15905 0.5167 0.03548 0.0
C1333 C 0.13983 0.52434 0.05071 0.0
C1334 C 0.11601 0.5256 0.04162 0.0
C1335 C 0.18473 0.52015 0.04353 0.0
C1336 C 0.1924 0.50967 0.06562 0.0
C1337 C 0.20134 0.53473 0.02997 0.0
C1338 C 0.19404 0.54767 0.00734 0.0
C1339 C 0.17488 0.56471 0.00779 0.0
C1340 C 0.16791 0.57662 0.98633 0.0
C1341 C 0.18013 0.57182 0.96436 0.0
C1342 C 0.1994 0.55515 0.96383 0.0
C1343 C 0.20641 0.54315 0.98524 0.0
H1344 H 0.17471 0.58106 0.94776 0.0
H1345 H 0.24168 0.47021 0.15891 0.0
H1346 H 0.25556 0.47827 0.63506 0.0
H1347 H 0.29469 0.49652 0.62245 0.0
H1348 H 0.28153 0.47264 0.54815 0.0
H1349 H 0.2431 0.45365 0.56095 0.0
H1350 H 0.32495 0.46042 0.56075 0.0
H1351 H 0.27819 0.53533 0.56821 0.0
H1352 H 0.252 0.56419 0.59094 0.0
H1353 H 0.30803 0.5735 0.64523 0.0
H1354 H 0.33453 0.54468 0.62282 0.0
H1355 H 0.4073 0.5201 0.48932 0.0
H1356 H 0.36819 0.51878 0.51081 0.0
H1357 H 0.40569 0.52175 0.58012 0.0
H1358 H 0.44515 0.52292 0.5586 0.0
H1359 H 0.35284 0.54582 0.5752 0.0
H1360 H 0.39935 0.4705 0.56711 0.0
H1361 H 0.42514 0.4419 0.54362 0.0
H1362 H 0.36824 0.43332 0.49013 0.0
H1363 H 0.34231 0.46227 0.51309 0.0
C1364 C 0.261 0.47723 0.61601 0.0
C1365 C 0.24649 0.46447 0.59897 0.0
C1366 C 0.28327 0.48774 0.60878 0.0
C1367 C 0.29106 0.4861 0.58428 0.0
C1368 C 0.27604 0.47405 0.56717 0.0
C1369 C 0.25409 0.46321 0.57446 0.0
C1370 C 0.31547 0.49536 0.57648 0.0
C1371 C 0.33083 0.47916 0.56383 0.0
C1372 C 0.32369 0.51959 0.5811 0.0
C1373 C 0.3082 0.53766 0.594 0.0
C1374 C 0.28488 0.54351 0.58503 0.0
C1375 C 0.27 0.55986 0.59784 0.0
C1376 C 0.27828 0.57053 0.6196 0.0
C1377 C 0.30159 0.56512 0.62843 0.0
C1378 C 0.31659 0.54887 0.61563 0.0
C1379 C 0.4072 0.5214 0.50912 0.0
C1380 C 0.4292 0.52139 0.52232 0.0
C1381 C 0.38485 0.52078 0.52136 0.0
C1382 C 0.38413 0.51994 0.547 0.0
C1383 C 0.40593 0.52254 0.56031 0.0
C1384 C 0.42843 0.52318 0.548 0.0
C1385 C 0.36158 0.51099 0.55902 0.0
C1386 C 0.3468 0.52709 0.57243 0.0
C1387 C 0.35372 0.48662 0.55516 0.0
C1388 C 0.369 0.4687 0.54169 0.0
C1389 C 0.39242 0.46265 0.55024 0.0
C1390 C 0.40706 0.44637 0.53704 0.0
C1391 C 0.39835 0.43584 0.51537 0.0
C1392 C 0.37497 0.44151 0.5069 0.0
C1393 C 0.36029 0.45784 0.52001 0.0
H1394 H 0.40971 0.42325 0.50516 0.0
H1395 H 0.26668 0.58309 0.62956 0.0
H1396 H 0.91186 0.78563 0.98682 0.0
H1397 H 0.92683 0.747 0.00378 0.0
H1398 H 0.00056 0.76732 0.98375 0.0
H1399 H 0.98543 0.80528 0.96596 0.0
H1400 H 0.9907 0.72548 0.96567 0.0
H1401 H 0.97978 0.76107 0.04519 0.0
H1402 H 0.95819 0.78124 0.07933 0.0
H1403 H 0.90689 0.72164 0.08256 0.0
H1404 H 0.92801 0.70121 0.04829 0.0
H1405 H 0.05386 0.62655 0.01213 0.0
H1406 H 0.03723 0.66795 0.01444 0.0
H1407 H 0.96398 0.63845 0.01261 0.0
H1408 H 0.98069 0.597 0.00928 0.0
H1409 H 0.97267 0.68399 0.04433 0.0
H1410 H 0.98235 0.65104 0.96214 0.0
H1411 H 0.00568 0.63026 0.92955 0.0
H1412 H 0.0609 0.68628 0.93299 0.0
H1413 H 0.03807 0.70717 0.96593 0.0
C1414 C 0.9313 0.78196 0.9866 0.0
C1415 C 0.94754 0.79818 0.97498 0.0
C1416 C 0.93988 0.75998 0.99639 0.0
C1417 C 0.96487 0.75418 0.99508 0.0
C1418 C 0.9812 0.77127 0.98486 0.0
C1419 C 0.9726 0.79294 0.97473 0.0
C1420 C 0.97369 0.72925 0.00116 0.0
C1421 C 0.98704 0.71674 0.9831 0.0
C1422 C 0.96829 0.7173 0.02356 0.0
C1423 C 0.95531 0.72977 0.04392 0.0
C1424 C 0.96373 0.75239 0.05299 0.0
C1425 C 0.95162 0.76383 0.07243 0.0
C1426 C 0.93112 0.75278 0.08303 0.0
C1427 C 0.92274 0.73021 0.07429 0.0
C1428 C 0.93479 0.71868 0.05488 0.0
C1429 C 0.03421 0.62889 0.01291 0.0
C1430 C 0.01846 0.60863 0.01099 0.0
C1431 C 0.02476 0.65248 0.01436 0.0
C1432 C 0.99941 0.65618 0.01375 0.0
C1433 C 0.98359 0.63591 0.0135 0.0
C1434 C 0.9931 0.61225 0.01184 0.0
C1435 C 0.98988 0.68096 0.00904 0.0
C1436 C 0.97632 0.69313 0.02711 0.0
C1437 C 0.99509 0.69283 0.98671 0.0
C1438 C 0.00864 0.68051 0.96665 0.0
C1439 C 0.99957 0.65881 0.95608 0.0
C1440 C 0.01268 0.64703 0.93753 0.0
C1441 C 0.03479 0.6569 0.92925 0.0
C1442 C 0.04379 0.67863 0.93945 0.0
C1443 C 0.03077 0.69045 0.95805 0.0
H1444 H 0.04492 0.64776 0.91488 0.0
H1445 H 0.92178 0.76166 0.09809 0.0
H1446 H 0.41542 0.74053 0.04 0.0
H1447 H 0.42738 0.78114 0.02488 0.0
H1448 H 0.4859 0.78398 0.07767 0.0
H1449 H 0.47437 0.74359 0.09255 0.0
H1450 H 0.45714 0.82447 0.07956 0.0
H1451 H 0.49764 0.77476 0.01776 0.0
H1452 H 0.49895 0.74438 0.98429 0.0
H1453 H 0.4498 0.78807 0.94191 0.0
H1454 H 0.44811 0.81868 0.97515 0.0
H1455 H 0.54621 0.90989 0.02286 0.0
H1456 H 0.52639 0.86961 0.02156 0.0
H1457 H 0.45636 0.90338 0.03396 0.0
H1458 H 0.47621 0.94366 0.03553 0.0
H1459 H 0.48564 0.84598 0.99602 0.0
H1460 H 0.43203 0.87052 0.08188 0.0
H1461 H 0.43255 0.9008 0.11554 0.0
H1462 H 0.51077 0.90592 0.11049 0.0
H1463 H 0.5107 0.87543 0.07708 0.0
C1464 C 0.43107 0.74969 0.04809 0.0
C1465 C 0.44375 0.73899 0.0677 0.0
C1466 C 0.43783 0.77288 0.03947 0.0
C1467 C 0.45743 0.78562 0.05027 0.0
C1468 C 0.47056 0.77457 0.06925 0.0
C1469 C 0.46387 0.75152 0.0778 0.0
C1470 C 0.46376 0.81097 0.04303 0.0
C1471 C 0.46312 0.82916 0.06121 0.0
C1472 C 0.47142 0.81719 0.01906 0.0
C1473 C 0.47251 0.79883 0.99907 0.0
C1474 C 0.48696 0.77779 0.00138 0.0
C1475 C 0.48784 0.76058 0.9824 0.0
C1476 C 0.47444 0.76429 0.96098 0.0
C1477 C 0.4602 0.78526 0.95847 0.0
C1478 C 0.4593 0.80255 0.97736 0.0
C1479 C 0.52651 0.90871 0.02467 0.0
C1480 C 0.51265 0.92979 0.02912 0.0
C1481 C 0.5152 0.88577 0.02371 0.0
C1482 C 0.48994 0.88356 0.02767 0.0
C1483 C 0.47586 0.90475 0.03072 0.0
C1484 C 0.48717 0.92772 0.0315 0.0
C1485 C 0.4793 0.85915 0.03267 0.0
C1486 C 0.4791 0.84127 0.01417 0.0
C1487 C 0.47096 0.85305 0.0564 0.0
C1488 C 0.4713 0.87096 0.07682 0.0
C1489 C 0.44932 0.87807 0.08804 0.0
C1490 C 0.44954 0.89526 0.10706 0.0
C1491 C 0.47167 0.90535 0.11508 0.0
C1492 C 0.49364 0.89817 0.10419 0.0
C1493 C 0.49351 0.88095 0.08521 0.0
H1494 H 0.4718 0.91868 0.12978 0.0
H1495 H 0.47513 0.75094 0.94632 0.0
H1496 H 0.12654 0.27391 0.57242 0.0
H1497 H 0.11164 0.23609 0.55384 0.0
H1498 H 0.04805 0.27369 0.52708 0.0
H1499 H 0.06323 0.31197 0.54483 0.0
H1500 H 0.03707 0.23307 0.55483 0.0
H1501 H 0.08821 0.25297 0.48711 0.0
H1502 H 0.12604 0.26477 0.46552 0.0
H1503 H 0.16122 0.19967 0.49094 0.0
H1504 H 0.12375 0.18766 0.51307 0.0
H1505 H 0.9876 0.1236 0.5104 0.0
H1506 H 0.00397 0.16529 0.50819 0.0
H1507 H 0.07498 0.1389 0.52966 0.0
H1508 H 0.05851 0.09719 0.53174 0.0
H1509 H 0.08017 0.17617 0.49868 0.0
H1510 H 0.03326 0.1604 0.57204 0.0
H1511 H 0.99657 0.14789 0.59524 0.0
H1512 H 0.95525 0.20498 0.56125 0.0
H1513 H 0.99164 0.21762 0.53761 0.0
C1514 C 0.10974 0.27442 0.56199 0.0
C1515 C 0.09605 0.29609 0.56029 0.0
C1516 C 0.10122 0.25269 0.55139 0.0
C1517 C 0.07881 0.25211 0.53897 0.0
C1518 C 0.06542 0.27378 0.53658 0.0
C1519 C 0.07404 0.29559 0.54696 0.0
C1520 C 0.06813 0.22839 0.53104 0.0
C1521 C 0.04623 0.22087 0.5421 0.0
C1522 C 0.08047 0.21221 0.51499 0.0
C1523 C 0.10319 0.21954 0.50198 0.0
C1524 C 0.10409 0.2413 0.48835 0.0
C1525 C 0.12546 0.248 0.47596 0.0
C1526 C 0.14604 0.23301 0.47691 0.0
C1527 C 0.14528 0.21128 0.49025 0.0
C1528 C 0.12397 0.20451 0.50271 0.0
C1529 C 0.00684 0.12671 0.51401 0.0
C1530 C 0.02197 0.1073 0.52092 0.0
C1531 C 0.01617 0.15049 0.51284 0.0
C1532 C 0.04062 0.1553 0.51914 0.0
C1533 C 0.05609 0.13565 0.52462 0.0
C1534 C 0.04677 0.11182 0.52563 0.0
C1535 C 0.04933 0.18083 0.52276 0.0
C1536 C 0.07086 0.18861 0.51105 0.0
C1537 C 0.0369 0.19723 0.53854 0.0
C1538 C 0.01507 0.18977 0.55287 0.0
C1539 C 0.0163 0.17018 0.56942 0.0
C1540 C 0.99557 0.16307 0.58265 0.0
C1541 C 0.97357 0.17558 0.57967 0.0
C1542 C 0.97228 0.19527 0.5635 0.0
C1543 C 0.99295 0.20243 0.55019 0.0
H1544 H 0.95754 0.17005 0.58993 0.0
H1545 H 0.16256 0.23822 0.46727 0.0
H1546 H 0.62939 0.26981 0.46371 0.0
H1547 H 0.61511 0.30808 0.48223 0.0
H1548 H 0.55571 0.26915 0.51682 0.0
H1549 H 0.56999 0.23081 0.49847 0.0
H1550 H 0.54173 0.30883 0.48737 0.0
H1551 H 0.59897 0.29059 0.55018 0.0
H1552 H 0.63928 0.28011 0.56701 0.0
H1553 H 0.66849 0.34865 0.54213 0.0
H1554 H 0.62867 0.35912 0.52409 0.0
H1555 H 0.49093 0.41623 0.52952 0.0
H1556 H 0.50942 0.37595 0.53481 0.0
H1557 H 0.5786 0.40463 0.50945 0.0
H1558 H 0.56035 0.44525 0.50539 0.0
H1559 H 0.58637 0.36787 0.5404 0.0
H1560 H 0.53608 0.38086 0.46914 0.0
H1561 H 0.4983 0.39207 0.44739 0.0
H1562 H 0.4592 0.33471 0.4843 0.0
H1563 H 0.49673 0.32338 0.50652 0.0
C1564 C 0.61347 0.26941 0.47551 0.0
C1565 C 0.60071 0.24741 0.47958 0.0
C1566 C 0.60547 0.2912 0.48623 0.0
C1567 C 0.58446 0.29137 0.50101 0.0
C1568 C 0.57207 0.26933 0.50561 0.0
C1569 C 0.58025 0.24748 0.49517 0.0
C1570 C 0.5739 0.31489 0.50926 0.0
C1571 C 0.55126 0.3215 0.49942 0.0
C1572 C 0.58679 0.33168 0.52434 0.0
C1573 C 0.61079 0.3255 0.53542 0.0
C1574 C 0.61406 0.30327 0.54786 0.0
C1575 C 0.63687 0.2973 0.55759 0.0
C1576 C 0.65646 0.31365 0.55555 0.0
C1577 C 0.65331 0.33597 0.54366 0.0
C1578 C 0.63063 0.34189 0.53358 0.0
C1579 C 0.51026 0.41402 0.52583 0.0
C1580 C 0.52422 0.43361 0.51681 0.0
C1581 C 0.52081 0.39105 0.5288 0.0
C1582 C 0.5452 0.3871 0.5218 0.0
C1583 C 0.55971 0.40718 0.5148 0.0
C1584 C 0.54928 0.43035 0.51239 0.0
C1585 C 0.5544 0.36182 0.51819 0.0
C1586 C 0.57673 0.35495 0.52874 0.0
C1587 C 0.54162 0.34485 0.50319 0.0
C1588 C 0.51911 0.35147 0.48968 0.0
C1589 C 0.51939 0.37074 0.47271 0.0
C1590 C 0.49803 0.37711 0.4603 0.0
C1591 C 0.47634 0.36416 0.46452 0.0
C1592 C 0.476 0.34476 0.4811 0.0
C1593 C 0.4973 0.33835 0.4936 0.0
H1594 H 0.45982 0.36911 0.4549 0.0
H1595 H 0.67405 0.30908 0.56329 0.0
loop_
_geom_bond_atom_site_label_1
_geom_bond_atom_site_label_2
_geom_bond_distance
_geom_bond_site_symmetry_2
_ccdc_geom_bond_type
C0 C1 1.386 . S
C0 C2 1.397 . S
C0 H24 0.931 . S
C1 C0 1.386 . S
C1 C5 1.397 . S
C2 C0 1.397 . S
C2 C3 1.384 . S
C2 H25 0.930 . S
C3 C2 1.384 . S
C3 C4 1.377 . S
C3 C6 1.481 . S
C4 C3 1.377 . S
C4 C5 1.389 . S
C4 H26 0.929 . S
C5 C1 1.397 . S
C5 C4 1.389 . S
C5 H27 0.931 . S
C6 C3 1.481 . S
C6 C7 1.387 . S
C6 C11 1.390 . S
C7 C6 1.387 . S
C7 C8 1.401 . S
C7 H28 0.930 . S
C8 C7 1.401 . S
C8 C9 1.376 . S
C8 C17 1.511 . S
C9 C8 1.376 . S
C9 C10 1.392 . S
C9 H30 0.931 . S
C10 C9 1.392 . S
C10 C11 1.361 . S
C10 C12 1.500 . S
C11 C6 1.390 . S
C11 C10 1.361 . S
C11 H29 0.931 . S
C12 C10 1.500 . S
C12 C13 1.371 . S
C12 C14 1.365 . S
C13 C12 1.371 . S
C13 C23 1.386 . S
C13 H31 0.931 . S
C14 C12 1.365 . S
C14 C15 1.409 . S
C14 H32 0.929 . S
C15 C14 1.409 . S
C15 C16 1.380 . S
C15 H33 0.930 . S
C16 C15 1.380 . S
C16 C23 1.357 . S
C17 C8 1.511 . S
C17 C18 1.341 . S
C17 C19 1.371 . S
C18 C17 1.341 . S
C18 C22 1.394 . S
C18 H34 0.930 . S
C19 C17 1.371 . S
C19 C20 1.392 . S
C19 H35 0.931 . S
C20 C19 1.392 . S
C20 C21 1.331 . S
C20 H38 0.932 . S
C21 C20 1.331 . S
C21 C22 1.336 . S
C22 C18 1.394 . S
C22 C21 1.336 . S
C22 H37 0.929 . S
C23 C13 1.386 . S
C23 C16 1.357 . S
C23 H36 0.928 . S
H24 C0 0.931 . S
H25 C2 0.930 . S
H26 C4 0.929 . S
H27 C5 0.931 . S
H28 C7 0.930 . S
H29 C11 0.931 . S
H30 C9 0.931 . S
H31 C13 0.931 . S
H32 C14 0.929 . S
H33 C15 0.930 . S
H34 C18 0.930 . S
H35 C19 0.931 . S
H36 C23 0.928 . S
H37 C22 0.929 . S
H38 C20 0.932 . S
C39 C40 1.386 . S
C39 C41 1.397 . S
C39 H63 0.931 . S
C40 C39 1.386 . S
C40 C44 1.397 . S
C41 C39 1.397 . S
C41 C42 1.384 . S
C41 H64 0.930 . S
C42 C41 1.384 . S
C42 C43 1.377 . S
C42 C45 1.481 . S
C43 C42 1.377 . S
C43 C44 1.389 . S
C43 H65 0.929 . S
C44 C40 1.397 . S
C44 C43 1.389 . S
C44 H66 0.931 . S
C45 C42 1.481 . S
C45 C46 1.387 . S
C45 C50 1.390 . S
C46 C45 1.387 . S
C46 C47 1.401 . S
C46 H67 0.930 . S
C47 C46 1.401 . S
C47 C48 1.376 . S
C47 C56 1.511 . S
C48 C47 1.376 . S
C48 C49 1.392 . S
C48 H69 0.931 . S
C49 C48 1.392 . S
C49 C50 1.361 . S
C49 C51 1.500 . S
C50 C45 1.390 . S
C50 C49 1.361 . S
C50 H68 0.931 . S
C51 C49 1.500 . S
C51 C52 1.371 . S
C51 C53 1.365 . S
C52 C51 1.371 . S
C52 C62 1.386 . S
C52 H70 0.931 . S
C53 C51 1.365 . S
C53 C54 1.409 . S
C53 H71 0.929 . S
C54 C53 1.409 . S
C54 C55 1.380 . S
C54 H72 0.930 . S
C55 C54 1.380 . S
C55 C62 1.357 . S
C56 C47 1.511 . S
C56 C57 1.341 . S
C56 C58 1.371 . S
C57 C56 1.341 . S
C57 C61 1.394 . S
C57 H73 0.930 . S
C58 C56 1.371 . S
C58 C59 1.392 . S
C58 H74 0.931 . S
C59 C58 1.392 . S
C59 C60 1.331 . S
C59 H77 0.932 . S
C60 C59 1.331 . S
C60 C61 1.336 . S
C61 C57 1.394 . S
C61 C60 1.336 . S
C61 H76 0.929 . S
C62 C52 1.386 . S
C62 C55 1.357 . S
C62 H75 0.928 . S
H63 C39 0.931 . S
H64 C41 0.930 . S
H65 C43 0.929 . S
H66 C44 0.931 . S
H67 C46 0.930 . S
H68 C50 0.931 . S
H69 C48 0.931 . S
H70 C52 0.931 . S
H71 C53 0.929 . S
H72 C54 0.930 . S
H73 C57 0.930 . S
H74 C58 0.931 . S
H75 C62 0.928 . S
H76 C61 0.929 . S
H77 C59 0.932 . S
C78 C79 1.386 . S
C78 C80 1.397 . S
C78 H102 0.931 . S
C79 C78 1.386 . S
C79 C83 1.397 . S
C80 C78 1.397 . S
C80 C81 1.384 . S
C80 H103 0.930 . S
C81 C80 1.384 . S
C81 C82 1.377 . S
C81 C84 1.481 . S
C82 C81 1.377 . S
C82 C83 1.389 . S
C82 H104 0.929 . S
C83 C79 1.397 . S
C83 C82 1.389 . S
C83 H105 0.931 . S
C84 C81 1.481 . S
C84 C85 1.387 . S
C84 C89 1.390 . S
C85 C84 1.387 . S
C85 C86 1.401 . S
C85 H106 0.930 . S
C86 C85 1.401 . S
C86 C87 1.376 . S
C86 C95 1.511 . S
C87 C86 1.376 . S
C87 C88 1.392 . S
C87 H108 0.931 . S
C88 C87 1.392 . S
C88 C89 1.361 . S
C88 C90 1.500 . S
C89 C84 1.390 . S
C89 C88 1.361 . S
C89 H107 0.931 . S
C90 C88 1.500 . S
C90 C91 1.371 . S
C90 C92 1.365 . S
C91 C90 1.371 . S
C91 C101 1.386 . S
C91 H109 0.931 . S
C92 C90 1.365 . S
C92 C93 1.409 . S
C92 H110 0.929 . S
C93 C92 1.409 . S
C93 C94 1.380 . S
C93 H111 0.930 . S
C94 C93 1.380 . S
C94 C101 1.357 . S
C95 C86 1.511 . S
C95 C96 1.341 . S
C95 C97 1.371 . S
C96 C95 1.341 . S
C96 C100 1.394 . S
C96 H112 0.930 . S
C97 C95 1.371 . S
C97 C98 1.392 . S
C97 H113 0.931 . S
C98 C97 1.392 . S
C98 C99 1.331 . S
C98 H116 0.932 . S
C99 C98 1.331 . S
C99 C100 1.336 . S
C100 C96 1.394 . S
C100 C99 1.336 . S
C100 H115 0.929 . S
C101 C91 1.386 . S
C101 C94 1.357 . S
C101 H114 0.928 . S
H102 C78 0.931 . S
H103 C80 0.930 . S
H104 C82 0.929 . S
H105 C83 0.931 . S
H106 C85 0.930 . S
H107 C89 0.931 . S
H108 C87 0.931 . S
H109 C91 0.931 . S
H110 C92 0.929 . S
H111 C93 0.930 . S
H112 C96 0.930 . S
H113 C97 0.931 . S
H114 C101 0.928 . S
H115 C100 0.929 . S
H116 C98 0.932 . S
C117 C118 1.386 . S
C117 C119 1.397 . S
C117 H141 0.931 . S
C118 C117 1.386 . S
C118 C122 1.397 . S
C119 C117 1.397 . S
C119 C120 1.384 . S
C119 H142 0.930 . S
C120 C119 1.384 . S
C120 C121 1.377 . S
C120 C123 1.481 . S
C121 C120 1.377 . S
C121 C122 1.389 . S
C121 H143 0.929 . S
C122 C118 1.397 . S
C122 C121 1.389 . S
C122 H144 0.931 . S
C123 C120 1.481 . S
C123 C124 1.387 . S
C123 C128 1.390 . S
C124 C123 1.387 . S
C124 C125 1.401 . S
C124 H145 0.930 . S
C125 C124 1.401 . S
C125 C126 1.376 . S
C125 C134 1.511 . S
C126 C125 1.376 . S
C126 C127 1.392 . S
C126 H147 0.931 . S
C127 C126 1.392 . S
C127 C128 1.361 . S
C127 C129 1.500 . S
C128 C123 1.390 . S
C128 C127 1.361 . S
C128 H146 0.931 . S
C129 C127 1.500 . S
C129 C130 1.371 . S
C129 C131 1.365 . S
C130 C129 1.371 . S
C130 C140 1.386 . S
C130 H148 0.931 . S
C131 C129 1.365 . S
C131 C132 1.409 . S
C131 H149 0.929 . S
C132 C131 1.409 . S
C132 C133 1.380 . S
C132 H150 0.930 . S
C133 C132 1.380 . S
C133 C140 1.357 . S
C134 C125 1.511 . S
C134 C135 1.341 . S
C134 C136 1.371 . S
C135 C134 1.341 . S
C135 C139 1.394 . S
C135 H151 0.930 . S
C136 C134 1.371 . S
C136 C137 1.392 . S
C136 H152 0.931 . S
C137 C136 1.392 . S
C137 C138 1.331 . S
C137 H155 0.932 . S
C138 C137 1.331 . S
C138 C139 1.336 . S
C139 C135 1.394 . S
C139 C138 1.336 . S
C139 H154 0.929 . S
C140 C130 1.386 . S
C140 C133 1.357 . S
C140 H153 0.928 . S
H141 C117 0.931 . S
H142 C119 0.930 . S
H143 C121 0.929 . S
H144 C122 0.931 . S
H145 C124 0.930 . S
H146 C128 0.931 . S
H147 C126 0.931 . S
H148 C130 0.931 . S
H149 C131 0.929 . S
H150 C132 0.930 . S
H151 C135 0.930 . S
H152 C136 0.931 . S
H153 C140 0.928 . S
H154 C139 0.929 . S
H155 C137 0.932 . S
C156 C157 1.386 . S
C156 C158 1.397 . S
C156 H180 0.931 . S
C157 C156 1.386 . S
C157 C161 1.397 . S
C158 C156 1.397 . S
C158 C159 1.384 . S
C158 H181 0.930 . S
C159 C158 1.384 . S
C159 C160 1.377 . S
C159 C162 1.481 . S
C160 C159 1.377 . S
C160 C161 1.389 . S
C160 H182 0.929 . S
C161 C157 1.397 . S
C161 C160 1.389 . S
C161 H183 0.931 1_565 S
C162 C159 1.481 . S
C162 C163 1.387 . S
C162 C167 1.390 . S
C163 C162 1.387 . S
C163 C164 1.401 . S
C163 H184 0.930 . S
C164 C163 1.401 . S
C164 C165 1.376 . S
C164 C173 1.511 . S
C165 C164 1.376 . S
C165 C166 1.392 . S
C165 H186 0.931 . S
C166 C165 1.392 . S
C166 C167 1.361 . S
C166 C168 1.500 . S
C167 C162 1.390 . S
C167 C166 1.361 . S
C167 H185 0.931 . S
C168 C166 1.500 . S
C168 C169 1.371 . S
C168 C170 1.365 . S
C169 C168 1.371 . S
C169 C179 1.386 . S
C169 H187 0.931 . S
C170 C168 1.365 . S
C170 C171 1.409 . S
C170 H188 0.929 . S
C171 C170 1.409 . S
C171 C172 1.380 . S
C171 H189 0.930 1_565 S
C172 C171 1.380 . S
C172 C179 1.357 . S
C173 C164 1.511 . S
C173 C174 1.341 . S
C173 C175 1.371 . S
C174 C173 1.341 . S
C174 C178 1.394 . S
C174 H190 0.930 . S
C175 C173 1.371 . S
C175 C176 1.392 . S
C175 H191 0.931 . S
C176 C175 1.392 . S
C176 C177 1.331 . S
C176 H194 0.910 1_556 S
C177 C176 1.331 . S
C177 C178 1.336 . S
C178 C174 1.394 . S
C178 C177 1.336 . S
C178 H193 0.929 . S
C179 C169 1.386 . S
C179 C172 1.357 . S
C179 H192 0.928 . S
H180 C156 0.931 . S
H181 C158 0.930 . S
H182 C160 0.929 . S
H183 C161 0.931 1_545 S
H184 C163 0.930 . S
H185 C167 0.931 . S
H186 C165 0.931 . S
H187 C169 0.931 . S
H188 C170 0.929 . S
H189 C171 0.930 1_545 S
H190 C174 0.930 . S
H191 C175 0.931 . S
H192 C179 0.928 . S
H193 C178 0.929 . S
H194 C176 0.910 1_554 S
C195 C196 1.386 . S
C195 C197 1.397 . S
C195 H219 0.931 . S
C196 C195 1.386 . S
C196 C200 1.397 . S
C197 C195 1.397 . S
C197 C198 1.384 . S
C197 H220 0.930 . S
C198 C197 1.384 . S
C198 C199 1.377 . S
C198 C201 1.481 . S
C199 C198 1.377 . S
C199 C200 1.389 . S
C199 H221 0.929 . S
C200 C196 1.397 . S
C200 C199 1.389 . S
C200 H222 0.931 . S
C201 C198 1.481 . S
C201 C202 1.387 . S
C201 C206 1.390 . S
C202 C201 1.387 . S
C202 C203 1.401 . S
C202 H223 0.930 . S
C203 C202 1.401 . S
C203 C204 1.376 . S
C203 C212 1.511 . S
C204 C203 1.376 . S
C204 C205 1.392 . S
C204 H225 0.931 . S
C205 C204 1.392 . S
C205 C206 1.361 . S
C205 C207 1.500 . S
C206 C201 1.390 . S
C206 C205 1.361 . S
C206 H224 0.931 . S
C207 C205 1.500 . S
C207 C208 1.371 . S
C207 C209 1.365 . S
C208 C207 1.371 . S
C208 C218 1.386 . S
C208 H226 0.931 . S
C209 C207 1.365 . S
C209 C210 1.409 . S
C209 H227 0.929 . S
C210 C209 1.409 . S
C210 C211 1.380 . S
C210 H228 0.930 . S
C211 C210 1.380 . S
C211 C218 1.357 . S
C212 C203 1.511 . S
C212 C213 1.341 . S
C212 C214 1.371 . S
C213 C212 1.341 . S
C213 C217 1.394 . S
C213 H229 0.930 . S
C214 C212 1.371 . S
C214 C215 1.392 . S
C214 H230 0.931 . S
C215 C214 1.392 . S
C215 C216 1.331 . S
C215 H233 0.932 . S
C216 C215 1.331 . S
C216 C217 1.336 . S
C217 C213 1.394 . S
C217 C216 1.336 . S
C217 H232 0.929 . S
C218 C208 1.386 . S
C218 C211 1.357 . S
C218 H231 0.928 . S
H219 C195 0.931 . S
H220 C197 0.930 . S
H221 C199 0.929 . S
H222 C200 0.931 . S
H223 C202 0.930 . S
H224 C206 0.931 . S
H225 C204 0.931 . S
H226 C208 0.931 . S
H227 C209 0.929 . S
H228 C210 0.930 . S
H229 C213 0.930 . S
H230 C214 0.931 . S
H231 C218 0.928 . S
H232 C217 0.929 . S
H233 C215 0.932 . S
C234 C235 1.386 . S
C234 C236 1.397 . S
C234 H258 0.931 . S
C235 C234 1.386 . S
C235 C239 1.397 . S
C236 C234 1.397 . S
C236 C237 1.384 . S
C236 H259 0.930 . S
C237 C236 1.384 . S
C237 C238 1.377 . S
C237 C240 1.481 . S
C238 C237 1.377 . S
C238 C239 1.389 . S
C238 H260 0.929 . S
C239 C235 1.397 . S
C239 C238 1.389 . S
C239 H261 0.931 . S
C240 C237 1.481 . S
C240 C241 1.387 . S
C240 C245 1.390 . S
C241 C240 1.387 . S
C241 C242 1.401 . S
C241 H262 0.930 . S
C242 C241 1.401 . S
C242 C243 1.376 . S
C242 C251 1.511 . S
C243 C242 1.376 . S
C243 C244 1.392 . S
C243 H264 0.931 . S
C244 C243 1.392 . S
C244 C245 1.361 . S
C244 C246 1.500 . S
C245 C240 1.390 . S
C245 C244 1.361 . S
C245 H263 0.931 . S
C246 C244 1.500 . S
C246 C247 1.371 . S
C246 C248 1.365 . S
C247 C246 1.371 . S
C247 C257 1.386 . S
C247 H265 0.931 . S
C248 C246 1.365 . S
C248 C249 1.409 . S
C248 H266 0.929 . S
C249 C248 1.409 . S
C249 C250 1.380 . S
C249 H267 0.930 . S
C250 C249 1.380 . S
C250 C257 1.357 . S
C251 C242 1.511 . S
C251 C252 1.341 . S
C251 C253 1.371 . S
C252 C251 1.341 . S
C252 C256 1.394 . S
C252 H268 0.930 . S
C253 C251 1.371 . S
C253 C254 1.392 . S
C253 H269 0.931 . S
C254 C253 1.392 . S
C254 C255 1.331 . S
C254 H272 0.932 . S
C255 C254 1.331 . S
C255 C256 1.336 . S
C256 C252 1.394 . S
C256 C255 1.336 . S
C256 H271 0.929 . S
C257 C247 1.386 . S
C257 C250 1.357 . S
C257 H270 0.928 . S
H258 C234 0.931 . S
H259 C236 0.930 . S
H260 C238 0.929 . S
H261 C239 0.931 . S
H262 C241 0.930 . S
H263 C245 0.931 . S
H264 C243 0.931 . S
H265 C247 0.931 . S
H266 C248 0.929 . S
H267 C249 0.930 . S
H268 C252 0.930 . S
H269 C253 0.931 . S
H270 C257 0.928 . S
H271 C256 0.929 . S
H272 C254 0.932 . S
C273 C274 1.386 . S
C273 C275 1.397 . S
C273 H297 0.931 . S
C274 C273 1.386 . S
C274 C278 1.397 . S
C275 C273 1.397 . S
C275 C276 1.384 . S
C275 H298 0.930 . S
C276 C275 1.384 . S
C276 C277 1.377 . S
C276 C279 1.481 . S
C277 C276 1.377 . S
C277 C278 1.389 . S
C277 H299 0.929 . S
C278 C274 1.397 . S
C278 C277 1.389 . S
C278 H300 0.931 . S
C279 C276 1.481 . S
C279 C280 1.387 . S
C279 C284 1.390 . S
C280 C279 1.387 . S
C280 C281 1.401 . S
C280 H301 0.930 . S
C281 C280 1.401 . S
C281 C282 1.376 . S
C281 C290 1.511 . S
C282 C281 1.376 . S
C282 C283 1.392 . S
C282 H303 0.931 . S
C283 C282 1.392 . S
C283 C284 1.361 . S
C283 C285 1.500 . S
C284 C279 1.390 . S
C284 C283 1.361 . S
C284 H302 0.931 . S
C285 C283 1.500 . S
C285 C286 1.371 . S
C285 C287 1.365 . S
C286 C285 1.371 . S
C286 C296 1.386 . S
C286 H304 0.931 . S
C287 C285 1.365 . S
C287 C288 1.409 . S
C287 H305 0.929 . S
C288 C287 1.409 . S
C288 C289 1.380 . S
C288 H306 0.930 . S
C289 C288 1.380 . S
C289 C296 1.357 . S
C290 C281 1.511 . S
C290 C291 1.341 . S
C290 C292 1.371 . S
C291 C290 1.341 . S
C291 C295 1.394 . S
C291 H307 0.930 . S
C292 C290 1.371 . S
C292 C293 1.392 . S
C292 H308 0.931 . S
C293 C292 1.392 . S
C293 C294 1.331 . S
C293 H311 0.932 . S
C294 C293 1.331 . S
C294 C295 1.336 . S
C295 C291 1.394 . S
C295 C294 1.336 . S
C295 H310 0.929 . S
C296 C286 1.386 . S
C296 C289 1.357 . S
C296 H309 0.928 . S
H297 C273 0.931 . S
H298 C275 0.930 . S
H299 C277 0.929 . S
H300 C278 0.931 . S
H301 C280 0.930 . S
H302 C284 0.931 . S
H303 C282 0.931 . S
H304 C286 0.931 . S
H305 C287 0.929 . S
H306 C288 0.930 . S
H307 C291 0.930 . S
H308 C292 0.931 . S
H309 C296 0.928 . S
H310 C295 0.929 . S
H311 C293 0.932 . S
Zn312 O318 1.920 . S
Zn312 O324 1.898 . S
Zn312 O327 1.905 . S
Zn313 O321 1.905 1_565 S
Zn313 O322 1.898 . S
Zn313 O330 1.920 . S
Zn314 O317 2.080 1_455 S
Zn314 O320 2.114 . S
Zn314 O323 2.120 1_445 S
Zn314 O325 2.120 . S
Zn314 O326 2.114 1_455 S
Zn314 O329 2.080 . S
C315 O320 1.166 . S
C315 O321 1.182 . S
C316 O322 1.167 1_655 S
C316 O323 1.299 . S
O317 Zn314 2.080 1_655 S
O317 C331 1.305 . S
O318 Zn312 1.920 . S
O318 C331 1.234 . S
C319 O324 1.167 1_455 S
C319 O325 1.299 . S
O320 Zn314 2.114 . S
O320 C315 1.166 . S
O321 Zn313 1.905 1_545 S
O321 C315 1.182 . S
O322 Zn313 1.898 . S
O322 C316 1.167 1_455 S
O323 Zn314 2.120 1_665 S
O323 C316 1.299 . S
O324 Zn312 1.898 . S
O324 C319 1.167 1_655 S
O325 Zn314 2.120 . S
O325 C319 1.299 . S
O326 Zn314 2.114 1_655 S
O326 C328 1.166 . S
O327 Zn312 1.905 . S
O327 C328 1.182 . S
C328 O326 1.166 . S
C328 O327 1.182 . S
O329 Zn314 2.080 . S
O329 C332 1.305 . S
O330 Zn313 1.920 . S
O330 C332 1.234 1_565 S
C331 O317 1.305 . S
C331 O318 1.234 . S
C332 O329 1.305 . S
C332 O330 1.234 1_545 S
Zn333 O339 1.920 1_556 S
Zn333 O345 1.898 . S
Zn333 O348 1.905 . S
Zn334 O342 1.905 . S
Zn334 O343 1.898 . S
Zn334 O351 1.920 . S
Zn335 O338 2.080 . S
Zn335 O341 2.114 1_545 S
Zn335 O344 2.120 1_545 S
Zn335 O346 2.120 . S
Zn335 O347 2.114 1_544 S
Zn335 O350 2.080 . S
C336 O341 1.166 . S
C336 O342 1.182 . S
C337 O343 1.167 . S
C337 O344 1.299 . S
O338 Zn335 2.080 . S
O338 C352 1.305 . S
O339 Zn333 1.920 1_554 S
O339 C352 1.234 . S
C340 O345 1.167 . S
C340 O346 1.299 1_556 S
O341 Zn335 2.114 1_565 S
O341 C336 1.166 . S
O342 Zn334 1.905 . S
O342 C336 1.182 . S
O343 Zn334 1.898 . S
O343 C337 1.167 . S
O344 Zn335 2.120 1_565 S
O344 C337 1.299 . S
O345 Zn333 1.898 . S
O345 C340 1.167 . S
O346 Zn335 2.120 . S
O346 C340 1.299 1_554 S
O347 Zn335 2.114 1_566 S
O347 C349 1.166 . S
O348 Zn333 1.905 . S
O348 C349 1.182 1_545 S
C349 O347 1.166 . S
C349 O348 1.182 1_565 S
O350 Zn335 2.080 . S
O350 C353 1.305 . S
O351 Zn334 1.920 . S
O351 C353 1.234 1_565 S
C352 O338 1.305 . S
C352 O339 1.234 . S
C353 O350 1.305 . S
C353 O351 1.234 1_545 S
Zn354 O360 1.920 . S
Zn354 O366 1.898 . S
Zn354 O369 1.905 . S
Zn355 O363 1.905 . S
Zn355 O364 1.898 . S
Zn355 O372 1.920 . S
Zn356 O359 2.080 . S
Zn356 O362 2.114 . S
Zn356 O365 2.120 . S
Zn356 O367 2.120 . S
Zn356 O368 2.114 . S
Zn356 O371 2.080 . S
C357 O362 1.166 . S
C357 O363 1.182 . S
C358 O364 1.167 . S
C358 O365 1.299 . S
O359 Zn356 2.080 . S
O359 C373 1.305 . S
O360 Zn354 1.920 . S
O360 C373 1.234 . S
C361 O366 1.167 . S
C361 O367 1.299 . S
O362 Zn356 2.114 . S
O362 C357 1.166 . S
O363 Zn355 1.905 . S
O363 C357 1.182 . S
O364 Zn355 1.898 . S
O364 C358 1.167 . S
O365 Zn356 2.120 . S
O365 C358 1.299 . S
O366 Zn354 1.898 . S
O366 C361 1.167 . S
O367 Zn356 2.120 . S
O367 C361 1.299 . S
O368 Zn356 2.114 . S
O368 C370 1.166 . S
O369 Zn354 1.905 . S
O369 C370 1.182 . S
C370 O368 1.166 . S
C370 O369 1.182 . S
O371 Zn356 2.080 . S
O371 C374 1.305 . S
O372 Zn355 1.920 . S
O372 C374 1.234 . S
C373 O359 1.305 . S
C373 O360 1.234 . S
C374 O371 1.305 . S
C374 O372 1.234 . S
Zn375 O381 1.920 . S
Zn375 O387 1.898 . S
Zn375 O390 1.905 . S
Zn376 O384 1.905 1_655 S
Zn376 O385 1.898 . S
Zn376 O393 1.920 . S
Zn377 O380 2.080 1_554 S
Zn377 O383 2.114 . S
Zn377 O386 2.120 1_454 S
Zn377 O388 2.120 . S
Zn377 O389 2.114 1_554 S
Zn377 O392 2.080 . S
C378 O383 1.166 . S
C378 O384 1.182 . S
C379 O385 1.167 1_556 S
C379 O386 1.299 . S
O380 Zn377 2.080 1_556 S
O380 C394 1.305 . S
O381 Zn375 1.920 . S
O381 C394 1.234 . S
C382 O387 1.167 1_554 S
C382 O388 1.299 . S
O383 Zn377 2.114 . S
O383 C378 1.166 . S
O384 Zn376 1.905 1_455 S
O384 C378 1.182 . S
O385 Zn376 1.898 . S
O385 C379 1.167 1_554 S
O386 Zn377 2.120 1_656 S
O386 C379 1.299 . S
O387 Zn375 1.898 . S
O387 C382 1.167 1_556 S
O388 Zn377 2.120 . S
O388 C382 1.299 . S
O389 Zn377 2.114 1_556 S
O389 C391 1.166 . S
O390 Zn375 1.905 . S
O390 C391 1.182 . S
C391 O389 1.166 . S
C391 O390 1.182 . S
O392 Zn377 2.080 . S
O392 C395 1.272 1_455 S
O393 Zn376 1.920 . S
O393 C395 1.259 . S
C394 O380 1.305 . S
C394 O381 1.234 . S
C395 O392 1.272 1_655 S
C395 O393 1.259 . S
H396 C414 0.951 . S
H397 C416 0.951 . S
H398 C418 0.950 . S
H399 C419 0.950 . S
H400 C421 0.950 . S
H401 C424 0.950 . S
H402 C425 0.950 . S
H403 C427 0.950 . S
H404 C428 0.950 . S
H405 C429 0.951 . S
H406 C431 0.951 . S
H407 C433 0.950 . S
H408 C434 0.950 . S
H409 C436 0.950 . S
H410 C439 0.950 . S
H411 C440 0.950 . S
H412 C442 0.950 . S
H413 C443 0.950 . S
C414 H396 0.951 . S
C414 C415 1.366 . S
C414 C416 1.388 . S
C415 C414 1.366 . S
C415 C419 1.385 . S
C416 H397 0.951 . S
C416 C414 1.388 . S
C416 C417 1.366 . S
C417 C416 1.366 . S
C417 C418 1.414 . S
C417 C420 1.499 . S
C418 H398 0.950 . S
C418 C417 1.414 . S
C418 C419 1.374 . S
C419 H399 0.950 . S
C419 C415 1.385 . S
C419 C418 1.374 . S
C420 C417 1.499 . S
C420 C421 1.373 . S
C420 C422 1.389 . S
C421 H400 0.950 . S
C421 C420 1.373 . S
C421 C437 1.377 . S
C422 C420 1.389 . S
C422 C423 1.524 . S
C422 C436 1.377 . S
C423 C422 1.524 . S
C423 C424 1.397 . S
C423 C428 1.363 . S
C424 H401 0.950 . S
C424 C423 1.397 . S
C424 C425 1.334 . S
C425 H402 0.950 . S
C425 C424 1.334 . S
C425 C426 1.287 . S
C426 C425 1.287 . S
C426 C427 1.524 . S
C426 H445 0.913 . S
C427 H403 0.950 . S
C427 C426 1.524 . S
C427 C428 1.415 . S
C428 H404 0.950 . S
C428 C423 1.363 . S
C428 C427 1.415 . S
C429 H405 0.951 . S
C429 C430 1.366 . S
C429 C431 1.388 . S
C430 C429 1.366 . S
C430 C434 1.385 . S
C431 H406 0.951 . S
C431 C429 1.388 . S
C431 C432 1.366 . S
C432 C431 1.366 . S
C432 C433 1.414 . S
C432 C435 1.499 . S
C433 H407 0.950 . S
C433 C432 1.414 . S
C433 C434 1.374 . S
C434 H408 0.950 . S
C434 C430 1.385 . S
C434 C433 1.374 . S
C435 C432 1.499 . S
C435 C436 1.373 . S
C435 C437 1.389 . S
C436 H409 0.950 . S
C436 C422 1.377 . S
C436 C435 1.373 . S
C437 C421 1.377 . S
C437 C435 1.389 . S
C437 C438 1.524 . S
C438 C437 1.524 . S
C438 C439 1.397 . S
C438 C443 1.363 . S
C439 H410 0.950 . S
C439 C438 1.397 . S
C439 C440 1.334 1_455 S
C440 H411 0.950 . S
C440 C439 1.334 1_655 S
C440 C441 1.287 . S
C441 C440 1.287 . S
C441 C442 1.524 1_655 S
C441 H444 0.999 . S
C442 H412 0.950 . S
C442 C441 1.524 1_455 S
C442 C443 1.415 . S
C443 H413 0.950 . S
C443 C438 1.363 . S
C443 C442 1.415 . S
H444 C441 0.999 . S
H445 C426 0.913 . S
H446 C464 0.951 . S
H447 C466 0.951 . S
H448 C468 0.950 . S
H449 C469 0.950 . S
H450 C471 0.950 . S
H451 C474 0.950 . S
H452 C475 0.950 . S
H453 C477 0.950 . S
H454 C478 0.950 . S
H455 C479 0.951 . S
H456 C481 0.951 . S
H457 C483 0.950 . S
H458 C484 0.950 1_545 S
H459 C486 0.950 . S
H460 C489 0.950 . S
H461 C490 0.950 . S
H462 C492 0.950 . S
H463 C493 0.950 . S
C464 H446 0.951 . S
C464 C465 1.366 . S
C464 C466 1.388 . S
C465 C464 1.366 . S
C465 C469 1.385 . S
C466 H447 0.951 . S
C466 C464 1.388 . S
C466 C467 1.366 . S
C467 C466 1.366 . S
C467 C468 1.414 . S
C467 C470 1.499 . S
C468 H448 0.950 . S
C468 C467 1.414 . S
C468 C469 1.374 . S
C469 H449 0.950 . S
C469 C465 1.385 . S
C469 C468 1.374 . S
C470 C467 1.499 . S
C470 C471 1.373 . S
C470 C472 1.389 . S
C471 H450 0.950 . S
C471 C470 1.373 . S
C471 C487 1.377 . S
C472 C470 1.389 . S
C472 C473 1.524 . S
C472 C486 1.377 . S
C473 C472 1.524 . S
C473 C474 1.397 . S
C473 C478 1.363 . S
C474 H451 0.950 . S
C474 C473 1.397 . S
C474 C475 1.334 . S
C475 H452 0.950 . S
C475 C474 1.334 . S
C475 C476 1.287 . S
C476 C475 1.287 . S
C476 C477 1.524 . S
C476 H495 0.913 . S
C477 H453 0.950 . S
C477 C476 1.524 . S
C477 C478 1.415 . S
C478 H454 0.950 . S
C478 C473 1.363 . S
C478 C477 1.415 . S
C479 H455 0.951 . S
C479 C480 1.366 . S
C479 C481 1.388 . S
C480 C479 1.366 . S
C480 C484 1.385 . S
C481 H456 0.951 . S
C481 C479 1.388 . S
C481 C482 1.366 . S
C482 C481 1.366 . S
C482 C483 1.414 . S
C482 C485 1.499 . S
C483 H457 0.950 . S
C483 C482 1.414 . S
C483 C484 1.374 . S
C484 H458 0.950 1_565 S
C484 C480 1.385 . S
C484 C483 1.374 . S
C485 C482 1.499 . S
C485 C486 1.373 . S
C485 C487 1.389 . S
C486 H459 0.950 . S
C486 C472 1.377 . S
C486 C485 1.373 . S
C487 C471 1.377 . S
C487 C485 1.389 . S
C487 C488 1.524 . S
C488 C487 1.524 . S
C488 C489 1.397 . S
C488 C493 1.363 . S
C489 H460 0.950 . S
C489 C488 1.397 . S
C489 C490 1.334 . S
C490 H461 0.950 . S
C490 C489 1.334 . S
C490 C491 1.287 . S
C491 C490 1.287 . S
C491 C492 1.524 . S
C491 H494 0.999 . S
C492 H462 0.950 . S
C492 C491 1.524 . S
C492 C493 1.415 . S
C493 H463 0.950 . S
C493 C488 1.363 . S
C493 C492 1.415 . S
H494 C491 0.999 . S
H495 C476 0.913 . S
H496 C514 0.951 . S
H497 C516 0.951 . S
H498 C518 0.950 . S
H499 C519 0.950 . S
H500 C521 0.950 . S
H501 C524 0.950 . S
H502 C525 0.950 . S
H503 C527 0.950 . S
H504 C528 0.950 . S
H505 C529 0.951 . S
H506 C531 0.951 . S
H507 C533 0.950 . S
H508 C534 0.950 . S
H509 C536 0.950 . S
H510 C539 0.950 . S
H511 C540 0.950 . S
H512 C542 0.950 . S
H513 C543 0.950 . S
C514 H496 0.951 . S
C514 C515 1.366 . S
C514 C516 1.388 . S
C515 C514 1.366 . S
C515 C519 1.385 . S
C516 H497 0.951 . S
C516 C514 1.388 . S
C516 C517 1.366 . S
C517 C516 1.366 . S
C517 C518 1.414 . S
C517 C520 1.499 . S
C518 H498 0.950 . S
C518 C517 1.414 . S
C518 C519 1.374 . S
C519 H499 0.950 . S
C519 C515 1.385 . S
C519 C518 1.374 . S
C520 C517 1.499 . S
C520 C521 1.373 . S
C520 C522 1.389 . S
C521 H500 0.950 . S
C521 C520 1.373 . S
C521 C537 1.377 . S
C522 C520 1.389 . S
C522 C523 1.524 . S
C522 C536 1.377 . S
C523 C522 1.524 . S
C523 C524 1.397 . S
C523 C528 1.363 . S
C524 H501 0.950 . S
C524 C523 1.397 . S
C524 C525 1.334 . S
C525 H502 0.950 . S
C525 C524 1.334 . S
C525 C526 1.287 . S
C526 C525 1.287 . S
C526 C527 1.524 . S
C526 H545 0.913 . S
C527 H503 0.950 . S
C527 C526 1.524 . S
C527 C528 1.415 . S
C528 H504 0.950 . S
C528 C523 1.363 . S
C528 C527 1.415 . S
C529 H505 0.951 . S
C529 C530 1.366 . S
C529 C531 1.388 . S
C530 C529 1.366 . S
C530 C534 1.385 . S
C531 H506 0.951 . S
C531 C529 1.388 . S
C531 C532 1.366 . S
C532 C531 1.366 . S
C532 C533 1.414 . S
C532 C535 1.499 . S
C533 H507 0.950 . S
C533 C532 1.414 . S
C533 C534 1.374 . S
C534 H508 0.950 . S
C534 C530 1.385 . S
C534 C533 1.374 . S
C535 C532 1.499 . S
C535 C536 1.373 . S
C535 C537 1.389 . S
C536 H509 0.950 . S
C536 C522 1.377 . S
C536 C535 1.373 . S
C537 C521 1.377 . S
C537 C535 1.389 . S
C537 C538 1.524 . S
C538 C537 1.524 . S
C538 C539 1.397 . S
C538 C543 1.363 . S
C539 H510 0.950 . S
C539 C538 1.397 . S
C539 C540 1.334 . S
C540 H511 0.950 . S
C540 C539 1.334 . S
C540 C541 1.287 . S
C541 C540 1.287 . S
C541 C542 1.524 . S
C541 H544 0.999 . S
C542 H512 0.950 . S
C542 C541 1.524 . S
C542 C543 1.415 . S
C543 H513 0.950 . S
C543 C538 1.363 . S
C543 C542 1.415 . S
H544 C541 0.999 . S
H545 C526 0.913 . S
H546 C564 0.951 . S
H547 C566 0.951 . S
H548 C568 0.950 . S
H549 C569 0.950 . S
H550 C571 0.950 . S
H551 C574 0.950 . S
H552 C575 0.950 . S
H553 C577 0.950 . S
H554 C578 0.950 . S
H555 C579 0.951 . S
H556 C581 0.951 . S
H557 C583 0.936 1_455 S
H558 C584 0.950 . S
H559 C586 0.950 . S
H560 C589 0.950 . S
H561 C590 0.950 . S
H562 C592 0.950 . S
H563 C593 0.950 . S
C564 H546 0.951 . S
C564 C565 1.366 . S
C564 C566 1.388 . S
C565 C564 1.366 . S
C565 C569 1.385 . S
C566 H547 0.951 . S
C566 C564 1.388 . S
C566 C567 1.366 . S
C567 C566 1.366 . S
C567 C568 1.414 . S
C567 C570 1.499 . S
C568 H548 0.950 . S
C568 C567 1.414 . S
C568 C569 1.374 . S
C569 H549 0.950 . S
C569 C565 1.385 . S
C569 C568 1.374 . S
C570 C567 1.499 . S
C570 C571 1.373 . S
C570 C572 1.389 . S
C571 H550 0.950 . S
C571 C570 1.373 . S
C571 C587 1.377 . S
C572 C570 1.389 . S
C572 C573 1.524 . S
C572 C586 1.377 . S
C573 C572 1.524 . S
C573 C574 1.397 . S
C573 C578 1.364 1_655 S
C574 H551 0.950 . S
C574 C573 1.397 . S
C574 C575 1.334 . S
C575 H552 0.950 . S
C575 C574 1.334 . S
C575 C576 1.287 1_655 S
C576 C575 1.287 1_455 S
C576 C577 1.524 . S
C576 H595 0.913 . S
C577 H553 0.950 . S
C577 C576 1.524 . S
C577 C578 1.414 . S
C578 H554 0.950 . S
C578 C573 1.364 1_455 S
C578 C577 1.414 . S
C579 H555 0.951 . S
C579 C580 1.366 . S
C579 C581 1.388 . S
C580 C579 1.366 . S
C580 C584 1.385 1_655 S
C581 H556 0.951 . S
C581 C579 1.388 . S
C581 C582 1.366 . S
C582 C581 1.366 . S
C582 C583 1.414 . S
C582 C585 1.499 . S
C583 H557 0.936 1_655 S
C583 C582 1.414 . S
C583 C584 1.374 1_655 S
C584 H558 0.950 . S
C584 C580 1.385 1_455 S
C584 C583 1.374 1_455 S
C585 C582 1.499 . S
C585 C586 1.373 . S
C585 C587 1.389 . S
C586 H559 0.950 . S
C586 C572 1.377 . S
C586 C585 1.373 . S
C587 C571 1.377 . S
C587 C585 1.389 . S
C587 C588 1.524 . S
C588 C587 1.524 . S
C588 C589 1.397 . S
C588 C593 1.363 . S
C589 H560 0.950 . S
C589 C588 1.397 . S
C589 C590 1.334 . S
C590 H561 0.950 . S
C590 C589 1.334 . S
C590 C591 1.287 . S
C591 C590 1.287 . S
C591 C592 1.524 . S
C591 H594 0.999 . S
C592 H562 0.950 . S
C592 C591 1.524 . S
C592 C593 1.415 . S
C593 H563 0.950 . S
C593 C588 1.363 . S
C593 C592 1.415 . S
H594 C591 0.999 . S
H595 C576 0.913 . S
H596 C614 0.951 . S
H597 C616 0.951 . S
H598 C618 0.950 . S
H599 C619 0.950 . S
H600 C621 0.950 . S
H601 C624 0.950 . S
H602 C625 0.950 . S
H603 C627 0.950 . S
H604 C628 0.950 . S
H605 C629 0.951 . S
H606 C631 0.951 . S
H607 C633 0.950 . S
H608 C634 0.950 . S
H609 C636 0.950 . S
H610 C639 0.950 . S
H611 C640 0.950 . S
H612 C642 0.950 . S
H613 C643 0.950 . S
C614 H596 0.951 . S
C614 C615 1.366 . S
C614 C616 1.388 . S
C615 C614 1.366 . S
C615 C619 1.385 . S
C616 H597 0.951 . S
C616 C614 1.388 . S
C616 C617 1.366 . S
C617 C616 1.366 . S
C617 C618 1.414 . S
C617 C620 1.499 . S
C618 H598 0.950 . S
C618 C617 1.414 . S
C618 C619 1.374 . S
C619 H599 0.950 . S
C619 C615 1.385 . S
C619 C618 1.374 . S
C620 C617 1.499 . S
C620 C621 1.373 . S
C620 C622 1.389 . S
C621 H600 0.950 . S
C621 C620 1.373 . S
C621 C637 1.377 . S
C622 C620 1.389 . S
C622 C623 1.524 . S
C622 C636 1.377 . S
C623 C622 1.524 . S
C623 C624 1.397 . S
C623 C628 1.363 . S
C624 H601 0.950 . S
C624 C623 1.397 . S
C624 C625 1.334 . S
C625 H602 0.950 . S
C625 C624 1.334 . S
C625 C626 1.287 . S
C626 C625 1.287 . S
C626 C627 1.524 . S
C626 H645 0.913 . S
C627 H603 0.950 . S
C627 C626 1.524 . S
C627 C628 1.415 . S
C628 H604 0.950 . S
C628 C623 1.363 . S
C628 C627 1.415 . S
C629 H605 0.951 . S
C629 C630 1.366 . S
C629 C631 1.388 . S
C630 C629 1.366 . S
C630 C634 1.385 . S
C631 H606 0.951 . S
C631 C629 1.388 . S
C631 C632 1.366 . S
C632 C631 1.366 . S
C632 C633 1.414 . S
C632 C635 1.499 . S
C633 H607 0.950 . S
C633 C632 1.414 . S
C633 C634 1.374 . S
C634 H608 0.950 . S
C634 C630 1.385 . S
C634 C633 1.374 . S
C635 C632 1.499 . S
C635 C636 1.373 . S
C635 C637 1.389 . S
C636 H609 0.950 . S
C636 C622 1.377 . S
C636 C635 1.373 . S
C637 C621 1.377 . S
C637 C635 1.389 . S
C637 C638 1.524 . S
C638 C637 1.524 . S
C638 C639 1.397 . S
C638 C643 1.363 . S
C639 H610 0.950 . S
C639 C638 1.397 . S
C639 C640 1.334 . S
C640 H611 0.950 . S
C640 C639 1.334 . S
C640 C641 1.287 . S
C641 C640 1.287 . S
C641 C642 1.524 . S
C641 H644 0.999 . S
C642 H612 0.950 . S
C642 C641 1.524 . S
C642 C643 1.415 . S
C643 H613 0.950 . S
C643 C638 1.363 . S
C643 C642 1.415 . S
H644 C641 0.999 . S
H645 C626 0.913 . S
H646 C664 0.951 . S
H647 C666 0.951 . S
H648 C668 0.950 . S
H649 C669 0.950 . S
H650 C671 0.950 . S
H651 C674 0.950 . S
H652 C675 0.950 . S
H653 C677 0.950 . S
H654 C678 0.950 1_545 S
H655 C679 0.951 . S
H656 C681 0.951 . S
H657 C683 0.950 1_545 S
H658 C684 0.950 . S
H659 C686 0.950 . S
H660 C689 0.950 . S
H661 C690 0.950 . S
H662 C692 0.950 . S
H663 C693 0.950 . S
C664 H646 0.951 . S
C664 C665 1.366 . S
C664 C666 1.388 . S
C665 C664 1.366 . S
C665 C669 1.385 . S
C666 H647 0.951 . S
C666 C664 1.388 . S
C666 C667 1.366 . S
C667 C666 1.366 . S
C667 C668 1.414 . S
C667 C670 1.499 . S
C668 H648 0.950 . S
C668 C667 1.414 . S
C668 C669 1.374 . S
C669 H649 0.950 . S
C669 C665 1.385 . S
C669 C668 1.374 . S
C670 C667 1.499 . S
C670 C671 1.373 . S
C670 C672 1.389 . S
C671 H650 0.950 . S
C671 C670 1.373 . S
C671 C687 1.377 . S
C672 C670 1.389 . S
C672 C673 1.524 . S
C672 C686 1.377 . S
C673 C672 1.524 . S
C673 C674 1.397 . S
C673 C678 1.363 . S
C674 H651 0.950 . S
C674 C673 1.397 . S
C674 C675 1.334 . S
C675 H652 0.950 . S
C675 C674 1.334 . S
C675 C676 1.287 . S
C676 C675 1.287 . S
C676 C677 1.524 1_565 S
C676 H695 0.913 . S
C677 H653 0.950 . S
C677 C676 1.524 1_545 S
C677 C678 1.415 1_545 S
C678 H654 0.950 1_565 S
C678 C673 1.363 . S
C678 C677 1.415 1_565 S
C679 H655 0.951 . S
C679 C680 1.366 . S
C679 C681 1.388 . S
C680 C679 1.366 . S
C680 C684 1.385 1_565 S
C681 H656 0.951 . S
C681 C679 1.388 . S
C681 C682 1.366 . S
C682 C681 1.366 . S
C682 C683 1.414 . S
C682 C685 1.499 . S
C683 H657 0.950 1_565 S
C683 C682 1.414 . S
C683 C684 1.374 1_565 S
C684 H658 0.950 . S
C684 C680 1.385 1_545 S
C684 C683 1.374 1_545 S
C685 C682 1.499 . S
C685 C686 1.373 . S
C685 C687 1.389 . S
C686 H659 0.950 . S
C686 C672 1.377 . S
C686 C685 1.373 . S
C687 C671 1.377 . S
C687 C685 1.389 . S
C687 C688 1.524 . S
C688 C687 1.524 . S
C688 C689 1.397 . S
C688 C693 1.363 . S
C689 H660 0.950 . S
C689 C688 1.397 . S
C689 C690 1.334 . S
C690 H661 0.950 . S
C690 C689 1.334 . S
C690 C691 1.287 . S
C691 C690 1.287 . S
C691 C692 1.524 . S
C691 H694 0.999 . S
C692 H662 0.950 . S
C692 C691 1.524 . S
C692 C693 1.415 . S
C693 H663 0.950 . S
C693 C688 1.363 . S
C693 C692 1.415 . S
H694 C691 0.999 . S
H695 C676 0.913 . S
H696 C714 0.951 . S
H697 C716 0.951 . S
H698 C718 0.950 . S
H699 C719 0.950 . S
H700 C721 0.950 . S
H701 C724 0.950 . S
H702 C725 0.950 . S
H703 C727 0.950 . S
H704 C728 0.950 . S
H705 C729 0.951 . S
H706 C731 0.951 . S
H707 C733 0.950 . S
H708 C734 0.950 . S
H709 C736 0.950 . S
H710 C739 0.950 . S
H711 C740 0.950 . S
H712 C742 0.950 . S
H713 C743 0.950 . S
C714 H696 0.951 . S
C714 C715 1.366 . S
C714 C716 1.388 . S
C715 C714 1.366 . S
C715 C719 1.385 . S
C716 H697 0.951 . S
C716 C714 1.388 . S
C716 C717 1.366 . S
C717 C716 1.366 . S
C717 C718 1.414 . S
C717 C720 1.499 . S
C718 H698 0.950 . S
C718 C717 1.414 . S
C718 C719 1.374 . S
C719 H699 0.950 . S
C719 C715 1.385 . S
C719 C718 1.374 . S
C720 C717 1.499 . S
C720 C721 1.373 . S
C720 C722 1.389 . S
C721 H700 0.950 . S
C721 C720 1.373 . S
C721 C737 1.377 . S
C722 C720 1.389 . S
C722 C723 1.524 . S
C722 C736 1.377 . S
C723 C722 1.524 . S
C723 C724 1.397 . S
C723 C728 1.363 . S
C724 H701 0.950 . S
C724 C723 1.397 . S
C724 C725 1.334 . S
C725 H702 0.950 . S
C725 C724 1.334 . S
C725 C726 1.287 . S
C726 C725 1.287 . S
C726 C727 1.524 . S
C726 H745 0.913 . S
C727 H703 0.950 . S
C727 C726 1.524 . S
C727 C728 1.415 . S
C728 H704 0.950 . S
C728 C723 1.363 . S
C728 C727 1.415 . S
C729 H705 0.951 . S
C729 C730 1.366 . S
C729 C731 1.388 . S
C730 C729 1.366 . S
C730 C734 1.385 . S
C731 H706 0.951 . S
C731 C729 1.388 . S
C731 C732 1.366 . S
C732 C731 1.366 . S
C732 C733 1.414 . S
C732 C735 1.499 . S
C733 H707 0.950 . S
C733 C732 1.414 . S
C733 C734 1.374 . S
C734 H708 0.950 . S
C734 C730 1.385 . S
C734 C733 1.374 . S
C735 C732 1.499 . S
C735 C736 1.373 . S
C735 C737 1.389 . S
C736 H709 0.950 . S
C736 C722 1.377 . S
C736 C735 1.373 . S
C737 C721 1.377 . S
C737 C735 1.389 . S
C737 C738 1.524 . S
C738 C737 1.524 . S
C738 C739 1.397 . S
C738 C743 1.363 . S
C739 H710 0.950 . S
C739 C738 1.397 . S
C739 C740 1.334 . S
C740 H711 0.950 . S
C740 C739 1.334 . S
C740 C741 1.287 . S
C741 C740 1.287 . S
C741 C742 1.524 . S
C741 H744 0.999 . S
C742 H712 0.950 . S
C742 C741 1.524 . S
C742 C743 1.415 . S
C743 H713 0.950 . S
C743 C738 1.363 . S
C743 C742 1.415 . S
H744 C741 0.999 . S
H745 C726 0.913 . S
H746 C764 0.951 . S
H747 C766 0.951 . S
H748 C768 0.950 . S
H749 C769 0.950 . S
H750 C771 0.950 . S
H751 C774 0.950 . S
H752 C775 0.950 . S
H753 C777 0.950 . S
H754 C778 0.950 . S
H755 C779 0.951 . S
H756 C781 0.951 . S
H757 C783 0.950 . S
H758 C784 0.950 . S
H759 C786 0.950 . S
H760 C789 0.950 . S
H761 C790 0.950 . S
H762 C792 0.950 . S
H763 C793 0.950 . S
C764 H746 0.951 . S
C764 C765 1.366 . S
C764 C766 1.388 . S
C765 C764 1.366 . S
C765 C769 1.385 . S
C766 H747 0.951 . S
C766 C764 1.388 . S
C766 C767 1.366 . S
C767 C766 1.366 . S
C767 C768 1.414 . S
C767 C770 1.499 . S
C768 H748 0.950 . S
C768 C767 1.414 . S
C768 C769 1.374 . S
C769 H749 0.950 . S
C769 C765 1.385 . S
C769 C768 1.374 . S
C770 C767 1.499 . S
C770 C771 1.373 . S
C770 C772 1.389 . S
C771 H750 0.950 . S
C771 C770 1.373 . S
C771 C787 1.377 . S
C772 C770 1.389 . S
C772 C773 1.524 . S
C772 C786 1.377 . S
C773 C772 1.524 . S
C773 C774 1.397 . S
C773 C778 1.363 . S
C774 H751 0.950 . S
C774 C773 1.397 . S
C774 C775 1.334 . S
C775 H752 0.950 . S
C775 C774 1.334 . S
C775 C776 1.287 . S
C776 C775 1.287 . S
C776 C777 1.524 . S
C776 H795 0.913 . S
C777 H753 0.950 . S
C777 C776 1.524 . S
C777 C778 1.415 . S
C778 H754 0.950 . S
C778 C773 1.363 . S
C778 C777 1.415 . S
C779 H755 0.951 . S
C779 C780 1.366 . S
C779 C781 1.388 . S
C780 C779 1.366 . S
C780 C784 1.385 . S
C781 H756 0.951 . S
C781 C779 1.388 . S
C781 C782 1.366 . S
C782 C781 1.366 . S
C782 C783 1.414 . S
C782 C785 1.499 . S
C783 H757 0.950 . S
C783 C782 1.414 . S
C783 C784 1.374 . S
C784 H758 0.950 . S
C784 C780 1.385 . S
C784 C783 1.374 . S
C785 C782 1.499 . S
C785 C786 1.373 . S
C785 C787 1.389 . S
C786 H759 0.950 . S
C786 C772 1.377 . S
C786 C785 1.373 . S
C787 C771 1.377 . S
C787 C785 1.389 . S
C787 C788 1.524 . S
C788 C787 1.524 . S
C788 C789 1.397 . S
C788 C793 1.363 . S
C789 H760 0.950 . S
C789 C788 1.397 . S
C789 C790 1.334 . S
C790 H761 0.950 . S
C790 C789 1.334 . S
C790 C791 1.287 . S
C791 C790 1.287 . S
C791 C792 1.524 . S
C791 H794 0.999 . S
C792 H762 0.950 . S
C792 C791 1.524 . S
C792 C793 1.415 . S
C793 H763 0.950 . S
C793 C788 1.363 . S
C793 C792 1.415 . S
H794 C791 0.999 . S
H795 C776 0.913 . S
H796 C814 0.951 . S
H797 C816 0.951 . S
H798 C818 0.950 . S
H799 C819 0.950 . S
H800 C821 0.950 . S
H801 C824 0.950 . S
H802 C825 0.950 . S
H803 C827 0.950 . S
H804 C828 0.950 . S
H805 C829 0.951 . S
H806 C831 0.951 . S
H807 C833 0.950 . S
H808 C834 0.950 . S
H809 C836 0.950 . S
H810 C839 0.950 . S
H811 C840 0.950 1_556 S
H812 C842 0.950 . S
H813 C843 0.950 . S
C814 H796 0.951 . S
C814 C815 1.366 . S
C814 C816 1.388 . S
C815 C814 1.366 . S
C815 C819 1.385 . S
C816 H797 0.951 . S
C816 C814 1.388 . S
C816 C817 1.366 . S
C817 C816 1.366 . S
C817 C818 1.414 . S
C817 C820 1.499 . S
C818 H798 0.950 . S
C818 C817 1.414 . S
C818 C819 1.374 . S
C819 H799 0.950 . S
C819 C815 1.385 . S
C819 C818 1.374 . S
C820 C817 1.499 . S
C820 C821 1.373 . S
C820 C822 1.389 . S
C821 H800 0.950 . S
C821 C820 1.373 . S
C821 C837 1.377 . S
C822 C820 1.389 . S
C822 C823 1.524 . S
C822 C836 1.377 . S
C823 C822 1.524 . S
C823 C824 1.397 . S
C823 C828 1.363 . S
C824 H801 0.950 . S
C824 C823 1.397 . S
C824 C825 1.334 . S
C825 H802 0.950 . S
C825 C824 1.334 . S
C825 C826 1.287 . S
C826 C825 1.287 . S
C826 C827 1.524 . S
C826 H845 0.913 . S
C827 H803 0.950 . S
C827 C826 1.524 . S
C827 C828 1.415 . S
C828 H804 0.950 . S
C828 C823 1.363 . S
C828 C827 1.415 . S
C829 H805 0.951 . S
C829 C830 1.366 . S
C829 C831 1.388 . S
C830 C829 1.366 . S
C830 C834 1.385 . S
C831 H806 0.951 . S
C831 C829 1.388 . S
C831 C832 1.366 . S
C832 C831 1.366 . S
C832 C833 1.414 . S
C832 C835 1.499 . S
C833 H807 0.950 . S
C833 C832 1.414 . S
C833 C834 1.374 . S
C834 H808 0.950 . S
C834 C830 1.385 . S
C834 C833 1.374 . S
C835 C832 1.499 . S
C835 C836 1.373 . S
C835 C837 1.389 . S
C836 H809 0.950 . S
C836 C822 1.377 . S
C836 C835 1.373 . S
C837 C821 1.377 . S
C837 C835 1.389 . S
C837 C838 1.524 . S
C838 C837 1.524 . S
C838 C839 1.397 . S
C838 C843 1.363 . S
C839 H810 0.950 . S
C839 C838 1.397 . S
C839 C840 1.334 . S
C840 H811 0.950 1_554 S
C840 C839 1.334 . S
C840 C841 1.288 . S
C841 C840 1.288 . S
C841 C842 1.559 . S
C841 H844 0.962 1_554 S
C842 H812 0.950 . S
C842 C841 1.559 . S
C842 C843 1.415 . S
C843 H813 0.950 . S
C843 C838 1.363 . S
C843 C842 1.415 . S
H844 C841 0.962 1_556 S
H845 C826 0.913 . S
H846 C864 0.951 . S
H847 C866 0.951 . S
H848 C868 0.950 . S
H849 C869 0.950 . S
H850 C871 0.950 . S
H851 C874 0.950 . S
H852 C875 0.950 . S
H853 C877 0.950 . S
H854 C878 0.950 . S
H855 C879 0.951 1_554 S
H856 C881 0.951 . S
H857 C883 0.950 . S
H858 C884 0.950 . S
H859 C886 0.950 . S
H860 C889 0.950 . S
H861 C890 0.950 . S
H862 C892 0.950 . S
H863 C893 0.950 . S
C864 H846 0.951 . S
C864 C865 1.366 . S
C864 C866 1.388 . S
C865 C864 1.366 . S
C865 C869 1.385 . S
C866 H847 0.951 . S
C866 C864 1.388 . S
C866 C867 1.366 . S
C867 C866 1.366 . S
C867 C868 1.414 . S
C867 C870 1.499 . S
C868 H848 0.950 . S
C868 C867 1.414 . S
C868 C869 1.374 . S
C869 H849 0.950 . S
C869 C865 1.385 . S
C869 C868 1.374 . S
C870 C867 1.499 . S
C870 C871 1.373 . S
C870 C872 1.389 . S
C871 H850 0.950 . S
C871 C870 1.373 . S
C871 C887 1.377 . S
C872 C870 1.389 . S
C872 C873 1.524 . S
C872 C886 1.377 . S
C873 C872 1.524 . S
C873 C874 1.397 . S
C873 C878 1.363 . S
C874 H851 0.950 . S
C874 C873 1.397 . S
C874 C875 1.334 . S
C875 H852 0.950 . S
C875 C874 1.334 . S
C875 C876 1.287 . S
C876 C875 1.287 . S
C876 C877 1.524 . S
C876 H895 0.913 . S
C877 H853 0.950 . S
C877 C876 1.524 . S
C877 C878 1.415 . S
C878 H854 0.950 . S
C878 C873 1.363 . S
C878 C877 1.415 . S
C879 H855 0.951 1_556 S
C879 C880 1.366 . S
C879 C881 1.388 . S
C880 C879 1.366 . S
C880 C884 1.385 . S
C881 H856 0.951 . S
C881 C879 1.388 . S
C881 C882 1.366 . S
C882 C881 1.366 . S
C882 C883 1.414 . S
C882 C885 1.499 . S
C883 H857 0.950 . S
C883 C882 1.414 . S
C883 C884 1.374 . S
C884 H858 0.950 . S
C884 C880 1.385 . S
C884 C883 1.374 . S
C885 C882 1.499 . S
C885 C886 1.373 . S
C885 C887 1.389 . S
C886 H859 0.950 . S
C886 C872 1.377 . S
C886 C885 1.373 . S
C887 C871 1.377 . S
C887 C885 1.389 . S
C887 C888 1.524 . S
C888 C887 1.524 . S
C888 C889 1.397 . S
C888 C893 1.363 . S
C889 H860 0.950 . S
C889 C888 1.397 . S
C889 C890 1.334 . S
C890 H861 0.950 . S
C890 C889 1.334 . S
C890 C891 1.287 . S
C891 C890 1.287 . S
C891 C892 1.524 . S
C891 H894 0.999 . S
C892 H862 0.950 . S
C892 C891 1.524 . S
C892 C893 1.415 . S
C893 H863 0.950 . S
C893 C888 1.363 . S
C893 C892 1.415 . S
H894 C891 0.999 . S
H895 C876 0.913 . S
H896 C914 0.951 . S
H897 C916 0.951 . S
H898 C918 0.950 . S
H899 C919 0.950 . S
H900 C921 0.950 . S
H901 C924 0.950 . S
H902 C925 0.950 . S
H903 C927 0.950 . S
H904 C928 0.950 . S
H905 C929 0.951 1_455 S
H906 C931 0.951 . S
H907 C933 0.950 . S
H908 C934 0.950 . S
H909 C936 0.950 . S
H910 C939 0.950 . S
H911 C940 0.950 . S
H912 C942 0.950 . S
H913 C943 0.950 . S
C914 H896 0.951 . S
C914 C915 1.366 . S
C914 C916 1.388 . S
C915 C914 1.366 . S
C915 C919 1.385 . S
C916 H897 0.951 . S
C916 C914 1.388 . S
C916 C917 1.366 . S
C917 C916 1.366 . S
C917 C918 1.414 . S
C917 C920 1.499 . S
C918 H898 0.950 . S
C918 C917 1.414 . S
C918 C919 1.374 . S
C919 H899 0.950 . S
C919 C915 1.385 . S
C919 C918 1.374 . S
C920 C917 1.499 . S
C920 C921 1.373 . S
C920 C922 1.389 . S
C921 H900 0.950 . S
C921 C920 1.373 . S
C921 C937 1.377 . S
C922 C920 1.389 . S
C922 C923 1.524 . S
C922 C936 1.377 . S
C923 C922 1.524 . S
C923 C924 1.397 . S
C923 C928 1.363 . S
C924 H901 0.950 . S
C924 C923 1.397 . S
C924 C925 1.334 . S
C925 H902 0.950 . S
C925 C924 1.334 . S
C925 C926 1.287 . S
C926 C925 1.287 . S
C926 C927 1.524 . S
C926 H945 0.913 . S
C927 H903 0.950 . S
C927 C926 1.524 . S
C927 C928 1.415 . S
C928 H904 0.950 . S
C928 C923 1.363 . S
C928 C927 1.415 . S
C929 H905 0.951 1_655 S
C929 C930 1.366 . S
C929 C931 1.388 . S
C930 C929 1.366 . S
C930 C934 1.385 . S
C931 H906 0.951 . S
C931 C929 1.388 . S
C931 C932 1.366 . S
C932 C931 1.366 . S
C932 C933 1.414 . S
C932 C935 1.499 . S
C933 H907 0.950 . S
C933 C932 1.414 . S
C933 C934 1.374 . S
C934 H908 0.950 . S
C934 C930 1.385 . S
C934 C933 1.374 . S
C935 C932 1.499 . S
C935 C936 1.373 . S
C935 C937 1.389 . S
C936 H909 0.950 . S
C936 C922 1.377 . S
C936 C935 1.373 . S
C937 C921 1.377 . S
C937 C935 1.389 . S
C937 C938 1.524 . S
C938 C937 1.524 . S
C938 C939 1.397 . S
C938 C943 1.363 . S
C939 H910 0.950 . S
C939 C938 1.397 . S
C939 C940 1.334 . S
C940 H911 0.950 . S
C940 C939 1.334 . S
C940 C941 1.287 . S
C941 C940 1.287 . S
C941 C942 1.524 . S
C941 H944 0.999 . S
C942 H912 0.950 . S
C942 C941 1.524 . S
C942 C943 1.415 . S
C943 H913 0.950 . S
C943 C938 1.363 . S
C943 C942 1.415 . S
H944 C941 0.999 . S
H945 C926 0.913 . S
H946 C964 0.951 . S
H947 C966 0.951 . S
H948 C968 0.950 . S
H949 C969 0.950 . S
H950 C971 0.950 . S
H951 C974 0.950 . S
H952 C975 0.950 . S
H953 C977 0.950 . S
H954 C978 0.950 . S
H955 C979 0.951 . S
H956 C981 0.951 . S
H957 C983 0.950 . S
H958 C984 0.950 . S
H959 C986 0.950 . S
H960 C989 0.950 . S
H961 C990 0.950 . S
H962 C992 0.950 . S
H963 C993 0.950 . S
C964 H946 0.951 . S
C964 C965 1.366 . S
C964 C966 1.388 . S
C965 C964 1.366 . S
C965 C969 1.385 . S
C966 H947 0.951 . S
C966 C964 1.388 . S
C966 C967 1.366 . S
C967 C966 1.366 . S
C967 C968 1.414 . S
C967 C970 1.499 . S
C968 H948 0.950 . S
C968 C967 1.414 . S
C968 C969 1.374 . S
C969 H949 0.950 . S
C969 C965 1.385 . S
C969 C968 1.374 . S
C970 C967 1.499 . S
C970 C971 1.373 . S
C970 C972 1.389 . S
C971 H950 0.950 . S
C971 C970 1.373 . S
C971 C987 1.377 . S
C972 C970 1.389 . S
C972 C973 1.524 . S
C972 C986 1.377 . S
C973 C972 1.524 . S
C973 C974 1.397 . S
C973 C978 1.363 . S
C974 H951 0.950 . S
C974 C973 1.397 . S
C974 C975 1.334 . S
C975 H952 0.950 . S
C975 C974 1.334 . S
C975 C976 1.287 . S
C976 C975 1.287 . S
C976 C977 1.524 . S
C976 H995 0.913 . S
C977 H953 0.950 . S
C977 C976 1.524 . S
C977 C978 1.415 . S
C978 H954 0.950 . S
C978 C973 1.363 . S
C978 C977 1.415 . S
C979 H955 0.951 . S
C979 C980 1.366 . S
C979 C981 1.388 . S
C980 C979 1.366 . S
C980 C984 1.385 . S
C981 H956 0.951 . S
C981 C979 1.388 . S
C981 C982 1.366 . S
C982 C981 1.366 . S
C982 C983 1.414 . S
C982 C985 1.499 . S
C983 H957 0.950 . S
C983 C982 1.414 . S
C983 C984 1.374 . S
C984 H958 0.950 . S
C984 C980 1.385 . S
C984 C983 1.374 . S
C985 C982 1.499 . S
C985 C986 1.373 . S
C985 C987 1.389 . S
C986 H959 0.950 . S
C986 C972 1.377 . S
C986 C985 1.373 . S
C987 C971 1.377 . S
C987 C985 1.389 . S
C987 C988 1.524 . S
C988 C987 1.524 . S
C988 C989 1.397 . S
C988 C993 1.363 . S
C989 H960 0.950 . S
C989 C988 1.397 . S
C989 C990 1.334 . S
C990 H961 0.950 . S
C990 C989 1.334 . S
C990 C991 1.287 . S
C991 C990 1.287 . S
C991 C992 1.524 . S
C991 H994 0.999 . S
C992 H962 0.950 . S
C992 C991 1.524 . S
C992 C993 1.415 . S
C993 H963 0.950 . S
C993 C988 1.363 . S
C993 C992 1.415 . S
H994 C991 0.999 . S
H995 C976 0.913 . S
H996 C1014 0.951 1_455 S
H997 C1016 0.951 1_455 S
H998 C1018 0.950 . S
H999 C1019 0.950 . S
H1000 C1021 0.950 . S
H1001 C1024 0.950 . S
H1002 C1025 0.950 . S
H1003 C1027 0.950 1_455 S
H1004 C1028 0.916 1_455 S
H1005 C1029 0.951 1_565 S
H1006 C1031 0.951 . S
H1007 C1033 0.950 . S
H1008 C1034 0.950 . S
H1009 C1036 0.950 . S
H1010 C1039 0.950 . S
H1011 C1040 0.950 . S
H1012 C1042 0.950 . S
H1013 C1043 0.950 . S
C1014 H996 0.951 1_655 S
C1014 C1015 1.366 1_545 S
C1014 C1016 1.388 . S
C1015 C1014 1.366 1_565 S
C1015 C1019 1.385 . S
C1016 H997 0.951 1_655 S
C1016 C1014 1.388 . S
C1016 C1017 1.366 1_545 S
C1017 C1016 1.366 1_565 S
C1017 C1018 1.414 . S
C1017 C1020 1.499 . S
C1018 H998 0.950 . S
C1018 C1017 1.414 . S
C1018 C1019 1.374 . S
C1019 H999 0.950 . S
C1019 C1015 1.385 . S
C1019 C1018 1.374 . S
C1020 C1017 1.499 . S
C1020 C1021 1.373 . S
C1020 C1022 1.389 1_565 S
C1021 H1000 0.950 . S
C1021 C1020 1.373 . S
C1021 C1037 1.377 . S
C1022 C1020 1.389 1_545 S
C1022 C1023 1.524 . S
C1022 C1036 1.377 . S
C1023 C1022 1.524 . S
C1023 C1024 1.397 . S
C1023 C1028 1.393 . S
C1024 H1001 0.950 . S
C1024 C1023 1.397 . S
C1024 C1025 1.334 . S
C1025 H1002 0.950 . S
C1025 C1024 1.334 . S
C1025 C1026 1.287 . S
C1026 C1025 1.287 . S
C1026 C1027 1.524 . S
C1026 H1045 0.913 . S
C1027 H1003 0.950 1_655 S
C1027 C1026 1.524 . S
C1027 C1028 1.420 . S
C1028 H1004 0.916 1_655 S
C1028 C1023 1.393 . S
C1028 C1027 1.420 . S
C1029 H1005 0.951 1_545 S
C1029 C1030 1.366 . S
C1029 C1031 1.388 1_545 S
C1030 C1029 1.366 . S
C1030 C1034 1.385 1_655 S
C1031 H1006 0.951 . S
C1031 C1029 1.388 1_565 S
C1031 C1032 1.366 1_565 S
C1032 C1031 1.366 1_545 S
C1032 C1033 1.414 1_655 S
C1032 C1035 1.499 . S
C1033 H1007 0.950 . S
C1033 C1032 1.414 1_455 S
C1033 C1034 1.374 . S
C1034 H1008 0.950 . S
C1034 C1030 1.385 1_455 S
C1034 C1033 1.374 . S
C1035 C1032 1.499 . S
C1035 C1036 1.373 . S
C1035 C1037 1.389 1_545 S
C1036 H1009 0.950 . S
C1036 C1022 1.377 . S
C1036 C1035 1.373 . S
C1037 C1021 1.377 . S
C1037 C1035 1.389 1_565 S
C1037 C1038 1.524 . S
C1038 C1037 1.524 . S
C1038 C1039 1.397 1_655 S
C1038 C1043 1.363 . S
C1039 H1010 0.950 . S
C1039 C1038 1.397 1_455 S
C1039 C1040 1.334 . S
C1040 H1011 0.950 . S
C1040 C1039 1.334 . S
C1040 C1041 1.287 1_455 S
C1041 C1040 1.287 1_655 S
C1041 C1042 1.524 . S
C1041 H1044 0.999 . S
C1042 H1012 0.950 . S
C1042 C1041 1.524 . S
C1042 C1043 1.415 . S
C1043 H1013 0.950 . S
C1043 C1038 1.363 . S
C1043 C1042 1.415 . S
H1044 C1041 0.999 . S
H1045 C1026 0.913 . S
H1046 C1064 0.951 . S
H1047 C1066 0.951 . S
H1048 C1068 0.950 . S
H1049 C1069 0.950 . S
H1050 C1071 0.950 . S
H1051 C1074 0.950 . S
H1052 C1075 0.950 . S
H1053 C1077 0.950 1_565 S
H1054 C1078 0.950 1_565 S
H1055 C1079 0.951 . S
H1056 C1081 0.951 . S
H1057 C1083 0.950 1_565 S
H1058 C1084 0.950 1_565 S
H1059 C1086 0.950 . S
H1060 C1089 0.950 . S
H1061 C1090 0.950 . S
H1062 C1092 0.950 . S
H1063 C1093 0.950 . S
C1064 H1046 0.951 . S
C1064 C1065 1.366 . S
C1064 C1066 1.388 . S
C1065 C1064 1.366 . S
C1065 C1069 1.385 . S
C1066 H1047 0.951 . S
C1066 C1064 1.388 . S
C1066 C1067 1.366 . S
C1067 C1066 1.366 . S
C1067 C1068 1.414 . S
C1067 C1070 1.499 . S
C1068 H1048 0.950 . S
C1068 C1067 1.414 . S
C1068 C1069 1.374 . S
C1069 H1049 0.950 . S
C1069 C1065 1.385 . S
C1069 C1068 1.374 . S
C1070 C1067 1.499 . S
C1070 C1071 1.373 . S
C1070 C1072 1.389 . S
C1071 H1050 0.950 . S
C1071 C1070 1.373 . S
C1071 C1087 1.377 . S
C1072 C1070 1.389 . S
C1072 C1073 1.524 . S
C1072 C1086 1.377 . S
C1073 C1072 1.524 . S
C1073 C1074 1.397 . S
C1073 C1078 1.363 . S
C1074 H1051 0.950 . S
C1074 C1073 1.397 . S
C1074 C1075 1.334 . S
C1075 H1052 0.950 . S
C1075 C1074 1.334 . S
C1075 C1076 1.287 . S
C1076 C1075 1.287 . S
C1076 C1077 1.524 . S
C1076 H1095 0.913 . S
C1077 H1053 0.950 1_545 S
C1077 C1076 1.524 . S
C1077 C1078 1.415 . S
C1078 H1054 0.950 1_545 S
C1078 C1073 1.363 . S
C1078 C1077 1.415 . S
C1079 H1055 0.951 . S
C1079 C1080 1.366 . S
C1079 C1081 1.388 . S
C1080 C1079 1.366 . S
C1080 C1084 1.385 . S
C1081 H1056 0.951 . S
C1081 C1079 1.388 . S
C1081 C1082 1.366 . S
C1082 C1081 1.366 . S
C1082 C1083 1.414 . S
C1082 C1085 1.499 . S
C1083 H1057 0.950 1_545 S
C1083 C1082 1.414 . S
C1083 C1084 1.374 . S
C1084 H1058 0.950 1_545 S
C1084 C1080 1.385 . S
C1084 C1083 1.374 . S
C1085 C1082 1.499 . S
C1085 C1086 1.373 . S
C1085 C1087 1.389 . S
C1086 H1059 0.950 . S
C1086 C1072 1.377 . S
C1086 C1085 1.373 . S
C1087 C1071 1.377 . S
C1087 C1085 1.389 . S
C1087 C1088 1.524 . S
C1088 C1087 1.524 . S
C1088 C1089 1.397 . S
C1088 C1093 1.363 . S
C1089 H1060 0.950 . S
C1089 C1088 1.397 . S
C1089 C1090 1.334 . S
C1090 H1061 0.950 . S
C1090 C1089 1.334 . S
C1090 C1091 1.287 . S
C1091 C1090 1.287 . S
C1091 C1092 1.524 . S
C1091 H1094 0.999 . S
C1092 H1062 0.950 . S
C1092 C1091 1.524 . S
C1092 C1093 1.415 . S
C1093 H1063 0.950 . S
C1093 C1088 1.363 . S
C1093 C1092 1.415 . S
H1094 C1091 0.999 . S
H1095 C1076 0.913 . S
H1096 C1114 0.951 . S
H1097 C1116 0.951 . S
H1098 C1118 0.950 . S
H1099 C1119 0.950 . S
H1100 C1121 0.950 . S
H1101 C1124 0.950 . S
H1102 C1125 0.950 . S
H1103 C1127 0.950 . S
H1104 C1128 0.950 . S
H1105 C1129 0.951 . S
H1106 C1131 0.951 . S
H1107 C1133 0.950 . S
H1108 C1134 0.950 . S
H1109 C1136 0.950 . S
H1110 C1139 0.950 . S
H1111 C1140 0.950 . S
H1112 C1142 0.950 . S
H1113 C1143 0.950 . S
C1114 H1096 0.951 . S
C1114 C1115 1.366 . S
C1114 C1116 1.388 . S
C1115 C1114 1.366 . S
C1115 C1119 1.385 . S
C1116 H1097 0.951 . S
C1116 C1114 1.388 . S
C1116 C1117 1.366 . S
C1117 C1116 1.366 . S
C1117 C1118 1.414 . S
C1117 C1120 1.499 . S
C1118 H1098 0.950 . S
C1118 C1117 1.414 . S
C1118 C1119 1.374 . S
C1119 H1099 0.950 . S
C1119 C1115 1.385 . S
C1119 C1118 1.374 . S
C1120 C1117 1.499 . S
C1120 C1121 1.373 . S
C1120 C1122 1.389 . S
C1121 H1100 0.950 . S
C1121 C1120 1.373 . S
C1121 C1137 1.377 . S
C1122 C1120 1.389 . S
C1122 C1123 1.524 . S
C1122 C1136 1.377 . S
C1123 C1122 1.524 . S
C1123 C1124 1.397 . S
C1123 C1128 1.363 . S
C1124 H1101 0.950 . S
C1124 C1123 1.397 . S
C1124 C1125 1.334 . S
C1125 H1102 0.950 . S
C1125 C1124 1.334 . S
C1125 C1126 1.287 . S
C1126 C1125 1.287 . S
C1126 C1127 1.524 . S
C1126 H1145 0.913 . S
C1127 H1103 0.950 . S
C1127 C1126 1.524 . S
C1127 C1128 1.415 . S
C1128 H1104 0.950 . S
C1128 C1123 1.363 . S
C1128 C1127 1.415 . S
C1129 H1105 0.951 . S
C1129 C1130 1.366 . S
C1129 C1131 1.388 . S
C1130 C1129 1.366 . S
C1130 C1134 1.385 . S
C1131 H1106 0.951 . S
C1131 C1129 1.388 . S
C1131 C1132 1.366 . S
C1132 C1131 1.366 . S
C1132 C1133 1.414 . S
C1132 C1135 1.499 . S
C1133 H1107 0.950 . S
C1133 C1132 1.414 . S
C1133 C1134 1.374 . S
C1134 H1108 0.950 . S
C1134 C1130 1.385 . S
C1134 C1133 1.374 . S
C1135 C1132 1.499 . S
C1135 C1136 1.373 . S
C1135 C1137 1.389 . S
C1136 H1109 0.950 . S
C1136 C1122 1.377 . S
C1136 C1135 1.373 . S
C1137 C1121 1.377 . S
C1137 C1135 1.389 . S
C1137 C1138 1.524 . S
C1138 C1137 1.524 . S
C1138 C1139 1.397 . S
C1138 C1143 1.363 . S
C1139 H1110 0.950 . S
C1139 C1138 1.397 . S
C1139 C1140 1.334 . S
C1140 H1111 0.950 . S
C1140 C1139 1.334 . S
C1140 C1141 1.287 . S
C1141 C1140 1.287 . S
C1141 C1142 1.524 . S
C1141 H1144 0.999 . S
C1142 H1112 0.950 . S
C1142 C1141 1.524 . S
C1142 C1143 1.415 . S
C1143 H1113 0.950 . S
C1143 C1138 1.363 . S
C1143 C1142 1.415 . S
H1144 C1141 0.999 . S
H1145 C1126 0.913 . S
H1146 C1164 0.951 . S
H1147 C1166 0.951 . S
H1148 C1168 0.950 . S
H1149 C1169 0.950 . S
H1150 C1171 0.950 . S
H1151 C1174 0.950 . S
H1152 C1175 0.950 . S
H1153 C1177 0.950 . S
H1154 C1178 0.950 . S
H1155 C1179 0.951 . S
H1156 C1181 0.951 . S
H1157 C1183 0.950 . S
H1158 C1184 0.950 . S
H1159 C1186 0.950 . S
H1160 C1189 0.950 . S
H1161 C1190 0.950 . S
H1162 C1192 0.950 . S
H1163 C1193 0.950 . S
C1164 H1146 0.951 . S
C1164 C1165 1.366 . S
C1164 C1166 1.388 . S
C1165 C1164 1.366 . S
C1165 C1169 1.385 . S
C1166 H1147 0.951 . S
C1166 C1164 1.388 . S
C1166 C1167 1.366 . S
C1167 C1166 1.366 . S
C1167 C1168 1.414 . S
C1167 C1170 1.499 . S
C1168 H1148 0.950 . S
C1168 C1167 1.414 . S
C1168 C1169 1.374 . S
C1169 H1149 0.950 . S
C1169 C1165 1.385 . S
C1169 C1168 1.374 . S
C1170 C1167 1.499 . S
C1170 C1171 1.373 . S
C1170 C1172 1.389 . S
C1171 H1150 0.950 . S
C1171 C1170 1.373 . S
C1171 C1187 1.377 . S
C1172 C1170 1.389 . S
C1172 C1173 1.524 . S
C1172 C1186 1.377 . S
C1173 C1172 1.524 . S
C1173 C1174 1.397 . S
C1173 C1178 1.363 . S
C1174 H1151 0.950 . S
C1174 C1173 1.397 . S
C1174 C1175 1.334 . S
C1175 H1152 0.950 . S
C1175 C1174 1.334 . S
C1175 C1176 1.287 . S
C1176 C1175 1.287 . S
C1176 C1177 1.524 . S
C1176 H1195 0.913 . S
C1177 H1153 0.950 . S
C1177 C1176 1.524 . S
C1177 C1178 1.415 . S
C1178 H1154 0.950 . S
C1178 C1173 1.363 . S
C1178 C1177 1.415 . S
C1179 H1155 0.951 . S
C1179 C1180 1.366 . S
C1179 C1181 1.388 . S
C1180 C1179 1.366 . S
C1180 C1184 1.385 . S
C1181 H1156 0.951 . S
C1181 C1179 1.388 . S
C1181 C1182 1.366 . S
C1182 C1181 1.366 . S
C1182 C1183 1.414 . S
C1182 C1185 1.499 . S
C1183 H1157 0.950 . S
C1183 C1182 1.414 . S
C1183 C1184 1.374 . S
C1184 H1158 0.950 . S
C1184 C1180 1.385 . S
C1184 C1183 1.374 . S
C1185 C1182 1.499 . S
C1185 C1186 1.373 . S
C1185 C1187 1.389 . S
C1186 H1159 0.950 . S
C1186 C1172 1.377 . S
C1186 C1185 1.373 . S
C1187 C1171 1.377 . S
C1187 C1185 1.389 . S
C1187 C1188 1.524 . S
C1188 C1187 1.524 . S
C1188 C1189 1.397 1_455 S
C1188 C1193 1.363 . S
C1189 H1160 0.950 . S
C1189 C1188 1.397 1_655 S
C1189 C1190 1.334 . S
C1190 H1161 0.950 . S
C1190 C1189 1.334 . S
C1190 C1191 1.287 . S
C1191 C1190 1.287 . S
C1191 C1192 1.524 . S
C1191 H1194 0.999 . S
C1192 H1162 0.950 . S
C1192 C1191 1.524 . S
C1192 C1193 1.415 1_655 S
C1193 H1163 0.950 . S
C1193 C1188 1.363 . S
C1193 C1192 1.415 1_455 S
H1194 C1191 0.999 . S
H1195 C1176 0.913 . S
H1196 C1214 0.951 . S
H1197 C1216 0.951 . S
H1198 C1218 0.950 1_554 S
H1199 C1219 0.953 1_545 S
H1200 C1221 0.950 . S
H1201 C1224 0.950 1_545 S
H1202 C1225 0.950 . S
H1203 C1227 0.950 . S
H1204 C1228 0.950 . S
H1205 C1229 0.951 . S
H1206 C1231 0.951 . S
H1207 C1233 0.950 1_556 S
H1208 C1234 0.950 . S
H1209 C1236 0.950 . S
H1210 C1239 0.950 . S
H1211 C1240 0.950 . S
H1212 C1242 0.950 . S
H1213 C1243 0.950 . S
C1214 H1196 0.951 . S
C1214 C1215 1.366 . S
C1214 C1216 1.388 . S
C1215 C1214 1.366 . S
C1215 C1219 1.381 . S
C1216 H1197 0.951 . S
C1216 C1214 1.388 . S
C1216 C1217 1.366 . S
C1217 C1216 1.366 . S
C1217 C1218 1.414 1_565 S
C1217 C1220 1.499 . S
C1218 H1198 0.950 1_556 S
C1218 C1217 1.414 1_545 S
C1218 C1219 1.374 1_545 S
C1219 H1199 0.953 1_565 S
C1219 C1215 1.381 . S
C1219 C1218 1.374 1_565 S
C1220 C1217 1.499 . S
C1220 C1221 1.373 1_556 S
C1220 C1222 1.389 . S
C1221 H1200 0.950 . S
C1221 C1220 1.373 1_554 S
C1221 C1237 1.377 . S
C1222 C1220 1.389 . S
C1222 C1223 1.524 . S
C1222 C1236 1.377 . S
C1223 C1222 1.524 . S
C1223 C1224 1.397 . S
C1223 C1228 1.363 . S
C1224 H1201 0.950 1_565 S
C1224 C1223 1.397 . S
C1224 C1225 1.334 . S
C1225 H1202 0.950 . S
C1225 C1224 1.334 . S
C1225 C1226 1.287 . S
C1226 C1225 1.287 . S
C1226 C1227 1.524 . S
C1226 H1245 0.913 . S
C1227 H1203 0.950 . S
C1227 C1226 1.524 . S
C1227 C1228 1.415 . S
C1228 H1204 0.950 . S
C1228 C1223 1.363 . S
C1228 C1227 1.415 . S
C1229 H1205 0.951 . S
C1229 C1230 1.366 1_545 S
C1229 C1231 1.388 . S
C1230 C1229 1.366 1_565 S
C1230 C1234 1.385 . S
C1231 H1206 0.951 . S
C1231 C1229 1.388 . S
C1231 C1232 1.366 1_545 S
C1232 C1231 1.366 1_565 S
C1232 C1233 1.414 . S
C1232 C1235 1.499 . S
C1233 H1207 0.950 1_554 S
C1233 C1232 1.414 . S
C1233 C1234 1.374 . S
C1234 H1208 0.950 . S
C1234 C1230 1.385 . S
C1234 C1233 1.374 . S
C1235 C1232 1.499 . S
C1235 C1236 1.373 1_554 S
C1235 C1237 1.389 . S
C1236 H1209 0.950 . S
C1236 C1222 1.377 . S
C1236 C1235 1.373 1_556 S
C1237 C1221 1.377 . S
C1237 C1235 1.389 . S
C1237 C1238 1.524 1_565 S
C1238 C1237 1.524 1_545 S
C1238 C1239 1.397 1_545 S
C1238 C1243 1.363 . S
C1239 H1210 0.950 . S
C1239 C1238 1.397 1_565 S
C1239 C1240 1.334 . S
C1240 H1211 0.950 . S
C1240 C1239 1.334 . S
C1240 C1241 1.287 1_565 S
C1241 C1240 1.287 1_545 S
C1241 C1242 1.524 . S
C1241 H1244 0.999 . S
C1242 H1212 0.950 . S
C1242 C1241 1.524 . S
C1242 C1243 1.415 . S
C1243 H1213 0.950 . S
C1243 C1238 1.363 . S
C1243 C1242 1.415 . S
H1244 C1241 0.999 . S
H1245 C1226 0.913 . S
H1246 C1264 0.951 . S
H1247 C1266 0.951 . S
H1248 C1268 0.950 . S
H1249 C1269 0.950 . S
H1250 C1271 0.950 . S
H1251 C1274 0.950 . S
H1252 C1275 0.950 . S
H1253 C1277 0.950 1_565 S
H1254 C1278 0.950 . S
H1255 C1279 0.951 . S
H1256 C1281 0.951 . S
H1257 C1283 0.950 . S
H1258 C1284 0.950 . S
H1259 C1286 0.950 . S
H1260 C1289 0.950 . S
H1261 C1290 0.950 . S
H1262 C1292 0.950 . S
H1263 C1293 0.950 . S
C1264 H1246 0.951 . S
C1264 C1265 1.366 . S
C1264 C1266 1.388 . S
C1265 C1264 1.366 . S
C1265 C1269 1.385 . S
C1266 H1247 0.951 . S
C1266 C1264 1.388 . S
C1266 C1267 1.366 . S
C1267 C1266 1.366 . S
C1267 C1268 1.414 . S
C1267 C1270 1.499 . S
C1268 H1248 0.950 . S
C1268 C1267 1.414 . S
C1268 C1269 1.374 . S
C1269 H1249 0.950 . S
C1269 C1265 1.385 . S
C1269 C1268 1.374 . S
C1270 C1267 1.499 . S
C1270 C1271 1.373 . S
C1270 C1272 1.389 . S
C1271 H1250 0.950 . S
C1271 C1270 1.373 . S
C1271 C1287 1.377 . S
C1272 C1270 1.389 . S
C1272 C1273 1.524 . S
C1272 C1286 1.377 . S
C1273 C1272 1.524 . S
C1273 C1274 1.397 . S
C1273 C1278 1.363 . S
C1274 H1251 0.950 . S
C1274 C1273 1.397 . S
C1274 C1275 1.334 . S
C1275 H1252 0.950 . S
C1275 C1274 1.334 . S
C1275 C1276 1.287 . S
C1276 C1275 1.287 . S
C1276 C1277 1.524 . S
C1276 H1295 0.913 . S
C1277 H1253 0.950 1_545 S
C1277 C1276 1.524 . S
C1277 C1278 1.415 . S
C1278 H1254 0.950 . S
C1278 C1273 1.363 . S
C1278 C1277 1.415 . S
C1279 H1255 0.951 . S
C1279 C1280 1.366 . S
C1279 C1281 1.388 . S
C1280 C1279 1.366 . S
C1280 C1284 1.385 . S
C1281 H1256 0.951 . S
C1281 C1279 1.388 . S
C1281 C1282 1.366 . S
C1282 C1281 1.366 . S
C1282 C1283 1.414 . S
C1282 C1285 1.499 . S
C1283 H1257 0.950 . S
C1283 C1282 1.414 . S
C1283 C1284 1.374 . S
C1284 H1258 0.950 . S
C1284 C1280 1.385 . S
C1284 C1283 1.374 . S
C1285 C1282 1.499 . S
C1285 C1286 1.373 . S
C1285 C1287 1.389 . S
C1286 H1259 0.950 . S
C1286 C1272 1.377 . S
C1286 C1285 1.373 . S
C1287 C1271 1.377 . S
C1287 C1285 1.389 . S
C1287 C1288 1.524 . S
C1288 C1287 1.524 . S
C1288 C1289 1.397 . S
C1288 C1293 1.363 . S
C1289 H1260 0.950 . S
C1289 C1288 1.397 . S
C1289 C1290 1.334 . S
C1290 H1261 0.950 . S
C1290 C1289 1.334 . S
C1290 C1291 1.287 . S
C1291 C1290 1.287 . S
C1291 C1292 1.524 . S
C1291 H1294 0.999 . S
C1292 H1262 0.950 . S
C1292 C1291 1.524 . S
C1292 C1293 1.415 . S
C1293 H1263 0.950 . S
C1293 C1288 1.363 . S
C1293 C1292 1.415 . S
H1294 C1291 0.999 . S
H1295 C1276 0.913 . S
H1296 C1314 0.951 . S
H1297 C1316 0.951 . S
H1298 C1318 0.950 . S
H1299 C1319 0.950 . S
H1300 C1321 0.950 . S
H1301 C1324 0.950 . S
H1302 C1325 0.950 . S
H1303 C1327 0.950 . S
H1304 C1328 0.950 . S
H1305 C1329 0.951 . S
H1306 C1331 0.951 . S
H1307 C1333 0.950 . S
H1308 C1334 0.950 . S
H1309 C1336 0.950 . S
H1310 C1339 0.950 . S
H1311 C1340 0.950 . S
H1312 C1342 0.950 . S
H1313 C1343 0.950 . S
C1314 H1296 0.951 . S
C1314 C1315 1.366 . S
C1314 C1316 1.388 . S
C1315 C1314 1.366 . S
C1315 C1319 1.385 . S
C1316 H1297 0.951 . S
C1316 C1314 1.388 . S
C1316 C1317 1.366 . S
C1317 C1316 1.366 . S
C1317 C1318 1.414 . S
C1317 C1320 1.499 . S
C1318 H1298 0.950 . S
C1318 C1317 1.414 . S
C1318 C1319 1.374 . S
C1319 H1299 0.950 . S
C1319 C1315 1.385 . S
C1319 C1318 1.374 . S
C1320 C1317 1.499 . S
C1320 C1321 1.373 . S
C1320 C1322 1.389 . S
C1321 H1300 0.950 . S
C1321 C1320 1.373 . S
C1321 C1337 1.377 . S
C1322 C1320 1.389 . S
C1322 C1323 1.524 . S
C1322 C1336 1.377 . S
C1323 C1322 1.524 . S
C1323 C1324 1.397 . S
C1323 C1328 1.363 . S
C1324 H1301 0.950 . S
C1324 C1323 1.397 . S
C1324 C1325 1.334 . S
C1325 H1302 0.950 . S
C1325 C1324 1.334 . S
C1325 C1326 1.287 . S
C1326 C1325 1.287 . S
C1326 C1327 1.524 . S
C1326 H1345 0.913 . S
C1327 H1303 0.950 . S
C1327 C1326 1.524 . S
C1327 C1328 1.415 . S
C1328 H1304 0.950 . S
C1328 C1323 1.363 . S
C1328 C1327 1.415 . S
C1329 H1305 0.951 . S
C1329 C1330 1.366 . S
C1329 C1331 1.388 . S
C1330 C1329 1.366 . S
C1330 C1334 1.385 . S
C1331 H1306 0.951 . S
C1331 C1329 1.388 . S
C1331 C1332 1.366 . S
C1332 C1331 1.366 . S
C1332 C1333 1.414 . S
C1332 C1335 1.499 . S
C1333 H1307 0.950 . S
C1333 C1332 1.414 . S
C1333 C1334 1.374 . S
C1334 H1308 0.950 . S
C1334 C1330 1.385 . S
C1334 C1333 1.374 . S
C1335 C1332 1.499 . S
C1335 C1336 1.373 . S
C1335 C1337 1.389 . S
C1336 H1309 0.950 . S
C1336 C1322 1.377 . S
C1336 C1335 1.373 . S
C1337 C1321 1.377 . S
C1337 C1335 1.389 . S
C1337 C1338 1.524 1_554 S
C1338 C1337 1.524 1_556 S
C1338 C1339 1.397 . S
C1338 C1343 1.363 . S
C1339 H1310 0.950 . S
C1339 C1338 1.397 . S
C1339 C1340 1.334 . S
C1340 H1311 0.950 . S
C1340 C1339 1.334 . S
C1340 C1341 1.287 . S
C1341 C1340 1.287 . S
C1341 C1342 1.524 . S
C1341 H1344 0.999 . S
C1342 H1312 0.950 . S
C1342 C1341 1.524 . S
C1342 C1343 1.415 . S
C1343 H1313 0.950 . S
C1343 C1338 1.363 . S
C1343 C1342 1.415 . S
H1344 C1341 0.999 . S
H1345 C1326 0.913 . S
H1346 C1364 0.951 . S
H1347 C1366 0.951 . S
H1348 C1368 0.950 . S
H1349 C1369 0.950 . S
H1350 C1371 0.950 . S
H1351 C1374 0.950 . S
H1352 C1375 0.950 . S
H1353 C1377 0.950 . S
H1354 C1378 0.950 . S
H1355 C1379 0.951 . S
H1356 C1381 0.951 . S
H1357 C1383 0.950 . S
H1358 C1384 0.950 . S
H1359 C1386 0.950 . S
H1360 C1389 0.950 . S
H1361 C1390 0.950 . S
H1362 C1392 0.950 . S
H1363 C1393 0.950 . S
C1364 H1346 0.951 . S
C1364 C1365 1.366 . S
C1364 C1366 1.388 . S
C1365 C1364 1.366 . S
C1365 C1369 1.385 . S
C1366 H1347 0.951 . S
C1366 C1364 1.388 . S
C1366 C1367 1.366 . S
C1367 C1366 1.366 . S
C1367 C1368 1.414 . S
C1367 C1370 1.499 . S
C1368 H1348 0.950 . S
C1368 C1367 1.414 . S
C1368 C1369 1.374 . S
C1369 H1349 0.950 . S
C1369 C1365 1.385 . S
C1369 C1368 1.374 . S
C1370 C1367 1.499 . S
C1370 C1371 1.373 . S
C1370 C1372 1.389 . S
C1371 H1350 0.950 . S
C1371 C1370 1.373 . S
C1371 C1387 1.377 . S
C1372 C1370 1.389 . S
C1372 C1373 1.524 . S
C1372 C1386 1.377 . S
C1373 C1372 1.524 . S
C1373 C1374 1.397 . S
C1373 C1378 1.363 . S
C1374 H1351 0.950 . S
C1374 C1373 1.397 . S
C1374 C1375 1.334 . S
C1375 H1352 0.950 . S
C1375 C1374 1.334 . S
C1375 C1376 1.287 . S
C1376 C1375 1.287 . S
C1376 C1377 1.524 . S
C1376 H1395 0.913 . S
C1377 H1353 0.950 . S
C1377 C1376 1.524 . S
C1377 C1378 1.415 . S
C1378 H1354 0.950 . S
C1378 C1373 1.363 . S
C1378 C1377 1.415 . S
C1379 H1355 0.951 . S
C1379 C1380 1.366 . S
C1379 C1381 1.388 . S
C1380 C1379 1.366 . S
C1380 C1384 1.385 . S
C1381 H1356 0.951 . S
C1381 C1379 1.388 . S
C1381 C1382 1.366 . S
C1382 C1381 1.366 . S
C1382 C1383 1.414 . S
C1382 C1385 1.499 . S
C1383 H1357 0.950 . S
C1383 C1382 1.414 . S
C1383 C1384 1.374 . S
C1384 H1358 0.950 . S
C1384 C1380 1.385 . S
C1384 C1383 1.374 . S
C1385 C1382 1.499 . S
C1385 C1386 1.373 . S
C1385 C1387 1.389 . S
C1386 H1359 0.950 . S
C1386 C1372 1.377 . S
C1386 C1385 1.373 . S
C1387 C1371 1.377 . S
C1387 C1385 1.389 . S
C1387 C1388 1.524 . S
C1388 C1387 1.524 . S
C1388 C1389 1.397 . S
C1388 C1393 1.363 . S
C1389 H1360 0.950 . S
C1389 C1388 1.397 . S
C1389 C1390 1.334 . S
C1390 H1361 0.950 . S
C1390 C1389 1.334 . S
C1390 C1391 1.287 . S
C1391 C1390 1.287 . S
C1391 C1392 1.524 . S
C1391 H1394 0.999 . S
C1392 H1362 0.950 . S
C1392 C1391 1.524 . S
C1392 C1393 1.415 . S
C1393 H1363 0.950 . S
C1393 C1388 1.363 . S
C1393 C1392 1.415 . S
H1394 C1391 0.999 . S
H1395 C1376 0.913 . S
H1396 C1414 0.951 . S
H1397 C1416 0.951 . S
H1398 C1418 0.950 . S
H1399 C1419 0.950 . S
H1400 C1421 0.950 . S
H1401 C1424 0.950 . S
H1402 C1425 0.950 . S
H1403 C1427 0.950 . S
H1404 C1428 0.950 . S
H1405 C1429 0.951 . S
H1406 C1431 0.951 . S
H1407 C1433 0.950 . S
H1408 C1434 0.950 . S
H1409 C1436 0.950 . S
H1410 C1439 0.950 . S
H1411 C1440 0.950 . S
H1412 C1442 0.950 . S
H1413 C1443 0.950 . S
C1414 H1396 0.951 . S
C1414 C1415 1.366 . S
C1414 C1416 1.388 . S
C1415 C1414 1.366 . S
C1415 C1419 1.385 1_655 S
C1416 H1397 0.951 . S
C1416 C1414 1.388 . S
C1416 C1417 1.366 . S
C1417 C1416 1.366 . S
C1417 C1418 1.414 1_655 S
C1417 C1420 1.499 . S
C1418 H1398 0.950 . S
C1418 C1417 1.414 1_455 S
C1418 C1419 1.374 . S
C1419 H1399 0.950 . S
C1419 C1415 1.385 1_455 S
C1419 C1418 1.374 . S
C1420 C1417 1.499 . S
C1420 C1421 1.373 1_655 S
C1420 C1422 1.389 1_556 S
C1421 H1400 0.950 . S
C1421 C1420 1.373 1_455 S
C1421 C1437 1.377 . S
C1422 C1420 1.389 1_554 S
C1422 C1423 1.524 . S
C1422 C1436 1.377 . S
C1423 C1422 1.524 . S
C1423 C1424 1.397 . S
C1423 C1428 1.363 . S
C1424 H1401 0.950 . S
C1424 C1423 1.397 . S
C1424 C1425 1.334 . S
C1425 H1402 0.950 . S
C1425 C1424 1.334 . S
C1425 C1426 1.287 . S
C1426 C1425 1.287 . S
C1426 C1427 1.524 . S
C1426 H1445 0.913 . S
C1427 H1403 0.950 . S
C1427 C1426 1.524 . S
C1427 C1428 1.415 . S
C1428 H1404 0.950 . S
C1428 C1423 1.363 . S
C1428 C1427 1.415 . S
C1429 H1405 0.951 . S
C1429 C1430 1.366 . S
C1429 C1431 1.388 . S
C1430 C1429 1.366 . S
C1430 C1434 1.385 1_455 S
C1431 H1406 0.951 . S
C1431 C1429 1.388 . S
C1431 C1432 1.366 . S
C1432 C1431 1.366 . S
C1432 C1433 1.414 1_455 S
C1432 C1435 1.499 . S
C1433 H1407 0.950 . S
C1433 C1432 1.414 1_655 S
C1433 C1434 1.374 . S
C1434 H1408 0.950 . S
C1434 C1430 1.385 1_655 S
C1434 C1433 1.374 . S
C1435 C1432 1.499 . S
C1435 C1436 1.373 1_456 S
C1435 C1437 1.389 . S
C1436 H1409 0.950 . S
C1436 C1422 1.377 . S
C1436 C1435 1.373 1_654 S
C1437 C1421 1.377 . S
C1437 C1435 1.389 . S
C1437 C1438 1.524 . S
C1438 C1437 1.524 . S
C1438 C1439 1.397 . S
C1438 C1443 1.363 . S
C1439 H1410 0.950 . S
C1439 C1438 1.397 . S
C1439 C1440 1.334 . S
C1440 H1411 0.950 . S
C1440 C1439 1.334 . S
C1440 C1441 1.287 . S
C1441 C1440 1.287 . S
C1441 C1442 1.524 . S
C1441 H1444 0.999 . S
C1442 H1412 0.950 . S
C1442 C1441 1.524 . S
C1442 C1443 1.415 . S
C1443 H1413 0.950 . S
C1443 C1438 1.363 . S
C1443 C1442 1.415 . S
H1444 C1441 0.999 . S
H1445 C1426 0.913 . S
H1446 C1464 0.951 . S
H1447 C1466 0.951 . S
H1448 C1468 0.950 . S
H1449 C1469 0.950 . S
H1450 C1471 0.950 . S
H1451 C1474 0.987 . S
H1452 C1475 0.950 . S
H1453 C1477 0.950 . S
H1454 C1478 0.950 . S
H1455 C1479 0.951 . S
H1456 C1481 0.951 . S
H1457 C1483 0.950 . S
H1458 C1484 0.950 . S
H1459 C1486 0.950 . S
H1460 C1489 0.950 . S
H1461 C1490 0.950 . S
H1462 C1492 0.950 . S
H1463 C1493 0.950 . S
C1464 H1446 0.951 . S
C1464 C1465 1.366 . S
C1464 C1466 1.388 . S
C1465 C1464 1.366 . S
C1465 C1469 1.385 . S
C1466 H1447 0.951 . S
C1466 C1464 1.388 . S
C1466 C1467 1.366 . S
C1467 C1466 1.366 . S
C1467 C1468 1.414 . S
C1467 C1470 1.499 . S
C1468 H1448 0.950 . S
C1468 C1467 1.414 . S
C1468 C1469 1.374 . S
C1469 H1449 0.950 . S
C1469 C1465 1.385 . S
C1469 C1468 1.374 . S
C1470 C1467 1.499 . S
C1470 C1471 1.373 . S
C1470 C1472 1.389 . S
C1471 H1450 0.950 . S
C1471 C1470 1.373 . S
C1471 C1487 1.377 . S
C1472 C1470 1.389 . S
C1472 C1473 1.524 . S
C1472 C1486 1.377 . S
C1473 C1472 1.524 . S
C1473 C1474 1.401 . S
C1473 C1478 1.363 1_554 S
C1474 H1451 0.987 . S
C1474 C1473 1.401 . S
C1474 C1475 1.295 1_554 S
C1475 H1452 0.950 . S
C1475 C1474 1.295 1_556 S
C1475 C1476 1.287 . S
C1476 C1475 1.287 . S
C1476 C1477 1.524 . S
C1476 H1495 0.913 . S
C1477 H1453 0.950 . S
C1477 C1476 1.524 . S
C1477 C1478 1.415 . S
C1478 H1454 0.950 . S
C1478 C1473 1.363 1_556 S
C1478 C1477 1.415 . S
C1479 H1455 0.951 . S
C1479 C1480 1.366 . S
C1479 C1481 1.388 . S
C1480 C1479 1.366 . S
C1480 C1484 1.385 . S
C1481 H1456 0.951 . S
C1481 C1479 1.388 . S
C1481 C1482 1.366 . S
C1482 C1481 1.366 . S
C1482 C1483 1.414 . S
C1482 C1485 1.499 . S
C1483 H1457 0.950 . S
C1483 C1482 1.414 . S
C1483 C1484 1.374 . S
C1484 H1458 0.950 . S
C1484 C1480 1.385 . S
C1484 C1483 1.374 . S
C1485 C1482 1.499 . S
C1485 C1486 1.373 . S
C1485 C1487 1.389 . S
C1486 H1459 0.950 . S
C1486 C1472 1.377 . S
C1486 C1485 1.373 . S
C1487 C1471 1.377 . S
C1487 C1485 1.389 . S
C1487 C1488 1.524 . S
C1488 C1487 1.524 . S
C1488 C1489 1.397 . S
C1488 C1493 1.363 . S
C1489 H1460 0.950 . S
C1489 C1488 1.397 . S
C1489 C1490 1.334 . S
C1490 H1461 0.950 . S
C1490 C1489 1.334 . S
C1490 C1491 1.287 . S
C1491 C1490 1.287 . S
C1491 C1492 1.524 . S
C1491 H1494 0.999 . S
C1492 H1462 0.950 . S
C1492 C1491 1.524 . S
C1492 C1493 1.415 . S
C1493 H1463 0.950 . S
C1493 C1488 1.363 . S
C1493 C1492 1.415 . S
H1494 C1491 0.999 . S
H1495 C1476 0.913 . S
H1496 C1514 0.951 . S
H1497 C1516 0.951 . S
H1498 C1518 0.950 . S
H1499 C1519 0.950 . S
H1500 C1521 0.950 . S
H1501 C1524 0.950 . S
H1502 C1525 0.950 . S
H1503 C1527 0.950 . S
H1504 C1528 0.950 . S
H1505 C1529 0.951 1_655 S
H1506 C1531 0.951 1_655 S
H1507 C1533 0.950 . S
H1508 C1534 0.950 . S
H1509 C1536 0.950 . S
H1510 C1539 0.950 . S
H1511 C1540 0.950 . S
H1512 C1542 0.950 . S
H1513 C1543 0.950 . S
C1514 H1496 0.951 . S
C1514 C1515 1.366 . S
C1514 C1516 1.388 . S
C1515 C1514 1.366 . S
C1515 C1519 1.385 . S
C1516 H1497 0.951 . S
C1516 C1514 1.388 . S
C1516 C1517 1.366 . S
C1517 C1516 1.366 . S
C1517 C1518 1.414 . S
C1517 C1520 1.499 . S
C1518 H1498 0.950 . S
C1518 C1517 1.414 . S
C1518 C1519 1.374 . S
C1519 H1499 0.950 . S
C1519 C1515 1.385 . S
C1519 C1518 1.374 . S
C1520 C1517 1.499 . S
C1520 C1521 1.373 . S
C1520 C1522 1.389 . S
C1521 H1500 0.950 . S
C1521 C1520 1.373 . S
C1521 C1537 1.377 . S
C1522 C1520 1.389 . S
C1522 C1523 1.524 . S
C1522 C1536 1.377 . S
C1523 C1522 1.524 . S
C1523 C1524 1.397 . S
C1523 C1528 1.363 . S
C1524 H1501 0.950 . S
C1524 C1523 1.397 . S
C1524 C1525 1.334 . S
C1525 H1502 0.950 . S
C1525 C1524 1.334 . S
C1525 C1526 1.287 . S
C1526 C1525 1.287 . S
C1526 C1527 1.524 . S
C1526 H1545 0.913 . S
C1527 H1503 0.950 . S
C1527 C1526 1.524 . S
C1527 C1528 1.415 . S
C1528 H1504 0.950 . S
C1528 C1523 1.363 . S
C1528 C1527 1.415 . S
C1529 H1505 0.951 1_455 S
C1529 C1530 1.366 . S
C1529 C1531 1.388 . S
C1530 C1529 1.366 . S
C1530 C1534 1.385 . S
C1531 H1506 0.951 1_455 S
C1531 C1529 1.388 . S
C1531 C1532 1.366 . S
C1532 C1531 1.366 . S
C1532 C1533 1.414 . S
C1532 C1535 1.499 . S
C1533 H1507 0.950 . S
C1533 C1532 1.414 . S
C1533 C1534 1.374 . S
C1534 H1508 0.950 . S
C1534 C1530 1.385 . S
C1534 C1533 1.374 . S
C1535 C1532 1.499 . S
C1535 C1536 1.373 . S
C1535 C1537 1.389 . S
C1536 H1509 0.950 . S
C1536 C1522 1.377 . S
C1536 C1535 1.373 . S
C1537 C1521 1.377 . S
C1537 C1535 1.389 . S
C1537 C1538 1.524 1_455 S
C1538 C1537 1.524 1_655 S
C1538 C1539 1.397 1_655 S
C1538 C1543 1.363 . S
C1539 H1510 0.950 . S
C1539 C1538 1.397 1_455 S
C1539 C1540 1.334 1_455 S
C1540 H1511 0.950 . S
C1540 C1539 1.334 1_655 S
C1540 C1541 1.287 . S
C1541 C1540 1.287 . S
C1541 C1542 1.524 . S
C1541 H1544 0.999 . S
C1542 H1512 0.950 . S
C1542 C1541 1.524 . S
C1542 C1543 1.415 . S
C1543 H1513 0.950 . S
C1543 C1538 1.363 . S
C1543 C1542 1.415 . S
H1544 C1541 0.999 . S
H1545 C1526 0.913 . S
H1546 C1564 0.951 . S
H1547 C1566 0.951 . S
H1548 C1568 0.950 . S
H1549 C1569 0.950 . S
H1550 C1571 0.950 . S
H1551 C1574 0.950 . S
H1552 C1575 0.950 . S
H1553 C1577 0.950 . S
H1554 C1578 0.950 . S
H1555 C1579 0.951 . S
H1556 C1581 0.951 . S
H1557 C1583 0.950 . S
H1558 C1584 0.950 . S
H1559 C1586 0.950 . S
H1560 C1589 0.950 . S
H1561 C1590 0.950 . S
H1562 C1592 0.950 . S
H1563 C1593 0.950 . S
C1564 H1546 0.951 . S
C1564 C1565 1.366 . S
C1564 C1566 1.388 . S
C1565 C1564 1.366 . S
C1565 C1569 1.385 . S
C1566 H1547 0.951 . S
C1566 C1564 1.388 . S
C1566 C1567 1.366 . S
C1567 C1566 1.366 . S
C1567 C1568 1.414 . S
C1567 C1570 1.499 . S
C1568 H1548 0.950 . S
C1568 C1567 1.414 . S
C1568 C1569 1.374 . S
C1569 H1549 0.950 . S
C1569 C1565 1.385 . S
C1569 C1568 1.374 . S
C1570 C1567 1.499 . S
C1570 C1571 1.373 . S
C1570 C1572 1.389 . S
C1571 H1550 0.950 . S
C1571 C1570 1.373 . S
C1571 C1587 1.377 . S
C1572 C1570 1.389 . S
C1572 C1573 1.524 . S
C1572 C1586 1.377 . S
C1573 C1572 1.524 . S
C1573 C1574 1.397 . S
C1573 C1578 1.363 . S
C1574 H1551 0.950 . S
C1574 C1573 1.397 . S
C1574 C1575 1.334 . S
C1575 H1552 0.950 . S
C1575 C1574 1.334 . S
C1575 C1576 1.287 . S
C1576 C1575 1.287 . S
C1576 C1577 1.524 . S
C1576 H1595 0.913 . S
C1577 H1553 0.950 . S
C1577 C1576 1.524 . S
C1577 C1578 1.415 . S
C1578 H1554 0.950 . S
C1578 C1573 1.363 . S
C1578 C1577 1.415 . S
C1579 H1555 0.951 . S
C1579 C1580 1.366 . S
C1579 C1581 1.388 . S
C1580 C1579 1.366 . S
C1580 C1584 1.385 . S
C1581 H1556 0.951 . S
C1581 C1579 1.388 . S
C1581 C1582 1.366 . S
C1582 C1581 1.366 . S
C1582 C1583 1.414 . S
C1582 C1585 1.499 . S
C1583 H1557 0.950 . S
C1583 C1582 1.414 . S
C1583 C1584 1.374 . S
C1584 H1558 0.950 . S
C1584 C1580 1.385 . S
C1584 C1583 1.374 . S
C1585 C1582 1.499 . S
C1585 C1586 1.373 . S
C1585 C1587 1.389 . S
C1586 H1559 0.950 . S
C1586 C1572 1.377 . S
C1586 C1585 1.373 . S
C1587 C1571 1.377 . S
C1587 C1585 1.389 . S
C1587 C1588 1.524 . S
C1588 C1587 1.524 . S
C1588 C1589 1.397 . S
C1588 C1593 1.363 . S
C1589 H1560 0.950 . S
C1589 C1588 1.397 . S
C1589 C1590 1.334 . S
C1590 H1561 0.950 . S
C1590 C1589 1.334 . S
C1590 C1591 1.287 . S
C1591 C1590 1.287 . S
C1591 C1592 1.524 . S
C1591 H1594 0.999 . S
C1592 H1562 0.950 . S
C1592 C1591 1.524 . S
C1592 C1593 1.415 . S
C1593 H1563 0.950 . S
C1593 C1588 1.363 . S
C1593 C1592 1.415 . S
H1594 C1591 0.999 . S
H1595 C1576 0.913 . S
C415 C1 1.554 . S
C430 C315 1.444 . S
C465 C40 1.513 . S
C480 C349 1.407 . S
C530 C361 1.397 . S
C515 C99 1.505 . S
C565 C118 1.507 . S
C580 C395 1.413 . S
C630 C352 1.436 . S
C615 C16 1.547 . S
C680 C332 1.402 1_565 S
C665 C60 1.510 . S
C730 C379 1.397 . S
C715 C79 1.509 . S
C780 C370 1.386 . S
C765 C138 1.490 . S
C815 C21 1.538 . S
C830 C378 1.430 . S
C880 C340 1.408 . S
C865 C94 1.521 . S
C915 C133 1.496 . S
C930 C316 1.380 . S
C965 C55 1.522 . S
C980 C373 1.412 . S
C1030 C331 1.622 . S
C1015 C157 1.716 . S
C1065 C196 1.702 . S
C1080 C353 1.603 . S
C1115 C255 1.714 . S
C1130 C358 1.623 . S
C1165 C289 1.720 . S
C1180 C391 1.629 . S
C1215 C172 1.731 . S
C1230 C336 1.638 . S
C1280 C328 1.639 . S
C1265 C216 1.738 . S
C1330 C382 1.644 . S
C1315 C235 1.741 . S
C1380 C374 1.585 . S
C1365 C294 1.670 . S
C1415 C177 1.682 . S
C1430 C394 1.597 . S
C1480 C337 1.643 . S
C1465 C250 1.744 . S
C1530 C319 1.593 . S
C1515 C274 1.690 . S
C1565 C211 1.701 . S
C1580 C357 1.615 . S
