# Generated by pormake.
# Topology eea, (3,6)-cn, num edge types: 1
# Building blocks:
#     Node 0, Type 0, BuildingBlock: ESEHIV_clean_linker_0, # of connection points: 3
#     Node 1, Type 0, BuildingBlock: ESEHIV_clean_linker_0, # of connection points: 3
#     Node 2, Type 0, BuildingBlock: ESEHIV_clean_linker_0, # of connection points: 3
#     Node 3, Type 0, BuildingBlock: ESEHIV_clean_linker_0, # of connection points: 3
#     Node 4, Type 0, BuildingBlock: ESEHIV_clean_linker_0, # of connection points: 3
#     Node 5, Type 0, BuildingBlock: ESEHIV_clean_linker_0, # of connection points: 3
#     Node 6, Type 0, BuildingBlock: ESEHIV_clean_linker_0, # of connection points: 3
#     Node 7, Type 0, BuildingBlock: ESEHIV_clean_linker_0, # of connection points: 3
#     Node 8, Type 0, BuildingBlock: ESEHIV_clean_linker_0, # of connection points: 3
#     Node 9, Type 0, BuildingBlock: ESEHIV_clean_linker_0, # of connection points: 3
#     Node 10, Type 0, BuildingBlock: ESEHIV_clean_linker_0, # of connection points: 3
#     Node 11, Type 0, BuildingBlock: ESEHIV_clean_linker_0, # of connection points: 3
#     Node 12, Type 0, BuildingBlock: ESEHIV_clean_linker_0, # of connection points: 3
#     Node 13, Type 0, BuildingBlock: ESEHIV_clean_linker_0, # of connection points: 3
#     Node 14, Type 0, BuildingBlock: ESEHIV_clean_linker_0, # of connection points: 3
#     Node 15, Type 0, BuildingBlock: ESEHIV_clean_linker_0, # of connection points: 3
#     Node 16, Type 0, BuildingBlock: ESEHIV_clean_linker_0, # of connection points: 3
#     Node 17, Type 0, BuildingBlock: ESEHIV_clean_linker_0, # of connection points: 3
#     Node 18, Type 1, BuildingBlock: CUWYAW_clean_sbu_0, # of connection points: 6
#     Node 19, Type 1, BuildingBlock: CUWYAW_clean_sbu_0, # of connection points: 6
#     Node 20, Type 1, BuildingBlock: CUWYAW_clean_sbu_0, # of connection points: 6
#     Node 21, Type 1, BuildingBlock: CUWYAW_clean_sbu_0, # of connection points: 6
#     Node 22, Type 1, BuildingBlock: CUWYAW_clean_sbu_0, # of connection points: 6
#     Node 23, Type 1, BuildingBlock: CUWYAW_clean_sbu_0, # of connection points: 6
#     Node 24, Type 1, BuildingBlock: CUWYAW_clean_sbu_0, # of connection points: 6
#     Node 25, Type 1, BuildingBlock: CUWYAW_clean_sbu_0, # of connection points: 6
#     Node 26, Type 1, BuildingBlock: CUWYAW_clean_sbu_0, # of connection points: 6
#     Edge 27, Type (0, 1), BuildingBlock: XIVTED_clean_linker_0, # of connection points: 2
#     Edge 28, Type (0, 1), BuildingBlock: XIVTED_clean_linker_0, # of connection points: 2
#     Edge 29, Type (0, 1), BuildingBlock: XIVTED_clean_linker_0, # of connection points: 2
#     Edge 30, Type (0, 1), BuildingBlock: XIVTED_clean_linker_0, # of connection points: 2
#     Edge 31, Type (0, 1), BuildingBlock: XIVTED_clean_linker_0, # of connection points: 2
#     Edge 32, Type (0, 1), BuildingBlock: XIVTED_clean_linker_0, # of connection points: 2
#     Edge 33, Type (0, 1), BuildingBlock: XIVTED_clean_linker_0, # of connection points: 2
#     Edge 34, Type (0, 1), BuildingBlock: XIVTED_clean_linker_0, # of connection points: 2
#     Edge 35, Type (0, 1), BuildingBlock: XIVTED_clean_linker_0, # of connection points: 2
#     Edge 36, Type (0, 1), BuildingBlock: XIVTED_clean_linker_0, # of connection points: 2
#     Edge 37, Type (0, 1), BuildingBlock: XIVTED_clean_linker_0, # of connection points: 2
#     Edge 38, Type (0, 1), BuildingBlock: XIVTED_clean_linker_0, # of connection points: 2
#     Edge 39, Type (0, 1), BuildingBlock: XIVTED_clean_linker_0, # of connection points: 2
#     Edge 40, Type (0, 1), BuildingBlock: XIVTED_clean_linker_0, # of connection points: 2
#     Edge 41, Type (0, 1), BuildingBlock: XIVTED_clean_linker_0, # of connection points: 2
#     Edge 42, Type (0, 1), BuildingBlock: XIVTED_clean_linker_0, # of connection points: 2
#     Edge 43, Type (0, 1), BuildingBlock: XIVTED_clean_linker_0, # of connection points: 2
#     Edge 44, Type (0, 1), BuildingBlock: XIVTED_clean_linker_0, # of connection points: 2
#     Edge 45, Type (0, 1), BuildingBlock: XIVTED_clean_linker_0, # of connection points: 2
#     Edge 46, Type (0, 1), BuildingBlock: XIVTED_clean_linker_0, # of connection points: 2
#     Edge 47, Type (0, 1), BuildingBlock: XIVTED_clean_linker_0, # of connection points: 2
#     Edge 48, Type (0, 1), BuildingBlock: XIVTED_clean_linker_0, # of connection points: 2
#     Edge 49, Type (0, 1), BuildingBlock: XIVTED_clean_linker_0, # of connection points: 2
#     Edge 50, Type (0, 1), BuildingBlock: XIVTED_clean_linker_0, # of connection points: 2
#     Edge 51, Type (0, 1), BuildingBlock: XIVTED_clean_linker_0, # of connection points: 2
#     Edge 52, Type (0, 1), BuildingBlock: XIVTED_clean_linker_0, # of connection points: 2
#     Edge 53, Type (0, 1), BuildingBlock: XIVTED_clean_linker_0, # of connection points: 2
#     Edge 54, Type (0, 1), BuildingBlock: XIVTED_clean_linker_0, # of connection points: 2
#     Edge 55, Type (0, 1), BuildingBlock: XIVTED_clean_linker_0, # of connection points: 2
#     Edge 56, Type (0, 1), BuildingBlock: XIVTED_clean_linker_0, # of connection points: 2
#     Edge 57, Type (0, 1), BuildingBlock: XIVTED_clean_linker_0, # of connection points: 2
#     Edge 58, Type (0, 1), BuildingBlock: XIVTED_clean_linker_0, # of connection points: 2
#     Edge 59, Type (0, 1), BuildingBlock: XIVTED_clean_linker_0, # of connection points: 2
#     Edge 60, Type (0, 1), BuildingBlock: XIVTED_clean_linker_0, # of connection points: 2
#     Edge 61, Type (0, 1), BuildingBlock: XIVTED_clean_linker_0, # of connection points: 2
#     Edge 62, Type (0, 1), BuildingBlock: XIVTED_clean_linker_0, # of connection points: 2
#     Edge 63, Type (0, 1), BuildingBlock: XIVTED_clean_linker_0, # of connection points: 2
#     Edge 64, Type (0, 1), BuildingBlock: XIVTED_clean_linker_0, # of connection points: 2
#     Edge 65, Type (0, 1), BuildingBlock: XIVTED_clean_linker_0, # of connection points: 2
#     Edge 66, Type (0, 1), BuildingBlock: XIVTED_clean_linker_0, # of connection points: 2
#     Edge 67, Type (0, 1), BuildingBlock: XIVTED_clean_linker_0, # of connection points: 2
#     Edge 68, Type (0, 1), BuildingBlock: XIVTED_clean_linker_0, # of connection points: 2
#     Edge 69, Type (0, 1), BuildingBlock: XIVTED_clean_linker_0, # of connection points: 2
#     Edge 70, Type (0, 1), BuildingBlock: XIVTED_clean_linker_0, # of connection points: 2
#     Edge 71, Type (0, 1), BuildingBlock: XIVTED_clean_linker_0, # of connection points: 2
#     Edge 72, Type (0, 1), BuildingBlock: XIVTED_clean_linker_0, # of connection points: 2
#     Edge 73, Type (0, 1), BuildingBlock: XIVTED_clean_linker_0, # of connection points: 2
#     Edge 74, Type (0, 1), BuildingBlock: XIVTED_clean_linker_0, # of connection points: 2
#     Edge 75, Type (0, 1), BuildingBlock: XIVTED_clean_linker_0, # of connection points: 2
#     Edge 76, Type (0, 1), BuildingBlock: XIVTED_clean_linker_0, # of connection points: 2
#     Edge 77, Type (0, 1), BuildingBlock: XIVTED_clean_linker_0, # of connection points: 2
#     Edge 78, Type (0, 1), BuildingBlock: XIVTED_clean_linker_0, # of connection points: 2
#     Edge 79, Type (0, 1), BuildingBlock: XIVTED_clean_linker_0, # of connection points: 2
#     Edge 80, Type (0, 1), BuildingBlock: XIVTED_clean_linker_0, # of connection points: 2
# Relax obj value: 0.035
# Max RMSD: 0.131
# Mean RMSD: 0.089
data_MOF--net-eea--node1-CUWYAW_clean_sbu_0--node2-ESEHIV_clean_linker_0--edge1-XIVTED_clean_linker_0
_symmetry_space_group_name_H-M    P1
_symmetry_Int_Tables_number       1
_symmetry_cell_setting            triclinic
loop_
_symmetry_equiv_pos_as_xyz
'x, y, z'
_cell_length_a     47.989773
_cell_length_b     47.670986
_cell_length_c     74.083411
_cell_angle_alpha  93.599322
_cell_angle_beta   93.317243
_cell_angle_gamma 119.91044
loop_
_atom_site_label
_atom_site_type_symbol
_atom_site_fract_x
_atom_site_fract_y
_atom_site_fract_z
_atom_type_partial_charge
H0 H 0.26729 0.18861 0.42916 0.0
H1 H 0.27922 0.10493 0.42685 0.0
H2 H 0.22627 0.11784 0.38238 0.0
C3 C 0.26346 0.16631 0.4219 0.0
C4 C 0.24617 0.15569 0.40459 0.0
C5 C 0.27502 0.14781 0.43011 0.0
C6 C 0.27006 0.119 0.42054 0.0
C7 C 0.2524 0.10771 0.40326 0.0
C8 C 0.24046 0.12631 0.3955 0.0
H9 H 0.82333 0.09334 0.42649 0.0
H10 H 0.91433 0.18309 0.43325 0.0
H11 H 0.8874 0.11795 0.38445 0.0
C12 C 0.84576 0.10983 0.42124 0.0
C13 C 0.85213 0.10194 0.40394 0.0
C14 C 0.86829 0.13863 0.43209 0.0
C15 C 0.89724 0.16043 0.4252 0.0
C16 C 0.90367 0.15353 0.4077 0.0
C17 C 0.88138 0.12398 0.39743 0.0
H18 H 0.84235 0.75661 0.44082 0.0
H19 H 0.92721 0.7477 0.442 0.0
H20 H 0.8935 0.77107 0.39335 0.0
C21 C 0.862 0.75732 0.434 0.0
C22 C 0.86501 0.76458 0.41587 0.0
C23 C 0.88406 0.75086 0.44349 0.0
C24 C 0.9099 0.75231 0.43473 0.0
C25 C 0.9136 0.75986 0.41665 0.0
C26 C 0.89083 0.76553 0.40731 0.0
H27 H 0.06843 0.24589 0.55912 0.0
H28 H 0.15354 0.23754 0.55996 0.0
H29 H 0.10339 0.22374 0.60781 0.0
C30 C 0.08596 0.24155 0.56636 0.0
C31 C 0.08266 0.23431 0.58449 0.0
C32 C 0.11163 0.24294 0.55748 0.0
C33 C 0.13402 0.23689 0.5669 0.0
C34 C 0.13148 0.23004 0.5851 0.0
C35 C 0.10575 0.22904 0.5938 0.0
H36 H 0.7494 0.90778 0.57419 0.0
H37 H 0.74362 0.81447 0.5707 0.0
H38 H 0.7748 0.87513 0.62169 0.0
C39 C 0.75183 0.88919 0.58061 0.0
C40 C 0.76262 0.89461 0.59915 0.0
C41 C 0.74519 0.86049 0.57018 0.0
C42 C 0.7485 0.83659 0.57867 0.0
C43 C 0.75892 0.84157 0.59732 0.0
C44 C 0.76597 0.87068 0.6074 0.0
H45 H 0.0802 0.80825 0.5665 0.0
H46 H 0.16649 0.90244 0.57143 0.0
H47 H 0.10658 0.87363 0.61534 0.0
C48 C 0.09644 0.8315 0.57428 0.0
C49 C 0.09009 0.8381 0.59187 0.0
C50 C 0.12431 0.85441 0.56696 0.0
C51 C 0.14552 0.88431 0.57725 0.0
C52 C 0.13918 0.89155 0.59465 0.0
C53 C 0.11154 0.86822 0.60188 0.0
H54 H 0.90812 0.50155 0.76638 0.0
H55 H 0.90919 0.41156 0.76135 0.0
H56 H 0.87505 0.44086 0.71545 0.0
C57 C 0.90432 0.48009 0.75813 0.0
C58 C 0.89096 0.47385 0.73997 0.0
C59 C 0.91063 0.45746 0.76599 0.0
C60 C 0.90461 0.4292 0.75532 0.0
C61 C 0.89163 0.42297 0.73711 0.0
C62 C 0.88503 0.44549 0.72954 0.0
H63 H 0.50356 0.41512 0.7645 0.0
H64 H 0.58971 0.50968 0.7717 0.0
H65 H 0.5598 0.45199 0.71976 0.0
C66 C 0.52419 0.43441 0.75904 0.0
C67 C 0.52908 0.4303 0.74082 0.0
C68 C 0.54601 0.46285 0.77037 0.0
C69 C 0.5727 0.48772 0.76308 0.0
C70 C 0.57775 0.48412 0.74475 0.0
C71 C 0.55581 0.45527 0.73379 0.0
H72 H 0.50376 0.07864 0.7723 0.0
H73 H 0.58671 0.06666 0.77185 0.0
H74 H 0.55719 0.09914 0.72552 0.0
C75 C 0.52315 0.07932 0.76518 0.0
C76 C 0.52743 0.08958 0.74769 0.0
C77 C 0.54396 0.07044 0.77389 0.0
C78 C 0.57051 0.07344 0.76525 0.0
C79 C 0.57547 0.08397 0.74779 0.0
C80 C 0.55359 0.09152 0.73907 0.0
H81 H 0.74541 0.5928 0.89591 0.0
H82 H 0.83203 0.58677 0.89744 0.0
H83 H 0.77285 0.55709 0.94161 0.0
C84 C 0.76175 0.58636 0.90268 0.0
C85 C 0.75591 0.57462 0.91984 0.0
C86 C 0.78937 0.59109 0.89459 0.0
C87 C 0.81075 0.58327 0.90363 0.0
C88 C 0.80512 0.57123 0.92064 0.0
C89 C 0.77768 0.56702 0.92864 0.0
H90 H 0.41069 0.25017 0.91062 0.0
H91 H 0.40348 0.15631 0.90571 0.0
H92 H 0.43622 0.21566 0.95721 0.0
C93 C 0.41281 0.23116 0.91674 0.0
C94 C 0.42371 0.23588 0.93522 0.0
C95 C 0.4059 0.20273 0.90592 0.0
C96 C 0.40876 0.17826 0.914 0.0
C97 C 0.41951 0.18253 0.93258 0.0
C98 C 0.42699 0.21153 0.94302 0.0
H99 H 0.73218 0.15845 0.89393 0.0
H100 H 0.82429 0.24663 0.89932 0.0
H101 H 0.77053 0.21707 0.94562 0.0
C102 C 0.75127 0.1794 0.90241 0.0
C103 C 0.74795 0.18473 0.92089 0.0
C104 C 0.77862 0.20195 0.89457 0.0
C105 C 0.80294 0.22969 0.90535 0.0
C106 C 0.80014 0.23556 0.92375 0.0
C107 C 0.77277 0.21272 0.93141 0.0
H108 H 0.60383 0.85885 0.09572 0.0
H109 H 0.60477 0.76882 0.09331 0.0
H110 H 0.56248 0.7909 0.04764 0.0
C111 C 0.59856 0.83616 0.08827 0.0
C112 C 0.58209 0.82725 0.07076 0.0
C113 C 0.60704 0.81531 0.09649 0.0
C114 C 0.59948 0.78561 0.08681 0.0
C115 C 0.58302 0.77644 0.06926 0.0
C116 C 0.57483 0.79762 0.06128 0.0
H117 H 0.17316 0.75572 0.10123 0.0
H118 H 0.26267 0.84729 0.10644 0.0
H119 H 0.22557 0.78805 0.05488 0.0
C120 C 0.19374 0.77404 0.09524 0.0
C121 C 0.19726 0.76839 0.07698 0.0
C122 C 0.21704 0.80261 0.10595 0.0
C123 C 0.24404 0.82587 0.09806 0.0
C124 C 0.24777 0.82056 0.07964 0.0
C125 C 0.22369 0.79212 0.0692 0.0
H126 H 0.17874 0.42295 0.11064 0.0
H127 H 0.27094 0.42868 0.11156 0.0
H128 H 0.22891 0.44421 0.06283 0.0
C129 C 0.19974 0.42734 0.10383 0.0
C130 C 0.20129 0.43463 0.08577 0.0
C131 C 0.22455 0.42477 0.11309 0.0
C132 C 0.25141 0.4297 0.10413 0.0
C133 C 0.25355 0.43709 0.08594 0.0
C134 C 0.22798 0.43897 0.07686 0.0
H135 H 0.40887 0.92679 0.22829 0.0
H136 H 0.49243 0.91589 0.22756 0.0
H137 H 0.43672 0.89041 0.27341 0.0
C138 C 0.42488 0.91956 0.23467 0.0
C139 C 0.41922 0.90747 0.25174 0.0
C140 C 0.45189 0.92357 0.22615 0.0
C141 C 0.47258 0.91427 0.23458 0.0
C142 C 0.46755 0.90235 0.25167 0.0
C143 C 0.44085 0.8993 0.26017 0.0
H144 H 0.06571 0.56689 0.24207 0.0
H145 H 0.07389 0.48088 0.23982 0.0
H146 H 0.11278 0.54967 0.28764 0.0
C147 C 0.07342 0.55172 0.24848 0.0
C148 C 0.08965 0.56171 0.26611 0.0
C149 C 0.06777 0.52268 0.23886 0.0
C150 C 0.07803 0.50323 0.24717 0.0
C151 C 0.09422 0.51284 0.26479 0.0
C152 C 0.09991 0.54205 0.27413 0.0
H153 H 0.41277 0.47337 0.23252 0.0
H154 H 0.50428 0.56252 0.23965 0.0
H155 H 0.43905 0.53895 0.28107 0.0
C156 C 0.42984 0.49599 0.24061 0.0
C157 C 0.42311 0.50314 0.25797 0.0
C158 C 0.45909 0.51751 0.23391 0.0
C159 C 0.48161 0.54628 0.24477 0.0
C160 C 0.47487 0.55447 0.26189 0.0
C161 C 0.44534 0.5327 0.26823 0.0
C162 C 0.54091 0.03938 0.05289 0.0
Eu163 Eu 0.5167 0.02196 0.019 0.0
C164 C 0.52987 0.02794 0.0705 0.0
C165 C 0.54381 0.04954 0.08636 0.0
C166 C 0.53356 0.03915 0.10322 0.0
C167 C 0.50912 0.00689 0.10452 0.0
C168 C 0.4949 0.9854 0.08849 0.0
C169 C 0.50519 0.99584 0.07162 0.0
C170 C 0.49633 0.05263 0.99714 0.0
C171 C 0.4397 0.96702 0.01668 0.0
C172 C 0.45587 0.96177 0.94876 0.0
Eu173 Eu 0.47994 0.98248 0.98253 0.0
C174 C 0.46564 0.97266 0.93089 0.0
C175 C 0.45056 0.95069 0.91525 0.0
C176 C 0.45997 0.96038 0.89816 0.0
C177 C 0.48469 0.9923 0.8964 0.0
C178 C 0.49994 0.01421 0.9122 0.0
C179 C 0.4905 0.00445 0.9293 0.0
C180 C 0.49985 0.95219 0.00495 0.0
C181 C 0.55633 0.03936 0.98473 0.0
O182 O 0.5459 0.02001 0.04195 0.0
O183 O 0.52597 0.05218 0.04446 0.0
O184 O 0.52237 0.0677 0.00843 0.0
O185 O 0.48064 0.02275 0.99919 0.0
O186 O 0.46771 0.98459 0.02675 0.0
O187 O 0.43725 0.96483 0.99873 0.0
O188 O 0.4485 0.97976 0.95924 0.0
O189 O 0.47354 0.95226 0.9576 0.0
O190 O 0.47269 0.93736 0.99462 0.0
O191 O 0.51597 0.98171 0.00223 0.0
O192 O 0.52826 0.0215 0.97473 0.0
O193 O 0.55908 0.04095 0.00265 0.0
H194 H 0.56267 0.07448 0.08572 0.0
H195 H 0.54467 0.05648 0.11524 0.0
H196 H 0.47628 0.96033 0.089 0.0
H197 H 0.49404 0.97879 0.05949 0.0
H198 H 0.43156 0.92595 0.91626 0.0
H199 H 0.44808 0.94272 0.88633 0.0
H200 H 0.51881 0.03905 0.91134 0.0
H201 H 0.50256 0.02174 0.94126 0.0
C202 C 0.98118 0.52075 0.05245 0.0
Eu203 Eu 0.988 0.503 0.01979 0.0
C204 C 0.98563 0.51438 0.07117 0.0
C205 C 0.99345 0.49052 0.07495 0.0
C206 C 0.99853 0.48554 0.09297 0.0
C207 C 0.99589 0.50441 0.10744 0.0
C208 C 0.98779 0.52811 0.10346 0.0
C209 C 0.9827 0.533 0.08548 0.0
C210 C 0.95016 0.44553 0.99957 0.0
C211 C 0.03947 0.47665 0.01988 0.0
C212 C 0.02708 0.48498 0.95176 0.0
Eu213 Eu 0.01455 0.49533 0.98445 0.0
C214 C 0.01371 0.48226 0.93303 0.0
C215 C 0.0341 0.48983 0.91913 0.0
C216 C 0.02236 0.48896 0.9013 0.0
C217 C 0.98997 0.4804 0.89711 0.0
C218 C 0.96953 0.47273 0.91111 0.0
C219 C 0.98137 0.47382 0.92897 0.0
C220 C 0.05155 0.55193 0.00571 0.0
C221 C 0.9608 0.51766 0.98398 0.0
O222 O 0.00758 0.53666 0.04451 0.0
O223 O 0.95778 0.49655 0.04176 0.0
O224 O 0.93896 0.45948 0.0101 0.0
O225 O 0.9806 0.46042 0.00165 0.0
O226 O 0.0255 0.48981 0.02936 0.0
O227 O 0.03573 0.47252 0.00193 0.0
O228 O 0.00967 0.46158 0.96157 0.0
O229 O 0.04002 0.51384 0.96072 0.0
O230 O 0.06311 0.53614 0.99712 0.0
O231 O 0.02131 0.53776 0.00237 0.0
O232 O 0.97202 0.50118 0.97497 0.0
O233 O 0.96863 0.52654 0.00161 0.0
H234 H 0.99581 0.47593 0.06399 0.0
H235 H 0.00446 0.46692 0.09555 0.0
H236 H 0.98617 0.54349 0.11425 0.0
H237 H 0.97685 0.55165 0.08276 0.0
H238 H 0.05918 0.4966 0.92209 0.0
H239 H 0.03854 0.49461 0.89075 0.0
H240 H 0.94455 0.46638 0.90828 0.0
H241 H 0.96541 0.46836 0.9396 0.0
C242 C 0.45741 0.47625 0.9507 0.0
Eu243 Eu 0.48394 0.49798 0.98402 0.0
C244 C 0.46889 0.47658 0.93269 0.0
C245 C 0.49939 0.50141 0.92907 0.0
C246 C 0.50999 0.50122 0.91189 0.0
C247 C 0.49036 0.47607 0.89808 0.0
C248 C 0.4599 0.45119 0.90184 0.0
C249 C 0.44928 0.45149 0.91899 0.0
C250 C 0.50535 0.55804 0.00078 0.0
C251 C 0.56193 0.52628 0.98534 0.0
C252 C 0.55159 0.53629 0.0539 0.0
Eu253 Eu 0.52485 0.51422 0.02064 0.0
C254 C 0.54076 0.52969 0.07208 0.0
C255 C 0.51064 0.50281 0.07436 0.0
C256 C 0.50021 0.49718 0.09171 0.0
C257 C 0.51982 0.51831 0.10706 0.0
C258 C 0.55007 0.54514 0.10464 0.0
C259 C 0.5604 0.55078 0.08729 0.0
C260 C 0.50302 0.45386 0.00418 0.0
C261 C 0.44626 0.48563 0.0192 0.0
O262 O 0.46226 0.4586 0.9619 0.0
O263 O 0.46359 0.50434 0.95864 0.0
O264 O 0.47727 0.54082 0.99146 0.0
O265 O 0.52141 0.54376 -4e-05 0.0
O266 O 0.53306 0.50839 0.97613 0.0
O267 O 0.56533 0.53623 0.00281 0.0
O268 O 0.53905 0.55004 0.04417 0.0
O269 O 0.55272 0.51279 0.04446 0.0
O270 O 0.53095 0.47083 0.01368 0.0
O271 O 0.4873 0.46849 0.00485 0.0
O272 O 0.4749 0.50042 0.02889 0.0
O273 O 0.44281 0.47865 0.00139 0.0
H274 H 0.51502 0.52088 0.93954 0.0
H275 H 0.53372 0.52049 0.90949 0.0
H276 H 0.44406 0.43168 0.89145 0.0
H277 H 0.4257 0.43211 0.92156 0.0
H278 H 0.49522 0.48622 0.06273 0.0
H279 H 0.47694 0.47614 0.09311 0.0
H280 H 0.56554 0.56218 0.11611 0.0
H281 H 0.58364 0.57175 0.08574 0.0
C282 C 0.20901 0.35934 0.38604 0.0
Eu283 Eu 0.18409 0.34607 0.35235 0.0
C284 C 0.19663 0.34765 0.40338 0.0
C285 C 0.16519 0.33974 0.40685 0.0
C286 C 0.15331 0.32731 0.42308 0.0
C287 C 0.17257 0.3223 0.43602 0.0
C288 C 0.20404 0.33031 0.43248 0.0
C289 C 0.21596 0.34292 0.41631 0.0
C290 C 0.16526 0.38108 0.33323 0.0
C291 C 0.10606 0.29353 0.34989 0.0
C292 C 0.12156 0.29888 0.28151 0.0
Eu293 Eu 0.14527 0.31216 0.31543 0.0
C294 C 0.13437 0.3136 0.26484 0.0
C295 C 0.12591 0.29381 0.24836 0.0
C296 C 0.13926 0.3073 0.23261 0.0
C297 C 0.1613 0.34086 0.23311 0.0
C298 C 0.16967 0.36062 0.24969 0.0
C299 C 0.15638 0.3471 0.26542 0.0
C300 C 0.16462 0.27758 0.33461 0.0
C301 C 0.22302 0.36489 0.31793 0.0
O302 O 0.21031 0.33812 0.37457 0.0
O303 O 0.19818 0.37637 0.37818 0.0
O304 O 0.19273 0.39393 0.34323 0.0
O305 O 0.14847 0.35105 0.3346 0.0
O306 O 0.13454 0.3084 0.35974 0.0
O307 O 0.10328 0.29451 0.33213 0.0
O308 O 0.11602 0.31652 0.29344 0.0
O309 O 0.13572 0.28447 0.289 0.0
O310 O 0.13694 0.26444 0.32479 0.0
O311 O 0.18109 0.30752 0.33304 0.0
O312 O 0.19445 0.35114 0.30826 0.0
O313 O 0.22581 0.36268 0.33555 0.0
H314 H 0.14968 0.34283 0.39695 0.0
H315 H 0.12885 0.321 0.42534 0.0
H316 H 0.21954 0.32703 0.44229 0.0
H317 H 0.2402 0.34872 0.41382 0.0
H318 H 0.10912 0.26788 0.2477 0.0
H319 H 0.13203 0.29151 0.22 0.0
H320 H 0.18687 0.38647 0.25057 0.0
H321 H 0.16356 0.3628 0.27807 0.0
C322 C 0.64371 0.84962 0.38374 0.0
Eu323 Eu 0.65037 0.8322 0.35099 0.0
C324 C 0.65384 0.84809 0.4025 0.0
C325 C 0.66106 0.82407 0.40699 0.0
C326 C 0.67172 0.82384 0.42492 0.0
C327 C 0.67563 0.84786 0.4385 0.0
C328 C 0.66817 0.8717 0.43389 0.0
C329 C 0.65734 0.87176 0.41603 0.0
C330 C 0.61582 0.77226 0.33266 0.0
C331 C 0.70616 0.81213 0.35112 0.0
C332 C 0.68178 0.80556 0.28268 0.0
Eu333 Eu 0.67533 0.82396 0.31526 0.0
C334 C 0.67952 0.81309 0.264 0.0
C335 C 0.6736 0.83817 0.26012 0.0
C336 C 0.67064 0.84432 0.24211 0.0
C337 C 0.67353 0.82541 0.22776 0.0
C338 C 0.6798 0.80053 0.23185 0.0
C339 C 0.68279 0.79447 0.24983 0.0
C340 C 0.70988 0.88428 0.33327 0.0
C341 C 0.61912 0.84405 0.31522 0.0
O342 O 0.66682 0.86872 0.37433 0.0
O343 O 0.62271 0.822 0.3744 0.0
O344 O 0.60307 0.78603 0.34206 0.0
O345 O 0.64619 0.78967 0.33427 0.0
O346 O 0.69228 0.82543 0.36051 0.0
O347 O 0.69965 0.80467 0.33335 0.0
O348 O 0.65462 0.79152 0.29014 0.0
O349 O 0.70581 0.8283 0.29374 0.0
O350 O 0.72244 0.8708 0.32349 0.0
O351 O 0.67955 0.86656 0.33188 0.0
O352 O 0.63493 0.83317 0.30567 0.0
O353 O 0.62359 0.84913 0.33314 0.0
H354 H 0.65873 0.80575 0.39662 0.0
H355 H 0.67757 0.80539 0.4281 0.0
H356 H 0.67062 0.89025 0.44413 0.0
H357 H 0.65192 0.89048 0.41275 0.0
H358 H 0.67106 0.85278 0.271 0.0
H359 H 0.6661 0.86383 0.23943 0.0
H360 H 0.68156 0.78513 0.22114 0.0
H361 H 0.68723 0.77493 0.25265 0.0
C362 C 0.12219 0.81679 0.28407 0.0
Eu363 Eu 0.14793 0.82972 0.31762 0.0
C364 C 0.13421 0.81688 0.26624 0.0
C365 C 0.16577 0.84031 0.26323 0.0
C366 C 0.17703 0.83978 0.2463 0.0
C367 C 0.15703 0.81562 0.23216 0.0
C368 C 0.12548 0.79216 0.23527 0.0
C369 C 0.11417 0.79283 0.25216 0.0
C370 C 0.17061 0.88704 0.33806 0.0
C371 C 0.22499 0.85407 0.31826 0.0
C372 C 0.21423 0.85289 0.38684 0.0
Eu373 Eu 0.18744 0.83753 0.35336 0.0
C374 C 0.20326 0.84812 0.40507 0.0
C375 C 0.17166 0.82424 0.40763 0.0
C376 C 0.16132 0.82089 0.42506 0.0
C377 C 0.18243 0.84139 0.4402 0.0
C378 C 0.21408 0.86523 0.43746 0.0
C379 C 0.22436 0.86852 0.42007 0.0
C380 C 0.16558 0.78057 0.33274 0.0
C381 C 0.10975 0.81186 0.3526 0.0
O382 O 0.12039 0.79441 0.29407 0.0
O383 O 0.13377 0.84516 0.29347 0.0
O384 O 0.14241 0.87158 0.32877 0.0
O385 O 0.18607 0.87236 0.33563 0.0
O386 O 0.19611 0.83847 0.30888 0.0
O387 O 0.22848 0.86107 0.33608 0.0
O388 O 0.2078 0.87199 0.37778 0.0
O389 O 0.20899 0.82689 0.37673 0.0
O390 O 0.19271 0.79488 0.34309 0.0
O391 O 0.14994 0.79504 0.3351 0.0
O392 O 0.13841 0.82556 0.36215 0.0
O393 O 0.10642 0.80716 0.33466 0.0
H394 H 0.18182 0.85893 0.27398 0.0
H395 H 0.20156 0.85791 0.24438 0.0
H396 H 0.10942 0.77343 0.22457 0.0
H397 H 0.0898 0.77452 0.25425 0.0
H398 H 0.15498 0.80831 0.39616 0.0
H399 H 0.13689 0.80212 0.42668 0.0
H400 H 0.2308 0.88184 0.44872 0.0
H401 H 0.24873 0.88728 0.4183 0.0
C402 C 0.87721 0.69409 0.71895 0.0
Eu403 Eu 0.85159 0.67884 0.68532 0.0
C404 C 0.86642 0.68363 0.73675 0.0
C405 C 0.87986 0.70636 0.75219 0.0
C406 C 0.86972 0.69713 0.76922 0.0
C407 C 0.84592 0.66491 0.77114 0.0
C408 C 0.83224 0.64222 0.75555 0.0
C409 C 0.8424 0.65152 0.73849 0.0
C410 C 0.83273 0.7128 0.66537 0.0
C411 C 0.77361 0.62678 0.68323 0.0
C412 C 0.78733 0.62973 0.6146 0.0
Eu413 Eu 0.81203 0.64348 0.64833 0.0
C414 C 0.79961 0.64289 0.59745 0.0
C415 C 0.83093 0.65096 0.59359 0.0
C416 C 0.84248 0.66407 0.57744 0.0
C417 C 0.82304 0.6696 0.56492 0.0
C418 C 0.7918 0.66172 0.5689 0.0
C419 C 0.7802 0.64844 0.58501 0.0
C420 C 0.83035 0.6091 0.66832 0.0
C421 C 0.89006 0.69573 0.65055 0.0
O422 O 0.87919 0.67305 0.70765 0.0
O423 O 0.86451 0.70944 0.71102 0.0
O424 O 0.85969 0.72645 0.67587 0.0
O425 O 0.81606 0.68298 0.66709 0.0
O426 O 0.80221 0.64147 0.69295 0.0
O427 O 0.77058 0.62742 0.66543 0.0
O428 O 0.78362 0.64911 0.62627 0.0
O429 O 0.8 0.61412 0.62233 0.0
O430 O 0.803 0.59604 0.65816 0.0
O431 O 0.8474 0.63895 0.66653 0.0
O432 O 0.86148 0.68103 0.64082 0.0
O433 O 0.89306 0.69494 0.66832 0.0
H434 H 0.89819 0.73133 0.75105 0.0
H435 H 0.88037 0.71535 0.78087 0.0
H436 H 0.81411 0.61715 0.75657 0.0
H437 H 0.8316 0.6336 0.7267 0.0
H438 H 0.84658 0.64731 0.60308 0.0
H439 H 0.86681 0.67032 0.57488 0.0
H440 H 0.77614 0.66543 0.55945 0.0
H441 H 0.75605 0.64256 0.58779 0.0
C442 C 0.31476 0.1884 0.71706 0.0
Eu443 Eu 0.32002 0.16867 0.68454 0.0
C444 C 0.32523 0.1881 0.73599 0.0
C445 C 0.33183 0.16401 0.74118 0.0
C446 C 0.34146 0.16413 0.75938 0.0
C447 C 0.34491 0.18851 0.77255 0.0
C448 C 0.33845 0.21265 0.76719 0.0
C449 C 0.32867 0.2124 0.74906 0.0
C450 C 0.28151 0.10939 0.66613 0.0
C451 C 0.37176 0.14312 0.68484 0.0
C452 C 0.34803 0.13681 0.61632 0.0
Eu453 Eu 0.34312 0.15665 0.64891 0.0
C454 C 0.34417 0.14376 0.59767 0.0
C455 C 0.3388 0.16934 0.59416 0.0
C456 C 0.33524 0.17566 0.57626 0.0
C457 C 0.33701 0.15647 0.56163 0.0
C458 C 0.34244 0.13089 0.56533 0.0
C459 C 0.346 0.12463 0.58321 0.0
C460 C 0.38147 0.21631 0.66702 0.0
C461 C 0.29101 0.18223 0.64865 0.0
O462 O 0.33752 0.20673 0.70721 0.0
O463 O 0.29347 0.16027 0.70831 0.0
O464 O 0.27067 0.1255 0.67516 0.0
O465 O 0.31196 0.12427 0.66803 0.0
O466 O 0.35961 0.1584 0.69413 0.0
O467 O 0.36478 0.13517 0.66712 0.0
O468 O 0.32159 0.12243 0.62443 0.0
O469 O 0.37238 0.16027 0.62688 0.0
O470 O 0.39235 0.20058 0.65769 0.0
O471 O 0.35104 0.20102 0.6653 0.0
O472 O 0.30501 0.16906 0.63921 0.0
O473 O 0.29607 0.18812 0.66653 0.0
H474 H 0.32951 0.14517 0.73119 0.0
H475 H 0.3466 0.14543 0.76311 0.0
H476 H 0.34055 0.23152 0.77707 0.0
H477 H 0.32366 0.23115 0.74524 0.0
H478 H 0.33742 0.18439 0.60525 0.0
H479 H 0.33134 0.19569 0.57388 0.0
H480 H 0.34332 0.11526 0.55439 0.0
H481 H 0.35003 0.10472 0.58575 0.0
C482 C 0.78127 0.13096 0.6139 0.0
Eu483 Eu 0.8077 0.15251 0.64723 0.0
C484 C 0.79238 0.13522 0.59556 0.0
C485 C 0.77683 0.14371 0.58221 0.0
C486 C 0.78689 0.14796 0.56476 0.0
C487 C 0.81267 0.14361 0.56022 0.0
C488 C 0.82842 0.13536 0.57371 0.0
C489 C 0.81842 0.13126 0.5912 0.0
C490 C 0.82629 0.21174 0.66413 0.0
C491 C 0.88667 0.18414 0.64821 0.0
C492 C 0.87564 0.19116 0.717 0.0
Eu493 Eu 0.84975 0.17036 0.68356 0.0
C494 C 0.86294 0.19104 0.73464 0.0
C495 C 0.87504 0.18256 0.74973 0.0
C496 C 0.86242 0.18107 0.76641 0.0
C497 C 0.83751 0.18816 0.76831 0.0
C498 C 0.82543 0.19665 0.75315 0.0
C499 C 0.83796 0.19799 0.73646 0.0
C500 C 0.83089 0.11114 0.66647 0.0
C501 C 0.77125 0.1392 0.68269 0.0
O502 O 0.79013 0.11499 0.62433 0.0
O503 O 0.78287 0.15643 0.62273 0.0
O504 O 0.79823 0.19337 0.65497 0.0
O505 O 0.84371 0.19897 0.66311 0.0
O506 O 0.85773 0.16694 0.63892 0.0
O507 O 0.89033 0.19229 0.66592 0.0
O508 O 0.87314 0.20978 0.70551 0.0
O509 O 0.86839 0.16265 0.70918 0.0
O510 O 0.85921 0.12956 0.67536 0.0
O511 O 0.8136 0.12401 0.66774 0.0
O512 O 0.80021 0.15822 0.69164 0.0
O513 O 0.76765 0.12929 0.6652 0.0
H514 H 0.75685 0.14712 0.58531 0.0
H515 H 0.77454 0.15486 0.55485 0.0
H516 H 0.84809 0.13142 0.57068 0.0
H517 H 0.83097 0.1248 0.60125 0.0
H518 H 0.8942 0.17697 0.74858 0.0
H519 H 0.87248 0.17484 0.7779 0.0
H520 H 0.806 0.20187 0.75413 0.0
H521 H 0.82794 0.20424 0.72495 0.0
H522 H 0.27938 0.80546 0.05458 0.0
H523 H 0.42942 0.9793 0.05148 0.0
H524 H 0.28419 0.88784 0.0857 0.0
H525 H 0.38425 0.91118 0.00325 0.0
H526 H 0.38239 0.945 0.06742 0.0
H527 H 0.3246 0.84263 0.03897 0.0
C528 C 0.28964 0.83135 0.05806 0.0
C529 C 0.27718 0.84343 0.07122 0.0
C530 C 0.38278 0.93786 0.05331 0.0
C531 C 0.33009 0.88609 0.05374 0.0
C532 C 0.40952 0.95726 0.04422 0.0
C533 C 0.41063 0.94802 0.02601 0.0
C534 C 0.35751 0.90868 0.04424 0.0
C535 C 0.38427 0.91928 0.01724 0.0
C536 C 0.31563 0.85251 0.04917 0.0
C537 C 0.29283 0.87734 0.07567 0.0
N538 N 0.35895 0.90036 0.02653 0.0
N539 N 0.31861 0.89756 0.06696 0.0
H540 H 0.17034 0.46492 0.09978 0.0
H541 H 0.06958 0.44562 0.00558 0.0
H542 H 0.17332 0.41356 0.05047 0.0
H543 H 0.05788 0.48601 0.05649 0.0
H544 H 0.10716 0.43315 0.02177 0.0
H545 H 0.12866 0.47229 0.08417 0.0
C546 C 0.16202 0.45491 0.08571 0.0
C547 C 0.1754 0.43858 0.07643 0.0
C548 C 0.09623 0.44458 0.02941 0.0
C549 C 0.12795 0.44743 0.05837 0.0
C550 C 0.07476 0.45173 0.02017 0.0
C551 C 0.06064 0.46705 0.02966 0.0
C552 C 0.10383 0.45296 0.04827 0.0
C553 C 0.06821 0.47427 0.04858 0.0
C554 C 0.13831 0.45928 0.07677 0.0
C555 C 0.16405 0.4267 0.0581 0.0
N556 N 0.08944 0.46733 0.05724 0.0
N557 N 0.14106 0.43144 0.04966 0.0
H558 H 0.61713 0.74434 0.0663 0.0
H559 H 0.4718 0.58957 0.00547 0.0
H560 H 0.52433 0.7343 0.05053 0.0
H561 H 0.56489 0.599 0.01919 0.0
H562 H 0.49078 0.64244 0.02252 0.0
H563 H 0.5985 0.69069 0.04993 0.0
C564 C 0.59284 0.73081 0.05944 0.0
C565 C 0.57236 0.74392 0.05963 0.0
C566 C 0.50712 0.63302 0.02184 0.0
C567 C 0.55096 0.68276 0.04088 0.0
C568 C 0.49628 0.60285 0.01208 0.0
C569 C 0.51683 0.59001 0.01096 0.0
C570 C 0.53879 0.6505 0.03054 0.0
C571 C 0.54829 0.60811 0.01979 0.0
C572 C 0.58227 0.7003 0.05005 0.0
C573 C 0.54117 0.72544 0.05046 0.0
N574 N 0.55835 0.63751 0.02924 0.0
N575 N 0.53147 0.69588 0.04146 0.0
H576 H 0.83436 0.29672 0.91267 0.0
H577 H 0.90338 0.38992 0.01116 0.0
H578 H 0.82249 0.24478 0.96004 0.0
H579 H 0.95008 0.43012 0.96373 0.0
H580 H 0.86852 0.33751 0.9927 0.0
H581 H 0.87298 0.34713 0.93116 0.0
C582 C 0.84009 0.2957 0.92687 0.0
C583 C 0.82496 0.26622 0.93474 0.0
C584 C 0.88671 0.35773 0.98641 0.0
C585 C 0.86847 0.32427 0.95609 0.0
C586 C 0.9064 0.38751 0.99687 0.0
C587 C 0.92993 0.41387 0.9889 0.0
C588 C 0.89011 0.35482 0.96779 0.0
C589 C 0.93289 0.40994 0.97038 0.0
C590 C 0.86202 0.32461 0.93744 0.0
C591 C 0.83293 0.26688 0.9534 0.0
N592 N 0.91297 0.38098 0.96035 0.0
N593 N 0.8539 0.29549 0.96348 0.0
H594 H 0.69329 0.54813 0.90457 0.0
H595 H 0.62566 0.56179 0.99923 0.0
H596 H 0.75336 0.59116 0.95549 0.0
H597 H 0.56446 0.5121 0.94924 0.0
H598 H 0.67302 0.5759 0.98296 0.0
H599 H 0.64609 0.53835 0.92017 0.0
C600 C 0.69659 0.55579 0.91899 0.0
C601 C 0.72727 0.57025 0.92877 0.0
C602 C 0.64922 0.56198 0.97554 0.0
C603 C 0.67339 0.55891 0.94674 0.0
C604 C 0.62214 0.55391 0.98484 0.0
C605 C 0.59097 0.53565 0.97563 0.0
C606 C 0.64517 0.55177 0.95688 0.0
C607 C 0.58797 0.52617 0.95694 0.0
C608 C 0.66962 0.55002 0.92791 0.0
C609 C 0.73008 0.57943 0.94747 0.0
N610 N 0.61471 0.53429 0.9482 0.0
N611 N 0.70352 0.57353 0.95584 0.0
H612 H 0.4433 0.14554 0.91737 0.0
H613 H 0.48948 0.10254 0.01095 0.0
H614 H 0.40951 0.164 0.96709 0.0
H615 H 0.47264 0.04128 0.96154 0.0
H616 H 0.46624 0.13063 0.99472 0.0
H617 H 0.45861 0.11059 0.93273 0.0
C618 C 0.43856 0.1419 0.93139 0.0
C619 C 0.42538 0.15815 0.94098 0.0
C620 C 0.46736 0.11082 0.98748 0.0
C621 C 0.44389 0.11906 0.9587 0.0
C622 C 0.48076 0.09502 0.99668 0.0
C623 C 0.48247 0.06944 0.98751 0.0
C624 C 0.45648 0.10146 0.96892 0.0
C625 C 0.47101 0.06047 0.96906 0.0
C626 C 0.44753 0.1221 0.94016 0.0
C627 C 0.42038 0.15276 0.95925 0.0
N628 N 0.45875 0.07674 0.96024 0.0
N629 N 0.4301 0.13409 0.96759 0.0
H630 H 0.71068 0.11773 0.91399 0.0
H631 H 0.61121 0.09525 0.99871 0.0
H632 H 0.71723 0.19938 0.9469 0.0
H633 H 0.56697 0.02922 0.94963 0.0
H634 H 0.65757 0.1299 0.98257 0.0
H635 H 0.66359 0.08107 0.92914 0.0
C636 C 0.70228 0.12806 0.92428 0.0
C637 C 0.71846 0.16184 0.92929 0.0
C638 C 0.63772 0.10773 0.9754 0.0
C639 C 0.66536 0.1199 0.94697 0.0
C640 C 0.61141 0.08788 0.9846 0.0
C641 C 0.58523 0.0594 0.97547 0.0
C642 C 0.63816 0.09868 0.95707 0.0
C643 C 0.58664 0.0511 0.95714 0.0
C644 C 0.67555 0.10707 0.93297 0.0
C645 C 0.70646 0.17358 0.94292 0.0
N646 N 0.61281 0.07059 0.94853 0.0
N647 N 0.68094 0.15265 0.9514 0.0
H648 H 0.82796 0.585 0.95671 0.0
H649 H 0.93866 0.50391 0.94769 0.0
H650 H 0.83471 0.53971 0.90613 0.0
H651 H 0.93216 0.55033 0.99797 0.0
H652 H 0.90091 0.51696 0.93212 0.0
H653 H 0.86604 0.57219 0.97204 0.0
C654 C 0.83731 0.57217 0.94885 0.0
C655 C 0.8281 0.56338 0.93012 0.0
C656 C 0.90779 0.52432 0.94655 0.0
C657 C 0.87202 0.54893 0.94754 0.0
C658 C 0.92938 0.51689 0.95546 0.0
C659 C 0.93861 0.526 0.97419 0.0
C660 C 0.89531 0.54094 0.95644 0.0
C661 C 0.92577 0.5428 0.98353 0.0
C662 C 0.85922 0.56504 0.95758 0.0
C663 C 0.84142 0.54727 0.92056 0.0
N664 N 0.90477 0.54967 0.97457 0.0
N665 N 0.86267 0.54053 0.92938 0.0
H666 H 0.39201 0.27038 0.93662 0.0
H667 H 0.5353 0.42078 0.00066 0.0
H668 H 0.47868 0.27278 0.9583 0.0
H669 H 0.44306 0.41288 0.98633 0.0
H670 H 0.51524 0.36698 0.98445 0.0
H671 H 0.41057 0.32324 0.95389 0.0
C672 C 0.41491 0.28204 0.94504 0.0
C673 C 0.4338 0.26719 0.94609 0.0
C674 C 0.49933 0.37695 0.98485 0.0
C675 C 0.45517 0.32747 0.96582 0.0
C676 C 0.51079 0.40764 0.99409 0.0
C677 C 0.49084 0.42126 0.99469 0.0
C678 C 0.46772 0.35981 0.97608 0.0
C679 C 0.45929 0.40329 0.98599 0.0
C680 C 0.42542 0.31209 0.95494 0.0
C681 C 0.46316 0.28317 0.95729 0.0
N682 N 0.44869 0.37348 0.97697 0.0
N683 N 0.47299 0.3125 0.96665 0.0
H684 H 0.21347 0.7314 0.05562 0.0
H685 H 0.032 0.59058 0.02323 0.0
H686 H 0.13076 0.73286 0.07451 0.0
H687 H 0.11668 0.58466 0.01318 0.0
H688 H 0.06687 0.6436 0.04102 0.0
H689 H 0.17748 0.67874 0.03851 0.0
C690 C 0.18763 0.72071 0.05602 0.0
C691 C 0.17504 0.73662 0.06637 0.0
C692 C 0.07774 0.6306 0.03496 0.0
C693 C 0.13357 0.67594 0.04699 0.0
C694 C 0.0579 0.60042 0.02484 0.0
C695 C 0.07159 0.58337 0.01678 0.0
C696 C 0.11139 0.64373 0.03682 0.0
C697 C 0.10519 0.59709 0.01916 0.0
C698 C 0.16708 0.69049 0.04637 0.0
C699 C 0.14141 0.7213 0.06673 0.0
N700 N 0.12393 0.6265 0.02891 0.0
N701 N 0.12175 0.69178 0.0571 0.0
H702 H 0.29247 0.40987 0.09005 0.0
H703 H 0.38982 0.48106 0.0059 0.0
H704 H 0.28151 0.47946 0.06017 0.0
H705 H 0.43686 0.47006 0.05412 0.0
H706 H 0.34273 0.46862 0.02237 0.0
H707 H 0.33967 0.42111 0.07408 0.0
C708 C 0.29987 0.42756 0.08026 0.0
C709 C 0.28253 0.44352 0.07647 0.0
C710 C 0.36338 0.46885 0.02927 0.0
C711 C 0.33583 0.45541 0.05773 0.0
C712 C 0.3901 0.47573 0.01989 0.0
C713 C 0.41724 0.47668 0.02871 0.0
C714 C 0.36353 0.46207 0.04742 0.0
C715 C 0.41647 0.4698 0.04689 0.0
C716 C 0.3267 0.43374 0.07108 0.0
C717 C 0.29323 0.46573 0.06328 0.0
N718 N 0.3899 0.46252 0.05565 0.0
N719 N 0.31893 0.47075 0.0543 0.0
H720 H 0.61503 0.89351 0.06947 0.0
H721 H 0.46556 0.89023 0.01335 0.0
H722 H 0.52222 0.80718 0.05407 0.0
H723 H 0.56017 0.97614 0.02297 0.0
H724 H 0.48514 0.86106 0.03107 0.0
H725 H 0.59469 0.92586 0.05521 0.0
C726 C 0.59037 0.88144 0.06317 0.0
C727 C 0.57037 0.84761 0.06273 0.0
C728 C 0.50168 0.88632 0.0294 0.0
C729 C 0.54704 0.88423 0.04651 0.0
C730 C 0.49049 0.90297 0.01929 0.0
C731 C 0.51139 0.93549 0.01663 0.0
C732 C 0.5341 0.90227 0.03688 0.0
C733 C 0.54335 0.951 0.02473 0.0
C734 C 0.57882 0.89984 0.055 0.0
C735 C 0.53864 0.83311 0.05439 0.0
N736 N 0.55385 0.93415 0.03444 0.0
N737 N 0.52802 0.85148 0.0466 0.0
H738 H 0.90879 0.1714 0.37321 0.0
H739 H 0.1017 0.28262 0.38588 0.0
H740 H 0.96619 0.18902 0.42413 0.0
H741 H 0.04292 0.26171 0.335 0.0
H742 H 0.05266 0.25086 0.40061 0.0
H743 H 0.95781 0.20683 0.35956 0.0
C744 C 0.93178 0.18273 0.38153 0.0
C745 C 0.9334 0.17693 0.3998 0.0
C746 C 0.05051 0.25331 0.38624 0.0
C747 C 0.98985 0.21788 0.38423 0.0
C748 C 0.07852 0.27149 0.37779 0.0
C749 C 0.07652 0.27487 0.35912 0.0
C750 C 0.0202 0.23835 0.37596 0.0
C751 C 0.04575 0.25976 0.34939 0.0
C752 C 0.95979 0.20309 0.37373 0.0
C753 C 0.9638 0.19287 0.41001 0.0
N754 N 0.01888 0.24216 0.35791 0.0
N755 N 0.99087 0.21246 0.40206 0.0
H756 H 0.87622 0.80744 0.3901 0.0
H757 H 0.70728 0.79786 0.38624 0.0
H758 H 0.79973 0.73788 0.41899 0.0
H759 H 0.75698 0.80976 0.33809 0.0
H760 H 0.74578 0.78559 0.40201 0.0
H761 H 0.83712 0.81799 0.374 0.0
C762 C 0.85128 0.79412 0.39302 0.0
C763 C 0.84146 0.77153 0.40598 0.0
C764 C 0.7481 0.79085 0.38799 0.0
C765 C 0.79697 0.78471 0.38802 0.0
C766 C 0.72634 0.79797 0.37903 0.0
C767 C 0.72897 0.80468 0.36084 0.0
C768 C 0.77311 0.79137 0.37882 0.0
C769 C 0.75402 0.80445 0.35208 0.0
C770 C 0.82907 0.80042 0.38388 0.0
C771 C 0.8088 0.75595 0.40945 0.0
N772 N 0.77538 0.79822 0.36122 0.0
N773 N 0.7878 0.76303 0.40063 0.0
H774 H 0.24218 0.05196 0.41819 0.0
H775 H 0.14571 0.92721 0.3371 0.0
H776 H 0.24488 0.08987 0.36634 0.0
H777 H 0.22762 0.92214 0.36004 0.0
H778 H 0.16935 0.98235 0.35268 0.0
H779 H 0.22589 -0.00104 0.40201 0.0
C780 C 0.23989 0.04955 0.40348 0.0
C781 C 0.2448 0.07579 0.39371 0.0
C782 C 0.18191 0.96891 0.3543 0.0
C783 C 0.22474 0.01472 0.37536 0.0
C784 C 0.16849 0.93756 0.34553 0.0
C785 C 0.18457 0.92 0.34753 0.0
C786 C 0.21103 0.98227 0.36549 0.0
C787 C 0.21418 0.93464 0.35848 0.0
C788 C 0.23035 0.01916 0.39433 0.0
C789 C 0.24049 0.07041 0.37458 0.0
N790 N 0.22634 0.96491 0.36733 0.0
N791 N 0.23009 0.04031 0.36604 0.0
H792 H 0.48574 0.56785 0.29933 0.0
H793 H 0.63676 0.74225 0.30878 0.0
H794 H 0.51774 0.61354 0.25005 0.0
H795 H 0.55282 0.72716 0.3347 0.0
H796 H 0.60376 0.68848 0.29124 0.0
H797 H 0.52091 0.62048 0.31697 0.0
C798 C 0.49992 0.58869 0.29211 0.0
C799 C 0.49813 0.58591 0.27298 0.0
C800 C 0.59281 0.69713 0.30083 0.0
C801 C 0.53972 0.64572 0.29338 0.0
C802 C 0.61145 0.7277 0.31073 0.0
C803 C 0.59723 0.73937 0.32285 0.0
C804 C 0.56025 0.67781 0.3037 0.0
C805 C 0.56456 0.71917 0.32532 0.0
C806 C 0.52021 0.6186 0.30228 0.0
C807 C 0.51838 0.61396 0.26468 0.0
N808 N 0.54716 0.68917 0.31591 0.0
N809 N 0.53846 0.64266 0.27494 0.0
H810 H 0.35662 0.88166 0.23666 0.0
H811 H 0.28865 0.88749 0.33233 0.0
H812 H 0.41676 0.92292 0.28766 0.0
H813 H 0.22765 0.84349 0.28171 0.0
H814 H 0.33604 0.9031 0.31588 0.0
H815 H 0.30937 0.87066 0.25251 0.0
C816 C 0.35994 0.88872 0.25115 0.0
C817 C 0.39067 0.90298 0.26087 0.0
C818 C 0.31229 0.89011 0.30835 0.0
C819 C 0.33666 0.89013 0.27915 0.0
C820 C 0.28517 0.88114 0.31776 0.0
C821 C 0.25403 0.86407 0.30843 0.0
C822 C 0.30835 0.88197 0.28945 0.0
C823 C 0.25113 0.85662 0.28951 0.0
C824 C 0.33292 0.88223 0.26022 0.0
C825 C 0.39347 0.91135 0.27967 0.0
N826 N 0.27791 0.86555 0.28066 0.0
N827 N 0.36684 0.90469 0.28819 0.0
H828 H 0.15341 0.53353 0.283 0.0
H829 H 0.10632 0.35905 0.31431 0.0
H830 H 0.06158 0.4468 0.26619 0.0
H831 H 0.20063 0.44454 0.32687 0.0
H832 H 0.08959 0.3902 0.29607 0.0
H833 H 0.17133 0.5009 0.29868 0.0
C834 C 0.13701 0.50757 0.28264 0.0
C835 C 0.10587 0.49286 0.27343 0.0
C836 C 0.11399 0.40212 0.30274 0.0
C837 C 0.12625 0.45528 0.29128 0.0
C838 C 0.12355 0.38433 0.3131 0.0
C839 C 0.15489 0.3993 0.32204 0.0
C840 C 0.13591 0.43514 0.30144 0.0
C841 C 0.1762 0.43216 0.32023 0.0
C842 C 0.1473 0.48892 0.29152 0.0
C843 C 0.08582 0.45906 0.27309 0.0
N844 N 0.16628 0.44903 0.31018 0.0
N845 N 0.09628 0.44141 0.28201 0.0
H846 H 0.36083 0.46787 0.2412 0.0
H847 H 0.28599 0.39571 0.33287 0.0
H848 H 0.41728 0.48555 0.29249 0.0
H849 H 0.2276 0.37678 0.28208 0.0
H850 H 0.33438 0.42712 0.31774 0.0
H851 H 0.31178 0.43233 0.25526 0.0
C852 C 0.36293 0.46406 0.25536 0.0
C853 C 0.39316 0.47995 0.26573 0.0
C854 C 0.311 0.41606 0.30987 0.0
C855 C 0.33726 0.43961 0.28192 0.0
C856 C 0.28329 0.3981 0.31852 0.0
C857 C 0.2526 0.38362 0.30878 0.0
C858 C 0.30814 0.41971 0.29129 0.0
C859 C 0.25073 0.38756 0.29017 0.0
C860 C 0.33493 0.44394 0.2634 0.0
C861 C 0.39444 0.47429 0.28406 0.0
N862 N 0.27812 0.4053 0.28205 0.0
N863 N 0.36695 0.45474 0.29155 0.0
H864 H 0.53334 0.9304 0.25008 0.0
H865 H 0.56525 0.84092 0.32732 0.0
H866 H 0.45394 0.85356 0.27387 0.0
H867 H 0.62129 0.8645 0.28135 0.0
H868 H 0.52777 0.85415 0.31135 0.0
H869 H 0.56974 0.91472 0.26465 0.0
C870 C 0.52335 0.91009 0.25819 0.0
C871 C 0.49022 0.89328 0.26062 0.0
C872 C 0.54825 0.85633 0.30479 0.0
C873 C 0.5323 0.87621 0.27787 0.0
C874 C 0.56969 0.84898 0.31389 0.0
C875 C 0.59634 0.85165 0.3056 0.0
C876 C 0.55403 0.86724 0.28752 0.0
C877 C 0.60091 0.862 0.28814 0.0
C878 C 0.54429 0.90135 0.26658 0.0
C879 C 0.47923 0.86779 0.27182 0.0
N880 N 0.58013 0.86981 0.27973 0.0
N881 N 0.50026 0.86024 0.28015 0.0
H882 H 0.08723 0.57537 0.30235 0.0
H883 H 0.15155 0.76465 0.29622 0.0
H884 H 0.10967 0.6202 0.25228 0.0
H885 H 0.15075 0.72398 0.34658 0.0
H886 H 0.12959 0.71056 0.27965 0.0
H887 H 0.10397 0.62839 0.31859 0.0
C888 C 0.09567 0.59634 0.29475 0.0
C889 C 0.09727 0.59329 0.27592 0.0
C890 C 0.13395 0.71337 0.29433 0.0
C891 C 0.1161 0.65404 0.29443 0.0
C892 C 0.14606 0.7441 0.30376 0.0
C893 C 0.15211 0.74831 0.32271 0.0
C894 C 0.12792 0.68679 0.30401 0.0
C895 C 0.14608 0.7214 0.33192 0.0
C896 C 0.10512 0.62658 0.30404 0.0
C897 C 0.10772 0.62125 0.26676 0.0
N898 N 0.13417 0.69167 0.32248 0.0
N899 N 0.11683 0.65045 0.27611 0.0
H900 H 0.84036 0.08897 0.36648 0.0
H901 H 0.68843 0.91643 0.35538 0.0
H902 H 0.80979 0.04257 0.41571 0.0
H903 H 0.77369 0.9279 0.33246 0.0
H904 H 0.7217 0.97015 0.37295 0.0
H905 H 0.80475 0.03651 0.34874 0.0
C906 C 0.8264 0.06802 0.37367 0.0
C907 C 0.82871 0.07056 0.39281 0.0
C908 C 0.73286 0.96069 0.36401 0.0
C909 C 0.78659 0.01098 0.37233 0.0
C910 C 0.71408 0.9301 0.35413 0.0
C911 C 0.72856 0.91736 0.3429 0.0
C912 C 0.76589 0.979 0.36195 0.0
C913 C 0.76169 0.93667 0.34117 0.0
C914 C 0.80584 0.03822 0.36345 0.0
C915 C 0.80873 0.04236 0.40108 0.0
N916 N 0.77927 0.9667 0.35052 0.0
N917 N 0.78839 0.01378 0.39079 0.0
H918 H 0.91466 0.73839 0.38155 0.0
H919 H 0.10726 0.82045 0.38928 0.0
H920 H 0.97695 0.78909 0.43103 0.0
H921 H 0.046 0.7799 0.33853 0.0
H922 H 0.05941 0.80463 0.40528 0.0
H923 H 0.96205 0.74877 0.36614 0.0
C924 C 0.9383 0.75166 0.3892 0.0
C925 C 0.94181 0.76315 0.4076 0.0
C926 C 0.05641 0.79911 0.39065 0.0
C927 C 0.99623 0.77492 0.39003 0.0
C928 C 0.08376 0.80811 0.38147 0.0
C929 C 0.08073 0.80162 0.36248 0.0
C930 C 0.0257 0.78344 0.3808 0.0
C931 C 0.04957 0.78555 0.35316 0.0
C932 C 0.96535 0.75749 0.3804 0.0
C933 C 0.97301 0.77958 0.41689 0.0
N934 N 0.02329 0.77708 0.36241 0.0
N935 N 0.99901 0.78514 0.40798 0.0
H936 H 0.27764 0.22138 0.40231 0.0
H937 H 0.12971 0.21472 0.34225 0.0
H938 H 0.18588 0.13356 0.38731 0.0
H939 H 0.22457 0.30018 0.35223 0.0
H940 H 0.14864 0.18552 0.3607 0.0
H941 H 0.25718 0.25195 0.38636 0.0
C942 C 0.2531 0.20862 0.39579 0.0
C943 C 0.23351 0.17488 0.39599 0.0
C944 C 0.16531 0.2107 0.35892 0.0
C945 C 0.21004 0.20953 0.37762 0.0
C946 C 0.15452 0.22731 0.34837 0.0
C947 C 0.17563 0.25984 0.34579 0.0
C948 C 0.19745 0.22679 0.36691 0.0
C949 C 0.20748 0.27514 0.35403 0.0
C950 C 0.2415 0.226 0.3866 0.0
C951 C 0.20197 0.15947 0.38722 0.0
N952 N 0.21746 0.25847 0.36422 0.0
N953 N 0.19125 0.17689 0.37835 0.0
H954 H 0.64055 0.51942 0.76041 0.0
H955 H 0.71016 0.59582 0.66884 0.0
H956 H 0.58057 0.50649 0.71133 0.0
H957 H 0.77007 0.61609 0.7192 0.0
H958 H 0.66232 0.56444 0.68452 0.0
H959 H 0.68814 0.55701 0.74611 0.0
C960 C 0.63732 0.52482 0.74673 0.0
C961 C 0.60651 0.50953 0.73701 0.0
C962 C 0.68593 0.57587 0.69217 0.0
C963 C 0.66096 0.55212 0.72043 0.0
C964 C 0.7133 0.59377 0.6832 0.0
C965 C 0.74427 0.60854 0.69266 0.0
C966 C 0.68947 0.57251 0.71074 0.0
C967 C 0.74674 0.60509 0.7113 0.0
C968 C 0.66454 0.54612 0.73851 0.0
C969 C 0.60389 0.51722 0.71922 0.0
N970 N 0.71974 0.58732 0.71969 0.0
N971 N 0.63073 0.53776 0.71148 0.0
H972 H 0.54027 0.13594 0.72387 0.0
H973 H 0.37239 0.1283 0.7199 0.0
H974 H 0.46205 0.063 0.75035 0.0
H975 H 0.42194 0.13987 0.67172 0.0
H976 H 0.41038 0.11511 0.73554 0.0
H977 H 0.50199 0.14834 0.70844 0.0
C978 C 0.51516 0.12232 0.72642 0.0
C979 C 0.50458 0.09814 0.73846 0.0
C980 C 0.41277 0.12052 0.72154 0.0
C981 C 0.46106 0.11345 0.72133 0.0
C982 C 0.39128 0.12812 0.71266 0.0
C983 C 0.39401 0.13493 0.69449 0.0
C984 C 0.4376 0.12077 0.71231 0.0
C985 C 0.41887 0.13441 0.68568 0.0
C986 C 0.49343 0.12968 0.71768 0.0
C987 C 0.47171 0.08224 0.74153 0.0
N988 N 0.43998 0.12778 0.69474 0.0
N989 N 0.45118 0.09035 0.73313 0.0
H990 H 0.92762 0.393 0.73445 0.0
H991 H 0.78935 0.23924 0.66991 0.0
H992 H 0.83595 0.38261 0.71531 0.0
H993 H 0.88562 0.25541 0.68181 0.0
H994 H 0.80559 0.2909 0.68764 0.0
H995 H 0.9122 0.34145 0.71654 0.0
C996 C 0.90425 0.37982 0.7265 0.0
C997 C 0.88308 0.3921 0.72627 0.0
C998 C 0.82322 0.28321 0.68639 0.0
C999 C 0.86534 0.33338 0.70581 0.0
C1000 C 0.81394 0.25375 0.67627 0.0
C1001 C 0.83616 0.2431 0.67452 0.0
C1002 C 0.85493 0.3021 0.69487 0.0
C1003 C 0.8677 0.26271 0.68301 0.0
C1004 C 0.89554 0.35055 0.71623 0.0
C1005 C 0.85319 0.37424 0.71566 0.0
N1006 N 0.87617 0.2913 0.69289 0.0
N1007 N 0.8452 0.34577 0.70589 0.0
H1008 H 0.20556 0.92607 0.59877 0.0
H1009 H 0.21591 0.0757 0.66057 0.0
H1010 H 0.12238 0.93046 0.61426 0.0
H1011 H 0.2999 0.07051 0.64782 0.0
H1012 H 0.18142 0.02276 0.64312 0.0
H1013 H 0.24075 0.97935 0.61599 0.0
C1014 C 0.19471 0.93829 0.60574 0.0
C1015 C 0.16097 0.92374 0.60512 0.0
C1016 C 0.20738 0.03312 0.64412 0.0
C1017 C 0.20105 0.98458 0.62491 0.0
C1018 C 0.22707 0.06335 0.65408 0.0
C1019 C 0.26074 0.07742 0.65561 0.0
C1020 C 0.22147 0.01681 0.63557 0.0
C1021 C 0.27399 0.06046 0.64692 0.0
C1022 C 0.2148 0.96862 0.61563 0.0
C1023 C 0.14824 0.94052 0.61457 0.0
N1024 N 0.2543 0.031 0.63725 0.0
N1025 N 0.16827 0.97001 0.62404 0.0
H1026 H 0.08169 0.2563 0.6195 0.0
H1027 H 0.88896 0.17275 0.61176 0.0
H1028 H 0.01926 0.20427 0.57025 0.0
H1029 H 0.95052 0.2187 0.66205 0.0
H1030 H 0.93676 0.18778 0.59587 0.0
H1031 H 0.03432 0.24644 0.63481 0.0
C1032 C 0.05802 0.24284 0.61189 0.0
C1033 C 0.05446 0.23091 0.59358 0.0
C1034 C 0.93984 0.19467 0.61037 0.0
C1035 C 0.0001 0.21971 0.61101 0.0
C1036 C 0.91251 0.18607 0.61949 0.0
C1037 C 0.91564 0.19428 0.63833 0.0
C1038 C 0.97064 0.21164 0.62013 0.0
C1039 C 0.94688 0.21173 0.64754 0.0
C1040 C 0.031 0.23732 0.62063 0.0
C1041 C 0.02323 0.21416 0.58432 0.0
N1042 N 0.97314 0.21972 0.63836 0.0
N1043 N 0.99728 0.20891 0.59316 0.0
H1044 H 0.7439 0.82127 0.63095 0.0
H1045 H 0.82799 0.71274 0.62871 0.0
H1046 H 0.7873 0.8078 0.5842 0.0
H1047 H 0.81097 0.75202 0.67806 0.0
H1048 H 0.80597 0.74046 0.611 0.0
H1049 H 0.7603 0.78802 0.6472 0.0
C1050 C 0.75673 0.81116 0.62407 0.0
C1051 C 0.76464 0.81769 0.60628 0.0
C1052 C 0.80704 0.743 0.6257 0.0
C1053 C 0.78327 0.77946 0.62476 0.0
C1054 C 0.81947 0.72718 0.63574 0.0
C1055 C 0.82106 0.73029 0.65473 0.0
C1056 C 0.79595 0.7617 0.63482 0.0
C1057 C 0.81016 0.74936 0.66338 0.0
C1058 C 0.76607 0.7922 0.63335 0.0
C1059 C 0.7806 0.8033 0.59787 0.0
N1060 N 0.79791 0.76432 0.65334 0.0
N1061 N 0.78961 0.785 0.60724 0.0
H1062 H 0.08639 0.8204 0.62645 0.0
H1063 H 0.89382 0.70666 0.6146 0.0
H1064 H 0.02775 0.8008 0.57574 0.0
H1065 H 0.95338 0.72724 0.66514 0.0
H1066 H 0.94251 0.73857 0.59968 0.0
H1067 H 0.03799 0.78392 0.64033 0.0
C1068 C 0.06328 0.80838 0.61822 0.0
C1069 C 0.06107 0.81391 0.59995 0.0
C1070 C 0.94493 0.73599 0.61401 0.0
C1071 C 0.00543 0.77187 0.61576 0.0
C1072 C 0.91711 0.71771 0.62257 0.0
C1073 C 0.91944 0.71423 0.6412 0.0
C1074 C 0.97536 0.75101 0.62415 0.0
C1075 C 0.95033 0.72928 0.65078 0.0
C1076 C 0.03565 0.78744 0.62615 0.0
C1077 C 0.03058 0.79715 0.58985 0.0
N1078 N 0.97703 0.74706 0.64216 0.0
N1079 N 0.00391 0.77706 0.59793 0.0
H1080 H 0.12103 0.1874 0.61085 0.0
H1081 H 0.29065 0.1981 0.61373 0.0
H1082 H 0.19666 0.25715 0.58159 0.0
H1083 H 0.24007 0.18406 0.66167 0.0
H1084 H 0.25207 0.2106 0.59817 0.0
H1085 H 0.16051 0.17689 0.6265 0.0
C1086 C 0.14587 0.20077 0.60777 0.0
C1087 C 0.15534 0.22337 0.59484 0.0
C1088 C 0.24962 0.20486 0.61211 0.0
C1089 C 0.20029 0.21029 0.61228 0.0
C1090 C 0.27145 0.19763 0.62095 0.0
C1091 C 0.26857 0.19024 0.63902 0.0
C1092 C 0.22437 0.20375 0.62129 0.0
C1093 C 0.24329 0.18995 0.64778 0.0
C1094 C 0.1683 0.19449 0.61664 0.0
C1095 C 0.18788 0.23906 0.59114 0.0
N1096 N 0.22194 0.19629 0.63878 0.0
N1097 N 0.20913 0.23203 0.59971 0.0
H1098 H 0.81733 0.93267 0.62218 0.0
H1099 H 0.77128 0.0685 0.64891 0.0
H1100 H 0.7299 0.92808 0.59986 0.0
H1101 H 0.86563 0.08067 0.66229 0.0
H1102 H 0.7539 0.0152 0.63264 0.0
H1103 H 0.83353 0.98504 0.63903 0.0
C1104 C 0.80143 0.94261 0.62095 0.0
C1105 C 0.77219 0.92603 0.60967 0.0
C1106 C 0.77842 0.02956 0.63911 0.0
C1107 C 0.79071 0.98606 0.62875 0.0
C1108 C 0.78834 0.05994 0.64836 0.0
C1109 C 0.81997 0.07896 0.65681 0.0
C1110 C 0.80025 0.0181 0.63848 0.0
C1111 C 0.84104 0.06671 0.6559 0.0
C1112 C 0.81079 0.97259 0.63047 0.0
C1113 C 0.75274 0.94023 0.60833 0.0
N1114 N 0.83079 0.03699 0.6469 0.0
N1115 N 0.76232 0.96945 0.6178 0.0
H1116 H 0.54547 0.39485 0.71796 0.0
H1117 H 0.3631 0.25554 0.68505 0.0
H1118 H 0.46271 0.39513 0.73763 0.0
H1119 H 0.447 0.24995 0.67259 0.0
H1120 H 0.39868 0.30826 0.70289 0.0
H1121 H 0.50926 0.34349 0.69948 0.0
C1122 C 0.51963 0.38421 0.71827 0.0
C1123 C 0.50708 0.39933 0.72932 0.0
C1124 C 0.40927 0.29546 0.69626 0.0
C1125 C 0.46539 0.34024 0.70832 0.0
C1126 C 0.38899 0.26539 0.68613 0.0
C1127 C 0.40219 0.24834 0.6775 0.0
C1128 C 0.44293 0.30858 0.69759 0.0
C1129 C 0.43586 0.26231 0.67908 0.0
C1130 C 0.49895 0.35475 0.70781 0.0
C1131 C 0.47339 0.38413 0.72942 0.0
N1132 N 0.45506 0.29159 0.68893 0.0
N1133 N 0.45369 0.35542 0.71906 0.0
H1134 H 0.57661 0.06503 0.71227 0.0
H1135 H 0.76942 0.15161 0.71908 0.0
H1136 H 0.63857 0.11171 0.76228 0.0
H1137 H 0.70722 0.10281 0.6693 0.0
H1138 H 0.7218 0.13527 0.73535 0.0
H1139 H 0.62399 0.07632 0.69662 0.0
C1140 C 0.60022 0.07759 0.71997 0.0
C1141 C 0.60367 0.08772 0.73858 0.0
C1142 C 0.71853 0.12803 0.72088 0.0
C1143 C 0.65811 0.10068 0.72074 0.0
C1144 C 0.74576 0.13744 0.71154 0.0
C1145 C 0.74239 0.12874 0.69273 0.0
C1146 C 0.68759 0.10983 0.71138 0.0
C1147 C 0.71104 0.11016 0.68377 0.0
C1148 C 0.62726 0.08394 0.71104 0.0
C1149 C 0.63477 0.10335 0.74795 0.0
N1150 N 0.68488 0.10144 0.69317 0.0
N1151 N 0.66081 0.10958 0.7389 0.0
H1152 H 0.83255 0.45647 0.72255 0.0
H1153 H 0.88916 0.63003 0.68738 0.0
H1154 H 0.9267 0.54007 0.73914 0.0
H1155 H 0.79233 0.54775 0.67699 0.0
H1156 H 0.90351 0.59892 0.70728 0.0
H1157 H 0.81722 0.49081 0.70677 0.0
C1158 C 0.84995 0.4822 0.72289 0.0
C1159 C 0.88101 0.49549 0.73194 0.0
C1160 C 0.87908 0.58779 0.70074 0.0
C1161 C 0.86376 0.53504 0.71385 0.0
C1162 C 0.8709 0.60552 0.68943 0.0
C1163 C 0.83955 0.59134 0.68058 0.0
C1164 C 0.85574 0.55565 0.70304 0.0
C1165 C 0.81684 0.55947 0.68349 0.0
C1166 C 0.8412 0.50183 0.71393 0.0
C1167 C 0.90252 0.529 0.73226 0.0
N1168 N 0.82542 0.54267 0.69441 0.0
N1169 N 0.8936 0.54767 0.72313 0.0
H1170 H 0.51049 0.96964 0.21705 0.0
H1171 H 0.44793 0.96601 0.11384 0.0
H1172 H 0.41039 0.91072 0.19545 0.0
H1173 H 0.54779 0.02177 0.13641 0.0
H1174 H 0.43286 0.94697 0.14364 0.0
H1175 H 0.52366 0.99092 0.18777 0.0
C1176 C 0.49125 0.96113 0.20609 0.0
C1177 C 0.45934 0.93807 0.20864 0.0
C1178 C 0.45804 0.96347 0.14206 0.0
C1179 C 0.47425 0.96257 0.17496 0.0
C1180 C 0.4667 0.97421 0.12503 0.0
C1181 C 0.49921 0.99557 0.12258 0.0
C1182 C 0.48206 0.97409 0.15675 0.0
C1183 C 0.52239 0.00572 0.13766 0.0
C1184 C 0.49877 0.9734 0.18937 0.0
C1185 C 0.4353 0.9285 0.19408 0.0
N1186 N 0.51337 0.99484 0.15403 0.0
N1187 N 0.44327 0.94064 0.1778 0.0
H1188 H 0.01475 0.52438 0.22455 0.0
H1189 H 0.04344 0.49388 0.12191 0.0
H1190 H 0.08712 0.50118 0.2097 0.0
H1191 H 0.96428 0.50629 0.13681 0.0
H1192 H 0.05741 0.49257 0.15393 0.0
H1193 H 0.99383 0.51462 0.19251 0.0
C1194 C 0.02611 0.51706 0.21453 0.0
C1195 C 0.05284 0.51381 0.21976 0.0
C1196 C 0.03682 0.49531 0.15019 0.0
C1197 C 0.0291 0.50262 0.18308 0.0
C1198 C 0.02869 0.49587 0.13187 0.0
C1199 C 0.00282 0.50053 0.12664 0.0
C1200 C 0.01908 0.49964 0.16341 0.0
C1201 C 0.98485 0.50336 0.14023 0.0
C1202 C 0.01409 0.51135 0.19626 0.0
C1203 C 0.06636 0.5038 0.20627 0.0
N1204 N 0.99349 0.50314 0.15798 0.0
N1205 N 0.05454 0.49887 0.18854 0.0
H1206 H 0.51539 0.52334 0.22348 0.0
H1207 H 0.45912 0.49909 0.11712 0.0
H1208 H 0.41896 0.49705 0.20213 0.0
H1209 H 0.55519 0.52504 0.13912 0.0
H1210 H 0.44235 0.49327 0.14787 0.0
H1211 H 0.52877 0.5191 0.19251 0.0
C1212 C 0.49696 0.51647 0.21225 0.0
C1213 C 0.46612 0.51089 0.21537 0.0
C1214 C 0.46705 0.50005 0.14595 0.0
C1215 C 0.48128 0.50603 0.17981 0.0
C1216 C 0.47661 0.50322 0.12838 0.0
C1217 C 0.50871 0.51284 0.12552 0.0
C1218 C 0.48973 0.50653 0.1608 0.0
C1219 C 0.53037 0.51819 0.14068 0.0
C1220 C 0.50459 0.51399 0.19456 0.0
C1221 C 0.44301 0.50149 0.20033 0.0
N1222 N 0.52053 0.51512 0.15764 0.0
N1223 N 0.45115 0.49969 0.18318 0.0
H1224 H 0.88576 0.41281 0.79033 0.0
H1225 H 0.01857 0.52447 0.87254 0.0
H1226 H 0.95925 0.51217 0.78625 0.0
H1227 H 0.93314 0.43309 0.8785 0.0
H1228 H 0.99855 0.52023 0.84074 0.0
H1229 H 0.9041 0.41947 0.82252 0.0
C1230 C 0.90588 0.43603 0.79624 0.0
C1231 C 0.92125 0.46191 0.78562 0.0
C1232 C 0.98411 0.50123 0.84905 0.0
C1233 C 0.94227 0.4698 0.8225 0.0
C1234 C 0.99559 0.50353 0.86714 0.0
C1235 C 0.97751 0.47902 0.87812 0.0
C1236 C 0.95451 0.47405 0.84186 0.0
C1237 C 0.94772 0.45264 0.87054 0.0
C1238 C 0.9162 0.43989 0.81464 0.0
C1239 C 0.94678 0.49166 0.79401 0.0
N1240 N 0.93726 0.45075 0.85285 0.0
N1241 N 0.95668 0.49475 0.81197 0.0
H1242 H 0.52777 0.41631 0.79402 0.0
H1243 H 0.5212 0.52716 0.87762 0.0
H1244 H 0.55307 0.51633 0.79123 0.0
H1245 H 0.48485 0.42403 0.8769 0.0
H1246 H 0.53763 0.52529 0.84708 0.0
H1247 H 0.51636 0.42031 0.8254 0.0
C1248 C 0.53083 0.43913 0.79999 0.0
C1249 C 0.54101 0.46591 0.78986 0.0
C1250 C 0.52612 0.5031 0.85363 0.0
C1251 C 0.52831 0.47079 0.82601 0.0
C1252 C 0.5169 0.50418 0.8711 0.0
C1253 C 0.50146 0.47566 0.8798 0.0
C1254 C 0.52004 0.47333 0.84483 0.0
C1255 C 0.49621 0.44651 0.87062 0.0
C1256 C 0.52445 0.44144 0.81797 0.0
C1257 C 0.54537 0.4951 0.79853 0.0
N1258 N 0.50545 0.4461 0.85366 0.0
N1259 N 0.53883 0.49672 0.81608 0.0
H1260 H 0.58641 0.08471 0.80437 0.0
H1261 H 0.44496 0.97698 0.86492 0.0
H1262 H 0.48557 0.02616 0.78413 0.0
H1263 H 0.54557 0.03162 0.88618 0.0
H1264 H 0.46023 0.99413 0.83505 0.0
H1265 H 0.57293 0.06467 0.83421 0.0
C1266 C 0.56151 0.06747 0.80617 0.0
C1267 C 0.53703 0.05737 0.7918 0.0
C1268 C 0.47905 0.00235 0.84621 0.0
C1269 C 0.52142 0.03458 0.82583 0.0
C1270 C 0.47033 0.99239 0.86329 0.0
C1271 C 0.49399 0.00275 0.87813 0.0
C1272 C 0.51173 0.02299 0.84383 0.0
C1273 C 0.52646 0.02331 0.87519 0.0
C1274 C 0.55381 0.05618 0.8232 0.0
C1275 C 0.50515 0.03512 0.7949 0.0
N1276 N 0.53437 0.03277 0.85838 0.0
N1277 N 0.4983 0.02462 0.81155 0.0
H1278 H 0.12754 0.21438 0.52983 0.0
H1279 H 0.13855 0.3385 0.4588 0.0
H1280 H 0.1049 0.29015 0.54173 0.0
H1281 H 0.17762 0.27471 0.45204 0.0
H1282 H 0.1195 0.31654 0.4875 0.0
H1283 H 0.13933 0.23164 0.49953 0.0
C1284 C 0.12501 0.23465 0.52606 0.0
C1285 C 0.11563 0.25113 0.53843 0.0
C1286 C 0.13216 0.3073 0.4797 0.0
C1287 C 0.12884 0.27085 0.50365 0.0
C1288 C 0.1429 0.3197 0.46329 0.0
C1289 C 0.15989 0.30856 0.4531 0.0
C1290 C 0.13826 0.28342 0.48587 0.0
C1291 C 0.16507 0.28435 0.45962 0.0
C1292 C 0.13165 0.24442 0.50873 0.0
C1293 C 0.11197 0.27669 0.53262 0.0
N1294 N 0.15433 0.27263 0.47558 0.0
N1295 N 0.11879 0.28592 0.51568 0.0
H1296 H 0.69838 0.80592 0.54878 0.0
H1297 H 0.72224 0.90047 0.46047 0.0
H1298 H 0.77211 0.90589 0.5463 0.0
H1299 H 0.65719 0.79711 0.45942 0.0
H1300 H 0.74065 0.90234 0.4921 0.0
H1301 H 0.683 0.80128 0.5161 0.0
C1302 C 0.71146 0.82679 0.54134 0.0
C1303 C 0.73628 0.85646 0.55031 0.0
C1304 C 0.72245 0.87917 0.48498 0.0
C1305 C 0.71873 0.85142 0.51309 0.0
C1306 C 0.71182 0.87815 0.46695 0.0
C1307 C 0.68799 0.84864 0.4574 0.0
C1308 C 0.70901 0.8505 0.49363 0.0
C1309 C 0.6757 0.82033 0.46633 0.0
C1310 C 0.70262 0.82416 0.52273 0.0
C1311 C 0.75233 0.88277 0.54005 0.0
N1312 N 0.68618 0.82198 0.48403 0.0
N1313 N 0.74317 0.87967 0.52204 0.0
H1314 H 0.18175 0.86395 0.55649 0.0
H1315 H 0.12343 0.82933 0.45026 0.0
H1316 H 0.08321 0.82987 0.53543 0.0
H1317 H 0.21659 0.84695 0.47253 0.0
H1318 H 0.10751 0.82813 0.4811 0.0
H1319 H 0.19451 0.85706 0.52569 0.0
C1320 C 0.16277 0.8549 0.54535 0.0
C1321 C 0.13144 0.84767 0.54848 0.0
C1322 C 0.13135 0.83204 0.47921 0.0
C1323 C 0.14585 0.83978 0.51312 0.0
C1324 C 0.14043 0.83258 0.46159 0.0
C1325 C 0.17154 0.83853 0.45875 0.0
C1326 C 0.15358 0.83765 0.49414 0.0
C1327 C 0.19262 0.84297 0.47403 0.0
C1328 C 0.17002 0.85084 0.52777 0.0
C1329 C 0.10765 0.83559 0.53359 0.0
N1330 N 0.18334 0.84265 0.49102 0.0
N1331 N 0.11541 0.83232 0.51651 0.0
H1332 H 0.5891 0.83939 0.1252 0.0
H1333 H 0.70681 0.82322 0.1993 0.0
H1334 H 0.65649 0.80831 0.11163 0.0
H1335 H 0.62861 0.83867 0.21234 0.0
H1336 H 0.69426 0.8257 0.1672 0.0
H1337 H 0.60929 0.84773 0.1572 0.0
C1338 C 0.60852 0.8348 0.12892 0.0
C1339 C 0.6211 0.82305 0.11573 0.0
C1340 C 0.68002 0.82879 0.17712 0.0
C1341 C 0.64396 0.83206 0.1524 0.0
C1342 C 0.68707 0.82725 0.19543 0.0
C1343 C 0.6685 0.83037 0.20853 0.0
C1344 C 0.65423 0.83354 0.17184 0.0
C1345 C 0.64371 0.83631 0.20277 0.0
C1346 C 0.61986 0.83933 0.14722 0.0
C1347 C 0.64586 0.81702 0.12139 0.0
N1348 N 0.63715 0.83746 0.18484 0.0
N1349 N 0.65639 0.82145 0.13933 0.0
H1350 H 0.22671 0.85778 0.12609 0.0
H1351 H 0.15019 0.76258 0.2116 0.0
H1352 H 0.19906 0.75751 0.13038 0.0
H1353 H 0.19123 0.86637 0.21207 0.0
H1354 H 0.16837 0.76081 0.1817 0.0
H1355 H 0.21534 0.86246 0.15767 0.0
C1356 C 0.21859 0.83689 0.13373 0.0
C1357 C 0.21334 0.80708 0.12551 0.0
C1358 C 0.17357 0.78404 0.18834 0.0
C1359 C 0.19999 0.81211 0.16146 0.0
C1360 C 0.16299 0.78501 0.20537 0.0
C1361 C 0.16902 0.81462 0.21427 0.0
C1362 C 0.19011 0.81288 0.18001 0.0
C1363 C 0.18622 0.84304 0.20569 0.0
C1364 C 0.21197 0.83951 0.15171 0.0
C1365 C 0.20269 0.78074 0.13601 0.0
N1366 N 0.19597 0.84145 0.18896 0.0
N1367 N 0.19615 0.78382 0.15335 0.0
H1368 H 0.20906 0.45253 0.14113 0.0
H1369 H 0.18387 0.31676 0.20666 0.0
H1370 H 0.23308 0.37817 0.12816 0.0
H1371 H 0.17019 0.3978 0.22134 0.0
H1372 H 0.20417 0.33984 0.17843 0.0
H1373 H 0.19766 0.43441 0.17131 0.0
C1374 C 0.21217 0.43251 0.14474 0.0
C1375 C 0.22173 0.4166 0.13212 0.0
C1376 C 0.19695 0.35268 0.18789 0.0
C1377 C 0.20849 0.39551 0.1666 0.0
C1378 C 0.18514 0.33941 0.20394 0.0
C1379 C 0.17512 0.35526 0.21633 0.0
C1380 C 0.19852 0.38192 0.18412 0.0
C1381 C 0.17784 0.38484 0.21226 0.0
C1382 C 0.2057 0.42219 0.16197 0.0
C1383 C 0.2258 0.39109 0.13753 0.0
N1384 N 0.18905 0.39706 0.19646 0.0
N1385 N 0.21879 0.38106 0.15432 0.0
H1386 H 0.84726 0.63849 0.88535 0.0
H1387 H 0.78495 0.62385 0.78065 0.0
H1388 H 0.74801 0.57461 0.86345 0.0
H1389 H 0.88448 0.68316 0.80334 0.0
H1390 H 0.76993 0.60736 0.81089 0.0
H1391 H 0.86019 0.65757 0.85555 0.0
C1392 C 0.82816 0.62846 0.87423 0.0
C1393 C 0.79658 0.60463 0.87683 0.0
C1394 C 0.79503 0.62408 0.80924 0.0
C1395 C 0.8112 0.62653 0.84257 0.0
C1396 C 0.80366 0.63335 0.79196 0.0
C1397 C 0.83606 0.65496 0.78941 0.0
C1398 C 0.81897 0.63646 0.82408 0.0
C1399 C 0.85916 0.66684 0.80464 0.0
C1400 C 0.83553 0.63945 0.85721 0.0
C1401 C 0.77265 0.59305 0.86203 0.0
N1402 N 0.85017 0.65739 0.82126 0.0
N1403 N 0.7805 0.60394 0.84547 0.0
H1404 H 0.43423 0.24955 0.88296 0.0
H1405 H 0.32372 0.13733 0.7933 0.0
H1406 H 0.35985 0.1492 0.88345 0.0
H1407 H 0.38941 0.2408 0.79569 0.0
H1408 H 0.33948 0.13956 0.82567 0.0
H1409 H 0.42053 0.24527 0.85039 0.0
C1410 C 0.41479 0.22664 0.87622 0.0
C1411 C 0.39785 0.19981 0.886 0.0
C1412 C 0.35046 0.16174 0.81908 0.0
C1413 C 0.38238 0.19456 0.84852 0.0
C1414 C 0.34164 0.16044 0.80061 0.0
C1415 C 0.35516 0.18897 0.79186 0.0
C1416 C 0.3731 0.19173 0.82878 0.0
C1417 C 0.37804 0.21832 0.80198 0.0
C1418 C 0.40713 0.22415 0.85758 0.0
C1419 C 0.37356 0.17046 0.87643 0.0
N1420 N 0.38625 0.21894 0.81988 0.0
N1421 N 0.36645 0.16864 0.8582 0.0
H1422 H 0.79294 0.24609 0.87 0.0
H1423 H 0.82226 0.14254 0.79254 0.0
H1424 H 0.77218 0.148 0.87482 0.0
H1425 H 0.82379 0.23223 0.78475 0.0
H1426 H 0.80375 0.14354 0.82258 0.0
H1427 H 0.80372 0.24088 0.83853 0.0
C1428 C 0.79049 0.22336 0.86434 0.0
C1429 C 0.78192 0.19751 0.875 0.0
C1430 C 0.8079 0.16285 0.81423 0.0
C1431 C 0.79442 0.19138 0.83902 0.0
C1432 C 0.81867 0.16242 0.79715 0.0
C1433 C 0.82473 0.18743 0.78616 0.0
C1434 C 0.80348 0.18867 0.82045 0.0
C1435 C 0.81921 0.21233 0.7927 0.0
C1436 C 0.79656 0.22034 0.84637 0.0
C1437 C 0.7787 0.16845 0.86699 0.0
N1438 N 0.80916 0.21244 0.80945 0.0
N1439 N 0.78532 0.16627 0.84951 0.0
H1440 H 0.32853 0.14718 0.44481 0.0
H1441 H 0.29326 0.17185 0.54682 0.0
H1442 H 0.25454 0.16839 0.45904 0.0
H1443 H 0.36968 0.15414 0.53291 0.0
H1444 H 0.28268 0.17665 0.51488 0.0
H1445 H 0.34771 0.15523 0.47706 0.0
C1446 C 0.31651 0.1538 0.45472 0.0
C1447 C 0.28974 0.15684 0.44925 0.0
C1448 C 0.30195 0.17198 0.51882 0.0
C1449 C 0.31145 0.16604 0.48615 0.0
C1450 C 0.30813 0.16942 0.5371 0.0
C1451 C 0.33218 0.16224 0.54255 0.0
C1452 C 0.31984 0.16719 0.50587 0.0
C1453 C 0.35043 0.15899 0.52928 0.0
C1454 C 0.32751 0.15849 0.47312 0.0
C1455 C 0.27537 0.16597 0.46263 0.0
N1456 N 0.34371 0.16123 0.51154 0.0
N1457 N 0.28619 0.1699 0.48047 0.0
H1458 H 0.81143 0.13042 0.44317 0.0
H1459 H 0.87399 0.16984 0.54932 0.0
H1460 H 0.90957 0.16132 0.46358 0.0
H1461 H 0.77369 0.1245 0.52802 0.0
H1462 H 0.88888 0.17265 0.51817 0.0
H1463 H 0.79882 0.13478 0.47429 0.0
C1464 C 0.83038 0.13823 0.45421 0.0
C1465 C 0.86151 0.14509 0.45076 0.0
C1466 C 0.86364 0.16224 0.52034 0.0
C1467 C 0.84725 0.15029 0.48653 0.0
C1468 C 0.85507 0.16043 0.53814 0.0
C1469 C 0.82247 0.1468 0.54139 0.0
C1470 C 0.83947 0.15043 0.50565 0.0
C1471 C 0.79914 0.13561 0.52628 0.0
C1472 C 0.82318 0.14078 0.47199 0.0
C1473 C 0.88528 0.15586 0.4656 0.0
N1474 N 0.80809 0.13759 0.50913 0.0
N1475 N 0.8776 0.15787 0.48286 0.0
H1476 H 0.86689 0.77831 0.47115 0.0
H1477 H 0.85658 0.65359 0.54165 0.0
H1478 H 0.8907 0.70343 0.45909 0.0
H1479 H 0.8173 0.71709 0.54903 0.0
H1480 H 0.87508 0.67569 0.51293 0.0
H1481 H 0.8545 0.76029 0.50127 0.0
C1482 C 0.86953 0.75807 0.47484 0.0
C1483 C 0.87948 0.74211 0.46246 0.0
C1484 C 0.86249 0.68484 0.52086 0.0
C1485 C 0.8656 0.72153 0.49707 0.0
C1486 C 0.85206 0.67236 0.5373 0.0
C1487 C 0.83522 0.6834 0.54772 0.0
C1488 C 0.85622 0.7087 0.51484 0.0
C1489 C 0.82977 0.70753 0.54132 0.0
C1490 C 0.86254 0.74786 0.49207 0.0
C1491 C 0.88324 0.71655 0.46819 0.0
N1492 N 0.84022 0.71934 0.52531 0.0
N1493 N 0.87612 0.70692 0.48505 0.0
loop_
_geom_bond_atom_site_label_1
_geom_bond_atom_site_label_2
_geom_bond_distance
_geom_bond_site_symmetry_2
_ccdc_geom_bond_type
H0 C3 0.931 . S
H1 C6 0.928 . S
H2 C8 0.930 . S
C3 H0 0.931 . S
C3 C4 1.413 . S
C3 C5 1.360 . S
C4 C3 1.413 . S
C4 C8 1.429 . S
C5 C3 1.360 . S
C5 C6 1.372 . S
C6 H1 0.928 . S
C6 C5 1.372 . S
C6 C7 1.404 . S
C7 C6 1.404 . S
C7 C8 1.391 . S
C8 H2 0.930 . S
C8 C4 1.429 . S
C8 C7 1.391 . S
H9 C12 0.931 . S
H10 C15 0.928 . S
H11 C17 0.930 . S
C12 H9 0.931 . S
C12 C13 1.413 . S
C12 C14 1.360 . S
C13 C12 1.413 . S
C13 C17 1.429 . S
C14 C12 1.360 . S
C14 C15 1.372 . S
C15 H10 0.928 . S
C15 C14 1.372 . S
C15 C16 1.404 . S
C16 C15 1.404 . S
C16 C17 1.391 . S
C17 H11 0.930 . S
C17 C13 1.429 . S
C17 C16 1.391 . S
H18 C21 0.931 . S
H19 C24 0.928 . S
H20 C26 0.930 . S
C21 H18 0.931 . S
C21 C22 1.413 . S
C21 C23 1.360 . S
C22 C21 1.413 . S
C22 C26 1.429 . S
C23 C21 1.360 . S
C23 C24 1.372 . S
C24 H19 0.928 . S
C24 C23 1.372 . S
C24 C25 1.404 . S
C25 C24 1.404 . S
C25 C26 1.391 . S
C26 H20 0.930 . S
C26 C22 1.429 . S
C26 C25 1.391 . S
H27 C30 0.931 . S
H28 C33 0.928 . S
H29 C35 0.930 . S
C30 H27 0.931 . S
C30 C31 1.413 . S
C30 C32 1.360 . S
C31 C30 1.413 . S
C31 C35 1.429 . S
C32 C30 1.360 . S
C32 C33 1.372 . S
C33 H28 0.928 . S
C33 C32 1.372 . S
C33 C34 1.404 . S
C34 C33 1.404 . S
C34 C35 1.391 . S
C35 H29 0.930 . S
C35 C31 1.429 . S
C35 C34 1.391 . S
H36 C39 0.931 . S
H37 C42 0.928 . S
H38 C44 0.930 . S
C39 H36 0.931 . S
C39 C40 1.413 . S
C39 C41 1.360 . S
C40 C39 1.413 . S
C40 C44 1.429 . S
C41 C39 1.360 . S
C41 C42 1.372 . S
C42 H37 0.928 . S
C42 C41 1.372 . S
C42 C43 1.404 . S
C43 C42 1.404 . S
C43 C44 1.391 . S
C44 H38 0.930 . S
C44 C40 1.429 . S
C44 C43 1.391 . S
H45 C48 0.931 . S
H46 C51 0.928 . S
H47 C53 0.930 . S
C48 H45 0.931 . S
C48 C49 1.413 . S
C48 C50 1.360 . S
C49 C48 1.413 . S
C49 C53 1.429 . S
C50 C48 1.360 . S
C50 C51 1.372 . S
C51 H46 0.928 . S
C51 C50 1.372 . S
C51 C52 1.404 . S
C52 C51 1.404 . S
C52 C53 1.391 . S
C53 H47 0.930 . S
C53 C49 1.429 . S
C53 C52 1.391 . S
H54 C57 0.931 . S
H55 C60 0.928 . S
H56 C62 0.930 . S
C57 H54 0.931 . S
C57 C58 1.413 . S
C57 C59 1.360 . S
C58 C57 1.413 . S
C58 C62 1.429 . S
C59 C57 1.360 . S
C59 C60 1.372 . S
C60 H55 0.928 . S
C60 C59 1.372 . S
C60 C61 1.404 . S
C61 C60 1.404 . S
C61 C62 1.391 . S
C62 H56 0.930 . S
C62 C58 1.429 . S
C62 C61 1.391 . S
H63 C66 0.931 . S
H64 C69 0.928 . S
H65 C71 0.930 . S
C66 H63 0.931 . S
C66 C67 1.413 . S
C66 C68 1.360 . S
C67 C66 1.413 . S
C67 C71 1.429 . S
C68 C66 1.360 . S
C68 C69 1.372 . S
C69 H64 0.928 . S
C69 C68 1.372 . S
C69 C70 1.404 . S
C70 C69 1.404 . S
C70 C71 1.391 . S
C71 H65 0.930 . S
C71 C67 1.429 . S
C71 C70 1.391 . S
H72 C75 0.931 . S
H73 C78 0.928 . S
H74 C80 0.930 . S
C75 H72 0.931 . S
C75 C76 1.413 . S
C75 C77 1.360 . S
C76 C75 1.413 . S
C76 C80 1.429 . S
C77 C75 1.360 . S
C77 C78 1.372 . S
C78 H73 0.928 . S
C78 C77 1.372 . S
C78 C79 1.404 . S
C79 C78 1.404 . S
C79 C80 1.391 . S
C80 H74 0.930 . S
C80 C76 1.429 . S
C80 C79 1.391 . S
H81 C84 0.931 . S
H82 C87 0.928 . S
H83 C89 0.930 . S
C84 H81 0.931 . S
C84 C85 1.413 . S
C84 C86 1.360 . S
C85 C84 1.413 . S
C85 C89 1.429 . S
C86 C84 1.360 . S
C86 C87 1.372 . S
C87 H82 0.928 . S
C87 C86 1.372 . S
C87 C88 1.404 . S
C88 C87 1.404 . S
C88 C89 1.391 . S
C89 H83 0.930 . S
C89 C85 1.429 . S
C89 C88 1.391 . S
H90 C93 0.931 . S
H91 C96 0.928 . S
H92 C98 0.930 . S
C93 H90 0.931 . S
C93 C94 1.413 . S
C93 C95 1.360 . S
C94 C93 1.413 . S
C94 C98 1.429 . S
C95 C93 1.360 . S
C95 C96 1.372 . S
C96 H91 0.928 . S
C96 C95 1.372 . S
C96 C97 1.404 . S
C97 C96 1.404 . S
C97 C98 1.391 . S
C98 H92 0.930 . S
C98 C94 1.429 . S
C98 C97 1.391 . S
H99 C102 0.931 . S
H100 C105 0.928 . S
H101 C107 0.930 . S
C102 H99 0.931 . S
C102 C103 1.413 . S
C102 C104 1.360 . S
C103 C102 1.413 . S
C103 C107 1.429 . S
C104 C102 1.360 . S
C104 C105 1.372 . S
C105 H100 0.928 . S
C105 C104 1.372 . S
C105 C106 1.404 . S
C106 C105 1.404 . S
C106 C107 1.391 . S
C107 H101 0.930 . S
C107 C103 1.429 . S
C107 C106 1.391 . S
H108 C111 0.931 . S
H109 C114 0.928 . S
H110 C116 0.930 . S
C111 H108 0.931 . S
C111 C112 1.413 . S
C111 C113 1.360 . S
C112 C111 1.413 . S
C112 C116 1.429 . S
C113 C111 1.360 . S
C113 C114 1.372 . S
C114 H109 0.928 . S
C114 C113 1.372 . S
C114 C115 1.404 . S
C115 C114 1.404 . S
C115 C116 1.391 . S
C116 H110 0.930 . S
C116 C112 1.429 . S
C116 C115 1.391 . S
H117 C120 0.931 . S
H118 C123 0.928 . S
H119 C125 0.930 . S
C120 H117 0.931 . S
C120 C121 1.413 . S
C120 C122 1.360 . S
C121 C120 1.413 . S
C121 C125 1.429 . S
C122 C120 1.360 . S
C122 C123 1.372 . S
C123 H118 0.928 . S
C123 C122 1.372 . S
C123 C124 1.404 . S
C124 C123 1.404 . S
C124 C125 1.391 . S
C125 H119 0.930 . S
C125 C121 1.429 . S
C125 C124 1.391 . S
H126 C129 0.931 . S
H127 C132 0.928 . S
H128 C134 0.930 . S
C129 H126 0.931 . S
C129 C130 1.413 . S
C129 C131 1.360 . S
C130 C129 1.413 . S
C130 C134 1.429 . S
C131 C129 1.360 . S
C131 C132 1.372 . S
C132 H127 0.928 . S
C132 C131 1.372 . S
C132 C133 1.404 . S
C133 C132 1.404 . S
C133 C134 1.391 . S
C134 H128 0.930 . S
C134 C130 1.429 . S
C134 C133 1.391 . S
H135 C138 0.931 . S
H136 C141 0.928 . S
H137 C143 0.930 . S
C138 H135 0.931 . S
C138 C139 1.413 . S
C138 C140 1.360 . S
C139 C138 1.413 . S
C139 C143 1.429 . S
C140 C138 1.360 . S
C140 C141 1.372 . S
C141 H136 0.928 . S
C141 C140 1.372 . S
C141 C142 1.404 . S
C142 C141 1.404 . S
C142 C143 1.391 . S
C143 H137 0.930 . S
C143 C139 1.429 . S
C143 C142 1.391 . S
H144 C147 0.931 . S
H145 C150 0.928 . S
H146 C152 0.930 . S
C147 H144 0.931 . S
C147 C148 1.413 . S
C147 C149 1.360 . S
C148 C147 1.413 . S
C148 C152 1.429 . S
C149 C147 1.360 . S
C149 C150 1.372 . S
C150 H145 0.928 . S
C150 C149 1.372 . S
C150 C151 1.404 . S
C151 C150 1.404 . S
C151 C152 1.391 . S
C152 H146 0.930 . S
C152 C148 1.429 . S
C152 C151 1.391 . S
H153 C156 0.931 . S
H154 C159 0.928 . S
H155 C161 0.930 . S
C156 H153 0.931 . S
C156 C157 1.413 . S
C156 C158 1.360 . S
C157 C156 1.413 . S
C157 C161 1.429 . S
C158 C156 1.360 . S
C158 C159 1.372 . S
C159 H154 0.928 . S
C159 C158 1.372 . S
C159 C160 1.404 . S
C160 C159 1.404 . S
C160 C161 1.391 . S
C161 H155 0.930 . S
C161 C157 1.429 . S
C161 C160 1.391 . S
C162 Eu163 2.835 . S
C162 C164 1.500 . S
C162 O182 1.257 1_545 S
C162 O183 1.260 . S
Eu163 C162 2.835 . S
Eu163 O182 2.473 1_545 S
Eu163 O183 2.480 . S
Eu163 O184 2.430 . S
Eu163 O185 2.670 1_554 S
Eu163 O186 2.394 1_545 S
Eu163 O191 2.355 1_545 S
Eu163 O193 2.374 . S
C164 C162 1.500 . S
C164 C165 1.377 . S
C164 C169 1.377 1_545 S
C165 C164 1.377 . S
C165 C166 1.395 . S
C165 H194 0.931 . S
C166 C165 1.395 . S
C166 C167 1.383 1_545 S
C166 H195 0.931 . S
C167 C166 1.383 1_565 S
C167 C168 1.394 . S
C168 C167 1.394 . S
C168 C169 1.378 . S
C168 H196 0.931 . S
C169 C164 1.377 1_565 S
C169 C168 1.378 . S
C169 H197 0.931 . S
C170 O184 1.259 1_556 S
C170 O185 1.270 . S
C171 O186 1.251 . S
C171 O187 1.251 1_554 S
C172 Eu173 2.835 . S
C172 C174 1.500 . S
C172 O188 1.257 1_565 S
C172 O189 1.260 . S
Eu173 C172 2.835 . S
Eu173 O185 2.355 1_565 S
Eu173 O187 2.374 . S
Eu173 O188 2.473 1_565 S
Eu173 O189 2.480 . S
Eu173 O190 2.430 . S
Eu173 O191 2.670 1_556 S
Eu173 O192 2.394 1_565 S
C174 C172 1.500 . S
C174 C175 1.377 . S
C174 C179 1.377 1_565 S
C175 C174 1.377 . S
C175 C176 1.395 . S
C175 H198 0.931 . S
C176 C175 1.395 . S
C176 C177 1.383 1_565 S
C176 H199 0.931 . S
C177 C176 1.383 1_545 S
C177 C178 1.394 . S
C178 C177 1.394 . S
C178 C179 1.378 . S
C178 H200 0.931 . S
C179 C174 1.377 1_545 S
C179 C178 1.378 . S
C179 H201 0.931 . S
C180 O190 1.259 1_554 S
C180 O191 1.270 . S
C181 O192 1.251 . S
C181 O193 1.251 1_556 S
O182 C162 1.257 1_565 S
O182 Eu163 2.473 1_565 S
O183 C162 1.260 . S
O183 Eu163 2.480 . S
O184 Eu163 2.430 . S
O184 C170 1.259 1_554 S
O185 Eu163 2.670 1_556 S
O185 C170 1.270 . S
O185 Eu173 2.355 1_545 S
O186 Eu163 2.394 1_565 S
O186 C171 1.251 . S
O187 C171 1.251 1_556 S
O187 Eu173 2.374 . S
O188 C172 1.257 1_545 S
O188 Eu173 2.473 1_545 S
O189 C172 1.260 . S
O189 Eu173 2.480 . S
O190 Eu173 2.430 . S
O190 C180 1.259 1_556 S
O191 Eu163 2.355 1_565 S
O191 Eu173 2.670 1_554 S
O191 C180 1.270 . S
O192 Eu173 2.394 1_545 S
O192 C181 1.251 . S
O193 Eu163 2.374 . S
O193 C181 1.251 1_554 S
H194 C165 0.931 . S
H195 C166 0.931 . S
H196 C168 0.931 . S
H197 C169 0.931 . S
H198 C175 0.931 . S
H199 C176 0.931 . S
H200 C178 0.931 . S
H201 C179 0.931 . S
C202 Eu203 2.835 . S
C202 C204 1.500 1_655 S
C202 O222 1.257 1_655 S
C202 O223 1.260 . S
Eu203 C202 2.835 . S
Eu203 O222 2.473 1_655 S
Eu203 O223 2.480 . S
Eu203 O224 2.430 . S
Eu203 O225 2.670 1_554 S
Eu203 O226 2.394 1_655 S
Eu203 O231 2.355 1_655 S
Eu203 O233 2.374 . S
C204 C202 1.500 1_455 S
C204 C205 1.377 1_455 S
C204 C209 1.377 . S
C205 C204 1.377 1_655 S
C205 C206 1.395 . S
C205 H234 0.931 . S
C206 C205 1.395 . S
C206 C207 1.383 1_655 S
C206 H235 0.931 . S
C207 C206 1.383 1_455 S
C207 C208 1.394 . S
C208 C207 1.394 . S
C208 C209 1.378 . S
C208 H236 0.931 . S
C209 C204 1.377 . S
C209 C208 1.378 . S
C209 H237 0.931 . S
C210 O224 1.259 1_556 S
C210 O225 1.270 . S
C211 O226 1.251 . S
C211 O227 1.251 . S
C212 Eu213 2.835 . S
C212 C214 1.500 1_455 S
C212 O228 1.257 1_455 S
C212 O229 1.260 . S
Eu213 C212 2.835 . S
Eu213 O225 2.355 1_455 S
Eu213 O227 2.374 1_556 S
Eu213 O228 2.473 1_455 S
Eu213 O229 2.480 . S
Eu213 O230 2.430 . S
Eu213 O231 2.670 1_556 S
Eu213 O232 2.394 1_455 S
C214 C212 1.500 1_655 S
C214 C215 1.377 1_655 S
C214 C219 1.377 . S
C215 C214 1.377 1_455 S
C215 C216 1.395 . S
C215 H238 0.931 . S
C216 C215 1.395 . S
C216 C217 1.383 1_455 S
C216 H239 0.931 . S
C217 C216 1.383 1_655 S
C217 C218 1.394 . S
C218 C217 1.394 . S
C218 C219 1.378 . S
C218 H240 0.931 . S
C219 C214 1.377 . S
C219 C218 1.378 . S
C219 H241 0.931 . S
C220 O230 1.259 1_554 S
C220 O231 1.270 . S
C221 O232 1.251 . S
C221 O233 1.251 1_556 S
O222 C202 1.257 1_455 S
O222 Eu203 2.473 1_455 S
O223 C202 1.260 . S
O223 Eu203 2.480 . S
O224 Eu203 2.430 . S
O224 C210 1.259 1_554 S
O225 Eu203 2.670 1_556 S
O225 C210 1.270 . S
O225 Eu213 2.355 1_655 S
O226 Eu203 2.394 1_455 S
O226 C211 1.251 . S
O227 C211 1.251 . S
O227 Eu213 2.374 1_554 S
O228 C212 1.257 1_655 S
O228 Eu213 2.473 1_655 S
O229 C212 1.260 . S
O229 Eu213 2.480 . S
O230 Eu213 2.430 . S
O230 C220 1.259 1_556 S
O231 Eu203 2.355 1_455 S
O231 Eu213 2.670 1_554 S
O231 C220 1.270 . S
O232 Eu213 2.394 1_655 S
O232 C221 1.251 . S
O233 Eu203 2.374 . S
O233 C221 1.251 1_554 S
H234 C205 0.931 . S
H235 C206 0.931 . S
H236 C208 0.931 . S
H237 C209 0.931 . S
H238 C215 0.931 . S
H239 C216 0.931 . S
H240 C218 0.931 . S
H241 C219 0.931 . S
C242 Eu243 2.835 . S
C242 C244 1.500 . S
C242 O262 1.257 . S
C242 O263 1.260 . S
Eu243 C242 2.835 . S
Eu243 O262 2.473 . S
Eu243 O263 2.480 . S
Eu243 O264 2.430 . S
Eu243 O265 2.670 1_556 S
Eu243 O266 2.394 . S
Eu243 O271 2.355 . S
Eu243 O273 2.416 . S
C244 C242 1.500 . S
C244 C245 1.377 . S
C244 C249 1.377 . S
C245 C244 1.377 . S
C245 C246 1.395 . S
C245 H274 0.931 . S
C246 C245 1.395 . S
C246 C247 1.383 . S
C246 H275 0.931 . S
C247 C246 1.383 . S
C247 C248 1.394 . S
C248 C247 1.394 . S
C248 C249 1.378 . S
C248 H276 0.931 . S
C249 C244 1.377 . S
C249 C248 1.378 . S
C249 H277 0.931 . S
C250 O264 1.259 1_554 S
C250 O265 1.270 . S
C251 O266 1.251 . S
C251 O267 1.251 1_556 S
C252 Eu253 2.835 . S
C252 C254 1.500 . S
C252 O268 1.257 . S
C252 O269 1.260 . S
Eu253 C252 2.835 . S
Eu253 O265 2.355 . S
Eu253 O267 2.374 . S
Eu253 O268 2.473 . S
Eu253 O269 2.480 . S
Eu253 O270 2.430 . S
Eu253 O271 2.670 1_554 S
Eu253 O272 2.394 . S
C254 C252 1.500 . S
C254 C255 1.377 . S
C254 C259 1.377 . S
C255 C254 1.377 . S
C255 C256 1.395 . S
C255 H278 0.931 . S
C256 C255 1.395 . S
C256 C257 1.383 . S
C256 H279 0.931 . S
C257 C256 1.383 . S
C257 C258 1.394 . S
C258 C257 1.394 . S
C258 C259 1.378 . S
C258 H280 0.931 . S
C259 C254 1.377 . S
C259 C258 1.378 . S
C259 H281 0.931 . S
C260 O270 1.259 1_556 S
C260 O271 1.270 . S
C261 O272 1.251 . S
C261 O273 1.197 1_554 S
O262 C242 1.257 . S
O262 Eu243 2.473 . S
O263 C242 1.260 . S
O263 Eu243 2.480 . S
O264 Eu243 2.430 . S
O264 C250 1.259 1_556 S
O265 Eu243 2.670 1_554 S
O265 C250 1.270 . S
O265 Eu253 2.355 . S
O266 Eu243 2.394 . S
O266 C251 1.251 . S
O267 C251 1.251 1_554 S
O267 Eu253 2.374 . S
O268 C252 1.257 . S
O268 Eu253 2.473 . S
O269 C252 1.260 . S
O269 Eu253 2.480 . S
O270 Eu253 2.430 . S
O270 C260 1.259 1_554 S
O271 Eu243 2.355 . S
O271 Eu253 2.670 1_556 S
O271 C260 1.270 . S
O272 Eu253 2.394 . S
O272 C261 1.251 . S
O273 Eu243 2.416 . S
O273 C261 1.197 1_556 S
H274 C245 0.931 . S
H275 C246 0.931 . S
H276 C248 0.931 . S
H277 C249 0.931 . S
H278 C255 0.931 . S
H279 C256 0.931 . S
H280 C258 0.931 . S
H281 C259 0.931 . S
C282 Eu283 2.835 . S
C282 C284 1.500 . S
C282 O302 1.257 . S
C282 O303 1.260 . S
Eu283 C282 2.835 . S
Eu283 O302 2.473 . S
Eu283 O303 2.480 . S
Eu283 O304 2.430 . S
Eu283 O305 2.670 . S
Eu283 O306 2.394 . S
Eu283 O311 2.355 . S
Eu283 O313 2.374 . S
C284 C282 1.500 . S
C284 C285 1.377 . S
C284 C289 1.377 . S
C285 C284 1.377 . S
C285 C286 1.395 . S
C285 H314 0.931 . S
C286 C285 1.395 . S
C286 C287 1.383 . S
C286 H315 0.931 . S
C287 C286 1.383 . S
C287 C288 1.394 . S
C288 C287 1.394 . S
C288 C289 1.378 . S
C288 H316 0.931 . S
C289 C284 1.377 . S
C289 C288 1.378 . S
C289 H317 0.931 . S
C290 O304 1.259 . S
C290 O305 1.270 . S
C291 O306 1.251 . S
C291 O307 1.251 . S
C292 Eu293 2.835 . S
C292 C294 1.500 . S
C292 O308 1.257 . S
C292 O309 1.260 . S
Eu293 C292 2.835 . S
Eu293 O305 2.355 . S
Eu293 O307 2.374 . S
Eu293 O308 2.473 . S
Eu293 O309 2.480 . S
Eu293 O310 2.430 . S
Eu293 O311 2.670 . S
Eu293 O312 2.394 . S
C294 C292 1.500 . S
C294 C295 1.377 . S
C294 C299 1.377 . S
C295 C294 1.377 . S
C295 C296 1.395 . S
C295 H318 0.931 . S
C296 C295 1.395 . S
C296 C297 1.383 . S
C296 H319 0.931 . S
C297 C296 1.383 . S
C297 C298 1.394 . S
C298 C297 1.394 . S
C298 C299 1.378 . S
C298 H320 0.931 . S
C299 C294 1.377 . S
C299 C298 1.378 . S
C299 H321 0.931 . S
C300 O310 1.259 . S
C300 O311 1.270 . S
C301 O312 1.251 . S
C301 O313 1.251 . S
O302 C282 1.257 . S
O302 Eu283 2.473 . S
O303 C282 1.260 . S
O303 Eu283 2.480 . S
O304 Eu283 2.430 . S
O304 C290 1.259 . S
O305 Eu283 2.670 . S
O305 C290 1.270 . S
O305 Eu293 2.355 . S
O306 Eu283 2.394 . S
O306 C291 1.251 . S
O307 C291 1.251 . S
O307 Eu293 2.374 . S
O308 C292 1.257 . S
O308 Eu293 2.473 . S
O309 C292 1.260 . S
O309 Eu293 2.480 . S
O310 Eu293 2.430 . S
O310 C300 1.259 . S
O311 Eu283 2.355 . S
O311 Eu293 2.670 . S
O311 C300 1.270 . S
O312 Eu293 2.394 . S
O312 C301 1.251 . S
O313 Eu283 2.374 . S
O313 C301 1.251 . S
H314 C285 0.931 . S
H315 C286 0.931 . S
H316 C288 0.931 . S
H317 C289 0.931 . S
H318 C295 0.931 . S
H319 C296 0.931 . S
H320 C298 0.931 . S
H321 C299 0.931 . S
C322 Eu323 2.835 . S
C322 C324 1.500 . S
C322 O342 1.257 . S
C322 O343 1.260 . S
Eu323 C322 2.835 . S
Eu323 O342 2.473 . S
Eu323 O343 2.480 . S
Eu323 O344 2.430 . S
Eu323 O345 2.670 . S
Eu323 O346 2.394 . S
Eu323 O351 2.355 . S
Eu323 O353 2.374 . S
C324 C322 1.500 . S
C324 C325 1.377 . S
C324 C329 1.377 . S
C325 C324 1.377 . S
C325 C326 1.395 . S
C325 H354 0.931 . S
C326 C325 1.395 . S
C326 C327 1.383 . S
C326 H355 0.931 . S
C327 C326 1.383 . S
C327 C328 1.394 . S
C328 C327 1.394 . S
C328 C329 1.378 . S
C328 H356 0.931 . S
C329 C324 1.377 . S
C329 C328 1.378 . S
C329 H357 0.931 . S
C330 O344 1.259 . S
C330 O345 1.270 . S
C331 O346 1.251 . S
C331 O347 1.251 . S
C332 Eu333 2.835 . S
C332 C334 1.500 . S
C332 O348 1.257 . S
C332 O349 1.260 . S
Eu333 C332 2.835 . S
Eu333 O345 2.355 . S
Eu333 O347 2.374 . S
Eu333 O348 2.473 . S
Eu333 O349 2.480 . S
Eu333 O350 2.430 . S
Eu333 O351 2.670 . S
Eu333 O352 2.394 . S
C334 C332 1.500 . S
C334 C335 1.377 . S
C334 C339 1.377 . S
C335 C334 1.377 . S
C335 C336 1.395 . S
C335 H358 0.931 . S
C336 C335 1.395 . S
C336 C337 1.383 . S
C336 H359 0.931 . S
C337 C336 1.383 . S
C337 C338 1.394 . S
C338 C337 1.394 . S
C338 C339 1.378 . S
C338 H360 0.931 . S
C339 C334 1.377 . S
C339 C338 1.378 . S
C339 H361 0.931 . S
C340 O350 1.259 . S
C340 O351 1.270 . S
C341 O352 1.251 . S
C341 O353 1.251 . S
O342 C322 1.257 . S
O342 Eu323 2.473 . S
O343 C322 1.260 . S
O343 Eu323 2.480 . S
O344 Eu323 2.430 . S
O344 C330 1.259 . S
O345 Eu323 2.670 . S
O345 C330 1.270 . S
O345 Eu333 2.355 . S
O346 Eu323 2.394 . S
O346 C331 1.251 . S
O347 C331 1.251 . S
O347 Eu333 2.374 . S
O348 C332 1.257 . S
O348 Eu333 2.473 . S
O349 C332 1.260 . S
O349 Eu333 2.480 . S
O350 Eu333 2.430 . S
O350 C340 1.259 . S
O351 Eu323 2.355 . S
O351 Eu333 2.670 . S
O351 C340 1.270 . S
O352 Eu333 2.394 . S
O352 C341 1.251 . S
O353 Eu323 2.374 . S
O353 C341 1.251 . S
H354 C325 0.931 . S
H355 C326 0.931 . S
H356 C328 0.931 . S
H357 C329 0.931 . S
H358 C335 0.931 . S
H359 C336 0.931 . S
H360 C338 0.931 . S
H361 C339 0.931 . S
C362 Eu363 2.835 . S
C362 C364 1.500 . S
C362 O382 1.257 . S
C362 O383 1.260 . S
Eu363 C362 2.835 . S
Eu363 O382 2.473 . S
Eu363 O383 2.480 . S
Eu363 O384 2.430 . S
Eu363 O385 2.670 . S
Eu363 O386 2.394 . S
Eu363 O391 2.355 . S
Eu363 O393 2.374 . S
C364 C362 1.500 . S
C364 C365 1.377 . S
C364 C369 1.377 . S
C365 C364 1.377 . S
C365 C366 1.395 . S
C365 H394 0.931 . S
C366 C365 1.395 . S
C366 C367 1.383 . S
C366 H395 0.931 . S
C367 C366 1.383 . S
C367 C368 1.394 . S
C368 C367 1.394 . S
C368 C369 1.378 . S
C368 H396 0.931 . S
C369 C364 1.377 . S
C369 C368 1.378 . S
C369 H397 0.931 . S
C370 O384 1.259 . S
C370 O385 1.270 . S
C371 O386 1.251 . S
C371 O387 1.251 . S
C372 Eu373 2.835 . S
C372 C374 1.500 . S
C372 O388 1.257 . S
C372 O389 1.260 . S
Eu373 C372 2.835 . S
Eu373 O385 2.355 . S
Eu373 O387 2.374 . S
Eu373 O388 2.473 . S
Eu373 O389 2.480 . S
Eu373 O390 2.430 . S
Eu373 O391 2.670 . S
Eu373 O392 2.394 . S
C374 C372 1.500 . S
C374 C375 1.377 . S
C374 C379 1.377 . S
C375 C374 1.377 . S
C375 C376 1.395 . S
C375 H398 0.931 . S
C376 C375 1.395 . S
C376 C377 1.383 . S
C376 H399 0.931 . S
C377 C376 1.383 . S
C377 C378 1.394 . S
C378 C377 1.394 . S
C378 C379 1.378 . S
C378 H400 0.931 . S
C379 C374 1.377 . S
C379 C378 1.378 . S
C379 H401 0.931 . S
C380 O390 1.259 . S
C380 O391 1.270 . S
C381 O392 1.251 . S
C381 O393 1.251 . S
O382 C362 1.257 . S
O382 Eu363 2.473 . S
O383 C362 1.260 . S
O383 Eu363 2.480 . S
O384 Eu363 2.430 . S
O384 C370 1.259 . S
O385 Eu363 2.670 . S
O385 C370 1.270 . S
O385 Eu373 2.355 . S
O386 Eu363 2.394 . S
O386 C371 1.251 . S
O387 C371 1.251 . S
O387 Eu373 2.374 . S
O388 C372 1.257 . S
O388 Eu373 2.473 . S
O389 C372 1.260 . S
O389 Eu373 2.480 . S
O390 Eu373 2.430 . S
O390 C380 1.259 . S
O391 Eu363 2.355 . S
O391 Eu373 2.670 . S
O391 C380 1.270 . S
O392 Eu373 2.394 . S
O392 C381 1.251 . S
O393 Eu363 2.374 . S
O393 C381 1.251 . S
H394 C365 0.931 . S
H395 C366 0.931 . S
H396 C368 0.931 . S
H397 C369 0.931 . S
H398 C375 0.931 . S
H399 C376 0.931 . S
H400 C378 0.931 . S
H401 C379 0.931 . S
C402 Eu403 2.835 . S
C402 C404 1.500 . S
C402 O422 1.257 . S
C402 O423 1.260 . S
Eu403 C402 2.835 . S
Eu403 O422 2.473 . S
Eu403 O423 2.480 . S
Eu403 O424 2.430 . S
Eu403 O425 2.670 . S
Eu403 O426 2.394 . S
Eu403 O431 2.355 . S
Eu403 O433 2.374 . S
C404 C402 1.500 . S
C404 C405 1.377 . S
C404 C409 1.377 . S
C405 C404 1.377 . S
C405 C406 1.395 . S
C405 H434 0.931 . S
C406 C405 1.395 . S
C406 C407 1.383 . S
C406 H435 0.931 . S
C407 C406 1.383 . S
C407 C408 1.394 . S
C408 C407 1.394 . S
C408 C409 1.378 . S
C408 H436 0.931 . S
C409 C404 1.377 . S
C409 C408 1.378 . S
C409 H437 0.931 . S
C410 O424 1.259 . S
C410 O425 1.270 . S
C411 O426 1.251 . S
C411 O427 1.251 . S
C412 Eu413 2.835 . S
C412 C414 1.500 . S
C412 O428 1.257 . S
C412 O429 1.260 . S
Eu413 C412 2.835 . S
Eu413 O425 2.355 . S
Eu413 O427 2.374 . S
Eu413 O428 2.473 . S
Eu413 O429 2.480 . S
Eu413 O430 2.430 . S
Eu413 O431 2.670 . S
Eu413 O432 2.394 . S
C414 C412 1.500 . S
C414 C415 1.377 . S
C414 C419 1.377 . S
C415 C414 1.377 . S
C415 C416 1.395 . S
C415 H438 0.931 . S
C416 C415 1.395 . S
C416 C417 1.383 . S
C416 H439 0.931 . S
C417 C416 1.383 . S
C417 C418 1.394 . S
C418 C417 1.394 . S
C418 C419 1.378 . S
C418 H440 0.931 . S
C419 C414 1.377 . S
C419 C418 1.378 . S
C419 H441 0.931 . S
C420 O430 1.259 . S
C420 O431 1.270 . S
C421 O432 1.251 . S
C421 O433 1.251 . S
O422 C402 1.257 . S
O422 Eu403 2.473 . S
O423 C402 1.260 . S
O423 Eu403 2.480 . S
O424 Eu403 2.430 . S
O424 C410 1.259 . S
O425 Eu403 2.670 . S
O425 C410 1.270 . S
O425 Eu413 2.355 . S
O426 Eu403 2.394 . S
O426 C411 1.251 . S
O427 C411 1.251 . S
O427 Eu413 2.374 . S
O428 C412 1.257 . S
O428 Eu413 2.473 . S
O429 C412 1.260 . S
O429 Eu413 2.480 . S
O430 Eu413 2.430 . S
O430 C420 1.259 . S
O431 Eu403 2.355 . S
O431 Eu413 2.670 . S
O431 C420 1.270 . S
O432 Eu413 2.394 . S
O432 C421 1.251 . S
O433 Eu403 2.374 . S
O433 C421 1.251 . S
H434 C405 0.931 . S
H435 C406 0.931 . S
H436 C408 0.931 . S
H437 C409 0.931 . S
H438 C415 0.931 . S
H439 C416 0.931 . S
H440 C418 0.931 . S
H441 C419 0.931 . S
C442 Eu443 2.835 . S
C442 C444 1.500 . S
C442 O462 1.257 . S
C442 O463 1.260 . S
Eu443 C442 2.835 . S
Eu443 O462 2.473 . S
Eu443 O463 2.480 . S
Eu443 O464 2.430 . S
Eu443 O465 2.670 . S
Eu443 O466 2.394 . S
Eu443 O471 2.355 . S
Eu443 O473 2.374 . S
C444 C442 1.500 . S
C444 C445 1.377 . S
C444 C449 1.377 . S
C445 C444 1.377 . S
C445 C446 1.395 . S
C445 H474 0.931 . S
C446 C445 1.395 . S
C446 C447 1.383 . S
C446 H475 0.931 . S
C447 C446 1.383 . S
C447 C448 1.394 . S
C448 C447 1.394 . S
C448 C449 1.378 . S
C448 H476 0.931 . S
C449 C444 1.377 . S
C449 C448 1.378 . S
C449 H477 0.931 . S
C450 O464 1.259 . S
C450 O465 1.270 . S
C451 O466 1.251 . S
C451 O467 1.251 . S
C452 Eu453 2.835 . S
C452 C454 1.500 . S
C452 O468 1.257 . S
C452 O469 1.260 . S
Eu453 C452 2.835 . S
Eu453 O465 2.355 . S
Eu453 O467 2.374 . S
Eu453 O468 2.473 . S
Eu453 O469 2.480 . S
Eu453 O470 2.430 . S
Eu453 O471 2.670 . S
Eu453 O472 2.394 . S
C454 C452 1.500 . S
C454 C455 1.377 . S
C454 C459 1.377 . S
C455 C454 1.377 . S
C455 C456 1.395 . S
C455 H478 0.931 . S
C456 C455 1.395 . S
C456 C457 1.383 . S
C456 H479 0.931 . S
C457 C456 1.383 . S
C457 C458 1.394 . S
C458 C457 1.394 . S
C458 C459 1.378 . S
C458 H480 0.931 . S
C459 C454 1.377 . S
C459 C458 1.378 . S
C459 H481 0.931 . S
C460 O470 1.259 . S
C460 O471 1.270 . S
C461 O472 1.251 . S
C461 O473 1.251 . S
O462 C442 1.257 . S
O462 Eu443 2.473 . S
O463 C442 1.260 . S
O463 Eu443 2.480 . S
O464 Eu443 2.430 . S
O464 C450 1.259 . S
O465 Eu443 2.670 . S
O465 C450 1.270 . S
O465 Eu453 2.355 . S
O466 Eu443 2.394 . S
O466 C451 1.251 . S
O467 C451 1.251 . S
O467 Eu453 2.374 . S
O468 C452 1.257 . S
O468 Eu453 2.473 . S
O469 C452 1.260 . S
O469 Eu453 2.480 . S
O470 Eu453 2.430 . S
O470 C460 1.259 . S
O471 Eu443 2.355 . S
O471 Eu453 2.670 . S
O471 C460 1.270 . S
O472 Eu453 2.394 . S
O472 C461 1.251 . S
O473 Eu443 2.374 . S
O473 C461 1.251 . S
H474 C445 0.931 . S
H475 C446 0.931 . S
H476 C448 0.931 . S
H477 C449 0.931 . S
H478 C455 0.931 . S
H479 C456 0.931 . S
H480 C458 0.931 . S
H481 C459 0.931 . S
C482 Eu483 2.835 . S
C482 C484 1.500 . S
C482 O502 1.257 . S
C482 O503 1.260 . S
Eu483 C482 2.835 . S
Eu483 O502 2.473 . S
Eu483 O503 2.480 . S
Eu483 O504 2.430 . S
Eu483 O505 2.670 . S
Eu483 O506 2.394 . S
Eu483 O511 2.355 . S
Eu483 O513 2.374 . S
C484 C482 1.500 . S
C484 C485 1.377 . S
C484 C489 1.377 . S
C485 C484 1.377 . S
C485 C486 1.395 . S
C485 H514 0.931 . S
C486 C485 1.395 . S
C486 C487 1.383 . S
C486 H515 0.931 . S
C487 C486 1.383 . S
C487 C488 1.394 . S
C488 C487 1.394 . S
C488 C489 1.378 . S
C488 H516 0.931 . S
C489 C484 1.377 . S
C489 C488 1.378 . S
C489 H517 0.931 . S
C490 O504 1.259 . S
C490 O505 1.270 . S
C491 O506 1.251 . S
C491 O507 1.251 . S
C492 Eu493 2.835 . S
C492 C494 1.500 . S
C492 O508 1.257 . S
C492 O509 1.260 . S
Eu493 C492 2.835 . S
Eu493 O505 2.355 . S
Eu493 O507 2.374 . S
Eu493 O508 2.473 . S
Eu493 O509 2.480 . S
Eu493 O510 2.430 . S
Eu493 O511 2.670 . S
Eu493 O512 2.394 . S
C494 C492 1.500 . S
C494 C495 1.377 . S
C494 C499 1.377 . S
C495 C494 1.377 . S
C495 C496 1.395 . S
C495 H518 0.931 . S
C496 C495 1.395 . S
C496 C497 1.383 . S
C496 H519 0.931 . S
C497 C496 1.383 . S
C497 C498 1.394 . S
C498 C497 1.394 . S
C498 C499 1.378 . S
C498 H520 0.931 . S
C499 C494 1.377 . S
C499 C498 1.378 . S
C499 H521 0.931 . S
C500 O510 1.259 . S
C500 O511 1.270 . S
C501 O512 1.251 . S
C501 O513 1.251 . S
O502 C482 1.257 . S
O502 Eu483 2.473 . S
O503 C482 1.260 . S
O503 Eu483 2.480 . S
O504 Eu483 2.430 . S
O504 C490 1.259 . S
O505 Eu483 2.670 . S
O505 C490 1.270 . S
O505 Eu493 2.355 . S
O506 Eu483 2.394 . S
O506 C491 1.251 . S
O507 C491 1.251 . S
O507 Eu493 2.374 . S
O508 C492 1.257 . S
O508 Eu493 2.473 . S
O509 C492 1.260 . S
O509 Eu493 2.480 . S
O510 Eu493 2.430 . S
O510 C500 1.259 . S
O511 Eu483 2.355 . S
O511 Eu493 2.670 . S
O511 C500 1.270 . S
O512 Eu493 2.394 . S
O512 C501 1.251 . S
O513 Eu483 2.374 . S
O513 C501 1.251 . S
H514 C485 0.931 . S
H515 C486 0.931 . S
H516 C488 0.931 . S
H517 C489 0.931 . S
H518 C495 0.931 . S
H519 C496 0.931 . S
H520 C498 0.931 . S
H521 C499 0.931 . S
H522 C528 0.930 . S
H523 C532 0.930 . S
H524 C537 0.929 . S
H525 C535 0.929 . S
H526 C530 0.929 . S
H527 C536 0.929 . S
C528 H522 0.930 . S
C528 C529 1.367 . S
C528 C536 1.378 . S
C529 C528 1.367 . S
C529 C537 1.433 . S
C530 H526 0.929 . S
C530 C532 1.378 . S
C530 C534 1.350 . S
C531 C534 1.463 . S
C531 C536 1.350 . S
C531 N539 1.427 . S
C532 H523 0.930 . S
C532 C530 1.378 . S
C532 C533 1.367 . S
C533 C532 1.367 . S
C533 C535 1.433 . S
C534 C530 1.350 . S
C534 C531 1.463 . S
C534 N538 1.427 . S
C535 H525 0.929 . S
C535 C533 1.433 . S
C535 N538 1.384 . S
C536 H527 0.929 . S
C536 C528 1.378 . S
C536 C531 1.350 . S
C537 H524 0.929 . S
C537 C529 1.433 . S
C537 N539 1.384 . S
N538 C534 1.427 . S
N538 C535 1.384 . S
N539 C531 1.427 . S
N539 C537 1.384 . S
H540 C546 0.930 . S
H541 C550 0.930 . S
H542 C555 0.929 . S
H543 C553 0.929 . S
H544 C548 0.929 . S
H545 C554 0.929 . S
C546 H540 0.930 . S
C546 C547 1.367 . S
C546 C554 1.378 . S
C547 C546 1.367 . S
C547 C555 1.433 . S
C548 H544 0.929 . S
C548 C550 1.378 . S
C548 C552 1.350 . S
C549 C552 1.463 . S
C549 C554 1.350 . S
C549 N557 1.427 . S
C550 H541 0.930 . S
C550 C548 1.378 . S
C550 C551 1.367 . S
C551 C550 1.367 . S
C551 C553 1.433 . S
C552 C548 1.350 . S
C552 C549 1.463 . S
C552 N556 1.427 . S
C553 H543 0.929 . S
C553 C551 1.433 . S
C553 N556 1.384 . S
C554 H545 0.929 . S
C554 C546 1.378 . S
C554 C549 1.350 . S
C555 H542 0.929 . S
C555 C547 1.433 . S
C555 N557 1.384 . S
N556 C552 1.427 . S
N556 C553 1.384 . S
N557 C549 1.427 . S
N557 C555 1.384 . S
H558 C564 0.930 . S
H559 C568 0.930 . S
H560 C573 0.929 . S
H561 C571 0.929 1_556 S
H562 C566 0.929 . S
H563 C572 0.929 . S
C564 H558 0.930 . S
C564 C565 1.367 . S
C564 C572 1.378 . S
C565 C564 1.367 . S
C565 C573 1.433 . S
C566 H562 0.929 . S
C566 C568 1.378 . S
C566 C570 1.350 . S
C567 C570 1.463 . S
C567 C572 1.350 . S
C567 N575 1.427 . S
C568 H559 0.930 . S
C568 C566 1.378 . S
C568 C569 1.367 . S
C569 C568 1.367 . S
C569 C571 1.433 . S
C570 C566 1.350 . S
C570 C567 1.463 . S
C570 N574 1.427 . S
C571 H561 0.929 1_554 S
C571 C569 1.433 . S
C571 N574 1.384 . S
C572 H563 0.929 . S
C572 C564 1.378 . S
C572 C567 1.350 . S
C573 H560 0.929 . S
C573 C565 1.433 . S
C573 N575 1.384 . S
N574 C570 1.427 . S
N574 C571 1.384 . S
N575 C567 1.427 . S
N575 C573 1.384 . S
H576 C582 0.930 . S
H577 C586 0.930 1_554 S
H578 C591 0.929 . S
H579 C589 0.929 . S
H580 C584 0.929 . S
H581 C590 0.929 . S
C582 H576 0.930 . S
C582 C583 1.367 . S
C582 C590 1.378 . S
C583 C582 1.367 . S
C583 C591 1.433 . S
C584 H580 0.929 . S
C584 C586 1.378 . S
C584 C588 1.350 . S
C585 C588 1.463 . S
C585 C590 1.350 . S
C585 N593 1.427 . S
C586 H577 0.930 1_556 S
C586 C584 1.378 . S
C586 C587 1.367 . S
C587 C586 1.367 . S
C587 C589 1.433 . S
C588 C584 1.350 . S
C588 C585 1.463 . S
C588 N592 1.427 . S
C589 H579 0.929 . S
C589 C587 1.433 . S
C589 N592 1.384 . S
C590 H581 0.929 . S
C590 C582 1.378 . S
C590 C585 1.350 . S
C591 H578 0.929 . S
C591 C583 1.433 . S
C591 N593 1.384 . S
N592 C588 1.427 . S
N592 C589 1.384 . S
N593 C585 1.427 . S
N593 C591 1.384 . S
H594 C600 0.930 . S
H595 C604 0.930 . S
H596 C609 0.929 . S
H597 C607 0.929 . S
H598 C602 0.929 . S
H599 C608 0.929 . S
C600 H594 0.930 . S
C600 C601 1.367 . S
C600 C608 1.378 . S
C601 C600 1.367 . S
C601 C609 1.433 . S
C602 H598 0.929 . S
C602 C604 1.378 . S
C602 C606 1.350 . S
C603 C606 1.463 . S
C603 C608 1.350 . S
C603 N611 1.427 . S
C604 H595 0.930 . S
C604 C602 1.378 . S
C604 C605 1.367 . S
C605 C604 1.367 . S
C605 C607 1.433 . S
C606 C602 1.350 . S
C606 C603 1.463 . S
C606 N610 1.427 . S
C607 H597 0.929 . S
C607 C605 1.433 . S
C607 N610 1.384 . S
C608 H599 0.929 . S
C608 C600 1.378 . S
C608 C603 1.350 . S
C609 H596 0.929 . S
C609 C601 1.433 . S
C609 N611 1.384 . S
N610 C606 1.427 . S
N610 C607 1.384 . S
N611 C603 1.427 . S
N611 C609 1.384 . S
H612 C618 0.930 . S
H613 C622 0.930 . S
H614 C627 0.929 . S
H615 C625 0.929 . S
H616 C620 0.929 1_554 S
H617 C626 0.929 . S
C618 H612 0.930 . S
C618 C619 1.367 . S
C618 C626 1.378 . S
C619 C618 1.367 . S
C619 C627 1.433 . S
C620 H616 0.929 1_556 S
C620 C622 1.378 1_556 S
C620 C624 1.350 . S
C621 C624 1.463 . S
C621 C626 1.350 . S
C621 N629 1.427 . S
C622 H613 0.930 . S
C622 C620 1.378 1_554 S
C622 C623 1.367 1_554 S
C623 C622 1.367 1_556 S
C623 C625 1.433 . S
C624 C620 1.350 . S
C624 C621 1.463 . S
C624 N628 1.427 . S
C625 H615 0.929 . S
C625 C623 1.433 . S
C625 N628 1.384 . S
C626 H617 0.929 . S
C626 C618 1.378 . S
C626 C621 1.350 . S
C627 H614 0.929 . S
C627 C619 1.433 . S
C627 N629 1.384 . S
N628 C624 1.427 . S
N628 C625 1.384 . S
N629 C621 1.427 . S
N629 C627 1.384 . S
H630 C636 0.930 . S
H631 C640 0.930 . S
H632 C645 0.929 . S
H633 C643 0.929 . S
H634 C638 0.929 . S
H635 C644 0.929 . S
C636 H630 0.930 . S
C636 C637 1.367 . S
C636 C644 1.378 . S
C637 C636 1.367 . S
C637 C645 1.433 . S
C638 H634 0.929 . S
C638 C640 1.378 . S
C638 C642 1.350 . S
C639 C642 1.463 . S
C639 C644 1.350 . S
C639 N647 1.427 . S
C640 H631 0.930 . S
C640 C638 1.378 . S
C640 C641 1.367 . S
C641 C640 1.367 . S
C641 C643 1.433 . S
C642 C638 1.350 . S
C642 C639 1.463 . S
C642 N646 1.427 . S
C643 H633 0.929 . S
C643 C641 1.433 . S
C643 N646 1.384 . S
C644 H635 0.929 . S
C644 C636 1.378 . S
C644 C639 1.350 . S
C645 H632 0.929 . S
C645 C637 1.433 . S
C645 N647 1.384 . S
N646 C642 1.427 . S
N646 C643 1.384 . S
N647 C639 1.427 . S
N647 C645 1.384 . S
H648 C654 0.930 . S
H649 C658 0.930 . S
H650 C663 0.929 . S
H651 C661 0.929 . S
H652 C656 0.929 . S
H653 C662 0.929 . S
C654 H648 0.930 . S
C654 C655 1.367 . S
C654 C662 1.378 . S
C655 C654 1.367 . S
C655 C663 1.433 . S
C656 H652 0.929 . S
C656 C658 1.378 . S
C656 C660 1.350 . S
C657 C660 1.463 . S
C657 C662 1.350 . S
C657 N665 1.427 . S
C658 H649 0.930 . S
C658 C656 1.378 . S
C658 C659 1.367 . S
C659 C658 1.367 . S
C659 C661 1.433 . S
C660 C656 1.350 . S
C660 C657 1.463 . S
C660 N664 1.427 . S
C661 H651 0.929 . S
C661 C659 1.433 . S
C661 N664 1.384 . S
C662 H653 0.929 . S
C662 C654 1.378 . S
C662 C657 1.350 . S
C663 H650 0.929 . S
C663 C655 1.433 . S
C663 N665 1.384 . S
N664 C660 1.427 . S
N664 C661 1.384 . S
N665 C657 1.427 . S
N665 C663 1.384 . S
H666 C672 0.930 . S
H667 C676 0.930 . S
H668 C681 0.929 . S
H669 C679 0.929 . S
H670 C674 0.929 . S
H671 C680 0.929 . S
C672 H666 0.930 . S
C672 C673 1.367 . S
C672 C680 1.378 . S
C673 C672 1.367 . S
C673 C681 1.433 . S
C674 H670 0.929 . S
C674 C676 1.378 . S
C674 C678 1.350 . S
C675 C678 1.463 . S
C675 C680 1.350 . S
C675 N683 1.427 . S
C676 H667 0.930 . S
C676 C674 1.378 . S
C676 C677 1.367 . S
C677 C676 1.367 . S
C677 C679 1.433 . S
C678 C674 1.350 . S
C678 C675 1.463 . S
C678 N682 1.427 . S
C679 H669 0.929 . S
C679 C677 1.433 . S
C679 N682 1.384 . S
C680 H671 0.929 . S
C680 C672 1.378 . S
C680 C675 1.350 . S
C681 H668 0.929 . S
C681 C673 1.433 . S
C681 N683 1.384 . S
N682 C678 1.427 . S
N682 C679 1.384 . S
N683 C675 1.427 . S
N683 C681 1.384 . S
H684 C690 0.930 . S
H685 C694 0.930 . S
H686 C699 0.929 . S
H687 C697 0.929 . S
H688 C692 0.929 . S
H689 C698 0.929 . S
C690 H684 0.930 . S
C690 C691 1.367 . S
C690 C698 1.378 . S
C691 C690 1.367 . S
C691 C699 1.433 . S
C692 H688 0.929 . S
C692 C694 1.378 . S
C692 C696 1.350 . S
C693 C696 1.463 . S
C693 C698 1.350 . S
C693 N701 1.427 . S
C694 H685 0.930 . S
C694 C692 1.378 . S
C694 C695 1.367 . S
C695 C694 1.367 . S
C695 C697 1.433 . S
C696 C692 1.350 . S
C696 C693 1.463 . S
C696 N700 1.427 . S
C697 H687 0.929 . S
C697 C695 1.433 . S
C697 N700 1.384 . S
C698 H689 0.929 . S
C698 C690 1.378 . S
C698 C693 1.350 . S
C699 H686 0.929 . S
C699 C691 1.433 . S
C699 N701 1.384 . S
N700 C696 1.427 . S
N700 C697 1.384 . S
N701 C693 1.427 . S
N701 C699 1.384 . S
H702 C708 0.930 . S
H703 C712 0.930 . S
H704 C717 0.929 . S
H705 C715 0.929 . S
H706 C710 0.929 . S
H707 C716 0.929 . S
C708 H702 0.930 . S
C708 C709 1.367 . S
C708 C716 1.378 . S
C709 C708 1.367 . S
C709 C717 1.433 . S
C710 H706 0.929 . S
C710 C712 1.378 . S
C710 C714 1.350 . S
C711 C714 1.463 . S
C711 C716 1.350 . S
C711 N719 1.427 . S
C712 H703 0.930 . S
C712 C710 1.378 . S
C712 C713 1.367 . S
C713 C712 1.367 . S
C713 C715 1.433 . S
C714 C710 1.350 . S
C714 C711 1.463 . S
C714 N718 1.427 . S
C715 H705 0.929 . S
C715 C713 1.433 . S
C715 N718 1.384 . S
C716 H707 0.929 . S
C716 C708 1.378 . S
C716 C711 1.350 . S
C717 H704 0.929 . S
C717 C709 1.433 . S
C717 N719 1.384 . S
N718 C714 1.427 . S
N718 C715 1.384 . S
N719 C711 1.427 . S
N719 C717 1.384 . S
H720 C726 0.930 . S
H721 C730 0.930 . S
H722 C735 0.929 . S
H723 C733 0.929 . S
H724 C728 0.929 . S
H725 C734 0.929 . S
C726 H720 0.930 . S
C726 C727 1.367 . S
C726 C734 1.378 . S
C727 C726 1.367 . S
C727 C735 1.433 . S
C728 H724 0.929 . S
C728 C730 1.378 . S
C728 C732 1.350 . S
C729 C732 1.463 . S
C729 C734 1.350 . S
C729 N737 1.427 . S
C730 H721 0.930 . S
C730 C728 1.378 . S
C730 C731 1.367 . S
C731 C730 1.367 . S
C731 C733 1.433 . S
C732 C728 1.350 . S
C732 C729 1.463 . S
C732 N736 1.427 . S
C733 H723 0.929 . S
C733 C731 1.433 . S
C733 N736 1.384 . S
C734 H725 0.929 . S
C734 C726 1.378 . S
C734 C729 1.350 . S
C735 H722 0.929 . S
C735 C727 1.433 . S
C735 N737 1.384 . S
N736 C732 1.427 . S
N736 C733 1.384 . S
N737 C729 1.427 . S
N737 C735 1.384 . S
H738 C744 0.930 . S
H739 C748 0.930 . S
H740 C753 0.929 . S
H741 C751 0.929 . S
H742 C746 0.929 . S
H743 C752 0.929 . S
C744 H738 0.930 . S
C744 C745 1.367 . S
C744 C752 1.378 . S
C745 C744 1.367 . S
C745 C753 1.433 . S
C746 H742 0.929 . S
C746 C748 1.378 . S
C746 C750 1.350 . S
C747 C750 1.463 1_655 S
C747 C752 1.350 . S
C747 N755 1.427 . S
C748 H739 0.930 . S
C748 C746 1.378 . S
C748 C749 1.367 . S
C749 C748 1.367 . S
C749 C751 1.433 . S
C750 C746 1.350 . S
C750 C747 1.463 1_455 S
C750 N754 1.427 . S
C751 H741 0.929 . S
C751 C749 1.433 . S
C751 N754 1.384 . S
C752 H743 0.929 . S
C752 C744 1.378 . S
C752 C747 1.350 . S
C753 H740 0.929 . S
C753 C745 1.433 . S
C753 N755 1.384 . S
N754 C750 1.427 . S
N754 C751 1.384 . S
N755 C747 1.427 . S
N755 C753 1.384 . S
H756 C762 0.930 . S
H757 C766 0.930 . S
H758 C771 0.929 . S
H759 C769 0.929 . S
H760 C764 0.929 . S
H761 C770 0.929 . S
C762 H756 0.930 . S
C762 C763 1.367 . S
C762 C770 1.378 . S
C763 C762 1.367 . S
C763 C771 1.433 . S
C764 H760 0.929 . S
C764 C766 1.378 . S
C764 C768 1.350 . S
C765 C768 1.463 . S
C765 C770 1.350 . S
C765 N773 1.427 . S
C766 H757 0.930 . S
C766 C764 1.378 . S
C766 C767 1.367 . S
C767 C766 1.367 . S
C767 C769 1.433 . S
C768 C764 1.350 . S
C768 C765 1.463 . S
C768 N772 1.427 . S
C769 H759 0.929 . S
C769 C767 1.433 . S
C769 N772 1.384 . S
C770 H761 0.929 . S
C770 C762 1.378 . S
C770 C765 1.350 . S
C771 H758 0.929 . S
C771 C763 1.433 . S
C771 N773 1.384 . S
N772 C768 1.427 . S
N772 C769 1.384 . S
N773 C765 1.427 . S
N773 C771 1.384 . S
H774 C780 0.930 . S
H775 C784 0.930 . S
H776 C789 0.929 . S
H777 C787 0.929 . S
H778 C782 0.929 . S
H779 C788 0.929 . S
C780 H774 0.930 . S
C780 C781 1.367 . S
C780 C788 1.378 . S
C781 C780 1.367 . S
C781 C789 1.433 . S
C782 H778 0.929 . S
C782 C784 1.378 . S
C782 C786 1.350 . S
C783 C786 1.463 1_545 S
C783 C788 1.350 . S
C783 N791 1.427 . S
C784 H775 0.930 . S
C784 C782 1.378 . S
C784 C785 1.367 . S
C785 C784 1.367 . S
C785 C787 1.433 . S
C786 C782 1.350 . S
C786 C783 1.463 1_565 S
C786 N790 1.427 . S
C787 H777 0.929 . S
C787 C785 1.433 . S
C787 N790 1.384 . S
C788 H779 0.929 . S
C788 C780 1.378 . S
C788 C783 1.350 . S
C789 H776 0.929 . S
C789 C781 1.433 . S
C789 N791 1.384 . S
N790 C786 1.427 . S
N790 C787 1.384 . S
N791 C783 1.427 . S
N791 C789 1.384 . S
H792 C798 0.930 . S
H793 C802 0.930 . S
H794 C807 0.929 . S
H795 C805 0.929 . S
H796 C800 0.929 . S
H797 C806 0.929 . S
C798 H792 0.930 . S
C798 C799 1.367 . S
C798 C806 1.378 . S
C799 C798 1.367 . S
C799 C807 1.433 . S
C800 H796 0.929 . S
C800 C802 1.378 . S
C800 C804 1.350 . S
C801 C804 1.463 . S
C801 C806 1.350 . S
C801 N809 1.427 . S
C802 H793 0.930 . S
C802 C800 1.378 . S
C802 C803 1.367 . S
C803 C802 1.367 . S
C803 C805 1.433 . S
C804 C800 1.350 . S
C804 C801 1.463 . S
C804 N808 1.427 . S
C805 H795 0.929 . S
C805 C803 1.433 . S
C805 N808 1.384 . S
C806 H797 0.929 . S
C806 C798 1.378 . S
C806 C801 1.350 . S
C807 H794 0.929 . S
C807 C799 1.433 . S
C807 N809 1.384 . S
N808 C804 1.427 . S
N808 C805 1.384 . S
N809 C801 1.427 . S
N809 C807 1.384 . S
H810 C816 0.930 . S
H811 C820 0.930 . S
H812 C825 0.929 . S
H813 C823 0.929 . S
H814 C818 0.929 . S
H815 C824 0.929 . S
C816 H810 0.930 . S
C816 C817 1.367 . S
C816 C824 1.378 . S
C817 C816 1.367 . S
C817 C825 1.433 . S
C818 H814 0.929 . S
C818 C820 1.378 . S
C818 C822 1.350 . S
C819 C822 1.463 . S
C819 C824 1.350 . S
C819 N827 1.427 . S
C820 H811 0.930 . S
C820 C818 1.378 . S
C820 C821 1.367 . S
C821 C820 1.367 . S
C821 C823 1.433 . S
C822 C818 1.350 . S
C822 C819 1.463 . S
C822 N826 1.427 . S
C823 H813 0.929 . S
C823 C821 1.433 . S
C823 N826 1.384 . S
C824 H815 0.929 . S
C824 C816 1.378 . S
C824 C819 1.350 . S
C825 H812 0.929 . S
C825 C817 1.433 . S
C825 N827 1.384 . S
N826 C822 1.427 . S
N826 C823 1.384 . S
N827 C819 1.427 . S
N827 C825 1.384 . S
H828 C834 0.930 . S
H829 C838 0.930 . S
H830 C843 0.929 . S
H831 C841 0.929 . S
H832 C836 0.929 . S
H833 C842 0.929 . S
C834 H828 0.930 . S
C834 C835 1.367 . S
C834 C842 1.378 . S
C835 C834 1.367 . S
C835 C843 1.433 . S
C836 H832 0.929 . S
C836 C838 1.378 . S
C836 C840 1.350 . S
C837 C840 1.463 . S
C837 C842 1.350 . S
C837 N845 1.427 . S
C838 H829 0.930 . S
C838 C836 1.378 . S
C838 C839 1.367 . S
C839 C838 1.367 . S
C839 C841 1.433 . S
C840 C836 1.350 . S
C840 C837 1.463 . S
C840 N844 1.427 . S
C841 H831 0.929 . S
C841 C839 1.433 . S
C841 N844 1.384 . S
C842 H833 0.929 . S
C842 C834 1.378 . S
C842 C837 1.350 . S
C843 H830 0.929 . S
C843 C835 1.433 . S
C843 N845 1.384 . S
N844 C840 1.427 . S
N844 C841 1.384 . S
N845 C837 1.427 . S
N845 C843 1.384 . S
H846 C852 0.930 . S
H847 C856 0.930 . S
H848 C861 0.929 . S
H849 C859 0.929 . S
H850 C854 0.929 . S
H851 C860 0.929 . S
C852 H846 0.930 . S
C852 C853 1.367 . S
C852 C860 1.378 . S
C853 C852 1.367 . S
C853 C861 1.433 . S
C854 H850 0.929 . S
C854 C856 1.378 . S
C854 C858 1.350 . S
C855 C858 1.463 . S
C855 C860 1.350 . S
C855 N863 1.427 . S
C856 H847 0.930 . S
C856 C854 1.378 . S
C856 C857 1.367 . S
C857 C856 1.367 . S
C857 C859 1.433 . S
C858 C854 1.350 . S
C858 C855 1.463 . S
C858 N862 1.427 . S
C859 H849 0.929 . S
C859 C857 1.433 . S
C859 N862 1.384 . S
C860 H851 0.929 . S
C860 C852 1.378 . S
C860 C855 1.350 . S
C861 H848 0.929 . S
C861 C853 1.433 . S
C861 N863 1.384 . S
N862 C858 1.427 . S
N862 C859 1.384 . S
N863 C855 1.427 . S
N863 C861 1.384 . S
H864 C870 0.930 . S
H865 C874 0.930 . S
H866 C879 0.929 . S
H867 C877 0.929 . S
H868 C872 0.929 . S
H869 C878 0.929 . S
C870 H864 0.930 . S
C870 C871 1.367 . S
C870 C878 1.378 . S
C871 C870 1.367 . S
C871 C879 1.433 . S
C872 H868 0.929 . S
C872 C874 1.378 . S
C872 C876 1.350 . S
C873 C876 1.463 . S
C873 C878 1.350 . S
C873 N881 1.427 . S
C874 H865 0.930 . S
C874 C872 1.378 . S
C874 C875 1.367 . S
C875 C874 1.367 . S
C875 C877 1.433 . S
C876 C872 1.350 . S
C876 C873 1.463 . S
C876 N880 1.427 . S
C877 H867 0.929 . S
C877 C875 1.433 . S
C877 N880 1.384 . S
C878 H869 0.929 . S
C878 C870 1.378 . S
C878 C873 1.350 . S
C879 H866 0.929 . S
C879 C871 1.433 . S
C879 N881 1.384 . S
N880 C876 1.427 . S
N880 C877 1.384 . S
N881 C873 1.427 . S
N881 C879 1.384 . S
H882 C888 0.930 . S
H883 C892 0.930 . S
H884 C897 0.929 . S
H885 C895 0.929 . S
H886 C890 0.929 . S
H887 C896 0.929 . S
C888 H882 0.930 . S
C888 C889 1.367 . S
C888 C896 1.378 . S
C889 C888 1.367 . S
C889 C897 1.433 . S
C890 H886 0.929 . S
C890 C892 1.378 . S
C890 C894 1.350 . S
C891 C894 1.463 . S
C891 C896 1.350 . S
C891 N899 1.427 . S
C892 H883 0.930 . S
C892 C890 1.378 . S
C892 C893 1.367 . S
C893 C892 1.367 . S
C893 C895 1.433 . S
C894 C890 1.350 . S
C894 C891 1.463 . S
C894 N898 1.427 . S
C895 H885 0.929 . S
C895 C893 1.433 . S
C895 N898 1.384 . S
C896 H887 0.929 . S
C896 C888 1.378 . S
C896 C891 1.350 . S
C897 H884 0.929 . S
C897 C889 1.433 . S
C897 N899 1.384 . S
N898 C894 1.427 . S
N898 C895 1.384 . S
N899 C891 1.427 . S
N899 C897 1.384 . S
H900 C906 0.930 . S
H901 C910 0.930 . S
H902 C915 0.929 . S
H903 C913 0.929 . S
H904 C908 0.929 . S
H905 C914 0.929 . S
C906 H900 0.930 . S
C906 C907 1.367 . S
C906 C914 1.378 . S
C907 C906 1.367 . S
C907 C915 1.433 . S
C908 H904 0.929 . S
C908 C910 1.378 . S
C908 C912 1.350 . S
C909 C912 1.463 1_545 S
C909 C914 1.350 . S
C909 N917 1.427 . S
C910 H901 0.930 . S
C910 C908 1.378 . S
C910 C911 1.367 . S
C911 C910 1.367 . S
C911 C913 1.433 . S
C912 C908 1.350 . S
C912 C909 1.463 1_565 S
C912 N916 1.427 . S
C913 H903 0.929 . S
C913 C911 1.433 . S
C913 N916 1.384 . S
C914 H905 0.929 . S
C914 C906 1.378 . S
C914 C909 1.350 . S
C915 H902 0.929 . S
C915 C907 1.433 . S
C915 N917 1.384 . S
N916 C912 1.427 . S
N916 C913 1.384 . S
N917 C909 1.427 . S
N917 C915 1.384 . S
H918 C924 0.930 . S
H919 C928 0.930 . S
H920 C933 0.929 . S
H921 C931 0.929 . S
H922 C926 0.929 . S
H923 C932 0.929 . S
C924 H918 0.930 . S
C924 C925 1.367 . S
C924 C932 1.378 . S
C925 C924 1.367 . S
C925 C933 1.433 . S
C926 H922 0.929 . S
C926 C928 1.378 . S
C926 C930 1.350 . S
C927 C930 1.463 1_655 S
C927 C932 1.350 . S
C927 N935 1.427 . S
C928 H919 0.930 . S
C928 C926 1.378 . S
C928 C929 1.367 . S
C929 C928 1.367 . S
C929 C931 1.433 . S
C930 C926 1.350 . S
C930 C927 1.463 1_455 S
C930 N934 1.427 . S
C931 H921 0.929 . S
C931 C929 1.433 . S
C931 N934 1.384 . S
C932 H923 0.929 . S
C932 C924 1.378 . S
C932 C927 1.350 . S
C933 H920 0.929 . S
C933 C925 1.433 . S
C933 N935 1.384 . S
N934 C930 1.427 . S
N934 C931 1.384 . S
N935 C927 1.427 . S
N935 C933 1.384 . S
H936 C942 0.930 . S
H937 C946 0.930 . S
H938 C951 0.929 . S
H939 C949 0.929 . S
H940 C944 0.929 . S
H941 C950 0.929 . S
C942 H936 0.930 . S
C942 C943 1.367 . S
C942 C950 1.378 . S
C943 C942 1.367 . S
C943 C951 1.433 . S
C944 H940 0.929 . S
C944 C946 1.378 . S
C944 C948 1.350 . S
C945 C948 1.463 . S
C945 C950 1.350 . S
C945 N953 1.427 . S
C946 H937 0.930 . S
C946 C944 1.378 . S
C946 C947 1.367 . S
C947 C946 1.367 . S
C947 C949 1.433 . S
C948 C944 1.350 . S
C948 C945 1.463 . S
C948 N952 1.427 . S
C949 H939 0.929 . S
C949 C947 1.433 . S
C949 N952 1.384 . S
C950 H941 0.929 . S
C950 C942 1.378 . S
C950 C945 1.350 . S
C951 H938 0.929 . S
C951 C943 1.433 . S
C951 N953 1.384 . S
N952 C948 1.427 . S
N952 C949 1.384 . S
N953 C945 1.427 . S
N953 C951 1.384 . S
H954 C960 0.930 . S
H955 C964 0.930 . S
H956 C969 0.929 . S
H957 C967 0.929 . S
H958 C962 0.929 . S
H959 C968 0.929 . S
C960 H954 0.930 . S
C960 C961 1.367 . S
C960 C968 1.378 . S
C961 C960 1.367 . S
C961 C969 1.433 . S
C962 H958 0.929 . S
C962 C964 1.378 . S
C962 C966 1.350 . S
C963 C966 1.463 . S
C963 C968 1.350 . S
C963 N971 1.427 . S
C964 H955 0.930 . S
C964 C962 1.378 . S
C964 C965 1.367 . S
C965 C964 1.367 . S
C965 C967 1.433 . S
C966 C962 1.350 . S
C966 C963 1.463 . S
C966 N970 1.427 . S
C967 H957 0.929 . S
C967 C965 1.433 . S
C967 N970 1.384 . S
C968 H959 0.929 . S
C968 C960 1.378 . S
C968 C963 1.350 . S
C969 H956 0.929 . S
C969 C961 1.433 . S
C969 N971 1.384 . S
N970 C966 1.427 . S
N970 C967 1.384 . S
N971 C963 1.427 . S
N971 C969 1.384 . S
H972 C978 0.930 . S
H973 C982 0.930 . S
H974 C987 0.929 . S
H975 C985 0.929 . S
H976 C980 0.929 . S
H977 C986 0.929 . S
C978 H972 0.930 . S
C978 C979 1.367 . S
C978 C986 1.378 . S
C979 C978 1.367 . S
C979 C987 1.433 . S
C980 H976 0.929 . S
C980 C982 1.378 . S
C980 C984 1.350 . S
C981 C984 1.463 . S
C981 C986 1.350 . S
C981 N989 1.427 . S
C982 H973 0.930 . S
C982 C980 1.378 . S
C982 C983 1.367 . S
C983 C982 1.367 . S
C983 C985 1.433 . S
C984 C980 1.350 . S
C984 C981 1.463 . S
C984 N988 1.427 . S
C985 H975 0.929 . S
C985 C983 1.433 . S
C985 N988 1.384 . S
C986 H977 0.929 . S
C986 C978 1.378 . S
C986 C981 1.350 . S
C987 H974 0.929 . S
C987 C979 1.433 . S
C987 N989 1.384 . S
N988 C984 1.427 . S
N988 C985 1.384 . S
N989 C981 1.427 . S
N989 C987 1.384 . S
H990 C996 0.930 . S
H991 C1000 0.930 . S
H992 C1005 0.929 . S
H993 C1003 0.929 . S
H994 C998 0.929 . S
H995 C1004 0.929 . S
C996 H990 0.930 . S
C996 C997 1.367 . S
C996 C1004 1.378 . S
C997 C996 1.367 . S
C997 C1005 1.433 . S
C998 H994 0.929 . S
C998 C1000 1.378 . S
C998 C1002 1.350 . S
C999 C1002 1.463 . S
C999 C1004 1.350 . S
C999 N1007 1.427 . S
C1000 H991 0.930 . S
C1000 C998 1.378 . S
C1000 C1001 1.367 . S
C1001 C1000 1.367 . S
C1001 C1003 1.433 . S
C1002 C998 1.350 . S
C1002 C999 1.463 . S
C1002 N1006 1.427 . S
C1003 H993 0.929 . S
C1003 C1001 1.433 . S
C1003 N1006 1.384 . S
C1004 H995 0.929 . S
C1004 C996 1.378 . S
C1004 C999 1.350 . S
C1005 H992 0.929 . S
C1005 C997 1.433 . S
C1005 N1007 1.384 . S
N1006 C1002 1.427 . S
N1006 C1003 1.384 . S
N1007 C999 1.427 . S
N1007 C1005 1.384 . S
H1008 C1014 0.930 . S
H1009 C1018 0.930 . S
H1010 C1023 0.929 . S
H1011 C1021 0.929 . S
H1012 C1016 0.929 . S
H1013 C1022 0.929 . S
C1014 H1008 0.930 . S
C1014 C1015 1.367 . S
C1014 C1022 1.378 . S
C1015 C1014 1.367 . S
C1015 C1023 1.433 . S
C1016 H1012 0.929 . S
C1016 C1018 1.378 . S
C1016 C1020 1.350 . S
C1017 C1020 1.463 1_565 S
C1017 C1022 1.350 . S
C1017 N1025 1.427 . S
C1018 H1009 0.930 . S
C1018 C1016 1.378 . S
C1018 C1019 1.367 . S
C1019 C1018 1.367 . S
C1019 C1021 1.433 . S
C1020 C1016 1.350 . S
C1020 C1017 1.463 1_545 S
C1020 N1024 1.427 . S
C1021 H1011 0.929 . S
C1021 C1019 1.433 . S
C1021 N1024 1.384 . S
C1022 H1013 0.929 . S
C1022 C1014 1.378 . S
C1022 C1017 1.350 . S
C1023 H1010 0.929 . S
C1023 C1015 1.433 . S
C1023 N1025 1.384 . S
N1024 C1020 1.427 . S
N1024 C1021 1.384 . S
N1025 C1017 1.427 . S
N1025 C1023 1.384 . S
H1026 C1032 0.930 . S
H1027 C1036 0.930 . S
H1028 C1041 0.929 . S
H1029 C1039 0.929 . S
H1030 C1034 0.929 . S
H1031 C1040 0.929 . S
C1032 H1026 0.930 . S
C1032 C1033 1.367 . S
C1032 C1040 1.378 . S
C1033 C1032 1.367 . S
C1033 C1041 1.433 . S
C1034 H1030 0.929 . S
C1034 C1036 1.378 . S
C1034 C1038 1.350 . S
C1035 C1038 1.463 1_455 S
C1035 C1040 1.350 . S
C1035 N1043 1.427 . S
C1036 H1027 0.930 . S
C1036 C1034 1.378 . S
C1036 C1037 1.367 . S
C1037 C1036 1.367 . S
C1037 C1039 1.433 . S
C1038 C1034 1.350 . S
C1038 C1035 1.463 1_655 S
C1038 N1042 1.427 . S
C1039 H1029 0.929 . S
C1039 C1037 1.433 . S
C1039 N1042 1.384 . S
C1040 H1031 0.929 . S
C1040 C1032 1.378 . S
C1040 C1035 1.350 . S
C1041 H1028 0.929 . S
C1041 C1033 1.433 . S
C1041 N1043 1.384 . S
N1042 C1038 1.427 . S
N1042 C1039 1.384 . S
N1043 C1035 1.427 . S
N1043 C1041 1.384 . S
H1044 C1050 0.930 . S
H1045 C1054 0.930 . S
H1046 C1059 0.929 . S
H1047 C1057 0.929 . S
H1048 C1052 0.929 . S
H1049 C1058 0.929 . S
C1050 H1044 0.930 . S
C1050 C1051 1.367 . S
C1050 C1058 1.378 . S
C1051 C1050 1.367 . S
C1051 C1059 1.433 . S
C1052 H1048 0.929 . S
C1052 C1054 1.378 . S
C1052 C1056 1.350 . S
C1053 C1056 1.463 . S
C1053 C1058 1.350 . S
C1053 N1061 1.427 . S
C1054 H1045 0.930 . S
C1054 C1052 1.378 . S
C1054 C1055 1.367 . S
C1055 C1054 1.367 . S
C1055 C1057 1.433 . S
C1056 C1052 1.350 . S
C1056 C1053 1.463 . S
C1056 N1060 1.427 . S
C1057 H1047 0.929 . S
C1057 C1055 1.433 . S
C1057 N1060 1.384 . S
C1058 H1049 0.929 . S
C1058 C1050 1.378 . S
C1058 C1053 1.350 . S
C1059 H1046 0.929 . S
C1059 C1051 1.433 . S
C1059 N1061 1.384 . S
N1060 C1056 1.427 . S
N1060 C1057 1.384 . S
N1061 C1053 1.427 . S
N1061 C1059 1.384 . S
H1062 C1068 0.930 . S
H1063 C1072 0.930 . S
H1064 C1077 0.929 . S
H1065 C1075 0.929 . S
H1066 C1070 0.929 . S
H1067 C1076 0.929 . S
C1068 H1062 0.930 . S
C1068 C1069 1.367 . S
C1068 C1076 1.378 . S
C1069 C1068 1.367 . S
C1069 C1077 1.433 . S
C1070 H1066 0.929 . S
C1070 C1072 1.378 . S
C1070 C1074 1.350 . S
C1071 C1074 1.463 1_455 S
C1071 C1076 1.350 . S
C1071 N1079 1.427 . S
C1072 H1063 0.930 . S
C1072 C1070 1.378 . S
C1072 C1073 1.367 . S
C1073 C1072 1.367 . S
C1073 C1075 1.433 . S
C1074 C1070 1.350 . S
C1074 C1071 1.463 1_655 S
C1074 N1078 1.427 . S
C1075 H1065 0.929 . S
C1075 C1073 1.433 . S
C1075 N1078 1.384 . S
C1076 H1067 0.929 . S
C1076 C1068 1.378 . S
C1076 C1071 1.350 . S
C1077 H1064 0.929 . S
C1077 C1069 1.433 . S
C1077 N1079 1.384 . S
N1078 C1074 1.427 . S
N1078 C1075 1.384 . S
N1079 C1071 1.427 . S
N1079 C1077 1.384 . S
H1080 C1086 0.930 . S
H1081 C1090 0.930 . S
H1082 C1095 0.929 . S
H1083 C1093 0.929 . S
H1084 C1088 0.929 . S
H1085 C1094 0.929 . S
C1086 H1080 0.930 . S
C1086 C1087 1.367 . S
C1086 C1094 1.378 . S
C1087 C1086 1.367 . S
C1087 C1095 1.433 . S
C1088 H1084 0.929 . S
C1088 C1090 1.378 . S
C1088 C1092 1.350 . S
C1089 C1092 1.463 . S
C1089 C1094 1.350 . S
C1089 N1097 1.427 . S
C1090 H1081 0.930 . S
C1090 C1088 1.378 . S
C1090 C1091 1.367 . S
C1091 C1090 1.367 . S
C1091 C1093 1.433 . S
C1092 C1088 1.350 . S
C1092 C1089 1.463 . S
C1092 N1096 1.427 . S
C1093 H1083 0.929 . S
C1093 C1091 1.433 . S
C1093 N1096 1.384 . S
C1094 H1085 0.929 . S
C1094 C1086 1.378 . S
C1094 C1089 1.350 . S
C1095 H1082 0.929 . S
C1095 C1087 1.433 . S
C1095 N1097 1.384 . S
N1096 C1092 1.427 . S
N1096 C1093 1.384 . S
N1097 C1089 1.427 . S
N1097 C1095 1.384 . S
H1098 C1104 0.930 . S
H1099 C1108 0.930 . S
H1100 C1113 0.929 . S
H1101 C1111 0.929 . S
H1102 C1106 0.929 . S
H1103 C1112 0.929 . S
C1104 H1098 0.930 . S
C1104 C1105 1.367 . S
C1104 C1112 1.378 . S
C1105 C1104 1.367 . S
C1105 C1113 1.433 . S
C1106 H1102 0.929 . S
C1106 C1108 1.378 . S
C1106 C1110 1.350 . S
C1107 C1110 1.463 1_565 S
C1107 C1112 1.350 . S
C1107 N1115 1.427 . S
C1108 H1099 0.930 . S
C1108 C1106 1.378 . S
C1108 C1109 1.367 . S
C1109 C1108 1.367 . S
C1109 C1111 1.433 . S
C1110 C1106 1.350 . S
C1110 C1107 1.463 1_545 S
C1110 N1114 1.427 . S
C1111 H1101 0.929 . S
C1111 C1109 1.433 . S
C1111 N1114 1.384 . S
C1112 H1103 0.929 . S
C1112 C1104 1.378 . S
C1112 C1107 1.350 . S
C1113 H1100 0.929 . S
C1113 C1105 1.433 . S
C1113 N1115 1.384 . S
N1114 C1110 1.427 . S
N1114 C1111 1.384 . S
N1115 C1107 1.427 . S
N1115 C1113 1.384 . S
H1116 C1122 0.930 . S
H1117 C1126 0.930 . S
H1118 C1131 0.929 . S
H1119 C1129 0.929 . S
H1120 C1124 0.929 . S
H1121 C1130 0.929 . S
C1122 H1116 0.930 . S
C1122 C1123 1.367 . S
C1122 C1130 1.378 . S
C1123 C1122 1.367 . S
C1123 C1131 1.433 . S
C1124 H1120 0.929 . S
C1124 C1126 1.378 . S
C1124 C1128 1.350 . S
C1125 C1128 1.463 . S
C1125 C1130 1.350 . S
C1125 N1133 1.427 . S
C1126 H1117 0.930 . S
C1126 C1124 1.378 . S
C1126 C1127 1.367 . S
C1127 C1126 1.367 . S
C1127 C1129 1.433 . S
C1128 C1124 1.350 . S
C1128 C1125 1.463 . S
C1128 N1132 1.427 . S
C1129 H1119 0.929 . S
C1129 C1127 1.433 . S
C1129 N1132 1.384 . S
C1130 H1121 0.929 . S
C1130 C1122 1.378 . S
C1130 C1125 1.350 . S
C1131 H1118 0.929 . S
C1131 C1123 1.433 . S
C1131 N1133 1.384 . S
N1132 C1128 1.427 . S
N1132 C1129 1.384 . S
N1133 C1125 1.427 . S
N1133 C1131 1.384 . S
H1134 C1140 0.930 . S
H1135 C1144 0.930 . S
H1136 C1149 0.929 . S
H1137 C1147 0.929 . S
H1138 C1142 0.929 . S
H1139 C1148 0.929 . S
C1140 H1134 0.930 . S
C1140 C1141 1.367 . S
C1140 C1148 1.378 . S
C1141 C1140 1.367 . S
C1141 C1149 1.433 . S
C1142 H1138 0.929 . S
C1142 C1144 1.378 . S
C1142 C1146 1.350 . S
C1143 C1146 1.463 . S
C1143 C1148 1.350 . S
C1143 N1151 1.427 . S
C1144 H1135 0.930 . S
C1144 C1142 1.378 . S
C1144 C1145 1.367 . S
C1145 C1144 1.367 . S
C1145 C1147 1.433 . S
C1146 C1142 1.350 . S
C1146 C1143 1.463 . S
C1146 N1150 1.427 . S
C1147 H1137 0.929 . S
C1147 C1145 1.433 . S
C1147 N1150 1.384 . S
C1148 H1139 0.929 . S
C1148 C1140 1.378 . S
C1148 C1143 1.350 . S
C1149 H1136 0.929 . S
C1149 C1141 1.433 . S
C1149 N1151 1.384 . S
N1150 C1146 1.427 . S
N1150 C1147 1.384 . S
N1151 C1143 1.427 . S
N1151 C1149 1.384 . S
H1152 C1158 0.930 . S
H1153 C1162 0.930 . S
H1154 C1167 0.929 . S
H1155 C1165 0.929 . S
H1156 C1160 0.929 . S
H1157 C1166 0.929 . S
C1158 H1152 0.930 . S
C1158 C1159 1.367 . S
C1158 C1166 1.378 . S
C1159 C1158 1.367 . S
C1159 C1167 1.433 . S
C1160 H1156 0.929 . S
C1160 C1162 1.378 . S
C1160 C1164 1.350 . S
C1161 C1164 1.463 . S
C1161 C1166 1.350 . S
C1161 N1169 1.427 . S
C1162 H1153 0.930 . S
C1162 C1160 1.378 . S
C1162 C1163 1.367 . S
C1163 C1162 1.367 . S
C1163 C1165 1.433 . S
C1164 C1160 1.350 . S
C1164 C1161 1.463 . S
C1164 N1168 1.427 . S
C1165 H1155 0.929 . S
C1165 C1163 1.433 . S
C1165 N1168 1.384 . S
C1166 H1157 0.929 . S
C1166 C1158 1.378 . S
C1166 C1161 1.350 . S
C1167 H1154 0.929 . S
C1167 C1159 1.433 . S
C1167 N1169 1.384 . S
N1168 C1164 1.427 . S
N1168 C1165 1.384 . S
N1169 C1161 1.427 . S
N1169 C1167 1.384 . S
H1170 C1176 0.930 . S
H1171 C1180 0.930 . S
H1172 C1185 0.929 . S
H1173 C1183 0.929 . S
H1174 C1178 0.929 . S
H1175 C1184 0.929 . S
C1176 H1170 0.930 . S
C1176 C1177 1.367 . S
C1176 C1184 1.378 . S
C1177 C1176 1.367 . S
C1177 C1185 1.433 . S
C1178 H1174 0.929 . S
C1178 C1180 1.378 . S
C1178 C1182 1.350 . S
C1179 C1182 1.463 . S
C1179 C1184 1.350 . S
C1179 N1187 1.427 . S
C1180 H1171 0.930 . S
C1180 C1178 1.378 . S
C1180 C1181 1.367 . S
C1181 C1180 1.367 . S
C1181 C1183 1.433 1_565 S
C1182 C1178 1.350 . S
C1182 C1179 1.463 . S
C1182 N1186 1.427 . S
C1183 H1173 0.929 . S
C1183 C1181 1.433 1_545 S
C1183 N1186 1.384 1_545 S
C1184 H1175 0.929 . S
C1184 C1176 1.378 . S
C1184 C1179 1.350 . S
C1185 H1172 0.929 . S
C1185 C1177 1.433 . S
C1185 N1187 1.384 . S
N1186 C1182 1.427 . S
N1186 C1183 1.384 1_565 S
N1187 C1179 1.427 . S
N1187 C1185 1.384 . S
H1188 C1194 0.930 . S
H1189 C1198 0.930 . S
H1190 C1203 0.929 . S
H1191 C1201 0.929 1_655 S
H1192 C1196 0.929 . S
H1193 C1202 0.929 . S
C1194 H1188 0.930 . S
C1194 C1195 1.367 . S
C1194 C1202 1.378 . S
C1195 C1194 1.367 . S
C1195 C1203 1.433 . S
C1196 H1192 0.929 . S
C1196 C1198 1.378 . S
C1196 C1200 1.350 . S
C1197 C1200 1.463 . S
C1197 C1202 1.350 . S
C1197 N1205 1.427 . S
C1198 H1189 0.930 . S
C1198 C1196 1.378 . S
C1198 C1199 1.367 . S
C1199 C1198 1.367 . S
C1199 C1201 1.433 . S
C1200 C1196 1.350 . S
C1200 C1197 1.463 . S
C1200 N1204 1.427 . S
C1201 H1191 0.929 1_455 S
C1201 C1199 1.433 . S
C1201 N1204 1.384 . S
C1202 H1193 0.929 . S
C1202 C1194 1.378 . S
C1202 C1197 1.350 . S
C1203 H1190 0.929 . S
C1203 C1195 1.433 . S
C1203 N1205 1.384 . S
N1204 C1200 1.427 . S
N1204 C1201 1.384 . S
N1205 C1197 1.427 . S
N1205 C1203 1.384 . S
H1206 C1212 0.930 . S
H1207 C1216 0.930 . S
H1208 C1221 0.929 . S
H1209 C1219 0.929 . S
H1210 C1214 0.929 . S
H1211 C1220 0.929 . S
C1212 H1206 0.930 . S
C1212 C1213 1.367 . S
C1212 C1220 1.378 . S
C1213 C1212 1.367 . S
C1213 C1221 1.433 . S
C1214 H1210 0.929 . S
C1214 C1216 1.378 . S
C1214 C1218 1.350 . S
C1215 C1218 1.463 . S
C1215 C1220 1.350 . S
C1215 N1223 1.427 . S
C1216 H1207 0.930 . S
C1216 C1214 1.378 . S
C1216 C1217 1.367 . S
C1217 C1216 1.367 . S
C1217 C1219 1.433 . S
C1218 C1214 1.350 . S
C1218 C1215 1.463 . S
C1218 N1222 1.427 . S
C1219 H1209 0.929 . S
C1219 C1217 1.433 . S
C1219 N1222 1.384 . S
C1220 H1211 0.929 . S
C1220 C1212 1.378 . S
C1220 C1215 1.350 . S
C1221 H1208 0.929 . S
C1221 C1213 1.433 . S
C1221 N1223 1.384 . S
N1222 C1218 1.427 . S
N1222 C1219 1.384 . S
N1223 C1215 1.427 . S
N1223 C1221 1.384 . S
H1224 C1230 0.930 . S
H1225 C1234 0.930 . S
H1226 C1239 0.929 . S
H1227 C1237 0.929 . S
H1228 C1232 0.929 . S
H1229 C1238 0.929 . S
C1230 H1224 0.930 . S
C1230 C1231 1.367 . S
C1230 C1238 1.378 . S
C1231 C1230 1.367 . S
C1231 C1239 1.433 . S
C1232 H1228 0.929 . S
C1232 C1234 1.378 . S
C1232 C1236 1.350 . S
C1233 C1236 1.463 . S
C1233 C1238 1.350 . S
C1233 N1241 1.427 . S
C1234 H1225 0.930 . S
C1234 C1232 1.378 . S
C1234 C1235 1.367 . S
C1235 C1234 1.367 . S
C1235 C1237 1.433 . S
C1236 C1232 1.350 . S
C1236 C1233 1.463 . S
C1236 N1240 1.427 . S
C1237 H1227 0.929 . S
C1237 C1235 1.433 . S
C1237 N1240 1.384 . S
C1238 H1229 0.929 . S
C1238 C1230 1.378 . S
C1238 C1233 1.350 . S
C1239 H1226 0.929 . S
C1239 C1231 1.433 . S
C1239 N1241 1.384 . S
N1240 C1236 1.427 . S
N1240 C1237 1.384 . S
N1241 C1233 1.427 . S
N1241 C1239 1.384 . S
H1242 C1248 0.930 . S
H1243 C1252 0.930 . S
H1244 C1257 0.929 . S
H1245 C1255 0.929 . S
H1246 C1250 0.929 . S
H1247 C1256 0.929 . S
C1248 H1242 0.930 . S
C1248 C1249 1.367 . S
C1248 C1256 1.378 . S
C1249 C1248 1.367 . S
C1249 C1257 1.433 . S
C1250 H1246 0.929 . S
C1250 C1252 1.378 . S
C1250 C1254 1.350 . S
C1251 C1254 1.463 . S
C1251 C1256 1.350 . S
C1251 N1259 1.427 . S
C1252 H1243 0.930 . S
C1252 C1250 1.378 . S
C1252 C1253 1.367 . S
C1253 C1252 1.367 . S
C1253 C1255 1.433 . S
C1254 C1250 1.350 . S
C1254 C1251 1.463 . S
C1254 N1258 1.427 . S
C1255 H1245 0.929 . S
C1255 C1253 1.433 . S
C1255 N1258 1.384 . S
C1256 H1247 0.929 . S
C1256 C1248 1.378 . S
C1256 C1251 1.350 . S
C1257 H1244 0.929 . S
C1257 C1249 1.433 . S
C1257 N1259 1.384 . S
N1258 C1254 1.427 . S
N1258 C1255 1.384 . S
N1259 C1251 1.427 . S
N1259 C1257 1.384 . S
H1260 C1266 0.930 . S
H1261 C1270 0.930 . S
H1262 C1275 0.929 . S
H1263 C1273 0.929 . S
H1264 C1268 0.929 . S
H1265 C1274 0.929 . S
C1266 H1260 0.930 . S
C1266 C1267 1.367 . S
C1266 C1274 1.378 . S
C1267 C1266 1.367 . S
C1267 C1275 1.433 . S
C1268 H1264 0.929 . S
C1268 C1270 1.378 . S
C1268 C1272 1.350 1_565 S
C1269 C1272 1.463 . S
C1269 C1274 1.350 . S
C1269 N1277 1.427 . S
C1270 H1261 0.930 . S
C1270 C1268 1.378 . S
C1270 C1271 1.367 1_565 S
C1271 C1270 1.367 1_545 S
C1271 C1273 1.433 . S
C1272 C1268 1.350 1_545 S
C1272 C1269 1.463 . S
C1272 N1276 1.427 . S
C1273 H1263 0.929 . S
C1273 C1271 1.433 . S
C1273 N1276 1.384 . S
C1274 H1265 0.929 . S
C1274 C1266 1.378 . S
C1274 C1269 1.350 . S
C1275 H1262 0.929 . S
C1275 C1267 1.433 . S
C1275 N1277 1.384 . S
N1276 C1272 1.427 . S
N1276 C1273 1.384 . S
N1277 C1269 1.427 . S
N1277 C1275 1.384 . S
H1278 C1284 0.930 . S
H1279 C1288 0.930 . S
H1280 C1293 0.929 . S
H1281 C1291 0.929 . S
H1282 C1286 0.929 . S
H1283 C1292 0.929 . S
C1284 H1278 0.930 . S
C1284 C1285 1.367 . S
C1284 C1292 1.378 . S
C1285 C1284 1.367 . S
C1285 C1293 1.433 . S
C1286 H1282 0.929 . S
C1286 C1288 1.378 . S
C1286 C1290 1.350 . S
C1287 C1290 1.463 . S
C1287 C1292 1.350 . S
C1287 N1295 1.427 . S
C1288 H1279 0.930 . S
C1288 C1286 1.378 . S
C1288 C1289 1.367 . S
C1289 C1288 1.367 . S
C1289 C1291 1.433 . S
C1290 C1286 1.350 . S
C1290 C1287 1.463 . S
C1290 N1294 1.427 . S
C1291 H1281 0.929 . S
C1291 C1289 1.433 . S
C1291 N1294 1.384 . S
C1292 H1283 0.929 . S
C1292 C1284 1.378 . S
C1292 C1287 1.350 . S
C1293 H1280 0.929 . S
C1293 C1285 1.433 . S
C1293 N1295 1.384 . S
N1294 C1290 1.427 . S
N1294 C1291 1.384 . S
N1295 C1287 1.427 . S
N1295 C1293 1.384 . S
H1296 C1302 0.930 . S
H1297 C1306 0.930 . S
H1298 C1311 0.929 . S
H1299 C1309 0.929 . S
H1300 C1304 0.929 . S
H1301 C1310 0.929 . S
C1302 H1296 0.930 . S
C1302 C1303 1.367 . S
C1302 C1310 1.378 . S
C1303 C1302 1.367 . S
C1303 C1311 1.433 . S
C1304 H1300 0.929 . S
C1304 C1306 1.378 . S
C1304 C1308 1.350 . S
C1305 C1308 1.463 . S
C1305 C1310 1.350 . S
C1305 N1313 1.427 . S
C1306 H1297 0.930 . S
C1306 C1304 1.378 . S
C1306 C1307 1.367 . S
C1307 C1306 1.367 . S
C1307 C1309 1.433 . S
C1308 C1304 1.350 . S
C1308 C1305 1.463 . S
C1308 N1312 1.427 . S
C1309 H1299 0.929 . S
C1309 C1307 1.433 . S
C1309 N1312 1.384 . S
C1310 H1301 0.929 . S
C1310 C1302 1.378 . S
C1310 C1305 1.350 . S
C1311 H1298 0.929 . S
C1311 C1303 1.433 . S
C1311 N1313 1.384 . S
N1312 C1308 1.427 . S
N1312 C1309 1.384 . S
N1313 C1305 1.427 . S
N1313 C1311 1.384 . S
H1314 C1320 0.930 . S
H1315 C1324 0.930 . S
H1316 C1329 0.929 . S
H1317 C1327 0.929 . S
H1318 C1322 0.929 . S
H1319 C1328 0.929 . S
C1320 H1314 0.930 . S
C1320 C1321 1.367 . S
C1320 C1328 1.378 . S
C1321 C1320 1.367 . S
C1321 C1329 1.433 . S
C1322 H1318 0.929 . S
C1322 C1324 1.378 . S
C1322 C1326 1.350 . S
C1323 C1326 1.463 . S
C1323 C1328 1.350 . S
C1323 N1331 1.427 . S
C1324 H1315 0.930 . S
C1324 C1322 1.378 . S
C1324 C1325 1.367 . S
C1325 C1324 1.367 . S
C1325 C1327 1.433 . S
C1326 C1322 1.350 . S
C1326 C1323 1.463 . S
C1326 N1330 1.427 . S
C1327 H1317 0.929 . S
C1327 C1325 1.433 . S
C1327 N1330 1.384 . S
C1328 H1319 0.929 . S
C1328 C1320 1.378 . S
C1328 C1323 1.350 . S
C1329 H1316 0.929 . S
C1329 C1321 1.433 . S
C1329 N1331 1.384 . S
N1330 C1326 1.427 . S
N1330 C1327 1.384 . S
N1331 C1323 1.427 . S
N1331 C1329 1.384 . S
H1332 C1338 0.930 . S
H1333 C1342 0.930 . S
H1334 C1347 0.929 . S
H1335 C1345 0.929 . S
H1336 C1340 0.929 . S
H1337 C1346 0.929 . S
C1338 H1332 0.930 . S
C1338 C1339 1.367 . S
C1338 C1346 1.378 . S
C1339 C1338 1.367 . S
C1339 C1347 1.433 . S
C1340 H1336 0.929 . S
C1340 C1342 1.378 . S
C1340 C1344 1.350 . S
C1341 C1344 1.463 . S
C1341 C1346 1.350 . S
C1341 N1349 1.427 . S
C1342 H1333 0.930 . S
C1342 C1340 1.378 . S
C1342 C1343 1.367 . S
C1343 C1342 1.367 . S
C1343 C1345 1.433 . S
C1344 C1340 1.350 . S
C1344 C1341 1.463 . S
C1344 N1348 1.427 . S
C1345 H1335 0.929 . S
C1345 C1343 1.433 . S
C1345 N1348 1.384 . S
C1346 H1337 0.929 . S
C1346 C1338 1.378 . S
C1346 C1341 1.350 . S
C1347 H1334 0.929 . S
C1347 C1339 1.433 . S
C1347 N1349 1.384 . S
N1348 C1344 1.427 . S
N1348 C1345 1.384 . S
N1349 C1341 1.427 . S
N1349 C1347 1.384 . S
H1350 C1356 0.930 . S
H1351 C1360 0.930 . S
H1352 C1365 0.929 . S
H1353 C1363 0.929 . S
H1354 C1358 0.929 . S
H1355 C1364 0.929 . S
C1356 H1350 0.930 . S
C1356 C1357 1.367 . S
C1356 C1364 1.378 . S
C1357 C1356 1.367 . S
C1357 C1365 1.433 . S
C1358 H1354 0.929 . S
C1358 C1360 1.378 . S
C1358 C1362 1.350 . S
C1359 C1362 1.463 . S
C1359 C1364 1.350 . S
C1359 N1367 1.427 . S
C1360 H1351 0.930 . S
C1360 C1358 1.378 . S
C1360 C1361 1.367 . S
C1361 C1360 1.367 . S
C1361 C1363 1.433 . S
C1362 C1358 1.350 . S
C1362 C1359 1.463 . S
C1362 N1366 1.427 . S
C1363 H1353 0.929 . S
C1363 C1361 1.433 . S
C1363 N1366 1.384 . S
C1364 H1355 0.929 . S
C1364 C1356 1.378 . S
C1364 C1359 1.350 . S
C1365 H1352 0.929 . S
C1365 C1357 1.433 . S
C1365 N1367 1.384 . S
N1366 C1362 1.427 . S
N1366 C1363 1.384 . S
N1367 C1359 1.427 . S
N1367 C1365 1.384 . S
H1368 C1374 0.930 . S
H1369 C1378 0.930 . S
H1370 C1383 0.929 . S
H1371 C1381 0.929 . S
H1372 C1376 0.929 . S
H1373 C1382 0.929 . S
C1374 H1368 0.930 . S
C1374 C1375 1.367 . S
C1374 C1382 1.378 . S
C1375 C1374 1.367 . S
C1375 C1383 1.433 . S
C1376 H1372 0.929 . S
C1376 C1378 1.378 . S
C1376 C1380 1.350 . S
C1377 C1380 1.463 . S
C1377 C1382 1.350 . S
C1377 N1385 1.427 . S
C1378 H1369 0.930 . S
C1378 C1376 1.378 . S
C1378 C1379 1.367 . S
C1379 C1378 1.367 . S
C1379 C1381 1.433 . S
C1380 C1376 1.350 . S
C1380 C1377 1.463 . S
C1380 N1384 1.427 . S
C1381 H1371 0.929 . S
C1381 C1379 1.433 . S
C1381 N1384 1.384 . S
C1382 H1373 0.929 . S
C1382 C1374 1.378 . S
C1382 C1377 1.350 . S
C1383 H1370 0.929 . S
C1383 C1375 1.433 . S
C1383 N1385 1.384 . S
N1384 C1380 1.427 . S
N1384 C1381 1.384 . S
N1385 C1377 1.427 . S
N1385 C1383 1.384 . S
H1386 C1392 0.930 . S
H1387 C1396 0.930 . S
H1388 C1401 0.929 . S
H1389 C1399 0.929 . S
H1390 C1394 0.929 . S
H1391 C1400 0.929 . S
C1392 H1386 0.930 . S
C1392 C1393 1.367 . S
C1392 C1400 1.378 . S
C1393 C1392 1.367 . S
C1393 C1401 1.433 . S
C1394 H1390 0.929 . S
C1394 C1396 1.378 . S
C1394 C1398 1.350 . S
C1395 C1398 1.463 . S
C1395 C1400 1.350 . S
C1395 N1403 1.427 . S
C1396 H1387 0.930 . S
C1396 C1394 1.378 . S
C1396 C1397 1.367 . S
C1397 C1396 1.367 . S
C1397 C1399 1.433 . S
C1398 C1394 1.350 . S
C1398 C1395 1.463 . S
C1398 N1402 1.427 . S
C1399 H1389 0.929 . S
C1399 C1397 1.433 . S
C1399 N1402 1.384 . S
C1400 H1391 0.929 . S
C1400 C1392 1.378 . S
C1400 C1395 1.350 . S
C1401 H1388 0.929 . S
C1401 C1393 1.433 . S
C1401 N1403 1.384 . S
N1402 C1398 1.427 . S
N1402 C1399 1.384 . S
N1403 C1395 1.427 . S
N1403 C1401 1.384 . S
H1404 C1410 0.930 . S
H1405 C1414 0.930 . S
H1406 C1419 0.929 . S
H1407 C1417 0.929 . S
H1408 C1412 0.929 . S
H1409 C1418 0.929 . S
C1410 H1404 0.930 . S
C1410 C1411 1.367 . S
C1410 C1418 1.378 . S
C1411 C1410 1.367 . S
C1411 C1419 1.433 . S
C1412 H1408 0.929 . S
C1412 C1414 1.378 . S
C1412 C1416 1.350 . S
C1413 C1416 1.463 . S
C1413 C1418 1.350 . S
C1413 N1421 1.427 . S
C1414 H1405 0.930 . S
C1414 C1412 1.378 . S
C1414 C1415 1.367 . S
C1415 C1414 1.367 . S
C1415 C1417 1.433 . S
C1416 C1412 1.350 . S
C1416 C1413 1.463 . S
C1416 N1420 1.427 . S
C1417 H1407 0.929 . S
C1417 C1415 1.433 . S
C1417 N1420 1.384 . S
C1418 H1409 0.929 . S
C1418 C1410 1.378 . S
C1418 C1413 1.350 . S
C1419 H1406 0.929 . S
C1419 C1411 1.433 . S
C1419 N1421 1.384 . S
N1420 C1416 1.427 . S
N1420 C1417 1.384 . S
N1421 C1413 1.427 . S
N1421 C1419 1.384 . S
H1422 C1428 0.930 . S
H1423 C1432 0.930 . S
H1424 C1437 0.929 . S
H1425 C1435 0.929 . S
H1426 C1430 0.929 . S
H1427 C1436 0.929 . S
C1428 H1422 0.930 . S
C1428 C1429 1.367 . S
C1428 C1436 1.378 . S
C1429 C1428 1.367 . S
C1429 C1437 1.433 . S
C1430 H1426 0.929 . S
C1430 C1432 1.378 . S
C1430 C1434 1.350 . S
C1431 C1434 1.463 . S
C1431 C1436 1.350 . S
C1431 N1439 1.427 . S
C1432 H1423 0.930 . S
C1432 C1430 1.378 . S
C1432 C1433 1.367 . S
C1433 C1432 1.367 . S
C1433 C1435 1.433 . S
C1434 C1430 1.350 . S
C1434 C1431 1.463 . S
C1434 N1438 1.427 . S
C1435 H1425 0.929 . S
C1435 C1433 1.433 . S
C1435 N1438 1.384 . S
C1436 H1427 0.929 . S
C1436 C1428 1.378 . S
C1436 C1431 1.350 . S
C1437 H1424 0.929 . S
C1437 C1429 1.433 . S
C1437 N1439 1.384 . S
N1438 C1434 1.427 . S
N1438 C1435 1.384 . S
N1439 C1431 1.427 . S
N1439 C1437 1.384 . S
H1440 C1446 0.930 . S
H1441 C1450 0.930 . S
H1442 C1455 0.929 . S
H1443 C1453 0.929 . S
H1444 C1448 0.929 . S
H1445 C1454 0.929 . S
C1446 H1440 0.930 . S
C1446 C1447 1.367 . S
C1446 C1454 1.378 . S
C1447 C1446 1.367 . S
C1447 C1455 1.433 . S
C1448 H1444 0.929 . S
C1448 C1450 1.378 . S
C1448 C1452 1.350 . S
C1449 C1452 1.463 . S
C1449 C1454 1.350 . S
C1449 N1457 1.427 . S
C1450 H1441 0.930 . S
C1450 C1448 1.378 . S
C1450 C1451 1.367 . S
C1451 C1450 1.367 . S
C1451 C1453 1.433 . S
C1452 C1448 1.350 . S
C1452 C1449 1.463 . S
C1452 N1456 1.427 . S
C1453 H1443 0.929 . S
C1453 C1451 1.433 . S
C1453 N1456 1.384 . S
C1454 H1445 0.929 . S
C1454 C1446 1.378 . S
C1454 C1449 1.350 . S
C1455 H1442 0.929 . S
C1455 C1447 1.433 . S
C1455 N1457 1.384 . S
N1456 C1452 1.427 . S
N1456 C1453 1.384 . S
N1457 C1449 1.427 . S
N1457 C1455 1.384 . S
H1458 C1464 0.930 . S
H1459 C1468 0.930 . S
H1460 C1473 0.929 . S
H1461 C1471 0.929 . S
H1462 C1466 0.929 . S
H1463 C1472 0.929 . S
C1464 H1458 0.930 . S
C1464 C1465 1.367 . S
C1464 C1472 1.378 . S
C1465 C1464 1.367 . S
C1465 C1473 1.433 . S
C1466 H1462 0.929 . S
C1466 C1468 1.378 . S
C1466 C1470 1.350 . S
C1467 C1470 1.463 . S
C1467 C1472 1.350 . S
C1467 N1475 1.427 . S
C1468 H1459 0.930 . S
C1468 C1466 1.378 . S
C1468 C1469 1.367 . S
C1469 C1468 1.367 . S
C1469 C1471 1.433 . S
C1470 C1466 1.350 . S
C1470 C1467 1.463 . S
C1470 N1474 1.427 . S
C1471 H1461 0.929 . S
C1471 C1469 1.433 . S
C1471 N1474 1.384 . S
C1472 H1463 0.929 . S
C1472 C1464 1.378 . S
C1472 C1467 1.350 . S
C1473 H1460 0.929 . S
C1473 C1465 1.433 . S
C1473 N1475 1.384 . S
N1474 C1470 1.427 . S
N1474 C1471 1.384 . S
N1475 C1467 1.427 . S
N1475 C1473 1.384 . S
H1476 C1482 0.930 . S
H1477 C1486 0.930 . S
H1478 C1491 0.929 . S
H1479 C1489 0.929 . S
H1480 C1484 0.929 . S
H1481 C1490 0.929 . S
C1482 H1476 0.930 . S
C1482 C1483 1.367 . S
C1482 C1490 1.378 . S
C1483 C1482 1.367 . S
C1483 C1491 1.433 . S
C1484 H1480 0.929 . S
C1484 C1486 1.378 . S
C1484 C1488 1.350 . S
C1485 C1488 1.463 . S
C1485 C1490 1.350 . S
C1485 N1493 1.427 . S
C1486 H1477 0.930 . S
C1486 C1484 1.378 . S
C1486 C1487 1.367 . S
C1487 C1486 1.367 . S
C1487 C1489 1.433 . S
C1488 C1484 1.350 . S
C1488 C1485 1.463 . S
C1488 N1492 1.427 . S
C1489 H1479 0.929 . S
C1489 C1487 1.433 . S
C1489 N1492 1.384 . S
C1490 H1481 0.929 . S
C1490 C1482 1.378 . S
C1490 C1485 1.350 . S
C1491 H1478 0.929 . S
C1491 C1483 1.433 . S
C1491 N1493 1.384 . S
N1492 C1488 1.427 . S
N1492 C1489 1.384 . S
N1493 C1485 1.427 . S
N1493 C1491 1.384 . S
C529 C124 1.547 . S
C533 C171 1.530 . S
C547 C130 1.702 . S
C551 C211 1.683 . S
C565 C115 1.570 . S
C569 C250 1.562 . S
C583 C106 1.472 . S
C587 C210 1.458 . S
C605 C251 1.431 . S
C601 C85 1.443 . S
C619 C97 1.313 . S
C623 C170 1.317 . S
C641 C181 1.562 . S
C637 C103 1.576 . S
C659 C221 1.671 . S
C655 C88 1.684 . S
C673 C94 1.567 . S
C677 C260 1.552 . S
C691 C121 1.472 . S
C695 C220 1.461 . S
C709 C133 1.423 . S
C713 C261 1.412 . S
C731 C180 1.340 . S
C727 C112 1.341 . S
C749 C291 1.541 . S
C745 C16 1.555 . S
C763 C22 1.704 . S
C767 C331 1.687 . S
C781 C7 1.560 . S
C785 C370 1.555 . S
C799 C160 1.480 . S
C803 C330 1.463 . S
C817 C139 1.442 . S
C821 C371 1.430 . S
C835 C151 1.314 . S
C839 C290 1.326 . S
C853 C157 1.572 . S
C857 C301 1.557 . S
C871 C142 1.681 . S
C875 C341 1.667 . S
C893 C380 1.562 . S
C889 C148 1.568 . S
C907 C13 1.477 . S
C911 C340 1.464 . S
C929 C381 1.414 . S
C925 C25 1.423 . S
C943 C4 1.339 . S
C947 C300 1.338 . S
C965 C411 1.532 . S
C961 C70 1.549 . S
C979 C76 1.704 . S
C983 C451 1.686 . S
C1001 C490 1.559 . S
C997 C61 1.569 . S
C1019 C450 1.456 . S
C1015 C52 1.478 . S
C1037 C491 1.440 . S
C1033 C31 1.448 . S
C1051 C43 1.320 . S
C1055 C410 1.326 . S
C1069 C49 1.576 . S
C1073 C421 1.563 . S
C1087 C34 1.682 . S
C1091 C461 1.667 . S
C1109 C500 1.555 . S
C1105 C40 1.559 . S
C1123 C67 1.475 . S
C1127 C460 1.464 . S
C1141 C79 1.426 . S
C1145 C501 1.417 . S
C1159 C58 1.336 . S
C1163 C420 1.348 . S
C1177 C140 1.408 . S
C1181 C167 1.397 . S
C1199 C207 1.730 . S
C1195 C149 1.725 . S
C1213 C158 1.546 . S
C1217 C257 1.550 . S
C1231 C59 1.743 . S
C1235 C217 1.748 . S
C1249 C68 1.526 . S
C1253 C247 1.531 . S
C1271 C177 1.399 . S
C1267 C77 1.406 . S
C1285 C32 1.407 . S
C1289 C287 1.400 . S
C1303 C41 1.726 . S
C1307 C327 1.728 . S
C1321 C50 1.546 . S
C1325 C377 1.550 . S
C1339 C113 1.743 . S
C1343 C337 1.745 . S
C1361 C367 1.529 . S
C1357 C122 1.529 . S
C1375 C131 1.407 . S
C1379 C297 1.400 . S
C1393 C86 1.408 . S
C1397 C407 1.395 . S
C1411 C95 1.722 . S
C1415 C447 1.728 . S
C1433 C497 1.550 . S
C1429 C104 1.546 . S
C1447 C5 1.744 . S
C1451 C457 1.748 . S
C1465 C14 1.528 . S
C1469 C487 1.530 . S
C1483 C23 1.406 . S
C1487 C417 1.400 . S
