# Generated by pormake.
# Topology anh, (6,3)-cn, num edge types: 1
# Building blocks:
#     Node 0, Type 0, BuildingBlock: BETGAK_clean_sbu_0, # of connection points: 6
#     Node 1, Type 0, BuildingBlock: BETGAK_clean_sbu_0, # of connection points: 6
#     Node 2, Type 0, BuildingBlock: BETGAK_clean_sbu_0, # of connection points: 6
#     Node 3, Type 1, BuildingBlock: BETDIP_clean_linker_0, # of connection points: 3
#     Node 4, Type 1, BuildingBlock: BETDIP_clean_linker_0, # of connection points: 3
#     Node 5, Type 1, BuildingBlock: BETDIP_clean_linker_0, # of connection points: 3
#     Node 6, Type 1, BuildingBlock: BETDIP_clean_linker_0, # of connection points: 3
#     Node 7, Type 1, BuildingBlock: BETDIP_clean_linker_0, # of connection points: 3
#     Node 8, Type 1, BuildingBlock: BETDIP_clean_linker_0, # of connection points: 3
#     Edge 9, Type (0, 1), BuildingBlock: XIVTED_clean_linker_0, # of connection points: 2
#     Edge 10, Type (0, 1), BuildingBlock: XIVTED_clean_linker_0, # of connection points: 2
#     Edge 11, Type (0, 1), BuildingBlock: XIVTED_clean_linker_0, # of connection points: 2
#     Edge 12, Type (0, 1), BuildingBlock: XIVTED_clean_linker_0, # of connection points: 2
#     Edge 13, Type (0, 1), BuildingBlock: XIVTED_clean_linker_0, # of connection points: 2
#     Edge 14, Type (0, 1), BuildingBlock: XIVTED_clean_linker_0, # of connection points: 2
#     Edge 15, Type (0, 1), BuildingBlock: XIVTED_clean_linker_0, # of connection points: 2
#     Edge 16, Type (0, 1), BuildingBlock: XIVTED_clean_linker_0, # of connection points: 2
#     Edge 17, Type (0, 1), BuildingBlock: XIVTED_clean_linker_0, # of connection points: 2
#     Edge 18, Type (0, 1), BuildingBlock: XIVTED_clean_linker_0, # of connection points: 2
#     Edge 19, Type (0, 1), BuildingBlock: XIVTED_clean_linker_0, # of connection points: 2
#     Edge 20, Type (0, 1), BuildingBlock: XIVTED_clean_linker_0, # of connection points: 2
#     Edge 21, Type (0, 1), BuildingBlock: XIVTED_clean_linker_0, # of connection points: 2
#     Edge 22, Type (0, 1), BuildingBlock: XIVTED_clean_linker_0, # of connection points: 2
#     Edge 23, Type (0, 1), BuildingBlock: XIVTED_clean_linker_0, # of connection points: 2
#     Edge 24, Type (0, 1), BuildingBlock: XIVTED_clean_linker_0, # of connection points: 2
#     Edge 25, Type (0, 1), BuildingBlock: XIVTED_clean_linker_0, # of connection points: 2
#     Edge 26, Type (0, 1), BuildingBlock: XIVTED_clean_linker_0, # of connection points: 2
# Relax obj value: 0.161
# Max RMSD: 0.177
# Mean RMSD: 0.126
data_MOF--net-anh--node1-BETGAK_clean_sbu_0--node2-BETDIP_clean_linker_0--edge1-XIVTED_clean_linker_0
_symmetry_space_group_name_H-M    P1
_symmetry_Int_Tables_number       1
_symmetry_cell_setting            triclinic
loop_
_symmetry_equiv_pos_as_xyz
'x, y, z'
_cell_length_a     31.564665
_cell_length_b     38.755802
_cell_length_c     49.766943
_cell_angle_alpha  95.204727
_cell_angle_beta   88.326163
_cell_angle_gamma 130.60021
loop_
_atom_site_label
_atom_site_type_symbol
_atom_site_fract_x
_atom_site_fract_y
_atom_site_fract_z
_atom_type_partial_charge
La0 La 0.17138 0.55169 0.15304 0.0
La1 La 0.1138 0.58495 0.15329 0.0
C2 C 0.24212 0.54359 0.14797 0.0
C3 C 0.30022 0.58269 0.15551 0.0
C4 C 0.3242 0.58385 0.17917 0.0
C5 C 0.37941 0.62154 0.18646 0.0
C6 C 0.41209 0.65418 0.16779 0.0
C7 C 0.38444 0.66009 0.14979 0.0
C8 C 0.32914 0.62275 0.14221 0.0
C9 C 0.13347 0.55153 0.20061 0.0
C10 C 0.24088 0.65959 0.15404 0.0
C11 C 1.06336 0.60896 0.17295 0.0
C12 C 1.00516 0.57508 0.17934 0.0
C13 C 0.96371 0.55787 0.15937 0.0
C14 C 0.90846 0.52205 0.16419 0.0
C15 C 0.89405 0.50472 0.18954 0.0
C16 C 0.93552 0.51802 0.20816 0.0
C17 C 0.99097 0.55342 0.20322 0.0
C18 C 0.11934 0.5669 0.10171 0.0
C19 C 1.04419 0.47845 0.14725 0.0
O20 O 0.20922 0.52858 0.16833 0.0
O21 O 0.22132 0.54715 0.12707 0.0
O22 O 0.12947 0.5183 0.18897 0.0
O23 O 0.15735 0.58346 0.18506 0.0
O24 O 0.24173 0.62688 0.15857 0.0
O25 O 0.19373 0.65 0.14917 0.0
O26 O 1.07285 0.60958 0.14722 0.0
O27 O 0.09802 0.60995 0.18748 0.0
O28 O 0.09453 0.58151 0.11106 0.0
O29 O 0.1389 0.56118 0.12097 0.0
O30 O 1.04484 0.5118 0.15697 0.0
O31 O 0.09042 0.48775 0.13902 0.0
H32 H 0.30113 0.5552 0.19137 0.0
H33 H 0.39871 0.61908 0.20297 0.0
H34 H 0.40811 0.68774 0.13689 0.0
H35 H 0.3102 0.62476 0.1253 0.0
H36 H 0.97375 0.57263 0.14027 0.0
H37 H 0.87671 0.51216 0.14952 0.0
H38 H 0.92466 0.50469 0.22772 0.0
H39 H 1.02241 0.5645 0.21845 0.0
La40 La 0.60684 0.0254 0.47532 0.0
La41 La 0.53539 0.04823 0.4771 0.0
C42 C 0.64413 0.98517 0.47856 0.0
C43 C 0.61685 0.93644 0.47648 0.0
C44 C 0.635 0.91991 0.4575 0.0
C45 C 0.61422 0.87519 0.45719 0.0
C46 C 0.57478 0.84629 0.47586 0.0
C47 C 0.55177 0.8613 0.49257 0.0
C48 C 0.57314 0.90617 0.49315 0.0
C49 C 0.59114 0.04325 0.42888 0.0
C50 C 0.47318 0.94634 0.47286 0.0
C51 C 0.49735 0.08711 0.46939 0.0
C52 C 0.52062 0.13508 0.47308 0.0
C53 C 0.5214 0.15449 0.49854 0.0
C54 C 0.54122 0.19903 0.50175 0.0
C55 C 0.56023 0.22505 0.47956 0.0
C56 C 0.56056 0.20618 0.4542 0.0
C57 C 0.5411 0.16163 0.451 0.0
C58 C 0.55338 0.03234 0.52408 0.0
C59 C 0.66972 0.12778 0.48072 0.0
O60 O 0.6429 0.99993 0.45631 0.0
O61 O 0.63396 1.00116 0.49974 0.0
O62 O 0.63829 0.05668 0.43767 0.0
O63 O 0.55381 0.01934 0.44552 0.0
O64 O 0.52225 0.95977 0.48018 0.0
O65 O 0.46886 0.97603 0.46599 0.0
O66 O 0.48957 0.06754 0.49126 0.0
O67 O 0.51838 0.07722 0.45039 0.0
O68 O 0.5068 0.02139 0.51655 0.0
O69 O 0.58902 0.05472 0.50664 0.0
O70 O 0.61996 0.11434 0.47497 0.0
O71 O 0.67531 0.09807 0.48595 0.0
H72 H 0.66736 0.94231 0.44381 0.0
H73 H 0.63245 0.86471 0.44381 0.0
H74 H 0.51977 0.83929 0.50651 0.0
H75 H 0.55702 0.91757 0.50741 0.0
H76 H 0.50595 0.13511 0.51599 0.0
H77 H 0.54012 0.21268 0.5215 0.0
H78 H 0.57565 0.22581 0.43687 0.0
H79 H 0.54141 0.14778 0.43116 0.0
La80 La 0.65294 0.57085 0.8244 0.0
La81 La 0.57621 0.47215 0.82002 0.0
C82 C 0.69769 0.65247 0.82099 0.0
C83 C 0.67408 0.67522 0.82149 0.0
C84 C 0.68795 0.70728 0.8432 0.0
C85 C 0.66925 0.73155 0.84299 0.0
C86 C 0.63672 0.72425 0.82096 0.0
C87 C 0.61876 0.68926 0.80051 0.0
C88 C 0.6374 0.6651 0.80069 0.0
C89 C 0.63132 0.53502 0.87003 0.0
C90 C 0.51861 0.51534 0.82483 0.0
C91 C 0.52699 0.39016 0.82654 0.0
C92 C 0.54139 0.36056 0.82327 0.0
C93 C 0.52999 0.33493 0.79851 0.0
C94 C 0.54256 0.30637 0.79541 0.0
C95 C 0.56644 0.30251 0.81704 0.0
C96 C 0.57773 0.32792 0.84186 0.0
C97 C 0.56536 0.35674 0.84495 0.0
C98 C 0.59266 0.50554 0.77353 0.0
C99 C 0.71145 0.52826 0.82313 0.0
O100 O 0.69525 0.63666 0.84355 0.0
O101 O 0.68484 0.6239 0.79994 0.0
O102 O 0.67962 0.57232 0.86459 0.0
O103 O 0.59676 0.52139 0.8512 0.0
O104 O 0.56964 0.55347 0.81997 0.0
O105 O 0.51206 0.47878 0.82936 0.0
O106 O 0.52217 0.40343 0.80444 0.0
O107 O 0.55337 0.42322 0.84608 0.0
O108 O 0.54575 0.46892 0.78095 0.0
O109 O 0.63051 0.52148 0.79149 0.0
O110 O 0.65912 0.48859 0.82317 0.0
O111 O 0.71996 0.56651 0.82145 0.0
H112 H 0.71495 0.71478 0.85986 0.0
H113 H 0.6834 0.7581 0.8591 0.0
H114 H 0.59261 0.68227 0.78356 0.0
H115 H 0.62444 0.63959 0.78408 0.0
H116 H 0.51103 0.33668 0.78148 0.0
H117 H 0.53271 0.2867 0.77614 0.0
H118 H 0.59659 0.32585 0.85878 0.0
H119 H 0.57446 0.3759 0.86433 0.0
H120 H 0.61016 0.02874 0.15078 0.0
H121 H 0.67389 0.11179 0.22691 0.0
H122 H 0.52301 0.97153 0.22323 0.0
H123 H 0.68052 0.16067 0.19884 0.0
C124 C 0.70562 0.15957 0.18394 0.0
C125 C 0.60645 0.03272 0.17232 0.0
C126 C 0.56336 0.99463 0.18587 0.0
C127 C 0.6448 0.07609 0.18698 0.0
C128 C 0.64163 0.07973 0.21534 0.0
C129 C 0.59831 0.04218 0.22886 0.0
C130 C 0.5582 1.00059 0.21354 0.0
N131 N 0.68686 0.11584 0.17356 0.0
H132 H 0.60981 0.5293 0.49661 0.0
H133 H 0.60677 0.59091 0.57247 0.0
H134 H 0.61251 0.48337 0.57154 0.0
H135 H 0.54367 0.58541 0.54609 0.0
C136 C 0.56814 0.60048 0.52837 0.0
C137 C 0.61029 0.53178 0.51849 0.0
C138 C 0.61297 0.5034 0.53248 0.0
C139 C 0.60688 0.56273 0.5327 0.0
C140 C 0.60819 0.56643 0.56123 0.0
C141 C 0.6092 0.53729 0.57533 0.0
C142 C 0.61188 0.50613 0.56076 0.0
N143 N 0.59976 0.5885 0.51805 0.0
H144 H 1.07449 0.52669 0.82118 0.0
H145 H 0.15988 0.54354 0.89438 0.0
H146 H 1.01404 0.52812 0.90043 0.0
H147 H 0.17586 0.50236 0.87242 0.0
C148 C 0.19073 0.51676 0.85321 0.0
C149 C 0.07767 0.52894 0.84296 0.0
C150 C 1.03917 0.53038 0.8591 0.0
C151 C 0.12094 0.5311 0.8555 0.0
C152 C 0.12577 0.53748 0.8839 0.0
C153 C 0.08709 0.53563 0.89967 0.0
C154 C 1.0438 0.53064 0.88734 0.0
N155 N 0.16033 0.52853 0.84069 0.0
H156 H 0.11459 0.57966 0.48228 0.0
H157 H 1.03921 0.49181 0.40793 0.0
H158 H 0.17227 0.63591 0.40574 0.0
H159 H 0.96197 0.46852 0.43763 0.0
C160 C 0.97663 0.45912 0.45252 0.0
C161 C 0.11262 0.57499 0.46042 0.0
C162 C 0.1475 0.61321 0.44542 0.0
C163 C 1.07264 0.53092 0.44692 0.0
C164 C 1.06971 0.52552 0.41837 0.0
C165 C 0.10494 0.5633 0.40326 0.0
C166 C 0.1439 0.60661 0.41711 0.0
N167 N 1.03364 0.49236 0.46179 0.0
H168 H 0.60777 0.04668 0.80048 0.0
H169 H 0.60292 0.97869 0.72556 0.0
H170 H 0.59099 0.08258 0.72479 0.0
H171 H 0.55524 0.91883 0.75122 0.0
C172 C 0.57956 0.93394 0.77018 0.0
C173 C 0.60393 0.04173 0.77862 0.0
C174 C 0.60175 0.06988 0.76408 0.0
C175 C 0.60158 1.00724 0.76496 0.0
C176 C 0.60033 1.00276 0.73635 0.0
C177 C 0.59803 0.03081 0.72163 0.0
C178 C 0.59601 0.06254 0.73585 0.0
N179 N 0.6025 0.97858 0.78037 0.0
H180 H 0.59859 0.51522 0.13568 0.0
H181 H 0.63901 0.5187 0.05348 0.0
H182 H 0.47581 0.46803 0.07203 0.0
H183 H 0.70695 0.51903 0.08351 0.0
C184 C 0.71404 0.54142 0.10099 0.0
C185 C 0.58449 0.50745 0.11479 0.0
C186 C 0.53144 0.49159 0.10722 0.0
C187 C 0.62378 0.52073 0.0954 0.0
C188 C 0.60767 0.50792 0.06837 0.0
C189 C 0.55296 0.48612 0.06033 0.0
C190 C 0.51512 0.47901 0.07945 0.0
N191 N 0.68069 0.5534 0.10303 0.0
H192 H 0.41509 0.62688 0.11545 0.0
H193 H 0.57477 0.54982 0.15518 0.0
H194 H 0.50235 0.67352 0.19317 0.0
H195 H 0.42315 0.46149 0.1043 0.0
H196 H 0.55173 0.59538 0.16985 0.0
H197 H 0.43198 0.57458 0.1073 0.0
C198 C 0.4401 0.62788 0.13047 0.0
C199 C 0.45428 0.65265 0.15605 0.0
C200 C 0.52317 0.56566 0.1557 0.0
C201 C 0.47353 0.59273 0.14644 0.0
C202 C 0.53586 0.53855 0.14711 0.0
C203 C 0.50378 0.50333 0.12596 0.0
C204 C 0.47826 0.55762 0.14328 0.0
C205 C 0.4524 0.49078 0.11849 0.0
C206 C 0.44793 0.59667 0.12601 0.0
C207 C 0.48901 0.6538 0.17368 0.0
N208 N 0.44226 0.5192 0.12625 0.0
N209 N 0.496 0.62284 0.16896 0.0
H210 H 0.67702 0.18117 0.44667 0.0
H211 H 0.98134 0.41651 0.49396 0.0
H212 H 0.77417 0.18499 0.50796 0.0
H213 H 0.88169 0.39122 0.42517 0.0
H214 H 0.90899 0.33489 0.50228 0.0
H215 H 0.75356 0.26058 0.44134 0.0
C216 C 0.71465 0.19893 0.4592 0.0
C217 C 0.71891 0.17634 0.47792 0.0
C218 C 0.90348 0.34742 0.48531 0.0
C219 C 0.8084 0.26885 0.47186 0.0
C220 C 0.94466 0.39386 0.48056 0.0
C221 C 0.93729 0.41066 0.45885 0.0
C222 C 0.85524 0.3181 0.46812 0.0
C223 C 0.88901 0.37999 0.44223 0.0
C224 C 0.75881 0.24457 0.45606 0.0
C225 C 0.76932 0.2012 0.49322 0.0
N226 N 0.85029 0.33568 0.4472 0.0
N227 N 0.81222 0.24642 0.49001 0.0
H228 H 0.6057 0.76301 0.85691 0.0
H229 H 0.62195 0.9018 0.74165 0.0
H230 H 0.65597 0.76374 0.77524 0.0
H231 H 0.57877 0.91525 0.82253 0.0
H232 H 0.64239 0.85598 0.75651 0.0
H233 H 0.59985 0.82141 0.84755 0.0
C234 C 0.61528 0.77531 0.83708 0.0
C235 C 0.63012 0.75782 0.81659 0.0
C236 C 0.62863 0.86883 0.77126 0.0
C237 C 0.62468 0.82454 0.80602 0.0
C238 C 0.61713 0.89509 0.76269 0.0
C239 C 0.59829 0.91161 0.78085 0.0
C240 C 0.6196 0.85771 0.79812 0.0
C241 C 0.59321 0.9027 0.808 0.0
C242 C 0.61217 0.80863 0.83181 0.0
C243 C 0.64272 0.77513 0.79139 0.0
N244 N 0.60292 0.87547 0.81585 0.0
N245 N 0.63964 0.80727 0.7869 0.0
H246 H 0.7872 0.4276 0.17582 0.0
H247 H 0.7999 0.60263 0.13674 0.0
H248 H 0.887 0.55719 0.22395 0.0
H249 H 0.64721 0.46301 0.12418 0.0
H250 H 0.81689 0.58662 0.1797 0.0
H251 H 0.71419 0.43156 0.17159 0.0
C252 C 0.79198 0.45538 0.18696 0.0
C253 C 0.84277 0.49231 0.19987 0.0
C254 C 0.77885 0.55957 0.16796 0.0
C255 C 0.76321 0.4998 0.19268 0.0
C256 C 0.77028 0.56854 0.14322 0.0
C257 C 0.7249 0.53291 0.12648 0.0
C258 C 0.74181 0.51449 0.17538 0.0
C259 C 0.68501 0.49017 0.13603 0.0
C260 C 0.75074 0.45824 0.18431 0.0
C261 C 0.84793 0.52817 0.21365 0.0
N262 N 0.69487 0.48178 0.15979 0.0
N263 N 0.8097 0.53232 0.20856 0.0
H264 H 0.45839 0.8804 0.49957 0.0
H265 H 0.14976 0.68181 0.43553 0.0
H266 H 0.37234 0.90058 0.44624 0.0
H267 H 0.23594 0.6542 0.48225 0.0
H268 H 0.22678 0.76334 0.44523 0.0
H269 H 0.37508 0.79931 0.4983 0.0
C270 C 0.4221 0.86777 0.48748 0.0
C271 C 0.42262 0.89735 0.47276 0.0
C272 C 0.22878 0.73972 0.45383 0.0
C273 C 0.32679 0.80456 0.47149 0.0
C274 C 0.18448 0.69308 0.44848 0.0
C275 C 0.18667 0.66119 0.4579 0.0
C276 C 0.27605 0.75508 0.46886 0.0
C277 C 0.23265 0.67767 0.47459 0.0
C278 C 0.37442 0.82149 0.48692 0.0
C279 C 0.37393 0.8792 0.45794 0.0
N280 N 0.276 0.7236 0.47927 0.0
N281 N 0.32829 0.83407 0.45757 0.0
H282 H 0.54564 0.24131 0.8511 0.0
H283 H 0.66589 0.15549 0.74867 0.0
H284 H 0.61653 0.29417 0.77466 0.0
H285 H 0.55176 0.07269 0.80985 0.0
H286 H 0.66399 0.21532 0.76492 0.0
H287 H 0.56219 0.18745 0.84254 0.0
C288 C 0.56518 0.24188 0.83269 0.0
C289 C 0.57935 0.27192 0.81342 0.0
C290 C 0.63966 0.18431 0.77502 0.0
C291 C 0.59835 0.21097 0.80368 0.0
C292 C 0.64065 0.15006 0.76573 0.0
C293 C 0.60761 0.10856 0.77743 0.0
C294 C 0.60583 0.17746 0.79644 0.0
C295 C 0.57724 0.10402 0.80006 0.0
C296 C 0.57428 0.21107 0.8278 0.0
C297 C 0.60422 0.27117 0.78987 0.0
N298 N 0.57648 0.138 0.8087 0.0
N299 N 0.61276 0.24114 0.78566 0.0
H300 H 0.5664 0.81815 0.52514 0.0
H301 H 0.58598 0.62691 0.4765 0.0
H302 H 0.56809 0.78299 0.4404 0.0
H303 H 0.56086 0.65708 0.55794 0.0
H304 H 0.5852 0.68568 0.46165 0.0
H305 H 0.56699 0.75946 0.53628 0.0
C306 C 0.56541 0.79729 0.5087 0.0
C307 C 0.56653 0.80543 0.48172 0.0
C308 C 0.58011 0.67941 0.48274 0.0
C309 C 0.56925 0.73822 0.49461 0.0
C310 C 0.58091 0.64627 0.4912 0.0
C311 C 0.5729 0.63727 0.5184 0.0
C312 C 0.57207 0.70357 0.50185 0.0
C313 C 0.56635 0.66275 0.53674 0.0
C314 C 0.56663 0.76397 0.51516 0.0
C315 C 0.56747 0.77805 0.46151 0.0
N316 N 0.56615 0.6947 0.52814 0.0
N317 N 0.56902 0.74561 0.46837 0.0
H318 H 0.79543 0.57493 0.86349 0.0
H319 H 0.96709 0.49098 0.81103 0.0
H320 H 0.74237 0.48413 0.79134 0.0
H321 H 1.00609 0.57636 0.88441 0.0
H322 H 0.88962 0.49024 0.80113 0.0
H323 H 0.8731 0.57569 0.87005 0.0
C324 C 0.8003 0.55556 0.84869 0.0
C325 C 0.76142 0.52984 0.82658 0.0
C326 C 0.91493 0.50881 0.81955 0.0
C327 C 0.8534 0.53094 0.83392 0.0
C328 C 0.96008 0.5096 0.82517 0.0
C329 C 0.99421 0.5327 0.84921 0.0
C330 C 0.90265 0.53135 0.83791 0.0
C331 C 0.98125 0.55632 0.8661 0.0
C332 C 0.84513 0.55588 0.85252 0.0
C333 C 0.77061 0.50471 0.80869 0.0
N334 N 0.93751 0.55463 0.86034 0.0
N335 N 0.81512 0.50618 0.81258 0.0
H336 H 0.25316 0.72859 0.13398 0.0
H337 H 0.56308 0.92744 0.19596 0.0
H338 H 0.34496 0.70346 0.17815 0.0
H339 H 0.47349 0.95258 0.15008 0.0
H340 H 0.48628 0.84536 0.18699 0.0
H341 H 0.33411 0.80978 0.13809 0.0
C342 C 0.29062 0.74002 0.14436 0.0
C343 C 0.29229 0.70869 0.15539 0.0
C344 C 0.48374 0.86858 0.17826 0.0
C345 C 0.386 0.80262 0.16012 0.0
C346 C 0.52797 0.91548 0.18305 0.0
C347 C 0.52522 0.94684 0.17322 0.0
C348 C 0.43588 0.85249 0.16348 0.0
C349 C 0.47786 0.92958 0.15748 0.0
C350 C 0.33699 0.78662 0.14665 0.0
C351 C 0.34203 0.72599 0.16877 0.0
N352 N 0.43486 0.88354 0.15324 0.0
N353 N 0.38679 0.77175 0.17081 0.0
H354 H 0.63096 0.29411 0.5184 0.0
H355 H 0.54659 0.44072 0.48946 0.0
H356 H 0.52757 0.2599 0.4488 0.0
H357 H 0.68288 0.48814 0.54349 0.0
H358 H 0.54059 0.37613 0.47212 0.0
H359 H 0.65129 0.36662 0.52676 0.0
C360 C 0.61295 0.30216 0.50474 0.0
C361 C 0.57743 0.27103 0.48297 0.0
C362 C 0.57237 0.40114 0.48745 0.0
C363 C 0.60017 0.3539 0.49243 0.0
C364 C 0.57598 0.43804 0.49722 0.0
C365 C 0.61481 0.46929 0.51817 0.0
C366 C 0.60766 0.39567 0.49892 0.0
C367 C 0.65169 0.46426 0.52767 0.0
C368 C 0.62471 0.34362 0.50942 0.0
C369 C 0.55544 0.28321 0.46574 0.0
N370 N 0.64674 0.42786 0.51823 0.0
N371 N 0.56658 0.32355 0.47103 0.0
H372 H 0.46467 0.51273 0.8706 0.0
H373 H 0.23573 0.51679 0.80122 0.0
H374 H 0.45939 0.51791 0.78497 0.0
H375 H 0.26501 0.52691 0.88659 0.0
H376 H 0.31313 0.51552 0.793 0.0
H377 H 0.38892 0.5153 0.87517 0.0
C378 C 0.44743 0.51405 0.85261 0.0
C379 C 0.46953 0.51511 0.82736 0.0
C380 C 0.30295 0.51849 0.81357 0.0
C381 C 0.37996 0.51786 0.83243 0.0
C382 C 0.2586 0.51963 0.8183 0.0
C383 C 0.24279 0.52244 0.84486 0.0
C384 C 0.33251 0.52012 0.83543 0.0
C385 C 0.27458 0.52486 0.86575 0.0
C386 C 0.40376 0.51568 0.85523 0.0
C387 C 0.44459 0.51724 0.80497 0.0
N388 N 0.31659 0.52357 0.86066 0.0
N389 N 0.40162 0.5183 0.80797 0.0
H390 H 1.01216 0.40017 0.11813 0.0
H391 H 0.75725 0.23879 0.21404 0.0
H392 H 0.96416 0.44665 0.18437 0.0
H393 H 0.777 0.18261 0.1409 0.0
H394 H 0.84088 0.31461 0.20499 0.0
H395 H 0.9329 0.32057 0.12669 0.0
C396 C 0.98469 0.39363 0.1343 0.0
C397 C 0.99416 0.43015 0.15024 0.0
C398 C 0.82729 0.28599 0.19075 0.0
C399 C 0.90465 0.33944 0.16059 0.0
C400 C 0.77942 0.2425 0.19597 0.0
C401 C 0.75967 0.20434 0.17808 0.0
C402 C 0.85608 0.29213 0.16715 0.0
C403 C 0.79068 0.2112 0.15518 0.0
C404 C 0.93968 0.34824 0.13922 0.0
C405 C 0.95782 0.41975 0.17112 0.0
N406 N 0.83727 0.25445 0.1502 0.0
N407 N 0.91515 0.37561 0.17572 0.0
H408 H 0.19626 0.62977 0.06853 0.0
H409 H 1.01407 0.47152 0.93397 0.0
H410 H 1.0484 0.48842 0.06851 0.0
H411 H 0.17319 0.60727 0.93317 0.0
H412 H 1.02626 0.47656 0.98313 0.0
H413 H 0.1906 0.62166 0.01896 0.0
C414 C 0.16357 0.59664 0.05797 0.0
C415 C 0.12361 0.55938 0.07248 0.0
C416 C 1.05852 0.50533 0.97226 0.0
C417 C 0.1152 0.55013 0.01581 0.0
C418 C 1.05133 0.50252 0.94426 0.0
C419 C 0.09256 0.53911 0.92961 0.0
C420 C 0.10702 0.54529 0.98581 0.0
C421 C 0.14046 0.57832 0.94379 0.0
C422 C 0.15993 0.59209 0.02969 0.0
C423 C 0.08079 0.51763 0.05796 0.0
N424 N 0.14624 0.58049 0.97107 0.0
N425 N 0.07749 0.51417 0.03044 0.0
H426 H 0.50905 0.9734 0.39323 0.0
H427 H 0.63416 0.11667 0.26472 0.0
H428 H 0.65411 0.11667 0.40031 0.0
H429 H 0.55712 0.97455 0.26246 0.0
H430 H 0.62735 0.11882 0.3139 0.0
H431 H 0.50763 0.97468 0.34396 0.0
C432 C 0.53948 1.00534 0.38441 0.0
C433 C 0.58172 0.04502 0.40055 0.0
C434 C 0.61137 0.08716 0.30237 0.0
C435 C 0.58061 0.04678 0.34473 0.0
C436 C 0.6157 0.0859 0.27429 0.0
C437 C 0.59536 0.04512 0.25894 0.0
C438 C 0.58539 0.04718 0.31512 0.0
C439 C 0.57146 1.00642 0.27288 0.0
C440 C 0.53909 1.006 0.3564 0.0
C441 C 0.62099 0.08545 0.38829 0.0
N442 N 0.56671 0.00834 0.30002 0.0
N443 N 0.61961 0.08537 0.36103 0.0
H444 H 0.54402 0.44145 0.73149 0.0
H445 H 0.66756 0.61014 0.6148 0.0
H446 H 0.65922 0.58753 0.75006 0.0
H447 H 0.53969 0.46352 0.60357 0.0
H448 H 0.66601 0.60568 0.66402 0.0
H449 H 0.54625 0.45155 0.68406 0.0
C450 C 0.57019 0.47587 0.72548 0.0
C451 C 0.60147 0.5137 0.74473 0.0
C452 C 0.63828 0.57462 0.6507 0.0
C453 C 0.60351 0.52581 0.69001 0.0
C454 C 0.63889 0.57715 0.6227 0.0
C455 C 0.60469 0.537 0.6051 0.0
C456 C 0.60315 0.53164 0.66091 0.0
C457 C 0.56794 0.49521 0.61633 0.0
C458 C 0.57123 0.48168 0.69831 0.0
C459 C 0.6349 0.5575 0.73578 0.0
N460 N 0.56855 0.49366 0.64336 0.0
N461 N 0.63485 0.56246 0.70894 0.0
H462 H 0.61049 0.10419 0.56233 0.0
H463 H 0.54614 0.9557 0.68364 0.0
H464 H 0.52593 0.96091 0.54917 0.0
H465 H 0.65445 0.10275 0.69086 0.0
H466 H 0.54087 0.95558 0.63439 0.0
H467 H 0.62734 0.10331 0.60986 0.0
C468 C 0.59623 0.07271 0.56952 0.0
C469 C 0.56702 0.03263 0.5521 0.0
C470 C 0.56585 0.9878 0.64685 0.0
C471 C 0.58594 0.03102 0.60631 0.0
C472 C 0.56915 0.9879 0.67494 0.0
C473 C 0.59948 0.0292 0.69157 0.0
C474 C 0.59289 0.02925 0.63546 0.0
C475 C 0.62885 0.0699 0.67906 0.0
C476 C 0.60573 0.07207 0.5966 0.0
C477 C 0.54851 0.99242 0.56225 0.0
N478 N 0.62418 0.06881 0.65195 0.0
N479 N 0.55817 0.99253 0.58878 0.0
H480 H 0.61122 0.46681 0.89491 0.0
H481 H 0.55185 0.54343 0.03459 0.0
H482 H 0.61197 0.57876 0.9061 0.0
H483 H 0.53798 0.42495 0.02185 0.0
H484 H 0.56646 0.55347 0.98651 0.0
H485 H 0.57919 0.44806 0.94093 0.0
C486 C 0.60448 0.48726 0.90725 0.0
C487 C 0.61432 0.52437 0.89738 0.0
C488 C 0.55837 0.52436 0.99399 0.0
C489 C 0.5775 0.50333 0.9492 0.0
C490 C 0.54912 0.51827 0.02125 0.0
C491 C 0.54214 0.48257 0.0316 0.0
C492 C 0.56075 0.49451 0.97725 0.0
C493 C 0.54177 0.45207 0.01415 0.0
C494 C 0.58608 0.4766 0.93331 0.0
C495 C 0.60518 0.55016 0.91357 0.0
N496 N 0.55149 0.45894 0.98769 0.0
N497 N 0.58731 0.5392 0.93888 0.0
H498 H 0.15155 0.62204 0.23447 0.0
H499 H 0.08781 0.49561 0.36821 0.0
H500 H 0.09666 0.48693 0.23445 0.0
H501 H 0.11474 0.62011 0.36915 0.0
H502 H 0.09062 0.49226 0.31897 0.0
H503 H 0.13928 0.62331 0.28366 0.0
C504 C 0.13664 0.59263 0.24467 0.0
C505 C 0.12503 0.55431 0.23016 0.0
C506 C 0.09578 0.52031 0.32992 0.0
C507 C 0.11171 0.55572 0.28642 0.0
C508 C 0.09377 0.52203 0.35811 0.0
C509 C 0.10176 0.55849 0.37304 0.0
C510 C 0.10612 0.55539 0.31637 0.0
C511 C 0.10979 0.59192 0.35862 0.0
C512 C 0.12973 0.59336 0.27276 0.0
C513 C 0.1062 0.5173 0.24463 0.0
N514 N 0.1122 0.58977 0.33121 0.0
N515 N 0.1005 0.51905 0.27176 0.0
loop_
_geom_bond_atom_site_label_1
_geom_bond_atom_site_label_2
_geom_bond_distance
_geom_bond_site_symmetry_2
_ccdc_geom_bond_type
La0 C2 2.928 . S
La0 O20 2.521 . S
La0 O21 2.628 . S
La0 O22 2.554 . S
La0 O23 2.757 . S
La0 O24 2.470 . S
La0 O29 2.482 . S
La0 O31 2.503 . S
La1 C11 2.928 1_455 S
La1 O23 2.482 . S
La1 O25 2.503 . S
La1 O26 2.521 1_455 S
La1 O27 2.628 1_455 S
La1 O28 2.554 . S
La1 O29 2.757 . S
La1 O30 2.470 1_455 S
C2 La0 2.928 . S
C2 C3 1.503 . S
C2 O20 1.261 . S
C2 O21 1.243 . S
C3 C2 1.503 . S
C3 C4 1.394 . S
C3 C8 1.373 . S
C4 C3 1.394 . S
C4 C5 1.380 . S
C4 H32 0.930 . S
C5 C4 1.380 . S
C5 C6 1.376 . S
C5 H33 0.930 . S
C6 C5 1.376 . S
C6 C7 1.370 . S
C7 C6 1.370 . S
C7 C8 1.396 . S
C7 H34 0.929 . S
C8 C3 1.373 . S
C8 C7 1.396 . S
C8 H35 0.929 . S
C9 O22 1.240 . S
C9 O23 1.289 . S
C10 O24 1.258 . S
C10 O25 1.256 . S
C11 La1 2.928 1_655 S
C11 C12 1.503 . S
C11 O26 1.261 . S
C11 O27 1.243 . S
C12 C11 1.503 . S
C12 C13 1.394 . S
C12 C17 1.373 . S
C13 C12 1.394 . S
C13 C14 1.380 . S
C13 H36 0.930 . S
C14 C13 1.380 . S
C14 C15 1.376 . S
C14 H37 0.930 . S
C15 C14 1.376 . S
C15 C16 1.370 . S
C16 C15 1.370 . S
C16 C17 1.396 . S
C16 H38 0.929 . S
C17 C12 1.373 . S
C17 C16 1.396 . S
C17 H39 0.929 . S
C18 O28 1.240 . S
C18 O29 1.289 . S
C19 O30 1.258 . S
C19 O31 1.256 1_655 S
O20 La0 2.521 . S
O20 C2 1.261 . S
O21 La0 2.628 . S
O21 C2 1.243 . S
O22 La0 2.554 . S
O22 C9 1.240 . S
O23 La0 2.757 . S
O23 La1 2.482 . S
O23 C9 1.289 . S
O24 La0 2.470 . S
O24 C10 1.258 . S
O25 La1 2.503 . S
O25 C10 1.256 . S
O26 La1 2.521 1_655 S
O26 C11 1.261 . S
O27 La1 2.628 1_655 S
O27 C11 1.243 . S
O28 La1 2.554 . S
O28 C18 1.240 . S
O29 La0 2.482 . S
O29 La1 2.757 . S
O29 C18 1.289 . S
O30 La1 2.470 1_655 S
O30 C19 1.258 . S
O31 La0 2.503 . S
O31 C19 1.256 1_455 S
H32 C4 0.930 . S
H33 C5 0.930 . S
H34 C7 0.929 . S
H35 C8 0.929 . S
H36 C13 0.930 . S
H37 C14 0.930 . S
H38 C16 0.929 . S
H39 C17 0.929 . S
La40 C42 2.928 1_545 S
La40 O60 2.521 1_545 S
La40 O61 2.628 1_545 S
La40 O62 2.554 . S
La40 O63 2.757 . S
La40 O64 2.470 1_545 S
La40 O69 2.482 . S
La40 O71 2.503 . S
La41 C51 2.928 . S
La41 O63 2.482 . S
La41 O65 2.503 1_545 S
La41 O66 2.521 . S
La41 O67 2.628 . S
La41 O68 2.554 . S
La41 O69 2.757 . S
La41 O70 2.470 . S
C42 La40 2.928 1_565 S
C42 C43 1.503 . S
C42 O60 1.261 . S
C42 O61 1.243 . S
C43 C42 1.503 . S
C43 C44 1.394 . S
C43 C48 1.373 . S
C44 C43 1.394 . S
C44 C45 1.380 . S
C44 H72 0.930 . S
C45 C44 1.380 . S
C45 C46 1.376 . S
C45 H73 0.930 . S
C46 C45 1.376 . S
C46 C47 1.370 . S
C47 C46 1.370 . S
C47 C48 1.396 . S
C47 H74 0.929 . S
C48 C43 1.373 . S
C48 C47 1.396 . S
C48 H75 0.929 . S
C49 O62 1.240 . S
C49 O63 1.289 . S
C50 O64 1.258 . S
C50 O65 1.256 . S
C51 La41 2.928 . S
C51 C52 1.503 . S
C51 O66 1.261 . S
C51 O67 1.243 . S
C52 C51 1.503 . S
C52 C53 1.394 . S
C52 C57 1.373 . S
C53 C52 1.394 . S
C53 C54 1.380 . S
C53 H76 0.930 . S
C54 C53 1.380 . S
C54 C55 1.376 . S
C54 H77 0.930 . S
C55 C54 1.376 . S
C55 C56 1.370 . S
C56 C55 1.370 . S
C56 C57 1.396 . S
C56 H78 0.929 . S
C57 C52 1.373 . S
C57 C56 1.396 . S
C57 H79 0.929 . S
C58 O68 1.240 . S
C58 O69 1.289 . S
C59 O70 1.258 . S
C59 O71 1.256 . S
O60 La40 2.521 1_565 S
O60 C42 1.261 . S
O61 La40 2.628 1_565 S
O61 C42 1.243 . S
O62 La40 2.554 . S
O62 C49 1.240 . S
O63 La40 2.757 . S
O63 La41 2.482 . S
O63 C49 1.289 . S
O64 La40 2.470 1_565 S
O64 C50 1.258 . S
O65 La41 2.503 1_565 S
O65 C50 1.256 . S
O66 La41 2.521 . S
O66 C51 1.261 . S
O67 La41 2.628 . S
O67 C51 1.243 . S
O68 La41 2.554 . S
O68 C58 1.240 . S
O69 La40 2.482 . S
O69 La41 2.757 . S
O69 C58 1.289 . S
O70 La41 2.470 . S
O70 C59 1.258 . S
O71 La40 2.503 . S
O71 C59 1.256 . S
H72 C44 0.930 . S
H73 C45 0.930 . S
H74 C47 0.929 . S
H75 C48 0.929 . S
H76 C53 0.930 . S
H77 C54 0.930 . S
H78 C56 0.929 . S
H79 C57 0.929 . S
La80 C82 2.928 . S
La80 O100 2.521 . S
La80 O101 2.628 . S
La80 O102 2.554 . S
La80 O103 2.757 . S
La80 O104 2.470 . S
La80 O109 2.482 . S
La80 O111 2.503 . S
La81 C91 2.928 . S
La81 O103 2.482 . S
La81 O105 2.503 . S
La81 O106 2.521 . S
La81 O107 2.628 . S
La81 O108 2.554 . S
La81 O109 2.757 . S
La81 O110 2.470 . S
C82 La80 2.928 . S
C82 C83 1.503 . S
C82 O100 1.261 . S
C82 O101 1.243 . S
C83 C82 1.503 . S
C83 C84 1.394 . S
C83 C88 1.373 . S
C84 C83 1.394 . S
C84 C85 1.380 . S
C84 H112 0.930 . S
C85 C84 1.380 . S
C85 C86 1.376 . S
C85 H113 0.930 . S
C86 C85 1.376 . S
C86 C87 1.370 . S
C87 C86 1.370 . S
C87 C88 1.396 . S
C87 H114 0.929 . S
C88 C83 1.373 . S
C88 C87 1.396 . S
C88 H115 0.929 . S
C89 O102 1.240 . S
C89 O103 1.289 . S
C90 O104 1.258 . S
C90 O105 1.256 . S
C91 La81 2.928 . S
C91 C92 1.503 . S
C91 O106 1.261 . S
C91 O107 1.243 . S
C92 C91 1.503 . S
C92 C93 1.394 . S
C92 C97 1.373 . S
C93 C92 1.394 . S
C93 C94 1.380 . S
C93 H116 0.930 . S
C94 C93 1.380 . S
C94 C95 1.376 . S
C94 H117 0.930 . S
C95 C94 1.376 . S
C95 C96 1.370 . S
C96 C95 1.370 . S
C96 C97 1.396 . S
C96 H118 0.929 . S
C97 C92 1.373 . S
C97 C96 1.396 . S
C97 H119 0.929 . S
C98 O108 1.240 . S
C98 O109 1.289 . S
C99 O110 1.258 . S
C99 O111 1.256 . S
O100 La80 2.521 . S
O100 C82 1.261 . S
O101 La80 2.628 . S
O101 C82 1.243 . S
O102 La80 2.554 . S
O102 C89 1.240 . S
O103 La80 2.757 . S
O103 La81 2.482 . S
O103 C89 1.289 . S
O104 La80 2.470 . S
O104 C90 1.258 . S
O105 La81 2.503 . S
O105 C90 1.256 . S
O106 La81 2.521 . S
O106 C91 1.261 . S
O107 La81 2.628 . S
O107 C91 1.243 . S
O108 La81 2.554 . S
O108 C98 1.240 . S
O109 La80 2.482 . S
O109 La81 2.757 . S
O109 C98 1.289 . S
O110 La81 2.470 . S
O110 C99 1.258 . S
O111 La80 2.503 . S
O111 C99 1.256 . S
H112 C84 0.930 . S
H113 C85 0.930 . S
H114 C87 0.929 . S
H115 C88 0.929 . S
H116 C93 0.930 . S
H117 C94 0.930 . S
H118 C96 0.929 . S
H119 C97 0.929 . S
H120 C125 0.930 . S
H121 C128 0.930 . S
H122 C130 0.930 1_565 S
H123 C124 1.016 . S
C124 H123 1.016 . S
C124 N131 1.286 . S
C125 H120 0.930 . S
C125 C126 1.397 1_545 S
C125 C127 1.361 . S
C126 C125 1.397 1_565 S
C126 C130 1.390 1_565 S
C127 C125 1.361 . S
C127 C128 1.393 . S
C127 N131 1.413 . S
C128 H121 0.930 . S
C128 C127 1.393 . S
C128 C129 1.399 . S
C129 C128 1.399 . S
C129 C130 1.381 . S
C130 H122 0.930 1_545 S
C130 C126 1.390 1_545 S
C130 C129 1.381 . S
N131 C124 1.286 . S
N131 C127 1.413 . S
H132 C137 0.930 . S
H133 C140 0.930 . S
H134 C142 0.930 . S
H135 C136 1.016 . S
C136 H135 1.016 . S
C136 N143 1.286 . S
C137 H132 0.930 . S
C137 C138 1.397 . S
C137 C139 1.361 . S
C138 C137 1.397 . S
C138 C142 1.390 . S
C139 C137 1.361 . S
C139 C140 1.393 . S
C139 N143 1.413 . S
C140 H133 0.930 . S
C140 C139 1.393 . S
C140 C141 1.399 . S
C141 C140 1.399 . S
C141 C142 1.381 . S
C142 H134 0.930 . S
C142 C138 1.390 . S
C142 C141 1.381 . S
N143 C136 1.286 . S
N143 C139 1.413 . S
H144 C149 0.930 . S
H145 C152 0.930 . S
H146 C154 0.930 1_655 S
H147 C148 1.016 . S
C148 H147 1.016 . S
C148 N155 1.286 . S
C149 H144 0.930 . S
C149 C150 1.397 1_455 S
C149 C151 1.361 . S
C150 C149 1.397 1_655 S
C150 C154 1.390 1_655 S
C151 C149 1.361 . S
C151 C152 1.393 . S
C151 N155 1.413 . S
C152 H145 0.930 . S
C152 C151 1.393 . S
C152 C153 1.399 . S
C153 C152 1.399 . S
C153 C154 1.381 . S
C154 H146 0.930 1_455 S
C154 C150 1.390 1_455 S
C154 C153 1.381 . S
N155 C148 1.286 . S
N155 C151 1.413 . S
H156 C161 0.930 . S
H157 C164 0.930 . S
H158 C166 0.930 . S
H159 C160 1.016 . S
C160 H159 1.016 . S
C160 N167 1.286 . S
C161 H156 0.930 . S
C161 C162 1.397 . S
C161 C163 1.361 1_455 S
C162 C161 1.397 . S
C162 C166 1.390 . S
C163 C161 1.361 1_655 S
C163 C164 1.393 . S
C163 N167 1.413 . S
C164 H157 0.930 . S
C164 C163 1.393 . S
C164 C165 1.399 1_655 S
C165 C164 1.399 1_455 S
C165 C166 1.381 . S
C166 H158 0.930 . S
C166 C162 1.390 . S
C166 C165 1.381 . S
N167 C160 1.286 . S
N167 C163 1.413 . S
H168 C173 0.930 . S
H169 C176 0.900 1_565 S
H170 C178 0.930 . S
H171 C172 1.016 . S
C172 H171 1.016 . S
C172 N179 1.286 . S
C173 H168 0.930 . S
C173 C174 1.397 . S
C173 C175 1.361 . S
C174 C173 1.397 . S
C174 C178 1.390 . S
C175 C173 1.361 . S
C175 C176 1.394 . S
C175 N179 1.413 1_545 S
C176 H169 0.900 1_545 S
C176 C175 1.394 . S
C176 C177 1.428 . S
C177 C176 1.428 . S
C177 C178 1.381 . S
C178 H170 0.930 . S
C178 C174 1.390 . S
C178 C177 1.381 . S
N179 C172 1.286 . S
N179 C175 1.413 1_565 S
H180 C185 0.930 . S
H181 C188 0.930 . S
H182 C190 0.930 . S
H183 C184 1.016 . S
C184 H183 1.016 . S
C184 N191 1.286 . S
C185 H180 0.930 . S
C185 C186 1.397 . S
C185 C187 1.361 . S
C186 C185 1.397 . S
C186 C190 1.390 . S
C187 C185 1.361 . S
C187 C188 1.393 . S
C187 N191 1.413 . S
C188 H181 0.930 . S
C188 C187 1.393 . S
C188 C189 1.399 . S
C189 C188 1.399 . S
C189 C190 1.381 . S
C190 H182 0.930 . S
C190 C186 1.390 . S
C190 C189 1.381 . S
N191 C184 1.286 . S
N191 C187 1.413 . S
H192 C198 0.930 . S
H193 C202 0.930 . S
H194 C207 0.929 . S
H195 C205 0.929 . S
H196 C200 0.929 . S
H197 C206 0.929 . S
C198 H192 0.930 . S
C198 C199 1.367 . S
C198 C206 1.378 . S
C199 C198 1.367 . S
C199 C207 1.433 . S
C200 H196 0.929 . S
C200 C202 1.378 . S
C200 C204 1.350 . S
C201 C204 1.463 . S
C201 C206 1.350 . S
C201 N209 1.427 . S
C202 H193 0.930 . S
C202 C200 1.378 . S
C202 C203 1.367 . S
C203 C202 1.367 . S
C203 C205 1.433 . S
C204 C200 1.350 . S
C204 C201 1.463 . S
C204 N208 1.427 . S
C205 H195 0.929 . S
C205 C203 1.433 . S
C205 N208 1.384 . S
C206 H197 0.929 . S
C206 C198 1.378 . S
C206 C201 1.350 . S
C207 H194 0.929 . S
C207 C199 1.433 . S
C207 N209 1.384 . S
N208 C204 1.427 . S
N208 C205 1.384 . S
N209 C201 1.427 . S
N209 C207 1.384 . S
H210 C216 0.930 . S
H211 C220 0.930 . S
H212 C225 0.929 . S
H213 C223 0.929 . S
H214 C218 0.929 . S
H215 C224 0.929 . S
C216 H210 0.930 . S
C216 C217 1.367 . S
C216 C224 1.378 . S
C217 C216 1.367 . S
C217 C225 1.433 . S
C218 H214 0.929 . S
C218 C220 1.378 . S
C218 C222 1.350 . S
C219 C222 1.463 . S
C219 C224 1.350 . S
C219 N227 1.427 . S
C220 H211 0.930 . S
C220 C218 1.378 . S
C220 C221 1.367 . S
C221 C220 1.367 . S
C221 C223 1.433 . S
C222 C218 1.350 . S
C222 C219 1.463 . S
C222 N226 1.427 . S
C223 H213 0.929 . S
C223 C221 1.433 . S
C223 N226 1.384 . S
C224 H215 0.929 . S
C224 C216 1.378 . S
C224 C219 1.350 . S
C225 H212 0.929 . S
C225 C217 1.433 . S
C225 N227 1.384 . S
N226 C222 1.427 . S
N226 C223 1.384 . S
N227 C219 1.427 . S
N227 C225 1.384 . S
H228 C234 0.930 . S
H229 C238 0.930 . S
H230 C243 0.929 . S
H231 C241 0.929 . S
H232 C236 0.929 . S
H233 C242 0.929 . S
C234 H228 0.930 . S
C234 C235 1.367 . S
C234 C242 1.378 . S
C235 C234 1.367 . S
C235 C243 1.433 . S
C236 H232 0.929 . S
C236 C238 1.378 . S
C236 C240 1.350 . S
C237 C240 1.463 . S
C237 C242 1.350 . S
C237 N245 1.427 . S
C238 H229 0.930 . S
C238 C236 1.378 . S
C238 C239 1.367 . S
C239 C238 1.367 . S
C239 C241 1.433 . S
C240 C236 1.350 . S
C240 C237 1.463 . S
C240 N244 1.427 . S
C241 H231 0.929 . S
C241 C239 1.433 . S
C241 N244 1.384 . S
C242 H233 0.929 . S
C242 C234 1.378 . S
C242 C237 1.350 . S
C243 H230 0.929 . S
C243 C235 1.433 . S
C243 N245 1.384 . S
N244 C240 1.427 . S
N244 C241 1.384 . S
N245 C237 1.427 . S
N245 C243 1.384 . S
H246 C252 0.930 . S
H247 C256 0.930 . S
H248 C261 0.929 . S
H249 C259 0.929 . S
H250 C254 0.929 . S
H251 C260 0.929 . S
C252 H246 0.930 . S
C252 C253 1.367 . S
C252 C260 1.378 . S
C253 C252 1.367 . S
C253 C261 1.433 . S
C254 H250 0.929 . S
C254 C256 1.378 . S
C254 C258 1.350 . S
C255 C258 1.463 . S
C255 C260 1.350 . S
C255 N263 1.427 . S
C256 H247 0.930 . S
C256 C254 1.378 . S
C256 C257 1.367 . S
C257 C256 1.367 . S
C257 C259 1.433 . S
C258 C254 1.350 . S
C258 C255 1.463 . S
C258 N262 1.427 . S
C259 H249 0.929 . S
C259 C257 1.433 . S
C259 N262 1.384 . S
C260 H251 0.929 . S
C260 C252 1.378 . S
C260 C255 1.350 . S
C261 H248 0.929 . S
C261 C253 1.433 . S
C261 N263 1.384 . S
N262 C258 1.427 . S
N262 C259 1.384 . S
N263 C255 1.427 . S
N263 C261 1.384 . S
H264 C270 0.930 . S
H265 C274 0.930 . S
H266 C279 0.929 . S
H267 C277 0.929 . S
H268 C272 0.929 . S
H269 C278 0.929 . S
C270 H264 0.930 . S
C270 C271 1.367 . S
C270 C278 1.378 . S
C271 C270 1.367 . S
C271 C279 1.433 . S
C272 H268 0.929 . S
C272 C274 1.378 . S
C272 C276 1.350 . S
C273 C276 1.463 . S
C273 C278 1.350 . S
C273 N281 1.427 . S
C274 H265 0.930 . S
C274 C272 1.378 . S
C274 C275 1.367 . S
C275 C274 1.367 . S
C275 C277 1.433 . S
C276 C272 1.350 . S
C276 C273 1.463 . S
C276 N280 1.427 . S
C277 H267 0.929 . S
C277 C275 1.433 . S
C277 N280 1.384 . S
C278 H269 0.929 . S
C278 C270 1.378 . S
C278 C273 1.350 . S
C279 H266 0.929 . S
C279 C271 1.433 . S
C279 N281 1.384 . S
N280 C276 1.427 . S
N280 C277 1.384 . S
N281 C273 1.427 . S
N281 C279 1.384 . S
H282 C288 0.930 . S
H283 C292 0.930 . S
H284 C297 0.929 . S
H285 C295 0.929 . S
H286 C290 0.929 . S
H287 C296 0.929 . S
C288 H282 0.930 . S
C288 C289 1.367 . S
C288 C296 1.378 . S
C289 C288 1.367 . S
C289 C297 1.433 . S
C290 H286 0.929 . S
C290 C292 1.378 . S
C290 C294 1.350 . S
C291 C294 1.463 . S
C291 C296 1.350 . S
C291 N299 1.427 . S
C292 H283 0.930 . S
C292 C290 1.378 . S
C292 C293 1.367 . S
C293 C292 1.367 . S
C293 C295 1.433 . S
C294 C290 1.350 . S
C294 C291 1.463 . S
C294 N298 1.427 . S
C295 H285 0.929 . S
C295 C293 1.433 . S
C295 N298 1.384 . S
C296 H287 0.929 . S
C296 C288 1.378 . S
C296 C291 1.350 . S
C297 H284 0.929 . S
C297 C289 1.433 . S
C297 N299 1.384 . S
N298 C294 1.427 . S
N298 C295 1.384 . S
N299 C291 1.427 . S
N299 C297 1.384 . S
H300 C306 0.930 . S
H301 C310 0.930 . S
H302 C315 0.929 . S
H303 C313 0.929 . S
H304 C308 0.929 . S
H305 C314 0.929 . S
C306 H300 0.930 . S
C306 C307 1.367 . S
C306 C314 1.378 . S
C307 C306 1.367 . S
C307 C315 1.433 . S
C308 H304 0.929 . S
C308 C310 1.378 . S
C308 C312 1.350 . S
C309 C312 1.463 . S
C309 C314 1.350 . S
C309 N317 1.427 . S
C310 H301 0.930 . S
C310 C308 1.378 . S
C310 C311 1.367 . S
C311 C310 1.367 . S
C311 C313 1.433 . S
C312 C308 1.350 . S
C312 C309 1.463 . S
C312 N316 1.427 . S
C313 H303 0.929 . S
C313 C311 1.433 . S
C313 N316 1.384 . S
C314 H305 0.929 . S
C314 C306 1.378 . S
C314 C309 1.350 . S
C315 H302 0.929 . S
C315 C307 1.433 . S
C315 N317 1.384 . S
N316 C312 1.427 . S
N316 C313 1.384 . S
N317 C309 1.427 . S
N317 C315 1.384 . S
H318 C324 0.930 . S
H319 C328 0.930 . S
H320 C333 0.929 . S
H321 C331 0.929 . S
H322 C326 0.929 . S
H323 C332 0.929 . S
C324 H318 0.930 . S
C324 C325 1.367 . S
C324 C332 1.378 . S
C325 C324 1.367 . S
C325 C333 1.433 . S
C326 H322 0.929 . S
C326 C328 1.378 . S
C326 C330 1.350 . S
C327 C330 1.463 . S
C327 C332 1.350 . S
C327 N335 1.427 . S
C328 H319 0.930 . S
C328 C326 1.378 . S
C328 C329 1.367 . S
C329 C328 1.367 . S
C329 C331 1.433 . S
C330 C326 1.350 . S
C330 C327 1.463 . S
C330 N334 1.427 . S
C331 H321 0.929 . S
C331 C329 1.433 . S
C331 N334 1.384 . S
C332 H323 0.929 . S
C332 C324 1.378 . S
C332 C327 1.350 . S
C333 H320 0.929 . S
C333 C325 1.433 . S
C333 N335 1.384 . S
N334 C330 1.427 . S
N334 C331 1.384 . S
N335 C327 1.427 . S
N335 C333 1.384 . S
H336 C342 0.930 . S
H337 C346 0.930 . S
H338 C351 0.929 . S
H339 C349 0.929 . S
H340 C344 0.929 . S
H341 C350 0.929 . S
C342 H336 0.930 . S
C342 C343 1.367 . S
C342 C350 1.378 . S
C343 C342 1.367 . S
C343 C351 1.433 . S
C344 H340 0.929 . S
C344 C346 1.378 . S
C344 C348 1.350 . S
C345 C348 1.463 . S
C345 C350 1.350 . S
C345 N353 1.427 . S
C346 H337 0.930 . S
C346 C344 1.378 . S
C346 C347 1.367 . S
C347 C346 1.367 . S
C347 C349 1.433 . S
C348 C344 1.350 . S
C348 C345 1.463 . S
C348 N352 1.427 . S
C349 H339 0.929 . S
C349 C347 1.433 . S
C349 N352 1.384 . S
C350 H341 0.929 . S
C350 C342 1.378 . S
C350 C345 1.350 . S
C351 H338 0.929 . S
C351 C343 1.433 . S
C351 N353 1.384 . S
N352 C348 1.427 . S
N352 C349 1.384 . S
N353 C345 1.427 . S
N353 C351 1.384 . S
H354 C360 0.930 . S
H355 C364 0.930 . S
H356 C369 0.929 . S
H357 C367 0.929 . S
H358 C362 0.929 . S
H359 C368 0.929 . S
C360 H354 0.930 . S
C360 C361 1.367 . S
C360 C368 1.378 . S
C361 C360 1.367 . S
C361 C369 1.433 . S
C362 H358 0.929 . S
C362 C364 1.378 . S
C362 C366 1.350 . S
C363 C366 1.463 . S
C363 C368 1.350 . S
C363 N371 1.427 . S
C364 H355 0.930 . S
C364 C362 1.378 . S
C364 C365 1.367 . S
C365 C364 1.367 . S
C365 C367 1.433 . S
C366 C362 1.350 . S
C366 C363 1.463 . S
C366 N370 1.427 . S
C367 H357 0.929 . S
C367 C365 1.433 . S
C367 N370 1.384 . S
C368 H359 0.929 . S
C368 C360 1.378 . S
C368 C363 1.350 . S
C369 H356 0.929 . S
C369 C361 1.433 . S
C369 N371 1.384 . S
N370 C366 1.427 . S
N370 C367 1.384 . S
N371 C363 1.427 . S
N371 C369 1.384 . S
H372 C378 0.930 . S
H373 C382 0.930 . S
H374 C387 0.929 . S
H375 C385 0.929 . S
H376 C380 0.929 . S
H377 C386 0.929 . S
C378 H372 0.930 . S
C378 C379 1.367 . S
C378 C386 1.378 . S
C379 C378 1.367 . S
C379 C387 1.433 . S
C380 H376 0.929 . S
C380 C382 1.378 . S
C380 C384 1.350 . S
C381 C384 1.463 . S
C381 C386 1.350 . S
C381 N389 1.427 . S
C382 H373 0.930 . S
C382 C380 1.378 . S
C382 C383 1.367 . S
C383 C382 1.367 . S
C383 C385 1.433 . S
C384 C380 1.350 . S
C384 C381 1.463 . S
C384 N388 1.427 . S
C385 H375 0.929 . S
C385 C383 1.433 . S
C385 N388 1.384 . S
C386 H377 0.929 . S
C386 C378 1.378 . S
C386 C381 1.350 . S
C387 H374 0.929 . S
C387 C379 1.433 . S
C387 N389 1.384 . S
N388 C384 1.427 . S
N388 C385 1.384 . S
N389 C381 1.427 . S
N389 C387 1.384 . S
H390 C396 0.930 . S
H391 C400 0.930 . S
H392 C405 0.929 . S
H393 C403 0.929 . S
H394 C398 0.929 . S
H395 C404 0.929 . S
C396 H390 0.930 . S
C396 C397 1.367 . S
C396 C404 1.378 . S
C397 C396 1.367 . S
C397 C405 1.433 . S
C398 H394 0.929 . S
C398 C400 1.378 . S
C398 C402 1.350 . S
C399 C402 1.463 . S
C399 C404 1.350 . S
C399 N407 1.427 . S
C400 H391 0.930 . S
C400 C398 1.378 . S
C400 C401 1.367 . S
C401 C400 1.367 . S
C401 C403 1.433 . S
C402 C398 1.350 . S
C402 C399 1.463 . S
C402 N406 1.427 . S
C403 H393 0.929 . S
C403 C401 1.433 . S
C403 N406 1.384 . S
C404 H395 0.929 . S
C404 C396 1.378 . S
C404 C399 1.350 . S
C405 H392 0.929 . S
C405 C397 1.433 . S
C405 N407 1.384 . S
N406 C402 1.427 . S
N406 C403 1.384 . S
N407 C399 1.427 . S
N407 C405 1.384 . S
H408 C414 0.930 . S
H409 C418 0.930 1_655 S
H410 C423 0.929 1_655 S
H411 C421 0.929 . S
H412 C416 0.929 1_655 S
H413 C422 0.929 . S
C414 H408 0.930 . S
C414 C415 1.367 . S
C414 C422 1.378 . S
C415 C414 1.367 . S
C415 C423 1.433 . S
C416 H412 0.929 1_455 S
C416 C418 1.378 . S
C416 C420 1.350 . S
C417 C420 1.463 1_554 S
C417 C422 1.350 . S
C417 N425 1.427 . S
C418 H409 0.930 1_455 S
C418 C416 1.378 . S
C418 C419 1.367 . S
C419 C418 1.367 . S
C419 C421 1.433 . S
C420 C416 1.350 . S
C420 C417 1.463 1_556 S
C420 N424 1.427 . S
C421 H411 0.929 . S
C421 C419 1.433 . S
C421 N424 1.384 . S
C422 H413 0.929 . S
C422 C414 1.378 . S
C422 C417 1.350 . S
C423 H410 0.929 1_455 S
C423 C415 1.433 . S
C423 N425 1.384 . S
N424 C420 1.427 . S
N424 C421 1.384 . S
N425 C417 1.427 . S
N425 C423 1.384 . S
H426 C432 0.930 . S
H427 C436 0.930 . S
H428 C441 0.929 . S
H429 C439 0.926 1_565 S
H430 C434 0.929 . S
H431 C440 0.929 . S
C432 H426 0.930 . S
C432 C433 1.367 1_565 S
C432 C440 1.378 . S
C433 C432 1.367 1_545 S
C433 C441 1.433 . S
C434 H430 0.929 . S
C434 C436 1.378 . S
C434 C438 1.350 . S
C435 C438 1.463 . S
C435 C440 1.350 1_545 S
C435 N443 1.427 . S
C436 H427 0.930 . S
C436 C434 1.378 . S
C436 C437 1.367 . S
C437 C436 1.367 . S
C437 C439 1.437 . S
C438 C434 1.350 . S
C438 C435 1.463 . S
C438 N442 1.427 1_545 S
C439 H429 0.926 1_545 S
C439 C437 1.437 . S
C439 N442 1.383 1_545 S
C440 H431 0.929 . S
C440 C432 1.378 . S
C440 C435 1.350 1_565 S
C441 H428 0.929 . S
C441 C433 1.433 . S
C441 N443 1.384 . S
N442 C438 1.427 1_565 S
N442 C439 1.383 1_565 S
N443 C435 1.427 . S
N443 C441 1.384 . S
H444 C450 0.930 . S
H445 C454 0.930 . S
H446 C459 0.929 . S
H447 C457 0.929 . S
H448 C452 0.929 . S
H449 C458 0.929 . S
C450 H444 0.930 . S
C450 C451 1.367 . S
C450 C458 1.378 . S
C451 C450 1.367 . S
C451 C459 1.433 . S
C452 H448 0.929 . S
C452 C454 1.378 . S
C452 C456 1.350 . S
C453 C456 1.463 . S
C453 C458 1.350 . S
C453 N461 1.427 . S
C454 H445 0.930 . S
C454 C452 1.378 . S
C454 C455 1.367 . S
C455 C454 1.367 . S
C455 C457 1.433 . S
C456 C452 1.350 . S
C456 C453 1.463 . S
C456 N460 1.427 . S
C457 H447 0.929 . S
C457 C455 1.433 . S
C457 N460 1.384 . S
C458 H449 0.929 . S
C458 C450 1.378 . S
C458 C453 1.350 . S
C459 H446 0.929 . S
C459 C451 1.433 . S
C459 N461 1.384 . S
N460 C456 1.427 . S
N460 C457 1.384 . S
N461 C453 1.427 . S
N461 C459 1.384 . S
H462 C468 0.930 . S
H463 C472 0.930 . S
H464 C477 0.929 . S
H465 C475 0.929 . S
H466 C470 0.929 . S
H467 C476 0.929 . S
C468 H462 0.930 . S
C468 C469 1.367 . S
C468 C476 1.378 . S
C469 C468 1.367 . S
C469 C477 1.433 1_545 S
C470 H466 0.929 . S
C470 C472 1.378 . S
C470 C474 1.350 1_565 S
C471 C474 1.463 . S
C471 C476 1.350 . S
C471 N479 1.427 1_545 S
C472 H463 0.930 . S
C472 C470 1.378 . S
C472 C473 1.367 1_565 S
C473 C472 1.367 1_545 S
C473 C475 1.433 . S
C474 C470 1.350 1_545 S
C474 C471 1.463 . S
C474 N478 1.427 . S
C475 H465 0.929 . S
C475 C473 1.433 . S
C475 N478 1.384 . S
C476 H467 0.929 . S
C476 C468 1.378 . S
C476 C471 1.350 . S
C477 H464 0.929 . S
C477 C469 1.433 1_565 S
C477 N479 1.384 . S
N478 C474 1.427 . S
N478 C475 1.384 . S
N479 C471 1.427 1_565 S
N479 C477 1.384 . S
H480 C486 0.930 . S
H481 C490 0.930 . S
H482 C495 0.929 . S
H483 C493 0.929 . S
H484 C488 0.929 1_556 S
H485 C494 0.929 . S
C486 H480 0.930 . S
C486 C487 1.367 . S
C486 C494 1.378 . S
C487 C486 1.367 . S
C487 C495 1.433 . S
C488 H484 0.929 1_554 S
C488 C490 1.378 . S
C488 C492 1.350 1_554 S
C489 C492 1.463 . S
C489 C494 1.350 . S
C489 N497 1.427 . S
C490 H481 0.930 . S
C490 C488 1.378 . S
C490 C491 1.367 . S
C491 C490 1.367 . S
C491 C493 1.433 . S
C492 C488 1.350 1_556 S
C492 C489 1.463 . S
C492 N496 1.427 1_556 S
C493 H483 0.929 . S
C493 C491 1.433 . S
C493 N496 1.384 . S
C494 H485 0.929 . S
C494 C486 1.378 . S
C494 C489 1.350 . S
C495 H482 0.929 . S
C495 C487 1.433 . S
C495 N497 1.384 . S
N496 C492 1.427 1_554 S
N496 C493 1.384 . S
N497 C489 1.427 . S
N497 C495 1.384 . S
H498 C504 0.930 . S
H499 C508 0.930 . S
H500 C513 0.929 . S
H501 C511 0.929 . S
H502 C506 0.929 . S
H503 C512 0.929 . S
C504 H498 0.930 . S
C504 C505 1.367 . S
C504 C512 1.378 . S
C505 C504 1.367 . S
C505 C513 1.433 . S
C506 H502 0.929 . S
C506 C508 1.378 . S
C506 C510 1.350 . S
C507 C510 1.463 . S
C507 C512 1.350 . S
C507 N515 1.427 . S
C508 H499 0.930 . S
C508 C506 1.378 . S
C508 C509 1.367 . S
C509 C508 1.367 . S
C509 C511 1.433 . S
C510 C506 1.350 . S
C510 C507 1.463 . S
C510 N514 1.427 . S
C511 H501 0.929 . S
C511 C509 1.433 . S
C511 N514 1.384 . S
C512 H503 0.929 . S
C512 C504 1.378 . S
C512 C507 1.350 . S
C513 H500 0.929 . S
C513 C505 1.433 . S
C513 N515 1.384 . S
N514 C510 1.427 . S
N514 C511 1.384 . S
N515 C507 1.427 . S
N515 C513 1.384 . S
C199 C6 0.797 . S
C203 C186 0.815 . S
C217 C59 1.946 . S
C221 C160 1.891 . S
C235 C86 1.280 . S
C239 C172 1.267 . S
C253 C15 0.349 . S
C257 C184 0.276 . S
C275 C162 1.836 . S
C271 C50 1.863 . S
C293 C174 1.149 . S
C289 C95 1.156 . S
C307 C46 1.285 . S
C311 C136 1.286 . S
C325 C99 3.367 . S
C329 C150 3.347 . S
C343 C10 1.872 . S
C347 C126 1.866 . S
C365 C138 1.149 . S
C361 C55 1.138 . S
C383 C148 2.724 . S
C379 C90 2.806 . S
C397 C19 1.943 . S
C401 C124 1.895 . S
C419 C153 1.776 . S
C415 C18 1.691 . S
C433 C49 1.406 . S
C437 C129 1.479 . S
C451 C98 1.498 . S
C455 C141 1.531 . S
C473 C177 1.532 . S
C469 C58 1.509 . S
C491 C189 1.240 . S
C487 C89 1.213 . S
C505 C9 1.406 . S
C509 C165 1.444 . S
