# Generated by pormake.
# Topology anh, (6,3)-cn, num edge types: 1
# Building blocks:
#     Node 0, Type 0, BuildingBlock: VOLQOD_clean_sbu_1, # of connection points: 6
#     Node 1, Type 0, BuildingBlock: VOLQOD_clean_sbu_1, # of connection points: 6
#     Node 2, Type 0, BuildingBlock: VOLQOD_clean_sbu_1, # of connection points: 6
#     Node 3, Type 1, BuildingBlock: QEWDON_clean_linker_0, # of connection points: 3
#     Node 4, Type 1, BuildingBlock: QEWDON_clean_linker_0, # of connection points: 3
#     Node 5, Type 1, BuildingBlock: QEWDON_clean_linker_0, # of connection points: 3
#     Node 6, Type 1, BuildingBlock: QEWDON_clean_linker_0, # of connection points: 3
#     Node 7, Type 1, BuildingBlock: QEWDON_clean_linker_0, # of connection points: 3
#     Node 8, Type 1, BuildingBlock: QEWDON_clean_linker_0, # of connection points: 3
#     Edge 9, Type (0, 1), BuildingBlock: ZUJKAS_clean_linker_0, # of connection points: 2
#     Edge 10, Type (0, 1), BuildingBlock: ZUJKAS_clean_linker_0, # of connection points: 2
#     Edge 11, Type (0, 1), BuildingBlock: ZUJKAS_clean_linker_0, # of connection points: 2
#     Edge 12, Type (0, 1), BuildingBlock: ZUJKAS_clean_linker_0, # of connection points: 2
#     Edge 13, Type (0, 1), BuildingBlock: ZUJKAS_clean_linker_0, # of connection points: 2
#     Edge 14, Type (0, 1), BuildingBlock: ZUJKAS_clean_linker_0, # of connection points: 2
#     Edge 15, Type (0, 1), BuildingBlock: ZUJKAS_clean_linker_0, # of connection points: 2
#     Edge 16, Type (0, 1), BuildingBlock: ZUJKAS_clean_linker_0, # of connection points: 2
#     Edge 17, Type (0, 1), BuildingBlock: ZUJKAS_clean_linker_0, # of connection points: 2
#     Edge 18, Type (0, 1), BuildingBlock: ZUJKAS_clean_linker_0, # of connection points: 2
#     Edge 19, Type (0, 1), BuildingBlock: ZUJKAS_clean_linker_0, # of connection points: 2
#     Edge 20, Type (0, 1), BuildingBlock: ZUJKAS_clean_linker_0, # of connection points: 2
#     Edge 21, Type (0, 1), BuildingBlock: ZUJKAS_clean_linker_0, # of connection points: 2
#     Edge 22, Type (0, 1), BuildingBlock: ZUJKAS_clean_linker_0, # of connection points: 2
#     Edge 23, Type (0, 1), BuildingBlock: ZUJKAS_clean_linker_0, # of connection points: 2
#     Edge 24, Type (0, 1), BuildingBlock: ZUJKAS_clean_linker_0, # of connection points: 2
#     Edge 25, Type (0, 1), BuildingBlock: ZUJKAS_clean_linker_0, # of connection points: 2
#     Edge 26, Type (0, 1), BuildingBlock: ZUJKAS_clean_linker_0, # of connection points: 2
# Relax obj value: 0.172
# Max RMSD: 0.223
# Mean RMSD: 0.181
data_MOF--net-anh--node1-VOLQOD_clean_sbu_1--node2-QEWDON_clean_linker_0--edge1-ZUJKAS_clean_linker_0
_symmetry_space_group_name_H-M    P1
_symmetry_Int_Tables_number       1
_symmetry_cell_setting            triclinic
loop_
_symmetry_equiv_pos_as_xyz
'x, y, z'
_cell_length_a     39.397325
_cell_length_b     39.370239
_cell_length_c     72.331807
_cell_angle_alpha  94.234689
_cell_angle_beta   94.161384
_cell_angle_gamma 120.16869
loop_
_atom_site_label
_atom_site_type_symbol
_atom_site_fract_x
_atom_site_fract_y
_atom_site_fract_z
_atom_type_partial_charge
O0 O 0.03039 0.55973 0.20867 0.0
Zn1 Zn 0.03146 0.57144 0.18219 0.0
O2 O 0.03513 0.5318 0.16591 0.0
Zn3 Zn 0.98889 0.50421 0.14703 0.0
Zn4 Zn 0.03884 0.49351 0.18075 0.0
Zn5 Zn 0.08155 0.55869 0.15321 0.0
O6 O 0.00337 0.50478 0.12079 0.0
O7 O 0.0683 0.54615 0.12529 0.0
O8 O 0.98236 0.57306 0.17404 0.0
O9 O 0.95578 0.52966 0.14831 0.0
O10 O 0.95426 0.44821 0.15202 0.0
O11 O 0.98944 0.43938 0.17452 0.0
O12 O 0.08849 0.49104 0.17716 0.0
O13 O 0.0782 0.62632 0.18201 0.0
O14 O 0.11965 0.54159 0.16085 0.0
O15 O 0.10999 0.61767 0.15974 0.0
C16 C 0.03512 0.53491 0.21715 0.0
C17 C 0.03633 0.52388 0.11439 0.0
C18 C 0.95796 0.42638 0.16318 0.0
C19 C 0.95582 0.55554 0.15997 0.0
C20 C 0.11867 0.51427 0.16957 0.0
C21 C 0.10614 0.64016 0.17187 0.0
O22 O 0.04019 0.50885 0.20834 0.0
O23 O 0.55862 0.06196 0.46007 0.0
Zn24 Zn 0.54919 0.05889 0.4869 0.0
O25 O 0.59056 0.0554 0.50157 0.0
Zn26 Zn 0.62257 0.10356 0.51914 0.0
Zn27 Zn 0.62353 0.04706 0.48466 0.0
Zn28 Zn 0.56573 0.01158 0.516 0.0
O29 O 0.6232 0.0927 0.54608 0.0
O30 O 0.57735 0.02905 0.54348 0.0
O31 O 0.54739 0.10713 0.49644 0.0
O32 O 0.60058 0.13976 0.51764 0.0
O33 O 0.67789 0.13306 0.51265 0.0
O34 O 0.67953 0.09428 0.48921 0.0
O35 O 0.62383 0.99613 0.48817 0.0
O36 O 0.4955 0.011 0.48745 0.0
O37 O 0.58679 0.97582 0.51132 0.0
O38 O 0.5067 0.97932 0.509 0.0
C39 C 0.58018 0.05454 0.45022 0.0
C40 C 0.6019 0.06157 0.5535 0.0
C41 C 0.69639 0.12629 0.50054 0.0
C42 C 0.57037 0.13706 0.5084 0.0
C43 C 0.60837 0.97204 0.50008 0.0
C44 C 0.48312 0.98233 0.49717 0.0
O45 O 0.60467 0.04569 0.45759 0.0
O46 O 0.52772 0.53062 0.78666 0.0
Zn47 Zn 0.52132 0.51977 0.81336 0.0
O48 O 0.56895 0.55915 0.82998 0.0
Zn49 Zn 0.55676 0.59153 0.84648 0.0
Zn50 Zn 0.61008 0.59328 0.81517 0.0
Zn51 Zn 0.58756 0.53218 0.84558 0.0
O52 O 0.56671 0.58739 0.87363 0.0
O53 O 0.58117 0.53976 0.87275 0.0
O54 O 0.47243 0.52023 0.82007 0.0
O55 O 0.4994 0.57282 0.84167 0.0
O56 O 0.58605 0.64832 0.84213 0.0
O57 O 0.62265 0.6499 0.81995 0.0
O58 O 0.66073 0.59288 0.82174 0.0
O59 O 0.51271 0.46496 0.81428 0.0
O60 O 0.64505 0.55346 0.84404 0.0
O61 O 0.55901 0.47394 0.83674 0.0
C62 C 0.5571 0.55287 0.77838 0.0
C63 C 0.57426 0.56406 0.88188 0.0
C64 C 0.6108 0.66723 0.83106 0.0
C65 C 0.46929 0.54446 0.83148 0.0
C66 C 0.6701 0.57629 0.83397 0.0
C67 C 0.53007 0.45141 0.82423 0.0
O68 O 0.59105 0.57684 0.78749 0.0
H69 H 0.5372 0.12288 0.25199 0.0
C70 C 0.5114 0.09523 0.24566 0.0
C71 C 0.49268 0.06379 0.25632 0.0
C72 C 0.49587 0.09171 0.22704 0.0
H73 H 0.44424 0.00415 0.25612 0.0
C74 C 0.45873 0.02848 0.24797 0.0
C75 C 0.44323 0.02424 0.22929 0.0
C76 C 0.46198 0.05616 0.21896 0.0
C77 C 0.51437 0.12521 0.21594 0.0
H78 H 0.45077 0.05316 0.20443 0.0
C79 C 0.55516 0.1445 0.21454 0.0
C80 C 0.57227 0.17518 0.20327 0.0
C81 C 0.49084 0.13722 0.20621 0.0
H82 H 0.45938 0.1229 0.20716 0.0
C83 C 0.50769 0.16791 0.19524 0.0
H84 H 0.57337 0.13528 0.22203 0.0
C85 C 0.54806 0.1867 0.19369 0.0
H86 H 0.56015 0.20977 0.18469 0.0
H87 H 0.48932 0.17692 0.18775 0.0
H88 H 0.47323 0.53532 0.56994 0.0
C89 C 0.47729 0.51077 0.56562 0.0
C90 C 0.48658 0.49182 0.57916 0.0
C91 C 0.47144 0.49679 0.54651 0.0
H92 H 0.49942 0.44563 0.58369 0.0
C93 C 0.49116 0.45967 0.57336 0.0
C94 C 0.48656 0.44633 0.55435 0.0
C95 C 0.47645 0.46483 0.54101 0.0
C96 C 0.45895 0.51444 0.53212 0.0
H97 H 0.47232 0.45424 0.52628 0.0
C98 C 0.48156 0.55509 0.53061 0.0
C99 C 0.47083 0.57118 0.51609 0.0
C100 C 0.42508 0.49 0.51923 0.0
H101 H 0.40723 0.45858 0.52018 0.0
C102 C 0.41388 0.50588 0.50506 0.0
H103 H 0.50818 0.57377 0.54031 0.0
C104 C 0.43657 0.54615 0.50344 0.0
H105 H 0.42704 0.55776 0.49238 0.0
H106 H 0.38759 0.48689 0.49526 0.0
H107 H 0.12368 0.60861 0.92357 0.0
C108 C 0.0989 0.60942 0.91653 0.0
C109 C 0.06289 0.59369 0.92411 0.0
C110 C 0.10334 0.62678 0.89997 0.0
H111 H 0.00332 0.58321 0.92033 0.0
C112 C 0.03101 0.59448 0.91447 0.0
C113 C 0.0351 0.61133 0.89771 0.0
C114 C 0.07159 0.62789 0.89067 0.0
C115 C 0.14131 0.64399 0.89232 0.0
H116 H 0.07514 0.64087 0.87772 0.0
C117 C 0.15439 0.61931 0.88489 0.0
C118 C 0.19059 0.63543 0.87743 0.0
C119 C 0.16421 0.68502 0.89219 0.0
H120 H 0.15429 0.70437 0.8978 0.0
C121 C 0.20035 0.70136 0.88504 0.0
H122 H 0.13577 0.58754 0.88459 0.0
C123 C 0.21362 0.67687 0.8778 0.0
H124 H 0.24217 0.69055 0.8727 0.0
H125 H 0.21824 0.73312 0.88519 0.0
H126 H 0.99377 0.55356 0.42136 0.0
C127 C 0.02187 0.5796 0.427 0.0
C128 C 0.04957 0.60049 0.41493 0.0
C129 C 0.02966 0.5932 0.44621 0.0
H130 H 0.1068 0.6509 0.41295 0.0
C131 C 0.0855 0.63474 0.42229 0.0
C132 C 0.09423 0.64815 0.44153 0.0
C133 C 0.06596 0.62723 0.45336 0.0
C134 C -0.00021 0.57244 0.45889 0.0
H135 H 0.07249 0.63683 0.46827 0.0
C136 C 0.98066 0.53103 0.45837 0.0
C137 C 0.95273 0.51153 0.47063 0.0
C138 C 0.99058 0.5942 0.47176 0.0
H139 H 0.00469 0.62608 0.47234 0.0
C140 C 0.96276 0.57499 0.48386 0.0
H141 H 0.98765 0.51408 0.44849 0.0
C142 C 0.94395 0.53395 0.48335 0.0
H143 H 0.92295 0.51983 0.49312 0.0
H144 H 0.95586 0.59199 0.49373 0.0
H145 H 0.52804 0.00199 0.7492 0.0
C146 C 0.52489 0.02664 0.75444 0.0
C147 C 0.53622 0.05879 0.74415 0.0
C148 C 0.50917 0.02602 0.77137 0.0
H149 H 0.53922 0.1148 0.74283 0.0
C150 C 0.5312 0.09017 0.75082 0.0
C151 C 0.51559 0.08998 0.76764 0.0
C152 C 0.50504 0.05809 0.77794 0.0
C153 C 0.4963 0.99167 0.78204 0.0
H154 H 0.49321 0.05811 0.79101 0.0
C155 C 0.51929 0.97377 0.78429 0.0
C156 C 0.50699 0.94113 0.79435 0.0
C157 C 0.46076 0.97652 0.79003 0.0
H158 H 0.44212 0.98925 0.78831 0.0
C159 C 0.44857 0.94433 0.80012 0.0
H160 H 0.54668 0.98514 0.77817 0.0
C161 C 0.47146 0.92671 0.8023 0.0
H162 H 0.4615 0.90198 0.81034 0.0
H163 H 0.42121 0.93294 0.80624 0.0
H164 H 0.53712 0.60358 0.08486 0.0
C165 C 0.56137 0.60153 0.09164 0.0
C166 C 0.58177 0.58796 0.08106 0.0
C167 C 0.57293 0.6136 0.11093 0.0
H168 H 0.62963 0.57599 0.08211 0.0
C169 C 0.613 0.58542 0.09017 0.0
C170 C 0.62462 0.59721 0.10946 0.0
C171 C 0.60472 0.61172 0.11973 0.0
C172 C 0.5529 0.62976 0.12183 0.0
H173 H 0.61363 0.62112 0.13462 0.0
C174 C 0.51271 0.60591 0.12391 0.0
C175 C 0.49384 0.62143 0.13444 0.0
C176 C 0.57423 0.66917 0.13039 0.0
H177 H 0.60529 0.68789 0.12897 0.0
C178 C 0.55548 0.68482 0.14066 0.0
H179 H 0.49626 0.57537 0.1174 0.0
C180 C 0.51549 0.66118 0.14266 0.0
H181 H 0.50163 0.67374 0.15091 0.0
H182 H 0.57202 0.71529 0.14716 0.0
H183 H 0.12297 0.44691 0.16395 0.0
H184 H 0.18347 0.44421 0.16048 0.0
H185 H 0.25396 0.57118 0.17424 0.0
H186 H 0.19417 0.57406 0.17722 0.0
H187 H 0.23653 0.49176 0.13308 0.0
H188 H 0.31428 0.52605 0.2049 0.0
H189 H 0.26113 0.50339 0.19996 0.0
H190 H 0.29282 0.55595 0.20028 0.0
C191 C 0.15156 0.47397 0.1667 0.0
C192 C 0.15415 0.5107 0.17081 0.0
C193 C 0.18594 0.47242 0.16468 0.0
C194 C 0.2231 0.50747 0.16731 0.0
C195 C 0.22563 0.54377 0.17244 0.0
H196 H 0.43508 0.63817 0.12898 0.0
H197 H 0.3668 0.59914 0.13583 0.0
C198 C 0.19149 0.54541 0.17405 0.0
C199 C 0.25904 0.50794 0.16237 0.0
H200 H 0.35556 0.54552 0.17995 0.0
C201 C 0.2623 0.50221 0.14335 0.0
C202 C 0.2925 0.52153 0.17579 0.0
C203 C 0.29003 0.52677 0.19641 0.0
C204 C 0.29911 0.5133 0.13731 0.0
C205 C 0.33319 0.53039 0.15065 0.0
C206 C 0.32932 0.53263 0.16975 0.0
C207 C 0.37333 0.55142 0.14501 0.0
C208 C 0.3018 0.509 0.11667 0.0
C209 C 0.39941 0.53733 0.14789 0.0
C210 C 0.43836 0.55945 0.14382 0.0
C211 C 0.45184 0.59628 0.1372 0.0
C212 C 0.42543 0.60997 0.13414 0.0
C213 C 0.38647 0.58764 0.13793 0.0
H214 H 0.27271 0.48679 0.10867 0.0
H215 H 0.31159 0.53794 0.11146 0.0
H216 H 0.32385 0.50015 0.11393 0.0
H217 H 0.38978 0.50959 0.15351 0.0
H218 H 0.45832 0.54847 0.14644 0.0
H219 H 0.73937 0.13094 0.47161 0.0
H220 H 0.79732 0.19047 0.46413 0.0
H221 H 0.79989 0.25525 0.5155 0.0
H222 H 0.74289 0.1961 0.52325 0.0
H223 H 0.79359 0.25441 0.45781 0.0
H224 H 0.91617 0.30004 0.51386 0.0
H225 H 0.87344 0.25053 0.51001 0.0
H226 H 0.87213 0.28987 0.52377 0.0
C227 C 0.7531 0.1575 0.48162 0.0
C228 C 0.7362 0.15883 0.49795 0.0
C229 C 0.78619 0.19153 0.47729 0.0
C230 C 0.80316 0.22729 0.4893 0.0
C231 C 0.78796 0.22788 0.50619 0.0
H232 H 0.87467 0.45949 0.47245 0.0
H233 H 0.84284 0.3885 0.47424 0.0
C234 C 0.755 0.19399 0.51053 0.0
C235 C 0.83214 0.26522 0.48305 0.0
H236 H 0.91587 0.35371 0.49889 0.0
C237 C 0.82088 0.27576 0.46656 0.0
C238 C 0.86804 0.29298 0.49426 0.0
C239 C 0.88331 0.28255 0.51135 0.0
C240 C 0.84283 0.31424 0.46181 0.0
C241 C 0.87647 0.34308 0.47405 0.0
C242 C 0.88962 0.33174 0.48969 0.0
C243 C 0.89589 0.38571 0.47189 0.0
C244 C 0.82901 0.324 0.44405 0.0
C245 C 0.93646 0.40785 0.47032 0.0
C246 C 0.95486 0.44864 0.46947 0.0
C247 C 0.93302 0.46795 0.47042 0.0
C248 C 0.89234 0.44553 0.47184 0.0
C249 C 0.87401 0.40488 0.47264 0.0
H250 H 0.81224 0.29729 0.4335 0.0
H251 H 0.80891 0.33514 0.4472 0.0
H252 H 0.8543 0.34716 0.4379 0.0
H253 H 0.95391 0.39365 0.46992 0.0
H254 H 0.98635 0.46523 0.4686 0.0
H255 H 0.65706 0.71604 0.80675 0.0
H256 H 0.66378 0.77918 0.80037 0.0
H257 H 0.59451 0.77415 0.84475 0.0
H258 H 0.5887 0.71218 0.85156 0.0
H259 H 0.60308 0.78424 0.78767 0.0
H260 H 0.67287 0.88975 0.85184 0.0
H261 H 0.6758 0.84542 0.84838 0.0
H262 H 0.63388 0.84404 0.85767 0.0
C263 C 0.64434 0.72904 0.81554 0.0
C264 C 0.62194 0.70879 0.82953 0.0
C265 C 0.64822 0.76515 0.81186 0.0
C266 C 0.62998 0.78168 0.82218 0.0
C267 C 0.60978 0.76269 0.8369 0.0
H268 H 0.48012 0.86198 0.79119 0.0
H269 H 0.51853 0.82975 0.79595 0.0
C270 C 0.60608 0.72684 0.84065 0.0
C271 C 0.62586 0.81451 0.81577 0.0
H272 H 0.622 0.89558 0.83261 0.0
C273 C 0.60834 0.80925 0.79737 0.0
C274 C 0.63338 0.8477 0.8282 0.0
C275 C 0.65546 0.85722 0.84755 0.0
C276 C 0.59466 0.83398 0.79167 0.0
C277 C 0.59773 0.86407 0.80484 0.0
C278 C 0.61878 0.87185 0.82264 0.0
C279 C 0.57531 0.88432 0.80117 0.0
C280 C 0.57559 0.82656 0.7718 0.0
C281 C 0.59438 0.92579 0.80301 0.0
C282 C 0.57232 0.94439 0.80056 0.0
C283 C 0.53083 0.92176 0.79642 0.0
C284 C 0.51197 0.88025 0.79454 0.0
C285 C 0.53396 0.86177 0.79699 0.0
H286 H 0.58824 0.8138 0.76218 0.0
H287 H 0.54345 0.80482 0.77097 0.0
H288 H 0.5794 0.85422 0.76692 0.0
H289 H 0.62623 0.94372 0.80647 0.0
H290 H 0.58764 0.97645 0.80232 0.0
H291 H 0.90333 0.53538 0.12864 0.0
H292 H 0.84995 0.54969 0.12409 0.0
H293 H 0.88238 0.61076 0.18016 0.0
H294 H 0.93633 0.59692 0.18489 0.0
H295 H 0.79523 0.5458 0.16683 0.0
H296 H 0.86509 0.66549 0.12175 0.0
H297 H 0.86923 0.62244 0.11631 0.0
H298 H 0.89363 0.65381 0.13804 0.0
C299 C 0.89929 0.55198 0.14002 0.0
C300 C 0.9241 0.56503 0.15714 0.0
C301 C 0.86888 0.56023 0.13735 0.0
C302 C 0.86258 0.58144 0.15176 0.0
C303 C 0.88707 0.59449 0.16888 0.0
H304 H 0.68803 0.65536 0.13312 0.0
H305 H 0.74638 0.65391 0.1464 0.0
C306 C 0.91784 0.58661 0.17152 0.0
C307 C 0.82944 0.5887 0.14893 0.0
H308 H 0.79606 0.63738 0.123 0.0
C309 C 0.79549 0.56621 0.15747 0.0
C310 C 0.83022 0.61555 0.13682 0.0
C311 C 0.86656 0.64101 0.12776 0.0
C312 C 0.76141 0.56856 0.15348 0.0
C313 C 0.76152 0.59394 0.14063 0.0
C314 C 0.79614 0.61785 0.1328 0.0
C315 C 0.72519 0.59392 0.134 0.0
C316 C 0.72525 0.54336 0.16271 0.0
C317 C 0.69421 0.56064 0.12268 0.0
C318 C 0.66115 0.56147 0.11502 0.0
C319 C 0.65849 0.59556 0.11861 0.0
C320 C 0.6892 0.62858 0.1303 0.0
C321 C 0.7225 0.62786 0.13782 0.0
H322 H 0.73271 0.53285 0.17536 0.0
H323 H 0.71053 0.5601 0.16669 0.0
H324 H 0.70382 0.51703 0.1527 0.0
H325 H 0.69608 0.53438 0.1194 0.0
H326 H 0.63778 0.53559 0.10613 0.0
H327 H 0.4287 0.96625 0.4672 0.0
H328 H 0.36035 0.91146 0.46108 0.0
H329 H 0.37308 0.87336 0.51426 0.0
H330 H 0.44209 0.92729 0.52015 0.0
H331 H 0.34079 0.81319 0.4881 0.0
H332 H 0.2613 0.89456 0.48015 0.0
H333 H 0.29813 0.90847 0.46454 0.0
H334 H 0.31295 0.91903 0.48944 0.0
C335 C 0.41682 0.94653 0.47771 0.0
C336 C 0.44081 0.95109 0.49416 0.0
C337 C 0.37758 0.91536 0.47426 0.0
C338 C 0.36127 0.8887 0.48736 0.0
C339 C 0.38496 0.89368 0.50398 0.0
H340 H 0.10937 0.70693 0.46948 0.0
H341 H 0.17357 0.76418 0.48254 0.0
C342 C 0.42439 0.9245 0.50732 0.0
C343 C 0.32062 0.85384 0.48305 0.0
H344 H 0.2254 0.82573 0.46701 0.0
C345 C 0.31548 0.816 0.48374 0.0
C346 C 0.28739 0.85741 0.47768 0.0
C347 C 0.29014 0.8971 0.47811 0.0
C348 C 0.2784 0.78166 0.47851 0.0
C349 C 0.24582 0.78521 0.47179 0.0
C350 C 0.25054 0.82301 0.47185 0.0
C351 C 0.20697 0.75011 0.46415 0.0
C352 C 0.27458 0.74197 0.48034 0.0
C353 C 0.20435 0.72346 0.44934 0.0
C354 C 0.16787 0.69034 0.4421 0.0
C355 C 0.13303 0.68357 0.44925 0.0
C356 C 0.13565 0.71081 0.46386 0.0
C357 C 0.17228 0.74374 0.47124 0.0
H358 H 0.29742 0.74465 0.49128 0.0
H359 H 0.24492 0.72028 0.48388 0.0
H360 H 0.279 0.73019 0.46689 0.0
H361 H 0.23056 0.72832 0.44331 0.0
H362 H 0.16711 0.66985 0.43101 0.0
H363 H 0.48081 0.39775 0.79437 0.0
H364 H 0.46903 0.33105 0.78586 0.0
H365 H 0.54194 0.34339 0.83625 0.0
H366 H 0.554 0.41006 0.84492 0.0
H367 H 0.53576 0.31957 0.78157 0.0
H368 H 0.44142 0.23024 0.83314 0.0
H369 H 0.44424 0.27548 0.82747 0.0
H370 H 0.48368 0.27757 0.84254 0.0
C371 C 0.49372 0.38603 0.80384 0.0
C372 C 0.51856 0.40933 0.82027 0.0
C373 C 0.48694 0.34794 0.79895 0.0
C374 C 0.50437 0.33234 0.81051 0.0
C375 C 0.52776 0.35477 0.82729 0.0
H376 H 0.53844 0.13199 0.80247 0.0
H377 H 0.53306 0.18969 0.81274 0.0
C378 C 0.53481 0.39296 0.83215 0.0
C379 C 0.5019 0.29461 0.80408 0.0
H380 H 0.46947 0.20085 0.81451 0.0
C381 C 0.52092 0.29342 0.78861 0.0
C382 C 0.48297 0.26094 0.81352 0.0
C383 C 0.46162 0.26078 0.83002 0.0
C384 C 0.52237 0.25961 0.78255 0.0
C385 C 0.50326 0.22572 0.79192 0.0
C386 C 0.48394 0.22683 0.80732 0.0
C387 C 0.50385 0.18923 0.78611 0.0
C388 C 0.54559 0.26106 0.76661 0.0
C389 C 0.48831 0.16936 0.76791 0.0
C390 C 0.49171 0.13678 0.762 0.0
C391 C 0.51011 0.12313 0.77429 0.0
C392 C 0.52409 0.14195 0.79275 0.0
C393 C 0.52105 0.17483 0.79861 0.0
H394 H 0.56705 0.29201 0.76447 0.0
H395 H 0.56206 0.24542 0.76909 0.0
H396 H 0.52487 0.24633 0.75351 0.0
H397 H 0.47402 0.17939 0.75821 0.0
H398 H 0.48003 0.12228 0.7478 0.0
H399 H 0.61803 0.94177 0.5309 0.0
H400 H 0.6079 0.87566 0.53234 0.0
H401 H 0.59571 0.85597 0.47216 0.0
H402 H 0.60677 0.92295 0.47067 0.0
H403 H 0.53376 0.81319 0.51496 0.0
H404 H 0.65788 0.80137 0.48954 0.0
H405 H 0.66348 0.84819 0.4986 0.0
H406 H 0.63793 0.82489 0.47564 0.0
C407 C 0.61458 0.92387 0.518 0.0
C408 C 0.6129 0.93721 0.50067 0.0
C409 C 0.60882 0.88615 0.51884 0.0
C410 C 0.60098 0.86093 0.50238 0.0
C411 C 0.6023 0.87523 0.48504 0.0
H412 H 0.49116 0.60488 0.48386 0.0
H413 H 0.52541 0.67544 0.48034 0.0
C414 C 0.60858 0.91341 0.48419 0.0
C415 C 0.58481 0.81824 0.50349 0.0
H416 H 0.60212 0.74197 0.49575 0.0
C417 C 0.54881 0.79766 0.51083 0.0
C418 C 0.60426 0.79807 0.49783 0.0
C419 C 0.64318 0.81915 0.49005 0.0
C420 C 0.53174 0.75745 0.51281 0.0
C421 C 0.55161 0.73739 0.50762 0.0
C422 C 0.58726 0.75766 0.4999 0.0
C423 C 0.53508 0.69514 0.50995 0.0
C424 C 0.49224 0.73662 0.52018 0.0
C425 C 0.53011 0.68301 0.52782 0.0
C426 C 0.51014 0.64276 0.52988 0.0
C427 C 0.49497 0.61394 0.51409 0.0
C428 C 0.50174 0.62634 0.49627 0.0
C429 C 0.52166 0.6666 0.49423 0.0
H430 H 0.4766 0.75345 0.51914 0.0
H431 H 0.47283 0.7065 0.51243 0.0
H432 H 0.49698 0.73356 0.53513 0.0
H433 H 0.54069 0.70471 0.54014 0.0
H434 H 0.50535 0.63424 0.54378 0.0
H435 H 0.70208 0.55447 0.86201 0.0
H436 H 0.76991 0.56885 0.86807 0.0
H437 H 0.79942 0.63035 0.8195 0.0
H438 H 0.73112 0.61636 0.81325 0.0
H439 H 0.82235 0.565 0.82661 0.0
H440 H 0.87059 0.6885 0.8837 0.0
H441 H 0.82239 0.64568 0.88398 0.0
H442 H 0.83104 0.67523 0.86518 0.0
C443 C 0.72279 0.57099 0.85252 0.0
C444 C 0.71115 0.58434 0.83714 0.0
C445 C 0.76157 0.57925 0.85607 0.0
C446 C 0.78945 0.60083 0.8443 0.0
C447 C 0.77811 0.61377 0.82875 0.0
H448 H 0.03551 0.67301 0.88242 0.0
H449 H 0.9791 0.67375 0.86618 0.0
C450 C 0.73919 0.60577 0.82523 0.0
C451 C 0.83031 0.60936 0.84854 0.0
H452 H 0.91031 0.65881 0.882 0.0
C453 C 0.84205 0.58606 0.83846 0.0
C454 C 0.8558 0.63704 0.86392 0.0
C455 C 0.84461 0.66335 0.87479 0.0
C456 C 0.87793 0.58813 0.84413 0.0
C457 C 0.90214 0.61383 0.86033 0.0
C458 C 0.8915 0.63893 0.86966 0.0
C459 C 0.93675 0.61271 0.86881 0.0
C460 C 0.88914 0.56207 0.83305 0.0
C461 C 0.93138 0.57825 0.87578 0.0
C462 C 0.96338 0.57776 0.88509 0.0
C463 C 0.00131 0.6118 0.88761 0.0
C464 C 0.00667 0.64623 0.8805 0.0
C465 C 0.97455 0.64674 0.87127 0.0
H466 H 0.87426 0.55338 0.81843 0.0
H467 H 0.92166 0.57721 0.83284 0.0
H468 H 0.87975 0.53461 0.83963 0.0
H469 H 0.90224 0.55193 0.87435 0.0
H470 H 0.95847 0.55075 0.8903 0.0
H471 H 0.12585 0.69229 0.20333 0.0
H472 H 0.18022 0.76095 0.20936 0.0
H473 H 0.20777 0.75354 0.15306 0.0
H474 H 0.15456 0.68421 0.14725 0.0
H475 H 0.27156 0.78364 0.17601 0.0
H476 H 0.19439 0.86263 0.19574 0.0
H477 H 0.18378 0.82418 0.21012 0.0
H478 H 0.16798 0.81156 0.1853 0.0
C479 C 0.14309 0.7055 0.19215 0.0
C480 C 0.13603 0.68288 0.17484 0.0
C481 C 0.174 0.7449 0.19556 0.0
C482 C 0.19772 0.76274 0.18156 0.0
C483 C 0.18983 0.74049 0.16406 0.0
H484 H 0.38127 0.0142 0.20481 0.0
H485 H 0.32268 0.95191 0.19077 0.0
C486 C 0.15942 0.70088 0.16076 0.0
C487 C 0.23299 0.80321 0.18576 0.0
H488 H 0.26468 0.89683 0.20628 0.0
C489 C 0.26989 0.80852 0.18235 0.0
C490 C 0.23093 0.83598 0.19371 0.0
C491 C 0.19203 0.83338 0.19621 0.0
C492 C 0.30489 0.84512 0.18741 0.0
C493 C 0.30314 0.87693 0.19679 0.0
C494 C 0.26611 0.87223 0.19941 0.0
C495 C 0.3394 0.91469 0.20467 0.0
C496 C 0.34331 0.84921 0.18258 0.0
C497 C 0.36814 0.91451 0.21724 0.0
C498 C 0.40203 0.94994 0.22496 0.0
C499 C 0.40752 0.98649 0.22064 0.0
C500 C 0.37839 0.98662 0.20821 0.0
C501 C 0.34469 0.95105 0.20029 0.0
H502 H 0.33822 0.82828 0.17007 0.0
H503 H 0.36442 0.87977 0.17984 0.0
H504 H 0.35709 0.84199 0.19441 0.0
H505 H 0.36424 0.88692 0.22124 0.0
H506 H 0.42399 0.94859 0.23428 0.0
H507 H 0.50053 0.13437 0.49891 0.0
H508 H 0.48555 0.18681 0.50572 0.0
H509 H 0.6054 0.26485 0.53208 0.0
H510 H 0.62023 0.21215 0.52591 0.0
H511 H 0.55422 0.2673 0.553 0.0
H512 H 0.51513 0.28344 0.48036 0.0
H513 H 0.48572 0.23377 0.48571 0.0
H514 H 0.53825 0.25512 0.4857 0.0
C515 C 0.52379 0.1628 0.50603 0.0
C516 C 0.56159 0.16916 0.51184 0.0
C517 C 0.51524 0.19283 0.5098 0.0
C518 C 0.54456 0.22999 0.5191 0.0
C519 C 0.58237 0.23644 0.52482 0.0
H520 H 0.53228 0.44435 0.52828 0.0
H521 H 0.54599 0.39144 0.51977 0.0
C522 C 0.59079 0.20629 0.52129 0.0
C523 C 0.53546 0.26164 0.52365 0.0
H524 H 0.49959 0.3159 0.50457 0.0
C525 C 0.54247 0.27808 0.54239 0.0
C526 C 0.52061 0.27602 0.50976 0.0
C527 C 0.51487 0.26147 0.48924 0.0
C528 C 0.53475 0.30826 0.54769 0.0
C529 C 0.51833 0.32146 0.53391 0.0
C530 C 0.5117 0.30535 0.51513 0.0
C531 C 0.50879 0.35271 0.53865 0.0
C532 C 0.54521 0.3263 0.56791 0.0
C533 C 0.48271 0.3481 0.55178 0.0
C534 C 0.47523 0.37843 0.5568 0.0
C535 C 0.49308 0.4135 0.54847 0.0
C536 C 0.51804 0.4175 0.53484 0.0
C537 C 0.52591 0.38737 0.53 0.0
H538 H 0.56779 0.32138 0.57532 0.0
H539 H 0.55672 0.35866 0.56919 0.0
H540 H 0.51832 0.31222 0.57509 0.0
H541 H 0.46826 0.32113 0.55822 0.0
H542 H 0.4554 0.37445 0.56714 0.0
H543 H 0.45494 0.59753 0.84993 0.0
H544 H 0.39156 0.58997 0.85514 0.0
H545 H 0.33097 0.47387 0.8232 0.0
H546 H 0.39518 0.48134 0.81763 0.0
H547 H 0.29782 0.52139 0.81498 0.0
H548 H 0.31904 0.5193 0.89091 0.0
H549 H 0.36204 0.56003 0.88389 0.0
H550 H 0.3478 0.51 0.87512 0.0
C551 C 0.4283 0.57024 0.84399 0.0
C552 C 0.43017 0.53981 0.83354 0.0
C553 C 0.39203 0.56591 0.84708 0.0
C554 C 0.3567 0.53095 0.84 0.0
C555 C 0.35806 0.50086 0.829 0.0
H556 H 0.18088 0.56661 0.88933 0.0
H557 H 0.20763 0.52654 0.8775 0.0
C558 C 0.39467 0.50522 0.82581 0.0
C559 C 0.31891 0.52738 0.84404 0.0
H560 H 0.27943 0.54774 0.88052 0.0
C561 C 0.29294 0.52598 0.82929 0.0
C562 C 0.31175 0.53193 0.86266 0.0
C563 C 0.33644 0.52992 0.87902 0.0
C564 C 0.26255 0.53348 0.83279 0.0
C565 C 0.25916 0.54384 0.85146 0.0
C566 C 0.28237 0.54073 0.86616 0.0
C567 C 0.23626 0.56318 0.85614 0.0
C568 C 0.23538 0.53147 0.8164 0.0
C569 C 0.24272 0.59678 0.84788 0.0
C570 C 0.22658 0.6192 0.85429 0.0
C571 C 0.20456 0.6093 0.8695 0.0
C572 C 0.19724 0.575 0.87745 0.0
C573 C 0.21273 0.55209 0.87076 0.0
H574 H 0.22961 0.50753 0.80526 0.0
H575 H 0.20666 0.52607 0.82054 0.0
H576 H 0.24991 0.55979 0.81033 0.0
H577 H 0.26175 0.60686 0.837 0.0
H578 H 0.2322 0.64486 0.84753 0.0
H579 H 0.88486 0.39133 0.14278 0.0
H580 H 0.82351 0.33696 0.15059 0.0
H581 H 0.88878 0.31871 0.19533 0.0
H582 H 0.9506 0.37407 0.18796 0.0
H583 H 0.79162 0.25804 0.15456 0.0
H584 H 0.819 0.34847 0.22286 0.0
H585 H 0.84883 0.36824 0.20432 0.0
H586 H 0.85587 0.33593 0.21836 0.0
C587 C 0.88644 0.37537 0.15407 0.0
C588 C 0.92266 0.3877 0.165 0.0
C589 C 0.85124 0.34415 0.15849 0.0
C590 C 0.8515 0.3245 0.17385 0.0
C591 C 0.88788 0.33418 0.18371 0.0
H592 H 0.61718 0.14046 0.19902 0.0
H593 H 0.68671 0.17252 0.19362 0.0
C594 C 0.92321 0.36566 0.17937 0.0
C595 C 0.81343 0.2971 0.18048 0.0
H596 H 0.75789 0.28956 0.21577 0.0
C597 C 0.78434 0.26448 0.16806 0.0
C598 C 0.80396 0.30599 0.19802 0.0
C599 C 0.83334 0.34169 0.21164 0.0
C600 C 0.74558 0.24139 0.1724 0.0
C601 C 0.73597 0.2508 0.18978 0.0
C602 C 0.76548 0.28238 0.2025 0.0
C603 C 0.6947 0.23115 0.19424 0.0
C604 C 0.71474 0.2086 0.15792 0.0
C605 C 0.67663 0.25372 0.19707 0.0
C606 C 0.63723 0.23568 0.20044 0.0
C607 C 0.615 0.1946 0.20103 0.0
C608 C 0.63352 0.17219 0.19874 0.0
C609 C 0.6731 0.19036 0.19543 0.0
H610 H 0.7252 0.21023 0.14398 0.0
H611 H 0.70756 0.17956 0.16233 0.0
H612 H 0.68708 0.20974 0.15655 0.0
H613 H 0.69286 0.28532 0.19634 0.0
H614 H 0.6241 0.25391 0.20248 0.0
H615 H 0.97462 0.47976 0.08646 0.0
H616 H 0.97622 0.48062 0.05273 0.0
H617 H 0.10159 0.56525 0.06231 0.0
H618 H 0.10052 0.56405 0.09589 0.0
H619 H -0.0036 0.54446 0.03439 0.0
H620 H 0.0962 0.48728 0.02095 0.0
H621 H 0.07392 0.48218 0.0423 0.0
H622 H 0.11777 0.52782 0.03945 0.0
C623 C 0.00266 0.4981 0.08138 0.0
C624 C 0.03745 0.52184 0.09391 0.0
C625 C 0.0035 0.49854 0.0621 0.0
C626 C 0.03913 0.52252 0.05498 0.0
C627 C 0.07395 0.54573 0.06743 0.0
H628 H 0.11745 0.62453 0.95542 0.0
H629 H 0.10939 0.60203 0.98625 0.0
C630 C 0.0732 0.54524 0.08668 0.0
C631 C 0.03948 0.52606 0.03472 0.0
H632 H 0.08708 0.52333 0.9975 0.0
C633 C 0.0157 0.53917 0.02622 0.0
C634 C 0.06473 0.51918 0.02411 0.0
C635 C 0.08929 0.50295 0.03212 0.0
C636 C 0.01782 0.54732 0.00765 0.0
C637 C 0.04411 0.54181 0.99728 0.0
C638 C 0.06706 0.52762 0.00556 0.0
C639 C 0.04973 0.55285 0.97816 0.0
C640 C 0.99317 0.56335 -0.00052 0.0
C641 C 0.01912 0.53201 0.96333 0.0
C642 C 0.02371 0.54458 0.94563 0.0
C643 C 0.05903 0.57825 0.94247 0.0
C644 C 0.09006 0.59824 0.95728 0.0
C645 C 0.08547 0.58556 0.97494 0.0
H646 H 0.97934 0.57203 0.01029 0.0
H647 H 0.01156 0.5895 0.99236 0.0
H648 H 0.96921 0.54029 0.98891 0.0
H649 H 0.9915 0.50636 0.96553 0.0
H650 H -0.0005 0.52811 0.93445 0.0
H651 H 0.61603 0.03507 0.42358 0.0
H652 H 0.61097 0.04078 0.39007 0.0
H653 H 0.53277 0.08608 0.3975 0.0
H654 H 0.53753 0.0806 0.4308 0.0
H655 H 0.53967 0.00368 0.36421 0.0
H656 H 0.61865 0.16746 0.36861 0.0
H657 H 0.62339 0.14205 0.38756 0.0
H658 H 0.58085 0.14748 0.38378 0.0
C659 C 0.59787 0.04638 0.41809 0.0
C660 C 0.57722 0.0574 0.42991 0.0
C661 C 0.59508 0.04967 0.39897 0.0
C662 C 0.57206 0.0645 0.39142 0.0
C663 C 0.55134 0.07533 0.40313 0.0
H664 H 0.44984 0.03917 0.28561 0.0
H665 H 0.47391 0.04007 0.3178 0.0
C666 C 0.55387 0.07185 0.42217 0.0
C667 C 0.56778 0.06689 0.37114 0.0
H668 H 0.57818 0.13101 0.33967 0.0
C669 C 0.54863 0.03155 0.35879 0.0
C670 C 0.57987 0.10335 0.36411 0.0
C671 C 0.60218 0.14232 0.37667 0.0
C672 C 0.53935 0.03153 0.33969 0.0
C673 C 0.54929 0.06773 0.33287 0.0
C674 C 0.57031 0.10329 0.34501 0.0
C675 C 0.53553 0.06871 0.31346 0.0
C676 C 0.51816 0.9927 0.327 0.0
C677 C 0.56243 0.08558 0.30053 0.0
C678 C 0.54873 0.08483 0.282 0.0
C679 C 0.50792 0.0674 0.27621 0.0
C680 C 0.48134 0.05192 0.28948 0.0
C681 C 0.49502 0.05251 0.30789 0.0
H682 H 0.5212 0.9693 0.33328 0.0
H683 H 0.48617 0.98261 0.32447 0.0
H684 H 0.52972 0.9962 0.31328 0.0
H685 H 0.59388 0.09846 0.30467 0.0
H686 H 0.56992 0.09684 0.27211 0.0
H687 H 0.6089 0.60274 0.75611 0.0
H688 H 0.59793 0.60132 0.72225 0.0
H689 H 0.48172 0.49815 0.72015 0.0
H690 H 0.49198 0.4998 0.75394 0.0
H691 H 0.58387 0.54464 0.69431 0.0
H692 H 0.4568 0.56858 0.69136 0.0
H693 H 0.48731 0.57656 0.71296 0.0
H694 H 0.4482 0.52739 0.70349 0.0
C695 C 0.58094 0.5798 0.74846 0.0
C696 C 0.55122 0.55151 0.75779 0.0
C697 C 0.5747 0.5791 0.72911 0.0
C698 C 0.53866 0.55019 0.71872 0.0
C699 C 0.5093 0.52147 0.72794 0.0
H700 H 0.45371 0.44576 0.60642 0.0
H701 H 0.46769 0.46565 0.64024 0.0
C702 C 0.51538 0.52227 0.74727 0.0
C703 C 0.53228 0.54878 0.69813 0.0
H704 H 0.46682 0.54252 0.66241 0.0
C705 C 0.55867 0.54489 0.68736 0.0
C706 C 0.49952 0.54939 0.68906 0.0
C707 C 0.47159 0.55613 0.69983 0.0
C708 C 0.55206 0.53962 0.66776 0.0
C709 C 0.51827 0.5382 0.65876 0.0
C710 C 0.49264 0.54352 0.66944 0.0
C711 C 0.50746 0.52766 0.63832 0.0
C712 C 0.58026 0.534 0.65668 0.0
C713 C 0.52464 0.55625 0.62614 0.0
C714 C 0.51659 0.54499 0.60677 0.0
C715 C 0.49158 0.50496 0.59942 0.0
C716 C 0.47342 0.47675 0.61172 0.0
C717 C 0.48123 0.48803 0.631 0.0
H718 H 0.60539 0.53614 0.66579 0.0
H719 H 0.56417 0.50454 0.64805 0.0
H720 H 0.59223 0.55677 0.647 0.0
H721 H 0.54501 0.587 0.63164 0.0
H722 H 0.53113 0.56725 0.59759 0.0
H723 H 0.64675 0.1262 0.58005 0.0
H724 H 0.64695 0.1285 0.61401 0.0
H725 H 0.56233 0.00309 0.60739 0.0
H726 H 0.56232 0.00029 0.57366 0.0
H727 H 0.58207 0.10936 0.6323 0.0
H728 H 0.64271 0.0139 0.64936 0.0
H729 H 0.64742 0.03419 0.62746 0.0
H730 H 0.60223 0.99043 0.63083 0.0
C731 C 0.62863 0.099 0.58584 0.0
C732 C 0.60448 0.06307 0.57411 0.0
C733 C 0.62881 0.10038 0.60524 0.0
C734 C 0.60515 0.06584 0.61323 0.0
C735 C 0.58157 0.0299 0.60157 0.0
H736 H 0.50852 -0.00165 0.71547 0.0
H737 H 0.53035 0.00193 0.68443 0.0
C738 C 0.58135 0.02847 0.58224 0.0
C739 C 0.60212 0.06771 0.63352 0.0
H740 H 0.60698 0.02508 0.67231 0.0
C741 C 0.58816 0.09147 0.64115 0.0
C742 C 0.60991 0.04417 0.64498 0.0
C743 C 0.62678 0.01953 0.63779 0.0
C744 C 0.58012 0.09104 0.65973 0.0
C745 C 0.58682 0.06663 0.67102 0.0
C746 C 0.60178 0.04364 0.66357 0.0
C747 C 0.57681 0.06348 0.69037 0.0
C748 C 0.56293 0.11544 0.66689 0.0
C749 C 0.59658 0.09655 0.70409 0.0
C750 C 0.58426 0.09458 0.72179 0.0
C751 C 0.55203 0.05943 0.7261 0.0
C752 C 0.53356 0.02576 0.7126 0.0
C753 C 0.5459 0.02779 0.69487 0.0
H754 H 0.55207 0.12612 0.65537 0.0
H755 H 0.53806 0.09798 0.6749 0.0
H756 H 0.58612 0.14168 0.67641 0.0
H757 H 0.62098 0.12414 0.70096 0.0
H758 H 0.59953 0.12078 0.73204 0.0
H759 H 0.58451 0.5158 0.90427 0.0
H760 H 0.58074 0.51497 0.93786 0.0
H761 H 0.55926 0.61222 0.93949 0.0
H762 H 0.56236 0.61298 0.90594 0.0
H763 H 0.62658 0.57458 0.96699 0.0
H764 H 0.46887 0.53154 0.96503 0.0
H765 H 0.49017 0.52717 0.94435 0.0
H766 H 0.49755 0.57437 0.95365 0.0
C767 C 0.57892 0.537 0.91175 0.0
C768 C 0.57353 0.56432 0.90236 0.0
C769 C 0.57673 0.53643 0.93095 0.0
C770 C 0.56892 0.56299 0.94108 0.0
C771 C 0.5643 0.59079 0.93184 0.0
H772 H 0.56688 0.63035 0.05677 0.0
H773 H 0.56084 0.62094 0.02262 0.0
C774 C 0.56641 0.59136 0.91267 0.0
C775 C 0.56689 0.56258 0.96145 0.0
H776 H 0.50739 0.55401 0.99506 0.0
C777 C 0.60041 0.56969 0.97313 0.0
C778 C 0.53267 0.5562 0.96938 0.0
C779 C 0.49512 0.54651 0.95745 0.0
C780 C 0.60107 0.57179 0.99261 0.0
C781 C 0.56708 0.56602 0.00056 0.0
C782 C 0.53338 0.55843 0.98889 0.0
C783 C 0.56656 0.56899 0.02104 0.0
C784 C 0.63855 0.58135 0.00458 0.0
C785 C 0.57035 0.54205 0.03137 0.0
C786 C 0.57355 0.54718 0.05087 0.0
C787 C 0.57291 0.57932 0.06037 0.0
C788 C 0.56712 0.6051 0.04989 0.0
C789 C 0.5639 0.59992 0.03038 0.0
H790 H 0.66442 0.59317 0.99662 0.0
H791 H 0.64515 0.60339 0.01684 0.0
H792 H 0.63464 0.55399 0.00984 0.0
H793 H 0.57168 0.51753 0.02436 0.0
H794 H 0.57731 0.52643 0.05853 0.0
H795 H 0.03354 0.48136 0.23992 0.0
H796 H 0.02884 0.48301 0.27356 0.0
H797 H 0.02983 0.59312 0.27422 0.0
H798 H 0.03374 0.59144 0.24076 0.0
H799 H 0.07937 0.5382 0.3027 0.0
H800 H 0.93363 0.52756 0.29989 0.0
H801 H 0.95185 0.51705 0.27934 0.0
H802 H 0.96754 0.56739 0.28819 0.0
C803 C 0.03267 0.50588 0.24723 0.0
C804 C 0.03372 0.53612 0.2376 0.0
C805 C 0.0299 0.50672 0.26643 0.0
C806 C 0.02803 0.53769 0.27629 0.0
C807 C 0.03002 0.56831 0.26679 0.0
H808 H 0.05883 0.64495 0.38653 0.0
H809 H 0.04998 0.62399 0.35295 0.0
C810 C 0.03258 0.56743 0.24765 0.0
C811 C 0.02555 0.53917 0.29666 0.0
H812 H 0.97421 0.55222 0.32981 0.0
C813 C 0.05599 0.54049 0.30864 0.0
C814 C 0.99484 0.54191 0.30437 0.0
C815 C 0.95991 0.53798 0.29226 0.0
C816 C 0.0577 0.54672 0.32813 0.0
C817 C 0.02818 0.55159 0.33575 0.0
C818 C -0.00311 0.54866 0.32384 0.0
C819 C 0.03118 0.563 0.35597 0.0
C820 C 0.09193 0.54989 0.3405 0.0
C821 C 0.02281 0.53534 0.36866 0.0
C822 C 0.02769 0.54721 0.38786 0.0
C823 C 0.04132 0.58695 0.39458 0.0
C824 C 0.04875 0.61426 0.38174 0.0
C825 C 0.04356 0.60233 0.36259 0.0
H826 H 0.11386 0.54798 0.33233 0.0
H827 H 0.10712 0.57839 0.34991 0.0
H828 H 0.08067 0.52564 0.34943 0.0
H829 H 0.01305 0.5048 0.36371 0.0
H830 H 0.02194 0.52562 0.39747 0.0
loop_
_geom_bond_atom_site_label_1
_geom_bond_atom_site_label_2
_geom_bond_distance
_geom_bond_site_symmetry_2
_ccdc_geom_bond_type
O0 Zn1 1.953 . S
O0 C16 1.225 . S
Zn1 O0 1.953 . S
Zn1 O2 1.949 . S
Zn1 O8 1.919 1_455 S
Zn1 O13 1.924 . S
O2 Zn1 1.949 . S
O2 Zn3 1.923 . S
O2 Zn4 1.950 . S
O2 Zn5 1.945 . S
Zn3 O2 1.923 . S
Zn3 O6 1.933 . S
Zn3 O9 1.941 1_455 S
Zn3 O10 1.965 1_455 S
Zn4 O2 1.950 . S
Zn4 O11 1.938 . S
Zn4 O12 1.906 . S
Zn4 O22 1.953 . S
Zn5 O2 1.945 . S
Zn5 O7 1.932 . S
Zn5 O14 1.977 . S
Zn5 O15 1.910 . S
O6 Zn3 1.933 . S
O6 C17 1.226 . S
O7 Zn5 1.932 . S
O7 C17 1.307 . S
O8 Zn1 1.919 1_655 S
O8 C19 1.253 . S
O9 Zn3 1.941 1_655 S
O9 C19 1.283 . S
O10 Zn3 1.965 1_655 S
O10 C18 1.303 . S
O11 Zn4 1.938 . S
O11 C18 1.247 1_455 S
O12 Zn4 1.906 . S
O12 C20 1.304 . S
O13 Zn1 1.924 . S
O13 C21 1.311 . S
O14 Zn5 1.977 . S
O14 C20 1.272 . S
O15 Zn5 1.910 . S
O15 C21 1.231 . S
C16 O0 1.225 . S
C16 O22 1.298 . S
C17 O6 1.226 . S
C17 O7 1.307 . S
C18 O10 1.303 . S
C18 O11 1.247 1_655 S
C19 O8 1.253 . S
C19 O9 1.283 . S
C20 O12 1.304 . S
C20 O14 1.272 . S
C21 O13 1.311 . S
C21 O15 1.231 . S
O22 Zn4 1.953 . S
O22 C16 1.298 . S
O23 Zn24 1.953 . S
O23 C39 1.225 . S
Zn24 O23 1.953 . S
Zn24 O25 1.949 . S
Zn24 O31 1.919 . S
Zn24 O36 1.924 . S
O25 Zn24 1.949 . S
O25 Zn26 1.923 . S
O25 Zn27 1.950 . S
O25 Zn28 1.945 . S
Zn26 O25 1.923 . S
Zn26 O29 1.933 . S
Zn26 O32 1.941 . S
Zn26 O33 1.965 . S
Zn27 O25 1.950 . S
Zn27 O34 1.938 . S
Zn27 O35 1.906 . S
Zn27 O45 1.953 . S
Zn28 O25 1.945 . S
Zn28 O30 1.932 . S
Zn28 O37 1.977 1_545 S
Zn28 O38 1.910 1_545 S
O29 Zn26 1.933 . S
O29 C40 1.226 . S
O30 Zn28 1.932 . S
O30 C40 1.307 . S
O31 Zn24 1.919 . S
O31 C42 1.253 . S
O32 Zn26 1.941 . S
O32 C42 1.283 . S
O33 Zn26 1.965 . S
O33 C41 1.303 . S
O34 Zn27 1.938 . S
O34 C41 1.247 . S
O35 Zn27 1.906 . S
O35 C43 1.304 1_545 S
O36 Zn24 1.924 . S
O36 C44 1.311 1_545 S
O37 Zn28 1.977 1_565 S
O37 C43 1.272 . S
O38 Zn28 1.910 1_565 S
O38 C44 1.231 . S
C39 O23 1.225 . S
C39 O45 1.298 . S
C40 O29 1.226 . S
C40 O30 1.307 . S
C41 O33 1.303 . S
C41 O34 1.247 . S
C42 O31 1.253 . S
C42 O32 1.283 . S
C43 O35 1.304 1_565 S
C43 O37 1.272 . S
C44 O36 1.311 1_565 S
C44 O38 1.231 . S
O45 Zn27 1.953 . S
O45 C39 1.298 . S
O46 Zn47 1.953 . S
O46 C62 1.225 . S
Zn47 O46 1.953 . S
Zn47 O48 1.949 . S
Zn47 O54 1.919 . S
Zn47 O59 1.924 . S
O48 Zn47 1.949 . S
O48 Zn49 1.923 . S
O48 Zn50 1.950 . S
O48 Zn51 1.945 . S
Zn49 O48 1.923 . S
Zn49 O52 1.933 . S
Zn49 O55 1.941 . S
Zn49 O56 1.965 . S
Zn50 O48 1.950 . S
Zn50 O57 1.938 . S
Zn50 O58 1.906 . S
Zn50 O68 1.953 . S
Zn51 O48 1.945 . S
Zn51 O53 1.932 . S
Zn51 O60 1.977 . S
Zn51 O61 1.910 . S
O52 Zn49 1.933 . S
O52 C63 1.226 . S
O53 Zn51 1.932 . S
O53 C63 1.307 . S
O54 Zn47 1.919 . S
O54 C65 1.253 . S
O55 Zn49 1.941 . S
O55 C65 1.283 . S
O56 Zn49 1.965 . S
O56 C64 1.303 . S
O57 Zn50 1.938 . S
O57 C64 1.247 . S
O58 Zn50 1.906 . S
O58 C66 1.304 . S
O59 Zn47 1.924 . S
O59 C67 1.311 . S
O60 Zn51 1.977 . S
O60 C66 1.272 . S
O61 Zn51 1.910 . S
O61 C67 1.231 . S
C62 O46 1.225 . S
C62 O68 1.298 . S
C63 O52 1.226 . S
C63 O53 1.307 . S
C64 O56 1.303 . S
C64 O57 1.247 . S
C65 O54 1.253 . S
C65 O55 1.283 . S
C66 O58 1.304 . S
C66 O60 1.272 . S
C67 O59 1.311 . S
C67 O61 1.231 . S
O68 Zn50 1.953 . S
O68 C62 1.298 . S
H69 C70 0.949 . S
C70 H69 0.949 . S
C70 C71 1.395 . S
C70 C72 1.391 . S
C71 C70 1.395 . S
C71 C74 1.390 . S
C72 C70 1.391 . S
C72 C76 1.387 . S
C72 C77 1.491 . S
H73 C74 0.950 . S
C74 C71 1.390 . S
C74 H73 0.950 . S
C74 C75 1.378 . S
C75 C74 1.378 . S
C75 C76 1.409 . S
C76 C72 1.387 . S
C76 C75 1.409 . S
C76 H78 0.951 . S
C77 C72 1.491 . S
C77 C79 1.382 . S
C77 C81 1.404 . S
H78 C76 0.951 . S
C79 C77 1.382 . S
C79 C80 1.390 . S
C79 H84 0.949 . S
C80 C79 1.390 . S
C80 C85 1.399 . S
C81 C77 1.404 . S
C81 H82 0.950 . S
C81 C83 1.375 . S
H82 C81 0.950 . S
C83 C81 1.375 . S
C83 C85 1.382 . S
C83 H87 0.950 . S
H84 C79 0.949 . S
C85 C80 1.399 . S
C85 C83 1.382 . S
C85 H86 0.952 . S
H86 C85 0.952 . S
H87 C83 0.950 . S
H88 C89 0.949 . S
C89 H88 0.949 . S
C89 C90 1.395 . S
C89 C91 1.391 . S
C90 C89 1.395 . S
C90 C93 1.390 . S
C91 C89 1.391 . S
C91 C95 1.387 . S
C91 C96 1.491 . S
H92 C93 0.950 . S
C93 C90 1.390 . S
C93 H92 0.950 . S
C93 C94 1.378 . S
C94 C93 1.378 . S
C94 C95 1.409 . S
C95 C91 1.387 . S
C95 C94 1.409 . S
C95 H97 0.951 . S
C96 C91 1.491 . S
C96 C98 1.382 . S
C96 C100 1.404 . S
H97 C95 0.951 . S
C98 C96 1.382 . S
C98 C99 1.390 . S
C98 H103 0.949 . S
C99 C98 1.390 . S
C99 C104 1.399 . S
C100 C96 1.404 . S
C100 H101 0.950 . S
C100 C102 1.375 . S
H101 C100 0.950 . S
C102 C100 1.375 . S
C102 C104 1.382 . S
C102 H106 0.950 . S
H103 C98 0.949 . S
C104 C99 1.399 . S
C104 C102 1.382 . S
C104 H105 0.952 . S
H105 C104 0.952 . S
H106 C102 0.950 . S
H107 C108 0.949 . S
C108 H107 0.949 . S
C108 C109 1.395 . S
C108 C110 1.391 . S
C109 C108 1.395 . S
C109 C112 1.390 . S
C110 C108 1.391 . S
C110 C114 1.387 . S
C110 C115 1.491 . S
H111 C112 0.950 . S
C112 C109 1.390 . S
C112 H111 0.950 . S
C112 C113 1.378 . S
C113 C112 1.378 . S
C113 C114 1.409 . S
C114 C110 1.387 . S
C114 C113 1.409 . S
C114 H116 0.951 . S
C115 C110 1.491 . S
C115 C117 1.382 . S
C115 C119 1.404 . S
H116 C114 0.951 . S
C117 C115 1.382 . S
C117 C118 1.390 . S
C117 H122 0.949 . S
C118 C117 1.390 . S
C118 C123 1.399 . S
C119 C115 1.404 . S
C119 H120 0.950 . S
C119 C121 1.375 . S
H120 C119 0.950 . S
C121 C119 1.375 . S
C121 C123 1.382 . S
C121 H125 0.950 . S
H122 C117 0.949 . S
C123 C118 1.399 . S
C123 C121 1.382 . S
C123 H124 0.952 . S
H124 C123 0.952 . S
H125 C121 0.950 . S
H126 C127 0.949 1_655 S
C127 H126 0.949 1_455 S
C127 C128 1.395 . S
C127 C129 1.391 . S
C128 C127 1.395 . S
C128 C131 1.390 . S
C129 C127 1.391 . S
C129 C133 1.387 . S
C129 C134 1.491 1_455 S
H130 C131 0.950 . S
C131 C128 1.390 . S
C131 H130 0.950 . S
C131 C132 1.378 . S
C132 C131 1.378 . S
C132 C133 1.409 . S
C133 C129 1.387 . S
C133 C132 1.409 . S
C133 H135 0.951 . S
C134 C129 1.491 1_655 S
C134 C136 1.382 . S
C134 C138 1.404 . S
H135 C133 0.951 . S
C136 C134 1.382 . S
C136 C137 1.390 . S
C136 H141 0.949 . S
C137 C136 1.390 . S
C137 C142 1.399 . S
C138 C134 1.404 . S
C138 H139 0.950 . S
C138 C140 1.375 . S
H139 C138 0.950 . S
C140 C138 1.375 . S
C140 C142 1.382 . S
C140 H144 0.950 . S
H141 C136 0.949 . S
C142 C137 1.399 . S
C142 C140 1.382 . S
C142 H143 0.952 . S
H143 C142 0.952 . S
H144 C140 0.950 . S
H145 C146 0.949 . S
C146 H145 0.949 . S
C146 C147 1.395 . S
C146 C148 1.391 . S
C147 C146 1.395 . S
C147 C150 1.390 . S
C148 C146 1.391 . S
C148 C152 1.387 . S
C148 C153 1.491 1_545 S
H149 C150 0.950 . S
C150 C147 1.390 . S
C150 H149 0.950 . S
C150 C151 1.378 . S
C151 C150 1.378 . S
C151 C152 1.409 . S
C152 C148 1.387 . S
C152 C151 1.409 . S
C152 H154 0.951 . S
C153 C148 1.491 1_565 S
C153 C155 1.382 . S
C153 C157 1.404 . S
H154 C152 0.951 . S
C155 C153 1.382 . S
C155 C156 1.390 . S
C155 H160 0.949 . S
C156 C155 1.390 . S
C156 C161 1.399 . S
C157 C153 1.404 . S
C157 H158 0.950 1_565 S
C157 C159 1.375 . S
H158 C157 0.950 1_545 S
C159 C157 1.375 . S
C159 C161 1.382 . S
C159 H163 0.950 . S
H160 C155 0.949 . S
C161 C156 1.399 . S
C161 C159 1.382 . S
C161 H162 0.952 . S
H162 C161 0.952 . S
H163 C159 0.950 . S
H164 C165 0.949 . S
C165 H164 0.949 . S
C165 C166 1.395 . S
C165 C167 1.391 . S
C166 C165 1.395 . S
C166 C169 1.390 . S
C167 C165 1.391 . S
C167 C171 1.387 . S
C167 C172 1.491 . S
H168 C169 0.950 . S
C169 C166 1.390 . S
C169 H168 0.950 . S
C169 C170 1.378 . S
C170 C169 1.378 . S
C170 C171 1.409 . S
C171 C167 1.387 . S
C171 C170 1.409 . S
C171 H173 0.951 . S
C172 C167 1.491 . S
C172 C174 1.382 . S
C172 C176 1.404 . S
H173 C171 0.951 . S
C174 C172 1.382 . S
C174 C175 1.390 . S
C174 H179 0.949 . S
C175 C174 1.390 . S
C175 C180 1.399 . S
C176 C172 1.404 . S
C176 H177 0.950 . S
C176 C178 1.375 . S
H177 C176 0.950 . S
C178 C176 1.375 . S
C178 C180 1.382 . S
C178 H182 0.950 . S
H179 C174 0.949 . S
C180 C175 1.399 . S
C180 C178 1.382 . S
C180 H181 0.952 . S
H181 C180 0.952 . S
H182 C178 0.950 . S
H183 C191 0.929 . S
H184 C193 0.930 . S
H185 C195 0.930 . S
H186 C198 0.929 . S
H187 C201 0.930 . S
H188 C203 0.960 . S
H189 C203 0.960 . S
H190 C203 0.960 . S
C191 H183 0.929 . S
C191 C192 1.377 . S
C191 C193 1.384 . S
C192 C191 1.377 . S
C192 C198 1.390 . S
C193 H184 0.930 . S
C193 C191 1.384 . S
C193 C194 1.372 . S
C194 C193 1.372 . S
C194 C195 1.400 . S
C194 C199 1.490 . S
C195 H185 0.930 . S
C195 C194 1.400 . S
C195 C198 1.386 . S
H196 C212 0.930 . S
H197 C213 0.931 . S
C198 H186 0.929 . S
C198 C192 1.390 . S
C198 C195 1.386 . S
C199 C194 1.490 . S
C199 C201 1.395 . S
C199 C202 1.403 . S
H200 C206 0.930 . S
C201 H187 0.930 . S
C201 C199 1.395 . S
C201 C204 1.403 . S
C202 C199 1.403 . S
C202 C203 1.524 . S
C202 C206 1.400 . S
C203 H188 0.960 . S
C203 H189 0.960 . S
C203 H190 0.960 . S
C203 C202 1.524 . S
C204 C201 1.403 . S
C204 C205 1.392 . S
C204 C208 1.495 . S
C205 C204 1.392 . S
C205 C206 1.385 . S
C205 C207 1.478 . S
C206 H200 0.930 . S
C206 C202 1.400 . S
C206 C205 1.385 . S
C207 C205 1.478 . S
C207 C209 1.381 . S
C207 C213 1.383 . S
C208 C204 1.495 . S
C208 H214 0.959 . S
C208 H215 0.961 . S
C208 H216 0.960 . S
C209 C207 1.381 . S
C209 C210 1.394 . S
C209 H217 0.930 . S
C210 C209 1.394 . S
C210 C211 1.383 . S
C210 H218 0.929 . S
C211 C210 1.383 . S
C211 C212 1.377 . S
C212 H196 0.930 . S
C212 C211 1.377 . S
C212 C213 1.379 . S
C213 H197 0.931 . S
C213 C207 1.383 . S
C213 C212 1.379 . S
H214 C208 0.959 . S
H215 C208 0.961 . S
H216 C208 0.960 . S
H217 C209 0.930 . S
H218 C210 0.929 . S
H219 C227 0.929 . S
H220 C229 0.930 . S
H221 C231 0.930 . S
H222 C234 0.929 . S
H223 C237 0.930 . S
H224 C239 0.960 . S
H225 C239 0.960 . S
H226 C239 0.960 . S
C227 H219 0.929 . S
C227 C228 1.377 . S
C227 C229 1.384 . S
C228 C227 1.377 . S
C228 C234 1.390 . S
C229 H220 0.930 . S
C229 C227 1.384 . S
C229 C230 1.372 . S
C230 C229 1.372 . S
C230 C231 1.400 . S
C230 C235 1.490 . S
C231 H221 0.930 . S
C231 C230 1.400 . S
C231 C234 1.386 . S
H232 C248 0.930 . S
H233 C249 0.931 . S
C234 H222 0.929 . S
C234 C228 1.390 . S
C234 C231 1.386 . S
C235 C230 1.490 . S
C235 C237 1.395 . S
C235 C238 1.403 . S
H236 C242 0.930 . S
C237 H223 0.930 . S
C237 C235 1.395 . S
C237 C240 1.403 . S
C238 C235 1.403 . S
C238 C239 1.524 . S
C238 C242 1.400 . S
C239 H224 0.960 . S
C239 H225 0.960 . S
C239 H226 0.960 . S
C239 C238 1.524 . S
C240 C237 1.403 . S
C240 C241 1.392 . S
C240 C244 1.495 . S
C241 C240 1.392 . S
C241 C242 1.385 . S
C241 C243 1.478 . S
C242 H236 0.930 . S
C242 C238 1.400 . S
C242 C241 1.385 . S
C243 C241 1.478 . S
C243 C245 1.381 . S
C243 C249 1.383 . S
C244 C240 1.495 . S
C244 H250 0.959 . S
C244 H251 0.961 . S
C244 H252 0.960 . S
C245 C243 1.381 . S
C245 C246 1.394 . S
C245 H253 0.930 . S
C246 C245 1.394 . S
C246 C247 1.383 . S
C246 H254 0.929 . S
C247 C246 1.383 . S
C247 C248 1.377 . S
C248 H232 0.930 . S
C248 C247 1.377 . S
C248 C249 1.379 . S
C249 H233 0.931 . S
C249 C243 1.383 . S
C249 C248 1.379 . S
H250 C244 0.959 . S
H251 C244 0.961 . S
H252 C244 0.960 . S
H253 C245 0.930 . S
H254 C246 0.929 . S
H255 C263 0.929 . S
H256 C265 0.930 . S
H257 C267 0.930 . S
H258 C270 0.929 . S
H259 C273 0.930 . S
H260 C275 0.960 . S
H261 C275 0.960 . S
H262 C275 0.960 . S
C263 H255 0.929 . S
C263 C264 1.377 . S
C263 C265 1.384 . S
C264 C263 1.377 . S
C264 C270 1.390 . S
C265 H256 0.930 . S
C265 C263 1.384 . S
C265 C266 1.372 . S
C266 C265 1.372 . S
C266 C267 1.400 . S
C266 C271 1.490 . S
C267 H257 0.930 . S
C267 C266 1.400 . S
C267 C270 1.386 . S
H268 C284 0.930 . S
H269 C285 0.931 . S
C270 H258 0.929 . S
C270 C264 1.390 . S
C270 C267 1.386 . S
C271 C266 1.490 . S
C271 C273 1.395 . S
C271 C274 1.403 . S
H272 C278 0.930 . S
C273 H259 0.930 . S
C273 C271 1.395 . S
C273 C276 1.403 . S
C274 C271 1.403 . S
C274 C275 1.524 . S
C274 C278 1.400 . S
C275 H260 0.960 . S
C275 H261 0.960 . S
C275 H262 0.960 . S
C275 C274 1.524 . S
C276 C273 1.403 . S
C276 C277 1.392 . S
C276 C280 1.495 . S
C277 C276 1.392 . S
C277 C278 1.385 . S
C277 C279 1.478 . S
C278 H272 0.930 . S
C278 C274 1.400 . S
C278 C277 1.385 . S
C279 C277 1.478 . S
C279 C281 1.381 . S
C279 C285 1.383 . S
C280 C276 1.495 . S
C280 H286 0.959 . S
C280 H287 0.961 . S
C280 H288 0.960 . S
C281 C279 1.381 . S
C281 C282 1.394 . S
C281 H289 0.930 . S
C282 C281 1.394 . S
C282 C283 1.383 . S
C282 H290 0.929 . S
C283 C282 1.383 . S
C283 C284 1.377 . S
C284 H268 0.930 . S
C284 C283 1.377 . S
C284 C285 1.379 . S
C285 H269 0.931 . S
C285 C279 1.383 . S
C285 C284 1.379 . S
H286 C280 0.959 . S
H287 C280 0.961 . S
H288 C280 0.960 . S
H289 C281 0.930 . S
H290 C282 0.929 . S
H291 C299 0.929 . S
H292 C301 0.930 . S
H293 C303 0.930 . S
H294 C306 0.929 . S
H295 C309 0.930 . S
H296 C311 0.960 . S
H297 C311 0.960 . S
H298 C311 0.960 . S
C299 H291 0.929 . S
C299 C300 1.377 . S
C299 C301 1.384 . S
C300 C299 1.377 . S
C300 C306 1.390 . S
C301 H292 0.930 . S
C301 C299 1.384 . S
C301 C302 1.372 . S
C302 C301 1.372 . S
C302 C303 1.400 . S
C302 C307 1.490 . S
C303 H293 0.930 . S
C303 C302 1.400 . S
C303 C306 1.386 . S
H304 C320 0.930 . S
H305 C321 0.931 . S
C306 H294 0.929 . S
C306 C300 1.390 . S
C306 C303 1.386 . S
C307 C302 1.490 . S
C307 C309 1.395 . S
C307 C310 1.403 . S
H308 C314 0.930 . S
C309 H295 0.930 . S
C309 C307 1.395 . S
C309 C312 1.403 . S
C310 C307 1.403 . S
C310 C311 1.524 . S
C310 C314 1.400 . S
C311 H296 0.960 . S
C311 H297 0.960 . S
C311 H298 0.960 . S
C311 C310 1.524 . S
C312 C309 1.403 . S
C312 C313 1.392 . S
C312 C316 1.495 . S
C313 C312 1.392 . S
C313 C314 1.385 . S
C313 C315 1.478 . S
C314 H308 0.930 . S
C314 C310 1.400 . S
C314 C313 1.385 . S
C315 C313 1.478 . S
C315 C317 1.381 . S
C315 C321 1.383 . S
C316 C312 1.495 . S
C316 H322 0.959 . S
C316 H323 0.961 . S
C316 H324 0.960 . S
C317 C315 1.381 . S
C317 C318 1.394 . S
C317 H325 0.930 . S
C318 C317 1.394 . S
C318 C319 1.383 . S
C318 H326 0.929 . S
C319 C318 1.383 . S
C319 C320 1.377 . S
C320 H304 0.930 . S
C320 C319 1.377 . S
C320 C321 1.379 . S
C321 H305 0.931 . S
C321 C315 1.383 . S
C321 C320 1.379 . S
H322 C316 0.959 . S
H323 C316 0.961 . S
H324 C316 0.960 . S
H325 C317 0.930 . S
H326 C318 0.929 . S
H327 C335 0.929 . S
H328 C337 0.930 . S
H329 C339 0.930 . S
H330 C342 0.929 . S
H331 C345 0.930 . S
H332 C347 0.960 . S
H333 C347 0.960 . S
H334 C347 0.960 . S
C335 H327 0.929 . S
C335 C336 1.377 . S
C335 C337 1.384 . S
C336 C335 1.377 . S
C336 C342 1.390 . S
C337 H328 0.930 . S
C337 C335 1.384 . S
C337 C338 1.372 . S
C338 C337 1.372 . S
C338 C339 1.400 . S
C338 C343 1.490 . S
C339 H329 0.930 . S
C339 C338 1.400 . S
C339 C342 1.386 . S
H340 C356 0.930 . S
H341 C357 0.931 . S
C342 H330 0.929 . S
C342 C336 1.390 . S
C342 C339 1.386 . S
C343 C338 1.490 . S
C343 C345 1.395 . S
C343 C346 1.403 . S
H344 C350 0.930 . S
C345 H331 0.930 . S
C345 C343 1.395 . S
C345 C348 1.403 . S
C346 C343 1.403 . S
C346 C347 1.524 . S
C346 C350 1.400 . S
C347 H332 0.960 . S
C347 H333 0.960 . S
C347 H334 0.960 . S
C347 C346 1.524 . S
C348 C345 1.403 . S
C348 C349 1.392 . S
C348 C352 1.495 . S
C349 C348 1.392 . S
C349 C350 1.385 . S
C349 C351 1.478 . S
C350 H344 0.930 . S
C350 C346 1.400 . S
C350 C349 1.385 . S
C351 C349 1.478 . S
C351 C353 1.381 . S
C351 C357 1.383 . S
C352 C348 1.495 . S
C352 H358 0.959 . S
C352 H359 0.961 . S
C352 H360 0.960 . S
C353 C351 1.381 . S
C353 C354 1.394 . S
C353 H361 0.930 . S
C354 C353 1.394 . S
C354 C355 1.383 . S
C354 H362 0.929 . S
C355 C354 1.383 . S
C355 C356 1.377 . S
C356 H340 0.930 . S
C356 C355 1.377 . S
C356 C357 1.379 . S
C357 H341 0.931 . S
C357 C351 1.383 . S
C357 C356 1.379 . S
H358 C352 0.959 . S
H359 C352 0.961 . S
H360 C352 0.960 . S
H361 C353 0.930 . S
H362 C354 0.929 . S
H363 C371 0.929 . S
H364 C373 0.930 . S
H365 C375 0.930 . S
H366 C378 0.929 . S
H367 C381 0.930 . S
H368 C383 0.960 . S
H369 C383 0.960 . S
H370 C383 0.960 . S
C371 H363 0.929 . S
C371 C372 1.377 . S
C371 C373 1.384 . S
C372 C371 1.377 . S
C372 C378 1.390 . S
C373 H364 0.930 . S
C373 C371 1.384 . S
C373 C374 1.372 . S
C374 C373 1.372 . S
C374 C375 1.400 . S
C374 C379 1.490 . S
C375 H365 0.930 . S
C375 C374 1.400 . S
C375 C378 1.386 . S
H376 C392 0.930 . S
H377 C393 0.931 . S
C378 H366 0.929 . S
C378 C372 1.390 . S
C378 C375 1.386 . S
C379 C374 1.490 . S
C379 C381 1.395 . S
C379 C382 1.403 . S
H380 C386 0.930 . S
C381 H367 0.930 . S
C381 C379 1.395 . S
C381 C384 1.403 . S
C382 C379 1.403 . S
C382 C383 1.524 . S
C382 C386 1.400 . S
C383 H368 0.960 . S
C383 H369 0.960 . S
C383 H370 0.960 . S
C383 C382 1.524 . S
C384 C381 1.403 . S
C384 C385 1.392 . S
C384 C388 1.495 . S
C385 C384 1.392 . S
C385 C386 1.385 . S
C385 C387 1.478 . S
C386 H380 0.930 . S
C386 C382 1.400 . S
C386 C385 1.385 . S
C387 C385 1.478 . S
C387 C389 1.381 . S
C387 C393 1.383 . S
C388 C384 1.495 . S
C388 H394 0.959 . S
C388 H395 0.961 . S
C388 H396 0.960 . S
C389 C387 1.381 . S
C389 C390 1.394 . S
C389 H397 0.930 . S
C390 C389 1.394 . S
C390 C391 1.383 . S
C390 H398 0.929 . S
C391 C390 1.383 . S
C391 C392 1.377 . S
C392 H376 0.930 . S
C392 C391 1.377 . S
C392 C393 1.379 . S
C393 H377 0.931 . S
C393 C387 1.383 . S
C393 C392 1.379 . S
H394 C388 0.959 . S
H395 C388 0.961 . S
H396 C388 0.960 . S
H397 C389 0.930 . S
H398 C390 0.929 . S
H399 C407 0.929 . S
H400 C409 0.930 . S
H401 C411 0.930 . S
H402 C414 0.929 . S
H403 C417 0.930 . S
H404 C419 0.960 . S
H405 C419 0.960 . S
H406 C419 0.960 . S
C407 H399 0.929 . S
C407 C408 1.377 . S
C407 C409 1.384 . S
C408 C407 1.377 . S
C408 C414 1.390 . S
C409 H400 0.930 . S
C409 C407 1.384 . S
C409 C410 1.372 . S
C410 C409 1.372 . S
C410 C411 1.400 . S
C410 C415 1.490 . S
C411 H401 0.930 . S
C411 C410 1.400 . S
C411 C414 1.386 . S
H412 C428 0.930 . S
H413 C429 0.931 . S
C414 H402 0.929 . S
C414 C408 1.390 . S
C414 C411 1.386 . S
C415 C410 1.490 . S
C415 C417 1.395 . S
C415 C418 1.403 . S
H416 C422 0.930 . S
C417 H403 0.930 . S
C417 C415 1.395 . S
C417 C420 1.403 . S
C418 C415 1.403 . S
C418 C419 1.524 . S
C418 C422 1.400 . S
C419 H404 0.960 . S
C419 H405 0.960 . S
C419 H406 0.960 . S
C419 C418 1.524 . S
C420 C417 1.403 . S
C420 C421 1.392 . S
C420 C424 1.495 . S
C421 C420 1.392 . S
C421 C422 1.385 . S
C421 C423 1.478 . S
C422 H416 0.930 . S
C422 C418 1.400 . S
C422 C421 1.385 . S
C423 C421 1.478 . S
C423 C425 1.381 . S
C423 C429 1.383 . S
C424 C420 1.495 . S
C424 H430 0.959 . S
C424 H431 0.961 . S
C424 H432 0.960 . S
C425 C423 1.381 . S
C425 C426 1.394 . S
C425 H433 0.930 . S
C426 C425 1.394 . S
C426 C427 1.383 . S
C426 H434 0.929 . S
C427 C426 1.383 . S
C427 C428 1.377 . S
C428 H412 0.930 . S
C428 C427 1.377 . S
C428 C429 1.379 . S
C429 H413 0.931 . S
C429 C423 1.383 . S
C429 C428 1.379 . S
H430 C424 0.959 . S
H431 C424 0.961 . S
H432 C424 0.960 . S
H433 C425 0.930 . S
H434 C426 0.929 . S
H435 C443 0.929 . S
H436 C445 0.930 . S
H437 C447 0.930 . S
H438 C450 0.929 . S
H439 C453 0.930 . S
H440 C455 0.960 . S
H441 C455 0.960 . S
H442 C455 0.960 . S
C443 H435 0.929 . S
C443 C444 1.377 . S
C443 C445 1.384 . S
C444 C443 1.377 . S
C444 C450 1.390 . S
C445 H436 0.930 . S
C445 C443 1.384 . S
C445 C446 1.372 . S
C446 C445 1.372 . S
C446 C447 1.400 . S
C446 C451 1.490 . S
C447 H437 0.930 . S
C447 C446 1.400 . S
C447 C450 1.386 . S
H448 C464 0.930 1_455 S
H449 C465 0.931 . S
C450 H438 0.929 . S
C450 C444 1.390 . S
C450 C447 1.386 . S
C451 C446 1.490 . S
C451 C453 1.395 . S
C451 C454 1.403 . S
H452 C458 0.930 . S
C453 H439 0.930 . S
C453 C451 1.395 . S
C453 C456 1.403 . S
C454 C451 1.403 . S
C454 C455 1.524 . S
C454 C458 1.400 . S
C455 H440 0.960 . S
C455 H441 0.960 . S
C455 H442 0.960 . S
C455 C454 1.524 . S
C456 C453 1.403 . S
C456 C457 1.392 . S
C456 C460 1.495 . S
C457 C456 1.392 . S
C457 C458 1.385 . S
C457 C459 1.478 . S
C458 H452 0.930 . S
C458 C454 1.400 . S
C458 C457 1.385 . S
C459 C457 1.478 . S
C459 C461 1.381 . S
C459 C465 1.383 . S
C460 C456 1.495 . S
C460 H466 0.959 . S
C460 H467 0.961 . S
C460 H468 0.960 . S
C461 C459 1.381 . S
C461 C462 1.394 . S
C461 H469 0.930 . S
C462 C461 1.394 . S
C462 C463 1.383 . S
C462 H470 0.929 . S
C463 C462 1.383 . S
C463 C464 1.377 . S
C464 H448 0.930 1_655 S
C464 C463 1.377 . S
C464 C465 1.379 . S
C465 H449 0.931 . S
C465 C459 1.383 . S
C465 C464 1.379 . S
H466 C460 0.959 . S
H467 C460 0.961 . S
H468 C460 0.960 . S
H469 C461 0.930 . S
H470 C462 0.929 . S
H471 C479 0.929 . S
H472 C481 0.930 . S
H473 C483 0.930 . S
H474 C486 0.929 . S
H475 C489 0.930 . S
H476 C491 0.960 . S
H477 C491 0.960 . S
H478 C491 0.960 . S
C479 H471 0.929 . S
C479 C480 1.377 . S
C479 C481 1.384 . S
C480 C479 1.377 . S
C480 C486 1.390 . S
C481 H472 0.930 . S
C481 C479 1.384 . S
C481 C482 1.372 . S
C482 C481 1.372 . S
C482 C483 1.400 . S
C482 C487 1.490 . S
C483 H473 0.930 . S
C483 C482 1.400 . S
C483 C486 1.386 . S
H484 C500 0.930 . S
H485 C501 0.931 . S
C486 H474 0.929 . S
C486 C480 1.390 . S
C486 C483 1.386 . S
C487 C482 1.490 . S
C487 C489 1.395 . S
C487 C490 1.403 . S
H488 C494 0.930 . S
C489 H475 0.930 . S
C489 C487 1.395 . S
C489 C492 1.403 . S
C490 C487 1.403 . S
C490 C491 1.524 . S
C490 C494 1.400 . S
C491 H476 0.960 . S
C491 H477 0.960 . S
C491 H478 0.960 . S
C491 C490 1.524 . S
C492 C489 1.403 . S
C492 C493 1.392 . S
C492 C496 1.495 . S
C493 C492 1.392 . S
C493 C494 1.385 . S
C493 C495 1.478 . S
C494 H488 0.930 . S
C494 C490 1.400 . S
C494 C493 1.385 . S
C495 C493 1.478 . S
C495 C497 1.381 . S
C495 C501 1.383 . S
C496 C492 1.495 . S
C496 H502 0.959 . S
C496 H503 0.961 . S
C496 H504 0.960 . S
C497 C495 1.381 . S
C497 C498 1.394 . S
C497 H505 0.930 . S
C498 C497 1.394 . S
C498 C499 1.383 1_565 S
C498 H506 0.929 . S
C499 C498 1.383 1_545 S
C499 C500 1.377 . S
C500 H484 0.930 . S
C500 C499 1.377 . S
C500 C501 1.379 1_545 S
C501 H485 0.931 . S
C501 C495 1.383 . S
C501 C500 1.379 1_565 S
H502 C496 0.959 . S
H503 C496 0.961 . S
H504 C496 0.960 . S
H505 C497 0.930 . S
H506 C498 0.929 . S
H507 C515 0.929 . S
H508 C517 0.930 . S
H509 C519 0.930 . S
H510 C522 0.929 . S
H511 C525 0.930 . S
H512 C527 0.960 . S
H513 C527 0.960 . S
H514 C527 0.960 . S
C515 H507 0.929 . S
C515 C516 1.377 . S
C515 C517 1.384 . S
C516 C515 1.377 . S
C516 C522 1.390 . S
C517 H508 0.930 . S
C517 C515 1.384 . S
C517 C518 1.372 . S
C518 C517 1.372 . S
C518 C519 1.400 . S
C518 C523 1.490 . S
C519 H509 0.930 . S
C519 C518 1.400 . S
C519 C522 1.386 . S
H520 C536 0.930 . S
H521 C537 0.931 . S
C522 H510 0.929 . S
C522 C516 1.390 . S
C522 C519 1.386 . S
C523 C518 1.490 . S
C523 C525 1.395 . S
C523 C526 1.403 . S
H524 C530 0.930 . S
C525 H511 0.930 . S
C525 C523 1.395 . S
C525 C528 1.403 . S
C526 C523 1.403 . S
C526 C527 1.524 . S
C526 C530 1.400 . S
C527 H512 0.960 . S
C527 H513 0.960 . S
C527 H514 0.960 . S
C527 C526 1.524 . S
C528 C525 1.403 . S
C528 C529 1.392 . S
C528 C532 1.495 . S
C529 C528 1.392 . S
C529 C530 1.385 . S
C529 C531 1.478 . S
C530 H524 0.930 . S
C530 C526 1.400 . S
C530 C529 1.385 . S
C531 C529 1.478 . S
C531 C533 1.381 . S
C531 C537 1.383 . S
C532 C528 1.495 . S
C532 H538 0.959 . S
C532 H539 0.961 . S
C532 H540 0.960 . S
C533 C531 1.381 . S
C533 C534 1.394 . S
C533 H541 0.930 . S
C534 C533 1.394 . S
C534 C535 1.383 . S
C534 H542 0.929 . S
C535 C534 1.383 . S
C535 C536 1.377 . S
C536 H520 0.930 . S
C536 C535 1.377 . S
C536 C537 1.379 . S
C537 H521 0.931 . S
C537 C531 1.383 . S
C537 C536 1.379 . S
H538 C532 0.959 . S
H539 C532 0.961 . S
H540 C532 0.960 . S
H541 C533 0.930 . S
H542 C534 0.929 . S
H543 C551 0.929 . S
H544 C553 0.930 . S
H545 C555 0.930 . S
H546 C558 0.929 . S
H547 C561 0.930 . S
H548 C563 0.960 . S
H549 C563 0.960 . S
H550 C563 0.960 . S
C551 H543 0.929 . S
C551 C552 1.377 . S
C551 C553 1.384 . S
C552 C551 1.377 . S
C552 C558 1.390 . S
C553 H544 0.930 . S
C553 C551 1.384 . S
C553 C554 1.372 . S
C554 C553 1.372 . S
C554 C555 1.400 . S
C554 C559 1.490 . S
C555 H545 0.930 . S
C555 C554 1.400 . S
C555 C558 1.386 . S
H556 C572 0.930 . S
H557 C573 0.931 . S
C558 H546 0.929 . S
C558 C552 1.390 . S
C558 C555 1.386 . S
C559 C554 1.490 . S
C559 C561 1.395 . S
C559 C562 1.403 . S
H560 C566 0.930 . S
C561 H547 0.930 . S
C561 C559 1.395 . S
C561 C564 1.403 . S
C562 C559 1.403 . S
C562 C563 1.524 . S
C562 C566 1.400 . S
C563 H548 0.960 . S
C563 H549 0.960 . S
C563 H550 0.960 . S
C563 C562 1.524 . S
C564 C561 1.403 . S
C564 C565 1.392 . S
C564 C568 1.495 . S
C565 C564 1.392 . S
C565 C566 1.385 . S
C565 C567 1.478 . S
C566 H560 0.930 . S
C566 C562 1.400 . S
C566 C565 1.385 . S
C567 C565 1.478 . S
C567 C569 1.381 . S
C567 C573 1.383 . S
C568 C564 1.495 . S
C568 H574 0.959 . S
C568 H575 0.961 . S
C568 H576 0.960 . S
C569 C567 1.381 . S
C569 C570 1.394 . S
C569 H577 0.930 . S
C570 C569 1.394 . S
C570 C571 1.383 . S
C570 H578 0.929 . S
C571 C570 1.383 . S
C571 C572 1.377 . S
C572 H556 0.930 . S
C572 C571 1.377 . S
C572 C573 1.379 . S
C573 H557 0.931 . S
C573 C567 1.383 . S
C573 C572 1.379 . S
H574 C568 0.959 . S
H575 C568 0.961 . S
H576 C568 0.960 . S
H577 C569 0.930 . S
H578 C570 0.929 . S
H579 C587 0.929 . S
H580 C589 0.930 . S
H581 C591 0.930 . S
H582 C594 0.929 . S
H583 C597 0.930 . S
H584 C599 0.960 . S
H585 C599 0.960 . S
H586 C599 0.960 . S
C587 H579 0.929 . S
C587 C588 1.377 . S
C587 C589 1.384 . S
C588 C587 1.377 . S
C588 C594 1.390 . S
C589 H580 0.930 . S
C589 C587 1.384 . S
C589 C590 1.372 . S
C590 C589 1.372 . S
C590 C591 1.400 . S
C590 C595 1.490 . S
C591 H581 0.930 . S
C591 C590 1.400 . S
C591 C594 1.386 . S
H592 C608 0.930 . S
H593 C609 0.931 . S
C594 H582 0.929 . S
C594 C588 1.390 . S
C594 C591 1.386 . S
C595 C590 1.490 . S
C595 C597 1.395 . S
C595 C598 1.403 . S
H596 C602 0.930 . S
C597 H583 0.930 . S
C597 C595 1.395 . S
C597 C600 1.403 . S
C598 C595 1.403 . S
C598 C599 1.524 . S
C598 C602 1.400 . S
C599 H584 0.960 . S
C599 H585 0.960 . S
C599 H586 0.960 . S
C599 C598 1.524 . S
C600 C597 1.403 . S
C600 C601 1.392 . S
C600 C604 1.495 . S
C601 C600 1.392 . S
C601 C602 1.385 . S
C601 C603 1.478 . S
C602 H596 0.930 . S
C602 C598 1.400 . S
C602 C601 1.385 . S
C603 C601 1.478 . S
C603 C605 1.381 . S
C603 C609 1.383 . S
C604 C600 1.495 . S
C604 H610 0.959 . S
C604 H611 0.961 . S
C604 H612 0.960 . S
C605 C603 1.381 . S
C605 C606 1.394 . S
C605 H613 0.930 . S
C606 C605 1.394 . S
C606 C607 1.383 . S
C606 H614 0.929 . S
C607 C606 1.383 . S
C607 C608 1.377 . S
C608 H592 0.930 . S
C608 C607 1.377 . S
C608 C609 1.379 . S
C609 H593 0.931 . S
C609 C603 1.383 . S
C609 C608 1.379 . S
H610 C604 0.959 . S
H611 C604 0.961 . S
H612 C604 0.960 . S
H613 C605 0.930 . S
H614 C606 0.929 . S
H615 C623 0.930 1_655 S
H616 C625 0.930 . S
H617 C627 0.930 . S
H618 C630 0.929 . S
H619 C633 0.930 1_655 S
H620 C635 0.960 . S
H621 C635 0.960 . S
H622 C635 0.960 . S
C623 H615 0.930 1_455 S
C623 C624 1.377 . S
C623 C625 1.384 . S
C624 C623 1.377 . S
C624 C630 1.390 . S
C625 H616 0.930 . S
C625 C623 1.384 . S
C625 C626 1.372 . S
C626 C625 1.372 . S
C626 C627 1.400 . S
C626 C631 1.490 . S
C627 H617 0.930 . S
C627 C626 1.400 . S
C627 C630 1.386 . S
H628 C644 0.930 . S
H629 C645 0.931 . S
C630 H618 0.929 . S
C630 C624 1.390 . S
C630 C627 1.386 . S
C631 C626 1.490 . S
C631 C633 1.395 . S
C631 C634 1.403 . S
H632 C638 0.930 . S
C633 H619 0.930 1_455 S
C633 C631 1.395 . S
C633 C636 1.403 . S
C634 C631 1.403 . S
C634 C635 1.524 . S
C634 C638 1.400 . S
C635 H620 0.960 . S
C635 H621 0.960 . S
C635 H622 0.960 . S
C635 C634 1.524 . S
C636 C633 1.403 . S
C636 C637 1.392 1_554 S
C636 C640 1.495 1_454 S
C637 C636 1.392 1_556 S
C637 C638 1.385 1_556 S
C637 C639 1.478 . S
C638 H632 0.930 . S
C638 C634 1.400 . S
C638 C637 1.385 1_554 S
C639 C637 1.478 . S
C639 C641 1.381 . S
C639 C645 1.383 . S
C640 C636 1.495 1_656 S
C640 H646 0.959 . S
C640 H647 0.961 . S
C640 H648 0.960 . S
C641 C639 1.381 . S
C641 C642 1.394 . S
C641 H649 0.930 . S
C642 C641 1.394 . S
C642 C643 1.383 . S
C642 H650 0.929 . S
C643 C642 1.383 . S
C643 C644 1.377 . S
C644 H628 0.930 . S
C644 C643 1.377 . S
C644 C645 1.379 . S
C645 H629 0.931 . S
C645 C639 1.383 . S
C645 C644 1.379 . S
H646 C640 0.959 . S
H647 C640 0.961 . S
H648 C640 0.960 . S
H649 C641 0.930 . S
H650 C642 0.929 . S
H651 C659 0.929 . S
H652 C661 0.930 . S
H653 C663 0.930 . S
H654 C666 0.929 . S
H655 C669 0.930 . S
H656 C671 0.960 . S
H657 C671 0.960 . S
H658 C671 0.960 . S
C659 H651 0.929 . S
C659 C660 1.377 . S
C659 C661 1.384 . S
C660 C659 1.377 . S
C660 C666 1.390 . S
C661 H652 0.930 . S
C661 C659 1.384 . S
C661 C662 1.372 . S
C662 C661 1.372 . S
C662 C663 1.400 . S
C662 C667 1.490 . S
C663 H653 0.930 . S
C663 C662 1.400 . S
C663 C666 1.386 . S
H664 C680 0.930 . S
H665 C681 0.931 . S
C666 H654 0.929 . S
C666 C660 1.390 . S
C666 C663 1.386 . S
C667 C662 1.490 . S
C667 C669 1.395 . S
C667 C670 1.403 . S
H668 C674 0.930 . S
C669 H655 0.930 . S
C669 C667 1.395 . S
C669 C672 1.403 . S
C670 C667 1.403 . S
C670 C671 1.524 . S
C670 C674 1.400 . S
C671 H656 0.960 . S
C671 H657 0.960 . S
C671 H658 0.960 . S
C671 C670 1.524 . S
C672 C669 1.403 . S
C672 C673 1.392 . S
C672 C676 1.495 . S
C673 C672 1.392 . S
C673 C674 1.385 . S
C673 C675 1.478 . S
C674 H668 0.930 . S
C674 C670 1.400 . S
C674 C673 1.385 . S
C675 C673 1.478 . S
C675 C677 1.381 . S
C675 C681 1.383 . S
C676 C672 1.495 . S
C676 H682 0.959 . S
C676 H683 0.961 . S
C676 H684 0.960 . S
C677 C675 1.381 . S
C677 C678 1.394 . S
C677 H685 0.930 . S
C678 C677 1.394 . S
C678 C679 1.383 . S
C678 H686 0.929 . S
C679 C678 1.383 . S
C679 C680 1.377 . S
C680 H664 0.930 . S
C680 C679 1.377 . S
C680 C681 1.379 . S
C681 H665 0.931 . S
C681 C675 1.383 . S
C681 C680 1.379 . S
H682 C676 0.959 . S
H683 C676 0.961 . S
H684 C676 0.960 . S
H685 C677 0.930 . S
H686 C678 0.929 . S
H687 C695 0.929 . S
H688 C697 0.930 . S
H689 C699 0.930 . S
H690 C702 0.929 . S
H691 C705 0.930 . S
H692 C707 0.960 . S
H693 C707 0.960 . S
H694 C707 0.960 . S
C695 H687 0.929 . S
C695 C696 1.377 . S
C695 C697 1.384 . S
C696 C695 1.377 . S
C696 C702 1.390 . S
C697 H688 0.930 . S
C697 C695 1.384 . S
C697 C698 1.372 . S
C698 C697 1.372 . S
C698 C699 1.400 . S
C698 C703 1.490 . S
C699 H689 0.930 . S
C699 C698 1.400 . S
C699 C702 1.386 . S
H700 C716 0.930 . S
H701 C717 0.931 . S
C702 H690 0.929 . S
C702 C696 1.390 . S
C702 C699 1.386 . S
C703 C698 1.490 . S
C703 C705 1.395 . S
C703 C706 1.403 . S
H704 C710 0.930 . S
C705 H691 0.930 . S
C705 C703 1.395 . S
C705 C708 1.403 . S
C706 C703 1.403 . S
C706 C707 1.524 . S
C706 C710 1.400 . S
C707 H692 0.960 . S
C707 H693 0.960 . S
C707 H694 0.960 . S
C707 C706 1.524 . S
C708 C705 1.403 . S
C708 C709 1.392 . S
C708 C712 1.495 . S
C709 C708 1.392 . S
C709 C710 1.385 . S
C709 C711 1.478 . S
C710 H704 0.930 . S
C710 C706 1.400 . S
C710 C709 1.385 . S
C711 C709 1.478 . S
C711 C713 1.381 . S
C711 C717 1.383 . S
C712 C708 1.495 . S
C712 H718 0.959 . S
C712 H719 0.961 . S
C712 H720 0.960 . S
C713 C711 1.381 . S
C713 C714 1.394 . S
C713 H721 0.930 . S
C714 C713 1.394 . S
C714 C715 1.383 . S
C714 H722 0.929 . S
C715 C714 1.383 . S
C715 C716 1.377 . S
C716 H700 0.930 . S
C716 C715 1.377 . S
C716 C717 1.379 . S
C717 H701 0.931 . S
C717 C711 1.383 . S
C717 C716 1.379 . S
H718 C712 0.959 . S
H719 C712 0.961 . S
H720 C712 0.960 . S
H721 C713 0.930 . S
H722 C714 0.929 . S
H723 C731 0.929 . S
H724 C733 0.930 . S
H725 C735 0.930 . S
H726 C738 0.929 . S
H727 C741 0.930 . S
H728 C743 0.960 1_565 S
H729 C743 0.960 1_565 S
H730 C743 0.960 . S
C731 H723 0.929 . S
C731 C732 1.377 . S
C731 C733 1.384 . S
C732 C731 1.377 . S
C732 C738 1.390 . S
C733 H724 0.930 . S
C733 C731 1.384 . S
C733 C734 1.372 . S
C734 C733 1.372 . S
C734 C735 1.400 . S
C734 C739 1.490 . S
C735 H725 0.930 . S
C735 C734 1.400 . S
C735 C738 1.386 . S
H736 C752 0.930 . S
H737 C753 0.931 . S
C738 H726 0.929 . S
C738 C732 1.390 . S
C738 C735 1.386 . S
C739 C734 1.490 . S
C739 C741 1.395 . S
C739 C742 1.403 . S
H740 C746 0.930 . S
C741 H727 0.930 . S
C741 C739 1.395 . S
C741 C744 1.403 . S
C742 C739 1.403 . S
C742 C743 1.524 . S
C742 C746 1.400 . S
C743 H728 0.960 1_545 S
C743 H729 0.960 1_545 S
C743 H730 0.960 . S
C743 C742 1.524 . S
C744 C741 1.403 . S
C744 C745 1.392 . S
C744 C748 1.495 . S
C745 C744 1.392 . S
C745 C746 1.385 . S
C745 C747 1.478 . S
C746 H740 0.930 . S
C746 C742 1.400 . S
C746 C745 1.385 . S
C747 C745 1.478 . S
C747 C749 1.381 . S
C747 C753 1.383 . S
C748 C744 1.495 . S
C748 H754 0.959 . S
C748 H755 0.961 . S
C748 H756 0.960 . S
C749 C747 1.381 . S
C749 C750 1.394 . S
C749 H757 0.930 . S
C750 C749 1.394 . S
C750 C751 1.383 . S
C750 H758 0.929 . S
C751 C750 1.383 . S
C751 C752 1.377 . S
C752 H736 0.930 . S
C752 C751 1.377 . S
C752 C753 1.379 . S
C753 H737 0.931 . S
C753 C747 1.383 . S
C753 C752 1.379 . S
H754 C748 0.959 . S
H755 C748 0.961 . S
H756 C748 0.960 . S
H757 C749 0.930 . S
H758 C750 0.929 . S
H759 C767 0.929 . S
H760 C769 0.930 . S
H761 C771 0.930 . S
H762 C774 0.929 . S
H763 C777 0.930 . S
H764 C779 0.960 . S
H765 C779 0.960 . S
H766 C779 0.960 . S
C767 H759 0.929 . S
C767 C768 1.377 . S
C767 C769 1.384 . S
C768 C767 1.377 . S
C768 C774 1.390 . S
C769 H760 0.930 . S
C769 C767 1.384 . S
C769 C770 1.372 . S
C770 C769 1.372 . S
C770 C771 1.400 . S
C770 C775 1.490 . S
C771 H761 0.930 . S
C771 C770 1.400 . S
C771 C774 1.386 . S
H772 C788 0.930 . S
H773 C789 0.931 . S
C774 H762 0.929 . S
C774 C768 1.390 . S
C774 C771 1.386 . S
C775 C770 1.490 . S
C775 C777 1.395 . S
C775 C778 1.403 . S
H776 C782 0.930 . S
C777 H763 0.930 . S
C777 C775 1.395 . S
C777 C780 1.403 . S
C778 C775 1.403 . S
C778 C779 1.524 . S
C778 C782 1.400 . S
C779 H764 0.960 . S
C779 H765 0.960 . S
C779 H766 0.960 . S
C779 C778 1.524 . S
C780 C777 1.403 . S
C780 C781 1.392 1_556 S
C780 C784 1.495 1_556 S
C781 C780 1.392 1_554 S
C781 C782 1.385 1_554 S
C781 C783 1.478 . S
C782 H776 0.930 . S
C782 C778 1.400 . S
C782 C781 1.385 1_556 S
C783 C781 1.478 . S
C783 C785 1.381 . S
C783 C789 1.383 . S
C784 C780 1.495 1_554 S
C784 H790 0.959 . S
C784 H791 0.961 . S
C784 H792 0.960 . S
C785 C783 1.381 . S
C785 C786 1.394 . S
C785 H793 0.930 . S
C786 C785 1.394 . S
C786 C787 1.383 . S
C786 H794 0.929 . S
C787 C786 1.383 . S
C787 C788 1.377 . S
C788 H772 0.930 . S
C788 C787 1.377 . S
C788 C789 1.379 . S
C789 H773 0.931 . S
C789 C783 1.383 . S
C789 C788 1.379 . S
H790 C784 0.959 . S
H791 C784 0.961 . S
H792 C784 0.960 . S
H793 C785 0.930 . S
H794 C786 0.929 . S
H795 C803 0.929 . S
H796 C805 0.930 . S
H797 C807 0.930 . S
H798 C810 0.929 . S
H799 C813 0.930 . S
H800 C815 0.960 . S
H801 C815 0.960 1_655 S
H802 C815 0.960 . S
C803 H795 0.929 . S
C803 C804 1.377 . S
C803 C805 1.384 . S
C804 C803 1.377 . S
C804 C810 1.390 . S
C805 H796 0.930 . S
C805 C803 1.384 . S
C805 C806 1.372 . S
C806 C805 1.372 . S
C806 C807 1.400 . S
C806 C811 1.490 . S
C807 H797 0.930 . S
C807 C806 1.400 . S
C807 C810 1.386 . S
H808 C824 0.930 . S
H809 C825 0.931 . S
C810 H798 0.929 . S
C810 C804 1.390 . S
C810 C807 1.386 . S
C811 C806 1.490 . S
C811 C813 1.395 . S
C811 C814 1.403 . S
H812 C818 0.930 . S
C813 H799 0.930 . S
C813 C811 1.395 . S
C813 C816 1.403 . S
C814 C811 1.403 . S
C814 C815 1.524 . S
C814 C818 1.400 . S
C815 H800 0.960 . S
C815 H801 0.960 1_455 S
C815 H802 0.960 . S
C815 C814 1.524 . S
C816 C813 1.403 . S
C816 C817 1.392 . S
C816 C820 1.495 . S
C817 C816 1.392 . S
C817 C818 1.385 . S
C817 C819 1.478 . S
C818 H812 0.930 . S
C818 C814 1.400 . S
C818 C817 1.385 . S
C819 C817 1.478 . S
C819 C821 1.381 . S
C819 C825 1.383 . S
C820 C816 1.495 . S
C820 H826 0.959 . S
C820 H827 0.961 . S
C820 H828 0.960 . S
C821 C819 1.381 . S
C821 C822 1.394 . S
C821 H829 0.934 . S
C822 C821 1.394 . S
C822 C823 1.383 . S
C822 H830 0.929 1_455 S
C823 C822 1.383 . S
C823 C824 1.377 . S
C824 H808 0.930 . S
C824 C823 1.377 . S
C824 C825 1.379 . S
C825 H809 0.931 . S
C825 C819 1.383 . S
C825 C824 1.379 . S
H826 C820 0.959 . S
H827 C820 0.961 . S
H828 C820 0.960 . S
H829 C821 0.934 . S
H830 C822 0.929 1_655 S
C192 C20 1.238 . S
C211 C175 1.224 . S
C228 C41 1.246 . S
C247 C137 1.193 . S
C264 C64 1.262 . S
C283 C156 1.237 . S
C300 C19 1.189 . S
C319 C170 1.255 . S
C355 C132 1.203 . S
C336 C44 1.188 . S
C391 C151 1.126 . S
C372 C67 1.140 . S
C408 C43 1.227 . S
C427 C99 1.141 . S
C444 C66 1.084 . S
C463 C113 1.133 1_655 S
C480 C21 1.185 . S
C499 C75 1.205 . S
C535 C94 1.204 . S
C516 C42 1.176 . S
C571 C118 1.200 . S
C552 C65 1.221 . S
C588 C18 1.250 . S
C607 C80 1.158 . S
C643 C109 1.562 . S
C624 C17 1.584 . S
C660 C39 1.593 . S
C679 C71 1.577 . S
C696 C62 1.590 . S
C715 C90 1.575 . S
C751 C147 1.568 . S
C732 C40 1.576 . S
C787 C166 1.546 . S
C768 C63 1.579 . S
C804 C16 1.589 . S
C823 C128 1.578 . S
