# Generated by pormake.
# Topology zzz, (3,6)-cn, num edge types: 1
# Building blocks:
#     Node 0, Type 0, BuildingBlock: QEWDON_clean_linker_0, # of connection points: 3
#     Node 1, Type 0, BuildingBlock: QEWDON_clean_linker_0, # of connection points: 3
#     Node 2, Type 0, BuildingBlock: QEWDON_clean_linker_0, # of connection points: 3
#     Node 3, Type 0, BuildingBlock: QEWDON_clean_linker_0, # of connection points: 3
#     Node 4, Type 0, BuildingBlock: QEWDON_clean_linker_0, # of connection points: 3
#     Node 5, Type 0, BuildingBlock: QEWDON_clean_linker_0, # of connection points: 3
#     Node 6, Type 0, BuildingBlock: QEWDON_clean_linker_0, # of connection points: 3
#     Node 7, Type 0, BuildingBlock: QEWDON_clean_linker_0, # of connection points: 3
#     Node 8, Type 1, BuildingBlock: BETFAJ_clean_sbu_0, # of connection points: 6
#     Node 9, Type 1, BuildingBlock: BETFAJ_clean_sbu_0, # of connection points: 6
#     Node 10, Type 1, BuildingBlock: BETFAJ_clean_sbu_0, # of connection points: 6
#     Node 11, Type 1, BuildingBlock: BETFAJ_clean_sbu_0, # of connection points: 6
#     Edge 12, Type (0, 1), BuildingBlock: XUDNAN_clean_linker_2, # of connection points: 2
#     Edge 13, Type (0, 1), BuildingBlock: XUDNAN_clean_linker_2, # of connection points: 2
#     Edge 14, Type (0, 1), BuildingBlock: XUDNAN_clean_linker_2, # of connection points: 2
#     Edge 15, Type (0, 1), BuildingBlock: XUDNAN_clean_linker_2, # of connection points: 2
#     Edge 16, Type (0, 1), BuildingBlock: XUDNAN_clean_linker_2, # of connection points: 2
#     Edge 17, Type (0, 1), BuildingBlock: XUDNAN_clean_linker_2, # of connection points: 2
#     Edge 18, Type (0, 1), BuildingBlock: XUDNAN_clean_linker_2, # of connection points: 2
#     Edge 19, Type (0, 1), BuildingBlock: XUDNAN_clean_linker_2, # of connection points: 2
#     Edge 20, Type (0, 1), BuildingBlock: XUDNAN_clean_linker_2, # of connection points: 2
#     Edge 21, Type (0, 1), BuildingBlock: XUDNAN_clean_linker_2, # of connection points: 2
#     Edge 22, Type (0, 1), BuildingBlock: XUDNAN_clean_linker_2, # of connection points: 2
#     Edge 23, Type (0, 1), BuildingBlock: XUDNAN_clean_linker_2, # of connection points: 2
#     Edge 24, Type (0, 1), BuildingBlock: XUDNAN_clean_linker_2, # of connection points: 2
#     Edge 25, Type (0, 1), BuildingBlock: XUDNAN_clean_linker_2, # of connection points: 2
#     Edge 26, Type (0, 1), BuildingBlock: XUDNAN_clean_linker_2, # of connection points: 2
#     Edge 27, Type (0, 1), BuildingBlock: XUDNAN_clean_linker_2, # of connection points: 2
#     Edge 28, Type (0, 1), BuildingBlock: XUDNAN_clean_linker_2, # of connection points: 2
#     Edge 29, Type (0, 1), BuildingBlock: XUDNAN_clean_linker_2, # of connection points: 2
#     Edge 30, Type (0, 1), BuildingBlock: XUDNAN_clean_linker_2, # of connection points: 2
#     Edge 31, Type (0, 1), BuildingBlock: XUDNAN_clean_linker_2, # of connection points: 2
#     Edge 32, Type (0, 1), BuildingBlock: XUDNAN_clean_linker_2, # of connection points: 2
#     Edge 33, Type (0, 1), BuildingBlock: XUDNAN_clean_linker_2, # of connection points: 2
#     Edge 34, Type (0, 1), BuildingBlock: XUDNAN_clean_linker_2, # of connection points: 2
#     Edge 35, Type (0, 1), BuildingBlock: XUDNAN_clean_linker_2, # of connection points: 2
# Relax obj value: 0.176
# Max RMSD: 0.174
# Mean RMSD: 0.124
data_MOF--net-zzz--node1-BETFAJ_clean_sbu_0--node2-QEWDON_clean_linker_0--edge1-XUDNAN_clean_linker_2
_symmetry_space_group_name_H-M    P1
_symmetry_Int_Tables_number       1
_symmetry_cell_setting            triclinic
loop_
_symmetry_equiv_pos_as_xyz
'x, y, z'
_cell_length_a     55.206415
_cell_length_b     55.478944
_cell_length_c     12.76627
_cell_angle_alpha  90.104121
_cell_angle_beta   90.146743
_cell_angle_gamma 90.05319
loop_
_atom_site_label
_atom_site_type_symbol
_atom_site_fract_x
_atom_site_fract_y
_atom_site_fract_z
_atom_type_partial_charge
H0 H 0.75213 0.50619 0.33541 0.0
C1 C 0.76539 0.51257 0.39166 0.0
C2 C 0.788 0.50155 0.39404 0.0
C3 C 0.76025 0.53191 0.45873 0.0
H4 H 0.82323 0.50024 0.46455 0.0
C5 C 0.80541 0.50856 0.46769 0.0
C6 C 0.80253 0.52959 0.52582 0.0
C7 C 0.77961 0.54138 0.52218 0.0
C8 C 0.73438 0.54046 0.46622 0.0
H9 H 0.777 0.55775 0.56701 0.0
C10 C 0.71756 0.53948 0.38005 0.0
C11 C 0.69236 0.54372 0.39561 0.0
C12 C 0.72551 0.54641 0.56579 0.0
H13 H 0.73743 0.54697 0.63328 0.0
C14 C 0.7009 0.54999 0.58189 0.0
H15 H 0.72397 0.53566 0.30172 0.0
C16 C 0.68456 0.54819 0.499 0.0
H17 H 0.66552 0.55042 0.51668 0.0
H18 H 0.69431 0.55372 0.66005 0.0
H19 H 1.00929 0.75975 0.3092 0.0
C20 C 1.01313 0.77107 0.37625 0.0
C21 C 1.01067 0.79589 0.36386 0.0
C22 C 1.02086 0.76098 0.47191 0.0
H23 H 1.01063 0.82999 0.44621 0.0
C24 C 1.01266 0.81073 0.45272 0.0
C25 C 1.02154 0.80238 0.54778 0.0
C26 C 1.02603 0.77713 0.55771 0.0
C27 C 1.02276 0.73372 0.47796 0.0
H28 H 0.03372 0.7703 0.62983 0.0
C29 C 1.02713 0.71929 0.38683 0.0
C30 C 1.0235 0.69383 0.38584 0.0
C31 C 1.01712 0.72172 0.57136 0.0
H32 H 1.01346 0.73175 0.64238 0.0
C33 C 1.01479 0.69661 0.57317 0.0
H34 H 0.03313 0.728 0.31587 0.0
C35 C 1.01743 0.68289 0.48168 0.0
H36 H 1.01398 0.66374 0.48637 0.0
H37 H 1.00994 0.68775 0.64563 0.0
H38 H 0.80459 0.04758 0.34768 0.0
C39 C 0.79139 0.03967 0.39996 0.0
C40 C 0.76854 0.05018 0.40651 0.0
C41 C 0.79699 1.01914 0.45954 0.0
H42 H 0.73311 0.04871 0.47469 0.0
C43 C 0.75117 0.04089 0.47474 0.0
C44 C 0.75485 1.01916 0.52644 0.0
C45 C 0.77804 1.00815 0.51956 0.0
C46 C 0.82283 1.01052 0.46183 0.0
H47 H 0.78114 0.99113 0.55869 0.0
C48 C 0.83868 1.01249 0.37361 0.0
C49 C 0.8637 1.00701 0.38297 0.0
C50 C 0.83259 1.0027 0.55759 0.0
H51 H 0.82136 1.00143 0.62684 0.0
C52 C 0.85719 0.99754 0.56708 0.0
H53 H 0.83162 1.01783 0.29793 0.0
C54 C 0.87258 0.99976 0.48118 0.0
H55 H 0.89159 0.99545 0.49116 0.0
H56 H 0.86445 0.9919 0.64196 0.0
H57 H 0.54756 0.79627 0.30757 0.0
C58 C 0.54352 0.7839 0.37075 0.0
C59 C 0.54879 0.75981 0.35535 0.0
C60 C 0.53315 0.79191 0.46504 0.0
H61 H 0.54842 0.72419 0.41957 0.0
C62 C 0.54497 0.74315 0.43532 0.0
C63 C 0.53275 0.74947 0.52673 0.0
C64 C 0.52695 0.7743 0.54295 0.0
C65 C 0.53033 0.81877 0.47766 0.0
H66 H 0.51726 0.77968 0.61277 0.0
C67 C 0.52535 0.83352 0.38904 0.0
C68 C 0.53106 0.85859 0.38667 0.0
C69 C 0.53761 0.83005 0.57058 0.0
H70 H 0.5417 0.8195 0.63969 0.0
C71 C 0.54143 0.85496 0.57296 0.0
H72 H 0.51789 0.82472 0.32092 0.0
C73 C 0.53891 0.86893 0.48212 0.0
H74 H 0.54372 0.88772 0.48811 0.0
H75 H 0.54761 0.86338 0.6448 0.0
H76 H 0.30186 0.52384 0.16164 0.0
C77 C 0.28967 0.51959 0.09753 0.0
C78 C 0.26615 0.51316 0.12237 0.0
C79 C 0.2966 0.52353 0.99332 0.0
H80 H 0.23081 0.50447 0.06633 0.0
C81 C 0.24914 0.50927 0.04356 0.0
C82 C 0.25379 0.51615 0.94019 0.0
C83 C 0.27807 0.52254 0.91363 0.0
C84 C 0.3221 0.53258 0.97634 0.0
H85 H 0.2821 0.52758 0.83372 0.0
C86 C 0.34148 0.52627 0.04624 0.0
C87 C 0.36428 0.53805 0.04222 0.0
C88 C 0.32663 0.55002 0.89931 0.0
H89 H 0.31254 0.55577 0.84595 0.0
C90 C 0.34908 0.56147 0.89395 0.0
H91 H 0.33885 0.5123 0.10421 0.0
C92 C 0.36746 0.55593 0.96517 0.0
H93 H 0.3842 0.56603 0.96025 0.0
H94 H 0.35207 0.57529 0.83563 0.0
H95 H 1.00808 0.30071 0.11565 0.0
C96 C 1.01716 0.28716 0.0687 0.0
C97 C 1.01043 0.26335 0.08094 0.0
C98 C 0.03463 0.29367 0.99416 0.0
H99 H 1.01579 0.22664 0.03429 0.0
C100 C 1.02102 0.24528 0.02067 0.0
C101 C 0.03877 0.25038 0.94684 0.0
C102 C 0.04567 0.27501 0.93205 0.0
C103 C 0.03853 0.3203 0.9803 0.0
H104 H 0.0594 0.27953 0.87497 0.0
C105 C 0.03949 0.33578 0.0694 0.0
C106 C 0.0349 0.36097 0.06201 0.0
C107 C 0.03511 0.33073 0.88159 0.0
H108 H 0.03359 0.31949 0.81238 0.0
C109 C 0.03154 0.35561 0.87232 0.0
H110 H 0.04263 0.32773 0.14534 0.0
C111 C 0.031 0.37049 0.96117 0.0
H112 H 1.0267 0.38934 0.95043 0.0
H113 H 1.02805 0.3633 0.79588 0.0
H114 H 0.25513 1.01971 0.16033 0.0
C115 C 0.26795 1.02397 0.09888 0.0
C116 C 0.29202 1.02541 0.12625 0.0
C117 C 0.26047 0.0266 0.99468 0.0
H118 H 0.32861 0.02916 0.07469 0.0
C119 C 0.30974 0.0292 0.05047 0.0
C120 C 0.30389 0.03101 0.94421 0.0
C121 C 0.2788 0.02933 0.91534 0.0
C122 C 0.23367 1.02352 0.97571 0.0
H123 H 0.27371 0.03022 0.83351 0.0
C124 C 0.21662 0.03067 0.05401 0.0
C125 C 0.19276 1.02137 0.05609 0.0
C126 C 0.22529 1.0093 0.89228 0.0
H127 H 0.23758 1.0033 0.83166 0.0
C128 C 0.20127 1.00115 0.89043 0.0
H129 H 0.22242 0.0422 0.11793 0.0
C130 C 0.18536 1.00656 0.9726 0.0
H131 H 0.16715 0.99931 0.97036 0.0
H132 H 0.19517 0.98977 0.82664 0.0
H133 H 0.53125 0.2538 0.16319 0.0
C134 C 0.52296 0.26518 0.10412 0.0
C135 C 0.51758 0.28855 0.13251 0.0
C136 C 0.5229 0.25819 0.99825 0.0
H137 H 0.49738 0.31917 0.08884 0.0
C138 C 0.50556 0.30274 0.05985 0.0
C139 C 0.51302 0.30088 0.95501 0.0
C140 C 0.52043 0.27719 0.92138 0.0
C141 C 0.52936 0.23206 0.97878 0.0
H142 H 0.52484 0.27389 0.8401 0.0
C143 C 0.52355 0.21452 0.05645 0.0
C144 C 0.5348 0.19163 0.06039 0.0
C145 C 0.54411 0.22483 0.89528 0.0
H146 H 0.54912 0.23744 0.83448 0.0
C147 C 0.55366 0.20138 0.89274 0.0
H148 H 0.51099 0.21926 0.1181 0.0
C149 C 0.54957 0.18514 0.9753 0.0
H150 H 0.55864 0.16786 0.97378 0.0
H151 H 0.5653 0.1961 0.82858 0.0
Sm152 Sm 0.05202 1.02009 0.83901 0.0
Sm153 Sm 1.01523 0.03201 0.64845 0.0
C154 C 0.06931 1.00288 0.01156 0.0
C155 C 0.07073 0.97672 0.02415 0.0
C156 C 0.0499 0.96277 0.00545 0.0
C157 C 0.0516 0.93799 0.99717 0.0
C158 C 0.07387 0.92648 0.01371 0.0
C159 C 0.09486 0.94016 0.02957 0.0
C160 C 0.09336 0.96529 0.0315 0.0
C161 C 0.07696 1.02426 0.64986 0.0
C162 C 1.02832 0.97443 0.70254 0.0
C163 C 1.00081 0.04525 0.46182 0.0
C164 C 0.99816 0.06937 0.41703 0.0
C165 C 1.018 0.08524 0.40994 0.0
C166 C 1.01455 0.10888 0.37613 0.0
C167 C 0.99122 0.1169 0.34941 0.0
C168 C 0.9715 0.10104 0.35782 0.0
C169 C 0.97496 0.07752 0.39126 0.0
C170 C 0.98907 0.02699 0.83311 0.0
C171 C 0.0398 0.07725 0.79166 0.0
O172 O 0.04737 1.01197 0.00779 0.0
O173 O 0.08367 1.01136 0.93906 0.0
O174 O 0.05459 1.02611 0.66747 0.0
O175 O 0.08762 1.02031 0.73872 0.0
O176 O 0.04044 0.98179 0.78624 0.0
O177 O 1.01834 0.98983 0.63489 0.0
O178 O 1.02296 0.03806 0.48075 0.0
O179 O 0.98559 0.04005 0.53699 0.0
O180 O 1.01182 1.0252 0.82068 0.0
O181 O 0.9792 0.03193 0.74324 0.0
O182 O 1.02736 0.07076 0.70604 0.0
O183 O 0.04931 0.06115 0.85654 0.0
H184 H 0.03222 0.97091 0.99514 0.0
H185 H 0.03512 0.92757 0.98647 0.0
H186 H 0.11208 0.93144 0.04423 0.0
H187 H 0.1098 0.97583 0.03897 0.0
H188 H 0.03609 0.0796 0.43209 0.0
H189 H 0.03007 0.12077 0.37072 0.0
H190 H 0.95322 0.10695 0.3409 0.0
H191 H 0.95936 0.06585 0.40011 0.0
Sm192 Sm 0.53343 0.03677 0.80322 0.0
Sm193 Sm 0.52475 1.00614 0.61553 0.0
C194 C 0.54824 0.04844 0.99205 0.0
C195 C 0.57316 0.05294 0.0283 0.0
C196 C 0.58678 0.03427 0.07405 0.0
C197 C 0.61085 0.03817 0.10317 0.0
C198 C 0.62137 0.06093 0.08886 0.0
C199 C 0.60802 0.07934 0.04099 0.0
C200 C 0.58425 0.0753 0.00965 0.0
C201 C 0.53093 0.06972 0.6404 0.0
C202 C 0.58096 1.01738 0.66301 0.0
C203 C 0.5106 0.99172 0.43087 0.0
C204 C 0.48551 0.99471 0.3979 0.0
C205 C 0.4736 1.01598 0.42713 0.0
C206 C 0.44864 1.01643 0.4345 0.0
C207 C 0.43479 0.99617 0.40576 0.0
C208 C 0.44669 0.97541 0.36963 0.0
C209 C 0.47184 0.97443 0.3694 0.0
C210 C 0.52895 0.97384 0.78066 0.0
C211 C 0.47647 1.02521 0.74507 0.0
O212 O 0.5435 1.02626 0.96463 0.0
O213 O 0.53895 0.06424 0.92761 0.0
O214 O 0.52861 0.04691 0.62848 0.0
O215 O 0.53425 0.07487 0.73821 0.0
O216 O 0.57358 0.02896 0.74846 0.0
O217 O 0.56532 1.00776 0.59779 0.0
O218 O 0.5232 1.01155 0.44308 0.0
O219 O 0.51283 0.97691 0.50939 0.0
O220 O 0.53057 0.99661 0.7889 0.0
O221 O 0.52659 0.9681 0.68326 0.0
O222 O 0.48539 1.01495 0.66042 0.0
O223 O 0.4911 0.03458 0.81693 0.0
H224 H 0.57888 1.01664 0.08689 0.0
H225 H 0.621 1.02368 0.13937 0.0
H226 H 0.616 0.09693 0.02799 0.0
H227 H 0.57453 0.08986 0.97195 0.0
H228 H 0.48356 0.03163 0.45446 0.0
H229 H 0.44046 0.03244 0.46747 0.0
H230 H 0.43676 0.95955 0.34508 0.0
H231 H 0.48032 0.95725 0.35499 0.0
Sm232 Sm 0.5072 0.52976 0.81834 0.0
Sm233 Sm 0.54564 0.52274 0.62757 0.0
C234 C 0.4887 0.54491 0.99617 0.0
C235 C 0.49307 0.56916 0.0372 0.0
C236 C 0.51318 0.58139 0.99778 0.0
C237 C 0.51758 0.605 0.0245 0.0
C238 C 0.50252 0.61678 0.09585 0.0
C239 C 0.48162 0.60525 0.13328 0.0
C240 C 0.47672 0.58138 0.10274 0.0
C241 C 0.48267 0.52464 0.62846 0.0
C242 C 0.52841 0.57766 0.68172 0.0
C243 C 0.56369 0.50946 0.44658 0.0
C244 C 0.566 0.48491 0.40498 0.0
C245 C 0.5455 0.46998 0.39506 0.0
C246 C 0.54823 0.44559 0.37293 0.0
C247 C 0.57145 0.43572 0.36091 0.0
C248 C 0.59187 0.45067 0.36822 0.0
C249 C 0.58915 0.47513 0.39003 0.0
C250 C 0.57067 0.52741 0.81773 0.0
C251 C 0.5229 0.47443 0.75429 0.0
O252 O 0.50786 0.53092 0.99252 0.0
O253 O 0.4764 0.54478 0.90871 0.0
O254 O 0.50532 0.52452 0.64509 0.0
O255 O 0.47191 0.52576 0.71859 0.0
O256 O 0.51705 0.56901 0.76511 0.0
O257 O 0.53941 0.56363 0.61273 0.0
O258 O 0.54166 0.51779 0.45631 0.0
O259 O 0.57734 0.51415 0.52796 0.0
O260 O 0.54789 0.52803 0.8026 0.0
O261 O 0.58107 0.52434 0.72773 0.0
O262 O 0.53436 0.48356 0.67171 0.0
O263 O 0.51241 0.48822 0.82654 0.0
H264 H 0.52571 0.57264 0.94595 0.0
H265 H 0.53356 0.61375 0.99303 0.0
H266 H 0.46969 0.61432 0.18776 0.0
H267 H 0.46055 0.57259 0.13094 0.0
H268 H 0.52738 0.47689 0.40759 0.0
H269 H 0.53219 0.4344 0.36597 0.0
H270 H 0.60993 0.44332 0.35982 0.0
H271 H 0.60517 0.48623 0.39922 0.0
Sm272 Sm 1.02445 0.51608 0.80853 0.0
Sm273 Sm 0.03475 0.54614 0.60792 0.0
C274 C 1.011 0.50659 0.00098 0.0
C275 C 0.98667 0.50077 0.03985 0.0
C276 C 0.97327 0.5185 0.09289 0.0
C277 C 0.9489 0.51469 0.11604 0.0
C278 C 0.93761 0.49299 0.08711 0.0
C279 C 0.95111 0.47522 0.03481 0.0
C280 C 0.9754 0.47901 0.01183 0.0
C281 C 1.02554 0.48332 0.64261 0.0
C282 C 0.97782 0.53512 0.66253 0.0
C283 C 0.04721 0.56036 0.41972 0.0
C284 C 0.07216 0.56164 0.38006 0.0
C285 C 0.08172 0.5418 0.32595 0.0
C286 C 0.10666 0.5387 0.31987 0.0
C287 C 0.12228 0.55563 0.36605 0.0
C288 C 0.1129 0.57689 0.4086 0.0
C289 C 0.08793 0.57986 0.41607 0.0
C290 C 0.03262 0.57784 0.7805 0.0
C291 C 0.08137 0.52398 0.73839 0.0
O292 O 1.01333 0.52854 0.96546 0.0
O293 O 1.02157 0.49048 0.94147 0.0
O294 O 1.02874 0.50608 0.63458 0.0
O295 O 1.02189 0.47802 0.74024 0.0
O296 O 0.9849 0.52437 0.7505 0.0
O297 O 0.99356 0.54391 0.59508 0.0
O298 O 0.03916 0.5386 0.43849 0.0
O299 O 0.04191 0.5755 0.49464 0.0
O300 O 0.0302 0.55515 0.78061 0.0
O301 O 0.03654 0.58415 0.68457 0.0
O302 O 0.07329 0.53291 0.64896 0.0
O303 O 0.06657 0.5183 0.81631 0.0
H304 H 0.9815 0.53559 0.11394 0.0
H305 H 0.93901 0.52864 0.15712 0.0
H306 H 0.94277 0.45849 0.00977 0.0
H307 H 0.98507 0.46511 0.96942 0.0
H308 H 0.07001 0.5276 0.2967 0.0
H309 H 0.11372 0.52236 0.28478 0.0
H310 H 0.12477 0.59023 0.44367 0.0
H311 H 0.08113 0.59553 0.45728 0.0
H312 H 0.16421 0.98931 0.16869 0.0
H313 H 0.18309 0.06504 0.14921 0.0
H314 H 0.15378 0.07414 0.29031 0.0
H315 H 0.10146 0.99576 0.2199 0.0
H316 H 0.09904 0.97224 0.31651 0.0
H317 H 0.12192 0.9703 0.21686 0.0
H318 H 0.15613 0.96702 0.35072 0.0
H319 H 0.13376 0.96723 0.45314 0.0
H320 H 0.15821 0.98878 0.45542 0.0
H321 H 0.12038 0.07533 0.42911 0.0
H322 H 0.09084 0.06765 0.57136 0.0
H323 H 0.09524 0.99102 0.51016 0.0
C324 C 0.1621 1.00784 0.1938 0.0
C325 C 0.17579 0.02655 0.14587 0.0
C326 C 0.17284 0.05041 0.18356 0.0
C327 C 0.15609 0.05577 0.26358 0.0
C328 C 0.14254 0.03704 0.30736 0.0
C329 C 0.14581 1.01344 0.27553 0.0
C330 C 0.12989 0.99651 0.33953 0.0
C331 C 0.11198 0.98292 0.26885 0.0
C332 C 0.14543 0.97885 0.40352 0.0
C333 C 0.11675 1.01426 0.41047 0.0
C334 C 0.12414 0.0376 0.38995 0.0
C335 C 0.11453 0.0571 0.44546 0.0
C336 C 0.09753 0.05263 0.5255 0.0
C337 C 0.09028 0.02885 0.55029 0.0
C338 C 0.09998 1.00946 0.4913 0.0
H339 H 0.53559 0.14092 0.07943 0.0
H340 H 0.53079 0.20644 0.26547 0.0
H341 H 0.52769 0.18218 0.425 0.0
H342 H 0.49505 0.10398 0.23253 0.0
H343 H 0.51311 0.07701 0.22281 0.0
H344 H 0.51435 0.09933 0.12056 0.0
H345 H 0.56104 0.10425 0.14416 0.0
H346 H 0.55946 0.08001 0.23824 0.0
H347 H 0.57333 0.10838 0.27327 0.0
H348 H 0.52571 0.15166 0.56588 0.0
H349 H 0.5259 0.11686 0.6826 0.0
H350 H 0.53324 0.06877 0.4154 0.0
C351 C 0.53383 0.15024 0.15353 0.0
C352 C 0.53278 0.17594 0.15744 0.0
C353 C 0.53071 0.18701 0.25757 0.0
C354 C 0.52919 0.1733 0.34976 0.0
C355 C 0.52997 0.14823 0.34269 0.0
C356 C 0.53239 0.13671 0.2476 0.0
C357 C 0.53369 0.10941 0.26411 0.0
C358 C 0.5128 0.09667 0.20658 0.0
C359 C 0.55836 0.09986 0.22795 0.0
C360 C 0.53109 0.10735 0.38313 0.0
C361 C 0.52914 0.13021 0.42581 0.0
C362 C 0.52716 0.13371 0.53318 0.0
C363 C 0.52731 0.11357 0.5992 0.0
C364 C 0.52945 0.08967 0.55978 0.0
C365 C 0.53126 0.08658 0.44903 0.0
H366 H 0.36378 0.52622 0.25779 0.0
H367 H 0.41257 0.53609 0.99487 0.0
H368 H 0.44739 0.53227 0.11306 0.0
H369 H 0.39587 0.55759 0.45285 0.0
H370 H 0.39174 0.53603 0.55677 0.0
H371 H 0.36983 0.53792 0.45245 0.0
H372 H 0.37549 0.49256 0.41276 0.0
H373 H 0.39737 0.49049 0.5175 0.0
H374 H 0.40542 0.48105 0.38709 0.0
H375 H 0.47754 0.53462 0.26267 0.0
H376 H 0.50036 0.53339 0.4296 0.0
H377 H 0.43394 0.51775 0.59588 0.0
C378 C 0.38178 0.52745 0.2248 0.0
C379 C 0.38507 0.53237 0.1161 0.0
C380 C 0.40917 0.53339 0.07749 0.0
C381 C 0.42927 0.53128 0.1443 0.0
C382 C 0.42549 0.52791 0.25089 0.0
C383 C 0.40239 0.52514 0.29092 0.0
C384 C 0.4038 0.52024 0.40849 0.0
C385 C 0.38946 0.53909 0.47128 0.0
C386 C 0.39498 0.49456 0.43288 0.0
C387 C 0.431 0.52244 0.4284 0.0
C388 C 0.44319 0.52666 0.33608 0.0
C389 C 0.46825 0.53047 0.335 0.0
C390 C 0.48123 0.52947 0.43027 0.0
C391 C 0.46934 0.52447 0.52582 0.0
C392 C 0.44379 0.52107 0.52408 0.0
H393 H 0.04316 0.41097 0.08696 0.0
H394 H 1.01945 0.34765 0.2595 0.0
H395 H 1.01507 0.37234 0.41713 0.0
H396 H 0.07618 0.43976 0.29405 0.0
H397 H 0.06634 0.46992 0.26316 0.0
H398 H 0.06796 0.44741 0.16148 0.0
H399 H 1.02303 0.45466 0.11499 0.0
H400 H 1.02126 0.47738 0.21581 0.0
H401 H 1.00036 0.4524 0.21575 0.0
H402 H 1.01331 0.40273 0.55715 0.0
H403 H 1.01372 0.43716 0.67543 0.0
H404 H 0.03675 0.48388 0.4211 0.0
C405 C 0.03687 0.40218 0.15737 0.0
C406 C 0.03226 0.37678 0.1589 0.0
C407 C 1.0241 0.36655 0.25449 0.0
C408 C 1.02118 0.38062 0.34519 0.0
C409 C 1.02601 0.40528 0.34066 0.0
C410 C 0.0335 0.41614 0.24941 0.0
C411 C 0.03712 0.44325 0.26753 0.0
C412 C 0.06347 0.45052 0.24526 0.0
C413 C 1.01939 0.45779 0.19951 0.0
C414 C 0.03104 0.44578 0.38428 0.0
C415 C 1.02455 0.42342 0.4232 0.0
C416 C 1.01828 0.42031 0.52746 0.0
C417 C 1.01863 0.44028 0.59451 0.0
C418 C 1.02525 0.4637 0.55953 0.0
C419 C 0.03149 0.46646 0.45152 0.0
H420 H 0.88127 0.04475 0.25683 0.0
H421 H 0.88618 0.96766 0.30732 0.0
H422 H 0.91988 0.96525 0.18149 0.0
H423 H 0.89504 0.04373 0.97442 0.0
H424 H 0.91318 0.07076 0.97826 0.0
H425 H 0.88897 0.06672 0.07091 0.0
H426 H 0.91929 0.07317 0.22433 0.0
H427 H 0.94336 0.07732 0.13083 0.0
H428 H 0.94602 0.05456 0.23045 0.0
H429 H 0.9555 0.9711 0.06304 0.0
H430 H 0.98604 0.98382 0.93247 0.0
H431 H 0.95744 0.05648 0.9423 0.0
C432 C 0.88908 0.02733 0.23909 0.0
C433 C 0.88087 1.00626 0.29177 0.0
C434 C 0.892 0.98394 0.26789 0.0
C435 C 0.91132 0.98242 0.19693 0.0
C436 C 0.91956 1.00341 0.14893 0.0
C437 C 0.90854 1.02543 0.1669 0.0
C438 C 0.92125 0.04507 0.10349 0.0
C439 C 0.90355 0.05728 0.02719 0.0
C440 C 0.93315 0.06368 0.17665 0.0
C441 C 0.94055 0.03045 0.04562 0.0
C442 C 0.93964 1.00659 0.07596 0.0
C443 C 0.95628 0.98972 0.03811 0.0
C444 C 0.97381 0.99713 0.96489 0.0
C445 C 0.97446 1.02114 0.92819 0.0
C446 C 0.9576 0.03803 0.96982 0.0
H447 H 0.53564 0.90939 0.35296 0.0
H448 H 0.52613 0.84204 0.17973 0.0
H449 H 0.5242 0.86459 0.01844 0.0
H450 H 0.49905 0.94707 0.19476 0.0
H451 H 0.51929 0.97262 0.19861 0.0
H452 H 0.51957 0.95109 0.30428 0.0
H453 H 0.565 0.94456 0.28042 0.0
H454 H 0.56508 0.96583 0.17384 0.0
H455 H 0.57632 0.93566 0.15381 0.0
H456 H 0.52236 0.89323 0.87304 0.0
H457 H 0.52252 0.92657 0.7491 0.0
H458 H 0.53634 0.97714 0.00301 0.0
C459 C 0.53333 0.89893 0.28236 0.0
C460 C 0.53028 0.87322 0.28484 0.0
C461 C 0.52742 0.86136 0.18637 0.0
C462 C 0.52667 0.87413 0.09171 0.0
C463 C 0.52958 0.89901 0.0934 0.0
C464 C 0.53333 0.91137 0.18544 0.0
C465 C 0.53677 0.93827 0.16259 0.0
C466 C 0.51746 0.95321 0.21831 0.0
C467 C 0.56232 0.94657 0.19453 0.0
C468 C 0.53337 0.93909 0.04374 0.0
C469 C 0.52945 0.91598 0.00666 0.0
C470 C 0.52554 0.91138 0.90112 0.0
C471 C 0.52565 0.93069 0.83097 0.0
C472 C 0.52951 0.9548 0.86468 0.0
C473 C 0.53341 0.95906 0.97367 0.0
H474 H 0.68656 0.51486 0.21136 0.0
H475 H 0.65496 0.57538 0.37877 0.0
H476 H 0.61991 0.57456 0.26172 0.0
H477 H 0.66731 0.53655 0.95068 0.0
H478 H 0.66095 0.50693 0.89925 0.0
H479 H 0.6837 0.51078 0.99933 0.0
H480 H 0.66161 0.47952 0.11453 0.0
H481 H 0.63854 0.47585 0.01557 0.0
H482 H 0.6302 0.48409 0.14724 0.0
H483 H 0.58604 0.56578 0.13846 0.0
H484 H 0.56003 0.55588 0.9871 0.0
H485 H 0.61388 0.50547 0.87562 0.0
C486 C 0.67242 0.52811 0.2226 0.0
C487 C 0.67347 0.54461 0.30866 0.0
C488 C 0.65449 0.56179 0.31781 0.0
C489 C 0.63433 0.56159 0.25098 0.0
C490 C 0.63324 0.5446 0.17105 0.0
C491 C 0.65205 0.52865 0.15357 0.0
C492 C 0.6464 0.51343 0.05617 0.0
C493 C 0.66574 0.51715 0.97133 0.0
C494 C 0.64405 0.48663 0.08514 0.0
C495 C 0.62184 0.52375 0.02209 0.0
C496 C 0.61437 0.54113 0.09215 0.0
C497 C 0.59189 0.55246 0.08192 0.0
C498 C 0.57699 0.54662 0.99582 0.0
C499 C 0.58466 0.53013 0.91848 0.0
C500 C 0.60742 0.51833 0.93297 0.0
H501 H 0.03327 0.64409 0.35486 0.0
H502 H 1.01456 0.70923 0.1832 0.0
H503 H 1.01454 0.68614 0.01996 0.0
H504 H 0.07163 0.61735 0.15595 0.0
H505 H 0.06123 0.58711 0.18154 0.0
H506 H 0.06059 0.60961 0.28398 0.0
H507 H 1.01487 0.60071 0.30979 0.0
H508 H 1.01556 0.57897 0.20468 0.0
H509 H 0.99456 0.60383 0.19993 0.0
H510 H 1.01622 0.65708 0.87406 0.0
H511 H 1.02032 0.6238 0.75005 0.0
H512 H 0.03605 0.57467 0.0061 0.0
C513 C 1.02892 0.65365 0.28354 0.0
C514 C 1.02426 0.67908 0.28476 0.0
C515 C 1.019 0.69028 0.18727 0.0
C516 C 1.01858 0.67712 0.09302 0.0
C517 C 1.02305 0.65238 0.09533 0.0
C518 C 1.02805 0.64062 0.18771 0.0
C519 C 0.0322 0.61371 0.16634 0.0
C520 C 0.05796 0.60647 0.19883 0.0
C521 C 1.01317 0.59839 0.22357 0.0
C522 C 1.02891 0.61228 0.04703 0.0
C523 C 1.0236 0.63504 0.00919 0.0
C524 C 1.02029 0.6392 0.90287 0.0
C525 C 1.02273 0.61995 0.83258 0.0
C526 C 1.02847 0.59627 0.86643 0.0
C527 C 0.03135 0.59233 0.97654 0.0
H528 H 1.01904 0.25372 0.28322 0.0
H529 H 0.96366 0.25361 0.04383 0.0
H530 H 0.94745 0.21571 0.11242 0.0
H531 H 0.0372 0.20298 0.2708 0.0
H532 H 0.04028 0.19251 0.40361 0.0
H533 H 0.04102 0.22418 0.37694 0.0
H534 H 1.00716 0.23159 0.50492 0.0
H535 H 1.00225 0.20012 0.53395 0.0
H536 H 0.97777 0.21803 0.48603 0.0
H537 H 0.95118 0.17306 0.14325 0.0
H538 H 0.96167 0.13151 0.19121 0.0
H539 H 1.01213 0.15841 0.42464 0.0
C540 C 1.00206 0.24684 0.25264 0.0
C541 C 0.99261 0.25594 0.15821 0.0
C542 C 0.97081 0.24668 0.11695 0.0
C543 C 0.96178 0.22491 0.15443 0.0
C544 C 0.97402 0.2139 0.23684 0.0
C545 C 0.9927 0.22519 0.29057 0.0
C546 C 1.00464 0.20806 0.36717 0.0
C547 C 0.0324 0.20688 0.35366 0.0
C548 C 0.99761 0.21491 0.47965 0.0
C549 C 0.99254 0.18474 0.33499 0.0
C550 C 0.97466 0.18865 0.26115 0.0
C551 C 0.96376 0.16978 0.20672 0.0
C552 C 0.97001 0.14627 0.23375 0.0
C553 C 0.98691 0.14183 0.31483 0.0
C554 C 0.99867 0.16133 0.36453 0.0
H555 H 0.31485 0.05557 0.25379 0.0
H556 H 0.28808 0.98282 0.22732 0.0
H557 H 0.31799 0.96916 0.3571 0.0
H558 H 0.36637 0.03972 0.19936 0.0
H559 H 0.38429 0.06066 0.27487 0.0
H560 H 0.3541 0.06842 0.23914 0.0
H561 H 0.34222 0.07479 0.43428 0.0
H562 H 0.37302 0.06791 0.47101 0.0
H563 H 0.34832 0.05141 0.52878 0.0
H564 H 0.35807 0.96075 0.42859 0.0
H565 H 0.40247 0.95864 0.44073 0.0
H566 H 0.40638 0.03565 0.38205 0.0
C567 C 0.31433 0.03723 0.28266 0.0
C568 C 0.29959 1.0202 0.23306 0.0
C569 C 0.29923 0.99607 0.26721 0.0
C570 C 0.31627 0.98821 0.34056 0.0
C571 C 0.33339 1.00478 0.37689 0.0
C572 C 0.33231 0.02906 0.34986 0.0
C573 C 0.35632 0.0415 0.36611 0.0
C574 C 0.3658 0.05319 0.26393 0.0
C575 C 0.35486 0.06 0.45543 0.0
C576 C 0.37142 1.02024 0.39771 0.0
C577 C 0.35788 0.99948 0.40862 0.0
C578 C 0.36875 0.97708 0.42371 0.0
C579 C 0.39406 0.97599 0.42792 0.0
C580 C 0.40813 0.99708 0.41258 0.0
C581 C 0.39643 1.01934 0.39879 0.0
H582 H 0.51596 0.30899 0.32606 0.0
H583 H 0.56161 0.29823 0.0551 0.0
H584 H 0.58785 0.33146 0.11081 0.0
H585 H 0.51128 0.36397 0.32881 0.0
H586 H 0.51505 0.3719 0.4645 0.0
H587 H 0.50547 0.34216 0.43059 0.0
H588 H 0.5408 0.32383 0.53248 0.0
H589 H 0.55294 0.35307 0.56786 0.0
H590 H 0.57156 0.3316 0.50021 0.0
H591 H 0.59913 0.37224 0.1572 0.0
H592 H 0.59892 0.41505 0.20893 0.0
H593 H 0.54911 0.39874 0.46066 0.0
C594 C 0.53246 0.3127 0.2834 0.0
C595 C 0.537 0.30124 0.18786 0.0
C596 C 0.55821 0.30673 0.13014 0.0
C597 C 0.57327 0.32555 0.16112 0.0
C598 C 0.56746 0.33784 0.2524 0.0
C599 C 0.54823 0.33099 0.31556 0.0
C600 C 0.54411 0.34911 0.40172 0.0
C601 C 0.51743 0.35726 0.40649 0.0
C602 C 0.55281 0.33878 0.50685 0.0
C603 C 0.56086 0.36897 0.36581 0.0
C604 C 0.57503 0.36169 0.28251 0.0
C605 C 0.5892 0.37787 0.22596 0.0
C606 C 0.58887 0.40214 0.2553 0.0
C607 C 0.57422 0.40988 0.33934 0.0
C608 C 0.56061 0.39302 0.39683 0.0
H609 H 0.25377 0.55698 0.18082 0.0
H610 H 0.25412 0.48275 0.28123 0.0
H611 H 0.22224 0.49178 0.40977 0.0
H612 H 0.2258 0.58627 0.44038 0.0
H613 H 0.20769 0.60561 0.35826 0.0
H614 H 0.23812 0.59787 0.31985 0.0
H615 H 0.22171 0.58265 0.14218 0.0
H616 H 0.1914 0.58974 0.18051 0.0
H617 H 0.19882 0.55952 0.14133 0.0
H618 H 0.18267 0.50244 0.46239 0.0
H619 H 0.14005 0.51489 0.45077 0.0
H620 H 0.1615 0.58245 0.31021 0.0
C621 C 0.24829 0.54331 0.23649 0.0
C622 C 0.25657 0.51946 0.22506 0.0
C623 C 0.24837 0.50124 0.29248 0.0
C624 C 0.2302 0.50631 0.36512 0.0
C625 C 0.22026 0.52949 0.36671 0.0
C626 C 0.22934 0.54798 0.30526 0.0
C627 C 0.21171 0.56892 0.29824 0.0
C628 C 0.22141 0.59096 0.35787 0.0
C629 C 0.20558 0.57557 0.18384 0.0
C630 C 0.19022 0.55801 0.35375 0.0
C631 C 0.19594 0.53578 0.3966 0.0
C632 C 0.17818 0.52023 0.43391 0.0
C633 C 0.15404 0.52727 0.42572 0.0
C634 C 0.14788 0.54965 0.38088 0.0
C635 C 0.16612 0.56553 0.34738 0.0
H636 H 0.99299 0.83975 0.30466 0.0
H637 H 0.03303 0.77863 0.18264 0.0
H638 H 0.05315 0.80545 0.05639 0.0
H639 H 1.00143 0.89061 0.14352 0.0
H640 H 1.01456 0.90785 0.24945 0.0
H641 H 0.99314 0.88438 0.27745 0.0
H642 H 1.025 0.86773 0.40431 0.0
H643 H 0.04871 0.88787 0.36569 0.0
H644 H 0.05311 0.85581 0.35431 0.0
H645 H 0.06927 0.8443 0.94604 0.0
H646 H 0.08543 0.88512 0.90266 0.0
H647 H 0.05629 0.9128 0.19292 0.0
C648 C 1.00573 0.83168 0.25073 0.0
C649 C 1.01202 0.80722 0.25808 0.0
C650 C 1.0277 0.79739 0.18055 0.0
C651 C 0.03968 0.81264 0.10937 0.0
C652 C 0.03697 0.83746 0.12243 0.0
C653 C 1.02136 0.84667 0.19708 0.0
C654 C 0.02914 0.87128 0.2338 0.0
C655 C 1.00833 0.88961 0.22527 0.0
C656 C 0.03959 0.87056 0.34603 0.0
C657 C 0.04899 0.87599 0.1569 0.0
C658 C 0.05305 0.85671 0.09063 0.0
C659 C 0.06731 0.85908 0.00083 0.0
C660 C 0.07669 0.88207 0.97733 0.0
C661 C 0.07267 0.90146 0.04707 0.0
C662 C 0.06024 0.89781 0.14097 0.0
H663 H 0.7584 0.03574 0.21336 0.0
H664 H 0.75466 0.09701 0.42212 0.0
H665 H 0.71691 0.11011 0.33687 0.0
H666 H 0.72372 0.0652 0.98199 0.0
H667 H 0.70752 0.03795 0.95459 0.0
H668 H 0.73854 0.03645 0.99805 0.0
H669 H 0.72772 1.00911 0.15174 0.0
H670 H 0.69662 1.00864 0.11112 0.0
H671 H 0.70436 1.01804 0.2423 0.0
H672 H 0.67494 0.10816 0.27949 0.0
H673 H 0.63397 0.0974 0.21798 0.0
H674 H 0.66321 0.03585 0.05163 0.0
C675 C 0.7507 0.05305 0.23427 0.0
C676 C 0.75927 0.0656 0.323 0.0
C677 C 0.74849 0.08763 0.35249 0.0
C678 C 0.72678 0.09487 0.30574 0.0
C679 C 0.71671 0.08007 0.22879 0.0
C680 C 0.72866 0.06 0.19049 0.0
C681 C 0.71228 0.04498 0.12087 0.0
C682 C 0.72109 0.0462 0.00715 0.0
C683 C 0.71013 1.01867 0.15894 0.0
C684 C 0.68872 0.05846 0.13424 0.0
C685 C 0.69185 0.07889 0.195 0.0
C686 C 0.67241 0.09291 0.22767 0.0
C687 C 0.64926 0.08658 0.19324 0.0
C688 C 0.64578 0.06625 0.12809 0.0
C689 C 0.66565 0.05177 0.09955 0.0
H690 H 0.51455 0.75584 0.20761 0.0
H691 H 0.58945 0.73965 0.27675 0.0
H692 H 0.5847 0.69982 0.19642 0.0
H693 H 0.49112 0.70849 0.28643 0.0
H694 H 0.46831 0.70178 0.18947 0.0
H695 H 0.47855 0.73224 0.20671 0.0
H696 H 0.49015 0.73513 0.013 0.0
H697 H 0.47966 0.70474 0.99105 0.0
H698 H 0.51007 0.71322 0.95552 0.0
H699 H 0.56733 0.66048 0.20927 0.0
H700 H 0.54438 0.62275 0.19681 0.0
H701 H 0.48106 0.66203 0.08995 0.0
C702 C 0.53046 0.74475 0.19585 0.0
C703 C 0.55218 0.75011 0.25004 0.0
C704 C 0.57276 0.73553 0.23561 0.0
C705 C 0.57001 0.71267 0.19208 0.0
C706 C 0.547 0.70585 0.15817 0.0
C707 C 0.52786 0.72185 0.15158 0.0
C708 C 0.50438 0.70877 0.1244 0.0
C709 C 0.48445 0.71311 0.20674 0.0
C710 C 0.49555 0.71584 0.01443 0.0
C711 C 0.51309 0.68292 0.12761 0.0
C712 C 0.53756 0.68191 0.15062 0.0
C713 C 0.54876 0.66074 0.18211 0.0
C714 C 0.53543 0.63956 0.17754 0.0
C715 C 0.51153 0.63962 0.13774 0.0
C716 C 0.49965 0.6616 0.11721 0.0
H717 H 0.803 0.52598 0.23152 0.0
H718 H 0.79831 0.45409 0.3595 0.0
H719 H 0.83471 0.44232 0.26023 0.0
H720 H 0.8367 0.51631 0.98306 0.0
H721 H 0.85563 0.54232 0.01258 0.0
H722 H 0.82474 0.54133 0.05599 0.0
H723 H 0.83982 0.54964 0.24291 0.0
H724 H 0.87091 0.54906 0.20224 0.0
H725 H 0.86071 0.52901 0.30392 0.0
H726 H 0.87629 0.44223 0.20154 0.0
H727 H 0.91868 0.4511 0.1599 0.0
H728 H 0.89913 0.52476 0.08162 0.0
C729 C 0.80853 0.50722 0.23082 0.0
C730 C 0.79768 0.49059 0.29939 0.0
C731 C 0.80603 0.46662 0.30384 0.0
C732 C 0.82696 0.46005 0.24937 0.0
C733 C 0.83923 0.47788 0.19359 0.0
C734 C 0.83031 0.50104 0.184 0.0
C735 C 0.84942 0.51837 0.14503 0.0
C736 C 0.84121 0.53023 0.04267 0.0
C737 C 0.85555 0.53762 0.22851 0.0
C738 C 0.87037 0.50112 0.1304 0.0
C739 C 0.86411 0.478 0.16075 0.0
C740 C 0.88121 0.45985 0.17223 0.0
C741 C 0.90526 0.46509 0.14858 0.0
C742 C 0.91204 0.4883 0.11341 0.0
C743 C 0.89437 0.50663 0.10533 0.0
H744 H 1.02477 0.22293 0.77394 0.0
H745 H 0.07631 0.22591 0.02972 0.0
H746 H 0.08226 0.18196 0.01644 0.0
H747 H 0.99582 0.16963 0.82038 0.0
H748 H 0.99538 0.15872 0.68724 0.0
H749 H 0.99735 0.19058 0.71325 0.0
H750 H 0.03896 0.19191 0.60177 0.0
H751 H 0.0339 0.16008 0.57759 0.0
H752 H 0.06187 0.17039 0.63414 0.0
H753 H 0.0768 0.13698 0.99774 0.0
H754 H 0.06774 0.09509 0.95106 0.0
H755 H 1.02223 0.11957 0.69423 0.0
C756 C 0.03843 0.21456 0.82272 0.0
C757 C 0.05061 0.22833 0.90132 0.0
C758 C 0.06749 0.21622 0.96649 0.0
C759 C 0.07059 0.19104 0.96091 0.0
C760 C 0.05732 0.17792 0.88704 0.0
C761 C 0.04245 0.18933 0.8157 0.0
C762 C 0.03105 0.17072 0.74201 0.0
C763 C 1.00326 0.17253 0.74055 0.0
C764 C 0.04196 0.17345 0.63214 0.0
C765 C 0.03953 0.14707 0.79039 0.0
C766 C 0.05508 0.1518 0.87292 0.0
C767 C 0.06508 0.13317 0.93168 0.0
C768 C 0.05964 0.10922 0.90426 0.0
C769 C 0.04428 0.1035 0.81796 0.0
C770 C 0.03407 0.12298 0.76034 0.0
H771 H 0.34289 0.06195 0.95336 0.0
H772 H 0.31497 1.00108 0.77756 0.0
H773 H 0.3557 0.99482 0.70042 0.0
H774 H 0.38938 0.0819 0.75177 0.0
H775 H 0.41052 0.09034 0.85323 0.0
H776 H 0.37839 0.0928 0.87594 0.0
H777 H 0.38323 0.06639 0.0409 0.0
H778 H 0.41515 0.06303 0.01726 0.0
H779 H 0.39621 0.03668 0.02935 0.0
H780 H 0.4009 0.99177 0.66211 0.0
H781 H 0.4453 0.99357 0.65392 0.0
H782 H 0.44536 0.05537 0.86291 0.0
C783 C 0.34507 0.04788 0.89521 0.0
C784 C 0.3253 0.03224 0.87052 0.0
C785 C 0.32932 1.01372 0.79601 0.0
C786 C 0.35262 1.00983 0.75297 0.0
C787 C 0.37191 1.02463 0.78469 0.0
C788 C 0.36826 0.04361 0.85274 0.0
C789 C 0.39228 0.05585 0.88017 0.0
C790 C 0.39267 0.08177 0.83777 0.0
C791 C 0.39699 0.05544 0.99897 0.0
C792 C 0.4103 0.04005 0.82144 0.0
C793 C 0.39801 1.02249 0.7651 0.0
C794 C 0.41052 1.00564 0.70506 0.0
C795 C 0.43595 1.00686 0.70108 0.0
C796 C 0.44924 1.02467 0.75725 0.0
C797 C 0.43602 0.04143 0.81916 0.0
H798 H 0.52264 0.34619 0.03897 0.0
H799 H 0.51259 0.31102 0.73725 0.0
H800 H 0.51467 0.35143 0.65281 0.0
H801 H 0.48039 0.39406 0.97183 0.0
H802 H 0.49571 0.41536 0.05574 0.0
H803 H 0.49587 0.38375 0.08779 0.0
H804 H 0.5426 0.38442 0.09419 0.0
H805 H 0.54276 0.4159 0.06096 0.0
H806 H 0.5594 0.39469 0.98182 0.0
H807 H 0.52069 0.39725 0.60364 0.0
H808 H 0.52265 0.44165 0.59408 0.0
H809 H 0.52055 0.4457 0.93306 0.0
C810 C 0.52014 0.34634 0.95503 0.0
C811 C 0.5164 0.32465 0.8962 0.0
C812 C 0.51522 0.32686 0.78556 0.0
C813 C 0.51654 0.34988 0.73677 0.0
C814 C 0.51909 0.37067 0.79901 0.0
C815 C 0.52027 0.3689 0.90627 0.0
C816 C 0.52002 0.39359 0.95853 0.0
C817 C 0.49661 0.39688 0.02224 0.0
C818 C 0.54255 0.39736 0.02784 0.0
C819 C 0.52014 0.40999 0.8636 0.0
C820 C 0.51972 0.39648 0.77212 0.0
C821 C 0.52064 0.40776 0.67469 0.0
C822 C 0.52179 0.43314 0.67025 0.0
C823 C 0.52148 0.44742 0.76263 0.0
C824 C 0.52049 0.43548 0.86069 0.0
H825 H 0.21321 0.54115 0.99017 0.0
H826 H 0.24325 0.49803 0.73954 0.0
H827 H 0.20235 0.49603 0.65646 0.0
H828 H 0.15982 0.50491 0.01595 0.0
H829 H 0.14172 0.53026 0.05656 0.0
H830 H 0.17374 0.52989 0.08228 0.0
H831 H 0.17697 0.57164 0.9808 0.0
H832 H 0.14482 0.57035 0.95756 0.0
H833 H 0.16542 0.57323 0.84898 0.0
H834 H 0.15582 0.49518 0.61422 0.0
H835 H 0.1112 0.50012 0.60332 0.0
H836 H 0.11191 0.53922 0.89699 0.0
C837 C 0.21135 0.53164 0.91665 0.0
C838 C 0.23165 0.51971 0.87192 0.0
C839 C 0.22827 0.50753 0.77527 0.0
C840 C 0.20494 0.50606 0.72843 0.0
C841 C 0.18507 0.51653 0.77992 0.0
C842 C 0.18825 0.5292 0.87198 0.0
C843 C 0.16415 0.53711 0.9181 0.0
C844 C 0.15961 0.52486 0.02447 0.0
C845 C 0.16276 0.56471 0.92691 0.0
C846 C 0.14665 0.52764 0.83634 0.0
C847 C 0.15894 0.5157 0.75728 0.0
C848 C 0.14631 0.5051 0.67427 0.0
C849 C 0.1209 0.50777 0.66935 0.0
C850 C 0.10804 0.52006 0.74919 0.0
C851 C 0.12117 0.52968 0.83481 0.0
H852 H 0.99636 0.83146 0.69082 0.0
H853 H 0.06636 0.82133 0.54531 0.0
H854 H 0.07516 0.86451 0.56834 0.0
H855 H 0.97964 0.88491 0.60242 0.0
H856 H 0.96903 0.89936 0.72035 0.0
H857 H 0.96914 0.867 0.71109 0.0
H858 H 0.99561 0.86374 0.8783 0.0
H859 H 0.99466 0.89614 0.89031 0.0
H860 H 1.02334 0.88078 0.88684 0.0
H861 H 0.0718 0.90993 0.56351 0.0
H862 H 0.06331 0.95333 0.5879 0.0
H863 H 0.99858 0.93563 0.76289 0.0
C864 C 1.01426 0.83794 0.67092 0.0
C865 C 0.03087 0.8224 0.61767 0.0
C866 C 0.05365 0.83224 0.58917 0.0
C867 C 0.05861 0.85705 0.59994 0.0
C868 C 0.04118 0.87205 0.64477 0.0
C869 C 1.02013 0.8627 0.68653 0.0
C870 C 1.005 0.88312 0.73443 0.0
C871 C 0.97918 0.88361 0.68926 0.0
C872 C 1.00461 0.8808 0.85455 0.0
C873 C 1.01947 0.90543 0.70194 0.0
C874 C 0.04034 0.89845 0.65052 0.0
C875 C 0.05593 0.91551 0.60674 0.0
C876 C 0.05079 0.94021 0.61976 0.0
C877 C 0.03025 0.94807 0.67639 0.0
C878 C 1.01433 0.93029 0.71811 0.0
H879 H 0.72709 0.02757 0.70436 0.0
H880 H 0.72951 0.98659 0.41557 0.0
H881 H 0.68521 0.98142 0.42189 0.0
H882 H 0.67085 0.98782 0.81418 0.0
H883 H 0.66324 1.01418 0.88923 0.0
H884 H 0.69455 1.00691 0.86117 0.0
H885 H 0.69526 0.05288 0.78487 0.0
H886 H 0.66307 0.05544 0.80353 0.0
H887 H 0.67586 0.0593 0.67484 0.0
H888 H 0.64078 0.98731 0.44049 0.0
H889 H 0.59887 0.99595 0.48772 0.0
H890 H 0.62313 0.03067 0.77523 0.0
C891 C 0.71844 1.01619 0.6463 0.0
C892 C 0.73207 1.00688 0.56068 0.0
C893 C 0.7198 0.99305 0.48372 0.0
C894 C 0.69448 0.99042 0.48571 0.0
C895 C 0.68153 1.00095 0.56751 0.0
C896 C 0.69307 1.01253 0.64932 0.0
C897 C 0.67442 1.02181 0.72806 0.0
C898 C 0.67586 1.00693 0.82939 0.0
C899 C 0.67734 0.04896 0.7491 0.0
C900 C 0.65076 1.01627 0.67146 0.0
C901 C 0.65546 1.00369 0.58015 0.0
C902 C 0.63692 0.99663 0.5131 0.0
C903 C 0.61298 1.00178 0.54115 0.0
C904 C 0.60725 1.01392 0.63629 0.0
C905 C 0.62664 1.0214 0.70212 0.0
H906 H 0.55078 0.72197 0.69469 0.0
H907 H 0.492 0.72695 0.47038 0.0
H908 H 0.4852 0.68328 0.48459 0.0
H909 H 0.57517 0.66846 0.63277 0.0
H910 H 0.57914 0.65551 0.76114 0.0
H911 H 0.57818 0.68774 0.74601 0.0
H912 H 0.54335 0.69035 0.87891 0.0
H913 H 0.54399 0.65814 0.89574 0.0
H914 H 0.5162 0.67279 0.85855 0.0
H915 H 0.49175 0.63861 0.4878 0.0
H916 H 0.50069 0.59593 0.52743 0.0
H917 H 0.54922 0.61822 0.77678 0.0
C918 C 0.53538 0.71417 0.65439 0.0
C919 C 0.52167 0.72828 0.5821 0.0
C920 C 0.50229 0.71691 0.52803 0.0
C921 C 0.49859 0.69191 0.53411 0.0
C922 C 0.51333 0.67835 0.60027 0.0
C923 C 0.53026 0.68917 0.6651 0.0
C924 C 0.54287 0.66995 0.73196 0.0
C925 C 0.57048 0.67046 0.71695 0.0
C926 C 0.5362 0.673 0.84814 0.0
C927 C 0.53179 0.64679 0.68784 0.0
C928 C 0.51501 0.65222 0.61092 0.0
C929 C 0.50403 0.63416 0.55105 0.0
C930 C 0.50936 0.60993 0.57344 0.0
C931 C 0.52521 0.60372 0.65622 0.0
C932 C 0.53669 0.62245 0.71408 0.0
H933 H 0.83255 0.51471 0.68862 0.0
H934 H 0.8267 0.56648 0.43645 0.0
H935 H 0.87083 0.57344 0.44495 0.0
H936 H 0.8825 0.54932 0.83222 0.0
H937 H 0.8974 0.52209 0.87488 0.0
H938 H 0.86506 0.52242 0.85663 0.0
H939 H 0.86703 0.4864 0.7341 0.0
H940 H 0.89944 0.48545 0.74903 0.0
H941 H 0.88622 0.4878 0.62009 0.0
H942 H 0.91615 0.5697 0.4602 0.0
H943 H 0.95874 0.56236 0.50472 0.0
H944 H 0.93665 0.51524 0.75866 0.0
C945 C 0.84038 0.52854 0.63946 0.0
C946 C 0.82578 0.54068 0.5639 0.0
C947 C 0.83709 0.55776 0.49766 0.0
C948 C 0.86232 0.56147 0.5007 0.0
C949 C 0.87624 0.54844 0.57237 0.0
C950 C 0.86564 0.53297 0.64339 0.0
C951 C 0.88508 0.52121 0.71189 0.0
C952 C 0.88241 0.52932 0.82593 0.0
C953 C 0.88439 0.49357 0.70311 0.0
C954 C 0.90815 0.53151 0.66503 0.0
C955 C 0.90254 0.54712 0.58429 0.0
C956 C 0.92063 0.55804 0.52528 0.0
C957 C 0.94495 0.55361 0.55137 0.0
C958 C 0.95142 0.53847 0.63676 0.0
C959 C 0.93255 0.52717 0.69396 0.0
loop_
_geom_bond_atom_site_label_1
_geom_bond_atom_site_label_2
_geom_bond_distance
_geom_bond_site_symmetry_2
_ccdc_geom_bond_type
H0 C1 0.949 . S
C1 H0 0.949 . S
C1 C2 1.395 . S
C1 C3 1.391 . S
C2 C1 1.395 . S
C2 C5 1.390 . S
C3 C1 1.391 . S
C3 C7 1.387 . S
C3 C8 1.491 . S
H4 C5 0.950 . S
C5 C2 1.390 . S
C5 H4 0.950 . S
C5 C6 1.378 . S
C6 C5 1.378 . S
C6 C7 1.409 . S
C7 C3 1.387 . S
C7 C6 1.409 . S
C7 H9 0.951 . S
C8 C3 1.491 . S
C8 C10 1.382 . S
C8 C12 1.404 . S
H9 C7 0.951 . S
C10 C8 1.382 . S
C10 C11 1.390 . S
C10 H15 0.949 . S
C11 C10 1.390 . S
C11 C16 1.399 . S
C12 C8 1.404 . S
C12 H13 0.950 . S
C12 C14 1.375 . S
H13 C12 0.950 . S
C14 C12 1.375 . S
C14 C16 1.382 . S
C14 H18 0.950 . S
H15 C10 0.949 . S
C16 C11 1.399 . S
C16 C14 1.382 . S
C16 H17 0.952 . S
H17 C16 0.952 . S
H18 C14 0.950 . S
H19 C20 0.949 . S
C20 H19 0.949 . S
C20 C21 1.395 . S
C20 C22 1.391 . S
C21 C20 1.395 . S
C21 C24 1.390 1_655 S
C22 C20 1.391 . S
C22 C26 1.387 . S
C22 C27 1.491 . S
H23 C24 0.950 . S
C24 C21 1.390 1_455 S
C24 H23 0.950 . S
C24 C25 1.377 1_455 S
C25 C24 1.377 1_655 S
C25 C26 1.413 . S
C26 C22 1.387 . S
C26 C25 1.413 . S
C26 H28 0.951 . S
C27 C22 1.491 . S
C27 C29 1.382 . S
C27 C31 1.404 . S
H28 C26 0.951 . S
C29 C27 1.382 . S
C29 C30 1.390 . S
C29 H34 0.949 1_655 S
C30 C29 1.390 . S
C30 C35 1.399 . S
C31 C27 1.404 . S
C31 H32 0.950 . S
C31 C33 1.375 . S
H32 C31 0.950 . S
C33 C31 1.375 . S
C33 C35 1.382 . S
C33 H37 0.950 . S
H34 C29 0.949 1_455 S
C35 C30 1.399 . S
C35 C33 1.382 . S
C35 H36 0.952 . S
H36 C35 0.952 . S
H37 C33 0.950 . S
H38 C39 0.949 . S
C39 H38 0.949 . S
C39 C40 1.395 . S
C39 C41 1.391 . S
C40 C39 1.395 . S
C40 C43 1.390 1_565 S
C41 C39 1.391 . S
C41 C45 1.387 . S
C41 C46 1.491 . S
H42 C43 0.950 . S
C43 C40 1.390 1_545 S
C43 H42 0.950 . S
C43 C44 1.377 1_545 S
C44 C43 1.377 1_565 S
C44 C45 1.413 . S
C45 C41 1.387 . S
C45 C44 1.413 . S
C45 H47 0.951 . S
C46 C41 1.491 . S
C46 C48 1.382 . S
C46 C50 1.404 . S
H47 C45 0.951 . S
C48 C46 1.382 . S
C48 C49 1.390 . S
C48 H53 0.949 1_565 S
C49 C48 1.390 . S
C49 C54 1.399 . S
C50 C46 1.404 . S
C50 H51 0.950 . S
C50 C52 1.375 . S
H51 C50 0.950 . S
C52 C50 1.375 . S
C52 C54 1.382 . S
C52 H56 0.950 . S
H53 C48 0.949 1_545 S
C54 C49 1.399 . S
C54 C52 1.382 . S
C54 H55 0.952 . S
H55 C54 0.952 . S
H56 C52 0.950 . S
H57 C58 0.949 . S
C58 H57 0.949 . S
C58 C59 1.395 . S
C58 C60 1.391 . S
C59 C58 1.395 . S
C59 C62 1.390 . S
C60 C58 1.391 . S
C60 C64 1.387 . S
C60 C65 1.491 . S
H61 C62 0.950 . S
C62 C59 1.390 . S
C62 H61 0.950 . S
C62 C63 1.378 . S
C63 C62 1.378 . S
C63 C64 1.409 . S
C64 C60 1.387 . S
C64 C63 1.409 . S
C64 H66 0.951 . S
C65 C60 1.491 . S
C65 C67 1.382 . S
C65 C69 1.404 . S
H66 C64 0.951 . S
C67 C65 1.382 . S
C67 C68 1.390 . S
C67 H72 0.949 . S
C68 C67 1.390 . S
C68 C73 1.399 . S
C69 C65 1.404 . S
C69 H70 0.950 . S
C69 C71 1.375 . S
H70 C69 0.950 . S
C71 C69 1.375 . S
C71 C73 1.382 . S
C71 H75 0.950 . S
H72 C67 0.949 . S
C73 C68 1.399 . S
C73 C71 1.382 . S
C73 H74 0.952 . S
H74 C73 0.952 . S
H75 C71 0.950 . S
H76 C77 0.949 . S
C77 H76 0.949 . S
C77 C78 1.395 . S
C77 C79 1.391 1_554 S
C78 C77 1.395 . S
C78 C81 1.390 1_554 S
C79 C77 1.391 1_556 S
C79 C83 1.387 . S
C79 C84 1.491 . S
H80 C81 0.950 . S
C81 C78 1.390 1_556 S
C81 H80 0.950 . S
C81 C82 1.378 . S
C82 C81 1.378 . S
C82 C83 1.409 . S
C83 C79 1.387 . S
C83 C82 1.409 . S
C83 H85 0.951 . S
C84 C79 1.491 . S
C84 C86 1.382 1_556 S
C84 C88 1.404 . S
H85 C83 0.951 . S
C86 C84 1.382 1_554 S
C86 C87 1.390 . S
C86 H91 0.949 . S
C87 C86 1.390 . S
C87 C92 1.399 1_554 S
C88 C84 1.404 . S
C88 H89 0.950 . S
C88 C90 1.375 . S
H89 C88 0.950 . S
C90 C88 1.375 . S
C90 C92 1.382 . S
C90 H94 0.950 . S
H91 C86 0.949 . S
C92 C87 1.399 1_556 S
C92 C90 1.382 . S
C92 H93 0.952 . S
H93 C92 0.952 . S
H94 C90 0.950 . S
H95 C96 0.949 . S
C96 H95 0.949 . S
C96 C97 1.395 1_655 S
C96 C98 1.391 1_554 S
C97 C96 1.395 1_455 S
C97 C100 1.390 1_554 S
C98 C96 1.391 1_556 S
C98 C102 1.387 . S
C98 C103 1.491 . S
H99 C100 0.950 . S
C100 C97 1.390 1_556 S
C100 H99 0.950 . S
C100 C101 1.377 1_455 S
C101 C100 1.377 1_655 S
C101 C102 1.411 . S
C102 C98 1.387 . S
C102 C101 1.411 . S
C102 H104 0.951 . S
C103 C98 1.491 . S
C103 C105 1.402 1_556 S
C103 C107 1.404 . S
H104 C102 0.951 . S
C105 C103 1.402 1_554 S
C105 C106 1.400 . S
C105 H110 0.920 1_655 S
C106 C105 1.400 . S
C106 C111 1.399 1_554 S
C107 C103 1.404 . S
C107 H108 0.950 . S
C107 C109 1.375 . S
H108 C107 0.950 . S
C109 C107 1.375 . S
C109 C111 1.382 . S
C109 H113 0.950 . S
H110 C105 0.920 1_455 S
C111 C106 1.399 1_556 S
C111 C109 1.382 . S
C111 H112 0.952 . S
H112 C111 0.952 . S
H113 C109 0.950 . S
H114 C115 0.949 . S
C115 H114 0.949 . S
C115 C116 1.395 1_565 S
C115 C117 1.391 1_554 S
C116 C115 1.395 1_545 S
C116 C119 1.390 1_554 S
C117 C115 1.391 1_556 S
C117 C121 1.387 . S
C117 C122 1.491 . S
H118 C119 0.950 . S
C119 C116 1.390 1_556 S
C119 H118 0.950 . S
C119 C120 1.377 1_545 S
C120 C119 1.377 1_565 S
C120 C121 1.411 . S
C121 C117 1.387 . S
C121 C120 1.411 . S
C121 H123 0.951 . S
C122 C117 1.491 . S
C122 C124 1.402 1_556 S
C122 C126 1.404 . S
H123 C121 0.951 . S
C124 C122 1.402 1_554 S
C124 C125 1.400 . S
C124 H129 0.920 1_565 S
C125 C124 1.400 . S
C125 C130 1.399 1_554 S
C126 C122 1.404 . S
C126 H127 0.950 . S
C126 C128 1.375 . S
H127 C126 0.950 . S
C128 C126 1.375 . S
C128 C130 1.382 . S
C128 H132 0.950 . S
H129 C124 0.920 1_545 S
C130 C125 1.399 1_556 S
C130 C128 1.382 . S
C130 H131 0.952 . S
H131 C130 0.952 . S
H132 C128 0.950 . S
H133 C134 0.949 . S
C134 H133 0.949 . S
C134 C135 1.395 . S
C134 C136 1.391 1_554 S
C135 C134 1.395 . S
C135 C138 1.390 1_554 S
C136 C134 1.391 1_556 S
C136 C140 1.387 . S
C136 C141 1.491 . S
H137 C138 0.950 . S
C138 C135 1.390 1_556 S
C138 H137 0.950 . S
C138 C139 1.378 . S
C139 C138 1.378 . S
C139 C140 1.409 . S
C140 C136 1.387 . S
C140 C139 1.409 . S
C140 H142 0.951 . S
C141 C136 1.491 . S
C141 C143 1.382 1_556 S
C141 C145 1.404 . S
H142 C140 0.951 . S
C143 C141 1.382 1_554 S
C143 C144 1.390 . S
C143 H148 0.949 . S
C144 C143 1.390 . S
C144 C149 1.399 1_554 S
C145 C141 1.404 . S
C145 H146 0.950 . S
C145 C147 1.375 . S
H146 C145 0.950 . S
C147 C145 1.375 . S
C147 C149 1.382 . S
C147 H151 0.950 . S
H148 C143 0.949 . S
C149 C144 1.399 1_556 S
C149 C147 1.382 . S
C149 H150 0.952 . S
H150 C149 0.952 . S
H151 C147 0.950 . S
Sm152 C154 2.846 . S
Sm152 O172 2.535 1_455 S
Sm152 O173 2.450 . S
Sm152 O174 2.681 1_565 S
Sm152 O175 2.464 . S
Sm152 O176 2.396 . S
Sm152 O180 2.386 1_455 S
Sm152 O183 2.408 1_565 S
Sm153 C163 2.846 . S
Sm153 O174 2.386 1_655 S
Sm153 O177 2.408 1_545 S
Sm153 O178 2.530 1_655 S
Sm153 O179 2.450 . S
Sm153 O180 2.681 1_545 S
Sm153 O181 2.464 . S
Sm153 O182 2.396 . S
C154 Sm152 2.846 . S
C154 C155 1.506 1_556 S
C154 O172 1.242 1_455 S
C154 O173 1.242 . S
C155 C154 1.506 1_554 S
C155 C156 1.358 . S
C155 C160 1.382 . S
C156 C155 1.358 . S
C156 C157 1.385 . S
C156 H184 0.930 1_455 S
C157 C156 1.385 . S
C157 C158 1.395 . S
C157 H185 0.929 1_455 S
C158 C157 1.395 . S
C158 C159 1.335 . S
C159 C158 1.335 . S
C159 C160 1.398 . S
C159 H186 0.930 . S
C160 C155 1.382 . S
C160 C159 1.398 . S
C160 H187 0.929 . S
C161 O174 1.271 1_565 S
C161 O175 1.251 . S
C162 O176 1.252 1_655 S
C162 O177 1.272 . S
C163 Sm153 2.846 . S
C163 C164 1.506 . S
C163 O178 1.231 1_655 S
C163 O179 1.242 . S
C164 C163 1.506 . S
C164 C165 1.358 . S
C164 C169 1.382 . S
C165 C164 1.358 . S
C165 C166 1.385 . S
C165 H188 0.930 1_655 S
C166 C165 1.385 . S
C166 C167 1.395 . S
C166 H189 0.929 1_655 S
C167 C166 1.395 . S
C167 C168 1.335 . S
C168 C167 1.335 . S
C168 C169 1.398 . S
C168 H190 0.930 . S
C169 C164 1.382 . S
C169 C168 1.398 . S
C169 H191 0.929 . S
C170 O180 1.271 1_545 S
C170 O181 1.251 . S
C171 O182 1.252 1_455 S
C171 O183 1.272 . S
O172 Sm152 2.535 1_655 S
O172 C154 1.242 1_655 S
O173 Sm152 2.450 . S
O173 C154 1.242 . S
O174 Sm152 2.681 1_545 S
O174 Sm153 2.386 1_455 S
O174 C161 1.271 1_545 S
O175 Sm152 2.464 . S
O175 C161 1.251 . S
O176 Sm152 2.396 . S
O176 C162 1.252 1_455 S
O177 Sm153 2.408 1_565 S
O177 C162 1.272 . S
O178 Sm153 2.530 1_455 S
O178 C163 1.231 1_455 S
O179 Sm153 2.450 . S
O179 C163 1.242 . S
O180 Sm152 2.386 1_655 S
O180 Sm153 2.681 1_565 S
O180 C170 1.271 1_565 S
O181 Sm153 2.464 . S
O181 C170 1.251 . S
O182 Sm153 2.396 . S
O182 C171 1.252 1_655 S
O183 Sm152 2.408 1_545 S
O183 C171 1.272 . S
H184 C156 0.930 1_655 S
H185 C157 0.929 1_655 S
H186 C159 0.930 . S
H187 C160 0.929 . S
H188 C165 0.930 1_455 S
H189 C166 0.929 1_455 S
H190 C168 0.930 . S
H191 C169 0.929 . S
Sm192 C194 2.846 . S
Sm192 O212 2.533 1_545 S
Sm192 O213 2.450 . S
Sm192 O214 2.681 . S
Sm192 O215 2.464 . S
Sm192 O216 2.396 . S
Sm192 O220 2.386 1_545 S
Sm192 O223 2.408 . S
Sm193 C203 2.846 . S
Sm193 O214 2.386 1_565 S
Sm193 O217 2.408 . S
Sm193 O218 2.529 1_565 S
Sm193 O219 2.450 . S
Sm193 O220 2.681 . S
Sm193 O221 2.464 . S
Sm193 O222 2.396 . S
C194 Sm192 2.846 . S
C194 C195 1.506 1_556 S
C194 O212 1.239 1_545 S
C194 O213 1.242 . S
C195 C194 1.506 1_554 S
C195 C196 1.358 . S
C195 C200 1.382 . S
C196 C195 1.358 . S
C196 C197 1.385 . S
C196 H224 0.930 1_545 S
C197 C196 1.385 . S
C197 C198 1.395 . S
C197 H225 0.929 1_545 S
C198 C197 1.395 . S
C198 C199 1.335 . S
C199 C198 1.335 . S
C199 C200 1.398 . S
C199 H226 0.930 . S
C200 C195 1.382 . S
C200 C199 1.398 . S
C200 H227 0.929 . S
C201 O214 1.271 . S
C201 O215 1.251 . S
C202 O216 1.252 1_565 S
C202 O217 1.272 . S
C203 Sm193 2.846 . S
C203 C204 1.506 . S
C203 O218 1.228 1_565 S
C203 O219 1.242 . S
C204 C203 1.506 . S
C204 C205 1.358 . S
C204 C209 1.382 . S
C205 C204 1.358 . S
C205 C206 1.385 . S
C205 H228 0.930 1_565 S
C206 C205 1.385 . S
C206 C207 1.395 . S
C206 H229 0.929 1_565 S
C207 C206 1.395 . S
C207 C208 1.335 . S
C208 C207 1.335 . S
C208 C209 1.398 . S
C208 H230 0.930 . S
C209 C204 1.382 . S
C209 C208 1.398 . S
C209 H231 0.929 . S
C210 O220 1.271 . S
C210 O221 1.251 . S
C211 O222 1.252 1_545 S
C211 O223 1.272 . S
O212 Sm192 2.533 1_565 S
O212 C194 1.239 1_565 S
O213 Sm192 2.450 . S
O213 C194 1.242 . S
O214 Sm192 2.681 . S
O214 Sm193 2.386 1_545 S
O214 C201 1.271 . S
O215 Sm192 2.464 . S
O215 C201 1.251 . S
O216 Sm192 2.396 . S
O216 C202 1.252 1_545 S
O217 Sm193 2.408 . S
O217 C202 1.272 . S
O218 Sm193 2.529 1_545 S
O218 C203 1.228 1_545 S
O219 Sm193 2.450 . S
O219 C203 1.242 . S
O220 Sm192 2.386 1_565 S
O220 Sm193 2.681 . S
O220 C210 1.271 . S
O221 Sm193 2.464 . S
O221 C210 1.251 . S
O222 Sm193 2.396 . S
O222 C211 1.252 1_565 S
O223 Sm192 2.408 . S
O223 C211 1.272 . S
H224 C196 0.930 1_565 S
H225 C197 0.929 1_565 S
H226 C199 0.930 . S
H227 C200 0.929 . S
H228 C205 0.930 1_545 S
H229 C206 0.929 1_545 S
H230 C208 0.930 . S
H231 C209 0.929 . S
Sm232 C234 2.846 . S
Sm232 O252 2.543 . S
Sm232 O253 2.450 . S
Sm232 O254 2.681 . S
Sm232 O255 2.464 . S
Sm232 O256 2.396 . S
Sm232 O260 2.386 . S
Sm232 O263 2.408 . S
Sm233 C243 2.846 . S
Sm233 O254 2.386 . S
Sm233 O257 2.408 . S
Sm233 O258 2.543 . S
Sm233 O259 2.450 . S
Sm233 O260 2.681 . S
Sm233 O261 2.464 . S
Sm233 O262 2.396 . S
C234 Sm232 2.846 . S
C234 C235 1.506 1_556 S
C234 O252 1.261 . S
C234 O253 1.242 . S
C235 C234 1.506 1_554 S
C235 C236 1.358 . S
C235 C240 1.382 . S
C236 C235 1.358 . S
C236 C237 1.385 . S
C236 H264 0.930 . S
C237 C236 1.385 . S
C237 C238 1.395 . S
C237 H265 0.929 . S
C238 C237 1.395 . S
C238 C239 1.335 . S
C239 C238 1.335 . S
C239 C240 1.398 . S
C239 H266 0.930 . S
C240 C235 1.382 . S
C240 C239 1.398 . S
C240 H267 0.929 . S
C241 O254 1.271 . S
C241 O255 1.251 . S
C242 O256 1.252 . S
C242 O257 1.272 . S
C243 Sm233 2.846 . S
C243 C244 1.506 . S
C243 O258 1.261 . S
C243 O259 1.242 . S
C244 C243 1.506 . S
C244 C245 1.358 . S
C244 C249 1.382 . S
C245 C244 1.358 . S
C245 C246 1.385 . S
C245 H268 0.930 . S
C246 C245 1.385 . S
C246 C247 1.395 . S
C246 H269 0.929 . S
C247 C246 1.395 . S
C247 C248 1.335 . S
C248 C247 1.335 . S
C248 C249 1.398 . S
C248 H270 0.930 . S
C249 C244 1.382 . S
C249 C248 1.398 . S
C249 H271 0.929 . S
C250 O260 1.271 . S
C250 O261 1.251 . S
C251 O262 1.252 . S
C251 O263 1.272 . S
O252 Sm232 2.543 . S
O252 C234 1.261 . S
O253 Sm232 2.450 . S
O253 C234 1.242 . S
O254 Sm232 2.681 . S
O254 Sm233 2.386 . S
O254 C241 1.271 . S
O255 Sm232 2.464 . S
O255 C241 1.251 . S
O256 Sm232 2.396 . S
O256 C242 1.252 . S
O257 Sm233 2.408 . S
O257 C242 1.272 . S
O258 Sm233 2.543 . S
O258 C243 1.261 . S
O259 Sm233 2.450 . S
O259 C243 1.242 . S
O260 Sm232 2.386 . S
O260 Sm233 2.681 . S
O260 C250 1.271 . S
O261 Sm233 2.464 . S
O261 C250 1.251 . S
O262 Sm233 2.396 . S
O262 C251 1.252 . S
O263 Sm232 2.408 . S
O263 C251 1.272 . S
H264 C236 0.930 . S
H265 C237 0.929 . S
H266 C239 0.930 . S
H267 C240 0.929 . S
H268 C245 0.930 . S
H269 C246 0.929 . S
H270 C248 0.930 . S
H271 C249 0.929 . S
Sm272 C274 2.846 . S
Sm272 O292 2.543 . S
Sm272 O293 2.450 . S
Sm272 O294 2.681 1_655 S
Sm272 O295 2.464 . S
Sm272 O296 2.396 . S
Sm272 O300 2.386 . S
Sm272 O303 2.408 1_655 S
Sm273 C283 2.846 . S
Sm273 O294 2.386 . S
Sm273 O297 2.408 1_455 S
Sm273 O298 2.543 . S
Sm273 O299 2.450 . S
Sm273 O300 2.681 1_455 S
Sm273 O301 2.464 . S
Sm273 O302 2.396 . S
C274 Sm272 2.846 . S
C274 C275 1.506 1_556 S
C274 O292 1.261 . S
C274 O293 1.242 . S
C275 C274 1.506 1_554 S
C275 C276 1.358 . S
C275 C280 1.382 . S
C276 C275 1.358 . S
C276 C277 1.385 . S
C276 H304 0.930 . S
C277 C276 1.385 . S
C277 C278 1.395 . S
C277 H305 0.929 . S
C278 C277 1.395 . S
C278 C279 1.335 . S
C279 C278 1.335 . S
C279 C280 1.398 . S
C279 H306 0.930 . S
C280 C275 1.382 . S
C280 C279 1.398 . S
C280 H307 0.929 . S
C281 O294 1.258 1_655 S
C281 O295 1.274 . S
C282 O296 1.252 . S
C282 O297 1.272 . S
C283 Sm273 2.846 . S
C283 C284 1.506 . S
C283 O298 1.261 . S
C283 O299 1.242 . S
C284 C283 1.506 . S
C284 C285 1.358 . S
C284 C289 1.382 . S
C285 C284 1.358 . S
C285 C286 1.385 . S
C285 H308 0.930 . S
C286 C285 1.385 . S
C286 C287 1.395 . S
C286 H309 0.929 . S
C287 C286 1.395 . S
C287 C288 1.335 . S
C288 C287 1.335 . S
C288 C289 1.398 . S
C288 H310 0.930 . S
C289 C284 1.382 . S
C289 C288 1.398 . S
C289 H311 0.929 . S
C290 O300 1.271 1_455 S
C290 O301 1.251 . S
C291 O302 1.252 . S
C291 O303 1.272 . S
O292 Sm272 2.543 . S
O292 C274 1.261 . S
O293 Sm272 2.450 . S
O293 C274 1.242 . S
O294 Sm272 2.681 1_455 S
O294 Sm273 2.386 . S
O294 C281 1.258 1_455 S
O295 Sm272 2.464 . S
O295 C281 1.274 . S
O296 Sm272 2.396 . S
O296 C282 1.252 . S
O297 Sm273 2.408 1_655 S
O297 C282 1.272 . S
O298 Sm273 2.543 . S
O298 C283 1.261 . S
O299 Sm273 2.450 . S
O299 C283 1.242 . S
O300 Sm272 2.386 . S
O300 Sm273 2.681 1_655 S
O300 C290 1.271 1_655 S
O301 Sm273 2.464 . S
O301 C290 1.251 . S
O302 Sm273 2.396 . S
O302 C291 1.252 . S
O303 Sm272 2.408 1_455 S
O303 C291 1.272 . S
H304 C276 0.930 . S
H305 C277 0.929 . S
H306 C279 0.930 . S
H307 C280 0.929 . S
H308 C285 0.930 . S
H309 C286 0.929 . S
H310 C288 0.930 . S
H311 C289 0.929 . S
H312 C324 0.930 . S
H313 C326 0.930 . S
H314 C327 0.930 . S
H315 C331 0.959 . S
H316 C331 0.959 . S
H317 C331 0.961 . S
H318 C332 0.960 . S
H319 C332 0.961 . S
H320 C332 0.959 . S
H321 C335 0.929 . S
H322 C336 0.931 . S
H323 C338 0.930 . S
C324 H312 0.930 . S
C324 C325 1.399 1_565 S
C324 C329 1.399 . S
C325 C324 1.399 1_545 S
C325 C326 1.376 . S
C326 H313 0.930 . S
C326 C325 1.376 . S
C326 C327 1.388 . S
C327 H314 0.930 . S
C327 C326 1.388 . S
C327 C328 1.390 . S
C328 C327 1.390 . S
C328 C329 1.394 1_545 S
C328 C334 1.465 . S
C329 C324 1.399 . S
C329 C328 1.394 1_565 S
C329 C330 1.516 . S
C330 C329 1.516 . S
C330 C331 1.502 . S
C330 C332 1.561 . S
C330 C333 1.526 . S
C331 H315 0.959 . S
C331 H316 0.959 . S
C331 H317 0.961 . S
C331 C330 1.502 . S
C332 H318 0.960 . S
C332 H319 0.961 . S
C332 H320 0.959 . S
C332 C330 1.561 . S
C333 C330 1.526 . S
C333 C334 1.396 1_565 S
C333 C338 1.390 . S
C334 C328 1.465 . S
C334 C333 1.396 1_545 S
C334 C335 1.399 . S
C335 H321 0.929 . S
C335 C334 1.399 . S
C335 C336 1.385 . S
C336 H322 0.931 . S
C336 C335 1.385 . S
C336 C337 1.389 . S
C337 C336 1.389 . S
C337 C338 1.387 1_545 S
C338 H323 0.930 . S
C338 C333 1.390 . S
C338 C337 1.387 1_565 S
H339 C351 0.930 . S
H340 C353 0.930 . S
H341 C354 0.930 . S
H342 C358 0.959 . S
H343 C358 0.959 . S
H344 C358 0.961 . S
H345 C359 0.960 . S
H346 C359 0.961 . S
H347 C359 0.959 . S
H348 C362 0.929 . S
H349 C363 0.931 . S
H350 C365 0.930 . S
C351 H339 0.930 . S
C351 C352 1.399 . S
C351 C356 1.399 . S
C352 C351 1.399 . S
C352 C353 1.376 . S
C353 H340 0.930 . S
C353 C352 1.376 . S
C353 C354 1.388 . S
C354 H341 0.930 . S
C354 C353 1.388 . S
C354 C355 1.390 . S
C355 C354 1.390 . S
C355 C356 1.394 . S
C355 C361 1.465 . S
C356 C351 1.399 . S
C356 C355 1.394 . S
C356 C357 1.516 . S
C357 C356 1.516 . S
C357 C358 1.502 . S
C357 C359 1.561 . S
C357 C360 1.526 . S
C358 H342 0.959 . S
C358 H343 0.959 . S
C358 H344 0.961 . S
C358 C357 1.502 . S
C359 H345 0.960 . S
C359 H346 0.961 . S
C359 H347 0.959 . S
C359 C357 1.561 . S
C360 C357 1.526 . S
C360 C361 1.396 . S
C360 C365 1.390 . S
C361 C355 1.465 . S
C361 C360 1.396 . S
C361 C362 1.399 . S
C362 H348 0.929 . S
C362 C361 1.399 . S
C362 C363 1.385 . S
C363 H349 0.931 . S
C363 C362 1.385 . S
C363 C364 1.389 . S
C364 C363 1.389 . S
C364 C365 1.387 . S
C365 H350 0.930 . S
C365 C360 1.390 . S
C365 C364 1.387 . S
H366 C378 0.930 . S
H367 C380 0.930 . S
H368 C381 0.930 . S
H369 C385 0.959 . S
H370 C385 0.959 . S
H371 C385 0.961 . S
H372 C386 0.960 . S
H373 C386 0.961 . S
H374 C386 0.959 . S
H375 C389 0.929 . S
H376 C390 0.931 . S
H377 C392 0.930 . S
C378 H366 0.930 . S
C378 C379 1.399 . S
C378 C383 1.399 . S
C379 C378 1.399 . S
C379 C380 1.376 . S
C380 H367 0.930 . S
C380 C379 1.376 . S
C380 C381 1.388 . S
C381 H368 0.930 . S
C381 C380 1.388 . S
C381 C382 1.390 . S
C382 C381 1.390 . S
C382 C383 1.394 . S
C382 C388 1.465 . S
C383 C378 1.399 . S
C383 C382 1.394 . S
C383 C384 1.516 . S
C384 C383 1.516 . S
C384 C385 1.502 . S
C384 C386 1.561 . S
C384 C387 1.526 . S
C385 H369 0.959 . S
C385 H370 0.959 . S
C385 H371 0.961 . S
C385 C384 1.502 . S
C386 H372 0.960 . S
C386 H373 0.961 . S
C386 H374 0.959 . S
C386 C384 1.561 . S
C387 C384 1.526 . S
C387 C388 1.396 . S
C387 C392 1.390 . S
C388 C382 1.465 . S
C388 C387 1.396 . S
C388 C389 1.399 . S
C389 H375 0.929 . S
C389 C388 1.399 . S
C389 C390 1.385 . S
C390 H376 0.931 . S
C390 C389 1.385 . S
C390 C391 1.389 . S
C391 C390 1.389 . S
C391 C392 1.387 . S
C392 H377 0.930 . S
C392 C387 1.390 . S
C392 C391 1.387 . S
H393 C405 0.930 . S
H394 C407 0.930 . S
H395 C408 0.930 . S
H396 C412 0.959 . S
H397 C412 0.959 . S
H398 C412 0.961 . S
H399 C413 0.960 . S
H400 C413 0.961 . S
H401 C413 0.959 . S
H402 C416 0.929 . S
H403 C417 0.931 . S
H404 C419 0.930 . S
C405 H393 0.930 . S
C405 C406 1.399 1_455 S
C405 C410 1.399 . S
C406 C405 1.399 1_655 S
C406 C407 1.376 . S
C407 H394 0.930 . S
C407 C406 1.376 . S
C407 C408 1.388 . S
C408 H395 0.930 . S
C408 C407 1.388 . S
C408 C409 1.390 . S
C409 C408 1.390 . S
C409 C410 1.394 1_655 S
C409 C415 1.465 . S
C410 C405 1.399 . S
C410 C409 1.394 1_455 S
C410 C411 1.516 . S
C411 C410 1.516 . S
C411 C412 1.502 . S
C411 C413 1.561 1_455 S
C411 C414 1.526 . S
C412 H396 0.959 . S
C412 H397 0.959 . S
C412 H398 0.961 . S
C412 C411 1.502 . S
C413 H399 0.960 . S
C413 H400 0.961 . S
C413 H401 0.959 . S
C413 C411 1.561 1_655 S
C414 C411 1.526 . S
C414 C415 1.396 1_455 S
C414 C419 1.390 . S
C415 C409 1.465 . S
C415 C414 1.396 1_655 S
C415 C416 1.399 . S
C416 H402 0.929 . S
C416 C415 1.399 . S
C416 C417 1.385 . S
C417 H403 0.931 . S
C417 C416 1.385 . S
C417 C418 1.388 . S
C418 C417 1.388 . S
C418 C419 1.388 1_655 S
C419 H404 0.930 . S
C419 C414 1.390 . S
C419 C418 1.388 1_455 S
H420 C432 0.930 . S
H421 C434 0.930 . S
H422 C435 0.930 . S
H423 C439 0.959 1_556 S
H424 C439 0.959 1_556 S
H425 C439 0.961 . S
H426 C440 0.960 . S
H427 C440 0.961 . S
H428 C440 0.959 . S
H429 C443 0.929 . S
H430 C444 0.931 . S
H431 C446 0.930 . S
C432 H420 0.930 . S
C432 C433 1.399 1_545 S
C432 C437 1.399 . S
C433 C432 1.399 1_565 S
C433 C434 1.376 . S
C434 H421 0.930 . S
C434 C433 1.376 . S
C434 C435 1.388 . S
C435 H422 0.930 . S
C435 C434 1.388 . S
C435 C436 1.390 . S
C436 C435 1.390 . S
C436 C437 1.394 1_565 S
C436 C442 1.465 . S
C437 C432 1.399 . S
C437 C436 1.394 1_545 S
C437 C438 1.516 . S
C438 C437 1.516 . S
C438 C439 1.502 . S
C438 C440 1.561 . S
C438 C441 1.526 . S
C439 H423 0.959 1_554 S
C439 H424 0.959 1_554 S
C439 H425 0.961 . S
C439 C438 1.502 . S
C440 H426 0.960 . S
C440 H427 0.961 . S
C440 H428 0.959 . S
C440 C438 1.561 . S
C441 C438 1.526 . S
C441 C442 1.396 1_545 S
C441 C446 1.390 1_554 S
C442 C436 1.465 . S
C442 C441 1.396 1_565 S
C442 C443 1.399 . S
C443 H429 0.929 . S
C443 C442 1.399 . S
C443 C444 1.385 1_554 S
C444 H430 0.931 . S
C444 C443 1.385 1_556 S
C444 C445 1.389 . S
C445 C444 1.389 . S
C445 C446 1.387 1_565 S
C446 H431 0.930 . S
C446 C441 1.390 1_556 S
C446 C445 1.387 1_545 S
H447 C459 0.930 . S
H448 C461 0.930 . S
H449 C462 0.930 . S
H450 C466 0.959 . S
H451 C466 0.959 . S
H452 C466 0.961 . S
H453 C467 0.960 . S
H454 C467 0.961 . S
H455 C467 0.959 . S
H456 C470 0.929 . S
H457 C471 0.931 . S
H458 C473 0.930 . S
C459 H447 0.930 . S
C459 C460 1.399 . S
C459 C464 1.399 . S
C460 C459 1.399 . S
C460 C461 1.376 . S
C461 H448 0.930 . S
C461 C460 1.376 . S
C461 C462 1.388 . S
C462 H449 0.930 . S
C462 C461 1.388 . S
C462 C463 1.390 . S
C463 C462 1.390 . S
C463 C464 1.394 . S
C463 C469 1.465 . S
C464 C459 1.399 . S
C464 C463 1.394 . S
C464 C465 1.516 . S
C465 C464 1.516 . S
C465 C466 1.502 . S
C465 C467 1.561 . S
C465 C468 1.526 . S
C466 H450 0.959 . S
C466 H451 0.959 . S
C466 H452 0.961 . S
C466 C465 1.502 . S
C467 H453 0.960 . S
C467 H454 0.961 . S
C467 H455 0.959 . S
C467 C465 1.561 . S
C468 C465 1.526 . S
C468 C469 1.396 . S
C468 C473 1.390 . S
C469 C463 1.465 . S
C469 C468 1.396 . S
C469 C470 1.399 1_554 S
C470 H456 0.929 . S
C470 C469 1.399 1_556 S
C470 C471 1.385 . S
C471 H457 0.931 . S
C471 C470 1.385 . S
C471 C472 1.389 . S
C472 C471 1.389 . S
C472 C473 1.387 1_556 S
C473 H458 0.930 . S
C473 C468 1.390 . S
C473 C472 1.387 1_554 S
H474 C486 0.930 . S
H475 C488 0.930 . S
H476 C489 0.930 . S
H477 C493 0.959 . S
H478 C493 0.959 . S
H479 C493 0.961 . S
H480 C494 0.960 . S
H481 C494 0.961 . S
H482 C494 0.959 . S
H483 C497 0.929 . S
H484 C498 0.931 . S
H485 C500 0.930 . S
C486 H474 0.930 . S
C486 C487 1.399 . S
C486 C491 1.399 . S
C487 C486 1.399 . S
C487 C488 1.376 . S
C488 H475 0.930 . S
C488 C487 1.376 . S
C488 C489 1.388 . S
C489 H476 0.930 . S
C489 C488 1.388 . S
C489 C490 1.390 . S
C490 C489 1.390 . S
C490 C491 1.394 . S
C490 C496 1.465 . S
C491 C486 1.399 . S
C491 C490 1.394 . S
C491 C492 1.516 . S
C492 C491 1.516 . S
C492 C493 1.502 1_554 S
C492 C494 1.561 . S
C492 C495 1.526 . S
C493 H477 0.959 . S
C493 H478 0.959 . S
C493 H479 0.961 . S
C493 C492 1.502 1_556 S
C494 H480 0.960 . S
C494 H481 0.961 . S
C494 H482 0.959 . S
C494 C492 1.561 . S
C495 C492 1.526 . S
C495 C496 1.396 . S
C495 C500 1.390 1_554 S
C496 C490 1.465 . S
C496 C495 1.396 . S
C496 C497 1.399 . S
C497 H483 0.929 . S
C497 C496 1.399 . S
C497 C498 1.385 1_554 S
C498 H484 0.931 . S
C498 C497 1.385 1_556 S
C498 C499 1.389 . S
C499 C498 1.389 . S
C499 C500 1.387 . S
C500 H485 0.930 . S
C500 C495 1.390 1_556 S
C500 C499 1.387 . S
H501 C513 0.930 . S
H502 C515 0.930 . S
H503 C516 0.930 . S
H504 C520 0.959 . S
H505 C520 0.959 . S
H506 C520 0.961 . S
H507 C521 0.960 . S
H508 C521 0.961 . S
H509 C521 0.959 . S
H510 C524 0.929 . S
H511 C525 0.931 . S
H512 C527 0.930 . S
C513 H501 0.930 . S
C513 C514 1.399 1_455 S
C513 C518 1.402 . S
C514 C513 1.399 1_655 S
C514 C515 1.376 . S
C515 H502 0.930 . S
C515 C514 1.376 . S
C515 C516 1.388 . S
C516 H503 0.930 . S
C516 C515 1.388 . S
C516 C517 1.390 . S
C517 C516 1.390 . S
C517 C518 1.386 1_655 S
C517 C523 1.465 . S
C518 C513 1.402 . S
C518 C517 1.386 1_455 S
C518 C519 1.520 . S
C519 C518 1.520 . S
C519 C520 1.502 . S
C519 C521 1.561 1_455 S
C519 C522 1.527 . S
C520 H504 0.959 . S
C520 H505 0.959 . S
C520 H506 0.961 . S
C520 C519 1.502 . S
C521 H507 0.960 . S
C521 H508 0.961 . S
C521 H509 0.959 . S
C521 C519 1.561 1_655 S
C522 C519 1.527 . S
C522 C523 1.394 1_455 S
C522 C527 1.390 . S
C523 C517 1.465 . S
C523 C522 1.394 1_655 S
C523 C524 1.399 1_554 S
C524 H510 0.929 . S
C524 C523 1.399 1_556 S
C524 C525 1.385 . S
C525 H511 0.931 . S
C525 C524 1.385 . S
C525 C526 1.389 . S
C526 C525 1.389 . S
C526 C527 1.387 1_656 S
C527 H512 0.930 . S
C527 C522 1.390 . S
C527 C526 1.387 1_454 S
H528 C540 0.950 . S
H529 C542 0.930 1_556 S
H530 C543 0.930 1_556 S
H531 C547 0.959 . S
H532 C547 0.959 . S
H533 C547 0.961 . S
H534 C548 0.960 . S
H535 C548 0.961 . S
H536 C548 0.959 . S
H537 C551 0.929 . S
H538 C552 0.931 . S
H539 C554 0.930 . S
C540 H528 0.950 . S
C540 C541 1.397 1_455 S
C540 C545 1.383 1_455 S
C541 C540 1.397 1_655 S
C541 C542 1.383 . S
C542 H529 0.930 1_554 S
C542 C541 1.383 . S
C542 C543 1.388 . S
C543 H530 0.930 1_554 S
C543 C542 1.388 . S
C543 C544 1.390 . S
C544 C543 1.390 . S
C544 C545 1.394 . S
C544 C550 1.465 . S
C545 C540 1.383 1_655 S
C545 C544 1.394 . S
C545 C546 1.516 . S
C546 C545 1.516 . S
C546 C547 1.502 1_655 S
C546 C548 1.561 . S
C546 C549 1.526 . S
C547 H531 0.959 . S
C547 H532 0.959 . S
C547 H533 0.961 . S
C547 C546 1.502 1_455 S
C548 H534 0.960 . S
C548 H535 0.961 . S
C548 H536 0.959 . S
C548 C546 1.561 . S
C549 C546 1.526 . S
C549 C550 1.396 . S
C549 C554 1.390 . S
C550 C544 1.465 . S
C550 C549 1.396 . S
C550 C551 1.399 . S
C551 H537 0.929 . S
C551 C550 1.399 . S
C551 C552 1.385 . S
C552 H538 0.931 . S
C552 C551 1.385 . S
C552 C553 1.389 . S
C553 C552 1.389 . S
C553 C554 1.387 . S
C554 H539 0.930 . S
C554 C549 1.390 . S
C554 C553 1.387 . S
H555 C567 0.930 . S
H556 C569 0.930 . S
H557 C570 0.930 . S
H558 C574 0.959 . S
H559 C574 0.959 . S
H560 C574 0.961 . S
H561 C575 0.960 . S
H562 C575 0.961 . S
H563 C575 0.959 . S
H564 C578 0.929 . S
H565 C579 0.931 . S
H566 C581 0.930 1_545 S
C567 H555 0.930 . S
C567 C568 1.378 1_545 S
C567 C572 1.399 . S
C568 C567 1.378 1_565 S
C568 C569 1.414 . S
C569 H556 0.930 . S
C569 C568 1.414 . S
C569 C570 1.388 . S
C570 H557 0.930 . S
C570 C569 1.388 . S
C570 C571 1.390 . S
C571 C570 1.390 . S
C571 C572 1.394 1_565 S
C571 C577 1.465 . S
C572 C567 1.399 . S
C572 C571 1.394 1_545 S
C572 C573 1.516 . S
C573 C572 1.516 . S
C573 C574 1.502 . S
C573 C575 1.561 . S
C573 C576 1.526 1_545 S
C574 H558 0.959 . S
C574 H559 0.959 . S
C574 H560 0.961 . S
C574 C573 1.502 . S
C575 H561 0.960 . S
C575 H562 0.961 . S
C575 H563 0.959 . S
C575 C573 1.561 . S
C576 C573 1.526 1_565 S
C576 C577 1.396 . S
C576 C581 1.390 . S
C577 C571 1.465 . S
C577 C576 1.396 . S
C577 C578 1.399 . S
C578 H564 0.929 . S
C578 C577 1.399 . S
C578 C579 1.385 . S
C579 H565 0.931 . S
C579 C578 1.385 . S
C579 C580 1.389 . S
C580 C579 1.389 . S
C580 C581 1.387 . S
C581 H566 0.930 1_565 S
C581 C576 1.390 . S
C581 C580 1.387 . S
H582 C594 0.930 . S
H583 C596 0.930 1_556 S
H584 C597 0.930 1_556 S
H585 C601 0.959 . S
H586 C601 0.959 . S
H587 C601 0.961 . S
H588 C602 0.960 . S
H589 C602 0.961 . S
H590 C602 0.959 . S
H591 C605 0.929 . S
H592 C606 0.931 . S
H593 C608 0.930 . S
C594 H582 0.930 . S
C594 C595 1.399 . S
C594 C599 1.399 . S
C595 C594 1.399 . S
C595 C596 1.376 . S
C596 H583 0.930 1_554 S
C596 C595 1.376 . S
C596 C597 1.388 . S
C597 H584 0.930 1_554 S
C597 C596 1.388 . S
C597 C598 1.390 . S
C598 C597 1.390 . S
C598 C599 1.394 . S
C598 C604 1.465 . S
C599 C594 1.399 . S
C599 C598 1.394 . S
C599 C600 1.516 . S
C600 C599 1.516 . S
C600 C601 1.502 . S
C600 C602 1.561 . S
C600 C603 1.526 . S
C601 H585 0.959 . S
C601 H586 0.959 . S
C601 H587 0.961 . S
C601 C600 1.502 . S
C602 H588 0.960 . S
C602 H589 0.961 . S
C602 H590 0.959 . S
C602 C600 1.561 . S
C603 C600 1.526 . S
C603 C604 1.396 . S
C603 C608 1.390 . S
C604 C598 1.465 . S
C604 C603 1.396 . S
C604 C605 1.399 . S
C605 H591 0.929 . S
C605 C604 1.399 . S
C605 C606 1.385 . S
C606 H592 0.931 . S
C606 C605 1.385 . S
C606 C607 1.389 . S
C607 C606 1.389 . S
C607 C608 1.387 . S
C608 H593 0.930 . S
C608 C603 1.390 . S
C608 C607 1.387 . S
H609 C621 0.930 . S
H610 C623 0.930 . S
H611 C624 0.930 . S
H612 C628 0.959 . S
H613 C628 0.959 . S
H614 C628 0.961 . S
H615 C629 0.960 1_556 S
H616 C629 0.961 . S
H617 C629 0.959 . S
H618 C632 0.929 . S
H619 C633 0.931 . S
H620 C635 0.930 . S
C621 H609 0.930 . S
C621 C622 1.399 . S
C621 C626 1.399 . S
C622 C621 1.399 . S
C622 C623 1.376 . S
C623 H610 0.930 . S
C623 C622 1.376 . S
C623 C624 1.388 . S
C624 H611 0.930 . S
C624 C623 1.388 . S
C624 C625 1.390 . S
C625 C624 1.390 . S
C625 C626 1.394 . S
C625 C631 1.465 . S
C626 C621 1.399 . S
C626 C625 1.394 . S
C626 C627 1.516 . S
C627 C626 1.516 . S
C627 C628 1.502 . S
C627 C629 1.561 . S
C627 C630 1.526 . S
C628 H612 0.959 . S
C628 H613 0.959 . S
C628 H614 0.961 . S
C628 C627 1.502 . S
C629 H615 0.960 1_554 S
C629 H616 0.961 . S
C629 H617 0.959 . S
C629 C627 1.561 . S
C630 C627 1.526 . S
C630 C631 1.396 . S
C630 C635 1.390 . S
C631 C625 1.465 . S
C631 C630 1.396 . S
C631 C632 1.399 . S
C632 H618 0.929 . S
C632 C631 1.399 . S
C632 C633 1.385 . S
C633 H619 0.931 . S
C633 C632 1.385 . S
C633 C634 1.389 . S
C634 C633 1.389 . S
C634 C635 1.387 . S
C635 H620 0.930 . S
C635 C630 1.390 . S
C635 C634 1.387 . S
H636 C648 0.934 . S
H637 C650 0.930 . S
H638 C651 0.930 . S
H639 C655 0.959 . S
H640 C655 0.959 . S
H641 C655 0.961 . S
H642 C656 0.960 . S
H643 C656 0.961 . S
H644 C656 0.959 . S
H645 C659 0.929 . S
H646 C660 0.931 1_556 S
H647 C662 0.930 . S
C648 H636 0.934 . S
C648 C649 1.399 1_655 S
C648 C653 1.395 1_655 S
C649 C648 1.399 1_455 S
C649 C650 1.380 . S
C650 H637 0.930 . S
C650 C649 1.380 . S
C650 C651 1.388 . S
C651 H638 0.930 . S
C651 C650 1.388 . S
C651 C652 1.390 . S
C652 C651 1.390 . S
C652 C653 1.394 . S
C652 C658 1.465 . S
C653 C648 1.395 1_455 S
C653 C652 1.394 . S
C653 C654 1.516 . S
C654 C653 1.516 . S
C654 C655 1.502 1_455 S
C654 C656 1.561 . S
C654 C657 1.526 . S
C655 H639 0.959 . S
C655 H640 0.959 . S
C655 H641 0.961 . S
C655 C654 1.502 1_655 S
C656 H642 0.960 . S
C656 H643 0.961 . S
C656 H644 0.959 . S
C656 C654 1.561 . S
C657 C654 1.526 . S
C657 C658 1.396 . S
C657 C662 1.390 . S
C658 C652 1.465 . S
C658 C657 1.396 . S
C658 C659 1.399 . S
C659 H645 0.929 . S
C659 C658 1.399 . S
C659 C660 1.385 . S
C660 H646 0.931 1_554 S
C660 C659 1.385 . S
C660 C661 1.389 . S
C661 C660 1.389 . S
C661 C662 1.387 . S
C662 H647 0.930 . S
C662 C657 1.390 . S
C662 C661 1.387 . S
H663 C675 0.930 . S
H664 C677 0.930 . S
H665 C678 0.930 . S
H666 C682 0.959 . S
H667 C682 0.959 1_556 S
H668 C682 0.961 1_565 S
H669 C683 0.960 . S
H670 C683 0.961 . S
H671 C683 0.959 . S
H672 C686 0.929 . S
H673 C687 0.931 . S
H674 C689 0.930 . S
C675 H663 0.930 . S
C675 C676 1.408 . S
C675 C680 1.399 1_565 S
C676 C675 1.408 . S
C676 C677 1.355 1_565 S
C677 H664 0.930 . S
C677 C676 1.355 1_545 S
C677 C678 1.388 . S
C678 H665 0.930 . S
C678 C677 1.388 . S
C678 C679 1.390 . S
C679 C678 1.390 . S
C679 C680 1.394 . S
C679 C685 1.465 . S
C680 C675 1.399 1_545 S
C680 C679 1.394 . S
C680 C681 1.511 1_545 S
C681 C680 1.511 1_565 S
C681 C682 1.489 1_565 S
C681 C683 1.609 . S
C681 C684 1.500 1_565 S
C682 H666 0.959 . S
C682 H667 0.959 1_554 S
C682 H668 0.961 1_545 S
C682 C681 1.489 1_545 S
C683 H669 0.960 . S
C683 H670 0.961 . S
C683 H671 0.959 . S
C683 C681 1.609 . S
C684 C681 1.500 1_545 S
C684 C685 1.396 . S
C684 C689 1.390 . S
C685 C679 1.465 . S
C685 C684 1.396 . S
C685 C686 1.399 . S
C686 H672 0.929 . S
C686 C685 1.399 . S
C686 C687 1.385 . S
C687 H673 0.931 . S
C687 C686 1.385 . S
C687 C688 1.389 . S
C688 C687 1.389 . S
C688 C689 1.387 . S
C689 H674 0.930 . S
C689 C684 1.390 . S
C689 C688 1.387 . S
H690 C702 0.930 . S
H691 C704 0.930 . S
H692 C705 0.930 . S
H693 C709 0.959 . S
H694 C709 0.959 . S
H695 C709 0.961 . S
H696 C710 0.960 . S
H697 C710 0.961 . S
H698 C710 0.959 . S
H699 C713 0.929 . S
H700 C714 0.931 . S
H701 C716 0.930 . S
C702 H690 0.930 . S
C702 C703 1.399 . S
C702 C707 1.399 . S
C703 C702 1.399 . S
C703 C704 1.376 . S
C704 H691 0.930 . S
C704 C703 1.376 . S
C704 C705 1.388 . S
C705 H692 0.930 . S
C705 C704 1.388 . S
C705 C706 1.390 . S
C706 C705 1.390 . S
C706 C707 1.394 . S
C706 C712 1.465 . S
C707 C702 1.399 . S
C707 C706 1.394 . S
C707 C708 1.516 . S
C708 C707 1.516 . S
C708 C709 1.502 . S
C708 C710 1.561 . S
C708 C711 1.526 . S
C709 H693 0.959 . S
C709 H694 0.959 . S
C709 H695 0.961 . S
C709 C708 1.502 . S
C710 H696 0.960 . S
C710 H697 0.961 . S
C710 H698 0.959 . S
C710 C708 1.561 . S
C711 C708 1.526 . S
C711 C712 1.396 . S
C711 C716 1.390 . S
C712 C706 1.465 . S
C712 C711 1.396 . S
C712 C713 1.399 . S
C713 H699 0.929 . S
C713 C712 1.399 . S
C713 C714 1.385 . S
C714 H700 0.931 . S
C714 C713 1.385 . S
C714 C715 1.389 . S
C715 C714 1.389 . S
C715 C716 1.387 . S
C716 H701 0.930 . S
C716 C711 1.390 . S
C716 C715 1.387 . S
H717 C729 0.930 . S
H718 C731 0.930 . S
H719 C732 0.930 . S
H720 C736 0.959 . S
H721 C736 0.959 . S
H722 C736 0.961 . S
H723 C737 0.960 . S
H724 C737 0.961 . S
H725 C737 0.959 . S
H726 C740 0.929 . S
H727 C741 0.931 . S
H728 C743 0.930 . S
C729 H717 0.930 . S
C729 C730 1.399 . S
C729 C734 1.399 . S
C730 C729 1.399 . S
C730 C731 1.376 . S
C731 H718 0.930 . S
C731 C730 1.376 . S
C731 C732 1.388 . S
C732 H719 0.930 . S
C732 C731 1.388 . S
C732 C733 1.390 . S
C733 C732 1.390 . S
C733 C734 1.394 . S
C733 C739 1.465 . S
C734 C729 1.399 . S
C734 C733 1.394 . S
C734 C735 1.516 . S
C735 C734 1.516 . S
C735 C736 1.502 . S
C735 C737 1.561 . S
C735 C738 1.526 . S
C736 H720 0.959 . S
C736 H721 0.959 . S
C736 H722 0.961 . S
C736 C735 1.502 . S
C737 H723 0.960 . S
C737 H724 0.961 . S
C737 H725 0.959 . S
C737 C735 1.561 . S
C738 C735 1.526 . S
C738 C739 1.396 . S
C738 C743 1.390 . S
C739 C733 1.465 . S
C739 C738 1.396 . S
C739 C740 1.399 . S
C740 H726 0.929 . S
C740 C739 1.399 . S
C740 C741 1.385 . S
C741 H727 0.931 . S
C741 C740 1.385 . S
C741 C742 1.389 . S
C742 C741 1.389 . S
C742 C743 1.387 . S
C743 H728 0.930 . S
C743 C738 1.390 . S
C743 C742 1.387 . S
H744 C756 0.930 . S
H745 C758 0.930 . S
H746 C759 0.930 1_554 S
H747 C763 0.959 . S
H748 C763 0.959 . S
H749 C763 0.961 . S
H750 C764 0.960 . S
H751 C764 0.961 . S
H752 C764 0.959 . S
H753 C767 0.929 1_554 S
H754 C768 0.931 . S
H755 C770 0.922 1_655 S
C756 H744 0.930 . S
C756 C757 1.399 1_655 S
C756 C761 1.399 1_655 S
C757 C756 1.399 1_455 S
C757 C758 1.376 . S
C758 H745 0.930 . S
C758 C757 1.376 . S
C758 C759 1.388 . S
C759 H746 0.930 1_556 S
C759 C758 1.388 . S
C759 C760 1.390 . S
C760 C759 1.390 . S
C760 C761 1.394 . S
C760 C766 1.465 . S
C761 C756 1.399 1_455 S
C761 C760 1.394 . S
C761 C762 1.513 1_455 S
C762 C761 1.513 1_655 S
C762 C763 1.524 . S
C762 C764 1.544 1_655 S
C762 C765 1.521 1_655 S
C763 H747 0.959 . S
C763 H748 0.959 . S
C763 H749 0.961 . S
C763 C762 1.524 . S
C764 H750 0.960 . S
C764 H751 0.961 . S
C764 H752 0.959 . S
C764 C762 1.544 1_455 S
C765 C762 1.521 1_455 S
C765 C766 1.396 . S
C765 C770 1.390 . S
C766 C760 1.465 . S
C766 C765 1.396 . S
C766 C767 1.399 . S
C767 H753 0.929 1_556 S
C767 C766 1.399 . S
C767 C768 1.385 . S
C768 H754 0.931 . S
C768 C767 1.385 . S
C768 C769 1.389 . S
C769 C768 1.389 . S
C769 C770 1.387 . S
C770 H755 0.922 1_455 S
C770 C765 1.390 . S
C770 C769 1.387 . S
H771 C783 0.930 . S
H772 C785 0.930 . S
H773 C786 0.930 . S
H774 C790 0.959 . S
H775 C790 0.959 . S
H776 C790 0.961 . S
H777 C791 0.960 . S
H778 C791 0.961 . S
H779 C791 0.959 . S
H780 C794 0.929 . S
H781 C795 0.931 . S
H782 C797 0.930 . S
C783 H771 0.930 . S
C783 C784 1.380 1_545 S
C783 C788 1.399 . S
C784 C783 1.380 1_565 S
C784 C785 1.400 . S
C785 H772 0.930 . S
C785 C784 1.400 . S
C785 C786 1.388 . S
C786 H773 0.930 . S
C786 C785 1.388 . S
C786 C787 1.390 . S
C787 C786 1.390 . S
C787 C788 1.394 1_565 S
C787 C793 1.465 . S
C788 C783 1.399 . S
C788 C787 1.394 1_545 S
C788 C789 1.516 . S
C789 C788 1.516 . S
C789 C790 1.502 . S
C789 C791 1.561 1_556 S
C789 C792 1.526 . S
C790 H774 0.959 . S
C790 H775 0.959 . S
C790 H776 0.961 . S
C790 C789 1.502 . S
C791 H777 0.960 . S
C791 H778 0.961 . S
C791 H779 0.959 . S
C791 C789 1.561 1_554 S
C792 C789 1.526 . S
C792 C793 1.396 1_545 S
C792 C797 1.390 . S
C793 C787 1.465 . S
C793 C792 1.396 1_565 S
C793 C794 1.399 . S
C794 H780 0.929 . S
C794 C793 1.399 . S
C794 C795 1.385 . S
C795 H781 0.931 . S
C795 C794 1.385 . S
C795 C796 1.389 1_565 S
C796 C795 1.389 1_545 S
C796 C797 1.387 . S
C797 H782 0.930 . S
C797 C792 1.390 . S
C797 C796 1.387 . S
H798 C810 0.930 . S
H799 C812 0.930 . S
H800 C813 0.930 . S
H801 C817 0.959 1_556 S
H802 C817 0.959 . S
H803 C817 0.961 . S
H804 C818 0.960 . S
H805 C818 0.961 . S
H806 C818 0.959 1_556 S
H807 C821 0.929 . S
H808 C822 0.931 . S
H809 C824 0.930 . S
C810 H798 0.930 . S
C810 C811 1.399 . S
C810 C815 1.399 . S
C811 C810 1.399 . S
C811 C812 1.376 . S
C812 H799 0.930 . S
C812 C811 1.376 . S
C812 C813 1.388 . S
C813 H800 0.930 . S
C813 C812 1.388 . S
C813 C814 1.390 . S
C814 C813 1.390 . S
C814 C815 1.394 . S
C814 C820 1.465 . S
C815 C810 1.399 . S
C815 C814 1.394 . S
C815 C816 1.516 . S
C816 C815 1.516 . S
C816 C817 1.502 1_556 S
C816 C818 1.561 1_556 S
C816 C819 1.526 . S
C817 H801 0.959 1_554 S
C817 H802 0.959 . S
C817 H803 0.961 . S
C817 C816 1.502 1_554 S
C818 H804 0.960 . S
C818 H805 0.961 . S
C818 H806 0.959 1_554 S
C818 C816 1.561 1_554 S
C819 C816 1.526 . S
C819 C820 1.396 . S
C819 C824 1.390 . S
C820 C814 1.465 . S
C820 C819 1.396 . S
C820 C821 1.399 . S
C821 H807 0.929 . S
C821 C820 1.399 . S
C821 C822 1.385 . S
C822 H808 0.931 . S
C822 C821 1.385 . S
C822 C823 1.389 . S
C823 C822 1.389 . S
C823 C824 1.387 . S
C824 H809 0.930 . S
C824 C819 1.390 . S
C824 C823 1.387 . S
H825 C837 0.930 . S
H826 C839 0.930 . S
H827 C840 0.930 . S
H828 C844 0.959 . S
H829 C844 0.959 . S
H830 C844 0.961 . S
H831 C845 0.960 . S
H832 C845 0.961 . S
H833 C845 0.959 . S
H834 C848 0.929 . S
H835 C849 0.931 . S
H836 C851 0.930 . S
C837 H825 0.930 . S
C837 C838 1.399 . S
C837 C842 1.399 . S
C838 C837 1.399 . S
C838 C839 1.376 . S
C839 H826 0.930 . S
C839 C838 1.376 . S
C839 C840 1.388 . S
C840 H827 0.930 . S
C840 C839 1.388 . S
C840 C841 1.390 . S
C841 C840 1.390 . S
C841 C842 1.394 . S
C841 C847 1.465 . S
C842 C837 1.399 . S
C842 C841 1.394 . S
C842 C843 1.516 . S
C843 C842 1.516 . S
C843 C844 1.502 1_556 S
C843 C845 1.561 . S
C843 C846 1.526 . S
C844 H828 0.959 . S
C844 H829 0.959 . S
C844 H830 0.961 . S
C844 C843 1.502 1_554 S
C845 H831 0.960 . S
C845 H832 0.961 . S
C845 H833 0.959 . S
C845 C843 1.561 . S
C846 C843 1.526 . S
C846 C847 1.396 . S
C846 C851 1.390 . S
C847 C841 1.465 . S
C847 C846 1.396 . S
C847 C848 1.399 . S
C848 H834 0.929 . S
C848 C847 1.399 . S
C848 C849 1.385 . S
C849 H835 0.931 . S
C849 C848 1.385 . S
C849 C850 1.389 . S
C850 C849 1.389 . S
C850 C851 1.387 . S
C851 H836 0.930 . S
C851 C846 1.390 . S
C851 C850 1.387 . S
H852 C864 0.930 . S
H853 C866 0.930 . S
H854 C867 0.930 . S
H855 C871 0.959 . S
H856 C871 0.959 . S
H857 C871 0.961 . S
H858 C872 0.962 . S
H859 C872 0.961 1_655 S
H860 C872 0.959 . S
H861 C875 0.929 . S
H862 C876 0.931 . S
H863 C878 0.930 . S
C864 H852 0.930 . S
C864 C865 1.398 1_655 S
C864 C869 1.399 . S
C865 C864 1.398 1_455 S
C865 C866 1.378 . S
C866 H853 0.930 . S
C866 C865 1.378 . S
C866 C867 1.388 . S
C867 H854 0.930 . S
C867 C866 1.388 . S
C867 C868 1.390 . S
C868 C867 1.390 . S
C868 C869 1.394 1_455 S
C868 C874 1.469 . S
C869 C864 1.399 . S
C869 C868 1.394 1_655 S
C869 C870 1.516 . S
C870 C869 1.516 . S
C870 C871 1.502 . S
C870 C872 1.561 1_655 S
C870 C873 1.526 . S
C871 H855 0.959 . S
C871 H856 0.959 . S
C871 H857 0.961 . S
C871 C870 1.502 . S
C872 H858 0.962 . S
C872 H859 0.961 1_455 S
C872 H860 0.959 . S
C872 C870 1.561 1_455 S
C873 C870 1.526 . S
C873 C874 1.378 1_655 S
C873 C878 1.390 . S
C874 C868 1.469 . S
C874 C873 1.378 1_455 S
C874 C875 1.411 . S
C875 H861 0.929 . S
C875 C874 1.411 . S
C875 C876 1.385 . S
C876 H862 0.931 . S
C876 C875 1.385 . S
C876 C877 1.389 1_455 S
C877 C876 1.389 1_655 S
C877 C878 1.387 . S
C878 H863 0.930 . S
C878 C873 1.390 . S
C878 C877 1.387 . S
H879 C891 0.930 . S
H880 C893 0.930 . S
H881 C894 0.930 . S
H882 C898 0.959 . S
H883 C898 0.959 1_545 S
H884 C898 0.951 1_545 S
H885 C899 0.960 . S
H886 C899 0.961 . S
H887 C899 0.959 . S
H888 C902 0.929 . S
H889 C903 0.931 . S
H890 C905 0.930 1_545 S
C891 H879 0.930 . S
C891 C892 1.399 1_545 S
C891 C896 1.399 . S
C892 C891 1.399 1_565 S
C892 C893 1.376 . S
C893 H880 0.930 . S
C893 C892 1.376 . S
C893 C894 1.388 . S
C894 H881 0.930 . S
C894 C893 1.388 . S
C894 C895 1.390 . S
C895 C894 1.390 . S
C895 C896 1.394 1_565 S
C895 C901 1.465 . S
C896 C891 1.399 . S
C896 C895 1.394 1_545 S
C896 C897 1.516 . S
C897 C896 1.516 . S
C897 C898 1.502 1_545 S
C897 C899 1.561 . S
C897 C900 1.511 1_545 S
C898 H882 0.959 . S
C898 H883 0.959 1_565 S
C898 H884 0.951 1_565 S
C898 C897 1.502 1_565 S
C899 H885 0.960 . S
C899 H886 0.961 . S
C899 H887 0.959 . S
C899 C897 1.561 . S
C900 C897 1.511 1_565 S
C900 C901 1.411 . S
C900 C905 1.392 . S
C901 C895 1.465 . S
C901 C900 1.411 . S
C901 C902 1.399 . S
C902 H888 0.929 . S
C902 C901 1.399 . S
C902 C903 1.385 . S
C903 H889 0.931 . S
C903 C902 1.385 . S
C903 C904 1.389 . S
C904 C903 1.389 . S
C904 C905 1.387 . S
C905 H890 0.930 1_565 S
C905 C900 1.392 . S
C905 C904 1.387 . S
H906 C918 0.930 . S
H907 C920 0.930 . S
H908 C921 0.930 . S
H909 C925 0.959 . S
H910 C925 0.959 . S
H911 C925 0.961 . S
H912 C926 0.960 . S
H913 C926 0.961 . S
H914 C926 0.959 . S
H915 C929 0.929 . S
H916 C930 0.931 . S
H917 C932 0.930 . S
C918 H906 0.930 . S
C918 C919 1.399 . S
C918 C923 1.399 . S
C919 C918 1.399 . S
C919 C920 1.376 . S
C920 H907 0.930 . S
C920 C919 1.376 . S
C920 C921 1.388 . S
C921 H908 0.930 . S
C921 C920 1.388 . S
C921 C922 1.390 . S
C922 C921 1.390 . S
C922 C923 1.394 . S
C922 C928 1.465 . S
C923 C918 1.399 . S
C923 C922 1.394 . S
C923 C924 1.516 . S
C924 C923 1.516 . S
C924 C925 1.502 . S
C924 C926 1.561 . S
C924 C927 1.526 . S
C925 H909 0.959 . S
C925 H910 0.959 . S
C925 H911 0.961 . S
C925 C924 1.502 . S
C926 H912 0.960 . S
C926 H913 0.961 . S
C926 H914 0.959 . S
C926 C924 1.561 . S
C927 C924 1.526 . S
C927 C928 1.396 . S
C927 C932 1.390 . S
C928 C922 1.465 . S
C928 C927 1.396 . S
C928 C929 1.399 . S
C929 H915 0.929 . S
C929 C928 1.399 . S
C929 C930 1.385 . S
C930 H916 0.931 . S
C930 C929 1.385 . S
C930 C931 1.389 . S
C931 C930 1.389 . S
C931 C932 1.387 . S
C932 H917 0.930 . S
C932 C927 1.390 . S
C932 C931 1.387 . S
H933 C945 0.930 . S
H934 C947 0.930 . S
H935 C948 0.930 . S
H936 C952 0.959 . S
H937 C952 0.959 . S
H938 C952 0.961 . S
H939 C953 0.960 . S
H940 C953 0.961 . S
H941 C953 0.959 . S
H942 C956 0.929 . S
H943 C957 0.931 . S
H944 C959 0.930 . S
C945 H933 0.930 . S
C945 C946 1.399 . S
C945 C950 1.399 . S
C946 C945 1.399 . S
C946 C947 1.376 . S
C947 H934 0.930 . S
C947 C946 1.376 . S
C947 C948 1.388 . S
C948 H935 0.930 . S
C948 C947 1.388 . S
C948 C949 1.390 . S
C949 C948 1.390 . S
C949 C950 1.394 . S
C949 C955 1.465 . S
C950 C945 1.399 . S
C950 C949 1.394 . S
C950 C951 1.516 . S
C951 C950 1.516 . S
C951 C952 1.502 . S
C951 C953 1.561 . S
C951 C954 1.526 . S
C952 H936 0.959 . S
C952 H937 0.959 . S
C952 H938 0.961 . S
C952 C951 1.502 . S
C953 H939 0.960 . S
C953 H940 0.961 . S
C953 H941 0.959 . S
C953 C951 1.561 . S
C954 C951 1.526 . S
C954 C955 1.396 . S
C954 C959 1.390 . S
C955 C949 1.465 . S
C955 C954 1.396 . S
C955 C956 1.399 . S
C956 H942 0.929 . S
C956 C955 1.399 . S
C956 C957 1.385 . S
C957 H943 0.931 . S
C957 C956 1.385 . S
C957 C958 1.389 . S
C958 C957 1.389 . S
C958 C959 1.387 . S
C959 H944 0.930 . S
C959 C954 1.390 . S
C959 C958 1.387 . S
C325 C125 1.921 1_545 S
C337 C161 1.943 1_545 S
C364 C201 1.934 . S
C352 C144 1.893 . S
C391 C241 1.947 . S
C379 C87 1.905 . S
C418 C281 1.927 . S
C406 C106 1.882 . S
C445 C170 1.951 1_565 S
C433 C49 1.877 . S
C460 C68 1.890 . S
C472 C210 1.939 . S
C487 C11 1.888 . S
C499 C250 1.956 . S
C514 C30 1.882 . S
C526 C290 1.941 1_655 S
C553 C167 0.593 . S
C541 C97 0.463 1_655 S
C580 C207 0.610 . S
C568 C116 0.607 1_565 S
C607 C247 0.598 . S
C595 C135 0.472 . S
C622 C78 0.616 . S
C634 C287 0.456 . S
C649 C21 0.634 1_455 S
C661 C158 0.554 . S
C688 C198 0.593 . S
C676 C40 0.463 . S
C715 C238 0.490 . S
C703 C59 0.606 . S
C730 C2 0.460 . S
C742 C278 0.614 . S
C757 C101 2.021 1_455 S
C769 C171 2.280 . S
C784 C120 2.061 . S
C796 C211 2.250 . S
C823 C251 2.255 . S
C811 C139 2.081 . S
C850 C291 2.274 . S
C838 C82 2.092 . S
C865 C25 2.027 1_455 S
C877 C162 2.274 . S
C904 C202 2.274 . S
C892 C44 1.999 . S
C931 C242 2.254 . S
C919 C63 2.015 . S
C946 C6 2.005 . S
C958 C282 2.282 . S
