# Generated by pormake.
# Topology ptr, (4,4)-cn, num edge types: 1
# Building blocks:
#     Node 0, Type 0, BuildingBlock: CEKHIL_clean_sbu_0, # of connection points: 4
#     Node 1, Type 0, BuildingBlock: CEKHIL_clean_sbu_0, # of connection points: 4
#     Node 2, Type 0, BuildingBlock: CEKHIL_clean_sbu_0, # of connection points: 4
#     Node 3, Type 0, BuildingBlock: CEKHIL_clean_sbu_0, # of connection points: 4
#     Node 4, Type 0, BuildingBlock: CEKHIL_clean_sbu_0, # of connection points: 4
#     Node 5, Type 0, BuildingBlock: CEKHIL_clean_sbu_0, # of connection points: 4
#     Node 6, Type 0, BuildingBlock: CEKHIL_clean_sbu_0, # of connection points: 4
#     Node 7, Type 0, BuildingBlock: CEKHIL_clean_sbu_0, # of connection points: 4
#     Node 8, Type 0, BuildingBlock: CEKHIL_clean_sbu_0, # of connection points: 4
#     Node 9, Type 0, BuildingBlock: CEKHIL_clean_sbu_0, # of connection points: 4
#     Node 10, Type 0, BuildingBlock: CEKHIL_clean_sbu_0, # of connection points: 4
#     Node 11, Type 0, BuildingBlock: CEKHIL_clean_sbu_0, # of connection points: 4
#     Node 12, Type 0, BuildingBlock: CEKHIL_clean_sbu_0, # of connection points: 4
#     Node 13, Type 0, BuildingBlock: CEKHIL_clean_sbu_0, # of connection points: 4
#     Node 14, Type 0, BuildingBlock: CEKHIL_clean_sbu_0, # of connection points: 4
#     Node 15, Type 0, BuildingBlock: CEKHIL_clean_sbu_0, # of connection points: 4
#     Node 16, Type 0, BuildingBlock: CEKHIL_clean_sbu_0, # of connection points: 4
#     Node 17, Type 0, BuildingBlock: CEKHIL_clean_sbu_0, # of connection points: 4
#     Node 18, Type 1, BuildingBlock: MIFKUJ_clean_linker_1, # of connection points: 4
#     Node 19, Type 1, BuildingBlock: MIFKUJ_clean_linker_1, # of connection points: 4
#     Node 20, Type 1, BuildingBlock: MIFKUJ_clean_linker_1, # of connection points: 4
#     Node 21, Type 1, BuildingBlock: MIFKUJ_clean_linker_1, # of connection points: 4
#     Node 22, Type 1, BuildingBlock: MIFKUJ_clean_linker_1, # of connection points: 4
#     Node 23, Type 1, BuildingBlock: MIFKUJ_clean_linker_1, # of connection points: 4
#     Node 24, Type 1, BuildingBlock: MIFKUJ_clean_linker_1, # of connection points: 4
#     Node 25, Type 1, BuildingBlock: MIFKUJ_clean_linker_1, # of connection points: 4
#     Node 26, Type 1, BuildingBlock: MIFKUJ_clean_linker_1, # of connection points: 4
#     Node 27, Type 1, BuildingBlock: MIFKUJ_clean_linker_1, # of connection points: 4
#     Node 28, Type 1, BuildingBlock: MIFKUJ_clean_linker_1, # of connection points: 4
#     Node 29, Type 1, BuildingBlock: MIFKUJ_clean_linker_1, # of connection points: 4
#     Node 30, Type 1, BuildingBlock: MIFKUJ_clean_linker_1, # of connection points: 4
#     Node 31, Type 1, BuildingBlock: MIFKUJ_clean_linker_1, # of connection points: 4
#     Node 32, Type 1, BuildingBlock: MIFKUJ_clean_linker_1, # of connection points: 4
#     Node 33, Type 1, BuildingBlock: MIFKUJ_clean_linker_1, # of connection points: 4
#     Node 34, Type 1, BuildingBlock: MIFKUJ_clean_linker_1, # of connection points: 4
#     Node 35, Type 1, BuildingBlock: MIFKUJ_clean_linker_1, # of connection points: 4
#     Edge 36, Type (0, 1), BuildingBlock: KIFKEQ_clean_linker_1, # of connection points: 2
#     Edge 37, Type (0, 1), BuildingBlock: KIFKEQ_clean_linker_1, # of connection points: 2
#     Edge 38, Type (0, 1), BuildingBlock: KIFKEQ_clean_linker_1, # of connection points: 2
#     Edge 39, Type (0, 1), BuildingBlock: KIFKEQ_clean_linker_1, # of connection points: 2
#     Edge 40, Type (0, 1), BuildingBlock: KIFKEQ_clean_linker_1, # of connection points: 2
#     Edge 41, Type (0, 1), BuildingBlock: KIFKEQ_clean_linker_1, # of connection points: 2
#     Edge 42, Type (0, 1), BuildingBlock: KIFKEQ_clean_linker_1, # of connection points: 2
#     Edge 43, Type (0, 1), BuildingBlock: KIFKEQ_clean_linker_1, # of connection points: 2
#     Edge 44, Type (0, 1), BuildingBlock: KIFKEQ_clean_linker_1, # of connection points: 2
#     Edge 45, Type (0, 1), BuildingBlock: KIFKEQ_clean_linker_1, # of connection points: 2
#     Edge 46, Type (0, 1), BuildingBlock: KIFKEQ_clean_linker_1, # of connection points: 2
#     Edge 47, Type (0, 1), BuildingBlock: KIFKEQ_clean_linker_1, # of connection points: 2
#     Edge 48, Type (0, 1), BuildingBlock: KIFKEQ_clean_linker_1, # of connection points: 2
#     Edge 49, Type (0, 1), BuildingBlock: KIFKEQ_clean_linker_1, # of connection points: 2
#     Edge 50, Type (0, 1), BuildingBlock: KIFKEQ_clean_linker_1, # of connection points: 2
#     Edge 51, Type (0, 1), BuildingBlock: KIFKEQ_clean_linker_1, # of connection points: 2
#     Edge 52, Type (0, 1), BuildingBlock: KIFKEQ_clean_linker_1, # of connection points: 2
#     Edge 53, Type (0, 1), BuildingBlock: KIFKEQ_clean_linker_1, # of connection points: 2
#     Edge 54, Type (0, 1), BuildingBlock: KIFKEQ_clean_linker_1, # of connection points: 2
#     Edge 55, Type (0, 1), BuildingBlock: KIFKEQ_clean_linker_1, # of connection points: 2
#     Edge 56, Type (0, 1), BuildingBlock: KIFKEQ_clean_linker_1, # of connection points: 2
#     Edge 57, Type (0, 1), BuildingBlock: KIFKEQ_clean_linker_1, # of connection points: 2
#     Edge 58, Type (0, 1), BuildingBlock: KIFKEQ_clean_linker_1, # of connection points: 2
#     Edge 59, Type (0, 1), BuildingBlock: KIFKEQ_clean_linker_1, # of connection points: 2
#     Edge 60, Type (0, 1), BuildingBlock: KIFKEQ_clean_linker_1, # of connection points: 2
#     Edge 61, Type (0, 1), BuildingBlock: KIFKEQ_clean_linker_1, # of connection points: 2
#     Edge 62, Type (0, 1), BuildingBlock: KIFKEQ_clean_linker_1, # of connection points: 2
#     Edge 63, Type (0, 1), BuildingBlock: KIFKEQ_clean_linker_1, # of connection points: 2
#     Edge 64, Type (0, 1), BuildingBlock: KIFKEQ_clean_linker_1, # of connection points: 2
#     Edge 65, Type (0, 1), BuildingBlock: KIFKEQ_clean_linker_1, # of connection points: 2
#     Edge 66, Type (0, 1), BuildingBlock: KIFKEQ_clean_linker_1, # of connection points: 2
#     Edge 67, Type (0, 1), BuildingBlock: KIFKEQ_clean_linker_1, # of connection points: 2
#     Edge 68, Type (0, 1), BuildingBlock: KIFKEQ_clean_linker_1, # of connection points: 2
#     Edge 69, Type (0, 1), BuildingBlock: KIFKEQ_clean_linker_1, # of connection points: 2
#     Edge 70, Type (0, 1), BuildingBlock: KIFKEQ_clean_linker_1, # of connection points: 2
#     Edge 71, Type (0, 1), BuildingBlock: KIFKEQ_clean_linker_1, # of connection points: 2
#     Edge 72, Type (0, 1), BuildingBlock: KIFKEQ_clean_linker_1, # of connection points: 2
#     Edge 73, Type (0, 1), BuildingBlock: KIFKEQ_clean_linker_1, # of connection points: 2
#     Edge 74, Type (0, 1), BuildingBlock: KIFKEQ_clean_linker_1, # of connection points: 2
#     Edge 75, Type (0, 1), BuildingBlock: KIFKEQ_clean_linker_1, # of connection points: 2
#     Edge 76, Type (0, 1), BuildingBlock: KIFKEQ_clean_linker_1, # of connection points: 2
#     Edge 77, Type (0, 1), BuildingBlock: KIFKEQ_clean_linker_1, # of connection points: 2
#     Edge 78, Type (0, 1), BuildingBlock: KIFKEQ_clean_linker_1, # of connection points: 2
#     Edge 79, Type (0, 1), BuildingBlock: KIFKEQ_clean_linker_1, # of connection points: 2
#     Edge 80, Type (0, 1), BuildingBlock: KIFKEQ_clean_linker_1, # of connection points: 2
#     Edge 81, Type (0, 1), BuildingBlock: KIFKEQ_clean_linker_1, # of connection points: 2
#     Edge 82, Type (0, 1), BuildingBlock: KIFKEQ_clean_linker_1, # of connection points: 2
#     Edge 83, Type (0, 1), BuildingBlock: KIFKEQ_clean_linker_1, # of connection points: 2
#     Edge 84, Type (0, 1), BuildingBlock: KIFKEQ_clean_linker_1, # of connection points: 2
#     Edge 85, Type (0, 1), BuildingBlock: KIFKEQ_clean_linker_1, # of connection points: 2
#     Edge 86, Type (0, 1), BuildingBlock: KIFKEQ_clean_linker_1, # of connection points: 2
#     Edge 87, Type (0, 1), BuildingBlock: KIFKEQ_clean_linker_1, # of connection points: 2
#     Edge 88, Type (0, 1), BuildingBlock: KIFKEQ_clean_linker_1, # of connection points: 2
#     Edge 89, Type (0, 1), BuildingBlock: KIFKEQ_clean_linker_1, # of connection points: 2
#     Edge 90, Type (0, 1), BuildingBlock: KIFKEQ_clean_linker_1, # of connection points: 2
#     Edge 91, Type (0, 1), BuildingBlock: KIFKEQ_clean_linker_1, # of connection points: 2
#     Edge 92, Type (0, 1), BuildingBlock: KIFKEQ_clean_linker_1, # of connection points: 2
#     Edge 93, Type (0, 1), BuildingBlock: KIFKEQ_clean_linker_1, # of connection points: 2
#     Edge 94, Type (0, 1), BuildingBlock: KIFKEQ_clean_linker_1, # of connection points: 2
#     Edge 95, Type (0, 1), BuildingBlock: KIFKEQ_clean_linker_1, # of connection points: 2
#     Edge 96, Type (0, 1), BuildingBlock: KIFKEQ_clean_linker_1, # of connection points: 2
#     Edge 97, Type (0, 1), BuildingBlock: KIFKEQ_clean_linker_1, # of connection points: 2
#     Edge 98, Type (0, 1), BuildingBlock: KIFKEQ_clean_linker_1, # of connection points: 2
#     Edge 99, Type (0, 1), BuildingBlock: KIFKEQ_clean_linker_1, # of connection points: 2
#     Edge 100, Type (0, 1), BuildingBlock: KIFKEQ_clean_linker_1, # of connection points: 2
#     Edge 101, Type (0, 1), BuildingBlock: KIFKEQ_clean_linker_1, # of connection points: 2
#     Edge 102, Type (0, 1), BuildingBlock: KIFKEQ_clean_linker_1, # of connection points: 2
#     Edge 103, Type (0, 1), BuildingBlock: KIFKEQ_clean_linker_1, # of connection points: 2
#     Edge 104, Type (0, 1), BuildingBlock: KIFKEQ_clean_linker_1, # of connection points: 2
#     Edge 105, Type (0, 1), BuildingBlock: KIFKEQ_clean_linker_1, # of connection points: 2
#     Edge 106, Type (0, 1), BuildingBlock: KIFKEQ_clean_linker_1, # of connection points: 2
#     Edge 107, Type (0, 1), BuildingBlock: KIFKEQ_clean_linker_1, # of connection points: 2
# Relax obj value: 0.037
# Max RMSD: 0.119
# Mean RMSD: 0.059
data_MOF--net-ptr--node1-CEKHIL_clean_sbu_0--node2-MIFKUJ_clean_linker_1--edge1-KIFKEQ_clean_linker_1
_symmetry_space_group_name_H-M    P1
_symmetry_Int_Tables_number       1
_symmetry_cell_setting            triclinic
loop_
_symmetry_equiv_pos_as_xyz
'x, y, z'
_cell_length_a     91.071792
_cell_length_b     90.081092
_cell_length_c     63.076005
_cell_angle_alpha  90.758915
_cell_angle_beta   89.539551
_cell_angle_gamma 120.89622
loop_
_atom_site_label
_atom_site_type_symbol
_atom_site_fract_x
_atom_site_fract_y
_atom_site_fract_z
_atom_type_partial_charge
Co0 Co 0.00961 0.34733 0.01167 0.0
O1 O 0.01654 0.33676 0.03248 0.0
O2 O 0.0343 0.36058 0.01507 0.0
C3 C 0.99157 0.32272 0.99392 0.0
O4 O 0.0069 0.3616 0.98867 0.0
Co5 Co 0.97143 0.33734 0.00941 0.0
O6 O 0.97877 0.34972 0.98207 0.0
C7 C 0.9936 0.36058 0.04361 0.0
C8 C 0.03213 0.34914 0.0291 0.0
C9 C 0.99443 0.36039 0.97768 0.0
O10 O 0.00678 0.36144 0.03469 0.0
O11 O 0.9783 0.35066 0.03688 0.0
O12 O 0.0079 0.33071 0.99001 0.0
O13 O 0.98708 0.32891 0.00954 0.0
Co14 Co 0.66062 0.66095 0.00829 0.0
O15 O 0.6782 0.67152 0.98715 0.0
O16 O 0.6717 0.64762 0.00438 0.0
C17 C 0.66744 0.68535 0.0264 0.0
O18 O 0.64367 0.64674 0.03154 0.0
Co19 Co 0.63243 0.67074 0.01086 0.0
O20 O 0.62507 0.65594 0.03639 0.0
C21 C 0.63183 0.64841 0.97615 0.0
C22 C 0.68113 0.65907 0.99027 0.0
C23 C 0.63101 0.64634 0.04135 0.0
O24 O 0.64335 0.64676 0.98568 0.0
O25 O 0.62707 0.65886 0.98242 0.0
O26 O 0.67582 0.67749 0.02976 0.0
O27 O 0.65671 0.67928 0.01089 0.0
Co28 Co 0.34583 0.00429 0.00979 0.0
O29 O 0.33486 0.0116 0.99007 0.0
O30 O 0.35883 0.02931 0.00727 0.0
C31 C 0.32182 0.98563 0.02757 0.0
O32 O 0.36035 1.00139 0.03204 0.0
Co33 Co 0.33667 0.966 0.00985 0.0
O34 O 0.34933 0.97291 0.03712 0.0
C35 C 0.35958 0.98931 0.97672 0.0
C36 C 0.34708 0.02732 0.99395 0.0
C37 C 0.35961 0.98869 0.04221 0.0
O38 O 0.35976 0.00214 0.98621 0.0
O39 O 0.35009 0.97361 0.98264 0.0
O40 O 0.32974 0.00209 0.03198 0.0
O41 O 0.32768 0.98133 0.01141 0.0
Co42 Co 0.99867 0.65858 0.01312 0.0
O43 O 0.99154 0.66933 0.99293 0.0
O44 O 0.97396 0.64516 0.00986 0.0
C45 C 0.01671 0.68301 0.03105 0.0
O46 O 1.0017 0.64418 0.03551 0.0
Co47 Co 0.03695 0.66882 0.01399 0.0
O48 O 0.02995 0.65568 0.04089 0.0
C49 C 0.01454 0.64655 0.9796 0.0
C50 C 0.976 0.6568 0.99621 0.0
C51 C 0.01436 0.64512 0.04575 0.0
O52 O 1.00141 0.64478 0.9897 0.0
O53 O 0.02997 0.65693 0.98554 0.0
O54 O 1.00041 0.67489 0.03523 0.0
O55 O 0.02112 0.67705 0.01512 0.0
Co56 Co 0.34795 0.34824 0.01161 0.0
O57 O 0.33214 0.33735 0.0347 0.0
O58 O 0.33614 0.36049 0.01762 0.0
C59 C 0.34083 0.32372 0.99353 0.0
O60 O 0.3624 0.36278 0.98674 0.0
Co61 Co 0.37718 0.34093 1.00178 0.0
O62 O 0.37933 0.35308 0.97493 0.0
C63 C 0.38059 0.36394 0.03774 0.0
C64 C 0.32807 0.34909 0.0323 0.0
C65 C 0.37299 0.36274 0.97312 0.0
O66 O 0.36667 0.36333 0.03235 0.0
O67 O 0.3862 0.3551 0.02843 0.0
O68 O 0.33159 0.33084 0.99172 0.0
O69 O 0.353 0.33078 0.00731 0.0
Co70 Co 0.66214 0.00435 0.01292 0.0
O71 O 0.67348 0.9984 0.03377 0.0
O72 O 0.64989 0.97945 0.01685 0.0
C73 C 0.6861 0.02276 0.995 0.0
O74 O 0.64719 0.00571 0.98988 0.0
Co75 Co 0.67016 0.04206 0.00909 0.0
O76 O 0.65811 0.03365 0.98155 0.0
C77 C 0.64754 0.02004 0.04355 0.0
C78 C 0.66167 0.98238 0.03066 0.0
C79 C 0.64784 0.01759 0.97802 0.0
O80 O 0.648 0.00698 0.03582 0.0
O81 O 0.65635 0.03531 0.03599 0.0
O82 O 0.67841 0.00624 0.99116 0.0
O83 O 0.67991 0.02743 0.01042 0.0
Co84 Co 0.67704 0.68216 0.34499 0.0
O85 O 0.68453 0.67058 0.3634 0.0
O86 O 0.70175 0.69581 0.34827 0.0
C87 C 0.65919 0.65857 0.3255 0.0
O88 O 0.67364 0.69744 0.32432 0.0
Co89 Co 0.63856 0.67126 0.34575 0.0
O90 O 0.64539 0.68749 0.32168 0.0
C91 C 0.661 0.69218 0.38073 0.0
C92 C 0.69995 0.68344 0.36049 0.0
C93 C 0.66088 0.69783 0.3162 0.0
O94 O 0.67413 0.69466 0.36998 0.0
O95 O 0.64557 0.68173 0.37487 0.0
O96 O 0.67548 0.66713 0.32129 0.0
O97 O 0.65469 0.66353 0.34231 0.0
Co98 Co 0.32782 0.99297 0.34369 0.0
O99 O 0.34593 0.00357 0.32323 0.0
O100 O 0.33915 0.97981 0.34096 0.0
C101 C 0.33393 0.01745 0.36109 0.0
O102 O 0.31037 0.97877 0.3665 0.0
Co103 Co 0.29922 0.0022 0.34428 0.0
O104 O 0.29138 0.9876 0.36998 0.0
C105 C 0.29993 0.97999 0.3103 0.0
C106 C 0.34887 0.99119 0.32695 0.0
C107 C 0.2974 0.97822 0.37563 0.0
O108 O 0.31124 0.97853 0.32061 0.0
O109 O 0.29481 0.9903 0.31592 0.0
O110 O 0.34236 0.00978 0.36537 0.0
O111 O 0.32356 0.0111 0.34525 0.0
Co112 Co 0.01281 0.33561 0.34357 0.0
O113 O 1.00236 0.34287 0.3231 0.0
O114 O 0.02578 0.36067 0.34113 0.0
C115 C 0.98839 0.31689 0.36062 0.0
O116 O 0.02678 0.33252 0.3665 0.0
Co117 Co 1.0033 0.29715 0.3431 0.0
O118 O 0.01656 0.30399 0.36989 0.0
C119 C 0.02669 0.3207 0.3106 0.0
C120 C 0.01446 0.35862 0.32708 0.0
C121 C 0.02643 0.31966 0.37581 0.0
O122 O 0.02723 0.33353 0.32058 0.0
O123 O 0.01671 0.30492 0.31593 0.0
O124 O 0.99621 0.33332 0.3651 0.0
O125 O 0.99459 0.31268 0.34472 0.0
Co126 Co 0.66292 0.98941 0.34652 0.0
O127 O 0.65637 1.00042 0.32588 0.0
O128 O 0.6383 0.97642 0.34281 0.0
C129 C 0.68115 0.0137 0.3646 0.0
O130 O 0.66505 0.97473 0.36931 0.0
Co131 Co 0.70077 0.99845 0.3491 0.0
O132 O 0.69297 0.9853 0.37594 0.0
C133 C 0.67879 0.97648 0.31412 0.0
C134 C 0.6407 0.98807 0.32898 0.0
C135 C 0.67718 0.97513 0.38019 0.0
O136 O 0.66562 0.97533 0.32343 0.0
O137 O 0.69412 0.98633 0.32078 0.0
O138 O 0.6648 0.00597 0.36837 0.0
O139 O 0.68557 0.00746 0.34896 0.0
Co140 Co 0.01451 0.67953 0.34697 0.0
O141 O 0.99715 0.66805 0.36827 0.0
O142 O 1.00231 0.69166 0.35134 0.0
C143 C 0.00884 0.6556 0.32851 0.0
O144 O 0.03085 0.69462 0.32371 0.0
Co145 Co 0.04426 0.67218 0.34233 0.0
O146 O 0.04916 0.68559 0.31578 0.0
C147 C 0.0435 0.69271 0.37858 0.0
C148 C 0.99334 0.67992 0.36536 0.0
C149 C 0.04281 0.69506 0.31219 0.0
O150 O 0.0316 0.69405 0.3696 0.0
O151 O 0.04901 0.68311 0.37135 0.0
O152 O 0.9997 0.66269 0.32546 0.0
O153 O 0.01976 0.66217 0.34377 0.0
Co154 Co 0.33004 0.33883 0.34691 0.0
O155 O 0.34079 0.33216 0.36771 0.0
O156 O 0.31748 0.31381 0.34986 0.0
C157 C 0.35424 0.3576 0.3296 0.0
O158 O 0.31583 0.34129 0.32373 0.0
Co159 Co 0.33886 0.3771 0.34664 0.0
O160 O 0.32562 0.36969 0.31985 0.0
C161 C 0.3157 0.35366 0.37935 0.0
C162 C 0.32891 0.31627 0.36397 0.0
C163 C 0.31594 0.35393 0.31416 0.0
O164 O 0.31543 0.34087 0.36964 0.0
O165 O 0.32547 0.36942 0.37382 0.0
O166 O 0.34676 0.34111 0.32557 0.0
O167 O 0.34793 0.36187 0.3453 0.0
Co168 Co 0.34234 0.01585 0.67735 0.0
O169 O 0.34862 0.00547 0.6992 0.0
O170 O 0.36685 0.02926 0.68205 0.0
C171 C 0.32502 0.99103 0.65954 0.0
O172 O 0.34058 0.03001 0.65342 0.0
Co173 Co 0.30438 0.00582 0.67158 0.0
O174 O 0.31291 0.01794 0.64425 0.0
C175 C 0.32498 0.0295 0.70649 0.0
C176 C 0.36429 0.01788 0.69635 0.0
C177 C 0.32874 0.02872 0.64107 0.0
O178 O 0.33852 0.02997 0.6994 0.0
O179 O 0.31009 0.01984 0.69845 0.0
O180 O 0.34146 0.99911 0.65645 0.0
O181 O 0.31992 0.99738 0.67431 0.0
Co182 Co 0.99282 0.3273 0.67393 0.0
O183 O 0.01112 0.33917 0.65389 0.0
O184 O 0.00498 0.31506 0.67035 0.0
C185 C 0.99779 0.35073 0.69294 0.0
O186 O 0.97541 0.31184 0.69604 0.0
Co187 Co 0.96319 0.33502 0.6757 0.0
O188 O 0.95536 0.3192 0.70029 0.0
C189 C 0.96545 0.31502 0.64004 0.0
C190 C 0.01464 0.32711 0.65699 0.0
C191 C 0.962 0.31024 0.70526 0.0
O192 O 0.97671 0.31335 0.65017 0.0
O193 O 0.95989 0.32479 0.64643 0.0
O194 O 0.00671 0.34347 0.69646 0.0
O195 O 0.98767 0.34477 0.67682 0.0
Co196 Co 0.68007 0.66954 0.67809 0.0
O197 O 0.66864 0.67451 0.65623 0.0
O198 O 0.69208 0.69419 0.67283 0.0
C199 C 0.65618 0.65159 0.69654 0.0
O200 O 0.6951 0.66944 0.70195 0.0
Co201 Co 0.67273 0.63229 0.68497 0.0
O202 O 0.68471 0.64202 0.71227 0.0
C203 C 0.69529 0.6531 0.64972 0.0
C204 C 0.68029 0.69068 0.6588 0.0
C205 C 0.69474 0.65826 0.71482 0.0
O206 O 0.69444 0.66627 0.65611 0.0
O207 O 0.6868 0.63819 0.65833 0.0
O208 O 0.66354 0.66825 0.69906 0.0
O209 O 0.66261 0.64648 0.68189 0.0
Co210 Co 0.33237 0.32556 0.678 0.0
O211 O 0.32532 0.33544 0.65644 0.0
O212 O 0.30782 0.31142 0.67371 0.0
C213 C 0.3491 0.35066 0.69546 0.0
O214 O 0.33505 0.31178 0.70163 0.0
Co215 Co 0.37073 0.33716 0.68314 0.0
O216 O 0.36289 0.32437 0.71017 0.0
C217 C 0.35049 0.3134 0.64807 0.0
C218 C 0.30986 0.32266 0.65944 0.0
C219 C 0.34718 0.31324 0.71353 0.0
O220 O 0.33666 0.31196 0.6557 0.0
O221 O 0.36535 0.32375 0.6558 0.0
O222 O 0.33275 0.34185 0.69921 0.0
O223 O 0.35448 0.34472 0.68055 0.0
Co224 Co 0.67954 0.01273 0.67962 0.0
O225 O 0.66239 0.00291 0.70145 0.0
O226 O 0.66868 0.02626 0.68311 0.0
C227 C 0.67218 0.98768 0.66267 0.0
O228 O 0.69598 0.0263 0.65565 0.0
Co229 Co 0.70764 0.00292 0.67593 0.0
O230 O 0.71297 0.01549 0.64867 0.0
C231 C 0.70922 0.02607 0.7104 0.0
C232 C 0.65952 0.01535 0.69783 0.0
C233 C 0.70747 0.02558 0.64439 0.0
O234 O 0.69734 0.02745 0.70144 0.0
O235 O 0.71395 0.01564 0.70389 0.0
O236 O 0.66382 0.99552 0.65902 0.0
O237 O 0.68338 0.99432 0.67763 0.0
Co238 Co 0.9953 0.67028 0.68014 0.0
O239 O 0.00585 0.66328 0.70083 0.0
O240 O 0.98208 0.64531 0.68353 0.0
C241 C 0.01963 0.68827 0.6624 0.0
O242 O 0.98112 0.67299 0.65711 0.0
Co243 Co 0.00542 0.70889 0.6785 0.0
O244 O 0.99202 0.70144 0.65188 0.0
C245 C 0.98197 0.68654 0.71197 0.0
C246 C 0.99357 0.64751 0.6974 0.0
C247 C 0.9817 0.68563 0.64695 0.0
O248 O 0.98144 0.67329 0.70317 0.0
O249 O 0.99176 0.70202 0.70546 0.0
O250 O 0.01149 0.67173 0.65848 0.0
O251 O 0.01374 0.69303 0.67807 0.0
H252 H 0.16253 0.36376 0.20097 0.0
H253 H 0.13916 0.36258 0.22156 0.0
H254 H 0.10353 0.31403 0.19079 0.0
H255 H 0.12694 0.31583 0.16956 0.0
H256 H 0.17295 0.33936 0.20039 0.0
H257 H 0.15225 0.36541 0.15392 0.0
H258 H 0.13144 0.36839 0.13305 0.0
H259 H 0.12265 0.32488 0.09392 0.0
H260 H 0.14319 0.32164 0.11521 0.0
H261 H 0.18677 0.31918 0.1181 0.0
H262 H 0.21082 0.32088 0.09826 0.0
H263 H 0.24611 0.36503 0.13631 0.0
H264 H 0.22209 0.36361 0.15565 0.0
H265 H 0.17599 0.34155 0.12184 0.0
H266 H 0.19462 0.31386 0.17408 0.0
H267 H 0.21696 0.31331 0.19521 0.0
H268 H 0.23172 0.36358 0.22135 0.0
H269 H 0.20919 0.36391 0.20073 0.0
C270 C 0.14644 0.3399 0.18376 0.0
C271 C 0.14964 0.35293 0.19862 0.0
C272 C 0.13625 0.35216 0.21047 0.0
C273 C 0.11939 0.33814 0.20802 0.0
C274 C 0.11625 0.32517 0.19292 0.0
C275 C 0.12963 0.32609 0.18085 0.0
C276 C 0.16079 0.3405 0.17178 0.0
C277 C 0.17365 0.33993 0.18322 0.0
C278 C 0.16159 0.34111 0.14936 0.0
C279 C 0.14906 0.34305 0.13647 0.0
C280 C 0.14566 0.35631 0.14109 0.0
C281 C 0.13383 0.35807 0.12907 0.0
C282 C 0.12537 0.34683 0.11189 0.0
C283 C 0.12906 0.33382 0.10696 0.0
C284 C 0.14076 0.33193 0.11916 0.0
C285 C 0.20261 0.34106 0.13864 0.0
C286 C 0.19968 0.32924 0.12214 0.0
C287 C 0.21341 0.33023 0.11081 0.0
C288 C 0.23032 0.34301 0.11586 0.0
C289 C 0.23323 0.35487 0.13232 0.0
C290 C 0.2195 0.35401 0.14344 0.0
C291 C 0.188 0.34016 0.15044 0.0
C292 C 0.17511 0.34071 0.13899 0.0
C293 C 0.18719 0.33967 0.17284 0.0
C294 C 0.20031 0.33895 0.18584 0.0
C295 C 0.20262 0.3247 0.18447 0.0
C296 C 0.21531 0.32437 0.19652 0.0
C297 C 0.22606 0.33845 0.20975 0.0
C298 C 0.22366 0.35264 0.21113 0.0
C299 C 0.21077 0.3528 0.19947 0.0
H300 H 0.69842 0.87511 0.19864 0.0
H301 H 0.69607 0.89652 0.22049 0.0
H302 H 0.64954 0.88406 0.1881 0.0
H303 H 0.65147 0.86215 0.16667 0.0
H304 H 0.67764 0.84137 0.19688 0.0
H305 H 0.69677 0.88798 0.14637 0.0
H306 H 0.69357 0.90927 0.12648 0.0
H307 H 0.64792 0.86795 0.09686 0.0
H308 H 0.65122 0.84674 0.11679 0.0
H309 H 0.65454 0.80532 0.117 0.0
H310 H 0.65413 0.78143 0.09787 0.0
H311 H 0.70015 0.79197 0.13046 0.0
H312 H 0.7009 0.81643 0.14891 0.0
H313 H 0.67567 0.83869 0.11833 0.0
H314 H 0.65569 0.79217 0.16641 0.0
H315 H 0.65499 0.76973 0.18812 0.0
H316 H 0.69731 0.80891 0.22516 0.0
H317 H 0.6989 0.83116 0.20205 0.0
C318 C 0.67523 0.86715 0.18085 0.0
C319 C 0.68771 0.87697 0.19619 0.0
C320 C 0.68642 0.8892 0.20857 0.0
C321 C 0.6727 0.89185 0.20571 0.0
C322 C 0.66028 0.88222 0.19032 0.0
C323 C 0.66145 0.86982 0.17807 0.0
C324 C 0.67634 0.85364 0.16849 0.0
C325 C 0.67758 0.84096 0.17968 0.0
C326 C 0.67552 0.85277 0.14607 0.0
C327 C 0.67413 0.86575 0.13327 0.0
C328 C 0.68605 0.88351 0.13564 0.0
C329 C 0.68417 0.89567 0.12429 0.0
C330 C 0.6704 0.89033 0.11018 0.0
C331 C 0.65874 0.87251 0.10745 0.0
C332 C 0.6606 0.86036 0.11886 0.0
C333 C 0.67765 0.81255 0.13454 0.0
C334 C 0.66466 0.80262 0.11986 0.0
C335 C 0.66433 0.78882 0.10912 0.0
C336 C 0.67697 0.78463 0.11287 0.0
C337 C 0.69025 0.79489 0.12717 0.0
C338 C 0.69063 0.80878 0.13784 0.0
C339 C 0.67724 0.82652 0.14673 0.0
C340 C 0.67603 0.83923 0.13552 0.0
C341 C 0.67781 0.82723 0.1692 0.0
C342 C 0.67755 0.81342 0.18226 0.0
C343 C 0.66514 0.79593 0.17882 0.0
C344 C 0.66456 0.78307 0.19159 0.0
C345 C 0.67602 0.78738 0.20863 0.0
C346 C 0.68844 0.80494 0.21203 0.0
C347 C 0.68924 0.81777 0.19895 0.0
H348 H 0.12745 0.83156 0.19686 0.0
H349 H 0.10595 0.8082 0.2188 0.0
H350 H 0.119 0.77276 0.18955 0.0
H351 H 0.14002 0.79607 0.16726 0.0
H352 H 0.16269 0.84354 0.19559 0.0
H353 H 0.11436 0.81775 0.14846 0.0
H354 H 0.09091 0.79342 0.12927 0.0
H355 H 0.12752 0.78527 0.09506 0.0
H356 H 0.15087 0.80939 0.11448 0.0
H357 H 0.19464 0.85207 0.1138 0.0
H358 H 0.21899 0.87425 0.09392 0.0
H359 H 0.2151 0.91398 0.12819 0.0
H360 H 0.19022 0.89165 0.14733 0.0
H361 H 0.16226 0.84268 0.11697 0.0
H362 H 0.21033 0.86679 0.1634 0.0
H363 H 0.23438 0.88839 0.18484 0.0
H364 H 0.1996 0.89712 0.22226 0.0
H365 H 0.17568 0.87628 0.20016 0.0
C366 C 0.13524 0.81551 0.18037 0.0
C367 C 0.12556 0.81871 0.19512 0.0
C368 C 0.11333 0.80534 0.20772 0.0
C369 C 0.11072 0.78855 0.20603 0.0
C370 C 0.1204 0.78541 0.19106 0.0
C371 C 0.13251 0.79875 0.17836 0.0
C372 C 0.1487 0.82985 0.16766 0.0
C373 C 0.16248 0.84359 0.17839 0.0
C374 C 0.14861 0.8295 0.14525 0.0
C375 C 0.13437 0.81527 0.13307 0.0
C376 C 0.11733 0.81065 0.13693 0.0
C377 C 0.10395 0.79676 0.12597 0.0
C378 C 0.1074 0.78745 0.11071 0.0
C379 C 0.12449 0.79233 0.10658 0.0
C380 C 0.13783 0.8061 0.11766 0.0
C381 C 0.19068 0.87017 0.13223 0.0
C382 C 0.1989 0.86555 0.11686 0.0
C383 C 0.21297 0.87827 0.10568 0.0
C384 C 0.21916 0.89593 0.1096 0.0
C385 C 0.21063 0.90052 0.12465 0.0
C386 C 0.19648 0.88777 0.13575 0.0
C387 C 0.17638 0.85653 0.14489 0.0
C388 C 0.16243 0.84285 0.13416 0.0
C389 C 0.17645 0.8568 0.16737 0.0
C390 C 0.1912 0.87011 0.17991 0.0
C391 C 0.2079 0.87364 0.17587 0.0
C392 C 0.2216 0.88586 0.18816 0.0
C393 C 0.21871 0.8943 0.20508 0.0
C394 C 0.20205 0.89068 0.20928 0.0
C395 C 0.18842 0.87878 0.1967 0.0
H396 H 0.30782 0.17733 0.82334 0.0
H397 H 0.30901 0.20006 0.80109 0.0
H398 H 0.35569 0.23788 0.83243 0.0
H399 H 0.35462 0.21511 0.8542 0.0
H400 H 0.33109 0.16654 0.82622 0.0
H401 H 0.30661 0.1909 0.87323 0.0
H402 H 0.30702 0.21558 0.89069 0.0
H403 H 0.35366 0.22787 0.92305 0.0
H404 H 0.35346 0.20361 0.9051 0.0
H405 H 0.36156 0.15292 0.87908 0.0
H406 H 0.36607 0.13339 0.90084 0.0
H407 H 0.31469 0.11141 0.92582 0.0
H408 H 0.31087 0.13181 0.90502 0.0
H409 H 0.33225 0.16967 0.90483 0.0
H410 H 0.3539 0.1584 0.82215 0.0
H411 H 0.35388 0.13574 0.8007 0.0
H412 H 0.31405 0.09699 0.8405 0.0
H413 H 0.31313 0.11971 0.86066 0.0
C414 C 0.33106 0.19454 0.84052 0.0
C415 C 0.31828 0.19054 0.8254 0.0
C416 C 0.31891 0.20355 0.81283 0.0
C417 C 0.33245 0.22079 0.81498 0.0
C418 C 0.34518 0.22472 0.83022 0.0
C419 C 0.34451 0.21174 0.8428 0.0
C420 C 0.33063 0.18073 0.85364 0.0
C421 C 0.33132 0.16718 0.84341 0.0
C422 C 0.3307 0.18147 0.87606 0.0
C423 C 0.3301 0.19554 0.88771 0.0
C424 C 0.31692 0.19895 0.88407 0.0
C425 C 0.31711 0.21297 0.89415 0.0
C426 C 0.33047 0.22377 0.90806 0.0
C427 C 0.34337 0.21999 0.9121 0.0
C428 C 0.34317 0.20602 0.90204 0.0
C429 C 0.33589 0.14377 0.89045 0.0
C430 C 0.35135 0.14392 0.88937 0.0
C431 C 0.35382 0.13261 0.90174 0.0
C432 C 0.34076 0.12067 0.91522 0.0
C433 C 0.32524 0.1206 0.91611 0.0
C434 C 0.32293 0.13217 0.90407 0.0
C435 C 0.33325 0.15577 0.87738 0.0
C436 C 0.33194 0.16895 0.88764 0.0
C437 C 0.33274 0.15473 0.85496 0.0
C438 C 0.3336 0.14082 0.84315 0.0
C439 C 0.34514 0.14501 0.82624 0.0
C440 C 0.34527 0.13199 0.81414 0.0
C441 C 0.33398 0.11444 0.81883 0.0
C442 C 0.32276 0.11031 0.83618 0.0
C443 C 0.32242 0.12335 0.848 0.0
H444 H 0.83403 0.12983 0.82456 0.0
H445 H 0.81107 0.10795 0.80211 0.0
H446 H 0.77459 0.11725 0.83444 0.0
H447 H 0.79766 0.13987 0.856 0.0
H448 H 0.8457 0.16292 0.82608 0.0
H449 H 0.82334 0.11869 0.88402 0.0
H450 H 0.79927 0.09671 0.90453 0.0
H451 H 0.78254 0.13317 0.91689 0.0
H452 H 0.80742 0.15528 0.89789 0.0
H453 H 0.85693 0.19982 0.90571 0.0
H454 H 0.88019 0.22411 0.92489 0.0
H455 H 0.91681 0.21501 0.89221 0.0
H456 H 0.89337 0.19017 0.87382 0.0
H457 H 0.84493 0.16665 0.90454 0.0
H458 H 0.8711 0.21259 0.85536 0.0
H459 H 0.89199 0.23508 0.83194 0.0
H460 H 0.89798 0.19679 0.79753 0.0
H461 H 0.87766 0.17437 0.82156 0.0
C462 C 0.81757 0.13631 0.8423 0.0
C463 C 0.8211 0.12714 0.82691 0.0
C464 C 0.80802 0.11466 0.81413 0.0
C465 C 0.79116 0.11095 0.81676 0.0
C466 C 0.7875 0.11979 0.8324 0.0
C467 C 0.80066 0.13257 0.84485 0.0
C468 C 0.83182 0.15057 0.85452 0.0
C469 C 0.84577 0.16357 0.84327 0.0
C470 C 0.83151 0.15182 0.87685 0.0
C471 C 0.81712 0.13857 0.88956 0.0
C472 C 0.81453 0.1219 0.89142 0.0
C473 C 0.8006 0.10929 0.90296 0.0
C474 C 0.78874 0.11299 0.91247 0.0
C475 C 0.79148 0.1298 0.91037 0.0
C476 C 0.80567 0.1425 0.89936 0.0
C477 C 0.8734 0.19327 0.88816 0.0
C478 C 0.86996 0.20294 0.90284 0.0
C479 C 0.8833 0.21696 0.91361 0.0
C480 C 0.9004 0.22165 0.90991 0.0
C481 C 0.9038 0.21171 0.89553 0.0
C482 C 0.89041 0.1976 0.88485 0.0
C483 C 0.85918 0.17887 0.8761 0.0
C484 C 0.84515 0.16591 0.88737 0.0
C485 C 0.85938 0.17782 0.85367 0.0
C486 C 0.87293 0.19176 0.84045 0.0
C487 C 0.87726 0.20906 0.84321 0.0
C488 C 0.88914 0.22191 0.82978 0.0
C489 C 0.89657 0.21763 0.813 0.0
C490 C 0.89238 0.20039 0.81034 0.0
C491 C 0.88076 0.1876 0.82403 0.0
H492 H 0.80682 0.65088 0.8144 0.0
H493 H 0.78671 0.65453 0.79297 0.0
H494 H 0.78866 0.69173 0.83843 0.0
H495 H 0.80943 0.68862 0.85954 0.0
H496 H 0.83817 0.67131 0.82436 0.0
H497 H 0.78544 0.64134 0.86595 0.0
H498 H 0.76141 0.63962 0.88585 0.0
H499 H 0.79704 0.67931 0.92899 0.0
H500 H 0.8209 0.68141 0.90862 0.0
H501 H 0.88044 0.68573 0.87791 0.0
H502 H 0.90137 0.68274 0.89846 0.0
H503 H 0.8614 0.63253 0.91965 0.0
H504 H 0.84048 0.63554 0.89885 0.0
H505 H 0.83018 0.65832 0.90116 0.0
H506 H 0.87284 0.694 0.83063 0.0
H507 H 0.89695 0.69634 0.81032 0.0
H508 H 0.88097 0.64361 0.82599 0.0
H509 H 0.85681 0.64133 0.8463 0.0
C510 C 0.80954 0.6693 0.83878 0.0
C511 C 0.80309 0.65996 0.81973 0.0
C512 C 0.7916 0.66205 0.80746 0.0
C513 C 0.78615 0.67341 0.81405 0.0
C514 C 0.79257 0.68279 0.83309 0.0
C515 C 0.80435 0.68093 0.8452 0.0
C516 C 0.82192 0.66696 0.85149 0.0
C517 C 0.83633 0.66842 0.84115 0.0
C518 C 0.81968 0.66323 0.87345 0.0
C519 C 0.80496 0.66167 0.88564 0.0
C520 C 0.78804 0.64974 0.87961 0.0
C521 C 0.77433 0.64865 0.89113 0.0
C522 C 0.77731 0.65939 0.90896 0.0
C523 C 0.79429 0.67106 0.91515 0.0
C524 C 0.80795 0.67218 0.90362 0.0
C525 C 0.85893 0.66074 0.88654 0.0
C526 C 0.8762 0.67398 0.88675 0.0
C527 C 0.88815 0.67225 0.89852 0.0
C528 C 0.88306 0.65734 0.91057 0.0
C529 C 0.8657 0.64422 0.91064 0.0
C530 C 0.85375 0.6459 0.89873 0.0
C531 C 0.84621 0.66253 0.87395 0.0
C532 C 0.83185 0.66106 0.88433 0.0
C533 C 0.84843 0.66619 0.85204 0.0
C534 C 0.86309 0.66752 0.84 0.0
C535 C 0.87455 0.68296 0.82971 0.0
C536 C 0.88838 0.68432 0.81826 0.0
C537 C 0.89086 0.67018 0.81666 0.0
C538 C 0.87932 0.65468 0.8269 0.0
C539 C 0.86558 0.65339 0.83856 0.0
H540 H 0.82833 0.69281 0.53878 0.0
H541 H 0.80483 0.69023 0.56032 0.0
H542 H 0.76864 0.64939 0.51871 0.0
H543 H 0.79226 0.65112 0.49834 0.0
H544 H 0.83874 0.67151 0.53336 0.0
H545 H 0.82236 0.70085 0.48208 0.0
H546 H 0.80171 0.70393 0.46052 0.0
H547 H 0.78412 0.6536 0.43246 0.0
H548 H 0.80506 0.65077 0.45358 0.0
H549 H 0.85252 0.65187 0.4507 0.0
H550 H 0.87644 0.65369 0.43044 0.0
H551 H 0.91198 0.69736 0.46894 0.0
H552 H 0.88807 0.69584 0.48872 0.0
H553 H 0.84185 0.67404 0.45483 0.0
H554 H 0.86037 0.64617 0.50696 0.0
H555 H 0.88258 0.64545 0.52819 0.0
H556 H 0.89747 0.69571 0.55446 0.0
H557 H 0.87506 0.6962 0.53376 0.0
C558 C 0.81215 0.6723 0.51675 0.0
C559 C 0.81533 0.6833 0.53429 0.0
C560 C 0.80181 0.68193 0.54648 0.0
C561 C 0.78473 0.66961 0.54131 0.0
C562 C 0.78158 0.65888 0.52341 0.0
C563 C 0.79513 0.66007 0.51145 0.0
C564 C 0.82664 0.67296 0.50481 0.0
C565 C 0.83948 0.67226 0.5162 0.0
C566 C 0.82758 0.67364 0.4824 0.0
C567 C 0.81515 0.67555 0.46946 0.0
C568 C 0.81409 0.69053 0.47122 0.0
C569 C 0.80239 0.6923 0.45888 0.0
C570 C 0.79137 0.67898 0.44491 0.0
C571 C 0.79245 0.664 0.4432 0.0
C572 C 0.8044 0.6624 0.45517 0.0
C573 C 0.86848 0.67349 0.47152 0.0
C574 C 0.86546 0.66185 0.45476 0.0
C575 C 0.87912 0.66292 0.44317 0.0
C576 C 0.89606 0.67561 0.44821 0.0
C577 C 0.89907 0.68728 0.46494 0.0
C578 C 0.88541 0.68635 0.47633 0.0
C579 C 0.85391 0.67263 0.48339 0.0
C580 C 0.84104 0.67323 0.47199 0.0
C581 C 0.85305 0.67206 0.5058 0.0
C582 C 0.86613 0.67127 0.51878 0.0
C583 C 0.86838 0.65697 0.51739 0.0
C584 C 0.88099 0.65654 0.5295 0.0
C585 C 0.89173 0.67057 0.54281 0.0
C586 C 0.88941 0.68481 0.54419 0.0
C587 C 0.87659 0.68506 0.53248 0.0
H588 H 0.37032 0.21158 0.52456 0.0
H589 H 0.37092 0.2341 0.54711 0.0
H590 H 0.31859 0.21653 0.52977 0.0
H591 H 0.31835 0.19435 0.50662 0.0
H592 H 0.3472 0.17562 0.52903 0.0
H593 H 0.3628 0.22093 0.47789 0.0
H594 H 0.35894 0.242 0.45852 0.0
H595 H 0.3113 0.2006 0.43298 0.0
H596 H 0.31517 0.17956 0.45256 0.0
H597 H 0.31953 0.13788 0.44955 0.0
H598 H 0.3196 0.11458 0.42931 0.0
H599 H 0.36692 0.12655 0.45946 0.0
H600 H 0.36703 0.15011 0.47934 0.0
H601 H 0.33936 0.17109 0.45099 0.0
H602 H 0.32091 0.12622 0.5007 0.0
H603 H 0.3203 0.10345 0.52189 0.0
H604 H 0.36781 0.14115 0.55175 0.0
H605 H 0.36863 0.16387 0.52991 0.0
C606 C 0.34431 0.20135 0.51398 0.0
C607 C 0.35903 0.21268 0.52554 0.0
C608 C 0.3593 0.22546 0.53851 0.0
C609 C 0.34473 0.227 0.54046 0.0
C610 C 0.33007 0.21582 0.52849 0.0
C611 C 0.32988 0.2031 0.51534 0.0
C612 C 0.34392 0.18727 0.50125 0.0
C613 C 0.34576 0.17474 0.51191 0.0
C614 C 0.34125 0.18581 0.47908 0.0
C615 C 0.33914 0.19866 0.46697 0.0
C616 C 0.35143 0.21639 0.46832 0.0
C617 C 0.3492 0.22842 0.45722 0.0
C618 C 0.33475 0.22299 0.44431 0.0
C619 C 0.32263 0.2052 0.44265 0.0
C620 C 0.32481 0.19317 0.45388 0.0
C621 C 0.34316 0.14563 0.46614 0.0
C622 C 0.33 0.13561 0.45167 0.0
C623 C 0.33006 0.12231 0.44012 0.0
C624 C 0.34324 0.11875 0.44291 0.0
C625 C 0.3565 0.12889 0.45723 0.0
C626 C 0.35654 0.14232 0.4686 0.0
C627 C 0.34286 0.15949 0.47873 0.0
C628 C 0.34086 0.17196 0.46809 0.0
C629 C 0.3449 0.16065 0.50103 0.0
C630 C 0.3449 0.14676 0.51355 0.0
C631 C 0.33134 0.12957 0.51157 0.0
C632 C 0.33092 0.11658 0.52387 0.0
C633 C 0.34397 0.12048 0.53861 0.0
C634 C 0.35765 0.13767 0.54041 0.0
C635 C 0.35806 0.15069 0.52807 0.0
H636 H 0.79481 0.1611 0.53049 0.0
H637 H 0.77438 0.13718 0.55286 0.0
H638 H 0.78766 0.10298 0.52081 0.0
H639 H 0.80817 0.12694 0.49874 0.0
H640 H 0.82992 0.17486 0.52723 0.0
H641 H 0.78085 0.14765 0.48171 0.0
H642 H 0.75713 0.12236 0.46434 0.0
H643 H 0.7933 0.1143 0.42885 0.0
H644 H 0.81692 0.13915 0.44691 0.0
H645 H 0.86076 0.18316 0.44505 0.0
H646 H 0.88476 0.2056 0.42487 0.0
H647 H 0.87884 0.24477 0.45727 0.0
H648 H 0.85466 0.22222 0.47727 0.0
H649 H 0.82782 0.17268 0.44861 0.0
H650 H 0.87695 0.19957 0.49438 0.0
H651 H 0.90066 0.22333 0.51369 0.0
H652 H 0.86454 0.23066 0.55052 0.0
H653 H 0.8411 0.20786 0.53004 0.0
C654 C 0.80292 0.14577 0.5129 0.0
C655 C 0.79326 0.14843 0.52828 0.0
C656 C 0.78152 0.13474 0.54092 0.0
C657 C 0.77942 0.11821 0.53857 0.0
C658 C 0.78909 0.1156 0.52309 0.0
C659 C 0.80072 0.12924 0.51039 0.0
C660 C 0.81566 0.16035 0.49981 0.0
C661 C 0.82933 0.17458 0.51004 0.0
C662 C 0.81504 0.15972 0.4774 0.0
C663 C 0.80065 0.14514 0.46581 0.0
C664 C 0.78365 0.14037 0.47026 0.0
C665 C 0.77011 0.12601 0.46018 0.0
C666 C 0.77332 0.11623 0.44533 0.0
C667 C 0.79038 0.12135 0.4405 0.0
C668 C 0.80391 0.13567 0.45063 0.0
C669 C 0.85602 0.201 0.46286 0.0
C670 C 0.86448 0.19656 0.44762 0.0
C671 C 0.8782 0.2094 0.43609 0.0
C672 C 0.88376 0.22697 0.43957 0.0
C673 C 0.87501 0.23137 0.45447 0.0
C674 C 0.86118 0.2185 0.46588 0.0
C675 C 0.84222 0.18729 0.47603 0.0
C676 C 0.82836 0.17315 0.4658 0.0
C677 C 0.84272 0.18799 0.49849 0.0
C678 C 0.85724 0.20215 0.51045 0.0
C679 C 0.87418 0.20654 0.50634 0.0
C680 C 0.88773 0.21999 0.51762 0.0
C681 C 0.88459 0.22906 0.53362 0.0
C682 C 0.86755 0.22432 0.53798 0.0
C683 C 0.85406 0.2111 0.52645 0.0
H684 H 0.9788 0.51128 0.15785 0.0
H685 H 0.97912 0.53352 0.13549 0.0
H686 H 0.02741 0.5718 0.16317 0.0
H687 H 0.02717 0.54952 0.18507 0.0
H688 H 1.00129 0.49986 0.15899 0.0
H689 H 0.98037 0.52578 0.20714 0.0
H690 H 0.98052 0.55002 0.22518 0.0
H691 H 0.02808 0.56327 0.25587 0.0
H692 H 0.02825 0.53953 0.23699 0.0
H693 H 0.03214 0.49682 0.23724 0.0
H694 H 0.03537 0.47567 0.25757 0.0
H695 H 0.98776 0.43456 0.23158 0.0
H696 H 0.98454 0.4557 0.21152 0.0
H697 H 0.00802 0.50582 0.23719 0.0
H698 H 0.03104 0.48346 0.18277 0.0
H699 H 0.03143 0.46027 0.16224 0.0
H700 H 0.97853 0.43956 0.14519 0.0
H701 H 0.97828 0.46284 0.16541 0.0
C702 C 1.00291 0.52875 0.17323 0.0
C703 C 0.98943 0.52447 0.15909 0.0
C704 C 0.98957 0.53721 0.14646 0.0
C705 C 1.0033 0.55442 0.14755 0.0
C706 C 0.01673 0.55864 0.16179 0.0
C707 C 0.01655 0.54594 0.17445 0.0
C708 C 1.00302 0.51523 0.18636 0.0
C709 C 1.0025 0.50106 0.17611 0.0
C710 C 0.00483 0.51685 0.20869 0.0
C711 C 0.00443 0.53099 0.22048 0.0
C712 C 0.9909 0.53401 0.21762 0.0
C713 C 0.99092 0.54777 0.2281 0.0
C714 C 0.00437 0.55867 0.24186 0.0
C715 C 0.01769 0.55534 0.24507 0.0
C716 C 0.01772 0.54165 0.23448 0.0
C717 C 0.00825 0.47784 0.22255 0.0
C718 C 0.02236 0.48325 0.23601 0.0
C719 C 0.02418 0.47116 0.24765 0.0
C720 C 0.01191 0.45341 0.24603 0.0
C721 C 0.99763 0.44809 0.23285 0.0
C722 C 0.99577 0.46017 0.22135 0.0
C723 C 0.00657 0.49064 0.20975 0.0
C724 C 0.00675 0.50464 0.22007 0.0
C725 C 0.00437 0.48886 0.1875 0.0
C726 C 0.00461 0.47477 0.17558 0.0
C727 C 0.01954 0.47387 0.17463 0.0
C728 C 0.01977 0.4607 0.16292 0.0
C729 C 0.00498 0.44813 0.15229 0.0
C730 C 0.99003 0.44899 0.15346 0.0
C731 C 0.9899 0.46231 0.16485 0.0
H732 H 0.48488 0.45008 0.19125 0.0
H733 H 0.46132 0.42802 0.17014 0.0
H734 H 0.45815 0.46802 0.13697 0.0
H735 H 0.48075 0.48988 0.15941 0.0
H736 H 0.51234 0.49914 0.16138 0.0
H737 H 0.49781 0.4585 0.23492 0.0
H738 H 0.4729 0.43641 0.25481 0.0
H739 H 0.44431 0.46044 0.2372 0.0
H740 H 0.46898 0.48215 0.21676 0.0
H741 H 0.52569 0.53036 0.244 0.0
H742 H 0.54899 0.55505 0.26251 0.0
H743 H 0.58575 0.54922 0.22512 0.0
H744 H 0.56227 0.52397 0.20722 0.0
H745 H 0.51466 0.49744 0.23979 0.0
H746 H 0.53919 0.54667 0.19526 0.0
H747 H 0.5602 0.57069 0.17412 0.0
H748 H 0.56395 0.53457 0.13178 0.0
H749 H 0.54417 0.51078 0.15426 0.0
C750 C 0.48449 0.47167 0.17715 0.0
C751 C 0.47878 0.45408 0.17988 0.0
C752 C 0.46546 0.44146 0.16749 0.0
C753 C 0.45783 0.44617 0.15169 0.0
C754 C 0.46346 0.46381 0.14917 0.0
C755 C 0.47658 0.47639 0.16183 0.0
C756 C 0.49924 0.4852 0.18949 0.0
C757 C 0.51293 0.49876 0.17852 0.0
C758 C 0.49987 0.48484 0.21184 0.0
C759 C 0.48515 0.47186 0.22436 0.0
C760 C 0.48617 0.45899 0.23538 0.0
C761 C 0.472 0.4464 0.24661 0.0
C762 C 0.45683 0.44685 0.24741 0.0
C763 C 0.45593 0.45993 0.23674 0.0
C764 C 0.46995 0.47226 0.22512 0.0
C765 C 0.54222 0.52542 0.22407 0.0
C766 C 0.53876 0.5342 0.24002 0.0
C767 C 0.55211 0.54847 0.2504 0.0
C768 C 0.56923 0.5543 0.24503 0.0
C769 C 0.57271 0.54505 0.22965 0.0
C770 C 0.55931 0.53068 0.21932 0.0
C771 C 0.52788 0.51148 0.21166 0.0
C772 C 0.51427 0.49778 0.22263 0.0
C773 C 0.52712 0.51209 0.18927 0.0
C774 C 0.54028 0.52687 0.17665 0.0
C775 C 0.54491 0.54394 0.18179 0.0
C776 C 0.55675 0.5577 0.16938 0.0
C777 C 0.56382 0.5547 0.15103 0.0
C778 C 0.55913 0.53755 0.14594 0.0
C779 C 0.54759 0.52383 0.15866 0.0
H780 H 0.536 0.0238 0.16202 0.0
H781 H 0.56045 0.02713 0.14158 0.0
H782 H 0.54658 0.975 0.15747 0.0
H783 H 0.52201 0.97169 0.17778 0.0
H784 H 0.50176 1.0006 0.15608 0.0
H785 H 0.54399 0.01539 0.20962 0.0
H786 H 0.56535 0.0132 0.23027 0.0
H787 H 0.52649 0.96226 0.25081 0.0
H788 H 0.50515 0.96445 0.22989 0.0
H789 H 0.46035 0.96467 0.22996 0.0
H790 H 0.43657 0.96277 0.25064 0.0
H791 H 0.44965 0.01339 0.2288 0.0
H792 H 0.47343 0.01529 0.20839 0.0
H793 H 0.49371 0.98627 0.23256 0.0
H794 H 0.45147 0.97127 0.17863 0.0
H795 H 0.43026 0.97324 0.15738 0.0
H796 H 0.46894 0.02471 0.13814 0.0
H797 H 0.49016 0.02253 0.15926 0.0
C798 C 0.52725 0.99754 0.17148 0.0
C799 C 0.53824 0.0131 0.16111 0.0
C800 C 0.55227 0.01503 0.1496 0.0
C801 C 0.55546 1.00135 0.14802 0.0
C802 C 0.54439 0.98573 0.15834 0.0
C803 C 0.53042 0.98386 0.17002 0.0
C804 C 0.51235 0.99559 0.18359 0.0
C805 C 0.50007 0.99766 0.17286 0.0
C806 C 0.50999 0.99132 0.20536 0.0
C807 C 0.523 0.98996 0.2179 0.0
C808 C 0.54009 0.00364 0.21831 0.0
C809 C 0.55229 0.00238 0.23016 0.0
C810 C 0.54763 0.98751 0.24208 0.0
C811 C 0.53046 0.97393 0.24191 0.0
C812 C 0.51827 0.97515 0.22992 0.0
C813 C 0.46852 0.99001 0.21737 0.0
C814 C 0.45809 0.97536 0.22966 0.0
C815 C 0.44454 0.9743 0.24149 0.0
C816 C 0.44118 0.98788 0.24122 0.0
C817 C 0.45172 0.00258 0.22902 0.0
C818 C 0.46531 0.00367 0.21733 0.0
C819 C 0.48306 0.99125 0.20505 0.0
C820 C 0.49531 0.98909 0.21574 0.0
C821 C 0.48538 0.99541 0.18324 0.0
C822 C 0.47239 0.99679 0.17067 0.0
C823 C 0.45535 0.98305 0.17 0.0
C824 C 0.44321 0.98423 0.15788 0.0
C825 C 0.44785 0.99917 0.14607 0.0
C826 C 0.46495 0.01294 0.14682 0.0
C827 C 0.47709 0.01173 0.15893 0.0
H828 H 0.49623 0.03494 0.86776 0.0
H829 H 0.47244 0.03287 0.88832 0.0
H830 H 0.43804 0.9838 0.85771 0.0
H831 H 0.46185 0.98653 0.83646 0.0
H832 H 0.50706 0.0099 0.86678 0.0
H833 H 0.48555 0.03672 0.82074 0.0
H834 H 0.4636 0.03805 0.80026 0.0
H835 H 0.45676 0.99499 0.76156 0.0
H836 H 0.47817 0.99325 0.78272 0.0
H837 H 0.52241 0.99468 0.78232 0.0
H838 H 0.54651 0.99724 0.76189 0.0
H839 H 0.58169 0.03878 0.8033 0.0
H840 H 0.55751 0.03644 0.82347 0.0
H841 H 0.51136 0.01572 0.78859 0.0
H842 H 0.53431 0.98982 0.8329 0.0
H843 H 0.55523 0.98735 0.85444 0.0
H844 H 0.55861 0.02684 0.89708 0.0
H845 H 0.53836 0.0299 0.8751 0.0
C846 C 0.48077 0.01091 0.85061 0.0
C847 C 0.48352 0.0238 0.86545 0.0
C848 C 0.46989 0.02251 0.87729 0.0
C849 C 0.45324 0.00809 0.87487 0.0
C850 C 0.45056 0.99523 0.85982 0.0
C851 C 0.46418 0.99668 0.84775 0.0
C852 C 0.49537 0.01217 0.83852 0.0
C853 C 0.50822 0.01141 0.84971 0.0
C854 C 0.4964 0.01357 0.81621 0.0
C855 C 0.48332 0.01469 0.80352 0.0
C856 C 0.47917 0.02742 0.80802 0.0
C857 C 0.46676 0.02831 0.7961 0.0
C858 C 0.45835 0.01659 0.77927 0.0
C859 C 0.46276 0.00404 0.7746 0.0
C860 C 0.47511 0.00312 0.78659 0.0
C861 C 0.53812 0.01522 0.80461 0.0
C862 C 0.5353 0.00443 0.78694 0.0
C863 C 0.54908 0.00592 0.77524 0.0
C864 C 0.56597 0.0182 0.78102 0.0
C865 C 0.5688 0.02907 0.79863 0.0
C866 C 0.555 0.02771 0.81019 0.0
C867 C 0.52334 0.01359 0.81683 0.0
C868 C 0.51036 0.01422 0.80568 0.0
C869 C 0.52215 0.01192 0.83922 0.0
C870 C 0.53488 0.01025 0.85212 0.0
C871 C 0.53977 0.99819 0.84665 0.0
C872 C 0.55164 0.99669 0.85902 0.0
C873 C 0.55847 0.00687 0.87744 0.0
C874 C 0.55341 0.01873 0.88307 0.0
C875 C 0.54183 0.02047 0.8705 0.0
H876 H 0.02642 0.53744 0.86563 0.0
H877 H 0.02744 0.56087 0.88634 0.0
H878 H 0.98188 0.55265 0.85452 0.0
H879 H 0.98009 0.52813 0.83528 0.0
H880 H 0.00488 0.5049 0.86531 0.0
H881 H 0.02368 0.54948 0.81222 0.0
H882 H 0.02125 0.57106 0.79194 0.0
H883 H 0.97303 0.53081 0.76625 0.0
H884 H 0.97551 0.50927 0.78665 0.0
H885 H 0.97761 0.46555 0.78739 0.0
H886 H 0.97748 0.44185 0.76801 0.0
H887 H 0.02472 0.45405 0.79876 0.0
H888 H 0.02522 0.4783 0.81721 0.0
H889 H 0.99873 0.49923 0.78709 0.0
H890 H 0.97908 0.45504 0.83945 0.0
H891 H 0.97939 0.43293 0.86112 0.0
H892 H 0.02751 0.47174 0.88866 0.0
H893 H 0.02733 0.49377 0.86648 0.0
C894 C 1.00331 0.53111 0.84868 0.0
C895 C 0.01657 0.5406 0.86322 0.0
C896 C 0.01727 0.55422 0.87485 0.0
C897 C 0.00486 0.5589 0.87199 0.0
C898 C 0.99158 0.54938 0.85735 0.0
C899 C 0.99068 0.53548 0.84605 0.0
C900 C 1.00263 0.51646 0.83671 0.0
C901 C 0.00381 0.50383 0.84817 0.0
C902 C 1.00063 0.51472 0.81438 0.0
C903 C 0.99966 0.52777 0.80122 0.0
C904 C 0.01256 0.5453 0.80228 0.0
C905 C 0.01112 0.55764 0.79071 0.0
C906 C 0.99686 0.55268 0.77761 0.0
C907 C 0.98422 0.53505 0.77607 0.0
C908 C 0.98561 0.52272 0.78775 0.0
C909 C 1.00132 0.47358 0.80391 0.0
C910 C 0.988 0.46319 0.78983 0.0
C911 C 0.98784 0.44951 0.77895 0.0
C912 C 1.00102 0.44594 0.78197 0.0
C913 C 0.01445 0.45651 0.79594 0.0
C914 C 0.01466 0.47027 0.80668 0.0
C915 C 1.00127 0.4879 0.81569 0.0
C916 C 0.99989 0.5004 0.80422 0.0
C917 C 1.00301 0.4895 0.83801 0.0
C918 C 1.00325 0.47606 0.8512 0.0
C919 C 0.98978 0.45877 0.85001 0.0
C920 C 0.98991 0.44616 0.86254 0.0
C921 C 0.00347 0.45056 0.87666 0.0
C922 C 0.01698 0.46788 0.87779 0.0
C923 C 0.01682 0.48051 0.86526 0.0
H924 H 0.45573 0.50044 0.85908 0.0
H925 H 0.43306 0.47695 0.87994 0.0
H926 H 0.44816 0.44187 0.8548 0.0
H927 H 0.47058 0.46528 0.83404 0.0
H928 H 0.49156 0.51277 0.8611 0.0
H929 H 0.44747 0.49143 0.8032 0.0
H930 H 0.42467 0.46699 0.78352 0.0
H931 H 0.45851 0.44719 0.77218 0.0
H932 H 0.48142 0.47232 0.79051 0.0
H933 H 0.52706 0.52041 0.78208 0.0
H934 H 0.55227 0.5425 0.76331 0.0
H935 H 0.54662 0.58238 0.79428 0.0
H936 H 0.52098 0.56015 0.81239 0.0
H937 H 0.4945 0.51071 0.7826 0.0
H938 H 0.54032 0.53483 0.83144 0.0
H939 H 0.56399 0.5565 0.85321 0.0
H940 H 0.5289 0.56655 0.88781 0.0
H941 H 0.50533 0.54562 0.86526 0.0
C942 C 0.46465 0.48453 0.84479 0.0
C943 C 0.45402 0.48764 0.858 0.0
C944 C 0.44112 0.47422 0.86993 0.0
C945 C 0.43871 0.45749 0.86893 0.0
C946 C 0.44939 0.45447 0.85559 0.0
C947 C 0.46225 0.46786 0.84372 0.0
C948 C 0.47875 0.49881 0.83273 0.0
C949 C 0.49209 0.51263 0.84391 0.0
C950 C 0.47971 0.49814 0.81044 0.0
C951 C 0.46608 0.48367 0.79807 0.0
C952 C 0.44993 0.48188 0.79618 0.0
C953 C 0.43686 0.46776 0.78515 0.0
C954 C 0.43963 0.45499 0.77617 0.0
C955 C 0.45591 0.45689 0.77834 0.0
C956 C 0.46905 0.47121 0.78892 0.0
C957 C 0.5222 0.53861 0.79879 0.0
C958 C 0.53112 0.5339 0.78464 0.0
C959 C 0.54567 0.54657 0.77411 0.0
C960 C 0.55159 0.56423 0.77747 0.0
C961 C 0.54237 0.56891 0.79124 0.0
C962 C 0.52777 0.55621 0.80173 0.0
C963 C 0.50741 0.52508 0.81093 0.0
C964 C 0.49395 0.51125 0.79976 0.0
C965 C 0.5066 0.52562 0.83337 0.0
C966 C 0.52106 0.53883 0.84638 0.0
C967 C 0.53774 0.54198 0.84333 0.0
C968 C 0.55123 0.55424 0.85582 0.0
C969 C 0.54815 0.5631 0.87203 0.0
C970 C 0.53149 0.5598 0.87536 0.0
C971 C 0.51807 0.54785 0.86254 0.0
H972 H 0.637 0.84038 0.49354 0.0
H973 H 0.63649 0.86249 0.47201 0.0
H974 H 0.68514 0.90113 0.49868 0.0
H975 H 0.68528 0.87902 0.5205 0.0
H976 H 0.66086 0.83013 0.4939 0.0
H977 H 0.63869 0.85542 0.54204 0.0
H978 H 0.63842 0.87887 0.5618 0.0
H979 H 0.68502 0.89046 0.59359 0.0
H980 H 0.68546 0.8673 0.57352 0.0
H981 H 0.68907 0.82533 0.57311 0.0
H982 H 0.69242 0.80401 0.59273 0.0
H983 H 0.64573 0.76294 0.56476 0.0
H984 H 0.64245 0.78433 0.54521 0.0
H985 H 0.66485 0.8339 0.57237 0.0
H986 H 0.68715 0.80871 0.52428 0.0
H987 H 0.68751 0.78531 0.50494 0.0
H988 H 0.64185 0.7747 0.47123 0.0
H989 H 0.64078 0.79707 0.49198 0.0
C990 C 0.66111 0.85807 0.50873 0.0
C991 C 0.64751 0.85364 0.49475 0.0
C992 C 0.64728 0.8663 0.4824 0.0
C993 C 0.66076 0.88365 0.48358 0.0
C994 C 0.67437 0.888 0.49762 0.0
C995 C 0.67453 0.87535 0.51005 0.0
C996 C 0.66145 0.84457 0.52162 0.0
C997 C 0.66146 0.83077 0.51108 0.0
C998 C 0.66265 0.84571 0.544 0.0
C999 C 0.66221 0.85972 0.55612 0.0
C1000 C 0.64896 0.86314 0.55308 0.0
C1001 C 0.64879 0.8765 0.56439 0.0
C1002 C 0.66169 0.88645 0.57922 0.0
C1003 C 0.67481 0.88287 0.58242 0.0
C1004 C 0.67508 0.86965 0.57096 0.0
C1005 C 0.66563 0.80643 0.55749 0.0
C1006 C 0.67947 0.81174 0.57137 0.0
C1007 C 0.68136 0.79954 0.58259 0.0
C1008 C 0.66941 0.78176 0.58019 0.0
C1009 C 0.65532 0.77651 0.56667 0.0
C1010 C 0.6534 0.78872 0.55554 0.0
C1011 C 0.66429 0.81941 0.54466 0.0
C1012 C 0.66414 0.83316 0.55519 0.0
C1013 C 0.66302 0.81825 0.52224 0.0
C1014 C 0.66372 0.80444 0.50995 0.0
C1015 C 0.67702 0.8011 0.51304 0.0
C1016 C 0.67735 0.78784 0.50169 0.0
C1017 C 0.66465 0.77794 0.48654 0.0
C1018 C 0.65161 0.78167 0.48312 0.0
C1019 C 0.6511 0.79467 0.49479 0.0
H1020 H 0.16775 0.79744 0.49167 0.0
H1021 H 0.14458 0.77534 0.47023 0.0
H1022 H 0.10799 0.78133 0.50789 0.0
H1023 H 0.13149 0.80446 0.52825 0.0
H1024 H 0.17849 0.83026 0.49586 0.0
H1025 H 0.1533 0.78133 0.54411 0.0
H1026 H 0.12904 0.75866 0.56394 0.0
H1027 H 0.12402 0.79775 0.598 0.0
H1028 H 0.14808 0.82029 0.57805 0.0
H1029 H 0.19183 0.8634 0.57759 0.0
H1030 H 0.21536 0.88816 0.59584 0.0
H1031 H 0.25172 0.88105 0.55938 0.0
H1032 H 0.22804 0.85586 0.54164 0.0
H1033 H 0.18092 0.83003 0.57435 0.0
H1034 H 0.20434 0.87838 0.52889 0.0
H1035 H 0.22511 0.90243 0.50759 0.0
H1036 H 0.22993 0.86652 0.46607 0.0
H1037 H 0.21037 0.84272 0.48872 0.0
C1038 C 0.15138 0.80246 0.51177 0.0
C1039 C 0.15475 0.79405 0.49526 0.0
C1040 C 0.14141 0.78122 0.48317 0.0
C1041 C 0.12431 0.77631 0.48746 0.0
C1042 C 0.12097 0.78481 0.50401 0.0
C1043 C 0.13439 0.7979 0.51588 0.0
C1044 C 0.16582 0.81633 0.52416 0.0
C1045 C 0.17922 0.83005 0.51301 0.0
C1046 C 0.16636 0.81637 0.5466 0.0
C1047 C 0.1524 0.80252 0.55943 0.0
C1048 C 0.14695 0.785 0.55583 0.0
C1049 C 0.13308 0.77206 0.56713 0.0
C1050 C 0.12459 0.77642 0.58249 0.0
C1051 C 0.1304 0.79398 0.58645 0.0
C1052 C 0.14415 0.80688 0.57504 0.0
C1053 C 0.20817 0.85789 0.5581 0.0
C1054 C 0.20486 0.86701 0.57374 0.0
C1055 C 0.21833 0.88129 0.58397 0.0
C1056 C 0.23541 0.88672 0.57881 0.0
C1057 C 0.23871 0.87717 0.56372 0.0
C1058 C 0.2252 0.86284 0.55349 0.0
C1059 C 0.19378 0.84377 0.54598 0.0
C1060 C 0.18037 0.83009 0.55718 0.0
C1061 C 0.19308 0.84391 0.52356 0.0
C1062 C 0.20598 0.8587 0.51072 0.0
C1063 C 0.21023 0.87571 0.51556 0.0
C1064 C 0.22193 0.88948 0.50305 0.0
C1065 C 0.22925 0.88654 0.48492 0.0
C1066 C 0.2249 0.86944 0.48008 0.0
C1067 C 0.2135 0.85573 0.4929 0.0
H1068 H 0.13166 0.30783 0.49086 0.0
H1069 H 0.10912 0.30813 0.47028 0.0
H1070 H 0.12442 0.35878 0.49564 0.0
H1071 H 0.14681 0.35826 0.51669 0.0
H1072 H 0.16806 0.33275 0.48996 0.0
H1073 H 0.11959 0.30882 0.53666 0.0
H1074 H 0.09625 0.30805 0.55683 0.0
H1075 H 0.13297 0.3526 0.59338 0.0
H1076 H 0.15619 0.35384 0.5723 0.0
H1077 H 0.19912 0.35051 0.57458 0.0
H1078 H 0.21975 0.347 0.59529 0.0
H1079 H 0.21033 0.3036 0.5555 0.0
H1080 H 0.18944 0.30686 0.5352 0.0
H1081 H 0.16632 0.33085 0.56856 0.0
H1082 H 0.21444 0.35684 0.52026 0.0
H1083 H 0.23795 0.35913 0.49883 0.0
H1084 H 0.20271 0.31065 0.46761 0.0
H1085 H 0.17921 0.30899 0.48842 0.0
C1086 C 0.14083 0.33298 0.50534 0.0
C1087 C 0.13016 0.31899 0.49201 0.0
C1088 C 0.11726 0.31915 0.48036 0.0
C1089 C 0.11503 0.33346 0.48147 0.0
C1090 C 0.12592 0.34762 0.49452 0.0
C1091 C 0.13864 0.34731 0.50654 0.0
C1092 C 0.15422 0.33244 0.51794 0.0
C1093 C 0.16763 0.33223 0.50715 0.0
C1094 C 0.15385 0.33215 0.54036 0.0
C1095 C 0.13963 0.33161 0.55267 0.0
C1096 C 0.1226 0.31861 0.54875 0.0
C1097 C 0.10927 0.31803 0.56055 0.0
C1098 C 0.1127 0.33027 0.57675 0.0
C1099 C 0.12982 0.34314 0.58081 0.0
C1100 C 0.14313 0.34379 0.56889 0.0
C1101 C 0.19292 0.32917 0.55305 0.0
C1102 C 0.20144 0.3402 0.57036 0.0
C1103 C 0.21319 0.33815 0.58222 0.0
C1104 C 0.21671 0.32506 0.57695 0.0
C1105 C 0.20807 0.31395 0.55974 0.0
C1106 C 0.19619 0.31588 0.54806 0.0
C1107 C 0.18025 0.33119 0.54061 0.0
C1108 C 0.16691 0.33162 0.5514 0.0
C1109 C 0.18074 0.33183 0.51819 0.0
C1110 C 0.19511 0.33277 0.50588 0.0
C1111 C 0.21184 0.34671 0.50882 0.0
C1112 C 0.22529 0.34791 0.49663 0.0
C1113 C 0.2223 0.33509 0.48138 0.0
C1114 C 0.2055 0.32096 0.47884 0.0
C1115 C 0.19203 0.31992 0.49081 0.0
H1116 H 0.02378 0.38403 0.0632 0.0
H1117 H 0.96919 0.36342 0.06558 0.0
H1118 H 0.0278 0.40415 0.09199 0.0
H1119 H 0.97326 0.38373 0.09368 0.0
H1120 H 0.98229 0.41348 0.15364 0.0
H1121 H 0.98074 0.39114 0.12985 0.0
H1122 H 0.02618 0.42978 0.09737 0.0
H1123 H 0.02797 0.45196 0.12172 0.0
C1124 C 0.01264 0.38372 0.06988 0.0
C1125 C 0.99616 0.37213 0.06197 0.0
C1126 C 0.01496 0.39532 0.08632 0.0
C1127 C 1.00086 0.39558 0.09518 0.0
C1128 C 0.98439 0.38372 0.08754 0.0
C1129 C 0.98207 0.37213 0.07123 0.0
C1130 C 0.99202 0.4171 0.14154 0.0
C1131 C 0.00515 0.43441 0.13935 0.0
C1132 C 0.99113 0.40436 0.12786 0.0
C1133 C 1.0032 0.40869 0.11149 0.0
C1134 C 0.01677 0.42594 0.10991 0.0
C1135 C 0.01777 0.43866 0.12379 0.0
H1136 H 0.59838 0.63328 0.05529 0.0
H1137 H 0.64371 0.63053 0.06595 0.0
H1138 H 0.5833 0.6118 0.08229 0.0
H1139 H 0.62884 0.60953 0.09405 0.0
H1140 H 0.59093 0.55857 0.12682 0.0
H1141 H 0.60757 0.58084 0.10098 0.0
H1142 H 0.58047 0.60699 0.11829 0.0
H1143 H 0.56277 0.58396 0.14246 0.0
C1144 C 0.60524 0.62828 0.06369 0.0
C1145 C 0.62227 0.63367 0.05851 0.0
C1146 C 0.5966 0.616 0.07936 0.0
C1147 C 0.60483 0.60896 0.09065 0.0
C1148 C 0.62197 0.61446 0.08556 0.0
C1149 C 0.63055 0.62658 0.06954 0.0
C1150 C 0.58833 0.56893 0.12493 0.0
C1151 C 0.57527 0.56923 0.1367 0.0
C1152 C 0.59813 0.58192 0.11031 0.0
C1153 C 0.59533 0.59572 0.10728 0.0
C1154 C 0.58278 0.59639 0.11972 0.0
C1155 C 0.57278 0.58326 0.134 0.0
H1156 H 0.3573 0.96641 0.0727 0.0
H1157 H 0.38968 0.01892 0.05128 0.0
H1158 H 0.37853 0.97089 0.09908 0.0
H1159 H 0.41099 0.02344 0.07801 0.0
H1160 H 0.45237 0.01288 0.10629 0.0
H1161 H 0.43082 0.01241 0.08315 0.0
H1162 H 0.39257 0.98688 0.13183 0.0
H1163 H 0.41415 0.98752 0.15513 0.0
C1164 C 0.36888 0.979 0.07377 0.0
C1165 C 0.37182 0.99227 0.05974 0.0
C1166 C 0.38102 0.9816 0.08903 0.0
C1167 C 0.39649 0.99751 0.09062 0.0
C1168 C 0.39926 0.01098 0.07704 0.0
C1169 C 0.387 0.00843 0.06184 0.0
C1170 C 0.43945 0.00747 0.11226 0.0
C1171 C 0.43499 1.00009 0.13255 0.0
C1172 C 0.42709 0.00722 0.09897 0.0
C1173 C 0.40996 0.99952 0.1056 0.0
C1174 C 0.40561 0.99267 0.12613 0.0
C1175 C 0.41797 0.99298 0.13945 0.0
H1176 H 0.35921 0.96658 0.9471 0.0
H1177 H 0.38804 0.02028 0.96685 0.0
H1178 H 0.38132 0.97201 0.92094 0.0
H1179 H 0.41014 0.02557 0.94081 0.0
H1180 H 0.45453 0.01786 0.91654 0.0
H1181 H 0.43119 0.0145 0.93893 0.0
H1182 H 0.39579 0.98993 0.88715 0.0
H1183 H 0.41928 0.99395 0.86422 0.0
C1184 C 0.37015 0.97957 0.94571 0.0
C1185 C 0.37189 0.99297 0.95918 0.0
C1186 C 0.38275 0.98268 0.93066 0.0
C1187 C 0.39747 0.99917 0.92898 0.0
C1188 C 0.39897 0.01269 0.94193 0.0
C1189 C 0.38626 0.00966 0.95675 0.0
C1190 C 0.44189 0.01209 0.90966 0.0
C1191 C 0.4389 0.00625 0.88844 0.0
C1192 C 0.42849 0.01011 0.92258 0.0
C1193 C 0.41171 0.00201 0.91475 0.0
C1194 C 0.40861 0.99613 0.89361 0.0
C1195 C 0.42208 0.99835 0.88054 0.0
H1196 H 0.97368 0.35607 0.94448 0.0
H1197 H 0.02285 0.39262 0.97161 0.0
H1198 H 0.97698 0.3775 0.91891 0.0
H1199 H 0.02599 0.41438 0.9462 0.0
H1200 H 0.03009 0.44574 0.88658 0.0
H1201 H 0.02931 0.42352 0.90929 0.0
H1202 H 0.97554 0.40327 0.92111 0.0
H1203 H 0.9763 0.42524 0.89844 0.0
C1204 C 0.98528 0.36868 0.9449 0.0
C1205 C 0.99792 0.37269 0.96026 0.0
C1206 C 0.98712 0.38103 0.9303 0.0
C1207 C 1.00157 0.39782 0.93077 0.0
C1208 C 0.01469 0.40157 0.94536 0.0
C1209 C 0.01291 0.38911 0.95994 0.0
C1210 C 0.01813 0.43656 0.89412 0.0
C1211 C 1.00322 0.43718 0.89055 0.0
C1212 C 0.01769 0.42383 0.90713 0.0
C1213 C 1.00233 0.41147 0.91687 0.0
C1214 C 0.98751 0.41228 0.91345 0.0
C1215 C 0.98794 0.42492 0.90045 0.0
H1216 H 0.62632 0.61604 0.96871 0.0
H1217 H 0.61613 0.65421 0.94337 0.0
H1218 H 0.60754 0.59516 0.94184 0.0
H1219 H 0.5977 0.63339 0.91625 0.0
H1220 H 0.57731 0.59256 0.86046 0.0
H1221 H 0.59998 0.61386 0.88398 0.0
H1222 H 0.57321 0.58234 0.93801 0.0
H1223 H 0.5504 0.56137 0.91461 0.0
C1224 C 0.62039 0.62009 0.95712 0.0
C1225 C 0.62257 0.6367 0.95819 0.0
C1226 C 0.60963 0.60813 0.94185 0.0
C1227 C 0.60123 0.61274 0.92712 0.0
C1228 C 0.60414 0.62962 0.92742 0.0
C1229 C 0.6146 0.64146 0.94296 0.0
C1230 C 0.57641 0.59023 0.87736 0.0
C1231 C 0.5622 0.57548 0.88587 0.0
C1232 C 0.58929 0.60234 0.89073 0.0
C1233 C 0.58829 0.5996 0.91269 0.0
C1234 C 0.57429 0.5846 0.92108 0.0
C1235 C 0.56125 0.57272 0.90779 0.0
H1236 H 0.98785 0.61386 0.97285 0.0
H1237 H 0.03495 0.65364 0.94481 0.0
H1238 H 0.98493 0.5938 0.94481 0.0
H1239 H 0.03153 0.63401 0.9158 0.0
H1240 H 0.03335 0.58898 0.88529 0.0
H1241 H 0.0347 0.61068 0.90946 0.0
H1242 H 0.97941 0.58443 0.91007 0.0
H1243 H 0.97806 0.56169 0.88763 0.0
C1244 C 0.99736 0.61842 0.96034 0.0
C1245 C 0.01171 0.63522 0.9611 0.0
C1246 C 0.99565 0.60695 0.94411 0.0
C1247 C 0.00807 0.61214 0.92798 0.0
C1248 C 0.02195 0.62933 0.9282 0.0
C1249 C 0.02386 0.64066 0.94473 0.0
C1250 C 0.02144 0.58766 0.89078 0.0
C1251 C 0.0056 0.57331 0.88474 0.0
C1252 C 0.02222 0.60038 0.90438 0.0
C1253 C 0.00716 0.59938 0.91195 0.0
C1254 C 0.9913 0.5855 0.90502 0.0
C1255 C 0.99053 0.57255 0.89177 0.0
H1256 H 0.36893 0.39067 0.96836 0.0
H1257 H 0.39133 0.36352 0.93822 0.0
H1258 H 0.38205 0.41316 0.94153 0.0
H1259 H 0.4045 0.38602 0.91169 0.0
H1260 H 0.41749 0.42333 0.85832 0.0
H1261 H 0.39879 0.39966 0.88181 0.0
H1262 H 0.41198 0.43603 0.93375 0.0
H1263 H 0.43078 0.45967 0.91038 0.0
C1264 C 0.37645 0.38936 0.95589 0.0
C1265 C 0.3792 0.37535 0.95557 0.0
C1266 C 0.38404 0.40231 0.9406 0.0
C1267 C 0.39438 0.40142 0.92456 0.0
C1268 C 0.39648 0.38702 0.92371 0.0
C1269 C 0.38901 0.37417 0.93904 0.0
C1270 C 0.41635 0.42628 0.87474 0.0
C1271 C 0.42578 0.44338 0.88252 0.0
C1272 C 0.40561 0.41273 0.88817 0.0
C1273 C 0.404 0.41596 0.90966 0.0
C1274 C 0.41279 0.43313 0.91721 0.0
C1275 C 0.42357 0.44669 0.9038 0.0
H1276 H 0.65154 0.03534 0.9418 0.0
H1277 H 0.61545 0.98928 0.9755 0.0
H1278 H 0.62948 0.02996 0.91597 0.0
H1279 H 0.59325 0.98405 0.9497 0.0
H1280 H 0.55717 0.00223 0.92016 0.0
H1281 H 0.57872 0.0019 0.94272 0.0
H1282 H 0.60957 0.00795 0.88753 0.0
H1283 H 0.58786 0.00809 0.86489 0.0
C1284 C 0.63896 0.02391 0.9435 0.0
C1285 C 0.6352 0.01278 0.96074 0.0
C1286 C 0.62636 0.0208 0.92864 0.0
C1287 C 0.60964 0.00664 0.9309 0.0
C1288 C 0.60602 0.99511 0.94767 0.0
C1289 C 0.61874 0.99805 0.96233 0.0
C1290 C 0.56848 0.00331 0.91285 0.0
C1291 C 0.57091 0.00527 0.89081 0.0
C1292 C 0.58073 0.00297 0.92573 0.0
C1293 C 0.59581 0.00489 0.91687 0.0
C1294 C 0.59808 0.00648 0.89476 0.0
C1295 C 0.58566 0.0065 0.88183 0.0
H1296 H 0.64039 0.04345 0.06145 0.0
H1297 H 0.62737 0.99016 0.06574 0.0
H1298 H 0.61909 0.03836 0.08819 0.0
H1299 H 0.60629 0.98522 0.09311 0.0
H1300 H 0.55545 0.97846 0.11915 0.0
H1301 H 0.57875 0.98268 0.09583 0.0
H1302 H 0.6118 0.03281 0.12474 0.0
H1303 H 0.58834 0.02868 0.1477 0.0
C1304 C 0.63317 0.03069 0.06831 0.0
C1305 C 0.63557 0.01719 0.06129 0.0
C1306 C 0.62098 0.0278 0.08381 0.0
C1307 C 0.61092 0.01136 0.09284 0.0
C1308 C 0.61363 0.99797 0.08627 0.0
C1309 C 0.6258 1.00084 0.07066 0.0
C1310 C 0.56777 0.99027 0.12069 0.0
C1311 C 0.57004 0.0033 0.13512 0.0
C1312 C 0.58116 0.99268 0.10737 0.0
C1313 C 0.59716 0.00814 0.10828 0.0
C1314 C 0.59956 0.0209 0.12329 0.0
C1315 C 0.58614 0.01853 0.13648 0.0
H1316 H 0.03584 0.64869 0.07777 0.0
H1317 H 0.98549 0.61344 0.05263 0.0
H1318 H 0.03219 0.62721 0.10348 0.0
H1319 H 0.98201 0.5916 0.07806 0.0
H1320 H 0.97741 0.56035 0.13771 0.0
H1321 H 0.97894 0.58278 0.11472 0.0
H1322 H 0.03222 0.60085 0.10214 0.0
H1323 H 0.03071 0.57874 0.12522 0.0
C1324 C 0.02394 0.63635 0.07778 0.0
C1325 C 0.01103 0.63272 0.06298 0.0
C1326 C 0.02189 0.62396 0.09245 0.0
C1327 C 0.00695 0.60751 0.0926 0.0
C1328 C 0.99366 0.60414 0.07847 0.0
C1329 C 0.99566 0.61666 0.06386 0.0
C1330 C 0.98942 0.56911 0.12995 0.0
C1331 C 0.00398 0.56786 0.13343 0.0
C1332 C 0.9903 0.58195 0.11677 0.0
C1333 C 0.00575 0.59377 0.10671 0.0
C1334 C 0.02021 0.5923 0.11002 0.0
C1335 C 0.01935 0.57957 0.12324 0.0
H1336 H 0.41435 0.37668 0.04529 0.0
H1337 H 0.37045 0.37782 0.06962 0.0
H1338 H 0.4318 0.39588 0.07365 0.0
H1339 H 0.38787 0.39662 0.09881 0.0
H1340 H 0.42971 0.44513 0.13415 0.0
H1341 H 0.41053 0.42513 0.10718 0.0
H1342 H 0.43663 0.39645 0.11012 0.0
H1343 H 0.45657 0.41713 0.13566 0.0
C1344 C 0.40835 0.38087 0.05689 0.0
C1345 C 0.39098 0.37565 0.05525 0.0
C1346 C 0.41836 0.39182 0.0733 0.0
C1347 C 0.41123 0.39765 0.08876 0.0
C1348 C 0.39383 0.3925 0.08709 0.0
C1349 C 0.38382 0.38168 0.07042 0.0
C1350 C 0.43145 0.43464 0.12891 0.0
C1351 C 0.44486 0.43292 0.13699 0.0
C1352 C 0.42027 0.423 0.11364 0.0
C1353 C 0.42212 0.40925 0.10625 0.0
C1354 C 0.43504 0.4071 0.11505 0.0
C1355 C 0.44634 0.41884 0.13005 0.0
H1356 H 0.64075 0.68404 0.41584 0.0
H1357 H 0.68706 0.72518 0.38791 0.0
H1358 H 0.64298 0.70343 0.44455 0.0
H1359 H 0.68878 0.74494 0.41569 0.0
H1360 H 0.69279 0.77705 0.47203 0.0
H1361 H 0.69332 0.75486 0.45037 0.0
H1362 H 0.63797 0.72581 0.44935 0.0
H1363 H 0.63748 0.74706 0.47266 0.0
C1364 C 0.65146 0.69724 0.41594 0.0
C1365 C 0.66367 0.70315 0.3996 0.0
C1366 C 0.65268 0.70843 0.43228 0.0
C1367 C 0.66588 0.72593 0.43234 0.0
C1368 C 0.67853 0.73156 0.41645 0.0
C1369 C 0.67753 0.72024 0.40039 0.0
C1370 C 0.68072 0.76572 0.46767 0.0
C1371 C 0.66508 0.76401 0.47402 0.0
C1372 C 0.68103 0.75307 0.4549 0.0
C1373 C 0.6657 0.73852 0.44782 0.0
C1374 C 0.65009 0.73664 0.45463 0.0
C1375 C 0.64979 0.74909 0.46771 0.0
H1376 H 0.26448 0.96494 0.38864 0.0
H1377 H 0.30992 0.96284 0.40124 0.0
H1378 H 0.24908 0.94346 0.41557 0.0
H1379 H 0.29472 0.94187 0.42923 0.0
H1380 H 0.25682 0.89078 0.46147 0.0
H1381 H 0.27362 0.91309 0.43576 0.0
H1382 H 0.24554 0.93852 0.45156 0.0
H1383 H 0.22771 0.91542 0.47561 0.0
C1384 C 0.27128 0.96009 0.39745 0.0
C1385 C 0.28845 0.96563 0.39281 0.0
C1386 C 0.26246 0.9478 0.41307 0.0
C1387 C 0.27062 0.94093 0.42484 0.0
C1388 C 0.28789 0.94664 0.42034 0.0
C1389 C 0.29667 0.95875 0.40438 0.0
C1390 C 0.25404 0.90099 0.45927 0.0
C1391 C 0.24069 0.90107 0.47058 0.0
C1392 C 0.26393 0.91401 0.44473 0.0
C1393 C 0.26092 0.92763 0.44134 0.0
C1394 C 0.24803 0.92807 0.45329 0.0
C1395 C 0.23796 0.9149 0.46749 0.0
H1396 H 0.03128 0.29591 0.39584 0.0
H1397 H 0.04928 0.35063 0.39555 0.0
H1398 H 0.05198 0.30066 0.42268 0.0
H1399 H 0.06987 0.35535 0.42342 0.0
H1400 H 0.118 0.35761 0.45317 0.0
H1401 H 0.09591 0.35543 0.42926 0.0
H1402 H 0.05893 0.30719 0.45847 0.0
H1403 H 0.0812 0.30908 0.48147 0.0
C1404 C 0.03948 0.30898 0.40173 0.0
C1405 C 0.03853 0.32289 0.39342 0.0
C1406 C 0.05135 0.3117 0.41737 0.0
C1407 C 0.06258 0.32838 0.42548 0.0
C1408 C 0.06153 0.34233 0.41744 0.0
C1409 C 0.04965 0.33962 0.40155 0.0
C1410 C 0.10507 0.34667 0.45455 0.0
C1411 C 0.10131 0.33339 0.4689 0.0
C1412 C 0.09238 0.34544 0.44093 0.0
C1413 C 0.07563 0.33098 0.44163 0.0
C1414 C 0.07176 0.31825 0.45698 0.0
C1415 C 0.08447 0.31936 0.47028 0.0
H1416 H 0.02571 0.29822 0.28018 0.0
H1417 H 0.0558 0.3514 0.30164 0.0
H1418 H 0.04766 0.30353 0.25387 0.0
H1419 H 0.07775 0.35658 0.2754 0.0
H1420 H 0.12109 0.34767 0.24983 0.0
H1421 H 0.09808 0.34481 0.2725 0.0
H1422 H 0.06245 0.32176 0.22064 0.0
H1423 H 0.08562 0.32526 0.19747 0.0
C1424 C 0.0369 0.31108 0.27915 0.0
C1425 C 0.03904 0.32435 0.29313 0.0
C1426 C 0.04942 0.31413 0.26401 0.0
C1427 C 0.06443 0.33043 0.26271 0.0
C1428 C 0.06635 0.34384 0.2762 0.0
C1429 C 0.05373 0.34088 0.29114 0.0
C1430 C 0.10848 0.34236 0.24301 0.0
C1431 C 0.10531 0.33675 0.2217 0.0
C1432 C 0.09527 0.34066 0.25608 0.0
C1433 C 0.07851 0.3331 0.24831 0.0
C1434 C 0.07525 0.32753 0.22706 0.0
C1435 C 0.08853 0.32945 0.21385 0.0
H1436 H 0.64049 0.71076 0.30739 0.0
H1437 H 0.68841 0.7152 0.28929 0.0
H1438 H 0.64489 0.73225 0.2815 0.0
H1439 H 0.69251 0.73631 0.26232 0.0
H1440 H 0.70168 0.78586 0.22974 0.0
H1441 H 0.69867 0.7647 0.25569 0.0
H1442 H 0.64399 0.73603 0.24548 0.0
H1443 H 0.64679 0.75784 0.22118 0.0
C1444 C 0.65191 0.71619 0.29764 0.0
C1445 C 0.66404 0.71115 0.30031 0.0
C1446 C 0.65439 0.72848 0.28261 0.0
C1447 C 0.66894 0.73591 0.26944 0.0
C1448 C 0.68122 0.73101 0.27225 0.0
C1449 C 0.67885 0.71885 0.28764 0.0
C1450 C 0.68897 0.77518 0.23324 0.0
C1451 C 0.67448 0.77376 0.22334 0.0
C1452 C 0.68728 0.76285 0.24793 0.0
C1453 C 0.67106 0.74865 0.25295 0.0
C1454 C 0.65667 0.74695 0.2425 0.0
C1455 C 0.65833 0.75938 0.22813 0.0
H1456 H 0.29588 0.94819 0.30286 0.0
H1457 H 0.28438 0.98523 0.27684 0.0
H1458 H 0.27821 0.92719 0.27545 0.0
H1459 H 0.26703 0.96431 0.24925 0.0
H1460 H 0.24737 0.92429 0.19363 0.0
H1461 H 0.26985 0.94572 0.21725 0.0
H1462 H 0.24431 0.91291 0.27081 0.0
H1463 H 0.22173 0.8918 0.24734 0.0
C1464 C 0.28991 0.95198 0.29103 0.0
C1465 C 0.29137 0.96829 0.29208 0.0
C1466 C 0.27978 0.93996 0.27544 0.0
C1467 C 0.2713 0.94419 0.26037 0.0
C1468 C 0.27355 0.96082 0.26065 0.0
C1469 C 0.28339 0.97272 0.27648 0.0
C1470 C 0.24675 0.92168 0.21043 0.0
C1471 C 0.23292 0.90655 0.21881 0.0
C1472 C 0.25951 0.93387 0.22387 0.0
C1473 C 0.25877 0.93084 0.24575 0.0
C1474 C 0.24523 0.91541 0.25396 0.0
C1475 C 0.23231 0.90343 0.24062 0.0
H1476 H 0.64953 0.94656 0.30284 0.0
H1477 H 0.70205 0.98065 0.28367 0.0
H1478 H 0.64615 0.92623 0.27455 0.0
H1479 H 0.69856 0.96036 0.25537 0.0
H1480 H 0.6819 0.92492 0.19672 0.0
H1481 H 0.68168 0.94631 0.22113 0.0
H1482 H 0.65996 0.90767 0.27005 0.0
H1483 H 0.66036 0.88648 0.24568 0.0
C1484 C 0.66025 0.94985 0.29239 0.0
C1485 C 0.67611 0.96513 0.2956 0.0
C1486 C 0.65832 0.93818 0.27629 0.0
C1487 C 0.67211 0.94173 0.26287 0.0
C1488 C 0.68769 0.95738 0.26541 0.0
C1489 C 0.68971 0.96892 0.2817 0.0
C1490 C 0.6769 0.92107 0.21263 0.0
C1491 C 0.67111 0.90421 0.2195 0.0
C1492 C 0.67681 0.93324 0.22655 0.0
C1493 C 0.67076 0.92859 0.24741 0.0
C1494 C 0.66447 0.91151 0.25397 0.0
C1495 C 0.66476 0.89944 0.24014 0.0
H1496 H 0.06262 0.69537 0.27923 0.0
H1497 H 0.04012 0.72362 0.30586 0.0
H1498 H 0.07708 0.71759 0.25246 0.0
H1499 H 0.05466 0.74587 0.27896 0.0
H1500 H 0.10431 0.79125 0.24805 0.0
H1501 H 0.08572 0.76813 0.27209 0.0
H1502 H 0.07126 0.73082 0.22106 0.0
H1503 H 0.08949 0.754 0.19671 0.0
C1504 C 0.06063 0.70624 0.27927 0.0
C1505 C 0.05029 0.70776 0.29479 0.0
C1506 C 0.06884 0.71891 0.26382 0.0
C1507 C 0.06705 0.73349 0.26367 0.0
C1508 C 0.05637 0.73483 0.27883 0.0
C1509 C 0.04798 0.72204 0.29414 0.0
C1510 C 0.0969 0.7782 0.24176 0.0
C1511 C 0.0985 0.77454 0.22039 0.0
C1512 C 0.08626 0.76494 0.2556 0.0
C1513 C 0.07708 0.74767 0.24847 0.0
C1514 C 0.07835 0.744 0.22705 0.0
C1515 C 0.08886 0.75728 0.21314 0.0
H1516 H 0.31119 0.37731 0.29307 0.0
H1517 H 0.29278 0.32255 0.29546 0.0
H1518 H 0.29018 0.37207 0.26648 0.0
H1519 H 0.27186 0.3173 0.26779 0.0
H1520 H 0.22339 0.31481 0.23865 0.0
H1521 H 0.24585 0.3173 0.26215 0.0
H1522 H 0.28254 0.36471 0.23107 0.0
H1523 H 0.2599 0.36255 0.20855 0.0
C1524 C 0.30283 0.36411 0.28769 0.0
C1525 C 0.30374 0.35035 0.29654 0.0
C1526 C 0.29078 0.36111 0.27218 0.0
C1527 C 0.27932 0.34426 0.26473 0.0
C1528 C 0.28037 0.33044 0.27326 0.0
C1529 C 0.29244 0.33346 0.28903 0.0
C1530 C 0.23633 0.32563 0.2368 0.0
C1531 C 0.23993 0.33863 0.22207 0.0
C1532 C 0.24923 0.32704 0.25016 0.0
C1533 C 0.26602 0.34137 0.24881 0.0
C1534 C 0.2697 0.35376 0.23306 0.0
C1535 C 0.25678 0.3525 0.22004 0.0
H1536 H 0.28678 0.32281 0.3883 0.0
H1537 H 0.31626 0.37611 0.40951 0.0
H1538 H 0.26466 0.31744 0.41436 0.0
H1539 H 0.29413 0.37059 0.43566 0.0
H1540 H 0.25607 0.34823 0.49209 0.0
H1541 H 0.27942 0.3521 0.46899 0.0
H1542 H 0.24403 0.32903 0.4169 0.0
H1543 H 0.22083 0.32582 0.4395 0.0
C1544 C 0.28869 0.33332 0.39871 0.0
C1545 C 0.30325 0.34993 0.39671 0.0
C1546 C 0.27597 0.33024 0.41354 0.0
C1547 C 0.27766 0.34363 0.4269 0.0
C1548 C 0.29255 0.36003 0.4256 0.0
C1549 C 0.30516 0.36319 0.41056 0.0
C1550 C 0.25325 0.34412 0.47567 0.0
C1551 C 0.23649 0.33671 0.46773 0.0
C1552 C 0.26663 0.34626 0.46251 0.0
C1553 C 0.26349 0.34078 0.44122 0.0
C1554 C 0.24675 0.33311 0.43335 0.0
C1555 C 0.23344 0.33121 0.44638 0.0
H1556 H 0.64686 0.9448 0.38703 0.0
H1557 H 0.69783 0.97684 0.41241 0.0
H1558 H 0.64108 0.92274 0.4134 0.0
H1559 H 0.69204 0.95486 0.43858 0.0
H1560 H 0.6717 0.91754 0.49363 0.0
H1561 H 0.67402 0.93999 0.47021 0.0
H1562 H 0.65224 0.90265 0.41904 0.0
H1563 H 0.65028 0.88027 0.4422 0.0
C1564 C 0.65674 0.94725 0.39839 0.0
C1565 C 0.67285 0.96254 0.39752 0.0
C1566 C 0.65346 0.93457 0.41339 0.0
C1567 C 0.66613 0.93704 0.428 0.0
C1568 C 0.68196 0.95263 0.42766 0.0
C1569 C 0.68531 0.96518 0.41255 0.0
C1570 C 0.66746 0.9141 0.47737 0.0
C1571 C 0.66094 0.89707 0.46981 0.0
C1572 C 0.66872 0.92696 0.46399 0.0
C1573 C 0.66334 0.92309 0.44277 0.0
C1574 C 0.65628 0.90598 0.43538 0.0
C1575 C 0.65515 0.89314 0.4487 0.0
H1576 H 0.0499 0.7252 0.38754 0.0
H1577 H 0.0565 0.68449 0.41201 0.0
H1578 H 0.0677 0.74445 0.41599 0.0
H1579 H 0.07333 0.70322 0.44131 0.0
H1580 H 0.12185 0.7469 0.47076 0.0
H1581 H 0.10064 0.72626 0.44639 0.0
H1582 H 0.07246 0.75286 0.45152 0.0
H1583 H 0.09465 0.77454 0.47447 0.0
C1584 C 0.05481 0.72026 0.39937 0.0
C1585 C 0.05205 0.70347 0.39746 0.0
C1586 C 0.06496 0.73125 0.41579 0.0
C1587 C 0.07224 0.72554 0.4309 0.0
C1588 C 0.06845 0.70831 0.42965 0.0
C1589 C 0.05868 0.69749 0.41296 0.0
C1590 C 0.11125 0.74852 0.46653 0.0
C1591 C 0.11019 0.76262 0.47437 0.0
C1592 C 0.09882 0.73641 0.45281 0.0
C1593 C 0.08472 0.7378 0.44685 0.0
C1594 C 0.08326 0.75149 0.45541 0.0
C1595 C 0.09589 0.76381 0.46888 0.0
H1596 H 0.3511 0.04563 0.7354 0.0
H1597 H 0.30254 0.03963 0.71785 0.0
H1598 H 0.35344 0.06478 0.76466 0.0
H1599 H 0.3052 0.05919 0.74623 0.0
H1600 H 0.30566 0.08349 0.8076 0.0
H1601 H 0.30393 0.06182 0.78296 0.0
H1602 H 0.35845 0.09286 0.77199 0.0
H1603 H 0.36044 0.11389 0.79813 0.0
C1604 C 0.34098 0.04845 0.73773 0.0
C1605 C 0.3266 0.04104 0.72437 0.0
C1606 C 0.34235 0.05949 0.75444 0.0
C1607 C 0.32946 0.06349 0.75795 0.0
C1608 C 0.31517 0.05609 0.74444 0.0
C1609 C 0.3137 0.04493 0.728 0.0
C1610 C 0.3174 0.08554 0.80044 0.0
C1611 C 0.33319 0.10059 0.80485 0.0
C1612 C 0.31635 0.0732 0.78595 0.0
C1613 C 0.331 0.0757 0.77513 0.0
C1614 C 0.3469 0.09043 0.78006 0.0
C1615 C 0.34799 0.10266 0.79484 0.0
H1616 H 0.97608 0.29674 0.73139 0.0
H1617 H 0.92833 0.2935 0.71613 0.0
H1618 H 0.96122 0.27416 0.75813 0.0
H1619 H 0.91359 0.27077 0.74233 0.0
H1620 H 0.89287 0.21576 0.77024 0.0
H1621 H 0.90968 0.23837 0.7444 0.0
H1622 H 0.94204 0.27191 0.79465 0.0
H1623 H 0.92494 0.24936 0.8207 0.0
C1624 C 0.96246 0.29121 0.73372 0.0
C1625 C 0.95337 0.2969 0.7217 0.0
C1626 C 0.95401 0.27838 0.74901 0.0
C1627 C 0.93631 0.27077 0.75212 0.0
C1628 C 0.92724 0.27642 0.7401 0.0
C1629 C 0.93571 0.28947 0.72521 0.0
C1630 C 0.90369 0.22789 0.77572 0.0
C1631 C 0.90765 0.23087 0.7974 0.0
C1632 C 0.91322 0.2408 0.76099 0.0
C1633 C 0.92709 0.2568 0.76763 0.0
C1634 C 0.93143 0.25962 0.78922 0.0
C1635 C 0.92165 0.24681 0.80405 0.0
H1636 H 0.69212 0.64169 0.75174 0.0
H1637 H 0.72642 0.68768 0.71665 0.0
H1638 H 0.71468 0.64864 0.77742 0.0
H1639 H 0.74912 0.69455 0.74238 0.0
H1640 H 0.78736 0.67914 0.77159 0.0
H1641 H 0.7652 0.67871 0.74953 0.0
H1642 H 0.73419 0.67073 0.8052 0.0
H1643 H 0.75647 0.67123 0.82732 0.0
C1644 C 0.7044 0.65345 0.74972 0.0
C1645 C 0.70752 0.66407 0.73208 0.0
C1646 C 0.71729 0.65748 0.7645 0.0
C1647 C 0.73368 0.67208 0.76183 0.0
C1648 C 0.73662 0.68315 0.74474 0.0
C1649 C 0.7236 0.67927 0.7301 0.0
C1650 C 0.77589 0.67751 0.77912 0.0
C1651 C 0.77356 0.6751 0.80112 0.0
C1652 C 0.76328 0.67742 0.76653 0.0
C1653 C 0.74796 0.67467 0.77565 0.0
C1654 C 0.74586 0.67282 0.79776 0.0
C1655 C 0.75861 0.67318 0.8104 0.0
H1656 H 0.71071 0.67971 0.6213 0.0
H1657 H 0.70703 0.63165 0.63859 0.0
H1658 H 0.73101 0.68361 0.59331 0.0
H1659 H 0.72774 0.63587 0.61143 0.0
H1660 H 0.75513 0.63946 0.55129 0.0
H1661 H 0.73239 0.63559 0.575 0.0
H1662 H 0.75956 0.6906 0.58802 0.0
H1663 H 0.78169 0.69467 0.56291 0.0
C1664 C 0.71425 0.67 0.61917 0.0
C1665 C 0.70719 0.65535 0.63218 0.0
C1666 C 0.72598 0.67228 0.60319 0.0
C1667 C 0.73107 0.66006 0.60001 0.0
C1668 C 0.7239 0.64539 0.61301 0.0
C1669 C 0.71205 0.64301 0.62875 0.0
C1670 C 0.75611 0.65083 0.55875 0.0
C1671 C 0.77038 0.6674 0.55514 0.0
C1672 C 0.74315 0.64856 0.57271 0.0
C1673 C 0.74417 0.66274 0.58373 0.0
C1674 C 0.75821 0.67937 0.57974 0.0
C1675 C 0.77109 0.68167 0.56554 0.0
H1676 H 0.35773 0.06072 0.63634 0.0
H1677 H 0.30965 0.02491 0.6062 0.0
H1678 H 0.36244 0.08276 0.61045 0.0
H1679 H 0.31453 0.04663 0.58017 0.0
H1680 H 0.31573 0.09521 0.55883 0.0
H1681 H 0.31355 0.07274 0.58177 0.0
H1682 H 0.36753 0.09211 0.57343 0.0
H1683 H 0.36973 0.11482 0.55036 0.0
C1684 C 0.34836 0.05742 0.62393 0.0
C1685 C 0.3332 0.04115 0.62353 0.0
C1686 C 0.35107 0.07005 0.60907 0.0
C1687 C 0.3387 0.06658 0.59347 0.0
C1688 C 0.3241 0.04992 0.59232 0.0
C1689 C 0.32135 0.03741 0.60719 0.0
C1690 C 0.32711 0.09458 0.56163 0.0
C1691 C 0.34287 0.10674 0.55259 0.0
C1692 C 0.32586 0.08165 0.57479 0.0
C1693 C 0.34033 0.08046 0.57928 0.0
C1694 C 0.35616 0.09271 0.57041 0.0
C1695 C 0.35742 0.10572 0.5572 0.0
H1696 H 0.95931 0.28252 0.63211 0.0
H1697 H 0.9531 0.32286 0.60552 0.0
H1698 H 0.94169 0.26278 0.60397 0.0
H1699 H 0.93639 0.30357 0.57652 0.0
H1700 H 0.88736 0.25905 0.54867 0.0
H1701 H 0.90892 0.28046 0.5721 0.0
H1702 H 0.93685 0.25353 0.56876 0.0
H1703 H 0.91435 0.23117 0.54681 0.0
C1704 C 0.95457 0.28729 0.61985 0.0
C1705 C 0.95735 0.30411 0.62111 0.0
C1706 C 0.94451 0.276 0.60361 0.0
C1707 C 0.93732 0.28143 0.58803 0.0
C1708 C 0.94121 0.29872 0.58856 0.0
C1709 C 0.95092 0.30985 0.60507 0.0
C1710 C 0.89798 0.25754 0.55309 0.0
C1711 C 0.89888 0.24316 0.54608 0.0
C1712 C 0.91061 0.27008 0.56626 0.0
C1713 C 0.92473 0.26881 0.57245 0.0
C1714 C 0.92604 0.25483 0.56467 0.0
C1715 C 0.91322 0.24209 0.55177 0.0
H1716 H 0.32195 0.29029 0.62528 0.0
H1717 H 0.37635 0.31041 0.63052 0.0
H1718 H 0.31999 0.26965 0.59814 0.0
H1719 H 0.37426 0.28993 0.6036 0.0
H1720 H 0.35887 0.23565 0.57994 0.0
H1721 H 0.35993 0.25726 0.60437 0.0
H1722 H 0.33106 0.26859 0.5603 0.0
H1723 H 0.33036 0.24716 0.53533 0.0
C1724 C 0.33349 0.29045 0.62056 0.0
C1725 C 0.34927 0.30191 0.63027 0.0
C1726 C 0.33235 0.27869 0.60497 0.0
C1727 C 0.34694 0.2781 0.599 0.0
C1728 C 0.36277 0.28994 0.60816 0.0
C1729 C 0.36395 0.30173 0.62354 0.0
C1730 C 0.35295 0.24289 0.57524 0.0
C1731 C 0.34474 0.23983 0.55552 0.0
C1732 C 0.35349 0.25521 0.5893 0.0
C1733 C 0.34572 0.26468 0.58411 0.0
C1734 C 0.3371 0.26139 0.56468 0.0
C1735 C 0.33668 0.24912 0.55045 0.0
H1736 H 0.72611 0.02345 0.61162 0.0
H1737 H 0.7075 0.05552 0.6371 0.0
H1738 H 0.74199 0.04488 0.58457 0.0
H1739 H 0.72391 0.07731 0.61047 0.0
H1740 H 0.74668 0.10858 0.55027 0.0
H1741 H 0.72763 0.08518 0.57398 0.0
H1742 H 0.76701 0.07259 0.583 0.0
H1743 H 0.78574 0.09562 0.55902 0.0
C1744 C 0.72538 0.03507 0.61142 0.0
C1745 C 0.71564 0.03782 0.62665 0.0
C1746 C 0.73459 0.04744 0.59598 0.0
C1747 C 0.73448 0.06299 0.59549 0.0
C1748 C 0.72421 0.06545 0.61022 0.0
C1749 C 0.71483 0.05296 0.62556 0.0
C1750 C 0.7512 0.10077 0.55736 0.0
C1751 C 0.76767 0.10388 0.55273 0.0
C1752 C 0.74032 0.08738 0.57097 0.0
C1753 C 0.74571 0.0769 0.58038 0.0
C1754 C 0.76222 0.08009 0.5757 0.0
C1755 C 0.77302 0.09335 0.56199 0.0
H1756 H 0.97708 0.70908 0.62582 0.0
H1757 H 0.95799 0.6542 0.62882 0.0
H1758 H 0.95597 0.70392 0.59941 0.0
H1759 H 0.93697 0.64903 0.60133 0.0
H1760 H 0.8888 0.64699 0.57196 0.0
H1761 H 0.91116 0.64935 0.59555 0.0
H1762 H 0.94817 0.69641 0.5641 0.0
H1763 H 0.92563 0.69439 0.54151 0.0
C1764 C 0.96854 0.69587 0.62061 0.0
C1765 C 0.96931 0.68206 0.62956 0.0
C1766 C 0.95643 0.69291 0.6052 0.0
C1767 C 0.94477 0.67605 0.59795 0.0
C1768 C 0.94564 0.66218 0.60663 0.0
C1769 C 0.95776 0.66515 0.62231 0.0
C1770 C 0.90179 0.6577 0.57006 0.0
C1771 C 0.90551 0.67065 0.55519 0.0
C1772 C 0.91463 0.65904 0.58347 0.0
C1773 C 0.93149 0.67324 0.58204 0.0
C1774 C 0.93529 0.68557 0.56617 0.0
C1775 C 0.92242 0.68439 0.5531 0.0
H1776 H 0.96042 0.65633 0.73287 0.0
H1777 H 0.97628 0.71052 0.73116 0.0
H1778 H 0.93951 0.65173 0.76034 0.0
H1779 H 0.95515 0.70582 0.75793 0.0
H1780 H 0.92427 0.69633 0.81705 0.0
H1781 H 0.94742 0.69967 0.79408 0.0
H1782 H 0.91276 0.65062 0.76376 0.0
H1783 H 0.88978 0.64715 0.78718 0.0
C1784 C 0.9595 0.66727 0.73836 0.0
C1785 C 0.97004 0.68379 0.72971 0.0
C1786 C 0.94744 0.66461 0.75404 0.0
C1787 C 0.94557 0.67839 0.76136 0.0
C1788 C 0.95638 0.69495 0.753 0.0
C1789 C 0.96847 0.69763 0.73747 0.0
C1790 C 0.92166 0.68624 0.80554 0.0
C1791 C 0.90521 0.67154 0.80379 0.0
C1792 C 0.9349 0.68815 0.79232 0.0
C1793 C 0.93196 0.6755 0.77688 0.0
C1794 C 0.91559 0.66053 0.77562 0.0
C1795 C 0.90238 0.65855 0.78899 0.0
H1796 H 0.36707 0.31664 0.74748 0.0
H1797 H 0.31837 0.28117 0.71843 0.0
H1798 H 0.3625 0.29477 0.77312 0.0
H1799 H 0.314 0.25898 0.74381 0.0
H1800 H 0.3068 0.22649 0.80303 0.0
H1801 H 0.30914 0.24935 0.78018 0.0
H1802 H 0.36316 0.26871 0.77216 0.0
H1803 H 0.36084 0.24614 0.79508 0.0
C1804 C 0.35532 0.30418 0.74662 0.0
C1805 C 0.34316 0.30061 0.73074 0.0
C1806 C 0.35275 0.29157 0.76126 0.0
C1807 C 0.33804 0.27496 0.76032 0.0
C1808 C 0.32546 0.27164 0.74508 0.0
C1809 C 0.32797 0.28436 0.73049 0.0
C1810 C 0.31915 0.23562 0.79631 0.0
C1811 C 0.33366 0.23457 0.801 0.0
C1812 C 0.32049 0.24872 0.78321 0.0
C1813 C 0.33637 0.26101 0.77445 0.0
C1814 C 0.35081 0.25978 0.77902 0.0
C1815 C 0.34948 0.24678 0.79215 0.0
H1816 H 0.72533 0.02032 0.74273 0.0
H1817 H 0.71473 0.05841 0.71814 0.0
H1818 H 0.7435 0.04091 0.7702 0.0
H1819 H 0.73328 0.0791 0.74536 0.0
H1820 H 0.78985 0.11313 0.77415 0.0
H1821 H 0.76775 0.09227 0.74993 0.0
H1822 H 0.74019 0.05969 0.80289 0.0
H1823 H 0.76214 0.0809 0.82726 0.0
C1824 C 0.72676 0.03302 0.74333 0.0
C1825 C 0.71869 0.03781 0.72826 0.0
C1826 C 0.73706 0.04472 0.75909 0.0
C1827 C 0.73974 0.06151 0.75975 0.0
C1828 C 0.73136 0.06619 0.74507 0.0
C1829 C 0.72074 0.05435 0.7296 0.0
C1830 C 0.77899 0.10156 0.78056 0.0
C1831 C 0.7776 0.09849 0.80243 0.0
C1832 C 0.76635 0.08973 0.76679 0.0
C1833 C 0.75233 0.07449 0.77465 0.0
C1834 C 0.75092 0.07141 0.79655 0.0
C1835 C 0.76339 0.08346 0.8104 0.0
H1836 H 0.03 0.33117 0.06435 0.0
H1837 H 0.06663 0.36889 0.02085 0.0
H1838 H 0.05315 0.33174 0.08403 0.0
H1839 H 0.08997 0.36935 0.04067 0.0
H1840 H 0.12199 0.3462 0.0687 0.0
H1841 H 0.10011 0.34798 0.04843 0.0
H1842 H 0.07791 0.35303 0.10681 0.0
H1843 H 0.09965 0.35115 0.12703 0.0
C1844 C 0.04302 0.33962 0.05899 0.0
C1845 C 0.04649 0.35 0.04103 0.0
C1846 C 0.05629 0.34 0.07036 0.0
C1847 C 0.07337 0.35063 0.06394 0.0
C1848 C 0.07691 0.36098 0.04592 0.0
C1849 C 0.06358 0.36078 0.03466 0.0
C1850 C 0.11243 0.3477 0.07716 0.0
C1851 C 0.1125 0.34849 0.09945 0.0
C1852 C 0.10002 0.34888 0.06556 0.0
C1853 C 0.0873 0.35062 0.07604 0.0
C1854 C 0.08749 0.35158 0.09831 0.0
C1855 C 0.1 0.35062 0.10987 0.0
H1856 H 0.64837 0.70064 0.0252 0.0
H1857 H 0.69067 0.70241 0.05816 0.0
H1858 H 0.65113 0.72422 0.04741 0.0
H1859 H 0.69342 0.72617 0.08052 0.0
H1860 H 0.70335 0.78203 0.09565 0.0
H1861 H 0.70142 0.75751 0.07597 0.0
H1862 H 0.64671 0.72867 0.08564 0.0
H1863 H 0.64862 0.75293 0.10556 0.0
C1864 C 0.65824 0.70604 0.03723 0.0
C1865 C 0.66928 0.69966 0.03998 0.0
C1866 C 0.65975 0.71949 0.05002 0.0
C1867 C 0.67242 0.72694 0.06576 0.0
C1868 C 0.68359 0.72069 0.06843 0.0
C1869 C 0.68197 0.70707 0.05572 0.0
C1870 C 0.69095 0.77035 0.09385 0.0
C1871 C 0.67611 0.76951 0.10194 0.0
C1872 C 0.68986 0.75634 0.08259 0.0
C1873 C 0.6739 0.74128 0.07913 0.0
C1874 C 0.65915 0.74025 0.08775 0.0
C1875 C 0.66024 0.75417 0.09908 0.0
H1876 H 0.3054 0.99153 0.06011 0.0
H1877 H 0.30515 0.95048 0.02362 0.0
H1878 H 0.28085 0.97008 0.08053 0.0
H1879 H 0.28057 0.92909 0.0439 0.0
H1880 H 0.22487 0.92676 0.09388 0.0
H1881 H 0.25001 0.94865 0.07483 0.0
H1882 H 0.27337 0.91757 0.08026 0.0
H1883 H 0.24841 0.8958 0.09956 0.0
C1884 C 0.30012 0.97793 0.05647 0.0
C1885 C 0.3072 0.97269 0.04026 0.0
C1886 C 0.286 0.96566 0.06809 0.0
C1887 C 0.27876 0.94789 0.06382 0.0
C1888 C 0.28597 0.94267 0.04773 0.0
C1889 C 0.3 0.95493 0.03603 0.0
C1890 C 0.23544 0.92467 0.09124 0.0
C1891 C 0.23455 0.90945 0.09819 0.0
C1892 C 0.24984 0.93722 0.0803 0.0
C1893 C 0.26365 0.93481 0.07597 0.0
C1894 C 0.26283 0.91968 0.08305 0.0
C1895 C 0.24848 0.90718 0.09407 0.0
H1896 H 0.37464 0.0595 0.98545 0.0
H1897 H 0.31969 0.02831 0.97938 0.0
H1898 H 0.37434 0.08327 0.96701 0.0
H1899 H 0.3194 0.05213 0.9617 0.0
H1900 H 0.32756 0.10766 0.95471 0.0
H1901 H 0.32983 0.08584 0.97442 0.0
H1902 H 0.36256 0.08429 0.92582 0.0
H1903 H 0.35949 0.10526 0.90518 0.0
C1904 C 0.36253 0.05781 0.98038 0.0
C1905 C 0.3472 0.04208 0.98378 0.0
C1906 C 0.36237 0.07133 0.96981 0.0
C1907 C 0.34683 0.06946 0.96305 0.0
C1908 C 0.33152 0.05388 0.96687 0.0
C1909 C 0.33171 0.04026 0.9769 0.0
C1910 C 0.33507 0.10258 0.94795 0.0
C1911 C 0.34317 0.10823 0.92809 0.0
C1912 C 0.33651 0.09021 0.95942 0.0
C1913 C 0.34641 0.08349 0.95163 0.0
C1914 C 0.355 0.08946 0.93224 0.0
C1915 C 0.35328 0.10156 0.9205 0.0
H1916 H 0.95695 0.30706 0.99645 0.0
H1917 H 0.99726 0.30546 0.96184 0.0
H1918 H 0.93561 0.28301 0.97516 0.0
H1919 H 0.97573 0.28123 0.94039 0.0
H1920 H 0.92978 0.22509 0.92657 0.0
H1921 H 0.95251 0.24996 0.94573 0.0
H1922 H 0.92573 0.27751 0.93759 0.0
H1923 H 0.90321 0.25289 0.91813 0.0
C1924 C 0.96127 0.3016 0.98424 0.0
C1925 C 0.97879 0.30817 0.98078 0.0
C1926 C 0.94902 0.28787 0.97197 0.0
C1927 C 0.95401 0.2803 0.95606 0.0
C1928 C 0.97154 0.28677 0.95265 0.0
C1929 C 0.98384 0.30066 0.96484 0.0
C1930 C 0.92886 0.23655 0.92859 0.0
C1931 C 0.91458 0.23693 0.92096 0.0
C1932 C 0.94188 0.25077 0.93958 0.0
C1933 C 0.94083 0.26561 0.94326 0.0
C1934 C 0.92674 0.26613 0.93529 0.0
C1935 C 0.91381 0.25199 0.92421 0.0
H1936 H 0.70065 0.68021 0.95848 0.0
H1937 H 0.69208 0.63597 0.99451 0.0
H1938 H 0.72326 0.67953 0.93866 0.0
H1939 H 0.71516 0.63553 0.97485 0.0
H1940 H 0.7467 0.63078 0.92007 0.0
H1941 H 0.72297 0.63002 0.93945 0.0
H1942 H 0.75194 0.68578 0.94489 0.0
H1943 H 0.77523 0.68658 0.92485 0.0
C1944 C 0.70364 0.67035 0.96223 0.0
C1945 C 0.69464 0.65819 0.97815 0.0
C1946 C 0.71669 0.67002 0.95093 0.0
C1947 C 0.72114 0.65758 0.9553 0.0
C1948 C 0.71195 0.64521 0.971 0.0
C1949 C 0.69881 0.64551 0.98233 0.0
C1950 C 0.7479 0.64287 0.92524 0.0
C1951 C 0.76286 0.65874 0.9209 0.0
C1952 C 0.73439 0.64242 0.93656 0.0
C1953 C 0.73554 0.65784 0.94369 0.0
C1954 C 0.75053 0.67367 0.9394 0.0
C1955 C 0.76399 0.67412 0.92812 0.0
H1956 H 0.97761 0.68061 0.96892 0.0
H1957 H 0.94193 0.6313 0.99678 0.0
H1958 H 0.95464 0.6796 0.94859 0.0
H1959 H 0.91874 0.63013 0.97589 0.0
H1960 H 0.88009 0.64556 0.95118 0.0
H1961 H 0.90191 0.64436 0.97219 0.0
H1962 H 0.93663 0.66378 0.91889 0.0
H1963 H 0.91495 0.6651 0.89806 0.0
C1964 C 0.96484 0.66948 0.97066 0.0
C1965 C 0.96161 0.65599 0.98442 0.0
C1966 C 0.95166 0.66886 0.95885 0.0
C1967 C 0.93487 0.65469 0.96039 0.0
C1968 C 0.93153 0.64126 0.97441 0.0
C1969 C 0.9448 0.6419 0.98632 0.0
C1970 C 0.89233 0.64938 0.94391 0.0
C1971 C 0.89587 0.6556 0.92304 0.0
C1972 C 0.90481 0.64867 0.95593 0.0
C1973 C 0.92108 0.65415 0.94731 0.0
C1974 C 0.92437 0.65983 0.9262 0.0
C1975 C 0.91195 0.66059 0.91424 0.0
H1976 H 0.31595 0.30548 0.9637 0.0
H1977 H 0.36072 0.30939 0.9925 0.0
H1978 H 0.3128 0.28163 0.9411 0.0
H1979 H 0.35754 0.28575 0.9702 0.0
H1980 H 0.3584 0.25606 0.91298 0.0
H1981 H 0.36029 0.28062 0.93215 0.0
H1982 H 0.30606 0.2508 0.94518 0.0
H1983 H 0.30416 0.22607 0.92602 0.0
C1984 C 0.3251 0.30127 0.96518 0.0
C1985 C 0.33861 0.30933 0.9798 0.0
C1986 C 0.32326 0.28761 0.95234 0.0
C1987 C 0.33501 0.28195 0.95379 0.0
C1988 C 0.34846 0.29002 0.96846 0.0
C1989 C 0.35022 0.30352 0.98133 0.0
C1990 C 0.34688 0.25472 0.91997 0.0
C1991 C 0.33118 0.23905 0.91828 0.0
C1992 C 0.34795 0.26879 0.93089 0.0
C1993 C 0.33336 0.26755 0.94036 0.0
C1994 C 0.3175 0.25214 0.93793 0.0
C1995 C 0.31642 0.238 0.92699 0.0
H1996 H 0.71213 0.05358 0.009 0.0
H1997 H 0.69365 0.02064 0.95349 0.0
H1998 H 0.73714 0.07469 0.98949 0.0
H1999 H 0.71796 0.04237 0.93313 0.0
H2000 H 0.77047 0.07762 0.90566 0.0
H2001 H 0.74656 0.05578 0.92585 0.0
H2002 H 0.74726 0.09588 0.96514 0.0
H2003 H 0.77239 0.11742 0.94675 0.0
C2004 C 0.71335 0.05102 0.99244 0.0
C2005 C 0.70102 0.03553 0.98272 0.0
C2006 C 0.72764 0.06321 0.98111 0.0
C2007 C 0.72969 0.06049 0.9595 0.0
C2008 C 0.71715 0.04491 0.94978 0.0
C2009 C 0.7031 0.03247 0.96136 0.0
C2010 C 0.76584 0.08181 0.91893 0.0
C2011 C 0.77361 0.09946 0.92447 0.0
C2012 C 0.75177 0.06921 0.93032 0.0
C2013 C 0.74476 0.07388 0.94728 0.0
C2014 C 0.75238 0.09156 0.95256 0.0
C2015 C 0.7667 0.10408 0.94159 0.0
H2016 H 0.68484 0.98588 0.06017 0.0
H2017 H 0.63936 0.94722 0.02752 0.0
H2018 H 0.68618 0.96334 0.07912 0.0
H2019 H 0.64053 0.92447 0.04694 0.0
H2020 H 0.66101 0.88922 0.06865 0.0
H2021 H 0.65789 0.91087 0.04959 0.0
H2022 H 0.67134 0.94234 0.10651 0.0
H2023 H 0.67449 0.92077 0.12549 0.0
C2024 C 0.67504 0.97254 0.05712 0.0
C2025 C 0.66197 0.96836 0.04232 0.0
C2026 C 0.67575 0.95959 0.06812 0.0
C2027 C 0.66342 0.94207 0.06468 0.0
C2028 C 0.65032 0.93783 0.04985 0.0
C2029 C 0.64959 0.95086 0.03881 0.0
C2030 C 0.66315 0.90069 0.07714 0.0
C2031 C 0.66814 0.90331 0.09857 0.0
C2032 C 0.66132 0.91309 0.06622 0.0
C2033 C 0.66445 0.9284 0.07647 0.0
C2034 C 0.66915 0.93086 0.098 0.0
C2035 C 0.67098 0.91849 0.10889 0.0
H2036 H 0.01099 0.7003 0.06304 0.0
H2037 H 0.05129 0.6996 0.02729 0.0
H2038 H 0.03239 0.72599 0.08246 0.0
H2039 H 0.07259 0.7248 0.04697 0.0
H2040 H 0.10535 0.78032 0.06837 0.0
H2041 H 0.08289 0.75519 0.04956 0.0
H2042 H 0.05521 0.73567 0.10838 0.0
H2043 H 0.07765 0.76105 0.12714 0.0
C2044 C 0.02441 0.70555 0.05947 0.0
C2045 C 0.02947 0.69801 0.04359 0.0
C2046 C 0.03667 0.7202 0.07063 0.0
C2047 C 0.0542 0.72754 0.06613 0.0
C2048 C 0.05919 0.71973 0.05052 0.0
C2049 C 0.04698 0.70518 0.03934 0.0
C2050 C 0.09447 0.77064 0.07726 0.0
C2051 C 0.09329 0.77257 0.09922 0.0
C2052 C 0.08162 0.75622 0.06652 0.0
C2053 C 0.06733 0.74332 0.0775 0.0
C2054 C 0.06596 0.74544 0.09942 0.0
C2055 C 0.07881 0.75995 0.11016 0.0
H2056 H 0.3128 0.33025 0.06774 0.0
H2057 H 0.31253 0.36777 0.02601 0.0
H2058 H 0.28941 0.32917 0.08823 0.0
H2059 H 0.28907 0.36661 0.04652 0.0
H2060 H 0.2337 0.34191 0.07293 0.0
H2061 H 0.25786 0.34398 0.05309 0.0
H2062 H 0.28405 0.34891 0.11188 0.0
H2063 H 0.25984 0.34673 0.13173 0.0
C2064 C 0.3078 0.33832 0.06301 0.0
C2065 C 0.31447 0.34908 0.04526 0.0
C2066 C 0.29446 0.33775 0.07479 0.0
C2067 C 0.28741 0.34777 0.06892 0.0
C2068 C 0.29417 0.35863 0.05127 0.0
C2069 C 0.30766 0.35937 0.03963 0.0
C2070 C 0.24459 0.34335 0.08159 0.0
C2071 C 0.24491 0.34414 0.10385 0.0
C2072 C 0.25846 0.3447 0.07025 0.0
C2073 C 0.27283 0.34665 0.08096 0.0
C2074 C 0.2731 0.34732 0.10323 0.0
C2075 C 0.25931 0.34619 0.11456 0.0
H2076 H 0.73041 0.71149 0.37351 0.0
H2077 H 0.70215 0.65571 0.37111 0.0
H2078 H 0.75285 0.7111 0.39414 0.0
H2079 H 0.72481 0.65516 0.39034 0.0
H2080 H 0.75704 0.65687 0.44454 0.0
H2081 H 0.73564 0.65882 0.42396 0.0
H2082 H 0.77554 0.70604 0.39555 0.0
H2083 H 0.79678 0.70446 0.41736 0.0
C2084 C 0.72919 0.69918 0.37707 0.0
C2085 C 0.71451 0.68364 0.37093 0.0
C2086 C 0.74206 0.6989 0.38883 0.0
C2087 C 0.74063 0.68307 0.3943 0.0
C2088 C 0.72621 0.66761 0.38717 0.0
C2089 C 0.71325 0.66789 0.37591 0.0
C2090 C 0.76116 0.66766 0.43391 0.0
C2091 C 0.77851 0.68047 0.43242 0.0
C2092 C 0.74893 0.66875 0.42192 0.0
C2093 C 0.75378 0.68247 0.40772 0.0
C2094 C 0.77122 0.69538 0.40642 0.0
C2095 C 0.78343 0.69446 0.4188 0.0
H2096 H 0.31461 0.03235 0.35808 0.0
H2097 H 0.35713 0.03578 0.39239 0.0
H2098 H 0.31743 0.05685 0.37818 0.0
H2099 H 0.36039 0.06084 0.41214 0.0
H2100 H 0.34856 0.09368 0.4582 0.0
H2101 H 0.34675 0.06916 0.43875 0.0
H2102 H 0.33608 0.08736 0.38112 0.0
H2103 H 0.33749 0.11155 0.40071 0.0
C2104 C 0.32464 0.03841 0.36987 0.0
C2105 C 0.33568 0.03218 0.37365 0.0
C2106 C 0.32635 0.05256 0.38129 0.0
C2107 C 0.33925 0.06094 0.39664 0.0
C2108 C 0.35022 0.0546 0.40056 0.0
C2109 C 0.34842 0.04031 0.3892 0.0
C2110 C 0.34597 0.09246 0.44134 0.0
C2111 C 0.34304 0.10441 0.43096 0.0
C2112 C 0.34497 0.07846 0.43018 0.0
C2113 C 0.34114 0.07622 0.4084 0.0
C2114 C 0.33867 0.08847 0.39797 0.0
C2115 C 0.33952 0.10236 0.40915 0.0
H2116 H 0.97111 0.32268 0.3921 0.0
H2117 H 0.97168 0.28176 0.35636 0.0
H2118 H 0.94563 0.30127 0.41105 0.0
H2119 H 0.94655 0.26032 0.3757 0.0
H2120 H 0.89129 0.22761 0.39743 0.0
H2121 H 0.91654 0.24949 0.37864 0.0
H2122 H 0.93586 0.27886 0.43694 0.0
H2123 H 0.91043 0.25707 0.45561 0.0
C2124 C 0.96587 0.3091 0.38843 0.0
C2125 C 0.97336 0.3039 0.3727 0.0
C2126 C 0.95131 0.29681 0.39936 0.0
C2127 C 0.94396 0.27904 0.39488 0.0
C2128 C 0.95165 0.27389 0.37931 0.0
C2129 C 0.96614 0.28618 0.36831 0.0
C2130 C 0.90096 0.23873 0.40622 0.0
C2131 C 0.89888 0.2406 0.428 0.0
C2132 C 0.91547 0.25125 0.39548 0.0
C2133 C 0.92832 0.26592 0.40627 0.0
C2134 C 0.92613 0.26787 0.42804 0.0
C2135 C 0.91156 0.25537 0.43876 0.0
H2136 H 0.9917 0.35687 0.29817 0.0
H2137 H 0.03848 0.39342 0.33033 0.0
H2138 H 0.99221 0.38028 0.27902 0.0
H2139 H 0.03918 0.41709 0.31064 0.0
H2140 H 0.02216 0.45515 0.2873 0.0
H2141 H 0.0239 0.43294 0.30711 0.0
H2142 H 0.00823 0.40021 0.25117 0.0
H2143 H 0.00638 0.42226 0.23153 0.0
C2144 C 1.00218 0.36993 0.3011 0.0
C2145 C 0.01509 0.37326 0.31576 0.0
C2146 C 1.00253 0.38338 0.28996 0.0
C2147 C 0.01583 0.40057 0.29309 0.0
C2148 C 0.0287 0.40399 0.30793 0.0
C2149 C 0.02835 0.39045 0.31915 0.0
C2150 C 0.01927 0.44327 0.2792 0.0
C2151 C 0.01393 0.44039 0.2579 0.0
C2152 C 0.02029 0.43056 0.29054 0.0
C2153 C 0.01603 0.4147 0.28081 0.0
C2154 C 0.01123 0.4121 0.25932 0.0
C2155 C 0.01016 0.42474 0.24804 0.0
H2156 H 0.62456 0.64144 0.32914 0.0
H2157 H 0.66531 0.64275 0.29209 0.0
H2158 H 0.60354 0.61674 0.30838 0.0
H2159 H 0.64412 0.61791 0.27113 0.0
H2160 H 0.60034 0.56032 0.259 0.0
H2161 H 0.6228 0.58627 0.27693 0.0
H2162 H 0.59229 0.61017 0.27169 0.0
H2163 H 0.57001 0.58446 0.25361 0.0
C2164 C 0.62902 0.63651 0.31646 0.0
C2165 C 0.64658 0.64403 0.31222 0.0
C2166 C 0.61697 0.62241 0.3045 0.0
C2167 C 0.62219 0.61542 0.2881 0.0
C2168 C 0.63975 0.62296 0.28378 0.0
C2169 C 0.65185 0.63721 0.29568 0.0
C2170 C 0.59854 0.57121 0.26144 0.0
C2171 C 0.58329 0.57024 0.25512 0.0
C2172 C 0.6114 0.58605 0.27168 0.0
C2173 C 0.60922 0.60017 0.27586 0.0
C2174 C 0.59418 0.59937 0.26904 0.0
C2175 C 0.5814 0.5846 0.25875 0.0
H2176 H 0.35655 0.96545 0.32809 0.0
H2177 H 0.37179 0.01455 0.29923 0.0
H2178 H 0.3783 0.96352 0.3072 0.0
H2179 H 0.3936 0.01282 0.27887 0.0
H2180 H 0.41799 0.99653 0.22858 0.0
H2181 H 0.39536 0.9964 0.24954 0.0
H2182 H 0.40935 0.97698 0.30323 0.0
H2183 H 0.43195 0.97695 0.2821 0.0
C2184 C 0.36461 0.97586 0.31742 0.0
C2185 C 0.3624 0.9901 0.31522 0.0
C2186 C 0.37709 0.97479 0.30552 0.0
C2187 C 0.38758 0.98794 0.29122 0.0
C2188 C 0.38551 0.00228 0.28938 0.0
C2189 C 0.37307 0.00333 0.30119 0.0
C2190 C 0.41626 0.99227 0.24487 0.0
C2191 C 0.42684 0.98689 0.25375 0.0
C2192 C 0.4033 0.99221 0.2569 0.0
C2193 C 0.40066 0.98685 0.27814 0.0
C2194 C 0.41096 0.98104 0.28687 0.0
C2195 C 0.42391 0.98104 0.27478 0.0
H2196 H 0.64263 0.01202 0.30155 0.0
H2197 H 0.6067 0.96263 0.329 0.0
H2198 H 0.61978 0.01108 0.2809 0.0
H2199 H 0.58372 0.96146 0.30779 0.0
H2200 H 0.54472 0.9757 0.28264 0.0
H2201 H 0.56672 0.97512 0.3039 0.0
H2202 H 0.60191 0.99578 0.25114 0.0
H2203 H 0.58002 0.99654 0.23007 0.0
C2204 C 0.62983 1.0009 0.30312 0.0
C2205 C 0.62649 0.98737 0.31689 0.0
C2206 C 0.61673 1.0003 0.29114 0.0
C2207 C 0.59992 0.98612 0.2925 0.0
C2208 C 0.5965 0.97264 0.30647 0.0
C2209 C 0.60967 0.97326 0.31856 0.0
C2210 C 0.55711 0.97995 0.27554 0.0
C2211 C 0.56068 0.9863 0.25473 0.0
C2212 C 0.56971 0.9796 0.28771 0.0
C2213 C 0.58614 0.98555 0.27931 0.0
C2214 C 0.58952 0.99147 0.2583 0.0
C2215 C 0.57697 0.99188 0.24619 0.0
H2216 H 0.98571 0.63757 0.29691 0.0
H2217 H 0.02963 0.64226 0.32909 0.0
H2218 H 0.98426 0.61445 0.27441 0.0
H2219 H 0.02819 0.61935 0.30675 0.0
H2220 H 0.03184 0.59113 0.24877 0.0
H2221 H 0.03257 0.61492 0.26854 0.0
H2222 H 0.9781 0.58374 0.2792 0.0
H2223 H 0.97735 0.55974 0.25974 0.0
C2224 C 0.99505 0.6337 0.29914 0.0
C2225 C 0.00779 0.64173 0.31471 0.0
C2226 C 0.99418 0.62045 0.28634 0.0
C2227 C 0.00618 0.6152 0.28878 0.0
C2228 C 0.01893 0.62331 0.30431 0.0
C2229 C 0.01969 0.63637 0.31718 0.0
C2230 C 0.02003 0.58928 0.25544 0.0
C2231 C 0.00457 0.57345 0.25288 0.0
C2232 C 0.02044 0.60293 0.26667 0.0
C2233 C 0.00541 0.60113 0.27549 0.0
C2234 C 0.98985 0.58553 0.27239 0.0
C2235 C 0.98944 0.5718 0.26125 0.0
H2236 H 0.36551 0.39191 0.32563 0.0
H2237 H 0.37617 0.35242 0.3055 0.0
H2238 H 0.38981 0.41326 0.30512 0.0
H2239 H 0.40119 0.37389 0.28609 0.0
H2240 H 0.43644 0.41281 0.23752 0.0
H2241 H 0.41111 0.39119 0.25658 0.0
H2242 H 0.41923 0.42987 0.30402 0.0
H2243 H 0.44381 0.45153 0.28397 0.0
C2244 C 0.37319 0.38785 0.31696 0.0
C2245 C 0.36897 0.37053 0.31712 0.0
C2246 C 0.38725 0.40013 0.30531 0.0
C2247 C 0.39768 0.39544 0.29393 0.0
C2248 C 0.39337 0.37802 0.29423 0.0
C2249 C 0.37908 0.36569 0.3055 0.0
C2250 C 0.43267 0.41656 0.25202 0.0
C2251 C 0.44192 0.43371 0.25937 0.0
C2252 C 0.41825 0.40419 0.26307 0.0
C2253 C 0.41299 0.40866 0.28197 0.0
C2254 C 0.42255 0.42592 0.28935 0.0
C2255 C 0.43674 0.43833 0.27803 0.0
H2256 H 0.30546 0.28132 0.36115 0.0
H2257 H 0.35208 0.31884 0.39282 0.0
H2258 H 0.3056 0.25809 0.38084 0.0
H2259 H 0.35242 0.29586 0.41195 0.0
H2260 H 0.34001 0.25399 0.45908 0.0
H2261 H 0.33734 0.27573 0.43982 0.0
H2262 H 0.32147 0.24299 0.38388 0.0
H2263 H 0.32401 0.22111 0.4033 0.0
C2264 C 0.31573 0.2846 0.37224 0.0
C2265 C 0.32871 0.30193 0.37547 0.0
C2266 C 0.31587 0.27131 0.38345 0.0
C2267 C 0.32896 0.27511 0.39811 0.0
C2268 C 0.34195 0.29245 0.40114 0.0
C2269 C 0.34181 0.30566 0.39002 0.0
C2270 C 0.33601 0.25145 0.44265 0.0
C2271 C 0.33238 0.23589 0.43268 0.0
C2272 C 0.33448 0.26391 0.43158 0.0
C2273 C 0.32935 0.2612 0.41021 0.0
C2274 C 0.32529 0.24544 0.40037 0.0
C2275 C 0.32678 0.23292 0.41149 0.0
H2276 H 0.67574 0.03101 0.3969 0.0
H2277 H 0.71571 0.02928 0.36161 0.0
H2278 H 0.69749 0.05546 0.41788 0.0
H2279 H 0.73725 0.05358 0.38234 0.0
H2280 H 0.77095 0.08519 0.43735 0.0
H2281 H 0.74807 0.05998 0.41911 0.0
H2282 H 0.72018 0.08653 0.41211 0.0
H2283 H 0.7432 0.11191 0.4302 0.0
C2284 C 0.68913 0.03582 0.39367 0.0
C2285 C 0.69403 0.02823 0.37765 0.0
C2286 C 0.70156 0.04983 0.40558 0.0
C2287 C 0.71906 0.05637 0.40179 0.0
C2288 C 0.72388 0.04867 0.38584 0.0
C2289 C 0.71151 0.0348 0.37389 0.0
C2290 C 0.76 0.08572 0.4318 0.0
C2291 C 0.75899 0.10064 0.43503 0.0
C2292 C 0.74687 0.07125 0.42142 0.0
C2293 C 0.73239 0.07133 0.41408 0.0
C2294 C 0.73112 0.08605 0.41779 0.0
C2295 C 0.7443 0.10057 0.42812 0.0
H2296 H 0.97832 0.69905 0.35821 0.0
H2297 H 0.97688 0.66073 0.40003 0.0
H2298 H 0.95488 0.69846 0.37827 0.0
H2299 H 0.95361 0.66022 0.42003 0.0
H2300 H 0.92548 0.67893 0.46373 0.0
H2301 H 0.94939 0.68068 0.44365 0.0
H2302 H 0.92326 0.67655 0.38508 0.0
H2303 H 0.89936 0.67489 0.40518 0.0
C2304 C 0.97304 0.69056 0.3717 0.0
C2305 C 0.97942 0.67993 0.37754 0.0
C2306 C 0.95959 0.69016 0.3831 0.0
C2307 C 0.95246 0.67931 0.40071 0.0
C2308 C 0.95897 0.66883 0.40665 0.0
C2309 C 0.97224 0.66906 0.39512 0.0
C2310 C 0.92491 0.6785 0.44656 0.0
C2311 C 0.91057 0.67675 0.436 0.0
C2312 C 0.93852 0.67939 0.43509 0.0
C2313 C 0.93817 0.67875 0.41282 0.0
C2314 C 0.92392 0.6772 0.40224 0.0
C2315 C 0.9102 0.6761 0.41372 0.0
H2316 H 0.36158 0.99725 0.72906 0.0
H2317 H 0.39889 0.04019 0.69177 0.0
H2318 H 0.38442 0.99757 0.74904 0.0
H2319 H 0.42194 0.04024 0.71153 0.0
H2320 H 0.45799 0.04529 0.76576 0.0
H2321 H 0.4355 0.04623 0.74612 0.0
H2322 H 0.40611 0.99036 0.74412 0.0
H2323 H 0.42813 0.98942 0.76454 0.0
C2324 C 0.37469 0.00675 0.72507 0.0
C2325 C 0.37842 0.01865 0.70875 0.0
C2326 C 0.38782 0.00685 0.73646 0.0
C2327 C 0.40506 0.01881 0.73178 0.0
C2328 C 0.40881 0.03093 0.71566 0.0
C2329 C 0.39561 0.03087 0.70427 0.0
C2330 C 0.44665 0.03321 0.76131 0.0
C2331 C 0.44488 0.01728 0.76681 0.0
C2332 C 0.43384 0.03375 0.74982 0.0
C2333 C 0.41895 0.01838 0.74357 0.0
C2334 C 0.41728 0.00247 0.74891 0.0
C2335 C 0.43004 0.00192 0.76041 0.0
H2336 H 0.97697 0.36408 0.69193 0.0
H2337 H 0.01994 0.36789 0.72559 0.0
H2338 H 0.97789 0.38654 0.71477 0.0
H2339 H 0.02086 0.39052 0.74852 0.0
H2340 H 0.02809 0.44502 0.7641 0.0
H2341 H 0.02741 0.42136 0.74395 0.0
H2342 H 0.97275 0.39034 0.75318 0.0
H2343 H 0.9734 0.41377 0.77374 0.0
C2344 C 0.98659 0.36969 0.70425 0.0
C2345 C 0.99839 0.36424 0.70699 0.0
C2346 C 0.98704 0.38248 0.7174 0.0
C2347 C 0.9994 0.39021 0.73344 0.0
C2348 C 0.01126 0.38482 0.73618 0.0
C2349 C 0.01069 0.37185 0.72314 0.0
C2350 C 0.01596 0.43306 0.76215 0.0
C2351 C 1.00078 0.43134 0.77042 0.0
C2352 C 0.01559 0.41953 0.75059 0.0
C2353 C 1.00002 0.40408 0.74693 0.0
C2354 C 0.98489 0.40222 0.75552 0.0
C2355 C 0.98528 0.41567 0.76721 0.0
H2356 H 0.64029 0.61643 0.69583 0.0
H2357 H 0.63877 0.65877 0.72656 0.0
H2358 H 0.61541 0.59584 0.71623 0.0
H2359 H 0.6139 0.63809 0.74722 0.0
H2360 H 0.55765 0.59449 0.75959 0.0
H2361 H 0.58342 0.61606 0.74121 0.0
H2362 H 0.60712 0.58592 0.75276 0.0
H2363 H 0.58147 0.56446 0.77125 0.0
C2364 C 0.6347 0.62135 0.70705 0.0
C2365 C 0.64147 0.63922 0.70957 0.0
C2366 C 0.62049 0.60954 0.71883 0.0
C2367 C 0.61268 0.61533 0.73337 0.0
C2368 C 0.61952 0.63323 0.736 0.0
C2369 C 0.63382 0.64506 0.72426 0.0
C2370 C 0.56843 0.59257 0.75843 0.0
C2371 C 0.56743 0.57767 0.76676 0.0
C2372 C 0.5832 0.60493 0.7479 0.0
C2373 C 0.59729 0.60265 0.74543 0.0
C2374 C 0.59638 0.58791 0.75407 0.0
C2375 C 0.58166 0.57558 0.76463 0.0
H2376 H 0.65668 0.68641 0.62938 0.0
H2377 H 0.7024 0.72581 0.66092 0.0
H2378 H 0.65465 0.7086 0.61043 0.0
H2379 H 0.70058 0.74814 0.6415 0.0
H2380 H 0.67952 0.78288 0.62131 0.0
H2381 H 0.68302 0.76128 0.63983 0.0
H2382 H 0.66838 0.72966 0.58295 0.0
H2383 H 0.66478 0.75119 0.56453 0.0
C2384 C 0.66641 0.69983 0.63214 0.0
C2385 C 0.6797 0.70434 0.64668 0.0
C2386 C 0.66529 0.71257 0.62115 0.0
C2387 C 0.67747 0.73019 0.62438 0.0
C2388 C 0.69088 0.73471 0.63881 0.0
C2389 C 0.69199 0.72192 0.64984 0.0
C2390 C 0.67718 0.77138 0.61272 0.0
C2391 C 0.67176 0.76871 0.59148 0.0
C2392 C 0.67923 0.75901 0.62333 0.0
C2393 C 0.67594 0.74369 0.61292 0.0
C2394 C 0.67073 0.74115 0.59158 0.0
C2395 C 0.66864 0.75349 0.58101 0.0
H2396 H 0.29039 0.97427 0.66181 0.0
H2397 H 0.33171 0.97394 0.6281 0.0
H2398 H 0.26968 0.94951 0.64103 0.0
H2399 H 0.31077 0.949 0.60699 0.0
H2400 H 0.26589 0.89189 0.59398 0.0
H2401 H 0.28848 0.91764 0.61211 0.0
H2402 H 0.25957 0.94304 0.60418 0.0
H2403 H 0.23713 0.91746 0.58606 0.0
C2404 C 0.29506 0.96896 0.64986 0.0
C2405 C 0.31269 0.97609 0.64653 0.0
C2406 C 0.28317 0.95481 0.63787 0.0
C2407 C 0.28859 0.94738 0.62227 0.0
C2408 C 0.30624 0.95442 0.61898 0.0
C2409 C 0.3182 0.96872 0.63097 0.0
C2410 C 0.26448 0.90306 0.59589 0.0
C2411 C 0.24961 0.90256 0.58886 0.0
C2412 C 0.27742 0.9178 0.60624 0.0
C2413 C 0.2757 0.93228 0.60975 0.0
C2414 C 0.26109 0.93195 0.60209 0.0
C2415 C 0.24822 0.91728 0.59176 0.0
H2416 H 0.02763 0.30598 0.66305 0.0
H2417 H 0.03397 0.34852 0.62523 0.0
H2418 H 0.05168 0.30678 0.64448 0.0
H2419 H 0.05752 0.34898 0.60628 0.0
H2420 H 0.10968 0.3575 0.5907 0.0
H2421 H 0.08646 0.35656 0.61111 0.0
H2422 H 0.05983 0.30068 0.61064 0.0
H2423 H 0.08355 0.30166 0.59128 0.0
C2424 C 0.03409 0.31542 0.6507 0.0
C2425 C 0.02895 0.32722 0.64565 0.0
C2426 C 0.04781 0.31583 0.63998 0.0
C2427 C 0.0566 0.32799 0.62392 0.0
C2428 C 0.0513 0.33967 0.61882 0.0
C2429 C 0.03769 0.33933 0.6296 0.0
C2430 C 0.099 0.34501 0.59522 0.0
C2431 C 0.0985 0.32966 0.5893 0.0
C2432 C 0.08556 0.34446 0.60669 0.0
C2433 C 0.07119 0.32853 0.61241 0.0
C2434 C 0.07075 0.31318 0.60667 0.0
C2435 C 0.08426 0.31373 0.5953 0.0
H2436 H 0.27538 0.30254 0.66744 0.0
H2437 H 0.31193 0.33997 0.62361 0.0
H2438 H 0.25199 0.30183 0.64745 0.0
H2439 H 0.28872 0.33917 0.60377 0.0
H2440 H 0.24213 0.32045 0.56132 0.0
H2441 H 0.26379 0.31818 0.58119 0.0
H2442 H 0.24206 0.32327 0.63996 0.0
H2443 H 0.22025 0.32541 0.62006 0.0
C2444 C 0.2784 0.31049 0.65349 0.0
C2445 C 0.29547 0.32133 0.64711 0.0
C2446 C 0.26505 0.31016 0.64214 0.0
C2447 C 0.26855 0.32043 0.62404 0.0
C2448 C 0.28561 0.33098 0.61751 0.0
C2449 C 0.29891 0.3315 0.62897 0.0
C2450 C 0.24186 0.3209 0.57849 0.0
C2451 C 0.22953 0.32316 0.58914 0.0
C2452 C 0.25432 0.3197 0.58985 0.0
C2453 C 0.25462 0.32056 0.61212 0.0
C2454 C 0.24205 0.32243 0.62281 0.0
C2455 C 0.22969 0.32383 0.61143 0.0
H2456 H 0.6485 0.96973 0.63154 0.0
H2457 H 0.69069 0.97188 0.66521 0.0
H2458 H 0.64461 0.94454 0.61137 0.0
H2459 H 0.68719 0.94727 0.64479 0.0
H2460 H 0.66658 0.89286 0.62164 0.0
H2461 H 0.66791 0.91681 0.64166 0.0
H2462 H 0.65809 0.93603 0.58432 0.0
H2463 H 0.6564 0.91173 0.56437 0.0
C2464 C 0.65698 0.96488 0.63454 0.0
C2465 C 0.66984 0.97272 0.65 0.0
C2466 C 0.65481 0.95052 0.62294 0.0
C2467 C 0.6655 0.94379 0.62658 0.0
C2468 C 0.67848 0.95185 0.64189 0.0
C2469 C 0.68058 0.96607 0.6535 0.0
C2470 C 0.6647 0.90221 0.61334 0.0
C2471 C 0.66154 0.90054 0.59144 0.0
C2472 C 0.6655 0.91596 0.62478 0.0
C2473 C 0.66332 0.92848 0.61455 0.0
C2474 C 0.65968 0.92654 0.59272 0.0
C2475 C 0.65876 0.91267 0.58128 0.0
H2476 H 0.03616 0.68152 0.63074 0.0
H2477 H 0.03713 0.7234 0.66607 0.0
H2478 H 0.06179 0.70234 0.61141 0.0
H2479 H 0.06239 0.7442 0.64645 0.0
H2480 H 0.11758 0.7755 0.6248 0.0
H2481 H 0.09226 0.75388 0.64369 0.0
H2482 H 0.07204 0.72496 0.58529 0.0
H2483 H 0.09753 0.74654 0.56646 0.0
C2484 C 0.04177 0.69518 0.63425 0.0
C2485 C 0.03468 0.70082 0.64998 0.0
C2486 C 0.05641 0.70712 0.62311 0.0
C2487 C 0.06424 0.72496 0.62745 0.0
C2488 C 0.05692 0.73056 0.64297 0.0
C2489 C 0.04235 0.71864 0.65413 0.0
C2490 C 0.1077 0.76454 0.61599 0.0
C2491 C 0.10952 0.76277 0.59412 0.0
C2492 C 0.09316 0.75216 0.6268 0.0
C2493 C 0.08001 0.73774 0.61599 0.0
C2494 C 0.08198 0.7358 0.59417 0.0
C2495 C 0.09659 0.74816 0.58336 0.0
H2496 H 0.0167 0.64952 0.72595 0.0
H2497 H 0.96944 0.61272 0.69489 0.0
H2498 H 0.01657 0.62624 0.74495 0.0
H2499 H 0.96911 0.58921 0.71445 0.0
H2500 H 0.98621 0.55112 0.73659 0.0
H2501 H 0.98435 0.57342 0.71719 0.0
H2502 H 1.00138 0.60632 0.77298 0.0
H2503 H 1.00336 0.58417 0.79221 0.0
C2504 C 0.00619 0.63644 0.72325 0.0
C2505 C 0.99305 0.633 0.70891 0.0
C2506 C 0.00606 0.62306 0.7343 0.0
C2507 C 0.99276 0.60583 0.73141 0.0
C2508 C 0.97962 0.60232 0.71696 0.0
C2509 C 0.97975 0.61579 0.70583 0.0
C2510 C 0.98941 0.56307 0.74474 0.0
C2511 C 0.99512 0.56594 0.76589 0.0
C2512 C 0.9883 0.57583 0.73364 0.0
C2513 C 0.99285 0.59174 0.74345 0.0
C2514 C 0.99813 0.59439 0.76476 0.0
C2515 C 0.99928 0.58168 0.77581 0.0
H2516 H 0.34725 0.35862 0.73705 0.0
H2517 H 0.37797 0.37804 0.68048 0.0
H2518 H 0.36883 0.38383 0.75701 0.0
H2519 H 0.39884 0.40372 0.69966 0.0
H2520 H 0.44269 0.43782 0.74175 0.0
H2521 H 0.42049 0.4126 0.72359 0.0
H2522 H 0.38235 0.41336 0.76416 0.0
H2523 H 0.40489 0.43757 0.78394 0.0
C2524 C 0.35849 0.36848 0.72886 0.0
C2525 C 0.3611 0.36639 0.70736 0.0
C2526 C 0.37084 0.38298 0.74021 0.0
C2527 C 0.3858 0.39583 0.73009 0.0
C2528 C 0.38786 0.39392 0.70827 0.0
C2529 C 0.37581 0.37927 0.69716 0.0
C2530 C 0.42964 0.43246 0.74719 0.0
C2531 C 0.42573 0.43982 0.76449 0.0
C2532 C 0.41677 0.41811 0.73639 0.0
C2533 C 0.39947 0.41093 0.74213 0.0
C2534 C 0.39549 0.41835 0.75935 0.0
C2535 C 0.40846 0.4325 0.7705 0.0
H2536 H 0.6427 0.99763 0.7332 0.0
H2537 H 0.64686 0.03658 0.69026 0.0
H2538 H 0.62086 0.99965 0.75338 0.0
H2539 H 0.62487 0.03858 0.71056 0.0
H2540 H 0.56987 0.01862 0.73797 0.0
H2541 H 0.59319 0.01907 0.71794 0.0
H2542 H 0.61835 0.0211 0.77657 0.0
H2543 H 0.59495 0.02047 0.7966 0.0
C2544 C 0.63898 0.00666 0.72809 0.0
C2545 C 0.64648 0.01693 0.71011 0.0
C2546 C 0.62654 0.00789 0.73975 0.0
C2547 C 0.6212 0.0193 0.73358 0.0
C2548 C 0.62868 0.0296 0.7156 0.0
C2549 C 0.6413 0.0285 0.70404 0.0
C2550 C 0.5804 0.01918 0.74655 0.0
C2551 C 0.58057 0.01944 0.76884 0.0
C2552 C 0.59381 0.0196 0.73509 0.0
C2553 C 0.60756 0.02008 0.74569 0.0
C2554 C 0.60785 0.0206 0.76798 0.0
C2555 C 0.59453 0.02037 0.77944 0.0
loop_
_geom_bond_atom_site_label_1
_geom_bond_atom_site_label_2
_geom_bond_distance
_geom_bond_site_symmetry_2
_ccdc_geom_bond_type
Co0 O1 2.216 . S
Co0 O2 2.091 . S
Co0 O4 2.004 1_554 S
Co0 O10 2.021 . S
Co0 O12 2.137 1_454 S
Co0 O13 2.244 1_455 S
O1 Co0 2.216 . S
O1 C8 1.247 . S
O2 Co0 2.091 . S
O2 C8 1.261 . S
C3 O12 1.247 . S
C3 O13 1.272 1_556 S
O4 Co0 2.004 1_556 S
O4 C9 1.259 . S
Co5 O6 2.061 1_554 S
Co5 O11 2.052 . S
Co5 O13 2.135 . S
O6 Co5 2.061 1_556 S
O6 C9 1.235 1_655 S
C7 O10 1.238 1_655 S
C7 O11 1.241 . S
C8 O1 1.247 . S
C8 O2 1.261 . S
C9 O4 1.259 . S
C9 O6 1.235 1_455 S
O10 Co0 2.021 . S
O10 C7 1.238 1_455 S
O11 Co5 2.052 . S
O11 C7 1.241 . S
O12 Co0 2.137 1_656 S
O12 C3 1.247 . S
O13 Co0 2.244 1_655 S
O13 C3 1.272 1_554 S
O13 Co5 2.135 . S
Co14 O15 2.216 1_554 S
Co14 O16 2.091 . S
Co14 O18 2.004 . S
Co14 O24 2.021 1_554 S
Co14 O26 2.137 . S
Co14 O27 2.244 . S
O15 Co14 2.216 1_556 S
O15 C22 1.247 . S
O16 Co14 2.091 . S
O16 C22 1.261 1_554 S
C17 O26 1.247 . S
C17 O27 1.272 . S
O18 Co14 2.004 . S
O18 C23 1.259 . S
Co19 O20 2.061 . S
Co19 O25 2.052 1_554 S
Co19 O27 2.135 . S
O20 Co19 2.061 . S
O20 C23 1.235 . S
C21 O24 1.238 . S
C21 O25 1.241 . S
C22 O15 1.247 . S
C22 O16 1.261 1_556 S
C23 O18 1.259 . S
C23 O20 1.235 . S
O24 Co14 2.021 1_556 S
O24 C21 1.238 . S
O25 Co19 2.052 1_556 S
O25 C21 1.241 . S
O26 Co14 2.137 . S
O26 C17 1.247 . S
O27 Co14 2.244 . S
O27 C17 1.272 . S
O27 Co19 2.135 . S
Co28 O29 2.216 1_554 S
Co28 O30 2.091 . S
Co28 O32 2.004 . S
Co28 O38 2.021 1_554 S
Co28 O40 2.141 1_545 S
Co28 O41 2.244 1_545 S
O29 Co28 2.216 1_556 S
O29 C36 1.247 . S
O30 Co28 2.091 . S
O30 C36 1.261 1_554 S
C31 O40 1.299 . S
C31 O41 1.272 . S
O32 Co28 2.004 . S
O32 C37 1.259 . S
Co33 O34 2.061 . S
Co33 O39 2.052 1_554 S
Co33 O41 2.135 . S
O34 Co33 2.061 . S
O34 C37 1.235 1_565 S
C35 O38 1.238 1_565 S
C35 O39 1.241 . S
C36 O29 1.247 . S
C36 O30 1.261 1_556 S
C37 O32 1.259 . S
C37 O34 1.235 1_545 S
O38 Co28 2.021 1_556 S
O38 C35 1.238 1_545 S
O39 Co33 2.052 1_556 S
O39 C35 1.241 . S
O40 Co28 2.141 1_565 S
O40 C31 1.299 . S
O41 Co28 2.244 1_565 S
O41 C31 1.272 . S
O41 Co33 2.135 . S
Co42 O43 2.216 1_554 S
Co42 O44 2.091 . S
Co42 O46 2.004 . S
Co42 O52 2.021 1_554 S
Co42 O54 2.137 1_655 S
Co42 O55 2.244 1_655 S
O43 Co42 2.216 1_556 S
O43 C50 1.247 . S
O44 Co42 2.091 . S
O44 C50 1.261 1_554 S
C45 O54 1.247 . S
C45 O55 1.272 . S
O46 Co42 2.004 . S
O46 C51 1.253 1_655 S
Co47 O48 2.061 . S
Co47 O53 2.052 1_554 S
Co47 O55 2.135 . S
O48 Co47 2.061 . S
O48 C51 1.241 . S
C49 O52 1.238 1_455 S
C49 O53 1.241 . S
C50 O43 1.247 . S
C50 O44 1.261 1_556 S
C51 O46 1.253 1_455 S
C51 O48 1.241 . S
O52 Co42 2.021 1_556 S
O52 C49 1.238 1_655 S
O53 Co47 2.052 1_556 S
O53 C49 1.241 . S
O54 Co42 2.137 1_455 S
O54 C45 1.247 . S
O55 Co42 2.244 1_455 S
O55 C45 1.272 . S
O55 Co47 2.135 . S
Co56 O57 2.216 . S
Co56 O58 2.091 . S
Co56 O60 2.004 1_554 S
Co56 O66 2.021 . S
Co56 O68 2.137 1_554 S
Co56 O69 2.244 . S
O57 Co56 2.216 . S
O57 C64 1.247 . S
O58 Co56 2.091 . S
O58 C64 1.261 . S
C59 O68 1.247 . S
C59 O69 1.273 1_556 S
O60 Co56 2.004 1_556 S
O60 C65 1.259 . S
Co61 O62 2.093 . S
Co61 O67 2.002 1_556 S
Co61 O69 2.133 1_556 S
O62 Co61 2.093 . S
O62 C65 1.235 . S
C63 O66 1.238 . S
C63 O67 1.241 . S
C64 O57 1.247 . S
C64 O58 1.261 . S
C65 O60 1.259 . S
C65 O62 1.235 . S
O66 Co56 2.021 . S
O66 C63 1.238 . S
O67 Co61 2.002 1_554 S
O67 C63 1.241 . S
O68 Co56 2.137 1_556 S
O68 C59 1.247 . S
O69 Co56 2.244 . S
O69 C59 1.273 1_554 S
O69 Co61 2.133 1_554 S
Co70 O71 2.216 . S
Co70 O72 2.091 . S
Co70 O74 2.004 1_554 S
Co70 O80 2.021 . S
Co70 O82 2.137 1_564 S
Co70 O83 2.244 1_565 S
O71 Co70 2.216 . S
O71 C78 1.247 . S
O72 Co70 2.091 . S
O72 C78 1.261 . S
C73 O82 1.247 . S
C73 O83 1.272 1_556 S
O74 Co70 2.004 1_556 S
O74 C79 1.253 1_565 S
Co75 O76 2.061 1_554 S
Co75 O81 2.052 . S
Co75 O83 2.135 . S
O76 Co75 2.061 1_556 S
O76 C79 1.241 . S
C77 O80 1.238 1_545 S
C77 O81 1.241 . S
C78 O71 1.247 . S
C78 O72 1.261 . S
C79 O74 1.253 1_545 S
C79 O76 1.241 . S
O80 Co70 2.021 . S
O80 C77 1.238 1_565 S
O81 Co75 2.052 . S
O81 C77 1.241 . S
O82 Co70 2.137 1_546 S
O82 C73 1.247 . S
O83 Co70 2.244 1_545 S
O83 C73 1.272 1_554 S
O83 Co75 2.135 . S
Co84 O85 2.216 . S
Co84 O86 2.091 . S
Co84 O88 2.004 . S
Co84 O94 2.021 . S
Co84 O96 2.137 . S
Co84 O97 2.244 . S
O85 Co84 2.216 . S
O85 C92 1.247 . S
O86 Co84 2.091 . S
O86 C92 1.261 . S
C87 O96 1.247 . S
C87 O97 1.272 . S
O88 Co84 2.004 . S
O88 C93 1.259 . S
Co89 O90 2.061 . S
Co89 O95 2.052 . S
Co89 O97 2.135 . S
O90 Co89 2.061 . S
O90 C93 1.235 . S
C91 O94 1.238 . S
C91 O95 1.241 . S
C92 O85 1.247 . S
C92 O86 1.261 . S
C93 O88 1.259 . S
C93 O90 1.235 . S
O94 Co84 2.021 . S
O94 C91 1.238 . S
O95 Co89 2.052 . S
O95 C91 1.241 . S
O96 Co84 2.137 . S
O96 C87 1.247 . S
O97 Co84 2.244 . S
O97 C87 1.272 . S
O97 Co89 2.135 . S
Co98 O99 2.234 . S
Co98 O100 2.091 . S
Co98 O102 2.004 . S
Co98 O108 2.021 . S
Co98 O110 2.137 1_565 S
Co98 O111 2.244 1_565 S
O99 Co98 2.234 . S
O99 C106 1.309 . S
O100 Co98 2.091 . S
O100 C106 1.261 . S
C101 O110 1.247 . S
C101 O111 1.272 . S
O102 Co98 2.004 . S
O102 C107 1.259 . S
Co103 O104 2.061 . S
Co103 O109 2.052 . S
Co103 O111 2.135 1_565 S
O104 Co103 2.061 . S
O104 C107 1.235 . S
C105 O108 1.238 . S
C105 O109 1.241 . S
C106 O99 1.309 . S
C106 O100 1.261 . S
C107 O102 1.259 . S
C107 O104 1.235 . S
O108 Co98 2.021 . S
O108 C105 1.238 . S
O109 Co103 2.052 . S
O109 C105 1.241 . S
O110 Co98 2.137 1_545 S
O110 C101 1.247 . S
O111 Co98 2.244 1_545 S
O111 C101 1.272 . S
O111 Co103 2.135 1_545 S
Co112 O113 2.216 . S
Co112 O114 2.091 . S
Co112 O116 2.004 . S
Co112 O122 2.021 . S
Co112 O124 2.137 1_455 S
Co112 O125 2.244 . S
O113 Co112 2.216 . S
O113 C120 1.247 . S
O114 Co112 2.091 . S
O114 C120 1.261 . S
C115 O124 1.247 . S
C115 O125 1.272 1_655 S
O116 Co112 2.004 . S
O116 C121 1.259 . S
Co117 O118 2.061 . S
Co117 O123 2.052 . S
Co117 O125 2.135 . S
O118 Co117 2.061 . S
O118 C121 1.235 . S
C119 O122 1.238 . S
C119 O123 1.241 . S
C120 O113 1.247 . S
C120 O114 1.261 . S
C121 O116 1.259 . S
C121 O118 1.235 . S
O122 Co112 2.021 . S
O122 C119 1.238 . S
O123 Co117 2.052 . S
O123 C119 1.241 . S
O124 Co112 2.137 1_655 S
O124 C115 1.247 . S
O125 Co112 2.244 . S
O125 C115 1.272 1_455 S
O125 Co117 2.135 . S
Co126 O127 2.216 . S
Co126 O128 2.091 . S
Co126 O130 2.004 . S
Co126 O136 2.021 . S
Co126 O138 2.137 1_565 S
Co126 O139 2.244 1_565 S
O127 Co126 2.216 . S
O127 C134 1.247 . S
O128 Co126 2.091 . S
O128 C134 1.261 . S
C129 O138 1.247 . S
C129 O139 1.272 . S
O130 Co126 2.004 . S
O130 C135 1.259 . S
Co131 O132 2.061 . S
Co131 O137 2.052 . S
Co131 O139 2.135 1_565 S
O132 Co131 2.061 . S
O132 C135 1.235 . S
C133 O136 1.238 . S
C133 O137 1.241 . S
C134 O127 1.247 . S
C134 O128 1.261 . S
C135 O130 1.259 . S
C135 O132 1.235 . S
O136 Co126 2.021 . S
O136 C133 1.238 . S
O137 Co131 2.052 . S
O137 C133 1.241 . S
O138 Co126 2.137 1_545 S
O138 C129 1.247 . S
O139 Co126 2.244 1_545 S
O139 C129 1.272 . S
O139 Co131 2.135 1_545 S
Co140 O141 2.216 1_455 S
Co140 O142 2.091 1_455 S
Co140 O144 2.004 . S
Co140 O150 2.021 . S
Co140 O152 2.137 1_455 S
Co140 O153 2.244 . S
O141 Co140 2.216 1_655 S
O141 C148 1.247 . S
O142 Co140 2.091 1_655 S
O142 C148 1.261 . S
C143 O152 1.247 1_455 S
C143 O153 1.272 . S
O144 Co140 2.004 . S
O144 C149 1.259 . S
Co145 O146 2.061 . S
Co145 O151 2.052 . S
Co145 O153 2.135 . S
O146 Co145 2.061 . S
O146 C149 1.235 . S
C147 O150 1.238 . S
C147 O151 1.241 . S
C148 O141 1.247 . S
C148 O142 1.261 . S
C149 O144 1.259 . S
C149 O146 1.235 . S
O150 Co140 2.021 . S
O150 C147 1.238 . S
O151 Co145 2.052 . S
O151 C147 1.241 . S
O152 Co140 2.137 1_655 S
O152 C143 1.247 1_655 S
O153 Co140 2.244 . S
O153 C143 1.272 . S
O153 Co145 2.135 . S
Co154 O155 2.216 . S
Co154 O156 2.091 . S
Co154 O158 2.004 . S
Co154 O164 2.021 . S
Co154 O166 2.137 . S
Co154 O167 2.244 . S
O155 Co154 2.216 . S
O155 C162 1.247 . S
O156 Co154 2.091 . S
O156 C162 1.261 . S
C157 O166 1.247 . S
C157 O167 1.272 . S
O158 Co154 2.004 . S
O158 C163 1.259 . S
Co159 O160 2.061 . S
Co159 O165 2.052 . S
Co159 O167 2.135 . S
O160 Co159 2.061 . S
O160 C163 1.235 . S
C161 O164 1.238 . S
C161 O165 1.241 . S
C162 O155 1.247 . S
C162 O156 1.261 . S
C163 O158 1.259 . S
C163 O160 1.235 . S
O164 Co154 2.021 . S
O164 C161 1.238 . S
O165 Co159 2.052 . S
O165 C161 1.241 . S
O166 Co154 2.137 . S
O166 C157 1.247 . S
O167 Co154 2.244 . S
O167 C157 1.272 . S
O167 Co159 2.135 . S
Co168 O169 2.216 . S
Co168 O170 2.091 . S
Co168 O172 2.004 . S
Co168 O178 2.021 . S
Co168 O180 2.137 1_545 S
Co168 O181 2.254 . S
O169 Co168 2.216 . S
O169 C176 1.247 . S
O170 Co168 2.091 . S
O170 C176 1.261 . S
C171 O180 1.247 . S
C171 O181 1.211 1_565 S
O172 Co168 2.004 . S
O172 C177 1.259 . S
Co173 O174 2.061 . S
Co173 O179 2.052 . S
Co173 O181 2.204 . S
O174 Co173 2.061 . S
O174 C177 1.235 . S
C175 O178 1.238 . S
C175 O179 1.241 . S
C176 O169 1.247 . S
C176 O170 1.261 . S
C177 O172 1.259 . S
C177 O174 1.235 . S
O178 Co168 2.021 . S
O178 C175 1.238 . S
O179 Co173 2.052 . S
O179 C175 1.241 . S
O180 Co168 2.137 1_565 S
O180 C171 1.247 . S
O181 Co168 2.254 . S
O181 C171 1.211 1_545 S
O181 Co173 2.204 . S
Co182 O183 2.216 1_655 S
Co182 O184 2.091 1_655 S
Co182 O186 2.004 . S
Co182 O192 2.021 . S
Co182 O194 2.137 1_655 S
Co182 O195 2.244 . S
O183 Co182 2.216 1_455 S
O183 C190 1.247 . S
O184 Co182 2.091 1_455 S
O184 C190 1.261 . S
C185 O194 1.247 1_655 S
C185 O195 1.272 . S
O186 Co182 2.004 . S
O186 C191 1.259 . S
Co187 O188 2.061 . S
Co187 O193 2.052 . S
Co187 O195 2.135 . S
O188 Co187 2.061 . S
O188 C191 1.235 . S
C189 O192 1.238 . S
C189 O193 1.241 . S
C190 O183 1.247 . S
C190 O184 1.261 . S
C191 O186 1.259 . S
C191 O188 1.235 . S
O192 Co182 2.021 . S
O192 C189 1.238 . S
O193 Co187 2.052 . S
O193 C189 1.241 . S
O194 Co182 2.137 1_455 S
O194 C185 1.247 1_455 S
O195 Co182 2.244 . S
O195 C185 1.272 . S
O195 Co187 2.135 . S
Co196 O197 2.216 . S
Co196 O198 2.091 . S
Co196 O200 2.004 . S
Co196 O206 2.021 . S
Co196 O208 2.137 . S
Co196 O209 2.244 . S
O197 Co196 2.216 . S
O197 C204 1.247 . S
O198 Co196 2.091 . S
O198 C204 1.261 . S
C199 O208 1.247 . S
C199 O209 1.272 . S
O200 Co196 2.004 . S
O200 C205 1.259 . S
Co201 O202 2.061 . S
Co201 O207 2.052 . S
Co201 O209 2.135 . S
O202 Co201 2.061 . S
O202 C205 1.235 . S
C203 O206 1.238 . S
C203 O207 1.241 . S
C204 O197 1.247 . S
C204 O198 1.261 . S
C205 O200 1.259 . S
C205 O202 1.235 . S
O206 Co196 2.021 . S
O206 C203 1.238 . S
O207 Co201 2.052 . S
O207 C203 1.241 . S
O208 Co196 2.137 . S
O208 C199 1.247 . S
O209 Co196 2.244 . S
O209 C199 1.272 . S
O209 Co201 2.135 . S
Co210 O211 2.216 . S
Co210 O212 2.091 . S
Co210 O214 2.004 . S
Co210 O220 2.021 . S
Co210 O222 2.137 . S
Co210 O223 2.244 . S
O211 Co210 2.216 . S
O211 C218 1.247 . S
O212 Co210 2.091 . S
O212 C218 1.261 . S
C213 O222 1.247 . S
C213 O223 1.272 . S
O214 Co210 2.004 . S
O214 C219 1.259 . S
Co215 O216 2.061 . S
Co215 O221 2.052 . S
Co215 O223 2.135 . S
O216 Co215 2.061 . S
O216 C219 1.235 . S
C217 O220 1.238 . S
C217 O221 1.241 . S
C218 O211 1.247 . S
C218 O212 1.261 . S
C219 O214 1.259 . S
C219 O216 1.235 . S
O220 Co210 2.021 . S
O220 C217 1.238 . S
O221 Co215 2.052 . S
O221 C217 1.241 . S
O222 Co210 2.137 . S
O222 C213 1.247 . S
O223 Co210 2.244 . S
O223 C213 1.272 . S
O223 Co215 2.135 . S
Co224 O225 2.216 . S
Co224 O226 2.091 . S
Co224 O228 2.004 . S
Co224 O234 2.021 . S
Co224 O236 2.137 1_545 S
Co224 O237 2.314 . S
O225 Co224 2.216 . S
O225 C232 1.247 . S
O226 Co224 2.091 . S
O226 C232 1.261 . S
C227 O236 1.247 . S
C227 O237 1.261 1_565 S
O228 Co224 2.004 . S
O228 C233 1.259 . S
Co229 O230 2.061 . S
Co229 O235 2.052 . S
Co229 O237 2.143 . S
O230 Co229 2.061 . S
O230 C233 1.235 . S
C231 O234 1.238 . S
C231 O235 1.241 . S
C232 O225 1.247 . S
C232 O226 1.261 . S
C233 O228 1.259 . S
C233 O230 1.235 . S
O234 Co224 2.021 . S
O234 C231 1.238 . S
O235 Co229 2.052 . S
O235 C231 1.241 . S
O236 Co224 2.137 1_565 S
O236 C227 1.247 . S
O237 Co224 2.314 . S
O237 C227 1.261 1_545 S
O237 Co229 2.143 . S
Co238 O239 2.216 . S
Co238 O240 2.091 . S
Co238 O242 2.004 . S
Co238 O248 2.021 . S
Co238 O250 2.137 1_655 S
Co238 O251 2.244 . S
O239 Co238 2.216 . S
O239 C246 1.247 . S
O240 Co238 2.091 . S
O240 C246 1.261 . S
C241 O250 1.247 . S
C241 O251 1.272 1_455 S
O242 Co238 2.004 . S
O242 C247 1.259 . S
Co243 O244 2.061 . S
Co243 O249 2.052 . S
Co243 O251 2.135 . S
O244 Co243 2.061 . S
O244 C247 1.235 . S
C245 O248 1.238 . S
C245 O249 1.241 . S
C246 O239 1.247 . S
C246 O240 1.261 . S
C247 O242 1.259 . S
C247 O244 1.235 . S
O248 Co238 2.021 . S
O248 C245 1.238 . S
O249 Co243 2.052 . S
O249 C245 1.241 . S
O250 Co238 2.137 1_455 S
O250 C241 1.247 . S
O251 Co238 2.244 . S
O251 C241 1.272 1_655 S
O251 Co243 2.135 . S
H252 C271 0.949 . S
H253 C272 0.950 . S
H254 C274 0.950 . S
H255 C275 0.950 . S
H256 C277 0.950 . S
H257 C280 0.950 . S
H258 C281 0.950 . S
H259 C283 0.951 . S
H260 C284 0.949 . S
H261 C286 0.949 . S
H262 C287 0.950 . S
H263 C289 0.950 . S
H264 C290 0.950 . S
H265 C292 0.950 . S
H266 C295 0.950 . S
H267 C296 0.950 . S
H268 C298 0.951 . S
H269 C299 0.949 . S
C270 C271 1.376 . S
C270 C275 1.386 . S
C270 C276 1.483 . S
C271 H252 0.949 . S
C271 C270 1.376 . S
C271 C272 1.397 . S
C272 H253 0.950 . S
C272 C271 1.397 . S
C272 C273 1.391 . S
C273 C272 1.391 . S
C273 C274 1.405 . S
C274 H254 0.950 . S
C274 C273 1.405 . S
C274 C275 1.367 . S
C275 H255 0.950 . S
C275 C270 1.386 . S
C275 C274 1.367 . S
C276 C270 1.483 . S
C276 C277 1.382 . S
C276 C278 1.403 . S
C277 H256 0.950 . S
C277 C276 1.382 . S
C277 C293 1.411 . S
C278 C276 1.403 . S
C278 C279 1.489 . S
C278 C292 1.411 . S
C279 C278 1.489 . S
C279 C280 1.383 . S
C279 C284 1.382 . S
C280 H257 0.950 . S
C280 C279 1.383 . S
C280 C281 1.395 . S
C281 H258 0.950 . S
C281 C280 1.395 . S
C281 C282 1.288 . S
C282 C281 1.288 . S
C282 C283 1.392 . S
C283 H259 0.951 . S
C283 C282 1.392 . S
C283 C284 1.392 . S
C284 H260 0.949 . S
C284 C279 1.382 . S
C284 C283 1.392 . S
C285 C286 1.376 . S
C285 C290 1.386 . S
C285 C291 1.483 . S
C286 H261 0.949 . S
C286 C285 1.376 . S
C286 C287 1.397 . S
C287 H262 0.950 . S
C287 C286 1.397 . S
C287 C288 1.391 . S
C288 C287 1.391 . S
C288 C289 1.405 . S
C289 H263 0.950 . S
C289 C288 1.405 . S
C289 C290 1.367 . S
C290 H264 0.950 . S
C290 C285 1.386 . S
C290 C289 1.367 . S
C291 C285 1.483 . S
C291 C292 1.382 . S
C291 C293 1.403 . S
C292 H265 0.950 . S
C292 C278 1.411 . S
C292 C291 1.382 . S
C293 C277 1.411 . S
C293 C291 1.403 . S
C293 C294 1.489 . S
C294 C293 1.489 . S
C294 C295 1.383 . S
C294 C299 1.382 . S
C295 H266 0.950 . S
C295 C294 1.383 . S
C295 C296 1.395 . S
C296 H267 0.950 . S
C296 C295 1.395 . S
C296 C297 1.288 . S
C297 C296 1.288 . S
C297 C298 1.392 . S
C298 H268 0.951 . S
C298 C297 1.392 . S
C298 C299 1.392 . S
C299 H269 0.949 . S
C299 C294 1.382 . S
C299 C298 1.392 . S
H300 C319 0.949 . S
H301 C320 0.950 . S
H302 C322 0.950 . S
H303 C323 0.950 . S
H304 C325 0.950 . S
H305 C328 0.950 . S
H306 C329 0.950 . S
H307 C331 0.951 . S
H308 C332 0.949 . S
H309 C334 0.949 . S
H310 C335 0.950 . S
H311 C337 0.950 . S
H312 C338 0.950 . S
H313 C340 0.950 . S
H314 C343 0.950 . S
H315 C344 0.950 . S
H316 C346 0.951 . S
H317 C347 0.949 . S
C318 C319 1.376 . S
C318 C323 1.386 . S
C318 C324 1.483 . S
C319 H300 0.949 . S
C319 C318 1.376 . S
C319 C320 1.397 . S
C320 H301 0.950 . S
C320 C319 1.397 . S
C320 C321 1.391 . S
C321 C320 1.391 . S
C321 C322 1.405 . S
C322 H302 0.950 . S
C322 C321 1.405 . S
C322 C323 1.367 . S
C323 H303 0.950 . S
C323 C318 1.386 . S
C323 C322 1.367 . S
C324 C318 1.483 . S
C324 C325 1.382 . S
C324 C326 1.403 . S
C325 H304 0.950 . S
C325 C324 1.382 . S
C325 C341 1.411 . S
C326 C324 1.403 . S
C326 C327 1.489 . S
C326 C340 1.411 . S
C327 C326 1.489 . S
C327 C328 1.383 . S
C327 C332 1.382 . S
C328 H305 0.950 . S
C328 C327 1.383 . S
C328 C329 1.395 . S
C329 H306 0.950 . S
C329 C328 1.395 . S
C329 C330 1.288 . S
C330 C329 1.288 . S
C330 C331 1.392 . S
C331 H307 0.951 . S
C331 C330 1.392 . S
C331 C332 1.392 . S
C332 H308 0.949 . S
C332 C327 1.382 . S
C332 C331 1.392 . S
C333 C334 1.376 . S
C333 C338 1.386 . S
C333 C339 1.483 . S
C334 H309 0.949 . S
C334 C333 1.376 . S
C334 C335 1.397 . S
C335 H310 0.950 . S
C335 C334 1.397 . S
C335 C336 1.391 . S
C336 C335 1.391 . S
C336 C337 1.405 . S
C337 H311 0.950 . S
C337 C336 1.405 . S
C337 C338 1.367 . S
C338 H312 0.950 . S
C338 C333 1.386 . S
C338 C337 1.367 . S
C339 C333 1.483 . S
C339 C340 1.382 . S
C339 C341 1.403 . S
C340 H313 0.950 . S
C340 C326 1.411 . S
C340 C339 1.382 . S
C341 C325 1.411 . S
C341 C339 1.403 . S
C341 C342 1.489 . S
C342 C341 1.489 . S
C342 C343 1.383 . S
C342 C347 1.382 . S
C343 H314 0.950 . S
C343 C342 1.383 . S
C343 C344 1.395 . S
C344 H315 0.950 . S
C344 C343 1.395 . S
C344 C345 1.288 . S
C345 C344 1.288 . S
C345 C346 1.392 . S
C346 H316 0.951 . S
C346 C345 1.392 . S
C346 C347 1.392 . S
C347 H317 0.949 . S
C347 C342 1.382 . S
C347 C346 1.392 . S
H348 C367 0.949 . S
H349 C368 0.950 . S
H350 C370 0.950 . S
H351 C371 0.950 . S
H352 C373 0.950 . S
H353 C376 0.950 . S
H354 C377 0.950 . S
H355 C379 0.951 . S
H356 C380 0.949 . S
H357 C382 0.949 . S
H358 C383 0.950 . S
H359 C385 0.950 . S
H360 C386 0.950 . S
H361 C388 0.950 . S
H362 C391 0.950 . S
H363 C392 0.950 . S
H364 C394 0.951 . S
H365 C395 0.949 . S
C366 C367 1.376 . S
C366 C371 1.386 . S
C366 C372 1.483 . S
C367 H348 0.949 . S
C367 C366 1.376 . S
C367 C368 1.397 . S
C368 H349 0.950 . S
C368 C367 1.397 . S
C368 C369 1.391 . S
C369 C368 1.391 . S
C369 C370 1.405 . S
C370 H350 0.950 . S
C370 C369 1.405 . S
C370 C371 1.367 . S
C371 H351 0.950 . S
C371 C366 1.386 . S
C371 C370 1.367 . S
C372 C366 1.483 . S
C372 C373 1.382 . S
C372 C374 1.403 . S
C373 H352 0.950 . S
C373 C372 1.382 . S
C373 C389 1.411 . S
C374 C372 1.403 . S
C374 C375 1.489 . S
C374 C388 1.411 . S
C375 C374 1.489 . S
C375 C376 1.383 . S
C375 C380 1.382 . S
C376 H353 0.950 . S
C376 C375 1.383 . S
C376 C377 1.395 . S
C377 H354 0.950 . S
C377 C376 1.395 . S
C377 C378 1.288 . S
C378 C377 1.288 . S
C378 C379 1.392 . S
C379 H355 0.951 . S
C379 C378 1.392 . S
C379 C380 1.392 . S
C380 H356 0.949 . S
C380 C375 1.382 . S
C380 C379 1.392 . S
C381 C382 1.376 . S
C381 C386 1.386 . S
C381 C387 1.483 . S
C382 H357 0.949 . S
C382 C381 1.376 . S
C382 C383 1.397 . S
C383 H358 0.950 . S
C383 C382 1.397 . S
C383 C384 1.391 . S
C384 C383 1.391 . S
C384 C385 1.405 . S
C385 H359 0.950 . S
C385 C384 1.405 . S
C385 C386 1.367 . S
C386 H360 0.950 . S
C386 C381 1.386 . S
C386 C385 1.367 . S
C387 C381 1.483 . S
C387 C388 1.382 . S
C387 C389 1.403 . S
C388 H361 0.950 . S
C388 C374 1.411 . S
C388 C387 1.382 . S
C389 C373 1.411 . S
C389 C387 1.403 . S
C389 C390 1.489 . S
C390 C389 1.489 . S
C390 C391 1.383 . S
C390 C395 1.382 . S
C391 H362 0.950 . S
C391 C390 1.383 . S
C391 C392 1.395 . S
C392 H363 0.950 . S
C392 C391 1.395 . S
C392 C393 1.288 . S
C393 C392 1.288 . S
C393 C394 1.392 . S
C394 H364 0.951 . S
C394 C393 1.392 . S
C394 C395 1.392 . S
C395 H365 0.949 . S
C395 C390 1.382 . S
C395 C394 1.392 . S
H396 C415 0.949 . S
H397 C416 0.950 . S
H398 C418 0.950 . S
H399 C419 0.950 . S
H400 C421 0.950 . S
H401 C424 0.950 . S
H402 C425 0.950 . S
H403 C427 0.951 . S
H404 C428 0.949 . S
H405 C430 0.949 . S
H406 C431 0.950 . S
H407 C433 0.950 . S
H408 C434 0.950 . S
H409 C436 0.950 . S
H410 C439 0.950 . S
H411 C440 0.950 . S
H412 C442 0.951 . S
H413 C443 0.949 . S
C414 C415 1.376 . S
C414 C419 1.386 . S
C414 C420 1.483 . S
C415 H396 0.949 . S
C415 C414 1.376 . S
C415 C416 1.397 . S
C416 H397 0.950 . S
C416 C415 1.397 . S
C416 C417 1.391 . S
C417 C416 1.391 . S
C417 C418 1.405 . S
C418 H398 0.950 . S
C418 C417 1.405 . S
C418 C419 1.367 . S
C419 H399 0.950 . S
C419 C414 1.386 . S
C419 C418 1.367 . S
C420 C414 1.483 . S
C420 C421 1.382 . S
C420 C422 1.403 . S
C421 H400 0.950 . S
C421 C420 1.382 . S
C421 C437 1.411 . S
C422 C420 1.403 . S
C422 C423 1.489 . S
C422 C436 1.411 . S
C423 C422 1.489 . S
C423 C424 1.383 . S
C423 C428 1.382 . S
C424 H401 0.950 . S
C424 C423 1.383 . S
C424 C425 1.395 . S
C425 H402 0.950 . S
C425 C424 1.395 . S
C425 C426 1.288 . S
C426 C425 1.288 . S
C426 C427 1.392 . S
C427 H403 0.951 . S
C427 C426 1.392 . S
C427 C428 1.392 . S
C428 H404 0.949 . S
C428 C423 1.382 . S
C428 C427 1.392 . S
C429 C430 1.376 . S
C429 C434 1.386 . S
C429 C435 1.483 . S
C430 H405 0.949 . S
C430 C429 1.376 . S
C430 C431 1.397 . S
C431 H406 0.950 . S
C431 C430 1.397 . S
C431 C432 1.391 . S
C432 C431 1.391 . S
C432 C433 1.405 . S
C433 H407 0.950 . S
C433 C432 1.405 . S
C433 C434 1.367 . S
C434 H408 0.950 . S
C434 C429 1.386 . S
C434 C433 1.367 . S
C435 C429 1.483 . S
C435 C436 1.382 . S
C435 C437 1.403 . S
C436 H409 0.950 . S
C436 C422 1.411 . S
C436 C435 1.382 . S
C437 C421 1.411 . S
C437 C435 1.403 . S
C437 C438 1.489 . S
C438 C437 1.489 . S
C438 C439 1.383 . S
C438 C443 1.382 . S
C439 H410 0.950 . S
C439 C438 1.383 . S
C439 C440 1.395 . S
C440 H411 0.950 . S
C440 C439 1.395 . S
C440 C441 1.288 . S
C441 C440 1.288 . S
C441 C442 1.392 . S
C442 H412 0.951 . S
C442 C441 1.392 . S
C442 C443 1.392 . S
C443 H413 0.949 . S
C443 C438 1.382 . S
C443 C442 1.392 . S
H444 C463 0.949 . S
H445 C464 0.950 . S
H446 C466 0.950 . S
H447 C467 0.950 . S
H448 C469 0.950 . S
H449 C472 0.950 . S
H450 C473 0.950 . S
H451 C475 0.951 . S
H452 C476 0.949 . S
H453 C478 0.949 . S
H454 C479 0.950 . S
H455 C481 0.950 . S
H456 C482 0.950 . S
H457 C484 0.950 . S
H458 C487 0.950 . S
H459 C488 0.950 . S
H460 C490 0.951 . S
H461 C491 0.949 . S
C462 C463 1.376 . S
C462 C467 1.386 . S
C462 C468 1.483 . S
C463 H444 0.949 . S
C463 C462 1.376 . S
C463 C464 1.397 . S
C464 H445 0.950 . S
C464 C463 1.397 . S
C464 C465 1.391 . S
C465 C464 1.391 . S
C465 C466 1.405 . S
C466 H446 0.950 . S
C466 C465 1.405 . S
C466 C467 1.367 . S
C467 H447 0.950 . S
C467 C462 1.386 . S
C467 C466 1.367 . S
C468 C462 1.483 . S
C468 C469 1.382 . S
C468 C470 1.403 . S
C469 H448 0.950 . S
C469 C468 1.382 . S
C469 C485 1.411 . S
C470 C468 1.403 . S
C470 C471 1.489 . S
C470 C484 1.411 . S
C471 C470 1.489 . S
C471 C472 1.383 . S
C471 C476 1.382 . S
C472 H449 0.950 . S
C472 C471 1.383 . S
C472 C473 1.395 . S
C473 H450 0.950 . S
C473 C472 1.395 . S
C473 C474 1.288 . S
C474 C473 1.288 . S
C474 C475 1.392 . S
C475 H451 0.951 . S
C475 C474 1.392 . S
C475 C476 1.392 . S
C476 H452 0.949 . S
C476 C471 1.382 . S
C476 C475 1.392 . S
C477 C478 1.376 . S
C477 C482 1.386 . S
C477 C483 1.483 . S
C478 H453 0.949 . S
C478 C477 1.376 . S
C478 C479 1.397 . S
C479 H454 0.950 . S
C479 C478 1.397 . S
C479 C480 1.391 . S
C480 C479 1.391 . S
C480 C481 1.405 . S
C481 H455 0.950 . S
C481 C480 1.405 . S
C481 C482 1.367 . S
C482 H456 0.950 . S
C482 C477 1.386 . S
C482 C481 1.367 . S
C483 C477 1.483 . S
C483 C484 1.382 . S
C483 C485 1.403 . S
C484 H457 0.950 . S
C484 C470 1.411 . S
C484 C483 1.382 . S
C485 C469 1.411 . S
C485 C483 1.403 . S
C485 C486 1.489 . S
C486 C485 1.489 . S
C486 C487 1.383 . S
C486 C491 1.382 . S
C487 H458 0.950 . S
C487 C486 1.383 . S
C487 C488 1.395 . S
C488 H459 0.950 . S
C488 C487 1.395 . S
C488 C489 1.288 . S
C489 C488 1.288 . S
C489 C490 1.392 . S
C490 H460 0.951 . S
C490 C489 1.392 . S
C490 C491 1.392 . S
C491 H461 0.949 . S
C491 C486 1.382 . S
C491 C490 1.392 . S
H492 C511 0.949 . S
H493 C512 0.950 . S
H494 C514 0.950 . S
H495 C515 0.950 . S
H496 C517 0.950 . S
H497 C520 0.950 . S
H498 C521 0.950 . S
H499 C523 0.951 . S
H500 C524 0.949 . S
H501 C526 0.949 . S
H502 C527 0.950 . S
H503 C529 0.950 . S
H504 C530 0.950 . S
H505 C532 0.950 . S
H506 C535 0.950 . S
H507 C536 0.950 . S
H508 C538 0.951 . S
H509 C539 0.949 . S
C510 C511 1.376 . S
C510 C515 1.386 . S
C510 C516 1.483 . S
C511 H492 0.949 . S
C511 C510 1.376 . S
C511 C512 1.397 . S
C512 H493 0.950 . S
C512 C511 1.397 . S
C512 C513 1.391 . S
C513 C512 1.391 . S
C513 C514 1.405 . S
C514 H494 0.950 . S
C514 C513 1.405 . S
C514 C515 1.367 . S
C515 H495 0.950 . S
C515 C510 1.386 . S
C515 C514 1.367 . S
C516 C510 1.483 . S
C516 C517 1.382 . S
C516 C518 1.403 . S
C517 H496 0.950 . S
C517 C516 1.382 . S
C517 C533 1.411 . S
C518 C516 1.403 . S
C518 C519 1.489 . S
C518 C532 1.411 . S
C519 C518 1.489 . S
C519 C520 1.383 . S
C519 C524 1.382 . S
C520 H497 0.950 . S
C520 C519 1.383 . S
C520 C521 1.395 . S
C521 H498 0.950 . S
C521 C520 1.395 . S
C521 C522 1.288 . S
C522 C521 1.288 . S
C522 C523 1.392 . S
C523 H499 0.951 . S
C523 C522 1.392 . S
C523 C524 1.392 . S
C524 H500 0.949 . S
C524 C519 1.382 . S
C524 C523 1.392 . S
C525 C526 1.376 . S
C525 C530 1.386 . S
C525 C531 1.483 . S
C526 H501 0.949 . S
C526 C525 1.376 . S
C526 C527 1.397 . S
C527 H502 0.950 . S
C527 C526 1.397 . S
C527 C528 1.391 . S
C528 C527 1.391 . S
C528 C529 1.405 . S
C529 H503 0.950 . S
C529 C528 1.405 . S
C529 C530 1.367 . S
C530 H504 0.950 . S
C530 C525 1.386 . S
C530 C529 1.367 . S
C531 C525 1.483 . S
C531 C532 1.382 . S
C531 C533 1.403 . S
C532 H505 0.950 . S
C532 C518 1.411 . S
C532 C531 1.382 . S
C533 C517 1.411 . S
C533 C531 1.403 . S
C533 C534 1.489 . S
C534 C533 1.489 . S
C534 C535 1.383 . S
C534 C539 1.382 . S
C535 H506 0.950 . S
C535 C534 1.383 . S
C535 C536 1.395 . S
C536 H507 0.950 . S
C536 C535 1.395 . S
C536 C537 1.288 . S
C537 C536 1.288 . S
C537 C538 1.392 . S
C538 H508 0.951 . S
C538 C537 1.392 . S
C538 C539 1.392 . S
C539 H509 0.949 . S
C539 C534 1.382 . S
C539 C538 1.392 . S
H540 C559 0.949 . S
H541 C560 0.950 . S
H542 C562 0.950 . S
H543 C563 0.950 . S
H544 C565 0.950 . S
H545 C568 0.950 . S
H546 C569 0.950 . S
H547 C571 0.951 . S
H548 C572 0.949 . S
H549 C574 0.949 . S
H550 C575 0.950 . S
H551 C577 0.950 . S
H552 C578 0.950 . S
H553 C580 0.950 . S
H554 C583 0.950 . S
H555 C584 0.950 . S
H556 C586 0.951 . S
H557 C587 0.949 . S
C558 C559 1.376 . S
C558 C563 1.386 . S
C558 C564 1.483 . S
C559 H540 0.949 . S
C559 C558 1.376 . S
C559 C560 1.397 . S
C560 H541 0.950 . S
C560 C559 1.397 . S
C560 C561 1.391 . S
C561 C560 1.391 . S
C561 C562 1.405 . S
C562 H542 0.950 . S
C562 C561 1.405 . S
C562 C563 1.367 . S
C563 H543 0.950 . S
C563 C558 1.386 . S
C563 C562 1.367 . S
C564 C558 1.483 . S
C564 C565 1.382 . S
C564 C566 1.403 . S
C565 H544 0.950 . S
C565 C564 1.382 . S
C565 C581 1.411 . S
C566 C564 1.403 . S
C566 C567 1.489 . S
C566 C580 1.411 . S
C567 C566 1.489 . S
C567 C568 1.383 . S
C567 C572 1.382 . S
C568 H545 0.950 . S
C568 C567 1.383 . S
C568 C569 1.395 . S
C569 H546 0.950 . S
C569 C568 1.395 . S
C569 C570 1.288 . S
C570 C569 1.288 . S
C570 C571 1.392 . S
C571 H547 0.951 . S
C571 C570 1.392 . S
C571 C572 1.392 . S
C572 H548 0.949 . S
C572 C567 1.382 . S
C572 C571 1.392 . S
C573 C574 1.376 . S
C573 C578 1.386 . S
C573 C579 1.483 . S
C574 H549 0.949 . S
C574 C573 1.376 . S
C574 C575 1.397 . S
C575 H550 0.950 . S
C575 C574 1.397 . S
C575 C576 1.391 . S
C576 C575 1.391 . S
C576 C577 1.405 . S
C577 H551 0.950 . S
C577 C576 1.405 . S
C577 C578 1.367 . S
C578 H552 0.950 . S
C578 C573 1.386 . S
C578 C577 1.367 . S
C579 C573 1.483 . S
C579 C580 1.382 . S
C579 C581 1.403 . S
C580 H553 0.950 . S
C580 C566 1.411 . S
C580 C579 1.382 . S
C581 C565 1.411 . S
C581 C579 1.403 . S
C581 C582 1.489 . S
C582 C581 1.489 . S
C582 C583 1.383 . S
C582 C587 1.382 . S
C583 H554 0.950 . S
C583 C582 1.383 . S
C583 C584 1.395 . S
C584 H555 0.950 . S
C584 C583 1.395 . S
C584 C585 1.288 . S
C585 C584 1.288 . S
C585 C586 1.392 . S
C586 H556 0.951 . S
C586 C585 1.392 . S
C586 C587 1.392 . S
C587 H557 0.949 . S
C587 C582 1.382 . S
C587 C586 1.392 . S
H588 C607 0.949 . S
H589 C608 0.950 . S
H590 C610 0.950 . S
H591 C611 0.950 . S
H592 C613 0.950 . S
H593 C616 0.950 . S
H594 C617 0.950 . S
H595 C619 0.951 . S
H596 C620 0.949 . S
H597 C622 0.949 . S
H598 C623 0.950 . S
H599 C625 0.950 . S
H600 C626 0.950 . S
H601 C628 0.950 . S
H602 C631 0.950 . S
H603 C632 0.950 . S
H604 C634 0.951 . S
H605 C635 0.949 . S
C606 C607 1.376 . S
C606 C611 1.386 . S
C606 C612 1.483 . S
C607 H588 0.949 . S
C607 C606 1.376 . S
C607 C608 1.397 . S
C608 H589 0.950 . S
C608 C607 1.397 . S
C608 C609 1.391 . S
C609 C608 1.391 . S
C609 C610 1.405 . S
C610 H590 0.950 . S
C610 C609 1.405 . S
C610 C611 1.367 . S
C611 H591 0.950 . S
C611 C606 1.386 . S
C611 C610 1.367 . S
C612 C606 1.483 . S
C612 C613 1.382 . S
C612 C614 1.403 . S
C613 H592 0.950 . S
C613 C612 1.382 . S
C613 C629 1.411 . S
C614 C612 1.403 . S
C614 C615 1.489 . S
C614 C628 1.411 . S
C615 C614 1.489 . S
C615 C616 1.383 . S
C615 C620 1.382 . S
C616 H593 0.950 . S
C616 C615 1.383 . S
C616 C617 1.395 . S
C617 H594 0.950 . S
C617 C616 1.395 . S
C617 C618 1.288 . S
C618 C617 1.288 . S
C618 C619 1.392 . S
C619 H595 0.951 . S
C619 C618 1.392 . S
C619 C620 1.392 . S
C620 H596 0.949 . S
C620 C615 1.382 . S
C620 C619 1.392 . S
C621 C622 1.376 . S
C621 C626 1.386 . S
C621 C627 1.483 . S
C622 H597 0.949 . S
C622 C621 1.376 . S
C622 C623 1.397 . S
C623 H598 0.950 . S
C623 C622 1.397 . S
C623 C624 1.391 . S
C624 C623 1.391 . S
C624 C625 1.405 . S
C625 H599 0.950 . S
C625 C624 1.405 . S
C625 C626 1.367 . S
C626 H600 0.950 . S
C626 C621 1.386 . S
C626 C625 1.367 . S
C627 C621 1.483 . S
C627 C628 1.382 . S
C627 C629 1.403 . S
C628 H601 0.950 . S
C628 C614 1.411 . S
C628 C627 1.382 . S
C629 C613 1.411 . S
C629 C627 1.403 . S
C629 C630 1.489 . S
C630 C629 1.489 . S
C630 C631 1.383 . S
C630 C635 1.382 . S
C631 H602 0.950 . S
C631 C630 1.383 . S
C631 C632 1.395 . S
C632 H603 0.950 . S
C632 C631 1.395 . S
C632 C633 1.288 . S
C633 C632 1.288 . S
C633 C634 1.392 . S
C634 H604 0.951 . S
C634 C633 1.392 . S
C634 C635 1.392 . S
C635 H605 0.949 . S
C635 C630 1.382 . S
C635 C634 1.392 . S
H636 C655 0.949 . S
H637 C656 0.950 . S
H638 C658 0.950 . S
H639 C659 0.950 . S
H640 C661 0.950 . S
H641 C664 0.950 . S
H642 C665 0.950 . S
H643 C667 0.951 . S
H644 C668 0.949 . S
H645 C670 0.949 . S
H646 C671 0.950 . S
H647 C673 0.950 . S
H648 C674 0.950 . S
H649 C676 0.950 . S
H650 C679 0.950 . S
H651 C680 0.950 . S
H652 C682 0.951 . S
H653 C683 0.949 . S
C654 C655 1.376 . S
C654 C659 1.386 . S
C654 C660 1.483 . S
C655 H636 0.949 . S
C655 C654 1.376 . S
C655 C656 1.397 . S
C656 H637 0.950 . S
C656 C655 1.397 . S
C656 C657 1.391 . S
C657 C656 1.391 . S
C657 C658 1.405 . S
C658 H638 0.950 . S
C658 C657 1.405 . S
C658 C659 1.367 . S
C659 H639 0.950 . S
C659 C654 1.386 . S
C659 C658 1.367 . S
C660 C654 1.483 . S
C660 C661 1.382 . S
C660 C662 1.403 . S
C661 H640 0.950 . S
C661 C660 1.382 . S
C661 C677 1.411 . S
C662 C660 1.403 . S
C662 C663 1.489 . S
C662 C676 1.411 . S
C663 C662 1.489 . S
C663 C664 1.383 . S
C663 C668 1.382 . S
C664 H641 0.950 . S
C664 C663 1.383 . S
C664 C665 1.395 . S
C665 H642 0.950 . S
C665 C664 1.395 . S
C665 C666 1.288 . S
C666 C665 1.288 . S
C666 C667 1.392 . S
C667 H643 0.951 . S
C667 C666 1.392 . S
C667 C668 1.392 . S
C668 H644 0.949 . S
C668 C663 1.382 . S
C668 C667 1.392 . S
C669 C670 1.376 . S
C669 C674 1.386 . S
C669 C675 1.483 . S
C670 H645 0.949 . S
C670 C669 1.376 . S
C670 C671 1.397 . S
C671 H646 0.950 . S
C671 C670 1.397 . S
C671 C672 1.391 . S
C672 C671 1.391 . S
C672 C673 1.405 . S
C673 H647 0.950 . S
C673 C672 1.405 . S
C673 C674 1.367 . S
C674 H648 0.950 . S
C674 C669 1.386 . S
C674 C673 1.367 . S
C675 C669 1.483 . S
C675 C676 1.382 . S
C675 C677 1.403 . S
C676 H649 0.950 . S
C676 C662 1.411 . S
C676 C675 1.382 . S
C677 C661 1.411 . S
C677 C675 1.403 . S
C677 C678 1.489 . S
C678 C677 1.489 . S
C678 C679 1.383 . S
C678 C683 1.382 . S
C679 H650 0.950 . S
C679 C678 1.383 . S
C679 C680 1.395 . S
C680 H651 0.950 . S
C680 C679 1.395 . S
C680 C681 1.288 . S
C681 C680 1.288 . S
C681 C682 1.392 . S
C682 H652 0.951 . S
C682 C681 1.392 . S
C682 C683 1.392 . S
C683 H653 0.949 . S
C683 C678 1.382 . S
C683 C682 1.392 . S
H684 C703 0.949 . S
H685 C704 0.950 . S
H686 C706 0.950 . S
H687 C707 0.950 . S
H688 C709 0.950 . S
H689 C712 0.950 . S
H690 C713 0.950 . S
H691 C715 0.951 . S
H692 C716 0.949 . S
H693 C718 0.949 . S
H694 C719 0.950 . S
H695 C721 0.950 . S
H696 C722 0.950 . S
H697 C724 0.950 . S
H698 C727 0.950 . S
H699 C728 0.950 . S
H700 C730 0.951 . S
H701 C731 0.949 . S
C702 C703 1.376 . S
C702 C707 1.386 1_655 S
C702 C708 1.483 . S
C703 H684 0.949 . S
C703 C702 1.376 . S
C703 C704 1.397 . S
C704 H685 0.950 . S
C704 C703 1.397 . S
C704 C705 1.391 . S
C705 C704 1.391 . S
C705 C706 1.405 1_655 S
C706 H686 0.950 . S
C706 C705 1.405 1_455 S
C706 C707 1.367 . S
C707 H687 0.950 . S
C707 C702 1.386 1_455 S
C707 C706 1.367 . S
C708 C702 1.483 . S
C708 C709 1.382 . S
C708 C710 1.403 1_655 S
C709 H688 0.950 . S
C709 C708 1.382 . S
C709 C725 1.411 . S
C710 C708 1.403 1_455 S
C710 C711 1.489 . S
C710 C724 1.411 . S
C711 C710 1.489 . S
C711 C712 1.383 1_455 S
C711 C716 1.382 . S
C712 H689 0.950 . S
C712 C711 1.383 1_655 S
C712 C713 1.395 . S
C713 H690 0.950 . S
C713 C712 1.395 . S
C713 C714 1.288 1_655 S
C714 C713 1.288 1_455 S
C714 C715 1.392 . S
C715 H691 0.951 . S
C715 C714 1.392 . S
C715 C716 1.392 . S
C716 H692 0.949 . S
C716 C711 1.382 . S
C716 C715 1.392 . S
C717 C718 1.376 . S
C717 C722 1.386 1_455 S
C717 C723 1.483 . S
C718 H693 0.949 . S
C718 C717 1.376 . S
C718 C719 1.397 . S
C719 H694 0.950 . S
C719 C718 1.397 . S
C719 C720 1.391 . S
C720 C719 1.391 . S
C720 C721 1.405 1_455 S
C721 H695 0.950 . S
C721 C720 1.405 1_655 S
C721 C722 1.367 . S
C722 H696 0.950 . S
C722 C717 1.386 1_655 S
C722 C721 1.367 . S
C723 C717 1.483 . S
C723 C724 1.382 . S
C723 C725 1.403 1_455 S
C724 H697 0.950 . S
C724 C710 1.411 . S
C724 C723 1.382 . S
C725 C709 1.411 . S
C725 C723 1.403 1_655 S
C725 C726 1.489 . S
C726 C725 1.489 . S
C726 C727 1.383 1_655 S
C726 C731 1.382 . S
C727 H698 0.950 . S
C727 C726 1.383 1_455 S
C727 C728 1.395 . S
C728 H699 0.950 . S
C728 C727 1.395 . S
C728 C729 1.288 1_455 S
C729 C728 1.288 1_655 S
C729 C730 1.392 . S
C730 H700 0.951 . S
C730 C729 1.392 . S
C730 C731 1.392 . S
C731 H701 0.949 . S
C731 C726 1.382 . S
C731 C730 1.392 . S
H732 C751 0.949 . S
H733 C752 0.950 . S
H734 C754 0.950 . S
H735 C755 0.950 . S
H736 C757 0.950 . S
H737 C760 0.950 . S
H738 C761 0.950 . S
H739 C763 0.951 . S
H740 C764 0.949 . S
H741 C766 0.949 . S
H742 C767 0.950 . S
H743 C769 0.950 . S
H744 C770 0.950 . S
H745 C772 0.950 . S
H746 C775 0.950 . S
H747 C776 0.950 . S
H748 C778 0.951 . S
H749 C779 0.949 . S
C750 C751 1.376 . S
C750 C755 1.386 . S
C750 C756 1.483 . S
C751 H732 0.949 . S
C751 C750 1.376 . S
C751 C752 1.397 . S
C752 H733 0.950 . S
C752 C751 1.397 . S
C752 C753 1.391 . S
C753 C752 1.391 . S
C753 C754 1.405 . S
C754 H734 0.950 . S
C754 C753 1.405 . S
C754 C755 1.367 . S
C755 H735 0.950 . S
C755 C750 1.386 . S
C755 C754 1.367 . S
C756 C750 1.483 . S
C756 C757 1.382 . S
C756 C758 1.403 . S
C757 H736 0.950 . S
C757 C756 1.382 . S
C757 C773 1.411 . S
C758 C756 1.403 . S
C758 C759 1.489 . S
C758 C772 1.411 . S
C759 C758 1.489 . S
C759 C760 1.383 . S
C759 C764 1.382 . S
C760 H737 0.950 . S
C760 C759 1.383 . S
C760 C761 1.395 . S
C761 H738 0.950 . S
C761 C760 1.395 . S
C761 C762 1.288 . S
C762 C761 1.288 . S
C762 C763 1.392 . S
C763 H739 0.951 . S
C763 C762 1.392 . S
C763 C764 1.392 . S
C764 H740 0.949 . S
C764 C759 1.382 . S
C764 C763 1.392 . S
C765 C766 1.376 . S
C765 C770 1.386 . S
C765 C771 1.483 . S
C766 H741 0.949 . S
C766 C765 1.376 . S
C766 C767 1.397 . S
C767 H742 0.950 . S
C767 C766 1.397 . S
C767 C768 1.391 . S
C768 C767 1.391 . S
C768 C769 1.405 . S
C769 H743 0.950 . S
C769 C768 1.405 . S
C769 C770 1.367 . S
C770 H744 0.950 . S
C770 C765 1.386 . S
C770 C769 1.367 . S
C771 C765 1.483 . S
C771 C772 1.382 . S
C771 C773 1.403 . S
C772 H745 0.950 . S
C772 C758 1.411 . S
C772 C771 1.382 . S
C773 C757 1.411 . S
C773 C771 1.403 . S
C773 C774 1.489 . S
C774 C773 1.489 . S
C774 C775 1.383 . S
C774 C779 1.382 . S
C775 H746 0.950 . S
C775 C774 1.383 . S
C775 C776 1.395 . S
C776 H747 0.950 . S
C776 C775 1.395 . S
C776 C777 1.288 . S
C777 C776 1.288 . S
C777 C778 1.392 . S
C778 H748 0.951 . S
C778 C777 1.392 . S
C778 C779 1.392 . S
C779 H749 0.949 . S
C779 C774 1.382 . S
C779 C778 1.392 . S
H780 C799 0.949 . S
H781 C800 0.950 . S
H782 C802 0.950 . S
H783 C803 0.950 . S
H784 C805 0.950 . S
H785 C808 0.950 . S
H786 C809 0.950 . S
H787 C811 0.951 . S
H788 C812 0.949 . S
H789 C814 0.949 . S
H790 C815 0.950 . S
H791 C817 0.950 . S
H792 C818 0.950 . S
H793 C820 0.950 . S
H794 C823 0.950 . S
H795 C824 0.950 . S
H796 C826 0.951 . S
H797 C827 0.949 . S
C798 C799 1.376 . S
C798 C803 1.386 1_545 S
C798 C804 1.483 . S
C799 H780 0.949 . S
C799 C798 1.376 . S
C799 C800 1.397 . S
C800 H781 0.950 . S
C800 C799 1.397 . S
C800 C801 1.391 . S
C801 C800 1.391 . S
C801 C802 1.405 1_545 S
C802 H782 0.950 . S
C802 C801 1.405 1_565 S
C802 C803 1.367 . S
C803 H783 0.950 . S
C803 C798 1.386 1_565 S
C803 C802 1.367 . S
C804 C798 1.483 . S
C804 C805 1.382 . S
C804 C806 1.403 1_545 S
C805 H784 0.950 . S
C805 C804 1.382 . S
C805 C821 1.411 . S
C806 C804 1.403 1_565 S
C806 C807 1.489 . S
C806 C820 1.411 . S
C807 C806 1.489 . S
C807 C808 1.383 1_565 S
C807 C812 1.382 . S
C808 H785 0.950 . S
C808 C807 1.383 1_545 S
C808 C809 1.395 . S
C809 H786 0.950 . S
C809 C808 1.395 . S
C809 C810 1.288 1_545 S
C810 C809 1.288 1_565 S
C810 C811 1.392 . S
C811 H787 0.951 . S
C811 C810 1.392 . S
C811 C812 1.392 . S
C812 H788 0.949 . S
C812 C807 1.382 . S
C812 C811 1.392 . S
C813 C814 1.376 . S
C813 C818 1.386 1_565 S
C813 C819 1.483 . S
C814 H789 0.949 . S
C814 C813 1.376 . S
C814 C815 1.397 . S
C815 H790 0.950 . S
C815 C814 1.397 . S
C815 C816 1.391 . S
C816 C815 1.391 . S
C816 C817 1.405 1_565 S
C817 H791 0.950 . S
C817 C816 1.405 1_545 S
C817 C818 1.367 . S
C818 H792 0.950 . S
C818 C813 1.386 1_545 S
C818 C817 1.367 . S
C819 C813 1.483 . S
C819 C820 1.382 . S
C819 C821 1.403 1_565 S
C820 H793 0.950 . S
C820 C806 1.411 . S
C820 C819 1.382 . S
C821 C805 1.411 . S
C821 C819 1.403 1_545 S
C821 C822 1.489 . S
C822 C821 1.489 . S
C822 C823 1.383 1_545 S
C822 C827 1.382 . S
C823 H794 0.950 . S
C823 C822 1.383 1_565 S
C823 C824 1.395 . S
C824 H795 0.950 . S
C824 C823 1.395 . S
C824 C825 1.288 1_565 S
C825 C824 1.288 1_545 S
C825 C826 1.392 . S
C826 H796 0.951 . S
C826 C825 1.392 . S
C826 C827 1.392 . S
C827 H797 0.949 . S
C827 C822 1.382 . S
C827 C826 1.392 . S
H828 C847 0.949 . S
H829 C848 0.950 . S
H830 C850 0.950 . S
H831 C851 0.950 . S
H832 C853 0.950 . S
H833 C856 0.950 . S
H834 C857 0.950 . S
H835 C859 0.951 . S
H836 C860 0.949 . S
H837 C862 0.949 . S
H838 C863 0.950 . S
H839 C865 0.950 . S
H840 C866 0.950 . S
H841 C868 0.950 . S
H842 C871 0.950 . S
H843 C872 0.950 . S
H844 C874 0.951 . S
H845 C875 0.949 . S
C846 C847 1.397 . S
C846 C851 1.376 1_545 S
C846 C852 1.501 . S
C847 H828 0.949 . S
C847 C846 1.397 . S
C847 C848 1.397 . S
C848 H829 0.950 . S
C848 C847 1.397 . S
C848 C849 1.391 1_545 S
C849 C848 1.391 1_565 S
C849 C850 1.405 . S
C850 H830 0.950 . S
C850 C849 1.405 . S
C850 C851 1.367 . S
C851 H831 0.950 . S
C851 C846 1.376 1_565 S
C851 C850 1.367 . S
C852 C846 1.501 . S
C852 C853 1.353 . S
C852 C854 1.400 1_545 S
C853 H832 0.950 . S
C853 C852 1.353 . S
C853 C869 1.442 . S
C854 C852 1.400 1_565 S
C854 C855 1.481 . S
C854 C868 1.433 . S
C855 C854 1.481 . S
C855 C856 1.358 1_565 S
C855 C860 1.394 . S
C856 H833 0.950 . S
C856 C855 1.358 1_545 S
C856 C857 1.395 . S
C857 H834 0.950 . S
C857 C856 1.395 . S
C857 C858 1.288 . S
C858 C857 1.288 . S
C858 C859 1.392 1_545 S
C859 H835 0.951 . S
C859 C858 1.392 1_565 S
C859 C860 1.392 . S
C860 H836 0.949 . S
C860 C855 1.394 . S
C860 C859 1.392 . S
C861 C862 1.384 . S
C861 C866 1.382 1_565 S
C861 C867 1.501 . S
C862 H837 0.949 . S
C862 C861 1.384 . S
C862 C863 1.397 . S
C863 H838 0.950 . S
C863 C862 1.397 . S
C863 C864 1.391 1_565 S
C864 C863 1.391 1_545 S
C864 C865 1.405 . S
C865 H839 0.950 . S
C865 C864 1.405 . S
C865 C866 1.367 . S
C866 H840 0.950 . S
C866 C861 1.382 1_545 S
C866 C865 1.367 . S
C867 C861 1.501 . S
C867 C868 1.360 . S
C867 C869 1.400 1_565 S
C868 H841 0.950 . S
C868 C854 1.433 . S
C868 C867 1.360 . S
C869 C853 1.442 . S
C869 C867 1.400 1_545 S
C869 C870 1.481 . S
C870 C869 1.481 . S
C870 C871 1.341 1_545 S
C870 C875 1.404 . S
C871 H842 0.950 . S
C871 C870 1.341 1_565 S
C871 C872 1.395 . S
C872 H843 0.950 . S
C872 C871 1.395 . S
C872 C873 1.288 . S
C873 C872 1.288 . S
C873 C874 1.392 1_565 S
C874 H844 0.951 . S
C874 C873 1.392 1_545 S
C874 C875 1.392 . S
C875 H845 0.949 . S
C875 C870 1.404 . S
C875 C874 1.392 . S
H876 C895 0.949 . S
H877 C896 0.950 . S
H878 C898 0.950 . S
H879 C899 0.950 . S
H880 C901 0.950 . S
H881 C904 0.950 . S
H882 C905 0.950 . S
H883 C907 0.951 . S
H884 C908 0.949 . S
H885 C910 0.949 . S
H886 C911 0.950 . S
H887 C913 0.950 . S
H888 C914 0.950 . S
H889 C916 0.950 . S
H890 C919 0.950 . S
H891 C920 0.950 . S
H892 C922 0.951 . S
H893 C923 0.949 . S
C894 C895 1.376 . S
C894 C899 1.386 1_455 S
C894 C900 1.483 . S
C895 H876 0.949 . S
C895 C894 1.376 . S
C895 C896 1.397 . S
C896 H877 0.950 . S
C896 C895 1.397 . S
C896 C897 1.391 . S
C897 C896 1.391 . S
C897 C898 1.405 1_455 S
C898 H878 0.950 . S
C898 C897 1.405 1_655 S
C898 C899 1.367 . S
C899 H879 0.950 . S
C899 C894 1.386 1_655 S
C899 C898 1.367 . S
C900 C894 1.483 . S
C900 C901 1.382 . S
C900 C902 1.403 1_455 S
C901 H880 0.950 . S
C901 C900 1.382 . S
C901 C917 1.411 . S
C902 C900 1.403 1_655 S
C902 C903 1.489 . S
C902 C916 1.411 . S
C903 C902 1.489 . S
C903 C904 1.383 1_655 S
C903 C908 1.382 . S
C904 H881 0.950 . S
C904 C903 1.383 1_455 S
C904 C905 1.395 . S
C905 H882 0.950 . S
C905 C904 1.395 . S
C905 C906 1.288 1_455 S
C906 C905 1.288 1_655 S
C906 C907 1.392 . S
C907 H883 0.951 . S
C907 C906 1.392 . S
C907 C908 1.392 . S
C908 H884 0.949 . S
C908 C903 1.382 . S
C908 C907 1.392 . S
C909 C910 1.376 . S
C909 C914 1.386 1_655 S
C909 C915 1.483 . S
C910 H885 0.949 . S
C910 C909 1.376 . S
C910 C911 1.397 . S
C911 H886 0.950 . S
C911 C910 1.397 . S
C911 C912 1.391 . S
C912 C911 1.391 . S
C912 C913 1.405 1_655 S
C913 H887 0.950 . S
C913 C912 1.405 1_455 S
C913 C914 1.367 . S
C914 H888 0.950 . S
C914 C909 1.386 1_455 S
C914 C913 1.367 . S
C915 C909 1.483 . S
C915 C916 1.382 . S
C915 C917 1.403 1_655 S
C916 H889 0.950 . S
C916 C902 1.411 . S
C916 C915 1.382 . S
C917 C901 1.411 . S
C917 C915 1.403 1_455 S
C917 C918 1.489 . S
C918 C917 1.489 . S
C918 C919 1.383 1_455 S
C918 C923 1.382 . S
C919 H890 0.950 . S
C919 C918 1.383 1_655 S
C919 C920 1.395 . S
C920 H891 0.950 . S
C920 C919 1.395 . S
C920 C921 1.288 1_655 S
C921 C920 1.288 1_455 S
C921 C922 1.392 . S
C922 H892 0.951 . S
C922 C921 1.392 . S
C922 C923 1.392 . S
C923 H893 0.949 . S
C923 C918 1.382 . S
C923 C922 1.392 . S
H924 C943 0.949 . S
H925 C944 0.950 . S
H926 C946 0.950 . S
H927 C947 0.950 . S
H928 C949 0.950 . S
H929 C952 0.950 . S
H930 C953 0.950 . S
H931 C955 0.951 . S
H932 C956 0.949 . S
H933 C958 0.949 . S
H934 C959 0.950 . S
H935 C961 0.950 . S
H936 C962 0.950 . S
H937 C964 0.950 . S
H938 C967 0.950 . S
H939 C968 0.950 . S
H940 C970 0.951 . S
H941 C971 0.949 . S
C942 C943 1.376 . S
C942 C947 1.386 . S
C942 C948 1.483 . S
C943 H924 0.949 . S
C943 C942 1.376 . S
C943 C944 1.397 . S
C944 H925 0.950 . S
C944 C943 1.397 . S
C944 C945 1.391 . S
C945 C944 1.391 . S
C945 C946 1.405 . S
C946 H926 0.950 . S
C946 C945 1.405 . S
C946 C947 1.367 . S
C947 H927 0.950 . S
C947 C942 1.386 . S
C947 C946 1.367 . S
C948 C942 1.483 . S
C948 C949 1.382 . S
C948 C950 1.403 . S
C949 H928 0.950 . S
C949 C948 1.382 . S
C949 C965 1.411 . S
C950 C948 1.403 . S
C950 C951 1.489 . S
C950 C964 1.411 . S
C951 C950 1.489 . S
C951 C952 1.383 . S
C951 C956 1.382 . S
C952 H929 0.950 . S
C952 C951 1.383 . S
C952 C953 1.395 . S
C953 H930 0.950 . S
C953 C952 1.395 . S
C953 C954 1.288 . S
C954 C953 1.288 . S
C954 C955 1.392 . S
C955 H931 0.951 . S
C955 C954 1.392 . S
C955 C956 1.392 . S
C956 H932 0.949 . S
C956 C951 1.382 . S
C956 C955 1.392 . S
C957 C958 1.376 . S
C957 C962 1.386 . S
C957 C963 1.483 . S
C958 H933 0.949 . S
C958 C957 1.376 . S
C958 C959 1.397 . S
C959 H934 0.950 . S
C959 C958 1.397 . S
C959 C960 1.391 . S
C960 C959 1.391 . S
C960 C961 1.405 . S
C961 H935 0.950 . S
C961 C960 1.405 . S
C961 C962 1.367 . S
C962 H936 0.950 . S
C962 C957 1.386 . S
C962 C961 1.367 . S
C963 C957 1.483 . S
C963 C964 1.382 . S
C963 C965 1.403 . S
C964 H937 0.950 . S
C964 C950 1.411 . S
C964 C963 1.382 . S
C965 C949 1.411 . S
C965 C963 1.403 . S
C965 C966 1.489 . S
C966 C965 1.489 . S
C966 C967 1.383 . S
C966 C971 1.382 . S
C967 H938 0.950 . S
C967 C966 1.383 . S
C967 C968 1.395 . S
C968 H939 0.950 . S
C968 C967 1.395 . S
C968 C969 1.288 . S
C969 C968 1.288 . S
C969 C970 1.392 . S
C970 H940 0.951 . S
C970 C969 1.392 . S
C970 C971 1.392 . S
C971 H941 0.949 . S
C971 C966 1.382 . S
C971 C970 1.392 . S
H972 C991 0.949 . S
H973 C992 0.950 . S
H974 C994 0.950 . S
H975 C995 0.950 . S
H976 C997 0.950 . S
H977 C1000 0.950 . S
H978 C1001 0.950 . S
H979 C1003 0.951 . S
H980 C1004 0.949 . S
H981 C1006 0.949 . S
H982 C1007 0.950 . S
H983 C1009 0.950 . S
H984 C1010 0.950 . S
H985 C1012 0.950 . S
H986 C1015 0.950 . S
H987 C1016 0.950 . S
H988 C1018 0.951 . S
H989 C1019 0.949 . S
C990 C991 1.376 . S
C990 C995 1.386 . S
C990 C996 1.483 . S
C991 H972 0.949 . S
C991 C990 1.376 . S
C991 C992 1.397 . S
C992 H973 0.950 . S
C992 C991 1.397 . S
C992 C993 1.391 . S
C993 C992 1.391 . S
C993 C994 1.405 . S
C994 H974 0.950 . S
C994 C993 1.405 . S
C994 C995 1.367 . S
C995 H975 0.950 . S
C995 C990 1.386 . S
C995 C994 1.367 . S
C996 C990 1.483 . S
C996 C997 1.382 . S
C996 C998 1.403 . S
C997 H976 0.950 . S
C997 C996 1.382 . S
C997 C1013 1.411 . S
C998 C996 1.403 . S
C998 C999 1.489 . S
C998 C1012 1.411 . S
C999 C998 1.489 . S
C999 C1000 1.383 . S
C999 C1004 1.382 . S
C1000 H977 0.950 . S
C1000 C999 1.383 . S
C1000 C1001 1.395 . S
C1001 H978 0.950 . S
C1001 C1000 1.395 . S
C1001 C1002 1.288 . S
C1002 C1001 1.288 . S
C1002 C1003 1.392 . S
C1003 H979 0.951 . S
C1003 C1002 1.392 . S
C1003 C1004 1.392 . S
C1004 H980 0.949 . S
C1004 C999 1.382 . S
C1004 C1003 1.392 . S
C1005 C1006 1.376 . S
C1005 C1010 1.386 . S
C1005 C1011 1.483 . S
C1006 H981 0.949 . S
C1006 C1005 1.376 . S
C1006 C1007 1.397 . S
C1007 H982 0.950 . S
C1007 C1006 1.397 . S
C1007 C1008 1.391 . S
C1008 C1007 1.391 . S
C1008 C1009 1.405 . S
C1009 H983 0.950 . S
C1009 C1008 1.405 . S
C1009 C1010 1.367 . S
C1010 H984 0.950 . S
C1010 C1005 1.386 . S
C1010 C1009 1.367 . S
C1011 C1005 1.483 . S
C1011 C1012 1.382 . S
C1011 C1013 1.403 . S
C1012 H985 0.950 . S
C1012 C998 1.411 . S
C1012 C1011 1.382 . S
C1013 C997 1.411 . S
C1013 C1011 1.403 . S
C1013 C1014 1.489 . S
C1014 C1013 1.489 . S
C1014 C1015 1.383 . S
C1014 C1019 1.382 . S
C1015 H986 0.950 . S
C1015 C1014 1.383 . S
C1015 C1016 1.395 . S
C1016 H987 0.950 . S
C1016 C1015 1.395 . S
C1016 C1017 1.288 . S
C1017 C1016 1.288 . S
C1017 C1018 1.392 . S
C1018 H988 0.951 . S
C1018 C1017 1.392 . S
C1018 C1019 1.392 . S
C1019 H989 0.949 . S
C1019 C1014 1.382 . S
C1019 C1018 1.392 . S
H1020 C1039 0.949 . S
H1021 C1040 0.950 . S
H1022 C1042 0.950 . S
H1023 C1043 0.950 . S
H1024 C1045 0.950 . S
H1025 C1048 0.950 . S
H1026 C1049 0.950 . S
H1027 C1051 0.951 . S
H1028 C1052 0.949 . S
H1029 C1054 0.949 . S
H1030 C1055 0.950 . S
H1031 C1057 0.950 . S
H1032 C1058 0.950 . S
H1033 C1060 0.950 . S
H1034 C1063 0.950 . S
H1035 C1064 0.950 . S
H1036 C1066 0.951 . S
H1037 C1067 0.949 . S
C1038 C1039 1.376 . S
C1038 C1043 1.386 . S
C1038 C1044 1.483 . S
C1039 H1020 0.949 . S
C1039 C1038 1.376 . S
C1039 C1040 1.397 . S
C1040 H1021 0.950 . S
C1040 C1039 1.397 . S
C1040 C1041 1.391 . S
C1041 C1040 1.391 . S
C1041 C1042 1.405 . S
C1042 H1022 0.950 . S
C1042 C1041 1.405 . S
C1042 C1043 1.367 . S
C1043 H1023 0.950 . S
C1043 C1038 1.386 . S
C1043 C1042 1.367 . S
C1044 C1038 1.483 . S
C1044 C1045 1.382 . S
C1044 C1046 1.403 . S
C1045 H1024 0.950 . S
C1045 C1044 1.382 . S
C1045 C1061 1.411 . S
C1046 C1044 1.403 . S
C1046 C1047 1.489 . S
C1046 C1060 1.411 . S
C1047 C1046 1.489 . S
C1047 C1048 1.383 . S
C1047 C1052 1.382 . S
C1048 H1025 0.950 . S
C1048 C1047 1.383 . S
C1048 C1049 1.395 . S
C1049 H1026 0.950 . S
C1049 C1048 1.395 . S
C1049 C1050 1.288 . S
C1050 C1049 1.288 . S
C1050 C1051 1.392 . S
C1051 H1027 0.951 . S
C1051 C1050 1.392 . S
C1051 C1052 1.392 . S
C1052 H1028 0.949 . S
C1052 C1047 1.382 . S
C1052 C1051 1.392 . S
C1053 C1054 1.376 . S
C1053 C1058 1.386 . S
C1053 C1059 1.483 . S
C1054 H1029 0.949 . S
C1054 C1053 1.376 . S
C1054 C1055 1.397 . S
C1055 H1030 0.950 . S
C1055 C1054 1.397 . S
C1055 C1056 1.391 . S
C1056 C1055 1.391 . S
C1056 C1057 1.405 . S
C1057 H1031 0.950 . S
C1057 C1056 1.405 . S
C1057 C1058 1.367 . S
C1058 H1032 0.950 . S
C1058 C1053 1.386 . S
C1058 C1057 1.367 . S
C1059 C1053 1.483 . S
C1059 C1060 1.382 . S
C1059 C1061 1.403 . S
C1060 H1033 0.950 . S
C1060 C1046 1.411 . S
C1060 C1059 1.382 . S
C1061 C1045 1.411 . S
C1061 C1059 1.403 . S
C1061 C1062 1.489 . S
C1062 C1061 1.489 . S
C1062 C1063 1.383 . S
C1062 C1067 1.382 . S
C1063 H1034 0.950 . S
C1063 C1062 1.383 . S
C1063 C1064 1.395 . S
C1064 H1035 0.950 . S
C1064 C1063 1.395 . S
C1064 C1065 1.288 . S
C1065 C1064 1.288 . S
C1065 C1066 1.392 . S
C1066 H1036 0.951 . S
C1066 C1065 1.392 . S
C1066 C1067 1.392 . S
C1067 H1037 0.949 . S
C1067 C1062 1.382 . S
C1067 C1066 1.392 . S
H1068 C1087 0.949 . S
H1069 C1088 0.950 . S
H1070 C1090 0.950 . S
H1071 C1091 0.950 . S
H1072 C1093 0.950 . S
H1073 C1096 0.950 . S
H1074 C1097 0.950 . S
H1075 C1099 0.951 . S
H1076 C1100 0.949 . S
H1077 C1102 0.949 . S
H1078 C1103 0.950 . S
H1079 C1105 0.950 . S
H1080 C1106 0.950 . S
H1081 C1108 0.950 . S
H1082 C1111 0.950 . S
H1083 C1112 0.950 . S
H1084 C1114 0.951 . S
H1085 C1115 0.949 . S
C1086 C1087 1.376 . S
C1086 C1091 1.386 . S
C1086 C1092 1.483 . S
C1087 H1068 0.949 . S
C1087 C1086 1.376 . S
C1087 C1088 1.397 . S
C1088 H1069 0.950 . S
C1088 C1087 1.397 . S
C1088 C1089 1.391 . S
C1089 C1088 1.391 . S
C1089 C1090 1.405 . S
C1090 H1070 0.950 . S
C1090 C1089 1.405 . S
C1090 C1091 1.367 . S
C1091 H1071 0.950 . S
C1091 C1086 1.386 . S
C1091 C1090 1.367 . S
C1092 C1086 1.483 . S
C1092 C1093 1.382 . S
C1092 C1094 1.403 . S
C1093 H1072 0.950 . S
C1093 C1092 1.382 . S
C1093 C1109 1.411 . S
C1094 C1092 1.403 . S
C1094 C1095 1.489 . S
C1094 C1108 1.411 . S
C1095 C1094 1.489 . S
C1095 C1096 1.383 . S
C1095 C1100 1.382 . S
C1096 H1073 0.950 . S
C1096 C1095 1.383 . S
C1096 C1097 1.395 . S
C1097 H1074 0.950 . S
C1097 C1096 1.395 . S
C1097 C1098 1.288 . S
C1098 C1097 1.288 . S
C1098 C1099 1.392 . S
C1099 H1075 0.951 . S
C1099 C1098 1.392 . S
C1099 C1100 1.392 . S
C1100 H1076 0.949 . S
C1100 C1095 1.382 . S
C1100 C1099 1.392 . S
C1101 C1102 1.376 . S
C1101 C1106 1.386 . S
C1101 C1107 1.483 . S
C1102 H1077 0.949 . S
C1102 C1101 1.376 . S
C1102 C1103 1.397 . S
C1103 H1078 0.950 . S
C1103 C1102 1.397 . S
C1103 C1104 1.391 . S
C1104 C1103 1.391 . S
C1104 C1105 1.405 . S
C1105 H1079 0.950 . S
C1105 C1104 1.405 . S
C1105 C1106 1.367 . S
C1106 H1080 0.950 . S
C1106 C1101 1.386 . S
C1106 C1105 1.367 . S
C1107 C1101 1.483 . S
C1107 C1108 1.382 . S
C1107 C1109 1.403 . S
C1108 H1081 0.950 . S
C1108 C1094 1.411 . S
C1108 C1107 1.382 . S
C1109 C1093 1.411 . S
C1109 C1107 1.403 . S
C1109 C1110 1.489 . S
C1110 C1109 1.489 . S
C1110 C1111 1.383 . S
C1110 C1115 1.382 . S
C1111 H1082 0.950 . S
C1111 C1110 1.383 . S
C1111 C1112 1.395 . S
C1112 H1083 0.950 . S
C1112 C1111 1.395 . S
C1112 C1113 1.288 . S
C1113 C1112 1.288 . S
C1113 C1114 1.392 . S
C1114 H1084 0.951 . S
C1114 C1113 1.392 . S
C1114 C1115 1.392 . S
C1115 H1085 0.949 . S
C1115 C1110 1.382 . S
C1115 C1114 1.392 . S
H1116 C1124 0.950 . S
H1117 C1129 0.980 . S
H1118 C1126 0.950 . S
H1119 C1128 0.957 . S
H1120 C1130 0.950 . S
H1121 C1132 0.950 . S
H1122 C1134 0.950 . S
H1123 C1135 0.950 . S
C1124 H1116 0.950 . S
C1124 C1125 1.386 . S
C1124 C1126 1.391 . S
C1125 C1124 1.386 . S
C1125 C1129 1.381 1_655 S
C1126 H1118 0.950 . S
C1126 C1124 1.391 . S
C1126 C1127 1.400 . S
C1127 C1126 1.400 . S
C1127 C1128 1.380 1_655 S
C1127 C1133 1.491 . S
C1128 H1119 0.957 . S
C1128 C1127 1.380 1_455 S
C1128 C1129 1.384 . S
C1129 H1117 0.980 . S
C1129 C1125 1.381 1_455 S
C1129 C1128 1.384 . S
C1130 H1120 0.950 . S
C1130 C1131 1.386 1_455 S
C1130 C1132 1.391 . S
C1131 C1130 1.386 1_655 S
C1131 C1135 1.393 . S
C1132 H1121 0.950 . S
C1132 C1130 1.391 . S
C1132 C1133 1.400 1_455 S
C1133 C1127 1.491 . S
C1133 C1132 1.400 1_655 S
C1133 C1134 1.398 . S
C1134 H1122 0.950 . S
C1134 C1133 1.398 . S
C1134 C1135 1.391 . S
C1135 H1123 0.950 . S
C1135 C1131 1.393 . S
C1135 C1134 1.391 . S
H1136 C1144 0.950 . S
H1137 C1149 0.950 . S
H1138 C1146 0.950 . S
H1139 C1148 0.950 . S
H1140 C1150 0.950 . S
H1141 C1152 0.950 . S
H1142 C1154 0.950 . S
H1143 C1155 0.950 . S
C1144 H1136 0.950 . S
C1144 C1145 1.386 . S
C1144 C1146 1.391 . S
C1145 C1144 1.386 . S
C1145 C1149 1.393 . S
C1146 H1138 0.950 . S
C1146 C1144 1.391 . S
C1146 C1147 1.400 . S
C1147 C1146 1.400 . S
C1147 C1148 1.398 . S
C1147 C1153 1.491 . S
C1148 H1139 0.950 . S
C1148 C1147 1.398 . S
C1148 C1149 1.391 . S
C1149 H1137 0.950 . S
C1149 C1145 1.393 . S
C1149 C1148 1.391 . S
C1150 H1140 0.950 . S
C1150 C1151 1.386 . S
C1150 C1152 1.391 . S
C1151 C1150 1.386 . S
C1151 C1155 1.393 . S
C1152 H1141 0.950 . S
C1152 C1150 1.391 . S
C1152 C1153 1.400 . S
C1153 C1147 1.491 . S
C1153 C1152 1.400 . S
C1153 C1154 1.398 . S
C1154 H1142 0.950 . S
C1154 C1153 1.398 . S
C1154 C1155 1.391 . S
C1155 H1143 0.950 . S
C1155 C1151 1.393 . S
C1155 C1154 1.391 . S
H1156 C1164 0.950 . S
H1157 C1169 0.950 . S
H1158 C1166 0.950 . S
H1159 C1168 0.918 1_565 S
H1160 C1170 0.928 1_565 S
H1161 C1172 0.952 . S
H1162 C1174 0.950 . S
H1163 C1175 0.950 . S
C1164 H1156 0.950 . S
C1164 C1165 1.386 . S
C1164 C1166 1.391 . S
C1165 C1164 1.386 . S
C1165 C1169 1.393 . S
C1166 H1158 0.950 . S
C1166 C1164 1.391 . S
C1166 C1167 1.400 . S
C1167 C1166 1.400 . S
C1167 C1168 1.398 . S
C1167 C1173 1.491 . S
C1168 H1159 0.918 1_545 S
C1168 C1167 1.398 . S
C1168 C1169 1.391 . S
C1169 H1157 0.950 . S
C1169 C1165 1.393 . S
C1169 C1168 1.391 . S
C1170 H1160 0.928 1_545 S
C1170 C1171 1.386 . S
C1170 C1172 1.391 . S
C1171 C1170 1.386 . S
C1171 C1175 1.393 . S
C1172 H1161 0.952 . S
C1172 C1170 1.391 . S
C1172 C1173 1.400 . S
C1173 C1167 1.491 . S
C1173 C1172 1.400 . S
C1173 C1174 1.398 . S
C1174 H1162 0.950 . S
C1174 C1173 1.398 . S
C1174 C1175 1.391 . S
C1175 H1163 0.950 . S
C1175 C1171 1.393 . S
C1175 C1174 1.391 . S
H1176 C1184 0.950 . S
H1177 C1189 0.950 . S
H1178 C1186 0.950 . S
H1179 C1188 0.950 . S
H1180 C1190 0.950 . S
H1181 C1192 0.950 . S
H1182 C1194 0.950 . S
H1183 C1195 0.950 . S
C1184 H1176 0.950 . S
C1184 C1185 1.370 1_565 S
C1184 C1186 1.391 . S
C1185 C1184 1.370 1_545 S
C1185 C1189 1.391 . S
C1186 H1178 0.950 . S
C1186 C1184 1.391 . S
C1186 C1187 1.398 . S
C1187 C1186 1.398 . S
C1187 C1188 1.385 1_565 S
C1187 C1193 1.507 . S
C1188 H1179 0.950 . S
C1188 C1187 1.385 1_545 S
C1188 C1189 1.391 . S
C1189 H1177 0.950 . S
C1189 C1185 1.391 . S
C1189 C1188 1.391 . S
C1190 H1180 0.950 . S
C1190 C1191 1.386 1_545 S
C1190 C1192 1.391 . S
C1191 C1190 1.386 1_565 S
C1191 C1195 1.393 . S
C1192 H1181 0.950 . S
C1192 C1190 1.391 . S
C1192 C1193 1.400 1_545 S
C1193 C1187 1.507 . S
C1193 C1192 1.400 1_565 S
C1193 C1194 1.398 . S
C1194 H1182 0.950 . S
C1194 C1193 1.398 . S
C1194 C1195 1.391 . S
C1195 H1183 0.950 . S
C1195 C1191 1.393 . S
C1195 C1194 1.391 . S
H1196 C1204 0.950 . S
H1197 C1209 0.950 . S
H1198 C1206 0.950 . S
H1199 C1208 0.950 . S
H1200 C1210 0.950 . S
H1201 C1212 0.950 . S
H1202 C1214 0.950 . S
H1203 C1215 0.950 . S
C1204 H1196 0.950 . S
C1204 C1205 1.386 1_655 S
C1204 C1206 1.391 . S
C1205 C1204 1.386 1_455 S
C1205 C1209 1.393 . S
C1206 H1198 0.950 . S
C1206 C1204 1.391 . S
C1206 C1207 1.400 1_655 S
C1207 C1206 1.400 1_455 S
C1207 C1208 1.398 . S
C1207 C1213 1.491 . S
C1208 H1199 0.950 . S
C1208 C1207 1.398 . S
C1208 C1209 1.391 . S
C1209 H1197 0.950 . S
C1209 C1205 1.393 . S
C1209 C1208 1.391 . S
C1210 H1200 0.950 . S
C1210 C1211 1.386 . S
C1210 C1212 1.391 . S
C1211 C1210 1.386 . S
C1211 C1215 1.393 1_455 S
C1212 H1201 0.950 . S
C1212 C1210 1.391 . S
C1212 C1213 1.400 . S
C1213 C1207 1.491 . S
C1213 C1212 1.400 . S
C1213 C1214 1.398 1_455 S
C1214 H1202 0.950 . S
C1214 C1213 1.398 1_655 S
C1214 C1215 1.391 . S
C1215 H1203 0.950 . S
C1215 C1211 1.393 1_655 S
C1215 C1214 1.391 . S
H1216 C1224 0.950 . S
H1217 C1229 0.950 . S
H1218 C1226 0.950 . S
H1219 C1228 0.950 . S
H1220 C1230 0.950 . S
H1221 C1232 0.950 . S
H1222 C1234 0.950 . S
H1223 C1235 0.950 . S
C1224 H1216 0.950 . S
C1224 C1225 1.386 . S
C1224 C1226 1.391 . S
C1225 C1224 1.386 . S
C1225 C1229 1.393 . S
C1226 H1218 0.950 . S
C1226 C1224 1.391 . S
C1226 C1227 1.400 . S
C1227 C1226 1.400 . S
C1227 C1228 1.398 . S
C1227 C1233 1.491 . S
C1228 H1219 0.950 . S
C1228 C1227 1.398 . S
C1228 C1229 1.391 . S
C1229 H1217 0.950 . S
C1229 C1225 1.393 . S
C1229 C1228 1.391 . S
C1230 H1220 0.950 . S
C1230 C1231 1.386 . S
C1230 C1232 1.391 . S
C1231 C1230 1.386 . S
C1231 C1235 1.393 . S
C1232 H1221 0.950 . S
C1232 C1230 1.391 . S
C1232 C1233 1.400 . S
C1233 C1227 1.491 . S
C1233 C1232 1.400 . S
C1233 C1234 1.398 . S
C1234 H1222 0.950 . S
C1234 C1233 1.398 . S
C1234 C1235 1.391 . S
C1235 H1223 0.950 . S
C1235 C1231 1.393 . S
C1235 C1234 1.391 . S
H1236 C1244 0.950 . S
H1237 C1249 0.950 . S
H1238 C1246 0.950 . S
H1239 C1248 0.950 . S
H1240 C1250 0.950 . S
H1241 C1252 0.950 . S
H1242 C1254 0.950 . S
H1243 C1255 0.950 . S
C1244 H1236 0.950 . S
C1244 C1245 1.386 1_655 S
C1244 C1246 1.391 . S
C1245 C1244 1.386 1_455 S
C1245 C1249 1.393 . S
C1246 H1238 0.950 . S
C1246 C1244 1.391 . S
C1246 C1247 1.400 1_655 S
C1247 C1246 1.400 1_455 S
C1247 C1248 1.398 . S
C1247 C1253 1.491 . S
C1248 H1239 0.950 . S
C1248 C1247 1.398 . S
C1248 C1249 1.391 . S
C1249 H1237 0.950 . S
C1249 C1245 1.393 . S
C1249 C1248 1.391 . S
C1250 H1240 0.950 . S
C1250 C1251 1.386 . S
C1250 C1252 1.391 . S
C1251 C1250 1.386 . S
C1251 C1255 1.393 1_455 S
C1252 H1241 0.950 . S
C1252 C1250 1.391 . S
C1252 C1253 1.400 . S
C1253 C1247 1.491 . S
C1253 C1252 1.400 . S
C1253 C1254 1.398 1_455 S
C1254 H1242 0.950 . S
C1254 C1253 1.398 1_655 S
C1254 C1255 1.391 . S
C1255 H1243 0.950 . S
C1255 C1251 1.393 1_655 S
C1255 C1254 1.391 . S
H1256 C1264 0.950 . S
H1257 C1269 0.950 . S
H1258 C1266 0.950 . S
H1259 C1268 0.950 . S
H1260 C1270 0.950 . S
H1261 C1272 0.950 . S
H1262 C1274 0.950 . S
H1263 C1275 0.950 . S
C1264 H1256 0.950 . S
C1264 C1265 1.386 . S
C1264 C1266 1.391 . S
C1265 C1264 1.386 . S
C1265 C1269 1.393 . S
C1266 H1258 0.950 . S
C1266 C1264 1.391 . S
C1266 C1267 1.400 . S
C1267 C1266 1.400 . S
C1267 C1268 1.398 . S
C1267 C1273 1.491 . S
C1268 H1259 0.950 . S
C1268 C1267 1.398 . S
C1268 C1269 1.391 . S
C1269 H1257 0.950 . S
C1269 C1265 1.393 . S
C1269 C1268 1.391 . S
C1270 H1260 0.950 . S
C1270 C1271 1.386 . S
C1270 C1272 1.391 . S
C1271 C1270 1.386 . S
C1271 C1275 1.393 . S
C1272 H1261 0.950 . S
C1272 C1270 1.391 . S
C1272 C1273 1.400 . S
C1273 C1267 1.491 . S
C1273 C1272 1.400 . S
C1273 C1274 1.398 . S
C1274 H1262 0.950 . S
C1274 C1273 1.398 . S
C1274 C1275 1.391 . S
C1275 H1263 0.950 . S
C1275 C1271 1.393 . S
C1275 C1274 1.391 . S
H1276 C1284 0.950 . S
H1277 C1289 0.952 1_545 S
H1278 C1286 0.950 . S
H1279 C1288 0.945 1_545 S
H1280 C1290 0.950 . S
H1281 C1292 0.950 . S
H1282 C1294 0.950 . S
H1283 C1295 0.950 . S
C1284 H1276 0.950 . S
C1284 C1285 1.386 . S
C1284 C1286 1.391 . S
C1285 C1284 1.386 . S
C1285 C1289 1.388 . S
C1286 H1278 0.950 . S
C1286 C1284 1.391 . S
C1286 C1287 1.400 . S
C1287 C1286 1.400 . S
C1287 C1288 1.400 . S
C1287 C1293 1.491 . S
C1288 H1279 0.945 1_565 S
C1288 C1287 1.400 . S
C1288 C1289 1.397 . S
C1289 H1277 0.952 1_565 S
C1289 C1285 1.388 . S
C1289 C1288 1.397 . S
C1290 H1280 0.950 . S
C1290 C1291 1.386 1_545 S
C1290 C1292 1.391 . S
C1291 C1290 1.386 1_565 S
C1291 C1295 1.393 . S
C1292 H1281 0.950 . S
C1292 C1290 1.391 . S
C1292 C1293 1.400 1_545 S
C1293 C1287 1.491 . S
C1293 C1292 1.400 1_565 S
C1293 C1294 1.398 . S
C1294 H1282 0.950 . S
C1294 C1293 1.398 . S
C1294 C1295 1.391 . S
C1295 H1283 0.950 . S
C1295 C1291 1.393 . S
C1295 C1294 1.391 . S
H1296 C1304 0.950 . S
H1297 C1309 0.950 . S
H1298 C1306 0.950 . S
H1299 C1308 0.950 . S
H1300 C1310 0.950 . S
H1301 C1312 0.950 . S
H1302 C1314 0.950 . S
H1303 C1315 0.950 . S
C1304 H1296 0.950 . S
C1304 C1305 1.386 . S
C1304 C1306 1.391 . S
C1305 C1304 1.386 . S
C1305 C1309 1.393 1_545 S
C1306 H1298 0.950 . S
C1306 C1304 1.391 . S
C1306 C1307 1.400 . S
C1307 C1306 1.400 . S
C1307 C1308 1.398 1_545 S
C1307 C1313 1.491 . S
C1308 H1299 0.950 . S
C1308 C1307 1.398 1_565 S
C1308 C1309 1.391 . S
C1309 H1297 0.950 . S
C1309 C1305 1.393 1_565 S
C1309 C1308 1.391 . S
C1310 H1300 0.950 . S
C1310 C1311 1.386 1_565 S
C1310 C1312 1.391 . S
C1311 C1310 1.386 1_545 S
C1311 C1315 1.393 . S
C1312 H1301 0.950 . S
C1312 C1310 1.391 . S
C1312 C1313 1.400 1_565 S
C1313 C1307 1.491 . S
C1313 C1312 1.400 1_545 S
C1313 C1314 1.398 . S
C1314 H1302 0.950 . S
C1314 C1313 1.398 . S
C1314 C1315 1.391 . S
C1315 H1303 0.950 . S
C1315 C1311 1.393 . S
C1315 C1314 1.391 . S
H1316 C1324 0.950 . S
H1317 C1329 0.950 . S
H1318 C1326 0.950 . S
H1319 C1328 0.950 . S
H1320 C1330 0.950 . S
H1321 C1332 0.950 . S
H1322 C1334 0.950 . S
H1323 C1335 0.950 . S
C1324 H1316 0.950 . S
C1324 C1325 1.386 1_455 S
C1324 C1326 1.391 . S
C1325 C1324 1.386 1_655 S
C1325 C1329 1.393 . S
C1326 H1318 0.950 . S
C1326 C1324 1.391 . S
C1326 C1327 1.400 1_455 S
C1327 C1326 1.400 1_655 S
C1327 C1328 1.398 . S
C1327 C1333 1.491 . S
C1328 H1319 0.950 . S
C1328 C1327 1.398 . S
C1328 C1329 1.391 . S
C1329 H1317 0.950 . S
C1329 C1325 1.393 . S
C1329 C1328 1.391 . S
C1330 H1320 0.950 . S
C1330 C1331 1.386 . S
C1330 C1332 1.391 . S
C1331 C1330 1.386 . S
C1331 C1335 1.393 1_655 S
C1332 H1321 0.950 . S
C1332 C1330 1.391 . S
C1332 C1333 1.400 . S
C1333 C1327 1.491 . S
C1333 C1332 1.400 . S
C1333 C1334 1.398 1_655 S
C1334 H1322 0.950 . S
C1334 C1333 1.398 1_455 S
C1334 C1335 1.391 . S
C1335 H1323 0.950 . S
C1335 C1331 1.393 1_455 S
C1335 C1334 1.391 . S
H1336 C1344 0.950 . S
H1337 C1349 0.950 . S
H1338 C1346 0.950 . S
H1339 C1348 0.950 . S
H1340 C1350 0.950 . S
H1341 C1352 0.950 . S
H1342 C1354 0.950 . S
H1343 C1355 0.950 . S
C1344 H1336 0.950 . S
C1344 C1345 1.386 . S
C1344 C1346 1.391 . S
C1345 C1344 1.386 . S
C1345 C1349 1.393 . S
C1346 H1338 0.950 . S
C1346 C1344 1.391 . S
C1346 C1347 1.400 . S
C1347 C1346 1.400 . S
C1347 C1348 1.398 . S
C1347 C1353 1.491 . S
C1348 H1339 0.950 . S
C1348 C1347 1.398 . S
C1348 C1349 1.391 . S
C1349 H1337 0.950 . S
C1349 C1345 1.393 . S
C1349 C1348 1.391 . S
C1350 H1340 0.950 . S
C1350 C1351 1.386 . S
C1350 C1352 1.391 . S
C1351 C1350 1.386 . S
C1351 C1355 1.393 . S
C1352 H1341 0.950 . S
C1352 C1350 1.391 . S
C1352 C1353 1.400 . S
C1353 C1347 1.491 . S
C1353 C1352 1.400 . S
C1353 C1354 1.398 . S
C1354 H1342 0.950 . S
C1354 C1353 1.398 . S
C1354 C1355 1.391 . S
C1355 H1343 0.950 . S
C1355 C1351 1.393 . S
C1355 C1354 1.391 . S
H1356 C1364 0.950 . S
H1357 C1369 0.950 . S
H1358 C1366 0.950 . S
H1359 C1368 0.950 . S
H1360 C1370 0.950 . S
H1361 C1372 0.950 . S
H1362 C1374 0.950 . S
H1363 C1375 0.950 . S
C1364 H1356 0.950 . S
C1364 C1365 1.386 . S
C1364 C1366 1.391 . S
C1365 C1364 1.386 . S
C1365 C1369 1.393 . S
C1366 H1358 0.950 . S
C1366 C1364 1.391 . S
C1366 C1367 1.400 . S
C1367 C1366 1.400 . S
C1367 C1368 1.398 . S
C1367 C1373 1.491 . S
C1368 H1359 0.950 . S
C1368 C1367 1.398 . S
C1368 C1369 1.391 . S
C1369 H1357 0.950 . S
C1369 C1365 1.393 . S
C1369 C1368 1.391 . S
C1370 H1360 0.950 . S
C1370 C1371 1.386 . S
C1370 C1372 1.391 . S
C1371 C1370 1.386 . S
C1371 C1375 1.393 . S
C1372 H1361 0.950 . S
C1372 C1370 1.391 . S
C1372 C1373 1.400 . S
C1373 C1367 1.491 . S
C1373 C1372 1.400 . S
C1373 C1374 1.398 . S
C1374 H1362 0.950 . S
C1374 C1373 1.398 . S
C1374 C1375 1.391 . S
C1375 H1363 0.950 . S
C1375 C1371 1.393 . S
C1375 C1374 1.391 . S
H1376 C1384 0.950 . S
H1377 C1389 0.950 . S
H1378 C1386 0.950 . S
H1379 C1388 0.950 . S
H1380 C1390 0.950 . S
H1381 C1392 0.950 . S
H1382 C1394 0.950 . S
H1383 C1395 0.950 . S
C1384 H1376 0.950 . S
C1384 C1385 1.386 . S
C1384 C1386 1.391 . S
C1385 C1384 1.386 . S
C1385 C1389 1.393 . S
C1386 H1378 0.950 . S
C1386 C1384 1.391 . S
C1386 C1387 1.400 . S
C1387 C1386 1.400 . S
C1387 C1388 1.398 . S
C1387 C1393 1.491 . S
C1388 H1379 0.950 . S
C1388 C1387 1.398 . S
C1388 C1389 1.391 . S
C1389 H1377 0.950 . S
C1389 C1385 1.393 . S
C1389 C1388 1.391 . S
C1390 H1380 0.950 . S
C1390 C1391 1.386 . S
C1390 C1392 1.391 . S
C1391 C1390 1.386 . S
C1391 C1395 1.393 . S
C1392 H1381 0.950 . S
C1392 C1390 1.391 . S
C1392 C1393 1.400 . S
C1393 C1387 1.491 . S
C1393 C1392 1.400 . S
C1393 C1394 1.398 . S
C1394 H1382 0.950 . S
C1394 C1393 1.398 . S
C1394 C1395 1.391 . S
C1395 H1383 0.950 . S
C1395 C1391 1.393 . S
C1395 C1394 1.391 . S
H1396 C1404 0.950 . S
H1397 C1409 0.950 . S
H1398 C1406 0.950 . S
H1399 C1408 0.950 . S
H1400 C1410 0.950 . S
H1401 C1412 0.950 . S
H1402 C1414 0.950 . S
H1403 C1415 0.950 . S
C1404 H1396 0.950 . S
C1404 C1405 1.386 . S
C1404 C1406 1.391 . S
C1405 C1404 1.386 . S
C1405 C1409 1.393 . S
C1406 H1398 0.950 . S
C1406 C1404 1.391 . S
C1406 C1407 1.400 . S
C1407 C1406 1.400 . S
C1407 C1408 1.398 . S
C1407 C1413 1.491 . S
C1408 H1399 0.950 . S
C1408 C1407 1.398 . S
C1408 C1409 1.391 . S
C1409 H1397 0.950 . S
C1409 C1405 1.393 . S
C1409 C1408 1.391 . S
C1410 H1400 0.950 . S
C1410 C1411 1.386 . S
C1410 C1412 1.391 . S
C1411 C1410 1.386 . S
C1411 C1415 1.393 . S
C1412 H1401 0.950 . S
C1412 C1410 1.391 . S
C1412 C1413 1.400 . S
C1413 C1407 1.491 . S
C1413 C1412 1.400 . S
C1413 C1414 1.398 . S
C1414 H1402 0.950 . S
C1414 C1413 1.398 . S
C1414 C1415 1.391 . S
C1415 H1403 0.950 . S
C1415 C1411 1.393 . S
C1415 C1414 1.391 . S
H1416 C1424 0.950 . S
H1417 C1429 0.950 . S
H1418 C1426 0.950 . S
H1419 C1428 0.950 . S
H1420 C1430 0.950 . S
H1421 C1432 0.950 . S
H1422 C1434 0.950 . S
H1423 C1435 0.950 . S
C1424 H1416 0.950 . S
C1424 C1425 1.386 . S
C1424 C1426 1.391 . S
C1425 C1424 1.386 . S
C1425 C1429 1.393 . S
C1426 H1418 0.950 . S
C1426 C1424 1.391 . S
C1426 C1427 1.400 . S
C1427 C1426 1.400 . S
C1427 C1428 1.398 . S
C1427 C1433 1.491 . S
C1428 H1419 0.950 . S
C1428 C1427 1.398 . S
C1428 C1429 1.391 . S
C1429 H1417 0.950 . S
C1429 C1425 1.393 . S
C1429 C1428 1.391 . S
C1430 H1420 0.950 . S
C1430 C1431 1.386 . S
C1430 C1432 1.391 . S
C1431 C1430 1.386 . S
C1431 C1435 1.393 . S
C1432 H1421 0.950 . S
C1432 C1430 1.391 . S
C1432 C1433 1.400 . S
C1433 C1427 1.491 . S
C1433 C1432 1.400 . S
C1433 C1434 1.398 . S
C1434 H1422 0.950 . S
C1434 C1433 1.398 . S
C1434 C1435 1.391 . S
C1435 H1423 0.950 . S
C1435 C1431 1.393 . S
C1435 C1434 1.391 . S
H1436 C1444 0.950 . S
H1437 C1449 0.950 . S
H1438 C1446 0.950 . S
H1439 C1448 0.950 . S
H1440 C1450 0.950 . S
H1441 C1452 0.950 . S
H1442 C1454 0.950 . S
H1443 C1455 0.950 . S
C1444 H1436 0.950 . S
C1444 C1445 1.386 . S
C1444 C1446 1.391 . S
C1445 C1444 1.386 . S
C1445 C1449 1.393 . S
C1446 H1438 0.950 . S
C1446 C1444 1.391 . S
C1446 C1447 1.400 . S
C1447 C1446 1.400 . S
C1447 C1448 1.398 . S
C1447 C1453 1.491 . S
C1448 H1439 0.950 . S
C1448 C1447 1.398 . S
C1448 C1449 1.391 . S
C1449 H1437 0.950 . S
C1449 C1445 1.393 . S
C1449 C1448 1.391 . S
C1450 H1440 0.950 . S
C1450 C1451 1.386 . S
C1450 C1452 1.391 . S
C1451 C1450 1.386 . S
C1451 C1455 1.393 . S
C1452 H1441 0.950 . S
C1452 C1450 1.391 . S
C1452 C1453 1.400 . S
C1453 C1447 1.491 . S
C1453 C1452 1.400 . S
C1453 C1454 1.398 . S
C1454 H1442 0.950 . S
C1454 C1453 1.398 . S
C1454 C1455 1.391 . S
C1455 H1443 0.950 . S
C1455 C1451 1.393 . S
C1455 C1454 1.391 . S
H1456 C1464 0.950 . S
H1457 C1469 0.950 . S
H1458 C1466 0.950 . S
H1459 C1468 0.950 . S
H1460 C1470 0.950 . S
H1461 C1472 0.950 . S
H1462 C1474 0.950 . S
H1463 C1475 0.950 . S
C1464 H1456 0.950 . S
C1464 C1465 1.386 . S
C1464 C1466 1.391 . S
C1465 C1464 1.386 . S
C1465 C1469 1.393 . S
C1466 H1458 0.950 . S
C1466 C1464 1.391 . S
C1466 C1467 1.400 . S
C1467 C1466 1.400 . S
C1467 C1468 1.398 . S
C1467 C1473 1.491 . S
C1468 H1459 0.950 . S
C1468 C1467 1.398 . S
C1468 C1469 1.391 . S
C1469 H1457 0.950 . S
C1469 C1465 1.393 . S
C1469 C1468 1.391 . S
C1470 H1460 0.950 . S
C1470 C1471 1.386 . S
C1470 C1472 1.391 . S
C1471 C1470 1.386 . S
C1471 C1475 1.393 . S
C1472 H1461 0.950 . S
C1472 C1470 1.391 . S
C1472 C1473 1.400 . S
C1473 C1467 1.491 . S
C1473 C1472 1.400 . S
C1473 C1474 1.398 . S
C1474 H1462 0.950 . S
C1474 C1473 1.398 . S
C1474 C1475 1.391 . S
C1475 H1463 0.950 . S
C1475 C1471 1.393 . S
C1475 C1474 1.391 . S
H1476 C1484 0.950 . S
H1477 C1489 0.950 . S
H1478 C1486 0.950 . S
H1479 C1488 0.950 . S
H1480 C1490 0.950 . S
H1481 C1492 0.950 . S
H1482 C1494 0.950 . S
H1483 C1495 0.950 . S
C1484 H1476 0.950 . S
C1484 C1485 1.386 . S
C1484 C1486 1.391 . S
C1485 C1484 1.386 . S
C1485 C1489 1.393 . S
C1486 H1478 0.950 . S
C1486 C1484 1.391 . S
C1486 C1487 1.400 . S
C1487 C1486 1.400 . S
C1487 C1488 1.398 . S
C1487 C1493 1.491 . S
C1488 H1479 0.950 . S
C1488 C1487 1.398 . S
C1488 C1489 1.391 . S
C1489 H1477 0.950 . S
C1489 C1485 1.393 . S
C1489 C1488 1.391 . S
C1490 H1480 0.950 . S
C1490 C1491 1.386 . S
C1490 C1492 1.391 . S
C1491 C1490 1.386 . S
C1491 C1495 1.393 . S
C1492 H1481 0.950 . S
C1492 C1490 1.391 . S
C1492 C1493 1.400 . S
C1493 C1487 1.491 . S
C1493 C1492 1.400 . S
C1493 C1494 1.398 . S
C1494 H1482 0.950 . S
C1494 C1493 1.398 . S
C1494 C1495 1.391 . S
C1495 H1483 0.950 . S
C1495 C1491 1.393 . S
C1495 C1494 1.391 . S
H1496 C1504 0.950 . S
H1497 C1509 0.950 . S
H1498 C1506 0.950 . S
H1499 C1508 0.950 . S
H1500 C1510 0.950 . S
H1501 C1512 0.950 . S
H1502 C1514 0.950 . S
H1503 C1515 0.950 . S
C1504 H1496 0.950 . S
C1504 C1505 1.386 . S
C1504 C1506 1.391 . S
C1505 C1504 1.386 . S
C1505 C1509 1.393 . S
C1506 H1498 0.950 . S
C1506 C1504 1.391 . S
C1506 C1507 1.400 . S
C1507 C1506 1.400 . S
C1507 C1508 1.398 . S
C1507 C1513 1.491 . S
C1508 H1499 0.950 . S
C1508 C1507 1.398 . S
C1508 C1509 1.391 . S
C1509 H1497 0.950 . S
C1509 C1505 1.393 . S
C1509 C1508 1.391 . S
C1510 H1500 0.950 . S
C1510 C1511 1.386 . S
C1510 C1512 1.391 . S
C1511 C1510 1.386 . S
C1511 C1515 1.393 . S
C1512 H1501 0.950 . S
C1512 C1510 1.391 . S
C1512 C1513 1.400 . S
C1513 C1507 1.491 . S
C1513 C1512 1.400 . S
C1513 C1514 1.398 . S
C1514 H1502 0.950 . S
C1514 C1513 1.398 . S
C1514 C1515 1.391 . S
C1515 H1503 0.950 . S
C1515 C1511 1.393 . S
C1515 C1514 1.391 . S
H1516 C1524 0.950 . S
H1517 C1529 0.950 . S
H1518 C1526 0.950 . S
H1519 C1528 0.950 . S
H1520 C1530 0.950 . S
H1521 C1532 0.950 . S
H1522 C1534 0.950 . S
H1523 C1535 0.950 . S
C1524 H1516 0.950 . S
C1524 C1525 1.386 . S
C1524 C1526 1.391 . S
C1525 C1524 1.386 . S
C1525 C1529 1.393 . S
C1526 H1518 0.950 . S
C1526 C1524 1.391 . S
C1526 C1527 1.400 . S
C1527 C1526 1.400 . S
C1527 C1528 1.398 . S
C1527 C1533 1.491 . S
C1528 H1519 0.950 . S
C1528 C1527 1.398 . S
C1528 C1529 1.391 . S
C1529 H1517 0.950 . S
C1529 C1525 1.393 . S
C1529 C1528 1.391 . S
C1530 H1520 0.950 . S
C1530 C1531 1.386 . S
C1530 C1532 1.391 . S
C1531 C1530 1.386 . S
C1531 C1535 1.393 . S
C1532 H1521 0.950 . S
C1532 C1530 1.391 . S
C1532 C1533 1.400 . S
C1533 C1527 1.491 . S
C1533 C1532 1.400 . S
C1533 C1534 1.398 . S
C1534 H1522 0.950 . S
C1534 C1533 1.398 . S
C1534 C1535 1.391 . S
C1535 H1523 0.950 . S
C1535 C1531 1.393 . S
C1535 C1534 1.391 . S
H1536 C1544 0.950 . S
H1537 C1549 0.950 . S
H1538 C1546 0.950 . S
H1539 C1548 0.950 . S
H1540 C1550 0.950 . S
H1541 C1552 0.950 . S
H1542 C1554 0.950 . S
H1543 C1555 0.950 . S
C1544 H1536 0.950 . S
C1544 C1545 1.386 . S
C1544 C1546 1.391 . S
C1545 C1544 1.386 . S
C1545 C1549 1.393 . S
C1546 H1538 0.950 . S
C1546 C1544 1.391 . S
C1546 C1547 1.400 . S
C1547 C1546 1.400 . S
C1547 C1548 1.398 . S
C1547 C1553 1.491 . S
C1548 H1539 0.950 . S
C1548 C1547 1.398 . S
C1548 C1549 1.391 . S
C1549 H1537 0.950 . S
C1549 C1545 1.393 . S
C1549 C1548 1.391 . S
C1550 H1540 0.950 . S
C1550 C1551 1.386 . S
C1550 C1552 1.391 . S
C1551 C1550 1.386 . S
C1551 C1555 1.393 . S
C1552 H1541 0.950 . S
C1552 C1550 1.391 . S
C1552 C1553 1.400 . S
C1553 C1547 1.491 . S
C1553 C1552 1.400 . S
C1553 C1554 1.398 . S
C1554 H1542 0.950 . S
C1554 C1553 1.398 . S
C1554 C1555 1.391 . S
C1555 H1543 0.950 . S
C1555 C1551 1.393 . S
C1555 C1554 1.391 . S
H1556 C1564 0.950 . S
H1557 C1569 0.950 . S
H1558 C1566 0.950 . S
H1559 C1568 0.950 . S
H1560 C1570 0.950 . S
H1561 C1572 0.950 . S
H1562 C1574 0.950 . S
H1563 C1575 0.950 . S
C1564 H1556 0.950 . S
C1564 C1565 1.386 . S
C1564 C1566 1.391 . S
C1565 C1564 1.386 . S
C1565 C1569 1.393 . S
C1566 H1558 0.950 . S
C1566 C1564 1.391 . S
C1566 C1567 1.400 . S
C1567 C1566 1.400 . S
C1567 C1568 1.398 . S
C1567 C1573 1.491 . S
C1568 H1559 0.950 . S
C1568 C1567 1.398 . S
C1568 C1569 1.391 . S
C1569 H1557 0.950 . S
C1569 C1565 1.393 . S
C1569 C1568 1.391 . S
C1570 H1560 0.950 . S
C1570 C1571 1.386 . S
C1570 C1572 1.391 . S
C1571 C1570 1.386 . S
C1571 C1575 1.393 . S
C1572 H1561 0.950 . S
C1572 C1570 1.391 . S
C1572 C1573 1.400 . S
C1573 C1567 1.491 . S
C1573 C1572 1.400 . S
C1573 C1574 1.398 . S
C1574 H1562 0.950 . S
C1574 C1573 1.398 . S
C1574 C1575 1.391 . S
C1575 H1563 0.950 . S
C1575 C1571 1.393 . S
C1575 C1574 1.391 . S
H1576 C1584 0.950 . S
H1577 C1589 0.950 . S
H1578 C1586 0.950 . S
H1579 C1588 0.950 . S
H1580 C1590 0.950 . S
H1581 C1592 0.950 . S
H1582 C1594 0.950 . S
H1583 C1595 0.950 . S
C1584 H1576 0.950 . S
C1584 C1585 1.386 . S
C1584 C1586 1.391 . S
C1585 C1584 1.386 . S
C1585 C1589 1.393 . S
C1586 H1578 0.950 . S
C1586 C1584 1.391 . S
C1586 C1587 1.400 . S
C1587 C1586 1.400 . S
C1587 C1588 1.398 . S
C1587 C1593 1.491 . S
C1588 H1579 0.950 . S
C1588 C1587 1.398 . S
C1588 C1589 1.391 . S
C1589 H1577 0.950 . S
C1589 C1585 1.393 . S
C1589 C1588 1.391 . S
C1590 H1580 0.950 . S
C1590 C1591 1.386 . S
C1590 C1592 1.391 . S
C1591 C1590 1.386 . S
C1591 C1595 1.393 . S
C1592 H1581 0.950 . S
C1592 C1590 1.391 . S
C1592 C1593 1.400 . S
C1593 C1587 1.491 . S
C1593 C1592 1.400 . S
C1593 C1594 1.398 . S
C1594 H1582 0.950 . S
C1594 C1593 1.398 . S
C1594 C1595 1.391 . S
C1595 H1583 0.950 . S
C1595 C1591 1.393 . S
C1595 C1594 1.391 . S
H1596 C1604 0.950 . S
H1597 C1609 0.950 . S
H1598 C1606 0.950 . S
H1599 C1608 0.950 . S
H1600 C1610 0.950 . S
H1601 C1612 0.950 . S
H1602 C1614 0.950 . S
H1603 C1615 0.950 . S
C1604 H1596 0.950 . S
C1604 C1605 1.386 . S
C1604 C1606 1.391 . S
C1605 C1604 1.386 . S
C1605 C1609 1.393 . S
C1606 H1598 0.950 . S
C1606 C1604 1.391 . S
C1606 C1607 1.400 . S
C1607 C1606 1.400 . S
C1607 C1608 1.398 . S
C1607 C1613 1.491 . S
C1608 H1599 0.950 . S
C1608 C1607 1.398 . S
C1608 C1609 1.391 . S
C1609 H1597 0.950 . S
C1609 C1605 1.393 . S
C1609 C1608 1.391 . S
C1610 H1600 0.950 . S
C1610 C1611 1.386 . S
C1610 C1612 1.391 . S
C1611 C1610 1.386 . S
C1611 C1615 1.393 . S
C1612 H1601 0.950 . S
C1612 C1610 1.391 . S
C1612 C1613 1.400 . S
C1613 C1607 1.491 . S
C1613 C1612 1.400 . S
C1613 C1614 1.398 . S
C1614 H1602 0.950 . S
C1614 C1613 1.398 . S
C1614 C1615 1.391 . S
C1615 H1603 0.950 . S
C1615 C1611 1.393 . S
C1615 C1614 1.391 . S
H1616 C1624 0.950 . S
H1617 C1629 0.950 . S
H1618 C1626 0.950 . S
H1619 C1628 0.950 . S
H1620 C1630 0.950 . S
H1621 C1632 0.950 . S
H1622 C1634 0.950 . S
H1623 C1635 0.950 . S
C1624 H1616 0.950 . S
C1624 C1625 1.386 . S
C1624 C1626 1.391 . S
C1625 C1624 1.386 . S
C1625 C1629 1.393 . S
C1626 H1618 0.950 . S
C1626 C1624 1.391 . S
C1626 C1627 1.400 . S
C1627 C1626 1.400 . S
C1627 C1628 1.398 . S
C1627 C1633 1.491 . S
C1628 H1619 0.950 . S
C1628 C1627 1.398 . S
C1628 C1629 1.391 . S
C1629 H1617 0.950 . S
C1629 C1625 1.393 . S
C1629 C1628 1.391 . S
C1630 H1620 0.950 . S
C1630 C1631 1.386 . S
C1630 C1632 1.391 . S
C1631 C1630 1.386 . S
C1631 C1635 1.393 . S
C1632 H1621 0.950 . S
C1632 C1630 1.391 . S
C1632 C1633 1.400 . S
C1633 C1627 1.491 . S
C1633 C1632 1.400 . S
C1633 C1634 1.398 . S
C1634 H1622 0.950 . S
C1634 C1633 1.398 . S
C1634 C1635 1.391 . S
C1635 H1623 0.950 . S
C1635 C1631 1.393 . S
C1635 C1634 1.391 . S
H1636 C1644 0.950 . S
H1637 C1649 0.950 . S
H1638 C1646 0.950 . S
H1639 C1648 0.950 . S
H1640 C1650 0.950 . S
H1641 C1652 0.950 . S
H1642 C1654 0.950 . S
H1643 C1655 0.950 . S
C1644 H1636 0.950 . S
C1644 C1645 1.386 . S
C1644 C1646 1.391 . S
C1645 C1644 1.386 . S
C1645 C1649 1.393 . S
C1646 H1638 0.950 . S
C1646 C1644 1.391 . S
C1646 C1647 1.400 . S
C1647 C1646 1.400 . S
C1647 C1648 1.398 . S
C1647 C1653 1.491 . S
C1648 H1639 0.950 . S
C1648 C1647 1.398 . S
C1648 C1649 1.391 . S
C1649 H1637 0.950 . S
C1649 C1645 1.393 . S
C1649 C1648 1.391 . S
C1650 H1640 0.950 . S
C1650 C1651 1.386 . S
C1650 C1652 1.391 . S
C1651 C1650 1.386 . S
C1651 C1655 1.393 . S
C1652 H1641 0.950 . S
C1652 C1650 1.391 . S
C1652 C1653 1.400 . S
C1653 C1647 1.491 . S
C1653 C1652 1.400 . S
C1653 C1654 1.398 . S
C1654 H1642 0.950 . S
C1654 C1653 1.398 . S
C1654 C1655 1.391 . S
C1655 H1643 0.950 . S
C1655 C1651 1.393 . S
C1655 C1654 1.391 . S
H1656 C1664 0.950 . S
H1657 C1669 0.950 . S
H1658 C1666 0.950 . S
H1659 C1668 0.950 . S
H1660 C1670 0.950 . S
H1661 C1672 0.950 . S
H1662 C1674 0.950 . S
H1663 C1675 0.950 . S
C1664 H1656 0.950 . S
C1664 C1665 1.386 . S
C1664 C1666 1.391 . S
C1665 C1664 1.386 . S
C1665 C1669 1.393 . S
C1666 H1658 0.950 . S
C1666 C1664 1.391 . S
C1666 C1667 1.400 . S
C1667 C1666 1.400 . S
C1667 C1668 1.398 . S
C1667 C1673 1.491 . S
C1668 H1659 0.950 . S
C1668 C1667 1.398 . S
C1668 C1669 1.391 . S
C1669 H1657 0.950 . S
C1669 C1665 1.393 . S
C1669 C1668 1.391 . S
C1670 H1660 0.950 . S
C1670 C1671 1.386 . S
C1670 C1672 1.391 . S
C1671 C1670 1.386 . S
C1671 C1675 1.393 . S
C1672 H1661 0.950 . S
C1672 C1670 1.391 . S
C1672 C1673 1.400 . S
C1673 C1667 1.491 . S
C1673 C1672 1.400 . S
C1673 C1674 1.398 . S
C1674 H1662 0.950 . S
C1674 C1673 1.398 . S
C1674 C1675 1.391 . S
C1675 H1663 0.950 . S
C1675 C1671 1.393 . S
C1675 C1674 1.391 . S
H1676 C1684 0.950 . S
H1677 C1689 0.950 . S
H1678 C1686 0.950 . S
H1679 C1688 0.950 . S
H1680 C1690 0.950 . S
H1681 C1692 0.950 . S
H1682 C1694 0.950 . S
H1683 C1695 0.950 . S
C1684 H1676 0.950 . S
C1684 C1685 1.386 . S
C1684 C1686 1.391 . S
C1685 C1684 1.386 . S
C1685 C1689 1.393 . S
C1686 H1678 0.950 . S
C1686 C1684 1.391 . S
C1686 C1687 1.400 . S
C1687 C1686 1.400 . S
C1687 C1688 1.398 . S
C1687 C1693 1.491 . S
C1688 H1679 0.950 . S
C1688 C1687 1.398 . S
C1688 C1689 1.391 . S
C1689 H1677 0.950 . S
C1689 C1685 1.393 . S
C1689 C1688 1.391 . S
C1690 H1680 0.950 . S
C1690 C1691 1.386 . S
C1690 C1692 1.391 . S
C1691 C1690 1.386 . S
C1691 C1695 1.393 . S
C1692 H1681 0.950 . S
C1692 C1690 1.391 . S
C1692 C1693 1.400 . S
C1693 C1687 1.491 . S
C1693 C1692 1.400 . S
C1693 C1694 1.398 . S
C1694 H1682 0.950 . S
C1694 C1693 1.398 . S
C1694 C1695 1.391 . S
C1695 H1683 0.950 . S
C1695 C1691 1.393 . S
C1695 C1694 1.391 . S
H1696 C1704 0.950 . S
H1697 C1709 0.950 . S
H1698 C1706 0.950 . S
H1699 C1708 0.950 . S
H1700 C1710 0.950 . S
H1701 C1712 0.950 . S
H1702 C1714 0.950 . S
H1703 C1715 0.950 . S
C1704 H1696 0.950 . S
C1704 C1705 1.386 . S
C1704 C1706 1.391 . S
C1705 C1704 1.386 . S
C1705 C1709 1.393 . S
C1706 H1698 0.950 . S
C1706 C1704 1.391 . S
C1706 C1707 1.400 . S
C1707 C1706 1.400 . S
C1707 C1708 1.398 . S
C1707 C1713 1.491 . S
C1708 H1699 0.950 . S
C1708 C1707 1.398 . S
C1708 C1709 1.391 . S
C1709 H1697 0.950 . S
C1709 C1705 1.393 . S
C1709 C1708 1.391 . S
C1710 H1700 0.950 . S
C1710 C1711 1.386 . S
C1710 C1712 1.391 . S
C1711 C1710 1.386 . S
C1711 C1715 1.393 . S
C1712 H1701 0.950 . S
C1712 C1710 1.391 . S
C1712 C1713 1.400 . S
C1713 C1707 1.491 . S
C1713 C1712 1.400 . S
C1713 C1714 1.398 . S
C1714 H1702 0.950 . S
C1714 C1713 1.398 . S
C1714 C1715 1.391 . S
C1715 H1703 0.950 . S
C1715 C1711 1.393 . S
C1715 C1714 1.391 . S
H1716 C1724 0.950 . S
H1717 C1729 0.950 . S
H1718 C1726 0.950 . S
H1719 C1728 0.950 . S
H1720 C1730 0.950 . S
H1721 C1732 0.950 . S
H1722 C1734 0.950 . S
H1723 C1735 0.950 . S
C1724 H1716 0.950 . S
C1724 C1725 1.386 . S
C1724 C1726 1.391 . S
C1725 C1724 1.386 . S
C1725 C1729 1.393 . S
C1726 H1718 0.950 . S
C1726 C1724 1.391 . S
C1726 C1727 1.400 . S
C1727 C1726 1.400 . S
C1727 C1728 1.398 . S
C1727 C1733 1.491 . S
C1728 H1719 0.950 . S
C1728 C1727 1.398 . S
C1728 C1729 1.391 . S
C1729 H1717 0.950 . S
C1729 C1725 1.393 . S
C1729 C1728 1.391 . S
C1730 H1720 0.950 . S
C1730 C1731 1.386 . S
C1730 C1732 1.391 . S
C1731 C1730 1.386 . S
C1731 C1735 1.393 . S
C1732 H1721 0.950 . S
C1732 C1730 1.391 . S
C1732 C1733 1.400 . S
C1733 C1727 1.491 . S
C1733 C1732 1.400 . S
C1733 C1734 1.398 . S
C1734 H1722 0.950 . S
C1734 C1733 1.398 . S
C1734 C1735 1.391 . S
C1735 H1723 0.950 . S
C1735 C1731 1.393 . S
C1735 C1734 1.391 . S
H1736 C1744 0.950 . S
H1737 C1749 0.950 . S
H1738 C1746 0.950 . S
H1739 C1748 0.950 . S
H1740 C1750 0.950 . S
H1741 C1752 0.950 . S
H1742 C1754 0.950 . S
H1743 C1755 0.950 . S
C1744 H1736 0.950 . S
C1744 C1745 1.386 . S
C1744 C1746 1.391 . S
C1745 C1744 1.386 . S
C1745 C1749 1.393 . S
C1746 H1738 0.950 . S
C1746 C1744 1.391 . S
C1746 C1747 1.400 . S
C1747 C1746 1.400 . S
C1747 C1748 1.398 . S
C1747 C1753 1.491 . S
C1748 H1739 0.950 . S
C1748 C1747 1.398 . S
C1748 C1749 1.391 . S
C1749 H1737 0.950 . S
C1749 C1745 1.393 . S
C1749 C1748 1.391 . S
C1750 H1740 0.950 . S
C1750 C1751 1.386 . S
C1750 C1752 1.391 . S
C1751 C1750 1.386 . S
C1751 C1755 1.393 . S
C1752 H1741 0.950 . S
C1752 C1750 1.391 . S
C1752 C1753 1.400 . S
C1753 C1747 1.491 . S
C1753 C1752 1.400 . S
C1753 C1754 1.398 . S
C1754 H1742 0.950 . S
C1754 C1753 1.398 . S
C1754 C1755 1.391 . S
C1755 H1743 0.950 . S
C1755 C1751 1.393 . S
C1755 C1754 1.391 . S
H1756 C1764 0.950 . S
H1757 C1769 0.950 . S
H1758 C1766 0.950 . S
H1759 C1768 0.950 . S
H1760 C1770 0.950 . S
H1761 C1772 0.950 . S
H1762 C1774 0.950 . S
H1763 C1775 0.950 . S
C1764 H1756 0.950 . S
C1764 C1765 1.386 . S
C1764 C1766 1.391 . S
C1765 C1764 1.386 . S
C1765 C1769 1.393 . S
C1766 H1758 0.950 . S
C1766 C1764 1.391 . S
C1766 C1767 1.400 . S
C1767 C1766 1.400 . S
C1767 C1768 1.398 . S
C1767 C1773 1.491 . S
C1768 H1759 0.950 . S
C1768 C1767 1.398 . S
C1768 C1769 1.391 . S
C1769 H1757 0.950 . S
C1769 C1765 1.393 . S
C1769 C1768 1.391 . S
C1770 H1760 0.950 . S
C1770 C1771 1.386 . S
C1770 C1772 1.391 . S
C1771 C1770 1.386 . S
C1771 C1775 1.393 . S
C1772 H1761 0.950 . S
C1772 C1770 1.391 . S
C1772 C1773 1.400 . S
C1773 C1767 1.491 . S
C1773 C1772 1.400 . S
C1773 C1774 1.398 . S
C1774 H1762 0.950 . S
C1774 C1773 1.398 . S
C1774 C1775 1.391 . S
C1775 H1763 0.950 . S
C1775 C1771 1.393 . S
C1775 C1774 1.391 . S
H1776 C1784 0.950 . S
H1777 C1789 0.950 . S
H1778 C1786 0.950 . S
H1779 C1788 0.950 . S
H1780 C1790 0.950 . S
H1781 C1792 0.950 . S
H1782 C1794 0.950 . S
H1783 C1795 0.950 . S
C1784 H1776 0.950 . S
C1784 C1785 1.386 . S
C1784 C1786 1.391 . S
C1785 C1784 1.386 . S
C1785 C1789 1.393 . S
C1786 H1778 0.950 . S
C1786 C1784 1.391 . S
C1786 C1787 1.400 . S
C1787 C1786 1.400 . S
C1787 C1788 1.398 . S
C1787 C1793 1.491 . S
C1788 H1779 0.950 . S
C1788 C1787 1.398 . S
C1788 C1789 1.391 . S
C1789 H1777 0.950 . S
C1789 C1785 1.393 . S
C1789 C1788 1.391 . S
C1790 H1780 0.950 . S
C1790 C1791 1.386 . S
C1790 C1792 1.391 . S
C1791 C1790 1.386 . S
C1791 C1795 1.393 . S
C1792 H1781 0.950 . S
C1792 C1790 1.391 . S
C1792 C1793 1.400 . S
C1793 C1787 1.491 . S
C1793 C1792 1.400 . S
C1793 C1794 1.398 . S
C1794 H1782 0.950 . S
C1794 C1793 1.398 . S
C1794 C1795 1.391 . S
C1795 H1783 0.950 . S
C1795 C1791 1.393 . S
C1795 C1794 1.391 . S
H1796 C1804 0.950 . S
H1797 C1809 0.950 . S
H1798 C1806 0.950 . S
H1799 C1808 0.950 . S
H1800 C1810 0.950 . S
H1801 C1812 0.950 . S
H1802 C1814 0.950 . S
H1803 C1815 0.950 . S
C1804 H1796 0.950 . S
C1804 C1805 1.386 . S
C1804 C1806 1.391 . S
C1805 C1804 1.386 . S
C1805 C1809 1.393 . S
C1806 H1798 0.950 . S
C1806 C1804 1.391 . S
C1806 C1807 1.400 . S
C1807 C1806 1.400 . S
C1807 C1808 1.398 . S
C1807 C1813 1.491 . S
C1808 H1799 0.950 . S
C1808 C1807 1.398 . S
C1808 C1809 1.391 . S
C1809 H1797 0.950 . S
C1809 C1805 1.393 . S
C1809 C1808 1.391 . S
C1810 H1800 0.950 . S
C1810 C1811 1.386 . S
C1810 C1812 1.391 . S
C1811 C1810 1.386 . S
C1811 C1815 1.393 . S
C1812 H1801 0.950 . S
C1812 C1810 1.391 . S
C1812 C1813 1.400 . S
C1813 C1807 1.491 . S
C1813 C1812 1.400 . S
C1813 C1814 1.398 . S
C1814 H1802 0.950 . S
C1814 C1813 1.398 . S
C1814 C1815 1.391 . S
C1815 H1803 0.950 . S
C1815 C1811 1.393 . S
C1815 C1814 1.391 . S
H1816 C1824 0.950 . S
H1817 C1829 0.950 . S
H1818 C1826 0.950 . S
H1819 C1828 0.950 . S
H1820 C1830 0.950 . S
H1821 C1832 0.950 . S
H1822 C1834 0.950 . S
H1823 C1835 0.950 . S
C1824 H1816 0.950 . S
C1824 C1825 1.386 . S
C1824 C1826 1.391 . S
C1825 C1824 1.386 . S
C1825 C1829 1.393 . S
C1826 H1818 0.950 . S
C1826 C1824 1.391 . S
C1826 C1827 1.400 . S
C1827 C1826 1.400 . S
C1827 C1828 1.398 . S
C1827 C1833 1.491 . S
C1828 H1819 0.950 . S
C1828 C1827 1.398 . S
C1828 C1829 1.391 . S
C1829 H1817 0.950 . S
C1829 C1825 1.393 . S
C1829 C1828 1.391 . S
C1830 H1820 0.950 . S
C1830 C1831 1.386 . S
C1830 C1832 1.391 . S
C1831 C1830 1.386 . S
C1831 C1835 1.393 . S
C1832 H1821 0.950 . S
C1832 C1830 1.391 . S
C1832 C1833 1.400 . S
C1833 C1827 1.491 . S
C1833 C1832 1.400 . S
C1833 C1834 1.398 . S
C1834 H1822 0.950 . S
C1834 C1833 1.398 . S
C1834 C1835 1.391 . S
C1835 H1823 0.950 . S
C1835 C1831 1.393 . S
C1835 C1834 1.391 . S
H1836 C1844 0.950 . S
H1837 C1849 0.950 . S
H1838 C1846 0.950 . S
H1839 C1848 0.950 . S
H1840 C1850 0.950 . S
H1841 C1852 0.950 . S
H1842 C1854 0.950 . S
H1843 C1855 0.950 . S
C1844 H1836 0.950 . S
C1844 C1845 1.386 . S
C1844 C1846 1.391 . S
C1845 C1844 1.386 . S
C1845 C1849 1.393 . S
C1846 H1838 0.950 . S
C1846 C1844 1.391 . S
C1846 C1847 1.400 . S
C1847 C1846 1.400 . S
C1847 C1848 1.398 . S
C1847 C1853 1.491 . S
C1848 H1839 0.950 . S
C1848 C1847 1.398 . S
C1848 C1849 1.391 . S
C1849 H1837 0.950 . S
C1849 C1845 1.393 . S
C1849 C1848 1.391 . S
C1850 H1840 0.950 . S
C1850 C1851 1.386 . S
C1850 C1852 1.391 . S
C1851 C1850 1.386 . S
C1851 C1855 1.393 . S
C1852 H1841 0.950 . S
C1852 C1850 1.391 . S
C1852 C1853 1.400 . S
C1853 C1847 1.491 . S
C1853 C1852 1.400 . S
C1853 C1854 1.398 . S
C1854 H1842 0.950 . S
C1854 C1853 1.398 . S
C1854 C1855 1.391 . S
C1855 H1843 0.950 . S
C1855 C1851 1.393 . S
C1855 C1854 1.391 . S
H1856 C1864 0.950 . S
H1857 C1869 0.950 . S
H1858 C1866 0.950 . S
H1859 C1868 0.950 . S
H1860 C1870 0.950 . S
H1861 C1872 0.950 . S
H1862 C1874 0.950 . S
H1863 C1875 0.950 . S
C1864 H1856 0.950 . S
C1864 C1865 1.386 . S
C1864 C1866 1.391 . S
C1865 C1864 1.386 . S
C1865 C1869 1.393 . S
C1866 H1858 0.950 . S
C1866 C1864 1.391 . S
C1866 C1867 1.400 . S
C1867 C1866 1.400 . S
C1867 C1868 1.398 . S
C1867 C1873 1.491 . S
C1868 H1859 0.950 . S
C1868 C1867 1.398 . S
C1868 C1869 1.391 . S
C1869 H1857 0.950 . S
C1869 C1865 1.393 . S
C1869 C1868 1.391 . S
C1870 H1860 0.950 . S
C1870 C1871 1.386 . S
C1870 C1872 1.391 . S
C1871 C1870 1.386 . S
C1871 C1875 1.393 . S
C1872 H1861 0.950 . S
C1872 C1870 1.391 . S
C1872 C1873 1.400 . S
C1873 C1867 1.491 . S
C1873 C1872 1.400 . S
C1873 C1874 1.398 . S
C1874 H1862 0.950 . S
C1874 C1873 1.398 . S
C1874 C1875 1.391 . S
C1875 H1863 0.950 . S
C1875 C1871 1.393 . S
C1875 C1874 1.391 . S
H1876 C1884 0.950 . S
H1877 C1889 0.950 . S
H1878 C1886 0.950 . S
H1879 C1888 0.950 . S
H1880 C1890 0.950 . S
H1881 C1892 0.950 . S
H1882 C1894 0.950 . S
H1883 C1895 0.950 . S
C1884 H1876 0.950 . S
C1884 C1885 1.386 . S
C1884 C1886 1.391 . S
C1885 C1884 1.386 . S
C1885 C1889 1.393 . S
C1886 H1878 0.950 . S
C1886 C1884 1.391 . S
C1886 C1887 1.400 . S
C1887 C1886 1.400 . S
C1887 C1888 1.398 . S
C1887 C1893 1.491 . S
C1888 H1879 0.950 . S
C1888 C1887 1.398 . S
C1888 C1889 1.391 . S
C1889 H1877 0.950 . S
C1889 C1885 1.393 . S
C1889 C1888 1.391 . S
C1890 H1880 0.950 . S
C1890 C1891 1.386 . S
C1890 C1892 1.391 . S
C1891 C1890 1.386 . S
C1891 C1895 1.393 . S
C1892 H1881 0.950 . S
C1892 C1890 1.391 . S
C1892 C1893 1.400 . S
C1893 C1887 1.491 . S
C1893 C1892 1.400 . S
C1893 C1894 1.398 . S
C1894 H1882 0.950 . S
C1894 C1893 1.398 . S
C1894 C1895 1.391 . S
C1895 H1883 0.950 . S
C1895 C1891 1.393 . S
C1895 C1894 1.391 . S
H1896 C1904 0.950 . S
H1897 C1909 0.950 . S
H1898 C1906 0.950 . S
H1899 C1908 0.950 . S
H1900 C1910 0.950 . S
H1901 C1912 0.950 . S
H1902 C1914 0.950 . S
H1903 C1915 0.950 . S
C1904 H1896 0.950 . S
C1904 C1905 1.386 . S
C1904 C1906 1.391 . S
C1905 C1904 1.386 . S
C1905 C1909 1.393 . S
C1906 H1898 0.950 . S
C1906 C1904 1.391 . S
C1906 C1907 1.400 . S
C1907 C1906 1.400 . S
C1907 C1908 1.398 . S
C1907 C1913 1.491 . S
C1908 H1899 0.950 . S
C1908 C1907 1.398 . S
C1908 C1909 1.391 . S
C1909 H1897 0.950 . S
C1909 C1905 1.393 . S
C1909 C1908 1.391 . S
C1910 H1900 0.950 . S
C1910 C1911 1.386 . S
C1910 C1912 1.391 . S
C1911 C1910 1.386 . S
C1911 C1915 1.393 . S
C1912 H1901 0.950 . S
C1912 C1910 1.391 . S
C1912 C1913 1.400 . S
C1913 C1907 1.491 . S
C1913 C1912 1.400 . S
C1913 C1914 1.398 . S
C1914 H1902 0.950 . S
C1914 C1913 1.398 . S
C1914 C1915 1.391 . S
C1915 H1903 0.950 . S
C1915 C1911 1.393 . S
C1915 C1914 1.391 . S
H1916 C1924 0.950 . S
H1917 C1929 0.950 . S
H1918 C1926 0.950 . S
H1919 C1928 0.950 . S
H1920 C1930 0.950 . S
H1921 C1932 0.950 . S
H1922 C1934 0.950 . S
H1923 C1935 0.950 . S
C1924 H1916 0.950 . S
C1924 C1925 1.386 . S
C1924 C1926 1.391 . S
C1925 C1924 1.386 . S
C1925 C1929 1.393 . S
C1926 H1918 0.950 . S
C1926 C1924 1.391 . S
C1926 C1927 1.400 . S
C1927 C1926 1.400 . S
C1927 C1928 1.398 . S
C1927 C1933 1.491 . S
C1928 H1919 0.950 . S
C1928 C1927 1.398 . S
C1928 C1929 1.391 . S
C1929 H1917 0.950 . S
C1929 C1925 1.393 . S
C1929 C1928 1.391 . S
C1930 H1920 0.950 . S
C1930 C1931 1.386 . S
C1930 C1932 1.391 . S
C1931 C1930 1.386 . S
C1931 C1935 1.393 . S
C1932 H1921 0.950 . S
C1932 C1930 1.391 . S
C1932 C1933 1.400 . S
C1933 C1927 1.491 . S
C1933 C1932 1.400 . S
C1933 C1934 1.398 . S
C1934 H1922 0.950 . S
C1934 C1933 1.398 . S
C1934 C1935 1.391 . S
C1935 H1923 0.950 . S
C1935 C1931 1.393 . S
C1935 C1934 1.391 . S
H1936 C1944 0.950 . S
H1937 C1949 0.950 . S
H1938 C1946 0.950 . S
H1939 C1948 0.950 . S
H1940 C1950 0.950 . S
H1941 C1952 0.950 . S
H1942 C1954 0.950 . S
H1943 C1955 0.950 . S
C1944 H1936 0.950 . S
C1944 C1945 1.386 . S
C1944 C1946 1.391 . S
C1945 C1944 1.386 . S
C1945 C1949 1.393 . S
C1946 H1938 0.950 . S
C1946 C1944 1.391 . S
C1946 C1947 1.400 . S
C1947 C1946 1.400 . S
C1947 C1948 1.398 . S
C1947 C1953 1.491 . S
C1948 H1939 0.950 . S
C1948 C1947 1.398 . S
C1948 C1949 1.391 . S
C1949 H1937 0.950 . S
C1949 C1945 1.393 . S
C1949 C1948 1.391 . S
C1950 H1940 0.950 . S
C1950 C1951 1.386 . S
C1950 C1952 1.391 . S
C1951 C1950 1.386 . S
C1951 C1955 1.393 . S
C1952 H1941 0.950 . S
C1952 C1950 1.391 . S
C1952 C1953 1.400 . S
C1953 C1947 1.491 . S
C1953 C1952 1.400 . S
C1953 C1954 1.398 . S
C1954 H1942 0.950 . S
C1954 C1953 1.398 . S
C1954 C1955 1.391 . S
C1955 H1943 0.950 . S
C1955 C1951 1.393 . S
C1955 C1954 1.391 . S
H1956 C1964 0.950 . S
H1957 C1969 0.950 . S
H1958 C1966 0.950 . S
H1959 C1968 0.950 . S
H1960 C1970 0.950 . S
H1961 C1972 0.950 . S
H1962 C1974 0.950 . S
H1963 C1975 0.950 . S
C1964 H1956 0.950 . S
C1964 C1965 1.386 . S
C1964 C1966 1.391 . S
C1965 C1964 1.386 . S
C1965 C1969 1.393 . S
C1966 H1958 0.950 . S
C1966 C1964 1.391 . S
C1966 C1967 1.400 . S
C1967 C1966 1.400 . S
C1967 C1968 1.398 . S
C1967 C1973 1.491 . S
C1968 H1959 0.950 . S
C1968 C1967 1.398 . S
C1968 C1969 1.391 . S
C1969 H1957 0.950 . S
C1969 C1965 1.393 . S
C1969 C1968 1.391 . S
C1970 H1960 0.950 . S
C1970 C1971 1.386 . S
C1970 C1972 1.391 . S
C1971 C1970 1.386 . S
C1971 C1975 1.393 . S
C1972 H1961 0.950 . S
C1972 C1970 1.391 . S
C1972 C1973 1.400 . S
C1973 C1967 1.491 . S
C1973 C1972 1.400 . S
C1973 C1974 1.398 . S
C1974 H1962 0.950 . S
C1974 C1973 1.398 . S
C1974 C1975 1.391 . S
C1975 H1963 0.950 . S
C1975 C1971 1.393 . S
C1975 C1974 1.391 . S
H1976 C1984 0.950 . S
H1977 C1989 0.950 . S
H1978 C1986 0.950 . S
H1979 C1988 0.950 . S
H1980 C1990 0.950 . S
H1981 C1992 0.950 . S
H1982 C1994 0.950 . S
H1983 C1995 0.950 . S
C1984 H1976 0.950 . S
C1984 C1985 1.386 . S
C1984 C1986 1.391 . S
C1985 C1984 1.386 . S
C1985 C1989 1.393 . S
C1986 H1978 0.950 . S
C1986 C1984 1.391 . S
C1986 C1987 1.400 . S
C1987 C1986 1.400 . S
C1987 C1988 1.398 . S
C1987 C1993 1.491 . S
C1988 H1979 0.950 . S
C1988 C1987 1.398 . S
C1988 C1989 1.391 . S
C1989 H1977 0.950 . S
C1989 C1985 1.393 . S
C1989 C1988 1.391 . S
C1990 H1980 0.950 . S
C1990 C1991 1.386 . S
C1990 C1992 1.391 . S
C1991 C1990 1.386 . S
C1991 C1995 1.393 . S
C1992 H1981 0.950 . S
C1992 C1990 1.391 . S
C1992 C1993 1.400 . S
C1993 C1987 1.491 . S
C1993 C1992 1.400 . S
C1993 C1994 1.398 . S
C1994 H1982 0.950 . S
C1994 C1993 1.398 . S
C1994 C1995 1.391 . S
C1995 H1983 0.950 . S
C1995 C1991 1.393 . S
C1995 C1994 1.391 . S
H1996 C2004 0.950 1_554 S
H1997 C2009 0.950 . S
H1998 C2006 0.950 . S
H1999 C2008 0.950 . S
H2000 C2010 0.950 . S
H2001 C2012 0.950 . S
H2002 C2014 0.950 . S
H2003 C2015 0.950 . S
C2004 H1996 0.950 1_556 S
C2004 C2005 1.386 . S
C2004 C2006 1.391 . S
C2005 C2004 1.386 . S
C2005 C2009 1.393 . S
C2006 H1998 0.950 . S
C2006 C2004 1.391 . S
C2006 C2007 1.400 . S
C2007 C2006 1.400 . S
C2007 C2008 1.398 . S
C2007 C2013 1.491 . S
C2008 H1999 0.950 . S
C2008 C2007 1.398 . S
C2008 C2009 1.391 . S
C2009 H1997 0.950 . S
C2009 C2005 1.393 . S
C2009 C2008 1.391 . S
C2010 H2000 0.950 . S
C2010 C2011 1.386 . S
C2010 C2012 1.391 . S
C2011 C2010 1.386 . S
C2011 C2015 1.393 . S
C2012 H2001 0.950 . S
C2012 C2010 1.391 . S
C2012 C2013 1.400 . S
C2013 C2007 1.491 . S
C2013 C2012 1.400 . S
C2013 C2014 1.398 . S
C2014 H2002 0.950 . S
C2014 C2013 1.398 . S
C2014 C2015 1.391 . S
C2015 H2003 0.950 . S
C2015 C2011 1.393 . S
C2015 C2014 1.391 . S
H2016 C2024 0.950 . S
H2017 C2029 0.950 . S
H2018 C2026 0.950 . S
H2019 C2028 0.950 . S
H2020 C2030 0.950 . S
H2021 C2032 0.950 . S
H2022 C2034 0.950 . S
H2023 C2035 0.950 . S
C2024 H2016 0.950 . S
C2024 C2025 1.386 . S
C2024 C2026 1.391 . S
C2025 C2024 1.386 . S
C2025 C2029 1.393 . S
C2026 H2018 0.950 . S
C2026 C2024 1.391 . S
C2026 C2027 1.400 . S
C2027 C2026 1.400 . S
C2027 C2028 1.398 . S
C2027 C2033 1.491 . S
C2028 H2019 0.950 . S
C2028 C2027 1.398 . S
C2028 C2029 1.391 . S
C2029 H2017 0.950 . S
C2029 C2025 1.393 . S
C2029 C2028 1.391 . S
C2030 H2020 0.950 . S
C2030 C2031 1.386 . S
C2030 C2032 1.391 . S
C2031 C2030 1.386 . S
C2031 C2035 1.393 . S
C2032 H2021 0.950 . S
C2032 C2030 1.391 . S
C2032 C2033 1.400 . S
C2033 C2027 1.491 . S
C2033 C2032 1.400 . S
C2033 C2034 1.398 . S
C2034 H2022 0.950 . S
C2034 C2033 1.398 . S
C2034 C2035 1.391 . S
C2035 H2023 0.950 . S
C2035 C2031 1.393 . S
C2035 C2034 1.391 . S
H2036 C2044 0.950 . S
H2037 C2049 0.950 . S
H2038 C2046 0.950 . S
H2039 C2048 0.950 . S
H2040 C2050 0.950 . S
H2041 C2052 0.950 . S
H2042 C2054 0.950 . S
H2043 C2055 0.950 . S
C2044 H2036 0.950 . S
C2044 C2045 1.386 . S
C2044 C2046 1.391 . S
C2045 C2044 1.386 . S
C2045 C2049 1.393 . S
C2046 H2038 0.950 . S
C2046 C2044 1.391 . S
C2046 C2047 1.400 . S
C2047 C2046 1.400 . S
C2047 C2048 1.398 . S
C2047 C2053 1.491 . S
C2048 H2039 0.950 . S
C2048 C2047 1.398 . S
C2048 C2049 1.391 . S
C2049 H2037 0.950 . S
C2049 C2045 1.393 . S
C2049 C2048 1.391 . S
C2050 H2040 0.950 . S
C2050 C2051 1.386 . S
C2050 C2052 1.391 . S
C2051 C2050 1.386 . S
C2051 C2055 1.393 . S
C2052 H2041 0.950 . S
C2052 C2050 1.391 . S
C2052 C2053 1.400 . S
C2053 C2047 1.491 . S
C2053 C2052 1.400 . S
C2053 C2054 1.398 . S
C2054 H2042 0.950 . S
C2054 C2053 1.398 . S
C2054 C2055 1.391 . S
C2055 H2043 0.950 . S
C2055 C2051 1.393 . S
C2055 C2054 1.391 . S
H2056 C2064 0.950 . S
H2057 C2069 0.950 . S
H2058 C2066 0.950 . S
H2059 C2068 0.950 . S
H2060 C2070 0.950 . S
H2061 C2072 0.950 . S
H2062 C2074 0.950 . S
H2063 C2075 0.950 . S
C2064 H2056 0.950 . S
C2064 C2065 1.386 . S
C2064 C2066 1.391 . S
C2065 C2064 1.386 . S
C2065 C2069 1.393 . S
C2066 H2058 0.950 . S
C2066 C2064 1.391 . S
C2066 C2067 1.400 . S
C2067 C2066 1.400 . S
C2067 C2068 1.398 . S
C2067 C2073 1.491 . S
C2068 H2059 0.950 . S
C2068 C2067 1.398 . S
C2068 C2069 1.391 . S
C2069 H2057 0.950 . S
C2069 C2065 1.393 . S
C2069 C2068 1.391 . S
C2070 H2060 0.950 . S
C2070 C2071 1.386 . S
C2070 C2072 1.391 . S
C2071 C2070 1.386 . S
C2071 C2075 1.393 . S
C2072 H2061 0.950 . S
C2072 C2070 1.391 . S
C2072 C2073 1.400 . S
C2073 C2067 1.491 . S
C2073 C2072 1.400 . S
C2073 C2074 1.398 . S
C2074 H2062 0.950 . S
C2074 C2073 1.398 . S
C2074 C2075 1.391 . S
C2075 H2063 0.950 . S
C2075 C2071 1.393 . S
C2075 C2074 1.391 . S
H2076 C2084 0.950 . S
H2077 C2089 0.950 . S
H2078 C2086 0.950 . S
H2079 C2088 0.950 . S
H2080 C2090 0.950 . S
H2081 C2092 0.950 . S
H2082 C2094 0.950 . S
H2083 C2095 0.950 . S
C2084 H2076 0.950 . S
C2084 C2085 1.386 . S
C2084 C2086 1.391 . S
C2085 C2084 1.386 . S
C2085 C2089 1.393 . S
C2086 H2078 0.950 . S
C2086 C2084 1.391 . S
C2086 C2087 1.400 . S
C2087 C2086 1.400 . S
C2087 C2088 1.398 . S
C2087 C2093 1.491 . S
C2088 H2079 0.950 . S
C2088 C2087 1.398 . S
C2088 C2089 1.391 . S
C2089 H2077 0.950 . S
C2089 C2085 1.393 . S
C2089 C2088 1.391 . S
C2090 H2080 0.950 . S
C2090 C2091 1.386 . S
C2090 C2092 1.391 . S
C2091 C2090 1.386 . S
C2091 C2095 1.393 . S
C2092 H2081 0.950 . S
C2092 C2090 1.391 . S
C2092 C2093 1.400 . S
C2093 C2087 1.491 . S
C2093 C2092 1.400 . S
C2093 C2094 1.398 . S
C2094 H2082 0.950 . S
C2094 C2093 1.398 . S
C2094 C2095 1.391 . S
C2095 H2083 0.950 . S
C2095 C2091 1.393 . S
C2095 C2094 1.391 . S
H2096 C2104 0.950 . S
H2097 C2109 0.950 . S
H2098 C2106 0.950 . S
H2099 C2108 0.950 . S
H2100 C2110 0.950 . S
H2101 C2112 0.950 . S
H2102 C2114 0.950 . S
H2103 C2115 0.950 . S
C2104 H2096 0.950 . S
C2104 C2105 1.386 . S
C2104 C2106 1.391 . S
C2105 C2104 1.386 . S
C2105 C2109 1.393 . S
C2106 H2098 0.950 . S
C2106 C2104 1.391 . S
C2106 C2107 1.400 . S
C2107 C2106 1.400 . S
C2107 C2108 1.398 . S
C2107 C2113 1.491 . S
C2108 H2099 0.950 . S
C2108 C2107 1.398 . S
C2108 C2109 1.391 . S
C2109 H2097 0.950 . S
C2109 C2105 1.393 . S
C2109 C2108 1.391 . S
C2110 H2100 0.950 . S
C2110 C2111 1.386 . S
C2110 C2112 1.391 . S
C2111 C2110 1.386 . S
C2111 C2115 1.393 . S
C2112 H2101 0.950 . S
C2112 C2110 1.391 . S
C2112 C2113 1.400 . S
C2113 C2107 1.491 . S
C2113 C2112 1.400 . S
C2113 C2114 1.398 . S
C2114 H2102 0.950 . S
C2114 C2113 1.398 . S
C2114 C2115 1.391 . S
C2115 H2103 0.950 . S
C2115 C2111 1.393 . S
C2115 C2114 1.391 . S
H2116 C2124 0.950 . S
H2117 C2129 0.950 . S
H2118 C2126 0.950 . S
H2119 C2128 0.950 . S
H2120 C2130 0.950 . S
H2121 C2132 0.950 . S
H2122 C2134 0.950 . S
H2123 C2135 0.950 . S
C2124 H2116 0.950 . S
C2124 C2125 1.386 . S
C2124 C2126 1.391 . S
C2125 C2124 1.386 . S
C2125 C2129 1.393 . S
C2126 H2118 0.950 . S
C2126 C2124 1.391 . S
C2126 C2127 1.400 . S
C2127 C2126 1.400 . S
C2127 C2128 1.398 . S
C2127 C2133 1.491 . S
C2128 H2119 0.950 . S
C2128 C2127 1.398 . S
C2128 C2129 1.391 . S
C2129 H2117 0.950 . S
C2129 C2125 1.393 . S
C2129 C2128 1.391 . S
C2130 H2120 0.950 . S
C2130 C2131 1.386 . S
C2130 C2132 1.391 . S
C2131 C2130 1.386 . S
C2131 C2135 1.393 . S
C2132 H2121 0.950 . S
C2132 C2130 1.391 . S
C2132 C2133 1.400 . S
C2133 C2127 1.491 . S
C2133 C2132 1.400 . S
C2133 C2134 1.398 . S
C2134 H2122 0.950 . S
C2134 C2133 1.398 . S
C2134 C2135 1.391 . S
C2135 H2123 0.950 . S
C2135 C2131 1.393 . S
C2135 C2134 1.391 . S
H2136 C2144 0.950 . S
H2137 C2149 0.950 . S
H2138 C2146 0.950 . S
H2139 C2148 0.950 . S
H2140 C2150 0.950 . S
H2141 C2152 0.950 . S
H2142 C2154 0.950 . S
H2143 C2155 0.950 . S
C2144 H2136 0.950 . S
C2144 C2145 1.386 1_655 S
C2144 C2146 1.391 . S
C2145 C2144 1.386 1_455 S
C2145 C2149 1.393 . S
C2146 H2138 0.950 . S
C2146 C2144 1.391 . S
C2146 C2147 1.400 1_655 S
C2147 C2146 1.400 1_455 S
C2147 C2148 1.398 . S
C2147 C2153 1.491 . S
C2148 H2139 0.950 . S
C2148 C2147 1.398 . S
C2148 C2149 1.391 . S
C2149 H2137 0.950 . S
C2149 C2145 1.393 . S
C2149 C2148 1.391 . S
C2150 H2140 0.950 . S
C2150 C2151 1.386 . S
C2150 C2152 1.391 . S
C2151 C2150 1.386 . S
C2151 C2155 1.393 1_455 S
C2152 H2141 0.950 . S
C2152 C2150 1.391 . S
C2152 C2153 1.400 . S
C2153 C2147 1.491 . S
C2153 C2152 1.400 . S
C2153 C2154 1.398 1_455 S
C2154 H2142 0.950 . S
C2154 C2153 1.398 1_655 S
C2154 C2155 1.391 . S
C2155 H2143 0.950 . S
C2155 C2151 1.393 1_655 S
C2155 C2154 1.391 . S
H2156 C2164 0.950 . S
H2157 C2169 0.950 . S
H2158 C2166 0.950 . S
H2159 C2168 0.950 . S
H2160 C2170 0.950 . S
H2161 C2172 0.950 . S
H2162 C2174 0.950 . S
H2163 C2175 0.950 . S
C2164 H2156 0.950 . S
C2164 C2165 1.386 . S
C2164 C2166 1.391 . S
C2165 C2164 1.386 . S
C2165 C2169 1.393 . S
C2166 H2158 0.950 . S
C2166 C2164 1.391 . S
C2166 C2167 1.400 . S
C2167 C2166 1.400 . S
C2167 C2168 1.398 . S
C2167 C2173 1.491 . S
C2168 H2159 0.950 . S
C2168 C2167 1.398 . S
C2168 C2169 1.391 . S
C2169 H2157 0.950 . S
C2169 C2165 1.393 . S
C2169 C2168 1.391 . S
C2170 H2160 0.950 . S
C2170 C2171 1.386 . S
C2170 C2172 1.391 . S
C2171 C2170 1.386 . S
C2171 C2175 1.393 . S
C2172 H2161 0.950 . S
C2172 C2170 1.391 . S
C2172 C2173 1.400 . S
C2173 C2167 1.491 . S
C2173 C2172 1.400 . S
C2173 C2174 1.398 . S
C2174 H2162 0.950 . S
C2174 C2173 1.398 . S
C2174 C2175 1.391 . S
C2175 H2163 0.950 . S
C2175 C2171 1.393 . S
C2175 C2174 1.391 . S
H2176 C2184 0.950 . S
H2177 C2189 0.950 . S
H2178 C2186 0.950 . S
H2179 C2188 0.950 . S
H2180 C2190 0.950 . S
H2181 C2192 0.950 . S
H2182 C2194 0.950 . S
H2183 C2195 0.950 . S
C2184 H2176 0.950 . S
C2184 C2185 1.386 . S
C2184 C2186 1.391 . S
C2185 C2184 1.386 . S
C2185 C2189 1.393 1_565 S
C2186 H2178 0.950 . S
C2186 C2184 1.391 . S
C2186 C2187 1.400 . S
C2187 C2186 1.400 . S
C2187 C2188 1.398 1_565 S
C2187 C2193 1.491 . S
C2188 H2179 0.950 . S
C2188 C2187 1.398 1_545 S
C2188 C2189 1.391 . S
C2189 H2177 0.950 . S
C2189 C2185 1.393 1_545 S
C2189 C2188 1.391 . S
C2190 H2180 0.950 . S
C2190 C2191 1.386 1_545 S
C2190 C2192 1.391 . S
C2191 C2190 1.386 1_565 S
C2191 C2195 1.393 . S
C2192 H2181 0.950 . S
C2192 C2190 1.391 . S
C2192 C2193 1.400 1_545 S
C2193 C2187 1.491 . S
C2193 C2192 1.400 1_565 S
C2193 C2194 1.398 . S
C2194 H2182 0.950 . S
C2194 C2193 1.398 . S
C2194 C2195 1.391 . S
C2195 H2183 0.950 . S
C2195 C2191 1.393 . S
C2195 C2194 1.391 . S
H2196 C2204 0.950 . S
H2197 C2209 0.950 . S
H2198 C2206 0.950 . S
H2199 C2208 0.950 . S
H2200 C2210 0.950 . S
H2201 C2212 0.950 . S
H2202 C2214 0.950 . S
H2203 C2215 0.950 . S
C2204 H2196 0.950 . S
C2204 C2205 1.386 1_545 S
C2204 C2206 1.391 . S
C2205 C2204 1.386 1_565 S
C2205 C2209 1.393 . S
C2206 H2198 0.950 . S
C2206 C2204 1.391 . S
C2206 C2207 1.400 1_545 S
C2207 C2206 1.400 1_565 S
C2207 C2208 1.398 . S
C2207 C2213 1.491 . S
C2208 H2199 0.950 . S
C2208 C2207 1.398 . S
C2208 C2209 1.391 . S
C2209 H2197 0.950 . S
C2209 C2205 1.393 . S
C2209 C2208 1.391 . S
C2210 H2200 0.950 . S
C2210 C2211 1.386 . S
C2210 C2212 1.391 . S
C2211 C2210 1.386 . S
C2211 C2215 1.393 1_565 S
C2212 H2201 0.950 . S
C2212 C2210 1.391 . S
C2212 C2213 1.400 . S
C2213 C2207 1.491 . S
C2213 C2212 1.400 . S
C2213 C2214 1.398 1_565 S
C2214 H2202 0.950 . S
C2214 C2213 1.398 1_545 S
C2214 C2215 1.391 . S
C2215 H2203 0.950 . S
C2215 C2211 1.393 1_545 S
C2215 C2214 1.391 . S
H2216 C2224 0.950 . S
H2217 C2229 0.950 . S
H2218 C2226 0.950 . S
H2219 C2228 0.950 . S
H2220 C2230 0.950 . S
H2221 C2232 0.950 . S
H2222 C2234 0.950 . S
H2223 C2235 0.950 . S
C2224 H2216 0.950 . S
C2224 C2225 1.386 1_655 S
C2224 C2226 1.391 . S
C2225 C2224 1.386 1_455 S
C2225 C2229 1.393 . S
C2226 H2218 0.950 . S
C2226 C2224 1.391 . S
C2226 C2227 1.400 1_655 S
C2227 C2226 1.400 1_455 S
C2227 C2228 1.398 . S
C2227 C2233 1.491 . S
C2228 H2219 0.950 . S
C2228 C2227 1.398 . S
C2228 C2229 1.391 . S
C2229 H2217 0.950 . S
C2229 C2225 1.393 . S
C2229 C2228 1.391 . S
C2230 H2220 0.950 . S
C2230 C2231 1.386 . S
C2230 C2232 1.391 . S
C2231 C2230 1.386 . S
C2231 C2235 1.393 1_455 S
C2232 H2221 0.950 . S
C2232 C2230 1.391 . S
C2232 C2233 1.400 . S
C2233 C2227 1.491 . S
C2233 C2232 1.400 . S
C2233 C2234 1.398 1_455 S
C2234 H2222 0.950 . S
C2234 C2233 1.398 1_655 S
C2234 C2235 1.391 . S
C2235 H2223 0.950 . S
C2235 C2231 1.393 1_655 S
C2235 C2234 1.391 . S
H2236 C2244 0.950 . S
H2237 C2249 0.950 . S
H2238 C2246 0.950 . S
H2239 C2248 0.950 . S
H2240 C2250 0.950 . S
H2241 C2252 0.950 . S
H2242 C2254 0.950 . S
H2243 C2255 0.950 . S
C2244 H2236 0.950 . S
C2244 C2245 1.386 . S
C2244 C2246 1.391 . S
C2245 C2244 1.386 . S
C2245 C2249 1.393 . S
C2246 H2238 0.950 . S
C2246 C2244 1.391 . S
C2246 C2247 1.400 . S
C2247 C2246 1.400 . S
C2247 C2248 1.398 . S
C2247 C2253 1.491 . S
C2248 H2239 0.950 . S
C2248 C2247 1.398 . S
C2248 C2249 1.391 . S
C2249 H2237 0.950 . S
C2249 C2245 1.393 . S
C2249 C2248 1.391 . S
C2250 H2240 0.950 . S
C2250 C2251 1.386 . S
C2250 C2252 1.391 . S
C2251 C2250 1.386 . S
C2251 C2255 1.393 . S
C2252 H2241 0.950 . S
C2252 C2250 1.391 . S
C2252 C2253 1.400 . S
C2253 C2247 1.491 . S
C2253 C2252 1.400 . S
C2253 C2254 1.398 . S
C2254 H2242 0.950 . S
C2254 C2253 1.398 . S
C2254 C2255 1.391 . S
C2255 H2243 0.950 . S
C2255 C2251 1.393 . S
C2255 C2254 1.391 . S
H2256 C2264 0.950 . S
H2257 C2269 0.950 . S
H2258 C2266 0.950 . S
H2259 C2268 0.950 . S
H2260 C2270 0.950 . S
H2261 C2272 0.950 . S
H2262 C2274 0.950 . S
H2263 C2275 0.950 . S
C2264 H2256 0.950 . S
C2264 C2265 1.386 . S
C2264 C2266 1.391 . S
C2265 C2264 1.386 . S
C2265 C2269 1.393 . S
C2266 H2258 0.950 . S
C2266 C2264 1.391 . S
C2266 C2267 1.400 . S
C2267 C2266 1.400 . S
C2267 C2268 1.398 . S
C2267 C2273 1.491 . S
C2268 H2259 0.950 . S
C2268 C2267 1.398 . S
C2268 C2269 1.391 . S
C2269 H2257 0.950 . S
C2269 C2265 1.393 . S
C2269 C2268 1.391 . S
C2270 H2260 0.950 . S
C2270 C2271 1.386 . S
C2270 C2272 1.391 . S
C2271 C2270 1.386 . S
C2271 C2275 1.393 . S
C2272 H2261 0.950 . S
C2272 C2270 1.391 . S
C2272 C2273 1.400 . S
C2273 C2267 1.491 . S
C2273 C2272 1.400 . S
C2273 C2274 1.398 . S
C2274 H2262 0.950 . S
C2274 C2273 1.398 . S
C2274 C2275 1.391 . S
C2275 H2263 0.950 . S
C2275 C2271 1.393 . S
C2275 C2274 1.391 . S
H2276 C2284 0.950 . S
H2277 C2289 0.950 . S
H2278 C2286 0.950 . S
H2279 C2288 0.950 . S
H2280 C2290 0.950 . S
H2281 C2292 0.950 . S
H2282 C2294 0.950 . S
H2283 C2295 0.950 . S
C2284 H2276 0.950 . S
C2284 C2285 1.386 . S
C2284 C2286 1.391 . S
C2285 C2284 1.386 . S
C2285 C2289 1.393 . S
C2286 H2278 0.950 . S
C2286 C2284 1.391 . S
C2286 C2287 1.400 . S
C2287 C2286 1.400 . S
C2287 C2288 1.398 . S
C2287 C2293 1.491 . S
C2288 H2279 0.950 . S
C2288 C2287 1.398 . S
C2288 C2289 1.391 . S
C2289 H2277 0.950 . S
C2289 C2285 1.393 . S
C2289 C2288 1.391 . S
C2290 H2280 0.950 . S
C2290 C2291 1.386 . S
C2290 C2292 1.391 . S
C2291 C2290 1.386 . S
C2291 C2295 1.393 . S
C2292 H2281 0.950 . S
C2292 C2290 1.391 . S
C2292 C2293 1.400 . S
C2293 C2287 1.491 . S
C2293 C2292 1.400 . S
C2293 C2294 1.398 . S
C2294 H2282 0.950 . S
C2294 C2293 1.398 . S
C2294 C2295 1.391 . S
C2295 H2283 0.950 . S
C2295 C2291 1.393 . S
C2295 C2294 1.391 . S
H2296 C2304 0.950 . S
H2297 C2309 0.950 . S
H2298 C2306 0.950 . S
H2299 C2308 0.950 . S
H2300 C2310 0.950 . S
H2301 C2312 0.950 . S
H2302 C2314 0.950 . S
H2303 C2315 0.950 . S
C2304 H2296 0.950 . S
C2304 C2305 1.386 . S
C2304 C2306 1.391 . S
C2305 C2304 1.386 . S
C2305 C2309 1.393 . S
C2306 H2298 0.950 . S
C2306 C2304 1.391 . S
C2306 C2307 1.400 . S
C2307 C2306 1.400 . S
C2307 C2308 1.398 . S
C2307 C2313 1.491 . S
C2308 H2299 0.950 . S
C2308 C2307 1.398 . S
C2308 C2309 1.391 . S
C2309 H2297 0.950 . S
C2309 C2305 1.393 . S
C2309 C2308 1.391 . S
C2310 H2300 0.950 . S
C2310 C2311 1.386 . S
C2310 C2312 1.391 . S
C2311 C2310 1.386 . S
C2311 C2315 1.393 . S
C2312 H2301 0.950 . S
C2312 C2310 1.391 . S
C2312 C2313 1.400 . S
C2313 C2307 1.491 . S
C2313 C2312 1.400 . S
C2313 C2314 1.398 . S
C2314 H2302 0.950 . S
C2314 C2313 1.398 . S
C2314 C2315 1.391 . S
C2315 H2303 0.950 . S
C2315 C2311 1.393 . S
C2315 C2314 1.391 . S
H2316 C2324 0.950 . S
H2317 C2329 0.950 . S
H2318 C2326 0.950 . S
H2319 C2328 0.950 . S
H2320 C2330 0.950 . S
H2321 C2332 0.950 . S
H2322 C2334 0.950 . S
H2323 C2335 0.950 . S
C2324 H2316 0.950 . S
C2324 C2325 1.386 1_565 S
C2324 C2326 1.391 . S
C2325 C2324 1.386 1_545 S
C2325 C2329 1.393 . S
C2326 H2318 0.950 . S
C2326 C2324 1.391 . S
C2326 C2327 1.400 1_565 S
C2327 C2326 1.400 1_545 S
C2327 C2328 1.398 . S
C2327 C2333 1.491 . S
C2328 H2319 0.950 . S
C2328 C2327 1.398 . S
C2328 C2329 1.391 . S
C2329 H2317 0.950 . S
C2329 C2325 1.393 . S
C2329 C2328 1.391 . S
C2330 H2320 0.950 . S
C2330 C2331 1.386 . S
C2330 C2332 1.391 . S
C2331 C2330 1.386 . S
C2331 C2335 1.393 1_545 S
C2332 H2321 0.950 . S
C2332 C2330 1.391 . S
C2332 C2333 1.400 . S
C2333 C2327 1.491 . S
C2333 C2332 1.400 . S
C2333 C2334 1.398 1_545 S
C2334 H2322 0.950 . S
C2334 C2333 1.398 1_565 S
C2334 C2335 1.391 . S
C2335 H2323 0.950 . S
C2335 C2331 1.393 1_565 S
C2335 C2334 1.391 . S
H2336 C2344 0.950 . S
H2337 C2349 0.950 . S
H2338 C2346 0.950 . S
H2339 C2348 0.950 . S
H2340 C2350 0.950 . S
H2341 C2352 0.950 . S
H2342 C2354 0.950 . S
H2343 C2355 0.950 . S
C2344 H2336 0.950 . S
C2344 C2345 1.386 . S
C2344 C2346 1.391 . S
C2345 C2344 1.386 . S
C2345 C2349 1.393 1_655 S
C2346 H2338 0.950 . S
C2346 C2344 1.391 . S
C2346 C2347 1.400 . S
C2347 C2346 1.400 . S
C2347 C2348 1.398 1_655 S
C2347 C2353 1.491 . S
C2348 H2339 0.950 . S
C2348 C2347 1.398 1_455 S
C2348 C2349 1.391 . S
C2349 H2337 0.950 . S
C2349 C2345 1.393 1_455 S
C2349 C2348 1.391 . S
C2350 H2340 0.950 . S
C2350 C2351 1.386 1_455 S
C2350 C2352 1.391 . S
C2351 C2350 1.386 1_655 S
C2351 C2355 1.393 . S
C2352 H2341 0.950 . S
C2352 C2350 1.391 . S
C2352 C2353 1.400 1_455 S
C2353 C2347 1.491 . S
C2353 C2352 1.400 1_655 S
C2353 C2354 1.398 . S
C2354 H2342 0.950 . S
C2354 C2353 1.398 . S
C2354 C2355 1.391 . S
C2355 H2343 0.950 . S
C2355 C2351 1.393 . S
C2355 C2354 1.391 . S
H2356 C2364 0.950 . S
H2357 C2369 0.950 . S
H2358 C2366 0.950 . S
H2359 C2368 0.950 . S
H2360 C2370 0.950 . S
H2361 C2372 0.950 . S
H2362 C2374 0.950 . S
H2363 C2375 0.950 . S
C2364 H2356 0.950 . S
C2364 C2365 1.386 . S
C2364 C2366 1.391 . S
C2365 C2364 1.386 . S
C2365 C2369 1.393 . S
C2366 H2358 0.950 . S
C2366 C2364 1.391 . S
C2366 C2367 1.400 . S
C2367 C2366 1.400 . S
C2367 C2368 1.398 . S
C2367 C2373 1.491 . S
C2368 H2359 0.950 . S
C2368 C2367 1.398 . S
C2368 C2369 1.391 . S
C2369 H2357 0.950 . S
C2369 C2365 1.393 . S
C2369 C2368 1.391 . S
C2370 H2360 0.950 . S
C2370 C2371 1.386 . S
C2370 C2372 1.391 . S
C2371 C2370 1.386 . S
C2371 C2375 1.393 . S
C2372 H2361 0.950 . S
C2372 C2370 1.391 . S
C2372 C2373 1.400 . S
C2373 C2367 1.491 . S
C2373 C2372 1.400 . S
C2373 C2374 1.398 . S
C2374 H2362 0.950 . S
C2374 C2373 1.398 . S
C2374 C2375 1.391 . S
C2375 H2363 0.950 . S
C2375 C2371 1.393 . S
C2375 C2374 1.391 . S
H2376 C2384 0.950 . S
H2377 C2389 0.950 . S
H2378 C2386 0.950 . S
H2379 C2388 0.950 . S
H2380 C2390 0.950 . S
H2381 C2392 0.950 . S
H2382 C2394 0.950 . S
H2383 C2395 0.950 . S
C2384 H2376 0.950 . S
C2384 C2385 1.386 . S
C2384 C2386 1.391 . S
C2385 C2384 1.386 . S
C2385 C2389 1.393 . S
C2386 H2378 0.950 . S
C2386 C2384 1.391 . S
C2386 C2387 1.400 . S
C2387 C2386 1.400 . S
C2387 C2388 1.398 . S
C2387 C2393 1.491 . S
C2388 H2379 0.950 . S
C2388 C2387 1.398 . S
C2388 C2389 1.391 . S
C2389 H2377 0.950 . S
C2389 C2385 1.393 . S
C2389 C2388 1.391 . S
C2390 H2380 0.950 . S
C2390 C2391 1.386 . S
C2390 C2392 1.391 . S
C2391 C2390 1.386 . S
C2391 C2395 1.393 . S
C2392 H2381 0.950 . S
C2392 C2390 1.391 . S
C2392 C2393 1.400 . S
C2393 C2387 1.491 . S
C2393 C2392 1.400 . S
C2393 C2394 1.398 . S
C2394 H2382 0.950 . S
C2394 C2393 1.398 . S
C2394 C2395 1.391 . S
C2395 H2383 0.950 . S
C2395 C2391 1.393 . S
C2395 C2394 1.391 . S
H2396 C2404 0.950 . S
H2397 C2409 0.950 . S
H2398 C2406 0.950 . S
H2399 C2408 0.950 . S
H2400 C2410 0.950 . S
H2401 C2412 0.950 . S
H2402 C2414 0.950 . S
H2403 C2415 0.950 . S
C2404 H2396 0.950 . S
C2404 C2405 1.386 . S
C2404 C2406 1.391 . S
C2405 C2404 1.386 . S
C2405 C2409 1.393 . S
C2406 H2398 0.950 . S
C2406 C2404 1.391 . S
C2406 C2407 1.400 . S
C2407 C2406 1.400 . S
C2407 C2408 1.398 . S
C2407 C2413 1.491 . S
C2408 H2399 0.950 . S
C2408 C2407 1.398 . S
C2408 C2409 1.391 . S
C2409 H2397 0.950 . S
C2409 C2405 1.393 . S
C2409 C2408 1.391 . S
C2410 H2400 0.950 . S
C2410 C2411 1.386 . S
C2410 C2412 1.391 . S
C2411 C2410 1.386 . S
C2411 C2415 1.393 . S
C2412 H2401 0.950 . S
C2412 C2410 1.391 . S
C2412 C2413 1.400 . S
C2413 C2407 1.491 . S
C2413 C2412 1.400 . S
C2413 C2414 1.398 . S
C2414 H2402 0.950 . S
C2414 C2413 1.398 . S
C2414 C2415 1.391 . S
C2415 H2403 0.950 . S
C2415 C2411 1.393 . S
C2415 C2414 1.391 . S
H2416 C2424 0.950 . S
H2417 C2429 0.950 . S
H2418 C2426 0.950 . S
H2419 C2428 0.950 . S
H2420 C2430 0.950 . S
H2421 C2432 0.950 . S
H2422 C2434 0.950 . S
H2423 C2435 0.950 . S
C2424 H2416 0.950 . S
C2424 C2425 1.386 . S
C2424 C2426 1.391 . S
C2425 C2424 1.386 . S
C2425 C2429 1.393 . S
C2426 H2418 0.950 . S
C2426 C2424 1.391 . S
C2426 C2427 1.400 . S
C2427 C2426 1.400 . S
C2427 C2428 1.398 . S
C2427 C2433 1.491 . S
C2428 H2419 0.950 . S
C2428 C2427 1.398 . S
C2428 C2429 1.391 . S
C2429 H2417 0.950 . S
C2429 C2425 1.393 . S
C2429 C2428 1.391 . S
C2430 H2420 0.950 . S
C2430 C2431 1.386 . S
C2430 C2432 1.391 . S
C2431 C2430 1.386 . S
C2431 C2435 1.393 . S
C2432 H2421 0.950 . S
C2432 C2430 1.391 . S
C2432 C2433 1.400 . S
C2433 C2427 1.491 . S
C2433 C2432 1.400 . S
C2433 C2434 1.398 . S
C2434 H2422 0.950 . S
C2434 C2433 1.398 . S
C2434 C2435 1.391 . S
C2435 H2423 0.950 . S
C2435 C2431 1.393 . S
C2435 C2434 1.391 . S
H2436 C2444 0.950 . S
H2437 C2449 0.950 . S
H2438 C2446 0.950 . S
H2439 C2448 0.950 . S
H2440 C2450 0.950 . S
H2441 C2452 0.950 . S
H2442 C2454 0.950 . S
H2443 C2455 0.950 . S
C2444 H2436 0.950 . S
C2444 C2445 1.386 . S
C2444 C2446 1.391 . S
C2445 C2444 1.386 . S
C2445 C2449 1.393 . S
C2446 H2438 0.950 . S
C2446 C2444 1.391 . S
C2446 C2447 1.400 . S
C2447 C2446 1.400 . S
C2447 C2448 1.398 . S
C2447 C2453 1.491 . S
C2448 H2439 0.950 . S
C2448 C2447 1.398 . S
C2448 C2449 1.391 . S
C2449 H2437 0.950 . S
C2449 C2445 1.393 . S
C2449 C2448 1.391 . S
C2450 H2440 0.950 . S
C2450 C2451 1.386 . S
C2450 C2452 1.391 . S
C2451 C2450 1.386 . S
C2451 C2455 1.393 . S
C2452 H2441 0.950 . S
C2452 C2450 1.391 . S
C2452 C2453 1.400 . S
C2453 C2447 1.491 . S
C2453 C2452 1.400 . S
C2453 C2454 1.398 . S
C2454 H2442 0.950 . S
C2454 C2453 1.398 . S
C2454 C2455 1.391 . S
C2455 H2443 0.950 . S
C2455 C2451 1.393 . S
C2455 C2454 1.391 . S
H2456 C2464 0.950 . S
H2457 C2469 0.950 . S
H2458 C2466 0.950 . S
H2459 C2468 0.950 . S
H2460 C2470 0.950 . S
H2461 C2472 0.950 . S
H2462 C2474 0.950 . S
H2463 C2475 0.950 . S
C2464 H2456 0.950 . S
C2464 C2465 1.386 . S
C2464 C2466 1.391 . S
C2465 C2464 1.386 . S
C2465 C2469 1.393 . S
C2466 H2458 0.950 . S
C2466 C2464 1.391 . S
C2466 C2467 1.400 . S
C2467 C2466 1.400 . S
C2467 C2468 1.398 . S
C2467 C2473 1.491 . S
C2468 H2459 0.950 . S
C2468 C2467 1.398 . S
C2468 C2469 1.391 . S
C2469 H2457 0.950 . S
C2469 C2465 1.393 . S
C2469 C2468 1.391 . S
C2470 H2460 0.950 . S
C2470 C2471 1.386 . S
C2470 C2472 1.391 . S
C2471 C2470 1.386 . S
C2471 C2475 1.393 . S
C2472 H2461 0.950 . S
C2472 C2470 1.391 . S
C2472 C2473 1.400 . S
C2473 C2467 1.491 . S
C2473 C2472 1.400 . S
C2473 C2474 1.398 . S
C2474 H2462 0.950 . S
C2474 C2473 1.398 . S
C2474 C2475 1.391 . S
C2475 H2463 0.950 . S
C2475 C2471 1.393 . S
C2475 C2474 1.391 . S
H2476 C2484 0.950 . S
H2477 C2489 0.950 . S
H2478 C2486 0.950 . S
H2479 C2488 0.950 . S
H2480 C2490 0.950 . S
H2481 C2492 0.950 . S
H2482 C2494 0.950 . S
H2483 C2495 0.950 . S
C2484 H2476 0.950 . S
C2484 C2485 1.386 . S
C2484 C2486 1.391 . S
C2485 C2484 1.386 . S
C2485 C2489 1.393 . S
C2486 H2478 0.950 . S
C2486 C2484 1.391 . S
C2486 C2487 1.400 . S
C2487 C2486 1.400 . S
C2487 C2488 1.398 . S
C2487 C2493 1.491 . S
C2488 H2479 0.950 . S
C2488 C2487 1.398 . S
C2488 C2489 1.391 . S
C2489 H2477 0.950 . S
C2489 C2485 1.393 . S
C2489 C2488 1.391 . S
C2490 H2480 0.950 . S
C2490 C2491 1.386 . S
C2490 C2492 1.391 . S
C2491 C2490 1.386 . S
C2491 C2495 1.393 . S
C2492 H2481 0.950 . S
C2492 C2490 1.391 . S
C2492 C2493 1.400 . S
C2493 C2487 1.491 . S
C2493 C2492 1.400 . S
C2493 C2494 1.398 . S
C2494 H2482 0.950 . S
C2494 C2493 1.398 . S
C2494 C2495 1.391 . S
C2495 H2483 0.950 . S
C2495 C2491 1.393 . S
C2495 C2494 1.391 . S
H2496 C2504 0.950 . S
H2497 C2509 0.970 . S
H2498 C2506 0.950 . S
H2499 C2508 0.932 1_455 S
H2500 C2510 0.950 . S
H2501 C2512 0.951 . S
H2502 C2514 0.950 . S
H2503 C2515 0.950 . S
C2504 H2496 0.950 . S
C2504 C2505 1.386 . S
C2504 C2506 1.391 . S
C2505 C2504 1.386 . S
C2505 C2509 1.393 . S
C2506 H2498 0.950 . S
C2506 C2504 1.391 . S
C2506 C2507 1.400 . S
C2507 C2506 1.400 . S
C2507 C2508 1.398 . S
C2507 C2513 1.491 . S
C2508 H2499 0.932 1_655 S
C2508 C2507 1.398 . S
C2508 C2509 1.391 . S
C2509 H2497 0.970 . S
C2509 C2505 1.393 . S
C2509 C2508 1.391 . S
C2510 H2500 0.950 . S
C2510 C2511 1.386 1_455 S
C2510 C2512 1.395 . S
C2511 C2510 1.386 1_655 S
C2511 C2515 1.393 . S
C2512 H2501 0.951 . S
C2512 C2510 1.395 . S
C2512 C2513 1.395 1_455 S
C2513 C2507 1.491 . S
C2513 C2512 1.395 1_655 S
C2513 C2514 1.398 . S
C2514 H2502 0.950 . S
C2514 C2513 1.398 . S
C2514 C2515 1.391 . S
C2515 H2503 0.950 . S
C2515 C2511 1.393 . S
C2515 C2514 1.391 . S
H2516 C2524 0.950 . S
H2517 C2529 0.950 . S
H2518 C2526 0.950 . S
H2519 C2528 0.950 . S
H2520 C2530 0.950 . S
H2521 C2532 0.950 . S
H2522 C2534 0.950 . S
H2523 C2535 0.950 . S
C2524 H2516 0.950 . S
C2524 C2525 1.386 . S
C2524 C2526 1.391 . S
C2525 C2524 1.386 . S
C2525 C2529 1.393 . S
C2526 H2518 0.950 . S
C2526 C2524 1.391 . S
C2526 C2527 1.400 . S
C2527 C2526 1.400 . S
C2527 C2528 1.398 . S
C2527 C2533 1.491 . S
C2528 H2519 0.950 . S
C2528 C2527 1.398 . S
C2528 C2529 1.391 . S
C2529 H2517 0.950 . S
C2529 C2525 1.393 . S
C2529 C2528 1.391 . S
C2530 H2520 0.950 . S
C2530 C2531 1.386 . S
C2530 C2532 1.391 . S
C2531 C2530 1.386 . S
C2531 C2535 1.393 . S
C2532 H2521 0.950 . S
C2532 C2530 1.391 . S
C2532 C2533 1.400 . S
C2533 C2527 1.491 . S
C2533 C2532 1.400 . S
C2533 C2534 1.398 . S
C2534 H2522 0.950 . S
C2534 C2533 1.398 . S
C2534 C2535 1.391 . S
C2535 H2523 0.950 . S
C2535 C2531 1.393 . S
C2535 C2534 1.391 . S
H2536 C2544 0.950 . S
H2537 C2549 0.950 . S
H2538 C2546 0.949 . S
H2539 C2548 0.950 . S
H2540 C2550 0.950 . S
H2541 C2552 0.950 . S
H2542 C2554 0.970 . S
H2543 C2555 0.950 . S
C2544 H2536 0.950 . S
C2544 C2545 1.386 . S
C2544 C2546 1.391 . S
C2545 C2544 1.386 . S
C2545 C2549 1.393 . S
C2546 H2538 0.949 . S
C2546 C2544 1.391 . S
C2546 C2547 1.400 . S
C2547 C2546 1.400 . S
C2547 C2548 1.398 . S
C2547 C2553 1.491 . S
C2548 H2539 0.950 . S
C2548 C2547 1.398 . S
C2548 C2549 1.391 . S
C2549 H2537 0.950 . S
C2549 C2545 1.393 . S
C2549 C2548 1.391 . S
C2550 H2540 0.950 . S
C2550 C2551 1.386 . S
C2550 C2552 1.391 . S
C2551 C2550 1.386 . S
C2551 C2555 1.393 1_545 S
C2552 H2541 0.950 . S
C2552 C2550 1.391 . S
C2552 C2553 1.400 . S
C2553 C2547 1.491 . S
C2553 C2552 1.400 . S
C2553 C2554 1.391 1_545 S
C2554 H2542 0.970 . S
C2554 C2553 1.391 1_565 S
C2554 C2555 1.379 . S
C2555 H2543 0.950 . S
C2555 C2551 1.393 1_565 S
C2555 C2554 1.379 . S
C1125 C7 1.461 . S
C1131 C729 1.484 . S
C1145 C23 1.598 . S
C1151 C777 1.602 . S
C1171 C825 1.498 . S
C1165 C37 1.469 . S
C1185 C35 1.490 1_545 S
C1191 C849 1.498 . S
C1205 C9 1.476 . S
C1211 C921 1.510 . S
C1225 C21 1.571 . S
C1231 C969 1.604 . S
C1245 C49 1.471 . S
C1251 C897 1.482 . S
C1271 C945 1.607 . S
C1265 C65 1.594 . S
C1291 C873 1.509 . S
C1285 C79 1.503 1_565 S
C1305 C77 1.445 . S
C1311 C801 1.477 . S
C1331 C705 1.522 . S
C1325 C51 1.501 1_655 S
C1345 C63 1.573 . S
C1351 C753 1.614 . S
C1365 C91 1.651 . S
C1371 C1017 1.678 . S
C1385 C107 1.664 . S
C1391 C1065 1.664 . S
C1411 C1089 1.652 . S
C1405 C121 1.668 . S
C1425 C119 1.615 . S
C1431 C273 1.634 . S
C1445 C93 1.667 . S
C1451 C345 1.666 . S
C1465 C105 1.613 . S
C1471 C393 1.642 . S
C1485 C133 1.570 . S
C1491 C321 1.600 . S
C1505 C149 1.649 . S
C1511 C369 1.636 . S
C1531 C297 1.622 . S
C1525 C163 1.665 . S
C1551 C1113 1.679 . S
C1545 C161 1.690 . S
C1571 C993 1.657 . S
C1565 C135 1.655 . S
C1591 C1041 1.679 . S
C1585 C147 1.649 . S
C1605 C175 1.560 . S
C1611 C441 1.603 . S
C1625 C191 1.630 . S
C1631 C489 1.636 . S
C1645 C205 1.661 . S
C1651 C513 1.657 . S
C1665 C203 1.679 . S
C1671 C561 1.710 . S
C1691 C633 1.658 . S
C1685 C177 1.665 . S
C1711 C681 1.685 . S
C1705 C189 1.633 . S
C1731 C609 1.685 . S
C1725 C217 1.653 . S
C1751 C657 1.667 . S
C1745 C233 1.676 . S
C1765 C247 1.664 . S
C1771 C585 1.615 . S
C1791 C537 1.599 . S
C1785 C245 1.608 . S
C1805 C219 1.666 . S
C1811 C417 1.662 . S
C1831 C465 1.649 . S
C1825 C231 1.613 . S
C1851 C282 1.602 . S
C1845 C8 1.603 . S
C1865 C17 1.519 . S
C1871 C336 1.500 . S
C1891 C384 1.585 . S
C1885 C31 1.600 . S
C1911 C432 1.595 . S
C1905 C36 1.620 . S
C1931 C480 1.564 . S
C1925 C3 1.579 . S
C1951 C522 1.527 . S
C1945 C22 1.528 . S
C1965 C50 1.615 . S
C1971 C528 1.612 . S
C1985 C59 1.517 . S
C1991 C426 1.488 . S
C2005 C73 1.576 . S
C2011 C474 1.542 . S
C2025 C78 1.640 . S
C2031 C330 1.617 . S
C2051 C378 1.560 . S
C2045 C45 1.582 . S
C2065 C64 1.538 . S
C2071 C288 1.527 . S
C2091 C570 1.578 . S
C2085 C92 1.579 . S
C2105 C101 1.649 . S
C2111 C624 1.630 . S
C2125 C115 1.661 . S
C2131 C672 1.631 . S
C2151 C720 1.443 . S
C2145 C120 1.445 . S
C2165 C87 1.571 . S
C2171 C768 1.552 . S
C2185 C106 1.405 . S
C2191 C816 1.413 . S
C2205 C134 1.424 . S
C2211 C810 1.427 . S
C2225 C143 1.429 . S
C2231 C714 1.432 . S
C2251 C762 1.548 . S
C2245 C157 1.582 . S
C2265 C162 1.589 . S
C2271 C618 1.546 . S
C2285 C129 1.654 . S
C2291 C666 1.620 . S
C2311 C576 1.628 . S
C2305 C148 1.648 . S
C2331 C858 1.432 . S
C2325 C176 1.425 . S
C2345 C185 1.426 . S
C2351 C912 1.426 . S
C2365 C199 1.582 . S
C2371 C960 1.566 . S
C2391 C1008 1.551 . S
C2385 C204 1.580 . S
C2411 C1056 1.632 . S
C2405 C171 1.654 . S
C2425 C190 1.651 . S
C2431 C1098 1.649 . S
C2445 C218 1.586 . S
C2451 C1104 1.570 . S
C2465 C227 1.646 . S
C2471 C1002 1.617 . S
C2491 C1050 1.623 . S
C2485 C241 1.649 . S
C2511 C906 1.437 . S
C2505 C246 1.429 . S
C2531 C954 1.556 . S
C2525 C213 1.583 . S
C2545 C232 1.413 . S
C2551 C864 1.418 . S
