# Generated by pormake.
# Topology ssa, (4,4)-cn, num edge types: 1
# Building blocks:
#     Node 0, Type 0, BuildingBlock: GIZVER_clean_linker_0, # of connection points: 4
#     Node 1, Type 0, BuildingBlock: GIZVER_clean_linker_0, # of connection points: 4
#     Node 2, Type 0, BuildingBlock: GIZVER_clean_linker_0, # of connection points: 4
#     Node 3, Type 0, BuildingBlock: GIZVER_clean_linker_0, # of connection points: 4
#     Node 4, Type 0, BuildingBlock: GIZVER_clean_linker_0, # of connection points: 4
#     Node 5, Type 0, BuildingBlock: GIZVER_clean_linker_0, # of connection points: 4
#     Node 6, Type 1, BuildingBlock: MUDLON_clean_sbu_0, # of connection points: 4
#     Node 7, Type 1, BuildingBlock: MUDLON_clean_sbu_0, # of connection points: 4
#     Node 8, Type 1, BuildingBlock: MUDLON_clean_sbu_0, # of connection points: 4
#     Node 9, Type 1, BuildingBlock: MUDLON_clean_sbu_0, # of connection points: 4
#     Node 10, Type 1, BuildingBlock: MUDLON_clean_sbu_0, # of connection points: 4
#     Node 11, Type 1, BuildingBlock: MUDLON_clean_sbu_0, # of connection points: 4
#     Edge 12, Type (0, 1), BuildingBlock: XUDNAN_clean_linker_2, # of connection points: 2
#     Edge 13, Type (0, 1), BuildingBlock: XUDNAN_clean_linker_2, # of connection points: 2
#     Edge 14, Type (0, 1), BuildingBlock: XUDNAN_clean_linker_2, # of connection points: 2
#     Edge 15, Type (0, 1), BuildingBlock: XUDNAN_clean_linker_2, # of connection points: 2
#     Edge 16, Type (0, 1), BuildingBlock: XUDNAN_clean_linker_2, # of connection points: 2
#     Edge 17, Type (0, 1), BuildingBlock: XUDNAN_clean_linker_2, # of connection points: 2
#     Edge 18, Type (0, 1), BuildingBlock: XUDNAN_clean_linker_2, # of connection points: 2
#     Edge 19, Type (0, 1), BuildingBlock: XUDNAN_clean_linker_2, # of connection points: 2
#     Edge 20, Type (0, 1), BuildingBlock: XUDNAN_clean_linker_2, # of connection points: 2
#     Edge 21, Type (0, 1), BuildingBlock: XUDNAN_clean_linker_2, # of connection points: 2
#     Edge 22, Type (0, 1), BuildingBlock: XUDNAN_clean_linker_2, # of connection points: 2
#     Edge 23, Type (0, 1), BuildingBlock: XUDNAN_clean_linker_2, # of connection points: 2
#     Edge 24, Type (0, 1), BuildingBlock: XUDNAN_clean_linker_2, # of connection points: 2
#     Edge 25, Type (0, 1), BuildingBlock: XUDNAN_clean_linker_2, # of connection points: 2
#     Edge 26, Type (0, 1), BuildingBlock: XUDNAN_clean_linker_2, # of connection points: 2
#     Edge 27, Type (0, 1), BuildingBlock: XUDNAN_clean_linker_2, # of connection points: 2
#     Edge 28, Type (0, 1), BuildingBlock: XUDNAN_clean_linker_2, # of connection points: 2
#     Edge 29, Type (0, 1), BuildingBlock: XUDNAN_clean_linker_2, # of connection points: 2
#     Edge 30, Type (0, 1), BuildingBlock: XUDNAN_clean_linker_2, # of connection points: 2
#     Edge 31, Type (0, 1), BuildingBlock: XUDNAN_clean_linker_2, # of connection points: 2
#     Edge 32, Type (0, 1), BuildingBlock: XUDNAN_clean_linker_2, # of connection points: 2
#     Edge 33, Type (0, 1), BuildingBlock: XUDNAN_clean_linker_2, # of connection points: 2
#     Edge 34, Type (0, 1), BuildingBlock: XUDNAN_clean_linker_2, # of connection points: 2
#     Edge 35, Type (0, 1), BuildingBlock: XUDNAN_clean_linker_2, # of connection points: 2
# Relax obj value: 0.001
# Max RMSD: 0.030
# Mean RMSD: 0.018
data_MOF--net-ssa--node1-MUDLON_clean_sbu_0--node2-GIZVER_clean_linker_0--edge1-XUDNAN_clean_linker_2
_symmetry_space_group_name_H-M    P1
_symmetry_Int_Tables_number       1
_symmetry_cell_setting            triclinic
loop_
_symmetry_equiv_pos_as_xyz
'x, y, z'
_cell_length_a     44.557546
_cell_length_b     44.628626
_cell_length_c     42.041738
_cell_angle_alpha  90.315719
_cell_angle_beta   89.75879
_cell_angle_gamma 120.33033
loop_
_atom_site_label
_atom_site_type_symbol
_atom_site_fract_x
_atom_site_fract_y
_atom_site_fract_z
_atom_type_partial_charge
H0 H 0.04922 0.60034 0.04589 0.0
H1 H 0.07137 0.51689 0.04625 0.0
H2 H 0.07866 0.5722 0.13264 0.0
H3 H 0.07226 0.58248 0.99726 0.0
H4 H 0.06928 0.54136 0.99701 0.0
H5 H 0.01934 0.58755 0.99312 0.0
H6 H 0.93849 0.50541 0.93831 0.0
H7 H 0.01453 0.48905 0.98552 0.0
C8 C 0.05463 0.58266 0.05879 0.0
C9 C 0.06151 0.58766 0.09156 0.0
C10 C 0.05722 0.55647 0.04229 0.0
C11 C 0.06755 0.53585 0.05906 0.0
C12 C 0.07538 0.54127 0.09177 0.0
C13 C 0.07115 0.56653 0.10785 0.0
C14 C 0.05636 0.55546 1.00624 0.0
C15 C 0.02024 0.5396 0.99196 0.0
C16 C 0.00599 0.56074 0.98525 0.0
C17 C 0.97581 0.54805 0.96667 0.0
C18 C 0.95999 0.51397 0.95474 0.0
C19 C 0.97354 0.49222 0.96101 0.0
C20 C 1.00328 0.5051 0.98056 0.0
H21 H 0.55179 0.0363 0.56855 0.0
H22 H 0.44302 0.00466 0.57372 0.0
H23 H 0.51985 0.10343 0.61118 0.0
H24 H 0.50879 0.97712 0.55753 0.0
H25 H 0.46463 0.96176 0.56772 0.0
H26 H 0.52065 0.97212 0.50342 0.0
H27 H 0.4423 0.94667 0.43264 0.0
H28 H 0.42754 0.97474 0.52667 0.0
C29 C 0.53145 0.04206 0.57405 0.0
C30 C 0.54004 0.07325 0.58998 0.0
C31 C 0.49644 0.01752 0.56674 0.0
C32 C 0.47011 0.02426 0.57667 0.0
C33 C 0.47855 0.0556 0.59198 0.0
C34 C 0.5135 0.08009 0.59782 0.0
C35 C 0.48687 0.98191 0.55373 0.0
C36 C 0.4763 0.97619 0.51884 0.0
C37 C 0.49633 0.97008 0.49632 0.0
C38 C 0.48437 0.96004 0.46495 0.0
C39 C 0.45235 0.95633 0.45625 0.0
C40 C 0.43175 0.96187 0.47808 0.0
C41 C 0.44392 0.9718 0.50941 0.0
H42 H 0.53618 0.55124 0.07216 0.0
H43 H 0.4554 0.4435 0.07684 0.0
H44 H 0.43729 0.52243 0.11458 0.0
H45 H 0.55011 0.50499 0.06875 0.0
H46 H 0.51726 0.46047 0.07171 0.0
H47 H 0.58062 0.51346 0.02142 0.0
H48 H 0.53186 0.45356 0.9378 0.0
H49 H 0.46995 0.44202 0.02041 0.0
C50 C 0.50967 0.53156 0.07778 0.0
C51 C 0.48766 0.54126 0.09312 0.0
C52 C 0.49804 0.49627 0.07108 0.0
C53 C 0.46406 0.47078 0.08014 0.0
C54 C 0.44223 0.48031 0.09577 0.0
C55 C 0.45399 0.5154 0.10164 0.0
C56 C 0.52372 0.4854 0.06018 0.0
C57 C 0.52469 0.48027 0.02449 0.0
C58 C 0.55716 0.49556 1.0087 0.0
C59 C 0.55981 0.48642 0.97715 0.0
C60 C 0.52953 0.46224 0.96134 0.0
C61 C 0.49693 0.44625 0.97646 0.0
C62 C 0.49469 0.45536 1.00814 0.0
H63 H 0.01692 0.53989 0.57816 0.0
H64 H 0.01919 0.44475 0.5728 0.0
H65 H 0.94009 0.44876 0.62778 0.0
H66 H 0.07173 0.54072 0.56877 0.0
H67 H 0.07285 0.50161 0.56674 0.0
H68 H 0.06808 0.56804 0.52144 0.0
H69 H 0.07269 0.52519 0.43142 0.0
H70 H 0.05726 0.46687 0.51728 0.0
C71 C 1.00524 0.51262 0.58389 0.0
C72 C 0.97558 0.49652 0.60375 0.0
C73 C 0.02138 0.49427 0.57281 0.0
C74 C 0.00649 0.45887 0.58036 0.0
C75 C 0.97705 0.44252 0.60004 0.0
C76 C 0.96186 0.46139 0.61148 0.0
C77 C 0.05775 0.51389 0.55886 0.0
C78 C 0.05873 0.51557 0.52284 0.0
C79 C 0.06555 0.54639 0.50748 0.0
C80 C 0.07176 0.55036 0.47453 0.0
C81 C 0.06888 0.52231 0.45688 0.0
C82 C 0.0656 0.49265 0.47185 0.0
C83 C 0.05919 0.48898 0.5049 0.0
H84 H 0.55938 0.98245 0.04077 0.0
H85 H 0.4568 0.96877 0.0495 0.0
H86 H 0.50903 0.96059 0.13191 0.0
H87 H 0.51223 0.96031 0.99471 0.0
H88 H 0.47943 0.97162 0.99802 0.0
H89 H 0.57366 0.00481 0.98614 0.0
H90 H 0.59059 0.09984 0.94461 0.0
H91 H 0.49346 0.03184 0.9906 0.0
C92 C 0.53766 0.97868 0.05538 0.0
C93 C 0.53797 0.9729 0.08815 0.0
C94 C 0.50879 0.97821 0.04128 0.0
C95 C 0.4798 0.97092 0.06043 0.0
C96 C 0.47937 0.96389 0.09311 0.0
C97 C 0.509 0.96591 0.10677 0.0
C98 C 0.50645 0.97971 1.0054 0.0
C99 C 0.53133 0.01504 0.9914 0.0
C100 C 0.565 0.02316 0.98185 0.0
C101 C 0.58681 0.05405 0.96536 0.0
C102 C 0.57475 0.07697 0.9589 0.0
C103 C 0.54131 0.06937 0.96782 0.0
C104 C 0.5197 0.03839 0.98433 0.0
H105 H 0.59021 0.56099 0.53984 0.0
H106 H 0.50804 0.45413 0.54345 0.0
H107 H 0.57274 0.50067 0.62479 0.0
H108 H 0.56671 0.51621 0.4906 0.0
H109 H 0.52301 0.48199 0.49382 0.0
H110 H 0.58132 0.57628 0.48389 0.0
H111 H 0.49878 0.5907 0.45051 0.0
H112 H 0.47469 0.49375 0.49314 0.0
C113 C 0.5749 0.53737 0.55325 0.0
C114 C 0.58444 0.53512 0.58474 0.0
C115 C 0.54703 0.50841 0.53819 0.0
C116 C 0.5284 0.47709 0.55517 0.0
C117 C 0.53724 0.47465 0.58666 0.0
C118 C 0.56479 0.50373 0.60127 0.0
C119 C 0.54158 0.50862 0.50264 0.0
C120 C 0.52931 0.5331 0.49216 0.0
C121 C 0.55373 0.56705 0.48227 0.0
C122 C 0.54259 0.58776 0.46737 0.0
C123 C 0.507 0.5751 0.46346 0.0
C124 C 0.48225 0.54127 0.47247 0.0
C125 C 0.49352 0.5204 0.48719 0.0
Mg126 Mg 0.22783 0.43677 0.28112 0.0
C127 C 0.19028 0.4688 0.24753 0.0
O128 O 0.16974 0.45571 0.27232 0.0
C129 C 0.28488 0.45302 0.32741 0.0
O130 O 0.27832 0.42293 0.31575 0.0
C131 C 0.17658 0.3973 0.33579 0.0
O132 O 0.20238 0.39527 0.34844 0.0
O133 O 0.17936 0.40816 0.30742 0.0
O134 O 0.21799 0.46714 0.24617 0.0
O135 O 0.24723 0.40904 0.25293 0.0
C136 C 0.23851 0.40117 0.22397 0.0
O137 O 0.21256 0.40393 0.21269 0.0
O138 O 0.26794 0.46678 0.31665 0.0
Mg139 Mg 0.79583 0.23492 0.78023 0.0
C140 C 0.73327 0.19237 0.73969 0.0
O141 O 0.73879 0.16894 0.75275 0.0
C142 C 0.84806 0.28697 0.82125 0.0
O143 O 0.85695 0.26359 0.81509 0.0
C144 C 0.77292 0.16417 0.81645 0.0
O145 O 0.78308 0.15325 0.79185 0.0
O146 O 0.77658 0.19433 0.81617 0.0
O147 O 0.75268 0.22408 0.74786 0.0
O148 O 0.83915 0.24378 0.74965 0.0
C149 C 0.83565 0.23601 0.72021 0.0
O150 O 0.80448 0.21456 0.70903 0.0
O151 O 0.81992 0.28265 0.80915 0.0
Mg152 Mg 0.58645 0.80845 0.27011 0.0
C153 C 0.61838 0.85204 0.21135 0.0
O154 O 0.60289 0.82109 0.19818 0.0
C155 C 0.59151 0.75934 0.31228 0.0
O156 O 0.56133 0.74112 0.29805 0.0
C157 C 0.55859 0.83114 0.32652 0.0
O158 O 0.57638 0.82034 0.34284 0.0
O159 O 0.55598 0.82658 0.29645 0.0
O160 O 0.61992 0.8543 0.24158 0.0
O161 O 0.55729 0.76513 0.23662 0.0
C162 C 0.57251 0.74933 0.22611 0.0
O163 O 0.60404 0.75919 0.23623 0.0
O164 O 0.61056 0.79128 0.30528 0.0
Mg165 Mg 0.79327 0.57796 0.77524 0.0
C166 C 0.78285 0.61363 0.71717 0.0
O167 O 0.81077 0.61393 0.70666 0.0
C168 C 0.84958 0.59511 0.82031 0.0
O169 O 0.84332 0.56585 0.80697 0.0
C170 C 0.75064 0.52987 0.83057 0.0
O171 O 0.77974 0.53033 0.83642 0.0
O172 O 0.74801 0.5434 0.8049 0.0
O173 O 0.77236 0.60323 0.74537 0.0
O174 O 0.81852 0.55754 0.74338 0.0
C175 C 0.84935 0.58093 0.7358 0.0
O176 O 0.86123 0.61239 0.74727 0.0
O177 O 0.83273 0.60948 0.81092 0.0
Mg178 Mg 0.23091 0.80689 0.28683 0.0
C179 C 0.18931 0.7807 0.22699 0.0
O180 O 0.22063 0.78934 0.21711 0.0
C181 C 0.23108 0.84156 0.34912 0.0
O182 O 0.20727 0.80958 0.35626 0.0
C183 C 0.19083 0.7368 0.31872 0.0
O184 O 0.16819 0.73347 0.29706 0.0
O185 O 0.22116 0.76365 0.31817 0.0
O186 O 0.18541 0.78753 0.25567 0.0
O187 O 0.27718 0.83031 0.25603 0.0
C188 C 0.2812 0.85771 0.24271 0.0
O189 O 0.25881 0.86778 0.24953 0.0
O190 O 0.24174 0.84852 0.3205 0.0
Mg191 Mg 0.43679 0.22396 0.78392 0.0
C192 C 0.40591 0.18009 0.72521 0.0
O193 O 0.41741 0.21115 0.7133 0.0
C194 C 0.43048 0.27222 0.82589 0.0
O195 O 0.46251 0.28888 0.815 0.0
C196 C 0.45352 0.1821 0.82769 0.0
O197 O 0.42143 0.15977 0.81922 0.0
O198 O 0.46844 0.21239 0.8156 0.0
O199 O 0.40661 0.17696 0.75524 0.0
O200 O 0.46645 0.26595 0.74972 0.0
C201 C 0.45457 0.28544 0.74148 0.0
O202 O 0.42588 0.28101 0.75475 0.0
O203 O 0.41016 0.24122 0.81653 0.0
H204 H 0.06429 0.51559 0.15279 0.0
H205 H 0.12809 0.53219 0.0691 0.0
H206 H 0.16423 0.51494 0.09949 0.0
H207 H 0.1327 0.55112 0.20794 0.0
H208 H 0.10911 0.5205 0.23913 0.0
H209 H 0.08602 0.53065 0.2101 0.0
H210 H 0.04796 0.46549 0.19557 0.0
H211 H 0.07055 0.45506 0.22496 0.0
H212 H 0.06862 0.44116 0.1843 0.0
H213 H 0.19677 0.50093 0.14068 0.0
H214 H 0.21934 0.48564 0.18776 0.0
H215 H 0.13454 0.47896 0.2445 0.0
C216 C 0.08551 0.51505 0.14068 0.0
C217 C 0.09313 0.52505 0.10842 0.0
C218 C 0.12122 0.524 0.09355 0.0
C219 C 0.14216 0.51459 0.11074 0.0
C220 C 0.13465 0.50611 0.14279 0.0
C221 C 0.10667 0.50576 0.15748 0.0
C222 C 0.10474 0.49668 0.1924 0.0
C223 C 0.10837 0.52652 0.21363 0.0
C224 C 0.07097 0.46256 0.19973 0.0
C225 C 0.13626 0.49239 0.19519 0.0
C226 C 0.15325 0.49801 0.16636 0.0
C227 C 0.18349 0.4962 0.16331 0.0
C228 C 0.19626 0.48773 0.19026 0.0
C229 C 0.17877 0.48107 0.21989 0.0
C230 C 0.14855 0.48381 0.22224 0.0
H231 H 0.57822 0.05642 0.62896 0.0
H232 H 0.57961 0.14361 0.58274 0.0
H233 H 0.63113 0.18423 0.61442 0.0
H234 H 0.59671 0.09212 0.70442 0.0
H235 H 0.62379 0.07486 0.71632 0.0
H236 H 0.59062 0.05253 0.68676 0.0
H237 H 0.63642 0.05529 0.64687 0.0
H238 H 0.6697 0.07699 0.67657 0.0
H239 H 0.67444 0.09657 0.63811 0.0
H240 H 0.67853 0.21536 0.65585 0.0
H241 H 0.72039 0.23407 0.70053 0.0
H242 H 0.68702 0.12625 0.71995 0.0
C243 C 0.5903 0.08402 0.62458 0.0
C244 C 0.57537 0.09689 0.60297 0.0
C245 C 0.59103 0.13326 0.59884 0.0
C246 C 0.62016 0.1565 0.61685 0.0
C247 C 0.63341 0.14301 0.63896 0.0
C248 C 0.61926 0.10758 0.64257 0.0
C249 C 0.63669 0.09973 0.66952 0.0
C250 C 0.61038 0.07857 0.6958 0.0
C251 C 0.65543 0.08105 0.65701 0.0
C252 C 0.66238 0.13616 0.68086 0.0
C253 C 0.66025 0.16084 0.66292 0.0
C254 C 0.68067 0.19623 0.66982 0.0
C255 C 0.70423 0.20663 0.69538 0.0
C256 C 0.70712 0.18173 0.7138 0.0
C257 C 0.68568 0.14606 0.70633 0.0
H258 H 0.54611 0.58387 0.12789 0.0
H259 H 0.45562 0.57906 0.0847 0.0
H260 H 0.46896 0.63359 0.11203 0.0
H261 H 0.5362 0.61162 0.20221 0.0
H262 H 0.58179 0.64039 0.20997 0.0
H263 H 0.56821 0.60375 0.1838 0.0
H264 H 0.6071 0.64433 0.13874 0.0
H265 H 0.62134 0.68112 0.16498 0.0
H266 H 0.60245 0.68057 0.127 0.0
H267 H 0.48803 0.68464 0.14922 0.0
H268 H 0.51451 0.7312 0.18985 0.0
H269 H 0.59297 0.70319 0.2083 0.0
C270 C 0.52991 0.59505 0.12327 0.0
C271 C 0.50004 0.57746 0.1039 0.0
C272 C 0.47876 0.59227 0.09928 0.0
C273 C 0.48608 0.62317 0.11476 0.0
C274 C 0.51492 0.63915 0.13473 0.0
C275 C 0.53683 0.6259 0.13864 0.0
C276 C 0.56484 0.64691 0.16295 0.0
C277 C 0.5626 0.62431 0.19141 0.0
C278 C 0.60108 0.66427 0.14749 0.0
C279 C 0.55485 0.67354 0.17252 0.0
C280 C 0.52601 0.66867 0.15597 0.0
C281 C 0.51095 0.68901 0.16198 0.0
C282 C 0.52603 0.71527 0.18524 0.0
C283 C 0.55592 0.72102 0.20215 0.0
C284 C 0.57037 0.69976 0.19556 0.0
H285 H 0.90708 0.47442 0.62053 0.0
H286 H 0.01143 0.56439 0.62456 0.0
H287 H 0.98921 0.59579 0.65572 0.0
H288 H 0.85916 0.52117 0.61813 0.0
H289 H 0.82501 0.49066 0.64385 0.0
H290 H 0.84806 0.47633 0.61849 0.0
H291 H 0.86378 0.4522 0.66756 0.0
H292 H 0.84099 0.46663 0.69311 0.0
H293 H 0.886 0.48065 0.70065 0.0
H294 H 0.95729 0.61635 0.68945 0.0
H295 H 0.91761 0.62543 0.72331 0.0
H296 H 0.83375 0.52124 0.70121 0.0
C297 C 0.92538 0.50079 0.62776 0.0
C298 C 0.96119 0.51681 0.61959 0.0
C299 C 0.98384 0.55156 0.62952 0.0
C300 C 0.9715 0.56961 0.64762 0.0
C301 C 0.93642 0.55266 0.65591 0.0
C302 C 0.9136 0.51907 0.64631 0.0
C303 C 0.87753 0.50626 0.66014 0.0
C304 C 0.85087 0.49813 0.63356 0.0
C305 C 0.86644 0.47456 0.68164 0.0
C306 C 0.88382 0.53781 0.67939 0.0
C307 C 0.91796 0.5643 0.67627 0.0
C308 C 0.93047 0.59589 0.69193 0.0
C309 C 0.90757 0.60073 0.7112 0.0
C310 C 0.87239 0.57409 0.71503 0.0
C311 C 0.86042 0.54212 0.69883 0.0
H312 H 0.45063 0.91034 0.13618 0.0
H313 H 0.43573 0.9906 0.09439 0.0
H314 H 0.38343 0.97168 0.12789 0.0
H315 H 0.35978 0.845 0.14187 0.0
H316 H 0.36451 0.82828 0.17928 0.0
H317 H 0.40048 0.84787 0.15183 0.0
H318 H 0.43927 0.89084 0.19571 0.0
H319 H 0.40343 0.87141 0.2233 0.0
H320 H 0.42514 0.9174 0.21575 0.0
H321 H 0.33407 0.94526 0.16685 0.0
H322 H 0.28942 0.91211 0.2071 0.0
H323 H 0.33567 0.84814 0.22383 0.0
C324 C 0.43652 0.92414 0.13421 0.0
C325 C 0.44745 0.95219 0.11276 0.0
C326 C 0.42779 0.969 0.11048 0.0
C327 C 0.39816 0.95851 0.12952 0.0
C328 C 0.38837 0.93101 0.15058 0.0
C329 C 0.40683 0.91391 0.15292 0.0
C330 C 0.39062 0.885 0.17735 0.0
C331 C 0.3781 0.84943 0.16164 0.0
C332 C 0.41614 0.89157 0.20465 0.0
C333 C 0.36022 0.88864 0.1886 0.0
C334 C 0.35954 0.91541 0.17283 0.0
C335 C 0.33429 0.92419 0.17925 0.0
C336 C 0.30902 0.90514 0.20229 0.0
C337 C 0.30889 0.87738 0.21875 0.0
C338 C 0.33495 0.86909 0.21169 0.0
H339 H 0.50395 0.45756 0.64424 0.0
H340 H 0.53766 0.41659 0.56716 0.0
H341 H 0.52125 0.36378 0.59878 0.0
H342 H 0.53316 0.42794 0.70768 0.0
H343 H 0.49642 0.41661 0.73328 0.0
H344 H 0.50916 0.45035 0.70414 0.0
H345 H 0.44729 0.41822 0.67981 0.0
H346 H 0.43416 0.3847 0.70927 0.0
H347 H 0.42859 0.37353 0.66759 0.0
H348 H 0.50678 0.31835 0.64136 0.0
H349 H 0.48619 0.27916 0.68799 0.0
H350 H 0.45794 0.34789 0.73552 0.0
C351 C 0.50709 0.43705 0.63384 0.0
C352 C 0.52172 0.44082 0.60323 0.0
C353 C 0.52594 0.41379 0.59039 0.0
C354 C 0.51702 0.38393 0.60829 0.0
C355 C 0.50345 0.38135 0.63877 0.0
C356 C 0.4977 0.40681 0.65113 0.0
C357 C 0.48246 0.3976 0.68434 0.0
C358 C 0.50676 0.42475 0.70879 0.0
C359 C 0.44595 0.39324 0.6853 0.0
C360 C 0.48094 0.36322 0.68892 0.0
C361 C 0.49365 0.35451 0.66257 0.0
C362 C 0.49633 0.32467 0.66193 0.0
C363 C 0.48489 0.30275 0.68858 0.0
C364 C 0.47041 0.31051 0.71518 0.0
C365 C 0.46867 0.34125 0.71533 0.0
H366 H 0.50948 0.91521 0.4725 0.0
H367 H 0.49889 0.98096 0.40327 0.0
H368 H 0.51691 0.95523 0.36055 0.0
H369 H 0.58639 0.9174 0.43386 0.0
H370 H 0.57141 0.8728 0.44386 0.0
H371 H 0.56096 0.89885 0.46937 0.0
H372 H 0.4956 0.85278 0.46443 0.0
H373 H 0.50574 0.82696 0.43835 0.0
H374 H 0.47601 0.84069 0.42555 0.0
H375 H 0.52873 0.91754 0.32455 0.0
H376 H 0.54258 0.87639 0.29827 0.0
H377 H 0.54839 0.83642 0.39053 0.0
C378 C 0.51217 0.92502 0.44853 0.0
C379 C 0.50282 0.95015 0.44121 0.0
C380 C 0.50588 0.96172 0.40938 0.0
C381 C 0.51598 0.94717 0.38494 0.0
C382 C 0.52342 0.92132 0.39266 0.0
C383 C 0.52248 0.91086 0.42373 0.0
C384 C 0.53085 0.88185 0.42524 0.0
C385 C 0.5644 0.89343 0.4442 0.0
C386 C 0.50022 0.84861 0.43922 0.0
C387 C 0.53594 0.87727 0.39017 0.0
C388 C 0.53128 0.90016 0.37182 0.0
C389 C 0.53298 0.89984 0.3387 0.0
C390 C 0.54055 0.87612 0.32396 0.0
C391 C 0.54668 0.8532 0.34228 0.0
C392 C 0.54405 0.85373 0.37585 0.0
H393 H 0.57891 0.50739 0.91521 0.0
H394 H 0.61744 0.48922 1.00334 0.0
H395 H 0.67002 0.49783 0.97524 0.0
H396 H 0.60577 0.46169 0.86525 0.0
H397 H 0.61788 0.49115 0.83219 0.0
H398 H 0.58469 0.4867 0.85958 0.0
H399 H 0.61891 0.5529 0.87071 0.0
H400 H 0.65192 0.55765 0.84293 0.0
H401 H 0.66368 0.57331 0.88317 0.0
H402 H 0.71583 0.50318 0.93657 0.0
H403 H 0.75521 0.51205 0.89173 0.0
H404 H 0.68712 0.52695 0.82835 0.0
C405 C 0.5987 0.50581 0.92873 0.0
C406 C 0.59408 0.49781 0.9616 0.0
C407 C 0.62059 0.49593 0.97836 0.0
C408 C 0.65039 0.50039 0.96249 0.0
C409 C 0.65345 0.50693 0.92987 0.0
C410 C 0.6286 0.51023 0.91327 0.0
C411 C 0.6378 0.5167 0.8782 0.0
C412 C 0.60987 0.48731 0.8576 0.0
C413 C 0.64342 0.55226 0.86817 0.0
C414 C 0.67161 0.51625 0.87759 0.0
C415 C 0.68002 0.51034 0.90763 0.0
C416 C 0.70965 0.50812 0.91301 0.0
C417 C 0.73176 0.51297 0.88725 0.0
C418 C 0.72438 0.52021 0.85637 0.0
C419 C 0.69356 0.52141 0.85157 0.0
H420 H 0.05766 0.5676 0.41579 0.0
H421 H 0.12587 0.6111 0.49732 0.0
H422 H 0.1636 0.66422 0.46672 0.0
H423 H 0.1228 0.59557 0.35907 0.0
H424 H 0.10061 0.60532 0.3287 0.0
H425 H 0.07596 0.57285 0.35813 0.0
H426 H 0.0437 0.60528 0.37441 0.0
H427 H 0.06759 0.63744 0.34444 0.0
H428 H 0.06848 0.65057 0.38521 0.0
H429 H 0.19821 0.7094 0.4247 0.0
H430 H 0.22221 0.74648 0.37706 0.0
H431 H 0.13159 0.6731 0.32299 0.0
C432 C 0.07998 0.58871 0.42751 0.0
C433 C 0.08858 0.58518 0.45911 0.0
C434 C 0.11824 0.61336 0.47344 0.0
C435 C 0.14013 0.64352 0.45607 0.0
C436 C 0.13191 0.64529 0.42443 0.0
C437 C 0.10212 0.61893 0.4105 0.0
C438 C 0.1 0.62643 0.37572 0.0
C439 C 0.09984 0.59837 0.35415 0.0
C440 C 0.06805 0.63017 0.3696 0.0
C441 C 0.13351 0.66085 0.3721 0.0
C442 C 0.15166 0.67128 0.40041 0.0
C443 C 0.18398 0.70167 0.40252 0.0
C444 C 0.19759 0.72241 0.37524 0.0
C445 C 0.17883 0.71275 0.34625 0.0
C446 C 0.14656 0.68131 0.34478 0.0
H447 H 0.48162 0.0507 0.93438 0.0
H448 H 0.57377 0.13999 0.97263 0.0
H449 H 0.55995 0.17907 0.94281 0.0
H450 H 0.48926 0.08204 0.85822 0.0
H451 H 0.44352 0.06477 0.85127 0.0
H452 H 0.4575 0.04374 0.87901 0.0
H453 H 0.42042 0.04955 0.92359 0.0
H454 H 0.40571 0.06999 0.8958 0.0
H455 H 0.42595 0.09159 0.93257 0.0
H456 H 0.54039 0.20803 0.9033 0.0
H457 H 0.51307 0.22487 0.86126 0.0
H458 H 0.43313 0.11679 0.84944 0.0
C459 C 0.49807 0.07849 0.93745 0.0
C460 C 0.52859 0.09235 0.95605 0.0
C461 C 0.55016 0.12888 0.95864 0.0
C462 C 0.54257 0.15126 0.94173 0.0
C463 C 0.51314 0.13676 0.92246 0.0
C464 C 0.49086 0.10123 0.92067 0.0
C465 C 0.46217 0.09225 0.89671 0.0
C466 C 0.4632 0.06935 0.86971 0.0
C467 C 0.42645 0.07482 0.91315 0.0
C468 C 0.47227 0.12815 0.88479 0.0
C469 C 0.50171 0.1535 0.89994 0.0
C470 C 0.51698 0.18844 0.89165 0.0
C471 C 0.50144 0.19775 0.86758 0.0
C472 C 0.47087 0.17223 0.85214 0.0
C473 C 0.45628 0.13701 0.86098 0.0
H474 H 0.44398 0.48305 0.43635 0.0
H475 H 0.44042 0.56922 0.48032 0.0
H476 H 0.38697 0.55398 0.4502 0.0
H477 H 0.42148 0.4944 0.36134 0.0
H478 H 0.39522 0.44908 0.35112 0.0
H479 H 0.42958 0.4628 0.37982 0.0
H480 H 0.38601 0.42073 0.42164 0.0
H481 H 0.35153 0.40623 0.39283 0.0
H482 H 0.34746 0.42263 0.4309 0.0
H483 H 0.33875 0.53426 0.40962 0.0
H484 H 0.29651 0.50825 0.36549 0.0
H485 H 0.33164 0.43488 0.3483 0.0
C486 C 0.43104 0.49771 0.44069 0.0
C487 C 0.44598 0.52696 0.46105 0.0
C488 C 0.42909 0.54644 0.46512 0.0
C489 C 0.39883 0.53806 0.44801 0.0
C490 C 0.38563 0.51 0.42699 0.0
C491 C 0.40087 0.48975 0.42367 0.0
C492 C 0.38321 0.46272 0.39774 0.0
C493 C 0.40891 0.46756 0.37093 0.0
C494 C 0.36602 0.42589 0.41161 0.0
C495 C 0.35623 0.47141 0.38652 0.0
C496 C 0.35793 0.4987 0.4037 0.0
C497 C 0.33682 0.5125 0.39637 0.0
C498 C 0.31306 0.49773 0.37111 0.0
C499 C 0.31059 0.46942 0.35349 0.0
C500 C 0.33256 0.45625 0.36147 0.0
H501 H 0.90519 0.44642 0.94285 0.0
H502 H 0.00945 0.46148 0.93772 0.0
H503 H 0.98771 0.41007 0.90332 0.0
H504 H 0.85694 0.35158 0.93958 0.0
H505 H 0.8234 0.34967 0.91436 0.0
H506 H 0.84611 0.38539 0.94171 0.0
H507 H 0.86297 0.4287 0.89509 0.0
H508 H 0.84061 0.39315 0.86754 0.0
H509 H 0.8858 0.42484 0.86125 0.0
H510 H 0.95619 0.35948 0.86705 0.0
H511 H 0.91645 0.31163 0.83199 0.0
H512 H 0.83281 0.33082 0.85641 0.0
C513 C 0.92358 0.43896 0.93469 0.0
C514 C 0.95923 0.45832 0.94351 0.0
C515 C 0.98197 0.447 0.93231 0.0
C516 C 0.96992 0.41791 0.91232 0.0
C517 C 0.93506 0.40034 0.90337 0.0
C518 C 0.91213 0.4103 0.91421 0.0
C519 C 0.87632 0.38788 0.89954 0.0
C520 C 0.84909 0.36741 0.92534 0.0
C521 C 0.86582 0.40997 0.87968 0.0
C522 C 0.88285 0.36394 0.87853 0.0
C523 C 0.91691 0.37156 0.88141 0.0
C524 C 0.92945 0.35319 0.86468 0.0
C525 C 0.90658 0.32601 0.84478 0.0
C526 C 0.87145 0.31739 0.84137 0.0
C527 C 0.85954 0.33692 0.85831 0.0
H528 H 0.90863 0.53328 0.96461 0.0
H529 H 0.01366 0.61328 0.94121 0.0
H530 H 0.99058 0.64369 0.90965 0.0
H531 H 0.87751 0.52324 0.89207 0.0
H532 H 0.83463 0.51503 0.90211 0.0
H533 H 0.85883 0.50595 0.93049 0.0
H534 H 0.85268 0.54589 0.97178 0.0
H535 H 0.82818 0.55502 0.94334 0.0
H536 H 0.86646 0.59017 0.96152 0.0
H537 H 0.95659 0.65666 0.87006 0.0
H538 H 0.91544 0.6504 0.82744 0.0
H539 H 0.83285 0.56194 0.87618 0.0
C540 C 0.92672 0.55802 0.95396 0.0
C541 C 0.96288 0.57106 0.95553 0.0
C542 C 0.98587 0.60316 0.94086 0.0
C543 C 0.97293 0.62056 0.92278 0.0
C544 C 0.93696 0.6058 0.91999 0.0
C545 C 0.91418 0.57543 0.9357 0.0
C546 C 0.8771 0.56155 0.92489 0.0
C547 C 0.86114 0.52429 0.91159 0.0
C548 C 0.85479 0.56328 0.952 0.0
C549 C 0.88278 0.58735 0.89904 0.0
C550 C 0.91728 0.61333 0.89708 0.0
C551 C 0.92933 0.63723 0.8721 0.0
C552 C 0.90584 0.63367 0.84806 0.0
C553 C 0.87095 0.60632 0.84922 0.0
C554 C 0.85916 0.58378 0.8755 0.0
H555 H 0.41161 0.97594 0.42128 0.0
H556 H 0.37085 0.92542 0.51189 0.0
H557 H 0.31124 0.89842 0.49055 0.0
H558 H 0.33423 0.98444 0.39601 0.0
H559 H 0.33884 0.97408 0.35544 0.0
H560 H 0.37674 0.99726 0.38029 0.0
H561 H 0.39347 0.95047 0.36861 0.0
H562 H 0.35572 0.92715 0.34401 0.0
H563 H 0.36252 0.90559 0.37696 0.0
H564 H 0.25817 0.86706 0.4564 0.0
H565 H 0.21732 0.83415 0.41311 0.0
H566 H 0.29278 0.90313 0.34387 0.0
C567 C 0.39005 0.96012 0.43699 0.0
C568 C 0.396 0.95293 0.46833 0.0
C569 C 0.36707 0.93192 0.48804 0.0
C570 C 0.33303 0.91632 0.47602 0.0
C571 C 0.32828 0.9222 0.44434 0.0
C572 C 0.35608 0.94398 0.42519 0.0
C573 C 0.34499 0.94182 0.39081 0.0
C574 C 0.34893 0.97647 0.38001 0.0
C575 C 0.36537 0.93057 0.36884 0.0
C576 C 0.30705 0.91392 0.39321 0.0
C577 C 0.29763 0.90357 0.42439 0.0
C578 C 0.26502 0.87554 0.43203 0.0
C579 C 0.24195 0.85693 0.40721 0.0
C580 C 0.25169 0.86611 0.37502 0.0
C581 C 0.2842 0.89582 0.36819 0.0
H582 H 0.47863 0.44279 0.91427 0.0
H583 H 0.45027 0.38202 1.00064 0.0
H584 H 0.41503 0.32866 0.9692 0.0
H585 H 0.39815 0.38245 0.86392 0.0
H586 H 0.42558 0.39073 0.82958 0.0
H587 H 0.43673 0.42434 0.85895 0.0
H588 H 0.49747 0.43059 0.86527 0.0
H589 H 0.48649 0.39697 0.83641 0.0
H590 H 0.50039 0.39298 0.87558 0.0
H591 H 0.39567 0.28133 0.92803 0.0
H592 H 0.39714 0.24635 0.88266 0.0
H593 H 0.44364 0.33804 0.8236 0.0
C594 C 0.46371 0.41838 0.92667 0.0
C595 C 0.46716 0.41661 0.95988 0.0
C596 C 0.44758 0.3842 0.9753 0.0
C597 C 0.42756 0.35365 0.95753 0.0
C598 C 0.42729 0.35597 0.9244 0.0
C599 C 0.4447 0.38775 0.90918 0.0
C600 C 0.44694 0.38337 0.87367 0.0
C601 C 0.42556 0.39596 0.85546 0.0
C602 C 0.48505 0.40204 0.8621 0.0
C603 C 0.4303 0.34434 0.87148 0.0
C604 C 0.41777 0.32874 0.90068 0.0
C605 C 0.40455 0.29318 0.90493 0.0
C606 C 0.40535 0.27344 0.87906 0.0
C607 C 0.42015 0.28962 0.84975 0.0
C608 C 0.43162 0.32512 0.84572 0.0
H609 H 0.11061 0.50973 0.4211 0.0
H610 H 0.04285 0.42231 0.48142 0.0
H611 H 0.06233 0.38648 0.45272 0.0
H612 H 0.09108 0.45889 0.34817 0.0
H613 H 0.13459 0.48619 0.33325 0.0
H614 H 0.11529 0.50416 0.35911 0.0
H615 H 0.16766 0.52592 0.39752 0.0
H616 H 0.187 0.50781 0.37204 0.0
H617 H 0.17891 0.49538 0.41329 0.0
H618 H 0.09512 0.36234 0.41898 0.0
H619 H 0.13199 0.35163 0.38114 0.0
H620 H 0.16898 0.45303 0.33987 0.0
C621 C 0.09831 0.48276 0.4279 0.0
C622 C 0.07446 0.4691 0.45356 0.0
C623 C 0.06129 0.43385 0.46212 0.0
C624 C 0.07204 0.41314 0.44576 0.0
C625 C 0.09537 0.42774 0.42044 0.0
C626 C 0.10764 0.46164 0.41131 0.0
C627 C 0.13217 0.47183 0.38335 0.0
C628 C 0.11738 0.48078 0.35425 0.0
C629 C 0.16857 0.502 0.3921 0.0
C630 C 0.13244 0.43853 0.37825 0.0
C631 C 0.11157 0.41334 0.40002 0.0
C632 C 0.11074 0.38161 0.40136 0.0
C633 C 0.13168 0.3757 0.37988 0.0
C634 C 0.15228 0.40107 0.35704 0.0
C635 C 0.15237 0.43264 0.35628 0.0
H636 H 0.64793 0.11598 0.96334 0.0
H637 H 0.60046 0.00869 0.9328 0.0
H638 H 0.65067 0.02413 0.89756 0.0
H639 H 0.67078 0.14994 0.89063 0.0
H640 H 0.7112 0.1882 0.90124 0.0
H641 H 0.67731 0.16756 0.93036 0.0
H642 H 0.71945 0.16112 0.96821 0.0
H643 H 0.75378 0.1822 0.93925 0.0
H644 H 0.74245 0.13999 0.95422 0.0
H645 H 0.69971 0.05331 0.85772 0.0
H646 H 0.7422 0.09295 0.81803 0.0
H647 H 0.75592 0.1813 0.87337 0.0
C648 C 0.64872 0.09551 0.95009 0.0
C649 C 0.62035 0.06111 0.95096 0.0
C650 C 0.62215 0.03509 0.93303 0.0
C651 C 0.65056 0.04369 0.91279 0.0
C652 C 0.6771 0.07835 0.91099 0.0
C653 C 0.67658 0.10377 0.92956 0.0
C654 C 0.70519 0.13966 0.92008 0.0
C655 C 0.69021 0.16265 0.90996 0.0
C656 C 0.7318 0.15674 0.94705 0.0
C657 C 0.72072 0.13071 0.89212 0.0
C658 C 0.70484 0.09522 0.88764 0.0
C659 C 0.71283 0.08111 0.86146 0.0
C660 C 0.73701 0.10383 0.83899 0.0
C661 C 0.75245 0.14024 0.84259 0.0
C662 C 0.7448 0.15361 0.87003 0.0
H663 H 0.55107 0.59184 0.40426 0.0
H664 H 0.58512 0.65408 0.48997 0.0
H665 H 0.61308 0.70771 0.45727 0.0
H666 H 0.62553 0.65249 0.35 0.0
H667 H 0.59574 0.64219 0.31735 0.0
H668 H 0.58754 0.60983 0.34695 0.0
H669 H 0.52649 0.60179 0.35714 0.0
H670 H 0.53454 0.6342 0.32799 0.0
H671 H 0.52282 0.63895 0.36802 0.0
H672 H 0.62768 0.75402 0.41504 0.0
H673 H 0.62452 0.78709 0.36913 0.0
H674 H 0.57754 0.69314 0.31228 0.0
C675 C 0.56597 0.61681 0.41597 0.0
C676 C 0.5669 0.61914 0.44939 0.0
C677 C 0.5851 0.65201 0.46429 0.0
C678 C 0.60091 0.68248 0.44586 0.0
C679 C 0.59819 0.67938 0.41272 0.0
C680 C 0.58129 0.64717 0.39799 0.0
C681 C 0.57661 0.65017 0.3628 0.0
C682 C 0.59762 0.63795 0.34311 0.0
C683 C 0.53784 0.63012 0.35348 0.0
C684 C 0.59187 0.68891 0.36009 0.0
C685 C 0.60517 0.70562 0.38881 0.0
C686 C 0.61799 0.74124 0.39234 0.0
C687 C 0.61622 0.75987 0.36617 0.0
C688 C 0.60097 0.74256 0.33728 0.0
C689 C 0.58964 0.70697 0.33408 0.0
H690 H 0.47141 0.11225 0.58462 0.0
H691 H 0.42749 0.014 0.63381 0.0
H692 H 0.39423 0.03158 0.66883 0.0
H693 H 0.48815 0.16218 0.64876 0.0
H694 H 0.47771 0.19306 0.6324 0.0
H695 H 0.49086 0.16968 0.60647 0.0
H696 H 0.43412 0.1467 0.57391 0.0
H697 H 0.42087 0.17046 0.59957 0.0
H698 H 0.39266 0.1244 0.59392 0.0
H699 H 0.37768 0.06543 0.70605 0.0
H700 H 0.37552 0.11045 0.739 0.0
H701 H 0.42786 0.18555 0.6639 0.0
C702 C 0.45348 0.09387 0.60181 0.0
C703 C 0.45158 0.06164 0.60632 0.0
C704 C 0.42867 0.03849 0.62956 0.0
C705 C 0.40984 0.04838 0.64965 0.0
C706 C 0.41371 0.08119 0.64572 0.0
C707 C 0.43437 0.10326 0.6218 0.0
C708 C 0.43752 0.13856 0.62475 0.0
C709 C 0.47581 0.16754 0.62833 0.0
C710 C 0.42025 0.14542 0.59635 0.0
C711 C 0.41716 0.13366 0.65509 0.0
C712 C 0.40325 0.10033 0.66673 0.0
C713 C 0.38743 0.09125 0.69664 0.0
C714 C 0.38639 0.117 0.71525 0.0
C715 C 0.40098 0.15138 0.70385 0.0
C716 C 0.41555 0.15931 0.67298 0.0
H717 H 0.42674 0.46821 0.15821 0.0
H718 H 0.38182 0.43629 0.06441 0.0
H719 H 0.32302 0.40273 0.08856 0.0
H720 H 0.36226 0.38612 0.20166 0.0
H721 H 0.36316 0.41097 0.23597 0.0
H722 H 0.40149 0.42595 0.21162 0.0
H723 H 0.40409 0.4848 0.20398 0.0
H724 H 0.3658 0.47 0.22801 0.0
H725 H 0.36674 0.48521 0.18818 0.0
H726 H 0.2692 0.38299 0.1224 0.0
H727 H 0.22575 0.37712 0.16244 0.0
H728 H 0.30637 0.42028 0.23439 0.0
C729 C 0.40456 0.45291 0.14295 0.0
C730 C 0.40853 0.4542 0.10961 0.0
C731 C 0.37913 0.4349 0.09006 0.0
C732 C 0.34574 0.4159 0.10361 0.0
C733 C 0.34248 0.41617 0.13669 0.0
C734 C 0.37128 0.43375 0.15611 0.0
C735 C 0.36089 0.43337 0.1905 0.0
C736 C 0.37265 0.41287 0.21115 0.0
C737 C 0.37521 0.47054 0.20339 0.0
C738 C 0.32173 0.41438 0.18732 0.0
C739 C 0.31149 0.40423 0.1562 0.0
C740 C 0.27686 0.38994 0.14696 0.0
C741 C 0.25233 0.38674 0.16986 0.0
C742 C 0.26252 0.39777 0.20166 0.0
C743 C 0.29751 0.4107 0.21053 0.0
H744 H 0.97226 0.42229 0.66139 0.0
H745 H 0.95026 0.38245 0.56501 0.0
H746 H 0.91887 0.32222 0.58585 0.0
H747 H 0.98125 0.34965 0.69669 0.0
H748 H 0.96077 0.35138 0.73318 0.0
H749 H 0.98648 0.39036 0.71041 0.0
H750 H 0.93415 0.40053 0.7083 0.0
H751 H 0.90841 0.36174 0.73094 0.0
H752 H 0.89315 0.36677 0.69281 0.0
H753 H 0.88083 0.26773 0.61765 0.0
H754 H 0.84163 0.22435 0.65692 0.0
H755 H 0.89151 0.30007 0.73248 0.0
C756 C 0.96171 0.40076 0.64473 0.0
C757 C 0.96365 0.40672 0.61168 0.0
C758 C 0.94927 0.37819 0.59042 0.0
C759 C 0.93145 0.344 0.60209 0.0
C760 C 0.92898 0.33897 0.635 0.0
C761 C 0.94428 0.36668 0.65598 0.0
C762 C 0.93529 0.35487 0.69012 0.0
C763 C 0.9679 0.36198 0.70869 0.0
C764 C 0.91663 0.37197 0.70647 0.0
C765 C 0.91107 0.31635 0.68515 0.0
C766 C 0.90799 0.3075 0.65326 0.0
C767 C 0.8838 0.27417 0.64273 0.0
C768 C 0.86162 0.24967 0.66521 0.0
C769 C 0.86382 0.2586 0.69784 0.0
C770 C 0.88977 0.29204 0.70788 0.0
H771 H 0.55646 0.92496 0.0744 0.0
H772 H 0.5797 0.01097 0.13734 0.0
H773 H 0.61585 0.99595 0.17057 0.0
H774 H 0.54021 0.86771 0.13161 0.0
H775 H 0.55804 0.84383 0.11255 0.0
H776 H 0.54307 0.86696 0.08884 0.0
H777 H 0.60344 0.9011 0.06171 0.0
H778 H 0.61864 0.87778 0.08531 0.0
H779 H 0.64191 0.92458 0.08579 0.0
H780 H 0.63819 0.96464 0.20266 0.0
H781 H 0.64299 0.91922 0.23145 0.0
H782 H 0.60478 0.85266 0.14813 0.0
C783 C 0.57079 0.94165 0.0942 0.0
C784 C 0.56621 0.96961 0.10297 0.0
C785 C 0.58367 0.98992 0.12997 0.0
C786 C 0.60425 0.98157 0.1489 0.0
C787 C 0.60707 0.95279 0.14051 0.0
C788 C 0.59102 0.93327 0.11357 0.0
C789 C 0.59301 0.90037 0.1127 0.0
C790 C 0.55643 0.86783 0.11138 0.0
C791 C 0.61561 0.90101 0.08471 0.0
C792 C 0.61069 0.90333 0.14422 0.0
C793 C 0.61947 0.93417 0.15952 0.0
C794 C 0.63226 0.94081 0.19057 0.0
C795 C 0.63489 0.9148 0.20679 0.0
C796 C 0.62438 0.88235 0.19207 0.0
C797 C 0.61359 0.87734 0.15992 0.0
H798 H 0.59802 0.55513 0.64764 0.0
H799 H 0.64706 0.57622 0.55463 0.0
H800 H 0.70434 0.61078 0.57978 0.0
H801 H 0.66522 0.63793 0.68934 0.0
H802 H 0.66165 0.61411 0.72501 0.0
H803 H 0.62427 0.60026 0.69974 0.0
H804 H 0.61719 0.53907 0.69554 0.0
H805 H 0.6545 0.55271 0.72049 0.0
H806 H 0.65322 0.53486 0.68161 0.0
H807 H 0.75627 0.63175 0.61461 0.0
H808 H 0.79773 0.63642 0.65568 0.0
H809 H 0.71557 0.59864 0.72645 0.0
C810 C 0.6207 0.56783 0.63242 0.0
C811 C 0.61772 0.56284 0.59903 0.0
C812 C 0.64822 0.58006 0.58013 0.0
C813 C 0.68108 0.5997 0.59429 0.0
C814 C 0.68316 0.60209 0.62738 0.0
C815 C 0.65369 0.58685 0.64623 0.0
C816 C 0.66296 0.58826 0.6811 0.0
C817 C 0.65293 0.61153 0.6999 0.0
C818 C 0.64598 0.55156 0.69549 0.0
C819 C 0.70211 0.60476 0.67876 0.0
C820 C 0.71334 0.61347 0.64768 0.0
C821 C 0.74788 0.62577 0.63912 0.0
C822 C 0.77127 0.62825 0.66266 0.0
C823 C 0.76001 0.61804 0.69438 0.0
C824 C 0.7252 0.60728 0.70259 0.0
H825 H 0.11252 0.65379 0.08193 0.0
H826 H 0.02307 0.59031 0.14108 0.0
H827 H 0.04081 0.63979 0.17811 0.0
H828 H 0.16861 0.68674 0.14176 0.0
H829 H 0.19615 0.7296 0.12583 0.0
H830 H 0.17141 0.69378 0.09939 0.0
H831 H 0.14258 0.72607 0.07462 0.0
H832 H 0.16765 0.7624 0.10082 0.0
H833 H 0.12093 0.74201 0.09999 0.0
H834 H 0.07432 0.69165 0.2137 0.0
H835 H 0.12096 0.73931 0.2451 0.0
H836 H 0.18996 0.768 0.16365 0.0
C837 C 0.09569 0.65114 0.1017 0.0
C838 C 0.06583 0.61886 0.1082 0.0
C839 C 0.04541 0.6153 0.1353 0.0
C840 C 0.05539 0.64325 0.15644 0.0
C841 C 0.08598 0.67446 0.1502 0.0
C842 C 0.10572 0.67858 0.12329 0.0
C843 C 0.1404 0.71209 0.12473 0.0
C844 C 0.1709 0.7051 0.12284 0.0
C845 C 0.14303 0.73713 0.09848 0.0
C846 C 0.1379 0.72533 0.15729 0.0
C847 C 0.10599 0.70384 0.17131 0.0
C848 C 0.09908 0.70908 0.20265 0.0
C849 C 0.12574 0.73628 0.22034 0.0
C850 C 0.15907 0.75748 0.2068 0.0
C851 C 0.16464 0.7525 0.17456 0.0
loop_
_geom_bond_atom_site_label_1
_geom_bond_atom_site_label_2
_geom_bond_distance
_geom_bond_site_symmetry_2
_ccdc_geom_bond_type
H0 C8 0.930 . S
H1 C11 0.930 . S
H2 C13 0.930 . S
H3 C14 0.970 . S
H4 C14 0.970 . S
H5 C16 0.930 . S
H6 C18 0.930 . S
H7 C20 0.930 . S
C8 H0 0.930 . S
C8 C9 1.382 . S
C8 C10 1.426 . S
C9 C8 1.382 . S
C9 C13 1.389 . S
C10 C8 1.426 . S
C10 C11 1.375 . S
C10 C14 1.532 1_554 S
C11 H1 0.930 . S
C11 C10 1.375 . S
C11 C12 1.416 . S
C12 C11 1.416 . S
C12 C13 1.371 . S
C13 H2 0.930 . S
C13 C9 1.389 . S
C13 C12 1.371 . S
C14 H3 0.970 . S
C14 H4 0.970 . S
C14 C10 1.532 1_556 S
C14 C15 1.499 . S
C15 C14 1.499 . S
C15 C16 1.370 . S
C15 C20 1.415 . S
C16 H5 0.930 . S
C16 C15 1.370 . S
C16 C17 1.407 1_455 S
C17 C16 1.407 1_655 S
C17 C18 1.365 . S
C18 H6 0.930 . S
C18 C17 1.365 . S
C18 C19 1.393 . S
C19 C18 1.393 . S
C19 C20 1.387 1_655 S
C20 H7 0.930 . S
C20 C15 1.415 . S
C20 C19 1.387 1_455 S
H21 C29 0.930 . S
H22 C32 0.930 . S
H23 C34 0.930 . S
H24 C35 0.970 . S
H25 C35 0.970 . S
H26 C37 0.930 . S
H27 C39 0.930 . S
H28 C41 0.930 . S
C29 H21 0.930 . S
C29 C30 1.382 . S
C29 C31 1.426 . S
C30 C29 1.382 . S
C30 C34 1.389 . S
C31 C29 1.426 . S
C31 C32 1.375 . S
C31 C35 1.532 1_545 S
C32 H22 0.930 . S
C32 C31 1.375 . S
C32 C33 1.416 . S
C33 C32 1.416 . S
C33 C34 1.371 . S
C34 H23 0.930 . S
C34 C30 1.389 . S
C34 C33 1.371 . S
C35 H24 0.970 . S
C35 H25 0.970 . S
C35 C31 1.532 1_565 S
C35 C36 1.499 . S
C36 C35 1.499 . S
C36 C37 1.370 . S
C36 C41 1.415 . S
C37 H26 0.930 . S
C37 C36 1.370 . S
C37 C38 1.407 . S
C38 C37 1.407 . S
C38 C39 1.365 . S
C39 H27 0.930 . S
C39 C38 1.365 . S
C39 C40 1.393 . S
C40 C39 1.393 . S
C40 C41 1.387 . S
C41 H28 0.930 . S
C41 C36 1.415 . S
C41 C40 1.387 . S
H42 C50 0.930 . S
H43 C53 0.930 . S
H44 C55 0.930 . S
H45 C56 0.970 . S
H46 C56 0.970 . S
H47 C58 0.927 1_554 S
H48 C60 0.930 . S
H49 C62 0.921 1_554 S
C50 H42 0.930 . S
C50 C51 1.382 . S
C50 C52 1.426 . S
C51 C50 1.382 . S
C51 C55 1.389 . S
C52 C50 1.426 . S
C52 C53 1.375 . S
C52 C56 1.532 . S
C53 H43 0.930 . S
C53 C52 1.375 . S
C53 C54 1.416 . S
C54 C53 1.416 . S
C54 C55 1.371 . S
C55 H44 0.930 . S
C55 C51 1.389 . S
C55 C54 1.371 . S
C56 H45 0.970 . S
C56 H46 0.970 . S
C56 C52 1.532 . S
C56 C57 1.499 . S
C57 C56 1.499 . S
C57 C58 1.370 1_554 S
C57 C62 1.415 1_554 S
C58 H47 0.927 1_556 S
C58 C57 1.370 1_556 S
C58 C59 1.407 . S
C59 C58 1.407 . S
C59 C60 1.365 . S
C60 H48 0.930 . S
C60 C59 1.365 . S
C60 C61 1.393 . S
C61 C60 1.393 . S
C61 C62 1.387 . S
C62 H49 0.921 1_556 S
C62 C57 1.415 1_556 S
C62 C61 1.387 . S
H63 C71 0.930 1_455 S
H64 C74 0.930 1_455 S
H65 C76 0.930 . S
H66 C77 0.970 . S
H67 C77 0.970 . S
H68 C79 0.930 . S
H69 C81 0.930 . S
H70 C83 0.930 . S
C71 H63 0.930 1_655 S
C71 C72 1.382 . S
C71 C73 1.426 1_655 S
C72 C71 1.382 . S
C72 C76 1.389 . S
C73 C71 1.426 1_455 S
C73 C74 1.375 1_455 S
C73 C77 1.532 . S
C74 H64 0.930 1_655 S
C74 C73 1.375 1_655 S
C74 C75 1.416 . S
C75 C74 1.416 . S
C75 C76 1.371 . S
C76 H65 0.930 . S
C76 C72 1.389 . S
C76 C75 1.371 . S
C77 H66 0.970 . S
C77 H67 0.970 . S
C77 C73 1.532 . S
C77 C78 1.499 . S
C78 C77 1.499 . S
C78 C79 1.370 . S
C78 C83 1.415 . S
C79 H68 0.930 . S
C79 C78 1.370 . S
C79 C80 1.407 . S
C80 C79 1.407 . S
C80 C81 1.365 . S
C81 H69 0.930 . S
C81 C80 1.365 . S
C81 C82 1.393 . S
C82 C81 1.393 . S
C82 C83 1.387 . S
C83 H70 0.930 . S
C83 C78 1.415 . S
C83 C82 1.387 . S
H84 C92 0.930 . S
H85 C95 0.930 . S
H86 C97 0.930 . S
H87 C98 0.970 . S
H88 C98 0.970 . S
H89 C100 0.930 . S
H90 C102 0.930 . S
H91 C104 0.930 1_565 S
C92 H84 0.930 . S
C92 C93 1.382 . S
C92 C94 1.426 . S
C93 C92 1.382 . S
C93 C97 1.389 . S
C94 C92 1.426 . S
C94 C95 1.375 . S
C94 C98 1.532 1_554 S
C95 H85 0.930 . S
C95 C94 1.375 . S
C95 C96 1.416 . S
C96 C95 1.416 . S
C96 C97 1.371 . S
C97 H86 0.930 . S
C97 C93 1.389 . S
C97 C96 1.371 . S
C98 H87 0.970 . S
C98 H88 0.970 . S
C98 C94 1.532 1_556 S
C98 C99 1.499 . S
C99 C98 1.499 . S
C99 C100 1.370 1_565 S
C99 C104 1.415 1_565 S
C100 H89 0.930 . S
C100 C99 1.370 1_545 S
C100 C101 1.407 . S
C101 C100 1.407 . S
C101 C102 1.365 . S
C102 H90 0.930 . S
C102 C101 1.365 . S
C102 C103 1.393 . S
C103 C102 1.393 . S
C103 C104 1.387 . S
C104 H91 0.930 1_545 S
C104 C99 1.415 1_545 S
C104 C103 1.387 . S
H105 C113 0.930 . S
H106 C116 0.930 . S
H107 C118 0.930 . S
H108 C119 0.970 . S
H109 C119 0.970 . S
H110 C121 0.930 . S
H111 C123 0.930 . S
H112 C125 0.930 . S
C113 H105 0.930 . S
C113 C114 1.382 . S
C113 C115 1.426 . S
C114 C113 1.382 . S
C114 C118 1.389 . S
C115 C113 1.426 . S
C115 C116 1.375 . S
C115 C119 1.532 . S
C116 H106 0.930 . S
C116 C115 1.375 . S
C116 C117 1.416 . S
C117 C116 1.416 . S
C117 C118 1.371 . S
C118 H107 0.930 . S
C118 C114 1.389 . S
C118 C117 1.371 . S
C119 H108 0.970 . S
C119 H109 0.970 . S
C119 C115 1.532 . S
C119 C120 1.499 . S
C120 C119 1.499 . S
C120 C121 1.370 . S
C120 C125 1.415 . S
C121 H110 0.930 . S
C121 C120 1.370 . S
C121 C122 1.407 . S
C122 C121 1.407 . S
C122 C123 1.365 . S
C123 H111 0.930 . S
C123 C122 1.365 . S
C123 C124 1.393 . S
C124 C123 1.393 . S
C124 C125 1.387 . S
C125 H112 0.930 . S
C125 C120 1.415 . S
C125 C124 1.387 . S
Mg126 O133 2.141 . S
Mg126 O134 2.048 . S
Mg126 O135 2.048 . S
Mg126 O138 2.141 . S
C127 O128 1.313 . S
C127 O134 1.195 . S
O128 C127 1.313 . S
C129 O130 1.245 . S
C129 O138 1.289 . S
O130 C129 1.245 . S
C131 O132 1.245 . S
C131 O133 1.289 . S
O132 C131 1.245 . S
O133 Mg126 2.141 . S
O133 C131 1.289 . S
O134 Mg126 2.048 . S
O134 C127 1.195 . S
O135 Mg126 2.048 . S
O135 C136 1.195 . S
C136 O135 1.195 . S
C136 O137 1.313 . S
O137 C136 1.313 . S
O138 Mg126 2.141 . S
O138 C129 1.289 . S
Mg139 O146 2.141 . S
Mg139 O147 2.048 . S
Mg139 O148 2.048 . S
Mg139 O151 2.141 . S
C140 O141 1.313 . S
C140 O147 1.195 . S
O141 C140 1.313 . S
C142 O143 1.245 . S
C142 O151 1.289 . S
O143 C142 1.245 . S
C144 O145 1.245 . S
C144 O146 1.289 . S
O145 C144 1.245 . S
O146 Mg139 2.141 . S
O146 C144 1.289 . S
O147 Mg139 2.048 . S
O147 C140 1.195 . S
O148 Mg139 2.048 . S
O148 C149 1.195 . S
C149 O148 1.195 . S
C149 O150 1.313 . S
O150 C149 1.313 . S
O151 Mg139 2.141 . S
O151 C142 1.289 . S
Mg152 O159 2.141 . S
Mg152 O160 2.048 . S
Mg152 O161 2.048 . S
Mg152 O164 2.141 . S
C153 O154 1.313 . S
C153 O160 1.195 . S
O154 C153 1.313 . S
C155 O156 1.245 . S
C155 O164 1.289 . S
O156 C155 1.245 . S
C157 O158 1.245 . S
C157 O159 1.289 . S
O158 C157 1.245 . S
O159 Mg152 2.141 . S
O159 C157 1.289 . S
O160 Mg152 2.048 . S
O160 C153 1.195 . S
O161 Mg152 2.048 . S
O161 C162 1.195 . S
C162 O161 1.195 . S
C162 O163 1.313 . S
O163 C162 1.313 . S
O164 Mg152 2.141 . S
O164 C155 1.289 . S
Mg165 O172 2.141 . S
Mg165 O173 2.048 . S
Mg165 O174 2.048 . S
Mg165 O177 2.141 . S
C166 O167 1.313 . S
C166 O173 1.195 . S
O167 C166 1.313 . S
C168 O169 1.245 . S
C168 O177 1.289 . S
O169 C168 1.245 . S
C170 O171 1.245 . S
C170 O172 1.289 . S
O171 C170 1.245 . S
O172 Mg165 2.141 . S
O172 C170 1.289 . S
O173 Mg165 2.048 . S
O173 C166 1.195 . S
O174 Mg165 2.048 . S
O174 C175 1.195 . S
C175 O174 1.195 . S
C175 O176 1.313 . S
O176 C175 1.313 . S
O177 Mg165 2.141 . S
O177 C168 1.289 . S
Mg178 O185 2.141 . S
Mg178 O186 2.048 . S
Mg178 O187 2.048 . S
Mg178 O190 2.141 . S
C179 O180 1.313 . S
C179 O186 1.195 . S
O180 C179 1.313 . S
C181 O182 1.245 . S
C181 O190 1.289 . S
O182 C181 1.245 . S
C183 O184 1.245 . S
C183 O185 1.289 . S
O184 C183 1.245 . S
O185 Mg178 2.141 . S
O185 C183 1.289 . S
O186 Mg178 2.048 . S
O186 C179 1.195 . S
O187 Mg178 2.048 . S
O187 C188 1.195 . S
C188 O187 1.195 . S
C188 O189 1.313 . S
O189 C188 1.313 . S
O190 Mg178 2.141 . S
O190 C181 1.289 . S
Mg191 O198 2.141 . S
Mg191 O199 2.048 . S
Mg191 O200 2.048 . S
Mg191 O203 2.141 . S
C192 O193 1.313 . S
C192 O199 1.195 . S
O193 C192 1.313 . S
C194 O195 1.245 . S
C194 O203 1.289 . S
O195 C194 1.245 . S
C196 O197 1.245 . S
C196 O198 1.289 . S
O197 C196 1.245 . S
O198 Mg191 2.141 . S
O198 C196 1.289 . S
O199 Mg191 2.048 . S
O199 C192 1.195 . S
O200 Mg191 2.048 . S
O200 C201 1.195 . S
C201 O200 1.195 . S
C201 O202 1.313 . S
O202 C201 1.313 . S
O203 Mg191 2.141 . S
O203 C194 1.289 . S
H204 C216 0.930 . S
H205 C218 0.930 . S
H206 C219 0.930 . S
H207 C223 0.959 . S
H208 C223 0.959 . S
H209 C223 0.961 . S
H210 C224 0.960 . S
H211 C224 0.961 . S
H212 C224 0.959 . S
H213 C227 0.929 . S
H214 C228 0.931 . S
H215 C230 0.930 . S
C216 H204 0.930 . S
C216 C217 1.399 . S
C216 C221 1.399 . S
C217 C216 1.399 . S
C217 C218 1.376 . S
C218 H205 0.930 . S
C218 C217 1.376 . S
C218 C219 1.388 . S
C219 H206 0.930 . S
C219 C218 1.388 . S
C219 C220 1.390 . S
C220 C219 1.390 . S
C220 C221 1.394 . S
C220 C226 1.465 . S
C221 C216 1.399 . S
C221 C220 1.394 . S
C221 C222 1.516 . S
C222 C221 1.516 . S
C222 C223 1.502 . S
C222 C224 1.561 . S
C222 C225 1.526 . S
C223 H207 0.959 . S
C223 H208 0.959 . S
C223 H209 0.961 . S
C223 C222 1.502 . S
C224 H210 0.960 . S
C224 H211 0.961 . S
C224 H212 0.959 . S
C224 C222 1.561 . S
C225 C222 1.526 . S
C225 C226 1.396 . S
C225 C230 1.390 . S
C226 C220 1.465 . S
C226 C225 1.396 . S
C226 C227 1.399 . S
C227 H213 0.929 . S
C227 C226 1.399 . S
C227 C228 1.385 . S
C228 H214 0.931 . S
C228 C227 1.385 . S
C228 C229 1.389 . S
C229 C228 1.389 . S
C229 C230 1.387 . S
C230 H215 0.930 . S
C230 C225 1.390 . S
C230 C229 1.387 . S
H231 C243 0.930 . S
H232 C245 0.930 . S
H233 C246 0.930 . S
H234 C250 0.959 . S
H235 C250 0.959 . S
H236 C250 0.961 . S
H237 C251 0.960 . S
H238 C251 0.961 . S
H239 C251 0.959 . S
H240 C254 0.929 . S
H241 C255 0.931 . S
H242 C257 0.930 . S
C243 H231 0.930 . S
C243 C244 1.399 . S
C243 C248 1.399 . S
C244 C243 1.399 . S
C244 C245 1.376 . S
C245 H232 0.930 . S
C245 C244 1.376 . S
C245 C246 1.388 . S
C246 H233 0.930 . S
C246 C245 1.388 . S
C246 C247 1.390 . S
C247 C246 1.390 . S
C247 C248 1.394 . S
C247 C253 1.465 . S
C248 C243 1.399 . S
C248 C247 1.394 . S
C248 C249 1.516 . S
C249 C248 1.516 . S
C249 C250 1.502 . S
C249 C251 1.561 . S
C249 C252 1.526 . S
C250 H234 0.959 . S
C250 H235 0.959 . S
C250 H236 0.961 . S
C250 C249 1.502 . S
C251 H237 0.960 . S
C251 H238 0.961 . S
C251 H239 0.959 . S
C251 C249 1.561 . S
C252 C249 1.526 . S
C252 C253 1.396 . S
C252 C257 1.390 . S
C253 C247 1.465 . S
C253 C252 1.396 . S
C253 C254 1.399 . S
C254 H240 0.929 . S
C254 C253 1.399 . S
C254 C255 1.385 . S
C255 H241 0.931 . S
C255 C254 1.385 . S
C255 C256 1.389 . S
C256 C255 1.389 . S
C256 C257 1.387 . S
C257 H242 0.930 . S
C257 C252 1.390 . S
C257 C256 1.387 . S
H258 C270 0.930 . S
H259 C272 0.930 . S
H260 C273 0.930 . S
H261 C277 0.959 . S
H262 C277 0.959 . S
H263 C277 0.961 . S
H264 C278 0.960 . S
H265 C278 0.961 . S
H266 C278 0.959 . S
H267 C281 0.929 . S
H268 C282 0.931 . S
H269 C284 0.930 . S
C270 H258 0.930 . S
C270 C271 1.399 . S
C270 C275 1.399 . S
C271 C270 1.399 . S
C271 C272 1.376 . S
C272 H259 0.930 . S
C272 C271 1.376 . S
C272 C273 1.388 . S
C273 H260 0.930 . S
C273 C272 1.388 . S
C273 C274 1.390 . S
C274 C273 1.390 . S
C274 C275 1.394 . S
C274 C280 1.465 . S
C275 C270 1.399 . S
C275 C274 1.394 . S
C275 C276 1.516 . S
C276 C275 1.516 . S
C276 C277 1.502 . S
C276 C278 1.561 . S
C276 C279 1.526 . S
C277 H261 0.959 . S
C277 H262 0.959 . S
C277 H263 0.961 . S
C277 C276 1.502 . S
C278 H264 0.960 . S
C278 H265 0.961 . S
C278 H266 0.959 . S
C278 C276 1.561 . S
C279 C276 1.526 . S
C279 C280 1.396 . S
C279 C284 1.390 . S
C280 C274 1.465 . S
C280 C279 1.396 . S
C280 C281 1.399 . S
C281 H267 0.929 . S
C281 C280 1.399 . S
C281 C282 1.385 . S
C282 H268 0.931 . S
C282 C281 1.385 . S
C282 C283 1.389 . S
C283 C282 1.389 . S
C283 C284 1.387 . S
C284 H269 0.930 . S
C284 C279 1.390 . S
C284 C283 1.387 . S
H285 C297 0.930 . S
H286 C299 0.930 . S
H287 C300 0.930 . S
H288 C304 0.959 . S
H289 C304 0.959 . S
H290 C304 0.961 . S
H291 C305 0.960 . S
H292 C305 0.961 . S
H293 C305 0.959 . S
H294 C308 0.929 . S
H295 C309 0.931 . S
H296 C311 0.930 . S
C297 H285 0.930 . S
C297 C298 1.399 . S
C297 C302 1.399 . S
C298 C297 1.399 . S
C298 C299 1.376 . S
C299 H286 0.930 . S
C299 C298 1.376 . S
C299 C300 1.388 . S
C300 H287 0.930 . S
C300 C299 1.388 . S
C300 C301 1.390 . S
C301 C300 1.390 . S
C301 C302 1.394 . S
C301 C307 1.465 . S
C302 C297 1.399 . S
C302 C301 1.394 . S
C302 C303 1.516 . S
C303 C302 1.516 . S
C303 C304 1.502 . S
C303 C305 1.561 . S
C303 C306 1.526 . S
C304 H288 0.959 . S
C304 H289 0.959 . S
C304 H290 0.961 . S
C304 C303 1.502 . S
C305 H291 0.960 . S
C305 H292 0.961 . S
C305 H293 0.959 . S
C305 C303 1.561 . S
C306 C303 1.526 . S
C306 C307 1.396 . S
C306 C311 1.390 . S
C307 C301 1.465 . S
C307 C306 1.396 . S
C307 C308 1.399 . S
C308 H294 0.929 . S
C308 C307 1.399 . S
C308 C309 1.385 . S
C309 H295 0.931 . S
C309 C308 1.385 . S
C309 C310 1.389 . S
C310 C309 1.389 . S
C310 C311 1.387 . S
C311 H296 0.930 . S
C311 C306 1.390 . S
C311 C310 1.387 . S
H312 C324 0.930 . S
H313 C326 0.930 . S
H314 C327 0.930 . S
H315 C331 0.959 . S
H316 C331 0.959 . S
H317 C331 0.961 . S
H318 C332 0.960 . S
H319 C332 0.961 . S
H320 C332 0.959 . S
H321 C335 0.929 . S
H322 C336 0.931 . S
H323 C338 0.930 . S
C324 H312 0.930 . S
C324 C325 1.399 . S
C324 C329 1.399 . S
C325 C324 1.399 . S
C325 C326 1.376 . S
C326 H313 0.930 . S
C326 C325 1.376 . S
C326 C327 1.388 . S
C327 H314 0.930 . S
C327 C326 1.388 . S
C327 C328 1.390 . S
C328 C327 1.390 . S
C328 C329 1.394 . S
C328 C334 1.465 . S
C329 C324 1.399 . S
C329 C328 1.394 . S
C329 C330 1.516 . S
C330 C329 1.516 . S
C330 C331 1.502 . S
C330 C332 1.561 . S
C330 C333 1.526 . S
C331 H315 0.959 . S
C331 H316 0.959 . S
C331 H317 0.961 . S
C331 C330 1.502 . S
C332 H318 0.960 . S
C332 H319 0.961 . S
C332 H320 0.959 . S
C332 C330 1.561 . S
C333 C330 1.526 . S
C333 C334 1.396 . S
C333 C338 1.390 . S
C334 C328 1.465 . S
C334 C333 1.396 . S
C334 C335 1.399 . S
C335 H321 0.929 . S
C335 C334 1.399 . S
C335 C336 1.385 . S
C336 H322 0.931 . S
C336 C335 1.385 . S
C336 C337 1.389 . S
C337 C336 1.389 . S
C337 C338 1.387 . S
C338 H323 0.930 . S
C338 C333 1.390 . S
C338 C337 1.387 . S
H339 C351 0.930 . S
H340 C353 0.930 . S
H341 C354 0.930 . S
H342 C358 0.959 . S
H343 C358 0.959 . S
H344 C358 0.961 . S
H345 C359 0.960 . S
H346 C359 0.961 . S
H347 C359 0.959 . S
H348 C362 0.929 . S
H349 C363 0.931 . S
H350 C365 0.930 . S
C351 H339 0.930 . S
C351 C352 1.399 . S
C351 C356 1.399 . S
C352 C351 1.399 . S
C352 C353 1.376 . S
C353 H340 0.930 . S
C353 C352 1.376 . S
C353 C354 1.388 . S
C354 H341 0.930 . S
C354 C353 1.388 . S
C354 C355 1.390 . S
C355 C354 1.390 . S
C355 C356 1.394 . S
C355 C361 1.465 . S
C356 C351 1.399 . S
C356 C355 1.394 . S
C356 C357 1.516 . S
C357 C356 1.516 . S
C357 C358 1.502 . S
C357 C359 1.561 . S
C357 C360 1.526 . S
C358 H342 0.959 . S
C358 H343 0.959 . S
C358 H344 0.961 . S
C358 C357 1.502 . S
C359 H345 0.960 . S
C359 H346 0.961 . S
C359 H347 0.959 . S
C359 C357 1.561 . S
C360 C357 1.526 . S
C360 C361 1.396 . S
C360 C365 1.390 . S
C361 C355 1.465 . S
C361 C360 1.396 . S
C361 C362 1.399 . S
C362 H348 0.929 . S
C362 C361 1.399 . S
C362 C363 1.385 . S
C363 H349 0.931 . S
C363 C362 1.385 . S
C363 C364 1.389 . S
C364 C363 1.389 . S
C364 C365 1.387 . S
C365 H350 0.930 . S
C365 C360 1.390 . S
C365 C364 1.387 . S
H366 C378 0.930 . S
H367 C380 0.930 . S
H368 C381 0.930 . S
H369 C385 0.959 . S
H370 C385 0.959 . S
H371 C385 0.961 . S
H372 C386 0.960 . S
H373 C386 0.961 . S
H374 C386 0.959 . S
H375 C389 0.929 . S
H376 C390 0.931 . S
H377 C392 0.930 . S
C378 H366 0.930 . S
C378 C379 1.399 . S
C378 C383 1.399 . S
C379 C378 1.399 . S
C379 C380 1.376 . S
C380 H367 0.930 . S
C380 C379 1.376 . S
C380 C381 1.388 . S
C381 H368 0.930 . S
C381 C380 1.388 . S
C381 C382 1.390 . S
C382 C381 1.390 . S
C382 C383 1.394 . S
C382 C388 1.465 . S
C383 C378 1.399 . S
C383 C382 1.394 . S
C383 C384 1.516 . S
C384 C383 1.516 . S
C384 C385 1.502 . S
C384 C386 1.561 . S
C384 C387 1.526 . S
C385 H369 0.959 . S
C385 H370 0.959 . S
C385 H371 0.961 . S
C385 C384 1.502 . S
C386 H372 0.960 . S
C386 H373 0.961 . S
C386 H374 0.959 . S
C386 C384 1.561 . S
C387 C384 1.526 . S
C387 C388 1.396 . S
C387 C392 1.390 . S
C388 C382 1.465 . S
C388 C387 1.396 . S
C388 C389 1.399 . S
C389 H375 0.929 . S
C389 C388 1.399 . S
C389 C390 1.385 . S
C390 H376 0.931 . S
C390 C389 1.385 . S
C390 C391 1.389 . S
C391 C390 1.389 . S
C391 C392 1.387 . S
C392 H377 0.930 . S
C392 C387 1.390 . S
C392 C391 1.387 . S
H393 C405 0.930 . S
H394 C407 0.930 . S
H395 C408 0.930 . S
H396 C412 0.959 . S
H397 C412 0.959 . S
H398 C412 0.961 . S
H399 C413 0.960 . S
H400 C413 0.961 . S
H401 C413 0.959 . S
H402 C416 0.929 . S
H403 C417 0.931 . S
H404 C419 0.930 . S
C405 H393 0.930 . S
C405 C406 1.399 . S
C405 C410 1.399 . S
C406 C405 1.399 . S
C406 C407 1.376 . S
C407 H394 0.930 . S
C407 C406 1.376 . S
C407 C408 1.388 . S
C408 H395 0.930 . S
C408 C407 1.388 . S
C408 C409 1.390 . S
C409 C408 1.390 . S
C409 C410 1.394 . S
C409 C415 1.465 . S
C410 C405 1.399 . S
C410 C409 1.394 . S
C410 C411 1.516 . S
C411 C410 1.516 . S
C411 C412 1.502 . S
C411 C413 1.561 . S
C411 C414 1.526 . S
C412 H396 0.959 . S
C412 H397 0.959 . S
C412 H398 0.961 . S
C412 C411 1.502 . S
C413 H399 0.960 . S
C413 H400 0.961 . S
C413 H401 0.959 . S
C413 C411 1.561 . S
C414 C411 1.526 . S
C414 C415 1.396 . S
C414 C419 1.390 . S
C415 C409 1.465 . S
C415 C414 1.396 . S
C415 C416 1.399 . S
C416 H402 0.929 . S
C416 C415 1.399 . S
C416 C417 1.385 . S
C417 H403 0.931 . S
C417 C416 1.385 . S
C417 C418 1.389 . S
C418 C417 1.389 . S
C418 C419 1.387 . S
C419 H404 0.930 . S
C419 C414 1.390 . S
C419 C418 1.387 . S
H420 C432 0.930 . S
H421 C434 0.930 . S
H422 C435 0.930 . S
H423 C439 0.959 . S
H424 C439 0.959 . S
H425 C439 0.961 . S
H426 C440 0.960 . S
H427 C440 0.961 . S
H428 C440 0.959 . S
H429 C443 0.929 . S
H430 C444 0.931 . S
H431 C446 0.930 . S
C432 H420 0.930 . S
C432 C433 1.399 . S
C432 C437 1.399 . S
C433 C432 1.399 . S
C433 C434 1.376 . S
C434 H421 0.930 . S
C434 C433 1.376 . S
C434 C435 1.388 . S
C435 H422 0.930 . S
C435 C434 1.388 . S
C435 C436 1.390 . S
C436 C435 1.390 . S
C436 C437 1.394 . S
C436 C442 1.465 . S
C437 C432 1.399 . S
C437 C436 1.394 . S
C437 C438 1.516 . S
C438 C437 1.516 . S
C438 C439 1.502 . S
C438 C440 1.561 . S
C438 C441 1.526 . S
C439 H423 0.959 . S
C439 H424 0.959 . S
C439 H425 0.961 . S
C439 C438 1.502 . S
C440 H426 0.960 . S
C440 H427 0.961 . S
C440 H428 0.959 . S
C440 C438 1.561 . S
C441 C438 1.526 . S
C441 C442 1.396 . S
C441 C446 1.390 . S
C442 C436 1.465 . S
C442 C441 1.396 . S
C442 C443 1.399 . S
C443 H429 0.929 . S
C443 C442 1.399 . S
C443 C444 1.385 . S
C444 H430 0.931 . S
C444 C443 1.385 . S
C444 C445 1.389 . S
C445 C444 1.389 . S
C445 C446 1.387 . S
C446 H431 0.930 . S
C446 C441 1.390 . S
C446 C445 1.387 . S
H447 C459 0.930 . S
H448 C461 0.930 . S
H449 C462 0.930 . S
H450 C466 0.959 . S
H451 C466 0.959 . S
H452 C466 0.961 . S
H453 C467 0.960 . S
H454 C467 0.961 . S
H455 C467 0.959 . S
H456 C470 0.929 . S
H457 C471 0.931 . S
H458 C473 0.930 . S
C459 H447 0.930 . S
C459 C460 1.399 . S
C459 C464 1.399 . S
C460 C459 1.399 . S
C460 C461 1.376 . S
C461 H448 0.930 . S
C461 C460 1.376 . S
C461 C462 1.388 . S
C462 H449 0.930 . S
C462 C461 1.388 . S
C462 C463 1.390 . S
C463 C462 1.390 . S
C463 C464 1.394 . S
C463 C469 1.465 . S
C464 C459 1.399 . S
C464 C463 1.394 . S
C464 C465 1.516 . S
C465 C464 1.516 . S
C465 C466 1.502 . S
C465 C467 1.561 . S
C465 C468 1.526 . S
C466 H450 0.959 . S
C466 H451 0.959 . S
C466 H452 0.961 . S
C466 C465 1.502 . S
C467 H453 0.960 . S
C467 H454 0.961 . S
C467 H455 0.959 . S
C467 C465 1.561 . S
C468 C465 1.526 . S
C468 C469 1.396 . S
C468 C473 1.390 . S
C469 C463 1.465 . S
C469 C468 1.396 . S
C469 C470 1.399 . S
C470 H456 0.929 . S
C470 C469 1.399 . S
C470 C471 1.385 . S
C471 H457 0.931 . S
C471 C470 1.385 . S
C471 C472 1.389 . S
C472 C471 1.389 . S
C472 C473 1.387 . S
C473 H458 0.930 . S
C473 C468 1.390 . S
C473 C472 1.387 . S
H474 C486 0.930 . S
H475 C488 0.930 . S
H476 C489 0.930 . S
H477 C493 0.959 . S
H478 C493 0.959 . S
H479 C493 0.961 . S
H480 C494 0.960 . S
H481 C494 0.961 . S
H482 C494 0.959 . S
H483 C497 0.929 . S
H484 C498 0.931 . S
H485 C500 0.930 . S
C486 H474 0.930 . S
C486 C487 1.399 . S
C486 C491 1.399 . S
C487 C486 1.399 . S
C487 C488 1.376 . S
C488 H475 0.930 . S
C488 C487 1.376 . S
C488 C489 1.388 . S
C489 H476 0.930 . S
C489 C488 1.388 . S
C489 C490 1.390 . S
C490 C489 1.390 . S
C490 C491 1.394 . S
C490 C496 1.465 . S
C491 C486 1.399 . S
C491 C490 1.394 . S
C491 C492 1.516 . S
C492 C491 1.516 . S
C492 C493 1.502 . S
C492 C494 1.561 . S
C492 C495 1.526 . S
C493 H477 0.959 . S
C493 H478 0.959 . S
C493 H479 0.961 . S
C493 C492 1.502 . S
C494 H480 0.960 . S
C494 H481 0.961 . S
C494 H482 0.959 . S
C494 C492 1.561 . S
C495 C492 1.526 . S
C495 C496 1.396 . S
C495 C500 1.390 . S
C496 C490 1.465 . S
C496 C495 1.396 . S
C496 C497 1.399 . S
C497 H483 0.929 . S
C497 C496 1.399 . S
C497 C498 1.385 . S
C498 H484 0.931 . S
C498 C497 1.385 . S
C498 C499 1.389 . S
C499 C498 1.389 . S
C499 C500 1.387 . S
C500 H485 0.930 . S
C500 C495 1.390 . S
C500 C499 1.387 . S
H501 C513 0.930 . S
H502 C515 0.930 . S
H503 C516 0.930 . S
H504 C520 0.959 . S
H505 C520 0.959 . S
H506 C520 0.961 . S
H507 C521 0.960 . S
H508 C521 0.961 . S
H509 C521 0.959 . S
H510 C524 0.929 . S
H511 C525 0.931 . S
H512 C527 0.930 . S
C513 H501 0.930 . S
C513 C514 1.399 . S
C513 C518 1.399 . S
C514 C513 1.399 . S
C514 C515 1.376 . S
C515 H502 0.930 . S
C515 C514 1.376 . S
C515 C516 1.388 . S
C516 H503 0.930 . S
C516 C515 1.388 . S
C516 C517 1.390 . S
C517 C516 1.390 . S
C517 C518 1.394 . S
C517 C523 1.465 . S
C518 C513 1.399 . S
C518 C517 1.394 . S
C518 C519 1.516 . S
C519 C518 1.516 . S
C519 C520 1.502 . S
C519 C521 1.561 . S
C519 C522 1.526 . S
C520 H504 0.959 . S
C520 H505 0.959 . S
C520 H506 0.961 . S
C520 C519 1.502 . S
C521 H507 0.960 . S
C521 H508 0.961 . S
C521 H509 0.959 . S
C521 C519 1.561 . S
C522 C519 1.526 . S
C522 C523 1.396 . S
C522 C527 1.390 . S
C523 C517 1.465 . S
C523 C522 1.396 . S
C523 C524 1.399 . S
C524 H510 0.929 . S
C524 C523 1.399 . S
C524 C525 1.385 . S
C525 H511 0.931 . S
C525 C524 1.385 . S
C525 C526 1.389 . S
C526 C525 1.389 . S
C526 C527 1.387 . S
C527 H512 0.930 . S
C527 C522 1.390 . S
C527 C526 1.387 . S
H528 C540 0.930 . S
H529 C542 0.922 1_455 S
H530 C543 0.930 . S
H531 C547 0.959 . S
H532 C547 0.959 . S
H533 C547 0.961 . S
H534 C548 0.960 . S
H535 C548 0.961 . S
H536 C548 0.959 . S
H537 C551 0.929 . S
H538 C552 0.931 . S
H539 C554 0.930 . S
C540 H528 0.930 . S
C540 C541 1.399 . S
C540 C545 1.399 . S
C541 C540 1.399 . S
C541 C542 1.376 . S
C542 H529 0.922 1_655 S
C542 C541 1.376 . S
C542 C543 1.388 . S
C543 H530 0.930 . S
C543 C542 1.388 . S
C543 C544 1.390 . S
C544 C543 1.390 . S
C544 C545 1.394 . S
C544 C550 1.465 . S
C545 C540 1.399 . S
C545 C544 1.394 . S
C545 C546 1.516 . S
C546 C545 1.516 . S
C546 C547 1.502 . S
C546 C548 1.561 . S
C546 C549 1.526 . S
C547 H531 0.959 . S
C547 H532 0.959 . S
C547 H533 0.961 . S
C547 C546 1.502 . S
C548 H534 0.960 . S
C548 H535 0.961 . S
C548 H536 0.959 . S
C548 C546 1.561 . S
C549 C546 1.526 . S
C549 C550 1.396 . S
C549 C554 1.390 . S
C550 C544 1.465 . S
C550 C549 1.396 . S
C550 C551 1.399 . S
C551 H537 0.929 . S
C551 C550 1.399 . S
C551 C552 1.385 . S
C552 H538 0.931 . S
C552 C551 1.385 . S
C552 C553 1.389 . S
C553 C552 1.389 . S
C553 C554 1.387 . S
C554 H539 0.930 . S
C554 C549 1.390 . S
C554 C553 1.387 . S
H555 C567 0.930 . S
H556 C569 0.930 . S
H557 C570 0.930 . S
H558 C574 0.959 . S
H559 C574 0.959 . S
H560 C574 0.961 . S
H561 C575 0.960 . S
H562 C575 0.961 . S
H563 C575 0.959 . S
H564 C578 0.929 . S
H565 C579 0.931 . S
H566 C581 0.930 . S
C567 H555 0.930 . S
C567 C568 1.399 . S
C567 C572 1.399 . S
C568 C567 1.399 . S
C568 C569 1.376 . S
C569 H556 0.930 . S
C569 C568 1.376 . S
C569 C570 1.388 . S
C570 H557 0.930 . S
C570 C569 1.388 . S
C570 C571 1.390 . S
C571 C570 1.390 . S
C571 C572 1.394 . S
C571 C577 1.465 . S
C572 C567 1.399 . S
C572 C571 1.394 . S
C572 C573 1.516 . S
C573 C572 1.516 . S
C573 C574 1.502 . S
C573 C575 1.561 . S
C573 C576 1.526 . S
C574 H558 0.959 . S
C574 H559 0.959 . S
C574 H560 0.961 . S
C574 C573 1.502 . S
C575 H561 0.960 . S
C575 H562 0.961 . S
C575 H563 0.959 . S
C575 C573 1.561 . S
C576 C573 1.526 . S
C576 C577 1.396 . S
C576 C581 1.390 . S
C577 C571 1.465 . S
C577 C576 1.396 . S
C577 C578 1.399 . S
C578 H564 0.929 . S
C578 C577 1.399 . S
C578 C579 1.385 . S
C579 H565 0.931 . S
C579 C578 1.385 . S
C579 C580 1.389 . S
C580 C579 1.389 . S
C580 C581 1.387 . S
C581 H566 0.930 . S
C581 C576 1.390 . S
C581 C580 1.387 . S
H582 C594 0.930 . S
H583 C596 0.930 . S
H584 C597 0.930 . S
H585 C601 0.959 . S
H586 C601 0.959 . S
H587 C601 0.961 . S
H588 C602 0.960 . S
H589 C602 0.961 . S
H590 C602 0.959 . S
H591 C605 0.929 . S
H592 C606 0.931 . S
H593 C608 0.930 . S
C594 H582 0.930 . S
C594 C595 1.399 . S
C594 C599 1.399 . S
C595 C594 1.399 . S
C595 C596 1.376 . S
C596 H583 0.930 . S
C596 C595 1.376 . S
C596 C597 1.388 . S
C597 H584 0.930 . S
C597 C596 1.388 . S
C597 C598 1.390 . S
C598 C597 1.390 . S
C598 C599 1.394 . S
C598 C604 1.465 . S
C599 C594 1.399 . S
C599 C598 1.394 . S
C599 C600 1.516 . S
C600 C599 1.516 . S
C600 C601 1.502 . S
C600 C602 1.561 . S
C600 C603 1.526 . S
C601 H585 0.959 . S
C601 H586 0.959 . S
C601 H587 0.961 . S
C601 C600 1.502 . S
C602 H588 0.960 . S
C602 H589 0.961 . S
C602 H590 0.959 . S
C602 C600 1.561 . S
C603 C600 1.526 . S
C603 C604 1.396 . S
C603 C608 1.390 . S
C604 C598 1.465 . S
C604 C603 1.396 . S
C604 C605 1.399 . S
C605 H591 0.929 . S
C605 C604 1.399 . S
C605 C606 1.385 . S
C606 H592 0.931 . S
C606 C605 1.385 . S
C606 C607 1.389 . S
C607 C606 1.389 . S
C607 C608 1.387 . S
C608 H593 0.930 . S
C608 C603 1.390 . S
C608 C607 1.387 . S
H609 C621 0.930 . S
H610 C623 0.930 . S
H611 C624 0.930 . S
H612 C628 0.959 . S
H613 C628 0.959 . S
H614 C628 0.961 . S
H615 C629 0.960 . S
H616 C629 0.961 . S
H617 C629 0.959 . S
H618 C632 0.929 . S
H619 C633 0.931 . S
H620 C635 0.930 . S
C621 H609 0.930 . S
C621 C622 1.399 . S
C621 C626 1.399 . S
C622 C621 1.399 . S
C622 C623 1.376 . S
C623 H610 0.930 . S
C623 C622 1.376 . S
C623 C624 1.388 . S
C624 H611 0.930 . S
C624 C623 1.388 . S
C624 C625 1.390 . S
C625 C624 1.390 . S
C625 C626 1.394 . S
C625 C631 1.465 . S
C626 C621 1.399 . S
C626 C625 1.394 . S
C626 C627 1.516 . S
C627 C626 1.516 . S
C627 C628 1.502 . S
C627 C629 1.561 . S
C627 C630 1.526 . S
C628 H612 0.959 . S
C628 H613 0.959 . S
C628 H614 0.961 . S
C628 C627 1.502 . S
C629 H615 0.960 . S
C629 H616 0.961 . S
C629 H617 0.959 . S
C629 C627 1.561 . S
C630 C627 1.526 . S
C630 C631 1.396 . S
C630 C635 1.390 . S
C631 C625 1.465 . S
C631 C630 1.396 . S
C631 C632 1.399 . S
C632 H618 0.929 . S
C632 C631 1.399 . S
C632 C633 1.385 . S
C633 H619 0.931 . S
C633 C632 1.385 . S
C633 C634 1.389 . S
C634 C633 1.389 . S
C634 C635 1.387 . S
C635 H620 0.930 . S
C635 C630 1.390 . S
C635 C634 1.387 . S
H636 C648 0.930 . S
H637 C650 0.930 . S
H638 C651 0.930 . S
H639 C655 0.959 . S
H640 C655 0.959 . S
H641 C655 0.961 . S
H642 C656 0.960 . S
H643 C656 0.961 . S
H644 C656 0.959 . S
H645 C659 0.929 . S
H646 C660 0.931 . S
H647 C662 0.930 . S
C648 H636 0.930 . S
C648 C649 1.399 . S
C648 C653 1.399 . S
C649 C648 1.399 . S
C649 C650 1.376 . S
C650 H637 0.930 . S
C650 C649 1.376 . S
C650 C651 1.388 . S
C651 H638 0.930 . S
C651 C650 1.388 . S
C651 C652 1.390 . S
C652 C651 1.390 . S
C652 C653 1.394 . S
C652 C658 1.465 . S
C653 C648 1.399 . S
C653 C652 1.394 . S
C653 C654 1.516 . S
C654 C653 1.516 . S
C654 C655 1.502 . S
C654 C656 1.561 . S
C654 C657 1.526 . S
C655 H639 0.959 . S
C655 H640 0.959 . S
C655 H641 0.961 . S
C655 C654 1.502 . S
C656 H642 0.960 . S
C656 H643 0.961 . S
C656 H644 0.959 . S
C656 C654 1.561 . S
C657 C654 1.526 . S
C657 C658 1.396 . S
C657 C662 1.390 . S
C658 C652 1.465 . S
C658 C657 1.396 . S
C658 C659 1.399 . S
C659 H645 0.929 . S
C659 C658 1.399 . S
C659 C660 1.385 . S
C660 H646 0.931 . S
C660 C659 1.385 . S
C660 C661 1.389 . S
C661 C660 1.389 . S
C661 C662 1.387 . S
C662 H647 0.930 . S
C662 C657 1.390 . S
C662 C661 1.387 . S
H663 C675 0.930 . S
H664 C677 0.930 . S
H665 C678 0.930 . S
H666 C682 0.959 . S
H667 C682 0.959 . S
H668 C682 0.961 . S
H669 C683 0.960 . S
H670 C683 0.961 . S
H671 C683 0.959 . S
H672 C686 0.929 . S
H673 C687 0.931 . S
H674 C689 0.930 . S
C675 H663 0.930 . S
C675 C676 1.399 . S
C675 C680 1.399 . S
C676 C675 1.399 . S
C676 C677 1.376 . S
C677 H664 0.930 . S
C677 C676 1.376 . S
C677 C678 1.388 . S
C678 H665 0.930 . S
C678 C677 1.388 . S
C678 C679 1.390 . S
C679 C678 1.390 . S
C679 C680 1.394 . S
C679 C685 1.465 . S
C680 C675 1.399 . S
C680 C679 1.394 . S
C680 C681 1.516 . S
C681 C680 1.516 . S
C681 C682 1.502 . S
C681 C683 1.561 . S
C681 C684 1.526 . S
C682 H666 0.959 . S
C682 H667 0.959 . S
C682 H668 0.961 . S
C682 C681 1.502 . S
C683 H669 0.960 . S
C683 H670 0.961 . S
C683 H671 0.959 . S
C683 C681 1.561 . S
C684 C681 1.526 . S
C684 C685 1.396 . S
C684 C689 1.390 . S
C685 C679 1.465 . S
C685 C684 1.396 . S
C685 C686 1.399 . S
C686 H672 0.929 . S
C686 C685 1.399 . S
C686 C687 1.385 . S
C687 H673 0.931 . S
C687 C686 1.385 . S
C687 C688 1.389 . S
C688 C687 1.389 . S
C688 C689 1.387 . S
C689 H674 0.930 . S
C689 C684 1.390 . S
C689 C688 1.387 . S
H690 C702 0.930 . S
H691 C704 0.930 . S
H692 C705 0.930 . S
H693 C709 0.959 . S
H694 C709 0.959 . S
H695 C709 0.961 . S
H696 C710 0.960 . S
H697 C710 0.961 . S
H698 C710 0.959 . S
H699 C713 0.929 . S
H700 C714 0.931 . S
H701 C716 0.930 . S
C702 H690 0.930 . S
C702 C703 1.399 . S
C702 C707 1.399 . S
C703 C702 1.399 . S
C703 C704 1.376 . S
C704 H691 0.930 . S
C704 C703 1.376 . S
C704 C705 1.388 . S
C705 H692 0.930 . S
C705 C704 1.388 . S
C705 C706 1.390 . S
C706 C705 1.390 . S
C706 C707 1.394 . S
C706 C712 1.465 . S
C707 C702 1.399 . S
C707 C706 1.394 . S
C707 C708 1.516 . S
C708 C707 1.516 . S
C708 C709 1.502 . S
C708 C710 1.561 . S
C708 C711 1.526 . S
C709 H693 0.959 . S
C709 H694 0.959 . S
C709 H695 0.961 . S
C709 C708 1.502 . S
C710 H696 0.960 . S
C710 H697 0.961 . S
C710 H698 0.959 . S
C710 C708 1.561 . S
C711 C708 1.526 . S
C711 C712 1.396 . S
C711 C716 1.390 . S
C712 C706 1.465 . S
C712 C711 1.396 . S
C712 C713 1.399 . S
C713 H699 0.929 . S
C713 C712 1.399 . S
C713 C714 1.385 . S
C714 H700 0.931 . S
C714 C713 1.385 . S
C714 C715 1.389 . S
C715 C714 1.389 . S
C715 C716 1.387 . S
C716 H701 0.930 . S
C716 C711 1.390 . S
C716 C715 1.387 . S
H717 C729 0.930 . S
H718 C731 0.930 . S
H719 C732 0.930 . S
H720 C736 0.959 . S
H721 C736 0.959 . S
H722 C736 0.961 . S
H723 C737 0.960 . S
H724 C737 0.961 . S
H725 C737 0.959 . S
H726 C740 0.929 . S
H727 C741 0.931 . S
H728 C743 0.930 . S
C729 H717 0.930 . S
C729 C730 1.399 . S
C729 C734 1.399 . S
C730 C729 1.399 . S
C730 C731 1.376 . S
C731 H718 0.930 . S
C731 C730 1.376 . S
C731 C732 1.388 . S
C732 H719 0.930 . S
C732 C731 1.388 . S
C732 C733 1.390 . S
C733 C732 1.390 . S
C733 C734 1.394 . S
C733 C739 1.465 . S
C734 C729 1.399 . S
C734 C733 1.394 . S
C734 C735 1.516 . S
C735 C734 1.516 . S
C735 C736 1.502 . S
C735 C737 1.561 . S
C735 C738 1.526 . S
C736 H720 0.959 . S
C736 H721 0.959 . S
C736 H722 0.961 . S
C736 C735 1.502 . S
C737 H723 0.960 . S
C737 H724 0.961 . S
C737 H725 0.959 . S
C737 C735 1.561 . S
C738 C735 1.526 . S
C738 C739 1.396 . S
C738 C743 1.390 . S
C739 C733 1.465 . S
C739 C738 1.396 . S
C739 C740 1.399 . S
C740 H726 0.929 . S
C740 C739 1.399 . S
C740 C741 1.385 . S
C741 H727 0.931 . S
C741 C740 1.385 . S
C741 C742 1.389 . S
C742 C741 1.389 . S
C742 C743 1.387 . S
C743 H728 0.930 . S
C743 C738 1.390 . S
C743 C742 1.387 . S
H744 C756 0.930 . S
H745 C758 0.930 . S
H746 C759 0.930 . S
H747 C763 0.959 . S
H748 C763 0.959 . S
H749 C763 0.961 . S
H750 C764 0.960 . S
H751 C764 0.961 . S
H752 C764 0.959 . S
H753 C767 0.929 . S
H754 C768 0.931 . S
H755 C770 0.930 . S
C756 H744 0.930 . S
C756 C757 1.399 . S
C756 C761 1.399 . S
C757 C756 1.399 . S
C757 C758 1.376 . S
C758 H745 0.930 . S
C758 C757 1.376 . S
C758 C759 1.388 . S
C759 H746 0.930 . S
C759 C758 1.388 . S
C759 C760 1.390 . S
C760 C759 1.390 . S
C760 C761 1.394 . S
C760 C766 1.465 . S
C761 C756 1.399 . S
C761 C760 1.394 . S
C761 C762 1.516 . S
C762 C761 1.516 . S
C762 C763 1.502 . S
C762 C764 1.561 . S
C762 C765 1.526 . S
C763 H747 0.959 . S
C763 H748 0.959 . S
C763 H749 0.961 . S
C763 C762 1.502 . S
C764 H750 0.960 . S
C764 H751 0.961 . S
C764 H752 0.959 . S
C764 C762 1.561 . S
C765 C762 1.526 . S
C765 C766 1.396 . S
C765 C770 1.390 . S
C766 C760 1.465 . S
C766 C765 1.396 . S
C766 C767 1.399 . S
C767 H753 0.929 . S
C767 C766 1.399 . S
C767 C768 1.385 . S
C768 H754 0.931 . S
C768 C767 1.385 . S
C768 C769 1.389 . S
C769 C768 1.389 . S
C769 C770 1.387 . S
C770 H755 0.930 . S
C770 C765 1.390 . S
C770 C769 1.387 . S
H771 C783 0.930 . S
H772 C785 0.930 . S
H773 C786 0.930 . S
H774 C790 0.959 . S
H775 C790 0.959 . S
H776 C790 0.961 . S
H777 C791 0.960 . S
H778 C791 0.961 . S
H779 C791 0.959 . S
H780 C794 0.929 . S
H781 C795 0.931 . S
H782 C797 0.930 . S
C783 H771 0.930 . S
C783 C784 1.399 . S
C783 C788 1.399 . S
C784 C783 1.399 . S
C784 C785 1.376 . S
C785 H772 0.930 . S
C785 C784 1.376 . S
C785 C786 1.388 . S
C786 H773 0.930 . S
C786 C785 1.388 . S
C786 C787 1.390 . S
C787 C786 1.390 . S
C787 C788 1.394 . S
C787 C793 1.465 . S
C788 C783 1.399 . S
C788 C787 1.394 . S
C788 C789 1.516 . S
C789 C788 1.516 . S
C789 C790 1.502 . S
C789 C791 1.561 . S
C789 C792 1.526 . S
C790 H774 0.959 . S
C790 H775 0.959 . S
C790 H776 0.961 . S
C790 C789 1.502 . S
C791 H777 0.960 . S
C791 H778 0.961 . S
C791 H779 0.959 . S
C791 C789 1.561 . S
C792 C789 1.526 . S
C792 C793 1.396 . S
C792 C797 1.390 . S
C793 C787 1.465 . S
C793 C792 1.396 . S
C793 C794 1.399 . S
C794 H780 0.929 . S
C794 C793 1.399 . S
C794 C795 1.385 . S
C795 H781 0.931 . S
C795 C794 1.385 . S
C795 C796 1.389 . S
C796 C795 1.389 . S
C796 C797 1.387 . S
C797 H782 0.930 . S
C797 C792 1.390 . S
C797 C796 1.387 . S
H798 C810 0.930 . S
H799 C812 0.930 . S
H800 C813 0.930 . S
H801 C817 0.959 . S
H802 C817 0.959 . S
H803 C817 0.961 . S
H804 C818 0.960 . S
H805 C818 0.961 . S
H806 C818 0.959 . S
H807 C821 0.929 . S
H808 C822 0.931 . S
H809 C824 0.930 . S
C810 H798 0.930 . S
C810 C811 1.399 . S
C810 C815 1.399 . S
C811 C810 1.399 . S
C811 C812 1.376 . S
C812 H799 0.930 . S
C812 C811 1.376 . S
C812 C813 1.388 . S
C813 H800 0.930 . S
C813 C812 1.388 . S
C813 C814 1.390 . S
C814 C813 1.390 . S
C814 C815 1.394 . S
C814 C820 1.465 . S
C815 C810 1.399 . S
C815 C814 1.394 . S
C815 C816 1.516 . S
C816 C815 1.516 . S
C816 C817 1.502 . S
C816 C818 1.561 . S
C816 C819 1.526 . S
C817 H801 0.959 . S
C817 H802 0.959 . S
C817 H803 0.961 . S
C817 C816 1.502 . S
C818 H804 0.960 . S
C818 H805 0.961 . S
C818 H806 0.959 . S
C818 C816 1.561 . S
C819 C816 1.526 . S
C819 C820 1.396 . S
C819 C824 1.390 . S
C820 C814 1.465 . S
C820 C819 1.396 . S
C820 C821 1.399 . S
C821 H807 0.929 . S
C821 C820 1.399 . S
C821 C822 1.385 . S
C822 H808 0.931 . S
C822 C821 1.385 . S
C822 C823 1.389 . S
C823 C822 1.389 . S
C823 C824 1.387 . S
C824 H809 0.930 . S
C824 C819 1.390 . S
C824 C823 1.387 . S
H825 C837 0.930 . S
H826 C839 0.930 . S
H827 C840 0.930 . S
H828 C844 0.959 . S
H829 C844 0.959 . S
H830 C844 0.961 . S
H831 C845 0.960 . S
H832 C845 0.961 . S
H833 C845 0.959 . S
H834 C848 0.929 . S
H835 C849 0.931 . S
H836 C851 0.930 . S
C837 H825 0.930 . S
C837 C838 1.399 . S
C837 C842 1.399 . S
C838 C837 1.399 . S
C838 C839 1.376 . S
C839 H826 0.930 . S
C839 C838 1.376 . S
C839 C840 1.388 . S
C840 H827 0.930 . S
C840 C839 1.388 . S
C840 C841 1.390 . S
C841 C840 1.390 . S
C841 C842 1.394 . S
C841 C847 1.465 . S
C842 C837 1.399 . S
C842 C841 1.394 . S
C842 C843 1.516 . S
C843 C842 1.516 . S
C843 C844 1.502 . S
C843 C845 1.561 . S
C843 C846 1.526 . S
C844 H828 0.959 . S
C844 H829 0.959 . S
C844 H830 0.961 . S
C844 C843 1.502 . S
C845 H831 0.960 . S
C845 H832 0.961 . S
C845 H833 0.959 . S
C845 C843 1.561 . S
C846 C843 1.526 . S
C846 C847 1.396 . S
C846 C851 1.390 . S
C847 C841 1.465 . S
C847 C846 1.396 . S
C847 C848 1.399 . S
C848 H834 0.929 . S
C848 C847 1.399 . S
C848 C849 1.385 . S
C849 H835 0.931 . S
C849 C848 1.385 . S
C849 C850 1.389 . S
C850 C849 1.389 . S
C850 C851 1.387 . S
C851 H836 0.930 . S
C851 C846 1.390 . S
C851 C850 1.387 . S
C217 C12 1.422 . S
C229 C127 1.551 . S
C244 C30 1.451 . S
C256 C140 1.528 . S
C283 C162 1.526 . S
C271 C51 1.515 . S
C310 C175 1.502 . S
C298 C72 1.405 . S
C337 C188 1.515 . S
C325 C96 1.434 . S
C364 C201 1.523 . S
C352 C117 1.484 . S
C379 C38 1.466 . S
C391 C157 1.527 . S
C406 C59 1.404 . S
C418 C170 1.470 . S
C445 C183 1.528 . S
C433 C80 1.492 . S
C472 C196 1.479 . S
C460 C103 1.490 . S
C487 C124 1.467 . S
C499 C129 1.540 . S
C526 C142 1.525 . S
C514 C19 1.426 . S
C553 C168 1.542 . S
C541 C17 1.471 . S
C568 C40 1.440 . S
C580 C181 1.464 . S
C607 C194 1.508 . S
C595 C61 1.475 . S
C622 C82 1.482 . S
C634 C131 1.513 . S
C649 C101 1.459 . S
C661 C144 1.551 . S
C676 C122 1.478 . S
C688 C155 1.498 . S
C703 C33 1.473 . S
C715 C192 1.556 . S
C742 C136 1.536 . S
C730 C54 1.486 . S
C757 C75 1.504 . S
C769 C149 1.556 . S
C784 C93 1.468 . S
C796 C153 1.501 . S
C811 C114 1.464 . S
C823 C166 1.508 . S
C838 C9 1.470 . S
C850 C179 1.504 . S
