# Generated by pormake.
# Topology pth, (4,4)-cn, num edge types: 1
# Building blocks:
#     Node 0, Type 0, BuildingBlock: QUQFOY_clean_sbu_1, # of connection points: 4
#     Node 1, Type 0, BuildingBlock: QUQFOY_clean_sbu_1, # of connection points: 4
#     Node 2, Type 0, BuildingBlock: QUQFOY_clean_sbu_1, # of connection points: 4
#     Node 3, Type 1, BuildingBlock: MIFKUJ_clean_linker_1, # of connection points: 4
#     Node 4, Type 1, BuildingBlock: MIFKUJ_clean_linker_1, # of connection points: 4
#     Node 5, Type 1, BuildingBlock: MIFKUJ_clean_linker_1, # of connection points: 4
#     Edge 6, Type (0, 1), BuildingBlock: FUNLAD_clean_linker_1, # of connection points: 2
#     Edge 7, Type (0, 1), BuildingBlock: FUNLAD_clean_linker_1, # of connection points: 2
#     Edge 8, Type (0, 1), BuildingBlock: FUNLAD_clean_linker_1, # of connection points: 2
#     Edge 9, Type (0, 1), BuildingBlock: FUNLAD_clean_linker_1, # of connection points: 2
#     Edge 10, Type (0, 1), BuildingBlock: FUNLAD_clean_linker_1, # of connection points: 2
#     Edge 11, Type (0, 1), BuildingBlock: FUNLAD_clean_linker_1, # of connection points: 2
#     Edge 12, Type (0, 1), BuildingBlock: FUNLAD_clean_linker_1, # of connection points: 2
#     Edge 13, Type (0, 1), BuildingBlock: FUNLAD_clean_linker_1, # of connection points: 2
#     Edge 14, Type (0, 1), BuildingBlock: FUNLAD_clean_linker_1, # of connection points: 2
#     Edge 15, Type (0, 1), BuildingBlock: FUNLAD_clean_linker_1, # of connection points: 2
#     Edge 16, Type (0, 1), BuildingBlock: FUNLAD_clean_linker_1, # of connection points: 2
#     Edge 17, Type (0, 1), BuildingBlock: FUNLAD_clean_linker_1, # of connection points: 2
# Relax obj value: 0.028
# Max RMSD: 0.131
# Mean RMSD: 0.087
data_MOF--net-pth--node1-QUQFOY_clean_sbu_1--node2-MIFKUJ_clean_linker_1--edge1-FUNLAD_clean_linker_1
_symmetry_space_group_name_H-M    P1
_symmetry_Int_Tables_number       1
_symmetry_cell_setting            triclinic
loop_
_symmetry_equiv_pos_as_xyz
'x, y, z'
_cell_length_a     29.46465
_cell_length_b     31.699266
_cell_length_c     67.214461
_cell_angle_alpha  89.929242
_cell_angle_beta   90.174639
_cell_angle_gamma 120.11581
loop_
_atom_site_label
_atom_site_type_symbol
_atom_site_fract_x
_atom_site_fract_y
_atom_site_fract_z
_atom_type_partial_charge
O0 O 0.03811 0.08799 0.04965 0.0
Cd1 Cd 0.97456 0.04247 0.06709 0.0
Cd2 Cd 0.02393 0.98954 0.06569 0.0
O3 O 0.08445 0.051 0.05255 0.0
O4 O 0.94269 0.08326 0.07369 0.0
O5 O 0.97965 0.05921 0.0963 0.0
C6 C 0.95725 0.08408 0.09182 0.0
C7 C 0.03437 0.95361 0.09422 0.0
C8 C 0.07959 0.08639 0.04624 0.0
C9 C 0.91844 0.94598 0.04622 0.0
O10 O 0.96063 0.94461 0.04802 0.0
O11 O 0.91412 0.98018 0.05413 0.0
O12 O 0.05053 0.94793 0.07713 0.0
O13 O 0.0144 0.9817 0.09527 0.0
O14 O 0.96319 0.04634 0.412 0.0
Cd15 Cd 0.02855 0.07042 0.39421 0.0
Cd16 Cd 0.98894 0.97245 0.39065 0.0
O17 O 0.92349 0.96835 0.40383 0.0
O18 O 0.0525 0.14043 0.38906 0.0
O19 O 0.02221 0.08432 0.36535 0.0
C20 C 0.03984 0.12906 0.37068 0.0
C21 C 0.97999 0.92534 0.36269 0.0
C22 C 0.92362 1.00355 0.4129 0.0
C23 C 0.09196 0.03139 0.41235 0.0
O24 O 0.05301 0.98946 0.40861 0.0
O25 O 0.09253 0.06962 0.40633 0.0
O26 O 0.96847 0.9064 0.38023 0.0
O27 O 0.99512 0.97107 0.36083 0.0
O28 O 0.92324 0.99055 0.71824 0.0
Cd29 Cd 0.96676 0.96621 0.73314 0.0
Cd30 Cd 0.04154 0.0616 0.73235 0.0
O31 O 0.98236 0.06897 0.71908 0.0
O32 O 0.91555 0.90234 0.74522 0.0
O33 O 0.96954 0.96732 0.76303 0.0
C34 C 0.93215 0.9224 0.76241 0.0
C35 C 0.09226 0.11588 0.75741 0.0
C36 C 0.93728 0.03451 0.71405 0.0
C37 C 0.06286 0.99089 0.7099 0.0
O38 O 0.07894 0.03493 0.71479 0.0
O39 O 0.01887 0.95672 0.71598 0.0
O40 O 0.09666 0.12953 0.73913 0.0
O41 O 0.05806 0.07128 0.76171 0.0
H42 H 0.08938 0.48612 0.19418 0.0
H43 H 0.08936 0.41873 0.17634 0.0
H44 H 0.93503 0.31945 0.19959 0.0
H45 H 0.93488 0.38687 0.21683 0.0
H46 H 0.02677 0.5258 0.19175 0.0
H47 H 0.07757 0.4513 0.24161 0.0
H48 H 0.07245 0.38315 0.2603 0.0
H49 H 0.91966 0.34792 0.28226 0.0
H50 H 0.92471 0.41603 0.26306 0.0
H51 H 0.92565 0.55557 0.25722 0.0
H52 H 0.92501 0.62049 0.27673 0.0
H53 H 0.08996 0.7148 0.26468 0.0
H54 H 0.09009 0.64983 0.24484 0.0
H55 H 0.99469 0.51483 0.26452 0.0
H56 H 0.95341 0.6003 0.21469 0.0
H57 H 0.9654 0.66924 0.19467 0.0
H58 H 0.11183 0.68781 0.17248 0.0
H59 H 0.09989 0.61892 0.19286 0.0
C60 C 0.01218 0.44157 0.20685 0.0
C61 C 0.05535 0.4499 0.19521 0.0
C62 C 0.05538 0.41134 0.18513 0.0
C63 C 0.012 0.36384 0.18622 0.0
C64 C 0.96869 0.3556 0.1979 0.0
C65 C 0.96875 0.39414 0.20801 0.0
C66 C 0.01275 0.48218 0.21808 0.0
C67 C 0.02044 0.52375 0.2077 0.0
C68 C 1.00415 0.47927 0.23887 0.0
C69 C 1.00146 0.4387 0.25088 0.0
C70 C 0.04299 0.42896 0.25048 0.0
C71 C 0.04022 0.3902 0.2614 0.0
C72 C 0.99591 0.36056 0.27313 0.0
C73 C 0.95437 0.37032 0.27346 0.0
C74 C 0.95728 0.40929 0.26259 0.0
C75 C 0.0078 0.5981 0.2495 0.0
C76 C 0.96149 0.59043 0.25862 0.0
C77 C 0.9611 0.62771 0.26959 0.0
C78 C 0.00735 0.67306 0.27189 0.0
C79 C 0.05375 0.68037 0.26294 0.0
C80 C 0.05388 0.6434 0.25164 0.0
C81 C 0.00826 0.55828 0.23815 0.0
C82 C 1.00094 0.51689 0.24857 0.0
C83 C 0.01847 0.56202 0.21746 0.0
C84 C 0.0262 0.60483 0.20561 0.0
C85 C 0.98873 0.61988 0.20589 0.0
C86 C 0.99578 0.65959 0.19442 0.0
C87 C 0.04039 0.68491 0.18228 0.0
C88 C 0.0774 0.66935 0.18184 0.0
C89 C 0.07052 0.6299 0.19342 0.0
H90 H 0.59235 0.06004 0.52301 0.0
H91 H 0.66095 0.06157 0.50212 0.0
H92 H 0.65039 0.93973 0.53479 0.0
H93 H 0.57942 0.93607 0.5549 0.0
H94 H 0.49689 1.00024 0.52671 0.0
H95 H 0.63798 0.06371 0.57567 0.0
H96 H 0.70684 0.06677 0.5971 0.0
H97 H 0.5967 0.92424 0.62034 0.0
H98 H 0.52824 0.92132 0.59875 0.0
H99 H 0.39636 0.92007 0.60274 0.0
H100 H 0.33326 0.9192 0.62647 0.0
H101 H 0.33961 0.04279 0.59681 0.0
H102 H 0.40546 0.04583 0.57378 0.0
H103 H 0.49083 0.98402 0.60007 0.0
H104 H 0.34759 0.92473 0.55181 0.0
H105 H 0.27995 0.92556 0.53072 0.0
H106 H 0.39598 0.06513 0.50679 0.0
H107 H 0.46287 0.0639 0.52768 0.0
C108 C 0.58088 0.99834 0.54078 0.0
C109 C 0.60431 0.03329 0.52561 0.0
C110 C 0.64344 0.03411 0.51364 0.0
C111 C 0.66039 1.00037 0.51679 0.0
C112 C 0.63787 0.96609 0.53215 0.0
C113 C 0.59774 0.9644 0.54377 0.0
C114 C 0.53731 0.99615 0.55277 0.0
C115 C 0.49594 0.99735 0.5428 0.0
C116 C 0.53518 0.99137 0.57372 0.0
C117 C 0.57805 0.99233 0.58565 0.0
C118 C 0.62887 0.03307 0.58531 0.0
C119 C 0.668 0.03498 0.59778 0.0
C120 C 0.65673 0.99609 0.6108 0.0
C121 C 0.60627 0.95486 0.61061 0.0
C122 C 0.56718 0.95316 0.59831 0.0
C123 C 0.40567 0.98282 0.5863 0.0
C124 C 0.38403 0.94687 0.60118 0.0
C125 C 0.3479 0.94622 0.61471 0.0
C126 C 0.33134 0.9805 0.61328 0.0
C127 C 0.35107 0.01531 0.59794 0.0
C128 C 0.3885 0.01687 0.58471 0.0
C129 C 0.4498 0.98717 0.57402 0.0
C130 C 0.49156 0.98674 0.58396 0.0
C131 C 0.45235 0.99312 0.55309 0.0
C132 C 0.41032 0.99422 0.54129 0.0
C133 C 0.35826 0.9556 0.5421 0.0
C134 C 0.31975 0.95601 0.52999 0.0
C135 C 0.33272 0.99462 0.51667 0.0
C136 C 0.38469 0.03385 0.51628 0.0
C137 C 0.42304 0.03345 0.52839 0.0
H138 H 0.49963 0.39092 0.87139 0.0
H139 H 0.43154 0.32211 0.85237 0.0
H140 H 0.31372 0.34869 0.87783 0.0
H141 H 0.3818 0.41733 0.8967 0.0
H142 H 0.52822 0.48806 0.86998 0.0
H143 H 0.46824 0.36115 0.91758 0.0
H144 H 0.4074 0.2928 0.93842 0.0
H145 H 0.35906 0.38611 0.9669 0.0
H146 H 0.41863 0.45354 0.94566 0.0
H147 H 0.54574 0.59112 0.94298 0.0
H148 H 0.60914 0.65727 0.96375 0.0
H149 H 0.73437 0.64263 0.93745 0.0
H150 H 0.66989 0.57495 0.91707 0.0
H151 H 0.52247 0.49841 0.94345 0.0
H152 H 0.59186 0.62848 0.89455 0.0
H153 H 0.65693 0.69283 0.87343 0.0
H154 H 0.69622 0.59021 0.84781 0.0
H155 H 0.63104 0.52596 0.86912 0.0
C156 C 0.44577 0.40926 0.88541 0.0
C157 C 0.45913 0.38196 0.8728 0.0
C158 C 0.42026 0.34263 0.86203 0.0
C159 C 0.36755 0.33059 0.86331 0.0
C160 C 0.35413 0.35772 0.87611 0.0
C161 C 0.39294 0.39669 0.88706 0.0
C162 C 0.48707 0.45135 0.89666 0.0
C163 C 0.52743 0.4902 0.88607 0.0
C164 C 0.4856 0.45413 0.91761 0.0
C165 C 0.44731 0.41227 0.9298 0.0
C166 C 0.4437 0.36655 0.92803 0.0
C167 C 0.40919 0.32761 0.94004 0.0
C168 C 0.37749 0.33346 0.95403 0.0
C169 C 0.38148 0.37948 0.9559 0.0
C170 C 0.41607 0.41844 0.94389 0.0
C171 C 0.60304 0.57844 0.92827 0.0
C172 C 0.58693 0.60246 0.94156 0.0
C173 C 0.62359 0.64085 0.95333 0.0
C174 C 0.67739 0.65615 0.95201 0.0
C175 C 0.69334 0.63203 0.93866 0.0
C176 C 0.65659 0.59354 0.92692 0.0
C177 C 0.56333 0.53577 0.91678 0.0
C178 C 0.52323 0.49658 0.92735 0.0
C179 C 0.56577 0.53242 0.89583 0.0
C180 C 0.6069 0.57243 0.88362 0.0
C181 C 0.61521 0.62006 0.88467 0.0
C182 C 0.65279 0.65701 0.87257 0.0
C183 C 0.6827 0.6469 0.85911 0.0
C184 C 0.6741 0.59919 0.85811 0.0
C185 C 0.63675 0.56241 0.87024 0.0
H186 H 0.92755 0.13166 0.10188 0.0
C187 C 0.95145 0.11594 0.10629 0.0
H188 H 1.00424 0.1165 0.12781 0.0
H189 H 0.00764 0.32858 0.13599 0.0
H190 H 0.04833 0.34637 0.1035 0.0
H191 H 0.06142 0.28535 0.08566 0.0
H192 H 0.03247 0.20573 0.10001 0.0
C193 C 0.97981 0.13141 0.12314 0.0
C194 C 0.98017 0.17092 0.13532 0.0
C195 C 1.00045 0.21848 0.12726 0.0
C196 C 0.99607 0.25478 0.13812 0.0
C197 C 0.01253 0.30049 0.12894 0.0
C198 C 0.0356 0.3111 0.11019 0.0
C199 C 0.04273 0.27668 0.10011 0.0
C200 C 0.02547 0.2309 0.10846 0.0
H201 H 0.05214 0.32998 0.17084 0.0
C202 C 0.01384 0.324 0.17522 0.0
H203 H 0.93183 0.27537 0.17308 0.0
H204 H 0.94043 0.0847 0.15551 0.0
H205 H 0.90492 0.06843 0.18899 0.0
H206 H 0.9017 0.13266 0.20856 0.0
H207 H 0.93355 0.21344 0.19476 0.0
C208 C 0.97085 0.2826 0.16931 0.0
C209 C 0.97487 0.24462 0.15763 0.0
C210 C 0.95661 0.19771 0.16599 0.0
C211 C 0.95911 0.16081 0.1548 0.0
C212 C 0.93983 0.11412 0.16342 0.0
C213 C 0.91935 0.1043 0.18261 0.0
C214 C 0.91749 0.14045 0.19363 0.0
C215 C 0.93583 0.18666 0.1855 0.0
H216 H 0.84008 0.96165 0.42157 0.0
C217 C 0.87727 0.99457 0.42455 0.0
H218 H 0.91781 0.05841 0.44181 0.0
H219 H 0.7356 0.09004 0.4688 0.0
H220 H 0.78736 0.16095 0.44824 0.0
H221 H 0.85987 0.16728 0.42778 0.0
H222 H 0.88154 0.10305 0.42803 0.0
C223 C 0.88054 0.02551 0.4389 0.0
C224 C 0.83381 0.01892 0.45011 0.0
C225 C 0.82055 0.0562 0.44932 0.0
C226 C 0.77766 0.05184 0.46062 0.0
C227 C 0.76685 0.09068 0.46017 0.0
C228 C 0.79639 0.13179 0.44846 0.0
C229 C 0.83727 0.13541 0.43698 0.0
C230 C 0.8494 0.09824 0.43734 0.0
H231 H 0.73144 0.99502 0.51173 0.0
C232 C 0.70216 1.001 0.50443 0.0
H233 H 0.67337 0.01123 0.4772 0.0
H234 H 0.85261 0.94373 0.45764 0.0
H235 H 0.79621 0.86955 0.47577 0.0
H236 H 0.7143 0.85666 0.49116 0.0
H237 H 0.68953 0.91879 0.48912 0.0
C238 C 0.70333 1.00636 0.48456 0.0
C239 C 0.74694 0.00949 0.47223 0.0
C240 C 0.75852 0.97105 0.4722 0.0
C241 C 0.80341 0.97675 0.4619 0.0
C242 C 0.81715 0.94006 0.46397 0.0
C243 C 0.78535 0.8974 0.47453 0.0
C244 C 0.73942 0.89027 0.48329 0.0
C245 C 0.72595 0.9265 0.48218 0.0
H246 H 0.92426 0.91296 0.79511 0.0
C247 C 0.908 0.8953 0.78093 0.0
H248 H 0.84741 0.83339 0.76646 0.0
H249 H 0.82689 0.72635 0.85207 0.0
H250 H 0.90961 0.73187 0.84337 0.0
H251 H 0.95979 0.7793 0.81413 0.0
H252 H 0.92791 0.82201 0.79356 0.0
C253 C 0.86524 0.85054 0.78055 0.0
C254 C 0.83742 0.82474 0.79903 0.0
C255 C 0.85631 0.79952 0.81072 0.0
C256 C 0.82659 0.77098 0.82724 0.0
C257 C 0.84705 0.74725 0.839 0.0
C258 C 0.89464 0.75038 0.83424 0.0
C259 C 0.92295 0.77718 0.81781 0.0
C260 C 0.90423 0.80156 0.80613 0.0
H261 H 0.73163 0.67062 0.832 0.0
C262 C 0.72087 0.68395 0.84505 0.0
H263 H 0.73395 0.74772 0.86024 0.0
H264 H 0.79237 0.87175 0.78065 0.0
H265 H 0.71 0.86676 0.78948 0.0
H266 H 0.65754 0.81598 0.81768 0.0
H267 H 0.68712 0.76997 0.83726 0.0
C268 C 0.74299 0.73249 0.84744 0.0
C269 C 0.7774 0.76673 0.8317 0.0
C270 C 0.75972 0.79372 0.82054 0.0
C271 C 0.78972 0.82266 0.80416 0.0
C272 C 0.77089 0.84888 0.79313 0.0
C273 C 0.72374 0.84642 0.79806 0.0
C274 C 0.69423 0.81786 0.81395 0.0
C275 C 0.71172 0.79166 0.82508 0.0
H276 H 0.01894 0.93044 0.12571 0.0
C277 C 0.03493 0.92596 0.11184 0.0
H278 H 0.06657 0.88785 0.09694 0.0
H279 H 0.12538 0.81857 0.17688 0.0
H280 H 0.21049 0.88839 0.16928 0.0
H281 H 0.22027 0.94555 0.14246 0.0
H282 H 0.1448 0.93347 0.12319 0.0
C283 C 0.05015 0.89252 0.11065 0.0
C284 C 0.04362 0.85947 0.12754 0.0
C285 C 0.08813 0.86651 0.13844 0.0
C286 C 0.08264 0.83294 0.15364 0.0
C287 C 0.12753 0.84198 0.16476 0.0
C288 C 0.17658 0.88215 0.16065 0.0
C289 C 0.18208 0.91437 0.14557 0.0
C290 C 0.13848 0.90694 0.13459 0.0
H291 H 0.07311 0.73317 0.15606 0.0
C292 C 0.0482 0.72567 0.16903 0.0
H293 H 1.00243 0.74818 0.18522 0.0
H294 H 0.95013 0.83461 0.10926 0.0
H295 H 0.86506 0.7652 0.11699 0.0
H296 H 0.85547 0.70718 0.14338 0.0
H297 H 0.93099 0.71813 0.16215 0.0
C298 C 0.02693 0.754 0.17232 0.0
C299 C 0.03274 0.79163 0.15757 0.0
C300 C 0.98796 0.78536 0.14704 0.0
C301 C 0.99343 0.8191 0.13193 0.0
C302 C 0.94826 0.81076 0.12114 0.0
C303 C 0.89912 0.77088 0.12536 0.0
C304 C 0.89373 0.7382 0.14021 0.0
C305 C 0.93747 0.74503 0.15091 0.0
H306 H 0.16947 0.0725 0.42699 0.0
C307 C 0.13586 0.03625 0.42469 0.0
H308 H 0.10102 0.96132 0.43168 0.0
H309 H 0.30937 0.96694 0.45806 0.0
H310 H 0.2916 0.92379 0.42666 0.0
H311 H 0.22164 0.91695 0.40431 0.0
H312 H 0.16886 0.95305 0.41326 0.0
C313 C 0.13396 0.99788 0.43405 0.0
C314 C 0.17705 1.00346 0.4474 0.0
C315 C 0.20781 0.98248 0.44187 0.0
C316 C 0.24857 0.98696 0.45464 0.0
C317 C 0.27829 0.96515 0.44883 0.0
C318 C 0.26846 0.94018 0.43086 0.0
C319 C 0.22903 0.93628 0.41829 0.0
C320 C 0.19896 0.95712 0.42364 0.0
H321 H 0.25049 0.96972 0.50789 0.0
C322 C 0.29121 0.99304 0.50353 0.0
H323 H 0.34127 0.03752 0.48046 0.0
H324 H 0.12168 0.04332 0.46369 0.0
H325 H 0.14125 0.08858 0.49456 0.0
H326 H 0.21584 0.10116 0.51557 0.0
H327 H 0.27067 0.06772 0.50597 0.0
C328 C 0.3015 0.01709 0.48611 0.0
C329 C 0.25858 0.01247 0.47291 0.0
C330 C 0.22815 0.03385 0.47839 0.0
C331 C 0.18661 0.02847 0.46582 0.0
C332 C 0.15505 0.04792 0.47221 0.0
C333 C 0.16562 0.07374 0.48999 0.0
C334 C 0.20749 0.08067 0.50185 0.0
C335 C 0.2385 0.06105 0.4962 0.0
H336 H 0.14994 0.18895 0.7682 0.0
C337 C 0.1271 0.15082 0.77253 0.0
H338 H 0.1123 0.0993 0.7952 0.0
H339 H 0.34447 0.30257 0.81265 0.0
H340 H 0.37303 0.28335 0.78199 0.0
H341 H 0.31221 0.21163 0.76203 0.0
H342 H 0.22198 0.15981 0.77232 0.0
C343 C 0.13493 0.13718 0.79056 0.0
C344 C 0.17427 0.17375 0.80463 0.0
C345 C 0.22802 0.20139 0.79921 0.0
C346 C 0.26413 0.24042 0.81152 0.0
C347 C 0.31614 0.27052 0.80463 0.0
C348 C 0.333 0.26021 0.78691 0.0
C349 C 0.2987 0.22002 0.77561 0.0
C350 C 0.24682 0.19084 0.78161 0.0
H351 H 0.33551 0.26069 0.84704 0.0
C352 C 0.3277 0.28964 0.85112 0.0
H353 H 0.27694 0.31804 0.84692 0.0
H354 H 0.07495 0.1262 0.82002 0.0
H355 H 0.04778 0.1413 0.85198 0.0
H356 H 0.11169 0.20503 0.87446 0.0
H357 H 0.20308 0.25445 0.86505 0.0
C358 C 0.28518 0.28911 0.84343 0.0
C359 C 0.24753 0.24903 0.83013 0.0
C360 C 0.19439 0.21979 0.83601 0.0
C361 C 0.15767 0.18238 0.8232 0.0
C362 C 0.10462 0.15467 0.82926 0.0
C363 C 0.08846 0.16297 0.84756 0.0
C364 C 0.12443 0.19889 0.86021 0.0
C365 C 0.17679 0.22707 0.8546 0.0
H366 H 0.91647 0.0835 0.69807 0.0
C367 C 0.90313 0.04561 0.70168 0.0
H368 H 0.84684 0.97202 0.6959 0.0
H369 H 0.71723 0.07712 0.66129 0.0
H370 H 0.71414 0.09998 0.69548 0.0
H371 H 0.76382 0.08633 0.72184 0.0
H372 H 0.81702 0.04988 0.71416 0.0
C373 C 0.85909 0.01008 0.69321 0.0
C374 C 0.83088 0.02079 0.67743 0.0
C375 C 0.80019 0.04235 0.68219 0.0
C376 C 0.77115 0.0498 0.66701 0.0
C377 C 0.74017 0.07074 0.67221 0.0
C378 C 0.73798 0.08397 0.69179 0.0
C379 C 0.76599 0.07632 0.70662 0.0
C380 C 0.7966 0.05557 0.70199 0.0
H381 H 0.68972 0.96188 0.63028 0.0
C382 C 0.69627 0.99676 0.62472 0.0
H383 H 0.74319 0.0734 0.62793 0.0
H384 H 0.88829 0.98117 0.66309 0.0
H385 H 0.89305 0.96022 0.62878 0.0
H386 H 0.84394 0.97456 0.6024 0.0
H387 H 0.78953 0.00968 0.61022 0.0
C388 C 0.73738 0.03782 0.63187 0.0
C389 C 0.77238 0.03508 0.6472 0.0
C390 C 0.80476 0.01536 0.64231 0.0
C391 C 0.83362 1.00776 0.65747 0.0
C392 C 0.86531 0.98757 0.65219 0.0
C393 C 0.86857 0.97553 0.63253 0.0
C394 C 0.84088 0.98355 0.61769 0.0
C395 C 0.80946 1.00339 0.62241 0.0
H396 H 0.83844 0.9101 0.03344 0.0
C397 C 0.87443 0.90856 0.03434 0.0
H398 H 0.91364 0.87141 0.02521 0.0
H399 H 0.70729 0.67385 1.00462 0.0
H400 H 0.73384 0.65166 0.03522 0.0
H401 H 0.80659 0.71388 0.05548 0.0
H402 H 0.85303 0.79873 0.0453 0.0
C403 C 0.87836 0.87409 0.02413 0.0
C404 C 0.83423 0.83701 0.01186 0.0
C405 C 0.80805 0.78745 0.01784 0.0
C406 C 0.76657 0.75148 1.00602 0.0
C407 C 0.73996 0.7025 0.01273 0.0
C408 C 0.75457 0.68929 0.03035 0.0
C409 C 0.79549 0.72432 0.04177 0.0
C410 C 0.82192 0.77289 0.03571 0.0
H411 H 0.75579 0.69769 0.96609 0.0
C412 C 0.71764 0.69514 0.96495 0.0
H413 H 0.67398 0.72871 0.97361 0.0
H414 H 0.87873 0.92828 0.99522 0.0
H415 H 0.85169 0.95042 0.96476 0.0
H416 H 0.77855 0.88823 0.94464 0.0
H417 H 0.73227 0.80338 0.95483 0.0
C418 C 0.70987 0.7274 0.97522 0.0
C419 C 0.75197 0.76505 0.98803 0.0
C420 C 0.77771 0.81467 0.98216 0.0
C421 C 0.81929 0.85066 0.99395 0.0
C422 C 0.84589 0.8996 0.9872 0.0
C423 C 0.831 0.91281 0.96964 0.0
C424 C 0.78988 0.87778 0.9583 0.0
C425 C 0.76356 0.82921 0.96435 0.0
H426 H 0.97612 0.90902 0.33048 0.0
C427 C 0.97713 0.8957 0.34528 0.0
H428 H 0.97906 0.84094 0.36241 0.0
H429 H 0.88624 0.6637 0.30559 0.0
H430 H 0.81948 0.63681 0.33102 0.0
H431 H 0.82139 0.69431 0.35614 0.0
H432 H 0.89057 0.77894 0.35612 0.0
C433 C 0.97807 0.85394 0.34753 0.0
C434 C 0.97399 0.82187 0.33054 0.0
C435 C 0.93218 0.77278 0.33029 0.0
C436 C 0.93022 0.73994 0.31544 0.0
C437 C 0.88922 0.69062 0.31618 0.0
C438 C 0.85058 0.67457 0.33075 0.0
C439 C 0.85172 0.7069 0.34492 0.0
C440 C 0.89187 0.75541 0.34477 0.0
H441 H 0.04455 0.73449 0.29313 0.0
C442 C 0.00895 0.71198 0.28462 0.0
H443 H 0.93345 0.6991 0.27715 0.0
H444 H 0.06325 0.91192 0.32755 0.0
H445 H 0.12559 0.94054 0.30048 0.0
H446 H 0.1152 0.88652 0.27233 0.0
H447 H 0.04325 0.80294 0.2715 0.0
C448 C 0.9688 0.7207 0.28588 0.0
C449 C 0.96929 0.75647 0.30047 0.0
C450 C 0.00922 0.80632 0.29996 0.0
C451 C 0.01288 0.83856 0.31545 0.0
C452 C 0.0564 0.88666 0.31559 0.0
C453 C 0.09289 0.9035 0.3002 0.0
C454 C 0.08722 0.87302 0.28441 0.0
C455 C 0.04599 0.82498 0.28422 0.0
H456 H 0.07268 0.94528 0.68755 0.0
C457 C 0.09312 0.97963 0.69559 0.0
H458 H 0.16376 0.04597 0.69948 0.0
H459 H 0.21301 0.90058 0.64078 0.0
H460 H 0.17902 0.84083 0.66735 0.0
H461 H 0.14549 0.85706 0.69828 0.0
H462 H 0.14365 0.9321 0.7024 0.0
C463 C 0.1437 0.01153 0.69149 0.0
C464 C 0.17157 1.00436 0.67447 0.0
C465 C 0.1764 0.96207 0.6731 0.0
C466 C 0.20023 0.95471 0.65608 0.0
C467 C 0.19901 0.90967 0.65404 0.0
C468 C 0.17907 0.8748 0.66908 0.0
C469 C 0.15989 0.8838 0.68643 0.0
C470 C 0.15853 0.92686 0.68851 0.0
H471 H 0.30527 0.97619 0.64427 0.0
C472 C 0.29718 0.98184 0.629 0.0
H473 H 0.24743 0.9929 0.60985 0.0
H474 H 0.1662 0.08823 0.67153 0.0
H475 H 0.20599 0.15036 0.64617 0.0
H476 H 0.25614 0.14185 0.61872 0.0
H477 H 0.26587 0.07069 0.61626 0.0
C478 C 0.25613 0.98799 0.62512 0.0
C479 C 0.22442 0.99202 0.64152 0.0
C480 C 0.22037 0.03463 0.64305 0.0
C481 C 0.19306 0.04036 0.6593 0.0
C482 C 0.18779 0.08243 0.65992 0.0
C483 C 0.21028 0.11842 0.64538 0.0
C484 C 0.23839 0.11359 0.6299 0.0
C485 C 0.24354 0.07234 0.62867 0.0
H486 H 0.11636 0.1571 0.03084 0.0
C487 C 0.12149 0.12637 0.03464 0.0
H488 H 0.16912 0.09457 0.0308 0.0
H489 H 0.25587 0.21736 0.95026 0.0
H490 H 0.20131 0.13577 0.93719 0.0
H491 H 0.14717 0.06689 0.95957 0.0
H492 H 0.14704 0.07934 0.99518 0.0
C493 C 0.16408 0.12575 0.02802 0.0
C494 C 0.2025 0.16591 0.01506 0.0
C495 C 0.20357 0.15772 0.99439 0.0
C496 C 0.2356 0.19731 0.98153 0.0
C497 C 0.23363 0.18849 0.96081 0.0
C498 C 0.20215 0.14183 0.95307 0.0
C499 C 0.1716 0.10306 0.96566 0.0
C500 C 0.17194 0.11072 0.98608 0.0
H501 H 0.35121 0.26191 0.96835 0.0
C502 C 0.34253 0.29133 0.96688 0.0
H503 H 0.28938 0.31495 0.97501 0.0
H504 H 0.2141 0.19277 0.05424 0.0
H505 H 0.26981 0.27413 0.06752 0.0
H506 H 0.32523 0.3429 0.04528 0.0
H507 H 0.32539 0.33074 1.00966 0.0
C508 C 0.30004 0.28691 0.97622 0.0
C509 C 0.26754 0.24478 0.9895 0.0
C510 C 0.26764 0.25261 1.01027 0.0
C511 C 0.23535 0.21309 0.02308 0.0
C512 C 0.23702 0.22174 0.04381 0.0
C513 C 0.26906 0.26819 0.05163 0.0
C514 C 0.3003 0.3069 0.03912 0.0
C515 C 0.29989 0.29941 0.01868 0.0
H516 H 0.06443 0.20427 0.36179 0.0
C517 C 0.04363 0.1666 0.35673 0.0
H518 H 0.9976 0.1185 0.33377 0.0
H519 H 0.9894 0.32573 0.32403 0.0
H520 H 0.94346 0.30369 0.3555 0.0
H521 H 0.92834 0.22993 0.37352 0.0
H522 H 0.96051 0.17865 0.36042 0.0
C523 C 0.01851 0.15588 0.33913 0.0
C524 C 0.01885 0.19495 0.32657 0.0
C525 C 0.99664 0.22272 0.33379 0.0
C526 C 1.00222 0.26338 0.32273 0.0
C527 C 0.98378 0.29291 0.33119 0.0
C528 C 0.95767 0.28091 0.34936 0.0
C529 C 0.94939 0.23954 0.35955 0.0
C530 C 0.96852 0.21066 0.35194 0.0
H531 H 0.952 0.28942 0.28856 0.0
C532 C 0.9912 0.31868 0.28483 0.0
H533 H 0.07248 0.34545 0.28881 0.0
H534 H 0.06283 0.14755 0.30786 0.0
H535 H 0.10316 0.16592 0.27522 0.0
H536 H 0.10813 0.23329 0.25513 0.0
H537 H 0.07325 0.28302 0.26763 0.0
C538 C 0.0328 0.31655 0.29195 0.0
C539 C 0.02659 0.27408 0.30376 0.0
C540 C 0.04646 0.24483 0.29613 0.0
C541 C 0.04282 0.20542 0.30757 0.0
C542 C 0.06403 0.17756 0.29972 0.0
C543 C 0.08732 0.18772 0.281 0.0
C544 C 0.09018 0.22569 0.26971 0.0
C545 C 0.07008 0.25403 0.27709 0.0
loop_
_geom_bond_atom_site_label_1
_geom_bond_atom_site_label_2
_geom_bond_distance
_geom_bond_site_symmetry_2
_ccdc_geom_bond_type
O0 Cd1 2.223 1_455 S
O0 C8 1.315 . S
Cd1 O0 2.223 1_655 S
Cd1 O4 2.297 . S
Cd1 O5 2.439 . S
Cd1 O11 2.240 1_545 S
Cd2 O3 2.240 1_565 S
Cd2 O10 2.223 1_455 S
Cd2 O12 2.297 . S
Cd2 O13 2.439 . S
O3 Cd2 2.240 1_545 S
O3 C8 1.279 . S
O4 Cd1 2.297 . S
O4 C6 1.247 . S
O5 Cd1 2.439 . S
O5 C6 1.208 . S
C6 O4 1.247 . S
C6 O5 1.208 . S
C7 O12 1.247 . S
C7 O13 1.208 . S
C8 O0 1.315 . S
C8 O3 1.279 . S
C9 O10 1.315 . S
C9 O11 1.279 . S
O10 Cd2 2.223 1_655 S
O10 C9 1.315 . S
O11 Cd1 2.240 1_565 S
O11 C9 1.279 . S
O12 Cd2 2.297 . S
O12 C7 1.247 . S
O13 Cd2 2.439 . S
O13 C7 1.208 . S
O14 Cd15 2.223 1_655 S
O14 C22 1.315 . S
Cd15 O14 2.223 1_455 S
Cd15 O18 2.297 . S
Cd15 O19 2.439 . S
Cd15 O25 2.240 . S
Cd16 O17 2.240 . S
Cd16 O24 2.223 1_655 S
Cd16 O26 2.297 . S
Cd16 O27 2.450 . S
O17 Cd16 2.240 . S
O17 C22 1.279 1_565 S
O18 Cd15 2.297 . S
O18 C20 1.247 . S
O19 Cd15 2.439 . S
O19 C20 1.208 . S
C20 O18 1.247 . S
C20 O19 1.208 . S
C21 O26 1.247 . S
C21 O27 1.196 . S
C22 O14 1.315 . S
C22 O17 1.279 1_545 S
C23 O24 1.315 . S
C23 O25 1.279 1_565 S
O24 Cd16 2.223 1_455 S
O24 C23 1.315 . S
O25 Cd15 2.240 . S
O25 C23 1.279 1_545 S
O26 Cd16 2.297 . S
O26 C21 1.247 . S
O27 Cd16 2.450 . S
O27 C21 1.196 . S
O28 Cd29 2.223 . S
O28 C36 1.315 . S
Cd29 O28 2.223 . S
Cd29 O32 2.297 . S
Cd29 O33 2.439 . S
Cd29 O39 2.240 1_655 S
Cd30 O31 2.240 1_455 S
Cd30 O38 2.223 . S
Cd30 O40 2.297 . S
Cd30 O41 2.439 . S
O31 Cd30 2.240 1_655 S
O31 C36 1.279 1_545 S
O32 Cd29 2.297 . S
O32 C34 1.247 . S
O33 Cd29 2.439 . S
O33 C34 1.208 . S
C34 O32 1.247 . S
C34 O33 1.208 . S
C35 O40 1.247 . S
C35 O41 1.208 . S
C36 O28 1.315 . S
C36 O31 1.279 1_565 S
C37 O38 1.315 . S
C37 O39 1.279 1_545 S
O38 Cd30 2.223 . S
O38 C37 1.315 . S
O39 Cd29 2.240 1_455 S
O39 C37 1.279 1_565 S
O40 Cd30 2.297 . S
O40 C35 1.247 . S
O41 Cd30 2.439 . S
O41 C35 1.208 . S
H42 C61 0.949 . S
H43 C62 0.950 . S
H44 C64 0.950 . S
H45 C65 0.950 . S
H46 C67 0.950 . S
H47 C70 0.950 . S
H48 C71 0.950 . S
H49 C73 0.951 . S
H50 C74 0.949 . S
H51 C76 0.949 . S
H52 C77 0.950 . S
H53 C79 0.950 . S
H54 C80 0.950 . S
H55 C82 0.950 . S
H56 C85 0.950 . S
H57 C86 0.950 . S
H58 C88 0.951 . S
H59 C89 0.949 . S
C60 C61 1.376 . S
C60 C65 1.386 1_455 S
C60 C66 1.483 . S
C61 H42 0.949 . S
C61 C60 1.376 . S
C61 C62 1.397 . S
C62 H43 0.950 . S
C62 C61 1.397 . S
C62 C63 1.391 . S
C63 C62 1.391 . S
C63 C64 1.405 1_455 S
C64 H44 0.950 . S
C64 C63 1.405 1_655 S
C64 C65 1.367 . S
C65 H45 0.950 . S
C65 C60 1.386 1_655 S
C65 C64 1.367 . S
C66 C60 1.483 . S
C66 C67 1.382 . S
C66 C68 1.403 1_455 S
C67 H46 0.950 . S
C67 C66 1.382 . S
C67 C83 1.411 . S
C68 C66 1.403 1_655 S
C68 C69 1.489 . S
C68 C82 1.411 . S
C69 C68 1.489 . S
C69 C70 1.383 1_655 S
C69 C74 1.382 . S
C70 H47 0.950 . S
C70 C69 1.383 1_455 S
C70 C71 1.395 . S
C71 H48 0.950 . S
C71 C70 1.395 . S
C71 C72 1.288 1_455 S
C72 C71 1.288 1_655 S
C72 C73 1.392 . S
C73 H49 0.951 . S
C73 C72 1.392 . S
C73 C74 1.392 . S
C74 H50 0.949 . S
C74 C69 1.382 . S
C74 C73 1.392 . S
C75 C76 1.376 . S
C75 C80 1.386 1_655 S
C75 C81 1.483 . S
C76 H51 0.949 . S
C76 C75 1.376 . S
C76 C77 1.397 . S
C77 H52 0.950 . S
C77 C76 1.397 . S
C77 C78 1.391 . S
C78 C77 1.391 . S
C78 C79 1.405 1_655 S
C79 H53 0.950 . S
C79 C78 1.405 1_455 S
C79 C80 1.367 . S
C80 H54 0.950 . S
C80 C75 1.386 1_455 S
C80 C79 1.367 . S
C81 C75 1.483 . S
C81 C82 1.382 . S
C81 C83 1.403 1_655 S
C82 H55 0.950 . S
C82 C68 1.411 . S
C82 C81 1.382 . S
C83 C67 1.411 . S
C83 C81 1.403 1_455 S
C83 C84 1.489 . S
C84 C83 1.489 . S
C84 C85 1.383 1_455 S
C84 C89 1.382 . S
C85 H56 0.950 . S
C85 C84 1.383 1_655 S
C85 C86 1.395 . S
C86 H57 0.950 . S
C86 C85 1.395 . S
C86 C87 1.288 1_655 S
C87 C86 1.288 1_455 S
C87 C88 1.392 . S
C88 H58 0.951 . S
C88 C87 1.392 . S
C88 C89 1.392 . S
C89 H59 0.949 . S
C89 C84 1.382 . S
C89 C88 1.392 . S
H90 C109 0.949 . S
H91 C110 0.950 . S
H92 C112 0.950 . S
H93 C113 0.950 . S
H94 C115 0.950 . S
H95 C118 0.950 . S
H96 C119 0.950 . S
H97 C121 0.951 . S
H98 C122 0.949 . S
H99 C124 0.949 . S
H100 C125 0.950 . S
H101 C127 0.950 . S
H102 C128 0.950 . S
H103 C130 0.950 . S
H104 C133 0.950 . S
H105 C134 0.950 . S
H106 C136 0.951 . S
H107 C137 0.949 . S
C108 C109 1.376 . S
C108 C113 1.386 1_545 S
C108 C114 1.483 . S
C109 H90 0.949 . S
C109 C108 1.376 . S
C109 C110 1.397 . S
C110 H91 0.950 . S
C110 C109 1.397 . S
C110 C111 1.391 . S
C111 C110 1.391 . S
C111 C112 1.405 1_545 S
C112 H92 0.950 . S
C112 C111 1.405 1_565 S
C112 C113 1.367 . S
C113 H93 0.950 . S
C113 C108 1.386 1_565 S
C113 C112 1.367 . S
C114 C108 1.483 . S
C114 C115 1.382 . S
C114 C116 1.403 1_545 S
C115 H94 0.950 . S
C115 C114 1.382 . S
C115 C131 1.411 . S
C116 C114 1.403 1_565 S
C116 C117 1.489 . S
C116 C130 1.411 . S
C117 C116 1.489 . S
C117 C118 1.383 1_565 S
C117 C122 1.382 . S
C118 H95 0.950 . S
C118 C117 1.383 1_545 S
C118 C119 1.395 . S
C119 H96 0.950 . S
C119 C118 1.395 . S
C119 C120 1.288 1_545 S
C120 C119 1.288 1_565 S
C120 C121 1.392 . S
C121 H97 0.951 . S
C121 C120 1.392 . S
C121 C122 1.392 . S
C122 H98 0.949 . S
C122 C117 1.382 . S
C122 C121 1.392 . S
C123 C124 1.376 . S
C123 C128 1.386 1_565 S
C123 C129 1.483 . S
C124 H99 0.949 . S
C124 C123 1.376 . S
C124 C125 1.397 . S
C125 H100 0.950 . S
C125 C124 1.397 . S
C125 C126 1.391 . S
C126 C125 1.391 . S
C126 C127 1.405 1_565 S
C127 H101 0.950 . S
C127 C126 1.405 1_545 S
C127 C128 1.367 . S
C128 H102 0.950 . S
C128 C123 1.386 1_545 S
C128 C127 1.367 . S
C129 C123 1.483 . S
C129 C130 1.382 . S
C129 C131 1.403 1_565 S
C130 H103 0.950 . S
C130 C116 1.411 . S
C130 C129 1.382 . S
C131 C115 1.411 . S
C131 C129 1.403 1_545 S
C131 C132 1.489 . S
C132 C131 1.489 . S
C132 C133 1.383 1_545 S
C132 C137 1.382 . S
C133 H104 0.950 . S
C133 C132 1.383 1_565 S
C133 C134 1.395 . S
C134 H105 0.950 . S
C134 C133 1.395 . S
C134 C135 1.288 1_565 S
C135 C134 1.288 1_545 S
C135 C136 1.392 . S
C136 H106 0.951 . S
C136 C135 1.392 . S
C136 C137 1.392 . S
C137 H107 0.949 . S
C137 C132 1.382 . S
C137 C136 1.392 . S
H138 C157 0.949 . S
H139 C158 0.950 . S
H140 C160 0.950 . S
H141 C161 0.950 . S
H142 C163 0.950 . S
H143 C166 0.950 . S
H144 C167 0.950 . S
H145 C169 0.951 . S
H146 C170 0.949 . S
H147 C172 0.949 . S
H148 C173 0.950 . S
H149 C175 0.950 . S
H150 C176 0.950 . S
H151 C178 0.950 . S
H152 C181 0.950 . S
H153 C182 0.950 . S
H154 C184 0.951 . S
H155 C185 0.949 . S
C156 C157 1.376 . S
C156 C161 1.386 . S
C156 C162 1.483 . S
C157 H138 0.949 . S
C157 C156 1.376 . S
C157 C158 1.397 . S
C158 H139 0.950 . S
C158 C157 1.397 . S
C158 C159 1.391 . S
C159 C158 1.391 . S
C159 C160 1.405 . S
C160 H140 0.950 . S
C160 C159 1.405 . S
C160 C161 1.367 . S
C161 H141 0.950 . S
C161 C156 1.386 . S
C161 C160 1.367 . S
C162 C156 1.483 . S
C162 C163 1.382 . S
C162 C164 1.403 . S
C163 H142 0.950 . S
C163 C162 1.382 . S
C163 C179 1.411 . S
C164 C162 1.403 . S
C164 C165 1.489 . S
C164 C178 1.411 . S
C165 C164 1.489 . S
C165 C166 1.383 . S
C165 C170 1.382 . S
C166 H143 0.950 . S
C166 C165 1.383 . S
C166 C167 1.395 . S
C167 H144 0.950 . S
C167 C166 1.395 . S
C167 C168 1.288 . S
C168 C167 1.288 . S
C168 C169 1.392 . S
C169 H145 0.951 . S
C169 C168 1.392 . S
C169 C170 1.392 . S
C170 H146 0.949 . S
C170 C165 1.382 . S
C170 C169 1.392 . S
C171 C172 1.376 . S
C171 C176 1.386 . S
C171 C177 1.483 . S
C172 H147 0.949 . S
C172 C171 1.376 . S
C172 C173 1.397 . S
C173 H148 0.950 . S
C173 C172 1.397 . S
C173 C174 1.391 . S
C174 C173 1.391 . S
C174 C175 1.405 . S
C175 H149 0.950 . S
C175 C174 1.405 . S
C175 C176 1.367 . S
C176 H150 0.950 . S
C176 C171 1.386 . S
C176 C175 1.367 . S
C177 C171 1.483 . S
C177 C178 1.382 . S
C177 C179 1.403 . S
C178 H151 0.950 . S
C178 C164 1.411 . S
C178 C177 1.382 . S
C179 C163 1.411 . S
C179 C177 1.403 . S
C179 C180 1.489 . S
C180 C179 1.489 . S
C180 C181 1.383 . S
C180 C185 1.382 . S
C181 H152 0.950 . S
C181 C180 1.383 . S
C181 C182 1.395 . S
C182 H153 0.950 . S
C182 C181 1.395 . S
C182 C183 1.288 . S
C183 C182 1.288 . S
C183 C184 1.392 . S
C184 H154 0.951 . S
C184 C183 1.392 . S
C184 C185 1.392 . S
C185 H155 0.949 . S
C185 C180 1.382 . S
C185 C184 1.392 . S
H186 C187 0.951 . S
C187 H186 0.951 . S
C187 C193 1.265 1_655 S
H188 C193 0.950 . S
H189 C197 0.949 . S
H190 C198 0.950 . S
H191 C199 0.951 . S
H192 C200 0.951 . S
C193 C187 1.265 1_455 S
C193 H188 0.950 . S
C193 C194 1.478 . S
C194 C193 1.478 . S
C194 C195 1.397 . S
C194 C211 1.394 1_455 S
C195 C194 1.397 . S
C195 C196 1.438 . S
C195 C200 1.429 . S
C196 C195 1.438 . S
C196 C197 1.428 . S
C196 C209 1.394 1_455 S
C197 H189 0.949 . S
C197 C196 1.428 . S
C197 C198 1.345 . S
C198 H190 0.950 . S
C198 C197 1.345 . S
C198 C199 1.424 . S
C199 H191 0.951 . S
C199 C198 1.424 . S
C199 C200 1.347 . S
C200 H192 0.951 . S
C200 C195 1.429 . S
C200 C199 1.347 . S
H201 C202 0.951 . S
C202 H201 0.951 . S
C202 C208 1.265 1_455 S
H203 C208 0.950 . S
H204 C212 0.949 . S
H205 C213 0.950 . S
H206 C214 0.951 . S
H207 C215 0.951 . S
C208 C202 1.265 1_655 S
C208 H203 0.950 . S
C208 C209 1.478 . S
C209 C196 1.394 1_655 S
C209 C208 1.478 . S
C209 C210 1.397 . S
C210 C209 1.397 . S
C210 C211 1.438 . S
C210 C215 1.429 . S
C211 C194 1.394 1_655 S
C211 C210 1.438 . S
C211 C212 1.428 . S
C212 H204 0.949 . S
C212 C211 1.428 . S
C212 C213 1.345 . S
C213 H205 0.950 . S
C213 C212 1.345 . S
C213 C214 1.424 . S
C214 H206 0.951 . S
C214 C213 1.424 . S
C214 C215 1.347 . S
C215 H207 0.951 . S
C215 C210 1.429 . S
C215 C214 1.347 . S
H216 C217 0.951 1_565 S
C217 H216 0.951 1_545 S
C217 C223 1.265 . S
H218 C223 0.950 . S
H219 C227 0.949 . S
H220 C228 0.950 . S
H221 C229 0.951 . S
H222 C230 0.951 . S
C223 C217 1.265 . S
C223 H218 0.950 . S
C223 C224 1.478 . S
C224 C223 1.478 . S
C224 C225 1.397 . S
C224 C241 1.394 1_545 S
C225 C224 1.397 . S
C225 C226 1.438 . S
C225 C230 1.429 . S
C226 C225 1.438 . S
C226 C227 1.428 . S
C226 C239 1.394 . S
C227 H219 0.949 . S
C227 C226 1.428 . S
C227 C228 1.345 . S
C228 H220 0.950 . S
C228 C227 1.345 . S
C228 C229 1.424 . S
C229 H221 0.951 . S
C229 C228 1.424 . S
C229 C230 1.347 . S
C230 H222 0.951 . S
C230 C225 1.429 . S
C230 C229 1.347 . S
H231 C232 0.951 . S
C232 H231 0.951 . S
C232 C238 1.265 1_545 S
H233 C238 0.950 . S
H234 C242 0.949 . S
H235 C243 0.950 . S
H236 C244 0.951 . S
H237 C245 0.951 . S
C238 C232 1.265 1_565 S
C238 H233 0.950 . S
C238 C239 1.478 1_565 S
C239 C226 1.394 . S
C239 C238 1.478 1_545 S
C239 C240 1.397 1_545 S
C240 C239 1.397 1_565 S
C240 C241 1.438 . S
C240 C245 1.429 . S
C241 C224 1.394 1_565 S
C241 C240 1.438 . S
C241 C242 1.428 . S
C242 H234 0.949 . S
C242 C241 1.428 . S
C242 C243 1.345 . S
C243 H235 0.950 . S
C243 C242 1.345 . S
C243 C244 1.424 . S
C244 H236 0.951 . S
C244 C243 1.424 . S
C244 C245 1.347 . S
C245 H237 0.951 . S
C245 C240 1.429 . S
C245 C244 1.347 . S
H246 C247 0.951 . S
C247 H246 0.951 . S
C247 C253 1.265 . S
H248 C253 0.950 . S
H249 C257 0.949 . S
H250 C258 0.950 . S
H251 C259 0.951 . S
H252 C260 0.951 . S
C253 C247 1.265 . S
C253 H248 0.950 . S
C253 C254 1.478 . S
C254 C253 1.478 . S
C254 C255 1.397 . S
C254 C271 1.394 . S
C255 C254 1.397 . S
C255 C256 1.438 . S
C255 C260 1.429 . S
C256 C255 1.438 . S
C256 C257 1.428 . S
C256 C269 1.394 . S
C257 H249 0.949 . S
C257 C256 1.428 . S
C257 C258 1.345 . S
C258 H250 0.950 . S
C258 C257 1.345 . S
C258 C259 1.424 . S
C259 H251 0.951 . S
C259 C258 1.424 . S
C259 C260 1.347 . S
C260 H252 0.951 . S
C260 C255 1.429 . S
C260 C259 1.347 . S
H261 C262 0.951 . S
C262 H261 0.951 . S
C262 C268 1.265 . S
H263 C268 0.950 . S
H264 C272 0.949 . S
H265 C273 0.950 . S
H266 C274 0.951 . S
H267 C275 0.951 . S
C268 C262 1.265 . S
C268 H263 0.950 . S
C268 C269 1.478 . S
C269 C256 1.394 . S
C269 C268 1.478 . S
C269 C270 1.397 . S
C270 C269 1.397 . S
C270 C271 1.438 . S
C270 C275 1.429 . S
C271 C254 1.394 . S
C271 C270 1.438 . S
C271 C272 1.428 . S
C272 H264 0.949 . S
C272 C271 1.428 . S
C272 C273 1.345 . S
C273 H265 0.950 . S
C273 C272 1.345 . S
C273 C274 1.424 . S
C274 H266 0.951 . S
C274 C273 1.424 . S
C274 C275 1.347 . S
C275 H267 0.951 . S
C275 C270 1.429 . S
C275 C274 1.347 . S
H276 C277 0.951 . S
C277 H276 0.951 . S
C277 C283 1.265 1_455 S
H278 C283 0.950 . S
H279 C287 0.949 . S
H280 C288 0.950 . S
H281 C289 0.951 . S
H282 C290 0.951 . S
C283 C277 1.265 1_655 S
C283 H278 0.950 . S
C283 C284 1.478 . S
C284 C283 1.478 . S
C284 C285 1.397 1_655 S
C284 C301 1.394 . S
C285 C284 1.397 1_455 S
C285 C286 1.438 . S
C285 C290 1.429 . S
C286 C285 1.438 . S
C286 C287 1.428 . S
C286 C299 1.394 . S
C287 H279 0.949 . S
C287 C286 1.428 . S
C287 C288 1.345 . S
C288 H280 0.950 . S
C288 C287 1.345 . S
C288 C289 1.424 . S
C289 H281 0.951 . S
C289 C288 1.424 . S
C289 C290 1.347 . S
C290 H282 0.951 . S
C290 C285 1.429 . S
C290 C289 1.347 . S
H291 C292 0.951 . S
C292 H291 0.951 . S
C292 C298 1.265 1_655 S
H293 C298 0.950 . S
H294 C302 0.949 . S
H295 C303 0.950 . S
H296 C304 0.951 . S
H297 C305 0.951 . S
C298 C292 1.265 1_455 S
C298 H293 0.950 . S
C298 C299 1.478 . S
C299 C286 1.394 . S
C299 C298 1.478 . S
C299 C300 1.397 1_455 S
C300 C299 1.397 1_655 S
C300 C301 1.438 . S
C300 C305 1.429 . S
C301 C284 1.394 . S
C301 C300 1.438 . S
C301 C302 1.428 . S
C302 H294 0.949 . S
C302 C301 1.428 . S
C302 C303 1.345 . S
C303 H295 0.950 . S
C303 C302 1.345 . S
C303 C304 1.424 . S
C304 H296 0.951 . S
C304 C303 1.424 . S
C304 C305 1.347 . S
C305 H297 0.951 . S
C305 C300 1.429 . S
C305 C304 1.347 . S
H306 C307 0.959 1_545 S
C307 H306 0.959 1_565 S
C307 C313 1.265 . S
H308 C313 0.950 . S
H309 C317 0.949 . S
H310 C318 0.950 . S
H311 C319 0.951 . S
H312 C320 0.951 . S
C313 C307 1.265 . S
C313 H308 0.950 . S
C313 C314 1.478 . S
C314 C313 1.478 . S
C314 C315 1.397 . S
C314 C331 1.394 1_565 S
C315 C314 1.397 . S
C315 C316 1.438 . S
C315 C320 1.429 . S
C316 C315 1.438 . S
C316 C317 1.428 . S
C316 C329 1.388 1_565 S
C317 H309 0.949 . S
C317 C316 1.428 . S
C317 C318 1.345 . S
C318 H310 0.950 . S
C318 C317 1.345 . S
C318 C319 1.424 . S
C319 H311 0.951 . S
C319 C318 1.424 . S
C319 C320 1.347 . S
C320 H312 0.951 . S
C320 C315 1.429 . S
C320 C319 1.347 . S
H321 C322 0.950 . S
C322 H321 0.950 . S
C322 C328 1.265 1_565 S
H323 C328 0.950 . S
H324 C332 0.949 . S
H325 C333 0.950 . S
H326 C334 0.951 . S
H327 C335 0.951 . S
C328 C322 1.265 1_545 S
C328 H323 0.950 . S
C328 C329 1.472 . S
C329 C316 1.388 1_545 S
C329 C328 1.472 . S
C329 C330 1.409 . S
C330 C329 1.409 . S
C330 C331 1.438 . S
C330 C335 1.429 . S
C331 C314 1.394 1_545 S
C331 C330 1.438 . S
C331 C332 1.428 . S
C332 H324 0.949 . S
C332 C331 1.428 . S
C332 C333 1.345 . S
C333 H325 0.950 . S
C333 C332 1.345 . S
C333 C334 1.424 . S
C334 H326 0.951 . S
C334 C333 1.424 . S
C334 C335 1.347 . S
C335 H327 0.951 . S
C335 C330 1.429 . S
C335 C334 1.347 . S
H336 C337 0.951 . S
C337 H336 0.951 . S
C337 C343 1.265 . S
H338 C343 0.950 . S
H339 C347 0.949 . S
H340 C348 0.950 . S
H341 C349 0.951 . S
H342 C350 0.951 . S
C343 C337 1.265 . S
C343 H338 0.950 . S
C343 C344 1.478 . S
C344 C343 1.478 . S
C344 C345 1.397 . S
C344 C361 1.394 . S
C345 C344 1.397 . S
C345 C346 1.438 . S
C345 C350 1.429 . S
C346 C345 1.438 . S
C346 C347 1.428 . S
C346 C359 1.394 . S
C347 H339 0.949 . S
C347 C346 1.428 . S
C347 C348 1.345 . S
C348 H340 0.950 . S
C348 C347 1.345 . S
C348 C349 1.424 . S
C349 H341 0.951 . S
C349 C348 1.424 . S
C349 C350 1.347 . S
C350 H342 0.951 . S
C350 C345 1.429 . S
C350 C349 1.347 . S
H351 C352 0.951 . S
C352 H351 0.951 . S
C352 C358 1.265 . S
H353 C358 0.950 . S
H354 C362 0.949 . S
H355 C363 0.950 . S
H356 C364 0.951 . S
H357 C365 0.951 . S
C358 C352 1.265 . S
C358 H353 0.950 . S
C358 C359 1.478 . S
C359 C346 1.394 . S
C359 C358 1.478 . S
C359 C360 1.397 . S
C360 C359 1.397 . S
C360 C361 1.438 . S
C360 C365 1.429 . S
C361 C344 1.394 . S
C361 C360 1.438 . S
C361 C362 1.428 . S
C362 H354 0.949 . S
C362 C361 1.428 . S
C362 C363 1.345 . S
C363 H355 0.950 . S
C363 C362 1.345 . S
C363 C364 1.424 . S
C364 H356 0.951 . S
C364 C363 1.424 . S
C364 C365 1.347 . S
C365 H357 0.951 . S
C365 C360 1.429 . S
C365 C364 1.347 . S
H366 C367 0.951 . S
C367 H366 0.951 . S
C367 C373 1.265 . S
H368 C373 0.950 . S
H369 C377 0.949 . S
H370 C378 0.950 . S
H371 C379 0.951 . S
H372 C380 0.951 . S
C373 C367 1.265 . S
C373 H368 0.950 . S
C373 C374 1.478 . S
C374 C373 1.478 . S
C374 C375 1.397 1_565 S
C374 C391 1.394 . S
C375 C374 1.397 1_545 S
C375 C376 1.438 . S
C375 C380 1.429 . S
C376 C375 1.438 . S
C376 C377 1.428 . S
C376 C389 1.394 1_545 S
C377 H369 0.949 . S
C377 C376 1.428 . S
C377 C378 1.345 . S
C378 H370 0.950 . S
C378 C377 1.345 . S
C378 C379 1.424 . S
C379 H371 0.951 . S
C379 C378 1.424 . S
C379 C380 1.347 . S
C380 H372 0.951 . S
C380 C375 1.429 . S
C380 C379 1.347 . S
H381 C382 0.951 . S
C382 H381 0.951 . S
C382 C388 1.270 . S
H383 C388 0.950 . S
H384 C392 0.949 . S
H385 C393 0.950 . S
H386 C394 0.951 . S
H387 C395 0.951 . S
C388 C382 1.270 . S
C388 H383 0.950 . S
C388 C389 1.478 . S
C389 C376 1.394 1_565 S
C389 C388 1.478 . S
C389 C390 1.397 . S
C390 C389 1.397 . S
C390 C391 1.438 . S
C390 C395 1.429 . S
C391 C374 1.394 . S
C391 C390 1.438 . S
C391 C392 1.428 . S
C392 H384 0.949 . S
C392 C391 1.428 . S
C392 C393 1.345 . S
C393 H385 0.950 . S
C393 C392 1.345 . S
C393 C394 1.424 . S
C394 H386 0.951 . S
C394 C393 1.424 . S
C394 C395 1.347 . S
C395 H387 0.951 . S
C395 C390 1.429 . S
C395 C394 1.347 . S
H396 C397 0.951 . S
C397 H396 0.951 . S
C397 C403 1.265 . S
H398 C403 0.950 . S
H399 C407 0.949 . S
H400 C408 0.950 . S
H401 C409 0.951 . S
H402 C410 0.951 . S
C403 C397 1.265 . S
C403 H398 0.950 . S
C403 C404 1.478 1_554 S
C404 C403 1.478 1_556 S
C404 C405 1.397 . S
C404 C421 1.394 . S
C405 C404 1.397 . S
C405 C406 1.438 . S
C405 C410 1.429 1_556 S
C406 C405 1.438 . S
C406 C407 1.428 . S
C406 C419 1.394 . S
C407 H399 0.949 . S
C407 C406 1.428 . S
C407 C408 1.345 1_556 S
C408 H400 0.950 . S
C408 C407 1.345 1_554 S
C408 C409 1.424 . S
C409 H401 0.951 . S
C409 C408 1.424 . S
C409 C410 1.347 . S
C410 H402 0.951 . S
C410 C405 1.429 1_554 S
C410 C409 1.347 . S
H411 C412 0.951 . S
C412 H411 0.951 . S
C412 C418 1.265 . S
H413 C418 0.950 . S
H414 C422 0.949 . S
H415 C423 0.950 . S
H416 C424 0.951 . S
H417 C425 0.951 . S
C418 C412 1.265 . S
C418 H413 0.950 . S
C418 C419 1.478 . S
C419 C406 1.394 . S
C419 C418 1.478 . S
C419 C420 1.397 . S
C420 C419 1.397 . S
C420 C421 1.438 . S
C420 C425 1.429 . S
C421 C404 1.394 . S
C421 C420 1.438 . S
C421 C422 1.428 . S
C422 H414 0.949 . S
C422 C421 1.428 . S
C422 C423 1.345 . S
C423 H415 0.950 . S
C423 C422 1.345 . S
C423 C424 1.424 . S
C424 H416 0.951 . S
C424 C423 1.424 . S
C424 C425 1.347 . S
C425 H417 0.951 . S
C425 C420 1.429 . S
C425 C424 1.347 . S
H426 C427 0.951 . S
C427 H426 0.951 . S
C427 C433 1.265 1_655 S
H428 C433 0.950 . S
H429 C437 0.949 . S
H430 C438 0.948 . S
H431 C439 0.951 . S
H432 C440 0.951 . S
C433 C427 1.265 1_455 S
C433 H428 0.950 . S
C433 C434 1.478 . S
C434 C433 1.478 . S
C434 C435 1.397 . S
C434 C451 1.394 . S
C435 C434 1.397 . S
C435 C436 1.438 1_455 S
C435 C440 1.429 . S
C436 C435 1.438 1_655 S
C436 C437 1.428 . S
C436 C449 1.394 . S
C437 H429 0.949 . S
C437 C436 1.428 . S
C437 C438 1.345 . S
C438 H430 0.948 . S
C438 C437 1.345 . S
C438 C439 1.425 1_655 S
C439 H431 0.951 . S
C439 C438 1.425 1_455 S
C439 C440 1.347 . S
C440 H432 0.951 . S
C440 C435 1.429 . S
C440 C439 1.347 . S
H441 C442 0.951 . S
C442 H441 0.951 . S
C442 C448 1.265 1_455 S
H443 C448 0.950 . S
H444 C452 0.949 . S
H445 C453 0.950 . S
H446 C454 0.951 . S
H447 C455 0.951 . S
C448 C442 1.265 1_655 S
C448 H443 0.950 . S
C448 C449 1.478 . S
C449 C436 1.394 . S
C449 C448 1.478 . S
C449 C450 1.397 . S
C450 C449 1.397 . S
C450 C451 1.438 1_655 S
C450 C455 1.429 . S
C451 C434 1.394 . S
C451 C450 1.438 1_455 S
C451 C452 1.428 . S
C452 H444 0.949 . S
C452 C451 1.428 . S
C452 C453 1.345 . S
C453 H445 0.950 . S
C453 C452 1.345 . S
C453 C454 1.424 1_455 S
C454 H446 0.951 . S
C454 C453 1.424 1_655 S
C454 C455 1.347 . S
C455 H447 0.951 . S
C455 C450 1.429 . S
C455 C454 1.347 . S
H456 C457 0.951 . S
C457 H456 0.951 . S
C457 C463 1.265 . S
H458 C463 0.950 . S
H459 C467 0.949 . S
H460 C468 0.950 . S
H461 C469 0.951 . S
H462 C470 0.951 . S
C463 C457 1.265 . S
C463 H458 0.950 . S
C463 C464 1.478 . S
C464 C463 1.478 . S
C464 C465 1.397 1_545 S
C464 C481 1.394 . S
C465 C464 1.397 1_565 S
C465 C466 1.438 . S
C465 C470 1.429 . S
C466 C465 1.438 . S
C466 C467 1.428 . S
C466 C479 1.394 1_565 S
C467 H459 0.949 . S
C467 C466 1.428 . S
C467 C468 1.345 . S
C468 H460 0.950 . S
C468 C467 1.345 . S
C468 C469 1.424 . S
C469 H461 0.951 . S
C469 C468 1.424 . S
C469 C470 1.347 . S
C470 H462 0.951 . S
C470 C465 1.429 . S
C470 C469 1.347 . S
H471 C472 0.957 . S
C472 H471 0.957 . S
C472 C478 1.265 . S
H473 C478 0.950 . S
H474 C482 0.949 . S
H475 C483 0.950 . S
H476 C484 0.951 . S
H477 C485 0.951 . S
C478 C472 1.265 . S
C478 H473 0.950 . S
C478 C479 1.478 . S
C479 C466 1.394 1_545 S
C479 C478 1.478 . S
C479 C480 1.397 . S
C480 C479 1.397 . S
C480 C481 1.438 . S
C480 C485 1.429 . S
C481 C464 1.394 . S
C481 C480 1.438 . S
C481 C482 1.428 . S
C482 H474 0.949 . S
C482 C481 1.428 . S
C482 C483 1.345 . S
C483 H475 0.950 . S
C483 C482 1.345 . S
C483 C484 1.424 . S
C484 H476 0.951 . S
C484 C483 1.424 . S
C484 C485 1.347 . S
C485 H477 0.951 . S
C485 C480 1.429 . S
C485 C484 1.347 . S
H486 C487 0.951 . S
C487 H486 0.951 . S
C487 C493 1.265 . S
H488 C493 0.950 . S
H489 C497 0.949 . S
H490 C498 0.950 . S
H491 C499 0.951 . S
H492 C500 0.951 . S
C493 C487 1.265 . S
C493 H488 0.950 . S
C493 C494 1.478 1_554 S
C494 C493 1.478 1_556 S
C494 C495 1.397 . S
C494 C511 1.396 . S
C495 C494 1.397 . S
C495 C496 1.438 . S
C495 C500 1.429 . S
C496 C495 1.438 . S
C496 C497 1.428 . S
C496 C509 1.394 . S
C497 H489 0.949 . S
C497 C496 1.428 . S
C497 C498 1.345 . S
C498 H490 0.950 . S
C498 C497 1.345 . S
C498 C499 1.424 . S
C499 H491 0.951 . S
C499 C498 1.424 . S
C499 C500 1.347 . S
C500 H492 0.951 . S
C500 C495 1.429 . S
C500 C499 1.347 . S
H501 C502 0.951 . S
C502 H501 0.951 . S
C502 C508 1.265 . S
H503 C508 0.950 . S
H504 C512 0.949 . S
H505 C513 0.950 . S
H506 C514 0.951 . S
H507 C515 0.951 . S
C508 C502 1.265 . S
C508 H503 0.950 . S
C508 C509 1.478 . S
C509 C496 1.394 . S
C509 C508 1.478 . S
C509 C510 1.397 . S
C510 C509 1.397 . S
C510 C511 1.444 . S
C510 C515 1.429 . S
C511 C494 1.396 . S
C511 C510 1.444 . S
C511 C512 1.420 1_556 S
C512 H504 0.949 . S
C512 C511 1.420 1_554 S
C512 C513 1.345 . S
C513 H505 0.950 . S
C513 C512 1.345 . S
C513 C514 1.424 . S
C514 H506 0.951 . S
C514 C513 1.424 . S
C514 C515 1.347 1_554 S
C515 H507 0.951 . S
C515 C510 1.429 . S
C515 C514 1.347 1_556 S
H516 C517 0.951 . S
C517 H516 0.951 . S
C517 C523 1.265 1_455 S
H518 C523 0.950 . S
H519 C527 0.949 1_455 S
H520 C528 0.950 . S
H521 C529 0.951 . S
H522 C530 0.951 . S
C523 C517 1.265 1_655 S
C523 H518 0.950 . S
C523 C524 1.478 . S
C524 C523 1.478 . S
C524 C525 1.397 . S
C524 C541 1.394 . S
C525 C524 1.397 . S
C525 C526 1.438 . S
C525 C530 1.429 . S
C526 C525 1.438 . S
C526 C527 1.428 . S
C526 C539 1.394 1_655 S
C527 H519 0.949 1_655 S
C527 C526 1.428 . S
C527 C528 1.345 . S
C528 H520 0.950 . S
C528 C527 1.345 . S
C528 C529 1.424 . S
C529 H521 0.951 . S
C529 C528 1.424 . S
C529 C530 1.347 . S
C530 H522 0.951 . S
C530 C525 1.429 . S
C530 C529 1.347 . S
H531 C532 0.951 . S
C532 H531 0.951 . S
C532 C538 1.265 1_655 S
H533 C538 0.950 . S
H534 C542 0.946 . S
H535 C543 0.950 . S
H536 C544 0.951 . S
H537 C545 0.951 . S
C538 C532 1.265 1_455 S
C538 H533 0.950 . S
C538 C539 1.478 . S
C539 C526 1.394 1_455 S
C539 C538 1.478 . S
C539 C540 1.397 . S
C540 C539 1.397 . S
C540 C541 1.438 1_455 S
C540 C545 1.429 . S
C541 C524 1.394 . S
C541 C540 1.438 1_655 S
C541 C542 1.435 . S
C542 H534 0.946 . S
C542 C541 1.435 . S
C542 C543 1.340 1_655 S
C543 H535 0.950 . S
C543 C542 1.340 1_455 S
C543 C544 1.424 . S
C544 H536 0.951 . S
C544 C543 1.424 . S
C544 C545 1.347 . S
C545 H537 0.951 . S
C545 C540 1.429 . S
C545 C544 1.347 . S
C202 C63 1.482 . S
C187 C6 1.439 . S
C217 C22 1.583 . S
C232 C111 1.616 . S
C247 C34 1.270 . S
C262 C183 1.252 . S
C277 C7 1.476 . S
C292 C87 1.484 1_655 S
C322 C135 1.620 1_565 S
C307 C23 1.582 . S
C337 C35 1.216 . S
C352 C159 1.258 . S
C382 C120 1.594 . S
C367 C36 1.608 . S
C397 C9 1.831 . S
C412 C174 1.851 . S
C442 C78 1.491 1_455 S
C427 C21 1.447 . S
C472 C126 1.616 1_545 S
C457 C37 1.608 . S
C502 C168 1.851 . S
C487 C8 1.795 . S
C517 C20 1.443 . S
C532 C72 1.462 . S
