# Generated by pormake.
# Topology rtl, (3,6)-cn, num edge types: 1
# Building blocks:
#     Node 0, Type 0, BuildingBlock: BELTOD_clean_linker_0, # of connection points: 3
#     Node 1, Type 0, BuildingBlock: BELTOD_clean_linker_0, # of connection points: 3
#     Node 2, Type 0, BuildingBlock: BELTOD_clean_linker_0, # of connection points: 3
#     Node 3, Type 0, BuildingBlock: BELTOD_clean_linker_0, # of connection points: 3
#     Node 4, Type 1, BuildingBlock: LEVNOQ01_clean_sbu_1, # of connection points: 6
#     Node 5, Type 1, BuildingBlock: LEVNOQ01_clean_sbu_1, # of connection points: 6
#     Edge 6, Type (0, 1), BuildingBlock: AJUNOK_clean_linker_0, # of connection points: 2
#     Edge 7, Type (0, 1), BuildingBlock: AJUNOK_clean_linker_0, # of connection points: 2
#     Edge 8, Type (0, 1), BuildingBlock: AJUNOK_clean_linker_0, # of connection points: 2
#     Edge 9, Type (0, 1), BuildingBlock: AJUNOK_clean_linker_0, # of connection points: 2
#     Edge 10, Type (0, 1), BuildingBlock: AJUNOK_clean_linker_0, # of connection points: 2
#     Edge 11, Type (0, 1), BuildingBlock: AJUNOK_clean_linker_0, # of connection points: 2
#     Edge 12, Type (0, 1), BuildingBlock: AJUNOK_clean_linker_0, # of connection points: 2
#     Edge 13, Type (0, 1), BuildingBlock: AJUNOK_clean_linker_0, # of connection points: 2
#     Edge 14, Type (0, 1), BuildingBlock: AJUNOK_clean_linker_0, # of connection points: 2
#     Edge 15, Type (0, 1), BuildingBlock: AJUNOK_clean_linker_0, # of connection points: 2
#     Edge 16, Type (0, 1), BuildingBlock: AJUNOK_clean_linker_0, # of connection points: 2
#     Edge 17, Type (0, 1), BuildingBlock: AJUNOK_clean_linker_0, # of connection points: 2
# Relax obj value: 0.023
# Max RMSD: 0.060
# Mean RMSD: 0.042
data_MOF--net-rtl--node1-LEVNOQ01_clean_sbu_1--node2-BELTOD_clean_linker_0--edge1-AJUNOK_clean_linker_0
_symmetry_space_group_name_H-M    P1
_symmetry_Int_Tables_number       1
_symmetry_cell_setting            triclinic
loop_
_symmetry_equiv_pos_as_xyz
'x, y, z'
_cell_length_a     26.983056
_cell_length_b     30.05775
_cell_length_c     20.929748
_cell_angle_alpha  89.277646
_cell_angle_beta   98.426969
_cell_angle_gamma 89.561215
loop_
_atom_site_label
_atom_site_type_symbol
_atom_site_fract_x
_atom_site_fract_y
_atom_site_fract_z
_atom_type_partial_charge
P0 P 0.3032 0.94852 0.09543 0.0
H1 H 0.33922 0.94389 0.23339 0.0
H2 H 0.29832 0.95707 0.3289 0.0
H3 H 0.16358 0.99917 0.20501 0.0
H4 H 0.20399 0.98581 0.11024 0.0
H5 H 0.39193 0.90486 0.05986 0.0
H6 H 0.4222 0.82791 0.06879 0.0
H7 H 0.29572 0.79076 0.16197 0.0
H8 H 0.26512 0.86802 0.15203 0.0
H9 H 0.26742 0.02673 0.01879 0.0
H10 H 0.24204 0.88526 0.01058 0.0
O11 O 0.35135 0.98256 0.09216 0.0
H12 H 0.20452 0.03787 0.92285 0.0
H13 H 0.17941 0.89634 0.91408 0.0
C14 C 0.27451 0.96327 0.16472 0.0
C15 C 0.30107 0.95651 0.22692 0.0
C16 C 0.27786 0.96415 0.28132 0.0
C17 C 0.22789 0.9791 0.27409 0.0
C18 C 0.20233 0.9881 0.21182 0.0
C19 C 0.22537 0.98009 0.15752 0.0
C20 C 0.3266 0.89219 0.10579 0.0
C21 C 0.37101 0.88033 0.08292 0.0
C22 C 0.38845 0.83639 0.08851 0.0
C23 C 0.36148 0.80337 0.11649 0.0
C24 C 0.3172 0.81547 0.14012 0.0
C25 C 0.29981 0.85957 0.13459 0.0
C26 C 0.25983 0.9552 0.02153 0.0
C27 C 0.24874 0.99804 0.99594 0.0
C28 C 0.2126 0.0044 0.94148 0.0
C29 C 0.18696 0.96796 0.91147 0.0
C30 C 0.19877 0.92492 0.93633 0.0
C31 C 0.23459 0.91862 0.99142 0.0
P32 P 0.80509 0.59279 0.61174 0.0
H33 H 0.81419 0.56334 0.48157 0.0
H34 H 0.75369 0.55608 0.38296 0.0
H35 H 0.637 0.6086 0.48203 0.0
H36 H 0.69788 0.61655 0.58039 0.0
H37 H 0.90626 0.62128 0.6624 0.0
H38 H 0.94712 0.69379 0.66689 0.0
H39 H 0.80929 0.75457 0.57331 0.0
H40 H 0.76824 0.68245 0.57167 0.0
H41 H 0.7219 0.53759 0.64149 0.0
H42 H 0.82906 0.6274 0.74298 0.0
O43 O 0.84858 0.55315 0.6106 0.0
H44 H 0.67886 0.53268 0.7364 0.0
H45 H 0.78759 0.62103 0.8385 0.0
C46 C 0.76024 0.58914 0.5389 0.0
C47 C 0.77564 0.5734 0.48211 0.0
C48 C 0.74117 0.56965 0.42563 0.0
C49 C 0.69069 0.58179 0.42496 0.0
C50 C 0.67563 0.59875 0.48144 0.0
C51 C 0.71031 0.603 0.53769 0.0
C52 C 0.83472 0.64632 0.61481 0.0
C53 C 0.88482 0.6503 0.64316 0.0
C54 C 0.90797 0.69179 0.64627 0.0
C55 C 0.88141 0.73004 0.62087 0.0
C56 C 0.83056 0.72606 0.59473 0.0
C57 C 0.8073 0.6846 0.59241 0.0
C58 C 0.77696 0.5848 0.68385 0.0
C59 C 0.73626 0.55616 0.68411 0.0
C60 C 0.71215 0.55286 0.73868 0.0
C61 C 0.7292 0.57741 0.79422 0.0
C62 C 0.77272 0.60289 0.79564 0.0
C63 C 0.79637 0.60658 0.74085 0.0
P64 P 0.81752 0.19251 0.97119 0.0
H65 H 0.79159 0.20654 0.83351 0.0
H66 H 0.79199 0.15722 0.74266 0.0
H67 H 0.81135 0.04395 0.8736 0.0
H68 H 0.81428 0.09414 0.9648 0.0
H69 H 0.82592 0.28943 0.96317 0.0
H70 H 0.76586 0.34997 0.96752 0.0
H71 H 0.64887 0.25401 0.97842 0.0
H72 H 0.70853 0.19361 0.96946 0.0
H73 H 0.90185 0.18627 0.07597 0.0
H74 H 0.74973 0.13941 0.03956 0.0
O75 O 0.87243 0.2146 0.9609 0.0
H76 H 0.91472 0.14606 0.17886 0.0
H77 H 0.76187 0.1004 0.14418 0.0
C78 C 0.80231 0.15418 0.90594 0.0
C79 C 0.79424 0.17098 0.84259 0.0
C80 C 0.79394 0.14246 0.7904 0.0
C81 C 0.80099 0.09625 0.80041 0.0
C82 C 0.8058 0.07927 0.86404 0.0
C83 C 0.80706 0.10803 0.91638 0.0
C84 C 0.77191 0.2369 0.96733 0.0
C85 C 0.78723 0.28132 0.9656 0.0
C86 C 0.7529 0.316 0.96863 0.0
C87 C 0.70284 0.30684 0.97501 0.0
C88 C 0.68717 0.26225 0.97364 0.0
C89 C 0.72139 0.2276 0.96941 0.0
C90 C 0.82488 0.16567 0.04966 0.0
C91 C 0.87091 0.16783 0.09034 0.0
C92 C 0.87816 0.14509 0.14958 0.0
C93 C 0.83944 0.11978 0.16945 0.0
C94 C 0.79267 0.11905 0.12971 0.0
C95 C 0.78553 0.1417 0.07015 0.0
P96 P 0.31594 0.32935 0.50159 0.0
H97 H 0.39161 0.32048 0.61698 0.0
H98 H 0.41098 0.36589 0.71324 0.0
H99 H 0.2824 0.44971 0.6471 0.0
H100 H 0.26483 0.40543 0.54908 0.0
H101 H 0.27471 0.26235 0.40997 0.0
H102 H 0.20133 0.21385 0.40464 0.0
H103 H 0.162 0.27529 0.57595 0.0
H104 H 0.23439 0.32334 0.58093 0.0
H105 H 0.3927 0.38612 0.46398 0.0
H106 H 0.2377 0.35865 0.39421 0.0
O107 O 0.36373 0.29414 0.49918 0.0
H108 H 0.39723 0.43323 0.36935 0.0
H109 H 0.24184 0.4064 0.2992 0.0
C110 C 0.32713 0.35998 0.5756 0.0
C111 C 0.36753 0.34858 0.62316 0.0
C112 C 0.37835 0.37436 0.67849 0.0
C113 C 0.3487 0.41181 0.68735 0.0
C114 C 0.30676 0.42179 0.64088 0.0
C115 C 0.29646 0.3964 0.5851 0.0
C116 C 0.25989 0.29666 0.49554 0.0
C117 C 0.24983 0.26565 0.44586 0.0
C118 C 0.2081 0.23799 0.44286 0.0
C119 C 0.17565 0.24133 0.48929 0.0
C120 C 0.18565 0.27279 0.53853 0.0
C121 C 0.22734 0.30023 0.54159 0.0
C122 C 0.31533 0.36814 0.43532 0.0
C123 C 0.35942 0.39075 0.42861 0.0
C124 C 0.36179 0.41803 0.37479 0.0
C125 C 0.31997 0.42324 0.32653 0.0
C126 C 0.27483 0.40246 0.33515 0.0
C127 C 0.2725 0.37511 0.38936 0.0
O128 O 0.8967 0.0704 0.564 0.0
Mg129 Mg 0.97496 0.07188 0.59592 0.0
O130 O 0.92515 0.00516 0.59433 0.0
Mg131 Mg 0.99342 0.00246 0.53345 0.0
O132 O 0.02094 0.07777 0.52839 0.0
O133 O -0.00079 0.13453 0.58784 0.0
O134 O 0.06317 0.9956 0.47769 0.0
O135 O 0.93828 0.02363 0.44013 0.0
Mg136 Mg 0.97945 0.93502 0.43998 0.0
O137 O 0.97163 0.92569 0.5358 0.0
O138 O 0.05188 0.93592 0.41775 0.0
O139 O 0.92281 0.96681 0.37604 0.0
O140 O 0.96162 0.87291 0.45922 0.0
C141 C 0.04226 0.00735 0.68215 0.0
C142 C 0.88985 0.0338 0.59076 0.0
C143 C 0.02358 0.11961 0.54391 0.0
C144 C 0.07895 0.96786 0.4395 0.0
C145 C 0.91542 0.00708 0.38831 0.0
C146 C 0.96165 0.88476 0.51821 0.0
O147 O 0.01127 0.03939 0.68289 0.0
O148 O 0.04645 0.98857 0.6288 0.0
O149 O 0.53165 0.49561 0.20148 0.0
Mg150 Mg 0.50186 0.45939 0.11692 0.0
O151 O 0.54902 0.55298 0.14236 0.0
Mg152 Mg 0.49777 0.53366 0.04824 0.0
O153 O 0.54149 0.46494 0.04204 0.0
O154 O 0.54326 0.40454 0.10721 0.0
O155 O 0.44657 0.50904 0.95458 0.0
O156 O 0.56401 0.55321 0.99152 0.0
Mg157 Mg 0.47668 0.60416 0.96117 0.0
O158 O 0.45846 0.60504 0.05334 0.0
O159 O 0.43467 0.5669 0.88927 0.0
O160 O 0.54955 0.61967 0.94854 0.0
O161 O 0.43881 0.65884 0.97717 0.0
C162 C 0.40667 0.48006 0.11076 0.0
C163 C 0.55296 0.53281 0.19689 0.0
C164 C 0.5574 0.42481 0.05847 0.0
C165 C 0.42792 0.52623 0.9002 0.0
C166 C 0.57857 0.58674 0.96157 0.0
C167 C 0.43864 0.64381 0.03506 0.0
O168 O 0.42551 0.44479 0.09303 0.0
O169 O 0.43171 0.51571 0.10857 0.0
C170 C 0.14125 0.16409 0.48885 0.0
C171 C 0.13316 0.21041 0.48968 0.0
C172 C 0.10398 0.13428 0.50162 0.0
C173 C 0.05771 0.14999 0.51605 0.0
H174 H 0.17759 0.15087 0.48222 0.0
H175 H 0.11271 0.099 0.50446 0.0
S176 S 0.01462 0.26767 0.51083 0.0
N177 N 0.07291 0.27012 0.49573 0.0
N178 N 0.00322 0.21432 0.52077 0.0
C179 C 0.04782 0.196 0.5116 0.0
C180 C 0.08549 0.22618 0.49819 0.0
C181 C 0.4285 0.7444 0.13305 0.0
C182 C 0.3777 0.75609 0.11461 0.0
C183 C 0.44751 0.70345 0.11546 0.0
C184 C 0.41632 0.67303 0.07892 0.0
H185 H 0.45442 0.76842 0.15687 0.0
H186 H 0.48764 0.69766 0.12461 0.0
S187 S 0.27979 0.68481 0.02607 0.0
N188 N 0.29571 0.73154 0.0641 0.0
N189 N 0.33178 0.65481 0.0311 0.0
C190 C 0.3648 0.68237 0.06591 0.0
C191 C 0.34533 0.72391 0.08381 0.0
C192 C 0.95279 0.76994 0.58428 0.0
C193 C 0.90842 0.77207 0.61199 0.0
C194 C 0.97315 0.80817 0.56039 0.0
C195 C 0.95023 0.85001 0.56368 0.0
H196 H 0.96972 0.73814 0.57593 0.0
H197 H 0.00493 0.80445 0.53458 0.0
S198 S 0.83943 0.87511 0.6427 0.0
N199 N 0.84657 0.82052 0.65029 0.0
N200 N 0.88511 0.89266 0.60434 0.0
C201 C 0.90899 0.85352 0.59701 0.0
C202 C 0.88789 0.81438 0.62124 0.0
C203 C 0.61764 0.34336 0.9578 0.0
C204 C 0.66787 0.34301 0.98824 0.0
C205 C 0.58216 0.37281 0.97705 0.0
C206 C 0.59594 0.40317 0.02673 0.0
H207 H 0.60525 0.3195 0.92061 0.0
H208 H 0.5433 0.37026 0.95535 0.0
S209 S 0.72198 0.41747 0.12037 0.0
N210 N 0.72922 0.377 0.06981 0.0
N211 N 0.66254 0.4328 0.10428 0.0
C212 C 0.64615 0.40489 0.05522 0.0
C213 C 0.68221 0.37478 0.03626 0.0
C214 C 0.17113 0.01727 0.34123 0.0
C215 C 0.19974 0.97962 0.32966 0.0
C216 C 0.13525 0.01483 0.38343 0.0
C217 C 0.12638 0.9744 0.41403 0.0
H218 H 0.17451 0.048 0.31466 0.0
H219 H 0.11148 0.04355 0.38765 0.0
S220 S 0.19497 0.8679 0.40549 0.0
N221 N 0.2201 0.90216 0.3572 0.0
N222 N 0.15215 0.89745 0.4354 0.0
C223 C 0.15729 0.93762 0.40662 0.0
C224 C 0.19417 0.94025 0.36463 0.0
C225 C 0.67907 0.54101 0.8719 0.0
C226 C 0.69852 0.57991 0.84734 0.0
C227 C 0.64315 0.5433 0.91394 0.0
C228 C 0.62502 0.58462 0.93199 0.0
H229 H 0.69019 0.50863 0.85643 0.0
H230 H 0.62714 0.51257 0.92876 0.0
S231 S 0.66813 0.69608 0.88693 0.0
N232 N 0.70007 0.66082 0.84851 0.0
N233 N 0.63316 0.66508 0.9279 0.0
C234 C 0.64684 0.62361 0.91146 0.0
C235 C 0.68342 0.62129 0.86896 0.0
C236 C 0.87597 0.10982 0.28611 0.0
C237 C 0.84983 0.0919 0.22921 0.0
C238 C 0.89384 0.08255 0.33955 0.0
C239 C 0.88666 0.0362 0.33789 0.0
H240 H 0.88437 0.145 0.28843 0.0
H241 H 0.91593 0.09768 0.3809 0.0
S242 S 0.81542 0.97353 0.20311 0.0
N243 N 0.81403 0.02549 0.17643 0.0
N244 N 0.84681 0.97434 0.27695 0.0
C245 C 0.8575 0.01835 0.28295 0.0
C246 C 0.83929 0.04615 0.2286 0.0
C247 C 0.379 0.42439 0.80519 0.0
C248 C 0.36381 0.44189 0.74258 0.0
C249 C 0.39783 0.45201 0.85659 0.0
C250 C 0.40229 0.49822 0.84736 0.0
H251 H 0.37706 0.38895 0.81432 0.0
H252 H 0.41017 0.43677 0.90347 0.0
S253 S 0.36672 0.56061 0.69246 0.0
N254 N 0.35422 0.50827 0.67427 0.0
N255 N 0.38805 0.56031 0.77045 0.0
C256 C 0.38565 0.51625 0.78521 0.0
C257 C 0.36682 0.48809 0.733 0.0
C258 C 0.61129 0.54762 0.37172 0.0
C259 C 0.65335 0.57402 0.36669 0.0
C260 C 0.57813 0.53578 0.31669 0.0
C261 C 0.58527 0.55041 0.2545 0.0
H262 H 0.60499 0.5346 0.41833 0.0
H263 H 0.54715 0.51421 0.32291 0.0
S264 S 0.68771 0.62332 0.2161 0.0
N265 N 0.69902 0.61657 0.29537 0.0
N266 N 0.63642 0.59486 0.19182 0.0
C267 C 0.62604 0.57851 0.24917 0.0
C268 C 0.6602 0.59006 0.30524 0.0
C269 C 0.85433 0.03898 0.75625 0.0
C270 C 0.81233 0.0678 0.74628 0.0
C271 C 0.8755 0.0222 0.70409 0.0
C272 C 0.85597 0.03427 0.64015 0.0
H273 H 0.87406 0.03271 0.80444 0.0
H274 H 0.91061 0.00394 0.7144 0.0
S275 S 0.73875 0.09795 0.5875 0.0
N276 N 0.74536 0.09869 0.66721 0.0
N277 N 0.78703 0.06915 0.56926 0.0
C278 C 0.81062 0.05825 0.62935 0.0
C279 C 0.78839 0.0746 0.68241 0.0
C280 C 0.35293 0.48603 0.26558 0.0
C281 C 0.32654 0.44573 0.26471 0.0
C282 C 0.37347 0.50085 0.21136 0.0
C283 C 0.36871 0.47553 0.15474 0.0
H284 H 0.36119 0.50434 0.31008 0.0
H285 H 0.39753 0.52967 0.21639 0.0
S286 S 0.29414 0.37299 0.12309 0.0
N287 N 0.28992 0.38482 0.19894 0.0
N288 N 0.32819 0.41289 0.09707 0.0
C289 C 0.33714 0.43835 0.15068 0.0
C290 C 0.31616 0.42331 0.20576 0.0
C291 C 0.15062 0.95436 0.79599 0.0
C292 C 0.14744 0.97528 0.85497 0.0
C293 C 0.1156 0.96381 0.74078 0.0
C294 C 0.07585 0.99431 0.74265 0.0
H295 H 0.18133 0.93161 0.79199 0.0
H296 H 0.12058 0.94793 0.69598 0.0
S297 S 0.04784 0.05349 0.88845 0.0
N298 N 0.09945 0.02469 0.91383 0.0
N299 N 0.03336 0.04231 0.81098 0.0
C300 C 0.07112 0.01377 0.80251 0.0
C301 C 0.10696 0.00434 0.85837 0.0
loop_
_geom_bond_atom_site_label_1
_geom_bond_atom_site_label_2
_geom_bond_distance
_geom_bond_site_symmetry_2
_ccdc_geom_bond_type
P0 O11 1.490 . S
P0 C14 1.812 . S
P0 C20 1.803 . S
P0 C26 1.819 . S
H1 C15 0.941 . S
H2 C16 0.939 . S
H3 C18 0.940 . S
H4 C19 0.940 . S
H5 C21 0.939 . S
H6 C22 0.942 . S
H7 C24 0.940 . S
H8 C25 0.939 . S
H9 C27 0.950 . S
H10 C31 0.939 . S
O11 P0 1.490 . S
H12 C28 0.939 1_545 S
H13 C30 0.940 . S
C14 P0 1.812 . S
C14 C15 1.389 . S
C14 C19 1.391 . S
C15 H1 0.941 . S
C15 C14 1.389 . S
C15 C16 1.397 . S
C16 H2 0.939 . S
C16 C15 1.397 . S
C16 C17 1.378 . S
C17 C16 1.378 . S
C17 C18 1.378 . S
C18 H3 0.940 . S
C18 C17 1.378 . S
C18 C19 1.396 . S
C19 H4 0.940 . S
C19 C14 1.391 . S
C19 C18 1.396 . S
C20 P0 1.803 . S
C20 C21 1.378 . S
C20 C25 1.400 . S
C21 H5 0.939 . S
C21 C20 1.378 . S
C21 C22 1.361 . S
C22 H6 0.942 . S
C22 C21 1.361 . S
C22 C23 1.369 . S
C23 C22 1.369 . S
C23 C24 1.404 . S
C24 H7 0.940 . S
C24 C23 1.404 . S
C24 C25 1.389 . S
C25 H8 0.939 . S
C25 C20 1.400 . S
C25 C24 1.389 . S
C26 P0 1.819 . S
C26 C27 1.391 . S
C26 C31 1.391 1_554 S
C27 H9 0.950 . S
C27 C26 1.391 . S
C27 C28 1.396 1_554 S
C28 H12 0.939 1_565 S
C28 C27 1.396 1_556 S
C28 C29 1.397 . S
C29 C28 1.397 . S
C29 C30 1.385 . S
C30 H13 0.940 . S
C30 C29 1.385 . S
C30 C31 1.388 . S
C31 H10 0.939 . S
C31 C26 1.391 1_556 S
C31 C30 1.388 . S
P32 O43 1.490 . S
P32 C46 1.812 . S
P32 C52 1.803 . S
P32 C58 1.819 . S
H33 C47 0.941 . S
H34 C48 0.939 . S
H35 C50 0.940 . S
H36 C51 0.940 . S
H37 C53 0.939 . S
H38 C54 0.942 . S
H39 C56 0.940 . S
H40 C57 0.939 . S
H41 C59 0.941 . S
H42 C63 0.939 . S
O43 P32 1.490 . S
H44 C60 0.939 . S
H45 C62 0.940 . S
C46 P32 1.812 . S
C46 C47 1.389 . S
C46 C51 1.391 . S
C47 H33 0.941 . S
C47 C46 1.389 . S
C47 C48 1.397 . S
C48 H34 0.939 . S
C48 C47 1.397 . S
C48 C49 1.378 . S
C49 C48 1.378 . S
C49 C50 1.378 . S
C50 H35 0.940 . S
C50 C49 1.378 . S
C50 C51 1.396 . S
C51 H36 0.940 . S
C51 C46 1.391 . S
C51 C50 1.396 . S
C52 P32 1.803 . S
C52 C53 1.378 . S
C52 C57 1.400 . S
C53 H37 0.939 . S
C53 C52 1.378 . S
C53 C54 1.361 . S
C54 H38 0.942 . S
C54 C53 1.361 . S
C54 C55 1.369 . S
C55 C54 1.369 . S
C55 C56 1.404 . S
C56 H39 0.940 . S
C56 C55 1.404 . S
C56 C57 1.389 . S
C57 H40 0.939 . S
C57 C52 1.400 . S
C57 C56 1.389 . S
C58 P32 1.819 . S
C58 C59 1.391 . S
C58 C63 1.391 . S
C59 H41 0.941 . S
C59 C58 1.391 . S
C59 C60 1.396 . S
C60 H44 0.939 . S
C60 C59 1.396 . S
C60 C61 1.397 . S
C61 C60 1.397 . S
C61 C62 1.385 . S
C62 H45 0.940 . S
C62 C61 1.385 . S
C62 C63 1.388 . S
C63 H42 0.939 . S
C63 C58 1.391 . S
C63 C62 1.388 . S
P64 O75 1.490 . S
P64 C78 1.812 1_554 S
P64 C84 1.803 1_554 S
P64 C90 1.819 . S
H65 C79 0.941 . S
H66 C80 0.939 . S
H67 C82 0.940 . S
H68 C83 0.940 . S
H69 C85 0.939 . S
H70 C86 0.942 . S
H71 C88 0.940 . S
H72 C89 0.939 . S
H73 C91 0.941 . S
H74 C95 0.939 . S
O75 P64 1.490 . S
H76 C92 0.939 . S
H77 C94 0.940 . S
C78 P64 1.812 1_556 S
C78 C79 1.389 . S
C78 C83 1.391 . S
C79 H65 0.941 . S
C79 C78 1.389 . S
C79 C80 1.397 . S
C80 H66 0.939 . S
C80 C79 1.397 . S
C80 C81 1.378 . S
C81 C80 1.378 . S
C81 C82 1.378 . S
C82 H67 0.940 . S
C82 C81 1.378 . S
C82 C83 1.396 . S
C83 H68 0.940 . S
C83 C78 1.391 . S
C83 C82 1.396 . S
C84 P64 1.803 1_556 S
C84 C85 1.378 1_556 S
C84 C89 1.400 . S
C85 H69 0.939 . S
C85 C84 1.378 1_554 S
C85 C86 1.361 . S
C86 H70 0.942 . S
C86 C85 1.361 . S
C86 C87 1.369 1_554 S
C87 C86 1.369 1_556 S
C87 C88 1.404 . S
C88 H71 0.940 . S
C88 C87 1.404 . S
C88 C89 1.389 . S
C89 H72 0.939 . S
C89 C84 1.400 . S
C89 C88 1.389 . S
C90 P64 1.819 . S
C90 C91 1.391 . S
C90 C95 1.391 . S
C91 H73 0.941 . S
C91 C90 1.391 . S
C91 C92 1.396 . S
C92 H76 0.939 . S
C92 C91 1.396 . S
C92 C93 1.397 . S
C93 C92 1.397 . S
C93 C94 1.385 . S
C94 H77 0.940 . S
C94 C93 1.385 . S
C94 C95 1.388 . S
C95 H74 0.939 . S
C95 C90 1.391 . S
C95 C94 1.388 . S
P96 O107 1.490 . S
P96 C110 1.812 . S
P96 C116 1.803 . S
P96 C122 1.819 . S
H97 C111 0.941 . S
H98 C112 0.939 . S
H99 C114 0.940 . S
H100 C115 0.940 . S
H101 C117 0.939 . S
H102 C118 0.942 . S
H103 C120 0.940 . S
H104 C121 0.939 . S
H105 C123 0.941 . S
H106 C127 0.939 . S
O107 P96 1.490 . S
H108 C124 0.939 . S
H109 C126 0.940 . S
C110 P96 1.812 . S
C110 C111 1.389 . S
C110 C115 1.391 . S
C111 H97 0.941 . S
C111 C110 1.389 . S
C111 C112 1.397 . S
C112 H98 0.939 . S
C112 C111 1.397 . S
C112 C113 1.378 . S
C113 C112 1.378 . S
C113 C114 1.378 . S
C114 H99 0.940 . S
C114 C113 1.378 . S
C114 C115 1.396 . S
C115 H100 0.940 . S
C115 C110 1.391 . S
C115 C114 1.396 . S
C116 P96 1.803 . S
C116 C117 1.378 . S
C116 C121 1.400 . S
C117 H101 0.939 . S
C117 C116 1.378 . S
C117 C118 1.361 . S
C118 H102 0.942 . S
C118 C117 1.361 . S
C118 C119 1.369 . S
C119 C118 1.369 . S
C119 C120 1.404 . S
C120 H103 0.940 . S
C120 C119 1.404 . S
C120 C121 1.389 . S
C121 H104 0.939 . S
C121 C116 1.400 . S
C121 C120 1.389 . S
C122 P96 1.819 . S
C122 C123 1.391 . S
C122 C127 1.391 . S
C123 H105 0.941 . S
C123 C122 1.391 . S
C123 C124 1.396 . S
C124 H108 0.939 . S
C124 C123 1.396 . S
C124 C125 1.397 . S
C125 C124 1.397 . S
C125 C126 1.385 . S
C126 H109 0.940 . S
C126 C125 1.385 . S
C126 C127 1.388 . S
C127 H106 0.939 . S
C127 C122 1.391 . S
C127 C126 1.388 . S
O128 Mg129 1.990 1_655 S
O128 C142 1.253 . S
Mg129 O128 1.990 1_455 S
Mg129 O132 2.180 . S
Mg129 O133 2.117 . S
Mg129 O147 2.030 . S
O130 Mg131 2.072 1_655 S
O130 C142 1.260 . S
Mg131 O130 2.072 1_455 S
Mg131 O132 2.099 . S
Mg131 O134 2.079 1_545 S
Mg131 O135 2.072 1_455 S
Mg131 O137 2.099 1_445 S
Mg131 O148 2.079 1_545 S
O132 Mg129 2.180 . S
O132 Mg131 2.099 . S
O132 C143 1.279 . S
O133 Mg129 2.117 . S
O133 C143 1.250 . S
O134 Mg131 2.079 1_565 S
O134 C144 1.264 . S
O135 Mg131 2.072 1_655 S
O135 C145 1.260 . S
Mg136 O137 2.180 . S
Mg136 O138 2.030 1_655 S
Mg136 O139 1.970 1_565 S
Mg136 O140 2.117 . S
O137 Mg131 2.099 1_665 S
O137 Mg136 2.180 . S
O137 C146 1.279 . S
O138 Mg136 2.030 1_455 S
O138 C144 1.248 . S
O139 Mg136 1.970 1_545 S
O139 C145 1.273 . S
O140 Mg136 2.117 . S
O140 C146 1.250 . S
C141 O147 1.248 1_565 S
C141 O148 1.264 . S
C142 O128 1.253 . S
C142 O130 1.260 . S
C143 O132 1.279 . S
C143 O133 1.250 . S
C144 O134 1.264 . S
C144 O138 1.248 . S
C145 O135 1.260 . S
C145 O139 1.273 . S
C146 O137 1.279 . S
C146 O140 1.250 . S
O147 Mg129 2.030 . S
O147 C141 1.248 1_545 S
O148 Mg131 2.079 1_565 S
O148 C141 1.264 . S
O149 Mg150 1.990 . S
O149 C163 1.253 . S
Mg150 O149 1.990 . S
Mg150 O153 2.180 . S
Mg150 O154 2.117 . S
Mg150 O168 2.030 . S
O151 Mg152 2.072 . S
O151 C163 1.260 . S
Mg152 O151 2.072 . S
Mg152 O153 2.099 . S
Mg152 O155 2.079 1_554 S
Mg152 O156 2.072 1_554 S
Mg152 O158 2.099 . S
Mg152 O169 2.079 . S
O153 Mg150 2.180 . S
O153 Mg152 2.099 . S
O153 C164 1.279 . S
O154 Mg150 2.117 . S
O154 C164 1.250 . S
O155 Mg152 2.079 1_556 S
O155 C165 1.264 . S
O156 Mg152 2.072 1_556 S
O156 C166 1.260 . S
Mg157 O158 2.180 1_556 S
Mg157 O159 2.030 . S
Mg157 O160 1.990 . S
Mg157 O161 2.117 . S
O158 Mg152 2.099 . S
O158 Mg157 2.180 1_554 S
O158 C167 1.279 . S
O159 Mg157 2.030 . S
O159 C165 1.248 . S
O160 Mg157 1.990 . S
O160 C166 1.253 . S
O161 Mg157 2.117 . S
O161 C167 1.250 1_556 S
C162 O168 1.248 . S
C162 O169 1.264 . S
C163 O149 1.253 . S
C163 O151 1.260 . S
C164 O153 1.279 . S
C164 O154 1.250 . S
C165 O155 1.264 . S
C165 O159 1.248 . S
C166 O156 1.260 . S
C166 O160 1.253 . S
C167 O158 1.279 . S
C167 O161 1.250 1_554 S
O168 Mg150 2.030 . S
O168 C162 1.248 . S
O169 Mg152 2.079 . S
O169 C162 1.264 . S
C170 C171 1.369 . S
C170 C172 1.419 . S
C170 H174 0.930 . S
C171 C170 1.369 . S
C171 C180 1.429 . S
C172 C170 1.419 . S
C172 C173 1.363 . S
C172 H175 0.929 . S
C173 C172 1.363 . S
C173 C179 1.428 . S
H174 C170 0.930 . S
H175 C172 0.929 . S
S176 N177 1.613 1_655 S
S176 N178 1.610 . S
N177 S176 1.613 1_455 S
N177 C180 1.350 . S
N178 S176 1.610 . S
N178 C179 1.351 1_655 S
C179 C173 1.428 . S
C179 N178 1.351 1_455 S
C179 C180 1.434 . S
C180 C171 1.429 . S
C180 N177 1.350 . S
C180 C179 1.434 . S
C181 C182 1.369 . S
C181 C183 1.419 . S
C181 H185 0.930 . S
C182 C181 1.369 . S
C182 C191 1.429 . S
C183 C181 1.419 . S
C183 C184 1.363 . S
C183 H186 0.929 . S
C184 C183 1.363 . S
C184 C190 1.428 . S
H185 C181 0.930 . S
H186 C183 0.929 . S
S187 N188 1.613 . S
S187 N189 1.610 . S
N188 S187 1.613 . S
N188 C191 1.350 . S
N189 S187 1.610 . S
N189 C190 1.351 . S
C190 C184 1.428 . S
C190 N189 1.351 . S
C190 C191 1.434 . S
C191 C182 1.429 . S
C191 N188 1.350 . S
C191 C190 1.434 . S
C192 C193 1.369 . S
C192 C194 1.419 . S
C192 H196 0.930 . S
C193 C192 1.369 . S
C193 C202 1.429 . S
C194 C192 1.419 . S
C194 C195 1.363 . S
C194 H197 0.929 . S
C195 C194 1.363 . S
C195 C201 1.428 . S
H196 C192 0.930 . S
H197 C194 0.929 . S
S198 N199 1.613 . S
S198 N200 1.610 . S
N199 S198 1.613 . S
N199 C202 1.350 . S
N200 S198 1.610 . S
N200 C201 1.351 . S
C201 C195 1.428 . S
C201 N200 1.351 . S
C201 C202 1.434 . S
C202 C193 1.429 . S
C202 N199 1.350 . S
C202 C201 1.434 . S
C203 C204 1.370 . S
C203 C205 1.419 . S
C203 H207 0.930 . S
C204 C203 1.370 . S
C204 C213 1.427 1_556 S
C205 C203 1.419 . S
C205 C206 1.363 1_556 S
C205 H208 0.929 . S
C206 C205 1.363 1_554 S
C206 C212 1.428 . S
H207 C203 0.930 . S
H208 C205 0.929 . S
S209 N210 1.613 . S
S209 N211 1.610 . S
N210 S209 1.613 . S
N210 C213 1.350 . S
N211 S209 1.610 . S
N211 C212 1.351 . S
C212 C206 1.428 . S
C212 N211 1.351 . S
C212 C213 1.434 . S
C213 C204 1.427 1_554 S
C213 N210 1.350 . S
C213 C212 1.434 . S
C214 C215 1.369 . S
C214 C216 1.419 1_565 S
C214 H218 0.930 1_565 S
C215 C214 1.369 . S
C215 C224 1.429 . S
C216 C214 1.419 1_545 S
C216 C217 1.363 1_545 S
C216 H219 0.929 . S
C217 C216 1.363 1_565 S
C217 C223 1.428 . S
H218 C214 0.930 1_545 S
H219 C216 0.929 . S
S220 N221 1.613 . S
S220 N222 1.610 . S
N221 S220 1.613 . S
N221 C224 1.350 . S
N222 S220 1.610 . S
N222 C223 1.351 . S
C223 C217 1.428 . S
C223 N222 1.351 . S
C223 C224 1.434 . S
C224 C215 1.429 . S
C224 N221 1.350 . S
C224 C223 1.434 . S
C225 C226 1.369 . S
C225 C227 1.419 . S
C225 H229 0.930 . S
C226 C225 1.369 . S
C226 C235 1.429 . S
C227 C225 1.419 . S
C227 C228 1.363 . S
C227 H230 0.929 . S
C228 C227 1.363 . S
C228 C234 1.428 . S
H229 C225 0.930 . S
H230 C227 0.929 . S
S231 N232 1.613 . S
S231 N233 1.610 . S
N232 S231 1.613 . S
N232 C235 1.350 . S
N233 S231 1.610 . S
N233 C234 1.351 . S
C234 C228 1.428 . S
C234 N233 1.351 . S
C234 C235 1.434 . S
C235 C226 1.429 . S
C235 N232 1.350 . S
C235 C234 1.434 . S
C236 C237 1.369 . S
C236 C238 1.419 . S
C236 H240 0.930 . S
C237 C236 1.369 . S
C237 C246 1.429 . S
C238 C236 1.419 . S
C238 C239 1.363 . S
C238 H241 0.929 . S
C239 C238 1.363 . S
C239 C245 1.428 . S
H240 C236 0.930 . S
H241 C238 0.929 . S
S242 N243 1.613 1_565 S
S242 N244 1.610 1_565 S
N243 S242 1.613 1_545 S
N243 C246 1.350 . S
N244 S242 1.610 1_545 S
N244 C245 1.351 . S
C245 C239 1.428 . S
C245 N244 1.351 . S
C245 C246 1.434 . S
C246 C237 1.429 . S
C246 N243 1.350 . S
C246 C245 1.434 . S
C247 C248 1.369 . S
C247 C249 1.419 . S
C247 H251 0.930 . S
C248 C247 1.369 . S
C248 C257 1.429 . S
C249 C247 1.419 . S
C249 C250 1.363 . S
C249 H252 0.929 . S
C250 C249 1.363 . S
C250 C256 1.428 . S
H251 C247 0.930 . S
H252 C249 0.929 . S
S253 N254 1.613 . S
S253 N255 1.610 . S
N254 S253 1.613 . S
N254 C257 1.350 . S
N255 S253 1.610 . S
N255 C256 1.351 . S
C256 C250 1.428 . S
C256 N255 1.351 . S
C256 C257 1.434 . S
C257 C248 1.429 . S
C257 N254 1.350 . S
C257 C256 1.434 . S
C258 C259 1.369 . S
C258 C260 1.419 . S
C258 H262 0.930 . S
C259 C258 1.369 . S
C259 C268 1.429 . S
C260 C258 1.419 . S
C260 C261 1.363 . S
C260 H263 0.929 . S
C261 C260 1.363 . S
C261 C267 1.428 . S
H262 C258 0.930 . S
H263 C260 0.929 . S
S264 N265 1.613 . S
S264 N266 1.610 . S
N265 S264 1.613 . S
N265 C268 1.350 . S
N266 S264 1.610 . S
N266 C267 1.351 . S
C267 C261 1.428 . S
C267 N266 1.351 . S
C267 C268 1.434 . S
C268 C259 1.429 . S
C268 N265 1.350 . S
C268 C267 1.434 . S
C269 C270 1.369 . S
C269 C271 1.419 . S
C269 H273 0.930 . S
C270 C269 1.369 . S
C270 C279 1.429 . S
C271 C269 1.419 . S
C271 C272 1.363 . S
C271 H274 0.929 . S
C272 C271 1.363 . S
C272 C278 1.428 . S
H273 C269 0.930 . S
H274 C271 0.929 . S
S275 N276 1.613 1_565 S
S275 N277 1.610 1_565 S
N276 S275 1.613 1_545 S
N276 C279 1.350 . S
N277 S275 1.610 1_545 S
N277 C278 1.351 . S
C278 C272 1.428 . S
C278 N277 1.351 . S
C278 C279 1.434 . S
C279 C270 1.429 . S
C279 N276 1.350 . S
C279 C278 1.434 . S
C280 C281 1.369 . S
C280 C282 1.419 . S
C280 H284 0.930 . S
C281 C280 1.369 . S
C281 C290 1.429 . S
C282 C280 1.419 . S
C282 C283 1.363 . S
C282 H285 0.929 . S
C283 C282 1.363 . S
C283 C289 1.428 . S
H284 C280 0.930 . S
H285 C282 0.929 . S
S286 N287 1.613 . S
S286 N288 1.610 . S
N287 S286 1.613 . S
N287 C290 1.350 . S
N288 S286 1.610 . S
N288 C289 1.351 . S
C289 C283 1.428 . S
C289 N288 1.351 . S
C289 C290 1.434 . S
C290 C281 1.429 . S
C290 N287 1.350 . S
C290 C289 1.434 . S
C291 C292 1.369 . S
C291 C293 1.419 . S
C291 H295 0.930 . S
C292 C291 1.369 . S
C292 C301 1.429 . S
C293 C291 1.419 . S
C293 C294 1.363 . S
C293 H296 0.929 . S
C294 C293 1.363 . S
C294 C300 1.428 1_565 S
H295 C291 0.930 . S
H296 C293 0.929 . S
S297 N298 1.613 . S
S297 N299 1.610 . S
N298 S297 1.613 . S
N298 C301 1.350 1_545 S
N299 S297 1.610 . S
N299 C300 1.351 . S
C300 C294 1.428 1_545 S
C300 N299 1.351 . S
C300 C301 1.434 1_545 S
C301 C292 1.429 . S
C301 N298 1.350 1_565 S
C301 C300 1.434 1_565 S
C173 C143 1.367 . S
C171 C119 1.435 . S
C182 C23 1.550 . S
C184 C167 1.360 . S
C193 C55 1.651 . S
C195 C146 1.455 . S
C204 C87 1.539 . S
C206 C164 1.435 . S
C217 C144 1.585 . S
C215 C17 1.602 . S
C228 C166 1.560 . S
C226 C61 1.603 . S
C237 C93 1.491 . S
C239 C145 1.490 . S
C248 C113 1.470 . S
C250 C165 1.489 . S
C261 C163 1.497 . S
C259 C49 1.593 . S
C272 C142 1.561 . S
C270 C81 1.531 . S
C283 C162 1.592 . S
C281 C125 1.466 . S
C292 C29 1.600 . S
C294 C141 1.487 . S
