# Generated by pormake.
# Topology pyr, (3,6)-cn, num edge types: 1
# Building blocks:
#     Node 0, Type 0, BuildingBlock: PAMTOO_clean_linker_0, # of connection points: 3
#     Node 1, Type 0, BuildingBlock: PAMTOO_clean_linker_0, # of connection points: 3
#     Node 2, Type 0, BuildingBlock: PAMTOO_clean_linker_0, # of connection points: 3
#     Node 3, Type 0, BuildingBlock: PAMTOO_clean_linker_0, # of connection points: 3
#     Node 4, Type 0, BuildingBlock: PAMTOO_clean_linker_0, # of connection points: 3
#     Node 5, Type 0, BuildingBlock: PAMTOO_clean_linker_0, # of connection points: 3
#     Node 6, Type 0, BuildingBlock: PAMTOO_clean_linker_0, # of connection points: 3
#     Node 7, Type 0, BuildingBlock: PAMTOO_clean_linker_0, # of connection points: 3
#     Node 8, Type 1, BuildingBlock: FUNLAD_clean_sbu_0, # of connection points: 6
#     Node 9, Type 1, BuildingBlock: FUNLAD_clean_sbu_0, # of connection points: 6
#     Node 10, Type 1, BuildingBlock: FUNLAD_clean_sbu_0, # of connection points: 6
#     Node 11, Type 1, BuildingBlock: FUNLAD_clean_sbu_0, # of connection points: 6
#     Edge 12, Type (0, 1), BuildingBlock: MIFKUJ_clean_linker_0, # of connection points: 2
#     Edge 13, Type (0, 1), BuildingBlock: MIFKUJ_clean_linker_0, # of connection points: 2
#     Edge 14, Type (0, 1), BuildingBlock: MIFKUJ_clean_linker_0, # of connection points: 2
#     Edge 15, Type (0, 1), BuildingBlock: MIFKUJ_clean_linker_0, # of connection points: 2
#     Edge 16, Type (0, 1), BuildingBlock: MIFKUJ_clean_linker_0, # of connection points: 2
#     Edge 17, Type (0, 1), BuildingBlock: MIFKUJ_clean_linker_0, # of connection points: 2
#     Edge 18, Type (0, 1), BuildingBlock: MIFKUJ_clean_linker_0, # of connection points: 2
#     Edge 19, Type (0, 1), BuildingBlock: MIFKUJ_clean_linker_0, # of connection points: 2
#     Edge 20, Type (0, 1), BuildingBlock: MIFKUJ_clean_linker_0, # of connection points: 2
#     Edge 21, Type (0, 1), BuildingBlock: MIFKUJ_clean_linker_0, # of connection points: 2
#     Edge 22, Type (0, 1), BuildingBlock: MIFKUJ_clean_linker_0, # of connection points: 2
#     Edge 23, Type (0, 1), BuildingBlock: MIFKUJ_clean_linker_0, # of connection points: 2
#     Edge 24, Type (0, 1), BuildingBlock: MIFKUJ_clean_linker_0, # of connection points: 2
#     Edge 25, Type (0, 1), BuildingBlock: MIFKUJ_clean_linker_0, # of connection points: 2
#     Edge 26, Type (0, 1), BuildingBlock: MIFKUJ_clean_linker_0, # of connection points: 2
#     Edge 27, Type (0, 1), BuildingBlock: MIFKUJ_clean_linker_0, # of connection points: 2
#     Edge 28, Type (0, 1), BuildingBlock: MIFKUJ_clean_linker_0, # of connection points: 2
#     Edge 29, Type (0, 1), BuildingBlock: MIFKUJ_clean_linker_0, # of connection points: 2
#     Edge 30, Type (0, 1), BuildingBlock: MIFKUJ_clean_linker_0, # of connection points: 2
#     Edge 31, Type (0, 1), BuildingBlock: MIFKUJ_clean_linker_0, # of connection points: 2
#     Edge 32, Type (0, 1), BuildingBlock: MIFKUJ_clean_linker_0, # of connection points: 2
#     Edge 33, Type (0, 1), BuildingBlock: MIFKUJ_clean_linker_0, # of connection points: 2
#     Edge 34, Type (0, 1), BuildingBlock: MIFKUJ_clean_linker_0, # of connection points: 2
#     Edge 35, Type (0, 1), BuildingBlock: MIFKUJ_clean_linker_0, # of connection points: 2
# Relax obj value: 0.147
# Max RMSD: 0.207
# Mean RMSD: 0.133
data_MOF--net-pry--node1-FUNLAD_clean_sbu_0--node2-PAMTOO_clean_linker_0--edge1-MIFKUJ_clean_linker_0
_symmetry_space_group_name_H-M    P1
_symmetry_Int_Tables_number       1
_symmetry_cell_setting            triclinic
loop_
_symmetry_equiv_pos_as_xyz
'x, y, z'
_cell_length_a     45.045872
_cell_length_b     48.387956
_cell_length_c     48.851812
_cell_angle_alpha  89.740534
_cell_angle_beta   91.094467
_cell_angle_gamma 88.975548
loop_
_atom_site_label
_atom_site_type_symbol
_atom_site_fract_x
_atom_site_fract_y
_atom_site_fract_z
_atom_type_partial_charge
H0 H 0.1522 0.21824 0.25112 0.0
H1 H 0.22062 0.15481 0.24704 0.0
H2 H 0.2172 0.21989 0.18743 0.0
H3 H 0.23125 0.16641 0.16465 0.0
C4 C 0.24352 0.15653 0.1822 0.0
O5 O 0.24563 0.17505 0.2036 0.0
H6 H 0.23076 0.13829 0.18893 0.0
C7 C 0.17168 0.20946 0.24153 0.0
C8 C 0.18283 0.2222 0.21785 0.0
C9 C 0.18485 0.18485 0.25223 0.0
C10 C 0.20974 0.17338 0.23904 0.0
C11 C 0.22125 0.18598 0.21573 0.0
C12 C 0.20784 0.21025 0.20529 0.0
H13 H 0.36891 0.93074 0.73723 0.0
H14 H 0.37483 0.8683 0.67454 0.0
H15 H 0.44243 0.87263 0.73716 0.0
H16 H 0.46343 0.85884 0.6809 0.0
C17 C 0.44392 0.84707 0.67341 0.0
O18 O 0.42354 0.84525 0.6941 0.0
H19 H 0.43383 0.85849 0.65562 0.0
C20 C 0.38034 0.91336 0.72795 0.0
C21 C 0.40717 0.90341 0.73993 0.0
C22 C 0.36834 0.90112 0.7041 0.0
C23 C 0.38335 0.87812 0.69287 0.0
C24 C 0.40992 0.86789 0.70476 0.0
C25 C 0.42192 0.88071 0.72805 0.0
H26 H 0.68876 0.43228 1.00781 0.0
H27 H 0.62221 0.4497 0.94539 0.0
H28 H 0.67148 0.51586 0.9804 0.0
H29 H 0.60116 0.5329 0.9555 0.0
C30 C 0.60163 0.51167 0.94689 0.0
O31 O 0.63072 0.50269 0.94459 0.0
H32 H 0.58902 0.4981 0.96084 0.0
C33 C 0.67614 0.44691 0.99522 0.0
C34 C 0.68333 0.47509 0.99607 0.0
C35 C 0.65374 0.43735 0.97735 0.0
C36 C 0.63846 0.45655 0.96037 0.0
C37 C 0.64436 0.48476 0.96212 0.0
C38 C 0.66649 0.49404 0.98006 0.0
H39 H 0.92016 0.64872 0.47189 0.0
H40 H 0.93874 0.56355 0.49196 0.0
H41 H 1.00913 0.61484 0.46559 0.0
H42 H 0.97916 0.52892 0.47277 0.0
C43 C 0.99812 0.54256 0.46836 0.0
O44 O 0.99581 0.56619 0.48402 0.0
H45 H 0.01859 0.53099 0.47485 0.0
C46 C 0.93582 0.63152 0.47333 0.0
C47 C 0.96607 0.63555 0.46792 0.0
C48 C 0.92555 0.60548 0.48126 0.0
C49 C 0.94599 0.58347 0.4847 0.0
C50 C 0.97597 0.587 0.47902 0.0
C51 C 0.98582 0.61268 0.46999 0.0
H52 H 0.87258 0.92105 0.84358 0.0
H53 H 0.87914 0.8601 0.90807 0.0
H54 H 0.93983 0.85643 0.84157 0.0
H55 H 0.9174 0.80156 0.8601 0.0
C56 C 0.9138 0.80636 0.88206 0.0
O57 O 0.92387 0.83269 0.88741 0.0
H58 H 0.88953 0.80549 0.88574 0.0
C59 C 0.88335 0.90288 0.85257 0.0
C60 C 0.9077 0.89035 0.83937 0.0
C61 C 0.87283 0.89221 0.87741 0.0
C62 C 0.88695 0.86867 0.88904 0.0
C63 C 0.91073 0.85555 0.87595 0.0
C64 C 0.92106 0.86642 0.85122 0.0
H65 H 0.74469 0.13824 0.33825 0.0
H66 H 0.6739 0.1992 0.33448 0.0
H67 H 0.73548 0.19882 0.40236 0.0
H68 H 0.67169 0.20737 0.41378 0.0
C69 C 0.66675 0.22327 0.39769 0.0
O70 O 0.69002 0.22452 0.37973 0.0
H71 H 0.64632 0.21699 0.38638 0.0
C72 C 0.73314 0.15573 0.34719 0.0
C73 C 0.74344 0.16679 0.37225 0.0
C74 C 0.70789 0.16704 0.33352 0.0
C75 C 0.69311 0.18999 0.34491 0.0
C76 C 0.70343 0.20158 0.36949 0.0
C77 C 0.7283 0.18989 0.3831 0.0
H78 H 0.41393 0.64809 0.06417 0.0
H79 H 0.41235 0.57105 0.10832 0.0
H80 H 0.48383 0.62631 0.12239 0.0
H81 H 0.50042 0.56762 0.12158 0.0
C82 C 0.48244 0.56041 0.13507 0.0
O83 O 0.46025 0.5802 0.13698 0.0
H84 H 0.47317 0.54115 0.12632 0.0
C85 C 0.42438 0.63359 0.07848 0.0
C86 C 0.4513 0.64022 0.09182 0.0
C87 C 0.41009 0.60875 0.08432 0.0
C88 C 0.42364 0.58977 0.10264 0.0
C89 C 0.4503 0.59614 0.11598 0.0
C90 C 0.46406 0.62119 0.11063 0.0
H91 H 0.09668 0.417 0.65741 0.0
H92 H 0.15741 0.48113 0.67982 0.0
H93 H 0.17147 0.43416 0.60697 0.0
H94 H 0.21768 0.44104 0.65523 0.0
C95 C 0.21769 0.46391 0.65235 0.0
O96 O 0.19223 0.47299 0.63865 0.0
H97 H 0.21841 0.47337 0.67306 0.0
C98 C 0.11558 0.42965 0.65275 0.0
C99 C 0.1323 0.42372 0.62947 0.0
C100 C 0.12459 0.44998 0.67139 0.0
C101 C 0.14944 0.46589 0.66539 0.0
C102 C 0.16617 0.46021 0.64214 0.0
C103 C 0.15766 0.43916 0.62424 0.0
C104 C 0.07742 0.05009 0.49655 0.0
N105 N 0.06 0.08715 0.57163 0.0
C106 C 0.08695 0.09865 0.56791 0.0
C107 C 0.09181 0.12594 0.57536 0.0
C108 C 0.06881 0.14163 0.58701 0.0
C109 C 0.04163 0.12879 0.59189 0.0
C110 C 0.03764 0.10138 0.58389 0.0
Zn111 Zn 0.05312 0.04968 0.5541 0.0
C112 C 0.9963 0.04919 0.52146 0.0
N113 N 0.04099 0.97264 0.51426 0.0
C114 C 0.06378 0.96011 0.50096 0.0
C115 C 0.01418 0.96039 0.51636 0.0
C116 C 1.0097 0.93421 0.50537 0.0
C117 C 0.03304 0.92046 0.49209 0.0
C118 C 0.06027 0.93389 0.48967 0.0
Zn119 Zn 0.04732 1.00984 0.53264 0.0
O120 O 0.07393 0.06446 0.51798 0.0
C121 C 0.1043 1.0104 0.56524 0.0
O122 O 0.06879 0.02518 0.49659 0.0
H123 H 0.9964 0.97071 0.52709 0.0
H124 H 0.10437 0.08704 0.55795 0.0
H125 H 0.08487 0.97029 0.49948 0.0
O126 O 0.09482 0.03469 0.57045 0.0
O127 O 0.08892 0.99518 0.54947 0.0
H128 H 0.01637 0.09181 0.58658 0.0
O129 O 0.02597 0.9951 0.56895 0.0
O130 O 0.03182 0.03461 0.59 0.0
O131 O 1.00575 0.02491 0.51612 0.0
O132 O 0.01158 0.06424 0.53746 0.0
C133 C 0.02265 1.00987 0.59024 0.0
H134 H 0.11297 0.13497 0.57072 0.0
H135 H 0.02341 0.13998 0.60117 0.0
H136 H 0.9885 0.92447 0.50808 0.0
H137 H 0.07875 0.92414 0.47937 0.0
C138 C 0.61682 1.01346 1.01044 0.0
N139 N 0.57968 0.09383 1.00883 0.0
C140 C 0.60844 0.10193 1.00904 0.0
C141 C 0.61559 0.12867 1.00112 0.0
C142 C 0.59289 0.14771 0.99362 0.0
C143 C 0.5634 0.13853 0.99302 0.0
C144 C 0.55732 0.11134 1.00049 0.0
Zn145 Zn 0.57032 0.05565 0.02414 0.0
C146 C 0.53419 0.02157 0.98581 0.0
N147 N 0.55121 0.97684 0.05804 0.0
C148 C 0.57374 0.95969 0.06676 0.0
C149 C 0.52271 0.96809 0.05668 0.0
C150 C 0.51611 0.94087 0.06327 0.0
C151 C 0.53914 0.92216 0.07073 0.0
C152 C 0.56822 0.9321 0.07306 0.0
Zn153 Zn 0.56029 1.01504 0.04288 0.0
O154 O 0.60985 0.03878 1.00672 0.0
C155 C 0.59608 0.04917 0.08132 0.0
O156 O 0.60015 0.99861 0.02496 0.0
H157 H 0.50512 0.98197 0.04954 0.0
H158 H 0.62593 0.08785 1.01599 0.0
H159 H 0.59625 0.96708 0.06776 0.0
O160 O 0.59436 0.06545 0.06082 0.0
O161 O 0.58391 0.02566 0.07978 0.0
H162 H 0.5346 0.10452 1.00041 0.0
O163 O 0.52082 0.03167 0.06013 0.0
O164 O 0.53033 0.07207 0.04226 0.0
O165 O 0.53634 1.00522 1.00623 0.0
O166 O 0.54632 0.04511 0.98729 0.0
C167 C 0.5137 0.05698 0.0566 0.0
H168 H 0.63871 0.13439 1.00132 0.0
H169 H 0.54501 0.15238 0.9878 0.0
H170 H 0.49324 0.93443 0.06184 0.0
H171 H 0.58677 0.9185 0.07848 0.0
C172 C 0.58042 0.48328 0.5211 0.0
N173 N 0.57961 0.51718 0.60043 0.0
C174 C 0.56791 0.4942 0.61184 0.0
C175 C 0.57031 0.4897 0.64006 0.0
C176 C 0.58523 0.50886 0.65667 0.0
C177 C 0.59888 0.53133 0.64396 0.0
C178 C 0.59551 0.53527 0.61578 0.0
Zn179 Zn 0.56877 0.52767 0.56091 0.0
C180 C 0.61823 0.55418 0.53206 0.0
N181 N 0.54336 0.55209 0.47994 0.0
C182 C 0.52889 0.53268 0.46501 0.0
C183 C 0.55153 0.57641 0.46847 0.0
C184 C 0.54579 0.58161 0.44067 0.0
C185 C 0.53159 0.56154 0.42461 0.0
C186 C 0.52287 0.53694 0.43726 0.0
Zn187 Zn 0.55486 0.54196 0.51928 0.0
O188 O 0.58315 0.48799 0.54663 0.0
C189 C 0.50535 0.51563 0.54817 0.0
O190 O 0.56921 0.50205 0.50559 0.0
H191 H 0.56306 0.59152 0.48076 0.0
H192 H 0.55539 0.48004 0.59927 0.0
H193 H 0.52274 0.51342 0.47446 0.0
O194 O 0.52554 0.51281 0.5665 0.0
O195 O 0.51142 0.52727 0.52567 0.0
H196 H 0.60452 0.55348 0.60637 0.0
O197 O 0.5408 0.58167 0.53357 0.0
O198 O 0.55408 0.56747 0.57476 0.0
O199 O 0.59835 0.55663 0.51334 0.0
O200 O 0.61185 0.54283 0.55466 0.0
C201 C 0.54308 0.58628 0.55915 0.0
H202 H 0.55921 0.47219 0.64883 0.0
H203 H 0.61125 0.54628 0.65576 0.0
H204 H 0.55262 0.60099 0.43182 0.0
H205 H 0.51239 0.52064 0.42568 0.0
C206 C 0.02693 0.57342 0.04255 0.0
N207 N 0.03483 0.54799 0.12527 0.0
C208 C 0.04453 0.57297 0.13409 0.0
C209 C 0.03955 0.58138 0.16106 0.0
C210 C 0.02421 0.56397 0.17879 0.0
C211 C 0.01439 0.53846 0.16898 0.0
C212 C 0.02 0.53084 0.14215 0.0
Zn213 Zn 0.04236 0.53349 0.0868 0.0
C214 C 0.98775 0.50614 0.06422 0.0
N215 N 0.05624 0.49881 1.00821 0.0
C216 C 0.0711 0.51535 0.99077 0.0
C217 C 0.04557 0.474 0.99998 0.0
C218 C 0.0494 0.46517 0.97304 0.0
C219 C 0.06446 0.48202 0.95458 0.0
C220 C 0.0755 0.50733 0.96382 0.0
Zn221 Zn 0.049 0.51348 0.04655 0.0
O222 O 0.02737 0.57195 0.06859 0.0
C223 C 0.10347 0.54108 0.06868 0.0
O224 O 0.03516 0.55237 0.02896 0.0
H225 H 0.03379 0.46121 1.01421 0.0
H226 H 0.05635 0.58624 0.12032 0.0
H227 H 0.07917 0.53511 0.99764 0.0
O228 O 0.08655 0.54789 0.08816 0.0
O229 O 0.09334 0.52661 0.04913 0.0
H230 H 0.0128 0.51093 0.13492 0.0
O231 O 0.06264 0.47489 0.06447 0.0
O232 O 0.05764 0.4946 0.10445 0.0
O233 O 1.00461 0.50044 0.04442 0.0
O234 O 0.9981 0.5193 0.0846 0.0
C235 C 0.06459 0.47338 0.09046 0.0
H236 H 0.04753 0.6012 0.16794 0.0
H237 H 1.00311 0.52412 0.18214 0.0
H238 H 0.04074 0.44541 0.96674 0.0
H239 H 0.0868 0.52116 0.95016 0.0
H240 H 0.16491 0.20875 0.29969 0.0
H241 H 0.14665 0.18567 0.34067 0.0
H242 H 0.15953 0.10643 0.30228 0.0
H243 H 0.17724 0.12935 0.2611 0.0
H244 H 0.10697 0.10891 0.32871 0.0
H245 H 0.20895 0.12983 0.35026 0.0
H246 H 0.25208 0.16014 0.35568 0.0
H247 H 0.20536 0.20838 0.41516 0.0
H248 H 0.16178 0.17857 0.40981 0.0
H249 H 0.09231 0.02526 0.44789 0.0
H250 H 0.11094 0.0474 0.40656 0.0
H251 H 0.10832 0.12648 0.44696 0.0
H252 H 0.09073 0.1044 0.48844 0.0
H253 H 0.15595 0.12389 0.41908 0.0
H254 H 0.05405 0.10529 0.39786 0.0
H255 H 1.0095 0.07673 0.39269 0.0
H256 H 0.05367 0.0266 0.33306 0.0
H257 H 0.09864 0.05465 0.33815 0.0
C258 C 0.1636 0.18643 0.29984 0.0
C259 C 0.17276 0.17096 0.27705 0.0
C260 C 0.15338 0.17321 0.32342 0.0
C261 C 0.15201 0.14421 0.32481 0.0
C262 C 0.16046 0.12878 0.30185 0.0
C263 C 0.17083 0.14195 0.27835 0.0
C264 C 0.14205 0.1299 0.35018 0.0
C265 C 0.11793 0.11193 0.34841 0.0
C266 C 0.15577 0.13427 0.37611 0.0
C267 C 0.182 0.15213 0.37943 0.0
C268 C 0.20779 0.14703 0.36434 0.0
C269 C 0.23233 0.1641 0.36742 0.0
C270 C 0.23143 0.18622 0.3857 0.0
C271 C 0.20601 0.19127 0.40098 0.0
C272 C 0.18139 0.17428 0.39795 0.0
C273 C 0.09585 0.04734 0.44801 0.0
C274 C 0.08992 0.06299 0.47156 0.0
C275 C 0.10633 0.06006 0.42424 0.0
C276 C 0.11064 0.08882 0.42327 0.0
C277 C 0.10522 0.10432 0.44698 0.0
C278 C 0.09507 0.09161 0.47077 0.0
C279 C 0.12073 0.10288 0.39772 0.0
C280 C 0.14492 0.12082 0.39942 0.0
C281 C 0.10683 0.09874 0.37179 0.0
C282 C 0.07981 0.08189 0.3686 0.0
C283 C 0.05433 0.08805 0.38379 0.0
C284 C 0.029 0.07197 0.38085 0.0
C285 C 0.02879 0.04982 0.36261 0.0
C286 C 0.05388 0.04374 0.34721 0.0
C287 C 0.07929 0.05973 0.3501 0.0
H288 H 1.00915 0.03739 0.36036 0.0
H289 H 0.25046 0.1994 0.38806 0.0
H290 H 0.38044 0.91125 0.78905 0.0
H291 H 0.40125 0.93243 0.83039 0.0
H292 H 0.48254 0.94802 0.78796 0.0
H293 H 0.46226 0.92519 0.74719 0.0
H294 H 0.49765 0.93383 0.83528 0.0
H295 H 0.42549 1.00015 0.80312 0.0
H296 H 0.37641 0.01769 0.78711 0.0
H297 H 0.33882 0.99538 0.86407 0.0
H298 H 0.38761 0.97734 0.88041 0.0
H299 H 0.54347 0.03865 0.93311 0.0
H300 H 0.52107 0.02017 0.89087 0.0
H301 H 0.46754 0.96582 0.93864 0.0
H302 H 0.49052 0.98343 0.98085 0.0
H303 H 0.43922 1.00202 0.88857 0.0
H304 H 0.51488 0.93313 0.91755 0.0
H305 H 0.56605 0.92012 0.93192 0.0
H306 H 0.59911 0.95392 0.85724 0.0
H307 H 0.54812 0.96755 0.84266 0.0
C308 C 0.40274 0.91925 0.78862 0.0
C309 C 0.41971 0.91669 0.76491 0.0
C310 C 0.4146 0.93159 0.81222 0.0
C311 C 0.44336 0.94257 0.81237 0.0
C312 C 0.46033 0.93985 0.78859 0.0
C313 C 0.44873 0.92686 0.76522 0.0
C314 C 0.45594 0.95637 0.83737 0.0
C315 C 0.48483 0.94899 0.84657 0.0
C316 C 0.43951 0.97619 0.85257 0.0
C317 C 0.41016 0.98716 0.84289 0.0
C318 C 0.40672 0.99882 0.81656 0.0
C319 C 0.37895 1.00887 0.80744 0.0
C320 C 0.3545 1.00758 0.82454 0.0
C321 C 0.35778 0.99632 0.85083 0.0
C322 C 0.38549 0.9862 0.86005 0.0
C323 C 0.52671 0.02296 0.93462 0.0
C324 C 0.51879 1.01248 0.96032 0.0
C325 C 0.51399 1.0124 0.91048 0.0
C326 C 0.49266 0.99163 0.91166 0.0
C327 C 0.48391 0.98187 0.9373 0.0
C328 C 0.49713 0.99191 0.96138 0.0
C329 C 0.48042 0.97918 0.88615 0.0
C330 C 0.45177 0.98689 0.87698 0.0
C331 C 0.49723 0.96021 0.87062 0.0
C332 C 0.52777 0.95165 0.87919 0.0
C333 C 0.5331 0.93803 0.90433 0.0
C334 C 0.56205 0.93049 0.91248 0.0
C335 C 0.58583 0.93627 0.89554 0.0
C336 C 0.58068 0.94951 0.87037 0.0
C337 C 0.55176 0.95713 0.86215 0.0
H338 H 0.60824 0.93043 0.90189 0.0
H339 H 0.33302 1.01537 0.81743 0.0
H340 H 0.57799 0.46759 0.92017 0.0
H341 H 0.56714 0.46393 0.87095 0.0
H342 H 0.58515 0.55058 0.86082 0.0
H343 H 0.59648 0.55418 0.90994 0.0
H344 H 0.53614 0.52989 0.82718 0.0
H345 H 0.63941 0.50833 0.85328 0.0
H346 H 0.67705 0.48198 0.88045 0.0
H347 H 0.64558 0.40613 0.84615 0.0
H348 H 0.60735 0.43204 0.81915 0.0
H349 H 0.58082 0.5511 0.69352 0.0
H350 H 0.57767 0.54803 0.74296 0.0
H351 H 0.58207 0.45902 0.73858 0.0
H352 H 0.58738 0.46193 0.68892 0.0
H353 H 0.61399 0.47509 0.78006 0.0
H354 H 0.5154 0.49473 0.74956 0.0
H355 H 0.47493 0.51863 0.72371 0.0
H356 H 0.49331 0.59399 0.76636 0.0
H357 H 0.53419 0.57066 0.7922 0.0
C358 C 0.57872 0.48599 0.90751 0.0
C359 C 0.5878 0.51122 0.91874 0.0
C360 C 0.5726 0.48387 0.87949 0.0
C361 C 0.57555 0.50696 0.86235 0.0
C362 C 0.58261 0.5326 0.87381 0.0
C363 C 0.58901 0.53466 0.90179 0.0
C364 C 0.57501 0.50381 0.83228 0.0
C365 C 0.55315 0.51803 0.81676 0.0
C366 C 0.5967 0.48754 0.81893 0.0
C367 C 0.62034 0.47209 0.83443 0.0
C368 C 0.64041 0.48602 0.85165 0.0
C369 C 0.66185 0.47117 0.86702 0.0
C370 C 0.66365 0.44239 0.86508 0.0
C371 C 0.64412 0.42842 0.84766 0.0
C372 C 0.62257 0.44318 0.83232 0.0
C373 C 0.58178 0.53082 0.70296 0.0
C374 C 0.58445 0.50675 0.68707 0.0
C375 C 0.5794 0.5291 0.73132 0.0
C376 C 0.57886 0.50328 0.74448 0.0
C377 C 0.58211 0.47918 0.72884 0.0
C378 C 0.58492 0.48088 0.70041 0.0
C379 C 0.5754 0.50174 0.77461 0.0
C380 C 0.59658 0.48663 0.79026 0.0
C381 C 0.55272 0.51683 0.78807 0.0
C382 C 0.52802 0.53097 0.7727 0.0
C383 C 0.51095 0.51645 0.75331 0.0
C384 C 0.48791 0.52989 0.73867 0.0
C385 C 0.48158 0.55782 0.74336 0.0
C386 C 0.49824 0.57235 0.76275 0.0
C387 C 0.52133 0.55902 0.77743 0.0
H388 H 0.46374 0.56819 0.732 0.0
H389 H 0.68023 0.43092 0.87702 0.0
H390 H 0.04319 0.56717 0.44117 0.0
H391 H 0.04673 0.57594 0.39178 0.0
H392 H 0.96003 0.54122 0.37883 0.0
H393 H 0.95652 0.53248 0.42814 0.0
H394 H 1.00128 0.52043 0.34313 0.0
H395 H 0.96532 0.60921 0.37194 0.0
H396 H 0.96562 0.64915 0.40284 0.0
H397 H 0.05476 0.66723 0.37976 0.0
H398 H 0.05485 0.62727 0.34842 0.0
H399 H 0.97351 0.55859 0.20768 0.0
H400 H 0.9685 0.56118 0.2573 0.0
H401 H 0.05899 0.58804 0.26539 0.0
H402 H 0.06432 0.58517 0.21557 0.0
H403 H 0.01705 0.61366 0.30354 0.0
H404 H 0.05033 0.52414 0.27184 0.0
H405 H 0.04783 0.48304 0.24228 0.0
H406 H 0.96123 0.46532 0.27234 0.0
H407 H 0.963 0.50663 0.30173 0.0
C408 C 0.02495 0.56155 0.42767 0.0
C409 C 0.99976 0.54894 0.4382 0.0
C410 C 0.0269 0.56661 0.39959 0.0
C411 C 1.00362 0.5592 0.38169 0.0
C412 C 0.97828 0.54693 0.3923 0.0
C413 C 0.97627 0.542 0.42037 0.0
C414 C 1.00596 0.56374 0.35182 0.0
C415 C 1.00438 0.54083 0.33445 0.0
C416 C 1.01055 0.59028 0.3406 0.0
C417 C 1.01017 0.6152 0.35805 0.0
C418 C 0.98497 0.62174 0.37344 0.0
C419 C 0.9851 0.64435 0.39106 0.0
C420 C 1.01033 0.66058 0.39352 0.0
C421 C 0.0353 0.65453 0.37793 0.0
C422 C 0.03522 0.63199 0.3601 0.0
C423 C 0.9922 0.56549 0.21998 0.0
C424 C 0.01948 0.5712 0.20784 0.0
C425 C 0.98925 0.56708 0.24827 0.0
C426 C 0.01352 0.57438 0.26493 0.0
C427 C 0.04004 0.58234 0.25279 0.0
C428 C 0.04303 0.58072 0.22437 0.0
C429 C 0.01215 0.57033 0.29488 0.0
C430 C 0.01401 0.59326 0.31225 0.0
C431 C 1.00761 0.54375 0.30613 0.0
C432 C 1.00669 0.51863 0.2888 0.0
C433 C 0.03066 0.5116 0.27199 0.0
C434 C 0.02939 0.48826 0.25528 0.0
C435 C 1.00436 0.47161 0.25538 0.0
C436 C 0.98059 0.47825 0.27225 0.0
C437 C 0.98172 0.50162 0.28896 0.0
H438 H 1.00343 0.45353 0.24244 0.0
H439 H 1.01051 0.67788 0.40744 0.0
H440 H 0.26484 0.10375 0.17412 0.0
H441 H 0.31204 0.08907 0.15446 0.0
H442 H 0.33776 0.17425 0.14771 0.0
H443 H 0.28999 0.18901 0.16691 0.0
H444 H 0.35007 0.14767 0.10193 0.0
H445 H 0.36928 0.12943 0.19711 0.0
H446 H 0.35952 0.11016 0.24282 0.0
H447 H 0.36205 0.02799 0.21002 0.0
H448 H 0.37143 0.04679 0.16403 0.0
H449 H 0.49822 0.11159 0.06386 0.0
H450 H 0.45456 0.13045 0.08687 0.0
H451 H 0.42389 0.04773 0.10111 0.0
H452 H 0.46802 0.02883 0.07916 0.0
H453 H 0.41593 0.0759 0.14489 0.0
H454 H 0.39347 0.09402 0.0494 0.0
H455 H 0.40275 0.11299 1.00345 0.0
H456 H 0.40593 0.19494 0.03662 0.0
H457 H 0.39701 0.17641 0.08282 0.0
C458 C 0.28075 0.11933 0.16884 0.0
C459 C 0.27397 0.14752 0.17257 0.0
C460 C 0.3078 0.11092 0.15762 0.0
C461 C 0.32885 0.13048 0.14994 0.0
C462 C 0.32206 0.15871 0.15359 0.0
C463 C 0.29489 0.16714 0.16475 0.0
C464 C 0.35735 0.12142 0.13723 0.0
C465 C 0.36471 0.1323 0.11157 0.0
C466 C 0.37628 0.10092 0.14939 0.0
C467 C 0.37083 0.08955 0.17707 0.0
C468 C 0.36756 0.10726 0.19961 0.0
C469 C 0.36213 0.09642 0.22557 0.0
C470 C 0.36011 0.06787 0.22931 0.0
C471 C 0.3636 0.0501 0.20709 0.0
C472 C 0.36901 0.06084 0.18108 0.0
C473 C 0.4821 0.09743 0.0718 0.0
C474 C 0.48662 0.06868 0.06957 0.0
C475 C 0.45701 0.10825 0.08488 0.0
C476 C 0.43549 0.0906 0.0955 0.0
C477 C 0.44004 0.06189 0.0932 0.0
C478 C 0.4653 0.05107 0.08051 0.0
C479 C 0.40846 0.10181 0.10935 0.0
C480 C 0.40138 0.09136 0.13528 0.0
C481 C 0.38974 0.12263 0.09738 0.0
C482 C 0.39486 0.1338 0.06959 0.0
C483 C 0.39633 0.11607 0.04691 0.0
C484 C 0.4015 0.12674 0.02082 0.0
C485 C 0.40501 0.15514 0.01713 0.0
C486 C 0.40325 0.17294 0.03951 0.0
C487 C 0.39811 0.16237 0.06564 0.0
H488 H 0.40903 0.16337 0.99693 0.0
H489 H 0.35589 0.05952 0.24942 0.0
H490 H 0.35082 0.95558 0.69781 0.0
H491 H 0.30609 0.97412 0.67475 0.0
H492 H 0.27846 0.8914 0.65598 0.0
H493 H 0.32279 0.8726 0.67952 0.0
H494 H 0.27306 0.9257 0.61137 0.0
H495 H 0.24496 0.92774 0.70588 0.0
H496 H 0.25079 0.93977 0.75466 0.0
H497 H 0.24903 0.02609 0.73383 0.0
H498 H 0.2436 1.01456 0.68486 0.0
H499 H 0.12538 0.95694 0.56665 0.0
H500 H 0.16997 0.93881 0.5902 0.0
H501 H 0.19145 0.02109 0.61682 0.0
H502 H 0.1463 0.03922 0.59405 0.0
H503 H 0.20057 0.98728 0.65746 0.0
H504 H 0.22909 0.98646 0.56359 0.0
H505 H 0.22459 0.97556 0.51444 0.0
H506 H 0.22724 0.88876 0.53322 0.0
H507 H 0.23137 0.89915 0.58253 0.0
C508 C 0.33505 0.94124 0.68919 0.0
C509 C 0.34056 0.91251 0.69065 0.0
C510 C 0.30949 0.95192 0.67587 0.0
C511 C 0.28877 0.93417 0.66371 0.0
C512 C 0.29416 0.90553 0.66509 0.0
C513 C 0.31964 0.89481 0.6785 0.0
C514 C 0.26169 0.94545 0.64923 0.0
C515 C 0.25699 0.93887 0.62154 0.0
C516 C 0.24113 0.9633 0.66223 0.0
C517 C 0.24417 0.97027 0.69168 0.0
C518 C 0.24605 0.94928 0.71168 0.0
C519 C 0.24924 0.95601 0.73937 0.0
C520 C 0.25036 0.98367 0.74733 0.0
C521 C 0.2482 1.00467 0.72763 0.0
C522 C 0.24504 0.99805 0.6999 0.0
C523 C 0.13969 0.97123 0.57735 0.0
C524 C 0.13228 0.99958 0.57833 0.0
C525 C 0.16531 0.96083 0.59077 0.0
C526 C 0.18449 0.97857 0.60506 0.0
C527 C 0.17713 1.00691 0.60598 0.0
C528 C 0.15132 0.01729 0.59283 0.0
C529 C 0.21182 0.96755 0.61948 0.0
C530 C 0.21661 0.97415 0.6472 0.0
C531 C 0.23263 0.94992 0.60642 0.0
C532 C 0.23026 0.9436 0.57677 0.0
C533 C 0.2285 0.96505 0.55725 0.0
C534 C 0.22605 0.95896 0.52936 0.0
C535 C 0.22555 0.93149 0.52072 0.0
C536 C 0.22759 0.91004 0.53995 0.0
C537 C 0.23002 0.91601 0.56787 0.0
H538 H 0.22365 0.92682 0.49912 0.0
H539 H 0.25285 0.98884 0.76878 0.0
H540 H 0.72456 0.51133 0.97828 0.0
H541 H 0.77405 0.51857 0.99752 0.0
H542 H 0.75483 0.46495 0.06542 0.0
H543 H 0.70475 0.45804 0.04661 0.0
H544 H 0.80041 0.53592 0.04629 0.0
H545 H 0.81574 0.42046 0.07174 0.0
H546 H 0.79321 0.37593 0.05947 0.0
H547 H 0.76738 0.40855 0.98049 0.0
H548 H 0.79024 0.45303 0.9921 0.0
H549 H 0.94557 0.51711 0.10235 0.0
H550 H 0.89194 0.51148 0.09732 0.0
H551 H 0.90402 0.47534 0.01766 0.0
H552 H 0.9577 0.48063 0.02257 0.0
H553 H 0.86109 0.44921 0.04633 0.0
H554 H 0.88853 0.54246 0.02354 0.0
H555 H 0.91176 0.58728 0.03311 0.0
H556 H 0.85298 0.6006 0.10009 0.0
H557 H 0.82996 0.55549 0.09146 0.0
C558 C 0.73035 0.50185 0.99783 0.0
C559 C 0.71077 0.48383 1.01074 0.0
C560 C 0.75875 0.50596 1.00875 0.0
C561 C 0.76818 0.49197 0.03263 0.0
C562 C 0.74801 0.47566 0.04675 0.0
C563 C 0.71949 0.47163 0.0359 0.0
C564 C 0.80001 0.49182 0.04063 0.0
C565 C 0.81364 0.51696 0.04665 0.0
C566 C 0.8173 0.4671 0.04051 0.0
C567 C 0.80437 0.44015 0.03294 0.0
C568 C 0.80538 0.41805 0.05171 0.0
C569 C 0.79256 0.39283 0.04487 0.0
C570 C 0.77877 0.38945 0.01926 0.0
C571 C 0.77797 0.41121 1.00035 0.0
C572 C 0.79086 0.43643 1.00705 0.0
C573 C 0.93688 0.50759 0.08391 0.0
C574 C 0.95586 0.49959 0.0627 0.0
C575 C 0.90623 0.50444 0.08108 0.0
C576 C 0.89405 0.49336 0.05697 0.0
C577 C 0.91303 0.48398 0.03641 0.0
C578 C 0.94368 0.48711 0.03922 0.0
C579 C 0.86151 0.4933 0.05223 0.0
C580 C 0.84778 0.46812 0.04661 0.0
C581 C 0.84426 0.51807 0.05222 0.0
C582 C 0.85773 0.54544 0.05704 0.0
C583 C 0.8807 0.55484 0.04044 0.0
C584 C 0.89382 0.5803 0.04567 0.0
C585 C 0.88384 0.59676 0.06716 0.0
C586 C 0.86071 0.58781 0.08346 0.0
C587 C 0.84765 0.56228 0.07844 0.0
H588 H 0.89401 0.61647 0.07115 0.0
H589 H 0.76877 0.36995 1.01404 0.0
H590 H 0.89154 0.56254 0.46426 0.0
H591 H 0.8387 0.55569 0.47202 0.0
H592 H 0.83453 0.63194 0.51737 0.0
H593 H 0.88737 0.63893 0.5096 0.0
H594 H 0.80875 0.5487 0.51719 0.0
H595 H 0.76598 0.66222 0.50745 0.0
H596 H 0.77849 0.70509 0.48304 0.0
H597 H 0.82008 0.65748 0.41999 0.0
H598 H 0.80745 0.61434 0.4438 0.0
H599 H 0.66441 0.55643 0.56901 0.0
H600 H 0.71596 0.56773 0.56001 0.0
H601 H 0.69317 0.58285 0.47501 0.0
H602 H 0.64139 0.5722 0.48396 0.0
H603 H 0.73195 0.61988 0.49276 0.0
H604 H 0.72416 0.5213 0.49538 0.0
H605 H 0.71072 0.47639 0.51527 0.0
H606 H 0.76939 0.49025 0.58396 0.0
H607 H 0.78286 0.53544 0.56465 0.0
C608 C 0.87938 0.57776 0.47601 0.0
C609 C 0.89356 0.6013 0.48626 0.0
C610 C 0.8492 0.57386 0.48037 0.0
C611 C 0.8326 0.59343 0.49504 0.0
C612 C 0.84677 0.61682 0.50556 0.0
C613 C 0.87695 0.6208 0.5011 0.0
C614 C 0.80056 0.5891 0.49961 0.0
C615 C 0.79199 0.56429 0.51188 0.0
C616 C 0.77861 0.60924 0.49225 0.0
C617 C 0.78604 0.63507 0.47759 0.0
C618 C 0.7777 0.66091 0.48833 0.0
C619 C 0.78482 0.68525 0.4746 0.0
C620 C 0.80016 0.68401 0.45003 0.0
C621 C 0.80831 0.65841 0.43908 0.0
C622 C 0.8012 0.63401 0.45271 0.0
C623 C 0.6703 0.56239 0.54844 0.0
C624 C 0.64888 0.56314 0.52713 0.0
C625 C 0.69979 0.56877 0.54333 0.0
C626 C 0.7085 0.57566 0.51675 0.0
C627 C 0.68695 0.57752 0.49566 0.0
C628 C 0.65738 0.57134 0.5008 0.0
C629 C 0.74027 0.57966 0.51069 0.0
C630 C 0.74877 0.60437 0.49817 0.0
C631 C 0.76211 0.55915 0.51717 0.0
C632 C 0.75431 0.53185 0.52869 0.0
C633 C 0.73405 0.51484 0.51481 0.0
C634 C 0.72644 0.48933 0.52597 0.0
C635 C 0.73914 0.4805 0.55089 0.0
C636 C 0.75955 0.49713 0.56467 0.0
C637 C 0.76719 0.52269 0.55362 0.0
H638 H 0.73322 0.46075 0.55951 0.0
H639 H 0.80567 0.70288 0.43945 0.0
H640 H 0.1702 0.23362 0.1639 0.0
H641 H 0.1491 0.27606 0.14382 0.0
H642 H 0.14198 0.3115 0.22434 0.0
H643 H 0.16272 0.26869 0.24462 0.0
H644 H 0.09447 0.32562 0.19501 0.0
H645 H 0.19863 0.32906 0.17978 0.0
H646 H 0.24755 0.31217 0.16457 0.0
H647 H 0.21416 0.30738 0.08184 0.0
H648 H 0.16489 0.32388 0.09663 0.0
H649 H 0.07385 0.4641 0.14547 0.0
H650 H 0.0929 0.42205 0.16807 0.0
H651 H 0.09873 0.38171 0.08977 0.0
H652 H 0.08024 0.42391 0.06696 0.0
H653 H 0.14757 0.3712 0.11959 0.0
H654 H 0.04233 0.3676 0.13657 0.0
H655 H 0.99464 0.3864 0.15296 0.0
H656 H 0.03198 0.39386 0.23407 0.0
H657 H 0.08 0.37532 0.21809 0.0
C658 C 0.16425 0.25046 0.17737 0.0
C659 C 0.1685 0.24778 0.20589 0.0
C660 C 0.15218 0.27481 0.16584 0.0
C661 C 0.14445 0.2974 0.18242 0.0
C662 C 0.14783 0.29451 0.211 0.0
C663 C 0.15968 0.26998 0.22261 0.0
C664 C 0.13322 0.32399 0.16984 0.0
C665 C 0.10633 0.33574 0.17877 0.0
C666 C 0.14835 0.33726 0.14838 0.0
C667 C 0.17799 0.32747 0.13937 0.0
C668 C 0.20166 0.32422 0.15838 0.0
C669 C 0.22946 0.31474 0.14983 0.0
C670 C 0.23394 0.30864 0.12227 0.0
C671 C 0.21064 0.31208 0.10319 0.0
C672 C 0.18278 0.32152 0.11164 0.0
C673 C 0.07906 0.44627 0.13301 0.0
C674 C 0.07539 0.44747 0.10433 0.0
C675 C 0.08986 0.42212 0.14602 0.0
C676 C 0.09697 0.39842 0.13074 0.0
C677 C 0.0934 0.39961 0.1021 0.0
C678 C 0.08271 0.42379 0.08905 0.0
C679 C 0.10864 0.37258 0.14446 0.0
C680 C 0.1357 0.36104 0.1358 0.0
C681 C 0.09382 0.35971 0.16633 0.0
C682 C 0.06481 0.37029 0.17608 0.0
C683 C 0.0404 0.37336 0.15787 0.0
C684 C 0.01331 0.38394 0.16709 0.0
C685 C 1.01031 0.39137 0.19453 0.0
C686 C 0.03435 0.3881 0.21282 0.0
C687 C 0.06148 0.37751 0.20371 0.0
H688 H 0.98934 0.39962 0.20162 0.0
H689 H 0.25548 0.30131 0.11569 0.0
H690 H 0.69256 0.39295 0.98235 0.0
H691 H 0.68096 0.34412 0.98178 0.0
H692 H 0.58857 0.36445 0.96569 0.0
H693 H 0.59953 0.4135 0.96873 0.0
H694 H 0.59078 0.32569 1.00055 0.0
H695 H 0.63738 0.33835 0.9151 0.0
H696 H 0.6758 0.35349 0.88333 0.0
H697 H 0.73973 0.29907 0.92292 0.0
H698 H 0.7018 0.2839 0.95522 0.0
H699 H 0.56441 0.18383 0.95751 0.0
H700 H 0.57378 0.23306 0.95117 0.0
H701 H 0.64718 0.22746 1.00884 0.0
H702 H 0.63691 0.17892 0.01698 0.0
H703 H 0.65146 0.25802 0.94865 0.0
H704 H 0.60226 0.25245 0.03833 0.0
H705 H 0.56109 0.23689 0.06683 0.0
H706 H 0.49822 0.27821 1.01281 0.0
H707 H 0.53909 0.29364 0.98375 0.0
C708 C 0.66966 0.38718 0.97915 0.0
C709 C 0.64697 0.40736 0.97576 0.0
C710 C 0.66314 0.35911 0.97829 0.0
C711 C 0.63396 0.35049 0.97314 0.0
C712 C 0.61129 0.37054 0.96955 0.0
C713 C 0.61768 0.39864 0.97099 0.0
C714 C 0.62699 0.32059 0.97253 0.0
C715 C 0.60384 0.31108 0.9888 0.0
C716 C 0.64393 0.30128 0.95728 0.0
C717 C 0.66677 0.31013 0.93772 0.0
C718 C 0.65967 0.32973 0.91714 0.0
C719 C 0.68136 0.33831 0.89903 0.0
C720 C 0.7102 0.32728 0.90113 0.0
C721 C 0.71738 0.3076 0.92132 0.0
C722 C 0.69579 0.29898 0.93952 0.0
C723 C 0.58238 0.19301 0.96911 0.0
C724 C 0.5998 0.17717 0.98786 0.0
C725 C 0.58786 0.22108 0.96518 0.0
C726 C 0.61119 0.23365 0.97949 0.0
C727 C 0.62923 0.21791 0.99747 0.0
C728 C 0.62339 0.19005 1.0019 0.0
C729 C 0.61587 0.2636 0.97691 0.0
C730 C 0.63844 0.27294 0.96005 0.0
C731 C 0.59809 0.28283 0.9911 0.0
C732 C 0.57364 0.27387 1.00872 0.0
C733 C 0.57964 0.25797 0.03239 0.0
C734 C 0.55637 0.24923 0.04868 0.0
C735 C 0.52704 0.25648 0.04158 0.0
C736 C 0.52094 0.27256 0.01824 0.0
C737 C 0.54414 0.28131 1.00187 0.0
H738 H 0.50905 0.24969 0.05421 0.0
H739 H 0.72696 0.33396 0.8871 0.0
H740 H 0.9376 0.67869 0.44027 0.0
H741 H 0.95293 0.72656 0.43769 0.0
H742 H 0.03573 0.70476 0.47879 0.0
H743 H 0.01975 0.65735 0.48339 0.0
H744 H 0.0115 0.74581 0.50329 0.0
H745 H 0.03263 0.72904 0.40779 0.0
H746 H 0.0221 0.71361 0.36053 0.0
H747 H 0.94575 0.76789 0.35571 0.0
H748 H 0.95601 0.78386 0.4028 0.0
H749 H 0.07295 0.87748 0.49707 0.0
H750 H 0.06518 0.82905 0.48567 0.0
H751 H 0.97705 0.84943 0.45497 0.0
H752 H 0.98495 0.89819 0.4656 0.0
H753 H 1.00553 0.8095 0.42343 0.0
H754 H 0.98475 0.82655 0.51812 0.0
H755 H 0.99575 0.84347 0.56469 0.0
H756 H 0.07092 0.78783 0.57126 0.0
H757 H 0.06061 0.77087 0.52452 0.0
C758 C 0.95906 0.68397 0.44889 0.0
C759 C 0.97717 0.66392 0.46239 0.0
C760 C 0.96808 0.71138 0.44686 0.0
C761 C 0.99562 0.71933 0.45787 0.0
C762 C 0.01438 0.69915 0.47009 0.0
C763 C 1.00525 0.67184 0.47246 0.0
C764 C 1.00333 0.749 0.45972 0.0
C765 C 1.01082 0.75952 0.48565 0.0
C766 C 1.00138 0.76726 0.43698 0.0
C767 C 0.99492 0.75741 0.40887 0.0
C768 C 0.01349 0.73754 0.39669 0.0
C769 C 1.00763 0.72877 0.36992 0.0
C770 C 0.98316 0.73961 0.35521 0.0
C771 C 0.96464 0.75944 0.36715 0.0
C772 C 0.97055 0.76845 0.39382 0.0
C773 C 0.05217 0.87182 0.48729 0.0
C774 C 0.02946 0.89165 0.48244 0.0
C775 C 0.0477 0.84409 0.48096 0.0
C776 C 0.0204 0.83565 0.46984 0.0
C777 C 0.99824 0.85555 0.46363 0.0
C778 C 1.00269 0.88332 0.46996 0.0
C779 C 0.01418 0.80587 0.4668 0.0
C780 C 1.00664 0.79552 0.44087 0.0
C781 C 0.01601 0.78768 0.48952 0.0
C782 C 0.02209 0.79765 0.51773 0.0
C783 C 1.00376 0.81808 0.52942 0.0
C784 C 1.00985 0.82765 0.55585 0.0
C785 C 0.03407 0.81678 0.5709 0.0
C786 C 0.0522 0.79626 0.55956 0.0
C787 C 0.04623 0.78665 0.53311 0.0
H788 H 0.03875 0.82422 0.59137 0.0
H789 H 0.97862 0.73272 0.33453 0.0
H790 H 0.40932 0.80663 0.65089 0.0
H791 H 0.42525 0.76173 0.63234 0.0
H792 H 0.51593 0.77895 0.65547 0.0
H793 H 0.50007 0.82377 0.67378 0.0
H794 H 0.51314 0.75977 0.60443 0.0
H795 H 0.47509 0.73265 0.69147 0.0
H796 H 0.43777 0.72953 0.72759 0.0
H797 H 0.37869 0.68791 0.67216 0.0
H798 H 0.41551 0.69112 0.63558 0.0
H799 H 0.54208 0.60098 0.61315 0.0
H800 H 0.52452 0.64447 0.63283 0.0
H801 H 0.50197 0.67538 0.55201 0.0
H802 H 0.51974 0.6319 0.53207 0.0
H803 H 0.47109 0.67019 0.6326 0.0
H804 H 0.51414 0.74526 0.55091 0.0
H805 H 0.55432 0.74781 0.51741 0.0
H806 H 0.60857 0.69279 0.56712 0.0
H807 H 0.56888 0.69022 0.60108 0.0
C808 C 0.43258 0.8006 0.65225 0.0
C809 C 0.45342 0.81857 0.66394 0.0
C810 C 0.44168 0.77498 0.64167 0.0
C811 C 0.47182 0.76682 0.64259 0.0
C812 C 0.49259 0.78474 0.65445 0.0
C813 C 0.48349 0.81029 0.66505 0.0
C814 C 0.48192 0.73998 0.63065 0.0
C815 C 0.50385 0.74021 0.61057 0.0
C816 C 0.4701 0.71433 0.63875 0.0
C817 C 0.44793 0.71239 0.66071 0.0
C818 C 0.45404 0.72304 0.68692 0.0
C819 C 0.433 0.72121 0.70749 0.0
C820 C 0.40584 0.7086 0.70215 0.0
C821 C 0.39971 0.69772 0.67625 0.0
C822 C 0.42066 0.69952 0.6556 0.0
C823 C 0.53345 0.61702 0.59948 0.0
C824 C 0.53251 0.61293 0.57096 0.0
C825 C 0.52326 0.64186 0.61082 0.0
C826 C 0.51206 0.66334 0.59395 0.0
C827 C 0.51082 0.65927 0.56547 0.0
C828 C 0.52096 0.63435 0.55408 0.0
C829 C 0.5021 0.69005 0.60625 0.0
C830 C 0.4802 0.68979 0.62635 0.0
C831 C 0.51423 0.71565 0.59845 0.0
C832 C 0.53841 0.71733 0.57836 0.0
C833 C 0.53468 0.73379 0.55472 0.0
C834 C 0.55737 0.73522 0.53565 0.0
C835 C 0.58394 0.72039 0.54009 0.0
C836 C 0.58793 0.70418 0.56366 0.0
C837 C 0.56534 0.7027 0.5828 0.0
H838 H 0.60146 0.72151 0.52529 0.0
H839 H 0.38959 0.70719 0.71811 0.0
H840 H 0.91723 0.94493 0.82755 0.0
H841 H 0.93606 0.96496 0.78544 0.0
H842 H 0.94311 0.88359 0.75017 0.0
H843 H 0.92487 0.8634 0.79261 0.0
H844 H 0.98967 0.91093 0.73702 0.0
H845 H 0.88553 0.9322 0.73247 0.0
H846 H 0.83773 0.95057 0.74896 0.0
H847 H 0.87388 0.03196 0.75369 0.0
H848 H 0.92205 1.01399 0.73757 0.0
H849 H 1.00603 0.95634 0.59927 0.0
H850 H 0.98601 0.93635 0.64097 0.0
H851 H 0.98889 1.01602 0.67997 0.0
H852 H 1.00889 0.03624 0.63825 0.0
H853 H 0.93697 0.98947 0.69063 0.0
H854 H 0.04143 0.96705 0.69485 0.0
H855 H 0.08848 0.94793 0.67739 0.0
H856 H 0.05018 0.86747 0.6719 0.0
H857 H 1.00274 0.8862 0.68898 0.0
C858 C 0.92257 0.93128 0.81077 0.0
C859 C 0.9193 0.90252 0.81349 0.0
C860 C 0.93333 0.9428 0.78658 0.0
C861 C 0.94059 0.92595 0.76418 0.0
C862 C 0.93769 0.89717 0.76699 0.0
C863 C 0.92724 0.8856 0.79133 0.0
C864 C 0.95144 0.93829 0.73802 0.0
C865 C 0.97783 0.92783 0.72673 0.0
C866 C 0.9365 0.96077 0.7246 0.0
C867 C 0.90749 0.97169 0.73406 0.0
C868 C 0.88335 0.95398 0.73719 0.0
C869 C 0.85618 0.96433 0.74646 0.0
C870 C 0.85279 0.9924 0.75244 0.0
C871 C 0.87655 1.01021 0.74908 0.0
C872 C 0.90378 0.99996 0.73986 0.0
C873 C 1.00233 0.9697 0.61665 0.0
C874 C 1.00923 0.99795 0.61532 0.0
C875 C 0.99096 0.95817 0.64059 0.0
C876 C 0.98619 0.97455 0.66385 0.0
C877 C 0.99239 1.00289 0.66238 0.0
C878 C 1.00393 1.01443 0.63848 0.0
C879 C 0.97508 0.96207 0.68975 0.0
C880 C 0.9487 0.97253 0.70096 0.0
C881 C 0.98987 0.93945 0.70297 0.0
C882 C 0.01845 0.92809 0.69295 0.0
C883 C 0.04297 0.94532 0.68974 0.0
C884 C 0.06972 0.93455 0.67994 0.0
C885 C 0.0723 0.90652 0.67348 0.0
C886 C 0.04815 0.88918 0.67688 0.0
C887 C 0.02133 0.89986 0.68665 0.0
H888 H 0.09302 0.89822 0.66588 0.0
H889 H 0.83175 1.00037 0.75963 0.0
H890 H 0.65204 0.14931 0.32086 0.0
H891 H 0.6345 0.12815 0.27797 0.0
H892 H 0.72143 0.13685 0.24398 0.0
H893 H 0.73932 0.15724 0.28712 0.0
H894 H 0.66237 0.15686 0.21087 0.0
H895 H 0.71411 0.07969 0.25746 0.0
H896 H 0.72333 0.04922 0.29744 0.0
H897 H 0.63188 0.02558 0.29567 0.0
H898 H 0.62203 0.0563 0.25592 0.0
H899 H 0.64227 0.08449 0.08743 0.0
H900 H 0.66314 0.1029 0.13 0.0
H901 H 0.60101 0.0554 0.17625 0.0
H902 H 0.58165 0.03545 0.13369 0.0
H903 H 0.64755 0.05572 0.20429 0.0
H904 H 0.59297 0.12925 0.16024 0.0
H905 H 0.57805 0.16116 0.12273 0.0
H906 H 0.66594 0.19404 0.12223 0.0
H907 H 0.68151 0.16207 0.15952 0.0
C908 C 0.66735 0.14673 0.3042 0.0
C909 C 0.69705 0.15486 0.30731 0.0
C910 C 0.65734 0.13463 0.27977 0.0
C911 C 0.67667 0.13094 0.25783 0.0
C912 C 0.70617 0.13952 0.26068 0.0
C913 C 0.71638 0.15104 0.28532 0.0
C914 C 0.66613 0.11788 0.232 0.0
C915 C 0.65948 0.13471 0.2092 0.0
C916 C 0.66127 0.08917 0.23026 0.0
C917 C 0.66727 0.07052 0.25394 0.0
C918 C 0.69591 0.06822 0.26578 0.0
C919 C 0.70126 0.05085 0.28835 0.0
C920 C 0.67818 0.03553 0.29914 0.0
C921 C 0.64972 0.03749 0.28732 0.0
C922 C 0.64425 0.05485 0.26476 0.0
C923 C 0.63334 0.07775 0.10673 0.0
C924 C 0.61029 0.05858 0.10722 0.0
C925 C 0.64505 0.08853 0.13112 0.0
C926 C 0.63315 0.08132 0.15658 0.0
C927 C 0.61064 0.06151 0.15705 0.0
C928 C 0.59954 0.05007 0.13268 0.0
C929 C 0.64385 0.09462 0.18256 0.0
C930 C 0.65042 0.07789 0.20561 0.0
C931 C 0.64781 0.12362 0.18474 0.0
C932 C 0.63847 0.14307 0.1625 0.0
C933 C 0.60916 0.14318 0.15203 0.0
C934 C 0.60059 0.16128 0.13081 0.0
C935 C 0.62106 0.17956 0.12005 0.0
C936 C 0.65012 0.17984 0.13056 0.0
C937 C 0.65883 0.16175 0.15175 0.0
H938 H 0.61438 0.19355 0.10362 0.0
H939 H 0.68237 0.0221 0.31662 0.0
H940 H 0.53147 0.58264 0.15996 0.0
H941 H 0.54375 0.58242 0.20914 0.0
H942 H 0.47016 0.52879 0.22369 0.0
H943 H 0.4581 0.52873 0.17455 0.0
H944 H 0.46938 0.57887 0.25353 0.0
H945 H 0.53707 0.50347 0.23287 0.0
H946 H 0.57859 0.48125 0.20864 0.0
H947 H 0.6376 0.54365 0.23813 0.0
H948 H 0.59631 0.56647 0.26224 0.0
H949 H 0.48371 0.54643 0.39317 0.0
H950 H 0.47891 0.54731 0.34349 0.0
H951 H 0.56362 0.58708 0.33819 0.0
H952 H 0.56945 0.5847 0.38801 0.0
H953 H 0.56128 0.54733 0.30272 0.0
H954 H 0.49663 0.62234 0.32447 0.0
H955 H 0.45626 0.64719 0.3479 0.0
H956 H 0.39295 0.59011 0.31536 0.0
H957 H 0.433 0.56466 0.29203 0.0
C958 C 0.51867 0.57001 0.1736 0.0
C959 C 0.49425 0.55522 0.16356 0.0
C960 C 0.52557 0.57002 0.20162 0.0
C961 C 0.50784 0.55557 0.21993 0.0
C962 C 0.48413 0.53997 0.2098 0.0
C963 C 0.47743 0.53974 0.18181 0.0
C964 C 0.51214 0.55883 0.24979 0.0
C965 C 0.48929 0.57167 0.26442 0.0
C966 C 0.5387 0.55057 0.26358 0.0
C967 C 0.56352 0.53684 0.24911 0.0
C968 C 0.55883 0.5126 0.23397 0.0
C969 C 0.58234 0.49987 0.22031 0.0
C970 C 0.61069 0.51108 0.22177 0.0
C971 C 0.61561 0.53501 0.23697 0.0
C972 C 0.59217 0.54784 0.25066 0.0
C973 C 0.50138 0.55533 0.38149 0.0
C974 C 0.52706 0.56532 0.39461 0.0
C975 C 0.49843 0.55615 0.35304 0.0
C976 C 0.52076 0.56754 0.33707 0.0
C977 C 0.54608 0.57824 0.3501 0.0
C978 C 0.54921 0.57715 0.37862 0.0
C979 C 0.51818 0.5669 0.30675 0.0
C980 C 0.54138 0.5547 0.29194 0.0
C981 C 0.4921 0.57621 0.29266 0.0
C982 C 0.46789 0.59145 0.30667 0.0
C983 C 0.47414 0.61495 0.32247 0.0
C984 C 0.4513 0.62917 0.33571 0.0
C985 C 0.42207 0.6202 0.33316 0.0
C986 C 0.41561 0.59702 0.31733 0.0
C987 C 0.43837 0.58271 0.30407 0.0
H988 H 0.40441 0.63125 0.34342 0.0
H989 H 0.62887 0.50118 0.21118 0.0
H990 H 0.10872 0.40695 0.70384 0.0
H991 H 0.09148 0.40861 0.75071 0.0
H992 H 0.09487 0.49766 0.74908 0.0
H993 H 0.11112 0.49622 0.70152 0.0
H994 H 0.12208 0.42683 0.79316 0.0
H995 H 0.0441 0.52386 0.79379 0.0
H996 H 1.00784 0.54772 0.76301 0.0
H997 H 0.99211 0.47173 0.72051 0.0
H998 H 0.02793 0.44734 0.75126 0.0
H999 H 0.11385 0.48681 0.92356 0.0
H1000 H 0.11861 0.47722 0.87484 0.0
H1001 H 0.02832 0.44895 0.87132 0.0
H1002 H 0.02308 0.45934 0.92007 0.0
H1003 H 0.0391 0.4836 0.82957 0.0
H1004 H 0.0852 0.40276 0.86852 0.0
H1005 H 0.11927 0.37606 0.8991 0.0
H1006 H 0.19416 0.41369 0.86183 0.0
H1007 H 0.16052 0.44092 0.83127 0.0
C1008 C 0.10492 0.42697 0.71307 0.0
C1009 C 0.11107 0.45151 0.69883 0.0
C1010 C 0.09538 0.42784 0.74001 0.0
C1011 C 0.09183 0.45322 0.75336 0.0
C1012 C 0.09714 0.47784 0.73904 0.0
C1013 C 0.10664 0.47699 0.71197 0.0
C1014 C 0.08486 0.45376 0.78285 0.0
C1015 C 0.10384 0.43914 0.80111 0.0
C1016 C 0.06075 0.46939 0.79314 0.0
C1017 C 0.03892 0.48384 0.7747 0.0
C1018 C 0.03281 0.51222 0.77795 0.0
C1019 C 0.01235 0.52584 0.76049 0.0
C1020 C 0.99775 0.51127 0.73977 0.0
C1021 C 1.00352 0.48302 0.7365 0.0
C1022 C 0.02394 0.4693 0.75392 0.0
C1023 C 0.09499 0.47855 0.91243 0.0
C1024 C 0.06806 0.47389 0.92561 0.0
C1025 C 0.09782 0.47287 0.88465 0.0
C1026 C 0.07388 0.46219 0.86953 0.0
C1027 C 0.04706 0.45714 0.88267 0.0
C1028 C 0.0442 0.46284 0.91053 0.0
C1029 C 0.07675 0.4572 0.83982 0.0
C1030 C 0.05713 0.47107 0.82156 0.0
C1031 C 0.09996 0.44045 0.82945 0.0
C1032 C 0.1203 0.42402 0.84773 0.0
C1033 C 0.10892 0.40549 0.86697 0.0
C1034 C 0.12816 0.39024 0.88428 0.0
C1035 C 0.15885 0.39322 0.88244 0.0
C1036 C 0.17038 0.41141 0.86324 0.0
C1037 C 0.15123 0.42673 0.84589 0.0
H1038 H 0.17371 0.38139 0.89587 0.0
H1039 H 0.98193 0.52186 0.72626 0.0
H1040 H 0.81865 0.90681 0.85489 0.0
H1041 H 0.77581 0.92737 0.8778 0.0
H1042 H 0.8262 0.92897 0.95381 0.0
H1043 H 0.86855 0.90724 0.93113 0.0
H1044 H 0.77456 0.91467 0.96543 0.0
H1045 H 0.81051 0.98886 0.91141 0.0
H1046 H 0.82683 1.01224 0.86948 0.0
H1047 H 0.74064 1.00154 0.83238 0.0
H1048 H 0.72392 0.97776 0.87397 0.0
H1049 H 0.66458 0.0406 0.99024 0.0
H1050 H 0.70869 0.02063 0.96896 0.0
H1051 H 0.67304 0.93902 0.97844 0.0
H1052 H 0.62966 0.95883 1.00098 0.0
H1053 H 0.71905 0.99502 0.9254 0.0
H1054 H 0.72619 0.88997 0.98332 0.0
H1055 H 0.71451 0.87081 0.02867 0.0
H1056 H 0.72292 0.95125 0.06445 0.0
H1057 H 0.73502 0.97081 0.0194 0.0
C1058 C 0.82059 0.9117 0.87646 0.0
C1059 C 0.84702 0.90551 0.89117 0.0
C1060 C 0.79609 0.92358 0.88957 0.0
C1061 C 0.79769 0.93028 0.91758 0.0
C1062 C 0.82417 0.92404 0.93226 0.0
C1063 C 0.84845 0.91166 0.91927 0.0
C1064 C 0.77179 0.94346 0.93166 0.0
C1065 C 0.76249 0.93226 0.95662 0.0
C1066 C 0.75616 0.96683 0.92068 0.0
C1067 C 0.76605 0.9813 0.89571 0.0
C1068 C 0.79509 0.99135 0.89424 0.0
C1069 C 0.80441 1.00469 0.87055 0.0
C1070 C 0.78481 1.00831 0.84825 0.0
C1071 C 0.75581 0.99868 0.84965 0.0
C1072 C 0.74639 0.98529 0.87329 0.0
C1073 C 0.66626 0.01837 0.98797 0.0
C1074 C 0.64369 1.0013 0.99755 0.0
C1075 C 0.69149 1.00694 0.97566 0.0
C1076 C 0.69466 0.97818 0.97231 0.0
C1077 C 0.67175 0.96117 0.98137 0.0
C1078 C 0.6468 0.97255 0.99417 0.0
C1079 C 0.7217 0.96611 0.95909 0.0
C1080 C 0.73115 0.97746 0.93424 0.0
C1081 C 0.73813 0.94351 0.97067 0.0
C1082 C 0.73121 0.93188 0.99792 0.0
C1083 C 0.72566 0.90354 1.00089 0.0
C1084 C 0.71894 0.89261 0.02653 0.0
C1085 C 0.71788 0.90982 0.04941 0.0
C1086 C 0.72364 0.93796 0.0467 0.0
C1087 C 0.7304 0.94899 0.02111 0.0
H1088 H 0.71264 0.90132 0.06924 0.0
H1089 H 0.79207 0.01863 0.82992 0.0
H1090 H 0.78732 0.19321 0.40148 0.0
H1091 H 0.82903 0.1726 0.42722 0.0
H1092 H 0.8022 0.0914 0.40176 0.0
H1093 H 0.75931 0.11175 0.37726 0.0
H1094 H 0.8177 0.08931 0.4532 0.0
H1095 H 0.86283 0.12572 0.37328 0.0
H1096 H 0.87488 0.16095 0.3388 0.0
H1097 H 0.91528 0.21067 0.40131 0.0
H1098 H 0.90312 0.17589 0.43624 0.0
H1099 H 0.956 0.02163 0.48937 0.0
H1100 H 0.91253 0.04099 0.46472 0.0
H1101 H 0.93106 0.12152 0.49766 0.0
H1102 H 0.97451 0.10236 0.52239 0.0
H1103 H 0.92011 0.12309 0.44203 0.0
H1104 H 0.87442 0.08521 0.52181 0.0
H1105 H 0.86314 0.04862 0.55512 0.0
H1106 H 0.82476 0.99982 0.49082 0.0
H1107 H 0.83619 0.03598 0.45704 0.0
C1108 C 0.79 0.17093 0.40153 0.0
C1109 C 0.76975 0.15423 0.38717 0.0
C1110 C 0.81421 0.15916 0.41602 0.0
C1111 C 0.81918 0.1304 0.41617 0.0
C1112 C 0.79901 0.11364 0.40192 0.0
C1113 C 0.77461 0.12538 0.38762 0.0
C1114 C 0.84511 0.11781 0.43151 0.0
C1115 C 0.84014 0.09647 0.45041 0.0
C1116 C 0.87444 0.12736 0.42837 0.0
C1117 C 0.8818 0.14832 0.40741 0.0
C1118 C 0.87408 0.14426 0.3797 0.0
C1119 C 0.88096 0.16414 0.36007 0.0
C1120 C 0.89576 0.18807 0.36787 0.0
C1121 C 0.90378 0.19214 0.39531 0.0
C1122 C 0.89692 0.17235 0.41503 0.0
C1123 C 0.9507 0.04342 0.49157 0.0
C1124 C 0.96877 0.06041 0.50793 0.0
C1125 C 0.92579 0.05445 0.47749 0.0
C1126 C 0.91843 0.08271 0.4794 0.0
C1127 C 0.9363 0.09967 0.49585 0.0
C1128 C 0.96107 0.08863 0.51009 0.0
C1129 C 0.8926 0.09477 0.46369 0.0
C1130 C 0.89764 0.11597 0.44473 0.0
C1131 C 0.86342 0.0849 0.46656 0.0
C1132 C 0.85644 0.06319 0.48686 0.0
C1133 C 0.8638 0.06658 0.51473 0.0
C1134 C 0.85733 0.04593 0.53371 0.0
C1135 C 0.84331 0.02187 0.52508 0.0
C1136 C 0.83566 0.01845 0.49747 0.0
C1137 C 0.8421 0.03902 0.4784 0.0
H1138 H 0.83832 1.00592 0.5398 0.0
H1139 H 0.90108 0.20343 0.35264 0.0
H1140 H 0.36387 0.6452 0.0878 0.0
H1141 H 0.31116 0.63588 0.08041 0.0
H1142 H 0.33323 0.55344 0.05348 0.0
H1143 H 0.38624 0.56252 0.06119 0.0
H1144 H 0.28329 0.58611 0.0227 0.0
H1145 H 0.31811 0.55434 0.11283 0.0
H1146 H 0.34392 0.56111 0.15719 0.0
H1147 H 0.28431 0.62851 0.17539 0.0
H1148 H 0.25848 0.62243 0.13086 0.0
H1149 H 0.14867 0.51744 0.04055 0.0
H1150 H 0.20037 0.53131 0.03982 0.0
H1151 H 0.18045 0.59866 0.09457 0.0
H1152 H 0.12878 0.58392 0.09642 0.0
H1153 H 0.22961 0.57622 0.10993 0.0
H1154 H 0.19201 0.60779 0.02329 0.0
H1155 H 0.16611 0.60468 0.97852 0.0
H1156 H 0.22932 0.54311 0.95274 0.0
H1157 H 0.25537 0.54556 0.99752 0.0
C1158 C 0.35757 0.62535 0.07955 0.0
C1159 C 0.37907 0.60454 0.07503 0.0
C1160 C 0.32749 0.62006 0.07546 0.0
C1161 C 0.31848 0.59399 0.06653 0.0
C1162 C 0.33991 0.57371 0.0603 0.0
C1163 C 0.37005 0.57886 0.06479 0.0
C1164 C 0.28674 0.58704 0.06663 0.0
C1165 C 0.27148 0.58362 0.04168 0.0
C1166 C 0.27138 0.58476 0.09147 0.0
C1167 C 0.2866 0.58813 0.1184 0.0
C1168 C 0.31069 0.57076 0.12618 0.0
C1169 C 0.32529 0.57445 0.15137 0.0
C1170 C 0.31581 0.59528 0.16907 0.0
C1171 C 0.29165 0.61241 0.16164 0.0
C1172 C 0.27702 0.60885 0.13644 0.0
C1173 C 0.15529 0.53523 0.05242 0.0
C1174 C 0.1347 0.54968 0.06848 0.0
C1175 C 0.18483 0.54329 0.05181 0.0
C1176 C 0.19424 0.56644 0.06663 0.0
C1177 C 0.17371 0.5808 0.08287 0.0
C1178 C 0.14422 0.57239 0.08392 0.0
C1179 C 0.2257 0.57502 0.06586 0.0
C1180 C 0.24108 0.57879 0.09079 0.0
C1181 C 0.24098 0.57809 0.04092 0.0
C1182 C 0.2255 0.57669 1.01387 0.0
C1183 C 0.20028 0.59345 1.00815 0.0
C1184 C 0.18558 0.59182 0.98276 0.0
C1185 C 0.19602 0.57366 0.96282 0.0
C1186 C 0.22124 0.55715 0.96821 0.0
C1187 C 0.236 0.55867 0.99358 0.0
H1188 H 0.1846 0.57242 0.94318 0.0
H1189 H 0.32714 0.5981 0.18857 0.0
H1190 H 0.23585 0.44199 0.60399 0.0
H1191 H 0.28224 0.4507 0.58002 0.0
H1192 H 0.3063 0.51055 0.64144 0.0
H1193 H 0.25981 0.50222 0.66503 0.0
H1194 H 0.32159 0.52804 0.59171 0.0
H1195 H 0.33262 0.44432 0.64545 0.0
H1196 H 0.31941 0.39732 0.66006 0.0
H1197 H 0.33242 0.36756 0.5784 0.0
H1198 H 0.34534 0.4145 0.56323 0.0
H1199 H 0.48628 0.48752 0.59283 0.0
H1200 H 0.43518 0.4776 0.60464 0.0
H1201 H 0.40402 0.51417 0.52844 0.0
H1202 H 0.45522 0.52441 0.51647 0.0
H1203 H 0.39082 0.44792 0.58161 0.0
H1204 H 0.33986 0.55119 0.54288 0.0
H1205 H 0.3554 0.59884 0.53306 0.0
H1206 H 0.42611 0.59057 0.59292 0.0
H1207 H 0.41071 0.54307 0.60334 0.0
C1208 C 0.25098 0.45723 0.61205 0.0
C1209 C 0.24462 0.47121 0.63642 0.0
C1210 C 0.2774 0.46214 0.59847 0.0
C1211 C 0.29789 0.48099 0.60919 0.0
C1212 C 0.29082 0.49591 0.63284 0.0
C1213 C 0.26439 0.49106 0.64636 0.0
C1214 C 0.32748 0.48402 0.59691 0.0
C1215 C 0.33661 0.51048 0.58923 0.0
C1216 C 0.34725 0.46117 0.59404 0.0
C1217 C 0.3396 0.43295 0.60315 0.0
C1218 C 0.33244 0.42779 0.63057 0.0
C1219 C 0.32504 0.40116 0.63896 0.0
C1220 C 0.32498 0.37949 0.62015 0.0
C1221 C 0.33241 0.38438 0.59293 0.0
C1222 C 0.33979 0.41098 0.58443 0.0
C1223 C 0.46862 0.49322 0.57841 0.0
C1224 C 0.47477 0.507 0.55382 0.0
C1225 C 0.43943 0.48741 0.58516 0.0
C1226 C 0.41584 0.49541 0.56755 0.0
C1227 C 0.42194 0.5081 0.54243 0.0
C1228 C 0.45119 0.51386 0.53561 0.0
C1229 C 0.3849 0.49191 0.57644 0.0
C1230 C 0.37556 0.46538 0.58353 0.0
C1231 C 0.3652 0.51477 0.57936 0.0
C1232 C 0.37434 0.54348 0.57361 0.0
C1233 C 0.35866 0.5596 0.55399 0.0
C1234 C 0.36744 0.58657 0.54832 0.0
C1235 C 0.39179 0.59768 0.56228 0.0
C1236 C 0.40732 0.5819 0.58204 0.0
C1237 C 0.39859 0.55495 0.58781 0.0
H1238 H 0.39858 0.61855 0.55784 0.0
H1239 H 0.31925 0.35889 0.62668 0.0
H1240 H 0.9156 0.80351 0.93835 0.0
H1241 H 0.93575 0.76588 0.9676 0.0
H1242 H 0.96585 0.72276 0.89591 0.0
H1243 H 0.94561 0.76014 0.8668 0.0
H1244 H 0.93692 0.68863 0.92851 0.0
H1245 H 0.0146 0.75451 0.94066 0.0
H1246 H 0.03582 0.79966 0.95242 0.0
H1247 H 1.00347 0.7924 0.03421 0.0
H1248 H 0.9817 0.74735 0.02282 0.0
H1249 H 0.02783 0.58375 0.98754 0.0
H1250 H 1.00941 0.62458 0.96276 0.0
H1251 H 0.98319 0.66188 0.03878 0.0
H1252 H 1.00221 0.62102 0.06394 0.0
H1253 H 1.008 0.69964 1.00633 0.0
H1254 H 0.9313 0.63309 0.99447 0.0
H1255 H 0.90996 0.58801 0.98244 0.0
H1256 H 0.94026 0.5966 0.90014 0.0
H1257 H 0.96198 0.64162 0.91166 0.0
C1258 C 0.92701 0.7862 0.92897 0.0
C1259 C 0.92932 0.78493 0.90033 0.0
C1260 C 0.93851 0.76468 0.94566 0.0
C1261 C 0.95251 0.74141 0.93404 0.0
C1262 C 0.95517 0.74039 0.90544 0.0
C1263 C 0.94375 0.76188 0.8888 0.0
C1264 C 0.96326 0.71754 0.95138 0.0
C1265 C 0.95274 0.69105 0.94531 0.0
C1266 C 0.9832 0.72063 0.97392 0.0
C1267 C 0.99623 0.74771 0.98079 0.0
C1268 C 0.01178 0.76266 0.96109 0.0
C1269 C 0.02396 0.7882 0.9677 0.0
C1270 C 0.02092 0.79893 0.99402 0.0
C1271 C 1.00576 0.78409 1.01381 0.0
C1272 C 0.99352 0.75854 1.0073 0.0
C1273 C 0.01819 0.6006 0.9991 0.0
C1274 C 0.0164 0.59894 0.02781 0.0
C1275 C 1.0075 0.62397 0.98482 0.0
C1276 C 0.99435 0.64625 0.99875 0.0
C1277 C 0.99309 0.64497 0.02749 0.0
C1278 C 1.00394 0.62155 0.04187 0.0
C1279 C 0.98198 0.67069 0.98317 0.0
C1280 C 0.99208 0.69726 0.9896 0.0
C1281 C 0.96157 0.66772 0.96096 0.0
C1282 C 0.94848 0.64064 0.95399 0.0
C1283 C 0.93359 0.62529 0.97386 0.0
C1284 C 0.9214 0.59976 0.96713 0.0
C1285 C 0.92385 0.58942 0.9406 0.0
C1286 C 0.93841 0.60462 0.92069 0.0
C1287 C 0.95061 0.63017 0.92729 0.0
H1288 H 0.91441 0.56966 0.93545 0.0
H1289 H 0.03037 0.81871 0.99911 0.0
H1290 H 0.42204 0.69007 0.08567 0.0
H1291 H 0.44352 0.73578 0.08189 0.0
H1292 H 0.53152 0.69975 0.0887 0.0
H1293 H 0.51038 0.6535 0.09088 0.0
H1294 H 0.49699 0.75481 0.12704 0.0
H1295 H 0.54258 0.71825 0.04165 0.0
H1296 H 0.53789 0.69235 0.99842 0.0
H1297 H 0.46407 0.74448 0.97327 0.0
H1298 H 0.46814 0.77041 1.01657 0.0
H1299 H 0.56581 0.88495 0.10679 0.0
H1300 H 0.55706 0.83541 0.1104 0.0
H1301 H 0.48901 0.84236 0.04723 0.0
H1302 H 0.49912 0.89117 0.04201 0.0
H1303 H 0.52 0.79888 0.03822 0.0
H1304 H 0.47405 0.83736 0.11814 0.0
H1305 H 0.47199 0.86363 0.16124 0.0
H1306 H 0.53841 0.8094 0.19745 0.0
H1307 H 0.54111 0.78301 0.15443 0.0
C1308 C 0.44598 0.69162 0.08563 0.0
C1309 C 0.46446 0.66796 0.08831 0.0
C1310 C 0.45817 0.71783 0.0838 0.0
C1311 C 0.48899 0.72094 0.08492 0.0
C1312 C 0.50763 0.69758 0.08766 0.0
C1313 C 0.49548 0.67125 0.08908 0.0
C1314 C 0.50129 0.74889 0.08368 0.0
C1315 C 0.50276 0.76441 0.10779 0.0
C1316 C 0.50774 0.76137 0.05843 0.0
C1317 C 0.50544 0.74599 0.0324 0.0
C1318 C 0.52518 0.72397 0.027 0.0
C1319 C 0.52268 0.70935 1.00247 0.0
C1320 C 0.50063 0.71671 0.98314 0.0
C1321 C 0.4811 0.73877 0.98827 0.0
C1322 C 0.4835 0.75344 1.01279 0.0
C1323 C 0.5492 0.8759 0.09345 0.0
C1324 C 0.53304 0.89224 0.07424 0.0
C1325 C 0.54398 0.84759 0.09577 0.0
C1326 C 0.52211 0.83517 0.07931 0.0
C1327 C 0.50599 0.85143 0.06018 0.0
C1328 C 0.5115 0.87954 0.05754 0.0
C1329 C 0.51585 0.80526 0.08172 0.0
C1330 C 0.51512 0.78934 0.05773 0.0
C1331 C 0.50961 0.79257 0.10713 0.0
C1332 C 0.50804 0.80844 0.13297 0.0
C1333 C 0.48838 0.83118 0.13523 0.0
C1334 C 0.48707 0.84606 0.15965 0.0
C1335 C 0.50513 0.83824 0.18204 0.0
C1336 C 0.52448 0.81547 0.18007 0.0
C1337 C 0.5259 0.80054 0.15568 0.0
H1338 H 0.50408 0.84978 0.20093 0.0
H1339 H 0.49874 0.70537 0.96416 0.0
H1340 H 0.07896 0.40799 0.60782 0.0
H1341 H 0.06594 0.36123 0.59351 0.0
H1342 H 0.15762 0.33512 0.60353 0.0
H1343 H 0.17077 0.38187 0.6173 0.0
H1344 H 0.13109 0.30691 0.56281 0.0
H1345 H 0.11122 0.33007 0.65628 0.0
H1346 H 0.08963 0.35826 0.69307 0.0
H1347 H 1.0019 0.34232 0.66176 0.0
H1348 H 0.02304 0.31429 0.62453 0.0
H1349 H 0.11871 0.16778 0.60572 0.0
H1350 H 0.12705 0.21748 0.60739 0.0
H1351 H 0.03619 0.23337 0.58188 0.0
H1352 H 0.02786 0.18367 0.57894 0.0
H1353 H 0.05911 0.2671 0.62719 0.0
H1354 H 0.08239 0.23879 0.53544 0.0
H1355 H 0.10724 0.20952 0.50128 0.0
H1356 H 0.19243 0.23379 0.53285 0.0
H1357 H 0.16808 0.26286 0.56752 0.0
C1358 C 0.09642 0.39244 0.60608 0.0
C1359 C 0.12579 0.39838 0.61388 0.0
C1360 C 0.08898 0.36577 0.59803 0.0
C1361 C 0.11071 0.3446 0.59816 0.0
C1362 C 0.1405 0.35114 0.60341 0.0
C1363 C 0.14801 0.37788 0.61119 0.0
C1364 C 0.10204 0.31529 0.59641 0.0
C1365 C 0.11541 0.29819 0.5769 0.0
C1366 C 0.08153 0.30395 0.61482 0.0
C1367 C 0.06871 0.32035 0.63746 0.0
C1368 C 0.08733 0.33271 0.65715 0.0
C1369 C 0.07518 0.34867 0.67807 0.0
C1370 C 0.04442 0.35218 0.67969 0.0
C1371 C 0.02573 0.33963 0.66044 0.0
C1372 C 0.03778 0.3237 0.63943 0.0
C1373 C 0.10047 0.18178 0.60038 0.0
C1374 C 0.0727 0.17166 0.59189 0.0
C1375 C 0.10527 0.21015 0.60147 0.0
C1376 C 0.08232 0.22893 0.5944 0.0
C1377 C 0.05415 0.21908 0.58734 0.0
C1378 C 0.04941 0.19066 0.58589 0.0
C1379 C 0.08814 0.25883 0.59361 0.0
C1380 C 0.07438 0.27596 0.6128 0.0
C1381 C 0.1087 0.27005 0.57526 0.0
C1382 C 0.1234 0.25282 0.55424 0.0
C1383 C 0.10642 0.23771 0.53525 0.0
C1384 C 0.12042 0.22118 0.51577 0.0
C1385 C 0.15139 0.21975 0.51493 0.0
C1386 C 0.16844 0.2349 0.53354 0.0
C1387 C 0.15455 0.25142 0.5531 0.0
H1388 H 0.16219 0.20694 0.49983 0.0
H1389 H 0.03505 0.36456 0.69589 0.0
H1390 H 0.64506 0.27074 0.37323 0.0
H1391 H 0.63305 0.31525 0.39469 0.0
H1392 H 0.66394 0.28297 0.47283 0.0
H1393 H 0.67575 0.23848 0.4514 0.0
H1394 H 0.61127 0.30913 0.47766 0.0
H1395 H 0.70444 0.32985 0.43753 0.0
H1396 H 0.74082 0.33299 0.40062 0.0
H1397 H 0.682 0.38805 0.35556 0.0
H1398 H 0.64506 0.38494 0.39204 0.0
H1399 H 0.60622 0.43839 0.5476 0.0
H1400 H 0.62316 0.39476 0.52739 0.0
H1401 H 0.59435 0.42392 0.44749 0.0
H1402 H 0.57774 0.46758 0.46741 0.0
H1403 H 0.64769 0.39925 0.44464 0.0
H1404 H 0.55386 0.37713 0.48357 0.0
H1405 H 0.51715 0.37407 0.52021 0.0
H1406 H 0.57698 0.32162 0.5672 0.0
H1407 H 0.61423 0.32468 0.53096 0.0
C1408 C 0.64949 0.27332 0.39493 0.0
C1409 C 0.66124 0.25119 0.41066 0.0
C1410 C 0.64271 0.29874 0.40719 0.0
C1411 C 0.6477 0.30259 0.43542 0.0
C1412 C 0.65981 0.28054 0.45106 0.0
C1413 C 0.66665 0.25516 0.43879 0.0
C1414 C 0.63939 0.32924 0.4488 0.0
C1415 C 0.61963 0.32879 0.4707 0.0
C1416 C 0.64969 0.35503 0.43939 0.0
C1417 C 0.67185 0.35694 0.41741 0.0
C1418 C 0.69915 0.34244 0.41965 0.0
C1419 C 0.71989 0.34425 0.39882 0.0
C1420 C 0.71369 0.36065 0.37573 0.0
C1421 C 0.68675 0.37532 0.37344 0.0
C1422 C 0.66591 0.37356 0.3942 0.0
C1423 C 0.60344 0.4355 0.52574 0.0
C1424 C 0.59049 0.45651 0.50919 0.0
C1425 C 0.61308 0.41049 0.5142 0.0
C1426 C 0.60983 0.40587 0.48589 0.0
C1427 C 0.59716 0.42693 0.46935 0.0
C1428 C 0.58754 0.45189 0.48084 0.0
C1429 C 0.61948 0.37914 0.47342 0.0
C1430 C 0.63945 0.37957 0.45168 0.0
C1431 C 0.60933 0.35333 0.48292 0.0
C1432 C 0.58694 0.35138 0.50469 0.0
C1433 C 0.55927 0.36512 0.50181 0.0
C1434 C 0.53836 0.36336 0.52249 0.0
C1435 C 0.54476 0.34773 0.54605 0.0
C1436 C 0.57207 0.33376 0.54895 0.0
C1437 C 0.59308 0.33549 0.52834 0.0
H1438 H 0.52853 0.34638 0.56204 0.0
H1439 H 0.72979 0.36203 0.35963 0.0
loop_
_geom_bond_atom_site_label_1
_geom_bond_atom_site_label_2
_geom_bond_distance
_geom_bond_site_symmetry_2
_ccdc_geom_bond_type
H0 C7 0.929 . S
H1 C10 0.930 . S
H2 C12 0.929 . S
H3 C4 0.969 . S
C4 H3 0.969 . S
C4 O5 1.550 . S
C4 H6 0.973 . S
O5 C4 1.550 . S
O5 C11 1.412 . S
H6 C4 0.973 . S
C7 H0 0.929 . S
C7 C8 1.400 . S
C7 C9 1.364 . S
C8 C7 1.400 . S
C8 C12 1.377 . S
C9 C7 1.364 . S
C9 C10 1.374 . S
C10 H1 0.930 . S
C10 C9 1.374 . S
C10 C11 1.383 . S
C11 O5 1.412 . S
C11 C10 1.383 . S
C11 C12 1.394 . S
C12 H2 0.929 . S
C12 C8 1.377 . S
C12 C11 1.394 . S
H13 C20 0.929 . S
H14 C23 0.930 . S
H15 C25 0.929 . S
H16 C17 0.969 . S
C17 H16 0.969 . S
C17 O18 1.550 . S
C17 H19 0.973 . S
O18 C17 1.550 . S
O18 C24 1.412 . S
H19 C17 0.973 . S
C20 H13 0.929 . S
C20 C21 1.400 . S
C20 C22 1.364 . S
C21 C20 1.400 . S
C21 C25 1.377 . S
C22 C20 1.364 . S
C22 C23 1.374 . S
C23 H14 0.930 . S
C23 C22 1.374 . S
C23 C24 1.383 . S
C24 O18 1.412 . S
C24 C23 1.383 . S
C24 C25 1.394 . S
C25 H15 0.929 . S
C25 C21 1.377 . S
C25 C24 1.394 . S
H26 C33 0.929 . S
H27 C36 0.930 . S
H28 C38 0.929 . S
H29 C30 0.969 . S
C30 H29 0.969 . S
C30 O31 1.550 . S
C30 H32 0.973 . S
O31 C30 1.550 . S
O31 C37 1.412 . S
H32 C30 0.973 . S
C33 H26 0.929 . S
C33 C34 1.400 . S
C33 C35 1.364 . S
C34 C33 1.400 . S
C34 C38 1.377 . S
C35 C33 1.364 . S
C35 C36 1.374 . S
C36 H27 0.930 . S
C36 C35 1.374 . S
C36 C37 1.383 . S
C37 O31 1.412 . S
C37 C36 1.383 . S
C37 C38 1.394 . S
C38 H28 0.929 . S
C38 C34 1.377 . S
C38 C37 1.394 . S
H39 C46 0.929 . S
H40 C49 0.930 . S
H41 C51 0.929 . S
H42 C43 0.969 . S
C43 H42 0.969 . S
C43 O44 1.550 . S
C43 H45 0.973 . S
O44 C43 1.550 . S
O44 C50 1.412 . S
H45 C43 0.973 . S
C46 H39 0.929 . S
C46 C47 1.400 . S
C46 C48 1.364 . S
C47 C46 1.400 . S
C47 C51 1.377 . S
C48 C46 1.364 . S
C48 C49 1.374 . S
C49 H40 0.930 . S
C49 C48 1.374 . S
C49 C50 1.383 . S
C50 O44 1.412 . S
C50 C49 1.383 . S
C50 C51 1.394 . S
C51 H41 0.929 . S
C51 C47 1.377 . S
C51 C50 1.394 . S
H52 C59 0.929 . S
H53 C62 0.930 . S
H54 C64 0.929 . S
H55 C56 0.969 . S
C56 H55 0.969 . S
C56 O57 1.550 . S
C56 H58 0.973 . S
O57 C56 1.550 . S
O57 C63 1.412 . S
H58 C56 0.973 . S
C59 H52 0.929 . S
C59 C60 1.400 . S
C59 C61 1.364 . S
C60 C59 1.400 . S
C60 C64 1.377 . S
C61 C59 1.364 . S
C61 C62 1.374 . S
C62 H53 0.930 . S
C62 C61 1.374 . S
C62 C63 1.383 . S
C63 O57 1.412 . S
C63 C62 1.383 . S
C63 C64 1.394 . S
C64 H54 0.929 . S
C64 C60 1.377 . S
C64 C63 1.394 . S
H65 C72 0.929 . S
H66 C75 0.930 . S
H67 C77 0.929 . S
H68 C69 0.969 . S
C69 H68 0.969 . S
C69 O70 1.550 . S
C69 H71 0.973 . S
O70 C69 1.550 . S
O70 C76 1.412 . S
H71 C69 0.973 . S
C72 H65 0.929 . S
C72 C73 1.400 . S
C72 C74 1.364 . S
C73 C72 1.400 . S
C73 C77 1.377 . S
C74 C72 1.364 . S
C74 C75 1.374 . S
C75 H66 0.930 . S
C75 C74 1.374 . S
C75 C76 1.383 . S
C76 O70 1.412 . S
C76 C75 1.383 . S
C76 C77 1.394 . S
C77 H67 0.929 . S
C77 C73 1.377 . S
C77 C76 1.394 . S
H78 C85 0.929 . S
H79 C88 0.930 . S
H80 C90 0.929 . S
H81 C82 0.969 . S
C82 H81 0.969 . S
C82 O83 1.550 . S
C82 H84 0.973 . S
O83 C82 1.550 . S
O83 C89 1.412 . S
H84 C82 0.973 . S
C85 H78 0.929 . S
C85 C86 1.400 . S
C85 C87 1.364 . S
C86 C85 1.400 . S
C86 C90 1.377 . S
C87 C85 1.364 . S
C87 C88 1.374 . S
C88 H79 0.930 . S
C88 C87 1.374 . S
C88 C89 1.383 . S
C89 O83 1.412 . S
C89 C88 1.383 . S
C89 C90 1.394 . S
C90 H80 0.929 . S
C90 C86 1.377 . S
C90 C89 1.394 . S
H91 C98 0.929 . S
H92 C101 0.930 . S
H93 C103 0.929 . S
H94 C95 0.969 . S
C95 H94 0.969 . S
C95 O96 1.550 . S
C95 H97 0.973 . S
O96 C95 1.550 . S
O96 C102 1.412 . S
H97 C95 0.973 . S
C98 H91 0.929 . S
C98 C99 1.400 . S
C98 C100 1.364 . S
C99 C98 1.400 . S
C99 C103 1.377 . S
C100 C98 1.364 . S
C100 C101 1.374 . S
C101 H92 0.930 . S
C101 C100 1.374 . S
C101 C102 1.383 . S
C102 O96 1.412 . S
C102 C101 1.383 . S
C102 C103 1.394 . S
C103 H93 0.929 . S
C103 C99 1.377 . S
C103 C102 1.394 . S
C104 O120 1.251 . S
C104 O122 1.254 . S
N105 C106 1.333 . S
N105 C110 1.307 . S
N105 Zn111 2.020 . S
C106 N105 1.333 . S
C106 C107 1.379 . S
C106 H124 0.952 . S
C107 C106 1.379 . S
C107 C108 1.390 . S
C107 H134 0.949 . S
C108 C107 1.390 . S
C108 C109 1.357 . S
C109 C108 1.357 . S
C109 C110 1.370 . S
C109 H135 0.950 . S
C110 N105 1.307 . S
C110 C109 1.370 . S
C110 H128 0.948 . S
Zn111 N105 2.020 . S
Zn111 O120 2.039 . S
Zn111 O126 2.034 . S
Zn111 O130 2.025 . S
Zn111 O132 2.024 1_455 S
C112 O131 1.246 . S
C112 O132 1.249 . S
N113 C114 1.307 1_655 S
N113 C115 1.333 . S
N113 Zn119 2.020 1_655 S
C114 N113 1.307 1_455 S
C114 C118 1.370 . S
C114 H125 0.948 . S
C115 N113 1.333 . S
C115 C116 1.379 . S
C115 H123 0.952 . S
C116 C115 1.379 . S
C116 C117 1.390 . S
C116 H136 0.949 . S
C117 C116 1.390 . S
C117 C118 1.357 1_655 S
C118 C114 1.370 . S
C118 C117 1.357 1_455 S
C118 H137 0.950 . S
Zn119 N113 2.020 1_455 S
Zn119 O122 2.025 1_565 S
Zn119 O127 2.024 . S
Zn119 O129 2.039 . S
Zn119 O131 2.034 1_465 S
O120 C104 1.251 . S
O120 Zn111 2.039 . S
C121 O126 1.246 . S
C121 O127 1.249 1_545 S
O122 C104 1.254 . S
O122 Zn119 2.025 1_545 S
H123 C115 0.952 . S
H124 C106 0.952 . S
H125 C114 0.948 . S
O126 Zn111 2.034 . S
O126 C121 1.246 . S
O127 Zn119 2.024 . S
O127 C121 1.249 1_565 S
H128 C110 0.948 . S
O129 Zn119 2.039 . S
O129 C133 1.251 1_565 S
O130 Zn111 2.025 . S
O130 C133 1.254 . S
O131 C112 1.246 . S
O131 Zn119 2.034 1_645 S
O132 Zn111 2.024 1_655 S
O132 C112 1.249 . S
C133 O129 1.251 1_545 S
C133 O130 1.254 . S
H134 C107 0.949 . S
H135 C109 0.950 . S
H136 C116 0.949 . S
H137 C118 0.950 . S
C138 O154 1.290 . S
C138 O156 1.227 1_545 S
N139 C140 1.332 . S
N139 C144 1.309 . S
N139 Zn145 2.018 1_556 S
C140 N139 1.332 . S
C140 C141 1.386 . S
C140 H158 0.946 1_556 S
C141 C140 1.386 . S
C141 C142 1.390 . S
C141 H168 0.949 . S
C142 C141 1.390 . S
C142 C143 1.357 . S
C143 C142 1.357 . S
C143 C144 1.370 . S
C143 H169 0.950 . S
C144 N139 1.309 . S
C144 C143 1.370 . S
C144 H162 0.948 . S
Zn145 N139 2.018 1_554 S
Zn145 O154 2.039 . S
Zn145 O160 2.034 . S
Zn145 O164 2.025 . S
Zn145 O166 2.024 1_554 S
C146 O165 1.246 1_545 S
C146 O166 1.249 . S
N147 C148 1.307 . S
N147 C149 1.333 . S
N147 Zn153 2.020 . S
C148 N147 1.307 . S
C148 C152 1.370 . S
C148 H159 0.948 . S
C149 N147 1.333 . S
C149 C150 1.379 . S
C149 H157 0.952 . S
C150 C149 1.379 . S
C150 C151 1.390 . S
C150 H170 0.949 . S
C151 C150 1.390 . S
C151 C152 1.357 . S
C152 C148 1.370 . S
C152 C151 1.357 . S
C152 H171 0.950 . S
Zn153 N147 2.020 . S
Zn153 O156 2.025 . S
Zn153 O161 2.024 1_565 S
Zn153 O163 2.039 1_565 S
Zn153 O165 2.034 1_554 S
O154 C138 1.290 . S
O154 Zn145 2.039 . S
C155 O160 1.246 . S
C155 O161 1.249 . S
O156 C138 1.227 1_565 S
O156 Zn153 2.025 . S
H157 C149 0.952 . S
H158 C140 0.946 1_554 S
H159 C148 0.948 . S
O160 Zn145 2.034 . S
O160 C155 1.246 . S
O161 Zn153 2.024 1_545 S
O161 C155 1.249 . S
H162 C144 0.948 . S
O163 Zn153 2.039 1_545 S
O163 C167 1.251 . S
O164 Zn145 2.025 . S
O164 C167 1.254 . S
O165 C146 1.246 1_565 S
O165 Zn153 2.034 1_556 S
O166 Zn145 2.024 1_556 S
O166 C146 1.249 . S
C167 O163 1.251 . S
C167 O164 1.254 . S
H168 C141 0.949 . S
H169 C143 0.950 . S
H170 C150 0.949 . S
H171 C152 0.950 . S
C172 O188 1.251 . S
C172 O190 1.254 . S
N173 C174 1.333 . S
N173 C178 1.307 . S
N173 Zn179 2.020 . S
C174 N173 1.333 . S
C174 C175 1.379 . S
C174 H192 0.952 . S
C175 C174 1.379 . S
C175 C176 1.390 . S
C175 H202 0.949 . S
C176 C175 1.390 . S
C176 C177 1.357 . S
C177 C176 1.357 . S
C177 C178 1.370 . S
C177 H203 0.950 . S
C178 N173 1.307 . S
C178 C177 1.370 . S
C178 H196 0.948 . S
Zn179 N173 2.020 . S
Zn179 O188 2.039 . S
Zn179 O194 2.034 . S
Zn179 O198 2.025 . S
Zn179 O200 2.024 . S
C180 O199 1.246 . S
C180 O200 1.249 . S
N181 C182 1.307 . S
N181 C183 1.333 . S
N181 Zn187 2.020 . S
C182 N181 1.307 . S
C182 C186 1.370 . S
C182 H193 0.948 . S
C183 N181 1.333 . S
C183 C184 1.379 . S
C183 H191 0.952 . S
C184 C183 1.379 . S
C184 C185 1.390 . S
C184 H204 0.949 . S
C185 C184 1.390 . S
C185 C186 1.357 . S
C186 C182 1.370 . S
C186 C185 1.357 . S
C186 H205 0.950 . S
Zn187 N181 2.020 . S
Zn187 O190 2.025 . S
Zn187 O195 2.024 . S
Zn187 O197 2.039 . S
Zn187 O199 2.034 . S
O188 C172 1.251 . S
O188 Zn179 2.039 . S
C189 O194 1.246 . S
C189 O195 1.249 . S
O190 C172 1.254 . S
O190 Zn187 2.025 . S
H191 C183 0.952 . S
H192 C174 0.952 . S
H193 C182 0.948 . S
O194 Zn179 2.034 . S
O194 C189 1.246 . S
O195 Zn187 2.024 . S
O195 C189 1.249 . S
H196 C178 0.948 . S
O197 Zn187 2.039 . S
O197 C201 1.251 . S
O198 Zn179 2.025 . S
O198 C201 1.254 . S
O199 C180 1.246 . S
O199 Zn187 2.034 . S
O200 Zn179 2.024 . S
O200 C180 1.249 . S
C201 O197 1.251 . S
C201 O198 1.254 . S
H202 C175 0.949 . S
H203 C177 0.950 . S
H204 C184 0.949 . S
H205 C186 0.950 . S
C206 O222 1.251 . S
C206 O224 1.254 1_554 S
N207 C208 1.333 . S
N207 C212 1.307 . S
N207 Zn213 2.020 . S
C208 N207 1.333 . S
C208 C209 1.379 . S
C208 H226 0.952 . S
C209 C208 1.379 . S
C209 C210 1.398 . S
C209 H236 0.949 . S
C210 C209 1.398 . S
C210 C211 1.356 1_455 S
C211 C210 1.356 1_655 S
C211 C212 1.370 1_655 S
C211 H237 0.950 . S
C212 N207 1.307 . S
C212 C211 1.370 1_455 S
C212 H230 0.948 . S
Zn213 N207 2.020 . S
Zn213 O222 2.039 . S
Zn213 O228 2.034 . S
Zn213 O232 2.025 . S
Zn213 O234 2.024 1_455 S
C214 O233 1.246 1_654 S
C214 O234 1.249 . S
N215 C216 1.307 . S
N215 C217 1.333 . S
N215 Zn221 2.020 1_556 S
C216 N215 1.307 . S
C216 C220 1.370 . S
C216 H227 0.948 . S
C217 N215 1.333 . S
C217 C218 1.379 . S
C217 H225 0.952 . S
C218 C217 1.379 . S
C218 C219 1.390 . S
C218 H238 0.949 . S
C219 C218 1.390 . S
C219 C220 1.357 . S
C220 C216 1.370 . S
C220 C219 1.357 . S
C220 H239 0.950 . S
Zn221 N215 2.020 1_554 S
Zn221 O224 2.025 1_554 S
Zn221 O229 2.024 . S
Zn221 O231 2.039 . S
Zn221 O233 2.034 1_554 S
O222 C206 1.251 . S
O222 Zn213 2.039 . S
C223 O228 1.246 . S
C223 O229 1.249 . S
O224 C206 1.254 1_556 S
O224 Zn221 2.025 1_556 S
H225 C217 0.952 . S
H226 C208 0.952 . S
H227 C216 0.948 . S
O228 Zn213 2.034 . S
O228 C223 1.246 . S
O229 Zn221 2.024 . S
O229 C223 1.249 . S
H230 C212 0.948 . S
O231 Zn221 2.039 . S
O231 C235 1.251 . S
O232 Zn213 2.025 . S
O232 C235 1.254 . S
O233 C214 1.246 1_456 S
O233 Zn221 2.034 1_556 S
O234 Zn213 2.024 1_655 S
O234 C214 1.249 . S
C235 O231 1.251 . S
C235 O232 1.254 . S
H236 C209 0.949 . S
H237 C211 0.950 . S
H238 C218 0.949 . S
H239 C220 0.950 . S
H240 C258 0.951 . S
H241 C260 0.951 . S
H242 C262 0.950 . S
H243 C263 0.950 . S
H244 C265 0.950 . S
H245 C268 0.950 . S
H246 C269 0.950 . S
H247 C271 0.950 . S
H248 C272 0.950 . S
H249 C273 0.951 . S
H250 C275 0.951 . S
H251 C277 0.950 . S
H252 C278 0.950 . S
H253 C280 0.950 . S
H254 C283 0.950 . S
H255 C284 0.950 . S
H256 C286 0.950 1_665 S
H257 C287 0.950 . S
C258 H240 0.951 . S
C258 C259 1.366 . S
C258 C260 1.388 . S
C259 C258 1.366 . S
C259 C263 1.385 . S
C260 H241 0.951 . S
C260 C258 1.388 . S
C260 C261 1.366 . S
C261 C260 1.366 . S
C261 C262 1.414 . S
C261 C264 1.499 . S
C262 H242 0.950 . S
C262 C261 1.414 . S
C262 C263 1.374 . S
C263 H243 0.950 . S
C263 C259 1.385 . S
C263 C262 1.374 . S
C264 C261 1.499 . S
C264 C265 1.373 . S
C264 C266 1.389 . S
C265 H244 0.950 . S
C265 C264 1.373 . S
C265 C281 1.377 . S
C266 C264 1.389 . S
C266 C267 1.524 . S
C266 C280 1.377 . S
C267 C266 1.524 . S
C267 C268 1.397 . S
C267 C272 1.363 . S
C268 H245 0.950 . S
C268 C267 1.397 . S
C268 C269 1.334 . S
C269 H246 0.950 . S
C269 C268 1.334 . S
C269 C270 1.287 . S
C270 C269 1.287 . S
C270 C271 1.524 . S
C270 H289 0.913 . S
C271 H247 0.950 . S
C271 C270 1.524 . S
C271 C272 1.415 . S
C272 H248 0.950 . S
C272 C267 1.363 . S
C272 C271 1.415 . S
C273 H249 0.951 . S
C273 C274 1.366 . S
C273 C275 1.388 . S
C274 C273 1.366 . S
C274 C278 1.385 . S
C275 H250 0.951 . S
C275 C273 1.388 . S
C275 C276 1.366 . S
C276 C275 1.366 . S
C276 C277 1.414 . S
C276 C279 1.499 . S
C277 H251 0.950 . S
C277 C276 1.414 . S
C277 C278 1.374 . S
C278 H252 0.950 . S
C278 C274 1.385 . S
C278 C277 1.374 . S
C279 C276 1.499 . S
C279 C280 1.373 . S
C279 C281 1.389 . S
C280 H253 0.950 . S
C280 C266 1.377 . S
C280 C279 1.373 . S
C281 C265 1.377 . S
C281 C279 1.389 . S
C281 C282 1.524 . S
C282 C281 1.524 . S
C282 C283 1.397 . S
C282 C287 1.363 . S
C283 H254 0.950 . S
C283 C282 1.397 . S
C283 C284 1.334 1_455 S
C284 H255 0.950 . S
C284 C283 1.334 1_655 S
C284 C285 1.287 . S
C285 C284 1.287 . S
C285 C286 1.524 1_655 S
C285 H288 0.999 . S
C286 H256 0.950 1_445 S
C286 C285 1.524 1_455 S
C286 C287 1.415 . S
C287 H257 0.950 . S
C287 C282 1.363 . S
C287 C286 1.415 . S
H288 C285 0.999 . S
H289 C270 0.913 . S
H290 C308 0.951 . S
H291 C310 0.951 . S
H292 C312 0.950 . S
H293 C313 0.950 . S
H294 C315 0.950 . S
H295 C318 0.950 . S
H296 C319 0.950 1_545 S
H297 C321 0.950 . S
H298 C322 0.950 . S
H299 C323 0.951 . S
H300 C325 0.951 1_545 S
H301 C327 0.950 . S
H302 C328 0.950 . S
H303 C330 0.950 . S
H304 C333 0.950 . S
H305 C334 0.950 . S
H306 C336 0.950 . S
H307 C337 0.950 . S
C308 H290 0.951 . S
C308 C309 1.366 . S
C308 C310 1.388 . S
C309 C308 1.366 . S
C309 C313 1.385 . S
C310 H291 0.951 . S
C310 C308 1.388 . S
C310 C311 1.366 . S
C311 C310 1.366 . S
C311 C312 1.414 . S
C311 C314 1.499 . S
C312 H292 0.950 . S
C312 C311 1.414 . S
C312 C313 1.374 . S
C313 H293 0.950 . S
C313 C309 1.385 . S
C313 C312 1.374 . S
C314 C311 1.499 . S
C314 C315 1.373 . S
C314 C316 1.389 . S
C315 H294 0.950 . S
C315 C314 1.373 . S
C315 C331 1.377 . S
C316 C314 1.389 . S
C316 C317 1.524 . S
C316 C330 1.377 . S
C317 C316 1.524 . S
C317 C318 1.397 . S
C317 C322 1.363 . S
C318 H295 0.950 . S
C318 C317 1.397 . S
C318 C319 1.334 . S
C319 H296 0.950 1_565 S
C319 C318 1.334 . S
C319 C320 1.287 . S
C320 C319 1.287 . S
C320 C321 1.524 . S
C320 H339 0.913 . S
C321 H297 0.950 . S
C321 C320 1.524 . S
C321 C322 1.415 . S
C322 H298 0.950 . S
C322 C317 1.363 . S
C322 C321 1.415 . S
C323 H299 0.951 . S
C323 C324 1.366 1_545 S
C323 C325 1.388 1_545 S
C324 C323 1.366 1_565 S
C324 C328 1.385 . S
C325 H300 0.951 1_565 S
C325 C323 1.388 1_565 S
C325 C326 1.366 . S
C326 C325 1.366 . S
C326 C327 1.414 . S
C326 C329 1.499 . S
C327 H301 0.950 . S
C327 C326 1.414 . S
C327 C328 1.374 . S
C328 H302 0.950 . S
C328 C324 1.385 . S
C328 C327 1.374 . S
C329 C326 1.499 . S
C329 C330 1.373 . S
C329 C331 1.389 . S
C330 H303 0.950 . S
C330 C316 1.377 . S
C330 C329 1.373 . S
C331 C315 1.377 . S
C331 C329 1.389 . S
C331 C332 1.524 . S
C332 C331 1.524 . S
C332 C333 1.397 . S
C332 C337 1.363 . S
C333 H304 0.950 . S
C333 C332 1.397 . S
C333 C334 1.334 . S
C334 H305 0.950 . S
C334 C333 1.334 . S
C334 C335 1.287 . S
C335 C334 1.287 . S
C335 C336 1.524 . S
C335 H338 0.999 . S
C336 H306 0.950 . S
C336 C335 1.524 . S
C336 C337 1.415 . S
C337 H307 0.950 . S
C337 C332 1.363 . S
C337 C336 1.415 . S
H338 C335 0.999 . S
H339 C320 0.913 . S
H340 C358 0.951 . S
H341 C360 0.951 . S
H342 C362 0.950 . S
H343 C363 0.950 . S
H344 C365 0.950 . S
H345 C368 0.950 . S
H346 C369 0.950 . S
H347 C371 0.950 . S
H348 C372 0.950 . S
H349 C373 0.951 . S
H350 C375 0.951 . S
H351 C377 0.950 . S
H352 C378 0.950 . S
H353 C380 0.950 . S
H354 C383 0.950 . S
H355 C384 0.950 . S
H356 C386 0.950 . S
H357 C387 0.950 . S
C358 H340 0.951 . S
C358 C359 1.366 . S
C358 C360 1.388 . S
C359 C358 1.366 . S
C359 C363 1.385 . S
C360 H341 0.951 . S
C360 C358 1.388 . S
C360 C361 1.366 . S
C361 C360 1.366 . S
C361 C362 1.414 . S
C361 C364 1.499 . S
C362 H342 0.950 . S
C362 C361 1.414 . S
C362 C363 1.374 . S
C363 H343 0.950 . S
C363 C359 1.385 . S
C363 C362 1.374 . S
C364 C361 1.499 . S
C364 C365 1.373 . S
C364 C366 1.389 . S
C365 H344 0.950 . S
C365 C364 1.373 . S
C365 C381 1.377 . S
C366 C364 1.389 . S
C366 C367 1.524 . S
C366 C380 1.377 . S
C367 C366 1.524 . S
C367 C368 1.397 . S
C367 C372 1.363 . S
C368 H345 0.950 . S
C368 C367 1.397 . S
C368 C369 1.334 . S
C369 H346 0.950 . S
C369 C368 1.334 . S
C369 C370 1.287 . S
C370 C369 1.287 . S
C370 C371 1.524 . S
C370 H389 0.913 . S
C371 H347 0.950 . S
C371 C370 1.524 . S
C371 C372 1.415 . S
C372 H348 0.950 . S
C372 C367 1.363 . S
C372 C371 1.415 . S
C373 H349 0.951 . S
C373 C374 1.366 . S
C373 C375 1.388 . S
C374 C373 1.366 . S
C374 C378 1.385 . S
C375 H350 0.951 . S
C375 C373 1.388 . S
C375 C376 1.366 . S
C376 C375 1.366 . S
C376 C377 1.414 . S
C376 C379 1.499 . S
C377 H351 0.950 . S
C377 C376 1.414 . S
C377 C378 1.374 . S
C378 H352 0.950 . S
C378 C374 1.385 . S
C378 C377 1.374 . S
C379 C376 1.499 . S
C379 C380 1.373 . S
C379 C381 1.389 . S
C380 H353 0.950 . S
C380 C366 1.377 . S
C380 C379 1.373 . S
C381 C365 1.377 . S
C381 C379 1.389 . S
C381 C382 1.524 . S
C382 C381 1.524 . S
C382 C383 1.397 . S
C382 C387 1.363 . S
C383 H354 0.950 . S
C383 C382 1.397 . S
C383 C384 1.334 . S
C384 H355 0.950 . S
C384 C383 1.334 . S
C384 C385 1.287 . S
C385 C384 1.287 . S
C385 C386 1.524 . S
C385 H388 0.999 . S
C386 H356 0.950 . S
C386 C385 1.524 . S
C386 C387 1.415 . S
C387 H357 0.950 . S
C387 C382 1.363 . S
C387 C386 1.415 . S
H388 C385 0.999 . S
H389 C370 0.913 . S
H390 C408 0.951 . S
H391 C410 0.951 . S
H392 C412 0.950 . S
H393 C413 0.950 . S
H394 C415 0.950 . S
H395 C418 0.950 . S
H396 C419 0.950 . S
H397 C421 0.950 . S
H398 C422 0.950 . S
H399 C423 0.951 . S
H400 C425 0.951 . S
H401 C427 0.950 1_455 S
H402 C428 0.950 . S
H403 C430 0.950 . S
H404 C433 0.950 . S
H405 C434 0.950 . S
H406 C436 0.940 1_655 S
H407 C437 0.950 . S
C408 H390 0.951 . S
C408 C409 1.366 . S
C408 C410 1.388 . S
C409 C408 1.366 . S
C409 C413 1.385 . S
C410 H391 0.951 . S
C410 C408 1.388 . S
C410 C411 1.366 . S
C411 C410 1.366 . S
C411 C412 1.414 . S
C411 C414 1.499 . S
C412 H392 0.950 . S
C412 C411 1.414 . S
C412 C413 1.374 . S
C413 H393 0.950 . S
C413 C409 1.385 . S
C413 C412 1.374 . S
C414 C411 1.499 . S
C414 C415 1.373 . S
C414 C416 1.389 . S
C415 H394 0.950 . S
C415 C414 1.373 . S
C415 C431 1.377 . S
C416 C414 1.389 . S
C416 C417 1.524 . S
C416 C430 1.377 . S
C417 C416 1.524 . S
C417 C418 1.397 . S
C417 C422 1.363 . S
C418 H395 0.950 . S
C418 C417 1.397 . S
C418 C419 1.334 . S
C419 H396 0.950 . S
C419 C418 1.334 . S
C419 C420 1.287 . S
C420 C419 1.287 . S
C420 C421 1.524 . S
C420 H439 0.913 . S
C421 H397 0.950 . S
C421 C420 1.524 . S
C421 C422 1.415 . S
C422 H398 0.950 . S
C422 C417 1.363 . S
C422 C421 1.415 . S
C423 H399 0.951 . S
C423 C424 1.366 . S
C423 C425 1.388 . S
C424 C423 1.366 . S
C424 C428 1.385 1_655 S
C425 H400 0.951 . S
C425 C423 1.388 . S
C425 C426 1.366 . S
C426 C425 1.366 . S
C426 C427 1.414 . S
C426 C429 1.499 . S
C427 H401 0.950 1_655 S
C427 C426 1.414 . S
C427 C428 1.374 1_655 S
C428 H402 0.950 . S
C428 C424 1.385 1_455 S
C428 C427 1.374 1_455 S
C429 C426 1.499 . S
C429 C430 1.373 . S
C429 C431 1.389 . S
C430 H403 0.950 . S
C430 C416 1.377 . S
C430 C429 1.373 . S
C431 C415 1.377 . S
C431 C429 1.389 . S
C431 C432 1.524 . S
C432 C431 1.524 . S
C432 C433 1.397 1_655 S
C432 C437 1.363 . S
C433 H404 0.950 . S
C433 C432 1.397 1_455 S
C433 C434 1.334 . S
C434 H405 0.950 . S
C434 C433 1.334 . S
C434 C435 1.287 . S
C435 C434 1.287 . S
C435 C436 1.555 . S
C435 H438 0.999 . S
C436 H406 0.940 1_455 S
C436 C435 1.555 . S
C436 C437 1.395 1_455 S
C437 H407 0.950 . S
C437 C432 1.363 . S
C437 C436 1.395 1_655 S
H438 C435 0.999 . S
H439 C420 0.913 . S
H440 C458 0.951 . S
H441 C460 0.951 . S
H442 C462 0.950 . S
H443 C463 0.950 . S
H444 C465 0.950 . S
H445 C468 0.950 . S
H446 C469 0.950 . S
H447 C471 0.950 . S
H448 C472 0.950 . S
H449 C473 0.951 . S
H450 C475 0.951 . S
H451 C477 0.950 . S
H452 C478 0.950 . S
H453 C480 0.950 . S
H454 C483 0.950 . S
H455 C484 0.950 . S
H456 C486 0.950 . S
H457 C487 0.950 . S
C458 H440 0.951 . S
C458 C459 1.366 . S
C458 C460 1.388 . S
C459 C458 1.366 . S
C459 C463 1.385 . S
C460 H441 0.951 . S
C460 C458 1.388 . S
C460 C461 1.366 . S
C461 C460 1.366 . S
C461 C462 1.414 . S
C461 C464 1.499 . S
C462 H442 0.950 . S
C462 C461 1.414 . S
C462 C463 1.374 . S
C463 H443 0.950 . S
C463 C459 1.385 . S
C463 C462 1.374 . S
C464 C461 1.499 . S
C464 C465 1.373 . S
C464 C466 1.389 . S
C465 H444 0.950 . S
C465 C464 1.373 . S
C465 C481 1.377 . S
C466 C464 1.389 . S
C466 C467 1.524 . S
C466 C480 1.377 . S
C467 C466 1.524 . S
C467 C468 1.397 . S
C467 C472 1.363 . S
C468 H445 0.950 . S
C468 C467 1.397 . S
C468 C469 1.334 1_545 S
C469 H446 0.950 . S
C469 C468 1.334 1_565 S
C469 C470 1.287 . S
C470 C469 1.287 . S
C470 C471 1.524 . S
C470 H489 0.913 . S
C471 H447 0.950 . S
C471 C470 1.524 . S
C471 C472 1.415 1_565 S
C472 H448 0.950 . S
C472 C467 1.363 . S
C472 C471 1.415 1_545 S
C473 H449 0.951 . S
C473 C474 1.366 . S
C473 C475 1.388 . S
C474 C473 1.366 . S
C474 C478 1.385 . S
C475 H450 0.951 . S
C475 C473 1.388 . S
C475 C476 1.366 . S
C476 C475 1.366 . S
C476 C477 1.414 . S
C476 C479 1.499 . S
C477 H451 0.950 . S
C477 C476 1.414 . S
C477 C478 1.374 . S
C478 H452 0.950 . S
C478 C474 1.385 . S
C478 C477 1.374 . S
C479 C476 1.499 . S
C479 C480 1.373 . S
C479 C481 1.389 . S
C480 H453 0.950 . S
C480 C466 1.377 . S
C480 C479 1.373 . S
C481 C465 1.377 . S
C481 C479 1.389 . S
C481 C482 1.524 . S
C482 C481 1.524 . S
C482 C483 1.397 . S
C482 C487 1.363 . S
C483 H454 0.950 . S
C483 C482 1.397 . S
C483 C484 1.334 . S
C484 H455 0.950 . S
C484 C483 1.334 . S
C484 C485 1.287 . S
C485 C484 1.287 . S
C485 C486 1.524 . S
C485 H488 0.999 . S
C486 H456 0.950 . S
C486 C485 1.524 . S
C486 C487 1.415 . S
C487 H457 0.950 . S
C487 C482 1.363 . S
C487 C486 1.415 . S
H488 C485 0.999 . S
H489 C470 0.913 . S
H490 C508 0.951 . S
H491 C510 0.951 . S
H492 C512 0.950 . S
H493 C513 0.950 . S
H494 C515 0.950 . S
H495 C518 0.950 1_565 S
H496 C519 0.950 . S
H497 C521 0.950 . S
H498 C522 0.950 . S
H499 C523 0.951 . S
H500 C525 0.951 . S
H501 C527 0.950 1_545 S
H502 C528 0.950 . S
H503 C530 0.950 1_545 S
H504 C533 0.950 . S
H505 C534 0.950 . S
H506 C536 0.950 . S
H507 C537 0.950 . S
C508 H490 0.951 . S
C508 C509 1.366 . S
C508 C510 1.388 . S
C509 C508 1.366 . S
C509 C513 1.385 . S
C510 H491 0.951 . S
C510 C508 1.388 . S
C510 C511 1.366 . S
C511 C510 1.366 . S
C511 C512 1.414 . S
C511 C514 1.499 . S
C512 H492 0.950 . S
C512 C511 1.414 . S
C512 C513 1.374 . S
C513 H493 0.950 . S
C513 C509 1.385 . S
C513 C512 1.374 . S
C514 C511 1.499 . S
C514 C515 1.373 . S
C514 C516 1.389 . S
C515 H494 0.950 . S
C515 C514 1.373 . S
C515 C531 1.377 . S
C516 C514 1.389 . S
C516 C517 1.524 1_565 S
C516 C530 1.377 . S
C517 C516 1.524 1_545 S
C517 C518 1.397 . S
C517 C522 1.363 . S
C518 H495 0.950 1_545 S
C518 C517 1.397 . S
C518 C519 1.334 . S
C519 H496 0.950 . S
C519 C518 1.334 . S
C519 C520 1.287 . S
C520 C519 1.287 . S
C520 C521 1.524 . S
C520 H539 0.913 . S
C521 H497 0.950 . S
C521 C520 1.524 . S
C521 C522 1.415 . S
C522 H498 0.950 . S
C522 C517 1.363 . S
C522 C521 1.415 . S
C523 H499 0.951 . S
C523 C524 1.366 . S
C523 C525 1.388 . S
C524 C523 1.366 . S
C524 C528 1.385 1_565 S
C525 H500 0.951 . S
C525 C523 1.388 . S
C525 C526 1.366 . S
C526 C525 1.366 . S
C526 C527 1.414 . S
C526 C529 1.499 . S
C527 H501 0.950 1_565 S
C527 C526 1.414 . S
C527 C528 1.374 1_565 S
C528 H502 0.950 . S
C528 C524 1.385 1_545 S
C528 C527 1.374 1_545 S
C529 C526 1.499 . S
C529 C530 1.373 . S
C529 C531 1.389 . S
C530 H503 0.950 1_565 S
C530 C516 1.377 . S
C530 C529 1.373 . S
C531 C515 1.377 . S
C531 C529 1.389 . S
C531 C532 1.524 . S
C532 C531 1.524 . S
C532 C533 1.397 . S
C532 C537 1.363 . S
C533 H504 0.950 . S
C533 C532 1.397 . S
C533 C534 1.334 . S
C534 H505 0.950 . S
C534 C533 1.334 . S
C534 C535 1.287 . S
C535 C534 1.287 . S
C535 C536 1.524 . S
C535 H538 0.999 . S
C536 H506 0.950 . S
C536 C535 1.524 . S
C536 C537 1.415 . S
C537 H507 0.950 . S
C537 C532 1.363 . S
C537 C536 1.415 . S
H538 C535 0.999 . S
H539 C520 0.913 . S
H540 C558 0.951 . S
H541 C560 0.951 . S
H542 C562 0.950 . S
H543 C563 0.950 . S
H544 C565 0.950 . S
H545 C568 0.950 . S
H546 C569 0.950 . S
H547 C571 0.950 . S
H548 C572 0.950 . S
H549 C573 0.951 . S
H550 C575 0.951 . S
H551 C577 0.950 . S
H552 C578 0.950 . S
H553 C580 0.950 . S
H554 C583 0.950 . S
H555 C584 0.963 . S
H556 C586 0.950 . S
H557 C587 0.950 . S
C558 H540 0.951 . S
C558 C559 1.366 . S
C558 C560 1.388 . S
C559 C558 1.366 . S
C559 C563 1.385 . S
C560 H541 0.951 . S
C560 C558 1.388 . S
C560 C561 1.366 . S
C561 C560 1.366 . S
C561 C562 1.414 . S
C561 C564 1.499 . S
C562 H542 0.950 . S
C562 C561 1.414 . S
C562 C563 1.374 . S
C563 H543 0.950 . S
C563 C559 1.385 . S
C563 C562 1.374 . S
C564 C561 1.499 . S
C564 C565 1.373 . S
C564 C566 1.389 . S
C565 H544 0.950 . S
C565 C564 1.373 . S
C565 C581 1.377 . S
C566 C564 1.389 . S
C566 C567 1.524 . S
C566 C580 1.377 . S
C567 C566 1.524 . S
C567 C568 1.397 . S
C567 C572 1.363 . S
C568 H545 0.950 . S
C568 C567 1.397 . S
C568 C569 1.334 . S
C569 H546 0.950 . S
C569 C568 1.334 . S
C569 C570 1.287 . S
C570 C569 1.287 . S
C570 C571 1.524 . S
C570 H589 0.913 . S
C571 H547 0.950 . S
C571 C570 1.524 . S
C571 C572 1.415 . S
C572 H548 0.950 . S
C572 C567 1.363 . S
C572 C571 1.415 . S
C573 H549 0.951 . S
C573 C574 1.366 . S
C573 C575 1.388 . S
C574 C573 1.366 . S
C574 C578 1.385 1_554 S
C575 H550 0.951 . S
C575 C573 1.388 . S
C575 C576 1.366 1_554 S
C576 C575 1.366 1_556 S
C576 C577 1.414 . S
C576 C579 1.499 . S
C577 H551 0.950 . S
C577 C576 1.414 . S
C577 C578 1.374 . S
C578 H552 0.950 . S
C578 C574 1.385 1_556 S
C578 C577 1.374 . S
C579 C576 1.499 . S
C579 C580 1.373 . S
C579 C581 1.389 . S
C580 H553 0.950 . S
C580 C566 1.377 . S
C580 C579 1.373 . S
C581 C565 1.377 . S
C581 C579 1.389 . S
C581 C582 1.524 1_556 S
C582 C581 1.524 1_554 S
C582 C583 1.397 1_554 S
C582 C587 1.363 . S
C583 H554 0.950 . S
C583 C582 1.397 1_556 S
C583 C584 1.343 . S
C584 H555 0.963 . S
C584 C583 1.343 . S
C584 C585 1.265 1_556 S
C585 C584 1.265 1_554 S
C585 C586 1.524 . S
C585 H588 0.999 . S
C586 H556 0.950 . S
C586 C585 1.524 . S
C586 C587 1.415 . S
C587 H557 0.950 . S
C587 C582 1.363 . S
C587 C586 1.415 . S
H588 C585 0.999 . S
H589 C570 0.913 . S
H590 C608 0.951 . S
H591 C610 0.951 . S
H592 C612 0.950 . S
H593 C613 0.950 . S
H594 C615 0.950 . S
H595 C618 0.950 . S
H596 C619 0.950 . S
H597 C621 0.950 . S
H598 C622 0.950 . S
H599 C623 0.951 . S
H600 C625 0.951 . S
H601 C627 0.950 . S
H602 C628 0.950 . S
H603 C630 0.950 . S
H604 C633 0.950 . S
H605 C634 0.950 . S
H606 C636 0.950 . S
H607 C637 0.950 . S
C608 H590 0.951 . S
C608 C609 1.366 . S
C608 C610 1.388 . S
C609 C608 1.366 . S
C609 C613 1.385 . S
C610 H591 0.951 . S
C610 C608 1.388 . S
C610 C611 1.366 . S
C611 C610 1.366 . S
C611 C612 1.414 . S
C611 C614 1.499 . S
C612 H592 0.950 . S
C612 C611 1.414 . S
C612 C613 1.374 . S
C613 H593 0.950 . S
C613 C609 1.385 . S
C613 C612 1.374 . S
C614 C611 1.499 . S
C614 C615 1.373 . S
C614 C616 1.389 . S
C615 H594 0.950 . S
C615 C614 1.373 . S
C615 C631 1.377 . S
C616 C614 1.389 . S
C616 C617 1.524 . S
C616 C630 1.377 . S
C617 C616 1.524 . S
C617 C618 1.397 . S
C617 C622 1.363 . S
C618 H595 0.950 . S
C618 C617 1.397 . S
C618 C619 1.334 . S
C619 H596 0.950 . S
C619 C618 1.334 . S
C619 C620 1.287 . S
C620 C619 1.287 . S
C620 C621 1.524 . S
C620 H639 0.913 . S
C621 H597 0.950 . S
C621 C620 1.524 . S
C621 C622 1.415 . S
C622 H598 0.950 . S
C622 C617 1.363 . S
C622 C621 1.415 . S
C623 H599 0.951 . S
C623 C624 1.366 . S
C623 C625 1.388 . S
C624 C623 1.366 . S
C624 C628 1.385 . S
C625 H600 0.951 . S
C625 C623 1.388 . S
C625 C626 1.366 . S
C626 C625 1.366 . S
C626 C627 1.414 . S
C626 C629 1.499 . S
C627 H601 0.950 . S
C627 C626 1.414 . S
C627 C628 1.374 . S
C628 H602 0.950 . S
C628 C624 1.385 . S
C628 C627 1.374 . S
C629 C626 1.499 . S
C629 C630 1.373 . S
C629 C631 1.389 . S
C630 H603 0.950 . S
C630 C616 1.377 . S
C630 C629 1.373 . S
C631 C615 1.377 . S
C631 C629 1.389 . S
C631 C632 1.524 . S
C632 C631 1.524 . S
C632 C633 1.397 . S
C632 C637 1.363 . S
C633 H604 0.950 . S
C633 C632 1.397 . S
C633 C634 1.334 . S
C634 H605 0.950 . S
C634 C633 1.334 . S
C634 C635 1.287 . S
C635 C634 1.287 . S
C635 C636 1.524 . S
C635 H638 0.999 . S
C636 H606 0.950 . S
C636 C635 1.524 . S
C636 C637 1.415 . S
C637 H607 0.950 . S
C637 C632 1.363 . S
C637 C636 1.415 . S
H638 C635 0.999 . S
H639 C620 0.913 . S
H640 C658 0.951 . S
H641 C660 0.951 . S
H642 C662 0.950 . S
H643 C663 0.950 . S
H644 C665 0.950 . S
H645 C668 0.950 . S
H646 C669 0.950 . S
H647 C671 0.950 . S
H648 C672 0.950 . S
H649 C673 0.951 . S
H650 C675 0.951 . S
H651 C677 0.950 . S
H652 C678 0.950 . S
H653 C680 0.950 . S
H654 C683 0.950 . S
H655 C684 0.950 . S
H656 C686 0.950 1_655 S
H657 C687 0.950 . S
C658 H640 0.951 . S
C658 C659 1.366 . S
C658 C660 1.388 . S
C659 C658 1.366 . S
C659 C663 1.385 . S
C660 H641 0.951 . S
C660 C658 1.388 . S
C660 C661 1.366 . S
C661 C660 1.366 . S
C661 C662 1.414 . S
C661 C664 1.499 . S
C662 H642 0.950 . S
C662 C661 1.414 . S
C662 C663 1.374 . S
C663 H643 0.950 . S
C663 C659 1.385 . S
C663 C662 1.374 . S
C664 C661 1.499 . S
C664 C665 1.373 . S
C664 C666 1.389 . S
C665 H644 0.950 . S
C665 C664 1.373 . S
C665 C681 1.377 . S
C666 C664 1.389 . S
C666 C667 1.524 . S
C666 C680 1.377 . S
C667 C666 1.524 . S
C667 C668 1.397 . S
C667 C672 1.363 . S
C668 H645 0.950 . S
C668 C667 1.397 . S
C668 C669 1.334 . S
C669 H646 0.950 . S
C669 C668 1.334 . S
C669 C670 1.287 . S
C670 C669 1.287 . S
C670 C671 1.524 . S
C670 H689 0.913 . S
C671 H647 0.950 . S
C671 C670 1.524 . S
C671 C672 1.415 . S
C672 H648 0.950 . S
C672 C667 1.363 . S
C672 C671 1.415 . S
C673 H649 0.951 . S
C673 C674 1.366 . S
C673 C675 1.388 . S
C674 C673 1.366 . S
C674 C678 1.385 . S
C675 H650 0.951 . S
C675 C673 1.388 . S
C675 C676 1.366 . S
C676 C675 1.366 . S
C676 C677 1.414 . S
C676 C679 1.499 . S
C677 H651 0.950 . S
C677 C676 1.414 . S
C677 C678 1.374 . S
C678 H652 0.950 . S
C678 C674 1.385 . S
C678 C677 1.374 . S
C679 C676 1.499 . S
C679 C680 1.373 . S
C679 C681 1.389 . S
C680 H653 0.950 . S
C680 C666 1.377 . S
C680 C679 1.373 . S
C681 C665 1.377 . S
C681 C679 1.389 . S
C681 C682 1.524 . S
C682 C681 1.524 . S
C682 C683 1.397 . S
C682 C687 1.363 . S
C683 H654 0.950 . S
C683 C682 1.397 . S
C683 C684 1.334 1_455 S
C684 H655 0.950 . S
C684 C683 1.334 1_655 S
C684 C685 1.287 . S
C685 C684 1.287 . S
C685 C686 1.524 1_655 S
C685 H688 0.999 . S
C686 H656 0.950 1_455 S
C686 C685 1.524 1_455 S
C686 C687 1.415 . S
C687 H657 0.950 . S
C687 C682 1.363 . S
C687 C686 1.415 . S
H688 C685 0.999 . S
H689 C670 0.913 . S
H690 C708 0.951 . S
H691 C710 0.951 . S
H692 C712 0.950 . S
H693 C713 0.950 . S
H694 C715 0.950 . S
H695 C718 0.950 . S
H696 C719 0.950 . S
H697 C721 0.950 . S
H698 C722 0.950 . S
H699 C723 0.951 . S
H700 C725 0.951 . S
H701 C727 0.950 . S
H702 C728 0.950 1_554 S
H703 C730 0.950 . S
H704 C733 0.950 1_554 S
H705 C734 0.950 1_554 S
H706 C736 0.950 . S
H707 C737 0.950 . S
C708 H690 0.951 . S
C708 C709 1.366 . S
C708 C710 1.388 . S
C709 C708 1.366 . S
C709 C713 1.385 . S
C710 H691 0.951 . S
C710 C708 1.388 . S
C710 C711 1.366 . S
C711 C710 1.366 . S
C711 C712 1.414 . S
C711 C714 1.499 . S
C712 H692 0.950 . S
C712 C711 1.414 . S
C712 C713 1.374 . S
C713 H693 0.950 . S
C713 C709 1.385 . S
C713 C712 1.374 . S
C714 C711 1.499 . S
C714 C715 1.373 . S
C714 C716 1.389 . S
C715 H694 0.950 . S
C715 C714 1.373 . S
C715 C731 1.377 . S
C716 C714 1.389 . S
C716 C717 1.524 . S
C716 C730 1.377 . S
C717 C716 1.524 . S
C717 C718 1.397 . S
C717 C722 1.363 . S
C718 H695 0.950 . S
C718 C717 1.397 . S
C718 C719 1.334 . S
C719 H696 0.950 . S
C719 C718 1.334 . S
C719 C720 1.287 . S
C720 C719 1.287 . S
C720 C721 1.524 . S
C720 H739 0.913 . S
C721 H697 0.950 . S
C721 C720 1.524 . S
C721 C722 1.415 . S
C722 H698 0.950 . S
C722 C717 1.363 . S
C722 C721 1.415 . S
C723 H699 0.951 . S
C723 C724 1.366 . S
C723 C725 1.388 . S
C724 C723 1.366 . S
C724 C728 1.385 . S
C725 H700 0.951 . S
C725 C723 1.388 . S
C725 C726 1.366 . S
C726 C725 1.366 . S
C726 C727 1.414 . S
C726 C729 1.499 . S
C727 H701 0.950 . S
C727 C726 1.414 . S
C727 C728 1.374 . S
C728 H702 0.950 1_556 S
C728 C724 1.385 . S
C728 C727 1.374 . S
C729 C726 1.499 . S
C729 C730 1.373 . S
C729 C731 1.389 . S
C730 H703 0.950 . S
C730 C716 1.377 . S
C730 C729 1.373 . S
C731 C715 1.377 . S
C731 C729 1.389 . S
C731 C732 1.524 . S
C732 C731 1.524 . S
C732 C733 1.397 . S
C732 C737 1.363 . S
C733 H704 0.950 1_556 S
C733 C732 1.397 . S
C733 C734 1.334 . S
C734 H705 0.950 1_556 S
C734 C733 1.334 . S
C734 C735 1.287 . S
C735 C734 1.287 . S
C735 C736 1.524 . S
C735 H738 0.999 . S
C736 H706 0.950 . S
C736 C735 1.524 . S
C736 C737 1.415 . S
C737 H707 0.950 . S
C737 C732 1.363 . S
C737 C736 1.415 . S
H738 C735 0.999 . S
H739 C720 0.913 . S
H740 C758 0.951 . S
H741 C760 0.951 . S
H742 C762 0.950 . S
H743 C763 0.950 . S
H744 C765 0.950 . S
H745 C768 0.950 . S
H746 C769 0.950 . S
H747 C771 0.950 . S
H748 C772 0.950 . S
H749 C773 0.951 1_455 S
H750 C775 0.951 . S
H751 C777 0.950 . S
H752 C778 0.950 . S
H753 C780 0.950 . S
H754 C783 0.950 1_655 S
H755 C784 0.950 . S
H756 C786 0.950 . S
H757 C787 0.950 . S
C758 H740 0.951 . S
C758 C759 1.366 . S
C758 C760 1.388 . S
C759 C758 1.366 . S
C759 C763 1.385 . S
C760 H741 0.951 . S
C760 C758 1.388 . S
C760 C761 1.366 . S
C761 C760 1.366 . S
C761 C762 1.414 . S
C761 C764 1.499 . S
C762 H742 0.950 . S
C762 C761 1.414 . S
C762 C763 1.374 . S
C763 H743 0.950 . S
C763 C759 1.385 . S
C763 C762 1.374 . S
C764 C761 1.499 . S
C764 C765 1.373 . S
C764 C766 1.389 . S
C765 H744 0.950 . S
C765 C764 1.373 . S
C765 C781 1.377 . S
C766 C764 1.389 . S
C766 C767 1.524 . S
C766 C780 1.377 . S
C767 C766 1.524 . S
C767 C768 1.397 . S
C767 C772 1.363 . S
C768 H745 0.950 . S
C768 C767 1.397 . S
C768 C769 1.334 . S
C769 H746 0.950 . S
C769 C768 1.334 . S
C769 C770 1.287 . S
C770 C769 1.287 . S
C770 C771 1.524 . S
C770 H789 0.913 . S
C771 H747 0.950 . S
C771 C770 1.524 . S
C771 C772 1.415 . S
C772 H748 0.950 . S
C772 C767 1.363 . S
C772 C771 1.415 . S
C773 H749 0.951 1_655 S
C773 C774 1.366 . S
C773 C775 1.388 . S
C774 C773 1.366 . S
C774 C778 1.385 . S
C775 H750 0.951 . S
C775 C773 1.388 . S
C775 C776 1.366 . S
C776 C775 1.366 . S
C776 C777 1.414 . S
C776 C779 1.499 . S
C777 H751 0.950 . S
C777 C776 1.414 . S
C777 C778 1.374 . S
C778 H752 0.950 . S
C778 C774 1.385 . S
C778 C777 1.374 . S
C779 C776 1.499 . S
C779 C780 1.373 . S
C779 C781 1.389 . S
C780 H753 0.950 . S
C780 C766 1.377 . S
C780 C779 1.373 . S
C781 C765 1.377 . S
C781 C779 1.389 . S
C781 C782 1.524 1_655 S
C782 C781 1.524 1_455 S
C782 C783 1.397 . S
C782 C787 1.363 . S
C783 H754 0.950 1_455 S
C783 C782 1.397 . S
C783 C784 1.334 . S
C784 H755 0.950 . S
C784 C783 1.334 . S
C784 C785 1.287 . S
C785 C784 1.287 . S
C785 C786 1.524 . S
C785 H788 0.999 . S
C786 H756 0.950 . S
C786 C785 1.524 . S
C786 C787 1.415 . S
C787 H757 0.950 . S
C787 C782 1.363 . S
C787 C786 1.415 . S
H788 C785 0.999 . S
H789 C770 0.913 . S
H790 C808 0.951 . S
H791 C810 0.951 . S
H792 C812 0.950 . S
H793 C813 0.950 . S
H794 C815 0.950 . S
H795 C818 0.950 . S
H796 C819 0.950 . S
H797 C821 0.950 . S
H798 C822 0.950 . S
H799 C823 0.951 . S
H800 C825 0.951 . S
H801 C827 0.950 . S
H802 C828 0.950 . S
H803 C830 0.950 . S
H804 C833 0.950 . S
H805 C834 0.950 . S
H806 C836 0.950 . S
H807 C837 0.950 . S
C808 H790 0.951 . S
C808 C809 1.366 . S
C808 C810 1.388 . S
C809 C808 1.366 . S
C809 C813 1.385 . S
C810 H791 0.951 . S
C810 C808 1.388 . S
C810 C811 1.366 . S
C811 C810 1.366 . S
C811 C812 1.414 . S
C811 C814 1.499 . S
C812 H792 0.950 . S
C812 C811 1.414 . S
C812 C813 1.374 . S
C813 H793 0.950 . S
C813 C809 1.385 . S
C813 C812 1.374 . S
C814 C811 1.499 . S
C814 C815 1.373 . S
C814 C816 1.389 . S
C815 H794 0.950 . S
C815 C814 1.373 . S
C815 C831 1.377 . S
C816 C814 1.389 . S
C816 C817 1.524 . S
C816 C830 1.377 . S
C817 C816 1.524 . S
C817 C818 1.397 . S
C817 C822 1.363 . S
C818 H795 0.950 . S
C818 C817 1.397 . S
C818 C819 1.334 . S
C819 H796 0.950 . S
C819 C818 1.334 . S
C819 C820 1.287 . S
C820 C819 1.287 . S
C820 C821 1.524 . S
C820 H839 0.913 . S
C821 H797 0.950 . S
C821 C820 1.524 . S
C821 C822 1.415 . S
C822 H798 0.950 . S
C822 C817 1.363 . S
C822 C821 1.415 . S
C823 H799 0.951 . S
C823 C824 1.366 . S
C823 C825 1.388 . S
C824 C823 1.366 . S
C824 C828 1.385 . S
C825 H800 0.951 . S
C825 C823 1.388 . S
C825 C826 1.366 . S
C826 C825 1.366 . S
C826 C827 1.414 . S
C826 C829 1.499 . S
C827 H801 0.950 . S
C827 C826 1.414 . S
C827 C828 1.374 . S
C828 H802 0.950 . S
C828 C824 1.385 . S
C828 C827 1.374 . S
C829 C826 1.499 . S
C829 C830 1.373 . S
C829 C831 1.389 . S
C830 H803 0.950 . S
C830 C816 1.377 . S
C830 C829 1.373 . S
C831 C815 1.377 . S
C831 C829 1.389 . S
C831 C832 1.524 . S
C832 C831 1.524 . S
C832 C833 1.397 . S
C832 C837 1.363 . S
C833 H804 0.950 . S
C833 C832 1.397 . S
C833 C834 1.334 . S
C834 H805 0.950 . S
C834 C833 1.334 . S
C834 C835 1.287 . S
C835 C834 1.287 . S
C835 C836 1.524 . S
C835 H838 0.999 . S
C836 H806 0.950 . S
C836 C835 1.524 . S
C836 C837 1.415 . S
C837 H807 0.950 . S
C837 C832 1.363 . S
C837 C836 1.415 . S
H838 C835 0.999 . S
H839 C820 0.913 . S
H840 C858 0.951 . S
H841 C860 0.951 . S
H842 C862 0.950 . S
H843 C863 0.950 . S
H844 C865 0.950 . S
H845 C868 0.950 . S
H846 C869 0.950 . S
H847 C871 0.950 . S
H848 C872 0.950 . S
H849 C873 0.951 . S
H850 C875 0.951 . S
H851 C877 0.950 1_545 S
H852 C878 0.950 . S
H853 C880 0.950 1_545 S
H854 C883 0.950 . S
H855 C884 0.950 . S
H856 C886 0.950 . S
H857 C887 0.950 . S
C858 H840 0.951 . S
C858 C859 1.366 . S
C858 C860 1.388 . S
C859 C858 1.366 . S
C859 C863 1.385 . S
C860 H841 0.951 . S
C860 C858 1.388 . S
C860 C861 1.366 . S
C861 C860 1.366 . S
C861 C862 1.414 . S
C861 C864 1.499 . S
C862 H842 0.950 . S
C862 C861 1.414 . S
C862 C863 1.374 . S
C863 H843 0.950 . S
C863 C859 1.385 . S
C863 C862 1.374 . S
C864 C861 1.499 . S
C864 C865 1.373 . S
C864 C866 1.389 . S
C865 H844 0.950 . S
C865 C864 1.373 . S
C865 C881 1.377 . S
C866 C864 1.389 . S
C866 C867 1.524 . S
C866 C880 1.377 . S
C867 C866 1.524 . S
C867 C868 1.397 . S
C867 C872 1.363 1_565 S
C868 H845 0.950 . S
C868 C867 1.397 . S
C868 C869 1.334 1_565 S
C869 H846 0.950 . S
C869 C868 1.334 1_545 S
C869 C870 1.287 . S
C870 C869 1.287 . S
C870 C871 1.524 . S
C870 H889 0.913 . S
C871 H847 0.950 . S
C871 C870 1.524 . S
C871 C872 1.415 . S
C872 H848 0.950 . S
C872 C867 1.363 1_545 S
C872 C871 1.415 . S
C873 H849 0.951 . S
C873 C874 1.366 . S
C873 C875 1.388 . S
C874 C873 1.366 . S
C874 C878 1.385 1_665 S
C875 H850 0.951 . S
C875 C873 1.388 . S
C875 C876 1.366 . S
C876 C875 1.366 . S
C876 C877 1.414 1_655 S
C876 C879 1.499 . S
C877 H851 0.950 1_565 S
C877 C876 1.414 1_455 S
C877 C878 1.374 1_565 S
C878 H852 0.950 . S
C878 C874 1.385 1_445 S
C878 C877 1.374 1_545 S
C879 C876 1.499 . S
C879 C880 1.373 . S
C879 C881 1.389 . S
C880 H853 0.950 1_565 S
C880 C866 1.377 . S
C880 C879 1.373 . S
C881 C865 1.377 . S
C881 C879 1.389 . S
C881 C882 1.524 . S
C882 C881 1.524 . S
C882 C883 1.397 1_655 S
C882 C887 1.363 . S
C883 H854 0.950 . S
C883 C882 1.397 1_455 S
C883 C884 1.334 . S
C884 H855 0.950 . S
C884 C883 1.334 . S
C884 C885 1.287 . S
C885 C884 1.287 . S
C885 C886 1.524 1_455 S
C885 H888 0.999 . S
C886 H856 0.950 . S
C886 C885 1.524 1_655 S
C886 C887 1.415 . S
C887 H857 0.950 . S
C887 C882 1.363 . S
C887 C886 1.415 . S
H888 C885 0.999 . S
H889 C870 0.913 . S
H890 C908 0.951 . S
H891 C910 0.951 . S
H892 C912 0.950 . S
H893 C913 0.950 . S
H894 C915 0.950 . S
H895 C918 0.950 . S
H896 C919 0.950 . S
H897 C921 0.950 . S
H898 C922 0.950 . S
H899 C923 0.951 . S
H900 C925 0.951 . S
H901 C927 0.950 . S
H902 C928 0.950 . S
H903 C930 0.950 . S
H904 C933 0.950 . S
H905 C934 0.950 . S
H906 C936 0.950 . S
H907 C937 0.950 . S
C908 H890 0.951 . S
C908 C909 1.366 . S
C908 C910 1.388 . S
C909 C908 1.366 . S
C909 C913 1.385 . S
C910 H891 0.951 . S
C910 C908 1.388 . S
C910 C911 1.366 . S
C911 C910 1.366 . S
C911 C912 1.414 . S
C911 C914 1.499 . S
C912 H892 0.950 . S
C912 C911 1.414 . S
C912 C913 1.374 . S
C913 H893 0.950 . S
C913 C909 1.385 . S
C913 C912 1.374 . S
C914 C911 1.499 . S
C914 C915 1.373 . S
C914 C916 1.389 . S
C915 H894 0.950 . S
C915 C914 1.373 . S
C915 C931 1.377 . S
C916 C914 1.389 . S
C916 C917 1.524 . S
C916 C930 1.377 . S
C917 C916 1.524 . S
C917 C918 1.397 . S
C917 C922 1.363 . S
C918 H895 0.950 . S
C918 C917 1.397 . S
C918 C919 1.334 . S
C919 H896 0.950 . S
C919 C918 1.334 . S
C919 C920 1.287 . S
C920 C919 1.287 . S
C920 C921 1.524 . S
C920 H939 0.913 . S
C921 H897 0.950 . S
C921 C920 1.524 . S
C921 C922 1.415 . S
C922 H898 0.950 . S
C922 C917 1.363 . S
C922 C921 1.415 . S
C923 H899 0.951 . S
C923 C924 1.366 . S
C923 C925 1.388 . S
C924 C923 1.366 . S
C924 C928 1.385 . S
C925 H900 0.951 . S
C925 C923 1.388 . S
C925 C926 1.366 . S
C926 C925 1.366 . S
C926 C927 1.414 . S
C926 C929 1.499 . S
C927 H901 0.950 . S
C927 C926 1.414 . S
C927 C928 1.374 . S
C928 H902 0.950 . S
C928 C924 1.385 . S
C928 C927 1.374 . S
C929 C926 1.499 . S
C929 C930 1.373 . S
C929 C931 1.389 . S
C930 H903 0.950 . S
C930 C916 1.377 . S
C930 C929 1.373 . S
C931 C915 1.377 . S
C931 C929 1.389 . S
C931 C932 1.524 . S
C932 C931 1.524 . S
C932 C933 1.397 . S
C932 C937 1.363 . S
C933 H904 0.950 . S
C933 C932 1.397 . S
C933 C934 1.334 . S
C934 H905 0.950 . S
C934 C933 1.334 . S
C934 C935 1.287 . S
C935 C934 1.287 . S
C935 C936 1.524 . S
C935 H938 0.999 . S
C936 H906 0.950 . S
C936 C935 1.524 . S
C936 C937 1.415 . S
C937 H907 0.950 . S
C937 C932 1.363 . S
C937 C936 1.415 . S
H938 C935 0.999 . S
H939 C920 0.913 . S
H940 C958 0.951 . S
H941 C960 0.951 . S
H942 C962 0.950 . S
H943 C963 0.950 . S
H944 C965 0.950 . S
H945 C968 0.950 . S
H946 C969 0.950 . S
H947 C971 0.950 . S
H948 C972 0.950 . S
H949 C973 0.951 . S
H950 C975 0.951 . S
H951 C977 0.950 . S
H952 C978 0.950 . S
H953 C980 0.950 . S
H954 C983 0.950 . S
H955 C984 0.950 . S
H956 C986 0.950 . S
H957 C987 0.950 . S
C958 H940 0.951 . S
C958 C959 1.366 . S
C958 C960 1.388 . S
C959 C958 1.366 . S
C959 C963 1.385 . S
C960 H941 0.951 . S
C960 C958 1.388 . S
C960 C961 1.366 . S
C961 C960 1.366 . S
C961 C962 1.414 . S
C961 C964 1.499 . S
C962 H942 0.950 . S
C962 C961 1.414 . S
C962 C963 1.374 . S
C963 H943 0.950 . S
C963 C959 1.385 . S
C963 C962 1.374 . S
C964 C961 1.499 . S
C964 C965 1.373 . S
C964 C966 1.389 . S
C965 H944 0.950 . S
C965 C964 1.373 . S
C965 C981 1.377 . S
C966 C964 1.389 . S
C966 C967 1.524 . S
C966 C980 1.377 . S
C967 C966 1.524 . S
C967 C968 1.397 . S
C967 C972 1.363 . S
C968 H945 0.950 . S
C968 C967 1.397 . S
C968 C969 1.334 . S
C969 H946 0.950 . S
C969 C968 1.334 . S
C969 C970 1.287 . S
C970 C969 1.287 . S
C970 C971 1.524 . S
C970 H989 0.913 . S
C971 H947 0.950 . S
C971 C970 1.524 . S
C971 C972 1.415 . S
C972 H948 0.950 . S
C972 C967 1.363 . S
C972 C971 1.415 . S
C973 H949 0.951 . S
C973 C974 1.366 . S
C973 C975 1.388 . S
C974 C973 1.366 . S
C974 C978 1.385 . S
C975 H950 0.951 . S
C975 C973 1.388 . S
C975 C976 1.366 . S
C976 C975 1.366 . S
C976 C977 1.414 . S
C976 C979 1.499 . S
C977 H951 0.950 . S
C977 C976 1.414 . S
C977 C978 1.374 . S
C978 H952 0.950 . S
C978 C974 1.385 . S
C978 C977 1.374 . S
C979 C976 1.499 . S
C979 C980 1.373 . S
C979 C981 1.389 . S
C980 H953 0.950 . S
C980 C966 1.377 . S
C980 C979 1.373 . S
C981 C965 1.377 . S
C981 C979 1.389 . S
C981 C982 1.524 . S
C982 C981 1.524 . S
C982 C983 1.397 . S
C982 C987 1.363 . S
C983 H954 0.950 . S
C983 C982 1.397 . S
C983 C984 1.334 . S
C984 H955 0.950 . S
C984 C983 1.334 . S
C984 C985 1.287 . S
C985 C984 1.287 . S
C985 C986 1.524 . S
C985 H988 0.999 . S
C986 H956 0.950 . S
C986 C985 1.524 . S
C986 C987 1.415 . S
C987 H957 0.950 . S
C987 C982 1.363 . S
C987 C986 1.415 . S
H988 C985 0.999 . S
H989 C970 0.913 . S
H990 C1008 0.951 . S
H991 C1010 0.951 . S
H992 C1012 0.950 . S
H993 C1013 0.950 . S
H994 C1015 0.950 . S
H995 C1018 0.950 . S
H996 C1019 0.950 . S
H997 C1021 0.950 . S
H998 C1022 0.950 . S
H999 C1023 0.951 . S
H1000 C1025 0.951 . S
H1001 C1027 0.950 . S
H1002 C1028 0.950 . S
H1003 C1030 0.950 . S
H1004 C1033 0.950 . S
H1005 C1034 0.950 . S
H1006 C1036 0.950 . S
H1007 C1037 0.950 . S
C1008 H990 0.951 . S
C1008 C1009 1.366 . S
C1008 C1010 1.388 . S
C1009 C1008 1.366 . S
C1009 C1013 1.385 . S
C1010 H991 0.951 . S
C1010 C1008 1.388 . S
C1010 C1011 1.366 . S
C1011 C1010 1.366 . S
C1011 C1012 1.414 . S
C1011 C1014 1.499 . S
C1012 H992 0.950 . S
C1012 C1011 1.414 . S
C1012 C1013 1.374 . S
C1013 H993 0.950 . S
C1013 C1009 1.385 . S
C1013 C1012 1.374 . S
C1014 C1011 1.499 . S
C1014 C1015 1.373 . S
C1014 C1016 1.389 . S
C1015 H994 0.950 . S
C1015 C1014 1.373 . S
C1015 C1031 1.377 . S
C1016 C1014 1.389 . S
C1016 C1017 1.524 . S
C1016 C1030 1.377 . S
C1017 C1016 1.524 . S
C1017 C1018 1.397 . S
C1017 C1022 1.363 . S
C1018 H995 0.950 . S
C1018 C1017 1.397 . S
C1018 C1019 1.334 . S
C1019 H996 0.950 . S
C1019 C1018 1.334 . S
C1019 C1020 1.287 . S
C1020 C1019 1.287 . S
C1020 C1021 1.524 . S
C1020 H1039 0.913 . S
C1021 H997 0.950 . S
C1021 C1020 1.524 . S
C1021 C1022 1.415 . S
C1022 H998 0.950 . S
C1022 C1017 1.363 . S
C1022 C1021 1.415 . S
C1023 H999 0.951 . S
C1023 C1024 1.366 . S
C1023 C1025 1.388 . S
C1024 C1023 1.366 . S
C1024 C1028 1.385 . S
C1025 H1000 0.951 . S
C1025 C1023 1.388 . S
C1025 C1026 1.366 . S
C1026 C1025 1.366 . S
C1026 C1027 1.414 . S
C1026 C1029 1.499 . S
C1027 H1001 0.950 . S
C1027 C1026 1.414 . S
C1027 C1028 1.374 . S
C1028 H1002 0.950 . S
C1028 C1024 1.385 . S
C1028 C1027 1.374 . S
C1029 C1026 1.499 . S
C1029 C1030 1.373 . S
C1029 C1031 1.389 . S
C1030 H1003 0.950 . S
C1030 C1016 1.377 . S
C1030 C1029 1.373 . S
C1031 C1015 1.377 . S
C1031 C1029 1.389 . S
C1031 C1032 1.524 . S
C1032 C1031 1.524 . S
C1032 C1033 1.397 . S
C1032 C1037 1.363 . S
C1033 H1004 0.950 . S
C1033 C1032 1.397 . S
C1033 C1034 1.334 . S
C1034 H1005 0.950 . S
C1034 C1033 1.334 . S
C1034 C1035 1.287 . S
C1035 C1034 1.287 . S
C1035 C1036 1.524 . S
C1035 H1038 0.999 . S
C1036 H1006 0.950 . S
C1036 C1035 1.524 . S
C1036 C1037 1.415 . S
C1037 H1007 0.950 . S
C1037 C1032 1.363 . S
C1037 C1036 1.415 . S
H1038 C1035 0.999 . S
H1039 C1020 0.913 . S
H1040 C1058 0.951 . S
H1041 C1060 0.951 . S
H1042 C1062 0.950 . S
H1043 C1063 0.950 . S
H1044 C1065 0.950 . S
H1045 C1068 0.950 . S
H1046 C1069 0.950 . S
H1047 C1071 0.950 . S
H1048 C1072 0.950 . S
H1049 C1073 0.951 1_545 S
H1050 C1075 0.935 1_554 S
H1051 C1077 0.950 . S
H1052 C1078 0.950 . S
H1053 C1080 0.950 . S
H1054 C1083 0.950 . S
H1055 C1084 0.950 . S
H1056 C1086 0.950 . S
H1057 C1087 0.950 . S
C1058 H1040 0.951 . S
C1058 C1059 1.366 . S
C1058 C1060 1.388 . S
C1059 C1058 1.366 . S
C1059 C1063 1.385 . S
C1060 H1041 0.951 . S
C1060 C1058 1.388 . S
C1060 C1061 1.366 . S
C1061 C1060 1.366 . S
C1061 C1062 1.414 . S
C1061 C1064 1.499 . S
C1062 H1042 0.950 . S
C1062 C1061 1.414 . S
C1062 C1063 1.374 . S
C1063 H1043 0.950 . S
C1063 C1059 1.385 . S
C1063 C1062 1.374 . S
C1064 C1061 1.499 . S
C1064 C1065 1.373 . S
C1064 C1066 1.389 . S
C1065 H1044 0.950 . S
C1065 C1064 1.373 . S
C1065 C1081 1.377 . S
C1066 C1064 1.389 . S
C1066 C1067 1.524 . S
C1066 C1080 1.377 . S
C1067 C1066 1.524 . S
C1067 C1068 1.397 . S
C1067 C1072 1.363 . S
C1068 H1045 0.950 . S
C1068 C1067 1.397 . S
C1068 C1069 1.334 . S
C1069 H1046 0.950 . S
C1069 C1068 1.334 . S
C1069 C1070 1.287 . S
C1070 C1069 1.287 . S
C1070 C1071 1.524 . S
C1070 H1089 0.913 . S
C1071 H1047 0.950 . S
C1071 C1070 1.524 . S
C1071 C1072 1.415 . S
C1072 H1048 0.950 . S
C1072 C1067 1.363 . S
C1072 C1071 1.415 . S
C1073 H1049 0.951 1_565 S
C1073 C1074 1.366 1_554 S
C1073 C1075 1.379 1_554 S
C1074 C1073 1.366 1_556 S
C1074 C1078 1.385 . S
C1075 H1050 0.935 1_556 S
C1075 C1073 1.379 1_556 S
C1075 C1076 1.391 . S
C1076 C1075 1.391 . S
C1076 C1077 1.414 . S
C1076 C1079 1.499 . S
C1077 H1051 0.950 . S
C1077 C1076 1.414 . S
C1077 C1078 1.374 . S
C1078 H1052 0.950 . S
C1078 C1074 1.385 . S
C1078 C1077 1.374 . S
C1079 C1076 1.499 . S
C1079 C1080 1.373 . S
C1079 C1081 1.389 . S
C1080 H1053 0.950 . S
C1080 C1066 1.377 . S
C1080 C1079 1.373 . S
C1081 C1065 1.377 . S
C1081 C1079 1.389 . S
C1081 C1082 1.524 1_556 S
C1082 C1081 1.524 1_554 S
C1082 C1083 1.397 . S
C1082 C1087 1.363 . S
C1083 H1054 0.950 . S
C1083 C1082 1.397 . S
C1083 C1084 1.334 . S
C1084 H1055 0.950 . S
C1084 C1083 1.334 . S
C1084 C1085 1.287 . S
C1085 C1084 1.287 . S
C1085 C1086 1.524 . S
C1085 H1088 0.999 . S
C1086 H1056 0.950 . S
C1086 C1085 1.524 . S
C1086 C1087 1.415 . S
C1087 H1057 0.950 . S
C1087 C1082 1.363 . S
C1087 C1086 1.415 . S
H1088 C1085 0.999 . S
H1089 C1070 0.913 . S
H1090 C1108 0.951 . S
H1091 C1110 0.951 . S
H1092 C1112 0.950 . S
H1093 C1113 0.950 . S
H1094 C1115 0.950 . S
H1095 C1118 0.950 . S
H1096 C1119 0.950 . S
H1097 C1121 0.950 . S
H1098 C1122 0.950 . S
H1099 C1123 0.951 . S
H1100 C1125 0.951 . S
H1101 C1127 0.950 . S
H1102 C1128 0.950 . S
H1103 C1130 0.950 . S
H1104 C1133 0.950 . S
H1105 C1134 0.950 . S
H1106 C1136 0.950 . S
H1107 C1137 0.950 . S
C1108 H1090 0.951 . S
C1108 C1109 1.366 . S
C1108 C1110 1.388 . S
C1109 C1108 1.366 . S
C1109 C1113 1.385 . S
C1110 H1091 0.951 . S
C1110 C1108 1.388 . S
C1110 C1111 1.366 . S
C1111 C1110 1.366 . S
C1111 C1112 1.414 . S
C1111 C1114 1.499 . S
C1112 H1092 0.950 . S
C1112 C1111 1.414 . S
C1112 C1113 1.374 . S
C1113 H1093 0.950 . S
C1113 C1109 1.385 . S
C1113 C1112 1.374 . S
C1114 C1111 1.499 . S
C1114 C1115 1.373 . S
C1114 C1116 1.389 . S
C1115 H1094 0.950 . S
C1115 C1114 1.373 . S
C1115 C1131 1.377 . S
C1116 C1114 1.389 . S
C1116 C1117 1.524 . S
C1116 C1130 1.377 . S
C1117 C1116 1.524 . S
C1117 C1118 1.397 . S
C1117 C1122 1.363 . S
C1118 H1095 0.950 . S
C1118 C1117 1.397 . S
C1118 C1119 1.334 . S
C1119 H1096 0.950 . S
C1119 C1118 1.334 . S
C1119 C1120 1.287 . S
C1120 C1119 1.287 . S
C1120 C1121 1.524 . S
C1120 H1139 0.913 . S
C1121 H1097 0.950 . S
C1121 C1120 1.524 . S
C1121 C1122 1.415 . S
C1122 H1098 0.950 . S
C1122 C1117 1.363 . S
C1122 C1121 1.415 . S
C1123 H1099 0.951 . S
C1123 C1124 1.366 . S
C1123 C1125 1.388 . S
C1124 C1123 1.366 . S
C1124 C1128 1.385 . S
C1125 H1100 0.951 . S
C1125 C1123 1.388 . S
C1125 C1126 1.366 . S
C1126 C1125 1.366 . S
C1126 C1127 1.414 . S
C1126 C1129 1.499 . S
C1127 H1101 0.950 . S
C1127 C1126 1.414 . S
C1127 C1128 1.374 . S
C1128 H1102 0.950 . S
C1128 C1124 1.385 . S
C1128 C1127 1.374 . S
C1129 C1126 1.499 . S
C1129 C1130 1.373 . S
C1129 C1131 1.389 . S
C1130 H1103 0.950 . S
C1130 C1116 1.377 . S
C1130 C1129 1.373 . S
C1131 C1115 1.377 . S
C1131 C1129 1.389 . S
C1131 C1132 1.524 . S
C1132 C1131 1.524 . S
C1132 C1133 1.397 . S
C1132 C1137 1.363 . S
C1133 H1104 0.950 . S
C1133 C1132 1.397 . S
C1133 C1134 1.334 . S
C1134 H1105 0.950 . S
C1134 C1133 1.334 . S
C1134 C1135 1.287 . S
C1135 C1134 1.287 . S
C1135 C1136 1.524 . S
C1135 H1138 0.999 . S
C1136 H1106 0.950 . S
C1136 C1135 1.524 . S
C1136 C1137 1.415 . S
C1137 H1107 0.950 . S
C1137 C1132 1.363 . S
C1137 C1136 1.415 . S
H1138 C1135 0.999 . S
H1139 C1120 0.913 . S
H1140 C1158 0.951 . S
H1141 C1160 0.951 . S
H1142 C1162 0.950 . S
H1143 C1163 0.950 . S
H1144 C1165 0.950 . S
H1145 C1168 0.950 . S
H1146 C1169 0.950 . S
H1147 C1171 0.950 . S
H1148 C1172 0.950 . S
H1149 C1173 0.951 . S
H1150 C1175 0.951 . S
H1151 C1177 0.950 . S
H1152 C1178 0.950 . S
H1153 C1180 0.950 . S
H1154 C1183 0.950 . S
H1155 C1184 0.950 . S
H1156 C1186 0.950 . S
H1157 C1187 0.950 . S
C1158 H1140 0.951 . S
C1158 C1159 1.366 . S
C1158 C1160 1.388 . S
C1159 C1158 1.366 . S
C1159 C1163 1.385 . S
C1160 H1141 0.951 . S
C1160 C1158 1.388 . S
C1160 C1161 1.366 . S
C1161 C1160 1.366 . S
C1161 C1162 1.414 . S
C1161 C1164 1.499 . S
C1162 H1142 0.950 . S
C1162 C1161 1.414 . S
C1162 C1163 1.374 . S
C1163 H1143 0.950 . S
C1163 C1159 1.385 . S
C1163 C1162 1.374 . S
C1164 C1161 1.499 . S
C1164 C1165 1.373 . S
C1164 C1166 1.389 . S
C1165 H1144 0.950 . S
C1165 C1164 1.373 . S
C1165 C1181 1.377 . S
C1166 C1164 1.389 . S
C1166 C1167 1.524 . S
C1166 C1180 1.377 . S
C1167 C1166 1.524 . S
C1167 C1168 1.397 . S
C1167 C1172 1.363 . S
C1168 H1145 0.950 . S
C1168 C1167 1.397 . S
C1168 C1169 1.334 . S
C1169 H1146 0.950 . S
C1169 C1168 1.334 . S
C1169 C1170 1.287 . S
C1170 C1169 1.287 . S
C1170 C1171 1.524 . S
C1170 H1189 0.913 . S
C1171 H1147 0.950 . S
C1171 C1170 1.524 . S
C1171 C1172 1.415 . S
C1172 H1148 0.950 . S
C1172 C1167 1.363 . S
C1172 C1171 1.415 . S
C1173 H1149 0.951 . S
C1173 C1174 1.366 . S
C1173 C1175 1.388 . S
C1174 C1173 1.366 . S
C1174 C1178 1.385 . S
C1175 H1150 0.951 . S
C1175 C1173 1.388 . S
C1175 C1176 1.366 . S
C1176 C1175 1.366 . S
C1176 C1177 1.414 . S
C1176 C1179 1.499 . S
C1177 H1151 0.950 . S
C1177 C1176 1.414 . S
C1177 C1178 1.374 . S
C1178 H1152 0.950 . S
C1178 C1174 1.385 . S
C1178 C1177 1.374 . S
C1179 C1176 1.499 . S
C1179 C1180 1.373 . S
C1179 C1181 1.389 . S
C1180 H1153 0.950 . S
C1180 C1166 1.377 . S
C1180 C1179 1.373 . S
C1181 C1165 1.377 . S
C1181 C1179 1.389 . S
C1181 C1182 1.524 . S
C1182 C1181 1.524 . S
C1182 C1183 1.397 . S
C1182 C1187 1.363 . S
C1183 H1154 0.950 . S
C1183 C1182 1.397 . S
C1183 C1184 1.334 1_554 S
C1184 H1155 0.950 . S
C1184 C1183 1.334 1_556 S
C1184 C1185 1.287 . S
C1185 C1184 1.287 . S
C1185 C1186 1.524 . S
C1185 H1188 0.999 . S
C1186 H1156 0.950 . S
C1186 C1185 1.524 . S
C1186 C1187 1.415 1_556 S
C1187 H1157 0.950 . S
C1187 C1182 1.363 . S
C1187 C1186 1.415 1_554 S
H1188 C1185 0.999 . S
H1189 C1170 0.913 . S
H1190 C1208 0.951 . S
H1191 C1210 0.951 . S
H1192 C1212 0.950 . S
H1193 C1213 0.950 . S
H1194 C1215 0.950 . S
H1195 C1218 0.950 . S
H1196 C1219 0.950 . S
H1197 C1221 0.950 . S
H1198 C1222 0.950 . S
H1199 C1223 0.951 . S
H1200 C1225 0.951 . S
H1201 C1227 0.950 . S
H1202 C1228 0.950 . S
H1203 C1230 0.950 . S
H1204 C1233 0.950 . S
H1205 C1234 0.950 . S
H1206 C1236 0.950 . S
H1207 C1237 0.950 . S
C1208 H1190 0.951 . S
C1208 C1209 1.366 . S
C1208 C1210 1.388 . S
C1209 C1208 1.366 . S
C1209 C1213 1.385 . S
C1210 H1191 0.951 . S
C1210 C1208 1.388 . S
C1210 C1211 1.366 . S
C1211 C1210 1.366 . S
C1211 C1212 1.414 . S
C1211 C1214 1.499 . S
C1212 H1192 0.950 . S
C1212 C1211 1.414 . S
C1212 C1213 1.374 . S
C1213 H1193 0.950 . S
C1213 C1209 1.385 . S
C1213 C1212 1.374 . S
C1214 C1211 1.499 . S
C1214 C1215 1.373 . S
C1214 C1216 1.389 . S
C1215 H1194 0.950 . S
C1215 C1214 1.373 . S
C1215 C1231 1.377 . S
C1216 C1214 1.389 . S
C1216 C1217 1.524 . S
C1216 C1230 1.377 . S
C1217 C1216 1.524 . S
C1217 C1218 1.397 . S
C1217 C1222 1.363 . S
C1218 H1195 0.950 . S
C1218 C1217 1.397 . S
C1218 C1219 1.334 . S
C1219 H1196 0.950 . S
C1219 C1218 1.334 . S
C1219 C1220 1.287 . S
C1220 C1219 1.287 . S
C1220 C1221 1.524 . S
C1220 H1239 0.913 . S
C1221 H1197 0.950 . S
C1221 C1220 1.524 . S
C1221 C1222 1.415 . S
C1222 H1198 0.950 . S
C1222 C1217 1.363 . S
C1222 C1221 1.415 . S
C1223 H1199 0.951 . S
C1223 C1224 1.366 . S
C1223 C1225 1.388 . S
C1224 C1223 1.366 . S
C1224 C1228 1.385 . S
C1225 H1200 0.951 . S
C1225 C1223 1.388 . S
C1225 C1226 1.366 . S
C1226 C1225 1.366 . S
C1226 C1227 1.414 . S
C1226 C1229 1.499 . S
C1227 H1201 0.950 . S
C1227 C1226 1.414 . S
C1227 C1228 1.374 . S
C1228 H1202 0.950 . S
C1228 C1224 1.385 . S
C1228 C1227 1.374 . S
C1229 C1226 1.499 . S
C1229 C1230 1.373 . S
C1229 C1231 1.389 . S
C1230 H1203 0.950 . S
C1230 C1216 1.377 . S
C1230 C1229 1.373 . S
C1231 C1215 1.377 . S
C1231 C1229 1.389 . S
C1231 C1232 1.524 . S
C1232 C1231 1.524 . S
C1232 C1233 1.397 . S
C1232 C1237 1.363 . S
C1233 H1204 0.950 . S
C1233 C1232 1.397 . S
C1233 C1234 1.334 . S
C1234 H1205 0.950 . S
C1234 C1233 1.334 . S
C1234 C1235 1.287 . S
C1235 C1234 1.287 . S
C1235 C1236 1.524 . S
C1235 H1238 0.999 . S
C1236 H1206 0.950 . S
C1236 C1235 1.524 . S
C1236 C1237 1.415 . S
C1237 H1207 0.950 . S
C1237 C1232 1.363 . S
C1237 C1236 1.415 . S
H1238 C1235 0.999 . S
H1239 C1220 0.913 . S
H1240 C1258 0.951 . S
H1241 C1260 0.951 . S
H1242 C1262 0.950 . S
H1243 C1263 0.950 . S
H1244 C1265 0.950 . S
H1245 C1268 0.950 . S
H1246 C1269 0.950 . S
H1247 C1271 0.966 . S
H1248 C1272 0.950 1_554 S
H1249 C1273 0.954 . S
H1250 C1275 0.951 . S
H1251 C1277 0.950 . S
H1252 C1278 0.950 . S
H1253 C1280 0.950 . S
H1254 C1283 0.950 . S
H1255 C1284 0.950 . S
H1256 C1286 0.950 . S
H1257 C1287 0.950 . S
C1258 H1240 0.951 . S
C1258 C1259 1.366 . S
C1258 C1260 1.388 . S
C1259 C1258 1.366 . S
C1259 C1263 1.385 . S
C1260 H1241 0.951 . S
C1260 C1258 1.388 . S
C1260 C1261 1.366 . S
C1261 C1260 1.366 . S
C1261 C1262 1.414 . S
C1261 C1264 1.499 . S
C1262 H1242 0.950 . S
C1262 C1261 1.414 . S
C1262 C1263 1.374 . S
C1263 H1243 0.950 . S
C1263 C1259 1.385 . S
C1263 C1262 1.374 . S
C1264 C1261 1.499 . S
C1264 C1265 1.373 . S
C1264 C1266 1.389 1_655 S
C1265 H1244 0.950 . S
C1265 C1264 1.373 . S
C1265 C1281 1.377 . S
C1266 C1264 1.389 1_455 S
C1266 C1267 1.524 . S
C1266 C1280 1.377 . S
C1267 C1266 1.524 . S
C1267 C1268 1.397 . S
C1267 C1272 1.363 . S
C1268 H1245 0.950 . S
C1268 C1267 1.397 . S
C1268 C1269 1.334 . S
C1269 H1246 0.950 . S
C1269 C1268 1.334 . S
C1269 C1270 1.287 . S
C1270 C1269 1.287 . S
C1270 C1271 1.524 . S
C1270 H1289 0.913 . S
C1271 H1247 0.966 . S
C1271 C1270 1.524 . S
C1271 C1272 1.415 . S
C1272 H1248 0.950 1_556 S
C1272 C1267 1.363 . S
C1272 C1271 1.415 . S
C1273 H1249 0.954 . S
C1273 C1274 1.360 1_656 S
C1273 C1275 1.391 . S
C1274 C1273 1.360 1_454 S
C1274 C1278 1.385 . S
C1275 H1250 0.951 . S
C1275 C1273 1.391 . S
C1275 C1276 1.366 1_655 S
C1276 C1275 1.366 1_455 S
C1276 C1277 1.414 1_556 S
C1276 C1279 1.499 1_455 S
C1277 H1251 0.950 . S
C1277 C1276 1.414 1_554 S
C1277 C1278 1.374 . S
C1278 H1252 0.950 . S
C1278 C1274 1.385 . S
C1278 C1277 1.374 . S
C1279 C1276 1.499 1_655 S
C1279 C1280 1.373 1_655 S
C1279 C1281 1.389 . S
C1280 H1253 0.950 . S
C1280 C1266 1.377 . S
C1280 C1279 1.373 1_455 S
C1281 C1265 1.377 . S
C1281 C1279 1.389 . S
C1281 C1282 1.524 . S
C1282 C1281 1.524 . S
C1282 C1283 1.397 1_556 S
C1282 C1287 1.363 . S
C1283 H1254 0.950 . S
C1283 C1282 1.397 1_554 S
C1283 C1284 1.334 . S
C1284 H1255 0.950 . S
C1284 C1283 1.334 . S
C1284 C1285 1.287 1_554 S
C1285 C1284 1.287 1_556 S
C1285 C1286 1.524 . S
C1285 H1288 0.999 . S
C1286 H1256 0.950 . S
C1286 C1285 1.524 . S
C1286 C1287 1.415 . S
C1287 H1257 0.950 . S
C1287 C1282 1.363 . S
C1287 C1286 1.415 . S
H1288 C1285 0.999 . S
H1289 C1270 0.913 . S
H1290 C1308 0.951 . S
H1291 C1310 0.951 . S
H1292 C1312 0.950 . S
H1293 C1313 0.950 . S
H1294 C1315 0.950 . S
H1295 C1318 0.950 . S
H1296 C1319 0.950 . S
H1297 C1321 0.950 . S
H1298 C1322 0.950 . S
H1299 C1323 0.951 . S
H1300 C1325 0.951 . S
H1301 C1327 0.950 . S
H1302 C1328 0.950 . S
H1303 C1330 0.950 . S
H1304 C1333 0.950 . S
H1305 C1334 0.950 . S
H1306 C1336 0.950 . S
H1307 C1337 0.950 . S
C1308 H1290 0.951 . S
C1308 C1309 1.366 . S
C1308 C1310 1.388 . S
C1309 C1308 1.366 . S
C1309 C1313 1.385 . S
C1310 H1291 0.951 . S
C1310 C1308 1.388 . S
C1310 C1311 1.366 . S
C1311 C1310 1.366 . S
C1311 C1312 1.414 . S
C1311 C1314 1.499 . S
C1312 H1292 0.950 . S
C1312 C1311 1.414 . S
C1312 C1313 1.374 . S
C1313 H1293 0.950 . S
C1313 C1309 1.385 . S
C1313 C1312 1.374 . S
C1314 C1311 1.499 . S
C1314 C1315 1.373 . S
C1314 C1316 1.389 . S
C1315 H1294 0.950 . S
C1315 C1314 1.373 . S
C1315 C1331 1.377 . S
C1316 C1314 1.389 . S
C1316 C1317 1.524 . S
C1316 C1330 1.377 . S
C1317 C1316 1.524 . S
C1317 C1318 1.397 . S
C1317 C1322 1.363 . S
C1318 H1295 0.950 . S
C1318 C1317 1.397 . S
C1318 C1319 1.334 . S
C1319 H1296 0.950 . S
C1319 C1318 1.334 . S
C1319 C1320 1.287 1_554 S
C1320 C1319 1.287 1_556 S
C1320 C1321 1.524 . S
C1320 H1339 0.913 . S
C1321 H1297 0.950 . S
C1321 C1320 1.524 . S
C1321 C1322 1.415 1_556 S
C1322 H1298 0.950 . S
C1322 C1317 1.363 . S
C1322 C1321 1.415 1_554 S
C1323 H1299 0.951 . S
C1323 C1324 1.366 . S
C1323 C1325 1.388 . S
C1324 C1323 1.366 . S
C1324 C1328 1.385 . S
C1325 H1300 0.951 . S
C1325 C1323 1.388 . S
C1325 C1326 1.366 . S
C1326 C1325 1.366 . S
C1326 C1327 1.414 . S
C1326 C1329 1.499 . S
C1327 H1301 0.950 . S
C1327 C1326 1.414 . S
C1327 C1328 1.374 . S
C1328 H1302 0.950 . S
C1328 C1324 1.385 . S
C1328 C1327 1.374 . S
C1329 C1326 1.499 . S
C1329 C1330 1.373 . S
C1329 C1331 1.389 . S
C1330 H1303 0.950 . S
C1330 C1316 1.377 . S
C1330 C1329 1.373 . S
C1331 C1315 1.377 . S
C1331 C1329 1.389 . S
C1331 C1332 1.524 . S
C1332 C1331 1.524 . S
C1332 C1333 1.397 . S
C1332 C1337 1.363 . S
C1333 H1304 0.950 . S
C1333 C1332 1.397 . S
C1333 C1334 1.334 . S
C1334 H1305 0.950 . S
C1334 C1333 1.334 . S
C1334 C1335 1.287 . S
C1335 C1334 1.287 . S
C1335 C1336 1.524 . S
C1335 H1338 0.999 . S
C1336 H1306 0.950 . S
C1336 C1335 1.524 . S
C1336 C1337 1.415 . S
C1337 H1307 0.950 . S
C1337 C1332 1.363 . S
C1337 C1336 1.415 . S
H1338 C1335 0.999 . S
H1339 C1320 0.913 . S
H1340 C1358 0.951 . S
H1341 C1360 0.951 . S
H1342 C1362 0.950 . S
H1343 C1363 0.950 . S
H1344 C1365 0.950 . S
H1345 C1368 0.950 . S
H1346 C1369 0.950 . S
H1347 C1371 0.950 . S
H1348 C1372 0.950 . S
H1349 C1373 0.951 . S
H1350 C1375 0.951 . S
H1351 C1377 0.950 . S
H1352 C1378 0.950 . S
H1353 C1380 0.950 . S
H1354 C1383 0.950 . S
H1355 C1384 0.950 . S
H1356 C1386 0.950 . S
H1357 C1387 0.950 . S
C1358 H1340 0.951 . S
C1358 C1359 1.366 . S
C1358 C1360 1.388 . S
C1359 C1358 1.366 . S
C1359 C1363 1.385 . S
C1360 H1341 0.951 . S
C1360 C1358 1.388 . S
C1360 C1361 1.366 . S
C1361 C1360 1.366 . S
C1361 C1362 1.414 . S
C1361 C1364 1.499 . S
C1362 H1342 0.950 . S
C1362 C1361 1.414 . S
C1362 C1363 1.374 . S
C1363 H1343 0.950 . S
C1363 C1359 1.385 . S
C1363 C1362 1.374 . S
C1364 C1361 1.499 . S
C1364 C1365 1.373 . S
C1364 C1366 1.389 . S
C1365 H1344 0.950 . S
C1365 C1364 1.373 . S
C1365 C1381 1.377 . S
C1366 C1364 1.389 . S
C1366 C1367 1.524 . S
C1366 C1380 1.377 . S
C1367 C1366 1.524 . S
C1367 C1368 1.397 . S
C1367 C1372 1.363 . S
C1368 H1345 0.950 . S
C1368 C1367 1.397 . S
C1368 C1369 1.334 . S
C1369 H1346 0.950 . S
C1369 C1368 1.334 . S
C1369 C1370 1.287 . S
C1370 C1369 1.287 . S
C1370 C1371 1.524 . S
C1370 H1389 0.913 . S
C1371 H1347 0.950 . S
C1371 C1370 1.524 . S
C1371 C1372 1.415 . S
C1372 H1348 0.950 . S
C1372 C1367 1.363 . S
C1372 C1371 1.415 . S
C1373 H1349 0.951 . S
C1373 C1374 1.366 . S
C1373 C1375 1.388 . S
C1374 C1373 1.366 . S
C1374 C1378 1.385 . S
C1375 H1350 0.951 . S
C1375 C1373 1.388 . S
C1375 C1376 1.366 . S
C1376 C1375 1.366 . S
C1376 C1377 1.414 . S
C1376 C1379 1.499 . S
C1377 H1351 0.950 . S
C1377 C1376 1.414 . S
C1377 C1378 1.374 . S
C1378 H1352 0.950 . S
C1378 C1374 1.385 . S
C1378 C1377 1.374 . S
C1379 C1376 1.499 . S
C1379 C1380 1.373 . S
C1379 C1381 1.389 . S
C1380 H1353 0.950 . S
C1380 C1366 1.377 . S
C1380 C1379 1.373 . S
C1381 C1365 1.377 . S
C1381 C1379 1.389 . S
C1381 C1382 1.524 . S
C1382 C1381 1.524 . S
C1382 C1383 1.397 . S
C1382 C1387 1.363 . S
C1383 H1354 0.950 . S
C1383 C1382 1.397 . S
C1383 C1384 1.334 . S
C1384 H1355 0.950 . S
C1384 C1383 1.334 . S
C1384 C1385 1.287 . S
C1385 C1384 1.287 . S
C1385 C1386 1.524 . S
C1385 H1388 0.999 . S
C1386 H1356 0.950 . S
C1386 C1385 1.524 . S
C1386 C1387 1.415 . S
C1387 H1357 0.950 . S
C1387 C1382 1.363 . S
C1387 C1386 1.415 . S
H1388 C1385 0.999 . S
H1389 C1370 0.913 . S
H1390 C1408 0.951 . S
H1391 C1410 0.951 . S
H1392 C1412 0.950 . S
H1393 C1413 0.950 . S
H1394 C1415 0.950 . S
H1395 C1418 0.950 . S
H1396 C1419 0.950 . S
H1397 C1421 0.950 . S
H1398 C1422 0.950 . S
H1399 C1423 0.951 . S
H1400 C1425 0.951 . S
H1401 C1427 0.950 . S
H1402 C1428 0.950 . S
H1403 C1430 0.950 . S
H1404 C1433 0.950 . S
H1405 C1434 0.950 . S
H1406 C1436 0.950 . S
H1407 C1437 0.950 . S
C1408 H1390 0.951 . S
C1408 C1409 1.366 . S
C1408 C1410 1.388 . S
C1409 C1408 1.366 . S
C1409 C1413 1.385 . S
C1410 H1391 0.951 . S
C1410 C1408 1.388 . S
C1410 C1411 1.366 . S
C1411 C1410 1.366 . S
C1411 C1412 1.414 . S
C1411 C1414 1.499 . S
C1412 H1392 0.950 . S
C1412 C1411 1.414 . S
C1412 C1413 1.374 . S
C1413 H1393 0.950 . S
C1413 C1409 1.385 . S
C1413 C1412 1.374 . S
C1414 C1411 1.499 . S
C1414 C1415 1.373 . S
C1414 C1416 1.389 . S
C1415 H1394 0.950 . S
C1415 C1414 1.373 . S
C1415 C1431 1.377 . S
C1416 C1414 1.389 . S
C1416 C1417 1.524 . S
C1416 C1430 1.377 . S
C1417 C1416 1.524 . S
C1417 C1418 1.397 . S
C1417 C1422 1.363 . S
C1418 H1395 0.950 . S
C1418 C1417 1.397 . S
C1418 C1419 1.334 . S
C1419 H1396 0.950 . S
C1419 C1418 1.334 . S
C1419 C1420 1.287 . S
C1420 C1419 1.287 . S
C1420 C1421 1.524 . S
C1420 H1439 0.913 . S
C1421 H1397 0.950 . S
C1421 C1420 1.524 . S
C1421 C1422 1.415 . S
C1422 H1398 0.950 . S
C1422 C1417 1.363 . S
C1422 C1421 1.415 . S
C1423 H1399 0.951 . S
C1423 C1424 1.366 . S
C1423 C1425 1.388 . S
C1424 C1423 1.366 . S
C1424 C1428 1.385 . S
C1425 H1400 0.951 . S
C1425 C1423 1.388 . S
C1425 C1426 1.366 . S
C1426 C1425 1.366 . S
C1426 C1427 1.414 . S
C1426 C1429 1.499 . S
C1427 H1401 0.950 . S
C1427 C1426 1.414 . S
C1427 C1428 1.374 . S
C1428 H1402 0.950 . S
C1428 C1424 1.385 . S
C1428 C1427 1.374 . S
C1429 C1426 1.499 . S
C1429 C1430 1.373 . S
C1429 C1431 1.389 . S
C1430 H1403 0.950 . S
C1430 C1416 1.377 . S
C1430 C1429 1.373 . S
C1431 C1415 1.377 . S
C1431 C1429 1.389 . S
C1431 C1432 1.524 . S
C1432 C1431 1.524 . S
C1432 C1433 1.397 . S
C1432 C1437 1.363 . S
C1433 H1404 0.950 . S
C1433 C1432 1.397 . S
C1433 C1434 1.334 . S
C1434 H1405 0.950 . S
C1434 C1433 1.334 . S
C1434 C1435 1.287 . S
C1435 C1434 1.287 . S
C1435 C1436 1.524 . S
C1435 H1438 0.999 . S
C1436 H1406 0.950 . S
C1436 C1435 1.524 . S
C1436 C1437 1.415 . S
C1437 H1407 0.950 . S
C1437 C1432 1.363 . S
C1437 C1436 1.415 . S
H1438 C1435 0.999 . S
H1439 C1420 0.913 . S
C259 C9 2.838 . S
C274 C104 2.850 . S
C309 C21 2.214 . S
C324 C146 2.220 1_565 S
C374 C176 0.630 . S
C359 C30 0.638 . S
C409 C43 0.747 . S
C424 C210 0.736 1_655 S
C474 C167 1.774 . S
C459 C4 1.753 . S
C524 C121 2.437 1_565 S
C509 C22 2.430 . S
C574 C214 0.888 . S
C559 C34 0.884 . S
C624 C180 1.120 . S
C609 C48 1.104 . S
C659 C8 2.284 . S
C674 C235 2.295 . S
C724 C142 1.150 . S
C709 C35 1.146 . S
C759 C47 1.136 . S
C774 C117 1.147 . S
C809 C17 1.886 . S
C824 C201 1.917 . S
C874 C133 2.351 1_665 S
C859 C60 2.339 . S
C909 C74 2.592 . S
C924 C155 2.606 . S
C959 C82 0.465 . S
C974 C185 0.459 . S
C1009 C100 1.287 . S
C1024 C219 1.299 . S
C1059 C61 2.240 . S
C1074 C138 2.243 1_566 S
C1124 C112 1.944 . S
C1109 C73 1.932 . S
C1174 C223 1.441 . S
C1159 C87 1.439 . S
C1224 C189 0.761 . S
C1209 C95 0.759 . S
C1259 C56 2.245 . S
C1274 C206 2.353 . S
C1324 C151 1.165 . S
C1309 C86 1.156 . S
C1374 C108 1.024 . S
C1359 C99 1.015 . S
C1409 C69 2.030 . S
C1424 C172 2.060 . S
