# Generated by pormake.
# Topology anh, (6,3)-cn, num edge types: 1
# Building blocks:
#     Node 0, Type 0, BuildingBlock: PAMTUU_clean_sbu_0, # of connection points: 6
#     Node 1, Type 0, BuildingBlock: PAMTUU_clean_sbu_0, # of connection points: 6
#     Node 2, Type 0, BuildingBlock: PAMTUU_clean_sbu_0, # of connection points: 6
#     Node 3, Type 1, BuildingBlock: BETDIP_clean_linker_0, # of connection points: 3
#     Node 4, Type 1, BuildingBlock: BETDIP_clean_linker_0, # of connection points: 3
#     Node 5, Type 1, BuildingBlock: BETDIP_clean_linker_0, # of connection points: 3
#     Node 6, Type 1, BuildingBlock: BETDIP_clean_linker_0, # of connection points: 3
#     Node 7, Type 1, BuildingBlock: BETDIP_clean_linker_0, # of connection points: 3
#     Node 8, Type 1, BuildingBlock: BETDIP_clean_linker_0, # of connection points: 3
#     Edge 9, Type (0, 1), BuildingBlock: CIFDUS_clean_linker_0, # of connection points: 2
#     Edge 10, Type (0, 1), BuildingBlock: CIFDUS_clean_linker_0, # of connection points: 2
#     Edge 11, Type (0, 1), BuildingBlock: CIFDUS_clean_linker_0, # of connection points: 2
#     Edge 12, Type (0, 1), BuildingBlock: CIFDUS_clean_linker_0, # of connection points: 2
#     Edge 13, Type (0, 1), BuildingBlock: CIFDUS_clean_linker_0, # of connection points: 2
#     Edge 14, Type (0, 1), BuildingBlock: CIFDUS_clean_linker_0, # of connection points: 2
#     Edge 15, Type (0, 1), BuildingBlock: CIFDUS_clean_linker_0, # of connection points: 2
#     Edge 16, Type (0, 1), BuildingBlock: CIFDUS_clean_linker_0, # of connection points: 2
#     Edge 17, Type (0, 1), BuildingBlock: CIFDUS_clean_linker_0, # of connection points: 2
#     Edge 18, Type (0, 1), BuildingBlock: CIFDUS_clean_linker_0, # of connection points: 2
#     Edge 19, Type (0, 1), BuildingBlock: CIFDUS_clean_linker_0, # of connection points: 2
#     Edge 20, Type (0, 1), BuildingBlock: CIFDUS_clean_linker_0, # of connection points: 2
#     Edge 21, Type (0, 1), BuildingBlock: CIFDUS_clean_linker_0, # of connection points: 2
#     Edge 22, Type (0, 1), BuildingBlock: CIFDUS_clean_linker_0, # of connection points: 2
#     Edge 23, Type (0, 1), BuildingBlock: CIFDUS_clean_linker_0, # of connection points: 2
#     Edge 24, Type (0, 1), BuildingBlock: CIFDUS_clean_linker_0, # of connection points: 2
#     Edge 25, Type (0, 1), BuildingBlock: CIFDUS_clean_linker_0, # of connection points: 2
#     Edge 26, Type (0, 1), BuildingBlock: CIFDUS_clean_linker_0, # of connection points: 2
# Relax obj value: 0.299
# Max RMSD: 0.173
# Mean RMSD: 0.121
data_MOF--net-anh--node1-PAMTUU_clean_sbu_0--node2-BETDIP_clean_linker_0--edge1-CIFDUS_clean_linker_0
_symmetry_space_group_name_H-M    P1
_symmetry_Int_Tables_number       1
_symmetry_cell_setting            triclinic
loop_
_symmetry_equiv_pos_as_xyz
'x, y, z'
_cell_length_a     25.909963
_cell_length_b     25.813523
_cell_length_c     43.94165
_cell_angle_alpha  92.608413
_cell_angle_beta   93.576644
_cell_angle_gamma 119.86615
loop_
_atom_site_label
_atom_site_type_symbol
_atom_site_fract_x
_atom_site_fract_y
_atom_site_fract_z
_atom_type_partial_charge
Tb0 Tb 0.17732 0.78337 0.14743 0.0
Tb1 Tb 0.26563 0.73275 0.16791 0.0
C2 C 0.24296 0.75136 0.09985 0.0
C3 C 1.03686 0.7748 0.12716 0.0
C4 C 0.92165 0.67346 0.11998 0.0
C5 C 0.94705 0.70455 0.09462 0.0
C6 C 1.00404 0.75533 0.09823 0.0
C7 C 1.00908 0.74662 0.15291 0.0
C8 C 0.95164 0.69646 0.14932 0.0
C9 C 1.1025 0.81242 0.12882 0.0
O10 O 1.12025 0.68484 0.1417 0.0
O11 O 0.1763 0.66208 0.1748 0.0
O12 O 0.24553 0.76332 0.21047 0.0
O13 O 1.15797 0.75958 0.19341 0.0
O14 O 0.2768 0.65842 0.17185 0.0
O15 O 0.3483 0.74731 0.18787 0.0
O16 O 0.32433 0.82567 0.15826 0.0
O17 O 0.26139 0.86198 0.16729 0.0
O18 O 0.23257 0.79299 0.11072 0.0
O19 O 0.2474 0.71454 0.11807 0.0
C20 C 1.12574 0.64665 0.15859 0.0
O21 O 1.13167 0.83015 0.15607 0.0
O22 O 1.1271 0.7915 0.1107 0.0
C23 C 0.19547 0.76224 0.21567 0.0
C24 C 0.37367 0.67595 0.16975 0.0
C25 C 0.44101 0.63399 0.14072 0.0
C26 C 0.4186 0.61316 0.16865 0.0
C27 C 0.38527 0.6341 0.18307 0.0
C28 C 0.3971 0.69812 0.14222 0.0
C29 C 0.43103 0.67754 0.12788 0.0
C30 C 0.33213 0.69077 0.18343 0.0
C31 C 0.31573 0.87077 0.16514 0.0
H32 H 0.9243 0.68743 0.0718 0.0
H33 H 1.0246 0.77603 0.07805 0.0
H34 H 1.0333 0.76009 0.1755 0.0
H35 H 0.93278 0.67278 0.16914 0.0
H36 H 0.42623 0.58006 0.17914 0.0
H37 H 0.36705 0.6163 0.20421 0.0
H38 H 0.38774 0.72989 0.13146 0.0
H39 H 0.44756 0.69393 0.10624 0.0
Tb40 Tb 0.64709 0.14813 0.48939 0.0
Tb41 Tb 0.78908 0.19405 0.4927 0.0
C42 C 0.71222 0.17928 0.43062 0.0
C43 C 0.48533 1.0767 0.50386 0.0
C44 C 0.37429 0.99003 0.52139 0.0
C45 C 0.38256 1.04473 0.51175 0.0
C46 C 0.43757 1.08754 0.50304 0.0
C47 C 0.4795 1.02513 0.5163 0.0
C48 C 0.42423 0.98204 0.52511 0.0
C49 C 0.538 0.11675 0.48874 0.0
O50 O 0.65431 1.06804 0.49603 0.0
O51 O 0.74766 1.09759 0.48021 0.0
O52 O 0.76039 0.14986 0.5346 0.0
O53 O 0.67787 0.16008 0.53741 0.0
O54 O 0.86681 0.21964 0.47024 0.0
O55 O 0.8715 0.22953 0.51935 0.0
O56 O 0.77788 0.26713 0.5117 0.0
O57 O 0.69216 0.24418 0.48307 0.0
O58 O 0.66482 0.14039 0.44277 0.0
O59 O 0.76337 0.21264 0.44751 0.0
C60 C 0.69581 1.05565 0.48822 0.0
O61 O 0.58052 0.16306 0.50552 0.0
O62 O 0.55865 1.09123 0.47078 0.0
C63 C 0.71665 0.14657 0.54955 0.0
C64 C 0.93806 0.31362 0.49497 0.0
C65 C 0.96566 0.42991 0.48101 0.0
C66 C 0.98369 0.39618 0.46289 0.0
C67 C 0.96904 0.33813 0.46953 0.0
C68 C 0.92969 0.35108 0.51582 0.0
C69 C 0.94267 0.40808 0.50881 0.0
C70 C 0.90103 0.24784 0.49544 0.0
C71 C 0.74127 0.28371 0.49975 0.0
H72 H 0.34531 1.05249 0.50822 0.0
H73 H 0.44164 0.12744 0.49372 0.0
H74 H 0.5165 1.01663 0.51754 0.0
H75 H 0.41959 0.94084 0.53288 0.0
H76 H 1.00532 0.41245 0.44234 0.0
H77 H 0.9772 0.31067 0.45337 0.0
H78 H 0.9071 0.33436 0.53613 0.0
H79 H 0.92913 0.43187 0.52418 0.0
Tb80 Tb 0.74501 0.6015 0.81677 0.0
Tb81 Tb 0.83521 0.744 0.83685 0.0
C82 C 0.79331 0.69246 0.76814 0.0
C83 C 0.66849 0.43529 0.81188 0.0
C84 C 0.65651 0.32556 0.827 0.0
C85 C 0.60738 0.3281 0.81323 0.0
C86 C 0.6134 0.38249 0.80577 0.0
C87 C 0.71737 0.43383 0.82658 0.0
C88 C 0.71149 0.3791 0.83396 0.0
C89 C 0.67299 0.49147 0.80373 0.0
O90 O 0.83479 0.61289 0.81482 0.0
O91 O 0.89585 0.70855 0.83867 0.0
O92 O 0.79328 0.69852 0.87703 0.0
O93 O 0.78558 0.60965 0.86207 0.0
O94 O 0.87724 0.83306 0.8256 0.0
O95 O 0.89079 0.81254 0.87132 0.0
O96 O 0.74712 0.73513 0.82819 0.0
O97 O 0.68746 0.6346 0.83289 0.0
O98 O 0.7451 0.64893 0.77765 0.0
O99 O 0.83962 0.72857 0.78772 0.0
C100 C 0.88769 0.65687 0.8269 0.0
O101 O 0.66872 0.52327 0.82625 0.0
O102 O 0.7156 0.52417 0.78691 0.0
C103 C 0.78658 0.64648 0.88363 0.0
C104 C 0.87446 0.89435 0.86526 0.0
C105 C 0.79244 0.93492 0.86512 0.0
C106 C 0.84199 0.9623 0.84804 0.0
C107 C 0.88297 0.94212 0.84816 0.0
C108 C 0.83175 0.87541 0.88667 0.0
C109 C 0.7914 0.89642 0.8869 0.0
C110 C 0.89596 0.85439 0.85407 0.0
C111 C 0.69479 0.68866 0.83202 0.0
H112 H 0.56479 0.28764 0.8069 0.0
H113 H 0.57517 0.38319 0.79474 0.0
H114 H 0.76002 0.47474 0.83192 0.0
H115 H 0.75003 0.37845 0.84455 0.0
H116 H 0.84424 0.99297 0.83144 0.0
H117 H 0.91604 0.95799 0.83178 0.0
H118 H 0.82447 0.83906 0.90047 0.0
H119 H 0.75404 0.87526 0.90061 0.0
H120 H 0.66518 0.21562 0.1627 0.0
H121 H 0.78427 0.30268 0.24485 0.0
H122 H 0.62017 0.13599 0.24801 0.0
H123 H 0.85191 0.31678 0.20431 0.0
C124 C 0.83411 0.33979 0.19092 0.0
C125 C 0.6758 0.21675 0.18705 0.0
C126 C 0.6355 0.17032 0.20385 0.0
C127 C 0.73022 0.26439 0.20165 0.0
C128 C 0.74358 0.26535 0.23336 0.0
C129 C 0.70387 0.21977 0.25052 0.0
C130 C 0.65023 0.17254 0.23537 0.0
N131 N 0.77063 0.31172 0.1846 0.0
H132 H 0.74882 0.63851 0.49561 0.0
H133 H 0.75254 0.73352 0.57985 0.0
H134 H 0.75838 0.57069 0.58243 0.0
H135 H 0.67908 0.74106 0.54456 0.0
C136 C 0.71071 0.76177 0.5277 0.0
C137 C 0.75135 0.64255 0.52037 0.0
C138 C 0.75495 0.59859 0.5371 0.0
C139 C 0.7497 0.69118 0.53559 0.0
C140 C 0.75337 0.69638 0.56785 0.0
C141 C 0.75671 0.65312 0.58473 0.0
C142 C 0.75742 0.60474 0.56923 0.0
N143 N 0.74424 0.73441 0.51842 0.0
H144 H 0.23797 0.66087 0.83246 0.0
H145 H 0.33331 0.67448 0.91928 0.0
H146 H 1.16715 0.67466 0.9165 0.0
H147 H 0.41359 0.73537 0.88667 0.0
C148 C 0.39893 0.69809 0.86936 0.0
C149 C 0.24113 0.664 0.85724 0.0
C150 C 0.19615 0.66684 0.87261 0.0
C151 C 0.29125 0.66711 0.87394 0.0
C152 C 0.29527 0.67221 0.90622 0.0
C153 C 0.2508 0.67515 0.92177 0.0
C154 C 0.20144 0.67202 0.9047 0.0
N155 N 0.33694 0.66472 0.85819 0.0
H156 H 1.01376 0.74965 0.45788 0.0
H157 H 0.9618 0.72289 0.36109 0.0
H158 H 1.14333 0.7791 0.39483 0.0
H159 H 0.8605 0.69594 0.45059 0.0
C160 C 0.89273 0.68686 0.44056 0.0
C161 C 1.02472 0.74877 0.43455 0.0
C162 C 1.08285 0.76312 0.42914 0.0
C163 C 0.9809 0.73385 0.40995 0.0
C164 C 0.99608 0.73492 0.3798 0.0
C165 C 1.05453 0.74979 0.37392 0.0
C166 C 1.09738 0.76418 0.39887 0.0
N167 N 0.92143 0.71821 0.41526 0.0
H168 H 0.55045 0.96683 0.78512 0.0
H169 H 0.51696 0.90336 0.68988 0.0
H170 H 0.65867 1.08204 0.71987 0.0
H171 H 0.44143 0.81936 0.78326 0.0
C172 C 0.48252 0.8455 0.77274 0.0
C173 C 0.5628 0.97382 0.76197 0.0
C174 C 0.60997 1.02946 0.75567 0.0
C175 C 0.52971 0.92784 0.73842 0.0
C176 C 0.54337 0.93826 0.70812 0.0
C177 C 0.59146 0.99341 0.70149 0.0
C178 C 0.62447 1.03829 0.72539 0.0
N179 N 0.48133 0.8718 0.74508 0.0
H180 H 0.54845 0.37469 0.09039 0.0
H181 H 0.6703 0.3897 0.02516 0.0
H182 H 0.59941 0.50915 0.02626 0.0
H183 H 0.67202 0.29256 0.07866 0.0
C184 C 0.6692 0.33314 0.07927 0.0
C185 C 0.57232 0.39592 0.07107 0.0
C186 C 0.57084 0.44567 0.06035 0.0
C187 C 0.60818 0.37593 0.05845 0.0
C188 C 0.64186 0.40491 0.03439 0.0
C189 C 0.63955 0.4536 0.02268 0.0
C190 C 0.60323 0.473 0.03565 0.0
N191 N 0.61302 0.32889 0.07142 0.0
H192 H 0.40461 0.51653 0.1288 0.0
H193 H 0.54752 0.69406 0.11629 0.0
H194 H 0.60043 0.65112 0.09039 0.0
H195 H 0.60678 0.56346 0.07263 0.0
H196 H 0.4616 0.3855 0.08299 0.0
H197 H 0.40934 0.42844 0.10926 0.0
C198 C 0.4475 0.54571 0.12051 0.0
C199 C 0.47252 0.60826 0.12455 0.0
C200 C 0.47725 0.52073 0.10553 0.0
C201 C 0.52749 0.64575 0.11329 0.0
C202 C 0.55774 0.62125 0.09863 0.0
C203 C 0.56323 0.53392 0.08015 0.0
C204 C 0.53808 0.47128 0.07573 0.0
C205 C 0.53303 0.55883 0.0947 0.0
C206 C 0.48231 0.43383 0.08637 0.0
C207 C 0.45223 0.45833 0.10123 0.0
H208 H 0.96171 0.5227 0.51341 0.0
H209 H 0.95807 0.45432 0.42082 0.0
H210 H 0.93757 0.52836 0.40088 0.0
H211 H 0.91214 0.60693 0.40882 0.0
H212 H 0.90046 0.66547 0.50021 0.0
H213 H 0.93021 0.59671 0.52133 0.0
C214 C 0.9554 0.52245 0.48883 0.0
C215 C 0.9616 0.48149 0.46904 0.0
C216 C 0.9389 0.56239 0.47712 0.0
C217 C 0.95551 0.48529 0.43719 0.0
C218 C 0.94241 0.52716 0.42548 0.0
C219 C 0.9165 0.60481 0.43338 0.0
C220 C 0.90552 0.6418 0.45309 0.0
C221 C 0.9328 0.56497 0.44517 0.0
C222 C 0.90927 0.6375 0.48474 0.0
C223 C 0.92669 0.59866 0.49675 0.0
H224 H 0.74292 0.89834 0.80774 0.0
H225 H 0.71162 0.95244 0.89567 0.0
H226 H 0.60969 0.92509 0.87528 0.0
H227 H 0.5288 0.8826 0.83212 0.0
H228 H 0.56415 0.83027 0.74481 0.0
H229 H 0.66506 0.85822 0.76555 0.0
C230 C 0.71439 0.90569 0.82229 0.0
C231 C 0.73503 0.92881 0.85289 0.0
C232 C 0.65615 0.88835 0.81073 0.0
C233 C 0.69686 0.93587 0.87183 0.0
C234 C 0.6386 0.9197 0.86025 0.0
C235 C 0.55861 0.87665 0.81797 0.0
C236 C 0.53962 0.85431 0.78713 0.0
C237 C 0.61743 0.89487 0.82983 0.0
C238 C 0.57826 0.8473 0.76864 0.0
C239 C 0.63593 0.86375 0.78039 0.0
H240 H 0.91188 0.57796 0.08741 0.0
H241 H 0.81489 0.63368 0.14375 0.0
H242 H 0.72854 0.53142 0.13749 0.0
H243 H 0.68099 0.42695 0.11538 0.0
H244 H 0.77931 0.37015 0.06079 0.0
H245 H 0.86632 0.47198 0.06781 0.0
C246 C 0.87144 0.56758 0.09797 0.0
C247 C 0.86868 0.61292 0.11545 0.0
C248 C 0.82307 0.5087 0.09496 0.0
C249 C 0.81722 0.5992 0.12993 0.0
C250 C 0.76824 0.54093 0.12646 0.0
C251 C 0.72155 0.4371 0.10502 0.0
C252 C 0.72384 0.39207 0.08701 0.0
C253 C 0.77073 0.49545 0.109 0.0
C254 C 0.77689 0.40464 0.07454 0.0
C255 C 0.82619 0.46276 0.07832 0.0
H256 H 0.33388 0.87577 0.49831 0.0
H257 H 0.27479 0.98814 0.54138 0.0
H258 H 0.17203 0.91796 0.52034 0.0
H259 H 1.10639 0.84018 0.4793 0.0
H260 H 1.16699 0.72946 0.43593 0.0
H261 H 0.26173 0.783 0.46813 0.0
C262 C 0.29839 0.88381 0.50437 0.0
C263 C 0.3124 0.93834 0.52042 0.0
C264 C 0.23984 0.84425 0.49149 0.0
C265 C 0.26542 0.9474 0.52819 0.0
C266 C 0.20666 0.90743 0.51604 0.0
C267 C 1.1394 0.82626 0.47771 0.0
C268 C 1.13072 0.78243 0.45458 0.0
C269 C 0.19427 0.85803 0.49591 0.0
C270 C 0.17362 0.76446 0.45297 0.0
C271 C 0.22774 0.795 0.47137 0.0
H272 H 0.73579 0.29152 0.81179 0.0
H273 H 0.56491 0.226 0.84772 0.0
H274 H 0.53967 0.12287 0.83399 0.0
H275 H 0.55599 1.05608 0.8001 0.0
H276 H 0.72712 0.12066 0.76435 0.0
H277 H 0.76286 0.21984 0.79027 0.0
C278 C 0.69412 0.25471 0.81784 0.0
C279 C 0.6513 0.26622 0.82968 0.0
C280 C 0.67935 0.1956 0.80923 0.0
C281 C 0.59776 0.21806 0.83767 0.0
C282 C 0.58324 0.15913 0.82975 0.0
C283 C 0.602 1.0908 0.79894 0.0
C284 C 0.63796 1.08151 0.77922 0.0
C285 C 0.62205 0.14777 0.81362 0.0
C286 C 0.69763 0.12733 0.77837 0.0
C287 C 0.71819 0.18405 0.79324 0.0
H288 H 0.76887 1.00924 0.4753 0.0
H289 H 0.60359 0.96469 0.51363 0.0
H290 H 0.59356 0.8705 0.52805 0.0
H291 H 0.63381 0.80257 0.53275 0.0
H292 H 0.79698 0.84345 0.49374 0.0
H293 H 0.80553 0.93651 0.47664 0.0
C294 C 0.73024 0.97865 0.48646 0.0
C295 C 0.68717 0.99483 0.49332 0.0
C296 C 0.72449 0.92373 0.49482 0.0
C297 C 0.63752 0.95409 0.50785 0.0
C298 C 0.63176 0.89998 0.5163 0.0
C299 C 0.67102 0.83161 0.52024 0.0
C300 C 0.71476 0.81605 0.51464 0.0
C301 C 0.67532 0.88471 0.51034 0.0
C302 C 0.76257 0.85409 0.49832 0.0
C303 C 0.76752 0.90749 0.48862 0.0
H304 H 1.00668 0.73913 0.82741 0.0
H305 H 0.8854 0.55102 0.83408 0.0
H306 H 0.97016 0.53579 0.8463 0.0
H307 H 1.07926 0.57813 0.85993 0.0
H308 H 0.20013 0.76508 0.85088 0.0
H309 H 1.11572 0.77853 0.83449 0.0
C310 C 0.9988 0.69462 0.83113 0.0
C311 C 0.9395 0.64638 0.83002 0.0
C312 C 1.04796 0.68602 0.83777 0.0
C313 C 0.93035 0.58894 0.83464 0.0
C314 C 0.97893 0.58025 0.84181 0.0
C315 C 1.08702 0.62132 0.8535 0.0
C316 C 1.14597 0.67046 0.85623 0.0
C317 C 1.03798 0.62865 0.84403 0.0
C318 C 1.15536 0.72646 0.84843 0.0
C319 C 1.10698 0.73424 0.83935 0.0
H320 H 0.42664 0.91764 0.14396 0.0
H321 H 0.32466 0.96272 0.20255 0.0
H322 H 0.41314 1.06036 0.21828 0.0
H323 H 0.52158 0.13087 0.21811 0.0
H324 H 0.62279 1.08923 0.1575 0.0
H325 H 0.53296 0.99324 0.13958 0.0
C326 C 0.42367 0.94904 0.15998 0.0
C327 C 0.36885 0.93234 0.17222 0.0
C328 C 0.4748 1.006 0.16856 0.0
C329 C 0.36591 0.9741 0.19268 0.0
C330 C 0.4167 1.03003 0.2018 0.0
C331 C 0.52363 1.10118 0.20056 0.0
C332 C 0.57891 0.1173 0.18913 0.0
C333 C 0.4716 1.04622 0.19023 0.0
C334 C 0.58083 1.0783 0.16643 0.0
C335 C 0.52949 1.02312 0.15639 0.0
H336 H 0.68538 0.342 0.47469 0.0
H337 H 0.82724 0.36818 0.54171 0.0
H338 H 0.8489 0.4696 0.55602 0.0
H339 H 0.82315 0.54872 0.55286 0.0
H340 H 0.67975 0.52385 0.48761 0.0
H341 H 0.66406 0.42549 0.46906 0.0
C342 C 0.72116 0.36996 0.49234 0.0
C343 C 0.75455 0.34678 0.50702 0.0
C344 C 0.73319 0.42889 0.50091 0.0
C345 C 0.80094 0.38429 0.52973 0.0
C346 C 0.81331 0.44256 0.53811 0.0
C347 C 0.78866 0.52202 0.53441 0.0
C348 C 0.75228 0.54375 0.52196 0.0
C349 C 0.77912 0.465 0.5243 0.0
C350 C 0.70868 0.50875 0.49762 0.0
C351 C 0.69927 0.45205 0.4872 0.0
H352 H 0.57255 0.6106 0.82102 0.0
H353 H 0.70345 0.79008 0.85765 0.0
H354 H 0.62437 0.80776 0.87286 0.0
H355 H 0.5181 0.77371 0.8756 0.0
H356 H 0.38481 0.59688 0.83658 0.0
H357 H 0.46391 0.57774 0.8213 0.0
C358 C 0.58364 0.65387 0.83196 0.0
C359 C 0.6444 0.69904 0.83836 0.0
C360 C 0.53724 0.66478 0.83959 0.0
C361 C 0.65757 0.75479 0.85237 0.0
C362 C 0.61218 0.7651 0.86091 0.0
C363 C 0.50628 0.73104 0.86356 0.0
C364 C 0.44554 0.68676 0.85737 0.0
C365 C 0.55193 0.72066 0.85462 0.0
C366 C 0.43109 0.6319 0.84156 0.0
C367 C 0.47645 0.62088 0.83293 0.0
H368 H 1.00258 0.60303 0.15071 0.0
H369 H 1.13377 0.55008 0.17234 0.0
H370 H 1.05542 0.45133 0.18248 0.0
H371 H 0.95104 0.38118 0.18875 0.0
H372 H 0.81659 0.42923 0.16772 0.0
H373 H 0.89418 0.52815 0.15461 0.0
C374 C 1.01381 0.56956 0.15722 0.0
C375 C 1.07458 0.58469 0.16092 0.0
C376 C 0.96783 0.51182 0.16349 0.0
C377 C 1.0879 0.54047 0.16957 0.0
C378 C 1.04297 0.48363 0.1754 0.0
C379 C 0.93847 0.41294 0.18081 0.0
C380 C 0.8781 0.3977 0.17929 0.0
C381 C 0.98304 0.46911 0.17299 0.0
C382 C 0.86264 0.43947 0.16897 0.0
C383 C 0.90713 0.49613 0.16138 0.0
H384 H 0.26802 0.67435 0.06667 0.0
H385 H 0.22787 0.81687 0.05726 0.0
H386 H 0.22848 0.80672 0.00221 0.0
H387 H 0.23686 0.75606 0.95619 0.0
H388 H 0.27785 0.61433 0.96378 0.0
H389 H 0.2812 0.62599 0.01977 0.0
C390 C 0.25975 0.70336 0.05258 0.0
C391 C 0.24763 0.74611 0.06636 0.0
C392 C 0.26022 0.69747 0.02046 0.0
C393 C 0.23728 0.78346 0.04758 0.0
C394 C 0.23748 0.77772 0.01592 0.0
C395 C 0.24637 0.72757 0.97009 0.0
C396 C 0.25641 0.68397 0.95583 0.0
C397 C 0.24824 0.73457 0.00208 0.0
C398 C 0.27 0.6483 0.97421 0.0
C399 C 0.27165 0.6548 0.00621 0.0
H400 H 0.79704 0.22562 0.38914 0.0
H401 H 0.60875 0.15256 0.39815 0.0
H402 H 0.59073 0.16161 0.34438 0.0
H403 H 0.62651 0.18761 0.29444 0.0
H404 H 0.81278 0.2549 0.28284 0.0
H405 H 0.83344 0.25217 0.3377 0.0
C406 C 0.75223 0.21199 0.37929 0.0
C407 C 0.70436 0.18795 0.39777 0.0
C408 C 0.74161 0.21642 0.34778 0.0
C409 C 0.64648 0.17045 0.38456 0.0
C410 C 0.63597 0.17578 0.35372 0.0
C411 C 0.67163 0.2011 0.3037 0.0
C412 C 0.71774 0.2209 0.28424 0.0
C413 C 0.68293 0.19802 0.33504 0.0
C414 C 0.77624 0.23985 0.29714 0.0
C415 C 0.78809 0.23789 0.32857 0.0
H416 H 0.71461 0.61143 0.72318 0.0
H417 H 0.87588 0.78435 0.7373 0.0
H418 H 0.87748 0.78936 0.68165 0.0
H419 H 0.83362 0.74242 0.62859 0.0
H420 H 0.67507 0.56742 0.61633 0.0
H421 H 0.67161 0.56558 0.67165 0.0
C422 C 0.75012 0.65059 0.71427 0.0
C423 C 0.795 0.69759 0.73455 0.0
C424 C 0.75116 0.65266 0.68246 0.0
C425 C 0.84079 0.7475 0.7223 0.0
C426 C 0.84165 0.75036 0.69046 0.0
C427 C 0.79821 0.70425 0.63818 0.0
C428 C 0.75461 0.65503 0.61847 0.0
C429 C 0.79718 0.70299 0.67026 0.0
C430 C 0.70921 0.60556 0.63107 0.0
C431 C 0.70721 0.60452 0.66268 0.0
H432 H 0.60841 1.07812 0.56904 0.0
H433 H 0.79657 0.1493 0.59445 0.0
H434 H 0.7737 1.10254 0.64296 0.0
H435 H 0.70007 1.0464 0.67911 0.0
H436 H 0.5121 0.9748 0.65273 0.0
H437 H 0.5349 1.0154 0.60301 0.0
C438 C 0.64452 1.08375 0.58529 0.0
C439 C 0.70424 0.11836 0.57867 0.0
C440 C 0.63091 1.056 0.61263 0.0
C441 C 0.75038 0.12355 0.59935 0.0
C442 C 0.73726 1.09672 0.62696 0.0
C443 C 0.66414 1.03914 0.66227 0.0
C444 C 0.6045 1.00796 0.66959 0.0
C445 C 0.6777 1.06347 0.63397 0.0
C446 C 0.55824 0.99814 0.64753 0.0
C447 C 0.57132 1.02196 0.61927 0.0
H448 H 0.75479 0.53524 0.89925 0.0
H449 H 0.78028 0.70537 0.93593 0.0
H450 H 0.74189 0.6616 0.98366 0.0
H451 H 0.69501 0.57311 0.01322 0.0
H452 H 0.66107 0.40164 0.97308 0.0
H453 H 0.71047 0.44865 0.92862 0.0
C454 C 0.75265 0.56329 0.9177 0.0
C455 C 0.77021 0.6236 0.91393 0.0
C456 C 0.72898 0.5375 0.94446 0.0
C457 C 0.76699 0.65887 0.93821 0.0
C458 C 0.74486 0.63377 0.96543 0.0
C459 C 0.69793 0.5458 -0.00532 0.0
C460 C 0.67374 0.48358 -0.0034 0.0
C461 C 0.72451 0.57275 0.96851 0.0
C462 C 0.67971 0.44955 0.97262 0.0
C463 C 0.70754 0.47632 0.94697 0.0
H464 H 1.11284 0.7868 0.23624 0.0
H465 H 0.23753 0.72997 0.26571 0.0
H466 H 0.20204 0.71755 0.31662 0.0
H467 H 1.13419 0.72053 0.35208 0.0
H468 H 1.01529 0.78536 0.32378 0.0
H469 H 1.04825 0.79433 0.27254 0.0
C470 C 1.13248 0.7719 0.25382 0.0
C471 C 0.17779 0.75929 0.24718 0.0
C472 C 1.11216 0.76525 0.28303 0.0
C473 C 0.20296 0.74042 0.27028 0.0
C474 C 0.18238 0.73291 0.29932 0.0
C475 C 1.11597 0.73757 0.33496 0.0
C476 C 1.07226 0.75241 0.34209 0.0
C477 C 1.13685 0.74497 0.30587 0.0
C478 C 1.04815 0.7726 0.31906 0.0
C479 C 1.06753 0.77847 0.28977 0.0
loop_
_geom_bond_atom_site_label_1
_geom_bond_atom_site_label_2
_geom_bond_distance
_geom_bond_site_symmetry_2
_ccdc_geom_bond_type
Tb0 C9 2.764 1_455 S
Tb0 O10 2.325 1_455 S
Tb0 O13 2.303 . S
Tb0 O17 2.322 . S
Tb0 O18 2.349 . S
Tb0 O21 2.415 1_455 S
Tb0 O22 2.399 1_455 S
Tb1 O11 2.322 . S
Tb1 O12 2.349 . S
Tb1 O14 2.415 . S
Tb1 O15 2.399 . S
Tb1 O16 2.325 . S
Tb1 O19 2.303 . S
Tb1 C30 2.764 . S
C2 O18 1.261 . S
C2 O19 1.257 . S
C3 C6 1.358 . S
C3 C7 1.332 . S
C3 C9 1.504 . S
C4 C5 1.373 . S
C4 C8 1.308 . S
C5 C4 1.373 . S
C5 C6 1.429 . S
C5 H32 0.932 . S
C6 C3 1.358 . S
C6 C5 1.429 . S
C6 H33 0.930 . S
C7 C3 1.332 . S
C7 C8 1.394 . S
C7 H34 0.932 . S
C8 C4 1.308 . S
C8 C7 1.394 . S
C8 H35 0.929 . S
C9 Tb0 2.764 1_655 S
C9 C3 1.504 . S
C9 O21 1.239 . S
C9 O22 1.263 . S
O10 Tb0 2.325 1_655 S
O10 C20 1.236 . S
O11 Tb1 2.322 . S
O11 C20 1.257 1_455 S
O12 Tb1 2.349 . S
O12 C23 1.261 . S
O13 Tb0 2.303 . S
O13 C23 1.257 . S
O14 Tb1 2.415 . S
O14 C30 1.239 . S
O15 Tb1 2.399 . S
O15 C30 1.263 . S
O16 Tb1 2.325 . S
O16 C31 1.236 . S
O17 Tb0 2.322 . S
O17 C31 1.257 . S
O18 Tb0 2.349 . S
O18 C2 1.261 . S
O19 Tb1 2.303 . S
O19 C2 1.257 . S
C20 O10 1.236 . S
C20 O11 1.257 1_655 S
O21 Tb0 2.415 1_655 S
O21 C9 1.239 . S
O22 Tb0 2.399 1_655 S
O22 C9 1.263 . S
C23 O12 1.261 . S
C23 O13 1.257 . S
C24 C27 1.358 . S
C24 C28 1.332 . S
C24 C30 1.504 . S
C25 C26 1.373 . S
C25 C29 1.308 . S
C26 C25 1.373 . S
C26 C27 1.429 . S
C26 H36 0.932 . S
C27 C24 1.358 . S
C27 C26 1.429 . S
C27 H37 0.930 . S
C28 C24 1.332 . S
C28 C29 1.394 . S
C28 H38 0.932 . S
C29 C25 1.308 . S
C29 C28 1.394 . S
C29 H39 0.929 . S
C30 Tb1 2.764 . S
C30 O14 1.239 . S
C30 O15 1.263 . S
C30 C24 1.504 . S
C31 O16 1.236 . S
C31 O17 1.257 . S
H32 C5 0.932 . S
H33 C6 0.930 . S
H34 C7 0.932 . S
H35 C8 0.929 . S
H36 C26 0.932 . S
H37 C27 0.930 . S
H38 C28 0.932 . S
H39 C29 0.929 . S
Tb40 C49 2.764 1_545 S
Tb40 O50 2.325 1_545 S
Tb40 O53 2.303 . S
Tb40 O57 2.322 . S
Tb40 O58 2.349 . S
Tb40 O61 2.415 1_545 S
Tb40 O62 2.399 1_545 S
Tb41 O51 2.322 . S
Tb41 O52 2.349 . S
Tb41 O54 2.415 . S
Tb41 O55 2.399 . S
Tb41 O56 2.325 . S
Tb41 O59 2.303 . S
Tb41 C70 2.764 . S
C42 O58 1.261 . S
C42 O59 1.257 . S
C43 C46 1.358 . S
C43 C47 1.332 . S
C43 C49 1.504 . S
C44 C45 1.373 . S
C44 C48 1.308 . S
C45 C44 1.373 . S
C45 C46 1.429 . S
C45 H72 0.932 . S
C46 C43 1.358 . S
C46 C45 1.429 . S
C46 H73 0.930 . S
C47 C43 1.332 . S
C47 C48 1.394 . S
C47 H74 0.932 . S
C48 C44 1.308 . S
C48 C47 1.394 . S
C48 H75 0.929 . S
C49 Tb40 2.764 1_565 S
C49 C43 1.504 . S
C49 O61 1.239 . S
C49 O62 1.263 . S
O50 Tb40 2.325 1_565 S
O50 C60 1.236 . S
O51 Tb41 2.322 . S
O51 C60 1.257 1_545 S
O52 Tb41 2.349 . S
O52 C63 1.261 . S
O53 Tb40 2.303 . S
O53 C63 1.257 . S
O54 Tb41 2.415 . S
O54 C70 1.239 . S
O55 Tb41 2.399 . S
O55 C70 1.263 . S
O56 Tb41 2.325 . S
O56 C71 1.236 . S
O57 Tb40 2.322 . S
O57 C71 1.257 . S
O58 Tb40 2.349 . S
O58 C42 1.261 . S
O59 Tb41 2.303 . S
O59 C42 1.257 . S
C60 O50 1.236 . S
C60 O51 1.257 1_565 S
O61 Tb40 2.415 1_565 S
O61 C49 1.239 . S
O62 Tb40 2.399 1_565 S
O62 C49 1.263 . S
C63 O52 1.261 . S
C63 O53 1.257 . S
C64 C67 1.358 . S
C64 C68 1.332 . S
C64 C70 1.504 . S
C65 C66 1.373 . S
C65 C69 1.308 . S
C66 C65 1.373 . S
C66 C67 1.429 . S
C66 H76 0.932 . S
C67 C64 1.358 . S
C67 C66 1.429 . S
C67 H77 0.930 . S
C68 C64 1.332 . S
C68 C69 1.394 . S
C68 H78 0.932 . S
C69 C65 1.308 . S
C69 C68 1.394 . S
C69 H79 0.929 . S
C70 Tb41 2.764 . S
C70 O54 1.239 . S
C70 O55 1.263 . S
C70 C64 1.504 . S
C71 O56 1.236 . S
C71 O57 1.257 . S
H72 C45 0.932 . S
H73 C46 0.930 . S
H74 C47 0.932 . S
H75 C48 0.929 . S
H76 C66 0.932 . S
H77 C67 0.930 . S
H78 C68 0.932 . S
H79 C69 0.929 . S
Tb80 C89 2.764 . S
Tb80 O90 2.325 . S
Tb80 O93 2.303 . S
Tb80 O97 2.322 . S
Tb80 O98 2.349 . S
Tb80 O101 2.415 . S
Tb80 O102 2.399 . S
Tb81 O91 2.322 . S
Tb81 O92 2.349 . S
Tb81 O94 2.415 . S
Tb81 O95 2.399 . S
Tb81 O96 2.325 . S
Tb81 O99 2.303 . S
Tb81 C110 2.764 . S
C82 O98 1.261 . S
C82 O99 1.257 . S
C83 C86 1.358 . S
C83 C87 1.332 . S
C83 C89 1.504 . S
C84 C85 1.373 . S
C84 C88 1.308 . S
C85 C84 1.373 . S
C85 C86 1.429 . S
C85 H112 0.932 . S
C86 C83 1.358 . S
C86 C85 1.429 . S
C86 H113 0.930 . S
C87 C83 1.332 . S
C87 C88 1.394 . S
C87 H114 0.932 . S
C88 C84 1.308 . S
C88 C87 1.394 . S
C88 H115 0.929 . S
C89 Tb80 2.764 . S
C89 C83 1.504 . S
C89 O101 1.239 . S
C89 O102 1.263 . S
O90 Tb80 2.325 . S
O90 C100 1.236 . S
O91 Tb81 2.322 . S
O91 C100 1.257 . S
O92 Tb81 2.349 . S
O92 C103 1.261 . S
O93 Tb80 2.303 . S
O93 C103 1.257 . S
O94 Tb81 2.415 . S
O94 C110 1.239 . S
O95 Tb81 2.399 . S
O95 C110 1.263 . S
O96 Tb81 2.325 . S
O96 C111 1.236 . S
O97 Tb80 2.322 . S
O97 C111 1.257 . S
O98 Tb80 2.349 . S
O98 C82 1.261 . S
O99 Tb81 2.303 . S
O99 C82 1.257 . S
C100 O90 1.236 . S
C100 O91 1.257 . S
O101 Tb80 2.415 . S
O101 C89 1.239 . S
O102 Tb80 2.399 . S
O102 C89 1.263 . S
C103 O92 1.261 . S
C103 O93 1.257 . S
C104 C107 1.358 . S
C104 C108 1.332 . S
C104 C110 1.504 . S
C105 C106 1.373 . S
C105 C109 1.308 . S
C106 C105 1.373 . S
C106 C107 1.429 . S
C106 H116 0.932 . S
C107 C104 1.358 . S
C107 C106 1.429 . S
C107 H117 0.930 . S
C108 C104 1.332 . S
C108 C109 1.394 . S
C108 H118 0.932 . S
C109 C105 1.308 . S
C109 C108 1.394 . S
C109 H119 0.929 . S
C110 Tb81 2.764 . S
C110 O94 1.239 . S
C110 O95 1.263 . S
C110 C104 1.504 . S
C111 O96 1.236 . S
C111 O97 1.257 . S
H112 C85 0.932 . S
H113 C86 0.930 . S
H114 C87 0.932 . S
H115 C88 0.929 . S
H116 C106 0.932 . S
H117 C107 0.930 . S
H118 C108 0.932 . S
H119 C109 0.929 . S
H120 C125 0.930 . S
H121 C128 0.930 . S
H122 C130 0.930 1_565 S
H123 C124 1.016 . S
C124 H123 1.016 . S
C124 N131 1.286 . S
C125 H120 0.930 . S
C125 C126 1.395 1_545 S
C125 C127 1.361 . S
C126 C125 1.395 1_565 S
C126 C130 1.389 1_565 S
C127 C125 1.361 . S
C127 C128 1.393 . S
C127 N131 1.413 . S
C128 H121 0.930 . S
C128 C127 1.393 . S
C128 C129 1.399 . S
C129 C128 1.399 . S
C129 C130 1.381 . S
C130 H122 0.930 1_545 S
C130 C126 1.389 1_545 S
C130 C129 1.381 . S
N131 C124 1.286 . S
N131 C127 1.413 . S
H132 C137 0.930 . S
H133 C140 0.930 . S
H134 C142 0.930 . S
H135 C136 1.016 . S
C136 H135 1.016 . S
C136 N143 1.286 . S
C137 H132 0.930 . S
C137 C138 1.397 . S
C137 C139 1.361 . S
C138 C137 1.397 . S
C138 C142 1.390 . S
C139 C137 1.361 . S
C139 C140 1.393 . S
C139 N143 1.413 . S
C140 H133 0.930 . S
C140 C139 1.393 . S
C140 C141 1.399 . S
C141 C140 1.399 . S
C141 C142 1.381 . S
C142 H134 0.930 . S
C142 C138 1.390 . S
C142 C141 1.381 . S
N143 C136 1.286 . S
N143 C139 1.413 . S
H144 C149 0.930 . S
H145 C152 0.930 . S
H146 C154 0.930 . S
H147 C148 1.016 . S
C148 H147 1.016 . S
C148 N155 1.286 . S
C149 H144 0.930 . S
C149 C150 1.397 1_455 S
C149 C151 1.361 . S
C150 C149 1.397 1_655 S
C150 C154 1.390 . S
C151 C149 1.361 . S
C151 C152 1.393 . S
C151 N155 1.413 . S
C152 H145 0.930 . S
C152 C151 1.393 . S
C152 C153 1.399 . S
C153 C152 1.399 . S
C153 C154 1.381 1_455 S
C154 H146 0.930 . S
C154 C150 1.390 . S
C154 C153 1.381 1_655 S
N155 C148 1.286 . S
N155 C151 1.413 . S
H156 C161 0.930 . S
H157 C164 0.930 . S
H158 C166 0.930 . S
H159 C160 1.016 . S
C160 H159 1.016 . S
C160 N167 1.286 . S
C161 H156 0.930 . S
C161 C162 1.397 . S
C161 C163 1.361 1_455 S
C162 C161 1.397 . S
C162 C166 1.390 . S
C163 C161 1.361 1_655 S
C163 C164 1.393 . S
C163 N167 1.413 . S
C164 H157 0.930 . S
C164 C163 1.393 . S
C164 C165 1.399 1_655 S
C165 C164 1.399 1_455 S
C165 C166 1.381 . S
C166 H158 0.930 . S
C166 C162 1.390 . S
C166 C165 1.381 . S
N167 C160 1.286 . S
N167 C163 1.413 . S
H168 C173 0.930 . S
H169 C176 0.930 . S
H170 C178 0.930 . S
H171 C172 1.016 . S
C172 H171 1.016 . S
C172 N179 1.286 . S
C173 H168 0.930 . S
C173 C174 1.397 . S
C173 C175 1.361 . S
C174 C173 1.397 . S
C174 C178 1.390 . S
C175 C173 1.361 . S
C175 C176 1.393 1_545 S
C175 N179 1.413 1_545 S
C176 H169 0.930 . S
C176 C175 1.393 1_565 S
C176 C177 1.399 1_565 S
C177 C176 1.399 1_545 S
C177 C178 1.381 . S
C178 H170 0.930 . S
C178 C174 1.390 . S
C178 C177 1.381 . S
N179 C172 1.286 . S
N179 C175 1.413 1_565 S
H180 C185 0.930 . S
H181 C188 0.930 . S
H182 C190 0.930 . S
H183 C184 1.016 . S
C184 H183 1.016 . S
C184 N191 1.286 . S
C185 H180 0.930 . S
C185 C186 1.397 . S
C185 C187 1.361 . S
C186 C185 1.397 . S
C186 C190 1.390 . S
C187 C185 1.361 . S
C187 C188 1.393 . S
C187 N191 1.413 . S
C188 H181 0.930 . S
C188 C187 1.393 . S
C188 C189 1.399 . S
C189 C188 1.399 . S
C189 C190 1.381 . S
C190 H182 0.930 . S
C190 C186 1.390 . S
C190 C189 1.381 . S
N191 C184 1.286 . S
N191 C187 1.413 . S
H192 C198 0.930 . S
H193 C201 0.930 . S
H194 C202 0.930 . S
H195 C203 0.930 . S
H196 C206 0.930 . S
H197 C207 0.930 . S
C198 H192 0.930 . S
C198 C199 1.355 . S
C198 C200 1.415 . S
C199 C198 1.355 . S
C199 C201 1.419 . S
C200 C198 1.415 . S
C200 C205 1.425 . S
C200 C207 1.409 . S
C201 H193 0.930 . S
C201 C199 1.419 . S
C201 C202 1.362 . S
C202 H194 0.930 . S
C202 C201 1.362 . S
C202 C205 1.409 . S
C203 H195 0.930 . S
C203 C204 1.355 . S
C203 C205 1.415 . S
C204 C203 1.355 . S
C204 C206 1.419 . S
C205 C200 1.425 . S
C205 C202 1.409 . S
C205 C203 1.415 . S
C206 H196 0.930 . S
C206 C204 1.419 . S
C206 C207 1.362 . S
C207 H197 0.930 . S
C207 C200 1.409 . S
C207 C206 1.362 . S
H208 C214 0.930 . S
H209 C217 0.930 . S
H210 C218 0.930 . S
H211 C219 0.930 . S
H212 C222 0.930 . S
H213 C223 0.930 . S
C214 H208 0.930 . S
C214 C215 1.355 . S
C214 C216 1.415 . S
C215 C214 1.355 . S
C215 C217 1.419 . S
C216 C214 1.415 . S
C216 C221 1.425 . S
C216 C223 1.409 . S
C217 H209 0.930 . S
C217 C215 1.419 . S
C217 C218 1.362 . S
C218 H210 0.930 . S
C218 C217 1.362 . S
C218 C221 1.409 . S
C219 H211 0.930 . S
C219 C220 1.355 . S
C219 C221 1.415 . S
C220 C219 1.355 . S
C220 C222 1.419 . S
C221 C216 1.425 . S
C221 C218 1.409 . S
C221 C219 1.415 . S
C222 H212 0.930 . S
C222 C220 1.419 . S
C222 C223 1.362 . S
C223 H213 0.930 . S
C223 C216 1.409 . S
C223 C222 1.362 . S
H224 C230 0.930 . S
H225 C233 0.930 . S
H226 C234 0.930 . S
H227 C235 0.930 . S
H228 C238 0.930 . S
H229 C239 0.930 . S
C230 H224 0.930 . S
C230 C231 1.355 . S
C230 C232 1.415 . S
C231 C230 1.355 . S
C231 C233 1.419 . S
C232 C230 1.415 . S
C232 C237 1.425 . S
C232 C239 1.409 . S
C233 H225 0.930 . S
C233 C231 1.419 . S
C233 C234 1.362 . S
C234 H226 0.930 . S
C234 C233 1.362 . S
C234 C237 1.409 . S
C235 H227 0.930 . S
C235 C236 1.355 . S
C235 C237 1.415 . S
C236 C235 1.355 . S
C236 C238 1.419 . S
C237 C232 1.425 . S
C237 C234 1.409 . S
C237 C235 1.415 . S
C238 H228 0.930 . S
C238 C236 1.419 . S
C238 C239 1.362 . S
C239 H229 0.930 . S
C239 C232 1.409 . S
C239 C238 1.362 . S
H240 C246 0.930 . S
H241 C249 0.930 . S
H242 C250 0.930 . S
H243 C251 0.930 . S
H244 C254 0.930 . S
H245 C255 0.930 . S
C246 H240 0.930 . S
C246 C247 1.355 . S
C246 C248 1.415 . S
C247 C246 1.355 . S
C247 C249 1.419 . S
C248 C246 1.415 . S
C248 C253 1.425 . S
C248 C255 1.409 . S
C249 H241 0.930 . S
C249 C247 1.419 . S
C249 C250 1.362 . S
C250 H242 0.930 . S
C250 C249 1.362 . S
C250 C253 1.409 . S
C251 H243 0.930 . S
C251 C252 1.355 . S
C251 C253 1.415 . S
C252 C251 1.355 . S
C252 C254 1.419 . S
C253 C248 1.425 . S
C253 C250 1.409 . S
C253 C251 1.415 . S
C254 H244 0.930 . S
C254 C252 1.419 . S
C254 C255 1.362 . S
C255 H245 0.930 . S
C255 C248 1.409 . S
C255 C254 1.362 . S
H256 C262 0.930 . S
H257 C265 0.930 . S
H258 C266 0.930 . S
H259 C267 0.930 . S
H260 C270 0.930 . S
H261 C271 0.930 . S
C262 H256 0.930 . S
C262 C263 1.355 . S
C262 C264 1.415 . S
C263 C262 1.355 . S
C263 C265 1.419 . S
C264 C262 1.415 . S
C264 C269 1.425 . S
C264 C271 1.409 . S
C265 H257 0.930 . S
C265 C263 1.419 . S
C265 C266 1.362 . S
C266 H258 0.930 . S
C266 C265 1.362 . S
C266 C269 1.409 . S
C267 H259 0.930 . S
C267 C268 1.355 . S
C267 C269 1.415 . S
C268 C267 1.355 . S
C268 C270 1.419 . S
C269 C264 1.425 . S
C269 C266 1.409 . S
C269 C267 1.415 . S
C270 H260 0.930 . S
C270 C268 1.419 . S
C270 C271 1.362 . S
C271 H261 0.930 . S
C271 C264 1.409 . S
C271 C270 1.362 . S
H272 C278 0.930 . S
H273 C281 0.930 . S
H274 C282 0.930 . S
H275 C283 0.930 . S
H276 C286 0.930 . S
H277 C287 0.930 . S
C278 H272 0.930 . S
C278 C279 1.355 . S
C278 C280 1.415 . S
C279 C278 1.355 . S
C279 C281 1.419 . S
C280 C278 1.415 . S
C280 C285 1.425 . S
C280 C287 1.409 . S
C281 H273 0.930 . S
C281 C279 1.419 . S
C281 C282 1.362 . S
C282 H274 0.930 . S
C282 C281 1.362 . S
C282 C285 1.409 . S
C283 H275 0.930 . S
C283 C284 1.355 . S
C283 C285 1.415 . S
C284 C283 1.355 . S
C284 C286 1.419 . S
C285 C280 1.425 . S
C285 C282 1.409 . S
C285 C283 1.415 . S
C286 H276 0.930 . S
C286 C284 1.419 . S
C286 C287 1.362 . S
C287 H277 0.930 . S
C287 C280 1.409 . S
C287 C286 1.362 . S
H288 C294 0.930 . S
H289 C297 0.930 . S
H290 C298 0.930 . S
H291 C299 0.930 . S
H292 C302 0.930 . S
H293 C303 0.930 . S
C294 H288 0.930 . S
C294 C295 1.355 . S
C294 C296 1.415 . S
C295 C294 1.355 . S
C295 C297 1.419 . S
C296 C294 1.415 . S
C296 C301 1.425 . S
C296 C303 1.409 . S
C297 H289 0.930 . S
C297 C295 1.419 . S
C297 C298 1.362 . S
C298 H290 0.930 . S
C298 C297 1.362 . S
C298 C301 1.409 . S
C299 H291 0.930 . S
C299 C300 1.355 . S
C299 C301 1.415 . S
C300 C299 1.355 . S
C300 C302 1.419 . S
C301 C296 1.425 . S
C301 C298 1.409 . S
C301 C299 1.415 . S
C302 H292 0.930 . S
C302 C300 1.419 . S
C302 C303 1.362 . S
C303 H293 0.930 . S
C303 C296 1.409 . S
C303 C302 1.362 . S
H304 C310 0.930 . S
H305 C313 0.930 . S
H306 C314 0.930 . S
H307 C315 0.930 . S
H308 C318 0.930 . S
H309 C319 0.930 . S
C310 H304 0.930 . S
C310 C311 1.355 . S
C310 C312 1.415 . S
C311 C310 1.355 . S
C311 C313 1.419 . S
C312 C310 1.415 . S
C312 C317 1.425 . S
C312 C319 1.409 . S
C313 H305 0.930 . S
C313 C311 1.419 . S
C313 C314 1.362 . S
C314 H306 0.930 . S
C314 C313 1.362 . S
C314 C317 1.409 . S
C315 H307 0.930 . S
C315 C316 1.355 . S
C315 C317 1.415 . S
C316 C315 1.355 . S
C316 C318 1.419 . S
C317 C312 1.425 . S
C317 C314 1.409 . S
C317 C315 1.415 . S
C318 H308 0.930 . S
C318 C316 1.419 . S
C318 C319 1.362 . S
C319 H309 0.930 . S
C319 C312 1.409 . S
C319 C318 1.362 . S
H320 C326 0.930 . S
H321 C329 0.930 . S
H322 C330 0.930 . S
H323 C331 0.930 . S
H324 C334 0.930 . S
H325 C335 0.930 . S
C326 H320 0.930 . S
C326 C327 1.355 . S
C326 C328 1.415 . S
C327 C326 1.355 . S
C327 C329 1.419 . S
C328 C326 1.415 . S
C328 C333 1.425 . S
C328 C335 1.409 . S
C329 H321 0.930 . S
C329 C327 1.419 . S
C329 C330 1.362 . S
C330 H322 0.930 . S
C330 C329 1.362 . S
C330 C333 1.409 . S
C331 H323 0.930 . S
C331 C332 1.355 . S
C331 C333 1.415 . S
C332 C331 1.355 . S
C332 C334 1.419 . S
C333 C328 1.425 . S
C333 C330 1.409 . S
C333 C331 1.415 . S
C334 H324 0.930 . S
C334 C332 1.419 . S
C334 C335 1.362 . S
C335 H325 0.930 . S
C335 C328 1.409 . S
C335 C334 1.362 . S
H336 C342 0.930 . S
H337 C345 0.930 . S
H338 C346 0.930 . S
H339 C347 0.930 . S
H340 C350 0.930 . S
H341 C351 0.930 . S
C342 H336 0.930 . S
C342 C343 1.355 . S
C342 C344 1.415 . S
C343 C342 1.355 . S
C343 C345 1.419 . S
C344 C342 1.415 . S
C344 C349 1.425 . S
C344 C351 1.409 . S
C345 H337 0.930 . S
C345 C343 1.419 . S
C345 C346 1.362 . S
C346 H338 0.930 . S
C346 C345 1.362 . S
C346 C349 1.409 . S
C347 H339 0.930 . S
C347 C348 1.355 . S
C347 C349 1.415 . S
C348 C347 1.355 . S
C348 C350 1.419 . S
C349 C344 1.425 . S
C349 C346 1.409 . S
C349 C347 1.415 . S
C350 H340 0.930 . S
C350 C348 1.419 . S
C350 C351 1.362 . S
C351 H341 0.930 . S
C351 C344 1.409 . S
C351 C350 1.362 . S
H352 C358 0.930 . S
H353 C361 0.930 . S
H354 C362 0.930 . S
H355 C363 0.930 . S
H356 C366 0.930 . S
H357 C367 0.930 . S
C358 H352 0.930 . S
C358 C359 1.355 . S
C358 C360 1.415 . S
C359 C358 1.355 . S
C359 C361 1.419 . S
C360 C358 1.415 . S
C360 C365 1.425 . S
C360 C367 1.409 . S
C361 H353 0.930 . S
C361 C359 1.419 . S
C361 C362 1.362 . S
C362 H354 0.930 . S
C362 C361 1.362 . S
C362 C365 1.409 . S
C363 H355 0.930 . S
C363 C364 1.355 . S
C363 C365 1.415 . S
C364 C363 1.355 . S
C364 C366 1.419 . S
C365 C360 1.425 . S
C365 C362 1.409 . S
C365 C363 1.415 . S
C366 H356 0.930 . S
C366 C364 1.419 . S
C366 C367 1.362 . S
C367 H357 0.930 . S
C367 C360 1.409 . S
C367 C366 1.362 . S
H368 C374 0.930 . S
H369 C377 0.930 . S
H370 C378 0.930 . S
H371 C379 0.930 . S
H372 C382 0.930 . S
H373 C383 0.930 . S
C374 H368 0.930 . S
C374 C375 1.355 . S
C374 C376 1.415 . S
C375 C374 1.355 . S
C375 C377 1.419 . S
C376 C374 1.415 . S
C376 C381 1.425 . S
C376 C383 1.409 . S
C377 H369 0.930 . S
C377 C375 1.419 . S
C377 C378 1.362 . S
C378 H370 0.930 . S
C378 C377 1.362 . S
C378 C381 1.409 . S
C379 H371 0.930 . S
C379 C380 1.355 . S
C379 C381 1.415 . S
C380 C379 1.355 . S
C380 C382 1.419 . S
C381 C376 1.425 . S
C381 C378 1.409 . S
C381 C379 1.415 . S
C382 H372 0.930 . S
C382 C380 1.419 . S
C382 C383 1.362 . S
C383 H373 0.930 . S
C383 C376 1.409 . S
C383 C382 1.362 . S
H384 C390 0.930 . S
H385 C393 0.930 . S
H386 C394 0.930 . S
H387 C395 0.930 . S
H388 C398 0.930 . S
H389 C399 0.930 . S
C390 H384 0.930 . S
C390 C391 1.355 . S
C390 C392 1.415 . S
C391 C390 1.355 . S
C391 C393 1.419 . S
C392 C390 1.415 . S
C392 C397 1.425 . S
C392 C399 1.409 1_554 S
C393 H385 0.930 . S
C393 C391 1.419 . S
C393 C394 1.362 . S
C394 H386 0.930 . S
C394 C393 1.362 . S
C394 C397 1.409 . S
C395 H387 0.930 . S
C395 C396 1.355 . S
C395 C397 1.415 1_556 S
C396 C395 1.355 . S
C396 C398 1.419 . S
C397 C392 1.425 . S
C397 C394 1.409 . S
C397 C395 1.415 1_554 S
C398 H388 0.930 . S
C398 C396 1.419 . S
C398 C399 1.362 . S
C399 H389 0.930 . S
C399 C392 1.409 1_556 S
C399 C398 1.362 . S
H400 C406 0.930 1_565 S
H401 C409 0.930 . S
H402 C410 0.930 . S
H403 C411 0.930 . S
H404 C414 0.930 1_565 S
H405 C415 0.930 . S
C406 H400 0.930 1_545 S
C406 C407 1.355 . S
C406 C408 1.415 . S
C407 C406 1.355 . S
C407 C409 1.419 . S
C408 C406 1.415 . S
C408 C413 1.425 . S
C408 C415 1.409 1_545 S
C409 H401 0.930 . S
C409 C407 1.419 . S
C409 C410 1.362 . S
C410 H402 0.930 . S
C410 C409 1.362 . S
C410 C413 1.409 . S
C411 H403 0.930 . S
C411 C412 1.355 . S
C411 C413 1.415 . S
C412 C411 1.355 . S
C412 C414 1.419 . S
C413 C408 1.425 . S
C413 C410 1.409 . S
C413 C411 1.415 . S
C414 H404 0.930 1_545 S
C414 C412 1.419 . S
C414 C415 1.362 1_545 S
C415 H405 0.930 . S
C415 C408 1.409 1_565 S
C415 C414 1.362 1_565 S
H416 C422 0.930 . S
H417 C425 0.930 . S
H418 C426 0.930 . S
H419 C427 0.930 . S
H420 C430 0.930 . S
H421 C431 0.930 . S
C422 H416 0.930 . S
C422 C423 1.355 . S
C422 C424 1.415 . S
C423 C422 1.355 . S
C423 C425 1.419 . S
C424 C422 1.415 . S
C424 C429 1.425 . S
C424 C431 1.409 . S
C425 H417 0.930 . S
C425 C423 1.419 . S
C425 C426 1.362 . S
C426 H418 0.930 . S
C426 C425 1.362 . S
C426 C429 1.409 . S
C427 H419 0.930 . S
C427 C428 1.355 . S
C427 C429 1.415 . S
C428 C427 1.355 . S
C428 C430 1.419 . S
C429 C424 1.425 . S
C429 C426 1.409 . S
C429 C427 1.415 . S
C430 H420 0.930 . S
C430 C428 1.419 . S
C430 C431 1.362 . S
C431 H421 0.930 . S
C431 C424 1.409 . S
C431 C430 1.362 . S
H432 C438 0.930 1_565 S
H433 C441 0.930 . S
H434 C442 0.930 . S
H435 C443 0.930 . S
H436 C446 0.930 . S
H437 C447 0.930 . S
C438 H432 0.930 1_545 S
C438 C439 1.355 . S
C438 C440 1.415 . S
C439 C438 1.355 . S
C439 C441 1.419 . S
C440 C438 1.415 . S
C440 C445 1.425 . S
C440 C447 1.409 1_545 S
C441 H433 0.930 . S
C441 C439 1.419 . S
C441 C442 1.362 . S
C442 H434 0.930 . S
C442 C441 1.362 . S
C442 C445 1.409 . S
C443 H435 0.930 . S
C443 C444 1.355 . S
C443 C445 1.415 . S
C444 C443 1.355 . S
C444 C446 1.419 1_545 S
C445 C440 1.425 . S
C445 C442 1.409 . S
C445 C443 1.415 . S
C446 H436 0.930 . S
C446 C444 1.419 1_565 S
C446 C447 1.362 . S
C447 H437 0.930 . S
C447 C440 1.409 1_565 S
C447 C446 1.362 . S
H448 C454 0.930 . S
H449 C457 0.930 . S
H450 C458 0.930 . S
H451 C459 0.930 . S
H452 C462 0.930 . S
H453 C463 0.930 . S
C454 H448 0.930 . S
C454 C455 1.355 . S
C454 C456 1.415 . S
C455 C454 1.355 . S
C455 C457 1.419 . S
C456 C454 1.415 . S
C456 C461 1.425 . S
C456 C463 1.409 . S
C457 H449 0.930 . S
C457 C455 1.419 . S
C457 C458 1.362 . S
C458 H450 0.930 . S
C458 C457 1.362 . S
C458 C461 1.409 . S
C459 H451 0.930 . S
C459 C460 1.355 . S
C459 C461 1.415 1_554 S
C460 C459 1.355 . S
C460 C462 1.419 . S
C461 C456 1.425 . S
C461 C458 1.409 . S
C461 C459 1.415 1_556 S
C462 H452 0.930 . S
C462 C460 1.419 . S
C462 C463 1.362 1_554 S
C463 H453 0.930 . S
C463 C456 1.409 . S
C463 C462 1.362 1_556 S
H464 C470 0.930 1_655 S
H465 C473 0.930 . S
H466 C474 0.930 . S
H467 C475 0.930 . S
H468 C478 0.930 . S
H469 C479 0.930 . S
C470 H464 0.930 1_455 S
C470 C471 1.355 . S
C470 C472 1.415 . S
C471 C470 1.355 . S
C471 C473 1.419 . S
C472 C470 1.415 . S
C472 C477 1.425 . S
C472 C479 1.409 1_455 S
C473 H465 0.930 . S
C473 C471 1.419 . S
C473 C474 1.362 . S
C474 H466 0.930 . S
C474 C473 1.362 . S
C474 C477 1.409 . S
C475 H467 0.930 . S
C475 C476 1.355 . S
C475 C477 1.415 . S
C476 C475 1.355 . S
C476 C478 1.419 1_455 S
C477 C472 1.425 . S
C477 C474 1.409 . S
C477 C475 1.415 . S
C478 H468 0.930 . S
C478 C476 1.419 1_655 S
C478 C479 1.362 . S
C479 H469 0.930 . S
C479 C472 1.409 1_655 S
C479 C478 1.362 . S
C199 C25 0.738 . S
C204 C186 0.672 . S
C215 C65 0.335 . S
C220 C160 0.372 . S
C231 C105 0.401 . S
C236 C172 0.374 . S
C247 C4 0.633 . S
C252 C184 0.385 . S
C268 C162 0.256 . S
C263 C44 0.263 . S
C284 C174 0.191 . S
C279 C84 0.353 . S
C295 C60 3.046 . S
C300 C136 2.977 . S
C311 C100 3.322 . S
C316 C150 3.282 . S
C327 C31 3.019 . S
C332 C126 2.954 . S
C348 C138 2.971 . S
C343 C71 3.018 . S
C364 C148 2.680 . S
C359 C111 2.778 . S
C375 C20 3.047 . S
C380 C124 2.953 . S
C396 C153 1.810 . S
C391 C2 1.695 . S
C407 C42 1.778 . S
C412 C129 1.763 . S
C423 C82 1.740 . S
C428 C141 1.746 . S
C444 C177 1.165 . S
C439 C63 1.149 . S
C460 C189 1.205 . S
C455 C103 1.138 . S
C471 C23 1.120 . S
C476 C165 1.148 . S
