# Generated by pormake.
# Topology zzz, (3,6)-cn, num edge types: 1
# Building blocks:
#     Node 0, Type 0, BuildingBlock: QEWDON_clean_linker_0, # of connection points: 3
#     Node 1, Type 0, BuildingBlock: QEWDON_clean_linker_0, # of connection points: 3
#     Node 2, Type 0, BuildingBlock: QEWDON_clean_linker_0, # of connection points: 3
#     Node 3, Type 0, BuildingBlock: QEWDON_clean_linker_0, # of connection points: 3
#     Node 4, Type 0, BuildingBlock: QEWDON_clean_linker_0, # of connection points: 3
#     Node 5, Type 0, BuildingBlock: QEWDON_clean_linker_0, # of connection points: 3
#     Node 6, Type 0, BuildingBlock: QEWDON_clean_linker_0, # of connection points: 3
#     Node 7, Type 0, BuildingBlock: QEWDON_clean_linker_0, # of connection points: 3
#     Node 8, Type 1, BuildingBlock: KUMBUR_clean_sbu_0, # of connection points: 6
#     Node 9, Type 1, BuildingBlock: KUMBUR_clean_sbu_0, # of connection points: 6
#     Node 10, Type 1, BuildingBlock: KUMBUR_clean_sbu_0, # of connection points: 6
#     Node 11, Type 1, BuildingBlock: KUMBUR_clean_sbu_0, # of connection points: 6
#     Edge 12, Type (0, 1), BuildingBlock: XIVTED_clean_linker_0, # of connection points: 2
#     Edge 13, Type (0, 1), BuildingBlock: XIVTED_clean_linker_0, # of connection points: 2
#     Edge 14, Type (0, 1), BuildingBlock: XIVTED_clean_linker_0, # of connection points: 2
#     Edge 15, Type (0, 1), BuildingBlock: XIVTED_clean_linker_0, # of connection points: 2
#     Edge 16, Type (0, 1), BuildingBlock: XIVTED_clean_linker_0, # of connection points: 2
#     Edge 17, Type (0, 1), BuildingBlock: XIVTED_clean_linker_0, # of connection points: 2
#     Edge 18, Type (0, 1), BuildingBlock: XIVTED_clean_linker_0, # of connection points: 2
#     Edge 19, Type (0, 1), BuildingBlock: XIVTED_clean_linker_0, # of connection points: 2
#     Edge 20, Type (0, 1), BuildingBlock: XIVTED_clean_linker_0, # of connection points: 2
#     Edge 21, Type (0, 1), BuildingBlock: XIVTED_clean_linker_0, # of connection points: 2
#     Edge 22, Type (0, 1), BuildingBlock: XIVTED_clean_linker_0, # of connection points: 2
#     Edge 23, Type (0, 1), BuildingBlock: XIVTED_clean_linker_0, # of connection points: 2
#     Edge 24, Type (0, 1), BuildingBlock: XIVTED_clean_linker_0, # of connection points: 2
#     Edge 25, Type (0, 1), BuildingBlock: XIVTED_clean_linker_0, # of connection points: 2
#     Edge 26, Type (0, 1), BuildingBlock: XIVTED_clean_linker_0, # of connection points: 2
#     Edge 27, Type (0, 1), BuildingBlock: XIVTED_clean_linker_0, # of connection points: 2
#     Edge 28, Type (0, 1), BuildingBlock: XIVTED_clean_linker_0, # of connection points: 2
#     Edge 29, Type (0, 1), BuildingBlock: XIVTED_clean_linker_0, # of connection points: 2
#     Edge 30, Type (0, 1), BuildingBlock: XIVTED_clean_linker_0, # of connection points: 2
#     Edge 31, Type (0, 1), BuildingBlock: XIVTED_clean_linker_0, # of connection points: 2
#     Edge 32, Type (0, 1), BuildingBlock: XIVTED_clean_linker_0, # of connection points: 2
#     Edge 33, Type (0, 1), BuildingBlock: XIVTED_clean_linker_0, # of connection points: 2
#     Edge 34, Type (0, 1), BuildingBlock: XIVTED_clean_linker_0, # of connection points: 2
#     Edge 35, Type (0, 1), BuildingBlock: XIVTED_clean_linker_0, # of connection points: 2
# Relax obj value: 0.114
# Max RMSD: 0.151
# Mean RMSD: 0.075
data_MOF--net-zzz--node1-KUMBUR_clean_sbu_0--node2-QEWDON_clean_linker_0--edge1-XIVTED_clean_linker_0
_symmetry_space_group_name_H-M    P1
_symmetry_Int_Tables_number       1
_symmetry_cell_setting            triclinic
loop_
_symmetry_equiv_pos_as_xyz
'x, y, z'
_cell_length_a     54.133093
_cell_length_b     54.116195
_cell_length_c     14.240886
_cell_angle_alpha  91.32139
_cell_angle_beta   89.911325
_cell_angle_gamma 89.963647
loop_
_atom_site_label
_atom_site_type_symbol
_atom_site_fract_x
_atom_site_fract_y
_atom_site_fract_z
_atom_type_partial_charge
H0 H 0.76145 0.57149 0.10619 0.0
C1 C 0.77573 0.56712 0.1562 0.0
C2 C 0.79949 0.57607 0.13995 0.0
C3 C 0.77047 0.5531 0.23602 0.0
H4 H 0.83664 0.57873 0.19005 0.0
C5 C 0.81839 0.57145 0.20413 0.0
C6 C 0.81473 0.5565 0.28208 0.0
C7 C 0.79042 0.5476 0.29858 0.0
C8 C 0.7441 0.54503 0.25371 0.0
H9 H 0.78734 0.5359 0.35803 0.0
C10 C 0.7265 0.54153 0.17958 0.0
C11 C 0.70148 0.53557 0.19875 0.0
C12 C 0.73585 0.54221 0.34659 0.0
H13 H 0.74811 0.54535 0.40556 0.0
C14 C 0.71134 0.53614 0.36565 0.0
H15 H 0.73211 0.54293 0.10698 0.0
C16 C 0.69435 0.53293 0.29296 0.0
H17 H 0.67538 0.52872 0.31086 0.0
H18 H 0.70535 0.53427 0.43772 0.0
H19 H 0.98599 0.77239 0.10391 0.0
C20 C 0.99055 0.78651 0.15605 0.0
C21 C 0.98427 0.81101 0.13748 0.0
C22 C 1.00243 0.78021 0.24001 0.0
H23 H 0.9843 0.84865 0.19064 0.0
C24 C 0.98865 0.82959 0.20594 0.0
C25 C 1.00027 0.82446 0.29113 0.0
C26 C 1.00767 0.79969 0.3071 0.0
C27 C 1.00829 0.75326 0.25725 0.0
H28 H 1.01732 0.79578 0.37154 0.0
C29 C 1.01223 0.73545 0.18246 0.0
C30 C 1.0163 0.71007 0.20092 0.0
C31 C 1.0086 0.74477 0.34988 0.0
H32 H 1.00497 0.75715 0.40899 0.0
C33 C 1.01276 0.71991 0.36824 0.0
H34 H 1.0127 0.74117 0.11021 0.0
C35 C 1.01651 0.70278 0.29502 0.0
H36 H 0.0193 0.68358 0.31225 0.0
H37 H 1.01276 0.71378 0.44008 0.0
H38 H 0.78008 0.98316 0.12762 0.0
C39 C 0.76652 0.9877 0.18126 0.0
C40 C 0.74171 0.98194 0.16337 0.0
C41 C 0.77379 0.99882 0.26732 0.0
H42 H 0.70456 0.98284 0.21767 0.0
C43 C 0.72383 0.98671 0.23281 0.0
C44 C 0.72994 0.99822 0.31855 0.0
C45 C 0.75497 1.00466 0.33513 0.0
C46 C 0.80097 1.00295 0.28708 0.0
H47 H 0.75965 1.014 0.40072 0.0
C48 C 0.81876 1.00694 0.21445 0.0
C49 C 0.84443 1.00886 0.23479 0.0
C50 C 0.80963 1.00117 0.37978 0.0
H51 H 0.79714 0.99741 0.43708 0.0
C52 C 0.83472 1.00316 0.40016 0.0
H53 H 0.81276 1.00892 0.14259 0.0
C54 C 0.8519 1.00678 0.32891 0.0
H55 H 0.87126 1.00745 0.34788 0.0
H56 H 0.84098 1.00142 0.47188 0.0
H57 H 0.56637 0.7949 0.1513 0.0
C58 C 0.56383 0.78218 0.20749 0.0
C59 C 0.57118 0.75777 0.18905 0.0
C60 C 0.55337 0.78953 0.29499 0.0
H61 H 0.57407 0.72112 0.24258 0.0
C62 C 0.5689 0.74014 0.25866 0.0
C63 C 0.55823 0.746 0.34568 0.0
C64 C 0.55004 0.77058 0.36308 0.0
C65 C 0.54594 0.81653 0.3136 0.0
H66 H 0.54121 0.77434 0.42976 0.0
C67 C 0.54683 0.83494 0.24264 0.0
C68 C 0.5403 0.86002 0.2616 0.0
C69 C 0.53831 0.82453 0.40418 0.0
H70 H 0.53781 0.81233 0.46285 0.0
C71 C 0.53123 0.84893 0.42264 0.0
H72 H 0.55288 0.83039 0.17248 0.0
C73 C 0.532 0.86639 0.35255 0.0
H74 H 0.52587 0.88496 0.37024 0.0
H75 H 0.52514 0.85441 0.49253 0.0
H76 H 0.29157 0.49104 0.20282 0.0
C77 C 0.27785 0.49432 0.14942 0.0
C78 C 0.25363 0.48685 0.16713 0.0
C79 C 0.28429 0.50537 0.06417 0.0
H80 H 0.21657 0.48427 0.11422 0.0
C81 C 0.23541 0.48963 0.09846 0.0
C82 C 0.24059 0.50062 0.01253 0.0
C83 C 0.26509 0.50897 0.99637 0.0
C84 C 0.3111 0.5119 0.04608 0.0
H85 H 0.26901 0.518 0.93106 0.0
C86 C 0.32845 0.51648 0.12042 0.0
C87 C 0.3538 0.52093 0.10155 0.0
C88 C 0.32003 0.51217 0.9532 0.0
H89 H 0.30808 0.50805 0.89413 0.0
C90 C 0.34484 0.51691 0.93437 0.0
H91 H 0.32244 0.51711 0.19287 0.0
C92 C 0.36155 0.52115 1.00734 0.0
H93 H 0.38077 0.52424 0.98981 0.0
H94 H 0.35127 0.51694 0.86235 0.0
H95 H 0.05916 0.28507 0.22478 0.0
C96 C 0.0568 0.27174 0.16782 0.0
C97 C 0.06855 0.24869 0.17432 0.0
C98 C 0.0404 0.27679 0.0941 0.0
H99 H 0.07294 0.21252 0.10956 0.0
C100 C 0.06503 0.23078 0.10241 0.0
C101 C 0.04916 0.23481 0.02664 0.0
C102 C 0.03689 0.25797 0.02279 0.0
C103 C 0.02491 0.30024 0.09946 0.0
H104 H 0.02456 0.26104 0.96455 0.0
C105 C 0.03242 0.32219 0.15053 0.0
C106 C 1.01643 0.343 0.16053 0.0
C107 C 1.00116 0.30006 0.05925 0.0
H108 H 0.99394 0.28383 0.0232 0.0
C109 C 0.98559 0.32046 0.06813 0.0
H110 H 0.05062 0.32338 0.18147 0.0
C111 C 0.99299 0.34154 0.11824 0.0
H112 H 0.97997 0.35668 0.12535 0.0
H113 H 0.96733 0.31974 0.0373 0.0
H114 H 0.26922 0.07513 0.1671 0.0
C115 C 0.28299 0.06982 0.11554 0.0
C116 C 0.30757 0.07635 0.13452 0.0
C117 C 0.27645 0.05643 0.033 0.0
H118 H 0.34498 0.0758 0.08209 0.0
C119 C 0.32587 0.07122 0.06696 0.0
C120 C 0.32052 0.05818 0.98366 0.0
C121 C 0.29591 0.05013 0.96811 0.0
C122 C 0.24956 0.04936 0.01545 0.0
H123 H 0.29229 0.039 0.90572 0.0
C124 C 0.23127 0.04902 0.08856 0.0
C125 C 0.20601 0.04362 0.06915 0.0
C126 C 0.24163 0.04371 0.92325 0.0
H127 H 0.25405 0.04455 0.86401 0.0
C128 C 0.2172 0.03728 0.90444 0.0
H129 H 0.23632 0.05314 0.16043 0.0
C130 C 0.19968 0.03708 0.97603 0.0
H131 H 0.18103 0.03167 0.95762 0.0
H132 H 0.21169 0.03265 0.83312 0.0
H133 H 0.482 0.26776 0.16627 0.0
C134 C 0.48548 0.28097 0.11193 0.0
C135 C 0.48009 0.30579 0.13173 0.0
C136 C 0.49445 0.27329 0.02289 0.0
H137 H 0.47925 0.34267 0.07895 0.0
C138 C 0.48316 0.32339 0.06222 0.0
C139 C 0.49235 0.31688 0.9732 0.0
C140 C 0.49844 0.29178 0.95409 0.0
C141 C 0.49795 0.24597 1.00162 0.0
H142 H 0.5059 0.28682 0.8857 0.0
C143 C 0.50253 0.22857 0.07354 0.0
C144 C 0.50317 0.20274 0.05363 0.0
C145 C 0.49478 0.23677 0.90922 0.0
H146 H 0.49054 0.24893 0.85225 0.0
C147 C 0.49595 0.21148 0.88883 0.0
H148 H 0.50582 0.23493 0.14495 0.0
C149 C 0.49987 0.19464 0.95992 0.0
H150 H 0.4997 0.17513 0.94133 0.0
H151 H 0.49318 0.20483 0.81738 0.0
Tb152 Tb 0.0478 0.02284 0.75277 0.0
C153 C 0.95887 1.00553 0.49563 0.0
C154 C 0.97258 0.97559 0.37815 0.0
C155 C 0.92908 0.97812 0.41891 0.0
C156 C 0.97781 0.99482 0.4441 0.0
C157 C 0.9342 0.99769 0.48221 0.0
C158 C 0.94825 0.96704 0.36719 0.0
C159 C 0.92115 0.03035 0.58925 0.0
N160 N 0.96443 0.02449 0.55558 0.0
C161 C 0.94581 0.03748 0.60011 0.0
C162 C 0.91533 1.01017 0.53085 0.0
Tb163 Tb 1.00548 0.03501 0.56935 0.0
N164 N 1.00112 1.00378 0.45602 0.0
C165 C 0.0197 0.99493 0.3986 0.0
C166 C 0.99183 0.96586 0.32354 0.0
C167 C 1.01541 0.97576 0.33315 0.0
H168 H 0.95006 0.05314 0.64562 0.0
H169 H 0.03042 0.96857 0.29029 0.0
H170 H 0.944 0.95222 0.31734 0.0
H171 H 0.90667 0.04043 0.62603 0.0
H172 H 0.03834 1.00148 0.40337 0.0
H173 H 0.02556 0.09202 0.02527 0.0
H174 H 0.98861 0.95102 0.2726 0.0
H175 H 0.10276 1.00043 0.68705 0.0
H176 H 1.01653 0.05817 0.9172 0.0
H177 H 0.14655 1.01151 0.70652 0.0
H178 H 0.91029 0.97175 0.40808 0.0
H179 H 0.06772 0.10907 0.03665 0.0
H180 H 0.1121 0.10643 0.98933 0.0
H181 H 0.89619 1.00473 0.52222 0.0
H182 H 0.14509 0.08462 0.90239 0.0
N183 N 0.05325 0.05498 0.8613 0.0
C184 C 0.03522 0.06453 0.91958 0.0
C185 C 0.06396 0.09385 0.98797 0.0
C186 C 0.08274 0.08322 0.93331 0.0
C187 C 0.04019 0.08421 0.98199 0.0
C188 C 0.07682 0.06349 0.87045 0.0
H189 H 0.15817 0.04891 0.79903 0.0
N190 N 0.08925 0.03167 0.76591 0.0
C191 C 0.13237 0.02303 0.73851 0.0
C192 C 0.09541 0.05144 0.82111 0.0
C193 C 0.10745 1.01686 0.72754 0.0
C194 C 0.13883 0.04419 0.79047 0.0
C195 C 0.12034 0.05845 0.83389 0.0
O196 O 0.06961 1.00158 0.84337 0.0
O197 O 0.0245 1.00639 0.64363 0.0
O198 O 0.98485 1.01785 0.68496 0.0
O199 O 1.01012 0.02682 0.81295 0.0
O200 O 0.05896 0.9922 0.65745 0.0
O201 O 0.03064 0.99625 0.83631 0.0
O202 O 0.98251 0.05909 0.49507 0.0
O203 O 0.02907 0.05161 0.67765 0.0
O204 O 0.06972 0.0377 0.63563 0.0
O205 O 0.04305 0.0327 0.50847 0.0
O206 O 0.99428 0.06527 0.66612 0.0
O207 O 0.02162 0.05993 0.4756 0.0
C208 C 0.03859 0.98937 0.61261 0.0
C209 C 0.05549 0.96035 0.83764 0.0
C210 C 0.03909 0.92014 0.78517 0.0
C211 C 0.03569 0.94544 0.8068 0.0
C212 C 0.06328 0.91046 0.78887 0.0
C213 C 0.07927 0.95012 0.84167 0.0
C214 C 0.08313 0.92542 0.81594 0.0
C215 C 0.98822 0.02076 0.77674 0.0
C216 C 0.05153 0.98679 0.86148 0.0
C217 C 0.1261 0.07881 0.89256 0.0
C218 C 0.10732 0.0912 0.9421 0.0
C219 C 1.01488 0.06854 0.7089 0.0
C220 C 1.00124 0.09841 0.49534 0.0
C221 C 0.02362 0.11157 0.50102 0.0
C222 C 0.02421 0.13617 0.53549 0.0
C223 C 1.00203 0.14712 0.56748 0.0
C224 C 0.97933 0.11004 0.52597 0.0
C225 C 0.97985 0.1341 0.56282 0.0
C226 C 0.06538 0.03702 0.54392 0.0
C227 C 1.00105 0.07198 0.46604 0.0
H228 H 1.01752 0.95357 0.80082 0.0
H229 H 0.06696 0.89107 0.77529 0.0
H230 H 0.0949 0.96125 0.86412 0.0
H231 H 0.10153 0.91765 0.81941 0.0
H232 H 0.0406 0.10259 0.47879 0.0
H233 H 1.00149 0.16614 0.59259 0.0
H234 H 0.96182 0.10038 0.52329 0.0
H235 H 0.96291 0.14283 0.58676 0.0
Tb236 Tb 0.53027 0.05378 0.74044 0.0
C237 C 0.55186 0.95921 0.50538 0.0
C238 C 0.58309 0.97101 0.39348 0.0
C239 C 0.5804 0.92834 0.44144 0.0
C240 C 0.56307 0.97727 0.45348 0.0
C241 C 0.55996 0.93441 0.49809 0.0
C242 C 0.59195 0.94662 0.38924 0.0
C243 C 0.52577 0.92294 0.59667 0.0
N244 N 0.53215 0.96568 0.55919 0.0
C245 C 0.51855 0.94774 0.60234 0.0
C246 C 0.54682 0.91629 0.54557 0.0
Tb247 Tb 0.52133 1.00684 0.56371 0.0
N248 N 0.55386 1.00068 0.45903 0.0
C249 C 0.56337 1.01824 0.40099 0.0
C250 C 0.59332 0.98927 0.33793 0.0
C251 C 0.58324 1.0129 0.34106 0.0
H252 H 0.50226 0.95258 0.64252 0.0
H253 H 0.59091 0.02719 0.29777 0.0
H254 H 0.60737 0.94159 0.34408 0.0
H255 H 0.51516 0.90901 0.63219 0.0
H256 H 0.55695 0.03693 0.40199 0.0
H257 H 0.46379 0.03092 0.01355 0.0
H258 H 0.60875 0.98524 0.29143 0.0
H259 H 0.54558 0.10841 0.65516 0.0
H260 H 0.4981 0.02281 0.90848 0.0
H261 H 0.52986 0.1512 0.66143 0.0
H262 H 0.58698 0.90945 0.4355 0.0
H263 H 0.44316 0.0716 0.01695 0.0
H264 H 0.44155 0.11497 0.96069 0.0
H265 H 0.55241 0.89707 0.54134 0.0
H266 H 0.45946 0.14773 0.86506 0.0
N267 N 0.49799 0.05864 0.84654 0.0
C268 C 0.4901 0.04092 0.90723 0.0
C269 C 0.45856 0.06826 0.96962 0.0
C270 C 0.46733 0.08681 0.91182 0.0
C271 C 0.4702 0.04534 0.96804 0.0
C272 C 0.48737 0.08144 0.85085 0.0
H273 H 0.49238 0.16139 0.75387 0.0
N274 N 0.51697 0.09421 0.74189 0.0
C275 C 0.5204 0.13692 0.69943 0.0
C276 C 0.49718 0.09981 0.79661 0.0
C277 C 0.52923 0.11265 0.69612 0.0
C278 C 0.49924 0.14259 0.75155 0.0
C279 C 0.48759 0.12408 0.80225 0.0
O280 O 0.55287 0.07999 0.80934 0.0
O281 O 0.54832 0.02845 0.64116 0.0
O282 O 0.5377 0.98871 0.68617 0.0
O283 O 0.52988 1.01728 0.80755 0.0
O284 O 0.56142 0.0636 0.6491 0.0
O285 O 0.55393 0.04209 0.84836 0.0
O286 O 0.49914 0.98223 0.48388 0.0
O287 O 0.50342 0.0317 0.665 0.0
O288 O 0.51316 0.07083 0.61694 0.0
O289 O 0.52416 0.04324 0.4966 0.0
O290 O 0.49103 0.99636 0.65809 0.0
O291 O 0.49561 0.02112 0.46807 0.0
C292 C 0.56529 0.04223 0.61108 0.0
C293 C 0.59216 0.06341 0.83545 0.0
C294 C 0.63091 0.04168 0.80042 0.0
C295 C 0.60537 0.04129 0.81973 0.0
C296 C 0.64271 0.06476 0.79235 0.0
C297 C 0.60452 0.08609 0.82846 0.0
C298 C 0.62954 0.0867 0.80576 0.0
C299 C 0.53598 0.99469 0.77684 0.0
C300 C 0.56523 0.06327 0.85272 0.0
C301 C 0.46718 0.12926 0.86028 0.0
C302 C 0.45702 0.11063 0.91481 0.0
C303 C 0.48699 1.01758 0.69699 0.0
C304 C 0.45858 0.99824 0.4794 0.0
C305 C 0.44396 0.01972 0.48457 0.0
C306 C 0.41898 1.01869 0.51207 0.0
C307 C 0.40915 0.99577 0.53846 0.0
C308 C 0.44814 0.97557 0.50479 0.0
C309 C 0.42369 0.97448 0.5352 0.0
C310 C 0.51699 0.06556 0.52673 0.0
C311 C 0.48511 0.99982 0.45464 0.0
H312 H 0.59579 0.02377 0.82306 0.0
H313 H 0.66238 0.06605 0.77989 0.0
H314 H 0.59474 0.10339 0.83938 0.0
H315 H 0.63891 0.10428 0.8004 0.0
H316 H 0.45214 0.03729 0.46718 0.0
H317 H 0.38993 0.99392 0.55811 0.0
H318 H 0.45896 0.95872 0.50253 0.0
H319 H 0.41583 0.95695 0.55488 0.0
Tb320 Tb 0.54963 0.52321 0.56908 0.0
C321 C 0.45048 0.51639 0.78054 0.0
C322 C 0.42111 0.53872 0.68723 0.0
C323 C 0.40693 0.50546 0.78556 0.0
C324 C 0.44558 0.5344 0.71679 0.0
C325 C 0.4312 0.50199 0.81741 0.0
C326 C 0.40189 0.52381 0.72045 0.0
C327 C 0.46103 0.4832 0.91938 0.0
N328 N 0.47408 0.51381 0.80981 0.0
C329 C 0.47947 0.49795 0.8807 0.0
C330 C 0.4368 0.48503 0.88688 0.0
Tb331 Tb 0.50342 0.53834 0.74139 0.0
N332 N 0.46466 0.54854 0.68756 0.0
C333 C 0.46 0.56866 0.63373 0.0
C334 C 0.41661 0.55833 0.62749 0.0
C335 C 0.43611 0.57357 0.60173 0.0
H336 H 0.49814 0.49613 0.90603 0.0
H337 H 0.43279 0.58912 0.55695 0.0
H338 H 0.38301 0.52671 0.69804 0.0
H339 H 0.46553 0.47039 0.97406 0.0
H340 H 0.47459 0.58071 0.61201 0.0
H341 H 0.62032 0.47148 0.74934 0.0
H342 H 0.39812 0.56223 0.60285 0.0
H343 H 0.55472 0.56624 0.40746 0.0
H344 H 0.57843 0.48047 0.69677 0.0
H345 H 0.58733 0.59198 0.3395 0.0
H346 H 0.3919 0.49443 0.81235 0.0
H347 H 0.65512 0.49804 0.7022 0.0
H348 H 0.67029 0.53351 0.60708 0.0
H349 H 0.42252 0.47365 0.91713 0.0
H350 H 0.66137 0.56619 0.49454 0.0
N351 N 0.58843 0.51267 0.62154 0.0
C352 C 0.59306 0.4924 0.67461 0.0
C353 C 0.63658 0.50221 0.67873 0.0
C354 C 0.63208 0.52201 0.61988 0.0
C355 C 0.61701 0.48715 0.70518 0.0
C356 C 0.60755 0.52669 0.59186 0.0
H357 H 0.63052 0.58797 0.39364 0.0
N358 N 0.57893 0.54793 0.50138 0.0
C359 C 0.59191 0.57888 0.39306 0.0
C360 C 0.60261 0.54497 0.52924 0.0
C361 C 0.57346 0.56413 0.43173 0.0
C362 C 0.61623 0.57662 0.42399 0.0
C363 C 0.62192 0.55928 0.49201 0.0
O364 O 0.54873 0.51582 0.42382 0.0
O365 O 0.51043 0.52682 0.5986 0.0
O366 O 0.49888 0.4989 0.7043 0.0
O367 O 0.53845 0.49001 0.64898 0.0
O368 O 0.52264 0.5401 0.47479 0.0
O369 O 0.55429 0.48643 0.52111 0.0
O370 O 0.50397 0.54617 0.88635 0.0
O371 O 0.54253 0.5345 0.71178 0.0
O372 O 0.55433 0.56252 0.60806 0.0
O373 O 0.51458 0.57144 0.66104 0.0
O374 O 0.53045 0.52163 0.8363 0.0
O375 O 0.49903 0.57533 0.78767 0.0
C376 C 0.50314 0.53652 0.52369 0.0
C377 C 0.52532 0.47964 0.39853 0.0
C378 C 0.49451 0.44671 0.40743 0.0
C379 C 0.51683 0.45756 0.43758 0.0
C380 C 0.48042 0.45872 0.3389 0.0
C381 C 0.51111 0.49092 0.32882 0.0
C382 C 0.48869 0.48065 0.30025 0.0
C383 C 0.51682 0.4829 0.684 0.0
C384 C 0.54764 0.4921 0.43621 0.0
C385 C 0.64628 0.55534 0.52198 0.0
C386 C 0.65135 0.53675 0.58602 0.0
C387 C 0.54989 0.52492 0.78677 0.0
C388 C 0.52761 0.58226 0.91146 0.0
C389 C 0.53558 0.60492 0.87556 0.0
C390 C 0.55778 0.61588 0.90665 0.0
C391 C 0.57225 0.60341 0.97277 0.0
C392 C 0.54223 0.57053 0.97886 0.0
C393 C 0.56451 0.58092 1.00822 0.0
C394 C 0.53635 0.57855 0.62735 0.0
C395 C 0.50533 0.56984 0.87311 0.0
H396 H 0.52759 0.44885 0.49169 0.0
H397 H 0.46346 0.45074 0.31196 0.0
H398 H 0.51703 0.508 0.29763 0.0
H399 H 0.47779 0.48959 0.24714 0.0
H400 H 0.5245 0.61398 0.82321 0.0
H401 H 0.58913 0.61143 1.00037 0.0
H402 H 0.53672 0.55303 1.00778 0.0
H403 H 0.57571 0.57164 0.05954 0.0
Tb404 Tb 0.03631 0.55258 0.57023 0.0
C405 C 0.03711 0.45595 0.78806 0.0
C406 C 1.01432 0.42659 0.69183 0.0
C407 C 0.04639 0.41208 0.7963 0.0
C408 C 0.01933 0.45116 0.72139 0.0
C409 C 0.05053 0.43648 0.82806 0.0
C410 C 0.02832 0.40714 0.7281 0.0
C411 C 0.06962 0.46648 0.93288 0.0
N412 N 0.04042 0.4797 0.81703 0.0
C413 C 0.05584 0.48511 0.89104 0.0
C414 C 0.0672 0.44207 0.90046 0.0
Tb415 Tb 1.0177 0.50934 0.74268 0.0
N416 N 1.00615 0.47048 0.68878 0.0
C417 C 0.98626 0.46604 0.63133 0.0
C418 C 0.995 0.42224 0.6287 0.0
C419 C 0.98069 0.44204 0.59945 0.0
H420 H 0.05811 0.50395 0.9161 0.0
H421 H 0.96538 0.43886 0.55192 0.0
H422 H 0.0249 0.38819 0.70561 0.0
H423 H 0.08217 0.47098 0.98983 0.0
H424 H 0.97485 0.48076 0.60654 0.0
H425 H 0.08484 0.62433 0.76839 0.0
H426 H 0.99062 0.40368 0.60392 0.0
H427 H 1.00032 0.55727 0.38296 0.0
H428 H 0.07664 0.58218 0.71295 0.0
H429 H 0.97843 0.58978 0.29839 0.0
H430 H 0.05664 0.39687 0.82551 0.0
H431 H 0.05994 0.65905 0.71014 0.0
H432 H 0.02746 0.6739 0.59883 0.0
H433 H 0.07785 0.42765 0.93306 0.0
H434 H 0.9986 0.66453 0.4694 0.0
N435 N 0.04631 0.59183 0.62501 0.0
C436 C 0.06542 0.59671 0.68568 0.0
C437 C 0.05608 0.64037 0.68537 0.0
C438 C 0.03783 0.63563 0.61813 0.0
C439 C 0.07022 0.62084 0.71803 0.0
C440 C 0.0335 0.61091 0.58876 0.0
H441 H 0.98077 0.63328 0.35499 0.0
N442 N 1.01509 0.58188 0.48781 0.0
C443 C 0.9892 0.59455 0.36015 0.0
C444 C 1.01734 0.60574 0.51697 0.0
C445 C 1.00178 0.57615 0.40839 0.0
C446 C 0.99047 0.61904 0.39251 0.0
C447 C 1.00494 0.62497 0.47111 0.0
O448 O 0.0471 0.549 0.42891 0.0
O449 O 0.03119 0.51383 0.60243 0.0
O450 O 0.05748 0.50343 0.71662 0.0
O451 O 0.06784 0.54215 0.66189 0.0
O452 O 0.02009 0.52484 0.47385 0.0
O453 O 0.07416 0.55516 0.5371 0.0
O454 O 1.00932 0.51156 0.88654 0.0
O455 O 0.02214 0.54816 0.71025 0.0
O456 O 0.99597 0.55748 0.58603 0.0
O457 O 0.98561 0.52022 0.65529 0.0
O458 O 0.03426 0.53714 0.83782 0.0
O459 O 0.98043 0.50692 0.78393 0.0
C460 C 0.02228 0.50587 0.52535 0.0
C461 C 0.08273 0.52403 0.42184 0.0
C462 C 0.11588 0.49382 0.44213 0.0
C463 C 0.10466 0.51662 0.46595 0.0
C464 C 0.10414 0.47812 0.37554 0.0
C465 C 0.07176 0.50815 0.35434 0.0
C466 C 0.08225 0.48524 0.33258 0.0
C467 C 0.0741 0.52084 0.70019 0.0
C468 C 0.07029 0.54732 0.45118 0.0
C469 C 1.00814 0.64951 0.50298 0.0
C470 C 0.02455 0.65483 0.57666 0.0
C471 C 0.03118 0.55615 0.7871 0.0
C472 C 0.97386 0.53631 0.90795 0.0
C473 C 0.95227 0.54558 0.86653 0.0
C474 C 0.9413 0.56769 0.90022 0.0
C475 C 0.95301 0.5809 0.97422 0.0
C476 C 0.98486 0.54977 0.98246 0.0
C477 C 0.97465 0.57205 0.01429 0.0
C478 C 0.97942 0.54053 0.60977 0.0
C479 C 0.98579 0.51353 0.8702 0.0
H480 H 0.11299 0.5287 0.51858 0.0
H481 H 0.11233 0.46073 0.35295 0.0
H482 H 0.05481 0.51318 0.31929 0.0
H483 H 0.07356 0.47308 0.281 0.0
H484 H 0.944 0.53545 0.80824 0.0
H485 H 0.94503 0.59762 1.00433 0.0
H486 H 1.00157 0.54326 0.01556 0.0
H487 H 0.98332 0.58231 0.07149 0.0
H488 H 0.15702 0.05691 0.0479 0.0
H489 H 0.1145 0.04793 0.58242 0.0
H490 H 0.20818 0.03419 0.26181 0.0
H491 H 0.06499 0.03496 0.34979 0.0
H492 H 0.14917 0.04971 0.47173 0.0
H493 H 0.1237 0.05594 0.16225 0.0
C494 C 0.16143 0.05147 0.11852 0.0
C495 C 0.18582 0.045 0.14324 0.0
C496 C 0.13072 0.04629 0.44513 0.0
C497 C 0.14705 0.04486 0.27749 0.0
C498 C 0.11084 0.04501 0.50858 0.0
C499 C 0.08664 0.04024 0.47678 0.0
C500 C 0.12643 0.04364 0.34815 0.0
C501 C 0.0832 0.03813 0.37884 0.0
C502 C 0.1422 0.05113 0.18431 0.0
C503 C 0.18994 0.03933 0.23822 0.0
N504 N 0.10273 0.03989 0.31854 0.0
N505 N 0.17084 0.03939 0.30152 0.0
H506 H 0.48488 0.20337 0.23604 0.0
H507 H 0.53124 0.0655 0.34064 0.0
H508 H 0.52866 0.15856 0.04425 0.0
H509 H 0.49425 0.11125 0.54903 0.0
H510 H 0.52876 0.09913 0.23048 0.0
H511 H 0.4876 0.17046 0.35169 0.0
C512 C 0.49528 0.18681 0.21828 0.0
C513 C 0.50639 0.1839 0.12917 0.0
C514 C 0.52136 0.10198 0.30058 0.0
C515 C 0.50918 0.14574 0.26152 0.0
C516 C 0.5228 0.08265 0.36411 0.0
C517 C 0.51379 0.08559 0.45637 0.0
C518 C 0.51051 0.12463 0.32819 0.0
C519 C 0.50234 0.10829 0.48024 0.0
C520 C 0.49664 0.16789 0.2843 0.0
C521 C 0.51933 0.1617 0.11072 0.0
N522 N 0.50111 0.12688 0.417 0.0
N523 N 0.52025 0.14361 0.17566 0.0
H524 H 0.38887 0.55722 0.1119 0.0
H525 H 0.46465 0.50279 0.54772 0.0
H526 H 0.36251 0.4945 0.26373 0.0
H527 H 0.48579 0.56647 0.39057 0.0
H528 H 0.42615 0.49994 0.45466 0.0
H529 H 0.42297 0.56163 0.22233 0.0
C530 C 0.39014 0.54442 0.16907 0.0
C531 C 0.3727 0.52537 0.17768 0.0
C532 C 0.43908 0.5147 0.44143 0.0
C533 C 0.41243 0.53019 0.30593 0.0
C534 C 0.46098 0.51643 0.49506 0.0
C535 C 0.47829 0.53522 0.47813 0.0
C536 C 0.4346 0.53174 0.36983 0.0
C537 C 0.4729 0.55187 0.40684 0.0
C538 C 0.40974 0.54694 0.23249 0.0
C539 C 0.37538 0.50954 0.25433 0.0
N540 N 0.45173 0.54974 0.35589 0.0
N541 N 0.39496 0.51214 0.31482 0.0
H542 H 0.03884 0.34918 0.33655 0.0
H543 H 0.99399 0.48961 0.38242 0.0
H544 H 1.00837 0.39084 0.10973 0.0
H545 H 0.05204 0.46457 0.56357 0.0
H546 H 0.99567 0.45038 0.29551 0.0
H547 H 0.04207 0.38804 0.43129 0.0
C548 C 0.03323 0.36643 0.30589 0.0
C549 C 0.02296 0.36646 0.21487 0.0
C550 C 1.008 0.45321 0.35457 0.0
C551 C 0.02611 0.41093 0.32396 0.0
C552 C 1.00694 0.47566 0.40482 0.0
C553 C 0.02247 0.48035 0.48197 0.0
C554 C 0.0248 0.4348 0.38062 0.0
C555 C 0.03919 0.46154 0.5063 0.0
C556 C 0.03494 0.38859 0.36037 0.0
C557 C 1.01589 0.38954 0.17983 0.0
N558 N 0.03981 0.43952 0.45624 0.0
N559 N 1.0173 0.4105 0.23432 0.0
H560 H 0.88643 0.0374 0.24625 0.0
H561 H 0.94241 0.99982 0.73967 0.0
H562 H 0.84758 0.98885 0.05276 0.0
H563 H 0.98411 0.03451 0.96405 0.0
H564 H 0.90643 0.99797 0.84482 0.0
H565 H 0.92058 0.03947 0.13543 0.0
C566 C 0.88497 0.0271 0.18041 0.0
C567 C 0.86396 1.01257 0.16038 0.0
C568 C 0.92345 1.00608 0.87081 0.0
C569 C 0.90356 1.01522 0.03059 0.0
C570 C 0.94405 1.0073 0.81051 0.0
C571 C 0.96645 1.01795 0.84153 0.0
C572 C 0.92508 1.0156 0.96337 0.0
C573 C 0.96739 0.02654 0.93548 0.0
C574 C 0.90462 0.02836 0.11671 0.0
C575 C 0.86322 1.00034 0.07188 0.0
N576 N 0.94712 0.02533 0.99225 0.0
N577 N 0.88271 1.00184 0.01068 0.0
H578 H 0.55079 0.90982 0.28695 0.0
H579 H 0.5511 0.94624 0.74774 0.0
H580 H 0.53436 0.85609 0.06682 0.0
H581 H 0.53093 0.99782 0.97001 0.0
H582 H 0.55261 0.91318 0.86224 0.0
H583 H 0.55106 0.94213 0.17099 0.0
C584 C 0.54707 0.90462 0.21463 0.0
C585 C 0.54213 0.8798 0.1883 0.0
C586 C 0.5477 0.93172 0.88569 0.0
C587 C 0.54331 0.91732 0.053 0.0
C588 C 0.54656 0.95065 0.82003 0.0
C589 C 0.53972 0.97485 0.84759 0.0
C590 C 0.54281 0.93706 0.98089 0.0
C591 C 0.53566 0.97948 0.94415 0.0
C592 C 0.54741 0.92326 0.14807 0.0
C593 C 0.53844 0.87466 0.09172 0.0
N594 N 0.53727 0.96085 1.00691 0.0
N595 N 0.53913 0.89317 0.02795 0.0
H596 H 0.66744 0.49845 0.18038 0.0
H597 H 0.58867 0.55824 0.76257 0.0
H598 H 0.69109 0.56485 0.04533 0.0
H599 H 0.56741 0.49408 0.91664 0.0
H600 H 0.62771 0.56003 0.85264 0.0
H601 H 0.63275 0.49529 0.07208 0.0
C602 C 0.66544 0.51236 0.12739 0.0
C603 C 0.68227 0.53207 0.12304 0.0
C604 C 0.61462 0.54541 0.86588 0.0
C605 C 0.64189 0.52866 0.99725 0.0
C606 C 0.59241 0.54428 0.81393 0.0
C607 C 0.57493 0.52565 0.83078 0.0
C608 C 0.61928 0.52787 0.93553 0.0
C609 C 0.58043 0.50857 0.90043 0.0
C610 C 0.6455 0.51055 0.06522 0.0
C611 C 0.6787 0.54928 0.05142 0.0
N612 N 0.60194 0.51007 0.9496 0.0
N613 N 0.65882 0.54733 0.99207 0.0
H614 H 0.05263 0.67504 0.19275 0.0
H615 H 0.9986 0.59532 0.75343 0.0
H616 H 0.98947 0.69988 0.03722 0.0
H617 H 0.05966 0.57407 0.92742 0.0
H618 H 0.99575 0.63485 0.84429 0.0
H619 H 0.05667 0.63978 0.08463 0.0
C620 C 0.03966 0.67321 0.13515 0.0
C621 C 0.02059 0.69058 0.12501 0.0
C622 C 1.00992 0.62162 0.86181 0.0
C623 C 0.02496 0.64941 0.99924 0.0
C624 C 1.01164 0.59912 0.8095 0.0
C625 C 0.02971 0.58146 0.83176 0.0
C626 C 0.0263 0.62642 0.93712 0.0
C627 C 0.04562 0.58714 0.90699 0.0
C628 C 0.04194 0.6529 0.07309 0.0
C629 C 1.00454 0.6871 0.04784 0.0
N630 N 0.04357 0.6089 0.95621 0.0
N631 N 1.00692 0.66685 0.98859 0.0
H632 H 0.05404 0.26131 0.3543 0.0
H633 H 0.04083 0.17453 0.65129 0.0
H634 H 0.1087 0.21805 0.20254 0.0
H635 H 0.0602 0.13288 0.39929 0.0
H636 H 0.06884 0.20731 0.60314 0.0
H637 H 0.05991 0.23591 0.48863 0.0
C638 C 0.06817 0.24717 0.35001 0.0
C639 C 0.07988 0.241 0.26447 0.0
C640 C 0.06732 0.19069 0.55971 0.0
C641 C 0.08604 0.21096 0.41892 0.0
C642 C 0.05124 0.17198 0.58684 0.0
C643 C 0.0469 0.15149 0.5265 0.0
C644 C 0.07887 0.18886 0.47142 0.0
C645 C 0.06213 0.14857 0.44706 0.0
C646 C 0.07155 0.23245 0.42789 0.0
C647 C 0.09817 0.22256 0.26531 0.0
N648 N 0.07693 0.16737 0.42064 0.0
N649 N 0.09989 0.20744 0.33983 0.0
H650 H 0.2921 0.05789 0.30151 0.0
H651 H 0.37745 0.0321 0.61623 0.0
H652 H 0.3414 0.11207 0.18703 0.0
H653 H 0.42264 0.056 0.38476 0.0
H654 H 0.34496 0.0603 0.56613 0.0
H655 H 0.31718 0.05687 0.44198 0.0
C656 C 0.30755 0.07054 0.30772 0.0
C657 C 0.31536 0.08423 0.23059 0.0
C658 C 0.36223 0.05963 0.52771 0.0
C659 C 0.34458 0.08279 0.39103 0.0
C660 C 0.38078 0.04341 0.55582 0.0
C661 C 0.40246 0.04054 0.50188 0.0
C662 C 0.36551 0.07304 0.44536 0.0
C663 C 0.40622 0.0569 0.42797 0.0
C664 C 0.32201 0.06994 0.38862 0.0
C665 C 0.33539 0.1004 0.24341 0.0
N666 N 0.38774 0.07202 0.40093 0.0
N667 N 0.34992 0.09851 0.32052 0.0
H668 H 0.50738 0.30151 0.29039 0.0
H669 H 0.44778 0.42764 0.43547 0.0
H670 H 0.43868 0.33072 0.18856 0.0
H671 H 0.52496 0.40777 0.44964 0.0
H672 H 0.43728 0.38376 0.42547 0.0
H673 H 0.50506 0.33021 0.42555 0.0
C674 C 0.4912 0.31315 0.29903 0.0
C675 C 0.47356 0.31445 0.22747 0.0
C676 C 0.45644 0.38909 0.43419 0.0
C677 C 0.47106 0.34744 0.37959 0.0
C678 C 0.46251 0.41414 0.4388 0.0
C679 C 0.4874 0.42151 0.43736 0.0
C680 C 0.47542 0.37144 0.42826 0.0
C681 C 0.50553 0.40318 0.44753 0.0
C682 C 0.48993 0.32959 0.37585 0.0
C683 C 0.45293 0.32972 0.24162 0.0
N684 N 0.49922 0.37897 0.43982 0.0
N685 N 0.45254 0.34615 0.315 0.0
H686 H 0.25943 0.51204 0.33283 0.0
H687 H 0.13668 0.44799 0.47471 0.0
H688 H 0.22983 0.44435 0.21447 0.0
H689 H 0.15378 0.52598 0.48797 0.0
H690 H 0.18083 0.43903 0.46387 0.0
H691 H 0.23254 0.50754 0.46964 0.0
C692 C 0.24813 0.4956 0.33784 0.0
C693 C 0.24607 0.47895 0.26142 0.0
C694 C 0.17482 0.45804 0.47288 0.0
C695 C 0.21523 0.47395 0.41591 0.0
C696 C 0.1496 0.46325 0.47771 0.0
C697 C 0.14128 0.48786 0.47523 0.0
C698 C 0.19169 0.4776 0.46668 0.0
C699 C 0.15899 0.5067 0.48608 0.0
C700 C 0.23276 0.49308 0.41577 0.0
C701 C 0.23132 0.45792 0.27126 0.0
N702 N 0.18335 0.50119 0.47859 0.0
N703 N 0.21591 0.45632 0.34609 0.0
H704 H 1.00312 0.79453 0.96902 0.0
H705 H 0.99141 0.92641 0.85378 0.0
H706 H 0.94812 0.84391 0.08704 0.0
H707 H 0.03566 0.87486 0.68884 0.0
H708 H 0.96282 0.8939 0.88561 0.0
H709 H 1.00221 0.81742 0.82429 0.0
C710 C 0.99011 0.80964 0.96335 0.0
C711 C 0.97659 0.81815 0.04186 0.0
C712 C 0.97853 0.88964 0.84087 0.0
C713 C 0.97616 0.845 0.87746 0.0
C714 C 0.9951 0.9085 0.82168 0.0
C715 C 1.01738 0.90322 0.77416 0.0
C716 C 0.98483 0.86516 0.81663 0.0
C717 C 0.01994 0.87949 0.73284 0.0
C718 C 0.98966 0.82284 0.88039 0.0
C719 C 0.95976 0.83751 0.02955 0.0
N720 N 1.0045 0.86103 0.75851 0.0
N721 N 0.96059 0.85081 0.95001 0.0
H722 H 0.71076 0.94384 0.11181 0.0
H723 H 0.62249 1.00007 0.9032 0.0
H724 H 0.75291 1.00374 0.99821 0.0
H725 H 0.67392 0.02986 0.70295 0.0
H726 H 0.65286 0.97027 0.94703 0.0
H727 H 0.68454 0.94371 0.97209 0.0
C728 C 0.71494 0.95645 0.05595 0.0
C729 C 0.73327 0.97456 0.06802 0.0
C730 C 0.65747 0.98258 0.89089 0.0
C731 C 0.70268 0.97548 0.91152 0.0
C732 C 0.63984 0.9999 0.86543 0.0
C733 C 0.64593 1.01857 0.8025 0.0
C734 C 0.68162 0.98432 0.85524 0.0
C735 C 0.66886 1.01683 0.75622 0.0
C736 C 0.69981 0.95658 0.97674 0.0
C737 C 0.73849 0.98993 0.99269 0.0
N738 N 0.68625 1.00071 0.78625 0.0
N739 N 0.72271 0.99062 0.9188 0.0
H740 H 0.54375 0.76173 0.03056 0.0
H741 H 0.60414 0.6359 0.87972 0.0
H742 H 0.61282 0.73309 0.1314 0.0
H743 H 0.52664 0.65481 0.87184 0.0
H744 H 0.61409 0.67988 0.89367 0.0
H745 H 0.5459 0.73273 0.89651 0.0
C746 C 0.55999 0.75017 0.02192 0.0
C747 C 0.57778 0.74913 0.09312 0.0
C748 C 0.59497 0.67434 0.88553 0.0
C749 C 0.58006 0.71575 0.94204 0.0
C750 C 0.58922 0.64923 0.87864 0.0
C751 C 0.56443 0.6415 0.88024 0.0
C752 C 0.57579 0.69171 0.89356 0.0
C753 C 0.54601 0.65967 0.87331 0.0
C754 C 0.56114 0.73353 0.94573 0.0
C755 C 0.59846 0.73392 0.07874 0.0
N756 N 0.55204 0.68392 0.88286 0.0
N757 N 0.59872 0.71728 1.00598 0.0
H758 H 0.82081 0.62084 0.10637 0.0
H759 H 0.90322 0.5383 0.83266 0.0
H760 H 0.79566 0.55398 0.96775 0.0
H761 H 0.92164 0.6149 0.88957 0.0
H762 H 0.86016 0.54939 0.82745 0.0
H763 H 0.8507 0.62655 0.98068 0.0
C764 C 0.82076 0.60804 0.04672 0.0
C765 C 0.80652 0.58644 0.04874 0.0
C766 C 0.87358 0.56398 0.83905 0.0
C767 C 0.84141 0.59203 0.90764 0.0
C768 C 0.8985 0.55763 0.84169 0.0
C769 C 0.91633 0.57542 0.86737 0.0
C770 C 0.86629 0.58804 0.86595 0.0
C771 C 0.90852 0.60017 0.87612 0.0
C772 C 0.838 0.61114 0.97507 0.0
C773 C 0.80685 0.57056 0.96969 0.0
N774 N 0.88402 0.60562 0.87907 0.0
N775 N 0.82479 0.57312 0.90389 0.0
H776 H 1.00411 0.21639 0.96554 0.0
H777 H 0.06021 0.09328 0.71199 0.0
H778 H 0.0823 0.20296 0.93943 0.0
H779 H 0.98404 0.10158 0.79424 0.0
H780 H 0.06866 0.13503 0.77803 0.0
H781 H 0.99624 0.17682 0.88256 0.0
C782 C 0.01965 0.20546 0.94058 0.0
C783 C 0.04392 0.21325 0.96 0.0
C784 C 0.05011 0.12766 0.78201 0.0
C785 C 0.03503 0.16729 0.86574 0.0
C786 C 0.04535 0.10371 0.74495 0.0
C787 C 0.02152 0.09348 0.7502 0.0
C788 C 0.03081 0.14183 0.82289 0.0
C789 C 1.00279 0.10842 0.79025 0.0
C790 C 1.01515 0.18262 0.89408 0.0
C791 C 0.06325 0.1978 0.92676 0.0
N792 N 1.00781 0.1316 0.82496 0.0
N793 N 0.05842 0.1757 0.88201 0.0
H794 H 0.35206 0.09043 0.89939 0.0
H795 H 0.45456 0.98757 0.78382 0.0
H796 H 0.33869 1.01251 0.92642 0.0
H797 H 0.46104 0.06202 0.68652 0.0
H798 H 0.41258 0.99673 0.83849 0.0
H799 H 0.39165 0.08101 0.82207 0.0
C800 C 0.3572 0.07128 0.88699 0.0
C801 C 0.34176 0.05224 0.91863 0.0
C802 C 0.42313 1.01117 0.80567 0.0
C803 C 0.38778 0.04126 0.83246 0.0
C804 C 0.44722 1.00599 0.77481 0.0
C805 C 0.46178 0.02427 0.73328 0.0
C806 C 0.41316 0.03494 0.79533 0.0
C807 C 0.45091 0.04761 0.72125 0.0
C808 C 0.37993 0.06592 0.84331 0.0
C809 C 0.34969 0.02779 0.90202 0.0
N810 N 0.42744 0.05234 0.75301 0.0
N811 N 0.37218 0.02304 0.86134 0.0
H812 H 0.45668 0.34795 0.91056 0.0
H813 H 0.55143 0.44529 0.69078 0.0
H814 H 0.53458 0.33334 0.88356 0.0
H815 H 0.47359 0.459 0.72979 0.0
H816 H 0.54541 0.40293 0.74393 0.0
H817 H 0.46218 0.38653 0.8269 0.0
C818 C 0.47492 0.35261 0.885 0.0
C819 C 0.49516 0.33719 0.90378 0.0
C820 C 0.52962 0.41517 0.74064 0.0
C821 C 0.50183 0.38211 0.80923 0.0
C822 C 0.53304 0.43949 0.71018 0.0
C823 C 0.51312 0.45622 0.70765 0.0
C824 C 0.50604 0.40724 0.76855 0.0
C825 C 0.48968 0.44718 0.73255 0.0
C826 C 0.4781 0.37481 0.83775 0.0
C827 C 0.5184 0.34443 0.86973 0.0
N828 N 0.48687 0.42354 0.76236 0.0
N829 N 0.52115 0.36644 0.82514 0.0
H830 H 0.22457 0.54226 0.91878 0.0
H831 H 0.09692 0.47772 0.75351 0.0
H832 H 0.20759 0.46524 0.95327 0.0
H833 H 0.11203 0.55507 0.71621 0.0
H834 H 0.1387 0.47251 0.81542 0.0
H835 H 0.18549 0.54699 0.83191 0.0
C836 C 0.21296 0.52623 0.90642 0.0
C837 C 0.21953 0.50332 0.94398 0.0
C838 C 0.13296 0.49067 0.79364 0.0
C839 C 0.17431 0.50867 0.8457 0.0
C840 C 0.10892 0.49369 0.75854 0.0
C841 C 0.10042 0.51701 0.7312 0.0
C842 C 0.14903 0.51108 0.80182 0.0
C843 C 0.11739 0.53678 0.73733 0.0
C844 C 0.19046 0.52898 0.85753 0.0
C845 C 0.20336 0.48332 0.92648 0.0
N846 N 0.14065 0.53342 0.77245 0.0
N847 N 0.18165 0.48649 0.8797 0.0
H848 H 0.96693 0.85795 0.36423 0.0
H849 H 0.06956 0.95605 0.52987 0.0
H850 H 0.04466 0.84114 0.36609 0.0
H851 H 0.99283 0.96528 0.60253 0.0
H852 H 0.06044 0.91473 0.46561 0.0
H853 H 0.97541 0.89718 0.44814 0.0
C854 C 0.98578 0.86227 0.38399 0.0
C855 C 1.00507 0.84591 0.35843 0.0
C856 C 0.0455 0.92574 0.49503 0.0
C857 C 1.01506 0.89158 0.45301 0.0
C858 C 0.05067 0.94949 0.53141 0.0
C859 C 0.03184 0.96467 0.56922 0.0
C860 C 0.02118 0.91669 0.49571 0.0
C861 C 1.00782 0.95472 0.57118 0.0
C862 C 0.99061 0.8848 0.43166 0.0
C863 C 0.02914 0.85284 0.38518 0.0
N864 N 1.00315 0.93156 0.53412 0.0
N865 N 0.03345 0.87515 0.42969 0.0
H866 H 0.69694 0.96619 0.39608 0.0
H867 H 0.59915 0.07182 0.52992 0.0
H868 H 0.71423 0.04373 0.38711 0.0
H869 H 0.58965 0.99681 0.61771 0.0
H870 H 0.64085 0.06153 0.4751 0.0
H871 H 0.65789 0.97634 0.47612 0.0
C872 C 0.69279 0.98536 0.41311 0.0
C873 C 0.70915 1.00411 0.38566 0.0
C874 C 0.62971 0.04723 0.50599 0.0
C875 C 0.66379 1.01599 0.47501 0.0
C876 C 0.60578 0.05306 0.53697 0.0
C877 C 0.59044 0.03498 0.57576 0.0
C878 C 0.6387 0.02299 0.51327 0.0
C879 C 0.6004 1.01114 0.58519 0.0
C880 C 0.67038 0.99115 0.45837 0.0
C881 C 0.70248 0.02864 0.40814 0.0
N882 N 0.62371 1.00577 0.55314 0.0
N883 N 0.68027 0.03386 0.45018 0.0
H884 H 0.51576 0.72967 0.43392 0.0
H885 H 0.57988 0.60242 0.58677 0.0
H886 H 0.59353 0.71414 0.40745 0.0
H887 H 0.50175 0.6161 0.61632 0.0
H888 H 0.58541 0.64481 0.53504 0.0
H889 H 0.51045 0.69039 0.51612 0.0
C890 C 0.53181 0.71836 0.44755 0.0
C891 C 0.55514 0.72533 0.41366 0.0
C892 C 0.56702 0.63864 0.55308 0.0
C893 C 0.54916 0.67995 0.50601 0.0
C894 C 0.56382 0.61427 0.58238 0.0
C895 C 0.5402 0.60523 0.60423 0.0
C896 C 0.54648 0.65445 0.54522 0.0
C897 C 0.52028 0.62194 0.59921 0.0
C898 C 0.52875 0.69576 0.49361 0.0
C899 C 0.57519 0.70957 0.43203 0.0
N900 N 0.52382 0.64554 0.56955 0.0
N901 N 0.57172 0.68771 0.47589 0.0
H902 H 0.8615 0.54515 0.21968 0.0
H903 H 0.9392 0.51021 0.64407 0.0
H904 H 0.81999 0.55292 0.47769 0.0
H905 H 0.95833 0.57741 0.50451 0.0
H906 H 0.89744 0.5127 0.57656 0.0
H907 H 0.89952 0.54258 0.31042 0.0
C908 C 0.86021 0.54629 0.29555 0.0
C909 C 0.83718 0.55012 0.34035 0.0
C910 C 0.91085 0.5269 0.56127 0.0
C911 C 0.88131 0.54597 0.44528 0.0
C912 C 0.93482 0.5255 0.59933 0.0
C913 C 0.95299 0.54321 0.57774 0.0
C914 C 0.90502 0.54583 0.49934 0.0
C915 C 0.94564 0.56274 0.5204 0.0
C916 C 0.88207 0.54469 0.34714 0.0
C917 C 0.83712 0.55021 0.4395 0.0
N918 N 0.92258 0.56319 0.48163 0.0
N919 N 0.85883 0.54825 0.48871 0.0
loop_
_geom_bond_atom_site_label_1
_geom_bond_atom_site_label_2
_geom_bond_distance
_geom_bond_site_symmetry_2
_ccdc_geom_bond_type
H0 C1 0.949 . S
C1 H0 0.949 . S
C1 C2 1.395 . S
C1 C3 1.391 . S
C2 C1 1.395 . S
C2 C5 1.390 . S
C3 C1 1.391 . S
C3 C7 1.387 . S
C3 C8 1.491 . S
H4 C5 0.950 . S
C5 C2 1.390 . S
C5 H4 0.950 . S
C5 C6 1.378 . S
C6 C5 1.378 . S
C6 C7 1.409 . S
C7 C3 1.387 . S
C7 C6 1.409 . S
C7 H9 0.951 . S
C8 C3 1.491 . S
C8 C10 1.382 . S
C8 C12 1.404 . S
H9 C7 0.951 . S
C10 C8 1.382 . S
C10 C11 1.390 . S
C10 H15 0.949 . S
C11 C10 1.390 . S
C11 C16 1.399 . S
C12 C8 1.404 . S
C12 H13 0.950 . S
C12 C14 1.375 . S
H13 C12 0.950 . S
C14 C12 1.375 . S
C14 C16 1.382 . S
C14 H18 0.950 . S
H15 C10 0.949 . S
C16 C11 1.399 . S
C16 C14 1.382 . S
C16 H17 0.952 . S
H17 C16 0.952 . S
H18 C14 0.950 . S
H19 C20 0.949 . S
C20 H19 0.949 . S
C20 C21 1.395 . S
C20 C22 1.391 . S
C21 C20 1.395 . S
C21 C24 1.390 . S
C22 C20 1.391 . S
C22 C26 1.387 . S
C22 C27 1.491 . S
H23 C24 0.950 . S
C24 C21 1.390 . S
C24 H23 0.950 . S
C24 C25 1.378 . S
C25 C24 1.378 . S
C25 C26 1.409 . S
C26 C22 1.387 . S
C26 C25 1.409 . S
C26 H28 0.951 . S
C27 C22 1.491 . S
C27 C29 1.382 . S
C27 C31 1.404 . S
H28 C26 0.951 . S
C29 C27 1.382 . S
C29 C30 1.390 . S
C29 H34 0.949 . S
C30 C29 1.390 . S
C30 C35 1.399 . S
C31 C27 1.404 . S
C31 H32 0.950 . S
C31 C33 1.375 . S
H32 C31 0.950 . S
C33 C31 1.375 . S
C33 C35 1.382 . S
C33 H37 0.950 . S
H34 C29 0.949 . S
C35 C30 1.399 . S
C35 C33 1.382 . S
C35 H36 0.952 . S
H36 C35 0.952 . S
H37 C33 0.950 . S
H38 C39 0.949 . S
C39 H38 0.949 . S
C39 C40 1.395 . S
C39 C41 1.391 . S
C40 C39 1.395 . S
C40 C43 1.390 . S
C41 C39 1.391 . S
C41 C45 1.387 . S
C41 C46 1.491 . S
H42 C43 0.950 . S
C43 C40 1.390 . S
C43 H42 0.950 . S
C43 C44 1.378 . S
C44 C43 1.378 . S
C44 C45 1.409 . S
C45 C41 1.387 . S
C45 C44 1.409 . S
C45 H47 0.951 . S
C46 C41 1.491 . S
C46 C48 1.382 . S
C46 C50 1.404 . S
H47 C45 0.951 . S
C48 C46 1.382 . S
C48 C49 1.390 . S
C48 H53 0.949 . S
C49 C48 1.390 . S
C49 C54 1.399 . S
C50 C46 1.404 . S
C50 H51 0.950 . S
C50 C52 1.375 . S
H51 C50 0.950 . S
C52 C50 1.375 . S
C52 C54 1.382 . S
C52 H56 0.950 . S
H53 C48 0.949 . S
C54 C49 1.399 . S
C54 C52 1.382 . S
C54 H55 0.952 . S
H55 C54 0.952 . S
H56 C52 0.950 . S
H57 C58 0.949 . S
C58 H57 0.949 . S
C58 C59 1.395 . S
C58 C60 1.391 . S
C59 C58 1.395 . S
C59 C62 1.390 . S
C60 C58 1.391 . S
C60 C64 1.387 . S
C60 C65 1.491 . S
H61 C62 0.950 . S
C62 C59 1.390 . S
C62 H61 0.950 . S
C62 C63 1.378 . S
C63 C62 1.378 . S
C63 C64 1.409 . S
C64 C60 1.387 . S
C64 C63 1.409 . S
C64 H66 0.951 . S
C65 C60 1.491 . S
C65 C67 1.382 . S
C65 C69 1.404 . S
H66 C64 0.951 . S
C67 C65 1.382 . S
C67 C68 1.390 . S
C67 H72 0.949 . S
C68 C67 1.390 . S
C68 C73 1.399 . S
C69 C65 1.404 . S
C69 H70 0.950 . S
C69 C71 1.375 . S
H70 C69 0.950 . S
C71 C69 1.375 . S
C71 C73 1.382 . S
C71 H75 0.950 . S
H72 C67 0.949 . S
C73 C68 1.399 . S
C73 C71 1.382 . S
C73 H74 0.952 . S
H74 C73 0.952 . S
H75 C71 0.950 . S
H76 C77 0.949 . S
C77 H76 0.949 . S
C77 C78 1.395 . S
C77 C79 1.391 1_554 S
C78 C77 1.395 . S
C78 C81 1.390 1_554 S
C79 C77 1.391 1_556 S
C79 C83 1.387 . S
C79 C84 1.491 . S
H80 C81 0.950 . S
C81 C78 1.390 1_556 S
C81 H80 0.950 . S
C81 C82 1.378 . S
C82 C81 1.378 . S
C82 C83 1.409 . S
C83 C79 1.387 . S
C83 C82 1.409 . S
C83 H85 0.951 . S
C84 C79 1.491 . S
C84 C86 1.382 1_556 S
C84 C88 1.404 . S
H85 C83 0.951 . S
C86 C84 1.382 1_554 S
C86 C87 1.390 . S
C86 H91 0.949 . S
C87 C86 1.390 . S
C87 C92 1.399 1_554 S
C88 C84 1.404 . S
C88 H89 0.950 . S
C88 C90 1.375 . S
H89 C88 0.950 . S
C90 C88 1.375 . S
C90 C92 1.382 . S
C90 H94 0.950 . S
H91 C86 0.949 . S
C92 C87 1.399 1_556 S
C92 C90 1.382 . S
C92 H93 0.952 . S
H93 C92 0.952 . S
H94 C90 0.950 . S
H95 C96 0.949 . S
C96 H95 0.949 . S
C96 C97 1.395 . S
C96 C98 1.391 1_554 S
C97 C96 1.395 . S
C97 C100 1.390 1_554 S
C98 C96 1.391 1_556 S
C98 C102 1.387 . S
C98 C103 1.491 . S
H99 C100 0.950 . S
C100 C97 1.390 1_556 S
C100 H99 0.950 . S
C100 C101 1.378 . S
C101 C100 1.378 . S
C101 C102 1.409 . S
C102 C98 1.387 . S
C102 C101 1.409 . S
C102 H104 0.951 . S
C103 C98 1.491 . S
C103 C105 1.382 1_556 S
C103 C107 1.404 . S
H104 C102 0.951 . S
C105 C103 1.382 1_554 S
C105 C106 1.390 . S
C105 H110 0.949 . S
C106 C105 1.390 . S
C106 C111 1.399 1_554 S
C107 C103 1.404 . S
C107 H108 0.950 . S
C107 C109 1.375 . S
H108 C107 0.950 . S
C109 C107 1.375 . S
C109 C111 1.382 . S
C109 H113 0.950 . S
H110 C105 0.949 . S
C111 C106 1.399 1_556 S
C111 C109 1.382 . S
C111 H112 0.952 . S
H112 C111 0.952 . S
H113 C109 0.950 . S
H114 C115 0.949 . S
C115 H114 0.949 . S
C115 C116 1.395 . S
C115 C117 1.391 1_554 S
C116 C115 1.395 . S
C116 C119 1.390 1_554 S
C117 C115 1.391 1_556 S
C117 C121 1.387 . S
C117 C122 1.491 . S
H118 C119 0.950 . S
C119 C116 1.390 1_556 S
C119 H118 0.950 . S
C119 C120 1.378 . S
C120 C119 1.378 . S
C120 C121 1.409 . S
C121 C117 1.387 . S
C121 C120 1.409 . S
C121 H123 0.951 . S
C122 C117 1.491 . S
C122 C124 1.382 1_556 S
C122 C126 1.404 . S
H123 C121 0.951 . S
C124 C122 1.382 1_554 S
C124 C125 1.390 . S
C124 H129 0.949 . S
C125 C124 1.390 . S
C125 C130 1.399 1_554 S
C126 C122 1.404 . S
C126 H127 0.950 . S
C126 C128 1.375 . S
H127 C126 0.950 . S
C128 C126 1.375 . S
C128 C130 1.382 . S
C128 H132 0.950 . S
H129 C124 0.949 . S
C130 C125 1.399 1_556 S
C130 C128 1.382 . S
C130 H131 0.952 . S
H131 C130 0.952 . S
H132 C128 0.950 . S
H133 C134 0.949 . S
C134 H133 0.949 . S
C134 C135 1.395 . S
C134 C136 1.391 1_554 S
C135 C134 1.395 . S
C135 C138 1.390 1_554 S
C136 C134 1.391 1_556 S
C136 C140 1.387 . S
C136 C141 1.491 . S
H137 C138 0.950 . S
C138 C135 1.390 1_556 S
C138 H137 0.950 . S
C138 C139 1.378 . S
C139 C138 1.378 . S
C139 C140 1.409 . S
C140 C136 1.387 . S
C140 C139 1.409 . S
C140 H142 0.951 . S
C141 C136 1.491 . S
C141 C143 1.382 1_556 S
C141 C145 1.404 . S
H142 C140 0.951 . S
C143 C141 1.382 1_554 S
C143 C144 1.390 . S
C143 H148 0.949 . S
C144 C143 1.390 . S
C144 C149 1.399 1_554 S
C145 C141 1.404 . S
C145 H146 0.950 . S
C145 C147 1.375 . S
H146 C145 0.950 . S
C147 C145 1.375 . S
C147 C149 1.382 . S
C147 H151 0.950 . S
H148 C143 0.949 . S
C149 C144 1.399 1_556 S
C149 C147 1.382 . S
C149 H150 0.952 . S
H150 C149 0.952 . S
H151 C147 0.950 . S
Tb152 N183 2.660 1_565 S
Tb152 N190 2.600 1_565 S
Tb152 O196 2.546 . S
Tb152 O197 2.610 1_455 S
Tb152 O199 2.321 1_455 S
Tb152 O200 2.552 . S
Tb152 O201 2.413 . S
Tb152 O203 2.362 1_565 S
Tb152 O204 2.427 . S
Tb152 C216 2.833 . S
C153 C156 1.432 1_545 S
C153 C157 1.414 . S
C153 N160 1.359 . S
C154 C156 1.417 . S
C154 C158 1.432 . S
C154 C166 1.410 . S
C155 C157 1.444 1_565 S
C155 C158 1.317 . S
C155 H178 0.929 . S
C156 C153 1.432 1_565 S
C156 C154 1.417 . S
C156 N164 1.360 1_565 S
C157 C153 1.414 . S
C157 C155 1.444 1_545 S
C157 C162 1.385 . S
C158 C154 1.432 . S
C158 C155 1.317 . S
C158 H170 0.930 . S
C159 C161 1.392 . S
C159 C162 1.370 . S
C159 H171 0.931 . S
N160 C153 1.359 . S
N160 C161 1.327 . S
N160 Tb163 2.600 . S
C161 C159 1.392 . S
C161 N160 1.327 . S
C161 H168 0.930 . S
C162 C157 1.385 . S
C162 C159 1.370 . S
C162 H181 0.930 . S
Tb163 N160 2.600 . S
Tb163 N164 2.660 . S
Tb163 O197 2.362 1_545 S
Tb163 O198 2.421 . S
Tb163 O202 2.546 . S
Tb163 O203 2.610 1_655 S
Tb163 O205 2.320 1_655 S
Tb163 O206 2.552 1_655 S
Tb163 O207 2.418 . S
Tb163 C227 2.833 . S
N164 C156 1.360 1_545 S
N164 Tb163 2.660 . S
N164 C165 1.305 1_645 S
C165 N164 1.305 1_465 S
C165 C167 1.407 . S
C165 H172 0.930 . S
C166 C154 1.410 . S
C166 C167 1.345 1_655 S
C166 H174 0.930 . S
C167 C165 1.407 . S
C167 C166 1.345 1_455 S
C167 H169 0.930 . S
H168 C161 0.930 . S
H169 C167 0.930 . S
H170 C158 0.930 . S
H171 C159 0.931 . S
H172 C165 0.930 . S
H173 C187 0.930 1_655 S
H174 C166 0.930 . S
H175 C193 0.930 . S
H176 C184 0.930 1_655 S
H177 C191 0.931 . S
H178 C155 0.929 . S
H179 C185 0.930 . S
H180 C218 0.930 . S
H181 C162 0.930 . S
H182 C217 0.929 . S
N183 Tb152 2.660 1_545 S
N183 C184 1.305 . S
N183 C188 1.360 . S
C184 H176 0.930 1_455 S
C184 N183 1.305 . S
C184 C187 1.407 1_556 S
C185 H179 0.930 . S
C185 C186 1.410 . S
C185 C187 1.345 . S
C186 C185 1.410 . S
C186 C188 1.417 1_554 S
C186 C218 1.432 . S
C187 H173 0.930 1_455 S
C187 C184 1.407 1_554 S
C187 C185 1.345 . S
C188 N183 1.360 . S
C188 C186 1.417 1_556 S
C188 C192 1.432 . S
H189 C194 0.930 . S
N190 Tb152 2.600 1_545 S
N190 C192 1.359 . S
N190 C193 1.327 1_545 S
C191 H177 0.931 . S
C191 C193 1.392 . S
C191 C194 1.370 1_565 S
C192 C188 1.432 . S
C192 N190 1.359 . S
C192 C195 1.414 . S
C193 H175 0.930 . S
C193 N190 1.327 1_565 S
C193 C191 1.392 . S
C194 H189 0.930 . S
C194 C191 1.370 1_545 S
C194 C195 1.385 . S
C195 C192 1.414 . S
C195 C194 1.385 . S
C195 C217 1.444 1_556 S
O196 Tb152 2.546 . S
O196 C216 1.251 . S
O197 Tb152 2.610 1_655 S
O197 Tb163 2.362 1_565 S
O197 C208 1.283 . S
O198 Tb163 2.421 . S
O198 C215 1.262 . S
O199 Tb152 2.321 1_655 S
O199 C215 1.258 1_565 S
O200 Tb152 2.552 . S
O200 C208 1.243 1_455 S
O201 Tb152 2.413 . S
O201 C216 1.256 . S
O202 Tb163 2.546 . S
O202 C227 1.251 . S
O203 Tb152 2.362 1_545 S
O203 Tb163 2.610 1_455 S
O203 C219 1.283 . S
O204 Tb152 2.427 . S
O204 C226 1.235 1_565 S
O205 Tb163 2.320 1_455 S
O205 C226 1.260 . S
O206 Tb163 2.552 1_455 S
O206 C219 1.243 . S
O207 Tb163 2.418 . S
O207 C227 1.271 . S
C208 O197 1.283 . S
C208 O200 1.243 1_655 S
C209 C211 1.382 . S
C209 C213 1.393 . S
C209 C216 1.500 . S
C210 C211 1.400 . S
C210 C212 1.384 1_556 S
C211 C209 1.382 . S
C211 C210 1.400 . S
C211 H228 0.889 1_455 S
C212 C210 1.384 1_554 S
C212 C214 1.392 1_554 S
C212 H229 0.931 . S
C213 C209 1.393 . S
C213 C214 1.401 . S
C213 H230 0.930 . S
C214 C212 1.392 1_556 S
C214 C213 1.401 . S
C214 H231 0.931 . S
C215 O198 1.262 . S
C215 O199 1.258 1_545 S
C216 Tb152 2.833 . S
C216 O196 1.251 . S
C216 O201 1.256 . S
C216 C209 1.500 . S
C217 H182 0.929 . S
C217 C195 1.444 1_554 S
C217 C218 1.317 . S
C218 H180 0.930 . S
C218 C186 1.432 . S
C218 C217 1.317 . S
C219 O203 1.283 . S
C219 O206 1.243 . S
C220 C221 1.378 . S
C220 C224 1.393 . S
C220 C227 1.500 . S
C221 C220 1.378 . S
C221 C222 1.400 . S
C221 H232 0.935 1_655 S
C222 C221 1.400 . S
C222 C223 1.384 . S
C223 C222 1.384 . S
C223 C225 1.392 . S
C223 H233 0.931 . S
C224 C220 1.393 . S
C224 C225 1.401 . S
C224 H234 0.930 . S
C225 C223 1.392 . S
C225 C224 1.401 . S
C225 H235 0.930 . S
C226 O204 1.235 1_545 S
C226 O205 1.260 . S
C227 Tb163 2.833 . S
C227 O202 1.251 . S
C227 O207 1.271 . S
C227 C220 1.500 . S
H228 C211 0.889 1_655 S
H229 C212 0.931 . S
H230 C213 0.930 . S
H231 C214 0.931 . S
H232 C221 0.935 1_455 S
H233 C223 0.931 . S
H234 C224 0.930 . S
H235 C225 0.930 . S
Tb236 N267 2.660 . S
Tb236 N274 2.600 . S
Tb236 O280 2.546 . S
Tb236 O281 2.627 . S
Tb236 O283 2.320 1_545 S
Tb236 O284 2.552 . S
Tb236 O285 2.413 . S
Tb236 O287 2.362 . S
Tb236 O288 2.421 . S
Tb236 C300 2.833 . S
C237 C240 1.432 . S
C237 C241 1.414 . S
C237 N244 1.359 . S
C238 C240 1.417 . S
C238 C242 1.432 . S
C238 C250 1.410 . S
C239 C241 1.444 . S
C239 C242 1.317 . S
C239 H262 0.929 . S
C240 C237 1.432 . S
C240 C238 1.417 . S
C240 N248 1.360 . S
C241 C237 1.414 . S
C241 C239 1.444 . S
C241 C246 1.385 . S
C242 C238 1.432 . S
C242 C239 1.317 . S
C242 H254 0.930 . S
C243 C245 1.392 . S
C243 C246 1.370 . S
C243 H255 0.931 . S
N244 C237 1.359 . S
N244 C245 1.327 . S
N244 Tb247 2.600 . S
C245 C243 1.392 . S
C245 N244 1.327 . S
C245 H252 0.930 . S
C246 C241 1.385 . S
C246 C243 1.370 . S
C246 H265 0.930 . S
Tb247 N244 2.600 . S
Tb247 N248 2.660 . S
Tb247 O281 2.357 1_565 S
Tb247 O282 2.421 . S
Tb247 O286 2.546 . S
Tb247 O287 2.610 1_565 S
Tb247 O289 2.320 1_565 S
Tb247 O290 2.552 1_565 S
Tb247 O291 2.413 1_565 S
Tb247 C311 2.833 . S
N248 C240 1.360 . S
N248 Tb247 2.660 . S
N248 C249 1.305 1_565 S
C249 N248 1.305 1_545 S
C249 C251 1.407 . S
C249 H256 0.930 . S
C250 C238 1.410 . S
C250 C251 1.345 1_565 S
C250 H258 0.930 . S
C251 C249 1.407 . S
C251 C250 1.345 1_545 S
C251 H253 0.930 . S
H252 C245 0.930 . S
H253 C251 0.930 . S
H254 C242 0.930 . S
H255 C243 0.931 . S
H256 C249 0.930 . S
H257 C271 0.930 1_565 S
H258 C250 0.930 . S
H259 C277 0.930 . S
H260 C268 0.930 1_565 S
H261 C275 0.931 . S
H262 C239 0.929 . S
H263 C269 0.930 . S
H264 C302 0.930 . S
H265 C246 0.930 . S
H266 C301 0.929 . S
N267 Tb236 2.660 . S
N267 C268 1.305 . S
N267 C272 1.360 . S
C268 H260 0.930 1_545 S
C268 N267 1.305 . S
C268 C271 1.407 1_556 S
C269 H263 0.930 . S
C269 C270 1.410 . S
C269 C271 1.345 . S
C270 C269 1.410 . S
C270 C272 1.417 1_554 S
C270 C302 1.432 . S
C271 H257 0.930 1_545 S
C271 C268 1.407 1_554 S
C271 C269 1.345 . S
C272 N267 1.360 . S
C272 C270 1.417 1_556 S
C272 C276 1.432 . S
H273 C278 0.930 . S
N274 Tb236 2.600 . S
N274 C276 1.359 . S
N274 C277 1.327 . S
C275 H261 0.931 . S
C275 C277 1.392 . S
C275 C278 1.370 . S
C276 C272 1.432 . S
C276 N274 1.359 . S
C276 C279 1.414 . S
C277 H259 0.930 . S
C277 N274 1.327 . S
C277 C275 1.392 . S
C278 H273 0.930 . S
C278 C275 1.370 . S
C278 C279 1.385 . S
C279 C276 1.414 . S
C279 C278 1.385 . S
C279 C301 1.444 1_556 S
O280 Tb236 2.546 . S
O280 C300 1.251 . S
O281 Tb236 2.627 . S
O281 Tb247 2.357 1_545 S
O281 C292 1.284 . S
O282 Tb247 2.421 . S
O282 C299 1.262 . S
O283 Tb236 2.320 1_565 S
O283 C299 1.260 . S
O284 Tb236 2.552 . S
O284 C292 1.243 . S
O285 Tb236 2.413 . S
O285 C300 1.256 . S
O286 Tb247 2.546 . S
O286 C311 1.251 . S
O287 Tb236 2.362 . S
O287 Tb247 2.610 1_545 S
O287 C303 1.283 . S
O288 Tb236 2.421 . S
O288 C310 1.262 . S
O289 Tb247 2.320 1_545 S
O289 C310 1.260 . S
O290 Tb247 2.552 1_545 S
O290 C303 1.243 . S
O291 Tb247 2.413 1_545 S
O291 C311 1.256 1_545 S
C292 O281 1.284 . S
C292 O284 1.243 . S
C293 C295 1.382 . S
C293 C297 1.393 . S
C293 C300 1.500 . S
C294 C295 1.400 . S
C294 C296 1.384 1_556 S
C295 C293 1.382 . S
C295 C294 1.400 . S
C295 H312 0.930 . S
C296 C294 1.384 1_554 S
C296 C298 1.392 1_554 S
C296 H313 0.931 . S
C297 C293 1.393 . S
C297 C298 1.401 . S
C297 H314 0.930 . S
C298 C296 1.392 1_556 S
C298 C297 1.401 . S
C298 H315 0.930 1_556 S
C299 O282 1.262 . S
C299 O283 1.260 . S
C300 Tb236 2.833 . S
C300 O280 1.251 . S
C300 O285 1.256 . S
C300 C293 1.500 . S
C301 H266 0.929 . S
C301 C279 1.444 1_554 S
C301 C302 1.317 . S
C302 H264 0.930 . S
C302 C270 1.432 . S
C302 C301 1.317 . S
C303 O287 1.283 . S
C303 O290 1.243 . S
C304 C305 1.382 1_565 S
C304 C308 1.393 . S
C304 C311 1.500 . S
C305 C304 1.382 1_545 S
C305 C306 1.402 . S
C305 H316 0.930 . S
C306 C305 1.402 . S
C306 C307 1.360 1_545 S
C307 C306 1.360 1_565 S
C307 C309 1.392 . S
C307 H317 0.931 . S
C308 C304 1.393 . S
C308 C309 1.401 . S
C308 H318 0.930 . S
C309 C307 1.392 . S
C309 C308 1.401 . S
C309 H319 0.930 . S
C310 O288 1.262 . S
C310 O289 1.260 . S
C311 Tb247 2.833 . S
C311 O286 1.251 . S
C311 O291 1.256 1_565 S
C311 C304 1.500 . S
H312 C295 0.930 . S
H313 C296 0.931 . S
H314 C297 0.930 . S
H315 C298 0.930 1_554 S
H316 C305 0.930 . S
H317 C307 0.931 . S
H318 C308 0.930 . S
H319 C309 0.930 . S
Tb320 N351 2.660 . S
Tb320 N358 2.600 . S
Tb320 O364 2.546 . S
Tb320 O365 2.610 . S
Tb320 O367 2.320 . S
Tb320 O368 2.552 . S
Tb320 O369 2.413 . S
Tb320 O371 2.362 . S
Tb320 O372 2.421 . S
Tb320 C384 2.833 . S
C321 C324 1.432 . S
C321 C325 1.414 . S
C321 N328 1.359 . S
C322 C324 1.417 . S
C322 C326 1.432 . S
C322 C334 1.410 . S
C323 C325 1.444 . S
C323 C326 1.317 . S
C323 H346 0.929 . S
C324 C321 1.432 . S
C324 C322 1.417 . S
C324 N332 1.360 . S
C325 C321 1.414 . S
C325 C323 1.444 . S
C325 C330 1.385 . S
C326 C322 1.432 . S
C326 C323 1.317 . S
C326 H338 0.930 . S
C327 C329 1.392 . S
C327 C330 1.370 . S
C327 H339 0.931 1_556 S
N328 C321 1.359 . S
N328 C329 1.327 . S
N328 Tb331 2.600 . S
C329 C327 1.392 . S
C329 N328 1.327 . S
C329 H336 0.930 . S
C330 C325 1.385 . S
C330 C327 1.370 . S
C330 H349 0.930 . S
Tb331 N328 2.600 . S
Tb331 N332 2.660 . S
Tb331 O365 2.362 . S
Tb331 O366 2.421 . S
Tb331 O370 2.546 . S
Tb331 O371 2.610 . S
Tb331 O373 2.320 . S
Tb331 O374 2.552 . S
Tb331 O375 2.413 . S
Tb331 C395 2.833 . S
N332 C324 1.360 . S
N332 Tb331 2.660 . S
N332 C333 1.305 . S
C333 N332 1.305 . S
C333 C335 1.407 . S
C333 H340 0.930 . S
C334 C322 1.410 . S
C334 C335 1.345 . S
C334 H342 0.930 . S
C335 C333 1.407 . S
C335 C334 1.345 . S
C335 H337 0.930 . S
H336 C329 0.930 . S
H337 C335 0.930 . S
H338 C326 0.930 . S
H339 C327 0.931 1_554 S
H340 C333 0.930 . S
H341 C355 0.930 . S
H342 C334 0.930 . S
H343 C361 0.930 . S
H344 C352 0.930 . S
H345 C359 0.931 . S
H346 C323 0.929 . S
H347 C353 0.930 . S
H348 C386 0.930 . S
H349 C330 0.930 . S
H350 C385 0.929 . S
N351 Tb320 2.660 . S
N351 C352 1.305 . S
N351 C356 1.360 . S
C352 H344 0.930 . S
C352 N351 1.305 . S
C352 C355 1.407 . S
C353 H347 0.930 . S
C353 C354 1.410 . S
C353 C355 1.345 . S
C354 C353 1.410 . S
C354 C356 1.417 . S
C354 C386 1.432 . S
C355 H341 0.930 . S
C355 C352 1.407 . S
C355 C353 1.345 . S
C356 N351 1.360 . S
C356 C354 1.417 . S
C356 C360 1.432 . S
H357 C362 0.930 . S
N358 Tb320 2.600 . S
N358 C360 1.359 . S
N358 C361 1.327 . S
C359 H345 0.931 . S
C359 C361 1.392 . S
C359 C362 1.370 . S
C360 C356 1.432 . S
C360 N358 1.359 . S
C360 C363 1.414 . S
C361 H343 0.930 . S
C361 N358 1.327 . S
C361 C359 1.392 . S
C362 H357 0.930 . S
C362 C359 1.370 . S
C362 C363 1.385 . S
C363 C360 1.414 . S
C363 C362 1.385 . S
C363 C385 1.444 . S
O364 Tb320 2.546 . S
O364 C384 1.251 . S
O365 Tb320 2.610 . S
O365 Tb331 2.362 . S
O365 C376 1.283 . S
O366 Tb331 2.421 . S
O366 C383 1.262 . S
O367 Tb320 2.320 . S
O367 C383 1.260 . S
O368 Tb320 2.552 . S
O368 C376 1.243 . S
O369 Tb320 2.413 . S
O369 C384 1.256 . S
O370 Tb331 2.546 . S
O370 C395 1.251 . S
O371 Tb320 2.362 . S
O371 Tb331 2.610 . S
O371 C387 1.283 . S
O372 Tb320 2.421 . S
O372 C394 1.262 . S
O373 Tb331 2.320 . S
O373 C394 1.260 . S
O374 Tb331 2.552 . S
O374 C387 1.243 . S
O375 Tb331 2.413 . S
O375 C395 1.256 . S
C376 O365 1.283 . S
C376 O368 1.243 . S
C377 C379 1.382 . S
C377 C381 1.393 . S
C377 C384 1.500 . S
C378 C379 1.400 . S
C378 C380 1.384 . S
C379 C377 1.382 . S
C379 C378 1.400 . S
C379 H396 0.930 . S
C380 C378 1.384 . S
C380 C382 1.392 . S
C380 H397 0.931 . S
C381 C377 1.393 . S
C381 C382 1.401 . S
C381 H398 0.930 . S
C382 C380 1.392 . S
C382 C381 1.401 . S
C382 H399 0.930 . S
C383 O366 1.262 . S
C383 O367 1.260 . S
C384 Tb320 2.833 . S
C384 O364 1.251 . S
C384 O369 1.256 . S
C384 C377 1.500 . S
C385 H350 0.929 . S
C385 C363 1.444 . S
C385 C386 1.317 . S
C386 H348 0.930 . S
C386 C354 1.432 . S
C386 C385 1.317 . S
C387 O371 1.283 . S
C387 O374 1.243 . S
C388 C389 1.382 . S
C388 C392 1.393 1_556 S
C388 C395 1.500 . S
C389 C388 1.382 . S
C389 C390 1.400 1_556 S
C389 H400 0.930 . S
C390 C389 1.400 1_554 S
C390 C391 1.384 . S
C391 C390 1.384 . S
C391 C393 1.392 . S
C391 H401 0.931 . S
C392 C388 1.393 1_554 S
C392 C393 1.401 . S
C392 H402 0.930 . S
C393 C391 1.392 . S
C393 C392 1.401 . S
C393 H403 0.930 . S
C394 O372 1.262 . S
C394 O373 1.260 . S
C395 Tb331 2.833 . S
C395 O370 1.251 . S
C395 O375 1.256 . S
C395 C388 1.500 . S
H396 C379 0.930 . S
H397 C380 0.931 . S
H398 C381 0.930 . S
H399 C382 0.930 . S
H400 C389 0.930 . S
H401 C391 0.931 . S
H402 C392 0.930 . S
H403 C393 0.930 . S
Tb404 N435 2.660 . S
Tb404 N442 2.600 . S
Tb404 O448 2.546 . S
Tb404 O449 2.610 . S
Tb404 O451 2.320 . S
Tb404 O452 2.552 . S
Tb404 O453 2.413 . S
Tb404 O455 2.362 . S
Tb404 O456 2.421 1_455 S
Tb404 C468 2.833 . S
C405 C408 1.432 . S
C405 C409 1.414 . S
C405 N412 1.359 . S
C406 C408 1.417 . S
C406 C410 1.432 . S
C406 C418 1.410 . S
C407 C409 1.444 . S
C407 C410 1.317 . S
C407 H430 0.929 . S
C408 C405 1.432 . S
C408 C406 1.417 . S
C408 N416 1.360 . S
C409 C405 1.414 . S
C409 C407 1.444 . S
C409 C414 1.385 1_655 S
C410 C406 1.432 . S
C410 C407 1.317 . S
C410 H422 0.930 . S
C411 C413 1.392 . S
C411 C414 1.370 . S
C411 H423 0.941 . S
N412 C405 1.359 . S
N412 C413 1.327 1_655 S
N412 Tb415 2.600 . S
C413 C411 1.392 . S
C413 N412 1.327 1_455 S
C413 H420 0.930 . S
C414 C409 1.385 1_455 S
C414 C411 1.370 . S
C414 H433 0.930 . S
Tb415 N412 2.600 . S
Tb415 N416 2.660 . S
Tb415 O449 2.362 1_655 S
Tb415 O450 2.421 1_655 S
Tb415 O454 2.546 . S
Tb415 O455 2.610 1_655 S
Tb415 O457 2.320 . S
Tb415 O458 2.552 . S
Tb415 O459 2.413 . S
Tb415 C479 2.833 . S
N416 C408 1.360 . S
N416 Tb415 2.660 . S
N416 C417 1.305 . S
C417 N416 1.305 . S
C417 C419 1.407 . S
C417 H424 0.930 . S
C418 C406 1.410 . S
C418 C419 1.345 . S
C418 H426 0.930 . S
C419 C417 1.407 . S
C419 C418 1.345 . S
C419 H421 0.930 . S
H420 C413 0.930 . S
H421 C419 0.930 . S
H422 C410 0.930 . S
H423 C411 0.941 . S
H424 C417 0.930 . S
H425 C439 0.930 . S
H426 C418 0.930 . S
H427 C445 0.930 1_655 S
H428 C436 0.930 . S
H429 C443 0.931 . S
H430 C407 0.929 . S
H431 C437 0.930 . S
H432 C470 0.930 . S
H433 C414 0.930 . S
H434 C469 0.929 . S
N435 Tb404 2.660 . S
N435 C436 1.305 . S
N435 C440 1.360 . S
C436 H428 0.930 . S
C436 N435 1.305 . S
C436 C439 1.407 . S
C437 H431 0.930 . S
C437 C438 1.410 . S
C437 C439 1.345 . S
C438 C437 1.410 . S
C438 C440 1.417 . S
C438 C470 1.432 . S
C439 H425 0.930 . S
C439 C436 1.407 . S
C439 C437 1.345 . S
C440 N435 1.360 . S
C440 C438 1.417 . S
C440 C444 1.432 . S
H441 C446 0.930 . S
N442 Tb404 2.600 . S
N442 C444 1.359 . S
N442 C445 1.327 . S
C443 H429 0.931 . S
C443 C445 1.392 1_655 S
C443 C446 1.370 1_655 S
C444 C440 1.432 . S
C444 N442 1.359 . S
C444 C447 1.414 . S
C445 H427 0.930 1_455 S
C445 N442 1.327 . S
C445 C443 1.392 1_455 S
C446 H441 0.930 . S
C446 C443 1.370 1_455 S
C446 C447 1.385 . S
C447 C444 1.414 . S
C447 C446 1.385 . S
C447 C469 1.444 . S
O448 Tb404 2.546 . S
O448 C468 1.251 . S
O449 Tb404 2.610 . S
O449 Tb415 2.362 1_455 S
O449 C460 1.283 . S
O450 Tb415 2.421 1_455 S
O450 C467 1.262 . S
O451 Tb404 2.320 . S
O451 C467 1.260 . S
O452 Tb404 2.552 . S
O452 C460 1.243 . S
O453 Tb404 2.413 . S
O453 C468 1.256 . S
O454 Tb415 2.546 . S
O454 C479 1.251 . S
O455 Tb404 2.362 . S
O455 Tb415 2.610 1_455 S
O455 C471 1.283 1_455 S
O456 Tb404 2.421 1_655 S
O456 C478 1.262 . S
O457 Tb415 2.320 . S
O457 C478 1.260 . S
O458 Tb415 2.552 . S
O458 C471 1.243 . S
O459 Tb415 2.413 . S
O459 C479 1.256 . S
C460 O449 1.283 . S
C460 O452 1.243 . S
C461 C463 1.382 . S
C461 C465 1.393 . S
C461 C468 1.500 . S
C462 C463 1.400 . S
C462 C464 1.384 . S
C463 C461 1.382 . S
C463 C462 1.400 . S
C463 H480 0.930 . S
C464 C462 1.384 . S
C464 C466 1.392 . S
C464 H481 0.931 . S
C465 C461 1.393 . S
C465 C466 1.401 . S
C465 H482 0.930 . S
C466 C464 1.392 . S
C466 C465 1.401 . S
C466 H483 0.930 . S
C467 O450 1.262 . S
C467 O451 1.260 . S
C468 Tb404 2.833 . S
C468 O448 1.251 . S
C468 O453 1.256 . S
C468 C461 1.500 . S
C469 H434 0.929 . S
C469 C447 1.444 . S
C469 C470 1.317 . S
C470 H432 0.930 . S
C470 C438 1.432 . S
C470 C469 1.317 . S
C471 O455 1.283 1_655 S
C471 O458 1.243 . S
C472 C473 1.382 . S
C472 C476 1.393 1_556 S
C472 C479 1.500 . S
C473 C472 1.382 . S
C473 C474 1.400 1_556 S
C473 H484 0.930 . S
C474 C473 1.400 1_554 S
C474 C475 1.384 . S
C475 C474 1.384 . S
C475 C477 1.392 . S
C475 H485 0.931 . S
C476 C472 1.393 1_554 S
C476 C477 1.401 . S
C476 H486 0.930 . S
C477 C475 1.392 . S
C477 C476 1.401 . S
C477 H487 0.930 . S
C478 O456 1.262 . S
C478 O457 1.260 . S
C479 Tb415 2.833 . S
C479 O454 1.251 . S
C479 O459 1.256 . S
C479 C472 1.500 . S
H480 C463 0.930 . S
H481 C464 0.931 . S
H482 C465 0.930 . S
H483 C466 0.930 . S
H484 C473 0.930 . S
H485 C475 0.931 . S
H486 C476 0.930 . S
H487 C477 0.930 . S
H488 C494 0.930 . S
H489 C498 0.930 1_565 S
H490 C503 0.929 . S
H491 C501 0.929 . S
H492 C496 0.929 . S
H493 C502 0.929 . S
C494 H488 0.930 . S
C494 C495 1.367 . S
C494 C502 1.378 . S
C495 C494 1.367 . S
C495 C503 1.433 . S
C496 H492 0.929 . S
C496 C498 1.378 . S
C496 C500 1.350 . S
C497 C500 1.463 . S
C497 C502 1.350 . S
C497 N505 1.427 . S
C498 H489 0.930 1_545 S
C498 C496 1.378 . S
C498 C499 1.367 . S
C499 C498 1.367 . S
C499 C501 1.433 . S
C500 C496 1.350 . S
C500 C497 1.463 . S
C500 N504 1.427 . S
C501 H491 0.929 . S
C501 C499 1.433 . S
C501 N504 1.384 . S
C502 H493 0.929 . S
C502 C494 1.378 . S
C502 C497 1.350 . S
C503 H490 0.929 . S
C503 C495 1.433 . S
C503 N505 1.384 . S
N504 C500 1.427 . S
N504 C501 1.384 . S
N505 C497 1.427 . S
N505 C503 1.384 . S
H506 C512 0.930 . S
H507 C516 0.930 . S
H508 C521 0.929 . S
H509 C519 0.929 . S
H510 C514 0.929 . S
H511 C520 0.929 . S
C512 H506 0.930 . S
C512 C513 1.367 . S
C512 C520 1.378 . S
C513 C512 1.367 . S
C513 C521 1.433 . S
C514 H510 0.929 . S
C514 C516 1.378 . S
C514 C518 1.350 . S
C515 C518 1.463 . S
C515 C520 1.350 . S
C515 N523 1.427 . S
C516 H507 0.930 . S
C516 C514 1.378 . S
C516 C517 1.367 . S
C517 C516 1.367 . S
C517 C519 1.433 . S
C518 C514 1.350 . S
C518 C515 1.463 . S
C518 N522 1.427 . S
C519 H509 0.929 . S
C519 C517 1.433 . S
C519 N522 1.384 . S
C520 H511 0.929 . S
C520 C512 1.378 . S
C520 C515 1.350 . S
C521 H508 0.929 . S
C521 C513 1.433 . S
C521 N523 1.384 . S
N522 C518 1.427 . S
N522 C519 1.384 . S
N523 C515 1.427 . S
N523 C521 1.384 . S
H524 C530 0.930 . S
H525 C534 0.930 . S
H526 C539 0.929 . S
H527 C537 0.929 . S
H528 C532 0.929 . S
H529 C538 0.929 . S
C530 H524 0.930 . S
C530 C531 1.367 . S
C530 C538 1.378 . S
C531 C530 1.367 . S
C531 C539 1.433 . S
C532 H528 0.929 . S
C532 C534 1.378 . S
C532 C536 1.350 . S
C533 C536 1.463 . S
C533 C538 1.350 . S
C533 N541 1.427 . S
C534 H525 0.930 . S
C534 C532 1.378 . S
C534 C535 1.367 . S
C535 C534 1.367 . S
C535 C537 1.433 . S
C536 C532 1.350 . S
C536 C533 1.463 . S
C536 N540 1.427 . S
C537 H527 0.929 . S
C537 C535 1.433 . S
C537 N540 1.384 . S
C538 H529 0.929 . S
C538 C530 1.378 . S
C538 C533 1.350 . S
C539 H526 0.929 . S
C539 C531 1.433 . S
C539 N541 1.384 . S
N540 C536 1.427 . S
N540 C537 1.384 . S
N541 C533 1.427 . S
N541 C539 1.384 . S
H542 C548 0.930 . S
H543 C552 0.930 . S
H544 C557 0.929 . S
H545 C555 0.929 . S
H546 C550 0.929 . S
H547 C556 0.929 . S
C548 H542 0.930 . S
C548 C549 1.367 . S
C548 C556 1.378 . S
C549 C548 1.367 . S
C549 C557 1.433 . S
C550 H546 0.929 . S
C550 C552 1.378 . S
C550 C554 1.350 . S
C551 C554 1.463 . S
C551 C556 1.350 . S
C551 N559 1.427 . S
C552 H543 0.930 . S
C552 C550 1.378 . S
C552 C553 1.367 . S
C553 C552 1.367 . S
C553 C555 1.433 . S
C554 C550 1.350 . S
C554 C551 1.463 . S
C554 N558 1.427 . S
C555 H545 0.929 . S
C555 C553 1.433 . S
C555 N558 1.384 . S
C556 H547 0.929 . S
C556 C548 1.378 . S
C556 C551 1.350 . S
C557 H544 0.929 . S
C557 C549 1.433 . S
C557 N559 1.384 . S
N558 C554 1.427 . S
N558 C555 1.384 . S
N559 C551 1.427 . S
N559 C557 1.384 . S
H560 C566 0.930 . S
H561 C570 0.930 . S
H562 C575 0.929 . S
H563 C573 0.929 1_545 S
H564 C568 0.929 . S
H565 C574 0.929 . S
C566 H560 0.930 . S
C566 C567 1.367 . S
C566 C574 1.378 . S
C567 C566 1.367 . S
C567 C575 1.433 . S
C568 H564 0.929 . S
C568 C570 1.378 . S
C568 C572 1.350 . S
C569 C572 1.463 1_554 S
C569 C574 1.350 . S
C569 N577 1.427 1_554 S
C570 H561 0.930 . S
C570 C568 1.378 . S
C570 C571 1.367 . S
C571 C570 1.367 . S
C571 C573 1.433 . S
C572 C568 1.350 . S
C572 C569 1.463 1_556 S
C572 N576 1.427 . S
C573 H563 0.929 1_565 S
C573 C571 1.433 . S
C573 N576 1.384 . S
C574 H565 0.929 . S
C574 C566 1.378 . S
C574 C569 1.350 . S
C575 H562 0.929 . S
C575 C567 1.433 . S
C575 N577 1.384 1_554 S
N576 C572 1.427 . S
N576 C573 1.384 . S
N577 C569 1.427 1_556 S
N577 C575 1.384 1_556 S
H578 C584 0.930 . S
H579 C588 0.930 . S
H580 C593 0.929 . S
H581 C591 0.929 . S
H582 C586 0.929 . S
H583 C592 0.929 . S
C584 H578 0.930 . S
C584 C585 1.367 . S
C584 C592 1.378 . S
C585 C584 1.367 . S
C585 C593 1.433 . S
C586 H582 0.929 . S
C586 C588 1.378 . S
C586 C590 1.350 . S
C587 C590 1.463 1_554 S
C587 C592 1.350 . S
C587 N595 1.427 1_554 S
C588 H579 0.930 . S
C588 C586 1.378 . S
C588 C589 1.367 . S
C589 C588 1.367 . S
C589 C591 1.433 . S
C590 C586 1.350 . S
C590 C587 1.463 1_556 S
C590 N594 1.427 . S
C591 H581 0.929 . S
C591 C589 1.433 . S
C591 N594 1.384 . S
C592 H583 0.929 . S
C592 C584 1.378 . S
C592 C587 1.350 . S
C593 H580 0.929 . S
C593 C585 1.433 . S
C593 N595 1.384 1_554 S
N594 C590 1.427 . S
N594 C591 1.384 . S
N595 C587 1.427 1_556 S
N595 C593 1.384 1_556 S
H596 C602 0.930 . S
H597 C606 0.930 . S
H598 C611 0.929 . S
H599 C609 0.929 . S
H600 C604 0.929 . S
H601 C610 0.929 1_556 S
C602 H596 0.930 . S
C602 C603 1.367 . S
C602 C610 1.378 . S
C603 C602 1.367 . S
C603 C611 1.433 . S
C604 H600 0.929 . S
C604 C606 1.378 . S
C604 C608 1.350 . S
C605 C608 1.463 1_554 S
C605 C610 1.350 . S
C605 N613 1.427 . S
C606 H597 0.930 . S
C606 C604 1.378 . S
C606 C607 1.367 . S
C607 C606 1.367 . S
C607 C609 1.433 . S
C608 C604 1.350 . S
C608 C605 1.463 1_556 S
C608 N612 1.427 . S
C609 H599 0.929 . S
C609 C607 1.433 . S
C609 N612 1.384 . S
C610 H601 0.929 1_554 S
C610 C602 1.378 . S
C610 C605 1.350 . S
C611 H598 0.929 . S
C611 C603 1.433 . S
C611 N613 1.384 . S
N612 C608 1.427 . S
N612 C609 1.384 . S
N613 C605 1.427 . S
N613 C611 1.384 . S
H614 C620 0.930 . S
H615 C624 0.930 . S
H616 C629 0.929 . S
H617 C627 0.941 . S
H618 C622 0.929 . S
H619 C628 0.929 . S
C620 H614 0.930 . S
C620 C621 1.367 . S
C620 C628 1.378 . S
C621 C620 1.367 . S
C621 C629 1.433 . S
C622 H618 0.929 . S
C622 C624 1.378 . S
C622 C626 1.350 . S
C623 C626 1.463 1_554 S
C623 C628 1.350 . S
C623 N631 1.427 1_554 S
C624 H615 0.930 . S
C624 C622 1.378 . S
C624 C625 1.367 . S
C625 C624 1.367 . S
C625 C627 1.433 . S
C626 C622 1.350 . S
C626 C623 1.463 1_556 S
C626 N630 1.427 . S
C627 H617 0.941 . S
C627 C625 1.433 . S
C627 N630 1.384 . S
C628 H619 0.929 . S
C628 C620 1.378 . S
C628 C623 1.350 . S
C629 H616 0.929 . S
C629 C621 1.433 . S
C629 N631 1.384 1_554 S
N630 C626 1.427 . S
N630 C627 1.384 . S
N631 C623 1.427 1_556 S
N631 C629 1.384 1_556 S
H632 C638 0.930 1_556 S
H633 C642 0.930 . S
H634 C647 0.929 . S
H635 C645 0.929 . S
H636 C640 0.929 . S
H637 C646 0.929 . S
C638 H632 0.930 1_554 S
C638 C639 1.367 . S
C638 C646 1.378 . S
C639 C638 1.367 . S
C639 C647 1.433 . S
C640 H636 0.929 . S
C640 C642 1.378 . S
C640 C644 1.350 . S
C641 C644 1.463 . S
C641 C646 1.350 . S
C641 N649 1.427 . S
C642 H633 0.930 . S
C642 C640 1.378 . S
C642 C643 1.367 . S
C643 C642 1.367 . S
C643 C645 1.433 . S
C644 C640 1.350 . S
C644 C641 1.463 . S
C644 N648 1.427 . S
C645 H635 0.929 . S
C645 C643 1.433 . S
C645 N648 1.384 . S
C646 H637 0.929 . S
C646 C638 1.378 . S
C646 C641 1.350 . S
C647 H634 0.929 . S
C647 C639 1.433 . S
C647 N649 1.384 . S
N648 C644 1.427 . S
N648 C645 1.384 . S
N649 C641 1.427 . S
N649 C647 1.384 . S
H650 C656 0.930 1_556 S
H651 C660 0.930 . S
H652 C665 0.929 . S
H653 C663 0.929 . S
H654 C658 0.929 . S
H655 C664 0.929 . S
C656 H650 0.930 1_554 S
C656 C657 1.367 . S
C656 C664 1.378 . S
C657 C656 1.367 . S
C657 C665 1.433 . S
C658 H654 0.929 . S
C658 C660 1.378 . S
C658 C662 1.350 . S
C659 C662 1.463 . S
C659 C664 1.350 . S
C659 N667 1.427 . S
C660 H651 0.930 . S
C660 C658 1.378 . S
C660 C661 1.367 . S
C661 C660 1.367 . S
C661 C663 1.433 . S
C662 C658 1.350 . S
C662 C659 1.463 . S
C662 N666 1.427 . S
C663 H653 0.929 . S
C663 C661 1.433 . S
C663 N666 1.384 . S
C664 H655 0.929 . S
C664 C656 1.378 . S
C664 C659 1.350 . S
C665 H652 0.929 . S
C665 C657 1.433 . S
C665 N667 1.384 . S
N666 C662 1.427 . S
N666 C663 1.384 . S
N667 C659 1.427 . S
N667 C665 1.384 . S
H668 C674 0.930 . S
H669 C678 0.930 . S
H670 C683 0.929 . S
H671 C681 0.929 . S
H672 C676 0.929 . S
H673 C682 0.929 . S
C674 H668 0.930 . S
C674 C675 1.367 . S
C674 C682 1.378 . S
C675 C674 1.367 . S
C675 C683 1.433 . S
C676 H672 0.929 . S
C676 C678 1.378 . S
C676 C680 1.350 . S
C677 C680 1.463 . S
C677 C682 1.350 . S
C677 N685 1.427 . S
C678 H669 0.930 . S
C678 C676 1.378 . S
C678 C679 1.367 . S
C679 C678 1.367 . S
C679 C681 1.433 . S
C680 C676 1.350 . S
C680 C677 1.463 . S
C680 N684 1.427 . S
C681 H671 0.929 . S
C681 C679 1.433 . S
C681 N684 1.384 . S
C682 H673 0.929 . S
C682 C674 1.378 . S
C682 C677 1.350 . S
C683 H670 0.929 . S
C683 C675 1.433 . S
C683 N685 1.384 . S
N684 C680 1.427 . S
N684 C681 1.384 . S
N685 C677 1.427 . S
N685 C683 1.384 . S
H686 C692 0.930 . S
H687 C696 0.930 . S
H688 C701 0.929 . S
H689 C699 0.929 . S
H690 C694 0.929 . S
H691 C700 0.929 . S
C692 H686 0.930 . S
C692 C693 1.367 . S
C692 C700 1.378 . S
C693 C692 1.367 . S
C693 C701 1.433 . S
C694 H690 0.929 . S
C694 C696 1.378 . S
C694 C698 1.350 . S
C695 C698 1.463 . S
C695 C700 1.350 . S
C695 N703 1.427 . S
C696 H687 0.930 . S
C696 C694 1.378 . S
C696 C697 1.367 . S
C697 C696 1.367 . S
C697 C699 1.433 . S
C698 C694 1.350 . S
C698 C695 1.463 . S
C698 N702 1.427 . S
C699 H689 0.929 . S
C699 C697 1.433 . S
C699 N702 1.384 . S
C700 H691 0.929 . S
C700 C692 1.378 . S
C700 C695 1.350 . S
C701 H688 0.929 . S
C701 C693 1.433 . S
C701 N703 1.384 . S
N702 C698 1.427 . S
N702 C699 1.384 . S
N703 C695 1.427 . S
N703 C701 1.384 . S
H704 C710 0.930 . S
H705 C714 0.930 . S
H706 C719 0.929 . S
H707 C717 0.929 . S
H708 C712 0.929 . S
H709 C718 0.929 1_455 S
C710 H704 0.930 . S
C710 C711 1.367 . S
C710 C718 1.378 . S
C711 C710 1.367 . S
C711 C719 1.433 . S
C712 H708 0.929 . S
C712 C714 1.378 . S
C712 C716 1.350 . S
C713 C716 1.463 . S
C713 C718 1.350 . S
C713 N721 1.427 . S
C714 H705 0.930 . S
C714 C712 1.378 . S
C714 C715 1.367 1_654 S
C715 C714 1.367 1_456 S
C715 C717 1.433 1_556 S
C716 C712 1.350 . S
C716 C713 1.463 . S
C716 N720 1.427 1_655 S
C717 H707 0.929 . S
C717 C715 1.433 1_554 S
C717 N720 1.384 . S
C718 H709 0.929 1_655 S
C718 C710 1.378 . S
C718 C713 1.350 . S
C719 H706 0.929 . S
C719 C711 1.433 . S
C719 N721 1.384 . S
N720 C716 1.427 1_455 S
N720 C717 1.384 . S
N721 C713 1.427 . S
N721 C719 1.384 . S
H722 C728 0.930 . S
H723 C732 0.930 . S
H724 C737 0.929 . S
H725 C735 0.929 . S
H726 C730 0.929 . S
H727 C736 0.929 . S
C728 H722 0.930 . S
C728 C729 1.367 . S
C728 C736 1.378 . S
C729 C728 1.367 . S
C729 C737 1.433 . S
C730 H726 0.929 . S
C730 C732 1.378 . S
C730 C734 1.350 1_545 S
C731 C734 1.463 . S
C731 C736 1.350 . S
C731 N739 1.427 . S
C732 H723 0.930 . S
C732 C730 1.378 . S
C732 C733 1.367 1_554 S
C733 C732 1.367 1_556 S
C733 C735 1.433 1_545 S
C734 C730 1.350 1_565 S
C734 C731 1.463 . S
C734 N738 1.427 . S
C735 H725 0.929 . S
C735 C733 1.433 1_565 S
C735 N738 1.384 1_556 S
C736 H727 0.929 . S
C736 C728 1.378 . S
C736 C731 1.350 . S
C737 H724 0.929 . S
C737 C729 1.433 . S
C737 N739 1.384 . S
N738 C734 1.427 . S
N738 C735 1.384 1_554 S
N739 C731 1.427 . S
N739 C737 1.384 . S
H740 C746 0.930 . S
H741 C750 0.930 . S
H742 C755 0.929 . S
H743 C753 0.929 . S
H744 C748 0.929 1_556 S
H745 C754 0.929 . S
C746 H740 0.930 . S
C746 C747 1.367 . S
C746 C754 1.378 . S
C747 C746 1.367 . S
C747 C755 1.433 . S
C748 H744 0.929 1_554 S
C748 C750 1.378 1_554 S
C748 C752 1.350 . S
C749 C752 1.463 . S
C749 C754 1.350 . S
C749 N757 1.427 . S
C750 H741 0.930 . S
C750 C748 1.378 1_556 S
C750 C751 1.367 1_556 S
C751 C750 1.367 1_554 S
C751 C753 1.433 . S
C752 C748 1.350 . S
C752 C749 1.463 . S
C752 N756 1.427 . S
C753 H743 0.929 . S
C753 C751 1.433 . S
C753 N756 1.384 . S
C754 H745 0.929 . S
C754 C746 1.378 . S
C754 C749 1.350 . S
C755 H742 0.929 . S
C755 C747 1.433 . S
C755 N757 1.384 . S
N756 C752 1.427 . S
N756 C753 1.384 . S
N757 C749 1.427 . S
N757 C755 1.384 . S
H758 C764 0.930 . S
H759 C768 0.930 . S
H760 C773 0.929 . S
H761 C771 0.929 . S
H762 C766 0.929 . S
H763 C772 0.929 . S
C764 H758 0.930 . S
C764 C765 1.367 . S
C764 C772 1.378 . S
C765 C764 1.367 . S
C765 C773 1.433 . S
C766 H762 0.929 . S
C766 C768 1.378 . S
C766 C770 1.350 . S
C767 C770 1.463 . S
C767 C772 1.350 . S
C767 N775 1.427 . S
C768 H759 0.930 . S
C768 C766 1.378 . S
C768 C769 1.367 . S
C769 C768 1.367 . S
C769 C771 1.433 . S
C770 C766 1.350 . S
C770 C767 1.463 . S
C770 N774 1.427 . S
C771 H761 0.929 . S
C771 C769 1.433 . S
C771 N774 1.384 . S
C772 H763 0.929 . S
C772 C764 1.378 . S
C772 C767 1.350 . S
C773 H760 0.929 . S
C773 C765 1.433 . S
C773 N775 1.384 . S
N774 C770 1.427 . S
N774 C771 1.384 . S
N775 C767 1.427 . S
N775 C773 1.384 . S
H776 C782 0.930 . S
H777 C786 0.930 . S
H778 C791 0.929 . S
H779 C789 0.929 . S
H780 C784 0.929 . S
H781 C790 0.929 . S
C782 H776 0.930 . S
C782 C783 1.367 . S
C782 C790 1.378 . S
C783 C782 1.367 . S
C783 C791 1.433 . S
C784 H780 0.929 . S
C784 C786 1.378 . S
C784 C788 1.350 . S
C785 C788 1.463 . S
C785 C790 1.350 . S
C785 N793 1.427 . S
C786 H777 0.930 . S
C786 C784 1.378 . S
C786 C787 1.367 . S
C787 C786 1.367 . S
C787 C789 1.433 . S
C788 C784 1.350 . S
C788 C785 1.463 . S
C788 N792 1.427 . S
C789 H779 0.929 . S
C789 C787 1.433 . S
C789 N792 1.384 . S
C790 H781 0.929 . S
C790 C782 1.378 . S
C790 C785 1.350 . S
C791 H778 0.929 . S
C791 C783 1.433 . S
C791 N793 1.384 . S
N792 C788 1.427 . S
N792 C789 1.384 . S
N793 C785 1.427 . S
N793 C791 1.384 . S
H794 C800 0.930 . S
H795 C804 0.930 1_565 S
H796 C809 0.929 . S
H797 C807 0.929 . S
H798 C802 0.929 . S
H799 C808 0.929 . S
C800 H794 0.930 . S
C800 C801 1.367 . S
C800 C808 1.378 . S
C801 C800 1.367 . S
C801 C809 1.433 . S
C802 H798 0.929 . S
C802 C804 1.378 . S
C802 C806 1.350 . S
C803 C806 1.463 . S
C803 C808 1.350 . S
C803 N811 1.427 . S
C804 H795 0.930 1_545 S
C804 C802 1.378 . S
C804 C805 1.367 . S
C805 C804 1.367 . S
C805 C807 1.433 . S
C806 C802 1.350 . S
C806 C803 1.463 . S
C806 N810 1.427 . S
C807 H797 0.929 . S
C807 C805 1.433 . S
C807 N810 1.384 . S
C808 H799 0.929 . S
C808 C800 1.378 . S
C808 C803 1.350 . S
C809 H796 0.929 . S
C809 C801 1.433 . S
C809 N811 1.384 . S
N810 C806 1.427 . S
N810 C807 1.384 . S
N811 C803 1.427 . S
N811 C809 1.384 . S
H812 C818 0.930 . S
H813 C822 0.930 . S
H814 C827 0.929 . S
H815 C825 0.929 . S
H816 C820 0.929 . S
H817 C826 0.929 . S
C818 H812 0.930 . S
C818 C819 1.367 . S
C818 C826 1.378 . S
C819 C818 1.367 . S
C819 C827 1.433 . S
C820 H816 0.929 . S
C820 C822 1.378 . S
C820 C824 1.350 . S
C821 C824 1.463 . S
C821 C826 1.350 . S
C821 N829 1.427 . S
C822 H813 0.930 . S
C822 C820 1.378 . S
C822 C823 1.367 . S
C823 C822 1.367 . S
C823 C825 1.433 . S
C824 C820 1.350 . S
C824 C821 1.463 . S
C824 N828 1.427 . S
C825 H815 0.929 . S
C825 C823 1.433 . S
C825 N828 1.384 . S
C826 H817 0.929 . S
C826 C818 1.378 . S
C826 C821 1.350 . S
C827 H814 0.929 . S
C827 C819 1.433 . S
C827 N829 1.384 . S
N828 C824 1.427 . S
N828 C825 1.384 . S
N829 C821 1.427 . S
N829 C827 1.384 . S
H830 C836 0.930 . S
H831 C840 0.930 . S
H832 C845 0.929 . S
H833 C843 0.929 . S
H834 C838 0.929 . S
H835 C844 0.929 . S
C836 H830 0.930 . S
C836 C837 1.367 . S
C836 C844 1.378 . S
C837 C836 1.367 . S
C837 C845 1.433 . S
C838 H834 0.929 . S
C838 C840 1.378 . S
C838 C842 1.350 . S
C839 C842 1.463 . S
C839 C844 1.350 . S
C839 N847 1.427 . S
C840 H831 0.930 . S
C840 C838 1.378 . S
C840 C841 1.367 . S
C841 C840 1.367 . S
C841 C843 1.433 . S
C842 C838 1.350 . S
C842 C839 1.463 . S
C842 N846 1.427 . S
C843 H833 0.929 . S
C843 C841 1.433 . S
C843 N846 1.384 . S
C844 H835 0.929 . S
C844 C836 1.378 . S
C844 C839 1.350 . S
C845 H832 0.929 . S
C845 C837 1.433 . S
C845 N847 1.384 . S
N846 C842 1.427 . S
N846 C843 1.384 . S
N847 C839 1.427 . S
N847 C845 1.384 . S
H848 C854 0.930 . S
H849 C858 0.930 . S
H850 C863 0.929 . S
H851 C861 0.929 . S
H852 C856 0.929 1_455 S
H853 C862 0.929 . S
C854 H848 0.930 . S
C854 C855 1.367 . S
C854 C862 1.378 . S
C855 C854 1.367 . S
C855 C863 1.433 . S
C856 H852 0.929 1_655 S
C856 C858 1.378 1_655 S
C856 C860 1.350 . S
C857 C860 1.463 . S
C857 C862 1.350 . S
C857 N865 1.427 . S
C858 H849 0.930 . S
C858 C856 1.378 1_455 S
C858 C859 1.367 1_455 S
C859 C858 1.367 1_655 S
C859 C861 1.433 . S
C860 C856 1.350 . S
C860 C857 1.463 . S
C860 N864 1.427 . S
C861 H851 0.929 . S
C861 C859 1.433 . S
C861 N864 1.384 . S
C862 H853 0.929 . S
C862 C854 1.378 . S
C862 C857 1.350 . S
C863 H850 0.929 . S
C863 C855 1.433 . S
C863 N865 1.384 . S
N864 C860 1.427 . S
N864 C861 1.384 . S
N865 C857 1.427 . S
N865 C863 1.384 . S
H866 C872 0.930 . S
H867 C876 0.930 . S
H868 C881 0.929 1_545 S
H869 C879 0.929 . S
H870 C874 0.929 . S
H871 C880 0.929 . S
C872 H866 0.930 . S
C872 C873 1.367 . S
C872 C880 1.378 . S
C873 C872 1.367 . S
C873 C881 1.433 . S
C874 H870 0.929 . S
C874 C876 1.378 . S
C874 C878 1.350 1_545 S
C875 C878 1.463 . S
C875 C880 1.350 . S
C875 N883 1.427 . S
C876 H867 0.930 . S
C876 C874 1.378 . S
C876 C877 1.367 1_545 S
C877 C876 1.367 1_565 S
C877 C879 1.433 . S
C878 C874 1.350 1_565 S
C878 C875 1.463 . S
C878 N882 1.427 . S
C879 H869 0.929 . S
C879 C877 1.433 . S
C879 N882 1.384 . S
C880 H871 0.929 . S
C880 C872 1.378 . S
C880 C875 1.350 . S
C881 H868 0.929 1_565 S
C881 C873 1.433 . S
C881 N883 1.384 . S
N882 C878 1.427 . S
N882 C879 1.384 . S
N883 C875 1.427 . S
N883 C881 1.384 . S
H884 C890 0.930 . S
H885 C894 0.930 . S
H886 C899 0.929 . S
H887 C897 0.929 . S
H888 C892 0.929 . S
H889 C898 0.929 . S
C890 H884 0.930 . S
C890 C891 1.367 . S
C890 C898 1.378 . S
C891 C890 1.367 . S
C891 C899 1.433 . S
C892 H888 0.929 . S
C892 C894 1.378 . S
C892 C896 1.350 . S
C893 C896 1.463 . S
C893 C898 1.350 . S
C893 N901 1.427 . S
C894 H885 0.930 . S
C894 C892 1.378 . S
C894 C895 1.367 . S
C895 C894 1.367 . S
C895 C897 1.433 . S
C896 C892 1.350 . S
C896 C893 1.463 . S
C896 N900 1.427 . S
C897 H887 0.929 . S
C897 C895 1.433 . S
C897 N900 1.384 . S
C898 H889 0.929 . S
C898 C890 1.378 . S
C898 C893 1.350 . S
C899 H886 0.929 . S
C899 C891 1.433 . S
C899 N901 1.384 . S
N900 C896 1.427 . S
N900 C897 1.384 . S
N901 C893 1.427 . S
N901 C899 1.384 . S
H902 C908 0.930 . S
H903 C912 0.930 . S
H904 C917 0.929 . S
H905 C915 0.929 . S
H906 C910 0.929 . S
H907 C916 0.929 . S
C908 H902 0.930 . S
C908 C909 1.367 . S
C908 C916 1.378 . S
C909 C908 1.367 . S
C909 C917 1.433 . S
C910 H906 0.929 . S
C910 C912 1.378 . S
C910 C914 1.350 . S
C911 C914 1.463 . S
C911 C916 1.350 . S
C911 N919 1.427 . S
C912 H903 0.930 . S
C912 C910 1.378 . S
C912 C913 1.367 . S
C913 C912 1.367 . S
C913 C915 1.433 . S
C914 C910 1.350 . S
C914 C911 1.463 . S
C914 N918 1.427 . S
C915 H905 0.929 . S
C915 C913 1.433 . S
C915 N918 1.384 . S
C916 H907 0.929 . S
C916 C908 1.378 . S
C916 C911 1.350 . S
C917 H904 0.929 . S
C917 C909 1.433 . S
C917 N919 1.384 . S
N918 C914 1.427 . S
N918 C915 1.384 . S
N919 C911 1.427 . S
N919 C917 1.384 . S
C495 C125 1.910 . S
C499 C226 1.938 . S
C517 C310 1.956 . S
C513 C144 1.919 . S
C535 C376 1.939 . S
C531 C87 1.998 . S
C553 C460 1.916 . S
C549 C106 1.996 . S
C571 C215 1.945 1_565 S
C567 C49 1.998 . S
C585 C68 2.018 . S
C589 C299 1.966 . S
C603 C11 2.120 . S
C607 C387 1.937 . S
C621 C30 2.100 . S
C625 C471 1.932 . S
C643 C222 0.698 1_455 S
C639 C97 0.684 . S
C661 C306 0.696 . S
C657 C116 0.651 . S
C679 C378 0.656 . S
C675 C135 0.643 . S
C693 C78 0.664 . S
C697 C462 0.689 . S
C711 C21 0.691 . S
C715 C210 0.712 . S
C733 C294 0.650 . S
C729 C40 0.685 . S
C751 C390 0.662 . S
C747 C59 0.634 . S
C765 C2 0.691 . S
C769 C474 0.666 . S
C783 C101 2.028 . S
C787 C219 2.078 . S
C801 C120 2.003 . S
C805 C303 2.039 . S
C823 C383 2.087 . S
C819 C139 1.924 . S
C841 C467 2.123 . S
C837 C82 1.941 . S
C855 C25 2.040 . S
C859 C208 2.072 . S
C877 C292 2.041 1_565 S
C873 C44 2.010 . S
C895 C394 2.088 . S
C891 C63 1.928 . S
C909 C6 1.941 . S
C913 C478 2.120 . S
