# Generated by pormake.
# Topology eea, (3,6)-cn, num edge types: 1
# Building blocks:
#     Node 0, Type 0, BuildingBlock: CUQRIR_clean_linker_1, # of connection points: 3
#     Node 1, Type 0, BuildingBlock: CUQRIR_clean_linker_1, # of connection points: 3
#     Node 2, Type 0, BuildingBlock: CUQRIR_clean_linker_1, # of connection points: 3
#     Node 3, Type 0, BuildingBlock: CUQRIR_clean_linker_1, # of connection points: 3
#     Node 4, Type 0, BuildingBlock: CUQRIR_clean_linker_1, # of connection points: 3
#     Node 5, Type 0, BuildingBlock: CUQRIR_clean_linker_1, # of connection points: 3
#     Node 6, Type 0, BuildingBlock: CUQRIR_clean_linker_1, # of connection points: 3
#     Node 7, Type 0, BuildingBlock: CUQRIR_clean_linker_1, # of connection points: 3
#     Node 8, Type 0, BuildingBlock: CUQRIR_clean_linker_1, # of connection points: 3
#     Node 9, Type 0, BuildingBlock: CUQRIR_clean_linker_1, # of connection points: 3
#     Node 10, Type 0, BuildingBlock: CUQRIR_clean_linker_1, # of connection points: 3
#     Node 11, Type 0, BuildingBlock: CUQRIR_clean_linker_1, # of connection points: 3
#     Node 12, Type 0, BuildingBlock: CUQRIR_clean_linker_1, # of connection points: 3
#     Node 13, Type 0, BuildingBlock: CUQRIR_clean_linker_1, # of connection points: 3
#     Node 14, Type 0, BuildingBlock: CUQRIR_clean_linker_1, # of connection points: 3
#     Node 15, Type 0, BuildingBlock: CUQRIR_clean_linker_1, # of connection points: 3
#     Node 16, Type 0, BuildingBlock: CUQRIR_clean_linker_1, # of connection points: 3
#     Node 17, Type 0, BuildingBlock: CUQRIR_clean_linker_1, # of connection points: 3
#     Node 18, Type 1, BuildingBlock: HISSIN_clean_sbu_0, # of connection points: 6
#     Node 19, Type 1, BuildingBlock: HISSIN_clean_sbu_0, # of connection points: 6
#     Node 20, Type 1, BuildingBlock: HISSIN_clean_sbu_0, # of connection points: 6
#     Node 21, Type 1, BuildingBlock: HISSIN_clean_sbu_0, # of connection points: 6
#     Node 22, Type 1, BuildingBlock: HISSIN_clean_sbu_0, # of connection points: 6
#     Node 23, Type 1, BuildingBlock: HISSIN_clean_sbu_0, # of connection points: 6
#     Node 24, Type 1, BuildingBlock: HISSIN_clean_sbu_0, # of connection points: 6
#     Node 25, Type 1, BuildingBlock: HISSIN_clean_sbu_0, # of connection points: 6
#     Node 26, Type 1, BuildingBlock: HISSIN_clean_sbu_0, # of connection points: 6
#     Edge 27, Type (0, 1), BuildingBlock: MIFKUJ_clean_linker_0, # of connection points: 2
#     Edge 28, Type (0, 1), BuildingBlock: MIFKUJ_clean_linker_0, # of connection points: 2
#     Edge 29, Type (0, 1), BuildingBlock: MIFKUJ_clean_linker_0, # of connection points: 2
#     Edge 30, Type (0, 1), BuildingBlock: MIFKUJ_clean_linker_0, # of connection points: 2
#     Edge 31, Type (0, 1), BuildingBlock: MIFKUJ_clean_linker_0, # of connection points: 2
#     Edge 32, Type (0, 1), BuildingBlock: MIFKUJ_clean_linker_0, # of connection points: 2
#     Edge 33, Type (0, 1), BuildingBlock: MIFKUJ_clean_linker_0, # of connection points: 2
#     Edge 34, Type (0, 1), BuildingBlock: MIFKUJ_clean_linker_0, # of connection points: 2
#     Edge 35, Type (0, 1), BuildingBlock: MIFKUJ_clean_linker_0, # of connection points: 2
#     Edge 36, Type (0, 1), BuildingBlock: MIFKUJ_clean_linker_0, # of connection points: 2
#     Edge 37, Type (0, 1), BuildingBlock: MIFKUJ_clean_linker_0, # of connection points: 2
#     Edge 38, Type (0, 1), BuildingBlock: MIFKUJ_clean_linker_0, # of connection points: 2
#     Edge 39, Type (0, 1), BuildingBlock: MIFKUJ_clean_linker_0, # of connection points: 2
#     Edge 40, Type (0, 1), BuildingBlock: MIFKUJ_clean_linker_0, # of connection points: 2
#     Edge 41, Type (0, 1), BuildingBlock: MIFKUJ_clean_linker_0, # of connection points: 2
#     Edge 42, Type (0, 1), BuildingBlock: MIFKUJ_clean_linker_0, # of connection points: 2
#     Edge 43, Type (0, 1), BuildingBlock: MIFKUJ_clean_linker_0, # of connection points: 2
#     Edge 44, Type (0, 1), BuildingBlock: MIFKUJ_clean_linker_0, # of connection points: 2
#     Edge 45, Type (0, 1), BuildingBlock: MIFKUJ_clean_linker_0, # of connection points: 2
#     Edge 46, Type (0, 1), BuildingBlock: MIFKUJ_clean_linker_0, # of connection points: 2
#     Edge 47, Type (0, 1), BuildingBlock: MIFKUJ_clean_linker_0, # of connection points: 2
#     Edge 48, Type (0, 1), BuildingBlock: MIFKUJ_clean_linker_0, # of connection points: 2
#     Edge 49, Type (0, 1), BuildingBlock: MIFKUJ_clean_linker_0, # of connection points: 2
#     Edge 50, Type (0, 1), BuildingBlock: MIFKUJ_clean_linker_0, # of connection points: 2
#     Edge 51, Type (0, 1), BuildingBlock: MIFKUJ_clean_linker_0, # of connection points: 2
#     Edge 52, Type (0, 1), BuildingBlock: MIFKUJ_clean_linker_0, # of connection points: 2
#     Edge 53, Type (0, 1), BuildingBlock: MIFKUJ_clean_linker_0, # of connection points: 2
#     Edge 54, Type (0, 1), BuildingBlock: MIFKUJ_clean_linker_0, # of connection points: 2
#     Edge 55, Type (0, 1), BuildingBlock: MIFKUJ_clean_linker_0, # of connection points: 2
#     Edge 56, Type (0, 1), BuildingBlock: MIFKUJ_clean_linker_0, # of connection points: 2
#     Edge 57, Type (0, 1), BuildingBlock: MIFKUJ_clean_linker_0, # of connection points: 2
#     Edge 58, Type (0, 1), BuildingBlock: MIFKUJ_clean_linker_0, # of connection points: 2
#     Edge 59, Type (0, 1), BuildingBlock: MIFKUJ_clean_linker_0, # of connection points: 2
#     Edge 60, Type (0, 1), BuildingBlock: MIFKUJ_clean_linker_0, # of connection points: 2
#     Edge 61, Type (0, 1), BuildingBlock: MIFKUJ_clean_linker_0, # of connection points: 2
#     Edge 62, Type (0, 1), BuildingBlock: MIFKUJ_clean_linker_0, # of connection points: 2
#     Edge 63, Type (0, 1), BuildingBlock: MIFKUJ_clean_linker_0, # of connection points: 2
#     Edge 64, Type (0, 1), BuildingBlock: MIFKUJ_clean_linker_0, # of connection points: 2
#     Edge 65, Type (0, 1), BuildingBlock: MIFKUJ_clean_linker_0, # of connection points: 2
#     Edge 66, Type (0, 1), BuildingBlock: MIFKUJ_clean_linker_0, # of connection points: 2
#     Edge 67, Type (0, 1), BuildingBlock: MIFKUJ_clean_linker_0, # of connection points: 2
#     Edge 68, Type (0, 1), BuildingBlock: MIFKUJ_clean_linker_0, # of connection points: 2
#     Edge 69, Type (0, 1), BuildingBlock: MIFKUJ_clean_linker_0, # of connection points: 2
#     Edge 70, Type (0, 1), BuildingBlock: MIFKUJ_clean_linker_0, # of connection points: 2
#     Edge 71, Type (0, 1), BuildingBlock: MIFKUJ_clean_linker_0, # of connection points: 2
#     Edge 72, Type (0, 1), BuildingBlock: MIFKUJ_clean_linker_0, # of connection points: 2
#     Edge 73, Type (0, 1), BuildingBlock: MIFKUJ_clean_linker_0, # of connection points: 2
#     Edge 74, Type (0, 1), BuildingBlock: MIFKUJ_clean_linker_0, # of connection points: 2
#     Edge 75, Type (0, 1), BuildingBlock: MIFKUJ_clean_linker_0, # of connection points: 2
#     Edge 76, Type (0, 1), BuildingBlock: MIFKUJ_clean_linker_0, # of connection points: 2
#     Edge 77, Type (0, 1), BuildingBlock: MIFKUJ_clean_linker_0, # of connection points: 2
#     Edge 78, Type (0, 1), BuildingBlock: MIFKUJ_clean_linker_0, # of connection points: 2
#     Edge 79, Type (0, 1), BuildingBlock: MIFKUJ_clean_linker_0, # of connection points: 2
#     Edge 80, Type (0, 1), BuildingBlock: MIFKUJ_clean_linker_0, # of connection points: 2
# Relax obj value: 0.103
# Max RMSD: 0.235
# Mean RMSD: 0.171
data_MOF--net-eea--node1-HISSIN_clean_sbu_0--node2-CUQRIR_clean_linker_1--edge1-MIFKUJ_clean_linker_0
_symmetry_space_group_name_H-M    P1
_symmetry_Int_Tables_number       1
_symmetry_cell_setting            triclinic
loop_
_symmetry_equiv_pos_as_xyz
'x, y, z'
_cell_length_a     64.825571
_cell_length_b     67.58586
_cell_length_c     83.34596
_cell_angle_alpha  87.382373
_cell_angle_beta   93.423027
_cell_angle_gamma 118.584
loop_
_atom_site_label
_atom_site_type_symbol
_atom_site_fract_x
_atom_site_fract_y
_atom_site_fract_z
_atom_type_partial_charge
C0 C 0.20453 0.10107 0.40499 0.0
N1 N 0.2151 0.11858 0.41523 0.0
N2 N 0.20969 0.08441 0.4097 0.0
C3 C 0.18893 0.10008 0.39059 0.0
C4 C 0.22398 0.09249 0.42299 0.0
N5 N 0.2274 0.11329 0.42628 0.0
C6 C 0.23373 0.0796 0.43313 0.0
H7 H 0.17087 0.09428 0.39457 0.0
H8 H 0.18796 0.08813 0.38156 0.0
H9 H 0.1953 0.11701 0.38484 0.0
H10 H 0.25147 0.09098 0.43832 0.0
H11 H 0.23476 0.06664 0.42602 0.0
H12 H 0.22198 0.07107 0.44322 0.0
C13 C 0.90785 0.1149 0.41395 0.0
N14 N 0.91947 0.13178 0.42468 0.0
N15 N 0.88648 0.09961 0.41925 0.0
C16 C 0.91743 0.1132 0.39835 0.0
C17 C 0.88535 0.10788 0.43346 0.0
N18 N 0.90517 0.12743 0.43673 0.0
C19 C 0.86497 0.09657 0.44436 0.0
H20 H 0.90323 0.10307 0.38949 0.0
H21 H 0.92844 0.1048 0.40069 0.0
H22 H 0.9285 0.1302 0.39307 0.0
H23 H 0.86897 0.08647 0.45366 0.0
H24 H 0.84854 0.08519 0.43757 0.0
H25 H 0.86215 0.10918 0.45057 0.0
C26 C 0.91536 0.81609 0.42331 0.0
N27 N 0.92667 0.8073 0.43289 0.0
N28 N 0.89833 0.81704 0.43126 0.0
C29 C 0.92043 0.82337 0.40602 0.0
C30 C 0.89976 0.80872 0.4461 0.0
N31 N 0.91723 0.80305 0.44718 0.0
C32 C 0.88142 0.80252 0.45836 0.0
H33 H 0.93923 0.82936 0.40378 0.0
H34 H 0.91591 0.837 0.40281 0.0
H35 H 0.90946 0.80889 0.39816 0.0
H36 H 0.86549 0.78691 0.45451 0.0
H37 H 0.87638 0.81601 0.45893 0.0
H38 H 0.88753 0.79957 0.47048 0.0
C39 C 0.09461 0.19755 0.60555 0.0
N40 N 0.11155 0.20645 0.59466 0.0
N41 N 0.07713 0.20253 0.60137 0.0
C42 C 0.09613 0.18562 0.62093 0.0
C43 C 0.08408 0.21495 0.58764 0.0
N44 N 0.10517 0.21755 0.58366 0.0
C45 C 0.0709 0.2256 0.5787 0.0
H46 H 0.08067 0.18045 0.62834 0.0
H47 H 0.11239 0.1968 0.62797 0.0
H48 H 0.09727 0.17032 0.61808 0.0
H49 H 0.07633 0.2423 0.5839 0.0
H50 H 0.05167 0.2152 0.57987 0.0
H51 H 0.0748 0.22802 0.56576 0.0
C52 C 0.7883 0.89439 0.61892 0.0
N53 N 0.78141 0.8773 0.60856 0.0
N54 N 0.78191 0.90976 0.61297 0.0
C55 C 0.79945 0.89505 0.63539 0.0
C56 C 0.77075 0.90127 0.59866 0.0
N57 N 0.77015 0.88137 0.59611 0.0
C58 C 0.76244 0.91337 0.5865 0.0
H59 H 0.79489 0.90445 0.64382 0.0
H60 H 0.81884 0.90361 0.63451 0.0
H61 H 0.79375 0.87775 0.6403 0.0
H62 H 0.77272 0.9319 0.58788 0.0
H63 H 0.74366 0.90801 0.58829 0.0
H64 H 0.764 0.90915 0.57407 0.0
C65 C 0.10788 0.90866 0.6169 0.0
N66 N 0.0961 0.89162 0.60642 0.0
N67 N 0.12649 0.92611 0.6099 0.0
C68 C 0.10152 0.90779 0.63406 0.0
C69 C 0.12542 0.91903 0.59476 0.0
N70 N 0.10687 0.89821 0.5926 0.0
C71 C 0.14312 0.93213 0.58231 0.0
H72 H 0.08268 0.90325 0.63445 0.0
H73 H 0.11249 0.92394 0.64022 0.0
H74 H 0.10391 0.89438 0.64071 0.0
H75 H 0.15791 0.92823 0.58394 0.0
H76 H 0.15022 0.95052 0.58378 0.0
H77 H 0.13541 0.92754 0.56995 0.0
C78 C 0.8871 0.44063 0.73181 0.0
N79 N 0.89538 0.45726 0.74274 0.0
N80 N 0.89196 0.42397 0.73697 0.0
C81 C 0.874 0.44042 0.71624 0.0
C82 C 0.90367 0.4311 0.75129 0.0
N83 N 0.90597 0.45143 0.75471 0.0
C84 C 0.91128 0.41744 0.76249 0.0
H85 H 0.85493 0.43245 0.71839 0.0
H86 H 0.87657 0.43049 0.70709 0.0
H87 H 0.87984 0.45781 0.71149 0.0
H88 H 0.9293 0.42811 0.76759 0.0
H89 H 0.91093 0.40308 0.75631 0.0
H90 H 0.89926 0.41085 0.77262 0.0
C91 C 0.5788 0.4489 0.74753 0.0
N92 N 0.58978 0.46685 0.75739 0.0
N93 N 0.55903 0.43248 0.75411 0.0
C94 C 0.58704 0.44732 0.73137 0.0
C95 C 0.55839 0.4411 0.76831 0.0
N96 N 0.577 0.46193 0.77034 0.0
C97 C 0.53996 0.42887 0.78049 0.0
H98 H 0.57183 0.43947 0.72264 0.0
H99 H 0.59544 0.43633 0.73257 0.0
H100 H 0.60007 0.46394 0.72658 0.0
H101 H 0.53217 0.41035 0.77938 0.0
H102 H 0.52578 0.43357 0.77842 0.0
H103 H 0.54755 0.4337 0.79288 0.0
C104 C 0.5774 0.14891 0.76187 0.0
N105 N 0.58952 0.1399 0.77029 0.0
N106 N 0.55736 0.14396 0.76921 0.0
C107 C 0.58364 0.16005 0.7455 0.0
C108 C 0.5576 0.13137 0.78225 0.0
N109 N 0.57698 0.12866 0.78279 0.0
C110 C 0.53941 0.12256 0.79484 0.0
H111 H 0.59443 0.17852 0.74698 0.0
H112 H 0.56763 0.15677 0.73802 0.0
H113 H 0.59396 0.15398 0.73905 0.0
H114 H 0.52603 0.10503 0.79197 0.0
H115 H 0.53049 0.13303 0.7952 0.0
H116 H 0.54761 0.12231 0.80686 0.0
C117 C 0.78335 0.56684 0.94896 0.0
N118 N 0.80189 0.57304 0.93959 0.0
N119 N 0.76421 0.56412 0.93994 0.0
C120 C 0.78334 0.56176 0.96675 0.0
C121 C 0.77154 0.56864 0.92473 0.0
N122 N 0.79445 0.57378 0.92447 0.0
C123 C 0.75676 0.5696 0.91041 0.0
H124 H 0.79453 0.55374 0.96992 0.0
H125 H 0.76529 0.55048 0.97073 0.0
H126 H 0.79061 0.57777 0.97333 0.0
H127 H 0.74188 0.57186 0.91414 0.0
H128 H 0.74946 0.55354 0.90387 0.0
H129 H 0.76756 0.58359 0.90207 0.0
C130 C 0.45063 0.22995 0.95486 0.0
N131 N 0.44383 0.21355 0.94388 0.0
N132 N 0.44417 0.24556 0.94968 0.0
C133 C 0.46388 0.2309 0.97052 0.0
C134 C 0.43305 0.23799 0.93522 0.0
N135 N 0.43262 0.2184 0.93176 0.0
C136 C 0.42288 0.2498 0.9243 0.0
H137 H 0.46175 0.24143 0.97939 0.0
H138 H 0.48287 0.23838 0.96825 0.0
H139 H 0.45789 0.2137 0.9757 0.0
H140 H 0.4289 0.25106 0.91192 0.0
H141 H 0.42767 0.26685 0.92849 0.0
H142 H 0.40343 0.2397 0.92379 0.0
C143 C 0.77532 0.2332 0.95112 0.0
N144 N 0.76391 0.21543 0.94111 0.0
N145 N 0.79664 0.24816 0.94552 0.0
C146 C 0.76517 0.2364 0.96595 0.0
C147 C 0.79779 0.23877 0.93181 0.0
N148 N 0.77807 0.21894 0.92915 0.0
C149 C 0.81826 0.24897 0.92098 0.0
H150 H 0.7538 0.24412 0.96239 0.0
H151 H 0.77898 0.24771 0.97459 0.0
H152 H 0.75423 0.21993 0.97199 0.0
H153 H 0.8349 0.25962 0.92786 0.0
H154 H 0.81524 0.25966 0.91165 0.0
H155 H 0.81996 0.23564 0.91483 0.0
C156 C 0.55254 0.77752 0.07028 0.0
N157 N 0.5591 0.79406 0.08114 0.0
N158 N 0.55728 0.76104 0.07626 0.0
C159 C 0.54369 0.77853 0.05331 0.0
C160 C 0.56703 0.76823 0.09111 0.0
N161 N 0.56838 0.78836 0.09398 0.0
C162 C 0.5735 0.7548 0.10335 0.0
H163 H 0.52421 0.7705 0.05298 0.0
H164 H 0.54888 0.76939 0.04508 0.0
H165 H 0.55063 0.79625 0.04896 0.0
H166 H 0.59224 0.75939 0.10225 0.0
H167 H 0.56255 0.73645 0.10141 0.0
H168 H 0.57123 0.75861 0.11574 0.0
C169 C 0.2357 0.78369 0.07666 0.0
N170 N 0.24713 0.80048 0.08743 0.0
N171 N 0.21713 0.76584 0.0833 0.0
C172 C 0.24393 0.78382 0.06012 0.0
C173 C 0.2178 0.77226 0.09858 0.0
N174 N 0.23614 0.79313 0.10119 0.0
C175 C 0.19948 0.75884 0.11061 0.0
H176 H 0.23607 0.79154 0.05145 0.0
H177 H 0.23841 0.76644 0.05625 0.0
H178 H 0.26336 0.79383 0.05981 0.0
H179 H 0.20524 0.74816 0.118 0.0
H180 H 0.18227 0.74778 0.10451 0.0
H181 H 0.19724 0.77011 0.11877 0.0
C182 C 0.25276 0.47806 0.08919 0.0
N183 N 0.26265 0.46915 0.09989 0.0
N184 N 0.23322 0.47694 0.09505 0.0
C185 C 0.26207 0.48752 0.07291 0.0
C186 C 0.23166 0.46707 0.10976 0.0
N187 N 0.24973 0.46249 0.11276 0.0
C188 C 0.21111 0.4597 0.12036 0.0
H189 H 0.25551 0.49919 0.06818 0.0
H190 H 0.25629 0.47344 0.06446 0.0
H191 H 0.28158 0.49657 0.07354 0.0
H192 H 0.19441 0.45313 0.11299 0.0
H193 H 0.21319 0.47447 0.12696 0.0
H194 H 0.20995 0.44654 0.12923 0.0
C195 C 0.43706 0.89383 0.27763 0.0
N196 N 0.45537 0.90098 0.26798 0.0
N197 N 0.41838 0.89373 0.26946 0.0
C198 C 0.43731 0.88663 0.29496 0.0
C199 C 0.42596 0.90108 0.25447 0.0
N200 N 0.44845 0.90518 0.25352 0.0
C201 C 0.41148 0.90425 0.24083 0.0
H202 H 0.43214 0.86842 0.29552 0.0
H203 H 0.42468 0.88926 0.3018 0.0
H204 H 0.45518 0.89602 0.30069 0.0
H205 H 0.3968 0.90625 0.24523 0.0
H206 H 0.4039 0.88918 0.23316 0.0
H207 H 0.42266 0.91918 0.23331 0.0
C208 C 0.10371 0.55056 0.29508 0.0
N209 N 0.09506 0.53334 0.28462 0.0
N210 N 0.09654 0.56585 0.29044 0.0
C211 C 0.11998 0.55299 0.3094 0.0
C212 C 0.08306 0.55721 0.2769 0.0
N213 N 0.08197 0.53736 0.27345 0.0
C214 C 0.07226 0.56887 0.26645 0.0
H215 H 0.11807 0.56271 0.319 0.0
H216 H 0.1384 0.56222 0.30559 0.0
H217 H 0.11659 0.53624 0.31436 0.0
H218 H 0.08384 0.57762 0.25631 0.0
H219 H 0.0702 0.58146 0.27332 0.0
H220 H 0.05485 0.55647 0.26133 0.0
C221 C 0.44186 0.57 0.28478 0.0
N222 N 0.4311 0.55203 0.27488 0.0
N223 N 0.46324 0.58517 0.27942 0.0
C224 C 0.43232 0.57208 0.30025 0.0
C225 C 0.46509 0.57585 0.26592 0.0
N226 N 0.44576 0.55572 0.26321 0.0
C227 C 0.48551 0.58677 0.25504 0.0
H228 H 0.42056 0.57962 0.29761 0.0
H229 H 0.44672 0.58314 0.30872 0.0
H230 H 0.42197 0.55528 0.30603 0.0
H231 H 0.4982 0.58055 0.25857 0.0
H232 H 0.49463 0.60538 0.25607 0.0
H233 H 0.47963 0.58232 0.24233 0.0
Eu234 Eu 0.49823 0.99296 0.99651 0.0
Eu235 Eu 0.51398 0.02031 0.03018 0.0
C236 C 0.49011 0.03595 1.00073 0.0
C237 C 0.49922 0.98441 0.9528 0.0
C238 C 0.50404 0.00664 0.9491 0.0
C239 C 0.51584 0.98336 0.92767 0.0
C240 C 0.51451 0.01709 0.9348 0.0
C241 C 0.50515 0.97281 0.942 0.0
C242 C 0.52062 0.00562 0.92396 0.0
C243 C 0.49025 0.97429 0.96858 0.0
O244 O 0.48128 0.98767 0.03566 0.0
O245 O 0.46459 0.97818 0.0102 0.0
C246 C 0.46304 0.97592 0.02595 0.0
O247 O 0.50205 0.96957 0.01495 0.0
O248 O 0.50627 0.03159 0.05208 0.0
O249 O 0.54212 0.0398 0.04767 0.0
O250 O 0.53007 0.99701 0.03072 0.0
C251 C 0.51885 0.97597 0.02617 0.0
O252 O 0.5373 0.01772 0.99582 0.0
O253 O 0.53835 0.04455 0.01193 0.0
O254 O 0.49242 0.03423 0.01646 0.0
O255 O 0.50613 0.97463 0.9791 0.0
O256 O 0.47597 0.98018 0.97475 0.0
O257 O 0.49534 0.02443 0.99099 0.0
C258 C 0.52948 0.02931 0.07393 0.0
C259 C 0.52725 0.0076 0.07491 0.0
C260 C 0.53246 0.03085 0.10303 0.0
C261 C 0.52743 0.99749 0.08984 0.0
C262 C 0.53232 0.04099 0.08804 0.0
C263 C 0.52969 0.00885 0.10408 0.0
C264 C 0.52764 0.03907 0.05819 0.0
C265 C 0.54739 0.03868 1.00058 0.0
H266 H 0.50015 0.01615 0.95743 0.0
H267 H 0.52029 0.97412 0.91949 0.0
H268 H 0.51833 0.03437 0.93239 0.0
H269 H 0.50188 0.95576 0.94477 0.0
H270 H 0.52496 0.9983 0.06411 0.0
H271 H 0.53392 0.03992 0.11379 0.0
H272 H 0.52553 0.98068 0.09021 0.0
H273 H 0.53392 0.05772 0.08747 0.0
Eu274 Eu 0.01772 0.51593 0.99201 0.0
Eu275 Eu 0.00239 0.50155 0.02971 0.0
C276 C 0.97504 0.46552 1.00128 0.0
C277 C 0.01894 0.52172 0.94613 0.0
C278 C 0.99542 0.50518 0.94373 0.0
C279 C 0.02184 0.52884 0.91737 0.0
C280 C 0.98516 0.50045 0.92817 0.0
C281 C 0.03204 0.53355 0.9329 0.0
C282 C 0.99831 0.51219 0.9148 0.0
C283 C 0.02999 0.52711 0.96232 0.0
O284 O 0.02053 0.48306 0.02132 0.0
O285 O 0.04613 0.51157 0.00583 0.0
C286 C 0.04137 0.49422 0.01543 0.0
O287 O 0.03448 0.54888 0.0052 0.0
O288 O 0.98012 0.49262 0.05094 0.0
O289 O 0.01582 0.49638 0.05288 0.0
O290 O 0.03582 0.53486 0.03052 0.0
C291 C 0.0429 0.55177 0.02014 0.0
O292 O 0.98206 0.51277 0.99397 0.0
O293 O 0.98512 0.5223 0.02036 0.0
O294 O 0.97497 0.47135 0.01616 0.0
O295 O 0.02327 0.53825 0.97116 0.0
O296 O 0.03182 0.51093 0.97036 0.0
O297 O 0.9908 0.47885 0.99098 0.0
C298 C 0.99515 0.48564 0.07742 0.0
C299 C 0.0084 0.4756 0.08406 0.0
C300 C 0.98597 0.49029 0.10441 0.0
C301 C 0.01106 0.4736 0.10068 0.0
C302 C 0.98322 0.49221 0.08767 0.0
C303 C 1.00066 0.48173 0.11106 0.0
C304 C 0.99685 0.49199 0.06019 0.0
C305 C 0.97543 0.52027 0.00579 0.0
H306 H 0.98506 0.49594 0.95388 0.0
H307 H 0.03233 0.53843 0.90737 0.0
H308 H 0.96708 0.48738 0.92659 0.0
H309 H 0.05018 0.54648 0.93459 0.0
H310 H 0.01762 0.47019 0.0764 0.0
H311 H 0.97779 0.49677 0.1121 0.0
H312 H 0.02207 0.46649 0.10542 0.0
H313 H 0.97301 0.50011 0.08281 0.0
Eu314 Eu 0.50899 0.49872 0.03427 0.0
Eu315 Eu 0.49889 0.50782 0.99549 0.0
C316 C 0.51517 0.54683 0.021 0.0
C317 C 0.50615 0.4965 0.08028 0.0
C318 C 0.48494 0.49731 0.081 0.0
C319 C 0.51278 0.50279 0.10909 0.0
C320 C 0.47754 0.50046 0.0957 0.0
C321 C 0.52009 0.49952 0.09442 0.0
C322 C 0.49123 0.50299 0.11002 0.0
C323 C 0.51339 0.49146 0.06513 0.0
O324 O 0.53794 0.5225 1.00038 0.0
O325 O 0.53894 0.49968 0.02136 0.0
C326 C 0.54875 0.51325 0.0091 0.0
O327 O 0.48978 0.46477 0.02228 0.0
O328 O 0.50752 0.53044 0.97444 0.0
O329 O 0.48102 0.49549 0.97214 0.0
O330 O 0.50259 0.47648 0.99688 0.0
C331 C 0.4937 0.46049 0.00787 0.0
O332 O 0.47749 0.50393 0.03271 0.0
O333 O 0.46349 0.49185 0.00707 0.0
O334 O 0.50081 0.53697 0.00864 0.0
O335 O 0.49652 0.47731 0.05564 0.0
O336 O 0.5295 0.50836 0.05719 0.0
O337 O 0.52433 0.53643 0.03024 0.0
C338 C 0.5045 0.51326 0.9497 0.0
C339 C 0.51764 0.50173 0.94937 0.0
C340 C 0.5117 0.52325 0.92139 0.0
C341 C 0.5276 0.50083 0.93509 0.0
C342 C 0.50173 0.52409 0.93564 0.0
C343 C 0.52466 0.5115 0.92085 0.0
C344 C 0.49388 0.51449 0.96459 0.0
C345 C 0.46041 0.49629 0.02169 0.0
H346 H 0.47386 0.49508 0.07025 0.0
H347 H 0.5241 0.50518 0.11973 0.0
H348 H 0.46079 0.50031 0.09588 0.0
H349 H 0.53654 0.49906 0.09415 0.0
H350 H 0.5201 0.49334 0.96013 0.0
H351 H 0.50939 0.53203 0.91082 0.0
H352 H 0.53724 0.49144 0.93515 0.0
H353 H 0.49186 0.53326 0.93567 0.0
Eu354 Eu 0.16745 0.32277 0.32936 0.0
Eu355 Eu 0.18222 0.35148 0.36272 0.0
C356 C 0.15838 0.36522 0.33282 0.0
C357 C 0.1633 0.31185 0.28519 0.0
C358 C 0.16294 0.33191 0.28056 0.0
C359 C 0.17963 0.31213 0.25964 0.0
C360 C 0.171 0.34208 0.26563 0.0
C361 C 0.17136 0.30185 0.27454 0.0
C362 C 0.17996 0.3326 0.25513 0.0
C363 C 0.15828 0.30289 0.30174 0.0
O364 O 0.14327 0.32646 0.36371 0.0
O365 O 0.14095 0.29934 0.34705 0.0
C366 C 0.13243 0.30561 0.35856 0.0
O367 O 0.18918 0.31038 0.34446 0.0
O368 O 0.1733 0.3658 0.38254 0.0
O369 O 0.20837 0.3697 0.38162 0.0
O370 O 0.18397 0.31975 0.36938 0.0
C371 C 0.18983 0.30819 0.36019 0.0
O372 O 0.19884 0.35615 0.3233 0.0
O373 O 0.21541 0.36647 0.34862 0.0
O374 O 0.17474 0.37292 0.34439 0.0
O375 O 0.17685 0.30706 0.3109 0.0
O376 O 0.14296 0.30615 0.30911 0.0
O377 O 0.1495 0.34446 0.32779 0.0
C378 C 0.19132 0.36155 0.40694 0.0
C379 C 0.19902 0.34562 0.41082 0.0
C380 C 0.17672 0.35662 0.43381 0.0
C381 C 0.19555 0.33524 0.426 0.0
C382 C 0.18033 0.36712 0.41861 0.0
C383 C 0.18415 0.34044 0.43761 0.0
C384 C 0.19317 0.37105 0.39047 0.0
C385 C 0.21685 0.36869 0.3329 0.0
H386 H 0.15708 0.34011 0.28867 0.0
H387 H 0.18664 0.30448 0.25196 0.0
H388 H 0.17057 0.3576 0.26245 0.0
H389 H 0.17211 0.28656 0.27801 0.0
H390 H 0.20732 0.34077 0.40202 0.0
H391 H 0.16802 0.36106 0.44258 0.0
H392 H 0.20114 0.32261 0.42846 0.0
H393 H 0.17414 0.37926 0.41585 0.0
Eu394 Eu 0.68203 0.85403 0.3275 0.0
Eu395 Eu 0.65902 0.8401 0.36316 0.0
C396 C 0.63763 0.80484 0.33427 0.0
C397 C 0.68798 0.86277 0.28234 0.0
C398 C 0.66398 0.848 0.27939 0.0
C399 C 0.69188 0.87311 0.254 0.0
C400 C 0.654 0.84571 0.26379 0.0
C401 C 0.70184 0.87535 0.26959 0.0
C402 C 0.66784 0.85822 0.25089 0.0
C403 C 0.69841 0.86604 0.29876 0.0
O404 O 0.68406 0.82591 0.3622 0.0
O405 O 0.70896 0.85006 0.34348 0.0
C406 C 0.70449 0.83554 0.35548 0.0
O407 O 0.69723 0.88621 0.34174 0.0
O408 O 0.6423 0.81476 0.38204 0.0
O409 O 0.64915 0.84905 0.38517 0.0
O410 O 0.69424 0.87102 0.36711 0.0
C411 C 0.70369 0.8883 0.3571 0.0
O412 O 0.64659 0.85194 0.32453 0.0
O413 O 0.64307 0.86003 0.35024 0.0
O414 O 0.63284 0.81315 0.34662 0.0
O415 O 0.69361 0.87852 0.30769 0.0
O416 O 0.6968 0.84813 0.30649 0.0
O417 O 0.65757 0.81625 0.32693 0.0
C418 C 0.65312 0.82918 0.40809 0.0
C419 C 0.67741 0.84222 0.41125 0.0
C420 C 0.64866 0.81511 0.43567 0.0
C421 C 0.68723 0.8419 0.42659 0.0
C422 C 0.63884 0.81555 0.42034 0.0
C423 C 0.67297 0.82838 0.43902 0.0
C424 C 0.64268 0.82929 0.39198 0.0
C425 C 0.63726 0.85907 0.33482 0.0
H426 H 0.65299 0.8383 0.28916 0.0
H427 H 0.70296 0.88323 0.24439 0.0
H428 H 0.63553 0.83388 0.2618 0.0
H429 H 0.72033 0.88705 0.27172 0.0
H430 H 0.68876 0.85274 0.40187 0.0
H431 H 0.63721 0.80423 0.44486 0.0
H432 H 0.70595 0.85255 0.42876 0.0
H433 H 0.6201 0.80518 0.41804 0.0
Eu434 Eu 0.16655 0.82279 0.36994 0.0
Eu435 Eu 0.15755 0.83282 0.33076 0.0
C436 C 0.16475 0.86848 0.35756 0.0
C437 C 0.16459 0.82084 0.4157 0.0
C438 C 0.16097 0.83962 0.41684 0.0
C439 C 0.15232 0.80998 0.44317 0.0
C440 C 0.15334 0.84369 0.43111 0.0
C441 C 0.16008 0.80603 0.42894 0.0
C442 C 0.14897 0.82896 0.44453 0.0
C443 C 0.17218 0.81596 0.40068 0.0
O444 O 0.19623 0.85153 0.33751 0.0
O445 O 0.19812 0.8275 0.35704 0.0
C446 C 0.20792 0.84284 0.34574 0.0
O447 O 0.1509 0.78949 0.35747 0.0
O448 O 0.14027 0.82067 0.30726 0.0
O449 O 0.16777 0.85525 0.30951 0.0
O450 O 0.16376 0.80275 0.33222 0.0
C451 C 0.15546 0.78629 0.34296 0.0
O452 O 0.13087 0.81984 0.36801 0.0
O453 O 0.12117 0.8142 0.34083 0.0
O454 O 0.15437 0.85964 0.3437 0.0
O455 O 0.1555 0.80115 0.39143 0.0
O456 O 0.18753 0.83314 0.39249 0.0
O457 O 0.17398 0.85899 0.36765 0.0
C458 C 0.16456 0.8374 0.28475 0.0
C459 C 0.16303 0.8169 0.28028 0.0
C460 C 0.18469 0.85478 0.26004 0.0
C461 C 0.17199 0.81531 0.26575 0.0
C462 C 0.17558 0.85631 0.2745 0.0
C463 C 0.18288 0.83422 0.25538 0.0
C464 C 0.1541 0.8393 0.29965 0.0
C465 C 0.11548 0.81319 0.35587 0.0
H466 H 0.16407 0.85116 0.4067 0.0
H467 H 0.14868 0.79796 0.45305 0.0
H468 H 0.15123 0.85859 0.43168 0.0
H469 H 0.16244 0.79127 0.42825 0.0
H470 H 0.1548 0.802 0.28793 0.0
H471 H 0.19263 0.86962 0.25232 0.0
H472 H 0.17059 0.79929 0.26273 0.0
H473 H 0.17689 0.87228 0.27758 0.0
Eu474 Eu 0.83772 0.66046 0.66344 0.0
Eu475 Eu 0.85452 0.68633 0.69812 0.0
C476 C 0.83004 0.70307 0.66962 0.0
C477 C 0.83711 0.65318 0.61925 0.0
C478 C 0.84242 0.67563 0.61591 0.0
C479 C 0.85207 0.65198 0.59348 0.0
C480 C 0.85237 0.68614 0.60145 0.0
C481 C 0.84193 0.64141 0.60793 0.0
C482 C 0.85756 0.67454 0.5901 0.0
C483 C 0.82863 0.64279 0.63507 0.0
O484 O 0.82189 0.65331 0.70295 0.0
O485 O 0.8045 0.6457 0.67755 0.0
C486 C 0.80335 0.64245 0.69326 0.0
O487 O 0.84227 0.63655 0.68101 0.0
O488 O 0.84665 0.69686 0.72029 0.0
O489 O 0.88236 0.70424 0.71622 0.0
O490 O 0.87037 0.66303 0.69743 0.0
C491 C 0.85907 0.64233 0.69221 0.0
O492 O 0.87626 0.68625 0.6617 0.0
O493 O 0.87959 0.71134 0.68054 0.0
O494 O 0.83332 0.70122 0.68522 0.0
O495 O 0.8447 0.64255 0.64516 0.0
O496 O 0.81483 0.64876 0.64184 0.0
O497 O 0.83454 0.69181 0.65923 0.0
C498 C 0.86917 0.6941 0.74247 0.0
C499 C 0.8677 0.67269 0.74379 0.0
C500 C 0.87069 0.69582 0.77154 0.0
C501 C 0.86763 0.66287 0.7589 0.0
C502 C 0.87083 0.70567 0.75639 0.0
C503 C 0.86887 0.6742 0.77296 0.0
C504 C 0.86784 0.70381 0.72659 0.0
C505 C 0.88729 0.70648 0.66788 0.0
H506 H 0.83917 0.68519 0.62457 0.0
H507 H 0.8561 0.64262 0.58513 0.0
H508 H 0.85593 0.70337 0.59918 0.0
H509 H 0.83832 0.62419 0.61041 0.0
H510 H 0.8663 0.66346 0.73312 0.0
H511 H 0.8713 0.70486 0.7821 0.0
H512 H 0.86648 0.64635 0.75955 0.0
H513 H 0.87179 0.72214 0.75555 0.0
Eu514 Eu 0.35218 0.19033 0.65858 0.0
Eu515 Eu 0.3287 0.17706 0.69457 0.0
C516 C 0.30578 0.14308 0.66543 0.0
C517 C 0.35747 0.19362 0.61315 0.0
C518 C 0.33506 0.17524 0.61027 0.0
C519 C 0.35953 0.20325 0.58465 0.0
C520 C 0.32502 0.17081 0.59464 0.0
C521 C 0.36961 0.20758 0.60026 0.0
C522 C 0.33709 0.18483 0.58164 0.0
C523 C 0.36798 0.19896 0.62956 0.0
O524 O 0.35287 0.16199 0.69271 0.0
O525 O 0.37898 0.18751 0.67528 0.0
C526 C 0.37396 0.17257 0.68698 0.0
O527 O 0.3709 0.22268 0.67256 0.0
O528 O 0.3185 0.1853 0.71673 0.0
O529 O 0.31321 0.15152 0.7136 0.0
O530 O 0.36335 0.20861 0.69848 0.0
C531 C 0.37507 0.22509 0.68822 0.0
O532 O 0.31944 0.19358 0.65595 0.0
O533 O 0.3129 0.19734 0.68225 0.0
O534 O 0.30125 0.15236 0.6773 0.0
O535 O 0.36314 0.21243 0.63736 0.0
O536 O 0.36679 0.18213 0.63856 0.0
O537 O 0.32658 0.15281 0.65913 0.0
C538 C 0.32357 0.16615 0.73975 0.0
C539 C 0.3477 0.1801 0.74303 0.0
C540 C 0.31924 0.15308 0.76761 0.0
C541 C 0.35748 0.18073 0.75856 0.0
C542 C 0.30947 0.15254 0.7521 0.0
C543 C 0.34335 0.16734 0.77109 0.0
C544 C 0.31295 0.16573 0.72356 0.0
C545 C 0.30954 0.19946 0.6667 0.0
H546 H 0.32532 0.16434 0.6201 0.0
H547 H 0.36918 0.21456 0.57497 0.0
H548 H 0.30791 0.15625 0.59272 0.0
H549 H 0.38682 0.22198 0.60229 0.0
H550 H 0.35891 0.19067 0.73362 0.0
H551 H 0.3079 0.14225 0.77686 0.0
H552 H 0.37603 0.1921 0.7608 0.0
H553 H 0.29085 0.14154 0.74976 0.0
Eu554 Eu 0.83426 0.15664 0.70152 0.0
Eu555 Eu 0.82036 0.16459 0.66324 0.0
C556 C 0.83643 0.2029 0.6896 0.0
C557 C 0.83495 0.15393 0.74745 0.0
C558 C 0.81689 0.15971 0.74788 0.0
C559 C 0.83801 0.15388 0.77668 0.0
C560 C 0.80947 0.1626 0.76264 0.0
C561 C 0.84541 0.151 0.76193 0.0
C562 C 0.82 0.15982 0.77724 0.0
C563 C 0.84318 0.15118 0.732 0.0
O564 O 0.85356 0.16222 0.66343 0.0
O565 O 0.86845 0.1746 0.68881 0.0
C566 C 0.87128 0.17096 0.67395 0.0
O567 O 0.83294 0.12824 0.68761 0.0
O568 O 0.82948 0.18678 0.64197 0.0
O569 O 0.79989 0.15321 0.6405 0.0
O570 O 0.80657 0.12731 0.66762 0.0
C571 C 0.81765 0.11785 0.67579 0.0
O572 O 0.79495 0.14114 0.69853 0.0
O573 O 0.79075 0.16234 0.67752 0.0
O574 O 0.83951 0.19857 0.67499 0.0
O575 O 0.82783 0.13497 0.72294 0.0
O576 O 0.85541 0.16965 0.72373 0.0
O577 O 0.82912 0.18722 0.70089 0.0
C578 C 0.82283 0.16849 0.61727 0.0
C579 C 0.82915 0.15152 0.61554 0.0
C580 C 0.83576 0.1823 0.59022 0.0
C581 C 0.83859 0.14991 0.60122 0.0
C582 C 0.82624 0.18383 0.60448 0.0
C583 C 0.84209 0.16531 0.58832 0.0
C584 C 0.81396 0.17136 0.63251 0.0
C585 C 0.78292 0.14978 0.69059 0.0
H586 H 0.80853 0.162 0.73682 0.0
H587 H 0.84668 0.15184 0.78765 0.0
H588 H 0.79531 0.16675 0.76261 0.0
H589 H 0.85943 0.1466 0.76182 0.0
H590 H 0.82694 0.1396 0.6253 0.0
H591 H 0.83857 0.1948 0.5808 0.0
H592 H 0.843 0.13649 0.60025 0.0
H593 H 0.82182 0.19725 0.60561 0.0
H594 H 0.28925 0.81823 0.104 0.0
H595 H 0.32622 0.85048 0.09531 0.0
H596 H 0.28867 0.86214 0.05474 0.0
H597 H 0.25187 0.83045 0.06367 0.0
H598 H 0.32739 0.85746 0.04617 0.0
H599 H 0.30957 0.89863 0.0839 0.0
H600 H 0.30038 0.90589 0.11058 0.0
H601 H 0.36577 0.91197 0.13045 0.0
H602 H 0.37519 0.90438 0.10393 0.0
H603 H 0.41859 0.95564 0.01162 0.0
H604 H 0.38192 0.92802 0.02352 0.0
H605 H 0.41997 0.92965 0.06815 0.0
H606 H 0.45645 0.95799 0.05654 0.0
H607 H 0.38122 0.92706 0.07545 0.0
H608 H 0.39959 0.88511 0.03971 0.0
H609 H 0.40968 0.87566 0.0141 0.0
H610 H 0.34495 0.86819 0.99184 0.0
H611 H 0.33461 0.87789 0.01727 0.0
C612 C 0.28888 0.82819 0.09354 0.0
C613 C 0.26778 0.82183 0.08445 0.0
C614 C 0.31 0.84648 0.0885 0.0
C615 C 0.31031 0.85864 0.07425 0.0
C616 C 0.28897 0.85295 0.06567 0.0
C617 C 0.26795 0.83491 0.0708 0.0
C618 C 0.33289 0.87627 0.06759 0.0
C619 C 0.33902 0.87283 0.05248 0.0
C620 C 0.34853 0.89595 0.07604 0.0
C621 C 0.34297 0.9007 0.09196 0.0
C622 C 0.3219 0.90132 0.09399 0.0
C623 C 0.31666 0.90553 0.10908 0.0
C624 C 0.33245 0.90933 0.12221 0.0
C625 C 0.35354 0.90899 0.12027 0.0
C626 C 0.35884 0.90475 0.10521 0.0
C627 C 0.41916 0.95012 0.02397 0.0
C628 C 0.44056 0.95902 0.03307 0.0
C629 C 0.39813 0.93418 0.03078 0.0
C630 C 0.39801 0.92624 0.04673 0.0
C631 C 0.41938 0.93535 0.05586 0.0
C632 C 0.44032 0.95157 0.04915 0.0
C633 C 0.37575 0.90843 0.05386 0.0
C634 C 0.36967 0.91173 0.06909 0.0
C635 C 0.36032 0.88834 0.04566 0.0
C636 C 0.36644 0.88245 0.03035 0.0
C637 C 0.38759 0.88161 0.02932 0.0
C638 C 0.39334 0.87619 0.01484 0.0
C639 C 0.378 0.87139 1.00134 0.0
C640 C 0.35683 0.87195 1.0023 0.0
C641 C 0.35101 0.87739 0.01675 0.0
H642 H 0.38248 0.86719 0.99014 0.0
H643 H 0.32836 0.91258 0.13389 0.0
H644 H 0.2142 0.50217 0.10422 0.0
H645 H 0.18138 0.50559 0.09043 0.0
H646 H 0.18027 0.46368 0.05246 0.0
H647 H 0.21214 0.45949 0.0666 0.0
H648 H 0.17413 0.52128 0.06179 0.0
H649 H 0.12436 0.42799 0.0411 0.0
H650 H 0.1201 0.39104 0.05029 0.0
H651 H 0.13774 0.41419 0.09884 0.0
H652 H 0.14165 0.45109 0.09 0.0
H653 H 0.08576 0.51133 0.00462 0.0
H654 H 0.11873 0.50802 0.0178 0.0
H655 H 0.07326 0.46491 0.05461 0.0
H656 H 0.04016 0.46753 0.04126 0.0
H657 H 0.10186 0.45032 0.04787 0.0
H658 H 0.10917 0.52142 0.06041 0.0
H659 H 0.11128 0.55848 0.05484 0.0
H660 H 0.17445 0.58006 0.02939 0.0
H661 H 0.1725 0.54297 0.03457 0.0
C662 C 0.20686 0.49382 0.0929 0.0
C663 C 0.21552 0.48062 0.08639 0.0
C664 C 0.18834 0.49588 0.08501 0.0
C665 C 0.17828 0.48469 0.07052 0.0
C666 C 0.1876 0.47222 0.06372 0.0
C667 C 0.2059 0.47001 0.07168 0.0
C668 C 0.15728 0.48501 0.06287 0.0
C669 C 0.15832 0.5058 0.05872 0.0
C670 C 0.13643 0.46477 0.05935 0.0
C671 C 0.13353 0.44239 0.06484 0.0
C672 C 0.12719 0.42515 0.05375 0.0
C673 C 0.12485 0.40421 0.0589 0.0
C674 C 0.12872 0.4003 0.07513 0.0
C675 C 0.13481 0.41726 0.08626 0.0
C676 C 0.1371 0.43819 0.08118 0.0
C677 C 0.08273 0.50087 0.01538 0.0
C678 C 0.06044 0.48982 0.02197 0.0
C679 C 0.10159 0.49911 0.02295 0.0
C680 C 0.09853 0.48662 0.03737 0.0
C681 C 0.07603 0.4747 0.04352 0.0
C682 C 0.05712 0.47622 0.03586 0.0
C683 C 0.11887 0.4866 0.04639 0.0
C684 C 0.11767 0.46583 0.05087 0.0
C685 C 0.13918 0.50689 0.05078 0.0
C686 C 0.14056 0.52932 0.04776 0.0
C687 C 0.12342 0.53401 0.05353 0.0
C688 C 0.12459 0.55503 0.05045 0.0
C689 C 0.14296 0.5716 0.04174 0.0
C690 C 0.16022 0.5672 0.03612 0.0
C691 C 0.15909 0.54618 0.03913 0.0
H692 H 0.14384 0.58787 0.03938 0.0
H693 H 0.12695 0.3841 0.07908 0.0
H694 H 0.58831 0.74542 0.07442 0.0
H695 H 0.58076 0.70948 0.06365 0.0
H696 H 0.51012 0.69546 0.04894 0.0
H697 H 0.51718 0.73066 0.06108 0.0
H698 H 0.50766 0.65943 0.06065 0.0
H699 H 0.5568 0.71163 0.0217 0.0
H700 H 0.59123 0.7451 0.01125 0.0
H701 H 0.63653 0.7189 0.03025 0.0
H702 H 0.60241 0.68539 0.04102 0.0
H703 H 0.49045 0.56872 0.01097 0.0
H704 H 0.49776 0.60611 0.01864 0.0
H705 H 0.55857 0.61445 0.04773 0.0
H706 H 0.55125 0.57691 0.04027 0.0
H707 H 0.56469 0.65306 0.02693 0.0
H708 H 0.51165 0.59976 0.06574 0.0
H709 H 0.47503 0.56577 0.07281 0.0
H710 H 0.43431 0.5948 0.05005 0.0
H711 H 0.47064 0.62866 0.04246 0.0
C712 C 0.57113 0.73454 0.069 0.0
C713 C 0.55329 0.74071 0.06864 0.0
C714 C 0.5669 0.71414 0.06261 0.0
C715 C 0.54497 0.6998 0.05517 0.0
C716 C 0.52721 0.70618 0.05455 0.0
C717 C 0.5313 0.72639 0.06131 0.0
C718 C 0.54036 0.67784 0.04862 0.0
C719 C 0.52 0.65819 0.05306 0.0
C720 C 0.55645 0.67598 0.03878 0.0
C721 C 0.57705 0.69608 0.03229 0.0
C722 C 0.57412 0.71307 0.02375 0.0
C723 C 0.59358 0.73204 0.01776 0.0
C724 C 0.61606 0.73415 0.02011 0.0
C725 C 0.61911 0.71725 0.02844 0.0
C726 C 0.59971 0.69825 0.03448 0.0
C727 C 0.50549 0.57856 0.0189 0.0
C728 C 0.52026 0.56985 0.02505 0.0
C729 C 0.50959 0.59988 0.02329 0.0
C730 C 0.52864 0.61294 0.03378 0.0
C731 C 0.54379 0.60458 0.0396 0.0
C732 C 0.53952 0.58312 0.03539 0.0
C733 C 0.5323 0.635 0.03912 0.0
C734 C 0.55242 0.65454 0.03445 0.0
C735 C 0.51571 0.63681 0.04837 0.0
C736 C 0.49388 0.61666 0.05337 0.0
C737 C 0.49488 0.59881 0.06212 0.0
C738 C 0.47416 0.57954 0.06621 0.0
C739 C 0.45233 0.57804 0.0618 0.0
C740 C 0.45119 0.59588 0.05338 0.0
C741 C 0.47185 0.61512 0.04918 0.0
H742 H 0.4363 0.56311 0.06494 0.0
H743 H 0.6311 0.74885 0.01546 0.0
H744 H 0.81993 0.25683 0.97456 0.0
H745 H 0.84973 0.2938 0.98464 0.0
H746 H 0.84258 0.32524 0.93999 0.0
H747 H 0.8122 0.28841 0.93021 0.0
H748 H 0.8901 0.33823 0.95044 0.0
H749 H 0.81906 0.33165 0.97123 0.0
H750 H 0.78282 0.31278 0.98638 0.0
H751 H 0.82336 0.31471 0.02952 0.0
H752 H 0.85983 0.33329 0.01456 0.0
H753 H 0.95731 0.45291 0.97066 0.0
H754 H 0.92654 0.41616 0.96164 0.0
H755 H 0.92081 0.39008 0.01036 0.0
H756 H 0.95066 0.42727 0.01954 0.0
H757 H 0.87971 0.37336 0.99813 0.0
H758 H 0.9502 0.37863 0.97895 0.0
H759 H 0.98734 0.39566 0.96476 0.0
H760 H 0.94982 0.39393 0.92015 0.0
H761 H 0.91248 0.37713 0.93411 0.0
C762 C 0.82444 0.27175 0.96709 0.0
C763 C 0.81355 0.2699 0.95173 0.0
C764 C 0.84154 0.2928 0.97278 0.0
C765 C 0.84834 0.31234 0.9631 0.0
C766 C 0.83764 0.31044 0.94767 0.0
C767 C 0.82031 0.28945 0.9421 0.0
C768 C 0.86677 0.33474 0.96894 0.0
C769 C 0.88776 0.34607 0.96076 0.0
C770 C 0.86404 0.34463 0.98271 0.0
C771 C 0.84215 0.33365 0.99174 0.0
C772 C 0.82023 0.32788 0.98392 0.0
C773 C 0.79965 0.31726 0.99247 0.0
C774 C 0.80078 0.3125 0.00889 0.0
C775 C 0.82251 0.31839 0.0168 0.0
C776 C 0.84314 0.32897 0.00829 0.0
C777 C 0.94953 0.43932 0.97945 0.0
C778 C 0.95656 0.443 0.99581 0.0
C779 C 0.93198 0.4182 0.97426 0.0
C780 C 0.92155 0.39996 0.98521 0.0
C781 C 0.92849 0.40371 1.0016 0.0
C782 C 0.94564 0.42501 0.00685 0.0
C783 C 0.90329 0.37712 0.97963 0.0
C784 C 0.88225 0.36563 0.98785 0.0
C785 C 0.90618 0.36685 0.96606 0.0
C786 C 0.92858 0.37681 0.9576 0.0
C787 C 0.94989 0.38201 0.96613 0.0
C788 C 0.97097 0.3916 0.95812 0.0
C789 C 0.97095 0.39593 0.94157 0.0
C790 C 0.94982 0.3906 0.93297 0.0
C791 C 0.92869 0.38101 0.94092 0.0
H792 H 0.98729 0.40337 0.9354 0.0
H793 H 0.78483 0.30428 0.0155 0.0
H794 H 0.72483 0.52483 0.93546 0.0
H795 H 0.68687 0.51299 0.94759 0.0
H796 H 0.71509 0.57852 0.96884 0.0
H797 H 0.75313 0.58969 0.95726 0.0
H798 H 0.69394 0.54844 0.99033 0.0
H799 H 0.67454 0.56001 0.93521 0.0
H800 H 0.6691 0.55464 0.90589 0.0
H801 H 0.62038 0.48457 0.91325 0.0
H802 H 0.62584 0.48941 0.9426 0.0
H803 H 0.58012 0.54931 0.99214 0.0
H804 H 0.61657 0.55445 0.98125 0.0
H805 H 0.60544 0.49114 0.00293 0.0
H806 H 0.56908 0.48608 0.01428 0.0
H807 H 0.61634 0.51545 0.96088 0.0
H808 H 0.64415 0.506 0.01765 0.0
H809 H 0.64789 0.5151 0.04639 0.0
H810 H 0.67926 0.58566 0.03413 0.0
H811 H 0.67538 0.57687 0.0053 0.0
C812 C 0.72257 0.53661 0.94258 0.0
C813 C 0.74146 0.55809 0.9455 0.0
C814 C 0.70101 0.52995 0.94945 0.0
C815 C 0.69807 0.54492 0.95906 0.0
C816 C 0.71696 0.56664 0.96155 0.0
C817 C 0.73854 0.5731 0.95491 0.0
C818 C 0.67579 0.5378 0.96717 0.0
C819 C 0.67703 0.54116 0.98381 0.0
C820 C 0.65357 0.52805 0.9588 0.0
C821 C 0.65087 0.52501 0.94113 0.0
C822 C 0.66291 0.54339 0.93058 0.0
C823 C 0.65977 0.54045 0.91395 0.0
C824 C 0.64445 0.51926 0.9077 0.0
C825 C 0.63228 0.50096 0.91808 0.0
C826 C 0.63541 0.50378 0.93472 0.0
C827 C 0.5856 0.53664 0.9948 0.0
C828 C 0.57188 0.51735 0.00411 0.0
C829 C 0.60635 0.53959 0.98856 0.0
C830 C 0.61361 0.52323 0.9914 0.0
C831 C 0.6002 0.50408 1.00085 0.0
C832 C 0.57953 0.50125 0.00733 0.0
C833 C 0.63479 0.52611 0.98378 0.0
C834 C 0.63332 0.52217 0.9673 0.0
C835 C 0.65679 0.53551 0.99216 0.0
C836 C 0.65923 0.54078 0.0094 0.0
C837 C 0.65163 0.52342 0.02111 0.0
C838 C 0.65382 0.52852 0.0374 0.0
C839 C 0.66374 0.55094 0.04208 0.0
C840 C 0.67154 0.56831 0.03049 0.0
C841 C 0.66934 0.56328 0.01418 0.0
H842 H 0.66543 0.55486 0.0547 0.0
H843 H 0.64196 0.51703 0.89482 0.0
H844 H 0.48454 0.21216 0.94888 0.0
H845 H 0.48907 0.17879 0.95573 0.0
H846 H 0.41404 0.13665 0.94912 0.0
H847 H 0.40959 0.17037 0.94278 0.0
H848 H 0.42899 0.12574 0.97644 0.0
H849 H 0.45193 0.13587 0.92261 0.0
H850 H 0.47315 0.15641 0.89859 0.0
H851 H 0.53895 0.17104 0.92306 0.0
H852 H 0.51816 0.15091 0.94734 0.0
H853 H 0.47704 0.03934 0.96937 0.0
H854 H 0.46546 0.06631 0.95732 0.0
H855 H 0.475 0.09648 0.00356 0.0
H856 H 0.48596 0.06907 0.01582 0.0
H857 H 0.48788 0.10928 0.95348 0.0
H858 H 0.43907 0.11901 0.00651 0.0
H859 H 0.41436 0.09576 0.02854 0.0
H860 H 0.39368 0.03586 1.00178 0.0
H861 H 0.418 0.05875 0.9795 0.0
C862 C 0.46911 0.19572 0.94878 0.0
C863 C 0.44673 0.1937 0.94547 0.0
C864 C 0.47168 0.17665 0.95258 0.0
C865 C 0.4519 0.15514 0.95292 0.0
C866 C 0.42955 0.15305 0.94898 0.0
C867 C 0.42701 0.1722 0.94523 0.0
C868 C 0.45457 0.13516 0.95831 0.0
C869 C 0.44177 0.12206 0.97136 0.0
C870 C 0.47085 0.12998 0.95147 0.0
C871 C 0.48347 0.14199 0.93685 0.0
C872 C 0.47094 0.1436 0.92292 0.0
C873 C 0.48289 0.15516 0.90925 0.0
C874 C 0.50739 0.16505 0.90931 0.0
C875 C 0.51998 0.16337 0.92303 0.0
C876 C 0.50811 0.15187 0.93675 0.0
C877 C 0.47653 0.0516 0.97704 0.0
C878 C 0.48237 0.05198 0.9936 0.0
C879 C 0.46995 0.06708 0.97009 0.0
C880 C 0.46912 0.08336 0.97951 0.0
C881 C 0.47502 0.08382 0.99606 0.0
C882 C 0.48138 0.06818 0.00306 0.0
C883 C 0.46279 0.10025 0.97194 0.0
C884 C 0.47494 0.11281 0.95849 0.0
C885 C 0.44543 0.1045 0.97812 0.0
C886 C 0.43054 0.0906 0.9914 0.0
C887 C 0.42917 0.10088 0.0053 0.0
C888 C 0.41524 0.08776 0.01783 0.0
C889 C 0.40251 0.06434 0.01658 0.0
C890 C 0.40362 0.05399 0.00276 0.0
C891 C 0.41749 0.06703 0.99018 0.0
H892 H 0.39176 0.05422 0.0263 0.0
H893 H 0.51662 0.17399 0.89871 0.0
H894 H 0.75222 0.17127 0.94366 0.0
H895 H 0.71399 0.1398 0.95086 0.0
H896 H 0.68553 0.18573 0.95191 0.0
H897 H 0.72335 0.2169 0.94376 0.0
H898 H 0.68258 0.15748 0.98167 0.0
H899 H 0.66463 0.15284 0.92445 0.0
H900 H 0.67133 0.14902 0.89622 0.0
H901 H 0.66782 0.08491 0.90762 0.0
H902 H 0.66145 0.08851 0.936 0.0
H903 H 0.56549 0.08442 1.00073 0.0
H904 H 0.60103 0.11317 0.98846 0.0
H905 H 0.61471 0.06143 0.97136 0.0
H906 H 0.57836 0.03245 0.983 0.0
H907 H 0.62618 0.09209 0.94935 0.0
H908 H 0.645 0.09526 0.00566 0.0
H909 H 0.64018 0.09796 0.03447 0.0
H910 H 0.64506 0.16318 0.02599 0.0
H911 H 0.6496 0.16074 0.99708 0.0
C912 C 0.73755 0.17444 0.94477 0.0
C913 C 0.7407 0.19649 0.94302 0.0
C914 C 0.71578 0.15652 0.94908 0.0
C915 C 0.6969 0.16042 0.95198 0.0
C916 C 0.69984 0.18232 0.94977 0.0
C917 C 0.72142 0.2001 0.94514 0.0
C918 C 0.67476 0.14211 0.95853 0.0
C919 C 0.67006 0.14332 0.97456 0.0
C920 C 0.65892 0.12321 0.94943 0.0
C921 C 0.66286 0.12108 0.9324 0.0
C922 C 0.66557 0.13805 0.92099 0.0
C923 C 0.66923 0.13589 0.90494 0.0
C924 C 0.67008 0.11677 0.90014 0.0
C925 C 0.66721 0.09974 0.91136 0.0
C926 C 0.66355 0.10182 0.92743 0.0
C927 C 0.57606 0.07911 0.99439 0.0
C928 C 0.56916 0.05609 0.99303 0.0
C929 C 0.59653 0.09564 0.98741 0.0
C930 C 0.61109 0.08967 0.97926 0.0
C931 C 0.60398 0.06662 0.97762 0.0
C932 C 0.5832 0.05002 0.98435 0.0
C933 C 0.63368 0.10748 0.97258 0.0
C934 C 0.63861 0.10619 0.95654 0.0
C935 C 0.65006 0.12615 0.98179 0.0
C936 C 0.64742 0.12772 0.99918 0.0
C937 C 0.64488 0.11011 0.00992 0.0
C938 C 0.64222 0.1116 0.02627 0.0
C939 C 0.64226 0.1307 0.03205 0.0
C940 C 0.64501 0.14838 0.02149 0.0
C941 C 0.64765 0.14696 0.00512 0.0
H942 H 0.64019 0.13182 0.04471 0.0
H943 H 0.6729 0.11512 0.88771 0.0
H944 H 0.82105 0.54915 0.9285 0.0
H945 H 0.8536 0.54483 0.94156 0.0
H946 H 0.86436 0.59498 0.97604 0.0
H947 H 0.83219 0.59973 0.96258 0.0
H948 H 0.90635 0.59595 0.96882 0.0
H949 H 0.82993 0.54258 0.98578 0.0
H950 H 0.7882 0.51422 0.98208 0.0
H951 H 0.80791 0.47101 0.95846 0.0
H952 H 0.84977 0.49925 0.96181 0.0
H953 H 0.96599 0.54965 0.02173 0.0
H954 H 0.9372 0.56243 0.01313 0.0
H955 H 0.91465 0.51792 0.97279 0.0
H956 H 0.9429 0.50515 0.98123 0.0
H957 H 0.87769 0.51673 0.98768 0.0
H958 H 0.95413 0.57302 0.96833 0.0
H959 H 0.99577 0.60136 0.97276 0.0
H960 H 0.97556 0.63899 1.00241 0.0
H961 H 0.9338 0.61071 0.99829 0.0
C962 C 0.831 0.55981 0.93848 0.0
C963 C 0.82412 0.57452 0.94474 0.0
C964 C 0.8494 0.55723 0.94601 0.0
C965 C 0.86095 0.5692 0.96 0.0
C966 C 0.85553 0.58548 0.96535 0.0
C967 C 0.83719 0.58812 0.95774 0.0
C968 C 0.8765 0.56271 0.96997 0.0
C969 C 0.90005 0.57873 0.97315 0.0
C970 C 0.86815 0.54029 0.97579 0.0
C971 C 0.84299 0.52311 0.97395 0.0
C972 C 0.82537 0.52708 0.97971 0.0
C973 C 0.80169 0.51103 0.97768 0.0
C974 C 0.79541 0.49085 0.97001 0.0
C975 C 0.8128 0.48665 0.96439 0.0
C976 C 0.83651 0.50267 0.96637 0.0
C977 C 0.95461 0.54242 0.01118 0.0
C978 C 0.95678 0.52656 1.00208 0.0
C979 C 0.93832 0.5498 0.00624 0.0
C980 C 0.92398 0.54124 0.99225 0.0
C981 C 0.92555 0.52475 0.9836 0.0
C982 C 0.94181 0.51756 0.98842 0.0
C983 C 0.90778 0.54969 0.98595 0.0
C984 C 0.88395 0.53404 0.98355 0.0
C985 C 0.91588 0.57243 0.981 0.0
C986 C 0.9409 0.58965 0.98315 0.0
C987 C 0.95859 0.58729 0.97586 0.0
C988 C 0.9822 0.60334 0.97831 0.0
C989 C 0.98831 0.62193 0.98791 0.0
C990 C 0.9708 0.62456 0.995 0.0
C991 C 0.94717 0.60854 0.99261 0.0
H992 H 0.0066 0.63431 0.98982 0.0
H993 H 0.77706 0.47845 0.96845 0.0
H994 H 0.42717 0.25013 0.97717 0.0
H995 H 0.43603 0.28562 0.98988 0.0
H996 H 0.48128 0.32298 0.95123 0.0
H997 H 0.47311 0.28741 0.93905 0.0
H998 H 0.50128 0.34211 0.97823 0.0
H999 H 0.42364 0.31477 0.95366 0.0
H1000 H 0.38191 0.28729 0.94849 0.0
H1001 H 0.36864 0.28765 0.99831 0.0
H1002 H 0.4104 0.31492 0.00382 0.0
H1003 H 0.50475 0.44739 0.98066 0.0
H1004 H 0.49629 0.40964 0.97355 0.0
H1005 H 0.46242 0.38324 0.01839 0.0
H1006 H 0.47079 0.42126 0.02568 0.0
H1007 H 0.43676 0.35749 0.99154 0.0
H1008 H 0.5152 0.38871 0.01479 0.0
H1009 H 0.5566 0.41795 0.01833 0.0
H1010 H 0.56808 0.41166 0.96904 0.0
H1011 H 0.52663 0.38262 0.96513 0.0
C1012 C 0.43912 0.26601 0.97156 0.0
C1013 C 0.44949 0.26628 0.95721 0.0
C1014 C 0.44406 0.28623 0.97871 0.0
C1015 C 0.45908 0.30704 0.9714 0.0
C1016 C 0.46965 0.30719 0.95711 0.0
C1017 C 0.46493 0.28698 0.95011 0.0
C1018 C 0.46371 0.3287 0.97846 0.0
C1019 C 0.48714 0.34548 0.98102 0.0
C1020 C 0.44531 0.33302 0.98249 0.0
C1021 C 0.42019 0.31668 0.97918 0.0
C1022 C 0.41186 0.30886 0.96353 0.0
C1023 C 0.3882 0.29334 0.96054 0.0
C1024 C 0.37264 0.28568 0.97307 0.0
C1025 C 0.38071 0.29357 0.98862 0.0
C1026 C 0.40437 0.30906 0.99169 0.0
C1027 C 0.49551 0.43363 0.98907 0.0
C1028 C 0.4885 0.4374 0.00379 0.0
C1029 C 0.49077 0.41204 0.98499 0.0
C1030 C 0.47896 0.39369 0.99551 0.0
C1031 C 0.47164 0.39723 0.01013 0.0
C1032 C 0.4765 0.41895 0.0143 0.0
C1033 C 0.47425 0.37087 0.99101 0.0
C1034 C 0.45085 0.35392 0.98894 0.0
C1035 C 0.49265 0.36648 0.98723 0.0
C1036 C 0.51775 0.38358 0.98965 0.0
C1037 C 0.52651 0.39364 0.00468 0.0
C1038 C 0.55 0.41018 0.00676 0.0
C1039 C 0.56495 0.41669 0.99391 0.0
C1040 C 0.55647 0.40661 0.97898 0.0
C1041 C 0.53299 0.39008 0.97683 0.0
H1042 H 0.58311 0.42953 0.99554 0.0
H1043 H 0.35433 0.27367 0.97072 0.0
H1044 H 0.20408 0.72366 0.09485 0.0
H1045 H 0.17496 0.6881 0.08281 0.0
H1046 H 0.16403 0.72494 0.0425 0.0
H1047 H 0.19233 0.76056 0.05507 0.0
H1048 H 0.12349 0.69253 0.05043 0.0
H1049 H 0.19659 0.69581 0.04045 0.0
H1050 H 0.23607 0.69989 0.04672 0.0
H1051 H 0.20654 0.64149 0.07794 0.0
H1052 H 0.1669 0.63725 0.07206 0.0
H1053 H 0.05876 0.59255 0.00395 0.0
H1054 H 0.08919 0.62962 0.01308 0.0
H1055 H 0.09941 0.59933 0.05741 0.0
H1056 H 0.06927 0.56237 0.04839 0.0
H1057 H 0.14104 0.62931 0.04526 0.0
H1058 H 0.06766 0.62816 0.05554 0.0
H1059 H 0.0285 0.62385 0.04751 0.0
H1060 H 0.05964 0.67865 0.01341 0.0
H1061 H 0.09898 0.6831 0.02111 0.0
C1062 C 0.19531 0.72411 0.08348 0.0
C1063 C 0.20047 0.74484 0.07588 0.0
C1064 C 0.17885 0.70378 0.07649 0.0
C1065 C 0.16745 0.70367 0.06155 0.0
C1066 C 0.17257 0.72445 0.05397 0.0
C1067 C 0.18889 0.7448 0.06107 0.0
C1068 C 0.14999 0.68192 0.05402 0.0
C1069 C 0.12753 0.67887 0.04909 0.0
C1070 C 0.15496 0.66384 0.05234 0.0
C1071 C 0.17879 0.66635 0.05594 0.0
C1072 C 0.19853 0.68394 0.04876 0.0
C1073 C 0.22094 0.68627 0.05223 0.0
C1074 C 0.22382 0.67099 0.06275 0.0
C1075 C 0.20429 0.65333 0.06981 0.0
C1076 C 0.18184 0.65095 0.0664 0.0
C1077 C 0.06748 0.59378 0.01564 0.0
C1078 C 0.06138 0.57443 0.02546 0.0
C1079 C 0.08484 0.61502 0.02088 0.0
C1080 C 0.09647 0.61737 0.03603 0.0
C1081 C 0.09068 0.59802 0.0457 0.0
C1082 C 0.0733 0.57686 0.04053 0.0
C1083 C 0.11458 0.6399 0.04196 0.0
C1084 C 0.13714 0.64307 0.04656 0.0
C1085 C 0.10979 0.65814 0.04315 0.0
C1086 C 0.08623 0.65582 0.03879 0.0
C1087 C 0.06614 0.63921 0.04627 0.0
C1088 C 0.04392 0.63676 0.04179 0.0
C1089 C 0.04157 0.65092 0.02992 0.0
C1090 C 0.06148 0.66766 0.02258 0.0
C1091 C 0.08374 0.67018 0.02702 0.0
H1092 H 0.02435 0.64895 0.02642 0.0
H1093 H 0.24118 0.67281 0.06542 0.0
H1094 H 0.26211 0.43519 0.08435 0.0
H1095 H 0.29603 0.43645 0.07178 0.0
H1096 H 0.3416 0.49932 0.09511 0.0
H1097 H 0.30752 0.49773 0.10776 0.0
H1098 H 0.34145 0.50193 0.06164 0.0
H1099 H 0.35035 0.45645 0.10415 0.0
H1100 H 0.33779 0.42375 0.12281 0.0
H1101 H 0.3193 0.37952 0.0829 0.0
H1102 H 0.33153 0.41197 0.06399 0.0
H1103 H 0.45365 0.52379 0.04044 0.0
H1104 H 0.41758 0.51613 0.05305 0.0
H1105 H 0.37978 0.45415 0.02702 0.0
H1106 H 0.41631 0.46188 0.01423 0.0
H1107 H 0.37371 0.44869 0.06025 0.0
H1108 H 0.36839 0.49578 0.01779 0.0
H1109 H 0.38189 0.52918 0.99978 0.0
H1110 H 0.39365 0.57116 0.04011 0.0
H1111 H 0.38103 0.53816 0.05846 0.0
C1112 C 0.27959 0.44858 0.08737 0.0
C1113 C 0.28255 0.46619 0.09712 0.0
C1114 C 0.29888 0.44942 0.08014 0.0
C1115 C 0.32126 0.46805 0.08247 0.0
C1116 C 0.32444 0.48481 0.0932 0.0
C1117 C 0.30516 0.48381 0.10054 0.0
C1118 C 0.34039 0.47168 0.07196 0.0
C1119 C 0.34878 0.49049 0.06149 0.0
C1120 C 0.34913 0.45619 0.07135 0.0
C1121 C 0.3416 0.43661 0.08265 0.0
C1122 C 0.34339 0.43972 0.09935 0.0
C1123 C 0.33639 0.42125 0.10997 0.0
C1124 C 0.32767 0.39956 0.10404 0.0
C1125 C 0.32602 0.39633 0.08747 0.0
C1126 C 0.33301 0.41476 0.0768 0.0
C1127 C 0.43754 0.50876 0.03713 0.0
C1128 C 0.43763 0.49339 0.02638 0.0
C1129 C 0.41695 0.50441 0.04432 0.0
C1130 C 0.39604 0.48459 0.04095 0.0
C1131 C 0.39581 0.46956 0.02973 0.0
C1132 C 0.41652 0.47406 0.02233 0.0
C1133 C 0.37508 0.4792 0.05012 0.0
C1134 C 0.36626 0.46005 0.06031 0.0
C1135 C 0.36597 0.49445 0.05053 0.0
C1136 C 0.37391 0.51446 0.03954 0.0
C1137 C 0.37415 0.51217 0.02286 0.0
C1138 C 0.38168 0.53105 0.01259 0.0
C1139 C 0.38878 0.55231 0.01881 0.0
C1140 C 0.38834 0.55472 0.03532 0.0
C1141 C 0.38101 0.53592 0.04567 0.0
H1142 H 0.39452 0.56689 0.01083 0.0
H1143 H 0.32226 0.38527 0.11228 0.0
H1144 H 0.51938 0.79589 0.07295 0.0
H1145 H 0.51558 0.82978 0.06649 0.0
H1146 H 0.5892 0.87137 0.07901 0.0
H1147 H 0.59312 0.83729 0.08502 0.0
H1148 H 0.55573 0.88742 0.08926 0.0
H1149 H 0.57926 0.86416 0.04289 0.0
H1150 H 0.57628 0.83589 0.0239 0.0
H1151 H 0.50564 0.82131 0.00999 0.0
H1152 H 0.50806 0.84922 0.02913 0.0
H1153 H 0.55704 0.98303 0.04612 0.0
H1154 H 0.56668 0.95448 0.05809 0.0
H1155 H 0.50281 0.90207 0.03634 0.0
H1156 H 0.49357 0.93035 0.02399 0.0
H1157 H 0.53668 0.89408 0.03135 0.0
H1158 H 0.51036 0.91296 0.07882 0.0
H1159 H 0.51041 0.93842 0.09912 0.0
H1160 H 0.58329 0.95999 0.11122 0.0
H1161 H 0.58356 0.93441 0.09112 0.0
C1162 C 0.53466 0.81229 0.0744 0.0
C1163 C 0.55657 0.81409 0.07924 0.0
C1164 C 0.53247 0.83158 0.07084 0.0
C1165 C 0.55215 0.85302 0.07218 0.0
C1166 C 0.57381 0.85495 0.07796 0.0
C1167 C 0.57604 0.83555 0.08138 0.0
C1168 C 0.55035 0.87301 0.06589 0.0
C1169 C 0.55194 0.88917 0.07657 0.0
C1170 C 0.54506 0.87499 0.04939 0.0
C1171 C 0.54379 0.85866 0.03753 0.0
C1172 C 0.56304 0.85483 0.03585 0.0
C1173 C 0.56146 0.83888 0.02506 0.0
C1174 C 0.54077 0.82678 0.01577 0.0
C1175 C 0.52165 0.83068 0.0172 0.0
C1176 C 0.52313 0.84658 0.02801 0.0
C1177 C 0.54506 0.96541 0.04393 0.0
C1178 C 0.52467 0.95899 0.03395 0.0
C1179 C 0.5505 0.94908 0.05088 0.0
C1180 C 0.53541 0.92604 0.04821 0.0
C1181 C 0.51484 0.9197 0.03852 0.0
C1182 C 0.50957 0.93594 0.03144 0.0
C1183 C 0.54132 0.9084 0.05476 0.0
C1184 C 0.54064 0.89261 0.04405 0.0
C1185 C 0.54719 0.9067 0.07125 0.0
C1186 C 0.54706 0.92202 0.08334 0.0
C1187 C 0.52642 0.92323 0.08576 0.0
C1188 C 0.52637 0.93762 0.09727 0.0
C1189 C 0.5469 0.95097 0.10636 0.0
C1190 C 0.56744 0.94974 0.10411 0.0
C1191 C 0.56752 0.9352 0.09273 0.0
H1192 H 0.54689 0.96216 0.11523 0.0
H1193 H 0.53956 0.81441 0.00743 0.0
H1194 H 0.93259 0.17633 0.4265 0.0
H1195 H 0.97031 0.20804 0.41879 0.0
H1196 H 0.99611 0.16147 0.41 0.0
H1197 H 0.95932 0.13028 0.41908 0.0
H1198 H 0.03131 0.19648 0.41876 0.0
H1199 H 0.96974 0.18444 0.37935 0.0
H1200 H 0.93163 0.18071 0.369 0.0
H1201 H 0.95314 0.24857 0.38266 0.0
H1202 H 0.99129 0.25259 0.39329 0.0
H1203 H 0.11103 0.25946 0.35711 0.0
H1204 H 0.07598 0.23176 0.37075 0.0
H1205 H 0.06874 0.28549 0.39109 0.0
H1206 H 0.10399 0.31334 0.37767 0.0
H1207 H 0.02542 0.24923 0.37769 0.0
H1208 H 0.09132 0.26022 0.41347 0.0
H1209 H 0.12976 0.26161 0.41899 0.0
H1210 H 0.09947 0.19152 0.40791 0.0
H1211 H 0.06097 0.18987 0.40179 0.0
C1212 C 0.94663 0.17303 0.42342 0.0
C1213 C 0.94283 0.15077 0.4231 0.0
C1214 C 0.96811 0.19113 0.4187 0.0
C1215 C 0.98604 0.18731 0.41312 0.0
C1216 C 0.98272 0.16514 0.41398 0.0
C1217 C 0.96154 0.1472 0.41906 0.0
C1218 C 0.00754 0.20588 0.40556 0.0
C1219 C 0.02985 0.20785 0.40972 0.0
C1220 C 0.00611 0.22104 0.3937 0.0
C1221 C 0.98325 0.21872 0.38728 0.0
C1222 C 0.96628 0.19851 0.38023 0.0
C1223 C 0.94468 0.19635 0.37431 0.0
C1224 C 0.93994 0.21437 0.37522 0.0
C1225 C 0.95682 0.23461 0.382 0.0
C1226 C 0.97844 0.23685 0.38797 0.0
C1227 C 0.10195 0.26544 0.3644 0.0
C1228 C 0.11044 0.28871 0.36627 0.0
C1229 C 0.08191 0.24954 0.37225 0.0
C1230 C 0.06973 0.25648 0.38205 0.0
C1231 C 0.07781 0.27968 0.38363 0.0
C1232 C 0.09805 0.2956 0.37597 0.0
C1233 C 0.04883 0.23956 0.39084 0.0
C1234 C 0.02674 0.23793 0.38687 0.0
C1235 C 0.0504 0.2243 0.40246 0.0
C1236 C 0.07327 0.22499 0.40698 0.0
C1237 C 0.09287 0.24514 0.41207 0.0
C1238 C 0.11471 0.246 0.41523 0.0
C1239 C 0.11709 0.22671 0.41367 0.0
C1240 C 0.09761 0.20648 0.40904 0.0
C1241 C 0.07577 0.20558 0.40569 0.0
H1242 H 0.134 0.22739 0.41616 0.0
H1243 H 0.92321 0.21267 0.37062 0.0
H1244 H 0.88561 0.84894 0.43531 0.0
H1245 H 0.85121 0.85053 0.42241 0.0
H1246 H 0.83162 0.78833 0.39836 0.0
H1247 H 0.86617 0.78719 0.41103 0.0
H1248 H 0.82812 0.81716 0.37803 0.0
H1249 H 0.80311 0.78998 0.43097 0.0
H1250 H 0.80527 0.79004 0.4606 0.0
H1251 H 0.80244 0.85226 0.45984 0.0
H1252 H 0.80073 0.85282 0.43018 0.0
H1253 H 0.70106 0.80369 0.37818 0.0
H1254 H 0.73305 0.79835 0.3909 0.0
H1255 H 0.78291 0.85308 0.36195 0.0
H1256 H 0.75104 0.85813 0.34889 0.0
H1257 H 0.76949 0.82504 0.40898 0.0
H1258 H 0.82826 0.84462 0.35425 0.0
H1259 H 0.82371 0.84019 0.32483 0.0
H1260 H 0.75419 0.78471 0.32963 0.0
H1261 H 0.75844 0.7886 0.35909 0.0
C1262 C 0.87382 0.83574 0.42725 0.0
C1263 C 0.87827 0.81804 0.42398 0.0
C1264 C 0.85423 0.83655 0.41997 0.0
C1265 C 0.83879 0.81945 0.4095 0.0
C1266 C 0.84334 0.80173 0.40632 0.0
C1267 C 0.86294 0.80104 0.41352 0.0
C1268 C 0.81803 0.82009 0.40162 0.0
C1269 C 0.8153 0.81889 0.3848 0.0
C1270 C 0.80104 0.82184 0.41049 0.0
C1271 C 0.80204 0.82156 0.42834 0.0
C1272 C 0.80316 0.80379 0.43711 0.0
C1273 C 0.80428 0.8037 0.45392 0.0
C1274 C 0.80405 0.82117 0.4621 0.0
C1275 C 0.80266 0.83876 0.45349 0.0
C1276 C 0.80162 0.83897 0.43668 0.0
C1277 C 0.71881 0.81442 0.37439 0.0
C1278 C 0.72349 0.83124 0.36245 0.0
C1279 C 0.73707 0.81142 0.38173 0.0
C1280 C 0.76033 0.82519 0.37729 0.0
C1281 C 0.76504 0.84197 0.36536 0.0
C1282 C 0.74678 0.84485 0.35791 0.0
C1283 C 0.77978 0.82241 0.38538 0.0
C1284 C 0.7823 0.82327 0.40222 0.0
C1285 C 0.79623 0.81971 0.37657 0.0
C1286 C 0.7936 0.81706 0.35887 0.0
C1287 C 0.81204 0.83142 0.34903 0.0
C1288 C 0.80951 0.82901 0.33235 0.0
C1289 C 0.78865 0.81223 0.32536 0.0
C1290 C 0.77031 0.79776 0.33505 0.0
C1291 C 0.77276 0.80008 0.35174 0.0
H1292 H 0.78672 0.81041 0.31244 0.0
H1293 H 0.80489 0.82106 0.47511 0.0
H1294 H 0.18358 0.04442 0.42422 0.0
H1295 H 0.17293 0.00706 0.41397 0.0
H1296 H 0.20598 0.03792 0.36957 0.0
H1297 H 0.21741 0.07537 0.38014 0.0
H1298 H 0.15792 0.99467 0.3679 0.0
H1299 H 0.23738 0.02735 0.39189 0.0
H1300 H 0.26657 0.04595 0.41402 0.0
H1301 H 0.22714 0.99001 0.44568 0.0
H1302 H 0.19745 0.97127 0.4238 0.0
H1303 H 0.16834 0.9032 0.33772 0.0
H1304 H 0.17344 0.93978 0.34555 0.0
H1305 H 0.16862 0.9184 0.39545 0.0
H1306 H 0.16484 0.88239 0.38767 0.0
H1307 H 0.2019 0.95777 0.39392 0.0
H1308 H 0.12292 0.92423 0.37204 0.0
H1309 H 0.09067 0.90483 0.35182 0.0
H1310 H 0.12464 0.96017 0.31853 0.0
H1311 H 0.15728 0.9797 0.33847 0.0
C1312 C 0.18826 0.04307 0.41222 0.0
C1313 C 0.20111 0.06256 0.40288 0.0
C1314 C 0.18215 0.02185 0.40636 0.0
C1315 C 0.18863 0.01981 0.39101 0.0
C1316 C 0.20064 0.0392 0.38138 0.0
C1317 C 0.2071 0.06048 0.38737 0.0
C1318 C 0.18466 0.99766 0.38565 0.0
C1319 C 0.16767 0.98662 0.37339 0.0
C1320 C 0.19694 0.98702 0.39322 0.0
C1321 C 0.21508 0.99802 0.40626 0.0
C1322 C 0.23484 0.0191 0.40361 0.0
C1323 C 0.25148 0.02966 0.4161 0.0
C1324 C 0.24868 0.0192 0.43126 0.0
C1325 C 0.22927 0.99811 0.43394 0.0
C1326 C 0.21253 0.98751 0.42149 0.0
C1327 C 0.16824 0.90632 0.35034 0.0
C1328 C 0.16633 0.89005 0.3621 0.0
C1329 C 0.171 0.92718 0.35482 0.0
C1330 C 0.17114 0.93188 0.37111 0.0
C1331 C 0.16873 0.91535 0.38281 0.0
C1332 C 0.16654 0.89473 0.37837 0.0
C1333 C 0.17488 0.95431 0.37608 0.0
C1334 C 0.19197 0.96557 0.38832 0.0
C1335 C 0.16229 0.96489 0.36869 0.0
C1336 C 0.14266 0.95328 0.35669 0.0
C1337 C 0.12359 0.93215 0.36036 0.0
C1338 C 0.10524 0.92115 0.34896 0.0
C1339 C 0.10564 0.93124 0.33389 0.0
C1340 C 0.12437 0.95236 0.3302 0.0
C1341 C 0.1428 0.96341 0.34155 0.0
H1342 H 0.09141 0.92271 0.32507 0.0
H1343 H 0.26158 0.0274 0.44092 0.0
H1344 H 0.45686 0.62092 0.2849 0.0
H1345 H 0.48683 0.65815 0.29451 0.0
H1346 H 0.53807 0.6345 0.29876 0.0
H1347 H 0.50807 0.59739 0.28912 0.0
H1348 H 0.54135 0.65988 0.32471 0.0
H1349 H 0.53814 0.66589 0.26722 0.0
H1350 H 0.51884 0.66289 0.24037 0.0
H1351 H 0.49709 0.7107 0.25325 0.0
H1352 H 0.51593 0.7137 0.2803 0.0
H1353 H 0.6374 0.78372 0.30671 0.0
H1354 H 0.60821 0.74613 0.2976 0.0
H1355 H 0.56843 0.73681 0.33953 0.0
H1356 H 0.59743 0.7742 0.34873 0.0
H1357 H 0.56111 0.72755 0.28983 0.0
H1358 H 0.54416 0.68134 0.3517 0.0
H1359 H 0.56528 0.68374 0.37777 0.0
H1360 H 0.63119 0.71563 0.35455 0.0
H1361 H 0.61044 0.71313 0.32832 0.0
C1362 C 0.47448 0.62371 0.28809 0.0
C1363 C 0.48025 0.60642 0.28629 0.0
C1364 C 0.49161 0.64496 0.29348 0.0
C1365 C 0.51482 0.64925 0.29725 0.0
C1366 C 0.52035 0.63167 0.29593 0.0
C1367 C 0.50328 0.61053 0.2904 0.0
C1368 C 0.53349 0.67216 0.30214 0.0
C1369 C 0.54558 0.67467 0.3171 0.0
C1370 C 0.53944 0.69149 0.29212 0.0
C1371 C 0.52825 0.68985 0.27584 0.0
C1372 C 0.52908 0.67563 0.26438 0.0
C1373 C 0.51825 0.67395 0.24911 0.0
C1374 C 0.5067 0.68656 0.24512 0.0
C1375 C 0.50601 0.70092 0.25637 0.0
C1376 C 0.51677 0.70262 0.27167 0.0
C1377 C 0.62247 0.77368 0.31402 0.0
C1378 C 0.6199 0.78206 0.32851 0.0
C1379 C 0.60571 0.75219 0.30874 0.0
C1380 C 0.58616 0.73848 0.31792 0.0
C1381 C 0.58347 0.74689 0.33231 0.0
C1382 C 0.60009 0.76838 0.33753 0.0
C1383 C 0.56862 0.71535 0.31256 0.0
C1384 C 0.55678 0.71279 0.29749 0.0
C1385 C 0.5631 0.69593 0.32239 0.0
C1386 C 0.57574 0.69724 0.33808 0.0
C1387 C 0.56315 0.68878 0.35215 0.0
C1388 C 0.57506 0.69017 0.36696 0.0
C1389 C 0.59957 0.6999 0.36782 0.0
C1390 C 0.61221 0.70818 0.35387 0.0
C1391 C 0.60038 0.7068 0.33904 0.0
H1392 H 0.60875 0.70097 0.3793 0.0
H1393 H 0.49833 0.68524 0.2333 0.0
H1394 H 0.40058 0.92136 0.27434 0.0
H1395 H 0.36424 0.91161 0.28798 0.0
H1396 H 0.35022 0.84246 0.29278 0.0
H1397 H 0.38655 0.85238 0.27899 0.0
H1398 H 0.31 0.84645 0.28443 0.0
H1399 H 0.37427 0.87488 0.32341 0.0
H1400 H 0.41346 0.90211 0.33435 0.0
H1401 H 0.39151 0.95276 0.33513 0.0
H1402 H 0.35229 0.92594 0.32389 0.0
H1403 H 0.22881 0.81615 0.34693 0.0
H1404 H 0.26564 0.82429 0.33471 0.0
H1405 H 0.27704 0.891 0.32116 0.0
H1406 H 0.23996 0.88278 0.33293 0.0
H1407 H 0.31866 0.88657 0.33492 0.0
H1408 H 0.25633 0.85955 0.29367 0.0
H1409 H 0.21723 0.83294 0.2824 0.0
H1410 H 0.23571 0.77973 0.28603 0.0
H1411 H 0.2749 0.80604 0.29768 0.0
C1412 C 0.38936 0.90406 0.27805 0.0
C1413 C 0.39592 0.8875 0.27563 0.0
C1414 C 0.36882 0.89851 0.28589 0.0
C1415 C 0.35475 0.87636 0.2915 0.0
C1416 C 0.36087 0.85962 0.28852 0.0
C1417 C 0.38147 0.86522 0.28071 0.0
C1418 C 0.33435 0.871 0.30123 0.0
C1419 C 0.31193 0.85495 0.29559 0.0
C1420 C 0.33693 0.88235 0.31568 0.0
C1421 C 0.3604 0.89844 0.32266 0.0
C1422 C 0.37785 0.89187 0.32579 0.0
C1423 C 0.40006 0.90723 0.33206 0.0
C1424 C 0.40498 0.92917 0.33541 0.0
C1425 C 0.38767 0.93577 0.33252 0.0
C1426 C 0.36544 0.92049 0.3262 0.0
C1427 C 0.23944 0.8327 0.34164 0.0
C1428 C 0.23164 0.84886 0.34082 0.0
C1429 C 0.26034 0.83726 0.33463 0.0
C1430 C 0.27385 0.85818 0.32703 0.0
C1431 C 0.26678 0.87479 0.32702 0.0
C1432 C 0.24564 0.87006 0.33369 0.0
C1433 C 0.29443 0.86221 0.31805 0.0
C1434 C 0.31684 0.87796 0.32383 0.0
C1435 C 0.29187 0.85058 0.30377 0.0
C1436 C 0.26841 0.83468 0.29675 0.0
C1437 C 0.25197 0.84211 0.29224 0.0
C1438 C 0.22979 0.82708 0.28575 0.0
C1439 C 0.2239 0.80459 0.28355 0.0
C1440 C 0.24025 0.79712 0.2878 0.0
C1441 C 0.26246 0.81209 0.29435 0.0
H1442 H 0.20671 0.79297 0.27851 0.0
H1443 H 0.42219 0.94104 0.34026 0.0
H1444 H 0.13717 0.53427 0.2863 0.0
H1445 H 0.1444 0.50203 0.29052 0.0
H1446 H 0.0696 0.45691 0.28747 0.0
H1447 H 0.06249 0.48952 0.28401 0.0
H1448 H 0.08803 0.4456 0.31242 0.0
H1449 H 0.10597 0.45951 0.25783 0.0
H1450 H 0.12355 0.48147 0.23328 0.0
H1451 H 0.19266 0.50003 0.25365 0.0
H1452 H 0.17553 0.47851 0.27846 0.0
H1453 H 0.11611 0.35365 0.31686 0.0
H1454 H 0.1021 0.3792 0.3049 0.0
H1455 H 0.16789 0.4364 0.31914 0.0
H1456 H 0.18178 0.4111 0.33146 0.0
H1457 H 0.14893 0.43656 0.28517 0.0
H1458 H 0.12775 0.42579 0.34152 0.0
H1459 H 0.10813 0.40213 0.36503 0.0
H1460 H 0.04163 0.37463 0.33867 0.0
H1461 H 0.06095 0.39792 0.31491 0.0
C1462 C 0.12235 0.51744 0.28653 0.0
C1463 C 0.09931 0.51426 0.28513 0.0
C1464 C 0.12644 0.499 0.28873 0.0
C1465 C 0.10755 0.47695 0.28923 0.0
C1466 C 0.08447 0.47373 0.28717 0.0
C1467 C 0.0804 0.49227 0.28508 0.0
C1468 C 0.11205 0.4576 0.29307 0.0
C1469 C 0.10096 0.44335 0.30619 0.0
C1470 C 0.12897 0.45458 0.28502 0.0
C1471 C 0.13944 0.46748 0.27008 0.0
C1472 C 0.12493 0.4684 0.25714 0.0
C1473 C 0.13481 0.48076 0.24316 0.0
C1474 C 0.15921 0.49216 0.24191 0.0
C1475 C 0.17377 0.49119 0.25464 0.0
C1476 C 0.16397 0.47888 0.26866 0.0
C1477 C 0.1276 0.37167 0.31739 0.0
C1478 C 0.14998 0.3804 0.32519 0.0
C1479 C 0.11958 0.3862 0.31055 0.0
C1480 C 0.13401 0.40963 0.31113 0.0
C1481 C 0.15656 0.41835 0.31854 0.0
C1482 C 0.16438 0.40389 0.32566 0.0
C1483 C 0.12537 0.42523 0.30468 0.0
C1484 C 0.1357 0.43868 0.29112 0.0
C1485 C 0.10743 0.42723 0.31208 0.0
C1486 C 0.09583 0.41336 0.32639 0.0
C1487 C 0.10898 0.41453 0.34069 0.0
C1488 C 0.09791 0.40123 0.35407 0.0
C1489 C 0.07366 0.38682 0.35333 0.0
C1490 C 0.06042 0.38575 0.33922 0.0
C1491 C 0.07142 0.39901 0.32579 0.0
H1492 H 0.06512 0.37654 0.36371 0.0
H1493 H 0.16683 0.50172 0.23108 0.0
H1494 H 0.42298 0.50887 0.27689 0.0
H1495 H 0.38624 0.47539 0.2841 0.0
H1496 H 0.35257 0.51686 0.28652 0.0
H1497 H 0.38909 0.55004 0.27883 0.0
H1498 H 0.36334 0.46528 0.31052 0.0
H1499 H 0.29324 0.48596 0.27813 0.0
H1500 H 0.28847 0.50425 0.25294 0.0
H1501 H 0.33919 0.49163 0.23098 0.0
H1502 H 0.34388 0.47282 0.25588 0.0
H1503 H 0.25492 0.40338 0.34811 0.0
H1504 H 0.29074 0.43252 0.33625 0.0
H1505 H 0.26543 0.40266 0.28969 0.0
H1506 H 0.22916 0.37394 0.3014 0.0
H1507 H 0.28465 0.44516 0.28542 0.0
H1508 H 0.31033 0.39751 0.31345 0.0
H1509 H 0.31557 0.37571 0.33638 0.0
H1510 H 0.35474 0.43649 0.36304 0.0
H1511 H 0.34947 0.45862 0.34035 0.0
C1512 C 0.40752 0.51064 0.27855 0.0
C1513 C 0.40881 0.53199 0.27721 0.0
C1514 C 0.38659 0.49157 0.28287 0.0
C1515 C 0.36643 0.49342 0.28585 0.0
C1516 C 0.36764 0.51476 0.28411 0.0
C1517 C 0.38854 0.53377 0.27979 0.0
C1518 C 0.34453 0.47338 0.29148 0.0
C1519 C 0.34616 0.4609 0.30499 0.0
C1520 C 0.32202 0.46711 0.2841 0.0
C1521 C 0.31911 0.4782 0.26897 0.0
C1522 C 0.3033 0.48699 0.26791 0.0
C1523 C 0.3006 0.49744 0.25367 0.0
C1524 C 0.31359 0.49918 0.24039 0.0
C1525 C 0.32924 0.4904 0.2413 0.0
C1526 C 0.33193 0.47983 0.25548 0.0
C1527 C 0.25697 0.40292 0.33535 0.0
C1528 C 0.23909 0.38615 0.32577 0.0
C1529 C 0.27761 0.41961 0.32856 0.0
C1530 C 0.28119 0.41976 0.31204 0.0
C1531 C 0.26328 0.40306 0.30244 0.0
C1532 C 0.24251 0.38653 0.30919 0.0
C1533 C 0.30339 0.43748 0.30478 0.0
C1534 C 0.30183 0.44952 0.29095 0.0
C1535 C 0.32604 0.44292 0.31158 0.0
C1536 C 0.32933 0.42969 0.32524 0.0
C1537 C 0.31993 0.40621 0.32424 0.0
C1538 C 0.32292 0.39379 0.33719 0.0
C1539 C 0.33543 0.4047 0.35117 0.0
C1540 C 0.34503 0.42806 0.35221 0.0
C1541 C 0.34207 0.44055 0.3393 0.0
H1542 H 0.33773 0.39506 0.36119 0.0
H1543 H 0.31148 0.50728 0.22938 0.0
H1544 H 0.4648 0.86721 0.26401 0.0
H1545 H 0.49903 0.86431 0.27571 0.0
H1546 H 0.52832 0.93181 0.29356 0.0
H1547 H 0.49375 0.93437 0.28205 0.0
H1548 H 0.56205 0.92005 0.28043 0.0
H1549 H 0.50153 0.89497 0.31869 0.0
H1550 H 0.4608 0.873 0.32738 0.0
H1551 H 0.46147 0.81141 0.31784 0.0
H1552 H 0.50212 0.83305 0.30885 0.0
H1553 H 0.61249 0.87392 0.35189 0.0
H1554 H 0.58406 0.88585 0.34106 0.0
H1555 H 0.59434 0.87183 0.29307 0.0
H1556 H 0.62271 0.86018 0.30362 0.0
H1557 H 0.54257 0.86206 0.32403 0.0
H1558 H 0.59126 0.90978 0.26693 0.0
H1559 H 0.632 0.93236 0.25836 0.0
H1560 H 0.65594 0.95118 0.30722 0.0
H1561 H 0.61531 0.92897 0.31606 0.0
C1562 C 0.47895 0.88153 0.27007 0.0
C1563 C 0.47713 0.90106 0.27209 0.0
C1564 C 0.49831 0.87989 0.27677 0.0
C1565 C 0.51604 0.89783 0.28553 0.0
C1566 C 0.51483 0.91788 0.28677 0.0
C1567 C 0.49529 0.91937 0.28021 0.0
C1568 C 0.53461 0.8948 0.29457 0.0
C1569 C 0.5579 0.90746 0.29 0.0
C1570 C 0.52908 0.87872 0.30728 0.0
C1571 C 0.50481 0.86564 0.31298 0.0
C1572 C 0.49294 0.87674 0.31834 0.0
C1573 C 0.46988 0.86435 0.32333 0.0
C1574 C 0.45853 0.84083 0.32312 0.0
C1575 C 0.47027 0.82964 0.31798 0.0
C1576 C 0.49334 0.84196 0.31296 0.0
C1577 C 0.60873 0.87345 0.33903 0.0
C1578 C 0.61991 0.86615 0.32863 0.0
C1579 C 0.59249 0.88024 0.33288 0.0
C1580 C 0.58739 0.88001 0.31626 0.0
C1581 C 0.59837 0.87254 0.30591 0.0
C1582 C 0.6145 0.86575 0.31201 0.0
C1583 C 0.57005 0.88686 0.30961 0.0
C1584 C 0.54689 0.87487 0.31461 0.0
C1585 C 0.57579 0.90374 0.29741 0.0
C1586 C 0.60023 0.91758 0.29216 0.0
C1587 C 0.60519 0.91885 0.27583 0.0
C1588 C 0.62827 0.93156 0.27093 0.0
C1589 C 0.64655 0.94316 0.28224 0.0
C1590 C 0.64177 0.94214 0.29847 0.0
C1591 C 0.61872 0.92946 0.30344 0.0
H1592 H 0.66441 0.95297 0.27842 0.0
H1593 H 0.44066 0.83126 0.32697 0.0
H1594 H 0.08832 0.57545 0.31963 0.0
H1595 H 0.10067 0.61306 0.33009 0.0
H1596 H 0.13353 0.64316 0.28541 0.0
H1597 H 0.1221 0.60555 0.27539 0.0
H1598 H 0.16036 0.66743 0.30926 0.0
H1599 H 0.07847 0.63576 0.29405 0.0
H1600 H 0.03655 0.60732 0.29382 0.0
H1601 H 0.03532 0.61498 0.34456 0.0
H1602 H 0.07736 0.64325 0.34514 0.0
H1603 H 0.16369 0.77361 0.31433 0.0
H1604 H 0.15531 0.73598 0.30668 0.0
H1605 H 0.12918 0.70997 0.35366 0.0
H1606 H 0.13723 0.74754 0.36141 0.0
H1607 H 0.09979 0.68363 0.32975 0.0
H1608 H 0.18285 0.71839 0.34348 0.0
H1609 H 0.22393 0.74845 0.34179 0.0
H1610 H 0.22212 0.73633 0.29147 0.0
H1611 H 0.18088 0.70649 0.29279 0.0
C1612 C 0.09851 0.59021 0.31224 0.0
C1613 C 0.1044 0.58784 0.2968 0.0
C1614 C 0.10536 0.61163 0.3181 0.0
C1615 C 0.11776 0.63097 0.30845 0.0
C1616 C 0.124 0.62854 0.29309 0.0
C1617 C 0.11738 0.60714 0.28733 0.0
C1618 C 0.12368 0.6537 0.31412 0.0
C1619 C 0.14707 0.671 0.31361 0.0
C1620 C 0.10642 0.65836 0.31999 0.0
C1621 C 0.08112 0.64144 0.31967 0.0
C1622 C 0.06931 0.63125 0.30518 0.0
C1623 C 0.04552 0.61518 0.30499 0.0
C1624 C 0.03329 0.6093 0.31918 0.0
C1625 C 0.04482 0.61953 0.33359 0.0
C1626 C 0.06863 0.63558 0.33386 0.0
C1627 C 0.15626 0.75994 0.3231 0.0
C1628 C 0.15116 0.76362 0.33851 0.0
C1629 C 0.15156 0.73844 0.3187 0.0
C1630 C 0.14184 0.72022 0.32966 0.0
C1631 C 0.13674 0.72382 0.34504 0.0
C1632 C 0.14142 0.74532 0.34946 0.0
C1633 C 0.13641 0.69729 0.3249 0.0
C1634 C 0.1131 0.67997 0.32554 0.0
C1635 C 0.15367 0.69274 0.31892 0.0
C1636 C 0.17869 0.7103 0.31822 0.0
C1637 C 0.19116 0.72221 0.33204 0.0
C1638 C 0.21448 0.73923 0.33114 0.0
C1639 C 0.22561 0.74435 0.31652 0.0
C1640 C 0.21347 0.73238 0.30278 0.0
C1641 C 0.19013 0.7154 0.3036 0.0
H1642 H 0.24364 0.75757 0.31584 0.0
H1643 H 0.01487 0.59686 0.319 0.0
H1644 H 0.8716 0.05788 0.43192 0.0
H1645 H 0.84079 0.02228 0.42083 0.0
H1646 H 0.83175 0.05842 0.37933 0.0
H1647 H 0.86187 0.09412 0.39093 0.0
H1648 H 0.79067 0.02847 0.38814 0.0
H1649 H 0.86086 0.02535 0.3785 0.0
H1650 H 0.8992 0.02696 0.38517 0.0
H1651 H 0.86668 0.97121 0.41836 0.0
H1652 H 0.82818 0.96946 0.41206 0.0
H1653 H 0.72322 0.92946 0.34135 0.0
H1654 H 0.75448 0.96553 0.35134 0.0
H1655 H 0.75826 0.93339 0.39648 0.0
H1656 H 0.72697 0.8973 0.38663 0.0
H1657 H 0.8023 0.9614 0.3848 0.0
H1658 H 0.73185 0.96562 0.39403 0.0
H1659 H 0.69385 0.96414 0.38623 0.0
H1660 H 0.72779 0.01827 0.35204 0.0
H1661 H 0.76597 0.01986 0.35949 0.0
C1662 C 0.86305 0.05809 0.4204 0.0
C1663 C 0.86933 0.07861 0.41213 0.0
C1664 C 0.84555 0.03776 0.41399 0.0
C1665 C 0.83411 0.03744 0.39902 0.0
C1666 C 0.84032 0.05807 0.39081 0.0
C1667 C 0.85769 0.07844 0.39733 0.0
C1668 C 0.81534 0.0157 0.39217 0.0
C1669 C 0.79342 0.01396 0.38719 0.0
C1670 C 0.81855 0.99646 0.39112 0.0
C1671 C 0.84167 0.99742 0.39492 0.0
C1672 C 0.86191 0.01354 0.38731 0.0
C1673 C 0.88367 0.01446 0.39102 0.0
C1674 C 0.88538 0.99923 0.40221 0.0
C1675 C 0.86533 0.98301 0.40971 0.0
C1676 C 0.84353 0.98203 0.40607 0.0
C1677 C 0.73063 0.93004 0.35342 0.0
C1678 C 0.72245 0.91041 0.36319 0.0
C1679 C 0.7485 0.95073 0.35914 0.0
C1680 C 0.75869 0.95227 0.37472 0.0
C1681 C 0.7507 0.93268 0.38443 0.0
C1682 C 0.7327 0.91203 0.37879 0.0
C1683 C 0.77775 0.97425 0.38088 0.0
C1684 C 0.79967 0.976 0.38572 0.0
C1685 C 0.77463 0.99355 0.38163 0.0
C1686 C 0.75172 0.9927 0.3772 0.0
C1687 C 0.73118 0.97708 0.38476 0.0
C1688 C 0.70962 0.97625 0.38042 0.0
C1689 C 0.7084 0.99106 0.36861 0.0
C1690 C 0.72876 0.00679 0.36116 0.0
C1691 C 0.75037 0.00768 0.36545 0.0
H1692 H 0.69168 0.99039 0.36527 0.0
H1693 H 0.90225 0.99997 0.40506 0.0
H1694 H 0.92128 0.78094 0.40814 0.0
H1695 H 0.95216 0.77656 0.3961 0.0
H1696 H 1.00067 0.81365 0.43502 0.0
H1697 H 0.96979 0.81938 0.44638 0.0
H1698 H 0.0211 0.82982 0.40913 0.0
H1699 H 0.98006 0.7553 0.42902 0.0
H1700 H 0.94629 0.71823 0.43488 0.0
H1701 H 0.93245 0.70516 0.38437 0.0
H1702 H 0.96591 0.74232 0.37818 0.0
H1703 H 0.0919 0.77926 0.3766 0.0
H1704 H 0.05651 0.7721 0.39012 0.0
H1705 H 0.04949 0.82166 0.35912 0.0
H1706 H 0.0851 0.82879 0.34549 0.0
H1707 H 0.0107 0.76027 0.384 0.0
H1708 H 0.04253 0.85687 0.3839 0.0
H1709 H 0.07995 0.89236 0.38234 0.0
H1710 H 0.11791 0.85817 0.40088 0.0
H1711 H 0.08072 0.82264 0.40287 0.0
C1712 C 0.93854 0.78802 0.41411 0.0
C1713 C 0.94349 0.80094 0.4279 0.0
C1714 C 0.95612 0.78526 0.40738 0.0
C1715 C 0.97883 0.7947 0.41464 0.0
C1716 C 0.98334 0.80633 0.42911 0.0
C1717 C 0.96575 0.80944 0.43569 0.0
C1718 C 0.99814 0.79415 0.40624 0.0
C1719 C 0.01877 0.81454 0.40374 0.0
C1720 C 0.99555 0.77415 0.3995 0.0
C1721 C 0.97543 0.7517 0.40313 0.0
C1722 C 0.96972 0.7446 0.41915 0.0
C1723 C 0.95064 0.72355 0.42253 0.0
C1724 C 0.93721 0.70936 0.41 0.0
C1725 C 0.94287 0.71618 0.39406 0.0
C1726 C 0.96191 0.73722 0.39061 0.0
C1727 C 0.08221 0.78793 0.37226 0.0
C1728 C 0.09097 0.80446 0.36001 0.0
C1729 C 0.06205 0.78387 0.38 0.0
C1730 C 0.05063 0.79658 0.37578 0.0
C1731 C 0.05824 0.8118 0.36261 0.0
C1732 C 0.07836 0.81571 0.35473 0.0
C1733 C 0.03289 0.796 0.38644 0.0
C1734 C 0.01278 0.77544 0.38942 0.0
C1735 C 0.03644 0.81558 0.39428 0.0
C1736 C 0.05884 0.83703 0.39333 0.0
C1737 C 0.05885 0.85695 0.38769 0.0
C1738 C 0.08003 0.87707 0.38673 0.0
C1739 C 0.10129 0.87748 0.39143 0.0
C1740 C 0.10144 0.85781 0.39717 0.0
C1741 C 0.08032 0.83768 0.39822 0.0
H1742 H 0.11765 0.89306 0.39072 0.0
H1743 H 0.92244 0.69308 0.41265 0.0
H1744 H 0.25232 0.16031 0.41568 0.0
H1745 H 0.25167 0.19608 0.41116 0.0
H1746 H 0.17586 0.15985 0.40611 0.0
H1747 H 0.1766 0.12443 0.41197 0.0
H1748 H 0.24003 0.21065 0.38607 0.0
H1749 H 0.15097 0.19322 0.41301 0.0
H1750 H 0.12763 0.17401 0.43655 0.0
H1751 H 0.1891 0.17812 0.46196 0.0
H1752 H 0.21303 0.19796 0.43875 0.0
H1753 H 0.19357 0.2747 0.34555 0.0
H1754 H 0.20132 0.24557 0.3583 0.0
H1755 H 0.20833 0.27461 0.40467 0.0
H1756 H 0.19966 0.30328 0.39206 0.0
H1757 H 0.18407 0.23209 0.40779 0.0
H1758 H 0.25701 0.27962 0.38479 0.0
H1759 H 0.28428 0.30262 0.36385 0.0
H1760 H 0.26183 0.24371 0.33554 0.0
H1761 H 0.23417 0.2204 0.35622 0.0
C1762 C 0.23555 0.16015 0.41407 0.0
C1763 C 0.21452 0.13967 0.41399 0.0
C1764 C 0.23516 0.18054 0.41132 0.0
C1765 C 0.21371 0.1808 0.40827 0.0
C1766 C 0.19265 0.16029 0.40866 0.0
C1767 C 0.19305 0.13998 0.41175 0.0
C1768 C 0.21342 0.20216 0.40335 0.0
C1769 C 0.22788 0.21537 0.39094 0.0
C1770 C 0.19803 0.20878 0.40992 0.0
C1771 C 0.18379 0.1969 0.42402 0.0
C1772 C 0.15958 0.19016 0.42364 0.0
C1773 C 0.14624 0.17917 0.43695 0.0
C1774 C 0.15687 0.1748 0.45073 0.0
C1775 C 0.1809 0.1815 0.45126 0.0
C1776 C 0.19436 0.19262 0.43803 0.0
C1777 C 0.19697 0.27503 0.35845 0.0
C1778 C 0.19611 0.29141 0.36776 0.0
C1779 C 0.20151 0.25839 0.36573 0.0
C1780 C 0.20579 0.25804 0.38245 0.0
C1781 C 0.20512 0.2745 0.39176 0.0
C1782 C 0.20026 0.29097 0.38451 0.0
C1783 C 0.21009 0.23998 0.39022 0.0
C1784 C 0.19638 0.22742 0.40311 0.0
C1785 C 0.22672 0.23437 0.38449 0.0
C1786 C 0.24339 0.24829 0.37202 0.0
C1787 C 0.25777 0.27159 0.37405 0.0
C1788 C 0.27331 0.28468 0.36224 0.0
C1789 C 0.27476 0.27464 0.34836 0.0
C1790 C 0.26069 0.25147 0.34629 0.0
C1791 C 0.2451 0.23831 0.35807 0.0
H1792 H 0.2868 0.2848 0.33922 0.0
H1793 H 0.1465 0.16625 0.461 0.0
H1794 H 0.63374 0.48165 0.77026 0.0
H1795 H 0.66985 0.51402 0.7607 0.0
H1796 H 0.62833 0.53057 0.72581 0.0
H1797 H 0.59231 0.49853 0.73573 0.0
H1798 H 0.66527 0.52635 0.71257 0.0
H1799 H 0.65379 0.56389 0.75618 0.0
H1800 H 0.64767 0.56817 0.78445 0.0
H1801 H 0.71356 0.57062 0.79875 0.0
H1802 H 0.71989 0.56591 0.77059 0.0
H1803 H 0.75838 0.62556 0.68009 0.0
H1804 H 0.7217 0.59802 0.69204 0.0
H1805 H 0.76097 0.5926 0.73413 0.0
H1806 H 0.79747 0.62094 0.72257 0.0
H1807 H 0.72437 0.59134 0.74402 0.0
H1808 H 0.7359 0.55138 0.70263 0.0
H1809 H 0.74276 0.54405 0.67526 0.0
H1810 H 0.6785 0.54283 0.65779 0.0
H1811 H 0.6714 0.55043 0.68503 0.0
C1812 C 0.63239 0.49273 0.76096 0.0
C1813 C 0.61035 0.48791 0.75386 0.0
C1814 C 0.65298 0.51107 0.75538 0.0
C1815 C 0.65185 0.52475 0.74248 0.0
C1816 C 0.62969 0.52029 0.73574 0.0
C1817 C 0.60914 0.50217 0.74147 0.0
C1818 C 0.67375 0.54278 0.73536 0.0
C1819 C 0.67805 0.54077 0.71936 0.0
C1820 C 0.69083 0.56115 0.74437 0.0
C1821 C 0.68721 0.56433 0.76128 0.0
C1822 C 0.66689 0.56516 0.76536 0.0
C1823 C 0.66339 0.56768 0.78137 0.0
C1824 C 0.68018 0.56962 0.79339 0.0
C1825 C 0.70055 0.56909 0.78943 0.0
C1826 C 0.70411 0.56651 0.77344 0.0
C1827 C 0.75918 0.61848 0.69188 0.0
C1828 C 0.78091 0.62544 0.70032 0.0
C1829 C 0.73816 0.60258 0.69871 0.0
C1830 C 0.73836 0.59271 0.71395 0.0
C1831 C 0.76011 0.59983 0.7224 0.0
C1832 C 0.78106 0.61604 0.71573 0.0
C1833 C 0.71606 0.57503 0.7211 0.0
C1834 C 0.71165 0.57702 0.73714 0.0
C1835 C 0.69906 0.55631 0.71223 0.0
C1836 C 0.70325 0.55171 0.69584 0.0
C1837 C 0.72332 0.54971 0.69293 0.0
C1838 C 0.72723 0.54548 0.67744 0.0
C1839 C 0.71111 0.54304 0.66478 0.0
C1840 C 0.69099 0.54476 0.6676 0.0
C1841 C 0.687 0.54901 0.68306 0.0
H1842 H 0.71417 0.53977 0.6528 0.0
H1843 H 0.67742 0.57157 0.80578 0.0
H1844 H 0.5602 0.18361 0.75908 0.0
H1845 H 0.52851 0.18933 0.74596 0.0
H1846 H 0.48001 0.11861 0.75298 0.0
H1847 H 0.51201 0.11278 0.76505 0.0
H1848 H 0.47548 0.12982 0.72395 0.0
H1849 H 0.47928 0.16207 0.77466 0.0
H1850 H 0.49667 0.18718 0.7978 0.0
H1851 H 0.51577 0.245 0.76649 0.0
H1852 H 0.49892 0.22027 0.74312 0.0
H1853 H 0.36975 0.13639 0.70525 0.0
H1854 H 0.40144 0.13215 0.71982 0.0
H1855 H 0.45233 0.19725 0.70176 0.0
H1856 H 0.42089 0.20148 0.68696 0.0
H1857 H 0.45537 0.18955 0.73618 0.0
H1858 H 0.45121 0.15571 0.68554 0.0
H1859 H 0.43097 0.12957 0.66327 0.0
H1860 H 0.40974 0.07316 0.6962 0.0
H1861 H 0.42958 0.099 0.71872 0.0
C1862 C 0.54269 0.16942 0.75784 0.0
C1863 C 0.53839 0.14781 0.76307 0.0
C1864 C 0.52458 0.17269 0.75052 0.0
C1865 C 0.5018 0.15442 0.74863 0.0
C1866 C 0.49741 0.13295 0.75433 0.0
C1867 C 0.51559 0.12966 0.76138 0.0
C1868 C 0.48291 0.15721 0.73965 0.0
C1869 C 0.47088 0.14267 0.72684 0.0
C1870 C 0.47728 0.17435 0.74311 0.0
C1871 C 0.48808 0.1893 0.7571 0.0
C1872 C 0.48747 0.18015 0.77268 0.0
C1873 C 0.49718 0.19432 0.78584 0.0
C1874 C 0.50739 0.21767 0.78362 0.0
C1875 C 0.50793 0.22691 0.7682 0.0
C1876 C 0.49832 0.21282 0.75499 0.0
C1877 C 0.38772 0.14968 0.70427 0.0
C1878 C 0.39293 0.16915 0.69488 0.0
C1879 C 0.40573 0.14725 0.71259 0.0
C1880 C 0.42909 0.16439 0.71177 0.0
C1881 C 0.43435 0.18387 0.70246 0.0
C1882 C 0.41642 0.18615 0.69393 0.0
C1883 C 0.44806 0.16205 0.72078 0.0
C1884 C 0.46008 0.17671 0.73345 0.0
C1885 C 0.45351 0.14487 0.71738 0.0
C1886 C 0.44167 0.1293 0.70384 0.0
C1887 C 0.44204 0.13774 0.68806 0.0
C1888 C 0.43068 0.12297 0.67538 0.0
C1889 C 0.41902 0.09972 0.67832 0.0
C1890 C 0.41875 0.09118 0.69394 0.0
C1891 C 0.43007 0.10588 0.70666 0.0
H1892 H 0.41023 0.08831 0.66849 0.0
H1893 H 0.51482 0.22861 0.79383 0.0
H1894 H 0.85939 0.38459 0.74886 0.0
H1895 H 0.84827 0.3469 0.73909 0.0
H1896 H 0.89539 0.37704 0.70016 0.0
H1897 H 0.90643 0.41478 0.71006 0.0
H1898 H 0.85201 0.33925 0.69102 0.0
H1899 H 0.91414 0.35991 0.73185 0.0
H1900 H 0.93267 0.37376 0.75859 0.0
H1901 H 0.87555 0.31728 0.78105 0.0
H1902 H 0.85644 0.30331 0.75443 0.0
H1903 H 0.86043 0.24189 0.67209 0.0
H1904 H 0.86887 0.27989 0.67897 0.0
H1905 H 0.83106 0.25371 0.72251 0.0
H1906 H 0.82317 0.21583 0.71596 0.0
H1907 H 0.8704 0.2903 0.72877 0.0
H1908 H 0.80764 0.26964 0.68869 0.0
H1909 H 0.78733 0.25622 0.66231 0.0
H1910 H 0.8437 0.31218 0.63884 0.0
H1911 H 0.8645 0.32578 0.66507 0.0
C1912 C 0.86699 0.38299 0.73809 0.0
C1913 C 0.88366 0.40225 0.73013 0.0
C1914 C 0.86074 0.36161 0.73255 0.0
C1915 C 0.87121 0.35924 0.71901 0.0
C1916 C 0.88711 0.37856 0.71061 0.0
C1917 C 0.8934 0.39999 0.71622 0.0
C1918 C 0.86672 0.33662 0.71434 0.0
C1919 C 0.85627 0.3286 0.69915 0.0
C1920 C 0.87192 0.32268 0.72514 0.0
C1921 C 0.88376 0.33066 0.74114 0.0
C1922 C 0.90547 0.3505 0.74249 0.0
C1923 C 0.91607 0.35838 0.75762 0.0
C1924 C 0.90527 0.34644 0.77151 0.0
C1925 C 0.88389 0.32653 0.77028 0.0
C1926 C 0.87316 0.31861 0.75517 0.0
C1927 C 0.85386 0.24422 0.6831 0.0
C1928 C 0.84115 0.22586 0.69348 0.0
C1929 C 0.85861 0.26594 0.68699 0.0
C1930 C 0.85037 0.26964 0.70117 0.0
C1931 C 0.83763 0.25129 0.71152 0.0
C1932 C 0.83311 0.22963 0.70774 0.0
C1933 C 0.8554 0.29266 0.70543 0.0
C1934 C 0.86608 0.30085 0.72057 0.0
C1935 C 0.85026 0.30668 0.69461 0.0
C1936 C 0.83773 0.2986 0.67883 0.0
C1937 C 0.81578 0.27899 0.67789 0.0
C1938 C 0.80417 0.27137 0.66297 0.0
C1939 C 0.81425 0.28331 0.64891 0.0
C1940 C 0.83593 0.30294 0.64974 0.0
C1941 C 0.84763 0.31062 0.66463 0.0
H1942 H 0.80523 0.27738 0.63736 0.0
H1943 H 0.91348 0.35259 0.78321 0.0
H1944 H 0.17332 0.94144 0.6126 0.0
H1945 H 0.20348 0.9783 0.62225 0.0
H1946 H 0.14931 0.99508 0.63261 0.0
H1947 H 0.11924 0.95844 0.62224 0.0
H1948 H 0.18315 0.02977 0.61878 0.0
H1949 H 0.18116 0.98115 0.6628 0.0
H1950 H 0.18229 0.94842 0.67627 0.0
H1951 H 0.25234 0.97176 0.66076 0.0
H1952 H 0.2515 0.00448 0.64699 0.0
H1953 H 0.25818 0.12399 0.66847 0.0
H1954 H 0.22759 0.08735 0.65881 0.0
H1955 H 0.28044 0.0753 0.63905 0.0
H1956 H 0.31114 0.11216 0.6484 0.0
H1957 H 0.24725 0.03854 0.65821 0.0
H1958 H 0.24782 0.08566 0.61295 0.0
H1959 H 0.24603 0.11771 0.59886 0.0
H1960 H 0.17842 0.09723 0.6178 0.0
H1961 H 0.17975 0.06491 0.63192 0.0
C1962 C 0.16795 0.95303 0.617 0.0
C1963 C 0.14401 0.94711 0.61682 0.0
C1964 C 0.18515 0.97404 0.62264 0.0
C1965 C 0.17879 0.98952 0.62843 0.0
C1966 C 0.15477 0.98351 0.62828 0.0
C1967 C 0.13757 0.96254 0.62251 0.0
C1968 C 0.19719 0.01216 0.63416 0.0
C1969 C 0.1969 0.03158 0.62761 0.0
C1970 C 0.21558 0.01479 0.64544 0.0
C1971 C 0.21618 0.99516 0.65374 0.0
C1972 C 0.19674 0.97922 0.66216 0.0
C1973 C 0.19734 0.96068 0.66986 0.0
C1974 C 0.21735 0.95798 0.66934 0.0
C1975 C 0.23683 0.97385 0.66114 0.0
C1976 C 0.23632 0.99241 0.6534 0.0
C1977 C 0.26332 0.11359 0.66204 0.0
C1978 C 0.28716 0.12101 0.65927 0.0
C1979 C 0.24579 0.09267 0.65646 0.0
C1980 C 0.25169 0.07855 0.64819 0.0
C1981 C 0.27546 0.08589 0.64542 0.0
C1982 C 0.29298 0.107 0.65073 0.0
C1983 C 0.23311 0.05593 0.64279 0.0
C1984 C 0.23339 0.03659 0.64943 0.0
C1985 C 0.21462 0.05334 0.63171 0.0
C1986 C 0.21399 0.07303 0.6236 0.0
C1987 C 0.23267 0.08811 0.61422 0.0
C1988 C 0.23168 0.10626 0.60617 0.0
C1989 C 0.21215 0.10955 0.60747 0.0
C1990 C 0.19353 0.09466 0.6168 0.0
C1991 C 0.19435 0.07638 0.62478 0.0
H1992 H 0.21143 0.12362 0.60123 0.0
H1993 H 0.21778 0.94362 0.67531 0.0
H1994 H 0.03104 0.17719 0.59452 0.0
H1995 H 0.99873 0.17454 0.61007 0.0
H1996 H 0.04908 0.21877 0.64551 0.0
H1997 H 0.08136 0.22169 0.62969 0.0
H1998 H 0.00746 0.17906 0.65804 0.0
H1999 H 0.02948 0.24227 0.62145 0.0
H2000 H 0.03932 0.26114 0.59486 0.0
H2001 H 0.97035 0.21523 0.57592 0.0
H2002 H 0.96026 0.19575 0.60232 0.0
H2003 H 0.91391 0.19216 0.69071 0.0
H2004 H 0.95249 0.20076 0.68115 0.0
H2005 H 0.91957 0.1693 0.63607 0.0
H2006 H 0.88147 0.16104 0.64526 0.0
H2007 H 0.95723 0.20878 0.63116 0.0
H2008 H 0.9367 0.14251 0.66519 0.0
H2009 H 0.92612 0.12059 0.69065 0.0
H2010 H 0.99067 0.16953 0.71344 0.0
H2011 H 0.00148 0.19191 0.68814 0.0
C2012 C 0.035 0.18618 0.60567 0.0
C2013 C 0.05834 0.19972 0.61099 0.0
C2014 C 0.01673 0.18465 0.61452 0.0
C2015 C 0.02168 0.19659 0.62884 0.0
C2016 C 0.04503 0.20944 0.6345 0.0
C2017 C 0.06331 0.21114 0.62552 0.0
C2018 C 0.00239 0.19661 0.63725 0.0
C2019 C 0.99669 0.18592 0.65237 0.0
C2020 C 0.98837 0.20541 0.62966 0.0
C2021 C 0.99417 0.21745 0.61385 0.0
C2022 C 0.01646 0.23609 0.61159 0.0
C2023 C 0.02208 0.2469 0.59655 0.0
C2024 C 0.00548 0.23937 0.5837 0.0
C2025 C 0.9832 0.22104 0.58588 0.0
C2026 C 0.97752 0.21011 0.60089 0.0
C2027 C 0.91497 0.18709 0.67878 0.0
C2028 C 0.89466 0.17598 0.66874 0.0
C2029 C 0.93696 0.19197 0.67336 0.0
C2030 C 0.93881 0.18564 0.65791 0.0
C2031 C 0.91854 0.17448 0.64798 0.0
C2032 C 0.89672 0.16971 0.65331 0.0
C2033 C 0.96169 0.1905 0.65177 0.0
C2034 C 0.9682 0.20227 0.63705 0.0
C2035 C 0.97623 0.18244 0.65966 0.0
C2036 C 0.96974 0.16903 0.67485 0.0
C2037 C 0.94853 0.1487 0.67567 0.0
C2038 C 0.94251 0.13617 0.69006 0.0
C2039 C 0.95767 0.14371 0.70367 0.0
C2040 C 0.97892 0.16375 0.7029 0.0
C2041 C 0.985 0.17636 0.68854 0.0
H2042 H 0.95299 0.13398 0.7148 0.0
H2043 H 0.00987 0.24776 0.57207 0.0
H2044 H 0.74786 0.83403 0.61092 0.0
H2045 H 0.75402 0.80171 0.61917 0.0
H2046 H 0.82911 0.84519 0.61994 0.0
H2047 H 0.82279 0.87734 0.61178 0.0
H2048 H 0.81533 0.80228 0.60776 0.0
H2049 H 0.80333 0.83665 0.65325 0.0
H2050 H 0.78161 0.85048 0.66861 0.0
H2051 H 0.72272 0.78381 0.67022 0.0
H2052 H 0.74396 0.76966 0.6546 0.0
H2053 H 0.83506 0.74106 0.68363 0.0
H2054 H 0.82479 0.7691 0.67152 0.0
H2055 H 0.7954 0.72831 0.62937 0.0
H2056 H 0.80651 0.70083 0.64109 0.0
H2057 H 0.78603 0.76972 0.66152 0.0
H2058 H 0.8047 0.76211 0.59583 0.0
H2059 H 0.82767 0.74913 0.58098 0.0
H2060 H 0.87728 0.76483 0.62108 0.0
H2061 H 0.85493 0.77846 0.63605 0.0
C2062 C 0.76559 0.83638 0.61251 0.0
C2063 C 0.7849 0.85792 0.61085 0.0
C2064 C 0.76912 0.81807 0.61725 0.0
C2065 C 0.79203 0.82116 0.62028 0.0
C2066 C 0.81132 0.84247 0.61764 0.0
C2067 C 0.80776 0.86076 0.61305 0.0
C2068 C 0.79597 0.80284 0.62767 0.0
C2069 C 0.80881 0.79501 0.61945 0.0
C2070 C 0.78781 0.79373 0.64305 0.0
C2071 C 0.77513 0.80215 0.65261 0.0
C2072 C 0.78567 0.82498 0.65677 0.0
C2073 C 0.77346 0.83287 0.66553 0.0
C2074 C 0.75077 0.81804 0.67035 0.0
C2075 C 0.74028 0.79528 0.66645 0.0
C2076 C 0.7524 0.78731 0.65764 0.0
C2077 C 0.82626 0.73805 0.67184 0.0
C2078 C 0.82184 0.71894 0.66322 0.0
C2079 C 0.82038 0.75404 0.66493 0.0
C2080 C 0.80975 0.75104 0.64939 0.0
C2081 C 0.80414 0.73131 0.64118 0.0
C2082 C 0.81043 0.71558 0.64793 0.0
C2083 C 0.80528 0.76889 0.64158 0.0
C2084 C 0.79238 0.77674 0.64975 0.0
C2085 C 0.81372 0.77823 0.62623 0.0
C2086 C 0.82799 0.77111 0.61711 0.0
C2087 C 0.82063 0.763 0.60143 0.0
C2088 C 0.83354 0.75553 0.593 0.0
C2089 C 0.8539 0.75614 0.60011 0.0
C2090 C 0.86152 0.76441 0.61561 0.0
C2091 C 0.84875 0.77203 0.62406 0.0
H2092 H 0.86378 0.75021 0.5936 0.0
H2093 H 0.74134 0.82418 0.67714 0.0
H2094 H 0.09186 0.85762 0.62657 0.0
H2095 H 0.05514 0.82427 0.63408 0.0
H2096 H 0.01592 0.84578 0.60077 0.0
H2097 H 0.05284 0.87903 0.59322 0.0
H2098 H 0.99744 0.83549 0.63081 0.0
H2099 H 0.01913 0.80022 0.59197 0.0
H2100 H 0.04528 0.78975 0.57853 0.0
H2101 H 0.05243 0.75591 0.62168 0.0
H2102 H 0.0265 0.76641 0.63545 0.0
H2103 H 0.90248 0.70728 0.63765 0.0
H2104 H 0.93663 0.73762 0.62477 0.0
H2105 H 0.95505 0.77628 0.66802 0.0
H2106 H 0.92055 0.74644 0.68072 0.0
H2107 H 0.98167 0.75613 0.62962 0.0
H2108 H 0.98273 0.83192 0.6602 0.0
H2109 H 0.955 0.84244 0.67135 0.0
H2110 H 0.89919 0.79533 0.64062 0.0
H2111 H 0.92661 0.78467 0.62909 0.0
C2112 C 0.07538 0.85494 0.62073 0.0
C2113 C 0.075 0.87074 0.60936 0.0
C2114 C 0.05443 0.83592 0.62497 0.0
C2115 C 0.03269 0.83246 0.618 0.0
C2116 C 0.03243 0.84806 0.60633 0.0
C2117 C 0.05344 0.86692 0.60195 0.0
C2118 C 0.01025 0.81332 0.6236 0.0
C2119 C 0.99396 0.81813 0.63051 0.0
C2120 C 0.00541 0.7906 0.62297 0.0
C2121 C 0.02105 0.78428 0.61478 0.0
C2122 C 0.02644 0.79071 0.59864 0.0
C2123 C 0.04118 0.78473 0.59095 0.0
C2124 C 0.05057 0.77223 0.59926 0.0
C2125 C 0.04517 0.76562 0.61527 0.0
C2126 C 0.03042 0.77155 0.62301 0.0
C2127 C 0.91382 0.72224 0.64444 0.0
C2128 C 0.90865 0.72441 0.66022 0.0
C2129 C 0.9334 0.73962 0.63704 0.0
C2130 C 0.94837 0.75956 0.64526 0.0
C2131 C 0.94355 0.76143 0.66119 0.0
C2132 C 0.92383 0.74423 0.66851 0.0
C2133 C 0.96902 0.77831 0.63726 0.0
C2134 C 0.98503 0.77345 0.6299 0.0
C2135 C 0.97339 0.80099 0.63722 0.0
C2136 C 0.95672 0.80738 0.64389 0.0
C2137 C 0.96456 0.82386 0.65576 0.0
C2138 C 0.94888 0.82982 0.66215 0.0
C2139 C 0.92532 0.81948 0.65671 0.0
C2140 C 0.91741 0.80322 0.64483 0.0
C2141 C 0.93301 0.7972 0.63838 0.0
H2142 H 0.9132 0.8241 0.66168 0.0
H2143 H 0.06198 0.76762 0.59329 0.0
H2144 H 0.12257 0.17282 0.59663 0.0
H2145 H 0.15985 0.17571 0.60758 0.0
H2146 H 0.18976 0.2481 0.60875 0.0
H2147 H 0.15205 0.24493 0.59849 0.0
H2148 H 0.20468 0.19491 0.6011 0.0
H2149 H 0.22079 0.2663 0.64407 0.0
H2150 H 0.19809 0.28167 0.65666 0.0
H2151 H 0.13621 0.21704 0.65392 0.0
H2152 H 0.15858 0.20125 0.64145 0.0
H2153 H 0.31241 0.22406 0.63964 0.0
H2154 H 0.28153 0.23097 0.62683 0.0
H2155 H 0.23759 0.19823 0.66696 0.0
H2156 H 0.26895 0.19201 0.68015 0.0
H2157 H 0.22983 0.23187 0.65413 0.0
H2158 H 0.23465 0.16837 0.63576 0.0
H2159 H 0.25593 0.14985 0.62563 0.0
H2160 H 0.26961 0.19013 0.58224 0.0
H2161 H 0.24919 0.20951 0.5924 0.0
C2162 C 0.13734 0.18929 0.59897 0.0
C2163 C 0.13462 0.20862 0.59702 0.0
C2164 C 0.15858 0.19098 0.60514 0.0
C2165 C 0.17735 0.21208 0.60933 0.0
C2166 C 0.17531 0.23162 0.60589 0.0
C2167 C 0.15396 0.22987 0.59988 0.0
C2168 C 0.19801 0.21331 0.6187 0.0
C2169 C 0.21029 0.20316 0.61262 0.0
C2170 C 0.20486 0.22345 0.63398 0.0
C2171 C 0.19132 0.23269 0.64168 0.0
C2172 C 0.20236 0.25537 0.6462 0.0
C2173 C 0.18954 0.26415 0.6533 0.0
C2174 C 0.1657 0.25036 0.65602 0.0
C2175 C 0.15464 0.22773 0.65172 0.0
C2176 C 0.16738 0.21886 0.64463 0.0
C2177 C 0.29637 0.21883 0.64589 0.0
C2178 C 0.29279 0.20719 0.66072 0.0
C2179 C 0.27879 0.2228 0.63859 0.0
C2180 C 0.25712 0.21461 0.64578 0.0
C2181 C 0.2542 0.20459 0.6612 0.0
C2182 C 0.27204 0.201 0.6687 0.0
C2183 C 0.23674 0.21392 0.63635 0.0
C2184 C 0.22441 0.22396 0.64249 0.0
C2185 C 0.22929 0.20295 0.62139 0.0
C2186 C 0.2406 0.19056 0.61491 0.0
C2187 C 0.24233 0.17338 0.6241 0.0
C2188 C 0.25432 0.16279 0.61838 0.0
C2189 C 0.26415 0.16882 0.60331 0.0
C2190 C 0.26202 0.18548 0.59393 0.0
C2191 C 0.2503 0.19634 0.59968 0.0
H2192 H 0.27332 0.16053 0.5989 0.0
H2193 H 0.15581 0.2572 0.6615 0.0
H2194 H 0.82295 0.94205 0.62576 0.0
H2195 H 0.82977 0.9773 0.63783 0.0
H2196 H 0.7571 0.95967 0.62756 0.0
H2197 H 0.74995 0.92387 0.61634 0.0
H2198 H 0.79671 0.00652 0.61683 0.0
H2199 H 0.76593 0.95385 0.66217 0.0
H2200 H 0.76609 0.92497 0.68127 0.0
H2201 H 0.8367 0.9709 0.69736 0.0
H2202 H 0.83708 0.99995 0.67814 0.0
H2203 H 0.78231 0.08821 0.65601 0.0
H2204 H 0.77745 0.05276 0.64615 0.0
H2205 H 0.83987 0.06208 0.67369 0.0
H2206 H 0.84449 0.09736 0.684 0.0
H2207 H 0.80814 0.01988 0.67554 0.0
H2208 H 0.84074 0.07283 0.63288 0.0
H2209 H 0.8454 0.10256 0.61291 0.0
H2210 H 0.77809 0.05849 0.59072 0.0
H2211 H 0.77286 0.02856 0.61072 0.0
C2212 C 0.80841 0.94559 0.62635 0.0
C2213 C 0.78594 0.93034 0.62015 0.0
C2214 C 0.81234 0.9657 0.63311 0.0
C2215 C 0.79392 0.97097 0.63351 0.0
C2216 C 0.7715 0.95585 0.62726 0.0
C2217 C 0.76748 0.93555 0.62082 0.0
C2218 C 0.79807 0.99242 0.64027 0.0
C2219 C 0.79891 0.00944 0.62966 0.0
C2220 C 0.80195 0.99635 0.65694 0.0
C2221 C 0.80163 0.97897 0.66859 0.0
C2222 C 0.78157 0.95771 0.66966 0.0
C2223 C 0.78155 0.94133 0.68054 0.0
C2224 C 0.80142 0.94607 0.69049 0.0
C2225 C 0.82134 0.96724 0.68962 0.0
C2226 C 0.82146 0.98367 0.67875 0.0
C2227 C 0.79495 0.08268 0.66005 0.0
C2228 C 0.81385 0.09564 0.67073 0.0
C2229 C 0.79222 0.06246 0.65432 0.0
C2230 C 0.80857 0.05498 0.65891 0.0
C2231 C 0.82709 0.06756 0.66994 0.0
C2232 C 0.8297 0.08771 0.67582 0.0
C2233 C 0.80629 0.03408 0.65212 0.0
C2234 C 0.80594 0.01713 0.66268 0.0
C2235 C 0.80345 0.03043 0.63533 0.0
C2236 C 0.8063 0.04851 0.62342 0.0
C2237 C 0.82681 0.06954 0.62385 0.0
C2238 C 0.82957 0.08643 0.6125 0.0
C2239 C 0.81202 0.08244 0.60057 0.0
C2240 C 0.79166 0.06156 0.59998 0.0
C2241 C 0.78879 0.04463 0.61131 0.0
H2242 H 0.81422 0.09549 0.59175 0.0
H2243 H 0.80137 0.93337 0.6989 0.0
H2244 H 0.56587 0.39913 0.74295 0.0
H2245 H 0.53599 0.36375 0.7308 0.0
H2246 H 0.48261 0.3829 0.73806 0.0
H2247 H 0.51263 0.41852 0.74954 0.0
H2248 H 0.49804 0.32838 0.74148 0.0
H2249 H 0.44063 0.36359 0.70847 0.0
H2250 H 0.44557 0.39912 0.69562 0.0
H2251 H 0.51745 0.4186 0.68678 0.0
H2252 H 0.51285 0.38306 0.69936 0.0
H2253 H 0.38612 0.23819 0.7196 0.0
H2254 H 0.41848 0.27311 0.73004 0.0
H2255 H 0.44088 0.29556 0.6818 0.0
H2256 H 0.40813 0.26091 0.67121 0.0
H2257 H 0.44375 0.32914 0.69719 0.0
H2258 H 0.46957 0.27455 0.70888 0.0
H2259 H 0.46667 0.23878 0.71976 0.0
H2260 H 0.46282 0.25773 0.7675 0.0
H2261 H 0.46526 0.29345 0.7569 0.0
C2262 C 0.54779 0.39581 0.74173 0.0
C2263 C 0.54154 0.41157 0.74706 0.0
C2264 C 0.53068 0.37553 0.73495 0.0
C2265 C 0.507 0.37066 0.73333 0.0
C2266 C 0.50076 0.38632 0.73891 0.0
C2267 C 0.51785 0.4066 0.74559 0.0
C2268 C 0.4888 0.34935 0.72572 0.0
C2269 C 0.48618 0.32855 0.73179 0.0
C2270 C 0.47359 0.34945 0.71281 0.0
C2271 C 0.47643 0.37074 0.705 0.0
C2272 C 0.45746 0.37541 0.70372 0.0
C2273 C 0.4602 0.39556 0.69649 0.0
C2274 C 0.48183 0.41113 0.69043 0.0
C2275 C 0.50073 0.40656 0.69153 0.0
C2276 C 0.49807 0.38642 0.69872 0.0
C2277 C 0.39788 0.25055 0.71117 0.0
C2278 C 0.39446 0.24665 0.69453 0.0
C2279 C 0.41653 0.27051 0.7172 0.0
C2280 C 0.43247 0.28693 0.70677 0.0
C2281 C 0.42891 0.2832 0.69013 0.0
C2282 C 0.41014 0.26332 0.68408 0.0
C2283 C 0.4526 0.3081 0.71317 0.0
C2284 C 0.4556 0.32891 0.70687 0.0
C2285 C 0.4685 0.30796 0.72559 0.0
C2286 C 0.46739 0.28663 0.73206 0.0
C2287 C 0.46795 0.27104 0.72169 0.0
C2288 C 0.4664 0.25078 0.72781 0.0
C2289 C 0.46449 0.24597 0.7443 0.0
C2290 C 0.46425 0.26147 0.75472 0.0
C2291 C 0.46574 0.28174 0.74866 0.0
H2292 H 0.46319 0.23025 0.74901 0.0
H2293 H 0.48393 0.42673 0.68485 0.0
H2294 H 0.63062 0.17673 0.76543 0.0
H2295 H 0.66406 0.1784 0.752 0.0
H2296 H 0.62911 0.10571 0.75078 0.0
H2297 H 0.59536 0.10425 0.76383 0.0
H2298 H 0.69479 0.16408 0.75751 0.0
H2299 H 0.63882 0.09017 0.7145 0.0
H2300 H 0.59843 0.07092 0.70253 0.0
H2301 H 0.59225 0.13089 0.70704 0.0
H2302 H 0.6327 0.1506 0.71876 0.0
H2303 H 0.76606 0.13037 0.7196 0.0
H2304 H 0.73338 0.12939 0.73309 0.0
H2305 H 0.71808 0.16194 0.69191 0.0
H2306 H 0.7512 0.16323 0.67818 0.0
H2307 H 0.67781 0.1265 0.70492 0.0
H2308 H 0.74649 0.1921 0.7219 0.0
H2309 H 0.7864 0.21651 0.73321 0.0
H2310 H 0.76731 0.1814 0.77868 0.0
H2311 H 0.72788 0.15591 0.76735 0.0
C2312 C 0.63045 0.16119 0.76254 0.0
C2313 C 0.61066 0.1404 0.76554 0.0
C2314 C 0.64943 0.16211 0.75489 0.0
C2315 C 0.64886 0.1422 0.75012 0.0
C2316 C 0.6297 0.12129 0.75411 0.0
C2317 C 0.61064 0.12041 0.76172 0.0
C2318 C 0.66775 0.14351 0.74026 0.0
C2319 C 0.69111 0.15575 0.74607 0.0
C2320 C 0.66289 0.13332 0.72504 0.0
C2321 C 0.63871 0.12176 0.71767 0.0
C2322 C 0.62888 0.09927 0.71286 0.0
C2323 C 0.60597 0.08828 0.70612 0.0
C2324 C 0.59276 0.09965 0.70407 0.0
C2325 C 0.60247 0.12207 0.70867 0.0
C2326 C 0.62538 0.13316 0.71537 0.0
C2327 C 0.75566 0.13711 0.71324 0.0
C2328 C 0.76132 0.14695 0.69777 0.0
C2329 C 0.73703 0.13662 0.72105 0.0
C2330 C 0.72355 0.14583 0.71357 0.0
C2331 C 0.7284 0.15481 0.69788 0.0
C2332 C 0.74729 0.15553 0.69006 0.0
C2333 C 0.70482 0.14649 0.72245 0.0
C2334 C 0.6815 0.13469 0.71642 0.0
C2335 C 0.70977 0.15763 0.73729 0.0
C2336 C 0.73419 0.17194 0.74373 0.0
C2337 C 0.75096 0.18922 0.7342 0.0
C2338 C 0.77356 0.20327 0.74061 0.0
C2339 C 0.77946 0.2005 0.75665 0.0
C2340 C 0.76286 0.18351 0.76624 0.0
C2341 C 0.74042 0.16915 0.75979 0.0
H2342 H 0.79688 0.21154 0.76164 0.0
H2343 H 0.57501 0.09109 0.69888 0.0
H2344 H 0.85526 0.45976 0.73785 0.0
H2345 H 0.85183 0.49407 0.73248 0.0
H2346 H 0.92669 0.53453 0.74101 0.0
H2347 H 0.93019 0.50002 0.74584 0.0
H2348 H 0.89286 0.55077 0.75383 0.0
H2349 H 0.91559 0.52814 0.70618 0.0
H2350 H 0.9114 0.49954 0.68704 0.0
H2351 H 0.84015 0.48478 0.67524 0.0
H2352 H 0.84379 0.51303 0.69455 0.0
H2353 H 0.89695 0.64802 0.71194 0.0
H2354 H 0.90548 0.61857 0.72348 0.0
H2355 H 0.841 0.56774 0.7012 0.0
H2356 H 0.83287 0.59692 0.68926 0.0
H2357 H 0.87394 0.55866 0.69608 0.0
H2358 H 0.8483 0.57775 0.74344 0.0
H2359 H 0.84834 0.60252 0.7643 0.0
H2360 H 0.92044 0.62179 0.77744 0.0
H2361 H 0.92076 0.59699 0.75673 0.0
C2362 C 0.8709 0.476 0.73864 0.0
C2363 C 0.89303 0.4774 0.74187 0.0
C2364 C 0.86893 0.49552 0.73576 0.0
C2365 C 0.88904 0.51673 0.73628 0.0
C2366 C 0.91099 0.51827 0.74063 0.0
C2367 C 0.91298 0.49866 0.74335 0.0
C2368 C 0.88728 0.5368 0.73029 0.0
C2369 C 0.88912 0.55282 0.74118 0.0
C2370 C 0.88189 0.53903 0.71387 0.0
C2371 C 0.87991 0.52256 0.70189 0.0
C2372 C 0.89898 0.51869 0.69958 0.0
C2373 C 0.89671 0.50256 0.6887 0.0
C2374 C 0.87551 0.49031 0.67996 0.0
C2375 C 0.85656 0.49426 0.68203 0.0
C2376 C 0.85872 0.51034 0.69293 0.0
C2377 C 0.88463 0.63055 0.70952 0.0
C2378 C 0.86438 0.62482 0.69953 0.0
C2379 C 0.88942 0.61372 0.71623 0.0
C2380 C 0.87381 0.59088 0.71331 0.0
C2381 C 0.85341 0.58521 0.70357 0.0
C2382 C 0.84879 0.60196 0.69671 0.0
C2383 C 0.87901 0.57274 0.71964 0.0
C2384 C 0.8779 0.55696 0.70874 0.0
C2385 C 0.8847 0.57063 0.7361 0.0
C2386 C 0.88464 0.58574 0.74842 0.0
C2387 C 0.86421 0.5874 0.75071 0.0
C2388 C 0.86414 0.60137 0.76255 0.0
C2389 C 0.88442 0.6138 0.77214 0.0
C2390 C 0.90476 0.61218 0.76998 0.0
C2391 C 0.90487 0.5981 0.75824 0.0
H2392 H 0.88436 0.62463 0.78129 0.0
H2393 H 0.87377 0.4778 0.67156 0.0
H2394 H 0.49003 0.94284 0.25155 0.0
H2395 H 0.51193 0.95944 0.22718 0.0
H2396 H 0.45996 0.90308 0.19987 0.0
H2397 H 0.43872 0.88609 0.22447 0.0
H2398 H 0.50368 0.91784 0.18875 0.0
H2399 H 0.45483 0.94982 0.2024 0.0
H2400 H 0.44047 0.96835 0.22017 0.0
H2401 H 0.50929 0.02588 0.22325 0.0
H2402 H 0.52416 0.00749 0.2057 0.0
H2403 H 0.49871 0.96539 0.11206 0.0
H2404 H 0.49325 0.947 0.13848 0.0
H2405 H 0.54983 0.00779 0.15856 0.0
H2406 H 0.55577 0.02623 0.13197 0.0
H2407 H 0.50958 0.99245 0.17455 0.0
H2408 H 0.55733 0.96058 0.15853 0.0
H2409 H 0.57024 0.94107 0.14049 0.0
H2410 H 0.50151 0.88337 0.14031 0.0
H2411 H 0.48831 0.90239 0.15858 0.0
C2412 C 0.48379 0.93375 0.24042 0.0
C2413 C 0.46271 0.91338 0.23972 0.0
C2414 C 0.49615 0.94326 0.22651 0.0
C2415 C 0.48734 0.93266 0.21168 0.0
C2416 C 0.46703 0.91157 0.21118 0.0
C2417 C 0.4548 0.902 0.22513 0.0
C2418 C 0.4977 0.9446 0.19649 0.0
C2419 C 0.50496 0.93414 0.18561 0.0
C2420 C 0.49963 0.96599 0.1925 0.0
C2421 C 0.49067 0.97718 0.2029 0.0
C2422 C 0.46694 0.96635 0.20696 0.0
C2423 C 0.4587 0.97683 0.21698 0.0
C2424 C 0.47397 0.99826 0.22287 0.0
C2425 C 0.4975 0.00927 0.21871 0.0
C2426 C 0.50584 0.99882 0.20873 0.0
C2427 C 0.51043 0.97468 0.12199 0.0
C2428 C 0.52771 0.99727 0.11992 0.0
C2429 C 0.5073 0.96412 0.1371 0.0
C2430 C 0.5213 0.97595 0.15045 0.0
C2431 C 0.53892 0.99834 0.14838 0.0
C2432 C 0.54217 0.00889 0.13323 0.0
C2433 C 0.51558 0.96574 0.16676 0.0
C2434 C 0.5089 0.97642 0.17781 0.0
C2435 C 0.51397 0.9445 0.17079 0.0
C2436 C 0.52181 0.93296 0.15984 0.0
C2437 C 0.54496 0.94375 0.15461 0.0
C2438 C 0.55235 0.93274 0.1444 0.0
C2439 C 0.53666 0.91105 0.13917 0.0
C2440 C 0.51363 0.90019 0.14434 0.0
C2441 C 0.50623 0.91101 0.15471 0.0
H2442 H 0.54234 0.90265 0.13113 0.0
H2443 H 0.46757 0.00635 0.23062 0.0
H2444 H 0.03668 0.51127 0.26426 0.0
H2445 H 0.0215 0.49694 0.23708 0.0
H2446 H 0.09265 0.52439 0.22183 0.0
H2447 H 0.10761 0.53853 0.24907 0.0
H2448 H 0.06556 0.53849 0.20273 0.0
H2449 H 0.06023 0.46971 0.22427 0.0
H2450 H 0.04877 0.43802 0.24372 0.0
H2451 H 0.97585 0.41758 0.23274 0.0
H2452 H 0.98688 0.44946 0.21343 0.0
H2453 H 0.0444 0.49614 0.12494 0.0
H2454 H 0.05624 0.50121 0.15339 0.0
H2455 H 0.9842 0.47711 0.16537 0.0
H2456 H 0.97204 0.47172 0.13667 0.0
H2457 H 0.01033 0.46018 0.18634 0.0
H2458 H 0.01631 0.52998 0.16525 0.0
H2459 H 0.02836 0.56197 0.14599 0.0
H2460 H 0.10094 0.5805 0.15643 0.0
H2461 H 0.08931 0.54838 0.17558 0.0
C2462 C 0.04889 0.51366 0.25511 0.0
C2463 C 0.07317 0.52583 0.25852 0.0
C2464 C 0.04031 0.50554 0.23967 0.0
C2465 C 0.05597 0.50964 0.22745 0.0
C2466 C 0.08029 0.52107 0.23109 0.0
C2467 C 0.08882 0.52899 0.24657 0.0
C2468 C 0.04704 0.50376 0.2106 0.0
C2469 C 0.05376 0.52132 0.19911 0.0
C2470 C 0.03111 0.48144 0.20602 0.0
C2471 C 0.02439 0.46214 0.21752 0.0
C2472 C 0.04174 0.4586 0.22611 0.0
C2473 C 0.03533 0.44058 0.23709 0.0
C2474 C 0.0116 0.42583 0.23949 0.0
C2475 C 0.99423 0.42905 0.23088 0.0
C2476 C 1.00055 0.44709 0.21991 0.0
C2477 C 0.03095 0.49149 0.1336 0.0
C2478 C 0.00724 0.48343 0.12854 0.0
C2479 C 0.03779 0.49453 0.14987 0.0
C2480 C 0.02112 0.48962 0.16146 0.0
C2481 C 0.99731 0.48095 0.15657 0.0
C2482 C 0.99043 0.47805 0.1402 0.0
C2483 C 0.02903 0.49492 0.17852 0.0
C2484 C 0.02211 0.47732 0.19002 0.0
C2485 C 0.04485 0.51723 0.18318 0.0
C2486 C 0.05192 0.53663 0.17173 0.0
C2487 C 0.03484 0.54075 0.16333 0.0
C2488 C 0.04159 0.55893 0.15246 0.0
C2489 C 0.0654 0.57323 0.14996 0.0
C2490 C 0.08251 0.5694 0.15836 0.0
C2491 C 0.07584 0.55121 0.16924 0.0
H2492 H 0.0706 0.5873 0.14154 0.0
H2493 H 0.00666 0.41187 0.248 0.0
H2494 H 0.46073 0.52569 0.25874 0.0
H2495 H 0.46321 0.51149 0.23273 0.0
H2496 H 0.42631 0.54454 0.2095 0.0
H2497 H 0.42298 0.55773 0.23574 0.0
H2498 H 0.41545 0.50799 0.19371 0.0
H2499 H 0.48829 0.57033 0.21195 0.0
H2500 H 0.52213 0.5915 0.23067 0.0
H2501 H 0.54083 0.53856 0.23033 0.0
H2502 H 0.5071 0.51709 0.21156 0.0
H2503 H 0.46714 0.52586 0.11667 0.0
H2504 H 0.45433 0.53009 0.14272 0.0
H2505 H 0.48407 0.49035 0.16548 0.0
H2506 H 0.49641 0.48553 0.1395 0.0
H2507 H 0.49746 0.52922 0.1813 0.0
H2508 H 0.42488 0.46889 0.16002 0.0
H2509 H 0.39183 0.45048 0.14018 0.0
H2510 H 0.37322 0.50286 0.1451 0.0
H2511 H 0.40636 0.52176 0.1648 0.0
C2512 C 0.45229 0.52899 0.24813 0.0
C2513 C 0.44132 0.54239 0.24917 0.0
C2514 C 0.45403 0.52125 0.23323 0.0
C2515 C 0.44554 0.52745 0.219 0.0
C2516 C 0.43309 0.53955 0.22022 0.0
C2517 C 0.43101 0.54695 0.23519 0.0
C2518 C 0.4514 0.52305 0.20289 0.0
C2519 C 0.43341 0.51281 0.19096 0.0
C2520 C 0.47481 0.5292 0.19919 0.0
C2521 C 0.49506 0.54202 0.21049 0.0
C2522 C 0.49955 0.56316 0.21594 0.0
C2523 C 0.51872 0.57522 0.22653 0.0
C2524 C 0.53354 0.56632 0.23176 0.0
C2525 C 0.5293 0.54541 0.2263 0.0
C2526 C 0.51021 0.53331 0.21565 0.0
C2527 C 0.47067 0.5177 0.12715 0.0
C2528 C 0.48298 0.50542 0.12588 0.0
C2529 C 0.46333 0.52018 0.14208 0.0
C2530 C 0.4681 0.51044 0.1561 0.0
C2531 C 0.48023 0.49809 0.15486 0.0
C2532 C 0.48745 0.4955 0.13996 0.0
C2533 C 0.46151 0.51397 0.17217 0.0
C2534 C 0.47945 0.52422 0.18407 0.0
C2535 C 0.43814 0.50818 0.17568 0.0
C2536 C 0.41826 0.49686 0.16378 0.0
C2537 C 0.41388 0.4766 0.15677 0.0
C2538 C 0.3951 0.46605 0.14557 0.0
C2539 C 0.38047 0.47552 0.14137 0.0
C2540 C 0.38458 0.49556 0.14836 0.0
C2541 C 0.40335 0.50618 0.15955 0.0
H2542 H 0.36591 0.46731 0.13274 0.0
H2543 H 0.54834 0.57567 0.23999 0.0
H2544 H 0.95093 0.47098 0.76554 0.0
H2545 H 0.96564 0.48441 0.79289 0.0
H2546 H 0.89606 0.47069 0.80473 0.0
H2547 H 0.88148 0.45725 0.77724 0.0
H2548 H 0.933 0.51044 0.81904 0.0
H2549 H 0.91005 0.43201 0.81429 0.0
H2550 H 0.9093 0.3994 0.8016 0.0
H2551 H 0.98402 0.42813 0.80986 0.0
H2552 H 0.98526 0.46104 0.82248 0.0
H2553 H 0.95417 0.50407 0.90403 0.0
H2554 H 0.93706 0.49568 0.87658 0.0
H2555 H 0.00159 0.50082 0.86064 0.0
H2556 H 0.01848 0.50848 0.88806 0.0
H2557 H 0.96437 0.46448 0.84872 0.0
H2558 H 0.98723 0.54318 0.85347 0.0
H2559 H 0.98789 0.5762 0.86543 0.0
H2560 H 0.91317 0.54723 0.85694 0.0
H2561 H 0.91201 0.51386 0.84515 0.0
C2562 C 0.93903 0.47133 0.77397 0.0
C2563 C 0.91517 0.46296 0.76959 0.0
C2564 C 0.94734 0.47893 0.7895 0.0
C2565 C 0.93181 0.47816 0.80086 0.0
C2566 C 0.90826 0.47134 0.79612 0.0
C2567 C 0.89996 0.46371 0.78053 0.0
C2568 C 0.93977 0.48233 0.81797 0.0
C2569 C 0.93958 0.50026 0.82565 0.0
C2570 C 0.94851 0.46909 0.82645 0.0
C2571 C 0.94777 0.44908 0.81921 0.0
C2572 C 0.92634 0.43143 0.81333 0.0
C2573 C 0.92582 0.41289 0.80616 0.0
C2574 C 0.94661 0.41174 0.80487 0.0
C2575 C 0.96794 0.42906 0.81084 0.0
C2576 C 0.96856 0.44765 0.81804 0.0
C2577 C 0.96463 0.50323 0.89469 0.0
C2578 C 0.98772 0.50702 0.89821 0.0
C2579 C 0.95492 0.49866 0.87899 0.0
C2580 C 0.96816 0.49789 0.86653 0.0
C2581 C 0.9911 0.50144 0.87006 0.0
C2582 C 1.00079 0.50599 0.88571 0.0
C2583 C 0.9581 0.49295 0.84983 0.0
C2584 C 0.95775 0.4747 0.84221 0.0
C2585 C 0.94882 0.50588 0.84146 0.0
C2586 C 0.94949 0.5259 0.8486 0.0
C2587 C 0.9709 0.54375 0.8543 0.0
C2588 C 0.97138 0.56255 0.86102 0.0
C2589 C 0.95058 0.56378 0.86199 0.0
C2590 C 0.92926 0.54623 0.85621 0.0
C2591 C 0.92869 0.52737 0.8495 0.0
H2592 H 0.95099 0.57836 0.86718 0.0
H2593 H 0.94617 0.39739 0.79926 0.0
H2594 H 0.55003 0.48032 0.77684 0.0
H2595 H 0.54853 0.49526 0.80262 0.0
H2596 H 0.60981 0.49001 0.82011 0.0
H2597 H 0.61038 0.47397 0.79434 0.0
H2598 H 0.57861 0.4717 0.84103 0.0
H2599 H 0.60921 0.54288 0.81431 0.0
H2600 H 0.61301 0.57085 0.79303 0.0
H2601 H 0.54331 0.55943 0.80093 0.0
H2602 H 0.53893 0.53122 0.82216 0.0
H2603 H 0.5673 0.51311 0.91632 0.0
H2604 H 0.5832 0.51062 0.891 0.0
H2605 H 0.52088 0.50459 0.86514 0.0
H2606 H 0.50478 0.50677 0.89031 0.0
H2607 H 0.56016 0.53354 0.84972 0.0
H2608 H 0.52928 0.45854 0.87421 0.0
H2609 H 0.52685 0.43147 0.89585 0.0
H2610 H 0.60023 0.45214 0.89229 0.0
H2611 H 0.60319 0.47966 0.87083 0.0
C2612 C 0.56365 0.48319 0.78602 0.0
C2613 C 0.58059 0.47646 0.78354 0.0
C2614 C 0.56284 0.49174 0.8008 0.0
C2615 C 0.57921 0.49408 0.81343 0.0
C2616 C 0.597 0.48849 0.81062 0.0
C2617 C 0.59762 0.47968 0.79582 0.0
C2618 C 0.576 0.49992 0.82991 0.0
C2619 C 0.57517 0.48561 0.84295 0.0
C2620 C 0.57116 0.51784 0.83257 0.0
C2621 C 0.5737 0.53482 0.81979 0.0
C2622 C 0.59462 0.54621 0.81145 0.0
C2623 C 0.59689 0.56213 0.7994 0.0
C2624 C 0.57841 0.56686 0.79561 0.0
C2625 C 0.55762 0.55574 0.80388 0.0
C2626 C 0.55525 0.53982 0.81595 0.0
C2627 C 0.55687 0.51107 0.90527 0.0
C2628 C 0.53469 0.51015 0.90545 0.0
C2629 C 0.56605 0.50974 0.89076 0.0
C2630 C 0.55322 0.50732 0.8761 0.0
C2631 C 0.53123 0.50661 0.87624 0.0
C2632 C 0.52205 0.50792 0.8907 0.0
C2633 C 0.56222 0.50501 0.86058 0.0
C2634 C 0.56409 0.51995 0.84777 0.0
C2635 C 0.56831 0.48787 0.85817 0.0
C2636 C 0.5665 0.4713 0.87104 0.0
C2637 C 0.54494 0.45744 0.87814 0.0
C2638 C 0.54347 0.44202 0.89037 0.0
C2639 C 0.5634 0.44015 0.89549 0.0
C2640 C 0.58483 0.45366 0.88835 0.0
C2641 C 0.58642 0.46918 0.87616 0.0
H2642 H 0.56223 0.42819 0.90496 0.0
H2643 H 0.58021 0.57919 0.78627 0.0
H2644 H 0.55054 0.08438 0.78782 0.0
H2645 H 0.55275 0.06304 0.8117 0.0
H2646 H 0.6174 0.12066 0.82749 0.0
H2647 H 0.61451 0.14223 0.80363 0.0
H2648 H 0.5791 0.04882 0.82841 0.0
H2649 H 0.61432 0.1263 0.86708 0.0
H2650 H 0.61968 0.16506 0.86612 0.0
H2651 H 0.55877 0.14418 0.83414 0.0
H2652 H 0.55298 0.10529 0.83503 0.0
H2653 H 0.55916 0.00691 0.91094 0.0
H2654 H 0.57915 0.02803 0.88683 0.0
H2655 H 0.52776 0.05126 0.87914 0.0
H2656 H 0.50798 0.03046 0.90313 0.0
H2657 H 0.5708 0.08525 0.87617 0.0
H2658 H 0.52618 0.00819 0.85731 0.0
H2659 H 0.51543 0.96789 0.85742 0.0
H2660 H 0.58677 0.98524 0.84859 0.0
H2661 H 0.59799 0.02568 0.84862 0.0
C2662 C 0.56551 0.09217 0.79622 0.0
C2663 C 0.58209 0.1149 0.79423 0.0
C2664 C 0.5669 0.07999 0.80979 0.0
C2665 C 0.58498 0.09039 0.82158 0.0
C2666 C 0.60309 0.11242 0.81867 0.0
C2667 C 0.60155 0.12469 0.80507 0.0
C2668 C 0.58222 0.07941 0.83773 0.0
C2669 C 0.57777 0.05692 0.83896 0.0
C2670 C 0.58025 0.08984 0.85148 0.0
C2671 C 0.58344 0.11306 0.85095 0.0
C2672 C 0.60209 0.13003 0.85986 0.0
C2673 C 0.6052 0.15199 0.85932 0.0
C2674 C 0.58963 0.1571 0.85001 0.0
C2675 C 0.57086 0.14023 0.84128 0.0
C2676 C 0.56767 0.11824 0.84179 0.0
C2677 C 0.55206 0.01637 0.90398 0.0
C2678 C 0.53208 0.01714 0.90892 0.0
C2679 C 0.56353 0.02847 0.89027 0.0
C2680 C 0.555 0.04129 0.88123 0.0
C2681 C 0.53483 0.04171 0.88604 0.0
C2682 C 0.52351 0.0298 0.89973 0.0
C2683 C 0.56671 0.05439 0.86668 0.0
C2684 C 0.57298 0.07735 0.86582 0.0
C2685 C 0.56972 0.04417 0.8532 0.0
C2686 C 0.56298 0.01991 0.85318 0.0
C2687 C 0.53961 0.0034 0.85553 0.0
C2688 C 0.53342 0.98054 0.85554 0.0
C2689 C 0.55043 0.97401 0.85307 0.0
C2690 C 0.57363 0.99032 0.85054 0.0
C2691 C 0.57991 0.01321 0.85054 0.0
H2692 H 0.54561 0.9563 0.85308 0.0
H2693 H 0.59208 0.17412 0.8496 0.0
H2694 H 0.12106 0.20227 0.56078 0.0
H2695 H 0.1408 0.22291 0.53641 0.0
H2696 H 0.1389 0.28194 0.55222 0.0
H2697 H 0.11976 0.2614 0.57665 0.0
H2698 H 0.12265 0.23911 0.51338 0.0
H2699 H 0.18468 0.32918 0.53756 0.0
H2700 H 0.20926 0.34643 0.56195 0.0
H2701 H 0.21514 0.28647 0.57233 0.0
H2702 H 0.19097 0.26901 0.54786 0.0
H2703 H 0.14326 0.32227 0.45353 0.0
H2704 H 0.13452 0.30058 0.47883 0.0
H2705 H 0.20485 0.30881 0.48229 0.0
H2706 H 0.21386 0.33091 0.45711 0.0
H2707 H 0.19183 0.31539 0.51094 0.0
H2708 H 0.1605 0.25847 0.47122 0.0
H2709 H 0.13733 0.23759 0.44737 0.0
H2710 H 0.07389 0.22795 0.46791 0.0
H2711 H 0.09672 0.24878 0.49193 0.0
C2712 C 0.12531 0.21976 0.55906 0.0
C2713 C 0.1187 0.23028 0.57028 0.0
C2714 C 0.13644 0.23149 0.5452 0.0
C2715 C 0.14132 0.25395 0.54252 0.0
C2716 C 0.13552 0.2647 0.55411 0.0
C2717 C 0.12441 0.25297 0.56794 0.0
C2718 C 0.15067 0.26565 0.52706 0.0
C2719 C 0.13786 0.25573 0.51284 0.0
C2720 C 0.17079 0.28713 0.52635 0.0
C2721 C 0.18584 0.29773 0.54091 0.0
C2722 C 0.19135 0.31973 0.54498 0.0
C2723 C 0.2052 0.32954 0.55883 0.0
C2724 C 0.21371 0.31754 0.5687 0.0
C2725 C 0.20848 0.29573 0.5647 0.0
C2726 C 0.19469 0.28586 0.55084 0.0
C2727 C 0.15695 0.3197 0.45978 0.0
C2728 C 0.17924 0.32828 0.45335 0.0
C2729 C 0.15186 0.30711 0.47413 0.0
C2730 C 0.16895 0.30285 0.48231 0.0
C2731 C 0.19139 0.31181 0.47612 0.0
C2732 C 0.19646 0.32433 0.46171 0.0
C2733 C 0.16331 0.28912 0.49737 0.0
C2734 C 0.17677 0.29868 0.51149 0.0
C2735 C 0.14405 0.26709 0.49798 0.0
C2736 C 0.13034 0.25532 0.48331 0.0
C2737 C 0.14164 0.2521 0.47058 0.0
C2738 C 0.12854 0.2402 0.45705 0.0
C2739 C 0.10414 0.23147 0.45611 0.0
C2740 C 0.09279 0.23471 0.46866 0.0
C2741 C 0.10579 0.2465 0.48225 0.0
H2742 H 0.09397 0.2221 0.4457 0.0
H2743 H 0.22439 0.32515 0.57943 0.0
H2744 H 0.79262 0.86955 0.57546 0.0
H2745 H 0.77697 0.85266 0.54897 0.0
H2746 H 0.70956 0.84663 0.55884 0.0
H2747 H 0.7252 0.86312 0.5853 0.0
H2748 H 0.70444 0.8113 0.54135 0.0
H2749 H 0.7495 0.89269 0.54008 0.0
H2750 H 0.78501 0.92909 0.545 0.0
H2751 H 0.82401 0.91013 0.51498 0.0
H2752 H 0.78877 0.87342 0.51009 0.0
H2753 H 0.65425 0.82756 0.46779 0.0
H2754 H 0.6718 0.82929 0.49474 0.0
H2755 H 0.73294 0.83206 0.47467 0.0
H2756 H 0.71528 0.82983 0.44757 0.0
H2757 H 0.74444 0.8648 0.49665 0.0
H2758 H 0.6957 0.78519 0.49443 0.0
H2759 H 0.65908 0.74971 0.48955 0.0
H2760 H 0.62572 0.76599 0.52591 0.0
H2761 H 0.66203 0.80174 0.53085 0.0
C2762 C 0.7743 0.86391 0.57206 0.0
C2763 C 0.76005 0.86768 0.58216 0.0
C2764 C 0.76541 0.85443 0.55697 0.0
C2765 C 0.74219 0.84872 0.55185 0.0
C2766 C 0.7275 0.85092 0.56252 0.0
C2767 C 0.7364 0.86039 0.57755 0.0
C2768 C 0.73389 0.84302 0.53488 0.0
C2769 C 0.71315 0.82295 0.53156 0.0
C2770 C 0.7455 0.8581 0.52208 0.0
C2771 C 0.76661 0.88022 0.52489 0.0
C2772 C 0.7657 0.89622 0.53463 0.0
C2773 C 0.78576 0.91691 0.5374 0.0
C2774 C 0.80677 0.92189 0.53035 0.0
C2775 C 0.80774 0.90622 0.52047 0.0
C2776 C 0.78773 0.88547 0.51769 0.0
C2777 C 0.67122 0.82807 0.46907 0.0
C2778 C 0.68332 0.82853 0.45547 0.0
C2779 C 0.68125 0.82909 0.48451 0.0
C2780 C 0.70357 0.83057 0.48672 0.0
C2781 C 0.71567 0.83089 0.47322 0.0
C2782 C 0.7056 0.82976 0.45775 0.0
C2783 C 0.71474 0.8332 0.5031 0.0
C2784 C 0.73598 0.85281 0.50634 0.0
C2785 C 0.70345 0.81779 0.51581 0.0
C2786 C 0.68158 0.79624 0.51294 0.0
C2787 C 0.68051 0.78129 0.50131 0.0
C2788 C 0.65981 0.76111 0.49855 0.0
C2789 C 0.64007 0.75562 0.5074 0.0
C2790 C 0.64102 0.77027 0.51906 0.0
C2791 C 0.66167 0.79049 0.52186 0.0
H2792 H 0.62406 0.73999 0.50524 0.0
H2793 H 0.82229 0.93792 0.53251 0.0
H2794 H 0.11876 0.86562 0.59 0.0
H2795 H 0.12079 0.84917 0.56481 0.0
H2796 H 0.08867 0.88478 0.53877 0.0
H2797 H 0.08663 0.90105 0.56408 0.0
H2798 H 0.07456 0.84215 0.52599 0.0
H2799 H 0.14651 0.90891 0.5405 0.0
H2800 H 0.18023 0.93298 0.55841 0.0
H2801 H 0.20129 0.88156 0.56266 0.0
H2802 H 0.1677 0.8572 0.54471 0.0
H2803 H 0.11937 0.8469 0.44875 0.0
H2804 H 0.10805 0.8552 0.474 0.0
H2805 H 0.14874 0.82849 0.50054 0.0
H2806 H 0.16126 0.82141 0.47543 0.0
H2807 H 0.15702 0.8657 0.51322 0.0
H2808 H 0.08605 0.79978 0.49659 0.0
H2809 H 0.0527 0.77665 0.47809 0.0
H2810 H 0.02929 0.82633 0.47759 0.0
H2811 H 0.06269 0.84991 0.49593 0.0
C2812 C 0.1114 0.86919 0.57894 0.0
C2813 C 0.10247 0.88442 0.57883 0.0
C2814 C 0.11273 0.86001 0.56456 0.0
C2815 C 0.10522 0.86603 0.54984 0.0
C2816 C 0.09458 0.87989 0.54995 0.0
C2817 C 0.09332 0.88911 0.56435 0.0
C2818 C 0.11082 0.85993 0.53433 0.0
C2819 C 0.09258 0.84739 0.52311 0.0
C2820 C 0.1343 0.86659 0.53062 0.0
C2821 C 0.15449 0.88117 0.5414 0.0
C2822 C 0.15825 0.90269 0.54533 0.0
C2823 C 0.17736 0.9164 0.55547 0.0
C2824 C 0.1928 0.90875 0.56175 0.0
C2825 C 0.18928 0.88744 0.55782 0.0
C2826 C 0.17026 0.87371 0.54762 0.0
C2827 C 0.12611 0.84296 0.45994 0.0
C2828 C 0.14127 0.83342 0.45994 0.0
C2829 C 0.11931 0.84742 0.47442 0.0
C2830 C 0.1272 0.84217 0.48927 0.0
C2831 C 0.14226 0.83261 0.48929 0.0
C2832 C 0.14924 0.82835 0.47485 0.0
C2833 C 0.12075 0.84751 0.50481 0.0
C2834 C 0.13892 0.86014 0.51606 0.0
C2835 C 0.09719 0.84093 0.50846 0.0
C2836 C 0.07701 0.82671 0.49751 0.0
C2837 C 0.07389 0.80585 0.49245 0.0
C2838 C 0.05496 0.79264 0.482 0.0
C2839 C 0.03892 0.80005 0.47663 0.0
C2840 C 0.04174 0.82063 0.48174 0.0
C2841 C 0.06065 0.83391 0.49217 0.0
H2842 H 0.02429 0.78981 0.46854 0.0
H2843 H 0.20756 0.91937 0.56962 0.0
H2844 H 0.54678 0.80077 0.11502 0.0
H2845 H 0.56319 0.81766 0.14146 0.0
H2846 H 0.62952 0.8216 0.13107 0.0
H2847 H 0.61298 0.80466 0.10488 0.0
H2848 H 0.61267 0.7991 0.15885 0.0
H2849 H 0.62329 0.86818 0.13285 0.0
H2850 H 0.61027 0.89254 0.11747 0.0
H2851 H 0.56407 0.88509 0.15481 0.0
H2852 H 0.57644 0.86025 0.17027 0.0
H2853 H 0.68748 0.85605 0.22336 0.0
H2854 H 0.66971 0.84891 0.19619 0.0
H2855 H 0.60667 0.84564 0.21333 0.0
H2856 H 0.62468 0.85358 0.24061 0.0
H2857 H 0.61857 0.86745 0.18305 0.0
H2858 H 0.60699 0.79821 0.20866 0.0
H2859 H 0.61886 0.77296 0.224 0.0
H2860 H 0.66556 0.78004 0.1871 0.0
H2861 H 0.65421 0.80562 0.17164 0.0
C2862 C 0.56499 0.8058 0.11836 0.0
C2863 C 0.57871 0.80141 0.10817 0.0
C2864 C 0.57435 0.8154 0.13338 0.0
C2865 C 0.59756 0.82079 0.13824 0.0
C2866 C 0.61155 0.81746 0.1276 0.0
C2867 C 0.6022 0.80786 0.1127 0.0
C2868 C 0.60674 0.82774 0.1549 0.0
C2869 C 0.61422 0.81422 0.16404 0.0
C2870 C 0.6079 0.84698 0.16187 0.0
C2871 C 0.60061 0.86212 0.15265 0.0
C2872 C 0.61018 0.87154 0.13772 0.0
C2873 C 0.60294 0.88546 0.12899 0.0
C2874 C 0.58631 0.89032 0.13514 0.0
C2875 C 0.57692 0.88128 0.15005 0.0
C2876 C 0.58404 0.86727 0.1588 0.0
C2877 C 0.67002 0.85429 0.22135 0.0
C2878 C 0.65745 0.85523 0.2342 0.0
C2879 C 0.65984 0.85008 0.20581 0.0
C2880 C 0.63678 0.8465 0.20279 0.0
C2881 C 0.62447 0.84832 0.21543 0.0
C2882 C 0.63469 0.85258 0.23102 0.0
C2883 C 0.62511 0.83912 0.1867 0.0
C2884 C 0.61697 0.85237 0.17778 0.0
C2885 C 0.62316 0.81951 0.17986 0.0
C2886 C 0.6299 0.80398 0.18906 0.0
C2887 C 0.61992 0.79451 0.20387 0.0
C2888 C 0.62653 0.78012 0.21258 0.0
C2889 C 0.643 0.77494 0.20654 0.0
C2890 C 0.65283 0.78409 0.19177 0.0
C2891 C 0.64629 0.79852 0.18302 0.0
H2892 H 0.6481 0.7638 0.2133 0.0
H2893 H 0.58078 0.90114 0.12837 0.0
H2894 H 0.24957 0.78161 0.12953 0.0
H2895 H 0.24602 0.79389 0.15595 0.0
H2896 H 0.22925 0.84323 0.13293 0.0
H2897 H 0.2324 0.83041 0.10644 0.0
H2898 H 0.2628 0.82976 0.17444 0.0
H2899 H 0.1848 0.84329 0.15209 0.0
H2900 H 0.15477 0.83195 0.12982 0.0
H2901 H 0.15835 0.77071 0.12491 0.0
H2902 H 0.18827 0.78163 0.14723 0.0
H2903 H 0.22324 0.86498 0.24077 0.0
H2904 H 0.23685 0.86245 0.21455 0.0
H2905 H 0.17682 0.79671 0.20819 0.0
H2906 H 0.16269 0.79944 0.23409 0.0
H2907 H 0.18318 0.82061 0.18129 0.0
H2908 H 0.23232 0.80408 0.21864 0.0
H2909 H 0.26022 0.81137 0.24188 0.0
H2910 H 0.31142 0.87122 0.21833 0.0
H2911 H 0.28364 0.86452 0.19506 0.0
C2912 C 0.24602 0.79565 0.1302 0.0
C2913 C 0.24134 0.80515 0.11603 0.0
C2914 C 0.24387 0.80262 0.14529 0.0
C2915 C 0.23687 0.8192 0.14653 0.0
C2916 C 0.23428 0.83014 0.13234 0.0
C2917 C 0.2364 0.82308 0.11721 0.0
C2918 C 0.22981 0.82302 0.1624 0.0
C2919 C 0.24549 0.82801 0.17589 0.0
C2920 C 0.20702 0.82022 0.16452 0.0
C2921 C 0.18894 0.81341 0.15118 0.0
C2922 C 0.17914 0.8274 0.14626 0.0
C2923 C 0.16216 0.82105 0.13363 0.0
C2924 C 0.15474 0.80067 0.12591 0.0
C2925 C 0.16421 0.78654 0.13085 0.0
C2926 C 0.1812 0.79282 0.14347 0.0
C2927 C 0.21282 0.85003 0.23375 0.0
C2928 C 0.19181 0.83241 0.23963 0.0
C2929 C 0.22077 0.84853 0.21879 0.0
C2930 C 0.20799 0.82932 0.20935 0.0
C2931 C 0.18704 0.81173 0.21519 0.0
C2932 C 0.17909 0.81321 0.23013 0.0
C2933 C 0.2162 0.82751 0.19333 0.0
C2934 C 0.20067 0.82279 0.17983 0.0
C2935 C 0.23893 0.83007 0.19132 0.0
C2936 C 0.2558 0.83393 0.20518 0.0
C2937 C 0.24947 0.81889 0.21846 0.0
C2938 C 0.26526 0.8229 0.23164 0.0
C2939 C 0.28756 0.84177 0.2316 0.0
C2940 C 0.29413 0.85663 0.21835 0.0
C2941 C 0.27836 0.85273 0.20517 0.0
H2942 H 0.29976 0.84486 0.24181 0.0
H2943 H 0.1416 0.79579 0.11613 0.0
H2944 H 0.24348 0.42026 0.11266 0.0
H2945 H 0.23797 0.39568 0.13648 0.0
H2946 H 0.25453 0.45164 0.16708 0.0
H2947 H 0.26018 0.47607 0.14321 0.0
H2948 H 0.27083 0.42296 0.18043 0.0
H2949 H 0.19853 0.41823 0.15593 0.0
H2950 H 0.16945 0.41158 0.13351 0.0
H2951 H 0.15988 0.34473 0.12849 0.0
H2952 H 0.18898 0.35103 0.15085 0.0
H2953 H 0.20707 0.378 0.25004 0.0
H2954 H 0.22387 0.39779 0.2251 0.0
H2955 H 0.19517 0.33433 0.20093 0.0
H2956 H 0.17704 0.31439 0.22571 0.0
H2957 H 0.18772 0.3631 0.183 0.0
H2958 H 0.25547 0.36607 0.21111 0.0
H2959 H 0.28356 0.37301 0.23419 0.0
H2960 H 0.30179 0.44303 0.23282 0.0
H2961 H 0.27367 0.43652 0.20985 0.0
C2962 C 0.24686 0.42737 0.12452 0.0
C2963 C 0.25238 0.44991 0.12629 0.0
C2964 C 0.24351 0.41336 0.13807 0.0
C2965 C 0.24554 0.42179 0.15352 0.0
C2966 C 0.25292 0.44481 0.15528 0.0
C2967 C 0.25619 0.45875 0.14172 0.0
C2968 C 0.23721 0.40635 0.16767 0.0
C2969 C 0.25268 0.40985 0.18104 0.0
C2970 C 0.21363 0.389 0.16831 0.0
C2971 C 0.19611 0.38518 0.15491 0.0
C2972 C 0.19033 0.40217 0.14997 0.0
C2973 C 0.17383 0.39846 0.13729 0.0
C2974 C 0.16293 0.3778 0.12952 0.0
C2975 C 0.1684 0.36075 0.13448 0.0
C2976 C 0.18485 0.36436 0.14717 0.0
C2977 C 0.20404 0.3682 0.2394 0.0
C2978 C 0.19055 0.34456 0.2399 0.0
C2979 C 0.21404 0.37955 0.22518 0.0
C2980 C 0.2112 0.36754 0.21119 0.0
C2981 C 0.19777 0.34395 0.21161 0.0
C2982 C 0.18755 0.33256 0.22582 0.0
C2983 C 0.22125 0.37979 0.19596 0.0
C2984 C 0.20604 0.37579 0.18236 0.0
C2985 C 0.24507 0.39666 0.19515 0.0
C2986 C 0.26234 0.40076 0.2088 0.0
C2987 C 0.2654 0.38294 0.21578 0.0
C2988 C 0.28135 0.38681 0.22884 0.0
C2989 C 0.29444 0.40846 0.23499 0.0
C2990 C 0.29167 0.42629 0.22804 0.0
C2991 C 0.27576 0.42253 0.21498 0.0
H2992 H 0.30675 0.41142 0.24512 0.0
H2993 H 0.15019 0.37497 0.1197 0.0
H2994 H 0.83518 0.61223 0.92171 0.0
H2995 H 0.85589 0.62853 0.89683 0.0
H2996 H 0.80621 0.5691 0.87128 0.0
H2997 H 0.78608 0.55258 0.89631 0.0
H2998 H 0.8501 0.58694 0.85914 0.0
H2999 H 0.79577 0.61243 0.87293 0.0
H3000 H 0.77918 0.62896 0.89066 0.0
H3001 H 0.84466 0.69058 0.89204 0.0
H3002 H 0.86177 0.67424 0.87452 0.0
H3003 H 0.84011 0.63013 0.78131 0.0
H3004 H 0.83519 0.61252 0.80801 0.0
H3005 H 0.888 0.67556 0.8278 0.0
H3006 H 0.89344 0.69324 0.801 0.0
H3007 H 0.84729 0.65746 0.84376 0.0
H3008 H 0.89992 0.63201 0.82694 0.0
H3009 H 0.91464 0.61451 0.80856 0.0
H3010 H 0.85015 0.55226 0.81143 0.0
H3011 H 0.83502 0.5694 0.82985 0.0
C3012 C 0.82923 0.60245 0.91085 0.0
C3013 C 0.8089 0.58142 0.91072 0.0
C3014 C 0.84094 0.61175 0.89667 0.0
C3015 C 0.83228 0.6002 0.88215 0.0
C3016 C 0.81311 0.57835 0.88232 0.0
C3017 C 0.8015 0.56902 0.89653 0.0
C3018 C 0.84114 0.61188 0.86658 0.0
C3019 C 0.84947 0.60233 0.85574 0.0
C3020 C 0.84047 0.63207 0.86221 0.0
C3021 C 0.83013 0.64203 0.87257 0.0
C3022 C 0.80668 0.62945 0.8771 0.0
C3023 C 0.79718 0.63878 0.88711 0.0
C3024 C 0.81088 0.66079 0.89251 0.0
C3025 C 0.83409 0.67352 0.88787 0.0
C3026 C 0.8437 0.66423 0.87791 0.0
C3027 C 0.8511 0.64014 0.79125 0.0
C3028 C 0.86716 0.66312 0.78901 0.0
C3029 C 0.84825 0.63004 0.80653 0.0
C3030 C 0.86135 0.6427 0.81987 0.0
C3031 C 0.87774 0.6655 0.81764 0.0
C3032 C 0.88071 0.6756 0.80235 0.0
C3033 C 0.85637 0.63262 0.83628 0.0
C3034 C 0.84846 0.64235 0.84725 0.0
C3035 C 0.85719 0.61251 0.84063 0.0
C3036 C 0.86629 0.60204 0.8297 0.0
C3037 C 0.88884 0.61461 0.8236 0.0
C3038 C 0.89728 0.60474 0.81321 0.0
C3039 C 0.88332 0.58231 0.80879 0.0
C3040 C 0.86094 0.56964 0.81486 0.0
C3041 C 0.85246 0.5794 0.82533 0.0
H3042 H 0.88984 0.57474 0.80066 0.0
H3043 H 0.8035 0.66799 0.90025 0.0
H3044 H 0.38825 0.19914 0.91939 0.0
H3045 H 0.37516 0.18512 0.89207 0.0
H3046 H 0.44526 0.19745 0.88304 0.0
H3047 H 0.45833 0.21196 0.91043 0.0
H3048 H 0.42927 0.21532 0.85946 0.0
H3049 H 0.40026 0.14392 0.88528 0.0
H3050 H 0.37973 0.11428 0.90564 0.0
H3051 H 0.31428 0.11226 0.89049 0.0
H3052 H 0.33448 0.1422 0.87021 0.0
H3053 H 0.38648 0.17126 0.78077 0.0
H3054 H 0.40359 0.17509 0.80817 0.0
H3055 H 0.34046 0.16997 0.82665 0.0
H3056 H 0.32338 0.16652 0.79936 0.0
H3057 H 0.35683 0.14498 0.84486 0.0
H3058 H 0.3886 0.22096 0.82201 0.0
H3059 H 0.4098 0.25045 0.80166 0.0
H3060 H 0.47123 0.24242 0.8112 0.0
H3061 H 0.45029 0.21271 0.83152 0.0
C3062 C 0.40068 0.19849 0.91159 0.0
C3063 C 0.42423 0.20665 0.91683 0.0
C3064 C 0.39323 0.19039 0.89604 0.0
C3065 C 0.40921 0.19014 0.88547 0.0
C3066 C 0.43262 0.19748 0.89096 0.0
C3067 C 0.44004 0.20556 0.90658 0.0
C3068 C 0.40169 0.18387 0.8684 0.0
C3069 C 0.41374 0.19969 0.85626 0.0
C3070 C 0.38127 0.1636 0.86417 0.0
C3071 C 0.36894 0.14544 0.87627 0.0
C3072 C 0.38151 0.13729 0.88636 0.0
C3073 C 0.36993 0.12041 0.89788 0.0
C3074 C 0.34572 0.11141 0.89937 0.0
C3075 C 0.33304 0.11925 0.88932 0.0
C3076 C 0.34455 0.13617 0.87779 0.0
C3077 C 0.37626 0.17106 0.79064 0.0
C3078 C 0.35354 0.16866 0.7878 0.0
C3079 C 0.38604 0.17314 0.80632 0.0
C3080 C 0.37336 0.17295 0.81947 0.0
C3081 C 0.35052 0.17003 0.81671 0.0
C3082 C 0.34075 0.168 0.80106 0.0
C3083 C 0.38407 0.17668 0.83608 0.0
C3084 C 0.3726 0.1604 0.8481 0.0
C3085 C 0.40513 0.19642 0.84019 0.0
C3086 C 0.41782 0.21448 0.82816 0.0
C3087 C 0.40659 0.2254 0.8197 0.0
C3088 C 0.41856 0.24217 0.80819 0.0
C3089 C 0.44183 0.24827 0.80512 0.0
C3090 C 0.4532 0.23766 0.81359 0.0
C3091 C 0.4413 0.22088 0.82511 0.0
H3092 H 0.45107 0.26126 0.79621 0.0
H3093 H 0.33678 0.09834 0.9083 0.0
H3094 H 0.78183 0.18151 0.92497 0.0
H3095 H 0.78269 0.1661 0.89911 0.0
H3096 H 0.76728 0.21541 0.87446 0.0
H3097 H 0.76482 0.22957 0.90046 0.0
H3098 H 0.74911 0.18023 0.85712 0.0
H3099 H 0.82548 0.22366 0.88244 0.0
H3100 H 0.85653 0.2343 0.90395 0.0
H3101 H 0.85326 0.16951 0.90166 0.0
H3102 H 0.82207 0.15843 0.88019 0.0
H3103 H 0.81016 0.19324 0.78513 0.0
H3104 H 0.79746 0.19883 0.81084 0.0
H3105 H 0.80114 0.14062 0.83093 0.0
H3106 H 0.81311 0.13452 0.80509 0.0
H3107 H 0.8234 0.17781 0.85042 0.0
H3108 H 0.74863 0.13775 0.8215 0.0
H3109 H 0.71996 0.13117 0.79885 0.0
H3110 H 0.72325 0.195 0.8066 0.0
H3111 H 0.75222 0.20213 0.82914 0.0
C3112 C 0.77735 0.18813 0.91404 0.0
C3113 C 0.77257 0.20624 0.91465 0.0
C3114 C 0.7784 0.17973 0.89922 0.0
C3115 C 0.77569 0.18995 0.88471 0.0
C3116 C 0.76948 0.20718 0.88538 0.0
C3117 C 0.76793 0.21521 0.90022 0.0
C3118 C 0.78128 0.18415 0.86899 0.0
C3119 C 0.76544 0.17986 0.85567 0.0
C3120 C 0.80255 0.18354 0.86694 0.0
C3121 C 0.82128 0.19013 0.87984 0.0
C3122 C 0.83129 0.21164 0.88659 0.0
C3123 C 0.84893 0.21775 0.89876 0.0
C3124 C 0.85679 0.20256 0.90421 0.0
C3125 C 0.84711 0.18124 0.89745 0.0
C3126 C 0.82948 0.17505 0.88527 0.0
C3127 C 0.80779 0.18135 0.79492 0.0
C3128 C 0.81237 0.16327 0.79295 0.0
C3129 C 0.80064 0.18463 0.80964 0.0
C3130 C 0.79807 0.17 0.8228 0.0
C3131 C 0.80292 0.15209 0.82095 0.0
C3132 C 0.80988 0.14869 0.80618 0.0
C3133 C 0.79124 0.17387 0.83864 0.0
C3134 C 0.80695 0.17793 0.85195 0.0
C3135 C 0.77017 0.17485 0.84053 0.0
C3136 C 0.75272 0.17053 0.82696 0.0
C3137 C 0.74338 0.15046 0.81831 0.0
C3138 C 0.72704 0.14662 0.8055 0.0
C3139 C 0.71976 0.16264 0.80131 0.0
C3140 C 0.72887 0.18258 0.80988 0.0
C3141 C 0.74523 0.18653 0.82268 0.0
H3142 H 0.70706 0.15961 0.79143 0.0
H3143 H 0.87044 0.20732 0.91364 0.0
H3144 H 0.20797 0.12118 0.45111 0.0
H3145 H 0.22796 0.13797 0.47685 0.0
H3146 H 0.29416 0.15054 0.45854 0.0
H3147 H 0.27393 0.13351 0.43296 0.0
H3148 H 0.28704 0.12888 0.48666 0.0
H3149 H 0.28206 0.19328 0.46544 0.0
H3150 H 0.26275 0.21444 0.45321 0.0
H3151 H 0.21971 0.19817 0.49404 0.0
H3152 H 0.2384 0.17649 0.50639 0.0
H3153 H 0.35869 0.18788 0.55366 0.0
H3154 H 0.34095 0.17985 0.52643 0.0
H3155 H 0.27347 0.16293 0.54467 0.0
H3156 H 0.29122 0.17143 0.57191 0.0
H3157 H 0.28204 0.1883 0.51637 0.0
H3158 H 0.28522 0.12185 0.5364 0.0
H3159 H 0.30441 0.10053 0.54855 0.0
H3160 H 0.351 0.12104 0.50941 0.0
H3161 H 0.33229 0.14276 0.49715 0.0
C3162 C 0.22684 0.12799 0.45261 0.0
C3163 C 0.23954 0.12602 0.44032 0.0
C3164 C 0.23826 0.13758 0.46722 0.0
C3165 C 0.26259 0.14551 0.46964 0.0
C3166 C 0.27539 0.14444 0.45699 0.0
C3167 C 0.26394 0.13483 0.44242 0.0
C3168 C 0.27436 0.15316 0.48571 0.0
C3169 C 0.28629 0.14217 0.49301 0.0
C3170 C 0.27283 0.17006 0.4942 0.0
C3171 C 0.26153 0.18309 0.4868 0.0
C3172 C 0.26833 0.19403 0.47176 0.0
C3173 C 0.25753 0.20615 0.46481 0.0
C3174 C 0.24006 0.20768 0.47286 0.0
C3175 C 0.23329 0.197 0.48784 0.0
C3176 C 0.24398 0.18479 0.49482 0.0
C3177 C 0.34014 0.18274 0.55188 0.0
C3178 C 0.32637 0.18025 0.56501 0.0
C3179 C 0.32999 0.17802 0.53631 0.0
C3180 C 0.30585 0.17063 0.53353 0.0
C3181 C 0.29214 0.16861 0.54653 0.0
C3182 C 0.30227 0.17326 0.56212 0.0
C3183 C 0.29476 0.16408 0.51718 0.0
C3184 C 0.28289 0.17516 0.5099 0.0
C3185 C 0.29632 0.14726 0.50864 0.0
C3186 C 0.30751 0.13412 0.51595 0.0
C3187 C 0.29968 0.12196 0.53045 0.0
C3188 C 0.31045 0.10978 0.53735 0.0
C3189 C 0.32895 0.10948 0.52978 0.0
C3190 C 0.33669 0.12131 0.51527 0.0
C3191 C 0.32599 0.13355 0.50834 0.0
H3192 H 0.33727 0.10003 0.53513 0.0
H3193 H 0.23178 0.21715 0.4675 0.0
H3194 H 0.89076 0.15735 0.44275 0.0
H3195 H 0.8861 0.16796 0.46945 0.0
H3196 H 0.92322 0.13401 0.49083 0.0
H3197 H 0.92706 0.12287 0.46395 0.0
H3198 H 0.88478 0.12013 0.50538 0.0
H3199 H 0.94515 0.19355 0.49222 0.0
H3200 H 0.96605 0.22817 0.47581 0.0
H3201 H 0.90746 0.24108 0.47722 0.0
H3202 H 0.88603 0.20634 0.49344 0.0
H3203 H 0.87623 0.15275 0.58436 0.0
H3204 H 0.89246 0.15003 0.55932 0.0
H3205 H 0.84826 0.17235 0.53244 0.0
H3206 H 0.83138 0.17448 0.55729 0.0
H3207 H 0.8943 0.19364 0.52209 0.0
H3208 H 0.83347 0.11798 0.53382 0.0
H3209 H 0.81396 0.08409 0.55118 0.0
H3210 H 0.87608 0.07638 0.55319 0.0
H3211 H 0.89612 0.11049 0.53607 0.0
C3212 C 0.89886 0.15314 0.45313 0.0
C3213 C 0.90977 0.13982 0.45132 0.0
C3214 C 0.89607 0.15904 0.46845 0.0
C3215 C 0.90438 0.15193 0.48234 0.0
C3216 C 0.91661 0.13975 0.48041 0.0
C3217 C 0.9192 0.13371 0.46505 0.0
C3218 C 0.89821 0.15523 0.49873 0.0
C3219 C 0.88738 0.13637 0.50911 0.0
C3220 C 0.90105 0.17624 0.50366 0.0
C3221 C 0.9139 0.19723 0.49396 0.0
C3222 C 0.93664 0.20368 0.48894 0.0
C3223 C 0.9486 0.22334 0.47968 0.0
C3224 C 0.93807 0.23679 0.47545 0.0
C3225 C 0.91558 0.23063 0.4805 0.0
C3226 C 0.90353 0.21097 0.48974 0.0
C3227 C 0.86969 0.15685 0.57315 0.0
C3228 C 0.85234 0.16379 0.573 0.0
C3229 C 0.87917 0.15544 0.5588 0.0
C3230 C 0.87159 0.16094 0.54393 0.0
C3231 C 0.85455 0.16816 0.54374 0.0
C3232 C 0.84495 0.16943 0.55804 0.0
C3233 C 0.88083 0.15857 0.52852 0.0
C3234 C 0.89207 0.17754 0.51835 0.0
C3235 C 0.87861 0.13773 0.52384 0.0
C3236 C 0.86638 0.11692 0.53381 0.0
C3237 C 0.84302 0.10914 0.53805 0.0
C3238 C 0.83186 0.08989 0.54784 0.0
C3239 C 0.84379 0.07813 0.55332 0.0
C3240 C 0.86687 0.08554 0.54896 0.0
C3241 C 0.87814 0.10482 0.53921 0.0
H3242 H 0.83513 0.06325 0.56092 0.0
H3243 H 0.94736 0.25201 0.46828 0.0
H3244 H 0.90396 0.75893 0.44644 0.0
H3245 H 0.90041 0.73437 0.46997 0.0
H3246 H 0.93301 0.79263 0.5002 0.0
H3247 H 0.93666 0.81703 0.47656 0.0
H3248 H 0.94468 0.75929 0.51073 0.0
H3249 H 0.87469 0.76623 0.49655 0.0
H3250 H 0.84233 0.76448 0.47845 0.0
H3251 H 0.82009 0.69502 0.46918 0.0
H3252 H 0.85218 0.69631 0.48739 0.0
H3253 H 0.89151 0.71842 0.58559 0.0
H3254 H 0.90729 0.73789 0.5603 0.0
H3255 H 0.86553 0.67602 0.53481 0.0
H3256 H 0.84861 0.6567 0.55997 0.0
H3257 H 0.86045 0.70843 0.52061 0.0
H3258 H 0.92734 0.70085 0.54015 0.0
H3259 H 0.95865 0.70391 0.55981 0.0
H3260 H 0.98721 0.77581 0.55996 0.0
H3261 H 0.95589 0.77317 0.54044 0.0
C3262 C 0.91111 0.76639 0.45805 0.0
C3263 C 0.92054 0.78967 0.45989 0.0
C3264 C 0.90897 0.75245 0.47146 0.0
C3265 C 0.91612 0.76167 0.48686 0.0
C3266 C 0.9274 0.78517 0.48844 0.0
C3267 C 0.92951 0.79908 0.47502 0.0
C3268 C 0.90905 0.74689 0.50142 0.0
C3269 C 0.92629 0.74816 0.51296 0.0
C3270 C 0.88508 0.73222 0.50421 0.0
C3271 C 0.86594 0.73143 0.49316 0.0
C3272 C 0.86297 0.75063 0.49056 0.0
C3273 C 0.84466 0.74971 0.48032 0.0
C3274 C 0.82929 0.72971 0.47256 0.0
C3275 C 0.83206 0.71052 0.47515 0.0
C3276 C 0.85024 0.71131 0.48548 0.0
C3277 C 0.88558 0.70893 0.57461 0.0
C3278 C 0.8686 0.68599 0.57484 0.0
C3279 C 0.89495 0.72003 0.56016 0.0
C3280 C 0.88787 0.70837 0.54564 0.0
C3281 C 0.87137 0.68535 0.54587 0.0
C3282 C 0.86183 0.67428 0.5603 0.0
C3283 C 0.89604 0.72062 0.53009 0.0
C3284 C 0.87892 0.71908 0.51835 0.0
C3285 C 0.92013 0.73512 0.52726 0.0
C3286 C 0.93914 0.73679 0.5389 0.0
C3287 C 0.9402 0.71731 0.54445 0.0
C3288 C 0.95797 0.71897 0.55555 0.0
C3289 C 0.97488 0.74004 0.56115 0.0
C3290 C 0.9741 0.7595 0.55561 0.0
C3291 C 0.95636 0.75793 0.5445 0.0
H3292 H 0.98861 0.74129 0.56977 0.0
H3293 H 0.81516 0.72905 0.46461 0.0
loop_
_geom_bond_atom_site_label_1
_geom_bond_atom_site_label_2
_geom_bond_distance
_geom_bond_site_symmetry_2
_ccdc_geom_bond_type
C0 N1 1.317 . S
C0 N2 1.348 . S
C0 C3 1.485 . S
N1 C0 1.317 . S
N1 N5 1.370 . S
N2 C0 1.348 . S
N2 C4 1.346 . S
C3 C0 1.485 . S
C3 H7 0.960 . S
C3 H8 0.961 . S
C3 H9 0.960 . S
C4 N2 1.346 . S
C4 N5 1.307 . S
C4 C6 1.486 . S
N5 N1 1.370 . S
N5 C4 1.307 . S
C6 C4 1.486 . S
C6 H10 0.960 . S
C6 H11 0.960 . S
C6 H12 0.959 . S
H7 C3 0.960 . S
H8 C3 0.961 . S
H9 C3 0.960 . S
H10 C6 0.960 . S
H11 C6 0.960 . S
H12 C6 0.959 . S
C13 N14 1.317 . S
C13 N15 1.348 . S
C13 C16 1.485 . S
N14 C13 1.317 . S
N14 N18 1.370 . S
N15 C13 1.348 . S
N15 C17 1.346 . S
C16 C13 1.485 . S
C16 H20 0.960 . S
C16 H21 0.961 . S
C16 H22 0.960 . S
C17 N15 1.346 . S
C17 N18 1.307 . S
C17 C19 1.486 . S
N18 N14 1.370 . S
N18 C17 1.307 . S
C19 C17 1.486 . S
C19 H23 0.960 . S
C19 H24 0.960 . S
C19 H25 0.959 . S
H20 C16 0.960 . S
H21 C16 0.961 . S
H22 C16 0.960 . S
H23 C19 0.960 . S
H24 C19 0.960 . S
H25 C19 0.959 . S
C26 N27 1.317 . S
C26 N28 1.348 . S
C26 C29 1.485 . S
N27 C26 1.317 . S
N27 N31 1.370 . S
N28 C26 1.348 . S
N28 C30 1.346 . S
C29 C26 1.485 . S
C29 H33 0.960 . S
C29 H34 0.961 . S
C29 H35 0.960 . S
C30 N28 1.346 . S
C30 N31 1.307 . S
C30 C32 1.486 . S
N31 N27 1.370 . S
N31 C30 1.307 . S
C32 C30 1.486 . S
C32 H36 0.960 . S
C32 H37 0.960 . S
C32 H38 0.959 . S
H33 C29 0.960 . S
H34 C29 0.961 . S
H35 C29 0.960 . S
H36 C32 0.960 . S
H37 C32 0.960 . S
H38 C32 0.959 . S
C39 N40 1.317 . S
C39 N41 1.348 . S
C39 C42 1.485 . S
N40 C39 1.317 . S
N40 N44 1.370 . S
N41 C39 1.348 . S
N41 C43 1.346 . S
C42 C39 1.485 . S
C42 H46 0.960 . S
C42 H47 0.961 . S
C42 H48 0.960 . S
C43 N41 1.346 . S
C43 N44 1.307 . S
C43 C45 1.486 . S
N44 N40 1.370 . S
N44 C43 1.307 . S
C45 C43 1.486 . S
C45 H49 0.960 . S
C45 H50 0.960 . S
C45 H51 0.959 . S
H46 C42 0.960 . S
H47 C42 0.961 . S
H48 C42 0.960 . S
H49 C45 0.960 . S
H50 C45 0.960 . S
H51 C45 0.959 . S
C52 N53 1.317 . S
C52 N54 1.348 . S
C52 C55 1.485 . S
N53 C52 1.317 . S
N53 N57 1.370 . S
N54 C52 1.348 . S
N54 C56 1.346 . S
C55 C52 1.485 . S
C55 H59 0.960 . S
C55 H60 0.961 . S
C55 H61 0.960 . S
C56 N54 1.346 . S
C56 N57 1.307 . S
C56 C58 1.486 . S
N57 N53 1.370 . S
N57 C56 1.307 . S
C58 C56 1.486 . S
C58 H62 0.960 . S
C58 H63 0.960 . S
C58 H64 0.959 . S
H59 C55 0.960 . S
H60 C55 0.961 . S
H61 C55 0.960 . S
H62 C58 0.960 . S
H63 C58 0.960 . S
H64 C58 0.959 . S
C65 N66 1.317 . S
C65 N67 1.348 . S
C65 C68 1.485 . S
N66 C65 1.317 . S
N66 N70 1.370 . S
N67 C65 1.348 . S
N67 C69 1.346 . S
C68 C65 1.485 . S
C68 H72 0.960 . S
C68 H73 0.961 . S
C68 H74 0.960 . S
C69 N67 1.346 . S
C69 N70 1.307 . S
C69 C71 1.486 . S
N70 N66 1.370 . S
N70 C69 1.307 . S
C71 C69 1.486 . S
C71 H75 0.960 . S
C71 H76 0.960 . S
C71 H77 0.959 . S
H72 C68 0.960 . S
H73 C68 0.961 . S
H74 C68 0.960 . S
H75 C71 0.960 . S
H76 C71 0.960 . S
H77 C71 0.959 . S
C78 N79 1.317 . S
C78 N80 1.348 . S
C78 C81 1.485 . S
N79 C78 1.317 . S
N79 N83 1.370 . S
N80 C78 1.348 . S
N80 C82 1.346 . S
C81 C78 1.485 . S
C81 H85 0.960 . S
C81 H86 0.961 . S
C81 H87 0.960 . S
C82 N80 1.346 . S
C82 N83 1.307 . S
C82 C84 1.486 . S
N83 N79 1.370 . S
N83 C82 1.307 . S
C84 C82 1.486 . S
C84 H88 0.960 . S
C84 H89 0.960 . S
C84 H90 0.959 . S
H85 C81 0.960 . S
H86 C81 0.961 . S
H87 C81 0.960 . S
H88 C84 0.960 . S
H89 C84 0.960 . S
H90 C84 0.959 . S
C91 N92 1.317 . S
C91 N93 1.348 . S
C91 C94 1.485 . S
N92 C91 1.317 . S
N92 N96 1.370 . S
N93 C91 1.348 . S
N93 C95 1.346 . S
C94 C91 1.485 . S
C94 H98 0.960 . S
C94 H99 0.961 . S
C94 H100 0.960 . S
C95 N93 1.346 . S
C95 N96 1.307 . S
C95 C97 1.486 . S
N96 N92 1.370 . S
N96 C95 1.307 . S
C97 C95 1.486 . S
C97 H101 0.960 . S
C97 H102 0.960 . S
C97 H103 0.959 . S
H98 C94 0.960 . S
H99 C94 0.961 . S
H100 C94 0.960 . S
H101 C97 0.960 . S
H102 C97 0.960 . S
H103 C97 0.959 . S
C104 N105 1.317 . S
C104 N106 1.348 . S
C104 C107 1.485 . S
N105 C104 1.317 . S
N105 N109 1.370 . S
N106 C104 1.348 . S
N106 C108 1.346 . S
C107 C104 1.485 . S
C107 H111 0.960 . S
C107 H112 0.961 . S
C107 H113 0.960 . S
C108 N106 1.346 . S
C108 N109 1.307 . S
C108 C110 1.486 . S
N109 N105 1.370 . S
N109 C108 1.307 . S
C110 C108 1.486 . S
C110 H114 0.960 . S
C110 H115 0.960 . S
C110 H116 0.959 . S
H111 C107 0.960 . S
H112 C107 0.961 . S
H113 C107 0.960 . S
H114 C110 0.960 . S
H115 C110 0.960 . S
H116 C110 0.959 . S
C117 N118 1.317 . S
C117 N119 1.348 . S
C117 C120 1.485 . S
N118 C117 1.317 . S
N118 N122 1.370 . S
N119 C117 1.348 . S
N119 C121 1.346 . S
C120 C117 1.485 . S
C120 H124 0.960 . S
C120 H125 0.961 . S
C120 H126 0.960 . S
C121 N119 1.346 . S
C121 N122 1.307 . S
C121 C123 1.486 . S
N122 N118 1.370 . S
N122 C121 1.307 . S
C123 C121 1.486 . S
C123 H127 0.960 . S
C123 H128 0.960 . S
C123 H129 0.959 . S
H124 C120 0.960 . S
H125 C120 0.961 . S
H126 C120 0.960 . S
H127 C123 0.960 . S
H128 C123 0.960 . S
H129 C123 0.959 . S
C130 N131 1.317 . S
C130 N132 1.348 . S
C130 C133 1.480 . S
N131 C130 1.317 . S
N131 N135 1.370 . S
N132 C130 1.348 . S
N132 C134 1.346 . S
C133 C130 1.480 . S
C133 H137 0.964 1_556 S
C133 H138 0.963 1_556 S
C133 H139 0.958 . S
C134 N132 1.346 . S
C134 N135 1.307 . S
C134 C136 1.486 . S
N135 N131 1.370 . S
N135 C134 1.307 . S
C136 C134 1.486 . S
C136 H140 0.960 . S
C136 H141 0.960 . S
C136 H142 0.959 . S
H137 C133 0.964 1_554 S
H138 C133 0.963 1_554 S
H139 C133 0.958 . S
H140 C136 0.960 . S
H141 C136 0.960 . S
H142 C136 0.959 . S
C143 N144 1.317 . S
C143 N145 1.348 . S
C143 C146 1.485 . S
N144 C143 1.317 . S
N144 N148 1.370 . S
N145 C143 1.348 . S
N145 C147 1.346 . S
C146 C143 1.485 . S
C146 H150 0.960 . S
C146 H151 0.961 1_556 S
C146 H152 0.960 . S
C147 N145 1.346 . S
C147 N148 1.307 . S
C147 C149 1.486 . S
N148 N144 1.370 . S
N148 C147 1.307 . S
C149 C147 1.486 . S
C149 H153 0.960 . S
C149 H154 0.960 . S
C149 H155 0.959 . S
H150 C146 0.960 . S
H151 C146 0.961 1_554 S
H152 C146 0.960 . S
H153 C149 0.960 . S
H154 C149 0.960 . S
H155 C149 0.959 . S
C156 N157 1.317 . S
C156 N158 1.348 . S
C156 C159 1.485 . S
N157 C156 1.317 . S
N157 N161 1.370 . S
N158 C156 1.348 . S
N158 C160 1.346 . S
C159 C156 1.485 . S
C159 H163 0.960 . S
C159 H164 0.961 . S
C159 H165 0.960 . S
C160 N158 1.346 . S
C160 N161 1.307 . S
C160 C162 1.486 . S
N161 N157 1.370 . S
N161 C160 1.307 . S
C162 C160 1.486 . S
C162 H166 0.960 . S
C162 H167 0.960 . S
C162 H168 0.959 . S
H163 C159 0.960 . S
H164 C159 0.961 . S
H165 C159 0.960 . S
H166 C162 0.960 . S
H167 C162 0.960 . S
H168 C162 0.959 . S
C169 N170 1.317 . S
C169 N171 1.348 . S
C169 C172 1.485 . S
N170 C169 1.317 . S
N170 N174 1.370 . S
N171 C169 1.348 . S
N171 C173 1.346 . S
C172 C169 1.485 . S
C172 H176 0.960 . S
C172 H177 0.961 . S
C172 H178 0.960 . S
C173 N171 1.346 . S
C173 N174 1.307 . S
C173 C175 1.486 . S
N174 N170 1.370 . S
N174 C173 1.307 . S
C175 C173 1.486 . S
C175 H179 0.960 . S
C175 H180 0.960 . S
C175 H181 0.959 . S
H176 C172 0.960 . S
H177 C172 0.961 . S
H178 C172 0.960 . S
H179 C175 0.960 . S
H180 C175 0.960 . S
H181 C175 0.959 . S
C182 N183 1.317 . S
C182 N184 1.348 . S
C182 C185 1.485 . S
N183 C182 1.317 . S
N183 N187 1.370 . S
N184 C182 1.348 . S
N184 C186 1.346 . S
C185 C182 1.485 . S
C185 H189 0.960 . S
C185 H190 0.961 . S
C185 H191 0.960 . S
C186 N184 1.346 . S
C186 N187 1.307 . S
C186 C188 1.486 . S
N187 N183 1.370 . S
N187 C186 1.307 . S
C188 C186 1.486 . S
C188 H192 0.960 . S
C188 H193 0.960 . S
C188 H194 0.959 . S
H189 C185 0.960 . S
H190 C185 0.961 . S
H191 C185 0.960 . S
H192 C188 0.960 . S
H193 C188 0.960 . S
H194 C188 0.959 . S
C195 N196 1.317 . S
C195 N197 1.348 . S
C195 C198 1.485 . S
N196 C195 1.317 . S
N196 N200 1.370 . S
N197 C195 1.348 . S
N197 C199 1.346 . S
C198 C195 1.485 . S
C198 H202 0.960 . S
C198 H203 0.961 . S
C198 H204 0.960 . S
C199 N197 1.346 . S
C199 N200 1.307 . S
C199 C201 1.486 . S
N200 N196 1.370 . S
N200 C199 1.307 . S
C201 C199 1.486 . S
C201 H205 0.960 . S
C201 H206 0.960 . S
C201 H207 0.959 . S
H202 C198 0.960 . S
H203 C198 0.961 . S
H204 C198 0.960 . S
H205 C201 0.960 . S
H206 C201 0.960 . S
H207 C201 0.959 . S
C208 N209 1.317 . S
C208 N210 1.348 . S
C208 C211 1.485 . S
N209 C208 1.317 . S
N209 N213 1.370 . S
N210 C208 1.348 . S
N210 C212 1.346 . S
C211 C208 1.485 . S
C211 H215 0.960 . S
C211 H216 0.961 . S
C211 H217 0.960 . S
C212 N210 1.346 . S
C212 N213 1.307 . S
C212 C214 1.486 . S
N213 N209 1.370 . S
N213 C212 1.307 . S
C214 C212 1.486 . S
C214 H218 0.960 . S
C214 H219 0.960 . S
C214 H220 0.959 . S
H215 C211 0.960 . S
H216 C211 0.961 . S
H217 C211 0.960 . S
H218 C214 0.960 . S
H219 C214 0.960 . S
H220 C214 0.959 . S
C221 N222 1.317 . S
C221 N223 1.348 . S
C221 C224 1.485 . S
N222 C221 1.317 . S
N222 N226 1.370 . S
N223 C221 1.348 . S
N223 C225 1.346 . S
C224 C221 1.485 . S
C224 H228 0.960 . S
C224 H229 0.961 . S
C224 H230 0.960 . S
C225 N223 1.346 . S
C225 N226 1.307 . S
C225 C227 1.486 . S
N226 N222 1.370 . S
N226 C225 1.307 . S
C227 C225 1.486 . S
C227 H231 0.960 . S
C227 H232 0.960 . S
C227 H233 0.959 . S
H228 C224 0.960 . S
H229 C224 0.961 . S
H230 C224 0.960 . S
H231 C227 0.960 . S
H232 C227 0.960 . S
H233 C227 0.959 . S
Eu234 C243 2.828 1_565 S
Eu234 O245 2.392 1_556 S
Eu234 O247 2.418 . S
Eu234 O252 2.373 1_565 S
Eu234 O255 2.488 . S
Eu234 O256 2.471 1_565 S
Eu234 O257 2.349 1_566 S
Eu235 O244 2.373 1_545 S
Eu235 O248 2.488 . S
Eu235 O249 2.471 1_545 S
Eu235 O250 2.349 1_545 S
Eu235 O253 2.392 . S
Eu235 O254 2.418 . S
Eu235 C264 2.828 1_545 S
C236 O254 1.244 . S
C236 O257 1.265 . S
C237 C238 1.379 . S
C237 C241 1.373 . S
C237 C243 1.505 . S
C238 C237 1.379 . S
C238 C240 1.369 . S
C238 H266 0.930 . S
C239 C241 1.383 . S
C239 C242 1.382 . S
C239 H267 0.930 . S
C240 C238 1.369 . S
C240 C242 1.392 . S
C240 H268 0.930 . S
C241 C237 1.373 . S
C241 C239 1.383 . S
C241 H269 0.931 1_545 S
C242 C239 1.382 . S
C242 C240 1.392 . S
C243 Eu234 2.828 1_545 S
C243 C237 1.505 . S
C243 O255 1.249 1_545 S
C243 O256 1.244 . S
O244 Eu235 2.373 1_565 S
O244 C246 1.258 . S
O245 Eu234 2.392 1_554 S
O245 C246 1.242 . S
C246 O244 1.258 . S
C246 O245 1.242 . S
O247 Eu234 2.418 . S
O247 C251 1.244 1_556 S
O248 Eu235 2.488 . S
O248 C264 1.249 1_545 S
O249 Eu235 2.471 1_565 S
O249 C264 1.244 . S
O250 Eu235 2.349 1_565 S
O250 C251 1.265 . S
C251 O247 1.244 1_554 S
C251 O250 1.265 . S
O252 Eu234 2.373 1_545 S
O252 C265 1.258 1_556 S
O253 Eu235 2.392 . S
O253 C265 1.242 . S
O254 Eu235 2.418 . S
O254 C236 1.244 . S
O255 Eu234 2.488 . S
O255 C243 1.249 1_565 S
O256 Eu234 2.471 1_545 S
O256 C243 1.244 . S
O257 Eu234 2.349 1_544 S
O257 C236 1.265 . S
C258 C259 1.379 . S
C258 C262 1.373 . S
C258 C264 1.505 . S
C259 C258 1.379 . S
C259 C261 1.369 . S
C259 H270 0.930 . S
C260 C262 1.383 . S
C260 C263 1.382 . S
C260 H271 0.930 . S
C261 C259 1.369 . S
C261 C263 1.392 . S
C261 H272 0.930 . S
C262 C258 1.373 . S
C262 C260 1.383 . S
C262 H273 0.931 1_565 S
C263 C260 1.382 . S
C263 C261 1.392 . S
C264 Eu235 2.828 1_565 S
C264 O248 1.249 1_565 S
C264 O249 1.244 . S
C264 C258 1.505 . S
C265 O252 1.258 1_554 S
C265 O253 1.242 . S
H266 C238 0.930 . S
H267 C239 0.930 . S
H268 C240 0.930 . S
H269 C241 0.931 1_565 S
H270 C259 0.930 . S
H271 C260 0.930 . S
H272 C261 0.930 . S
H273 C262 0.931 1_545 S
Eu274 C283 2.828 . S
Eu274 O285 2.392 1_556 S
Eu274 O287 2.418 . S
Eu274 O292 2.373 1_455 S
Eu274 O295 2.488 . S
Eu274 O296 2.467 1_455 S
Eu274 O297 2.349 1_455 S
Eu275 O284 2.373 1_655 S
Eu275 O288 2.488 . S
Eu275 O289 2.471 1_655 S
Eu275 O290 2.349 1_655 S
Eu275 O293 2.392 . S
Eu275 O294 2.418 . S
Eu275 C304 2.828 1_655 S
C276 O294 1.244 . S
C276 O297 1.265 1_554 S
C277 C278 1.375 1_455 S
C277 C281 1.375 . S
C277 C283 1.507 . S
C278 C277 1.375 1_655 S
C278 C280 1.369 . S
C278 H306 0.930 . S
C279 C281 1.383 . S
C279 C282 1.382 1_455 S
C279 H307 0.930 . S
C280 C278 1.369 . S
C280 C282 1.392 . S
C280 H308 0.930 . S
C281 C277 1.375 . S
C281 C279 1.383 . S
C281 H309 0.931 . S
C282 C279 1.382 1_655 S
C282 C280 1.392 . S
C283 Eu274 2.828 . S
C283 C277 1.507 . S
C283 O295 1.249 . S
C283 O296 1.244 1_455 S
O284 Eu275 2.373 1_455 S
O284 C286 1.258 . S
O285 Eu274 2.392 1_554 S
O285 C286 1.242 . S
C286 O284 1.258 . S
C286 O285 1.242 . S
O287 Eu274 2.418 . S
O287 C291 1.244 1_556 S
O288 Eu275 2.488 . S
O288 C304 1.249 1_655 S
O289 Eu275 2.471 1_455 S
O289 C304 1.244 . S
O290 Eu275 2.349 1_455 S
O290 C291 1.265 . S
C291 O287 1.244 1_554 S
C291 O290 1.265 . S
O292 Eu274 2.373 1_655 S
O292 C305 1.258 . S
O293 Eu275 2.392 . S
O293 C305 1.242 1_554 S
O294 Eu275 2.418 . S
O294 C276 1.244 . S
O295 Eu274 2.488 . S
O295 C283 1.249 . S
O296 Eu274 2.467 1_655 S
O296 C283 1.244 1_655 S
O297 Eu274 2.349 1_655 S
O297 C276 1.265 1_556 S
C298 C299 1.379 . S
C298 C302 1.373 . S
C298 C304 1.505 . S
C299 C298 1.379 . S
C299 C301 1.369 . S
C299 H310 0.930 . S
C300 C302 1.383 . S
C300 C303 1.382 . S
C300 H311 0.930 . S
C301 C299 1.369 . S
C301 C303 1.392 . S
C301 H312 0.930 . S
C302 C298 1.373 . S
C302 C300 1.383 . S
C302 H313 0.931 1_455 S
C303 C300 1.382 . S
C303 C301 1.392 . S
C304 Eu275 2.828 1_455 S
C304 O288 1.249 1_455 S
C304 O289 1.244 . S
C304 C298 1.505 . S
C305 O292 1.258 . S
C305 O293 1.242 1_556 S
H306 C278 0.930 . S
H307 C279 0.930 . S
H308 C280 0.930 . S
H309 C281 0.931 . S
H310 C299 0.930 . S
H311 C300 0.930 . S
H312 C301 0.930 . S
H313 C302 0.931 1_655 S
Eu314 C323 2.828 . S
Eu314 O325 2.392 . S
Eu314 O327 2.418 . S
Eu314 O332 2.373 . S
Eu314 O335 2.488 . S
Eu314 O336 2.471 . S
Eu314 O337 2.349 . S
Eu315 O324 2.373 . S
Eu315 O328 2.488 . S
Eu315 O329 2.471 . S
Eu315 O330 2.349 1_556 S
Eu315 O333 2.392 1_556 S
Eu315 O334 2.418 1_556 S
Eu315 C344 2.828 . S
C316 O334 1.244 . S
C316 O337 1.265 . S
C317 C318 1.379 . S
C317 C321 1.373 . S
C317 C323 1.505 . S
C318 C317 1.379 . S
C318 C320 1.369 . S
C318 H346 0.930 . S
C319 C321 1.383 . S
C319 C322 1.382 . S
C319 H347 0.930 . S
C320 C318 1.369 . S
C320 C322 1.392 . S
C320 H348 0.930 . S
C321 C317 1.373 . S
C321 C319 1.383 . S
C321 H349 0.931 . S
C322 C319 1.382 . S
C322 C320 1.392 . S
C323 Eu314 2.828 . S
C323 C317 1.505 . S
C323 O335 1.249 . S
C323 O336 1.244 . S
O324 Eu315 2.373 . S
O324 C326 1.258 1_556 S
O325 Eu314 2.392 . S
O325 C326 1.242 . S
C326 O324 1.258 1_554 S
C326 O325 1.242 . S
O327 Eu314 2.418 . S
O327 C331 1.244 . S
O328 Eu315 2.488 . S
O328 C344 1.249 . S
O329 Eu315 2.471 . S
O329 C344 1.244 . S
O330 Eu315 2.349 1_554 S
O330 C331 1.265 . S
C331 O327 1.244 . S
C331 O330 1.265 . S
O332 Eu314 2.373 . S
O332 C345 1.258 . S
O333 Eu315 2.392 1_554 S
O333 C345 1.242 . S
O334 Eu315 2.418 1_554 S
O334 C316 1.244 . S
O335 Eu314 2.488 . S
O335 C323 1.249 . S
O336 Eu314 2.471 . S
O336 C323 1.244 . S
O337 Eu314 2.349 . S
O337 C316 1.265 . S
C338 C339 1.379 . S
C338 C342 1.373 . S
C338 C344 1.505 . S
C339 C338 1.379 . S
C339 C341 1.369 . S
C339 H350 0.930 . S
C340 C342 1.383 . S
C340 C343 1.382 . S
C340 H351 0.930 . S
C341 C339 1.369 . S
C341 C343 1.392 . S
C341 H352 0.930 . S
C342 C338 1.373 . S
C342 C340 1.383 . S
C342 H353 0.931 . S
C343 C340 1.382 . S
C343 C341 1.392 . S
C344 Eu315 2.828 . S
C344 O328 1.249 . S
C344 O329 1.244 . S
C344 C338 1.505 . S
C345 O332 1.258 . S
C345 O333 1.242 . S
H346 C318 0.930 . S
H347 C319 0.930 . S
H348 C320 0.930 . S
H349 C321 0.931 . S
H350 C339 0.930 . S
H351 C340 0.930 . S
H352 C341 0.930 . S
H353 C342 0.931 . S
Eu354 C363 2.828 . S
Eu354 O365 2.392 . S
Eu354 O367 2.418 . S
Eu354 O372 2.373 . S
Eu354 O375 2.488 . S
Eu354 O376 2.471 . S
Eu354 O377 2.349 . S
Eu355 O364 2.373 . S
Eu355 O368 2.488 . S
Eu355 O369 2.471 . S
Eu355 O370 2.349 . S
Eu355 O373 2.392 . S
Eu355 O374 2.418 . S
Eu355 C384 2.828 . S
C356 O374 1.244 . S
C356 O377 1.265 . S
C357 C358 1.379 . S
C357 C361 1.373 . S
C357 C363 1.505 . S
C358 C357 1.379 . S
C358 C360 1.369 . S
C358 H386 0.930 . S
C359 C361 1.383 . S
C359 C362 1.382 . S
C359 H387 0.930 . S
C360 C358 1.369 . S
C360 C362 1.392 . S
C360 H388 0.930 . S
C361 C357 1.373 . S
C361 C359 1.383 . S
C361 H389 0.931 . S
C362 C359 1.382 . S
C362 C360 1.392 . S
C363 Eu354 2.828 . S
C363 C357 1.505 . S
C363 O375 1.249 . S
C363 O376 1.244 . S
O364 Eu355 2.373 . S
O364 C366 1.258 . S
O365 Eu354 2.392 . S
O365 C366 1.242 . S
C366 O364 1.258 . S
C366 O365 1.242 . S
O367 Eu354 2.418 . S
O367 C371 1.244 . S
O368 Eu355 2.488 . S
O368 C384 1.249 . S
O369 Eu355 2.471 . S
O369 C384 1.244 . S
O370 Eu355 2.349 . S
O370 C371 1.265 . S
C371 O367 1.244 . S
C371 O370 1.265 . S
O372 Eu354 2.373 . S
O372 C385 1.258 . S
O373 Eu355 2.392 . S
O373 C385 1.242 . S
O374 Eu355 2.418 . S
O374 C356 1.244 . S
O375 Eu354 2.488 . S
O375 C363 1.249 . S
O376 Eu354 2.471 . S
O376 C363 1.244 . S
O377 Eu354 2.349 . S
O377 C356 1.265 . S
C378 C379 1.379 . S
C378 C382 1.373 . S
C378 C384 1.505 . S
C379 C378 1.379 . S
C379 C381 1.369 . S
C379 H390 0.930 . S
C380 C382 1.383 . S
C380 C383 1.382 . S
C380 H391 0.930 . S
C381 C379 1.369 . S
C381 C383 1.392 . S
C381 H392 0.930 . S
C382 C378 1.373 . S
C382 C380 1.383 . S
C382 H393 0.931 . S
C383 C380 1.382 . S
C383 C381 1.392 . S
C384 Eu355 2.828 . S
C384 O368 1.249 . S
C384 O369 1.244 . S
C384 C378 1.505 . S
C385 O372 1.258 . S
C385 O373 1.242 . S
H386 C358 0.930 . S
H387 C359 0.930 . S
H388 C360 0.930 . S
H389 C361 0.931 . S
H390 C379 0.930 . S
H391 C380 0.930 . S
H392 C381 0.930 . S
H393 C382 0.931 . S
Eu394 C403 2.828 . S
Eu394 O405 2.392 . S
Eu394 O407 2.418 . S
Eu394 O412 2.373 . S
Eu394 O415 2.488 . S
Eu394 O416 2.471 . S
Eu394 O417 2.349 . S
Eu395 O404 2.373 . S
Eu395 O408 2.488 . S
Eu395 O409 2.471 . S
Eu395 O410 2.349 . S
Eu395 O413 2.392 . S
Eu395 O414 2.418 . S
Eu395 C424 2.828 . S
C396 O414 1.244 . S
C396 O417 1.265 . S
C397 C398 1.379 . S
C397 C401 1.373 . S
C397 C403 1.505 . S
C398 C397 1.379 . S
C398 C400 1.369 . S
C398 H426 0.930 . S
C399 C401 1.383 . S
C399 C402 1.382 . S
C399 H427 0.930 . S
C400 C398 1.369 . S
C400 C402 1.392 . S
C400 H428 0.930 . S
C401 C397 1.373 . S
C401 C399 1.383 . S
C401 H429 0.931 . S
C402 C399 1.382 . S
C402 C400 1.392 . S
C403 Eu394 2.828 . S
C403 C397 1.505 . S
C403 O415 1.249 . S
C403 O416 1.244 . S
O404 Eu395 2.373 . S
O404 C406 1.258 . S
O405 Eu394 2.392 . S
O405 C406 1.242 . S
C406 O404 1.258 . S
C406 O405 1.242 . S
O407 Eu394 2.418 . S
O407 C411 1.244 . S
O408 Eu395 2.488 . S
O408 C424 1.249 . S
O409 Eu395 2.471 . S
O409 C424 1.244 . S
O410 Eu395 2.349 . S
O410 C411 1.265 . S
C411 O407 1.244 . S
C411 O410 1.265 . S
O412 Eu394 2.373 . S
O412 C425 1.258 . S
O413 Eu395 2.392 . S
O413 C425 1.242 . S
O414 Eu395 2.418 . S
O414 C396 1.244 . S
O415 Eu394 2.488 . S
O415 C403 1.249 . S
O416 Eu394 2.471 . S
O416 C403 1.244 . S
O417 Eu394 2.349 . S
O417 C396 1.265 . S
C418 C419 1.379 . S
C418 C422 1.373 . S
C418 C424 1.505 . S
C419 C418 1.379 . S
C419 C421 1.369 . S
C419 H430 0.930 . S
C420 C422 1.383 . S
C420 C423 1.382 . S
C420 H431 0.930 . S
C421 C419 1.369 . S
C421 C423 1.392 . S
C421 H432 0.930 . S
C422 C418 1.373 . S
C422 C420 1.383 . S
C422 H433 0.931 . S
C423 C420 1.382 . S
C423 C421 1.392 . S
C424 Eu395 2.828 . S
C424 O408 1.249 . S
C424 O409 1.244 . S
C424 C418 1.505 . S
C425 O412 1.258 . S
C425 O413 1.242 . S
H426 C398 0.930 . S
H427 C399 0.930 . S
H428 C400 0.930 . S
H429 C401 0.931 . S
H430 C419 0.930 . S
H431 C420 0.930 . S
H432 C421 0.930 . S
H433 C422 0.931 . S
Eu434 C443 2.828 . S
Eu434 O445 2.392 . S
Eu434 O447 2.418 . S
Eu434 O452 2.373 . S
Eu434 O455 2.488 . S
Eu434 O456 2.471 . S
Eu434 O457 2.349 . S
Eu435 O444 2.373 . S
Eu435 O448 2.488 . S
Eu435 O449 2.471 . S
Eu435 O450 2.349 . S
Eu435 O453 2.392 . S
Eu435 O454 2.418 . S
Eu435 C464 2.828 . S
C436 O454 1.244 . S
C436 O457 1.265 . S
C437 C438 1.379 . S
C437 C441 1.373 . S
C437 C443 1.505 . S
C438 C437 1.379 . S
C438 C440 1.369 . S
C438 H466 0.930 . S
C439 C441 1.383 . S
C439 C442 1.382 . S
C439 H467 0.930 . S
C440 C438 1.369 . S
C440 C442 1.392 . S
C440 H468 0.930 . S
C441 C437 1.373 . S
C441 C439 1.383 . S
C441 H469 0.931 . S
C442 C439 1.382 . S
C442 C440 1.392 . S
C443 Eu434 2.828 . S
C443 C437 1.505 . S
C443 O455 1.249 . S
C443 O456 1.244 . S
O444 Eu435 2.373 . S
O444 C446 1.258 . S
O445 Eu434 2.392 . S
O445 C446 1.242 . S
C446 O444 1.258 . S
C446 O445 1.242 . S
O447 Eu434 2.418 . S
O447 C451 1.244 . S
O448 Eu435 2.488 . S
O448 C464 1.249 . S
O449 Eu435 2.471 . S
O449 C464 1.244 . S
O450 Eu435 2.349 . S
O450 C451 1.265 . S
C451 O447 1.244 . S
C451 O450 1.265 . S
O452 Eu434 2.373 . S
O452 C465 1.258 . S
O453 Eu435 2.392 . S
O453 C465 1.242 . S
O454 Eu435 2.418 . S
O454 C436 1.244 . S
O455 Eu434 2.488 . S
O455 C443 1.249 . S
O456 Eu434 2.471 . S
O456 C443 1.244 . S
O457 Eu434 2.349 . S
O457 C436 1.265 . S
C458 C459 1.379 . S
C458 C462 1.373 . S
C458 C464 1.505 . S
C459 C458 1.379 . S
C459 C461 1.369 . S
C459 H470 0.930 . S
C460 C462 1.383 . S
C460 C463 1.382 . S
C460 H471 0.930 . S
C461 C459 1.369 . S
C461 C463 1.392 . S
C461 H472 0.930 . S
C462 C458 1.373 . S
C462 C460 1.383 . S
C462 H473 0.931 . S
C463 C460 1.382 . S
C463 C461 1.392 . S
C464 Eu435 2.828 . S
C464 O448 1.249 . S
C464 O449 1.244 . S
C464 C458 1.505 . S
C465 O452 1.258 . S
C465 O453 1.242 . S
H466 C438 0.930 . S
H467 C439 0.930 . S
H468 C440 0.930 . S
H469 C441 0.931 . S
H470 C459 0.930 . S
H471 C460 0.930 . S
H472 C461 0.930 . S
H473 C462 0.931 . S
Eu474 C483 2.828 . S
Eu474 O485 2.392 . S
Eu474 O487 2.418 . S
Eu474 O492 2.373 . S
Eu474 O495 2.488 . S
Eu474 O496 2.471 . S
Eu474 O497 2.349 . S
Eu475 O484 2.373 . S
Eu475 O488 2.488 . S
Eu475 O489 2.471 . S
Eu475 O490 2.349 . S
Eu475 O493 2.392 . S
Eu475 O494 2.418 . S
Eu475 C504 2.828 . S
C476 O494 1.244 . S
C476 O497 1.265 . S
C477 C478 1.379 . S
C477 C481 1.373 . S
C477 C483 1.505 . S
C478 C477 1.379 . S
C478 C480 1.369 . S
C478 H506 0.930 . S
C479 C481 1.383 . S
C479 C482 1.382 . S
C479 H507 0.930 . S
C480 C478 1.369 . S
C480 C482 1.392 . S
C480 H508 0.930 . S
C481 C477 1.373 . S
C481 C479 1.383 . S
C481 H509 0.931 . S
C482 C479 1.382 . S
C482 C480 1.392 . S
C483 Eu474 2.828 . S
C483 C477 1.505 . S
C483 O495 1.249 . S
C483 O496 1.244 . S
O484 Eu475 2.373 . S
O484 C486 1.258 . S
O485 Eu474 2.392 . S
O485 C486 1.242 . S
C486 O484 1.258 . S
C486 O485 1.242 . S
O487 Eu474 2.418 . S
O487 C491 1.244 . S
O488 Eu475 2.488 . S
O488 C504 1.249 . S
O489 Eu475 2.471 . S
O489 C504 1.244 . S
O490 Eu475 2.349 . S
O490 C491 1.265 . S
C491 O487 1.244 . S
C491 O490 1.265 . S
O492 Eu474 2.373 . S
O492 C505 1.258 . S
O493 Eu475 2.392 . S
O493 C505 1.242 . S
O494 Eu475 2.418 . S
O494 C476 1.244 . S
O495 Eu474 2.488 . S
O495 C483 1.249 . S
O496 Eu474 2.471 . S
O496 C483 1.244 . S
O497 Eu474 2.349 . S
O497 C476 1.265 . S
C498 C499 1.379 . S
C498 C502 1.373 . S
C498 C504 1.505 . S
C499 C498 1.379 . S
C499 C501 1.369 . S
C499 H510 0.930 . S
C500 C502 1.383 . S
C500 C503 1.382 . S
C500 H511 0.930 . S
C501 C499 1.369 . S
C501 C503 1.392 . S
C501 H512 0.930 . S
C502 C498 1.373 . S
C502 C500 1.383 . S
C502 H513 0.931 . S
C503 C500 1.382 . S
C503 C501 1.392 . S
C504 Eu475 2.828 . S
C504 O488 1.249 . S
C504 O489 1.244 . S
C504 C498 1.505 . S
C505 O492 1.258 . S
C505 O493 1.242 . S
H506 C478 0.930 . S
H507 C479 0.930 . S
H508 C480 0.930 . S
H509 C481 0.931 . S
H510 C499 0.930 . S
H511 C500 0.930 . S
H512 C501 0.930 . S
H513 C502 0.931 . S
Eu514 C523 2.828 . S
Eu514 O525 2.392 . S
Eu514 O527 2.418 . S
Eu514 O532 2.373 . S
Eu514 O535 2.488 . S
Eu514 O536 2.471 . S
Eu514 O537 2.349 . S
Eu515 O524 2.373 . S
Eu515 O528 2.488 . S
Eu515 O529 2.471 . S
Eu515 O530 2.349 . S
Eu515 O533 2.392 . S
Eu515 O534 2.418 . S
Eu515 C544 2.828 . S
C516 O534 1.244 . S
C516 O537 1.265 . S
C517 C518 1.379 . S
C517 C521 1.373 . S
C517 C523 1.505 . S
C518 C517 1.379 . S
C518 C520 1.369 . S
C518 H546 0.930 . S
C519 C521 1.383 . S
C519 C522 1.382 . S
C519 H547 0.930 . S
C520 C518 1.369 . S
C520 C522 1.392 . S
C520 H548 0.930 . S
C521 C517 1.373 . S
C521 C519 1.383 . S
C521 H549 0.931 . S
C522 C519 1.382 . S
C522 C520 1.392 . S
C523 Eu514 2.828 . S
C523 C517 1.505 . S
C523 O535 1.249 . S
C523 O536 1.244 . S
O524 Eu515 2.373 . S
O524 C526 1.258 . S
O525 Eu514 2.392 . S
O525 C526 1.242 . S
C526 O524 1.258 . S
C526 O525 1.242 . S
O527 Eu514 2.418 . S
O527 C531 1.244 . S
O528 Eu515 2.488 . S
O528 C544 1.249 . S
O529 Eu515 2.471 . S
O529 C544 1.244 . S
O530 Eu515 2.349 . S
O530 C531 1.265 . S
C531 O527 1.244 . S
C531 O530 1.265 . S
O532 Eu514 2.373 . S
O532 C545 1.258 . S
O533 Eu515 2.392 . S
O533 C545 1.242 . S
O534 Eu515 2.418 . S
O534 C516 1.244 . S
O535 Eu514 2.488 . S
O535 C523 1.249 . S
O536 Eu514 2.471 . S
O536 C523 1.244 . S
O537 Eu514 2.349 . S
O537 C516 1.265 . S
C538 C539 1.379 . S
C538 C542 1.373 . S
C538 C544 1.505 . S
C539 C538 1.379 . S
C539 C541 1.369 . S
C539 H550 0.930 . S
C540 C542 1.383 . S
C540 C543 1.382 . S
C540 H551 0.930 . S
C541 C539 1.369 . S
C541 C543 1.392 . S
C541 H552 0.930 . S
C542 C538 1.373 . S
C542 C540 1.383 . S
C542 H553 0.931 . S
C543 C540 1.382 . S
C543 C541 1.392 . S
C544 Eu515 2.828 . S
C544 O528 1.249 . S
C544 O529 1.244 . S
C544 C538 1.505 . S
C545 O532 1.258 . S
C545 O533 1.242 . S
H546 C518 0.930 . S
H547 C519 0.930 . S
H548 C520 0.930 . S
H549 C521 0.931 . S
H550 C539 0.930 . S
H551 C540 0.930 . S
H552 C541 0.930 . S
H553 C542 0.931 . S
Eu554 C563 2.828 . S
Eu554 O565 2.392 . S
Eu554 O567 2.418 . S
Eu554 O572 2.373 . S
Eu554 O575 2.488 . S
Eu554 O576 2.471 . S
Eu554 O577 2.349 . S
Eu555 O564 2.373 . S
Eu555 O568 2.488 . S
Eu555 O569 2.471 . S
Eu555 O570 2.349 . S
Eu555 O573 2.392 . S
Eu555 O574 2.418 . S
Eu555 C584 2.828 . S
C556 O574 1.244 . S
C556 O577 1.265 . S
C557 C558 1.379 . S
C557 C561 1.373 . S
C557 C563 1.505 . S
C558 C557 1.379 . S
C558 C560 1.369 . S
C558 H586 0.930 . S
C559 C561 1.383 . S
C559 C562 1.382 . S
C559 H587 0.930 . S
C560 C558 1.369 . S
C560 C562 1.392 . S
C560 H588 0.930 . S
C561 C557 1.373 . S
C561 C559 1.383 . S
C561 H589 0.931 . S
C562 C559 1.382 . S
C562 C560 1.392 . S
C563 Eu554 2.828 . S
C563 C557 1.505 . S
C563 O575 1.249 . S
C563 O576 1.244 . S
O564 Eu555 2.373 . S
O564 C566 1.258 . S
O565 Eu554 2.392 . S
O565 C566 1.242 . S
C566 O564 1.258 . S
C566 O565 1.242 . S
O567 Eu554 2.418 . S
O567 C571 1.244 . S
O568 Eu555 2.488 . S
O568 C584 1.249 . S
O569 Eu555 2.471 . S
O569 C584 1.244 . S
O570 Eu555 2.349 . S
O570 C571 1.265 . S
C571 O567 1.244 . S
C571 O570 1.265 . S
O572 Eu554 2.373 . S
O572 C585 1.258 . S
O573 Eu555 2.392 . S
O573 C585 1.242 . S
O574 Eu555 2.418 . S
O574 C556 1.244 . S
O575 Eu554 2.488 . S
O575 C563 1.249 . S
O576 Eu554 2.471 . S
O576 C563 1.244 . S
O577 Eu554 2.349 . S
O577 C556 1.265 . S
C578 C579 1.379 . S
C578 C582 1.373 . S
C578 C584 1.505 . S
C579 C578 1.379 . S
C579 C581 1.369 . S
C579 H590 0.930 . S
C580 C582 1.383 . S
C580 C583 1.382 . S
C580 H591 0.930 . S
C581 C579 1.369 . S
C581 C583 1.392 . S
C581 H592 0.930 . S
C582 C578 1.373 . S
C582 C580 1.383 . S
C582 H593 0.931 . S
C583 C580 1.382 . S
C583 C581 1.392 . S
C584 Eu555 2.828 . S
C584 O568 1.249 . S
C584 O569 1.244 . S
C584 C578 1.505 . S
C585 O572 1.258 . S
C585 O573 1.242 . S
H586 C558 0.930 . S
H587 C559 0.930 . S
H588 C560 0.930 . S
H589 C561 0.931 . S
H590 C579 0.930 . S
H591 C580 0.930 . S
H592 C581 0.930 . S
H593 C582 0.931 . S
H594 C612 0.951 . S
H595 C614 0.951 . S
H596 C616 0.950 . S
H597 C617 0.950 . S
H598 C619 0.950 . S
H599 C622 0.950 . S
H600 C623 0.950 . S
H601 C625 0.950 . S
H602 C626 0.950 . S
H603 C627 0.951 . S
H604 C629 0.951 . S
H605 C631 0.950 . S
H606 C632 0.950 . S
H607 C634 0.950 . S
H608 C637 0.950 . S
H609 C638 0.950 . S
H610 C640 0.950 . S
H611 C641 0.957 . S
C612 H594 0.951 . S
C612 C613 1.366 . S
C612 C614 1.388 . S
C613 C612 1.366 . S
C613 C617 1.385 . S
C614 H595 0.951 . S
C614 C612 1.388 . S
C614 C615 1.366 . S
C615 C614 1.366 . S
C615 C616 1.414 . S
C615 C618 1.499 . S
C616 H596 0.950 . S
C616 C615 1.414 . S
C616 C617 1.374 . S
C617 H597 0.950 . S
C617 C613 1.385 . S
C617 C616 1.374 . S
C618 C615 1.499 . S
C618 C619 1.373 . S
C618 C620 1.389 . S
C619 H598 0.950 . S
C619 C618 1.373 . S
C619 C635 1.377 . S
C620 C618 1.389 . S
C620 C621 1.524 . S
C620 C634 1.377 . S
C621 C620 1.524 . S
C621 C622 1.397 . S
C621 C626 1.363 . S
C622 H599 0.950 . S
C622 C621 1.397 . S
C622 C623 1.334 . S
C623 H600 0.950 . S
C623 C622 1.334 . S
C623 C624 1.287 . S
C624 C623 1.287 . S
C624 C625 1.524 . S
C624 H643 0.913 . S
C625 H601 0.950 . S
C625 C624 1.524 . S
C625 C626 1.415 . S
C626 H602 0.950 . S
C626 C621 1.363 . S
C626 C625 1.415 . S
C627 H603 0.951 . S
C627 C628 1.366 . S
C627 C629 1.388 . S
C628 C627 1.366 . S
C628 C632 1.385 . S
C629 H604 0.951 . S
C629 C627 1.388 . S
C629 C630 1.366 . S
C630 C629 1.366 . S
C630 C631 1.414 . S
C630 C633 1.499 . S
C631 H605 0.950 . S
C631 C630 1.414 . S
C631 C632 1.374 . S
C632 H606 0.950 . S
C632 C628 1.385 . S
C632 C631 1.374 . S
C633 C630 1.499 . S
C633 C634 1.373 . S
C633 C635 1.389 . S
C634 H607 0.950 . S
C634 C620 1.377 . S
C634 C633 1.373 . S
C635 C619 1.377 . S
C635 C633 1.389 . S
C635 C636 1.524 . S
C636 C635 1.524 . S
C636 C637 1.397 . S
C636 C641 1.363 1_554 S
C637 H608 0.950 . S
C637 C636 1.397 . S
C637 C638 1.334 1_554 S
C638 H609 0.950 . S
C638 C637 1.334 1_556 S
C638 C639 1.287 . S
C639 C638 1.287 . S
C639 C640 1.524 . S
C639 H642 0.999 . S
C640 H610 0.950 . S
C640 C639 1.524 . S
C640 C641 1.415 . S
C641 H611 0.957 . S
C641 C636 1.363 1_556 S
C641 C640 1.415 . S
H642 C639 0.999 . S
H643 C624 0.913 . S
H644 C662 0.951 . S
H645 C664 0.951 . S
H646 C666 0.950 . S
H647 C667 0.950 . S
H648 C669 0.950 . S
H649 C672 0.950 . S
H650 C673 0.950 . S
H651 C675 0.950 . S
H652 C676 0.950 . S
H653 C677 0.951 . S
H654 C679 0.951 . S
H655 C681 0.950 . S
H656 C682 0.950 . S
H657 C684 0.950 . S
H658 C687 0.950 . S
H659 C688 0.950 . S
H660 C690 0.950 . S
H661 C691 0.950 . S
C662 H644 0.951 . S
C662 C663 1.366 . S
C662 C664 1.388 . S
C663 C662 1.366 . S
C663 C667 1.385 . S
C664 H645 0.951 . S
C664 C662 1.388 . S
C664 C665 1.366 . S
C665 C664 1.366 . S
C665 C666 1.414 . S
C665 C668 1.499 . S
C666 H646 0.950 . S
C666 C665 1.414 . S
C666 C667 1.374 . S
C667 H647 0.950 . S
C667 C663 1.385 . S
C667 C666 1.374 . S
C668 C665 1.499 . S
C668 C669 1.373 . S
C668 C670 1.389 . S
C669 H648 0.950 . S
C669 C668 1.373 . S
C669 C685 1.377 . S
C670 C668 1.389 . S
C670 C671 1.524 . S
C670 C684 1.377 . S
C671 C670 1.524 . S
C671 C672 1.397 . S
C671 C676 1.363 . S
C672 H649 0.950 . S
C672 C671 1.397 . S
C672 C673 1.334 . S
C673 H650 0.950 . S
C673 C672 1.334 . S
C673 C674 1.287 . S
C674 C673 1.287 . S
C674 C675 1.524 . S
C674 H693 0.913 . S
C675 H651 0.950 . S
C675 C674 1.524 . S
C675 C676 1.415 . S
C676 H652 0.950 . S
C676 C671 1.363 . S
C676 C675 1.415 . S
C677 H653 0.951 . S
C677 C678 1.366 . S
C677 C679 1.388 . S
C678 C677 1.366 . S
C678 C682 1.385 . S
C679 H654 0.951 . S
C679 C677 1.388 . S
C679 C680 1.366 . S
C680 C679 1.366 . S
C680 C681 1.414 . S
C680 C683 1.499 . S
C681 H655 0.950 . S
C681 C680 1.414 . S
C681 C682 1.374 . S
C682 H656 0.950 . S
C682 C678 1.385 . S
C682 C681 1.374 . S
C683 C680 1.499 . S
C683 C684 1.373 . S
C683 C685 1.389 . S
C684 H657 0.950 . S
C684 C670 1.377 . S
C684 C683 1.373 . S
C685 C669 1.377 . S
C685 C683 1.389 . S
C685 C686 1.524 . S
C686 C685 1.524 . S
C686 C687 1.397 . S
C686 C691 1.363 . S
C687 H658 0.950 . S
C687 C686 1.397 . S
C687 C688 1.334 . S
C688 H659 0.950 . S
C688 C687 1.334 . S
C688 C689 1.287 1_554 S
C689 C688 1.287 1_556 S
C689 C690 1.524 . S
C689 H692 0.999 . S
C690 H660 0.950 . S
C690 C689 1.524 . S
C690 C691 1.415 1_556 S
C691 H661 0.950 . S
C691 C686 1.363 . S
C691 C690 1.415 1_554 S
H692 C689 0.999 . S
H693 C674 0.913 . S
H694 C712 0.951 . S
H695 C714 0.951 . S
H696 C716 0.950 . S
H697 C717 0.950 . S
H698 C719 0.950 . S
H699 C722 0.950 . S
H700 C723 0.984 . S
H701 C725 0.950 . S
H702 C726 0.950 . S
H703 C727 0.951 . S
H704 C729 0.951 . S
H705 C731 0.950 . S
H706 C732 0.950 . S
H707 C734 0.950 . S
H708 C737 0.950 . S
H709 C738 0.950 . S
H710 C740 0.950 . S
H711 C741 0.950 . S
C712 H694 0.951 . S
C712 C713 1.366 . S
C712 C714 1.388 . S
C713 C712 1.366 . S
C713 C717 1.385 . S
C714 H695 0.951 . S
C714 C712 1.388 . S
C714 C715 1.366 . S
C715 C714 1.366 . S
C715 C716 1.414 . S
C715 C718 1.499 . S
C716 H696 0.950 . S
C716 C715 1.414 . S
C716 C717 1.374 . S
C717 H697 0.950 . S
C717 C713 1.385 . S
C717 C716 1.374 . S
C718 C715 1.499 . S
C718 C719 1.373 . S
C718 C720 1.389 . S
C719 H698 0.950 . S
C719 C718 1.373 . S
C719 C735 1.377 . S
C720 C718 1.389 . S
C720 C721 1.524 . S
C720 C734 1.377 . S
C721 C720 1.524 . S
C721 C722 1.397 . S
C721 C726 1.363 . S
C722 H699 0.950 . S
C722 C721 1.397 . S
C722 C723 1.310 1_554 S
C723 H700 0.984 . S
C723 C722 1.310 1_556 S
C723 C724 1.278 1_556 S
C724 C723 1.278 1_554 S
C724 C725 1.524 . S
C724 H743 0.913 1_554 S
C725 H701 0.950 . S
C725 C724 1.524 . S
C725 C726 1.415 . S
C726 H702 0.950 . S
C726 C721 1.363 . S
C726 C725 1.415 . S
C727 H703 0.951 . S
C727 C728 1.366 . S
C727 C729 1.388 . S
C728 C727 1.366 . S
C728 C732 1.385 . S
C729 H704 0.951 . S
C729 C727 1.388 . S
C729 C730 1.366 . S
C730 C729 1.366 . S
C730 C731 1.414 . S
C730 C733 1.499 . S
C731 H705 0.950 . S
C731 C730 1.414 . S
C731 C732 1.374 . S
C732 H706 0.950 . S
C732 C728 1.385 . S
C732 C731 1.374 . S
C733 C730 1.499 . S
C733 C734 1.373 . S
C733 C735 1.389 . S
C734 H707 0.950 . S
C734 C720 1.377 . S
C734 C733 1.373 . S
C735 C719 1.377 . S
C735 C733 1.389 . S
C735 C736 1.524 . S
C736 C735 1.524 . S
C736 C737 1.397 . S
C736 C741 1.363 . S
C737 H708 0.950 . S
C737 C736 1.397 . S
C737 C738 1.334 . S
C738 H709 0.950 . S
C738 C737 1.334 . S
C738 C739 1.287 . S
C739 C738 1.287 . S
C739 C740 1.524 . S
C739 H742 0.999 . S
C740 H710 0.950 . S
C740 C739 1.524 . S
C740 C741 1.415 . S
C741 H711 0.950 . S
C741 C736 1.363 . S
C741 C740 1.415 . S
H742 C739 0.999 . S
H743 C724 0.913 1_556 S
H744 C762 0.951 . S
H745 C764 0.951 . S
H746 C766 0.950 . S
H747 C767 0.950 . S
H748 C769 0.950 . S
H749 C772 0.950 . S
H750 C773 0.950 . S
H751 C775 0.950 . S
H752 C776 0.950 . S
H753 C777 0.951 . S
H754 C779 0.951 . S
H755 C781 0.943 1_554 S
H756 C782 0.950 . S
H757 C784 0.950 . S
H758 C787 0.950 . S
H759 C788 0.950 . S
H760 C790 0.950 . S
H761 C791 0.950 . S
C762 H744 0.951 . S
C762 C763 1.366 . S
C762 C764 1.388 . S
C763 C762 1.366 . S
C763 C767 1.385 . S
C764 H745 0.951 . S
C764 C762 1.388 . S
C764 C765 1.366 . S
C765 C764 1.366 . S
C765 C766 1.414 . S
C765 C768 1.499 . S
C766 H746 0.950 . S
C766 C765 1.414 . S
C766 C767 1.374 . S
C767 H747 0.950 . S
C767 C763 1.385 . S
C767 C766 1.374 . S
C768 C765 1.499 . S
C768 C769 1.373 . S
C768 C770 1.391 1_556 S
C769 H748 0.950 . S
C769 C768 1.373 . S
C769 C785 1.377 . S
C770 C768 1.391 1_554 S
C770 C771 1.523 . S
C770 C784 1.376 . S
C771 C770 1.523 . S
C771 C772 1.397 . S
C771 C776 1.363 . S
C772 H749 0.950 . S
C772 C771 1.397 . S
C772 C773 1.334 . S
C773 H750 0.950 . S
C773 C772 1.334 . S
C773 C774 1.287 . S
C774 C773 1.287 . S
C774 C775 1.524 . S
C774 H793 0.913 . S
C775 H751 0.950 . S
C775 C774 1.524 . S
C775 C776 1.415 . S
C776 H752 0.950 . S
C776 C771 1.363 . S
C776 C775 1.415 . S
C777 H753 0.951 . S
C777 C778 1.366 . S
C777 C779 1.388 . S
C778 C777 1.366 . S
C778 C782 1.385 1_556 S
C779 H754 0.951 . S
C779 C777 1.388 . S
C779 C780 1.366 . S
C780 C779 1.366 . S
C780 C781 1.428 . S
C780 C783 1.499 . S
C781 H755 0.943 1_556 S
C781 C780 1.428 . S
C781 C782 1.368 1_556 S
C782 H756 0.950 . S
C782 C778 1.385 1_554 S
C782 C781 1.368 1_554 S
C783 C780 1.499 . S
C783 C784 1.373 1_556 S
C783 C785 1.389 . S
C784 H757 0.950 . S
C784 C770 1.376 . S
C784 C783 1.373 1_554 S
C785 C769 1.377 . S
C785 C783 1.389 . S
C785 C786 1.524 . S
C786 C785 1.524 . S
C786 C787 1.397 . S
C786 C791 1.363 . S
C787 H758 0.950 . S
C787 C786 1.397 . S
C787 C788 1.334 . S
C788 H759 0.950 . S
C788 C787 1.334 . S
C788 C789 1.287 . S
C789 C788 1.287 . S
C789 C790 1.524 . S
C789 H792 0.999 . S
C790 H760 0.950 . S
C790 C789 1.524 . S
C790 C791 1.415 . S
C791 H761 0.950 . S
C791 C786 1.363 . S
C791 C790 1.415 . S
H792 C789 0.999 . S
H793 C774 0.913 . S
H794 C812 0.951 . S
H795 C814 0.951 . S
H796 C816 0.950 . S
H797 C817 0.950 . S
H798 C819 0.950 . S
H799 C822 0.950 . S
H800 C823 0.950 . S
H801 C825 0.950 . S
H802 C826 0.950 . S
H803 C827 0.951 . S
H804 C829 0.951 1_554 S
H805 C831 0.950 . S
H806 C832 0.950 . S
H807 C834 0.950 . S
H808 C837 0.950 . S
H809 C838 0.950 . S
H810 C840 0.950 . S
H811 C841 0.950 . S
C812 H794 0.951 . S
C812 C813 1.366 . S
C812 C814 1.388 . S
C813 C812 1.366 . S
C813 C817 1.385 . S
C814 H795 0.951 . S
C814 C812 1.388 . S
C814 C815 1.366 . S
C815 C814 1.366 . S
C815 C816 1.414 . S
C815 C818 1.499 . S
C816 H796 0.950 . S
C816 C815 1.414 . S
C816 C817 1.374 . S
C817 H797 0.950 . S
C817 C813 1.385 . S
C817 C816 1.374 . S
C818 C815 1.499 . S
C818 C819 1.373 . S
C818 C820 1.389 . S
C819 H798 0.950 . S
C819 C818 1.373 . S
C819 C835 1.377 . S
C820 C818 1.389 . S
C820 C821 1.524 . S
C820 C834 1.377 . S
C821 C820 1.524 . S
C821 C822 1.397 . S
C821 C826 1.363 . S
C822 H799 0.950 . S
C822 C821 1.397 . S
C822 C823 1.334 . S
C823 H800 0.950 . S
C823 C822 1.334 . S
C823 C824 1.287 . S
C824 C823 1.287 . S
C824 C825 1.524 . S
C824 H843 0.913 . S
C825 H801 0.950 . S
C825 C824 1.524 . S
C825 C826 1.415 . S
C826 H802 0.950 . S
C826 C821 1.363 . S
C826 C825 1.415 . S
C827 H803 0.951 . S
C827 C828 1.366 . S
C827 C829 1.388 1_554 S
C828 C827 1.366 . S
C828 C832 1.385 1_554 S
C829 H804 0.951 1_556 S
C829 C827 1.388 1_556 S
C829 C830 1.366 . S
C830 C829 1.366 . S
C830 C831 1.414 . S
C830 C833 1.499 . S
C831 H805 0.950 . S
C831 C830 1.414 . S
C831 C832 1.374 . S
C832 H806 0.950 . S
C832 C828 1.385 1_556 S
C832 C831 1.374 . S
C833 C830 1.499 . S
C833 C834 1.373 . S
C833 C835 1.389 . S
C834 H807 0.950 . S
C834 C820 1.377 . S
C834 C833 1.373 . S
C835 C819 1.377 . S
C835 C833 1.389 . S
C835 C836 1.524 1_556 S
C836 C835 1.524 1_554 S
C836 C837 1.397 . S
C836 C841 1.363 . S
C837 H808 0.950 . S
C837 C836 1.397 . S
C837 C838 1.334 . S
C838 H809 0.950 . S
C838 C837 1.334 . S
C838 C839 1.287 . S
C839 C838 1.287 . S
C839 C840 1.524 . S
C839 H842 0.999 . S
C840 H810 0.950 . S
C840 C839 1.524 . S
C840 C841 1.415 . S
C841 H811 0.950 . S
C841 C836 1.363 . S
C841 C840 1.415 . S
H842 C839 0.999 . S
H843 C824 0.913 . S
H844 C862 0.951 . S
H845 C864 0.951 . S
H846 C866 0.950 . S
H847 C867 0.950 . S
H848 C869 0.950 . S
H849 C872 0.950 . S
H850 C873 0.950 . S
H851 C875 0.950 . S
H852 C876 0.996 . S
H853 C877 0.951 . S
H854 C879 0.951 . S
H855 C881 0.950 . S
H856 C882 0.950 . S
H857 C884 0.950 . S
H858 C887 0.950 . S
H859 C888 0.950 . S
H860 C890 0.980 . S
H861 C891 0.950 . S
C862 H844 0.951 . S
C862 C863 1.366 . S
C862 C864 1.388 . S
C863 C862 1.366 . S
C863 C867 1.385 . S
C864 H845 0.951 . S
C864 C862 1.388 . S
C864 C865 1.366 . S
C865 C864 1.366 . S
C865 C866 1.414 . S
C865 C868 1.499 . S
C866 H846 0.950 . S
C866 C865 1.414 . S
C866 C867 1.374 . S
C867 H847 0.950 . S
C867 C863 1.385 . S
C867 C866 1.374 . S
C868 C865 1.499 . S
C868 C869 1.373 . S
C868 C870 1.389 . S
C869 H848 0.950 . S
C869 C868 1.373 . S
C869 C885 1.377 . S
C870 C868 1.389 . S
C870 C871 1.524 . S
C870 C884 1.377 . S
C871 C870 1.524 . S
C871 C872 1.397 . S
C871 C876 1.363 . S
C872 H849 0.950 . S
C872 C871 1.397 . S
C872 C873 1.334 . S
C873 H850 0.950 . S
C873 C872 1.334 . S
C873 C874 1.287 . S
C874 C873 1.287 . S
C874 C875 1.524 . S
C874 H893 0.913 . S
C875 H851 0.950 . S
C875 C874 1.524 . S
C875 C876 1.415 . S
C876 H852 0.996 . S
C876 C871 1.363 . S
C876 C875 1.415 . S
C877 H853 0.951 . S
C877 C878 1.366 1_556 S
C877 C879 1.388 . S
C878 C877 1.366 1_554 S
C878 C882 1.385 . S
C879 H854 0.951 . S
C879 C877 1.388 . S
C879 C880 1.397 . S
C880 C879 1.397 . S
C880 C881 1.377 1_556 S
C880 C883 1.508 . S
C881 H855 0.950 . S
C881 C880 1.377 1_554 S
C881 C882 1.374 . S
C882 H856 0.950 . S
C882 C878 1.385 . S
C882 C881 1.374 . S
C883 C880 1.508 . S
C883 C884 1.373 . S
C883 C885 1.389 . S
C884 H857 0.950 . S
C884 C870 1.377 . S
C884 C883 1.373 . S
C885 C869 1.377 . S
C885 C883 1.389 . S
C885 C886 1.524 1_556 S
C886 C885 1.524 1_554 S
C886 C887 1.397 . S
C886 C891 1.363 1_554 S
C887 H858 0.950 . S
C887 C886 1.397 . S
C887 C888 1.334 . S
C888 H859 0.950 . S
C888 C887 1.334 . S
C888 C889 1.287 . S
C889 C888 1.287 . S
C889 C890 1.469 1_554 S
C889 H892 0.999 . S
C890 H860 0.980 . S
C890 C889 1.469 1_556 S
C890 C891 1.438 . S
C891 H861 0.950 . S
C891 C886 1.363 1_556 S
C891 C890 1.438 . S
H892 C889 0.999 . S
H893 C874 0.913 . S
H894 C912 0.951 . S
H895 C914 0.951 . S
H896 C916 0.950 . S
H897 C917 0.950 . S
H898 C919 0.950 . S
H899 C922 0.950 . S
H900 C923 0.950 . S
H901 C925 0.950 . S
H902 C926 0.950 . S
H903 C927 0.951 . S
H904 C929 0.951 . S
H905 C931 0.950 . S
H906 C932 0.957 . S
H907 C934 0.950 . S
H908 C937 0.950 . S
H909 C938 0.950 . S
H910 C940 0.950 . S
H911 C941 0.950 1_556 S
C912 H894 0.951 . S
C912 C913 1.366 . S
C912 C914 1.388 . S
C913 C912 1.366 . S
C913 C917 1.385 . S
C914 H895 0.951 . S
C914 C912 1.388 . S
C914 C915 1.366 . S
C915 C914 1.366 . S
C915 C916 1.414 . S
C915 C918 1.499 . S
C916 H896 0.950 . S
C916 C915 1.414 . S
C916 C917 1.374 . S
C917 H897 0.950 . S
C917 C913 1.385 . S
C917 C916 1.374 . S
C918 C915 1.499 . S
C918 C919 1.373 . S
C918 C920 1.389 . S
C919 H898 0.950 . S
C919 C918 1.373 . S
C919 C935 1.377 . S
C920 C918 1.389 . S
C920 C921 1.524 . S
C920 C934 1.377 . S
C921 C920 1.524 . S
C921 C922 1.397 . S
C921 C926 1.363 . S
C922 H899 0.950 . S
C922 C921 1.397 . S
C922 C923 1.334 . S
C923 H900 0.950 . S
C923 C922 1.334 . S
C923 C924 1.287 . S
C924 C923 1.287 . S
C924 C925 1.524 . S
C924 H943 0.913 . S
C925 H901 0.950 . S
C925 C924 1.524 . S
C925 C926 1.415 . S
C926 H902 0.950 . S
C926 C921 1.363 . S
C926 C925 1.415 . S
C927 H903 0.951 . S
C927 C928 1.382 . S
C927 C929 1.388 . S
C928 C927 1.382 . S
C928 C932 1.387 1_556 S
C929 H904 0.951 . S
C929 C927 1.388 . S
C929 C930 1.366 . S
C930 C929 1.366 . S
C930 C931 1.414 . S
C930 C933 1.499 . S
C931 H905 0.950 . S
C931 C930 1.414 . S
C931 C932 1.368 1_556 S
C932 H906 0.957 . S
C932 C928 1.387 1_554 S
C932 C931 1.368 1_554 S
C933 C930 1.499 . S
C933 C934 1.373 . S
C933 C935 1.389 . S
C934 H907 0.950 . S
C934 C920 1.377 . S
C934 C933 1.373 . S
C935 C919 1.377 . S
C935 C933 1.389 . S
C935 C936 1.524 1_556 S
C936 C935 1.524 1_554 S
C936 C937 1.397 . S
C936 C941 1.363 . S
C937 H908 0.950 . S
C937 C936 1.397 . S
C937 C938 1.334 . S
C938 H909 0.950 . S
C938 C937 1.334 . S
C938 C939 1.287 . S
C939 C938 1.287 . S
C939 C940 1.524 . S
C939 H942 0.999 . S
C940 H910 0.950 . S
C940 C939 1.524 . S
C940 C941 1.415 . S
C941 H911 0.950 1_554 S
C941 C936 1.363 . S
C941 C940 1.415 . S
H942 C939 0.999 . S
H943 C924 0.913 . S
H944 C962 0.951 . S
H945 C964 0.951 . S
H946 C966 0.950 . S
H947 C967 0.950 . S
H948 C969 0.950 . S
H949 C972 0.950 . S
H950 C973 0.950 1_554 S
H951 C975 0.950 . S
H952 C976 0.950 . S
H953 C977 0.951 . S
H954 C979 0.951 . S
H955 C981 0.950 . S
H956 C982 0.950 . S
H957 C984 0.950 . S
H958 C987 0.950 . S
H959 C988 0.950 . S
H960 C990 0.950 . S
H961 C991 0.950 . S
C962 H944 0.951 . S
C962 C963 1.366 . S
C962 C964 1.388 . S
C963 C962 1.366 . S
C963 C967 1.385 . S
C964 H945 0.951 . S
C964 C962 1.388 . S
C964 C965 1.366 . S
C965 C964 1.366 . S
C965 C966 1.414 . S
C965 C968 1.499 . S
C966 H946 0.950 . S
C966 C965 1.414 . S
C966 C967 1.374 . S
C967 H947 0.950 . S
C967 C963 1.385 . S
C967 C966 1.374 . S
C968 C965 1.499 . S
C968 C969 1.373 . S
C968 C970 1.389 . S
C969 H948 0.950 . S
C969 C968 1.373 . S
C969 C985 1.377 . S
C970 C968 1.389 . S
C970 C971 1.524 . S
C970 C984 1.377 . S
C971 C970 1.524 . S
C971 C972 1.397 . S
C971 C976 1.363 . S
C972 H949 0.950 . S
C972 C971 1.397 . S
C972 C973 1.334 . S
C973 H950 0.950 1_556 S
C973 C972 1.334 . S
C973 C974 1.287 1_556 S
C974 C973 1.287 1_554 S
C974 C975 1.524 1_554 S
C974 H993 0.913 . S
C975 H951 0.950 . S
C975 C974 1.524 1_556 S
C975 C976 1.415 . S
C976 H952 0.950 . S
C976 C971 1.363 . S
C976 C975 1.415 . S
C977 H953 0.951 . S
C977 C978 1.366 . S
C977 C979 1.388 . S
C978 C977 1.366 . S
C978 C982 1.385 . S
C979 H954 0.951 . S
C979 C977 1.388 . S
C979 C980 1.366 . S
C980 C979 1.366 . S
C980 C981 1.414 . S
C980 C983 1.499 . S
C981 H955 0.950 . S
C981 C980 1.414 . S
C981 C982 1.374 . S
C982 H956 0.950 . S
C982 C978 1.385 . S
C982 C981 1.374 . S
C983 C980 1.499 . S
C983 C984 1.373 . S
C983 C985 1.389 . S
C984 H957 0.950 . S
C984 C970 1.377 . S
C984 C983 1.373 . S
C985 C969 1.377 . S
C985 C983 1.389 . S
C985 C986 1.524 . S
C986 C985 1.524 . S
C986 C987 1.397 . S
C986 C991 1.363 . S
C987 H958 0.950 . S
C987 C986 1.397 . S
C987 C988 1.334 . S
C988 H959 0.950 . S
C988 C987 1.334 . S
C988 C989 1.287 . S
C989 C988 1.287 . S
C989 C990 1.524 . S
C989 H992 0.999 . S
C990 H960 0.950 . S
C990 C989 1.524 . S
C990 C991 1.415 . S
C991 H961 0.950 . S
C991 C986 1.363 . S
C991 C990 1.415 . S
H992 C989 0.999 . S
H993 C974 0.913 . S
H994 C1012 0.951 1_554 S
H995 C1014 0.951 . S
H996 C1016 0.950 . S
H997 C1017 0.950 . S
H998 C1019 0.950 . S
H999 C1022 0.950 . S
H1000 C1023 0.950 . S
H1001 C1025 0.950 . S
H1002 C1026 0.950 . S
H1003 C1027 0.953 . S
H1004 C1029 0.951 . S
H1005 C1031 0.950 . S
H1006 C1032 0.950 . S
H1007 C1034 0.950 . S
H1008 C1037 0.950 . S
H1009 C1038 0.950 . S
H1010 C1040 0.950 . S
H1011 C1041 0.950 . S
C1012 H994 0.951 1_556 S
C1012 C1013 1.366 . S
C1012 C1014 1.388 1_556 S
C1013 C1012 1.366 . S
C1013 C1017 1.385 . S
C1014 H995 0.951 . S
C1014 C1012 1.388 1_554 S
C1014 C1015 1.366 1_554 S
C1015 C1014 1.366 1_556 S
C1015 C1016 1.414 . S
C1015 C1018 1.499 . S
C1016 H996 0.950 . S
C1016 C1015 1.414 . S
C1016 C1017 1.374 . S
C1017 H997 0.950 . S
C1017 C1013 1.385 . S
C1017 C1016 1.374 . S
C1018 C1015 1.499 . S
C1018 C1019 1.373 . S
C1018 C1020 1.410 . S
C1019 H998 0.950 . S
C1019 C1018 1.373 . S
C1019 C1035 1.377 . S
C1020 C1018 1.410 . S
C1020 C1021 1.525 . S
C1020 C1034 1.361 1_556 S
C1021 C1020 1.525 . S
C1021 C1022 1.397 . S
C1021 C1026 1.363 1_556 S
C1022 H999 0.950 . S
C1022 C1021 1.397 . S
C1022 C1023 1.334 . S
C1023 H1000 0.950 . S
C1023 C1022 1.334 . S
C1023 C1024 1.287 . S
C1024 C1023 1.287 . S
C1024 C1025 1.524 1_556 S
C1024 H1043 0.913 . S
C1025 H1001 0.950 . S
C1025 C1024 1.524 1_554 S
C1025 C1026 1.415 . S
C1026 H1002 0.950 . S
C1026 C1021 1.363 1_554 S
C1026 C1025 1.415 . S
C1027 H1003 0.953 . S
C1027 C1028 1.363 1_556 S
C1027 C1029 1.389 . S
C1028 C1027 1.363 1_554 S
C1028 C1032 1.385 . S
C1029 H1004 0.951 . S
C1029 C1027 1.389 . S
C1029 C1030 1.366 1_556 S
C1030 C1029 1.366 1_554 S
C1030 C1031 1.414 . S
C1030 C1033 1.499 . S
C1031 H1005 0.950 . S
C1031 C1030 1.414 . S
C1031 C1032 1.374 . S
C1032 H1006 0.950 . S
C1032 C1028 1.385 . S
C1032 C1031 1.374 . S
C1033 C1030 1.499 . S
C1033 C1034 1.373 . S
C1033 C1035 1.389 1_554 S
C1034 H1007 0.950 . S
C1034 C1020 1.361 1_554 S
C1034 C1033 1.373 . S
C1035 C1019 1.377 . S
C1035 C1033 1.389 1_556 S
C1035 C1036 1.525 . S
C1036 C1035 1.525 . S
C1036 C1037 1.342 1_556 S
C1036 C1041 1.415 . S
C1037 H1008 0.950 . S
C1037 C1036 1.342 1_554 S
C1037 C1038 1.334 . S
C1038 H1009 0.950 . S
C1038 C1037 1.334 . S
C1038 C1039 1.287 . S
C1039 C1038 1.287 . S
C1039 C1040 1.524 1_554 S
C1039 H1042 0.999 . S
C1040 H1010 0.950 . S
C1040 C1039 1.524 1_556 S
C1040 C1041 1.415 . S
C1041 H1011 0.950 . S
C1041 C1036 1.415 . S
C1041 C1040 1.415 . S
H1042 C1039 0.999 . S
H1043 C1024 0.913 . S
H1044 C1062 0.951 . S
H1045 C1064 0.951 . S
H1046 C1066 0.950 . S
H1047 C1067 0.950 . S
H1048 C1069 0.950 . S
H1049 C1072 0.950 . S
H1050 C1073 0.950 . S
H1051 C1075 0.950 . S
H1052 C1076 0.950 . S
H1053 C1077 0.951 1_556 S
H1054 C1079 0.951 1_556 S
H1055 C1081 0.950 . S
H1056 C1082 0.950 . S
H1057 C1084 0.950 . S
H1058 C1087 0.950 . S
H1059 C1088 0.950 . S
H1060 C1090 0.950 . S
H1061 C1091 0.950 . S
C1062 H1044 0.951 . S
C1062 C1063 1.366 . S
C1062 C1064 1.388 . S
C1063 C1062 1.366 . S
C1063 C1067 1.385 . S
C1064 H1045 0.951 . S
C1064 C1062 1.388 . S
C1064 C1065 1.366 . S
C1065 C1064 1.366 . S
C1065 C1066 1.414 . S
C1065 C1068 1.499 . S
C1066 H1046 0.950 . S
C1066 C1065 1.414 . S
C1066 C1067 1.374 . S
C1067 H1047 0.950 . S
C1067 C1063 1.385 . S
C1067 C1066 1.374 . S
C1068 C1065 1.499 . S
C1068 C1069 1.373 . S
C1068 C1070 1.389 . S
C1069 H1048 0.950 . S
C1069 C1068 1.373 . S
C1069 C1085 1.377 . S
C1070 C1068 1.389 . S
C1070 C1071 1.524 . S
C1070 C1084 1.377 . S
C1071 C1070 1.524 . S
C1071 C1072 1.397 . S
C1071 C1076 1.363 . S
C1072 H1049 0.950 . S
C1072 C1071 1.397 . S
C1072 C1073 1.334 . S
C1073 H1050 0.950 . S
C1073 C1072 1.334 . S
C1073 C1074 1.287 . S
C1074 C1073 1.287 . S
C1074 C1075 1.524 . S
C1074 H1093 0.913 . S
C1075 H1051 0.950 . S
C1075 C1074 1.524 . S
C1075 C1076 1.415 . S
C1076 H1052 0.950 . S
C1076 C1071 1.363 . S
C1076 C1075 1.415 . S
C1077 H1053 0.951 1_554 S
C1077 C1078 1.366 . S
C1077 C1079 1.388 . S
C1078 C1077 1.366 . S
C1078 C1082 1.385 . S
C1079 H1054 0.951 1_554 S
C1079 C1077 1.388 . S
C1079 C1080 1.366 . S
C1080 C1079 1.366 . S
C1080 C1081 1.414 . S
C1080 C1083 1.499 . S
C1081 H1055 0.950 . S
C1081 C1080 1.414 . S
C1081 C1082 1.374 . S
C1082 H1056 0.950 . S
C1082 C1078 1.385 . S
C1082 C1081 1.374 . S
C1083 C1080 1.499 . S
C1083 C1084 1.373 . S
C1083 C1085 1.389 . S
C1084 H1057 0.950 . S
C1084 C1070 1.377 . S
C1084 C1083 1.373 . S
C1085 C1069 1.377 . S
C1085 C1083 1.389 . S
C1085 C1086 1.524 . S
C1086 C1085 1.524 . S
C1086 C1087 1.397 . S
C1086 C1091 1.363 1_554 S
C1087 H1058 0.950 . S
C1087 C1086 1.397 . S
C1087 C1088 1.334 1_554 S
C1088 H1059 0.950 . S
C1088 C1087 1.334 1_556 S
C1088 C1089 1.287 . S
C1089 C1088 1.287 . S
C1089 C1090 1.524 . S
C1089 H1092 0.999 . S
C1090 H1060 0.950 . S
C1090 C1089 1.524 . S
C1090 C1091 1.415 . S
C1091 H1061 0.950 . S
C1091 C1086 1.363 1_556 S
C1091 C1090 1.415 . S
H1092 C1089 0.999 . S
H1093 C1074 0.913 . S
H1094 C1112 0.951 . S
H1095 C1114 0.951 . S
H1096 C1116 0.950 . S
H1097 C1117 0.950 . S
H1098 C1119 0.950 . S
H1099 C1122 0.950 . S
H1100 C1123 0.950 . S
H1101 C1125 0.950 . S
H1102 C1126 0.950 . S
H1103 C1127 0.951 . S
H1104 C1129 0.951 . S
H1105 C1131 0.950 . S
H1106 C1132 0.950 . S
H1107 C1134 0.950 . S
H1108 C1137 0.950 . S
H1109 C1138 0.950 . S
H1110 C1140 0.950 . S
H1111 C1141 0.950 . S
C1112 H1094 0.951 . S
C1112 C1113 1.366 . S
C1112 C1114 1.388 . S
C1113 C1112 1.366 . S
C1113 C1117 1.385 . S
C1114 H1095 0.951 . S
C1114 C1112 1.388 . S
C1114 C1115 1.366 . S
C1115 C1114 1.366 . S
C1115 C1116 1.414 . S
C1115 C1118 1.499 . S
C1116 H1096 0.950 . S
C1116 C1115 1.414 . S
C1116 C1117 1.374 . S
C1117 H1097 0.950 . S
C1117 C1113 1.385 . S
C1117 C1116 1.374 . S
C1118 C1115 1.499 . S
C1118 C1119 1.373 . S
C1118 C1120 1.389 . S
C1119 H1098 0.950 . S
C1119 C1118 1.373 . S
C1119 C1135 1.377 . S
C1120 C1118 1.389 . S
C1120 C1121 1.524 . S
C1120 C1134 1.377 . S
C1121 C1120 1.524 . S
C1121 C1122 1.397 . S
C1121 C1126 1.363 . S
C1122 H1099 0.950 . S
C1122 C1121 1.397 . S
C1122 C1123 1.334 . S
C1123 H1100 0.950 . S
C1123 C1122 1.334 . S
C1123 C1124 1.287 . S
C1124 C1123 1.287 . S
C1124 C1125 1.524 . S
C1124 H1143 0.913 . S
C1125 H1101 0.950 . S
C1125 C1124 1.524 . S
C1125 C1126 1.415 . S
C1126 H1102 0.950 . S
C1126 C1121 1.363 . S
C1126 C1125 1.415 . S
C1127 H1103 0.951 . S
C1127 C1128 1.366 . S
C1127 C1129 1.388 . S
C1128 C1127 1.366 . S
C1128 C1132 1.385 . S
C1129 H1104 0.951 . S
C1129 C1127 1.388 . S
C1129 C1130 1.366 . S
C1130 C1129 1.366 . S
C1130 C1131 1.414 . S
C1130 C1133 1.499 . S
C1131 H1105 0.950 . S
C1131 C1130 1.414 . S
C1131 C1132 1.374 . S
C1132 H1106 0.950 . S
C1132 C1128 1.385 . S
C1132 C1131 1.374 . S
C1133 C1130 1.499 . S
C1133 C1134 1.373 . S
C1133 C1135 1.389 . S
C1134 H1107 0.950 . S
C1134 C1120 1.377 . S
C1134 C1133 1.373 . S
C1135 C1119 1.377 . S
C1135 C1133 1.389 . S
C1135 C1136 1.524 . S
C1136 C1135 1.524 . S
C1136 C1137 1.397 . S
C1136 C1141 1.363 . S
C1137 H1108 0.950 . S
C1137 C1136 1.397 . S
C1137 C1138 1.334 . S
C1138 H1109 0.950 . S
C1138 C1137 1.334 . S
C1138 C1139 1.287 . S
C1139 C1138 1.287 . S
C1139 C1140 1.524 . S
C1139 H1142 0.999 . S
C1140 H1110 0.950 . S
C1140 C1139 1.524 . S
C1140 C1141 1.415 . S
C1141 H1111 0.950 . S
C1141 C1136 1.363 . S
C1141 C1140 1.415 . S
H1142 C1139 0.999 . S
H1143 C1124 0.913 . S
H1144 C1162 0.951 . S
H1145 C1164 0.951 . S
H1146 C1166 0.950 . S
H1147 C1167 0.950 . S
H1148 C1169 0.950 . S
H1149 C1172 0.928 1_554 S
H1150 C1173 0.950 . S
H1151 C1175 0.950 . S
H1152 C1176 0.950 1_554 S
H1153 C1177 0.951 . S
H1154 C1179 0.951 . S
H1155 C1181 0.950 . S
H1156 C1182 0.950 . S
H1157 C1184 0.950 . S
H1158 C1187 0.950 . S
H1159 C1188 0.950 . S
H1160 C1190 0.950 . S
H1161 C1191 0.950 . S
C1162 H1144 0.951 . S
C1162 C1163 1.366 . S
C1162 C1164 1.388 . S
C1163 C1162 1.366 . S
C1163 C1167 1.385 . S
C1164 H1145 0.951 . S
C1164 C1162 1.388 . S
C1164 C1165 1.366 . S
C1165 C1164 1.366 . S
C1165 C1166 1.414 . S
C1165 C1168 1.499 . S
C1166 H1146 0.950 . S
C1166 C1165 1.414 . S
C1166 C1167 1.374 . S
C1167 H1147 0.950 . S
C1167 C1163 1.385 . S
C1167 C1166 1.374 . S
C1168 C1165 1.499 . S
C1168 C1169 1.373 . S
C1168 C1170 1.389 . S
C1169 H1148 0.950 . S
C1169 C1168 1.373 . S
C1169 C1185 1.377 . S
C1170 C1168 1.389 . S
C1170 C1171 1.524 . S
C1170 C1184 1.377 . S
C1171 C1170 1.524 . S
C1171 C1172 1.373 1_554 S
C1171 C1176 1.363 1_554 S
C1172 H1149 0.928 1_556 S
C1172 C1171 1.373 1_556 S
C1172 C1173 1.382 . S
C1173 H1150 0.950 . S
C1173 C1172 1.382 . S
C1173 C1174 1.287 . S
C1174 C1173 1.287 . S
C1174 C1175 1.524 . S
C1174 H1193 0.913 . S
C1175 H1151 0.950 . S
C1175 C1174 1.524 . S
C1175 C1176 1.415 . S
C1176 H1152 0.950 1_556 S
C1176 C1171 1.363 1_556 S
C1176 C1175 1.415 . S
C1177 H1153 0.951 . S
C1177 C1178 1.366 . S
C1177 C1179 1.388 . S
C1178 C1177 1.366 . S
C1178 C1182 1.385 . S
C1179 H1154 0.951 . S
C1179 C1177 1.388 . S
C1179 C1180 1.366 . S
C1180 C1179 1.366 . S
C1180 C1181 1.414 . S
C1180 C1183 1.499 . S
C1181 H1155 0.950 . S
C1181 C1180 1.414 . S
C1181 C1182 1.374 . S
C1182 H1156 0.950 . S
C1182 C1178 1.385 . S
C1182 C1181 1.374 . S
C1183 C1180 1.499 . S
C1183 C1184 1.373 . S
C1183 C1185 1.389 . S
C1184 H1157 0.950 . S
C1184 C1170 1.377 . S
C1184 C1183 1.373 . S
C1185 C1169 1.377 . S
C1185 C1183 1.389 . S
C1185 C1186 1.524 . S
C1186 C1185 1.524 . S
C1186 C1187 1.397 . S
C1186 C1191 1.363 . S
C1187 H1158 0.950 . S
C1187 C1186 1.397 . S
C1187 C1188 1.334 . S
C1188 H1159 0.950 . S
C1188 C1187 1.334 . S
C1188 C1189 1.287 . S
C1189 C1188 1.287 . S
C1189 C1190 1.524 . S
C1189 H1192 0.999 . S
C1190 H1160 0.950 . S
C1190 C1189 1.524 . S
C1190 C1191 1.415 . S
C1191 H1161 0.950 . S
C1191 C1186 1.363 . S
C1191 C1190 1.415 . S
H1192 C1189 0.999 . S
H1193 C1174 0.913 . S
H1194 C1212 0.951 . S
H1195 C1214 0.951 . S
H1196 C1216 0.950 . S
H1197 C1217 0.950 . S
H1198 C1219 0.950 1_655 S
H1199 C1222 0.950 . S
H1200 C1223 0.950 . S
H1201 C1225 0.950 . S
H1202 C1226 0.976 . S
H1203 C1227 0.951 . S
H1204 C1229 0.951 . S
H1205 C1231 0.950 . S
H1206 C1232 0.950 . S
H1207 C1234 0.950 . S
H1208 C1237 0.950 . S
H1209 C1238 0.950 . S
H1210 C1240 0.950 . S
H1211 C1241 0.950 . S
C1212 H1194 0.951 . S
C1212 C1213 1.366 . S
C1212 C1214 1.388 . S
C1213 C1212 1.366 . S
C1213 C1217 1.385 . S
C1214 H1195 0.951 . S
C1214 C1212 1.388 . S
C1214 C1215 1.366 . S
C1215 C1214 1.366 . S
C1215 C1216 1.414 . S
C1215 C1218 1.499 . S
C1216 H1196 0.950 . S
C1216 C1215 1.414 . S
C1216 C1217 1.374 . S
C1217 H1197 0.950 . S
C1217 C1213 1.385 . S
C1217 C1216 1.374 . S
C1218 C1215 1.499 . S
C1218 C1219 1.373 1_655 S
C1218 C1220 1.389 . S
C1219 H1198 0.950 1_455 S
C1219 C1218 1.373 1_455 S
C1219 C1235 1.377 . S
C1220 C1218 1.389 . S
C1220 C1221 1.524 . S
C1220 C1234 1.377 1_655 S
C1221 C1220 1.524 . S
C1221 C1222 1.397 . S
C1221 C1226 1.363 . S
C1222 H1199 0.950 . S
C1222 C1221 1.397 . S
C1222 C1223 1.334 . S
C1223 H1200 0.950 . S
C1223 C1222 1.334 . S
C1223 C1224 1.287 . S
C1224 C1223 1.287 . S
C1224 C1225 1.524 . S
C1224 H1243 0.913 . S
C1225 H1201 0.950 . S
C1225 C1224 1.524 . S
C1225 C1226 1.415 . S
C1226 H1202 0.976 . S
C1226 C1221 1.363 . S
C1226 C1225 1.415 . S
C1227 H1203 0.951 . S
C1227 C1228 1.366 . S
C1227 C1229 1.388 . S
C1228 C1227 1.366 . S
C1228 C1232 1.385 . S
C1229 H1204 0.951 . S
C1229 C1227 1.388 . S
C1229 C1230 1.366 . S
C1230 C1229 1.366 . S
C1230 C1231 1.414 . S
C1230 C1233 1.499 . S
C1231 H1205 0.950 . S
C1231 C1230 1.414 . S
C1231 C1232 1.374 . S
C1232 H1206 0.950 . S
C1232 C1228 1.385 . S
C1232 C1231 1.374 . S
C1233 C1230 1.499 . S
C1233 C1234 1.373 . S
C1233 C1235 1.389 . S
C1234 H1207 0.950 . S
C1234 C1220 1.377 1_455 S
C1234 C1233 1.373 . S
C1235 C1219 1.377 . S
C1235 C1233 1.389 . S
C1235 C1236 1.524 . S
C1236 C1235 1.524 . S
C1236 C1237 1.397 . S
C1236 C1241 1.363 . S
C1237 H1208 0.950 . S
C1237 C1236 1.397 . S
C1237 C1238 1.334 . S
C1238 H1209 0.950 . S
C1238 C1237 1.334 . S
C1238 C1239 1.287 . S
C1239 C1238 1.287 . S
C1239 C1240 1.524 . S
C1239 H1242 0.999 . S
C1240 H1210 0.950 . S
C1240 C1239 1.524 . S
C1240 C1241 1.415 . S
C1241 H1211 0.950 . S
C1241 C1236 1.363 . S
C1241 C1240 1.415 . S
H1242 C1239 0.999 . S
H1243 C1224 0.913 . S
H1244 C1262 0.951 . S
H1245 C1264 0.951 . S
H1246 C1266 0.950 . S
H1247 C1267 0.950 . S
H1248 C1269 0.950 . S
H1249 C1272 0.950 . S
H1250 C1273 0.950 . S
H1251 C1275 0.950 . S
H1252 C1276 0.950 . S
H1253 C1277 0.951 . S
H1254 C1279 0.951 . S
H1255 C1281 0.950 . S
H1256 C1282 0.950 . S
H1257 C1284 0.950 . S
H1258 C1287 0.950 . S
H1259 C1288 0.950 . S
H1260 C1290 0.950 . S
H1261 C1291 0.950 . S
C1262 H1244 0.951 . S
C1262 C1263 1.366 . S
C1262 C1264 1.388 . S
C1263 C1262 1.366 . S
C1263 C1267 1.385 . S
C1264 H1245 0.951 . S
C1264 C1262 1.388 . S
C1264 C1265 1.366 . S
C1265 C1264 1.366 . S
C1265 C1266 1.414 . S
C1265 C1268 1.499 . S
C1266 H1246 0.950 . S
C1266 C1265 1.414 . S
C1266 C1267 1.374 . S
C1267 H1247 0.950 . S
C1267 C1263 1.385 . S
C1267 C1266 1.374 . S
C1268 C1265 1.499 . S
C1268 C1269 1.373 . S
C1268 C1270 1.389 . S
C1269 H1248 0.950 . S
C1269 C1268 1.373 . S
C1269 C1285 1.377 . S
C1270 C1268 1.389 . S
C1270 C1271 1.524 . S
C1270 C1284 1.377 . S
C1271 C1270 1.524 . S
C1271 C1272 1.397 . S
C1271 C1276 1.363 . S
C1272 H1249 0.950 . S
C1272 C1271 1.397 . S
C1272 C1273 1.334 . S
C1273 H1250 0.950 . S
C1273 C1272 1.334 . S
C1273 C1274 1.287 . S
C1274 C1273 1.287 . S
C1274 C1275 1.524 . S
C1274 H1293 0.913 . S
C1275 H1251 0.950 . S
C1275 C1274 1.524 . S
C1275 C1276 1.415 . S
C1276 H1252 0.950 . S
C1276 C1271 1.363 . S
C1276 C1275 1.415 . S
C1277 H1253 0.951 . S
C1277 C1278 1.366 . S
C1277 C1279 1.388 . S
C1278 C1277 1.366 . S
C1278 C1282 1.385 . S
C1279 H1254 0.951 . S
C1279 C1277 1.388 . S
C1279 C1280 1.366 . S
C1280 C1279 1.366 . S
C1280 C1281 1.414 . S
C1280 C1283 1.499 . S
C1281 H1255 0.950 . S
C1281 C1280 1.414 . S
C1281 C1282 1.374 . S
C1282 H1256 0.950 . S
C1282 C1278 1.385 . S
C1282 C1281 1.374 . S
C1283 C1280 1.499 . S
C1283 C1284 1.373 . S
C1283 C1285 1.389 . S
C1284 H1257 0.950 . S
C1284 C1270 1.377 . S
C1284 C1283 1.373 . S
C1285 C1269 1.377 . S
C1285 C1283 1.389 . S
C1285 C1286 1.524 . S
C1286 C1285 1.524 . S
C1286 C1287 1.397 . S
C1286 C1291 1.363 . S
C1287 H1258 0.950 . S
C1287 C1286 1.397 . S
C1287 C1288 1.334 . S
C1288 H1259 0.950 . S
C1288 C1287 1.334 . S
C1288 C1289 1.287 . S
C1289 C1288 1.287 . S
C1289 C1290 1.524 . S
C1289 H1292 0.999 . S
C1290 H1260 0.950 . S
C1290 C1289 1.524 . S
C1290 C1291 1.415 . S
C1291 H1261 0.950 . S
C1291 C1286 1.363 . S
C1291 C1290 1.415 . S
H1292 C1289 0.999 . S
H1293 C1274 0.913 . S
H1294 C1312 0.951 . S
H1295 C1314 0.951 . S
H1296 C1316 0.950 . S
H1297 C1317 0.950 . S
H1298 C1319 0.950 . S
H1299 C1322 0.950 . S
H1300 C1323 0.950 . S
H1301 C1325 0.949 1_565 S
H1302 C1326 0.950 . S
H1303 C1327 0.951 . S
H1304 C1329 0.951 . S
H1305 C1331 0.950 . S
H1306 C1332 0.950 . S
H1307 C1334 0.950 . S
H1308 C1337 0.950 . S
H1309 C1338 0.950 . S
H1310 C1340 0.950 . S
H1311 C1341 0.950 . S
C1312 H1294 0.951 . S
C1312 C1313 1.366 . S
C1312 C1314 1.388 . S
C1313 C1312 1.366 . S
C1313 C1317 1.385 . S
C1314 H1295 0.951 . S
C1314 C1312 1.388 . S
C1314 C1315 1.366 . S
C1315 C1314 1.366 . S
C1315 C1316 1.414 . S
C1315 C1318 1.499 . S
C1316 H1296 0.950 . S
C1316 C1315 1.414 . S
C1316 C1317 1.374 . S
C1317 H1297 0.950 . S
C1317 C1313 1.385 . S
C1317 C1316 1.374 . S
C1318 C1315 1.499 . S
C1318 C1319 1.373 . S
C1318 C1320 1.389 1_545 S
C1319 H1298 0.950 . S
C1319 C1318 1.373 . S
C1319 C1335 1.377 1_545 S
C1320 C1318 1.389 1_565 S
C1320 C1321 1.524 1_565 S
C1320 C1334 1.377 . S
C1321 C1320 1.524 1_545 S
C1321 C1322 1.397 . S
C1321 C1326 1.363 1_545 S
C1322 H1299 0.950 . S
C1322 C1321 1.397 . S
C1322 C1323 1.334 . S
C1323 H1300 0.950 . S
C1323 C1322 1.334 . S
C1323 C1324 1.287 . S
C1324 C1323 1.287 . S
C1324 C1325 1.524 . S
C1324 H1343 0.913 . S
C1325 H1301 0.949 1_545 S
C1325 C1324 1.524 . S
C1325 C1326 1.415 1_545 S
C1326 H1302 0.950 . S
C1326 C1321 1.363 1_565 S
C1326 C1325 1.415 1_565 S
C1327 H1303 0.951 . S
C1327 C1328 1.366 . S
C1327 C1329 1.388 . S
C1328 C1327 1.366 . S
C1328 C1332 1.385 . S
C1329 H1304 0.951 . S
C1329 C1327 1.388 . S
C1329 C1330 1.366 . S
C1330 C1329 1.366 . S
C1330 C1331 1.414 . S
C1330 C1333 1.499 . S
C1331 H1305 0.950 . S
C1331 C1330 1.414 . S
C1331 C1332 1.374 . S
C1332 H1306 0.950 . S
C1332 C1328 1.385 . S
C1332 C1331 1.374 . S
C1333 C1330 1.499 . S
C1333 C1334 1.373 . S
C1333 C1335 1.389 . S
C1334 H1307 0.950 . S
C1334 C1320 1.377 . S
C1334 C1333 1.373 . S
C1335 C1319 1.377 1_565 S
C1335 C1333 1.389 . S
C1335 C1336 1.524 . S
C1336 C1335 1.524 . S
C1336 C1337 1.397 . S
C1336 C1341 1.363 . S
C1337 H1308 0.950 . S
C1337 C1336 1.397 . S
C1337 C1338 1.334 . S
C1338 H1309 0.950 . S
C1338 C1337 1.334 . S
C1338 C1339 1.287 . S
C1339 C1338 1.287 . S
C1339 C1340 1.524 . S
C1339 H1342 0.999 . S
C1340 H1310 0.950 . S
C1340 C1339 1.524 . S
C1340 C1341 1.415 . S
C1341 H1311 0.950 . S
C1341 C1336 1.363 . S
C1341 C1340 1.415 . S
H1342 C1339 0.999 . S
H1343 C1324 0.913 . S
H1344 C1362 0.951 . S
H1345 C1364 0.951 . S
H1346 C1366 0.950 . S
H1347 C1367 0.950 . S
H1348 C1369 0.950 . S
H1349 C1372 0.950 . S
H1350 C1373 0.950 . S
H1351 C1375 0.950 . S
H1352 C1376 0.950 . S
H1353 C1377 0.951 . S
H1354 C1379 0.951 . S
H1355 C1381 0.950 . S
H1356 C1382 0.950 . S
H1357 C1384 0.950 . S
H1358 C1387 0.950 . S
H1359 C1388 0.950 . S
H1360 C1390 0.950 . S
H1361 C1391 0.950 . S
C1362 H1344 0.951 . S
C1362 C1363 1.366 . S
C1362 C1364 1.388 . S
C1363 C1362 1.366 . S
C1363 C1367 1.385 . S
C1364 H1345 0.951 . S
C1364 C1362 1.388 . S
C1364 C1365 1.366 . S
C1365 C1364 1.366 . S
C1365 C1366 1.414 . S
C1365 C1368 1.499 . S
C1366 H1346 0.950 . S
C1366 C1365 1.414 . S
C1366 C1367 1.374 . S
C1367 H1347 0.950 . S
C1367 C1363 1.385 . S
C1367 C1366 1.374 . S
C1368 C1365 1.499 . S
C1368 C1369 1.373 . S
C1368 C1370 1.389 . S
C1369 H1348 0.950 . S
C1369 C1368 1.373 . S
C1369 C1385 1.377 . S
C1370 C1368 1.389 . S
C1370 C1371 1.524 . S
C1370 C1384 1.377 . S
C1371 C1370 1.524 . S
C1371 C1372 1.397 . S
C1371 C1376 1.363 . S
C1372 H1349 0.950 . S
C1372 C1371 1.397 . S
C1372 C1373 1.334 . S
C1373 H1350 0.950 . S
C1373 C1372 1.334 . S
C1373 C1374 1.287 . S
C1374 C1373 1.287 . S
C1374 C1375 1.524 . S
C1374 H1393 0.913 . S
C1375 H1351 0.950 . S
C1375 C1374 1.524 . S
C1375 C1376 1.415 . S
C1376 H1352 0.950 . S
C1376 C1371 1.363 . S
C1376 C1375 1.415 . S
C1377 H1353 0.951 . S
C1377 C1378 1.366 . S
C1377 C1379 1.388 . S
C1378 C1377 1.366 . S
C1378 C1382 1.385 . S
C1379 H1354 0.951 . S
C1379 C1377 1.388 . S
C1379 C1380 1.366 . S
C1380 C1379 1.366 . S
C1380 C1381 1.414 . S
C1380 C1383 1.499 . S
C1381 H1355 0.950 . S
C1381 C1380 1.414 . S
C1381 C1382 1.374 . S
C1382 H1356 0.950 . S
C1382 C1378 1.385 . S
C1382 C1381 1.374 . S
C1383 C1380 1.499 . S
C1383 C1384 1.373 . S
C1383 C1385 1.389 . S
C1384 H1357 0.950 . S
C1384 C1370 1.377 . S
C1384 C1383 1.373 . S
C1385 C1369 1.377 . S
C1385 C1383 1.389 . S
C1385 C1386 1.524 . S
C1386 C1385 1.524 . S
C1386 C1387 1.397 . S
C1386 C1391 1.363 . S
C1387 H1358 0.950 . S
C1387 C1386 1.397 . S
C1387 C1388 1.334 . S
C1388 H1359 0.950 . S
C1388 C1387 1.334 . S
C1388 C1389 1.287 . S
C1389 C1388 1.287 . S
C1389 C1390 1.524 . S
C1389 H1392 0.999 . S
C1390 H1360 0.950 . S
C1390 C1389 1.524 . S
C1390 C1391 1.415 . S
C1391 H1361 0.950 . S
C1391 C1386 1.363 . S
C1391 C1390 1.415 . S
H1392 C1389 0.999 . S
H1393 C1374 0.913 . S
H1394 C1412 0.951 . S
H1395 C1414 0.951 . S
H1396 C1416 0.950 . S
H1397 C1417 0.950 . S
H1398 C1419 0.950 . S
H1399 C1422 0.950 . S
H1400 C1423 0.950 . S
H1401 C1425 0.950 . S
H1402 C1426 0.950 . S
H1403 C1427 0.951 . S
H1404 C1429 0.951 . S
H1405 C1431 0.950 . S
H1406 C1432 0.950 . S
H1407 C1434 0.950 . S
H1408 C1437 0.950 . S
H1409 C1438 0.950 . S
H1410 C1440 0.950 . S
H1411 C1441 0.950 . S
C1412 H1394 0.951 . S
C1412 C1413 1.366 . S
C1412 C1414 1.388 . S
C1413 C1412 1.366 . S
C1413 C1417 1.385 . S
C1414 H1395 0.951 . S
C1414 C1412 1.388 . S
C1414 C1415 1.366 . S
C1415 C1414 1.366 . S
C1415 C1416 1.414 . S
C1415 C1418 1.499 . S
C1416 H1396 0.950 . S
C1416 C1415 1.414 . S
C1416 C1417 1.374 . S
C1417 H1397 0.950 . S
C1417 C1413 1.385 . S
C1417 C1416 1.374 . S
C1418 C1415 1.499 . S
C1418 C1419 1.373 . S
C1418 C1420 1.389 . S
C1419 H1398 0.950 . S
C1419 C1418 1.373 . S
C1419 C1435 1.377 . S
C1420 C1418 1.389 . S
C1420 C1421 1.524 . S
C1420 C1434 1.377 . S
C1421 C1420 1.524 . S
C1421 C1422 1.397 . S
C1421 C1426 1.363 . S
C1422 H1399 0.950 . S
C1422 C1421 1.397 . S
C1422 C1423 1.334 . S
C1423 H1400 0.950 . S
C1423 C1422 1.334 . S
C1423 C1424 1.287 . S
C1424 C1423 1.287 . S
C1424 C1425 1.524 . S
C1424 H1443 0.913 . S
C1425 H1401 0.950 . S
C1425 C1424 1.524 . S
C1425 C1426 1.415 . S
C1426 H1402 0.950 . S
C1426 C1421 1.363 . S
C1426 C1425 1.415 . S
C1427 H1403 0.951 . S
C1427 C1428 1.366 . S
C1427 C1429 1.388 . S
C1428 C1427 1.366 . S
C1428 C1432 1.385 . S
C1429 H1404 0.951 . S
C1429 C1427 1.388 . S
C1429 C1430 1.366 . S
C1430 C1429 1.366 . S
C1430 C1431 1.414 . S
C1430 C1433 1.499 . S
C1431 H1405 0.950 . S
C1431 C1430 1.414 . S
C1431 C1432 1.374 . S
C1432 H1406 0.950 . S
C1432 C1428 1.385 . S
C1432 C1431 1.374 . S
C1433 C1430 1.499 . S
C1433 C1434 1.373 . S
C1433 C1435 1.389 . S
C1434 H1407 0.950 . S
C1434 C1420 1.377 . S
C1434 C1433 1.373 . S
C1435 C1419 1.377 . S
C1435 C1433 1.389 . S
C1435 C1436 1.524 . S
C1436 C1435 1.524 . S
C1436 C1437 1.397 . S
C1436 C1441 1.363 . S
C1437 H1408 0.950 . S
C1437 C1436 1.397 . S
C1437 C1438 1.334 . S
C1438 H1409 0.950 . S
C1438 C1437 1.334 . S
C1438 C1439 1.287 . S
C1439 C1438 1.287 . S
C1439 C1440 1.524 . S
C1439 H1442 0.999 . S
C1440 H1410 0.950 . S
C1440 C1439 1.524 . S
C1440 C1441 1.415 . S
C1441 H1411 0.950 . S
C1441 C1436 1.363 . S
C1441 C1440 1.415 . S
H1442 C1439 0.999 . S
H1443 C1424 0.913 . S
H1444 C1462 0.951 . S
H1445 C1464 0.951 . S
H1446 C1466 0.950 . S
H1447 C1467 0.950 . S
H1448 C1469 0.950 . S
H1449 C1472 0.950 . S
H1450 C1473 0.950 . S
H1451 C1475 0.950 . S
H1452 C1476 0.950 . S
H1453 C1477 0.951 . S
H1454 C1479 0.951 . S
H1455 C1481 0.950 . S
H1456 C1482 0.950 . S
H1457 C1484 0.950 . S
H1458 C1487 0.950 . S
H1459 C1488 0.950 . S
H1460 C1490 0.950 . S
H1461 C1491 0.950 . S
C1462 H1444 0.951 . S
C1462 C1463 1.366 . S
C1462 C1464 1.388 . S
C1463 C1462 1.366 . S
C1463 C1467 1.385 . S
C1464 H1445 0.951 . S
C1464 C1462 1.388 . S
C1464 C1465 1.366 . S
C1465 C1464 1.366 . S
C1465 C1466 1.414 . S
C1465 C1468 1.499 . S
C1466 H1446 0.950 . S
C1466 C1465 1.414 . S
C1466 C1467 1.374 . S
C1467 H1447 0.950 . S
C1467 C1463 1.385 . S
C1467 C1466 1.374 . S
C1468 C1465 1.499 . S
C1468 C1469 1.373 . S
C1468 C1470 1.389 . S
C1469 H1448 0.950 . S
C1469 C1468 1.373 . S
C1469 C1485 1.377 . S
C1470 C1468 1.389 . S
C1470 C1471 1.524 . S
C1470 C1484 1.377 . S
C1471 C1470 1.524 . S
C1471 C1472 1.397 . S
C1471 C1476 1.363 . S
C1472 H1449 0.950 . S
C1472 C1471 1.397 . S
C1472 C1473 1.334 . S
C1473 H1450 0.950 . S
C1473 C1472 1.334 . S
C1473 C1474 1.287 . S
C1474 C1473 1.287 . S
C1474 C1475 1.524 . S
C1474 H1493 0.913 . S
C1475 H1451 0.950 . S
C1475 C1474 1.524 . S
C1475 C1476 1.415 . S
C1476 H1452 0.950 . S
C1476 C1471 1.363 . S
C1476 C1475 1.415 . S
C1477 H1453 0.951 . S
C1477 C1478 1.366 . S
C1477 C1479 1.388 . S
C1478 C1477 1.366 . S
C1478 C1482 1.385 . S
C1479 H1454 0.951 . S
C1479 C1477 1.388 . S
C1479 C1480 1.366 . S
C1480 C1479 1.366 . S
C1480 C1481 1.414 . S
C1480 C1483 1.499 . S
C1481 H1455 0.950 . S
C1481 C1480 1.414 . S
C1481 C1482 1.374 . S
C1482 H1456 0.950 . S
C1482 C1478 1.385 . S
C1482 C1481 1.374 . S
C1483 C1480 1.499 . S
C1483 C1484 1.373 . S
C1483 C1485 1.389 . S
C1484 H1457 0.950 . S
C1484 C1470 1.377 . S
C1484 C1483 1.373 . S
C1485 C1469 1.377 . S
C1485 C1483 1.389 . S
C1485 C1486 1.524 . S
C1486 C1485 1.524 . S
C1486 C1487 1.397 . S
C1486 C1491 1.363 . S
C1487 H1458 0.950 . S
C1487 C1486 1.397 . S
C1487 C1488 1.334 . S
C1488 H1459 0.950 . S
C1488 C1487 1.334 . S
C1488 C1489 1.287 . S
C1489 C1488 1.287 . S
C1489 C1490 1.524 . S
C1489 H1492 0.999 . S
C1490 H1460 0.950 . S
C1490 C1489 1.524 . S
C1490 C1491 1.415 . S
C1491 H1461 0.950 . S
C1491 C1486 1.363 . S
C1491 C1490 1.415 . S
H1492 C1489 0.999 . S
H1493 C1474 0.913 . S
H1494 C1512 0.951 . S
H1495 C1514 0.951 . S
H1496 C1516 0.950 . S
H1497 C1517 0.950 . S
H1498 C1519 0.950 . S
H1499 C1522 0.950 . S
H1500 C1523 0.950 . S
H1501 C1525 0.950 . S
H1502 C1526 0.950 . S
H1503 C1527 0.951 . S
H1504 C1529 0.951 . S
H1505 C1531 0.950 . S
H1506 C1532 0.950 . S
H1507 C1534 0.950 . S
H1508 C1537 0.950 . S
H1509 C1538 0.950 . S
H1510 C1540 0.950 . S
H1511 C1541 0.950 . S
C1512 H1494 0.951 . S
C1512 C1513 1.366 . S
C1512 C1514 1.388 . S
C1513 C1512 1.366 . S
C1513 C1517 1.385 . S
C1514 H1495 0.951 . S
C1514 C1512 1.388 . S
C1514 C1515 1.366 . S
C1515 C1514 1.366 . S
C1515 C1516 1.414 . S
C1515 C1518 1.499 . S
C1516 H1496 0.950 . S
C1516 C1515 1.414 . S
C1516 C1517 1.374 . S
C1517 H1497 0.950 . S
C1517 C1513 1.385 . S
C1517 C1516 1.374 . S
C1518 C1515 1.499 . S
C1518 C1519 1.373 . S
C1518 C1520 1.389 . S
C1519 H1498 0.950 . S
C1519 C1518 1.373 . S
C1519 C1535 1.377 . S
C1520 C1518 1.389 . S
C1520 C1521 1.524 . S
C1520 C1534 1.377 . S
C1521 C1520 1.524 . S
C1521 C1522 1.397 . S
C1521 C1526 1.363 . S
C1522 H1499 0.950 . S
C1522 C1521 1.397 . S
C1522 C1523 1.334 . S
C1523 H1500 0.950 . S
C1523 C1522 1.334 . S
C1523 C1524 1.287 . S
C1524 C1523 1.287 . S
C1524 C1525 1.524 . S
C1524 H1543 0.913 . S
C1525 H1501 0.950 . S
C1525 C1524 1.524 . S
C1525 C1526 1.415 . S
C1526 H1502 0.950 . S
C1526 C1521 1.363 . S
C1526 C1525 1.415 . S
C1527 H1503 0.951 . S
C1527 C1528 1.366 . S
C1527 C1529 1.388 . S
C1528 C1527 1.366 . S
C1528 C1532 1.385 . S
C1529 H1504 0.951 . S
C1529 C1527 1.388 . S
C1529 C1530 1.366 . S
C1530 C1529 1.366 . S
C1530 C1531 1.414 . S
C1530 C1533 1.499 . S
C1531 H1505 0.950 . S
C1531 C1530 1.414 . S
C1531 C1532 1.374 . S
C1532 H1506 0.950 . S
C1532 C1528 1.385 . S
C1532 C1531 1.374 . S
C1533 C1530 1.499 . S
C1533 C1534 1.373 . S
C1533 C1535 1.389 . S
C1534 H1507 0.950 . S
C1534 C1520 1.377 . S
C1534 C1533 1.373 . S
C1535 C1519 1.377 . S
C1535 C1533 1.389 . S
C1535 C1536 1.524 . S
C1536 C1535 1.524 . S
C1536 C1537 1.397 . S
C1536 C1541 1.363 . S
C1537 H1508 0.950 . S
C1537 C1536 1.397 . S
C1537 C1538 1.334 . S
C1538 H1509 0.950 . S
C1538 C1537 1.334 . S
C1538 C1539 1.287 . S
C1539 C1538 1.287 . S
C1539 C1540 1.524 . S
C1539 H1542 0.999 . S
C1540 H1510 0.950 . S
C1540 C1539 1.524 . S
C1540 C1541 1.415 . S
C1541 H1511 0.950 . S
C1541 C1536 1.363 . S
C1541 C1540 1.415 . S
H1542 C1539 0.999 . S
H1543 C1524 0.913 . S
H1544 C1562 0.951 . S
H1545 C1564 0.951 . S
H1546 C1566 0.950 . S
H1547 C1567 0.950 . S
H1548 C1569 0.950 . S
H1549 C1572 0.950 . S
H1550 C1573 0.950 . S
H1551 C1575 0.950 . S
H1552 C1576 0.950 . S
H1553 C1577 0.951 . S
H1554 C1579 0.951 . S
H1555 C1581 0.950 . S
H1556 C1582 0.950 . S
H1557 C1584 0.950 . S
H1558 C1587 0.950 . S
H1559 C1588 0.950 . S
H1560 C1590 0.950 . S
H1561 C1591 0.950 . S
C1562 H1544 0.951 . S
C1562 C1563 1.366 . S
C1562 C1564 1.388 . S
C1563 C1562 1.366 . S
C1563 C1567 1.385 . S
C1564 H1545 0.951 . S
C1564 C1562 1.388 . S
C1564 C1565 1.366 . S
C1565 C1564 1.366 . S
C1565 C1566 1.414 . S
C1565 C1568 1.499 . S
C1566 H1546 0.950 . S
C1566 C1565 1.414 . S
C1566 C1567 1.374 . S
C1567 H1547 0.950 . S
C1567 C1563 1.385 . S
C1567 C1566 1.374 . S
C1568 C1565 1.499 . S
C1568 C1569 1.373 . S
C1568 C1570 1.389 . S
C1569 H1548 0.950 . S
C1569 C1568 1.373 . S
C1569 C1585 1.377 . S
C1570 C1568 1.389 . S
C1570 C1571 1.524 . S
C1570 C1584 1.377 . S
C1571 C1570 1.524 . S
C1571 C1572 1.397 . S
C1571 C1576 1.363 . S
C1572 H1549 0.950 . S
C1572 C1571 1.397 . S
C1572 C1573 1.334 . S
C1573 H1550 0.950 . S
C1573 C1572 1.334 . S
C1573 C1574 1.287 . S
C1574 C1573 1.287 . S
C1574 C1575 1.524 . S
C1574 H1593 0.913 . S
C1575 H1551 0.950 . S
C1575 C1574 1.524 . S
C1575 C1576 1.415 . S
C1576 H1552 0.950 . S
C1576 C1571 1.363 . S
C1576 C1575 1.415 . S
C1577 H1553 0.951 . S
C1577 C1578 1.366 . S
C1577 C1579 1.388 . S
C1578 C1577 1.366 . S
C1578 C1582 1.385 . S
C1579 H1554 0.951 . S
C1579 C1577 1.388 . S
C1579 C1580 1.366 . S
C1580 C1579 1.366 . S
C1580 C1581 1.414 . S
C1580 C1583 1.499 . S
C1581 H1555 0.950 . S
C1581 C1580 1.414 . S
C1581 C1582 1.374 . S
C1582 H1556 0.950 . S
C1582 C1578 1.385 . S
C1582 C1581 1.374 . S
C1583 C1580 1.499 . S
C1583 C1584 1.373 . S
C1583 C1585 1.389 . S
C1584 H1557 0.950 . S
C1584 C1570 1.377 . S
C1584 C1583 1.373 . S
C1585 C1569 1.377 . S
C1585 C1583 1.389 . S
C1585 C1586 1.524 . S
C1586 C1585 1.524 . S
C1586 C1587 1.397 . S
C1586 C1591 1.363 . S
C1587 H1558 0.950 . S
C1587 C1586 1.397 . S
C1587 C1588 1.334 . S
C1588 H1559 0.950 . S
C1588 C1587 1.334 . S
C1588 C1589 1.287 . S
C1589 C1588 1.287 . S
C1589 C1590 1.524 . S
C1589 H1592 0.999 . S
C1590 H1560 0.950 . S
C1590 C1589 1.524 . S
C1590 C1591 1.415 . S
C1591 H1561 0.950 . S
C1591 C1586 1.363 . S
C1591 C1590 1.415 . S
H1592 C1589 0.999 . S
H1593 C1574 0.913 . S
H1594 C1612 0.951 . S
H1595 C1614 0.951 . S
H1596 C1616 0.950 . S
H1597 C1617 0.950 . S
H1598 C1619 0.950 . S
H1599 C1622 0.950 . S
H1600 C1623 0.950 . S
H1601 C1625 0.950 . S
H1602 C1626 0.950 . S
H1603 C1627 0.951 . S
H1604 C1629 0.951 . S
H1605 C1631 0.950 . S
H1606 C1632 0.950 . S
H1607 C1634 0.950 . S
H1608 C1637 0.950 . S
H1609 C1638 0.950 . S
H1610 C1640 0.950 . S
H1611 C1641 0.950 . S
C1612 H1594 0.951 . S
C1612 C1613 1.366 . S
C1612 C1614 1.388 . S
C1613 C1612 1.366 . S
C1613 C1617 1.385 . S
C1614 H1595 0.951 . S
C1614 C1612 1.388 . S
C1614 C1615 1.366 . S
C1615 C1614 1.366 . S
C1615 C1616 1.414 . S
C1615 C1618 1.499 . S
C1616 H1596 0.950 . S
C1616 C1615 1.414 . S
C1616 C1617 1.374 . S
C1617 H1597 0.950 . S
C1617 C1613 1.385 . S
C1617 C1616 1.374 . S
C1618 C1615 1.499 . S
C1618 C1619 1.373 . S
C1618 C1620 1.389 . S
C1619 H1598 0.950 . S
C1619 C1618 1.373 . S
C1619 C1635 1.377 . S
C1620 C1618 1.389 . S
C1620 C1621 1.524 . S
C1620 C1634 1.377 . S
C1621 C1620 1.524 . S
C1621 C1622 1.397 . S
C1621 C1626 1.363 . S
C1622 H1599 0.950 . S
C1622 C1621 1.397 . S
C1622 C1623 1.334 . S
C1623 H1600 0.950 . S
C1623 C1622 1.334 . S
C1623 C1624 1.287 . S
C1624 C1623 1.287 . S
C1624 C1625 1.524 . S
C1624 H1643 0.913 . S
C1625 H1601 0.950 . S
C1625 C1624 1.524 . S
C1625 C1626 1.415 . S
C1626 H1602 0.950 . S
C1626 C1621 1.363 . S
C1626 C1625 1.415 . S
C1627 H1603 0.951 . S
C1627 C1628 1.366 . S
C1627 C1629 1.388 . S
C1628 C1627 1.366 . S
C1628 C1632 1.385 . S
C1629 H1604 0.951 . S
C1629 C1627 1.388 . S
C1629 C1630 1.366 . S
C1630 C1629 1.366 . S
C1630 C1631 1.414 . S
C1630 C1633 1.499 . S
C1631 H1605 0.950 . S
C1631 C1630 1.414 . S
C1631 C1632 1.374 . S
C1632 H1606 0.950 . S
C1632 C1628 1.385 . S
C1632 C1631 1.374 . S
C1633 C1630 1.499 . S
C1633 C1634 1.373 . S
C1633 C1635 1.389 . S
C1634 H1607 0.950 . S
C1634 C1620 1.377 . S
C1634 C1633 1.373 . S
C1635 C1619 1.377 . S
C1635 C1633 1.389 . S
C1635 C1636 1.524 . S
C1636 C1635 1.524 . S
C1636 C1637 1.397 . S
C1636 C1641 1.363 . S
C1637 H1608 0.950 . S
C1637 C1636 1.397 . S
C1637 C1638 1.334 . S
C1638 H1609 0.950 . S
C1638 C1637 1.334 . S
C1638 C1639 1.287 . S
C1639 C1638 1.287 . S
C1639 C1640 1.524 . S
C1639 H1642 0.999 . S
C1640 H1610 0.950 . S
C1640 C1639 1.524 . S
C1640 C1641 1.415 . S
C1641 H1611 0.950 . S
C1641 C1636 1.363 . S
C1641 C1640 1.415 . S
H1642 C1639 0.999 . S
H1643 C1624 0.913 . S
H1644 C1662 0.951 . S
H1645 C1664 0.951 . S
H1646 C1666 0.950 . S
H1647 C1667 0.950 . S
H1648 C1669 0.950 . S
H1649 C1672 0.950 . S
H1650 C1673 0.950 . S
H1651 C1675 0.950 1_565 S
H1652 C1676 0.935 1_565 S
H1653 C1677 0.951 . S
H1654 C1679 0.951 . S
H1655 C1681 0.950 . S
H1656 C1682 0.950 . S
H1657 C1684 0.950 . S
H1658 C1687 0.950 . S
H1659 C1688 0.950 . S
H1660 C1690 0.942 1_545 S
H1661 C1691 0.950 . S
C1662 H1644 0.951 . S
C1662 C1663 1.366 . S
C1662 C1664 1.388 . S
C1663 C1662 1.366 . S
C1663 C1667 1.385 . S
C1664 H1645 0.951 . S
C1664 C1662 1.388 . S
C1664 C1665 1.366 . S
C1665 C1664 1.366 . S
C1665 C1666 1.414 . S
C1665 C1668 1.499 . S
C1666 H1646 0.950 . S
C1666 C1665 1.414 . S
C1666 C1667 1.374 . S
C1667 H1647 0.950 . S
C1667 C1663 1.385 . S
C1667 C1666 1.374 . S
C1668 C1665 1.499 . S
C1668 C1669 1.373 . S
C1668 C1670 1.389 . S
C1669 H1648 0.950 . S
C1669 C1668 1.373 . S
C1669 C1685 1.377 1_545 S
C1670 C1668 1.389 . S
C1670 C1671 1.524 . S
C1670 C1684 1.377 1_545 S
C1671 C1670 1.524 . S
C1671 C1672 1.397 . S
C1671 C1676 1.392 . S
C1672 H1649 0.950 . S
C1672 C1671 1.397 . S
C1672 C1673 1.334 . S
C1673 H1650 0.950 . S
C1673 C1672 1.334 . S
C1673 C1674 1.287 . S
C1674 C1673 1.287 . S
C1674 C1675 1.524 . S
C1674 H1693 0.913 . S
C1675 H1651 0.950 1_545 S
C1675 C1674 1.524 . S
C1675 C1676 1.403 . S
C1676 H1652 0.935 1_545 S
C1676 C1671 1.392 . S
C1676 C1675 1.403 . S
C1677 H1653 0.951 . S
C1677 C1678 1.366 . S
C1677 C1679 1.388 . S
C1678 C1677 1.366 . S
C1678 C1682 1.385 . S
C1679 H1654 0.951 . S
C1679 C1677 1.388 . S
C1679 C1680 1.366 . S
C1680 C1679 1.366 . S
C1680 C1681 1.414 . S
C1680 C1683 1.499 . S
C1681 H1655 0.950 . S
C1681 C1680 1.414 . S
C1681 C1682 1.374 . S
C1682 H1656 0.950 . S
C1682 C1678 1.385 . S
C1682 C1681 1.374 . S
C1683 C1680 1.499 . S
C1683 C1684 1.373 . S
C1683 C1685 1.389 . S
C1684 H1657 0.950 . S
C1684 C1670 1.377 1_565 S
C1684 C1683 1.373 . S
C1685 C1669 1.377 1_565 S
C1685 C1683 1.389 . S
C1685 C1686 1.524 . S
C1686 C1685 1.524 . S
C1686 C1687 1.397 . S
C1686 C1691 1.363 1_565 S
C1687 H1658 0.950 . S
C1687 C1686 1.397 . S
C1687 C1688 1.334 . S
C1688 H1659 0.950 . S
C1688 C1687 1.334 . S
C1688 C1689 1.287 . S
C1689 C1688 1.287 . S
C1689 C1690 1.529 . S
C1689 H1692 0.999 . S
C1690 H1660 0.942 1_565 S
C1690 C1689 1.529 . S
C1690 C1691 1.418 1_565 S
C1691 H1661 0.950 . S
C1691 C1686 1.363 1_545 S
C1691 C1690 1.418 1_545 S
H1692 C1689 0.999 . S
H1693 C1674 0.913 . S
H1694 C1712 0.951 . S
H1695 C1714 0.951 . S
H1696 C1716 0.950 . S
H1697 C1717 0.950 . S
H1698 C1719 0.950 . S
H1699 C1722 0.950 . S
H1700 C1723 0.950 . S
H1701 C1725 0.950 . S
H1702 C1726 0.950 . S
H1703 C1727 0.951 . S
H1704 C1729 0.951 . S
H1705 C1731 0.950 . S
H1706 C1732 0.950 . S
H1707 C1734 0.950 . S
H1708 C1737 0.950 . S
H1709 C1738 0.950 . S
H1710 C1740 0.950 . S
H1711 C1741 0.950 . S
C1712 H1694 0.951 . S
C1712 C1713 1.366 . S
C1712 C1714 1.388 . S
C1713 C1712 1.366 . S
C1713 C1717 1.385 . S
C1714 H1695 0.951 . S
C1714 C1712 1.388 . S
C1714 C1715 1.366 . S
C1715 C1714 1.366 . S
C1715 C1716 1.414 . S
C1715 C1718 1.499 . S
C1716 H1696 0.950 . S
C1716 C1715 1.414 . S
C1716 C1717 1.374 . S
C1717 H1697 0.950 . S
C1717 C1713 1.385 . S
C1717 C1716 1.374 . S
C1718 C1715 1.499 . S
C1718 C1719 1.373 1_655 S
C1718 C1720 1.389 . S
C1719 H1698 0.950 . S
C1719 C1718 1.373 1_455 S
C1719 C1735 1.377 . S
C1720 C1718 1.389 . S
C1720 C1721 1.524 . S
C1720 C1734 1.377 1_655 S
C1721 C1720 1.524 . S
C1721 C1722 1.397 . S
C1721 C1726 1.363 . S
C1722 H1699 0.950 . S
C1722 C1721 1.397 . S
C1722 C1723 1.334 . S
C1723 H1700 0.950 . S
C1723 C1722 1.334 . S
C1723 C1724 1.287 . S
C1724 C1723 1.287 . S
C1724 C1725 1.524 . S
C1724 H1743 0.913 . S
C1725 H1701 0.950 . S
C1725 C1724 1.524 . S
C1725 C1726 1.415 . S
C1726 H1702 0.950 . S
C1726 C1721 1.363 . S
C1726 C1725 1.415 . S
C1727 H1703 0.951 . S
C1727 C1728 1.366 . S
C1727 C1729 1.388 . S
C1728 C1727 1.366 . S
C1728 C1732 1.385 . S
C1729 H1704 0.951 . S
C1729 C1727 1.388 . S
C1729 C1730 1.366 . S
C1730 C1729 1.366 . S
C1730 C1731 1.414 . S
C1730 C1733 1.499 . S
C1731 H1705 0.950 . S
C1731 C1730 1.414 . S
C1731 C1732 1.374 . S
C1732 H1706 0.950 . S
C1732 C1728 1.385 . S
C1732 C1731 1.374 . S
C1733 C1730 1.499 . S
C1733 C1734 1.373 . S
C1733 C1735 1.389 . S
C1734 H1707 0.950 . S
C1734 C1720 1.377 1_455 S
C1734 C1733 1.373 . S
C1735 C1719 1.377 . S
C1735 C1733 1.389 . S
C1735 C1736 1.524 . S
C1736 C1735 1.524 . S
C1736 C1737 1.397 . S
C1736 C1741 1.363 . S
C1737 H1708 0.950 . S
C1737 C1736 1.397 . S
C1737 C1738 1.334 . S
C1738 H1709 0.950 . S
C1738 C1737 1.334 . S
C1738 C1739 1.287 . S
C1739 C1738 1.287 . S
C1739 C1740 1.524 . S
C1739 H1742 0.999 . S
C1740 H1710 0.950 . S
C1740 C1739 1.524 . S
C1740 C1741 1.415 . S
C1741 H1711 0.950 . S
C1741 C1736 1.363 . S
C1741 C1740 1.415 . S
H1742 C1739 0.999 . S
H1743 C1724 0.913 . S
H1744 C1762 0.951 . S
H1745 C1764 0.951 . S
H1746 C1766 0.950 . S
H1747 C1767 0.950 . S
H1748 C1769 0.950 . S
H1749 C1772 0.950 . S
H1750 C1773 0.950 . S
H1751 C1775 0.950 . S
H1752 C1776 0.950 . S
H1753 C1777 0.951 . S
H1754 C1779 0.951 . S
H1755 C1781 0.950 . S
H1756 C1782 0.950 . S
H1757 C1784 0.950 . S
H1758 C1787 0.950 . S
H1759 C1788 0.950 . S
H1760 C1790 0.950 . S
H1761 C1791 0.950 . S
C1762 H1744 0.951 . S
C1762 C1763 1.366 . S
C1762 C1764 1.388 . S
C1763 C1762 1.366 . S
C1763 C1767 1.385 . S
C1764 H1745 0.951 . S
C1764 C1762 1.388 . S
C1764 C1765 1.366 . S
C1765 C1764 1.366 . S
C1765 C1766 1.414 . S
C1765 C1768 1.499 . S
C1766 H1746 0.950 . S
C1766 C1765 1.414 . S
C1766 C1767 1.374 . S
C1767 H1747 0.950 . S
C1767 C1763 1.385 . S
C1767 C1766 1.374 . S
C1768 C1765 1.499 . S
C1768 C1769 1.373 . S
C1768 C1770 1.389 . S
C1769 H1748 0.950 . S
C1769 C1768 1.373 . S
C1769 C1785 1.377 . S
C1770 C1768 1.389 . S
C1770 C1771 1.524 . S
C1770 C1784 1.377 . S
C1771 C1770 1.524 . S
C1771 C1772 1.397 . S
C1771 C1776 1.363 . S
C1772 H1749 0.950 . S
C1772 C1771 1.397 . S
C1772 C1773 1.334 . S
C1773 H1750 0.950 . S
C1773 C1772 1.334 . S
C1773 C1774 1.287 . S
C1774 C1773 1.287 . S
C1774 C1775 1.524 . S
C1774 H1793 0.913 . S
C1775 H1751 0.950 . S
C1775 C1774 1.524 . S
C1775 C1776 1.415 . S
C1776 H1752 0.950 . S
C1776 C1771 1.363 . S
C1776 C1775 1.415 . S
C1777 H1753 0.951 . S
C1777 C1778 1.366 . S
C1777 C1779 1.388 . S
C1778 C1777 1.366 . S
C1778 C1782 1.385 . S
C1779 H1754 0.951 . S
C1779 C1777 1.388 . S
C1779 C1780 1.366 . S
C1780 C1779 1.366 . S
C1780 C1781 1.414 . S
C1780 C1783 1.499 . S
C1781 H1755 0.950 . S
C1781 C1780 1.414 . S
C1781 C1782 1.374 . S
C1782 H1756 0.950 . S
C1782 C1778 1.385 . S
C1782 C1781 1.374 . S
C1783 C1780 1.499 . S
C1783 C1784 1.373 . S
C1783 C1785 1.389 . S
C1784 H1757 0.950 . S
C1784 C1770 1.377 . S
C1784 C1783 1.373 . S
C1785 C1769 1.377 . S
C1785 C1783 1.389 . S
C1785 C1786 1.524 . S
C1786 C1785 1.524 . S
C1786 C1787 1.397 . S
C1786 C1791 1.363 . S
C1787 H1758 0.950 . S
C1787 C1786 1.397 . S
C1787 C1788 1.334 . S
C1788 H1759 0.950 . S
C1788 C1787 1.334 . S
C1788 C1789 1.287 . S
C1789 C1788 1.287 . S
C1789 C1790 1.524 . S
C1789 H1792 0.999 . S
C1790 H1760 0.950 . S
C1790 C1789 1.524 . S
C1790 C1791 1.415 . S
C1791 H1761 0.950 . S
C1791 C1786 1.363 . S
C1791 C1790 1.415 . S
H1792 C1789 0.999 . S
H1793 C1774 0.913 . S
H1794 C1812 0.951 . S
H1795 C1814 0.951 . S
H1796 C1816 0.950 . S
H1797 C1817 0.950 . S
H1798 C1819 0.950 . S
H1799 C1822 0.950 . S
H1800 C1823 0.950 . S
H1801 C1825 0.950 . S
H1802 C1826 0.950 . S
H1803 C1827 0.951 . S
H1804 C1829 0.951 . S
H1805 C1831 0.950 . S
H1806 C1832 0.950 . S
H1807 C1834 0.950 . S
H1808 C1837 0.950 . S
H1809 C1838 0.950 . S
H1810 C1840 0.950 . S
H1811 C1841 0.950 . S
C1812 H1794 0.951 . S
C1812 C1813 1.366 . S
C1812 C1814 1.388 . S
C1813 C1812 1.366 . S
C1813 C1817 1.385 . S
C1814 H1795 0.951 . S
C1814 C1812 1.388 . S
C1814 C1815 1.366 . S
C1815 C1814 1.366 . S
C1815 C1816 1.414 . S
C1815 C1818 1.499 . S
C1816 H1796 0.950 . S
C1816 C1815 1.414 . S
C1816 C1817 1.374 . S
C1817 H1797 0.950 . S
C1817 C1813 1.385 . S
C1817 C1816 1.374 . S
C1818 C1815 1.499 . S
C1818 C1819 1.373 . S
C1818 C1820 1.389 . S
C1819 H1798 0.950 . S
C1819 C1818 1.373 . S
C1819 C1835 1.377 . S
C1820 C1818 1.389 . S
C1820 C1821 1.524 . S
C1820 C1834 1.377 . S
C1821 C1820 1.524 . S
C1821 C1822 1.397 . S
C1821 C1826 1.363 . S
C1822 H1799 0.950 . S
C1822 C1821 1.397 . S
C1822 C1823 1.334 . S
C1823 H1800 0.950 . S
C1823 C1822 1.334 . S
C1823 C1824 1.287 . S
C1824 C1823 1.287 . S
C1824 C1825 1.524 . S
C1824 H1843 0.913 . S
C1825 H1801 0.950 . S
C1825 C1824 1.524 . S
C1825 C1826 1.415 . S
C1826 H1802 0.950 . S
C1826 C1821 1.363 . S
C1826 C1825 1.415 . S
C1827 H1803 0.951 . S
C1827 C1828 1.366 . S
C1827 C1829 1.388 . S
C1828 C1827 1.366 . S
C1828 C1832 1.385 . S
C1829 H1804 0.951 . S
C1829 C1827 1.388 . S
C1829 C1830 1.366 . S
C1830 C1829 1.366 . S
C1830 C1831 1.414 . S
C1830 C1833 1.499 . S
C1831 H1805 0.950 . S
C1831 C1830 1.414 . S
C1831 C1832 1.374 . S
C1832 H1806 0.950 . S
C1832 C1828 1.385 . S
C1832 C1831 1.374 . S
C1833 C1830 1.499 . S
C1833 C1834 1.373 . S
C1833 C1835 1.389 . S
C1834 H1807 0.950 . S
C1834 C1820 1.377 . S
C1834 C1833 1.373 . S
C1835 C1819 1.377 . S
C1835 C1833 1.389 . S
C1835 C1836 1.524 . S
C1836 C1835 1.524 . S
C1836 C1837 1.397 . S
C1836 C1841 1.363 . S
C1837 H1808 0.950 . S
C1837 C1836 1.397 . S
C1837 C1838 1.334 . S
C1838 H1809 0.950 . S
C1838 C1837 1.334 . S
C1838 C1839 1.287 . S
C1839 C1838 1.287 . S
C1839 C1840 1.524 . S
C1839 H1842 0.999 . S
C1840 H1810 0.950 . S
C1840 C1839 1.524 . S
C1840 C1841 1.415 . S
C1841 H1811 0.950 . S
C1841 C1836 1.363 . S
C1841 C1840 1.415 . S
H1842 C1839 0.999 . S
H1843 C1824 0.913 . S
H1844 C1862 0.951 . S
H1845 C1864 0.951 . S
H1846 C1866 0.950 . S
H1847 C1867 0.950 . S
H1848 C1869 0.950 . S
H1849 C1872 0.950 . S
H1850 C1873 0.950 . S
H1851 C1875 0.950 . S
H1852 C1876 0.950 . S
H1853 C1877 0.951 . S
H1854 C1879 0.951 . S
H1855 C1881 0.950 . S
H1856 C1882 0.950 . S
H1857 C1884 0.950 . S
H1858 C1887 0.950 . S
H1859 C1888 0.950 . S
H1860 C1890 0.950 . S
H1861 C1891 0.950 . S
C1862 H1844 0.951 . S
C1862 C1863 1.366 . S
C1862 C1864 1.388 . S
C1863 C1862 1.366 . S
C1863 C1867 1.385 . S
C1864 H1845 0.951 . S
C1864 C1862 1.388 . S
C1864 C1865 1.366 . S
C1865 C1864 1.366 . S
C1865 C1866 1.414 . S
C1865 C1868 1.499 . S
C1866 H1846 0.950 . S
C1866 C1865 1.414 . S
C1866 C1867 1.374 . S
C1867 H1847 0.950 . S
C1867 C1863 1.385 . S
C1867 C1866 1.374 . S
C1868 C1865 1.499 . S
C1868 C1869 1.373 . S
C1868 C1870 1.389 . S
C1869 H1848 0.950 . S
C1869 C1868 1.373 . S
C1869 C1885 1.377 . S
C1870 C1868 1.389 . S
C1870 C1871 1.524 . S
C1870 C1884 1.377 . S
C1871 C1870 1.524 . S
C1871 C1872 1.397 . S
C1871 C1876 1.363 . S
C1872 H1849 0.950 . S
C1872 C1871 1.397 . S
C1872 C1873 1.334 . S
C1873 H1850 0.950 . S
C1873 C1872 1.334 . S
C1873 C1874 1.287 . S
C1874 C1873 1.287 . S
C1874 C1875 1.524 . S
C1874 H1893 0.913 . S
C1875 H1851 0.950 . S
C1875 C1874 1.524 . S
C1875 C1876 1.415 . S
C1876 H1852 0.950 . S
C1876 C1871 1.363 . S
C1876 C1875 1.415 . S
C1877 H1853 0.951 . S
C1877 C1878 1.366 . S
C1877 C1879 1.388 . S
C1878 C1877 1.366 . S
C1878 C1882 1.385 . S
C1879 H1854 0.951 . S
C1879 C1877 1.388 . S
C1879 C1880 1.366 . S
C1880 C1879 1.366 . S
C1880 C1881 1.414 . S
C1880 C1883 1.499 . S
C1881 H1855 0.950 . S
C1881 C1880 1.414 . S
C1881 C1882 1.374 . S
C1882 H1856 0.950 . S
C1882 C1878 1.385 . S
C1882 C1881 1.374 . S
C1883 C1880 1.499 . S
C1883 C1884 1.373 . S
C1883 C1885 1.389 . S
C1884 H1857 0.950 . S
C1884 C1870 1.377 . S
C1884 C1883 1.373 . S
C1885 C1869 1.377 . S
C1885 C1883 1.389 . S
C1885 C1886 1.524 . S
C1886 C1885 1.524 . S
C1886 C1887 1.397 . S
C1886 C1891 1.363 . S
C1887 H1858 0.950 . S
C1887 C1886 1.397 . S
C1887 C1888 1.334 . S
C1888 H1859 0.950 . S
C1888 C1887 1.334 . S
C1888 C1889 1.287 . S
C1889 C1888 1.287 . S
C1889 C1890 1.524 . S
C1889 H1892 0.999 . S
C1890 H1860 0.950 . S
C1890 C1889 1.524 . S
C1890 C1891 1.415 . S
C1891 H1861 0.950 . S
C1891 C1886 1.363 . S
C1891 C1890 1.415 . S
H1892 C1889 0.999 . S
H1893 C1874 0.913 . S
H1894 C1912 0.951 . S
H1895 C1914 0.951 . S
H1896 C1916 0.950 . S
H1897 C1917 0.950 . S
H1898 C1919 0.950 . S
H1899 C1922 0.950 . S
H1900 C1923 0.950 . S
H1901 C1925 0.950 . S
H1902 C1926 0.950 . S
H1903 C1927 0.951 . S
H1904 C1929 0.951 . S
H1905 C1931 0.950 . S
H1906 C1932 0.950 . S
H1907 C1934 0.950 . S
H1908 C1937 0.950 . S
H1909 C1938 0.950 . S
H1910 C1940 0.950 . S
H1911 C1941 0.950 . S
C1912 H1894 0.951 . S
C1912 C1913 1.366 . S
C1912 C1914 1.388 . S
C1913 C1912 1.366 . S
C1913 C1917 1.385 . S
C1914 H1895 0.951 . S
C1914 C1912 1.388 . S
C1914 C1915 1.366 . S
C1915 C1914 1.366 . S
C1915 C1916 1.414 . S
C1915 C1918 1.499 . S
C1916 H1896 0.950 . S
C1916 C1915 1.414 . S
C1916 C1917 1.374 . S
C1917 H1897 0.950 . S
C1917 C1913 1.385 . S
C1917 C1916 1.374 . S
C1918 C1915 1.499 . S
C1918 C1919 1.373 . S
C1918 C1920 1.389 . S
C1919 H1898 0.950 . S
C1919 C1918 1.373 . S
C1919 C1935 1.377 . S
C1920 C1918 1.389 . S
C1920 C1921 1.524 . S
C1920 C1934 1.377 . S
C1921 C1920 1.524 . S
C1921 C1922 1.397 . S
C1921 C1926 1.363 . S
C1922 H1899 0.950 . S
C1922 C1921 1.397 . S
C1922 C1923 1.334 . S
C1923 H1900 0.950 . S
C1923 C1922 1.334 . S
C1923 C1924 1.287 . S
C1924 C1923 1.287 . S
C1924 C1925 1.524 . S
C1924 H1943 0.913 . S
C1925 H1901 0.950 . S
C1925 C1924 1.524 . S
C1925 C1926 1.415 . S
C1926 H1902 0.950 . S
C1926 C1921 1.363 . S
C1926 C1925 1.415 . S
C1927 H1903 0.951 . S
C1927 C1928 1.366 . S
C1927 C1929 1.388 . S
C1928 C1927 1.366 . S
C1928 C1932 1.385 . S
C1929 H1904 0.951 . S
C1929 C1927 1.388 . S
C1929 C1930 1.366 . S
C1930 C1929 1.366 . S
C1930 C1931 1.414 . S
C1930 C1933 1.499 . S
C1931 H1905 0.950 . S
C1931 C1930 1.414 . S
C1931 C1932 1.374 . S
C1932 H1906 0.950 . S
C1932 C1928 1.385 . S
C1932 C1931 1.374 . S
C1933 C1930 1.499 . S
C1933 C1934 1.373 . S
C1933 C1935 1.389 . S
C1934 H1907 0.950 . S
C1934 C1920 1.377 . S
C1934 C1933 1.373 . S
C1935 C1919 1.377 . S
C1935 C1933 1.389 . S
C1935 C1936 1.524 . S
C1936 C1935 1.524 . S
C1936 C1937 1.397 . S
C1936 C1941 1.363 . S
C1937 H1908 0.950 . S
C1937 C1936 1.397 . S
C1937 C1938 1.334 . S
C1938 H1909 0.950 . S
C1938 C1937 1.334 . S
C1938 C1939 1.287 . S
C1939 C1938 1.287 . S
C1939 C1940 1.524 . S
C1939 H1942 0.999 . S
C1940 H1910 0.950 . S
C1940 C1939 1.524 . S
C1940 C1941 1.415 . S
C1941 H1911 0.950 . S
C1941 C1936 1.363 . S
C1941 C1940 1.415 . S
H1942 C1939 0.999 . S
H1943 C1924 0.913 . S
H1944 C1962 0.951 . S
H1945 C1964 0.951 . S
H1946 C1966 0.950 . S
H1947 C1967 0.950 . S
H1948 C1969 0.950 . S
H1949 C1972 0.950 . S
H1950 C1973 0.950 . S
H1951 C1975 0.950 . S
H1952 C1976 0.950 1_545 S
H1953 C1977 0.951 . S
H1954 C1979 0.951 . S
H1955 C1981 0.950 . S
H1956 C1982 0.950 . S
H1957 C1984 0.950 . S
H1958 C1987 0.950 . S
H1959 C1988 0.950 . S
H1960 C1990 0.950 . S
H1961 C1991 0.950 . S
C1962 H1944 0.951 . S
C1962 C1963 1.366 . S
C1962 C1964 1.388 . S
C1963 C1962 1.366 . S
C1963 C1967 1.385 . S
C1964 H1945 0.951 . S
C1964 C1962 1.388 . S
C1964 C1965 1.366 . S
C1965 C1964 1.366 . S
C1965 C1966 1.414 . S
C1965 C1968 1.499 . S
C1966 H1946 0.950 . S
C1966 C1965 1.414 . S
C1966 C1967 1.374 . S
C1967 H1947 0.950 . S
C1967 C1963 1.385 . S
C1967 C1966 1.374 . S
C1968 C1965 1.499 . S
C1968 C1969 1.373 1_565 S
C1968 C1970 1.389 1_565 S
C1969 H1948 0.950 . S
C1969 C1968 1.373 1_545 S
C1969 C1985 1.377 . S
C1970 C1968 1.389 1_545 S
C1970 C1971 1.524 1_545 S
C1970 C1984 1.377 . S
C1971 C1970 1.524 1_565 S
C1971 C1972 1.397 . S
C1971 C1976 1.363 . S
C1972 H1949 0.950 . S
C1972 C1971 1.397 . S
C1972 C1973 1.334 . S
C1973 H1950 0.950 . S
C1973 C1972 1.334 . S
C1973 C1974 1.287 . S
C1974 C1973 1.287 . S
C1974 C1975 1.524 . S
C1974 H1993 0.913 . S
C1975 H1951 0.950 . S
C1975 C1974 1.524 . S
C1975 C1976 1.415 . S
C1976 H1952 0.950 1_565 S
C1976 C1971 1.363 . S
C1976 C1975 1.415 . S
C1977 H1953 0.951 . S
C1977 C1978 1.366 . S
C1977 C1979 1.388 . S
C1978 C1977 1.366 . S
C1978 C1982 1.385 . S
C1979 H1954 0.951 . S
C1979 C1977 1.388 . S
C1979 C1980 1.366 . S
C1980 C1979 1.366 . S
C1980 C1981 1.414 . S
C1980 C1983 1.499 . S
C1981 H1955 0.950 . S
C1981 C1980 1.414 . S
C1981 C1982 1.374 . S
C1982 H1956 0.950 . S
C1982 C1978 1.385 . S
C1982 C1981 1.374 . S
C1983 C1980 1.499 . S
C1983 C1984 1.373 . S
C1983 C1985 1.389 . S
C1984 H1957 0.950 . S
C1984 C1970 1.377 . S
C1984 C1983 1.373 . S
C1985 C1969 1.377 . S
C1985 C1983 1.389 . S
C1985 C1986 1.524 . S
C1986 C1985 1.524 . S
C1986 C1987 1.397 . S
C1986 C1991 1.363 . S
C1987 H1958 0.950 . S
C1987 C1986 1.397 . S
C1987 C1988 1.334 . S
C1988 H1959 0.950 . S
C1988 C1987 1.334 . S
C1988 C1989 1.287 . S
C1989 C1988 1.287 . S
C1989 C1990 1.524 . S
C1989 H1992 0.999 . S
C1990 H1960 0.950 . S
C1990 C1989 1.524 . S
C1990 C1991 1.415 . S
C1991 H1961 0.950 . S
C1991 C1986 1.363 . S
C1991 C1990 1.415 . S
H1992 C1989 0.999 . S
H1993 C1974 0.913 . S
H1994 C2012 0.951 . S
H1995 C2014 0.951 . S
H1996 C2016 0.950 . S
H1997 C2017 0.950 . S
H1998 C2019 0.950 . S
H1999 C2022 0.950 . S
H2000 C2023 0.950 . S
H2001 C2025 0.950 . S
H2002 C2026 0.950 . S
H2003 C2027 0.951 . S
H2004 C2029 0.951 . S
H2005 C2031 0.950 . S
H2006 C2032 0.950 . S
H2007 C2034 0.950 . S
H2008 C2037 0.950 . S
H2009 C2038 0.950 . S
H2010 C2040 0.950 . S
H2011 C2041 0.950 . S
C2012 H1994 0.951 . S
C2012 C2013 1.366 . S
C2012 C2014 1.388 . S
C2013 C2012 1.366 . S
C2013 C2017 1.385 . S
C2014 H1995 0.951 . S
C2014 C2012 1.388 . S
C2014 C2015 1.366 . S
C2015 C2014 1.366 . S
C2015 C2016 1.414 . S
C2015 C2018 1.499 1_455 S
C2016 H1996 0.950 . S
C2016 C2015 1.414 . S
C2016 C2017 1.374 . S
C2017 H1997 0.950 . S
C2017 C2013 1.385 . S
C2017 C2016 1.374 . S
C2018 C2015 1.499 1_655 S
C2018 C2019 1.373 . S
C2018 C2020 1.389 . S
C2019 H1998 0.950 . S
C2019 C2018 1.373 . S
C2019 C2035 1.377 . S
C2020 C2018 1.389 . S
C2020 C2021 1.524 . S
C2020 C2034 1.377 . S
C2021 C2020 1.524 . S
C2021 C2022 1.397 1_655 S
C2021 C2026 1.363 . S
C2022 H1999 0.950 . S
C2022 C2021 1.397 1_455 S
C2022 C2023 1.334 . S
C2023 H2000 0.950 . S
C2023 C2022 1.334 . S
C2023 C2024 1.287 . S
C2024 C2023 1.287 . S
C2024 C2025 1.524 1_455 S
C2024 H2043 0.913 . S
C2025 H2001 0.950 . S
C2025 C2024 1.524 1_655 S
C2025 C2026 1.415 . S
C2026 H2002 0.950 . S
C2026 C2021 1.363 . S
C2026 C2025 1.415 . S
C2027 H2003 0.951 . S
C2027 C2028 1.366 . S
C2027 C2029 1.388 . S
C2028 C2027 1.366 . S
C2028 C2032 1.385 . S
C2029 H2004 0.951 . S
C2029 C2027 1.388 . S
C2029 C2030 1.366 . S
C2030 C2029 1.366 . S
C2030 C2031 1.414 . S
C2030 C2033 1.499 . S
C2031 H2005 0.950 . S
C2031 C2030 1.414 . S
C2031 C2032 1.374 . S
C2032 H2006 0.950 . S
C2032 C2028 1.385 . S
C2032 C2031 1.374 . S
C2033 C2030 1.499 . S
C2033 C2034 1.373 . S
C2033 C2035 1.389 . S
C2034 H2007 0.950 . S
C2034 C2020 1.377 . S
C2034 C2033 1.373 . S
C2035 C2019 1.377 . S
C2035 C2033 1.389 . S
C2035 C2036 1.524 . S
C2036 C2035 1.524 . S
C2036 C2037 1.397 . S
C2036 C2041 1.363 . S
C2037 H2008 0.950 . S
C2037 C2036 1.397 . S
C2037 C2038 1.334 . S
C2038 H2009 0.950 . S
C2038 C2037 1.334 . S
C2038 C2039 1.287 . S
C2039 C2038 1.287 . S
C2039 C2040 1.524 . S
C2039 H2042 0.999 . S
C2040 H2010 0.950 . S
C2040 C2039 1.524 . S
C2040 C2041 1.415 . S
C2041 H2011 0.950 . S
C2041 C2036 1.363 . S
C2041 C2040 1.415 . S
H2042 C2039 0.999 . S
H2043 C2024 0.913 . S
H2044 C2062 0.951 . S
H2045 C2064 0.951 . S
H2046 C2066 0.950 . S
H2047 C2067 0.950 . S
H2048 C2069 0.950 . S
H2049 C2072 0.950 . S
H2050 C2073 0.950 . S
H2051 C2075 0.950 . S
H2052 C2076 0.950 . S
H2053 C2077 0.951 . S
H2054 C2079 0.951 . S
H2055 C2081 0.950 . S
H2056 C2082 0.950 . S
H2057 C2084 0.950 . S
H2058 C2087 0.950 . S
H2059 C2088 0.950 . S
H2060 C2090 0.950 . S
H2061 C2091 0.950 . S
C2062 H2044 0.951 . S
C2062 C2063 1.366 . S
C2062 C2064 1.388 . S
C2063 C2062 1.366 . S
C2063 C2067 1.385 . S
C2064 H2045 0.951 . S
C2064 C2062 1.388 . S
C2064 C2065 1.366 . S
C2065 C2064 1.366 . S
C2065 C2066 1.414 . S
C2065 C2068 1.499 . S
C2066 H2046 0.950 . S
C2066 C2065 1.414 . S
C2066 C2067 1.374 . S
C2067 H2047 0.950 . S
C2067 C2063 1.385 . S
C2067 C2066 1.374 . S
C2068 C2065 1.499 . S
C2068 C2069 1.373 . S
C2068 C2070 1.389 . S
C2069 H2048 0.950 . S
C2069 C2068 1.373 . S
C2069 C2085 1.377 . S
C2070 C2068 1.389 . S
C2070 C2071 1.524 . S
C2070 C2084 1.377 . S
C2071 C2070 1.524 . S
C2071 C2072 1.397 . S
C2071 C2076 1.363 . S
C2072 H2049 0.950 . S
C2072 C2071 1.397 . S
C2072 C2073 1.334 . S
C2073 H2050 0.950 . S
C2073 C2072 1.334 . S
C2073 C2074 1.287 . S
C2074 C2073 1.287 . S
C2074 C2075 1.524 . S
C2074 H2093 0.913 . S
C2075 H2051 0.950 . S
C2075 C2074 1.524 . S
C2075 C2076 1.415 . S
C2076 H2052 0.950 . S
C2076 C2071 1.363 . S
C2076 C2075 1.415 . S
C2077 H2053 0.951 . S
C2077 C2078 1.366 . S
C2077 C2079 1.388 . S
C2078 C2077 1.366 . S
C2078 C2082 1.385 . S
C2079 H2054 0.951 . S
C2079 C2077 1.388 . S
C2079 C2080 1.366 . S
C2080 C2079 1.366 . S
C2080 C2081 1.414 . S
C2080 C2083 1.499 . S
C2081 H2055 0.950 . S
C2081 C2080 1.414 . S
C2081 C2082 1.374 . S
C2082 H2056 0.950 . S
C2082 C2078 1.385 . S
C2082 C2081 1.374 . S
C2083 C2080 1.499 . S
C2083 C2084 1.373 . S
C2083 C2085 1.389 . S
C2084 H2057 0.950 . S
C2084 C2070 1.377 . S
C2084 C2083 1.373 . S
C2085 C2069 1.377 . S
C2085 C2083 1.389 . S
C2085 C2086 1.524 . S
C2086 C2085 1.524 . S
C2086 C2087 1.397 . S
C2086 C2091 1.363 . S
C2087 H2058 0.950 . S
C2087 C2086 1.397 . S
C2087 C2088 1.334 . S
C2088 H2059 0.950 . S
C2088 C2087 1.334 . S
C2088 C2089 1.287 . S
C2089 C2088 1.287 . S
C2089 C2090 1.524 . S
C2089 H2092 0.999 . S
C2090 H2060 0.950 . S
C2090 C2089 1.524 . S
C2090 C2091 1.415 . S
C2091 H2061 0.950 . S
C2091 C2086 1.363 . S
C2091 C2090 1.415 . S
H2092 C2089 0.999 . S
H2093 C2074 0.913 . S
H2094 C2112 0.951 . S
H2095 C2114 0.951 . S
H2096 C2116 0.950 . S
H2097 C2117 0.950 . S
H2098 C2119 0.950 . S
H2099 C2122 0.950 . S
H2100 C2123 0.950 . S
H2101 C2125 0.950 . S
H2102 C2126 0.950 . S
H2103 C2127 0.951 . S
H2104 C2129 0.951 . S
H2105 C2131 0.950 . S
H2106 C2132 0.950 . S
H2107 C2134 0.950 . S
H2108 C2137 0.950 . S
H2109 C2138 0.950 . S
H2110 C2140 0.950 . S
H2111 C2141 0.950 . S
C2112 H2094 0.951 . S
C2112 C2113 1.366 . S
C2112 C2114 1.388 . S
C2113 C2112 1.366 . S
C2113 C2117 1.385 . S
C2114 H2095 0.951 . S
C2114 C2112 1.388 . S
C2114 C2115 1.366 . S
C2115 C2114 1.366 . S
C2115 C2116 1.414 . S
C2115 C2118 1.499 . S
C2116 H2096 0.950 . S
C2116 C2115 1.414 . S
C2116 C2117 1.374 . S
C2117 H2097 0.950 . S
C2117 C2113 1.385 . S
C2117 C2116 1.374 . S
C2118 C2115 1.499 . S
C2118 C2119 1.373 . S
C2118 C2120 1.389 . S
C2119 H2098 0.950 . S
C2119 C2118 1.373 . S
C2119 C2135 1.377 . S
C2120 C2118 1.389 . S
C2120 C2121 1.524 . S
C2120 C2134 1.377 . S
C2121 C2120 1.524 . S
C2121 C2122 1.397 . S
C2121 C2126 1.363 . S
C2122 H2099 0.950 . S
C2122 C2121 1.397 . S
C2122 C2123 1.334 . S
C2123 H2100 0.950 . S
C2123 C2122 1.334 . S
C2123 C2124 1.287 . S
C2124 C2123 1.287 . S
C2124 C2125 1.524 . S
C2124 H2143 0.913 . S
C2125 H2101 0.950 . S
C2125 C2124 1.524 . S
C2125 C2126 1.415 . S
C2126 H2102 0.950 . S
C2126 C2121 1.363 . S
C2126 C2125 1.415 . S
C2127 H2103 0.951 . S
C2127 C2128 1.366 . S
C2127 C2129 1.388 . S
C2128 C2127 1.366 . S
C2128 C2132 1.385 . S
C2129 H2104 0.951 . S
C2129 C2127 1.388 . S
C2129 C2130 1.366 . S
C2130 C2129 1.366 . S
C2130 C2131 1.414 . S
C2130 C2133 1.499 . S
C2131 H2105 0.950 . S
C2131 C2130 1.414 . S
C2131 C2132 1.374 . S
C2132 H2106 0.950 . S
C2132 C2128 1.385 . S
C2132 C2131 1.374 . S
C2133 C2130 1.499 . S
C2133 C2134 1.373 1_655 S
C2133 C2135 1.389 1_655 S
C2134 H2107 0.950 . S
C2134 C2120 1.377 . S
C2134 C2133 1.373 1_455 S
C2135 C2119 1.377 . S
C2135 C2133 1.389 1_455 S
C2135 C2136 1.524 1_455 S
C2136 C2135 1.524 1_655 S
C2136 C2137 1.397 . S
C2136 C2141 1.363 . S
C2137 H2108 0.950 . S
C2137 C2136 1.397 . S
C2137 C2138 1.334 . S
C2138 H2109 0.950 . S
C2138 C2137 1.334 . S
C2138 C2139 1.287 . S
C2139 C2138 1.287 . S
C2139 C2140 1.524 . S
C2139 H2142 0.999 . S
C2140 H2110 0.950 . S
C2140 C2139 1.524 . S
C2140 C2141 1.415 . S
C2141 H2111 0.950 . S
C2141 C2136 1.363 . S
C2141 C2140 1.415 . S
H2142 C2139 0.999 . S
H2143 C2124 0.913 . S
H2144 C2162 0.951 . S
H2145 C2164 0.951 . S
H2146 C2166 0.950 . S
H2147 C2167 0.950 . S
H2148 C2169 0.950 . S
H2149 C2172 0.950 . S
H2150 C2173 0.950 . S
H2151 C2175 0.950 . S
H2152 C2176 0.950 . S
H2153 C2177 0.951 . S
H2154 C2179 0.951 . S
H2155 C2181 0.950 . S
H2156 C2182 0.950 . S
H2157 C2184 0.950 . S
H2158 C2187 0.950 . S
H2159 C2188 0.950 . S
H2160 C2190 0.950 . S
H2161 C2191 0.950 . S
C2162 H2144 0.951 . S
C2162 C2163 1.366 . S
C2162 C2164 1.388 . S
C2163 C2162 1.366 . S
C2163 C2167 1.385 . S
C2164 H2145 0.951 . S
C2164 C2162 1.388 . S
C2164 C2165 1.366 . S
C2165 C2164 1.366 . S
C2165 C2166 1.414 . S
C2165 C2168 1.499 . S
C2166 H2146 0.950 . S
C2166 C2165 1.414 . S
C2166 C2167 1.374 . S
C2167 H2147 0.950 . S
C2167 C2163 1.385 . S
C2167 C2166 1.374 . S
C2168 C2165 1.499 . S
C2168 C2169 1.373 . S
C2168 C2170 1.389 . S
C2169 H2148 0.950 . S
C2169 C2168 1.373 . S
C2169 C2185 1.377 . S
C2170 C2168 1.389 . S
C2170 C2171 1.524 . S
C2170 C2184 1.377 . S
C2171 C2170 1.524 . S
C2171 C2172 1.397 . S
C2171 C2176 1.363 . S
C2172 H2149 0.950 . S
C2172 C2171 1.397 . S
C2172 C2173 1.334 . S
C2173 H2150 0.950 . S
C2173 C2172 1.334 . S
C2173 C2174 1.287 . S
C2174 C2173 1.287 . S
C2174 C2175 1.524 . S
C2174 H2193 0.913 . S
C2175 H2151 0.950 . S
C2175 C2174 1.524 . S
C2175 C2176 1.415 . S
C2176 H2152 0.950 . S
C2176 C2171 1.363 . S
C2176 C2175 1.415 . S
C2177 H2153 0.951 . S
C2177 C2178 1.366 . S
C2177 C2179 1.388 . S
C2178 C2177 1.366 . S
C2178 C2182 1.385 . S
C2179 H2154 0.951 . S
C2179 C2177 1.388 . S
C2179 C2180 1.366 . S
C2180 C2179 1.366 . S
C2180 C2181 1.414 . S
C2180 C2183 1.499 . S
C2181 H2155 0.950 . S
C2181 C2180 1.414 . S
C2181 C2182 1.374 . S
C2182 H2156 0.950 . S
C2182 C2178 1.385 . S
C2182 C2181 1.374 . S
C2183 C2180 1.499 . S
C2183 C2184 1.373 . S
C2183 C2185 1.389 . S
C2184 H2157 0.950 . S
C2184 C2170 1.377 . S
C2184 C2183 1.373 . S
C2185 C2169 1.377 . S
C2185 C2183 1.389 . S
C2185 C2186 1.524 . S
C2186 C2185 1.524 . S
C2186 C2187 1.397 . S
C2186 C2191 1.363 . S
C2187 H2158 0.950 . S
C2187 C2186 1.397 . S
C2187 C2188 1.334 . S
C2188 H2159 0.950 . S
C2188 C2187 1.334 . S
C2188 C2189 1.287 . S
C2189 C2188 1.287 . S
C2189 C2190 1.524 . S
C2189 H2192 0.999 . S
C2190 H2160 0.950 . S
C2190 C2189 1.524 . S
C2190 C2191 1.415 . S
C2191 H2161 0.950 . S
C2191 C2186 1.363 . S
C2191 C2190 1.415 . S
H2192 C2189 0.999 . S
H2193 C2174 0.913 . S
H2194 C2212 0.951 . S
H2195 C2214 0.951 . S
H2196 C2216 0.950 . S
H2197 C2217 0.950 . S
H2198 C2219 0.950 . S
H2199 C2222 0.950 . S
H2200 C2223 0.950 . S
H2201 C2225 0.950 . S
H2202 C2226 0.950 . S
H2203 C2227 0.951 . S
H2204 C2229 0.951 . S
H2205 C2231 0.950 . S
H2206 C2232 0.950 . S
H2207 C2234 0.950 . S
H2208 C2237 0.950 . S
H2209 C2238 0.950 . S
H2210 C2240 0.950 . S
H2211 C2241 0.950 . S
C2212 H2194 0.951 . S
C2212 C2213 1.366 . S
C2212 C2214 1.388 . S
C2213 C2212 1.366 . S
C2213 C2217 1.385 . S
C2214 H2195 0.951 . S
C2214 C2212 1.388 . S
C2214 C2215 1.366 . S
C2215 C2214 1.366 . S
C2215 C2216 1.414 . S
C2215 C2218 1.499 . S
C2216 H2196 0.950 . S
C2216 C2215 1.414 . S
C2216 C2217 1.374 . S
C2217 H2197 0.950 . S
C2217 C2213 1.385 . S
C2217 C2216 1.374 . S
C2218 C2215 1.499 . S
C2218 C2219 1.373 . S
C2218 C2220 1.389 . S
C2219 H2198 0.950 . S
C2219 C2218 1.373 . S
C2219 C2235 1.377 1_565 S
C2220 C2218 1.389 . S
C2220 C2221 1.524 . S
C2220 C2234 1.377 1_565 S
C2221 C2220 1.524 . S
C2221 C2222 1.397 . S
C2221 C2226 1.363 . S
C2222 H2199 0.950 . S
C2222 C2221 1.397 . S
C2222 C2223 1.334 . S
C2223 H2200 0.950 . S
C2223 C2222 1.334 . S
C2223 C2224 1.287 . S
C2224 C2223 1.287 . S
C2224 C2225 1.524 . S
C2224 H2243 0.913 . S
C2225 H2201 0.950 . S
C2225 C2224 1.524 . S
C2225 C2226 1.415 . S
C2226 H2202 0.950 . S
C2226 C2221 1.363 . S
C2226 C2225 1.415 . S
C2227 H2203 0.951 . S
C2227 C2228 1.366 . S
C2227 C2229 1.388 . S
C2228 C2227 1.366 . S
C2228 C2232 1.385 . S
C2229 H2204 0.951 . S
C2229 C2227 1.388 . S
C2229 C2230 1.366 . S
C2230 C2229 1.366 . S
C2230 C2231 1.414 . S
C2230 C2233 1.499 . S
C2231 H2205 0.950 . S
C2231 C2230 1.414 . S
C2231 C2232 1.374 . S
C2232 H2206 0.950 . S
C2232 C2228 1.385 . S
C2232 C2231 1.374 . S
C2233 C2230 1.499 . S
C2233 C2234 1.373 . S
C2233 C2235 1.389 . S
C2234 H2207 0.950 . S
C2234 C2220 1.377 1_545 S
C2234 C2233 1.373 . S
C2235 C2219 1.377 1_545 S
C2235 C2233 1.389 . S
C2235 C2236 1.524 . S
C2236 C2235 1.524 . S
C2236 C2237 1.397 . S
C2236 C2241 1.363 . S
C2237 H2208 0.950 . S
C2237 C2236 1.397 . S
C2237 C2238 1.334 . S
C2238 H2209 0.950 . S
C2238 C2237 1.334 . S
C2238 C2239 1.287 . S
C2239 C2238 1.287 . S
C2239 C2240 1.524 . S
C2239 H2242 0.999 . S
C2240 H2210 0.950 . S
C2240 C2239 1.524 . S
C2240 C2241 1.415 . S
C2241 H2211 0.950 . S
C2241 C2236 1.363 . S
C2241 C2240 1.415 . S
H2242 C2239 0.999 . S
H2243 C2224 0.913 . S
H2244 C2262 0.951 . S
H2245 C2264 0.951 . S
H2246 C2266 0.950 . S
H2247 C2267 0.950 . S
H2248 C2269 0.950 . S
H2249 C2272 0.950 . S
H2250 C2273 0.950 . S
H2251 C2275 0.950 . S
H2252 C2276 0.950 . S
H2253 C2277 0.951 . S
H2254 C2279 0.951 . S
H2255 C2281 0.950 . S
H2256 C2282 0.950 . S
H2257 C2284 0.950 . S
H2258 C2287 0.950 . S
H2259 C2288 0.950 . S
H2260 C2290 0.950 . S
H2261 C2291 0.950 . S
C2262 H2244 0.951 . S
C2262 C2263 1.366 . S
C2262 C2264 1.388 . S
C2263 C2262 1.366 . S
C2263 C2267 1.385 . S
C2264 H2245 0.951 . S
C2264 C2262 1.388 . S
C2264 C2265 1.366 . S
C2265 C2264 1.366 . S
C2265 C2266 1.414 . S
C2265 C2268 1.499 . S
C2266 H2246 0.950 . S
C2266 C2265 1.414 . S
C2266 C2267 1.374 . S
C2267 H2247 0.950 . S
C2267 C2263 1.385 . S
C2267 C2266 1.374 . S
C2268 C2265 1.499 . S
C2268 C2269 1.373 . S
C2268 C2270 1.389 . S
C2269 H2248 0.950 . S
C2269 C2268 1.373 . S
C2269 C2285 1.377 . S
C2270 C2268 1.389 . S
C2270 C2271 1.524 . S
C2270 C2284 1.377 . S
C2271 C2270 1.524 . S
C2271 C2272 1.397 . S
C2271 C2276 1.363 . S
C2272 H2249 0.950 . S
C2272 C2271 1.397 . S
C2272 C2273 1.334 . S
C2273 H2250 0.950 . S
C2273 C2272 1.334 . S
C2273 C2274 1.287 . S
C2274 C2273 1.287 . S
C2274 C2275 1.524 . S
C2274 H2293 0.913 . S
C2275 H2251 0.950 . S
C2275 C2274 1.524 . S
C2275 C2276 1.415 . S
C2276 H2252 0.950 . S
C2276 C2271 1.363 . S
C2276 C2275 1.415 . S
C2277 H2253 0.951 . S
C2277 C2278 1.366 . S
C2277 C2279 1.388 . S
C2278 C2277 1.366 . S
C2278 C2282 1.385 . S
C2279 H2254 0.951 . S
C2279 C2277 1.388 . S
C2279 C2280 1.366 . S
C2280 C2279 1.366 . S
C2280 C2281 1.414 . S
C2280 C2283 1.499 . S
C2281 H2255 0.950 . S
C2281 C2280 1.414 . S
C2281 C2282 1.374 . S
C2282 H2256 0.950 . S
C2282 C2278 1.385 . S
C2282 C2281 1.374 . S
C2283 C2280 1.499 . S
C2283 C2284 1.373 . S
C2283 C2285 1.389 . S
C2284 H2257 0.950 . S
C2284 C2270 1.377 . S
C2284 C2283 1.373 . S
C2285 C2269 1.377 . S
C2285 C2283 1.389 . S
C2285 C2286 1.524 . S
C2286 C2285 1.524 . S
C2286 C2287 1.397 . S
C2286 C2291 1.363 . S
C2287 H2258 0.950 . S
C2287 C2286 1.397 . S
C2287 C2288 1.334 . S
C2288 H2259 0.950 . S
C2288 C2287 1.334 . S
C2288 C2289 1.287 . S
C2289 C2288 1.287 . S
C2289 C2290 1.524 . S
C2289 H2292 0.999 . S
C2290 H2260 0.950 . S
C2290 C2289 1.524 . S
C2290 C2291 1.415 . S
C2291 H2261 0.950 . S
C2291 C2286 1.363 . S
C2291 C2290 1.415 . S
H2292 C2289 0.999 . S
H2293 C2274 0.913 . S
H2294 C2312 0.951 . S
H2295 C2314 0.951 . S
H2296 C2316 0.950 . S
H2297 C2317 0.950 . S
H2298 C2319 0.950 . S
H2299 C2322 0.950 . S
H2300 C2323 0.950 . S
H2301 C2325 0.950 . S
H2302 C2326 0.950 . S
H2303 C2327 0.951 . S
H2304 C2329 0.951 . S
H2305 C2331 0.950 . S
H2306 C2332 0.950 . S
H2307 C2334 0.950 . S
H2308 C2337 0.950 . S
H2309 C2338 0.950 . S
H2310 C2340 0.950 . S
H2311 C2341 0.950 . S
C2312 H2294 0.951 . S
C2312 C2313 1.366 . S
C2312 C2314 1.388 . S
C2313 C2312 1.366 . S
C2313 C2317 1.385 . S
C2314 H2295 0.951 . S
C2314 C2312 1.388 . S
C2314 C2315 1.366 . S
C2315 C2314 1.366 . S
C2315 C2316 1.414 . S
C2315 C2318 1.499 . S
C2316 H2296 0.950 . S
C2316 C2315 1.414 . S
C2316 C2317 1.374 . S
C2317 H2297 0.950 . S
C2317 C2313 1.385 . S
C2317 C2316 1.374 . S
C2318 C2315 1.499 . S
C2318 C2319 1.373 . S
C2318 C2320 1.389 . S
C2319 H2298 0.950 . S
C2319 C2318 1.373 . S
C2319 C2335 1.377 . S
C2320 C2318 1.389 . S
C2320 C2321 1.524 . S
C2320 C2334 1.377 . S
C2321 C2320 1.524 . S
C2321 C2322 1.397 . S
C2321 C2326 1.363 . S
C2322 H2299 0.950 . S
C2322 C2321 1.397 . S
C2322 C2323 1.334 . S
C2323 H2300 0.950 . S
C2323 C2322 1.334 . S
C2323 C2324 1.287 . S
C2324 C2323 1.287 . S
C2324 C2325 1.524 . S
C2324 H2343 0.913 . S
C2325 H2301 0.950 . S
C2325 C2324 1.524 . S
C2325 C2326 1.415 . S
C2326 H2302 0.950 . S
C2326 C2321 1.363 . S
C2326 C2325 1.415 . S
C2327 H2303 0.951 . S
C2327 C2328 1.366 . S
C2327 C2329 1.388 . S
C2328 C2327 1.366 . S
C2328 C2332 1.385 . S
C2329 H2304 0.951 . S
C2329 C2327 1.388 . S
C2329 C2330 1.366 . S
C2330 C2329 1.366 . S
C2330 C2331 1.414 . S
C2330 C2333 1.499 . S
C2331 H2305 0.950 . S
C2331 C2330 1.414 . S
C2331 C2332 1.374 . S
C2332 H2306 0.950 . S
C2332 C2328 1.385 . S
C2332 C2331 1.374 . S
C2333 C2330 1.499 . S
C2333 C2334 1.373 . S
C2333 C2335 1.389 . S
C2334 H2307 0.950 . S
C2334 C2320 1.377 . S
C2334 C2333 1.373 . S
C2335 C2319 1.377 . S
C2335 C2333 1.389 . S
C2335 C2336 1.524 . S
C2336 C2335 1.524 . S
C2336 C2337 1.397 . S
C2336 C2341 1.363 . S
C2337 H2308 0.950 . S
C2337 C2336 1.397 . S
C2337 C2338 1.334 . S
C2338 H2309 0.950 . S
C2338 C2337 1.334 . S
C2338 C2339 1.287 . S
C2339 C2338 1.287 . S
C2339 C2340 1.524 . S
C2339 H2342 0.999 . S
C2340 H2310 0.950 . S
C2340 C2339 1.524 . S
C2340 C2341 1.415 . S
C2341 H2311 0.950 . S
C2341 C2336 1.363 . S
C2341 C2340 1.415 . S
H2342 C2339 0.999 . S
H2343 C2324 0.913 . S
H2344 C2362 0.951 . S
H2345 C2364 0.951 . S
H2346 C2366 0.950 . S
H2347 C2367 0.950 . S
H2348 C2369 0.950 . S
H2349 C2372 0.950 . S
H2350 C2373 0.950 . S
H2351 C2375 0.950 . S
H2352 C2376 0.950 . S
H2353 C2377 0.951 . S
H2354 C2379 0.951 . S
H2355 C2381 0.950 . S
H2356 C2382 0.950 . S
H2357 C2384 0.950 . S
H2358 C2387 0.950 . S
H2359 C2388 0.950 . S
H2360 C2390 0.950 . S
H2361 C2391 0.950 . S
C2362 H2344 0.951 . S
C2362 C2363 1.366 . S
C2362 C2364 1.388 . S
C2363 C2362 1.366 . S
C2363 C2367 1.385 . S
C2364 H2345 0.951 . S
C2364 C2362 1.388 . S
C2364 C2365 1.366 . S
C2365 C2364 1.366 . S
C2365 C2366 1.414 . S
C2365 C2368 1.499 . S
C2366 H2346 0.950 . S
C2366 C2365 1.414 . S
C2366 C2367 1.374 . S
C2367 H2347 0.950 . S
C2367 C2363 1.385 . S
C2367 C2366 1.374 . S
C2368 C2365 1.499 . S
C2368 C2369 1.373 . S
C2368 C2370 1.389 . S
C2369 H2348 0.950 . S
C2369 C2368 1.373 . S
C2369 C2385 1.377 . S
C2370 C2368 1.389 . S
C2370 C2371 1.524 . S
C2370 C2384 1.377 . S
C2371 C2370 1.524 . S
C2371 C2372 1.397 . S
C2371 C2376 1.363 . S
C2372 H2349 0.950 . S
C2372 C2371 1.397 . S
C2372 C2373 1.334 . S
C2373 H2350 0.950 . S
C2373 C2372 1.334 . S
C2373 C2374 1.287 . S
C2374 C2373 1.287 . S
C2374 C2375 1.524 . S
C2374 H2393 0.913 . S
C2375 H2351 0.950 . S
C2375 C2374 1.524 . S
C2375 C2376 1.415 . S
C2376 H2352 0.950 . S
C2376 C2371 1.363 . S
C2376 C2375 1.415 . S
C2377 H2353 0.951 . S
C2377 C2378 1.366 . S
C2377 C2379 1.388 . S
C2378 C2377 1.366 . S
C2378 C2382 1.385 . S
C2379 H2354 0.951 . S
C2379 C2377 1.388 . S
C2379 C2380 1.366 . S
C2380 C2379 1.366 . S
C2380 C2381 1.414 . S
C2380 C2383 1.499 . S
C2381 H2355 0.950 . S
C2381 C2380 1.414 . S
C2381 C2382 1.374 . S
C2382 H2356 0.950 . S
C2382 C2378 1.385 . S
C2382 C2381 1.374 . S
C2383 C2380 1.499 . S
C2383 C2384 1.373 . S
C2383 C2385 1.389 . S
C2384 H2357 0.950 . S
C2384 C2370 1.377 . S
C2384 C2383 1.373 . S
C2385 C2369 1.377 . S
C2385 C2383 1.389 . S
C2385 C2386 1.524 . S
C2386 C2385 1.524 . S
C2386 C2387 1.397 . S
C2386 C2391 1.363 . S
C2387 H2358 0.950 . S
C2387 C2386 1.397 . S
C2387 C2388 1.334 . S
C2388 H2359 0.950 . S
C2388 C2387 1.334 . S
C2388 C2389 1.287 . S
C2389 C2388 1.287 . S
C2389 C2390 1.524 . S
C2389 H2392 0.999 . S
C2390 H2360 0.950 . S
C2390 C2389 1.524 . S
C2390 C2391 1.415 . S
C2391 H2361 0.950 . S
C2391 C2386 1.363 . S
C2391 C2390 1.415 . S
H2392 C2389 0.999 . S
H2393 C2374 0.913 . S
H2394 C2412 0.951 . S
H2395 C2414 0.951 . S
H2396 C2416 0.950 . S
H2397 C2417 0.950 . S
H2398 C2419 0.950 . S
H2399 C2422 0.950 . S
H2400 C2423 0.950 . S
H2401 C2425 0.950 1_545 S
H2402 C2426 0.950 . S
H2403 C2427 0.951 . S
H2404 C2429 0.951 . S
H2405 C2431 0.950 . S
H2406 C2432 0.950 . S
H2407 C2434 0.950 . S
H2408 C2437 0.950 . S
H2409 C2438 0.950 . S
H2410 C2440 0.950 . S
H2411 C2441 0.950 . S
C2412 H2394 0.951 . S
C2412 C2413 1.366 . S
C2412 C2414 1.388 . S
C2413 C2412 1.366 . S
C2413 C2417 1.385 . S
C2414 H2395 0.951 . S
C2414 C2412 1.388 . S
C2414 C2415 1.366 . S
C2415 C2414 1.366 . S
C2415 C2416 1.414 . S
C2415 C2418 1.499 . S
C2416 H2396 0.950 . S
C2416 C2415 1.414 . S
C2416 C2417 1.374 . S
C2417 H2397 0.950 . S
C2417 C2413 1.385 . S
C2417 C2416 1.374 . S
C2418 C2415 1.499 . S
C2418 C2419 1.373 . S
C2418 C2420 1.389 . S
C2419 H2398 0.950 . S
C2419 C2418 1.373 . S
C2419 C2435 1.377 . S
C2420 C2418 1.389 . S
C2420 C2421 1.524 . S
C2420 C2434 1.377 . S
C2421 C2420 1.524 . S
C2421 C2422 1.397 . S
C2421 C2426 1.363 . S
C2422 H2399 0.950 . S
C2422 C2421 1.397 . S
C2422 C2423 1.334 . S
C2423 H2400 0.950 . S
C2423 C2422 1.334 . S
C2423 C2424 1.287 . S
C2424 C2423 1.287 . S
C2424 C2425 1.524 . S
C2424 H2443 0.913 1_565 S
C2425 H2401 0.950 1_565 S
C2425 C2424 1.524 . S
C2425 C2426 1.415 . S
C2426 H2402 0.950 . S
C2426 C2421 1.363 . S
C2426 C2425 1.415 . S
C2427 H2403 0.951 . S
C2427 C2428 1.366 . S
C2427 C2429 1.388 . S
C2428 C2427 1.366 . S
C2428 C2432 1.385 . S
C2429 H2404 0.951 . S
C2429 C2427 1.388 . S
C2429 C2430 1.366 . S
C2430 C2429 1.366 . S
C2430 C2431 1.414 . S
C2430 C2433 1.499 . S
C2431 H2405 0.950 . S
C2431 C2430 1.414 . S
C2431 C2432 1.374 . S
C2432 H2406 0.950 . S
C2432 C2428 1.385 . S
C2432 C2431 1.374 . S
C2433 C2430 1.499 . S
C2433 C2434 1.373 . S
C2433 C2435 1.389 . S
C2434 H2407 0.950 . S
C2434 C2420 1.377 . S
C2434 C2433 1.373 . S
C2435 C2419 1.377 . S
C2435 C2433 1.389 . S
C2435 C2436 1.524 . S
C2436 C2435 1.524 . S
C2436 C2437 1.397 . S
C2436 C2441 1.363 . S
C2437 H2408 0.950 . S
C2437 C2436 1.397 . S
C2437 C2438 1.334 . S
C2438 H2409 0.950 . S
C2438 C2437 1.334 . S
C2438 C2439 1.287 . S
C2439 C2438 1.287 . S
C2439 C2440 1.524 . S
C2439 H2442 0.999 . S
C2440 H2410 0.950 . S
C2440 C2439 1.524 . S
C2440 C2441 1.415 . S
C2441 H2411 0.950 . S
C2441 C2436 1.363 . S
C2441 C2440 1.415 . S
H2442 C2439 0.999 . S
H2443 C2424 0.913 1_545 S
H2444 C2462 0.951 . S
H2445 C2464 0.951 . S
H2446 C2466 0.950 . S
H2447 C2467 0.950 . S
H2448 C2469 0.950 . S
H2449 C2472 0.950 . S
H2450 C2473 0.950 . S
H2451 C2475 0.950 . S
H2452 C2476 0.950 . S
H2453 C2477 0.951 . S
H2454 C2479 0.951 . S
H2455 C2481 0.950 . S
H2456 C2482 0.950 . S
H2457 C2484 0.950 . S
H2458 C2487 0.950 . S
H2459 C2488 0.950 1_655 S
H2460 C2490 0.950 . S
H2461 C2491 0.950 . S
C2462 H2444 0.951 . S
C2462 C2463 1.366 . S
C2462 C2464 1.388 . S
C2463 C2462 1.366 . S
C2463 C2467 1.385 . S
C2464 H2445 0.951 . S
C2464 C2462 1.388 . S
C2464 C2465 1.366 . S
C2465 C2464 1.366 . S
C2465 C2466 1.414 . S
C2465 C2468 1.499 . S
C2466 H2446 0.950 . S
C2466 C2465 1.414 . S
C2466 C2467 1.374 . S
C2467 H2447 0.950 . S
C2467 C2463 1.385 . S
C2467 C2466 1.374 . S
C2468 C2465 1.499 . S
C2468 C2469 1.373 . S
C2468 C2470 1.389 . S
C2469 H2448 0.950 . S
C2469 C2468 1.373 . S
C2469 C2485 1.377 . S
C2470 C2468 1.389 . S
C2470 C2471 1.524 . S
C2470 C2484 1.377 . S
C2471 C2470 1.524 . S
C2471 C2472 1.397 . S
C2471 C2476 1.363 . S
C2472 H2449 0.950 . S
C2472 C2471 1.397 . S
C2472 C2473 1.334 . S
C2473 H2450 0.950 . S
C2473 C2472 1.334 . S
C2473 C2474 1.287 . S
C2474 C2473 1.287 . S
C2474 C2475 1.524 . S
C2474 H2493 0.913 . S
C2475 H2451 0.950 . S
C2475 C2474 1.524 . S
C2475 C2476 1.415 . S
C2476 H2452 0.950 . S
C2476 C2471 1.363 . S
C2476 C2475 1.415 . S
C2477 H2453 0.951 . S
C2477 C2478 1.366 . S
C2477 C2479 1.388 . S
C2478 C2477 1.366 . S
C2478 C2482 1.385 . S
C2479 H2454 0.951 . S
C2479 C2477 1.388 . S
C2479 C2480 1.366 . S
C2480 C2479 1.366 . S
C2480 C2481 1.414 . S
C2480 C2483 1.499 . S
C2481 H2455 0.950 . S
C2481 C2480 1.414 . S
C2481 C2482 1.374 . S
C2482 H2456 0.950 . S
C2482 C2478 1.385 . S
C2482 C2481 1.374 . S
C2483 C2480 1.499 . S
C2483 C2484 1.373 . S
C2483 C2485 1.389 . S
C2484 H2457 0.950 . S
C2484 C2470 1.377 . S
C2484 C2483 1.373 . S
C2485 C2469 1.377 . S
C2485 C2483 1.389 . S
C2485 C2486 1.524 . S
C2486 C2485 1.524 . S
C2486 C2487 1.397 . S
C2486 C2491 1.363 . S
C2487 H2458 0.950 . S
C2487 C2486 1.397 . S
C2487 C2488 1.334 . S
C2488 H2459 0.950 1_455 S
C2488 C2487 1.334 . S
C2488 C2489 1.287 . S
C2489 C2488 1.287 . S
C2489 C2490 1.524 . S
C2489 H2492 0.999 . S
C2490 H2460 0.950 . S
C2490 C2489 1.524 . S
C2490 C2491 1.415 . S
C2491 H2461 0.950 . S
C2491 C2486 1.363 . S
C2491 C2490 1.415 . S
H2492 C2489 0.999 . S
H2493 C2474 0.913 . S
H2494 C2512 0.951 . S
H2495 C2514 0.951 . S
H2496 C2516 0.950 . S
H2497 C2517 0.950 . S
H2498 C2519 0.950 . S
H2499 C2522 0.950 . S
H2500 C2523 0.950 . S
H2501 C2525 0.950 . S
H2502 C2526 0.950 . S
H2503 C2527 0.951 . S
H2504 C2529 0.951 . S
H2505 C2531 0.950 . S
H2506 C2532 0.950 . S
H2507 C2534 0.950 . S
H2508 C2537 0.950 . S
H2509 C2538 0.950 . S
H2510 C2540 0.950 . S
H2511 C2541 0.950 . S
C2512 H2494 0.951 . S
C2512 C2513 1.366 . S
C2512 C2514 1.388 . S
C2513 C2512 1.366 . S
C2513 C2517 1.385 . S
C2514 H2495 0.951 . S
C2514 C2512 1.388 . S
C2514 C2515 1.366 . S
C2515 C2514 1.366 . S
C2515 C2516 1.414 . S
C2515 C2518 1.499 . S
C2516 H2496 0.950 . S
C2516 C2515 1.414 . S
C2516 C2517 1.374 . S
C2517 H2497 0.950 . S
C2517 C2513 1.385 . S
C2517 C2516 1.374 . S
C2518 C2515 1.499 . S
C2518 C2519 1.373 . S
C2518 C2520 1.389 . S
C2519 H2498 0.950 . S
C2519 C2518 1.373 . S
C2519 C2535 1.377 . S
C2520 C2518 1.389 . S
C2520 C2521 1.524 . S
C2520 C2534 1.377 . S
C2521 C2520 1.524 . S
C2521 C2522 1.397 . S
C2521 C2526 1.363 . S
C2522 H2499 0.950 . S
C2522 C2521 1.397 . S
C2522 C2523 1.334 . S
C2523 H2500 0.950 . S
C2523 C2522 1.334 . S
C2523 C2524 1.287 . S
C2524 C2523 1.287 . S
C2524 C2525 1.524 . S
C2524 H2543 0.913 . S
C2525 H2501 0.950 . S
C2525 C2524 1.524 . S
C2525 C2526 1.415 . S
C2526 H2502 0.950 . S
C2526 C2521 1.363 . S
C2526 C2525 1.415 . S
C2527 H2503 0.951 . S
C2527 C2528 1.366 . S
C2527 C2529 1.388 . S
C2528 C2527 1.366 . S
C2528 C2532 1.385 . S
C2529 H2504 0.951 . S
C2529 C2527 1.388 . S
C2529 C2530 1.366 . S
C2530 C2529 1.366 . S
C2530 C2531 1.414 . S
C2530 C2533 1.499 . S
C2531 H2505 0.950 . S
C2531 C2530 1.414 . S
C2531 C2532 1.374 . S
C2532 H2506 0.950 . S
C2532 C2528 1.385 . S
C2532 C2531 1.374 . S
C2533 C2530 1.499 . S
C2533 C2534 1.373 . S
C2533 C2535 1.389 . S
C2534 H2507 0.950 . S
C2534 C2520 1.377 . S
C2534 C2533 1.373 . S
C2535 C2519 1.377 . S
C2535 C2533 1.389 . S
C2535 C2536 1.524 . S
C2536 C2535 1.524 . S
C2536 C2537 1.397 . S
C2536 C2541 1.363 . S
C2537 H2508 0.950 . S
C2537 C2536 1.397 . S
C2537 C2538 1.334 . S
C2538 H2509 0.950 . S
C2538 C2537 1.334 . S
C2538 C2539 1.287 . S
C2539 C2538 1.287 . S
C2539 C2540 1.524 . S
C2539 H2542 0.999 . S
C2540 H2510 0.950 . S
C2540 C2539 1.524 . S
C2540 C2541 1.415 . S
C2541 H2511 0.950 . S
C2541 C2536 1.363 . S
C2541 C2540 1.415 . S
H2542 C2539 0.999 . S
H2543 C2524 0.913 . S
H2544 C2562 0.951 . S
H2545 C2564 0.951 . S
H2546 C2566 0.950 . S
H2547 C2567 0.950 . S
H2548 C2569 0.950 . S
H2549 C2572 0.950 . S
H2550 C2573 0.950 . S
H2551 C2575 0.950 1_455 S
H2552 C2576 0.950 1_455 S
H2553 C2577 0.951 . S
H2554 C2579 0.951 . S
H2555 C2581 0.950 1_455 S
H2556 C2582 0.950 1_455 S
H2557 C2584 0.950 . S
H2558 C2587 0.950 . S
H2559 C2588 0.950 . S
H2560 C2590 0.950 . S
H2561 C2591 0.950 . S
C2562 H2544 0.951 . S
C2562 C2563 1.366 . S
C2562 C2564 1.388 . S
C2563 C2562 1.366 . S
C2563 C2567 1.385 . S
C2564 H2545 0.951 . S
C2564 C2562 1.388 . S
C2564 C2565 1.366 . S
C2565 C2564 1.366 . S
C2565 C2566 1.414 . S
C2565 C2568 1.499 . S
C2566 H2546 0.950 . S
C2566 C2565 1.414 . S
C2566 C2567 1.374 . S
C2567 H2547 0.950 . S
C2567 C2563 1.385 . S
C2567 C2566 1.374 . S
C2568 C2565 1.499 . S
C2568 C2569 1.373 . S
C2568 C2570 1.389 . S
C2569 H2548 0.950 . S
C2569 C2568 1.373 . S
C2569 C2585 1.377 . S
C2570 C2568 1.389 . S
C2570 C2571 1.524 . S
C2570 C2584 1.377 . S
C2571 C2570 1.524 . S
C2571 C2572 1.397 . S
C2571 C2576 1.363 . S
C2572 H2549 0.950 . S
C2572 C2571 1.397 . S
C2572 C2573 1.334 . S
C2573 H2550 0.950 . S
C2573 C2572 1.334 . S
C2573 C2574 1.287 . S
C2574 C2573 1.287 . S
C2574 C2575 1.524 . S
C2574 H2593 0.913 . S
C2575 H2551 0.950 1_655 S
C2575 C2574 1.524 . S
C2575 C2576 1.415 . S
C2576 H2552 0.950 1_655 S
C2576 C2571 1.363 . S
C2576 C2575 1.415 . S
C2577 H2553 0.951 . S
C2577 C2578 1.366 . S
C2577 C2579 1.388 . S
C2578 C2577 1.366 . S
C2578 C2582 1.385 . S
C2579 H2554 0.951 . S
C2579 C2577 1.388 . S
C2579 C2580 1.366 . S
C2580 C2579 1.366 . S
C2580 C2581 1.414 . S
C2580 C2583 1.499 . S
C2581 H2555 0.950 1_655 S
C2581 C2580 1.414 . S
C2581 C2582 1.374 . S
C2582 H2556 0.950 1_655 S
C2582 C2578 1.385 . S
C2582 C2581 1.374 . S
C2583 C2580 1.499 . S
C2583 C2584 1.373 . S
C2583 C2585 1.389 . S
C2584 H2557 0.950 . S
C2584 C2570 1.377 . S
C2584 C2583 1.373 . S
C2585 C2569 1.377 . S
C2585 C2583 1.389 . S
C2585 C2586 1.524 . S
C2586 C2585 1.524 . S
C2586 C2587 1.397 . S
C2586 C2591 1.363 . S
C2587 H2558 0.950 . S
C2587 C2586 1.397 . S
C2587 C2588 1.334 . S
C2588 H2559 0.950 . S
C2588 C2587 1.334 . S
C2588 C2589 1.287 . S
C2589 C2588 1.287 . S
C2589 C2590 1.524 . S
C2589 H2592 0.999 . S
C2590 H2560 0.950 . S
C2590 C2589 1.524 . S
C2590 C2591 1.415 . S
C2591 H2561 0.950 . S
C2591 C2586 1.363 . S
C2591 C2590 1.415 . S
H2592 C2589 0.999 . S
H2593 C2574 0.913 . S
H2594 C2612 0.951 . S
H2595 C2614 0.951 . S
H2596 C2616 0.950 . S
H2597 C2617 0.950 . S
H2598 C2619 0.950 . S
H2599 C2622 0.950 . S
H2600 C2623 0.950 . S
H2601 C2625 0.950 . S
H2602 C2626 0.950 . S
H2603 C2627 0.951 . S
H2604 C2629 0.951 . S
H2605 C2631 0.950 . S
H2606 C2632 0.950 . S
H2607 C2634 0.950 . S
H2608 C2637 0.950 . S
H2609 C2638 0.950 . S
H2610 C2640 0.950 . S
H2611 C2641 0.950 . S
C2612 H2594 0.951 . S
C2612 C2613 1.366 . S
C2612 C2614 1.388 . S
C2613 C2612 1.366 . S
C2613 C2617 1.385 . S
C2614 H2595 0.951 . S
C2614 C2612 1.388 . S
C2614 C2615 1.366 . S
C2615 C2614 1.366 . S
C2615 C2616 1.414 . S
C2615 C2618 1.499 . S
C2616 H2596 0.950 . S
C2616 C2615 1.414 . S
C2616 C2617 1.374 . S
C2617 H2597 0.950 . S
C2617 C2613 1.385 . S
C2617 C2616 1.374 . S
C2618 C2615 1.499 . S
C2618 C2619 1.373 . S
C2618 C2620 1.389 . S
C2619 H2598 0.950 . S
C2619 C2618 1.373 . S
C2619 C2635 1.377 . S
C2620 C2618 1.389 . S
C2620 C2621 1.524 . S
C2620 C2634 1.377 . S
C2621 C2620 1.524 . S
C2621 C2622 1.397 . S
C2621 C2626 1.363 . S
C2622 H2599 0.950 . S
C2622 C2621 1.397 . S
C2622 C2623 1.334 . S
C2623 H2600 0.950 . S
C2623 C2622 1.334 . S
C2623 C2624 1.287 . S
C2624 C2623 1.287 . S
C2624 C2625 1.524 . S
C2624 H2643 0.913 . S
C2625 H2601 0.950 . S
C2625 C2624 1.524 . S
C2625 C2626 1.415 . S
C2626 H2602 0.950 . S
C2626 C2621 1.363 . S
C2626 C2625 1.415 . S
C2627 H2603 0.951 . S
C2627 C2628 1.366 . S
C2627 C2629 1.388 . S
C2628 C2627 1.366 . S
C2628 C2632 1.385 . S
C2629 H2604 0.951 . S
C2629 C2627 1.388 . S
C2629 C2630 1.366 . S
C2630 C2629 1.366 . S
C2630 C2631 1.414 . S
C2630 C2633 1.499 . S
C2631 H2605 0.950 . S
C2631 C2630 1.414 . S
C2631 C2632 1.374 . S
C2632 H2606 0.950 . S
C2632 C2628 1.385 . S
C2632 C2631 1.374 . S
C2633 C2630 1.499 . S
C2633 C2634 1.373 . S
C2633 C2635 1.389 . S
C2634 H2607 0.950 . S
C2634 C2620 1.377 . S
C2634 C2633 1.373 . S
C2635 C2619 1.377 . S
C2635 C2633 1.389 . S
C2635 C2636 1.524 . S
C2636 C2635 1.524 . S
C2636 C2637 1.397 . S
C2636 C2641 1.363 . S
C2637 H2608 0.950 . S
C2637 C2636 1.397 . S
C2637 C2638 1.334 . S
C2638 H2609 0.950 . S
C2638 C2637 1.334 . S
C2638 C2639 1.287 . S
C2639 C2638 1.287 . S
C2639 C2640 1.524 . S
C2639 H2642 0.999 . S
C2640 H2610 0.950 . S
C2640 C2639 1.524 . S
C2640 C2641 1.415 . S
C2641 H2611 0.950 . S
C2641 C2636 1.363 . S
C2641 C2640 1.415 . S
H2642 C2639 0.999 . S
H2643 C2624 0.913 . S
H2644 C2662 0.951 . S
H2645 C2664 0.951 . S
H2646 C2666 0.950 . S
H2647 C2667 0.950 . S
H2648 C2669 0.950 . S
H2649 C2672 0.950 . S
H2650 C2673 0.950 . S
H2651 C2675 0.950 . S
H2652 C2676 0.950 . S
H2653 C2677 0.951 . S
H2654 C2679 0.951 . S
H2655 C2681 0.950 . S
H2656 C2682 0.950 . S
H2657 C2684 0.950 . S
H2658 C2687 0.950 . S
H2659 C2688 0.950 1_565 S
H2660 C2690 0.950 . S
H2661 C2691 0.950 . S
C2662 H2644 0.951 . S
C2662 C2663 1.366 . S
C2662 C2664 1.388 . S
C2663 C2662 1.366 . S
C2663 C2667 1.385 . S
C2664 H2645 0.951 . S
C2664 C2662 1.388 . S
C2664 C2665 1.366 . S
C2665 C2664 1.366 . S
C2665 C2666 1.414 . S
C2665 C2668 1.499 . S
C2666 H2646 0.950 . S
C2666 C2665 1.414 . S
C2666 C2667 1.374 . S
C2667 H2647 0.950 . S
C2667 C2663 1.385 . S
C2667 C2666 1.374 . S
C2668 C2665 1.499 . S
C2668 C2669 1.373 . S
C2668 C2670 1.389 . S
C2669 H2648 0.950 . S
C2669 C2668 1.373 . S
C2669 C2685 1.377 . S
C2670 C2668 1.389 . S
C2670 C2671 1.524 . S
C2670 C2684 1.377 . S
C2671 C2670 1.524 . S
C2671 C2672 1.397 . S
C2671 C2676 1.363 . S
C2672 H2649 0.950 . S
C2672 C2671 1.397 . S
C2672 C2673 1.334 . S
C2673 H2650 0.950 . S
C2673 C2672 1.334 . S
C2673 C2674 1.287 . S
C2674 C2673 1.287 . S
C2674 C2675 1.524 . S
C2674 H2693 0.913 . S
C2675 H2651 0.950 . S
C2675 C2674 1.524 . S
C2675 C2676 1.415 . S
C2676 H2652 0.950 . S
C2676 C2671 1.363 . S
C2676 C2675 1.415 . S
C2677 H2653 0.951 . S
C2677 C2678 1.366 . S
C2677 C2679 1.388 . S
C2678 C2677 1.366 . S
C2678 C2682 1.385 . S
C2679 H2654 0.951 . S
C2679 C2677 1.388 . S
C2679 C2680 1.366 . S
C2680 C2679 1.366 . S
C2680 C2681 1.414 . S
C2680 C2683 1.499 . S
C2681 H2655 0.950 . S
C2681 C2680 1.414 . S
C2681 C2682 1.374 . S
C2682 H2656 0.950 . S
C2682 C2678 1.385 . S
C2682 C2681 1.374 . S
C2683 C2680 1.499 . S
C2683 C2684 1.373 . S
C2683 C2685 1.389 . S
C2684 H2657 0.950 . S
C2684 C2670 1.377 . S
C2684 C2683 1.373 . S
C2685 C2669 1.377 . S
C2685 C2683 1.389 . S
C2685 C2686 1.524 . S
C2686 C2685 1.524 . S
C2686 C2687 1.397 . S
C2686 C2691 1.363 . S
C2687 H2658 0.950 . S
C2687 C2686 1.397 . S
C2687 C2688 1.334 . S
C2688 H2659 0.950 1_545 S
C2688 C2687 1.334 . S
C2688 C2689 1.271 1_545 S
C2689 C2688 1.271 1_565 S
C2689 C2690 1.514 1_565 S
C2689 H2692 1.028 . S
C2690 H2660 0.950 . S
C2690 C2689 1.514 1_545 S
C2690 C2691 1.415 . S
C2691 H2661 0.950 . S
C2691 C2686 1.363 . S
C2691 C2690 1.415 . S
H2692 C2689 1.028 . S
H2693 C2674 0.913 . S
H2694 C2712 0.951 . S
H2695 C2714 0.951 . S
H2696 C2716 0.950 . S
H2697 C2717 0.950 . S
H2698 C2719 0.950 . S
H2699 C2722 0.950 . S
H2700 C2723 0.950 . S
H2701 C2725 0.950 . S
H2702 C2726 0.950 . S
H2703 C2727 0.951 . S
H2704 C2729 0.951 . S
H2705 C2731 0.950 . S
H2706 C2732 0.950 . S
H2707 C2734 0.950 . S
H2708 C2737 0.950 . S
H2709 C2738 0.950 . S
H2710 C2740 0.950 . S
H2711 C2741 0.950 . S
C2712 H2694 0.951 . S
C2712 C2713 1.366 . S
C2712 C2714 1.388 . S
C2713 C2712 1.366 . S
C2713 C2717 1.385 . S
C2714 H2695 0.951 . S
C2714 C2712 1.388 . S
C2714 C2715 1.366 . S
C2715 C2714 1.366 . S
C2715 C2716 1.414 . S
C2715 C2718 1.499 . S
C2716 H2696 0.950 . S
C2716 C2715 1.414 . S
C2716 C2717 1.374 . S
C2717 H2697 0.950 . S
C2717 C2713 1.385 . S
C2717 C2716 1.374 . S
C2718 C2715 1.499 . S
C2718 C2719 1.373 . S
C2718 C2720 1.389 . S
C2719 H2698 0.950 . S
C2719 C2718 1.373 . S
C2719 C2735 1.377 . S
C2720 C2718 1.389 . S
C2720 C2721 1.524 . S
C2720 C2734 1.377 . S
C2721 C2720 1.524 . S
C2721 C2722 1.397 . S
C2721 C2726 1.363 . S
C2722 H2699 0.950 . S
C2722 C2721 1.397 . S
C2722 C2723 1.334 . S
C2723 H2700 0.950 . S
C2723 C2722 1.334 . S
C2723 C2724 1.287 . S
C2724 C2723 1.287 . S
C2724 C2725 1.524 . S
C2724 H2743 0.913 . S
C2725 H2701 0.950 . S
C2725 C2724 1.524 . S
C2725 C2726 1.415 . S
C2726 H2702 0.950 . S
C2726 C2721 1.363 . S
C2726 C2725 1.415 . S
C2727 H2703 0.951 . S
C2727 C2728 1.366 . S
C2727 C2729 1.388 . S
C2728 C2727 1.366 . S
C2728 C2732 1.385 . S
C2729 H2704 0.951 . S
C2729 C2727 1.388 . S
C2729 C2730 1.366 . S
C2730 C2729 1.366 . S
C2730 C2731 1.414 . S
C2730 C2733 1.499 . S
C2731 H2705 0.950 . S
C2731 C2730 1.414 . S
C2731 C2732 1.374 . S
C2732 H2706 0.950 . S
C2732 C2728 1.385 . S
C2732 C2731 1.374 . S
C2733 C2730 1.499 . S
C2733 C2734 1.373 . S
C2733 C2735 1.389 . S
C2734 H2707 0.950 . S
C2734 C2720 1.377 . S
C2734 C2733 1.373 . S
C2735 C2719 1.377 . S
C2735 C2733 1.389 . S
C2735 C2736 1.524 . S
C2736 C2735 1.524 . S
C2736 C2737 1.397 . S
C2736 C2741 1.363 . S
C2737 H2708 0.950 . S
C2737 C2736 1.397 . S
C2737 C2738 1.334 . S
C2738 H2709 0.950 . S
C2738 C2737 1.334 . S
C2738 C2739 1.287 . S
C2739 C2738 1.287 . S
C2739 C2740 1.524 . S
C2739 H2742 0.999 . S
C2740 H2710 0.950 . S
C2740 C2739 1.524 . S
C2740 C2741 1.415 . S
C2741 H2711 0.950 . S
C2741 C2736 1.363 . S
C2741 C2740 1.415 . S
H2742 C2739 0.999 . S
H2743 C2724 0.913 . S
H2744 C2762 0.951 . S
H2745 C2764 0.951 . S
H2746 C2766 0.950 . S
H2747 C2767 0.950 . S
H2748 C2769 0.950 . S
H2749 C2772 0.950 . S
H2750 C2773 0.950 . S
H2751 C2775 0.950 . S
H2752 C2776 0.950 . S
H2753 C2777 0.951 . S
H2754 C2779 0.951 . S
H2755 C2781 0.950 . S
H2756 C2782 0.950 . S
H2757 C2784 0.950 . S
H2758 C2787 0.950 . S
H2759 C2788 0.950 . S
H2760 C2790 0.950 . S
H2761 C2791 0.950 . S
C2762 H2744 0.951 . S
C2762 C2763 1.366 . S
C2762 C2764 1.388 . S
C2763 C2762 1.366 . S
C2763 C2767 1.385 . S
C2764 H2745 0.951 . S
C2764 C2762 1.388 . S
C2764 C2765 1.366 . S
C2765 C2764 1.366 . S
C2765 C2766 1.414 . S
C2765 C2768 1.499 . S
C2766 H2746 0.950 . S
C2766 C2765 1.414 . S
C2766 C2767 1.374 . S
C2767 H2747 0.950 . S
C2767 C2763 1.385 . S
C2767 C2766 1.374 . S
C2768 C2765 1.499 . S
C2768 C2769 1.373 . S
C2768 C2770 1.389 . S
C2769 H2748 0.950 . S
C2769 C2768 1.373 . S
C2769 C2785 1.377 . S
C2770 C2768 1.389 . S
C2770 C2771 1.524 . S
C2770 C2784 1.377 . S
C2771 C2770 1.524 . S
C2771 C2772 1.397 . S
C2771 C2776 1.363 . S
C2772 H2749 0.950 . S
C2772 C2771 1.397 . S
C2772 C2773 1.334 . S
C2773 H2750 0.950 . S
C2773 C2772 1.334 . S
C2773 C2774 1.287 . S
C2774 C2773 1.287 . S
C2774 C2775 1.524 . S
C2774 H2793 0.913 . S
C2775 H2751 0.950 . S
C2775 C2774 1.524 . S
C2775 C2776 1.415 . S
C2776 H2752 0.950 . S
C2776 C2771 1.363 . S
C2776 C2775 1.415 . S
C2777 H2753 0.951 . S
C2777 C2778 1.366 . S
C2777 C2779 1.388 . S
C2778 C2777 1.366 . S
C2778 C2782 1.385 . S
C2779 H2754 0.951 . S
C2779 C2777 1.388 . S
C2779 C2780 1.366 . S
C2780 C2779 1.366 . S
C2780 C2781 1.414 . S
C2780 C2783 1.499 . S
C2781 H2755 0.950 . S
C2781 C2780 1.414 . S
C2781 C2782 1.374 . S
C2782 H2756 0.950 . S
C2782 C2778 1.385 . S
C2782 C2781 1.374 . S
C2783 C2780 1.499 . S
C2783 C2784 1.373 . S
C2783 C2785 1.389 . S
C2784 H2757 0.950 . S
C2784 C2770 1.377 . S
C2784 C2783 1.373 . S
C2785 C2769 1.377 . S
C2785 C2783 1.389 . S
C2785 C2786 1.524 . S
C2786 C2785 1.524 . S
C2786 C2787 1.397 . S
C2786 C2791 1.363 . S
C2787 H2758 0.950 . S
C2787 C2786 1.397 . S
C2787 C2788 1.334 . S
C2788 H2759 0.950 . S
C2788 C2787 1.334 . S
C2788 C2789 1.287 . S
C2789 C2788 1.287 . S
C2789 C2790 1.524 . S
C2789 H2792 0.999 . S
C2790 H2760 0.950 . S
C2790 C2789 1.524 . S
C2790 C2791 1.415 . S
C2791 H2761 0.950 . S
C2791 C2786 1.363 . S
C2791 C2790 1.415 . S
H2792 C2789 0.999 . S
H2793 C2774 0.913 . S
H2794 C2812 0.951 . S
H2795 C2814 0.951 . S
H2796 C2816 0.950 . S
H2797 C2817 0.950 . S
H2798 C2819 0.950 . S
H2799 C2822 0.950 . S
H2800 C2823 0.950 . S
H2801 C2825 0.950 . S
H2802 C2826 0.950 . S
H2803 C2827 0.951 . S
H2804 C2829 0.951 . S
H2805 C2831 0.950 . S
H2806 C2832 0.950 . S
H2807 C2834 0.950 . S
H2808 C2837 0.950 . S
H2809 C2838 0.950 . S
H2810 C2840 0.950 . S
H2811 C2841 0.950 . S
C2812 H2794 0.951 . S
C2812 C2813 1.366 . S
C2812 C2814 1.388 . S
C2813 C2812 1.366 . S
C2813 C2817 1.385 . S
C2814 H2795 0.951 . S
C2814 C2812 1.388 . S
C2814 C2815 1.366 . S
C2815 C2814 1.366 . S
C2815 C2816 1.414 . S
C2815 C2818 1.499 . S
C2816 H2796 0.950 . S
C2816 C2815 1.414 . S
C2816 C2817 1.374 . S
C2817 H2797 0.950 . S
C2817 C2813 1.385 . S
C2817 C2816 1.374 . S
C2818 C2815 1.499 . S
C2818 C2819 1.373 . S
C2818 C2820 1.389 . S
C2819 H2798 0.950 . S
C2819 C2818 1.373 . S
C2819 C2835 1.377 . S
C2820 C2818 1.389 . S
C2820 C2821 1.524 . S
C2820 C2834 1.377 . S
C2821 C2820 1.524 . S
C2821 C2822 1.397 . S
C2821 C2826 1.363 . S
C2822 H2799 0.950 . S
C2822 C2821 1.397 . S
C2822 C2823 1.334 . S
C2823 H2800 0.950 . S
C2823 C2822 1.334 . S
C2823 C2824 1.287 . S
C2824 C2823 1.287 . S
C2824 C2825 1.524 . S
C2824 H2843 0.913 . S
C2825 H2801 0.950 . S
C2825 C2824 1.524 . S
C2825 C2826 1.415 . S
C2826 H2802 0.950 . S
C2826 C2821 1.363 . S
C2826 C2825 1.415 . S
C2827 H2803 0.951 . S
C2827 C2828 1.366 . S
C2827 C2829 1.388 . S
C2828 C2827 1.366 . S
C2828 C2832 1.385 . S
C2829 H2804 0.951 . S
C2829 C2827 1.388 . S
C2829 C2830 1.366 . S
C2830 C2829 1.366 . S
C2830 C2831 1.414 . S
C2830 C2833 1.499 . S
C2831 H2805 0.950 . S
C2831 C2830 1.414 . S
C2831 C2832 1.374 . S
C2832 H2806 0.950 . S
C2832 C2828 1.385 . S
C2832 C2831 1.374 . S
C2833 C2830 1.499 . S
C2833 C2834 1.373 . S
C2833 C2835 1.389 . S
C2834 H2807 0.950 . S
C2834 C2820 1.377 . S
C2834 C2833 1.373 . S
C2835 C2819 1.377 . S
C2835 C2833 1.389 . S
C2835 C2836 1.524 . S
C2836 C2835 1.524 . S
C2836 C2837 1.397 . S
C2836 C2841 1.363 . S
C2837 H2808 0.950 . S
C2837 C2836 1.397 . S
C2837 C2838 1.334 . S
C2838 H2809 0.950 . S
C2838 C2837 1.334 . S
C2838 C2839 1.287 . S
C2839 C2838 1.287 . S
C2839 C2840 1.524 . S
C2839 H2842 0.999 . S
C2840 H2810 0.950 . S
C2840 C2839 1.524 . S
C2840 C2841 1.415 . S
C2841 H2811 0.950 . S
C2841 C2836 1.363 . S
C2841 C2840 1.415 . S
H2842 C2839 0.999 . S
H2843 C2824 0.913 . S
H2844 C2862 0.951 . S
H2845 C2864 0.951 . S
H2846 C2866 0.950 . S
H2847 C2867 0.950 . S
H2848 C2869 0.950 . S
H2849 C2872 0.950 . S
H2850 C2873 0.950 . S
H2851 C2875 0.950 . S
H2852 C2876 0.950 . S
H2853 C2877 0.951 . S
H2854 C2879 0.951 . S
H2855 C2881 0.950 . S
H2856 C2882 0.950 . S
H2857 C2884 0.950 . S
H2858 C2887 0.950 . S
H2859 C2888 0.950 . S
H2860 C2890 0.950 . S
H2861 C2891 0.950 . S
C2862 H2844 0.951 . S
C2862 C2863 1.366 . S
C2862 C2864 1.388 . S
C2863 C2862 1.366 . S
C2863 C2867 1.385 . S
C2864 H2845 0.951 . S
C2864 C2862 1.388 . S
C2864 C2865 1.366 . S
C2865 C2864 1.366 . S
C2865 C2866 1.414 . S
C2865 C2868 1.499 . S
C2866 H2846 0.950 . S
C2866 C2865 1.414 . S
C2866 C2867 1.374 . S
C2867 H2847 0.950 . S
C2867 C2863 1.385 . S
C2867 C2866 1.374 . S
C2868 C2865 1.499 . S
C2868 C2869 1.373 . S
C2868 C2870 1.389 . S
C2869 H2848 0.950 . S
C2869 C2868 1.373 . S
C2869 C2885 1.377 . S
C2870 C2868 1.389 . S
C2870 C2871 1.524 . S
C2870 C2884 1.377 . S
C2871 C2870 1.524 . S
C2871 C2872 1.397 . S
C2871 C2876 1.363 . S
C2872 H2849 0.950 . S
C2872 C2871 1.397 . S
C2872 C2873 1.334 . S
C2873 H2850 0.950 . S
C2873 C2872 1.334 . S
C2873 C2874 1.287 . S
C2874 C2873 1.287 . S
C2874 C2875 1.524 . S
C2874 H2893 0.913 . S
C2875 H2851 0.950 . S
C2875 C2874 1.524 . S
C2875 C2876 1.415 . S
C2876 H2852 0.950 . S
C2876 C2871 1.363 . S
C2876 C2875 1.415 . S
C2877 H2853 0.951 . S
C2877 C2878 1.366 . S
C2877 C2879 1.388 . S
C2878 C2877 1.366 . S
C2878 C2882 1.385 . S
C2879 H2854 0.951 . S
C2879 C2877 1.388 . S
C2879 C2880 1.366 . S
C2880 C2879 1.366 . S
C2880 C2881 1.414 . S
C2880 C2883 1.499 . S
C2881 H2855 0.950 . S
C2881 C2880 1.414 . S
C2881 C2882 1.374 . S
C2882 H2856 0.950 . S
C2882 C2878 1.385 . S
C2882 C2881 1.374 . S
C2883 C2880 1.499 . S
C2883 C2884 1.373 . S
C2883 C2885 1.389 . S
C2884 H2857 0.950 . S
C2884 C2870 1.377 . S
C2884 C2883 1.373 . S
C2885 C2869 1.377 . S
C2885 C2883 1.389 . S
C2885 C2886 1.524 . S
C2886 C2885 1.524 . S
C2886 C2887 1.397 . S
C2886 C2891 1.363 . S
C2887 H2858 0.950 . S
C2887 C2886 1.397 . S
C2887 C2888 1.334 . S
C2888 H2859 0.950 . S
C2888 C2887 1.334 . S
C2888 C2889 1.287 . S
C2889 C2888 1.287 . S
C2889 C2890 1.524 . S
C2889 H2892 0.999 . S
C2890 H2860 0.950 . S
C2890 C2889 1.524 . S
C2890 C2891 1.415 . S
C2891 H2861 0.950 . S
C2891 C2886 1.363 . S
C2891 C2890 1.415 . S
H2892 C2889 0.999 . S
H2893 C2874 0.913 . S
H2894 C2912 0.951 . S
H2895 C2914 0.951 . S
H2896 C2916 0.950 . S
H2897 C2917 0.950 . S
H2898 C2919 0.950 . S
H2899 C2922 0.950 . S
H2900 C2923 0.950 . S
H2901 C2925 0.950 . S
H2902 C2926 0.950 . S
H2903 C2927 0.951 . S
H2904 C2929 0.951 . S
H2905 C2931 0.950 . S
H2906 C2932 0.950 . S
H2907 C2934 0.950 . S
H2908 C2937 0.950 . S
H2909 C2938 0.950 . S
H2910 C2940 0.950 . S
H2911 C2941 0.950 . S
C2912 H2894 0.951 . S
C2912 C2913 1.366 . S
C2912 C2914 1.388 . S
C2913 C2912 1.366 . S
C2913 C2917 1.385 . S
C2914 H2895 0.951 . S
C2914 C2912 1.388 . S
C2914 C2915 1.366 . S
C2915 C2914 1.366 . S
C2915 C2916 1.414 . S
C2915 C2918 1.499 . S
C2916 H2896 0.950 . S
C2916 C2915 1.414 . S
C2916 C2917 1.374 . S
C2917 H2897 0.950 . S
C2917 C2913 1.385 . S
C2917 C2916 1.374 . S
C2918 C2915 1.499 . S
C2918 C2919 1.373 . S
C2918 C2920 1.389 . S
C2919 H2898 0.950 . S
C2919 C2918 1.373 . S
C2919 C2935 1.377 . S
C2920 C2918 1.389 . S
C2920 C2921 1.524 . S
C2920 C2934 1.377 . S
C2921 C2920 1.524 . S
C2921 C2922 1.397 . S
C2921 C2926 1.363 . S
C2922 H2899 0.950 . S
C2922 C2921 1.397 . S
C2922 C2923 1.334 . S
C2923 H2900 0.950 . S
C2923 C2922 1.334 . S
C2923 C2924 1.287 . S
C2924 C2923 1.287 . S
C2924 C2925 1.524 . S
C2924 H2943 0.913 . S
C2925 H2901 0.950 . S
C2925 C2924 1.524 . S
C2925 C2926 1.415 . S
C2926 H2902 0.950 . S
C2926 C2921 1.363 . S
C2926 C2925 1.415 . S
C2927 H2903 0.951 . S
C2927 C2928 1.366 . S
C2927 C2929 1.388 . S
C2928 C2927 1.366 . S
C2928 C2932 1.385 . S
C2929 H2904 0.951 . S
C2929 C2927 1.388 . S
C2929 C2930 1.366 . S
C2930 C2929 1.366 . S
C2930 C2931 1.414 . S
C2930 C2933 1.499 . S
C2931 H2905 0.950 . S
C2931 C2930 1.414 . S
C2931 C2932 1.374 . S
C2932 H2906 0.950 . S
C2932 C2928 1.385 . S
C2932 C2931 1.374 . S
C2933 C2930 1.499 . S
C2933 C2934 1.373 . S
C2933 C2935 1.389 . S
C2934 H2907 0.950 . S
C2934 C2920 1.377 . S
C2934 C2933 1.373 . S
C2935 C2919 1.377 . S
C2935 C2933 1.389 . S
C2935 C2936 1.524 . S
C2936 C2935 1.524 . S
C2936 C2937 1.397 . S
C2936 C2941 1.363 . S
C2937 H2908 0.950 . S
C2937 C2936 1.397 . S
C2937 C2938 1.334 . S
C2938 H2909 0.950 . S
C2938 C2937 1.334 . S
C2938 C2939 1.287 . S
C2939 C2938 1.287 . S
C2939 C2940 1.524 . S
C2939 H2942 0.999 . S
C2940 H2910 0.950 . S
C2940 C2939 1.524 . S
C2940 C2941 1.415 . S
C2941 H2911 0.950 . S
C2941 C2936 1.363 . S
C2941 C2940 1.415 . S
H2942 C2939 0.999 . S
H2943 C2924 0.913 . S
H2944 C2962 0.951 . S
H2945 C2964 0.951 . S
H2946 C2966 0.950 . S
H2947 C2967 0.950 . S
H2948 C2969 0.950 . S
H2949 C2972 0.950 . S
H2950 C2973 0.950 . S
H2951 C2975 0.950 . S
H2952 C2976 0.950 . S
H2953 C2977 0.951 . S
H2954 C2979 0.951 . S
H2955 C2981 0.950 . S
H2956 C2982 0.950 . S
H2957 C2984 0.950 . S
H2958 C2987 0.950 . S
H2959 C2988 0.950 . S
H2960 C2990 0.950 . S
H2961 C2991 0.950 . S
C2962 H2944 0.951 . S
C2962 C2963 1.366 . S
C2962 C2964 1.388 . S
C2963 C2962 1.366 . S
C2963 C2967 1.385 . S
C2964 H2945 0.951 . S
C2964 C2962 1.388 . S
C2964 C2965 1.366 . S
C2965 C2964 1.366 . S
C2965 C2966 1.414 . S
C2965 C2968 1.499 . S
C2966 H2946 0.950 . S
C2966 C2965 1.414 . S
C2966 C2967 1.374 . S
C2967 H2947 0.950 . S
C2967 C2963 1.385 . S
C2967 C2966 1.374 . S
C2968 C2965 1.499 . S
C2968 C2969 1.373 . S
C2968 C2970 1.389 . S
C2969 H2948 0.950 . S
C2969 C2968 1.373 . S
C2969 C2985 1.377 . S
C2970 C2968 1.389 . S
C2970 C2971 1.524 . S
C2970 C2984 1.377 . S
C2971 C2970 1.524 . S
C2971 C2972 1.397 . S
C2971 C2976 1.363 . S
C2972 H2949 0.950 . S
C2972 C2971 1.397 . S
C2972 C2973 1.334 . S
C2973 H2950 0.950 . S
C2973 C2972 1.334 . S
C2973 C2974 1.287 . S
C2974 C2973 1.287 . S
C2974 C2975 1.524 . S
C2974 H2993 0.913 . S
C2975 H2951 0.950 . S
C2975 C2974 1.524 . S
C2975 C2976 1.415 . S
C2976 H2952 0.950 . S
C2976 C2971 1.363 . S
C2976 C2975 1.415 . S
C2977 H2953 0.951 . S
C2977 C2978 1.366 . S
C2977 C2979 1.388 . S
C2978 C2977 1.366 . S
C2978 C2982 1.385 . S
C2979 H2954 0.951 . S
C2979 C2977 1.388 . S
C2979 C2980 1.366 . S
C2980 C2979 1.366 . S
C2980 C2981 1.414 . S
C2980 C2983 1.499 . S
C2981 H2955 0.950 . S
C2981 C2980 1.414 . S
C2981 C2982 1.374 . S
C2982 H2956 0.950 . S
C2982 C2978 1.385 . S
C2982 C2981 1.374 . S
C2983 C2980 1.499 . S
C2983 C2984 1.373 . S
C2983 C2985 1.389 . S
C2984 H2957 0.950 . S
C2984 C2970 1.377 . S
C2984 C2983 1.373 . S
C2985 C2969 1.377 . S
C2985 C2983 1.389 . S
C2985 C2986 1.524 . S
C2986 C2985 1.524 . S
C2986 C2987 1.397 . S
C2986 C2991 1.363 . S
C2987 H2958 0.950 . S
C2987 C2986 1.397 . S
C2987 C2988 1.334 . S
C2988 H2959 0.950 . S
C2988 C2987 1.334 . S
C2988 C2989 1.287 . S
C2989 C2988 1.287 . S
C2989 C2990 1.524 . S
C2989 H2992 0.999 . S
C2990 H2960 0.950 . S
C2990 C2989 1.524 . S
C2990 C2991 1.415 . S
C2991 H2961 0.950 . S
C2991 C2986 1.363 . S
C2991 C2990 1.415 . S
H2992 C2989 0.999 . S
H2993 C2974 0.913 . S
H2994 C3012 0.951 . S
H2995 C3014 0.951 . S
H2996 C3016 0.950 . S
H2997 C3017 0.950 . S
H2998 C3019 0.950 . S
H2999 C3022 0.950 . S
H3000 C3023 0.950 . S
H3001 C3025 0.950 . S
H3002 C3026 0.950 . S
H3003 C3027 0.951 . S
H3004 C3029 0.951 . S
H3005 C3031 0.950 . S
H3006 C3032 0.950 . S
H3007 C3034 0.950 . S
H3008 C3037 0.950 . S
H3009 C3038 0.950 . S
H3010 C3040 0.950 . S
H3011 C3041 0.950 . S
C3012 H2994 0.951 . S
C3012 C3013 1.366 . S
C3012 C3014 1.388 . S
C3013 C3012 1.366 . S
C3013 C3017 1.385 . S
C3014 H2995 0.951 . S
C3014 C3012 1.388 . S
C3014 C3015 1.366 . S
C3015 C3014 1.366 . S
C3015 C3016 1.414 . S
C3015 C3018 1.499 . S
C3016 H2996 0.950 . S
C3016 C3015 1.414 . S
C3016 C3017 1.374 . S
C3017 H2997 0.950 . S
C3017 C3013 1.385 . S
C3017 C3016 1.374 . S
C3018 C3015 1.499 . S
C3018 C3019 1.373 . S
C3018 C3020 1.389 . S
C3019 H2998 0.950 . S
C3019 C3018 1.373 . S
C3019 C3035 1.377 . S
C3020 C3018 1.389 . S
C3020 C3021 1.524 . S
C3020 C3034 1.377 . S
C3021 C3020 1.524 . S
C3021 C3022 1.397 . S
C3021 C3026 1.363 . S
C3022 H2999 0.950 . S
C3022 C3021 1.397 . S
C3022 C3023 1.334 . S
C3023 H3000 0.950 . S
C3023 C3022 1.334 . S
C3023 C3024 1.287 . S
C3024 C3023 1.287 . S
C3024 C3025 1.524 . S
C3024 H3043 0.913 . S
C3025 H3001 0.950 . S
C3025 C3024 1.524 . S
C3025 C3026 1.415 . S
C3026 H3002 0.950 . S
C3026 C3021 1.363 . S
C3026 C3025 1.415 . S
C3027 H3003 0.951 . S
C3027 C3028 1.366 . S
C3027 C3029 1.388 . S
C3028 C3027 1.366 . S
C3028 C3032 1.385 . S
C3029 H3004 0.951 . S
C3029 C3027 1.388 . S
C3029 C3030 1.366 . S
C3030 C3029 1.366 . S
C3030 C3031 1.414 . S
C3030 C3033 1.499 . S
C3031 H3005 0.950 . S
C3031 C3030 1.414 . S
C3031 C3032 1.374 . S
C3032 H3006 0.950 . S
C3032 C3028 1.385 . S
C3032 C3031 1.374 . S
C3033 C3030 1.499 . S
C3033 C3034 1.373 . S
C3033 C3035 1.389 . S
C3034 H3007 0.950 . S
C3034 C3020 1.377 . S
C3034 C3033 1.373 . S
C3035 C3019 1.377 . S
C3035 C3033 1.389 . S
C3035 C3036 1.524 . S
C3036 C3035 1.524 . S
C3036 C3037 1.397 . S
C3036 C3041 1.363 . S
C3037 H3008 0.950 . S
C3037 C3036 1.397 . S
C3037 C3038 1.334 . S
C3038 H3009 0.950 . S
C3038 C3037 1.334 . S
C3038 C3039 1.287 . S
C3039 C3038 1.287 . S
C3039 C3040 1.524 . S
C3039 H3042 0.999 . S
C3040 H3010 0.950 . S
C3040 C3039 1.524 . S
C3040 C3041 1.415 . S
C3041 H3011 0.950 . S
C3041 C3036 1.363 . S
C3041 C3040 1.415 . S
H3042 C3039 0.999 . S
H3043 C3024 0.913 . S
H3044 C3062 0.951 . S
H3045 C3064 0.951 . S
H3046 C3066 0.950 . S
H3047 C3067 0.950 . S
H3048 C3069 0.950 . S
H3049 C3072 0.950 . S
H3050 C3073 0.950 . S
H3051 C3075 0.950 . S
H3052 C3076 0.950 . S
H3053 C3077 0.951 . S
H3054 C3079 0.951 . S
H3055 C3081 0.950 . S
H3056 C3082 0.950 . S
H3057 C3084 0.950 . S
H3058 C3087 0.950 . S
H3059 C3088 0.950 . S
H3060 C3090 0.950 . S
H3061 C3091 0.950 . S
C3062 H3044 0.951 . S
C3062 C3063 1.366 . S
C3062 C3064 1.388 . S
C3063 C3062 1.366 . S
C3063 C3067 1.385 . S
C3064 H3045 0.951 . S
C3064 C3062 1.388 . S
C3064 C3065 1.366 . S
C3065 C3064 1.366 . S
C3065 C3066 1.414 . S
C3065 C3068 1.499 . S
C3066 H3046 0.950 . S
C3066 C3065 1.414 . S
C3066 C3067 1.374 . S
C3067 H3047 0.950 . S
C3067 C3063 1.385 . S
C3067 C3066 1.374 . S
C3068 C3065 1.499 . S
C3068 C3069 1.373 . S
C3068 C3070 1.389 . S
C3069 H3048 0.950 . S
C3069 C3068 1.373 . S
C3069 C3085 1.377 . S
C3070 C3068 1.389 . S
C3070 C3071 1.524 . S
C3070 C3084 1.377 . S
C3071 C3070 1.524 . S
C3071 C3072 1.397 . S
C3071 C3076 1.363 . S
C3072 H3049 0.950 . S
C3072 C3071 1.397 . S
C3072 C3073 1.334 . S
C3073 H3050 0.950 . S
C3073 C3072 1.334 . S
C3073 C3074 1.287 . S
C3074 C3073 1.287 . S
C3074 C3075 1.524 . S
C3074 H3093 0.913 . S
C3075 H3051 0.950 . S
C3075 C3074 1.524 . S
C3075 C3076 1.415 . S
C3076 H3052 0.950 . S
C3076 C3071 1.363 . S
C3076 C3075 1.415 . S
C3077 H3053 0.951 . S
C3077 C3078 1.366 . S
C3077 C3079 1.388 . S
C3078 C3077 1.366 . S
C3078 C3082 1.385 . S
C3079 H3054 0.951 . S
C3079 C3077 1.388 . S
C3079 C3080 1.366 . S
C3080 C3079 1.366 . S
C3080 C3081 1.414 . S
C3080 C3083 1.499 . S
C3081 H3055 0.950 . S
C3081 C3080 1.414 . S
C3081 C3082 1.374 . S
C3082 H3056 0.950 . S
C3082 C3078 1.385 . S
C3082 C3081 1.374 . S
C3083 C3080 1.499 . S
C3083 C3084 1.373 . S
C3083 C3085 1.389 . S
C3084 H3057 0.950 . S
C3084 C3070 1.377 . S
C3084 C3083 1.373 . S
C3085 C3069 1.377 . S
C3085 C3083 1.389 . S
C3085 C3086 1.524 . S
C3086 C3085 1.524 . S
C3086 C3087 1.397 . S
C3086 C3091 1.363 . S
C3087 H3058 0.950 . S
C3087 C3086 1.397 . S
C3087 C3088 1.334 . S
C3088 H3059 0.950 . S
C3088 C3087 1.334 . S
C3088 C3089 1.287 . S
C3089 C3088 1.287 . S
C3089 C3090 1.524 . S
C3089 H3092 0.999 . S
C3090 H3060 0.950 . S
C3090 C3089 1.524 . S
C3090 C3091 1.415 . S
C3091 H3061 0.950 . S
C3091 C3086 1.363 . S
C3091 C3090 1.415 . S
H3092 C3089 0.999 . S
H3093 C3074 0.913 . S
H3094 C3112 0.951 . S
H3095 C3114 0.951 . S
H3096 C3116 0.950 . S
H3097 C3117 0.950 . S
H3098 C3119 0.950 . S
H3099 C3122 0.950 . S
H3100 C3123 0.950 . S
H3101 C3125 0.950 . S
H3102 C3126 0.950 . S
H3103 C3127 0.951 . S
H3104 C3129 0.951 . S
H3105 C3131 0.950 . S
H3106 C3132 0.950 . S
H3107 C3134 0.950 . S
H3108 C3137 0.950 . S
H3109 C3138 0.950 . S
H3110 C3140 0.950 . S
H3111 C3141 0.950 . S
C3112 H3094 0.951 . S
C3112 C3113 1.366 . S
C3112 C3114 1.388 . S
C3113 C3112 1.366 . S
C3113 C3117 1.385 . S
C3114 H3095 0.951 . S
C3114 C3112 1.388 . S
C3114 C3115 1.366 . S
C3115 C3114 1.366 . S
C3115 C3116 1.414 . S
C3115 C3118 1.499 . S
C3116 H3096 0.950 . S
C3116 C3115 1.414 . S
C3116 C3117 1.374 . S
C3117 H3097 0.950 . S
C3117 C3113 1.385 . S
C3117 C3116 1.374 . S
C3118 C3115 1.499 . S
C3118 C3119 1.373 . S
C3118 C3120 1.389 . S
C3119 H3098 0.950 . S
C3119 C3118 1.373 . S
C3119 C3135 1.377 . S
C3120 C3118 1.389 . S
C3120 C3121 1.524 . S
C3120 C3134 1.377 . S
C3121 C3120 1.524 . S
C3121 C3122 1.397 . S
C3121 C3126 1.363 . S
C3122 H3099 0.950 . S
C3122 C3121 1.397 . S
C3122 C3123 1.334 . S
C3123 H3100 0.950 . S
C3123 C3122 1.334 . S
C3123 C3124 1.287 . S
C3124 C3123 1.287 . S
C3124 C3125 1.524 . S
C3124 H3143 0.913 . S
C3125 H3101 0.950 . S
C3125 C3124 1.524 . S
C3125 C3126 1.415 . S
C3126 H3102 0.950 . S
C3126 C3121 1.363 . S
C3126 C3125 1.415 . S
C3127 H3103 0.951 . S
C3127 C3128 1.366 . S
C3127 C3129 1.388 . S
C3128 C3127 1.366 . S
C3128 C3132 1.385 . S
C3129 H3104 0.951 . S
C3129 C3127 1.388 . S
C3129 C3130 1.366 . S
C3130 C3129 1.366 . S
C3130 C3131 1.414 . S
C3130 C3133 1.499 . S
C3131 H3105 0.950 . S
C3131 C3130 1.414 . S
C3131 C3132 1.374 . S
C3132 H3106 0.950 . S
C3132 C3128 1.385 . S
C3132 C3131 1.374 . S
C3133 C3130 1.499 . S
C3133 C3134 1.373 . S
C3133 C3135 1.389 . S
C3134 H3107 0.950 . S
C3134 C3120 1.377 . S
C3134 C3133 1.373 . S
C3135 C3119 1.377 . S
C3135 C3133 1.389 . S
C3135 C3136 1.524 . S
C3136 C3135 1.524 . S
C3136 C3137 1.397 . S
C3136 C3141 1.363 . S
C3137 H3108 0.950 . S
C3137 C3136 1.397 . S
C3137 C3138 1.334 . S
C3138 H3109 0.950 . S
C3138 C3137 1.334 . S
C3138 C3139 1.287 . S
C3139 C3138 1.287 . S
C3139 C3140 1.524 . S
C3139 H3142 0.999 . S
C3140 H3110 0.950 . S
C3140 C3139 1.524 . S
C3140 C3141 1.415 . S
C3141 H3111 0.950 . S
C3141 C3136 1.363 . S
C3141 C3140 1.415 . S
H3142 C3139 0.999 . S
H3143 C3124 0.913 . S
H3144 C3162 0.951 . S
H3145 C3164 0.951 . S
H3146 C3166 0.950 . S
H3147 C3167 0.950 . S
H3148 C3169 0.950 . S
H3149 C3172 0.950 . S
H3150 C3173 0.950 . S
H3151 C3175 0.950 . S
H3152 C3176 0.950 . S
H3153 C3177 0.951 . S
H3154 C3179 0.951 . S
H3155 C3181 0.950 . S
H3156 C3182 0.950 . S
H3157 C3184 0.950 . S
H3158 C3187 0.950 . S
H3159 C3188 0.950 . S
H3160 C3190 0.950 . S
H3161 C3191 0.950 . S
C3162 H3144 0.951 . S
C3162 C3163 1.366 . S
C3162 C3164 1.388 . S
C3163 C3162 1.366 . S
C3163 C3167 1.385 . S
C3164 H3145 0.951 . S
C3164 C3162 1.388 . S
C3164 C3165 1.366 . S
C3165 C3164 1.366 . S
C3165 C3166 1.414 . S
C3165 C3168 1.499 . S
C3166 H3146 0.950 . S
C3166 C3165 1.414 . S
C3166 C3167 1.374 . S
C3167 H3147 0.950 . S
C3167 C3163 1.385 . S
C3167 C3166 1.374 . S
C3168 C3165 1.499 . S
C3168 C3169 1.373 . S
C3168 C3170 1.389 . S
C3169 H3148 0.950 . S
C3169 C3168 1.373 . S
C3169 C3185 1.377 . S
C3170 C3168 1.389 . S
C3170 C3171 1.524 . S
C3170 C3184 1.377 . S
C3171 C3170 1.524 . S
C3171 C3172 1.397 . S
C3171 C3176 1.363 . S
C3172 H3149 0.950 . S
C3172 C3171 1.397 . S
C3172 C3173 1.334 . S
C3173 H3150 0.950 . S
C3173 C3172 1.334 . S
C3173 C3174 1.287 . S
C3174 C3173 1.287 . S
C3174 C3175 1.524 . S
C3174 H3193 0.913 . S
C3175 H3151 0.950 . S
C3175 C3174 1.524 . S
C3175 C3176 1.415 . S
C3176 H3152 0.950 . S
C3176 C3171 1.363 . S
C3176 C3175 1.415 . S
C3177 H3153 0.951 . S
C3177 C3178 1.366 . S
C3177 C3179 1.388 . S
C3178 C3177 1.366 . S
C3178 C3182 1.385 . S
C3179 H3154 0.951 . S
C3179 C3177 1.388 . S
C3179 C3180 1.366 . S
C3180 C3179 1.366 . S
C3180 C3181 1.414 . S
C3180 C3183 1.499 . S
C3181 H3155 0.950 . S
C3181 C3180 1.414 . S
C3181 C3182 1.374 . S
C3182 H3156 0.950 . S
C3182 C3178 1.385 . S
C3182 C3181 1.374 . S
C3183 C3180 1.499 . S
C3183 C3184 1.373 . S
C3183 C3185 1.389 . S
C3184 H3157 0.950 . S
C3184 C3170 1.377 . S
C3184 C3183 1.373 . S
C3185 C3169 1.377 . S
C3185 C3183 1.389 . S
C3185 C3186 1.524 . S
C3186 C3185 1.524 . S
C3186 C3187 1.397 . S
C3186 C3191 1.363 . S
C3187 H3158 0.950 . S
C3187 C3186 1.397 . S
C3187 C3188 1.334 . S
C3188 H3159 0.950 . S
C3188 C3187 1.334 . S
C3188 C3189 1.287 . S
C3189 C3188 1.287 . S
C3189 C3190 1.524 . S
C3189 H3192 0.999 . S
C3190 H3160 0.950 . S
C3190 C3189 1.524 . S
C3190 C3191 1.415 . S
C3191 H3161 0.950 . S
C3191 C3186 1.363 . S
C3191 C3190 1.415 . S
H3192 C3189 0.999 . S
H3193 C3174 0.913 . S
H3194 C3212 0.951 . S
H3195 C3214 0.951 . S
H3196 C3216 0.950 . S
H3197 C3217 0.950 . S
H3198 C3219 0.950 . S
H3199 C3222 0.950 . S
H3200 C3223 0.950 . S
H3201 C3225 0.950 . S
H3202 C3226 0.950 . S
H3203 C3227 0.951 . S
H3204 C3229 0.951 . S
H3205 C3231 0.950 . S
H3206 C3232 0.950 . S
H3207 C3234 0.950 . S
H3208 C3237 0.950 . S
H3209 C3238 0.950 . S
H3210 C3240 0.950 . S
H3211 C3241 0.950 . S
C3212 H3194 0.951 . S
C3212 C3213 1.366 . S
C3212 C3214 1.388 . S
C3213 C3212 1.366 . S
C3213 C3217 1.385 . S
C3214 H3195 0.951 . S
C3214 C3212 1.388 . S
C3214 C3215 1.366 . S
C3215 C3214 1.366 . S
C3215 C3216 1.414 . S
C3215 C3218 1.499 . S
C3216 H3196 0.950 . S
C3216 C3215 1.414 . S
C3216 C3217 1.374 . S
C3217 H3197 0.950 . S
C3217 C3213 1.385 . S
C3217 C3216 1.374 . S
C3218 C3215 1.499 . S
C3218 C3219 1.373 . S
C3218 C3220 1.389 . S
C3219 H3198 0.950 . S
C3219 C3218 1.373 . S
C3219 C3235 1.377 . S
C3220 C3218 1.389 . S
C3220 C3221 1.524 . S
C3220 C3234 1.377 . S
C3221 C3220 1.524 . S
C3221 C3222 1.397 . S
C3221 C3226 1.363 . S
C3222 H3199 0.950 . S
C3222 C3221 1.397 . S
C3222 C3223 1.334 . S
C3223 H3200 0.950 . S
C3223 C3222 1.334 . S
C3223 C3224 1.287 . S
C3224 C3223 1.287 . S
C3224 C3225 1.524 . S
C3224 H3243 0.913 . S
C3225 H3201 0.950 . S
C3225 C3224 1.524 . S
C3225 C3226 1.415 . S
C3226 H3202 0.950 . S
C3226 C3221 1.363 . S
C3226 C3225 1.415 . S
C3227 H3203 0.951 . S
C3227 C3228 1.366 . S
C3227 C3229 1.388 . S
C3228 C3227 1.366 . S
C3228 C3232 1.385 . S
C3229 H3204 0.951 . S
C3229 C3227 1.388 . S
C3229 C3230 1.366 . S
C3230 C3229 1.366 . S
C3230 C3231 1.414 . S
C3230 C3233 1.499 . S
C3231 H3205 0.950 . S
C3231 C3230 1.414 . S
C3231 C3232 1.374 . S
C3232 H3206 0.950 . S
C3232 C3228 1.385 . S
C3232 C3231 1.374 . S
C3233 C3230 1.499 . S
C3233 C3234 1.373 . S
C3233 C3235 1.389 . S
C3234 H3207 0.950 . S
C3234 C3220 1.377 . S
C3234 C3233 1.373 . S
C3235 C3219 1.377 . S
C3235 C3233 1.389 . S
C3235 C3236 1.524 . S
C3236 C3235 1.524 . S
C3236 C3237 1.397 . S
C3236 C3241 1.363 . S
C3237 H3208 0.950 . S
C3237 C3236 1.397 . S
C3237 C3238 1.334 . S
C3238 H3209 0.950 . S
C3238 C3237 1.334 . S
C3238 C3239 1.287 . S
C3239 C3238 1.287 . S
C3239 C3240 1.524 . S
C3239 H3242 0.999 . S
C3240 H3210 0.950 . S
C3240 C3239 1.524 . S
C3240 C3241 1.415 . S
C3241 H3211 0.950 . S
C3241 C3236 1.363 . S
C3241 C3240 1.415 . S
H3242 C3239 0.999 . S
H3243 C3224 0.913 . S
H3244 C3262 0.951 . S
H3245 C3264 0.951 . S
H3246 C3266 0.950 . S
H3247 C3267 0.950 . S
H3248 C3269 0.950 . S
H3249 C3272 0.950 . S
H3250 C3273 0.950 . S
H3251 C3275 0.950 . S
H3252 C3276 0.950 . S
H3253 C3277 0.951 . S
H3254 C3279 0.951 . S
H3255 C3281 0.950 . S
H3256 C3282 0.950 . S
H3257 C3284 0.950 . S
H3258 C3287 0.950 . S
H3259 C3288 0.950 . S
H3260 C3290 0.950 . S
H3261 C3291 0.950 . S
C3262 H3244 0.951 . S
C3262 C3263 1.366 . S
C3262 C3264 1.388 . S
C3263 C3262 1.366 . S
C3263 C3267 1.385 . S
C3264 H3245 0.951 . S
C3264 C3262 1.388 . S
C3264 C3265 1.366 . S
C3265 C3264 1.366 . S
C3265 C3266 1.414 . S
C3265 C3268 1.499 . S
C3266 H3246 0.950 . S
C3266 C3265 1.414 . S
C3266 C3267 1.374 . S
C3267 H3247 0.950 . S
C3267 C3263 1.385 . S
C3267 C3266 1.374 . S
C3268 C3265 1.499 . S
C3268 C3269 1.373 . S
C3268 C3270 1.389 . S
C3269 H3248 0.950 . S
C3269 C3268 1.373 . S
C3269 C3285 1.377 . S
C3270 C3268 1.389 . S
C3270 C3271 1.524 . S
C3270 C3284 1.377 . S
C3271 C3270 1.524 . S
C3271 C3272 1.397 . S
C3271 C3276 1.363 . S
C3272 H3249 0.950 . S
C3272 C3271 1.397 . S
C3272 C3273 1.334 . S
C3273 H3250 0.950 . S
C3273 C3272 1.334 . S
C3273 C3274 1.287 . S
C3274 C3273 1.287 . S
C3274 C3275 1.524 . S
C3274 H3293 0.913 . S
C3275 H3251 0.950 . S
C3275 C3274 1.524 . S
C3275 C3276 1.415 . S
C3276 H3252 0.950 . S
C3276 C3271 1.363 . S
C3276 C3275 1.415 . S
C3277 H3253 0.951 . S
C3277 C3278 1.366 . S
C3277 C3279 1.388 . S
C3278 C3277 1.366 . S
C3278 C3282 1.385 . S
C3279 H3254 0.951 . S
C3279 C3277 1.388 . S
C3279 C3280 1.366 . S
C3280 C3279 1.366 . S
C3280 C3281 1.414 . S
C3280 C3283 1.499 . S
C3281 H3255 0.950 . S
C3281 C3280 1.414 . S
C3281 C3282 1.374 . S
C3282 H3256 0.950 . S
C3282 C3278 1.385 . S
C3282 C3281 1.374 . S
C3283 C3280 1.499 . S
C3283 C3284 1.373 . S
C3283 C3285 1.389 . S
C3284 H3257 0.950 . S
C3284 C3270 1.377 . S
C3284 C3283 1.373 . S
C3285 C3269 1.377 . S
C3285 C3283 1.389 . S
C3285 C3286 1.524 . S
C3286 C3285 1.524 . S
C3286 C3287 1.397 . S
C3286 C3291 1.363 . S
C3287 H3258 0.950 . S
C3287 C3286 1.397 . S
C3287 C3288 1.334 . S
C3288 H3259 0.950 . S
C3288 C3287 1.334 . S
C3288 C3289 1.287 . S
C3289 C3288 1.287 . S
C3289 C3290 1.524 . S
C3289 H3292 0.999 . S
C3290 H3260 0.950 . S
C3290 C3289 1.524 . S
C3290 C3291 1.415 . S
C3291 H3261 0.950 . S
C3291 C3286 1.363 . S
C3291 C3290 1.415 . S
H3292 C3289 0.999 . S
H3293 C3274 0.913 . S
C613 N170 2.204 . S
C628 C246 2.249 . S
C663 N184 1.085 . S
C678 C286 1.085 . S
C713 N158 1.702 . S
C728 C316 1.689 . S
C763 N145 1.553 . S
C778 C276 1.535 1_556 S
C828 C326 0.699 . S
C813 N119 0.699 . S
C863 N131 1.891 . S
C878 C236 1.916 . S
C928 C265 1.812 1_556 S
C913 N144 1.818 . S
C978 C305 1.698 . S
C963 N118 1.700 . S
C1013 N132 1.569 . S
C1028 C331 1.578 . S
C1063 N171 1.459 . S
C1078 C291 1.457 . S
C1113 N183 1.280 . S
C1128 C345 1.290 . S
C1178 C251 1.439 . S
C1163 N157 1.454 . S
C1228 C366 2.249 . S
C1213 N14 2.204 . S
C1263 N28 1.085 . S
C1278 C406 1.085 . S
C1313 N2 1.703 . S
C1328 C436 1.690 . S
C1363 N223 1.553 . S
C1378 C396 1.535 . S
C1413 N197 0.700 . S
C1428 C446 0.700 . S
C1463 N209 1.891 . S
C1478 C356 1.915 . S
C1513 N222 1.818 . S
C1528 C385 1.829 . S
C1563 N196 1.700 . S
C1578 C425 1.698 . S
C1628 C451 1.577 . S
C1613 N210 1.569 . S
C1663 N15 1.459 . S
C1678 C411 1.457 . S
C1728 C465 1.290 . S
C1713 N27 1.280 . S
C1763 N1 1.454 . S
C1778 C371 1.440 . S
C1828 C486 2.249 . S
C1813 N92 2.204 . S
C1863 N106 1.085 . S
C1878 C526 1.085 . S
C1928 C556 1.689 . S
C1913 N80 1.703 . S
C1978 C516 1.535 . S
C1963 N67 1.553 . S
C2028 C566 0.699 . S
C2013 N41 0.700 . S
C2063 N53 1.890 . S
C2078 C476 1.915 . S
C2113 N66 1.818 . S
C2128 C505 1.829 . S
C2163 N40 1.700 . S
C2178 C545 1.698 . S
C2228 C571 1.577 . S
C2213 N54 1.569 . S
C2263 N93 1.458 . S
C2278 C531 1.457 . S
C2313 N105 1.280 . S
C2328 C585 1.290 . S
C2363 N79 1.455 . S
C2378 C491 1.439 . S
C2413 N200 0.869 . S
C2428 C263 0.871 . S
C2478 C303 2.146 . S
C2463 N213 2.127 . S
C2513 N226 1.580 . S
C2528 C322 1.587 . S
C2563 N83 1.844 . S
C2578 C282 1.832 . S
C2613 N96 1.906 . S
C2628 C343 1.941 . S
C2678 C242 1.002 . S
C2663 N109 1.008 . S
C2713 N44 0.869 . S
C2728 C383 0.871 . S
C2763 N57 2.127 . S
C2778 C423 2.146 . S
C2813 N70 1.580 . S
C2828 C442 1.587 . S
C2863 N161 1.844 . S
C2878 C402 1.833 . S
C2928 C463 1.941 . S
C2913 N174 1.907 . S
C2963 N187 1.009 . S
C2978 C362 1.002 . S
C3013 N122 0.869 . S
C3028 C503 0.871 . S
C3063 N135 2.127 . S
C3078 C543 2.146 . S
C3128 C562 1.588 . S
C3113 N148 1.580 . S
C3163 N5 1.843 . S
C3178 C522 1.833 . S
C3213 N18 1.906 . S
C3228 C583 1.941 . S
C3263 N31 1.009 . S
C3278 C482 1.002 . S
