# Generated by pormake.
# Topology ptr, (4,4)-cn, num edge types: 1
# Building blocks:
#     Node 0, Type 0, BuildingBlock: KUFVIS_clean_sbu_0, # of connection points: 4
#     Node 1, Type 0, BuildingBlock: KUFVIS_clean_sbu_0, # of connection points: 4
#     Node 2, Type 0, BuildingBlock: KUFVIS_clean_sbu_0, # of connection points: 4
#     Node 3, Type 0, BuildingBlock: KUFVIS_clean_sbu_0, # of connection points: 4
#     Node 4, Type 0, BuildingBlock: KUFVIS_clean_sbu_0, # of connection points: 4
#     Node 5, Type 0, BuildingBlock: KUFVIS_clean_sbu_0, # of connection points: 4
#     Node 6, Type 0, BuildingBlock: KUFVIS_clean_sbu_0, # of connection points: 4
#     Node 7, Type 0, BuildingBlock: KUFVIS_clean_sbu_0, # of connection points: 4
#     Node 8, Type 0, BuildingBlock: KUFVIS_clean_sbu_0, # of connection points: 4
#     Node 9, Type 0, BuildingBlock: KUFVIS_clean_sbu_0, # of connection points: 4
#     Node 10, Type 0, BuildingBlock: KUFVIS_clean_sbu_0, # of connection points: 4
#     Node 11, Type 0, BuildingBlock: KUFVIS_clean_sbu_0, # of connection points: 4
#     Node 12, Type 0, BuildingBlock: KUFVIS_clean_sbu_0, # of connection points: 4
#     Node 13, Type 0, BuildingBlock: KUFVIS_clean_sbu_0, # of connection points: 4
#     Node 14, Type 0, BuildingBlock: KUFVIS_clean_sbu_0, # of connection points: 4
#     Node 15, Type 0, BuildingBlock: KUFVIS_clean_sbu_0, # of connection points: 4
#     Node 16, Type 0, BuildingBlock: KUFVIS_clean_sbu_0, # of connection points: 4
#     Node 17, Type 0, BuildingBlock: KUFVIS_clean_sbu_0, # of connection points: 4
#     Node 18, Type 1, BuildingBlock: GIZVER_clean_linker_0, # of connection points: 4
#     Node 19, Type 1, BuildingBlock: GIZVER_clean_linker_0, # of connection points: 4
#     Node 20, Type 1, BuildingBlock: GIZVER_clean_linker_0, # of connection points: 4
#     Node 21, Type 1, BuildingBlock: GIZVER_clean_linker_0, # of connection points: 4
#     Node 22, Type 1, BuildingBlock: GIZVER_clean_linker_0, # of connection points: 4
#     Node 23, Type 1, BuildingBlock: GIZVER_clean_linker_0, # of connection points: 4
#     Node 24, Type 1, BuildingBlock: GIZVER_clean_linker_0, # of connection points: 4
#     Node 25, Type 1, BuildingBlock: GIZVER_clean_linker_0, # of connection points: 4
#     Node 26, Type 1, BuildingBlock: GIZVER_clean_linker_0, # of connection points: 4
#     Node 27, Type 1, BuildingBlock: GIZVER_clean_linker_0, # of connection points: 4
#     Node 28, Type 1, BuildingBlock: GIZVER_clean_linker_0, # of connection points: 4
#     Node 29, Type 1, BuildingBlock: GIZVER_clean_linker_0, # of connection points: 4
#     Node 30, Type 1, BuildingBlock: GIZVER_clean_linker_0, # of connection points: 4
#     Node 31, Type 1, BuildingBlock: GIZVER_clean_linker_0, # of connection points: 4
#     Node 32, Type 1, BuildingBlock: GIZVER_clean_linker_0, # of connection points: 4
#     Node 33, Type 1, BuildingBlock: GIZVER_clean_linker_0, # of connection points: 4
#     Node 34, Type 1, BuildingBlock: GIZVER_clean_linker_0, # of connection points: 4
#     Node 35, Type 1, BuildingBlock: GIZVER_clean_linker_0, # of connection points: 4
#     Edge 36, Type (0, 1), BuildingBlock: AJUNOK_clean_linker_0, # of connection points: 2
#     Edge 37, Type (0, 1), BuildingBlock: AJUNOK_clean_linker_0, # of connection points: 2
#     Edge 38, Type (0, 1), BuildingBlock: AJUNOK_clean_linker_0, # of connection points: 2
#     Edge 39, Type (0, 1), BuildingBlock: AJUNOK_clean_linker_0, # of connection points: 2
#     Edge 40, Type (0, 1), BuildingBlock: AJUNOK_clean_linker_0, # of connection points: 2
#     Edge 41, Type (0, 1), BuildingBlock: AJUNOK_clean_linker_0, # of connection points: 2
#     Edge 42, Type (0, 1), BuildingBlock: AJUNOK_clean_linker_0, # of connection points: 2
#     Edge 43, Type (0, 1), BuildingBlock: AJUNOK_clean_linker_0, # of connection points: 2
#     Edge 44, Type (0, 1), BuildingBlock: AJUNOK_clean_linker_0, # of connection points: 2
#     Edge 45, Type (0, 1), BuildingBlock: AJUNOK_clean_linker_0, # of connection points: 2
#     Edge 46, Type (0, 1), BuildingBlock: AJUNOK_clean_linker_0, # of connection points: 2
#     Edge 47, Type (0, 1), BuildingBlock: AJUNOK_clean_linker_0, # of connection points: 2
#     Edge 48, Type (0, 1), BuildingBlock: AJUNOK_clean_linker_0, # of connection points: 2
#     Edge 49, Type (0, 1), BuildingBlock: AJUNOK_clean_linker_0, # of connection points: 2
#     Edge 50, Type (0, 1), BuildingBlock: AJUNOK_clean_linker_0, # of connection points: 2
#     Edge 51, Type (0, 1), BuildingBlock: AJUNOK_clean_linker_0, # of connection points: 2
#     Edge 52, Type (0, 1), BuildingBlock: AJUNOK_clean_linker_0, # of connection points: 2
#     Edge 53, Type (0, 1), BuildingBlock: AJUNOK_clean_linker_0, # of connection points: 2
#     Edge 54, Type (0, 1), BuildingBlock: AJUNOK_clean_linker_0, # of connection points: 2
#     Edge 55, Type (0, 1), BuildingBlock: AJUNOK_clean_linker_0, # of connection points: 2
#     Edge 56, Type (0, 1), BuildingBlock: AJUNOK_clean_linker_0, # of connection points: 2
#     Edge 57, Type (0, 1), BuildingBlock: AJUNOK_clean_linker_0, # of connection points: 2
#     Edge 58, Type (0, 1), BuildingBlock: AJUNOK_clean_linker_0, # of connection points: 2
#     Edge 59, Type (0, 1), BuildingBlock: AJUNOK_clean_linker_0, # of connection points: 2
#     Edge 60, Type (0, 1), BuildingBlock: AJUNOK_clean_linker_0, # of connection points: 2
#     Edge 61, Type (0, 1), BuildingBlock: AJUNOK_clean_linker_0, # of connection points: 2
#     Edge 62, Type (0, 1), BuildingBlock: AJUNOK_clean_linker_0, # of connection points: 2
#     Edge 63, Type (0, 1), BuildingBlock: AJUNOK_clean_linker_0, # of connection points: 2
#     Edge 64, Type (0, 1), BuildingBlock: AJUNOK_clean_linker_0, # of connection points: 2
#     Edge 65, Type (0, 1), BuildingBlock: AJUNOK_clean_linker_0, # of connection points: 2
#     Edge 66, Type (0, 1), BuildingBlock: AJUNOK_clean_linker_0, # of connection points: 2
#     Edge 67, Type (0, 1), BuildingBlock: AJUNOK_clean_linker_0, # of connection points: 2
#     Edge 68, Type (0, 1), BuildingBlock: AJUNOK_clean_linker_0, # of connection points: 2
#     Edge 69, Type (0, 1), BuildingBlock: AJUNOK_clean_linker_0, # of connection points: 2
#     Edge 70, Type (0, 1), BuildingBlock: AJUNOK_clean_linker_0, # of connection points: 2
#     Edge 71, Type (0, 1), BuildingBlock: AJUNOK_clean_linker_0, # of connection points: 2
#     Edge 72, Type (0, 1), BuildingBlock: AJUNOK_clean_linker_0, # of connection points: 2
#     Edge 73, Type (0, 1), BuildingBlock: AJUNOK_clean_linker_0, # of connection points: 2
#     Edge 74, Type (0, 1), BuildingBlock: AJUNOK_clean_linker_0, # of connection points: 2
#     Edge 75, Type (0, 1), BuildingBlock: AJUNOK_clean_linker_0, # of connection points: 2
#     Edge 76, Type (0, 1), BuildingBlock: AJUNOK_clean_linker_0, # of connection points: 2
#     Edge 77, Type (0, 1), BuildingBlock: AJUNOK_clean_linker_0, # of connection points: 2
#     Edge 78, Type (0, 1), BuildingBlock: AJUNOK_clean_linker_0, # of connection points: 2
#     Edge 79, Type (0, 1), BuildingBlock: AJUNOK_clean_linker_0, # of connection points: 2
#     Edge 80, Type (0, 1), BuildingBlock: AJUNOK_clean_linker_0, # of connection points: 2
#     Edge 81, Type (0, 1), BuildingBlock: AJUNOK_clean_linker_0, # of connection points: 2
#     Edge 82, Type (0, 1), BuildingBlock: AJUNOK_clean_linker_0, # of connection points: 2
#     Edge 83, Type (0, 1), BuildingBlock: AJUNOK_clean_linker_0, # of connection points: 2
#     Edge 84, Type (0, 1), BuildingBlock: AJUNOK_clean_linker_0, # of connection points: 2
#     Edge 85, Type (0, 1), BuildingBlock: AJUNOK_clean_linker_0, # of connection points: 2
#     Edge 86, Type (0, 1), BuildingBlock: AJUNOK_clean_linker_0, # of connection points: 2
#     Edge 87, Type (0, 1), BuildingBlock: AJUNOK_clean_linker_0, # of connection points: 2
#     Edge 88, Type (0, 1), BuildingBlock: AJUNOK_clean_linker_0, # of connection points: 2
#     Edge 89, Type (0, 1), BuildingBlock: AJUNOK_clean_linker_0, # of connection points: 2
#     Edge 90, Type (0, 1), BuildingBlock: AJUNOK_clean_linker_0, # of connection points: 2
#     Edge 91, Type (0, 1), BuildingBlock: AJUNOK_clean_linker_0, # of connection points: 2
#     Edge 92, Type (0, 1), BuildingBlock: AJUNOK_clean_linker_0, # of connection points: 2
#     Edge 93, Type (0, 1), BuildingBlock: AJUNOK_clean_linker_0, # of connection points: 2
#     Edge 94, Type (0, 1), BuildingBlock: AJUNOK_clean_linker_0, # of connection points: 2
#     Edge 95, Type (0, 1), BuildingBlock: AJUNOK_clean_linker_0, # of connection points: 2
#     Edge 96, Type (0, 1), BuildingBlock: AJUNOK_clean_linker_0, # of connection points: 2
#     Edge 97, Type (0, 1), BuildingBlock: AJUNOK_clean_linker_0, # of connection points: 2
#     Edge 98, Type (0, 1), BuildingBlock: AJUNOK_clean_linker_0, # of connection points: 2
#     Edge 99, Type (0, 1), BuildingBlock: AJUNOK_clean_linker_0, # of connection points: 2
#     Edge 100, Type (0, 1), BuildingBlock: AJUNOK_clean_linker_0, # of connection points: 2
#     Edge 101, Type (0, 1), BuildingBlock: AJUNOK_clean_linker_0, # of connection points: 2
#     Edge 102, Type (0, 1), BuildingBlock: AJUNOK_clean_linker_0, # of connection points: 2
#     Edge 103, Type (0, 1), BuildingBlock: AJUNOK_clean_linker_0, # of connection points: 2
#     Edge 104, Type (0, 1), BuildingBlock: AJUNOK_clean_linker_0, # of connection points: 2
#     Edge 105, Type (0, 1), BuildingBlock: AJUNOK_clean_linker_0, # of connection points: 2
#     Edge 106, Type (0, 1), BuildingBlock: AJUNOK_clean_linker_0, # of connection points: 2
#     Edge 107, Type (0, 1), BuildingBlock: AJUNOK_clean_linker_0, # of connection points: 2
# Relax obj value: 0.051
# Max RMSD: 0.135
# Mean RMSD: 0.084
data_MOF--net-ptr--node1-KUFVIS_clean_sbu_0--node2-GIZVER_clean_linker_0--edge1-AJUNOK_clean_linker_0
_symmetry_space_group_name_H-M    P1
_symmetry_Int_Tables_number       1
_symmetry_cell_setting            triclinic
loop_
_symmetry_equiv_pos_as_xyz
'x, y, z'
_cell_length_a     58.862118
_cell_length_b     58.536419
_cell_length_c     36.679436
_cell_angle_alpha  89.910439
_cell_angle_beta   91.110754
_cell_angle_gamma 119.38948
loop_
_atom_site_label
_atom_site_type_symbol
_atom_site_fract_x
_atom_site_fract_y
_atom_site_fract_z
_atom_type_partial_charge
Mn0 Mn 1.00811 0.37353 0.98986 0.0
Mn1 Mn 0.06289 0.42961 0.9691 0.0
C2 C 1.00681 0.40071 0.94494 0.0
C3 C 0.98084 0.32832 0.98249 0.0
C4 C 0.03045 0.42431 0.03512 0.0
O5 O 0.03699 0.36849 0.01339 0.0
O6 O 0.07215 0.40582 -0.00376 0.0
C7 C 0.08398 0.40644 0.91712 0.0
N8 N 0.07606 0.42419 0.92462 0.0
C9 C 0.08564 0.44143 0.86382 0.0
C10 C 0.09411 0.42348 0.85555 0.0
C11 C 0.09322 0.40587 0.8823 0.0
C12 C 0.07673 0.44114 0.89904 0.0
H13 H 0.08319 0.39275 0.93752 0.0
C14 C 0.06163 0.38358 0.01214 0.0
O15 O 0.98034 0.34045 0.01181 0.0
O16 O 0.99748 0.34233 0.95797 0.0
N17 N 0.0574 0.45464 0.94247 0.0
C18 C 0.04748 0.46992 0.95436 0.0
C19 C 0.04636 0.48813 0.93056 0.0
C20 C 0.05584 0.49083 0.89507 0.0
C21 C 0.06641 0.47526 0.88368 0.0
C22 C 0.06712 0.45748 0.90863 0.0
H23 H 0.04013 0.46794 0.9816 0.0
O24 O 0.98554 0.38364 0.96033 0.0
O25 O 0.02811 0.40081 0.95548 0.0
O26 O 0.01316 0.40047 0.02915 0.0
O27 O 0.05014 0.43699 0.01478 0.0
C28 C 0.07568 0.47622 0.84827 0.0
C29 C 0.08523 0.45927 0.83831 0.0
H30 H 0.10111 0.42289 0.82867 0.0
H31 H 0.09956 0.39184 0.87605 0.0
H32 H 0.03784 0.49974 0.93947 0.0
H33 H 0.05465 0.50466 0.87659 0.0
H34 H 0.07516 0.48963 0.82831 0.0
H35 H 0.09194 0.45991 0.81085 0.0
Mn36 Mn 0.63726 0.63222 0.02585 0.0
Mn37 Mn 0.63692 0.57673 0.05312 0.0
C38 C 0.60813 0.60548 0.06893 0.0
C39 C 0.65178 0.67709 0.02942 0.0
C40 C 0.61265 0.58092 0.98181 0.0
O41 O 0.67232 0.63761 0.00838 0.0
O42 O 0.67011 0.60037 0.02915 0.0
C43 C 0.67892 0.60026 0.10963 0.0
N44 N 0.65374 0.58291 0.10005 0.0
C45 C 0.64452 0.56603 0.16105 0.0
C46 C 0.67039 0.5836 0.17152 0.0
C47 C 0.68763 0.60086 0.14572 0.0
C48 C 0.63694 0.56638 0.12472 0.0
H49 H 0.69228 0.6135 0.08989 0.0
C50 C 0.68199 0.62238 0.01288 0.0
O51 O 0.64118 0.66382 -0.00026 0.0
O52 O 0.65482 0.66458 0.0567 0.0
N53 N 0.60609 0.55201 0.0773 0.0
C54 C 0.58209 0.53563 0.06247 0.0
C55 C 0.56265 0.51695 0.08458 0.0
C56 C 0.56803 0.51527 0.12166 0.0
C57 C 0.593 0.53201 0.13615 0.0
C58 C 0.61174 0.54995 0.11265 0.0
H59 H 0.57786 0.53667 0.03393 0.0
O60 O 0.60352 0.62172 0.0504 0.0
O61 O 0.62986 0.60573 0.06225 0.0
O62 O 0.61838 0.60469 0.98644 0.0
O63 O 0.6188 0.56828 0.00473 0.0
C64 C 0.60011 0.5314 0.17289 0.0
C65 C 0.62585 0.54843 0.18535 0.0
H66 H 0.67717 0.58416 0.19935 0.0
H67 H 0.7076 0.61457 0.15363 0.0
H68 H 0.5437 0.50376 0.07289 0.0
H69 H 0.553 0.50084 0.13868 0.0
H70 H 0.58594 0.5179 0.19178 0.0
H71 H 0.63108 0.54786 0.21368 0.0
Mn72 Mn 0.38058 1.00287 0.01617 0.0
Mn73 Mn 0.43991 0.05602 0.03174 0.0
C74 C 0.40941 1.00117 0.0581 0.0
C75 C 0.33632 0.97673 0.02854 0.0
C76 C 0.42716 0.02053 0.96561 0.0
O77 O 0.37599 0.03261 0.99504 0.0
O78 O 0.41579 0.06671 0.00839 0.0
C79 C 0.42523 0.08309 0.08688 0.0
N80 N 0.44021 0.07242 0.0769 0.0
C81 C 0.46345 0.08423 0.1346 0.0
C82 C 0.4484 0.09552 0.14538 0.0
C83 C 0.42918 0.0949 0.12144 0.0
C84 C 0.45883 0.07299 0.09967 0.0
H85 H 0.41036 0.08257 0.06864 0.0
C86 C 0.3924 0.05716 -0.00438 0.0
O87 O 0.34571 0.9752 -0.00252 0.0
O88 O 0.35233 0.99432 0.05161 0.0
N89 N 0.46492 0.0485 0.05489 0.0
C90 C 0.47592 0.03449 0.04178 0.0
C91 C 0.49464 0.03203 0.06316 0.0
C92 C 0.50193 0.04407 0.09772 0.0
C93 C 0.4904 0.05845 0.1106 0.0
C94 C 0.472 0.0604 0.08796 0.0
H95 H 0.47011 0.02486 0.01549 0.0
O96 O 0.39094 0.97982 0.04338 0.0
O97 O 0.41045 0.02296 0.04807 0.0
O98 O 0.40351 1.00488 0.97363 0.0
O99 O 0.44225 0.04051 0.98513 0.0
C100 C 0.49582 0.07019 0.14551 0.0
C101 C 0.48236 0.08308 0.15749 0.0
H102 H 0.45122 0.10443 0.17214 0.0
H103 H 0.41738 0.10342 0.12966 0.0
H104 H 0.50326 0.0207 0.05316 0.0
H105 H 0.51611 0.04182 0.11434 0.0
H106 H 0.50991 0.06896 0.16365 0.0
H107 H 0.48635 0.0916 0.18464 0.0
Mn108 Mn 1.01002 0.63599 0.99045 0.0
Mn109 Mn 0.06312 0.62998 0.97505 0.0
C110 C 1.00749 0.60379 0.95143 0.0
C111 C 0.98312 0.65305 0.97347 0.0
C112 C 0.03134 0.6106 0.04366 0.0
O113 O 0.03972 0.67105 0.00881 0.0
O114 O 0.07374 0.66531 -0.00473 0.0
C115 C 0.08576 0.66866 0.91575 0.0
N116 N 0.07628 0.64372 0.92804 0.0
C117 C 0.08321 0.62921 0.87003 0.0
C118 C 0.0932 0.65478 0.85683 0.0
C119 C 0.09447 0.67458 0.8798 0.0
C120 C 0.0751 0.62455 0.90624 0.0
H121 H 0.08658 0.6839 0.93321 0.0
C122 C 0.06422 0.67924 0.00758 0.0
O123 O 0.98251 0.64451 0.00638 0.0
O124 O 1.00047 0.65336 0.95202 0.0
N125 N 0.05534 0.59675 0.95499 0.0
C126 C 0.04348 0.57281 0.97113 0.0
C127 C 0.03946 0.55065 0.95125 0.0
C128 C 0.04788 0.55336 0.91512 0.0
C129 C 0.06052 0.57826 0.89934 0.0
C130 C 0.06405 0.59967 0.92054 0.0
H131 H 0.03666 0.57056 -0.00129 0.0
O132 O 0.98659 0.60134 0.96619 0.0
O133 O 0.02903 0.6249 0.96005 0.0
O134 O 0.01449 0.61754 0.03517 0.0
O135 O 0.0504 0.61474 0.02337 0.0
C136 C 0.06897 0.58256 0.86304 0.0
C137 C 0.08033 0.60803 0.8484 0.0
H138 H 0.09967 0.65937 0.829 0.0
H139 H 0.10201 0.69433 0.86974 0.0
H140 H 0.02939 0.53151 0.9636 0.0
H141 H 0.04404 0.53617 0.89944 0.0
H142 H 0.06642 0.56635 0.84596 0.0
H143 H 0.08634 0.61102 0.82027 0.0
Mn144 Mn 0.38005 0.39083 0.01396 0.0
Mn145 Mn 0.43737 0.39526 0.04041 0.0
C146 C 0.40519 0.41954 0.06056 0.0
C147 C 0.33493 0.37212 0.01891 0.0
C148 C 0.43021 0.41947 0.97078 0.0
O149 O 0.3776 0.35719 0.99265 0.0
O150 O 0.41509 0.36104 0.01565 0.0
C151 C 0.41852 0.35349 0.09596 0.0
N152 N 0.43418 0.37899 0.08668 0.0
C153 C 0.45314 0.3899 0.14722 0.0
C154 C 0.43733 0.36372 0.15737 0.0
C155 C 0.41989 0.34546 0.13166 0.0
C156 C 0.451 0.39673 0.11122 0.0
H157 H 0.40508 0.3394 0.07628 0.0
C158 C 0.39343 0.3483 -0.00209 0.0
O159 O 0.34665 0.38435 0.98962 0.0
O160 O 0.34919 0.36986 0.0445 0.0
N161 N 0.46058 0.42733 0.06518 0.0
C162 C 0.47276 0.45216 0.05185 0.0
C163 C 0.48968 0.47304 0.07477 0.0
C164 C 0.49436 0.46812 0.11085 0.0
C165 C 0.48195 0.44233 0.12378 0.0
C166 C 0.46504 0.42234 0.09979 0.0
H167 H 0.46922 0.45608 0.02416 0.0
O168 O 0.38798 0.42321 0.04284 0.0
O169 O 0.40699 0.39923 0.05059 0.0
O170 O 0.40639 0.41304 0.97541 0.0
O171 O 0.44311 0.41312 0.99297 0.0
C172 C 0.48504 0.43577 0.15982 0.0
C173 C 0.47057 0.4096 0.17158 0.0
H174 H 0.43825 0.35746 0.1849 0.0
H175 H 0.40752 0.32524 0.13934 0.0
H176 H 0.49883 0.49292 0.06475 0.0
H177 H 0.50708 0.48434 0.12858 0.0
H178 H 0.49816 0.45077 0.17889 0.0
H179 H 0.47269 0.4049 0.19957 0.0
Mn180 Mn 0.64375 0.01041 0.98605 0.0
Mn181 Mn 0.58807 0.95623 0.95925 0.0
C182 C 0.61605 0.01338 0.94293 0.0
C183 C 0.68828 0.03996 0.98013 0.0
C184 C 0.59418 0.98436 0.0312 0.0
O185 O 0.64968 0.98038 0.00327 0.0
O186 O 0.61273 0.94579 0.98148 0.0
C187 C 0.60889 0.9375 0.90052 0.0
N188 N 0.59217 0.94583 0.91152 0.0
C189 C 0.5731 0.93959 0.85118 0.0
C190 C 0.58999 0.93077 0.83927 0.0
C191 C 0.60802 0.92982 0.86403 0.0
C192 C 0.57483 0.94694 0.88789 0.0
H193 H 0.62276 0.9367 0.91945 0.0
C194 C 0.6351 0.9557 -0.0023 0.0
O195 O 0.67653 0.03792 0.01053 0.0
O196 O 0.67452 0.02399 0.95391 0.0
N197 N 0.56266 0.96349 0.93686 0.0
C198 C 0.54768 0.9724 0.95269 0.0
C199 C 0.5288 0.97476 0.93152 0.0
C200 C 0.52536 0.96773 0.8944 0.0
C201 C 0.54077 0.9583 0.87881 0.0
C202 C 0.55914 0.9562 0.90132 0.0
H203 H 0.55015 0.97773 0.98124 0.0
O204 O 0.63256 0.03396 0.96137 0.0
O205 O 0.61644 0.99181 0.95007 0.0
O206 O 0.61748 1.00264 0.0263 0.0
O207 O 0.58158 0.96572 0.00827 0.0
C208 C 0.5387 0.95103 0.84177 0.0
C209 C 0.5549 0.94174 0.82795 0.0
H210 H 0.58948 0.92496 0.81111 0.0
H211 H 0.62122 0.92319 0.85499 0.0
H212 H 0.51696 0.98201 0.94376 0.0
H213 H 0.51085 0.96968 0.87815 0.0
H214 H 0.5248 0.95261 0.82364 0.0
H215 H 0.55327 0.9364 0.79937 0.0
Mn216 Mn 0.67069 0.70749 0.33042 0.0
Mn217 Mn 0.72772 0.75889 0.30394 0.0
C218 C 0.67107 0.73524 0.28505 0.0
C219 C 0.63831 0.66344 0.32628 0.0
C220 C 0.70069 0.7591 0.37336 0.0
O221 O 0.69802 0.69866 0.35101 0.0
O222 O 0.73449 0.7329 0.32975 0.0
C223 C 0.74295 0.73161 0.24982 0.0
N224 N 0.73716 0.75083 0.25805 0.0
C225 C 0.74624 0.76755 0.19694 0.0
C226 C 0.75251 0.74806 0.18789 0.0
C227 C 0.75073 0.72994 0.21442 0.0
C228 C 0.7386 0.76823 0.23266 0.0
H229 H 0.74169 0.71767 0.27011 0.0
C230 C 0.72274 0.71115 0.34678 0.0
O231 O 0.64146 0.67724 0.35548 0.0
O232 O 0.65443 0.67487 0.30004 0.0
N233 N 0.72421 0.78546 0.27813 0.0
C234 C 0.71801 0.80338 0.29143 0.0
C235 C 0.71861 0.82275 0.26822 0.0
C236 C 0.7257 0.82361 0.23169 0.0
C237 C 0.73246 0.80527 0.21881 0.0
C238 C 0.73177 0.78657 0.24329 0.0
H239 H 0.71268 0.80293 0.31953 0.0
O240 O 0.64995 0.72082 0.30279 0.0
O241 O 0.69117 0.7326 0.29387 0.0
O242 O 0.68111 0.73624 0.3689 0.0
O243 O 0.71943 0.76935 0.35101 0.0
C244 C 0.73997 0.80489 0.18267 0.0
C245 C 0.74689 0.78606 0.17176 0.0
H246 H 0.75842 0.74665 0.16058 0.0
H247 H 0.75537 0.71474 0.20759 0.0
H248 H 0.71373 0.83702 0.27858 0.0
H249 H 0.72611 0.83853 0.21381 0.0
H250 H 0.74048 0.81898 0.16306 0.0
H251 H 0.75264 0.78597 0.14393 0.0
Mn252 Mn 0.31008 0.96852 0.35638 0.0
Mn253 Mn 0.30835 0.91244 0.38378 0.0
C254 C 0.2797 0.94161 0.39798 0.0
C255 C 0.32563 0.01349 0.3613 0.0
C256 C 0.28564 0.91762 0.31157 0.0
O257 O 0.34509 0.97337 0.33982 0.0
O258 O 0.34219 0.93595 0.36097 0.0
C259 C 0.34885 0.93607 0.44226 0.0
N260 N 0.3241 0.91827 0.43141 0.0
C261 C 0.31316 0.90177 0.49243 0.0
C262 C 0.33857 0.91982 0.5042 0.0
C263 C 0.35647 0.93707 0.47901 0.0
C264 C 0.30669 0.90168 0.45546 0.0
H265 H 0.36262 0.94946 0.42303 0.0
C266 C 0.35445 0.95793 0.34467 0.0
O267 O 0.31541 1.00091 0.33099 0.0
O268 O 0.3277 1.00018 0.38828 0.0
N269 N 0.27692 0.88762 0.4067 0.0
C270 C 0.25309 0.87164 0.39102 0.0
C271 C 0.23299 0.85313 0.4125 0.0
C272 C 0.23759 0.8511 0.44977 0.0
C273 C 0.26239 0.86741 0.46514 0.0
C274 C 0.2818 0.88521 0.44226 0.0
H275 H 0.24944 0.87304 0.36236 0.0
O276 O 0.276 0.95848 0.3796 0.0
O277 O 0.3014 0.94153 0.3923 0.0
O278 O 0.29141 0.94143 0.3163 0.0
O279 O 0.29118 0.90468 0.33481 0.0
C280 C 0.26854 0.86687 0.50234 0.0
C281 C 0.29388 0.88413 0.51601 0.0
H282 H 0.3445 0.92073 0.53255 0.0
H283 H 0.37608 0.95115 0.48792 0.0
H284 H 0.21401 0.84052 0.40031 0.0
H285 H 0.22202 0.83696 0.46636 0.0
H286 H 0.25385 0.85349 0.52075 0.0
H287 H 0.2983 0.88376 0.54473 0.0
Mn288 Mn 0.0433 0.32894 0.34318 0.0
Mn289 Mn 0.09554 0.38585 0.36992 0.0
C290 C 0.07095 0.32907 0.38885 0.0
C291 C 0.99905 0.29916 0.34941 0.0
C292 C 0.09362 0.3563 0.30069 0.0
O293 O 0.03641 0.35677 0.32009 0.0
O294 O 0.06939 0.39337 0.34568 0.0
C295 C 0.06878 0.39893 0.42695 0.0
N296 N 0.08852 0.39458 0.41706 0.0
C297 C 0.10396 0.39891 0.47928 0.0
C298 C 0.084 0.40378 0.49004 0.0
C299 C 0.06629 0.40372 0.46376 0.0
C300 C 0.1054 0.39417 0.44221 0.0
H301 H 0.05486 0.39844 0.40695 0.0
C302 C 0.04841 0.38145 0.32631 0.0
O303 O 0.01115 0.29941 0.32001 0.0
O304 O 0.01234 0.31673 0.37411 0.0
N305 N 0.12259 0.38204 0.39414 0.0
C306 C 0.14099 0.37746 0.37913 0.0
C307 C 0.16076 0.37772 0.40154 0.0
C308 C 0.16151 0.3829 0.43906 0.0
C309 C 0.14271 0.38814 0.45375 0.0
C310 C 0.12383 0.38816 0.42993 0.0
H311 H 0.14064 0.37364 0.35028 0.0
O312 O 0.05494 0.30742 0.37215 0.0
O313 O 0.06944 0.34961 0.37911 0.0
O314 O 0.0712 0.33641 0.30574 0.0
O315 O 0.10395 0.37666 0.32156 0.0
C316 C 0.14181 0.39312 0.49112 0.0
C317 C 0.12229 0.39824 0.50393 0.0
H318 H 0.08196 0.40739 0.51842 0.0
H319 H 0.05066 0.4072 0.47189 0.0
H320 H 0.1753 0.37383 0.38995 0.0
H321 H 0.17656 0.38273 0.45634 0.0
H322 H 0.1559 0.39282 0.51028 0.0
H323 H 0.1216 0.40171 0.53278 0.0
Mn324 Mn 0.67368 0.96499 0.32139 0.0
Mn325 Mn 0.72439 0.95523 0.30391 0.0
C326 C 0.66945 0.93428 0.27828 0.0
C327 C 0.64959 0.98615 0.31083 0.0
C328 C 0.69146 0.93484 0.37133 0.0
O329 O 0.70478 0.99767 0.34323 0.0
O330 O 0.73731 0.9903 0.32661 0.0
C331 C 0.75124 0.99562 0.24781 0.0
N332 N 0.73906 0.97 0.25796 0.0
C333 C 0.7475 0.95659 0.20011 0.0
C334 C 0.76025 0.98285 0.1891 0.0
C335 C 0.76204 1.00243 0.21302 0.0
C336 C 0.7372 0.951 0.23515 0.0
H337 H 0.75278 0.01074 0.26617 0.0
C338 C 0.72899 1.00456 0.34137 0.0
O339 O 0.64815 0.97437 0.34139 0.0
O340 O 0.66586 0.98662 0.28705 0.0
N341 N 0.71437 0.92205 0.28149 0.0
C342 C 0.70101 0.89764 0.29606 0.0
C343 C 0.69663 0.87575 0.27512 0.0
C344 C 0.70646 0.8792 0.23974 0.0
C345 C 0.72058 0.90455 0.22558 0.0
C346 C 0.72412 0.92561 0.2476 0.0
H347 H 0.69346 0.89487 0.32326 0.0
O348 O 0.64891 0.93263 0.29321 0.0
O349 O 0.69168 0.95385 0.28886 0.0
O350 O 0.67554 0.94292 0.36308 0.0
O351 O 0.71062 0.93887 0.35143 0.0
C352 C 0.73095 0.90972 0.19031 0.0
C353 C 0.74436 0.93572 0.17756 0.0
H354 H 0.76851 0.98817 0.16223 0.0
H355 H 0.77175 0.02272 0.20465 0.0
H356 H 0.6855 0.85625 0.28614 0.0
H357 H 0.70274 0.86224 0.22353 0.0
H358 H 0.72862 0.89385 0.17269 0.0
H359 H 0.75204 0.93943 0.15029 0.0
Mn360 Mn 0.0464 0.71849 0.34144 0.0
Mn361 Mn 0.10361 0.72139 0.36494 0.0
C362 C 0.07345 0.74771 0.38627 0.0
C363 C 1.00148 0.70142 0.34827 0.0
C364 C 0.09526 0.74443 0.29498 0.0
O365 O 0.04213 0.68386 0.32151 0.0
O366 O 0.07975 0.68662 0.34233 0.0
C367 C 0.08662 0.68089 0.42221 0.0
N368 N 0.10157 0.70628 0.41185 0.0
C369 C 0.12255 0.71849 0.47111 0.0
C370 C 0.10748 0.69244 0.48234 0.0
C371 C 0.08938 0.67358 0.45781 0.0
C372 C 0.11907 0.72457 0.43523 0.0
H373 H 0.07277 0.66631 0.4034 0.0
C374 C 0.05732 0.67416 0.32629 0.0
O375 O 0.01286 0.71267 0.31832 0.0
O376 O 0.01595 0.69919 0.37362 0.0
N377 N 0.12807 0.75393 0.38765 0.0
C378 C 0.14063 0.7783 0.37279 0.0
C379 C 0.15857 0.79961 0.39426 0.0
C380 C 0.16375 0.79559 0.43055 0.0
C381 C 0.15093 0.77026 0.44505 0.0
C382 C 0.13305 0.74981 0.42245 0.0
H383 H 0.13671 0.78153 0.34495 0.0
O384 O 0.05631 0.7518 0.36914 0.0
O385 O 0.07419 0.72675 0.37661 0.0
O386 O 0.07191 0.739 0.30114 0.0
O387 O 0.1084 0.73799 0.3166 0.0
C388 C 0.15483 0.76458 0.48122 0.0
C389 C 0.14065 0.73871 0.49424 0.0
H390 H 0.10944 0.68675 0.50984 0.0
H391 H 0.07759 0.65347 0.46633 0.0
H392 H 0.16815 0.81913 0.38295 0.0
H393 H 0.17725 0.81213 0.4472 0.0
H394 H 0.16858 0.77997 0.49932 0.0
H395 H 0.14367 0.73462 0.52218 0.0
Mn396 Mn 0.3067 0.3397 0.33326 0.0
Mn397 Mn 0.25057 0.28609 0.30632 0.0
C398 C 0.27959 0.34316 0.28989 0.0
C399 C 0.35145 0.36815 0.32731 0.0
C400 C 0.25674 0.31484 0.37774 0.0
O401 O 0.31187 0.30932 0.35064 0.0
O402 O 0.27473 0.27505 0.32863 0.0
C403 C 0.27168 0.26769 0.2476 0.0
N404 N 0.25467 0.27561 0.25865 0.0
C405 C 0.23621 0.27011 0.19802 0.0
C406 C 0.25343 0.26174 0.18605 0.0
C407 C 0.27128 0.26058 0.21094 0.0
C408 C 0.23748 0.2769 0.2349 0.0
H409 H 0.28552 0.26687 0.26658 0.0
C410 C 0.29707 0.2847 0.34486 0.0
O411 O 0.33982 0.36682 0.35758 0.0
O412 O 0.33735 0.35232 0.30118 0.0
N413 N 0.22557 0.29389 0.28366 0.0
C414 C 0.21105 0.30345 0.2992 0.0
C415 C 0.19254 0.30626 0.2778 0.0
C416 C 0.18902 0.29909 0.24074 0.0
C417 C 0.20396 0.28901 0.22545 0.0
C418 C 0.22194 0.2864 0.2482 0.0
H419 H 0.21364 0.309 0.32766 0.0
O420 O 0.29632 0.3637 0.30821 0.0
O421 O 0.27944 0.32139 0.29732 0.0
O422 O 0.28031 0.33264 0.37319 0.0
O423 O 0.24413 0.29593 0.35516 0.0
C424 C 0.20198 0.28178 0.18841 0.0
C425 C 0.21817 0.27246 0.17467 0.0
H426 H 0.25327 0.25636 0.15776 0.0
H427 H 0.28472 0.25427 0.20186 0.0
H428 H 0.18108 0.31406 0.2898 0.0
H429 H 0.17491 0.30154 0.22426 0.0
H430 H 0.18831 0.28364 0.17014 0.0
H431 H 0.21677 0.26738 0.14602 0.0
Mn432 Mn 0.3332 0.04124 0.66776 0.0
Mn433 Mn 0.38893 0.09628 0.64697 0.0
C434 C 0.3329 0.06915 0.62314 0.0
C435 C 0.3044 0.99638 0.6599 0.0
C436 C 0.35825 0.09076 0.71525 0.0
O437 O 0.36184 0.03485 0.68948 0.0
O438 O 0.39774 0.07051 0.66947 0.0
C439 C 0.40844 0.07527 0.58946 0.0
N440 N 0.40089 0.09273 0.60035 0.0
C441 C 0.41008 0.11326 0.5415 0.0
C442 C 0.41808 0.09559 0.52973 0.0
C443 C 0.4172 0.07649 0.5538 0.0
C444 C 0.40167 0.11121 0.57742 0.0
H445 H 0.4077 0.0605 0.60784 0.0
C446 C 0.38655 0.04822 0.68543 0.0
O447 O 0.30472 0.00857 0.68958 0.0
O448 O 0.32107 0.01005 0.63522 0.0
N449 N 0.3831 0.1226 0.62452 0.0
C450 C 0.37277 0.13678 0.63917 0.0
C451 C 0.37107 0.15593 0.61803 0.0
C452 C 0.38021 0.16048 0.58221 0.0
C453 C 0.39103 0.14585 0.56786 0.0
C454 C 0.39229 0.12707 0.59025 0.0
H455 H 0.36562 0.13333 0.66663 0.0
O456 O 0.31142 0.05286 0.63887 0.0
O457 O 0.35368 0.06835 0.63373 0.0
O458 O 0.3394 0.06792 0.70796 0.0
O459 O 0.3781 0.10249 0.69501 0.0
C460 C 0.39998 0.14868 0.5319 0.0
C461 C 0.40946 0.13237 0.51871 0.0
H462 H 0.42467 0.09632 0.50216 0.0
H463 H 0.42321 0.06269 0.54484 0.0
H464 H 0.36247 0.16696 0.62921 0.0
H465 H 0.37845 0.17496 0.5658 0.0
H466 H 0.39922 0.16301 0.51394 0.0
H467 H 0.41579 0.13438 0.49078 0.0
Mn468 Mn 0.96995 0.30441 0.67727 0.0
Mn469 Mn 0.97181 0.2514 0.71021 0.0
C470 C 0.93692 0.27553 0.71522 0.0
C471 C 0.98259 0.34873 0.68177 0.0
C472 C 0.95312 0.25403 0.63342 0.0
O473 O 1.0072 0.31256 0.6662 0.0
O474 O 1.00654 0.27788 0.69305 0.0
C475 C 1.00498 0.27909 0.77474 0.0
N476 N 0.98279 0.25874 0.76026 0.0
C477 C 0.9676 0.24126 0.81983 0.0
C478 C 0.99034 0.26195 0.83539 0.0
C479 C 1.00906 0.28101 0.81274 0.0
C480 C 0.96434 0.24074 0.78186 0.0
H481 H 0.01938 0.2938 0.75741 0.0
C482 C 0.01833 0.29941 0.67575 0.0
O483 O 0.97498 0.33639 0.65072 0.0
O484 O 0.9834 0.33559 0.70978 0.0
N485 N 0.94022 0.2231 0.72816 0.0
C486 C 0.92086 0.20294 0.70853 0.0
C487 C 0.90147 0.18118 0.7268 0.0
C488 C 0.90261 0.17997 0.76499 0.0
C489 C 0.9233 0.20037 0.78452 0.0
C490 C 0.9422 0.22141 0.76478 0.0
H491 H 0.92027 0.20336 0.67911 0.0
O492 O 0.93378 0.29192 0.69488 0.0
O493 O 0.95982 0.27728 0.71375 0.0
O494 O 0.95578 0.27692 0.6368 0.0
O495 O 0.95926 0.24273 0.65866 0.0
C496 C 0.92616 0.2004 0.82275 0.0
C497 C 0.94814 0.22101 0.84043 0.0
H498 H 0.99367 0.26336 0.86466 0.0
H499 H 0.02663 0.2971 0.82454 0.0
H500 H 0.88587 0.16525 0.71146 0.0
H501 H 0.88779 0.1631 0.77901 0.0
H502 H 0.91161 0.18462 0.83879 0.0
H503 H 0.95014 0.22077 0.8698 0.0
Mn504 Mn 0.71261 0.6685 0.68296 0.0
Mn505 Mn 0.77204 0.72222 0.69465 0.0
C506 C 0.74182 0.66904 0.72631 0.0
C507 C 0.66854 0.64188 0.69617 0.0
C508 C 0.75851 0.68381 0.63189 0.0
O509 O 0.7075 0.69721 0.65909 0.0
O510 O 0.74762 0.73177 0.66957 0.0
C511 C 0.75969 0.75386 0.74515 0.0
N512 N 0.77327 0.74118 0.73773 0.0
C513 C 0.79807 0.75656 0.79397 0.0
C514 C 0.78446 0.76993 0.80207 0.0
C515 C 0.76511 0.76846 0.77762 0.0
C516 C 0.79195 0.74247 0.76107 0.0
H517 H 0.74491 0.75295 0.72638 0.0
C518 C 0.72397 0.72173 0.65758 0.0
O519 O 0.678 0.63995 0.66543 0.0
O520 O 0.68427 0.66057 0.71822 0.0
N521 N 0.79703 0.71543 0.71945 0.0
C522 C 0.80802 0.701 0.70794 0.0
C523 C 0.82681 0.69931 0.7302 0.0
C524 C 0.83431 0.71268 0.76384 0.0
C525 C 0.82301 0.72771 0.77486 0.0
C526 C 0.80434 0.72862 0.75157 0.0
H527 H 0.8023 0.69064 0.68214 0.0
O528 O 0.72364 0.64699 0.71279 0.0
O529 O 0.74264 0.69022 0.71385 0.0
O530 O 0.73502 0.66875 0.6409 0.0
O531 O 0.77387 0.7045 0.6499 0.0
C532 C 0.82938 0.74165 0.80818 0.0
C533 C 0.81702 0.75618 0.81764 0.0
H534 H 0.78846 0.78107 0.82721 0.0
H535 H 0.75442 0.7786 0.78378 0.0
H536 H 0.83546 0.68769 0.72148 0.0
H537 H 0.84872 0.71122 0.78101 0.0
H538 H 0.8437 0.74125 0.82679 0.0
H539 H 0.82201 0.76672 0.8434 0.0
Mn540 Mn 0.3404 0.30205 0.65984 0.0
Mn541 Mn 0.39891 0.30853 0.63876 0.0
C542 C 0.34288 0.27488 0.61664 0.0
C543 C 0.30863 0.3144 0.65117 0.0
C544 C 0.3699 0.28249 0.70775 0.0
O545 O 0.36652 0.3372 0.68247 0.0
O546 O 0.40423 0.342 0.66043 0.0
C547 C 0.41318 0.3474 0.5797 0.0
N548 N 0.40885 0.32357 0.5915 0.0
C549 C 0.4187 0.31296 0.53261 0.0
C550 C 0.42352 0.33752 0.51993 0.0
C551 C 0.42068 0.35478 0.54356 0.0
C552 C 0.41141 0.30675 0.56896 0.0
H553 H 0.41079 0.3606 0.5977 0.0
C554 C 0.39111 0.3504 0.67791 0.0
O555 O 0.31017 0.30346 0.68123 0.0
O556 O 0.32604 0.31898 0.62684 0.0
N557 N 0.39682 0.27768 0.61746 0.0
C558 C 0.39044 0.25433 0.63352 0.0
C559 C 0.39169 0.23464 0.6133 0.0
C560 C 0.39961 0.23917 0.5769 0.0
C561 C 0.40651 0.2635 0.56116 0.0
C562 C 0.40522 0.28251 0.58279 0.0
H563 H 0.38432 0.2507 0.66148 0.0
O564 O 0.32085 0.26845 0.63181 0.0
O565 O 0.36248 0.29746 0.62614 0.0
O566 O 0.3492 0.28349 0.69999 0.0
O567 O 0.38988 0.29222 0.68748 0.0
C568 C 0.41423 0.26948 0.52468 0.0
C569 C 0.42026 0.29417 0.5104 0.0
H570 H 0.42914 0.34322 0.49201 0.0
H571 H 0.42418 0.37369 0.5339 0.0
H572 H 0.38645 0.21597 0.62572 0.0
H573 H 0.40027 0.22385 0.56126 0.0
H574 H 0.41522 0.25509 0.50723 0.0
H575 H 0.4258 0.2984 0.48216 0.0
Mn576 Mn 0.71069 0.05648 0.66938 0.0
Mn577 Mn 0.76631 0.0576 0.69727 0.0
C578 C 0.73747 0.08611 0.7138 0.0
C579 C 0.66588 0.04041 0.67517 0.0
C580 C 0.76085 0.08062 0.62549 0.0
O581 O 0.70568 0.02128 0.65074 0.0
O582 O 0.74231 0.02317 0.67401 0.0
C583 C 0.74437 0.01772 0.7552 0.0
N584 N 0.7617 0.04249 0.74464 0.0
C585 C 0.78006 0.05424 0.80542 0.0
C586 C 0.76252 0.02881 0.8169 0.0
C587 C 0.74455 0.0105 0.79169 0.0
C588 C 0.77896 0.06031 0.7687 0.0
H589 H 0.73048 1.00362 0.73593 0.0
C590 C 0.72041 0.01119 0.65657 0.0
O591 O 0.67756 0.05118 0.64513 0.0
O592 O 0.67994 0.03826 0.70113 0.0
N593 N 0.79127 0.0897 0.72059 0.0
C594 C 0.80597 0.11377 0.70555 0.0
C595 C 0.82444 0.13453 0.72739 0.0
C596 C 0.82778 0.13027 0.76432 0.0
C597 C 0.8128 0.10522 0.77902 0.0
C598 C 0.79476 0.08527 0.7559 0.0
H599 H 0.8035 0.11716 0.67717 0.0
O600 O 0.72094 0.09043 0.69543 0.0
O601 O 0.73759 0.06458 0.7058 0.0
O602 O 0.73742 0.0758 0.62972 0.0
O603 O 0.77308 0.07412 0.64876 0.0
C604 C 0.81474 0.09936 0.81583 0.0
C605 C 0.79827 0.07394 0.82909 0.0
H606 H 0.76252 0.02319 0.84505 0.0
H607 H 0.73085 0.99088 0.8004 0.0
H608 H 0.83595 0.15382 0.71587 0.0
H609 H 0.84168 0.14643 0.78123 0.0
H610 H 0.82861 0.11433 0.83431 0.0
H611 H 0.7996 0.06983 0.85762 0.0
Mn612 Mn 0.9754 0.68093 0.6592 0.0
Mn613 Mn 0.92048 0.6263 0.63155 0.0
C614 C 0.94844 0.68338 0.61458 0.0
C615 C 0.02001 0.71 0.65459 0.0
C616 C 0.92485 0.65541 0.70194 0.0
O617 O 0.98101 0.65118 0.6785 0.0
O618 O 0.94495 0.61628 0.65541 0.0
C619 C 0.94351 0.60872 0.57445 0.0
N620 N 0.92568 0.61583 0.5845 0.0
C621 C 0.90779 0.60916 0.52338 0.0
C622 C 0.92585 0.6016 0.51244 0.0
C623 C 0.94383 0.60145 0.53807 0.0
C624 C 0.90841 0.61621 0.56001 0.0
H625 H 0.95744 0.60868 0.59402 0.0
C626 C 0.96692 0.62648 0.67272 0.0
O627 O 1.00775 0.70865 0.68424 0.0
O628 O 1.00667 0.6938 0.62838 0.0
N629 N 0.89507 0.63286 0.60755 0.0
C630 C 0.87956 0.64156 0.6222 0.0
C631 C 0.86066 0.64315 0.60006 0.0
C632 C 0.85775 0.6356 0.56319 0.0
C633 C 0.87371 0.6264 0.54882 0.0
C634 C 0.89202 0.62498 0.5723 0.0
H635 H 0.88161 0.64731 0.65055 0.0
O636 O 0.96479 0.70424 0.63265 0.0
O637 O 0.94879 0.66193 0.62262 0.0
O638 O 0.94821 0.67377 0.69777 0.0
O639 O 0.91302 0.63617 0.67963 0.0
C640 C 0.87236 0.61887 0.51203 0.0
C641 C 0.8895 0.61041 0.49926 0.0
H642 H 0.92622 0.59608 0.48438 0.0
H643 H 0.95792 0.59578 0.52978 0.0
H644 H 0.8484 0.65025 0.61135 0.0
H645 H 0.84326 0.63701 0.54617 0.0
H646 H 0.85845 0.61982 0.4932 0.0
H647 H 0.88858 0.60511 0.47078 0.0
H648 H 0.15878 0.33297 0.17361 0.0
H649 H 0.14557 0.34206 0.0597 0.0
H650 H 0.11438 0.37019 0.14208 0.0
H651 H 0.16096 0.30384 0.12196 0.0
H652 H 0.1636 0.31475 0.07609 0.0
H653 H 0.19669 0.33401 0.169 0.0
H654 H 0.27313 0.36729 0.12519 0.0
H655 H 0.2065 0.33706 0.05263 0.0
C656 C 0.15163 0.34078 0.15238 0.0
C657 C 0.13724 0.35308 0.16218 0.0
C658 C 0.1556 0.33744 0.11537 0.0
C659 C 0.14399 0.34572 0.08825 0.0
C660 C 0.12915 0.3575 0.09801 0.0
C661 C 0.12647 0.36172 0.13477 0.0
C662 C 0.16874 0.32172 0.10485 0.0
C663 C 0.19816 0.33664 0.11017 0.0
C664 C 0.20917 0.34107 0.1457 0.0
C665 C 0.23616 0.35205 0.15123 0.0
C666 C 0.25226 0.35925 0.12104 0.0
C667 C 0.24175 0.35315 0.08565 0.0
C668 C 0.21471 0.34238 0.08001 0.0
H669 H 0.68433 0.82084 0.16326 0.0
H670 H 0.67947 0.8064 0.0476 0.0
H671 H 0.64324 0.74204 0.1211 0.0
H672 H 0.71164 0.85561 0.1173 0.0
H673 H 0.70333 0.85032 0.06998 0.0
H674 H 0.68097 0.86021 0.161 0.0
H675 H 0.64329 0.90059 0.11469 0.0
H676 H 0.67671 0.86709 0.04424 0.0
C677 C 0.67619 0.80733 0.14039 0.0
C678 C 0.66407 0.78014 0.14654 0.0
C679 C 0.67983 0.81708 0.10439 0.0
C680 C 0.67346 0.79925 0.07495 0.0
C681 C 0.66097 0.77217 0.08137 0.0
C682 C 0.65357 0.76305 0.11667 0.0
C683 C 0.69485 0.84637 0.09764 0.0
C684 C 0.67844 0.85965 0.10203 0.0
C685 C 0.67359 0.86569 0.13726 0.0
C686 C 0.66164 0.88115 0.14177 0.0
C687 C 0.65254 0.88863 0.11114 0.0
C688 C 0.65861 0.88447 0.07612 0.0
C689 C 0.6713 0.86967 0.07136 0.0
H690 H 0.17971 0.8132 0.17026 0.0
H691 H 0.16682 0.79371 0.05573 0.0
H692 H 0.10424 0.75601 0.13085 0.0
H693 H 0.21388 0.80886 0.12005 0.0
H694 H 0.20969 0.81847 0.07585 0.0
H695 H 0.22152 0.83889 0.17436 0.0
H696 H 0.27038 0.91955 0.14925 0.0
H697 H 0.22847 0.8642 0.06276 0.0
C698 C 0.1669 0.80336 0.14732 0.0
C699 C 0.14047 0.78597 0.15406 0.0
C700 C 0.17674 0.80655 0.11175 0.0
C701 C 0.15944 0.79203 0.08301 0.0
C702 C 0.13338 0.77337 0.08976 0.0
C703 C 0.12396 0.77114 0.12511 0.0
C704 C 0.20592 0.82004 0.1051 0.0
C705 C 0.2214 0.84842 0.11741 0.0
C706 C 0.22827 0.85437 0.15446 0.0
C707 C 0.24495 0.88016 0.16597 0.0
C708 C 0.25592 0.90006 0.14012 0.0
C709 C 0.25035 0.89468 0.10273 0.0
C710 C 0.23254 0.86877 0.09158 0.0
H711 H 0.38893 0.21841 0.83978 0.0
H712 H 0.38523 0.2325 0.95405 0.0
H713 H 0.36681 0.27432 0.87269 0.0
H714 H 0.41663 0.2118 0.89094 0.0
H715 H 0.40553 0.20809 0.93633 0.0
H716 H 0.37839 0.17845 0.84128 0.0
H717 H 0.35507 0.10113 0.87759 0.0
H718 H 0.38677 0.1647 0.95498 0.0
C719 C 0.38342 0.22694 0.86151 0.0
C720 C 0.37535 0.24511 0.85245 0.0
C721 C 0.38603 0.22124 0.89809 0.0
C722 C 0.38187 0.23555 0.92576 0.0
C723 C 0.37549 0.25527 0.91685 0.0
C724 C 0.37119 0.25894 0.88013 0.0
C725 C 0.39873 0.20465 0.90732 0.0
C726 C 0.38221 0.17526 0.89979 0.0
C727 C 0.37461 0.16543 0.86386 0.0
C728 C 0.36392 0.13859 0.85603 0.0
C729 C 0.36113 0.1214 0.88424 0.0
C730 C 0.36941 0.13059 0.9199 0.0
C731 C 0.37942 0.15744 0.92768 0.0
H732 H 0.85627 0.19449 0.83614 0.0
H733 H 0.88176 0.20121 0.94865 0.0
H734 H 0.92477 0.26327 0.87515 0.0
H735 H 0.85614 0.15532 0.87605 0.0
H736 H 0.85513 0.15878 0.92379 0.0
H737 H 0.82086 0.15593 0.8349 0.0
H738 H 0.74529 0.11255 0.88112 0.0
H739 H 0.81352 0.13996 0.94978 0.0
C740 C 0.8691 0.20594 0.85822 0.0
C741 C 0.88936 0.23166 0.85148 0.0
C742 C 0.86649 0.19433 0.89292 0.0
C743 C 0.88343 0.20957 0.9218 0.0
C744 C 0.90399 0.23484 0.91518 0.0
C745 C 0.90726 0.24494 0.88004 0.0
C746 C 0.85016 0.16474 0.89731 0.0
C747 C 0.82075 0.15321 0.89367 0.0
C748 C 0.8089 0.14969 0.85876 0.0
C749 C 0.78171 0.13474 0.85402 0.0
C750 C 0.76628 0.12452 0.8847 0.0
C751 C 0.77755 0.12524 0.91881 0.0
C752 C 0.80476 0.1402 0.92363 0.0
H753 H 0.84138 0.63893 0.83391 0.0
H754 H 0.87062 0.647 0.94388 0.0
H755 H 0.92354 0.67985 0.85534 0.0
H756 H 0.81475 0.61136 0.88756 0.0
H757 H 0.82553 0.62284 0.9329 0.0
H758 H 0.8162 0.65478 0.84625 0.0
H759 H 0.75058 0.65628 0.89103 0.0
H760 H 0.79588 0.63356 0.95842 0.0
C761 C 0.85745 0.64813 0.85337 0.0
C762 C 0.88295 0.66102 0.84043 0.0
C763 C 0.85278 0.64541 0.89112 0.0
C764 C 0.87416 0.65257 0.91551 0.0
C765 C 0.8997 0.66383 0.90237 0.0
C766 C 0.90382 0.67066 0.86547 0.0
C767 C 0.82512 0.62946 0.90456 0.0
C768 C 0.80875 0.64309 0.90277 0.0
C769 C 0.80459 0.65281 0.86951 0.0
C770 C 0.78414 0.65853 0.86512 0.0
C771 C 0.76814 0.65488 0.89477 0.0
C772 C 0.77292 0.64718 0.92877 0.0
C773 C 0.79317 0.64112 0.93269 0.0
H774 H 0.82081 0.65549 0.50136 0.0
H775 H 0.80843 0.67008 0.38914 0.0
H776 H 0.7679 0.68377 0.47517 0.0
H777 H 0.82943 0.63328 0.44698 0.0
H778 H 0.82976 0.64508 0.40212 0.0
H779 H 0.86326 0.6702 0.49464 0.0
H780 H 0.93949 0.70529 0.4498 0.0
H781 H 0.87233 0.66564 0.37912 0.0
C782 C 0.81244 0.66285 0.48117 0.0
C783 C 0.79448 0.6705 0.49231 0.0
C784 C 0.81825 0.66322 0.44387 0.0
C785 C 0.80512 0.67081 0.41797 0.0
C786 C 0.78645 0.67765 0.42914 0.0
C787 C 0.78187 0.678 0.4663 0.0
C788 C 0.83472 0.65137 0.43114 0.0
C789 C 0.86404 0.66916 0.43574 0.0
C790 C 0.87542 0.67649 0.47101 0.0
C791 C 0.9026 0.68906 0.47621 0.0
C792 C 0.91847 0.69583 0.4458 0.0
C793 C 0.90783 0.68658 0.41109 0.0
C794 C 0.88059 0.67364 0.40581 0.0
H795 H 0.34959 0.1553 0.50002 0.0
H796 H 0.355 0.14227 0.3856 0.0
H797 H 0.31785 0.07706 0.45755 0.0
H798 H 0.38421 0.18951 0.45446 0.0
H799 H 0.37494 0.18586 0.40753 0.0
H800 H 0.36071 0.20042 0.50044 0.0
H801 H 0.31925 0.23861 0.45944 0.0
H802 H 0.34367 0.19886 0.38508 0.0
C803 C 0.34408 0.14205 0.47688 0.0
C804 C 0.33247 0.1149 0.4829 0.0
C805 C 0.35104 0.15218 0.44131 0.0
C806 C 0.34734 0.13475 0.41226 0.0
C807 C 0.33561 0.1077 0.41843 0.0
C808 C 0.32655 0.09801 0.45301 0.0
C809 C 0.36699 0.18152 0.43551 0.0
C810 C 0.35199 0.19596 0.44236 0.0
C811 C 0.35105 0.20451 0.47799 0.0
C812 C 0.33949 0.22016 0.48411 0.0
C813 C 0.32812 0.22642 0.45483 0.0
C814 C 0.33011 0.21949 0.41923 0.0
C815 C 0.34166 0.20384 0.41282 0.0
H816 H 0.84872 0.14092 0.50065 0.0
H817 H 0.83608 0.11428 0.3889 0.0
H818 H 0.77209 0.0853 0.46228 0.0
H819 H 0.88222 0.1322 0.45647 0.0
H820 H 0.87909 0.13852 0.40993 0.0
H821 H 0.89179 0.16641 0.50449 0.0
H822 H 0.93768 0.24522 0.46779 0.0
H823 H 0.89565 0.18314 0.38951 0.0
C824 C 0.83578 0.13023 0.47812 0.0
C825 C 0.80899 0.11471 0.4847 0.0
C826 C 0.84584 0.1305 0.44344 0.0
C827 C 0.82852 0.11495 0.41535 0.0
C828 C 0.80194 0.09835 0.42208 0.0
C829 C 0.7923 0.09899 0.45645 0.0
C830 C 0.87499 0.14245 0.43803 0.0
C831 C 0.89064 0.17154 0.4462 0.0
C832 C 0.89811 0.18033 0.48241 0.0
C833 C 0.91438 0.20698 0.49026 0.0
C834 C 0.92386 0.22485 0.46161 0.0
C835 C 0.91731 0.21658 0.42517 0.0
C836 C 0.90038 0.18983 0.41758 0.0
H837 H 0.04357 0.54083 0.17049 0.0
H838 H 0.04993 0.55883 0.28529 0.0
H839 H 0.02252 0.59609 0.20899 0.0
H840 H 0.07857 0.53948 0.22009 0.0
H841 H 0.06653 0.53171 0.26496 0.0
H842 H 0.04862 0.50824 0.16624 0.0
H843 H 0.01423 0.4277 0.19428 0.0
H844 H 0.04789 0.48704 0.27825 0.0
C845 C 0.03963 0.54954 0.19349 0.0
C846 C 0.0304 0.5671 0.18629 0.0
C847 C 0.04583 0.54531 0.22924 0.0
C848 C 0.04343 0.56015 0.25792 0.0
C849 C 0.03458 0.57826 0.25084 0.0
C850 C 0.02756 0.58096 0.21508 0.0
C851 C 0.06027 0.52989 0.2358 0.0
C852 C 0.0457 0.50097 0.22443 0.0
C853 C 0.04126 0.49365 0.18724 0.0
C854 C 0.02913 0.46725 0.17644 0.0
C855 C 0.02278 0.44801 0.20293 0.0
C856 C 0.03091 0.45482 0.23941 0.0
C857 C 0.04122 0.4813 0.25034 0.0
H858 H 0.53166 0.52151 0.18551 0.0
H859 H 0.5368 0.5359 0.30125 0.0
H860 H 0.5694 0.60037 0.22727 0.0
H861 H 0.52215 0.4865 0.23117 0.0
H862 H 0.51975 0.49209 0.27827 0.0
H863 H 0.48688 0.489 0.18674 0.0
H864 H 0.41049 0.43992 0.22848 0.0
H865 H 0.4772 0.46771 0.3002 0.0
C866 C 0.53626 0.53506 0.20814 0.0
C867 C 0.55178 0.56212 0.20228 0.0
C868 C 0.52887 0.52536 0.24379 0.0
C869 C 0.53919 0.54315 0.2736 0.0
C870 C 0.55432 0.57022 0.26742 0.0
C871 C 0.55791 0.57941 0.23175 0.0
C872 C 0.51484 0.49601 0.25035 0.0
C873 C 0.48538 0.48285 0.24505 0.0
C874 C 0.47431 0.48048 0.20975 0.0
C875 C 0.4473 0.46448 0.20353 0.0
C876 C 0.43128 0.45255 0.23322 0.0
C877 C 0.4419 0.45284 0.26767 0.0
C878 C 0.46891 0.46834 0.27383 0.0
H879 H 0.51244 0.96753 0.16448 0.0
H880 H 0.53839 0.98457 0.27671 0.0
H881 H 0.5936 1.00201 0.19157 0.0
H882 H 0.48407 0.942 0.21705 0.0
H883 H 0.49433 0.95307 0.26267 0.0
H884 H 0.48567 0.9838 0.17531 0.0
H885 H 0.42258 0.99063 0.2203 0.0
H886 H 0.46642 0.96614 0.2883 0.0
C887 C 0.52808 0.97639 0.18468 0.0
C888 C 0.55399 0.98703 0.17362 0.0
C889 C 0.52226 0.97589 0.22189 0.0
C890 C 0.54281 0.98596 0.24797 0.0
C891 C 0.56875 0.99542 0.23742 0.0
C892 C 0.57401 0.99627 0.20014 0.0
C893 C 0.49438 0.95996 0.23435 0.0
C894 C 0.47853 0.97398 0.23219 0.0
C895 C 0.47419 0.98278 0.1984 0.0
C896 C 0.45396 0.98879 0.1937 0.0
C897 C 0.43918 0.98752 0.22391 0.0
C898 C 0.44388 0.98008 0.25821 0.0
C899 C 0.46359 0.97325 0.26225 0.0
H900 H 0.48851 0.99476 0.83271 0.0
H901 H 0.47509 0.00772 0.72012 0.0
H902 H 0.43479 0.02206 0.80558 0.0
H903 H 0.49543 0.97078 0.77886 0.0
H904 H 0.49621 0.9824 0.73384 0.0
H905 H 0.53024 1.00286 0.82634 0.0
H906 H 0.60606 0.04382 0.77972 0.0
H907 H 0.53822 0.00692 0.70978 0.0
C908 C 0.47977 1.00164 0.81238 0.0
C909 C 0.46168 0.00921 0.82337 0.0
C910 C 0.48517 1.00133 0.77506 0.0
C911 C 0.47199 0.00873 0.74895 0.0
C912 C 0.45351 0.01581 0.76006 0.0
C913 C 0.44892 0.01639 0.79711 0.0
C914 C 0.50117 0.98888 0.7628 0.0
C915 C 0.5305 1.00629 0.76757 0.0
C916 C 0.54222 0.01106 0.80274 0.0
C917 C 0.56951 0.02375 0.80718 0.0
C918 C 0.58498 0.03369 0.77645 0.0
C919 C 0.574 0.02648 0.74142 0.0
C920 C 0.54672 0.01326 0.73686 0.0
H921 H 0.01762 0.48941 0.8279 0.0
H922 H 0.01081 0.47679 0.7114 0.0
H923 H 0.9843 0.4115 0.78365 0.0
H924 H 0.04546 0.52466 0.78136 0.0
H925 H 0.03529 0.52021 0.73475 0.0
H926 H 0.01718 0.52919 0.82931 0.0
H927 H 0.98118 0.57331 0.79107 0.0
H928 H 1.00797 0.53745 0.71377 0.0
C929 C 1.01021 0.47622 0.80465 0.0
C930 C 1.00002 0.44915 0.81 0.0
C931 C 0.01311 0.48644 0.76899 0.0
C932 C 1.00653 0.46915 0.73884 0.0
C933 C 0.99628 0.44217 0.74435 0.0
C934 C 0.99179 0.43236 0.77971 0.0
C935 C 0.02789 0.51584 0.76302 0.0
C936 C 0.01212 0.52939 0.77066 0.0
C937 C 1.00908 0.53522 0.80696 0.0
C938 C 0.99813 0.55124 0.81426 0.0
C939 C 0.98912 0.56043 0.78539 0.0
C940 C 0.99302 0.55604 0.74932 0.0
C941 C 1.00416 0.54015 0.74176 0.0
H942 H 0.51091 0.48786 0.83819 0.0
H943 H 0.4924 0.45275 0.73105 0.0
H944 H 0.43238 0.43177 0.80969 0.0
H945 H 0.54077 0.47248 0.78591 0.0
H946 H 0.53593 0.48373 0.74333 0.0
H947 H 0.55275 0.50255 0.84251 0.0
H948 H 0.60316 0.58325 0.8191 0.0
H949 H 0.55825 0.52973 0.73202 0.0
C950 C 0.49705 0.47553 0.81765 0.0
C951 C 0.47109 0.45967 0.82806 0.0
C952 C 0.50507 0.47368 0.78228 0.0
C953 C 0.48615 0.45612 0.7571 0.0
C954 C 0.45977 0.44108 0.76655 0.0
C955 C 0.45245 0.44387 0.80173 0.0
C956 C 0.53381 0.48524 0.77318 0.0
C957 C 0.55188 0.51317 0.78607 0.0
C958 C 0.55979 0.51833 0.82296 0.0
C959 C 0.57673 0.5439 0.83495 0.0
C960 C 0.58854 0.56396 0.80949 0.0
C961 C 0.58296 0.55903 0.77201 0.0
C962 C 0.56351 0.53374 0.76068 0.0
H963 H 0.70341 0.87034 0.50669 0.0
H964 H 0.71718 0.89949 0.61726 0.0
H965 H 0.68531 0.9297 0.53657 0.0
H966 H 0.74589 0.88003 0.55632 0.0
H967 H 0.73359 0.87157 0.60082 0.0
H968 H 0.7218 0.84718 0.50268 0.0
H969 H 0.69472 0.76795 0.53392 0.0
H970 H 0.71289 0.82681 0.61641 0.0
C971 C 0.7016 0.88185 0.52801 0.0
C972 C 0.69218 0.89886 0.51822 0.0
C973 C 0.71073 0.88167 0.56365 0.0
C974 C 0.70917 0.8984 0.59006 0.0
C975 C 0.69921 0.91528 0.58078 0.0
C976 C 0.6907 0.91516 0.54479 0.0
C977 C 0.72751 0.8689 0.57153 0.0
C978 C 0.71575 0.84012 0.56071 0.0
C979 C 0.71463 0.83262 0.52386 0.0
C980 C 0.70548 0.80632 0.51417 0.0
C981 C 0.69956 0.78775 0.54156 0.0
C982 C 0.70289 0.79503 0.57842 0.0
C983 C 0.71002 0.82105 0.5879 0.0
H984 H 0.2002 0.85541 0.51067 0.0
H985 H 0.20804 0.86734 0.62712 0.0
H986 H 0.24222 0.93325 0.55568 0.0
H987 H 0.1926 0.81962 0.55487 0.0
H988 H 0.18958 0.82385 0.6022 0.0
H989 H 0.15763 0.81731 0.50967 0.0
H990 H 0.08057 0.77736 0.55301 0.0
H991 H 0.14697 0.80576 0.62551 0.0
C992 C 0.20578 0.86854 0.53398 0.0
C993 C 0.22175 0.89564 0.52901 0.0
C994 C 0.19929 0.85813 0.56941 0.0
C995 C 0.21033 0.87522 0.59985 0.0
C996 C 0.22608 0.90232 0.59465 0.0
C997 C 0.22974 0.91231 0.55942 0.0
C998 C 0.1851 0.82865 0.57455 0.0
C999 C 0.15579 0.81602 0.56863 0.0
C1000 C 0.14493 0.81133 0.53287 0.0
C1001 C 0.11777 0.79647 0.52707 0.0
C1002 C 0.10157 0.78854 0.55726 0.0
C1003 C 0.11186 0.79058 0.59246 0.0
C1004 C 0.13898 0.80481 0.59834 0.0
H1005 H 0.17002 0.29822 0.50378 0.0
H1006 H 0.19128 0.30537 0.61812 0.0
H1007 H 0.24972 0.32746 0.53653 0.0
H1008 H 0.1384 0.26958 0.55358 0.0
H1009 H 0.14661 0.27904 0.60008 0.0
H1010 H 0.13109 0.2989 0.51029 0.0
H1011 H 0.09746 0.34162 0.55987 0.0
H1012 H 0.13179 0.30609 0.62648 0.0
C1013 C 0.18473 0.3046 0.52533 0.0
C1014 C 0.211 0.31495 0.51618 0.0
C1015 C 0.17742 0.30148 0.56219 0.0
C1016 C 0.19681 0.30841 0.58979 0.0
C1017 C 0.22303 0.31772 0.58077 0.0
C1018 C 0.2298 0.32135 0.54396 0.0
C1019 C 0.14885 0.28694 0.57197 0.0
C1020 C 0.13557 0.30345 0.56846 0.0
C1021 C 0.12735 0.30745 0.53393 0.0
C1022 C 0.11285 0.32064 0.53022 0.0
C1023 C 0.10716 0.3301 0.56201 0.0
C1024 C 0.11101 0.32225 0.59664 0.0
C1025 C 0.12729 0.31096 0.59979 0.0
C1026 C 0.05066 0.45971 0.08286 0.0
C1027 C 0.02841 0.43752 0.06849 0.0
C1028 C 0.05023 0.47047 0.11678 0.0
C1029 C 0.02749 0.45958 0.13752 0.0
H1030 H 0.06898 0.46808 0.06875 0.0
H1031 H 0.06825 0.48644 0.12779 0.0
S1032 S 0.96285 0.4045 0.10972 0.0
N1033 N 0.98207 0.40716 0.07587 0.0
N1034 N 0.98143 0.42757 0.13955 0.0
C1035 C 1.00465 0.43867 0.12239 0.0
C1036 C 1.00506 0.42761 0.08792 0.0
C1037 C 0.56656 0.57665 0.10133 0.0
C1038 C 0.59364 0.59387 0.10231 0.0
C1039 C 0.55296 0.5658 0.13364 0.0
C1040 C 0.56603 0.57251 0.16778 0.0
H1041 H 0.55596 0.57126 0.07547 0.0
H1042 H 0.53214 0.55246 0.13197 0.0
S1043 S 0.6367 0.6188 0.18435 0.0
N1044 N 0.63261 0.61871 0.13972 0.0
N1045 N 0.60782 0.5978 0.20009 0.0
C1046 C 0.59318 0.59005 0.16873 0.0
C1047 C 0.60676 0.60104 0.13608 0.0
C1048 C 0.4245 0.01369 0.12203 0.0
C1049 C 0.42344 0.99959 0.09065 0.0
C1050 C 0.43631 0.01157 0.15422 0.0
C1051 C 0.44598 0.99386 0.15711 0.0
H1052 H 0.41585 0.0263 0.12184 0.0
H1053 H 0.43714 0.02343 0.17738 0.0
S1054 S 0.44556 0.95059 0.0826 0.0
N1055 N 0.43245 0.96716 0.06374 0.0
N1056 N 0.45252 0.96098 0.12532 0.0
C1057 C 0.44455 0.97918 0.12578 0.0
C1058 C 0.43338 0.98223 0.09249 0.0
C1059 C 0.41967 0.99779 0.90523 0.0
C1060 C 0.43729 0.01565 0.9313 0.0
C1061 C 0.4281 0.99453 0.87122 0.0
C1062 C 0.45451 0.00876 0.86193 0.0
H1063 H 0.39897 0.98693 0.91043 0.0
H1064 H 0.41365 0.98152 0.85137 0.0
S1065 S 0.50917 0.05558 0.9213 0.0
N1066 N 0.48303 0.04611 0.94623 0.0
N1067 N 0.49861 0.03965 0.88207 0.0
C1068 C 0.47263 0.02541 0.88826 0.0
C1069 C 0.46408 0.02899 0.92295 0.0
C1070 C 0.0151 0.41018 0.87937 0.0
C1071 C 1.00532 0.41416 0.9118 0.0
C1072 C 0.01373 0.42214 0.84707 0.0
C1073 C 1.00206 0.43819 0.84571 0.0
H1074 H 0.024 0.39779 0.87899 0.0
H1075 H 0.02203 0.41883 0.82287 0.0
S1076 S 0.97208 0.45342 0.92315 0.0
N1077 N 0.98251 0.43413 0.9408 0.0
N1078 N 0.97992 0.45683 0.87967 0.0
C1079 C 0.99179 0.442 0.87793 0.0
C1080 C 0.9931 0.42962 0.91097 0.0
C1081 C 0.60367 0.54862 0.93111 0.0
C1082 C 0.59964 0.56827 0.94679 0.0
C1083 C 0.59512 0.53971 0.89524 0.0
C1084 C 0.58232 0.55022 0.87415 0.0
H1085 H 0.61465 0.54105 0.94587 0.0
H1086 H 0.5996 0.52549 0.88338 0.0
S1087 S 0.56305 0.59851 0.90431 0.0
N1088 N 0.57893 0.59532 0.93977 0.0
N1089 N 0.56327 0.57873 0.87248 0.0
C1090 C 0.57665 0.56847 0.89027 0.0
C1091 C 0.58518 0.57745 0.9266 0.0
C1092 C 0.01569 0.60348 0.88606 0.0
C1093 C 1.00521 0.58917 0.91788 0.0
C1094 C 0.01377 0.59081 0.85313 0.0
C1095 C 1.00081 0.56328 0.85056 0.0
H1096 H 0.02552 0.62472 0.88661 0.0
H1097 H 0.02249 0.60273 0.82934 0.0
S1098 S 0.96851 0.51686 0.92571 0.0
N1099 N 0.98031 0.54614 0.94493 0.0
N1100 N 0.97672 0.52202 0.88239 0.0
C1101 C 0.98986 0.54863 0.88206 0.0
C1102 C 0.99175 0.56167 0.91583 0.0
C1103 C 0.42986 0.44213 0.91262 0.0
C1104 C 0.44315 0.43389 0.93704 0.0
C1105 C 0.44006 0.45256 0.87848 0.0
C1106 C 0.46393 0.45516 0.86722 0.0
H1107 H 0.41093 0.43962 0.91924 0.0
H1108 H 0.42856 0.45751 0.86003 0.0
S1109 S 0.50786 0.43911 0.92216 0.0
N1110 N 0.48286 0.43152 0.94867 0.0
N1111 N 0.50147 0.45028 0.88426 0.0
C1112 C 0.47822 0.44858 0.89222 0.0
C1113 C 0.46796 0.43813 0.92712 0.0
C1114 C 0.58704 0.02657 0.90855 0.0
C1115 C 0.60442 0.01657 0.9088 0.0
C1116 C 0.57562 0.02888 0.87565 0.0
C1117 C 0.58195 0.02203 0.84205 0.0
H1118 H 0.58174 0.03196 0.93395 0.0
H1119 H 0.56182 0.03607 0.87646 0.0
S1120 S 0.62924 0.99803 0.82858 0.0
N1121 N 0.62944 1.0023 0.87306 0.0
N1122 N 0.60781 1.0058 0.81154 0.0
C1123 C 0.60013 0.01287 0.84226 0.0
C1124 C 0.61155 0.01053 0.87555 0.0
C1125 C 0.59166 0.00828 0.0861 0.0
C1126 C 0.58136 0.98489 0.0655 0.0
C1127 C 0.58157 0.00906 0.12002 0.0
C1128 C 0.56081 0.9865 0.13494 0.0
H1129 H 0.60805 0.02613 0.07633 0.0
H1130 H 0.59068 0.02735 0.1353 0.0
S1131 S 0.52593 0.92053 0.09169 0.0
N1132 N 0.54819 0.93877 0.06194 0.0
N1133 N 0.52963 0.94025 0.12614 0.0
C1134 C 0.54955 0.96321 0.11413 0.0
C1135 C 0.55974 0.96241 0.07935 0.0
C1136 C 0.04995 0.59344 0.09115 0.0
C1137 C 0.02928 0.59739 0.07901 0.0
C1138 C 0.04953 0.58246 0.12514 0.0
C1139 C 0.02837 0.5748 0.14839 0.0
H1140 H 0.06708 0.59956 0.07478 0.0
H1141 H 0.06646 0.581 0.13388 0.0
S1142 S 0.96804 0.57806 0.12855 0.0
N1143 N 0.98603 0.5908 0.09224 0.0
N1144 N 0.98534 0.56992 0.15618 0.0
C1145 C 1.00706 0.57753 0.13618 0.0
C1146 C 1.00747 0.58883 0.10152 0.0
C1147 C 0.41093 0.41638 0.12674 0.0
C1148 C 0.41552 0.43235 0.09623 0.0
C1149 C 0.42123 0.42719 0.16099 0.0
C1150 C 0.43619 0.45453 0.16642 0.0
H1151 H 0.39973 0.39523 0.12399 0.0
H1152 H 0.41796 0.41382 0.18328 0.0
S1153 S 0.45135 0.50499 0.09568 0.0
N1154 N 0.43406 0.47683 0.07356 0.0
N1155 N 0.45372 0.49743 0.13852 0.0
C1156 C 0.44008 0.47085 0.13632 0.0
C1157 C 0.42938 0.4597 0.10117 0.0
C1158 C 0.67977 0.7644 0.42904 0.0
C1159 C 0.70184 0.77395 0.40689 0.0
C1160 C 0.6808 0.77604 0.46273 0.0
C1161 C 0.70388 0.79778 0.47574 0.0
H1162 H 0.66162 0.74728 0.42086 0.0
H1163 H 0.6636 0.76739 0.47939 0.0
S1164 S 0.76668 0.83173 0.42782 0.0
N1165 N 0.74717 0.80773 0.39976 0.0
N1166 N 0.74899 0.82934 0.4635 0.0
C1167 C 0.72574 0.80844 0.45334 0.0
C1168 C 0.72475 0.79659 0.41884 0.0
C1169 C 0.27651 0.93431 0.46415 0.0
C1170 C 0.2639 0.9291 0.43 0.0
C1171 C 0.26257 0.92304 0.49555 0.0
C1172 C 0.23527 0.90655 0.49426 0.0
H1173 H 0.29744 0.94701 0.46659 0.0
H1174 H 0.27344 0.92708 0.52113 0.0
S1175 S 0.19302 0.88782 0.41112 0.0
N1176 N 0.22271 0.90727 0.39614 0.0
N1177 N 0.19613 0.88594 0.45575 0.0
C1178 C 0.22231 0.90148 0.46019 0.0
C1179 C 0.23667 0.91309 0.42797 0.0
C1180 C 0.10419 0.32472 0.42704 0.0
C1181 C 0.08199 0.32763 0.42431 0.0
C1182 C 0.1144 0.32316 0.46127 0.0
C1183 C 0.10161 0.32243 0.49386 0.0
H1184 H 0.11413 0.32443 0.40267 0.0
H1185 H 0.13264 0.32289 0.4619 0.0
S1186 S 0.03769 0.32121 0.49845 0.0
N1187 N 0.04539 0.32618 0.45508 0.0
N1188 N 0.06163 0.31878 0.51883 0.0
C1189 C 0.07762 0.32256 0.49049 0.0
C1190 C 0.06843 0.32604 0.45587 0.0
C1191 C 0.12304 0.37888 0.24858 0.0
C1192 C 0.10798 0.35581 0.26825 0.0
C1193 C 0.13384 0.37811 0.21513 0.0
C1194 C 0.13037 0.35434 0.20055 0.0
H1195 H 0.12538 0.39744 0.25812 0.0
H1196 H 0.14415 0.39608 0.19985 0.0
S1197 S 0.09531 0.28901 0.24366 0.0
N1198 N 0.0922 0.30893 0.27242 0.0
N1199 N 0.11255 0.30756 0.20967 0.0
C1200 C 0.11679 0.33144 0.2211 0.0
C1201 C 0.10555 0.33216 0.25489 0.0
C1202 C 0.66172 0.76626 0.24875 0.0
C1203 C 0.66955 0.74711 0.25037 0.0
C1204 C 0.6604 0.7774 0.21523 0.0
C1205 C 0.66621 0.76915 0.18236 0.0
H1206 H 0.65704 0.77295 0.27354 0.0
H1207 H 0.65449 0.79224 0.21499 0.0
S1208 S 0.68518 0.71739 0.17261 0.0
N1209 N 0.6809 0.7187 0.2167 0.0
N1210 N 0.67991 0.74014 0.15426 0.0
C1211 C 0.67371 0.7496 0.18406 0.0
C1212 C 0.67479 0.73829 0.2179 0.0
C1213 C 0.25994 0.91617 0.25604 0.0
C1214 C 0.27251 0.90507 0.27658 0.0
C1215 C 0.25014 0.90717 0.22089 0.0
C1216 C 0.25239 0.88665 0.20486 0.0
H1217 H 0.2582 0.93245 0.2668 0.0
H1218 H 0.24129 0.9168 0.20571 0.0
S1219 S 0.28229 0.84989 0.24727 0.0
N1220 N 0.28553 0.8715 0.27874 0.0
N1221 N 0.26712 0.85469 0.21223 0.0
C1222 C 0.26382 0.87451 0.22546 0.0
C1223 C 0.27385 0.88368 0.26145 0.0
C1224 C 0.65386 0.89284 0.24178 0.0
C1225 C 0.66685 0.92037 0.24386 0.0
C1226 C 0.6525 0.87993 0.20879 0.0
C1227 C 0.66335 0.89431 0.17696 0.0
H1228 H 0.64539 0.88132 0.26593 0.0
H1229 H 0.64283 0.85871 0.20809 0.0
S1230 S 0.69603 0.96673 0.16768 0.0
N1231 N 0.68823 0.96139 0.21103 0.0
N1232 N 0.68617 0.93754 0.1494 0.0
C1233 C 0.67548 0.92186 0.17872 0.0
C1234 C 0.67692 0.93481 0.21206 0.0
C1235 C 0.13242 0.76173 0.25144 0.0
C1236 C 0.10767 0.75809 0.26054 0.0
C1237 C 0.14363 0.77226 0.21781 0.0
C1238 C 0.13063 0.77966 0.19186 0.0
H1239 H 0.14296 0.7556 0.26988 0.0
H1240 H 0.16204 0.77338 0.21141 0.0
S1241 S 0.06726 0.77768 0.20348 0.0
N1242 N 0.07174 0.76528 0.24163 0.0
N1243 N 0.09302 0.78511 0.17862 0.0
C1244 C 0.10664 0.77756 0.20124 0.0
C1245 C 0.09514 0.7668 0.23547 0.0
C1246 C 0.27411 0.33778 0.22328 0.0
C1247 C 0.26829 0.34635 0.2556 0.0
C1248 C 0.26368 0.33994 0.18989 0.0
C1249 C 0.24737 0.35122 0.18741 0.0
H1250 H 0.28653 0.32893 0.22387 0.0
H1251 H 0.268 0.33212 0.16587 0.0
S1252 S 0.22819 0.37878 0.2642 0.0
N1253 N 0.2468 0.36807 0.28346 0.0
N1254 N 0.22692 0.37221 0.22015 0.0
C1255 C 0.24204 0.36064 0.21951 0.0
C1256 C 0.25284 0.35848 0.25373 0.0
C1257 C 0.22107 0.29344 0.42339 0.0
C1258 C 0.24328 0.31606 0.41102 0.0
C1259 C 0.20935 0.29362 0.45632 0.0
C1260 C 0.21932 0.31646 0.47791 0.0
H1261 H 0.21328 0.27513 0.40834 0.0
H1262 H 0.19331 0.27543 0.4659 0.0
S1263 S 0.27424 0.38185 0.45536 0.0
N1264 N 0.27275 0.36272 0.4213 0.0
N1265 N 0.25066 0.36286 0.48297 0.0
C1266 C 0.24035 0.33957 0.46477 0.0
C1267 C 0.25235 0.33942 0.43143 0.0
C1268 C 0.70908 0.91733 0.41973 0.0
C1269 C 0.68889 0.92182 0.407 0.0
C1270 C 0.70917 0.9085 0.4551 0.0
C1271 C 0.689 0.90357 0.47919 0.0
H1272 H 0.72564 0.92178 0.40289 0.0
H1273 H 0.72593 0.90686 0.46422 0.0
S1274 S 0.62959 0.90818 0.45799 0.0
N1275 N 0.64665 0.91783 0.42036 0.0
N1276 N 0.64694 0.90097 0.4869 0.0
C1277 C 0.66787 0.9063 0.46625 0.0
C1278 C 0.66775 0.91541 0.43016 0.0
C1279 C 0.10058 0.78793 0.42505 0.0
C1280 C 0.08438 0.76062 0.42175 0.0
C1281 C 0.1117 0.79967 0.45909 0.0
C1282 C 0.10621 0.78446 0.49086 0.0
H1283 H 0.10525 0.80013 0.40108 0.0
H1284 H 0.12455 0.82067 0.46059 0.0
S1285 S 0.0619 0.71244 0.49667 0.0
N1286 N 0.06119 0.71918 0.45311 0.0
N1287 N 0.08233 0.7406 0.51653 0.0
C1288 C 0.08919 0.75717 0.4877 0.0
C1289 C 0.07804 0.74544 0.45333 0.0
C1290 C 0.37956 0.12824 0.75992 0.0
C1291 C 0.35766 0.10422 0.74939 0.0
C1292 C 0.38072 0.1402 0.79349 0.0
C1293 C 0.36001 0.1287 0.81788 0.0
H1294 H 0.39645 0.13751 0.74275 0.0
H1295 H 0.39855 0.15784 0.8012 0.0
S1296 S 0.29681 0.0681 0.80191 0.0
N1297 N 0.31361 0.07087 0.76505 0.0
N1298 N 0.316 0.09356 0.82803 0.0
C1299 C 0.33741 0.10563 0.80695 0.0
C1300 C 0.33617 0.09336 0.77277 0.0
C1301 C 0.90002 0.23906 0.74888 0.0
C1302 C 0.92046 0.26498 0.7474 0.0
C1303 C 0.88795 0.22829 0.78213 0.0
C1304 C 0.89475 0.24385 0.81416 0.0
H1305 H 0.89429 0.22673 0.72481 0.0
H1306 H 0.87458 0.20745 0.78272 0.0
S1307 S 0.93507 0.31669 0.81628 0.0
N1308 N 0.94012 0.30799 0.77578 0.0
N1309 N 0.91397 0.2892 0.83601 0.0
C1310 C 0.91036 0.27128 0.80974 0.0
C1311 C 0.92409 0.2816 0.7769 0.0
C1312 C 0.76715 0.65342 0.76376 0.0
C1313 C 0.75524 0.66901 0.76046 0.0
C1314 C 0.77786 0.65133 0.79723 0.0
C1315 C 0.77696 0.66475 0.82863 0.0
H1316 H 0.76773 0.64236 0.74048 0.0
H1317 H 0.78569 0.63804 0.79874 0.0
S1318 S 0.74609 0.70683 0.83406 0.0
N1319 N 0.741 0.69623 0.79143 0.0
N1320 N 0.76369 0.69502 0.85327 0.0
C1321 C 0.76563 0.68106 0.82507 0.0
C1322 C 0.75396 0.68236 0.79135 0.0
C1323 C 0.79468 0.69346 0.5884 0.0
C1324 C 0.76844 0.67748 0.59843 0.0
C1325 C 0.80385 0.68969 0.55512 0.0
C1326 C 0.78716 0.66977 0.53078 0.0
H1327 H 0.80807 0.70968 0.60568 0.0
H1328 H 0.82365 0.70337 0.54746 0.0
S1329 S 0.71799 0.62058 0.54503 0.0
N1330 N 0.72673 0.63924 0.58204 0.0
N1331 N 0.74416 0.63255 0.51966 0.0
C1332 C 0.76151 0.65267 0.54125 0.0
C1333 C 0.75211 0.6564 0.57503 0.0
C1334 C 0.34256 0.07611 0.55778 0.0
C1335 C 0.332 0.08132 0.58844 0.0
C1336 C 0.34283 0.08747 0.52429 0.0
C1337 C 0.33185 0.10398 0.51969 0.0
H1338 H 0.35107 0.0634 0.55979 0.0
H1339 H 0.35206 0.08347 0.5018 0.0
S1340 S 0.29894 0.12117 0.59095 0.0
N1341 N 0.30847 0.10227 0.61212 0.0
N1342 N 0.30864 0.12365 0.54842 0.0
C1343 C 0.32038 0.10867 0.54994 0.0
C1344 C 0.3202 0.09702 0.58438 0.0
C1345 C 0.92951 0.24959 0.57436 0.0
C1346 C 0.94197 0.2401 0.59824 0.0
C1347 C 0.91995 0.23813 0.54011 0.0
C1348 C 0.92237 0.21668 0.52819 0.0
H1349 H 0.92726 0.26624 0.5819 0.0
H1350 H 0.91087 0.2464 0.52254 0.0
S1351 S 0.95275 0.18379 0.57999 0.0
N1352 N 0.95557 0.20733 0.60764 0.0
N1353 N 0.9377 0.18596 0.54278 0.0
C1354 C 0.9341 0.20643 0.55192 0.0
C1355 C 0.94388 0.2181 0.58704 0.0
C1356 C 0.35112 0.27372 0.55135 0.0
C1357 C 0.34337 0.26042 0.58444 0.0
C1358 C 0.35081 0.26057 0.51957 0.0
C1359 C 0.34203 0.23342 0.51947 0.0
H1360 H 0.35738 0.29447 0.54999 0.0
H1361 H 0.35725 0.27175 0.49468 0.0
S1362 S 0.31898 0.1897 0.59942 0.0
N1363 N 0.32631 0.21885 0.61579 0.0
N1364 N 0.32538 0.19372 0.55546 0.0
C1365 C 0.33419 0.21985 0.5525 0.0
C1366 C 0.33458 0.23339 0.58506 0.0
C1367 C 0.79884 0.09532 0.58403 0.0
C1368 C 0.77435 0.0931 0.5911 0.0
C1369 C 0.81076 0.10401 0.55031 0.0
C1370 C 0.79878 0.11096 0.52225 0.0
H1371 H 0.80853 0.0893 0.60411 0.0
H1372 H 0.8288 0.10388 0.54555 0.0
S1373 S 0.73686 0.11277 0.52811 0.0
N1374 N 0.74003 0.10151 0.56809 0.0
N1375 N 0.76268 0.11797 0.50484 0.0
C1376 C 0.77523 0.11055 0.5296 0.0
C1377 C 0.76299 0.10163 0.56395 0.0
C1378 C 0.94264 0.67755 0.54809 0.0
C1379 C 0.9366 0.6859 0.58037 0.0
C1380 C 0.93163 0.67897 0.51481 0.0
C1381 C 0.9145 0.68931 0.51234 0.0
H1382 H 0.95566 0.66938 0.54862 0.0
H1383 H 0.93613 0.67121 0.4909 0.0
S1384 S 0.89425 0.71586 0.58914 0.0
N1385 N 0.91389 0.70637 0.60828 0.0
N1386 N 0.89292 0.70911 0.54514 0.0
C1387 C 0.9089 0.69852 0.54442 0.0
C1388 C 0.92029 0.6971 0.57855 0.0
C1389 C 0.91908 0.68094 0.75199 0.0
C1390 C 0.91088 0.65667 0.73443 0.0
C1391 C 0.90814 0.68253 0.78479 0.0
C1392 C 0.88867 0.65991 0.80146 0.0
H1393 H 0.93463 0.69885 0.74088 0.0
H1394 H 0.91595 0.70144 0.79825 0.0
S1395 S 0.85904 0.59181 0.76553 0.0
N1396 N 0.88072 0.6097 0.73494 0.0
N1397 N 0.86065 0.61264 0.7971 0.0
C1398 C 0.87922 0.6357 0.78321 0.0
C1399 C 0.89023 0.63409 0.7496 0.0
C1400 C 0.34971 0.26102 0.76648 0.0
C1401 C 0.37108 0.27052 0.74297 0.0
C1402 C 0.35098 0.25197 0.80132 0.0
C1403 C 0.37356 0.25185 0.81403 0.0
H1404 H 0.33199 0.26117 0.75842 0.0
H1405 H 0.33433 0.24549 0.8188 0.0
S1406 S 0.4345 0.27321 0.76326 0.0
N1407 N 0.41522 0.27795 0.73469 0.0
N1408 N 0.41753 0.2612 0.80055 0.0
C1409 C 0.39475 0.26034 0.79061 0.0
C1410 C 0.39353 0.2696 0.75501 0.0
C1411 C 0.74235 0.08495 0.78041 0.0
C1412 C 0.74848 0.09987 0.7486 0.0
C1413 C 0.75291 0.09664 0.81412 0.0
C1414 C 0.76969 0.12391 0.81761 0.0
H1415 H 0.7297 0.06388 0.77913 0.0
H1416 H 0.74849 0.08393 0.83751 0.0
S1417 S 0.78967 0.17196 0.74248 0.0
N1418 N 0.77066 0.14337 0.72231 0.0
N1419 N 0.79076 0.16571 0.78625 0.0
C1420 C 0.7752 0.13926 0.78605 0.0
C1421 C 0.76427 0.12719 0.75145 0.0
C1422 C 0.10507 0.39505 0.04042 0.0
C1423 C 0.07935 0.37573 0.03086 0.0
C1424 C 0.12178 0.38878 0.06039 0.0
C1425 C 0.11362 0.3629 0.07085 0.0
H1426 H 0.11211 0.41543 0.03369 0.0
H1427 H 0.14089 0.40439 0.06882 0.0
S1428 S 0.04931 0.30468 0.05094 0.0
N1429 N 0.04722 0.32925 0.03211 0.0
N1430 N 0.07891 0.31764 0.06943 0.0
C1431 C 0.0885 0.34322 0.06039 0.0
C1432 C 0.0713 0.34958 0.04042 0.0
C1433 C 0.63742 0.71067 0.02575 0.0
C1434 C 0.65722 0.70439 0.03364 0.0
C1435 C 0.63977 0.73465 0.03737 0.0
C1436 C 0.66241 0.75338 0.05592 0.0
H1437 H 0.61911 0.6961 0.0134 0.0
H1438 H 0.62307 0.73764 0.03449 0.0
S1439 S 0.72119 0.74779 0.07822 0.0
N1440 N 0.70091 0.71959 0.0581 0.0
N1441 N 0.70601 0.76519 0.078 0.0
C1442 C 0.68329 0.74828 0.06055 0.0
C1443 C 0.68051 0.72358 0.05 0.0
C1444 C 0.301 0.93004 0.03093 0.0
C1445 C 0.31006 0.95653 0.03992 0.0
C1446 C 0.27979 0.90983 0.04897 0.0
C1447 C 0.26666 0.91545 0.07622 0.0
H1448 H 0.31171 0.9248 0.01213 0.0
H1449 H 0.27513 0.88978 0.04363 0.0
S1450 S 0.27886 0.98176 0.10284 0.0
N1451 N 0.30186 0.98738 0.07337 0.0
N1452 N 0.26119 0.94955 0.10587 0.0
C1453 C 0.2737 0.94192 0.08216 0.0
C1454 C 0.29564 0.96243 0.06444 0.0
C1455 C 0.40342 0.10281 0.97808 0.0
C1456 C 0.3846 0.07601 0.98047 0.0
C1457 C 0.39763 0.12086 0.96116 0.0
C1458 C 0.37276 0.11297 0.946 0.0
H1459 H 0.42321 0.10991 0.98807 0.0
H1460 H 0.41328 0.1408 0.95793 0.0
S1461 S 0.31524 0.04631 0.94985 0.0
N1462 N 0.33903 0.04326 0.96971 0.0
N1463 N 0.32827 0.07739 0.93807 0.0
C1464 C 0.35322 0.08673 0.9504 0.0
C1465 C 0.3591 0.06823 0.96755 0.0
C1466 C 0.9688 0.2857 0.95229 0.0
C1467 C 0.9618 0.30039 0.97512 0.0
C1468 C 0.94987 0.26173 0.93715 0.0
C1469 C 0.92316 0.25189 0.94355 0.0
H1470 H 0.98885 0.29359 0.94413 0.0
H1471 H 0.95591 0.25227 0.91724 0.0
S1472 S 0.89504 0.28089 0.00552 0.0
N1473 N 0.92673 0.30161 0.00748 0.0
N1474 N 0.89102 0.25698 0.97766 0.0
C1475 C 0.91618 0.26501 0.96917 0.0
C1476 C 0.93555 0.28926 0.98521 0.0
C1477 C 0.72362 0.65505 0.98375 0.0
C1478 C 0.70773 0.62962 -0.00295 0.0
C1479 C 0.74628 0.66131 0.96461 0.0
C1480 C 0.75389 0.64237 0.95777 0.0
H1481 H 0.71805 0.67003 0.98691 0.0
H1482 H 0.75716 0.68075 0.95316 0.0
S1483 S 0.72076 0.57365 0.98956 0.0
N1484 N 0.70277 0.58594 0.00477 0.0
N1485 N 0.74496 0.59779 0.96793 0.0
C1486 C 0.73927 0.61743 0.97292 0.0
C1487 C 0.71626 0.61102 0.99268 0.0
C1488 C 0.95509 0.64997 0.92113 0.0
C1489 C 0.96211 0.65714 0.95779 0.0
C1490 C 0.9348 0.65197 0.90439 0.0
C1491 C 0.9209 0.66211 0.92297 0.0
H1492 H 0.9649 0.64195 0.9052 0.0
H1493 H 0.92981 0.6451 0.87642 0.0
S1494 S 0.93135 0.68338 0.01997 0.0
N1495 N 0.95315 0.67386 0.01312 0.0
N1496 N 0.91535 0.67899 0.98074 0.0
C1497 C 0.92745 0.66918 0.95995 0.0
C1498 C 0.94802 0.66648 0.97751 0.0
C1499 C 0.3641 0.30742 0.96121 0.0
C1500 C 0.38722 0.32229 0.98188 0.0
C1501 C 0.35933 0.28441 0.94273 0.0
C1502 C 0.37749 0.27526 0.94396 0.0
H1503 H 0.34991 0.31403 0.95816 0.0
H1504 H 0.34178 0.27432 0.92592 0.0
S1505 S 0.43993 0.30528 -0.00301 0.0
N1506 N 0.42741 0.32449 0.00514 0.0
N1507 N 0.41872 0.28199 0.96949 0.0
C1508 C 0.39991 0.289 0.96624 0.0
C1509 C 0.40473 0.31231 0.9853 0.0
C1510 C 0.73095 0.05738 0.94943 0.0
C1511 C 0.71503 0.06155 0.97346 0.0
C1512 C 0.75357 0.07848 0.9356 0.0
C1513 C 0.76078 0.10458 0.94463 0.0
H1514 H 0.72509 0.03778 0.93956 0.0
H1515 H 0.76417 0.07448 0.91502 0.0
S1516 S 0.72703 0.12599 0.00877 0.0
N1517 N 0.70942 0.09365 0.00845 0.0
N1518 N 0.7514 0.13337 0.98097 0.0
C1519 C 0.7461 0.10897 0.97052 0.0
C1520 C 0.72333 0.0874 0.98532 0.0
C1521 C 0.62536 0.90984 0.01274 0.0
C1522 C 0.6435 0.93698 0.01199 0.0
C1523 C 0.63131 0.892 0.03025 0.0
C1524 C 0.6558 0.90045 0.04695 0.0
H1525 H 0.60581 0.90236 0.00154 0.0
H1526 H 0.61608 0.87179 0.03287 0.0
S1527 S 0.71125 0.9684 0.04977 0.0
N1528 N 0.68793 0.97077 0.02726 0.0
N1529 N 0.69893 0.93707 0.05975 0.0
C1530 C 0.67471 0.92704 0.04428 0.0
C1531 C 0.66863 0.94534 0.02691 0.0
C1532 C 0.07349 0.72115 0.03916 0.0
C1533 C 0.08281 0.70558 0.02309 0.0
C1534 C 0.09033 0.74426 0.05838 0.0
C1535 C 0.11714 0.75272 0.06238 0.0
H1536 H 0.05287 0.71498 0.03821 0.0
H1537 H 0.08208 0.75498 0.07162 0.0
S1538 S 0.15203 0.72059 0.02266 0.0
N1539 N 0.12134 0.70189 0.00961 0.0
N1540 N 0.15251 0.74454 0.04685 0.0
C1541 C 0.127 0.73822 0.04466 0.0
C1542 C 0.10996 0.71486 0.02479 0.0
C1543 C 0.29211 0.34062 0.04471 0.0
C1544 C 0.30725 0.3638 0.02541 0.0
C1545 C 0.26843 0.3355 0.05988 0.0
C1546 C 0.25938 0.35368 0.05707 0.0
H1547 H 0.29944 0.32718 0.05016 0.0
H1548 H 0.25845 0.31845 0.07707 0.0
S1549 S 0.29046 0.41603 0.00634 0.0
N1550 N 0.31021 0.40378 0.00095 0.0
N1551 N 0.26613 0.39458 0.03106 0.0
C1552 C 0.27324 0.37589 0.03546 0.0
C1553 C 0.29713 0.38086 0.01923 0.0
C1554 C 0.72785 0.67934 0.38754 0.0
C1555 C 0.73908 0.70071 0.36359 0.0
C1556 C 0.74321 0.67101 0.40684 0.0
C1557 C 0.77047 0.68359 0.40299 0.0
H1558 H 0.70712 0.66951 0.39256 0.0
H1559 H 0.73377 0.65514 0.42604 0.0
S1560 S 0.80949 0.73847 0.34099 0.0
N1561 N 0.77928 0.73272 0.33469 0.0
N1562 N 0.8079 0.71705 0.37159 0.0
C1563 C 0.78186 0.70388 0.37766 0.0
C1564 C 0.76625 0.71246 0.35789 0.0
C1565 C 0.35319 0.05748 0.38957 0.0
C1566 C 0.33202 0.04103 0.36667 0.0
C1567 C 0.35626 0.08142 0.40215 0.0
C1568 C 0.33789 0.08942 0.39301 0.0
H1569 H 0.36661 0.05111 0.39956 0.0
H1570 H 0.37167 0.09254 0.42205 0.0
S1571 S 0.28045 0.05463 0.33121 0.0
N1572 N 0.29392 0.03562 0.33227 0.0
N1573 N 0.29912 0.0802 0.35756 0.0
C1574 C 0.31777 0.07415 0.36804 0.0
C1575 C 0.31497 0.04999 0.35446 0.0
C1576 C 0.96701 0.25142 0.35258 0.0
C1577 C 0.97286 0.27755 0.358 0.0
C1578 C 0.94669 0.23084 0.3715 0.0
C1579 C 0.93149 0.23582 0.39604 0.0
H1580 H 0.97979 0.24713 0.33662 0.0
H1581 H 0.94456 0.21142 0.36955 0.0
S1582 S 0.93501 0.3 0.41236 0.0
N1583 N 0.9592 0.30669 0.38454 0.0
N1584 N 0.92045 0.26803 0.41894 0.0
C1585 C 0.9351 0.26141 0.39783 0.0
C1586 C 0.95599 0.28231 0.37915 0.0
C1587 C 0.04453 0.39999 0.26772 0.0
C1588 C 0.04058 0.39801 0.30532 0.0
C1589 C 0.04122 0.41829 0.24715 0.0
C1590 C 0.03303 0.43499 0.26302 0.0
H1591 H 0.05145 0.38813 0.25432 0.0
H1592 H 0.04602 0.41981 0.21858 0.0
S1593 S 0.01862 0.43604 0.36091 0.0
N1594 N 0.02786 0.41362 0.35817 0.0
N1595 N 0.01994 0.44712 0.31909 0.0
C1596 C 0.02835 0.43263 0.30074 0.0
C1597 C 0.03246 0.41432 0.32194 0.0
C1598 C 0.61988 0.61685 0.30657 0.0
C1599 C 0.61592 0.63672 0.32121 0.0
C1600 C 0.59877 0.59309 0.29423 0.0
C1601 C 0.57301 0.58873 0.29492 0.0
H1602 H 0.63951 0.62024 0.30282 0.0
H1603 H 0.60285 0.57914 0.28056 0.0
S1604 S 0.55219 0.63394 0.33274 0.0
N1605 N 0.58422 0.64966 0.33876 0.0
N1606 N 0.54465 0.60555 0.31335 0.0
C1607 C 0.56868 0.60777 0.31153 0.0
C1608 C 0.59014 0.63168 0.32518 0.0
C1609 C 0.39577 0.98973 0.31388 0.0
C1610 C 0.38002 0.96468 0.32853 0.0
C1611 C 0.41793 0.99532 0.29387 0.0
C1612 C 0.42519 0.97607 0.28749 0.0
H1613 H 0.39042 1.0049 0.3166 0.0
H1614 H 0.42869 0.01446 0.28153 0.0
S1615 S 0.39227 0.90815 0.32261 0.0
N1616 N 0.37488 0.92109 0.33791 0.0
N1617 N 0.41605 0.9316 0.29946 0.0
C1618 C 0.41073 0.95153 0.30393 0.0
C1619 C 0.38824 0.94583 0.32458 0.0
C1620 C 0.60391 0.97748 0.30916 0.0
C1621 C 0.63014 0.99405 0.30052 0.0
C1622 C 0.58391 0.97977 0.29119 0.0
C1623 C 0.58952 0.99904 0.26447 0.0
H1624 H 0.59861 0.96108 0.3273 0.0
H1625 H 0.56399 0.9648 0.29596 0.0
S1626 S 0.65556 0.0517 0.24 0.0
N1627 N 0.66104 0.03305 0.26865 0.0
N1628 N 0.62353 0.03854 0.23654 0.0
C1629 C 0.61587 0.01786 0.25939 0.0
C1630 C 0.63619 0.01503 0.27691 0.0
C1631 C 0.068 0.63876 0.31058 0.0
C1632 C 0.04941 0.64736 0.31188 0.0
C1633 C 0.06222 0.6149 0.29389 0.0
C1634 C 0.03756 0.59852 0.27794 0.0
H1635 H 0.08769 0.65107 0.321 0.0
H1636 H 0.07777 0.61021 0.29122 0.0
S1637 S 0.98046 0.60925 0.27943 0.0
N1638 N 1.00414 0.63561 0.29967 0.0
N1639 N 0.99334 0.59074 0.26857 0.0
C1640 C 0.01814 0.60576 0.28161 0.0
C1641 C 0.02404 0.63015 0.29841 0.0
C1642 C 0.38706 0.41491 0.33228 0.0
C1643 C 0.37854 0.38895 0.32063 0.0
C1644 C 0.40968 0.43607 0.31807 0.0
C1645 C 0.42481 0.43175 0.29272 0.0
H1646 H 0.37498 0.41911 0.34988 0.0
H1647 H 0.4142 0.4559 0.32473 0.0
S1648 S 0.41301 0.36738 0.25778 0.0
N1649 N 0.38844 0.36008 0.28514 0.0
N1650 N 0.43132 0.39961 0.25967 0.0
C1651 C 0.41782 0.40575 0.28374 0.0
C1652 C 0.39456 0.38438 0.29736 0.0
C1653 C 0.33241 0.27557 0.36736 0.0
C1654 C 0.30598 0.26616 0.35781 0.0
C1655 C 0.34082 0.25908 0.38317 0.0
C1656 C 0.32318 0.23257 0.39009 0.0
H1657 H 0.34659 0.29607 0.36397 0.0
H1658 H 0.36092 0.26762 0.39267 0.0
S1659 S 0.25254 0.19737 0.36763 0.0
N1660 N 0.2626 0.22766 0.35387 0.0
N1661 N 0.27868 0.19716 0.38437 0.0
C1662 C 0.29714 0.22246 0.37872 0.0
C1663 C 0.28848 0.23912 0.36236 0.0
C1664 C 0.74124 0.04802 0.37071 0.0
C1665 C 0.74869 0.02997 0.35815 0.0
C1666 C 0.75902 0.07102 0.38938 0.0
C1667 C 0.78496 0.0769 0.39624 0.0
H1668 H 0.72136 0.04412 0.3669 0.0
H1669 H 0.7522 0.0839 0.3996 0.0
S1670 S 0.81477 0.03674 0.36839 0.0
N1671 N 0.78442 0.02035 0.35281 0.0
N1672 N 0.81736 0.06309 0.38856 0.0
C1673 C 0.79295 0.05956 0.38275 0.0
C1674 C 0.77495 0.03623 0.36359 0.0
C1675 C 0.95898 0.6722 0.3773 0.0
C1676 C 0.97398 0.69393 0.35526 0.0
C1677 C 0.93519 0.6679 0.3912 0.0
C1678 C 0.92581 0.68551 0.38429 0.0
H1679 H 0.96638 0.65925 0.38556 0.0
H1680 H 0.92529 0.65208 0.41036 0.0
S1681 S 0.95656 0.74413 0.32577 0.0
N1682 N 0.97653 0.73186 0.32428 0.0
N1683 N 0.93231 0.72434 0.352 0.0
C1684 C 0.93965 0.70625 0.3603 0.0
C1685 C 0.96365 0.71032 0.34539 0.0
C1686 C 0.431 0.05406 0.70091 0.0
C1687 C 0.40357 0.03795 0.70037 0.0
C1688 C 0.4475 0.04592 0.71762 0.0
C1689 C 0.43724 0.0213 0.7341 0.0
H1690 H 0.43988 0.0736 0.68964 0.0
H1691 H 0.46826 0.05953 0.71943 0.0
S1692 S 0.36758 0.97032 0.73688 0.0
N1693 N 0.36739 0.99499 0.71526 0.0
N1694 N 0.3985 0.98004 0.74671 0.0
C1695 C 0.41016 1.00441 0.73203 0.0
C1696 C 0.3933 0.01262 0.71515 0.0
C1697 C 0.01241 0.39463 0.70133 0.0
C1698 C 0.9882 0.37597 0.68641 0.0
C1699 C 0.01608 0.41851 0.71522 0.0
C1700 C 0.99541 0.42414 0.7156 0.0
H1701 H 0.02805 0.39001 0.70449 0.0
H1702 H 0.03433 0.43142 0.7293 0.0
S1703 S 0.92891 0.38252 0.67709 0.0
N1704 N 0.94404 0.36556 0.66958 0.0
N1705 N 0.9506 0.41005 0.69746 0.0
C1706 C 0.97172 0.40646 0.69837 0.0
C1707 C 0.96817 0.38238 0.68339 0.0
C1708 C 0.62971 0.62663 0.73588 0.0
C1709 C 0.6427 0.62112 0.70846 0.0
C1710 C 0.60847 0.6064 0.75374 0.0
C1711 C 0.59985 0.57977 0.74571 0.0
H1712 H 0.63675 0.64668 0.74478 0.0
H1713 H 0.59977 0.61166 0.77563 0.0
S1714 S 0.62594 0.55509 0.67353 0.0
N1715 N 0.64377 0.5873 0.67135 0.0
N1716 N 0.60492 0.54929 0.70616 0.0
C1717 C 0.61154 0.57412 0.71647 0.0
C1718 C 0.63276 0.59479 0.69765 0.0
C1719 C 0.73326 0.76736 0.64338 0.0
C1720 C 0.71588 0.74009 0.64141 0.0
C1721 C 0.72767 0.78528 0.62572 0.0
C1722 C 0.70446 0.7768 0.60529 0.0
H1723 H 0.7519 0.77505 0.65761 0.0
H1724 H 0.74249 0.80579 0.62605 0.0
S1725 S 0.65043 0.70829 0.59598 0.0
N1726 N 0.67293 0.70591 0.62067 0.0
N1727 N 0.66251 0.73983 0.58759 0.0
C1728 C 0.686 0.7499 0.60528 0.0
C1729 C 0.69167 0.73152 0.62327 0.0
C1730 C 0.25787 0.96047 0.65819 0.0
C1731 C 0.28442 0.9688 0.6526 0.0
C1732 C 0.23816 0.93671 0.64298 0.0
C1733 C 0.2445 0.92026 0.62287 0.0
H1734 H 0.25229 0.97342 0.6715 0.0
H1735 H 0.21804 0.93228 0.64435 0.0
S1736 S 0.31098 0.93145 0.60524 0.0
N1737 N 0.3159 0.95761 0.6287 0.0
N1738 N 0.27902 0.91259 0.60167 0.0
C1739 C 0.27094 0.92723 0.62044 0.0
C1740 C 0.29089 0.95164 0.63483 0.0
C1741 C 0.06072 0.33224 0.64734 0.0
C1742 C 0.04525 0.30753 0.66313 0.0
C1743 C 0.08396 0.33824 0.62956 0.0
C1744 C 0.09243 0.31957 0.62599 0.0
H1745 H 0.0543 0.3467 0.64729 0.0
H1746 H 0.09446 0.35711 0.61647 0.0
S1747 S 0.06073 0.25304 0.6668 0.0
N1748 N 0.04206 0.26547 0.67819 0.0
N1749 N 0.08449 0.27611 0.64328 0.0
C1750 C 0.07822 0.29558 0.64432 0.0
C1751 C 0.05492 0.28969 0.66306 0.0
C1752 C 0.29017 0.34005 0.62125 0.0
C1753 C 0.28631 0.3185 0.64244 0.0
C1754 C 0.26904 0.3412 0.60493 0.0
C1755 C 0.2433 0.32036 0.6081 0.0
H1756 H 0.30977 0.35548 0.61565 0.0
H1757 H 0.27309 0.35757 0.58728 0.0
S1758 S 0.22281 0.26073 0.664 0.0
N1759 N 0.25485 0.27734 0.66937 0.0
N1760 N 0.21514 0.27865 0.63705 0.0
C1761 C 0.23906 0.2997 0.63172 0.0
C1762 C 0.26061 0.29892 0.64916 0.0
C1763 C 0.7318 0.97651 0.63995 0.0
C1764 C 0.71296 0.98478 0.64114 0.0
C1765 C 0.72656 0.95306 0.62262 0.0
C1766 C 0.7022 0.93667 0.60584 0.0
H1767 H 0.75126 0.98875 0.65119 0.0
H1768 H 0.74227 0.94853 0.6206 0.0
S1769 S 0.64469 0.94683 0.60597 0.0
N1770 N 0.66788 0.97298 0.62726 0.0
N1771 N 0.65801 0.92872 0.59505 0.0
C1772 C 0.6826 0.94373 0.60882 0.0
C1773 C 0.68796 0.96777 0.62632 0.0
C1774 C 0.06384 0.72517 0.62878 0.0
C1775 C 0.04708 0.73093 0.64859 0.0
C1776 C 0.08709 0.74525 0.61481 0.0
C1777 C 0.09405 0.77178 0.61935 0.0
H1778 H 0.0582 0.70501 0.62218 0.0
H1779 H 0.09847 0.73993 0.59739 0.0
S1780 S 0.0579 0.79728 0.67141 0.0
N1781 N 0.04018 0.76508 0.67495 0.0
N1782 N 0.08339 0.80282 0.647 0.0
C1783 C 0.07841 0.77787 0.64112 0.0
C1784 C 0.05499 0.75739 0.65619 0.0
C1785 C 0.95794 0.58091 0.6882 0.0
C1786 C 0.97566 0.60817 0.68745 0.0
C1787 C 0.96451 0.56336 0.70524 0.0
C1788 C 0.9892 0.57225 0.72151 0.0
H1789 H 0.93831 0.5731 0.67714 0.0
H1790 H 0.94967 0.54297 0.70761 0.0
S1791 S 0.04368 0.64073 0.72438 0.0
N1792 N 0.01988 0.64258 0.70242 0.0
N1793 N 0.032 0.60945 0.73419 0.0
C1794 C 1.00762 0.59902 0.71913 0.0
C1795 C 1.00093 0.617 0.70217 0.0
C1796 C 0.4066 0.37309 0.73712 0.0
C1797 C 0.40614 0.37472 0.69907 0.0
C1798 C 0.42373 0.39471 0.75844 0.0
C1799 C 0.44066 0.41914 0.74264 0.0
H1800 H 0.39455 0.35455 0.75044 0.0
H1801 H 0.42429 0.3918 0.78753 0.0
S1802 S 0.44495 0.43376 0.64365 0.0
N1803 N 0.42306 0.40233 0.64598 0.0
N1804 N 0.45429 0.44379 0.68616 0.0
C1805 C 0.43957 0.42118 0.70442 0.0
C1806 C 0.42252 0.3988 0.68262 0.0
C1807 C 0.63096 0.05284 0.67837 0.0
C1808 C 0.63859 0.03357 0.68184 0.0
C1809 C 0.60793 0.04945 0.69431 0.0
C1810 C 0.59149 0.02633 0.71304 0.0
H1811 H 0.64401 0.07157 0.66629 0.0
H1812 H 0.60406 0.06573 0.6945 0.0
S1813 S 0.60118 0.96882 0.72557 0.0
N1814 N 0.62694 0.98992 0.7028 0.0
N1815 N 0.58315 0.983 0.731 0.0
C1816 C 0.59776 1.00604 0.71353 0.0
C1817 C 0.62148 0.00981 0.69842 0.0
loop_
_geom_bond_atom_site_label_1
_geom_bond_atom_site_label_2
_geom_bond_distance
_geom_bond_site_symmetry_2
_ccdc_geom_bond_type
Mn0 O5 2.095 1_655 S
Mn0 O15 2.162 . S
Mn0 O16 2.297 1_554 S
Mn0 O24 2.385 1_554 S
Mn0 O25 2.209 1_654 S
Mn0 O26 2.094 . S
Mn1 O6 2.121 . S
Mn1 N8 2.257 1_554 S
Mn1 N17 2.282 1_554 S
Mn1 O25 2.215 1_554 S
Mn1 O27 2.117 . S
C2 O24 1.234 1_455 S
C2 O25 1.283 . S
C3 O15 1.281 1_556 S
C3 O16 1.236 . S
C4 O26 1.240 1_455 S
C4 O27 1.264 . S
O5 Mn0 2.095 1_455 S
O5 C14 1.250 . S
O6 Mn1 2.121 . S
O6 C14 1.258 . S
C7 N8 1.326 . S
C7 C11 1.460 . S
C7 H13 0.929 . S
N8 Mn1 2.257 1_556 S
N8 C7 1.326 . S
N8 C12 1.362 . S
C9 C10 1.258 . S
C9 C12 1.431 . S
C9 C29 1.449 . S
C10 C9 1.258 . S
C10 C11 1.477 . S
C10 H30 0.931 . S
C11 C7 1.460 . S
C11 C10 1.477 . S
C11 H31 0.930 . S
C12 N8 1.362 . S
C12 C9 1.431 . S
C12 C22 1.476 . S
H13 C7 0.929 . S
C14 O5 1.250 . S
C14 O6 1.258 . S
O15 Mn0 2.162 . S
O15 C3 1.281 1_554 S
O16 Mn0 2.297 1_556 S
O16 C3 1.236 . S
N17 Mn1 2.282 1_556 S
N17 C18 1.328 1_556 S
N17 C22 1.318 . S
C18 N17 1.328 1_554 S
C18 C19 1.457 1_554 S
C18 H23 0.929 . S
C19 C18 1.457 1_556 S
C19 C20 1.291 . S
C19 H32 0.931 . S
C20 C19 1.291 . S
C20 C21 1.373 . S
C20 H33 0.929 . S
C21 C20 1.373 . S
C21 C22 1.396 . S
C21 C28 1.403 . S
C22 C12 1.476 . S
C22 N17 1.318 . S
C22 C21 1.396 . S
H23 C18 0.929 . S
O24 Mn0 2.385 1_556 S
O24 C2 1.234 1_655 S
O25 Mn0 2.209 1_456 S
O25 Mn1 2.215 1_556 S
O25 C2 1.283 . S
O26 Mn0 2.094 . S
O26 C4 1.240 1_655 S
O27 Mn1 2.117 . S
O27 C4 1.264 . S
C28 C21 1.403 . S
C28 C29 1.399 . S
C28 H34 0.929 . S
C29 C9 1.449 . S
C29 C28 1.399 . S
C29 H35 0.930 . S
H30 C10 0.931 . S
H31 C11 0.930 . S
H32 C19 0.931 . S
H33 C20 0.929 . S
H34 C28 0.929 . S
H35 C29 0.930 . S
Mn36 O41 2.095 1_554 S
Mn36 O51 2.162 . S
Mn36 O52 2.297 . S
Mn36 O60 2.385 . S
Mn36 O61 2.209 . S
Mn36 O62 2.094 1_554 S
Mn37 O42 2.121 . S
Mn37 N44 2.257 1_556 S
Mn37 N53 2.282 1_556 S
Mn37 O61 2.215 1_556 S
Mn37 O63 2.117 . S
C38 O60 1.234 . S
C38 O61 1.283 . S
C39 O51 1.281 . S
C39 O52 1.236 . S
C40 O62 1.240 . S
C40 O63 1.264 . S
O41 Mn36 2.095 1_556 S
O41 C50 1.250 . S
O42 Mn37 2.121 . S
O42 C50 1.258 . S
C43 N44 1.326 . S
C43 C47 1.460 . S
C43 H49 0.929 . S
N44 Mn37 2.257 1_554 S
N44 C43 1.326 . S
N44 C48 1.362 . S
C45 C46 1.258 . S
C45 C48 1.431 . S
C45 C65 1.449 . S
C46 C45 1.258 . S
C46 C47 1.477 . S
C46 H66 0.931 . S
C47 C43 1.460 . S
C47 C46 1.477 . S
C47 H67 0.930 . S
C48 N44 1.362 . S
C48 C45 1.431 . S
C48 C58 1.476 . S
H49 C43 0.929 . S
C50 O41 1.250 . S
C50 O42 1.258 . S
O51 Mn36 2.162 . S
O51 C39 1.281 . S
O52 Mn36 2.297 . S
O52 C39 1.236 . S
N53 Mn37 2.282 1_554 S
N53 C54 1.328 . S
N53 C58 1.318 . S
C54 N53 1.328 . S
C54 C55 1.457 . S
C54 H59 0.929 1_554 S
C55 C54 1.457 . S
C55 C56 1.291 . S
C55 H68 0.931 . S
C56 C55 1.291 . S
C56 C57 1.373 . S
C56 H69 0.929 . S
C57 C56 1.373 . S
C57 C58 1.396 . S
C57 C64 1.403 . S
C58 C48 1.476 . S
C58 N53 1.318 . S
C58 C57 1.396 . S
H59 C54 0.929 1_556 S
O60 Mn36 2.385 . S
O60 C38 1.234 . S
O61 Mn36 2.209 . S
O61 Mn37 2.215 1_554 S
O61 C38 1.283 . S
O62 Mn36 2.094 1_556 S
O62 C40 1.240 . S
O63 Mn37 2.117 . S
O63 C40 1.264 . S
C64 C57 1.403 . S
C64 C65 1.399 . S
C64 H70 0.929 . S
C65 C45 1.449 . S
C65 C64 1.399 . S
C65 H71 0.930 . S
H66 C46 0.931 . S
H67 C47 0.930 . S
H68 C55 0.931 . S
H69 C56 0.929 . S
H70 C64 0.929 . S
H71 C65 0.930 . S
Mn72 O77 2.095 1_564 S
Mn72 O87 2.162 . S
Mn72 O88 2.297 . S
Mn72 O96 2.385 . S
Mn72 O97 2.209 1_565 S
Mn72 O98 2.094 1_554 S
Mn73 O78 2.121 1_554 S
Mn73 N80 2.257 . S
Mn73 N89 2.282 . S
Mn73 O97 2.215 . S
Mn73 O99 2.117 1_554 S
C74 O96 1.207 1_545 S
C74 O97 1.311 . S
C75 O87 1.281 . S
C75 O88 1.236 . S
C76 O98 1.253 . S
C76 O99 1.237 1_565 S
O77 Mn72 2.095 1_546 S
O77 C86 1.250 . S
O78 Mn73 2.121 1_556 S
O78 C86 1.258 . S
C79 N80 1.326 . S
C79 C83 1.460 . S
C79 H85 0.929 . S
N80 Mn73 2.257 . S
N80 C79 1.326 . S
N80 C84 1.362 . S
C81 C82 1.258 . S
C81 C84 1.431 . S
C81 C101 1.449 . S
C82 C81 1.258 . S
C82 C83 1.477 . S
C82 H102 0.931 . S
C83 C79 1.460 . S
C83 C82 1.477 . S
C83 H103 0.930 . S
C84 N80 1.362 . S
C84 C81 1.431 . S
C84 C94 1.476 . S
H85 C79 0.929 . S
C86 O77 1.250 . S
C86 O78 1.258 . S
O87 Mn72 2.162 . S
O87 C75 1.281 . S
O88 Mn72 2.297 . S
O88 C75 1.236 . S
N89 Mn73 2.282 . S
N89 C90 1.328 . S
N89 C94 1.318 . S
C90 N89 1.328 . S
C90 C91 1.457 . S
C90 H95 0.929 . S
C91 C90 1.457 . S
C91 C92 1.291 . S
C91 H104 0.931 . S
C92 C91 1.291 . S
C92 C93 1.373 . S
C92 H105 0.929 . S
C93 C92 1.373 . S
C93 C94 1.396 . S
C93 C100 1.403 . S
C94 C84 1.476 . S
C94 N89 1.318 . S
C94 C93 1.396 . S
H95 C90 0.929 . S
O96 Mn72 2.385 . S
O96 C74 1.207 1_565 S
O97 Mn72 2.209 1_545 S
O97 Mn73 2.215 . S
O97 C74 1.311 . S
O98 Mn72 2.094 1_556 S
O98 C76 1.253 . S
O99 Mn73 2.117 1_556 S
O99 C76 1.237 1_545 S
C100 C93 1.403 . S
C100 C101 1.399 . S
C100 H106 0.929 . S
C101 C81 1.449 . S
C101 C100 1.399 . S
C101 H107 0.930 . S
H102 C82 0.931 . S
H103 C83 0.930 . S
H104 C91 0.931 . S
H105 C92 0.929 . S
H106 C100 0.929 . S
H107 C101 0.930 . S
Mn108 O113 2.095 1_655 S
Mn108 O123 2.162 . S
Mn108 O124 2.297 1_554 S
Mn108 O132 2.385 1_554 S
Mn108 O133 2.209 1_654 S
Mn108 O134 2.094 . S
Mn109 O114 2.121 . S
Mn109 N116 2.257 1_554 S
Mn109 N125 2.282 1_554 S
Mn109 O133 2.215 1_554 S
Mn109 O135 2.117 . S
C110 O132 1.191 1_455 S
C110 O133 1.301 . S
C111 O123 1.281 1_556 S
C111 O124 1.236 . S
C112 O134 1.212 1_455 S
C112 O135 1.290 . S
O113 Mn108 2.095 1_455 S
O113 C122 1.250 . S
O114 Mn109 2.121 . S
O114 C122 1.258 . S
C115 N116 1.326 . S
C115 C119 1.460 . S
C115 H121 0.929 . S
N116 Mn109 2.257 1_556 S
N116 C115 1.326 . S
N116 C120 1.362 . S
C117 C118 1.258 . S
C117 C120 1.431 . S
C117 C137 1.449 . S
C118 C117 1.258 . S
C118 C119 1.477 . S
C118 H138 0.931 . S
C119 C115 1.460 . S
C119 C118 1.477 . S
C119 H139 0.930 . S
C120 N116 1.362 . S
C120 C117 1.431 . S
C120 C130 1.476 . S
H121 C115 0.929 . S
C122 O113 1.250 . S
C122 O114 1.258 . S
O123 Mn108 2.162 . S
O123 C111 1.281 1_554 S
O124 Mn108 2.297 1_556 S
O124 C111 1.236 . S
N125 Mn109 2.282 1_556 S
N125 C126 1.328 1_556 S
N125 C130 1.318 . S
C126 N125 1.328 1_554 S
C126 C127 1.457 1_554 S
C126 H131 0.929 . S
C127 C126 1.457 1_556 S
C127 C128 1.291 . S
C127 H140 0.931 . S
C128 C127 1.291 . S
C128 C129 1.373 . S
C128 H141 0.929 . S
C129 C128 1.373 . S
C129 C130 1.396 . S
C129 C136 1.403 . S
C130 C120 1.476 . S
C130 N125 1.318 . S
C130 C129 1.396 . S
H131 C126 0.929 . S
O132 Mn108 2.385 1_556 S
O132 C110 1.191 1_655 S
O133 Mn108 2.209 1_456 S
O133 Mn109 2.215 1_556 S
O133 C110 1.301 . S
O134 Mn108 2.094 . S
O134 C112 1.212 1_655 S
O135 Mn109 2.117 . S
O135 C112 1.290 . S
C136 C129 1.403 . S
C136 C137 1.399 . S
C136 H142 0.929 . S
C137 C117 1.449 . S
C137 C136 1.399 . S
C137 H143 0.930 . S
H138 C118 0.931 . S
H139 C119 0.930 . S
H140 C127 0.931 . S
H141 C128 0.929 . S
H142 C136 0.929 . S
H143 C137 0.930 . S
Mn144 O149 2.095 1_554 S
Mn144 O159 2.162 . S
Mn144 O160 2.297 . S
Mn144 O168 2.385 . S
Mn144 O169 2.209 . S
Mn144 O170 2.094 1_554 S
Mn145 O150 2.126 . S
Mn145 N152 2.236 1_556 S
Mn145 N161 2.271 1_556 S
Mn145 O169 2.193 1_556 S
Mn145 O171 2.138 . S
C146 O168 1.234 . S
C146 O169 1.283 . S
C147 O159 1.281 . S
C147 O160 1.236 . S
C148 O170 1.240 . S
C148 O171 1.264 . S
O149 Mn144 2.095 1_556 S
O149 C158 1.250 . S
O150 Mn145 2.126 . S
O150 C158 1.258 . S
C151 N152 1.326 . S
C151 C155 1.460 . S
C151 H157 0.929 . S
N152 Mn145 2.236 1_554 S
N152 C151 1.326 . S
N152 C156 1.362 . S
C153 C154 1.258 . S
C153 C156 1.431 . S
C153 C173 1.449 . S
C154 C153 1.258 . S
C154 C155 1.477 . S
C154 H174 0.931 . S
C155 C151 1.460 . S
C155 C154 1.477 . S
C155 H175 0.930 . S
C156 N152 1.362 . S
C156 C153 1.431 . S
C156 C166 1.476 . S
H157 C151 0.929 . S
C158 O149 1.250 . S
C158 O150 1.258 . S
O159 Mn144 2.162 . S
O159 C147 1.281 . S
O160 Mn144 2.297 . S
O160 C147 1.236 . S
N161 Mn145 2.271 1_554 S
N161 C162 1.328 . S
N161 C166 1.318 . S
C162 N161 1.328 . S
C162 C163 1.457 . S
C162 H167 0.929 1_554 S
C163 C162 1.457 . S
C163 C164 1.291 . S
C163 H176 0.931 . S
C164 C163 1.291 . S
C164 C165 1.373 . S
C164 H177 0.929 . S
C165 C164 1.373 . S
C165 C166 1.396 . S
C165 C172 1.403 . S
C166 C156 1.476 . S
C166 N161 1.318 . S
C166 C165 1.396 . S
H167 C162 0.929 1_556 S
O168 Mn144 2.385 . S
O168 C146 1.234 . S
O169 Mn144 2.209 . S
O169 Mn145 2.193 1_554 S
O169 C146 1.283 . S
O170 Mn144 2.094 1_556 S
O170 C148 1.240 . S
O171 Mn145 2.138 . S
O171 C148 1.264 . S
C172 C165 1.403 . S
C172 C173 1.399 . S
C172 H178 0.929 . S
C173 C153 1.449 . S
C173 C172 1.399 . S
C173 H179 0.930 . S
H174 C154 0.931 . S
H175 C155 0.930 . S
H176 C163 0.931 . S
H177 C164 0.929 . S
H178 C172 0.929 . S
H179 C173 0.930 . S
Mn180 O185 2.095 1_545 S
Mn180 O195 2.162 . S
Mn180 O196 2.297 1_554 S
Mn180 O204 2.385 1_554 S
Mn180 O205 2.209 1_544 S
Mn180 O206 2.094 . S
Mn181 O186 2.121 . S
Mn181 N188 2.257 1_554 S
Mn181 N197 2.282 1_554 S
Mn181 O205 2.215 1_554 S
Mn181 O207 2.117 . S
C182 O204 1.231 . S
C182 O205 1.286 1_545 S
C183 O195 1.281 1_556 S
C183 O196 1.236 . S
C184 O206 1.240 . S
C184 O207 1.264 1_545 S
O185 Mn180 2.095 1_565 S
O185 C194 1.250 . S
O186 Mn181 2.121 . S
O186 C194 1.258 . S
C187 N188 1.326 . S
C187 C191 1.460 . S
C187 H193 0.929 . S
N188 Mn181 2.257 1_556 S
N188 C187 1.326 . S
N188 C192 1.362 . S
C189 C190 1.258 . S
C189 C192 1.431 . S
C189 C209 1.449 . S
C190 C189 1.258 . S
C190 C191 1.477 . S
C190 H210 0.931 . S
C191 C187 1.460 . S
C191 C190 1.477 . S
C191 H211 0.930 . S
C192 N188 1.362 . S
C192 C189 1.431 . S
C192 C202 1.476 . S
H193 C187 0.929 . S
C194 O185 1.250 . S
C194 O186 1.258 . S
O195 Mn180 2.162 . S
O195 C183 1.281 1_554 S
O196 Mn180 2.297 1_556 S
O196 C183 1.236 . S
N197 Mn181 2.282 1_556 S
N197 C198 1.331 . S
N197 C202 1.318 . S
C198 N197 1.331 . S
C198 C199 1.462 . S
C198 H203 0.921 1_556 S
C199 C198 1.462 . S
C199 C200 1.291 . S
C199 H212 0.931 . S
C200 C199 1.291 . S
C200 C201 1.373 . S
C200 H213 0.929 . S
C201 C200 1.373 . S
C201 C202 1.396 . S
C201 C208 1.403 . S
C202 C192 1.476 . S
C202 N197 1.318 . S
C202 C201 1.396 . S
H203 C198 0.921 1_554 S
O204 Mn180 2.385 1_556 S
O204 C182 1.231 . S
O205 Mn180 2.209 1_566 S
O205 Mn181 2.215 1_556 S
O205 C182 1.286 1_565 S
O206 Mn180 2.094 . S
O206 C184 1.240 . S
O207 Mn181 2.117 . S
O207 C184 1.264 1_565 S
C208 C201 1.403 . S
C208 C209 1.399 . S
C208 H214 0.929 . S
C209 C189 1.449 . S
C209 C208 1.399 . S
C209 H215 0.930 . S
H210 C190 0.931 . S
H211 C191 0.930 . S
H212 C199 0.931 . S
H213 C200 0.929 . S
H214 C208 0.929 . S
H215 C209 0.930 . S
Mn216 O221 2.095 . S
Mn216 O231 2.162 . S
Mn216 O232 2.297 . S
Mn216 O240 2.385 . S
Mn216 O241 2.209 . S
Mn216 O242 2.094 . S
Mn217 O222 2.121 . S
Mn217 N224 2.257 . S
Mn217 N233 2.282 . S
Mn217 O241 2.215 . S
Mn217 O243 2.117 . S
C218 O240 1.234 . S
C218 O241 1.283 . S
C219 O231 1.281 . S
C219 O232 1.236 . S
C220 O242 1.240 . S
C220 O243 1.264 . S
O221 Mn216 2.095 . S
O221 C230 1.250 . S
O222 Mn217 2.121 . S
O222 C230 1.258 . S
C223 N224 1.326 . S
C223 C227 1.460 . S
C223 H229 0.929 . S
N224 Mn217 2.257 . S
N224 C223 1.326 . S
N224 C228 1.362 . S
C225 C226 1.258 . S
C225 C228 1.431 . S
C225 C245 1.449 . S
C226 C225 1.258 . S
C226 C227 1.477 . S
C226 H246 0.931 . S
C227 C223 1.460 . S
C227 C226 1.477 . S
C227 H247 0.930 . S
C228 N224 1.362 . S
C228 C225 1.431 . S
C228 C238 1.476 . S
H229 C223 0.929 . S
C230 O221 1.250 . S
C230 O222 1.258 . S
O231 Mn216 2.162 . S
O231 C219 1.281 . S
O232 Mn216 2.297 . S
O232 C219 1.236 . S
N233 Mn217 2.282 . S
N233 C234 1.328 . S
N233 C238 1.318 . S
C234 N233 1.328 . S
C234 C235 1.457 . S
C234 H239 0.929 . S
C235 C234 1.457 . S
C235 C236 1.291 . S
C235 H248 0.931 . S
C236 C235 1.291 . S
C236 C237 1.373 . S
C236 H249 0.929 . S
C237 C236 1.373 . S
C237 C238 1.396 . S
C237 C244 1.403 . S
C238 C228 1.476 . S
C238 N233 1.318 . S
C238 C237 1.396 . S
H239 C234 0.929 . S
O240 Mn216 2.385 . S
O240 C218 1.234 . S
O241 Mn216 2.209 . S
O241 Mn217 2.215 . S
O241 C218 1.283 . S
O242 Mn216 2.094 . S
O242 C220 1.240 . S
O243 Mn217 2.117 . S
O243 C220 1.264 . S
C244 C237 1.403 . S
C244 C245 1.399 . S
C244 H250 0.929 . S
C245 C225 1.449 . S
C245 C244 1.399 . S
C245 H251 0.930 . S
H246 C226 0.931 . S
H247 C227 0.930 . S
H248 C235 0.931 . S
H249 C236 0.929 . S
H250 C244 0.929 . S
H251 C245 0.930 . S
Mn252 O257 2.095 . S
Mn252 O267 2.162 1_565 S
Mn252 O268 2.297 1_565 S
Mn252 O276 2.385 . S
Mn252 O277 2.209 . S
Mn252 O278 2.094 . S
Mn253 O258 2.121 . S
Mn253 N260 2.257 . S
Mn253 N269 2.282 . S
Mn253 O277 2.215 . S
Mn253 O279 2.117 . S
C254 O276 1.234 . S
C254 O277 1.283 . S
C255 O267 1.281 . S
C255 O268 1.236 . S
C256 O278 1.240 . S
C256 O279 1.264 . S
O257 Mn252 2.095 . S
O257 C266 1.250 . S
O258 Mn253 2.121 . S
O258 C266 1.258 . S
C259 N260 1.326 . S
C259 C263 1.460 . S
C259 H265 0.929 . S
N260 Mn253 2.257 . S
N260 C259 1.326 . S
N260 C264 1.362 . S
C261 C262 1.258 . S
C261 C264 1.431 . S
C261 C281 1.449 . S
C262 C261 1.258 . S
C262 C263 1.477 . S
C262 H282 0.931 . S
C263 C259 1.460 . S
C263 C262 1.477 . S
C263 H283 0.930 . S
C264 N260 1.362 . S
C264 C261 1.431 . S
C264 C274 1.476 . S
H265 C259 0.929 . S
C266 O257 1.250 . S
C266 O258 1.258 . S
O267 Mn252 2.162 1_545 S
O267 C255 1.281 . S
O268 Mn252 2.297 1_545 S
O268 C255 1.236 . S
N269 Mn253 2.282 . S
N269 C270 1.328 . S
N269 C274 1.318 . S
C270 N269 1.328 . S
C270 C271 1.457 . S
C270 H275 0.929 . S
C271 C270 1.457 . S
C271 C272 1.291 . S
C271 H284 0.931 . S
C272 C271 1.291 . S
C272 C273 1.373 . S
C272 H285 0.929 . S
C273 C272 1.373 . S
C273 C274 1.396 . S
C273 C280 1.403 . S
C274 C264 1.476 . S
C274 N269 1.318 . S
C274 C273 1.396 . S
H275 C270 0.929 . S
O276 Mn252 2.385 . S
O276 C254 1.234 . S
O277 Mn252 2.209 . S
O277 Mn253 2.215 . S
O277 C254 1.283 . S
O278 Mn252 2.094 . S
O278 C256 1.240 . S
O279 Mn253 2.117 . S
O279 C256 1.264 . S
C280 C273 1.403 . S
C280 C281 1.399 . S
C280 H286 0.929 . S
C281 C261 1.449 . S
C281 C280 1.399 . S
C281 H287 0.930 . S
H282 C262 0.931 . S
H283 C263 0.930 . S
H284 C271 0.931 . S
H285 C272 0.929 . S
H286 C280 0.929 . S
H287 C281 0.930 . S
Mn288 O293 2.095 . S
Mn288 O303 2.162 1_455 S
Mn288 O304 2.297 1_455 S
Mn288 O312 2.385 . S
Mn288 O313 2.209 . S
Mn288 O314 2.094 . S
Mn289 O294 2.121 . S
Mn289 N296 2.257 . S
Mn289 N305 2.282 . S
Mn289 O313 2.215 . S
Mn289 O315 2.117 . S
C290 O312 1.234 . S
C290 O313 1.283 . S
C291 O303 1.281 . S
C291 O304 1.236 . S
C292 O314 1.240 . S
C292 O315 1.264 . S
O293 Mn288 2.095 . S
O293 C302 1.250 . S
O294 Mn289 2.121 . S
O294 C302 1.258 . S
C295 N296 1.326 . S
C295 C299 1.460 . S
C295 H301 0.929 . S
N296 Mn289 2.257 . S
N296 C295 1.326 . S
N296 C300 1.362 . S
C297 C298 1.258 . S
C297 C300 1.431 . S
C297 C317 1.449 . S
C298 C297 1.258 . S
C298 C299 1.477 . S
C298 H318 0.931 . S
C299 C295 1.460 . S
C299 C298 1.477 . S
C299 H319 0.930 . S
C300 N296 1.362 . S
C300 C297 1.431 . S
C300 C310 1.476 . S
H301 C295 0.929 . S
C302 O293 1.250 . S
C302 O294 1.258 . S
O303 Mn288 2.162 1_655 S
O303 C291 1.281 . S
O304 Mn288 2.297 1_655 S
O304 C291 1.236 . S
N305 Mn289 2.282 . S
N305 C306 1.328 . S
N305 C310 1.318 . S
C306 N305 1.328 . S
C306 C307 1.457 . S
C306 H311 0.929 . S
C307 C306 1.457 . S
C307 C308 1.291 . S
C307 H320 0.931 . S
C308 C307 1.291 . S
C308 C309 1.373 . S
C308 H321 0.929 . S
C309 C308 1.373 . S
C309 C310 1.396 . S
C309 C316 1.403 . S
C310 C300 1.476 . S
C310 N305 1.318 . S
C310 C309 1.396 . S
H311 C306 0.929 . S
O312 Mn288 2.385 . S
O312 C290 1.234 . S
O313 Mn288 2.209 . S
O313 Mn289 2.215 . S
O313 C290 1.283 . S
O314 Mn288 2.094 . S
O314 C292 1.240 . S
O315 Mn289 2.117 . S
O315 C292 1.264 . S
C316 C309 1.403 . S
C316 C317 1.399 . S
C316 H322 0.929 . S
C317 C297 1.449 . S
C317 C316 1.399 . S
C317 H323 0.930 . S
H318 C298 0.931 . S
H319 C299 0.930 . S
H320 C307 0.931 . S
H321 C308 0.929 . S
H322 C316 0.929 . S
H323 C317 0.930 . S
Mn324 O329 2.095 1_565 S
Mn324 O339 2.162 . S
Mn324 O340 2.318 . S
Mn324 O348 2.385 . S
Mn324 O349 2.209 . S
Mn324 O350 2.094 . S
Mn325 O330 2.121 1_565 S
Mn325 N332 2.257 . S
Mn325 N341 2.282 . S
Mn325 O349 2.215 . S
Mn325 O351 2.117 . S
C326 O348 1.234 . S
C326 O349 1.283 . S
C327 O339 1.281 . S
C327 O340 1.232 . S
C328 O350 1.240 . S
C328 O351 1.264 . S
O329 Mn324 2.095 1_545 S
O329 C338 1.250 . S
O330 Mn325 2.121 1_545 S
O330 C338 1.258 . S
C331 N332 1.326 1_545 S
C331 C335 1.460 . S
C331 H337 0.929 . S
N332 Mn325 2.257 . S
N332 C331 1.326 1_565 S
N332 C336 1.362 . S
C333 C334 1.258 1_565 S
C333 C336 1.431 . S
C333 C353 1.449 . S
C334 C333 1.258 1_545 S
C334 C335 1.477 . S
C334 H354 0.931 . S
C335 C331 1.460 . S
C335 C334 1.477 . S
C335 H355 0.930 . S
C336 N332 1.362 . S
C336 C333 1.431 . S
C336 C346 1.476 . S
H337 C331 0.929 . S
C338 O329 1.250 . S
C338 O330 1.258 . S
O339 Mn324 2.162 . S
O339 C327 1.281 . S
O340 Mn324 2.318 . S
O340 C327 1.232 . S
N341 Mn325 2.282 . S
N341 C342 1.328 . S
N341 C346 1.318 . S
C342 N341 1.328 . S
C342 C343 1.457 . S
C342 H347 0.929 . S
C343 C342 1.457 . S
C343 C344 1.291 . S
C343 H356 0.931 . S
C344 C343 1.291 . S
C344 C345 1.373 . S
C344 H357 0.929 . S
C345 C344 1.373 . S
C345 C346 1.396 . S
C345 C352 1.403 . S
C346 C336 1.476 . S
C346 N341 1.318 . S
C346 C345 1.396 . S
H347 C342 0.929 . S
O348 Mn324 2.385 . S
O348 C326 1.234 . S
O349 Mn324 2.209 . S
O349 Mn325 2.215 . S
O349 C326 1.283 . S
O350 Mn324 2.094 . S
O350 C328 1.240 . S
O351 Mn325 2.117 . S
O351 C328 1.264 . S
C352 C345 1.403 . S
C352 C353 1.399 . S
C352 H358 0.929 . S
C353 C333 1.449 . S
C353 C352 1.399 . S
C353 H359 0.930 . S
H354 C334 0.931 . S
H355 C335 0.930 . S
H356 C343 0.931 . S
H357 C344 0.929 . S
H358 C352 0.929 . S
H359 C353 0.930 . S
Mn360 O365 2.095 . S
Mn360 O375 2.162 1_455 S
Mn360 O376 2.297 1_455 S
Mn360 O384 2.385 . S
Mn360 O385 2.209 . S
Mn360 O386 2.094 . S
Mn361 O366 2.121 . S
Mn361 N368 2.257 . S
Mn361 N377 2.282 . S
Mn361 O385 2.215 . S
Mn361 O387 2.117 . S
C362 O384 1.234 . S
C362 O385 1.283 . S
C363 O375 1.281 . S
C363 O376 1.236 . S
C364 O386 1.240 . S
C364 O387 1.264 . S
O365 Mn360 2.095 . S
O365 C374 1.250 . S
O366 Mn361 2.121 . S
O366 C374 1.258 . S
C367 N368 1.326 . S
C367 C371 1.460 . S
C367 H373 0.929 . S
N368 Mn361 2.257 . S
N368 C367 1.326 . S
N368 C372 1.362 . S
C369 C370 1.258 . S
C369 C372 1.431 . S
C369 C389 1.449 . S
C370 C369 1.258 . S
C370 C371 1.477 . S
C370 H390 0.931 . S
C371 C367 1.460 . S
C371 C370 1.477 . S
C371 H391 0.930 . S
C372 N368 1.362 . S
C372 C369 1.431 . S
C372 C382 1.476 . S
H373 C367 0.929 . S
C374 O365 1.250 . S
C374 O366 1.258 . S
O375 Mn360 2.162 1_655 S
O375 C363 1.281 . S
O376 Mn360 2.297 1_655 S
O376 C363 1.236 . S
N377 Mn361 2.282 . S
N377 C378 1.328 . S
N377 C382 1.318 . S
C378 N377 1.328 . S
C378 C379 1.457 . S
C378 H383 0.929 . S
C379 C378 1.457 . S
C379 C380 1.291 . S
C379 H392 0.931 . S
C380 C379 1.291 . S
C380 C381 1.373 . S
C380 H393 0.929 . S
C381 C380 1.373 . S
C381 C382 1.396 . S
C381 C388 1.403 . S
C382 C372 1.476 . S
C382 N377 1.318 . S
C382 C381 1.396 . S
H383 C378 0.929 . S
O384 Mn360 2.385 . S
O384 C362 1.234 . S
O385 Mn360 2.209 . S
O385 Mn361 2.215 . S
O385 C362 1.283 . S
O386 Mn360 2.094 . S
O386 C364 1.240 . S
O387 Mn361 2.117 . S
O387 C364 1.264 . S
C388 C381 1.403 . S
C388 C389 1.399 . S
C388 H394 0.929 . S
C389 C369 1.449 . S
C389 C388 1.399 . S
C389 H395 0.930 . S
H390 C370 0.931 . S
H391 C371 0.930 . S
H392 C379 0.931 . S
H393 C380 0.929 . S
H394 C388 0.929 . S
H395 C389 0.930 . S
Mn396 O401 2.095 . S
Mn396 O411 2.162 . S
Mn396 O412 2.297 . S
Mn396 O420 2.385 . S
Mn396 O421 2.209 . S
Mn396 O422 2.094 . S
Mn397 O402 2.121 . S
Mn397 N404 2.257 . S
Mn397 N413 2.282 . S
Mn397 O421 2.215 . S
Mn397 O423 2.117 . S
C398 O420 1.234 . S
C398 O421 1.283 . S
C399 O411 1.281 . S
C399 O412 1.236 . S
C400 O422 1.240 . S
C400 O423 1.264 . S
O401 Mn396 2.095 . S
O401 C410 1.250 . S
O402 Mn397 2.121 . S
O402 C410 1.258 . S
C403 N404 1.326 . S
C403 C407 1.460 . S
C403 H409 0.929 . S
N404 Mn397 2.257 . S
N404 C403 1.326 . S
N404 C408 1.362 . S
C405 C406 1.258 . S
C405 C408 1.431 . S
C405 C425 1.449 . S
C406 C405 1.258 . S
C406 C407 1.477 . S
C406 H426 0.931 . S
C407 C403 1.460 . S
C407 C406 1.477 . S
C407 H427 0.930 . S
C408 N404 1.362 . S
C408 C405 1.431 . S
C408 C418 1.476 . S
H409 C403 0.929 . S
C410 O401 1.250 . S
C410 O402 1.258 . S
O411 Mn396 2.162 . S
O411 C399 1.281 . S
O412 Mn396 2.297 . S
O412 C399 1.236 . S
N413 Mn397 2.282 . S
N413 C414 1.328 . S
N413 C418 1.318 . S
C414 N413 1.328 . S
C414 C415 1.457 . S
C414 H419 0.929 . S
C415 C414 1.457 . S
C415 C416 1.291 . S
C415 H428 0.931 . S
C416 C415 1.291 . S
C416 C417 1.373 . S
C416 H429 0.929 . S
C417 C416 1.373 . S
C417 C418 1.396 . S
C417 C424 1.403 . S
C418 C408 1.476 . S
C418 N413 1.318 . S
C418 C417 1.396 . S
H419 C414 0.929 . S
O420 Mn396 2.385 . S
O420 C398 1.234 . S
O421 Mn396 2.209 . S
O421 Mn397 2.215 . S
O421 C398 1.283 . S
O422 Mn396 2.094 . S
O422 C400 1.240 . S
O423 Mn397 2.117 . S
O423 C400 1.264 . S
C424 C417 1.403 . S
C424 C425 1.399 . S
C424 H430 0.929 . S
C425 C405 1.449 . S
C425 C424 1.399 . S
C425 H431 0.930 . S
H426 C406 0.931 . S
H427 C407 0.930 . S
H428 C415 0.931 . S
H429 C416 0.929 . S
H430 C424 0.929 . S
H431 C425 0.930 . S
Mn432 O437 2.095 . S
Mn432 O447 2.162 1_545 S
Mn432 O448 2.297 1_545 S
Mn432 O456 2.385 . S
Mn432 O457 2.209 . S
Mn432 O458 2.094 . S
Mn433 O438 2.121 . S
Mn433 N440 2.257 . S
Mn433 N449 2.282 . S
Mn433 O457 2.215 . S
Mn433 O459 2.117 . S
C434 O456 1.234 . S
C434 O457 1.283 . S
C435 O447 1.281 . S
C435 O448 1.236 . S
C436 O458 1.240 . S
C436 O459 1.264 . S
O437 Mn432 2.095 . S
O437 C446 1.250 . S
O438 Mn433 2.121 . S
O438 C446 1.258 . S
C439 N440 1.326 . S
C439 C443 1.460 . S
C439 H445 0.929 . S
N440 Mn433 2.257 . S
N440 C439 1.326 . S
N440 C444 1.362 . S
C441 C442 1.258 . S
C441 C444 1.431 . S
C441 C461 1.449 . S
C442 C441 1.258 . S
C442 C443 1.477 . S
C442 H462 0.931 . S
C443 C439 1.460 . S
C443 C442 1.477 . S
C443 H463 0.930 . S
C444 N440 1.362 . S
C444 C441 1.431 . S
C444 C454 1.476 . S
H445 C439 0.929 . S
C446 O437 1.250 . S
C446 O438 1.258 . S
O447 Mn432 2.162 1_565 S
O447 C435 1.281 . S
O448 Mn432 2.297 1_565 S
O448 C435 1.236 . S
N449 Mn433 2.282 . S
N449 C450 1.328 . S
N449 C454 1.318 . S
C450 N449 1.328 . S
C450 C451 1.457 . S
C450 H455 0.929 . S
C451 C450 1.457 . S
C451 C452 1.291 . S
C451 H464 0.931 . S
C452 C451 1.291 . S
C452 C453 1.373 . S
C452 H465 0.929 . S
C453 C452 1.373 . S
C453 C454 1.396 . S
C453 C460 1.403 . S
C454 C444 1.476 . S
C454 N449 1.318 . S
C454 C453 1.396 . S
H455 C450 0.929 . S
O456 Mn432 2.385 . S
O456 C434 1.234 . S
O457 Mn432 2.209 . S
O457 Mn433 2.215 . S
O457 C434 1.283 . S
O458 Mn432 2.094 . S
O458 C436 1.240 . S
O459 Mn433 2.117 . S
O459 C436 1.264 . S
C460 C453 1.403 . S
C460 C461 1.399 . S
C460 H466 0.929 . S
C461 C441 1.449 . S
C461 C460 1.399 . S
C461 H467 0.930 . S
H462 C442 0.931 . S
H463 C443 0.930 . S
H464 C451 0.931 . S
H465 C452 0.929 . S
H466 C460 0.929 . S
H467 C461 0.930 . S
Mn468 O473 2.095 1_655 S
Mn468 O483 2.162 . S
Mn468 O484 2.297 . S
Mn468 O492 2.385 . S
Mn468 O493 2.209 . S
Mn468 O494 2.094 . S
Mn469 O474 2.121 1_655 S
Mn469 N476 2.257 . S
Mn469 N485 2.282 . S
Mn469 O493 2.215 . S
Mn469 O495 2.117 . S
C470 O492 1.234 . S
C470 O493 1.283 . S
C471 O483 1.281 . S
C471 O484 1.236 . S
C472 O494 1.240 . S
C472 O495 1.264 . S
O473 Mn468 2.095 1_455 S
O473 C482 1.250 . S
O474 Mn469 2.121 1_455 S
O474 C482 1.258 . S
C475 N476 1.326 1_455 S
C475 C479 1.460 . S
C475 H481 0.929 . S
N476 Mn469 2.257 . S
N476 C475 1.326 1_655 S
N476 C480 1.362 . S
C477 C478 1.258 1_655 S
C477 C480 1.431 . S
C477 C497 1.449 . S
C478 C477 1.258 1_455 S
C478 C479 1.477 . S
C478 H498 0.931 . S
C479 C475 1.460 . S
C479 C478 1.477 . S
C479 H499 0.930 . S
C480 N476 1.362 . S
C480 C477 1.431 . S
C480 C490 1.476 . S
H481 C475 0.929 . S
C482 O473 1.250 . S
C482 O474 1.258 . S
O483 Mn468 2.162 . S
O483 C471 1.281 . S
O484 Mn468 2.297 . S
O484 C471 1.236 . S
N485 Mn469 2.282 . S
N485 C486 1.328 . S
N485 C490 1.318 . S
C486 N485 1.328 . S
C486 C487 1.457 . S
C486 H491 0.929 . S
C487 C486 1.457 . S
C487 C488 1.291 . S
C487 H500 0.931 . S
C488 C487 1.291 . S
C488 C489 1.373 . S
C488 H501 0.929 . S
C489 C488 1.373 . S
C489 C490 1.396 . S
C489 C496 1.403 . S
C490 C480 1.476 . S
C490 N485 1.318 . S
C490 C489 1.396 . S
H491 C486 0.929 . S
O492 Mn468 2.385 . S
O492 C470 1.234 . S
O493 Mn468 2.209 . S
O493 Mn469 2.215 . S
O493 C470 1.283 . S
O494 Mn468 2.094 . S
O494 C472 1.240 . S
O495 Mn469 2.117 . S
O495 C472 1.264 . S
C496 C489 1.403 . S
C496 C497 1.399 . S
C496 H502 0.929 . S
C497 C477 1.449 . S
C497 C496 1.399 . S
C497 H503 0.930 . S
H498 C478 0.931 . S
H499 C479 0.930 . S
H500 C487 0.931 . S
H501 C488 0.929 . S
H502 C496 0.929 . S
H503 C497 0.930 . S
Mn504 O509 2.095 . S
Mn504 O519 2.162 . S
Mn504 O520 2.297 . S
Mn504 O528 2.385 . S
Mn504 O529 2.209 . S
Mn504 O530 2.094 . S
Mn505 O510 2.121 . S
Mn505 N512 2.257 . S
Mn505 N521 2.282 . S
Mn505 O529 2.215 . S
Mn505 O531 2.117 . S
C506 O528 1.234 . S
C506 O529 1.283 . S
C507 O519 1.281 . S
C507 O520 1.236 . S
C508 O530 1.240 . S
C508 O531 1.264 . S
O509 Mn504 2.095 . S
O509 C518 1.250 . S
O510 Mn505 2.121 . S
O510 C518 1.258 . S
C511 N512 1.326 . S
C511 C515 1.460 . S
C511 H517 0.929 . S
N512 Mn505 2.257 . S
N512 C511 1.326 . S
N512 C516 1.362 . S
C513 C514 1.258 . S
C513 C516 1.431 . S
C513 C533 1.449 . S
C514 C513 1.258 . S
C514 C515 1.477 . S
C514 H534 0.931 . S
C515 C511 1.460 . S
C515 C514 1.477 . S
C515 H535 0.930 . S
C516 N512 1.362 . S
C516 C513 1.431 . S
C516 C526 1.476 . S
H517 C511 0.929 . S
C518 O509 1.250 . S
C518 O510 1.258 . S
O519 Mn504 2.162 . S
O519 C507 1.281 . S
O520 Mn504 2.297 . S
O520 C507 1.236 . S
N521 Mn505 2.282 . S
N521 C522 1.328 . S
N521 C526 1.318 . S
C522 N521 1.328 . S
C522 C523 1.457 . S
C522 H527 0.929 . S
C523 C522 1.457 . S
C523 C524 1.291 . S
C523 H536 0.931 . S
C524 C523 1.291 . S
C524 C525 1.373 . S
C524 H537 0.929 . S
C525 C524 1.373 . S
C525 C526 1.396 . S
C525 C532 1.403 . S
C526 C516 1.476 . S
C526 N521 1.318 . S
C526 C525 1.396 . S
H527 C522 0.929 . S
O528 Mn504 2.385 . S
O528 C506 1.234 . S
O529 Mn504 2.209 . S
O529 Mn505 2.215 . S
O529 C506 1.283 . S
O530 Mn504 2.094 . S
O530 C508 1.240 . S
O531 Mn505 2.117 . S
O531 C508 1.264 . S
C532 C525 1.403 . S
C532 C533 1.399 . S
C532 H538 0.929 . S
C533 C513 1.449 . S
C533 C532 1.399 . S
C533 H539 0.930 . S
H534 C514 0.931 . S
H535 C515 0.930 . S
H536 C523 0.931 . S
H537 C524 0.929 . S
H538 C532 0.929 . S
H539 C533 0.930 . S
Mn540 O545 2.095 . S
Mn540 O555 2.162 . S
Mn540 O556 2.297 . S
Mn540 O564 2.385 . S
Mn540 O565 2.209 . S
Mn540 O566 2.094 . S
Mn541 O546 2.121 . S
Mn541 N548 2.257 . S
Mn541 N557 2.282 . S
Mn541 O565 2.215 . S
Mn541 O567 2.117 . S
C542 O564 1.234 . S
C542 O565 1.283 . S
C543 O555 1.281 . S
C543 O556 1.236 . S
C544 O566 1.240 . S
C544 O567 1.264 . S
O545 Mn540 2.095 . S
O545 C554 1.250 . S
O546 Mn541 2.121 . S
O546 C554 1.258 . S
C547 N548 1.326 . S
C547 C551 1.460 . S
C547 H553 0.929 . S
N548 Mn541 2.257 . S
N548 C547 1.326 . S
N548 C552 1.362 . S
C549 C550 1.258 . S
C549 C552 1.431 . S
C549 C569 1.449 . S
C550 C549 1.258 . S
C550 C551 1.477 . S
C550 H570 0.931 . S
C551 C547 1.460 . S
C551 C550 1.477 . S
C551 H571 0.930 . S
C552 N548 1.362 . S
C552 C549 1.431 . S
C552 C562 1.476 . S
H553 C547 0.929 . S
C554 O545 1.250 . S
C554 O546 1.258 . S
O555 Mn540 2.162 . S
O555 C543 1.281 . S
O556 Mn540 2.297 . S
O556 C543 1.236 . S
N557 Mn541 2.282 . S
N557 C558 1.328 . S
N557 C562 1.318 . S
C558 N557 1.328 . S
C558 C559 1.457 . S
C558 H563 0.929 . S
C559 C558 1.457 . S
C559 C560 1.291 . S
C559 H572 0.931 . S
C560 C559 1.291 . S
C560 C561 1.373 . S
C560 H573 0.929 . S
C561 C560 1.373 . S
C561 C562 1.396 . S
C561 C568 1.403 . S
C562 C552 1.476 . S
C562 N557 1.318 . S
C562 C561 1.396 . S
H563 C558 0.929 . S
O564 Mn540 2.385 . S
O564 C542 1.234 . S
O565 Mn540 2.209 . S
O565 Mn541 2.215 . S
O565 C542 1.283 . S
O566 Mn540 2.094 . S
O566 C544 1.240 . S
O567 Mn541 2.117 . S
O567 C544 1.264 . S
C568 C561 1.403 . S
C568 C569 1.399 . S
C568 H574 0.929 . S
C569 C549 1.449 . S
C569 C568 1.399 . S
C569 H575 0.930 . S
H570 C550 0.931 . S
H571 C551 0.930 . S
H572 C559 0.931 . S
H573 C560 0.929 . S
H574 C568 0.929 . S
H575 C569 0.930 . S
Mn576 O581 2.095 1_545 S
Mn576 O591 2.162 . S
Mn576 O592 2.296 . S
Mn576 O600 2.385 . S
Mn576 O601 2.209 . S
Mn576 O602 2.094 . S
Mn577 O582 2.121 1_545 S
Mn577 N584 2.257 . S
Mn577 N593 2.282 . S
Mn577 O601 2.215 . S
Mn577 O603 2.117 . S
C578 O600 1.234 . S
C578 O601 1.283 . S
C579 O591 1.281 . S
C579 O592 1.232 . S
C580 O602 1.240 . S
C580 O603 1.264 . S
O581 Mn576 2.095 1_565 S
O581 C590 1.250 . S
O582 Mn577 2.121 1_565 S
O582 C590 1.258 . S
C583 N584 1.326 1_565 S
C583 C587 1.460 . S
C583 H589 0.929 . S
N584 Mn577 2.257 . S
N584 C583 1.326 1_545 S
N584 C588 1.362 . S
C585 C586 1.258 1_545 S
C585 C588 1.431 . S
C585 C605 1.449 . S
C586 C585 1.258 1_565 S
C586 C587 1.477 . S
C586 H606 0.931 . S
C587 C583 1.460 . S
C587 C586 1.477 . S
C587 H607 0.930 . S
C588 N584 1.362 . S
C588 C585 1.431 . S
C588 C598 1.476 . S
H589 C583 0.929 . S
C590 O581 1.250 . S
C590 O582 1.258 . S
O591 Mn576 2.162 . S
O591 C579 1.281 . S
O592 Mn576 2.296 . S
O592 C579 1.232 . S
N593 Mn577 2.282 . S
N593 C594 1.328 . S
N593 C598 1.318 . S
C594 N593 1.328 . S
C594 C595 1.457 . S
C594 H599 0.929 . S
C595 C594 1.457 . S
C595 C596 1.291 . S
C595 H608 0.931 . S
C596 C595 1.291 . S
C596 C597 1.373 . S
C596 H609 0.929 . S
C597 C596 1.373 . S
C597 C598 1.396 . S
C597 C604 1.403 . S
C598 C588 1.476 . S
C598 N593 1.318 . S
C598 C597 1.396 . S
H599 C594 0.929 . S
O600 Mn576 2.385 . S
O600 C578 1.234 . S
O601 Mn576 2.209 . S
O601 Mn577 2.215 . S
O601 C578 1.283 . S
O602 Mn576 2.094 . S
O602 C580 1.240 . S
O603 Mn577 2.117 . S
O603 C580 1.264 . S
C604 C597 1.403 . S
C604 C605 1.399 . S
C604 H610 0.929 . S
C605 C585 1.449 . S
C605 C604 1.399 . S
C605 H611 0.930 . S
H606 C586 0.931 . S
H607 C587 0.930 . S
H608 C595 0.931 . S
H609 C596 0.929 . S
H610 C604 0.929 . S
H611 C605 0.930 . S
Mn612 O617 2.095 . S
Mn612 O627 2.162 1_655 S
Mn612 O628 2.297 1_655 S
Mn612 O636 2.385 . S
Mn612 O637 2.209 . S
Mn612 O638 2.094 . S
Mn613 O618 2.121 . S
Mn613 N620 2.257 . S
Mn613 N629 2.282 . S
Mn613 O637 2.215 . S
Mn613 O639 2.117 . S
C614 O636 1.234 . S
C614 O637 1.283 . S
C615 O627 1.281 . S
C615 O628 1.236 . S
C616 O638 1.240 . S
C616 O639 1.264 . S
O617 Mn612 2.095 . S
O617 C626 1.250 . S
O618 Mn613 2.121 . S
O618 C626 1.258 . S
C619 N620 1.326 . S
C619 C623 1.460 . S
C619 H625 0.929 . S
N620 Mn613 2.257 . S
N620 C619 1.326 . S
N620 C624 1.362 . S
C621 C622 1.258 . S
C621 C624 1.431 . S
C621 C641 1.449 . S
C622 C621 1.258 . S
C622 C623 1.477 . S
C622 H642 0.931 . S
C623 C619 1.460 . S
C623 C622 1.477 . S
C623 H643 0.930 . S
C624 N620 1.362 . S
C624 C621 1.431 . S
C624 C634 1.476 . S
H625 C619 0.929 . S
C626 O617 1.250 . S
C626 O618 1.258 . S
O627 Mn612 2.162 1_455 S
O627 C615 1.281 . S
O628 Mn612 2.297 1_455 S
O628 C615 1.236 . S
N629 Mn613 2.282 . S
N629 C630 1.328 . S
N629 C634 1.318 . S
C630 N629 1.328 . S
C630 C631 1.457 . S
C630 H635 0.929 . S
C631 C630 1.457 . S
C631 C632 1.291 . S
C631 H644 0.931 . S
C632 C631 1.291 . S
C632 C633 1.373 . S
C632 H645 0.929 . S
C633 C632 1.373 . S
C633 C634 1.396 . S
C633 C640 1.403 . S
C634 C624 1.476 . S
C634 N629 1.318 . S
C634 C633 1.396 . S
H635 C630 0.929 . S
O636 Mn612 2.385 . S
O636 C614 1.234 . S
O637 Mn612 2.209 . S
O637 Mn613 2.215 . S
O637 C614 1.283 . S
O638 Mn612 2.094 . S
O638 C616 1.240 . S
O639 Mn613 2.117 . S
O639 C616 1.264 . S
C640 C633 1.403 . S
C640 C641 1.399 . S
C640 H646 0.929 . S
C641 C621 1.449 . S
C641 C640 1.399 . S
C641 H647 0.930 . S
H642 C622 0.931 . S
H643 C623 0.930 . S
H644 C631 0.931 . S
H645 C632 0.929 . S
H646 C640 0.929 . S
H647 C641 0.930 . S
H648 C656 0.930 . S
H649 C659 0.930 . S
H650 C661 0.930 . S
H651 C662 0.970 . S
H652 C662 0.970 . S
H653 C664 0.930 . S
H654 C666 0.930 . S
H655 C668 0.930 . S
C656 H648 0.930 . S
C656 C657 1.382 . S
C656 C658 1.426 . S
C657 C656 1.382 . S
C657 C661 1.389 . S
C658 C656 1.426 . S
C658 C659 1.375 . S
C658 C662 1.532 . S
C659 H649 0.930 . S
C659 C658 1.375 . S
C659 C660 1.416 . S
C660 C659 1.416 . S
C660 C661 1.371 . S
C661 H650 0.930 . S
C661 C657 1.389 . S
C661 C660 1.371 . S
C662 H651 0.970 . S
C662 H652 0.970 . S
C662 C658 1.532 . S
C662 C663 1.499 . S
C663 C662 1.499 . S
C663 C664 1.370 . S
C663 C668 1.415 . S
C664 H653 0.930 . S
C664 C663 1.370 . S
C664 C665 1.407 . S
C665 C664 1.407 . S
C665 C666 1.365 . S
C666 H654 0.930 . S
C666 C665 1.365 . S
C666 C667 1.393 . S
C667 C666 1.393 . S
C667 C668 1.387 . S
C668 H655 0.930 . S
C668 C663 1.415 . S
C668 C667 1.387 . S
H669 C677 0.930 . S
H670 C680 0.930 . S
H671 C682 0.930 . S
H672 C683 0.970 . S
H673 C683 0.970 . S
H674 C685 0.930 . S
H675 C687 0.930 . S
H676 C689 0.930 . S
C677 H669 0.930 . S
C677 C678 1.382 . S
C677 C679 1.426 . S
C678 C677 1.382 . S
C678 C682 1.389 . S
C679 C677 1.426 . S
C679 C680 1.375 . S
C679 C683 1.532 . S
C680 H670 0.930 . S
C680 C679 1.375 . S
C680 C681 1.416 . S
C681 C680 1.416 . S
C681 C682 1.371 . S
C682 H671 0.930 . S
C682 C678 1.389 . S
C682 C681 1.371 . S
C683 H672 0.970 . S
C683 H673 0.970 . S
C683 C679 1.532 . S
C683 C684 1.499 . S
C684 C683 1.499 . S
C684 C685 1.370 . S
C684 C689 1.415 . S
C685 H674 0.930 . S
C685 C684 1.370 . S
C685 C686 1.407 . S
C686 C685 1.407 . S
C686 C687 1.365 . S
C687 H675 0.930 . S
C687 C686 1.365 . S
C687 C688 1.393 . S
C688 C687 1.393 . S
C688 C689 1.387 . S
C689 H676 0.930 . S
C689 C684 1.415 . S
C689 C688 1.387 . S
H690 C698 0.930 . S
H691 C701 0.930 . S
H692 C703 0.930 . S
H693 C704 0.970 . S
H694 C704 0.970 . S
H695 C706 0.930 . S
H696 C708 0.930 . S
H697 C710 0.930 . S
C698 H690 0.930 . S
C698 C699 1.382 . S
C698 C700 1.426 . S
C699 C698 1.382 . S
C699 C703 1.389 . S
C700 C698 1.426 . S
C700 C701 1.375 . S
C700 C704 1.532 . S
C701 H691 0.930 . S
C701 C700 1.375 . S
C701 C702 1.416 . S
C702 C701 1.416 . S
C702 C703 1.371 . S
C703 H692 0.930 . S
C703 C699 1.389 . S
C703 C702 1.371 . S
C704 H693 0.970 . S
C704 H694 0.970 . S
C704 C700 1.532 . S
C704 C705 1.499 . S
C705 C704 1.499 . S
C705 C706 1.370 . S
C705 C710 1.415 . S
C706 H695 0.930 . S
C706 C705 1.370 . S
C706 C707 1.407 . S
C707 C706 1.407 . S
C707 C708 1.365 . S
C708 H696 0.930 . S
C708 C707 1.365 . S
C708 C709 1.393 . S
C709 C708 1.393 . S
C709 C710 1.387 . S
C710 H697 0.930 . S
C710 C705 1.415 . S
C710 C709 1.387 . S
H711 C719 0.930 . S
H712 C722 0.930 . S
H713 C724 0.930 . S
H714 C725 0.970 . S
H715 C725 0.970 . S
H716 C727 0.930 . S
H717 C729 0.930 . S
H718 C731 0.930 . S
C719 H711 0.930 . S
C719 C720 1.382 . S
C719 C721 1.426 . S
C720 C719 1.382 . S
C720 C724 1.389 . S
C721 C719 1.426 . S
C721 C722 1.375 . S
C721 C725 1.532 . S
C722 H712 0.930 . S
C722 C721 1.375 . S
C722 C723 1.416 . S
C723 C722 1.416 . S
C723 C724 1.371 . S
C724 H713 0.930 . S
C724 C720 1.389 . S
C724 C723 1.371 . S
C725 H714 0.970 . S
C725 H715 0.970 . S
C725 C721 1.532 . S
C725 C726 1.499 . S
C726 C725 1.499 . S
C726 C727 1.370 . S
C726 C731 1.415 . S
C727 H716 0.930 . S
C727 C726 1.370 . S
C727 C728 1.407 . S
C728 C727 1.407 . S
C728 C729 1.365 . S
C729 H717 0.930 . S
C729 C728 1.365 . S
C729 C730 1.393 . S
C730 C729 1.393 . S
C730 C731 1.387 . S
C731 H718 0.930 . S
C731 C726 1.415 . S
C731 C730 1.387 . S
H732 C740 0.930 . S
H733 C743 0.930 . S
H734 C745 0.930 . S
H735 C746 0.970 . S
H736 C746 0.970 . S
H737 C748 0.930 . S
H738 C750 0.930 . S
H739 C752 0.930 . S
C740 H732 0.930 . S
C740 C741 1.382 . S
C740 C742 1.426 . S
C741 C740 1.382 . S
C741 C745 1.389 . S
C742 C740 1.426 . S
C742 C743 1.375 . S
C742 C746 1.532 . S
C743 H733 0.930 . S
C743 C742 1.375 . S
C743 C744 1.416 . S
C744 C743 1.416 . S
C744 C745 1.371 . S
C745 H734 0.930 . S
C745 C741 1.389 . S
C745 C744 1.371 . S
C746 H735 0.970 . S
C746 H736 0.970 . S
C746 C742 1.532 . S
C746 C747 1.499 . S
C747 C746 1.499 . S
C747 C748 1.370 . S
C747 C752 1.415 . S
C748 H737 0.930 . S
C748 C747 1.370 . S
C748 C749 1.407 . S
C749 C748 1.407 . S
C749 C750 1.365 . S
C750 H738 0.930 . S
C750 C749 1.365 . S
C750 C751 1.393 . S
C751 C750 1.393 . S
C751 C752 1.387 . S
C752 H739 0.930 . S
C752 C747 1.415 . S
C752 C751 1.387 . S
H753 C761 0.930 . S
H754 C764 0.930 . S
H755 C766 0.930 . S
H756 C767 0.970 . S
H757 C767 0.970 . S
H758 C769 0.930 . S
H759 C771 0.930 . S
H760 C773 0.930 . S
C761 H753 0.930 . S
C761 C762 1.382 . S
C761 C763 1.426 . S
C762 C761 1.382 . S
C762 C766 1.389 . S
C763 C761 1.426 . S
C763 C764 1.375 . S
C763 C767 1.532 . S
C764 H754 0.930 . S
C764 C763 1.375 . S
C764 C765 1.416 . S
C765 C764 1.416 . S
C765 C766 1.371 . S
C766 H755 0.930 . S
C766 C762 1.389 . S
C766 C765 1.371 . S
C767 H756 0.970 . S
C767 H757 0.970 . S
C767 C763 1.532 . S
C767 C768 1.499 . S
C768 C767 1.499 . S
C768 C769 1.370 . S
C768 C773 1.415 . S
C769 H758 0.930 . S
C769 C768 1.370 . S
C769 C770 1.407 . S
C770 C769 1.407 . S
C770 C771 1.365 . S
C771 H759 0.930 . S
C771 C770 1.365 . S
C771 C772 1.393 . S
C772 C771 1.393 . S
C772 C773 1.387 . S
C773 H760 0.930 . S
C773 C768 1.415 . S
C773 C772 1.387 . S
H774 C782 0.930 . S
H775 C785 0.930 . S
H776 C787 0.930 . S
H777 C788 0.970 . S
H778 C788 0.970 . S
H779 C790 0.930 . S
H780 C792 0.930 . S
H781 C794 0.930 . S
C782 H774 0.930 . S
C782 C783 1.382 . S
C782 C784 1.426 . S
C783 C782 1.382 . S
C783 C787 1.389 . S
C784 C782 1.426 . S
C784 C785 1.375 . S
C784 C788 1.532 . S
C785 H775 0.930 . S
C785 C784 1.375 . S
C785 C786 1.416 . S
C786 C785 1.416 . S
C786 C787 1.371 . S
C787 H776 0.930 . S
C787 C783 1.389 . S
C787 C786 1.371 . S
C788 H777 0.970 . S
C788 H778 0.970 . S
C788 C784 1.532 . S
C788 C789 1.499 . S
C789 C788 1.499 . S
C789 C790 1.370 . S
C789 C794 1.415 . S
C790 H779 0.930 . S
C790 C789 1.370 . S
C790 C791 1.407 . S
C791 C790 1.407 . S
C791 C792 1.365 . S
C792 H780 0.930 . S
C792 C791 1.365 . S
C792 C793 1.393 . S
C793 C792 1.393 . S
C793 C794 1.387 . S
C794 H781 0.930 . S
C794 C789 1.415 . S
C794 C793 1.387 . S
H795 C803 0.930 . S
H796 C806 0.930 . S
H797 C808 0.930 . S
H798 C809 0.970 . S
H799 C809 0.970 . S
H800 C811 0.930 . S
H801 C813 0.930 . S
H802 C815 0.930 . S
C803 H795 0.930 . S
C803 C804 1.382 . S
C803 C805 1.426 . S
C804 C803 1.382 . S
C804 C808 1.389 . S
C805 C803 1.426 . S
C805 C806 1.375 . S
C805 C809 1.532 . S
C806 H796 0.930 . S
C806 C805 1.375 . S
C806 C807 1.416 . S
C807 C806 1.416 . S
C807 C808 1.371 . S
C808 H797 0.930 . S
C808 C804 1.389 . S
C808 C807 1.371 . S
C809 H798 0.970 . S
C809 H799 0.970 . S
C809 C805 1.532 . S
C809 C810 1.499 . S
C810 C809 1.499 . S
C810 C811 1.370 . S
C810 C815 1.415 . S
C811 H800 0.930 . S
C811 C810 1.370 . S
C811 C812 1.407 . S
C812 C811 1.407 . S
C812 C813 1.365 . S
C813 H801 0.930 . S
C813 C812 1.365 . S
C813 C814 1.393 . S
C814 C813 1.393 . S
C814 C815 1.387 . S
C815 H802 0.930 . S
C815 C810 1.415 . S
C815 C814 1.387 . S
H816 C824 0.930 . S
H817 C827 0.930 . S
H818 C829 0.930 . S
H819 C830 0.970 . S
H820 C830 0.970 . S
H821 C832 0.930 . S
H822 C834 0.930 . S
H823 C836 0.930 . S
C824 H816 0.930 . S
C824 C825 1.382 . S
C824 C826 1.426 . S
C825 C824 1.382 . S
C825 C829 1.389 . S
C826 C824 1.426 . S
C826 C827 1.375 . S
C826 C830 1.532 . S
C827 H817 0.930 . S
C827 C826 1.375 . S
C827 C828 1.416 . S
C828 C827 1.416 . S
C828 C829 1.371 . S
C829 H818 0.930 . S
C829 C825 1.389 . S
C829 C828 1.371 . S
C830 H819 0.970 . S
C830 H820 0.970 . S
C830 C826 1.532 . S
C830 C831 1.499 . S
C831 C830 1.499 . S
C831 C832 1.370 . S
C831 C836 1.415 . S
C832 H821 0.930 . S
C832 C831 1.370 . S
C832 C833 1.407 . S
C833 C832 1.407 . S
C833 C834 1.365 . S
C834 H822 0.930 . S
C834 C833 1.365 . S
C834 C835 1.393 . S
C835 C834 1.393 . S
C835 C836 1.387 . S
C836 H823 0.930 . S
C836 C831 1.415 . S
C836 C835 1.387 . S
H837 C845 0.930 . S
H838 C848 0.930 . S
H839 C850 0.930 . S
H840 C851 0.970 . S
H841 C851 0.970 . S
H842 C853 0.930 . S
H843 C855 0.930 . S
H844 C857 0.930 . S
C845 H837 0.930 . S
C845 C846 1.382 . S
C845 C847 1.426 . S
C846 C845 1.382 . S
C846 C850 1.389 1_455 S
C847 C845 1.426 . S
C847 C848 1.375 . S
C847 C851 1.532 . S
C848 H838 0.930 . S
C848 C847 1.375 . S
C848 C849 1.416 . S
C849 C848 1.416 . S
C849 C850 1.371 1_455 S
C850 H839 0.930 . S
C850 C846 1.389 1_655 S
C850 C849 1.371 1_655 S
C851 H840 0.970 . S
C851 H841 0.970 . S
C851 C847 1.532 . S
C851 C852 1.499 . S
C852 C851 1.499 . S
C852 C853 1.370 . S
C852 C857 1.415 . S
C853 H842 0.930 . S
C853 C852 1.370 . S
C853 C854 1.411 . S
C854 C853 1.411 . S
C854 C855 1.367 1_455 S
C855 H843 0.930 . S
C855 C854 1.367 1_655 S
C855 C856 1.393 1_655 S
C856 C855 1.393 1_455 S
C856 C857 1.387 . S
C857 H844 0.930 . S
C857 C852 1.415 . S
C857 C856 1.387 . S
H858 C866 0.930 . S
H859 C869 0.930 . S
H860 C871 0.930 . S
H861 C872 0.970 . S
H862 C872 0.970 . S
H863 C874 0.930 . S
H864 C876 0.930 . S
H865 C878 0.930 . S
C866 H858 0.930 . S
C866 C867 1.382 . S
C866 C868 1.426 . S
C867 C866 1.382 . S
C867 C871 1.389 . S
C868 C866 1.426 . S
C868 C869 1.375 . S
C868 C872 1.532 . S
C869 H859 0.930 . S
C869 C868 1.375 . S
C869 C870 1.416 . S
C870 C869 1.416 . S
C870 C871 1.371 . S
C871 H860 0.930 . S
C871 C867 1.389 . S
C871 C870 1.371 . S
C872 H861 0.970 . S
C872 H862 0.970 . S
C872 C868 1.532 . S
C872 C873 1.499 . S
C873 C872 1.499 . S
C873 C874 1.370 . S
C873 C878 1.415 . S
C874 H863 0.930 . S
C874 C873 1.370 . S
C874 C875 1.407 . S
C875 C874 1.407 . S
C875 C876 1.365 . S
C876 H864 0.930 . S
C876 C875 1.365 . S
C876 C877 1.393 . S
C877 C876 1.393 . S
C877 C878 1.387 . S
C878 H865 0.930 . S
C878 C873 1.415 . S
C878 C877 1.387 . S
H879 C887 0.930 . S
H880 C890 0.930 . S
H881 C892 0.930 . S
H882 C893 0.970 . S
H883 C893 0.970 . S
H884 C895 0.930 . S
H885 C897 0.930 . S
H886 C899 0.930 . S
C887 H879 0.930 . S
C887 C888 1.382 . S
C887 C889 1.426 . S
C888 C887 1.382 . S
C888 C892 1.389 1_565 S
C889 C887 1.426 . S
C889 C890 1.375 . S
C889 C893 1.532 . S
C890 H880 0.930 . S
C890 C889 1.375 . S
C890 C891 1.416 . S
C891 C890 1.416 . S
C891 C892 1.371 1_565 S
C892 H881 0.930 . S
C892 C888 1.389 1_545 S
C892 C891 1.371 1_545 S
C893 H882 0.970 . S
C893 H883 0.970 . S
C893 C889 1.532 . S
C893 C894 1.499 . S
C894 C893 1.499 . S
C894 C895 1.370 . S
C894 C899 1.415 . S
C895 H884 0.930 . S
C895 C894 1.370 . S
C895 C896 1.448 . S
C896 C895 1.448 . S
C896 C897 1.349 1_565 S
C897 H885 0.930 . S
C897 C896 1.349 1_545 S
C897 C898 1.393 1_545 S
C898 C897 1.393 1_565 S
C898 C899 1.387 . S
C899 H886 0.930 . S
C899 C894 1.415 . S
C899 C898 1.387 . S
H900 C908 0.930 . S
H901 C911 0.930 . S
H902 C913 0.930 . S
H903 C914 0.970 . S
H904 C914 0.970 . S
H905 C916 0.930 . S
H906 C918 0.930 . S
H907 C920 0.930 . S
C908 H900 0.930 . S
C908 C909 1.382 . S
C908 C910 1.426 . S
C909 C908 1.382 . S
C909 C913 1.389 1_565 S
C910 C908 1.426 . S
C910 C911 1.375 . S
C910 C914 1.532 . S
C911 H901 0.930 . S
C911 C910 1.375 . S
C911 C912 1.416 . S
C912 C911 1.416 . S
C912 C913 1.371 1_565 S
C913 H902 0.930 . S
C913 C909 1.389 1_545 S
C913 C912 1.371 1_545 S
C914 H903 0.970 . S
C914 H904 0.970 . S
C914 C910 1.532 . S
C914 C915 1.499 . S
C915 C914 1.499 . S
C915 C916 1.370 . S
C915 C920 1.415 . S
C916 H905 0.930 . S
C916 C915 1.370 . S
C916 C917 1.407 . S
C917 C916 1.407 . S
C917 C918 1.365 1_565 S
C918 H906 0.930 . S
C918 C917 1.365 1_545 S
C918 C919 1.393 1_545 S
C919 C918 1.393 1_565 S
C919 C920 1.387 . S
C920 H907 0.930 . S
C920 C915 1.415 . S
C920 C919 1.387 . S
H921 C929 0.930 . S
H922 C932 0.930 . S
H923 C934 0.930 . S
H924 C935 0.970 . S
H925 C935 0.970 . S
H926 C937 0.930 . S
H927 C939 0.930 . S
H928 C941 0.930 . S
C929 H921 0.930 . S
C929 C930 1.382 . S
C929 C931 1.426 . S
C930 C929 1.382 . S
C930 C934 1.389 1_455 S
C931 C929 1.426 . S
C931 C932 1.375 . S
C931 C935 1.532 . S
C932 H922 0.930 . S
C932 C931 1.375 . S
C932 C933 1.416 . S
C933 C932 1.416 . S
C933 C934 1.371 1_455 S
C934 H923 0.930 . S
C934 C930 1.389 1_655 S
C934 C933 1.371 1_655 S
C935 H924 0.970 . S
C935 H925 0.970 . S
C935 C931 1.532 . S
C935 C936 1.499 . S
C936 C935 1.499 . S
C936 C937 1.370 . S
C936 C941 1.415 . S
C937 H926 0.930 . S
C937 C936 1.370 . S
C937 C938 1.407 . S
C938 C937 1.407 . S
C938 C939 1.365 1_455 S
C939 H927 0.930 . S
C939 C938 1.365 1_655 S
C939 C940 1.393 1_655 S
C940 C939 1.393 1_455 S
C940 C941 1.387 . S
C941 H928 0.930 . S
C941 C936 1.415 . S
C941 C940 1.387 . S
H942 C950 0.930 . S
H943 C953 0.930 . S
H944 C955 0.930 . S
H945 C956 0.970 . S
H946 C956 0.970 . S
H947 C958 0.930 . S
H948 C960 0.930 . S
H949 C962 0.930 . S
C950 H942 0.930 . S
C950 C951 1.382 . S
C950 C952 1.426 . S
C951 C950 1.382 . S
C951 C955 1.389 . S
C952 C950 1.426 . S
C952 C953 1.375 . S
C952 C956 1.532 . S
C953 H943 0.930 . S
C953 C952 1.375 . S
C953 C954 1.416 . S
C954 C953 1.416 . S
C954 C955 1.371 . S
C955 H944 0.930 . S
C955 C951 1.389 . S
C955 C954 1.371 . S
C956 H945 0.970 . S
C956 H946 0.970 . S
C956 C952 1.532 . S
C956 C957 1.499 . S
C957 C956 1.499 . S
C957 C958 1.370 . S
C957 C962 1.415 . S
C958 H947 0.930 . S
C958 C957 1.370 . S
C958 C959 1.407 . S
C959 C958 1.407 . S
C959 C960 1.365 . S
C960 H948 0.930 . S
C960 C959 1.365 . S
C960 C961 1.393 . S
C961 C960 1.393 . S
C961 C962 1.387 . S
C962 H949 0.930 . S
C962 C957 1.415 . S
C962 C961 1.387 . S
H963 C971 0.930 . S
H964 C974 0.930 . S
H965 C976 0.930 . S
H966 C977 0.970 . S
H967 C977 0.970 . S
H968 C979 0.930 . S
H969 C981 0.930 . S
H970 C983 0.930 . S
C971 H963 0.930 . S
C971 C972 1.382 . S
C971 C973 1.426 . S
C972 C971 1.382 . S
C972 C976 1.389 . S
C973 C971 1.426 . S
C973 C974 1.375 . S
C973 C977 1.532 . S
C974 H964 0.930 . S
C974 C973 1.375 . S
C974 C975 1.416 . S
C975 C974 1.416 . S
C975 C976 1.371 . S
C976 H965 0.930 . S
C976 C972 1.389 . S
C976 C975 1.371 . S
C977 H966 0.970 . S
C977 H967 0.970 . S
C977 C973 1.532 . S
C977 C978 1.499 . S
C978 C977 1.499 . S
C978 C979 1.370 . S
C978 C983 1.415 . S
C979 H968 0.930 . S
C979 C978 1.370 . S
C979 C980 1.407 . S
C980 C979 1.407 . S
C980 C981 1.365 . S
C981 H969 0.930 . S
C981 C980 1.365 . S
C981 C982 1.393 . S
C982 C981 1.393 . S
C982 C983 1.387 . S
C983 H970 0.930 . S
C983 C978 1.415 . S
C983 C982 1.387 . S
H984 C992 0.930 . S
H985 C995 0.930 . S
H986 C997 0.930 . S
H987 C998 0.970 . S
H988 C998 0.970 . S
H989 C1000 0.930 . S
H990 C1002 0.930 . S
H991 C1004 0.930 . S
C992 H984 0.930 . S
C992 C993 1.382 . S
C992 C994 1.426 . S
C993 C992 1.382 . S
C993 C997 1.389 . S
C994 C992 1.426 . S
C994 C995 1.375 . S
C994 C998 1.532 . S
C995 H985 0.930 . S
C995 C994 1.375 . S
C995 C996 1.416 . S
C996 C995 1.416 . S
C996 C997 1.371 . S
C997 H986 0.930 . S
C997 C993 1.389 . S
C997 C996 1.371 . S
C998 H987 0.970 . S
C998 H988 0.970 . S
C998 C994 1.532 . S
C998 C999 1.499 . S
C999 C998 1.499 . S
C999 C1000 1.370 . S
C999 C1004 1.415 . S
C1000 H989 0.930 . S
C1000 C999 1.370 . S
C1000 C1001 1.407 . S
C1001 C1000 1.407 . S
C1001 C1002 1.365 . S
C1002 H990 0.930 . S
C1002 C1001 1.365 . S
C1002 C1003 1.393 . S
C1003 C1002 1.393 . S
C1003 C1004 1.387 . S
C1004 H991 0.930 . S
C1004 C999 1.415 . S
C1004 C1003 1.387 . S
H1005 C1013 0.930 . S
H1006 C1016 0.930 . S
H1007 C1018 0.930 . S
H1008 C1019 0.970 . S
H1009 C1019 0.970 . S
H1010 C1021 0.930 . S
H1011 C1023 0.930 . S
H1012 C1025 0.930 . S
C1013 H1005 0.930 . S
C1013 C1014 1.382 . S
C1013 C1015 1.426 . S
C1014 C1013 1.382 . S
C1014 C1018 1.389 . S
C1015 C1013 1.426 . S
C1015 C1016 1.375 . S
C1015 C1019 1.532 . S
C1016 H1006 0.930 . S
C1016 C1015 1.375 . S
C1016 C1017 1.416 . S
C1017 C1016 1.416 . S
C1017 C1018 1.371 . S
C1018 H1007 0.930 . S
C1018 C1014 1.389 . S
C1018 C1017 1.371 . S
C1019 H1008 0.970 . S
C1019 H1009 0.970 . S
C1019 C1015 1.532 . S
C1019 C1020 1.499 . S
C1020 C1019 1.499 . S
C1020 C1021 1.370 . S
C1020 C1025 1.415 . S
C1021 H1010 0.930 . S
C1021 C1020 1.370 . S
C1021 C1022 1.407 . S
C1022 C1021 1.407 . S
C1022 C1023 1.365 . S
C1023 H1011 0.930 . S
C1023 C1022 1.365 . S
C1023 C1024 1.393 . S
C1024 C1023 1.393 . S
C1024 C1025 1.387 . S
C1025 H1012 0.930 . S
C1025 C1020 1.415 . S
C1025 C1024 1.387 . S
C1026 C1027 1.369 1_455 S
C1026 C1028 1.419 . S
C1026 H1030 0.930 . S
C1027 C1026 1.369 1_655 S
C1027 C1036 1.429 . S
C1028 C1026 1.419 . S
C1028 C1029 1.363 1_455 S
C1028 H1031 0.929 . S
C1029 C1028 1.363 1_655 S
C1029 C1035 1.428 . S
H1030 C1026 0.930 . S
H1031 C1028 0.929 . S
S1032 N1033 1.613 . S
S1032 N1034 1.610 . S
N1033 S1032 1.613 . S
N1033 C1036 1.350 . S
N1034 S1032 1.610 . S
N1034 C1035 1.351 . S
C1035 C1029 1.428 . S
C1035 N1034 1.351 . S
C1035 C1036 1.434 . S
C1036 C1027 1.429 . S
C1036 N1033 1.350 . S
C1036 C1035 1.434 . S
C1037 C1038 1.369 . S
C1037 C1039 1.419 . S
C1037 H1041 0.930 . S
C1038 C1037 1.369 . S
C1038 C1047 1.429 . S
C1039 C1037 1.419 . S
C1039 C1040 1.363 . S
C1039 H1042 0.929 . S
C1040 C1039 1.363 . S
C1040 C1046 1.428 . S
H1041 C1037 0.930 . S
H1042 C1039 0.929 . S
S1043 N1044 1.613 . S
S1043 N1045 1.610 . S
N1044 S1043 1.613 . S
N1044 C1047 1.350 . S
N1045 S1043 1.610 . S
N1045 C1046 1.351 . S
C1046 C1040 1.428 . S
C1046 N1045 1.351 . S
C1046 C1047 1.434 . S
C1047 C1038 1.429 . S
C1047 N1044 1.350 . S
C1047 C1046 1.434 . S
C1048 C1049 1.369 . S
C1048 C1050 1.419 . S
C1048 H1052 0.930 . S
C1049 C1048 1.369 . S
C1049 C1058 1.415 1_545 S
C1050 C1048 1.419 . S
C1050 C1051 1.363 . S
C1050 H1053 0.929 . S
C1051 C1050 1.363 . S
C1051 C1057 1.426 1_545 S
H1052 C1048 0.930 . S
H1053 C1050 0.929 . S
S1054 N1055 1.613 . S
S1054 N1056 1.610 . S
N1055 S1054 1.613 . S
N1055 C1058 1.358 . S
N1056 S1054 1.610 . S
N1056 C1057 1.357 . S
C1057 C1051 1.426 1_565 S
C1057 N1056 1.357 . S
C1057 C1058 1.439 . S
C1058 C1049 1.415 1_565 S
C1058 N1055 1.358 . S
C1058 C1057 1.439 . S
C1059 C1060 1.369 . S
C1059 C1061 1.419 . S
C1059 H1063 0.930 . S
C1060 C1059 1.369 . S
C1060 C1069 1.429 1_565 S
C1061 C1059 1.419 . S
C1061 C1062 1.363 . S
C1061 H1064 0.929 . S
C1062 C1061 1.363 . S
C1062 C1068 1.428 1_565 S
H1063 C1059 0.930 . S
H1064 C1061 0.929 . S
S1065 N1066 1.613 . S
S1065 N1067 1.610 . S
N1066 S1065 1.613 . S
N1066 C1069 1.350 . S
N1067 S1065 1.610 . S
N1067 C1068 1.351 . S
C1068 C1062 1.428 1_545 S
C1068 N1067 1.351 . S
C1068 C1069 1.434 . S
C1069 C1060 1.429 1_545 S
C1069 N1066 1.350 . S
C1069 C1068 1.434 . S
C1070 C1071 1.369 1_655 S
C1070 C1072 1.419 . S
C1070 H1074 0.930 . S
C1071 C1070 1.369 1_455 S
C1071 C1080 1.429 . S
C1072 C1070 1.419 . S
C1072 C1073 1.363 1_655 S
C1072 H1075 0.929 . S
C1073 C1072 1.363 1_455 S
C1073 C1079 1.428 . S
H1074 C1070 0.930 . S
H1075 C1072 0.929 . S
S1076 N1077 1.613 . S
S1076 N1078 1.610 . S
N1077 S1076 1.613 . S
N1077 C1080 1.350 . S
N1078 S1076 1.610 . S
N1078 C1079 1.351 . S
C1079 C1073 1.428 . S
C1079 N1078 1.351 . S
C1079 C1080 1.434 . S
C1080 C1071 1.429 . S
C1080 N1077 1.350 . S
C1080 C1079 1.434 . S
C1081 C1082 1.369 . S
C1081 C1083 1.419 . S
C1081 H1085 0.930 . S
C1082 C1081 1.369 . S
C1082 C1091 1.429 . S
C1083 C1081 1.419 . S
C1083 C1084 1.363 . S
C1083 H1086 0.929 . S
C1084 C1083 1.363 . S
C1084 C1090 1.428 . S
H1085 C1081 0.930 . S
H1086 C1083 0.929 . S
S1087 N1088 1.613 . S
S1087 N1089 1.610 . S
N1088 S1087 1.613 . S
N1088 C1091 1.350 . S
N1089 S1087 1.610 . S
N1089 C1090 1.351 . S
C1090 C1084 1.428 . S
C1090 N1089 1.351 . S
C1090 C1091 1.434 . S
C1091 C1082 1.429 . S
C1091 N1088 1.350 . S
C1091 C1090 1.434 . S
C1092 C1093 1.369 . S
C1092 C1094 1.419 . S
C1092 H1096 0.930 . S
C1093 C1092 1.369 . S
C1093 C1102 1.429 1_455 S
C1094 C1092 1.419 . S
C1094 C1095 1.363 . S
C1094 H1097 0.929 . S
C1095 C1094 1.363 . S
C1095 C1101 1.428 1_455 S
H1096 C1092 0.930 . S
H1097 C1094 0.929 . S
S1098 N1099 1.613 . S
S1098 N1100 1.610 . S
N1099 S1098 1.613 . S
N1099 C1102 1.350 . S
N1100 S1098 1.610 . S
N1100 C1101 1.351 . S
C1101 C1095 1.428 1_655 S
C1101 N1100 1.351 . S
C1101 C1102 1.434 . S
C1102 C1093 1.429 1_655 S
C1102 N1099 1.350 . S
C1102 C1101 1.434 . S
C1103 C1104 1.369 . S
C1103 C1105 1.419 . S
C1103 H1107 0.930 . S
C1104 C1103 1.369 . S
C1104 C1113 1.429 . S
C1105 C1103 1.419 . S
C1105 C1106 1.363 . S
C1105 H1108 0.929 . S
C1106 C1105 1.363 . S
C1106 C1112 1.428 . S
H1107 C1103 0.930 . S
H1108 C1105 0.929 . S
S1109 N1110 1.613 . S
S1109 N1111 1.610 . S
N1110 S1109 1.613 . S
N1110 C1113 1.350 . S
N1111 S1109 1.610 . S
N1111 C1112 1.351 . S
C1112 C1106 1.428 . S
C1112 N1111 1.351 . S
C1112 C1113 1.434 . S
C1113 C1104 1.429 . S
C1113 N1110 1.350 . S
C1113 C1112 1.434 . S
C1114 C1115 1.369 1_545 S
C1114 C1116 1.419 . S
C1114 H1118 0.930 . S
C1115 C1114 1.369 1_565 S
C1115 C1124 1.429 . S
C1116 C1114 1.419 . S
C1116 C1117 1.363 1_545 S
C1116 H1119 0.929 . S
C1117 C1116 1.363 1_565 S
C1117 C1123 1.428 . S
H1118 C1114 0.930 . S
H1119 C1116 0.929 . S
S1120 N1121 1.613 . S
S1120 N1122 1.610 . S
N1121 S1120 1.613 . S
N1121 C1124 1.350 . S
N1122 S1120 1.610 . S
N1122 C1123 1.351 . S
C1123 C1117 1.428 . S
C1123 N1122 1.351 . S
C1123 C1124 1.434 . S
C1124 C1115 1.429 . S
C1124 N1121 1.350 . S
C1124 C1123 1.434 . S
C1125 C1126 1.369 . S
C1125 C1127 1.419 . S
C1125 H1129 0.930 . S
C1126 C1125 1.369 . S
C1126 C1135 1.429 . S
C1127 C1125 1.419 . S
C1127 C1128 1.363 . S
C1127 H1130 0.929 . S
C1128 C1127 1.363 . S
C1128 C1134 1.428 . S
H1129 C1125 0.930 . S
H1130 C1127 0.929 . S
S1131 N1132 1.613 . S
S1131 N1133 1.610 . S
N1132 S1131 1.613 . S
N1132 C1135 1.350 . S
N1133 S1131 1.610 . S
N1133 C1134 1.351 . S
C1134 C1128 1.428 . S
C1134 N1133 1.351 . S
C1134 C1135 1.434 . S
C1135 C1126 1.429 . S
C1135 N1132 1.350 . S
C1135 C1134 1.434 . S
C1136 C1137 1.369 1_455 S
C1136 C1138 1.419 . S
C1136 H1140 0.930 . S
C1137 C1136 1.369 1_655 S
C1137 C1146 1.429 . S
C1138 C1136 1.419 . S
C1138 C1139 1.351 1_455 S
C1138 H1141 0.929 . S
C1139 C1138 1.351 1_655 S
C1139 C1145 1.455 . S
H1140 C1136 0.930 . S
H1141 C1138 0.929 . S
S1142 N1143 1.613 . S
S1142 N1144 1.610 . S
N1143 S1142 1.613 . S
N1143 C1146 1.350 . S
N1144 S1142 1.610 . S
N1144 C1145 1.351 . S
C1145 C1139 1.455 . S
C1145 N1144 1.351 . S
C1145 C1146 1.434 . S
C1146 C1137 1.429 . S
C1146 N1143 1.350 . S
C1146 C1145 1.434 . S
C1147 C1148 1.369 . S
C1147 C1149 1.419 . S
C1147 H1151 0.930 . S
C1148 C1147 1.369 . S
C1148 C1157 1.429 . S
C1149 C1147 1.419 . S
C1149 C1150 1.363 . S
C1149 H1152 0.929 . S
C1150 C1149 1.363 . S
C1150 C1156 1.428 . S
H1151 C1147 0.930 . S
H1152 C1149 0.929 . S
S1153 N1154 1.613 . S
S1153 N1155 1.610 . S
N1154 S1153 1.613 . S
N1154 C1157 1.350 . S
N1155 S1153 1.610 . S
N1155 C1156 1.351 . S
C1156 C1150 1.428 . S
C1156 N1155 1.351 . S
C1156 C1157 1.434 . S
C1157 C1148 1.429 . S
C1157 N1154 1.350 . S
C1157 C1156 1.434 . S
C1158 C1159 1.369 . S
C1158 C1160 1.419 . S
C1158 H1162 0.930 . S
C1159 C1158 1.369 . S
C1159 C1168 1.429 . S
C1160 C1158 1.419 . S
C1160 C1161 1.363 . S
C1160 H1163 0.929 . S
C1161 C1160 1.363 . S
C1161 C1167 1.428 . S
H1162 C1158 0.930 . S
H1163 C1160 0.929 . S
S1164 N1165 1.613 . S
S1164 N1166 1.610 . S
N1165 S1164 1.613 . S
N1165 C1168 1.350 . S
N1166 S1164 1.610 . S
N1166 C1167 1.351 . S
C1167 C1161 1.428 . S
C1167 N1166 1.351 . S
C1167 C1168 1.434 . S
C1168 C1159 1.429 . S
C1168 N1165 1.350 . S
C1168 C1167 1.434 . S
C1169 C1170 1.369 . S
C1169 C1171 1.419 . S
C1169 H1173 0.930 . S
C1170 C1169 1.369 . S
C1170 C1179 1.429 . S
C1171 C1169 1.419 . S
C1171 C1172 1.363 . S
C1171 H1174 0.929 . S
C1172 C1171 1.363 . S
C1172 C1178 1.428 . S
H1173 C1169 0.930 . S
H1174 C1171 0.929 . S
S1175 N1176 1.613 . S
S1175 N1177 1.610 . S
N1176 S1175 1.613 . S
N1176 C1179 1.350 . S
N1177 S1175 1.610 . S
N1177 C1178 1.351 . S
C1178 C1172 1.428 . S
C1178 N1177 1.351 . S
C1178 C1179 1.434 . S
C1179 C1170 1.429 . S
C1179 N1176 1.350 . S
C1179 C1178 1.434 . S
C1180 C1181 1.369 . S
C1180 C1182 1.419 . S
C1180 H1184 0.930 . S
C1181 C1180 1.369 . S
C1181 C1190 1.429 . S
C1182 C1180 1.419 . S
C1182 C1183 1.363 . S
C1182 H1185 0.929 . S
C1183 C1182 1.363 . S
C1183 C1189 1.428 . S
H1184 C1180 0.930 . S
H1185 C1182 0.929 . S
S1186 N1187 1.613 . S
S1186 N1188 1.610 . S
N1187 S1186 1.613 . S
N1187 C1190 1.350 . S
N1188 S1186 1.610 . S
N1188 C1189 1.351 . S
C1189 C1183 1.428 . S
C1189 N1188 1.351 . S
C1189 C1190 1.434 . S
C1190 C1181 1.429 . S
C1190 N1187 1.350 . S
C1190 C1189 1.434 . S
C1191 C1192 1.369 . S
C1191 C1193 1.419 . S
C1191 H1195 0.930 . S
C1192 C1191 1.369 . S
C1192 C1201 1.429 . S
C1193 C1191 1.419 . S
C1193 C1194 1.363 . S
C1193 H1196 0.929 . S
C1194 C1193 1.363 . S
C1194 C1200 1.428 . S
H1195 C1191 0.930 . S
H1196 C1193 0.929 . S
S1197 N1198 1.613 . S
S1197 N1199 1.610 . S
N1198 S1197 1.613 . S
N1198 C1201 1.350 . S
N1199 S1197 1.610 . S
N1199 C1200 1.351 . S
C1200 C1194 1.428 . S
C1200 N1199 1.351 . S
C1200 C1201 1.434 . S
C1201 C1192 1.429 . S
C1201 N1198 1.350 . S
C1201 C1200 1.434 . S
C1202 C1203 1.369 . S
C1202 C1204 1.419 . S
C1202 H1206 0.930 . S
C1203 C1202 1.369 . S
C1203 C1212 1.429 . S
C1204 C1202 1.419 . S
C1204 C1205 1.363 . S
C1204 H1207 0.929 . S
C1205 C1204 1.363 . S
C1205 C1211 1.428 . S
H1206 C1202 0.930 . S
H1207 C1204 0.929 . S
S1208 N1209 1.613 . S
S1208 N1210 1.610 . S
N1209 S1208 1.613 . S
N1209 C1212 1.350 . S
N1210 S1208 1.610 . S
N1210 C1211 1.351 . S
C1211 C1205 1.428 . S
C1211 N1210 1.351 . S
C1211 C1212 1.434 . S
C1212 C1203 1.429 . S
C1212 N1209 1.350 . S
C1212 C1211 1.434 . S
C1213 C1214 1.369 . S
C1213 C1215 1.419 . S
C1213 H1217 0.930 . S
C1214 C1213 1.369 . S
C1214 C1223 1.429 . S
C1215 C1213 1.419 . S
C1215 C1216 1.363 . S
C1215 H1218 0.929 . S
C1216 C1215 1.363 . S
C1216 C1222 1.428 . S
H1217 C1213 0.930 . S
H1218 C1215 0.929 . S
S1219 N1220 1.613 . S
S1219 N1221 1.610 . S
N1220 S1219 1.613 . S
N1220 C1223 1.350 . S
N1221 S1219 1.610 . S
N1221 C1222 1.351 . S
C1222 C1216 1.428 . S
C1222 N1221 1.351 . S
C1222 C1223 1.434 . S
C1223 C1214 1.429 . S
C1223 N1220 1.350 . S
C1223 C1222 1.434 . S
C1224 C1225 1.369 . S
C1224 C1226 1.419 . S
C1224 H1228 0.930 . S
C1225 C1224 1.369 . S
C1225 C1234 1.429 . S
C1226 C1224 1.419 . S
C1226 C1227 1.363 . S
C1226 H1229 0.929 . S
C1227 C1226 1.363 . S
C1227 C1233 1.428 . S
H1228 C1224 0.930 . S
H1229 C1226 0.929 . S
S1230 N1231 1.613 . S
S1230 N1232 1.610 . S
N1231 S1230 1.613 . S
N1231 C1234 1.350 . S
N1232 S1230 1.610 . S
N1232 C1233 1.351 . S
C1233 C1227 1.428 . S
C1233 N1232 1.351 . S
C1233 C1234 1.434 . S
C1234 C1225 1.429 . S
C1234 N1231 1.350 . S
C1234 C1233 1.434 . S
C1235 C1236 1.369 . S
C1235 C1237 1.419 . S
C1235 H1239 0.930 . S
C1236 C1235 1.369 . S
C1236 C1245 1.429 . S
C1237 C1235 1.419 . S
C1237 C1238 1.363 . S
C1237 H1240 0.929 . S
C1238 C1237 1.363 . S
C1238 C1244 1.428 . S
H1239 C1235 0.930 . S
H1240 C1237 0.929 . S
S1241 N1242 1.613 . S
S1241 N1243 1.610 . S
N1242 S1241 1.613 . S
N1242 C1245 1.350 . S
N1243 S1241 1.610 . S
N1243 C1244 1.351 . S
C1244 C1238 1.428 . S
C1244 N1243 1.351 . S
C1244 C1245 1.434 . S
C1245 C1236 1.429 . S
C1245 N1242 1.350 . S
C1245 C1244 1.434 . S
C1246 C1247 1.369 . S
C1246 C1248 1.419 . S
C1246 H1250 0.930 . S
C1247 C1246 1.369 . S
C1247 C1256 1.429 . S
C1248 C1246 1.419 . S
C1248 C1249 1.363 . S
C1248 H1251 0.929 . S
C1249 C1248 1.363 . S
C1249 C1255 1.428 . S
H1250 C1246 0.930 . S
H1251 C1248 0.929 . S
S1252 N1253 1.613 . S
S1252 N1254 1.610 . S
N1253 S1252 1.613 . S
N1253 C1256 1.350 . S
N1254 S1252 1.610 . S
N1254 C1255 1.351 . S
C1255 C1249 1.428 . S
C1255 N1254 1.351 . S
C1255 C1256 1.434 . S
C1256 C1247 1.429 . S
C1256 N1253 1.350 . S
C1256 C1255 1.434 . S
C1257 C1258 1.369 . S
C1257 C1259 1.419 . S
C1257 H1261 0.930 . S
C1258 C1257 1.369 . S
C1258 C1267 1.429 . S
C1259 C1257 1.419 . S
C1259 C1260 1.363 . S
C1259 H1262 0.929 . S
C1260 C1259 1.363 . S
C1260 C1266 1.428 . S
H1261 C1257 0.930 . S
H1262 C1259 0.929 . S
S1263 N1264 1.613 . S
S1263 N1265 1.610 . S
N1264 S1263 1.613 . S
N1264 C1267 1.350 . S
N1265 S1263 1.610 . S
N1265 C1266 1.351 . S
C1266 C1260 1.428 . S
C1266 N1265 1.351 . S
C1266 C1267 1.434 . S
C1267 C1258 1.429 . S
C1267 N1264 1.350 . S
C1267 C1266 1.434 . S
C1268 C1269 1.369 . S
C1268 C1270 1.419 . S
C1268 H1272 0.930 . S
C1269 C1268 1.369 . S
C1269 C1278 1.429 . S
C1270 C1268 1.419 . S
C1270 C1271 1.363 . S
C1270 H1273 0.929 . S
C1271 C1270 1.363 . S
C1271 C1277 1.428 . S
H1272 C1268 0.930 . S
H1273 C1270 0.929 . S
S1274 N1275 1.613 . S
S1274 N1276 1.610 . S
N1275 S1274 1.613 . S
N1275 C1278 1.350 . S
N1276 S1274 1.610 . S
N1276 C1277 1.351 . S
C1277 C1271 1.428 . S
C1277 N1276 1.351 . S
C1277 C1278 1.434 . S
C1278 C1269 1.429 . S
C1278 N1275 1.350 . S
C1278 C1277 1.434 . S
C1279 C1280 1.369 . S
C1279 C1281 1.419 . S
C1279 H1283 0.930 . S
C1280 C1279 1.369 . S
C1280 C1289 1.429 . S
C1281 C1279 1.419 . S
C1281 C1282 1.363 . S
C1281 H1284 0.929 . S
C1282 C1281 1.363 . S
C1282 C1288 1.428 . S
H1283 C1279 0.930 . S
H1284 C1281 0.929 . S
S1285 N1286 1.613 . S
S1285 N1287 1.610 . S
N1286 S1285 1.613 . S
N1286 C1289 1.350 . S
N1287 S1285 1.610 . S
N1287 C1288 1.351 . S
C1288 C1282 1.428 . S
C1288 N1287 1.351 . S
C1288 C1289 1.434 . S
C1289 C1280 1.429 . S
C1289 N1286 1.350 . S
C1289 C1288 1.434 . S
C1290 C1291 1.369 . S
C1290 C1292 1.419 . S
C1290 H1294 0.930 . S
C1291 C1290 1.369 . S
C1291 C1300 1.429 . S
C1292 C1290 1.419 . S
C1292 C1293 1.363 . S
C1292 H1295 0.929 . S
C1293 C1292 1.363 . S
C1293 C1299 1.428 . S
H1294 C1290 0.930 . S
H1295 C1292 0.929 . S
S1296 N1297 1.613 . S
S1296 N1298 1.610 . S
N1297 S1296 1.613 . S
N1297 C1300 1.350 . S
N1298 S1296 1.610 . S
N1298 C1299 1.351 . S
C1299 C1293 1.428 . S
C1299 N1298 1.351 . S
C1299 C1300 1.434 . S
C1300 C1291 1.429 . S
C1300 N1297 1.350 . S
C1300 C1299 1.434 . S
C1301 C1302 1.369 . S
C1301 C1303 1.419 . S
C1301 H1305 0.930 . S
C1302 C1301 1.369 . S
C1302 C1311 1.429 . S
C1303 C1301 1.419 . S
C1303 C1304 1.363 . S
C1303 H1306 0.929 . S
C1304 C1303 1.363 . S
C1304 C1310 1.428 . S
H1305 C1301 0.930 . S
H1306 C1303 0.929 . S
S1307 N1308 1.613 . S
S1307 N1309 1.610 . S
N1308 S1307 1.613 . S
N1308 C1311 1.350 . S
N1309 S1307 1.610 . S
N1309 C1310 1.351 . S
C1310 C1304 1.428 . S
C1310 N1309 1.351 . S
C1310 C1311 1.434 . S
C1311 C1302 1.429 . S
C1311 N1308 1.350 . S
C1311 C1310 1.434 . S
C1312 C1313 1.369 . S
C1312 C1314 1.419 . S
C1312 H1316 0.930 . S
C1313 C1312 1.369 . S
C1313 C1322 1.429 . S
C1314 C1312 1.419 . S
C1314 C1315 1.363 . S
C1314 H1317 0.929 . S
C1315 C1314 1.363 . S
C1315 C1321 1.428 . S
H1316 C1312 0.930 . S
H1317 C1314 0.929 . S
S1318 N1319 1.613 . S
S1318 N1320 1.610 . S
N1319 S1318 1.613 . S
N1319 C1322 1.350 . S
N1320 S1318 1.610 . S
N1320 C1321 1.351 . S
C1321 C1315 1.428 . S
C1321 N1320 1.351 . S
C1321 C1322 1.434 . S
C1322 C1313 1.429 . S
C1322 N1319 1.350 . S
C1322 C1321 1.434 . S
C1323 C1324 1.369 . S
C1323 C1325 1.419 . S
C1323 H1327 0.930 . S
C1324 C1323 1.369 . S
C1324 C1333 1.429 . S
C1325 C1323 1.419 . S
C1325 C1326 1.363 . S
C1325 H1328 0.929 . S
C1326 C1325 1.363 . S
C1326 C1332 1.428 . S
H1327 C1323 0.930 . S
H1328 C1325 0.929 . S
S1329 N1330 1.613 . S
S1329 N1331 1.610 . S
N1330 S1329 1.613 . S
N1330 C1333 1.350 . S
N1331 S1329 1.610 . S
N1331 C1332 1.351 . S
C1332 C1326 1.428 . S
C1332 N1331 1.351 . S
C1332 C1333 1.434 . S
C1333 C1324 1.429 . S
C1333 N1330 1.350 . S
C1333 C1332 1.434 . S
C1334 C1335 1.369 . S
C1334 C1336 1.419 . S
C1334 H1338 0.930 . S
C1335 C1334 1.369 . S
C1335 C1344 1.429 . S
C1336 C1334 1.419 . S
C1336 C1337 1.363 . S
C1336 H1339 0.929 . S
C1337 C1336 1.363 . S
C1337 C1343 1.428 . S
H1338 C1334 0.930 . S
H1339 C1336 0.929 . S
S1340 N1341 1.613 . S
S1340 N1342 1.610 . S
N1341 S1340 1.613 . S
N1341 C1344 1.350 . S
N1342 S1340 1.610 . S
N1342 C1343 1.351 . S
C1343 C1337 1.428 . S
C1343 N1342 1.351 . S
C1343 C1344 1.434 . S
C1344 C1335 1.429 . S
C1344 N1341 1.350 . S
C1344 C1343 1.434 . S
C1345 C1346 1.369 . S
C1345 C1347 1.419 . S
C1345 H1349 0.930 . S
C1346 C1345 1.369 . S
C1346 C1355 1.429 . S
C1347 C1345 1.419 . S
C1347 C1348 1.363 . S
C1347 H1350 0.929 . S
C1348 C1347 1.363 . S
C1348 C1354 1.428 . S
H1349 C1345 0.930 . S
H1350 C1347 0.929 . S
S1351 N1352 1.613 . S
S1351 N1353 1.610 . S
N1352 S1351 1.613 . S
N1352 C1355 1.350 . S
N1353 S1351 1.610 . S
N1353 C1354 1.351 . S
C1354 C1348 1.428 . S
C1354 N1353 1.351 . S
C1354 C1355 1.434 . S
C1355 C1346 1.429 . S
C1355 N1352 1.350 . S
C1355 C1354 1.434 . S
C1356 C1357 1.369 . S
C1356 C1358 1.419 . S
C1356 H1360 0.930 . S
C1357 C1356 1.369 . S
C1357 C1366 1.429 . S
C1358 C1356 1.419 . S
C1358 C1359 1.363 . S
C1358 H1361 0.929 . S
C1359 C1358 1.363 . S
C1359 C1365 1.428 . S
H1360 C1356 0.930 . S
H1361 C1358 0.929 . S
S1362 N1363 1.613 . S
S1362 N1364 1.610 . S
N1363 S1362 1.613 . S
N1363 C1366 1.350 . S
N1364 S1362 1.610 . S
N1364 C1365 1.351 . S
C1365 C1359 1.428 . S
C1365 N1364 1.351 . S
C1365 C1366 1.434 . S
C1366 C1357 1.429 . S
C1366 N1363 1.350 . S
C1366 C1365 1.434 . S
C1367 C1368 1.369 . S
C1367 C1369 1.419 . S
C1367 H1371 0.930 . S
C1368 C1367 1.369 . S
C1368 C1377 1.429 . S
C1369 C1367 1.419 . S
C1369 C1370 1.363 . S
C1369 H1372 0.929 . S
C1370 C1369 1.363 . S
C1370 C1376 1.428 . S
H1371 C1367 0.930 . S
H1372 C1369 0.929 . S
S1373 N1374 1.613 . S
S1373 N1375 1.610 . S
N1374 S1373 1.613 . S
N1374 C1377 1.350 . S
N1375 S1373 1.610 . S
N1375 C1376 1.351 . S
C1376 C1370 1.428 . S
C1376 N1375 1.351 . S
C1376 C1377 1.434 . S
C1377 C1368 1.429 . S
C1377 N1374 1.350 . S
C1377 C1376 1.434 . S
C1378 C1379 1.369 . S
C1378 C1380 1.419 . S
C1378 H1382 0.930 . S
C1379 C1378 1.369 . S
C1379 C1388 1.429 . S
C1380 C1378 1.419 . S
C1380 C1381 1.363 . S
C1380 H1383 0.929 . S
C1381 C1380 1.363 . S
C1381 C1387 1.428 . S
H1382 C1378 0.930 . S
H1383 C1380 0.929 . S
S1384 N1385 1.613 . S
S1384 N1386 1.610 . S
N1385 S1384 1.613 . S
N1385 C1388 1.350 . S
N1386 S1384 1.610 . S
N1386 C1387 1.351 . S
C1387 C1381 1.428 . S
C1387 N1386 1.351 . S
C1387 C1388 1.434 . S
C1388 C1379 1.429 . S
C1388 N1385 1.350 . S
C1388 C1387 1.434 . S
C1389 C1390 1.369 . S
C1389 C1391 1.419 . S
C1389 H1393 0.930 . S
C1390 C1389 1.369 . S
C1390 C1399 1.429 . S
C1391 C1389 1.419 . S
C1391 C1392 1.363 . S
C1391 H1394 0.929 . S
C1392 C1391 1.363 . S
C1392 C1398 1.428 . S
H1393 C1389 0.930 . S
H1394 C1391 0.929 . S
S1395 N1396 1.613 . S
S1395 N1397 1.610 . S
N1396 S1395 1.613 . S
N1396 C1399 1.350 . S
N1397 S1395 1.610 . S
N1397 C1398 1.351 . S
C1398 C1392 1.428 . S
C1398 N1397 1.351 . S
C1398 C1399 1.434 . S
C1399 C1390 1.429 . S
C1399 N1396 1.350 . S
C1399 C1398 1.434 . S
C1400 C1401 1.369 . S
C1400 C1402 1.419 . S
C1400 H1404 0.930 . S
C1401 C1400 1.369 . S
C1401 C1410 1.429 . S
C1402 C1400 1.419 . S
C1402 C1403 1.363 . S
C1402 H1405 0.929 . S
C1403 C1402 1.363 . S
C1403 C1409 1.428 . S
H1404 C1400 0.930 . S
H1405 C1402 0.929 . S
S1406 N1407 1.613 . S
S1406 N1408 1.610 . S
N1407 S1406 1.613 . S
N1407 C1410 1.350 . S
N1408 S1406 1.610 . S
N1408 C1409 1.351 . S
C1409 C1403 1.428 . S
C1409 N1408 1.351 . S
C1409 C1410 1.434 . S
C1410 C1401 1.429 . S
C1410 N1407 1.350 . S
C1410 C1409 1.434 . S
C1411 C1412 1.369 . S
C1411 C1413 1.419 . S
C1411 H1415 0.930 . S
C1412 C1411 1.369 . S
C1412 C1421 1.429 . S
C1413 C1411 1.419 . S
C1413 C1414 1.363 . S
C1413 H1416 0.929 . S
C1414 C1413 1.363 . S
C1414 C1420 1.428 . S
H1415 C1411 0.930 . S
H1416 C1413 0.929 . S
S1417 N1418 1.613 . S
S1417 N1419 1.610 . S
N1418 S1417 1.613 . S
N1418 C1421 1.350 . S
N1419 S1417 1.610 . S
N1419 C1420 1.351 . S
C1420 C1414 1.428 . S
C1420 N1419 1.351 . S
C1420 C1421 1.434 . S
C1421 C1412 1.429 . S
C1421 N1418 1.350 . S
C1421 C1420 1.434 . S
C1422 C1423 1.369 . S
C1422 C1424 1.419 . S
C1422 H1426 0.930 . S
C1423 C1422 1.369 . S
C1423 C1432 1.429 . S
C1424 C1422 1.419 . S
C1424 C1425 1.363 . S
C1424 H1427 0.929 . S
C1425 C1424 1.363 . S
C1425 C1431 1.428 . S
H1426 C1422 0.930 . S
H1427 C1424 0.929 . S
S1428 N1429 1.613 . S
S1428 N1430 1.610 . S
N1429 S1428 1.613 . S
N1429 C1432 1.350 . S
N1430 S1428 1.610 . S
N1430 C1431 1.351 . S
C1431 C1425 1.428 . S
C1431 N1430 1.351 . S
C1431 C1432 1.434 . S
C1432 C1423 1.429 . S
C1432 N1429 1.350 . S
C1432 C1431 1.434 . S
C1433 C1434 1.369 . S
C1433 C1435 1.419 . S
C1433 H1437 0.930 . S
C1434 C1433 1.369 . S
C1434 C1443 1.429 . S
C1435 C1433 1.419 . S
C1435 C1436 1.363 . S
C1435 H1438 0.929 . S
C1436 C1435 1.363 . S
C1436 C1442 1.428 . S
H1437 C1433 0.930 . S
H1438 C1435 0.929 . S
S1439 N1440 1.613 . S
S1439 N1441 1.610 . S
N1440 S1439 1.613 . S
N1440 C1443 1.350 . S
N1441 S1439 1.610 . S
N1441 C1442 1.351 . S
C1442 C1436 1.428 . S
C1442 N1441 1.351 . S
C1442 C1443 1.434 . S
C1443 C1434 1.429 . S
C1443 N1440 1.350 . S
C1443 C1442 1.434 . S
C1444 C1445 1.369 . S
C1444 C1446 1.419 . S
C1444 H1448 0.930 . S
C1445 C1444 1.369 . S
C1445 C1454 1.429 . S
C1446 C1444 1.419 . S
C1446 C1447 1.363 . S
C1446 H1449 0.929 . S
C1447 C1446 1.363 . S
C1447 C1453 1.428 . S
H1448 C1444 0.930 . S
H1449 C1446 0.929 . S
S1450 N1451 1.613 . S
S1450 N1452 1.610 . S
N1451 S1450 1.613 . S
N1451 C1454 1.350 . S
N1452 S1450 1.610 . S
N1452 C1453 1.351 . S
C1453 C1447 1.428 . S
C1453 N1452 1.351 . S
C1453 C1454 1.434 . S
C1454 C1445 1.429 . S
C1454 N1451 1.350 . S
C1454 C1453 1.434 . S
C1455 C1456 1.369 . S
C1455 C1457 1.419 . S
C1455 H1459 0.930 . S
C1456 C1455 1.369 . S
C1456 C1465 1.429 . S
C1457 C1455 1.419 . S
C1457 C1458 1.363 . S
C1457 H1460 0.929 . S
C1458 C1457 1.363 . S
C1458 C1464 1.428 . S
H1459 C1455 0.930 . S
H1460 C1457 0.929 . S
S1461 N1462 1.613 . S
S1461 N1463 1.610 . S
N1462 S1461 1.613 . S
N1462 C1465 1.350 1_554 S
N1463 S1461 1.610 . S
N1463 C1464 1.351 1_554 S
C1464 C1458 1.428 . S
C1464 N1463 1.351 1_556 S
C1464 C1465 1.434 . S
C1465 C1456 1.429 . S
C1465 N1462 1.350 1_556 S
C1465 C1464 1.434 . S
C1466 C1467 1.369 . S
C1466 C1468 1.419 . S
C1466 H1470 0.930 1_556 S
C1467 C1466 1.369 . S
C1467 C1476 1.429 . S
C1468 C1466 1.419 . S
C1468 C1469 1.363 . S
C1468 H1471 0.929 . S
C1469 C1468 1.363 . S
C1469 C1475 1.428 . S
H1470 C1466 0.930 1_554 S
H1471 C1468 0.929 . S
S1472 N1473 1.613 . S
S1472 N1474 1.610 . S
N1473 S1472 1.613 . S
N1473 C1476 1.350 . S
N1474 S1472 1.610 . S
N1474 C1475 1.351 . S
C1475 C1469 1.428 . S
C1475 N1474 1.351 . S
C1475 C1476 1.434 . S
C1476 C1467 1.429 . S
C1476 N1473 1.350 . S
C1476 C1475 1.434 . S
C1477 C1478 1.369 . S
C1477 C1479 1.419 . S
C1477 H1481 0.930 . S
C1478 C1477 1.369 . S
C1478 C1487 1.429 . S
C1479 C1477 1.419 . S
C1479 C1480 1.363 . S
C1479 H1482 0.929 . S
C1480 C1479 1.363 . S
C1480 C1486 1.428 . S
H1481 C1477 0.930 . S
H1482 C1479 0.929 . S
S1483 N1484 1.613 . S
S1483 N1485 1.610 . S
N1484 S1483 1.613 . S
N1484 C1487 1.350 . S
N1485 S1483 1.610 . S
N1485 C1486 1.351 . S
C1486 C1480 1.428 . S
C1486 N1485 1.351 . S
C1486 C1487 1.434 . S
C1487 C1478 1.429 . S
C1487 N1484 1.350 . S
C1487 C1486 1.434 . S
C1488 C1489 1.369 . S
C1488 C1490 1.419 . S
C1488 H1492 0.930 . S
C1489 C1488 1.369 . S
C1489 C1498 1.429 . S
C1490 C1488 1.419 . S
C1490 C1491 1.363 . S
C1490 H1493 0.929 . S
C1491 C1490 1.363 . S
C1491 C1497 1.428 . S
H1492 C1488 0.930 . S
H1493 C1490 0.929 . S
S1494 N1495 1.613 . S
S1494 N1496 1.610 1_554 S
N1495 S1494 1.613 . S
N1495 C1498 1.350 1_554 S
N1496 S1494 1.610 1_556 S
N1496 C1497 1.351 . S
C1497 C1491 1.428 . S
C1497 N1496 1.351 . S
C1497 C1498 1.434 . S
C1498 C1489 1.429 . S
C1498 N1495 1.350 1_556 S
C1498 C1497 1.434 . S
C1499 C1500 1.369 . S
C1499 C1501 1.419 . S
C1499 H1503 0.930 . S
C1500 C1499 1.369 . S
C1500 C1509 1.429 . S
C1501 C1499 1.419 . S
C1501 C1502 1.363 . S
C1501 H1504 0.929 . S
C1502 C1501 1.363 . S
C1502 C1508 1.428 . S
H1503 C1499 0.930 . S
H1504 C1501 0.929 . S
S1505 N1506 1.613 . S
S1505 N1507 1.610 . S
N1506 S1505 1.613 . S
N1506 C1509 1.350 . S
N1507 S1505 1.610 . S
N1507 C1508 1.351 . S
C1508 C1502 1.428 . S
C1508 N1507 1.351 . S
C1508 C1509 1.434 . S
C1509 C1500 1.429 . S
C1509 N1506 1.350 . S
C1509 C1508 1.434 . S
C1510 C1511 1.369 . S
C1510 C1512 1.419 . S
C1510 H1514 0.930 . S
C1511 C1510 1.369 . S
C1511 C1520 1.429 . S
C1512 C1510 1.419 . S
C1512 C1513 1.363 . S
C1512 H1515 0.929 . S
C1513 C1512 1.363 . S
C1513 C1519 1.428 . S
H1514 C1510 0.930 . S
H1515 C1512 0.929 . S
S1516 N1517 1.613 . S
S1516 N1518 1.610 1_554 S
N1517 S1516 1.613 . S
N1517 C1520 1.350 1_554 S
N1518 S1516 1.610 1_556 S
N1518 C1519 1.351 . S
C1519 C1513 1.428 . S
C1519 N1518 1.351 . S
C1519 C1520 1.434 . S
C1520 C1511 1.429 . S
C1520 N1517 1.350 1_556 S
C1520 C1519 1.434 . S
C1521 C1522 1.369 . S
C1521 C1523 1.419 . S
C1521 H1525 0.930 . S
C1522 C1521 1.369 . S
C1522 C1531 1.429 . S
C1523 C1521 1.419 . S
C1523 C1524 1.363 . S
C1523 H1526 0.929 . S
C1524 C1523 1.363 . S
C1524 C1530 1.428 . S
H1525 C1521 0.930 . S
H1526 C1523 0.929 . S
S1527 N1528 1.613 . S
S1527 N1529 1.610 . S
N1528 S1527 1.613 . S
N1528 C1531 1.350 . S
N1529 S1527 1.610 . S
N1529 C1530 1.351 . S
C1530 C1524 1.428 . S
C1530 N1529 1.351 . S
C1530 C1531 1.434 . S
C1531 C1522 1.429 . S
C1531 N1528 1.350 . S
C1531 C1530 1.434 . S
C1532 C1533 1.369 . S
C1532 C1534 1.419 . S
C1532 H1536 0.930 . S
C1533 C1532 1.369 . S
C1533 C1542 1.429 . S
C1534 C1532 1.419 . S
C1534 C1535 1.363 . S
C1534 H1537 0.929 . S
C1535 C1534 1.363 . S
C1535 C1541 1.428 . S
H1536 C1532 0.930 . S
H1537 C1534 0.929 . S
S1538 N1539 1.613 . S
S1538 N1540 1.610 . S
N1539 S1538 1.613 . S
N1539 C1542 1.350 . S
N1540 S1538 1.610 . S
N1540 C1541 1.351 . S
C1541 C1535 1.428 . S
C1541 N1540 1.351 . S
C1541 C1542 1.434 . S
C1542 C1533 1.429 . S
C1542 N1539 1.350 . S
C1542 C1541 1.434 . S
C1543 C1544 1.369 . S
C1543 C1545 1.419 . S
C1543 H1547 0.930 . S
C1544 C1543 1.369 . S
C1544 C1553 1.429 . S
C1545 C1543 1.419 . S
C1545 C1546 1.363 . S
C1545 H1548 0.929 . S
C1546 C1545 1.363 . S
C1546 C1552 1.428 . S
H1547 C1543 0.930 . S
H1548 C1545 0.929 . S
S1549 N1550 1.613 . S
S1549 N1551 1.610 1_556 S
N1550 S1549 1.613 . S
N1550 C1553 1.350 1_556 S
N1551 S1549 1.610 1_554 S
N1551 C1552 1.351 . S
C1552 C1546 1.428 . S
C1552 N1551 1.351 . S
C1552 C1553 1.434 . S
C1553 C1544 1.429 . S
C1553 N1550 1.350 1_554 S
C1553 C1552 1.434 . S
C1554 C1555 1.369 . S
C1554 C1556 1.419 . S
C1554 H1558 0.930 . S
C1555 C1554 1.369 . S
C1555 C1564 1.429 . S
C1556 C1554 1.419 . S
C1556 C1557 1.363 . S
C1556 H1559 0.929 . S
C1557 C1556 1.363 . S
C1557 C1563 1.428 . S
H1558 C1554 0.930 . S
H1559 C1556 0.929 . S
S1560 N1561 1.613 . S
S1560 N1562 1.610 . S
N1561 S1560 1.613 . S
N1561 C1564 1.350 . S
N1562 S1560 1.610 . S
N1562 C1563 1.351 . S
C1563 C1557 1.428 . S
C1563 N1562 1.351 . S
C1563 C1564 1.434 . S
C1564 C1555 1.429 . S
C1564 N1561 1.350 . S
C1564 C1563 1.434 . S
C1565 C1566 1.369 . S
C1565 C1567 1.419 . S
C1565 H1569 0.930 . S
C1566 C1565 1.369 . S
C1566 C1575 1.429 . S
C1567 C1565 1.419 . S
C1567 C1568 1.363 . S
C1567 H1570 0.929 . S
C1568 C1567 1.363 . S
C1568 C1574 1.428 . S
H1569 C1565 0.930 . S
H1570 C1567 0.929 . S
S1571 N1572 1.613 . S
S1571 N1573 1.610 . S
N1572 S1571 1.613 . S
N1572 C1575 1.350 . S
N1573 S1571 1.610 . S
N1573 C1574 1.351 . S
C1574 C1568 1.428 . S
C1574 N1573 1.351 . S
C1574 C1575 1.434 . S
C1575 C1566 1.429 . S
C1575 N1572 1.350 . S
C1575 C1574 1.434 . S
C1576 C1577 1.369 . S
C1576 C1578 1.419 . S
C1576 H1580 0.930 . S
C1577 C1576 1.369 . S
C1577 C1586 1.429 . S
C1578 C1576 1.419 . S
C1578 C1579 1.363 . S
C1578 H1581 0.929 . S
C1579 C1578 1.363 . S
C1579 C1585 1.428 . S
H1580 C1576 0.930 . S
H1581 C1578 0.929 . S
S1582 N1583 1.613 . S
S1582 N1584 1.610 . S
N1583 S1582 1.613 . S
N1583 C1586 1.350 . S
N1584 S1582 1.610 . S
N1584 C1585 1.351 . S
C1585 C1579 1.428 . S
C1585 N1584 1.351 . S
C1585 C1586 1.434 . S
C1586 C1577 1.429 . S
C1586 N1583 1.350 . S
C1586 C1585 1.434 . S
C1587 C1588 1.369 1_655 S
C1587 C1589 1.419 . S
C1587 H1591 0.930 . S
C1588 C1587 1.369 1_455 S
C1588 C1597 1.429 . S
C1589 C1587 1.419 . S
C1589 C1590 1.363 1_655 S
C1589 H1592 0.929 . S
C1590 C1589 1.363 1_455 S
C1590 C1596 1.428 . S
H1591 C1587 0.930 . S
H1592 C1589 0.929 . S
S1593 N1594 1.613 . S
S1593 N1595 1.610 . S
N1594 S1593 1.613 . S
N1594 C1597 1.350 . S
N1595 S1593 1.610 . S
N1595 C1596 1.351 . S
C1596 C1590 1.428 . S
C1596 N1595 1.351 . S
C1596 C1597 1.434 . S
C1597 C1588 1.429 . S
C1597 N1594 1.350 . S
C1597 C1596 1.434 . S
C1598 C1599 1.369 . S
C1598 C1600 1.419 . S
C1598 H1602 0.930 . S
C1599 C1598 1.369 . S
C1599 C1608 1.429 . S
C1600 C1598 1.419 . S
C1600 C1601 1.363 . S
C1600 H1603 0.929 . S
C1601 C1600 1.363 . S
C1601 C1607 1.428 . S
H1602 C1598 0.930 . S
H1603 C1600 0.929 . S
S1604 N1605 1.613 . S
S1604 N1606 1.610 . S
N1605 S1604 1.613 . S
N1605 C1608 1.350 . S
N1606 S1604 1.610 . S
N1606 C1607 1.351 . S
C1607 C1601 1.428 . S
C1607 N1606 1.351 . S
C1607 C1608 1.434 . S
C1608 C1599 1.429 . S
C1608 N1605 1.350 . S
C1608 C1607 1.434 . S
C1609 C1610 1.369 1_545 S
C1609 C1611 1.419 . S
C1609 H1613 0.930 . S
C1610 C1609 1.369 1_565 S
C1610 C1619 1.429 . S
C1611 C1609 1.419 . S
C1611 C1612 1.363 1_545 S
C1611 H1614 0.929 . S
C1612 C1611 1.363 1_565 S
C1612 C1618 1.428 . S
H1613 C1609 0.930 . S
H1614 C1611 0.929 . S
S1615 N1616 1.613 . S
S1615 N1617 1.610 . S
N1616 S1615 1.613 . S
N1616 C1619 1.350 . S
N1617 S1615 1.610 . S
N1617 C1618 1.351 . S
C1618 C1612 1.428 . S
C1618 N1617 1.351 . S
C1618 C1619 1.434 . S
C1619 C1610 1.429 . S
C1619 N1616 1.350 . S
C1619 C1618 1.434 . S
C1620 C1621 1.369 . S
C1620 C1622 1.419 . S
C1620 H1624 0.930 . S
C1621 C1620 1.369 . S
C1621 C1630 1.429 1_565 S
C1622 C1620 1.419 . S
C1622 C1623 1.363 . S
C1622 H1625 0.929 . S
C1623 C1622 1.363 . S
C1623 C1629 1.428 1_565 S
H1624 C1620 0.930 . S
H1625 C1622 0.929 . S
S1626 N1627 1.613 . S
S1626 N1628 1.610 . S
N1627 S1626 1.613 . S
N1627 C1630 1.350 . S
N1628 S1626 1.610 . S
N1628 C1629 1.351 . S
C1629 C1623 1.428 1_545 S
C1629 N1628 1.351 . S
C1629 C1630 1.434 . S
C1630 C1621 1.429 1_545 S
C1630 N1627 1.350 . S
C1630 C1629 1.434 . S
C1631 C1632 1.369 . S
C1631 C1633 1.419 . S
C1631 H1635 0.953 . S
C1632 C1631 1.369 . S
C1632 C1641 1.429 . S
C1633 C1631 1.419 . S
C1633 C1634 1.363 . S
C1633 H1636 0.929 1_455 S
C1634 C1633 1.363 . S
C1634 C1640 1.428 . S
H1635 C1631 0.953 . S
H1636 C1633 0.929 1_655 S
S1637 N1638 1.613 . S
S1637 N1639 1.610 . S
N1638 S1637 1.613 . S
N1638 C1641 1.350 . S
N1639 S1637 1.610 . S
N1639 C1640 1.351 . S
C1640 C1634 1.428 . S
C1640 N1639 1.351 . S
C1640 C1641 1.434 . S
C1641 C1632 1.429 . S
C1641 N1638 1.350 . S
C1641 C1640 1.434 . S
C1642 C1643 1.369 . S
C1642 C1644 1.419 . S
C1642 H1646 0.930 . S
C1643 C1642 1.369 . S
C1643 C1652 1.429 . S
C1644 C1642 1.419 . S
C1644 C1645 1.363 . S
C1644 H1647 0.929 . S
C1645 C1644 1.363 . S
C1645 C1651 1.428 . S
H1646 C1642 0.930 . S
H1647 C1644 0.929 . S
S1648 N1649 1.613 . S
S1648 N1650 1.610 . S
N1649 S1648 1.613 . S
N1649 C1652 1.350 . S
N1650 S1648 1.610 . S
N1650 C1651 1.351 . S
C1651 C1645 1.428 . S
C1651 N1650 1.351 . S
C1651 C1652 1.434 . S
C1652 C1643 1.429 . S
C1652 N1649 1.350 . S
C1652 C1651 1.434 . S
C1653 C1654 1.369 . S
C1653 C1655 1.419 . S
C1653 H1657 0.930 . S
C1654 C1653 1.369 . S
C1654 C1663 1.429 . S
C1655 C1653 1.419 . S
C1655 C1656 1.363 . S
C1655 H1658 0.929 . S
C1656 C1655 1.363 . S
C1656 C1662 1.428 . S
H1657 C1653 0.930 . S
H1658 C1655 0.929 . S
S1659 N1660 1.613 . S
S1659 N1661 1.610 . S
N1660 S1659 1.613 . S
N1660 C1663 1.350 . S
N1661 S1659 1.610 . S
N1661 C1662 1.351 . S
C1662 C1656 1.428 . S
C1662 N1661 1.351 . S
C1662 C1663 1.434 . S
C1663 C1654 1.429 . S
C1663 N1660 1.350 . S
C1663 C1662 1.434 . S
C1664 C1665 1.369 . S
C1664 C1666 1.419 . S
C1664 H1668 0.930 . S
C1665 C1664 1.369 . S
C1665 C1674 1.429 . S
C1666 C1664 1.419 . S
C1666 C1667 1.363 . S
C1666 H1669 0.929 . S
C1667 C1666 1.363 . S
C1667 C1673 1.428 . S
H1668 C1664 0.930 . S
H1669 C1666 0.929 . S
S1670 N1671 1.613 . S
S1670 N1672 1.610 . S
N1671 S1670 1.613 . S
N1671 C1674 1.350 . S
N1672 S1670 1.610 . S
N1672 C1673 1.351 . S
C1673 C1667 1.428 . S
C1673 N1672 1.351 . S
C1673 C1674 1.434 . S
C1674 C1665 1.429 . S
C1674 N1671 1.350 . S
C1674 C1673 1.434 . S
C1675 C1676 1.369 . S
C1675 C1677 1.419 . S
C1675 H1679 0.930 . S
C1676 C1675 1.369 . S
C1676 C1685 1.429 . S
C1677 C1675 1.419 . S
C1677 C1678 1.363 . S
C1677 H1680 0.929 . S
C1678 C1677 1.363 . S
C1678 C1684 1.428 . S
H1679 C1675 0.930 . S
H1680 C1677 0.929 . S
S1681 N1682 1.613 . S
S1681 N1683 1.610 . S
N1682 S1681 1.613 . S
N1682 C1685 1.350 . S
N1683 S1681 1.610 . S
N1683 C1684 1.351 . S
C1684 C1678 1.428 . S
C1684 N1683 1.351 . S
C1684 C1685 1.434 . S
C1685 C1676 1.429 . S
C1685 N1682 1.350 . S
C1685 C1684 1.434 . S
C1686 C1687 1.369 . S
C1686 C1688 1.419 . S
C1686 H1690 0.930 . S
C1687 C1686 1.369 . S
C1687 C1696 1.429 1_545 S
C1688 C1686 1.419 . S
C1688 C1689 1.363 . S
C1688 H1691 0.929 . S
C1689 C1688 1.363 . S
C1689 C1695 1.428 1_545 S
H1690 C1686 0.930 . S
H1691 C1688 0.929 . S
S1692 N1693 1.613 . S
S1692 N1694 1.610 . S
N1693 S1692 1.613 . S
N1693 C1696 1.350 . S
N1694 S1692 1.610 . S
N1694 C1695 1.351 . S
C1695 C1689 1.428 1_565 S
C1695 N1694 1.351 . S
C1695 C1696 1.434 . S
C1696 C1687 1.429 1_565 S
C1696 N1693 1.350 . S
C1696 C1695 1.434 . S
C1697 C1698 1.369 1_455 S
C1697 C1699 1.419 . S
C1697 H1701 0.930 . S
C1698 C1697 1.369 1_655 S
C1698 C1707 1.429 . S
C1699 C1697 1.419 . S
C1699 C1700 1.363 1_455 S
C1699 H1702 0.929 . S
C1700 C1699 1.363 1_655 S
C1700 C1706 1.428 . S
H1701 C1697 0.930 . S
H1702 C1699 0.929 . S
S1703 N1704 1.613 . S
S1703 N1705 1.610 . S
N1704 S1703 1.613 . S
N1704 C1707 1.350 . S
N1705 S1703 1.610 . S
N1705 C1706 1.351 . S
C1706 C1700 1.428 . S
C1706 N1705 1.351 . S
C1706 C1707 1.434 . S
C1707 C1698 1.429 . S
C1707 N1704 1.350 . S
C1707 C1706 1.434 . S
C1708 C1709 1.369 . S
C1708 C1710 1.419 . S
C1708 H1712 0.930 . S
C1709 C1708 1.369 . S
C1709 C1718 1.429 . S
C1710 C1708 1.419 . S
C1710 C1711 1.363 . S
C1710 H1713 0.929 . S
C1711 C1710 1.363 . S
C1711 C1717 1.428 . S
H1712 C1708 0.930 . S
H1713 C1710 0.929 . S
S1714 N1715 1.613 . S
S1714 N1716 1.610 . S
N1715 S1714 1.613 . S
N1715 C1718 1.350 . S
N1716 S1714 1.610 . S
N1716 C1717 1.351 . S
C1717 C1711 1.428 . S
C1717 N1716 1.351 . S
C1717 C1718 1.434 . S
C1718 C1709 1.429 . S
C1718 N1715 1.350 . S
C1718 C1717 1.434 . S
C1719 C1720 1.369 . S
C1719 C1721 1.419 . S
C1719 H1723 0.930 . S
C1720 C1719 1.369 . S
C1720 C1729 1.429 . S
C1721 C1719 1.419 . S
C1721 C1722 1.363 . S
C1721 H1724 0.929 . S
C1722 C1721 1.363 . S
C1722 C1728 1.428 . S
H1723 C1719 0.930 . S
H1724 C1721 0.929 . S
S1725 N1726 1.613 . S
S1725 N1727 1.610 . S
N1726 S1725 1.613 . S
N1726 C1729 1.350 . S
N1727 S1725 1.610 . S
N1727 C1728 1.351 . S
C1728 C1722 1.428 . S
C1728 N1727 1.351 . S
C1728 C1729 1.434 . S
C1729 C1720 1.429 . S
C1729 N1726 1.350 . S
C1729 C1728 1.434 . S
C1730 C1731 1.369 . S
C1730 C1732 1.419 . S
C1730 H1734 0.930 . S
C1731 C1730 1.369 . S
C1731 C1740 1.429 . S
C1732 C1730 1.419 . S
C1732 C1733 1.363 . S
C1732 H1735 0.929 . S
C1733 C1732 1.363 . S
C1733 C1739 1.428 . S
H1734 C1730 0.930 . S
H1735 C1732 0.929 . S
S1736 N1737 1.613 . S
S1736 N1738 1.610 . S
N1737 S1736 1.613 . S
N1737 C1740 1.350 . S
N1738 S1736 1.610 . S
N1738 C1739 1.351 . S
C1739 C1733 1.428 . S
C1739 N1738 1.351 . S
C1739 C1740 1.434 . S
C1740 C1731 1.429 . S
C1740 N1737 1.350 . S
C1740 C1739 1.434 . S
C1741 C1742 1.369 . S
C1741 C1743 1.419 . S
C1741 H1745 0.930 . S
C1742 C1741 1.369 . S
C1742 C1751 1.429 . S
C1743 C1741 1.419 . S
C1743 C1744 1.363 . S
C1743 H1746 0.929 . S
C1744 C1743 1.363 . S
C1744 C1750 1.428 . S
H1745 C1741 0.930 . S
H1746 C1743 0.929 . S
S1747 N1748 1.613 . S
S1747 N1749 1.610 . S
N1748 S1747 1.613 . S
N1748 C1751 1.350 . S
N1749 S1747 1.610 . S
N1749 C1750 1.351 . S
C1750 C1744 1.428 . S
C1750 N1749 1.351 . S
C1750 C1751 1.434 . S
C1751 C1742 1.429 . S
C1751 N1748 1.350 . S
C1751 C1750 1.434 . S
C1752 C1753 1.369 . S
C1752 C1754 1.419 . S
C1752 H1756 0.930 . S
C1753 C1752 1.369 . S
C1753 C1762 1.429 . S
C1754 C1752 1.419 . S
C1754 C1755 1.363 . S
C1754 H1757 0.929 . S
C1755 C1754 1.363 . S
C1755 C1761 1.428 . S
H1756 C1752 0.930 . S
H1757 C1754 0.929 . S
S1758 N1759 1.613 . S
S1758 N1760 1.610 . S
N1759 S1758 1.613 . S
N1759 C1762 1.350 . S
N1760 S1758 1.610 . S
N1760 C1761 1.351 . S
C1761 C1755 1.428 . S
C1761 N1760 1.351 . S
C1761 C1762 1.434 . S
C1762 C1753 1.429 . S
C1762 N1759 1.350 . S
C1762 C1761 1.434 . S
C1763 C1764 1.369 . S
C1763 C1765 1.419 . S
C1763 H1767 0.930 . S
C1764 C1763 1.369 . S
C1764 C1773 1.429 . S
C1765 C1763 1.419 . S
C1765 C1766 1.363 . S
C1765 H1768 0.929 . S
C1766 C1765 1.363 . S
C1766 C1772 1.428 . S
H1767 C1763 0.930 . S
H1768 C1765 0.929 . S
S1769 N1770 1.613 . S
S1769 N1771 1.610 . S
N1770 S1769 1.613 . S
N1770 C1773 1.350 . S
N1771 S1769 1.610 . S
N1771 C1772 1.351 . S
C1772 C1766 1.428 . S
C1772 N1771 1.351 . S
C1772 C1773 1.434 . S
C1773 C1764 1.429 . S
C1773 N1770 1.350 . S
C1773 C1772 1.434 . S
C1774 C1775 1.369 . S
C1774 C1776 1.419 . S
C1774 H1778 0.930 . S
C1775 C1774 1.369 . S
C1775 C1784 1.429 . S
C1776 C1774 1.419 . S
C1776 C1777 1.363 . S
C1776 H1779 0.929 . S
C1777 C1776 1.363 . S
C1777 C1783 1.428 . S
H1778 C1774 0.930 . S
H1779 C1776 0.929 . S
S1780 N1781 1.613 . S
S1780 N1782 1.610 . S
N1781 S1780 1.613 . S
N1781 C1784 1.350 . S
N1782 S1780 1.610 . S
N1782 C1783 1.351 . S
C1783 C1777 1.428 . S
C1783 N1782 1.351 . S
C1783 C1784 1.434 . S
C1784 C1775 1.429 . S
C1784 N1781 1.350 . S
C1784 C1783 1.434 . S
C1785 C1786 1.369 . S
C1785 C1787 1.419 . S
C1785 H1789 0.930 . S
C1786 C1785 1.369 . S
C1786 C1795 1.429 1_655 S
C1787 C1785 1.419 . S
C1787 C1788 1.363 . S
C1787 H1790 0.929 . S
C1788 C1787 1.363 . S
C1788 C1794 1.428 1_655 S
H1789 C1785 0.930 . S
H1790 C1787 0.929 . S
S1791 N1792 1.613 . S
S1791 N1793 1.610 . S
N1792 S1791 1.613 . S
N1792 C1795 1.350 . S
N1793 S1791 1.610 . S
N1793 C1794 1.351 . S
C1794 C1788 1.428 1_455 S
C1794 N1793 1.351 . S
C1794 C1795 1.434 . S
C1795 C1786 1.429 1_455 S
C1795 N1792 1.350 . S
C1795 C1794 1.434 . S
C1796 C1797 1.369 . S
C1796 C1798 1.419 . S
C1796 H1800 0.930 . S
C1797 C1796 1.369 . S
C1797 C1806 1.429 . S
C1798 C1796 1.419 . S
C1798 C1799 1.363 . S
C1798 H1801 0.929 . S
C1799 C1798 1.363 . S
C1799 C1805 1.428 . S
H1800 C1796 0.930 . S
H1801 C1798 0.929 . S
S1802 N1803 1.613 . S
S1802 N1804 1.610 . S
N1803 S1802 1.613 . S
N1803 C1806 1.350 . S
N1804 S1802 1.610 . S
N1804 C1805 1.351 . S
C1805 C1799 1.428 . S
C1805 N1804 1.351 . S
C1805 C1806 1.434 . S
C1806 C1797 1.429 . S
C1806 N1803 1.350 . S
C1806 C1805 1.434 . S
C1807 C1808 1.369 . S
C1807 C1809 1.419 . S
C1807 H1811 0.930 . S
C1808 C1807 1.369 . S
C1808 C1817 1.429 1_545 S
C1809 C1807 1.419 . S
C1809 C1810 1.363 . S
C1809 H1812 0.929 . S
C1810 C1809 1.363 . S
C1810 C1816 1.428 1_545 S
H1811 C1807 0.930 . S
H1812 C1809 0.929 . S
S1813 N1814 1.613 . S
S1813 N1815 1.610 . S
N1814 S1813 1.613 . S
N1814 C1817 1.350 . S
N1815 S1813 1.610 . S
N1815 C1816 1.351 . S
C1816 C1810 1.428 1_565 S
C1816 N1815 1.351 . S
C1816 C1817 1.434 . S
C1817 C1808 1.429 1_565 S
C1817 N1814 1.350 . S
C1817 C1816 1.434 . S
C1027 C4 1.515 1_655 S
C1029 C854 1.476 1_655 S
C1038 C38 1.669 . S
C1040 C867 1.650 . S
C1051 C896 1.461 1_545 S
C1049 C74 1.511 . S
C1060 C76 1.504 . S
C1062 C909 1.469 . S
C1071 C2 1.606 . S
C1073 C930 1.593 . S
C1082 C40 1.523 . S
C1084 C959 1.452 . S
C1093 C110 1.604 . S
C1095 C938 1.554 . S
C1106 C951 1.440 . S
C1104 C148 1.500 . S
C1117 C917 1.532 . S
C1115 C182 1.559 1_565 S
C1126 C184 1.525 . S
C1128 C888 1.500 1_545 S
C1139 C846 1.439 1_655 S
C1137 C112 1.493 1_655 S
C1148 C146 1.596 . S
C1150 C875 1.575 . S
C1159 C220 1.579 . S
C1161 C980 1.498 . S
C1170 C254 1.701 . S
C1172 C993 1.684 . S
C1183 C1022 1.509 . S
C1181 C290 1.602 . S
C1192 C292 1.534 . S
C1194 C657 1.511 . S
C1203 C218 1.661 . S
C1205 C678 1.639 . S
C1214 C256 1.536 . S
C1216 C707 1.451 . S
C1225 C326 1.635 . S
C1227 C686 1.604 . S
C1236 C364 1.527 . S
C1238 C699 1.467 . S
C1249 C665 1.590 . S
C1247 C398 1.609 . S
C1260 C1014 1.522 . S
C1258 C400 1.574 . S
C1271 C972 1.445 . S
C1269 C328 1.502 . S
C1282 C1001 1.601 . S
C1280 C362 1.633 . S
C1291 C436 1.560 . S
C1293 C728 1.478 . S
C1302 C470 1.692 . S
C1304 C741 1.671 . S
C1313 C506 1.599 . S
C1315 C770 1.519 . S
C1324 C508 1.557 . S
C1326 C783 1.533 . S
C1337 C804 1.640 . S
C1335 C434 1.663 . S
C1348 C833 1.462 . S
C1346 C472 1.551 . S
C1359 C812 1.637 . S
C1357 C542 1.661 . S
C1370 C825 1.469 . S
C1368 C580 1.533 . S
C1379 C614 1.604 . S
C1381 C791 1.584 . S
C1392 C762 1.494 . S
C1390 C616 1.544 . S
C1401 C544 1.501 . S
C1403 C720 1.450 . S
C1414 C749 1.588 . S
C1412 C578 1.610 . S
C1425 C660 1.442 . S
C1423 C14 1.511 . S
C1434 C39 1.492 . S
C1436 C681 1.385 . S
C1447 C709 1.339 . S
C1445 C75 1.477 . S
C1458 C730 1.313 . S
C1456 C86 1.383 . S
C1469 C744 1.413 . S
C1467 C3 1.512 . S
C1480 C772 1.384 . S
C1478 C50 1.464 . S
C1489 C111 1.528 . S
C1491 C765 1.349 . S
C1500 C158 1.451 . S
C1502 C723 1.290 . S
C1511 C183 1.587 . S
C1513 C751 1.518 . S
C1522 C194 1.511 . S
C1524 C688 1.473 . S
C1535 C702 1.299 . S
C1533 C122 1.455 . S
C1544 C147 1.462 . S
C1546 C667 1.383 . S
C1557 C786 1.426 . S
C1555 C230 1.496 . S
C1566 C255 1.539 . S
C1568 C807 1.432 . S
C1577 C291 1.495 . S
C1579 C835 1.354 . S
C1590 C856 1.306 . S
C1588 C302 1.340 . S
C1599 C219 1.509 . S
C1601 C870 1.407 . S
C1610 C266 1.411 . S
C1612 C898 1.398 . S
C1621 C327 1.443 . S
C1623 C891 1.297 . S
C1632 C374 1.402 . S
C1634 C849 1.307 . S
C1645 C877 1.498 . S
C1643 C399 1.574 . S
C1654 C410 1.502 . S
C1656 C814 1.463 . S
C1665 C338 1.485 . S
C1667 C828 1.332 . S
C1678 C793 1.417 . S
C1676 C363 1.505 . S
C1689 C912 1.360 1_545 S
C1687 C446 1.423 . S
C1698 C471 1.467 . S
C1700 C933 1.352 1_655 S
C1709 C507 1.465 . S
C1711 C961 1.327 . S
C1722 C982 1.299 . S
C1720 C518 1.388 . S
C1733 C996 1.431 . S
C1731 C435 1.546 . S
C1742 C482 1.496 . S
C1744 C1024 1.430 . S
C1753 C543 1.507 . S
C1755 C1017 1.310 . S
C1764 C590 1.488 . S
C1766 C975 1.336 . S
C1777 C1003 1.517 . S
C1775 C615 1.601 . S
C1788 C940 1.392 1_655 S
C1786 C626 1.420 . S
C1799 C954 1.326 . S
C1797 C554 1.469 . S
C1808 C579 1.432 . S
C1810 C919 1.346 1_545 S
