# Generated by pormake.
# Topology pth, (4,4)-cn, num edge types: 1
# Building blocks:
#     Node 0, Type 0, BuildingBlock: GALJAG_clean_sbu_0, # of connection points: 4
#     Node 1, Type 0, BuildingBlock: GALJAG_clean_sbu_0, # of connection points: 4
#     Node 2, Type 0, BuildingBlock: GALJAG_clean_sbu_0, # of connection points: 4
#     Node 3, Type 1, BuildingBlock: AZAVOO_clean_linker_0, # of connection points: 4
#     Node 4, Type 1, BuildingBlock: AZAVOO_clean_linker_0, # of connection points: 4
#     Node 5, Type 1, BuildingBlock: AZAVOO_clean_linker_0, # of connection points: 4
#     Edge 6, Type (0, 1), BuildingBlock: FUNLAD_clean_linker_1, # of connection points: 2
#     Edge 7, Type (0, 1), BuildingBlock: FUNLAD_clean_linker_1, # of connection points: 2
#     Edge 8, Type (0, 1), BuildingBlock: FUNLAD_clean_linker_1, # of connection points: 2
#     Edge 9, Type (0, 1), BuildingBlock: FUNLAD_clean_linker_1, # of connection points: 2
#     Edge 10, Type (0, 1), BuildingBlock: FUNLAD_clean_linker_1, # of connection points: 2
#     Edge 11, Type (0, 1), BuildingBlock: FUNLAD_clean_linker_1, # of connection points: 2
#     Edge 12, Type (0, 1), BuildingBlock: FUNLAD_clean_linker_1, # of connection points: 2
#     Edge 13, Type (0, 1), BuildingBlock: FUNLAD_clean_linker_1, # of connection points: 2
#     Edge 14, Type (0, 1), BuildingBlock: FUNLAD_clean_linker_1, # of connection points: 2
#     Edge 15, Type (0, 1), BuildingBlock: FUNLAD_clean_linker_1, # of connection points: 2
#     Edge 16, Type (0, 1), BuildingBlock: FUNLAD_clean_linker_1, # of connection points: 2
#     Edge 17, Type (0, 1), BuildingBlock: FUNLAD_clean_linker_1, # of connection points: 2
# Relax obj value: 0.127
# Max RMSD: 0.233
# Mean RMSD: 0.161
data_MOF--net-pth--node1-GALJAG_clean_sbu_0--node2-AZAVOO_clean_linker_0--edge1-FUNLAD_clean_linker_1
_symmetry_space_group_name_H-M    P1
_symmetry_Int_Tables_number       1
_symmetry_cell_setting            triclinic
loop_
_symmetry_equiv_pos_as_xyz
'x, y, z'
_cell_length_a     27.73514
_cell_length_b     28.054993
_cell_length_c     71.554581
_cell_angle_alpha  92.991706
_cell_angle_beta   89.091698
_cell_angle_gamma 119.95906
loop_
_atom_site_label
_atom_site_type_symbol
_atom_site_fract_x
_atom_site_fract_y
_atom_site_fract_z
_atom_type_partial_charge
In0 In 0.06237 0.03345 0.05744 0.0
O1 O 0.01587 0.07629 0.06923 0.0
O2 O 0.08428 0.08498 0.08502 0.0
C3 C 0.98613 0.96656 0.03132 0.0
C4 C 0.14539 0.11285 0.03816 0.0
C5 C 0.07304 0.95813 0.0761 0.0
O6 O 0.97331 0.98445 0.04596 0.0
O7 O 0.03713 0.98181 0.02989 0.0
O8 O 0.10975 0.98988 0.06512 0.0
O9 O 0.03089 0.96398 0.07757 0.0
C10 C 0.04588 0.09632 0.08375 0.0
O11 O 0.15386 0.08491 0.04954 0.0
O12 O 0.0954 0.10123 0.03664 0.0
In13 In 0.02487 0.03268 0.39283 0.0
O14 O 0.06075 0.09929 0.37123 0.0
O15 O 0.97343 0.05774 0.37556 0.0
C16 C 0.12543 0.07963 0.41002 0.0
C17 C 0.95069 0.01714 0.42018 0.0
C18 C 0.01187 0.93802 0.37639 0.0
O19 O 0.10051 0.10603 0.40746 0.0
O20 O 0.1006 0.03054 0.40346 0.0
O21 O 0.00655 0.94411 0.39373 0.0
O22 O 0.02308 0.9794 0.36714 0.0
C23 C 0.01428 0.09411 0.36703 0.0
O24 O 0.9376 0.98683 0.40537 0.0
O25 O 0.00076 0.05503 0.42119 0.0
In26 In 0.0506 0.05929 0.72759 0.0
O27 O 0.00348 0.97288 0.73899 0.0
O28 O 0.98823 0.03471 0.75124 0.0
C29 C 0.13056 0.03798 0.71511 0.0
C30 C 0.97995 0.05649 0.70143 0.0
C31 C 0.12029 0.15955 0.74361 0.0
O32 O 0.12086 0.04063 0.73228 0.0
O33 O 0.09909 0.04446 0.70427 0.0
O34 O 0.11633 0.15062 0.72606 0.0
O35 O 0.08785 0.11888 0.75288 0.0
C36 C 0.97719 0.98539 0.75096 0.0
O37 O 0.00151 0.09463 0.71404 0.0
O38 O 0.99457 0.02071 0.70186 0.0
H39 H 0.98407 0.42374 0.10506 0.0
H40 H 0.08993 0.86203 0.26644 0.0
H41 H 0.94522 0.38877 0.20451 0.0
H42 H 0.95062 0.31241 0.18866 0.0
H43 H 0.12211 0.38522 0.20673 0.0
H44 H 0.11601 0.46154 0.22277 0.0
H45 H 0.9461 0.48078 0.18156 0.0
H46 H 0.94636 0.45432 0.14844 0.0
H47 H 0.11707 0.4923 0.15432 0.0
H48 H 0.11637 0.51918 0.18738 0.0
H49 H 0.94431 0.57996 0.20251 0.0
H50 H 0.94435 0.64084 0.1792 0.0
H51 H 0.11705 0.6938 0.1675 0.0
H52 H 0.11597 0.63259 0.19059 0.0
H53 H 0.94231 0.59293 0.24314 0.0
H54 H 0.94617 0.67736 0.25602 0.0
H55 H 0.12325 0.76775 0.246 0.0
H56 H 0.11883 0.68281 0.23337 0.0
H57 H 0.93505 0.50614 0.26596 0.0
H58 H 0.92156 0.55619 0.29269 0.0
H59 H 0.09878 0.67059 0.29485 0.0
H60 H 0.11144 0.62031 0.26837 0.0
H61 H 0.94898 0.39257 0.24797 0.0
H62 H 0.95356 0.33284 0.27058 0.0
H63 H 0.11971 0.4612 0.28684 0.0
H64 H 0.11423 0.52088 0.26419 0.0
O65 O 0.98495 0.43465 0.11816 0.0
O66 O 0.0742 0.45964 0.1215 0.0
O67 O 0.99672 0.77906 0.26717 0.0
O68 O 0.08697 0.82834 0.26099 0.0
C69 C 0.03007 0.482 0.22075 0.0
C70 C 0.03041 0.51674 0.20702 0.0
C71 C 0.02997 0.56552 0.21248 0.0
C72 C 0.02911 0.57962 0.2316 0.0
C73 C 0.02863 0.54491 0.24536 0.0
C74 C 0.02961 0.49626 0.23999 0.0
C75 C 0.03038 0.43086 0.21459 0.0
C76 C 0.98361 0.38765 0.20532 0.0
C77 C 0.98709 0.34448 0.19606 0.0
C78 C 0.03761 0.34402 0.19588 0.0
C79 C 0.08297 0.38505 0.20646 0.0
C80 C 0.07951 0.42841 0.21568 0.0
C81 C 0.03121 0.50191 0.18683 0.0
C82 C 0.98358 0.48365 0.17563 0.0
C83 C 0.9838 0.46838 0.15674 0.0
C84 C 0.03174 0.47118 0.14873 0.0
C85 C 0.07949 0.48972 0.16003 0.0
C86 C 0.07921 0.50503 0.17891 0.0
C87 C 0.03008 0.60189 0.19815 0.0
C88 C 0.98195 0.60466 0.1948 0.0
C89 C 0.98209 0.63933 0.18148 0.0
C90 C 0.03022 0.67172 0.17121 0.0
C91 C 0.07859 0.66882 0.17469 0.0
C92 C 0.07834 0.63403 0.18802 0.0
C93 C 0.03032 0.63185 0.2374 0.0
C94 C 0.98177 0.63113 0.2436 0.0
C95 C 0.98415 0.67936 0.251 0.0
C96 C 0.03512 0.72927 0.25214 0.0
C97 C 0.08338 0.73003 0.24537 0.0
C98 C 0.08095 0.68169 0.23805 0.0
C99 C 0.0242 0.55964 0.26526 0.0
C100 C 0.97119 0.54015 0.27292 0.0
C101 C 0.96351 0.56917 0.28804 0.0
C102 C 0.00882 0.61748 0.29588 0.0
C103 C 0.0628 0.63319 0.28947 0.0
C104 C 0.07034 0.60429 0.27429 0.0
C105 C 0.03133 0.46093 0.25438 0.0
C106 C 0.98635 0.40766 0.25641 0.0
C107 C 0.9894 0.37335 0.26927 0.0
C108 C 0.03783 0.39175 0.28027 0.0
C109 C 0.08213 0.4457 0.27847 0.0
C110 C 0.07901 0.47991 0.26561 0.0
C111 C 0.03179 0.45485 0.12867 0.0
C112 C 0.0382 0.78025 0.26054 0.0
H113 H 0.58508 0.00944 0.44003 0.0
H114 H 0.27083 0.13493 0.59991 0.0
H115 H 0.5816 0.96964 0.54005 0.0
H116 H 0.65773 0.96423 0.52448 0.0
H117 H 0.77054 0.1344 0.54169 0.0
H118 H 0.69373 0.13904 0.55758 0.0
H119 H 0.49386 0.9805 0.51554 0.0
H120 H 0.51845 0.9775 0.48266 0.0
H121 H 0.66116 0.14099 0.49083 0.0
H122 H 0.63559 0.14374 0.52359 0.0
H123 H 0.39659 0.98706 0.53722 0.0
H124 H 0.33662 0.99086 0.51334 0.0
H125 H 0.4672 0.15487 0.50104 0.0
H126 H 0.52575 0.15084 0.52518 0.0
H127 H 0.38989 0.98292 0.57911 0.0
H128 H 0.31096 0.99008 0.59159 0.0
H129 H 0.39529 0.16243 0.57932 0.0
H130 H 0.47431 0.15483 0.56713 0.0
H131 H 0.47611 0.97129 0.60012 0.0
H132 H 0.42132 0.957 0.6286 0.0
H133 H 0.47299 0.13045 0.63235 0.0
H134 H 0.52732 0.14391 0.60416 0.0
H135 H 0.59718 0.98314 0.58332 0.0
H136 H 0.66298 0.98988 0.60704 0.0
H137 H 0.6989 0.15518 0.62325 0.0
H138 H 0.63284 0.14785 0.59944 0.0
O139 O 0.57569 0.01178 0.45299 0.0
O140 O 0.64907 0.09545 0.45804 0.0
O141 O 0.26051 0.04254 0.60147 0.0
O142 O 0.30083 0.13062 0.59463 0.0
C143 C 0.58382 0.06047 0.55582 0.0
C144 C 0.54921 0.06307 0.54205 0.0
C145 C 0.50157 0.06607 0.54742 0.0
C146 C 0.48797 0.06539 0.56651 0.0
C147 C 0.52279 0.06313 0.58028 0.0
C148 C 0.57143 0.06196 0.57499 0.0
C149 C 0.63215 0.05486 0.54975 0.0
C150 C 0.62301 0.00541 0.54074 0.0
C151 C 0.66645 0.00271 0.53162 0.0
C152 C 0.71976 0.04971 0.53127 0.0
C153 C 0.72969 0.09787 0.54156 0.0
C154 C 0.68608 0.10055 0.55069 0.0
C155 C 0.56294 0.06231 0.52192 0.0
C156 C 0.53012 0.01578 0.51014 0.0
C157 C 0.5444 0.01412 0.4914 0.0
C158 C 0.59187 0.05896 0.48413 0.0
C159 C 0.62439 0.10573 0.49598 0.0
C160 C 0.60991 0.10741 0.51469 0.0
C161 C 0.46528 0.06882 0.533 0.0
C162 C 0.41183 0.02395 0.52946 0.0
C163 C 0.37779 0.02617 0.51578 0.0
C164 C 0.39644 0.07327 0.50537 0.0
C165 C 0.45045 0.11817 0.5089 0.0
C166 C 0.48441 0.11591 0.52264 0.0
C167 C 0.43781 0.06841 0.57229 0.0
C168 C 0.39105 0.02208 0.57903 0.0
C169 C 0.34609 0.02632 0.58618 0.0
C170 C 0.34695 0.07694 0.58655 0.0
C171 C 0.39333 0.1229 0.57929 0.0
C172 C 0.43839 0.11864 0.57223 0.0
C173 C 0.50546 0.05858 0.60011 0.0
C174 C 0.4775 0.00651 0.60764 0.0
C175 C 0.44598 0.99838 0.62381 0.0
C176 C 0.44263 0.04232 0.63281 0.0
C177 C 0.47505 0.09557 0.62613 0.0
C178 C 0.50628 0.10354 0.60991 0.0
C179 C 0.61055 0.06513 0.58957 0.0
C180 C 0.61963 0.02091 0.59191 0.0
C181 C 0.65767 0.0251 0.60542 0.0
C182 C 0.68728 0.0738 0.6168 0.0
C183 C 0.67704 0.11741 0.61461 0.0
C184 C 0.6393 0.11326 0.60106 0.0
C185 C 0.60743 0.05673 0.46429 0.0
C186 C 0.30004 0.08208 0.59465 0.0
H187 H 0.59911 0.66133 0.00853 0.0
H188 H 0.24212 0.21637 0.85911 0.0
H189 H 0.60446 0.6865 0.90918 0.0
H190 H 0.68762 0.76112 0.92479 0.0
H191 H 0.78048 0.68089 0.90718 0.0
H192 H 0.69671 0.60626 0.89144 0.0
H193 H 0.50703 0.59739 0.93246 0.0
H194 H 0.53267 0.62708 0.96533 0.0
H195 H 0.66293 0.58524 0.96042 0.0
H196 H 0.63635 0.55502 0.92762 0.0
H197 H 0.40321 0.49603 0.91211 0.0
H198 H 0.34 0.43664 0.93583 0.0
H199 H 0.46034 0.38838 0.94966 0.0
H200 H 0.5221 0.44647 0.92569 0.0
H201 H 0.39901 0.4903 0.86767 0.0
H202 H 0.31191 0.40815 0.8576 0.0
H203 H 0.37408 0.30535 0.87713 0.0
H204 H 0.46134 0.38787 0.88684 0.0
H205 H 0.49566 0.5786 0.84496 0.0
H206 H 0.44921 0.54083 0.81446 0.0
H207 H 0.47412 0.40158 0.81884 0.0
H208 H 0.52001 0.43934 0.84922 0.0
H209 H 0.60661 0.67917 0.8658 0.0
H210 H 0.67098 0.73436 0.84184 0.0
H211 H 0.70071 0.60034 0.82614 0.0
H212 H 0.63558 0.54516 0.8502 0.0
O213 O 0.58937 0.64896 0.99554 0.0
O214 O 0.65278 0.62269 0.99271 0.0
O215 O 0.24655 0.30425 0.85285 0.0
O216 O 0.27607 0.24955 0.86303 0.0
C217 C 0.59164 0.59055 0.8936 0.0
C218 C 0.55517 0.55778 0.90757 0.0
C219 C 0.50459 0.50993 0.90244 0.0
C220 C 0.49014 0.49498 0.88335 0.0
C221 C 0.52685 0.52739 0.86936 0.0
C222 C 0.57781 0.57505 0.87448 0.0
C223 C 0.64449 0.64076 0.8994 0.0
C224 C 0.64306 0.68562 0.9084 0.0
C225 C 0.69045 0.7278 0.91752 0.0
C226 C 0.74005 0.72565 0.91778 0.0
C227 C 0.74256 0.68307 0.90739 0.0
C228 C 0.69497 0.64067 0.89833 0.0
C229 C 0.56981 0.57407 0.92769 0.0
C230 C 0.54081 0.59432 0.93856 0.0
C231 C 0.5557 0.61145 0.9573 0.0
C232 C 0.59989 0.60859 0.9655 0.0
C233 C 0.62866 0.58794 0.95455 0.0
C234 C 0.61364 0.57072 0.93582 0.0
C235 C 0.4669 0.47506 0.9171 0.0
C236 C 0.41553 0.47223 0.92021 0.0
C237 C 0.37967 0.43848 0.93376 0.0
C238 C 0.39438 0.40675 0.94433 0.0
C239 C 0.44659 0.4107 0.94142 0.0
C240 C 0.48237 0.44442 0.92786 0.0
C241 C 0.43644 0.44498 0.87796 0.0
C242 C 0.3937 0.44998 0.86975 0.0
C243 C 0.34401 0.40301 0.86403 0.0
C244 C 0.33605 0.35014 0.86655 0.0
C245 C 0.37883 0.34539 0.87498 0.0
C246 C 0.42862 0.39243 0.8806 0.0
C247 C 0.51045 0.51127 0.84938 0.0
C248 C 0.49224 0.54064 0.83908 0.0
C249 C 0.46557 0.51895 0.82175 0.0
C250 C 0.45626 0.46742 0.81463 0.0
C251 C 0.47875 0.4404 0.82428 0.0
C252 C 0.50561 0.4622 0.84153 0.0
C253 C 0.61681 0.6084 0.85983 0.0
C254 C 0.62744 0.66198 0.85729 0.0
C255 C 0.66471 0.69363 0.84364 0.0
C256 C 0.69222 0.67216 0.83235 0.0
C257 C 0.68053 0.61806 0.83474 0.0
C258 C 0.64338 0.58653 0.84843 0.0
C259 C 0.61578 0.62711 0.98538 0.0
C260 C 0.28347 0.3001 0.86038 0.0
H261 H 0.00475 0.14127 0.09521 0.0
C262 C 0.03667 0.13074 0.09795 0.0
H263 H 0.09706 0.13752 0.11722 0.0
H264 H 0.06868 0.35276 0.14327 0.0
H265 H 0.11787 0.39136 0.11468 0.0
H266 H 0.13999 0.33596 0.09205 0.0
H267 H 0.11328 0.24159 0.09785 0.0
C268 C 0.06639 0.14927 0.11397 0.0
C269 C 0.05616 0.18392 0.1281 0.0
C270 C 0.07238 0.23915 0.12452 0.0
C271 C 0.05999 0.27122 0.13765 0.0
C272 C 0.07673 0.32635 0.13374 0.0
C273 C 0.10509 0.34912 0.1174 0.0
C274 C 0.11758 0.31792 0.10465 0.0
C275 C 0.10168 0.26365 0.10811 0.0
H276 H 0.07789 0.29485 0.18778 0.0
C277 C 0.04517 0.30333 0.18399 0.0
H278 H 0.98837 0.29334 0.16268 0.0
H279 H 0.02227 0.08049 0.13963 0.0
H280 H 0.9748 0.04228 0.16852 0.0
H281 H 0.95226 0.0975 0.19116 0.0
H282 H 0.97725 0.19132 0.1851 0.0
C283 C 0.01755 0.28159 0.16767 0.0
C284 C 0.03216 0.24824 0.15445 0.0
C285 C 0.01714 0.19346 0.15824 0.0
C286 C 0.02956 0.1614 0.14509 0.0
C287 C 0.01385 0.10666 0.14914 0.0
C288 C 0.98652 0.08419 0.16566 0.0
C289 C 0.97387 0.11531 0.17841 0.0
C290 C 0.9887 0.16923 0.17479 0.0
H291 H 0.86696 0.97749 0.43254 0.0
C292 C 0.91007 0.00945 0.43488 0.0
H293 H 0.96754 0.07459 0.45295 0.0
H294 H 0.78203 0.11506 0.49054 0.0
H295 H 0.83215 0.19633 0.4726 0.0
H296 H 0.9063 0.20595 0.45098 0.0
H297 H 0.93036 0.13404 0.44705 0.0
C298 C 0.92484 0.0415 0.45075 0.0
C299 C 0.8827 0.03673 0.46477 0.0
C300 C 0.87023 0.07988 0.46727 0.0
C301 C 0.82815 0.07476 0.47998 0.0
C302 C 0.81468 0.11734 0.48152 0.0
C303 C 0.8429 0.16415 0.47119 0.0
C304 C 0.88459 0.16954 0.459 0.0
C305 C 0.89808 0.12795 0.45693 0.0
H306 H 0.8076 0.08125 0.52311 0.0
C307 C 0.76474 0.05081 0.51946 0.0
H308 H 0.71193 0.99103 0.4988 0.0
H309 H 0.90054 0.94903 0.46479 0.0
H310 H 0.85045 0.8677 0.48281 0.0
H311 H 0.77644 0.8582 0.50448 0.0
H312 H 0.75236 0.93026 0.50837 0.0
C313 C 0.75422 0.02045 0.50328 0.0
C314 C 0.79958 0.02699 0.49047 0.0
C315 C 0.81254 0.9842 0.48815 0.0
C316 C 0.85454 0.98926 0.47542 0.0
C317 C 0.86793 0.94667 0.47386 0.0
C318 C 0.83976 0.89991 0.48422 0.0
C319 C 0.79814 0.89459 0.49644 0.0
C320 C 0.78464 0.93619 0.4985 0.0
H321 H 0.91934 0.96214 0.77453 0.0
C322 C 0.93604 0.94606 0.76367 0.0
H323 H 0.93412 0.87509 0.75132 0.0
H324 H 0.84205 0.74276 0.82518 0.0
H325 H 0.9321 0.74883 0.82217 0.0
H326 H 0.99718 0.8028 0.79762 0.0
H327 H 0.97262 0.85113 0.77596 0.0
C328 C 0.91726 0.89169 0.76192 0.0
C329 C 0.87518 0.85359 0.77511 0.0
C330 C 0.88978 0.82468 0.7874 0.0
C331 C 0.85204 0.79313 0.80146 0.0
C332 C 0.86855 0.76637 0.81401 0.0
C333 C 0.92029 0.76975 0.8125 0.0
C334 C 0.95695 0.80018 0.79869 0.0
C335 C 0.94226 0.82766 0.78632 0.0
H336 H 0.7402 0.68183 0.80639 0.0
C337 C 0.73228 0.70436 0.81771 0.0
H338 H 0.75522 0.78397 0.82942 0.0
H339 H 0.82968 0.89477 0.75143 0.0
H340 H 0.73897 0.88741 0.75411 0.0
H341 H 0.67506 0.83582 0.77927 0.0
H342 H 0.70128 0.79072 0.80176 0.0
C343 C 0.76087 0.75971 0.81821 0.0
C344 C 0.79953 0.79008 0.803 0.0
C345 C 0.78407 0.81722 0.79025 0.0
C346 C 0.82151 0.84819 0.77607 0.0
C347 C 0.80385 0.87264 0.76296 0.0
C348 C 0.75163 0.86827 0.76422 0.0
C349 C 0.71561 0.83913 0.77836 0.0
C350 C 0.73128 0.81359 0.79121 0.0
H351 H 0.11795 0.91644 0.08487 0.0
C352 C 0.08012 0.91861 0.08679 0.0
H353 H 0.00355 0.88772 0.10088 0.0
H354 H 0.99197 0.66568 0.12116 0.0
H355 H 0.92237 0.63226 0.09633 0.0
H356 H 0.91054 0.69721 0.0776 0.0
H357 H 0.96833 0.79596 0.08357 0.0
C358 C 0.04217 0.88695 0.09918 0.0
C359 C 0.05026 0.84819 0.11033 0.0
C360 C 0.01574 0.79064 0.10677 0.0
C361 C 0.02221 0.7532 0.11766 0.0
C362 C 0.98805 0.69592 0.11355 0.0
C363 C 0.94815 0.67619 0.09927 0.0
C364 C 0.94152 0.71276 0.08872 0.0
C365 C 0.97489 0.76935 0.09232 0.0
H366 H 0.99263 0.71529 0.15808 0.0
C367 C 0.02828 0.70894 0.15756 0.0
H368 H 0.10359 0.7302 0.14321 0.0
H369 H 0.12096 0.95614 0.1217 0.0
H370 H 0.19115 0.98922 0.14623 0.0
H371 H 0.20397 0.92413 0.16452 0.0
H372 H 0.14624 0.82545 0.15844 0.0
C373 C 0.06712 0.73475 0.14456 0.0
C374 C 0.06275 0.77346 0.13222 0.0
C375 C 0.09798 0.83096 0.13555 0.0
C376 C 0.0913 0.86846 0.12476 0.0
C377 C 0.12523 0.92571 0.12904 0.0
C378 C 0.16549 0.94532 0.1432 0.0
C379 C 0.17265 0.90868 0.15352 0.0
C380 C 0.13927 0.85214 0.14986 0.0
H381 H 0.19302 0.14363 0.42811 0.0
C382 C 0.17626 0.10243 0.42164 0.0
H383 H 0.18191 0.02994 0.41951 0.0
H384 H 0.42679 0.14262 0.45295 0.0
H385 H 0.44986 0.15072 0.41996 0.0
H386 H 0.37849 0.13135 0.396 0.0
H387 H 0.28345 0.10361 0.40489 0.0
C388 C 0.19826 0.07117 0.42591 0.0
C389 C 0.24259 0.08952 0.4404 0.0
C390 C 0.29794 0.10637 0.435 0.0
C391 C 0.33914 0.11788 0.44883 0.0
C392 C 0.39393 0.13365 0.44303 0.0
C393 C 0.40772 0.13845 0.42414 0.0
C394 C 0.36752 0.12751 0.41065 0.0
C395 C 0.31316 0.11155 0.41593 0.0
H396 H 0.32085 0.03383 0.48748 0.0
C397 C 0.35833 0.07293 0.4909 0.0
H398 H 0.40227 0.15774 0.48487 0.0
H399 H 0.1402 0.05864 0.45559 0.0
H400 H 0.11838 0.05511 0.48858 0.0
H401 H 0.19109 0.07982 0.51259 0.0
H402 H 0.28592 0.10743 0.50368 0.0
C403 C 0.36593 0.11753 0.48219 0.0
C404 C 0.3247 0.11226 0.46799 0.0
C405 C 0.27007 0.09856 0.47346 0.0
C406 C 0.22867 0.08621 0.45963 0.0
C407 C 0.17372 0.06981 0.46547 0.0
C408 C 0.16053 0.06746 0.48439 0.0
C409 C 0.20142 0.08122 0.4979 0.0
C410 C 0.25561 0.09666 0.49259 0.0
H411 H 0.16267 0.21418 0.7682 0.0
C412 C 0.16342 0.21094 0.753 0.0
H413 H 0.20983 0.24538 0.72878 0.0
H414 H 0.31798 0.42478 0.80385 0.0
H415 H 0.23548 0.43327 0.80209 0.0
H416 H 0.1627 0.37927 0.77815 0.0
H417 H 0.17176 0.31555 0.75601 0.0
C418 C 0.20701 0.24964 0.74388 0.0
C419 C 0.25649 0.29255 0.7547 0.0
C420 C 0.25208 0.33167 0.76687 0.0
C421 C 0.29514 0.3644 0.78017 0.0
C422 C 0.28765 0.40024 0.79303 0.0
C423 C 0.24028 0.40534 0.79224 0.0
C424 C 0.19922 0.37483 0.7788 0.0
C425 C 0.20477 0.33825 0.76625 0.0
H426 H 0.41715 0.46714 0.78774 0.0
C427 C 0.41971 0.44101 0.79792 0.0
H428 H 0.38498 0.35952 0.80666 0.0
H429 H 0.28111 0.22622 0.73181 0.0
H430 H 0.36607 0.22168 0.73223 0.0
H431 H 0.44216 0.28079 0.75454 0.0
H432 H 0.43348 0.34466 0.77667 0.0
C433 C 0.38466 0.38631 0.7963 0.0
C434 C 0.34355 0.35939 0.7807 0.0
C435 C 0.34987 0.32353 0.76749 0.0
C436 C 0.30629 0.29 0.75448 0.0
C437 C 0.313 0.25307 0.7419 0.0
C438 C 0.36162 0.25001 0.74199 0.0
C439 C 0.40443 0.28325 0.75456 0.0
C440 C 0.39885 0.3196 0.76721 0.0
H441 H 0.92533 0.0191 0.67668 0.0
C442 C 0.93928 0.05208 0.6875 0.0
H443 H 0.93134 0.11892 0.69875 0.0
H444 H 0.83691 0.14629 0.62207 0.0
H445 H 0.92671 0.22997 0.62431 0.0
H446 H 0.99372 0.24518 0.64937 0.0
H447 H 0.97136 0.17664 0.67231 0.0
C448 C 0.91722 0.08518 0.68822 0.0
C449 C 0.87468 0.07785 0.67417 0.0
C450 C 0.88794 0.11884 0.66111 0.0
C451 C 0.84899 0.11037 0.6468 0.0
C452 C 0.86425 0.15109 0.63351 0.0
C453 C 0.91586 0.19922 0.63456 0.0
C454 C 0.95361 0.20776 0.64865 0.0
C455 C 0.94018 0.16809 0.66175 0.0
H456 H 0.73893 0.11247 0.64236 0.0
C457 C 0.72838 0.08063 0.63129 0.0
H458 H 0.7471 0.02036 0.62001 0.0
H459 H 0.83265 0.99452 0.69863 0.0
H460 H 0.74252 0.91122 0.69656 0.0
H461 H 0.67615 0.89533 0.67118 0.0
H462 H 0.69939 0.96298 0.64782 0.0
C463 C 0.75537 0.05194 0.6309 0.0
C464 C 0.79645 0.06129 0.6458 0.0
C465 C 0.78278 0.02076 0.65906 0.0
C466 C 0.82157 0.02936 0.67343 0.0
C467 C 0.80569 0.98929 0.68701 0.0
C468 C 0.75383 0.94145 0.68609 0.0
C469 C 0.71643 0.93255 0.67182 0.0
C470 C 0.73037 0.97168 0.65848 0.0
H471 H 0.90095 0.91798 0.01969 0.0
C472 C 0.94438 0.93104 0.01697 0.0
H473 H 0.00193 0.92984 0.99751 0.0
H474 H 0.75965 0.71337 0.96944 0.0
H475 H 0.76698 0.67221 0.99748 0.0
H476 H 0.84261 0.72584 0.0205 0.0
H477 H 0.91164 0.82093 0.01563 0.0
C478 C 0.9585 0.91535 0.00072 0.0
C479 C 0.91564 0.88133 0.98616 0.0
C480 C 0.8759 0.82562 0.98917 0.0
C481 C 0.83262 0.79456 0.9758 0.0
C482 C 0.79333 0.73901 0.97917 0.0
C483 C 0.79705 0.7148 0.99519 0.0
C484 C 0.83967 0.74499 0.00815 0.0
C485 C 0.87882 0.79969 0.00524 0.0
H486 H 0.82953 0.7722 0.92581 0.0
C487 C 0.78844 0.7651 0.92965 0.0
H488 H 0.74116 0.77647 0.95107 0.0
H489 H 0.98767 0.98578 0.9755 0.0
H490 H 0.98238 0.02604 0.94695 0.0
H491 H 0.90685 0.97235 0.92385 0.0
H492 H 0.8363 0.878 0.92911 0.0
C493 C 0.78231 0.78707 0.94605 0.0
C494 C 0.82974 0.81898 0.95931 0.0
C495 C 0.87065 0.87401 0.95596 0.0
C496 C 0.91391 0.90512 0.96936 0.0
C497 C 0.95396 0.96022 0.96578 0.0
C498 C 0.95138 0.98388 0.94946 0.0
C499 C 0.90887 0.95364 0.93645 0.0
C500 C 0.86874 0.89942 0.93961 0.0
H501 H 0.01115 0.85949 0.37755 0.0
C502 C 0.0094 0.8877 0.36809 0.0
H503 H 0.00586 0.90533 0.34008 0.0
H504 H 0.11393 0.77438 0.3029 0.0
H505 H 0.17705 0.8678 0.29445 0.0
H506 H 0.16675 0.9451 0.30771 0.0
H507 H 0.09275 0.92929 0.32926 0.0
C508 C 0.00691 0.87674 0.34952 0.0
C509 C 0.01205 0.82937 0.34139 0.0
C510 C 0.05664 0.83961 0.32916 0.0
C511 C 0.06372 0.79525 0.32199 0.0
C512 C 0.10737 0.80652 0.30923 0.0
C513 C 0.14392 0.86004 0.30418 0.0
C514 C 0.13802 0.90352 0.3116 0.0
C515 C 0.09509 0.89373 0.32395 0.0
H516 H 0.95725 0.65245 0.30644 0.0
C517 C 0.99746 0.65511 0.30811 0.0
H518 H 0.07585 0.69866 0.32175 0.0
H519 H 0.91545 0.7931 0.36121 0.0
H520 H 0.85471 0.70017 0.37087 0.0
H521 H 0.87422 0.62545 0.36181 0.0
H522 H 0.95357 0.64295 0.34254 0.0
C523 C 0.03548 0.6951 0.3197 0.0
C524 C 0.0273 0.74087 0.3275 0.0
C525 C 0.98289 0.73062 0.3398 0.0
C526 C 0.97393 0.77451 0.34614 0.0
C527 C 0.92627 0.7621 0.35698 0.0
C528 C 0.8907 0.70877 0.36246 0.0
C529 C 0.90151 0.66665 0.35728 0.0
C530 C 0.947 0.6772 0.34609 0.0
H531 H 0.21179 0.04277 0.7184 0.0
C532 C 0.17906 0.03425 0.70838 0.0
H533 H 0.15302 0.01802 0.68018 0.0
H534 H 0.3835 0.13692 0.6417 0.0
H535 H 0.34064 0.18904 0.6325 0.0
H536 H 0.25236 0.17338 0.64646 0.0
H537 H 0.20612 0.105 0.66949 0.0
C538 C 0.18568 0.02569 0.69012 0.0
C539 C 0.24017 0.0359 0.68251 0.0
C540 C 0.26767 0.07756 0.66949 0.0
C541 C 0.31946 0.08787 0.66189 0.0
C542 C 0.3448 0.12814 0.64832 0.0
C543 C 0.32057 0.15837 0.64284 0.0
C544 C 0.27083 0.14947 0.65066 0.0
C545 C 0.24458 0.10976 0.66385 0.0
H546 H 0.36199 0.98852 0.6459 0.0
C547 C 0.39826 0.02969 0.6468 0.0
H548 H 0.43311 0.10897 0.66029 0.0
H549 H 0.19567 0.94823 0.70522 0.0
H550 H 0.24069 0.89882 0.71543 0.0
H551 H 0.33474 0.92308 0.70458 0.0
H552 H 0.38378 0.99617 0.6831 0.0
C553 C 0.39756 0.0676 0.65891 0.0
C554 C 0.34454 0.05762 0.66769 0.0
C555 C 0.31771 0.01677 0.68097 0.0
C556 C 0.26471 0.00479 0.688 0.0
C557 C 0.2371 0.96099 0.70017 0.0
C558 C 0.26228 0.93193 0.70602 0.0
C559 C 0.31514 0.94544 0.69985 0.0
C560 C 0.3427 0.98728 0.68746 0.0
H561 H 0.23263 0.16272 0.02939 0.0
C562 C 0.19044 0.15445 0.02706 0.0
H563 H 0.13791 0.17069 0.01076 0.0
H564 H 0.3862 0.38648 0.99539 0.0
H565 H 0.38177 0.41596 0.02754 0.0
H566 H 0.30495 0.35582 0.04795 0.0
H567 H 0.23246 0.26556 0.03639 0.0
C568 C 0.18023 0.18034 0.01375 0.0
C569 C 0.22515 0.21802 0.00135 0.0
C570 C 0.26639 0.27113 0.00823 0.0
C571 C 0.30969 0.30648 0.99629 0.0
C572 C 0.35148 0.35858 0.00368 0.0
C573 C 0.34959 0.37591 0.02215 0.0
C574 C 0.30642 0.34199 0.03365 0.0
C575 C 0.26519 0.29018 0.02686 0.0
H576 H 0.32181 0.37897 0.963 0.0
C577 C 0.35448 0.37059 0.95831 0.0
H578 H 0.38366 0.31385 0.9592 0.0
H579 H 0.15245 0.11867 0.98386 0.0
H580 H 0.1557 0.08995 0.95152 0.0
H581 H 0.22967 0.15203 0.93061 0.0
H582 H 0.30091 0.24314 0.94192 0.0
C583 C 0.35467 0.32635 0.9646 0.0
C584 C 0.31072 0.2891 0.97739 0.0
C585 C 0.2694 0.23604 0.97052 0.0
C586 C 0.22649 0.20048 0.98251 0.0
C587 C 0.18579 0.14756 0.97532 0.0
C588 C 0.18718 0.1305 0.95678 0.0
C589 C 0.22885 0.16543 0.94501 0.0
C590 C 0.26955 0.21762 0.95171 0.0
H591 H 0.96555 0.12079 0.351 0.0
C592 C 0.00742 0.12859 0.35368 0.0
H593 H 0.09272 0.17743 0.34747 0.0
H594 H 0.04659 0.2521 0.27077 0.0
H595 H 0.07928 0.19023 0.25959 0.0
H596 H 0.095 0.13407 0.28145 0.0
H597 H 0.07844 0.1397 0.31468 0.0
C598 C 0.05074 0.16992 0.34532 0.0
C599 C 0.04217 0.20479 0.33227 0.0
C600 C 0.05184 0.20089 0.31289 0.0
C601 C 0.04202 0.23273 0.30025 0.0
C602 C 0.05262 0.22837 0.28098 0.0
C603 C 0.07152 0.19309 0.27436 0.0
C604 C 0.08043 0.16152 0.28668 0.0
C605 C 0.07079 0.16519 0.30572 0.0
H606 H 0.07699 0.37681 0.30432 0.0
C607 C 0.04375 0.35659 0.29389 0.0
H608 H 0.98117 0.27894 0.28264 0.0
H609 H 0.02601 0.22734 0.36882 0.0
H610 H 0.9904 0.28681 0.37994 0.0
H611 H 0.9667 0.33669 0.35779 0.0
H612 H 0.97949 0.32821 0.32445 0.0
C613 C 0.01209 0.30132 0.29359 0.0
C614 C 0.02239 0.26834 0.307 0.0
C615 C 0.01248 0.27209 0.3264 0.0
C616 C 0.02362 0.24126 0.33909 0.0
C617 C 0.01618 0.24805 0.35848 0.0
C618 C 0.99608 0.28236 0.36507 0.0
C619 C 0.98293 0.31059 0.35261 0.0
C620 C 0.99086 0.30563 0.3335 0.0
loop_
_geom_bond_atom_site_label_1
_geom_bond_atom_site_label_2
_geom_bond_distance
_geom_bond_site_symmetry_2
_ccdc_geom_bond_type
In0 O1 2.294 . S
In0 O2 2.326 . S
In0 O6 2.266 1_445 S
In0 O7 2.326 1_545 S
In0 O8 2.266 1_545 S
In0 O9 2.326 1_545 S
In0 O11 2.294 . S
In0 O12 2.326 . S
O1 In0 2.294 . S
O1 C10 1.240 . S
O2 In0 2.326 . S
O2 C10 1.252 . S
C3 O6 1.252 . S
C3 O7 1.260 1_655 S
C4 O11 1.240 . S
C4 O12 1.252 . S
C5 O8 1.252 . S
C5 O9 1.260 . S
O6 In0 2.266 1_665 S
O6 C3 1.252 . S
O7 In0 2.326 1_565 S
O7 C3 1.260 1_455 S
O8 In0 2.266 1_565 S
O8 C5 1.252 . S
O9 In0 2.326 1_565 S
O9 C5 1.260 . S
C10 O1 1.240 . S
C10 O2 1.252 . S
O11 In0 2.294 . S
O11 C4 1.240 . S
O12 In0 2.326 . S
O12 C4 1.252 . S
In13 O14 2.294 . S
In13 O15 2.326 1_455 S
In13 O19 2.266 . S
In13 O20 2.326 1_545 S
In13 O21 2.266 1_445 S
In13 O22 2.326 1_545 S
In13 O24 2.294 1_445 S
In13 O25 2.326 1_455 S
O14 In13 2.294 . S
O14 C23 1.240 . S
O15 In13 2.326 1_655 S
O15 C23 1.252 1_655 S
C16 O19 1.252 . S
C16 O20 1.260 1_545 S
C17 O24 1.240 1_545 S
C17 O25 1.252 . S
C18 O21 1.252 1_455 S
C18 O22 1.260 . S
O19 In13 2.266 . S
O19 C16 1.252 . S
O20 In13 2.326 1_565 S
O20 C16 1.260 1_565 S
O21 In13 2.266 1_665 S
O21 C18 1.252 1_655 S
O22 In13 2.326 1_565 S
O22 C18 1.260 . S
C23 O14 1.240 . S
C23 O15 1.252 1_455 S
O24 In13 2.294 1_665 S
O24 C17 1.240 1_565 S
O25 In13 2.326 1_655 S
O25 C17 1.252 . S
In26 O27 2.294 1_545 S
In26 O28 2.326 . S
In26 O32 2.266 . S
In26 O33 2.326 . S
In26 O34 2.266 . S
In26 O35 2.326 . S
In26 O37 2.294 . S
In26 O38 2.326 . S
O27 In26 2.294 1_565 S
O27 C36 1.240 1_455 S
O28 In26 2.326 . S
O28 C36 1.252 1_445 S
C29 O32 1.252 . S
C29 O33 1.260 . S
C30 O37 1.240 1_655 S
C30 O38 1.252 1_655 S
C31 O34 1.252 . S
C31 O35 1.260 . S
O32 In26 2.266 . S
O32 C29 1.252 . S
O33 In26 2.326 . S
O33 C29 1.260 . S
O34 In26 2.266 . S
O34 C31 1.252 . S
O35 In26 2.326 . S
O35 C31 1.260 . S
C36 O27 1.240 1_655 S
C36 O28 1.252 1_665 S
O37 In26 2.294 . S
O37 C30 1.240 1_455 S
O38 In26 2.326 . S
O38 C30 1.252 1_455 S
H39 O65 0.856 . S
H40 O68 0.854 . S
H41 C76 0.930 . S
H42 C77 0.930 . S
H43 C79 0.930 . S
H44 C80 0.930 . S
H45 C82 0.931 1_655 S
H46 C83 0.930 1_655 S
H47 C85 0.930 . S
H48 C86 0.929 . S
H49 C88 0.930 1_655 S
H50 C89 0.931 1_655 S
H51 C91 0.930 . S
H52 C92 0.929 . S
H53 C94 0.931 . S
H54 C95 0.930 . S
H55 C97 0.930 . S
H56 C98 0.932 . S
H57 C100 0.930 . S
H58 C101 0.929 . S
H59 C103 0.931 . S
H60 C104 0.930 . S
H61 C106 0.929 . S
H62 C107 0.931 . S
H63 C109 0.930 . S
H64 C110 0.929 . S
O65 H39 0.856 . S
O65 C111 1.300 . S
O66 C111 1.209 . S
O67 C112 1.199 . S
O68 H40 0.854 . S
O68 C112 1.297 . S
C69 C70 1.404 . S
C69 C74 1.397 . S
C69 C75 1.492 . S
C70 C69 1.404 . S
C70 C71 1.396 . S
C70 C81 1.492 . S
C71 C70 1.396 . S
C71 C72 1.397 . S
C71 C87 1.509 . S
C72 C71 1.397 . S
C72 C73 1.412 . S
C72 C93 1.485 . S
C73 C72 1.412 . S
C73 C74 1.388 . S
C73 C99 1.490 . S
C74 C69 1.397 . S
C74 C73 1.388 . S
C74 C105 1.519 . S
C75 C69 1.492 . S
C75 C76 1.363 1_455 S
C75 C80 1.390 . S
C76 H41 0.930 . S
C76 C75 1.363 1_655 S
C76 C77 1.372 . S
C77 H42 0.930 . S
C77 C76 1.372 . S
C77 C78 1.383 1_655 S
C78 C77 1.383 1_455 S
C78 C79 1.395 . S
C79 H43 0.930 . S
C79 C78 1.395 . S
C79 C80 1.362 . S
C80 H44 0.930 . S
C80 C75 1.390 . S
C80 C79 1.362 . S
C81 C70 1.492 . S
C81 C82 1.377 . S
C81 C86 1.397 . S
C82 H45 0.931 1_455 S
C82 C81 1.377 . S
C82 C83 1.376 . S
C83 H46 0.930 1_455 S
C83 C82 1.376 . S
C83 C84 1.376 . S
C84 C83 1.376 . S
C84 C85 1.378 . S
C84 C111 1.486 . S
C85 H47 0.930 . S
C85 C84 1.378 . S
C85 C86 1.376 . S
C86 H48 0.929 . S
C86 C81 1.397 . S
C86 C85 1.376 . S
C87 C71 1.509 . S
C87 C88 1.391 . S
C87 C92 1.386 . S
C88 H49 0.930 1_455 S
C88 C87 1.391 . S
C88 C89 1.375 . S
C89 H50 0.931 1_455 S
C89 C88 1.375 . S
C89 C90 1.375 . S
C90 C89 1.375 . S
C90 C91 1.361 . S
C91 H51 0.930 . S
C91 C90 1.361 . S
C91 C92 1.399 . S
C92 H52 0.929 . S
C92 C87 1.386 . S
C92 C91 1.399 . S
C93 C72 1.485 . S
C93 C94 1.394 1_455 S
C93 C98 1.360 . S
C94 H53 0.931 . S
C94 C93 1.394 1_655 S
C94 C95 1.372 . S
C95 H54 0.930 . S
C95 C94 1.372 . S
C95 C96 1.397 1_655 S
C96 C95 1.397 1_455 S
C96 C97 1.390 . S
C96 C112 1.476 . S
C97 H55 0.930 . S
C97 C96 1.390 . S
C97 C98 1.366 . S
C98 H56 0.932 . S
C98 C93 1.360 . S
C98 C97 1.366 . S
C99 C73 1.490 . S
C99 C100 1.380 1_455 S
C99 C104 1.386 . S
C100 H57 0.930 . S
C100 C99 1.380 1_655 S
C100 C101 1.381 . S
C101 H58 0.929 . S
C101 C100 1.381 . S
C101 C102 1.371 1_655 S
C102 C101 1.371 1_455 S
C102 C103 1.380 . S
C103 H59 0.931 . S
C103 C102 1.380 . S
C103 C104 1.387 . S
C104 H60 0.930 . S
C104 C99 1.386 . S
C104 C103 1.387 . S
C105 C74 1.519 . S
C105 C106 1.377 1_455 S
C105 C110 1.361 . S
C106 H61 0.929 . S
C106 C105 1.377 1_655 S
C106 C107 1.386 . S
C107 H62 0.931 . S
C107 C106 1.386 . S
C107 C108 1.363 1_655 S
C108 C107 1.363 1_455 S
C108 C109 1.385 . S
C109 H63 0.930 . S
C109 C108 1.385 . S
C109 C110 1.396 . S
C110 H64 0.929 . S
C110 C105 1.361 . S
C110 C109 1.396 . S
C111 O65 1.300 . S
C111 O66 1.209 . S
C111 C84 1.486 . S
C112 O67 1.199 . S
C112 O68 1.297 . S
C112 C96 1.476 . S
H113 O139 0.856 . S
H114 O142 0.854 . S
H115 C150 0.930 . S
H116 C151 0.930 . S
H117 C153 0.930 . S
H118 C154 0.930 . S
H119 C156 0.931 1_565 S
H120 C157 0.930 1_565 S
H121 C159 0.930 . S
H122 C160 0.929 . S
H123 C162 0.930 1_565 S
H124 C163 0.931 1_565 S
H125 C165 0.930 . S
H126 C166 0.929 . S
H127 C168 0.931 1_565 S
H128 C169 0.930 1_565 S
H129 C171 0.930 . S
H130 C172 0.932 . S
H131 C174 0.930 1_565 S
H132 C175 0.929 . S
H133 C177 0.931 . S
H134 C178 0.930 . S
H135 C180 0.929 1_565 S
H136 C181 0.931 1_565 S
H137 C183 0.930 . S
H138 C184 0.929 . S
O139 H113 0.856 . S
O139 C185 1.300 . S
O140 C185 1.209 . S
O141 C186 1.199 . S
O142 H114 0.854 . S
O142 C186 1.297 . S
C143 C144 1.404 . S
C143 C148 1.397 . S
C143 C149 1.492 . S
C144 C143 1.404 . S
C144 C145 1.396 . S
C144 C155 1.492 . S
C145 C144 1.396 . S
C145 C146 1.397 . S
C145 C161 1.509 . S
C146 C145 1.397 . S
C146 C147 1.412 . S
C146 C167 1.485 . S
C147 C146 1.412 . S
C147 C148 1.388 . S
C147 C173 1.490 . S
C148 C143 1.397 . S
C148 C147 1.388 . S
C148 C179 1.519 . S
C149 C143 1.492 . S
C149 C150 1.363 1_545 S
C149 C154 1.390 . S
C150 H115 0.930 . S
C150 C149 1.363 1_565 S
C150 C151 1.372 . S
C151 H116 0.930 . S
C151 C150 1.372 . S
C151 C152 1.383 1_565 S
C152 C151 1.383 1_545 S
C152 C153 1.395 . S
C153 H117 0.930 . S
C153 C152 1.395 . S
C153 C154 1.362 . S
C154 H118 0.930 . S
C154 C149 1.390 . S
C154 C153 1.362 . S
C155 C144 1.492 . S
C155 C156 1.377 . S
C155 C160 1.397 . S
C156 H119 0.931 1_545 S
C156 C155 1.377 . S
C156 C157 1.376 . S
C157 H120 0.930 1_545 S
C157 C156 1.376 . S
C157 C158 1.376 . S
C158 C157 1.376 . S
C158 C159 1.378 . S
C158 C185 1.486 . S
C159 H121 0.930 . S
C159 C158 1.378 . S
C159 C160 1.376 . S
C160 H122 0.929 . S
C160 C155 1.397 . S
C160 C159 1.376 . S
C161 C145 1.509 . S
C161 C162 1.391 . S
C161 C166 1.386 . S
C162 H123 0.930 1_545 S
C162 C161 1.391 . S
C162 C163 1.375 . S
C163 H124 0.931 1_545 S
C163 C162 1.375 . S
C163 C164 1.375 . S
C164 C163 1.375 . S
C164 C165 1.361 . S
C165 H125 0.930 . S
C165 C164 1.361 . S
C165 C166 1.399 . S
C166 H126 0.929 . S
C166 C161 1.386 . S
C166 C165 1.399 . S
C167 C146 1.485 . S
C167 C168 1.394 . S
C167 C172 1.360 . S
C168 H127 0.931 1_545 S
C168 C167 1.394 . S
C168 C169 1.372 . S
C169 H128 0.930 1_545 S
C169 C168 1.372 . S
C169 C170 1.397 . S
C170 C169 1.397 . S
C170 C171 1.390 . S
C170 C186 1.476 . S
C171 H129 0.930 . S
C171 C170 1.390 . S
C171 C172 1.366 . S
C172 H130 0.932 . S
C172 C167 1.360 . S
C172 C171 1.366 . S
C173 C147 1.490 . S
C173 C174 1.380 . S
C173 C178 1.386 . S
C174 H131 0.930 1_545 S
C174 C173 1.380 . S
C174 C175 1.381 1_545 S
C175 H132 0.929 . S
C175 C174 1.381 1_565 S
C175 C176 1.371 1_565 S
C176 C175 1.371 1_545 S
C176 C177 1.380 . S
C177 H133 0.931 . S
C177 C176 1.380 . S
C177 C178 1.387 . S
C178 H134 0.930 . S
C178 C173 1.386 . S
C178 C177 1.387 . S
C179 C148 1.519 . S
C179 C180 1.377 . S
C179 C184 1.361 . S
C180 H135 0.929 1_545 S
C180 C179 1.377 . S
C180 C181 1.386 . S
C181 H136 0.931 1_545 S
C181 C180 1.386 . S
C181 C182 1.363 . S
C182 C181 1.363 . S
C182 C183 1.385 . S
C183 H137 0.930 . S
C183 C182 1.385 . S
C183 C184 1.396 . S
C184 H138 0.929 . S
C184 C179 1.361 . S
C184 C183 1.396 . S
C185 O139 1.300 . S
C185 O140 1.209 . S
C185 C158 1.486 . S
C186 O141 1.199 . S
C186 O142 1.297 . S
C186 C170 1.476 . S
H187 O213 0.856 . S
H188 O216 0.854 . S
H189 C224 0.930 . S
H190 C225 0.930 . S
H191 C227 0.930 . S
H192 C228 0.930 . S
H193 C230 0.931 . S
H194 C231 0.930 . S
H195 C233 0.930 . S
H196 C234 0.929 . S
H197 C236 0.930 . S
H198 C237 0.931 . S
H199 C239 0.930 . S
H200 C240 0.929 . S
H201 C242 0.931 . S
H202 C243 0.930 . S
H203 C245 0.930 . S
H204 C246 0.932 . S
H205 C248 0.930 . S
H206 C249 0.929 . S
H207 C251 0.931 . S
H208 C252 0.930 . S
H209 C254 0.929 . S
H210 C255 0.931 . S
H211 C257 0.930 . S
H212 C258 0.929 . S
O213 H187 0.856 . S
O213 C259 1.300 . S
O214 C259 1.209 . S
O215 C260 1.199 . S
O216 H188 0.854 . S
O216 C260 1.297 . S
C217 C218 1.404 . S
C217 C222 1.397 . S
C217 C223 1.492 . S
C218 C217 1.404 . S
C218 C219 1.396 . S
C218 C229 1.492 . S
C219 C218 1.396 . S
C219 C220 1.397 . S
C219 C235 1.509 . S
C220 C219 1.397 . S
C220 C221 1.412 . S
C220 C241 1.485 . S
C221 C220 1.412 . S
C221 C222 1.388 . S
C221 C247 1.490 . S
C222 C217 1.397 . S
C222 C221 1.388 . S
C222 C253 1.519 . S
C223 C217 1.492 . S
C223 C224 1.363 . S
C223 C228 1.390 . S
C224 H189 0.930 . S
C224 C223 1.363 . S
C224 C225 1.372 . S
C225 H190 0.930 . S
C225 C224 1.372 . S
C225 C226 1.383 . S
C226 C225 1.383 . S
C226 C227 1.395 . S
C227 H191 0.930 . S
C227 C226 1.395 . S
C227 C228 1.362 . S
C228 H192 0.930 . S
C228 C223 1.390 . S
C228 C227 1.362 . S
C229 C218 1.492 . S
C229 C230 1.377 . S
C229 C234 1.397 . S
C230 H193 0.931 . S
C230 C229 1.377 . S
C230 C231 1.376 . S
C231 H194 0.930 . S
C231 C230 1.376 . S
C231 C232 1.376 . S
C232 C231 1.376 . S
C232 C233 1.378 . S
C232 C259 1.486 1_556 S
C233 H195 0.930 . S
C233 C232 1.378 . S
C233 C234 1.376 . S
C234 H196 0.929 . S
C234 C229 1.397 . S
C234 C233 1.376 . S
C235 C219 1.509 . S
C235 C236 1.391 . S
C235 C240 1.386 . S
C236 H197 0.930 . S
C236 C235 1.391 . S
C236 C237 1.375 . S
C237 H198 0.931 . S
C237 C236 1.375 . S
C237 C238 1.375 . S
C238 C237 1.375 . S
C238 C239 1.361 . S
C239 H199 0.930 . S
C239 C238 1.361 . S
C239 C240 1.399 . S
C240 H200 0.929 . S
C240 C235 1.386 . S
C240 C239 1.399 . S
C241 C220 1.485 . S
C241 C242 1.394 . S
C241 C246 1.360 . S
C242 H201 0.931 . S
C242 C241 1.394 . S
C242 C243 1.372 . S
C243 H202 0.930 . S
C243 C242 1.372 . S
C243 C244 1.397 . S
C244 C243 1.397 . S
C244 C245 1.390 . S
C244 C260 1.476 . S
C245 H203 0.930 . S
C245 C244 1.390 . S
C245 C246 1.366 . S
C246 H204 0.932 . S
C246 C241 1.360 . S
C246 C245 1.366 . S
C247 C221 1.490 . S
C247 C248 1.380 . S
C247 C252 1.386 . S
C248 H205 0.930 . S
C248 C247 1.380 . S
C248 C249 1.381 . S
C249 H206 0.929 . S
C249 C248 1.381 . S
C249 C250 1.371 . S
C250 C249 1.371 . S
C250 C251 1.380 . S
C251 H207 0.931 . S
C251 C250 1.380 . S
C251 C252 1.387 . S
C252 H208 0.930 . S
C252 C247 1.386 . S
C252 C251 1.387 . S
C253 C222 1.519 . S
C253 C254 1.377 . S
C253 C258 1.361 . S
C254 H209 0.929 . S
C254 C253 1.377 . S
C254 C255 1.386 . S
C255 H210 0.931 . S
C255 C254 1.386 . S
C255 C256 1.363 . S
C256 C255 1.363 . S
C256 C257 1.385 . S
C257 H211 0.930 . S
C257 C256 1.385 . S
C257 C258 1.396 . S
C258 H212 0.929 . S
C258 C253 1.361 . S
C258 C257 1.396 . S
C259 O213 1.300 . S
C259 O214 1.209 . S
C259 C232 1.486 1_554 S
C260 O215 1.199 . S
C260 O216 1.297 . S
C260 C244 1.476 . S
H261 C262 0.951 . S
C262 H261 0.951 . S
C262 C268 1.265 . S
H263 C268 0.950 . S
H264 C272 0.949 . S
H265 C273 0.950 . S
H266 C274 0.951 . S
H267 C275 0.951 . S
C268 C262 1.265 . S
C268 H263 0.950 . S
C268 C269 1.478 . S
C269 C268 1.478 . S
C269 C270 1.397 . S
C269 C286 1.394 . S
C270 C269 1.397 . S
C270 C271 1.438 . S
C270 C275 1.429 . S
C271 C270 1.438 . S
C271 C272 1.428 . S
C271 C284 1.394 . S
C272 H264 0.949 . S
C272 C271 1.428 . S
C272 C273 1.345 . S
C273 H265 0.950 . S
C273 C272 1.345 . S
C273 C274 1.424 . S
C274 H266 0.951 . S
C274 C273 1.424 . S
C274 C275 1.347 . S
C275 H267 0.951 . S
C275 C270 1.429 . S
C275 C274 1.347 . S
H276 C277 0.951 . S
C277 H276 0.951 . S
C277 C283 1.265 1_455 S
H278 C283 0.950 . S
H279 C287 0.949 1_455 S
H280 C288 0.950 . S
H281 C289 0.951 . S
H282 C290 0.951 . S
C283 C277 1.265 1_655 S
C283 H278 0.950 . S
C283 C284 1.478 1_655 S
C284 C271 1.394 . S
C284 C283 1.478 1_455 S
C284 C285 1.397 1_455 S
C285 C284 1.397 1_655 S
C285 C286 1.438 1_655 S
C285 C290 1.429 . S
C286 C269 1.394 . S
C286 C285 1.438 1_455 S
C286 C287 1.428 1_455 S
C287 H279 0.949 1_655 S
C287 C286 1.428 1_655 S
C287 C288 1.345 . S
C288 H280 0.950 . S
C288 C287 1.345 . S
C288 C289 1.424 . S
C289 H281 0.951 . S
C289 C288 1.424 . S
C289 C290 1.347 . S
C290 H282 0.951 . S
C290 C285 1.429 . S
C290 C289 1.347 . S
H291 C292 0.951 . S
C292 H291 0.951 . S
C292 C298 1.265 . S
H293 C298 0.950 . S
H294 C302 0.949 . S
H295 C303 0.950 . S
H296 C304 0.951 . S
H297 C305 0.951 . S
C298 C292 1.265 . S
C298 H293 0.950 . S
C298 C299 1.478 . S
C299 C298 1.478 . S
C299 C300 1.397 . S
C299 C316 1.394 1_545 S
C300 C299 1.397 . S
C300 C301 1.438 . S
C300 C305 1.429 . S
C301 C300 1.438 . S
C301 C302 1.428 . S
C301 C314 1.394 . S
C302 H294 0.949 . S
C302 C301 1.428 . S
C302 C303 1.345 . S
C303 H295 0.950 . S
C303 C302 1.345 . S
C303 C304 1.424 . S
C304 H296 0.951 . S
C304 C303 1.424 . S
C304 C305 1.347 . S
C305 H297 0.951 . S
C305 C300 1.429 . S
C305 C304 1.347 . S
H306 C307 0.951 . S
C307 H306 0.951 . S
C307 C313 1.265 . S
H308 C313 0.950 . S
H309 C317 0.949 . S
H310 C318 0.950 . S
H311 C319 0.951 . S
H312 C320 0.951 . S
C313 C307 1.265 . S
C313 H308 0.950 . S
C313 C314 1.478 . S
C314 C301 1.394 . S
C314 C313 1.478 . S
C314 C315 1.397 1_545 S
C315 C314 1.397 1_565 S
C315 C316 1.438 . S
C315 C320 1.429 . S
C316 C299 1.394 1_565 S
C316 C315 1.438 . S
C316 C317 1.428 . S
C317 H309 0.949 . S
C317 C316 1.428 . S
C317 C318 1.345 . S
C318 H310 0.950 . S
C318 C317 1.345 . S
C318 C319 1.424 . S
C319 H311 0.951 . S
C319 C318 1.424 . S
C319 C320 1.347 . S
C320 H312 0.951 . S
C320 C315 1.429 . S
C320 C319 1.347 . S
H321 C322 0.951 . S
C322 H321 0.951 . S
C322 C328 1.265 . S
H323 C328 0.950 . S
H324 C332 0.949 . S
H325 C333 0.950 . S
H326 C334 0.951 . S
H327 C335 0.951 . S
C328 C322 1.265 . S
C328 H323 0.950 . S
C328 C329 1.478 . S
C329 C328 1.478 . S
C329 C330 1.397 . S
C329 C346 1.394 . S
C330 C329 1.397 . S
C330 C331 1.438 . S
C330 C335 1.429 . S
C331 C330 1.438 . S
C331 C332 1.428 . S
C331 C344 1.394 . S
C332 H324 0.949 . S
C332 C331 1.428 . S
C332 C333 1.345 . S
C333 H325 0.950 . S
C333 C332 1.345 . S
C333 C334 1.424 . S
C334 H326 0.951 . S
C334 C333 1.424 . S
C334 C335 1.347 . S
C335 H327 0.951 . S
C335 C330 1.429 . S
C335 C334 1.347 . S
H336 C337 0.951 . S
C337 H336 0.951 . S
C337 C343 1.265 . S
H338 C343 0.950 . S
H339 C347 0.949 . S
H340 C348 0.950 . S
H341 C349 0.951 . S
H342 C350 0.951 . S
C343 C337 1.265 . S
C343 H338 0.950 . S
C343 C344 1.478 . S
C344 C331 1.394 . S
C344 C343 1.478 . S
C344 C345 1.397 . S
C345 C344 1.397 . S
C345 C346 1.438 . S
C345 C350 1.429 . S
C346 C329 1.394 . S
C346 C345 1.438 . S
C346 C347 1.428 . S
C347 H339 0.949 . S
C347 C346 1.428 . S
C347 C348 1.345 . S
C348 H340 0.950 . S
C348 C347 1.345 . S
C348 C349 1.424 . S
C349 H341 0.951 . S
C349 C348 1.424 . S
C349 C350 1.347 . S
C350 H342 0.951 . S
C350 C345 1.429 . S
C350 C349 1.347 . S
H351 C352 0.951 . S
C352 H351 0.951 . S
C352 C358 1.265 . S
H353 C358 0.950 1_655 S
H354 C362 0.949 . S
H355 C363 0.950 . S
H356 C364 0.951 . S
H357 C365 0.951 . S
C358 C352 1.265 . S
C358 H353 0.950 1_455 S
C358 C359 1.478 . S
C359 C358 1.478 . S
C359 C360 1.397 . S
C359 C376 1.394 . S
C360 C359 1.397 . S
C360 C361 1.438 . S
C360 C365 1.429 1_455 S
C361 C360 1.438 . S
C361 C362 1.428 . S
C361 C374 1.394 . S
C362 H354 0.949 . S
C362 C361 1.428 . S
C362 C363 1.345 1_455 S
C363 H355 0.950 . S
C363 C362 1.345 1_655 S
C363 C364 1.424 . S
C364 H356 0.951 . S
C364 C363 1.424 . S
C364 C365 1.347 . S
C365 H357 0.951 . S
C365 C360 1.429 1_655 S
C365 C364 1.347 . S
H366 C367 0.951 . S
C367 H366 0.951 . S
C367 C373 1.265 . S
H368 C373 0.950 . S
H369 C377 0.949 . S
H370 C378 0.950 1_545 S
H371 C379 0.951 . S
H372 C380 0.951 . S
C373 C367 1.265 . S
C373 H368 0.950 . S
C373 C374 1.478 . S
C374 C361 1.394 . S
C374 C373 1.478 . S
C374 C375 1.397 . S
C375 C374 1.397 . S
C375 C376 1.438 . S
C375 C380 1.429 . S
C376 C359 1.394 . S
C376 C375 1.438 . S
C376 C377 1.428 . S
C377 H369 0.949 . S
C377 C376 1.428 . S
C377 C378 1.345 . S
C378 H370 0.950 1_565 S
C378 C377 1.345 . S
C378 C379 1.424 . S
C379 H371 0.951 . S
C379 C378 1.424 . S
C379 C380 1.347 . S
C380 H372 0.951 . S
C380 C375 1.429 . S
C380 C379 1.347 . S
H381 C382 0.951 . S
C382 H381 0.951 . S
C382 C388 1.265 . S
H383 C388 0.950 1_565 S
H384 C392 0.949 . S
H385 C393 0.950 . S
H386 C394 0.951 . S
H387 C395 0.951 . S
C388 C382 1.265 . S
C388 H383 0.950 1_545 S
C388 C389 1.478 . S
C389 C388 1.478 . S
C389 C390 1.397 . S
C389 C406 1.394 . S
C390 C389 1.397 . S
C390 C391 1.438 . S
C390 C395 1.429 . S
C391 C390 1.438 . S
C391 C392 1.428 . S
C391 C404 1.394 . S
C392 H384 0.949 . S
C392 C391 1.428 . S
C392 C393 1.345 . S
C393 H385 0.950 . S
C393 C392 1.345 . S
C393 C394 1.424 . S
C394 H386 0.951 . S
C394 C393 1.424 . S
C394 C395 1.347 . S
C395 H387 0.951 . S
C395 C390 1.429 . S
C395 C394 1.347 . S
H396 C397 0.951 . S
C397 H396 0.951 . S
C397 C403 1.265 . S
H398 C403 0.950 . S
H399 C407 0.949 . S
H400 C408 0.950 . S
H401 C409 0.951 . S
H402 C410 0.951 . S
C403 C397 1.265 . S
C403 H398 0.950 . S
C403 C404 1.478 . S
C404 C391 1.394 . S
C404 C403 1.478 . S
C404 C405 1.397 . S
C405 C404 1.397 . S
C405 C406 1.438 . S
C405 C410 1.429 . S
C406 C389 1.394 . S
C406 C405 1.438 . S
C406 C407 1.428 1_545 S
C407 H399 0.949 . S
C407 C406 1.428 1_565 S
C407 C408 1.345 . S
C408 H400 0.950 . S
C408 C407 1.345 . S
C408 C409 1.424 . S
C409 H401 0.951 . S
C409 C408 1.424 . S
C409 C410 1.347 1_565 S
C410 H402 0.951 . S
C410 C405 1.429 . S
C410 C409 1.347 1_545 S
H411 C412 0.951 . S
C412 H411 0.951 . S
C412 C418 1.265 . S
H413 C418 0.950 . S
H414 C422 0.949 . S
H415 C423 0.950 . S
H416 C424 0.951 . S
H417 C425 0.951 . S
C418 C412 1.265 . S
C418 H413 0.950 . S
C418 C419 1.478 . S
C419 C418 1.478 . S
C419 C420 1.397 . S
C419 C436 1.394 . S
C420 C419 1.397 . S
C420 C421 1.438 . S
C420 C425 1.429 . S
C421 C420 1.438 . S
C421 C422 1.428 . S
C421 C434 1.394 . S
C422 H414 0.949 . S
C422 C421 1.428 . S
C422 C423 1.345 . S
C423 H415 0.950 . S
C423 C422 1.345 . S
C423 C424 1.424 . S
C424 H416 0.951 . S
C424 C423 1.424 . S
C424 C425 1.347 . S
C425 H417 0.951 . S
C425 C420 1.429 . S
C425 C424 1.347 . S
H426 C427 0.951 . S
C427 H426 0.951 . S
C427 C433 1.265 . S
H428 C433 0.950 . S
H429 C437 0.949 . S
H430 C438 0.950 . S
H431 C439 0.951 . S
H432 C440 0.951 . S
C433 C427 1.265 . S
C433 H428 0.950 . S
C433 C434 1.478 . S
C434 C421 1.394 . S
C434 C433 1.478 . S
C434 C435 1.397 . S
C435 C434 1.397 . S
C435 C436 1.438 . S
C435 C440 1.429 . S
C436 C419 1.394 . S
C436 C435 1.438 . S
C436 C437 1.428 . S
C437 H429 0.949 . S
C437 C436 1.428 . S
C437 C438 1.345 . S
C438 H430 0.950 . S
C438 C437 1.345 . S
C438 C439 1.424 . S
C439 H431 0.951 . S
C439 C438 1.424 . S
C439 C440 1.347 . S
C440 H432 0.951 . S
C440 C435 1.429 . S
C440 C439 1.347 . S
H441 C442 0.951 . S
C442 H441 0.951 . S
C442 C448 1.265 . S
H443 C448 0.950 . S
H444 C452 0.949 . S
H445 C453 0.950 . S
H446 C454 0.951 . S
H447 C455 0.951 . S
C448 C442 1.265 . S
C448 H443 0.950 . S
C448 C449 1.478 . S
C449 C448 1.478 . S
C449 C450 1.397 . S
C449 C466 1.394 . S
C450 C449 1.397 . S
C450 C451 1.438 . S
C450 C455 1.429 . S
C451 C450 1.438 . S
C451 C452 1.428 . S
C451 C464 1.394 . S
C452 H444 0.949 . S
C452 C451 1.428 . S
C452 C453 1.345 . S
C453 H445 0.950 . S
C453 C452 1.345 . S
C453 C454 1.424 . S
C454 H446 0.951 . S
C454 C453 1.424 . S
C454 C455 1.347 . S
C455 H447 0.951 . S
C455 C450 1.429 . S
C455 C454 1.347 . S
H456 C457 0.951 . S
C457 H456 0.951 . S
C457 C463 1.265 . S
H458 C463 0.950 . S
H459 C467 0.949 . S
H460 C468 0.950 . S
H461 C469 0.951 . S
H462 C470 0.951 . S
C463 C457 1.265 . S
C463 H458 0.950 . S
C463 C464 1.478 . S
C464 C451 1.394 . S
C464 C463 1.478 . S
C464 C465 1.397 . S
C465 C464 1.397 . S
C465 C466 1.438 . S
C465 C470 1.429 1_545 S
C466 C449 1.394 . S
C466 C465 1.438 . S
C466 C467 1.428 1_545 S
C467 H459 0.949 . S
C467 C466 1.428 1_565 S
C467 C468 1.345 . S
C468 H460 0.950 . S
C468 C467 1.345 . S
C468 C469 1.424 . S
C469 H461 0.951 . S
C469 C468 1.424 . S
C469 C470 1.347 . S
C470 H462 0.951 . S
C470 C465 1.429 1_565 S
C470 C469 1.347 . S
H471 C472 0.951 . S
C472 H471 0.951 . S
C472 C478 1.265 . S
H473 C478 0.950 . S
H474 C482 0.949 . S
H475 C483 0.950 . S
H476 C484 0.951 . S
H477 C485 0.951 . S
C478 C472 1.265 . S
C478 H473 0.950 . S
C478 C479 1.478 1_554 S
C479 C478 1.478 1_556 S
C479 C480 1.397 . S
C479 C496 1.394 . S
C480 C479 1.397 . S
C480 C481 1.438 . S
C480 C485 1.429 1_556 S
C481 C480 1.438 . S
C481 C482 1.428 . S
C481 C494 1.394 . S
C482 H474 0.949 . S
C482 C481 1.428 . S
C482 C483 1.345 . S
C483 H475 0.950 . S
C483 C482 1.345 . S
C483 C484 1.424 1_556 S
C484 H476 0.951 . S
C484 C483 1.424 1_554 S
C484 C485 1.347 . S
C485 H477 0.951 . S
C485 C480 1.429 1_554 S
C485 C484 1.347 . S
H486 C487 0.951 . S
C487 H486 0.951 . S
C487 C493 1.265 . S
H488 C493 0.950 . S
H489 C497 0.949 . S
H490 C498 0.950 1_545 S
H491 C499 0.951 . S
H492 C500 0.951 . S
C493 C487 1.265 . S
C493 H488 0.950 . S
C493 C494 1.478 . S
C494 C481 1.394 . S
C494 C493 1.478 . S
C494 C495 1.397 . S
C495 C494 1.397 . S
C495 C496 1.438 . S
C495 C500 1.429 . S
C496 C479 1.394 . S
C496 C495 1.438 . S
C496 C497 1.428 . S
C497 H489 0.949 . S
C497 C496 1.428 . S
C497 C498 1.345 . S
C498 H490 0.950 1_565 S
C498 C497 1.345 . S
C498 C499 1.424 . S
C499 H491 0.951 . S
C499 C498 1.424 . S
C499 C500 1.347 . S
C500 H492 0.951 . S
C500 C495 1.429 . S
C500 C499 1.347 . S
H501 C502 0.951 . S
C502 H501 0.951 . S
C502 C508 1.265 . S
H503 C508 0.950 . S
H504 C512 0.949 . S
H505 C513 0.950 . S
H506 C514 0.951 . S
H507 C515 0.951 . S
C508 C502 1.265 . S
C508 H503 0.950 . S
C508 C509 1.478 . S
C509 C508 1.478 . S
C509 C510 1.397 . S
C509 C526 1.394 1_455 S
C510 C509 1.397 . S
C510 C511 1.438 . S
C510 C515 1.429 . S
C511 C510 1.438 . S
C511 C512 1.428 . S
C511 C524 1.394 . S
C512 H504 0.949 . S
C512 C511 1.428 . S
C512 C513 1.345 . S
C513 H505 0.950 . S
C513 C512 1.345 . S
C513 C514 1.424 . S
C514 H506 0.951 . S
C514 C513 1.424 . S
C514 C515 1.347 . S
C515 H507 0.951 . S
C515 C510 1.429 . S
C515 C514 1.347 . S
H516 C517 0.951 . S
C517 H516 0.951 . S
C517 C523 1.265 1_455 S
H518 C523 0.950 . S
H519 C527 0.949 . S
H520 C528 0.950 . S
H521 C529 0.951 . S
H522 C530 0.951 . S
C523 C517 1.265 1_655 S
C523 H518 0.950 . S
C523 C524 1.478 1_655 S
C524 C511 1.394 . S
C524 C523 1.478 1_455 S
C524 C525 1.397 1_455 S
C525 C524 1.397 1_655 S
C525 C526 1.438 . S
C525 C530 1.429 . S
C526 C509 1.394 1_655 S
C526 C525 1.438 . S
C526 C527 1.428 . S
C527 H519 0.949 . S
C527 C526 1.428 . S
C527 C528 1.345 . S
C528 H520 0.950 . S
C528 C527 1.345 . S
C528 C529 1.424 . S
C529 H521 0.951 . S
C529 C528 1.424 . S
C529 C530 1.347 . S
C530 H522 0.951 . S
C530 C525 1.429 . S
C530 C529 1.347 . S
H531 C532 0.951 . S
C532 H531 0.951 . S
C532 C538 1.265 . S
H533 C538 0.950 . S
H534 C542 0.949 . S
H535 C543 0.950 . S
H536 C544 0.951 . S
H537 C545 0.951 . S
C538 C532 1.265 . S
C538 H533 0.950 . S
C538 C539 1.478 . S
C539 C538 1.478 . S
C539 C540 1.397 . S
C539 C556 1.394 . S
C540 C539 1.397 . S
C540 C541 1.438 . S
C540 C545 1.429 . S
C541 C540 1.438 . S
C541 C542 1.428 . S
C541 C554 1.394 . S
C542 H534 0.949 . S
C542 C541 1.428 . S
C542 C543 1.345 . S
C543 H535 0.950 . S
C543 C542 1.345 . S
C543 C544 1.424 . S
C544 H536 0.951 . S
C544 C543 1.424 . S
C544 C545 1.347 . S
C545 H537 0.951 . S
C545 C540 1.429 . S
C545 C544 1.347 . S
H546 C547 0.951 . S
C547 H546 0.951 . S
C547 C553 1.265 . S
H548 C553 0.950 . S
H549 C557 0.949 . S
H550 C558 0.950 . S
H551 C559 0.951 . S
H552 C560 0.951 . S
C553 C547 1.265 . S
C553 H548 0.950 . S
C553 C554 1.478 . S
C554 C541 1.394 . S
C554 C553 1.478 . S
C554 C555 1.397 . S
C555 C554 1.397 . S
C555 C556 1.438 . S
C555 C560 1.429 1_545 S
C556 C539 1.394 . S
C556 C555 1.438 . S
C556 C557 1.428 1_545 S
C557 H549 0.949 . S
C557 C556 1.428 1_565 S
C557 C558 1.345 . S
C558 H550 0.950 . S
C558 C557 1.345 . S
C558 C559 1.424 . S
C559 H551 0.951 . S
C559 C558 1.424 . S
C559 C560 1.347 . S
C560 H552 0.951 . S
C560 C555 1.429 1_565 S
C560 C559 1.347 . S
H561 C562 0.951 . S
C562 H561 0.951 . S
C562 C568 1.265 . S
H563 C568 0.950 . S
H564 C572 0.949 . S
H565 C573 0.950 . S
H566 C574 0.951 . S
H567 C575 0.951 . S
C568 C562 1.265 . S
C568 H563 0.950 . S
C568 C569 1.478 . S
C569 C568 1.478 . S
C569 C570 1.397 . S
C569 C586 1.394 1_554 S
C570 C569 1.397 . S
C570 C571 1.438 . S
C570 C575 1.429 . S
C571 C570 1.438 . S
C571 C572 1.428 . S
C571 C584 1.394 1_554 S
C572 H564 0.949 . S
C572 C571 1.428 . S
C572 C573 1.345 . S
C573 H565 0.950 . S
C573 C572 1.345 . S
C573 C574 1.424 . S
C574 H566 0.951 . S
C574 C573 1.424 . S
C574 C575 1.347 . S
C575 H567 0.951 . S
C575 C570 1.429 . S
C575 C574 1.347 . S
H576 C577 0.951 . S
C577 H576 0.951 . S
C577 C583 1.265 . S
H578 C583 0.950 . S
H579 C587 0.957 . S
H580 C588 0.950 . S
H581 C589 0.951 . S
H582 C590 0.951 . S
C583 C577 1.265 . S
C583 H578 0.950 . S
C583 C584 1.478 . S
C584 C571 1.394 1_556 S
C584 C583 1.478 . S
C584 C585 1.397 . S
C585 C584 1.397 . S
C585 C586 1.438 . S
C585 C590 1.429 . S
C586 C569 1.394 1_556 S
C586 C585 1.438 . S
C586 C587 1.428 . S
C587 H579 0.957 . S
C587 C586 1.428 . S
C587 C588 1.345 . S
C588 H580 0.950 . S
C588 C587 1.345 . S
C588 C589 1.424 . S
C589 H581 0.951 . S
C589 C588 1.424 . S
C589 C590 1.347 . S
C590 H582 0.951 . S
C590 C585 1.429 . S
C590 C589 1.347 . S
H591 C592 0.951 1_655 S
C592 H591 0.951 1_455 S
C592 C598 1.265 . S
H593 C598 0.950 . S
H594 C602 0.949 . S
H595 C603 0.950 . S
H596 C604 0.951 . S
H597 C605 0.951 . S
C598 C592 1.265 . S
C598 H593 0.950 . S
C598 C599 1.478 . S
C599 C598 1.478 . S
C599 C600 1.397 . S
C599 C616 1.394 . S
C600 C599 1.397 . S
C600 C601 1.438 . S
C600 C605 1.429 . S
C601 C600 1.438 . S
C601 C602 1.428 . S
C601 C614 1.394 . S
C602 H594 0.949 . S
C602 C601 1.428 . S
C602 C603 1.345 . S
C603 H595 0.950 . S
C603 C602 1.345 . S
C603 C604 1.424 . S
C604 H596 0.951 . S
C604 C603 1.424 . S
C604 C605 1.347 . S
C605 H597 0.951 . S
C605 C600 1.429 . S
C605 C604 1.347 . S
H606 C607 0.951 . S
C607 H606 0.951 . S
C607 C613 1.265 . S
H608 C613 0.950 1_655 S
H609 C617 0.949 . S
H610 C618 0.950 . S
H611 C619 0.951 . S
H612 C620 0.951 . S
C613 C607 1.265 . S
C613 H608 0.950 1_455 S
C613 C614 1.478 . S
C614 C601 1.394 . S
C614 C613 1.478 . S
C614 C615 1.397 . S
C615 C614 1.397 . S
C615 C616 1.438 . S
C615 C620 1.429 . S
C616 C599 1.394 . S
C616 C615 1.438 . S
C616 C617 1.428 . S
C617 H609 0.949 . S
C617 C616 1.428 . S
C617 C618 1.345 . S
C618 H610 0.950 . S
C618 C617 1.345 . S
C618 C619 1.424 . S
C619 H611 0.951 . S
C619 C618 1.424 . S
C619 C620 1.347 . S
C620 H612 0.951 . S
C620 C615 1.429 . S
C620 C619 1.347 . S
C277 C78 1.439 . S
C262 C10 1.512 . S
C292 C17 1.455 . S
C307 C152 1.421 . S
C322 C36 2.178 . S
C337 C256 2.174 . S
C352 C5 0.867 . S
C367 C90 0.835 . S
C397 C164 0.841 . S
C382 C16 0.830 . S
C412 C31 1.625 . S
C427 C250 1.549 . S
C457 C182 2.151 . S
C442 C30 2.156 . S
C472 C3 1.493 . S
C487 C226 1.413 . S
C517 C102 1.461 . S
C502 C18 1.643 . S
C547 C176 1.416 . S
C532 C29 1.577 . S
C577 C238 0.816 . S
C562 C4 0.845 . S
C592 C23 2.229 . S
C607 C108 2.227 . S
