# Generated by pormake.
# Topology tsx, (6,3)-cn, num edge types: 1
# Building blocks:
#     Node 0, Type 0, BuildingBlock: CIFDUS_clean_sbu_1, # of connection points: 6
#     Node 1, Type 0, BuildingBlock: CIFDUS_clean_sbu_1, # of connection points: 6
#     Node 2, Type 1, BuildingBlock: MIDCAF_clean_linker_0, # of connection points: 3
#     Node 3, Type 1, BuildingBlock: MIDCAF_clean_linker_0, # of connection points: 3
#     Node 4, Type 1, BuildingBlock: MIDCAF_clean_linker_0, # of connection points: 3
#     Node 5, Type 1, BuildingBlock: MIDCAF_clean_linker_0, # of connection points: 3
#     Edge 6, Type (0, 1), BuildingBlock: UVAHIK_clean_linker_0, # of connection points: 2
#     Edge 7, Type (0, 1), BuildingBlock: UVAHIK_clean_linker_0, # of connection points: 2
#     Edge 8, Type (0, 1), BuildingBlock: UVAHIK_clean_linker_0, # of connection points: 2
#     Edge 9, Type (0, 1), BuildingBlock: UVAHIK_clean_linker_0, # of connection points: 2
#     Edge 10, Type (0, 1), BuildingBlock: UVAHIK_clean_linker_0, # of connection points: 2
#     Edge 11, Type (0, 1), BuildingBlock: UVAHIK_clean_linker_0, # of connection points: 2
#     Edge 12, Type (0, 1), BuildingBlock: UVAHIK_clean_linker_0, # of connection points: 2
#     Edge 13, Type (0, 1), BuildingBlock: UVAHIK_clean_linker_0, # of connection points: 2
#     Edge 14, Type (0, 1), BuildingBlock: UVAHIK_clean_linker_0, # of connection points: 2
#     Edge 15, Type (0, 1), BuildingBlock: UVAHIK_clean_linker_0, # of connection points: 2
#     Edge 16, Type (0, 1), BuildingBlock: UVAHIK_clean_linker_0, # of connection points: 2
#     Edge 17, Type (0, 1), BuildingBlock: UVAHIK_clean_linker_0, # of connection points: 2
# Relax obj value: 0.129
# Max RMSD: 0.156
# Mean RMSD: 0.119
data_MOF--net-tsx--node1-CIFDUS_clean_sbu_1--node2-MIDCAF_clean_linker_0--edge1-UVAHIK_clean_linker_0
_symmetry_space_group_name_H-M    P1
_symmetry_Int_Tables_number       1
_symmetry_cell_setting            triclinic
loop_
_symmetry_equiv_pos_as_xyz
'x, y, z'
_cell_length_a     26.874314
_cell_length_b     33.219694
_cell_length_c     55.479308
_cell_angle_alpha  96.686522
_cell_angle_beta   91.389026
_cell_angle_gamma 91.064738
loop_
_atom_site_label
_atom_site_type_symbol
_atom_site_fract_x
_atom_site_fract_y
_atom_site_fract_z
_atom_type_partial_charge
O0 O 0.03145 0.10835 0.01994 0.0
Mn1 Mn 0.06864 0.05321 0.01182 0.0
O2 O 0.95074 0.09626 0.0092 0.0
Mn3 Mn 0.96229 0.04998 0.98848 0.0
O4 O 0.10565 0.99826 0.00345 0.0
O5 O 0.13336 0.08432 0.01851 0.0
Mn6 Mn 0.17401 0.0573 0.03571 0.0
O7 O 0.06457 0.04267 0.04825 0.0
O8 O 0.18504 0.00907 0.01671 0.0
O9 O 0.07274 0.0629 0.9755 0.0
O10 O 0.9941 0.05837 0.96005 0.0
O11 O 0.20844 0.10385 0.03037 0.0
O12 O 0.14209 0.05244 0.06446 0.0
C13 C 0.97121 0.99341 0.00312 0.0
C14 C 0.98564 0.11903 0.0194 0.0
C15 C 0.15095 0.9868 0.00534 0.0
C16 C 0.16817 0.11171 0.0187 0.0
C17 C 0.09583 0.04426 0.06631 0.0
C18 C 0.04092 0.06365 0.9579 0.0
O19 O 1.00414 0.02234 0.00469 0.0
O20 O 0.93052 0.0011 0.99178 0.0
O21 O 0.51401 0.60137 0.51483 0.0
Mn22 Mn 0.54637 0.54396 0.50802 0.0
O23 O 0.43169 0.59213 0.50633 0.0
Mn24 Mn 0.43522 0.54038 0.49018 0.0
O25 O 0.57701 0.48611 0.50072 0.0
O26 O 0.61394 0.57154 0.50928 0.0
Mn27 Mn 0.657 0.54306 0.52435 0.0
O28 O 0.55134 0.53966 0.54527 0.0
O29 O 0.66 0.49339 0.50584 0.0
O30 O 0.54156 0.54757 0.47064 0.0
O31 O 0.4608 0.53655 0.45923 0.0
O32 O 0.69237 0.58714 0.51596 0.0
O33 O 0.6331 0.54208 0.55547 0.0
C34 C 0.44606 0.49024 0.51083 0.0
C35 C 0.46908 0.61436 0.51431 0.0
C36 C 0.62126 0.47219 0.499 0.0
C37 C 0.64992 0.59715 0.50718 0.0
C38 C 0.58733 0.53954 0.561 0.0
C39 C 0.50646 0.54203 0.45431 0.0
O40 O 0.47962 0.51657 0.50697 0.0
O41 O 0.40291 0.4966 0.50137 0.0
C42 C 0.87302 0.08643 0.42722 0.0
C43 C 0.8793 0.10624 0.45082 0.0
C44 C 0.91655 0.09334 0.46623 0.0
C45 C 0.94896 0.06255 0.45753 0.0
H46 H 0.0644 0.97679 0.47436 0.0
H47 H 0.13279 0.94877 0.49674 0.0
H48 H 0.20555 0.91334 0.42925 0.0
H49 H 0.13829 0.94126 0.40704 0.0
H50 H 0.07779 0.93532 0.35732 0.0
H51 H 0.07771 0.9262 0.31304 0.0
H52 H 0.94681 -0.00053 0.31111 0.0
H53 H 0.94591 0.00763 0.35504 0.0
H54 H 0.89906 0.042 0.40008 0.0
H55 H 0.84409 0.09545 0.41512 0.0
H56 H 0.92193 0.10824 0.48457 0.0
H57 H 0.9787 0.05426 0.4694 0.0
N58 N 0.01883 0.00115 0.43584 0.0
N59 N 0.0511 0.967 0.4002 0.0
N60 N 0.97945 0.00509 0.39803 0.0
C61 C 0.05386 0.97669 0.42474 0.0
C62 C 0.01389 0.98101 0.38672 0.0
C63 C 0.98129 0.01538 0.42242 0.0
C64 C 0.0956 0.96119 0.43886 0.0
C65 C 0.09519 0.96328 0.46434 0.0
C66 C 0.13424 0.94711 0.47716 0.0
C67 C 0.17474 0.92904 0.46478 0.0
C68 C 0.17538 0.92762 0.4394 0.0
C69 C 0.13639 0.94335 0.42662 0.0
C70 C 1.01213 0.97249 0.35985 0.0
C71 C 0.04866 0.9491 0.34745 0.0
C72 C 0.04876 0.94403 0.32205 0.0
C73 C 1.01241 0.96229 0.30849 0.0
C74 C 0.97499 0.98451 0.3209 0.0
C75 C 0.97478 0.98947 0.34621 0.0
C76 C 0.94415 0.04416 0.43337 0.0
C77 C 0.90475 0.05573 0.41865 0.0
C78 C 0.90473 0.95805 0.57808 0.0
C79 C 0.90279 0.94893 0.55273 0.0
C80 C 0.93672 0.9687 0.53887 0.0
C81 C 0.97302 0.99592 0.55036 0.0
H82 H 0.11122 0.07751 0.54314 0.0
H83 H 0.171 0.12443 0.52736 0.0
H84 H 0.17209 0.19987 0.59633 0.0
H85 H 0.11268 0.15453 0.61152 0.0
H86 H 0.09189 0.11815 0.65834 0.0
H87 H 0.1026 0.11976 0.70219 0.0
H88 H 0.04412 0.99721 0.69797 0.0
H89 H 0.03255 0.99555 0.65388 0.0
H90 H 0.94087 0.99053 0.60908 0.0
H91 H 0.87837 0.94423 0.58928 0.0
H92 H 0.93609 0.96229 0.51928 0.0
H93 H 0.99935 0.0101 0.53933 0.0
N94 N 0.04319 0.05671 0.57711 0.0
N95 N 0.08203 0.08203 0.61434 0.0
N96 N 0.0215 0.03067 0.61324 0.0
C97 C 0.07677 0.08258 0.59001 0.0
C98 C 0.05496 0.05614 0.62607 0.0
C99 C 0.01496 0.03083 0.58884 0.0
C100 C 0.10751 0.11218 0.5786 0.0
C101 C 0.12366 0.10462 0.55462 0.0
C102 C 0.15815 0.13123 0.5457 0.0
C103 C 0.1763 0.16597 0.56056 0.0
C104 C 0.15847 0.1739 0.58418 0.0
C105 C 0.1246 0.14754 0.59301 0.0
C106 C 0.06132 0.0567 0.65265 0.0
C107 C 0.08135 0.09146 0.66669 0.0
C108 C 0.08733 0.09251 0.69179 0.0
C109 C 0.07421 0.05862 0.70334 0.0
C110 C 0.05475 0.02363 0.68938 0.0
C111 C 0.04787 0.02281 0.66424 0.0
C112 C 0.97591 0.0037 0.57586 0.0
C113 C 0.94074 0.98482 0.58946 0.0
C114 C 0.37 0.57944 0.93572 0.0
C115 C 0.38197 0.60453 0.95729 0.0
C116 C 0.42601 0.59754 0.97028 0.0
C117 C 0.45869 0.56744 0.96115 0.0
H118 H 0.57299 0.4836 0.97738 0.0
H119 H 0.63849 0.45259 -0.00025 0.0
H120 H 0.70152 0.40311 0.93203 0.0
H121 H 0.63715 0.43454 0.90973 0.0
H122 H 0.5904 0.45176 0.85979 0.0
H123 H 0.59317 0.449 0.81572 0.0
H124 H 0.45662 0.5155 0.81514 0.0
H125 H 0.4531 0.51756 0.85893 0.0
H126 H 0.39349 0.53229 0.90919 0.0
H127 H 0.33659 0.58424 0.92521 0.0
H128 H 0.43595 0.61628 0.98707 0.0
H129 H 0.4933 0.56387 0.97101 0.0
N130 N 0.52325 0.50206 0.93945 0.0
N131 N 0.55806 0.47358 0.90305 0.0
N132 N 0.48568 0.51139 0.90195 0.0
C133 C 0.55918 0.47949 0.92777 0.0
C134 C 0.52143 0.48946 0.89 0.0
C135 C 0.48616 0.51785 0.92655 0.0
C136 C 0.59952 0.46159 0.94168 0.0
C137 C 0.60098 0.46631 0.96724 0.0
C138 C 0.63845 0.44839 0.9801 0.0
C139 C 0.67543 0.42541 0.96772 0.0
C140 C 0.67424 0.42115 0.9422 0.0
C141 C 0.63688 0.43898 0.92937 0.0
C142 C 0.5217 0.48509 0.86304 0.0
C143 C 0.56069 0.46547 0.85027 0.0
C144 C 0.56245 0.46409 0.82499 0.0
C145 C 0.52526 0.48222 0.81188 0.0
C146 C 0.4856 0.50082 0.82459 0.0
C147 C 0.48382 0.50222 0.84981 0.0
C148 C 0.44826 0.54437 0.93866 0.0
C149 C 0.40288 0.54987 0.92644 0.0
C150 C 0.39549 0.48843 0.06504 0.0
C151 C 0.40045 0.47469 0.04031 0.0
C152 C 0.44358 0.48619 0.02862 0.0
C153 C 0.48148 0.50977 0.04165 0.0
H154 H 0.60119 0.60768 0.04107 0.0
H155 H 0.6663 0.65243 0.02786 0.0
H156 H 0.74902 0.64554 0.09488 0.0
H157 H 0.68484 0.60157 0.10807 0.0
H158 H 0.63597 0.57232 0.15271 0.0
H159 H 0.63542 0.57259 0.19673 0.0
H160 H 0.47775 0.54457 0.1926 0.0
H161 H 0.47805 0.54403 0.14855 0.0
H162 H 0.4282 0.52063 0.09716 0.0
H163 H 0.3633 0.47979 0.07479 0.0
H164 H 0.44841 0.47641 0.00953 0.0
H165 H 0.51479 0.51719 0.03233 0.0
N166 N 0.5574 0.56137 0.07145 0.0
N167 N 0.59517 0.57731 0.11013 0.0
N168 N 0.51913 0.54179 0.1061 0.0
C169 C 0.59574 0.57894 0.08579 0.0
C170 C 0.55715 0.55894 0.12044 0.0
C171 C 0.5189 0.54255 0.08163 0.0
C172 C 0.63726 0.60151 0.0758 0.0
C173 C 0.63363 0.61529 0.0528 0.0
C174 C 0.67091 0.64088 0.04523 0.0
C175 C 0.71235 0.6531 0.06055 0.0
C176 C 0.71703 0.63751 0.08291 0.0
C177 C 0.68011 0.61212 0.09042 0.0
C178 C 0.55701 0.55821 0.14709 0.0
C179 C 0.60114 0.56617 0.16115 0.0
C180 C 0.60096 0.56613 0.18633 0.0
C181 C 0.55654 0.55873 0.19803 0.0
C182 C 0.51244 0.55072 0.18403 0.0
C183 C 0.51272 0.55017 0.1588 0.0
C184 C 0.47717 0.52188 0.06666 0.0
C185 C 0.4332 0.51161 0.07799 0.0
C186 C 0.1324 0.17968 0.01531 0.0
C187 C 0.16538 0.14919 0.00706 0.0
C188 C 0.14192 0.21994 0.01107 0.0
C189 C 0.23055 0.28612 0.98053 0.0
H190 H 0.22624 0.35458 0.04193 0.0
C191 C 0.37696 0.41119 0.01274 0.0
C192 C 0.36236 0.44582 0.02773 0.0
C193 C 0.34219 0.38043 0.00449 0.0
C194 C 0.22694 0.33634 0.02445 0.0
H195 H 0.23142 0.1357 0.98642 0.0
H196 H 0.24805 0.20503 0.97893 0.0
H197 H 0.18051 0.29036 0.03665 0.0
H198 H 0.29879 0.47679 0.0439 0.0
H199 H 0.23836 0.42298 0.0297 0.0
H200 H 0.27975 0.33132 0.969 0.0
C201 C 0.21456 0.19864 0.98838 0.0
C202 C 0.2004 0.2994 0.02135 0.0
C203 C 0.20509 0.15871 0.99267 0.0
C204 C 0.31154 0.45013 0.03284 0.0
C205 C 0.27686 0.41932 0.02469 0.0
C206 C 0.25747 0.32296 0.98372 0.0
C207 C 0.18471 0.23018 0.99863 0.0
C208 C 0.20323 0.27307 -0.00034 0.0
C209 C 0.29202 0.38353 0.01106 0.0
C210 C 0.25723 0.3479 0.006 0.0
H211 H 0.10216 0.17316 0.02691 0.0
H212 H 0.11764 0.24333 0.01891 0.0
H213 H 0.23288 0.26705 0.9634 0.0
H214 H 0.41577 0.40663 0.00861 0.0
H215 H 0.35526 0.35312 0.9942 0.0
C216 C 0.1309 0.91292 0.99195 0.0
C217 C 0.16523 0.94569 0.99493 0.0
C218 C 0.14718 0.87337 0.98516 0.0
C219 C 0.25594 0.81673 0.95938 0.0
H220 H 0.213 0.73249 0.99762 0.0
C221 C 0.37499 0.67891 0.96966 0.0
C222 C 0.35156 0.64065 0.96437 0.0
C223 C 0.34685 0.71396 0.97257 0.0
C224 C 0.2249 0.75564 0.98665 0.0
H225 H 0.2429 0.96298 0.99192 0.0
H226 H 0.27096 0.89495 0.98035 0.0
H227 H 0.17151 0.79796 0.00183 0.0
H228 H 0.28018 0.60893 0.95929 0.0
H229 H 0.23074 0.67054 0.96488 0.0
H230 H 0.31061 0.77519 0.94499 0.0
C231 C 0.23156 0.89929 0.98305 0.0
C232 C 0.20099 0.79301 0.98892 0.0
C233 C 0.21547 0.93842 0.98992 0.0
C234 C 0.2992 0.63807 0.96326 0.0
C235 C 0.27095 0.67321 0.96651 0.0
C236 C 0.28005 0.77973 0.95733 0.0
C237 C 0.19791 0.86613 0.98095 0.0
C238 C 0.2172 0.82437 0.97578 0.0
C239 C 0.29463 0.71154 0.97051 0.0
C240 C 0.26565 0.7492 0.97138 0.0
H241 H 0.092 0.9176 0.99582 0.0
H242 H 0.12027 0.84847 0.98353 0.0
H243 H 0.2686 0.83984 0.94856 0.0
H244 H 0.41522 0.68196 0.97036 0.0
H245 H 0.366 0.74314 0.97594 0.0
C246 C 0.98067 0.91964 0.99454 0.0
C247 C 0.97757 0.95377 0.01181 0.0
C248 C 0.96656 0.88128 0.0003 0.0
C249 C 0.92463 0.82271 0.04979 0.0
H250 H 0.82773 0.7767 0.00078 0.0
C251 C 0.766 0.71523 0.07175 0.0
C252 C 0.74953 0.68359 0.05414 0.0
C253 C 0.80133 0.74388 0.06624 0.0
C254 C 0.85528 0.78847 0.0145 0.0
H255 H 0.96025 0.97471 0.04892 0.0
H256 H 0.93592 0.90771 0.05925 0.0
H257 H 0.88151 0.83275 0.99255 0.0
H258 H 0.75741 0.6572 0.0169 0.0
H259 H 0.81973 0.70712 0.00722 0.0
H260 H 0.89757 0.77883 0.07193 0.0
C261 C 0.95001 0.9102 0.04135 0.0
C262 C 0.8863 0.82069 0.00976 0.0
C263 C 0.96434 0.94859 0.03555 0.0
C264 C 0.7691 0.6814 0.03078 0.0
C265 C 0.80481 0.71002 0.02528 0.0
C266 C 0.89376 0.79025 0.05449 0.0
C267 C 0.94832 0.87653 0.02337 0.0
C268 C 0.92072 0.83874 0.0275 0.0
C269 C 0.82141 0.74166 0.04297 0.0
C270 C 0.85789 0.77329 0.03709 0.0
H271 H 0.98996 0.92313 0.97599 0.0
H272 H 0.96658 0.85585 0.98618 0.0
H273 H 0.95103 0.83569 0.06375 0.0
H274 H 0.75094 0.71826 0.08979 0.0
H275 H 0.81207 0.76831 0.08015 0.0
C276 C 0.9897 0.19268 0.01537 0.0
C277 C 0.97193 0.16095 0.02766 0.0
C278 C 0.96392 0.2291 0.0163 0.0
C279 C 0.83392 0.2598 0.02363 0.0
H280 H 0.88558 0.36544 0.01229 0.0
C281 C 0.70106 0.38437 0.00116 0.0
C282 C 0.71392 0.40434 0.98112 0.0
C283 C 0.73583 0.36091 0.01208 0.0
C284 C 0.8706 0.33607 0.01543 0.0
H285 H 0.91668 0.1434 0.05235 0.0
H286 H 0.8733 0.20755 0.05515 0.0
H287 H 0.94287 0.314 0.02365 0.0
H288 H 0.77457 0.41734 0.95791 0.0
H289 H 0.83477 0.37569 0.97656 0.0
H290 H 0.76208 0.28107 0.01473 0.0
C291 C 0.90598 0.20414 0.04411 0.0
C292 C 0.90343 0.3066 0.02196 0.0
C293 C 0.93122 0.16761 0.04285 0.0
C294 C 0.76313 0.40181 0.97304 0.0
C295 C 0.7979 0.37833 0.98396 0.0
C296 C 0.80125 0.28916 0.0172 0.0
C297 C 0.92011 0.23435 0.02967 0.0
C298 C 0.88556 0.26782 0.02578 0.0
C299 C 0.78435 0.35679 0.00324 0.0
C300 C 0.81915 0.32745 0.01261 0.0
H301 H 0.02033 0.18787 0.0031 0.0
H302 H 0.97591 0.25152 0.00487 0.0
H303 H 0.81865 0.23007 0.02577 0.0
H304 H 0.6635 0.38545 0.00781 0.0
H305 H 0.72432 0.34519 0.02712 0.0
C306 C 0.68115 0.64937 0.48298 0.0
C307 C 0.64494 0.63701 0.4985 0.0
C308 C 0.69129 0.6905 0.48198 0.0
C309 C 0.68995 0.78075 0.52606 0.0
H310 H 0.76724 0.82602 0.47715 0.0
C311 C 0.85844 0.88219 0.55246 0.0
C312 C 0.86628 0.91768 0.54143 0.0
C313 C 0.82134 0.85409 0.54372 0.0
C314 C 0.74506 0.81422 0.49089 0.0
H315 H 0.58828 0.65748 0.52374 0.0
H316 H 0.60376 0.72952 0.5211 0.0
H317 H 0.71213 0.76714 0.46544 0.0
H318 H 0.84269 0.95052 0.51174 0.0
H319 H 0.77764 0.90047 0.49605 0.0
H320 H 0.72377 0.82696 0.55157 0.0
C321 C 0.62512 0.70755 0.50995 0.0
C322 C 0.71373 0.7803 0.48425 0.0
C323 C 0.61535 0.66624 0.51108 0.0
C324 C 0.83748 0.92346 0.52063 0.0
C325 C 0.80019 0.89497 0.51173 0.0
C326 C 0.72099 0.81455 0.53263 0.0
C327 C 0.66554 0.72016 0.49668 0.0
C328 C 0.68755 0.76197 0.50197 0.0
C329 C 0.79107 0.86046 0.52359 0.0
C330 C 0.75071 0.83043 0.51536 0.0
H331 H 0.70501 0.62726 0.47342 0.0
H332 H 0.72283 0.69865 0.47165 0.0
H333 H 0.67093 0.76765 0.54036 0.0
H334 H 0.88085 0.8762 0.56809 0.0
H335 H 0.81636 0.82719 0.55279 0.0
C336 C 0.66309 0.41947 0.47201 0.0
C337 C 0.62888 0.42933 0.49032 0.0
C338 C 0.67938 0.37982 0.46705 0.0
C339 C 0.70683 0.29304 0.49802 0.0
H340 H 0.72876 0.24071 0.43311 0.0
C341 C 0.81821 0.14383 0.47833 0.0
C342 C 0.84885 0.14205 0.45812 0.0
C343 C 0.78525 0.17593 0.48303 0.0
C344 C 0.72328 0.25503 0.45138 0.0
H345 H 0.58412 0.4059 0.51766 0.0
H346 H 0.6132 0.33605 0.50917 0.0
H347 H 0.6781 0.30098 0.4386 0.0
H348 H 0.87157 0.17316 0.42788 0.0
H349 H 0.81578 0.22948 0.43639 0.0
H350 H 0.75408 0.24826 0.51076 0.0
C351 C 0.62673 0.35896 0.49841 0.0
C352 C 0.6939 0.28935 0.45449 0.0
C353 C 0.60966 0.39865 0.50305 0.0
C354 C 0.84774 0.1736 0.44338 0.0
C355 C 0.81538 0.20565 0.44815 0.0
C356 C 0.73673 0.25882 0.49491 0.0
C357 C 0.66259 0.34943 0.48071 0.0
C358 C 0.68639 0.3093 0.47778 0.0
C359 C 0.78277 0.20678 0.46765 0.0
C360 C 0.74648 0.24013 0.47147 0.0
H361 H 0.67891 0.44287 0.46225 0.0
H362 H 0.70743 0.3735 0.4535 0.0
H363 H 0.702 0.30809 0.51619 0.0
H364 H 0.81838 0.11969 0.48988 0.0
H365 H 0.76069 0.17589 0.49822 0.0
C366 C 0.42619 0.45008 0.54387 0.0
C367 C 0.45403 0.45434 0.5233 0.0
C368 C 0.41563 0.41168 0.55049 0.0
C369 C 0.39154 0.31104 0.51826 0.0
H370 H 0.34728 0.29054 0.58176 0.0
C371 C 0.25751 0.17778 0.54028 0.0
C372 C 0.21547 0.19335 0.55254 0.0
C373 C 0.29787 0.20348 0.53642 0.0
C374 C 0.36002 0.29559 0.56395 0.0
H375 H 0.49627 0.42278 0.49456 0.0
H376 H 0.47894 0.35524 0.50642 0.0
H377 H 0.407 0.34574 0.57838 0.0
H378 H 0.18131 0.24853 0.56852 0.0
H379 H 0.25195 0.29275 0.56239 0.0
H380 H 0.34308 0.26135 0.50395 0.0
C381 C 0.4648 0.38147 0.51738 0.0
C382 C 0.39408 0.32721 0.56198 0.0
C383 C 0.47547 0.42011 0.51081 0.0
C384 C 0.21358 0.23534 0.5596 0.0
C385 C 0.25398 0.2607 0.55612 0.0
C386 C 0.35795 0.27896 0.52029 0.0
C387 C 0.43228 0.37671 0.53643 0.0
C388 C 0.40829 0.33669 0.53904 0.0
C389 C 0.2969 0.24489 0.54506 0.0
C390 C 0.34023 0.27227 0.54307 0.0
H391 H 0.40858 0.47612 0.55344 0.0
H392 H 0.39018 0.40946 0.56513 0.0
H393 H 0.40119 0.31755 0.50026 0.0
H394 H 0.26024 0.14557 0.53471 0.0
H395 H 0.33053 0.19079 0.52761 0.0
C396 C 0.41621 0.66863 0.53378 0.0
C397 C 0.45898 0.6577 0.52075 0.0
C398 C 0.39713 0.70748 0.53399 0.0
C399 C 0.39251 0.78604 0.493 0.0
H400 H 0.30846 0.8392 0.54234 0.0
C401 C 0.26511 0.91427 0.47111 0.0
C402 C 0.21535 0.90986 0.47782 0.0
C403 C 0.30254 0.89176 0.48078 0.0
C404 C 0.33183 0.82472 0.52839 0.0
H405 H 0.51639 0.67919 0.4985 0.0
H406 H 0.48468 0.74781 0.49976 0.0
H407 H 0.36385 0.78575 0.5525 0.0
H408 H 0.16635 0.87989 0.5009 0.0
H409 H 0.23161 0.84038 0.5177 0.0
H410 H 0.35948 0.82381 0.46868 0.0
C411 C 0.46552 0.72626 0.50969 0.0
C412 C 0.36363 0.79412 0.53421 0.0
C413 C 0.48449 0.68723 0.50942 0.0
C414 C 0.20435 0.88418 0.49549 0.0
C415 C 0.24183 0.86157 0.50514 0.0
C416 C 0.36095 0.81664 0.48724 0.0
C417 C 0.42028 0.73626 0.52102 0.0
C418 C 0.3934 0.77361 0.5164 0.0
C419 C 0.29114 0.86423 0.49736 0.0
C420 C 0.32927 0.83567 0.50467 0.0
H421 H 0.3955 0.64619 0.5424 0.0
H422 H 0.36204 0.71373 0.54271 0.0
H423 H 0.41403 0.77053 0.47864 0.0
H424 H 0.27495 0.93441 0.45789 0.0
H425 H 0.34027 0.89516 0.47476 0.0
C426 C 0.11462 0.03128 0.10897 0.0
C427 C 0.07917 0.03359 0.09013 0.0
C428 C 0.10095 0.01806 0.1308 0.0
C429 C 0.99813 0.00774 0.1712 0.0
H430 H 0.08717 0.93324 0.1985 0.0
C431 C 0.97171 0.95771 0.26682 0.0
C432 C 0.01521 0.96069 0.28164 0.0
C433 C 0.9743 0.96035 0.24189 0.0
C434 C 0.06196 0.95406 0.19115 0.0
H435 H 1.00086 0.0252 0.08001 0.0
H436 H 0.97678 0.00213 0.11865 0.0
H437 H 0.1001 0.9507 0.15763 0.0
H438 H 0.09558 0.96818 0.28167 0.0
H439 H 0.10011 0.97231 0.23835 0.0
H440 H 0.96101 0.01214 0.20513 0.0
C441 C 0.01533 0.01039 0.11616 0.0
C442 C 0.06932 0.96402 0.16775 0.0
C443 C 0.02914 0.02349 0.09406 0.0
C444 C 0.06142 0.96501 0.2708 0.0
C445 C 0.064 0.96747 0.24592 0.0
C446 C 0.99079 0.99781 0.19472 0.0
C447 C 0.05141 0.00687 0.13455 0.0
C448 C 0.03845 0.99191 0.15781 0.0
C449 C 0.02046 0.96575 0.23123 0.0
C450 C 0.02357 0.97178 0.20519 0.0
H451 H 0.15347 0.039 0.10681 0.0
H452 H 0.12937 0.01659 0.14485 0.0
H453 H 0.97389 0.02942 0.16401 0.0
H454 H 0.93555 0.95376 0.27453 0.0
H455 H 0.94016 0.95843 0.231 0.0
C456 C 0.10194 0.05062 0.92471 0.0
C457 C 0.05872 0.06954 0.93366 0.0
C458 C 0.11457 0.05174 0.90046 0.0
C459 C 0.09805 0.10625 0.84773 0.0
H460 H 0.09136 0.00141 0.80879 0.0
C461 C 0.05995 0.09247 0.74503 0.0
C462 C 0.08007 0.06032 0.72999 0.0
C463 C 0.06539 0.09447 0.77021 0.0
C464 C 0.09459 0.03093 0.81932 0.0
H465 H 0.99653 0.10638 0.925 0.0
H466 H 0.01965 0.10958 0.88294 0.0
H467 H 0.09037 0.00514 0.85291 0.0
H468 H 0.12238 0.00541 0.72921 0.0
H469 H 0.1336 0.00947 0.77328 0.0
H470 H 0.10258 0.13233 0.81443 0.0
C471 C 0.04324 0.09344 0.8945 0.0
C472 C 0.09391 0.03297 0.84461 0.0
C473 C 0.02994 0.09144 0.91847 0.0
C474 C 0.10613 0.0303 0.74052 0.0
C475 C 0.11237 0.03264 0.76575 0.0
C476 C 0.09972 0.10425 0.82249 0.0
C477 C 0.08491 0.07279 0.88514 0.0
C478 C 0.09427 0.07066 0.85894 0.0
C479 C 0.0919 0.06471 0.78095 0.0
C480 C 0.09641 0.0666 0.80789 0.0
H481 H 0.1245 0.03334 0.93609 0.0
H482 H 0.14683 0.03557 0.89353 0.0
H483 H 0.09862 0.13565 0.8585 0.0
H484 H 0.03922 0.11575 0.7373 0.0
H485 H 0.0479 0.11903 0.78122 0.0
C486 C 0.61476 0.53804 0.60429 0.0
C487 C 0.57612 0.53447 0.58656 0.0
C488 C 0.60583 0.53039 0.628 0.0
C489 C 0.50826 0.52371 0.67279 0.0
H490 H 0.60738 0.4621 0.70383 0.0
C491 C 0.48615 0.47836 0.76991 0.0
C492 C 0.52885 0.48346 0.78524 0.0
C493 C 0.48934 0.48177 0.74509 0.0
C494 C 0.57953 0.4796 0.69552 0.0
H495 H 0.49726 0.52088 0.58018 0.0
H496 H 0.48168 0.50752 0.62185 0.0
H497 H 0.61683 0.47419 0.66173 0.0
H498 H 0.60834 0.49635 0.7864 0.0
H499 H 0.61394 0.50212 0.74324 0.0
H500 H 0.47133 0.52956 0.70679 0.0
C501 C 0.51891 0.51643 0.61725 0.0
C502 C 0.58493 0.48653 0.67137 0.0
C503 C 0.52786 0.52406 0.59338 0.0
C504 C 0.57487 0.49149 0.77508 0.0
C505 C 0.57806 0.49486 0.7503 0.0
C506 C 0.50286 0.51681 0.69703 0.0
C507 C 0.55804 0.51892 0.63471 0.0
C508 C 0.54985 0.50924 0.65983 0.0
C509 C 0.53532 0.49027 0.73501 0.0
C510 C 0.53889 0.49521 0.70878 0.0
H511 H 0.65232 0.54634 0.59985 0.0
H512 H 0.63656 0.53347 0.64113 0.0
H513 H 0.48076 0.54152 0.66446 0.0
H514 H 0.45021 0.47163 0.77709 0.0
H515 H 0.45583 0.47752 0.73376 0.0
C516 C 0.55927 0.56449 0.42129 0.0
C517 C 0.51851 0.54203 0.42845 0.0
C518 C 0.56712 0.56696 0.3966 0.0
C519 C 0.49754 0.55314 0.33745 0.0
H520 H 0.62842 0.55787 0.30998 0.0
C521 C 0.51969 0.58153 0.23817 0.0
C522 C 0.55601 0.55964 0.22479 0.0
C523 C 0.51829 0.58174 0.26333 0.0
C524 C 0.59157 0.55625 0.31732 0.0
H525 H 0.4561 0.5024 0.41548 0.0
H526 H 0.47073 0.50539 0.37277 0.0
H527 H 0.62086 0.55135 0.35312 0.0
H528 H 0.61962 0.52107 0.22714 0.0
H529 H 0.61632 0.52025 0.27102 0.0
H530 H 0.46799 0.55619 0.30172 0.0
C531 C 0.49551 0.52255 0.38601 0.0
C532 C 0.58727 0.55303 0.34214 0.0
C533 C 0.48728 0.52061 0.41054 0.0
C534 C 0.59139 0.5384 0.23708 0.0
C535 C 0.58961 0.53814 0.26224 0.0
C536 C 0.5018 0.55594 0.31271 0.0
C537 C 0.53469 0.54658 0.37868 0.0
C538 C 0.54012 0.55112 0.35247 0.0
C539 C 0.55273 0.55953 0.27568 0.0
C540 C 0.54882 0.55747 0.30225 0.0
H541 H 0.58391 0.58134 0.43474 0.0
H542 H 0.59755 0.58587 0.39163 0.0
H543 H 0.46059 0.55261 0.34479 0.0
H544 H 0.4925 0.59873 0.22918 0.0
H545 H 0.4901 0.59936 0.27308 0.0
loop_
_geom_bond_atom_site_label_1
_geom_bond_atom_site_label_2
_geom_bond_distance
_geom_bond_site_symmetry_2
_ccdc_geom_bond_type
O0 Mn1 2.163 . S
O0 C14 1.244 1_455 S
Mn1 O0 2.163 . S
Mn1 O4 2.160 1_544 S
Mn1 O5 2.221 . S
Mn1 O7 2.163 . S
Mn1 O9 2.160 1_554 S
Mn1 O19 2.221 1_444 S
O2 Mn3 2.087 . S
O2 C14 1.256 1_556 S
Mn3 O2 2.087 . S
Mn3 O10 2.089 . S
Mn3 O19 2.290 1_545 S
Mn3 O20 2.251 1_546 S
O4 Mn1 2.160 1_566 S
O4 C15 1.240 1_556 S
O5 Mn1 2.221 . S
O5 Mn6 2.290 . S
O5 C16 1.278 . S
Mn6 O5 2.290 . S
Mn6 O8 2.089 1_545 S
Mn6 O11 2.251 . S
Mn6 O12 2.087 . S
O7 Mn1 2.163 . S
O7 C17 1.244 . S
O8 Mn6 2.089 1_565 S
O8 C15 1.256 . S
O9 Mn1 2.160 1_556 S
O9 C18 1.239 . S
O10 Mn3 2.089 . S
O10 C18 1.256 1_655 S
O11 Mn6 2.251 . S
O11 C16 1.241 . S
O12 Mn6 2.087 . S
O12 C17 1.256 . S
C13 O19 1.278 1_554 S
C13 O20 1.241 . S
C14 O0 1.244 1_655 S
C14 O2 1.256 1_554 S
C15 O4 1.240 1_554 S
C15 O8 1.256 . S
C16 O5 1.278 . S
C16 O11 1.241 . S
C17 O7 1.244 . S
C17 O12 1.256 . S
C18 O9 1.239 . S
C18 O10 1.256 1_455 S
O19 Mn1 2.221 1_666 S
O19 Mn3 2.290 1_565 S
O19 C13 1.278 1_556 S
O20 Mn3 2.251 1_564 S
O20 C13 1.241 . S
O21 Mn22 2.163 . S
O21 C35 1.244 . S
Mn22 O21 2.163 . S
Mn22 O25 2.160 . S
Mn22 O26 2.221 . S
Mn22 O28 2.163 . S
Mn22 O30 2.160 . S
Mn22 O40 2.221 . S
O23 Mn24 2.087 . S
O23 C35 1.256 . S
Mn24 O23 2.087 . S
Mn24 O31 2.089 . S
Mn24 O40 2.290 . S
Mn24 O41 2.251 . S
O25 Mn22 2.160 . S
O25 C36 1.239 . S
O26 Mn22 2.221 . S
O26 Mn27 2.290 . S
O26 C37 1.278 . S
Mn27 O26 2.290 . S
Mn27 O29 2.089 . S
Mn27 O32 2.251 . S
Mn27 O33 2.087 . S
O28 Mn22 2.163 . S
O28 C38 1.244 . S
O29 Mn27 2.089 . S
O29 C36 1.256 . S
O30 Mn22 2.160 . S
O30 C39 1.239 . S
O31 Mn24 2.089 . S
O31 C39 1.256 . S
O32 Mn27 2.251 . S
O32 C37 1.241 . S
O33 Mn27 2.087 . S
O33 C38 1.256 . S
C34 O40 1.278 . S
C34 O41 1.241 . S
C35 O21 1.244 . S
C35 O23 1.256 . S
C36 O25 1.239 . S
C36 O29 1.256 . S
C37 O26 1.278 . S
C37 O32 1.241 . S
C38 O28 1.244 . S
C38 O33 1.256 . S
C39 O30 1.239 . S
C39 O31 1.256 . S
O40 Mn22 2.221 . S
O40 Mn24 2.290 . S
O40 C34 1.278 . S
O41 Mn24 2.251 . S
O41 C34 1.241 . S
C42 C43 1.384 . S
C42 H55 0.947 . S
C42 C77 1.382 . S
C43 C42 1.384 . S
C43 C44 1.378 . S
C44 C43 1.378 . S
C44 C45 1.378 . S
C44 H56 0.952 . S
C45 C44 1.378 . S
C45 H57 0.950 1_655 S
C45 C76 1.383 . S
H46 C65 0.947 . S
H47 C66 0.946 . S
H48 C68 0.953 . S
H49 C69 0.945 . S
H50 C71 0.952 . S
H51 C72 0.949 . S
H52 C74 0.950 . S
H53 C75 0.948 . S
H54 C77 0.951 . S
H55 C42 0.947 . S
H56 C44 0.952 . S
H57 C45 0.950 1_455 S
N58 C61 1.382 1_545 S
N58 C63 1.363 . S
N59 C61 1.371 . S
N59 C62 1.372 1_565 S
N60 C62 1.361 . S
N60 C63 1.377 . S
C61 N58 1.382 1_565 S
C61 N59 1.371 . S
C61 C64 1.480 . S
C62 N59 1.372 1_545 S
C62 N60 1.361 . S
C62 C70 1.457 . S
C63 N58 1.363 . S
C63 N60 1.377 . S
C63 C76 1.479 1_455 S
C64 C61 1.480 . S
C64 C65 1.383 . S
C64 C69 1.385 . S
C65 H46 0.947 . S
C65 C64 1.383 . S
C65 C66 1.388 . S
C66 H47 0.946 . S
C66 C65 1.388 . S
C66 C67 1.384 . S
C67 C66 1.384 . S
C67 C68 1.377 . S
C68 H48 0.953 . S
C68 C67 1.377 . S
C68 C69 1.369 . S
C69 H49 0.945 . S
C69 C64 1.385 . S
C69 C68 1.369 . S
C70 C62 1.457 . S
C70 C71 1.372 1_545 S
C70 C75 1.364 . S
C71 H50 0.952 . S
C71 C70 1.372 1_565 S
C71 C72 1.389 . S
C72 H51 0.949 . S
C72 C71 1.389 . S
C72 C73 1.374 1_565 S
C73 C72 1.374 1_545 S
C73 C74 1.383 . S
C74 H52 0.950 . S
C74 C73 1.383 . S
C74 C75 1.379 . S
C75 H53 0.948 . S
C75 C70 1.364 . S
C75 C74 1.379 . S
C76 C45 1.383 . S
C76 C63 1.479 1_655 S
C76 C77 1.398 . S
C77 C42 1.382 . S
C77 H54 0.951 . S
C77 C76 1.398 . S
C78 C79 1.384 . S
C78 H91 0.947 . S
C78 C113 1.382 . S
C79 C78 1.384 . S
C79 C80 1.378 . S
C80 C79 1.378 . S
C80 C81 1.378 1_565 S
C80 H92 0.952 . S
C81 C80 1.378 1_545 S
C81 H93 0.950 . S
C81 C112 1.383 . S
H82 C101 0.947 . S
H83 C102 0.946 . S
H84 C104 0.953 . S
H85 C105 0.945 . S
H86 C107 0.952 . S
H87 C108 0.949 . S
H88 C110 0.950 . S
H89 C111 0.948 . S
H90 C113 0.951 1_545 S
H91 C78 0.947 . S
H92 C80 0.952 . S
H93 C81 0.950 . S
N94 C97 1.382 . S
N94 C99 1.363 1_455 S
N95 C97 1.371 . S
N95 C98 1.372 . S
N96 C98 1.361 1_655 S
N96 C99 1.377 . S
C97 N94 1.382 . S
C97 N95 1.371 . S
C97 C100 1.480 . S
C98 N95 1.372 . S
C98 N96 1.361 1_455 S
C98 C106 1.457 . S
C99 N94 1.363 1_655 S
C99 N96 1.377 . S
C99 C112 1.479 . S
C100 C97 1.480 . S
C100 C101 1.383 . S
C100 C105 1.385 . S
C101 H82 0.947 . S
C101 C100 1.383 . S
C101 C102 1.388 . S
C102 H83 0.946 . S
C102 C101 1.388 . S
C102 C103 1.384 . S
C103 C102 1.384 . S
C103 C104 1.377 . S
C104 H84 0.953 . S
C104 C103 1.377 . S
C104 C105 1.369 . S
C105 H85 0.945 . S
C105 C100 1.385 . S
C105 C104 1.369 . S
C106 C98 1.457 . S
C106 C107 1.372 . S
C106 C111 1.364 1_455 S
C107 H86 0.952 . S
C107 C106 1.372 . S
C107 C108 1.389 . S
C108 H87 0.949 . S
C108 C107 1.389 . S
C108 C109 1.387 . S
C109 C108 1.387 . S
C109 C110 1.372 1_455 S
C110 H88 0.950 . S
C110 C109 1.372 1_655 S
C110 C111 1.379 . S
C111 H89 0.948 . S
C111 C106 1.364 1_655 S
C111 C110 1.379 . S
C112 C81 1.383 . S
C112 C99 1.479 . S
C112 C113 1.398 1_545 S
C113 C78 1.382 . S
C113 H90 0.951 1_565 S
C113 C112 1.398 1_565 S
C114 C115 1.384 . S
C114 H127 0.947 . S
C114 C149 1.382 . S
C115 C114 1.384 . S
C115 C116 1.378 . S
C116 C115 1.378 . S
C116 C117 1.378 . S
C116 H128 0.981 . S
C117 C116 1.378 . S
C117 H129 0.950 . S
C117 C148 1.383 . S
H118 C137 0.947 . S
H119 C138 0.946 . S
H120 C140 0.953 . S
H121 C141 0.945 . S
H122 C143 0.952 . S
H123 C144 0.949 . S
H124 C146 0.950 . S
H125 C147 0.948 . S
H126 C149 0.951 . S
H127 C114 0.947 . S
H128 C116 0.981 . S
H129 C117 0.950 . S
N130 C133 1.382 . S
N130 C135 1.363 . S
N131 C133 1.371 . S
N131 C134 1.372 . S
N132 C134 1.361 . S
N132 C135 1.377 . S
C133 N130 1.382 . S
C133 N131 1.371 . S
C133 C136 1.480 . S
C134 N131 1.372 . S
C134 N132 1.361 . S
C134 C142 1.457 . S
C135 N130 1.363 . S
C135 N132 1.377 . S
C135 C148 1.479 . S
C136 C133 1.480 . S
C136 C137 1.383 . S
C136 C141 1.385 . S
C137 H118 0.947 . S
C137 C136 1.383 . S
C137 C138 1.388 . S
C138 H119 0.946 . S
C138 C137 1.388 . S
C138 C139 1.384 . S
C139 C138 1.384 . S
C139 C140 1.377 . S
C140 H120 0.953 . S
C140 C139 1.377 . S
C140 C141 1.369 . S
C141 H121 0.945 . S
C141 C136 1.385 . S
C141 C140 1.369 . S
C142 C134 1.457 . S
C142 C143 1.372 . S
C142 C147 1.364 . S
C143 H122 0.952 . S
C143 C142 1.372 . S
C143 C144 1.389 . S
C144 H123 0.949 . S
C144 C143 1.389 . S
C144 C145 1.387 . S
C145 C144 1.387 . S
C145 C146 1.372 . S
C146 H124 0.950 . S
C146 C145 1.372 . S
C146 C147 1.379 . S
C147 H125 0.948 . S
C147 C142 1.364 . S
C147 C146 1.379 . S
C148 C117 1.383 . S
C148 C135 1.479 . S
C148 C149 1.398 . S
C149 C114 1.382 . S
C149 H126 0.951 . S
C149 C148 1.398 . S
C150 C151 1.384 . S
C150 H163 0.947 . S
C150 C185 1.382 . S
C151 C150 1.384 . S
C151 C152 1.378 . S
C152 C151 1.378 . S
C152 C153 1.378 . S
C152 H164 0.952 . S
C153 C152 1.378 . S
C153 H165 0.950 . S
C153 C184 1.383 . S
H154 C173 0.947 . S
H155 C174 0.946 . S
H156 C176 0.953 . S
H157 C177 0.945 . S
H158 C179 0.952 . S
H159 C180 0.949 . S
H160 C182 0.950 . S
H161 C183 0.948 . S
H162 C185 0.951 . S
H163 C150 0.947 . S
H164 C152 0.952 . S
H165 C153 0.950 . S
N166 C169 1.382 . S
N166 C171 1.363 . S
N167 C169 1.371 . S
N167 C170 1.372 . S
N168 C170 1.361 . S
N168 C171 1.377 . S
C169 N166 1.382 . S
C169 N167 1.371 . S
C169 C172 1.480 . S
C170 N167 1.372 . S
C170 N168 1.361 . S
C170 C178 1.457 . S
C171 N166 1.363 . S
C171 N168 1.377 . S
C171 C184 1.479 . S
C172 C169 1.480 . S
C172 C173 1.383 . S
C172 C177 1.385 . S
C173 H154 0.947 . S
C173 C172 1.383 . S
C173 C174 1.388 . S
C174 H155 0.946 . S
C174 C173 1.388 . S
C174 C175 1.384 . S
C175 C174 1.384 . S
C175 C176 1.377 . S
C176 H156 0.953 . S
C176 C175 1.377 . S
C176 C177 1.369 . S
C177 H157 0.945 . S
C177 C172 1.385 . S
C177 C176 1.369 . S
C178 C170 1.457 . S
C178 C179 1.372 . S
C178 C183 1.364 . S
C179 H158 0.952 . S
C179 C178 1.372 . S
C179 C180 1.389 . S
C180 H159 0.949 . S
C180 C179 1.389 . S
C180 C181 1.387 . S
C181 C180 1.387 . S
C181 C182 1.372 . S
C182 H160 0.950 . S
C182 C181 1.372 . S
C182 C183 1.379 . S
C183 H161 0.948 . S
C183 C178 1.364 . S
C183 C182 1.379 . S
C184 C153 1.383 . S
C184 C171 1.479 . S
C184 C185 1.398 . S
C185 C150 1.382 . S
C185 H162 0.951 . S
C185 C184 1.398 . S
C186 C187 1.349 . S
C186 C188 1.327 . S
C186 H211 0.950 . S
C187 C186 1.349 . S
C187 C203 1.349 1_554 S
C188 C186 1.327 . S
C188 C207 1.429 . S
C188 H212 0.950 . S
C189 C206 1.574 . S
C189 C208 1.368 . S
C189 H213 0.949 1_554 S
H190 C194 0.949 . S
C191 C192 1.349 . S
C191 C193 1.327 . S
C191 H214 0.950 . S
C192 C191 1.349 . S
C192 C204 1.349 . S
C193 C191 1.327 . S
C193 C209 1.429 . S
C193 H215 0.950 1_554 S
C194 H190 0.949 . S
C194 C202 1.574 . S
C194 C210 1.368 . S
H195 C203 0.950 . S
H196 C201 0.950 . S
H197 C202 0.949 . S
H198 C204 0.950 . S
H199 C205 0.950 . S
H200 C206 0.949 1_556 S
C201 H196 0.950 . S
C201 C203 1.327 . S
C201 C207 1.429 1_556 S
C202 C194 1.574 . S
C202 H197 0.949 . S
C202 C208 1.368 . S
C203 C187 1.349 1_556 S
C203 H195 0.950 . S
C203 C201 1.327 . S
C204 C192 1.349 . S
C204 H198 0.950 . S
C204 C205 1.327 . S
C205 H199 0.950 . S
C205 C204 1.327 . S
C205 C209 1.429 . S
C206 C189 1.574 . S
C206 H200 0.949 1_554 S
C206 C210 1.368 . S
C207 C188 1.429 . S
C207 C201 1.429 1_554 S
C207 C208 1.523 . S
C208 C189 1.368 . S
C208 C202 1.368 . S
C208 C207 1.523 . S
C209 C193 1.429 . S
C209 C205 1.429 . S
C209 C210 1.523 . S
C210 C194 1.368 . S
C210 C206 1.368 . S
C210 C209 1.523 . S
H211 C186 0.950 . S
H212 C188 0.950 . S
H213 C189 0.949 1_556 S
H214 C191 0.950 . S
H215 C193 0.950 1_556 S
C216 C217 1.349 . S
C216 C218 1.327 . S
C216 H241 0.950 . S
C217 C216 1.349 . S
C217 C233 1.349 1_554 S
C218 C216 1.327 . S
C218 C237 1.429 1_554 S
C218 H242 0.950 . S
C219 C236 1.574 . S
C219 C238 1.368 . S
C219 H243 0.949 . S
H220 C224 0.949 . S
C221 C222 1.349 . S
C221 C223 1.327 . S
C221 H244 0.950 . S
C222 C221 1.349 . S
C222 C234 1.349 . S
C223 C221 1.327 . S
C223 C239 1.429 . S
C223 H245 0.950 . S
C224 H220 0.949 . S
C224 C232 1.574 . S
C224 C240 1.368 1_554 S
H225 C233 0.950 . S
H226 C231 0.950 . S
H227 C232 0.949 . S
H228 C234 0.950 1_554 S
H229 C235 0.950 . S
H230 C236 0.949 . S
C231 H226 0.950 . S
C231 C233 1.327 . S
C231 C237 1.429 . S
C232 C224 1.574 . S
C232 H227 0.949 . S
C232 C238 1.368 1_554 S
C233 C217 1.349 1_556 S
C233 H225 0.950 . S
C233 C231 1.327 . S
C234 C222 1.349 . S
C234 H228 0.950 1_556 S
C234 C235 1.327 1_556 S
C235 H229 0.950 . S
C235 C234 1.327 1_554 S
C235 C239 1.429 1_554 S
C236 C219 1.574 . S
C236 H230 0.949 . S
C236 C240 1.368 . S
C237 C218 1.429 1_556 S
C237 C231 1.429 . S
C237 C238 1.523 . S
C238 C219 1.368 . S
C238 C232 1.368 1_556 S
C238 C237 1.523 . S
C239 C223 1.429 . S
C239 C235 1.429 1_556 S
C239 C240 1.523 . S
C240 C224 1.368 1_556 S
C240 C236 1.368 . S
C240 C239 1.523 . S
H241 C216 0.950 . S
H242 C218 0.950 . S
H243 C219 0.949 . S
H244 C221 0.950 . S
H245 C223 0.950 . S
C246 C247 1.349 . S
C246 C248 1.327 . S
C246 H271 0.950 1_554 S
C247 C246 1.349 . S
C247 C263 1.349 . S
C248 C246 1.327 . S
C248 C267 1.429 . S
C248 H272 0.950 1_554 S
C249 C266 1.574 . S
C249 C268 1.368 . S
C249 H273 0.949 . S
H250 C254 0.949 . S
C251 C252 1.349 . S
C251 C253 1.327 . S
C251 H274 0.950 . S
C252 C251 1.349 . S
C252 C264 1.349 . S
C253 C251 1.327 . S
C253 C269 1.429 . S
C253 H275 0.950 . S
C254 H250 0.949 . S
C254 C262 1.574 . S
C254 C270 1.368 . S
H255 C263 0.950 . S
H256 C261 0.950 . S
H257 C262 0.949 1_556 S
H258 C264 0.950 . S
H259 C265 0.950 . S
H260 C266 0.949 . S
C261 H256 0.950 . S
C261 C263 1.327 . S
C261 C267 1.429 . S
C262 C254 1.574 . S
C262 H257 0.949 1_554 S
C262 C268 1.368 . S
C263 C247 1.349 . S
C263 H255 0.950 . S
C263 C261 1.327 . S
C264 C252 1.349 . S
C264 H258 0.950 . S
C264 C265 1.327 . S
C265 H259 0.950 . S
C265 C264 1.327 . S
C265 C269 1.429 . S
C266 C249 1.574 . S
C266 H260 0.949 . S
C266 C270 1.368 . S
C267 C248 1.429 . S
C267 C261 1.429 . S
C267 C268 1.523 . S
C268 C249 1.368 . S
C268 C262 1.368 . S
C268 C267 1.523 . S
C269 C253 1.429 . S
C269 C265 1.429 . S
C269 C270 1.523 . S
C270 C254 1.368 . S
C270 C266 1.368 . S
C270 C269 1.523 . S
H271 C246 0.950 1_556 S
H272 C248 0.950 1_556 S
H273 C249 0.949 . S
H274 C251 0.950 . S
H275 C253 0.950 . S
C276 C277 1.349 1_556 S
C276 C278 1.327 . S
C276 H301 0.972 . S
C277 C276 1.349 1_554 S
C277 C293 1.349 . S
C278 C276 1.327 . S
C278 C297 1.429 . S
C278 H302 0.950 . S
C279 C296 1.574 . S
C279 C298 1.368 . S
C279 H303 0.949 . S
H280 C284 0.949 . S
C281 C282 1.349 . S
C281 C283 1.327 . S
C281 H304 0.950 . S
C282 C281 1.349 . S
C282 C294 1.349 . S
C283 C281 1.327 . S
C283 C299 1.429 . S
C283 H305 0.950 . S
C284 H280 0.949 . S
C284 C292 1.574 . S
C284 C300 1.368 . S
H285 C293 0.950 . S
H286 C291 0.948 1_554 S
H287 C292 0.949 . S
H288 C294 0.950 . S
H289 C295 0.950 . S
H290 C296 0.949 . S
C291 H286 0.948 1_556 S
C291 C293 1.327 1_556 S
C291 C297 1.429 . S
C292 C284 1.574 . S
C292 H287 0.949 . S
C292 C298 1.368 . S
C293 C277 1.349 . S
C293 H285 0.950 . S
C293 C291 1.327 1_554 S
C294 C282 1.349 . S
C294 H288 0.950 . S
C294 C295 1.327 . S
C295 H289 0.950 . S
C295 C294 1.327 . S
C295 C299 1.429 . S
C296 C279 1.574 . S
C296 H290 0.949 . S
C296 C300 1.368 . S
C297 C278 1.429 . S
C297 C291 1.429 . S
C297 C298 1.523 . S
C298 C279 1.368 . S
C298 C292 1.368 . S
C298 C297 1.523 . S
C299 C283 1.429 . S
C299 C295 1.429 . S
C299 C300 1.523 . S
C300 C284 1.368 . S
C300 C296 1.368 . S
C300 C299 1.523 . S
H301 C276 0.972 . S
H302 C278 0.950 . S
H303 C279 0.949 . S
H304 C281 0.950 . S
H305 C283 0.950 . S
C306 C307 1.349 . S
C306 C308 1.327 . S
C306 H331 0.950 . S
C307 C306 1.349 . S
C307 C323 1.349 . S
C308 C306 1.327 . S
C308 C327 1.429 . S
C308 H332 0.950 . S
C309 C326 1.574 . S
C309 C328 1.368 . S
C309 H333 0.949 . S
H310 C314 0.949 . S
C311 C312 1.349 . S
C311 C313 1.327 . S
C311 H334 0.950 . S
C312 C311 1.349 . S
C312 C324 1.349 . S
C313 C311 1.327 . S
C313 C329 1.429 . S
C313 H335 0.950 . S
C314 H310 0.949 . S
C314 C322 1.574 . S
C314 C330 1.368 . S
H315 C323 0.950 . S
H316 C321 0.950 . S
H317 C322 0.949 . S
H318 C324 0.950 . S
H319 C325 0.950 . S
H320 C326 0.949 . S
C321 H316 0.950 . S
C321 C323 1.327 . S
C321 C327 1.429 . S
C322 C314 1.574 . S
C322 H317 0.949 . S
C322 C328 1.368 . S
C323 C307 1.349 . S
C323 H315 0.950 . S
C323 C321 1.327 . S
C324 C312 1.349 . S
C324 H318 0.950 . S
C324 C325 1.327 . S
C325 H319 0.950 . S
C325 C324 1.327 . S
C325 C329 1.429 . S
C326 C309 1.574 . S
C326 H320 0.949 . S
C326 C330 1.368 . S
C327 C308 1.429 . S
C327 C321 1.429 . S
C327 C328 1.523 . S
C328 C309 1.368 . S
C328 C322 1.368 . S
C328 C327 1.523 . S
C329 C313 1.429 . S
C329 C325 1.429 . S
C329 C330 1.523 . S
C330 C314 1.368 . S
C330 C326 1.368 . S
C330 C329 1.523 . S
H331 C306 0.950 . S
H332 C308 0.950 . S
H333 C309 0.949 . S
H334 C311 0.950 . S
H335 C313 0.950 . S
C336 C337 1.349 . S
C336 C338 1.327 . S
C336 H361 0.950 . S
C337 C336 1.349 . S
C337 C353 1.349 . S
C338 C336 1.327 . S
C338 C357 1.429 . S
C338 H362 0.950 . S
C339 C356 1.574 . S
C339 C358 1.368 . S
C339 H363 0.949 . S
H340 C344 0.949 . S
C341 C342 1.349 . S
C341 C343 1.327 . S
C341 H364 0.950 . S
C342 C341 1.349 . S
C342 C354 1.349 . S
C343 C341 1.327 . S
C343 C359 1.429 . S
C343 H365 0.950 . S
C344 H340 0.949 . S
C344 C352 1.574 . S
C344 C360 1.368 . S
H345 C353 0.950 . S
H346 C351 0.950 . S
H347 C352 0.949 . S
H348 C354 0.950 . S
H349 C355 0.950 . S
H350 C356 0.949 . S
C351 H346 0.950 . S
C351 C353 1.327 . S
C351 C357 1.429 . S
C352 C344 1.574 . S
C352 H347 0.949 . S
C352 C358 1.368 . S
C353 C337 1.349 . S
C353 H345 0.950 . S
C353 C351 1.327 . S
C354 C342 1.349 . S
C354 H348 0.950 . S
C354 C355 1.327 . S
C355 H349 0.950 . S
C355 C354 1.327 . S
C355 C359 1.429 . S
C356 C339 1.574 . S
C356 H350 0.949 . S
C356 C360 1.368 . S
C357 C338 1.429 . S
C357 C351 1.429 . S
C357 C358 1.523 . S
C358 C339 1.368 . S
C358 C352 1.368 . S
C358 C357 1.523 . S
C359 C343 1.429 . S
C359 C355 1.429 . S
C359 C360 1.523 . S
C360 C344 1.368 . S
C360 C356 1.368 . S
C360 C359 1.523 . S
H361 C336 0.950 . S
H362 C338 0.950 . S
H363 C339 0.949 . S
H364 C341 0.950 . S
H365 C343 0.950 . S
C366 C367 1.349 . S
C366 C368 1.327 . S
C366 H391 0.950 . S
C367 C366 1.349 . S
C367 C383 1.349 . S
C368 C366 1.327 . S
C368 C387 1.429 . S
C368 H392 0.950 . S
C369 C386 1.574 . S
C369 C388 1.368 . S
C369 H393 0.949 . S
H370 C374 0.949 . S
C371 C372 1.349 . S
C371 C373 1.327 . S
C371 H394 0.950 . S
C372 C371 1.349 . S
C372 C384 1.349 . S
C373 C371 1.327 . S
C373 C389 1.429 . S
C373 H395 0.950 . S
C374 H370 0.949 . S
C374 C382 1.574 . S
C374 C390 1.368 . S
H375 C383 0.950 . S
H376 C381 0.950 . S
H377 C382 0.949 . S
H378 C384 0.950 . S
H379 C385 0.950 . S
H380 C386 0.949 . S
C381 H376 0.950 . S
C381 C383 1.327 . S
C381 C387 1.429 . S
C382 C374 1.574 . S
C382 H377 0.949 . S
C382 C388 1.368 . S
C383 C367 1.349 . S
C383 H375 0.950 . S
C383 C381 1.327 . S
C384 C372 1.349 . S
C384 H378 0.950 . S
C384 C385 1.327 . S
C385 H379 0.950 . S
C385 C384 1.327 . S
C385 C389 1.429 . S
C386 C369 1.574 . S
C386 H380 0.949 . S
C386 C390 1.368 . S
C387 C368 1.429 . S
C387 C381 1.429 . S
C387 C388 1.523 . S
C388 C369 1.368 . S
C388 C382 1.368 . S
C388 C387 1.523 . S
C389 C373 1.429 . S
C389 C385 1.429 . S
C389 C390 1.523 . S
C390 C374 1.368 . S
C390 C386 1.368 . S
C390 C389 1.523 . S
H391 C366 0.950 . S
H392 C368 0.950 . S
H393 C369 0.949 . S
H394 C371 0.950 . S
H395 C373 0.950 . S
C396 C397 1.349 . S
C396 C398 1.327 . S
C396 H421 0.950 . S
C397 C396 1.349 . S
C397 C413 1.349 . S
C398 C396 1.327 . S
C398 C417 1.429 . S
C398 H422 0.950 . S
C399 C416 1.574 . S
C399 C418 1.368 . S
C399 H423 0.949 . S
H400 C404 0.949 . S
C401 C402 1.349 . S
C401 C403 1.327 . S
C401 H424 0.950 . S
C402 C401 1.349 . S
C402 C414 1.349 . S
C403 C401 1.327 . S
C403 C419 1.429 . S
C403 H425 0.950 . S
C404 H400 0.949 . S
C404 C412 1.574 . S
C404 C420 1.368 . S
H405 C413 0.950 . S
H406 C411 0.950 . S
H407 C412 0.949 . S
H408 C414 0.950 . S
H409 C415 0.950 . S
H410 C416 0.949 . S
C411 H406 0.950 . S
C411 C413 1.327 . S
C411 C417 1.429 . S
C412 C404 1.574 . S
C412 H407 0.949 . S
C412 C418 1.368 . S
C413 C397 1.349 . S
C413 H405 0.950 . S
C413 C411 1.327 . S
C414 C402 1.349 . S
C414 H408 0.950 . S
C414 C415 1.327 . S
C415 H409 0.950 . S
C415 C414 1.327 . S
C415 C419 1.429 . S
C416 C399 1.574 . S
C416 H410 0.949 . S
C416 C420 1.368 . S
C417 C398 1.429 . S
C417 C411 1.429 . S
C417 C418 1.523 . S
C418 C399 1.368 . S
C418 C412 1.368 . S
C418 C417 1.523 . S
C419 C403 1.429 . S
C419 C415 1.429 . S
C419 C420 1.523 . S
C420 C404 1.368 . S
C420 C416 1.368 . S
C420 C419 1.523 . S
H421 C396 0.950 . S
H422 C398 0.950 . S
H423 C399 0.949 . S
H424 C401 0.950 . S
H425 C403 0.950 . S
C426 C427 1.349 1_565 S
C426 C428 1.327 . S
C426 H451 0.950 . S
C427 C426 1.349 1_545 S
C427 C443 1.349 . S
C428 C426 1.327 . S
C428 C447 1.429 1_565 S
C428 H452 0.950 . S
C429 C446 1.574 . S
C429 C448 1.368 . S
C429 H453 0.949 . S
H430 C434 0.949 . S
C431 C432 1.349 1_545 S
C431 C433 1.327 . S
C431 H454 0.950 . S
C432 C431 1.349 1_565 S
C432 C444 1.349 . S
C433 C431 1.327 . S
C433 C449 1.429 . S
C433 H455 0.950 . S
C434 H430 0.949 . S
C434 C442 1.574 . S
C434 C450 1.368 1_565 S
H435 C443 0.950 . S
H436 C441 0.950 . S
H437 C442 0.949 . S
H438 C444 0.950 . S
H439 C445 0.950 . S
H440 C446 0.949 . S
C441 H436 0.950 . S
C441 C443 1.327 . S
C441 C447 1.429 . S
C442 C434 1.574 . S
C442 H437 0.949 . S
C442 C448 1.368 1_565 S
C443 C427 1.349 . S
C443 H435 0.950 . S
C443 C441 1.327 . S
C444 C432 1.349 . S
C444 H438 0.950 . S
C444 C445 1.327 . S
C445 H439 0.950 . S
C445 C444 1.327 . S
C445 C449 1.429 1_565 S
C446 C429 1.574 . S
C446 H440 0.949 . S
C446 C450 1.368 . S
C447 C428 1.429 1_545 S
C447 C441 1.429 . S
C447 C448 1.523 . S
C448 C429 1.368 . S
C448 C442 1.368 1_545 S
C448 C447 1.523 . S
C449 C433 1.429 . S
C449 C445 1.429 1_545 S
C449 C450 1.523 . S
C450 C434 1.368 1_545 S
C450 C446 1.368 . S
C450 C449 1.523 . S
H451 C426 0.950 . S
H452 C428 0.950 . S
H453 C429 0.949 . S
H454 C431 0.950 . S
H455 C433 0.950 . S
C456 C457 1.349 . S
C456 C458 1.327 . S
C456 H481 0.950 1_545 S
C457 C456 1.349 . S
C457 C473 1.349 . S
C458 C456 1.327 . S
C458 C477 1.429 . S
C458 H482 0.950 1_545 S
C459 C476 1.574 . S
C459 C478 1.368 . S
C459 H483 0.949 . S
H460 C464 0.949 . S
C461 C462 1.347 1_655 S
C461 C463 1.326 1_655 S
C461 H484 0.953 . S
C462 C461 1.347 1_455 S
C462 C474 1.349 . S
C463 C461 1.326 1_455 S
C463 C479 1.429 . S
C463 H485 0.950 1_455 S
C464 H460 0.949 . S
C464 C472 1.574 . S
C464 C480 1.368 . S
H465 C473 0.950 . S
H466 C471 0.950 . S
H467 C472 0.949 . S
H468 C474 0.950 . S
H469 C475 0.950 . S
H470 C476 0.949 . S
C471 H466 0.950 . S
C471 C473 1.327 . S
C471 C477 1.429 . S
C472 C464 1.574 . S
C472 H467 0.949 . S
C472 C478 1.368 . S
C473 C457 1.349 . S
C473 H465 0.950 . S
C473 C471 1.327 . S
C474 C462 1.349 . S
C474 H468 0.950 . S
C474 C475 1.327 . S
C475 H469 0.950 . S
C475 C474 1.327 . S
C475 C479 1.429 . S
C476 C459 1.574 . S
C476 H470 0.949 . S
C476 C480 1.368 . S
C477 C458 1.429 . S
C477 C471 1.429 . S
C477 C478 1.523 . S
C478 C459 1.368 . S
C478 C472 1.368 . S
C478 C477 1.523 . S
C479 C463 1.429 . S
C479 C475 1.429 . S
C479 C480 1.523 . S
C480 C464 1.368 . S
C480 C476 1.368 . S
C480 C479 1.523 . S
H481 C456 0.950 1_565 S
H482 C458 0.950 1_565 S
H483 C459 0.949 . S
H484 C461 0.953 . S
H485 C463 0.950 1_655 S
C486 C487 1.349 . S
C486 C488 1.327 . S
C486 H511 0.950 . S
C487 C486 1.349 . S
C487 C503 1.349 . S
C488 C486 1.327 . S
C488 C507 1.429 . S
C488 H512 0.950 . S
C489 C506 1.574 . S
C489 C508 1.368 . S
C489 H513 0.949 . S
H490 C494 0.949 . S
C491 C492 1.349 . S
C491 C493 1.327 . S
C491 H514 0.950 . S
C492 C491 1.349 . S
C492 C504 1.349 . S
C493 C491 1.327 . S
C493 C509 1.429 . S
C493 H515 0.950 . S
C494 H490 0.949 . S
C494 C502 1.574 . S
C494 C510 1.368 . S
H495 C503 0.950 . S
H496 C501 0.950 . S
H497 C502 0.949 . S
H498 C504 0.950 . S
H499 C505 0.950 . S
H500 C506 0.949 . S
C501 H496 0.950 . S
C501 C503 1.327 . S
C501 C507 1.429 . S
C502 C494 1.574 . S
C502 H497 0.949 . S
C502 C508 1.368 . S
C503 C487 1.349 . S
C503 H495 0.950 . S
C503 C501 1.327 . S
C504 C492 1.349 . S
C504 H498 0.950 . S
C504 C505 1.327 . S
C505 H499 0.950 . S
C505 C504 1.327 . S
C505 C509 1.429 . S
C506 C489 1.574 . S
C506 H500 0.949 . S
C506 C510 1.368 . S
C507 C488 1.429 . S
C507 C501 1.429 . S
C507 C508 1.523 . S
C508 C489 1.368 . S
C508 C502 1.368 . S
C508 C507 1.523 . S
C509 C493 1.429 . S
C509 C505 1.429 . S
C509 C510 1.523 . S
C510 C494 1.368 . S
C510 C506 1.368 . S
C510 C509 1.523 . S
H511 C486 0.950 . S
H512 C488 0.950 . S
H513 C489 0.949 . S
H514 C491 0.950 . S
H515 C493 0.950 . S
C516 C517 1.349 . S
C516 C518 1.327 . S
C516 H541 0.950 . S
C517 C516 1.349 . S
C517 C533 1.349 . S
C518 C516 1.327 . S
C518 C537 1.429 . S
C518 H542 0.950 . S
C519 C536 1.574 . S
C519 C538 1.368 . S
C519 H543 0.949 . S
H520 C524 0.949 . S
C521 C522 1.349 . S
C521 C523 1.327 . S
C521 H544 0.950 . S
C522 C521 1.349 . S
C522 C534 1.349 . S
C523 C521 1.327 . S
C523 C539 1.429 . S
C523 H545 0.950 . S
C524 H520 0.949 . S
C524 C532 1.574 . S
C524 C540 1.368 . S
H525 C533 0.950 . S
H526 C531 0.950 . S
H527 C532 0.949 . S
H528 C534 0.950 . S
H529 C535 0.950 . S
H530 C536 0.949 . S
C531 H526 0.950 . S
C531 C533 1.327 . S
C531 C537 1.429 . S
C532 C524 1.574 . S
C532 H527 0.949 . S
C532 C538 1.368 . S
C533 C517 1.349 . S
C533 H525 0.950 . S
C533 C531 1.327 . S
C534 C522 1.349 . S
C534 H528 0.950 . S
C534 C535 1.327 . S
C535 H529 0.950 . S
C535 C534 1.327 . S
C535 C539 1.429 . S
C536 C519 1.574 . S
C536 H530 0.949 . S
C536 C540 1.368 . S
C537 C518 1.429 . S
C537 C531 1.429 . S
C537 C538 1.523 . S
C538 C519 1.368 . S
C538 C532 1.368 . S
C538 C537 1.523 . S
C539 C523 1.429 . S
C539 C535 1.429 . S
C539 C540 1.523 . S
C540 C524 1.368 . S
C540 C536 1.368 . S
C540 C539 1.523 . S
H541 C516 0.950 . S
H542 C518 0.950 . S
H543 C519 0.949 . S
H544 C521 0.950 . S
H545 C523 0.950 . S
C192 C151 1.395 . S
C187 C16 1.244 . S
C217 C15 1.476 . S
C222 C115 1.471 . S
C247 C13 1.266 . S
C252 C175 1.414 . S
C277 C14 1.272 . S
C282 C139 1.297 . S
C307 C37 1.244 . S
C312 C79 1.397 . S
C337 C36 1.476 . S
C342 C43 1.471 . S
C372 C103 1.413 . S
C367 C34 1.265 . S
C402 C67 1.297 . S
C397 C35 1.272 . S
C427 C17 1.519 . S
C432 C73 1.556 1_565 S
C457 C18 1.368 . S
C462 C109 1.404 . S
C492 C145 1.555 . S
C487 C38 1.519 . S
C517 C39 1.368 . S
C522 C181 1.404 . S
