# Generated by pormake.
# Topology anh, (6,3)-cn, num edge types: 1
# Building blocks:
#     Node 0, Type 0, BuildingBlock: NUHQIS_clean_sbu_0, # of connection points: 6
#     Node 1, Type 0, BuildingBlock: NUHQIS_clean_sbu_0, # of connection points: 6
#     Node 2, Type 0, BuildingBlock: NUHQIS_clean_sbu_0, # of connection points: 6
#     Node 3, Type 1, BuildingBlock: MIDCAF_clean_linker_0, # of connection points: 3
#     Node 4, Type 1, BuildingBlock: MIDCAF_clean_linker_0, # of connection points: 3
#     Node 5, Type 1, BuildingBlock: MIDCAF_clean_linker_0, # of connection points: 3
#     Node 6, Type 1, BuildingBlock: MIDCAF_clean_linker_0, # of connection points: 3
#     Node 7, Type 1, BuildingBlock: MIDCAF_clean_linker_0, # of connection points: 3
#     Node 8, Type 1, BuildingBlock: MIDCAF_clean_linker_0, # of connection points: 3
#     Edge 9, Type (0, 1), BuildingBlock: KIFKEQ_clean_linker_1, # of connection points: 2
#     Edge 10, Type (0, 1), BuildingBlock: KIFKEQ_clean_linker_1, # of connection points: 2
#     Edge 11, Type (0, 1), BuildingBlock: KIFKEQ_clean_linker_1, # of connection points: 2
#     Edge 12, Type (0, 1), BuildingBlock: KIFKEQ_clean_linker_1, # of connection points: 2
#     Edge 13, Type (0, 1), BuildingBlock: KIFKEQ_clean_linker_1, # of connection points: 2
#     Edge 14, Type (0, 1), BuildingBlock: KIFKEQ_clean_linker_1, # of connection points: 2
#     Edge 15, Type (0, 1), BuildingBlock: KIFKEQ_clean_linker_1, # of connection points: 2
#     Edge 16, Type (0, 1), BuildingBlock: KIFKEQ_clean_linker_1, # of connection points: 2
#     Edge 17, Type (0, 1), BuildingBlock: KIFKEQ_clean_linker_1, # of connection points: 2
#     Edge 18, Type (0, 1), BuildingBlock: KIFKEQ_clean_linker_1, # of connection points: 2
#     Edge 19, Type (0, 1), BuildingBlock: KIFKEQ_clean_linker_1, # of connection points: 2
#     Edge 20, Type (0, 1), BuildingBlock: KIFKEQ_clean_linker_1, # of connection points: 2
#     Edge 21, Type (0, 1), BuildingBlock: KIFKEQ_clean_linker_1, # of connection points: 2
#     Edge 22, Type (0, 1), BuildingBlock: KIFKEQ_clean_linker_1, # of connection points: 2
#     Edge 23, Type (0, 1), BuildingBlock: KIFKEQ_clean_linker_1, # of connection points: 2
#     Edge 24, Type (0, 1), BuildingBlock: KIFKEQ_clean_linker_1, # of connection points: 2
#     Edge 25, Type (0, 1), BuildingBlock: KIFKEQ_clean_linker_1, # of connection points: 2
#     Edge 26, Type (0, 1), BuildingBlock: KIFKEQ_clean_linker_1, # of connection points: 2
# Relax obj value: 0.236
# Max RMSD: 0.188
# Mean RMSD: 0.155
data_MOF--net-anh--node1-NUHQIS_clean_sbu_0--node2-MIDCAF_clean_linker_0--edge1-KIFKEQ_clean_linker_1
_symmetry_space_group_name_H-M    P1
_symmetry_Int_Tables_number       1
_symmetry_cell_setting            triclinic
loop_
_symmetry_equiv_pos_as_xyz
'x, y, z'
_cell_length_a     35.833877
_cell_length_b     35.877209
_cell_length_c     68.007475
_cell_angle_alpha  90.095343
_cell_angle_beta   91.511616
_cell_angle_gamma 120.0196
loop_
_atom_site_label
_atom_site_type_symbol
_atom_site_fract_x
_atom_site_fract_y
_atom_site_fract_z
_atom_type_partial_charge
Tb0 Tb 0.18115 0.61703 0.15482 0.0
Eu1 Eu 0.12462 0.66537 0.15038 0.0
C2 C 0.15292 0.64583 0.19144 0.0
C3 C 1.07827 0.56202 0.15275 0.0
C4 C 0.26511 0.58862 0.16872 0.0
C5 C 0.3093 0.56161 0.18306 0.0
C6 C 0.26912 0.55473 0.17654 0.0
C7 C 0.30112 0.63031 0.1688 0.0
C8 C 0.34151 0.63724 0.17525 0.0
C9 C 0.34623 0.60259 0.18177 0.0
C10 C 0.22369 0.57908 0.15961 0.0
O11 O 0.15703 0.60701 0.12442 0.0
O12 O 0.15269 0.66808 0.12099 0.0
O13 O 0.193 0.71975 0.15551 0.0
O14 O 0.23085 0.68417 0.15059 0.0
C15 C 0.15558 0.63616 0.11329 0.0
O16 O 1.08225 0.68136 0.13346 0.0
O17 O 1.10047 0.70442 0.16362 0.0
O18 O 0.11939 0.64061 0.18104 0.0
O19 O 0.18647 0.64903 0.18269 0.0
O20 O 1.11483 0.56641 0.1598 0.0
O21 O 1.07619 0.59477 0.14537 0.0
C22 C 0.22948 0.71991 0.15324 0.0
O23 O 0.1945 0.57578 0.17161 0.0
O24 O 0.22523 0.60061 0.14391 0.0
C25 C 1.02742 0.67471 0.15331 0.0
C26 C 0.93959 0.6115 0.15438 0.0
C27 C 0.95443 0.64343 0.1399 0.0
C28 C 0.99796 0.67481 0.13942 0.0
C29 C 1.01211 0.64549 0.16887 0.0
C30 C 0.9685 0.61438 0.16948 0.0
C31 C 1.07345 0.69701 0.14885 0.0
H32 H 0.31181 0.53407 0.1877 0.0
H33 H 0.24151 0.52244 0.17672 0.0
H34 H 0.2984 0.65704 0.16309 0.0
H35 H 0.36935 0.66917 0.1742 0.0
H36 H 0.93333 0.64212 0.1279 0.0
H37 H 1.00917 0.6967 0.12719 0.0
H38 H 1.03421 0.64446 0.17974 0.0
H39 H 0.95803 0.59091 0.18107 0.0
Tb40 Tb 0.68919 0.1292 0.48878 0.0
Eu41 Eu 0.58503 1.07271 0.48471 0.0
C42 C 0.63364 0.09539 0.52546 0.0
C43 C 0.64399 1.02736 0.48669 0.0
C44 C 0.78844 0.22664 0.49757 0.0
C45 C 0.83891 0.29946 0.48811 0.0
C46 C 0.82675 0.25595 0.48871 0.0
C47 C 0.76424 0.24183 0.5072 0.0
C48 C 0.77635 0.28531 0.50658 0.0
C49 C 0.81262 0.31411 0.49617 0.0
C50 C 0.76865 0.18056 0.49289 0.0
O51 O 0.67255 0.10504 0.45847 0.0
O52 O 0.60842 0.10383 0.45561 0.0
O53 O 0.5993 0.14003 0.49253 0.0
O54 O 0.66926 0.17674 0.48276 0.0
C55 C 0.64238 0.10629 0.44754 0.0
O56 O 0.52587 1.0246 0.46951 0.0
O57 O 0.52254 1.05323 0.49706 0.0
O58 O 0.60589 1.06292 0.51453 0.0
O59 O 0.66297 0.13041 0.51717 0.0
O60 O 0.67718 1.06371 0.49337 0.0
O61 O 0.6087 1.02581 0.4796 0.0
C62 C 0.63411 0.17629 0.48824 0.0
O63 O 0.74574 0.15429 0.5066 0.0
O64 O 0.74836 0.16963 0.47584 0.0
C65 C 0.47917 0.97868 0.49298 0.0
C66 C 0.43889 0.89404 0.50704 0.0
C67 C 0.41617 0.90772 0.49454 0.0
C68 C 0.43621 0.94978 0.48756 0.0
C69 C 0.50162 0.9655 0.50578 0.0
C70 C 0.48165 0.92363 0.51281 0.0
C71 C 0.50217 1.02152 0.48436 0.0
H72 H 0.86767 0.32125 0.48038 0.0
H73 H 0.84559 0.24479 0.48107 0.0
H74 H 0.73415 0.21963 0.51392 0.0
H75 H 0.7555 0.29563 0.5129 0.0
H76 H 0.38342 0.88546 0.48949 0.0
H77 H 0.41863 0.95933 0.47753 0.0
H78 H 0.53502 0.98733 0.50998 0.0
H79 H 0.49991 0.91425 0.52248 0.0
Tb80 Tb 0.65635 0.64698 0.82374 0.0
Eu81 Eu 0.60997 0.54402 0.81584 0.0
C82 C 0.63252 0.58289 0.8577 0.0
C83 C 0.71459 0.60328 0.81919 0.0
C84 C 0.66044 0.74297 0.84258 0.0
C85 C 0.65741 0.80299 0.85723 0.0
C86 C 0.6815 0.785 0.85027 0.0
C87 C 0.61542 0.71831 0.84305 0.0
C88 C 0.59134 0.73642 0.84938 0.0
C89 C 0.61184 0.77953 0.85605 0.0
C90 C 0.68436 0.72441 0.83352 0.0
O91 O 0.66745 0.63904 0.7929 0.0
O92 O 0.60665 0.57354 0.78735 0.0
O93 O 0.55643 0.5571 0.82382 0.0
O94 O 0.59008 0.62747 0.81468 0.0
C95 C 0.63843 0.60947 0.78075 0.0
O96 O 0.59921 0.48729 0.79919 0.0
O97 O 0.56468 0.47987 0.82598 0.0
O98 O 0.64106 0.55999 0.84578 0.0
O99 O 0.62527 0.61252 0.85041 0.0
O100 O 0.71119 0.63606 0.82572 0.0
O101 O 0.68089 0.56723 0.81271 0.0
C102 C 0.55504 0.59211 0.81953 0.0
O103 O 0.68958 0.69745 0.84443 0.0
O104 O 0.67126 0.70925 0.81567 0.0
C105 C 0.59384 0.43525 0.82136 0.0
C106 C 0.63161 0.38823 0.83613 0.0
C107 C 0.59568 0.36886 0.8229 0.0
C108 C 0.57691 0.39225 0.81559 0.0
C109 C 0.62919 0.45451 0.83475 0.0
C110 C 0.64784 0.43119 0.84213 0.0
C111 C 0.5764 0.46117 0.81301 0.0
H112 H 0.67462 0.83575 0.86289 0.0
H113 H 0.71637 0.80418 0.85048 0.0
H114 H 0.59862 0.68536 0.83777 0.0
H115 H 0.55661 0.71699 0.84789 0.0
H116 H 0.58293 0.33605 0.81767 0.0
H117 H 0.54985 0.37709 0.80516 0.0
H118 H 0.64283 0.48786 0.83928 0.0
H119 H 0.6752 0.44692 0.85236 0.0
C120 C 0.50811 1.02025 0.19722 0.0
C121 C 0.50728 1.00357 0.17841 0.0
C122 C 0.54537 1.02386 0.16756 0.0
C123 C 0.58336 1.05941 0.17557 0.0
H124 H 0.71295 0.19087 0.16723 0.0
H125 H 0.77693 0.25384 0.15419 0.0
H126 H 0.81874 0.30416 0.21332 0.0
H127 H 0.75668 0.24251 0.22616 0.0
H128 H 0.71659 0.1951 0.26299 0.0
H129 H 0.71531 0.18994 0.29872 0.0
H130 H 0.60734 1.06012 0.2936 0.0
H131 H 0.60771 1.06571 0.25801 0.0
H132 H 0.54467 1.06616 0.21989 0.0
H133 H 0.48001 1.00539 0.20626 0.0
H134 H 0.54592 1.0121 0.15296 0.0
H135 H 0.6124 1.07363 0.16715 0.0
N136 N 0.65766 0.1418 0.19583 0.0
N137 N 0.69354 0.16809 0.2266 0.0
N138 N 0.62676 0.10512 0.22496 0.0
C139 C 0.69255 0.17226 0.20672 0.0
C140 C 0.66106 0.13465 0.23582 0.0
C141 C 0.62434 0.1081 0.20512 0.0
C142 C 0.72957 0.21086 0.19781 0.0
C143 C 0.73582 0.21547 0.17739 0.0
C144 C 0.77246 0.25165 0.16992 0.0
C145 C 0.80362 0.28387 0.18272 0.0
C146 C 0.79635 0.27964 0.20299 0.0
C147 C 0.76023 0.24395 0.21037 0.0
C148 C 0.66207 0.13096 0.25756 0.0
C149 C 0.69267 0.16538 0.26947 0.0
C150 C 0.69208 0.16234 0.29 0.0
C151 C 0.66104 0.12469 0.29912 0.0
C152 C 0.63114 0.08995 0.28715 0.0
C153 C 0.63153 0.09309 0.26668 0.0
C154 C 0.58406 1.07487 0.19468 0.0
C155 C 0.54564 1.05516 0.20516 0.0
C156 C 0.66619 0.47827 0.53623 0.0
C157 C 0.65188 0.46337 0.51689 0.0
C158 C 0.64226 0.48887 0.50429 0.0
C159 C 0.64491 0.52728 0.51129 0.0
H160 H 0.68184 0.68057 0.503 0.0
H161 H 0.67913 0.74278 0.48932 0.0
H162 H 0.59866 0.73706 0.53673 0.0
H163 H 0.60107 0.67567 0.55001 0.0
H164 H 0.64412 0.6696 0.59273 0.0
H165 H 0.64507 0.67251 0.62853 0.0
H166 H 0.67773 0.57184 0.63093 0.0
H167 H 0.67578 0.5681 0.59519 0.0
H168 H 0.67979 0.52581 0.55828 0.0
H169 H 0.67485 0.46015 0.54623 0.0
H170 H 0.63124 0.47836 0.48925 0.0
H171 H 0.63585 0.54535 0.50147 0.0
N172 N 0.65099 0.60797 0.52896 0.0
N173 N 0.65115 0.64336 0.55825 0.0
N174 N 0.6596 0.58313 0.55983 0.0
C175 C 0.64827 0.64047 0.53828 0.0
C176 C 0.65705 0.6151 0.56915 0.0
C177 C 0.65655 0.57886 0.53989 0.0
C178 C 0.64168 0.67309 0.52759 0.0
C179 C 0.66282 0.69212 0.51015 0.0
C180 C 0.66165 0.72807 0.50248 0.0
C181 C 0.63874 0.74523 0.51192 0.0
C182 C 0.61621 0.72474 0.52885 0.0
C183 C 0.61777 0.68947 0.53655 0.0
C184 C 0.65956 0.61839 0.59099 0.0
C185 C 0.65168 0.64816 0.60086 0.0
C186 C 0.65248 0.65004 0.62144 0.0
C187 C 0.66129 0.62228 0.63266 0.0
C188 C 0.67008 0.59318 0.62278 0.0
C189 C 0.66914 0.59119 0.60223 0.0
C190 C 0.65759 0.54108 0.53099 0.0
C191 C 0.66912 0.51634 0.54312 0.0
C192 C 1.01209 0.62343 0.86615 0.0
C193 C 1.00062 0.61543 0.84606 0.0
C194 C 1.02615 0.6057 0.83394 0.0
C195 C 1.06244 0.60447 0.84183 0.0
H196 H 0.18004 0.57615 0.83487 0.0
H197 H 0.24252 0.57463 0.82139 0.0
H198 H 0.31963 0.64516 0.87262 0.0
H199 H 0.25848 0.64696 0.88573 0.0
H200 H 0.19075 0.5853 0.92655 0.0
H201 H 0.19186 0.58588 0.96243 0.0
H202 H 1.10489 0.63665 0.96163 0.0
H203 H 1.10225 0.63405 0.92597 0.0
H204 H 1.05474 0.62859 0.88956 0.0
H205 H 0.99298 0.63009 0.87611 0.0
H206 H 1.01833 0.59942 0.81836 0.0
H207 H 1.08134 0.59681 0.8322 0.0
N208 N 0.1427 0.60955 0.86133 0.0
N209 N 0.17677 0.60865 0.89138 0.0
N210 N 1.11229 0.60957 0.89157 0.0
C211 C 0.17632 0.6092 0.87137 0.0
C212 C 0.14492 0.60872 0.90157 0.0
C213 C 1.11042 0.60994 0.87161 0.0
C214 C 0.21407 0.61151 0.86142 0.0
C215 C 0.21058 0.59185 0.84302 0.0
C216 C 0.24628 0.59067 0.83541 0.0
C217 C 0.28631 0.60982 0.84589 0.0
C218 C 0.28975 0.63054 0.86395 0.0
C219 C 0.25433 0.63127 0.87157 0.0
C220 C 0.14625 0.60941 0.92338 0.0
C221 C 0.1718 0.59646 0.93408 0.0
C222 C 0.1726 0.59704 0.95468 0.0
C223 C 0.14834 0.61117 0.96507 0.0
C224 C 0.1232 0.62455 0.95426 0.0
C225 C 0.1219 0.62334 0.93373 0.0
C226 C 1.07353 0.61242 0.86204 0.0
C227 C 1.04772 0.62208 0.87394 0.0
C228 C 0.26544 0.63603 0.4516 0.0
C229 C 0.2561 0.61986 0.47085 0.0
C230 C 0.21266 0.59217 0.47535 0.0
C231 C 0.17963 0.58642 0.46212 0.0
H232 H 1.07419 0.59774 0.46964 0.0
H233 H 1.00768 0.57823 0.48488 0.0
H234 H 0.96165 0.61203 0.43213 0.0
H235 H 1.02855 0.6294 0.41629 0.0
H236 H 1.07434 0.62898 0.37585 0.0
H237 H 1.08006 0.63627 0.34029 0.0
H238 H 0.20384 0.64303 0.34419 0.0
H239 H 0.19791 0.63486 0.37961 0.0
H240 H 0.24092 0.64522 0.42417 0.0
H241 H 0.29816 0.65755 0.4473 0.0
H242 H 0.20402 0.57764 0.48966 0.0
H243 H 0.14652 0.56788 0.46662 0.0
N244 N 0.12253 0.60952 0.44127 0.0
N245 N 1.09767 0.62333 0.41149 0.0
N246 N 0.16045 0.61808 0.41258 0.0
C247 C 1.09336 0.61627 0.43115 0.0
C248 C 0.1312 0.62425 0.40211 0.0
C249 C 0.15604 0.61031 0.43213 0.0
C250 C 1.05611 0.61342 0.44143 0.0
C251 C 1.05027 0.60166 0.46126 0.0
C252 C 1.01185 0.59107 0.47022 0.0
C253 C 0.97809 0.5923 0.45968 0.0
C254 C 0.98608 0.60913 0.44055 0.0
C255 C 1.02455 0.61918 0.43144 0.0
C256 C 0.13551 0.63102 0.38062 0.0
C257 C 1.10289 0.63222 0.36916 0.0
C258 C 1.10624 0.63661 0.34877 0.0
C259 C 0.1423 0.63999 0.33942 0.0
C260 C 0.1753 0.63973 0.35092 0.0
C261 C 0.17194 0.63525 0.37127 0.0
C262 C 0.18941 0.60701 0.44389 0.0
C263 C 0.23241 0.62936 0.43823 0.0
C264 C 0.70524 0.19682 0.78724 0.0
C265 C 0.70906 0.18833 0.80723 0.0
C266 C 0.69261 0.14526 0.81279 0.0
C267 C 0.668 0.11168 0.79939 0.0
H268 H 0.51312 1.02617 0.7934 0.0
H269 H 0.47471 0.96968 0.81713 0.0
H270 H 0.49267 0.88106 0.78086 0.0
H271 H 0.52874 0.937 0.75682 0.0
H272 H 0.54401 0.99958 0.70731 0.0
H273 H 0.55034 1.00617 0.6717 0.0
H274 H 0.66542 0.13058 0.6794 0.0
H275 H 0.65983 0.12382 0.71481 0.0
H276 H 0.67669 0.17094 0.75886 0.0
H277 H 0.71697 0.22927 0.78218 0.0
H278 H 0.69612 0.13733 0.82782 0.0
H279 H 0.65303 0.07882 0.80445 0.0
N280 N 0.59246 1.05315 0.77536 0.0
N281 N 0.56343 1.02399 0.74401 0.0
N282 N 0.62977 0.08856 0.7474 0.0
C283 C 0.56033 1.02223 0.7639 0.0
C284 C 0.59808 1.05757 0.73565 0.0
C285 C 0.6274 0.08615 0.76725 0.0
C286 C 0.52454 0.98588 0.77361 0.0
C287 C 0.50682 0.99392 0.79013 0.0
C288 C 0.48503 0.96161 0.80374 0.0
C289 C 0.48206 0.92128 0.80136 0.0
C290 C 0.49438 0.9117 0.78334 0.0
C291 C 0.51533 0.94383 0.7695 0.0
C292 C 0.60144 1.06107 0.71399 0.0
C293 C 0.5707 1.02831 0.70142 0.0
C294 C 0.57419 1.03218 0.68101 0.0
C295 C 0.60844 1.06887 0.67273 0.0
C296 C 0.63905 0.1016 0.6853 0.0
C297 C 0.63564 0.09774 0.70565 0.0
C298 C 0.66063 0.12054 0.78003 0.0
C299 C 0.6816 0.16323 0.77376 0.0
C300 C 0.65748 0.36466 0.08002 0.0
C301 C 0.66575 0.36917 0.1005 0.0
C302 C 0.63164 0.36079 0.11284 0.0
C303 C 0.59359 0.35705 0.10494 0.0
H304 H 0.52027 0.40437 0.12538 0.0
H305 H 0.51144 0.44656 0.15113 0.0
H306 H 0.51096 0.53348 0.10743 0.0
H307 H 0.51987 0.49168 0.08166 0.0
H308 H 0.51747 0.46836 0.03729 0.0
H309 H 0.52797 0.49671 0.00417 0.0
H310 H 0.58628 0.42107 0.98846 0.0
H311 H 0.57532 0.3921 0.02146 0.0
H312 H 0.61679 0.36413 0.05633 0.0
H313 H 0.68244 0.36899 0.07008 0.0
H314 H 0.63618 0.36298 0.12869 0.0
H315 H 0.57005 0.35569 0.11502 0.0
N316 N 0.54666 0.39623 0.09136 0.0
N317 N 0.52872 0.4305 0.06677 0.0
N318 N 0.56032 0.3892 0.05849 0.0
C319 C 0.53015 0.42155 0.08606 0.0
C320 C 0.54321 0.41404 0.05284 0.0
C321 C 0.56177 0.37979 0.07777 0.0
C322 C 0.52064 0.44455 0.10142 0.0
C323 C 0.51809 0.43238 0.12123 0.0
C324 C 0.51322 0.45656 0.136 0.0
C325 C 0.51127 0.49362 0.13129 0.0
C326 C 0.51335 0.50555 0.11151 0.0
C327 C 0.51777 0.48118 0.09672 0.0
C328 C 0.54572 0.428 0.03215 0.0
C329 C 0.53215 0.45734 0.02676 0.0
C330 C 0.53842 0.4739 0.00779 0.0
C331 C 0.55821 0.46139 -0.00627 0.0
C332 C 0.57056 0.43107 -0.0011 0.0
C333 C 0.5644 0.41456 0.01788 0.0
C334 C 0.58944 0.36229 0.08466 0.0
C335 C 0.61965 0.36165 0.0721 0.0
H336 H 0.3767 0.56817 0.20963 0.0
H337 H 0.41255 0.64429 0.15706 0.0
H338 H 0.4346 0.55224 0.20478 0.0
H339 H 0.4693 0.62809 0.15204 0.0
H340 H 0.45259 0.4621 0.16009 0.0
H341 H 0.42952 0.50216 0.18025 0.0
H342 H 0.53132 0.62163 0.15765 0.0
H343 H 0.5536 0.58092 0.13697 0.0
C344 C 0.39788 0.58271 0.19744 0.0
C345 C 0.38932 0.60641 0.18341 0.0
C346 C 0.43095 0.57351 0.19462 0.0
C347 C 0.45565 0.58762 0.17766 0.0
C348 C 0.451 0.6165 0.16527 0.0
C349 C 0.41819 0.62586 0.16815 0.0
C350 C 0.47088 0.49696 0.1599 0.0
C351 C 0.50414 0.5184 0.14665 0.0
C352 C 0.4579 0.52011 0.1716 0.0
C353 C 0.47812 0.56524 0.17035 0.0
C354 C 0.51447 0.58687 0.15864 0.0
C355 C 0.52715 0.56362 0.14677 0.0
H356 H 0.80816 0.37261 0.52093 0.0
H357 H 0.83273 0.35339 0.46102 0.0
H358 H 0.82626 0.44641 0.51329 0.0
H359 H 0.85258 0.4264 0.45361 0.0
H360 H 0.90154 0.54826 0.43799 0.0
H361 H 0.83973 0.48317 0.44866 0.0
H362 H 0.89161 0.51045 0.50834 0.0
H363 H 0.95069 0.57864 0.49814 0.0
C364 C 0.81709 0.38406 0.50612 0.0
C365 C 0.82048 0.35781 0.49173 0.0
C366 C 0.82742 0.42627 0.50173 0.0
C367 C 0.84116 0.44279 0.48286 0.0
C368 C 0.84158 0.41516 0.46825 0.0
C369 C 0.83124 0.37333 0.47261 0.0
C370 C 0.89891 0.54212 0.4536 0.0
C371 C 0.93327 0.56719 0.46698 0.0
C372 C 0.8634 0.50408 0.4597 0.0
C373 C 0.86266 0.48979 0.479 0.0
C374 C 0.89189 0.51937 0.49312 0.0
C375 C 0.92645 0.55838 0.48717 0.0
H376 H 0.52763 0.74405 0.86837 0.0
H377 H 0.63612 0.86417 0.84989 0.0
H378 H 0.48048 0.77426 0.86306 0.0
H379 H 0.5899 0.89456 0.84636 0.0
H380 H 0.51419 0.95009 0.83864 0.0
H381 H 0.53529 0.91283 0.86201 0.0
H382 H 0.46565 0.79592 0.82723 0.0
H383 H 0.4431 0.83283 0.80383 0.0
C384 C 0.54184 0.77707 0.86367 0.0
C385 C 0.5858 0.80102 0.85894 0.0
C386 C 0.51477 0.79442 0.86094 0.0
C387 C 0.53153 0.83658 0.85426 0.0
C388 C 0.57613 0.86205 0.85178 0.0
C389 C 0.60286 0.84444 0.8539 0.0
C390 C 0.50103 0.91583 0.83639 0.0
C391 C 0.47817 0.89484 0.81886 0.0
C392 C 0.51343 0.89455 0.84988 0.0
C393 C 0.50318 0.85202 0.84608 0.0
C394 C 0.47429 0.82893 0.83041 0.0
C395 C 0.46177 0.85023 0.81688 0.0
H396 H 0.86392 0.60561 0.14095 0.0
H397 H 0.91761 0.528 0.16173 0.0
H398 H 0.79951 0.54069 0.12893 0.0
H399 H 0.85252 0.46297 0.14999 0.0
H400 H 0.7002 0.36074 0.13607 0.0
H401 H 0.76618 0.4173 0.15262 0.0
H402 H 0.79834 0.49223 0.09982 0.0
H403 H 0.7331 0.43737 0.0835 0.0
C404 C 0.8618 0.57474 0.14321 0.0
C405 C 0.89652 0.57218 0.15177 0.0
C406 C 0.82495 0.53762 0.13635 0.0
C407 C 0.82184 0.49715 0.13808 0.0
C408 C 0.85449 0.49392 0.14833 0.0
C409 C 0.89162 0.5312 0.1551 0.0
C410 C 0.72189 0.38885 0.12787 0.0
C411 C 0.7108 0.39458 0.10851 0.0
C412 C 0.75952 0.42114 0.13736 0.0
C413 C 0.78629 0.45952 0.12762 0.0
C414 C 0.77749 0.46331 0.10777 0.0
C415 C 0.74031 0.43126 0.09831 0.0
H416 H 0.3563 0.84062 0.51802 0.0
H417 H 0.47658 0.84373 0.5087 0.0
H418 H 0.31941 0.76309 0.51916 0.0
H419 H 0.44014 0.76571 0.51114 0.0
H420 H 0.34397 0.65128 0.46906 0.0
H421 H 0.39663 0.71377 0.48772 0.0
H422 H 0.29991 0.69437 0.52948 0.0
H423 H 0.24622 0.63514 0.50965 0.0
C424 C 0.37507 0.82469 0.51675 0.0
C425 C 0.41899 0.8482 0.51261 0.0
C426 C 0.35406 0.77999 0.51779 0.0
C427 C 0.37656 0.75763 0.51485 0.0
C428 C 0.42155 0.78165 0.513 0.0
C429 C 0.44254 0.8265 0.51175 0.0
C430 C 0.33393 0.65987 0.48238 0.0
C431 C 0.29003 0.6402 0.48682 0.0
C432 C 0.36452 0.69554 0.49338 0.0
C433 C 0.35179 0.71097 0.50943 0.0
C434 C 0.31017 0.68485 0.5165 0.0
C435 C 0.27928 0.65015 0.50513 0.0
H436 H 0.59475 0.30412 0.84666 0.0
H437 H 0.71858 0.41867 0.83988 0.0
H438 H 0.62953 0.26148 0.84941 0.0
H439 H 0.75414 0.37633 0.84395 0.0
H440 H 0.76757 0.27535 0.80481 0.0
H441 H 0.75952 0.33051 0.8213 0.0
H442 H 0.6737 0.23666 0.86226 0.0
H443 H 0.67786 0.18072 0.8445 0.0
C444 C 0.6296 0.32034 0.84627 0.0
C445 C 0.65371 0.36445 0.84242 0.0
C446 C 0.64987 0.296 0.84825 0.0
C447 C 0.69489 0.31526 0.84658 0.0
C448 C 0.71939 0.36025 0.84488 0.0
C449 C 0.69898 0.3846 0.8427 0.0
C450 C 0.74742 0.26647 0.81751 0.0
C451 C 0.72104 0.22299 0.82235 0.0
C452 C 0.74335 0.29845 0.82727 0.0
C453 C 0.71384 0.28753 0.84245 0.0
C454 C 0.69494 0.24571 0.84995 0.0
C455 C 0.69792 0.21352 0.83982 0.0
H456 H 0.58129 0.94631 0.47467 0.0
H457 H 0.70879 1.01467 0.50194 0.0
H458 H 0.58087 0.87869 0.47832 0.0
H459 H 0.70793 0.94664 0.50605 0.0
H460 H 0.70731 0.81984 0.49829 0.0
H461 H 0.70971 0.88744 0.4903 0.0
H462 H 0.5747 0.8298 0.50309 0.0
H463 H 0.572 0.76216 0.51025 0.0
C464 C 0.6094 0.94706 0.4814 0.0
C465 C 0.6451 0.98628 0.48801 0.0
C466 C 0.60901 0.90802 0.48364 0.0
C467 C 0.64424 0.90677 0.49262 0.0
C468 C 0.68035 0.94611 0.49886 0.0
C469 C 0.68077 0.98527 0.49659 0.0
C470 C 0.67794 0.82134 0.49901 0.0
C471 C 0.63951 0.78535 0.50502 0.0
C472 C 0.67944 0.8604 0.49468 0.0
C473 C 0.6425 0.86455 0.49615 0.0
C474 C 0.60381 0.82808 0.50158 0.0
C475 C 0.60234 0.78919 0.50591 0.0
H476 H 0.79441 0.67589 0.82222 0.0
H477 H 0.73262 0.53737 0.81832 0.0
H478 H 0.86454 0.68074 0.8253 0.0
H479 H 0.80256 0.5419 0.82232 0.0
H480 H 0.93737 0.56108 0.81906 0.0
H481 H 0.87011 0.55959 0.8099 0.0
H482 H 0.90754 0.67026 0.84787 0.0
H483 H 0.97511 0.67314 0.85593 0.0
C484 C 0.79576 0.6464 0.82208 0.0
C485 C 0.7577 0.60627 0.82008 0.0
C486 C 0.83613 0.6491 0.82398 0.0
C487 C 0.83975 0.61171 0.8243 0.0
C488 C 0.80158 0.57156 0.82188 0.0
C489 C 0.76122 0.5689 0.81969 0.0
C490 C 0.93158 0.58564 0.82508 0.0
C491 C 0.96168 0.61692 0.83843 0.0
C492 C 0.89262 0.58445 0.82005 0.0
C493 C 0.88267 0.61454 0.82824 0.0
C494 C 0.91369 0.64671 0.84099 0.0
C495 C 0.95252 0.64803 0.84588 0.0
H496 H 0.24084 0.80098 0.14948 0.0
H497 H 0.31194 0.73444 0.15913 0.0
H498 H 0.3076 0.86976 0.15222 0.0
H499 H 0.37869 0.80327 0.16281 0.0
H500 H 0.49917 0.93367 0.15745 0.0
H501 H 0.43307 0.86649 0.14882 0.0
H502 H 0.35806 0.9162 0.17527 0.0
H503 H 0.42341 0.98369 0.18263 0.0
C504 C 0.27073 0.80099 0.15228 0.0
C505 C 0.27077 0.76198 0.15418 0.0
C506 C 0.30923 0.84063 0.15399 0.0
C507 C 0.34904 0.84264 0.15797 0.0
C508 C 0.34908 0.80346 0.15948 0.0
C509 C 0.31058 0.76376 0.1575 0.0
C510 C 0.46848 0.9306 0.16099 0.0
C511 C 0.46695 0.96423 0.17094 0.0
C512 C 0.43043 0.89167 0.15632 0.0
C513 C 0.38973 0.88521 0.16148 0.0
C514 C 0.38834 0.91958 0.17078 0.0
C515 C 0.42617 0.95841 0.17529 0.0
H516 H 0.69885 0.2577 0.47928 0.0
H517 H 0.57012 0.18991 0.50159 0.0
H518 H 0.70125 0.3262 0.48468 0.0
H519 H 0.57214 0.25822 0.50653 0.0
H520 H 0.61298 0.38808 0.5369 0.0
H521 H 0.60778 0.31964 0.5286 0.0
H522 H 0.6717 0.37235 0.4742 0.0
H523 H 0.6775 0.44166 0.48278 0.0
C524 C 0.67086 0.25727 0.48519 0.0
C525 C 0.6344 0.21801 0.49015 0.0
C526 C 0.67214 0.29668 0.48814 0.0
C527 C 0.63697 0.29803 0.49614 0.0
C528 C 0.60013 0.25867 0.50062 0.0
C529 C 0.59886 0.21932 0.49767 0.0
C530 C 0.62591 0.38517 0.52312 0.0
C531 C 0.6459 0.4206 0.51057 0.0
C532 C 0.62257 0.34565 0.51826 0.0
C533 C 0.63927 0.34015 0.5007 0.0
C534 C 0.65877 0.3754 0.48794 0.0
C535 C 0.66175 0.41504 0.49275 0.0
H536 H 0.53992 0.65759 0.80973 0.0
H537 H 0.47645 0.52854 0.83236 0.0
H538 H 0.4746 0.66123 0.81372 0.0
H539 H 0.41097 0.53243 0.83665 0.0
H540 H 0.28797 0.54067 0.82909 0.0
H541 H 0.35118 0.53526 0.82075 0.0
H542 H 0.43416 0.66772 0.83931 0.0
H543 H 0.37129 0.67343 0.84689 0.0
C544 C 0.51201 0.62985 0.81553 0.0
C545 C 0.51378 0.59281 0.8208 0.0
C546 C 0.47442 0.63205 0.81792 0.0
C547 C 0.43726 0.59727 0.82566 0.0
C548 C 0.43865 0.55975 0.83046 0.0
C549 C 0.47637 0.55756 0.82808 0.0
C550 C 0.31968 0.56885 0.83101 0.0
C551 C 0.32434 0.60742 0.83877 0.0
C552 C 0.35604 0.5656 0.82648 0.0
C553 C 0.39808 0.60093 0.82944 0.0
C554 C 0.40252 0.63985 0.83661 0.0
C555 C 0.36631 0.64303 0.84116 0.0
H556 H 1.07083 0.4855 0.16426 0.0
H557 H 0.99406 0.54099 0.14441 0.0
H558 H 1.00568 0.41678 0.1686 0.0
H559 H 0.92853 0.47198 0.14904 0.0
H560 H 0.81469 0.33455 0.15023 0.0
H561 H 0.88067 0.39918 0.14051 0.0
H562 H 0.94965 0.38414 0.19012 0.0
H563 H 0.88498 0.31911 0.19903 0.0
C564 C 1.04003 0.48315 0.16083 0.0
C565 C 1.03799 0.51924 0.15419 0.0
C566 C 1.00239 0.44356 0.16345 0.0
C567 C 0.96128 0.43866 0.15966 0.0
C568 C 0.95933 0.47432 0.15224 0.0
C569 C 0.99708 0.51407 0.14961 0.0
C570 C 0.8442 0.34469 0.15881 0.0
C571 C 0.84419 0.3216 0.17553 0.0
C572 C 0.88206 0.38216 0.15339 0.0
C573 C 0.921 0.39743 0.1645 0.0
C574 C 0.9209 0.37352 0.18091 0.0
C575 C 0.88335 0.33626 0.18624 0.0
H576 H 0.1277 0.67275 0.08579 0.0
H577 H 0.18264 0.58998 0.09184 0.0
H578 H 0.12588 0.66489 0.05004 0.0
H579 H 0.18131 0.58269 0.05597 0.0
H580 H 0.2168 0.6306 0.99065 0.0
H581 H 0.21848 0.63472 0.02653 0.0
H582 H 1.08467 0.6006 0.02524 0.0
H583 H 1.08203 0.59439 0.9895 0.0
C584 C 0.13959 0.65306 0.0795 0.0
C585 C 0.15528 0.63195 0.09163 0.0
C586 C 0.13831 0.64839 0.05905 0.0
C587 C 0.15337 0.62313 0.05029 0.0
C588 C 0.16967 0.60249 0.06238 0.0
C589 C 0.17023 0.60653 0.08287 0.0
C590 C 0.18744 0.62313 -0.00204 0.0
C591 C 0.14934 0.61241 0.98703 0.0
C592 C 0.18855 0.62572 0.01852 0.0
C593 C 0.15181 0.6183 0.02859 0.0
C594 C 1.11363 0.6071 0.01779 0.0
C595 C 1.11228 0.60381 -0.00272 0.0
H596 H 0.70167 0.10075 0.42489 0.0
H597 H 0.59145 0.11922 0.4211 0.0
H598 H 0.70653 0.10475 0.38916 0.0
H599 H 0.59711 0.12458 0.38556 0.0
H600 H 0.58915 0.08686 0.32147 0.0
H601 H 0.58544 0.08147 0.35703 0.0
H602 H 0.7246 0.15309 0.36216 0.0
H603 H 0.72835 0.15633 0.32641 0.0
C604 C 0.67864 0.10593 0.41646 0.0
C605 C 0.64603 0.10942 0.42587 0.0
C606 C 0.68158 0.10848 0.39596 0.0
C607 C 0.65213 0.11485 0.3844 0.0
C608 C 0.61985 0.11882 0.3939 0.0
C609 C 0.61674 0.11599 0.41434 0.0
C610 C 0.61904 0.10093 0.33012 0.0
C611 C 0.65907 0.1219 0.32098 0.0
C612 C 0.61689 0.09839 0.35059 0.0
C613 C 0.65471 0.11704 0.36255 0.0
C614 C 0.69479 0.13797 0.35343 0.0
C615 C 0.69695 0.14033 0.33291 0.0
H616 H 0.70623 0.67118 0.7601 0.0
H617 H 0.57857 0.56036 0.75241 0.0
H618 H 0.71306 0.67602 0.72433 0.0
H619 H 0.58502 0.56576 0.71699 0.0
H620 H 0.62791 0.55301 0.65691 0.0
H621 H 0.62429 0.55257 0.69252 0.0
H622 H 0.68551 0.69132 0.69379 0.0
H623 H 0.69091 0.69191 0.65801 0.0
C624 C 0.6795 0.64818 0.75081 0.0
C625 C 0.64205 0.61514 0.75915 0.0
C626 C 0.68335 0.65102 0.73032 0.0
C627 C 0.6498 0.62092 0.71778 0.0
C628 C 0.6119 0.58884 0.72618 0.0
C629 C 0.60813 0.58593 0.74655 0.0
C630 C 0.64122 0.58353 0.66474 0.0
C631 C 0.65977 0.6225 0.65454 0.0
C632 C 0.6386 0.58325 0.68519 0.0
C633 C 0.65425 0.6219 0.69604 0.0
C634 C 0.67334 0.66099 0.6859 0.0
C635 C 0.676 0.66128 0.66538 0.0
H636 H 0.5737 1.02873 0.5465 0.0
H637 H 0.68653 0.15529 0.55328 0.0
H638 H 0.56809 1.02316 0.58202 0.0
H639 H 0.68042 0.1498 0.58901 0.0
H640 H 0.68163 0.09966 0.65154 0.0
H641 H 0.68815 0.10755 0.61599 0.0
H642 H 0.55062 1.05585 0.60944 0.0
H643 H 0.54409 1.04822 0.645 0.0
C644 C 0.59728 1.05547 0.55556 0.0
C645 C 0.63061 0.0925 0.54707 0.0
C646 C 0.59385 1.05233 0.57593 0.0
C647 C 0.6237 0.08609 0.58829 0.0
C648 C 0.65716 0.12311 0.57983 0.0
C649 C 0.66054 0.12633 0.55939 0.0
C650 C 0.65284 0.09036 0.64253 0.0
C651 C 0.61232 1.07325 0.65109 0.0
C652 C 0.65661 0.09493 0.62217 0.0
C653 C 0.61991 0.08232 0.60994 0.0
C654 C 0.57941 1.06529 0.61848 0.0
C655 C 0.57565 1.06082 0.63884 0.0
H656 H 0.59621 0.60898 0.88581 0.0
H657 H 0.65168 0.52777 0.87662 0.0
H658 H 0.57706 0.58083 0.9191 0.0
H659 H 0.63326 0.50043 0.90964 0.0
H660 H 0.54755 0.42071 0.95832 0.0
H661 H 0.56635 0.45297 0.926 0.0
H662 H 0.60811 0.57829 0.95192 0.0
H663 H 0.58925 0.54592 0.98436 0.0
C664 C 0.60481 0.58564 0.89097 0.0
C665 C 0.62503 0.57028 0.87853 0.0
C666 C 0.59389 0.56955 0.91 0.0
C667 C 0.60301 0.53786 0.91685 0.0
C668 C 0.62482 0.524 0.90464 0.0
C669 C 0.63565 0.53994 0.88573 0.0
C670 C 0.56085 0.45515 0.95714 0.0
C671 C 0.56719 0.48077 0.97392 0.0
C672 C 0.57166 0.47367 0.93864 0.0
C673 C 0.58918 0.51828 0.93645 0.0
C674 C 0.59441 0.5438 0.95312 0.0
C675 C 0.58357 0.52524 0.97168 0.0
H676 H 1.08978 0.64238 0.21432 0.0
H677 H 0.21523 0.65251 0.21761 0.0
H678 H 1.0882 0.64241 0.25013 0.0
H679 H 0.21381 0.6532 0.25341 0.0
H680 H 0.16976 0.59871 0.31501 0.0
H681 H 0.17353 0.60213 0.27931 0.0
H682 H 0.12432 0.69018 0.27891 0.0
H683 H 0.12075 0.68698 0.31472 0.0
C684 C 0.11713 0.64487 0.22267 0.0
C685 C 0.15258 0.64731 0.21313 0.0
C686 C 0.11631 0.64515 0.24318 0.0
C687 C 0.15085 0.64775 0.25457 0.0
C688 C 0.18649 0.65064 0.24502 0.0
C689 C 0.18738 0.65047 0.22451 0.0
C690 C 0.16026 0.61924 0.30734 0.0
C691 C 0.14505 0.64266 0.3177 0.0
C692 C 0.1624 0.62117 0.28689 0.0
C693 C 0.14929 0.64648 0.27632 0.0
C694 C 0.13415 0.66998 0.28665 0.0
C695 C 0.13208 0.66812 0.30714 0.0
loop_
_geom_bond_atom_site_label_1
_geom_bond_atom_site_label_2
_geom_bond_distance
_geom_bond_site_symmetry_2
_ccdc_geom_bond_type
Tb0 C10 2.825 . S
Tb0 O11 2.347 . S
Tb0 O14 2.366 . S
Tb0 O19 2.418 . S
Tb0 O20 2.384 1_455 S
Tb0 O23 2.479 . S
Tb0 O24 2.471 . S
Eu1 O12 2.422 . S
Eu1 O13 2.384 1_655 S
Eu1 O16 2.479 . S
Eu1 O17 2.471 . S
Eu1 O18 2.347 1_655 S
Eu1 O21 2.366 . S
Eu1 C31 2.825 . S
C2 O18 1.259 . S
C2 O19 1.265 . S
C3 O20 1.255 . S
C3 O21 1.265 . S
C4 C6 1.380 . S
C4 C7 1.374 . S
C4 C10 1.507 . S
C5 C6 1.384 . S
C5 C9 1.387 . S
C5 H32 0.930 . S
C6 C4 1.380 . S
C6 C5 1.384 . S
C6 H33 0.931 . S
C7 C4 1.374 . S
C7 C8 1.390 . S
C7 H34 0.930 . S
C8 C7 1.390 . S
C8 C9 1.391 . S
C8 H35 0.930 . S
C9 C5 1.387 . S
C9 C8 1.391 . S
C10 Tb0 2.825 . S
C10 C4 1.507 . S
C10 O23 1.238 . S
C10 O24 1.247 . S
O11 Tb0 2.347 . S
O11 C15 1.259 . S
O12 Eu1 2.422 . S
O12 C15 1.249 1_655 S
O13 Eu1 2.384 1_455 S
O13 C22 1.255 . S
O14 Tb0 2.366 . S
O14 C22 1.265 . S
C15 O11 1.259 . S
C15 O12 1.249 1_455 S
O16 Eu1 2.479 . S
O16 C31 1.238 . S
O17 Eu1 2.471 . S
O17 C31 1.247 . S
O18 Eu1 2.347 1_455 S
O18 C2 1.259 . S
O19 Tb0 2.418 . S
O19 C2 1.265 . S
O20 Tb0 2.384 1_655 S
O20 C3 1.255 . S
O21 Eu1 2.366 . S
O21 C3 1.265 . S
C22 O13 1.255 . S
C22 O14 1.265 . S
O23 Tb0 2.479 . S
O23 C10 1.238 . S
O24 Tb0 2.471 . S
O24 C10 1.247 . S
C25 C28 1.380 . S
C25 C29 1.374 . S
C25 C31 1.507 . S
C26 C27 1.387 . S
C26 C30 1.391 . S
C27 C26 1.387 . S
C27 C28 1.384 . S
C27 H36 0.930 . S
C28 C25 1.380 . S
C28 C27 1.384 . S
C28 H37 0.931 . S
C29 C25 1.374 . S
C29 C30 1.390 . S
C29 H38 0.930 . S
C30 C26 1.391 . S
C30 C29 1.390 . S
C30 H39 0.930 . S
C31 Eu1 2.825 . S
C31 O16 1.238 . S
C31 O17 1.247 . S
C31 C25 1.507 . S
H32 C5 0.930 . S
H33 C6 0.931 . S
H34 C7 0.930 . S
H35 C8 0.930 . S
H36 C27 0.930 . S
H37 C28 0.931 . S
H38 C29 0.930 . S
H39 C30 0.930 . S
Tb40 C50 2.825 . S
Tb40 O51 2.347 . S
Tb40 O54 2.366 . S
Tb40 O59 2.418 . S
Tb40 O60 2.384 1_545 S
Tb40 O63 2.479 . S
Tb40 O64 2.471 . S
Eu41 O52 2.418 . S
Eu41 O53 2.384 . S
Eu41 O56 2.479 1_545 S
Eu41 O57 2.471 1_545 S
Eu41 O58 2.347 . S
Eu41 O61 2.366 1_545 S
Eu41 C71 2.825 1_545 S
C42 O58 1.259 . S
C42 O59 1.265 . S
C43 O60 1.255 . S
C43 O61 1.265 . S
C44 C46 1.380 . S
C44 C47 1.374 . S
C44 C50 1.507 . S
C45 C46 1.384 . S
C45 C49 1.387 . S
C45 H72 0.930 . S
C46 C44 1.380 . S
C46 C45 1.384 . S
C46 H73 0.931 . S
C47 C44 1.374 . S
C47 C48 1.390 . S
C47 H74 0.930 . S
C48 C47 1.390 . S
C48 C49 1.391 . S
C48 H75 0.930 . S
C49 C45 1.387 . S
C49 C48 1.391 . S
C50 Tb40 2.825 . S
C50 C44 1.507 . S
C50 O63 1.238 . S
C50 O64 1.247 . S
O51 Tb40 2.347 . S
O51 C55 1.259 . S
O52 Eu41 2.418 . S
O52 C55 1.265 . S
O53 Eu41 2.384 . S
O53 C62 1.255 . S
O54 Tb40 2.366 . S
O54 C62 1.265 . S
C55 O51 1.259 . S
C55 O52 1.265 . S
O56 Eu41 2.479 1_565 S
O56 C71 1.238 . S
O57 Eu41 2.471 1_565 S
O57 C71 1.247 . S
O58 Eu41 2.347 . S
O58 C42 1.259 . S
O59 Tb40 2.418 . S
O59 C42 1.265 . S
O60 Tb40 2.384 1_565 S
O60 C43 1.255 . S
O61 Eu41 2.366 1_565 S
O61 C43 1.265 . S
C62 O53 1.255 . S
C62 O54 1.265 . S
O63 Tb40 2.479 . S
O63 C50 1.238 . S
O64 Tb40 2.471 . S
O64 C50 1.247 . S
C65 C68 1.380 . S
C65 C69 1.374 . S
C65 C71 1.507 . S
C66 C67 1.387 . S
C66 C70 1.391 . S
C67 C66 1.387 . S
C67 C68 1.384 . S
C67 H76 0.930 . S
C68 C65 1.380 . S
C68 C67 1.384 . S
C68 H77 0.931 . S
C69 C65 1.374 . S
C69 C70 1.390 . S
C69 H78 0.930 . S
C70 C66 1.391 . S
C70 C69 1.390 . S
C70 H79 0.930 . S
C71 Eu41 2.825 1_565 S
C71 O56 1.238 . S
C71 O57 1.247 . S
C71 C65 1.507 . S
H72 C45 0.930 . S
H73 C46 0.931 . S
H74 C47 0.930 . S
H75 C48 0.930 . S
H76 C67 0.930 . S
H77 C68 0.931 . S
H78 C69 0.930 . S
H79 C70 0.930 . S
Tb80 C90 2.825 . S
Tb80 O91 2.347 . S
Tb80 O94 2.366 . S
Tb80 O99 2.418 . S
Tb80 O100 2.384 . S
Tb80 O103 2.479 . S
Tb80 O104 2.471 . S
Eu81 O92 2.418 . S
Eu81 O93 2.384 . S
Eu81 O96 2.479 . S
Eu81 O97 2.471 . S
Eu81 O98 2.347 . S
Eu81 O101 2.366 . S
Eu81 C111 2.825 . S
C82 O98 1.259 . S
C82 O99 1.265 . S
C83 O100 1.255 . S
C83 O101 1.265 . S
C84 C86 1.380 . S
C84 C87 1.374 . S
C84 C90 1.507 . S
C85 C86 1.384 . S
C85 C89 1.387 . S
C85 H112 0.930 . S
C86 C84 1.380 . S
C86 C85 1.384 . S
C86 H113 0.931 . S
C87 C84 1.374 . S
C87 C88 1.390 . S
C87 H114 0.930 . S
C88 C87 1.390 . S
C88 C89 1.391 . S
C88 H115 0.930 . S
C89 C85 1.387 . S
C89 C88 1.391 . S
C90 Tb80 2.825 . S
C90 C84 1.507 . S
C90 O103 1.238 . S
C90 O104 1.247 . S
O91 Tb80 2.347 . S
O91 C95 1.259 . S
O92 Eu81 2.418 . S
O92 C95 1.265 . S
O93 Eu81 2.384 . S
O93 C102 1.255 . S
O94 Tb80 2.366 . S
O94 C102 1.265 . S
C95 O91 1.259 . S
C95 O92 1.265 . S
O96 Eu81 2.479 . S
O96 C111 1.238 . S
O97 Eu81 2.471 . S
O97 C111 1.247 . S
O98 Eu81 2.347 . S
O98 C82 1.259 . S
O99 Tb80 2.418 . S
O99 C82 1.265 . S
O100 Tb80 2.384 . S
O100 C83 1.255 . S
O101 Eu81 2.366 . S
O101 C83 1.265 . S
C102 O93 1.255 . S
C102 O94 1.265 . S
O103 Tb80 2.479 . S
O103 C90 1.238 . S
O104 Tb80 2.471 . S
O104 C90 1.247 . S
C105 C108 1.380 . S
C105 C109 1.374 . S
C105 C111 1.507 . S
C106 C107 1.387 . S
C106 C110 1.391 . S
C107 C106 1.387 . S
C107 C108 1.384 . S
C107 H116 0.930 . S
C108 C105 1.380 . S
C108 C107 1.384 . S
C108 H117 0.931 . S
C109 C105 1.374 . S
C109 C110 1.390 . S
C109 H118 0.930 . S
C110 C106 1.391 . S
C110 C109 1.390 . S
C110 H119 0.930 . S
C111 Eu81 2.825 . S
C111 O96 1.238 . S
C111 O97 1.247 . S
C111 C105 1.507 . S
H112 C85 0.930 . S
H113 C86 0.931 . S
H114 C87 0.930 . S
H115 C88 0.930 . S
H116 C107 0.930 . S
H117 C108 0.931 . S
H118 C109 0.930 . S
H119 C110 0.930 . S
C120 C121 1.384 . S
C120 H133 0.947 . S
C120 C155 1.382 . S
C121 C120 1.384 . S
C121 C122 1.378 . S
C122 C121 1.378 . S
C122 C123 1.378 . S
C122 H134 0.952 . S
C123 C122 1.378 . S
C123 H135 0.950 . S
C123 C154 1.383 . S
H124 C143 0.947 . S
H125 C144 0.946 . S
H126 C146 0.953 . S
H127 C147 0.945 . S
H128 C149 0.952 . S
H129 C150 0.949 . S
H130 C152 0.950 . S
H131 C153 0.948 . S
H132 C155 0.951 . S
H133 C120 0.947 . S
H134 C122 0.952 . S
H135 C123 0.950 . S
N136 C139 1.382 . S
N136 C141 1.363 1_545 S
N137 C139 1.371 . S
N137 C140 1.372 . S
N138 C140 1.361 1_565 S
N138 C141 1.377 . S
C139 N136 1.382 . S
C139 N137 1.371 . S
C139 C142 1.480 . S
C140 N137 1.372 . S
C140 N138 1.361 1_545 S
C140 C148 1.457 . S
C141 N136 1.363 1_565 S
C141 N138 1.377 . S
C141 C154 1.479 . S
C142 C139 1.480 . S
C142 C143 1.383 . S
C142 C147 1.385 . S
C143 H124 0.947 . S
C143 C142 1.383 . S
C143 C144 1.388 . S
C144 H125 0.946 . S
C144 C143 1.388 . S
C144 C145 1.384 . S
C145 C144 1.384 . S
C145 C146 1.377 . S
C146 H126 0.953 . S
C146 C145 1.377 . S
C146 C147 1.369 . S
C147 H127 0.945 . S
C147 C142 1.385 . S
C147 C146 1.369 . S
C148 C140 1.457 . S
C148 C149 1.372 . S
C148 C153 1.364 1_545 S
C149 H128 0.952 . S
C149 C148 1.372 . S
C149 C150 1.389 . S
C150 H129 0.949 . S
C150 C149 1.389 . S
C150 C151 1.387 . S
C151 C150 1.387 . S
C151 C152 1.372 1_545 S
C152 H130 0.950 . S
C152 C151 1.372 1_565 S
C152 C153 1.379 . S
C153 H131 0.948 . S
C153 C148 1.364 1_565 S
C153 C152 1.379 . S
C154 C123 1.383 . S
C154 C141 1.479 . S
C154 C155 1.398 . S
C155 C120 1.382 . S
C155 H132 0.951 . S
C155 C154 1.398 . S
C156 C157 1.384 . S
C156 H169 0.947 . S
C156 C191 1.382 . S
C157 C156 1.384 . S
C157 C158 1.378 . S
C158 C157 1.378 . S
C158 C159 1.378 . S
C158 H170 0.952 . S
C159 C158 1.378 . S
C159 H171 0.950 . S
C159 C190 1.383 . S
H160 C179 0.947 . S
H161 C180 0.946 . S
H162 C182 0.953 . S
H163 C183 0.945 . S
H164 C185 0.952 . S
H165 C186 0.949 . S
H166 C188 0.950 . S
H167 C189 0.948 . S
H168 C191 0.951 . S
H169 C156 0.947 . S
H170 C158 0.952 . S
H171 C159 0.950 . S
N172 C175 1.382 . S
N172 C177 1.363 . S
N173 C175 1.371 . S
N173 C176 1.372 . S
N174 C176 1.361 . S
N174 C177 1.377 . S
C175 N172 1.382 . S
C175 N173 1.371 . S
C175 C178 1.480 . S
C176 N173 1.372 . S
C176 N174 1.361 . S
C176 C184 1.457 . S
C177 N172 1.363 . S
C177 N174 1.377 . S
C177 C190 1.479 . S
C178 C175 1.480 . S
C178 C179 1.383 . S
C178 C183 1.385 . S
C179 H160 0.947 . S
C179 C178 1.383 . S
C179 C180 1.388 . S
C180 H161 0.946 . S
C180 C179 1.388 . S
C180 C181 1.384 . S
C181 C180 1.384 . S
C181 C182 1.377 . S
C182 H162 0.953 . S
C182 C181 1.377 . S
C182 C183 1.369 . S
C183 H163 0.945 . S
C183 C178 1.385 . S
C183 C182 1.369 . S
C184 C176 1.457 . S
C184 C185 1.372 . S
C184 C189 1.364 . S
C185 H164 0.952 . S
C185 C184 1.372 . S
C185 C186 1.389 . S
C186 H165 0.949 . S
C186 C185 1.389 . S
C186 C187 1.387 . S
C187 C186 1.387 . S
C187 C188 1.372 . S
C188 H166 0.950 . S
C188 C187 1.372 . S
C188 C189 1.379 . S
C189 H167 0.948 . S
C189 C184 1.364 . S
C189 C188 1.379 . S
C190 C159 1.383 . S
C190 C177 1.479 . S
C190 C191 1.398 . S
C191 C156 1.382 . S
C191 H168 0.951 . S
C191 C190 1.398 . S
C192 C193 1.384 . S
C192 H205 0.947 . S
C192 C227 1.382 . S
C193 C192 1.384 . S
C193 C194 1.378 . S
C194 C193 1.378 . S
C194 C195 1.378 . S
C194 H206 0.952 . S
C195 C194 1.378 . S
C195 H207 0.950 . S
C195 C226 1.383 . S
H196 C215 0.947 . S
H197 C216 0.946 . S
H198 C218 0.953 . S
H199 C219 0.945 . S
H200 C221 0.952 . S
H201 C222 0.949 . S
H202 C224 0.950 . S
H203 C225 0.948 . S
H204 C227 0.951 . S
H205 C192 0.947 . S
H206 C194 0.952 . S
H207 C195 0.950 . S
N208 C211 1.382 . S
N208 C213 1.363 1_455 S
N209 C211 1.371 . S
N209 C212 1.372 . S
N210 C212 1.361 1_655 S
N210 C213 1.377 . S
C211 N208 1.382 . S
C211 N209 1.371 . S
C211 C214 1.480 . S
C212 N209 1.372 . S
C212 N210 1.361 1_455 S
C212 C220 1.457 . S
C213 N208 1.363 1_655 S
C213 N210 1.377 . S
C213 C226 1.479 . S
C214 C211 1.480 . S
C214 C215 1.383 . S
C214 C219 1.385 . S
C215 H196 0.947 . S
C215 C214 1.383 . S
C215 C216 1.388 . S
C216 H197 0.946 . S
C216 C215 1.388 . S
C216 C217 1.384 . S
C217 C216 1.384 . S
C217 C218 1.377 . S
C218 H198 0.953 . S
C218 C217 1.377 . S
C218 C219 1.369 . S
C219 H199 0.945 . S
C219 C214 1.385 . S
C219 C218 1.369 . S
C220 C212 1.457 . S
C220 C221 1.372 . S
C220 C225 1.364 1_455 S
C221 H200 0.952 . S
C221 C220 1.372 . S
C221 C222 1.389 . S
C222 H201 0.949 . S
C222 C221 1.389 . S
C222 C223 1.387 . S
C223 C222 1.387 . S
C223 C224 1.372 1_455 S
C224 H202 0.950 . S
C224 C223 1.372 1_655 S
C224 C225 1.379 . S
C225 H203 0.948 . S
C225 C220 1.364 1_655 S
C225 C224 1.379 . S
C226 C195 1.383 . S
C226 C213 1.479 . S
C226 C227 1.398 . S
C227 C192 1.382 . S
C227 H204 0.951 . S
C227 C226 1.398 . S
C228 C229 1.384 . S
C228 H241 0.947 . S
C228 C263 1.382 . S
C229 C228 1.384 . S
C229 C230 1.378 . S
C230 C229 1.378 . S
C230 C231 1.378 . S
C230 H242 0.952 . S
C231 C230 1.378 . S
C231 H243 0.950 . S
C231 C262 1.383 . S
H232 C251 0.947 . S
H233 C252 0.946 . S
H234 C254 0.953 . S
H235 C255 0.945 . S
H236 C257 0.952 . S
H237 C258 0.949 . S
H238 C260 0.950 . S
H239 C261 0.948 . S
H240 C263 0.951 . S
H241 C228 0.947 . S
H242 C230 0.952 . S
H243 C231 0.950 . S
N244 C247 1.382 1_455 S
N244 C249 1.363 . S
N245 C247 1.371 . S
N245 C248 1.372 1_655 S
N246 C248 1.361 . S
N246 C249 1.377 . S
C247 N244 1.382 1_655 S
C247 N245 1.371 . S
C247 C250 1.480 . S
C248 N245 1.372 1_455 S
C248 N246 1.361 . S
C248 C256 1.457 . S
C249 N244 1.363 . S
C249 N246 1.377 . S
C249 C262 1.479 . S
C250 C247 1.480 . S
C250 C251 1.383 . S
C250 C255 1.385 . S
C251 H232 0.947 . S
C251 C250 1.383 . S
C251 C252 1.388 . S
C252 H233 0.946 . S
C252 C251 1.388 . S
C252 C253 1.384 . S
C253 C252 1.384 . S
C253 C254 1.377 . S
C254 H234 0.953 . S
C254 C253 1.377 . S
C254 C255 1.369 . S
C255 H235 0.945 . S
C255 C250 1.385 . S
C255 C254 1.369 . S
C256 C248 1.457 . S
C256 C257 1.372 1_455 S
C256 C261 1.364 . S
C257 H236 0.952 . S
C257 C256 1.372 1_655 S
C257 C258 1.389 . S
C258 H237 0.949 . S
C258 C257 1.389 . S
C258 C259 1.387 1_655 S
C259 C258 1.387 1_455 S
C259 C260 1.372 . S
C260 H238 0.950 . S
C260 C259 1.372 . S
C260 C261 1.379 . S
C261 H239 0.948 . S
C261 C256 1.364 . S
C261 C260 1.379 . S
C262 C231 1.383 . S
C262 C249 1.479 . S
C262 C263 1.398 . S
C263 C228 1.382 . S
C263 H240 0.951 . S
C263 C262 1.398 . S
C264 C265 1.384 . S
C264 H277 0.947 . S
C264 C299 1.382 . S
C265 C264 1.384 . S
C265 C266 1.378 . S
C266 C265 1.378 . S
C266 C267 1.378 . S
C266 H278 0.952 . S
C267 C266 1.378 . S
C267 H279 0.950 . S
C267 C298 1.383 . S
H268 C287 0.947 . S
H269 C288 0.946 . S
H270 C290 0.953 . S
H271 C291 0.945 . S
H272 C293 0.952 . S
H273 C294 0.949 . S
H274 C296 0.950 . S
H275 C297 0.948 . S
H276 C299 0.951 . S
H277 C264 0.947 . S
H278 C266 0.952 . S
H279 C267 0.950 . S
N280 C283 1.382 1_545 S
N280 C285 1.363 . S
N281 C283 1.371 . S
N281 C284 1.372 1_565 S
N282 C284 1.361 . S
N282 C285 1.377 . S
C283 N280 1.382 1_565 S
C283 N281 1.371 . S
C283 C286 1.480 . S
C284 N281 1.372 1_545 S
C284 N282 1.361 . S
C284 C292 1.457 . S
C285 N280 1.363 . S
C285 N282 1.377 . S
C285 C298 1.479 . S
C286 C283 1.480 . S
C286 C287 1.383 . S
C286 C291 1.385 . S
C287 H268 0.947 . S
C287 C286 1.383 . S
C287 C288 1.388 . S
C288 H269 0.946 . S
C288 C287 1.388 . S
C288 C289 1.384 . S
C289 C288 1.384 . S
C289 C290 1.377 . S
C290 H270 0.953 . S
C290 C289 1.377 . S
C290 C291 1.369 . S
C291 H271 0.945 . S
C291 C286 1.385 . S
C291 C290 1.369 . S
C292 C284 1.457 . S
C292 C293 1.372 1_545 S
C292 C297 1.364 . S
C293 H272 0.952 . S
C293 C292 1.372 1_565 S
C293 C294 1.389 . S
C294 H273 0.949 . S
C294 C293 1.389 . S
C294 C295 1.387 1_565 S
C295 C294 1.387 1_545 S
C295 C296 1.372 . S
C296 H274 0.950 . S
C296 C295 1.372 . S
C296 C297 1.379 . S
C297 H275 0.948 . S
C297 C292 1.364 . S
C297 C296 1.379 . S
C298 C267 1.383 . S
C298 C285 1.479 . S
C298 C299 1.398 . S
C299 C264 1.382 . S
C299 H276 0.951 . S
C299 C298 1.398 . S
C300 C301 1.384 . S
C300 H313 0.947 . S
C300 C335 1.382 . S
C301 C300 1.384 . S
C301 C302 1.378 . S
C302 C301 1.378 . S
C302 C303 1.378 . S
C302 H314 0.952 . S
C303 C302 1.378 . S
C303 H315 0.950 . S
C303 C334 1.383 . S
H304 C323 0.947 . S
H305 C324 0.946 . S
H306 C326 0.953 . S
H307 C327 0.945 . S
H308 C329 0.952 . S
H309 C330 0.949 . S
H310 C332 0.950 . S
H311 C333 0.948 . S
H312 C335 0.951 . S
H313 C300 0.947 . S
H314 C302 0.952 . S
H315 C303 0.950 . S
N316 C319 1.382 . S
N316 C321 1.363 . S
N317 C319 1.371 . S
N317 C320 1.372 . S
N318 C320 1.361 . S
N318 C321 1.377 . S
C319 N316 1.382 . S
C319 N317 1.371 . S
C319 C322 1.480 . S
C320 N317 1.372 . S
C320 N318 1.361 . S
C320 C328 1.457 . S
C321 N316 1.363 . S
C321 N318 1.377 . S
C321 C334 1.479 . S
C322 C319 1.480 . S
C322 C323 1.383 . S
C322 C327 1.385 . S
C323 H304 0.947 . S
C323 C322 1.383 . S
C323 C324 1.388 . S
C324 H305 0.946 . S
C324 C323 1.388 . S
C324 C325 1.384 . S
C325 C324 1.384 . S
C325 C326 1.377 . S
C326 H306 0.953 . S
C326 C325 1.377 . S
C326 C327 1.369 . S
C327 H307 0.945 . S
C327 C322 1.385 . S
C327 C326 1.369 . S
C328 C320 1.457 . S
C328 C329 1.372 . S
C328 C333 1.364 . S
C329 H308 0.952 . S
C329 C328 1.372 . S
C329 C330 1.389 . S
C330 H309 0.949 . S
C330 C329 1.389 . S
C330 C331 1.387 . S
C331 C330 1.387 . S
C331 C332 1.372 . S
C332 H310 0.950 . S
C332 C331 1.372 . S
C332 C333 1.379 . S
C333 H311 0.948 . S
C333 C328 1.364 . S
C333 C332 1.379 . S
C334 C303 1.383 . S
C334 C321 1.479 . S
C334 C335 1.398 . S
C335 C300 1.382 . S
C335 H312 0.951 . S
C335 C334 1.398 . S
H336 C344 0.950 . S
H337 C349 0.950 . S
H338 C346 0.950 . S
H339 C348 0.950 . S
H340 C350 0.950 . S
H341 C352 0.950 . S
H342 C354 0.950 . S
H343 C355 0.950 . S
C344 H336 0.950 . S
C344 C345 1.386 . S
C344 C346 1.391 . S
C345 C344 1.386 . S
C345 C349 1.393 . S
C346 H338 0.950 . S
C346 C344 1.391 . S
C346 C347 1.400 . S
C347 C346 1.400 . S
C347 C348 1.398 . S
C347 C353 1.491 . S
C348 H339 0.950 . S
C348 C347 1.398 . S
C348 C349 1.391 . S
C349 H337 0.950 . S
C349 C345 1.393 . S
C349 C348 1.391 . S
C350 H340 0.950 . S
C350 C351 1.386 . S
C350 C352 1.391 . S
C351 C350 1.386 . S
C351 C355 1.393 . S
C352 H341 0.950 . S
C352 C350 1.391 . S
C352 C353 1.400 . S
C353 C347 1.491 . S
C353 C352 1.400 . S
C353 C354 1.398 . S
C354 H342 0.950 . S
C354 C353 1.398 . S
C354 C355 1.391 . S
C355 H343 0.950 . S
C355 C351 1.393 . S
C355 C354 1.391 . S
H356 C364 0.950 . S
H357 C369 0.950 . S
H358 C366 0.950 . S
H359 C368 0.950 . S
H360 C370 0.950 . S
H361 C372 0.950 . S
H362 C374 0.950 . S
H363 C375 0.950 . S
C364 H356 0.950 . S
C364 C365 1.386 . S
C364 C366 1.391 . S
C365 C364 1.386 . S
C365 C369 1.393 . S
C366 H358 0.950 . S
C366 C364 1.391 . S
C366 C367 1.400 . S
C367 C366 1.400 . S
C367 C368 1.398 . S
C367 C373 1.491 . S
C368 H359 0.950 . S
C368 C367 1.398 . S
C368 C369 1.391 . S
C369 H357 0.950 . S
C369 C365 1.393 . S
C369 C368 1.391 . S
C370 H360 0.950 . S
C370 C371 1.386 . S
C370 C372 1.391 . S
C371 C370 1.386 . S
C371 C375 1.393 . S
C372 H361 0.950 . S
C372 C370 1.391 . S
C372 C373 1.400 . S
C373 C367 1.491 . S
C373 C372 1.400 . S
C373 C374 1.398 . S
C374 H362 0.950 . S
C374 C373 1.398 . S
C374 C375 1.391 . S
C375 H363 0.950 . S
C375 C371 1.393 . S
C375 C374 1.391 . S
H376 C384 0.950 . S
H377 C389 0.950 . S
H378 C386 0.950 . S
H379 C388 0.950 . S
H380 C390 0.950 . S
H381 C392 0.950 . S
H382 C394 0.950 . S
H383 C395 0.950 . S
C384 H376 0.950 . S
C384 C385 1.386 . S
C384 C386 1.391 . S
C385 C384 1.386 . S
C385 C389 1.393 . S
C386 H378 0.950 . S
C386 C384 1.391 . S
C386 C387 1.400 . S
C387 C386 1.400 . S
C387 C388 1.398 . S
C387 C393 1.491 . S
C388 H379 0.950 . S
C388 C387 1.398 . S
C388 C389 1.391 . S
C389 H377 0.950 . S
C389 C385 1.393 . S
C389 C388 1.391 . S
C390 H380 0.950 . S
C390 C391 1.386 . S
C390 C392 1.391 . S
C391 C390 1.386 . S
C391 C395 1.393 . S
C392 H381 0.950 . S
C392 C390 1.391 . S
C392 C393 1.400 . S
C393 C387 1.491 . S
C393 C392 1.400 . S
C393 C394 1.398 . S
C394 H382 0.950 . S
C394 C393 1.398 . S
C394 C395 1.391 . S
C395 H383 0.950 . S
C395 C391 1.393 . S
C395 C394 1.391 . S
H396 C404 0.950 . S
H397 C409 0.950 . S
H398 C406 0.950 . S
H399 C408 0.950 . S
H400 C410 0.950 . S
H401 C412 0.950 . S
H402 C414 0.950 . S
H403 C415 0.950 . S
C404 H396 0.950 . S
C404 C405 1.386 . S
C404 C406 1.391 . S
C405 C404 1.386 . S
C405 C409 1.393 . S
C406 H398 0.950 . S
C406 C404 1.391 . S
C406 C407 1.400 . S
C407 C406 1.400 . S
C407 C408 1.398 . S
C407 C413 1.491 . S
C408 H399 0.950 . S
C408 C407 1.398 . S
C408 C409 1.391 . S
C409 H397 0.950 . S
C409 C405 1.393 . S
C409 C408 1.391 . S
C410 H400 0.950 . S
C410 C411 1.386 . S
C410 C412 1.391 . S
C411 C410 1.386 . S
C411 C415 1.393 . S
C412 H401 0.950 . S
C412 C410 1.391 . S
C412 C413 1.400 . S
C413 C407 1.491 . S
C413 C412 1.400 . S
C413 C414 1.398 . S
C414 H402 0.950 . S
C414 C413 1.398 . S
C414 C415 1.391 . S
C415 H403 0.950 . S
C415 C411 1.393 . S
C415 C414 1.391 . S
H416 C424 0.950 . S
H417 C429 0.950 . S
H418 C426 0.950 . S
H419 C428 0.950 . S
H420 C430 0.950 . S
H421 C432 0.950 . S
H422 C434 0.950 . S
H423 C435 0.950 . S
C424 H416 0.950 . S
C424 C425 1.386 . S
C424 C426 1.391 . S
C425 C424 1.386 . S
C425 C429 1.393 . S
C426 H418 0.950 . S
C426 C424 1.391 . S
C426 C427 1.400 . S
C427 C426 1.400 . S
C427 C428 1.398 . S
C427 C433 1.491 . S
C428 H419 0.950 . S
C428 C427 1.398 . S
C428 C429 1.391 . S
C429 H417 0.950 . S
C429 C425 1.393 . S
C429 C428 1.391 . S
C430 H420 0.950 . S
C430 C431 1.386 . S
C430 C432 1.391 . S
C431 C430 1.386 . S
C431 C435 1.393 . S
C432 H421 0.950 . S
C432 C430 1.391 . S
C432 C433 1.400 . S
C433 C427 1.491 . S
C433 C432 1.400 . S
C433 C434 1.398 . S
C434 H422 0.950 . S
C434 C433 1.398 . S
C434 C435 1.391 . S
C435 H423 0.950 . S
C435 C431 1.393 . S
C435 C434 1.391 . S
H436 C444 0.950 . S
H437 C449 0.950 . S
H438 C446 0.950 . S
H439 C448 0.950 . S
H440 C450 0.950 . S
H441 C452 0.950 . S
H442 C454 0.950 . S
H443 C455 0.950 . S
C444 H436 0.950 . S
C444 C445 1.386 . S
C444 C446 1.391 . S
C445 C444 1.386 . S
C445 C449 1.393 . S
C446 H438 0.950 . S
C446 C444 1.391 . S
C446 C447 1.400 . S
C447 C446 1.400 . S
C447 C448 1.398 . S
C447 C453 1.491 . S
C448 H439 0.950 . S
C448 C447 1.398 . S
C448 C449 1.391 . S
C449 H437 0.950 . S
C449 C445 1.393 . S
C449 C448 1.391 . S
C450 H440 0.950 . S
C450 C451 1.386 . S
C450 C452 1.391 . S
C451 C450 1.386 . S
C451 C455 1.393 . S
C452 H441 0.950 . S
C452 C450 1.391 . S
C452 C453 1.400 . S
C453 C447 1.491 . S
C453 C452 1.400 . S
C453 C454 1.398 . S
C454 H442 0.950 . S
C454 C453 1.398 . S
C454 C455 1.391 . S
C455 H443 0.950 . S
C455 C451 1.393 . S
C455 C454 1.391 . S
H456 C464 0.950 . S
H457 C469 0.950 . S
H458 C466 0.950 . S
H459 C468 0.950 . S
H460 C470 0.950 . S
H461 C472 0.950 . S
H462 C474 0.950 . S
H463 C475 0.950 . S
C464 H456 0.950 . S
C464 C465 1.386 . S
C464 C466 1.391 . S
C465 C464 1.386 . S
C465 C469 1.393 . S
C466 H458 0.950 . S
C466 C464 1.391 . S
C466 C467 1.400 . S
C467 C466 1.400 . S
C467 C468 1.398 . S
C467 C473 1.491 . S
C468 H459 0.950 . S
C468 C467 1.398 . S
C468 C469 1.391 . S
C469 H457 0.950 . S
C469 C465 1.393 . S
C469 C468 1.391 . S
C470 H460 0.950 . S
C470 C471 1.386 . S
C470 C472 1.391 . S
C471 C470 1.386 . S
C471 C475 1.393 . S
C472 H461 0.950 . S
C472 C470 1.391 . S
C472 C473 1.400 . S
C473 C467 1.491 . S
C473 C472 1.400 . S
C473 C474 1.398 . S
C474 H462 0.950 . S
C474 C473 1.398 . S
C474 C475 1.391 . S
C475 H463 0.950 . S
C475 C471 1.393 . S
C475 C474 1.391 . S
H476 C484 0.950 . S
H477 C489 0.950 . S
H478 C486 0.950 . S
H479 C488 0.950 . S
H480 C490 0.950 . S
H481 C492 0.950 . S
H482 C494 0.950 . S
H483 C495 0.950 . S
C484 H476 0.950 . S
C484 C485 1.386 . S
C484 C486 1.391 . S
C485 C484 1.386 . S
C485 C489 1.393 . S
C486 H478 0.950 . S
C486 C484 1.391 . S
C486 C487 1.400 . S
C487 C486 1.400 . S
C487 C488 1.398 . S
C487 C493 1.491 . S
C488 H479 0.950 . S
C488 C487 1.398 . S
C488 C489 1.391 . S
C489 H477 0.950 . S
C489 C485 1.393 . S
C489 C488 1.391 . S
C490 H480 0.950 . S
C490 C491 1.386 . S
C490 C492 1.391 . S
C491 C490 1.386 . S
C491 C495 1.393 . S
C492 H481 0.950 . S
C492 C490 1.391 . S
C492 C493 1.400 . S
C493 C487 1.491 . S
C493 C492 1.400 . S
C493 C494 1.398 . S
C494 H482 0.950 . S
C494 C493 1.398 . S
C494 C495 1.391 . S
C495 H483 0.950 . S
C495 C491 1.393 . S
C495 C494 1.391 . S
H496 C504 0.950 . S
H497 C509 0.950 . S
H498 C506 0.950 . S
H499 C508 0.950 . S
H500 C510 0.950 . S
H501 C512 0.950 . S
H502 C514 0.950 . S
H503 C515 0.950 . S
C504 H496 0.950 . S
C504 C505 1.386 . S
C504 C506 1.391 . S
C505 C504 1.386 . S
C505 C509 1.393 . S
C506 H498 0.950 . S
C506 C504 1.391 . S
C506 C507 1.400 . S
C507 C506 1.400 . S
C507 C508 1.398 . S
C507 C513 1.491 . S
C508 H499 0.950 . S
C508 C507 1.398 . S
C508 C509 1.391 . S
C509 H497 0.950 . S
C509 C505 1.393 . S
C509 C508 1.391 . S
C510 H500 0.950 . S
C510 C511 1.386 . S
C510 C512 1.391 . S
C511 C510 1.386 . S
C511 C515 1.393 . S
C512 H501 0.950 . S
C512 C510 1.391 . S
C512 C513 1.400 . S
C513 C507 1.491 . S
C513 C512 1.400 . S
C513 C514 1.398 . S
C514 H502 0.950 . S
C514 C513 1.398 . S
C514 C515 1.391 . S
C515 H503 0.950 . S
C515 C511 1.393 . S
C515 C514 1.391 . S
H516 C524 0.950 . S
H517 C529 0.950 . S
H518 C526 0.950 . S
H519 C528 0.950 . S
H520 C530 0.950 . S
H521 C532 0.950 . S
H522 C534 0.950 . S
H523 C535 0.950 . S
C524 H516 0.950 . S
C524 C525 1.386 . S
C524 C526 1.391 . S
C525 C524 1.386 . S
C525 C529 1.393 . S
C526 H518 0.950 . S
C526 C524 1.391 . S
C526 C527 1.400 . S
C527 C526 1.400 . S
C527 C528 1.398 . S
C527 C533 1.491 . S
C528 H519 0.950 . S
C528 C527 1.398 . S
C528 C529 1.391 . S
C529 H517 0.950 . S
C529 C525 1.393 . S
C529 C528 1.391 . S
C530 H520 0.950 . S
C530 C531 1.386 . S
C530 C532 1.391 . S
C531 C530 1.386 . S
C531 C535 1.393 . S
C532 H521 0.950 . S
C532 C530 1.391 . S
C532 C533 1.400 . S
C533 C527 1.491 . S
C533 C532 1.400 . S
C533 C534 1.398 . S
C534 H522 0.950 . S
C534 C533 1.398 . S
C534 C535 1.391 . S
C535 H523 0.950 . S
C535 C531 1.393 . S
C535 C534 1.391 . S
H536 C544 0.950 . S
H537 C549 0.950 . S
H538 C546 0.950 . S
H539 C548 0.950 . S
H540 C550 0.950 . S
H541 C552 0.950 . S
H542 C554 0.950 . S
H543 C555 0.950 . S
C544 H536 0.950 . S
C544 C545 1.386 . S
C544 C546 1.391 . S
C545 C544 1.386 . S
C545 C549 1.393 . S
C546 H538 0.950 . S
C546 C544 1.391 . S
C546 C547 1.400 . S
C547 C546 1.400 . S
C547 C548 1.398 . S
C547 C553 1.491 . S
C548 H539 0.950 . S
C548 C547 1.398 . S
C548 C549 1.391 . S
C549 H537 0.950 . S
C549 C545 1.393 . S
C549 C548 1.391 . S
C550 H540 0.950 . S
C550 C551 1.386 . S
C550 C552 1.391 . S
C551 C550 1.386 . S
C551 C555 1.393 . S
C552 H541 0.950 . S
C552 C550 1.391 . S
C552 C553 1.400 . S
C553 C547 1.491 . S
C553 C552 1.400 . S
C553 C554 1.398 . S
C554 H542 0.950 . S
C554 C553 1.398 . S
C554 C555 1.391 . S
C555 H543 0.950 . S
C555 C551 1.393 . S
C555 C554 1.391 . S
H556 C564 0.950 . S
H557 C569 0.950 . S
H558 C566 0.950 . S
H559 C568 0.950 . S
H560 C570 0.950 . S
H561 C572 0.950 . S
H562 C574 0.950 . S
H563 C575 0.950 . S
C564 H556 0.950 . S
C564 C565 1.386 . S
C564 C566 1.391 . S
C565 C564 1.386 . S
C565 C569 1.393 . S
C566 H558 0.950 . S
C566 C564 1.391 . S
C566 C567 1.400 . S
C567 C566 1.400 . S
C567 C568 1.398 . S
C567 C573 1.491 . S
C568 H559 0.950 . S
C568 C567 1.398 . S
C568 C569 1.391 . S
C569 H557 0.950 . S
C569 C565 1.393 . S
C569 C568 1.391 . S
C570 H560 0.950 . S
C570 C571 1.386 . S
C570 C572 1.391 . S
C571 C570 1.386 . S
C571 C575 1.393 . S
C572 H561 0.950 . S
C572 C570 1.391 . S
C572 C573 1.400 . S
C573 C567 1.491 . S
C573 C572 1.400 . S
C573 C574 1.398 . S
C574 H562 0.950 . S
C574 C573 1.398 . S
C574 C575 1.391 . S
C575 H563 0.950 . S
C575 C571 1.393 . S
C575 C574 1.391 . S
H576 C584 0.950 . S
H577 C589 0.950 . S
H578 C586 0.950 . S
H579 C588 0.950 . S
H580 C590 0.950 . S
H581 C592 0.950 . S
H582 C594 0.950 . S
H583 C595 0.979 . S
C584 H576 0.950 . S
C584 C585 1.386 1_655 S
C584 C586 1.391 . S
C585 C584 1.386 1_455 S
C585 C589 1.393 . S
C586 H578 0.950 . S
C586 C584 1.391 . S
C586 C587 1.400 1_655 S
C587 C586 1.400 1_455 S
C587 C588 1.398 . S
C587 C593 1.491 . S
C588 H579 0.950 . S
C588 C587 1.398 . S
C588 C589 1.391 . S
C589 H577 0.950 . S
C589 C585 1.393 . S
C589 C588 1.391 . S
C590 H580 0.950 . S
C590 C591 1.380 1_554 S
C590 C592 1.391 . S
C591 C590 1.380 1_556 S
C591 C595 1.388 1_456 S
C592 H581 0.950 . S
C592 C590 1.391 . S
C592 C593 1.400 . S
C593 C587 1.491 . S
C593 C592 1.400 . S
C593 C594 1.398 1_455 S
C594 H582 0.950 . S
C594 C593 1.398 1_655 S
C594 C595 1.391 . S
C595 H583 0.979 . S
C595 C591 1.388 1_654 S
C595 C594 1.391 . S
H596 C604 0.950 . S
H597 C609 0.947 1_565 S
H598 C606 0.950 . S
H599 C608 0.950 1_565 S
H600 C610 0.950 1_565 S
H601 C612 0.950 1_565 S
H602 C614 0.950 . S
H603 C615 0.950 . S
C604 H596 0.950 . S
C604 C605 1.386 . S
C604 C606 1.391 . S
C605 C604 1.386 . S
C605 C609 1.393 . S
C606 H598 0.950 . S
C606 C604 1.391 . S
C606 C607 1.400 . S
C607 C606 1.400 . S
C607 C608 1.398 . S
C607 C613 1.491 . S
C608 H599 0.950 1_545 S
C608 C607 1.398 . S
C608 C609 1.391 . S
C609 H597 0.947 1_545 S
C609 C605 1.393 . S
C609 C608 1.391 . S
C610 H600 0.950 1_545 S
C610 C611 1.386 . S
C610 C612 1.391 . S
C611 C610 1.386 . S
C611 C615 1.393 . S
C612 H601 0.950 1_545 S
C612 C610 1.391 . S
C612 C613 1.400 . S
C613 C607 1.491 . S
C613 C612 1.400 . S
C613 C614 1.398 . S
C614 H602 0.950 . S
C614 C613 1.398 . S
C614 C615 1.391 . S
C615 H603 0.950 . S
C615 C611 1.393 . S
C615 C614 1.391 . S
H616 C624 0.950 . S
H617 C629 0.950 . S
H618 C626 0.950 . S
H619 C628 0.950 . S
H620 C630 0.950 . S
H621 C632 0.950 . S
H622 C634 0.950 . S
H623 C635 0.950 . S
C624 H616 0.950 . S
C624 C625 1.386 . S
C624 C626 1.391 . S
C625 C624 1.386 . S
C625 C629 1.393 . S
C626 H618 0.950 . S
C626 C624 1.391 . S
C626 C627 1.400 . S
C627 C626 1.400 . S
C627 C628 1.398 . S
C627 C633 1.491 . S
C628 H619 0.950 . S
C628 C627 1.398 . S
C628 C629 1.391 . S
C629 H617 0.950 . S
C629 C625 1.393 . S
C629 C628 1.391 . S
C630 H620 0.950 . S
C630 C631 1.386 . S
C630 C632 1.391 . S
C631 C630 1.386 . S
C631 C635 1.393 . S
C632 H621 0.950 . S
C632 C630 1.391 . S
C632 C633 1.400 . S
C633 C627 1.491 . S
C633 C632 1.400 . S
C633 C634 1.398 . S
C634 H622 0.950 . S
C634 C633 1.398 . S
C634 C635 1.391 . S
C635 H623 0.950 . S
C635 C631 1.393 . S
C635 C634 1.391 . S
H636 C644 0.950 . S
H637 C649 0.950 . S
H638 C646 0.950 . S
H639 C648 0.950 . S
H640 C650 0.950 . S
H641 C652 0.950 . S
H642 C654 0.950 . S
H643 C655 0.950 . S
C644 H636 0.950 . S
C644 C645 1.386 1_565 S
C644 C646 1.391 . S
C645 C644 1.386 1_545 S
C645 C649 1.393 . S
C646 H638 0.950 . S
C646 C644 1.391 . S
C646 C647 1.400 1_565 S
C647 C646 1.400 1_545 S
C647 C648 1.398 . S
C647 C653 1.491 . S
C648 H639 0.950 . S
C648 C647 1.398 . S
C648 C649 1.391 . S
C649 H637 0.950 . S
C649 C645 1.393 . S
C649 C648 1.391 . S
C650 H640 0.950 . S
C650 C651 1.386 . S
C650 C652 1.391 . S
C651 C650 1.386 . S
C651 C655 1.393 1_545 S
C652 H641 0.950 . S
C652 C650 1.391 . S
C652 C653 1.400 . S
C653 C647 1.491 . S
C653 C652 1.400 . S
C653 C654 1.398 1_545 S
C654 H642 0.950 . S
C654 C653 1.398 1_565 S
C654 C655 1.391 . S
C655 H643 0.950 . S
C655 C651 1.393 1_565 S
C655 C654 1.391 . S
H656 C664 0.950 . S
H657 C669 0.950 . S
H658 C666 0.950 . S
H659 C668 0.950 . S
H660 C670 0.950 . S
H661 C672 0.950 . S
H662 C674 0.950 . S
H663 C675 0.950 . S
C664 H656 0.950 . S
C664 C665 1.386 . S
C664 C666 1.391 . S
C665 C664 1.386 . S
C665 C669 1.393 . S
C666 H658 0.950 . S
C666 C664 1.391 . S
C666 C667 1.400 . S
C667 C666 1.400 . S
C667 C668 1.398 . S
C667 C673 1.491 . S
C668 H659 0.950 . S
C668 C667 1.398 . S
C668 C669 1.391 . S
C669 H657 0.950 . S
C669 C665 1.393 . S
C669 C668 1.391 . S
C670 H660 0.950 . S
C670 C671 1.386 . S
C670 C672 1.391 . S
C671 C670 1.386 . S
C671 C675 1.393 . S
C672 H661 0.950 . S
C672 C670 1.391 . S
C672 C673 1.400 . S
C673 C667 1.491 . S
C673 C672 1.400 . S
C673 C674 1.398 . S
C674 H662 0.950 . S
C674 C673 1.398 . S
C674 C675 1.391 . S
C675 H663 0.950 . S
C675 C671 1.393 . S
C675 C674 1.391 . S
H676 C684 0.950 . S
H677 C689 0.950 . S
H678 C686 0.950 . S
H679 C688 0.950 . S
H680 C690 0.950 . S
H681 C692 0.950 . S
H682 C694 0.950 . S
H683 C695 0.950 . S
C684 H676 0.950 . S
C684 C685 1.386 1_655 S
C684 C686 1.391 . S
C685 C684 1.386 1_455 S
C685 C689 1.393 . S
C686 H678 0.950 . S
C686 C684 1.391 . S
C686 C687 1.400 1_655 S
C687 C686 1.400 1_455 S
C687 C688 1.398 . S
C687 C693 1.491 . S
C688 H679 0.950 . S
C688 C687 1.398 . S
C688 C689 1.391 . S
C689 H677 0.950 . S
C689 C685 1.393 . S
C689 C688 1.391 . S
C690 H680 0.950 . S
C690 C691 1.386 . S
C690 C692 1.391 . S
C691 C690 1.386 . S
C691 C695 1.393 1_455 S
C692 H681 0.950 . S
C692 C690 1.391 . S
C692 C693 1.400 . S
C693 C687 1.491 . S
C693 C692 1.400 . S
C693 C694 1.398 1_455 S
C694 H682 0.950 . S
C694 C693 1.398 1_655 S
C694 C695 1.391 . S
C695 H683 0.950 . S
C695 C691 1.393 1_655 S
C695 C694 1.391 . S
C345 C9 0.480 . S
C351 C325 0.433 . S
C365 C49 0.298 . S
C371 C253 0.356 . S
C385 C89 0.313 . S
C391 C289 0.368 . S
C405 C26 0.394 . S
C411 C301 0.319 . S
C431 C229 0.403 . S
C425 C66 0.462 . S
C451 C265 0.441 . S
C445 C106 0.493 . S
C465 C43 2.954 . S
C471 C181 2.873 . S
C485 C83 3.093 . S
C491 C193 3.048 . S
C505 C22 3.154 . S
C511 C121 3.105 . S
C531 C157 3.091 . S
C525 C62 3.148 . S
C551 C217 2.924 . S
C545 C102 3.005 . S
C565 C3 2.950 . S
C571 C145 2.877 . S
C591 C223 1.793 . S
C585 C15 1.720 . S
C605 C55 1.743 . S
C611 C151 1.788 . S
C625 C95 1.737 . S
C631 C187 1.784 . S
C651 C295 1.077 . S
C645 C42 1.058 . S
C671 C331 1.086 1_556 S
C665 C82 1.085 . S
C685 C2 1.054 . S
C691 C259 1.076 . S
