# Generated by pormake.
# Topology zzz, (3,6)-cn, num edge types: 1
# Building blocks:
#     Node 0, Type 0, BuildingBlock: KAKCAD_clean_linker_0, # of connection points: 3
#     Node 1, Type 0, BuildingBlock: KAKCAD_clean_linker_0, # of connection points: 3
#     Node 2, Type 0, BuildingBlock: KAKCAD_clean_linker_0, # of connection points: 3
#     Node 3, Type 0, BuildingBlock: KAKCAD_clean_linker_0, # of connection points: 3
#     Node 4, Type 0, BuildingBlock: KAKCAD_clean_linker_0, # of connection points: 3
#     Node 5, Type 0, BuildingBlock: KAKCAD_clean_linker_0, # of connection points: 3
#     Node 6, Type 0, BuildingBlock: KAKCAD_clean_linker_0, # of connection points: 3
#     Node 7, Type 0, BuildingBlock: KAKCAD_clean_linker_0, # of connection points: 3
#     Node 8, Type 1, BuildingBlock: FUNLAD_clean_sbu_0, # of connection points: 6
#     Node 9, Type 1, BuildingBlock: FUNLAD_clean_sbu_0, # of connection points: 6
#     Node 10, Type 1, BuildingBlock: FUNLAD_clean_sbu_0, # of connection points: 6
#     Node 11, Type 1, BuildingBlock: FUNLAD_clean_sbu_0, # of connection points: 6
#     Edge 12, Type (0, 1), BuildingBlock: UVAHIK_clean_linker_0, # of connection points: 2
#     Edge 13, Type (0, 1), BuildingBlock: UVAHIK_clean_linker_0, # of connection points: 2
#     Edge 14, Type (0, 1), BuildingBlock: UVAHIK_clean_linker_0, # of connection points: 2
#     Edge 15, Type (0, 1), BuildingBlock: UVAHIK_clean_linker_0, # of connection points: 2
#     Edge 16, Type (0, 1), BuildingBlock: UVAHIK_clean_linker_0, # of connection points: 2
#     Edge 17, Type (0, 1), BuildingBlock: UVAHIK_clean_linker_0, # of connection points: 2
#     Edge 18, Type (0, 1), BuildingBlock: UVAHIK_clean_linker_0, # of connection points: 2
#     Edge 19, Type (0, 1), BuildingBlock: UVAHIK_clean_linker_0, # of connection points: 2
#     Edge 20, Type (0, 1), BuildingBlock: UVAHIK_clean_linker_0, # of connection points: 2
#     Edge 21, Type (0, 1), BuildingBlock: UVAHIK_clean_linker_0, # of connection points: 2
#     Edge 22, Type (0, 1), BuildingBlock: UVAHIK_clean_linker_0, # of connection points: 2
#     Edge 23, Type (0, 1), BuildingBlock: UVAHIK_clean_linker_0, # of connection points: 2
#     Edge 24, Type (0, 1), BuildingBlock: UVAHIK_clean_linker_0, # of connection points: 2
#     Edge 25, Type (0, 1), BuildingBlock: UVAHIK_clean_linker_0, # of connection points: 2
#     Edge 26, Type (0, 1), BuildingBlock: UVAHIK_clean_linker_0, # of connection points: 2
#     Edge 27, Type (0, 1), BuildingBlock: UVAHIK_clean_linker_0, # of connection points: 2
#     Edge 28, Type (0, 1), BuildingBlock: UVAHIK_clean_linker_0, # of connection points: 2
#     Edge 29, Type (0, 1), BuildingBlock: UVAHIK_clean_linker_0, # of connection points: 2
#     Edge 30, Type (0, 1), BuildingBlock: UVAHIK_clean_linker_0, # of connection points: 2
#     Edge 31, Type (0, 1), BuildingBlock: UVAHIK_clean_linker_0, # of connection points: 2
#     Edge 32, Type (0, 1), BuildingBlock: UVAHIK_clean_linker_0, # of connection points: 2
#     Edge 33, Type (0, 1), BuildingBlock: UVAHIK_clean_linker_0, # of connection points: 2
#     Edge 34, Type (0, 1), BuildingBlock: UVAHIK_clean_linker_0, # of connection points: 2
#     Edge 35, Type (0, 1), BuildingBlock: UVAHIK_clean_linker_0, # of connection points: 2
# Relax obj value: 0.287
# Max RMSD: 0.218
# Mean RMSD: 0.190
data_MOF--net-zzz--node1-FUNLAD_clean_sbu_0--node2-KAKCAD_clean_linker_0--edge1-UVAHIK_clean_linker_0
_symmetry_space_group_name_H-M    P1
_symmetry_Int_Tables_number       1
_symmetry_cell_setting            triclinic
loop_
_symmetry_equiv_pos_as_xyz
'x, y, z'
_cell_length_a     71.694685
_cell_length_b     76.111453
_cell_length_c     27.917173
_cell_angle_alpha  87.388339
_cell_angle_beta   88.054825
_cell_angle_gamma 92.197831
loop_
_atom_site_label
_atom_site_type_symbol
_atom_site_fract_x
_atom_site_fract_y
_atom_site_fract_z
_atom_type_partial_charge
C0 C 0.85269 0.41112 0.04238 0.0
C1 C 0.86669 0.40038 0.0601 0.0
C2 C 0.83704 0.41449 0.07097 0.0
C3 C 0.83497 0.40729 0.11813 0.0
C4 C 0.8485 0.39592 0.13531 0.0
C5 C 0.86417 0.39245 0.10653 0.0
C6 C 0.81975 0.41313 0.15032 0.0
C7 C 0.80176 0.41524 0.13331 0.0
C8 C 0.7881 0.42349 0.16063 0.0
C9 C 0.79256 0.42951 0.20595 0.0
C10 C 0.81039 0.42702 0.22406 0.0
C11 C 0.82381 0.41872 0.19611 0.0
C12 C 0.81595 0.43447 0.26989 0.0
C13 C 0.81289 0.45216 0.27885 0.0
C14 C 0.82644 0.42454 0.30213 0.0
C15 C 0.83471 0.43242 0.34075 0.0
C16 C 0.83275 0.45043 0.34791 0.0
C17 C 0.76984 0.42699 0.13937 0.0
C18 C 0.76267 0.44391 0.13951 0.0
C19 C 0.76042 0.41388 0.11461 0.0
C20 C 0.74469 0.41779 0.08861 0.0
C21 C 0.73805 0.43495 0.0866 0.0
C22 C 0.74695 0.44786 0.11332 0.0
C23 C 0.82127 0.46009 0.31742 0.0
H24 H 0.85427 0.41778 0.00729 0.0
H25 H 0.82706 0.42356 0.05693 0.0
H26 H 0.84717 0.39006 0.17141 0.0
H27 H 0.87454 0.38392 0.12108 0.0
H28 H 0.79863 0.41114 0.09768 0.0
H29 H 0.83789 0.41772 0.2087 0.0
H30 H 0.78222 0.43614 0.22698 0.0
H31 H 0.80495 0.46015 0.25444 0.0
H32 H 0.82891 0.41084 0.29622 0.0
H33 H 0.84357 0.42461 0.36325 0.0
H34 H 0.76976 0.45434 0.15785 0.0
H35 H 0.7655 0.40066 0.11443 0.0
H36 H 0.81932 0.47394 0.32234 0.0
H37 H 0.7423 0.46124 0.11226 0.0
H38 H 0.73791 0.40744 0.06935 0.0
C39 C 0.95355 0.80966 0.00826 0.0
C40 C 0.96727 0.82031 0.029 0.0
C41 C 0.9431 0.79686 0.03623 0.0
C42 C 0.94609 0.79454 0.08552 0.0
C43 C 0.95994 0.80504 0.10611 0.0
C44 C 0.97042 0.81776 0.07818 0.0
C45 C 0.93489 0.78122 0.11572 0.0
C46 C 0.93186 0.76408 0.10051 0.0
C47 C 0.92253 0.75103 0.1308 0.0
C48 C 0.91614 0.75535 0.17693 0.0
C49 C 0.91872 0.77262 0.19176 0.0
C50 C 0.92798 0.78542 0.16108 0.0
C51 C 0.91313 0.77774 0.24021 0.0
C52 C 0.89765 0.78822 0.2463 0.0
C53 C 0.92592 0.77624 0.27688 0.0
C54 C 0.9242 0.78636 0.31721 0.0
C55 C 0.90964 0.79816 0.32147 0.0
C56 C 0.92081 0.73277 0.11452 0.0
C57 C 0.91576 0.72975 0.06731 0.0
C58 C 0.92617 0.71851 0.14397 0.0
C59 C 0.92765 0.70181 0.12548 0.0
C60 C 0.92373 0.69905 0.07727 0.0
C61 C 0.9172 0.71309 0.04888 0.0
C62 C 0.8958 0.79822 0.28685 0.0
H63 H 0.9506 0.81145 0.9706 0.0
H64 H 0.93242 0.78903 0.01952 0.0
H65 H 0.96281 0.80331 0.14384 0.0
H66 H 0.9811 0.82551 0.09509 0.0
H67 H 0.93759 0.76068 0.06586 0.0
H68 H 0.93011 0.79868 0.1731 0.0
H69 H 0.90922 0.7454 0.20106 0.0
H70 H 0.88777 0.7897 0.21799 0.0
H71 H 0.93816 0.76849 0.27228 0.0
H72 H 0.93522 0.78604 0.34276 0.0
H73 H 0.91139 0.74047 0.04396 0.0
H74 H 0.9302 0.72045 0.18045 0.0
H75 H 0.88421 0.80687 0.28945 0.0
H76 H 0.91418 0.71151 0.01155 0.0
H77 H 0.93246 0.69119 0.14847 0.0
C78 C 0.71583 0.02929 0.989 0.0
C79 C 0.70112 0.03965 0.00428 0.0
C80 C 0.72886 0.02327 0.02126 0.0
C81 C 0.72794 0.02786 0.06952 0.0
C82 C 0.71398 0.0392 0.08403 0.0
C83 C 0.70062 0.04484 0.05203 0.0
C84 C 0.74068 0.0199 0.10496 0.0
C85 C 0.7588 0.01541 0.09091 0.0
C86 C 0.7701 0.006 0.12238 0.0
C87 C 0.76347 0.00177 0.16976 0.0
C88 C 0.74559 0.00676 0.1849 0.0
C89 C 0.73432 0.01559 0.15229 0.0
C90 C 0.7376 0.00213 0.23364 0.0
C91 C 0.73328 0.9845 0.24806 0.0
C92 C 0.73104 0.01551 0.26201 0.0
C93 C 0.71942 0.01142 0.30247 0.0
C94 C 0.71391 0.99385 0.31512 0.0
C95 C 0.7885 0.00036 0.10388 0.0
C96 C 0.78972 0.99274 0.05903 0.0
C97 C 0.805 0.00399 0.12791 0.0
C98 C 0.82245 0.00099 0.10607 0.0
C99 C 0.82367 0.99419 0.05997 0.0
C100 C 0.80703 0.98974 0.03733 0.0
C101 C 0.72145 0.98038 0.28838 0.0
H102 H 0.71707 0.02539 0.95226 0.0
H103 H 0.7392 0.01444 0.00845 0.0
H104 H 0.71304 0.04344 0.12049 0.0
H105 H 0.68951 0.05271 0.06549 0.0
H106 H 0.7642 0.01915 0.05503 0.0
H107 H 0.72018 0.0184 0.16364 0.0
H108 H 0.772 0.99446 0.19436 0.0
H109 H 0.738 0.97398 0.22637 0.0
H110 H 0.73405 0.02921 0.25124 0.0
H111 H 0.71375 0.02212 0.32189 0.0
H112 H 0.77721 0.98964 0.03986 0.0
H113 H 0.80445 0.00988 0.1625 0.0
H114 H 0.7176 0.96671 0.29749 0.0
H115 H 0.80732 0.98469 0.0017 0.0
H116 H 0.83498 0.00434 0.12484 0.0
C117 C 0.57388 0.68755 0.33332 0.0
C118 C 0.59051 0.6813 0.35207 0.0
C119 C 0.57433 0.69847 0.29172 0.0
C120 C 0.59137 0.70335 0.2679 0.0
C121 C 0.60807 0.698 0.28761 0.0
C122 C 0.60767 0.6872 0.32962 0.0
C123 C 0.59128 0.71069 0.21822 0.0
C124 C 0.59054 0.72886 0.2077 0.0
C125 C 0.58876 0.73517 0.15998 0.0
C126 C 0.58715 0.72318 0.12341 0.0
C127 C 0.58734 0.70502 0.13398 0.0
C128 C 0.58986 0.6989 0.18129 0.0
C129 C 0.58256 0.69234 0.09731 0.0
C130 C 0.56617 0.69419 0.07179 0.0
C131 C 0.59317 0.67745 0.09112 0.0
C132 C 0.58717 0.66435 0.06104 0.0
C133 C 0.57023 0.66572 0.03726 0.0
C134 C 0.5869 0.75408 0.14769 0.0
C135 C 0.57135 0.76283 0.16494 0.0
C136 C 0.59919 0.7627 0.11328 0.0
C137 C 0.59558 0.77956 0.0949 0.0
C138 C 0.5794 0.78791 0.10992 0.0
C139 C 0.56753 0.77958 0.14587 0.0
C140 C 0.56 0.68098 0.04233 0.0
H141 H 0.56038 0.68312 0.34886 0.0
H142 H 0.56128 0.70218 0.27638 0.0
H143 H 0.62135 0.70145 0.26921 0.0
H144 H 0.62077 0.68293 0.3434 0.0
H145 H 0.59109 0.73798 0.23639 0.0
H146 H 0.58954 0.68485 0.19 0.0
H147 H 0.585 0.72798 0.08691 0.0
H148 H 0.55759 0.70543 0.07654 0.0
H149 H 0.60593 0.6758 0.11027 0.0
H150 H 0.59565 0.653 0.05715 0.0
H151 H 0.56159 0.75631 0.19106 0.0
H152 H 0.61118 0.75608 0.09927 0.0
H153 H 0.54677 0.68244 0.02532 0.0
H154 H 0.555 0.78579 0.15808 0.0
H155 H 0.60486 0.78563 0.06695 0.0
C156 C 0.18654 0.60361 0.30128 0.0
C157 C 0.16866 0.59654 0.29245 0.0
C158 C 0.202 0.59942 0.27262 0.0
C159 C 0.1999 0.58785 0.23502 0.0
C160 C 0.18187 0.58123 0.22561 0.0
C161 C 0.16646 0.58561 0.25373 0.0
C162 C 0.2164 0.58159 0.20775 0.0
C163 C 0.23294 0.5778 0.23106 0.0
C164 C 0.2476 0.56962 0.20711 0.0
C165 C 0.24546 0.56485 0.15942 0.0
C166 C 0.22925 0.56905 0.13535 0.0
C167 C 0.21504 0.57772 0.1593 0.0
C168 C 0.22581 0.56315 0.08669 0.0
C169 C 0.22189 0.57553 0.05006 0.0
C170 C 0.22272 0.54517 0.07946 0.0
C171 C 0.21423 0.53974 0.03791 0.0
C172 C 0.20881 0.55224 0.00286 0.0
C173 C 0.26472 0.56556 0.23315 0.0
C174 C 0.27325 0.57837 0.26074 0.0
C175 C 0.27205 0.5487 0.23278 0.0
C176 C 0.28729 0.54461 0.2607 0.0
C177 C 0.2956 0.55736 0.28901 0.0
C178 C 0.28856 0.57434 0.28822 0.0
C179 C 0.21366 0.57012 0.0083 0.0
H180 H 0.1886 0.61213 0.33086 0.0
H181 H 0.21562 0.60498 0.28048 0.0
H182 H 0.17966 0.57196 0.19789 0.0
H183 H 0.15292 0.57965 0.24666 0.0
H184 H 0.23411 0.58038 0.26871 0.0
H185 H 0.2025 0.58075 0.14047 0.0
H186 H 0.25641 0.55807 0.14094 0.0
H187 H 0.22416 0.58948 0.05503 0.0
H188 H 0.22545 0.53543 0.10761 0.0
H189 H 0.21064 0.52589 0.03512 0.0
H190 H 0.26795 0.5915 0.26144 0.0
H191 H 0.26566 0.53854 0.21209 0.0
H192 H 0.21013 0.58006 0.98148 0.0
H193 H 0.29455 0.5844 0.30995 0.0
H194 H 0.29252 0.53145 0.26032 0.0
C195 C 0.08127 0.192 0.37074 0.0
C196 C 0.08758 0.17478 0.3695 0.0
C197 C 0.09055 0.20569 0.34334 0.0
C198 C 0.10639 0.20243 0.31444 0.0
C199 C 0.11345 0.18544 0.3161 0.0
C200 C 0.10409 0.17174 0.34316 0.0
C201 C 0.11383 0.21597 0.278 0.0
C202 C 0.1149 0.23386 0.28804 0.0
C203 C 0.11874 0.24677 0.25112 0.0
C204 C 0.12171 0.24177 0.20369 0.0
C205 C 0.12152 0.22385 0.19364 0.0
C206 C 0.11763 0.21112 0.23092 0.0
C207 C 0.12309 0.21785 0.14409 0.0
C208 C 0.10981 0.22268 0.11065 0.0
C209 C 0.13526 0.20441 0.13354 0.0
C210 C 0.13304 0.19483 0.09252 0.0
C211 C 0.11849 0.19842 0.06149 0.0
C212 C 0.11788 0.26544 0.26252 0.0
C213 C 0.10247 0.27506 0.2491 0.0
C214 C 0.13105 0.27293 0.29228 0.0
C215 C 0.12855 0.28963 0.30973 0.0
C216 C 0.11252 0.29898 0.29877 0.0
C217 C 0.09973 0.29162 0.26727 0.0
C218 C 0.10749 0.21299 0.06969 0.0
H219 H 0.06854 0.1947 0.39061 0.0
H220 H 0.0846 0.21856 0.3425 0.0
H221 H 0.12581 0.18257 0.29492 0.0
H222 H 0.10944 0.15863 0.34235 0.0
H223 H 0.11199 0.23783 0.32426 0.0
H224 H 0.11622 0.19739 0.22235 0.0
H225 H 0.12405 0.25173 0.17488 0.0
H226 H 0.10019 0.23291 0.1182 0.0
H227 H 0.14558 0.20045 0.15896 0.0
H228 H 0.14168 0.18365 0.08747 0.0
H229 H 0.092 0.26934 0.22671 0.0
H230 H 0.14301 0.26563 0.30311 0.0
H231 H 0.09631 0.2162 0.04604 0.0
H232 H 0.08708 0.29818 0.25846 0.0
H233 H 0.13895 0.29499 0.33282 0.0
C234 C 0.32292 0.95791 0.35306 0.0
C235 C 0.33754 0.96916 0.36695 0.0
C236 C 0.30993 0.96402 0.32058 0.0
C237 C 0.31169 0.98133 0.3008 0.0
C238 C 0.32628 0.99256 0.31478 0.0
C239 C 0.339 0.98657 0.34788 0.0
C240 C 0.29869 0.98764 0.26452 0.0
C241 C 0.27942 0.98701 0.27449 0.0
C242 C 0.2671 0.99366 0.24066 0.0
C243 C 0.27425 0.00043 0.19556 0.0
C244 C 0.29363 0.0008 0.18509 0.0
C245 C 0.30569 0.99463 0.22002 0.0
C246 C 0.30185 0.00674 0.13746 0.0
C247 C 0.29837 0.99687 0.09723 0.0
C248 C 0.31598 0.02008 0.13415 0.0
C249 C 0.32723 0.02279 0.09238 0.0
C250 C 0.32475 0.01201 0.05335 0.0
C251 C 0.247 0.99422 0.2547 0.0
C252 C 0.23748 0.97905 0.27498 0.0
C253 C 0.23808 0.01032 0.25452 0.0
C254 C 0.2204 0.01142 0.27696 0.0
C255 C 0.21125 0.99638 0.29935 0.0
C256 C 0.21975 0.9801 0.2968 0.0
C257 C 0.3098 0.99942 0.05558 0.0
H258 H 0.32155 0.94443 0.36738 0.0
H259 H 0.29879 0.95515 0.31004 0.0
H260 H 0.32784 0.00597 0.30003 0.0
H261 H 0.35027 0.99544 0.35774 0.0
H262 H 0.27408 0.98196 0.30947 0.0
H263 H 0.32062 0.99482 0.21204 0.0
H264 H 0.26486 0.00538 0.16896 0.0
H265 H 0.2877 0.98636 0.09921 0.0
H266 H 0.31902 0.02772 0.16495 0.0
H267 H 0.33869 0.03249 0.09198 0.0
H268 H 0.2441 0.96649 0.27568 0.0
H269 H 0.24522 0.02223 0.23952 0.0
H270 H 0.30746 0.99102 0.02589 0.0
H271 H 0.21315 0.9683 0.31398 0.0
H272 H 0.21412 0.02412 0.27799 0.0
C273 C 0.42136 0.31276 0.0392 0.0
C274 C 0.43784 0.31532 0.01033 0.0
C275 C 0.42139 0.30287 0.08267 0.0
C276 C 0.43772 0.29495 0.09744 0.0
C277 C 0.45355 0.29587 0.06647 0.0
C278 C 0.45367 0.30603 0.02349 0.0
C279 C 0.43987 0.28992 0.14856 0.0
C280 C 0.44429 0.27279 0.16397 0.0
C281 C 0.44891 0.26918 0.21201 0.0
C282 C 0.44943 0.28304 0.24377 0.0
C283 C 0.44567 0.3003 0.22826 0.0
C284 C 0.44022 0.30343 0.18102 0.0
C285 C 0.44964 0.31526 0.25941 0.0
C286 C 0.44617 0.31362 0.30938 0.0
C287 C 0.45843 0.3309 0.23951 0.0
C288 C 0.464 0.34434 0.26879 0.0
C289 C 0.46117 0.34241 0.31873 0.0
C290 C 0.45394 0.25125 0.22941 0.0
C291 C 0.44373 0.23613 0.21642 0.0
C292 C 0.46838 0.24927 0.26195 0.0
C293 C 0.47165 0.23286 0.28352 0.0
C294 C 0.4609 0.21796 0.27223 0.0
C295 C 0.44726 0.21957 0.23757 0.0
C296 C 0.45201 0.32702 0.33879 0.0
H297 H 0.40873 0.31924 0.02972 0.0
H298 H 0.40905 0.3024 0.10627 0.0
H299 H 0.46639 0.29011 0.0776 0.0
H300 H 0.46671 0.30772 0.00282 0.0
H301 H 0.44464 0.26251 0.13839 0.0
H302 H 0.43723 0.31669 0.16848 0.0
H303 H 0.45344 0.28049 0.2804 0.0
H304 H 0.4392 0.30188 0.32587 0.0
H305 H 0.46177 0.33252 0.20142 0.0
H306 H 0.47126 0.35597 0.25246 0.0
H307 H 0.43252 0.2372 0.19154 0.0
H308 H 0.47694 0.2605 0.27166 0.0
H309 H 0.4495 0.32531 0.37723 0.0
H310 H 0.43882 0.20818 0.22844 0.0
H311 H 0.48241 0.23183 0.30974 0.0
C312 C 0.02817 0.96916 0.73914 0.0
N313 N 0.99784 0.97188 0.61427 0.0
C314 C 0.00711 0.9573 0.60279 0.0
C315 C 0.99822 0.94394 0.57848 0.0
C316 C 0.97957 0.94554 0.56561 0.0
C317 C 0.97048 0.96097 0.57671 0.0
C318 C 0.97993 0.97404 0.6012 0.0
Zn319 Zn 0.01084 0.98934 0.65708 0.0
C320 C 0.98581 0.99895 0.73866 0.0
N321 N 0.03854 0.02353 0.75145 0.0
C322 C 0.05624 0.02167 0.76655 0.0
C323 C 0.02866 0.03778 0.76266 0.0
C324 C 0.03652 0.05092 0.78957 0.0
C325 C 0.05478 0.04948 0.80553 0.0
C326 C 0.06469 0.03457 0.79379 0.0
Zn327 Zn 0.0259 0.00597 0.70824 0.0
O328 O 0.01896 0.968 0.70129 0.0
C329 C 0.05093 0.99623 0.6267 0.0
O330 O 0.03351 0.98422 0.75258 0.0
H331 H 0.01469 0.03915 0.74998 0.0
H332 H 0.02128 0.95574 0.61386 0.0
H333 H 0.06387 0.01026 0.75708 0.0
O334 O 0.0359 0.98836 0.61512 0.0
O335 O 0.05102 0.00471 0.66499 0.0
H336 H 0.9728 0.98572 0.61081 0.0
O337 O 0.01798 0.02728 0.66366 0.0
O338 O 0.0032 0.0111 0.61281 0.0
O339 O 0.00075 0.00695 0.75019 0.0
O340 O 0.98582 0.99048 0.70043 0.0
C341 C 0.00877 0.02615 0.62579 0.0
H342 H 0.00572 0.9322 0.57143 0.0
H343 H 0.95618 0.96286 0.56699 0.0
H344 H 0.02847 0.06231 0.79683 0.0
H345 H 0.07876 0.03287 0.80564 0.0
C346 C 0.49595 0.98077 0.62739 0.0
N347 N 0.5112 0.0346 0.61966 0.0
C348 C 0.51005 0.03302 0.57149 0.0
C349 C 0.5058 0.04746 0.54178 0.0
C350 C 0.50298 0.06386 0.56154 0.0
C351 C 0.50456 0.06514 0.6114 0.0
C352 C 0.50856 0.05027 0.6399 0.0
Zn353 Zn 0.51657 0.01276 0.66187 0.0
C354 C 0.48831 0.00627 0.74247 0.0
N355 N 0.52682 0.96618 0.747 0.0
C356 C 0.52962 0.95042 0.72728 0.0
C357 C 0.52774 0.96796 0.79518 0.0
C358 C 0.53198 0.95367 0.82541 0.0
C359 C 0.53495 0.93729 0.80605 0.0
C360 C 0.53356 0.93567 0.7564 0.0
Zn361 Zn 0.52151 0.98797 0.70453 0.0
O362 O 0.4989 0.99726 0.62019 0.0
C363 C 0.54965 0.99432 0.62366 0.0
O364 O 0.50394 0.97274 0.6614 0.0
H365 H 0.52525 0.98052 0.8103 0.0
H366 H 0.51226 0.02047 0.55599 0.0
H367 H 0.52891 0.9493 0.6889 0.0
O368 O 0.53977 0.00763 0.61613 0.0
O369 O 0.54523 0.98355 0.65882 0.0
H370 H 0.50952 0.05126 0.67827 0.0
O371 O 0.53876 0.00363 0.74721 0.0
O372 O 0.53456 0.02787 0.70396 0.0
O373 O 0.49787 0.99269 0.74894 0.0
O374 O 0.49319 0.01749 0.70872 0.0
C375 C 0.54211 0.02002 0.73898 0.0
H376 H 0.50445 0.04565 0.50381 0.0
H377 H 0.50287 0.07751 0.62837 0.0
H378 H 0.53274 0.95535 0.86363 0.0
H379 H 0.53585 0.92323 0.74022 0.0
C380 C 0.5227 0.47845 0.6142 0.0
N381 N 0.47917 0.51153 0.64607 0.0
C382 C 0.48045 0.51663 0.59867 0.0
C383 C 0.4646 0.52133 0.57439 0.0
C384 C 0.44715 0.52063 0.59884 0.0
C385 C 0.44615 0.51528 0.64773 0.0
C386 C 0.46246 0.51085 0.67088 0.0
Zn387 Zn 0.50325 0.50416 0.67745 0.0
C388 C 0.49862 0.47154 0.73821 0.0
N389 N 0.55493 0.48826 0.7336 0.0
C390 C 0.57164 0.48808 0.709 0.0
C391 C 0.55355 0.4843 0.78163 0.0
C392 C 0.56933 0.48029 0.80704 0.0
C393 C 0.58684 0.48038 0.78302 0.0
C394 C 0.58788 0.48409 0.73316 0.0
Zn395 Zn 0.53092 0.49557 0.70177 0.0
O396 O 0.5085 0.48774 0.61977 0.0
C397 C 0.53574 0.52801 0.64059 0.0
O398 O 0.53557 0.479 0.64438 0.0
H399 H 0.54017 0.4845 0.80061 0.0
H400 H 0.49378 0.51684 0.57934 0.0
H401 H 0.57244 0.49133 0.67084 0.0
O402 O 0.5181 0.52561 0.64064 0.0
O403 O 0.54544 0.51696 0.66321 0.0
H404 H 0.46176 0.50674 0.70852 0.0
O405 O 0.52572 0.51232 0.75919 0.0
O406 O 0.49847 0.52058 0.73482 0.0
O407 O 0.5162 0.47424 0.73864 0.0
O408 O 0.48877 0.48249 0.71567 0.0
C409 C 0.51142 0.52148 0.76468 0.0
H410 H 0.46594 0.5251 0.5365 0.0
H411 H 0.43294 0.51464 0.66785 0.0
H412 H 0.5678 0.47718 0.84525 0.0
H413 H 0.60114 0.48437 0.71331 0.0
C414 C 0.03349 0.5253 0.61429 0.0
N415 N 0.03546 0.47016 0.62444 0.0
C416 C 0.03497 0.47175 0.57577 0.0
C417 C 0.04212 0.45874 0.54754 0.0
C418 C 0.04955 0.44367 0.56942 0.0
C419 C 0.04978 0.44236 0.61986 0.0
C420 C 0.04277 0.45586 0.64673 0.0
Zn421 Zn 0.0247 0.48975 0.66369 0.0
C422 C 0.05131 0.50415 0.73152 0.0
N423 N 0.00175 0.53156 0.74079 0.0
C424 C 0.99238 0.54483 0.71938 0.0
C425 C 0.00421 0.53084 0.78894 0.0
C426 C 0.9972 0.54379 0.81753 0.0
C427 C 0.98755 0.55771 0.79651 0.0
C428 C 0.98511 0.55809 0.74671 0.0
Zn429 Zn 0.0125 0.51205 0.7014 0.0
O430 O 0.03605 0.50891 0.61234 0.0
C431 C 0.98609 0.49785 0.63268 0.0
O432 O 0.02362 0.53083 0.6487 0.0
H433 H 0.01163 0.52015 0.80532 0.0
H434 H 0.02901 0.48315 0.55863 0.0
H435 H 0.9906 0.54516 0.68104 0.0
O436 O 0.99972 0.48798 0.62545 0.0
O437 O 0.98737 0.50952 0.66371 0.0
H438 H 0.04304 0.45484 0.68546 0.0
O439 O 0.00162 0.49305 0.75362 0.0
O440 O 0.01309 0.47098 0.716 0.0
O441 O 0.03784 0.51427 0.73793 0.0
O442 O 0.04966 0.4919 0.70226 0.0
C443 C 0.00374 0.47661 0.75119 0.0
H444 H 0.04192 0.46062 0.5089 0.0
H445 H 0.05506 0.43092 0.6386 0.0
H446 H 0.99916 0.5428 0.85583 0.0
H447 H 0.97793 0.56867 0.72893 0.0
C448 C 0.19211 0.01103 0.36185 0.0
C449 C 0.19369 0.99777 0.32869 0.0
C450 C 0.17647 0.01129 0.39318 0.0
C451 C 0.13792 0.98186 0.44656 0.0
H452 H 0.11773 0.02557 0.48693 0.0
C453 C 0.06838 0.98461 0.55638 0.0
C454 C 0.06785 0.99599 0.59466 0.0
C455 C 0.08389 0.98486 0.5246 0.0
C456 C 0.12334 0.01326 0.47634 0.0
H457 H 0.17973 0.97483 0.30097 0.0
H458 H 0.15222 0.9755 0.35464 0.0
H459 H 0.14377 0.02636 0.42814 0.0
H460 H 0.08331 0.01651 0.62966 0.0
H461 H 0.11042 0.017 0.57383 0.0
H462 H 0.11726 0.96879 0.49426 0.0
C463 C 0.16329 0.98545 0.35751 0.0
C464 C 0.13829 0.01369 0.44263 0.0
C465 C 0.179 0.98511 0.32649 0.0
C466 C 0.08329 0.00755 0.60063 0.0
C467 C 0.09875 0.00792 0.56847 0.0
C468 C 0.12289 0.98143 0.47992 0.0
C469 C 0.16195 0.99835 0.39192 0.0
C470 C 0.14579 0.99799 0.42725 0.0
C471 C 0.09919 0.9966 0.53001 0.0
C472 C 0.11542 0.99712 0.49521 0.0
H473 H 0.20332 0.02082 0.36494 0.0
H474 H 0.17611 0.0213 0.41951 0.0
H475 H 0.14354 0.96949 0.43652 0.0
H476 H 0.05673 0.97555 0.5507 0.0
H477 H 0.08371 0.97609 0.49512 0.0
C478 C 0.45972 0.20013 0.34909 0.0
C479 C 0.46328 0.20115 0.29935 0.0
C480 C 0.46318 0.18479 0.37607 0.0
C481 C 0.47354 0.13734 0.3663 0.0
H482 H 0.49188 0.1432 0.49397 0.0
C483 C 0.50563 0.08175 0.48305 0.0
C484 C 0.49825 0.07943 0.53046 0.0
C485 C 0.50098 0.09622 0.45379 0.0
C486 C 0.48667 0.14138 0.45849 0.0
H487 H 0.47296 0.1871 0.23832 0.0
H488 H 0.47978 0.16035 0.28559 0.0
H489 H 0.48465 0.169 0.44442 0.0
H490 H 0.47989 0.0906 0.58358 0.0
H491 H 0.47249 0.11616 0.53306 0.0
H492 H 0.4763 0.10961 0.38038 0.0
C493 C 0.47384 0.17119 0.30385 0.0
C494 C 0.48239 0.15615 0.43008 0.0
C495 C 0.47003 0.18649 0.2767 0.0
C496 C 0.4862 0.09206 0.54777 0.0
C497 C 0.48182 0.10667 0.51875 0.0
C498 C 0.47814 0.12256 0.39452 0.0
C499 C 0.47067 0.17021 0.35406 0.0
C500 C 0.47557 0.15435 0.38374 0.0
C501 C 0.48913 0.10886 0.47148 0.0
C502 C 0.48459 0.12446 0.44102 0.0
H503 H 0.45436 0.21128 0.36715 0.0
H504 H 0.46003 0.18444 0.41431 0.0
H505 H 0.46811 0.13536 0.33115 0.0
H506 H 0.51523 0.07255 0.4686 0.0
H507 H 0.50697 0.09773 0.41761 0.0
C508 C 0.31023 0.53727 0.34954 0.0
C509 C 0.31114 0.55291 0.32065 0.0
C510 C 0.32431 0.53364 0.3816 0.0
C511 C 0.36257 0.55572 0.44541 0.0
H512 H 0.37962 0.50829 0.46534 0.0
C513 C 0.43043 0.53996 0.54088 0.0
C514 C 0.43017 0.52509 0.57267 0.0
C515 C 0.41501 0.5435 0.5133 0.0
C516 C 0.37483 0.52156 0.46061 0.0
H517 H 0.32781 0.5767 0.30143 0.0
H518 H 0.35254 0.57024 0.3566 0.0
H519 H 0.35489 0.5139 0.40938 0.0
H520 H 0.41345 0.50243 0.60113 0.0
H521 H 0.3864 0.50863 0.5528 0.0
H522 H 0.3828 0.5634 0.49593 0.0
C523 C 0.34073 0.56098 0.35553 0.0
C524 C 0.36065 0.52479 0.42854 0.0
C525 C 0.32661 0.56465 0.32373 0.0
C526 C 0.41399 0.51404 0.57714 0.0
C527 C 0.3986 0.5175 0.54918 0.0
C528 C 0.37681 0.5525 0.47722 0.0
C529 C 0.33966 0.54552 0.38528 0.0
C530 C 0.35444 0.54194 0.42025 0.0
C531 C 0.39902 0.53218 0.51663 0.0
C532 C 0.38318 0.53541 0.48492 0.0
H533 H 0.29836 0.52808 0.3484 0.0
H534 H 0.32291 0.52172 0.40434 0.0
H535 H 0.35786 0.56902 0.44075 0.0
H536 H 0.44266 0.54878 0.53697 0.0
H537 H 0.41582 0.55483 0.48831 0.0
C538 C 0.09857 0.32895 0.29938 0.0
C539 C 0.10842 0.3156 0.3228 0.0
C540 C 0.0932 0.3437 0.32372 0.0
C541 C 0.10354 0.37085 0.42466 0.0
H542 H 0.05067 0.37984 0.42845 0.0
C543 C 0.07214 0.41972 0.5545 0.0
C544 C 0.05687 0.42944 0.53978 0.0
C545 C 0.07888 0.40634 0.52673 0.0
C546 C 0.06553 0.3778 0.42714 0.0
H547 H 0.12057 0.30772 0.39044 0.0
H548 H 0.11189 0.3338 0.43178 0.0
H549 H 0.06227 0.35641 0.3804 0.0
H550 H 0.03668 0.43241 0.48396 0.0
H551 H 0.04909 0.40999 0.43447 0.0
H552 H 0.10702 0.39244 0.47029 0.0
C553 C 0.10829 0.3327 0.39462 0.0
C554 C 0.07214 0.3643 0.3997 0.0
C555 C 0.11336 0.3178 0.37066 0.0
C556 C 0.04865 0.42548 0.49629 0.0
C557 C 0.05559 0.41232 0.46815 0.0
C558 C 0.097 0.38458 0.45144 0.0
C559 C 0.09788 0.34562 0.37166 0.0
C560 C 0.09116 0.36061 0.39854 0.0
C561 C 0.07074 0.40248 0.48305 0.0
C562 C 0.07786 0.38816 0.45343 0.0
H563 H 0.09483 0.32796 0.26233 0.0
H564 H 0.08532 0.35361 0.30512 0.0
H565 H 0.11831 0.3683 0.42406 0.0
H566 H 0.07905 0.4225 0.58734 0.0
H567 H 0.09038 0.39892 0.53993 0.0
C568 C 0.85601 0.00626 0.03564 0.0
C569 C 0.84199 0.99287 0.03363 0.0
C570 C 0.87219 0.00619 0.00609 0.0
C571 C 0.88832 0.99055 0.8903 0.0
H572 H 0.93798 0.00163 0.93377 0.0
C573 C 0.95403 0.98657 0.76571 0.0
C574 C 0.96893 0.99879 0.77091 0.0
C575 C 0.9387 0.98564 0.79827 0.0
C576 C 0.92419 0.99878 0.92078 0.0
H577 H 0.8347 0.96829 0.00105 0.0
H578 H 0.86273 0.96839 0.94905 0.0
H579 H 0.91146 5e-05 0.99114 0.0
H580 H 0.97916 0.01998 0.8136 0.0
H581 H 0.95221 0.0188 0.86925 0.0
H582 H 0.9008 0.98971 0.81984 0.0
C583 C 0.86105 0.97906 0.97303 0.0
C584 C 0.909 0.99778 0.95381 0.0
C585 C 0.84498 0.97903 0.00284 0.0
C586 C 0.96796 0.01033 0.80874 0.0
C587 C 0.95255 0.00954 0.84096 0.0
C588 C 0.90344 0.99173 0.85718 0.0
C589 C 0.87466 0.99281 0.97363 0.0
C590 C 0.89091 0.99361 0.93894 0.0
C591 C 0.93779 0.99705 0.83656 0.0
C592 C 0.92161 0.99585 0.87192 0.0
H593 H 0.85413 0.01724 0.0584 0.0
H594 H 0.88239 0.01703 0.00718 0.0
H595 H 0.87449 0.98759 0.8776 0.0
H596 H 0.95441 0.97739 0.73718 0.0
H597 H 0.92778 0.97568 0.79398 0.0
C598 C 0.55636 0.80537 0.06483 0.0
C599 C 0.57407 0.8044 0.08461 0.0
C600 C 0.55187 0.82009 0.03642 0.0
C601 C 0.56276 0.86666 0.01019 0.0
H602 H 0.54578 0.85793 0.8827 0.0
C603 C 0.55398 0.92361 0.87017 0.0
C604 C 0.53956 0.92205 0.83769 0.0
C605 C 0.55823 0.90934 0.9006 0.0
C606 C 0.55016 0.86066 0.91841 0.0
H607 H 0.60074 0.8182 0.09162 0.0
H608 H 0.59266 0.84428 0.04286 0.0
H609 H 0.55243 0.83322 0.93717 0.0
H610 H 0.51809 0.90451 0.81179 0.0
H611 H 0.52489 0.87976 0.86613 0.0
H612 H 0.55995 0.89401 0.99248 0.0
C613 C 0.58237 0.83355 0.04908 0.0
C614 C 0.55407 0.84647 0.9495 0.0
C615 C 0.587 0.81867 0.07678 0.0
C616 C 0.52941 0.90597 0.83622 0.0
C617 C 0.53341 0.89177 0.86726 0.0
C618 C 0.55851 0.88086 0.97945 0.0
C619 C 0.56489 0.83424 0.02794 0.0
C620 C 0.56047 0.84934 0.99556 0.0
C621 C 0.54791 0.89324 0.89989 0.0
C622 C 0.55224 0.87808 0.93298 0.0
H623 H 0.54622 0.79446 0.06988 0.0
H624 H 0.53827 0.82036 0.0207 0.0
H625 H 0.56754 0.86918 0.04572 0.0
H626 H 0.56215 0.93585 0.8716 0.0
H627 H 0.56975 0.91093 0.92429 0.0
C628 C 0.70883 0.45106 0.06909 0.0
C629 C 0.7226 0.43955 0.05464 0.0
C630 C 0.69472 0.45577 0.03815 0.0
C631 C 0.6704 0.44161 0.93097 0.0
H632 H 0.65572 0.49011 0.92186 0.0
C633 C 0.61753 0.46587 0.79302 0.0
C634 C 0.6038 0.47686 0.81049 0.0
C635 C 0.63287 0.46182 0.82063 0.0
C636 C 0.65955 0.47648 0.92425 0.0
H637 H 0.73245 0.42418 0.99594 0.0
H638 H 0.70781 0.43229 0.94227 0.0
H639 H 0.6804 0.48177 0.97536 0.0
H640 H 0.59582 0.49281 0.86971 0.0
H641 H 0.62227 0.48553 0.91803 0.0
H642 H 0.64944 0.43629 0.88021 0.0
C643 C 0.70775 0.43748 0.97777 0.0
C644 C 0.67367 0.4717 0.95499 0.0
C645 C 0.72186 0.4328 0.00863 0.0
C646 C 0.60601 0.48409 0.8555 0.0
C647 C 0.62131 0.48008 0.88299 0.0
C648 C 0.65625 0.44639 0.90028 0.0
C649 C 0.69406 0.44906 0.99207 0.0
C650 C 0.67919 0.45419 0.95893 0.0
C651 C 0.63484 0.46876 0.86615 0.0
C652 C 0.65057 0.46386 0.89679 0.0
H653 H 0.70887 0.45633 0.10447 0.0
H654 H 0.68421 0.46452 0.05052 0.0
H655 H 0.67417 0.42796 0.93359 0.0
H656 H 0.61619 0.46004 0.75856 0.0
H657 H 0.64317 0.45321 0.8064 0.0
C658 C 0.94497 0.67411 0.06507 0.0
C659 C 0.92817 0.68224 0.05506 0.0
C660 C 0.95048 0.65966 0.03974 0.0
C661 C 0.93401 0.62504 0.96032 0.0
H662 H 0.98585 0.62689 0.9153 0.0
C663 C 0.9626 0.57857 0.81872 0.0
C664 C 0.98026 0.57176 0.82648 0.0
C665 C 0.95574 0.59163 0.84749 0.0
C666 C 0.97139 0.62604 0.92804 0.0
H667 H 0.90349 0.68093 0.01233 0.0
H668 H 0.91324 0.65582 0.9676 0.0
H669 H 0.97452 0.64975 0.96565 0.0
H670 H 0.00466 0.57355 0.87015 0.0
H671 H 0.99259 0.59602 0.92074 0.0
H672 H 0.93092 0.60131 0.92238 0.0
C673 C 0.92213 0.6606 0.99519 0.0
C674 C 0.96489 0.63914 0.95699 0.0
C675 C 0.91661 0.67508 0.02054 0.0
C676 C 0.99091 0.57835 0.86353 0.0
C677 C 0.98408 0.59139 0.89221 0.0
C678 C 0.94053 0.61189 0.93133 0.0
C679 C 0.93933 0.65299 0.00374 0.0
C680 C 0.94614 0.63878 0.9736 0.0
C681 C 0.96642 0.59821 0.88455 0.0
C682 C 0.95932 0.61222 0.91495 0.0
H683 H 0.95431 0.67936 0.09104 0.0
H684 H 0.96367 0.65392 0.04774 0.0
H685 H 0.91952 0.62431 0.97285 0.0
H686 H 0.95397 0.57367 0.79078 0.0
H687 H 0.94216 0.59672 0.84034 0.0
C688 C 0.06845 0.1607 0.43892 0.0
C689 C 0.07617 0.15984 0.39225 0.0
C690 C 0.0573 0.14668 0.45948 0.0
C691 C 0.04714 0.09908 0.44756 0.0
H692 H 0.00558 0.1071 0.53539 0.0
C693 C 0.00692 0.04094 0.54441 0.0
C694 C 0.00726 0.04211 0.59443 0.0
C695 C 0.01061 0.05597 0.51434 0.0
C696 C 0.01707 0.10468 0.51067 0.0
H697 H 0.0778 0.14396 0.32984 0.0
H698 H 0.05816 0.11965 0.36524 0.0
H699 H 0.02229 0.13216 0.49342 0.0
H700 H 0.00971 0.06001 0.65232 0.0
H701 H 0.01588 0.08618 0.60002 0.0
H702 H 0.04215 0.07166 0.4654 0.0
C703 C 0.06107 0.1309 0.3866 0.0
C704 C 0.02675 0.11902 0.48693 0.0
C705 C 0.07235 0.14482 0.3663 0.0
C706 C 0.00948 0.05874 0.61383 0.0
C707 C 0.01293 0.07374 0.58386 0.0
C708 C 0.03739 0.08477 0.47094 0.0
C709 C 0.05348 0.13159 0.43354 0.0
C710 C 0.04216 0.1164 0.45586 0.0
C711 C 0.01441 0.07239 0.5339 0.0
C712 C 0.0225 0.08743 0.50348 0.0
H713 H 0.07124 0.17212 0.45974 0.0
H714 H 0.05197 0.14754 0.49601 0.0
H715 H 0.05909 0.09653 0.42451 0.0
H716 H 0.00528 0.02828 0.52851 0.0
H717 H 0.01146 0.05461 0.47588 0.0
C718 C 0.36194 0.94796 0.38954 0.0
C719 C 0.35175 0.9628 0.39995 0.0
C720 C 0.37715 0.94347 0.41705 0.0
C721 C 0.40025 0.95129 0.53092 0.0
H722 H 0.4465 0.95094 0.45479 0.0
C723 C 0.47186 0.95663 0.61756 0.0
C724 C 0.48219 0.97154 0.59844 0.0
C725 C 0.45668 0.94979 0.59312 0.0
C726 C 0.43368 0.95071 0.47652 0.0
H727 H 0.34859 0.98394 0.44856 0.0
H728 H 0.37496 0.97599 0.49704 0.0
H729 H 0.41664 0.94936 0.41521 0.0
H730 H 0.48571 0.99019 0.53748 0.0
H731 H 0.45954 0.97809 0.49453 0.0
H732 H 0.41731 0.95362 0.59194 0.0
C733 C 0.37128 0.96784 0.4677 0.0
C734 C 0.4166 0.9497 0.45396 0.0
C735 C 0.35631 0.97248 0.43981 0.0
C736 C 0.47793 0.97873 0.55312 0.0
C737 C 0.46302 0.97173 0.52838 0.0
C738 C 0.41732 0.9521 0.55354 0.0
C739 C 0.38216 0.95358 0.45585 0.0
C740 C 0.39976 0.9507 0.48076 0.0
C741 C 0.4519 0.95755 0.54879 0.0
C742 C 0.43419 0.95253 0.52631 0.0
H743 H 0.35871 0.94038 0.35877 0.0
H744 H 0.38531 0.93242 0.40724 0.0
H745 H 0.38744 0.95197 0.55238 0.0
H746 H 0.47483 0.95087 0.65254 0.0
H747 H 0.44832 0.93883 0.60952 0.0
C748 C 0.46609 0.37395 0.33835 0.0
C749 C 0.46873 0.35608 0.34959 0.0
C750 C 0.47446 0.38693 0.36517 0.0
C751 C 0.50219 0.41198 0.40781 0.0
H752 H 0.50472 0.40566 0.546 0.0
C753 C 0.51159 0.46829 0.53628 0.0
C754 C 0.5228 0.46568 0.57608 0.0
C755 C 0.50863 0.45486 0.50474 0.0
C756 C 0.50442 0.40747 0.50732 0.0
H757 H 0.4821 0.3377 0.39761 0.0
H758 H 0.497 0.36035 0.44411 0.0
H759 H 0.49112 0.38215 0.50036 0.0
H760 H 0.54051 0.44737 0.6128 0.0
H761 H 0.53509 0.42369 0.55773 0.0
H762 H 0.51476 0.43766 0.41536 0.0
C763 C 0.48819 0.36438 0.41519 0.0
C764 C 0.49661 0.39401 0.48113 0.0
C765 C 0.47965 0.35139 0.38863 0.0
C766 C 0.53188 0.44975 0.58224 0.0
C767 C 0.52867 0.43618 0.55103 0.0
C768 C 0.50982 0.4255 0.43409 0.0
C769 C 0.48583 0.38232 0.40351 0.0
C770 C 0.49513 0.39621 0.43112 0.0
C771 C 0.51662 0.43848 0.51276 0.0
C772 C 0.51078 0.42346 0.48415 0.0
H773 H 0.45758 0.37789 0.3087 0.0
H774 H 0.47194 0.40058 0.35589 0.0
H775 H 0.50169 0.41397 0.36923 0.0
H776 H 0.50445 0.48047 0.53067 0.0
H777 H 0.49919 0.45695 0.47572 0.0
C778 C 0.15447 0.59546 0.37557 0.0
C779 C 0.15258 0.59876 0.32612 0.0
C780 C 0.13868 0.5936 0.40637 0.0
C781 C 0.10299 0.59233 0.46803 0.0
H782 H 0.06586 0.56134 0.41402 0.0
C783 C 0.044 0.55589 0.58493 0.0
C784 C 0.04275 0.53771 0.57789 0.0
C785 C 0.05432 0.56727 0.55231 0.0
C786 C 0.07603 0.57009 0.42957 0.0
H787 H 0.13295 0.60451 0.27077 0.0
H788 H 0.10535 0.60159 0.32468 0.0
H789 H 0.09031 0.5756 0.36201 0.0
H790 H 0.05068 0.51732 0.53019 0.0
H791 H 0.06859 0.53706 0.47368 0.0
H792 H 0.08929 0.58577 0.53623 0.0
C793 C 0.11897 0.59996 0.33952 0.0
C794 C 0.08994 0.57847 0.39966 0.0
C795 C 0.13476 0.60169 0.30868 0.0
C796 C 0.0514 0.53125 0.53675 0.0
C797 C 0.06155 0.5426 0.5041 0.0
C798 C 0.08904 0.58391 0.49803 0.0
C799 C 0.12069 0.59511 0.38834 0.0
C800 C 0.10398 0.58921 0.41875 0.0
C801 C 0.06338 0.56069 0.51183 0.0
C802 C 0.07584 0.57219 0.4793 0.0
H803 H 0.16801 0.59299 0.38997 0.0
H804 H 0.14055 0.58971 0.44363 0.0
H805 H 0.11344 0.60072 0.48376 0.0
H806 H 0.03747 0.56126 0.61633 0.0
H807 H 0.05541 0.58117 0.55903 0.0
C808 C 0.98425 0.83131 0.95262 0.0
C809 C 0.97801 0.83428 0.99974 0.0
C810 C 0.99377 0.84469 0.92463 0.0
C811 C 0.01953 0.88759 0.93012 0.0
H812 H 0.00155 0.89565 0.80196 0.0
C813 C 0.03042 0.9367 0.74782 0.0
C814 C 0.03058 0.95304 0.76916 0.0
C815 C 0.02851 0.92111 0.77605 0.0
C816 C 0.00711 0.89341 0.8372 0.0
H817 H 0.977 0.85363 0.05443 0.0
H818 H 0.99366 0.87692 0.00561 0.0
H819 H 0.98945 0.87036 0.85091 0.0
H820 H 0.03021 0.96598 0.83666 0.0
H821 H 0.02631 0.93873 0.88622 0.0
H822 H 0.03699 0.9109 0.91653 0.0
C823 C 0.99142 0.86416 0.99059 0.0
C824 C 1.00009 0.8789 0.86535 0.0
C825 C 0.98185 0.85081 0.01853 0.0
C826 C 0.03021 0.95353 0.81937 0.0
C827 C 0.02799 0.93789 0.84771 0.0
C828 C 0.02667 0.9021 0.90178 0.0
C829 C 0.99729 0.86131 0.94318 0.0
C830 C 0.00602 0.87595 0.91231 0.0
C831 C 0.02636 0.92154 0.82621 0.0
C832 C 0.02035 0.9053 0.85516 0.0
H833 H 0.9818 0.81863 0.93737 0.0
H834 H 0.99832 0.84205 0.88836 0.0
H835 H 0.0245 0.88552 0.96608 0.0
H836 H 0.03091 0.93598 0.70911 0.0
H837 H 0.02787 0.90874 0.75837 0.0
C838 C 0.67585 0.05945 0.97534 0.0
C839 C 0.68568 0.04384 0.97165 0.0
C840 C 0.66027 0.06241 0.94762 0.0
C841 C 0.63715 0.0499 0.83885 0.0
H842 H 0.59021 0.05252 0.911 0.0
C843 C 0.55967 0.02258 0.81398 0.0
C844 C 0.55581 0.02935 0.76791 0.0
C845 C 0.57439 0.0298 0.83903 0.0
C846 C 0.60324 0.05211 0.89034 0.0
H847 H 0.68664 0.01926 0.93496 0.0
H848 H 0.66022 0.0249 0.88546 0.0
H849 H 0.61975 0.0553 0.95221 0.0
H850 H 0.56374 0.04945 0.71266 0.0
H851 H 0.58996 0.06178 0.75614 0.0
H852 H 0.6207 0.04595 0.77739 0.0
C853 C 0.66462 0.03479 0.90987 0.0
C854 C 0.62009 0.05379 0.9138 0.0
C855 C 0.67989 0.03164 0.93819 0.0
C856 C 0.56639 0.04402 0.74821 0.0
C857 C 0.58139 0.05103 0.77293 0.0
C858 C 0.62034 0.04853 0.81526 0.0
C859 C 0.6545 0.05003 0.91489 0.0
C860 C 0.63714 0.05204 0.88853 0.0
C861 C 0.58573 0.04374 0.81813 0.0
C862 C 0.60323 0.04898 0.84114 0.0
H863 H 0.68004 0.06932 -3e-05 0.0
H864 H 0.65264 0.07428 0.95197 0.0
H865 H 0.65016 0.04852 0.8187 0.0
H866 H 0.55168 0.01132 0.83007 0.0
H867 H 0.57756 0.02381 0.87361 0.0
C868 C 0.56498 0.63337 0.02576 0.0
C869 C 0.56267 0.65091 0.0097 0.0
C870 C 0.55708 0.61944 0.00152 0.0
C871 C 0.53671 0.60862 0.88532 0.0
H872 H 0.51897 0.5662 0.95788 0.0
C873 C 0.5017 0.55033 0.79433 0.0
C874 C 0.51135 0.53476 0.80152 0.0
C875 C 0.50485 0.56449 0.82359 0.0
C876 C 0.5238 0.57802 0.9373 0.0
H877 H 0.55044 0.66743 0.95463 0.0
H878 H 0.53592 0.64323 0.91382 0.0
H879 H 0.53105 0.59137 0.00014 0.0
H880 H 0.53069 0.52124 0.84698 0.0
H881 H 0.53578 0.54582 0.89886 0.0
H882 H 0.52924 0.5952 0.82256 0.0
C883 C 0.54418 0.64019 0.94465 0.0
C884 C 0.53088 0.59238 0.96135 0.0
C885 C 0.55232 0.65413 0.9685 0.0
C886 C 0.52309 0.53311 0.84062 0.0
C887 C 0.52597 0.54714 0.87036 0.0
C888 C 0.52934 0.59436 0.86139 0.0
C889 C 0.54639 0.62266 0.96095 0.0
C890 C 0.53776 0.60776 0.93561 0.0
C891 C 0.5174 0.56315 0.86102 0.0
C892 C 0.5231 0.57884 0.8871 0.0
H893 H 0.57259 0.63032 0.05773 0.0
H894 H 0.55943 0.60613 0.01464 0.0
H895 H 0.54212 0.62007 0.86415 0.0
H896 H 0.49265 0.55199 0.76429 0.0
H897 H 0.498 0.57669 0.81594 0.0
C898 C 0.88465 0.39919 0.98151 0.0
C899 C 0.88454 0.39914 0.03189 0.0
C900 C 0.90134 0.40192 0.95451 0.0
C901 C 0.94701 0.42442 0.96712 0.0
H902 H 0.95384 0.41193 0.83478 0.0
C903 C 0.99543 0.44596 0.78463 0.0
C904 C 0.99467 0.4643 0.7882 0.0
C905 C 0.98564 0.43451 0.81816 0.0
C906 C 0.95243 0.41531 0.87195 0.0
H907 H 0.90225 0.40016 0.09336 0.0
H908 H 0.93138 0.40404 0.04636 0.0
H909 H 0.93032 0.39591 0.88654 0.0
H910 H 0.98352 0.48496 0.83056 0.0
H911 H 0.96634 0.46517 0.88804 0.0
H912 H 0.96903 0.44383 0.95256 0.0
C913 C 0.91847 0.40263 0.02762 0.0
C914 C 0.93876 0.40627 0.90151 0.0
C915 C 0.90173 0.40014 0.05465 0.0
C916 C 0.98442 0.47091 0.82668 0.0
C917 C 0.97468 0.45952 0.86001 0.0
C918 C 0.96077 0.43331 0.93777 0.0
C919 C 0.9184 0.40441 0.97724 0.0
C920 C 0.93536 0.4112 0.9489 0.0
C921 C 0.97498 0.44119 0.85595 0.0
C922 C 0.96309 0.4294 0.88928 0.0
H923 H 0.87171 0.39802 0.96279 0.0
H924 H 0.90063 0.40323 0.91586 0.0
H925 H 0.94482 0.42873 0.00322 0.0
H926 H 0.00327 0.44046 0.75545 0.0
H927 H 0.98628 0.42046 0.81425 0.0
C928 C 0.09417 0.17955 0.02449 0.0
C929 C 0.11298 0.18532 0.02617 0.0
C930 C 0.08909 0.16508 0.99819 0.0
C931 C 0.1033 0.13661 0.9023 0.0
H932 H 0.07188 0.10145 0.97456 0.0
C933 C 0.082 0.06962 0.82453 0.0
C934 C 0.06332 0.06372 0.83342 0.0
C935 C 0.08944 0.08395 0.84839 0.0
C936 C 0.08048 0.11118 0.9536 0.0
H937 H 0.14109 0.18105 0.99927 0.0
H938 H 0.13211 0.15574 0.95262 0.0
H939 H 0.0817 0.12833 0.01211 0.0
H940 H 0.03808 0.06781 0.87588 0.0
H941 H 0.05075 0.09296 0.91605 0.0
H942 H 0.10167 0.11966 0.84328 0.0
C943 C 0.12136 0.16243 0.972 0.0
C944 C 0.08612 0.12658 0.9752 0.0
C945 C 0.12649 0.17686 0.99877 0.0
C946 C 0.05244 0.07216 0.8676 0.0
C947 C 0.05981 0.08648 0.89117 0.0
C948 C 0.09747 0.12124 0.88041 0.0
C949 C 0.10268 0.1561 0.97271 0.0
C950 C 0.09738 0.13955 0.94962 0.0
C951 C 0.07836 0.09267 0.88165 0.0
C952 C 0.08577 0.10843 0.90564 0.0
H953 H 0.08344 0.1856 0.04565 0.0
H954 H 0.07455 0.1606 0.99885 0.0
H955 H 0.11198 0.14643 0.88179 0.0
H956 H 0.09073 0.0635 0.79818 0.0
H957 H 0.10385 0.08822 0.84062 0.0
C958 C 0.34656 0.99684 0.99834 0.0
C959 C 0.33904 0.01254 0.01332 0.0
C960 C 0.36156 0.99721 0.96496 0.0
C961 C 0.40034 0.02693 0.91363 0.0
H962 H 0.40681 0.98881 0.82783 0.0
C963 C 0.46193 0.02436 0.77196 0.0
C964 C 0.47111 0.00834 0.77241 0.0
C965 C 0.44528 0.02588 0.79906 0.0
C966 C 0.4052 0.99953 0.85169 0.0
H967 H 0.3409 0.04095 0.00352 0.0
H968 H 0.36673 0.04164 0.94394 0.0
H969 H 0.37807 0.98981 0.87657 0.0
H970 H 0.46997 0.9814 0.80177 0.0
H971 H 0.4409 0.98404 0.84822 0.0
H972 H 0.42751 0.0367 0.88785 0.0
C973 C 0.36138 0.02901 0.95898 0.0
C974 C 0.38875 8e-05 0.87986 0.0
C975 C 0.34648 0.02863 0.99288 0.0
C976 C 0.46331 0.99395 0.80064 0.0
C977 C 0.44658 0.9954 0.82703 0.0
C978 C 0.41671 0.0265 0.88488 0.0
C979 C 0.36936 0.0133 0.94515 0.0
C980 C 0.38621 0.0136 0.91196 0.0
C981 C 0.43734 0.01134 0.82641 0.0
C982 C 0.41944 0.01262 0.85427 0.0
H983 H 0.34139 0.98423 0.01408 0.0
H984 H 0.36747 0.98483 0.95615 0.0
H985 H 0.39909 0.03743 0.9383 0.0
H986 H 0.46757 0.03569 0.75059 0.0
H987 H 0.43842 0.03832 0.79786 0.0
C988 C 0.45189 0.32801 0.93142 0.0
C989 C 0.43942 0.32937 0.97105 0.0
C990 C 0.45614 0.34255 0.89997 0.0
C991 C 0.44214 0.38563 0.85469 0.0
H992 H 0.49469 0.39928 0.85829 0.0
C993 C 0.47174 0.45398 0.77938 0.0
C994 C 0.49023 0.45508 0.76097 0.0
C995 C 0.46436 0.43825 0.80186 0.0
C996 C 0.48004 0.39557 0.85572 0.0
H997 H 0.42074 0.34706 0.00619 0.0
H998 H 0.42758 0.37198 0.94999 0.0
H999 H 0.48318 0.37184 0.89833 0.0
H1000 H 0.51516 0.44041 0.74911 0.0
H1001 H 0.50216 0.41295 0.78542 0.0
H1002 H 0.43899 0.40912 0.81103 0.0
C1003 C 0.43417 0.35967 0.94386 0.0
C1004 C 0.47347 0.37983 0.87898 0.0
C1005 C 0.43019 0.34526 0.97592 0.0
C1006 C 0.50097 0.44006 0.76392 0.0
C1007 C 0.4935 0.4243 0.78513 0.0
C1008 C 0.44879 0.40126 0.83035 0.0
C1009 C 0.44767 0.35863 0.90672 0.0
C1010 C 0.45448 0.37475 0.87888 0.0
C1011 C 0.47521 0.42319 0.80532 0.0
C1012 C 0.46787 0.40649 0.83066 0.0
H1013 H 0.45893 0.31592 0.92562 0.0
H1014 H 0.46649 0.34142 0.8712 0.0
H1015 H 0.42739 0.38197 0.85434 0.0
H1016 H 0.46316 0.46539 0.77747 0.0
H1017 H 0.45031 0.43805 0.81735 0.0
C1018 C 0.19762 0.53094 0.94205 0.0
C1019 C 0.19601 0.54701 0.96461 0.0
C1020 C 0.18423 0.52545 0.90986 0.0
C1021 C 0.14543 0.54183 0.83703 0.0
H1022 H 0.12491 0.49397 0.85394 0.0
C1023 C 0.07168 0.52271 0.78151 0.0
C1024 C 0.06906 0.50739 0.7559 0.0
C1025 C 0.08872 0.52656 0.80207 0.0
C1026 C 0.13068 0.50729 0.84833 0.0
H1027 H 0.17891 0.56979 0.97093 0.0
H1028 H 0.15593 0.56037 0.9151 0.0
H1029 H 0.15267 0.50277 0.89697 0.0
H1030 H 0.08219 0.48384 0.73284 0.0
H1031 H 0.11205 0.4905 0.76972 0.0
H1032 H 0.12305 0.54654 0.78991 0.0
C1033 C 0.16768 0.55214 0.92131 0.0
C1034 C 0.14661 0.51233 0.87281 0.0
C1035 C 0.18096 0.55758 0.95338 0.0
C1036 C 0.08378 0.49576 0.75231 0.0
C1037 C 0.10084 0.49954 0.77343 0.0
C1038 C 0.12949 0.53684 0.81291 0.0
C1039 C 0.169 0.53593 0.89952 0.0
C1040 C 0.15386 0.5298 0.86841 0.0
C1041 C 0.10354 0.51512 0.79791 0.0
C1042 C 0.12167 0.51966 0.81926 0.0
H1043 H 0.20911 0.52253 0.94964 0.0
H1044 H 0.18573 0.51296 0.89333 0.0
H1045 H 0.1509 0.55528 0.83197 0.0
H1046 H 0.06064 0.53195 0.78507 0.0
H1047 H 0.0903 0.53851 0.82143 0.0
C1048 C 0.90671 0.82959 0.34304 0.0
C1049 C 0.91068 0.81216 0.35702 0.0
C1050 C 0.9109 0.84341 0.37257 0.0
C1051 C 0.9447 0.85484 0.46158 0.0
H1052 H 0.91623 0.89693 0.47148 0.0
C1053 C 0.97893 0.92092 0.50867 0.0
C1054 C 0.96957 0.93082 0.54265 0.0
C1055 C 0.97009 0.90623 0.48987 0.0
C1056 C 0.92426 0.88521 0.46941 0.0
H1057 H 0.92084 0.79554 0.4149 0.0
H1058 H 0.92835 0.81978 0.46631 0.0
H1059 H 0.90233 0.87102 0.43551 0.0
H1060 H 0.94339 0.93313 0.58278 0.0
H1061 H 0.92785 0.90759 0.54919 0.0
H1062 H 0.96672 0.86906 0.49472 0.0
C1063 C 0.92219 0.8227 0.43209 0.0
C1064 C 0.91636 0.87042 0.4486 0.0
C1065 C 0.91789 0.80882 0.40264 0.0
C1066 C 0.95094 0.92595 0.55625 0.0
C1067 C 0.94205 0.91127 0.53718 0.0
C1068 C 0.95263 0.86964 0.48204 0.0
C1069 C 0.91926 0.84019 0.41671 0.0
C1070 C 0.9266 0.85516 0.44384 0.0
C1071 C 0.95164 0.90111 0.50435 0.0
C1072 C 0.94263 0.88508 0.48545 0.0
H1073 H 0.90147 0.83278 0.30791 0.0
H1074 H 0.90865 0.85674 0.35938 0.0
H1075 H 0.95306 0.84339 0.45797 0.0
H1076 H 0.99314 0.92449 0.49664 0.0
H1077 H 0.97771 0.89888 0.46383 0.0
C1078 C 0.69817 0.99911 0.39499 0.0
C1079 C 0.69878 0.98992 0.35241 0.0
C1080 C 0.6826 0.99719 0.42674 0.0
C1081 C 0.65049 0.98504 0.49751 0.0
H1082 H 0.6027 0.98789 0.4371 0.0
C1083 C 0.57947 0.97917 0.60516 0.0
C1084 C 0.56646 0.99181 0.59257 0.0
C1085 C 0.59573 0.97746 0.57675 0.0
C1086 C 0.61593 0.98709 0.45454 0.0
H1087 H 0.6837 0.97107 0.31067 0.0
H1088 H 0.65666 0.96761 0.3662 0.0
H1089 H 0.63128 0.9872 0.38743 0.0
H1090 H 0.56025 0.01238 0.53977 0.0
H1091 H 0.58846 0.00929 0.49022 0.0
H1092 H 0.63507 0.98527 0.56468 0.0
C1093 C 0.66818 0.97639 0.37488 0.0
C1094 C 0.6323 0.98651 0.42608 0.0
C1095 C 0.68379 0.97822 0.34334 0.0
C1096 C 0.56995 0.00249 0.55055 0.0
C1097 C 0.58609 0.00067 0.52197 0.0
C1098 C 0.63407 0.98546 0.52603 0.0
C1099 C 0.66722 0.98614 0.41643 0.0
C1100 C 0.6498 0.98564 0.44717 0.0
C1101 C 0.59923 0.98822 0.53485 0.0
C1102 C 0.61661 0.98671 0.50483 0.0
H1103 H 0.70954 0.00814 0.40317 0.0
H1104 H 0.68228 0.00494 0.45831 0.0
H1105 H 0.66374 0.98427 0.51485 0.0
H1106 H 0.57723 0.97075 0.63734 0.0
H1107 H 0.60552 0.96765 0.58741 0.0
C1108 C 0.60202 0.65341 0.39081 0.0
C1109 C 0.5897 0.66736 0.39152 0.0
C1110 C 0.59965 0.63904 0.42379 0.0
C1111 C 0.57259 0.62274 0.53549 0.0
H1112 H 0.57963 0.57708 0.4827 0.0
C1113 C 0.53386 0.55877 0.60683 0.0
C1114 C 0.54457 0.54398 0.61598 0.0
C1115 C 0.54197 0.57404 0.58418 0.0
C1116 C 0.57786 0.58975 0.49812 0.0
H1117 H 0.56594 0.67755 0.42997 0.0
H1118 H 0.56119 0.65225 0.48554 0.0
H1119 H 0.58928 0.60372 0.43514 0.0
H1120 H 0.57218 0.53355 0.60835 0.0
H1121 H 0.58627 0.56025 0.56689 0.0
H1122 H 0.56007 0.60856 0.5973 0.0
C1123 C 0.57295 0.65245 0.46012 0.0
C1124 C 0.58346 0.60506 0.47102 0.0
C1125 C 0.5755 0.66692 0.42762 0.0
C1126 C 0.5636 0.54476 0.60177 0.0
C1127 C 0.57164 0.55998 0.57808 0.0
C1128 C 0.56669 0.60742 0.56217 0.0
C1129 C 0.58473 0.6381 0.458 0.0
C1130 C 0.58061 0.6218 0.48897 0.0
C1131 C 0.56089 0.57477 0.56935 0.0
C1132 C 0.56901 0.59082 0.5434 0.0
H1133 H 0.61304 0.65312 0.3634 0.0
H1134 H 0.60927 0.62846 0.42161 0.0
H1135 H 0.57056 0.63531 0.5511 0.0
H1136 H 0.51919 0.55861 0.61759 0.0
H1137 H 0.53334 0.58521 0.57741 0.0
C1138 C 0.84745 0.45108 0.42842 0.0
C1139 C 0.84435 0.45934 0.38347 0.0
C1140 C 0.86073 0.45814 0.4585 0.0
C1141 C 0.88606 0.47939 0.52274 0.0
H1142 H 0.93337 0.49171 0.45576 0.0
C1143 C 0.95249 0.50401 0.61814 0.0
C1144 C 0.96893 0.4956 0.60518 0.0
C1145 C 0.93625 0.50147 0.5924 0.0
C1146 C 0.92024 0.48835 0.47496 0.0
H1147 H 0.85214 0.48198 0.33597 0.0
H1148 H 0.87507 0.49439 0.3887 0.0
H1149 H 0.90605 0.48434 0.41004 0.0
H1150 H 0.98124 0.47808 0.55481 0.0
H1151 H 0.95304 0.4738 0.50992 0.0
H1152 H 0.90054 0.48296 0.58781 0.0
C1153 C 0.86737 0.48236 0.40046 0.0
C1154 C 0.90453 0.48431 0.44878 0.0
C1155 C 0.85406 0.47534 0.37049 0.0
C1156 C 0.96883 0.48476 0.56577 0.0
C1157 C 0.9527 0.48238 0.53983 0.0
C1158 C 0.90179 0.48358 0.54899 0.0
C1159 C 0.87124 0.47357 0.44415 0.0
C1160 C 0.88732 0.47952 0.47234 0.0
C1161 C 0.93623 0.49067 0.55288 0.0
C1162 C 0.91912 0.48778 0.52534 0.0
H1163 H 0.84005 0.43883 0.43966 0.0
H1164 H 0.86343 0.45101 0.49185 0.0
H1165 H 0.87296 0.47584 0.54186 0.0
H1166 H 0.95212 0.51242 0.64839 0.0
H1167 H 0.92377 0.50808 0.60309 0.0
loop_
_geom_bond_atom_site_label_1
_geom_bond_atom_site_label_2
_geom_bond_distance
_geom_bond_site_symmetry_2
_ccdc_geom_bond_type
C0 C1 1.386 . S
C0 C2 1.387 1_556 S
C0 H24 0.931 . S
C1 C0 1.386 . S
C1 C5 1.397 1_556 S
C2 C0 1.387 1_554 S
C2 C3 1.397 . S
C2 H25 0.928 1_554 S
C3 C2 1.397 . S
C3 C4 1.377 . S
C3 C6 1.481 . S
C4 C3 1.377 . S
C4 C5 1.389 . S
C4 H26 0.929 . S
C5 C1 1.397 1_554 S
C5 C4 1.389 . S
C5 H27 0.931 . S
C6 C3 1.481 . S
C6 C7 1.387 . S
C6 C11 1.390 . S
C7 C6 1.387 . S
C7 C8 1.401 . S
C7 H28 0.930 . S
C8 C7 1.401 . S
C8 C9 1.376 . S
C8 C17 1.511 . S
C9 C8 1.376 . S
C9 C10 1.392 . S
C9 H30 0.931 . S
C10 C9 1.392 . S
C10 C11 1.361 . S
C10 C12 1.500 . S
C11 C6 1.390 . S
C11 C10 1.361 . S
C11 H29 0.931 . S
C12 C10 1.500 . S
C12 C13 1.371 . S
C12 C14 1.365 . S
C13 C12 1.371 . S
C13 C23 1.386 . S
C13 H31 0.931 . S
C14 C12 1.365 . S
C14 C15 1.409 . S
C14 H32 0.929 . S
C15 C14 1.409 . S
C15 C16 1.380 . S
C15 H33 0.930 . S
C16 C15 1.380 . S
C16 C23 1.357 . S
C17 C8 1.511 . S
C17 C18 1.341 . S
C17 C19 1.371 . S
C18 C17 1.341 . S
C18 C22 1.394 . S
C18 H34 0.930 . S
C19 C17 1.371 . S
C19 C20 1.392 . S
C19 H35 0.931 . S
C20 C19 1.392 . S
C20 C21 1.331 . S
C20 H38 0.932 . S
C21 C20 1.331 . S
C21 C22 1.336 . S
C22 C18 1.394 . S
C22 C21 1.336 . S
C22 H37 0.929 . S
C23 C13 1.386 . S
C23 C16 1.357 . S
C23 H36 0.928 . S
H24 C0 0.931 . S
H25 C2 0.928 1_556 S
H26 C4 0.929 . S
H27 C5 0.931 . S
H28 C7 0.930 . S
H29 C11 0.931 . S
H30 C9 0.931 . S
H31 C13 0.931 . S
H32 C14 0.929 . S
H33 C15 0.930 . S
H34 C18 0.930 . S
H35 C19 0.931 . S
H36 C23 0.928 . S
H37 C22 0.929 . S
H38 C20 0.932 . S
C39 C40 1.386 . S
C39 C41 1.397 . S
C39 H63 0.931 . S
C40 C39 1.386 . S
C40 C44 1.397 . S
C41 C39 1.397 . S
C41 C42 1.384 . S
C41 H64 0.930 . S
C42 C41 1.384 . S
C42 C43 1.377 . S
C42 C45 1.481 . S
C43 C42 1.377 . S
C43 C44 1.389 . S
C43 H65 0.929 . S
C44 C40 1.397 . S
C44 C43 1.389 . S
C44 H66 0.931 . S
C45 C42 1.481 . S
C45 C46 1.387 . S
C45 C50 1.390 1_556 S
C46 C45 1.387 . S
C46 C47 1.401 . S
C46 H67 0.930 . S
C47 C46 1.401 . S
C47 C48 1.376 1_556 S
C47 C56 1.511 . S
C48 C47 1.376 1_554 S
C48 C49 1.392 . S
C48 H69 0.931 . S
C49 C48 1.392 . S
C49 C50 1.361 . S
C49 C51 1.500 . S
C50 C45 1.390 1_554 S
C50 C49 1.361 . S
C50 H68 0.931 . S
C51 C49 1.500 . S
C51 C52 1.371 . S
C51 C53 1.365 . S
C52 C51 1.371 . S
C52 C62 1.386 . S
C52 H70 0.931 . S
C53 C51 1.365 . S
C53 C54 1.409 . S
C53 H71 0.929 . S
C54 C53 1.409 . S
C54 C55 1.380 . S
C54 H72 0.930 . S
C55 C54 1.380 . S
C55 C62 1.357 . S
C56 C47 1.511 . S
C56 C57 1.341 . S
C56 C58 1.371 1_556 S
C57 C56 1.341 . S
C57 C61 1.394 . S
C57 H73 0.930 . S
C58 C56 1.371 1_554 S
C58 C59 1.399 . S
C58 H74 0.931 . S
C59 C58 1.399 . S
C59 C60 1.311 1_554 S
C59 H77 0.946 . S
C60 C59 1.311 1_556 S
C60 C61 1.336 . S
C61 C57 1.394 . S
C61 C60 1.336 . S
C61 H76 0.929 . S
C62 C52 1.386 . S
C62 C55 1.357 . S
C62 H75 0.928 . S
H63 C39 0.931 . S
H64 C41 0.930 . S
H65 C43 0.929 . S
H66 C44 0.931 . S
H67 C46 0.930 . S
H68 C50 0.931 . S
H69 C48 0.931 . S
H70 C52 0.931 . S
H71 C53 0.929 . S
H72 C54 0.930 . S
H73 C57 0.930 . S
H74 C58 0.931 . S
H75 C62 0.928 . S
H76 C61 0.929 . S
H77 C59 0.946 . S
C78 C79 1.395 . S
C78 C80 1.397 . S
C78 H102 0.931 . S
C79 C78 1.395 . S
C79 C83 1.388 1_565 S
C80 C78 1.397 . S
C80 C81 1.389 . S
C80 H103 0.930 . S
C81 C80 1.389 . S
C81 C82 1.372 1_566 S
C81 C84 1.481 1_556 S
C82 C81 1.372 1_544 S
C82 C83 1.389 1_554 S
C82 H104 0.929 . S
C83 C79 1.388 1_545 S
C83 C82 1.389 1_556 S
C83 H105 0.931 . S
C84 C81 1.481 1_554 S
C84 C85 1.390 . S
C84 C89 1.389 . S
C85 C84 1.390 . S
C85 C86 1.402 . S
C85 H106 0.930 1_554 S
C86 C85 1.402 . S
C86 C87 1.377 . S
C86 C95 1.514 . S
C87 C86 1.377 . S
C87 C88 1.389 . S
C87 H108 0.934 . S
C88 C87 1.389 . S
C88 C89 1.361 . S
C88 C90 1.498 1_565 S
C89 C84 1.389 . S
C89 C88 1.361 . S
C89 H107 0.931 . S
C90 C88 1.498 1_545 S
C90 C91 1.364 1_545 S
C90 C92 1.374 . S
C91 C90 1.364 1_565 S
C91 C101 1.386 . S
C91 H109 0.931 . S
C92 C90 1.374 . S
C92 C93 1.409 . S
C92 H110 0.929 . S
C93 C92 1.409 . S
C93 C94 1.378 . S
C93 H111 0.930 . S
C94 C93 1.378 . S
C94 C101 1.360 1_545 S
C95 C86 1.514 . S
C95 C96 1.341 . S
C95 C97 1.371 1_565 S
C96 C95 1.341 . S
C96 C100 1.394 1_554 S
C96 H112 0.930 1_554 S
C97 C95 1.371 1_545 S
C97 C98 1.392 . S
C97 H113 0.931 . S
C98 C97 1.392 . S
C98 C99 1.321 1_545 S
C98 H116 0.932 . S
C99 C98 1.321 1_565 S
C99 C100 1.345 1_554 S
C100 C96 1.394 1_556 S
C100 C99 1.345 1_556 S
C100 H115 0.929 . S
C101 C91 1.386 . S
C101 C94 1.360 1_565 S
C101 H114 0.928 . S
H102 C78 0.931 . S
H103 C80 0.930 . S
H104 C82 0.929 . S
H105 C83 0.931 . S
H106 C85 0.930 1_556 S
H107 C89 0.931 . S
H108 C87 0.934 . S
H109 C91 0.931 . S
H110 C92 0.929 . S
H111 C93 0.930 . S
H112 C96 0.930 1_556 S
H113 C97 0.931 . S
H114 C101 0.928 . S
H115 C100 0.929 . S
H116 C98 0.932 . S
C117 C118 1.386 . S
C117 C119 1.397 . S
C117 H141 0.931 . S
C118 C117 1.386 . S
C118 C122 1.397 . S
C119 C117 1.397 . S
C119 C120 1.384 . S
C119 H142 0.930 . S
C120 C119 1.384 . S
C120 C121 1.377 . S
C120 C123 1.481 . S
C121 C120 1.377 . S
C121 C122 1.389 . S
C121 H143 0.929 . S
C122 C118 1.397 . S
C122 C121 1.389 . S
C122 H144 0.931 . S
C123 C120 1.481 . S
C123 C124 1.387 . S
C123 C128 1.390 . S
C124 C123 1.387 . S
C124 C125 1.401 . S
C124 H145 0.930 . S
C125 C124 1.401 . S
C125 C126 1.376 . S
C125 C134 1.511 . S
C126 C125 1.376 . S
C126 C127 1.392 . S
C126 H147 0.913 1_554 S
C127 C126 1.392 . S
C127 C128 1.361 . S
C127 C129 1.500 . S
C128 C123 1.390 . S
C128 C127 1.361 . S
C128 H146 0.931 . S
C129 C127 1.500 . S
C129 C130 1.371 1_554 S
C129 C131 1.365 . S
C130 C129 1.371 1_556 S
C130 C140 1.386 . S
C130 H148 0.931 . S
C131 C129 1.365 . S
C131 C132 1.409 1_554 S
C131 H149 0.929 . S
C132 C131 1.409 1_556 S
C132 C133 1.380 . S
C132 H150 0.930 . S
C133 C132 1.380 . S
C133 C140 1.357 . S
C134 C125 1.511 . S
C134 C135 1.341 . S
C134 C136 1.371 . S
C135 C134 1.341 . S
C135 C139 1.394 . S
C135 H151 0.930 . S
C136 C134 1.371 . S
C136 C137 1.392 1_554 S
C136 H152 0.931 1_554 S
C137 C136 1.392 1_556 S
C137 C138 1.331 1_556 S
C137 H155 0.932 . S
C138 C137 1.331 1_554 S
C138 C139 1.336 . S
C139 C135 1.394 . S
C139 C138 1.336 . S
C139 H154 0.929 . S
C140 C130 1.386 . S
C140 C133 1.357 . S
C140 H153 0.928 . S
H141 C117 0.931 . S
H142 C119 0.930 . S
H143 C121 0.929 . S
H144 C122 0.931 . S
H145 C124 0.930 . S
H146 C128 0.931 . S
H147 C126 0.913 1_556 S
H148 C130 0.931 . S
H149 C131 0.929 . S
H150 C132 0.930 . S
H151 C135 0.930 . S
H152 C136 0.931 1_556 S
H153 C140 0.928 . S
H154 C139 0.929 . S
H155 C137 0.932 . S
C156 C157 1.386 . S
C156 C158 1.397 . S
C156 H180 0.931 . S
C157 C156 1.386 . S
C157 C161 1.397 . S
C158 C156 1.397 . S
C158 C159 1.384 . S
C158 H181 0.930 . S
C159 C158 1.384 . S
C159 C160 1.377 . S
C159 C162 1.481 . S
C160 C159 1.377 . S
C160 C161 1.389 . S
C160 H182 0.929 . S
C161 C157 1.397 . S
C161 C160 1.389 . S
C161 H183 0.931 . S
C162 C159 1.481 . S
C162 C163 1.387 . S
C162 C167 1.390 . S
C163 C162 1.387 . S
C163 C164 1.401 . S
C163 H184 0.930 . S
C164 C163 1.401 . S
C164 C165 1.376 . S
C164 C173 1.511 . S
C165 C164 1.376 . S
C165 C166 1.392 . S
C165 H186 0.931 . S
C166 C165 1.392 . S
C166 C167 1.361 . S
C166 C168 1.500 . S
C167 C162 1.390 . S
C167 C166 1.361 . S
C167 H185 0.931 . S
C168 C166 1.500 . S
C168 C169 1.371 . S
C168 C170 1.365 . S
C169 C168 1.371 . S
C169 C179 1.386 . S
C169 H187 0.931 . S
C170 C168 1.365 . S
C170 C171 1.409 . S
C170 H188 0.929 . S
C171 C170 1.409 . S
C171 C172 1.380 . S
C171 H189 0.930 . S
C172 C171 1.380 . S
C172 C179 1.357 . S
C173 C164 1.511 . S
C173 C174 1.341 . S
C173 C175 1.371 . S
C174 C173 1.341 . S
C174 C178 1.394 . S
C174 H190 0.930 . S
C175 C173 1.371 . S
C175 C176 1.392 . S
C175 H191 0.931 . S
C176 C175 1.392 . S
C176 C177 1.331 . S
C176 H194 0.932 . S
C177 C176 1.331 . S
C177 C178 1.336 . S
C178 C174 1.394 . S
C178 C177 1.336 . S
C178 H193 0.929 . S
C179 C169 1.386 . S
C179 C172 1.357 . S
C179 H192 0.928 . S
H180 C156 0.931 . S
H181 C158 0.930 . S
H182 C160 0.929 . S
H183 C161 0.931 . S
H184 C163 0.930 . S
H185 C167 0.931 . S
H186 C165 0.931 . S
H187 C169 0.931 . S
H188 C170 0.929 . S
H189 C171 0.930 . S
H190 C174 0.930 . S
H191 C175 0.931 . S
H192 C179 0.928 . S
H193 C178 0.929 . S
H194 C176 0.932 . S
C195 C196 1.386 . S
C195 C197 1.397 . S
C195 H219 0.931 . S
C196 C195 1.386 . S
C196 C200 1.397 . S
C197 C195 1.397 . S
C197 C198 1.384 . S
C197 H220 0.930 . S
C198 C197 1.384 . S
C198 C199 1.377 . S
C198 C201 1.481 . S
C199 C198 1.377 . S
C199 C200 1.389 . S
C199 H221 0.929 . S
C200 C196 1.397 . S
C200 C199 1.389 . S
C200 H222 0.931 . S
C201 C198 1.481 . S
C201 C202 1.387 . S
C201 C206 1.390 . S
C202 C201 1.387 . S
C202 C203 1.401 . S
C202 H223 0.930 . S
C203 C202 1.401 . S
C203 C204 1.376 . S
C203 C212 1.511 . S
C204 C203 1.376 . S
C204 C205 1.392 . S
C204 H225 0.931 . S
C205 C204 1.392 . S
C205 C206 1.361 . S
C205 C207 1.500 . S
C206 C201 1.390 . S
C206 C205 1.361 . S
C206 H224 0.931 . S
C207 C205 1.500 . S
C207 C208 1.371 . S
C207 C209 1.365 . S
C208 C207 1.371 . S
C208 C218 1.386 . S
C208 H226 0.931 . S
C209 C207 1.365 . S
C209 C210 1.409 . S
C209 H227 0.929 . S
C210 C209 1.409 . S
C210 C211 1.380 . S
C210 H228 0.930 . S
C211 C210 1.380 . S
C211 C218 1.357 . S
C212 C203 1.511 . S
C212 C213 1.341 . S
C212 C214 1.371 . S
C213 C212 1.341 . S
C213 C217 1.394 . S
C213 H229 0.930 . S
C214 C212 1.371 . S
C214 C215 1.392 . S
C214 H230 0.931 . S
C215 C214 1.392 . S
C215 C216 1.331 . S
C215 H233 0.932 . S
C216 C215 1.331 . S
C216 C217 1.336 . S
C217 C213 1.394 . S
C217 C216 1.336 . S
C217 H232 0.929 . S
C218 C208 1.386 . S
C218 C211 1.357 . S
C218 H231 0.928 . S
H219 C195 0.931 . S
H220 C197 0.930 . S
H221 C199 0.929 . S
H222 C200 0.931 . S
H223 C202 0.930 . S
H224 C206 0.931 . S
H225 C204 0.931 . S
H226 C208 0.931 . S
H227 C209 0.929 . S
H228 C210 0.930 . S
H229 C213 0.930 . S
H230 C214 0.931 . S
H231 C218 0.928 . S
H232 C217 0.929 . S
H233 C215 0.932 . S
C234 C235 1.385 . S
C234 C236 1.397 . S
C234 H258 0.931 . S
C235 C234 1.385 . S
C235 C239 1.398 1_565 S
C236 C234 1.397 . S
C236 C237 1.388 1_565 S
C236 H259 0.930 . S
C237 C236 1.388 1_545 S
C237 C238 1.373 . S
C237 C240 1.480 1_545 S
C238 C237 1.373 . S
C238 C239 1.389 . S
C238 H260 0.929 . S
C239 C235 1.398 1_545 S
C239 C238 1.389 . S
C239 H261 0.931 . S
C240 C237 1.480 1_565 S
C240 C241 1.388 . S
C240 C245 1.391 . S
C241 C240 1.388 . S
C241 C242 1.401 . S
C241 H262 0.932 . S
C242 C241 1.401 . S
C242 C243 1.375 . S
C242 C251 1.511 . S
C243 C242 1.375 . S
C243 C244 1.393 1_565 S
C243 H264 0.933 . S
C244 C243 1.393 1_545 S
C244 C245 1.361 1_545 S
C244 C246 1.501 . S
C245 C240 1.391 . S
C245 C244 1.361 1_565 S
C245 H263 0.931 1_565 S
C246 C244 1.501 . S
C246 C247 1.357 1_545 S
C246 C248 1.379 . S
C247 C246 1.357 1_565 S
C247 C257 1.386 . S
C247 H265 0.931 . S
C248 C246 1.379 . S
C248 C249 1.409 . S
C248 H266 0.929 . S
C249 C248 1.409 . S
C249 C250 1.384 . S
C249 H267 0.930 . S
C250 C249 1.384 . S
C250 C257 1.354 1_545 S
C251 C242 1.511 . S
C251 C252 1.341 . S
C251 C253 1.371 1_565 S
C252 C251 1.341 . S
C252 C256 1.394 . S
C252 H268 0.930 . S
C253 C251 1.371 1_545 S
C253 C254 1.392 . S
C253 H269 0.931 . S
C254 C253 1.392 . S
C254 C255 1.327 1_545 S
C254 H272 0.932 . S
C255 C254 1.327 1_565 S
C255 C256 1.340 . S
C256 C252 1.394 . S
C256 C255 1.340 . S
C256 H271 0.929 . S
C257 C247 1.386 . S
C257 C250 1.354 1_565 S
C257 H270 0.928 . S
H258 C234 0.931 . S
H259 C236 0.930 . S
H260 C238 0.929 . S
H261 C239 0.931 . S
H262 C241 0.932 . S
H263 C245 0.931 1_545 S
H264 C243 0.933 . S
H265 C247 0.931 . S
H266 C248 0.929 . S
H267 C249 0.930 . S
H268 C252 0.930 . S
H269 C253 0.931 . S
H270 C257 0.928 . S
H271 C256 0.929 . S
H272 C254 0.932 . S
C273 C274 1.386 . S
C273 C275 1.397 . S
C273 H297 0.931 . S
C274 C273 1.386 . S
C274 C278 1.397 . S
C275 C273 1.397 . S
C275 C276 1.384 . S
C275 H298 0.930 . S
C276 C275 1.384 . S
C276 C277 1.377 . S
C276 C279 1.481 . S
C277 C276 1.377 . S
C277 C278 1.389 . S
C277 H299 0.929 . S
C278 C274 1.397 . S
C278 C277 1.389 . S
C278 H300 0.931 . S
C279 C276 1.481 . S
C279 C280 1.387 . S
C279 C284 1.390 . S
C280 C279 1.387 . S
C280 C281 1.401 . S
C280 H301 0.930 . S
C281 C280 1.401 . S
C281 C282 1.376 . S
C281 C290 1.511 . S
C282 C281 1.376 . S
C282 C283 1.392 . S
C282 H303 0.931 . S
C283 C282 1.392 . S
C283 C284 1.361 . S
C283 C285 1.500 . S
C284 C279 1.390 . S
C284 C283 1.361 . S
C284 H302 0.931 . S
C285 C283 1.500 . S
C285 C286 1.371 . S
C285 C287 1.365 . S
C286 C285 1.371 . S
C286 C296 1.386 . S
C286 H304 0.931 . S
C287 C285 1.365 . S
C287 C288 1.409 . S
C287 H305 0.929 . S
C288 C287 1.409 . S
C288 C289 1.380 . S
C288 H306 0.930 . S
C289 C288 1.380 . S
C289 C296 1.357 . S
C290 C281 1.511 . S
C290 C291 1.341 . S
C290 C292 1.371 . S
C291 C290 1.341 . S
C291 C295 1.394 . S
C291 H307 0.930 . S
C292 C290 1.371 . S
C292 C293 1.392 . S
C292 H308 0.931 . S
C293 C292 1.392 . S
C293 C294 1.331 . S
C293 H311 0.932 . S
C294 C293 1.331 . S
C294 C295 1.336 . S
C295 C291 1.394 . S
C295 C294 1.336 . S
C295 H310 0.929 . S
C296 C286 1.386 . S
C296 C289 1.357 . S
C296 H309 0.928 . S
H297 C273 0.931 . S
H298 C275 0.930 . S
H299 C277 0.929 . S
H300 C278 0.931 . S
H301 C280 0.930 . S
H302 C284 0.931 . S
H303 C282 0.931 . S
H304 C286 0.931 . S
H305 C287 0.929 . S
H306 C288 0.930 . S
H307 C291 0.930 . S
H308 C292 0.931 . S
H309 C296 0.928 . S
H310 C295 0.929 . S
H311 C293 0.932 . S
C312 O328 1.251 . S
C312 O330 1.254 . S
N313 C314 1.333 . S
N313 C318 1.307 1_455 S
N313 Zn319 2.020 . S
C314 N313 1.333 . S
C314 C315 1.379 1_455 S
C314 H332 0.952 . S
C315 C314 1.379 1_655 S
C315 C316 1.390 . S
C315 H342 0.941 1_655 S
C316 C315 1.390 . S
C316 C317 1.357 . S
C317 C316 1.357 . S
C317 C318 1.370 . S
C317 H343 0.950 . S
C318 N313 1.307 1_655 S
C318 C317 1.370 . S
C318 H336 0.948 . S
Zn319 N313 2.020 . S
Zn319 O328 2.039 . S
Zn319 O334 2.034 . S
Zn319 O338 2.025 1_565 S
Zn319 O340 2.024 1_455 S
C320 O339 1.246 . S
C320 O340 1.249 1_545 S
N321 C322 1.307 . S
N321 C323 1.333 . S
N321 Zn327 2.020 . S
C322 N321 1.307 . S
C322 C326 1.370 . S
C322 H333 0.948 . S
C323 N321 1.333 . S
C323 C324 1.379 . S
C323 H331 0.952 . S
C324 C323 1.379 . S
C324 C325 1.390 . S
C324 H344 0.949 . S
C325 C324 1.390 . S
C325 C326 1.357 . S
C326 C322 1.370 . S
C326 C325 1.357 . S
C326 H345 0.950 . S
Zn327 N321 2.020 . S
Zn327 O330 2.025 1_545 S
Zn327 O335 2.024 . S
Zn327 O337 2.039 . S
Zn327 O339 2.034 1_455 S
O328 C312 1.251 . S
O328 Zn319 2.039 . S
C329 O334 1.246 . S
C329 O335 1.249 1_565 S
O330 C312 1.254 . S
O330 Zn327 2.025 1_565 S
H331 C323 0.952 . S
H332 C314 0.952 . S
H333 C322 0.948 . S
O334 Zn319 2.034 . S
O334 C329 1.246 . S
O335 Zn327 2.024 . S
O335 C329 1.249 1_545 S
H336 C318 0.948 . S
O337 Zn327 2.039 . S
O337 C341 1.251 . S
O338 Zn319 2.025 1_545 S
O338 C341 1.254 . S
O339 C320 1.246 . S
O339 Zn327 2.034 1_655 S
O340 Zn319 2.024 1_655 S
O340 C320 1.249 1_565 S
C341 O337 1.251 . S
C341 O338 1.254 . S
H342 C315 0.941 1_455 S
H343 C317 0.950 . S
H344 C324 0.949 . S
H345 C326 0.950 . S
C346 O362 1.251 1_565 S
C346 O364 1.254 . S
N347 C348 1.333 . S
N347 C352 1.307 . S
N347 Zn353 2.020 . S
C348 N347 1.333 . S
C348 C349 1.379 . S
C348 H366 0.952 . S
C349 C348 1.379 . S
C349 C350 1.390 . S
C349 H376 0.949 . S
C350 C349 1.390 . S
C350 C351 1.357 . S
C351 C350 1.357 . S
C351 C352 1.370 . S
C351 H377 0.950 . S
C352 N347 1.307 . S
C352 C351 1.370 . S
C352 H370 0.948 . S
Zn353 N347 2.020 . S
Zn353 O362 2.039 . S
Zn353 O368 2.034 . S
Zn353 O372 2.025 . S
Zn353 O374 2.024 . S
C354 O373 1.246 1_545 S
C354 O374 1.249 . S
N355 C356 1.307 . S
N355 C357 1.333 . S
N355 Zn361 2.020 . S
C356 N355 1.307 . S
C356 C360 1.370 . S
C356 H367 0.948 . S
C357 N355 1.333 . S
C357 C358 1.379 . S
C357 H365 0.952 . S
C358 C357 1.379 . S
C358 C359 1.390 . S
C358 H378 0.949 . S
C359 C358 1.390 . S
C359 C360 1.357 . S
C360 C356 1.370 . S
C360 C359 1.357 . S
C360 H379 0.950 . S
Zn361 N355 2.020 . S
Zn361 O364 2.025 . S
Zn361 O369 2.024 . S
Zn361 O371 2.039 . S
Zn361 O373 2.034 . S
O362 C346 1.251 1_545 S
O362 Zn353 2.039 . S
C363 O368 1.246 1_565 S
C363 O369 1.249 . S
O364 C346 1.254 . S
O364 Zn361 2.025 . S
H365 C357 0.952 . S
H366 C348 0.952 . S
H367 C356 0.948 . S
O368 Zn353 2.034 . S
O368 C363 1.246 1_545 S
O369 Zn361 2.024 . S
O369 C363 1.249 . S
H370 C352 0.948 . S
O371 Zn361 2.039 . S
O371 C375 1.251 1_565 S
O372 Zn353 2.025 . S
O372 C375 1.254 . S
O373 C354 1.246 1_565 S
O373 Zn361 2.034 . S
O374 Zn353 2.024 . S
O374 C354 1.249 . S
C375 O371 1.251 1_545 S
C375 O372 1.254 . S
H376 C349 0.949 . S
H377 C351 0.950 . S
H378 C358 0.949 . S
H379 C360 0.950 . S
C380 O396 1.251 . S
C380 O398 1.254 . S
N381 C382 1.333 . S
N381 C386 1.307 . S
N381 Zn387 2.020 . S
C382 N381 1.333 . S
C382 C383 1.379 . S
C382 H400 0.952 . S
C383 C382 1.379 . S
C383 C384 1.390 . S
C383 H410 0.949 . S
C384 C383 1.390 . S
C384 C385 1.357 . S
C385 C384 1.357 . S
C385 C386 1.370 . S
C385 H411 0.950 . S
C386 N381 1.307 . S
C386 C385 1.370 . S
C386 H404 0.948 . S
Zn387 N381 2.020 . S
Zn387 O396 2.039 . S
Zn387 O402 2.034 . S
Zn387 O406 2.025 . S
Zn387 O408 2.024 . S
C388 O407 1.246 . S
C388 O408 1.249 . S
N389 C390 1.307 . S
N389 C391 1.333 . S
N389 Zn395 2.020 . S
C390 N389 1.307 . S
C390 C394 1.370 . S
C390 H401 0.948 . S
C391 N389 1.333 . S
C391 C392 1.379 . S
C391 H399 0.952 . S
C392 C391 1.379 . S
C392 C393 1.390 . S
C392 H412 0.949 . S
C393 C392 1.390 . S
C393 C394 1.357 . S
C394 C390 1.370 . S
C394 C393 1.357 . S
C394 H413 0.950 . S
Zn395 N389 2.020 . S
Zn395 O398 2.025 . S
Zn395 O403 2.024 . S
Zn395 O405 2.039 . S
Zn395 O407 2.034 . S
O396 C380 1.251 . S
O396 Zn387 2.039 . S
C397 O402 1.246 . S
C397 O403 1.249 . S
O398 C380 1.254 . S
O398 Zn395 2.025 . S
H399 C391 0.952 . S
H400 C382 0.952 . S
H401 C390 0.948 . S
O402 Zn387 2.034 . S
O402 C397 1.246 . S
O403 Zn395 2.024 . S
O403 C397 1.249 . S
H404 C386 0.948 . S
O405 Zn395 2.039 . S
O405 C409 1.251 . S
O406 Zn387 2.025 . S
O406 C409 1.254 . S
O407 C388 1.246 . S
O407 Zn395 2.034 . S
O408 Zn387 2.024 . S
O408 C388 1.249 . S
C409 O405 1.251 . S
C409 O406 1.254 . S
H410 C383 0.949 . S
H411 C385 0.950 . S
H412 C392 0.949 . S
H413 C394 0.950 . S
C414 O430 1.251 . S
C414 O432 1.254 . S
N415 C416 1.333 . S
N415 C420 1.307 . S
N415 Zn421 2.020 . S
C416 N415 1.333 . S
C416 C417 1.379 . S
C416 H434 0.952 . S
C417 C416 1.379 . S
C417 C418 1.390 . S
C417 H444 0.949 . S
C418 C417 1.390 . S
C418 C419 1.357 . S
C419 C418 1.357 . S
C419 C420 1.370 . S
C419 H445 0.950 . S
C420 N415 1.307 . S
C420 C419 1.370 . S
C420 H438 0.948 . S
Zn421 N415 2.020 . S
Zn421 O430 2.039 . S
Zn421 O436 2.034 . S
Zn421 O440 2.066 . S
Zn421 O442 2.024 . S
C422 O441 1.246 . S
C422 O442 1.249 . S
N423 C424 1.307 . S
N423 C425 1.333 1_455 S
N423 Zn429 2.020 . S
C424 N423 1.307 . S
C424 C428 1.370 . S
C424 H435 0.948 . S
C425 N423 1.333 1_655 S
C425 C426 1.379 . S
C425 H433 0.952 . S
C426 C425 1.379 . S
C426 C427 1.390 . S
C426 H446 0.949 . S
C427 C426 1.390 . S
C427 C428 1.357 1_655 S
C428 C424 1.370 . S
C428 C427 1.357 1_455 S
C428 H447 0.950 . S
Zn429 N423 2.020 . S
Zn429 O432 2.025 . S
Zn429 O437 2.024 1_455 S
Zn429 O439 2.039 1_455 S
Zn429 O441 2.034 . S
O430 C414 1.251 . S
O430 Zn421 2.039 . S
C431 O436 1.246 1_655 S
C431 O437 1.249 . S
O432 C414 1.254 . S
O432 Zn429 2.025 . S
H433 C425 0.952 . S
H434 C416 0.952 . S
H435 C424 0.948 . S
O436 Zn421 2.034 . S
O436 C431 1.246 1_455 S
O437 Zn429 2.024 1_655 S
O437 C431 1.249 . S
H438 C420 0.948 . S
O439 Zn429 2.039 1_655 S
O439 C443 1.251 . S
O440 Zn421 2.066 . S
O440 C443 1.223 1_455 S
O441 C422 1.246 . S
O441 Zn429 2.034 . S
O442 Zn421 2.024 . S
O442 C422 1.249 . S
C443 O439 1.251 . S
C443 O440 1.223 1_655 S
H444 C417 0.949 . S
H445 C419 0.950 . S
H446 C426 0.949 . S
H447 C428 0.950 . S
C448 C449 1.330 1_545 S
C448 C450 1.327 . S
C448 H473 0.950 . S
C449 C448 1.330 1_565 S
C449 C465 1.368 . S
C450 C448 1.327 . S
C450 C469 1.429 1_545 S
C450 H474 0.950 . S
C451 C468 1.574 . S
C451 C470 1.368 . S
C451 H475 0.949 . S
H452 C456 0.949 . S
C453 C454 1.349 . S
C453 C455 1.327 . S
C453 H476 0.950 . S
C454 C453 1.349 . S
C454 C466 1.349 1_565 S
C455 C453 1.327 . S
C455 C471 1.429 . S
C455 H477 0.950 . S
C456 H452 0.949 . S
C456 C464 1.574 . S
C456 C472 1.368 1_545 S
H457 C465 0.950 . S
H458 C463 0.950 . S
H459 C464 0.949 . S
H460 C466 0.950 . S
H461 C467 0.950 . S
H462 C468 0.949 . S
C463 H458 0.950 . S
C463 C465 1.327 . S
C463 C469 1.429 . S
C464 C456 1.574 . S
C464 H459 0.949 . S
C464 C470 1.368 1_545 S
C465 C449 1.368 . S
C465 H457 0.950 . S
C465 C463 1.327 . S
C466 C454 1.349 1_545 S
C466 H460 0.950 . S
C466 C467 1.327 . S
C467 H461 0.950 . S
C467 C466 1.327 . S
C467 C471 1.429 1_545 S
C468 C451 1.574 . S
C468 H462 0.949 . S
C468 C472 1.368 . S
C469 C450 1.429 1_565 S
C469 C463 1.429 . S
C469 C470 1.523 . S
C470 C451 1.368 . S
C470 C464 1.368 1_565 S
C470 C469 1.523 . S
C471 C455 1.429 . S
C471 C467 1.429 1_565 S
C471 C472 1.523 . S
C472 C456 1.368 1_565 S
C472 C468 1.368 . S
C472 C471 1.523 . S
H473 C448 0.950 . S
H474 C450 0.950 . S
H475 C451 0.949 . S
H476 C453 0.950 . S
H477 C455 0.950 . S
C478 C479 1.349 . S
C478 C480 1.327 . S
C478 H503 0.950 . S
C479 C478 1.349 . S
C479 C495 1.349 . S
C480 C478 1.327 . S
C480 C499 1.429 . S
C480 H504 0.950 . S
C481 C498 1.574 . S
C481 C500 1.368 . S
C481 H505 0.949 . S
H482 C486 0.949 . S
C483 C484 1.349 . S
C483 C485 1.327 . S
C483 H506 0.950 . S
C484 C483 1.349 . S
C484 C496 1.349 . S
C485 C483 1.327 . S
C485 C501 1.429 . S
C485 H507 0.950 . S
C486 H482 0.949 . S
C486 C494 1.574 . S
C486 C502 1.368 . S
H487 C495 0.950 . S
H488 C493 0.950 . S
H489 C494 0.949 . S
H490 C496 0.950 . S
H491 C497 0.950 . S
H492 C498 0.949 . S
C493 H488 0.950 . S
C493 C495 1.327 . S
C493 C499 1.429 . S
C494 C486 1.574 . S
C494 H489 0.949 . S
C494 C500 1.368 . S
C495 C479 1.349 . S
C495 H487 0.950 . S
C495 C493 1.327 . S
C496 C484 1.349 . S
C496 H490 0.950 . S
C496 C497 1.327 . S
C497 H491 0.950 . S
C497 C496 1.327 . S
C497 C501 1.429 . S
C498 C481 1.574 . S
C498 H492 0.949 . S
C498 C502 1.368 . S
C499 C480 1.429 . S
C499 C493 1.429 . S
C499 C500 1.523 . S
C500 C481 1.368 . S
C500 C494 1.368 . S
C500 C499 1.523 . S
C501 C485 1.429 . S
C501 C497 1.429 . S
C501 C502 1.523 . S
C502 C486 1.368 . S
C502 C498 1.368 . S
C502 C501 1.523 . S
H503 C478 0.950 . S
H504 C480 0.950 . S
H505 C481 0.949 . S
H506 C483 0.950 . S
H507 C485 0.950 . S
C508 C509 1.349 . S
C508 C510 1.327 . S
C508 H533 0.950 . S
C509 C508 1.349 . S
C509 C525 1.349 . S
C510 C508 1.327 . S
C510 C529 1.429 . S
C510 H534 0.950 . S
C511 C528 1.574 . S
C511 C530 1.368 . S
C511 H535 0.949 . S
H512 C516 0.949 . S
C513 C514 1.349 . S
C513 C515 1.327 . S
C513 H536 0.950 . S
C514 C513 1.349 . S
C514 C526 1.349 . S
C515 C513 1.327 . S
C515 C531 1.429 . S
C515 H537 0.950 . S
C516 H512 0.949 . S
C516 C524 1.574 . S
C516 C532 1.368 . S
H517 C525 0.950 . S
H518 C523 0.950 . S
H519 C524 0.949 . S
H520 C526 0.950 . S
H521 C527 0.950 . S
H522 C528 0.949 . S
C523 H518 0.950 . S
C523 C525 1.327 . S
C523 C529 1.429 . S
C524 C516 1.574 . S
C524 H519 0.949 . S
C524 C530 1.368 . S
C525 C509 1.349 . S
C525 H517 0.950 . S
C525 C523 1.327 . S
C526 C514 1.349 . S
C526 H520 0.950 . S
C526 C527 1.327 . S
C527 H521 0.950 . S
C527 C526 1.327 . S
C527 C531 1.429 . S
C528 C511 1.574 . S
C528 H522 0.949 . S
C528 C532 1.368 . S
C529 C510 1.429 . S
C529 C523 1.429 . S
C529 C530 1.523 . S
C530 C511 1.368 . S
C530 C524 1.368 . S
C530 C529 1.523 . S
C531 C515 1.429 . S
C531 C527 1.429 . S
C531 C532 1.523 . S
C532 C516 1.368 . S
C532 C528 1.368 . S
C532 C531 1.523 . S
H533 C508 0.950 . S
H534 C510 0.950 . S
H535 C511 0.949 . S
H536 C513 0.950 . S
H537 C515 0.950 . S
C538 C539 1.349 . S
C538 C540 1.327 . S
C538 H563 0.950 . S
C539 C538 1.349 . S
C539 C555 1.349 . S
C540 C538 1.327 . S
C540 C559 1.429 . S
C540 H564 0.950 . S
C541 C558 1.574 . S
C541 C560 1.368 . S
C541 H565 0.949 . S
H542 C546 0.949 . S
C543 C544 1.349 . S
C543 C545 1.327 . S
C543 H566 0.950 . S
C544 C543 1.349 . S
C544 C556 1.349 . S
C545 C543 1.327 . S
C545 C561 1.429 . S
C545 H567 0.950 . S
C546 H542 0.949 . S
C546 C554 1.574 . S
C546 C562 1.368 . S
H547 C555 0.950 . S
H548 C553 0.950 . S
H549 C554 0.949 . S
H550 C556 0.950 . S
H551 C557 0.950 . S
H552 C558 0.949 . S
C553 H548 0.950 . S
C553 C555 1.327 . S
C553 C559 1.429 . S
C554 C546 1.574 . S
C554 H549 0.949 . S
C554 C560 1.368 . S
C555 C539 1.349 . S
C555 H547 0.950 . S
C555 C553 1.327 . S
C556 C544 1.349 . S
C556 H550 0.950 . S
C556 C557 1.327 . S
C557 H551 0.950 . S
C557 C556 1.327 . S
C557 C561 1.429 . S
C558 C541 1.574 . S
C558 H552 0.949 . S
C558 C562 1.368 . S
C559 C540 1.429 . S
C559 C553 1.429 . S
C559 C560 1.523 . S
C560 C541 1.368 . S
C560 C554 1.368 . S
C560 C559 1.523 . S
C561 C545 1.429 . S
C561 C557 1.429 . S
C561 C562 1.523 . S
C562 C546 1.368 . S
C562 C558 1.368 . S
C562 C561 1.523 . S
H563 C538 0.950 . S
H564 C540 0.950 . S
H565 C541 0.949 . S
H566 C543 0.950 . S
H567 C545 0.950 . S
C568 C569 1.378 . S
C568 C570 1.327 . S
C568 H593 0.950 1_556 S
C569 C568 1.378 . S
C569 C585 1.320 1_545 S
C570 C568 1.327 . S
C570 C589 1.429 . S
C570 H594 0.950 . S
C571 C588 1.574 . S
C571 C590 1.368 1_565 S
C571 H595 0.949 . S
H572 C576 0.949 . S
C573 C574 1.349 1_565 S
C573 C575 1.327 . S
C573 H596 0.950 . S
C574 C573 1.349 1_545 S
C574 C586 1.349 . S
C575 C573 1.327 . S
C575 C591 1.429 1_565 S
C575 H597 0.950 . S
C576 H572 0.949 . S
C576 C584 1.574 . S
C576 C592 1.368 . S
H577 C585 0.950 . S
H578 C583 0.950 . S
H579 C584 0.949 . S
H580 C586 0.950 . S
H581 C587 0.950 . S
H582 C588 0.949 . S
C583 H578 0.950 . S
C583 C585 1.327 . S
C583 C589 1.429 1_565 S
C584 C576 1.574 . S
C584 H579 0.949 . S
C584 C590 1.368 . S
C585 C569 1.320 1_565 S
C585 H577 0.950 . S
C585 C583 1.327 . S
C586 C574 1.349 . S
C586 H580 0.950 . S
C586 C587 1.327 . S
C587 H581 0.950 . S
C587 C586 1.327 . S
C587 C591 1.429 . S
C588 C571 1.574 . S
C588 H582 0.949 . S
C588 C592 1.368 1_565 S
C589 C570 1.429 . S
C589 C583 1.429 1_545 S
C589 C590 1.523 . S
C590 C571 1.368 1_545 S
C590 C584 1.368 . S
C590 C589 1.523 . S
C591 C575 1.429 1_545 S
C591 C587 1.429 . S
C591 C592 1.523 . S
C592 C576 1.368 . S
C592 C588 1.368 1_545 S
C592 C591 1.523 . S
H593 C568 0.950 1_554 S
H594 C570 0.950 . S
H595 C571 0.949 . S
H596 C573 0.950 . S
H597 C575 0.950 . S
C598 C599 1.349 1_556 S
C598 C600 1.327 . S
C598 H623 0.950 . S
C599 C598 1.349 1_554 S
C599 C615 1.349 . S
C600 C598 1.327 . S
C600 C619 1.429 . S
C600 H624 0.950 . S
C601 C618 1.574 . S
C601 C620 1.368 . S
C601 H625 0.949 . S
H602 C606 0.949 . S
C603 C604 1.349 . S
C603 C605 1.327 . S
C603 H626 0.950 . S
C604 C603 1.349 . S
C604 C616 1.349 . S
C605 C603 1.327 . S
C605 C621 1.429 . S
C605 H627 0.950 . S
C606 H602 0.949 . S
C606 C614 1.574 . S
C606 C622 1.368 . S
H607 C615 0.950 . S
H608 C613 0.950 1_554 S
H609 C614 0.949 . S
H610 C616 0.950 . S
H611 C617 0.950 . S
H612 C618 0.949 . S
C613 H608 0.950 1_556 S
C613 C615 1.327 1_556 S
C613 C619 1.429 . S
C614 C606 1.574 . S
C614 H609 0.949 . S
C614 C620 1.368 . S
C615 C599 1.349 . S
C615 H607 0.950 . S
C615 C613 1.327 1_554 S
C616 C604 1.349 . S
C616 H610 0.950 . S
C616 C617 1.327 . S
C617 H611 0.950 . S
C617 C616 1.327 . S
C617 C621 1.429 . S
C618 C601 1.574 . S
C618 H612 0.949 . S
C618 C622 1.368 . S
C619 C600 1.429 . S
C619 C613 1.429 . S
C619 C620 1.523 . S
C620 C601 1.368 . S
C620 C614 1.368 . S
C620 C619 1.523 . S
C621 C605 1.429 . S
C621 C617 1.429 . S
C621 C622 1.523 . S
C622 C606 1.368 . S
C622 C618 1.368 . S
C622 C621 1.523 . S
H623 C598 0.950 . S
H624 C600 0.950 . S
H625 C601 0.949 . S
H626 C603 0.950 . S
H627 C605 0.950 . S
C628 C629 1.349 . S
C628 C630 1.327 1_554 S
C628 H653 0.950 . S
C629 C628 1.349 . S
C629 C645 1.349 . S
C630 C628 1.327 1_556 S
C630 C649 1.429 . S
C630 H654 0.950 . S
C631 C648 1.574 . S
C631 C650 1.368 . S
C631 H655 0.949 . S
H632 C636 0.949 . S
C633 C634 1.349 . S
C633 C635 1.327 . S
C633 H656 0.950 . S
C634 C633 1.349 . S
C634 C646 1.349 . S
C635 C633 1.327 . S
C635 C651 1.429 . S
C635 H657 0.950 . S
C636 H632 0.949 . S
C636 C644 1.574 . S
C636 C652 1.368 . S
H637 C645 0.950 . S
H638 C643 0.950 . S
H639 C644 0.949 . S
H640 C646 0.950 . S
H641 C647 0.950 . S
H642 C648 0.949 . S
C643 H638 0.950 . S
C643 C645 1.327 . S
C643 C649 1.429 1_554 S
C644 C636 1.574 . S
C644 H639 0.949 . S
C644 C650 1.368 . S
C645 C629 1.349 . S
C645 H637 0.950 . S
C645 C643 1.327 . S
C646 C634 1.349 . S
C646 H640 0.950 . S
C646 C647 1.327 . S
C647 H641 0.950 . S
C647 C646 1.327 . S
C647 C651 1.429 . S
C648 C631 1.574 . S
C648 H642 0.949 . S
C648 C652 1.368 . S
C649 C630 1.429 . S
C649 C643 1.429 1_556 S
C649 C650 1.523 . S
C650 C631 1.368 . S
C650 C644 1.368 . S
C650 C649 1.523 . S
C651 C635 1.429 . S
C651 C647 1.429 . S
C651 C652 1.523 . S
C652 C636 1.368 . S
C652 C648 1.368 . S
C652 C651 1.523 . S
H653 C628 0.950 . S
H654 C630 0.950 . S
H655 C631 0.949 . S
H656 C633 0.950 . S
H657 C635 0.950 . S
C658 C659 1.349 . S
C658 C660 1.327 . S
C658 H683 0.950 . S
C659 C658 1.349 . S
C659 C675 1.349 . S
C660 C658 1.327 . S
C660 C679 1.429 . S
C660 H684 0.950 . S
C661 C678 1.574 . S
C661 C680 1.368 . S
C661 H685 0.949 . S
H662 C666 0.949 . S
C663 C664 1.349 . S
C663 C665 1.327 . S
C663 H686 0.950 . S
C664 C663 1.349 . S
C664 C676 1.331 1_655 S
C665 C663 1.327 . S
C665 C681 1.429 . S
C665 H687 0.950 . S
C666 H662 0.949 . S
C666 C674 1.574 . S
C666 C682 1.368 . S
H667 C675 0.950 . S
H668 C673 0.950 . S
H669 C674 0.949 . S
H670 C676 0.978 . S
H671 C677 0.950 1_455 S
H672 C678 0.949 . S
C673 H668 0.950 . S
C673 C675 1.327 . S
C673 C679 1.429 . S
C674 C666 1.574 . S
C674 H669 0.949 . S
C674 C680 1.368 . S
C675 C659 1.349 . S
C675 H667 0.950 . S
C675 C673 1.327 . S
C676 C664 1.331 1_455 S
C676 H670 0.978 . S
C676 C677 1.317 1_455 S
C677 H671 0.950 1_655 S
C677 C676 1.317 1_655 S
C677 C681 1.429 . S
C678 C661 1.574 . S
C678 H672 0.949 . S
C678 C682 1.368 . S
C679 C660 1.429 . S
C679 C673 1.429 . S
C679 C680 1.523 . S
C680 C661 1.368 . S
C680 C674 1.368 . S
C680 C679 1.523 . S
C681 C665 1.429 . S
C681 C677 1.429 . S
C681 C682 1.523 . S
C682 C666 1.368 . S
C682 C678 1.368 . S
C682 C681 1.523 . S
H683 C658 0.950 . S
H684 C660 0.950 . S
H685 C661 0.949 . S
H686 C663 0.950 . S
H687 C665 0.950 . S
C688 C689 1.349 . S
C688 C690 1.327 . S
C688 H713 0.950 . S
C689 C688 1.349 . S
C689 C705 1.349 . S
C690 C688 1.327 . S
C690 C709 1.429 . S
C690 H714 0.950 . S
C691 C708 1.574 . S
C691 C710 1.368 . S
C691 H715 0.949 . S
H692 C696 0.949 . S
C693 C694 1.349 . S
C693 C695 1.327 . S
C693 H716 0.950 . S
C694 C693 1.349 . S
C694 C706 1.349 . S
C695 C693 1.327 . S
C695 C711 1.429 . S
C695 H717 0.950 . S
C696 H692 0.949 . S
C696 C704 1.574 . S
C696 C712 1.368 . S
H697 C705 0.950 . S
H698 C703 0.950 . S
H699 C704 0.949 . S
H700 C706 0.950 . S
H701 C707 0.950 . S
H702 C708 0.949 . S
C703 H698 0.950 . S
C703 C705 1.327 . S
C703 C709 1.429 . S
C704 C696 1.574 . S
C704 H699 0.949 . S
C704 C710 1.368 . S
C705 C689 1.349 . S
C705 H697 0.950 . S
C705 C703 1.327 . S
C706 C694 1.349 . S
C706 H700 0.950 . S
C706 C707 1.327 . S
C707 H701 0.950 . S
C707 C706 1.327 . S
C707 C711 1.429 . S
C708 C691 1.574 . S
C708 H702 0.949 . S
C708 C712 1.368 . S
C709 C690 1.429 . S
C709 C703 1.429 . S
C709 C710 1.523 . S
C710 C691 1.368 . S
C710 C704 1.368 . S
C710 C709 1.523 . S
C711 C695 1.429 . S
C711 C707 1.429 . S
C711 C712 1.523 . S
C712 C696 1.368 . S
C712 C708 1.368 . S
C712 C711 1.523 . S
H713 C688 0.950 . S
H714 C690 0.950 . S
H715 C691 0.949 . S
H716 C693 0.950 . S
H717 C695 0.950 . S
C718 C719 1.312 1_565 S
C718 C720 1.327 . S
C718 H743 0.950 . S
C719 C718 1.312 1_545 S
C719 C735 1.383 . S
C720 C718 1.327 . S
C720 C739 1.429 . S
C720 H744 0.950 . S
C721 C738 1.574 . S
C721 C740 1.368 1_545 S
C721 H745 0.949 . S
H722 C726 0.949 . S
C723 C724 1.349 1_545 S
C723 C725 1.327 . S
C723 H746 0.950 . S
C724 C723 1.349 1_565 S
C724 C736 1.349 . S
C725 C723 1.327 . S
C725 C741 1.429 1_545 S
C725 H747 0.950 . S
C726 H722 0.949 . S
C726 C734 1.574 . S
C726 C742 1.368 . S
H727 C735 0.950 . S
H728 C733 0.950 . S
H729 C734 0.949 . S
H730 C736 0.950 . S
H731 C737 0.950 . S
H732 C738 0.949 . S
C733 H728 0.950 . S
C733 C735 1.327 . S
C733 C739 1.429 1_545 S
C734 C726 1.574 . S
C734 H729 0.949 . S
C734 C740 1.368 . S
C735 C719 1.383 . S
C735 H727 0.950 . S
C735 C733 1.327 . S
C736 C724 1.349 . S
C736 H730 0.950 . S
C736 C737 1.327 . S
C737 H731 0.950 . S
C737 C736 1.327 . S
C737 C741 1.429 . S
C738 C721 1.574 . S
C738 H732 0.949 . S
C738 C742 1.368 1_545 S
C739 C720 1.429 . S
C739 C733 1.429 1_565 S
C739 C740 1.523 . S
C740 C721 1.368 1_565 S
C740 C734 1.368 . S
C740 C739 1.523 . S
C741 C725 1.429 1_565 S
C741 C737 1.429 . S
C741 C742 1.523 . S
C742 C726 1.368 . S
C742 C738 1.368 1_565 S
C742 C741 1.523 . S
H743 C718 0.950 . S
H744 C720 0.950 . S
H745 C721 0.949 . S
H746 C723 0.950 . S
H747 C725 0.950 . S
C748 C749 1.349 . S
C748 C750 1.327 . S
C748 H773 0.950 . S
C749 C748 1.349 . S
C749 C765 1.349 . S
C750 C748 1.327 . S
C750 C769 1.429 . S
C750 H774 0.950 . S
C751 C768 1.574 . S
C751 C770 1.368 . S
C751 H775 0.949 . S
H752 C756 0.949 . S
C753 C754 1.349 . S
C753 C755 1.327 . S
C753 H776 0.950 . S
C754 C753 1.349 . S
C754 C766 1.349 . S
C755 C753 1.327 . S
C755 C771 1.429 . S
C755 H777 0.950 . S
C756 H752 0.949 . S
C756 C764 1.574 . S
C756 C772 1.368 . S
H757 C765 0.950 . S
H758 C763 0.950 . S
H759 C764 0.949 . S
H760 C766 0.950 . S
H761 C767 0.950 . S
H762 C768 0.949 . S
C763 H758 0.950 . S
C763 C765 1.327 . S
C763 C769 1.429 . S
C764 C756 1.574 . S
C764 H759 0.949 . S
C764 C770 1.368 . S
C765 C749 1.349 . S
C765 H757 0.950 . S
C765 C763 1.327 . S
C766 C754 1.349 . S
C766 H760 0.950 . S
C766 C767 1.327 . S
C767 H761 0.950 . S
C767 C766 1.327 . S
C767 C771 1.429 . S
C768 C751 1.574 . S
C768 H762 0.949 . S
C768 C772 1.368 . S
C769 C750 1.429 . S
C769 C763 1.429 . S
C769 C770 1.523 . S
C770 C751 1.368 . S
C770 C764 1.368 . S
C770 C769 1.523 . S
C771 C755 1.429 . S
C771 C767 1.429 . S
C771 C772 1.523 . S
C772 C756 1.368 . S
C772 C768 1.368 . S
C772 C771 1.523 . S
H773 C748 0.950 . S
H774 C750 0.950 . S
H775 C751 0.949 . S
H776 C753 0.950 . S
H777 C755 0.950 . S
C778 C779 1.349 . S
C778 C780 1.327 . S
C778 H803 0.950 . S
C779 C778 1.349 . S
C779 C795 1.349 . S
C780 C778 1.327 . S
C780 C799 1.429 . S
C780 H804 0.950 . S
C781 C798 1.574 . S
C781 C800 1.368 . S
C781 H805 0.949 . S
H782 C786 0.949 . S
C783 C784 1.349 . S
C783 C785 1.327 . S
C783 H806 0.950 . S
C784 C783 1.349 . S
C784 C796 1.349 . S
C785 C783 1.327 . S
C785 C801 1.429 . S
C785 H807 0.950 . S
C786 H782 0.949 . S
C786 C794 1.574 . S
C786 C802 1.368 . S
H787 C795 0.950 . S
H788 C793 0.950 . S
H789 C794 0.949 . S
H790 C796 0.950 . S
H791 C797 0.950 . S
H792 C798 0.949 . S
C793 H788 0.950 . S
C793 C795 1.327 . S
C793 C799 1.429 . S
C794 C786 1.574 . S
C794 H789 0.949 . S
C794 C800 1.368 . S
C795 C779 1.349 . S
C795 H787 0.950 . S
C795 C793 1.327 . S
C796 C784 1.349 . S
C796 H790 0.950 . S
C796 C797 1.327 . S
C797 H791 0.950 . S
C797 C796 1.327 . S
C797 C801 1.429 . S
C798 C781 1.574 . S
C798 H792 0.949 . S
C798 C802 1.368 . S
C799 C780 1.429 . S
C799 C793 1.429 . S
C799 C800 1.523 . S
C800 C781 1.368 . S
C800 C794 1.368 . S
C800 C799 1.523 . S
C801 C785 1.429 . S
C801 C797 1.429 . S
C801 C802 1.523 . S
C802 C786 1.368 . S
C802 C798 1.368 . S
C802 C801 1.523 . S
H803 C778 0.950 . S
H804 C780 0.950 . S
H805 C781 0.949 . S
H806 C783 0.950 . S
H807 C785 0.950 . S
C808 C809 1.349 . S
C808 C810 1.327 . S
C808 H833 0.950 . S
C809 C808 1.349 . S
C809 C825 1.349 . S
C810 C808 1.327 . S
C810 C829 1.429 . S
C810 H834 0.950 . S
C811 C828 1.574 . S
C811 C830 1.368 . S
C811 H835 0.949 . S
H812 C816 0.949 . S
C813 C814 1.349 . S
C813 C815 1.327 . S
C813 H836 0.950 . S
C814 C813 1.349 . S
C814 C826 1.349 . S
C815 C813 1.327 . S
C815 C831 1.429 1_455 S
C815 H837 0.950 . S
C816 H812 0.949 . S
C816 C824 1.574 . S
C816 C832 1.368 . S
H817 C825 0.950 . S
H818 C823 0.950 . S
H819 C824 0.949 . S
H820 C826 0.950 . S
H821 C827 0.950 . S
H822 C828 0.949 . S
C823 H818 0.950 . S
C823 C825 1.327 . S
C823 C829 1.429 . S
C824 C816 1.574 . S
C824 H819 0.949 . S
C824 C830 1.368 . S
C825 C809 1.349 . S
C825 H817 0.950 . S
C825 C823 1.327 . S
C826 C814 1.349 . S
C826 H820 0.950 . S
C826 C827 1.327 1_455 S
C827 H821 0.950 . S
C827 C826 1.327 1_655 S
C827 C831 1.429 . S
C828 C811 1.574 . S
C828 H822 0.949 . S
C828 C832 1.368 . S
C829 C810 1.429 . S
C829 C823 1.429 . S
C829 C830 1.523 . S
C830 C811 1.368 . S
C830 C824 1.368 . S
C830 C829 1.523 . S
C831 C815 1.429 1_655 S
C831 C827 1.429 . S
C831 C832 1.523 . S
C832 C816 1.368 . S
C832 C828 1.368 . S
C832 C831 1.523 . S
H833 C808 0.950 . S
H834 C810 0.950 . S
H835 C811 0.949 . S
H836 C813 0.950 . S
H837 C815 0.950 . S
C838 C839 1.325 1_545 S
C838 C840 1.327 . S
C838 H863 0.950 . S
C839 C838 1.325 1_565 S
C839 C855 1.371 . S
C840 C838 1.327 . S
C840 C859 1.429 . S
C840 H864 0.950 . S
C841 C858 1.574 . S
C841 C860 1.368 1_565 S
C841 H865 0.949 . S
H842 C846 0.949 . S
C843 C844 1.349 1_565 S
C843 C845 1.327 . S
C843 H866 0.950 . S
C844 C843 1.349 1_545 S
C844 C856 1.349 . S
C845 C843 1.327 . S
C845 C861 1.429 1_565 S
C845 H867 0.950 . S
C846 H842 0.949 . S
C846 C854 1.574 . S
C846 C862 1.368 . S
H847 C855 0.950 . S
H848 C853 0.950 . S
H849 C854 0.949 . S
H850 C856 0.950 . S
H851 C857 0.950 . S
H852 C858 0.949 . S
C853 H848 0.950 . S
C853 C855 1.327 . S
C853 C859 1.429 1_565 S
C854 C846 1.574 . S
C854 H849 0.949 . S
C854 C860 1.368 . S
C855 C839 1.371 . S
C855 H847 0.950 . S
C855 C853 1.327 . S
C856 C844 1.349 . S
C856 H850 0.950 . S
C856 C857 1.327 . S
C857 H851 0.950 . S
C857 C856 1.327 . S
C857 C861 1.429 . S
C858 C841 1.574 . S
C858 H852 0.949 . S
C858 C862 1.368 1_565 S
C859 C840 1.429 . S
C859 C853 1.429 1_545 S
C859 C860 1.523 . S
C860 C841 1.368 1_545 S
C860 C854 1.368 . S
C860 C859 1.523 . S
C861 C845 1.429 1_545 S
C861 C857 1.429 . S
C861 C862 1.523 . S
C862 C846 1.368 . S
C862 C858 1.368 1_545 S
C862 C861 1.523 . S
H863 C838 0.950 . S
H864 C840 0.950 . S
H865 C841 0.949 . S
H866 C843 0.950 . S
H867 C845 0.950 . S
C868 C869 1.349 . S
C868 C870 1.327 . S
C868 H893 0.950 . S
C869 C868 1.349 . S
C869 C885 1.349 . S
C870 C868 1.327 . S
C870 C889 1.429 . S
C870 H894 0.950 . S
C871 C888 1.574 . S
C871 C890 1.368 . S
C871 H895 0.949 . S
H872 C876 0.949 . S
C873 C874 1.349 . S
C873 C875 1.327 . S
C873 H896 0.950 . S
C874 C873 1.349 . S
C874 C886 1.349 . S
C875 C873 1.327 . S
C875 C891 1.429 . S
C875 H897 0.950 . S
C876 H872 0.949 . S
C876 C884 1.574 . S
C876 C892 1.368 . S
H877 C885 0.950 . S
H878 C883 0.950 . S
H879 C884 0.949 . S
H880 C886 0.950 . S
H881 C887 0.950 . S
H882 C888 0.949 . S
C883 H878 0.950 . S
C883 C885 1.327 . S
C883 C889 1.429 . S
C884 C876 1.574 . S
C884 H879 0.949 . S
C884 C890 1.368 . S
C885 C869 1.349 . S
C885 H877 0.950 . S
C885 C883 1.327 . S
C886 C874 1.349 . S
C886 H880 0.950 . S
C886 C887 1.327 . S
C887 H881 0.950 . S
C887 C886 1.327 . S
C887 C891 1.429 . S
C888 C871 1.574 . S
C888 H882 0.949 . S
C888 C892 1.368 . S
C889 C870 1.429 . S
C889 C883 1.429 . S
C889 C890 1.523 . S
C890 C871 1.368 . S
C890 C884 1.368 . S
C890 C889 1.523 . S
C891 C875 1.429 . S
C891 C887 1.429 . S
C891 C892 1.523 . S
C892 C876 1.368 . S
C892 C888 1.368 . S
C892 C891 1.523 . S
H893 C868 0.950 . S
H894 C870 0.950 . S
H895 C871 0.949 . S
H896 C873 0.950 . S
H897 C875 0.950 . S
C898 C899 1.349 . S
C898 C900 1.327 . S
C898 H923 0.950 . S
C899 C898 1.349 . S
C899 C915 1.349 . S
C900 C898 1.327 . S
C900 C919 1.429 . S
C900 H924 0.950 . S
C901 C918 1.574 . S
C901 C920 1.368 . S
C901 H925 0.949 . S
H902 C906 0.949 . S
C903 C904 1.349 . S
C903 C905 1.327 . S
C903 H926 0.950 1_655 S
C904 C903 1.349 . S
C904 C916 1.349 . S
C905 C903 1.327 . S
C905 C921 1.429 . S
C905 H927 0.950 . S
C906 H902 0.949 . S
C906 C914 1.574 . S
C906 C922 1.368 . S
H907 C915 0.950 1_554 S
H908 C913 0.950 . S
H909 C914 0.949 . S
H910 C916 0.950 . S
H911 C917 0.950 . S
H912 C918 0.949 . S
C913 H908 0.950 . S
C913 C915 1.327 . S
C913 C919 1.429 . S
C914 C906 1.574 . S
C914 H909 0.949 . S
C914 C920 1.368 . S
C915 C899 1.349 . S
C915 H907 0.950 1_556 S
C915 C913 1.327 . S
C916 C904 1.349 . S
C916 H910 0.950 . S
C916 C917 1.327 . S
C917 H911 0.950 . S
C917 C916 1.327 . S
C917 C921 1.429 . S
C918 C901 1.574 . S
C918 H912 0.949 . S
C918 C922 1.368 . S
C919 C900 1.429 . S
C919 C913 1.429 . S
C919 C920 1.523 . S
C920 C901 1.368 . S
C920 C914 1.368 . S
C920 C919 1.523 . S
C921 C905 1.429 . S
C921 C917 1.429 . S
C921 C922 1.523 . S
C922 C906 1.368 . S
C922 C918 1.368 . S
C922 C921 1.523 . S
H923 C898 0.950 . S
H924 C900 0.950 . S
H925 C901 0.949 . S
H926 C903 0.950 1_455 S
H927 C905 0.950 . S
C928 C929 1.349 . S
C928 C930 1.327 . S
C928 H953 0.950 . S
C929 C928 1.349 . S
C929 C945 1.349 . S
C930 C928 1.327 . S
C930 C949 1.429 . S
C930 H954 0.950 . S
C931 C948 1.574 1_554 S
C931 C950 1.368 . S
C931 H955 0.949 1_554 S
H932 C936 0.949 . S
C933 C934 1.349 . S
C933 C935 1.327 . S
C933 H956 0.950 . S
C934 C933 1.349 . S
C934 C946 1.349 . S
C935 C933 1.327 . S
C935 C951 1.429 . S
C935 H957 0.950 . S
C936 H932 0.949 . S
C936 C944 1.574 . S
C936 C952 1.368 1_554 S
H937 C945 0.950 . S
H938 C943 0.950 . S
H939 C944 0.949 . S
H940 C946 0.950 . S
H941 C947 0.950 . S
H942 C948 0.949 . S
C943 H938 0.950 . S
C943 C945 1.327 . S
C943 C949 1.429 . S
C944 C936 1.574 . S
C944 H939 0.949 . S
C944 C950 1.368 . S
C945 C929 1.349 . S
C945 H937 0.950 . S
C945 C943 1.327 . S
C946 C934 1.349 . S
C946 H940 0.950 . S
C946 C947 1.327 . S
C947 H941 0.950 . S
C947 C946 1.327 . S
C947 C951 1.429 . S
C948 C931 1.574 1_556 S
C948 H942 0.949 . S
C948 C952 1.368 . S
C949 C930 1.429 . S
C949 C943 1.429 . S
C949 C950 1.523 . S
C950 C931 1.368 . S
C950 C944 1.368 . S
C950 C949 1.523 . S
C951 C935 1.429 . S
C951 C947 1.429 . S
C951 C952 1.523 . S
C952 C936 1.368 1_556 S
C952 C948 1.368 . S
C952 C951 1.523 . S
H953 C928 0.950 . S
H954 C930 0.950 . S
H955 C931 0.949 1_556 S
H956 C933 0.950 . S
H957 C935 0.950 . S
C958 C959 1.331 1_565 S
C958 C960 1.327 1_554 S
C958 H983 0.950 . S
C959 C958 1.331 1_545 S
C959 C975 1.366 . S
C960 C958 1.327 1_556 S
C960 C979 1.429 1_565 S
C960 H984 0.950 . S
C961 C978 1.574 . S
C961 C980 1.368 . S
C961 H985 0.949 . S
H962 C966 0.949 . S
C963 C964 1.349 . S
C963 C965 1.327 . S
C963 H986 0.950 . S
C964 C963 1.349 . S
C964 C976 1.349 1_545 S
C965 C963 1.327 . S
C965 C981 1.429 . S
C965 H987 0.950 . S
C966 H962 0.949 . S
C966 C974 1.574 . S
C966 C982 1.368 1_565 S
H967 C975 0.950 . S
H968 C973 0.950 . S
H969 C974 0.949 . S
H970 C976 0.950 . S
H971 C977 0.950 . S
H972 C978 0.949 . S
C973 H968 0.950 . S
C973 C975 1.327 . S
C973 C979 1.429 1_554 S
C974 C966 1.574 . S
C974 H969 0.949 . S
C974 C980 1.368 1_565 S
C975 C959 1.366 . S
C975 H967 0.950 . S
C975 C973 1.327 . S
C976 C964 1.349 1_565 S
C976 H970 0.950 . S
C976 C977 1.327 . S
C977 H971 0.950 . S
C977 C976 1.327 . S
C977 C981 1.429 1_565 S
C978 C961 1.574 . S
C978 H972 0.949 . S
C978 C982 1.368 . S
C979 C960 1.429 1_545 S
C979 C973 1.429 1_556 S
C979 C980 1.523 . S
C980 C961 1.368 . S
C980 C974 1.368 1_545 S
C980 C979 1.523 . S
C981 C965 1.429 . S
C981 C977 1.429 1_545 S
C981 C982 1.523 . S
C982 C966 1.368 1_545 S
C982 C978 1.368 . S
C982 C981 1.523 . S
H983 C958 0.950 . S
H984 C960 0.950 . S
H985 C961 0.949 . S
H986 C963 0.950 . S
H987 C965 0.950 . S
C988 C989 1.349 . S
C988 C990 1.327 . S
C988 H1013 0.950 . S
C989 C988 1.349 . S
C989 C1005 1.349 . S
C990 C988 1.327 . S
C990 C1009 1.429 1_554 S
C990 H1014 0.950 . S
C991 C1008 1.574 . S
C991 C1010 1.368 . S
C991 H1015 0.949 . S
H992 C996 0.949 . S
C993 C994 1.349 . S
C993 C995 1.327 . S
C993 H1016 0.950 . S
C994 C993 1.349 . S
C994 C1006 1.349 . S
C995 C993 1.327 . S
C995 C1011 1.429 . S
C995 H1017 0.950 . S
C996 H992 0.949 . S
C996 C1004 1.574 . S
C996 C1012 1.368 . S
H997 C1005 0.950 1_556 S
H998 C1003 0.950 . S
H999 C1004 0.949 . S
H1000 C1006 0.950 . S
H1001 C1007 0.950 . S
H1002 C1008 0.949 . S
C1003 H998 0.950 . S
C1003 C1005 1.327 1_556 S
C1003 C1009 1.429 . S
C1004 C996 1.574 . S
C1004 H999 0.949 . S
C1004 C1010 1.368 . S
C1005 C989 1.349 . S
C1005 H997 0.950 1_554 S
C1005 C1003 1.327 1_554 S
C1006 C994 1.349 . S
C1006 H1000 0.950 . S
C1006 C1007 1.327 . S
C1007 H1001 0.950 . S
C1007 C1006 1.327 . S
C1007 C1011 1.429 . S
C1008 C991 1.574 . S
C1008 H1002 0.949 . S
C1008 C1012 1.368 . S
C1009 C990 1.429 1_556 S
C1009 C1003 1.429 . S
C1009 C1010 1.523 . S
C1010 C991 1.368 . S
C1010 C1004 1.368 . S
C1010 C1009 1.523 . S
C1011 C995 1.429 . S
C1011 C1007 1.429 . S
C1011 C1012 1.523 . S
C1012 C996 1.368 . S
C1012 C1008 1.368 . S
C1012 C1011 1.523 . S
H1013 C988 0.950 . S
H1014 C990 0.950 . S
H1015 C991 0.949 . S
H1016 C993 0.950 . S
H1017 C995 0.950 . S
C1018 C1019 1.349 . S
C1018 C1020 1.327 . S
C1018 H1043 0.950 . S
C1019 C1018 1.349 . S
C1019 C1035 1.349 1_554 S
C1020 C1018 1.327 . S
C1020 C1039 1.429 1_554 S
C1020 H1044 0.950 . S
C1021 C1038 1.574 . S
C1021 C1040 1.368 . S
C1021 H1045 0.949 . S
H1022 C1026 0.949 . S
C1023 C1024 1.349 . S
C1023 C1025 1.327 . S
C1023 H1046 0.950 . S
C1024 C1023 1.349 . S
C1024 C1036 1.349 . S
C1025 C1023 1.327 . S
C1025 C1041 1.429 . S
C1025 H1047 0.950 . S
C1026 H1022 0.949 . S
C1026 C1034 1.574 . S
C1026 C1042 1.368 . S
H1027 C1035 0.950 . S
H1028 C1033 0.950 . S
H1029 C1034 0.949 . S
H1030 C1036 0.950 . S
H1031 C1037 0.950 . S
H1032 C1038 0.949 . S
C1033 H1028 0.950 . S
C1033 C1035 1.327 . S
C1033 C1039 1.429 . S
C1034 C1026 1.574 . S
C1034 H1029 0.949 . S
C1034 C1040 1.368 . S
C1035 C1019 1.349 1_556 S
C1035 H1027 0.950 . S
C1035 C1033 1.327 . S
C1036 C1024 1.349 . S
C1036 H1030 0.950 . S
C1036 C1037 1.327 . S
C1037 H1031 0.950 . S
C1037 C1036 1.327 . S
C1037 C1041 1.429 . S
C1038 C1021 1.574 . S
C1038 H1032 0.949 . S
C1038 C1042 1.368 . S
C1039 C1020 1.429 1_556 S
C1039 C1033 1.429 . S
C1039 C1040 1.523 . S
C1040 C1021 1.368 . S
C1040 C1034 1.368 . S
C1040 C1039 1.523 . S
C1041 C1025 1.429 . S
C1041 C1037 1.429 . S
C1041 C1042 1.523 . S
C1042 C1026 1.368 . S
C1042 C1038 1.368 . S
C1042 C1041 1.523 . S
H1043 C1018 0.950 . S
H1044 C1020 0.950 . S
H1045 C1021 0.949 . S
H1046 C1023 0.950 . S
H1047 C1025 0.950 . S
C1048 C1049 1.349 . S
C1048 C1050 1.327 . S
C1048 H1073 0.950 . S
C1049 C1048 1.349 . S
C1049 C1065 1.349 . S
C1050 C1048 1.327 . S
C1050 C1069 1.429 . S
C1050 H1074 0.950 . S
C1051 C1068 1.574 . S
C1051 C1070 1.368 . S
C1051 H1075 0.949 . S
H1052 C1056 0.949 . S
C1053 C1054 1.349 . S
C1053 C1055 1.327 . S
C1053 H1076 0.950 1_655 S
C1054 C1053 1.349 . S
C1054 C1066 1.349 . S
C1055 C1053 1.327 . S
C1055 C1071 1.429 . S
C1055 H1077 0.950 . S
C1056 H1052 0.949 . S
C1056 C1064 1.574 . S
C1056 C1072 1.368 . S
H1057 C1065 0.950 . S
H1058 C1063 0.950 . S
H1059 C1064 0.949 . S
H1060 C1066 0.950 . S
H1061 C1067 0.950 . S
H1062 C1068 0.949 . S
C1063 H1058 0.950 . S
C1063 C1065 1.327 . S
C1063 C1069 1.429 . S
C1064 C1056 1.574 . S
C1064 H1059 0.949 . S
C1064 C1070 1.368 . S
C1065 C1049 1.349 . S
C1065 H1057 0.950 . S
C1065 C1063 1.327 . S
C1066 C1054 1.349 . S
C1066 H1060 0.950 . S
C1066 C1067 1.327 . S
C1067 H1061 0.950 . S
C1067 C1066 1.327 . S
C1067 C1071 1.429 . S
C1068 C1051 1.574 . S
C1068 H1062 0.949 . S
C1068 C1072 1.368 . S
C1069 C1050 1.429 . S
C1069 C1063 1.429 . S
C1069 C1070 1.523 . S
C1070 C1051 1.368 . S
C1070 C1064 1.368 . S
C1070 C1069 1.523 . S
C1071 C1055 1.429 . S
C1071 C1067 1.429 . S
C1071 C1072 1.523 . S
C1072 C1056 1.368 . S
C1072 C1068 1.368 . S
C1072 C1071 1.523 . S
H1073 C1048 0.950 . S
H1074 C1050 0.950 . S
H1075 C1051 0.949 . S
H1076 C1053 0.950 1_455 S
H1077 C1055 0.950 . S
C1078 C1079 1.342 1_545 S
C1078 C1080 1.327 . S
C1078 H1103 0.950 . S
C1079 C1078 1.342 1_565 S
C1079 C1095 1.355 . S
C1080 C1078 1.327 . S
C1080 C1099 1.390 1_545 S
C1080 H1104 0.950 . S
C1081 C1098 1.574 . S
C1081 C1100 1.368 . S
C1081 H1105 0.949 . S
H1082 C1086 0.949 . S
C1083 C1084 1.349 . S
C1083 C1085 1.327 . S
C1083 H1106 0.950 . S
C1084 C1083 1.349 . S
C1084 C1096 1.349 1_565 S
C1085 C1083 1.327 . S
C1085 C1101 1.429 . S
C1085 H1107 0.950 . S
C1086 H1082 0.949 . S
C1086 C1094 1.574 . S
C1086 C1102 1.368 1_545 S
H1087 C1095 0.950 . S
H1088 C1093 0.950 . S
H1089 C1094 0.949 . S
H1090 C1096 0.950 . S
H1091 C1097 0.950 . S
H1092 C1098 0.949 . S
C1093 H1088 0.950 . S
C1093 C1095 1.327 . S
C1093 C1099 1.471 . S
C1094 C1086 1.574 . S
C1094 H1089 0.949 . S
C1094 C1100 1.368 1_545 S
C1095 C1079 1.355 . S
C1095 H1087 0.950 . S
C1095 C1093 1.327 . S
C1096 C1084 1.349 1_545 S
C1096 H1090 0.950 . S
C1096 C1097 1.327 . S
C1097 H1091 0.950 . S
C1097 C1096 1.327 . S
C1097 C1101 1.429 1_545 S
C1098 C1081 1.574 . S
C1098 H1092 0.949 . S
C1098 C1102 1.368 . S
C1099 C1080 1.390 1_565 S
C1099 C1093 1.471 . S
C1099 C1100 1.522 . S
C1100 C1081 1.368 . S
C1100 C1094 1.368 1_565 S
C1100 C1099 1.522 . S
C1101 C1085 1.429 . S
C1101 C1097 1.429 1_565 S
C1101 C1102 1.523 . S
C1102 C1086 1.368 1_565 S
C1102 C1098 1.368 . S
C1102 C1101 1.523 . S
H1103 C1078 0.950 . S
H1104 C1080 0.950 . S
H1105 C1081 0.949 . S
H1106 C1083 0.950 . S
H1107 C1085 0.950 . S
C1108 C1109 1.349 . S
C1108 C1110 1.327 . S
C1108 H1133 0.950 . S
C1109 C1108 1.349 . S
C1109 C1125 1.349 . S
C1110 C1108 1.327 . S
C1110 C1129 1.429 . S
C1110 H1134 0.950 . S
C1111 C1128 1.574 . S
C1111 C1130 1.368 . S
C1111 H1135 0.949 . S
H1112 C1116 0.949 . S
C1113 C1114 1.349 . S
C1113 C1115 1.327 . S
C1113 H1136 0.950 . S
C1114 C1113 1.349 . S
C1114 C1126 1.349 . S
C1115 C1113 1.327 . S
C1115 C1131 1.429 . S
C1115 H1137 0.950 . S
C1116 H1112 0.949 . S
C1116 C1124 1.574 . S
C1116 C1132 1.368 . S
H1117 C1125 0.950 . S
H1118 C1123 0.950 . S
H1119 C1124 0.949 . S
H1120 C1126 0.950 . S
H1121 C1127 0.950 . S
H1122 C1128 0.949 . S
C1123 H1118 0.950 . S
C1123 C1125 1.327 . S
C1123 C1129 1.429 . S
C1124 C1116 1.574 . S
C1124 H1119 0.949 . S
C1124 C1130 1.368 . S
C1125 C1109 1.349 . S
C1125 H1117 0.950 . S
C1125 C1123 1.327 . S
C1126 C1114 1.349 . S
C1126 H1120 0.950 . S
C1126 C1127 1.327 . S
C1127 H1121 0.950 . S
C1127 C1126 1.327 . S
C1127 C1131 1.429 . S
C1128 C1111 1.574 . S
C1128 H1122 0.949 . S
C1128 C1132 1.368 . S
C1129 C1110 1.429 . S
C1129 C1123 1.429 . S
C1129 C1130 1.523 . S
C1130 C1111 1.368 . S
C1130 C1124 1.368 . S
C1130 C1129 1.523 . S
C1131 C1115 1.429 . S
C1131 C1127 1.429 . S
C1131 C1132 1.523 . S
C1132 C1116 1.368 . S
C1132 C1128 1.368 . S
C1132 C1131 1.523 . S
H1133 C1108 0.950 . S
H1134 C1110 0.950 . S
H1135 C1111 0.949 . S
H1136 C1113 0.950 . S
H1137 C1115 0.950 . S
C1138 C1139 1.349 . S
C1138 C1140 1.327 . S
C1138 H1163 0.950 . S
C1139 C1138 1.349 . S
C1139 C1155 1.349 . S
C1140 C1138 1.327 . S
C1140 C1159 1.429 . S
C1140 H1164 0.950 . S
C1141 C1158 1.574 . S
C1141 C1160 1.368 . S
C1141 H1165 0.949 . S
H1142 C1146 0.949 . S
C1143 C1144 1.349 . S
C1143 C1145 1.327 . S
C1143 H1166 0.950 . S
C1144 C1143 1.349 . S
C1144 C1156 1.349 . S
C1145 C1143 1.327 . S
C1145 C1161 1.429 . S
C1145 H1167 0.950 . S
C1146 H1142 0.949 . S
C1146 C1154 1.574 . S
C1146 C1162 1.368 . S
H1147 C1155 0.950 . S
H1148 C1153 0.950 . S
H1149 C1154 0.949 . S
H1150 C1156 0.950 . S
H1151 C1157 0.950 . S
H1152 C1158 0.949 . S
C1153 H1148 0.950 . S
C1153 C1155 1.327 . S
C1153 C1159 1.429 . S
C1154 C1146 1.574 . S
C1154 H1149 0.949 . S
C1154 C1160 1.368 . S
C1155 C1139 1.349 . S
C1155 H1147 0.950 . S
C1155 C1153 1.327 . S
C1156 C1144 1.349 . S
C1156 H1150 0.950 . S
C1156 C1157 1.327 . S
C1157 H1151 0.950 . S
C1157 C1156 1.327 . S
C1157 C1161 1.429 . S
C1158 C1141 1.574 . S
C1158 H1152 0.949 . S
C1158 C1162 1.368 . S
C1159 C1140 1.429 . S
C1159 C1153 1.429 . S
C1159 C1160 1.523 . S
C1160 C1141 1.368 . S
C1160 C1154 1.368 . S
C1160 C1159 1.523 . S
C1161 C1145 1.429 . S
C1161 C1157 1.429 . S
C1161 C1162 1.523 . S
C1162 C1146 1.368 . S
C1162 C1158 1.368 . S
C1162 C1161 1.523 . S
H1163 C1138 0.950 . S
H1164 C1140 0.950 . S
H1165 C1141 0.949 . S
H1166 C1143 0.950 . S
H1167 C1145 0.950 . S
C449 C255 1.819 . S
C454 C329 1.835 . S
C484 C350 1.693 . S
C479 C294 1.657 . S
C514 C384 1.443 . S
C509 C177 1.427 . S
C544 C418 1.678 . S
C539 C216 1.644 . S
C574 C320 1.835 . S
C569 C99 1.821 1_546 S
C599 C138 1.653 . S
C604 C359 1.700 . S
C629 C21 1.422 . S
C634 C393 1.443 . S
C659 C60 1.656 . S
C664 C427 1.678 . S
C694 C341 0.455 . S
C689 C196 0.654 . S
C724 C346 0.186 . S
C719 C235 0.219 1_545 S
C754 C380 0.287 . S
C749 C289 0.373 . S
C779 C157 0.370 . S
C784 C414 0.239 . S
C809 C40 0.629 . S
C814 C312 0.455 . S
C844 C375 0.186 . S
C839 C79 0.219 . S
C874 C409 0.287 . S
C869 C133 0.361 . S
C899 C1 0.393 . S
C904 C443 0.240 . S
C929 C211 1.619 . S
C934 C325 1.692 . S
C959 C250 1.998 . S
C964 C354 2.088 . S
C994 C388 1.837 . S
C989 C274 1.754 . S
C1024 C422 1.848 . S
C1019 C172 1.750 . S
C1049 C55 1.616 . S
C1054 C316 1.702 . S
C1084 C363 2.088 . S
C1079 C94 1.998 1_565 S
C1114 C397 1.837 . S
C1109 C118 1.750 . S
C1139 C16 1.753 . S
C1144 C431 1.848 . S
