# Generated by pormake.
# Topology zzz, (3,6)-cn, num edge types: 1
# Building blocks:
#     Node 0, Type 0, BuildingBlock: CUQRIR_clean_linker_1, # of connection points: 3
#     Node 1, Type 0, BuildingBlock: CUQRIR_clean_linker_1, # of connection points: 3
#     Node 2, Type 0, BuildingBlock: CUQRIR_clean_linker_1, # of connection points: 3
#     Node 3, Type 0, BuildingBlock: CUQRIR_clean_linker_1, # of connection points: 3
#     Node 4, Type 0, BuildingBlock: CUQRIR_clean_linker_1, # of connection points: 3
#     Node 5, Type 0, BuildingBlock: CUQRIR_clean_linker_1, # of connection points: 3
#     Node 6, Type 0, BuildingBlock: CUQRIR_clean_linker_1, # of connection points: 3
#     Node 7, Type 0, BuildingBlock: CUQRIR_clean_linker_1, # of connection points: 3
#     Node 8, Type 1, BuildingBlock: CUKXOW_clean_sbu_0, # of connection points: 6
#     Node 9, Type 1, BuildingBlock: CUKXOW_clean_sbu_0, # of connection points: 6
#     Node 10, Type 1, BuildingBlock: CUKXOW_clean_sbu_0, # of connection points: 6
#     Node 11, Type 1, BuildingBlock: CUKXOW_clean_sbu_0, # of connection points: 6
#     Edge 12, Type (0, 1), BuildingBlock: ZUJKAS_clean_linker_0, # of connection points: 2
#     Edge 13, Type (0, 1), BuildingBlock: ZUJKAS_clean_linker_0, # of connection points: 2
#     Edge 14, Type (0, 1), BuildingBlock: ZUJKAS_clean_linker_0, # of connection points: 2
#     Edge 15, Type (0, 1), BuildingBlock: ZUJKAS_clean_linker_0, # of connection points: 2
#     Edge 16, Type (0, 1), BuildingBlock: ZUJKAS_clean_linker_0, # of connection points: 2
#     Edge 17, Type (0, 1), BuildingBlock: ZUJKAS_clean_linker_0, # of connection points: 2
#     Edge 18, Type (0, 1), BuildingBlock: ZUJKAS_clean_linker_0, # of connection points: 2
#     Edge 19, Type (0, 1), BuildingBlock: ZUJKAS_clean_linker_0, # of connection points: 2
#     Edge 20, Type (0, 1), BuildingBlock: ZUJKAS_clean_linker_0, # of connection points: 2
#     Edge 21, Type (0, 1), BuildingBlock: ZUJKAS_clean_linker_0, # of connection points: 2
#     Edge 22, Type (0, 1), BuildingBlock: ZUJKAS_clean_linker_0, # of connection points: 2
#     Edge 23, Type (0, 1), BuildingBlock: ZUJKAS_clean_linker_0, # of connection points: 2
#     Edge 24, Type (0, 1), BuildingBlock: ZUJKAS_clean_linker_0, # of connection points: 2
#     Edge 25, Type (0, 1), BuildingBlock: ZUJKAS_clean_linker_0, # of connection points: 2
#     Edge 26, Type (0, 1), BuildingBlock: ZUJKAS_clean_linker_0, # of connection points: 2
#     Edge 27, Type (0, 1), BuildingBlock: ZUJKAS_clean_linker_0, # of connection points: 2
#     Edge 28, Type (0, 1), BuildingBlock: ZUJKAS_clean_linker_0, # of connection points: 2
#     Edge 29, Type (0, 1), BuildingBlock: ZUJKAS_clean_linker_0, # of connection points: 2
#     Edge 30, Type (0, 1), BuildingBlock: ZUJKAS_clean_linker_0, # of connection points: 2
#     Edge 31, Type (0, 1), BuildingBlock: ZUJKAS_clean_linker_0, # of connection points: 2
#     Edge 32, Type (0, 1), BuildingBlock: ZUJKAS_clean_linker_0, # of connection points: 2
#     Edge 33, Type (0, 1), BuildingBlock: ZUJKAS_clean_linker_0, # of connection points: 2
#     Edge 34, Type (0, 1), BuildingBlock: ZUJKAS_clean_linker_0, # of connection points: 2
#     Edge 35, Type (0, 1), BuildingBlock: ZUJKAS_clean_linker_0, # of connection points: 2
# Relax obj value: 0.069
# Max RMSD: 0.108
# Mean RMSD: 0.085
data_MOF--net-zzz--node1-CUKXOW_clean_sbu_0--node2-CUQRIR_clean_linker_1--edge1-ZUJKAS_clean_linker_0
_symmetry_space_group_name_H-M    P1
_symmetry_Int_Tables_number       1
_symmetry_cell_setting            triclinic
loop_
_symmetry_equiv_pos_as_xyz
'x, y, z'
_cell_length_a     62.776092
_cell_length_b     64.896132
_cell_length_c     18.48739
_cell_angle_alpha  92.924518
_cell_angle_beta   86.902664
_cell_angle_gamma 93.62071
loop_
_atom_site_label
_atom_site_type_symbol
_atom_site_fract_x
_atom_site_fract_y
_atom_site_fract_z
_atom_type_partial_charge
C0 C 0.74813 0.535 0.14653 0.0
N1 N 0.76939 0.53276 0.13827 0.0
N2 N 0.73989 0.53724 0.08141 0.0
C3 C 0.73522 0.5333 0.21698 0.0
C4 C 0.75685 0.53606 0.03329 0.0
N5 N 0.7748 0.53326 0.06788 0.0
C6 C 0.75558 0.53655 0.95235 0.0
H7 H 0.73385 0.51688 0.23165 0.0
H8 H 0.71896 0.53878 0.21285 0.0
H9 H 0.74341 0.54238 0.26091 0.0
H10 H 0.74375 0.54746 0.93821 0.0
H11 H 0.75027 0.52091 0.93069 0.0
H12 H 0.77134 0.54114 0.92596 0.0
C13 C 0.95129 0.75626 0.06661 0.0
N14 N 0.9533 0.77688 0.05808 0.0
N15 N 0.95533 0.74587 0.00257 0.0
C16 C 0.94653 0.74621 0.13754 0.0
C17 C 0.95997 0.76084 0.95491 0.0
N18 N 0.95863 0.77967 0.98859 0.0
C19 C 0.96801 0.75707 0.87759 0.0
H20 H 0.96184 0.74325 0.16137 0.0
H21 H 0.93742 0.73114 0.12903 0.0
H22 H 0.93735 0.75635 0.17619 0.0
H23 H 0.96179 0.76837 0.84228 0.0
H24 H 0.96329 0.74115 0.85718 0.0
H25 H 0.98572 0.75916 0.87468 0.0
C26 C 0.7486 0.97391 0.12143 0.0
N27 N 0.72706 0.97277 0.11928 0.0
N28 N 0.75777 0.97337 0.05338 0.0
C29 C 0.76067 0.97515 0.18967 0.0
C30 C 0.741 0.97199 0.00983 0.0
N31 N 0.72234 0.97144 0.04994 0.0
C32 C 0.7429 0.97365 0.9287 0.0
H33 H 0.76323 0.9916 0.20829 0.0
H34 H 0.7765 0.96853 0.17976 0.0
H35 H 0.75142 0.96684 0.23326 0.0
H36 H 0.74462 0.95799 0.90291 0.0
H37 H 0.7572 0.98358 0.91229 0.0
H38 H 0.72856 0.98005 0.90804 0.0
C39 C 0.56019 0.75422 0.12577 0.0
N40 N 0.55852 0.73333 0.11886 0.0
N41 N 0.56031 0.76249 0.05986 0.0
C42 C 0.56228 0.76655 0.19632 0.0
C43 C 0.55851 0.74585 0.01274 0.0
N44 N 0.55758 0.72816 0.0486 0.0
C45 C 0.55542 0.74696 0.93286 0.0
H46 H 0.54609 0.76937 0.22037 0.0
H47 H 0.57099 0.78171 0.18758 0.0
H48 H 0.57075 0.75793 0.23518 0.0
H49 H 0.57131 0.74919 0.90409 0.0
H50 H 0.54596 0.76029 0.92247 0.0
H51 H 0.54728 0.73259 0.9102 0.0
C52 C 0.26158 0.47722 0.1852 0.0
N53 N 0.24018 0.47891 0.19284 0.0
N54 N 0.26981 0.47542 0.25063 0.0
C55 C 0.27452 0.47828 0.11447 0.0
C56 C 0.25275 0.47635 0.29837 0.0
N57 N 0.23474 0.47854 0.26333 0.0
C58 C 0.25393 0.47606 0.37941 0.0
H59 H 0.2729 0.46305 0.08464 0.0
H60 H 0.29172 0.482 0.1228 0.0
H61 H 0.26841 0.48999 0.08044 0.0
H62 H 0.25831 0.49194 0.40103 0.0
H63 H 0.26636 0.46586 0.39413 0.0
H64 H 0.23836 0.47071 0.40541 0.0
C65 C 0.06074 0.25585 0.25295 0.0
N66 N 0.05861 0.23546 0.26499 0.0
N67 N 0.0606 0.26713 0.31663 0.0
C68 C 0.0606 0.26474 0.17955 0.0
C69 C 0.05808 0.25283 0.36773 0.0
N70 N 0.0568 0.23357 0.33627 0.0
C71 C 0.055 0.25782 0.44783 0.0
H72 H 0.07048 0.25573 0.13937 0.0
H73 H 0.06668 0.28118 0.18125 0.0
H74 H 0.04397 0.26368 0.16154 0.0
H75 H 0.03848 0.26261 0.45987 0.0
H76 H 0.06618 0.27086 0.4648 0.0
H77 H 0.05762 0.24429 0.47986 0.0
C78 C 0.26585 0.05176 0.22322 0.0
N79 N 0.2874 0.05324 0.22572 0.0
N80 N 0.25662 0.05097 0.29104 0.0
C81 C 0.25386 0.04913 0.15478 0.0
C82 C 0.27336 0.05214 0.33472 0.0
N83 N 0.29207 0.0535 0.29504 0.0
C84 C 0.27147 0.04983 0.41547 0.0
H85 H 0.23918 0.05781 0.16012 0.0
H86 H 0.24898 0.03252 0.14517 0.0
H87 H 0.26387 0.05453 0.10736 0.0
H88 H 0.2759 0.03412 0.42749 0.0
H89 H 0.255 0.05218 0.43787 0.0
H90 H 0.28262 0.06117 0.44303 0.0
C91 C 0.44444 0.25794 0.20189 0.0
N92 N 0.44693 0.27879 0.20905 0.0
N93 N 0.44735 0.24941 0.26573 0.0
C94 C 0.43863 0.24597 0.13333 0.0
C95 C 0.45192 0.26584 0.31176 0.0
N96 N 0.45154 0.28371 0.27736 0.0
C97 C 0.45906 0.2643 0.38765 0.0
H98 H 0.42867 0.25508 0.10056 0.0
H99 H 0.4299 0.23105 0.14573 0.0
H100 H 0.45348 0.24267 0.10067 0.0
H101 H 0.46711 0.24976 0.39313 0.0
H102 H 0.44485 0.26437 0.42599 0.0
H103 H 0.47019 0.27756 0.40301 0.0
Tb104 Tb 0.99768 0.99191 0.59563 0.0
C105 C 0.0479 0.00405 0.60325 0.0
Tb106 Tb 0.01417 0.02057 0.7208 0.0
O107 O 0.98527 0.01801 0.54318 0.0
O108 O 0.01128 0.02217 0.60832 0.0
O109 O 0.03242 0.99225 0.57242 0.0
C110 C 0.0225 0.05401 0.80673 0.0
O111 O 0.04432 0.01728 0.65921 0.0
C112 C 0.0143 0.98096 0.73954 0.0
C113 C 0.96433 0.00853 0.71275 0.0
O114 O 0.01969 0.03525 0.82825 0.0
O115 O 0.02064 0.05387 0.73728 0.0
O116 O 0.02765 0.99454 0.76961 0.0
O117 O 0.0007 0.99017 0.70798 0.0
O118 O 0.97932 0.02238 0.73581 0.0
O119 O 0.96875 0.99323 0.66495 0.0
C120 C 0.9895 0.95844 0.50993 0.0
O121 O 0.98168 0.97629 0.50398 0.0
O122 O 0.00205 0.9595 0.56369 0.0
C123 C 0.9983 0.03153 0.57483 0.0
Tb124 Tb 0.5055 0.03014 0.63721 0.0
C125 C 0.5432 0.00271 0.58754 0.0
Tb126 Tb 0.50737 0.98752 0.70524 0.0
O127 O 0.53532 0.0418 0.68462 0.0
O128 O 0.51569 0.01887 0.73387 0.0
O129 O 0.53116 0.01749 0.56861 0.0
C130 C 0.51754 0.95365 0.76832 0.0
O131 O 0.53789 0.99081 0.64293 0.0
C132 C 0.47914 0.98978 0.60673 0.0
C133 C 0.47145 0.01617 0.76292 0.0
O134 O 0.51429 0.95481 0.69995 0.0
O135 O 0.51489 0.9715 0.80125 0.0
O136 O 0.47698 0.97705 0.65891 0.0
O137 O 0.4974 0.99889 0.60841 0.0
O138 O 0.48317 0.0008 0.77866 0.0
O139 O 0.47621 0.02796 0.7068 0.0
C140 C 0.49375 0.0619 0.56595 0.0
O141 O 0.50004 0.06296 0.63187 0.0
O142 O 0.49426 0.04298 0.53987 0.0
C143 C 0.53367 0.02866 0.73576 0.0
Tb144 Tb 0.51251 0.52414 0.61635 0.0
C145 C 0.46786 0.50163 0.5929 0.0
Tb146 Tb 0.49802 0.48728 0.71152 0.0
O147 O 0.51308 0.50389 0.51813 0.0
O148 O 0.51838 0.49242 0.61846 0.0
O149 O 0.47944 0.51939 0.58761 0.0
C150 C 0.48435 0.45158 0.76868 0.0
O151 O 0.47337 0.48637 0.63202 0.0
C152 C 0.49532 0.52429 0.7741 0.0
C153 C 0.54321 0.50898 0.73236 0.0
O154 O 0.47492 0.46881 0.77801 0.0
O155 O 0.50149 0.45443 0.72705 0.0
O156 O 0.49827 0.50791 0.80883 0.0
O157 O 0.49216 0.51894 0.70901 0.0
O158 O 0.53129 0.49144 0.7388 0.0
O159 O 0.53781 0.52429 0.69315 0.0
C160 C 0.52427 0.5611 0.5652 0.0
O161 O 0.53389 0.5442 0.54931 0.0
O162 O 0.50804 0.55718 0.60995 0.0
C163 C 0.5156 0.48736 0.55276 0.0
Tb164 Tb 0.98549 0.50582 0.6198 0.0
C165 C 0.00948 0.46515 0.61098 0.0
Tb166 Tb 0.02382 0.50358 0.71608 0.0
O167 O 0.00649 0.50394 0.52193 0.0
O168 O 0.01785 0.51728 0.61854 0.0
O169 O 0.99108 0.47332 0.60065 0.0
C170 C 0.06151 0.49945 0.77192 0.0
O171 O 0.02482 0.47494 0.64873 0.0
C172 C 0.98602 0.49786 0.78139 0.0
C173 C -0.00061 0.54377 0.72665 0.0
O174 O 0.05858 0.50986 0.71558 0.0
O175 O 0.04329 0.49145 0.79662 0.0
O176 O 0.00275 0.50563 0.81376 0.0
O177 O 0.99147 0.49213 0.71728 0.0
O178 O 0.01832 0.5362 0.73317 0.0
O179 O 0.98373 0.53343 0.69204 0.0
C180 C 0.94799 0.51044 0.56339 0.0
O181 O 0.96535 0.52195 0.55143 0.0
O182 O 0.95171 0.49624 0.60728 0.0
C183 C 0.02325 0.51154 0.5544 0.0
H184 H 0.24259 0.01622 0.35554 0.0
H185 H 0.20594 0.00672 0.39863 0.0
H186 H 0.18467 0.06179 0.31031 0.0
H187 H 0.22179 0.07192 0.27181 0.0
H188 H 0.16827 0.0582 0.43993 0.0
H189 H 0.15585 0.98199 0.29738 0.0
H190 H 0.179 0.9825 0.35011 0.0
H191 H 0.17858 -0.00059 0.27579 0.0
C192 C 0.22999 0.02619 0.34535 0.0
C193 C 0.2348 0.04476 0.31067 0.0
C194 C 0.20904 0.02064 0.36891 0.0
C195 C 0.19241 0.03328 0.35627 0.0
C196 C 0.1972 0.05169 0.32014 0.0
H197 H 0.05882 0.99509 0.4608 0.0
H198 H 0.09368 0.00199 0.3983 0.0
C199 C 0.21828 0.05743 0.29777 0.0
C200 C 0.17041 0.0281 0.38609 0.0
H201 H 0.13215 0.98857 0.40217 0.0
C202 C 0.16027 0.04306 0.43082 0.0
C203 C 0.15975 0.00846 0.37335 0.0
C204 C 0.16879 0.99229 0.32084 0.0
C205 C 0.14013 0.03873 0.46498 0.0
C206 C 0.13022 0.01859 0.45669 0.0
C207 C 0.13997 0.00386 0.4099 0.0
C208 C 0.10962 0.01267 0.49548 0.0
C209 C 0.1296 0.05595 0.50867 0.0
C210 C 0.10722 0.01554 0.57121 0.0
C211 C 0.08726 0.01193 0.60684 0.0
C212 C 0.0695 0.00481 0.5676 0.0
C213 C 0.07225 0.00052 0.49251 0.0
C214 C 0.09214 0.00453 0.45668 0.0
H215 H 0.13568 0.07136 0.49029 0.0
H216 H 0.11197 0.05463 0.5047 0.0
H217 H 0.13328 0.05523 0.56647 0.0
H218 H 0.12066 0.02109 0.60262 0.0
H219 H 0.08563 0.01513 0.66491 0.0
H220 H 0.47185 0.22183 0.19316 0.0
H221 H 0.47688 0.18643 0.22696 0.0
H222 H 0.43096 0.19382 0.40726 0.0
H223 H 0.42555 0.22897 0.37187 0.0
H224 H 0.49262 0.17786 0.3548 0.0
H225 H 0.41362 0.13604 0.32717 0.0
H226 H 0.42069 0.16028 0.28551 0.0
H227 H 0.41202 0.15995 0.37985 0.0
C228 C 0.46239 0.21556 0.23851 0.0
C229 C 0.44825 0.22791 0.27987 0.0
C230 C 0.46532 0.19546 0.25805 0.0
C231 C 0.4541 0.18738 0.31912 0.0
C232 C 0.43942 0.19952 0.35901 0.0
H233 H 0.49317 0.10199 0.61532 0.0
H234 H 0.48322 0.13149 0.54985 0.0
C235 C 0.43646 0.2196 0.3393 0.0
C236 C 0.45956 0.16735 0.34613 0.0
H237 H 0.43804 0.12077 0.40177 0.0
C238 C 0.48073 0.16527 0.36411 0.0
C239 C 0.44409 0.15087 0.35772 0.0
C240 C 0.42138 0.15178 0.33586 0.0
C241 C 0.48668 0.14751 0.39601 0.0
C242 C 0.47096 0.13155 0.41143 0.0
C243 C 0.44998 0.13318 0.39069 0.0
C244 C 0.47598 0.11346 0.45154 0.0
C245 C 0.50972 0.14605 0.41352 0.0
C246 C 0.47461 0.0935 0.41853 0.0
C247 C 0.48031 0.07662 0.45587 0.0
C248 C 0.48724 0.07949 0.52689 0.0
C249 C 0.48804 0.0994 0.56041 0.0
C250 C 0.48243 0.11624 0.52306 0.0
H251 H 0.52058 0.15666 0.38114 0.0
H252 H 0.51157 0.15045 0.47175 0.0
H253 H 0.5148 0.13003 0.4033 0.0
H254 H 0.46951 0.09105 0.36354 0.0
H255 H 0.47942 0.06136 0.42911 0.0
H256 H 0.29119 0.44511 0.30134 0.0
H257 H 0.3271 0.4488 0.34962 0.0
H258 H 0.3334 0.51221 0.28775 0.0
H259 H 0.29734 0.50851 0.24121 0.0
H260 H 0.36856 0.46157 0.28935 0.0
H261 H 0.33911 0.51587 0.50904 0.0
H262 H 0.32133 0.50011 0.45255 0.0
H263 H 0.33475 0.52326 0.41897 0.0
C264 C 0.30053 0.45965 0.29726 0.0
C265 C 0.29181 0.47657 0.26814 0.0
C266 C 0.32091 0.46177 0.32459 0.0
C267 C 0.33269 0.48087 0.32316 0.0
C268 C 0.3244 0.49745 0.29026 0.0
H269 H 0.44872 0.5299 0.5173 0.0
H270 H 0.41678 0.52417 0.44732 0.0
C271 C 0.304 0.49533 0.26332 0.0
C272 C 0.35295 0.48389 0.36053 0.0
H273 H 0.37614 0.51093 0.50174 0.0
C274 C 0.37028 0.47233 0.33581 0.0
C275 C 0.35498 0.49784 0.42143 0.0
C276 C 0.33652 0.50986 0.45265 0.0
C277 C 0.38983 0.4747 0.3697 0.0
C278 C 0.39187 0.48878 0.43026 0.0
C279 C 0.37451 0.50026 0.45497 0.0
C280 C 0.41177 0.49178 0.46964 0.0
C281 C 0.40822 0.46241 0.3398 0.0
C282 C 0.41938 0.47546 0.5058 0.0
C283 C 0.43758 0.47868 0.54603 0.0
C284 C 0.44842 0.49831 0.55111 0.0
C285 C 0.44075 0.5146 0.51462 0.0
C286 C 0.42253 0.51137 0.47451 0.0
H287 H 0.40583 0.45642 0.28326 0.0
H288 H 0.42353 0.47195 0.34087 0.0
H289 H 0.40958 0.44899 0.37379 0.0
H290 H 0.41105 0.46033 0.50381 0.0
H291 H 0.44313 0.46575 0.57308 0.0
H292 H 0.0263 0.28594 0.27963 0.0
H293 H 0.01752 0.32157 0.31428 0.0
H294 H 0.07752 0.33172 0.41792 0.0
H295 H 0.08637 0.29618 0.38164 0.0
H296 H 0.01346 0.33551 0.45837 0.0
H297 H 0.07441 0.38447 0.30721 0.0
H298 H 0.06846 0.35754 0.28205 0.0
H299 H 0.08541 0.3647 0.35574 0.0
C300 C 0.03778 0.29609 0.30793 0.0
C301 C 0.05699 0.28865 0.32794 0.0
C302 C 0.03276 0.31629 0.32794 0.0
C303 C 0.04697 0.3293 0.36796 0.0
C304 C 0.06655 0.32206 0.38576 0.0
H305 H 0.04518 0.4436 0.61891 0.0
H306 H 0.05303 0.4107 0.55678 0.0
C307 C 0.07155 0.30184 0.36561 0.0
C308 C 0.04035 0.34958 0.39789 0.0
H309 H 0.05498 0.40111 0.40601 0.0
C310 C 0.02235 0.34991 0.44627 0.0
C311 C 0.05208 0.36824 0.38211 0.0
C312 C 0.07106 0.36882 0.32842 0.0
C313 C 0.01616 0.36839 0.48138 0.0
C314 C 0.02812 0.38701 0.46662 0.0
C315 C 0.04589 0.38675 0.41715 0.0
C316 C 0.02299 0.40683 0.50423 0.0
C317 C 0.99739 0.36772 0.53598 0.0
C318 C 0.00347 0.4155 0.49506 0.0
C319 C 0.99882 0.43429 0.53088 0.0
C320 C 0.01372 0.44474 0.57606 0.0
C321 C 0.03328 0.43594 0.5849 0.0
C322 C 0.03786 0.41718 0.54919 0.0
H323 H 0.99295 0.35175 0.55273 0.0
H324 H 0.00096 0.37764 0.58508 0.0
H325 H 0.98336 0.37365 0.51155 0.0
H326 H 0.99193 0.40786 0.45959 0.0
H327 H 0.98371 0.44072 0.52233 0.0
H328 H 0.78091 0.94979 0.9593 0.0
H329 H 0.81712 0.95853 0.9083 0.0
H330 H 0.82041 0.01423 0.0459 0.0
H331 H 0.78404 0.00563 0.09582 0.0
H332 H 0.82727 0.99899 0.83873 0.0
H333 H 0.87848 0.9852 0.06643 0.0
H334 H 0.85228 0.97236 0.05791 0.0
H335 H 0.8548 0.99916 0.0866 0.0
C336 C 0.78959 0.96369 0.97919 0.0
C337 C 0.77992 0.97701 0.03144 0.0
C338 C 0.81015 0.96868 0.95025 0.0
C339 C 0.82138 0.98695 0.97378 0.0
C340 C 0.81205 -7e-05 0.0279 0.0
H341 H 0.94941 0.034 0.825 0.0
H342 H 0.91403 0.03153 0.88804 0.0
C343 C 0.79142 0.99498 0.05655 0.0
C344 C 0.84211 0.99317 0.93737 0.0
H345 H 0.8958 0.99763 0.95963 0.0
C346 C 0.84228 0.99879 0.86512 0.0
C347 C 0.86151 0.99316 0.97257 0.0
C348 C 0.86197 0.98707 0.05009 0.0
C349 C 0.86149 0.00409 0.82644 0.0
C350 C 0.88102 0.00324 0.86056 0.0
C351 C 0.88079 0.99825 0.93366 0.0
C352 C 0.90186 0.00586 0.81975 0.0
C353 C 0.86067 0.01052 0.74939 0.0
C354 C 0.90665 0.99229 0.76054 0.0
C355 C 0.9267 0.99369 0.72436 0.0
C356 C 0.94251 0.00857 0.74715 0.0
C357 C 0.93757 0.02241 0.80587 0.0
C358 C 0.91742 0.02099 0.84209 0.0
H359 H 0.84508 0.01684 0.73976 0.0
H360 H 0.87366 0.02235 0.73605 0.0
H361 H 0.8626 0.99682 0.71175 0.0
H362 H 0.89504 0.98021 0.7434 0.0
H363 H 0.92993 0.98272 0.67959 0.0
H364 H 0.58566 0.78429 0.96555 0.0
H365 H 0.5801 0.81901 0.92584 0.0
H366 H 0.52571 0.82306 0.07778 0.0
H367 H 0.53103 0.78816 0.11591 0.0
H368 H 0.51683 0.83124 0.93791 0.0
H369 H 0.58982 0.87702 0.02132 0.0
H370 H 0.5951 0.85349 0.96994 0.0
H371 H 0.58149 0.85233 0.05786 0.0
C372 C 0.57279 0.79284 0.99104 0.0
C373 C 0.55883 0.78378 0.04386 0.0
C374 C 0.56969 0.81265 0.96886 0.0
C375 C 0.55265 0.82371 0.99954 0.0
C376 C 0.53907 0.81486 0.0539 0.0
H377 H 0.52539 0.94987 0.91035 0.0
H378 H 0.53398 0.9185 0.96863 0.0
C379 C 0.54217 0.79505 0.076 0.0
C380 C 0.54773 0.84358 0.97012 0.0
H381 H 0.56835 0.89245 0.9386 0.0
C382 C 0.52803 0.84468 0.93856 0.0
C383 C 0.56231 0.86111 0.97152 0.0
C384 C 0.58329 0.86107 0.00757 0.0
C385 C 0.52267 0.8627 0.90687 0.0
C386 C 0.53757 0.87997 0.90574 0.0
C387 C 0.55707 0.87908 0.9389 0.0
C388 C 0.53313 0.89904 0.8701 0.0
C389 C 0.50104 0.86314 0.87529 0.0
C390 C 0.5302 0.89852 0.79529 0.0
C391 C 0.52525 0.91635 0.76206 0.0
C392 C 0.52326 0.93499 0.8031 0.0
C393 C 0.52669 0.93563 0.87766 0.0
C394 C 0.53165 0.91778 0.9109 0.0
H395 H 0.4896 0.85091 0.89693 0.0
H396 H 0.49417 0.87838 0.8869 0.0
H397 H 0.50277 0.86044 0.81557 0.0
H398 H 0.53167 0.88429 0.76266 0.0
H399 H 0.52285 0.91551 0.70436 0.0
H400 H 0.71192 0.50446 0.09127 0.0
H401 H 0.67616 0.50098 0.04195 0.0
H402 H 0.68314 0.56455 0.98209 0.0
H403 H 0.71894 0.56784 0.03111 0.0
H404 H 0.63798 0.52406 0.06607 0.0
H405 H 0.67606 0.52998 0.7886 0.0
H406 H 0.69102 0.52545 0.86634 0.0
H407 H 0.68307 0.55096 0.85173 0.0
C408 C 0.70545 0.51773 0.06902 0.0
C409 C 0.71788 0.53636 0.06424 0.0
C410 C 0.68519 0.51576 0.04087 0.0
C411 C 0.67724 0.53242 0.00747 0.0
C412 C 0.68918 0.55146 0.0068 0.0
H413 H 0.56951 0.54404 0.74385 0.0
H414 H 0.60124 0.54979 0.81437 0.0
C415 C 0.70944 0.55338 0.03489 0.0
C416 C 0.65732 0.52939 0.96833 0.0
H417 H 0.63836 0.52785 0.79853 0.0
C418 C 0.63799 0.52488 0.00762 0.0
C419 C 0.65753 0.53036 0.89205 0.0
C420 C 0.67803 0.53427 0.84691 0.0
C421 C 0.6187 0.52166 0.97249 0.0
C422 C 0.61894 0.52264 0.89619 0.0
C423 C 0.63828 0.52715 0.85706 0.0
C424 C 0.59932 0.51908 0.85548 0.0
C425 C 0.59819 0.5176 0.01726 0.0
C426 C 0.58789 0.49979 0.85464 0.0
C427 C 0.56973 0.49638 0.81413 0.0
C428 C 0.56281 0.51219 0.7734 0.0
C429 C 0.57443 0.53145 0.77413 0.0
C430 C 0.59254 0.53483 0.81464 0.0
H431 H 0.59998 0.5223 0.07536 0.0
H432 H 0.58504 0.52598 0.99672 0.0
H433 H 0.59353 0.50082 0.01356 0.0
H434 H 0.59315 0.48732 0.8847 0.0
H435 H 0.56117 0.48137 0.81473 0.0
H436 H 0.99335 0.72937 0.98882 0.0
H437 H 6e-05 0.69322 0.95314 0.0
H438 H 0.93207 0.67841 0.95253 0.0
H439 H 0.92552 0.71469 0.98816 0.0
H440 H 0.98402 0.65382 0.01813 0.0
H441 H 0.95727 0.6647 0.74102 0.0
H442 H 0.9644 0.68617 0.80278 0.0
H443 H 0.93919 0.67185 0.81557 0.0
C444 C 0.97997 0.71818 0.98216 0.0
C445 C 0.95899 0.72442 0.99085 0.0
C446 C 0.98375 0.69769 0.96199 0.0
C447 C 0.96654 0.68331 0.94975 0.0
C448 C 0.94551 0.68939 0.96136 0.0
H449 H 0.96061 0.56019 0.74973 0.0
H450 H 0.95278 0.59344 0.80893 0.0
C451 C 0.94176 0.70992 0.98181 0.0
C452 C 0.97072 0.66239 0.91986 0.0
H453 H 0.96752 0.6316 0.76542 0.0
C454 C 0.98038 0.64886 0.963 0.0
C455 C 0.96602 0.65617 0.84784 0.0
C456 C 0.95629 0.67047 0.79865 0.0
C457 C 0.98523 0.629 0.93607 0.0
C458 C 0.98069 0.62284 0.86375 0.0
C459 C 0.97097 0.6364 0.82084 0.0
C460 C 0.98566 0.60233 0.83119 0.0
C461 C 0.9948 0.61468 0.98553 0.0
C462 C 0.00681 0.59637 0.82378 0.0
C463 C 0.01139 0.57728 0.78996 0.0
C464 C 0.99489 0.56402 0.76224 0.0
C465 C 0.97374 0.57011 0.7698 0.0
C466 C 0.9692 0.58907 0.8039 0.0
H467 H 0.99202 0.6196 0.04355 0.0
H468 H 0.98804 0.59857 0.97693 0.0
H469 H 0.01231 0.61482 0.97354 0.0
H470 H 0.0198 0.6066 0.8431 0.0
H471 H 0.02783 0.57304 0.78478 0.0
H472 H 0.02141 0.22503 0.42084 0.0
H473 H 0.00943 0.19134 0.4681 0.0
H474 H 0.06643 0.16525 0.37154 0.0
H475 H 0.07839 0.19906 0.32475 0.0
H476 H 0.02818 0.14263 0.33881 0.0
H477 H 0.03245 0.16089 0.63501 0.0
H478 H 0.01764 0.17817 0.58708 0.0
H479 H 0.0459 0.17702 0.56777 0.0
C480 C 0.03158 0.21219 0.41177 0.0
C481 C 0.05098 0.21453 0.37079 0.0
C482 C 0.02473 0.193 0.43831 0.0
C483 C 0.0372 0.17592 0.4241 0.0
C484 C 0.05667 0.17831 0.38349 0.0
H485 H 0.03342 0.05684 0.59968 0.0
H486 H 0.0406 0.09239 0.56444 0.0
C487 C 0.06353 0.19751 0.35714 0.0
C488 C 0.02951 0.15532 0.4485 0.0
H489 H 0.0172 0.12792 0.59939 0.0
C490 C 0.0257 0.13938 0.39575 0.0
C491 C 0.02639 0.15123 0.52281 0.0
C492 C 0.03096 0.16765 0.58162 0.0
C493 C 0.01902 0.11932 0.4154 0.0
C494 C 0.01581 0.11524 0.48971 0.0
C495 C 0.01945 0.13122 0.54245 0.0
C496 C 0.01051 0.0941 0.51393 0.0
C497 C 0.01615 0.10249 0.35669 0.0
C498 C 0.99103 0.08342 0.49807 0.0
C499 C 0.98679 0.06305 0.51877 0.0
C500 C 0.00194 0.05326 0.55587 0.0
C501 C 0.02126 0.06414 0.57245 0.0
C502 C 0.02545 0.08441 0.55201 0.0
H503 H 0.02307 0.10737 0.3032 0.0
H504 H 0.02374 0.08833 0.37077 0.0
H505 H 0.99884 0.0985 0.35139 0.0
H506 H 0.97921 0.09077 0.46937 0.0
H507 H 0.9718 0.05495 0.50539 0.0
H508 H 0.31468 0.02055 0.25682 0.0
H509 H 0.34879 0.01237 0.30266 0.0
H510 H 0.34898 0.06803 0.44087 0.0
H511 H 0.31556 0.07705 0.38981 0.0
H512 H 0.38863 0.06102 0.38835 0.0
H513 H 0.35082 0.98895 0.49745 0.0
H514 H 0.34884 0.98933 0.40122 0.0
H515 H 0.33553 0.00804 0.46003 0.0
C516 C 0.3223 0.03122 0.29572 0.0
C517 C 0.31259 0.04934 0.32031 0.0
C518 C 0.34159 0.02642 0.32267 0.0
C519 C 0.3511 0.03926 0.37682 0.0
C520 C 0.3418 0.05779 0.39964 0.0
H521 H 0.43861 0.99172 0.66294 0.0
H522 H 0.40852 0.00595 0.60858 0.0
C523 C 0.32269 0.06284 0.37121 0.0
C524 C 0.37016 0.03281 0.41172 0.0
H525 H 0.38871 0.99278 0.49745 0.0
C526 C 0.38866 0.04617 0.41272 0.0
C527 C 0.37002 0.01361 0.44482 0.0
C528 C 0.35016 0.99928 0.4516 0.0
C529 C 0.40713 0.04067 0.44496 0.0
C530 C 0.4073 0.02099 0.47467 0.0
C531 C 0.3887 0.00779 0.47412 0.0
C532 C 0.4262 0.01375 0.5087 0.0
C533 C 0.42601 0.05623 0.44831 0.0
C534 C 0.44622 0.01338 0.47087 0.0
C535 C 0.46358 0.0056 0.50272 0.0
C536 C 0.46099 0.99762 0.57192 0.0
C537 C 0.44094 0.99766 0.60919 0.0
C538 C 0.42378 0.00586 0.57824 0.0
H539 H 0.42105 0.07228 0.44515 0.0
H540 H 0.43455 0.05525 0.49896 0.0
H541 H 0.43734 0.05315 0.4014 0.0
H542 H 0.44838 0.01877 0.41636 0.0
H543 H 0.47892 0.00551 0.47292 0.0
H544 H 0.4825 0.31008 0.22256 0.0
H545 H 0.49278 0.34494 0.27049 0.0
H546 H 0.44565 0.33775 0.44763 0.0
H547 H 0.43451 0.30325 0.39673 0.0
H548 H 0.44547 0.37534 0.39459 0.0
H549 H 0.52878 0.35835 0.44152 0.0
H550 H 0.52234 0.3532 0.34877 0.0
H551 H 0.50865 0.33836 0.41876 0.0
C552 C 0.47419 0.31611 0.27115 0.0
C553 C 0.45769 0.30415 0.30604 0.0
C554 C 0.48026 0.33587 0.29911 0.0
C555 C 0.47032 0.34378 0.36357 0.0
C556 C 0.45364 0.3319 0.3981 0.0
H557 H 0.52413 0.45105 0.6098 0.0
H558 H 0.51176 0.41608 0.568 0.0
C559 C 0.44737 0.31223 0.36946 0.0
C560 C 0.47721 0.36452 0.39459 0.0
H561 H 0.52097 0.39394 0.44913 0.0
C562 C 0.46194 0.37938 0.40701 0.0
C563 C 0.49863 0.36966 0.41212 0.0
C564 C 0.51549 0.35398 0.40536 0.0
C565 C 0.46761 0.39939 0.43488 0.0
C566 C 0.48928 0.40485 0.44858 0.0
C567 C 0.50442 0.38984 0.43774 0.0
C568 C 0.49661 0.42603 0.47422 0.0
C569 C 0.45023 0.4143 0.45056 0.0
C570 C 0.49265 0.44318 0.43471 0.0
C571 C 0.49923 0.46311 0.45964 0.0
C572 C 0.51017 0.46622 0.52394 0.0
C573 C 0.51504 0.44904 0.5616 0.0
C574 C 0.50818 0.4291 0.53726 0.0
H575 H 0.43435 0.40601 0.45966 0.0
H576 H 0.45349 0.42462 0.49899 0.0
H577 H 0.44928 0.42402 0.40329 0.0
H578 H 0.48442 0.44117 0.38463 0.0
H579 H 0.49545 0.47611 0.42917 0.0
H580 H 0.22379 0.50825 0.36256 0.0
H581 H 0.18795 0.51368 0.4171 0.0
H582 H 0.16241 0.46159 0.28772 0.0
H583 H 0.19849 0.45578 0.23526 0.0
H584 H 0.15214 0.52232 0.34934 0.0
H585 H 0.13816 0.44884 0.4902 0.0
H586 H 0.16426 0.45784 0.4547 0.0
H587 H 0.14519 0.4453 0.39516 0.0
C588 C 0.21051 0.49778 0.34709 0.0
C589 C 0.21374 0.48142 0.29593 0.0
C590 C 0.1901 0.50096 0.37766 0.0
C591 C 0.17259 0.48782 0.35742 0.0
C592 C 0.17578 0.47159 0.30544 0.0
H593 H 0.03641 0.48503 0.44565 0.0
H594 H 0.0731 0.48001 0.39956 0.0
C595 C 0.19625 0.46836 0.27516 0.0
C596 C 0.15091 0.4916 0.38891 0.0
H597 H 0.10818 0.46928 0.48424 0.0
C598 C 0.14258 0.51079 0.37931 0.0
C599 C 0.13852 0.47653 0.42813 0.0
C600 C 0.14704 0.45604 0.44336 0.0
C601 C 0.12196 0.51515 0.40641 0.0
C602 C 0.10949 0.49998 0.4446 0.0
C603 C 0.11785 0.48085 0.45477 0.0
C604 C 0.08742 0.50339 0.4725 0.0
C605 C 0.11343 0.53573 0.39248 0.0
C606 C 0.08342 0.51819 0.52889 0.0
C607 C 0.06246 0.5211 0.55522 0.0
C608 C 0.04531 0.50919 0.52569 0.0
C609 C 0.04937 0.4945 0.46903 0.0
C610 C 0.07028 0.49153 0.44296 0.0
H611 H 0.12344 0.54413 0.35075 0.0
H612 H 0.0968 0.53362 0.37454 0.0
H613 H 0.11319 0.5455 0.44353 0.0
H614 H 0.0965 0.52734 0.5528 0.0
H615 H 0.05964 0.53267 0.59843 0.0
H616 H 0.99411 0.80254 0.02223 0.0
H617 H 0.00583 0.83671 0.97729 0.0
H618 H 0.95111 0.83427 0.84486 0.0
H619 H 0.93944 0.80014 0.89039 0.0
H620 H 0.01363 0.84818 0.82349 0.0
H621 H 0.94903 0.88927 0.97676 0.0
H622 H 0.9571 0.86441 0.00112 0.0
H623 H 0.94057 0.86614 0.92564 0.0
C624 C 0.98478 0.8094 0.98322 0.0
C625 C 0.966 0.79903 0.95924 0.0
C626 C 0.99142 0.82875 0.95765 0.0
C627 C 0.97922 0.83796 0.90827 0.0
C628 C 0.9606 0.82741 0.88342 0.0
H629 H 0.98208 0.95338 0.70104 0.0
H630 H 0.97531 0.91803 0.73975 0.0
C631 C 0.95403 0.80802 0.90884 0.0
C632 C 0.98574 0.85877 0.88353 0.0
H633 H 0.97041 0.90833 0.89092 0.0
C634 C 0.0043 0.8614 0.8384 0.0
C635 C 0.97353 0.87588 0.90376 0.0
C636 C 0.95403 0.87394 0.95497 0.0
C637 C 0.01065 0.88074 0.81098 0.0
C638 C 0.99819 0.89776 0.83006 0.0
C639 C 0.97982 0.89516 0.87617 0.0
C640 C 0.00359 0.91841 0.80177 0.0
C641 C 0.03026 0.88276 0.7604 0.0
C642 C 0.02189 0.93019 0.8233 0.0
C643 C 0.02583 0.95043 0.80115 0.0
C644 C 0.01147 0.95909 0.75742 0.0
C645 C 0.99347 0.94705 0.73448 0.0
C646 C 0.98954 0.9269 0.75668 0.0
H647 H 0.03579 0.86746 0.74052 0.0
H648 H 0.02703 0.89174 0.71303 0.0
H649 H 0.04339 0.89123 0.78946 0.0
H650 H 0.03276 0.92396 0.85892 0.0
H651 H 0.03977 0.95944 0.81969 0.0
H652 H 0.69926 0.00462 0.07412 0.0
H653 H 0.66544 0.01074 0.02112 0.0
H654 H 0.66519 0.95026 0.91224 0.0
H655 H 0.69959 0.94457 0.96403 0.0
H656 H 0.65512 0.9781 0.82192 0.0
H657 H 0.60627 0.98892 0.07632 0.0
H658 H 0.63021 0.0055 0.0775 0.0
H659 H 0.63193 0.97779 0.07242 0.0
C660 C 0.69169 0.99258 0.03983 0.0
C661 C 0.70162 0.97407 0.02354 0.0
C662 C 0.6724 0.996 0.00976 0.0
C663 C 0.66251 0.98078 0.96384 0.0
C664 C 0.67244 0.96216 0.94786 0.0
H665 H 0.53319 0.00368 0.84945 0.0
H666 H 0.56379 0.98845 0.89787 0.0
C667 C 0.69192 0.95885 0.97748 0.0
C668 C 0.64231 0.98486 0.93045 0.0
H669 H 0.59333 0.00343 0.97167 0.0
C670 C 0.64146 0.98335 0.8546 0.0
C671 C 0.62423 0.99111 0.97289 0.0
C672 C 0.62307 0.9907 0.05433 0.0
C673 C 0.62339 0.98889 0.82017 0.0
C674 C 0.60613 0.99703 0.86279 0.0
C675 C 0.60666 0.99761 0.93864 0.0
C676 C 0.58751 0.00537 0.83048 0.0
C677 C 0.62299 0.98572 0.73874 0.0
C678 C 0.59052 0.02022 0.77757 0.0
C679 C 0.57296 0.02818 0.74788 0.0
C680 C 0.55211 0.02183 0.77198 0.0
C681 C 0.54909 0.00797 0.82776 0.0
C682 C 0.5666 -0.00046 0.85602 0.0
H683 H 0.63287 0.97279 0.71865 0.0
H684 H 0.60648 0.98236 0.72079 0.0
H685 H 0.62988 -0.00011 0.71303 0.0
H686 H 0.60643 0.02573 0.75924 0.0
H687 H 0.57573 0.03907 0.7054 0.0
H688 H 0.52071 0.70603 0.07321 0.0
H689 H 0.51089 0.67121 0.02298 0.0
H690 H 0.5726 0.66965 0.90839 0.0
H691 H 0.58194 0.70494 0.95699 0.0
H692 H 0.54181 0.65443 0.8237 0.0
H693 H 0.5308 0.61825 0.08868 0.0
H694 H 0.51403 0.63943 0.08413 0.0
H695 H 0.54265 0.64408 0.07961 0.0
C696 C 0.53207 0.69809 0.0374 0.0
C697 C 0.55206 0.70777 0.01901 0.0
C698 C 0.52658 0.67824 0.00914 0.0
C699 C 0.5412 0.66762 0.96325 0.0
C700 C 0.56113 0.6775 0.94405 0.0
H701 H 0.52453 0.53523 0.87374 0.0
H702 H 0.53688 0.57011 0.91467 0.0
C703 C 0.56649 0.69751 0.97166 0.0
C704 C 0.53553 0.64632 0.93473 0.0
H705 H 0.51694 0.59857 0.98704 0.0
C706 C 0.53653 0.64215 0.85935 0.0
C707 C 0.52904 0.63021 0.98135 0.0
C708 C 0.52929 0.63315 0.0629 0.0
C709 C 0.53076 0.62241 0.82923 0.0
C710 C 0.5231 0.60661 0.87582 0.0
C711 C 0.52252 0.61073 0.95122 0.0
C712 C 0.51603 0.58555 0.84816 0.0
C713 C 0.53336 0.61864 0.74803 0.0
C714 C 0.5001 0.58255 0.79736 0.0
C715 C 0.4933 0.56258 0.77297 0.0
C716 C 0.50195 0.54535 0.80034 0.0
C717 C 0.51751 0.54831 0.85218 0.0
C718 C 0.52461 0.56823 0.87541 0.0
H719 H 0.54551 0.62977 0.72361 0.0
H720 H 0.53813 0.60271 0.73339 0.0
H721 H 0.51794 0.62075 0.7235 0.0
H722 H 0.49274 0.59562 0.77717 0.0
H723 H 0.48108 0.56057 0.73358 0.0
H724 H 0.81187 0.55425 0.09779 0.0
H725 H 0.8477 0.54692 0.04642 0.0
H726 H 0.82026 0.49629 0.91471 0.0
H727 H 0.78455 0.50341 0.96727 0.0
H728 H 0.86765 0.50772 0.04933 0.0
H729 H 0.85789 0.53204 0.76929 0.0
H730 H 0.84076 0.54023 0.84567 0.0
H731 H 0.83721 0.51451 0.80589 0.0
C732 C 0.81362 0.54165 0.05766 0.0
C733 C 0.79563 0.52955 0.03542 0.0
C734 C 0.83396 0.53749 0.02839 0.0
C735 C 0.8365 0.5213 0.97597 0.0
C736 C 0.81853 0.50912 0.95397 0.0
H737 H 0.94957 0.47756 0.73396 0.0
H738 H 0.91278 0.48208 0.78183 0.0
C739 C 0.79822 0.5132 0.98367 0.0
C740 C 0.85807 0.51671 0.94607 0.0
H741 H 0.89005 0.51691 0.79086 0.0
C742 C 0.87261 0.50974 0.99289 0.0
C743 C 0.86429 0.51918 0.87226 0.0
C744 C 0.84933 0.52704 0.82021 0.0
C745 C 0.89331 0.5051 0.96778 0.0
C746 C 0.89974 0.508 0.89423 0.0
C747 C 0.88507 0.5147 0.84717 0.0
C748 C 0.92188 0.50496 0.86574 0.0
C749 C 0.90796 0.49685 0.02009 0.0
C750 C 0.93906 0.51653 0.89634 0.0
C751 C 0.95993 0.51391 0.86932 0.0
C752 C 0.96395 0.49995 0.81039 0.0
C753 C 0.94679 0.48853 0.77909 0.0
C754 C 0.92585 0.49105 0.80651 0.0
H755 H 0.89878 0.48956 0.06618 0.0
H756 H 0.91836 0.4853 0.99264 0.0
H757 H 0.9183 0.50982 0.04279 0.0
H758 H 0.93631 0.52776 0.94067 0.0
H759 H 0.97289 0.52312 0.89376 0.0
H760 H 0.02141 0.21356 0.24853 0.0
H761 H 0.01529 0.18253 0.16886 0.0
H762 H 0.08057 0.18934 0.08324 0.0
H763 H 0.0867 0.22011 0.1648 0.0
H764 H 0.019 0.17669 0.01991 0.0
H765 H 0.07545 0.13026 0.15354 0.0
H766 H 0.06629 0.15432 0.1932 0.0
H767 H 0.08713 0.15442 0.12253 0.0
C768 C 0.0343 0.20839 0.21211 0.0
C769 C 0.05449 0.21893 0.21216 0.0
C770 C 0.03085 0.19077 0.16688 0.0
C771 C 0.04759 0.18348 0.12113 0.0
C772 C 0.06758 0.19452 0.11921 0.0
H773 H 0.03312 0.0928 0.7636 0.0
H774 H 0.03937 0.12417 0.84039 0.0
C775 C 0.07103 0.21212 0.16481 0.0
C776 C 0.04407 0.16422 0.07606 0.0
H777 H 0.06112 0.11551 0.04504 0.0
C778 C 0.02818 0.16329 0.02534 0.0
C779 C 0.05575 0.14664 0.08464 0.0
C780 C 0.07196 0.1463 0.14189 0.0
C781 C 0.02388 0.14533 0.98185 0.0
C782 C 0.03623 0.12805 0.98803 0.0
C783 C 0.05186 0.12886 0.03976 0.0
C784 C 0.0331 0.10894 0.94156 0.0
C785 C 0.00583 0.14493 0.93094 0.0
C786 C 0.02835 0.08982 0.97297 0.0
C787 C 0.02516 0.07181 0.92915 0.0
C788 C 0.02662 0.07271 0.85336 0.0
C789 C 0.03172 0.09176 0.822 0.0
C790 C 0.03513 0.1097 0.86576 0.0
H791 H 0.9941 0.15655 0.94848 0.0
H792 H 0.01242 0.1487 0.87597 0.0
H793 H 0.99726 0.12944 0.92731 0.0
H794 H 0.02685 0.08889 0.03139 0.0
H795 H 0.02127 0.05727 0.9545 0.0
H796 H 0.2896 0.02251 0.12233 0.0
H797 H 0.31999 0.01665 0.03613 0.0
H798 H 0.35117 0.07428 0.11185 0.0
H799 H 0.32079 0.07996 0.19843 0.0
H800 H 0.34095 0.039 0.92455 0.0
H801 H 0.39322 0.03101 0.15298 0.0
H802 H 0.36452 0.0312 0.1651 0.0
H803 H 0.38044 0.05505 0.15648 0.0
C804 C 0.30266 0.03417 0.1186 0.0
C805 C 0.30296 0.05176 0.16603 0.0
C806 C 0.32005 0.03076 0.07005 0.0
C807 C 0.33795 0.04486 0.06869 0.0
C808 C 0.33766 0.06305 0.11309 0.0
H809 H 0.44557 0.04826 0.75628 0.0
H810 H 0.41294 0.05454 0.82941 0.0
C811 C 0.32033 0.06639 0.16179 0.0
C812 C 0.35738 0.03997 0.02399 0.0
H813 H 0.41021 0.03166 0.03509 0.0
C814 C 0.3561 0.03736 0.94855 0.0
C815 C 0.37697 0.03736 0.05585 0.0
C816 C 0.37891 0.03858 0.13707 0.0
C817 C 0.37409 0.03268 0.90375 0.0
C818 C 0.39392 0.03102 0.93534 0.0
C819 C 0.39505 0.03317 0.01096 0.0
C820 C 0.41374 0.02715 0.891 0.0
C821 C 0.37158 0.02921 0.82322 0.0
C822 C 0.42543 0.01001 0.90301 0.0
C823 C 0.44432 0.00651 0.86197 0.0
C824 C 0.45186 0.02012 0.80824 0.0
C825 C 0.44019 0.03739 0.79692 0.0
C826 C 0.42141 0.04093 0.83827 0.0
H827 H 0.3547 0.02492 0.81082 0.0
H828 H 0.3765 0.04371 0.79589 0.0
H829 H 0.38173 0.01686 0.79996 0.0
H830 H 0.41984 0.99926 0.94382 0.0
H831 H 0.45287 0.99304 0.87197 0.0
H832 H 0.47078 0.27992 0.08374 0.0
H833 H 0.47374 0.30816 0.99944 0.0
H834 H 0.42441 0.33894 0.12658 0.0
H835 H 0.42171 0.31076 0.21106 0.0
H836 H 0.44489 0.32678 0.91484 0.0
H837 H 0.47594 0.38079 0.13285 0.0
H838 H 0.47346 0.35316 0.14114 0.0
H839 H 0.45034 0.36814 0.1552 0.0
C840 C 0.46024 0.29249 0.09222 0.0
C841 C 0.44604 0.29335 0.15338 0.0
C842 C 0.46199 0.30862 0.04455 0.0
C843 C 0.44958 0.3258 0.05764 0.0
C844 C 0.43443 0.32601 0.11636 0.0
H845 H 0.45106 0.44536 0.86702 0.0
H846 H 0.44126 0.41403 0.93282 0.0
C847 C 0.43277 0.30994 0.16413 0.0
C848 C 0.45343 0.34404 0.01269 0.0
H849 H 0.46987 0.39522 0.02138 0.0
C850 C 0.45035 0.34176 0.93799 0.0
C851 C 0.46073 0.3635 0.04314 0.0
C852 C 0.46552 0.36659 0.12231 0.0
C853 C 0.45405 0.35857 0.89303 0.0
C854 C 0.46119 0.37802 0.92364 0.0
C855 C 0.46424 0.38029 0.99829 0.0
C856 C 0.46605 0.39624 0.87925 0.0
C857 C 0.45005 0.35549 0.81337 0.0
C858 C 0.48319 0.39653 0.82725 0.0
C859 C 0.48887 0.41443 0.78986 0.0
C860 C 0.4775 0.43226 0.8041 0.0
C861 C 0.46007 0.43179 0.855 0.0
C862 C 0.45446 0.41395 0.89257 0.0
H863 H 0.44006 0.34109 0.80154 0.0
H864 H 0.44203 0.3688 0.79402 0.0
H865 H 0.46557 0.35439 0.78215 0.0
H866 H 0.49255 0.38313 0.81708 0.0
H867 H 0.5024 0.41443 0.75091 0.0
H868 H 0.23425 0.45467 0.07212 0.0
H869 H 0.20843 0.45874 0.97968 0.0
H870 H 0.1869 0.51321 0.09867 0.0
H871 H 0.21385 0.50997 0.18739 0.0
H872 H 0.16767 0.45577 0.99446 0.0
H873 H 0.1896 0.53387 0.90062 0.0
H874 H 0.2068 0.52061 0.95534 0.0
H875 H 0.18535 0.53498 0.99726 0.0
C876 C 0.2244 0.46782 0.07693 0.0
C877 C 0.22594 0.48202 0.13646 0.0
C878 C 0.20957 0.47007 0.02462 0.0
C879 C 0.1959 0.48648 0.0314 0.0
C880 C 0.19764 0.50078 0.09078 0.0
H881 H 0.06778 0.48488 0.90316 0.0
H882 H 0.10173 0.48113 0.95794 0.0
C883 C 0.21276 0.49875 0.14218 0.0
C884 C 0.17854 0.48758 0.98051 0.0
H885 H 0.15288 0.52112 0.88417 0.0
C886 C 0.1647 0.46998 0.96933 0.0
C887 C 0.17481 0.50594 0.94615 0.0
C888 C 0.19011 0.52481 0.94983 0.0
C889 C 0.14667 0.47054 0.92811 0.0
C890 C 0.14184 0.48945 0.89967 0.0
C891 C 0.15631 0.50673 0.90725 0.0
C892 C 0.12133 0.49188 0.8657 0.0
C893 C 0.13299 0.45083 0.9158 0.0
C894 C 0.12098 0.50005 0.79684 0.0
C895 C 0.10149 0.50269 0.76612 0.0
C896 C 0.08213 0.49708 0.80376 0.0
C897 C 0.08251 0.48909 0.87272 0.0
C898 C 0.10191 0.48677 0.90377 0.0
H899 H 0.14262 0.43705 0.91656 0.0
H900 H 0.12042 0.44956 0.96016 0.0
H901 H 0.12518 0.45048 0.86324 0.0
H902 H 0.13576 0.50429 0.76677 0.0
H903 H 0.10155 0.50892 0.71282 0.0
H904 H 0.97646 0.78125 0.177 0.0
H905 H 0.97929 0.81181 0.26043 0.0
H906 H 0.9325 0.84061 0.14313 0.0
H907 H 0.92954 0.80986 0.06033 0.0
H908 H 0.97114 0.86442 0.15958 0.0
H909 H 0.93856 0.83508 0.42257 0.0
H910 H 0.95834 0.81959 0.37669 0.0
H911 H 0.9332 0.82183 0.33655 0.0
C912 C 0.96626 0.79383 0.17095 0.0
C913 C 0.95255 0.79324 0.11337 0.0
C914 C 0.96793 0.81127 0.21822 0.0
C915 C 0.95589 0.82833 0.2084 0.0
C916 C 0.94177 0.82752 0.1519 0.0
H917 H 0.96188 0.95402 0.4009 0.0
H918 H 0.95294 0.92259 0.32685 0.0
C919 C 0.94005 0.81004 0.10492 0.0
C920 C 0.95952 0.84768 0.25281 0.0
H921 H 0.95754 0.86802 0.42667 0.0
C922 C 0.968 0.86531 0.21792 0.0
C923 C 0.95549 0.84866 0.32878 0.0
C924 C 0.94572 0.83034 0.36846 0.0
C925 C 0.97313 0.88381 0.25737 0.0
C926 C 0.96925 0.88477 0.33352 0.0
C927 C 0.96053 0.8672 0.36828 0.0
C928 C 0.97446 0.90378 0.37834 0.0
C929 C 0.98329 0.90194 0.21741 0.0
C930 C 0.98911 0.90345 0.43293 0.0
C931 C 0.99408 0.9213 0.4756 0.0
C932 C 0.98444 0.93973 0.46435 0.0
C933 C 0.96966 0.94002 0.41013 0.0
C934 C 0.96463 0.92214 0.36765 0.0
H935 H 0.99018 0.89706 0.16305 0.0
H936 H 0.97096 0.91303 0.20955 0.0
H937 H 0.99612 0.91012 0.2488 0.0
H938 H 0.99679 0.88939 0.44221 0.0
H939 H 0.00545 0.92067 0.51737 0.0
H940 H 0.69447 0.94527 0.14893 0.0
H941 H 0.66551 0.94925 0.24241 0.0
H942 H 0.69561 0.00761 0.31608 0.0
H943 H 0.72473 0.00336 0.22313 0.0
H944 H 0.6767 0.9839 0.43087 0.0
H945 H 0.62151 0.99134 0.2109 0.0
H946 H 0.63491 0.96762 0.20404 0.0
H947 H 0.65013 0.99188 0.19448 0.0
C948 C 0.69497 0.95871 0.18613 0.0
C949 C 0.71165 0.974 0.17948 0.0
C950 C 0.6785 0.96102 0.23919 0.0
C951 C 0.67831 0.97886 0.28549 0.0
C952 C 0.69552 0.99371 0.28104 0.0
H953 H 0.56264 0.02671 0.48276 0.0
H954 H 0.59688 0.02197 0.41709 0.0
C955 C 0.7121 0.99129 0.22826 0.0
C956 C 0.65924 0.9829 0.33354 0.0
H957 H 0.60594 0.9898 0.32904 0.0
C958 C 0.66121 0.98524 0.40885 0.0
C959 C 0.63917 0.98504 0.30451 0.0
C960 C 0.63628 0.98404 0.22402 0.0
C961 C 0.64345 0.98933 0.45595 0.0
C962 C 0.62325 0.99077 0.42666 0.0
C963 C 0.62142 0.98862 0.35143 0.0
C964 C 0.60361 0.99462 0.47213 0.0
C965 C 0.64656 0.99245 0.53621 0.0
C966 C 0.59603 0.98083 0.52495 0.0
C967 C 0.57645 0.98353 0.56279 0.0
C968 C 0.56396 -8e-05 0.5477 0.0
C969 C 0.57172 0.01381 0.49526 0.0
C970 C 0.59136 0.01119 0.45792 0.0
H971 H 0.66351 0.99679 0.54734 0.0
H972 H 0.63643 0.00461 0.56109 0.0
H973 H 0.64194 0.97779 0.563 0.0
H974 H 0.60494 0.96766 0.53561 0.0
H975 H 0.571 0.97257 0.60303 0.0
H976 H 0.5303 0.73246 0.23427 0.0
H977 H 0.52597 0.70593 0.32508 0.0
H978 H 0.57825 0.6743 0.21834 0.0
H979 H 0.58288 0.70115 0.12909 0.0
H980 H 0.51636 0.66418 0.2945 0.0
H981 H 0.59294 0.67557 0.43135 0.0
H982 H 0.58333 0.6948 0.37596 0.0
H983 H 0.59622 0.67289 0.33432 0.0
C984 C 0.54118 0.72012 0.23174 0.0
C985 C 0.55709 0.71886 0.17569 0.0
C986 C 0.53862 0.70493 0.28305 0.0
C987 C 0.55202 0.68833 0.27916 0.0
C988 C 0.56807 0.68722 0.22345 0.0
H989 H 0.55575 0.56993 0.46248 0.0
H990 H 0.5625 0.60217 0.39933 0.0
C991 C 0.57061 0.70241 0.17229 0.0
C992 C 0.54821 0.67134 0.32982 0.0
H993 H 0.57234 0.64394 0.45193 0.0
C994 C 0.52847 0.65992 0.32971 0.0
C995 C 0.5641 0.66578 0.37536 0.0
C996 C 0.58527 0.67801 0.37994 0.0
C997 C 0.52444 0.64264 0.37212 0.0
C998 C 0.54047 0.63684 0.41667 0.0
C999 C 0.56008 0.64846 0.41776 0.0
C1000 C 0.53747 0.61812 0.45963 0.0
C1001 C 0.50336 0.63024 0.36681 0.0
C1002 C 0.52156 0.61665 0.51579 0.0
C1003 C 0.51766 0.59825 0.55182 0.0
C1004 C 0.52968 0.5811 0.53232 0.0
C1005 C 0.5462 0.5829 0.47829 0.0
C1006 C 0.55008 0.60129 0.4423 0.0
H1007 H 0.49462 0.63423 0.31923 0.0
H1008 H 0.50583 0.61342 0.36277 0.0
H1009 H 0.49314 0.63347 0.41644 0.0
H1010 H 0.51191 0.62961 0.53081 0.0
H1011 H 0.50496 0.5973 0.59381 0.0
H1012 H 0.78219 0.55872 0.24728 0.0
H1013 H 0.81067 0.55342 0.3296 0.0
H1014 H 0.81721 0.49206 0.23285 0.0
H1015 H 0.78888 0.49758 0.15036 0.0
H1016 H 0.81676 0.5233 0.43107 0.0
H1017 H 0.87666 0.52107 0.19854 0.0
H1018 H 0.85014 0.52967 0.19077 0.0
H1019 H 0.85434 0.50254 0.19054 0.0
C1020 C 0.78947 0.54399 0.2452 0.0
C1021 C 0.78356 0.5285 0.19328 0.0
C1022 C 0.8057 0.54099 0.29169 0.0
C1023 C 0.81623 0.52247 0.28644 0.0
C1024 C 0.80951 0.50658 0.23691 0.0
H1025 H 0.91128 0.48569 0.57577 0.0
H1026 H 0.87836 0.48843 0.5119 0.0
C1027 C 0.79333 0.50963 0.19036 0.0
C1028 C 0.83505 0.5203 0.32961 0.0
H1029 H 0.88874 0.51441 0.31354 0.0
C1030 C 0.83251 0.52131 0.40557 0.0
C1031 C 0.8556 0.51804 0.29592 0.0
C1032 C 0.85948 0.51795 0.21453 0.0
C1033 C 0.85002 0.51997 0.44895 0.0
C1034 C 0.87049 0.51726 0.41519 0.0
C1035 C 0.873 0.51634 0.33921 0.0
C1036 C 0.88975 0.51605 0.45726 0.0
C1037 C 0.84658 0.52198 0.53035 0.0
C1038 C 0.9071 0.53052 0.4471 0.0
C1039 C 0.92588 0.52886 0.48282 0.0
C1040 C 0.92767 0.51267 0.52923 0.0
C1041 C 0.91023 0.49835 0.5404 0.0
C1042 C 0.89141 0.49998 0.50435 0.0
H1043 H 0.83128 0.52904 0.54688 0.0
H1044 H 0.84604 0.5064 0.55268 0.0
H1045 H 0.85988 0.53151 0.55499 0.0
H1046 H 0.90616 0.54301 0.41089 0.0
H1047 H 0.93911 0.5401 0.47333 0.0
loop_
_geom_bond_atom_site_label_1
_geom_bond_atom_site_label_2
_geom_bond_distance
_geom_bond_site_symmetry_2
_ccdc_geom_bond_type
C0 N1 1.317 . S
C0 N2 1.348 . S
C0 C3 1.485 . S
N1 C0 1.317 . S
N1 N5 1.370 . S
N2 C0 1.348 . S
N2 C4 1.346 1_554 S
C3 C0 1.485 . S
C3 H7 0.960 . S
C3 H8 0.961 . S
C3 H9 0.960 . S
C4 N2 1.346 1_556 S
C4 N5 1.307 1_556 S
C4 C6 1.486 . S
N5 N1 1.370 . S
N5 C4 1.307 1_554 S
C6 C4 1.486 . S
C6 H10 0.960 . S
C6 H11 0.960 . S
C6 H12 0.959 . S
H7 C3 0.960 . S
H8 C3 0.961 . S
H9 C3 0.960 . S
H10 C6 0.960 . S
H11 C6 0.960 . S
H12 C6 0.959 . S
C13 N14 1.317 . S
C13 N15 1.348 1_554 S
C13 C16 1.485 . S
N14 C13 1.317 . S
N14 N18 1.370 1_554 S
N15 C13 1.348 1_556 S
N15 C17 1.346 . S
C16 C13 1.485 . S
C16 H20 0.960 . S
C16 H21 0.961 . S
C16 H22 0.960 . S
C17 N15 1.346 . S
C17 N18 1.307 . S
C17 C19 1.486 . S
N18 N14 1.370 1_556 S
N18 C17 1.307 . S
C19 C17 1.486 . S
C19 H23 0.960 . S
C19 H24 0.960 . S
C19 H25 0.959 . S
H20 C16 0.960 . S
H21 C16 0.961 . S
H22 C16 0.960 . S
H23 C19 0.960 . S
H24 C19 0.960 . S
H25 C19 0.959 . S
C26 N27 1.317 . S
C26 N28 1.348 . S
C26 C29 1.485 . S
N27 C26 1.317 . S
N27 N31 1.370 . S
N28 C26 1.348 . S
N28 C30 1.346 1_554 S
C29 C26 1.485 . S
C29 H33 0.960 . S
C29 H34 0.961 . S
C29 H35 0.960 . S
C30 N28 1.346 1_556 S
C30 N31 1.307 1_556 S
C30 C32 1.486 . S
N31 N27 1.370 . S
N31 C30 1.307 1_554 S
C32 C30 1.486 . S
C32 H36 0.960 . S
C32 H37 0.960 . S
C32 H38 0.959 . S
H33 C29 0.960 . S
H34 C29 0.961 . S
H35 C29 0.960 . S
H36 C32 0.960 . S
H37 C32 0.960 . S
H38 C32 0.959 . S
C39 N40 1.317 . S
C39 N41 1.348 . S
C39 C42 1.485 . S
N40 C39 1.317 . S
N40 N44 1.370 . S
N41 C39 1.348 . S
N41 C43 1.346 . S
C42 C39 1.485 . S
C42 H46 0.960 . S
C42 H47 0.961 . S
C42 H48 0.960 . S
C43 N41 1.346 . S
C43 N44 1.307 . S
C43 C45 1.486 1_554 S
N44 N40 1.370 . S
N44 C43 1.307 . S
C45 C43 1.486 1_556 S
C45 H49 0.960 . S
C45 H50 0.960 . S
C45 H51 0.959 . S
H46 C42 0.960 . S
H47 C42 0.961 . S
H48 C42 0.960 . S
H49 C45 0.960 . S
H50 C45 0.960 . S
H51 C45 0.959 . S
C52 N53 1.317 . S
C52 N54 1.348 . S
C52 C55 1.485 . S
N53 C52 1.317 . S
N53 N57 1.370 . S
N54 C52 1.348 . S
N54 C56 1.346 . S
C55 C52 1.485 . S
C55 H59 0.960 . S
C55 H60 0.961 . S
C55 H61 0.960 . S
C56 N54 1.346 . S
C56 N57 1.307 . S
C56 C58 1.486 . S
N57 N53 1.370 . S
N57 C56 1.307 . S
C58 C56 1.486 . S
C58 H62 0.960 . S
C58 H63 0.960 . S
C58 H64 0.959 . S
H59 C55 0.960 . S
H60 C55 0.961 . S
H61 C55 0.960 . S
H62 C58 0.960 . S
H63 C58 0.960 . S
H64 C58 0.959 . S
C65 N66 1.317 . S
C65 N67 1.348 . S
C65 C68 1.485 . S
N66 C65 1.317 . S
N66 N70 1.370 . S
N67 C65 1.348 . S
N67 C69 1.346 . S
C68 C65 1.485 . S
C68 H72 0.960 . S
C68 H73 0.961 . S
C68 H74 0.960 . S
C69 N67 1.346 . S
C69 N70 1.307 . S
C69 C71 1.486 . S
N70 N66 1.370 . S
N70 C69 1.307 . S
C71 C69 1.486 . S
C71 H75 0.960 . S
C71 H76 0.960 . S
C71 H77 0.959 . S
H72 C68 0.960 . S
H73 C68 0.961 . S
H74 C68 0.960 . S
H75 C71 0.960 . S
H76 C71 0.960 . S
H77 C71 0.959 . S
C78 N79 1.317 . S
C78 N80 1.348 . S
C78 C81 1.485 . S
N79 C78 1.317 . S
N79 N83 1.370 . S
N80 C78 1.348 . S
N80 C82 1.346 . S
C81 C78 1.485 . S
C81 H85 0.960 . S
C81 H86 0.961 . S
C81 H87 0.960 . S
C82 N80 1.346 . S
C82 N83 1.307 . S
C82 C84 1.486 . S
N83 N79 1.370 . S
N83 C82 1.307 . S
C84 C82 1.486 . S
C84 H88 0.960 . S
C84 H89 0.960 . S
C84 H90 0.959 . S
H85 C81 0.960 . S
H86 C81 0.961 . S
H87 C81 0.960 . S
H88 C84 0.960 . S
H89 C84 0.960 . S
H90 C84 0.959 . S
C91 N92 1.317 . S
C91 N93 1.348 . S
C91 C94 1.485 . S
N92 C91 1.317 . S
N92 N96 1.370 . S
N93 C91 1.348 . S
N93 C95 1.346 . S
C94 C91 1.485 . S
C94 H98 0.960 . S
C94 H99 0.961 . S
C94 H100 0.960 . S
C95 N93 1.346 . S
C95 N96 1.307 . S
C95 C97 1.486 . S
N96 N92 1.370 . S
N96 C95 1.307 . S
C97 C95 1.486 . S
C97 H101 0.960 . S
C97 H102 0.960 . S
C97 H103 0.959 . S
H98 C94 0.960 . S
H99 C94 0.961 . S
H100 C94 0.960 . S
H101 C97 0.960 . S
H102 C97 0.960 . S
H103 C97 0.959 . S
Tb104 O107 2.441 1_565 S
Tb104 O108 2.587 1_665 S
Tb104 O109 2.373 1_665 S
Tb104 O117 2.349 1_655 S
Tb104 O119 2.352 1_565 S
Tb104 O121 2.437 . S
Tb104 O122 2.523 1_655 S
C105 O109 1.251 . S
C105 O111 1.263 . S
Tb106 O108 2.343 . S
Tb106 O111 2.353 . S
Tb106 O114 2.427 . S
Tb106 O115 2.513 . S
Tb106 O116 2.453 1_545 S
Tb106 O117 2.596 1_545 S
Tb106 O118 2.374 1_455 S
O107 Tb104 2.441 1_545 S
O107 C123 1.245 1_655 S
O108 Tb104 2.587 1_445 S
O108 Tb106 2.343 . S
O108 C123 1.259 . S
O109 Tb104 2.373 1_445 S
O109 C105 1.251 . S
C110 O114 1.275 . S
C110 O115 1.246 . S
O111 C105 1.263 . S
O111 Tb106 2.353 . S
C112 O116 1.245 . S
C112 O117 1.259 . S
C113 O118 1.250 . S
C113 O119 1.263 . S
O114 Tb106 2.427 . S
O114 C110 1.275 . S
O115 Tb106 2.513 . S
O115 C110 1.246 . S
O116 Tb106 2.453 1_565 S
O116 C112 1.245 . S
O117 Tb104 2.349 1_455 S
O117 Tb106 2.596 1_565 S
O117 C112 1.259 . S
O118 Tb106 2.374 1_655 S
O118 C113 1.250 . S
O119 Tb104 2.352 1_545 S
O119 C113 1.263 . S
C120 O121 1.275 . S
C120 O122 1.246 1_655 S
O121 Tb104 2.437 . S
O121 C120 1.275 . S
O122 Tb104 2.523 1_455 S
O122 C120 1.246 1_455 S
C123 O107 1.245 1_455 S
C123 O108 1.259 . S
Tb124 O127 2.453 . S
Tb124 O128 2.599 . S
Tb124 O129 2.374 . S
Tb124 O137 2.343 . S
Tb124 O139 2.353 . S
Tb124 O141 2.427 . S
Tb124 O142 2.513 . S
C125 O129 1.292 . S
C125 O131 1.231 1_545 S
Tb126 O128 2.341 1_565 S
Tb126 O131 2.353 . S
Tb126 O134 2.427 . S
Tb126 O135 2.513 . S
Tb126 O136 2.453 . S
Tb126 O137 2.596 1_565 S
Tb126 O138 2.374 . S
O127 Tb124 2.453 . S
O127 C143 1.245 . S
O128 Tb124 2.599 . S
O128 Tb126 2.341 1_545 S
O128 C143 1.261 . S
O129 Tb124 2.374 . S
O129 C125 1.292 . S
C130 O134 1.275 . S
C130 O135 1.246 . S
O131 C125 1.231 1_565 S
O131 Tb126 2.353 . S
C132 O136 1.245 1_545 S
C132 O137 1.259 . S
C133 O138 1.250 1_545 S
C133 O139 1.263 . S
O134 Tb126 2.427 . S
O134 C130 1.275 . S
O135 Tb126 2.513 . S
O135 C130 1.246 . S
O136 Tb126 2.453 . S
O136 C132 1.245 1_565 S
O137 Tb124 2.343 . S
O137 Tb126 2.596 1_545 S
O137 C132 1.259 . S
O138 Tb126 2.374 . S
O138 C133 1.250 1_565 S
O139 Tb124 2.353 . S
O139 C133 1.263 . S
C140 O141 1.275 . S
C140 O142 1.246 . S
O141 Tb124 2.427 . S
O141 C140 1.275 . S
O142 Tb124 2.513 . S
O142 C140 1.246 . S
C143 O127 1.245 . S
C143 O128 1.261 . S
Tb144 O147 2.453 . S
Tb144 O148 2.596 . S
Tb144 O149 2.374 . S
Tb144 O157 2.343 . S
Tb144 O159 2.353 . S
Tb144 O161 2.427 . S
Tb144 O162 2.513 . S
C145 O149 1.251 . S
C145 O151 1.263 . S
Tb146 O148 2.343 . S
Tb146 O151 2.353 . S
Tb146 O154 2.427 . S
Tb146 O155 2.513 . S
Tb146 O156 2.453 . S
Tb146 O157 2.596 . S
Tb146 O158 2.374 . S
O147 Tb144 2.453 . S
O147 C163 1.245 . S
O148 Tb144 2.596 . S
O148 Tb146 2.343 . S
O148 C163 1.259 . S
O149 Tb144 2.374 . S
O149 C145 1.251 . S
C150 O154 1.275 . S
C150 O155 1.246 . S
O151 C145 1.263 . S
O151 Tb146 2.353 . S
C152 O156 1.245 . S
C152 O157 1.259 . S
C153 O158 1.250 . S
C153 O159 1.263 . S
O154 Tb146 2.427 . S
O154 C150 1.275 . S
O155 Tb146 2.513 . S
O155 C150 1.246 . S
O156 Tb146 2.453 . S
O156 C152 1.245 . S
O157 Tb144 2.343 . S
O157 Tb146 2.596 . S
O157 C152 1.259 . S
O158 Tb146 2.374 . S
O158 C153 1.250 . S
O159 Tb144 2.353 . S
O159 C153 1.263 . S
C160 O161 1.275 . S
C160 O162 1.246 . S
O161 Tb144 2.427 . S
O161 C160 1.275 . S
O162 Tb144 2.513 . S
O162 C160 1.246 . S
C163 O147 1.245 . S
C163 O148 1.259 . S
Tb164 O167 2.430 1_655 S
Tb164 O168 2.577 1_655 S
Tb164 O169 2.371 1_655 S
Tb164 O177 2.352 . S
Tb164 O179 2.351 1_655 S
Tb164 O181 2.448 . S
Tb164 O182 2.534 . S
C165 O169 1.251 . S
C165 O171 1.263 . S
Tb166 O168 2.343 . S
Tb166 O171 2.353 . S
Tb166 O174 2.427 . S
Tb166 O175 2.513 . S
Tb166 O176 2.453 1_455 S
Tb166 O177 2.596 1_455 S
Tb166 O178 2.374 . S
O167 Tb164 2.430 1_455 S
O167 C183 1.245 . S
O168 Tb164 2.577 1_455 S
O168 Tb166 2.343 . S
O168 C183 1.259 . S
O169 Tb164 2.371 1_455 S
O169 C165 1.251 . S
C170 O174 1.275 . S
C170 O175 1.246 . S
O171 C165 1.263 . S
O171 Tb166 2.353 . S
C172 O176 1.245 . S
C172 O177 1.259 . S
C173 O178 1.250 . S
C173 O179 1.263 . S
O174 Tb166 2.427 . S
O174 C170 1.275 . S
O175 Tb166 2.513 . S
O175 C170 1.246 . S
O176 Tb166 2.453 1_655 S
O176 C172 1.245 . S
O177 Tb164 2.352 . S
O177 Tb166 2.596 1_655 S
O177 C172 1.259 . S
O178 Tb166 2.374 . S
O178 C173 1.250 . S
O179 Tb164 2.351 1_455 S
O179 C173 1.263 . S
C180 O181 1.275 . S
C180 O182 1.246 . S
O181 Tb164 2.448 . S
O181 C180 1.275 . S
O182 Tb164 2.534 . S
O182 C180 1.246 . S
C183 O167 1.245 . S
C183 O168 1.259 . S
H184 C192 0.929 . S
H185 C194 0.930 . S
H186 C196 0.930 . S
H187 C199 0.929 . S
H188 C202 0.930 . S
H189 C204 0.960 1_565 S
H190 C204 0.960 1_565 S
H191 C204 0.960 . S
C192 H184 0.929 . S
C192 C193 1.377 . S
C192 C194 1.384 . S
C193 C192 1.377 . S
C193 C199 1.390 . S
C194 H185 0.930 . S
C194 C192 1.384 . S
C194 C195 1.372 . S
C195 C194 1.372 . S
C195 C196 1.400 . S
C195 C200 1.490 . S
C196 H186 0.930 . S
C196 C195 1.400 . S
C196 C199 1.386 . S
H197 C213 0.930 . S
H198 C214 0.931 . S
C199 H187 0.929 . S
C199 C193 1.390 . S
C199 C196 1.386 . S
C200 C195 1.490 . S
C200 C202 1.395 . S
C200 C203 1.403 . S
H201 C207 0.930 . S
C202 H188 0.930 . S
C202 C200 1.395 . S
C202 C205 1.403 . S
C203 C200 1.403 . S
C203 C204 1.524 . S
C203 C207 1.400 . S
C204 H189 0.960 1_545 S
C204 H190 0.960 1_545 S
C204 H191 0.960 . S
C204 C203 1.524 . S
C205 C202 1.403 . S
C205 C206 1.392 . S
C205 C209 1.495 . S
C206 C205 1.392 . S
C206 C207 1.385 . S
C206 C208 1.478 . S
C207 H201 0.930 . S
C207 C203 1.400 . S
C207 C206 1.385 . S
C208 C206 1.478 . S
C208 C210 1.381 . S
C208 C214 1.383 . S
C209 C205 1.495 . S
C209 H215 0.959 . S
C209 H216 0.961 . S
C209 H217 0.960 . S
C210 C208 1.381 . S
C210 C211 1.394 . S
C210 H218 0.930 . S
C211 C210 1.394 . S
C211 C212 1.383 . S
C211 H219 0.929 . S
C212 C211 1.383 . S
C212 C213 1.377 . S
C213 H197 0.930 . S
C213 C212 1.377 . S
C213 C214 1.379 . S
C214 H198 0.931 . S
C214 C208 1.383 . S
C214 C213 1.379 . S
H215 C209 0.959 . S
H216 C209 0.961 . S
H217 C209 0.960 . S
H218 C210 0.930 . S
H219 C211 0.929 . S
H220 C228 0.929 . S
H221 C230 0.930 . S
H222 C232 0.930 . S
H223 C235 0.929 . S
H224 C238 0.930 . S
H225 C240 0.960 . S
H226 C240 0.960 . S
H227 C240 0.960 . S
C228 H220 0.929 . S
C228 C229 1.377 . S
C228 C230 1.384 . S
C229 C228 1.377 . S
C229 C235 1.390 . S
C230 H221 0.930 . S
C230 C228 1.384 . S
C230 C231 1.372 . S
C231 C230 1.372 . S
C231 C232 1.400 . S
C231 C236 1.490 . S
C232 H222 0.930 . S
C232 C231 1.400 . S
C232 C235 1.386 . S
H233 C249 0.930 . S
H234 C250 0.931 . S
C235 H223 0.929 . S
C235 C229 1.390 . S
C235 C232 1.386 . S
C236 C231 1.490 . S
C236 C238 1.395 . S
C236 C239 1.403 . S
H237 C243 0.930 . S
C238 H224 0.930 . S
C238 C236 1.395 . S
C238 C241 1.403 . S
C239 C236 1.403 . S
C239 C240 1.524 . S
C239 C243 1.400 . S
C240 H225 0.960 . S
C240 H226 0.960 . S
C240 H227 0.960 . S
C240 C239 1.524 . S
C241 C238 1.403 . S
C241 C242 1.392 . S
C241 C245 1.495 . S
C242 C241 1.392 . S
C242 C243 1.385 . S
C242 C244 1.478 . S
C243 H237 0.930 . S
C243 C239 1.400 . S
C243 C242 1.385 . S
C244 C242 1.478 . S
C244 C246 1.381 . S
C244 C250 1.383 . S
C245 C241 1.495 . S
C245 H251 0.959 . S
C245 H252 0.961 . S
C245 H253 0.960 . S
C246 C244 1.381 . S
C246 C247 1.394 . S
C246 H254 0.930 . S
C247 C246 1.394 . S
C247 C248 1.383 . S
C247 H255 0.929 . S
C248 C247 1.383 . S
C248 C249 1.377 . S
C249 H233 0.930 . S
C249 C248 1.377 . S
C249 C250 1.379 . S
C250 H234 0.931 . S
C250 C244 1.383 . S
C250 C249 1.379 . S
H251 C245 0.959 . S
H252 C245 0.961 . S
H253 C245 0.960 . S
H254 C246 0.930 . S
H255 C247 0.929 . S
H256 C264 0.929 . S
H257 C266 0.930 . S
H258 C268 0.930 . S
H259 C271 0.929 . S
H260 C274 0.930 . S
H261 C276 0.960 . S
H262 C276 0.960 . S
H263 C276 0.960 . S
C264 H256 0.929 . S
C264 C265 1.377 . S
C264 C266 1.384 . S
C265 C264 1.377 . S
C265 C271 1.390 . S
C266 H257 0.930 . S
C266 C264 1.384 . S
C266 C267 1.372 . S
C267 C266 1.372 . S
C267 C268 1.400 . S
C267 C272 1.490 . S
C268 H258 0.930 . S
C268 C267 1.400 . S
C268 C271 1.386 . S
H269 C285 0.930 . S
H270 C286 0.931 . S
C271 H259 0.929 . S
C271 C265 1.390 . S
C271 C268 1.386 . S
C272 C267 1.490 . S
C272 C274 1.395 . S
C272 C275 1.403 . S
H273 C279 0.930 . S
C274 H260 0.930 . S
C274 C272 1.395 . S
C274 C277 1.403 . S
C275 C272 1.403 . S
C275 C276 1.524 . S
C275 C279 1.400 . S
C276 H261 0.960 . S
C276 H262 0.960 . S
C276 H263 0.960 . S
C276 C275 1.524 . S
C277 C274 1.403 . S
C277 C278 1.392 . S
C277 C281 1.495 . S
C278 C277 1.392 . S
C278 C279 1.385 . S
C278 C280 1.478 . S
C279 H273 0.930 . S
C279 C275 1.400 . S
C279 C278 1.385 . S
C280 C278 1.478 . S
C280 C282 1.381 . S
C280 C286 1.383 . S
C281 C277 1.495 . S
C281 H287 0.959 . S
C281 H288 0.961 . S
C281 H289 0.960 . S
C282 C280 1.381 . S
C282 C283 1.394 . S
C282 H290 0.930 . S
C283 C282 1.394 . S
C283 C284 1.383 . S
C283 H291 0.929 . S
C284 C283 1.383 . S
C284 C285 1.377 . S
C285 H269 0.930 . S
C285 C284 1.377 . S
C285 C286 1.379 . S
C286 H270 0.931 . S
C286 C280 1.383 . S
C286 C285 1.379 . S
H287 C281 0.959 . S
H288 C281 0.961 . S
H289 C281 0.960 . S
H290 C282 0.930 . S
H291 C283 0.929 . S
H292 C300 0.929 . S
H293 C302 0.930 . S
H294 C304 0.930 . S
H295 C307 0.929 . S
H296 C310 0.930 . S
H297 C312 0.960 . S
H298 C312 0.960 . S
H299 C312 0.960 . S
C300 H292 0.929 . S
C300 C301 1.377 . S
C300 C302 1.384 . S
C301 C300 1.377 . S
C301 C307 1.390 . S
C302 H293 0.930 . S
C302 C300 1.384 . S
C302 C303 1.372 . S
C303 C302 1.372 . S
C303 C304 1.400 . S
C303 C308 1.490 . S
C304 H294 0.930 . S
C304 C303 1.400 . S
C304 C307 1.386 . S
H305 C321 0.930 . S
H306 C322 0.931 . S
C307 H295 0.929 . S
C307 C301 1.390 . S
C307 C304 1.386 . S
C308 C303 1.490 . S
C308 C310 1.395 . S
C308 C311 1.403 . S
H309 C315 0.930 . S
C310 H296 0.930 . S
C310 C308 1.395 . S
C310 C313 1.403 . S
C311 C308 1.403 . S
C311 C312 1.524 . S
C311 C315 1.400 . S
C312 H297 0.960 . S
C312 H298 0.960 . S
C312 H299 0.960 . S
C312 C311 1.524 . S
C313 C310 1.403 . S
C313 C314 1.392 . S
C313 C317 1.495 1_455 S
C314 C313 1.392 . S
C314 C315 1.385 . S
C314 C316 1.478 . S
C315 H309 0.930 . S
C315 C311 1.400 . S
C315 C314 1.385 . S
C316 C314 1.478 . S
C316 C318 1.381 . S
C316 C322 1.383 . S
C317 C313 1.495 1_655 S
C317 H323 0.959 . S
C317 H324 0.961 . S
C317 H325 0.960 . S
C318 C316 1.381 . S
C318 C319 1.394 . S
C318 H326 0.930 . S
C319 C318 1.394 . S
C319 C320 1.383 . S
C319 H327 0.914 1_455 S
C320 C319 1.383 . S
C320 C321 1.377 . S
C321 H305 0.930 . S
C321 C320 1.377 . S
C321 C322 1.379 . S
C322 H306 0.931 . S
C322 C316 1.383 . S
C322 C321 1.379 . S
H323 C317 0.959 . S
H324 C317 0.961 . S
H325 C317 0.960 . S
H326 C318 0.930 . S
H327 C319 0.914 1_655 S
H328 C336 0.929 . S
H329 C338 0.930 . S
H330 C340 0.930 1_545 S
H331 C343 0.929 1_554 S
H332 C346 0.930 . S
H333 C348 0.960 . S
H334 C348 0.960 . S
H335 C348 0.960 . S
C336 H328 0.929 . S
C336 C337 1.377 . S
C336 C338 1.384 . S
C337 C336 1.377 . S
C337 C343 1.390 . S
C338 H329 0.930 . S
C338 C336 1.384 . S
C338 C339 1.372 . S
C339 C338 1.372 . S
C339 C340 1.400 . S
C339 C344 1.490 . S
C340 H330 0.930 1_565 S
C340 C339 1.400 . S
C340 C343 1.386 . S
H341 C357 0.930 . S
H342 C358 0.931 . S
C343 H331 0.929 1_556 S
C343 C337 1.390 . S
C343 C340 1.386 . S
C344 C339 1.490 . S
C344 C346 1.395 . S
C344 C347 1.403 . S
H345 C351 0.930 . S
C346 H332 0.930 . S
C346 C344 1.395 . S
C346 C349 1.403 . S
C347 C344 1.403 . S
C347 C348 1.524 1_556 S
C347 C351 1.400 . S
C348 H333 0.960 . S
C348 H334 0.960 . S
C348 H335 0.960 . S
C348 C347 1.524 1_554 S
C349 C346 1.403 . S
C349 C350 1.392 . S
C349 C353 1.495 . S
C350 C349 1.392 . S
C350 C351 1.385 . S
C350 C352 1.478 . S
C351 H345 0.930 . S
C351 C347 1.400 . S
C351 C350 1.385 . S
C352 C350 1.478 . S
C352 C354 1.381 . S
C352 C358 1.383 1_565 S
C353 C349 1.495 . S
C353 H359 0.959 . S
C353 H360 0.961 . S
C353 H361 0.960 . S
C354 C352 1.381 . S
C354 C355 1.394 . S
C354 H362 0.930 . S
C355 C354 1.394 . S
C355 C356 1.383 . S
C355 H363 0.929 . S
C356 C355 1.383 . S
C356 C357 1.377 1_565 S
C357 H341 0.930 . S
C357 C356 1.377 1_545 S
C357 C358 1.379 . S
C358 H342 0.931 . S
C358 C352 1.383 1_545 S
C358 C357 1.379 . S
H359 C353 0.959 . S
H360 C353 0.961 . S
H361 C353 0.960 . S
H362 C354 0.930 . S
H363 C355 0.929 . S
H364 C372 0.929 . S
H365 C374 0.930 . S
H366 C376 0.930 . S
H367 C379 0.929 . S
H368 C382 0.930 . S
H369 C384 0.960 . S
H370 C384 0.960 . S
H371 C384 0.960 . S
C372 H364 0.929 . S
C372 C373 1.377 1_556 S
C372 C374 1.384 . S
C373 C372 1.377 1_554 S
C373 C379 1.390 . S
C374 H365 0.930 . S
C374 C372 1.384 . S
C374 C375 1.372 . S
C375 C374 1.372 . S
C375 C376 1.400 1_556 S
C375 C380 1.490 . S
C376 H366 0.930 . S
C376 C375 1.400 1_554 S
C376 C379 1.386 . S
H377 C393 0.930 . S
H378 C394 0.931 . S
C379 H367 0.929 . S
C379 C373 1.390 . S
C379 C376 1.386 . S
C380 C375 1.490 . S
C380 C382 1.395 . S
C380 C383 1.403 . S
H381 C387 0.930 . S
C382 H368 0.930 . S
C382 C380 1.395 . S
C382 C385 1.403 . S
C383 C380 1.403 . S
C383 C384 1.524 1_556 S
C383 C387 1.400 . S
C384 H369 0.960 . S
C384 H370 0.960 . S
C384 H371 0.960 . S
C384 C383 1.524 1_554 S
C385 C382 1.403 . S
C385 C386 1.392 . S
C385 C389 1.495 . S
C386 C385 1.392 . S
C386 C387 1.385 . S
C386 C388 1.478 . S
C387 H381 0.930 . S
C387 C383 1.400 . S
C387 C386 1.385 . S
C388 C386 1.478 . S
C388 C390 1.381 . S
C388 C394 1.383 . S
C389 C385 1.495 . S
C389 H395 0.959 . S
C389 H396 0.961 . S
C389 H397 0.960 . S
C390 C388 1.381 . S
C390 C391 1.394 . S
C390 H398 0.930 . S
C391 C390 1.394 . S
C391 C392 1.383 . S
C391 H399 0.929 . S
C392 C391 1.383 . S
C392 C393 1.377 . S
C393 H377 0.930 . S
C393 C392 1.377 . S
C393 C394 1.379 . S
C394 H378 0.931 . S
C394 C388 1.383 . S
C394 C393 1.379 . S
H395 C389 0.959 . S
H396 C389 0.961 . S
H397 C389 0.960 . S
H398 C390 0.930 . S
H399 C391 0.929 . S
H400 C408 0.929 . S
H401 C410 0.930 1_554 S
H402 C412 0.930 . S
H403 C415 0.929 . S
H404 C418 0.930 1_554 S
H405 C420 0.960 . S
H406 C420 0.960 . S
H407 C420 0.960 . S
C408 H400 0.929 . S
C408 C409 1.377 . S
C408 C410 1.384 1_554 S
C409 C408 1.377 . S
C409 C415 1.390 1_554 S
C410 H401 0.930 1_556 S
C410 C408 1.384 1_556 S
C410 C411 1.372 . S
C411 C410 1.372 . S
C411 C412 1.400 . S
C411 C416 1.490 . S
C412 H402 0.930 . S
C412 C411 1.400 . S
C412 C415 1.386 . S
H413 C429 0.930 . S
H414 C430 0.931 . S
C415 H403 0.929 . S
C415 C409 1.390 1_556 S
C415 C412 1.386 . S
C416 C411 1.490 . S
C416 C418 1.395 . S
C416 C419 1.403 . S
H417 C423 0.930 . S
C418 H404 0.930 1_556 S
C418 C416 1.395 . S
C418 C421 1.403 . S
C419 C416 1.403 . S
C419 C420 1.524 . S
C419 C423 1.400 . S
C420 H405 0.960 . S
C420 H406 0.960 . S
C420 H407 0.960 . S
C420 C419 1.524 . S
C421 C418 1.403 . S
C421 C422 1.392 . S
C421 C425 1.495 . S
C422 C421 1.392 . S
C422 C423 1.385 . S
C422 C424 1.478 . S
C423 H417 0.930 . S
C423 C419 1.400 . S
C423 C422 1.385 . S
C424 C422 1.478 . S
C424 C426 1.381 . S
C424 C430 1.383 . S
C425 C421 1.495 . S
C425 H431 0.959 1_556 S
C425 H432 0.961 . S
C425 H433 0.960 . S
C426 C424 1.381 . S
C426 C427 1.394 . S
C426 H434 0.930 . S
C427 C426 1.394 . S
C427 C428 1.383 . S
C427 H435 0.929 . S
C428 C427 1.383 . S
C428 C429 1.377 . S
C429 H413 0.930 . S
C429 C428 1.377 . S
C429 C430 1.379 . S
C430 H414 0.931 . S
C430 C424 1.383 . S
C430 C429 1.379 . S
H431 C425 0.959 1_554 S
H432 C425 0.961 . S
H433 C425 0.960 . S
H434 C426 0.930 . S
H435 C427 0.929 . S
H436 C444 0.929 . S
H437 C446 0.930 . S
H438 C448 0.930 . S
H439 C451 0.932 . S
H440 C454 0.930 1_455 S
H441 C456 0.960 . S
H442 C456 0.960 . S
H443 C456 0.960 . S
C444 H436 0.929 . S
C444 C445 1.377 . S
C444 C446 1.384 . S
C445 C444 1.377 . S
C445 C451 1.390 . S
C446 H437 0.930 . S
C446 C444 1.384 . S
C446 C447 1.372 . S
C447 C446 1.372 . S
C447 C448 1.400 . S
C447 C452 1.490 . S
C448 H438 0.930 . S
C448 C447 1.400 . S
C448 C451 1.386 . S
H449 C465 0.930 . S
H450 C466 0.931 . S
C451 H439 0.932 . S
C451 C445 1.390 . S
C451 C448 1.386 . S
C452 C447 1.490 . S
C452 C454 1.395 . S
C452 C455 1.403 . S
H453 C459 0.930 . S
C454 H440 0.930 1_655 S
C454 C452 1.395 . S
C454 C457 1.403 1_655 S
C455 C452 1.403 . S
C455 C456 1.524 . S
C455 C459 1.400 . S
C456 H441 0.960 . S
C456 H442 0.960 . S
C456 H443 0.960 . S
C456 C455 1.524 . S
C457 C454 1.403 1_455 S
C457 C458 1.392 1_455 S
C457 C461 1.495 . S
C458 C457 1.392 1_655 S
C458 C459 1.385 . S
C458 C460 1.478 . S
C459 H453 0.930 . S
C459 C455 1.400 . S
C459 C458 1.385 . S
C460 C458 1.478 . S
C460 C462 1.381 1_655 S
C460 C466 1.383 . S
C461 C457 1.495 . S
C461 H467 0.959 . S
C461 H468 0.961 . S
C461 H469 0.960 . S
C462 C460 1.381 1_455 S
C462 C463 1.394 . S
C462 H470 0.930 . S
C463 C462 1.394 . S
C463 C464 1.383 1_455 S
C463 H471 0.929 . S
C464 C463 1.383 1_655 S
C464 C465 1.377 . S
C465 H449 0.930 . S
C465 C464 1.377 . S
C465 C466 1.379 . S
C466 H450 0.931 . S
C466 C460 1.383 . S
C466 C465 1.379 . S
H467 C461 0.959 . S
H468 C461 0.961 . S
H469 C461 0.960 . S
H470 C462 0.930 . S
H471 C463 0.929 . S
H472 C480 0.929 . S
H473 C482 0.930 . S
H474 C484 0.930 . S
H475 C487 0.929 . S
H476 C490 0.930 . S
H477 C492 0.960 . S
H478 C492 0.960 . S
H479 C492 0.960 . S
C480 H472 0.929 . S
C480 C481 1.377 . S
C480 C482 1.384 . S
C481 C480 1.377 . S
C481 C487 1.390 . S
C482 H473 0.930 . S
C482 C480 1.384 . S
C482 C483 1.372 . S
C483 C482 1.372 . S
C483 C484 1.400 . S
C483 C488 1.490 . S
C484 H474 0.930 . S
C484 C483 1.400 . S
C484 C487 1.386 . S
H485 C501 0.930 . S
H486 C502 0.931 . S
C487 H475 0.929 . S
C487 C481 1.390 . S
C487 C484 1.386 . S
C488 C483 1.490 . S
C488 C490 1.395 . S
C488 C491 1.403 . S
H489 C495 0.930 . S
C490 H476 0.930 . S
C490 C488 1.395 . S
C490 C493 1.403 . S
C491 C488 1.403 . S
C491 C492 1.524 . S
C491 C495 1.400 . S
C492 H477 0.960 . S
C492 H478 0.960 . S
C492 H479 0.960 . S
C492 C491 1.524 . S
C493 C490 1.403 . S
C493 C494 1.392 . S
C493 C497 1.495 1_455 S
C494 C493 1.392 . S
C494 C495 1.385 . S
C494 C496 1.478 . S
C495 H489 0.930 . S
C495 C491 1.400 . S
C495 C494 1.385 . S
C496 C494 1.478 . S
C496 C498 1.381 . S
C496 C502 1.383 . S
C497 C493 1.495 1_655 S
C497 H503 0.959 . S
C497 H504 0.961 . S
C497 H505 0.960 . S
C498 C496 1.381 . S
C498 C499 1.394 1_455 S
C498 H506 0.930 1_455 S
C499 C498 1.394 1_655 S
C499 C500 1.383 1_655 S
C499 H507 0.929 . S
C500 C499 1.383 1_455 S
C500 C501 1.377 . S
C501 H485 0.930 . S
C501 C500 1.377 . S
C501 C502 1.379 . S
C502 H486 0.931 . S
C502 C496 1.383 . S
C502 C501 1.379 . S
H503 C497 0.959 . S
H504 C497 0.961 . S
H505 C497 0.960 . S
H506 C498 0.930 1_655 S
H507 C499 0.929 . S
H508 C516 0.929 . S
H509 C518 0.930 . S
H510 C520 0.930 . S
H511 C523 0.929 . S
H512 C526 0.930 . S
H513 C528 0.960 . S
H514 C528 0.960 . S
H515 C528 0.960 . S
C516 H508 0.929 . S
C516 C517 1.377 . S
C516 C518 1.384 . S
C517 C516 1.377 . S
C517 C523 1.390 . S
C518 H509 0.930 . S
C518 C516 1.384 . S
C518 C519 1.372 . S
C519 C518 1.372 . S
C519 C520 1.400 . S
C519 C524 1.490 . S
C520 H510 0.930 . S
C520 C519 1.400 . S
C520 C523 1.386 . S
H521 C537 0.930 . S
H522 C538 0.931 . S
C523 H511 0.929 . S
C523 C517 1.390 . S
C523 C520 1.386 . S
C524 C519 1.490 . S
C524 C526 1.395 . S
C524 C527 1.403 . S
H525 C531 0.930 . S
C526 H512 0.930 . S
C526 C524 1.395 . S
C526 C529 1.403 . S
C527 C524 1.403 . S
C527 C528 1.524 . S
C527 C531 1.400 . S
C528 H513 0.960 . S
C528 H514 0.960 . S
C528 H515 0.960 . S
C528 C527 1.524 . S
C529 C526 1.403 . S
C529 C530 1.392 . S
C529 C533 1.495 . S
C530 C529 1.392 . S
C530 C531 1.385 . S
C530 C532 1.478 . S
C531 H525 0.930 . S
C531 C527 1.400 . S
C531 C530 1.385 . S
C532 C530 1.478 . S
C532 C534 1.381 . S
C532 C538 1.383 . S
C533 C529 1.495 . S
C533 H539 0.959 . S
C533 H540 0.961 . S
C533 H541 0.960 . S
C534 C532 1.381 . S
C534 C535 1.394 . S
C534 H542 0.930 . S
C535 C534 1.394 . S
C535 C536 1.383 . S
C535 H543 0.916 1_545 S
C536 C535 1.383 . S
C536 C537 1.377 . S
C537 H521 0.930 . S
C537 C536 1.377 . S
C537 C538 1.379 . S
C538 H522 0.931 . S
C538 C532 1.383 . S
C538 C537 1.379 . S
H539 C533 0.959 . S
H540 C533 0.961 . S
H541 C533 0.960 . S
H542 C534 0.930 . S
H543 C535 0.916 1_565 S
H544 C552 0.929 . S
H545 C554 0.930 . S
H546 C556 0.930 . S
H547 C559 0.929 . S
H548 C562 0.930 . S
H549 C564 0.960 . S
H550 C564 0.960 . S
H551 C564 0.960 . S
C552 H544 0.929 . S
C552 C553 1.377 . S
C552 C554 1.384 . S
C553 C552 1.377 . S
C553 C559 1.390 . S
C554 H545 0.930 . S
C554 C552 1.384 . S
C554 C555 1.372 . S
C555 C554 1.372 . S
C555 C556 1.400 . S
C555 C560 1.490 . S
C556 H546 0.930 . S
C556 C555 1.400 . S
C556 C559 1.386 . S
H557 C573 0.930 . S
H558 C574 0.931 . S
C559 H547 0.929 . S
C559 C553 1.390 . S
C559 C556 1.386 . S
C560 C555 1.490 . S
C560 C562 1.395 . S
C560 C563 1.403 . S
H561 C567 0.930 . S
C562 H548 0.930 . S
C562 C560 1.395 . S
C562 C565 1.403 . S
C563 C560 1.403 . S
C563 C564 1.524 . S
C563 C567 1.400 . S
C564 H549 0.960 . S
C564 H550 0.960 . S
C564 H551 0.960 . S
C564 C563 1.524 . S
C565 C562 1.403 . S
C565 C566 1.392 . S
C565 C569 1.495 . S
C566 C565 1.392 . S
C566 C567 1.385 . S
C566 C568 1.478 . S
C567 H561 0.930 . S
C567 C563 1.400 . S
C567 C566 1.385 . S
C568 C566 1.478 . S
C568 C570 1.381 . S
C568 C574 1.383 . S
C569 C565 1.495 . S
C569 H575 0.959 . S
C569 H576 0.961 . S
C569 H577 0.960 . S
C570 C568 1.381 . S
C570 C571 1.394 . S
C570 H578 0.930 . S
C571 C570 1.394 . S
C571 C572 1.383 . S
C571 H579 0.929 . S
C572 C571 1.383 . S
C572 C573 1.377 . S
C573 H557 0.930 . S
C573 C572 1.377 . S
C573 C574 1.379 . S
C574 H558 0.931 . S
C574 C568 1.383 . S
C574 C573 1.379 . S
H575 C569 0.959 . S
H576 C569 0.961 . S
H577 C569 0.960 . S
H578 C570 0.930 . S
H579 C571 0.929 . S
H580 C588 0.929 . S
H581 C590 0.930 . S
H582 C592 0.930 . S
H583 C595 0.929 . S
H584 C598 0.930 . S
H585 C600 0.960 . S
H586 C600 0.960 . S
H587 C600 0.960 . S
C588 H580 0.929 . S
C588 C589 1.377 . S
C588 C590 1.384 . S
C589 C588 1.377 . S
C589 C595 1.390 . S
C590 H581 0.930 . S
C590 C588 1.384 . S
C590 C591 1.372 . S
C591 C590 1.372 . S
C591 C592 1.400 . S
C591 C596 1.490 . S
C592 H582 0.930 . S
C592 C591 1.400 . S
C592 C595 1.386 . S
H593 C609 0.930 . S
H594 C610 0.931 . S
C595 H583 0.929 . S
C595 C589 1.390 . S
C595 C592 1.386 . S
C596 C591 1.490 . S
C596 C598 1.395 . S
C596 C599 1.403 . S
H597 C603 0.930 . S
C598 H584 0.930 . S
C598 C596 1.395 . S
C598 C601 1.403 . S
C599 C596 1.403 . S
C599 C600 1.524 . S
C599 C603 1.400 . S
C600 H585 0.960 . S
C600 H586 0.960 . S
C600 H587 0.960 . S
C600 C599 1.524 . S
C601 C598 1.403 . S
C601 C602 1.392 . S
C601 C605 1.495 . S
C602 C601 1.392 . S
C602 C603 1.385 . S
C602 C604 1.478 . S
C603 H597 0.930 . S
C603 C599 1.400 . S
C603 C602 1.385 . S
C604 C602 1.478 . S
C604 C606 1.381 . S
C604 C610 1.383 . S
C605 C601 1.495 . S
C605 H611 0.959 . S
C605 H612 0.961 . S
C605 H613 0.960 . S
C606 C604 1.381 . S
C606 C607 1.394 . S
C606 H614 0.930 . S
C607 C606 1.394 . S
C607 C608 1.383 . S
C607 H615 0.929 . S
C608 C607 1.383 . S
C608 C609 1.377 . S
C609 H593 0.930 . S
C609 C608 1.377 . S
C609 C610 1.379 . S
C610 H594 0.931 . S
C610 C604 1.383 . S
C610 C609 1.379 . S
H611 C605 0.959 . S
H612 C605 0.961 . S
H613 C605 0.960 . S
H614 C606 0.930 . S
H615 C607 0.929 . S
H616 C624 0.929 1_554 S
H617 C626 0.930 1_554 S
H618 C628 0.930 . S
H619 C631 0.929 . S
H620 C634 0.930 1_455 S
H621 C636 0.960 . S
H622 C636 0.960 . S
H623 C636 0.960 . S
C624 H616 0.929 1_556 S
C624 C625 1.377 . S
C624 C626 1.384 . S
C625 C624 1.377 . S
C625 C631 1.390 . S
C626 H617 0.930 1_556 S
C626 C624 1.384 . S
C626 C627 1.372 . S
C627 C626 1.372 . S
C627 C628 1.400 . S
C627 C632 1.490 . S
C628 H618 0.930 . S
C628 C627 1.400 . S
C628 C631 1.386 . S
H629 C645 0.930 . S
H630 C646 0.931 . S
C631 H619 0.929 . S
C631 C625 1.390 . S
C631 C628 1.386 . S
C632 C627 1.490 . S
C632 C634 1.395 . S
C632 C635 1.403 . S
H633 C639 0.930 . S
C634 H620 0.930 1_655 S
C634 C632 1.395 . S
C634 C637 1.403 1_655 S
C635 C632 1.403 . S
C635 C636 1.524 . S
C635 C639 1.400 . S
C636 H621 0.960 . S
C636 H622 0.960 . S
C636 H623 0.960 . S
C636 C635 1.524 . S
C637 C634 1.403 1_455 S
C637 C638 1.392 1_455 S
C637 C641 1.495 . S
C638 C637 1.392 1_655 S
C638 C639 1.385 . S
C638 C640 1.478 . S
C639 H633 0.930 . S
C639 C635 1.400 . S
C639 C638 1.385 . S
C640 C638 1.478 . S
C640 C642 1.381 . S
C640 C646 1.383 . S
C641 C637 1.495 . S
C641 H647 0.959 . S
C641 H648 0.961 . S
C641 H649 0.960 . S
C642 C640 1.381 . S
C642 C643 1.392 1_655 S
C642 H650 0.930 . S
C643 C642 1.392 1_455 S
C643 C644 1.383 . S
C643 H651 0.934 . S
C644 C643 1.383 . S
C644 C645 1.377 1_455 S
C645 H629 0.930 . S
C645 C644 1.377 1_655 S
C645 C646 1.379 . S
C646 H630 0.931 . S
C646 C640 1.383 . S
C646 C645 1.379 . S
H647 C641 0.959 . S
H648 C641 0.961 . S
H649 C641 0.960 . S
H650 C642 0.930 . S
H651 C643 0.934 . S
H652 C660 0.929 . S
H653 C662 0.957 . S
H654 C664 0.930 . S
H655 C667 0.929 . S
H656 C670 0.930 1_545 S
H657 C672 0.960 . S
H658 C672 0.960 1_554 S
H659 C672 0.960 . S
C660 H652 0.929 . S
C660 C661 1.377 1_554 S
C660 C662 1.384 1_554 S
C661 C660 1.377 1_556 S
C661 C667 1.390 . S
C662 H653 0.957 . S
C662 C660 1.384 1_556 S
C662 C663 1.372 . S
C663 C662 1.372 . S
C663 C664 1.400 . S
C663 C668 1.490 . S
C664 H654 0.930 . S
C664 C663 1.400 . S
C664 C667 1.386 . S
H665 C681 0.930 . S
H666 C682 0.931 . S
C667 H655 0.929 . S
C667 C661 1.390 . S
C667 C664 1.386 . S
C668 C663 1.490 . S
C668 C670 1.395 . S
C668 C671 1.403 . S
H669 C675 0.930 . S
C670 H656 0.930 1_565 S
C670 C668 1.395 . S
C670 C673 1.403 1_565 S
C671 C668 1.403 . S
C671 C672 1.524 . S
C671 C675 1.400 . S
C672 H657 0.960 . S
C672 H658 0.960 1_556 S
C672 H659 0.960 . S
C672 C671 1.524 . S
C673 C670 1.403 1_545 S
C673 C674 1.392 1_545 S
C673 C677 1.495 . S
C674 C673 1.392 1_565 S
C674 C675 1.385 . S
C674 C676 1.478 . S
C675 H669 0.930 . S
C675 C671 1.400 . S
C675 C674 1.385 . S
C676 C674 1.478 . S
C676 C678 1.381 1_565 S
C676 C682 1.383 . S
C677 C673 1.495 . S
C677 H683 0.959 . S
C677 H684 0.961 . S
C677 H685 0.960 . S
C678 C676 1.381 1_545 S
C678 C679 1.394 . S
C678 H686 0.930 . S
C679 C678 1.394 . S
C679 C680 1.383 . S
C679 H687 0.929 . S
C680 C679 1.383 . S
C680 C681 1.377 1_545 S
C681 H665 0.930 . S
C681 C680 1.377 1_565 S
C681 C682 1.379 . S
C682 H666 0.931 . S
C682 C676 1.383 . S
C682 C681 1.379 . S
H683 C677 0.959 . S
H684 C677 0.961 . S
H685 C677 0.960 . S
H686 C678 0.930 . S
H687 C679 0.929 . S
H688 C696 0.929 . S
H689 C698 0.930 . S
H690 C700 0.930 . S
H691 C703 0.929 . S
H692 C706 0.930 . S
H693 C708 0.960 . S
H694 C708 0.960 . S
H695 C708 0.960 . S
C696 H688 0.929 . S
C696 C697 1.377 1_556 S
C696 C698 1.384 . S
C697 C696 1.377 1_554 S
C697 C703 1.390 . S
C698 H689 0.930 . S
C698 C696 1.384 . S
C698 C699 1.372 . S
C699 C698 1.372 . S
C699 C700 1.400 . S
C699 C704 1.490 . S
C700 H690 0.930 . S
C700 C699 1.400 . S
C700 C703 1.386 1_556 S
H701 C717 0.930 . S
H702 C718 0.931 . S
C703 H691 0.929 . S
C703 C697 1.390 . S
C703 C700 1.386 1_554 S
C704 C699 1.490 . S
C704 C706 1.395 . S
C704 C707 1.403 . S
H705 C711 0.930 . S
C706 H692 0.930 . S
C706 C704 1.395 . S
C706 C709 1.403 . S
C707 C704 1.403 . S
C707 C708 1.524 1_556 S
C707 C711 1.400 . S
C708 H693 0.960 . S
C708 H694 0.960 . S
C708 H695 0.960 . S
C708 C707 1.524 1_554 S
C709 C706 1.403 . S
C709 C710 1.392 . S
C709 C713 1.495 . S
C710 C709 1.392 . S
C710 C711 1.385 . S
C710 C712 1.478 . S
C711 H705 0.930 . S
C711 C707 1.400 . S
C711 C710 1.385 . S
C712 C710 1.478 . S
C712 C714 1.381 . S
C712 C718 1.383 . S
C713 C709 1.495 . S
C713 H719 0.959 . S
C713 H720 0.961 . S
C713 H721 0.960 . S
C714 C712 1.381 . S
C714 C715 1.394 . S
C714 H722 0.930 . S
C715 C714 1.394 . S
C715 C716 1.383 . S
C715 H723 0.929 . S
C716 C715 1.383 . S
C716 C717 1.377 . S
C717 H701 0.930 . S
C717 C716 1.377 . S
C717 C718 1.379 . S
C718 H702 0.931 . S
C718 C712 1.383 . S
C718 C717 1.379 . S
H719 C713 0.959 . S
H720 C713 0.961 . S
H721 C713 0.960 . S
H722 C714 0.930 . S
H723 C715 0.929 . S
H724 C732 0.929 . S
H725 C734 0.930 . S
H726 C736 0.930 . S
H727 C739 0.929 . S
H728 C742 0.930 . S
H729 C744 0.960 . S
H730 C744 0.960 . S
H731 C744 0.960 . S
C732 H724 0.929 . S
C732 C733 1.377 1_554 S
C732 C734 1.384 1_554 S
C733 C732 1.377 1_556 S
C733 C739 1.390 . S
C734 H725 0.930 . S
C734 C732 1.384 1_556 S
C734 C735 1.372 . S
C735 C734 1.372 . S
C735 C736 1.400 . S
C735 C740 1.490 . S
C736 H726 0.930 . S
C736 C735 1.400 . S
C736 C739 1.386 . S
H737 C753 0.930 . S
H738 C754 0.931 . S
C739 H727 0.929 . S
C739 C733 1.390 . S
C739 C736 1.386 . S
C740 C735 1.490 . S
C740 C742 1.395 . S
C740 C743 1.403 . S
H741 C747 0.930 . S
C742 H728 0.930 . S
C742 C740 1.395 . S
C742 C745 1.403 . S
C743 C740 1.403 . S
C743 C744 1.524 . S
C743 C747 1.400 . S
C744 H729 0.960 . S
C744 H730 0.960 . S
C744 H731 0.960 . S
C744 C743 1.524 . S
C745 C742 1.403 . S
C745 C746 1.392 . S
C745 C749 1.495 . S
C746 C745 1.392 . S
C746 C747 1.385 . S
C746 C748 1.478 . S
C747 H741 0.930 . S
C747 C743 1.400 . S
C747 C746 1.385 . S
C748 C746 1.478 . S
C748 C750 1.381 . S
C748 C754 1.383 . S
C749 C745 1.495 . S
C749 H755 0.959 1_556 S
C749 H756 0.961 . S
C749 H757 0.960 . S
C750 C748 1.381 . S
C750 C751 1.394 . S
C750 H758 0.930 . S
C751 C750 1.394 . S
C751 C752 1.383 . S
C751 H759 0.929 . S
C752 C751 1.383 . S
C752 C753 1.377 . S
C753 H737 0.930 . S
C753 C752 1.377 . S
C753 C754 1.379 . S
C754 H738 0.931 . S
C754 C748 1.383 . S
C754 C753 1.379 . S
H755 C749 0.959 1_554 S
H756 C749 0.961 . S
H757 C749 0.960 . S
H758 C750 0.930 . S
H759 C751 0.929 . S
H760 C768 0.929 . S
H761 C770 0.930 . S
H762 C772 0.930 . S
H763 C775 0.929 . S
H764 C778 0.930 . S
H765 C780 0.960 . S
H766 C780 0.960 . S
H767 C780 0.960 . S
C768 H760 0.929 . S
C768 C769 1.377 . S
C768 C770 1.384 . S
C769 C768 1.377 . S
C769 C775 1.390 . S
C770 H761 0.930 . S
C770 C768 1.384 . S
C770 C771 1.372 . S
C771 C770 1.372 . S
C771 C772 1.400 . S
C771 C776 1.490 . S
C772 H762 0.930 . S
C772 C771 1.400 . S
C772 C775 1.386 . S
H773 C789 0.930 . S
H774 C790 0.931 . S
C775 H763 0.929 . S
C775 C769 1.390 . S
C775 C772 1.386 . S
C776 C771 1.490 . S
C776 C778 1.395 . S
C776 C779 1.403 . S
H777 C783 0.930 1_556 S
C778 H764 0.930 . S
C778 C776 1.395 . S
C778 C781 1.403 . S
C779 C776 1.403 . S
C779 C780 1.524 . S
C779 C783 1.400 . S
C780 H765 0.960 . S
C780 H766 0.960 . S
C780 H767 0.960 . S
C780 C779 1.524 . S
C781 C778 1.403 . S
C781 C782 1.392 1_554 S
C781 C785 1.495 1_455 S
C782 C781 1.392 1_556 S
C782 C783 1.385 1_556 S
C782 C784 1.478 . S
C783 H777 0.930 1_554 S
C783 C779 1.400 . S
C783 C782 1.385 1_554 S
C784 C782 1.478 . S
C784 C786 1.381 . S
C784 C790 1.383 . S
C785 C781 1.495 1_655 S
C785 H791 0.959 . S
C785 H792 0.961 1_554 S
C785 H793 0.960 . S
C786 C784 1.381 . S
C786 C787 1.394 . S
C786 H794 0.930 1_556 S
C787 C786 1.394 . S
C787 C788 1.383 . S
C787 H795 0.929 . S
C788 C787 1.383 . S
C788 C789 1.377 . S
C789 H773 0.930 . S
C789 C788 1.377 . S
C789 C790 1.379 . S
C790 H774 0.931 . S
C790 C784 1.383 . S
C790 C789 1.379 . S
H791 C785 0.959 . S
H792 C785 0.961 1_556 S
H793 C785 0.960 . S
H794 C786 0.930 1_554 S
H795 C787 0.929 . S
H796 C804 0.929 . S
H797 C806 0.930 . S
H798 C808 0.930 . S
H799 C811 0.929 . S
H800 C814 0.930 . S
H801 C816 0.960 . S
H802 C816 0.960 . S
H803 C816 0.960 . S
C804 H796 0.929 . S
C804 C805 1.377 . S
C804 C806 1.384 . S
C805 C804 1.377 . S
C805 C811 1.390 . S
C806 H797 0.930 . S
C806 C804 1.384 . S
C806 C807 1.372 . S
C807 C806 1.372 . S
C807 C808 1.400 . S
C807 C812 1.490 . S
C808 H798 0.930 . S
C808 C807 1.400 . S
C808 C811 1.386 . S
H809 C825 0.930 . S
H810 C826 0.931 . S
C811 H799 0.929 . S
C811 C805 1.390 . S
C811 C808 1.386 . S
C812 C807 1.490 . S
C812 C814 1.395 1_554 S
C812 C815 1.403 . S
H813 C819 0.930 . S
C814 H800 0.930 . S
C814 C812 1.395 1_556 S
C814 C817 1.403 . S
C815 C812 1.403 . S
C815 C816 1.524 . S
C815 C819 1.400 . S
C816 H801 0.960 . S
C816 H802 0.960 . S
C816 H803 0.960 . S
C816 C815 1.524 . S
C817 C814 1.403 . S
C817 C818 1.392 . S
C817 C821 1.495 . S
C818 C817 1.392 . S
C818 C819 1.385 1_556 S
C818 C820 1.478 . S
C819 H813 0.930 . S
C819 C815 1.400 . S
C819 C818 1.385 1_554 S
C820 C818 1.478 . S
C820 C822 1.381 . S
C820 C826 1.383 . S
C821 C817 1.495 . S
C821 H827 0.959 . S
C821 H828 0.961 . S
C821 H829 0.960 . S
C822 C820 1.381 . S
C822 C823 1.394 . S
C822 H830 0.930 . S
C823 C822 1.394 . S
C823 C824 1.383 . S
C823 H831 0.929 1_545 S
C824 C823 1.383 . S
C824 C825 1.377 . S
C825 H809 0.930 . S
C825 C824 1.377 . S
C825 C826 1.379 . S
C826 H810 0.931 . S
C826 C820 1.383 . S
C826 C825 1.379 . S
H827 C821 0.959 . S
H828 C821 0.961 . S
H829 C821 0.960 . S
H830 C822 0.930 . S
H831 C823 0.929 1_565 S
H832 C840 0.929 . S
H833 C842 0.930 . S
H834 C844 0.930 . S
H835 C847 0.929 . S
H836 C850 0.930 . S
H837 C852 0.960 . S
H838 C852 0.960 . S
H839 C852 0.960 . S
C840 H832 0.929 . S
C840 C841 1.377 . S
C840 C842 1.384 . S
C841 C840 1.377 . S
C841 C847 1.390 . S
C842 H833 0.930 . S
C842 C840 1.384 . S
C842 C843 1.372 . S
C843 C842 1.372 . S
C843 C844 1.400 . S
C843 C848 1.490 . S
C844 H834 0.930 . S
C844 C843 1.400 . S
C844 C847 1.386 . S
H845 C861 0.930 . S
H846 C862 0.931 . S
C847 H835 0.929 . S
C847 C841 1.390 . S
C847 C844 1.386 . S
C848 C843 1.490 . S
C848 C850 1.395 1_554 S
C848 C851 1.403 . S
H849 C855 0.930 . S
C850 H836 0.930 . S
C850 C848 1.395 1_556 S
C850 C853 1.403 . S
C851 C848 1.403 . S
C851 C852 1.524 . S
C851 C855 1.400 . S
C852 H837 0.960 . S
C852 H838 0.960 . S
C852 H839 0.960 . S
C852 C851 1.524 . S
C853 C850 1.403 . S
C853 C854 1.392 . S
C853 C857 1.495 . S
C854 C853 1.392 . S
C854 C855 1.385 1_556 S
C854 C856 1.478 . S
C855 H849 0.930 . S
C855 C851 1.400 . S
C855 C854 1.385 1_554 S
C856 C854 1.478 . S
C856 C858 1.381 . S
C856 C862 1.383 . S
C857 C853 1.495 . S
C857 H863 0.959 . S
C857 H864 0.961 . S
C857 H865 0.960 . S
C858 C856 1.381 . S
C858 C859 1.394 . S
C858 H866 0.930 . S
C859 C858 1.394 . S
C859 C860 1.383 . S
C859 H867 0.929 . S
C860 C859 1.383 . S
C860 C861 1.377 . S
C861 H845 0.930 . S
C861 C860 1.377 . S
C861 C862 1.379 . S
C862 H846 0.931 . S
C862 C856 1.383 . S
C862 C861 1.379 . S
H863 C857 0.959 . S
H864 C857 0.961 . S
H865 C857 0.960 . S
H866 C858 0.930 . S
H867 C859 0.929 . S
H868 C876 0.929 . S
H869 C878 0.930 . S
H870 C880 0.930 . S
H871 C883 0.929 . S
H872 C886 0.930 . S
H873 C888 0.960 . S
H874 C888 0.960 . S
H875 C888 0.960 . S
C876 H868 0.929 . S
C876 C877 1.377 . S
C876 C878 1.384 . S
C877 C876 1.377 . S
C877 C883 1.390 . S
C878 H869 0.930 . S
C878 C876 1.384 . S
C878 C879 1.372 . S
C879 C878 1.372 . S
C879 C880 1.400 . S
C879 C884 1.490 . S
C880 H870 0.930 . S
C880 C879 1.400 . S
C880 C883 1.386 . S
H881 C897 0.930 . S
H882 C898 0.936 . S
C883 H871 0.929 . S
C883 C877 1.390 . S
C883 C880 1.386 . S
C884 C879 1.490 . S
C884 C886 1.395 . S
C884 C887 1.403 . S
H885 C891 0.931 . S
C886 H872 0.930 . S
C886 C884 1.395 . S
C886 C889 1.403 1_554 S
C887 C884 1.403 . S
C887 C888 1.524 . S
C887 C891 1.397 1_554 S
C888 H873 0.960 . S
C888 H874 0.960 . S
C888 H875 0.960 . S
C888 C887 1.524 . S
C889 C886 1.403 1_556 S
C889 C890 1.392 . S
C889 C893 1.495 . S
C890 C889 1.392 . S
C890 C891 1.387 . S
C890 C892 1.478 . S
C891 H885 0.931 . S
C891 C887 1.397 1_556 S
C891 C890 1.387 . S
C892 C890 1.478 . S
C892 C894 1.381 . S
C892 C898 1.383 . S
C893 C889 1.495 . S
C893 H899 0.959 . S
C893 H900 0.961 . S
C893 H901 0.960 . S
C894 C892 1.381 . S
C894 C895 1.394 . S
C894 H902 0.930 . S
C895 C894 1.394 . S
C895 C896 1.383 . S
C895 H903 0.929 . S
C896 C895 1.383 . S
C896 C897 1.377 . S
C897 H881 0.930 . S
C897 C896 1.377 . S
C897 C898 1.379 . S
C898 H882 0.936 . S
C898 C892 1.383 . S
C898 C897 1.379 . S
H899 C893 0.959 . S
H900 C893 0.961 . S
H901 C893 0.960 . S
H902 C894 0.930 . S
H903 C895 0.929 . S
H904 C912 0.929 . S
H905 C914 0.932 . S
H906 C916 0.930 . S
H907 C919 0.929 . S
H908 C922 0.930 . S
H909 C924 0.960 . S
H910 C924 0.960 . S
H911 C924 0.960 . S
C912 H904 0.929 . S
C912 C913 1.377 . S
C912 C914 1.384 . S
C913 C912 1.377 . S
C913 C919 1.390 . S
C914 H905 0.932 . S
C914 C912 1.384 . S
C914 C915 1.372 . S
C915 C914 1.372 . S
C915 C916 1.400 . S
C915 C920 1.490 . S
C916 H906 0.930 . S
C916 C915 1.400 . S
C916 C919 1.386 . S
H917 C933 0.930 . S
H918 C934 0.931 . S
C919 H907 0.929 . S
C919 C913 1.390 . S
C919 C916 1.386 . S
C920 C915 1.490 . S
C920 C922 1.395 . S
C920 C923 1.403 . S
H921 C927 0.930 . S
C922 H908 0.930 . S
C922 C920 1.395 . S
C922 C925 1.403 . S
C923 C920 1.403 . S
C923 C924 1.524 . S
C923 C927 1.400 . S
C924 H909 0.960 . S
C924 H910 0.960 . S
C924 H911 0.960 . S
C924 C923 1.524 . S
C925 C922 1.403 . S
C925 C926 1.392 . S
C925 C929 1.495 1_655 S
C926 C925 1.392 . S
C926 C927 1.385 . S
C926 C928 1.478 . S
C927 H921 0.930 . S
C927 C923 1.400 . S
C927 C926 1.385 . S
C928 C926 1.478 . S
C928 C930 1.381 1_655 S
C928 C934 1.383 . S
C929 C925 1.495 1_455 S
C929 H935 0.959 . S
C929 H936 0.961 1_455 S
C929 H937 0.960 . S
C930 C928 1.381 1_455 S
C930 C931 1.394 . S
C930 H938 0.930 . S
C931 C930 1.394 . S
C931 C932 1.383 1_455 S
C931 H939 0.929 . S
C932 C931 1.383 1_655 S
C932 C933 1.377 . S
C933 H917 0.930 . S
C933 C932 1.377 . S
C933 C934 1.379 . S
C934 H918 0.931 . S
C934 C928 1.383 . S
C934 C933 1.379 . S
H935 C929 0.959 . S
H936 C929 0.961 1_655 S
H937 C929 0.960 . S
H938 C930 0.930 . S
H939 C931 0.929 . S
H940 C948 0.929 . S
H941 C950 0.930 . S
H942 C952 0.929 1_545 S
H943 C955 0.929 . S
H944 C958 0.930 . S
H945 C960 0.960 . S
H946 C960 0.960 1_565 S
H947 C960 0.960 . S
C948 H940 0.929 . S
C948 C949 1.377 . S
C948 C950 1.384 . S
C949 C948 1.377 . S
C949 C955 1.390 . S
C950 H941 0.930 . S
C950 C948 1.384 . S
C950 C951 1.372 . S
C951 C950 1.372 . S
C951 C952 1.400 . S
C951 C956 1.490 . S
C952 H942 0.929 1_565 S
C952 C951 1.400 . S
C952 C955 1.386 . S
H953 C969 0.930 . S
H954 C970 0.931 . S
C955 H943 0.929 . S
C955 C949 1.390 . S
C955 C952 1.386 . S
C956 C951 1.490 . S
C956 C958 1.395 . S
C956 C959 1.403 . S
H957 C963 0.930 1_545 S
C958 H944 0.930 . S
C958 C956 1.395 . S
C958 C961 1.403 . S
C959 C956 1.403 . S
C959 C960 1.524 1_565 S
C959 C963 1.400 . S
C960 H945 0.960 . S
C960 H946 0.960 1_545 S
C960 H947 0.960 . S
C960 C959 1.524 1_545 S
C961 C958 1.403 . S
C961 C962 1.392 . S
C961 C965 1.495 . S
C962 C961 1.392 . S
C962 C963 1.385 . S
C962 C964 1.478 . S
C963 H957 0.930 1_565 S
C963 C959 1.400 . S
C963 C962 1.385 . S
C964 C962 1.478 . S
C964 C966 1.381 . S
C964 C970 1.383 1_565 S
C965 C961 1.495 . S
C965 H971 0.959 . S
C965 H972 0.961 . S
C965 H973 0.960 . S
C966 C964 1.381 . S
C966 C967 1.394 . S
C966 H974 0.930 . S
C967 C966 1.394 . S
C967 C968 1.383 . S
C967 H975 0.929 . S
C968 C967 1.383 . S
C968 C969 1.377 1_565 S
C969 H953 0.930 . S
C969 C968 1.377 1_545 S
C969 C970 1.379 . S
C970 H954 0.931 . S
C970 C964 1.383 1_545 S
C970 C969 1.379 . S
H971 C965 0.959 . S
H972 C965 0.961 . S
H973 C965 0.960 . S
H974 C966 0.930 . S
H975 C967 0.929 . S
H976 C984 0.929 . S
H977 C986 0.930 . S
H978 C988 0.930 . S
H979 C991 0.929 . S
H980 C994 0.930 . S
H981 C996 0.960 . S
H982 C996 0.960 . S
H983 C996 0.960 . S
C984 H976 0.929 . S
C984 C985 1.377 . S
C984 C986 1.384 . S
C985 C984 1.377 . S
C985 C991 1.390 . S
C986 H977 0.930 . S
C986 C984 1.384 . S
C986 C987 1.372 . S
C987 C986 1.372 . S
C987 C988 1.400 . S
C987 C992 1.490 . S
C988 H978 0.930 . S
C988 C987 1.400 . S
C988 C991 1.386 . S
H989 C1005 0.930 . S
H990 C1006 0.931 . S
C991 H979 0.929 . S
C991 C985 1.390 . S
C991 C988 1.386 . S
C992 C987 1.490 . S
C992 C994 1.395 . S
C992 C995 1.403 . S
H993 C999 0.930 . S
C994 H980 0.930 . S
C994 C992 1.395 . S
C994 C997 1.403 . S
C995 C992 1.403 . S
C995 C996 1.524 . S
C995 C999 1.400 . S
C996 H981 0.960 . S
C996 H982 0.960 . S
C996 H983 0.960 . S
C996 C995 1.524 . S
C997 C994 1.403 . S
C997 C998 1.392 . S
C997 C1001 1.495 . S
C998 C997 1.392 . S
C998 C999 1.385 . S
C998 C1000 1.478 . S
C999 H993 0.930 . S
C999 C995 1.400 . S
C999 C998 1.385 . S
C1000 C998 1.478 . S
C1000 C1002 1.381 . S
C1000 C1006 1.383 . S
C1001 C997 1.495 . S
C1001 H1007 0.959 . S
C1001 H1008 0.961 . S
C1001 H1009 0.960 . S
C1002 C1000 1.381 . S
C1002 C1003 1.394 . S
C1002 H1010 0.930 . S
C1003 C1002 1.394 . S
C1003 C1004 1.383 . S
C1003 H1011 0.929 . S
C1004 C1003 1.383 . S
C1004 C1005 1.377 . S
C1005 H989 0.930 . S
C1005 C1004 1.377 . S
C1005 C1006 1.379 . S
C1006 H990 0.931 . S
C1006 C1000 1.383 . S
C1006 C1005 1.379 . S
H1007 C1001 0.959 . S
H1008 C1001 0.961 . S
H1009 C1001 0.960 . S
H1010 C1002 0.930 . S
H1011 C1003 0.929 . S
H1012 C1020 0.929 . S
H1013 C1022 0.930 . S
H1014 C1024 0.930 . S
H1015 C1027 0.929 . S
H1016 C1030 0.930 . S
H1017 C1032 0.960 . S
H1018 C1032 0.960 . S
H1019 C1032 0.960 . S
C1020 H1012 0.929 . S
C1020 C1021 1.377 . S
C1020 C1022 1.384 . S
C1021 C1020 1.377 . S
C1021 C1027 1.390 . S
C1022 H1013 0.930 . S
C1022 C1020 1.384 . S
C1022 C1023 1.372 . S
C1023 C1022 1.372 . S
C1023 C1024 1.400 . S
C1023 C1028 1.490 . S
C1024 H1014 0.930 . S
C1024 C1023 1.400 . S
C1024 C1027 1.386 . S
H1025 C1041 0.930 . S
H1026 C1042 0.931 . S
C1027 H1015 0.929 . S
C1027 C1021 1.390 . S
C1027 C1024 1.386 . S
C1028 C1023 1.490 . S
C1028 C1030 1.395 . S
C1028 C1031 1.403 . S
H1029 C1035 0.930 . S
C1030 H1016 0.930 . S
C1030 C1028 1.395 . S
C1030 C1033 1.403 . S
C1031 C1028 1.403 . S
C1031 C1032 1.524 . S
C1031 C1035 1.400 . S
C1032 H1017 0.960 . S
C1032 H1018 0.960 . S
C1032 H1019 0.960 . S
C1032 C1031 1.524 . S
C1033 C1030 1.403 . S
C1033 C1034 1.392 . S
C1033 C1037 1.495 . S
C1034 C1033 1.392 . S
C1034 C1035 1.385 . S
C1034 C1036 1.478 . S
C1035 H1029 0.930 . S
C1035 C1031 1.400 . S
C1035 C1034 1.385 . S
C1036 C1034 1.478 . S
C1036 C1038 1.381 . S
C1036 C1042 1.383 . S
C1037 C1033 1.495 . S
C1037 H1043 0.959 . S
C1037 H1044 0.961 . S
C1037 H1045 0.960 . S
C1038 C1036 1.381 . S
C1038 C1039 1.394 . S
C1038 H1046 0.930 . S
C1039 C1038 1.394 . S
C1039 C1040 1.383 . S
C1039 H1047 0.929 . S
C1040 C1039 1.383 . S
C1040 C1041 1.377 . S
C1041 H1025 0.930 . S
C1041 C1040 1.377 . S
C1041 C1042 1.379 . S
C1042 H1026 0.931 . S
C1042 C1036 1.383 . S
C1042 C1041 1.379 . S
H1043 C1037 0.959 . S
H1044 C1037 0.961 . S
H1045 C1037 0.960 . S
H1046 C1038 0.930 . S
H1047 C1039 0.929 . S
C193 N80 1.602 . S
C212 C105 1.621 . S
C248 C140 1.581 . S
C229 N93 1.584 . S
C284 C145 1.311 . S
C265 N54 1.308 . S
C320 C165 1.396 . S
C301 N67 1.402 . S
C356 C113 1.616 1_565 S
C337 N28 1.616 1_556 S
C373 N41 1.597 . S
C392 C130 1.592 . S
C409 N2 1.312 . S
C428 C153 1.308 . S
C445 N15 1.406 . S
C464 C173 1.396 1_655 S
C500 C123 1.013 . S
C481 N70 1.075 . S
C536 C132 0.789 . S
C517 N83 0.760 . S
C572 C163 1.122 . S
C553 N96 1.148 . S
C589 N57 0.827 . S
C608 C183 0.777 . S
C625 N18 1.078 . S
C644 C112 1.024 . S
C680 C143 0.733 . S
C661 N31 0.765 1_556 S
C716 C152 1.163 . S
C697 N44 1.150 . S
C733 N5 0.830 1_556 S
C752 C172 0.768 . S
C769 N66 1.468 . S
C788 C110 1.451 . S
C805 N79 1.423 . S
C824 C133 1.448 . S
C860 C150 1.562 . S
C841 N92 1.548 . S
C896 C170 1.585 . S
C877 N53 1.602 . S
C913 N14 1.480 . S
C932 C120 1.432 . S
C968 C125 1.436 1_565 S
C949 N27 1.437 . S
C1004 C160 1.546 . S
C985 N40 1.571 . S
C1021 N1 1.606 . S
C1040 C180 1.600 . S
