# Generated by pormake.
# Topology eea, (3,6)-cn, num edge types: 1
# Building blocks:
#     Node 0, Type 0, BuildingBlock: ESEHIV_clean_linker_0, # of connection points: 3
#     Node 1, Type 0, BuildingBlock: ESEHIV_clean_linker_0, # of connection points: 3
#     Node 2, Type 0, BuildingBlock: ESEHIV_clean_linker_0, # of connection points: 3
#     Node 3, Type 0, BuildingBlock: ESEHIV_clean_linker_0, # of connection points: 3
#     Node 4, Type 0, BuildingBlock: ESEHIV_clean_linker_0, # of connection points: 3
#     Node 5, Type 0, BuildingBlock: ESEHIV_clean_linker_0, # of connection points: 3
#     Node 6, Type 0, BuildingBlock: ESEHIV_clean_linker_0, # of connection points: 3
#     Node 7, Type 0, BuildingBlock: ESEHIV_clean_linker_0, # of connection points: 3
#     Node 8, Type 0, BuildingBlock: ESEHIV_clean_linker_0, # of connection points: 3
#     Node 9, Type 0, BuildingBlock: ESEHIV_clean_linker_0, # of connection points: 3
#     Node 10, Type 0, BuildingBlock: ESEHIV_clean_linker_0, # of connection points: 3
#     Node 11, Type 0, BuildingBlock: ESEHIV_clean_linker_0, # of connection points: 3
#     Node 12, Type 0, BuildingBlock: ESEHIV_clean_linker_0, # of connection points: 3
#     Node 13, Type 0, BuildingBlock: ESEHIV_clean_linker_0, # of connection points: 3
#     Node 14, Type 0, BuildingBlock: ESEHIV_clean_linker_0, # of connection points: 3
#     Node 15, Type 0, BuildingBlock: ESEHIV_clean_linker_0, # of connection points: 3
#     Node 16, Type 0, BuildingBlock: ESEHIV_clean_linker_0, # of connection points: 3
#     Node 17, Type 0, BuildingBlock: ESEHIV_clean_linker_0, # of connection points: 3
#     Node 18, Type 1, BuildingBlock: KUMBUR_clean_sbu_0, # of connection points: 6
#     Node 19, Type 1, BuildingBlock: KUMBUR_clean_sbu_0, # of connection points: 6
#     Node 20, Type 1, BuildingBlock: KUMBUR_clean_sbu_0, # of connection points: 6
#     Node 21, Type 1, BuildingBlock: KUMBUR_clean_sbu_0, # of connection points: 6
#     Node 22, Type 1, BuildingBlock: KUMBUR_clean_sbu_0, # of connection points: 6
#     Node 23, Type 1, BuildingBlock: KUMBUR_clean_sbu_0, # of connection points: 6
#     Node 24, Type 1, BuildingBlock: KUMBUR_clean_sbu_0, # of connection points: 6
#     Node 25, Type 1, BuildingBlock: KUMBUR_clean_sbu_0, # of connection points: 6
#     Node 26, Type 1, BuildingBlock: KUMBUR_clean_sbu_0, # of connection points: 6
#     Edge 27, Type (0, 1), None
#     Edge 28, Type (0, 1), None
#     Edge 29, Type (0, 1), None
#     Edge 30, Type (0, 1), None
#     Edge 31, Type (0, 1), None
#     Edge 32, Type (0, 1), None
#     Edge 33, Type (0, 1), None
#     Edge 34, Type (0, 1), None
#     Edge 35, Type (0, 1), None
#     Edge 36, Type (0, 1), None
#     Edge 37, Type (0, 1), None
#     Edge 38, Type (0, 1), None
#     Edge 39, Type (0, 1), None
#     Edge 40, Type (0, 1), None
#     Edge 41, Type (0, 1), None
#     Edge 42, Type (0, 1), None
#     Edge 43, Type (0, 1), None
#     Edge 44, Type (0, 1), None
#     Edge 45, Type (0, 1), None
#     Edge 46, Type (0, 1), None
#     Edge 47, Type (0, 1), None
#     Edge 48, Type (0, 1), None
#     Edge 49, Type (0, 1), None
#     Edge 50, Type (0, 1), None
#     Edge 51, Type (0, 1), None
#     Edge 52, Type (0, 1), None
#     Edge 53, Type (0, 1), None
#     Edge 54, Type (0, 1), None
#     Edge 55, Type (0, 1), None
#     Edge 56, Type (0, 1), None
#     Edge 57, Type (0, 1), None
#     Edge 58, Type (0, 1), None
#     Edge 59, Type (0, 1), None
#     Edge 60, Type (0, 1), None
#     Edge 61, Type (0, 1), None
#     Edge 62, Type (0, 1), None
#     Edge 63, Type (0, 1), None
#     Edge 64, Type (0, 1), None
#     Edge 65, Type (0, 1), None
#     Edge 66, Type (0, 1), None
#     Edge 67, Type (0, 1), None
#     Edge 68, Type (0, 1), None
#     Edge 69, Type (0, 1), None
#     Edge 70, Type (0, 1), None
#     Edge 71, Type (0, 1), None
#     Edge 72, Type (0, 1), None
#     Edge 73, Type (0, 1), None
#     Edge 74, Type (0, 1), None
#     Edge 75, Type (0, 1), None
#     Edge 76, Type (0, 1), None
#     Edge 77, Type (0, 1), None
#     Edge 78, Type (0, 1), None
#     Edge 79, Type (0, 1), None
#     Edge 80, Type (0, 1), None
# Relax obj value: 0.004
# Max RMSD: 0.191
# Mean RMSD: 0.141
data_MOF--net-eea--node1-KUMBUR_clean_sbu_0--node2-ESEHIV_clean_linker_0--edge1-none
_symmetry_space_group_name_H-M    P1
_symmetry_Int_Tables_number       1
_symmetry_cell_setting            triclinic
loop_
_symmetry_equiv_pos_as_xyz
'x, y, z'
_cell_length_a     18.328881
_cell_length_b     19.747464
_cell_length_c     36.909063
_cell_angle_alpha  91.747114
_cell_angle_beta   92.036157
_cell_angle_gamma 118.76809
loop_
_atom_site_label
_atom_site_type_symbol
_atom_site_fract_x
_atom_site_fract_y
_atom_site_fract_z
_atom_type_partial_charge
H0 H 0.27857 0.22877 0.43752 0.0
H1 H 0.29561 0.02232 0.4339 0.0
H2 H 0.18658 0.07693 0.34062 0.0
C3 C 0.26352 0.17528 0.42263 0.0
C4 C 0.22788 0.16051 0.38703 0.0
C5 C 0.28801 0.12673 0.43943 0.0
C6 C 0.27389 0.0581 0.42069 0.0
C7 C 0.23448 0.03672 0.38507 0.0
C8 C 0.21272 0.08976 0.36819 0.0
H9 H 0.81643 0.03616 0.44242 0.0
H10 H 0.96029 0.27776 0.43165 0.0
H11 H 0.93907 0.12332 0.34327 0.0
C12 C 0.85341 0.08406 0.42606 0.0
C13 C 0.86008 0.07167 0.38815 0.0
C14 C 0.8873 0.15852 0.44244 0.0
C15 C 0.93797 0.21967 0.42103 0.0
C16 C 0.9677 0.20895 0.38778 0.0
C17 C 0.92439 0.13364 0.3702 0.0
H18 H 0.76624 0.71584 0.43923 0.0
H19 H 0.01903 0.78637 0.45422 0.0
H20 H 0.92926 0.82324 0.35286 0.0
C21 C 0.82801 0.74988 0.4299 0.0
C22 C 0.84242 0.78648 0.39624 0.0
C23 C 0.89211 0.75057 0.45116 0.0
C24 C 0.97035 0.7842 0.43735 0.0
C25 C 0.98084 0.79472 0.40005 0.0
C26 C 0.91952 0.80547 0.38029 0.0
H27 H 0.00539 0.20283 0.59274 0.0
H28 H 0.24983 0.23856 0.59412 0.0
H29 H 0.10661 0.16161 0.68927 0.0
C30 C 0.05219 0.19656 0.60789 0.0
C31 C 0.04421 0.18502 0.64521 0.0
C32 C 0.12629 0.2179 0.59022 0.0
C33 C 0.19301 0.21753 0.60837 0.0
C34 C 0.19073 0.19983 0.64501 0.0
C35 C 0.11369 0.18073 0.66286 0.0
H36 H 0.74192 0.9651 0.59938 0.0
H37 H 0.88246 0.84467 0.5928 0.0
H38 H 0.78464 0.87297 0.69024 0.0
C39 C 0.77846 0.94212 0.61217 0.0
C40 C 0.78879 0.94458 0.65008 0.0
C41 C 0.80551 0.8991 0.59132 0.0
C42 C 0.85868 0.87573 0.60893 0.0
C43 C 0.86003 0.87235 0.64746 0.0
C44 C 0.81382 0.89777 0.6658 0.0
H45 H 0.0417 0.72566 0.61318 0.0
H46 H 0.24121 0.95046 0.60019 0.0
H47 H 0.09552 0.89923 0.69561 0.0
C48 C 0.08002 0.78281 0.62414 0.0
C49 C 0.06172 0.80109 0.65837 0.0
C50 C 0.14198 0.83453 0.60243 0.0
C51 C 0.19213 0.91061 0.61639 0.0
C52 C 0.17942 0.93573 0.65091 0.0
C53 C 0.11084 0.88068 0.67101 0.0
H54 H 0.94683 0.56296 0.77053 0.0
H55 H 0.96494 0.35687 0.76711 0.0
H56 H 0.85441 0.41015 0.67388 0.0
C57 C 0.93238 0.50959 0.75564 0.0
C58 C 0.89583 0.49407 0.72012 0.0
C59 C 0.95721 0.46128 0.77253 0.0
C60 C 0.94325 0.39261 0.75384 0.0
C61 C 0.90375 0.371 0.71823 0.0
C62 C 0.88113 0.42344 0.70137 0.0
H63 H 0.48466 0.3666 0.77597 0.0
H64 H 0.62578 0.60825 0.76496 0.0
H65 H 0.60618 0.45435 0.67666 0.0
C66 C 0.52123 0.41455 0.75956 0.0
C67 C 0.52792 0.40225 0.72165 0.0
C68 C 0.55373 0.48898 0.77573 0.0
C69 C 0.60404 0.55024 0.75436 0.0
C70 C 0.63392 0.53969 0.72115 0.0
C71 C 0.59147 0.46444 0.70361 0.0
H72 H 0.4364 0.04884 0.77344 0.0
H73 H 0.68955 0.1202 0.78733 0.0
H74 H 0.59715 0.15484 0.68613 0.0
C75 C 0.49788 0.08267 0.76378 0.0
C76 C 0.51125 0.11827 0.72985 0.0
C77 C 0.56264 0.08414 0.78492 0.0
C78 C 0.64047 0.11765 0.77065 0.0
C79 C 0.65024 0.12791 0.73325 0.0
C80 C 0.58812 0.13763 0.71366 0.0
H81 H 0.67154 0.5375 0.92589 0.0
H82 H 0.91782 0.57874 0.92689 0.0
H83 H 0.77801 0.5028 0.02291 0.0
C84 C 0.71922 0.5327 0.9411 0.0
C85 C 0.71214 0.52237 0.97853 0.0
C86 C 0.79337 0.55528 0.92331 0.0
C87 C 0.86115 0.55667 0.94126 0.0
C88 C 0.85955 0.53853 0.97774 0.0
C89 C 0.78296 0.51968 0.99609 0.0
H90 H 0.40807 0.29675 0.93219 0.0
H91 H 0.55555 0.18277 0.92632 0.0
H92 H 0.45478 0.2099 0.023 0.0
C93 C 0.4466 0.27585 0.94504 0.0
C94 C 0.4587 0.28045 0.9829 0.0
C95 C 0.47499 0.23339 0.92455 0.0
C96 C 0.53044 0.21281 0.94233 0.0
C97 C 0.53216 0.21003 0.98091 0.0
C98 C 0.48506 0.23493 0.9989 0.0
H99 H 0.71292 0.05702 0.94853 0.0
H100 H 0.90535 0.28468 0.93356 0.0
H101 H 0.76129 0.23259 0.02945 0.0
C102 C 0.74908 0.11525 0.95869 0.0
C103 C 0.72945 0.13424 0.99258 0.0
C104 C 0.80912 0.16766 0.93636 0.0
C105 C 0.85736 0.24429 0.95002 0.0
C106 C 0.84473 0.26929 0.98466 0.0
C107 C 0.7769 0.2141 1.00488 0.0
H108 H 0.60811 0.89453 0.1042 0.0
H109 H 0.62902 0.69034 0.09934 0.0
H110 H 0.5119 0.74183 1.00753 0.0
C111 C 0.59326 0.84126 0.08915 0.0
C112 C 0.55713 0.82644 0.05358 0.0
C113 C 0.61867 0.79314 0.1057 0.0
C114 C 0.60581 0.7254 0.08653 0.0
C115 C 0.56555 0.70393 0.05105 0.0
C116 C 0.54114 0.75566 0.03468 0.0
H117 H 0.15504 0.68887 0.11103 0.0
H118 H 0.29395 0.93165 0.10072 0.0
H119 H 0.27229 0.78556 1.01166 0.0
C120 C 0.19303 0.73737 0.09531 0.0
C121 C 0.20305 0.72532 0.058 0.0
C122 C 0.22332 0.81213 0.11118 0.0
C123 C 0.2743 0.87412 0.09022 0.0
C124 C 0.30412 0.86554 0.0568 0.0
C125 C 0.26292 0.79033 0.0396 0.0
H126 H 0.10046 0.38082 0.10639 0.0
H127 H 0.35448 0.45504 0.11982 0.0
H128 H 0.26061 0.48853 1.01876 0.0
C129 C 0.1618 0.41446 0.09643 0.0
C130 C 0.17444 0.44958 0.06247 0.0
C131 C 0.22724 0.41738 0.11749 0.0
C132 C 0.30494 0.45132 0.10308 0.0
C133 C 0.3144 0.46121 0.06565 0.0
C134 C 0.2516 0.47024 0.04617 0.0
H135 H 0.33499 0.86867 0.25989 0.0
H136 H 0.58216 0.91142 0.26105 0.0
H137 H 0.43869 0.82904 0.35592 0.0
C138 C 0.38305 0.86443 0.27496 0.0
C139 C 0.37534 0.85245 0.3122 0.0
C140 C 0.45759 0.88823 0.25734 0.0
C141 C 0.5252 0.88912 0.27531 0.0
C142 C 0.52298 0.86989 0.31173 0.0
C143 C 0.44557 0.84905 0.32966 0.0
H144 H 0.06937 0.62827 0.2673 0.0
H145 H 0.21529 0.51304 0.26088 0.0
H146 H 0.11299 0.53643 0.35811 0.0
C147 C 0.10694 0.60639 0.28011 0.0
C148 C 0.11619 0.60809 0.318 0.0
C149 C 0.13675 0.56586 0.25915 0.0
C150 C 0.18995 0.54277 0.27697 0.0
C151 C 0.19033 0.53855 0.31552 0.0
C152 C 0.14207 0.56185 0.3337 0.0
H153 H 0.38888 0.39011 0.28392 0.0
H154 H 0.57155 0.62046 0.26589 0.0
H155 H 0.42521 0.56889 0.36087 0.0
C156 C 0.4208 0.44946 0.29269 0.0
C157 C 0.398 0.46911 0.3257 0.0
C158 C 0.47822 0.50241 0.26955 0.0
C159 C 0.52448 0.57972 0.28258 0.0
C160 C 0.51125 0.60496 0.31697 0.0
C161 C 0.44302 0.54972 0.3371 0.0
Tb162 Tb 0.49879 0.97838 0.97887 0.0
C163 C 0.56572 0.14634 0.14412 0.0
C164 C 0.65875 0.11567 0.17857 0.0
C165 C 0.58647 0.1714 0.21503 0.0
C166 C 0.61888 0.11622 0.14555 0.0
C167 C 0.55399 0.18806 0.18389 0.0
C168 C 0.63702 0.13579 0.21223 0.0
C169 C 0.50082 0.29239 0.14647 0.0
N170 N 0.54598 0.15879 0.10412 0.0
C171 C 0.52172 0.22309 0.09227 0.0
C172 C 0.52125 0.25716 0.18654 0.0
Tb173 Tb 0.52862 0.04356 0.07045 0.0
N174 N 0.63736 0.09388 0.11311 0.0
C175 C 0.70088 0.07673 0.11169 0.0
C176 C 0.72401 0.0982 0.17678 0.0
C177 C 0.74688 0.08104 0.14343 0.0
H178 H 0.53247 0.24056 0.06531 0.0
H179 H 0.79863 0.06937 0.1423 0.0
H180 H 0.66547 0.12966 0.23714 0.0
H181 H 0.50334 0.34677 0.14863 0.0
H182 H 0.71429 0.05753 0.08629 0.0
H183 H 0.27453 0.08194 1.01217 0.0
H184 H 0.75984 0.10159 0.20086 0.0
H185 H 0.46833 0.83675 0.9186 0.0
H186 H 0.40537 0.08563 1.01375 0.0
H187 H 0.36654 0.76493 0.86781 0.0
H188 H 0.57974 0.19258 0.2414 0.0
H189 H 0.15145 0.96832 0.98349 0.0
H190 H 0.09255 0.83687 0.95324 0.0
H191 H 0.52189 0.28408 0.2126 0.0
H192 H 0.11699 0.74322 0.91744 0.0
N193 N 0.37362 -0.01186 0.97732 0.0
C194 C 0.36055 0.04344 0.99528 0.0
C195 C 0.21288 0.97389 0.98124 0.0
C196 C 0.22398 0.91692 0.96338 0.0
C197 C 0.28198 0.03818 0.99688 0.0
C198 C 0.30567 0.92675 0.96109 0.0
H199 H 0.2223 0.74328 0.87139 0.0
N200 N 0.39489 0.88057 0.94233 0.0
C201 C 0.35092 0.79264 0.8895 0.0
C202 C 0.31764 0.87346 0.94182 0.0
C203 C 0.41098 0.83864 0.91684 0.0
C204 C 0.26955 0.77911 0.8919 0.0
C205 C 0.25109 0.81542 0.92016 0.0
O206 O 0.56692 0.95997 0.93827 0.0
O207 O 0.59066 0.06356 1.01951 0.0
O208 O 0.54888 0.1442 0.03489 0.0
O209 O 0.52665 0.09402 0.97516 0.0
O210 O 0.62697 0.00021 0.99267 0.0
O211 O 0.51834 0.03832 0.93051 0.0
O212 O 0.43706 0.0009 0.10642 0.0
O213 O 0.44368 0.9487 0.03188 0.0
O214 O 0.49969 0.88008 1.00659 0.0
O215 O 0.57283 0.95671 0.05891 0.0
O216 O 0.39558 0.00327 0.06104 0.0
O217 O 0.5306 0.96613 0.11009 0.0
C218 C 0.65858 0.06569 1.01142 0.0
C219 C 0.54812 -0.01175 0.87594 0.0
C220 C 0.5456 0.02596 0.8129 0.0
C221 C 0.54979 0.04245 0.85088 0.0
C222 C 0.53575 0.95406 0.80041 0.0
C223 C 0.54651 0.92042 0.86184 0.0
C224 C 0.53671 0.90207 0.82467 0.0
C225 C 0.54524 0.15133 0.99835 0.0
C226 C 0.55985 0.00732 0.91618 0.0
C227 C 0.16936 0.79758 0.92719 0.0
C228 C 0.15563 0.84914 0.94859 0.0
C229 C 0.37352 0.93934 0.04184 0.0
C230 C 0.45566 0.96257 0.16411 0.0
C231 C 0.47986 0.92576 0.19074 0.0
C232 C 0.47198 0.94148 0.22798 0.0
C233 C 0.45651 0.00247 0.23753 0.0
C234 C 0.41274 -7e-05 0.17615 0.0
C235 C 0.42076 0.02743 0.2118 0.0
C236 C 0.54095 0.88924 0.03869 0.0
C237 C 0.46275 0.95897 0.12386 0.0
H238 H 0.55807 0.09806 0.86078 0.0
H239 H 0.53264 0.94015 0.77156 0.0
H240 H 0.55759 0.88288 0.87913 0.0
H241 H 0.5345 0.84904 0.81454 0.0
H242 H 0.49843 0.88325 0.18287 0.0
H243 H 0.45706 0.02007 0.26572 0.0
H244 H 0.37185 0.00722 0.15717 0.0
H245 H 0.39494 0.06435 0.2198 0.0
Tb246 Tb 0.06751 0.51223 0.97627 0.0
C247 C 0.79788 0.4182 0.08277 0.0
C248 C 0.76575 0.56142 0.13473 0.0
C249 C 0.67842 0.41074 0.15807 0.0
C250 C 0.82175 0.50578 0.08422 0.0
C251 C 0.73196 0.36185 0.10952 0.0
C252 C 0.7012 0.49922 0.16271 0.0
C253 C 0.78615 0.27381 0.09568 0.0
N254 N 0.86011 0.40124 0.07552 0.0
C255 C 0.85786 0.33415 0.08616 0.0
C256 C 0.72007 0.28655 0.09767 0.0
Tb257 Tb 0.9851 0.49204 0.0606 0.0
N258 N 0.91802 0.56445 0.07721 0.0
C259 C 0.9753 0.65162 0.09657 0.0
C260 C 0.84747 0.65856 0.14973 0.0
C261 C 0.94561 0.6972 0.13075 0.0
H262 H 0.90785 0.32173 0.08177 0.0
H263 H 0.99075 0.75631 0.1386 0.0
H264 H 0.68175 0.51968 0.18596 0.0
H265 H 0.77885 0.2166 0.09229 0.0
H266 H 0.03681 0.68827 0.08874 0.0
H267 H 0.1489 0.27128 0.99278 0.0
H268 H 0.79569 0.60818 0.14562 0.0
H269 H 0.19953 0.697 0.97027 0.0
H270 H 0.0817 0.34559 1.00343 0.0
H271 H 0.35321 0.76718 0.97815 0.0
H272 H 0.64324 0.38406 0.18142 0.0
H273 H 0.2669 0.30301 0.9016 0.0
H274 H 0.34907 0.41451 0.86264 0.0
H275 H 0.66799 0.24853 0.08002 0.0
H276 H 0.43217 0.55212 0.87052 0.0
N277 N 0.13629 0.43725 0.96319 0.0
C278 C 0.12706 0.36964 0.98341 0.0
C279 C 0.23616 0.33253 0.91464 0.0
C280 C 0.24401 0.40666 0.89617 0.0
C281 C 0.16383 0.3147 0.97232 0.0
C282 C 0.18694 0.46922 0.9317 0.0
H283 H 0.43354 0.72625 0.94807 0.0
N284 N 0.19821 0.59193 0.95857 0.0
C285 C 0.3213 0.71142 0.96405 0.0
C286 C 0.23609 0.55927 0.94031 0.0
C287 C 0.23554 0.66985 0.96203 0.0
C288 C 0.36796 0.68463 0.94622 0.0
C289 C 0.33026 0.60932 0.92708 0.0
O290 O 0.05102 0.57009 0.93292 0.0
O291 O 0.9582 0.49822 1.00507 0.0
O292 O 0.89041 0.39099 0.02403 0.0
O293 O 0.97845 0.38729 0.98143 0.0
O294 O 0.01092 0.59005 0.97667 0.0
O295 O 0.01125 0.4487 0.92599 0.0
O296 O 0.02114 0.44552 0.10305 0.0
O297 O 0.09381 0.50499 0.03245 0.0
O298 O 0.15998 0.60681 1.01631 0.0
O299 O 0.06441 0.61489 0.05046 0.0
O300 O 0.03014 0.40855 0.05848 0.0
O301 O 0.03882 0.55807 0.11082 0.0
C302 C 0.9441 0.55073 0.99397 0.0
C303 C 0.04213 0.52283 0.87208 0.0
C304 C 0.01431 0.49486 0.80579 0.0
C305 C 0.98843 0.47734 0.84182 0.0
C306 C 0.09305 0.55777 0.80072 0.0
C307 C 0.11919 0.58635 0.86541 0.0
C308 C 0.14446 0.60323 0.83015 0.0
C309 C 0.90692 0.35225 0.99803 0.0
C310 C 0.01684 0.50939 0.91037 0.0
C311 C 0.38066 0.53378 0.88681 0.0
C312 C 0.32492 0.44716 0.87708 0.0
C313 C 0.09926 0.44814 0.0439 0.0
C314 C 0.03488 0.48798 0.16379 0.0
C315 C 0.09119 0.53908 0.19169 0.0
C316 C 0.08198 0.51692 0.22788 0.0
C317 C 0.01559 0.44519 0.2358 0.0
C318 C 0.97218 0.41465 0.1727 0.0
C319 C 0.96181 0.39401 0.20849 0.0
C320 C 0.14056 0.64797 0.03933 0.0
C321 C 0.05008 0.50489 0.12524 0.0
H322 H 0.92665 0.43078 0.84617 0.0
H323 H 0.11364 0.57364 0.77359 0.0
H324 H 0.16137 0.62124 0.88779 0.0
H325 H 0.2042 0.65207 0.8254 0.0
H326 H 0.14273 0.59398 0.18522 0.0
H327 H 0.00561 0.42898 0.26342 0.0
H328 H 0.9312 0.37231 0.15203 0.0
H329 H 0.91222 0.33798 0.21506 0.0
Tb330 Tb 0.53664 0.4682 0.06633 0.0
C331 C 0.32355 0.49941 0.93921 0.0
C332 C 0.11972 0.33695 0.91951 0.0
C333 C 0.1639 0.45984 0.86509 0.0
C334 C 0.26736 0.42329 0.95713 0.0
C335 C 0.25707 0.52527 0.88132 0.0
C336 C 0.10017 0.37697 0.88228 0.0
C337 C 0.43585 0.66719 0.88613 0.0
N338 N 0.41786 0.55853 0.94802 0.0
C339 C 0.47243 0.6363 0.92597 0.0
C340 C 0.33276 0.61422 0.86391 0.0
Tb341 Tb 0.46494 0.47821 0.97657 0.0
N342 N 0.31143 0.37583 0.97033 0.0
C343 C 0.26911 0.2803 0.96494 0.0
C344 C 0.09706 0.23589 0.91982 0.0
C345 C 0.17085 0.21288 0.94145 0.0
H346 H 0.53743 0.67184 0.93463 0.0
H347 H 0.1548 0.15248 0.94056 0.0
H348 H 0.04513 0.33912 0.86529 0.0
H349 H 0.48014 0.71976 0.87429 0.0
H350 H 0.30181 0.25127 0.97491 0.0
H351 H 0.86884 0.67932 0.07603 0.0
H352 H 0.09626 0.28642 0.91618 0.0
H353 H 0.37709 0.27866 0.07224 0.0
H354 H 0.72958 0.61457 0.05286 0.0
H355 H 0.4097 0.17266 0.12529 0.0
H356 H 0.14475 0.46862 0.83856 0.0
H357 H 0.94426 0.58314 0.15296 0.0
H358 H 0.81609 0.44473 0.15671 0.0
H359 H 0.31858 0.63431 0.83916 0.0
H360 H 0.70994 0.26687 0.1842 0.0
N361 N 0.67921 0.50264 0.07807 0.0
C362 C 0.74513 0.57998 0.07019 0.0
C363 C 0.88583 0.56217 0.1365 0.0
C364 C 0.8104 0.4733 0.14277 0.0
C365 C 0.83636 0.62243 0.08784 0.0
C366 C 0.68677 0.44674 0.10108 0.0
H367 H 0.422 0.12052 0.16031 0.0
N368 N 0.51688 0.34525 0.08713 0.0
C369 C 0.38548 0.19319 0.10962 0.0
C370 C 0.60155 0.35747 0.10372 0.0
C371 C 0.42568 0.27578 0.08809 0.0
C372 C 0.44853 0.16814 0.13816 0.0
C373 C 0.6088 0.27898 0.13835 0.0
O374 O 0.49495 0.52666 0.10344 0.0
O375 O 0.44127 0.4822 0.0339 0.0
O376 O 0.49518 0.59236 1.00451 0.0
O377 O 0.58684 0.59083 0.05039 0.0
O378 O 0.40142 0.40254 0.0706 0.0
O379 O 0.5801 0.49278 0.12082 0.0
O380 O 0.53728 0.44742 0.94164 0.0
O381 O 0.57188 0.47797 1.00921 0.0
O382 O 0.51436 0.3677 0.03355 0.0
O383 O 0.41081 0.368 0.99835 0.0
O384 O 0.60178 0.56007 0.97509 0.0
O385 O 0.4275 0.43944 0.92267 0.0
C386 C 0.37543 0.43847 0.04954 0.0
C387 C 0.48701 0.48539 0.16467 0.0
C388 C 0.4817 0.47375 0.23123 0.0
C389 C 0.51029 0.52086 0.20058 0.0
C390 C 0.44424 0.39316 0.22391 0.0
C391 C 0.425 0.4078 0.16101 0.0
C392 C 0.40787 0.36121 0.19013 0.0
C393 C 0.54971 0.62668 0.03344 0.0
C394 C 0.53456 0.52122 0.13184 0.0
C395 C 0.70355 0.30581 0.16684 0.0
C396 C 0.79703 0.39435 0.16936 0.0
C397 C 0.63784 0.53053 0.99554 0.0
C398 C 0.53304 0.48656 0.88083 0.0
C399 C 0.52329 0.45632 0.84413 0.0
C400 C 0.53982 0.5066 0.81464 0.0
C401 C 0.55058 0.58093 0.82339 0.0
C402 C 0.5704 0.56683 0.88683 0.0
C403 C 0.57374 0.61289 0.85858 0.0
C404 C 0.45454 0.33554 1.00765 0.0
C405 C 0.49283 0.43842 0.91241 0.0
H406 H 0.54991 0.5828 0.20429 0.0
H407 H 0.4382 0.35312 0.24438 0.0
H408 H 0.40257 0.3784 0.13466 0.0
H409 H 0.37406 0.29902 0.18561 0.0
H410 H 0.50295 0.3955 0.83889 0.0
H411 H 0.5483 0.61794 0.80291 0.0
H412 H 0.5861 0.59292 0.91391 0.0
H413 H 0.59039 0.67286 0.86419 0.0
Tb414 Tb 0.16662 0.31003 0.3126 0.0
C415 C 0.23514 0.47947 0.47842 0.0
C416 C 0.33003 0.44947 0.51185 0.0
C417 C 0.25937 0.50559 0.54922 0.0
C418 C 0.28845 0.44948 0.47921 0.0
C419 C 0.2254 0.52191 0.51842 0.0
C420 C 0.30979 0.46992 0.54579 0.0
C421 C 0.17011 0.6256 0.48161 0.0
N422 N 0.21354 0.49133 0.43861 0.0
C423 C 0.18832 0.55517 0.42708 0.0
C424 C 0.1927 0.59113 0.52152 0.0
Tb425 Tb 0.19686 0.37712 0.40415 0.0
N426 N 0.30615 0.42768 0.44645 0.0
C427 C 0.3695 0.4104 0.44441 0.0
C428 C 0.3955 0.4323 0.50933 0.0
C429 C 0.4168 0.41488 0.47569 0.0
H430 H 0.19514 0.57085 0.3997 0.0
H431 H 0.46854 0.40331 0.47396 0.0
H432 H 0.33934 0.46395 0.57035 0.0
H433 H 0.17174 0.67968 0.48383 0.0
H434 H 0.38215 0.39141 0.41878 0.0
H435 H 0.91728 0.38797 0.3332 0.0
H436 H 0.43302 0.43618 0.53292 0.0
H437 H 0.15936 0.174 0.25798 0.0
H438 H 0.05675 0.41009 0.33546 0.0
H439 H 0.07006 0.11097 0.20162 0.0
H440 H 0.25387 0.52706 0.57574 0.0
H441 H 0.80276 0.26276 0.30858 0.0
H442 H 0.75869 0.13138 0.27976 0.0
H443 H 0.19437 0.61839 0.54763 0.0
H444 H 0.79975 0.05052 0.2428 0.0
N445 N 0.03411 0.30507 0.30715 0.0
C446 C 0.01353 0.35943 0.32048 0.0
C447 C 0.86673 0.27413 0.30795 0.0
C448 C 0.88618 0.21946 0.29339 0.0
C449 C 0.93102 0.34488 0.32126 0.0
C450 C 0.97081 0.23676 0.29356 0.0
H451 H 0.92136 0.07078 0.20192 0.0
N452 N 0.07155 0.20071 0.28044 0.0
C453 C 0.04545 0.12485 0.22507 0.0
C454 C 0.99107 0.18507 0.27806 0.0
C455 C 0.09759 0.16691 0.25522 0.0
C456 C 0.96107 0.10106 0.22551 0.0
C457 C 0.93164 0.12538 0.25453 0.0
O458 O 0.24181 0.3052 0.27156 0.0
O459 O 0.2585 0.39755 0.35282 0.0
O460 O 0.21236 0.47557 0.36903 0.0
O461 O 0.18499 0.42268 0.30969 0.0
O462 O 0.29578 0.33465 0.32578 0.0
O463 O 0.1719 0.36493 0.26347 0.0
O464 O 0.10434 0.33092 0.43981 0.0
O465 O 0.11107 0.284 0.36556 0.0
O466 O 0.17017 0.21323 0.33992 0.0
O467 O 0.2416 0.29049 0.39224 0.0
O468 O 0.06668 0.34524 0.39303 0.0
O469 O 0.19865 0.29806 0.44287 0.0
C470 C 0.32666 0.40026 0.34444 0.0
C471 C 0.21386 0.32528 0.20921 0.0
C472 C 0.21123 0.36043 0.14582 0.0
C473 C 0.2136 0.37764 0.1836 0.0
C474 C 0.20402 0.28919 0.13398 0.0
C475 C 0.21594 0.25875 0.1958 0.0
C476 C 0.20682 0.23904 0.15878 0.0
C477 C 0.20413 0.48029 0.3327 0.0
C478 C 0.22354 0.34553 0.24927 0.0
C479 C 0.84707 0.10197 0.25745 0.0
C480 C 0.82395 0.1483 0.278 0.0
C481 C 0.04276 0.28022 0.37456 0.0
C482 C 0.12506 0.29325 0.49725 0.0
C483 C 0.14809 0.25492 0.52352 0.0
C484 C 0.14268 0.27163 0.56093 0.0
C485 C 0.13079 0.33454 0.57085 0.0
C486 C 0.08513 0.33297 0.50987 0.0
C487 C 0.09509 0.36052 0.54562 0.0
C488 C 0.2106 0.2229 0.37215 0.0
C489 C 0.13063 0.28934 0.45689 0.0
H490 H 0.21922 0.43258 0.19295 0.0
H491 H 0.20195 0.2747 0.10525 0.0
H492 H 0.23008 0.22367 0.21336 0.0
H493 H 0.20725 0.18684 0.14924 0.0
H494 H 0.16393 0.21072 0.51531 0.0
H495 H 0.13326 0.3527 0.59912 0.0
H496 H 0.04526 0.34211 0.49119 0.0
H497 H 0.07136 0.3988 0.55413 0.0
Tb498 Tb 0.73467 0.85161 0.31008 0.0
C499 C 0.46411 0.74974 0.41541 0.0
C500 C 0.43368 0.89424 0.46724 0.0
C501 C 0.34773 0.74419 0.4915 0.0
C502 C 0.48761 0.83731 0.41638 0.0
C503 C 0.39927 0.69425 0.44259 0.0
C504 C 0.37042 0.83277 0.4958 0.0
C505 C 0.45126 0.60473 0.42766 0.0
N506 N 0.52638 0.73259 0.40835 0.0
C507 C 0.5233 0.66475 0.41832 0.0
C508 C 0.38603 0.61858 0.43047 0.0
Tb509 Tb 0.65165 0.82385 0.39419 0.0
N510 N 0.58321 0.89582 0.40841 0.0
C511 C 0.64094 0.98322 0.42679 0.0
C512 C 0.51608 -0.00812 0.48141 0.0
C513 C 0.61327 0.02996 0.4614 0.0
H514 H 0.57273 0.65181 0.41306 0.0
H515 H 0.65853 0.08933 0.46882 0.0
H516 H 0.35165 0.85374 0.51909 0.0
H517 H 0.44288 0.54741 0.42315 0.0
H518 H 0.69815 0.02036 0.41544 0.0
H519 H 0.80969 0.60492 0.32486 0.0
H520 H 0.46406 0.94141 0.47787 0.0
H521 H 0.92069 0.97039 0.35974 0.0
H522 H 0.74471 0.68112 0.3364 0.0
H523 H 0.05237 0.06914 0.34167 0.0
H524 H 0.31349 0.71802 0.51512 0.0
H525 H 0.93092 0.64017 0.23435 0.0
H526 H 0.01677 0.7539 0.19735 0.0
H527 H 0.33339 0.58146 0.41286 0.0
H528 H 0.10157 0.89064 0.20719 0.0
N529 N 0.80276 0.77511 0.29745 0.0
C530 C 0.79102 0.70562 0.31677 0.0
C531 C 0.90071 0.66986 0.24772 0.0
C532 C 0.91101 0.74593 0.23025 0.0
C533 C 0.82637 0.64978 0.30503 0.0
C534 C 0.85467 0.80802 0.26652 0.0
H535 H 0.10556 0.06164 0.28661 0.0
N536 N 0.87792 0.91797 0.3065 0.0
C537 C 0.01305 0.02274 0.32212 0.0
C538 C 0.90543 0.89698 0.27739 0.0
C539 C 0.93558 0.9682 0.33193 0.0
C540 C 0.04233 0.01695 0.2886 0.0
C541 C 1.00072 0.94693 0.26494 0.0
O542 O 0.73294 0.91169 0.26496 0.0
O543 O 0.62463 0.83309 0.33923 0.0
O544 O 0.5567 0.7249 0.35717 0.0
O545 O 0.64342 0.72572 0.31321 0.0
O546 O 0.67365 0.92519 0.31097 0.0
O547 O 0.6749 0.78924 0.25932 0.0
O548 O 0.68156 0.77311 0.43655 0.0
O549 O 0.76252 0.84351 0.36629 0.0
O550 O 0.79912 0.9723 0.33551 0.0
O551 O 0.7489 0.94318 0.39263 0.0
O552 O 0.69757 0.74191 0.38974 0.0
O553 O 0.701 0.88709 0.44524 0.0
C554 C 0.60801 0.88446 0.32852 0.0
C555 C 0.71109 0.86089 0.204 0.0
C556 C 0.67803 0.82785 0.13818 0.0
C557 C 0.65483 0.81344 0.17476 0.0
C558 C 0.75626 0.88979 0.13152 0.0
C559 C 0.7872 0.9235 0.1956 0.0
C560 C 0.80975 0.93753 0.15984 0.0
C561 C 0.57268 0.68833 0.3302 0.0
C562 C 0.68999 0.85167 0.24302 0.0
C563 C 0.04958 0.87197 0.22295 0.0
C564 C 0.99261 0.78646 0.21182 0.0
C565 C 0.76817 0.78588 0.377 0.0
C566 C 0.69715 0.81572 0.49765 0.0
C567 C 0.75336 0.86933 0.5248 0.0
C568 C 0.7483 0.84834 0.56104 0.0
C569 C 0.68502 0.77561 0.56984 0.0
C570 C 0.638 0.74148 0.50721 0.0
C571 C 0.63083 0.72225 0.54322 0.0
C572 C 0.79941 -0.00719 0.37029 0.0
C573 C 0.71015 0.8321 0.45913 0.0
H574 H 0.59338 0.76781 0.1803 0.0
H575 H 0.77484 0.9031 0.10394 0.0
H576 H 0.83175 0.95772 0.2173 0.0
H577 H 0.86963 0.98464 0.1538 0.0
H578 H 0.80204 0.92535 0.51764 0.0
H579 H 0.67808 0.76021 0.59757 0.0
H580 H 0.59726 0.69771 0.48689 0.0
H581 H 0.58382 0.66559 0.55049 0.0
Tb582 Tb 0.20181 0.79888 0.40047 0.0
C583 C 0.99037 0.83479 0.27471 0.0
C584 C 0.78544 0.67637 0.25256 0.0
C585 C 0.83508 0.8034 0.19997 0.0
C586 C 0.93214 0.75831 0.29137 0.0
C587 C 0.92794 0.86727 0.21765 0.0
C588 C 0.76875 0.71964 0.21587 0.0
C589 C 0.10842 0.00583 0.22491 0.0
N590 N 0.085 0.89158 0.28429 0.0
C591 C 0.14227 0.97041 0.2636 0.0
C592 C 0.00586 0.95672 0.20194 0.0
Tb593 Tb 0.1287 0.80841 0.31123 0.0
N594 N 0.97415 0.70881 0.30397 0.0
C595 C 0.9302 0.61353 0.29735 0.0
C596 C 0.76054 0.57461 0.25153 0.0
C597 C 0.83223 0.54865 0.27292 0.0
H598 H 0.20752 0.00338 0.27235 0.0
H599 H 0.81491 0.48794 0.27126 0.0
H600 H 0.71457 0.68327 0.19809 0.0
H601 H 0.15535 0.05772 0.21356 0.0
H602 H 0.96148 0.58315 0.30721 0.0
H603 H 0.53337 0.01057 0.40755 0.0
H604 H 0.76108 0.62595 0.24853 0.0
H605 H 0.04274 0.61068 0.40872 0.0
H606 H 0.39401 0.9452 0.38545 0.0
H607 H 0.07824 0.50546 0.46125 0.0
H608 H 0.81903 0.81278 0.17302 0.0
H609 H 0.61258 0.91727 0.4844 0.0
H610 H 0.48531 0.77838 0.48906 0.0
H611 H 0.99316 0.97901 0.17754 0.0
H612 H 0.38088 0.60111 0.51752 0.0
N613 N 0.34479 0.83391 0.41125 0.0
C614 C 0.41014 0.91097 0.40274 0.0
C615 C 0.55389 0.89531 0.46807 0.0
C616 C 0.4789 0.80652 0.47513 0.0
C617 C 0.50184 0.9539 0.41963 0.0
C618 C 0.35353 0.77876 0.43434 0.0
H619 H 0.09216 0.45475 0.49653 0.0
N620 N 0.18317 0.67699 0.42198 0.0
C621 C 0.05318 0.52564 0.44581 0.0
C622 C 0.26857 0.68957 0.43779 0.0
C623 C 0.09211 0.60776 0.42391 0.0
C624 C 0.11773 0.50123 0.47375 0.0
C625 C 0.27757 0.61197 0.47242 0.0
O626 O 0.1614 0.8584 0.43751 0.0
O627 O 0.10689 0.81393 0.36844 0.0
O628 O 0.16142 0.92364 0.33915 0.0
O629 O 0.25289 0.92192 0.38503 0.0
O630 O 0.06654 0.7345 0.40519 0.0
O631 O 0.24489 0.82208 0.45496 0.0
O632 O 0.19933 0.775 0.27642 0.0
O633 O 0.23553 0.80695 0.34323 0.0
O634 O 0.17528 0.6967 0.36793 0.0
O635 O 0.07158 0.69793 0.33305 0.0
O636 O 0.26508 0.88992 0.30924 0.0
O637 O 0.09146 0.7714 0.25716 0.0
C638 C 0.04115 0.77099 0.38421 0.0
C639 C 0.15196 0.81591 0.49832 0.0
C640 C 0.14649 0.80533 0.56459 0.0
C641 C 0.17517 0.85194 0.53398 0.0
C642 C 0.109 0.72454 0.55772 0.0
C643 C 0.08987 0.73818 0.49474 0.0
C644 C 0.07211 0.69195 0.52405 0.0
C645 C 0.21678 0.95834 0.36783 0.0
C646 C 0.20017 0.85158 0.46585 0.0
C647 C 0.37355 0.6396 0.50018 0.0
C648 C 0.4669 0.72828 0.50193 0.0
C649 C 0.30096 0.85981 0.32938 0.0
C650 C 0.19695 0.81366 0.21549 0.0
C651 C 0.18871 0.78159 0.1793 0.0
C652 C 0.20576 0.83025 0.14927 0.0
C653 C 0.2147 0.90432 0.15685 0.0
C654 C 0.23434 0.89408 0.22057 0.0
C655 C 0.23823 0.93845 0.19157 0.0
C656 C 0.11397 0.66428 0.34267 0.0
C657 C 0.15536 0.76726 0.24719 0.0
H658 H 0.21462 0.91395 0.53757 0.0
H659 H 0.10133 0.6853 0.57889 0.0
H660 H 0.06732 0.70859 0.46848 0.0
H661 H 0.03693 0.62972 0.51983 0.0
H662 H 0.16903 0.7208 0.1748 0.0
H663 H 0.21113 0.9396 0.13576 0.0
H664 H 0.24876 0.92145 0.24739 0.0
H665 H 0.25357 -0.00169 0.19635 0.0
Tb666 Tb 0.83039 0.64125 0.64545 0.0
C667 C 0.90303 0.81191 0.8105 0.0
C668 C 0.9953 0.77779 0.8433 0.0
C669 C 0.92665 0.83539 0.88127 0.0
C670 C 0.95551 0.78106 0.81088 0.0
C671 C 0.89324 0.85336 0.85073 0.0
C672 C 0.97543 0.79791 0.87743 0.0
C673 C 0.83842 0.95843 0.81451 0.0
N674 N 0.88173 0.82467 0.77088 0.0
C675 C 0.85693 0.88882 0.75967 0.0
C676 C 0.86071 0.92288 0.85429 0.0
Tb677 Tb 0.86226 0.70954 0.73665 0.0
N678 N 0.97254 0.75956 0.77792 0.0
C679 C 0.03458 0.74077 0.7753 0.0
C680 C 0.05733 0.756 0.84028 0.0
C681 C 0.0794 0.74073 0.80643 0.0
H682 H 0.86439 0.90506 0.73239 0.0
H683 H 0.12924 0.72661 0.80441 0.0
H684 H 0.00314 0.78909 0.90188 0.0
H685 H 0.84059 0.01269 0.81695 0.0
H686 H 0.04733 0.72308 0.74939 0.0
H687 H 0.59037 0.72967 0.6704 0.0
H688 H 0.09121 0.75307 0.86351 0.0
H689 H 0.81305 0.50194 0.58927 0.0
H690 H 0.72734 0.74643 0.67115 0.0
H691 H 0.71886 0.43921 0.53478 0.0
H692 H 0.9212 0.85606 0.90799 0.0
H693 H 0.47158 0.60612 0.64687 0.0
H694 H 0.42114 0.47275 0.61929 0.0
H695 H 0.86234 0.94961 0.88054 0.0
H696 H 0.45482 0.38726 0.58139 0.0
N697 N 0.69999 0.64132 0.64156 0.0
C698 C 0.68261 0.69706 0.65594 0.0
C699 C 0.53466 0.61553 0.64513 0.0
C700 C 0.55055 0.55896 0.63005 0.0
C701 C 0.60132 0.68537 0.6578 0.0
C702 C 0.63423 0.57383 0.62865 0.0
H703 H 0.57139 0.40632 0.53707 0.0
N704 N 0.73033 0.53306 0.61378 0.0
C705 C 0.69684 0.45476 0.55862 0.0
C706 C 0.65075 0.52009 0.6127 0.0
C707 C 0.75211 0.49673 0.58794 0.0
C708 C 0.61349 0.43462 0.56031 0.0
C709 C 0.58812 0.46064 0.59015 0.0
O710 O 0.9008 0.63017 0.60386 0.0
O711 O 0.9227 0.7285 0.68537 0.0
O712 O 0.87904 0.80821 0.70117 0.0
O713 O 0.85281 0.75541 0.64183 0.0
O714 O 0.96016 0.66626 0.65836 0.0
O715 O 0.83801 0.69677 0.59636 0.0
O716 O 0.7705 0.66677 0.77269 0.0
O717 O 0.77644 0.6153 0.69857 0.0
O718 O 0.83589 0.54529 0.67303 0.0
O719 O 0.90679 0.62272 0.7254 0.0
O720 O 0.73168 0.67621 0.72615 0.0
O721 O 0.86215 0.63009 0.77566 0.0
C722 C 0.99107 0.7318 0.6771 0.0
C723 C 0.87501 0.65354 0.5417 0.0
C724 C 0.87412 0.6918 0.47879 0.0
C725 C 0.87661 0.70762 0.51668 0.0
C726 C 0.86554 0.62043 0.46623 0.0
C727 C 0.87489 0.58637 0.52767 0.0
C728 C 0.8664 0.56844 0.49049 0.0
C729 C 0.87244 0.81341 0.66475 0.0
C730 C 0.88571 0.67293 0.5818 0.0
C731 C 0.50451 0.43926 0.59487 0.0
C732 C 0.48552 0.48795 0.61592 0.0
C733 C 0.70821 0.61104 0.70789 0.0
C734 C 0.78905 0.62754 0.83003 0.0
C735 C 0.81385 0.59095 0.85651 0.0
C736 C 0.80799 0.60799 0.8938 0.0
C737 C 0.79405 0.66981 0.90341 0.0
C738 C 0.74712 0.66554 0.8424 0.0
C739 C 0.75712 0.69413 0.87798 0.0
C740 C 0.8769 0.55547 0.70521 0.0
C741 C 0.79504 0.62376 0.78973 0.0
H742 H 0.88384 0.76286 0.5266 0.0
H743 H 0.86369 0.60708 0.43739 0.0
H744 H 0.88646 0.54922 0.54492 0.0
H745 H 0.86534 0.51589 0.48039 0.0
H746 H 0.83148 0.54783 0.84855 0.0
H747 H 0.79633 0.68841 0.9316 0.0
H748 H 0.70692 0.67403 0.82355 0.0
H749 H 0.73247 0.73185 0.88622 0.0
Tb750 Tb 0.40256 0.18238 0.6437 0.0
C751 C 0.13252 0.08193 0.74855 0.0
C752 C 0.10312 0.22698 0.80049 0.0
C753 C 0.01645 0.07676 0.82465 0.0
C754 C 0.15649 0.16961 0.74955 0.0
C755 C 0.06752 0.02672 0.77562 0.0
C756 C 0.03969 0.16556 0.82906 0.0
C757 C 0.11955 0.93712 0.76189 0.0
N758 N 0.19476 0.06444 0.74191 0.0
C759 C 0.19166 -0.00312 0.75244 0.0
C760 C 0.05415 0.95099 0.76354 0.0
Tb761 Tb 0.32009 0.15493 0.72783 0.0
N762 N 0.25217 0.22771 0.74158 0.0
C763 C 0.31023 0.31505 0.75992 0.0
C764 C 0.18589 0.32442 0.81462 0.0
C765 C 0.28302 0.36209 0.79455 0.0
H766 H 0.24112 0.98378 0.74753 0.0
H767 H 0.32854 0.42142 0.80195 0.0
H768 H 0.02156 0.1867 0.85252 0.0
H769 H 0.11157 0.87989 0.75795 0.0
H770 H 0.36707 0.35209 0.74831 0.0
H771 H 0.48117 0.938 0.65748 0.0
H772 H 0.13366 0.27407 0.81111 0.0
H773 H 0.5886 0.30059 0.69342 0.0
H774 H 0.41539 0.01336 0.66958 0.0
H775 H 0.71951 0.401 0.67538 0.0
H776 H 0.98191 0.0504 0.84819 0.0
H777 H 0.60196 0.97494 0.56675 0.0
H778 H 0.68593 0.08969 0.52907 0.0
H779 H 0.00271 0.91482 0.74503 0.0
H780 H 0.77092 0.22677 0.53994 0.0
N781 N 0.47186 0.10727 0.63055 0.0
C782 C 0.46111 0.038 0.64972 0.0
C783 C 0.57128 0.00402 0.58025 0.0
C784 C 0.58055 0.07994 0.56293 0.0
C785 C 0.49719 0.98289 0.63771 0.0
C786 C 0.52332 0.14075 0.59954 0.0
H787 H 0.77195 0.39602 0.61973 0.0
N788 N 0.54566 0.24966 0.63995 0.0
C789 C 0.68035 0.35482 0.6557 0.0
C790 C 0.57318 0.22963 0.61056 0.0
C791 C 0.60338 0.29933 0.66553 0.0
C792 C 0.70919 0.35038 0.62188 0.0
C793 C 0.66816 0.28055 0.59802 0.0
O794 O 0.39839 0.24201 0.59887 0.0
O795 O 0.29243 0.16354 0.67285 0.0
O796 O 0.22533 0.0556 0.69104 0.0
O797 O 0.31203 0.05627 0.64716 0.0
O798 O 0.34142 0.25585 0.64472 0.0
O799 O 0.3436 0.11976 0.59293 0.0
O800 O 0.35006 0.10449 0.77034 0.0
O801 O 0.43063 0.17428 0.69986 0.0
O802 O 0.4669 0.30309 0.669 0.0
O803 O 0.41757 0.27384 0.72623 0.0
O804 O 0.36623 0.07304 0.7237 0.0
O805 O 0.3687 0.21826 0.77888 0.0
C806 C 0.27564 0.21481 0.66213 0.0
C807 C 0.3785 0.19233 0.53798 0.0
C808 C 0.34676 0.16118 0.47207 0.0
C809 C 0.32299 0.14538 0.50848 0.0
C810 C 0.42477 0.22402 0.46584 0.0
C811 C 0.45446 0.25565 0.53009 0.0
C812 C 0.47756 0.27116 0.49448 0.0
C813 C 0.24145 0.01881 0.66427 0.0
C814 C 0.3568 0.18191 0.57682 0.0
C815 C 0.71837 0.20729 0.55564 0.0
C816 C 0.66195 0.12153 0.54428 0.0
C817 C 0.43655 0.11685 0.71066 0.0
C818 C 0.36521 0.14731 0.83145 0.0
C819 C 0.42099 0.2018 0.85841 0.0
C820 C 0.4183 0.1809 0.89458 0.0
C821 C 0.35794 0.1069 0.90356 0.0
C822 C 0.30778 0.0726 0.84121 0.0
C823 C 0.30322 0.05311 0.87718 0.0
C824 C 0.46758 0.32349 0.70382 0.0
C825 C 0.37793 0.16345 0.79289 0.0
H826 H 0.26166 0.0991 0.5137 0.0
H827 H 0.44374 0.23837 0.43839 0.0
H828 H 0.49849 0.2892 0.55208 0.0
H829 H 0.53736 0.31897 0.48886 0.0
H830 H 0.46793 0.25848 0.85111 0.0
H831 H 0.35361 0.09075 0.93121 0.0
H832 H 0.26698 0.02845 0.82103 0.0
H833 H 0.25814 -0.00423 0.88454 0.0
Tb834 Tb 0.87134 0.13308 0.73358 0.0
C835 C 0.65954 0.16891 0.60741 0.0
C836 C 0.45535 0.00922 0.5854 0.0
C837 C 0.50319 0.13636 0.53302 0.0
C838 C 0.60207 0.09204 0.62404 0.0
C839 C 0.59582 0.20085 0.55067 0.0
C840 C 0.43771 0.05225 0.54885 0.0
C841 C 0.77508 0.34103 0.55786 0.0
N842 N 0.75397 0.22656 0.617 0.0
C843 C 0.81023 0.30593 0.5964 0.0
C844 C 0.67253 0.2908 0.53501 0.0
Tb845 Tb 0.79886 0.14383 0.6439 0.0
N846 N 0.64492 0.0431 0.63646 0.0
C847 C 0.60186 0.94791 0.62967 0.0
C848 C 0.43156 0.90778 0.58418 0.0
C849 C 0.50404 0.88256 0.60531 0.0
H850 H 0.87537 0.33972 0.60519 0.0
H851 H 0.48733 0.822 0.60356 0.0
H852 H 0.38356 0.01558 0.53113 0.0
H853 H 0.8207 0.39389 0.5467 0.0
H854 H 0.6336 0.91786 0.6394 0.0
H855 H 0.20311 0.3431 0.74078 0.0
H856 H 0.43147 0.95886 0.58131 0.0
H857 H 0.71185 0.94464 0.74134 0.0
H858 H 0.0637 0.27845 0.71877 0.0
H859 H 0.7465 0.83874 0.7936 0.0
H860 H 0.48672 0.14567 0.50612 0.0
H861 H 0.28152 0.2492 0.81765 0.0
H862 H 0.1539 0.11037 0.82217 0.0
H863 H 0.6592 0.31259 0.5106 0.0
H864 H 0.04834 0.93248 0.85028 0.0
N865 N 0.01406 0.16715 0.74448 0.0
C866 C 0.07967 0.24402 0.73599 0.0
C867 C 0.22296 0.22738 0.80124 0.0
C868 C 0.14764 0.13873 0.80828 0.0
C869 C 0.17135 0.28642 0.75284 0.0
C870 C 0.02245 0.11177 0.76753 0.0
H871 H 0.76017 0.78761 0.8287 0.0
N872 N 0.85212 0.01084 0.75502 0.0
C873 C 0.72169 0.85921 0.77828 0.0
C874 C 0.93726 0.02294 0.77088 0.0
C875 C 0.761 0.94167 0.75669 0.0
C876 C 0.78587 0.83417 0.80612 0.0
C877 C 0.94573 0.94467 0.80526 0.0
O878 O 0.83088 0.19227 0.77084 0.0
O879 O 0.77646 0.14819 0.70136 0.0
O880 O 0.83123 0.25848 0.67216 0.0
O881 O 0.9224 0.25623 0.71814 0.0
O882 O 0.73624 0.06827 0.73802 0.0
O883 O 0.91453 0.15626 0.78818 0.0
O884 O 0.87005 0.11287 0.60827 0.0
O885 O 0.90496 0.14158 0.67623 0.0
O886 O 0.84541 0.03136 0.70077 0.0
O887 O 0.74248 0.0331 0.66545 0.0
O888 O 0.93558 0.22445 0.64223 0.0
O889 O 0.76137 0.10778 0.58967 0.0
C890 C 0.71073 0.10475 0.7171 0.0
C891 C 0.82143 0.14974 0.83183 0.0
C892 C 0.81383 0.13879 0.8983 0.0
C893 C 0.84342 0.1856 0.86766 0.0
C894 C 0.77688 0.0581 0.89127 0.0
C895 C 0.75973 0.07198 0.82811 0.0
C896 C 0.74165 0.02564 0.85738 0.0
C897 C 0.88629 0.29275 0.70098 0.0
C898 C 0.8697 0.18557 0.7992 0.0
C899 C 0.04148 0.97163 0.83312 0.0
C900 C 0.13521 0.06012 0.83496 0.0
C901 C 0.97077 0.19384 0.66241 0.0
C902 C 0.86706 0.15452 0.54777 0.0
C903 C 0.85682 0.125 0.51087 0.0
C904 C 0.87468 0.17616 0.48164 0.0
C905 C 0.88777 0.2511 0.4909 0.0
C906 C 0.9061 0.23481 0.55422 0.0
C907 C 0.91123 0.28205 0.52625 0.0
C908 C 0.7851 -0.00038 0.67501 0.0
C909 C 0.826 0.10577 0.57915 0.0
H910 H 0.88259 0.24761 0.87134 0.0
H911 H 0.76941 0.01857 0.91224 0.0
H912 H 0.7378 0.04256 0.80177 0.0
H913 H 0.70732 0.9634 0.85302 0.0
H914 H 0.83494 0.06398 0.5053 0.0
H915 H 0.88657 0.28917 0.47075 0.0
H916 H 0.92155 0.26025 0.58143 0.0
H917 H 0.92894 0.34217 0.53225 0.0
loop_
_geom_bond_atom_site_label_1
_geom_bond_atom_site_label_2
_geom_bond_distance
_geom_bond_site_symmetry_2
_ccdc_geom_bond_type
H0 C3 0.931 . S
H1 C6 0.928 . S
H2 C8 0.930 . S
C3 H0 0.931 . S
C3 C4 1.413 . S
C3 C5 1.360 . S
C4 C3 1.413 . S
C4 C8 1.429 . S
C5 C3 1.360 . S
C5 C6 1.372 . S
C6 H1 0.928 . S
C6 C5 1.372 . S
C6 C7 1.404 . S
C7 C6 1.404 . S
C7 C8 1.391 . S
C8 H2 0.930 . S
C8 C4 1.429 . S
C8 C7 1.391 . S
H9 C12 0.931 . S
H10 C15 0.928 . S
H11 C17 0.930 . S
C12 H9 0.931 . S
C12 C13 1.413 . S
C12 C14 1.360 . S
C13 C12 1.413 . S
C13 C17 1.429 . S
C14 C12 1.360 . S
C14 C15 1.372 . S
C15 H10 0.928 . S
C15 C14 1.372 . S
C15 C16 1.404 . S
C16 C15 1.404 . S
C16 C17 1.391 . S
C17 H11 0.930 . S
C17 C13 1.429 . S
C17 C16 1.391 . S
H18 C21 0.931 . S
H19 C24 0.928 . S
H20 C26 0.930 . S
C21 H18 0.931 . S
C21 C22 1.413 . S
C21 C23 1.360 . S
C22 C21 1.413 . S
C22 C26 1.429 . S
C23 C21 1.360 . S
C23 C24 1.372 . S
C24 H19 0.928 . S
C24 C23 1.372 . S
C24 C25 1.404 . S
C25 C24 1.404 . S
C25 C26 1.391 . S
C26 H20 0.930 . S
C26 C22 1.429 . S
C26 C25 1.391 . S
H27 C30 0.931 . S
H28 C33 0.928 . S
H29 C35 0.930 . S
C30 H27 0.931 . S
C30 C31 1.413 . S
C30 C32 1.360 . S
C31 C30 1.413 . S
C31 C35 1.429 . S
C32 C30 1.360 . S
C32 C33 1.372 . S
C33 H28 0.928 . S
C33 C32 1.372 . S
C33 C34 1.404 . S
C34 C33 1.404 . S
C34 C35 1.391 . S
C35 H29 0.930 . S
C35 C31 1.429 . S
C35 C34 1.391 . S
H36 C39 0.931 . S
H37 C42 0.928 . S
H38 C44 0.930 . S
C39 H36 0.931 . S
C39 C40 1.413 . S
C39 C41 1.360 . S
C40 C39 1.413 . S
C40 C44 1.429 . S
C41 C39 1.360 . S
C41 C42 1.372 . S
C42 H37 0.928 . S
C42 C41 1.372 . S
C42 C43 1.404 . S
C43 C42 1.404 . S
C43 C44 1.391 . S
C44 H38 0.930 . S
C44 C40 1.429 . S
C44 C43 1.391 . S
H45 C48 0.931 . S
H46 C51 0.928 . S
H47 C53 0.930 . S
C48 H45 0.931 . S
C48 C49 1.413 . S
C48 C50 1.360 . S
C49 C48 1.413 . S
C49 C53 1.429 . S
C50 C48 1.360 . S
C50 C51 1.372 . S
C51 H46 0.928 . S
C51 C50 1.372 . S
C51 C52 1.404 . S
C52 C51 1.404 . S
C52 C53 1.391 . S
C53 H47 0.930 . S
C53 C49 1.429 . S
C53 C52 1.391 . S
H54 C57 0.931 . S
H55 C60 0.928 . S
H56 C62 0.930 . S
C57 H54 0.931 . S
C57 C58 1.413 . S
C57 C59 1.360 . S
C58 C57 1.413 . S
C58 C62 1.429 . S
C59 C57 1.360 . S
C59 C60 1.372 . S
C60 H55 0.928 . S
C60 C59 1.372 . S
C60 C61 1.404 . S
C61 C60 1.404 . S
C61 C62 1.391 . S
C62 H56 0.930 . S
C62 C58 1.429 . S
C62 C61 1.391 . S
H63 C66 0.931 . S
H64 C69 0.928 . S
H65 C71 0.930 . S
C66 H63 0.931 . S
C66 C67 1.413 . S
C66 C68 1.360 . S
C67 C66 1.413 . S
C67 C71 1.429 . S
C68 C66 1.360 . S
C68 C69 1.372 . S
C69 H64 0.928 . S
C69 C68 1.372 . S
C69 C70 1.404 . S
C70 C69 1.404 . S
C70 C71 1.391 . S
C71 H65 0.930 . S
C71 C67 1.429 . S
C71 C70 1.391 . S
H72 C75 0.931 . S
H73 C78 0.928 . S
H74 C80 0.930 . S
C75 H72 0.931 . S
C75 C76 1.413 . S
C75 C77 1.360 . S
C76 C75 1.413 . S
C76 C80 1.429 . S
C77 C75 1.360 . S
C77 C78 1.372 . S
C78 H73 0.928 . S
C78 C77 1.372 . S
C78 C79 1.404 . S
C79 C78 1.404 . S
C79 C80 1.391 . S
C80 H74 0.930 . S
C80 C76 1.429 . S
C80 C79 1.391 . S
H81 C84 0.931 . S
H82 C87 0.928 . S
H83 C89 0.930 1_554 S
C84 H81 0.931 . S
C84 C85 1.413 . S
C84 C86 1.360 . S
C85 C84 1.413 . S
C85 C89 1.429 . S
C86 C84 1.360 . S
C86 C87 1.372 . S
C87 H82 0.928 . S
C87 C86 1.372 . S
C87 C88 1.404 . S
C88 C87 1.404 . S
C88 C89 1.391 . S
C89 H83 0.930 1_556 S
C89 C85 1.429 . S
C89 C88 1.391 . S
H90 C93 0.931 . S
H91 C96 0.928 . S
H92 C98 0.930 1_554 S
C93 H90 0.931 . S
C93 C94 1.413 . S
C93 C95 1.360 . S
C94 C93 1.413 . S
C94 C98 1.429 . S
C95 C93 1.360 . S
C95 C96 1.372 . S
C96 H91 0.928 . S
C96 C95 1.372 . S
C96 C97 1.404 . S
C97 C96 1.404 . S
C97 C98 1.391 . S
C98 H92 0.930 1_556 S
C98 C94 1.429 . S
C98 C97 1.391 . S
H99 C102 0.931 . S
H100 C105 0.928 . S
H101 C107 0.930 1_554 S
C102 H99 0.931 . S
C102 C103 1.413 . S
C102 C104 1.360 . S
C103 C102 1.413 . S
C103 C107 1.429 . S
C104 C102 1.360 . S
C104 C105 1.372 . S
C105 H100 0.928 . S
C105 C104 1.372 . S
C105 C106 1.404 . S
C106 C105 1.404 . S
C106 C107 1.391 . S
C107 H101 0.930 1_556 S
C107 C103 1.429 . S
C107 C106 1.391 . S
H108 C111 0.931 . S
H109 C114 0.928 . S
H110 C116 0.930 . S
C111 H108 0.931 . S
C111 C112 1.413 . S
C111 C113 1.360 . S
C112 C111 1.413 . S
C112 C116 1.429 . S
C113 C111 1.360 . S
C113 C114 1.372 . S
C114 H109 0.928 . S
C114 C113 1.372 . S
C114 C115 1.404 . S
C115 C114 1.404 . S
C115 C116 1.391 . S
C116 H110 0.930 . S
C116 C112 1.429 . S
C116 C115 1.391 . S
H117 C120 0.931 . S
H118 C123 0.928 . S
H119 C125 0.930 . S
C120 H117 0.931 . S
C120 C121 1.413 . S
C120 C122 1.360 . S
C121 C120 1.413 . S
C121 C125 1.429 . S
C122 C120 1.360 . S
C122 C123 1.372 . S
C123 H118 0.928 . S
C123 C122 1.372 . S
C123 C124 1.404 . S
C124 C123 1.404 . S
C124 C125 1.391 . S
C125 H119 0.930 . S
C125 C121 1.429 . S
C125 C124 1.391 . S
H126 C129 0.931 . S
H127 C132 0.928 . S
H128 C134 0.930 . S
C129 H126 0.931 . S
C129 C130 1.413 . S
C129 C131 1.360 . S
C130 C129 1.413 . S
C130 C134 1.429 . S
C131 C129 1.360 . S
C131 C132 1.372 . S
C132 H127 0.928 . S
C132 C131 1.372 . S
C132 C133 1.404 . S
C133 C132 1.404 . S
C133 C134 1.391 . S
C134 H128 0.930 . S
C134 C130 1.429 . S
C134 C133 1.391 . S
H135 C138 0.931 . S
H136 C141 0.928 . S
H137 C143 0.930 . S
C138 H135 0.931 . S
C138 C139 1.413 . S
C138 C140 1.360 . S
C139 C138 1.413 . S
C139 C143 1.429 . S
C140 C138 1.360 . S
C140 C141 1.372 . S
C141 H136 0.928 . S
C141 C140 1.372 . S
C141 C142 1.404 . S
C142 C141 1.404 . S
C142 C143 1.391 . S
C143 H137 0.930 . S
C143 C139 1.429 . S
C143 C142 1.391 . S
H144 C147 0.931 . S
H145 C150 0.928 . S
H146 C152 0.930 . S
C147 H144 0.931 . S
C147 C148 1.413 . S
C147 C149 1.360 . S
C148 C147 1.413 . S
C148 C152 1.429 . S
C149 C147 1.360 . S
C149 C150 1.372 . S
C150 H145 0.928 . S
C150 C149 1.372 . S
C150 C151 1.404 . S
C151 C150 1.404 . S
C151 C152 1.391 . S
C152 H146 0.930 . S
C152 C148 1.429 . S
C152 C151 1.391 . S
H153 C156 0.931 . S
H154 C159 0.928 . S
H155 C161 0.930 . S
C156 H153 0.931 . S
C156 C157 1.413 . S
C156 C158 1.360 . S
C157 C156 1.413 . S
C157 C161 1.429 . S
C158 C156 1.360 . S
C158 C159 1.372 . S
C159 H154 0.928 . S
C159 C158 1.372 . S
C159 C160 1.404 . S
C160 C159 1.404 . S
C160 C161 1.391 . S
C161 H155 0.930 . S
C161 C157 1.429 . S
C161 C160 1.391 . S
Tb162 N193 2.660 . S
Tb162 N200 2.600 . S
Tb162 O206 2.546 . S
Tb162 O207 2.610 1_565 S
Tb162 O209 2.320 1_565 S
Tb162 O210 2.552 1_565 S
Tb162 O211 2.413 . S
Tb162 O213 2.362 1_556 S
Tb162 O214 2.421 . S
Tb162 C226 2.833 . S
C163 C166 1.432 . S
C163 C167 1.414 . S
C163 N170 1.359 . S
C164 C166 1.417 . S
C164 C168 1.432 . S
C164 C176 1.410 . S
C165 C167 1.444 . S
C165 C168 1.317 . S
C165 H188 0.929 . S
C166 C163 1.432 . S
C166 C164 1.417 . S
C166 N174 1.360 . S
C167 C163 1.414 . S
C167 C165 1.444 . S
C167 C172 1.385 . S
C168 C164 1.432 . S
C168 C165 1.317 . S
C168 H180 0.930 . S
C169 C171 1.392 . S
C169 C172 1.370 . S
C169 H181 0.931 . S
N170 C163 1.359 . S
N170 C171 1.327 . S
N170 Tb173 2.600 . S
C171 C169 1.392 . S
C171 N170 1.327 . S
C171 H178 0.930 . S
C172 C167 1.385 . S
C172 C169 1.370 . S
C172 H191 0.930 . S
Tb173 N170 2.600 . S
Tb173 N174 2.660 . S
Tb173 O207 2.362 1_554 S
Tb173 O208 2.421 . S
Tb173 O212 2.546 . S
Tb173 O213 2.610 1_545 S
Tb173 O215 2.320 1_545 S
Tb173 O216 2.552 1_545 S
Tb173 O217 2.413 . S
Tb173 C237 2.833 . S
N174 C166 1.360 . S
N174 Tb173 2.660 . S
N174 C175 1.305 . S
C175 N174 1.305 . S
C175 C177 1.407 . S
C175 H182 0.930 . S
C176 C164 1.410 . S
C176 C177 1.345 . S
C176 H184 0.930 . S
C177 C175 1.407 . S
C177 C176 1.345 . S
C177 H179 0.930 . S
H178 C171 0.930 . S
H179 C177 0.930 . S
H180 C168 0.930 . S
H181 C169 0.931 . S
H182 C175 0.930 . S
H183 C197 0.930 . S
H184 C176 0.930 . S
H185 C203 0.930 . S
H186 C194 0.930 . S
H187 C201 0.931 . S
H188 C165 0.929 . S
H189 C195 0.930 . S
H190 C228 0.930 . S
H191 C172 0.930 . S
H192 C227 0.929 . S
N193 Tb162 2.660 . S
N193 C194 1.305 . S
N193 C198 1.360 . S
C194 H186 0.930 . S
C194 N193 1.305 . S
C194 C197 1.407 . S
C195 H189 0.930 . S
C195 C196 1.410 . S
C195 C197 1.345 . S
C196 C195 1.410 . S
C196 C198 1.417 . S
C196 C228 1.432 . S
C197 H183 0.930 . S
C197 C194 1.407 . S
C197 C195 1.345 . S
C198 N193 1.360 . S
C198 C196 1.417 . S
C198 C202 1.432 . S
H199 C204 0.930 . S
N200 Tb162 2.600 . S
N200 C202 1.359 . S
N200 C203 1.327 . S
C201 H187 0.931 . S
C201 C203 1.392 . S
C201 C204 1.370 . S
C202 C198 1.432 . S
C202 N200 1.359 . S
C202 C205 1.414 . S
C203 H185 0.930 . S
C203 N200 1.327 . S
C203 C201 1.392 . S
C204 H199 0.930 . S
C204 C201 1.370 . S
C204 C205 1.385 . S
C205 C202 1.414 . S
C205 C204 1.385 . S
C205 C227 1.444 . S
O206 Tb162 2.546 . S
O206 C226 1.251 . S
O207 Tb162 2.610 1_545 S
O207 Tb173 2.362 1_556 S
O207 C218 1.283 . S
O208 Tb173 2.421 . S
O208 C225 1.262 1_554 S
O209 Tb162 2.320 1_545 S
O209 C225 1.260 . S
O210 Tb162 2.552 1_545 S
O210 C218 1.243 . S
O211 Tb162 2.413 . S
O211 C226 1.256 . S
O212 Tb173 2.546 . S
O212 C237 1.251 . S
O213 Tb162 2.362 1_554 S
O213 Tb173 2.610 1_565 S
O213 C229 1.283 . S
O214 Tb162 2.421 . S
O214 C236 1.262 1_556 S
O215 Tb173 2.320 1_565 S
O215 C236 1.260 . S
O216 Tb173 2.552 1_565 S
O216 C229 1.243 . S
O217 Tb173 2.413 . S
O217 C237 1.256 . S
C218 O207 1.283 . S
C218 O210 1.243 . S
C219 C221 1.382 1_565 S
C219 C223 1.393 . S
C219 C226 1.500 . S
C220 C221 1.400 . S
C220 C222 1.384 1_545 S
C221 C219 1.382 1_545 S
C221 C220 1.400 . S
C221 H238 0.930 . S
C222 C220 1.384 1_565 S
C222 C224 1.392 . S
C222 H239 0.931 . S
C223 C219 1.393 . S
C223 C224 1.401 . S
C223 H240 0.930 . S
C224 C222 1.392 . S
C224 C223 1.401 . S
C224 H241 0.930 . S
C225 O208 1.262 1_556 S
C225 O209 1.260 . S
C226 Tb162 2.833 . S
C226 O206 1.251 . S
C226 O211 1.256 . S
C226 C219 1.500 . S
C227 H192 0.929 . S
C227 C205 1.444 . S
C227 C228 1.317 . S
C228 H190 0.930 . S
C228 C196 1.432 . S
C228 C227 1.317 . S
C229 O213 1.283 . S
C229 O216 1.243 . S
C230 C231 1.382 1_545 S
C230 C234 1.393 . S
C230 C237 1.500 . S
C231 C230 1.382 1_565 S
C231 C232 1.400 . S
C231 H242 0.930 . S
C232 C231 1.400 . S
C232 C233 1.384 1_565 S
C233 C232 1.384 1_545 S
C233 C235 1.392 . S
C233 H243 0.931 . S
C234 C230 1.393 . S
C234 C235 1.401 . S
C234 H244 0.930 . S
C235 C233 1.392 . S
C235 C234 1.401 . S
C235 H245 0.930 . S
C236 O214 1.262 1_554 S
C236 O215 1.260 . S
C237 Tb173 2.833 . S
C237 O212 1.251 . S
C237 O217 1.256 . S
C237 C230 1.500 . S
H238 C221 0.930 . S
H239 C222 0.931 . S
H240 C223 0.930 . S
H241 C224 0.930 . S
H242 C231 0.930 . S
H243 C233 0.931 . S
H244 C234 0.930 . S
H245 C235 0.930 . S
Tb246 N277 2.660 . S
Tb246 N284 2.600 . S
Tb246 O290 2.546 . S
Tb246 O291 2.610 1_455 S
Tb246 O293 2.320 1_455 S
Tb246 O294 2.552 1_455 S
Tb246 O295 2.413 . S
Tb246 O297 2.362 1_556 S
Tb246 O298 2.421 . S
Tb246 C310 2.833 . S
C247 C250 1.432 . S
C247 C251 1.414 . S
C247 N254 1.359 . S
C248 C250 1.417 . S
C248 C252 1.432 . S
C248 C260 1.410 . S
C249 C251 1.444 . S
C249 C252 1.317 . S
C249 H272 0.929 . S
C250 C247 1.432 . S
C250 C248 1.417 . S
C250 N258 1.360 . S
C251 C247 1.414 . S
C251 C249 1.444 . S
C251 C256 1.385 . S
C252 C248 1.432 . S
C252 C249 1.317 . S
C252 H264 0.930 . S
C253 C255 1.392 . S
C253 C256 1.370 . S
C253 H265 0.931 . S
N254 C247 1.359 . S
N254 C255 1.327 . S
N254 Tb257 2.600 . S
C255 C253 1.392 . S
C255 N254 1.327 . S
C255 H262 0.930 . S
C256 C251 1.385 . S
C256 C253 1.370 . S
C256 H275 0.930 . S
Tb257 N254 2.600 . S
Tb257 N258 2.660 . S
Tb257 O291 2.362 1_554 S
Tb257 O292 2.421 . S
Tb257 O296 2.546 . S
Tb257 O297 2.610 1_655 S
Tb257 O299 2.320 1_655 S
Tb257 O300 2.552 1_655 S
Tb257 O301 2.413 . S
Tb257 C321 2.833 . S
N258 C250 1.360 . S
N258 Tb257 2.660 . S
N258 C259 1.305 . S
C259 N258 1.305 . S
C259 C261 1.407 . S
C259 H266 0.930 . S
C260 C248 1.410 . S
C260 C261 1.345 . S
C260 H268 0.930 . S
C261 C259 1.407 . S
C261 C260 1.345 . S
C261 H263 0.930 . S
H262 C255 0.930 . S
H263 C261 0.930 . S
H264 C252 0.930 . S
H265 C253 0.931 . S
H266 C259 0.930 . S
H267 C281 0.930 . S
H268 C260 0.930 . S
H269 C287 0.930 . S
H270 C278 0.930 . S
H271 C285 0.931 . S
H272 C249 0.929 . S
H273 C279 0.930 . S
H274 C312 0.930 . S
H275 C256 0.930 . S
H276 C311 0.929 . S
N277 Tb246 2.660 . S
N277 C278 1.305 . S
N277 C282 1.360 . S
C278 H270 0.930 . S
C278 N277 1.305 . S
C278 C281 1.407 . S
C279 H273 0.930 . S
C279 C280 1.410 . S
C279 C281 1.345 . S
C280 C279 1.410 . S
C280 C282 1.417 . S
C280 C312 1.432 . S
C281 H267 0.930 . S
C281 C278 1.407 . S
C281 C279 1.345 . S
C282 N277 1.360 . S
C282 C280 1.417 . S
C282 C286 1.432 . S
H283 C288 0.930 . S
N284 Tb246 2.600 . S
N284 C286 1.359 . S
N284 C287 1.327 . S
C285 H271 0.931 . S
C285 C287 1.392 . S
C285 C288 1.370 . S
C286 C282 1.432 . S
C286 N284 1.359 . S
C286 C289 1.414 . S
C287 H269 0.930 . S
C287 N284 1.327 . S
C287 C285 1.392 . S
C288 H283 0.930 . S
C288 C285 1.370 . S
C288 C289 1.385 . S
C289 C286 1.414 . S
C289 C288 1.385 . S
C289 C311 1.444 . S
O290 Tb246 2.546 . S
O290 C310 1.251 . S
O291 Tb246 2.610 1_655 S
O291 Tb257 2.362 1_556 S
O291 C302 1.283 . S
O292 Tb257 2.421 . S
O292 C309 1.262 1_554 S
O293 Tb246 2.320 1_655 S
O293 C309 1.260 . S
O294 Tb246 2.552 1_655 S
O294 C302 1.243 . S
O295 Tb246 2.413 . S
O295 C310 1.256 . S
O296 Tb257 2.546 . S
O296 C321 1.251 . S
O297 Tb246 2.362 1_554 S
O297 Tb257 2.610 1_455 S
O297 C313 1.283 . S
O298 Tb246 2.421 . S
O298 C320 1.262 1_556 S
O299 Tb257 2.320 1_455 S
O299 C320 1.260 . S
O300 Tb257 2.552 1_455 S
O300 C313 1.243 . S
O301 Tb257 2.413 . S
O301 C321 1.256 . S
C302 O291 1.283 . S
C302 O294 1.243 . S
C303 C305 1.382 . S
C303 C307 1.393 . S
C303 C310 1.500 . S
C304 C305 1.400 1_655 S
C304 C306 1.384 1_655 S
C305 C303 1.382 . S
C305 C304 1.400 1_455 S
C305 H322 0.930 1_455 S
C306 C304 1.384 1_455 S
C306 C308 1.392 . S
C306 H323 0.931 . S
C307 C303 1.393 . S
C307 C308 1.401 . S
C307 H324 0.930 . S
C308 C306 1.392 . S
C308 C307 1.401 . S
C308 H325 0.930 . S
C309 O292 1.262 1_556 S
C309 O293 1.260 . S
C310 Tb246 2.833 . S
C310 O290 1.251 . S
C310 O295 1.256 . S
C310 C303 1.500 . S
C311 H276 0.929 . S
C311 C289 1.444 . S
C311 C312 1.317 . S
C312 H274 0.930 . S
C312 C280 1.432 . S
C312 C311 1.317 . S
C313 O297 1.283 . S
C313 O300 1.243 . S
C314 C315 1.385 . S
C314 C318 1.393 . S
C314 C321 1.500 . S
C315 C314 1.385 . S
C315 C316 1.399 1_655 S
C315 H326 0.928 1_655 S
C316 C315 1.399 1_455 S
C316 C317 1.384 1_455 S
C317 C316 1.384 1_655 S
C317 C319 1.392 . S
C317 H327 0.931 . S
C318 C314 1.393 . S
C318 C319 1.401 . S
C318 H328 0.930 . S
C319 C317 1.392 . S
C319 C318 1.401 . S
C319 H329 0.930 . S
C320 O298 1.262 1_554 S
C320 O299 1.260 . S
C321 Tb257 2.833 . S
C321 O296 1.251 . S
C321 O301 1.256 . S
C321 C314 1.500 . S
H322 C305 0.930 1_655 S
H323 C306 0.931 . S
H324 C307 0.930 . S
H325 C308 0.930 . S
H326 C315 0.928 1_455 S
H327 C317 0.931 . S
H328 C318 0.930 . S
H329 C319 0.930 . S
Tb330 N361 2.660 . S
Tb330 N368 2.600 . S
Tb330 O374 2.546 . S
Tb330 O375 2.610 . S
Tb330 O377 2.320 . S
Tb330 O378 2.552 . S
Tb330 O379 2.413 . S
Tb330 O381 2.362 1_554 S
Tb330 O382 2.421 . S
Tb330 C394 2.833 . S
C331 C334 1.432 . S
C331 C335 1.414 . S
C331 N338 1.359 . S
C332 C334 1.417 . S
C332 C336 1.432 . S
C332 C344 1.410 . S
C333 C335 1.444 . S
C333 C336 1.317 . S
C333 H356 0.929 . S
C334 C331 1.432 . S
C334 C332 1.417 . S
C334 N342 1.360 . S
C335 C331 1.414 . S
C335 C333 1.444 . S
C335 C340 1.385 . S
C336 C332 1.432 . S
C336 C333 1.317 . S
C336 H348 0.930 . S
C337 C339 1.392 . S
C337 C340 1.370 . S
C337 H349 0.931 . S
N338 C331 1.359 . S
N338 C339 1.327 . S
N338 Tb341 2.600 . S
C339 C337 1.392 . S
C339 N338 1.327 . S
C339 H346 0.930 . S
C340 C335 1.385 . S
C340 C337 1.370 . S
C340 H359 0.930 . S
Tb341 N338 2.600 . S
Tb341 N342 2.660 . S
Tb341 O375 2.362 1_556 S
Tb341 O376 2.421 . S
Tb341 O380 2.546 . S
Tb341 O381 2.610 . S
Tb341 O383 2.320 . S
Tb341 O384 2.552 . S
Tb341 O385 2.413 . S
Tb341 C405 2.833 . S
N342 C334 1.360 . S
N342 Tb341 2.660 . S
N342 C343 1.305 . S
C343 N342 1.305 . S
C343 C345 1.407 . S
C343 H350 0.930 . S
C344 C332 1.410 . S
C344 C345 1.345 . S
C344 H352 0.930 . S
C345 C343 1.407 . S
C345 C344 1.345 . S
C345 H347 0.930 . S
H346 C339 0.930 . S
H347 C345 0.930 . S
H348 C336 0.930 . S
H349 C337 0.931 . S
H350 C343 0.930 . S
H351 C365 0.930 . S
H352 C344 0.930 . S
H353 C371 0.930 . S
H354 C362 0.930 . S
H355 C369 0.931 . S
H356 C333 0.929 . S
H357 C363 0.930 . S
H358 C396 0.930 . S
H359 C340 0.930 . S
H360 C395 0.929 . S
N361 Tb330 2.660 . S
N361 C362 1.305 . S
N361 C366 1.360 . S
C362 H354 0.930 . S
C362 N361 1.305 . S
C362 C365 1.407 . S
C363 H357 0.930 . S
C363 C364 1.410 . S
C363 C365 1.345 . S
C364 C363 1.410 . S
C364 C366 1.417 . S
C364 C396 1.432 . S
C365 H351 0.930 . S
C365 C362 1.407 . S
C365 C363 1.345 . S
C366 N361 1.360 . S
C366 C364 1.417 . S
C366 C370 1.432 . S
H367 C372 0.930 . S
N368 Tb330 2.600 . S
N368 C370 1.359 . S
N368 C371 1.327 . S
C369 H355 0.931 . S
C369 C371 1.392 . S
C369 C372 1.370 . S
C370 C366 1.432 . S
C370 N368 1.359 . S
C370 C373 1.414 . S
C371 H353 0.930 . S
C371 N368 1.327 . S
C371 C369 1.392 . S
C372 H367 0.930 . S
C372 C369 1.370 . S
C372 C373 1.385 . S
C373 C370 1.414 . S
C373 C372 1.385 . S
C373 C395 1.444 . S
O374 Tb330 2.546 . S
O374 C394 1.251 . S
O375 Tb330 2.610 . S
O375 Tb341 2.362 1_554 S
O375 C386 1.283 . S
O376 Tb341 2.421 . S
O376 C393 1.262 1_556 S
O377 Tb330 2.320 . S
O377 C393 1.260 . S
O378 Tb330 2.552 . S
O378 C386 1.243 . S
O379 Tb330 2.413 . S
O379 C394 1.256 . S
O380 Tb341 2.546 . S
O380 C405 1.251 . S
O381 Tb330 2.362 1_556 S
O381 Tb341 2.610 . S
O381 C397 1.283 . S
O382 Tb330 2.421 . S
O382 C404 1.262 1_554 S
O383 Tb341 2.320 . S
O383 C404 1.260 . S
O384 Tb341 2.552 . S
O384 C397 1.243 . S
O385 Tb341 2.413 . S
O385 C405 1.256 . S
C386 O375 1.283 . S
C386 O378 1.243 . S
C387 C389 1.382 . S
C387 C391 1.393 . S
C387 C394 1.500 . S
C388 C389 1.400 . S
C388 C390 1.384 . S
C389 C387 1.382 . S
C389 C388 1.400 . S
C389 H406 0.930 . S
C390 C388 1.384 . S
C390 C392 1.392 . S
C390 H407 0.931 . S
C391 C387 1.393 . S
C391 C392 1.401 . S
C391 H408 0.930 . S
C392 C390 1.392 . S
C392 C391 1.401 . S
C392 H409 0.930 . S
C393 O376 1.262 1_554 S
C393 O377 1.260 . S
C394 Tb330 2.833 . S
C394 O374 1.251 . S
C394 O379 1.256 . S
C394 C387 1.500 . S
C395 H360 0.929 . S
C395 C373 1.444 . S
C395 C396 1.317 . S
C396 H358 0.930 . S
C396 C364 1.432 . S
C396 C395 1.317 . S
C397 O381 1.283 . S
C397 O384 1.243 . S
C398 C399 1.382 . S
C398 C402 1.393 . S
C398 C405 1.500 . S
C399 C398 1.382 . S
C399 C400 1.400 . S
C399 H410 0.930 . S
C400 C399 1.400 . S
C400 C401 1.384 . S
C401 C400 1.384 . S
C401 C403 1.392 . S
C401 H411 0.931 . S
C402 C398 1.393 . S
C402 C403 1.401 . S
C402 H412 0.930 . S
C403 C401 1.392 . S
C403 C402 1.401 . S
C403 H413 0.930 . S
C404 O382 1.262 1_556 S
C404 O383 1.260 . S
C405 Tb341 2.833 . S
C405 O380 1.251 . S
C405 O385 1.256 . S
C405 C398 1.500 . S
H406 C389 0.930 . S
H407 C390 0.931 . S
H408 C391 0.930 . S
H409 C392 0.930 . S
H410 C399 0.930 . S
H411 C401 0.931 . S
H412 C402 0.930 . S
H413 C403 0.930 . S
Tb414 N445 2.660 1_455 S
Tb414 N452 2.600 . S
Tb414 O458 2.546 . S
Tb414 O459 2.610 . S
Tb414 O461 2.320 . S
Tb414 O462 2.552 . S
Tb414 O463 2.413 . S
Tb414 O465 2.362 . S
Tb414 O466 2.421 . S
Tb414 C478 2.833 . S
C415 C418 1.432 . S
C415 C419 1.414 . S
C415 N422 1.359 . S
C416 C418 1.417 . S
C416 C420 1.432 . S
C416 C428 1.410 . S
C417 C419 1.444 . S
C417 C420 1.317 . S
C417 H440 0.929 . S
C418 C415 1.432 . S
C418 C416 1.417 . S
C418 N426 1.360 . S
C419 C415 1.414 . S
C419 C417 1.444 . S
C419 C424 1.385 . S
C420 C416 1.432 . S
C420 C417 1.317 . S
C420 H432 0.930 . S
C421 C423 1.392 . S
C421 C424 1.370 . S
C421 H433 0.931 . S
N422 C415 1.359 . S
N422 C423 1.327 . S
N422 Tb425 2.600 . S
C423 C421 1.392 . S
C423 N422 1.327 . S
C423 H430 0.930 . S
C424 C419 1.385 . S
C424 C421 1.370 . S
C424 H443 0.930 . S
Tb425 N422 2.600 . S
Tb425 N426 2.660 . S
Tb425 O459 2.362 . S
Tb425 O460 2.421 . S
Tb425 O464 2.546 . S
Tb425 O465 2.610 . S
Tb425 O467 2.320 . S
Tb425 O468 2.552 . S
Tb425 O469 2.413 . S
Tb425 C489 2.833 . S
N426 C418 1.360 . S
N426 Tb425 2.660 . S
N426 C427 1.305 . S
C427 N426 1.305 . S
C427 C429 1.407 . S
C427 H434 0.930 . S
C428 C416 1.410 . S
C428 C429 1.345 . S
C428 H436 0.930 . S
C429 C427 1.407 . S
C429 C428 1.345 . S
C429 H431 0.930 . S
H430 C423 0.930 . S
H431 C429 0.930 . S
H432 C420 0.930 . S
H433 C421 0.931 . S
H434 C427 0.930 . S
H435 C449 0.930 . S
H436 C428 0.930 . S
H437 C455 0.930 . S
H438 C446 0.930 . S
H439 C453 0.931 1_565 S
H440 C417 0.929 . S
H441 C447 0.930 . S
H442 C480 0.930 . S
H443 C424 0.930 . S
H444 C479 0.929 . S
N445 Tb414 2.660 1_655 S
N445 C446 1.305 . S
N445 C450 1.360 . S
C446 H438 0.930 . S
C446 N445 1.305 . S
C446 C449 1.407 . S
C447 H441 0.930 . S
C447 C448 1.410 . S
C447 C449 1.345 . S
C448 C447 1.410 . S
C448 C450 1.417 . S
C448 C480 1.432 1_545 S
C449 H435 0.930 . S
C449 C446 1.407 . S
C449 C447 1.345 . S
C450 N445 1.360 . S
C450 C448 1.417 . S
C450 C454 1.432 . S
H451 C456 0.930 . S
N452 Tb414 2.600 . S
N452 C454 1.359 1_455 S
N452 C455 1.327 . S
C453 H439 0.931 1_545 S
C453 C455 1.392 . S
C453 C456 1.370 1_445 S
C454 C450 1.432 . S
C454 N452 1.359 1_655 S
C454 C457 1.414 1_545 S
C455 H437 0.930 . S
C455 N452 1.327 . S
C455 C453 1.392 . S
C456 H451 0.930 . S
C456 C453 1.370 1_665 S
C456 C457 1.384 . S
C457 C454 1.414 1_565 S
C457 C456 1.384 . S
C457 C479 1.444 . S
O458 Tb414 2.546 . S
O458 C478 1.251 . S
O459 Tb414 2.610 . S
O459 Tb425 2.362 . S
O459 C470 1.283 . S
O460 Tb425 2.421 . S
O460 C477 1.262 . S
O461 Tb414 2.320 . S
O461 C477 1.260 . S
O462 Tb414 2.552 . S
O462 C470 1.243 . S
O463 Tb414 2.413 . S
O463 C478 1.256 . S
O464 Tb425 2.546 . S
O464 C489 1.251 . S
O465 Tb414 2.362 . S
O465 Tb425 2.610 . S
O465 C481 1.283 . S
O466 Tb414 2.421 . S
O466 C488 1.262 . S
O467 Tb425 2.320 . S
O467 C488 1.260 . S
O468 Tb425 2.552 . S
O468 C481 1.243 . S
O469 Tb425 2.413 . S
O469 C489 1.256 . S
C470 O459 1.283 . S
C470 O462 1.243 . S
C471 C473 1.382 . S
C471 C475 1.393 . S
C471 C478 1.500 . S
C472 C473 1.400 . S
C472 C474 1.384 . S
C473 C471 1.382 . S
C473 C472 1.400 . S
C473 H490 0.930 . S
C474 C472 1.384 . S
C474 C476 1.392 . S
C474 H491 0.931 . S
C475 C471 1.393 . S
C475 C476 1.401 . S
C475 H492 0.930 . S
C476 C474 1.392 . S
C476 C475 1.401 . S
C476 H493 0.930 . S
C477 O460 1.262 . S
C477 O461 1.260 . S
C478 Tb414 2.833 . S
C478 O458 1.251 . S
C478 O463 1.256 . S
C478 C471 1.500 . S
C479 H444 0.929 . S
C479 C457 1.444 . S
C479 C480 1.317 . S
C480 H442 0.930 . S
C480 C448 1.432 1_565 S
C480 C479 1.317 . S
C481 O465 1.283 . S
C481 O468 1.243 . S
C482 C483 1.382 . S
C482 C486 1.393 . S
C482 C489 1.500 . S
C483 C482 1.382 . S
C483 C484 1.400 . S
C483 H494 0.930 . S
C484 C483 1.400 . S
C484 C485 1.384 . S
C485 C484 1.384 . S
C485 C487 1.392 . S
C485 H495 0.931 . S
C486 C482 1.393 . S
C486 C487 1.401 . S
C486 H496 0.930 . S
C487 C485 1.392 . S
C487 C486 1.401 . S
C487 H497 0.930 . S
C488 O466 1.262 . S
C488 O467 1.260 . S
C489 Tb425 2.833 . S
C489 O464 1.251 . S
C489 O469 1.256 . S
C489 C482 1.500 . S
H490 C473 0.930 . S
H491 C474 0.931 . S
H492 C475 0.930 . S
H493 C476 0.930 . S
H494 C483 0.930 . S
H495 C485 0.931 . S
H496 C486 0.930 . S
H497 C487 0.930 . S
Tb498 N529 2.660 . S
Tb498 N536 2.600 . S
Tb498 O542 2.546 . S
Tb498 O543 2.610 . S
Tb498 O545 2.320 . S
Tb498 O546 2.552 . S
Tb498 O547 2.413 . S
Tb498 O549 2.362 . S
Tb498 O550 2.421 . S
Tb498 C562 2.833 . S
C499 C502 1.432 . S
C499 C503 1.414 . S
C499 N506 1.359 . S
C500 C502 1.417 . S
C500 C504 1.432 . S
C500 C512 1.410 . S
C501 C503 1.444 . S
C501 C504 1.317 . S
C501 H524 0.929 . S
C502 C499 1.432 . S
C502 C500 1.417 . S
C502 N510 1.360 . S
C503 C499 1.414 . S
C503 C501 1.444 . S
C503 C508 1.385 . S
C504 C500 1.432 . S
C504 C501 1.317 . S
C504 H516 0.930 . S
C505 C507 1.392 . S
C505 C508 1.370 . S
C505 H517 0.931 . S
N506 C499 1.359 . S
N506 C507 1.327 . S
N506 Tb509 2.600 . S
C507 C505 1.392 . S
C507 N506 1.327 . S
C507 H514 0.930 . S
C508 C503 1.385 . S
C508 C505 1.370 . S
C508 H527 0.930 . S
Tb509 N506 2.600 . S
Tb509 N510 2.660 . S
Tb509 O543 2.362 . S
Tb509 O544 2.421 . S
Tb509 O548 2.546 . S
Tb509 O549 2.610 . S
Tb509 O551 2.320 . S
Tb509 O552 2.552 . S
Tb509 O553 2.413 . S
Tb509 C573 2.833 . S
N510 C502 1.360 . S
N510 Tb509 2.660 . S
N510 C511 1.305 . S
C511 N510 1.305 . S
C511 C513 1.407 1_565 S
C511 H518 0.930 . S
C512 C500 1.410 . S
C512 C513 1.345 1_565 S
C512 H520 0.930 1_565 S
C513 C511 1.407 1_545 S
C513 C512 1.345 1_545 S
C513 H515 0.930 . S
H514 C507 0.930 . S
H515 C513 0.930 . S
H516 C504 0.930 . S
H517 C505 0.931 . S
H518 C511 0.930 . S
H519 C533 0.930 . S
H520 C512 0.930 1_545 S
H521 C539 0.930 . S
H522 C530 0.930 . S
H523 C537 0.931 . S
H524 C501 0.929 . S
H525 C531 0.930 . S
H526 C564 0.930 . S
H527 C508 0.930 . S
H528 C563 0.929 . S
N529 Tb498 2.660 . S
N529 C530 1.305 . S
N529 C534 1.360 . S
C530 H522 0.930 . S
C530 N529 1.305 . S
C530 C533 1.407 . S
C531 H525 0.930 . S
C531 C532 1.410 . S
C531 C533 1.345 . S
C532 C531 1.410 . S
C532 C534 1.417 . S
C532 C564 1.432 1_655 S
C533 H519 0.930 . S
C533 C530 1.407 . S
C533 C531 1.345 . S
C534 N529 1.360 . S
C534 C532 1.417 . S
C534 C538 1.432 . S
H535 C540 0.930 . S
N536 Tb498 2.600 . S
N536 C538 1.359 . S
N536 C539 1.327 1_565 S
C537 H523 0.931 . S
C537 C539 1.392 1_455 S
C537 C540 1.370 . S
C538 C534 1.432 . S
C538 N536 1.359 . S
C538 C541 1.414 1_655 S
C539 H521 0.930 . S
C539 N536 1.327 1_545 S
C539 C537 1.392 1_655 S
C540 H535 0.930 . S
C540 C537 1.370 . S
C540 C541 1.385 1_545 S
C541 C538 1.414 1_455 S
C541 C540 1.385 1_565 S
C541 C563 1.444 . S
O542 Tb498 2.546 . S
O542 C562 1.251 . S
O543 Tb498 2.610 . S
O543 Tb509 2.362 . S
O543 C554 1.283 . S
O544 Tb509 2.421 . S
O544 C561 1.262 . S
O545 Tb498 2.320 . S
O545 C561 1.260 . S
O546 Tb498 2.552 . S
O546 C554 1.243 . S
O547 Tb498 2.413 . S
O547 C562 1.256 . S
O548 Tb509 2.546 . S
O548 C573 1.251 . S
O549 Tb498 2.362 . S
O549 Tb509 2.610 . S
O549 C565 1.283 . S
O550 Tb498 2.421 . S
O550 C572 1.262 . S
O551 Tb509 2.320 . S
O551 C572 1.260 . S
O552 Tb509 2.552 . S
O552 C565 1.243 . S
O553 Tb509 2.413 . S
O553 C573 1.256 . S
C554 O543 1.283 . S
C554 O546 1.243 . S
C555 C557 1.382 . S
C555 C559 1.393 . S
C555 C562 1.500 . S
C556 C557 1.400 . S
C556 C558 1.384 . S
C557 C555 1.382 . S
C557 C556 1.400 . S
C557 H574 0.930 . S
C558 C556 1.384 . S
C558 C560 1.392 . S
C558 H575 0.931 . S
C559 C555 1.393 . S
C559 C560 1.401 . S
C559 H576 0.930 1_565 S
C560 C558 1.392 . S
C560 C559 1.401 . S
C560 H577 0.930 1_565 S
C561 O544 1.262 . S
C561 O545 1.260 . S
C562 Tb498 2.833 . S
C562 O542 1.251 . S
C562 O547 1.256 . S
C562 C555 1.500 . S
C563 H528 0.929 . S
C563 C541 1.444 . S
C563 C564 1.317 . S
C564 H526 0.930 . S
C564 C532 1.432 1_455 S
C564 C563 1.317 . S
C565 O549 1.283 . S
C565 O552 1.243 . S
C566 C567 1.382 . S
C566 C570 1.393 . S
C566 C573 1.500 . S
C567 C566 1.382 . S
C567 C568 1.400 . S
C567 H578 0.930 . S
C568 C567 1.400 . S
C568 C569 1.384 . S
C569 C568 1.384 . S
C569 C571 1.392 . S
C569 H579 0.931 . S
C570 C566 1.393 . S
C570 C571 1.401 . S
C570 H580 0.930 . S
C571 C569 1.392 . S
C571 C570 1.401 . S
C571 H581 0.930 . S
C572 O550 1.262 . S
C572 O551 1.260 . S
C573 Tb509 2.833 . S
C573 O548 1.251 . S
C573 O553 1.256 . S
C573 C566 1.500 . S
H574 C557 0.930 . S
H575 C558 0.931 . S
H576 C559 0.930 1_545 S
H577 C560 0.930 1_545 S
H578 C567 0.930 . S
H579 C569 0.931 . S
H580 C570 0.930 . S
H581 C571 0.930 . S
Tb582 N613 2.660 . S
Tb582 N620 2.600 . S
Tb582 O626 2.546 . S
Tb582 O627 2.610 . S
Tb582 O629 2.320 . S
Tb582 O630 2.552 . S
Tb582 O631 2.413 . S
Tb582 O633 2.362 . S
Tb582 O634 2.421 . S
Tb582 C646 2.833 . S
C583 C586 1.432 . S
C583 C587 1.414 . S
C583 N590 1.359 1_655 S
C584 C586 1.417 . S
C584 C588 1.432 . S
C584 C596 1.410 . S
C585 C587 1.444 . S
C585 C588 1.317 . S
C585 H608 0.929 . S
C586 C583 1.432 . S
C586 C584 1.417 . S
C586 N594 1.360 . S
C587 C583 1.414 . S
C587 C585 1.444 . S
C587 C592 1.385 1_565 S
C588 C584 1.432 . S
C588 C585 1.317 . S
C588 H600 0.930 . S
C589 C591 1.392 . S
C589 C592 1.370 1_455 S
C589 H601 0.931 . S
N590 C583 1.359 1_455 S
N590 C591 1.327 1_565 S
N590 Tb593 2.600 . S
C591 C589 1.392 . S
C591 N590 1.327 1_545 S
C591 H598 0.930 . S
C592 C587 1.385 1_545 S
C592 C589 1.370 1_655 S
C592 H611 0.930 . S
Tb593 N590 2.600 . S
Tb593 N594 2.660 1_455 S
Tb593 O627 2.362 . S
Tb593 O628 2.421 . S
Tb593 O632 2.546 . S
Tb593 O633 2.610 . S
Tb593 O635 2.320 . S
Tb593 O636 2.552 . S
Tb593 O637 2.413 . S
Tb593 C657 2.833 . S
N594 C586 1.360 . S
N594 Tb593 2.660 1_655 S
N594 C595 1.305 . S
C595 N594 1.305 . S
C595 C597 1.407 . S
C595 H602 0.930 . S
C596 C584 1.410 . S
C596 C597 1.345 . S
C596 H604 0.930 . S
C597 C595 1.407 . S
C597 C596 1.345 . S
C597 H599 0.930 . S
H598 C591 0.930 . S
H599 C597 0.930 . S
H600 C588 0.930 . S
H601 C589 0.931 . S
H602 C595 0.930 . S
H603 C617 0.930 . S
H604 C596 0.930 . S
H605 C623 0.930 . S
H606 C614 0.930 . S
H607 C621 0.931 . S
H608 C585 0.929 . S
H609 C615 0.930 1_545 S
H610 C648 0.930 . S
H611 C592 0.930 . S
H612 C647 0.929 . S
N613 Tb582 2.660 . S
N613 C614 1.305 . S
N613 C618 1.360 . S
C614 H606 0.930 . S
C614 N613 1.305 . S
C614 C617 1.407 1_565 S
C615 H609 0.930 1_565 S
C615 C616 1.410 . S
C615 C617 1.345 1_565 S
C616 C615 1.410 . S
C616 C618 1.417 . S
C616 C648 1.432 . S
C617 H603 0.930 . S
C617 C614 1.407 1_545 S
C617 C615 1.345 1_545 S
C618 N613 1.360 . S
C618 C616 1.417 . S
C618 C622 1.432 . S
H619 C624 0.930 . S
N620 Tb582 2.600 . S
N620 C622 1.359 . S
N620 C623 1.327 . S
C621 H607 0.931 . S
C621 C623 1.392 . S
C621 C624 1.370 . S
C622 C618 1.432 . S
C622 N620 1.359 . S
C622 C625 1.414 . S
C623 H605 0.930 . S
C623 N620 1.327 . S
C623 C621 1.392 . S
C624 H619 0.930 . S
C624 C621 1.370 . S
C624 C625 1.385 . S
C625 C622 1.414 . S
C625 C624 1.385 . S
C625 C647 1.444 . S
O626 Tb582 2.546 . S
O626 C646 1.251 . S
O627 Tb582 2.610 . S
O627 Tb593 2.362 . S
O627 C638 1.283 . S
O628 Tb593 2.421 . S
O628 C645 1.262 . S
O629 Tb582 2.320 . S
O629 C645 1.260 . S
O630 Tb582 2.552 . S
O630 C638 1.243 . S
O631 Tb582 2.413 . S
O631 C646 1.256 . S
O632 Tb593 2.546 . S
O632 C657 1.251 . S
O633 Tb582 2.362 . S
O633 Tb593 2.610 . S
O633 C649 1.283 . S
O634 Tb582 2.421 . S
O634 C656 1.262 . S
O635 Tb593 2.320 . S
O635 C656 1.260 . S
O636 Tb593 2.552 . S
O636 C649 1.243 . S
O637 Tb593 2.413 . S
O637 C657 1.256 . S
C638 O627 1.283 . S
C638 O630 1.243 . S
C639 C641 1.382 . S
C639 C643 1.393 . S
C639 C646 1.500 . S
C640 C641 1.400 . S
C640 C642 1.384 . S
C641 C639 1.382 . S
C641 C640 1.400 . S
C641 H658 0.930 . S
C642 C640 1.384 . S
C642 C644 1.392 . S
C642 H659 0.931 . S
C643 C639 1.393 . S
C643 C644 1.401 . S
C643 H660 0.930 . S
C644 C642 1.392 . S
C644 C643 1.401 . S
C644 H661 0.930 . S
C645 O628 1.262 . S
C645 O629 1.260 . S
C646 Tb582 2.833 . S
C646 O626 1.251 . S
C646 O631 1.256 . S
C646 C639 1.500 . S
C647 H612 0.929 . S
C647 C625 1.444 . S
C647 C648 1.317 . S
C648 H610 0.930 . S
C648 C616 1.432 . S
C648 C647 1.317 . S
C649 O633 1.283 . S
C649 O636 1.243 . S
C650 C651 1.382 . S
C650 C654 1.393 . S
C650 C657 1.500 . S
C651 C650 1.382 . S
C651 C652 1.400 . S
C651 H662 0.930 . S
C652 C651 1.400 . S
C652 C653 1.384 . S
C653 C652 1.384 . S
C653 C655 1.392 . S
C653 H663 0.931 . S
C654 C650 1.393 . S
C654 C655 1.401 . S
C654 H664 0.930 . S
C655 C653 1.392 . S
C655 C654 1.401 . S
C655 H665 0.930 1_565 S
C656 O634 1.262 . S
C656 O635 1.260 . S
C657 Tb593 2.833 . S
C657 O632 1.251 . S
C657 O637 1.256 . S
C657 C650 1.500 . S
H658 C641 0.930 . S
H659 C642 0.931 . S
H660 C643 0.930 . S
H661 C644 0.930 . S
H662 C651 0.930 . S
H663 C653 0.931 . S
H664 C654 0.930 . S
H665 C655 0.930 1_545 S
Tb666 N697 2.660 . S
Tb666 N704 2.600 . S
Tb666 O710 2.546 . S
Tb666 O711 2.610 . S
Tb666 O713 2.320 . S
Tb666 O714 2.552 . S
Tb666 O715 2.413 . S
Tb666 O717 2.362 . S
Tb666 O718 2.421 . S
Tb666 C730 2.833 . S
C667 C670 1.432 . S
C667 C671 1.414 1_565 S
C667 N674 1.359 1_455 S
C668 C670 1.417 . S
C668 C672 1.432 1_565 S
C668 C680 1.410 . S
C669 C671 1.444 . S
C669 C672 1.317 . S
C669 H692 0.929 . S
C670 C667 1.432 . S
C670 C668 1.417 . S
C670 N678 1.360 . S
C671 C667 1.414 1_545 S
C671 C669 1.444 . S
C671 C676 1.385 . S
C672 C668 1.432 1_545 S
C672 C669 1.317 . S
C672 H684 0.930 . S
C673 C675 1.392 . S
C673 C676 1.370 1_665 S
C673 H685 0.931 1_565 S
N674 C667 1.359 1_655 S
N674 C675 1.327 . S
N674 Tb677 2.600 . S
C675 C673 1.392 . S
C675 N674 1.327 . S
C675 H682 0.930 . S
C676 C671 1.385 . S
C676 C673 1.370 1_445 S
C676 H695 0.930 . S
Tb677 N674 2.600 . S
Tb677 N678 2.660 1_655 S
Tb677 O711 2.362 . S
Tb677 O712 2.421 . S
Tb677 O716 2.546 . S
Tb677 O717 2.610 . S
Tb677 O719 2.320 . S
Tb677 O720 2.552 . S
Tb677 O721 2.413 . S
Tb677 C741 2.833 . S
N678 C670 1.360 . S
N678 Tb677 2.660 1_455 S
N678 C679 1.305 . S
C679 N678 1.305 . S
C679 C681 1.407 . S
C679 H686 0.930 . S
C680 C668 1.410 . S
C680 C681 1.345 . S
C680 H688 0.930 . S
C681 C679 1.407 . S
C681 C680 1.345 . S
C681 H683 0.930 . S
H682 C675 0.930 . S
H683 C681 0.930 . S
H684 C672 0.930 . S
H685 C673 0.931 1_545 S
H686 C679 0.930 . S
H687 C701 0.930 . S
H688 C680 0.930 . S
H689 C707 0.930 . S
H690 C698 0.930 . S
H691 C705 0.931 . S
H692 C669 0.929 . S
H693 C699 0.930 . S
H694 C732 0.930 . S
H695 C676 0.930 . S
H696 C731 0.929 . S
N697 Tb666 2.660 . S
N697 C698 1.305 . S
N697 C702 1.360 . S
C698 H690 0.930 . S
C698 N697 1.305 . S
C698 C701 1.407 . S
C699 H693 0.930 . S
C699 C700 1.410 . S
C699 C701 1.345 . S
C700 C699 1.410 . S
C700 C702 1.417 . S
C700 C732 1.432 . S
C701 H687 0.930 . S
C701 C698 1.407 . S
C701 C699 1.345 . S
C702 N697 1.360 . S
C702 C700 1.417 . S
C702 C706 1.432 . S
H703 C708 0.930 . S
N704 Tb666 2.600 . S
N704 C706 1.359 . S
N704 C707 1.327 . S
C705 H691 0.931 . S
C705 C707 1.392 . S
C705 C708 1.370 . S
C706 C702 1.432 . S
C706 N704 1.359 . S
C706 C709 1.414 . S
C707 H689 0.930 . S
C707 N704 1.327 . S
C707 C705 1.392 . S
C708 H703 0.930 . S
C708 C705 1.370 . S
C708 C709 1.385 . S
C709 C706 1.414 . S
C709 C708 1.385 . S
C709 C731 1.444 . S
O710 Tb666 2.546 . S
O710 C730 1.251 . S
O711 Tb666 2.610 . S
O711 Tb677 2.362 . S
O711 C722 1.283 . S
O712 Tb677 2.421 . S
O712 C729 1.262 . S
O713 Tb666 2.320 . S
O713 C729 1.260 . S
O714 Tb666 2.552 . S
O714 C722 1.243 . S
O715 Tb666 2.413 . S
O715 C730 1.256 . S
O716 Tb677 2.546 . S
O716 C741 1.251 . S
O717 Tb666 2.362 . S
O717 Tb677 2.610 . S
O717 C733 1.283 . S
O718 Tb666 2.421 . S
O718 C740 1.262 . S
O719 Tb677 2.320 . S
O719 C740 1.260 . S
O720 Tb677 2.552 . S
O720 C733 1.243 . S
O721 Tb677 2.413 . S
O721 C741 1.256 . S
C722 O711 1.283 . S
C722 O714 1.243 . S
C723 C725 1.382 . S
C723 C727 1.393 . S
C723 C730 1.500 . S
C724 C725 1.400 . S
C724 C726 1.384 . S
C725 C723 1.382 . S
C725 C724 1.400 . S
C725 H742 0.930 . S
C726 C724 1.384 . S
C726 C728 1.392 . S
C726 H743 0.931 . S
C727 C723 1.393 . S
C727 C728 1.401 . S
C727 H744 0.930 . S
C728 C726 1.392 . S
C728 C727 1.401 . S
C728 H745 0.930 . S
C729 O712 1.262 . S
C729 O713 1.260 . S
C730 Tb666 2.833 . S
C730 O710 1.251 . S
C730 O715 1.256 . S
C730 C723 1.500 . S
C731 H696 0.929 . S
C731 C709 1.444 . S
C731 C732 1.317 . S
C732 H694 0.930 . S
C732 C700 1.432 . S
C732 C731 1.317 . S
C733 O717 1.283 . S
C733 O720 1.243 . S
C734 C735 1.382 . S
C734 C738 1.393 . S
C734 C741 1.500 . S
C735 C734 1.382 . S
C735 C736 1.400 . S
C735 H746 0.930 . S
C736 C735 1.400 . S
C736 C737 1.384 . S
C737 C736 1.384 . S
C737 C739 1.392 . S
C737 H747 0.931 . S
C738 C734 1.393 . S
C738 C739 1.401 . S
C738 H748 0.930 . S
C739 C737 1.392 . S
C739 C738 1.401 . S
C739 H749 0.930 . S
C740 O718 1.262 . S
C740 O719 1.260 . S
C741 Tb677 2.833 . S
C741 O716 1.251 . S
C741 O721 1.256 . S
C741 C734 1.500 . S
H742 C725 0.930 . S
H743 C726 0.931 . S
H744 C727 0.930 . S
H745 C728 0.930 . S
H746 C735 0.930 . S
H747 C737 0.931 . S
H748 C738 0.930 . S
H749 C739 0.930 . S
Tb750 N781 2.660 . S
Tb750 N788 2.600 . S
Tb750 O794 2.546 . S
Tb750 O795 2.610 . S
Tb750 O797 2.320 . S
Tb750 O798 2.552 . S
Tb750 O799 2.413 . S
Tb750 O801 2.362 . S
Tb750 O802 2.421 . S
Tb750 C814 2.833 . S
C751 C754 1.432 . S
C751 C755 1.414 1_455 S
C751 N758 1.359 . S
C752 C754 1.417 . S
C752 C756 1.432 1_455 S
C752 C764 1.410 . S
C753 C755 1.444 . S
C753 C756 1.317 . S
C753 H776 0.929 . S
C754 C751 1.432 . S
C754 C752 1.417 . S
C754 N762 1.360 . S
C755 C751 1.414 1_655 S
C755 C753 1.444 . S
C755 C760 1.385 1_545 S
C756 C752 1.432 1_655 S
C756 C753 1.317 . S
C756 H768 0.930 . S
C757 C759 1.392 1_655 S
C757 C760 1.370 . S
C757 H769 0.931 . S
N758 C751 1.359 . S
N758 C759 1.327 1_545 S
N758 Tb761 2.600 . S
C759 C757 1.392 1_455 S
C759 N758 1.327 1_565 S
C759 H766 0.930 . S
C760 C755 1.385 1_565 S
C760 C757 1.370 . S
C760 H779 0.930 . S
Tb761 N758 2.600 . S
Tb761 N762 2.660 . S
Tb761 O795 2.362 . S
Tb761 O796 2.421 . S
Tb761 O800 2.546 . S
Tb761 O801 2.610 . S
Tb761 O803 2.320 . S
Tb761 O804 2.552 . S
Tb761 O805 2.413 . S
Tb761 C825 2.833 . S
N762 C754 1.360 . S
N762 Tb761 2.660 . S
N762 C763 1.305 . S
C763 N762 1.305 . S
C763 C765 1.407 . S
C763 H770 0.930 . S
C764 C752 1.410 . S
C764 C765 1.345 . S
C764 H772 0.930 . S
C765 C763 1.407 . S
C765 C764 1.345 . S
C765 H767 0.930 . S
H766 C759 0.930 . S
H767 C765 0.930 . S
H768 C756 0.930 . S
H769 C757 0.931 . S
H770 C763 0.930 . S
H771 C785 0.930 . S
H772 C764 0.930 . S
H773 C791 0.930 . S
H774 C782 0.930 . S
H775 C789 0.931 . S
H776 C753 0.929 . S
H777 C783 0.930 1_565 S
H778 C816 0.930 . S
H779 C760 0.930 . S
H780 C815 0.929 . S
N781 Tb750 2.660 . S
N781 C782 1.305 . S
N781 C786 1.360 . S
C782 H774 0.930 . S
C782 N781 1.305 . S
C782 C785 1.407 1_545 S
C783 H777 0.930 1_545 S
C783 C784 1.410 . S
C783 C785 1.345 1_545 S
C784 C783 1.410 . S
C784 C786 1.417 . S
C784 C816 1.432 . S
C785 H771 0.930 . S
C785 C782 1.407 1_565 S
C785 C783 1.345 1_565 S
C786 N781 1.360 . S
C786 C784 1.417 . S
C786 C790 1.432 . S
H787 C792 0.930 . S
N788 Tb750 2.600 . S
N788 C790 1.359 . S
N788 C791 1.327 . S
C789 H775 0.931 . S
C789 C791 1.392 . S
C789 C792 1.370 . S
C790 C786 1.432 . S
C790 N788 1.359 . S
C790 C793 1.414 . S
C791 H773 0.930 . S
C791 N788 1.327 . S
C791 C789 1.392 . S
C792 H787 0.930 . S
C792 C789 1.370 . S
C792 C793 1.385 . S
C793 C790 1.414 . S
C793 C792 1.385 . S
C793 C815 1.444 . S
O794 Tb750 2.546 . S
O794 C814 1.251 . S
O795 Tb750 2.610 . S
O795 Tb761 2.362 . S
O795 C806 1.283 . S
O796 Tb761 2.421 . S
O796 C813 1.262 . S
O797 Tb750 2.320 . S
O797 C813 1.260 . S
O798 Tb750 2.552 . S
O798 C806 1.243 . S
O799 Tb750 2.413 . S
O799 C814 1.256 . S
O800 Tb761 2.546 . S
O800 C825 1.251 . S
O801 Tb750 2.362 . S
O801 Tb761 2.610 . S
O801 C817 1.283 . S
O802 Tb750 2.421 . S
O802 C824 1.262 . S
O803 Tb761 2.320 . S
O803 C824 1.260 . S
O804 Tb761 2.552 . S
O804 C817 1.243 . S
O805 Tb761 2.413 . S
O805 C825 1.256 . S
C806 O795 1.283 . S
C806 O798 1.243 . S
C807 C809 1.382 . S
C807 C811 1.393 . S
C807 C814 1.500 . S
C808 C809 1.400 . S
C808 C810 1.384 . S
C809 C807 1.382 . S
C809 C808 1.400 . S
C809 H826 0.930 . S
C810 C808 1.384 . S
C810 C812 1.392 . S
C810 H827 0.931 . S
C811 C807 1.393 . S
C811 C812 1.401 . S
C811 H828 0.930 . S
C812 C810 1.392 . S
C812 C811 1.401 . S
C812 H829 0.930 . S
C813 O796 1.262 . S
C813 O797 1.260 . S
C814 Tb750 2.833 . S
C814 O794 1.251 . S
C814 O799 1.256 . S
C814 C807 1.500 . S
C815 H780 0.929 . S
C815 C793 1.444 . S
C815 C816 1.317 . S
C816 H778 0.930 . S
C816 C784 1.432 . S
C816 C815 1.317 . S
C817 O801 1.283 . S
C817 O804 1.243 . S
C818 C819 1.382 . S
C818 C822 1.393 . S
C818 C825 1.500 . S
C819 C818 1.382 . S
C819 C820 1.400 . S
C819 H830 0.930 . S
C820 C819 1.400 . S
C820 C821 1.384 . S
C821 C820 1.384 . S
C821 C823 1.392 . S
C821 H831 0.931 . S
C822 C818 1.393 . S
C822 C823 1.401 . S
C822 H832 0.930 1_545 S
C823 C821 1.392 . S
C823 C822 1.401 . S
C823 H833 0.930 1_545 S
C824 O802 1.262 . S
C824 O803 1.260 . S
C825 Tb761 2.833 . S
C825 O800 1.251 . S
C825 O805 1.256 . S
C825 C818 1.500 . S
H826 C809 0.930 . S
H827 C810 0.931 . S
H828 C811 0.930 . S
H829 C812 0.930 . S
H830 C819 0.930 . S
H831 C821 0.931 . S
H832 C822 0.930 1_565 S
H833 C823 0.930 1_565 S
Tb834 N865 2.660 1_655 S
Tb834 N872 2.600 . S
Tb834 O878 2.546 . S
Tb834 O879 2.610 . S
Tb834 O881 2.320 . S
Tb834 O882 2.552 . S
Tb834 O883 2.413 . S
Tb834 O885 2.362 . S
Tb834 O886 2.421 . S
Tb834 C898 2.833 . S
C835 C838 1.432 . S
C835 C839 1.414 . S
C835 N842 1.359 . S
C836 C838 1.417 . S
C836 C840 1.432 . S
C836 C848 1.410 . S
C837 C839 1.444 . S
C837 C840 1.317 . S
C837 H860 0.929 . S
C838 C835 1.432 . S
C838 C836 1.417 . S
C838 N846 1.360 . S
C839 C835 1.414 . S
C839 C837 1.444 . S
C839 C844 1.385 . S
C840 C836 1.432 . S
C840 C837 1.317 . S
C840 H852 0.930 . S
C841 C843 1.392 . S
C841 C844 1.370 . S
C841 H853 0.931 . S
N842 C835 1.359 . S
N842 C843 1.327 . S
N842 Tb845 2.600 . S
C843 C841 1.392 . S
C843 N842 1.327 . S
C843 H850 0.930 . S
C844 C839 1.385 . S
C844 C841 1.370 . S
C844 H863 0.930 . S
Tb845 N842 2.600 . S
Tb845 N846 2.660 . S
Tb845 O879 2.362 . S
Tb845 O880 2.421 . S
Tb845 O884 2.546 . S
Tb845 O885 2.610 . S
Tb845 O887 2.320 . S
Tb845 O888 2.552 . S
Tb845 O889 2.413 . S
Tb845 C909 2.833 . S
N846 C838 1.360 . S
N846 Tb845 2.660 . S
N846 C847 1.305 . S
C847 N846 1.305 . S
C847 C849 1.407 1_545 S
C847 H854 0.930 . S
C848 C836 1.410 . S
C848 C849 1.345 1_545 S
C848 H856 0.930 1_545 S
C849 C847 1.407 1_565 S
C849 C848 1.345 1_565 S
C849 H851 0.930 . S
H850 C843 0.930 . S
H851 C849 0.930 . S
H852 C840 0.930 . S
H853 C841 0.931 . S
H854 C847 0.930 . S
H855 C869 0.930 . S
H856 C848 0.930 1_565 S
H857 C875 0.930 . S
H858 C866 0.930 . S
H859 C873 0.931 . S
H860 C837 0.929 . S
H861 C867 0.930 . S
H862 C900 0.930 . S
H863 C844 0.930 . S
H864 C899 0.929 . S
N865 Tb834 2.660 1_455 S
N865 C866 1.305 . S
N865 C870 1.360 . S
C866 H858 0.930 . S
C866 N865 1.305 . S
C866 C869 1.407 . S
C867 H861 0.930 . S
C867 C868 1.410 . S
C867 C869 1.345 . S
C868 C867 1.410 . S
C868 C870 1.417 . S
C868 C900 1.432 . S
C869 H855 0.930 . S
C869 C866 1.407 . S
C869 C867 1.345 . S
C870 N865 1.360 . S
C870 C868 1.417 . S
C870 C874 1.432 . S
H871 C876 0.930 . S
N872 Tb834 2.600 . S
N872 C874 1.359 1_655 S
N872 C875 1.327 1_545 S
C873 H859 0.931 . S
C873 C875 1.392 . S
C873 C876 1.370 1_655 S
C874 C870 1.432 . S
C874 N872 1.359 1_455 S
C874 C877 1.414 . S
C875 H857 0.930 . S
C875 N872 1.327 1_565 S
C875 C873 1.392 . S
C876 H871 0.930 . S
C876 C873 1.370 1_455 S
C876 C877 1.385 1_565 S
C877 C874 1.414 . S
C877 C876 1.385 1_545 S
C877 C899 1.444 . S
O878 Tb834 2.546 . S
O878 C898 1.251 . S
O879 Tb834 2.610 . S
O879 Tb845 2.362 . S
O879 C890 1.283 . S
O880 Tb845 2.421 . S
O880 C897 1.262 . S
O881 Tb834 2.320 . S
O881 C897 1.260 . S
O882 Tb834 2.552 . S
O882 C890 1.243 . S
O883 Tb834 2.413 . S
O883 C898 1.256 . S
O884 Tb845 2.546 . S
O884 C909 1.251 . S
O885 Tb834 2.362 . S
O885 Tb845 2.610 . S
O885 C901 1.283 . S
O886 Tb834 2.421 . S
O886 C908 1.262 . S
O887 Tb845 2.320 . S
O887 C908 1.260 . S
O888 Tb845 2.552 . S
O888 C901 1.243 . S
O889 Tb845 2.413 . S
O889 C909 1.256 . S
C890 O879 1.283 . S
C890 O882 1.243 . S
C891 C893 1.382 . S
C891 C895 1.393 . S
C891 C898 1.500 . S
C892 C893 1.400 . S
C892 C894 1.384 . S
C893 C891 1.382 . S
C893 C892 1.400 . S
C893 H910 0.930 . S
C894 C892 1.384 . S
C894 C896 1.392 . S
C894 H911 0.931 . S
C895 C891 1.393 . S
C895 C896 1.401 . S
C895 H912 0.927 1_545 S
C896 C894 1.392 . S
C896 C895 1.401 . S
C896 H913 0.930 1_545 S
C897 O880 1.262 . S
C897 O881 1.260 . S
C898 Tb834 2.833 . S
C898 O878 1.251 . S
C898 O883 1.256 . S
C898 C891 1.500 . S
C899 H864 0.929 . S
C899 C877 1.444 . S
C899 C900 1.317 . S
C900 H862 0.930 . S
C900 C868 1.432 . S
C900 C899 1.317 . S
C901 O885 1.283 . S
C901 O888 1.243 . S
C902 C903 1.382 . S
C902 C906 1.393 . S
C902 C909 1.500 . S
C903 C902 1.382 . S
C903 C904 1.400 . S
C903 H914 0.930 . S
C904 C903 1.400 . S
C904 C905 1.384 . S
C905 C904 1.384 . S
C905 C907 1.392 . S
C905 H915 0.931 . S
C906 C902 1.393 . S
C906 C907 1.401 . S
C906 H916 0.930 . S
C907 C905 1.392 . S
C907 C906 1.401 . S
C907 H917 0.930 . S
C908 O886 1.262 . S
C908 O887 1.260 . S
C909 Tb845 2.833 . S
C909 O884 1.251 . S
C909 O889 1.256 . S
C909 C902 1.500 . S
H910 C893 0.930 . S
H911 C894 0.931 . S
H912 C895 0.927 1_565 S
H913 C896 0.930 1_565 S
H914 C903 0.930 . S
H915 C905 0.931 . S
H916 C906 0.930 . S
H917 C907 0.930 . S
C124 C229 1.391 . S
C130 C313 1.464 . S
C115 C393 1.446 . S
C106 C309 1.414 . S
C397 C85 1.380 . S
C97 C225 1.369 . S
C218 C103 1.423 . S
C302 C88 1.424 . S
C94 C404 1.441 . S
C121 C320 1.410 . S
C133 C386 1.339 . S
C236 C112 1.398 . S
C481 C16 1.392 1_455 S
C22 C565 1.464 . S
C7 C645 1.446 1_545 S
C160 C561 1.415 . S
C139 C649 1.379 . S
C151 C477 1.369 . S
C157 C470 1.423 . S
C142 C554 1.424 . S
C656 C148 1.441 . S
C13 C572 1.410 1_545 S
C638 C25 1.340 1_455 S
C4 C488 1.398 . S
C733 C70 1.391 . S
C76 C817 1.464 . S
C897 C61 1.446 . S
C813 C52 1.415 1_545 S
C901 C31 1.380 1_655 S
C43 C729 1.369 . S
C49 C722 1.423 1_455 S
C34 C806 1.424 . S
C908 C40 1.441 1_545 S
C67 C824 1.410 . S
C79 C890 1.339 . S
C58 C740 1.398 . S
C140 C232 1.666 . S
C316 C149 1.486 . S
C158 C388 1.549 . S
C59 C304 1.503 . S
C68 C400 1.539 . S
C220 C77 1.670 . S
C32 C484 1.666 . S
C41 C568 1.486 . S
C50 C640 1.550 . S
C113 C556 1.502 . S
C652 C122 1.539 . S
C131 C472 1.670 . S
C86 C736 1.666 . S
C95 C820 1.486 . S
C892 C104 1.549 . S
C5 C808 1.502 . S
C14 C904 1.539 . S
C23 C724 1.669 . S
