# Generated by pormake.
# Topology zzz, (3,6)-cn, num edge types: 1
# Building blocks:
#     Node 0, Type 0, BuildingBlock: PAMTOO_clean_linker_0, # of connection points: 3
#     Node 1, Type 0, BuildingBlock: PAMTOO_clean_linker_0, # of connection points: 3
#     Node 2, Type 0, BuildingBlock: PAMTOO_clean_linker_0, # of connection points: 3
#     Node 3, Type 0, BuildingBlock: PAMTOO_clean_linker_0, # of connection points: 3
#     Node 4, Type 0, BuildingBlock: PAMTOO_clean_linker_0, # of connection points: 3
#     Node 5, Type 0, BuildingBlock: PAMTOO_clean_linker_0, # of connection points: 3
#     Node 6, Type 0, BuildingBlock: PAMTOO_clean_linker_0, # of connection points: 3
#     Node 7, Type 0, BuildingBlock: PAMTOO_clean_linker_0, # of connection points: 3
#     Node 8, Type 1, BuildingBlock: CUWYAW_clean_sbu_0, # of connection points: 6
#     Node 9, Type 1, BuildingBlock: CUWYAW_clean_sbu_0, # of connection points: 6
#     Node 10, Type 1, BuildingBlock: CUWYAW_clean_sbu_0, # of connection points: 6
#     Node 11, Type 1, BuildingBlock: CUWYAW_clean_sbu_0, # of connection points: 6
#     Edge 12, Type (0, 1), BuildingBlock: MIFKUJ_clean_linker_0, # of connection points: 2
#     Edge 13, Type (0, 1), BuildingBlock: MIFKUJ_clean_linker_0, # of connection points: 2
#     Edge 14, Type (0, 1), BuildingBlock: MIFKUJ_clean_linker_0, # of connection points: 2
#     Edge 15, Type (0, 1), BuildingBlock: MIFKUJ_clean_linker_0, # of connection points: 2
#     Edge 16, Type (0, 1), BuildingBlock: MIFKUJ_clean_linker_0, # of connection points: 2
#     Edge 17, Type (0, 1), BuildingBlock: MIFKUJ_clean_linker_0, # of connection points: 2
#     Edge 18, Type (0, 1), BuildingBlock: MIFKUJ_clean_linker_0, # of connection points: 2
#     Edge 19, Type (0, 1), BuildingBlock: MIFKUJ_clean_linker_0, # of connection points: 2
#     Edge 20, Type (0, 1), BuildingBlock: MIFKUJ_clean_linker_0, # of connection points: 2
#     Edge 21, Type (0, 1), BuildingBlock: MIFKUJ_clean_linker_0, # of connection points: 2
#     Edge 22, Type (0, 1), BuildingBlock: MIFKUJ_clean_linker_0, # of connection points: 2
#     Edge 23, Type (0, 1), BuildingBlock: MIFKUJ_clean_linker_0, # of connection points: 2
#     Edge 24, Type (0, 1), BuildingBlock: MIFKUJ_clean_linker_0, # of connection points: 2
#     Edge 25, Type (0, 1), BuildingBlock: MIFKUJ_clean_linker_0, # of connection points: 2
#     Edge 26, Type (0, 1), BuildingBlock: MIFKUJ_clean_linker_0, # of connection points: 2
#     Edge 27, Type (0, 1), BuildingBlock: MIFKUJ_clean_linker_0, # of connection points: 2
#     Edge 28, Type (0, 1), BuildingBlock: MIFKUJ_clean_linker_0, # of connection points: 2
#     Edge 29, Type (0, 1), BuildingBlock: MIFKUJ_clean_linker_0, # of connection points: 2
#     Edge 30, Type (0, 1), BuildingBlock: MIFKUJ_clean_linker_0, # of connection points: 2
#     Edge 31, Type (0, 1), BuildingBlock: MIFKUJ_clean_linker_0, # of connection points: 2
#     Edge 32, Type (0, 1), BuildingBlock: MIFKUJ_clean_linker_0, # of connection points: 2
#     Edge 33, Type (0, 1), BuildingBlock: MIFKUJ_clean_linker_0, # of connection points: 2
#     Edge 34, Type (0, 1), BuildingBlock: MIFKUJ_clean_linker_0, # of connection points: 2
#     Edge 35, Type (0, 1), BuildingBlock: MIFKUJ_clean_linker_0, # of connection points: 2
# Relax obj value: 0.211
# Max RMSD: 0.148
# Mean RMSD: 0.132
data_MOF--net-zzz--node1-CUWYAW_clean_sbu_0--node2-PAMTOO_clean_linker_0--edge1-MIFKUJ_clean_linker_0
_symmetry_space_group_name_H-M    P1
_symmetry_Int_Tables_number       1
_symmetry_cell_setting            triclinic
loop_
_symmetry_equiv_pos_as_xyz
'x, y, z'
_cell_length_a     66.734824
_cell_length_b     66.76894
_cell_length_c     18.167214
_cell_angle_alpha  89.891496
_cell_angle_beta   90.135906
_cell_angle_gamma 89.715366
loop_
_atom_site_label
_atom_site_type_symbol
_atom_site_fract_x
_atom_site_fract_y
_atom_site_fract_z
_atom_type_partial_charge
H0 H 0.79778 0.53575 0.25805 0.0
H1 H 0.73532 0.53226 0.20124 0.0
H2 H 0.75454 0.5194 0.42278 0.0
H3 H 0.70632 0.49893 0.36664 0.0
C4 C 0.71268 0.50502 0.3148 0.0
O5 O 0.72303 0.52244 0.33124 0.0
H6 H 0.723 0.49323 0.29341 0.0
C7 C 0.78234 0.53335 0.2742 0.0
C8 C 0.77819 0.52802 0.3473 0.0
C9 C 0.76708 0.53454 0.22095 0.0
C10 C 0.74723 0.53103 0.24162 0.0
C11 C 0.74259 0.52545 0.3137 0.0
C12 C 0.75812 0.52366 0.36681 0.0
H13 H 1.00192 0.79722 0.22848 0.0
H14 H 0.9993 0.73553 0.16276 0.0
H15 H 1.01185 0.75052 0.38881 0.0
H16 H 0.02989 0.70277 0.32942 0.0
C17 C 0.02424 0.70911 0.27669 0.0
O18 O 1.00733 0.72062 0.29142 0.0
H19 H 0.03659 0.71852 0.25453 0.0
C20 C 1.00309 0.78145 0.24258 0.0
C21 C 1.00692 0.77585 0.31564 0.0
C22 C 1.00047 0.76701 0.18755 0.0
C23 C 1.0015 0.74668 0.20523 0.0
C24 C 1.00608 0.74058 0.27698 0.0
C25 C 1.00875 0.7552 0.33281 0.0
H26 H 0.7341 0.99223 0.26268 0.0
H27 H 0.79373 0.9902 0.17226 0.0
H28 H 0.78223 0.02268 0.37231 0.0
H29 H 0.82228 0.04031 0.27712 0.0
C30 C 0.81738 0.02914 0.23563 0.0
O31 O 0.80987 1.01257 0.2724 0.0
H32 H 0.80548 0.03663 0.2022 0.0
C33 C 0.74985 0.9961 0.26563 0.0
C34 C 0.75644 1.00788 0.32448 0.0
C35 C 0.7631 0.98938 0.21074 0.0
C36 C 0.78326 0.99518 0.21396 0.0
C37 C 0.79019 1.00736 0.27121 0.0
C38 C 0.77682 1.01353 0.32736 0.0
H39 H 0.4884 0.73876 0.27219 0.0
H40 H 0.50949 0.79316 0.17528 0.0
H41 H 0.53636 0.7714 0.37581 0.0
H42 H 0.54382 0.82327 0.34253 0.0
C43 C 0.53221 0.81914 0.3015 0.0
O44 O 0.53667 0.80021 0.27469 0.0
H45 H 0.51755 0.8191 0.33085 0.0
C46 C 0.49786 0.75184 0.27609 0.0
C47 C 0.51212 0.75318 0.33283 0.0
C48 C 0.49676 0.76612 0.21969 0.0
C49 C 0.50983 0.78239 0.22 0.0
C50 C 0.52375 0.7846 0.2771 0.0
C51 C 0.52508 0.76991 0.33323 0.0
H52 H 0.23872 0.54046 0.17947 0.0
H53 H 0.301 0.53414 0.23384 0.0
H54 H 0.27873 0.51054 0.02916 0.0
H55 H 0.32395 0.48773 0.1008 0.0
C56 C 0.31956 0.49797 0.14616 0.0
O57 O 0.31105 0.5151 0.11551 0.0
H58 H 0.30843 0.48963 0.17986 0.0
C59 C 0.25369 0.53572 0.164 0.0
C60 C 0.25658 0.52592 0.09641 0.0
C61 C 0.2695 0.53856 0.21393 0.0
C62 C 0.28869 0.53179 0.19594 0.0
C63 C 0.2921 0.52146 0.1303 0.0
C64 C 0.276 0.51834 0.08039 0.0
H65 H 0.98972 0.23468 0.15047 0.0
H66 H 1.00056 0.2955 0.21578 0.0
H67 H 0.03111 0.27094 0.02795 0.0
H68 H 0.05455 0.31408 0.11443 0.0
C69 C 0.04285 0.30889 0.1533 0.0
O70 O 0.02616 0.30319 0.11291 0.0
H71 H 0.0494 0.2958 0.1832 0.0
C72 C 0.99672 0.24903 0.14023 0.0
C73 C 1.01013 0.25081 0.08108 0.0
C74 C 0.99319 0.26492 0.18924 0.0
C75 C 1.00312 0.28309 0.17854 0.0
C76 C 1.01689 0.28528 0.12126 0.0
C77 C 0.02056 0.2691 0.07259 0.0
H78 H 0.30276 0.05474 0.15335 0.0
H79 H 0.24102 0.05006 0.21846 0.0
H80 H 0.25996 0.02733 0.00832 0.0
H81 H 0.23307 1.00575 0.15999 0.0
C82 C 0.22132 1.01436 0.12958 0.0
O83 O 0.22902 0.032 0.1008 0.0
H84 H 0.21658 1.00467 0.08311 0.0
C85 C 0.28739 0.05074 0.14103 0.0
C86 C 0.28318 0.04163 0.07321 0.0
C87 C 0.27246 0.05325 0.19491 0.0
C88 C 0.25277 0.0477 0.1784 0.0
C89 C 0.24819 0.03809 0.11228 0.0
C90 C 0.26346 0.03483 0.05952 0.0
H91 H 0.53545 0.30855 0.21719 0.0
H92 H 0.5379 0.2476 0.29177 0.0
H93 H 0.5065 0.26233 0.09112 0.0
H94 H 0.48853 0.22146 0.17293 0.0
C95 C 0.49962 0.22482 0.21688 0.0
O96 O 0.51649 0.23303 0.18444 0.0
H97 H 0.49224 0.23573 0.25461 0.0
C98 C 0.53126 0.293 0.20981 0.0
C99 C 0.5201 0.28746 0.14762 0.0
C100 C 0.53759 0.27884 0.26201 0.0
C101 C 0.53297 0.25863 0.25181 0.0
C102 C 0.52146 0.25265 0.19117 0.0
C103 C 0.51524 0.26702 0.13826 0.0
C104 C 1.00629 0.04254 0.49063 0.0
Eu105 Eu 1.01038 0.02257 0.61124 0.0
C106 C 0.99733 0.06261 0.48081 0.0
C107 C 0.97712 0.06629 0.49875 0.0
C108 C 0.97005 0.08592 0.50638 0.0
C109 C 0.98316 0.10207 0.49741 0.0
C110 C 1.003 0.09845 0.47549 0.0
C111 C 1.00997 0.0789 0.46654 0.0
C112 C 0.98131 0.01764 0.71642 0.0
C113 C 0.02147 0.05377 0.7472 0.0
C114 C 0.038 0.98469 0.86898 0.0
Eu115 Eu 0.03018 1.00657 0.75521 0.0
C116 C 0.02964 0.96481 0.88476 0.0
C117 C 0.04259 0.94846 0.89504 0.0
C118 C 0.03516 0.92895 0.89289 0.0
C119 C 1.01464 0.92553 0.88056 0.0
C120 C 1.00157 0.94196 0.87389 0.0
C121 C 1.00899 0.96141 0.87566 0.0
C122 C 0.05605 0.01886 0.64871 0.0
C123 C 1.01433 0.97497 0.62764 0.0
O124 O 0.02297 0.04243 0.52913 0.0
O125 O 0.99413 0.02792 0.50879 0.0
O126 O 0.97765 0.02341 0.64946 0.0
O127 O 0.99984 1.01434 0.72173 0.0
O128 O 0.01733 0.05109 0.67636 0.0
O129 O 0.02551 0.03854 0.79167 0.0
O130 O 0.02537 0.99979 0.87112 0.0
O131 O 0.04972 0.98525 0.81136 0.0
O132 O 0.05904 0.02148 0.7188 0.0
O133 O 0.03999 1.00928 0.63897 0.0
O134 O 0.01819 0.97833 0.69833 0.0
O135 O 1.01262 0.98987 0.57978 0.0
H136 H 0.96699 0.05408 0.51052 0.0
H137 H 0.95464 0.08845 0.52264 0.0
H138 H 1.01324 0.11077 0.46682 0.0
H139 H 0.02558 0.0765 0.45268 0.0
H140 H 0.05858 0.95073 0.90074 0.0
H141 H 0.04561 0.91655 0.8977 0.0
H142 H 0.98565 0.93977 0.86559 0.0
H143 H 0.99864 0.9737 0.86634 0.0
C144 C 0.49915 0.99823 0.54733 0.0
Eu145 Eu 0.51891 1.00756 0.66454 0.0
C146 C 0.47842 1.00377 0.5277 0.0
C147 C 0.46315 0.98949 0.53449 0.0
C148 C 0.44308 0.99538 0.53156 0.0
C149 C 0.43798 1.01561 0.52112 0.0
C150 C 0.45323 0.02972 0.51072 0.0
C151 C 0.47326 0.02386 0.51377 0.0
C152 C 0.53205 0.98193 0.77082 0.0
C153 C 0.48506 0.02414 0.78634 0.0
C154 C 0.55065 0.02619 0.93798 0.0
Eu155 Eu 0.53248 0.02717 0.81292 0.0
C156 C 0.56957 1.01498 0.95036 0.0
C157 C 0.58747 0.02192 0.91869 0.0
C158 C 0.60392 1.00917 0.9112 0.0
C159 C 0.603 0.98932 0.93622 0.0
C160 C 0.58574 0.98273 0.97287 0.0
C161 C 0.56912 0.99545 0.97967 0.0
C162 C 0.52578 0.05661 0.71135 0.0
C163 C 0.56537 1.0163 0.68229 0.0
O164 O 0.51226 1.01281 0.54873 0.0
O165 O 0.50078 0.98621 0.6041 0.0
O166 O 0.53556 0.97935 0.70117 0.0
O167 O 0.52141 0.99738 0.77957 0.0
O168 O 0.48933 0.01745 0.71905 0.0
O169 O 0.49925 0.02849 0.83499 0.0
O170 O 0.53496 1.01509 0.92421 0.0
O171 O 0.55171 0.04168 0.89376 0.0
O172 O 0.53059 0.06015 0.7796 0.0
O173 O 0.52401 0.03796 0.70318 0.0
O174 O 0.5616 0.01841 0.75364 0.0
O175 O 0.5508 1.01414 0.63361 0.0
H176 H 0.46672 0.97391 0.54522 0.0
H177 H 0.43158 0.98413 0.53809 0.0
H178 H 0.4497 0.04542 0.50258 0.0
H179 H 0.48462 0.03527 0.50819 0.0
H180 H 0.58848 0.03686 0.89575 0.0
H181 H 0.61732 1.01476 0.88465 0.0
H182 H 0.58482 0.96753 0.99351 0.0
H183 H 0.55554 0.98963 1.00413 0.0
C184 C 0.54115 0.49061 0.5103 0.0
Eu185 Eu 0.53172 0.50652 0.63527 0.0
C186 C 0.55601 0.47515 0.49118 0.0
C187 C 0.5743 0.4738 0.52948 0.0
C188 C 0.58678 0.45714 0.52049 0.0
C189 C 0.58112 0.44148 0.47342 0.0
C190 C 0.56335 0.4435 0.43194 0.0
C191 C 0.55092 0.46019 0.44081 0.0
C192 C 0.55822 0.51116 0.75119 0.0
C193 C 0.51701 0.47567 0.76559 0.0
C194 C 0.50251 0.54264 0.90353 0.0
Eu195 Eu 0.50962 0.52374 0.78243 0.0
C196 C 0.49166 0.56159 0.91474 0.0
C197 C 0.47601 0.5672 0.86687 0.0
C198 C 0.46804 0.58658 0.86908 0.0
C199 C 0.47581 0.6007 0.91843 0.0
C200 C 0.49103 0.59485 0.96782 0.0
C201 C 0.49888 0.57543 0.96597 0.0
C202 C 0.48287 0.51884 0.66798 0.0
C203 C 0.5226 0.55441 0.65007 0.0
O204 O 0.52607 0.48429 0.55033 0.0
O205 O 0.54835 0.50782 0.53269 0.0
O206 O 0.56332 0.50499 0.68626 0.0
O207 O 0.53972 0.5147 0.74853 0.0
O208 O 0.52191 0.47818 0.69518 0.0
O209 O 0.51367 0.4909 0.81112 0.0
O210 O 0.51932 0.54453 0.86699 0.0
O211 O 0.49179 0.52727 0.88188 0.0
O212 O 0.47796 0.5249 0.73334 0.0
O213 O 0.50147 0.51557 0.66877 0.0
O214 O 0.51819 0.55197 0.72064 0.0
O215 O 0.52612 0.53913 0.60521 0.0
H216 H 0.57858 0.48518 0.56877 0.0
H217 H 0.60046 0.45615 0.55251 0.0
H218 H 0.55834 0.4316 0.39598 0.0
H219 H 0.53682 0.4609 0.41119 0.0
H220 H 0.47047 0.55688 0.82578 0.0
H221 H 0.45642 0.59077 0.83014 0.0
H222 H 0.49711 0.60543 0.00701 0.0
H223 H 0.51113 0.57147 1.00255 0.0
C224 C 0.04461 0.52329 0.51316 0.0
Eu225 Eu 0.02574 0.51919 0.6358 0.0
C226 C 0.06479 0.5315 0.50197 0.0
C227 C 0.07012 0.55008 0.53278 0.0
C228 C 0.09026 0.55531 0.54 0.0
C229 C 0.10525 0.54191 0.51769 0.0
C230 C 0.09996 0.52393 0.48301 0.0
C231 C 0.07986 0.51884 0.4746 0.0
C232 C 0.02087 0.54801 0.74216 0.0
C233 C 0.05823 0.50848 0.76869 0.0
C234 C 0.99006 0.48993 0.89411 0.0
Eu235 Eu 1.0113 0.49889 0.78024 0.0
C236 C 0.96907 0.49581 0.90701 0.0
C237 C 0.95446 0.48095 0.91518 0.0
C238 C 0.93415 0.48588 0.90978 0.0
C239 C 0.92814 0.50577 0.89645 0.0
C240 C 0.94273 0.52079 0.89226 0.0
C241 C 0.96301 0.51586 0.89713 0.0
C242 C 0.02355 0.4735 0.67209 0.0
C243 C 0.9783 0.51432 0.65477 0.0
O244 O 0.04452 0.50646 0.5505 0.0
O245 O 0.03053 0.53587 0.5341 0.0
O246 O 0.0263 0.55182 0.67504 0.0
O247 O 0.01804 0.52943 0.74727 0.0
O248 O 0.0549 0.51225 0.69788 0.0
O249 O 0.04339 0.5045 0.81469 0.0
O250 O 1.00329 0.50437 0.8947 0.0
O251 O 0.99258 0.47759 0.83899 0.0
O252 O 0.02712 0.47063 0.74176 0.0
O253 O 1.01333 0.48935 0.66357 0.0
O254 O 0.98215 0.5094 0.72434 0.0
O255 O 0.99289 0.51732 0.60679 0.0
H256 H 0.05885 0.56004 0.55531 0.0
H257 H 0.09414 0.56928 0.56662 0.0
H258 H 0.11142 0.51354 0.4646 0.0
H259 H 0.07612 0.50439 0.45134 0.0
H260 H 0.95879 0.4654 0.92202 0.0
H261 H 0.92315 0.47408 0.91476 0.0
H262 H 0.93853 0.53622 0.88166 0.0
H263 H 0.9739 0.52764 0.88921 0.0
H264 H 0.22193 0.02444 0.27659 0.0
H265 H 0.19369 0.02819 0.36123 0.0
H266 H 0.1526 1.01533 0.18397 0.0
H267 H 0.18088 1.01279 0.0984 0.0
H268 H 0.13564 0.04151 0.2669 0.0
H269 H 0.16848 0.9791 0.31919 0.0
H270 H 0.19684 0.95675 0.34993 0.0
H271 H 0.2058 0.98816 0.5533 0.0
H272 H 0.17765 1.01087 0.52332 0.0
H273 H 0.05424 1.01041 0.50077 0.0
H274 H 0.08157 1.0119 0.41061 0.0
H275 H 0.12161 0.03332 0.57928 0.0
H276 H 0.09439 0.03192 0.66924 0.0
H277 H 0.13858 1.00297 0.50038 0.0
H278 H 0.10372 0.06452 0.44672 0.0
H279 H 0.07397 0.08489 0.41533 0.0
H280 H 0.06741 0.05281 0.21213 0.0
H281 H 0.09693 0.032 0.24293 0.0
C282 C 0.20685 0.02287 0.25536 0.0
C283 C 0.20368 0.01831 0.18072 0.0
C284 C 0.19065 0.02471 0.30411 0.0
C285 C 0.17083 0.02153 0.27999 0.0
C286 C 0.16763 0.01776 0.20464 0.0
C287 C 0.18383 1.01625 0.15562 0.0
C288 C 0.1536 0.02152 0.3334 0.0
C289 C 0.13626 0.03287 0.31747 0.0
C290 C 0.15421 1.01049 0.40031 0.0
C291 C 0.17109 0.9968 0.41866 0.0
C292 C 0.17659 0.98132 0.37024 0.0
C293 C 0.19261 0.96858 0.38755 0.0
C294 C 0.20315 0.97107 0.45343 0.0
C295 C 0.19765 0.98627 0.50224 0.0
C296 C 0.18165 0.99907 0.48515 0.0
C297 C 0.06882 1.01563 0.51841 0.0
C298 C 0.0721 0.02106 0.59228 0.0
C299 C 0.08446 1.0165 0.46676 0.0
C300 C 0.10375 0.02279 0.4878 0.0
C301 C 0.10694 0.02838 0.56145 0.0
C302 C 0.09131 0.02766 0.61286 0.0
C303 C 0.12077 0.02301 0.43399 0.0
C304 C 0.13803 1.01164 0.44983 0.0
C305 C 0.11994 0.0338 0.36675 0.0
C306 C 0.10243 0.04657 0.34747 0.0
C307 C 0.09585 0.06171 0.39557 0.0
C308 C 0.07904 0.07335 0.37787 0.0
C309 C 0.06878 0.07011 0.31187 0.0
C310 C 0.07536 0.05528 0.26329 0.0
C311 C 0.09214 0.04357 0.28082 0.0
H312 H 0.05575 0.07912 0.29831 0.0
H313 H 0.21555 0.96119 0.46673 0.0
H314 H 0.49239 0.18546 0.18021 0.0
H315 H 0.49775 0.15539 0.25579 0.0
H316 H 0.52356 0.1917 0.42728 0.0
H317 H 0.51804 0.22179 0.35195 0.0
H318 H 0.54468 0.15682 0.40873 0.0
H319 H 0.47567 0.17607 0.43936 0.0
H320 H 0.4414 0.18456 0.39846 0.0
H321 H 0.43565 0.12651 0.29952 0.0
H322 H 0.47002 0.11778 0.33896 0.0
H323 H 0.53389 0.09619 0.72473 0.0
H324 H 0.53059 0.12254 0.63201 0.0
H325 H 0.50829 0.07946 0.47587 0.0
H326 H 0.51189 0.05281 0.56909 0.0
H327 H 0.48595 0.11554 0.47741 0.0
H328 H 0.5541 0.09531 0.45488 0.0
H329 H 0.58813 0.08669 0.49784 0.0
H330 H 0.5955 0.14627 0.58187 0.0
H331 H 0.56136 0.15517 0.54047 0.0
C332 C 0.49938 0.18698 0.23375 0.0
C333 C 0.50477 0.20601 0.26022 0.0
C334 C 0.50235 0.1698 0.2771 0.0
C335 C 0.51085 0.17123 0.34783 0.0
C336 C 0.51697 0.19014 0.37305 0.0
C337 C 0.51387 0.20734 0.3299 0.0
C338 C 0.51282 0.15318 0.3964 0.0
C339 C 0.53179 0.14792 0.4242 0.0
C340 C 0.49613 0.14114 0.41528 0.0
C341 C 0.4755 0.14637 0.3913 0.0
C342 C 0.46717 0.16519 0.40826 0.0
C343 C 0.44771 0.17003 0.38547 0.0
C344 C 0.43638 0.1561 0.34619 0.0
C345 C 0.44446 0.13729 0.32979 0.0
C346 C 0.46393 0.13239 0.35238 0.0
C347 C 0.52826 0.09227 0.67068 0.0
C348 C 0.52313 0.07238 0.65419 0.0
C349 C 0.52645 0.10738 0.61756 0.0
C350 C 0.51936 0.10303 0.54656 0.0
C351 C 0.51385 0.08321 0.53016 0.0
C352 C 0.51591 0.06798 0.58333 0.0
C353 C 0.51776 0.11934 0.49032 0.0
C354 C 0.49886 0.12431 0.46126 0.0
C355 C 0.53451 0.13111 0.47022 0.0
C356 C 0.55508 0.12586 0.49513 0.0
C357 C 0.5629 0.10653 0.4831 0.0
C358 C 0.58223 0.1016 0.50707 0.0
C359 C 0.59396 0.11591 0.54271 0.0
C360 C 0.58639 0.13519 0.55432 0.0
C361 C 0.56705 0.1402 0.53055 0.0
H362 H 0.60892 0.11206 0.56119 0.0
H363 H 0.42131 0.15987 0.32865 0.0
H364 H 0.35936 0.49913 0.10555 0.0
H365 H 0.38896 0.50391 0.18423 0.0
H366 H 0.35053 0.51249 0.37208 0.0
H367 H 0.32099 0.5075 0.29364 0.0
H368 H 0.38154 0.53936 0.37164 0.0
H369 H 0.37408 0.46779 0.34201 0.0
H370 H 0.37142 0.43649 0.27091 0.0
H371 H 0.4291 0.4472 0.1747 0.0
H372 H 0.43198 0.47873 0.24455 0.0
H373 H 0.44269 0.5223 0.67704 0.0
H374 H 0.41769 0.52003 0.57998 0.0
H375 H 0.46419 0.50807 0.42136 0.0
H376 H 0.48961 0.50998 0.52026 0.0
H377 H 0.4319 0.48475 0.39466 0.0
H378 H 0.4413 0.55442 0.42994 0.0
H379 H 0.4447 0.58595 0.49913 0.0
H380 H 0.38457 0.57993 0.57954 0.0
H381 H 0.3809 0.54819 0.51168 0.0
C382 C 0.35726 0.5022 0.16354 0.0
C383 C 0.33781 0.50285 0.19338 0.0
C384 C 0.3742 0.50483 0.20863 0.0
C385 C 0.37211 0.50831 0.28464 0.0
C386 C 0.35264 0.50978 0.31384 0.0
C387 C 0.33572 0.50699 0.26889 0.0
C388 C 0.39009 0.51 0.33418 0.0
C389 C 0.39244 0.52734 0.37704 0.0
C390 C 0.40485 0.49468 0.3397 0.0
C391 C 0.40314 0.47573 0.29784 0.0
C392 C 0.38612 0.46356 0.30522 0.0
C393 C 0.38459 0.44576 0.26524 0.0
C394 C 0.40006 0.43989 0.21815 0.0
C395 C 0.41712 0.45179 0.21109 0.0
C396 C 0.41871 0.46961 0.25089 0.0
C397 C 0.44771 0.51913 0.62159 0.0
C398 C 0.46822 0.51641 0.60651 0.0
C399 C 0.43332 0.51796 0.56577 0.0
C400 C 0.43891 0.51431 0.49253 0.0
C401 C 0.4594 0.51105 0.47721 0.0
C402 C 0.47395 0.51214 0.53369 0.0
C403 C 0.42313 0.51396 0.43331 0.0
C404 C 0.42116 0.4969 0.38868 0.0
C405 C 0.40882 0.52964 0.42548 0.0
C406 C 0.41088 0.54883 0.46604 0.0
C407 C 0.42884 0.55974 0.46275 0.0
C408 C 0.43081 0.57767 0.5017 0.0
C409 C 0.41487 0.58492 0.5438 0.0
C410 C 0.39691 0.57429 0.54691 0.0
C411 C 0.39487 0.55634 0.50813 0.0
H412 H 0.41641 0.59881 0.5739 0.0
H413 H 0.39885 0.4261 0.18726 0.0
H414 H 0.04873 0.31009 0.30323 0.0
H415 H 0.04437 0.33839 0.387 0.0
H416 H 0.02222 0.37462 0.20727 0.0
H417 H 0.02715 0.34628 0.12274 0.0
H418 H 0.0473 0.39604 0.28667 0.0
H419 H 0.99099 0.35525 0.34461 0.0
H420 H 0.97379 0.32385 0.37693 0.0
H421 H 1.00641 0.32092 0.58068 0.0
H422 H 0.02412 0.3521 0.54895 0.0
H423 H 1.0126 0.47467 0.52605 0.0
H424 H 1.01446 0.44741 0.43568 0.0
H425 H 0.04094 0.40874 0.59995 0.0
H426 H 0.03907 0.43587 0.69019 0.0
H427 H 1.01179 0.38931 0.52491 0.0
H428 H 0.06896 0.4296 0.46295 0.0
H429 H 0.08595 0.46104 0.42956 0.0
H430 H 0.05065 0.46517 0.23214 0.0
H431 H 0.03319 0.43392 0.26502 0.0
C432 C 0.04269 0.324 0.2817 0.0
C433 C 0.03803 0.32585 0.20643 0.0
C434 C 0.04016 0.34024 0.32978 0.0
C435 C 0.03269 0.35875 0.30416 0.0
C436 C 0.02795 0.36058 0.22885 0.0
C437 C 0.0306 0.34433 0.1806 0.0
C438 C 0.03024 0.37618 0.35575 0.0
C439 C 0.03923 0.39461 0.33816 0.0
C440 C 0.02002 0.37444 0.42387 0.0
C441 C 1.00901 0.35595 0.44408 0.0
C442 C 0.99458 0.34786 0.39615 0.0
C443 C 0.98474 0.33009 0.41434 0.0
C444 C 0.98904 0.32037 0.48073 0.0
C445 C 1.00312 0.32845 0.52921 0.0
C446 C 1.01306 0.34618 0.51117 0.0
C447 C 0.01896 0.4604 0.5427 0.0
C448 C 0.02573 0.45749 0.61539 0.0
C449 C 0.02003 0.44479 0.49093 0.0
C450 C 0.02791 0.4259 0.51059 0.0
C451 C 0.03473 0.42307 0.58316 0.0
C452 C 0.03376 0.43867 0.63472 0.0
C453 C 0.029 0.40905 0.45608 0.0
C454 C 0.01974 0.39074 0.47318 0.0
C455 C 0.03887 0.41094 0.3874 0.0
C456 C 0.04962 0.42953 0.36684 0.0
C457 C 0.06472 0.43728 0.41266 0.0
C458 C 0.07445 0.45507 0.39382 0.0
C459 C 0.06934 0.46513 0.32888 0.0
C460 C 0.05456 0.45738 0.2825 0.0
C461 C 0.04475 0.43963 0.30119 0.0
H462 H 0.07687 0.47891 0.31444 0.0
H463 H 0.98144 0.30659 0.49464 0.0
H464 H 0.81764 0.02284 0.0859 0.0
H465 H 0.84652 0.01795 1.00482 0.0
H466 H 0.88592 0.01795 0.19345 0.0
H467 H 0.85695 0.0234 0.27444 0.0
H468 H 0.90174 0.04035 0.09109 0.0
H469 H 0.87494 0.97429 0.09154 0.0
H470 H 0.84897 0.94835 0.07974 0.0
H471 H 0.83946 0.96491 0.85381 0.0
H472 H 0.86519 0.99115 0.86453 0.0
H473 H 0.98637 1.01229 0.86631 0.0
H474 H 0.96004 1.01102 0.96098 0.0
H475 H 0.91488 0.01757 0.79237 0.0
H476 H 0.94098 0.01882 0.69845 0.0
H477 H 0.90393 0.98949 0.89266 0.0
H478 H 0.9293 0.05705 0.89663 0.0
H479 H 0.95557 0.08269 0.90899 0.0
H480 H 0.96823 0.06244 0.12877 0.0
H481 H 0.94224 0.03645 0.11726 0.0
C482 C 0.83245 0.02157 0.11008 0.0
C483 C 0.83502 0.02362 0.18655 0.0
C484 C 0.84901 0.0187 0.06367 0.0
C485 C 0.8686 0.01742 0.09254 0.0
C486 C 0.87109 0.01893 0.16933 0.0
C487 C 0.8545 0.0219 0.21575 0.0
C488 C 0.88641 1.01528 0.04244 0.0
C489 C 0.90233 0.02895 0.04867 0.0
C490 C 0.88729 1.00066 0.98591 0.0
C491 C 0.87189 0.9848 0.97905 0.0
C492 C 0.86722 0.97249 0.03948 0.0
C493 C 0.85255 0.95772 0.03296 0.0
C494 C 0.84254 0.95501 0.96612 0.0
C495 C 0.84722 0.96704 0.90558 0.0
C496 C 0.86186 0.98185 0.91182 0.0
C497 C 0.97082 1.01325 0.84958 0.0
C498 C 0.96579 1.01562 0.77482 0.0
C499 C 0.95575 1.01265 0.90373 0.0
C500 C 0.93535 1.01433 0.88415 0.0
C501 C 0.93041 1.0162 0.80925 0.0
C502 C 0.9454 0.01697 0.75548 0.0
C503 C 0.91904 1.01467 0.94091 0.0
C504 C 0.9034 1.0007 0.93575 0.0
C505 C 0.91848 0.02893 0.99858 0.0
C506 C 0.93399 0.04465 0.00576 0.0
C507 C 0.9378 0.05796 0.94738 0.0
C508 C 0.95262 0.07257 0.95425 0.0
C509 C 0.96361 0.07416 0.01954 0.0
C510 C 0.95974 0.06117 0.07817 0.0
C511 C 0.94497 0.04649 0.0715 0.0
H512 H 0.97507 0.08548 0.02476 0.0
H513 H 0.83118 0.94358 0.96119 0.0
H514 H 0.55337 0.82025 0.1695 0.0
H515 H 0.55414 0.84729 0.07808 0.0
H516 H 0.51261 0.88162 0.20942 0.0
H517 H 0.51136 0.85436 0.29946 0.0
H518 H 0.50248 0.88555 0.07247 0.0
H519 H 0.56475 0.89095 0.20352 0.0
H520 H 0.59727 0.87939 0.25288 0.0
H521 H 0.61791 0.8672 0.03373 0.0
H522 H 0.5854 0.87844 0.98311 0.0
H523 H 0.51564 0.98048 0.90852 0.0
H524 H 0.51719 0.953 0.99743 0.0
H525 H 0.55468 0.91922 0.84921 0.0
H526 H 0.55359 0.94702 0.7606 0.0
H527 H 0.56707 0.9145 0.99086 0.0
H528 H 0.50429 0.91021 0.86099 0.0
H529 H 0.47205 0.92326 0.81417 0.0
H530 H 0.45253 0.93459 0.0353 0.0
H531 H 0.48478 0.92186 0.08342 0.0
C532 C 0.54416 0.83343 0.17826 0.0
C533 C 0.53192 0.83494 0.24105 0.0
C534 C 0.54478 0.84902 0.12628 0.0
C535 C 0.53359 0.86673 0.13679 0.0
C536 C 0.52133 0.86817 0.19943 0.0
C537 C 0.5206 0.85255 0.25096 0.0
C538 C 0.53461 0.88382 0.08321 0.0
C539 C 0.51664 0.89197 0.05544 0.0
C540 C 0.55303 0.89213 0.0593 0.0
C541 C 0.57256 0.88532 0.08961 0.0
C542 C 0.57617 0.88565 0.16591 0.0
C543 C 0.59461 0.87918 0.1941 0.0
C544 C 0.60963 0.8725 0.14649 0.0
C545 C 0.60625 0.87233 0.07056 0.0
C546 C 0.58782 0.87876 0.04208 0.0
C547 C 0.52453 0.96738 0.89532 0.0
C548 C 0.5345 0.96596 0.82739 0.0
C549 C 0.52524 0.95155 0.94601 0.0
C550 C 0.53574 0.9338 0.9297 0.0
C551 C 0.54638 0.93267 0.86309 0.0
C552 C 0.54571 0.94856 0.81235 0.0
C553 C 0.53497 0.91621 0.9808 0.0
C554 C 0.55295 0.90798 0.00789 0.0
C555 C 0.51657 0.9079 1.00453 0.0
C556 C 0.49702 0.91523 0.97576 0.0
C557 C 0.49317 0.91558 0.89961 0.0
C558 C 0.47489 0.92292 0.87284 0.0
C559 C 0.46027 0.9298 0.92172 0.0
C560 C 0.46387 0.92928 0.9975 0.0
C561 C 0.48214 0.92198 0.02456 0.0
H562 H 0.44613 0.93549 0.90088 0.0
H563 H 0.6239 0.86751 0.16843 0.0
H564 H 0.67378 0.51719 0.3411 0.0
H565 H 0.64599 0.52071 0.25289 0.0
H566 H 0.68588 0.50473 0.07577 0.0
H567 H 0.71362 0.50142 0.16385 0.0
H568 H 0.66234 0.53459 0.03373 0.0
H569 H 0.65128 0.47107 0.1553 0.0
H570 H 0.64539 0.4486 0.2609 0.0
H571 H 0.59197 0.4814 0.31543 0.0
H572 H 0.59769 0.50425 0.2106 0.0
H573 H 0.59824 0.50496 0.74899 0.0
H574 H 0.62222 0.50645 0.84996 0.0
H575 H 0.57468 0.52234 0.99959 0.0
H576 H 0.55029 0.52031 0.89762 0.0
H577 H 0.59972 0.49574 0.06375 0.0
H578 H 0.60891 0.55766 0.93938 0.0
H579 H 0.614 0.58023 0.83356 0.0
H580 H 0.67021 0.55144 0.78683 0.0
H581 H 0.66533 0.52849 0.89176 0.0
C582 C 0.67659 0.51457 0.28323 0.0
C583 C 0.69586 0.50884 0.25955 0.0
C584 C 0.66066 0.51642 0.2328 0.0
C585 C 0.66359 0.51262 0.15735 0.0
C586 C 0.68306 0.50765 0.13347 0.0
C587 C 0.69896 0.50576 0.18387 0.0
C588 C 0.64658 0.5138 0.103 0.0
C589 C 0.64876 0.52591 0.04016 0.0
C590 C 0.62837 0.50313 0.1121 0.0
C591 C 0.62506 0.48952 0.17559 0.0
C592 C 0.63839 0.47362 0.19021 0.0
C593 C 0.63505 0.46079 0.24984 0.0
C594 C 0.61835 0.46361 0.29497 0.0
C595 C 0.60492 0.47926 0.2805 0.0
C596 C 0.6082 0.49215 0.22097 0.0
C597 C 0.59281 0.50888 0.80325 0.0
C598 C 0.57232 0.51281 0.81482 0.0
C599 C 0.60663 0.50982 0.86119 0.0
C600 C 0.6005 0.51492 0.93273 0.0
C601 C 0.57993 0.51854 0.94498 0.0
C602 C 0.56598 0.51754 0.88655 0.0
C603 C 0.61573 0.51615 0.99374 0.0
C604 C 0.61322 0.50455 0.05775 0.0
C605 C 0.6336 0.52741 0.98617 0.0
C606 C 0.63668 0.54125 0.92318 0.0
C607 C 0.6223 0.55605 0.90625 0.0
C608 C 0.62515 0.56892 0.84646 0.0
C609 C 0.6424 0.56724 0.80342 0.0
C610 C 0.65685 0.55271 0.8202 0.0
C611 C 0.65406 0.53978 0.87989 0.0
H612 H 0.64458 0.57722 0.75714 0.0
H613 H 0.61577 0.45364 0.34103 0.0
H614 H 1.01272 0.67034 0.30666 0.0
H615 H 1.00909 0.64224 0.22069 0.0
H616 H 0.02225 0.68167 0.03906 0.0
H617 H 0.02583 0.70975 0.1251 0.0
H618 H 0.99275 0.65588 1.00193 0.0
H619 H 0.05823 0.6502 0.11347 0.0
H620 H 0.08213 0.64746 0.2168 0.0
H621 H 0.05385 0.5932 0.28835 0.0
H622 H 0.0296 0.59576 0.18591 0.0
H623 H 0.02454 0.58826 0.72706 0.0
H624 H 0.02194 0.61417 0.82115 0.0
H625 H 1.0097 0.56908 0.98499 0.0
H626 H 1.01251 0.54291 0.89017 0.0
H627 H 0.03625 0.59613 0.03709 0.0
H628 H 0.97236 0.6 0.92201 0.0
H629 H 0.94829 0.60218 0.8191 0.0
H630 H 0.97261 0.65908 0.75587 0.0
H631 H 0.99703 0.65711 0.8578 0.0
C632 C 1.01463 0.67302 0.2483 0.0
C633 C 0.01975 0.69224 0.22278 0.0
C634 C 1.01267 0.65692 0.19911 0.0
C635 C 1.01574 0.65962 0.12307 0.0
C636 C 0.01989 0.67905 0.09725 0.0
C637 C 0.02192 0.69514 0.14648 0.0
C638 C 1.01527 0.64219 0.07077 0.0
C639 C 1.00241 0.64292 0.00937 0.0
C640 C 0.02739 0.62487 0.08106 0.0
C641 C 0.04197 0.6233 0.14254 0.0
C642 C 0.05701 0.63777 0.15159 0.0
C643 C 0.07063 0.63624 0.20992 0.0
C644 C 0.06947 0.6202 0.25924 0.0
C645 C 0.05471 0.60563 0.25019 0.0
C646 C 0.04103 0.60711 0.19198 0.0
C647 C 0.02118 0.5838 0.78302 0.0
C648 C 0.0186 0.56346 0.80087 0.0
C649 C 0.01961 0.59871 0.83694 0.0
C650 C 1.01534 0.59376 0.91049 0.0
C651 C 1.01291 0.57339 0.92876 0.0
C652 C 1.01442 0.55841 0.87445 0.0
C653 C 1.01391 0.60993 0.96774 0.0
C654 C 0.02644 0.60899 0.02998 0.0
C655 C 1.00139 0.627 0.95845 0.0
C656 C 0.98665 0.62833 0.89726 0.0
C657 C 0.97268 0.61292 0.88585 0.0
C658 C 0.95895 0.61412 0.82774 0.0
C659 C 0.95895 0.63074 0.78089 0.0
C660 C 0.97264 0.64621 0.79218 0.0
C661 C 0.98642 0.64507 0.85018 0.0
H662 H 0.94831 0.63164 0.73592 0.0
H663 H 0.08004 0.61903 0.30435 0.0
H664 H 1.00198 0.27596 0.33057 0.0
H665 H 0.99045 0.25839 0.44005 0.0
H666 H 0.94666 0.22704 0.30953 0.0
H667 H 0.95747 0.24522 0.20041 0.0
H668 H 0.93798 0.22552 0.46244 0.0
H669 H 0.99298 0.20948 0.28946 0.0
H670 H 0.02345 0.21895 0.22111 0.0
H671 H 0.05235 0.23517 0.42375 0.0
H672 H 0.02198 0.22581 0.49317 0.0
H673 H 0.95129 0.12158 0.43638 0.0
H674 H 0.94472 0.15763 0.44004 0.0
H675 H 0.99314 0.16503 0.59525 0.0
H676 H 1.00018 0.12904 0.58969 0.0
H677 H 0.99999 0.18427 0.47277 0.0
H678 H 0.94554 0.18173 0.63792 0.0
H679 H 0.91402 0.16937 0.69138 0.0
H680 H 0.88242 0.18523 0.4934 0.0
H681 H 0.91379 0.19741 0.43818 0.0
C682 C 0.98908 0.26626 0.32581 0.0
C683 C 0.98119 0.26123 0.25644 0.0
C684 C 0.98246 0.25623 0.38869 0.0
C685 C 0.96827 0.24088 0.38211 0.0
C686 C 0.95785 0.23863 0.31557 0.0
C687 C 0.96426 0.24883 0.25293 0.0
C688 C 0.96911 0.22352 0.43263 0.0
C689 C 0.95153 0.21654 0.46608 0.0
C690 C 0.98686 0.21191 0.43735 0.0
C691 C 1.00523 0.21719 0.39625 0.0
C692 C 1.00584 0.21512 0.31929 0.0
C693 C 0.02306 0.22047 0.2804 0.0
C694 C 0.03978 0.22776 0.31803 0.0
C695 C 0.03936 0.22958 0.39468 0.0
C696 C 0.02217 0.22424 0.43384 0.0
C697 C 0.9601 0.13087 0.47291 0.0
C698 C 0.97647 0.12277 0.51152 0.0
C699 C 0.95622 0.15142 0.47568 0.0
C700 C 0.96848 0.16404 0.51801 0.0
C701 C 0.98358 0.15556 0.56222 0.0
C702 C 0.98766 0.13509 0.55858 0.0
C703 C 0.96871 0.18579 0.50215 0.0
C704 C 0.98657 0.19352 0.47363 0.0
C705 C 0.95109 0.19768 0.5009 0.0
C706 C 0.93208 0.19047 0.53382 0.0
C707 C 0.9319 0.18248 0.60554 0.0
C708 C 0.91404 0.17552 0.63621 0.0
C709 C 0.89623 0.17651 0.59581 0.0
C710 C 0.89623 0.1845 0.52467 0.0
C711 C 0.91404 0.19148 0.49372 0.0
H712 H 0.88242 0.17111 0.61965 0.0
H713 H 0.05308 0.23193 0.28783 0.0
H714 H 0.29966 0.0812 0.24182 0.0
H715 H 0.31885 0.07839 0.35558 0.0
H716 H 0.27768 0.03408 0.43642 0.0
H717 H 0.25879 0.03619 0.32217 0.0
H718 H 0.31463 0.06477 0.53964 0.0
H719 H 0.29876 1.00337 0.39078 0.0
H720 H 0.28725 0.98752 0.27559 0.0
H721 H 0.33063 0.02117 0.15318 0.0
H722 H 0.34201 0.03751 0.26762 0.0
H723 H 0.40795 1.00417 0.61412 0.0
H724 H 0.37209 1.0127 0.60349 0.0
H725 H 0.38488 0.0502 0.41648 0.0
H726 H 0.4203 0.04138 0.42481 0.0
H727 H 0.3562 1.0159 0.40078 0.0
H728 H 0.37478 0.07183 0.56991 0.0
H729 H 0.38677 0.08166 0.69321 0.0
H730 H 0.33739 0.05087 0.79269 0.0
H731 H 0.32531 0.04061 0.67013 0.0
C732 C 0.29416 0.0715 0.28507 0.0
C733 C 0.27828 0.05827 0.27162 0.0
C734 C 0.30493 0.0702 0.35079 0.0
C735 C 0.29991 0.05566 0.40337 0.0
C736 C 0.2818 0.04533 0.39624 0.0
C737 C 0.27107 0.0465 0.33024 0.0
C738 C 0.31664 0.04606 0.44318 0.0
C739 C 0.32355 0.05375 0.51047 0.0
C740 C 0.32799 0.03127 0.40617 0.0
C741 C 0.32099 0.02182 0.33721 0.0
C742 C 0.30567 1.0075 0.33908 0.0
C743 C 0.29917 0.99845 0.27404 0.0
C744 C 0.30816 1.00338 0.20709 0.0
C745 C 0.32362 0.01741 0.20499 0.0
C746 C 0.33004 0.02664 0.26983 0.0
C747 C 0.40302 1.01428 0.57101 0.0
C748 C 0.41678 0.02196 0.51974 0.0
C749 C 0.38272 0.0193 0.56587 0.0
C750 C 0.3761 0.03213 0.50987 0.0
C751 C 0.3899 0.04039 0.4605 0.0
C752 C 0.41008 0.03537 0.46538 0.0
C753 C 0.35467 0.03518 0.4954 0.0
C754 C 0.34698 0.02628 0.43197 0.0
C755 C 0.34249 0.04805 0.538 0.0
C756 C 0.34918 0.05539 0.61089 0.0
C757 C 0.3665 0.06714 0.6181 0.0
C758 C 0.37333 0.07276 0.6879 0.0
C759 C 0.36288 0.06685 0.75083 0.0
C760 C 0.34549 0.05543 0.74402 0.0
C761 C 0.33863 0.04975 0.6744 0.0
H762 H 0.36823 0.07114 0.80482 0.0
H763 H 0.30318 0.9962 0.15706 0.0
H764 H 0.57476 0.26663 0.30871 0.0
H765 H 0.59638 0.28444 0.39634 0.0
H766 H 0.5476 0.3252 0.4436 0.0
H767 H 0.52621 0.3072 0.35891 0.0
H768 H 0.60891 0.31903 0.37327 0.0
H769 H 0.54974 0.35052 0.58943 0.0
H770 H 0.52572 0.33654 0.67795 0.0
H771 H 0.55603 0.27974 0.67018 0.0
H772 H 0.58054 0.29341 0.58247 0.0
H773 H 0.58936 0.41698 0.35686 0.0
H774 H 0.59805 0.38176 0.36322 0.0
H775 H 0.60751 0.38674 0.59783 0.0
H776 H 0.59722 0.42178 0.59234 0.0
H777 H 0.58391 0.35959 0.58189 0.0
H778 H 0.64561 0.36635 0.47548 0.0
H779 H 0.67282 0.37908 0.3971 0.0
H780 H 0.64287 0.35677 0.20486 0.0
H781 H 0.6153 0.34421 0.28166 0.0
C782 C 0.56855 0.27888 0.34048 0.0
C783 C 0.54897 0.28577 0.32683 0.0
C784 C 0.58089 0.28908 0.39028 0.0
C785 C 0.57371 0.30618 0.42714 0.0
C786 C 0.55353 0.31184 0.41775 0.0
C787 C 0.5413 0.30169 0.36844 0.0
C788 C 0.5876 0.32069 0.46213 0.0
C789 C 0.60375 0.32771 0.41992 0.0
C790 C 0.58198 0.33132 0.52624 0.0
C791 C 0.56713 0.32306 0.57922 0.0
C792 C 0.5515 0.3351 0.60702 0.0
C793 C 0.53772 0.32721 0.65698 0.0
C794 C 0.53936 0.30728 0.67976 0.0
C795 C 0.55477 0.29518 0.65246 0.0
C796 C 0.5686 0.30299 0.60248 0.0
C797 C 0.59366 0.41069 0.40961 0.0
C798 C 0.59209 0.42207 0.47419 0.0
C799 C 0.59907 0.39052 0.41315 0.0
C800 C 0.60353 0.38138 0.48117 0.0
C801 C 0.60408 0.39333 0.54471 0.0
C802 C 0.59832 0.41347 0.54135 0.0
C803 C 0.60309 0.35914 0.48674 0.0
C804 C 0.58972 0.35058 0.53729 0.0
C805 C 0.61178 0.34684 0.43202 0.0
C806 C 0.62837 0.3542 0.38472 0.0
C807 C 0.64477 0.3642 0.41647 0.0
C808 C 0.66027 0.3714 0.37225 0.0
C809 C 0.65959 0.3687 0.29607 0.0
C810 C 0.64341 0.35878 0.26393 0.0
C811 C 0.62786 0.35154 0.30787 0.0
H812 H 0.6716 0.37431 0.26193 0.0
H813 H 0.52869 0.30121 0.7185 0.0
H814 H 0.24813 0.57209 0.24871 0.0
H815 H 0.231 0.57786 0.36483 0.0
H816 H 0.26342 0.52844 0.46293 0.0
H817 H 0.28039 0.52244 0.34596 0.0
H818 H 0.22511 0.52042 0.44605 0.0
H819 H 0.25991 0.5729 0.55813 0.0
H820 H 0.27857 0.60453 0.56854 0.0
H821 H 0.2266 0.63749 0.49751 0.0
H822 H 0.20769 0.60608 0.48547 0.0
H823 H 0.13057 0.51982 0.6017 0.0
H824 H 0.16693 0.52368 0.61252 0.0
H825 H 0.16378 0.57653 0.47535 0.0
H826 H 0.12729 0.57325 0.46835 0.0
H827 H 0.19459 0.57962 0.56706 0.0
H828 H 0.16858 0.52809 0.40063 0.0
H829 H 0.14937 0.49749 0.37323 0.0
H830 H 0.18506 0.4644 0.52891 0.0
H831 H 0.20433 0.49491 0.55772 0.0
C832 C 0.25223 0.56303 0.296 0.0
C833 C 0.2651 0.5465 0.28807 0.0
C834 C 0.24263 0.56649 0.36284 0.0
C835 C 0.24576 0.55342 0.42251 0.0
C836 C 0.26079 0.53869 0.41757 0.0
C837 C 0.27044 0.53525 0.35061 0.0
C838 C 0.22947 0.55127 0.47706 0.0
C839 C 0.21889 0.53317 0.47526 0.0
C840 C 0.22111 0.56798 0.51381 0.0
C841 C 0.23234 0.58705 0.52102 0.0
C842 C 0.25247 0.58687 0.54432 0.0
C843 C 0.2631 0.60478 0.55056 0.0
C844 C 0.25377 0.62301 0.53376 0.0
C845 C 0.23379 0.62336 0.5107 0.0
C846 C 0.22309 0.6055 0.50435 0.0
C847 C 0.1377 0.53253 0.57571 0.0
C848 C 0.12643 0.54606 0.53314 0.0
C849 C 0.15839 0.53473 0.5818 0.0
C850 C 0.16812 0.55009 0.54319 0.0
C851 C 0.1566 0.56454 0.50556 0.0
C852 C 0.13583 0.56261 0.50098 0.0
C853 C 0.19002 0.54929 0.53093 0.0
C854 C 0.20144 0.5667 0.54102 0.0
C855 C 0.19911 0.53213 0.4996 0.0
C856 C 0.18769 0.51377 0.48197 0.0
C857 C 0.17225 0.51429 0.42918 0.0
C858 C 0.16136 0.49698 0.41342 0.0
C859 C 0.16595 0.47903 0.44949 0.0
C860 C 0.18149 0.47833 0.50119 0.0
C861 C 0.19239 0.49562 0.51728 0.0
H862 H 0.1575 0.46564 0.43723 0.0
H863 H 0.26203 0.63685 0.53859 0.0
H864 H 0.9673 0.7613 0.10223 0.0
H865 H 0.95985 0.77798 0.98421 0.0
H866 H 0.01894 0.80408 0.98619 0.0
H867 H 0.02615 0.78768 0.10301 0.0
H868 H 0.95815 0.81761 0.98156 0.0
H869 H 0.03639 0.81516 0.82947 0.0
H870 H 0.05994 0.78937 0.78573 0.0
H871 H 1.0129 0.74575 0.78655 0.0
H872 H 0.98888 0.77134 0.82905 0.0
H873 H 0.02436 0.89313 0.96447 0.0
H874 H 1.01166 0.85909 0.95294 0.0
H875 H 0.97502 0.87702 0.76824 0.0
H876 H 0.98738 0.91146 0.78035 0.0
H877 H 1.00804 0.83408 0.78936 0.0
H878 H 0.9431 0.86425 0.8326 0.0
H879 H 0.92145 0.89096 0.88296 0.0
H880 H 0.94306 0.87812 0.10088 0.0
H881 H 0.96502 0.85148 0.05149 0.0
C882 C 0.97881 0.77011 0.0757 0.0
C883 C 0.99719 0.7735 0.11115 0.0
C884 C 0.97461 0.7795 0.00843 0.0
C885 C 0.98891 0.79205 0.97576 0.0
C886 C 1.00783 0.79408 0.00906 0.0
C887 C 1.01189 0.78495 0.0763 0.0
C888 C 0.98319 0.80666 0.91809 0.0
C889 C 0.96846 0.82081 0.93703 0.0
C890 C 0.99623 0.81067 0.8586 0.0
C891 C 1.01071 0.79528 0.83212 0.0
C892 C 0.03093 0.80016 0.81946 0.0
C893 C 0.04441 0.78553 0.79512 0.0
C894 C 0.03792 0.76594 0.78326 0.0
C895 C 0.01792 0.76093 0.79577 0.0
C896 C 1.00436 0.77549 0.82007 0.0
C897 C 1.01375 0.88984 0.92097 0.0
C898 C 1.00696 0.9049 0.87305 0.0
C899 C 1.00652 0.87044 0.91445 0.0
C900 C 0.99254 0.86568 0.85952 0.0
C901 C 0.98584 0.88051 0.81078 0.0
C902 C 0.99288 0.9001 0.81799 0.0
C903 C 0.9845 0.84524 0.8586 0.0
C904 C 0.9967 0.83013 0.82934 0.0
C905 C 0.96908 0.84023 0.90808 0.0
C906 C 0.9556 0.85586 0.93843 0.0
C907 C 0.94324 0.86716 0.89123 0.0
C908 C 0.93092 0.88227 0.91957 0.0
C909 C 0.93085 0.8862 0.9951 0.0
C910 C 0.94308 0.875 0.04245 0.0
C911 C 0.95541 0.85986 0.01435 0.0
H912 H 0.92134 0.89793 0.01693 0.0
H913 H 0.04839 0.75464 0.76447 0.0
H914 H 0.73582 0.95921 0.21887 0.0
H915 H 0.71676 0.94523 0.11888 0.0
H916 H 0.75486 0.9753 0.9619 0.0
H917 H 0.77281 0.99114 0.0635 0.0
H918 H 0.72159 0.98426 0.92501 0.0
H919 H 0.74488 0.92037 0.95857 0.0
H920 H 0.75804 0.88962 0.01659 0.0
H921 H 0.70169 0.88039 0.12465 0.0
H922 H 0.68825 0.91123 0.06859 0.0
H923 H 0.62293 0.98157 0.80837 0.0
H924 H 0.65593 0.96549 0.79664 0.0
H925 H 0.65548 0.95195 0.02886 0.0
H926 H 0.62235 0.9672 0.0401 0.0
H927 H 0.67837 0.92455 0.95201 0.0
H928 H 0.67103 1.00218 0.94956 0.0
H929 H 0.65977 0.03201 0.87968 0.0
H930 H 0.68996 1.01022 0.68702 0.0
H931 H 0.7012 0.98022 0.75571 0.0
C932 C 0.7403 0.96276 0.16309 0.0
C933 C 0.75535 0.9769 0.14935 0.0
C934 C 0.72966 0.95425 0.10525 0.0
C935 C 0.73425 0.95903 0.03177 0.0
C936 C 0.75082 0.97143 0.01784 0.0
C937 C 0.76119 0.98041 0.07611 0.0
C938 C 0.71916 0.95471 0.97329 0.0
C939 C 0.71269 0.97076 0.92886 0.0
C940 C 0.70766 0.9369 0.97436 0.0
C941 C 0.7155 0.91817 0.00872 0.0
C942 C 0.73528 0.91185 0.9949 0.0
C943 C 0.7428 0.89438 0.02753 0.0
C944 C 0.73069 0.88303 0.07414 0.0
C945 C 0.71103 0.88914 0.08826 0.0
C946 C 0.70342 0.9066 0.0558 0.0
C947 C 0.6297 0.97458 0.85628 0.0
C948 C 0.62043 0.97595 0.92555 0.0
C949 C 0.64846 0.96537 0.84941 0.0
C950 C 0.65838 0.95801 0.91207 0.0
C951 C 0.64815 0.95756 0.97963 0.0
C952 C 0.62926 0.96639 0.98627 0.0
C953 C 0.68037 0.95484 0.91279 0.0
C954 C 0.68811 0.93737 0.94535 0.0
C955 C 0.69347 0.97093 0.89802 0.0
C956 C 0.68691 0.98906 0.85756 0.0
C957 C 0.67528 1.00383 0.89236 0.0
C958 C 0.66887 0.02071 0.85293 0.0
C959 C 0.6742 0.02302 0.77901 0.0
C960 C 0.68586 1.00842 0.74424 0.0
C961 C 0.69224 0.99149 0.78336 0.0
H962 H 0.66933 0.03614 0.74867 0.0
H963 H 0.73655 0.86952 0.0994 0.0
H964 H 0.45611 0.76313 0.21496 0.0
H965 H 0.43746 0.7431 0.1254 0.0
H966 H 0.49112 0.73662 0.99522 0.0
H967 H 0.50934 0.75747 0.08239 0.0
H968 H 0.45965 0.73086 0.90948 0.0
H969 H 0.4833 0.70145 0.14639 0.0
H970 H 0.4852 0.69946 0.28182 0.0
H971 H 0.42094 0.70123 0.29472 0.0
H972 H 0.41874 0.70265 0.15891 0.0
H973 H 0.49865 0.6342 0.91548 0.0
H974 H 0.48743 0.66893 0.92634 0.0
H975 H 0.42589 0.64957 0.92918 0.0
H976 H 0.43708 0.61455 0.91754 0.0
H977 H 0.44435 0.67096 0.06078 0.0
H978 H 0.42828 0.68148 0.81046 0.0
H979 H 0.43154 0.67994 0.67537 0.0
H980 H 0.48727 0.71162 0.68757 0.0
H981 H 0.48437 0.71335 0.82277 0.0
C982 C 0.46352 0.75834 0.16494 0.0
C983 C 0.48412 0.7616 0.15541 0.0
C984 C 0.45294 0.74677 0.11418 0.0
C985 C 0.46308 0.73777 0.05509 0.0
C986 C 0.48298 0.74329 0.04058 0.0
C987 C 0.49342 0.75523 0.0904 0.0
C988 C 0.455 0.71957 0.01926 0.0
C989 C 0.45599 0.7178 0.94229 0.0
C990 C 0.44973 0.70259 0.06182 0.0
C991 C 0.45087 0.70244 0.14308 0.0
C992 C 0.4696 0.7015 0.17831 0.0
C993 C 0.47073 0.70038 0.25502 0.0
C994 C 0.4532 0.70042 0.29698 0.0
C995 C 0.4345 0.70131 0.26218 0.0
C996 C 0.4333 0.70216 0.18536 0.0
C997 C 0.48272 0.63736 0.91735 0.0
C998 C 0.46873 0.62173 0.91684 0.0
C999 C 0.47632 0.65719 0.92241 0.0
C1000 C 0.45584 0.66178 0.92705 0.0
C1001 C 0.44174 0.6463 0.92381 0.0
C1002 C 0.44814 0.62637 0.91775 0.0
C1003 C 0.45012 0.68201 0.9517 0.0
C1004 C 0.44672 0.6842 0.02717 0.0
C1005 C 0.45379 0.69909 0.90788 0.0
C1006 C 0.45608 0.69754 0.82685 0.0
C1007 C 0.44128 0.68805 0.7844 0.0
C1008 C 0.443 0.68725 0.70774 0.0
C1009 C 0.45954 0.69579 0.67289 0.0
C1010 C 0.47441 0.70512 0.71463 0.0
C1011 C 0.4727 0.70606 0.79127 0.0
H1012 H 0.4609 0.69507 0.61359 0.0
H1013 H 0.4541 0.69965 0.35641 0.0
H1014 H 0.79263 0.56198 0.1622 0.0
H1015 H 0.80901 0.55954 0.04315 0.0
H1016 H 0.77003 0.51077 0.98316 0.0
H1017 H 0.75389 0.51288 0.10349 0.0
H1018 H 0.80701 0.49869 0.99153 0.0
H1019 H 0.77605 0.55073 0.86221 0.0
H1020 H 0.76054 0.58366 0.83804 0.0
H1021 H 0.81672 0.61256 0.88013 0.0
H1022 H 0.83254 0.57989 0.90581 0.0
H1023 H 0.90032 0.48585 0.81395 0.0
H1024 H 0.86418 0.4925 0.80773 0.0
H1025 H 0.87177 0.54374 0.94919 0.0
H1026 H 0.90772 0.53725 0.95548 0.0
H1027 H 0.84166 0.54951 0.83953 0.0
H1028 H 0.86253 0.50019 0.031 0.0
H1029 H 0.8787 0.4684 0.06817 0.0
H1030 H 0.84148 0.43626 0.91611 0.0
H1031 H 0.82517 0.46794 0.87791 0.0
C1032 C 0.7871 0.55121 0.12261 0.0
C1033 C 0.77239 0.5373 0.1426 0.0
C1034 C 0.79626 0.55 0.05393 0.0
C1035 C 0.79081 0.53488 1.00412 0.0
C1036 C 0.77443 0.52256 0.02067 0.0
C1037 C 0.76524 0.52378 0.08952 0.0
C1038 C 0.80552 0.52873 0.94751 0.0
C1039 C 0.81404 0.50958 0.95561 0.0
C1040 C 0.81487 0.5429 0.90107 0.0
C1041 C 0.80551 0.56275 0.88583 0.0
C1042 C 0.7851 0.5641 0.86675 0.0
C1043 C 0.77624 0.58274 0.85273 0.0
C1044 C 0.78764 0.60018 0.85748 0.0
C1045 C 0.80792 0.59902 0.87628 0.0
C1046 C 0.81685 0.58042 0.89038 0.0
C1047 C 0.89425 0.49863 0.84313 0.0
C1048 C 0.90671 0.51083 0.88637 0.0
C1049 C 0.8737 0.50254 0.83873 0.0
C1050 C 0.86538 0.51859 0.87802 0.0
C1051 C 0.87797 0.53141 0.91778 0.0
C1052 C 0.89848 0.52761 0.92173 0.0
C1053 C 0.84354 0.52029 0.88904 0.0
C1054 C 0.83386 0.53841 0.87206 0.0
C1055 C 0.83313 0.50535 0.92832 0.0
C1056 C 0.84284 0.48636 0.95109 0.0
C1057 C 0.8579 0.48633 0.00532 0.0
C1058 C 0.86706 0.46835 0.02659 0.0
C1059 C 0.86117 0.45032 0.99432 0.0
C1060 C 0.84606 0.45024 0.9409 0.0
C1061 C 0.83684 0.46819 0.91945 0.0
H1062 H 0.86828 0.43642 0.01084 0.0
H1063 H 0.78075 0.6146 0.84662 0.0
H1064 H 0.98125 0.22637 0.02434 0.0
H1065 H 0.98547 0.19415 0.96316 0.0
H1066 H 0.04949 0.20212 0.96264 0.0
H1067 H 0.04538 0.23448 0.02617 0.0
H1068 H 0.03332 0.18428 0.82802 0.0
H1069 H 0.03256 0.17394 0.08894 0.0
H1070 H 0.01934 0.17808 0.21462 0.0
H1071 H 0.96425 0.15016 0.1499 0.0
H1072 H 0.97706 0.14603 0.02348 0.0
H1073 H 0.03519 0.06662 0.88195 0.0
H1074 H 0.03538 0.10066 0.93122 0.0
H1075 H 1.00704 0.12236 0.73271 0.0
H1076 H 1.00753 0.08847 0.682 0.0
H1077 H 1.00862 0.12581 0.96969 0.0
H1078 H 0.01784 0.17155 0.70147 0.0
H1079 H 0.03228 0.1675 0.57742 0.0
H1080 H 0.07437 0.12428 0.66149 0.0
H1081 H 0.06038 0.12828 0.78617 0.0
C1082 C 0.99629 0.22142 0.0109 0.0
C1083 C 1.013 0.23302 0.03141 0.0
C1084 C 0.99865 0.20294 0.97563 0.0
C1085 C 0.0178 0.19546 0.95902 0.0
C1086 C 0.03454 0.20751 0.97495 0.0
C1087 C 0.03217 0.22608 0.01102 0.0
C1088 C 0.02008 0.17457 0.92969 0.0
C1089 C 0.02798 0.17148 0.85898 0.0
C1090 C 1.01336 0.15773 0.97021 0.0
C1091 C 1.00571 0.15984 0.04652 0.0
C1092 C 0.01757 0.16881 0.10135 0.0
C1093 C 1.01015 0.17115 0.17274 0.0
C1094 C 0.99093 0.16448 0.19016 0.0
C1095 C 0.97912 0.15535 0.13629 0.0
C1096 C 0.98647 0.15297 0.06477 0.0
C1097 C 0.0291 0.07863 0.84843 0.0
C1098 C 0.0215 0.07466 0.77756 0.0
C1099 C 0.02915 0.09819 0.87691 0.0
C1100 C 0.02151 0.11442 0.83569 0.0
C1101 C 1.01354 0.1104 0.76536 0.0
C1102 C 1.01373 0.09087 0.73643 0.0
C1103 C 0.02164 0.13533 0.86698 0.0
C1104 C 1.01409 0.13849 0.93837 0.0
C1105 C 0.02893 0.15217 0.82726 0.0
C1106 C 0.0379 0.15006 0.753 0.0
C1107 C 0.03024 0.16126 0.69353 0.0
C1108 C 0.03834 0.15896 0.62311 0.0
C1109 C 0.05417 0.14557 0.61154 0.0
C1110 C 0.06205 0.13457 0.67047 0.0
C1111 C 0.05404 0.13685 0.74103 0.0
H1112 H 0.06037 0.14376 0.55694 0.0
H1113 H 0.9852 0.16635 0.24545 0.0
H1114 H 0.30176 1.00658 0.03214 0.0
H1115 H 0.33509 1.00324 0.97646 0.0
H1116 H 0.33605 0.06698 0.93692 0.0
H1117 H 0.30371 0.07039 0.99886 0.0
H1118 H 0.3548 1.00753 0.86176 0.0
H1119 H 0.38108 0.08697 0.94713 0.0
H1120 H 0.37385 0.11204 0.04329 0.0
H1121 H 0.3533 0.06557 0.18782 0.0
H1122 H 0.36076 0.04018 0.09311 0.0
H1123 H 0.4511 0.0231 0.69874 0.0
H1124 H 0.41599 0.02587 0.73686 0.0
H1125 H 0.43481 0.03177 0.96305 0.0
H1126 H 0.46979 0.02983 0.92504 0.0
H1127 H 0.40627 0.05556 0.94669 0.0
H1128 H 0.41547 0.98781 0.88001 0.0
H1129 H 0.42373 0.95864 0.80282 0.0
H1130 H 0.37561 0.97374 0.65528 0.0
H1131 H 0.36735 1.00332 0.73072 0.0
C1132 C 0.30903 0.01981 0.01077 0.0
C1133 C 0.30019 0.03876 0.02068 0.0
C1134 C 0.32816 0.01793 0.97872 0.0
C1135 C 0.33874 0.03494 0.95439 0.0
C1136 C 0.32887 0.05364 0.95783 0.0
C1137 C 0.31012 0.05557 0.99204 0.0
C1138 C 0.36028 0.03336 0.92929 0.0
C1139 C 0.36601 0.01809 0.88019 0.0
C1140 C 0.37535 0.04665 0.95472 0.0
C1141 C 0.37129 0.06173 0.01273 0.0
C1142 C 0.37514 0.0821 0.99961 0.0
C1143 C 0.37099 0.09635 0.05384 0.0
C1144 C 0.36307 0.09039 0.12154 0.0
C1145 C 0.3594 0.07015 0.13533 0.0
C1146 C 0.36359 0.05583 0.08142 0.0
C1147 C 0.44779 0.02508 0.75663 0.0
C1148 C 0.46348 0.02626 0.80868 0.0
C1149 C 0.42759 0.02653 0.77855 0.0
C1150 C 0.42242 0.02878 0.85334 0.0
C1151 C 0.43812 0.03013 0.90503 0.0
C1152 C 0.45827 0.02896 0.88311 0.0
C1153 C 0.40084 0.02984 0.87828 0.0
C1154 C 0.39509 0.04503 0.92763 0.0
C1155 C 0.38603 1.01586 0.85575 0.0
C1156 C 0.39109 0.99811 0.81008 0.0
C1157 C 0.40683 0.98512 0.83049 0.0
C1158 C 0.41149 0.96846 0.78715 0.0
C1159 C 0.40029 0.96441 0.72389 0.0
C1160 C 0.38433 0.97694 0.70412 0.0
C1161 C 0.37971 0.9937 0.74699 0.0
H1162 H 0.40391 0.95151 0.69042 0.0
H1163 H 0.35982 0.10146 0.16336 0.0
H1164 H 0.50283 0.32339 0.17948 0.0
H1165 H 0.49956 0.35259 0.10018 0.0
H1166 H 0.52047 0.31786 0.91535 0.0
H1167 H 0.52463 0.28852 0.99648 0.0
H1168 H 0.53923 0.35172 0.9153 0.0
H1169 H 0.47033 0.33612 0.93042 0.0
H1170 H 0.43818 0.32708 0.98789 0.0
H1171 H 0.43857 0.38183 0.11148 0.0
H1172 H 0.47088 0.39108 0.05561 0.0
H1173 H 0.52304 0.4399 0.69285 0.0
H1174 H 0.52062 0.40589 0.74256 0.0
H1175 H 0.5052 0.42992 0.95523 0.0
H1176 H 0.50728 0.46387 0.90595 0.0
H1177 H 0.48162 0.39887 0.92234 0.0
H1178 H 0.55308 0.41216 0.90913 0.0
H1179 H 0.58438 0.42052 0.84431 0.0
H1180 H 0.57784 0.36856 0.7077 0.0
H1181 H 0.54626 0.36015 0.77046 0.0
C1182 C 0.50644 0.32182 0.12165 0.0
C1183 C 0.51406 0.30358 0.0945 0.0
C1184 C 0.50442 0.33858 0.07595 0.0
C1185 C 0.50957 0.3376 1.00105 0.0
C1186 C 0.51636 0.31912 0.9728 0.0
C1187 C 0.51851 0.30225 0.01899 0.0
C1188 C 0.50913 0.35628 0.95475 0.0
C1189 C 0.52643 0.3618 0.91567 0.0
C1190 C 0.49257 0.36971 0.95519 0.0
C1191 C 0.47312 0.36423 0.9891 0.0
C1192 C 0.46364 0.34617 0.97026 0.0
C1193 C 0.44537 0.34102 1.0025 0.0
C1194 C 0.43636 0.35385 0.0534 0.0
C1195 C 0.44558 0.37189 0.07207 0.0
C1196 C 0.46386 0.37711 0.04004 0.0
C1197 C 0.5191 0.438 0.75023 0.0
C1198 C 0.51541 0.4548 0.79524 0.0
C1199 C 0.5178 0.41846 0.77871 0.0
C1200 C 0.51292 0.4152 0.85307 0.0
C1201 C 0.50899 0.43193 0.89774 0.0
C1202 C 0.51026 0.45143 0.86938 0.0
C1203 C 0.5119 0.3945 0.88505 0.0
C1204 C 0.49429 0.38863 0.92134 0.0
C1205 C 0.52806 0.38066 0.88104 0.0
C1206 C 0.54715 0.38568 0.8438 0.0
C1207 C 0.55821 0.40263 0.86474 0.0
C1208 C 0.57601 0.40738 0.82834 0.0
C1209 C 0.58303 0.39516 0.7715 0.0
C1210 C 0.57232 0.3781 0.75124 0.0
C1211 C 0.55446 0.37334 0.7872 0.0
H1212 H 0.59681 0.39885 0.74337 0.0
H1213 H 0.42221 0.34984 0.07828 0.0
H1214 H 0.2286 0.55438 0.0612 0.0
H1215 H 0.1965 0.55009 0.99973 0.0
H1216 H 0.21168 0.48857 0.95267 0.0
H1217 H 0.24372 0.49261 0.01814 0.0
H1218 H 0.18239 0.5433 0.87565 0.0
H1219 H 0.16961 0.45976 0.94757 0.0
H1220 H 0.17914 0.43528 0.0436 0.0
H1221 H 0.18789 0.48305 0.19812 0.0
H1222 H 0.17822 0.50778 0.10327 0.0
H1223 H 0.09317 0.5138 0.69024 0.0
H1224 H 0.12753 0.51547 0.73697 0.0
H1225 H 0.10598 0.50671 0.95809 0.0
H1226 H 0.07163 0.50449 0.91167 0.0
H1227 H 0.13864 0.48666 0.94597 0.0
H1228 H 0.11932 0.55259 0.88273 0.0
H1229 H 0.1073 0.58075 0.80664 0.0
H1230 H 0.15917 0.57556 0.66884 0.0
H1231 H 0.17104 0.54662 0.74162 0.0
C1232 C 0.22521 0.53989 0.03765 0.0
C1233 C 0.23876 0.52376 0.04595 0.0
C1234 C 0.20676 0.53748 1.00185 0.0
C1235 C 0.20117 0.51888 0.9723 0.0
C1236 C 0.21522 0.503 0.97632 0.0
C1237 C 0.23375 0.50538 0.01293 0.0
C1238 C 0.18046 0.51627 0.93996 0.0
C1239 C 0.17293 0.53078 0.89057 0.0
C1240 C 0.16761 0.50035 0.96072 0.0
C1241 C 0.17344 0.4856 0.01804 0.0
C1242 C 0.17355 0.46502 1.00207 0.0
C1243 C 0.17898 0.45111 0.05628 0.0
C1244 C 0.1842 0.45761 0.12682 0.0
C1245 C 0.18394 0.47804 0.14338 0.0
C1246 C 0.17851 0.49201 0.08939 0.0
C1247 C 0.09567 0.51212 0.74888 0.0
C1248 C 0.0794 0.50903 0.79703 0.0
C1249 C 0.11544 0.51318 0.77563 0.0
C1250 C 0.11959 0.51148 0.85144 0.0
C1251 C 0.1034 0.50806 0.8994 0.0
C1252 C 0.08364 0.50686 0.87267 0.0
C1253 C 0.14064 0.51358 0.88095 0.0
C1254 C 0.14819 0.49901 0.92999 0.0
C1255 C 0.15321 0.52994 0.86216 0.0
C1256 C 0.14587 0.54707 0.81691 0.0
C1257 C 0.12798 0.55713 0.83527 0.0
C1258 C 0.12117 0.57323 0.7926 0.0
C1259 C 0.13234 0.57976 0.73232 0.0
C1260 C 0.15039 0.57026 0.71483 0.0
C1261 C 0.15712 0.55394 0.75659 0.0
H1262 H 0.1271 0.5923 0.69954 0.0
H1263 H 0.18839 0.44682 0.16869 0.0
H1264 H 0.97613 0.79543 0.38208 0.0
H1265 H 0.97741 0.82772 0.44603 0.0
H1266 H 0.04187 0.82706 0.43135 0.0
H1267 H 0.04053 0.79455 0.36792 0.0
H1268 H 0.02937 0.84433 0.56199 0.0
H1269 H 1.0142 0.85146 0.30386 0.0
H1270 H 0.99477 0.8438 0.19176 0.0
H1271 H 0.9415 0.86718 0.29283 0.0
H1272 H 0.96053 0.87465 0.40605 0.0
H1273 H 0.01838 0.96074 0.48658 0.0
H1274 H 0.01768 0.926 0.44429 0.0
H1275 H 1.00481 0.90628 0.66508 0.0
H1276 H 1.00663 0.94093 0.70842 0.0
H1277 H 0.99251 0.89858 0.43193 0.0
H1278 H 0.01863 0.85784 0.69482 0.0
H1279 H 0.03863 0.86418 0.8067 0.0
H1280 H 0.0725 0.90878 0.69144 0.0
H1281 H 0.05318 0.90219 0.57815 0.0
C1282 C 0.9906 0.80182 0.39502 0.0
C1283 C 1.00824 0.79222 0.37136 0.0
C1284 C 0.99133 0.82044 0.43083 0.0
C1285 C 1.00973 0.83014 0.44285 0.0
C1286 C 0.02747 0.81999 0.42306 0.0
C1287 C 0.02673 0.80131 0.38722 0.0
C1288 C 1.01031 0.85145 0.46992 0.0
C1289 C 0.02129 0.85619 0.53363 0.0
C1290 C 1.00002 0.86714 0.43277 0.0
C1291 C 0.98875 0.86344 0.36366 0.0
C1292 C 0.99833 0.85491 0.30224 0.0
C1293 C 0.98739 0.85059 0.23854 0.0
C1294 C 0.9669 0.85493 0.23536 0.0
C1295 C 0.95736 0.86379 0.29552 0.0
C1296 C 0.96821 0.86808 0.35944 0.0
C1297 C 1.0154 0.94902 0.52633 0.0
C1298 C 1.01267 0.95377 0.60116 0.0
C1299 C 1.01497 0.92904 0.50196 0.0
C1300 C 1.01155 0.91313 0.55141 0.0
C1301 C 1.00809 0.91798 0.6258 0.0
C1302 C 1.00897 0.93792 0.65054 0.0
C1303 C 1.01152 0.89167 0.52478 0.0
C1304 C 1.00063 0.88684 0.46076 0.0
C1305 C 0.02208 0.87596 0.56141 0.0
C1306 C 0.03432 0.87963 0.62827 0.0
C1307 C 0.03047 0.86887 0.69325 0.0
C1308 C 0.04165 0.87253 0.75691 0.0
C1309 C 0.05669 0.887 0.75639 0.0
C1310 C 0.06077 0.89764 0.69187 0.0
C1311 C 0.04976 0.8939 0.62782 0.0
H1312 H 0.06524 0.88991 0.80589 0.0
H1313 H 0.9584 0.85139 0.18639 0.0
H1314 H 0.72619 0.03513 0.31139 0.0
H1315 H 0.69645 0.03827 0.38954 0.0
H1316 H 0.72152 0.99489 0.54036 0.0
H1317 H 0.75135 0.9918 0.46173 0.0
H1318 H 0.68421 0.98481 0.5057 0.0
H1319 H 0.71501 0.04416 0.59273 0.0
H1320 H 0.73207 0.07677 0.5847 0.0
H1321 H 0.68124 0.10188 0.47155 0.0
H1322 H 0.66398 0.06934 0.47799 0.0
H1323 H 0.59919 0.02882 0.75578 0.0
H1324 H 0.63389 0.02885 0.7118 0.0
H1325 H 0.61468 1.00319 0.50613 0.0
H1326 H 0.57996 1.00333 0.54927 0.0
H1327 H 0.65154 0.04763 0.58943 0.0
H1328 H 0.65135 0.96861 0.4543 0.0
H1329 H 0.6355 0.93575 0.47427 0.0
H1330 H 0.62747 0.9495 0.70314 0.0
H1331 H 0.64358 0.98231 0.68467 0.0
C1332 C 0.72567 0.02685 0.3627 0.0
C1333 C 0.74134 1.0136 0.38134 0.0
C1334 C 0.70858 0.02855 0.4073 0.0
C1335 C 0.70659 0.01688 0.47145 0.0
C1336 C 0.72259 1.00412 0.49145 0.0
C1337 C 0.73979 1.00255 0.44702 0.0
C1338 C 0.68722 0.01683 0.51366 0.0
C1339 C 0.67715 0.99858 0.52401 0.0
C1340 C 0.67797 0.03467 0.53945 0.0
C1341 C 0.68828 0.05426 0.53529 0.0
C1342 C 0.70754 0.05659 0.56558 0.0
C1343 C 0.71723 0.07507 0.56143 0.0
C1344 C 0.70777 0.09137 0.52748 0.0
C1345 C 0.68857 0.08923 0.49776 0.0
C1346 C 0.67881 0.07078 0.50173 0.0
C1347 C 0.60233 0.0231 0.70128 0.0
C1348 C 0.58666 1.01603 0.65629 0.0
C1349 C 0.62223 0.02324 0.67599 0.0
C1350 C 0.62706 1.01595 0.60559 0.0
C1351 C 0.61146 1.00879 0.56078 0.0
C1352 C 0.59154 1.00893 0.58557 0.0
C1353 C 0.6483 1.01574 0.57851 0.0
C1354 C 0.65867 0.0339 0.57109 0.0
C1355 C 0.65798 0.99779 0.55644 0.0
C1356 C 0.64851 0.97798 0.56797 0.0
C1357 C 0.6463 0.96458 0.50895 0.0
C1358 C 0.63726 0.94597 0.51999 0.0
C1359 C 0.63044 0.94056 0.5899 0.0
C1360 C 0.63271 0.95373 0.64898 0.0
C1361 C 0.64177 0.97233 0.63824 0.0
H1362 H 0.62343 0.92616 0.5983 0.0
H1363 H 0.71529 0.10567 0.52433 0.0
H1364 H 0.54662 0.73583 0.38964 0.0
H1365 H 0.54953 0.70369 0.45389 0.0
H1366 H 0.48513 0.69803 0.45185 0.0
H1367 H 0.48216 0.73083 0.3952 0.0
H1368 H 0.49491 0.67997 0.55977 0.0
H1369 H 0.52014 0.67532 0.31664 0.0
H1370 H 0.54107 0.68363 0.20926 0.0
H1371 H 0.59409 0.66799 0.33134 0.0
H1372 H 0.57346 0.65982 0.43984 0.0
H1373 H 0.5234 0.56656 0.50509 0.0
H1374 H 0.52253 0.60085 0.45702 0.0
H1375 H 0.52287 0.62377 0.67885 0.0
H1376 H 0.52304 0.58967 0.72707 0.0
H1377 H 0.54462 0.63218 0.45723 0.0
H1378 H 0.49562 0.66469 0.69569 0.0
H1379 H 0.4684 0.65322 0.77634 0.0
H1380 H 0.45277 0.60765 0.62095 0.0
H1381 H 0.47936 0.61934 0.53751 0.0
C1382 C 0.53306 0.72805 0.40509 0.0
C1383 C 0.51416 0.73584 0.38529 0.0
C1384 C 0.53474 0.70937 0.44062 0.0
C1385 C 0.5176 0.69772 0.45527 0.0
C1386 C 0.49871 0.70629 0.44073 0.0
C1387 C 0.49703 0.72513 0.40735 0.0
C1388 C 0.51916 0.6764 0.48234 0.0
C1389 C 0.50588 0.66967 0.53717 0.0
C1390 C 0.53281 0.66232 0.45157 0.0
C1391 C 0.54528 0.66718 0.38657 0.0
C1392 C 0.53627 0.67377 0.32071 0.0
C1393 C 0.54808 0.67844 0.25965 0.0
C1394 C 0.5689 0.67639 0.26355 0.0
C1395 C 0.57796 0.66961 0.32847 0.0
C1396 C 0.56622 0.66495 0.38976 0.0
C1397 C 0.52333 0.57889 0.5437 0.0
C1398 C 0.52312 0.57524 0.62009 0.0
C1399 C 0.52292 0.59856 0.51605 0.0
C1400 C 0.52235 0.61507 0.56404 0.0
C1401 C 0.52284 0.61141 0.64033 0.0
C1402 C 0.52301 0.5918 0.66795 0.0
C1403 C 0.52062 0.63606 0.53494 0.0
C1404 C 0.53378 0.64264 0.4798 0.0
C1405 C 0.50594 0.64962 0.5615 0.0
C1406 C 0.48961 0.64282 0.61072 0.0
C1407 C 0.48631 0.65231 0.6785 0.0
C1408 C 0.47102 0.6457 0.72484 0.0
C1409 C 0.45898 0.62959 0.70438 0.0
C1410 C 0.46211 0.62011 0.63693 0.0
C1411 C 0.47726 0.62675 0.58995 0.0
H1412 H 0.44719 0.62453 0.74063 0.0
H1413 H 0.57802 0.68002 0.21621 0.0
H1414 H 0.80297 0.55825 0.38855 0.0
H1415 H 0.8354 0.55559 0.45141 0.0
H1416 H 0.82599 0.49232 0.48299 0.0
H1417 H 0.79335 0.49505 0.42012 0.0
H1418 H 0.85032 0.5444 0.58333 0.0
H1419 H 0.87138 0.46834 0.44968 0.0
H1420 H 0.8635 0.44884 0.33805 0.0
H1421 H 0.84758 0.50296 0.22351 0.0
H1422 H 0.85562 0.52278 0.33404 0.0
H1423 H 0.94376 0.51041 0.73662 0.0
H1424 H 0.90892 0.51253 0.69445 0.0
H1425 H 0.92921 0.52347 0.47302 0.0
H1426 H 0.96403 0.52147 0.51479 0.0
H1427 H 0.89919 0.49763 0.46961 0.0
H1428 H 0.91119 0.56065 0.57901 0.0
H1429 H 0.92156 0.58438 0.67537 0.0
H1430 H 0.87416 0.56388 0.81497 0.0
H1431 H 0.86388 0.53936 0.7205 0.0
C1432 C 0.80756 0.54388 0.41086 0.0
C1433 C 0.79545 0.52691 0.40006 0.0
C1434 C 0.82617 0.54235 0.4467 0.0
C1435 C 0.83342 0.52372 0.4716 0.0
C1436 C 0.82091 0.50687 0.46396 0.0
C1437 C 0.80212 0.50845 0.42871 0.0
C1438 C 0.85455 0.52183 0.5002 0.0
C1439 C 0.86091 0.53397 0.55905 0.0
C1440 C 0.86877 0.50879 0.46718 0.0
C1441 C 0.86385 0.49699 0.40051 0.0
C1442 C 0.86621 0.47606 0.40065 0.0
C1443 C 0.86173 0.46497 0.33755 0.0
C1444 C 0.85497 0.47465 0.27382 0.0
C1445 C 0.85273 0.49547 0.273 0.0
C1446 C 0.85721 0.50663 0.3359 0.0
C1447 C 0.94087 0.5134 0.67902 0.0
C1448 C 0.9569 0.51593 0.62947 0.0
C1449 C 0.92084 0.51459 0.65486 0.0
C1450 C 0.91623 0.51825 0.58034 0.0
C1451 C 0.93221 0.52057 0.5307 0.0
C1452 C 0.95222 0.51953 0.55489 0.0
C1453 C 0.89486 0.51982 0.55403 0.0
C1454 C 0.8885 0.50773 0.49516 0.0
C1455 C 0.88085 0.53336 0.58556 0.0
C1456 C 0.88695 0.54793 0.64299 0.0
C1457 C 0.90313 0.56095 0.63068 0.0
C1458 C 0.909 0.57452 0.685 0.0
C1459 C 0.89861 0.57547 0.75151 0.0
C1460 C 0.88228 0.5629 0.76371 0.0
C1461 C 0.87645 0.54913 0.70986 0.0
H1462 H 0.90313 0.58603 0.79344 0.0
H1463 H 0.85153 0.46604 0.22501 0.0
loop_
_geom_bond_atom_site_label_1
_geom_bond_atom_site_label_2
_geom_bond_distance
_geom_bond_site_symmetry_2
_ccdc_geom_bond_type
H0 C7 0.929 . S
H1 C10 0.930 . S
H2 C12 0.929 . S
H3 C4 0.969 . S
C4 H3 0.969 . S
C4 O5 1.550 . S
C4 H6 0.973 . S
O5 C4 1.550 . S
O5 C11 1.412 . S
H6 C4 0.973 . S
C7 H0 0.929 . S
C7 C8 1.400 . S
C7 C9 1.364 . S
C8 C7 1.400 . S
C8 C12 1.377 . S
C9 C7 1.364 . S
C9 C10 1.374 . S
C10 H1 0.930 . S
C10 C9 1.374 . S
C10 C11 1.383 . S
C11 O5 1.412 . S
C11 C10 1.383 . S
C11 C12 1.394 . S
C12 H2 0.929 . S
C12 C8 1.377 . S
C12 C11 1.394 . S
H13 C20 0.928 . S
H14 C23 0.930 . S
H15 C25 0.928 1_655 S
H16 C17 0.969 . S
C17 H16 0.969 . S
C17 O18 1.550 1_455 S
C17 H19 0.973 1_455 S
O18 C17 1.550 1_655 S
O18 C24 1.406 1_655 S
H19 C17 0.973 1_655 S
C20 H13 0.928 . S
C20 C21 1.400 1_655 S
C20 C22 1.364 1_655 S
C21 C20 1.400 1_455 S
C21 C25 1.377 . S
C22 C20 1.364 1_455 S
C22 C23 1.374 1_455 S
C23 H14 0.930 . S
C23 C22 1.374 1_655 S
C23 C24 1.382 1_655 S
C24 O18 1.406 1_455 S
C24 C23 1.382 1_455 S
C24 C25 1.394 . S
C25 H15 0.928 1_455 S
C25 C21 1.377 . S
C25 C24 1.394 . S
H26 C33 0.928 . S
H27 C36 0.930 . S
H28 C38 0.928 1_565 S
H29 C30 0.969 . S
C30 H29 0.969 . S
C30 O31 1.550 1_545 S
C30 H32 0.973 1_545 S
O31 C30 1.550 1_565 S
O31 C37 1.406 1_565 S
H32 C30 0.973 1_565 S
C33 H26 0.928 . S
C33 C34 1.400 1_565 S
C33 C35 1.364 1_565 S
C34 C33 1.400 1_545 S
C34 C38 1.377 . S
C35 C33 1.364 1_545 S
C35 C36 1.374 1_545 S
C36 H27 0.930 . S
C36 C35 1.374 1_565 S
C36 C37 1.382 1_565 S
C37 O31 1.406 1_545 S
C37 C36 1.382 1_545 S
C37 C38 1.394 . S
C38 H28 0.928 1_545 S
C38 C34 1.377 . S
C38 C37 1.394 . S
H39 C46 0.929 . S
H40 C49 0.930 . S
H41 C51 0.929 . S
H42 C43 0.969 . S
C43 H42 0.969 . S
C43 O44 1.550 . S
C43 H45 0.973 . S
O44 C43 1.550 . S
O44 C50 1.412 . S
H45 C43 0.973 . S
C46 H39 0.929 . S
C46 C47 1.400 . S
C46 C48 1.364 . S
C47 C46 1.400 . S
C47 C51 1.377 . S
C48 C46 1.364 . S
C48 C49 1.374 . S
C49 H40 0.930 . S
C49 C48 1.374 . S
C49 C50 1.383 . S
C50 O44 1.412 . S
C50 C49 1.383 . S
C50 C51 1.394 . S
C51 H41 0.929 . S
C51 C47 1.377 . S
C51 C50 1.394 . S
H52 C59 0.929 . S
H53 C62 0.930 . S
H54 C64 0.929 . S
H55 C56 0.969 . S
C56 H55 0.969 . S
C56 O57 1.550 . S
C56 H58 0.973 . S
O57 C56 1.550 . S
O57 C63 1.412 . S
H58 C56 0.973 . S
C59 H52 0.929 . S
C59 C60 1.400 1_554 S
C59 C61 1.364 . S
C60 C59 1.400 1_556 S
C60 C64 1.377 . S
C61 C59 1.364 . S
C61 C62 1.374 . S
C62 H53 0.930 . S
C62 C61 1.374 . S
C62 C63 1.383 . S
C63 O57 1.412 . S
C63 C62 1.383 . S
C63 C64 1.394 1_554 S
C64 H54 0.929 . S
C64 C60 1.377 . S
C64 C63 1.394 1_556 S
H65 C72 0.929 1_655 S
H66 C75 0.930 . S
H67 C77 0.928 1_655 S
H68 C69 0.969 . S
C69 H68 0.969 . S
C69 O70 1.550 1_455 S
C69 H71 0.973 1_455 S
O70 C69 1.550 1_655 S
O70 C76 1.402 1_655 S
H71 C69 0.973 1_655 S
C72 H65 0.929 1_455 S
C72 C73 1.400 1_554 S
C72 C74 1.364 . S
C73 C72 1.400 1_556 S
C73 C77 1.377 . S
C74 C72 1.364 . S
C74 C75 1.374 1_455 S
C75 H66 0.930 . S
C75 C74 1.374 1_655 S
C75 C76 1.382 1_655 S
C76 O70 1.402 1_455 S
C76 C75 1.382 1_455 S
C76 C77 1.394 1_554 S
C77 H67 0.928 1_455 S
C77 C73 1.377 . S
C77 C76 1.394 1_556 S
H78 C85 0.929 1_565 S
H79 C88 0.930 . S
H80 C90 0.928 1_565 S
H81 C82 0.969 . S
C82 H81 0.969 . S
C82 O83 1.550 1_545 S
C82 H84 0.973 1_545 S
O83 C82 1.550 1_565 S
O83 C89 1.402 1_565 S
H84 C82 0.973 1_565 S
C85 H78 0.929 1_545 S
C85 C86 1.400 1_554 S
C85 C87 1.364 . S
C86 C85 1.400 1_556 S
C86 C90 1.377 . S
C87 C85 1.364 . S
C87 C88 1.374 1_545 S
C88 H79 0.930 . S
C88 C87 1.374 1_565 S
C88 C89 1.382 1_565 S
C89 O83 1.402 1_545 S
C89 C88 1.382 1_545 S
C89 C90 1.394 1_554 S
C90 H80 0.928 1_545 S
C90 C86 1.377 . S
C90 C89 1.394 1_556 S
H91 C98 0.929 . S
H92 C101 0.930 . S
H93 C103 0.929 . S
H94 C95 0.969 . S
C95 H94 0.969 . S
C95 O96 1.550 . S
C95 H97 0.973 . S
O96 C95 1.550 . S
O96 C102 1.412 . S
H97 C95 0.973 . S
C98 H91 0.929 . S
C98 C99 1.400 1_554 S
C98 C100 1.364 . S
C99 C98 1.400 1_556 S
C99 C103 1.377 . S
C100 C98 1.364 . S
C100 C101 1.374 . S
C101 H92 0.930 . S
C101 C100 1.374 . S
C101 C102 1.383 . S
C102 O96 1.412 . S
C102 C101 1.383 . S
C102 C103 1.394 1_554 S
C103 H93 0.929 . S
C103 C99 1.377 . S
C103 C102 1.394 1_556 S
C104 Eu105 2.835 . S
C104 C106 1.500 . S
C104 O124 1.258 . S
C104 O125 1.260 . S
Eu105 C104 2.835 . S
Eu105 O124 2.473 . S
Eu105 O125 2.480 . S
Eu105 O126 2.430 . S
Eu105 O127 2.670 1_545 S
Eu105 O128 2.394 . S
Eu105 O133 2.355 1_655 S
Eu105 O135 2.374 1_545 S
C106 C104 1.500 . S
C106 C107 1.377 . S
C106 C111 1.419 . S
C107 C106 1.377 . S
C107 C108 1.395 . S
C107 H136 0.931 . S
C108 C107 1.395 . S
C108 C109 1.383 . S
C108 H137 0.931 . S
C109 C108 1.383 . S
C109 C110 1.394 . S
C110 C109 1.394 . S
C110 C111 1.382 . S
C110 H138 0.931 1_655 S
C111 C106 1.419 . S
C111 C110 1.382 . S
C111 H139 0.886 1_655 S
C112 O126 1.282 . S
C112 O127 1.254 1_545 S
C113 O128 1.251 1_455 S
C113 O129 1.251 . S
C114 Eu115 2.835 . S
C114 C116 1.500 . S
C114 O130 1.270 . S
C114 O131 1.260 . S
Eu115 C114 2.835 . S
Eu115 O127 2.355 1_455 S
Eu115 O129 2.374 1_565 S
Eu115 O130 2.478 . S
Eu115 O131 2.480 . S
Eu115 O132 2.430 . S
Eu115 O133 2.670 1_565 S
Eu115 O134 2.394 . S
C116 C114 1.500 . S
C116 C117 1.377 . S
C116 C121 1.377 . S
C117 C116 1.377 . S
C117 C118 1.395 . S
C117 H140 0.931 . S
C118 C117 1.395 . S
C118 C119 1.383 . S
C118 H141 0.931 . S
C119 C118 1.383 . S
C119 C120 1.394 . S
C120 C119 1.394 . S
C120 C121 1.378 . S
C120 H142 0.931 1_455 S
C121 C116 1.377 . S
C121 C120 1.378 . S
C121 H143 0.931 1_455 S
C122 O132 1.275 . S
C122 O133 1.259 1_565 S
C123 O134 1.251 1_655 S
C123 O135 1.251 . S
O124 C104 1.258 . S
O124 Eu105 2.473 . S
O125 C104 1.260 . S
O125 Eu105 2.480 . S
O126 Eu105 2.430 . S
O126 C112 1.282 . S
O127 Eu105 2.670 1_565 S
O127 C112 1.254 1_565 S
O127 Eu115 2.355 1_655 S
O128 Eu105 2.394 . S
O128 C113 1.251 1_655 S
O129 C113 1.251 . S
O129 Eu115 2.374 1_545 S
O130 C114 1.270 . S
O130 Eu115 2.478 . S
O131 C114 1.260 . S
O131 Eu115 2.480 . S
O132 Eu115 2.430 . S
O132 C122 1.275 . S
O133 Eu105 2.355 1_455 S
O133 Eu115 2.670 1_545 S
O133 C122 1.259 1_545 S
O134 Eu115 2.394 . S
O134 C123 1.251 1_455 S
O135 Eu105 2.374 1_565 S
O135 C123 1.251 . S
H136 C107 0.931 . S
H137 C108 0.931 . S
H138 C110 0.931 1_455 S
H139 C111 0.886 1_455 S
H140 C117 0.931 . S
H141 C118 0.931 . S
H142 C120 0.931 1_655 S
H143 C121 0.931 1_655 S
C144 Eu145 2.835 . S
C144 C146 1.500 . S
C144 O164 1.254 . S
C144 O165 1.260 . S
Eu145 C144 2.835 . S
Eu145 O164 2.471 . S
Eu145 O165 2.480 . S
Eu145 O166 2.430 . S
Eu145 O167 2.670 . S
Eu145 O168 2.394 . S
Eu145 O173 2.355 1_565 S
Eu145 O175 2.374 . S
C146 C144 1.500 . S
C146 C147 1.377 . S
C146 C151 1.412 . S
C147 C146 1.377 . S
C147 C148 1.395 . S
C147 H176 0.931 . S
C148 C147 1.395 . S
C148 C149 1.383 . S
C148 H177 0.931 . S
C149 C148 1.383 . S
C149 C150 1.394 . S
C150 C149 1.394 . S
C150 C151 1.381 . S
C150 H178 0.931 1_565 S
C151 C146 1.412 . S
C151 C150 1.381 . S
C151 H179 0.893 1_565 S
C152 O166 1.259 . S
C152 O167 1.270 . S
C153 O168 1.251 1_545 S
C153 O169 1.251 . S
C154 Eu155 2.835 . S
C154 C156 1.500 . S
C154 O170 1.266 . S
C154 O171 1.260 . S
Eu155 C154 2.835 . S
Eu155 O167 2.355 1_545 S
Eu155 O169 2.374 . S
Eu155 O170 2.477 . S
Eu155 O171 2.480 . S
Eu155 O172 2.430 . S
Eu155 O173 2.670 . S
Eu155 O174 2.394 . S
C156 C154 1.500 . S
C156 C157 1.377 . S
C156 C161 1.424 . S
C157 C156 1.377 . S
C157 C158 1.395 . S
C157 H180 0.931 . S
C158 C157 1.395 . S
C158 C159 1.383 . S
C158 H181 0.931 . S
C159 C158 1.383 . S
C159 C160 1.394 . S
C160 C159 1.394 . S
C160 C161 1.382 . S
C160 H182 0.931 1_545 S
C161 C156 1.424 . S
C161 C160 1.382 . S
C161 H183 0.881 1_545 S
C162 O172 1.259 . S
C162 O173 1.270 . S
C163 O174 1.251 1_565 S
C163 O175 1.251 . S
O164 C144 1.254 . S
O164 Eu145 2.471 . S
O165 C144 1.260 . S
O165 Eu145 2.480 . S
O166 Eu145 2.430 . S
O166 C152 1.259 . S
O167 Eu145 2.670 . S
O167 C152 1.270 . S
O167 Eu155 2.355 1_565 S
O168 Eu145 2.394 . S
O168 C153 1.251 1_565 S
O169 C153 1.251 . S
O169 Eu155 2.374 . S
O170 C154 1.266 . S
O170 Eu155 2.477 . S
O171 C154 1.260 . S
O171 Eu155 2.480 . S
O172 Eu155 2.430 . S
O172 C162 1.259 . S
O173 Eu145 2.355 1_545 S
O173 Eu155 2.670 . S
O173 C162 1.270 . S
O174 Eu155 2.394 . S
O174 C163 1.251 1_545 S
O175 Eu145 2.374 . S
O175 C163 1.251 . S
H176 C147 0.931 . S
H177 C148 0.931 . S
H178 C150 0.931 1_545 S
H179 C151 0.893 1_545 S
H180 C157 0.931 . S
H181 C158 0.931 . S
H182 C160 0.931 1_565 S
H183 C161 0.881 1_565 S
C184 Eu185 2.835 . S
C184 C186 1.500 . S
C184 O204 1.257 . S
C184 O205 1.260 . S
Eu185 C184 2.835 . S
Eu185 O204 2.473 . S
Eu185 O205 2.480 . S
Eu185 O206 2.430 . S
Eu185 O207 2.670 . S
Eu185 O208 2.394 . S
Eu185 O213 2.355 . S
Eu185 O215 2.374 . S
C186 C184 1.500 . S
C186 C187 1.377 . S
C186 C191 1.377 . S
C187 C186 1.377 . S
C187 C188 1.395 . S
C187 H216 0.931 . S
C188 C187 1.395 . S
C188 C189 1.383 . S
C188 H217 0.931 . S
C189 C188 1.383 . S
C189 C190 1.394 . S
C190 C189 1.394 . S
C190 C191 1.378 . S
C190 H218 0.931 . S
C191 C186 1.377 . S
C191 C190 1.378 . S
C191 H219 0.931 . S
C192 O206 1.259 . S
C192 O207 1.270 . S
C193 O208 1.251 . S
C193 O209 1.251 . S
C194 Eu195 2.835 . S
C194 C196 1.500 . S
C194 O210 1.257 . S
C194 O211 1.260 . S
Eu195 C194 2.835 . S
Eu195 O207 2.355 . S
Eu195 O209 2.374 . S
Eu195 O210 2.473 . S
Eu195 O211 2.480 . S
Eu195 O212 2.430 . S
Eu195 O213 2.670 . S
Eu195 O214 2.394 . S
C196 C194 1.500 . S
C196 C197 1.377 . S
C196 C201 1.377 . S
C197 C196 1.377 . S
C197 C198 1.395 . S
C197 H220 0.931 . S
C198 C197 1.395 . S
C198 C199 1.383 . S
C198 H221 0.931 . S
C199 C198 1.383 . S
C199 C200 1.394 . S
C200 C199 1.394 . S
C200 C201 1.378 . S
C200 H222 0.931 . S
C201 C196 1.377 . S
C201 C200 1.378 . S
C201 H223 0.931 . S
C202 O212 1.259 . S
C202 O213 1.270 . S
C203 O214 1.251 . S
C203 O215 1.251 . S
O204 C184 1.257 . S
O204 Eu185 2.473 . S
O205 C184 1.260 . S
O205 Eu185 2.480 . S
O206 Eu185 2.430 . S
O206 C192 1.259 . S
O207 Eu185 2.670 . S
O207 C192 1.270 . S
O207 Eu195 2.355 . S
O208 Eu185 2.394 . S
O208 C193 1.251 . S
O209 C193 1.251 . S
O209 Eu195 2.374 . S
O210 C194 1.257 . S
O210 Eu195 2.473 . S
O211 C194 1.260 . S
O211 Eu195 2.480 . S
O212 Eu195 2.430 . S
O212 C202 1.259 . S
O213 Eu185 2.355 . S
O213 Eu195 2.670 . S
O213 C202 1.270 . S
O214 Eu195 2.394 . S
O214 C203 1.251 . S
O215 Eu185 2.374 . S
O215 C203 1.251 . S
H216 C187 0.931 . S
H217 C188 0.931 . S
H218 C190 0.931 . S
H219 C191 0.931 . S
H220 C197 0.931 . S
H221 C198 0.931 . S
H222 C200 0.931 . S
H223 C201 0.931 . S
C224 Eu225 2.835 . S
C224 C226 1.500 . S
C224 O244 1.257 . S
C224 O245 1.260 . S
Eu225 C224 2.835 . S
Eu225 O244 2.473 . S
Eu225 O245 2.480 . S
Eu225 O246 2.430 . S
Eu225 O247 2.670 1_455 S
Eu225 O248 2.394 . S
Eu225 O253 2.355 . S
Eu225 O255 2.374 1_455 S
C226 C224 1.500 . S
C226 C227 1.377 . S
C226 C231 1.377 . S
C227 C226 1.377 . S
C227 C228 1.395 . S
C227 H256 0.931 . S
C228 C227 1.395 . S
C228 C229 1.383 . S
C228 H257 0.931 . S
C229 C228 1.383 . S
C229 C230 1.394 . S
C230 C229 1.394 . S
C230 C231 1.378 . S
C230 H258 0.931 . S
C231 C226 1.377 . S
C231 C230 1.378 . S
C231 H259 0.931 . S
C232 O246 1.277 . S
C232 O247 1.257 1_455 S
C233 O248 1.251 . S
C233 O249 1.251 . S
C234 Eu235 2.835 . S
C234 C236 1.500 . S
C234 O250 1.257 . S
C234 O251 1.260 . S
Eu235 C234 2.835 . S
Eu235 O247 2.355 . S
Eu235 O249 2.374 1_655 S
Eu235 O250 2.473 . S
Eu235 O251 2.480 . S
Eu235 O252 2.430 . S
Eu235 O253 2.670 1_655 S
Eu235 O254 2.394 . S
C236 C234 1.500 . S
C236 C237 1.377 . S
C236 C241 1.377 . S
C237 C236 1.377 . S
C237 C238 1.395 . S
C237 H260 0.931 . S
C238 C237 1.395 . S
C238 C239 1.383 . S
C238 H261 0.931 . S
C239 C238 1.383 . S
C239 C240 1.394 . S
C240 C239 1.394 . S
C240 C241 1.378 . S
C240 H262 0.931 . S
C241 C236 1.377 . S
C241 C240 1.378 . S
C241 H263 0.931 . S
C242 O252 1.271 . S
C242 O253 1.262 1_655 S
C243 O254 1.251 . S
C243 O255 1.251 . S
O244 C224 1.257 . S
O244 Eu225 2.473 . S
O245 C224 1.260 . S
O245 Eu225 2.480 . S
O246 Eu225 2.430 . S
O246 C232 1.277 . S
O247 Eu225 2.670 1_655 S
O247 C232 1.257 1_655 S
O247 Eu235 2.355 . S
O248 Eu225 2.394 . S
O248 C233 1.251 . S
O249 C233 1.251 . S
O249 Eu235 2.374 1_455 S
O250 C234 1.257 . S
O250 Eu235 2.473 . S
O251 C234 1.260 . S
O251 Eu235 2.480 . S
O252 Eu235 2.430 . S
O252 C242 1.271 . S
O253 Eu225 2.355 . S
O253 Eu235 2.670 1_455 S
O253 C242 1.262 1_455 S
O254 Eu235 2.394 . S
O254 C243 1.251 . S
O255 Eu225 2.374 1_655 S
O255 C243 1.251 . S
H256 C227 0.931 . S
H257 C228 0.931 . S
H258 C230 0.931 . S
H259 C231 0.931 . S
H260 C237 0.931 . S
H261 C238 0.931 . S
H262 C240 0.931 . S
H263 C241 0.931 . S
H264 C282 0.951 . S
H265 C284 0.951 . S
H266 C286 0.950 . S
H267 C287 0.950 . S
H268 C289 0.950 . S
H269 C292 0.950 . S
H270 C293 0.950 . S
H271 C295 0.950 . S
H272 C296 0.974 . S
H273 C297 0.951 . S
H274 C299 0.951 . S
H275 C301 0.950 . S
H276 C302 0.950 . S
H277 C304 0.950 . S
H278 C307 0.950 . S
H279 C308 0.950 . S
H280 C310 0.950 . S
H281 C311 0.950 . S
C282 H264 0.951 . S
C282 C283 1.368 . S
C282 C284 1.388 . S
C283 C282 1.368 . S
C283 C287 1.383 1_545 S
C284 H265 0.951 . S
C284 C282 1.388 . S
C284 C285 1.350 1_545 S
C285 C284 1.350 1_565 S
C285 C286 1.429 . S
C285 C288 1.499 . S
C286 H266 0.950 . S
C286 C285 1.429 . S
C286 C287 1.374 . S
C287 H267 0.950 . S
C287 C283 1.383 1_565 S
C287 C286 1.374 . S
C288 C285 1.499 . S
C288 C289 1.352 1_565 S
C288 C290 1.409 . S
C289 H268 0.950 . S
C289 C288 1.352 1_545 S
C289 C305 1.377 . S
C290 C288 1.409 . S
C290 C291 1.524 . S
C290 C304 1.377 . S
C291 C290 1.524 . S
C291 C292 1.397 . S
C291 C296 1.363 . S
C292 H269 0.950 . S
C292 C291 1.397 . S
C292 C293 1.334 . S
C293 H270 0.950 . S
C293 C292 1.334 . S
C293 C294 1.287 . S
C294 C293 1.287 . S
C294 C295 1.524 . S
C294 H313 0.913 . S
C295 H271 0.950 . S
C295 C294 1.524 . S
C295 C296 1.415 . S
C296 H272 0.974 . S
C296 C291 1.363 . S
C296 C295 1.415 . S
C297 H273 0.951 . S
C297 C298 1.354 1_565 S
C297 C299 1.388 . S
C298 C297 1.354 1_545 S
C298 C302 1.398 . S
C299 H274 0.951 . S
C299 C297 1.388 . S
C299 C300 1.366 1_565 S
C300 C299 1.366 1_545 S
C300 C301 1.414 . S
C300 C303 1.499 . S
C301 H275 0.950 . S
C301 C300 1.414 . S
C301 C302 1.374 . S
C302 H276 0.950 . S
C302 C298 1.398 . S
C302 C301 1.374 . S
C303 C300 1.499 . S
C303 C304 1.373 1_545 S
C303 C305 1.389 . S
C304 H277 0.950 . S
C304 C290 1.377 . S
C304 C303 1.373 1_565 S
C305 C289 1.377 . S
C305 C303 1.389 . S
C305 C306 1.524 . S
C306 C305 1.524 . S
C306 C307 1.397 . S
C306 C311 1.363 . S
C307 H278 0.950 . S
C307 C306 1.397 . S
C307 C308 1.334 . S
C308 H279 0.950 . S
C308 C307 1.334 . S
C308 C309 1.287 . S
C309 C308 1.287 . S
C309 C310 1.524 . S
C309 H312 0.999 . S
C310 H280 0.950 . S
C310 C309 1.524 . S
C310 C311 1.415 . S
C311 H281 0.950 . S
C311 C306 1.363 . S
C311 C310 1.415 . S
H312 C309 0.999 . S
H313 C294 0.913 . S
H314 C332 0.951 . S
H315 C334 0.951 . S
H316 C336 0.950 . S
H317 C337 0.950 . S
H318 C339 0.950 . S
H319 C342 0.950 . S
H320 C343 0.950 . S
H321 C345 0.950 . S
H322 C346 0.950 . S
H323 C347 0.951 . S
H324 C349 0.951 . S
H325 C351 0.950 . S
H326 C352 0.950 . S
H327 C354 0.950 . S
H328 C357 0.950 . S
H329 C358 0.950 . S
H330 C360 0.950 . S
H331 C361 0.950 . S
C332 H314 0.951 . S
C332 C333 1.366 . S
C332 C334 1.388 . S
C333 C332 1.366 . S
C333 C337 1.385 . S
C334 H315 0.951 . S
C334 C332 1.388 . S
C334 C335 1.366 . S
C335 C334 1.366 . S
C335 C336 1.414 . S
C335 C338 1.499 . S
C336 H316 0.950 . S
C336 C335 1.414 . S
C336 C337 1.374 . S
C337 H317 0.950 . S
C337 C333 1.385 . S
C337 C336 1.374 . S
C338 C335 1.499 . S
C338 C339 1.373 . S
C338 C340 1.389 . S
C339 H318 0.950 . S
C339 C338 1.373 . S
C339 C355 1.377 . S
C340 C338 1.389 . S
C340 C341 1.524 . S
C340 C354 1.377 . S
C341 C340 1.524 . S
C341 C342 1.397 . S
C341 C346 1.363 . S
C342 H319 0.950 . S
C342 C341 1.397 . S
C342 C343 1.334 . S
C343 H320 0.950 . S
C343 C342 1.334 . S
C343 C344 1.287 . S
C344 C343 1.287 . S
C344 C345 1.524 . S
C344 H363 0.913 . S
C345 H321 0.950 . S
C345 C344 1.524 . S
C345 C346 1.415 . S
C346 H322 0.950 . S
C346 C341 1.363 . S
C346 C345 1.415 . S
C347 H323 0.951 . S
C347 C348 1.366 . S
C347 C349 1.388 . S
C348 C347 1.366 . S
C348 C352 1.385 . S
C349 H324 0.951 . S
C349 C347 1.388 . S
C349 C350 1.366 . S
C350 C349 1.366 . S
C350 C351 1.414 . S
C350 C353 1.499 . S
C351 H325 0.950 . S
C351 C350 1.414 . S
C351 C352 1.374 . S
C352 H326 0.950 . S
C352 C348 1.385 . S
C352 C351 1.374 . S
C353 C350 1.499 . S
C353 C354 1.373 . S
C353 C355 1.389 . S
C354 H327 0.950 . S
C354 C340 1.377 . S
C354 C353 1.373 . S
C355 C339 1.377 . S
C355 C353 1.389 . S
C355 C356 1.524 . S
C356 C355 1.524 . S
C356 C357 1.397 . S
C356 C361 1.363 . S
C357 H328 0.950 . S
C357 C356 1.397 . S
C357 C358 1.334 . S
C358 H329 0.950 . S
C358 C357 1.334 . S
C358 C359 1.287 . S
C359 C358 1.287 . S
C359 C360 1.524 . S
C359 H362 0.999 . S
C360 H330 0.950 . S
C360 C359 1.524 . S
C360 C361 1.415 . S
C361 H331 0.950 . S
C361 C356 1.363 . S
C361 C360 1.415 . S
H362 C359 0.999 . S
H363 C344 0.913 . S
H364 C382 0.951 . S
H365 C384 0.951 . S
H366 C386 0.950 . S
H367 C387 0.950 . S
H368 C389 0.950 . S
H369 C392 0.950 . S
H370 C393 0.950 . S
H371 C395 0.950 . S
H372 C396 0.950 . S
H373 C397 0.951 . S
H374 C399 0.951 . S
H375 C401 0.950 . S
H376 C402 0.950 . S
H377 C404 0.950 . S
H378 C407 0.950 . S
H379 C408 0.950 . S
H380 C410 0.950 . S
H381 C411 0.950 . S
C382 H364 0.951 . S
C382 C383 1.366 . S
C382 C384 1.388 . S
C383 C382 1.366 . S
C383 C387 1.385 . S
C384 H365 0.951 . S
C384 C382 1.388 . S
C384 C385 1.366 . S
C385 C384 1.366 . S
C385 C386 1.414 . S
C385 C388 1.499 . S
C386 H366 0.950 . S
C386 C385 1.414 . S
C386 C387 1.374 . S
C387 H367 0.950 . S
C387 C383 1.385 . S
C387 C386 1.374 . S
C388 C385 1.499 . S
C388 C389 1.373 . S
C388 C390 1.389 . S
C389 H368 0.950 . S
C389 C388 1.373 . S
C389 C405 1.377 . S
C390 C388 1.389 . S
C390 C391 1.524 . S
C390 C404 1.377 . S
C391 C390 1.524 . S
C391 C392 1.397 . S
C391 C396 1.363 . S
C392 H369 0.950 . S
C392 C391 1.397 . S
C392 C393 1.334 . S
C393 H370 0.950 . S
C393 C392 1.334 . S
C393 C394 1.287 . S
C394 C393 1.287 . S
C394 C395 1.524 . S
C394 H413 0.913 . S
C395 H371 0.950 . S
C395 C394 1.524 . S
C395 C396 1.415 . S
C396 H372 0.950 . S
C396 C391 1.363 . S
C396 C395 1.415 . S
C397 H373 0.951 . S
C397 C398 1.366 . S
C397 C399 1.388 . S
C398 C397 1.366 . S
C398 C402 1.385 . S
C399 H374 0.951 . S
C399 C397 1.388 . S
C399 C400 1.366 . S
C400 C399 1.366 . S
C400 C401 1.414 . S
C400 C403 1.499 . S
C401 H375 0.950 . S
C401 C400 1.414 . S
C401 C402 1.374 . S
C402 H376 0.950 . S
C402 C398 1.385 . S
C402 C401 1.374 . S
C403 C400 1.499 . S
C403 C404 1.373 . S
C403 C405 1.389 . S
C404 H377 0.950 . S
C404 C390 1.377 . S
C404 C403 1.373 . S
C405 C389 1.377 . S
C405 C403 1.389 . S
C405 C406 1.524 . S
C406 C405 1.524 . S
C406 C407 1.397 . S
C406 C411 1.363 . S
C407 H378 0.950 . S
C407 C406 1.397 . S
C407 C408 1.334 . S
C408 H379 0.950 . S
C408 C407 1.334 . S
C408 C409 1.287 . S
C409 C408 1.287 . S
C409 C410 1.524 . S
C409 H412 0.999 . S
C410 H380 0.950 . S
C410 C409 1.524 . S
C410 C411 1.415 . S
C411 H381 0.950 . S
C411 C406 1.363 . S
C411 C410 1.415 . S
H412 C409 0.999 . S
H413 C394 0.913 . S
H414 C432 0.951 . S
H415 C434 0.951 . S
H416 C436 0.950 . S
H417 C437 0.950 . S
H418 C439 0.950 . S
H419 C442 0.950 . S
H420 C443 0.950 . S
H421 C445 0.950 . S
H422 C446 0.950 . S
H423 C447 0.951 . S
H424 C449 0.956 . S
H425 C451 0.950 . S
H426 C452 0.950 . S
H427 C454 0.950 . S
H428 C457 0.950 . S
H429 C458 0.950 . S
H430 C460 0.950 . S
H431 C461 0.950 . S
C432 H414 0.951 . S
C432 C433 1.366 . S
C432 C434 1.388 . S
C433 C432 1.366 . S
C433 C437 1.384 1_455 S
C434 H415 0.951 . S
C434 C432 1.388 . S
C434 C435 1.361 1_455 S
C435 C434 1.361 1_655 S
C435 C436 1.418 . S
C435 C438 1.499 . S
C436 H416 0.950 . S
C436 C435 1.418 . S
C436 C437 1.374 . S
C437 H417 0.950 . S
C437 C433 1.384 1_655 S
C437 C436 1.374 . S
C438 C435 1.499 . S
C438 C439 1.344 1_655 S
C438 C440 1.417 . S
C439 H418 0.950 . S
C439 C438 1.344 1_455 S
C439 C455 1.377 . S
C440 C438 1.417 . S
C440 C441 1.524 . S
C440 C454 1.377 . S
C441 C440 1.524 . S
C441 C442 1.397 . S
C441 C446 1.363 . S
C442 H419 0.950 . S
C442 C441 1.397 . S
C442 C443 1.334 . S
C443 H420 0.950 . S
C443 C442 1.334 . S
C443 C444 1.287 . S
C444 C443 1.287 . S
C444 C445 1.524 . S
C444 H463 0.913 . S
C445 H421 0.950 . S
C445 C444 1.524 . S
C445 C446 1.415 . S
C446 H422 0.950 . S
C446 C441 1.363 . S
C446 C445 1.415 . S
C447 H423 0.951 . S
C447 C448 1.363 1_655 S
C447 C449 1.389 . S
C448 C447 1.363 1_455 S
C448 C452 1.390 . S
C449 H424 0.956 . S
C449 C447 1.389 . S
C449 C450 1.361 1_655 S
C450 C449 1.361 1_455 S
C450 C451 1.414 . S
C450 C453 1.499 . S
C451 H425 0.950 . S
C451 C450 1.414 . S
C451 C452 1.374 . S
C452 H426 0.950 . S
C452 C448 1.390 . S
C452 C451 1.374 . S
C453 C450 1.499 . S
C453 C454 1.373 1_455 S
C453 C455 1.389 . S
C454 H427 0.950 . S
C454 C440 1.377 . S
C454 C453 1.373 1_655 S
C455 C439 1.377 . S
C455 C453 1.389 . S
C455 C456 1.524 . S
C456 C455 1.524 . S
C456 C457 1.397 . S
C456 C461 1.363 . S
C457 H428 0.950 . S
C457 C456 1.397 . S
C457 C458 1.334 . S
C458 H429 0.950 . S
C458 C457 1.334 . S
C458 C459 1.287 . S
C459 C458 1.287 . S
C459 C460 1.524 . S
C459 H462 0.999 . S
C460 H430 0.950 . S
C460 C459 1.524 . S
C460 C461 1.415 . S
C461 H431 0.950 . S
C461 C456 1.363 . S
C461 C460 1.415 . S
H462 C459 0.999 . S
H463 C444 0.913 . S
H464 C482 0.951 . S
H465 C484 0.951 . S
H466 C486 0.950 . S
H467 C487 0.950 . S
H468 C489 0.950 . S
H469 C492 0.950 . S
H470 C493 0.950 . S
H471 C495 0.950 . S
H472 C496 0.950 . S
H473 C497 0.951 . S
H474 C499 0.951 1_554 S
H475 C501 0.950 . S
H476 C502 0.950 . S
H477 C504 0.950 . S
H478 C507 0.950 . S
H479 C508 0.950 . S
H480 C510 0.950 . S
H481 C511 0.950 . S
C482 H464 0.951 . S
C482 C483 1.366 1_565 S
C482 C484 1.388 . S
C483 C482 1.366 1_545 S
C483 C487 1.384 . S
C484 H465 0.951 . S
C484 C482 1.388 . S
C484 C485 1.366 . S
C485 C484 1.366 . S
C485 C486 1.414 1_565 S
C485 C488 1.499 . S
C486 H466 0.950 . S
C486 C485 1.414 1_545 S
C486 C487 1.374 . S
C487 H467 0.950 . S
C487 C483 1.384 . S
C487 C486 1.374 . S
C488 C485 1.499 . S
C488 C489 1.373 1_565 S
C488 C490 1.389 . S
C489 H468 0.950 . S
C489 C488 1.373 1_545 S
C489 C505 1.377 . S
C490 C488 1.389 . S
C490 C491 1.524 . S
C490 C504 1.377 1_554 S
C491 C490 1.524 . S
C491 C492 1.397 . S
C491 C496 1.363 1_554 S
C492 H469 0.950 . S
C492 C491 1.397 . S
C492 C493 1.334 . S
C493 H470 0.950 . S
C493 C492 1.334 . S
C493 C494 1.287 . S
C494 C493 1.287 . S
C494 C495 1.524 1_554 S
C494 H513 0.913 . S
C495 H471 0.950 . S
C495 C494 1.524 1_556 S
C495 C496 1.415 . S
C496 H472 0.950 . S
C496 C491 1.363 1_556 S
C496 C495 1.415 . S
C497 H473 0.951 . S
C497 C498 1.364 1_545 S
C497 C499 1.388 . S
C498 C497 1.364 1_565 S
C498 C502 1.386 . S
C499 H474 0.951 1_556 S
C499 C497 1.388 . S
C499 C500 1.369 . S
C500 C499 1.369 . S
C500 C501 1.410 1_545 S
C500 C503 1.499 . S
C501 H475 0.950 . S
C501 C500 1.410 1_565 S
C501 C502 1.374 . S
C502 H476 0.950 . S
C502 C498 1.386 . S
C502 C501 1.374 . S
C503 C500 1.499 . S
C503 C504 1.337 1_545 S
C503 C505 1.423 1_556 S
C504 H477 0.950 . S
C504 C490 1.377 1_556 S
C504 C503 1.337 1_565 S
C505 C489 1.377 . S
C505 C503 1.423 1_554 S
C505 C506 1.524 . S
C506 C505 1.524 . S
C506 C507 1.397 1_554 S
C506 C511 1.363 . S
C507 H478 0.950 . S
C507 C506 1.397 1_556 S
C507 C508 1.334 . S
C508 H479 0.950 . S
C508 C507 1.334 . S
C508 C509 1.287 1_556 S
C509 C508 1.287 1_554 S
C509 C510 1.524 . S
C509 H512 0.999 . S
C510 H480 0.950 . S
C510 C509 1.524 . S
C510 C511 1.415 . S
C511 H481 0.950 . S
C511 C506 1.363 . S
C511 C510 1.415 . S
H512 C509 0.999 . S
H513 C494 0.913 . S
H514 C532 0.951 . S
H515 C534 0.951 . S
H516 C536 0.950 . S
H517 C537 0.950 . S
H518 C539 0.950 . S
H519 C542 0.950 . S
H520 C543 0.950 . S
H521 C545 0.950 . S
H522 C546 0.950 . S
H523 C547 0.951 . S
H524 C549 0.951 . S
H525 C551 0.950 . S
H526 C552 0.950 . S
H527 C554 0.950 . S
H528 C557 0.950 . S
H529 C558 0.950 . S
H530 C560 0.950 . S
H531 C561 0.950 . S
C532 H514 0.951 . S
C532 C533 1.366 . S
C532 C534 1.388 . S
C533 C532 1.366 . S
C533 C537 1.385 . S
C534 H515 0.951 . S
C534 C532 1.388 . S
C534 C535 1.366 . S
C535 C534 1.366 . S
C535 C536 1.414 . S
C535 C538 1.499 . S
C536 H516 0.950 . S
C536 C535 1.414 . S
C536 C537 1.374 . S
C537 H517 0.950 . S
C537 C533 1.385 . S
C537 C536 1.374 . S
C538 C535 1.499 . S
C538 C539 1.373 . S
C538 C540 1.389 . S
C539 H518 0.950 . S
C539 C538 1.373 . S
C539 C555 1.377 1_554 S
C540 C538 1.389 . S
C540 C541 1.524 . S
C540 C554 1.377 . S
C541 C540 1.524 . S
C541 C542 1.397 . S
C541 C546 1.363 . S
C542 H519 0.950 . S
C542 C541 1.397 . S
C542 C543 1.334 . S
C543 H520 0.950 . S
C543 C542 1.334 . S
C543 C544 1.287 . S
C544 C543 1.287 . S
C544 C545 1.524 . S
C544 H563 0.913 . S
C545 H521 0.950 . S
C545 C544 1.524 . S
C545 C546 1.415 . S
C546 H522 0.950 . S
C546 C541 1.363 . S
C546 C545 1.415 . S
C547 H523 0.951 . S
C547 C548 1.366 . S
C547 C549 1.388 . S
C548 C547 1.366 . S
C548 C552 1.385 . S
C549 H524 0.951 . S
C549 C547 1.388 . S
C549 C550 1.366 . S
C550 C549 1.366 . S
C550 C551 1.414 . S
C550 C553 1.499 . S
C551 H525 0.950 . S
C551 C550 1.414 . S
C551 C552 1.374 . S
C552 H526 0.950 . S
C552 C548 1.385 . S
C552 C551 1.374 . S
C553 C550 1.499 . S
C553 C554 1.373 1_556 S
C553 C555 1.389 . S
C554 H527 0.950 . S
C554 C540 1.377 . S
C554 C553 1.373 1_554 S
C555 C539 1.377 1_556 S
C555 C553 1.389 . S
C555 C556 1.524 . S
C556 C555 1.524 . S
C556 C557 1.397 . S
C556 C561 1.363 . S
C557 H528 0.950 . S
C557 C556 1.397 . S
C557 C558 1.334 . S
C558 H529 0.950 . S
C558 C557 1.334 . S
C558 C559 1.287 . S
C559 C558 1.287 . S
C559 C560 1.524 . S
C559 H562 0.999 . S
C560 H530 0.950 . S
C560 C559 1.524 . S
C560 C561 1.415 . S
C561 H531 0.950 . S
C561 C556 1.363 . S
C561 C560 1.415 . S
H562 C559 0.999 . S
H563 C544 0.913 . S
H564 C582 0.951 . S
H565 C584 0.951 . S
H566 C586 0.950 . S
H567 C587 0.950 . S
H568 C589 0.950 . S
H569 C592 0.950 . S
H570 C593 0.950 . S
H571 C595 0.950 . S
H572 C596 0.950 . S
H573 C597 0.951 . S
H574 C599 0.951 . S
H575 C601 0.950 1_554 S
H576 C602 0.950 . S
H577 C604 0.950 . S
H578 C607 0.950 1_554 S
H579 C608 0.950 . S
H580 C610 0.950 . S
H581 C611 0.950 . S
C582 H564 0.951 . S
C582 C583 1.366 . S
C582 C584 1.388 . S
C583 C582 1.366 . S
C583 C587 1.385 . S
C584 H565 0.951 . S
C584 C582 1.388 . S
C584 C585 1.366 . S
C585 C584 1.366 . S
C585 C586 1.414 . S
C585 C588 1.499 . S
C586 H566 0.950 . S
C586 C585 1.414 . S
C586 C587 1.374 . S
C587 H567 0.950 . S
C587 C583 1.385 . S
C587 C586 1.374 . S
C588 C585 1.499 . S
C588 C589 1.373 . S
C588 C590 1.389 . S
C589 H568 0.950 . S
C589 C588 1.373 . S
C589 C605 1.377 . S
C590 C588 1.389 . S
C590 C591 1.524 . S
C590 C604 1.377 . S
C591 C590 1.524 . S
C591 C592 1.397 . S
C591 C596 1.363 . S
C592 H569 0.950 . S
C592 C591 1.397 . S
C592 C593 1.334 . S
C593 H570 0.950 . S
C593 C592 1.334 . S
C593 C594 1.287 . S
C594 C593 1.287 . S
C594 C595 1.524 . S
C594 H613 0.913 . S
C595 H571 0.950 . S
C595 C594 1.524 . S
C595 C596 1.415 . S
C596 H572 0.950 . S
C596 C591 1.363 . S
C596 C595 1.415 . S
C597 H573 0.951 . S
C597 C598 1.366 . S
C597 C599 1.388 . S
C598 C597 1.366 . S
C598 C602 1.385 . S
C599 H574 0.951 . S
C599 C597 1.388 . S
C599 C600 1.366 . S
C600 C599 1.366 . S
C600 C601 1.414 . S
C600 C603 1.499 . S
C601 H575 0.950 1_556 S
C601 C600 1.414 . S
C601 C602 1.374 . S
C602 H576 0.950 . S
C602 C598 1.385 . S
C602 C601 1.374 . S
C603 C600 1.499 . S
C603 C604 1.373 1_556 S
C603 C605 1.389 1_556 S
C604 H577 0.950 . S
C604 C590 1.377 . S
C604 C603 1.373 1_554 S
C605 C589 1.377 . S
C605 C603 1.389 1_554 S
C605 C606 1.524 1_554 S
C606 C605 1.524 1_556 S
C606 C607 1.397 . S
C606 C611 1.363 . S
C607 H578 0.950 1_556 S
C607 C606 1.397 . S
C607 C608 1.334 . S
C608 H579 0.950 . S
C608 C607 1.334 . S
C608 C609 1.287 . S
C609 C608 1.287 . S
C609 C610 1.524 . S
C609 H612 0.999 . S
C610 H580 0.950 . S
C610 C609 1.524 . S
C610 C611 1.415 . S
C611 H581 0.950 . S
C611 C606 1.363 . S
C611 C610 1.415 . S
H612 C609 0.999 . S
H613 C594 0.913 . S
H614 C632 0.951 . S
H615 C634 0.951 . S
H616 C636 0.950 . S
H617 C637 0.950 . S
H618 C639 0.950 . S
H619 C642 0.950 . S
H620 C643 0.950 . S
H621 C645 0.950 . S
H622 C646 0.947 . S
H623 C647 0.951 . S
H624 C649 0.951 . S
H625 C651 0.950 . S
H626 C652 0.950 . S
H627 C654 0.950 . S
H628 C657 0.950 . S
H629 C658 0.950 . S
H630 C660 0.950 . S
H631 C661 0.994 . S
C632 H614 0.951 . S
C632 C633 1.368 . S
C632 C634 1.388 . S
C633 C632 1.368 . S
C633 C637 1.382 1_655 S
C634 H615 0.951 . S
C634 C632 1.388 . S
C634 C635 1.351 1_655 S
C635 C634 1.351 1_455 S
C635 C636 1.428 . S
C635 C638 1.499 . S
C636 H616 0.950 . S
C636 C635 1.428 . S
C636 C637 1.374 . S
C637 H617 0.950 . S
C637 C633 1.382 1_455 S
C637 C636 1.374 . S
C638 C635 1.499 . S
C638 C639 1.354 1_455 S
C638 C640 1.407 . S
C639 H618 0.950 . S
C639 C638 1.354 1_655 S
C639 C655 1.377 1_554 S
C640 C638 1.407 . S
C640 C641 1.524 . S
C640 C654 1.377 . S
C641 C640 1.524 . S
C641 C642 1.397 . S
C641 C646 1.363 . S
C642 H619 0.950 . S
C642 C641 1.397 . S
C642 C643 1.334 . S
C643 H620 0.950 . S
C643 C642 1.334 . S
C643 C644 1.287 . S
C644 C643 1.287 . S
C644 C645 1.524 . S
C644 H663 0.913 . S
C645 H621 0.950 . S
C645 C644 1.524 . S
C645 C646 1.415 . S
C646 H622 0.947 . S
C646 C641 1.363 . S
C646 C645 1.415 . S
C647 H623 0.951 . S
C647 C648 1.350 1_455 S
C647 C649 1.388 . S
C648 C647 1.350 1_655 S
C648 C652 1.402 . S
C649 H624 0.951 . S
C649 C647 1.388 . S
C649 C650 1.366 1_455 S
C650 C649 1.366 1_655 S
C650 C651 1.414 . S
C650 C653 1.499 . S
C651 H625 0.950 . S
C651 C650 1.414 . S
C651 C652 1.374 . S
C652 H626 0.950 . S
C652 C648 1.402 . S
C652 C651 1.374 . S
C653 C650 1.499 . S
C653 C654 1.373 1_656 S
C653 C655 1.389 . S
C654 H627 0.950 . S
C654 C640 1.377 . S
C654 C653 1.373 1_454 S
C655 C639 1.377 1_556 S
C655 C653 1.389 . S
C655 C656 1.524 . S
C656 C655 1.524 . S
C656 C657 1.397 . S
C656 C661 1.363 . S
C657 H628 0.950 . S
C657 C656 1.397 . S
C657 C658 1.334 . S
C658 H629 0.950 . S
C658 C657 1.334 . S
C658 C659 1.287 . S
C659 C658 1.287 . S
C659 C660 1.524 . S
C659 H662 0.999 . S
C660 H630 0.950 . S
C660 C659 1.524 . S
C660 C661 1.415 . S
C661 H631 0.994 . S
C661 C656 1.363 . S
C661 C660 1.415 . S
H662 C659 0.999 . S
H663 C644 0.913 . S
H664 C682 0.951 . S
H665 C684 0.951 . S
H666 C686 0.950 . S
H667 C687 0.950 . S
H668 C689 0.950 . S
H669 C692 0.950 . S
H670 C693 0.950 . S
H671 C695 0.950 . S
H672 C696 0.950 . S
H673 C697 0.951 . S
H674 C699 0.951 . S
H675 C701 0.950 . S
H676 C702 0.950 . S
H677 C704 0.950 . S
H678 C707 0.950 . S
H679 C708 0.950 . S
H680 C710 0.950 . S
H681 C711 0.950 . S
C682 H664 0.951 . S
C682 C683 1.366 . S
C682 C684 1.388 . S
C683 C682 1.366 . S
C683 C687 1.385 1_455 S
C684 H665 0.951 . S
C684 C682 1.388 . S
C684 C685 1.366 1_455 S
C685 C684 1.366 1_655 S
C685 C686 1.414 . S
C685 C688 1.499 . S
C686 H666 0.950 . S
C686 C685 1.414 . S
C686 C687 1.374 . S
C687 H667 0.950 . S
C687 C683 1.385 1_655 S
C687 C686 1.374 . S
C688 C685 1.499 . S
C688 C689 1.373 . S
C688 C690 1.389 1_655 S
C689 H668 0.950 . S
C689 C688 1.373 . S
C689 C705 1.377 . S
C690 C688 1.389 1_455 S
C690 C691 1.524 . S
C690 C704 1.377 . S
C691 C690 1.524 . S
C691 C692 1.397 . S
C691 C696 1.363 . S
C692 H669 0.950 . S
C692 C691 1.397 . S
C692 C693 1.334 . S
C693 H670 0.950 . S
C693 C692 1.334 . S
C693 C694 1.287 . S
C694 C693 1.287 . S
C694 C695 1.524 . S
C694 H713 0.913 . S
C695 H671 0.950 . S
C695 C694 1.524 . S
C695 C696 1.415 . S
C696 H672 0.950 . S
C696 C691 1.363 . S
C696 C695 1.415 . S
C697 H673 0.951 . S
C697 C698 1.366 . S
C697 C699 1.388 . S
C698 C697 1.366 . S
C698 C702 1.385 . S
C699 H674 0.951 . S
C699 C697 1.388 . S
C699 C700 1.366 . S
C700 C699 1.366 . S
C700 C701 1.414 . S
C700 C703 1.499 . S
C701 H675 0.950 . S
C701 C700 1.414 . S
C701 C702 1.374 . S
C702 H676 0.950 . S
C702 C698 1.385 . S
C702 C701 1.374 . S
C703 C700 1.499 . S
C703 C704 1.373 1_655 S
C703 C705 1.389 . S
C704 H677 0.950 . S
C704 C690 1.377 . S
C704 C703 1.373 1_455 S
C705 C689 1.377 . S
C705 C703 1.389 . S
C705 C706 1.524 . S
C706 C705 1.524 . S
C706 C707 1.397 . S
C706 C711 1.363 . S
C707 H678 0.950 . S
C707 C706 1.397 . S
C707 C708 1.334 . S
C708 H679 0.950 . S
C708 C707 1.334 . S
C708 C709 1.287 . S
C709 C708 1.287 . S
C709 C710 1.524 . S
C709 H712 0.999 . S
C710 H680 0.950 . S
C710 C709 1.524 . S
C710 C711 1.415 . S
C711 H681 0.950 . S
C711 C706 1.363 . S
C711 C710 1.415 . S
H712 C709 0.999 . S
H713 C694 0.913 . S
H714 C732 0.951 . S
H715 C734 0.951 . S
H716 C736 0.950 . S
H717 C737 0.950 . S
H718 C739 0.950 . S
H719 C742 0.950 . S
H720 C743 0.950 1_556 S
H721 C745 0.950 . S
H722 C746 0.950 . S
H723 C747 0.951 . S
H724 C749 0.951 . S
H725 C751 0.950 1_545 S
H726 C752 0.950 1_545 S
H727 C754 0.950 . S
H728 C757 0.950 1_545 S
H729 C758 0.950 1_545 S
H730 C760 0.950 . S
H731 C761 0.950 . S
C732 H714 0.951 . S
C732 C733 1.366 . S
C732 C734 1.388 . S
C733 C732 1.366 . S
C733 C737 1.385 1_545 S
C734 H715 0.951 . S
C734 C732 1.388 . S
C734 C735 1.366 1_545 S
C735 C734 1.366 1_565 S
C735 C736 1.414 . S
C735 C738 1.499 . S
C736 H716 0.950 . S
C736 C735 1.414 . S
C736 C737 1.374 . S
C737 H717 0.950 . S
C737 C733 1.385 1_565 S
C737 C736 1.374 . S
C738 C735 1.499 . S
C738 C739 1.373 . S
C738 C740 1.389 . S
C739 H718 0.950 . S
C739 C738 1.373 . S
C739 C755 1.377 . S
C740 C738 1.389 . S
C740 C741 1.524 . S
C740 C754 1.377 . S
C741 C740 1.524 . S
C741 C742 1.397 . S
C741 C746 1.363 1_565 S
C742 H719 0.950 . S
C742 C741 1.397 . S
C742 C743 1.334 . S
C743 H720 0.950 1_554 S
C743 C742 1.334 . S
C743 C744 1.287 1_554 S
C744 C743 1.287 1_556 S
C744 C745 1.524 1_566 S
C744 H763 0.913 . S
C745 H721 0.950 . S
C745 C744 1.524 1_544 S
C745 C746 1.415 . S
C746 H722 0.950 . S
C746 C741 1.363 1_545 S
C746 C745 1.415 . S
C747 H723 0.951 . S
C747 C748 1.366 . S
C747 C749 1.388 . S
C748 C747 1.366 . S
C748 C752 1.385 . S
C749 H724 0.951 . S
C749 C747 1.388 . S
C749 C750 1.366 . S
C750 C749 1.366 . S
C750 C751 1.414 . S
C750 C753 1.499 . S
C751 H725 0.950 1_565 S
C751 C750 1.414 . S
C751 C752 1.374 . S
C752 H726 0.950 1_565 S
C752 C748 1.385 . S
C752 C751 1.374 . S
C753 C750 1.499 . S
C753 C754 1.373 . S
C753 C755 1.389 . S
C754 H727 0.950 . S
C754 C740 1.377 . S
C754 C753 1.373 . S
C755 C739 1.377 . S
C755 C753 1.389 . S
C755 C756 1.524 . S
C756 C755 1.524 . S
C756 C757 1.397 . S
C756 C761 1.363 . S
C757 H728 0.950 1_565 S
C757 C756 1.397 . S
C757 C758 1.334 . S
C758 H729 0.950 1_565 S
C758 C757 1.334 . S
C758 C759 1.287 . S
C759 C758 1.287 . S
C759 C760 1.524 . S
C759 H762 0.999 . S
C760 H730 0.950 . S
C760 C759 1.524 . S
C760 C761 1.415 . S
C761 H731 0.950 . S
C761 C756 1.363 . S
C761 C760 1.415 . S
H762 C759 0.999 . S
H763 C744 0.913 . S
H764 C782 0.951 . S
H765 C784 0.951 . S
H766 C786 0.950 . S
H767 C787 0.950 . S
H768 C789 0.950 . S
H769 C792 0.950 . S
H770 C793 0.950 . S
H771 C795 0.950 . S
H772 C796 0.950 . S
H773 C797 0.951 . S
H774 C799 0.951 . S
H775 C801 0.950 . S
H776 C802 0.950 . S
H777 C804 0.950 . S
H778 C807 0.950 . S
H779 C808 0.950 . S
H780 C810 0.950 . S
H781 C811 0.950 . S
C782 H764 0.951 . S
C782 C783 1.366 . S
C782 C784 1.388 . S
C783 C782 1.366 . S
C783 C787 1.385 . S
C784 H765 0.951 . S
C784 C782 1.388 . S
C784 C785 1.366 . S
C785 C784 1.366 . S
C785 C786 1.414 . S
C785 C788 1.499 . S
C786 H766 0.950 . S
C786 C785 1.414 . S
C786 C787 1.374 . S
C787 H767 0.950 . S
C787 C783 1.385 . S
C787 C786 1.374 . S
C788 C785 1.499 . S
C788 C789 1.373 . S
C788 C790 1.389 . S
C789 H768 0.950 . S
C789 C788 1.373 . S
C789 C805 1.377 . S
C790 C788 1.389 . S
C790 C791 1.524 . S
C790 C804 1.377 . S
C791 C790 1.524 . S
C791 C792 1.397 . S
C791 C796 1.363 . S
C792 H769 0.950 . S
C792 C791 1.397 . S
C792 C793 1.334 . S
C793 H770 0.950 . S
C793 C792 1.334 . S
C793 C794 1.287 . S
C794 C793 1.287 . S
C794 C795 1.524 . S
C794 H813 0.913 . S
C795 H771 0.950 . S
C795 C794 1.524 . S
C795 C796 1.415 . S
C796 H772 0.950 . S
C796 C791 1.363 . S
C796 C795 1.415 . S
C797 H773 0.951 . S
C797 C798 1.366 . S
C797 C799 1.388 . S
C798 C797 1.366 . S
C798 C802 1.385 . S
C799 H774 0.951 . S
C799 C797 1.388 . S
C799 C800 1.366 . S
C800 C799 1.366 . S
C800 C801 1.414 . S
C800 C803 1.499 . S
C801 H775 0.950 . S
C801 C800 1.414 . S
C801 C802 1.374 . S
C802 H776 0.950 . S
C802 C798 1.385 . S
C802 C801 1.374 . S
C803 C800 1.499 . S
C803 C804 1.373 . S
C803 C805 1.389 . S
C804 H777 0.950 . S
C804 C790 1.377 . S
C804 C803 1.373 . S
C805 C789 1.377 . S
C805 C803 1.389 . S
C805 C806 1.524 . S
C806 C805 1.524 . S
C806 C807 1.397 . S
C806 C811 1.363 . S
C807 H778 0.950 . S
C807 C806 1.397 . S
C807 C808 1.334 . S
C808 H779 0.950 . S
C808 C807 1.334 . S
C808 C809 1.287 . S
C809 C808 1.287 . S
C809 C810 1.524 . S
C809 H812 0.999 . S
C810 H780 0.950 . S
C810 C809 1.524 . S
C810 C811 1.415 . S
C811 H781 0.950 . S
C811 C806 1.363 . S
C811 C810 1.415 . S
H812 C809 0.999 . S
H813 C794 0.913 . S
H814 C832 0.951 . S
H815 C834 0.951 . S
H816 C836 0.950 . S
H817 C837 0.950 . S
H818 C839 0.950 . S
H819 C842 0.950 . S
H820 C843 0.950 . S
H821 C845 0.950 . S
H822 C846 0.950 . S
H823 C847 0.951 . S
H824 C849 0.951 . S
H825 C851 0.950 . S
H826 C852 0.950 . S
H827 C854 0.950 . S
H828 C857 0.950 . S
H829 C858 0.950 . S
H830 C860 0.950 . S
H831 C861 0.950 . S
C832 H814 0.951 . S
C832 C833 1.366 . S
C832 C834 1.388 . S
C833 C832 1.366 . S
C833 C837 1.385 . S
C834 H815 0.951 . S
C834 C832 1.388 . S
C834 C835 1.366 . S
C835 C834 1.366 . S
C835 C836 1.414 . S
C835 C838 1.499 . S
C836 H816 0.950 . S
C836 C835 1.414 . S
C836 C837 1.374 . S
C837 H817 0.950 . S
C837 C833 1.385 . S
C837 C836 1.374 . S
C838 C835 1.499 . S
C838 C839 1.373 . S
C838 C840 1.389 . S
C839 H818 0.950 . S
C839 C838 1.373 . S
C839 C855 1.377 . S
C840 C838 1.389 . S
C840 C841 1.524 . S
C840 C854 1.377 . S
C841 C840 1.524 . S
C841 C842 1.397 . S
C841 C846 1.363 . S
C842 H819 0.950 . S
C842 C841 1.397 . S
C842 C843 1.334 . S
C843 H820 0.950 . S
C843 C842 1.334 . S
C843 C844 1.287 . S
C844 C843 1.287 . S
C844 C845 1.524 . S
C844 H863 0.913 . S
C845 H821 0.950 . S
C845 C844 1.524 . S
C845 C846 1.415 . S
C846 H822 0.950 . S
C846 C841 1.363 . S
C846 C845 1.415 . S
C847 H823 0.951 . S
C847 C848 1.366 . S
C847 C849 1.388 . S
C848 C847 1.366 . S
C848 C852 1.385 . S
C849 H824 0.951 . S
C849 C847 1.388 . S
C849 C850 1.366 . S
C850 C849 1.366 . S
C850 C851 1.414 . S
C850 C853 1.499 . S
C851 H825 0.950 . S
C851 C850 1.414 . S
C851 C852 1.374 . S
C852 H826 0.950 . S
C852 C848 1.385 . S
C852 C851 1.374 . S
C853 C850 1.499 . S
C853 C854 1.373 . S
C853 C855 1.389 . S
C854 H827 0.950 . S
C854 C840 1.377 . S
C854 C853 1.373 . S
C855 C839 1.377 . S
C855 C853 1.389 . S
C855 C856 1.524 . S
C856 C855 1.524 . S
C856 C857 1.397 . S
C856 C861 1.363 . S
C857 H828 0.950 . S
C857 C856 1.397 . S
C857 C858 1.334 . S
C858 H829 0.950 . S
C858 C857 1.334 . S
C858 C859 1.287 . S
C859 C858 1.287 . S
C859 C860 1.524 . S
C859 H862 0.999 . S
C860 H830 0.950 . S
C860 C859 1.524 . S
C860 C861 1.415 . S
C861 H831 0.950 . S
C861 C856 1.363 . S
C861 C860 1.415 . S
H862 C859 0.999 . S
H863 C844 0.913 . S
H864 C882 0.951 . S
H865 C884 0.947 1_655 S
H866 C886 0.950 . S
H867 C887 0.950 . S
H868 C889 0.980 . S
H869 C892 0.950 . S
H870 C893 0.950 . S
H871 C895 0.950 . S
H872 C896 0.950 1_556 S
H873 C897 0.951 . S
H874 C899 0.951 . S
H875 C901 0.950 . S
H876 C902 0.950 . S
H877 C904 0.950 . S
H878 C907 0.950 . S
H879 C908 0.950 . S
H880 C910 0.950 . S
H881 C911 0.950 . S
C882 H864 0.951 . S
C882 C883 1.366 . S
C882 C884 1.383 1_655 S
C883 C882 1.366 . S
C883 C887 1.385 1_655 S
C884 H865 0.947 1_455 S
C884 C882 1.383 1_455 S
C884 C885 1.375 . S
C885 C884 1.375 . S
C885 C886 1.414 . S
C885 C888 1.499 . S
C886 H866 0.950 . S
C886 C885 1.414 . S
C886 C887 1.374 . S
C887 H867 0.950 . S
C887 C883 1.385 1_455 S
C887 C886 1.374 . S
C888 C885 1.499 . S
C888 C889 1.349 1_455 S
C888 C890 1.389 . S
C889 H868 0.980 . S
C889 C888 1.349 1_655 S
C889 C905 1.373 1_655 S
C890 C888 1.389 . S
C890 C891 1.524 . S
C890 C904 1.377 . S
C891 C890 1.524 . S
C891 C892 1.397 . S
C891 C896 1.363 . S
C892 H869 0.950 . S
C892 C891 1.397 . S
C892 C893 1.334 . S
C893 H870 0.950 . S
C893 C892 1.334 . S
C893 C894 1.287 . S
C894 C893 1.287 . S
C894 C895 1.524 1_554 S
C894 H913 0.913 . S
C895 H871 0.950 . S
C895 C894 1.524 1_556 S
C895 C896 1.415 1_556 S
C896 H872 0.950 1_554 S
C896 C891 1.363 . S
C896 C895 1.415 1_554 S
C897 H873 0.951 . S
C897 C898 1.366 1_554 S
C897 C899 1.388 . S
C898 C897 1.366 1_556 S
C898 C902 1.385 . S
C899 H874 0.951 . S
C899 C897 1.388 . S
C899 C900 1.366 . S
C900 C899 1.366 . S
C900 C901 1.414 1_554 S
C900 C903 1.499 . S
C901 H875 0.950 . S
C901 C900 1.414 1_556 S
C901 C902 1.374 . S
C902 H876 0.950 . S
C902 C898 1.385 . S
C902 C901 1.374 . S
C903 C900 1.499 . S
C903 C904 1.373 . S
C903 C905 1.412 . S
C904 H877 0.950 . S
C904 C890 1.377 . S
C904 C903 1.373 . S
C905 C889 1.373 1_455 S
C905 C903 1.412 . S
C905 C906 1.502 1_455 S
C906 C905 1.502 1_655 S
C906 C907 1.397 . S
C906 C911 1.363 . S
C907 H878 0.950 . S
C907 C906 1.397 . S
C907 C908 1.334 . S
C908 H879 0.950 . S
C908 C907 1.334 . S
C908 C909 1.287 . S
C909 C908 1.287 . S
C909 C910 1.524 . S
C909 H912 0.999 . S
C910 H880 0.950 . S
C910 C909 1.524 . S
C910 C911 1.415 . S
C911 H881 0.950 . S
C911 C906 1.363 . S
C911 C910 1.415 . S
H912 C909 0.999 . S
H913 C894 0.913 . S
H914 C932 0.951 . S
H915 C934 0.951 . S
H916 C936 0.950 . S
H917 C937 0.950 . S
H918 C939 0.950 . S
H919 C942 0.950 . S
H920 C943 0.950 . S
H921 C945 0.950 . S
H922 C946 0.950 . S
H923 C947 0.951 . S
H924 C949 0.951 . S
H925 C951 0.950 . S
H926 C952 0.950 . S
H927 C954 0.950 . S
H928 C957 0.950 . S
H929 C958 0.950 . S
H930 C960 0.950 1_556 S
H931 C961 0.950 . S
C932 H914 0.951 . S
C932 C933 1.380 . S
C932 C934 1.388 . S
C933 C932 1.380 . S
C933 C937 1.366 1_565 S
C934 H915 0.951 . S
C934 C932 1.388 . S
C934 C935 1.366 1_565 S
C935 C934 1.366 1_545 S
C935 C936 1.414 . S
C935 C938 1.499 . S
C936 H916 0.950 . S
C936 C935 1.414 . S
C936 C937 1.374 . S
C937 H917 0.950 . S
C937 C933 1.366 1_545 S
C937 C936 1.374 . S
C938 C935 1.499 . S
C938 C939 1.373 . S
C938 C940 1.389 1_545 S
C939 H918 0.950 . S
C939 C938 1.373 . S
C939 C955 1.377 . S
C940 C938 1.389 1_565 S
C940 C941 1.524 . S
C940 C954 1.377 . S
C941 C940 1.524 . S
C941 C942 1.397 . S
C941 C946 1.363 . S
C942 H919 0.950 . S
C942 C941 1.397 . S
C942 C943 1.334 . S
C943 H920 0.950 . S
C943 C942 1.334 . S
C943 C944 1.287 . S
C944 C943 1.287 . S
C944 C945 1.524 . S
C944 H963 0.913 . S
C945 H921 0.950 . S
C945 C944 1.524 . S
C945 C946 1.415 . S
C946 H922 0.950 . S
C946 C941 1.363 . S
C946 C945 1.415 . S
C947 H923 0.951 . S
C947 C948 1.366 . S
C947 C949 1.388 . S
C948 C947 1.366 . S
C948 C952 1.385 1_556 S
C949 H924 0.951 . S
C949 C947 1.388 . S
C949 C950 1.366 1_556 S
C950 C949 1.366 1_554 S
C950 C951 1.414 . S
C950 C953 1.499 . S
C951 H925 0.950 . S
C951 C950 1.414 . S
C951 C952 1.374 . S
C952 H926 0.950 . S
C952 C948 1.385 1_554 S
C952 C951 1.374 . S
C953 C950 1.499 . S
C953 C954 1.373 1_545 S
C953 C955 1.389 . S
C954 H927 0.950 . S
C954 C940 1.377 . S
C954 C953 1.373 1_565 S
C955 C939 1.377 . S
C955 C953 1.389 . S
C955 C956 1.524 . S
C956 C955 1.524 . S
C956 C957 1.397 . S
C956 C961 1.363 . S
C957 H928 0.950 . S
C957 C956 1.397 . S
C957 C958 1.334 . S
C958 H929 0.950 . S
C958 C957 1.334 . S
C958 C959 1.287 . S
C959 C958 1.287 . S
C959 C960 1.524 . S
C959 H962 0.999 . S
C960 H930 0.950 1_554 S
C960 C959 1.524 . S
C960 C961 1.415 . S
C961 H931 0.950 . S
C961 C956 1.363 . S
C961 C960 1.415 . S
H962 C959 0.999 . S
H963 C944 0.913 . S
H964 C982 0.951 . S
H965 C984 0.951 . S
H966 C986 0.950 . S
H967 C987 0.950 . S
H968 C989 0.950 . S
H969 C992 0.950 . S
H970 C993 0.950 . S
H971 C995 0.950 . S
H972 C996 0.950 . S
H973 C997 0.951 . S
H974 C999 0.951 . S
H975 C1001 0.950 . S
H976 C1002 0.950 . S
H977 C1004 0.950 . S
H978 C1007 0.950 . S
H979 C1008 0.950 . S
H980 C1010 0.950 . S
H981 C1011 0.950 1_554 S
C982 H964 0.951 . S
C982 C983 1.366 . S
C982 C984 1.388 . S
C983 C982 1.366 . S
C983 C987 1.385 . S
C984 H965 0.951 . S
C984 C982 1.388 . S
C984 C985 1.366 . S
C985 C984 1.366 . S
C985 C986 1.414 . S
C985 C988 1.499 . S
C986 H966 0.950 . S
C986 C985 1.414 . S
C986 C987 1.374 . S
C987 H967 0.950 . S
C987 C983 1.385 . S
C987 C986 1.374 . S
C988 C985 1.499 . S
C988 C989 1.373 . S
C988 C990 1.389 . S
C989 H968 0.950 . S
C989 C988 1.373 . S
C989 C1005 1.377 . S
C990 C988 1.389 . S
C990 C991 1.524 . S
C990 C1004 1.377 . S
C991 C990 1.524 . S
C991 C992 1.397 . S
C991 C996 1.363 . S
C992 H969 0.950 . S
C992 C991 1.397 . S
C992 C993 1.334 . S
C993 H970 0.950 . S
C993 C992 1.334 . S
C993 C994 1.287 . S
C994 C993 1.287 . S
C994 C995 1.524 . S
C994 H1013 0.913 . S
C995 H971 0.950 . S
C995 C994 1.524 . S
C995 C996 1.415 . S
C996 H972 0.950 . S
C996 C991 1.363 . S
C996 C995 1.415 . S
C997 H973 0.951 . S
C997 C998 1.366 . S
C997 C999 1.388 1_556 S
C998 C997 1.366 . S
C998 C1002 1.385 1_556 S
C999 H974 0.951 . S
C999 C997 1.388 1_554 S
C999 C1000 1.366 . S
C1000 C999 1.366 . S
C1000 C1001 1.414 . S
C1000 C1003 1.499 . S
C1001 H975 0.950 . S
C1001 C1000 1.414 . S
C1001 C1002 1.374 . S
C1002 H976 0.950 . S
C1002 C998 1.385 1_554 S
C1002 C1001 1.374 . S
C1003 C1000 1.499 . S
C1003 C1004 1.373 . S
C1003 C1005 1.389 . S
C1004 H977 0.950 . S
C1004 C990 1.377 . S
C1004 C1003 1.373 . S
C1005 C989 1.377 . S
C1005 C1003 1.389 . S
C1005 C1006 1.524 1_554 S
C1006 C1005 1.524 1_556 S
C1006 C1007 1.397 . S
C1006 C1011 1.363 . S
C1007 H978 0.950 . S
C1007 C1006 1.397 . S
C1007 C1008 1.334 . S
C1008 H979 0.950 . S
C1008 C1007 1.334 . S
C1008 C1009 1.287 . S
C1009 C1008 1.287 . S
C1009 C1010 1.524 . S
C1009 H1012 0.999 . S
C1010 H980 0.950 . S
C1010 C1009 1.524 . S
C1010 C1011 1.415 . S
C1011 H981 0.950 1_556 S
C1011 C1006 1.363 . S
C1011 C1010 1.415 . S
H1012 C1009 0.999 . S
H1013 C994 0.913 . S
H1014 C1032 0.951 . S
H1015 C1034 0.951 . S
H1016 C1036 0.950 . S
H1017 C1037 0.950 . S
H1018 C1039 0.950 . S
H1019 C1042 0.950 . S
H1020 C1043 0.950 . S
H1021 C1045 0.950 . S
H1022 C1046 0.950 . S
H1023 C1047 0.951 . S
H1024 C1049 0.951 . S
H1025 C1051 0.950 . S
H1026 C1052 0.950 . S
H1027 C1054 0.950 . S
H1028 C1057 0.950 . S
H1029 C1058 0.950 . S
H1030 C1060 0.950 . S
H1031 C1061 0.950 . S
C1032 H1014 0.951 . S
C1032 C1033 1.366 . S
C1032 C1034 1.388 . S
C1033 C1032 1.366 . S
C1033 C1037 1.385 . S
C1034 H1015 0.951 . S
C1034 C1032 1.388 . S
C1034 C1035 1.366 . S
C1035 C1034 1.366 . S
C1035 C1036 1.414 . S
C1035 C1038 1.499 . S
C1036 H1016 0.950 . S
C1036 C1035 1.414 . S
C1036 C1037 1.374 . S
C1037 H1017 0.950 . S
C1037 C1033 1.385 . S
C1037 C1036 1.374 . S
C1038 C1035 1.499 . S
C1038 C1039 1.373 . S
C1038 C1040 1.389 . S
C1039 H1018 0.950 . S
C1039 C1038 1.373 . S
C1039 C1055 1.377 . S
C1040 C1038 1.389 . S
C1040 C1041 1.524 . S
C1040 C1054 1.377 . S
C1041 C1040 1.524 . S
C1041 C1042 1.397 . S
C1041 C1046 1.363 . S
C1042 H1019 0.950 . S
C1042 C1041 1.397 . S
C1042 C1043 1.334 . S
C1043 H1020 0.950 . S
C1043 C1042 1.334 . S
C1043 C1044 1.287 . S
C1044 C1043 1.287 . S
C1044 C1045 1.524 . S
C1044 H1063 0.913 . S
C1045 H1021 0.950 . S
C1045 C1044 1.524 . S
C1045 C1046 1.415 . S
C1046 H1022 0.950 . S
C1046 C1041 1.363 . S
C1046 C1045 1.415 . S
C1047 H1023 0.951 . S
C1047 C1048 1.366 . S
C1047 C1049 1.388 . S
C1048 C1047 1.366 . S
C1048 C1052 1.385 1_556 S
C1049 H1024 0.951 . S
C1049 C1047 1.388 . S
C1049 C1050 1.366 1_556 S
C1050 C1049 1.366 1_554 S
C1050 C1051 1.414 . S
C1050 C1053 1.499 . S
C1051 H1025 0.950 . S
C1051 C1050 1.414 . S
C1051 C1052 1.374 . S
C1052 H1026 0.950 . S
C1052 C1048 1.385 1_554 S
C1052 C1051 1.374 . S
C1053 C1050 1.499 . S
C1053 C1054 1.373 . S
C1053 C1055 1.389 . S
C1054 H1027 0.950 . S
C1054 C1040 1.377 . S
C1054 C1053 1.373 . S
C1055 C1039 1.377 . S
C1055 C1053 1.389 . S
C1055 C1056 1.524 . S
C1056 C1055 1.524 . S
C1056 C1057 1.397 . S
C1056 C1061 1.363 . S
C1057 H1028 0.950 . S
C1057 C1056 1.397 . S
C1057 C1058 1.334 . S
C1058 H1029 0.950 . S
C1058 C1057 1.334 . S
C1058 C1059 1.287 . S
C1059 C1058 1.287 . S
C1059 C1060 1.524 . S
C1059 H1062 0.999 . S
C1060 H1030 0.950 . S
C1060 C1059 1.524 . S
C1060 C1061 1.415 . S
C1061 H1031 0.950 . S
C1061 C1056 1.363 . S
C1061 C1060 1.415 . S
H1062 C1059 0.999 . S
H1063 C1044 0.913 . S
H1064 C1082 0.951 . S
H1065 C1084 0.951 . S
H1066 C1086 0.950 . S
H1067 C1087 0.950 . S
H1068 C1089 0.950 . S
H1069 C1092 0.950 . S
H1070 C1093 0.950 . S
H1071 C1095 0.950 . S
H1072 C1096 0.950 . S
H1073 C1097 0.951 . S
H1074 C1099 0.951 . S
H1075 C1101 0.950 . S
H1076 C1102 0.950 . S
H1077 C1104 0.950 . S
H1078 C1107 0.950 . S
H1079 C1108 0.950 . S
H1080 C1110 0.950 . S
H1081 C1111 0.950 . S
C1082 H1064 0.951 . S
C1082 C1083 1.325 1_655 S
C1082 C1084 1.388 . S
C1083 C1082 1.325 1_455 S
C1083 C1087 1.428 . S
C1084 H1065 0.951 . S
C1084 C1082 1.388 . S
C1084 C1085 1.366 1_655 S
C1085 C1084 1.366 1_455 S
C1085 C1086 1.414 . S
C1085 C1088 1.499 . S
C1086 H1066 0.950 . S
C1086 C1085 1.414 . S
C1086 C1087 1.374 . S
C1087 H1067 0.950 . S
C1087 C1083 1.428 . S
C1087 C1086 1.374 . S
C1088 C1085 1.499 . S
C1088 C1089 1.373 . S
C1088 C1090 1.389 1_455 S
C1089 H1068 0.950 . S
C1089 C1088 1.373 . S
C1089 C1105 1.377 . S
C1090 C1088 1.389 1_655 S
C1090 C1091 1.524 . S
C1090 C1104 1.377 . S
C1091 C1090 1.524 . S
C1091 C1092 1.397 1_556 S
C1091 C1096 1.363 . S
C1092 H1069 0.950 . S
C1092 C1091 1.397 1_554 S
C1092 C1093 1.334 . S
C1093 H1070 0.950 . S
C1093 C1092 1.334 . S
C1093 C1094 1.287 . S
C1094 C1093 1.287 . S
C1094 C1095 1.524 1_554 S
C1094 H1113 0.913 . S
C1095 H1071 0.950 . S
C1095 C1094 1.524 1_556 S
C1095 C1096 1.415 . S
C1096 H1072 0.950 . S
C1096 C1091 1.363 . S
C1096 C1095 1.415 . S
C1097 H1073 0.951 . S
C1097 C1098 1.366 . S
C1097 C1099 1.388 . S
C1098 C1097 1.366 . S
C1098 C1102 1.385 1_455 S
C1099 H1074 0.951 . S
C1099 C1097 1.388 . S
C1099 C1100 1.366 . S
C1100 C1099 1.366 . S
C1100 C1101 1.414 1_455 S
C1100 C1103 1.499 . S
C1101 H1075 0.950 . S
C1101 C1100 1.414 1_655 S
C1101 C1102 1.374 . S
C1102 H1076 0.950 . S
C1102 C1098 1.385 1_655 S
C1102 C1101 1.374 . S
C1103 C1100 1.499 . S
C1103 C1104 1.373 1_455 S
C1103 C1105 1.389 . S
C1104 H1077 0.950 . S
C1104 C1090 1.377 . S
C1104 C1103 1.373 1_655 S
C1105 C1089 1.377 . S
C1105 C1103 1.389 . S
C1105 C1106 1.524 . S
C1106 C1105 1.524 . S
C1106 C1107 1.397 . S
C1106 C1111 1.363 . S
C1107 H1078 0.950 . S
C1107 C1106 1.397 . S
C1107 C1108 1.334 . S
C1108 H1079 0.950 . S
C1108 C1107 1.334 . S
C1108 C1109 1.287 . S
C1109 C1108 1.287 . S
C1109 C1110 1.524 . S
C1109 H1112 0.999 . S
C1110 H1080 0.950 . S
C1110 C1109 1.524 . S
C1110 C1111 1.415 . S
C1111 H1081 0.950 . S
C1111 C1106 1.363 . S
C1111 C1110 1.415 . S
H1112 C1109 0.999 . S
H1113 C1094 0.913 . S
H1114 C1132 0.951 1_554 S
H1115 C1134 0.962 . S
H1116 C1136 0.950 . S
H1117 C1137 0.950 . S
H1118 C1139 0.950 . S
H1119 C1142 0.950 . S
H1120 C1143 0.950 1_556 S
H1121 C1145 0.950 . S
H1122 C1146 0.950 . S
H1123 C1147 0.951 . S
H1124 C1149 0.951 . S
H1125 C1151 0.942 1_565 S
H1126 C1152 0.955 . S
H1127 C1154 0.950 . S
H1128 C1157 0.950 . S
H1129 C1158 0.950 . S
H1130 C1160 0.950 . S
H1131 C1161 0.950 . S
C1132 H1114 0.951 1_556 S
C1132 C1133 1.359 1_565 S
C1132 C1134 1.393 . S
C1133 C1132 1.359 1_545 S
C1133 C1137 1.395 . S
C1134 H1115 0.962 . S
C1134 C1132 1.393 . S
C1134 C1135 1.353 1_565 S
C1135 C1134 1.353 1_545 S
C1135 C1136 1.414 . S
C1135 C1138 1.499 . S
C1136 H1116 0.950 . S
C1136 C1135 1.414 . S
C1136 C1137 1.374 . S
C1137 H1117 0.950 . S
C1137 C1133 1.395 . S
C1137 C1136 1.374 . S
C1138 C1135 1.499 . S
C1138 C1139 1.373 1_545 S
C1138 C1140 1.389 . S
C1139 H1118 0.950 . S
C1139 C1138 1.373 1_565 S
C1139 C1155 1.377 . S
C1140 C1138 1.389 . S
C1140 C1141 1.524 . S
C1140 C1154 1.377 . S
C1141 C1140 1.524 . S
C1141 C1142 1.397 . S
C1141 C1146 1.363 1_556 S
C1142 H1119 0.950 . S
C1142 C1141 1.397 . S
C1142 C1143 1.334 1_556 S
C1143 H1120 0.950 1_554 S
C1143 C1142 1.334 1_554 S
C1143 C1144 1.287 . S
C1144 C1143 1.287 . S
C1144 C1145 1.524 . S
C1144 H1163 0.913 . S
C1145 H1121 0.950 . S
C1145 C1144 1.524 . S
C1145 C1146 1.415 . S
C1146 H1122 0.950 . S
C1146 C1141 1.363 1_554 S
C1146 C1145 1.415 . S
C1147 H1123 0.951 . S
C1147 C1148 1.366 . S
C1147 C1149 1.388 . S
C1148 C1147 1.366 . S
C1148 C1152 1.385 . S
C1149 H1124 0.951 . S
C1149 C1147 1.388 . S
C1149 C1150 1.366 . S
C1150 C1149 1.366 . S
C1150 C1151 1.414 . S
C1150 C1153 1.499 . S
C1151 H1125 0.942 1_545 S
C1151 C1150 1.414 . S
C1151 C1152 1.374 . S
C1152 H1126 0.955 . S
C1152 C1148 1.385 . S
C1152 C1151 1.374 . S
C1153 C1150 1.499 . S
C1153 C1154 1.373 . S
C1153 C1155 1.389 1_545 S
C1154 H1127 0.950 . S
C1154 C1140 1.377 . S
C1154 C1153 1.373 . S
C1155 C1139 1.377 . S
C1155 C1153 1.389 1_565 S
C1155 C1156 1.524 . S
C1156 C1155 1.524 . S
C1156 C1157 1.397 . S
C1156 C1161 1.363 . S
C1157 H1128 0.950 . S
C1157 C1156 1.397 . S
C1157 C1158 1.334 . S
C1158 H1129 0.950 . S
C1158 C1157 1.334 . S
C1158 C1159 1.287 . S
C1159 C1158 1.287 . S
C1159 C1160 1.524 . S
C1159 H1162 0.999 . S
C1160 H1130 0.950 . S
C1160 C1159 1.524 . S
C1160 C1161 1.415 . S
C1161 H1131 0.950 . S
C1161 C1156 1.363 . S
C1161 C1160 1.415 . S
H1162 C1159 0.999 . S
H1163 C1144 0.913 . S
H1164 C1182 0.945 1_554 S
H1165 C1184 0.951 . S
H1166 C1186 0.950 . S
H1167 C1187 0.950 . S
H1168 C1189 0.950 . S
H1169 C1192 0.950 . S
H1170 C1193 0.950 . S
H1171 C1195 0.950 . S
H1172 C1196 0.950 . S
H1173 C1197 0.951 . S
H1174 C1199 0.951 . S
H1175 C1201 0.950 . S
H1176 C1202 0.950 . S
H1177 C1204 0.950 . S
H1178 C1207 0.950 . S
H1179 C1208 0.950 . S
H1180 C1210 0.950 . S
H1181 C1211 0.950 . S
C1182 H1164 0.945 1_556 S
C1182 C1183 1.366 . S
C1182 C1184 1.388 . S
C1183 C1182 1.366 . S
C1183 C1187 1.385 . S
C1184 H1165 0.951 . S
C1184 C1182 1.388 . S
C1184 C1185 1.366 . S
C1185 C1184 1.366 . S
C1185 C1186 1.414 . S
C1185 C1188 1.499 . S
C1186 H1166 0.950 . S
C1186 C1185 1.414 . S
C1186 C1187 1.374 . S
C1187 H1167 0.950 . S
C1187 C1183 1.385 . S
C1187 C1186 1.374 . S
C1188 C1185 1.499 . S
C1188 C1189 1.373 . S
C1188 C1190 1.389 . S
C1189 H1168 0.950 . S
C1189 C1188 1.373 . S
C1189 C1205 1.377 . S
C1190 C1188 1.389 . S
C1190 C1191 1.524 . S
C1190 C1204 1.377 . S
C1191 C1190 1.524 . S
C1191 C1192 1.397 . S
C1191 C1196 1.363 . S
C1192 H1169 0.950 . S
C1192 C1191 1.397 . S
C1192 C1193 1.334 . S
C1193 H1170 0.950 . S
C1193 C1192 1.334 . S
C1193 C1194 1.287 . S
C1194 C1193 1.287 . S
C1194 C1195 1.524 . S
C1194 H1213 0.913 . S
C1195 H1171 0.950 . S
C1195 C1194 1.524 . S
C1195 C1196 1.415 . S
C1196 H1172 0.950 . S
C1196 C1191 1.363 . S
C1196 C1195 1.415 . S
C1197 H1173 0.951 . S
C1197 C1198 1.366 . S
C1197 C1199 1.388 . S
C1198 C1197 1.366 . S
C1198 C1202 1.385 . S
C1199 H1174 0.951 . S
C1199 C1197 1.388 . S
C1199 C1200 1.366 . S
C1200 C1199 1.366 . S
C1200 C1201 1.414 . S
C1200 C1203 1.499 . S
C1201 H1175 0.950 . S
C1201 C1200 1.414 . S
C1201 C1202 1.374 . S
C1202 H1176 0.950 . S
C1202 C1198 1.385 . S
C1202 C1201 1.374 . S
C1203 C1200 1.499 . S
C1203 C1204 1.373 . S
C1203 C1205 1.389 . S
C1204 H1177 0.950 . S
C1204 C1190 1.377 . S
C1204 C1203 1.373 . S
C1205 C1189 1.377 . S
C1205 C1203 1.389 . S
C1205 C1206 1.524 . S
C1206 C1205 1.524 . S
C1206 C1207 1.397 . S
C1206 C1211 1.363 . S
C1207 H1178 0.950 . S
C1207 C1206 1.397 . S
C1207 C1208 1.334 . S
C1208 H1179 0.950 . S
C1208 C1207 1.334 . S
C1208 C1209 1.287 . S
C1209 C1208 1.287 . S
C1209 C1210 1.524 . S
C1209 H1212 0.999 . S
C1210 H1180 0.950 . S
C1210 C1209 1.524 . S
C1210 C1211 1.415 . S
C1211 H1181 0.950 . S
C1211 C1206 1.363 . S
C1211 C1210 1.415 . S
H1212 C1209 0.999 . S
H1213 C1194 0.913 . S
H1214 C1232 0.951 1_554 S
H1215 C1234 0.951 . S
H1216 C1236 0.950 . S
H1217 C1237 0.950 . S
H1218 C1239 0.950 . S
H1219 C1242 0.950 . S
H1220 C1243 0.950 . S
H1221 C1245 0.950 . S
H1222 C1246 0.950 . S
H1223 C1247 0.951 . S
H1224 C1249 0.951 . S
H1225 C1251 0.950 . S
H1226 C1252 0.950 . S
H1227 C1254 0.950 . S
H1228 C1257 0.950 . S
H1229 C1258 0.950 . S
H1230 C1260 0.950 . S
H1231 C1261 0.950 . S
C1232 H1214 0.951 1_556 S
C1232 C1233 1.366 . S
C1232 C1234 1.388 . S
C1233 C1232 1.366 . S
C1233 C1237 1.385 . S
C1234 H1215 0.951 . S
C1234 C1232 1.388 . S
C1234 C1235 1.366 . S
C1235 C1234 1.366 . S
C1235 C1236 1.414 . S
C1235 C1238 1.499 . S
C1236 H1216 0.950 . S
C1236 C1235 1.414 . S
C1236 C1237 1.374 . S
C1237 H1217 0.950 . S
C1237 C1233 1.385 . S
C1237 C1236 1.374 . S
C1238 C1235 1.499 . S
C1238 C1239 1.373 . S
C1238 C1240 1.389 . S
C1239 H1218 0.950 . S
C1239 C1238 1.373 . S
C1239 C1255 1.377 . S
C1240 C1238 1.389 . S
C1240 C1241 1.524 . S
C1240 C1254 1.377 . S
C1241 C1240 1.524 . S
C1241 C1242 1.397 . S
C1241 C1246 1.363 1_556 S
C1242 H1219 0.950 . S
C1242 C1241 1.397 . S
C1242 C1243 1.334 . S
C1243 H1220 0.950 . S
C1243 C1242 1.334 . S
C1243 C1244 1.287 1_556 S
C1244 C1243 1.287 1_554 S
C1244 C1245 1.524 . S
C1244 H1263 0.913 . S
C1245 H1221 0.950 . S
C1245 C1244 1.524 . S
C1245 C1246 1.415 . S
C1246 H1222 0.950 . S
C1246 C1241 1.363 1_554 S
C1246 C1245 1.415 . S
C1247 H1223 0.951 . S
C1247 C1248 1.366 . S
C1247 C1249 1.388 . S
C1248 C1247 1.366 . S
C1248 C1252 1.385 . S
C1249 H1224 0.951 . S
C1249 C1247 1.388 . S
C1249 C1250 1.366 . S
C1250 C1249 1.366 . S
C1250 C1251 1.414 . S
C1250 C1253 1.499 . S
C1251 H1225 0.950 . S
C1251 C1250 1.414 . S
C1251 C1252 1.374 . S
C1252 H1226 0.950 . S
C1252 C1248 1.385 . S
C1252 C1251 1.374 . S
C1253 C1250 1.499 . S
C1253 C1254 1.373 . S
C1253 C1255 1.389 . S
C1254 H1227 0.950 . S
C1254 C1240 1.377 . S
C1254 C1253 1.373 . S
C1255 C1239 1.377 . S
C1255 C1253 1.389 . S
C1255 C1256 1.524 . S
C1256 C1255 1.524 . S
C1256 C1257 1.397 . S
C1256 C1261 1.363 . S
C1257 H1228 0.950 . S
C1257 C1256 1.397 . S
C1257 C1258 1.334 . S
C1258 H1229 0.950 . S
C1258 C1257 1.334 . S
C1258 C1259 1.287 . S
C1259 C1258 1.287 . S
C1259 C1260 1.524 . S
C1259 H1262 0.999 . S
C1260 H1230 0.950 . S
C1260 C1259 1.524 . S
C1260 C1261 1.415 . S
C1261 H1231 0.950 . S
C1261 C1256 1.363 . S
C1261 C1260 1.415 . S
H1262 C1259 0.999 . S
H1263 C1244 0.913 . S
H1264 C1282 0.951 . S
H1265 C1284 0.951 . S
H1266 C1286 0.950 . S
H1267 C1287 0.950 . S
H1268 C1289 0.950 . S
H1269 C1292 0.950 . S
H1270 C1293 0.950 . S
H1271 C1295 0.950 . S
H1272 C1296 0.950 . S
H1273 C1297 0.951 . S
H1274 C1299 0.951 . S
H1275 C1301 0.950 . S
H1276 C1302 0.950 . S
H1277 C1304 0.950 . S
H1278 C1307 0.950 . S
H1279 C1308 0.950 . S
H1280 C1310 0.950 . S
H1281 C1311 0.950 . S
C1282 H1264 0.951 . S
C1282 C1283 1.386 . S
C1282 C1284 1.388 . S
C1283 C1282 1.386 . S
C1283 C1287 1.368 1_655 S
C1284 H1265 0.951 . S
C1284 C1282 1.388 . S
C1284 C1285 1.366 . S
C1285 C1284 1.366 . S
C1285 C1286 1.414 1_655 S
C1285 C1288 1.499 . S
C1286 H1266 0.950 . S
C1286 C1285 1.414 1_455 S
C1286 C1287 1.374 . S
C1287 H1267 0.950 . S
C1287 C1283 1.368 1_455 S
C1287 C1286 1.374 . S
C1288 C1285 1.499 . S
C1288 C1289 1.373 1_655 S
C1288 C1290 1.389 . S
C1289 H1268 0.950 . S
C1289 C1288 1.373 1_455 S
C1289 C1305 1.377 . S
C1290 C1288 1.389 . S
C1290 C1291 1.524 . S
C1290 C1304 1.377 . S
C1291 C1290 1.524 . S
C1291 C1292 1.397 . S
C1291 C1296 1.363 . S
C1292 H1269 0.950 . S
C1292 C1291 1.397 . S
C1292 C1293 1.334 . S
C1293 H1270 0.950 . S
C1293 C1292 1.334 . S
C1293 C1294 1.287 . S
C1294 C1293 1.287 . S
C1294 C1295 1.524 . S
C1294 H1313 0.913 . S
C1295 H1271 0.950 . S
C1295 C1294 1.524 . S
C1295 C1296 1.415 . S
C1296 H1272 0.950 . S
C1296 C1291 1.363 . S
C1296 C1295 1.415 . S
C1297 H1273 0.951 . S
C1297 C1298 1.366 1_455 S
C1297 C1299 1.388 . S
C1298 C1297 1.366 1_655 S
C1298 C1302 1.385 . S
C1299 H1274 0.951 . S
C1299 C1297 1.388 . S
C1299 C1300 1.366 1_455 S
C1300 C1299 1.366 1_655 S
C1300 C1301 1.414 . S
C1300 C1303 1.499 . S
C1301 H1275 0.950 . S
C1301 C1300 1.414 . S
C1301 C1302 1.374 . S
C1302 H1276 0.950 . S
C1302 C1298 1.385 . S
C1302 C1301 1.374 . S
C1303 C1300 1.499 . S
C1303 C1304 1.373 . S
C1303 C1305 1.389 1_655 S
C1304 H1277 0.950 . S
C1304 C1290 1.377 . S
C1304 C1303 1.373 . S
C1305 C1289 1.377 . S
C1305 C1303 1.389 1_455 S
C1305 C1306 1.524 . S
C1306 C1305 1.524 . S
C1306 C1307 1.397 . S
C1306 C1311 1.363 . S
C1307 H1278 0.950 . S
C1307 C1306 1.397 . S
C1307 C1308 1.334 . S
C1308 H1279 0.950 . S
C1308 C1307 1.334 . S
C1308 C1309 1.287 . S
C1309 C1308 1.287 . S
C1309 C1310 1.524 . S
C1309 H1312 0.999 . S
C1310 H1280 0.950 . S
C1310 C1309 1.524 . S
C1310 C1311 1.415 . S
C1311 H1281 0.950 . S
C1311 C1306 1.363 . S
C1311 C1310 1.415 . S
H1312 C1309 0.999 . S
H1313 C1294 0.913 . S
H1314 C1332 0.951 . S
H1315 C1334 0.951 . S
H1316 C1336 0.950 . S
H1317 C1337 0.950 . S
H1318 C1339 0.950 . S
H1319 C1342 0.950 . S
H1320 C1343 0.950 . S
H1321 C1345 0.950 . S
H1322 C1346 0.950 . S
H1323 C1347 0.951 . S
H1324 C1349 0.951 . S
H1325 C1351 0.955 . S
H1326 C1352 0.947 1_545 S
H1327 C1354 0.950 . S
H1328 C1357 0.950 . S
H1329 C1358 0.950 . S
H1330 C1360 0.950 . S
H1331 C1361 0.950 . S
C1332 H1314 0.951 . S
C1332 C1333 1.355 1_545 S
C1332 C1334 1.388 . S
C1333 C1332 1.355 1_565 S
C1333 C1337 1.397 . S
C1334 H1315 0.951 . S
C1334 C1332 1.388 . S
C1334 C1335 1.366 1_545 S
C1335 C1334 1.366 1_565 S
C1335 C1336 1.414 . S
C1335 C1338 1.499 . S
C1336 H1316 0.950 . S
C1336 C1335 1.414 . S
C1336 C1337 1.374 . S
C1337 H1317 0.950 . S
C1337 C1333 1.397 . S
C1337 C1336 1.374 . S
C1338 C1335 1.499 . S
C1338 C1339 1.373 . S
C1338 C1340 1.389 1_565 S
C1339 H1318 0.950 . S
C1339 C1338 1.373 . S
C1339 C1355 1.377 . S
C1340 C1338 1.389 1_545 S
C1340 C1341 1.524 . S
C1340 C1354 1.377 . S
C1341 C1340 1.524 . S
C1341 C1342 1.397 . S
C1341 C1346 1.363 . S
C1342 H1319 0.950 . S
C1342 C1341 1.397 . S
C1342 C1343 1.334 . S
C1343 H1320 0.950 . S
C1343 C1342 1.334 . S
C1343 C1344 1.287 . S
C1344 C1343 1.287 . S
C1344 C1345 1.524 . S
C1344 H1363 0.913 . S
C1345 H1321 0.950 . S
C1345 C1344 1.524 . S
C1345 C1346 1.415 . S
C1346 H1322 0.950 . S
C1346 C1341 1.363 . S
C1346 C1345 1.415 . S
C1347 H1323 0.951 . S
C1347 C1348 1.366 . S
C1347 C1349 1.388 . S
C1348 C1347 1.366 . S
C1348 C1352 1.388 . S
C1349 H1324 0.951 . S
C1349 C1347 1.388 . S
C1349 C1350 1.366 . S
C1350 C1349 1.366 . S
C1350 C1351 1.410 1_565 S
C1350 C1353 1.499 . S
C1351 H1325 0.955 . S
C1351 C1350 1.410 1_545 S
C1351 C1352 1.373 1_545 S
C1352 H1326 0.947 1_565 S
C1352 C1348 1.388 . S
C1352 C1351 1.373 1_565 S
C1353 C1350 1.499 . S
C1353 C1354 1.373 1_565 S
C1353 C1355 1.389 . S
C1354 H1327 0.950 . S
C1354 C1340 1.377 . S
C1354 C1353 1.373 1_545 S
C1355 C1339 1.377 . S
C1355 C1353 1.389 . S
C1355 C1356 1.524 . S
C1356 C1355 1.524 . S
C1356 C1357 1.397 . S
C1356 C1361 1.363 . S
C1357 H1328 0.950 . S
C1357 C1356 1.397 . S
C1357 C1358 1.334 . S
C1358 H1329 0.950 . S
C1358 C1357 1.334 . S
C1358 C1359 1.287 . S
C1359 C1358 1.287 . S
C1359 C1360 1.524 . S
C1359 H1362 0.999 . S
C1360 H1330 0.950 . S
C1360 C1359 1.524 . S
C1360 C1361 1.415 . S
C1361 H1331 0.950 . S
C1361 C1356 1.363 . S
C1361 C1360 1.415 . S
H1362 C1359 0.999 . S
H1363 C1344 0.913 . S
H1364 C1382 0.951 . S
H1365 C1384 0.951 . S
H1366 C1386 0.950 . S
H1367 C1387 0.950 . S
H1368 C1389 0.950 . S
H1369 C1392 0.950 . S
H1370 C1393 0.950 . S
H1371 C1395 0.950 . S
H1372 C1396 0.950 . S
H1373 C1397 0.951 . S
H1374 C1399 0.951 . S
H1375 C1401 0.950 . S
H1376 C1402 0.950 . S
H1377 C1404 0.950 . S
H1378 C1407 0.950 . S
H1379 C1408 0.950 . S
H1380 C1410 0.950 . S
H1381 C1411 0.950 . S
C1382 H1364 0.951 . S
C1382 C1383 1.366 . S
C1382 C1384 1.388 . S
C1383 C1382 1.366 . S
C1383 C1387 1.385 . S
C1384 H1365 0.951 . S
C1384 C1382 1.388 . S
C1384 C1385 1.366 . S
C1385 C1384 1.366 . S
C1385 C1386 1.414 . S
C1385 C1388 1.499 . S
C1386 H1366 0.950 . S
C1386 C1385 1.414 . S
C1386 C1387 1.374 . S
C1387 H1367 0.950 . S
C1387 C1383 1.385 . S
C1387 C1386 1.374 . S
C1388 C1385 1.499 . S
C1388 C1389 1.373 . S
C1388 C1390 1.389 . S
C1389 H1368 0.950 . S
C1389 C1388 1.373 . S
C1389 C1405 1.377 . S
C1390 C1388 1.389 . S
C1390 C1391 1.524 . S
C1390 C1404 1.377 . S
C1391 C1390 1.524 . S
C1391 C1392 1.397 . S
C1391 C1396 1.363 . S
C1392 H1369 0.950 . S
C1392 C1391 1.397 . S
C1392 C1393 1.334 . S
C1393 H1370 0.950 . S
C1393 C1392 1.334 . S
C1393 C1394 1.287 . S
C1394 C1393 1.287 . S
C1394 C1395 1.524 . S
C1394 H1413 0.913 . S
C1395 H1371 0.950 . S
C1395 C1394 1.524 . S
C1395 C1396 1.415 . S
C1396 H1372 0.950 . S
C1396 C1391 1.363 . S
C1396 C1395 1.415 . S
C1397 H1373 0.951 . S
C1397 C1398 1.366 . S
C1397 C1399 1.388 . S
C1398 C1397 1.366 . S
C1398 C1402 1.385 . S
C1399 H1374 0.951 . S
C1399 C1397 1.388 . S
C1399 C1400 1.366 . S
C1400 C1399 1.366 . S
C1400 C1401 1.414 . S
C1400 C1403 1.499 . S
C1401 H1375 0.950 . S
C1401 C1400 1.414 . S
C1401 C1402 1.374 . S
C1402 H1376 0.950 . S
C1402 C1398 1.385 . S
C1402 C1401 1.374 . S
C1403 C1400 1.499 . S
C1403 C1404 1.373 . S
C1403 C1405 1.389 . S
C1404 H1377 0.950 . S
C1404 C1390 1.377 . S
C1404 C1403 1.373 . S
C1405 C1389 1.377 . S
C1405 C1403 1.389 . S
C1405 C1406 1.524 . S
C1406 C1405 1.524 . S
C1406 C1407 1.397 . S
C1406 C1411 1.363 . S
C1407 H1378 0.950 . S
C1407 C1406 1.397 . S
C1407 C1408 1.334 . S
C1408 H1379 0.950 . S
C1408 C1407 1.334 . S
C1408 C1409 1.287 . S
C1409 C1408 1.287 . S
C1409 C1410 1.524 . S
C1409 H1412 0.999 . S
C1410 H1380 0.950 . S
C1410 C1409 1.524 . S
C1410 C1411 1.415 . S
C1411 H1381 0.950 . S
C1411 C1406 1.363 . S
C1411 C1410 1.415 . S
H1412 C1409 0.999 . S
H1413 C1394 0.913 . S
H1414 C1432 0.951 . S
H1415 C1434 0.951 . S
H1416 C1436 0.950 . S
H1417 C1437 0.950 . S
H1418 C1439 0.950 . S
H1419 C1442 0.950 . S
H1420 C1443 0.950 . S
H1421 C1445 0.950 . S
H1422 C1446 0.950 . S
H1423 C1447 0.951 . S
H1424 C1449 0.951 . S
H1425 C1451 0.950 . S
H1426 C1452 0.950 . S
H1427 C1454 0.950 . S
H1428 C1457 0.950 . S
H1429 C1458 0.950 . S
H1430 C1460 0.950 . S
H1431 C1461 0.950 . S
C1432 H1414 0.951 . S
C1432 C1433 1.366 . S
C1432 C1434 1.388 . S
C1433 C1432 1.366 . S
C1433 C1437 1.385 . S
C1434 H1415 0.951 . S
C1434 C1432 1.388 . S
C1434 C1435 1.366 . S
C1435 C1434 1.366 . S
C1435 C1436 1.414 . S
C1435 C1438 1.499 . S
C1436 H1416 0.950 . S
C1436 C1435 1.414 . S
C1436 C1437 1.374 . S
C1437 H1417 0.950 . S
C1437 C1433 1.385 . S
C1437 C1436 1.374 . S
C1438 C1435 1.499 . S
C1438 C1439 1.373 . S
C1438 C1440 1.389 . S
C1439 H1418 0.950 . S
C1439 C1438 1.373 . S
C1439 C1455 1.377 . S
C1440 C1438 1.389 . S
C1440 C1441 1.524 . S
C1440 C1454 1.377 . S
C1441 C1440 1.524 . S
C1441 C1442 1.397 . S
C1441 C1446 1.363 . S
C1442 H1419 0.950 . S
C1442 C1441 1.397 . S
C1442 C1443 1.334 . S
C1443 H1420 0.950 . S
C1443 C1442 1.334 . S
C1443 C1444 1.287 . S
C1444 C1443 1.287 . S
C1444 C1445 1.524 . S
C1444 H1463 0.913 . S
C1445 H1421 0.950 . S
C1445 C1444 1.524 . S
C1445 C1446 1.415 . S
C1446 H1422 0.950 . S
C1446 C1441 1.363 . S
C1446 C1445 1.415 . S
C1447 H1423 0.951 . S
C1447 C1448 1.366 . S
C1447 C1449 1.388 . S
C1448 C1447 1.366 . S
C1448 C1452 1.385 . S
C1449 H1424 0.951 . S
C1449 C1447 1.388 . S
C1449 C1450 1.366 . S
C1450 C1449 1.366 . S
C1450 C1451 1.414 . S
C1450 C1453 1.499 . S
C1451 H1425 0.950 . S
C1451 C1450 1.414 . S
C1451 C1452 1.374 . S
C1452 H1426 0.950 . S
C1452 C1448 1.385 . S
C1452 C1451 1.374 . S
C1453 C1450 1.499 . S
C1453 C1454 1.373 . S
C1453 C1455 1.389 . S
C1454 H1427 0.950 . S
C1454 C1440 1.377 . S
C1454 C1453 1.373 . S
C1455 C1439 1.377 . S
C1455 C1453 1.389 . S
C1455 C1456 1.524 . S
C1456 C1455 1.524 . S
C1456 C1457 1.397 . S
C1456 C1461 1.363 . S
C1457 H1428 0.950 . S
C1457 C1456 1.397 . S
C1457 C1458 1.334 . S
C1458 H1429 0.950 . S
C1458 C1457 1.334 . S
C1458 C1459 1.287 . S
C1459 C1458 1.287 . S
C1459 C1460 1.524 . S
C1459 H1462 0.999 . S
C1460 H1430 0.950 . S
C1460 C1459 1.524 . S
C1460 C1461 1.415 . S
C1461 H1431 0.950 . S
C1461 C1456 1.363 . S
C1461 C1460 1.415 . S
H1462 C1459 0.999 . S
H1463 C1444 0.913 . S
C283 C82 1.632 . S
C298 C122 1.840 1_545 S
C348 C162 1.849 . S
C333 C95 1.627 . S
C398 C202 1.851 . S
C383 C56 1.634 . S
C448 C242 1.846 1_455 S
C433 C69 1.634 . S
C498 C112 1.845 1_565 S
C483 C30 1.636 . S
C533 C43 1.635 . S
C548 C152 1.854 . S
C583 C4 1.637 . S
C598 C192 1.850 . S
C633 C17 1.633 1_655 S
C648 C232 1.847 1_655 S
C698 C109 0.308 . S
C683 C74 0.371 . S
C748 C149 0.313 . S
C733 C87 0.376 . S
C798 C189 0.315 . S
C783 C100 0.373 . S
C833 C61 0.371 . S
C848 C229 0.308 . S
C883 C22 0.374 1_655 S
C898 C119 0.308 . S
C948 C159 0.311 . S
C933 C35 0.368 1_565 S
C998 C199 0.317 . S
C983 C48 0.380 . S
C1033 C9 0.374 . S
C1048 C239 0.316 . S
C1083 C73 1.895 . S
C1098 C113 2.059 . S
C1133 C86 1.887 . S
C1148 C153 2.057 . S
C1198 C193 2.052 . S
C1183 C99 1.881 . S
C1248 C233 2.061 . S
C1233 C60 1.884 . S
C1283 C21 1.895 1_655 S
C1298 C123 2.074 . S
C1348 C163 2.057 . S
C1333 C34 1.886 1_565 S
C1398 C203 2.052 . S
C1383 C47 1.883 . S
C1433 C8 1.891 . S
C1448 C243 2.067 . S
