# Generated by pormake.
# Topology zzz, (3,6)-cn, num edge types: 1
# Building blocks:
#     Node 0, Type 0, BuildingBlock: CUQRIR_clean_linker_1, # of connection points: 3
#     Node 1, Type 0, BuildingBlock: CUQRIR_clean_linker_1, # of connection points: 3
#     Node 2, Type 0, BuildingBlock: CUQRIR_clean_linker_1, # of connection points: 3
#     Node 3, Type 0, BuildingBlock: CUQRIR_clean_linker_1, # of connection points: 3
#     Node 4, Type 0, BuildingBlock: CUQRIR_clean_linker_1, # of connection points: 3
#     Node 5, Type 0, BuildingBlock: CUQRIR_clean_linker_1, # of connection points: 3
#     Node 6, Type 0, BuildingBlock: CUQRIR_clean_linker_1, # of connection points: 3
#     Node 7, Type 0, BuildingBlock: CUQRIR_clean_linker_1, # of connection points: 3
#     Node 8, Type 1, BuildingBlock: KUMJIN_clean_sbu_1, # of connection points: 6
#     Node 9, Type 1, BuildingBlock: KUMJIN_clean_sbu_1, # of connection points: 6
#     Node 10, Type 1, BuildingBlock: KUMJIN_clean_sbu_1, # of connection points: 6
#     Node 11, Type 1, BuildingBlock: KUMJIN_clean_sbu_1, # of connection points: 6
#     Edge 12, Type (0, 1), BuildingBlock: KIFKEQ_clean_linker_1, # of connection points: 2
#     Edge 13, Type (0, 1), BuildingBlock: KIFKEQ_clean_linker_1, # of connection points: 2
#     Edge 14, Type (0, 1), BuildingBlock: KIFKEQ_clean_linker_1, # of connection points: 2
#     Edge 15, Type (0, 1), BuildingBlock: KIFKEQ_clean_linker_1, # of connection points: 2
#     Edge 16, Type (0, 1), BuildingBlock: KIFKEQ_clean_linker_1, # of connection points: 2
#     Edge 17, Type (0, 1), BuildingBlock: KIFKEQ_clean_linker_1, # of connection points: 2
#     Edge 18, Type (0, 1), BuildingBlock: KIFKEQ_clean_linker_1, # of connection points: 2
#     Edge 19, Type (0, 1), BuildingBlock: KIFKEQ_clean_linker_1, # of connection points: 2
#     Edge 20, Type (0, 1), BuildingBlock: KIFKEQ_clean_linker_1, # of connection points: 2
#     Edge 21, Type (0, 1), BuildingBlock: KIFKEQ_clean_linker_1, # of connection points: 2
#     Edge 22, Type (0, 1), BuildingBlock: KIFKEQ_clean_linker_1, # of connection points: 2
#     Edge 23, Type (0, 1), BuildingBlock: KIFKEQ_clean_linker_1, # of connection points: 2
#     Edge 24, Type (0, 1), BuildingBlock: KIFKEQ_clean_linker_1, # of connection points: 2
#     Edge 25, Type (0, 1), BuildingBlock: KIFKEQ_clean_linker_1, # of connection points: 2
#     Edge 26, Type (0, 1), BuildingBlock: KIFKEQ_clean_linker_1, # of connection points: 2
#     Edge 27, Type (0, 1), BuildingBlock: KIFKEQ_clean_linker_1, # of connection points: 2
#     Edge 28, Type (0, 1), BuildingBlock: KIFKEQ_clean_linker_1, # of connection points: 2
#     Edge 29, Type (0, 1), BuildingBlock: KIFKEQ_clean_linker_1, # of connection points: 2
#     Edge 30, Type (0, 1), BuildingBlock: KIFKEQ_clean_linker_1, # of connection points: 2
#     Edge 31, Type (0, 1), BuildingBlock: KIFKEQ_clean_linker_1, # of connection points: 2
#     Edge 32, Type (0, 1), BuildingBlock: KIFKEQ_clean_linker_1, # of connection points: 2
#     Edge 33, Type (0, 1), BuildingBlock: KIFKEQ_clean_linker_1, # of connection points: 2
#     Edge 34, Type (0, 1), BuildingBlock: KIFKEQ_clean_linker_1, # of connection points: 2
#     Edge 35, Type (0, 1), BuildingBlock: KIFKEQ_clean_linker_1, # of connection points: 2
# Relax obj value: 0.213
# Max RMSD: 0.111
# Mean RMSD: 0.089
data_MOF--net-zzz--node1-KUMJIN_clean_sbu_1--node2-CUQRIR_clean_linker_1--edge1-KIFKEQ_clean_linker_1
_symmetry_space_group_name_H-M    P1
_symmetry_Int_Tables_number       1
_symmetry_cell_setting            triclinic
loop_
_symmetry_equiv_pos_as_xyz
'x, y, z'
_cell_length_a     47.144169
_cell_length_b     47.001414
_cell_length_c     14.354249
_cell_angle_alpha  90.250335
_cell_angle_beta   89.65059
_cell_angle_gamma 90.198294
loop_
_atom_site_label
_atom_site_type_symbol
_atom_site_fract_x
_atom_site_fract_y
_atom_site_fract_z
_atom_type_partial_charge
C0 C 0.74856 0.55395 0.35768 0.0
N1 N 0.77637 0.54572 0.35218 0.0
N2 N 0.73469 0.54873 0.27557 0.0
C3 C 0.73506 0.56686 0.44244 0.0
C4 C 0.75507 0.53719 0.22084 0.0
N5 N 0.77992 0.53544 0.26667 0.0
C6 C 0.75088 0.52795 0.12117 0.0
H7 H 0.74283 0.55611 0.50603 0.0
H8 H 0.71159 0.56537 0.43895 0.0
H9 H 0.7413 0.58961 0.44689 0.0
H10 H 0.75677 0.54587 0.07474 0.0
H11 H 0.7285 0.52209 0.10727 0.0
H12 H 0.76471 0.50962 0.1036 0.0
C13 C 1.00556 0.76266 0.36147 0.0
N14 N 1.01243 0.79089 0.35273 0.0
N15 N 1.00902 0.74838 0.2786 0.0
C16 C 0.9959 0.74892 0.44991 0.0
C17 C 1.01823 0.76893 0.22008 0.0
N18 N 1.02005 0.79432 0.26433 0.0
C19 C 0.02685 0.76397 0.11998 0.0
H20 H 0.98923 0.76504 0.50228 0.0
H21 H 1.01368 0.73634 0.47851 0.0
H22 H 0.97814 0.73404 0.43518 0.0
H23 H 1.00943 0.77111 0.0741 0.0
H24 H 0.0311 0.74121 0.10508 0.0
H25 H 0.04608 0.77658 0.10242 0.0
C26 C 0.80694 1.01856 0.35452 0.0
N27 N 0.78319 1.00369 0.38021 0.0
N28 N 0.82577 1.00171 0.30683 0.0
C29 C 0.81151 0.04953 0.3747 0.0
C30 C 0.81237 0.97611 0.305 0.0
N31 N 0.78638 0.97738 0.34643 0.0
C32 C 0.82359 0.9502 0.25452 0.0
H33 H 0.80101 0.06222 0.31988 0.0
H34 H 0.83448 0.05478 0.37478 0.0
H35 H 0.80185 0.05534 0.44283 0.0
H36 H 0.84266 0.94226 0.29075 0.0
H37 H 0.82985 0.95588 0.18227 0.0
H38 H 0.80802 0.93248 0.25308 0.0
C39 C 0.54445 0.81102 0.3547 0.0
N40 N 0.55347 0.78333 0.35723 0.0
N41 N 0.55185 0.82378 0.27218 0.0
C42 C 0.52875 0.82556 0.43221 0.0
C43 C 0.5651 0.80267 0.22467 0.0
N44 N 0.56648 0.77857 0.27609 0.0
C45 C 0.57329 0.80455 0.12294 0.0
H46 H 0.50571 0.82149 0.42374 0.0
H47 H 0.53243 0.84889 0.43014 0.0
H48 H 0.53531 0.81694 0.50061 0.0
H49 H 0.59646 0.80838 0.11727 0.0
H50 H 0.56211 0.82207 0.0872 0.0
H51 H 0.5682 0.78446 0.08572 0.0
C52 C 0.29464 0.52978 0.12029 0.0
N53 N 0.26892 0.51756 0.10234 0.0
N54 N 0.30966 0.51411 0.18296 0.0
C55 C 0.30389 0.55814 0.0837 0.0
C56 C 0.2919 0.49215 0.20253 0.0
N57 N 0.26746 0.4941 0.15377 0.0
C58 C 0.29812 0.46924 0.27215 0.0
H59 H 0.29487 0.56183 1.01355 0.0
H60 H 0.32737 0.55958 0.08074 0.0
H61 H 0.29592 0.57501 0.13133 0.0
H62 H 0.29244 0.477 0.34292 0.0
H63 H 0.32108 0.46409 0.27153 0.0
H64 H 0.28559 0.44974 0.25711 0.0
C65 C 0.03925 0.31726 0.10426 0.0
N66 N 0.05183 0.29141 0.09006 0.0
N67 N 0.05279 0.33247 0.17259 0.0
C68 C 1.01414 0.32772 0.05114 0.0
C69 C 0.07359 0.31454 0.20024 0.0
N70 N 0.07326 0.29007 0.14985 0.0
C71 C 0.09176 0.31938 0.28508 0.0
H72 H 1.0144 0.3513 0.04693 0.0
H73 H 0.9945 0.32107 0.08817 0.0
H74 H 1.01383 0.31834 0.98007 0.0
H75 H 0.0816 0.33436 0.33489 0.0
H76 H 0.11246 0.32845 0.2628 0.0
H77 H 0.09578 0.29915 0.32213 0.0
C78 C 0.25814 0.04587 0.11424 0.0
N79 N 0.28481 0.05676 0.10155 0.0
N80 N 0.24509 0.05784 0.19031 0.0
C81 C 0.246 1.02184 0.05829 0.0
C82 C 0.26499 0.07614 0.223 0.0
N83 N 0.28884 0.07546 0.17001 0.0
C84 C 0.26145 0.09414 0.30916 0.0
H85 H 0.22248 1.02277 0.05836 0.0
H86 H 0.25252 1.00143 0.09012 0.0
H87 H 0.25425 1.02244 0.98574 0.0
H88 H 0.26704 0.08137 0.37117 0.0
H89 H 0.23909 0.1011 0.31696 0.0
H90 H 0.27558 0.11307 0.30654 0.0
C91 C 0.5192 0.26884 0.1336 0.0
N92 N 0.50531 0.29345 0.11268 0.0
N93 N 0.50352 0.25219 0.19286 0.0
C94 C 0.54823 0.26144 0.09839 0.0
C95 C 0.47984 0.26797 0.20774 0.0
N96 N 0.48089 0.29278 0.1597 0.0
C97 C 0.45663 0.26005 0.27551 0.0
H98 H 0.55191 0.27073 0.02837 0.0
H99 H 0.55102 0.23801 0.09556 0.0
H100 H 0.5642 0.27049 0.14672 0.0
H101 H 0.46598 0.25541 0.34456 0.0
H102 H 0.4458 0.24047 0.25091 0.0
H103 H 0.44045 0.27698 0.2829 0.0
Eu104 Eu 1.00398 0.05542 0.64489 0.0
C105 C 0.06185 0.0447 0.03833 0.0
N106 N 0.07223 0.05534 0.95728 0.0
C107 C 0.09369 0.09418 0.04036 0.0
C108 C 0.06569 0.05932 0.12341 0.0
C109 C 0.08961 0.07864 0.95816 0.0
C110 C 0.08112 0.08481 0.12306 0.0
C111 C 0.04163 1.00466 0.12157 0.0
C112 C 0.0501 1.01771 0.0375 0.0
C113 C 0.04348 1.01996 0.20564 0.0
C114 C 0.05543 0.0473 0.2065 0.0
Eu115 Eu 0.06216 0.02913 0.81974 0.0
N116 N 0.04928 1.0033 0.95548 0.0
C117 C 0.03282 0.97619 0.11917 0.0
C118 C 0.04239 0.975 0.95361 0.0
C119 C 0.03374 0.96114 0.03507 0.0
H120 H 0.10038 0.08521 0.8951 0.0
H121 H 0.02782 0.93888 0.03295 0.0
H122 H 0.9559 0.09483 0.76079 0.0
H123 H 0.98684 0.99287 0.3295 0.0
H124 H 0.04305 0.96326 0.8888 0.0
H125 H 0.02624 0.96537 0.18226 0.0
H126 H 1.01424 1.02255 0.44071 0.0
H127 H 0.10684 0.11311 0.0401 0.0
H128 H 0.03681 1.01043 0.2708 0.0
H129 H 0.05774 0.05847 0.27222 0.0
H130 H 0.90397 0.09576 0.78593 0.0
H131 H 0.08466 0.09658 0.18693 0.0
H132 H 0.9356 0.98445 0.35719 0.0
N133 N 0.9543 0.061 0.66223 0.0
C134 C 0.9376 0.04397 0.60963 0.0
C135 C 0.91315 0.08091 0.73652 0.0
C136 C 0.90788 0.04384 0.62074 0.0
C137 C 0.94254 0.08028 0.72232 0.0
C138 C 0.89575 0.06225 0.68658 0.0
N139 N 0.97864 0.03086 0.52788 0.0
C140 C 0.99172 1.01948 0.45133 0.0
C141 C 0.93377 1.01158 0.47908 0.0
C142 C 0.95026 0.02828 0.53987 0.0
C143 C 0.94735 0.99802 0.4042 0.0
C144 C 0.97631 1.00267 0.3886 0.0
H145 H 0.87299 0.06282 0.69736 0.0
H146 H 0.86848 1.02515 0.57233 0.0
H147 H 0.89127 0.99639 0.44987 0.0
O148 O 0.03322 0.08916 0.60776 0.0
O149 O 1.0095 1.0068 0.63396 0.0
O150 O 0.04368 0.99111 0.73858 0.0
O151 O 0.99079 0.08847 0.54525 0.0
O152 O 0.04509 0.03661 0.58444 0.0
O153 O 0.07283 0.0562 0.69416 0.0
O154 O 0.10456 1.02096 0.87412 0.0
O155 O 0.05698 0.07767 0.80052 0.0
O156 O 1.00942 0.08202 0.77788 0.0
O157 O 0.09332 1.00531 0.73809 0.0
O158 O 1.01586 1.01589 0.85487 0.0
O159 O 0.98928 0.05225 0.79582 0.0
C160 C 0.02474 0.98629 0.6724 0.0
C161 C 0.02356 0.12659 0.50029 0.0
C162 C 0.06087 0.15776 0.44334 0.0
C163 C 0.04028 0.1782 0.42119 0.0
C164 C 1.00314 0.14686 0.47643 0.0
C165 C 1.01155 0.17264 0.43703 0.0
C166 C 0.05242 0.13189 0.4821 0.0
C167 C 0.07036 0.04536 0.61018 0.0
C168 C 1.01535 0.10121 0.55225 0.0
C169 C 0.89133 0.02598 0.56402 0.0
C170 C 0.90431 1.00971 0.49373 0.0
C171 C 0.03358 0.09295 0.80672 0.0
C172 C 0.12767 0.97988 0.81836 0.0
C173 C 0.12908 0.93406 0.89452 0.0
C174 C 0.152 0.92599 0.83753 0.0
C175 C 0.15078 0.97198 0.76212 0.0
C176 C 0.11731 0.96112 0.88541 0.0
C177 C 0.16306 0.94514 0.77233 0.0
C178 C 0.99275 0.03168 0.85626 0.0
C179 C 0.11286 1.00656 0.80134 0.0
H180 H 0.0464 0.19825 0.38985 0.0
H181 H 0.98084 0.14311 0.49068 0.0
H182 H 0.99583 0.18841 0.41929 0.0
H183 H 0.06832 0.11613 0.49906 0.0
H184 H 0.16113 0.90495 0.84314 0.0
H185 H 0.15891 0.98632 0.70931 0.0
H186 H 0.09923 0.9671 0.92782 0.0
H187 H 0.18073 0.93894 0.72831 0.0
Eu188 Eu 0.5429 0.06017 0.83575 0.0
C189 C 0.52296 0.94449 0.68319 0.0
N190 N 0.54106 0.96546 0.65592 0.0
C191 C 0.57968 0.93242 0.65211 0.0
C192 C 0.53297 0.91681 0.70089 0.0
C193 C 0.56884 0.95962 0.63632 0.0
C194 C 0.56176 0.91101 0.68579 0.0
C195 C 0.47499 0.92931 0.71956 0.0
C196 C 0.49432 0.95075 0.69216 0.0
C197 C 0.48504 0.90204 0.7413 0.0
C198 C 0.51394 0.89578 0.7317 0.0
Eu199 Eu 0.52118 1.01075 0.62944 0.0
N200 N 0.48517 0.97725 0.66933 0.0
C201 C 0.44602 0.93562 0.72139 0.0
C202 C 0.45675 0.98263 0.66346 0.0
C203 C 0.43685 0.96224 0.69161 0.0
H204 H 0.58266 0.97614 0.60997 0.0
H205 H 0.41441 0.96692 0.68879 0.0
H206 H 0.48594 0.07203 0.97599 0.0
H207 H 0.6245 0.13583 0.72801 0.0
H208 H 0.44911 1.00241 0.63544 0.0
H209 H 0.43052 0.91976 0.74214 0.0
H210 H 0.60345 0.08838 0.75517 0.0
H211 H 0.60184 0.92799 0.63843 0.0
H212 H 0.47052 0.88542 0.76325 0.0
H213 H 0.52128 0.87447 0.7467 0.0
H214 H 0.4574 0.11254 0.03135 0.0
H215 H 0.57025 0.88999 0.69835 0.0
H216 H 0.59751 0.17913 0.76998 0.0
N217 N 0.51467 0.09759 0.89745 0.0
C218 C 0.52397 0.12448 0.88009 0.0
C219 C 0.47584 0.11618 0.98777 0.0
C220 C 0.50889 0.14836 0.9137 0.0
C221 C 0.49176 0.09321 0.95442 0.0
C222 C 0.4842 0.14388 0.96621 0.0
N223 N 0.56449 0.10471 0.80767 0.0
C224 C 0.59137 0.10714 0.77251 0.0
C225 C 0.56112 0.15565 0.82179 0.0
C226 C 0.54978 0.12812 0.83486 0.0
C227 C 0.58808 0.15836 0.78127 0.0
C228 C 0.60339 0.13397 0.75746 0.0
H229 H 0.47207 0.16165 0.9934 0.0
H230 H 0.50811 0.19442 0.92198 0.0
H231 H 0.55382 0.2008 0.84118 0.0
O232 O 0.57196 0.03504 0.91659 0.0
O233 O 0.54434 0.08104 0.69096 0.0
O234 O 0.50965 0.05757 0.60919 0.0
O235 O 0.55543 0.07448 0.97478 0.0
O236 O 0.58089 0.0396 0.75874 0.0
O237 O 0.5649 0.03121 0.61007 0.0
O238 O 0.49853 0.996 0.50539 0.0
O239 O 0.54211 0.99405 0.76404 0.0
O240 O 0.51934 1.01949 0.87336 0.0
O241 O 0.54286 1.00674 0.49545 0.0
O242 O 0.4828 0.03606 0.68774 0.0
O243 O 0.49655 0.04558 0.83847 0.0
C244 C 0.52609 0.08002 0.6217 0.0
C245 C 0.59998 0.05756 0.02693 0.0
C246 C 0.6397 0.03633 0.10584 0.0
C247 C 0.65388 0.06272 0.10444 0.0
C248 C 0.61412 0.08385 0.02422 0.0
C249 C 0.64111 0.08636 0.06337 0.0
C250 C 0.61281 0.03403 0.06745 0.0
C251 C 0.58587 0.03466 0.66943 0.0
C252 C 0.57224 0.05286 0.98619 0.0
C253 C 0.5195 0.17586 0.89718 0.0
C254 C 0.54556 0.17949 0.85136 0.0
C255 C 0.52977 0.99505 0.84647 0.0
C256 C 0.51552 1.01615 0.3634 0.0
C257 C 0.48744 0.04891 0.27009 0.0
C258 C 0.50928 0.04947 0.20291 0.0
C259 C 0.53695 1.01682 0.29515 0.0
C260 C 0.49066 0.03189 0.34977 0.0
C261 C 0.53379 0.03336 0.21539 0.0
C262 C 0.47651 0.04169 0.77593 0.0
C263 C 0.5201 0.99998 0.44982 0.0
H264 H 0.67481 0.06495 0.13439 0.0
H265 H 0.60447 0.10219 0.99194 0.0
H266 H 0.65214 0.10659 0.06175 0.0
H267 H 0.60163 1.01379 0.06983 0.0
H268 H 0.50753 0.06247 0.14116 0.0
H269 H 0.55631 1.00479 0.30414 0.0
H270 H 0.47384 0.03098 0.40146 0.0
H271 H 0.5505 0.03384 0.1635 0.0
Eu272 Eu 0.55364 0.52369 0.63014 0.0
C273 C 0.4617 0.50287 0.92355 0.0
N274 N 0.46341 0.51291 0.83488 0.0
C275 C 0.4234 0.48436 0.7905 0.0
C276 C 0.44091 0.4825 0.94821 0.0
C277 C 0.44387 0.50498 0.76973 0.0
C278 C 0.42208 0.47286 0.87989 0.0
C279 C 0.47714 0.50513 0.08447 0.0
C280 C 0.47999 0.51383 0.99085 0.0
C281 C 0.45657 0.48477 0.10869 0.0
C282 C 0.43879 0.4732 0.04069 0.0
Eu283 Eu 0.49696 0.54947 0.80972 0.0
N284 N 0.49914 0.53434 0.9664 0.0
C285 C 0.49437 0.51788 0.15181 0.0
C286 C 0.51557 0.54722 0.03246 0.0
C287 C 0.51387 0.53875 0.12541 0.0
H288 H 0.4441 0.51447 0.70173 0.0
H289 H 0.52724 0.54874 0.17689 0.0
H290 H 0.61704 0.51439 0.73548 0.0
H291 H 0.53041 0.57859 0.30497 0.0
H292 H 0.52921 0.56489 1.01508 0.0
H293 H 0.49253 0.51205 0.22456 0.0
H294 H 0.5208 0.5466 0.43746 0.0
H295 H 0.40836 0.4777 0.73802 0.0
H296 H 0.45387 0.47816 0.18023 0.0
H297 H 0.42289 0.45767 0.06096 0.0
H298 H 0.66556 0.53363 0.72571 0.0
H299 H 0.40589 0.4572 0.89619 0.0
H300 H 0.57769 0.60088 0.28681 0.0
N301 N 0.60119 0.54025 0.62606 0.0
C302 C 0.60799 0.55829 0.55539 0.0
C303 C 0.64949 0.54105 0.67816 0.0
C304 C 0.63587 0.56893 0.54489 0.0
C305 C 0.62174 0.53063 0.68473 0.0
C306 C 0.65653 0.56052 0.60859 0.0
N307 N 0.56103 0.55361 0.49998 0.0
C308 C 0.54118 0.55698 0.43182 0.0
C309 C 0.5943 0.58216 0.4128 0.0
C310 C 0.58746 0.56482 0.48989 0.0
C311 C 0.57336 0.58743 0.34641 0.0
C312 C 0.54671 0.57472 0.35596 0.0
H313 H 0.67816 0.56821 0.60284 0.0
H314 H 0.66379 0.59522 0.46073 0.0
H315 H 0.62739 0.60681 0.34519 0.0
O316 O 0.54037 0.48405 0.56463 0.0
O317 O 0.53831 0.56984 0.61393 0.0
O318 O 0.52807 0.58435 0.76261 0.0
O319 O 0.5838 0.49814 0.54919 0.0
O320 O 0.50713 0.51741 0.58492 0.0
O321 O 0.48327 0.55326 0.65954 0.0
O322 O 0.47174 0.57266 0.91276 0.0
O323 O 0.50211 0.5014 0.77637 0.0
O324 O 0.54959 0.49607 0.76009 0.0
O325 O 0.46428 0.57951 0.76672 0.0
O326 O 0.54236 0.5603 0.85613 0.0
O327 O 0.56967 0.52631 0.78145 0.0
C328 C 0.53488 0.59035 0.67563 0.0
C329 C 0.56078 0.47922 0.41581 0.0
C330 C 0.53071 0.46472 0.2856 0.0
C331 C 0.54835 0.48034 0.22477 0.0
C332 C 0.57792 0.49497 0.35412 0.0
C333 C 0.5718 0.49526 0.25902 0.0
C334 C 0.5379 0.4636 0.38044 0.0
C335 C 0.48536 0.53489 0.59103 0.0
C336 C 0.56403 0.4813 0.51792 0.0
C337 C 0.64252 0.58682 0.46966 0.0
C338 C 0.6218 0.59339 0.40376 0.0
C339 C 0.52521 0.4864 0.79172 0.0
C340 C 0.46734 0.61941 0.86252 0.0
C341 C 0.50364 0.655 0.8958 0.0
C342 C 0.48434 0.67643 0.87061 0.0
C343 C 0.44835 0.64079 0.83721 0.0
C344 C 0.49479 0.62666 0.89086 0.0
C345 C 0.45692 0.66929 0.84132 0.0
C346 C 0.56571 0.54492 0.84978 0.0
C347 C 0.46054 0.58925 0.85086 0.0
H348 H 0.54386 0.48155 0.15108 0.0
H349 H 0.59564 0.50749 0.37928 0.0
H350 H 0.58497 0.50755 0.21188 0.0
H351 H 0.52546 0.4508 0.42825 0.0
H352 H 0.49007 0.69871 0.87551 0.0
H353 H 0.42725 0.63544 0.81321 0.0
H354 H 0.50958 0.60992 0.90755 0.0
H355 H 0.44226 0.6859 0.82204 0.0
Eu356 Eu 0.03554 0.57253 0.63586 0.0
C357 C 0.03408 0.49482 1.01309 0.0
N358 N 0.0439 0.49054 0.92513 0.0
C359 C 0.08285 0.46337 0.9841 0.0
C360 C 0.04876 0.48403 0.09065 0.0
C361 C 0.06737 0.47419 0.9095 0.0
C362 C 0.07356 0.46839 0.07514 0.0
C363 C 0.99611 0.51077 0.11493 0.0
C364 C 1.00799 0.50771 0.02493 0.0
C365 C 1.01148 0.50176 0.19284 0.0
C366 C 0.03763 0.48813 0.18064 0.0
Eu367 Eu 1.01618 0.50849 0.80156 0.0
N368 N 0.99322 0.51516 0.94801 0.0
C369 C 0.96856 0.52151 0.12362 0.0
C370 C 0.9656 0.5238 0.95594 0.0
C371 C 0.95308 0.5276 0.04363 0.0
H372 H 0.07392 0.46912 0.83908 0.0
H373 H 0.93142 0.535 0.04941 0.0
H374 H 0.06675 0.62536 0.75726 0.0
H375 H 0.96816 0.58253 0.33052 0.0
H376 H 0.95336 0.52826 0.89434 0.0
H377 H 0.9587 0.52416 0.19149 0.0
H378 H 1.00025 0.55828 0.44036 0.0
H379 H 0.10163 0.45073 0.97128 0.0
H380 H 1.00287 0.50431 0.2625 0.0
H381 H 0.0488 0.48033 0.24101 0.0
H382 H 0.05941 0.67651 0.78925 0.0
H383 H 0.0852 0.45939 0.13272 0.0
H384 H 0.95489 0.63283 0.35784 0.0
N385 N 0.03216 0.62218 0.66331 0.0
C386 C 1.01258 0.63652 0.61322 0.0
C387 C 0.04587 0.66546 0.74025 0.0
C388 C 1.00823 0.66591 0.62682 0.0
C389 C 0.04975 0.63643 0.72277 0.0
C390 C 0.02469 0.6802 0.69314 0.0
N391 N 1.00436 0.59428 0.52949 0.0
C392 C 0.99437 0.58018 0.45287 0.0
C393 C 0.98022 0.63688 0.48269 0.0
C394 C 0.99851 0.62219 0.54302 0.0
C395 C 0.96884 0.62224 0.40628 0.0
C396 C 0.9763 0.59386 0.39054 0.0
H397 H 0.02197 0.70277 0.70583 0.0
H398 H 0.98441 0.70269 0.58227 0.0
H399 H 0.96042 0.67746 0.45403 0.0
O400 O 0.07084 0.55175 0.56344 0.0
O401 O 0.98764 0.56426 0.63676 0.0
O402 O 0.97609 0.52627 0.73343 0.0
O403 O 0.06182 0.59605 0.53677 0.0
O404 O 1.02084 0.52948 0.57675 0.0
O405 O 0.04547 0.50296 0.67671 0.0
O406 O 1.0079 0.46405 0.83672 0.0
O407 O 0.06375 0.51735 0.77788 0.0
O408 O 0.06744 0.56557 0.75517 0.0
O409 O 0.99241 0.48088 0.70718 0.0
O410 O 1.00344 0.55333 0.85516 0.0
O411 O 0.0369 0.58303 0.79114 0.0
C412 C 0.96904 0.54645 0.67395 0.0
C413 C 0.07404 0.56691 0.40731 0.0
C414 C 0.0872 0.53539 0.27835 0.0
C415 C 0.06979 0.55124 0.21869 0.0
C416 C 0.05721 0.58282 0.34604 0.0
C417 C 0.05494 0.57481 0.25256 0.0
C418 C 0.08909 0.54348 0.37265 0.0
C419 C 0.03459 0.50587 0.59368 0.0
C420 C 0.07506 0.57332 0.50817 0.0
C421 C 0.98848 0.68026 0.57137 0.0
C422 C 0.97471 0.66585 0.49873 0.0
C423 C 0.07805 0.54139 0.78619 0.0
C424 C 0.96577 0.44471 0.77601 0.0
C425 C 0.92018 0.44268 0.85475 0.0
C426 C 0.91099 0.42191 0.79103 0.0
C427 C 0.95669 0.42376 0.71299 0.0
C428 C 0.94766 0.45369 0.84749 0.0
C429 C 0.92939 0.41224 0.72106 0.0
C430 C 1.01844 0.5771 0.85734 0.0
C431 C 0.99304 0.459 0.76224 0.0
H432 H 0.06776 0.54557 0.14584 0.0
H433 H 0.04557 0.60127 0.37024 0.0
H434 H 0.0417 0.58698 0.20609 0.0
H435 H 0.1028 0.53194 0.4195 0.0
H436 H 0.88966 0.41335 0.79523 0.0
H437 H 0.97046 0.41677 0.65676 0.0
H438 H 0.95454 0.47014 0.89522 0.0
H439 H 0.92231 0.39624 0.67192 0.0
H440 H 0.24019 0.03246 0.35765 0.0
H441 H 0.19065 0.06774 0.1361 0.0
H442 H 0.19761 0.02806 0.4547 0.0
H443 H 0.14751 0.06353 0.23314 0.0
H444 H 0.07152 0.0325 0.42132 0.0
H445 H 0.11234 0.03299 0.31411 0.0
H446 H 0.16653 0.05898 0.54049 0.0
H447 H 0.12599 0.05852 0.64654 0.0
C448 C 0.21997 0.03875 0.32905 0.0
C449 C 0.21886 0.05016 0.23871 0.0
C450 C 0.19548 0.0366 0.38518 0.0
C451 C 0.1688 0.04582 0.35321 0.0
C452 C 0.16745 0.05605 0.26077 0.0
C453 C 0.19217 0.05834 0.2046 0.0
C454 C 0.09215 0.03836 0.44817 0.0
C455 C 0.09521 0.04547 0.54324 0.0
C456 C 0.11565 0.03874 0.38636 0.0
C457 C 0.14314 0.04581 0.41784 0.0
C458 C 0.14603 0.05292 0.51301 0.0
C459 C 0.12257 0.05285 0.57425 0.0
H460 H 0.54819 0.24181 0.30754 0.0
H461 H 0.47422 0.20246 0.18898 0.0
H462 H 0.55562 0.19985 0.40524 0.0
H463 H 0.48029 0.16121 0.28921 0.0
H464 H 0.50457 0.08067 0.44412 0.0
H465 H 0.50177 0.11992 0.33394 0.0
H466 H 0.54155 0.17527 0.53611 0.0
H467 H 0.5451 0.13549 0.6431 0.0
C468 C 0.5337 0.22399 0.30151 0.0
C469 C 0.51059 0.22565 0.2402 0.0
C470 C 0.53758 0.19993 0.35902 0.0
C471 C 0.51838 0.17664 0.35777 0.0
C472 C 0.49587 0.17811 0.2933 0.0
C473 C 0.49216 0.20204 0.23568 0.0
C474 C 0.51247 0.10126 0.46515 0.0
C475 C 0.52457 0.10464 0.55395 0.0
C476 C 0.51087 0.12409 0.40166 0.0
C477 C 0.52118 0.15155 0.42459 0.0
C478 C 0.53362 0.15477 0.51348 0.0
C479 C 0.53545 0.13178 0.57626 0.0
H480 H 0.36418 0.51201 0.11864 0.0
H481 H 0.31397 0.52989 0.36277 0.0
H482 H 0.40789 0.51773 0.21047 0.0
H483 H 0.35696 0.53501 0.45532 0.0
H484 H 0.43663 0.5666 0.59071 0.0
H485 H 0.39629 0.56379 0.48752 0.0
H486 H 0.43748 0.49702 0.33056 0.0
H487 H 0.47892 0.50078 0.43342 0.0
C488 C 0.36255 0.51768 0.19166 0.0
C489 C 0.3356 0.5211 0.23305 0.0
C490 C 0.3876 0.52055 0.24493 0.0
C491 C 0.38641 0.527 0.34125 0.0
C492 C 0.35923 0.53066 0.38155 0.0
C493 C 0.33439 0.52771 0.32853 0.0
C494 C 0.4374 0.5513 0.53415 0.0
C495 C 0.4612 0.53351 0.52218 0.0
C496 C 0.41387 0.54952 0.47476 0.0
C497 C 0.41292 0.52982 0.40049 0.0
C498 C 0.43714 0.51257 0.38632 0.0
C499 C 0.46089 0.51444 0.44611 0.0
H500 H 1.00341 0.35239 0.24964 0.0
H501 H 0.08988 0.37607 0.19036 0.0
H502 H 0.99767 0.3959 0.34456 0.0
H503 H 0.08455 0.41899 0.28616 0.0
H504 H 0.07588 0.46539 0.57376 0.0
H505 H 0.07861 0.42612 0.46146 0.0
H506 H 0.99874 0.45169 0.34415 0.0
H507 H 0.99662 0.49187 0.45456 0.0
C508 C 1.02095 0.36722 0.25481 0.0
C509 C 0.04714 0.36061 0.21228 0.0
C510 C 1.01778 0.39212 0.30986 0.0
C511 C 0.04082 0.41088 0.32495 0.0
C512 C 0.06647 0.40492 0.27809 0.0
C513 C 0.06948 0.38039 0.22236 0.0
C514 C 0.05894 0.46279 0.52379 0.0
C515 C 0.03607 0.48197 0.52356 0.0
C516 C 0.06054 0.44025 0.45891 0.0
C517 C 0.03891 0.43552 0.39304 0.0
C518 C 1.01576 0.45446 0.39375 0.0
C519 C 1.01462 0.47764 0.45685 0.0
H520 H 0.87725 0.97576 0.31063 0.0
H521 H 0.83213 0.04334 0.17626 0.0
H522 H 0.91738 0.98277 0.20624 0.0
H523 H 0.8723 0.05063 0.07034 0.0
H524 H 0.95544 0.07139 0.92327 0.0
H525 H 0.91696 0.06591 0.03473 0.0
H526 H 0.9385 0.97712 0.06567 0.0
H527 H 0.97785 0.98325 0.95604 0.0
C528 C 0.876 0.99246 0.25939 0.0
C529 C 0.85132 1.00916 0.25342 0.0
C530 C 0.89918 0.99643 0.19834 0.0
C531 C 0.89885 1.01738 0.12831 0.0
C532 C 0.87423 0.03457 0.12365 0.0
C533 C 0.85095 0.03053 0.18503 0.0
C534 C 0.95201 0.05061 0.95368 0.0
C535 C 0.96994 0.02774 0.92945 0.0
C536 C 0.92956 0.04737 1.01799 0.0
C537 C 0.92373 1.02095 0.06052 0.0
C538 C 0.94203 0.99807 0.03688 0.0
C539 C 0.96481 1.00147 0.97316 0.0
H540 H 0.59209 0.86158 0.2217 0.0
H541 H 0.50165 0.84995 0.2323 0.0
H542 H 0.58633 0.90357 0.12356 0.0
H543 H 0.49552 0.89239 0.13403 0.0
H544 H 0.49682 0.9842 1.00202 0.0
H545 H 0.50102 0.94536 0.11497 0.0
H546 H 0.57287 0.91256 0.96172 0.0
H547 H 0.56873 0.95139 0.84992 0.0
C548 C 0.57085 0.8686 0.20537 0.0
C549 C 0.54736 0.8525 0.23636 0.0
C550 C 0.5675 0.89248 0.14751 0.0
C551 C 0.54044 0.90147 0.11863 0.0
C552 C 0.51674 0.88638 0.15439 0.0
C553 C 0.52016 0.86214 0.21177 0.0
C554 C 0.51351 0.96866 0.99228 0.0
C555 C 0.53225 0.97098 0.91554 0.0
C556 C 0.51584 0.9462 0.05713 0.0
C557 C 0.53735 0.9255 0.04867 0.0
C558 C 0.55616 0.92803 0.97205 0.0
C559 C 0.5536 0.95024 0.90677 0.0
H560 H 0.71246 0.59446 0.18889 0.0
H561 H 0.69189 0.5106 0.28673 0.0
H562 H 0.66882 0.595 0.09606 0.0
H563 H 0.64832 0.51072 0.1939 0.0
H564 H 0.60373 0.50434 0.90479 0.0
H565 H 0.64045 0.50747 0.02346 0.0
H566 H 0.61512 0.59354 0.0868 0.0
H567 H 0.57804 0.5903 0.96738 0.0
C568 C 0.6979 0.57665 0.19384 0.0
C569 C 0.70536 0.5528 0.24729 0.0
C570 C 0.67296 0.57677 0.13974 0.0
C571 C 0.65496 0.55272 0.13573 0.0
C572 C 0.66166 0.52952 0.1937 0.0
C573 C 0.6864 0.5296 0.24855 0.0
C574 C 0.6059 0.52401 0.94371 0.0
C575 C 0.58786 0.54713 0.92513 0.0
C576 C 0.62689 0.52571 1.01294 0.0
C577 C 0.63103 0.55076 0.06573 0.0
C578 C 0.61287 0.57392 0.04766 0.0
C579 C 0.59145 0.57203 0.97918 0.0
H580 H 0.04781 0.70649 0.29668 0.0
H581 H 0.96464 0.72377 0.1909 0.0
H582 H 0.04908 0.66165 0.20823 0.0
H583 H 0.96554 0.67902 0.10208 0.0
H584 H 0.97187 0.58861 0.97201 0.0
H585 H 0.96734 0.626 0.09188 0.0
H586 H 0.05433 0.65073 0.04271 0.0
H587 H 0.05875 0.61367 0.92464 0.0
C588 C 0.02925 0.70006 0.25773 0.0
C589 C 1.00582 0.71847 0.25312 0.0
C590 C 0.03013 0.67455 0.20525 0.0
C591 C 1.00756 0.66651 0.14612 0.0
C592 C 0.9833 0.68406 0.14675 0.0
C593 C 0.9826 0.7097 0.19857 0.0
C594 C 0.99011 0.60181 0.9876 0.0
C595 C 1.0156 0.59808 0.93712 0.0
C596 C 0.98748 0.62348 0.05617 0.0
C597 C 1.01043 0.64178 0.07792 0.0
C598 C 0.03615 0.63719 0.02955 0.0
C599 C 0.03862 0.61594 0.96049 0.0
H600 H 0.13031 0.28393 0.17079 0.0
H601 H 0.05054 0.23907 0.186 0.0
H602 H 0.15426 0.24192 0.2366 0.0
H603 H 0.07428 0.19681 0.235 0.0
H604 H 0.09685 0.19718 0.51734 0.0
H605 H 0.12981 0.22337 0.41924 0.0
H606 H 0.12372 0.15819 0.20901 0.0
H607 H 0.09169 0.13117 0.30897 0.0
C608 C 0.11822 0.26471 0.18366 0.0
C609 C 0.08859 0.2645 0.17173 0.0
C610 C 0.13196 0.24067 0.21924 0.0
C611 C 0.11633 0.21586 0.23827 0.0
C612 C 0.08719 0.21521 0.21819 0.0
C613 C 0.07342 0.23947 0.18907 0.0
C614 C 0.10426 0.1874 0.45321 0.0
C615 C 0.09065 0.16316 0.41755 0.0
C616 C 0.12358 0.20218 0.39719 0.0
C617 C 0.12656 0.19403 0.30336 0.0
C618 C 0.12025 0.16563 0.27971 0.0
C619 C 0.1014 0.15034 0.3363 0.0
H620 H 0.3157 0.06131 0.32628 0.0
H621 H 0.32416 0.1104 0.07503 0.0
H622 H 0.36617 0.06667 0.35569 0.0
H623 H 0.37537 0.11513 0.10201 0.0
H624 H 0.45786 0.05568 0.10871 0.0
H625 H 0.41053 0.07534 0.09116 0.0
H626 H 0.40862 0.09708 0.38347 0.0
H627 H 0.45627 0.07828 0.40084 0.0
C628 C 0.32831 0.07429 0.27951 0.0
C629 C 0.31636 0.08529 0.19827 0.0
C630 C 0.35722 0.07734 0.29599 0.0
C631 C 0.37474 0.09116 0.2307 0.0
C632 C 0.36234 0.10421 0.15308 0.0
C633 C 0.33322 0.1015 0.13751 0.0
C634 C 0.44786 0.06562 0.16847 0.0
C635 C 0.4608 0.06505 0.25631 0.0
C636 C 0.42069 0.07685 0.15842 0.0
C637 C 0.40579 0.08729 0.23627 0.0
C638 C 0.41955 0.08883 0.32253 0.0
C639 C 0.4468 0.07786 0.33243 0.0
H640 H 0.47738 0.31832 0.32568 0.0
H641 H 0.44945 0.32451 0.04166 0.0
H642 H 0.46884 0.36851 0.34885 0.0
H643 H 0.44242 0.37586 0.06213 0.0
H644 H 0.52219 0.43971 0.11342 0.0
H645 H 0.48671 0.40425 0.07588 0.0
H646 H 0.44667 0.41655 0.34301 0.0
H647 H 0.48042 0.45396 0.37885 0.0
C648 C 0.46793 0.33029 0.2696 0.0
C649 C 0.46494 0.31801 0.18121 0.0
C650 C 0.46297 0.35918 0.28255 0.0
C651 C 0.45574 0.37638 0.20635 0.0
C652 C 0.4484 0.36319 0.1217 0.0
C653 C 0.45268 0.33396 0.10966 0.0
C654 C 0.50528 0.43592 0.16314 0.0
C655 C 0.5054 0.44867 0.25185 0.0
C656 C 0.48482 0.41549 0.14116 0.0
C657 C 0.46509 0.40649 0.20858 0.0
C658 C 0.46229 0.42243 0.29079 0.0
C659 C 0.48219 0.44345 0.31202 0.0
H660 H 0.23512 0.46482 0.03124 0.0
H661 H 0.24062 0.49098 0.31834 0.0
H662 H 0.1838 0.45786 0.04931 0.0
H663 H 0.19016 0.48266 0.3386 0.0
H664 H 0.10121 0.48505 0.36339 0.0
H665 H 0.14283 0.45619 0.32714 0.0
H666 H 0.15474 0.50264 0.07149 0.0
H667 H 0.11488 0.53282 0.11006 0.0
C668 C 0.2255 0.46769 0.09925 0.0
C669 C 0.2414 0.47915 0.17281 0.0
C670 C 0.19628 0.46352 0.10981 0.0
C671 C 0.18291 0.4701 0.19496 0.0
C672 C 0.19978 0.4772 0.2722 0.0
C673 C 0.22878 0.48197 0.26089 0.0
C674 C 0.11254 0.48888 0.29878 0.0
C675 C 0.10564 0.51223 0.24211 0.0
C676 C 0.13604 0.47201 0.27742 0.0
C677 C 0.15253 0.47786 0.19802 0.0
C678 C 0.14271 0.498 0.13389 0.0
C679 C 0.11976 0.51539 0.1563 0.0
H680 H 1.00054 0.82482 0.12099 0.0
H681 H 0.0687 0.81857 0.31815 0.0
H682 H 0.02725 0.86133 0.03493 0.0
H683 H 0.09492 0.85581 0.23536 0.0
H684 H 0.11834 0.94118 0.07913 0.0
H685 H 0.08897 0.91051 0.17874 0.0
H686 H 0.07753 0.85219 0.94863 0.0
H687 H 0.10712 0.88263 0.84954 0.0
C688 C 1.02082 0.83206 0.14718 0.0
C689 C 0.03262 0.81946 0.22614 0.0
C690 C 0.03605 0.85266 0.09829 0.0
C691 C 0.06304 0.86105 0.12891 0.0
C692 C 0.074 0.84976 0.21135 0.0
C693 C 0.05897 0.82881 0.25912 0.0
C694 C 0.1099 0.92151 0.05081 0.0
C695 C 0.11518 0.91384 0.95766 0.0
C696 C 0.09306 0.90421 0.10723 0.0
C697 C 0.0809 0.87938 0.07041 0.0
C698 C 0.08651 0.87151 0.97771 0.0
C699 C 0.10371 0.88856 0.92177 0.0
H700 H 0.77234 0.96604 0.16953 0.0
H701 H 0.74661 0.94988 0.45311 0.0
H702 H 0.72523 0.95597 0.11647 0.0
H703 H 0.69768 0.94303 0.40056 0.0
H704 H 0.66085 0.03379 0.27732 0.0
H705 H 0.68481 0.99394 0.35086 0.0
H706 H 0.6727 0.94345 0.10256 0.0
H707 H 0.64584 0.98266 0.03345 0.0
C708 C 0.75682 0.95897 0.22037 0.0
C709 C 0.76263 0.96042 0.31609 0.0
C710 C 0.72959 0.95295 0.18979 0.0
C711 C 0.70745 0.95045 0.25498 0.0
C712 C 0.71433 0.94583 0.34903 0.0
C713 C 0.74208 0.95067 0.37947 0.0
C714 C 0.6623 1.01367 0.24101 0.0
C715 C 0.65221 1.01128 0.15038 0.0
C716 C 0.67571 0.9908 0.28277 0.0
C717 C 0.68118 0.96582 0.23175 0.0
C718 C 0.66871 0.96243 0.14363 0.0
C719 C 0.654 0.98502 0.10347 0.0
H720 H 0.61489 0.76294 0.18632 0.0
H721 H 0.533 0.7325 0.27778 0.0
H722 H 0.61921 0.72118 0.08292 0.0
H723 H 0.5389 0.68993 0.1875 0.0
H724 H 0.53961 0.69895 0.84808 0.0
H725 H 0.57626 0.71871 0.94824 0.0
H726 H 0.57059 0.64513 0.12564 0.0
H727 H 0.53298 0.62616 0.03103 0.0
C728 C 0.59868 0.74658 0.18836 0.0
C729 C 0.57353 0.75091 0.23969 0.0
C730 C 0.60137 0.72265 0.13059 0.0
C731 C 0.57956 0.70229 0.12807 0.0
C732 C 0.55641 0.70493 0.18948 0.0
C733 C 0.55302 0.72937 0.24233 0.0
C734 C 0.54663 0.68663 0.90716 0.0
C735 C 0.53203 0.66191 0.93451 0.0
C736 C 0.56833 0.6975 0.96279 0.0
C737 C 0.57527 0.68383 0.04643 0.0
C738 C 0.5652 0.65619 0.06205 0.0
C739 C 0.54317 0.64556 1.00786 0.0
H740 H 0.81296 0.56189 0.14228 0.0
H741 H 0.80289 0.48432 0.29745 0.0
H742 H 0.85036 0.53954 0.04728 0.0
H743 H 0.84103 0.46221 0.20583 0.0
H744 H 0.86943 0.46734 0.8227 0.0
H745 H 0.83949 0.49268 0.93547 0.0
H746 H 0.89796 0.472 0.15512 0.0
H747 H 0.92829 0.44702 0.04174 0.0
C748 C 0.81972 0.54046 0.15816 0.0
C749 C 0.80583 0.52486 0.22775 0.0
C750 C 0.8408 0.5277 0.10402 0.0
C751 C 0.84835 0.49929 0.11992 0.0
C752 C 0.8357 0.48428 0.19353 0.0
C753 C 0.81422 0.49692 0.24638 0.0
C754 C 0.8756 0.4679 0.8953 0.0
C755 C 0.90076 0.45499 0.92437 0.0
C756 C 0.85879 0.48265 0.95922 0.0
C757 C 0.86674 0.48432 0.05315 0.0
C758 C 0.89159 0.47092 0.08278 0.0
C759 C 0.90871 0.4566 1.01843 0.0
H760 H 0.08519 0.26855 0.95629 0.0
H761 H 1.00301 0.26 0.08415 0.0
H762 H 0.07947 0.22254 0.87992 0.0
H763 H 0.99747 0.21288 1.01276 0.0
H764 H 0.98912 0.12955 0.84674 0.0
H765 H 0.99085 0.17896 0.89953 0.0
H766 H 0.08242 0.17525 0.90026 0.0
H767 H 0.08043 0.12705 0.84049 0.0
C768 C 0.06549 0.25701 0.96615 0.0
C769 C 0.04449 0.26828 0.0257 0.0
C770 C 0.06238 0.23003 0.92412 0.0
C771 C 0.03829 0.21274 0.94125 0.0
C772 C 1.0164 0.22498 0.99639 0.0
C773 C 1.01935 0.25236 0.0371 0.0
C774 C 1.00967 0.13933 0.85757 0.0
C775 C 0.03464 0.1236 0.84044 0.0
C776 C 1.01071 0.16792 0.889 0.0
C777 C 0.0368 0.18203 0.90525 0.0
C778 C 0.06172 0.1661 0.88771 0.0
C779 C 0.06063 0.13776 0.85499 0.0
H780 H 0.29858 0.07978 0.9345 0.0
H781 H 0.32394 1.01565 0.12868 0.0
H782 H 0.34338 0.07419 0.849 0.0
H783 H 0.36817 1.00863 0.04203 0.0
H784 H 0.45882 0.02724 0.95064 0.0
H785 H 0.41181 0.02735 1.018 0.0
H786 H 0.37701 0.05216 0.75288 0.0
H787 H 0.4251 0.0526 0.68549 0.0
C788 C 0.3133 0.06355 0.95647 0.0
C789 C 0.30731 0.04774 0.03741 0.0
C790 C 0.33929 0.06037 0.90768 0.0
C791 C 0.36032 0.04115 0.93794 0.0
C792 C 0.35337 1.02424 1.01645 0.0
C793 C 0.32754 0.02769 0.06555 0.0
C794 C 0.44128 0.03296 0.90617 0.0
C795 C 0.44627 0.04041 0.81237 0.0
C796 C 0.41383 0.03267 0.94505 0.0
C797 C 0.38976 0.03997 0.89238 0.0
C798 C 0.39463 0.04686 0.79742 0.0
C799 C 0.42236 0.04692 0.75802 0.0
H800 H 0.53849 0.33783 0.1686 0.0
H801 H 0.49142 0.30594 0.9349 0.0
H802 H 0.5453 0.38357 0.08842 0.0
H803 H 0.49719 0.35179 0.85533 0.0
H804 H 0.47997 0.44865 0.80506 0.0
H805 H 0.47874 0.40121 0.87543 0.0
H806 H 0.56644 0.41032 0.95375 0.0
H807 H 0.5677 0.45762 0.88235 0.0
C808 C 0.5304 0.34029 0.0987 0.0
C809 C 0.51494 0.31787 0.05751 0.0
C810 C 0.53407 0.36667 0.05263 0.0
C811 C 0.52164 0.3719 0.96484 0.0
C812 C 0.50693 0.34902 0.92279 0.0
C813 C 0.50392 0.32247 0.96784 0.0
C814 C 0.49901 0.44064 0.83732 0.0
C815 C 0.52394 0.45732 0.83727 0.0
C816 C 0.49843 0.41311 0.87703 0.0
C817 C 0.52261 0.40131 0.92001 0.0
C818 C 0.54736 0.4183 0.92156 0.0
C819 C 0.54809 0.44557 0.88014 0.0
H820 H 0.25772 0.50794 0.92044 0.0
H821 H 0.22478 0.54931 0.16544 0.0
H822 H 0.21241 0.51553 0.84062 0.0
H823 H 0.17953 0.55768 0.08569 0.0
H824 H 0.11632 0.4973 0.78785 0.0
H825 H 0.16334 0.49554 0.85842 0.0
H826 H 0.15387 0.58222 0.95268 0.0
H827 H 0.10669 0.58406 0.8808 0.0
C828 C 0.24111 0.51967 0.95592 0.0
C829 C 0.24518 0.52861 0.04856 0.0
C830 C 0.21489 0.52366 0.9108 0.0
C831 C 0.19192 0.53717 0.95628 0.0
C832 C 0.1966 0.5475 0.0475 0.0
C833 C 0.22266 0.54294 0.09324 0.0
C834 C 0.12416 0.51607 0.82347 0.0
C835 C 0.1074 0.54083 0.82816 0.0
C836 C 0.15142 0.51515 0.86338 0.0
C837 C 0.16289 0.53881 0.91107 0.0
C838 C 0.146 0.56353 0.91671 0.0
C839 C 0.11889 0.56464 0.87496 0.0
H840 H 0.97058 0.8297 0.36878 0.0
H841 H 0.05157 0.80733 0.48122 0.0
H842 H 0.97155 0.87466 0.4537 0.0
H843 H 0.05428 0.85324 0.56125 0.0
H844 H 0.05209 0.93653 0.72622 0.0
H845 H 0.047 0.88853 0.66385 0.0
H846 H 0.98528 0.91932 0.46706 0.0
H847 H 0.98875 0.96618 0.53543 0.0
C848 C 0.98846 0.83428 0.41349 0.0
C849 C 1.01063 0.81447 0.41961 0.0
C850 C 0.98952 0.86066 0.46106 0.0
C851 C 1.01336 0.86896 0.51471 0.0
C852 C 0.03523 0.84843 0.52271 0.0
C853 C 0.03375 0.82171 0.4767 0.0
C854 C 0.03718 0.93303 0.6702 0.0
C855 C 1.02113 0.95599 0.63571 0.0
C856 C 0.0344 0.90514 0.633 0.0
C857 C 1.01573 0.89889 0.55841 0.0
C858 C 0.99962 0.92205 0.52486 0.0
C859 C 1.00199 0.94966 0.56339 0.0
H860 H 0.74254 0.04062 0.31948 0.0
H861 H 0.76551 0.98929 0.55388 0.0
H862 H 0.69702 0.05198 0.3952 0.0
H863 H 0.71945 0.99883 0.62762 0.0
H864 H 0.63692 0.03182 0.76702 0.0
H865 H 0.68543 0.02831 0.7046 0.0
H866 H 0.65226 0.03115 0.4263 0.0
H867 H 0.60444 0.03444 0.48725 0.0
C868 C 0.73799 0.03199 0.38777 0.0
C869 C 0.75779 1.01386 0.43006 0.0
C870 C 0.71157 0.03816 0.43123 0.0
C871 C 0.70355 0.02587 0.51769 0.0
C872 C 0.72419 1.00887 0.56161 0.0
C873 C 0.75077 1.00322 0.51901 0.0
C874 C 0.63998 0.03176 0.69218 0.0
C875 C 0.61622 0.03337 0.63279 0.0
C876 C 0.66804 0.0296 0.65595 0.0
C877 C 0.67357 0.02937 0.55878 0.0
C878 C 0.64967 0.03149 0.5005 0.0
C879 C 0.62178 0.03324 0.53622 0.0
H880 H 0.59526 0.75389 0.4404 0.0
H881 H 0.50452 0.76126 0.43209 0.0
H882 H 0.59106 0.70968 0.52748 0.0
H883 H 0.49976 0.71608 0.51601 0.0
H884 H 0.49755 0.63535 0.69693 0.0
H885 H 0.50186 0.68415 0.63921 0.0
H886 H 0.58232 0.66239 0.5124 0.0
H887 H 0.57877 0.61499 0.57801 0.0
C888 C 0.57429 0.74633 0.45935 0.0
C889 C 0.55031 0.76155 0.42975 0.0
C890 C 0.57174 0.72038 0.50786 0.0
C891 C 0.54498 0.70808 0.52801 0.0
C892 C 0.52087 0.72431 0.50317 0.0
C893 C 0.5235 0.75062 0.45542 0.0
C894 C 0.51658 0.64134 0.65963 0.0
C895 C 0.53795 0.62095 0.64377 0.0
C896 C 0.51887 0.6694 0.62415 0.0
C897 C 0.54256 0.67817 0.5701 0.0
C898 C 0.56389 0.65748 0.55462 0.0
C899 C 0.56166 0.62968 0.591 0.0
H900 H 0.79979 0.50298 0.4511 0.0
H901 H 0.80606 0.59287 0.40325 0.0
H902 H 0.84482 0.50373 0.53351 0.0
H903 H 0.8502 0.59468 0.49201 0.0
H904 H 0.94409 0.58693 0.56233 0.0
H905 H 0.89726 0.58724 0.49456 0.0
H906 H 0.87551 0.51176 0.65096 0.0
H907 H 0.92357 0.51034 0.71242 0.0
C908 C 0.81055 0.52314 0.46053 0.0
C909 C 0.79918 0.54784 0.42048 0.0
C910 C 0.83657 0.52373 0.50874 0.0
C911 C 0.85225 0.54924 0.52013 0.0
C912 C 0.83982 0.57429 0.48382 0.0
C913 C 0.81396 0.57352 0.43421 0.0
C914 C 0.92959 0.57008 0.5814 0.0
C915 C 0.93845 0.54824 0.64157 0.0
C916 C 0.90207 0.57051 0.54338 0.0
C917 C 0.88165 0.54943 0.56541 0.0
C918 C 0.89022 0.52816 0.62902 0.0
C919 C 0.91802 0.52749 0.6658 0.0
loop_
_geom_bond_atom_site_label_1
_geom_bond_atom_site_label_2
_geom_bond_distance
_geom_bond_site_symmetry_2
_ccdc_geom_bond_type
C0 N1 1.317 . S
C0 N2 1.348 . S
C0 C3 1.485 . S
N1 C0 1.317 . S
N1 N5 1.370 . S
N2 C0 1.348 . S
N2 C4 1.346 . S
C3 C0 1.485 . S
C3 H7 0.960 . S
C3 H8 0.961 . S
C3 H9 0.960 . S
C4 N2 1.346 . S
C4 N5 1.307 . S
C4 C6 1.486 . S
N5 N1 1.370 . S
N5 C4 1.307 . S
C6 C4 1.486 . S
C6 H10 0.960 . S
C6 H11 0.960 . S
C6 H12 0.959 . S
H7 C3 0.960 . S
H8 C3 0.961 . S
H9 C3 0.960 . S
H10 C6 0.960 . S
H11 C6 0.960 . S
H12 C6 0.959 . S
C13 N14 1.317 . S
C13 N15 1.348 . S
C13 C16 1.485 . S
N14 C13 1.317 . S
N14 N18 1.370 . S
N15 C13 1.348 . S
N15 C17 1.346 . S
C16 C13 1.485 . S
C16 H20 0.960 . S
C16 H21 0.961 . S
C16 H22 0.960 . S
C17 N15 1.346 . S
C17 N18 1.307 . S
C17 C19 1.486 . S
N18 N14 1.370 . S
N18 C17 1.307 . S
C19 C17 1.486 . S
C19 H23 0.960 . S
C19 H24 0.960 . S
C19 H25 0.959 . S
H20 C16 0.960 . S
H21 C16 0.961 . S
H22 C16 0.960 . S
H23 C19 0.960 . S
H24 C19 0.960 . S
H25 C19 0.959 . S
C26 N27 1.317 . S
C26 N28 1.348 . S
C26 C29 1.485 . S
N27 C26 1.317 . S
N27 N31 1.370 . S
N28 C26 1.348 . S
N28 C30 1.346 . S
C29 C26 1.485 . S
C29 H33 0.960 . S
C29 H34 0.961 . S
C29 H35 0.960 . S
C30 N28 1.346 . S
C30 N31 1.307 . S
C30 C32 1.486 . S
N31 N27 1.370 . S
N31 C30 1.307 . S
C32 C30 1.486 . S
C32 H36 0.960 . S
C32 H37 0.960 . S
C32 H38 0.959 . S
H33 C29 0.960 . S
H34 C29 0.961 . S
H35 C29 0.960 . S
H36 C32 0.960 . S
H37 C32 0.960 . S
H38 C32 0.959 . S
C39 N40 1.317 . S
C39 N41 1.348 . S
C39 C42 1.485 . S
N40 C39 1.317 . S
N40 N44 1.370 . S
N41 C39 1.348 . S
N41 C43 1.346 . S
C42 C39 1.485 . S
C42 H46 0.960 . S
C42 H47 0.961 . S
C42 H48 0.960 . S
C43 N41 1.346 . S
C43 N44 1.307 . S
C43 C45 1.486 . S
N44 N40 1.370 . S
N44 C43 1.307 . S
C45 C43 1.486 . S
C45 H49 0.960 . S
C45 H50 0.960 . S
C45 H51 0.959 . S
H46 C42 0.960 . S
H47 C42 0.961 . S
H48 C42 0.960 . S
H49 C45 0.960 . S
H50 C45 0.960 . S
H51 C45 0.959 . S
C52 N53 1.317 . S
C52 N54 1.348 1_556 S
C52 C55 1.485 . S
N53 C52 1.317 . S
N53 N57 1.370 1_556 S
N54 C52 1.348 1_554 S
N54 C56 1.346 . S
C55 C52 1.485 . S
C55 H59 0.960 . S
C55 H60 0.961 . S
C55 H61 0.960 . S
C56 N54 1.346 . S
C56 N57 1.307 . S
C56 C58 1.486 . S
N57 N53 1.370 1_554 S
N57 C56 1.307 . S
C58 C56 1.486 . S
C58 H62 0.960 . S
C58 H63 0.960 . S
C58 H64 0.959 . S
H59 C55 0.960 . S
H60 C55 0.961 . S
H61 C55 0.960 . S
H62 C58 0.960 . S
H63 C58 0.960 . S
H64 C58 0.959 . S
C65 N66 1.318 . S
C65 N67 1.348 1_556 S
C65 C68 1.485 . S
N66 C65 1.318 . S
N66 N70 1.366 1_556 S
N67 C65 1.348 1_554 S
N67 C69 1.346 . S
C68 C65 1.485 . S
C68 H72 0.960 . S
C68 H73 0.961 . S
C68 H74 0.960 . S
C69 N67 1.346 . S
C69 N70 1.307 . S
C69 C71 1.486 . S
N70 N66 1.366 1_554 S
N70 C69 1.307 . S
C71 C69 1.486 . S
C71 H75 0.960 . S
C71 H76 0.960 . S
C71 H77 0.959 . S
H72 C68 0.960 . S
H73 C68 0.961 . S
H74 C68 0.960 . S
H75 C71 0.960 . S
H76 C71 0.960 . S
H77 C71 0.959 . S
C78 N79 1.317 . S
C78 N80 1.348 1_556 S
C78 C81 1.485 . S
N79 C78 1.317 . S
N79 N83 1.370 1_556 S
N80 C78 1.348 1_554 S
N80 C82 1.346 . S
C81 C78 1.485 . S
C81 H85 0.960 . S
C81 H86 0.961 . S
C81 H87 0.960 . S
C82 N80 1.346 . S
C82 N83 1.307 . S
C82 C84 1.486 . S
N83 N79 1.370 1_554 S
N83 C82 1.307 . S
C84 C82 1.486 . S
C84 H88 0.960 . S
C84 H89 0.960 . S
C84 H90 0.959 . S
H85 C81 0.960 . S
H86 C81 0.961 . S
H87 C81 0.960 . S
H88 C84 0.960 . S
H89 C84 0.960 . S
H90 C84 0.959 . S
C91 N92 1.317 . S
C91 N93 1.348 1_556 S
C91 C94 1.485 . S
N92 C91 1.317 . S
N92 N96 1.370 1_556 S
N93 C91 1.348 1_554 S
N93 C95 1.346 . S
C94 C91 1.485 . S
C94 H98 0.960 . S
C94 H99 0.961 . S
C94 H100 0.960 . S
C95 N93 1.346 . S
C95 N96 1.307 . S
C95 C97 1.486 . S
N96 N92 1.370 1_554 S
N96 C95 1.307 . S
C97 C95 1.486 . S
C97 H101 0.960 . S
C97 H102 0.960 . S
C97 H103 0.959 . S
H98 C94 0.960 . S
H99 C94 0.961 . S
H100 C94 0.960 . S
H101 C97 0.960 . S
H102 C97 0.960 . S
H103 C97 0.959 . S
Eu104 N133 2.600 . S
Eu104 N139 2.562 . S
Eu104 O148 2.461 . S
Eu104 O149 2.373 1_545 S
Eu104 O151 2.432 . S
Eu104 O152 2.291 1_655 S
Eu104 O156 2.335 1_655 S
Eu104 O159 2.372 . S
Eu104 C168 2.787 . S
C105 N106 1.365 . S
C105 C108 1.405 . S
C105 C112 1.448 . S
N106 C105 1.365 . S
N106 C109 1.319 . S
N106 Eu115 2.600 1_545 S
C107 C109 1.397 . S
C107 C110 1.367 . S
C107 H127 0.931 . S
C108 C105 1.405 . S
C108 C110 1.403 . S
C108 C114 1.439 1_556 S
C109 N106 1.319 . S
C109 C107 1.397 . S
C109 H120 0.930 1_545 S
C110 C107 1.367 . S
C110 C108 1.403 . S
C110 H131 0.929 . S
C111 C112 1.430 1_554 S
C111 C113 1.387 . S
C111 C117 1.404 . S
C112 C105 1.448 . S
C112 C111 1.430 1_556 S
C112 N116 1.351 . S
C113 C111 1.387 . S
C113 C114 1.374 . S
C113 H128 0.931 . S
C114 C108 1.439 1_554 S
C114 C113 1.374 . S
C114 H129 0.931 . S
Eu115 N106 2.600 1_565 S
Eu115 N116 2.562 1_565 S
Eu115 O150 2.335 . S
Eu115 O153 2.372 . S
Eu115 O154 2.462 . S
Eu115 O155 2.373 1_565 S
Eu115 O157 2.432 . S
Eu115 O158 2.291 1_465 S
Eu115 C179 2.787 . S
N116 C112 1.351 . S
N116 Eu115 2.562 1_545 S
N116 C118 1.325 1_556 S
C117 C111 1.404 . S
C117 C119 1.366 . S
C117 H125 0.930 . S
C118 N116 1.325 1_554 S
C118 C119 1.416 . S
C118 H124 0.929 1_454 S
C119 C117 1.366 . S
C119 C118 1.416 . S
C119 H121 0.902 1_455 S
H120 C109 0.930 1_565 S
H121 C119 0.902 1_655 S
H122 C137 0.930 . S
H123 C144 0.930 . S
H124 C118 0.929 1_656 S
H125 C117 0.930 . S
H126 C140 0.929 . S
H127 C107 0.931 . S
H128 C113 0.931 . S
H129 C114 0.931 . S
H130 C135 0.931 . S
H131 C110 0.929 . S
H132 C143 0.930 . S
N133 Eu104 2.600 . S
N133 C134 1.365 . S
N133 C137 1.319 . S
C134 N133 1.365 . S
C134 C136 1.405 1_545 S
C134 C142 1.448 1_545 S
C135 H130 0.931 . S
C135 C137 1.397 . S
C135 C138 1.367 1_545 S
C136 C134 1.405 1_565 S
C136 C138 1.403 . S
C136 C169 1.439 . S
C137 H122 0.930 . S
C137 N133 1.319 . S
C137 C135 1.397 . S
C138 C135 1.367 1_565 S
C138 C136 1.403 . S
C138 H145 0.929 . S
N139 Eu104 2.562 . S
N139 C140 1.325 1_655 S
N139 C142 1.353 1_545 S
C140 H126 0.929 . S
C140 N139 1.325 1_455 S
C140 C144 1.416 1_545 S
C141 C142 1.429 . S
C141 C143 1.404 . S
C141 C170 1.387 . S
C142 C134 1.448 1_565 S
C142 N139 1.353 1_565 S
C142 C141 1.429 . S
C143 H132 0.930 . S
C143 C141 1.404 . S
C143 C144 1.366 1_655 S
C144 H123 0.930 . S
C144 C140 1.416 1_565 S
C144 C143 1.366 1_455 S
H145 C138 0.929 . S
H146 C169 0.931 . S
H147 C170 0.931 . S
O148 Eu104 2.461 . S
O148 C168 1.251 . S
O149 Eu104 2.373 1_565 S
O149 C160 1.249 . S
O150 Eu115 2.335 . S
O150 C160 1.264 1_455 S
O151 Eu104 2.432 . S
O151 C168 1.268 . S
O152 Eu104 2.291 1_455 S
O152 C167 1.255 . S
O153 Eu115 2.372 . S
O153 C167 1.257 1_565 S
O154 Eu115 2.462 . S
O154 C179 1.252 . S
O155 Eu115 2.373 1_545 S
O155 C171 1.249 . S
O156 Eu104 2.335 1_455 S
O156 C171 1.264 . S
O157 Eu115 2.432 . S
O157 C179 1.268 . S
O158 Eu115 2.291 1_645 S
O158 C178 1.255 . S
O159 Eu104 2.372 . S
O159 C178 1.257 . S
C160 O149 1.249 . S
C160 O150 1.264 1_655 S
C161 C164 1.382 . S
C161 C166 1.390 . S
C161 C168 1.506 . S
C162 C163 1.398 . S
C162 C166 1.392 . S
C163 C162 1.398 . S
C163 C165 1.372 . S
C163 H180 0.931 . S
C164 C161 1.382 . S
C164 C165 1.390 . S
C164 H181 0.931 . S
C165 C163 1.372 . S
C165 C164 1.390 . S
C165 H182 0.929 . S
C166 C161 1.390 . S
C166 C162 1.392 . S
C166 H183 0.930 1_655 S
C167 O152 1.255 . S
C167 O153 1.257 1_545 S
C168 Eu104 2.787 . S
C168 O148 1.251 . S
C168 O151 1.268 . S
C168 C161 1.506 . S
C169 C136 1.439 . S
C169 H146 0.931 . S
C169 C170 1.374 . S
C170 C141 1.387 . S
C170 H147 0.931 . S
C170 C169 1.374 . S
C171 O155 1.249 . S
C171 O156 1.264 . S
C172 C175 1.382 . S
C172 C176 1.390 . S
C172 C179 1.506 . S
C173 C174 1.398 . S
C173 C176 1.392 1_554 S
C174 C173 1.398 . S
C174 C177 1.372 1_554 S
C174 H184 0.931 . S
C175 C172 1.382 . S
C175 C177 1.390 . S
C175 H185 0.931 . S
C176 C172 1.390 . S
C176 C173 1.392 1_556 S
C176 H186 0.930 . S
C177 C174 1.372 1_556 S
C177 C175 1.390 . S
C177 H187 0.929 . S
C178 O158 1.255 . S
C178 O159 1.257 . S
C179 Eu115 2.787 . S
C179 O154 1.252 . S
C179 O157 1.268 . S
C179 C172 1.506 . S
H180 C163 0.931 . S
H181 C164 0.931 . S
H182 C165 0.929 . S
H183 C166 0.930 1_455 S
H184 C174 0.931 . S
H185 C175 0.931 . S
H186 C176 0.930 . S
H187 C177 0.929 . S
Eu188 N217 2.600 . S
Eu188 N223 2.562 . S
Eu188 O232 2.462 . S
Eu188 O233 2.373 . S
Eu188 O235 2.432 . S
Eu188 O236 2.291 . S
Eu188 O240 2.335 1_545 S
Eu188 O243 2.372 . S
Eu188 C252 2.787 . S
C189 N190 1.365 . S
C189 C192 1.405 . S
C189 C196 1.448 . S
N190 C189 1.365 . S
N190 C193 1.319 . S
N190 Eu199 2.600 . S
C191 C193 1.397 . S
C191 C194 1.367 . S
C191 H211 0.931 . S
C192 C189 1.405 . S
C192 C194 1.403 . S
C192 C198 1.439 . S
C193 N190 1.319 . S
C193 C191 1.397 . S
C193 H204 0.930 . S
C194 C191 1.367 . S
C194 C192 1.403 . S
C194 H215 0.929 . S
C195 C196 1.430 . S
C195 C197 1.387 . S
C195 C201 1.404 . S
C196 C189 1.448 . S
C196 C195 1.430 . S
C196 N200 1.351 . S
C197 C195 1.387 . S
C197 C198 1.374 . S
C197 H212 0.931 . S
C198 C192 1.439 . S
C198 C197 1.374 . S
C198 H213 0.931 . S
Eu199 N190 2.600 . S
Eu199 N200 2.562 . S
Eu199 O234 2.335 1_565 S
Eu199 O237 2.372 . S
Eu199 O238 2.462 . S
Eu199 O239 2.373 . S
Eu199 O241 2.432 . S
Eu199 O242 2.291 1_565 S
Eu199 C263 2.787 . S
N200 C196 1.351 . S
N200 Eu199 2.562 . S
N200 C202 1.325 . S
C201 C195 1.404 . S
C201 C203 1.366 . S
C201 H209 0.930 . S
C202 N200 1.325 . S
C202 C203 1.416 . S
C202 H208 0.929 . S
C203 C201 1.366 . S
C203 C202 1.416 . S
C203 H205 0.930 . S
H204 C193 0.930 . S
H205 C203 0.930 . S
H206 C221 0.930 . S
H207 C228 0.930 . S
H208 C202 0.929 . S
H209 C201 0.930 . S
H210 C224 0.929 . S
H211 C191 0.931 . S
H212 C197 0.931 . S
H213 C198 0.931 . S
H214 C219 0.931 . S
H215 C194 0.929 . S
H216 C227 0.930 . S
N217 Eu188 2.600 . S
N217 C218 1.365 . S
N217 C221 1.319 . S
C218 N217 1.365 . S
C218 C220 1.405 . S
C218 C226 1.448 . S
C219 H214 0.931 . S
C219 C221 1.397 . S
C219 C222 1.367 . S
C220 C218 1.405 . S
C220 C222 1.403 . S
C220 C253 1.439 . S
C221 H206 0.930 . S
C221 N217 1.319 . S
C221 C219 1.397 . S
C222 C219 1.367 . S
C222 C220 1.403 . S
C222 H229 0.929 . S
N223 Eu188 2.562 . S
N223 C224 1.325 . S
N223 C226 1.351 . S
C224 H210 0.929 . S
C224 N223 1.325 . S
C224 C228 1.416 . S
C225 C226 1.430 . S
C225 C227 1.404 . S
C225 C254 1.387 . S
C226 C218 1.448 . S
C226 N223 1.351 . S
C226 C225 1.430 . S
C227 H216 0.930 . S
C227 C225 1.404 . S
C227 C228 1.366 . S
C228 H207 0.930 . S
C228 C224 1.416 . S
C228 C227 1.366 . S
H229 C222 0.929 . S
H230 C253 0.931 . S
H231 C254 0.931 . S
O232 Eu188 2.462 . S
O232 C252 1.252 . S
O233 Eu188 2.373 . S
O233 C244 1.249 . S
O234 Eu199 2.335 1_545 S
O234 C244 1.264 . S
O235 Eu188 2.432 . S
O235 C252 1.268 . S
O236 Eu188 2.291 . S
O236 C251 1.255 . S
O237 Eu199 2.372 . S
O237 C251 1.257 1_565 S
O238 Eu199 2.462 . S
O238 C263 1.252 . S
O239 Eu199 2.373 . S
O239 C255 1.249 . S
O240 Eu188 2.335 1_565 S
O240 C255 1.264 . S
O241 Eu199 2.432 . S
O241 C263 1.268 . S
O242 Eu199 2.291 1_545 S
O242 C262 1.255 . S
O243 Eu188 2.372 . S
O243 C262 1.257 . S
C244 O233 1.249 . S
C244 O234 1.264 . S
C245 C248 1.382 . S
C245 C250 1.390 . S
C245 C252 1.506 1_554 S
C246 C247 1.398 . S
C246 C250 1.392 . S
C247 C246 1.398 . S
C247 C249 1.372 . S
C247 H264 0.931 . S
C248 C245 1.382 . S
C248 C249 1.390 . S
C248 H265 0.931 . S
C249 C247 1.372 . S
C249 C248 1.390 . S
C249 H266 0.929 . S
C250 C245 1.390 . S
C250 C246 1.392 . S
C250 H267 0.930 1_554 S
C251 O236 1.255 . S
C251 O237 1.257 1_545 S
C252 Eu188 2.787 . S
C252 O232 1.252 . S
C252 O235 1.268 . S
C252 C245 1.506 1_556 S
C253 C220 1.439 . S
C253 H230 0.931 . S
C253 C254 1.374 . S
C254 C225 1.387 . S
C254 H231 0.931 . S
C254 C253 1.374 . S
C255 O239 1.249 . S
C255 O240 1.264 . S
C256 C259 1.382 . S
C256 C260 1.390 1_565 S
C256 C263 1.506 . S
C257 C258 1.398 1_545 S
C257 C260 1.392 . S
C258 C257 1.398 1_565 S
C258 C261 1.372 . S
C258 H268 0.931 . S
C259 C256 1.382 . S
C259 C261 1.390 . S
C259 H269 0.931 . S
C260 C256 1.390 1_545 S
C260 C257 1.392 . S
C260 H270 0.930 . S
C261 C258 1.372 . S
C261 C259 1.390 . S
C261 H271 0.929 . S
C262 O242 1.255 . S
C262 O243 1.257 . S
C263 Eu199 2.787 . S
C263 O238 1.252 . S
C263 O241 1.268 . S
C263 C256 1.506 . S
H264 C247 0.931 . S
H265 C248 0.931 . S
H266 C249 0.929 . S
H267 C250 0.930 1_556 S
H268 C258 0.931 . S
H269 C259 0.931 . S
H270 C260 0.930 . S
H271 C261 0.929 . S
Eu272 N301 2.600 . S
Eu272 N307 2.562 . S
Eu272 O316 2.462 . S
Eu272 O317 2.373 . S
Eu272 O319 2.432 . S
Eu272 O320 2.291 . S
Eu272 O324 2.335 . S
Eu272 O327 2.372 . S
Eu272 C336 2.787 . S
C273 N274 1.365 . S
C273 C276 1.405 . S
C273 C280 1.448 . S
N274 C273 1.365 . S
N274 C277 1.319 . S
N274 Eu283 2.600 . S
C275 C277 1.397 . S
C275 C278 1.367 . S
C275 H295 0.931 . S
C276 C273 1.405 . S
C276 C278 1.403 . S
C276 C282 1.439 1_556 S
C277 N274 1.319 . S
C277 C275 1.397 . S
C277 H288 0.930 . S
C278 C275 1.367 . S
C278 C276 1.403 . S
C278 H299 0.929 . S
C279 C280 1.430 1_554 S
C279 C281 1.387 . S
C279 C285 1.404 . S
C280 C273 1.448 . S
C280 C279 1.430 1_556 S
C280 N284 1.351 . S
C281 C279 1.387 . S
C281 C282 1.374 . S
C281 H296 0.931 . S
C282 C276 1.439 1_554 S
C282 C281 1.374 . S
C282 H297 0.931 . S
Eu283 N274 2.600 . S
Eu283 N284 2.562 . S
Eu283 O318 2.335 . S
Eu283 O321 2.372 . S
Eu283 O322 2.462 . S
Eu283 O323 2.373 . S
Eu283 O325 2.432 . S
Eu283 O326 2.291 . S
Eu283 C347 2.787 . S
N284 C280 1.351 . S
N284 Eu283 2.562 . S
N284 C286 1.325 1_556 S
C285 C279 1.404 . S
C285 C287 1.366 . S
C285 H293 0.930 . S
C286 N284 1.325 1_554 S
C286 C287 1.416 . S
C286 H292 0.929 1_554 S
C287 C285 1.366 . S
C287 C286 1.416 . S
C287 H289 0.930 . S
H288 C277 0.930 . S
H289 C287 0.930 . S
H290 C305 0.930 . S
H291 C312 0.930 . S
H292 C286 0.929 1_556 S
H293 C285 0.930 . S
H294 C308 0.929 . S
H295 C275 0.931 . S
H296 C281 0.931 . S
H297 C282 0.931 . S
H298 C303 0.931 . S
H299 C278 0.929 . S
H300 C311 0.930 . S
N301 Eu272 2.600 . S
N301 C302 1.365 . S
N301 C305 1.319 . S
C302 N301 1.365 . S
C302 C304 1.405 . S
C302 C310 1.448 . S
C303 H298 0.931 . S
C303 C305 1.397 . S
C303 C306 1.367 . S
C304 C302 1.405 . S
C304 C306 1.403 . S
C304 C337 1.439 . S
C305 H290 0.930 . S
C305 N301 1.319 . S
C305 C303 1.397 . S
C306 C303 1.367 . S
C306 C304 1.403 . S
C306 H313 0.929 . S
N307 Eu272 2.562 . S
N307 C308 1.325 . S
N307 C310 1.351 . S
C308 H294 0.929 . S
C308 N307 1.325 . S
C308 C312 1.416 . S
C309 C310 1.430 . S
C309 C311 1.404 . S
C309 C338 1.387 . S
C310 C302 1.448 . S
C310 N307 1.351 . S
C310 C309 1.430 . S
C311 H300 0.930 . S
C311 C309 1.404 . S
C311 C312 1.366 . S
C312 H291 0.930 . S
C312 C308 1.416 . S
C312 C311 1.366 . S
H313 C306 0.929 . S
H314 C337 0.931 . S
H315 C338 0.931 . S
O316 Eu272 2.462 . S
O316 C336 1.252 . S
O317 Eu272 2.373 . S
O317 C328 1.249 . S
O318 Eu283 2.335 . S
O318 C328 1.264 . S
O319 Eu272 2.432 . S
O319 C336 1.268 . S
O320 Eu272 2.291 . S
O320 C335 1.255 . S
O321 Eu283 2.372 . S
O321 C335 1.257 . S
O322 Eu283 2.462 . S
O322 C347 1.252 . S
O323 Eu283 2.373 . S
O323 C339 1.249 . S
O324 Eu272 2.335 . S
O324 C339 1.264 . S
O325 Eu283 2.432 . S
O325 C347 1.268 . S
O326 Eu283 2.291 . S
O326 C346 1.255 . S
O327 Eu272 2.372 . S
O327 C346 1.257 . S
C328 O317 1.249 . S
C328 O318 1.264 . S
C329 C332 1.382 . S
C329 C334 1.390 . S
C329 C336 1.506 . S
C330 C331 1.398 . S
C330 C334 1.392 . S
C331 C330 1.398 . S
C331 C333 1.372 . S
C331 H348 0.931 . S
C332 C329 1.382 . S
C332 C333 1.390 . S
C332 H349 0.931 . S
C333 C331 1.372 . S
C333 C332 1.390 . S
C333 H350 0.929 . S
C334 C329 1.390 . S
C334 C330 1.392 . S
C334 H351 0.930 . S
C335 O320 1.255 . S
C335 O321 1.257 . S
C336 Eu272 2.787 . S
C336 O316 1.252 . S
C336 O319 1.268 . S
C336 C329 1.506 . S
C337 C304 1.439 . S
C337 H314 0.931 . S
C337 C338 1.374 . S
C338 C309 1.387 . S
C338 H315 0.931 . S
C338 C337 1.374 . S
C339 O323 1.249 . S
C339 O324 1.264 . S
C340 C343 1.382 . S
C340 C344 1.390 . S
C340 C347 1.506 . S
C341 C342 1.398 . S
C341 C344 1.392 1_554 S
C342 C341 1.398 . S
C342 C345 1.372 1_554 S
C342 H352 0.931 . S
C343 C340 1.382 . S
C343 C345 1.390 . S
C343 H353 0.931 . S
C344 C340 1.390 . S
C344 C341 1.392 1_556 S
C344 H354 0.930 . S
C345 C342 1.372 1_556 S
C345 C343 1.390 . S
C345 H355 0.929 . S
C346 O326 1.255 . S
C346 O327 1.257 . S
C347 Eu283 2.787 . S
C347 O322 1.252 . S
C347 O325 1.268 . S
C347 C340 1.506 . S
H348 C331 0.931 . S
H349 C332 0.931 . S
H350 C333 0.929 . S
H351 C334 0.930 . S
H352 C342 0.931 . S
H353 C343 0.931 . S
H354 C344 0.930 . S
H355 C345 0.929 . S
Eu356 N385 2.600 . S
Eu356 N391 2.562 . S
Eu356 O400 2.462 . S
Eu356 O401 2.373 1_455 S
Eu356 O403 2.432 . S
Eu356 O404 2.291 . S
Eu356 O408 2.335 . S
Eu356 O411 2.372 . S
Eu356 C420 2.787 . S
C357 N358 1.365 . S
C357 C360 1.405 . S
C357 C364 1.448 . S
N358 C357 1.365 . S
N358 C361 1.318 1_455 S
N358 Eu367 2.600 1_455 S
C359 C361 1.395 1_455 S
C359 C362 1.367 . S
C359 H379 0.931 . S
C360 C357 1.405 . S
C360 C362 1.403 . S
C360 C366 1.439 1_556 S
C361 N358 1.318 1_655 S
C361 C359 1.395 1_655 S
C361 H372 0.933 . S
C362 C359 1.367 . S
C362 C360 1.403 . S
C362 H383 0.929 . S
C363 C364 1.430 1_554 S
C363 C365 1.387 . S
C363 C369 1.404 . S
C364 C357 1.448 . S
C364 C363 1.430 1_556 S
C364 N368 1.351 . S
C365 C363 1.387 . S
C365 C366 1.374 . S
C365 H380 0.931 . S
C366 C360 1.439 1_554 S
C366 C365 1.374 . S
C366 H381 0.931 . S
Eu367 N358 2.600 1_655 S
Eu367 N368 2.562 1_655 S
Eu367 O402 2.335 . S
Eu367 O405 2.372 . S
Eu367 O406 2.462 . S
Eu367 O407 2.373 1_655 S
Eu367 O409 2.432 . S
Eu367 O410 2.291 1_655 S
Eu367 C431 2.787 . S
N368 C364 1.351 . S
N368 Eu367 2.562 1_455 S
N368 C370 1.325 1_556 S
C369 C363 1.404 . S
C369 C371 1.366 . S
C369 H377 0.930 . S
C370 N368 1.325 1_554 S
C370 C371 1.416 . S
C370 H376 0.929 1_554 S
C371 C369 1.366 . S
C371 C370 1.416 . S
C371 H373 0.930 . S
H372 C361 0.933 . S
H373 C371 0.930 . S
H374 C389 0.930 . S
H375 C396 0.930 . S
H376 C370 0.929 1_556 S
H377 C369 0.930 . S
H378 C392 0.929 . S
H379 C359 0.931 . S
H380 C365 0.931 . S
H381 C366 0.931 . S
H382 C387 0.931 . S
H383 C362 0.929 . S
H384 C395 0.930 . S
N385 Eu356 2.600 . S
N385 C386 1.381 . S
N385 C389 1.319 . S
C386 N385 1.381 . S
C386 C388 1.393 1_455 S
C386 C394 1.445 1_455 S
C387 H382 0.931 . S
C387 C389 1.397 . S
C387 C390 1.367 1_455 S
C388 C386 1.393 1_655 S
C388 C390 1.403 . S
C388 C421 1.439 . S
C389 H374 0.930 . S
C389 N385 1.319 . S
C389 C387 1.397 . S
C390 C387 1.367 1_655 S
C390 C388 1.403 . S
C390 H397 0.929 . S
N391 Eu356 2.562 . S
N391 C392 1.325 . S
N391 C394 1.351 1_455 S
C392 H378 0.929 . S
C392 N391 1.325 . S
C392 C396 1.416 1_455 S
C393 C394 1.430 . S
C393 C395 1.404 . S
C393 C422 1.387 . S
C394 C386 1.445 1_655 S
C394 N391 1.351 1_655 S
C394 C393 1.430 . S
C395 H384 0.930 . S
C395 C393 1.404 . S
C395 C396 1.366 . S
C396 H375 0.930 . S
C396 C392 1.416 1_655 S
C396 C395 1.366 . S
H397 C390 0.929 . S
H398 C421 0.931 . S
H399 C422 0.931 . S
O400 Eu356 2.462 . S
O400 C420 1.252 . S
O401 Eu356 2.373 1_655 S
O401 C412 1.249 . S
O402 Eu367 2.335 . S
O402 C412 1.264 . S
O403 Eu356 2.432 . S
O403 C420 1.268 . S
O404 Eu356 2.291 . S
O404 C419 1.255 . S
O405 Eu367 2.372 . S
O405 C419 1.257 1_655 S
O406 Eu367 2.462 . S
O406 C431 1.252 . S
O407 Eu367 2.373 1_455 S
O407 C423 1.249 . S
O408 Eu356 2.335 . S
O408 C423 1.264 . S
O409 Eu367 2.432 . S
O409 C431 1.268 . S
O410 Eu367 2.291 1_455 S
O410 C430 1.255 . S
O411 Eu356 2.372 . S
O411 C430 1.257 . S
C412 O401 1.249 . S
C412 O402 1.264 . S
C413 C416 1.382 . S
C413 C418 1.390 . S
C413 C420 1.506 . S
C414 C415 1.398 . S
C414 C418 1.392 . S
C415 C414 1.398 . S
C415 C417 1.372 . S
C415 H432 0.931 . S
C416 C413 1.382 . S
C416 C417 1.390 . S
C416 H433 0.931 . S
C417 C415 1.372 . S
C417 C416 1.390 . S
C417 H434 0.929 . S
C418 C413 1.390 . S
C418 C414 1.392 . S
C418 H435 0.930 . S
C419 O404 1.255 . S
C419 O405 1.257 1_455 S
C420 Eu356 2.787 . S
C420 O400 1.252 . S
C420 O403 1.268 . S
C420 C413 1.506 . S
C421 C388 1.439 . S
C421 H398 0.931 . S
C421 C422 1.374 . S
C422 C393 1.387 . S
C422 H399 0.931 . S
C422 C421 1.374 . S
C423 O407 1.249 . S
C423 O408 1.264 . S
C424 C427 1.382 . S
C424 C428 1.390 . S
C424 C431 1.506 . S
C425 C426 1.398 . S
C425 C428 1.392 1_554 S
C426 C425 1.398 . S
C426 C429 1.372 1_554 S
C426 H436 0.931 . S
C427 C424 1.382 . S
C427 C429 1.390 . S
C427 H437 0.931 . S
C428 C424 1.390 . S
C428 C425 1.392 1_556 S
C428 H438 0.930 . S
C429 C426 1.372 1_556 S
C429 C427 1.390 . S
C429 H439 0.929 . S
C430 O410 1.255 . S
C430 O411 1.257 . S
C431 Eu367 2.787 . S
C431 O406 1.252 . S
C431 O409 1.268 . S
C431 C424 1.506 . S
H432 C415 0.931 . S
H433 C416 0.931 . S
H434 C417 0.929 . S
H435 C418 0.930 . S
H436 C426 0.931 . S
H437 C427 0.931 . S
H438 C428 0.930 . S
H439 C429 0.929 . S
H440 C448 0.950 . S
H441 C453 0.950 . S
H442 C450 0.950 . S
H443 C452 0.950 . S
H444 C454 0.950 . S
H445 C456 0.950 . S
H446 C458 0.950 . S
H447 C459 0.950 . S
C448 H440 0.950 . S
C448 C449 1.386 . S
C448 C450 1.391 . S
C449 C448 1.386 . S
C449 C453 1.393 . S
C450 H442 0.950 . S
C450 C448 1.391 . S
C450 C451 1.400 . S
C451 C450 1.400 . S
C451 C452 1.398 . S
C451 C457 1.491 . S
C452 H443 0.950 . S
C452 C451 1.398 . S
C452 C453 1.391 . S
C453 H441 0.950 . S
C453 C449 1.393 . S
C453 C452 1.391 . S
C454 H444 0.950 . S
C454 C455 1.386 . S
C454 C456 1.391 . S
C455 C454 1.386 . S
C455 C459 1.393 . S
C456 H445 0.950 . S
C456 C454 1.391 . S
C456 C457 1.400 . S
C457 C451 1.491 . S
C457 C456 1.400 . S
C457 C458 1.398 . S
C458 H446 0.950 . S
C458 C457 1.398 . S
C458 C459 1.391 . S
C459 H447 0.950 . S
C459 C455 1.393 . S
C459 C458 1.391 . S
H460 C468 0.950 . S
H461 C473 0.950 . S
H462 C470 0.950 . S
H463 C472 0.950 . S
H464 C474 0.950 . S
H465 C476 0.950 . S
H466 C478 0.950 . S
H467 C479 0.950 . S
C468 H460 0.950 . S
C468 C469 1.386 . S
C468 C470 1.391 . S
C469 C468 1.386 . S
C469 C473 1.393 . S
C470 H462 0.950 . S
C470 C468 1.391 . S
C470 C471 1.400 . S
C471 C470 1.400 . S
C471 C472 1.398 . S
C471 C477 1.491 . S
C472 H463 0.950 . S
C472 C471 1.398 . S
C472 C473 1.391 . S
C473 H461 0.950 . S
C473 C469 1.393 . S
C473 C472 1.391 . S
C474 H464 0.950 . S
C474 C475 1.386 . S
C474 C476 1.391 . S
C475 C474 1.386 . S
C475 C479 1.393 . S
C476 H465 0.950 . S
C476 C474 1.391 . S
C476 C477 1.400 . S
C477 C471 1.491 . S
C477 C476 1.400 . S
C477 C478 1.398 . S
C478 H466 0.950 . S
C478 C477 1.398 . S
C478 C479 1.391 . S
C479 H467 0.950 . S
C479 C475 1.393 . S
C479 C478 1.391 . S
H480 C488 0.950 . S
H481 C493 0.950 . S
H482 C490 0.950 . S
H483 C492 0.950 . S
H484 C494 0.950 . S
H485 C496 0.950 . S
H486 C498 0.950 . S
H487 C499 0.950 . S
C488 H480 0.950 . S
C488 C489 1.386 . S
C488 C490 1.391 . S
C489 C488 1.386 . S
C489 C493 1.393 . S
C490 H482 0.950 . S
C490 C488 1.391 . S
C490 C491 1.400 . S
C491 C490 1.400 . S
C491 C492 1.398 . S
C491 C497 1.491 . S
C492 H483 0.950 . S
C492 C491 1.398 . S
C492 C493 1.391 . S
C493 H481 0.950 . S
C493 C489 1.393 . S
C493 C492 1.391 . S
C494 H484 0.950 . S
C494 C495 1.386 . S
C494 C496 1.391 . S
C495 C494 1.386 . S
C495 C499 1.393 . S
C496 H485 0.950 . S
C496 C494 1.391 . S
C496 C497 1.400 . S
C497 C491 1.491 . S
C497 C496 1.400 . S
C497 C498 1.398 . S
C498 H486 0.950 . S
C498 C497 1.398 . S
C498 C499 1.391 . S
C499 H487 0.950 . S
C499 C495 1.393 . S
C499 C498 1.391 . S
H500 C508 0.950 . S
H501 C513 0.950 . S
H502 C510 0.950 . S
H503 C512 0.950 . S
H504 C514 0.950 . S
H505 C516 0.950 . S
H506 C518 0.950 . S
H507 C519 0.944 1_655 S
C508 H500 0.950 . S
C508 C509 1.386 . S
C508 C510 1.391 . S
C509 C508 1.386 . S
C509 C513 1.393 . S
C510 H502 0.950 . S
C510 C508 1.391 . S
C510 C511 1.400 . S
C511 C510 1.400 . S
C511 C512 1.398 . S
C511 C517 1.491 . S
C512 H503 0.950 . S
C512 C511 1.398 . S
C512 C513 1.391 . S
C513 H501 0.950 . S
C513 C509 1.393 . S
C513 C512 1.391 . S
C514 H504 0.950 . S
C514 C515 1.386 . S
C514 C516 1.391 . S
C515 C514 1.386 . S
C515 C519 1.393 . S
C516 H505 0.950 . S
C516 C514 1.391 . S
C516 C517 1.400 . S
C517 C511 1.491 . S
C517 C516 1.400 . S
C517 C518 1.398 . S
C518 H506 0.950 . S
C518 C517 1.398 . S
C518 C519 1.391 . S
C519 H507 0.944 1_455 S
C519 C515 1.393 . S
C519 C518 1.391 . S
H520 C528 0.950 . S
H521 C533 0.950 . S
H522 C530 0.950 . S
H523 C532 0.950 . S
H524 C534 0.950 . S
H525 C536 0.950 . S
H526 C538 0.950 . S
H527 C539 0.950 . S
C528 H520 0.950 . S
C528 C529 1.386 . S
C528 C530 1.391 . S
C529 C528 1.386 . S
C529 C533 1.393 1_565 S
C530 H522 0.950 . S
C530 C528 1.391 . S
C530 C531 1.400 . S
C531 C530 1.400 . S
C531 C532 1.398 1_565 S
C531 C537 1.491 . S
C532 H523 0.950 . S
C532 C531 1.398 1_545 S
C532 C533 1.391 . S
C533 H521 0.950 . S
C533 C529 1.393 1_545 S
C533 C532 1.391 . S
C534 H524 0.950 . S
C534 C535 1.386 . S
C534 C536 1.391 . S
C535 C534 1.386 . S
C535 C539 1.393 1_545 S
C536 H525 0.950 . S
C536 C534 1.391 . S
C536 C537 1.400 1_546 S
C537 C531 1.491 . S
C537 C536 1.400 1_564 S
C537 C538 1.398 . S
C538 H526 0.950 . S
C538 C537 1.398 . S
C538 C539 1.391 1_554 S
C539 H527 0.950 . S
C539 C535 1.393 1_565 S
C539 C538 1.391 1_556 S
H540 C548 0.950 . S
H541 C553 0.950 . S
H542 C550 0.950 . S
H543 C552 0.950 . S
H544 C554 0.950 . S
H545 C556 0.950 . S
H546 C558 0.950 . S
H547 C559 0.950 . S
C548 H540 0.950 . S
C548 C549 1.386 . S
C548 C550 1.391 . S
C549 C548 1.386 . S
C549 C553 1.393 . S
C550 H542 0.950 . S
C550 C548 1.391 . S
C550 C551 1.400 . S
C551 C550 1.400 . S
C551 C552 1.398 . S
C551 C557 1.491 . S
C552 H543 0.950 . S
C552 C551 1.398 . S
C552 C553 1.391 . S
C553 H541 0.950 . S
C553 C549 1.393 . S
C553 C552 1.391 . S
C554 H544 0.950 . S
C554 C555 1.386 . S
C554 C556 1.391 1_556 S
C555 C554 1.386 . S
C555 C559 1.393 . S
C556 H545 0.950 . S
C556 C554 1.391 1_554 S
C556 C557 1.400 . S
C557 C551 1.491 . S
C557 C556 1.400 . S
C557 C558 1.398 1_554 S
C558 H546 0.950 . S
C558 C557 1.398 1_556 S
C558 C559 1.391 . S
C559 H547 0.950 . S
C559 C555 1.393 . S
C559 C558 1.391 . S
H560 C568 0.950 . S
H561 C573 0.950 . S
H562 C570 0.950 . S
H563 C572 0.950 . S
H564 C574 0.950 . S
H565 C576 0.950 1_554 S
H566 C578 0.950 . S
H567 C579 0.950 . S
C568 H560 0.950 . S
C568 C569 1.386 . S
C568 C570 1.391 . S
C569 C568 1.386 . S
C569 C573 1.393 . S
C570 H562 0.950 . S
C570 C568 1.391 . S
C570 C571 1.400 . S
C571 C570 1.400 . S
C571 C572 1.398 . S
C571 C577 1.491 . S
C572 H563 0.950 . S
C572 C571 1.398 . S
C572 C573 1.391 . S
C573 H561 0.950 . S
C573 C569 1.393 . S
C573 C572 1.391 . S
C574 H564 0.950 . S
C574 C575 1.386 . S
C574 C576 1.391 . S
C575 C574 1.386 . S
C575 C579 1.393 . S
C576 H565 0.950 1_556 S
C576 C574 1.391 . S
C576 C577 1.400 1_556 S
C577 C571 1.491 . S
C577 C576 1.400 1_554 S
C577 C578 1.398 . S
C578 H566 0.950 . S
C578 C577 1.398 . S
C578 C579 1.391 1_554 S
C579 H567 0.950 . S
C579 C575 1.393 . S
C579 C578 1.391 1_556 S
H580 C588 0.950 . S
H581 C593 0.950 . S
H582 C590 0.950 . S
H583 C592 0.950 . S
H584 C594 0.950 . S
H585 C596 0.950 . S
H586 C598 0.950 . S
H587 C599 0.950 . S
C588 H580 0.950 . S
C588 C589 1.386 1_455 S
C588 C590 1.391 . S
C589 C588 1.386 1_655 S
C589 C593 1.393 . S
C590 H582 0.950 . S
C590 C588 1.391 . S
C590 C591 1.400 1_455 S
C591 C590 1.400 1_655 S
C591 C592 1.398 . S
C591 C597 1.491 . S
C592 H583 0.950 . S
C592 C591 1.398 . S
C592 C593 1.391 . S
C593 H581 0.950 . S
C593 C589 1.393 . S
C593 C592 1.391 . S
C594 H584 0.950 . S
C594 C595 1.416 . S
C594 C596 1.391 . S
C595 C594 1.416 . S
C595 C599 1.366 1_655 S
C596 H585 0.950 . S
C596 C594 1.391 . S
C596 C597 1.400 1_556 S
C597 C591 1.491 . S
C597 C596 1.400 1_554 S
C597 C598 1.398 1_655 S
C598 H586 0.950 . S
C598 C597 1.398 1_455 S
C598 C599 1.391 1_554 S
C599 H587 0.950 . S
C599 C595 1.366 1_455 S
C599 C598 1.391 1_556 S
H600 C608 0.950 . S
H601 C613 0.950 . S
H602 C610 0.950 . S
H603 C612 0.950 1_655 S
H604 C614 0.950 . S
H605 C616 0.950 . S
H606 C618 0.950 . S
H607 C619 0.950 . S
C608 H600 0.950 . S
C608 C609 1.386 . S
C608 C610 1.391 . S
C609 C608 1.386 . S
C609 C613 1.393 . S
C610 H602 0.950 . S
C610 C608 1.391 . S
C610 C611 1.400 . S
C611 C610 1.400 . S
C611 C612 1.398 . S
C611 C617 1.491 . S
C612 H603 0.950 1_455 S
C612 C611 1.398 . S
C612 C613 1.391 . S
C613 H601 0.950 . S
C613 C609 1.393 . S
C613 C612 1.391 . S
C614 H604 0.950 . S
C614 C615 1.386 1_655 S
C614 C616 1.391 . S
C615 C614 1.386 1_455 S
C615 C619 1.393 . S
C616 H605 0.950 . S
C616 C614 1.391 . S
C616 C617 1.400 1_655 S
C617 C611 1.491 . S
C617 C616 1.400 1_455 S
C617 C618 1.398 . S
C618 H606 0.950 . S
C618 C617 1.398 . S
C618 C619 1.391 . S
C619 H607 0.950 . S
C619 C615 1.393 . S
C619 C618 1.391 . S
H620 C628 0.950 . S
H621 C633 0.950 . S
H622 C630 0.950 1_565 S
H623 C632 0.950 . S
H624 C634 0.950 . S
H625 C636 0.950 . S
H626 C638 0.950 . S
H627 C639 0.950 . S
C628 H620 0.950 . S
C628 C629 1.386 . S
C628 C630 1.391 . S
C629 C628 1.386 . S
C629 C633 1.393 . S
C630 H622 0.950 1_545 S
C630 C628 1.391 . S
C630 C631 1.400 . S
C631 C630 1.400 . S
C631 C632 1.398 . S
C631 C637 1.491 . S
C632 H623 0.950 . S
C632 C631 1.398 . S
C632 C633 1.391 . S
C633 H621 0.950 . S
C633 C629 1.393 . S
C633 C632 1.391 . S
C634 H624 0.950 . S
C634 C635 1.386 . S
C634 C636 1.391 . S
C635 C634 1.386 . S
C635 C639 1.393 1_545 S
C636 H625 0.950 . S
C636 C634 1.391 . S
C636 C637 1.400 . S
C637 C631 1.491 . S
C637 C636 1.400 . S
C637 C638 1.398 1_545 S
C638 H626 0.950 . S
C638 C637 1.398 1_565 S
C638 C639 1.391 . S
C639 H627 0.950 . S
C639 C635 1.393 1_565 S
C639 C638 1.391 . S
H640 C648 0.950 . S
H641 C653 0.950 . S
H642 C650 0.950 . S
H643 C652 0.950 . S
H644 C654 0.950 . S
H645 C656 0.950 . S
H646 C658 0.950 . S
H647 C659 0.950 . S
C648 H640 0.950 . S
C648 C649 1.386 . S
C648 C650 1.391 . S
C649 C648 1.386 . S
C649 C653 1.393 . S
C650 H642 0.950 . S
C650 C648 1.391 . S
C650 C651 1.400 . S
C651 C650 1.400 . S
C651 C652 1.398 . S
C651 C657 1.491 . S
C652 H643 0.950 . S
C652 C651 1.398 . S
C652 C653 1.391 . S
C653 H641 0.950 . S
C653 C649 1.393 . S
C653 C652 1.391 . S
C654 H644 0.950 . S
C654 C655 1.386 . S
C654 C656 1.391 . S
C655 C654 1.386 . S
C655 C659 1.393 . S
C656 H645 0.950 . S
C656 C654 1.391 . S
C656 C657 1.400 . S
C657 C651 1.491 . S
C657 C656 1.400 . S
C657 C658 1.398 . S
C658 H646 0.950 . S
C658 C657 1.398 . S
C658 C659 1.391 . S
C659 H647 0.950 . S
C659 C655 1.393 . S
C659 C658 1.391 . S
H660 C668 0.950 1_556 S
H661 C673 0.950 . S
H662 C670 0.950 . S
H663 C672 0.950 . S
H664 C674 0.950 . S
H665 C676 0.950 . S
H666 C678 0.950 . S
H667 C679 0.950 . S
C668 H660 0.950 1_554 S
C668 C669 1.386 . S
C668 C670 1.391 . S
C669 C668 1.386 . S
C669 C673 1.393 . S
C670 H662 0.950 . S
C670 C668 1.391 . S
C670 C671 1.400 . S
C671 C670 1.400 . S
C671 C672 1.398 . S
C671 C677 1.491 . S
C672 H663 0.950 . S
C672 C671 1.398 . S
C672 C673 1.391 . S
C673 H661 0.950 . S
C673 C669 1.393 . S
C673 C672 1.391 . S
C674 H664 0.950 . S
C674 C675 1.386 . S
C674 C676 1.391 . S
C675 C674 1.386 . S
C675 C679 1.393 . S
C676 H665 0.950 . S
C676 C674 1.391 . S
C676 C677 1.400 . S
C677 C671 1.491 . S
C677 C676 1.400 . S
C677 C678 1.398 . S
C678 H666 0.950 . S
C678 C677 1.398 . S
C678 C679 1.391 . S
C679 H667 0.950 . S
C679 C675 1.393 . S
C679 C678 1.391 . S
H680 C688 0.950 . S
H681 C693 0.958 . S
H682 C690 0.950 . S
H683 C692 0.950 . S
H684 C694 0.950 . S
H685 C696 0.950 . S
H686 C698 0.950 . S
H687 C699 0.950 1_556 S
C688 H680 0.950 . S
C688 C689 1.386 . S
C688 C690 1.391 . S
C689 C688 1.386 . S
C689 C693 1.382 1_655 S
C690 H682 0.950 . S
C690 C688 1.391 . S
C690 C691 1.400 . S
C691 C690 1.400 . S
C691 C692 1.398 1_655 S
C691 C697 1.491 1_655 S
C692 H683 0.950 . S
C692 C691 1.398 1_455 S
C692 C693 1.394 . S
C693 H681 0.958 . S
C693 C689 1.382 1_455 S
C693 C692 1.394 . S
C694 H684 0.950 . S
C694 C695 1.386 . S
C694 C696 1.391 . S
C695 C694 1.386 . S
C695 C699 1.393 1_455 S
C696 H685 0.950 . S
C696 C694 1.391 . S
C696 C697 1.400 . S
C697 C691 1.491 1_455 S
C697 C696 1.400 . S
C697 C698 1.398 1_455 S
C698 H686 0.950 . S
C698 C697 1.398 1_655 S
C698 C699 1.391 . S
C699 H687 0.950 1_554 S
C699 C695 1.393 1_655 S
C699 C698 1.391 . S
H700 C708 0.950 . S
H701 C713 0.950 . S
H702 C710 0.950 1_545 S
H703 C712 0.950 . S
H704 C714 0.950 . S
H705 C716 0.950 1_565 S
H706 C718 0.950 . S
H707 C719 0.950 1_556 S
C708 H700 0.950 . S
C708 C709 1.386 . S
C708 C710 1.391 . S
C709 C708 1.386 . S
C709 C713 1.393 . S
C710 H702 0.950 1_565 S
C710 C708 1.391 . S
C710 C711 1.400 . S
C711 C710 1.400 . S
C711 C712 1.398 . S
C711 C717 1.491 1_565 S
C712 H703 0.950 . S
C712 C711 1.398 . S
C712 C713 1.391 . S
C713 H701 0.950 . S
C713 C709 1.393 . S
C713 C712 1.391 . S
C714 H704 0.950 . S
C714 C715 1.386 . S
C714 C716 1.391 . S
C715 C714 1.386 . S
C715 C719 1.393 . S
C716 H705 0.950 1_545 S
C716 C714 1.391 . S
C716 C717 1.400 . S
C717 C711 1.491 1_545 S
C717 C716 1.400 . S
C717 C718 1.398 . S
C718 H706 0.950 . S
C718 C717 1.398 . S
C718 C719 1.391 . S
C719 H707 0.950 1_554 S
C719 C715 1.393 . S
C719 C718 1.391 . S
H720 C728 0.950 . S
H721 C733 0.950 . S
H722 C730 0.950 . S
H723 C732 0.950 . S
H724 C734 0.950 1_556 S
H725 C736 0.950 . S
H726 C738 0.950 . S
H727 C739 0.950 . S
C728 H720 0.950 . S
C728 C729 1.386 . S
C728 C730 1.391 . S
C729 C728 1.386 . S
C729 C733 1.393 . S
C730 H722 0.950 . S
C730 C728 1.391 . S
C730 C731 1.400 . S
C731 C730 1.400 . S
C731 C732 1.398 . S
C731 C737 1.491 . S
C732 H723 0.950 . S
C732 C731 1.398 . S
C732 C733 1.391 . S
C733 H721 0.950 . S
C733 C729 1.393 . S
C733 C732 1.391 . S
C734 H724 0.950 1_554 S
C734 C735 1.386 . S
C734 C736 1.391 . S
C735 C734 1.386 . S
C735 C739 1.393 . S
C736 H725 0.950 . S
C736 C734 1.391 . S
C736 C737 1.400 . S
C737 C731 1.491 . S
C737 C736 1.400 . S
C737 C738 1.398 . S
C738 H726 0.950 . S
C738 C737 1.398 . S
C738 C739 1.391 . S
C739 H727 0.950 . S
C739 C735 1.393 . S
C739 C738 1.391 . S
H740 C748 0.950 . S
H741 C753 0.950 . S
H742 C750 0.950 . S
H743 C752 0.950 . S
H744 C754 0.950 1_556 S
H745 C756 0.950 . S
H746 C758 0.950 . S
H747 C759 0.950 . S
C748 H740 0.950 . S
C748 C749 1.386 . S
C748 C750 1.391 . S
C749 C748 1.386 . S
C749 C753 1.393 . S
C750 H742 0.950 . S
C750 C748 1.391 . S
C750 C751 1.400 . S
C751 C750 1.400 . S
C751 C752 1.398 . S
C751 C757 1.491 . S
C752 H743 0.950 . S
C752 C751 1.398 . S
C752 C753 1.391 . S
C753 H741 0.950 . S
C753 C749 1.393 . S
C753 C752 1.391 . S
C754 H744 0.950 1_554 S
C754 C755 1.386 . S
C754 C756 1.391 . S
C755 C754 1.386 . S
C755 C759 1.393 . S
C756 H745 0.950 . S
C756 C754 1.391 . S
C756 C757 1.400 . S
C757 C751 1.491 . S
C757 C756 1.400 . S
C757 C758 1.398 . S
C758 H746 0.950 . S
C758 C757 1.398 . S
C758 C759 1.391 . S
C759 H747 0.950 . S
C759 C755 1.393 . S
C759 C758 1.391 . S
H760 C768 0.950 1_554 S
H761 C773 0.950 . S
H762 C770 0.950 . S
H763 C772 0.950 . S
H764 C774 0.950 1_655 S
H765 C776 0.950 . S
H766 C778 0.950 . S
H767 C779 0.950 . S
C768 H760 0.950 1_556 S
C768 C769 1.386 . S
C768 C770 1.391 . S
C769 C768 1.386 . S
C769 C773 1.393 . S
C770 H762 0.950 . S
C770 C768 1.391 . S
C770 C771 1.400 . S
C771 C770 1.400 . S
C771 C772 1.398 . S
C771 C777 1.491 . S
C772 H763 0.950 . S
C772 C771 1.398 . S
C772 C773 1.391 . S
C773 H761 0.950 . S
C773 C769 1.393 . S
C773 C772 1.391 . S
C774 H764 0.950 1_455 S
C774 C775 1.386 . S
C774 C776 1.391 . S
C775 C774 1.386 . S
C775 C779 1.393 . S
C776 H765 0.950 . S
C776 C774 1.391 . S
C776 C777 1.400 . S
C777 C771 1.491 . S
C777 C776 1.400 . S
C777 C778 1.398 . S
C778 H766 0.950 . S
C778 C777 1.398 . S
C778 C779 1.391 . S
C779 H767 0.950 . S
C779 C775 1.393 . S
C779 C778 1.391 . S
H780 C788 0.950 . S
H781 C793 0.950 1_554 S
H782 C790 0.950 . S
H783 C792 0.950 1_554 S
H784 C794 0.950 . S
H785 C796 0.950 . S
H786 C798 0.950 . S
H787 C799 0.950 . S
C788 H780 0.950 . S
C788 C789 1.386 . S
C788 C790 1.391 . S
C789 C788 1.386 . S
C789 C793 1.393 . S
C790 H782 0.950 . S
C790 C788 1.391 . S
C790 C791 1.400 . S
C791 C790 1.400 . S
C791 C792 1.398 . S
C791 C797 1.491 . S
C792 H783 0.950 1_556 S
C792 C791 1.398 . S
C792 C793 1.391 . S
C793 H781 0.950 1_556 S
C793 C789 1.393 . S
C793 C792 1.391 . S
C794 H784 0.950 . S
C794 C795 1.386 . S
C794 C796 1.391 . S
C795 C794 1.386 . S
C795 C799 1.393 . S
C796 H785 0.950 . S
C796 C794 1.391 . S
C796 C797 1.400 . S
C797 C791 1.491 . S
C797 C796 1.400 . S
C797 C798 1.398 . S
C798 H786 0.950 . S
C798 C797 1.398 . S
C798 C799 1.391 . S
C799 H787 0.950 . S
C799 C795 1.393 . S
C799 C798 1.391 . S
H800 C808 0.950 . S
H801 C813 0.950 . S
H802 C810 0.950 . S
H803 C812 0.950 . S
H804 C814 0.950 . S
H805 C816 0.950 . S
H806 C818 0.950 . S
H807 C819 0.950 . S
C808 H800 0.950 . S
C808 C809 1.386 . S
C808 C810 1.391 . S
C809 C808 1.386 . S
C809 C813 1.393 . S
C810 H802 0.950 . S
C810 C808 1.391 . S
C810 C811 1.400 . S
C811 C810 1.400 . S
C811 C812 1.398 . S
C811 C817 1.491 . S
C812 H803 0.950 . S
C812 C811 1.398 . S
C812 C813 1.391 . S
C813 H801 0.950 . S
C813 C809 1.393 . S
C813 C812 1.391 . S
C814 H804 0.950 . S
C814 C815 1.386 . S
C814 C816 1.391 . S
C815 C814 1.386 . S
C815 C819 1.393 . S
C816 H805 0.950 . S
C816 C814 1.391 . S
C816 C817 1.400 . S
C817 C811 1.491 . S
C817 C816 1.400 . S
C817 C818 1.398 . S
C818 H806 0.950 . S
C818 C817 1.398 . S
C818 C819 1.391 . S
C819 H807 0.950 . S
C819 C815 1.393 . S
C819 C818 1.391 . S
H820 C828 0.950 . S
H821 C833 0.950 1_554 S
H822 C830 0.950 . S
H823 C832 0.950 1_554 S
H824 C834 0.950 . S
H825 C836 0.950 . S
H826 C838 0.950 . S
H827 C839 0.950 . S
C828 H820 0.950 . S
C828 C829 1.386 . S
C828 C830 1.391 . S
C829 C828 1.386 . S
C829 C833 1.393 . S
C830 H822 0.950 . S
C830 C828 1.391 . S
C830 C831 1.400 . S
C831 C830 1.400 . S
C831 C832 1.398 . S
C831 C837 1.491 . S
C832 H823 0.950 1_556 S
C832 C831 1.398 . S
C832 C833 1.391 . S
C833 H821 0.950 1_556 S
C833 C829 1.393 . S
C833 C832 1.391 . S
C834 H824 0.950 . S
C834 C835 1.386 . S
C834 C836 1.391 . S
C835 C834 1.386 . S
C835 C839 1.393 . S
C836 H825 0.950 . S
C836 C834 1.391 . S
C836 C837 1.400 . S
C837 C831 1.491 . S
C837 C836 1.400 . S
C837 C838 1.398 . S
C838 H826 0.950 . S
C838 C837 1.398 . S
C838 C839 1.391 . S
C839 H827 0.950 . S
C839 C835 1.393 . S
C839 C838 1.391 . S
H840 C848 0.950 . S
H841 C853 0.950 . S
H842 C850 0.950 1_455 S
H843 C852 0.950 . S
H844 C854 0.950 . S
H845 C856 0.950 . S
H846 C858 0.961 . S
H847 C859 0.950 . S
C848 H840 0.950 . S
C848 C849 1.386 . S
C848 C850 1.391 . S
C849 C848 1.386 . S
C849 C853 1.393 . S
C850 H842 0.950 1_655 S
C850 C848 1.391 . S
C850 C851 1.400 . S
C851 C850 1.400 . S
C851 C852 1.398 . S
C851 C857 1.491 . S
C852 H843 0.950 . S
C852 C851 1.398 . S
C852 C853 1.391 . S
C853 H841 0.950 . S
C853 C849 1.393 . S
C853 C852 1.391 . S
C854 H844 0.950 . S
C854 C855 1.386 . S
C854 C856 1.391 . S
C855 C854 1.386 . S
C855 C859 1.393 1_655 S
C856 H845 0.950 . S
C856 C854 1.391 . S
C856 C857 1.400 . S
C857 C851 1.491 . S
C857 C856 1.400 . S
C857 C858 1.387 1_655 S
C858 H846 0.961 . S
C858 C857 1.387 1_455 S
C858 C859 1.393 . S
C859 H847 0.950 . S
C859 C855 1.393 1_455 S
C859 C858 1.393 . S
H860 C868 0.950 . S
H861 C873 0.950 . S
H862 C870 0.950 . S
H863 C872 0.950 . S
H864 C874 0.950 . S
H865 C876 0.950 . S
H866 C878 0.950 . S
H867 C879 0.950 . S
C868 H860 0.950 . S
C868 C869 1.386 . S
C868 C870 1.391 . S
C869 C868 1.386 . S
C869 C873 1.393 . S
C870 H862 0.950 . S
C870 C868 1.391 . S
C870 C871 1.400 . S
C871 C870 1.400 . S
C871 C872 1.398 . S
C871 C877 1.491 . S
C872 H863 0.950 . S
C872 C871 1.398 . S
C872 C873 1.391 . S
C873 H861 0.950 . S
C873 C869 1.393 . S
C873 C872 1.391 . S
C874 H864 0.950 . S
C874 C875 1.386 . S
C874 C876 1.391 . S
C875 C874 1.386 . S
C875 C879 1.393 1_565 S
C876 H865 0.950 . S
C876 C874 1.391 . S
C876 C877 1.400 . S
C877 C871 1.491 . S
C877 C876 1.400 . S
C877 C878 1.398 1_565 S
C878 H866 0.950 . S
C878 C877 1.398 1_545 S
C878 C879 1.391 . S
C879 H867 0.950 . S
C879 C875 1.393 1_545 S
C879 C878 1.391 . S
H880 C888 0.950 . S
H881 C893 0.950 . S
H882 C890 0.950 . S
H883 C892 0.950 . S
H884 C894 0.950 . S
H885 C896 0.950 . S
H886 C898 0.950 . S
H887 C899 0.950 . S
C888 H880 0.950 . S
C888 C889 1.386 . S
C888 C890 1.391 . S
C889 C888 1.386 . S
C889 C893 1.393 . S
C890 H882 0.950 . S
C890 C888 1.391 . S
C890 C891 1.400 . S
C891 C890 1.400 . S
C891 C892 1.398 . S
C891 C897 1.491 . S
C892 H883 0.950 . S
C892 C891 1.398 . S
C892 C893 1.391 . S
C893 H881 0.950 . S
C893 C889 1.393 . S
C893 C892 1.391 . S
C894 H884 0.950 . S
C894 C895 1.386 . S
C894 C896 1.391 . S
C895 C894 1.386 . S
C895 C899 1.393 . S
C896 H885 0.950 . S
C896 C894 1.391 . S
C896 C897 1.400 . S
C897 C891 1.491 . S
C897 C896 1.400 . S
C897 C898 1.398 . S
C898 H886 0.950 . S
C898 C897 1.398 . S
C898 C899 1.391 . S
C899 H887 0.950 . S
C899 C895 1.393 . S
C899 C898 1.391 . S
H900 C908 0.950 . S
H901 C913 0.950 . S
H902 C910 0.950 . S
H903 C912 0.950 . S
H904 C914 0.950 . S
H905 C916 0.950 . S
H906 C918 0.950 . S
H907 C919 0.950 . S
C908 H900 0.950 . S
C908 C909 1.386 . S
C908 C910 1.391 . S
C909 C908 1.386 . S
C909 C913 1.393 . S
C910 H902 0.950 . S
C910 C908 1.391 . S
C910 C911 1.400 . S
C911 C910 1.400 . S
C911 C912 1.398 . S
C911 C917 1.491 . S
C912 H903 0.950 . S
C912 C911 1.398 . S
C912 C913 1.391 . S
C913 H901 0.950 . S
C913 C909 1.393 . S
C913 C912 1.391 . S
C914 H904 0.950 . S
C914 C915 1.386 . S
C914 C916 1.391 . S
C915 C914 1.386 . S
C915 C919 1.393 . S
C916 H905 0.950 . S
C916 C914 1.391 . S
C916 C917 1.400 . S
C917 C911 1.491 . S
C917 C916 1.400 . S
C917 C918 1.398 . S
C918 H906 0.950 . S
C918 C917 1.398 . S
C918 C919 1.391 . S
C919 H907 0.950 . S
C919 C915 1.393 . S
C919 C918 1.391 . S
C449 N80 1.942 . S
C455 C167 2.001 . S
C475 C244 2.016 . S
C469 N93 1.923 . S
C495 C335 2.006 . S
C489 N54 1.939 . S
C515 C419 1.997 . S
C509 N67 1.917 . S
C535 C178 2.000 . S
C529 N28 1.934 . S
C549 N41 1.929 . S
C555 C255 2.015 . S
C569 N2 1.925 . S
C575 C346 1.997 . S
C589 N15 1.941 . S
C595 C430 1.988 1_655 S
C615 C162 0.576 1_455 S
C609 N70 0.526 . S
C635 C257 0.602 . S
C629 N83 0.502 . S
C655 C330 0.593 . S
C649 N96 0.517 . S
C669 N57 0.524 . S
C675 C414 0.537 . S
C689 N18 0.537 . S
C695 C173 0.546 . S
C715 C246 0.556 . S
C709 N31 0.515 . S
C735 C341 0.608 . S
C729 N44 0.508 . S
C749 N5 0.489 . S
C755 C425 0.604 . S
C769 N66 2.008 . S
C775 C171 2.085 . S
C789 N79 2.015 . S
C795 C262 2.095 . S
C815 C339 2.104 . S
C809 N92 2.034 . S
C835 C423 2.104 . S
C829 N53 2.029 . S
C849 N14 2.017 . S
C855 C160 2.087 . S
C875 C251 2.094 1_565 S
C869 N27 2.025 . S
C895 C328 2.103 . S
C889 N40 2.037 . S
C909 N1 2.029 . S
C915 C412 2.102 . S
