# Generated by pormake.
# Topology pto, (3,4)-cn, num edge types: 1
# Building blocks:
#     Node 0, Type 0, BuildingBlock: BETDAH_clean_linker_0, # of connection points: 3
#     Node 1, Type 0, BuildingBlock: BETDAH_clean_linker_0, # of connection points: 3
#     Node 2, Type 0, BuildingBlock: BETDAH_clean_linker_0, # of connection points: 3
#     Node 3, Type 0, BuildingBlock: BETDAH_clean_linker_0, # of connection points: 3
#     Node 4, Type 0, BuildingBlock: BETDAH_clean_linker_0, # of connection points: 3
#     Node 5, Type 0, BuildingBlock: BETDAH_clean_linker_0, # of connection points: 3
#     Node 6, Type 0, BuildingBlock: BETDAH_clean_linker_0, # of connection points: 3
#     Node 7, Type 0, BuildingBlock: BETDAH_clean_linker_0, # of connection points: 3
#     Node 8, Type 1, BuildingBlock: NAWXER_clean_sbu_0, # of connection points: 4
#     Node 9, Type 1, BuildingBlock: NAWXER_clean_sbu_0, # of connection points: 4
#     Node 10, Type 1, BuildingBlock: NAWXER_clean_sbu_0, # of connection points: 4
#     Node 11, Type 1, BuildingBlock: NAWXER_clean_sbu_0, # of connection points: 4
#     Node 12, Type 1, BuildingBlock: NAWXER_clean_sbu_0, # of connection points: 4
#     Node 13, Type 1, BuildingBlock: NAWXER_clean_sbu_0, # of connection points: 4
#     Edge 14, Type (0, 1), BuildingBlock: CIFDUS_clean_linker_0, # of connection points: 2
#     Edge 15, Type (0, 1), BuildingBlock: CIFDUS_clean_linker_0, # of connection points: 2
#     Edge 16, Type (0, 1), BuildingBlock: CIFDUS_clean_linker_0, # of connection points: 2
#     Edge 17, Type (0, 1), BuildingBlock: CIFDUS_clean_linker_0, # of connection points: 2
#     Edge 18, Type (0, 1), BuildingBlock: CIFDUS_clean_linker_0, # of connection points: 2
#     Edge 19, Type (0, 1), BuildingBlock: CIFDUS_clean_linker_0, # of connection points: 2
#     Edge 20, Type (0, 1), BuildingBlock: CIFDUS_clean_linker_0, # of connection points: 2
#     Edge 21, Type (0, 1), BuildingBlock: CIFDUS_clean_linker_0, # of connection points: 2
#     Edge 22, Type (0, 1), BuildingBlock: CIFDUS_clean_linker_0, # of connection points: 2
#     Edge 23, Type (0, 1), BuildingBlock: CIFDUS_clean_linker_0, # of connection points: 2
#     Edge 24, Type (0, 1), BuildingBlock: CIFDUS_clean_linker_0, # of connection points: 2
#     Edge 25, Type (0, 1), BuildingBlock: CIFDUS_clean_linker_0, # of connection points: 2
#     Edge 26, Type (0, 1), BuildingBlock: CIFDUS_clean_linker_0, # of connection points: 2
#     Edge 27, Type (0, 1), BuildingBlock: CIFDUS_clean_linker_0, # of connection points: 2
#     Edge 28, Type (0, 1), BuildingBlock: CIFDUS_clean_linker_0, # of connection points: 2
#     Edge 29, Type (0, 1), BuildingBlock: CIFDUS_clean_linker_0, # of connection points: 2
#     Edge 30, Type (0, 1), BuildingBlock: CIFDUS_clean_linker_0, # of connection points: 2
#     Edge 31, Type (0, 1), BuildingBlock: CIFDUS_clean_linker_0, # of connection points: 2
#     Edge 32, Type (0, 1), BuildingBlock: CIFDUS_clean_linker_0, # of connection points: 2
#     Edge 33, Type (0, 1), BuildingBlock: CIFDUS_clean_linker_0, # of connection points: 2
#     Edge 34, Type (0, 1), BuildingBlock: CIFDUS_clean_linker_0, # of connection points: 2
#     Edge 35, Type (0, 1), BuildingBlock: CIFDUS_clean_linker_0, # of connection points: 2
#     Edge 36, Type (0, 1), BuildingBlock: CIFDUS_clean_linker_0, # of connection points: 2
#     Edge 37, Type (0, 1), BuildingBlock: CIFDUS_clean_linker_0, # of connection points: 2
# Relax obj value: 0.011
# Max RMSD: 0.136
# Mean RMSD: 0.056
data_MOF--net-pto--node1-NAWXER_clean_sbu_0--node2-BETDAH_clean_linker_0--edge1-CIFDUS_clean_linker_0
_symmetry_space_group_name_H-M    P1
_symmetry_Int_Tables_number       1
_symmetry_cell_setting            triclinic
loop_
_symmetry_equiv_pos_as_xyz
'x, y, z'
_cell_length_a     37.274731
_cell_length_b     34.234
_cell_length_c     33.159203
_cell_angle_alpha  109.41433
_cell_angle_beta   95.825102
_cell_angle_gamma 99.276882
loop_
_atom_site_label
_atom_site_type_symbol
_atom_site_fract_x
_atom_site_fract_y
_atom_site_fract_z
_atom_type_partial_charge
H0 H 0.3769 0.20453 0.41845 0.0
H1 H 0.35537 0.32005 0.40468 0.0
H2 H 0.3082 0.2759 0.49788 0.0
C3 C 0.36326 0.23111 0.4272 0.0
C4 C 0.34104 0.23573 0.45971 0.0
C5 C 0.36868 0.26124 0.4068 0.0
C6 C 0.35119 0.29603 0.41929 0.0
C7 C 0.32908 0.30099 0.45163 0.0
C8 C 0.32409 0.27088 0.47165 0.0
N9 N 0.31742 0.33972 0.46919 0.0
C10 C 0.28304 0.34626 0.45563 0.0
H11 H 0.29246 0.68558 0.87757 0.0
H12 H 0.36415 0.75096 0.81559 0.0
H13 H 0.24779 0.71418 0.76835 0.0
C14 C 0.2963 0.69997 0.8533 0.0
C15 C 0.26548 0.6984 0.82409 0.0
C16 C 0.33218 0.71854 0.85052 0.0
C17 C 0.33676 0.73752 0.81905 0.0
C18 C 0.30622 0.73593 0.78951 0.0
C19 C 0.27099 0.71593 0.79186 0.0
N20 N 0.31082 0.74828 0.75322 0.0
C21 C 0.32589 0.78914 0.7557 0.0
H22 H 0.84882 0.67297 0.42173 0.0
H23 H 0.76272 0.68047 0.3294 0.0
H24 H 0.82363 0.58211 0.29098 0.0
C25 C 0.83319 0.66088 0.38919 0.0
C26 C 0.8399 0.62433 0.35805 0.0
C27 C 0.80555 0.68149 0.37905 0.0
C28 C 0.7839 0.66476 0.33744 0.0
C29 C 0.79031 0.62854 0.30594 0.0
C30 C 0.81847 0.60917 0.31627 0.0
N31 N 0.76941 0.61056 0.26333 0.0
C32 C 0.73986 0.62479 0.24778 0.0
H33 H 0.82321 0.26995 0.84373 0.0
H34 H 0.72659 0.22002 0.88648 0.0
H35 H 0.77116 0.35408 0.93532 0.0
C36 C 0.80132 0.27518 0.86282 0.0
C37 C 0.80054 0.31647 0.8894 0.0
C38 C 0.77484 0.24024 0.86158 0.0
C39 C 0.74676 0.24683 0.88695 0.0
C40 C 0.74575 0.28812 0.91391 0.0
C41 C 0.7724 0.32245 0.91461 0.0
N42 N 0.71914 0.29708 0.94164 0.0
C43 C 0.69144 0.26814 0.94788 0.0
H44 H 0.82335 0.76154 0.97023 0.0
H45 H 0.89976 0.82388 0.91044 0.0
H46 H 0.81619 0.88513 0.96744 0.0
C47 C 0.83312 0.78834 0.96087 0.0
C48 C 0.81535 0.82295 0.97091 0.0
C49 C 0.86374 0.78837 0.93913 0.0
C50 C 0.87598 0.82305 0.92667 0.0
C51 C 0.85902 0.85796 0.93739 0.0
C52 C 0.82919 0.858 0.95977 0.0
N53 N 0.87307 0.89442 0.92816 0.0
C54 C 0.87266 0.89354 0.88595 0.0
H55 H 0.80028 0.28925 0.34608 0.0
H56 H 0.85319 0.26973 0.45809 0.0
H57 H 0.73662 0.26036 0.43679 0.0
C58 C 0.79942 0.28263 0.37566 0.0
C59 C 0.76508 0.27621 0.38898 0.0
C60 C 0.83219 0.28211 0.40075 0.0
C61 C 0.82903 0.27022 0.43744 0.0
C62 C 0.79447 0.26135 0.44961 0.0
C63 C 0.76299 0.266 0.42635 0.0
N64 N 0.79078 0.24991 0.48657 0.0
C65 C 0.80983 0.22209 0.49743 0.0
H66 H 0.33038 0.2623 0.93028 0.0
H67 H 0.30674 0.37018 0.02652 0.0
H68 H 0.2376 0.31478 0.90115 0.0
C69 C 0.3135 0.28575 0.93988 0.0
C70 C 0.28324 0.28491 0.91026 0.0
C71 C 0.32236 0.3164 0.98174 0.0
C72 C 0.30049 0.34653 0.99409 0.0
C73 C 0.2699 0.34611 0.96563 0.0
C74 C 0.26104 0.3151 0.9235 0.0
N75 N 0.24916 0.37762 0.98148 0.0
C76 C 0.21833 0.38397 0.95923 0.0
H77 H 0.23186 0.74949 0.36662 0.0
H78 H 0.31929 0.79888 0.30986 0.0
H79 H 0.26455 0.66792 0.25354 0.0
C80 C 0.24888 0.74515 0.34151 0.0
C81 C 0.24452 0.70482 0.30975 0.0
C82 C 0.2757 0.77946 0.34214 0.0
C83 C 0.29834 0.77294 0.30978 0.0
C84 C 0.29401 0.73257 0.27763 0.0
C85 C 0.26707 0.69905 0.27784 0.0
N86 N 0.31663 0.72333 0.24514 0.0
C87 C 0.344 0.75156 0.23754 0.0
C88 C 0.01184 0.41328 0.36028 0.0
C89 C 0.10798 0.52929 0.36238 0.0
O90 O 0.02455 0.44005 0.3986 0.0
Zn91 Zn 0.06536 0.49763 0.42887 0.0
O92 O 0.02504 0.41809 0.32795 0.0
Zn93 Zn 0.06054 0.46974 0.36016 0.0
O94 O 0.1005 0.44962 0.39637 0.0
O95 O 0.10009 0.48237 0.46582 0.0
O96 O 0.09036 0.49826 0.32932 0.0
O97 O 0.10101 0.53184 0.40012 0.0
O98 O 0.03507 0.53859 0.45374 0.0
O99 O 0.02352 0.51138 0.38223 0.0
C100 C 0.11301 0.45684 0.43625 0.0
C101 C 0.01648 0.53551 0.41803 0.0
C102 C 0.96502 0.49101 0.87381 0.0
C103 C 0.0756 0.59328 0.87665 0.0
O104 O 0.98063 0.51555 0.91214 0.0
Zn105 Zn 0.02679 0.56733 0.9423 0.0
O106 O 0.97809 0.49593 0.84142 0.0
Zn107 Zn 0.01893 0.54341 0.87392 0.0
O108 O 0.05375 0.51357 0.90585 0.0
O109 O 0.05598 0.5444 0.97626 0.0
O110 O 0.05371 0.56682 0.84335 0.0
O111 O 0.06818 0.59649 0.91443 0.0
O112 O 1.00416 0.61262 0.97268 0.0
O113 O 0.99091 0.59458 0.90177 0.0
C114 C 0.06549 0.51708 0.94492 0.0
C115 C 0.98755 0.61778 0.94005 0.0
C116 C 0.3288 0.98451 0.67774 0.0
C117 C 0.3443 0.08156 0.59586 0.0
O118 O 0.29884 0.99369 0.66454 0.0
Zn119 Zn 0.28029 0.0303 0.62892 0.0
O120 O 0.35908 1.0006 0.66932 0.0
Zn121 Zn 0.33919 0.03395 0.63754 0.0
O122 O 0.3204 0.08174 0.68561 0.0
O123 O 0.25981 0.07202 0.67153 0.0
O124 O 0.3703 0.06882 0.61265 0.0
O125 O 0.31109 0.06933 0.60036 0.0
O126 O 0.24951 0.98699 0.57702 0.0
O127 O 0.30873 0.98621 0.5796 0.0
C128 C 0.29041 0.09351 0.6952 0.0
C129 C 0.27546 0.97143 0.55972 0.0
C130 C 0.59697 0.71569 0.1272 0.0
C131 C 0.51239 0.73825 0.01661 0.0
O132 O 0.57415 0.68742 0.09601 0.0
Zn133 Zn 0.55455 0.72541 0.07079 0.0
O134 O 0.59895 0.75474 0.13197 0.0
Zn135 Zn 0.57431 0.79221 0.10119 0.0
O136 O 0.55044 0.82498 0.14702 0.0
O137 O 0.52381 0.75709 0.11811 0.0
O138 O 0.53214 0.77282 0.04448 0.0
O139 O 0.5169 0.70303 0.0192 0.0
O140 O 0.60196 0.75067 0.04866 0.0
O141 O 0.61725 0.81956 0.08429 0.0
C142 C 0.52488 0.79444 0.14472 0.0
C143 C 0.62348 0.78651 0.05647 0.0
C144 C 0.8621 0.9652 0.68271 0.0
C145 C 0.83532 0.03474 0.57902 0.0
O146 O 0.82827 0.9544 0.66408 0.0
Zn147 Zn 0.79365 0.96704 0.61567 0.0
O148 O 0.88495 0.99023 0.67187 0.0
Zn149 Zn 0.85033 0.99825 0.62916 0.0
O150 O 0.8155 0.03046 0.67017 0.0
O151 O 0.75828 0.99355 0.64959 0.0
O152 O 0.86641 0.0381 0.60097 0.0
O153 O 0.80711 0.00922 0.58151 0.0
O154 O 0.7779 0.91168 0.57005 0.0
O155 O 0.8375 0.93716 0.57861 0.0
C156 C 0.78162 0.02598 0.67513 0.0
C157 C 0.80922 0.90731 0.55931 0.0
C158 C 0.59453 0.27347 0.22205 0.0
C159 C 0.48302 0.27227 0.12936 0.0
O160 O 0.57552 0.23644 0.19983 0.0
Zn161 Zn 0.52554 0.20716 0.15561 0.0
O162 O 0.58323 0.30607 0.22018 0.0
Zn163 Zn 0.53863 0.27572 0.17771 0.0
O164 O 0.50501 0.25035 0.21468 0.0
O165 O 0.49462 0.18067 0.18813 0.0
O166 O 0.50607 0.30517 0.1546 0.0
O167 O 0.48791 0.23555 0.1276 0.0
O168 O 0.54502 0.1746 0.10497 0.0
O169 O 0.56019 0.24391 0.12119 0.0
C170 C 0.48995 0.2146 0.21614 0.0
C171 C 0.56114 0.20627 0.09688 0.0
H172 H 0.24672 0.3941 0.51184 0.0
H173 H 0.24478 0.32845 0.37582 0.0
H174 H 0.19072 0.35574 0.35765 0.0
H175 H 0.14591 0.40084 0.38055 0.0
H176 H 0.14841 0.46738 0.51691 0.0
H177 H 0.20014 0.43711 0.53491 0.0
C178 C 0.23407 0.38548 0.47829 0.0
C179 C 0.24928 0.35923 0.4451 0.0
C180 C 0.20328 0.40164 0.46822 0.0
C181 C 0.23317 0.34842 0.40176 0.0
C182 C 0.20242 0.36415 0.39144 0.0
C183 C 0.15758 0.4086 0.41425 0.0
C184 C 0.14323 0.4366 0.4473 0.0
C185 C 0.1875 0.39119 0.42439 0.0
C186 C 0.15881 0.44607 0.49076 0.0
C187 C 0.18848 0.42878 0.50112 0.0
H188 H 0.23333 0.70548 0.89577 0.0
H189 H 0.21294 0.64287 0.75685 0.0
H190 H 0.15188 0.60637 0.76019 0.0
H191 H 0.10483 0.59021 0.80304 0.0
H192 H 0.12605 0.65314 0.94215 0.0
H193 H 0.18585 0.69118 0.93814 0.0
C194 C 0.21558 0.68373 0.86623 0.0
C195 C 0.22785 0.67694 0.82616 0.0
C196 C 0.18047 0.66277 0.86838 0.0
C197 C 0.20417 0.64907 0.78813 0.0
C198 C 0.16925 0.62799 0.79003 0.0
C199 C 0.12239 0.6125 0.83243 0.0
C200 C 0.11075 0.61855 0.87283 0.0
C201 C 0.15713 0.63439 0.83002 0.0
C202 C 0.13408 0.64761 0.91055 0.0
C203 C 0.16846 0.66943 0.90837 0.0
H204 H 0.90632 0.65728 0.41489 0.0
H205 H 0.83863 0.53899 0.326 0.0
H206 H 0.88698 0.50208 0.33669 0.0
H207 H 0.94943 0.50297 0.36878 0.0
H208 H 0.01513 0.61827 0.4637 0.0
H209 H 0.96624 0.65638 0.45413 0.0
C210 C 0.90167 0.62333 0.39834 0.0
C211 C 0.86882 0.60156 0.36851 0.0
C212 C 0.92931 0.60157 0.40584 0.0
C213 C 0.86391 0.55737 0.34767 0.0
C214 C 0.89149 0.53589 0.35414 0.0
C215 C 0.95287 0.53641 0.38763 0.0
C216 C 0.98586 0.55796 0.41658 0.0
C217 C 0.92447 0.55771 0.38257 0.0
C218 C 0.98988 0.60106 0.44129 0.0
C219 C 0.96201 0.62283 0.43561 0.0
H220 H 0.83221 0.33293 0.82394 0.0
H221 H 0.83615 0.38193 0.96263 0.0
H222 H 0.886 0.44048 0.96945 0.0
H223 H 0.92979 0.47668 0.93686 0.0
H224 H 0.92744 0.42812 0.79848 0.0
H225 H 0.87589 0.37043 0.79084 0.0
C226 C 0.84406 0.35635 0.85567 0.0
C227 C 0.83021 0.35293 0.8927 0.0
C228 C 0.87312 0.38998 0.85948 0.0
C229 C 0.8457 0.38396 0.93348 0.0
C230 C 0.87447 0.41737 0.93748 0.0
C231 C 0.91803 0.45361 0.9049 0.0
C232 C 0.93268 0.45679 0.8683 0.0
C233 C 0.88853 0.42056 0.90079 0.0
C234 C 0.91681 0.42655 0.82723 0.0
C235 C 0.88734 0.39348 0.82286 0.0
H236 H 0.39402 0.20303 0.49369 0.0
H237 H 0.27702 0.19934 0.47698 0.0
H238 H 0.2682 0.15155 0.51733 0.0
H239 H 0.29332 0.11213 0.55813 0.0
H240 H 0.41014 0.11491 0.57653 0.0
H241 H 0.41944 0.16172 0.53455 0.0
C242 C 0.36658 0.19135 0.49853 0.0
C243 C 0.33618 0.2048 0.48239 0.0
C244 C 0.36171 0.16397 0.52218 0.0
C245 C 0.30086 0.18982 0.48939 0.0
C246 C 0.2958 0.16242 0.51237 0.0
C247 C 0.32095 0.12282 0.55309 0.0
C248 C 0.35102 0.10998 0.57065 0.0
C249 C 0.326 0.14959 0.52916 0.0
C250 C 0.3865 0.12431 0.56353 0.0
C251 C 0.39179 0.15104 0.53947 0.0
H252 H 0.39358 0.77983 0.89476 0.0
H253 H 0.34412 0.64914 0.86868 0.0
H254 H 0.39599 0.64293 0.91564 0.0
H255 H 0.45468 0.67502 0.96609 0.0
H256 H 0.50367 0.80617 0.99368 0.0
H257 H 0.45327 0.81151 0.94398 0.0
C258 C 0.39432 0.74993 0.89913 0.0
C259 C 0.36471 0.71518 0.8785 0.0
C260 C 0.4243 0.74656 0.92648 0.0
C261 C 0.36611 0.67669 0.88475 0.0
C262 C 0.39593 0.67299 0.91143 0.0
C263 C 0.45456 0.70466 0.96091 0.0
C264 C 0.48307 0.74009 0.98367 0.0
C265 C 0.42507 0.70778 0.93277 0.0
C266 C 0.48214 0.77834 0.97674 0.0
C267 C 0.45324 0.78149 0.94831 0.0
H268 H 0.85765 0.75011 0.42995 0.0
H269 H 0.7402 0.70167 0.40083 0.0
H270 H 0.73062 0.76725 0.45346 0.0
H271 H 0.75585 0.83851 0.50826 0.0
H272 H 0.87355 0.88665 0.53582 0.0
H273 H 0.88267 0.82122 0.48357 0.0
C274 C 0.82998 0.75378 0.43542 0.0
C275 C 0.79972 0.72098 0.41168 0.0
C276 C 0.82468 0.79166 0.46543 0.0
C277 C 0.76396 0.72654 0.41855 0.0
C278 C 0.75848 0.76399 0.44872 0.0
C279 C 0.78347 0.83472 0.50276 0.0
C280 C 0.81391 0.86762 0.52611 0.0
C281 C 0.78864 0.79684 0.47236 0.0
C282 C 0.84952 0.86206 0.51839 0.0
C283 C 0.85485 0.82452 0.48851 0.0
H284 H 0.68796 0.20914 0.98648 0.0
H285 H 0.62525 0.28746 0.94353 0.0
H286 H 0.57597 0.27035 0.98198 0.0
H287 H 0.55512 0.2417 0.03621 0.0
H288 H 0.61629 0.16242 0.07936 0.0
H289 H 0.66146 0.17046 0.03208 0.0
C290 C 0.66295 0.22128 0.9846 0.0
C291 C 0.65994 0.24939 0.96227 0.0
C292 C 0.6347 0.21145 0.00718 0.0
C293 C 0.62782 0.2655 0.96033 0.0
C294 C 0.59979 0.25596 0.98253 0.0
C295 C 0.57779 0.22519 0.03421 0.0
C296 C 0.58252 0.20153 0.06104 0.0
C297 C 0.60352 0.2302 0.00725 0.0
C298 C 0.61196 0.18038 0.05852 0.0
C299 C 0.63796 0.18539 0.03185 0.0
H300 H 0.28431 0.8467 0.76144 0.0
H301 H 0.38942 0.819 0.73272 0.0
H302 H 0.40177 0.88011 0.70922 0.0
H303 H 0.37956 0.93756 0.69035 0.0
H304 H 0.27282 0.96226 0.71717 0.0
H305 H 0.26438 0.90684 0.74806 0.0
C306 C 0.31026 0.85476 0.75095 0.0
C307 C 0.33614 0.82898 0.74916 0.0
C308 C 0.31666 0.88923 0.73663 0.0
C309 C 0.36936 0.83895 0.73482 0.0
C310 C 0.37626 0.87367 0.72111 0.0
C311 C 0.35475 0.93122 0.70357 0.0
C312 C 0.32676 0.95395 0.701 0.0
C313 C 0.3497 0.89853 0.72089 0.0
C314 C 0.2947 0.9451 0.7182 0.0
C315 C 0.28978 0.91334 0.73598 0.0
H316 H 0.72451 0.70185 0.26013 0.0
H317 H 0.68709 0.56918 0.18464 0.0
H318 H 0.63769 0.5848 0.14153 0.0
H319 H 0.60726 0.63684 0.12275 0.0
H320 H 0.64555 0.76985 0.19833 0.0
H321 H 0.69197 0.75356 0.24384 0.0
C322 C 0.7052 0.67649 0.23452 0.0
C323 C 0.7091 0.63452 0.22538 0.0
C324 C 0.67707 0.6858 0.2097 0.0
C325 C 0.68429 0.60175 0.19213 0.0
C326 C 0.65615 0.61068 0.16745 0.0
C327 C 0.6255 0.66222 0.14942 0.0
C328 C 0.62288 0.70452 0.15676 0.0
C329 C 0.65254 0.65268 0.17554 0.0
C330 C 0.64689 0.73697 0.19159 0.0
C331 C 0.67359 0.72774 0.21775 0.0
H332 H 0.72293 0.17779 0.79912 0.0
H333 H 0.83521 0.20641 0.86456 0.0
H334 H 0.84585 0.14039 0.81466 0.0
H335 H 0.82554 0.0786 0.74873 0.0
H336 H 0.71401 0.04846 0.68089 0.0
H337 H 0.70046 0.11057 0.73571 0.0
C338 C 0.74942 0.16901 0.80278 0.0
C339 C 0.77844 0.19708 0.83505 0.0
C340 C 0.75554 0.13103 0.77339 0.0
C341 C 0.81269 0.18552 0.83956 0.0
C342 C 0.81879 0.14783 0.81107 0.0
C343 C 0.79812 0.08537 0.74604 0.0
C344 C 0.77097 0.05941 0.7105 0.0
C345 C 0.79079 0.12103 0.77719 0.0
C346 C 0.7354 0.06809 0.70793 0.0
C347 C 0.72775 0.10371 0.73915 0.0
H348 H 0.37697 0.19031 0.34122 0.0
H349 H 0.41903 0.32524 0.40049 0.0
H350 H 0.46013 0.32201 0.34759 0.0
H351 H 0.48362 0.28193 0.2843 0.0
H352 H 0.44369 0.14687 0.22421 0.0
H353 H 0.40289 0.14903 0.27824 0.0
C354 C 0.39535 0.21894 0.34277 0.0
C355 C 0.39435 0.2581 0.37459 0.0
C356 C 0.41943 0.21686 0.31224 0.0
C357 C 0.41836 0.29484 0.37586 0.0
C358 C 0.44219 0.29301 0.34579 0.0
C359 C 0.46611 0.25278 0.28287 0.0
C360 C 0.46666 0.21429 0.24996 0.0
C361 C 0.44277 0.25433 0.31372 0.0
C362 C 0.4439 0.17694 0.24912 0.0
C363 C 0.42047 0.17822 0.27996 0.0
H364 H 0.88994 0.75558 0.99747 0.0
H365 H 0.88435 0.74376 0.86335 0.0
H366 H 0.92151 0.68934 0.85135 0.0
H367 H 0.957 0.64638 0.87959 0.0
H368 H 0.96463 0.66084 0.01476 0.0
H369 H 0.92541 0.71279 0.02568 0.0
C370 C 0.89651 0.74066 0.96551 0.0
C371 C 0.88424 0.75343 0.93127 0.0
C372 C 0.91852 0.71007 0.95911 0.0
C373 C 0.89353 0.73445 0.89021 0.0
C374 C 0.91478 0.70338 0.88336 0.0
C375 C 0.95003 0.66083 0.91142 0.0
C376 C 0.96385 0.64964 0.94627 0.0
C377 C 0.92771 0.69117 0.91767 0.0
C378 C 0.95461 0.66891 0.98735 0.0
C379 C 0.93205 0.69859 0.99365 0.0
H380 H 0.84944 0.33449 0.35448 0.0
H381 H 0.9003 0.26445 0.42335 0.0
H382 H 0.96062 0.29734 0.41535 0.0
H383 H 0.99935 0.35069 0.39358 0.0
H384 H 0.94697 0.41066 0.31534 0.0
H385 H 0.88631 0.37447 0.32003 0.0
C386 C 0.87301 0.32437 0.36643 0.0
C387 C 0.86924 0.29707 0.39042 0.0
C388 C 0.90764 0.34138 0.35959 0.0
C389 C 0.90151 0.28648 0.40631 0.0
C390 C 0.93634 0.30488 0.40123 0.0
C391 C 0.97457 0.3546 0.37648 0.0
C392 C 0.97731 0.38294 0.35396 0.0
C393 C 0.93976 0.3331 0.37872 0.0
C394 C 0.94531 0.38836 0.3322 0.0
C395 C 0.91069 0.36809 0.33534 0.0
H396 H 0.17869 0.42569 0.01355 0.0
H397 H 0.18977 0.37997 0.87877 0.0
H398 H 0.14121 0.4157 0.8617 0.0
H399 H 0.09854 0.46364 0.88657 0.0
H400 H 0.08992 0.51102 0.02253 0.0
H401 H 0.13452 0.47085 0.0378 0.0
C402 C 0.16996 0.42313 0.98036 0.0
C403 C 0.18718 0.40023 0.94729 0.0
C404 C 0.14278 0.44432 0.97121 0.0
C405 C 0.17637 0.39727 0.9045 0.0
C406 C 0.14884 0.41784 0.8949 0.0
C407 C 0.10618 0.46492 0.91949 0.0
C408 C 0.09096 0.49054 0.95339 0.0
C409 C 0.13226 0.44203 0.92817 0.0
C410 C 0.10128 0.49182 0.99585 0.0
C411 C 0.12679 0.46882 0.00465 0.0
H412 H 0.23201 0.68557 0.38071 0.0
H413 H 0.19712 0.64186 0.24225 0.0
H414 H 0.15271 0.58242 0.24564 0.0
H415 H 0.12251 0.54405 0.28869 0.0
H416 H 0.15717 0.5904 0.42755 0.0
H417 H 0.20252 0.64777 0.42318 0.0
C418 C 0.21441 0.66335 0.35128 0.0
C419 C 0.21766 0.66841 0.31137 0.0
C420 C 0.1888 0.62967 0.35354 0.0
C421 C 0.19529 0.6386 0.27341 0.0
C422 C 0.16979 0.60472 0.27535 0.0
C423 C 0.14012 0.5666 0.31791 0.0
C424 C 0.13628 0.5629 0.35837 0.0
C425 C 0.16615 0.60003 0.31532 0.0
C426 C 0.15929 0.59251 0.39597 0.0
C427 C 0.18533 0.62541 0.39357 0.0
H428 H 0.92023 0.94157 0.85702 0.0
H429 H 0.81621 0.85273 0.82073 0.0
H430 H 0.8051 0.86439 0.75191 0.0
H431 H 0.82256 0.90441 0.70545 0.0
H432 H 0.9262 0.99449 0.74179 0.0
H433 H 0.94026 0.97742 0.80691 0.0
C434 C 0.89552 0.92433 0.83353 0.0
C435 C 0.86901 0.89632 0.84336 0.0
C436 C 0.88922 0.93163 0.79434 0.0
C437 C 0.83693 0.87426 0.81333 0.0
C438 C 0.83056 0.88107 0.7742 0.0
C439 C 0.84843 0.92004 0.72733 0.0
C440 C 0.87311 0.95103 0.71894 0.0
C441 C 0.85613 0.91039 0.76483 0.0
C442 C 0.90667 0.97059 0.74747 0.0
C443 C 0.91466 0.96097 0.78483 0.0
H444 H 0.74351 0.24507 0.30171 0.0
H445 H 0.71188 0.31886 0.42057 0.0
H446 H 0.65777 0.32845 0.37934 0.0
H447 H 0.61825 0.31382 0.30888 0.0
H448 H 0.64954 0.23751 0.19109 0.0
H449 H 0.70555 0.23207 0.2322 0.0
C450 C 0.72498 0.26361 0.31858 0.0
C451 C 0.7317 0.28119 0.3641 0.0
C452 C 0.69408 0.26899 0.29473 0.0
C453 C 0.70705 0.30452 0.38553 0.0
C454 C 0.67629 0.31033 0.36197 0.0
C455 C 0.63786 0.29686 0.29242 0.0
C456 C 0.63036 0.27661 0.24717 0.0
C457 C 0.66943 0.29261 0.3165 0.0
C458 C 0.65521 0.25367 0.22596 0.0
C459 C 0.68702 0.25031 0.24943 0.0
H460 H 0.33296 0.26249 0.8578 0.0
H461 H 0.21715 0.23314 0.86337 0.0
H462 H 0.20808 0.17211 0.79546 0.0
H463 H 0.23476 0.12341 0.73769 0.0
H464 H 0.35184 0.15319 0.73713 0.0
H465 H 0.35867 0.21696 0.80007 0.0
C466 C 0.30565 0.2428 0.84416 0.0
C467 C 0.2759 0.25201 0.86594 0.0
C468 C 0.30096 0.20731 0.80619 0.0
C469 C 0.24054 0.22681 0.84721 0.0
C470 C 0.23544 0.19166 0.8086 0.0
C471 C 0.26167 0.144 0.75128 0.0
C472 C 0.29276 0.13302 0.7328 0.0
C473 C 0.26568 0.18096 0.7883 0.0
C474 C 0.32743 0.16027 0.7508 0.0
C475 C 0.33145 0.19702 0.78682 0.0
H476 H 0.41439 0.79193 0.27523 0.0
H477 H 0.33682 0.74932 0.1562 0.0
H478 H 0.38645 0.76356 0.11696 0.0
H479 H 0.45267 0.77859 0.11472 0.0
H480 H 0.53113 0.82261 0.23297 0.0
H481 H 0.48069 0.81801 0.27465 0.0
C482 C 0.40843 0.7871 0.24101 0.0
C483 C 0.37222 0.76982 0.21841 0.0
C484 C 0.4373 0.79511 0.21855 0.0
C485 C 0.36457 0.763 0.17408 0.0
C486 C 0.39294 0.77082 0.15161 0.0
C487 C 0.45853 0.78819 0.14978 0.0
C488 C 0.49528 0.80084 0.17095 0.0
C489 C 0.42951 0.78547 0.17321 0.0
C490 C 0.50288 0.81313 0.21624 0.0
C491 C 0.47408 0.81017 0.23992 0.0
H492 H 0.77705 0.14103 0.47371 0.0
H493 H 0.87329 0.23312 0.55136 0.0
H494 H 0.89248 0.18103 0.58052 0.0
H495 H 0.87833 0.1111 0.5887 0.0
H496 H 0.77995 0.02082 0.5129 0.0
H497 H 0.76535 0.06991 0.47781 0.0
C498 C 0.80254 0.14928 0.49646 0.0
C499 C 0.82392 0.19042 0.51043 0.0
C500 C 0.81284 0.11951 0.51353 0.0
C501 C 0.85665 0.20133 0.54014 0.0
C502 C 0.86748 0.17163 0.55687 0.0
C503 C 0.85412 0.10191 0.5639 0.0
C504 C 0.83019 0.06238 0.55359 0.0
C505 C 0.84535 0.13084 0.54448 0.0
C506 C 0.79871 0.05112 0.52165 0.0
C507 C 0.79027 0.07921 0.50159 0.0
H508 H 0.33992 0.24871 0.99774 0.0
H509 H 0.37559 0.38393 0.0356 0.0
H510 H 0.42813 0.38293 0.08577 0.0
H511 H 0.46481 0.34288 0.1176 0.0
H512 H 0.42805 0.20728 0.07782 0.0
H513 H 0.37547 0.2093 0.02961 0.0
C514 C 0.35936 0.27793 0.0167 0.0
C515 C 0.35401 0.31624 0.01272 0.0
C516 C 0.38943 0.27709 0.04518 0.0
C517 C 0.379 0.354 0.03824 0.0
C518 C 0.40913 0.35343 0.06679 0.0
C519 C 0.44523 0.31385 0.09848 0.0
C520 C 0.45062 0.27503 0.10135 0.0
C521 C 0.41474 0.31507 0.07041 0.0
C522 C 0.42487 0.23768 0.07629 0.0
C523 C 0.39465 0.2387 0.0486 0.0
H524 H 0.2233 0.81909 0.38068 0.0
H525 H 0.34114 0.83218 0.3871 0.0
H526 H 0.35097 0.89385 0.4536 0.0
H527 H 0.3265 0.94014 0.51283 0.0
H528 H 0.20886 0.9258 0.50911 0.0
H529 H 0.1986 0.86777 0.43896 0.0
C530 C 0.25117 0.83542 0.39659 0.0
C531 C 0.28145 0.82062 0.37891 0.0
C532 C 0.25666 0.87016 0.43564 0.0
C533 C 0.31731 0.84292 0.39951 0.0
C534 C 0.32297 0.87795 0.4379 0.0
C535 C 0.29852 0.92445 0.4968 0.0
C536 C 0.26846 0.93708 0.51657 0.0
C537 C 0.29289 0.89118 0.45672 0.0
C538 C 0.23248 0.9166 0.49485 0.0
C539 C 0.22663 0.88346 0.45471 0.0
H540 H 0.75558 0.75866 0.95164 0.0
H541 H 0.80027 0.88698 0.03814 0.0
H542 H 0.74444 0.88803 0.07096 0.0
H543 H 0.68277 0.85223 0.07547 0.0
H544 H 0.63868 0.72356 0.98898 0.0
H545 H 0.69415 0.72304 0.95597 0.0
C546 C 0.75326 0.78668 0.978 0.0
C547 C 0.78213 0.82263 0.9924 0.0
C548 C 0.72097 0.78715 0.99662 0.0
C549 C 0.77837 0.85896 0.02615 0.0
C550 C 0.74644 0.85957 0.04501 0.0
C551 C 0.68517 0.82421 0.04917 0.0
C552 C 0.65644 0.78805 0.0348 0.0
C553 C 0.71745 0.8239 0.03041 0.0
C554 C 0.66025 0.75191 1.00084 0.0
C555 C 0.69207 0.75148 0.98192 0.0
loop_
_geom_bond_atom_site_label_1
_geom_bond_atom_site_label_2
_geom_bond_distance
_geom_bond_site_symmetry_2
_ccdc_geom_bond_type
H0 C3 0.929 . S
H1 C6 0.929 . S
H2 C8 0.930 . S
C3 H0 0.929 . S
C3 C4 1.398 . S
C3 C5 1.396 . S
C4 C3 1.398 . S
C4 C8 1.407 . S
C5 C3 1.396 . S
C5 C6 1.394 . S
C6 H1 0.929 . S
C6 C5 1.394 . S
C6 C7 1.382 . S
C7 C6 1.382 . S
C7 C8 1.392 . S
C7 N9 1.420 . S
C8 H2 0.930 . S
C8 C4 1.407 . S
C8 C7 1.392 . S
N9 C7 1.420 . S
N9 C10 1.244 . S
C10 N9 1.244 . S
H11 C14 0.929 . S
H12 C17 0.929 . S
H13 C19 0.930 . S
C14 H11 0.929 . S
C14 C15 1.398 . S
C14 C16 1.396 . S
C15 C14 1.398 . S
C15 C19 1.407 . S
C16 C14 1.396 . S
C16 C17 1.394 . S
C17 H12 0.929 . S
C17 C16 1.394 . S
C17 C18 1.382 . S
C18 C17 1.382 . S
C18 C19 1.392 . S
C18 N20 1.420 . S
C19 H13 0.930 . S
C19 C15 1.407 . S
C19 C18 1.392 . S
N20 C18 1.420 . S
N20 C21 1.244 . S
C21 N20 1.244 . S
H22 C25 0.929 . S
H23 C28 0.929 . S
H24 C30 0.930 . S
C25 H22 0.929 . S
C25 C26 1.398 . S
C25 C27 1.396 . S
C26 C25 1.398 . S
C26 C30 1.407 . S
C27 C25 1.396 . S
C27 C28 1.394 . S
C28 H23 0.929 . S
C28 C27 1.394 . S
C28 C29 1.382 . S
C29 C28 1.382 . S
C29 C30 1.392 . S
C29 N31 1.420 . S
C30 H24 0.930 . S
C30 C26 1.407 . S
C30 C29 1.392 . S
N31 C29 1.420 . S
N31 C32 1.244 . S
C32 N31 1.244 . S
H33 C36 0.929 . S
H34 C39 0.929 . S
H35 C41 0.930 1_554 S
C36 H33 0.929 . S
C36 C37 1.398 . S
C36 C38 1.396 . S
C37 C36 1.398 . S
C37 C41 1.407 . S
C38 C36 1.396 . S
C38 C39 1.394 . S
C39 H34 0.929 . S
C39 C38 1.394 . S
C39 C40 1.382 . S
C40 C39 1.382 . S
C40 C41 1.392 . S
C40 N42 1.420 1_556 S
C41 H35 0.930 1_556 S
C41 C37 1.407 . S
C41 C40 1.392 . S
N42 C40 1.420 1_554 S
N42 C43 1.244 . S
C43 N42 1.244 . S
H44 C47 0.929 . S
H45 C50 0.929 . S
H46 C52 0.930 . S
C47 H44 0.929 . S
C47 C48 1.398 . S
C47 C49 1.396 . S
C48 C47 1.398 . S
C48 C52 1.407 . S
C49 C47 1.396 . S
C49 C50 1.394 . S
C50 H45 0.929 . S
C50 C49 1.394 . S
C50 C51 1.382 . S
C51 C50 1.382 . S
C51 C52 1.392 . S
C51 N53 1.420 . S
C52 H46 0.930 . S
C52 C48 1.407 . S
C52 C51 1.392 . S
N53 C51 1.420 . S
N53 C54 1.244 . S
C54 N53 1.244 . S
H55 C58 0.929 . S
H56 C61 0.929 . S
H57 C63 0.930 . S
C58 H55 0.929 . S
C58 C59 1.398 . S
C58 C60 1.396 . S
C59 C58 1.398 . S
C59 C63 1.407 . S
C60 C58 1.396 . S
C60 C61 1.394 . S
C61 H56 0.929 . S
C61 C60 1.394 . S
C61 C62 1.382 . S
C62 C61 1.382 . S
C62 C63 1.392 . S
C62 N64 1.420 . S
C63 H57 0.930 . S
C63 C59 1.407 . S
C63 C62 1.392 . S
N64 C62 1.420 . S
N64 C65 1.244 . S
C65 N64 1.244 . S
H66 C69 0.929 . S
H67 C72 0.929 . S
H68 C74 0.930 . S
C69 H66 0.929 . S
C69 C70 1.398 . S
C69 C71 1.396 . S
C70 C69 1.398 . S
C70 C74 1.407 . S
C71 C69 1.396 . S
C71 C72 1.394 . S
C72 H67 0.929 . S
C72 C71 1.394 . S
C72 C73 1.382 . S
C73 C72 1.382 . S
C73 C74 1.392 . S
C73 N75 1.420 . S
C74 H68 0.930 . S
C74 C70 1.407 . S
C74 C73 1.392 . S
N75 C73 1.420 . S
N75 C76 1.244 . S
C76 N75 1.244 . S
H77 C80 0.929 . S
H78 C83 0.929 . S
H79 C85 0.930 . S
C80 H77 0.929 . S
C80 C81 1.398 . S
C80 C82 1.396 . S
C81 C80 1.398 . S
C81 C85 1.407 . S
C82 C80 1.396 . S
C82 C83 1.394 . S
C83 H78 0.929 . S
C83 C82 1.394 . S
C83 C84 1.382 . S
C84 C83 1.382 . S
C84 C85 1.392 . S
C84 N86 1.420 . S
C85 H79 0.930 . S
C85 C81 1.407 . S
C85 C84 1.392 . S
N86 C84 1.420 . S
N86 C87 1.244 . S
C87 N86 1.244 . S
C88 O90 1.247 1_655 S
C88 O92 1.258 . S
C89 O96 1.247 . S
C89 O97 1.258 . S
O90 C88 1.247 1_455 S
O90 Zn91 2.028 . S
Zn91 O90 2.028 . S
Zn91 O95 2.035 . S
Zn91 O97 2.035 . S
Zn91 O98 2.028 . S
O92 C88 1.258 . S
O92 Zn93 2.035 1_655 S
Zn93 O92 2.035 1_455 S
Zn93 O94 2.028 . S
Zn93 O96 2.028 . S
Zn93 O99 2.035 1_455 S
O94 Zn93 2.028 . S
O94 C100 1.247 . S
O95 Zn91 2.035 . S
O95 C100 1.258 . S
O96 C89 1.247 . S
O96 Zn93 2.028 . S
O97 C89 1.258 . S
O97 Zn91 2.035 . S
O98 Zn91 2.028 . S
O98 C101 1.247 1_455 S
O99 Zn93 2.035 1_655 S
O99 C101 1.258 . S
C100 O94 1.247 . S
C100 O95 1.258 . S
C101 O98 1.247 1_655 S
C101 O99 1.258 . S
C102 O104 1.247 1_656 S
C102 O106 1.258 . S
C103 O110 1.247 . S
C103 O111 1.258 . S
O104 C102 1.247 1_454 S
O104 Zn105 2.035 . S
Zn105 O104 2.035 . S
Zn105 O109 2.040 1_554 S
Zn105 O111 2.024 1_554 S
Zn105 O112 2.021 1_554 S
O106 C102 1.258 . S
O106 Zn107 2.035 1_655 S
Zn107 O106 2.035 1_455 S
Zn107 O108 2.028 . S
Zn107 O110 2.028 . S
Zn107 O113 2.036 . S
O108 Zn107 2.028 . S
O108 C114 1.247 . S
O109 Zn105 2.040 1_556 S
O109 C114 1.267 . S
O110 C103 1.247 . S
O110 Zn107 2.028 . S
O111 C103 1.258 . S
O111 Zn105 2.024 1_556 S
O112 Zn105 2.021 1_556 S
O112 C115 1.247 1_455 S
O113 Zn107 2.036 . S
O113 C115 1.258 1_455 S
C114 O108 1.247 . S
C114 O109 1.267 . S
C115 O112 1.247 1_655 S
C115 O113 1.258 1_655 S
C116 O118 1.247 . S
C116 O120 1.258 . S
C117 O124 1.247 . S
C117 O125 1.258 . S
O118 C116 1.247 . S
O118 Zn119 2.028 1_565 S
Zn119 O118 2.028 1_545 S
Zn119 O123 2.035 . S
Zn119 O125 2.035 . S
Zn119 O126 2.028 1_545 S
O120 C116 1.258 . S
O120 Zn121 2.035 1_565 S
Zn121 O120 2.035 1_545 S
Zn121 O122 2.028 . S
Zn121 O124 2.028 . S
Zn121 O127 2.035 1_545 S
O122 Zn121 2.028 . S
O122 C128 1.247 . S
O123 Zn119 2.035 . S
O123 C128 1.258 . S
O124 C117 1.247 . S
O124 Zn121 2.028 . S
O125 C117 1.258 . S
O125 Zn119 2.035 . S
O126 Zn119 2.028 1_565 S
O126 C129 1.247 . S
O127 Zn121 2.035 1_565 S
O127 C129 1.258 . S
C128 O122 1.247 . S
C128 O123 1.258 . S
C129 O126 1.247 . S
C129 O127 1.258 . S
C130 O132 1.247 . S
C130 O134 1.258 . S
C131 O138 1.247 . S
C131 O139 1.258 . S
O132 C130 1.247 . S
O132 Zn133 2.028 1_554 S
Zn133 O132 2.028 1_556 S
Zn133 O137 2.035 1_556 S
Zn133 O139 2.035 . S
Zn133 O140 2.028 . S
O134 C130 1.258 . S
O134 Zn135 2.035 . S
Zn135 O134 2.035 . S
Zn135 O136 2.028 . S
Zn135 O138 2.028 1_554 S
Zn135 O141 2.035 1_554 S
O136 Zn135 2.028 . S
O136 C142 1.247 . S
O137 Zn133 2.035 1_554 S
O137 C142 1.258 . S
O138 C131 1.247 . S
O138 Zn135 2.028 1_556 S
O139 C131 1.258 . S
O139 Zn133 2.035 . S
O140 Zn133 2.028 . S
O140 C143 1.247 . S
O141 Zn135 2.035 1_556 S
O141 C143 1.258 . S
C142 O136 1.247 . S
C142 O137 1.258 . S
C143 O140 1.247 . S
C143 O141 1.258 . S
C144 O146 1.247 . S
C144 O148 1.258 . S
C145 O152 1.247 . S
C145 O153 1.258 . S
O146 C144 1.247 . S
O146 Zn147 2.028 1_565 S
Zn147 O146 2.028 1_545 S
Zn147 O151 2.035 . S
Zn147 O153 2.035 . S
Zn147 O154 2.028 1_545 S
O148 C144 1.258 . S
O148 Zn149 2.035 1_565 S
Zn149 O148 2.035 1_545 S
Zn149 O150 2.028 . S
Zn149 O152 2.028 . S
Zn149 O155 2.035 1_545 S
O150 Zn149 2.028 . S
O150 C156 1.247 . S
O151 Zn147 2.035 . S
O151 C156 1.258 . S
O152 C145 1.247 . S
O152 Zn149 2.028 . S
O153 C145 1.258 . S
O153 Zn147 2.035 . S
O154 Zn147 2.028 1_565 S
O154 C157 1.247 . S
O155 Zn149 2.035 1_565 S
O155 C157 1.258 . S
C156 O150 1.247 . S
C156 O151 1.258 . S
C157 O154 1.247 . S
C157 O155 1.258 . S
C158 O160 1.247 . S
C158 O162 1.258 . S
C159 O166 1.247 . S
C159 O167 1.258 . S
O160 C158 1.247 . S
O160 Zn161 2.028 . S
Zn161 O160 2.028 . S
Zn161 O165 2.035 . S
Zn161 O167 2.035 . S
Zn161 O168 2.028 . S
O162 C158 1.258 . S
O162 Zn163 2.035 . S
Zn163 O162 2.035 . S
Zn163 O164 2.028 . S
Zn163 O166 2.028 . S
Zn163 O169 2.035 . S
O164 Zn163 2.028 . S
O164 C170 1.247 . S
O165 Zn161 2.035 . S
O165 C170 1.258 . S
O166 C159 1.247 . S
O166 Zn163 2.028 . S
O167 C159 1.258 . S
O167 Zn161 2.035 . S
O168 Zn161 2.028 . S
O168 C171 1.247 . S
O169 Zn163 2.035 . S
O169 C171 1.258 . S
C170 O164 1.247 . S
C170 O165 1.258 . S
C171 O168 1.247 . S
C171 O169 1.258 . S
H172 C178 0.930 . S
H173 C181 0.930 . S
H174 C182 0.930 . S
H175 C183 0.930 . S
H176 C186 0.930 . S
H177 C187 0.930 . S
C178 H172 0.930 . S
C178 C179 1.355 . S
C178 C180 1.415 . S
C179 C178 1.355 . S
C179 C181 1.419 . S
C180 C178 1.415 . S
C180 C185 1.425 . S
C180 C187 1.409 . S
C181 H173 0.930 . S
C181 C179 1.419 . S
C181 C182 1.362 . S
C182 H174 0.930 . S
C182 C181 1.362 . S
C182 C185 1.409 . S
C183 H175 0.930 . S
C183 C184 1.355 . S
C183 C185 1.415 . S
C184 C183 1.355 . S
C184 C186 1.419 . S
C185 C180 1.425 . S
C185 C182 1.409 . S
C185 C183 1.415 . S
C186 H176 0.930 . S
C186 C184 1.419 . S
C186 C187 1.362 . S
C187 H177 0.930 . S
C187 C180 1.409 . S
C187 C186 1.362 . S
H188 C194 0.930 . S
H189 C197 0.930 . S
H190 C198 0.930 . S
H191 C199 0.930 . S
H192 C202 0.930 . S
H193 C203 0.930 . S
C194 H188 0.930 . S
C194 C195 1.355 . S
C194 C196 1.415 . S
C195 C194 1.355 . S
C195 C197 1.419 . S
C196 C194 1.415 . S
C196 C201 1.425 . S
C196 C203 1.409 . S
C197 H189 0.930 . S
C197 C195 1.419 . S
C197 C198 1.362 . S
C198 H190 0.930 . S
C198 C197 1.362 . S
C198 C201 1.409 . S
C199 H191 0.930 . S
C199 C200 1.355 . S
C199 C201 1.415 . S
C200 C199 1.355 . S
C200 C202 1.419 . S
C201 C196 1.425 . S
C201 C198 1.409 . S
C201 C199 1.415 . S
C202 H192 0.930 . S
C202 C200 1.419 . S
C202 C203 1.362 . S
C203 H193 0.930 . S
C203 C196 1.409 . S
C203 C202 1.362 . S
H204 C210 0.930 . S
H205 C213 0.930 . S
H206 C214 0.930 . S
H207 C215 0.930 . S
H208 C218 0.930 1_455 S
H209 C219 0.930 . S
C210 H204 0.930 . S
C210 C211 1.355 . S
C210 C212 1.415 . S
C211 C210 1.355 . S
C211 C213 1.419 . S
C212 C210 1.415 . S
C212 C217 1.425 . S
C212 C219 1.409 . S
C213 H205 0.930 . S
C213 C211 1.419 . S
C213 C214 1.362 . S
C214 H206 0.930 . S
C214 C213 1.362 . S
C214 C217 1.409 . S
C215 H207 0.930 . S
C215 C216 1.355 . S
C215 C217 1.415 . S
C216 C215 1.355 . S
C216 C218 1.419 . S
C217 C212 1.425 . S
C217 C214 1.409 . S
C217 C215 1.415 . S
C218 H208 0.930 1_655 S
C218 C216 1.419 . S
C218 C219 1.362 . S
C219 H209 0.930 . S
C219 C212 1.409 . S
C219 C218 1.362 . S
H220 C226 0.930 . S
H221 C229 0.930 . S
H222 C230 0.930 . S
H223 C231 0.930 . S
H224 C234 0.930 . S
H225 C235 0.930 . S
C226 H220 0.930 . S
C226 C227 1.355 . S
C226 C228 1.415 . S
C227 C226 1.355 . S
C227 C229 1.419 . S
C228 C226 1.415 . S
C228 C233 1.425 . S
C228 C235 1.409 . S
C229 H221 0.930 . S
C229 C227 1.419 . S
C229 C230 1.362 . S
C230 H222 0.930 . S
C230 C229 1.362 . S
C230 C233 1.409 . S
C231 H223 0.930 . S
C231 C232 1.355 . S
C231 C233 1.415 . S
C232 C231 1.355 . S
C232 C234 1.419 . S
C233 C228 1.425 . S
C233 C230 1.409 . S
C233 C231 1.415 . S
C234 H224 0.930 . S
C234 C232 1.419 . S
C234 C235 1.362 . S
C235 H225 0.930 . S
C235 C228 1.409 . S
C235 C234 1.362 . S
H236 C242 0.930 . S
H237 C245 0.930 . S
H238 C246 0.930 . S
H239 C247 0.930 . S
H240 C250 0.930 . S
H241 C251 0.930 . S
C242 H236 0.930 . S
C242 C243 1.355 . S
C242 C244 1.415 . S
C243 C242 1.355 . S
C243 C245 1.419 . S
C244 C242 1.415 . S
C244 C249 1.425 . S
C244 C251 1.409 . S
C245 H237 0.930 . S
C245 C243 1.419 . S
C245 C246 1.362 . S
C246 H238 0.930 . S
C246 C245 1.362 . S
C246 C249 1.409 . S
C247 H239 0.930 . S
C247 C248 1.355 . S
C247 C249 1.415 . S
C248 C247 1.355 . S
C248 C250 1.419 . S
C249 C244 1.425 . S
C249 C246 1.409 . S
C249 C247 1.415 . S
C250 H240 0.930 . S
C250 C248 1.419 . S
C250 C251 1.362 . S
C251 H241 0.930 . S
C251 C244 1.409 . S
C251 C250 1.362 . S
H252 C258 0.930 . S
H253 C261 0.930 . S
H254 C262 0.930 . S
H255 C263 0.930 . S
H256 C266 0.930 . S
H257 C267 0.930 . S
C258 H252 0.930 . S
C258 C259 1.355 . S
C258 C260 1.415 . S
C259 C258 1.355 . S
C259 C261 1.419 . S
C260 C258 1.415 . S
C260 C265 1.425 . S
C260 C267 1.409 . S
C261 H253 0.930 . S
C261 C259 1.419 . S
C261 C262 1.362 . S
C262 H254 0.930 . S
C262 C261 1.362 . S
C262 C265 1.409 . S
C263 H255 0.930 . S
C263 C264 1.355 . S
C263 C265 1.415 . S
C264 C263 1.355 . S
C264 C266 1.419 . S
C265 C260 1.425 . S
C265 C262 1.409 . S
C265 C263 1.415 . S
C266 H256 0.930 . S
C266 C264 1.419 . S
C266 C267 1.362 . S
C267 H257 0.930 . S
C267 C260 1.409 . S
C267 C266 1.362 . S
H268 C274 0.930 . S
H269 C277 0.930 . S
H270 C278 0.930 . S
H271 C279 0.930 . S
H272 C282 0.930 . S
H273 C283 0.930 . S
C274 H268 0.930 . S
C274 C275 1.355 . S
C274 C276 1.415 . S
C275 C274 1.355 . S
C275 C277 1.419 . S
C276 C274 1.415 . S
C276 C281 1.425 . S
C276 C283 1.409 . S
C277 H269 0.930 . S
C277 C275 1.419 . S
C277 C278 1.362 . S
C278 H270 0.930 . S
C278 C277 1.362 . S
C278 C281 1.409 . S
C279 H271 0.930 . S
C279 C280 1.355 . S
C279 C281 1.415 . S
C280 C279 1.355 . S
C280 C282 1.419 . S
C281 C276 1.425 . S
C281 C278 1.409 . S
C281 C279 1.415 . S
C282 H272 0.930 . S
C282 C280 1.419 . S
C282 C283 1.362 . S
C283 H273 0.930 . S
C283 C276 1.409 . S
C283 C282 1.362 . S
H284 C290 0.930 . S
H285 C293 0.930 . S
H286 C294 0.930 . S
H287 C295 0.930 . S
H288 C298 0.930 . S
H289 C299 0.930 . S
C290 H284 0.930 . S
C290 C291 1.355 . S
C290 C292 1.415 . S
C291 C290 1.355 . S
C291 C293 1.419 . S
C292 C290 1.415 . S
C292 C297 1.425 . S
C292 C299 1.409 . S
C293 H285 0.930 . S
C293 C291 1.419 . S
C293 C294 1.362 . S
C294 H286 0.930 . S
C294 C293 1.362 . S
C294 C297 1.409 . S
C295 H287 0.930 . S
C295 C296 1.355 . S
C295 C297 1.415 . S
C296 C295 1.355 . S
C296 C298 1.419 . S
C297 C292 1.425 . S
C297 C294 1.409 . S
C297 C295 1.415 . S
C298 H288 0.930 . S
C298 C296 1.419 . S
C298 C299 1.362 . S
C299 H289 0.930 . S
C299 C292 1.409 . S
C299 C298 1.362 . S
H300 C306 0.930 . S
H301 C309 0.930 . S
H302 C310 0.930 . S
H303 C311 0.930 . S
H304 C314 0.930 . S
H305 C315 0.930 . S
C306 H300 0.930 . S
C306 C307 1.355 . S
C306 C308 1.415 . S
C307 C306 1.355 . S
C307 C309 1.419 . S
C308 C306 1.415 . S
C308 C313 1.425 . S
C308 C315 1.409 . S
C309 H301 0.930 . S
C309 C307 1.419 . S
C309 C310 1.362 . S
C310 H302 0.930 . S
C310 C309 1.362 . S
C310 C313 1.409 . S
C311 H303 0.930 . S
C311 C312 1.355 . S
C311 C313 1.415 . S
C312 C311 1.355 . S
C312 C314 1.419 . S
C313 C308 1.425 . S
C313 C310 1.409 . S
C313 C311 1.415 . S
C314 H304 0.930 . S
C314 C312 1.419 . S
C314 C315 1.362 . S
C315 H305 0.930 . S
C315 C308 1.409 . S
C315 C314 1.362 . S
H316 C322 0.930 . S
H317 C325 0.930 . S
H318 C326 0.930 . S
H319 C327 0.930 . S
H320 C330 0.930 . S
H321 C331 0.930 . S
C322 H316 0.930 . S
C322 C323 1.355 . S
C322 C324 1.415 . S
C323 C322 1.355 . S
C323 C325 1.419 . S
C324 C322 1.415 . S
C324 C329 1.425 . S
C324 C331 1.409 . S
C325 H317 0.930 . S
C325 C323 1.419 . S
C325 C326 1.362 . S
C326 H318 0.930 . S
C326 C325 1.362 . S
C326 C329 1.409 . S
C327 H319 0.930 . S
C327 C328 1.355 . S
C327 C329 1.415 . S
C328 C327 1.355 . S
C328 C330 1.419 . S
C329 C324 1.425 . S
C329 C326 1.409 . S
C329 C327 1.415 . S
C330 H320 0.930 . S
C330 C328 1.419 . S
C330 C331 1.362 . S
C331 H321 0.930 . S
C331 C324 1.409 . S
C331 C330 1.362 . S
H332 C338 0.930 . S
H333 C341 0.930 . S
H334 C342 0.930 . S
H335 C343 0.930 . S
H336 C346 0.930 . S
H337 C347 0.930 . S
C338 H332 0.930 . S
C338 C339 1.355 . S
C338 C340 1.415 . S
C339 C338 1.355 . S
C339 C341 1.419 . S
C340 C338 1.415 . S
C340 C345 1.425 . S
C340 C347 1.409 . S
C341 H333 0.930 . S
C341 C339 1.419 . S
C341 C342 1.362 . S
C342 H334 0.930 . S
C342 C341 1.362 . S
C342 C345 1.409 . S
C343 H335 0.930 . S
C343 C344 1.355 . S
C343 C345 1.415 . S
C344 C343 1.355 . S
C344 C346 1.419 . S
C345 C340 1.425 . S
C345 C342 1.409 . S
C345 C343 1.415 . S
C346 H336 0.930 . S
C346 C344 1.419 . S
C346 C347 1.362 . S
C347 H337 0.930 . S
C347 C340 1.409 . S
C347 C346 1.362 . S
H348 C354 0.930 . S
H349 C357 0.930 . S
H350 C358 0.930 . S
H351 C359 0.930 . S
H352 C362 0.930 . S
H353 C363 0.930 . S
C354 H348 0.930 . S
C354 C355 1.355 . S
C354 C356 1.415 . S
C355 C354 1.355 . S
C355 C357 1.419 . S
C356 C354 1.415 . S
C356 C361 1.425 . S
C356 C363 1.409 . S
C357 H349 0.930 . S
C357 C355 1.419 . S
C357 C358 1.362 . S
C358 H350 0.930 . S
C358 C357 1.362 . S
C358 C361 1.409 . S
C359 H351 0.930 . S
C359 C360 1.355 . S
C359 C361 1.415 . S
C360 C359 1.355 . S
C360 C362 1.419 . S
C361 C356 1.425 . S
C361 C358 1.409 . S
C361 C359 1.415 . S
C362 H352 0.930 . S
C362 C360 1.419 . S
C362 C363 1.362 . S
C363 H353 0.930 . S
C363 C356 1.409 . S
C363 C362 1.362 . S
H364 C370 0.930 . S
H365 C373 0.930 . S
H366 C374 0.930 . S
H367 C375 0.930 . S
H368 C378 0.930 . S
H369 C379 0.930 . S
C370 H364 0.930 . S
C370 C371 1.355 . S
C370 C372 1.415 . S
C371 C370 1.355 . S
C371 C373 1.419 . S
C372 C370 1.415 . S
C372 C377 1.425 . S
C372 C379 1.409 . S
C373 H365 0.930 . S
C373 C371 1.419 . S
C373 C374 1.362 . S
C374 H366 0.930 . S
C374 C373 1.362 . S
C374 C377 1.409 . S
C375 H367 0.930 . S
C375 C376 1.355 . S
C375 C377 1.415 . S
C376 C375 1.355 . S
C376 C378 1.419 . S
C377 C372 1.425 . S
C377 C374 1.409 . S
C377 C375 1.415 . S
C378 H368 0.930 . S
C378 C376 1.419 . S
C378 C379 1.362 . S
C379 H369 0.930 . S
C379 C372 1.409 . S
C379 C378 1.362 . S
H380 C386 0.930 . S
H381 C389 0.930 . S
H382 C390 0.930 . S
H383 C391 0.930 . S
H384 C394 0.930 . S
H385 C395 0.930 . S
C386 H380 0.930 . S
C386 C387 1.355 . S
C386 C388 1.415 . S
C387 C386 1.355 . S
C387 C389 1.419 . S
C388 C386 1.415 . S
C388 C393 1.425 . S
C388 C395 1.409 . S
C389 H381 0.930 . S
C389 C387 1.419 . S
C389 C390 1.362 . S
C390 H382 0.930 . S
C390 C389 1.362 . S
C390 C393 1.409 . S
C391 H383 0.930 . S
C391 C392 1.355 . S
C391 C393 1.415 . S
C392 C391 1.355 . S
C392 C394 1.419 . S
C393 C388 1.425 . S
C393 C390 1.409 . S
C393 C391 1.415 . S
C394 H384 0.930 . S
C394 C392 1.419 . S
C394 C395 1.362 . S
C395 H385 0.930 . S
C395 C388 1.409 . S
C395 C394 1.362 . S
H396 C402 0.930 1_554 S
H397 C405 0.930 . S
H398 C406 0.930 . S
H399 C407 0.930 . S
H400 C410 0.930 . S
H401 C411 0.930 . S
C402 H396 0.930 1_556 S
C402 C403 1.355 . S
C402 C404 1.415 . S
C403 C402 1.355 . S
C403 C405 1.419 . S
C404 C402 1.415 . S
C404 C409 1.425 . S
C404 C411 1.409 1_556 S
C405 H397 0.930 . S
C405 C403 1.419 . S
C405 C406 1.362 . S
C406 H398 0.930 . S
C406 C405 1.362 . S
C406 C409 1.409 . S
C407 H399 0.930 . S
C407 C408 1.355 . S
C407 C409 1.415 . S
C408 C407 1.355 . S
C408 C410 1.419 1_556 S
C409 C404 1.425 . S
C409 C406 1.409 . S
C409 C407 1.415 . S
C410 H400 0.930 . S
C410 C408 1.419 1_554 S
C410 C411 1.362 . S
C411 H401 0.930 . S
C411 C404 1.409 1_554 S
C411 C410 1.362 . S
H412 C418 0.930 . S
H413 C421 0.930 . S
H414 C422 0.930 . S
H415 C423 0.930 . S
H416 C426 0.930 . S
H417 C427 0.930 . S
C418 H412 0.930 . S
C418 C419 1.355 . S
C418 C420 1.415 . S
C419 C418 1.355 . S
C419 C421 1.419 . S
C420 C418 1.415 . S
C420 C425 1.425 . S
C420 C427 1.409 . S
C421 H413 0.930 . S
C421 C419 1.419 . S
C421 C422 1.362 . S
C422 H414 0.930 . S
C422 C421 1.362 . S
C422 C425 1.409 . S
C423 H415 0.930 . S
C423 C424 1.355 . S
C423 C425 1.415 . S
C424 C423 1.355 . S
C424 C426 1.419 . S
C425 C420 1.425 . S
C425 C422 1.409 . S
C425 C423 1.415 . S
C426 H416 0.930 . S
C426 C424 1.419 . S
C426 C427 1.362 . S
C427 H417 0.930 . S
C427 C420 1.409 . S
C427 C426 1.362 . S
H428 C434 0.930 . S
H429 C437 0.930 . S
H430 C438 0.930 . S
H431 C439 0.930 . S
H432 C442 0.930 . S
H433 C443 0.930 . S
C434 H428 0.930 . S
C434 C435 1.355 . S
C434 C436 1.415 . S
C435 C434 1.355 . S
C435 C437 1.419 . S
C436 C434 1.415 . S
C436 C441 1.425 . S
C436 C443 1.409 . S
C437 H429 0.930 . S
C437 C435 1.419 . S
C437 C438 1.362 . S
C438 H430 0.930 . S
C438 C437 1.362 . S
C438 C441 1.409 . S
C439 H431 0.930 . S
C439 C440 1.355 . S
C439 C441 1.415 . S
C440 C439 1.355 . S
C440 C442 1.419 . S
C441 C436 1.425 . S
C441 C438 1.409 . S
C441 C439 1.415 . S
C442 H432 0.930 . S
C442 C440 1.419 . S
C442 C443 1.362 . S
C443 H433 0.930 . S
C443 C436 1.409 . S
C443 C442 1.362 . S
H444 C450 0.930 . S
H445 C453 0.930 . S
H446 C454 0.930 . S
H447 C455 0.930 . S
H448 C458 0.930 . S
H449 C459 0.930 . S
C450 H444 0.930 . S
C450 C451 1.355 . S
C450 C452 1.415 . S
C451 C450 1.355 . S
C451 C453 1.419 . S
C452 C450 1.415 . S
C452 C457 1.425 . S
C452 C459 1.409 . S
C453 H445 0.930 . S
C453 C451 1.419 . S
C453 C454 1.362 . S
C454 H446 0.930 . S
C454 C453 1.362 . S
C454 C457 1.409 . S
C455 H447 0.930 . S
C455 C456 1.355 . S
C455 C457 1.415 . S
C456 C455 1.355 . S
C456 C458 1.419 . S
C457 C452 1.425 . S
C457 C454 1.409 . S
C457 C455 1.415 . S
C458 H448 0.930 . S
C458 C456 1.419 . S
C458 C459 1.362 . S
C459 H449 0.930 . S
C459 C452 1.409 . S
C459 C458 1.362 . S
H460 C466 0.930 . S
H461 C469 0.930 . S
H462 C470 0.930 . S
H463 C471 0.930 . S
H464 C474 0.930 . S
H465 C475 0.930 . S
C466 H460 0.930 . S
C466 C467 1.355 . S
C466 C468 1.415 . S
C467 C466 1.355 . S
C467 C469 1.419 . S
C468 C466 1.415 . S
C468 C473 1.425 . S
C468 C475 1.409 . S
C469 H461 0.930 . S
C469 C467 1.419 . S
C469 C470 1.362 . S
C470 H462 0.930 . S
C470 C469 1.362 . S
C470 C473 1.409 . S
C471 H463 0.930 . S
C471 C472 1.355 . S
C471 C473 1.415 . S
C472 C471 1.355 . S
C472 C474 1.419 . S
C473 C468 1.425 . S
C473 C470 1.409 . S
C473 C471 1.415 . S
C474 H464 0.930 . S
C474 C472 1.419 . S
C474 C475 1.362 . S
C475 H465 0.930 . S
C475 C468 1.409 . S
C475 C474 1.362 . S
H476 C482 0.930 . S
H477 C485 0.930 . S
H478 C486 0.930 . S
H479 C487 0.930 . S
H480 C490 0.930 . S
H481 C491 0.930 . S
C482 H476 0.930 . S
C482 C483 1.355 . S
C482 C484 1.415 . S
C483 C482 1.355 . S
C483 C485 1.419 . S
C484 C482 1.415 . S
C484 C489 1.425 . S
C484 C491 1.409 . S
C485 H477 0.930 . S
C485 C483 1.419 . S
C485 C486 1.362 . S
C486 H478 0.930 . S
C486 C485 1.362 . S
C486 C489 1.409 . S
C487 H479 0.930 . S
C487 C488 1.355 . S
C487 C489 1.415 . S
C488 C487 1.355 . S
C488 C490 1.419 . S
C489 C484 1.425 . S
C489 C486 1.409 . S
C489 C487 1.415 . S
C490 H480 0.930 . S
C490 C488 1.419 . S
C490 C491 1.362 . S
C491 H481 0.930 . S
C491 C484 1.409 . S
C491 C490 1.362 . S
H492 C498 0.930 . S
H493 C501 0.930 . S
H494 C502 0.930 . S
H495 C503 0.930 . S
H496 C506 0.930 . S
H497 C507 0.930 . S
C498 H492 0.930 . S
C498 C499 1.355 . S
C498 C500 1.415 . S
C499 C498 1.355 . S
C499 C501 1.419 . S
C500 C498 1.415 . S
C500 C505 1.425 . S
C500 C507 1.409 . S
C501 H493 0.930 . S
C501 C499 1.419 . S
C501 C502 1.362 . S
C502 H494 0.930 . S
C502 C501 1.362 . S
C502 C505 1.409 . S
C503 H495 0.930 . S
C503 C504 1.355 . S
C503 C505 1.415 . S
C504 C503 1.355 . S
C504 C506 1.419 . S
C505 C500 1.425 . S
C505 C502 1.409 . S
C505 C503 1.415 . S
C506 H496 0.930 . S
C506 C504 1.419 . S
C506 C507 1.362 . S
C507 H497 0.930 . S
C507 C500 1.409 . S
C507 C506 1.362 . S
H508 C514 0.930 . S
H509 C517 0.930 . S
H510 C518 0.930 . S
H511 C519 0.930 . S
H512 C522 0.930 . S
H513 C523 0.930 . S
C514 H508 0.930 . S
C514 C515 1.355 . S
C514 C516 1.415 . S
C515 C514 1.355 . S
C515 C517 1.419 . S
C516 C514 1.415 . S
C516 C521 1.425 . S
C516 C523 1.409 . S
C517 H509 0.930 . S
C517 C515 1.419 . S
C517 C518 1.362 . S
C518 H510 0.930 . S
C518 C517 1.362 . S
C518 C521 1.409 . S
C519 H511 0.930 . S
C519 C520 1.355 . S
C519 C521 1.415 . S
C520 C519 1.355 . S
C520 C522 1.419 . S
C521 C516 1.425 . S
C521 C518 1.409 . S
C521 C519 1.415 . S
C522 H512 0.930 . S
C522 C520 1.419 . S
C522 C523 1.362 . S
C523 H513 0.930 . S
C523 C516 1.409 . S
C523 C522 1.362 . S
H524 C530 0.930 . S
H525 C533 0.930 . S
H526 C534 0.930 . S
H527 C535 0.930 . S
H528 C538 0.930 . S
H529 C539 0.930 . S
C530 H524 0.930 . S
C530 C531 1.355 . S
C530 C532 1.415 . S
C531 C530 1.355 . S
C531 C533 1.419 . S
C532 C530 1.415 . S
C532 C537 1.425 . S
C532 C539 1.409 . S
C533 H525 0.930 . S
C533 C531 1.419 . S
C533 C534 1.362 . S
C534 H526 0.930 . S
C534 C533 1.362 . S
C534 C537 1.409 . S
C535 H527 0.930 . S
C535 C536 1.355 . S
C535 C537 1.415 . S
C536 C535 1.355 . S
C536 C538 1.419 . S
C537 C532 1.425 . S
C537 C534 1.409 . S
C537 C535 1.415 . S
C538 H528 0.930 . S
C538 C536 1.419 . S
C538 C539 1.362 . S
C539 H529 0.930 . S
C539 C532 1.409 . S
C539 C538 1.362 . S
H540 C546 0.930 . S
H541 C549 0.930 . S
H542 C550 0.930 . S
H543 C551 0.930 . S
H544 C554 0.930 . S
H545 C555 0.930 . S
C546 H540 0.930 . S
C546 C547 1.355 . S
C546 C548 1.415 . S
C547 C546 1.355 . S
C547 C549 1.419 . S
C548 C546 1.415 . S
C548 C553 1.425 . S
C548 C555 1.409 . S
C549 H541 0.930 . S
C549 C547 1.419 . S
C549 C550 1.362 . S
C550 H542 0.930 . S
C550 C549 1.362 . S
C550 C553 1.409 . S
C551 H543 0.930 . S
C551 C552 1.355 . S
C551 C553 1.415 . S
C552 C551 1.355 . S
C552 C554 1.419 . S
C553 C548 1.425 . S
C553 C550 1.409 . S
C553 C551 1.415 . S
C554 H544 0.930 . S
C554 C552 1.419 . S
C554 C555 1.362 . S
C555 H545 0.930 . S
C555 C548 1.409 . S
C555 C554 1.362 . S
C184 C100 1.514 . S
C179 C10 1.497 . S
C200 C103 1.663 . S
C195 C15 1.661 . S
C216 C101 1.414 . S
C211 C26 1.428 . S
C232 C102 1.511 . S
C227 C37 1.504 . S
C248 C117 1.737 . S
C243 C4 1.729 . S
C264 C131 1.640 . S
C259 C16 1.626 . S
C275 C27 1.605 . S
C280 C157 1.607 . S
C296 C171 1.407 . S
C291 C43 1.417 . S
C312 C116 1.636 . S
C307 C21 1.625 . S
C323 C32 1.451 . S
C328 C130 1.419 . S
C344 C156 1.565 . S
C339 C38 1.545 . S
C360 C170 1.574 . S
C355 C5 1.551 . S
C371 C49 1.739 . S
C376 C115 1.737 . S
C392 C88 1.587 . S
C387 C60 1.577 . S
C403 C76 1.565 . S
C408 C114 1.564 . S
C419 C81 1.531 . S
C424 C89 1.541 . S
C440 C144 1.469 . S
C435 C54 1.473 . S
C456 C158 1.598 . S
C451 C59 1.596 . S
C472 C128 1.599 . S
C467 C70 1.604 . S
C483 C87 1.618 . S
C488 C142 1.578 . S
C504 C145 1.525 . S
C499 C65 1.521 . S
C520 C159 1.610 . S
C515 C71 1.601 1_554 S
C536 C129 1.566 . S
C531 C82 1.575 . S
C547 C48 1.701 . S
C552 C143 1.689 . S
