# Generated by pormake.
# Topology pth, (4,4)-cn, num edge types: 1
# Building blocks:
#     Node 0, Type 0, BuildingBlock: TATPOV_clean_sbu_0, # of connection points: 4
#     Node 1, Type 0, BuildingBlock: TATPOV_clean_sbu_0, # of connection points: 4
#     Node 2, Type 0, BuildingBlock: TATPOV_clean_sbu_0, # of connection points: 4
#     Node 3, Type 1, BuildingBlock: NAWXER_clean_linker_0, # of connection points: 4
#     Node 4, Type 1, BuildingBlock: NAWXER_clean_linker_0, # of connection points: 4
#     Node 5, Type 1, BuildingBlock: NAWXER_clean_linker_0, # of connection points: 4
#     Edge 6, Type (0, 1), BuildingBlock: MIFKUJ_clean_linker_0, # of connection points: 2
#     Edge 7, Type (0, 1), BuildingBlock: MIFKUJ_clean_linker_0, # of connection points: 2
#     Edge 8, Type (0, 1), BuildingBlock: MIFKUJ_clean_linker_0, # of connection points: 2
#     Edge 9, Type (0, 1), BuildingBlock: MIFKUJ_clean_linker_0, # of connection points: 2
#     Edge 10, Type (0, 1), BuildingBlock: MIFKUJ_clean_linker_0, # of connection points: 2
#     Edge 11, Type (0, 1), BuildingBlock: MIFKUJ_clean_linker_0, # of connection points: 2
#     Edge 12, Type (0, 1), BuildingBlock: MIFKUJ_clean_linker_0, # of connection points: 2
#     Edge 13, Type (0, 1), BuildingBlock: MIFKUJ_clean_linker_0, # of connection points: 2
#     Edge 14, Type (0, 1), BuildingBlock: MIFKUJ_clean_linker_0, # of connection points: 2
#     Edge 15, Type (0, 1), BuildingBlock: MIFKUJ_clean_linker_0, # of connection points: 2
#     Edge 16, Type (0, 1), BuildingBlock: MIFKUJ_clean_linker_0, # of connection points: 2
#     Edge 17, Type (0, 1), BuildingBlock: MIFKUJ_clean_linker_0, # of connection points: 2
# Relax obj value: 0.037
# Max RMSD: 0.160
# Mean RMSD: 0.080
data_MOF--net-pth--node1-TATPOV_clean_sbu_0--node2-NAWXER_clean_linker_0--edge1-MIFKUJ_clean_linker_0
_symmetry_space_group_name_H-M    P1
_symmetry_Int_Tables_number       1
_symmetry_cell_setting            triclinic
loop_
_symmetry_equiv_pos_as_xyz
'x, y, z'
_cell_length_a     36.381945
_cell_length_b     36.063051
_cell_length_c     80.040253
_cell_angle_alpha  92.426633
_cell_angle_beta   92.132381
_cell_angle_gamma 120.98627
loop_
_atom_site_label
_atom_site_type_symbol
_atom_site_fract_x
_atom_site_fract_y
_atom_site_fract_z
_atom_type_partial_charge
Zn0 Zn 0.12899 0.01313 0.04861 0.0
Zn1 Zn 0.09244 0.05583 0.06133 0.0
O2 O 0.09544 0.02047 0.08029 0.0
O3 O 0.12806 0.98765 0.0707 0.0
O4 O 0.07025 0.09008 0.07315 0.0
O5 O 0.18042 0.06943 0.04282 0.0
O6 O 0.14845 0.10321 0.05215 0.0
C7 C 0.11002 0.99545 0.08241 0.0
C8 C 0.04578 0.9898 0.03196 0.0
O9 O 0.04685 0.01769 0.04261 0.0
O10 O 0.07633 0.98241 0.03208 0.0
C11 C 0.06508 0.11859 0.06648 0.0
O12 O 0.07293 0.12571 0.05068 0.0
C13 C 0.17988 0.10406 0.04527 0.0
Zn14 Zn 0.10504 0.06664 0.35928 0.0
Zn15 Zn 0.04676 0.05564 0.3814 0.0
O16 O 0.09994 0.0688 0.39651 0.0
O17 O 0.14733 0.07666 0.37851 0.0
O18 O 0.00308 0.05111 0.39738 0.0
O19 O 0.10251 0.11573 0.34958 0.0
O20 O 0.05259 0.10416 0.36687 0.0
C21 C 0.13708 0.0758 0.3935 0.0
C22 C 0.02748 0.9818 0.35577 0.0
O23 O 0.01696 0.99559 0.36856 0.0
O24 O 0.06281 0.00604 0.34942 0.0
C25 C 0.00324 0.0435 0.41274 0.0
O26 O 0.03322 0.03722 0.41913 0.0
C27 C 0.07538 0.12449 0.35495 0.0
Zn28 Zn 0.06764 0.94296 0.73758 0.0
Zn29 Zn 0.03761 0.98325 0.71878 0.0
O30 O 0.07568 0.97323 0.70303 0.0
O31 O 0.10272 0.94286 0.71854 0.0
O32 O 0.00983 0.00799 0.70434 0.0
O33 O 0.00765 0.89276 0.74 0.0
O34 O 0.98436 0.93008 0.72703 0.0
C35 C 0.10012 0.95784 0.70481 0.0
C36 C 0.0917 0.02938 0.75112 0.0
O37 O 0.07313 0.0306 0.73751 0.0
O38 O 0.09225 0.99552 0.7543 0.0
C39 C -0.00194 0.99416 0.68906 0.0
O40 O 0.0061 0.96517 0.6826 0.0
C41 C 0.97683 0.89706 0.73484 0.0
C42 C 0.94075 0.36134 0.23818 0.0
C43 C 0.96428 0.37542 0.25381 0.0
C44 C 0.93549 0.39038 0.22876 0.0
C45 C 0.95495 0.43419 0.23463 0.0
C46 C 0.98282 0.41888 0.25979 0.0
C47 C 0.97831 0.44792 0.25029 0.0
C48 C 0.9502 0.46629 0.22532 0.0
C49 C 0.00699 0.41172 0.18961 0.0
C50 C 0.98135 0.39228 0.17458 0.0
C51 C -0.00103 0.43771 0.20052 0.0
C52 C 0.96467 0.44405 0.19675 0.0
C53 C 0.94767 0.39955 0.17069 0.0
C54 C 0.93955 0.42532 0.18164 0.0
C55 C 0.95573 0.47167 0.208 0.0
C56 C 0.99604 0.65224 0.20315 0.0
C57 C 0.97448 0.64996 0.18783 0.0
C58 C 0.98693 0.6145 0.21071 0.0
C59 C 0.95607 0.57363 0.20313 0.0
C60 C 0.94331 0.60885 0.18034 0.0
C61 C 0.93455 0.57105 0.18784 0.0
C62 C 0.94848 0.5338 0.2107 0.0
C63 C 0.89442 0.59391 0.24425 0.0
C64 C 0.91276 0.60535 0.26079 0.0
C65 C 0.90285 0.56805 0.23347 0.0
C66 C 0.93068 0.5541 0.23893 0.0
C67 C 0.93936 0.59018 0.2664 0.0
C68 C 0.94822 0.56483 0.25558 0.0
C69 C 0.94036 0.52683 0.22773 0.0
H70 H 0.92585 0.32779 0.23342 0.0
H71 H 0.91601 0.37849 0.21703 0.0
H72 H 0.00142 0.43058 0.27174 0.0
H73 H 0.99346 0.48142 0.25518 0.0
H74 H 0.03367 0.40739 0.19281 0.0
H75 H 0.01967 0.45297 0.21185 0.0
H76 H 0.92714 0.3848 0.15929 0.0
H77 H 0.91324 0.43021 0.1784 0.0
H78 H 0.02092 0.68312 0.20911 0.0
H79 H 0.00477 0.61723 0.2223 0.0
H80 H 0.92566 0.60581 0.16866 0.0
H81 H 0.91083 0.53979 0.18175 0.0
H82 H 0.87335 0.60474 0.23969 0.0
H83 H 0.8874 0.55882 0.22093 0.0
H84 H 0.95425 0.59887 0.27905 0.0
H85 H 0.96942 0.55418 0.26018 0.0
N86 N 0.94225 0.49382 0.23437 0.0
N87 N 0.95487 0.50542 0.2014 0.0
C88 C 0.70152 0.08192 0.52877 0.0
C89 C 0.68955 0.05334 0.51439 0.0
C90 C 0.67021 0.08223 0.53829 0.0
C91 C 0.62633 0.05327 0.53383 0.0
C92 C 0.64565 0.02524 0.5097 0.0
C93 C 0.61439 0.02527 0.51932 0.0
C94 C 0.59251 0.05255 0.54384 0.0
C95 C 0.66797 0.01589 0.57806 0.0
C96 C 0.69175 0.04771 0.59123 0.0
C97 C 0.63581 0.01699 0.56839 0.0
C98 C 0.62679 0.04993 0.57167 0.0
C99 C 0.68215 0.08034 0.59457 0.0
C100 C 0.64973 0.08118 0.58497 0.0
C101 C 0.59306 0.05162 0.56148 0.0
C102 C 0.414 0.00802 0.57519 0.0
C103 C 0.42275 0.03111 0.59084 0.0
C104 C 0.44758 0.01415 0.56548 0.0
C105 C 0.49052 0.04444 0.571 0.0
C106 C 0.46566 0.06087 0.59648 0.0
C107 C 0.4992 0.06745 0.58665 0.0
C108 C 0.52664 0.0501 0.56116 0.0
C109 C 0.45081 0.08855 0.52818 0.0
C110 C 0.4333 0.06316 0.51296 0.0
C111 C 0.48121 0.08527 0.53819 0.0
C112 C 0.49402 0.05591 0.53332 0.0
C113 C 0.44658 0.03421 0.50803 0.0
C114 C 0.47673 0.03076 0.51808 0.0
C115 C 0.52683 0.05254 0.54357 0.0
H116 H 0.7351 0.10454 0.5325 0.0
H117 H 0.68037 0.10533 0.54906 0.0
H118 H 0.63545 0.0027 0.49874 0.0
H119 H 0.58077 0.00292 0.51553 0.0
H120 H 0.67376 0.98973 0.57535 0.0
H121 H 0.61782 0.99199 0.55839 0.0
H122 H 0.70007 0.10567 0.60445 0.0
H123 H 0.6431 0.10676 0.58773 0.0
H124 H 0.38125 0.9843 0.5707 0.0
H125 H 0.43992 0.99457 0.5538 0.0
H126 H 0.47327 0.07917 0.60848 0.0
H127 H 0.532 0.09057 0.59129 0.0
H128 H 0.44171 0.11163 0.53216 0.0
H129 H 0.49506 0.10607 0.54963 0.0
H130 H 0.43338 0.01393 0.49645 0.0
H131 H 0.48631 0.00811 0.514 0.0
N132 N 0.55943 0.05303 0.5356 0.0
N133 N 0.56014 0.05041 0.56943 0.0
C134 C 0.41858 0.39953 0.86763 0.0
C135 C 0.38808 0.40301 0.85763 0.0
C136 C 0.453 0.43627 0.87624 0.0
C137 C 0.45764 0.47713 0.87489 0.0
C138 C 0.39221 0.44375 0.85659 0.0
C139 C 0.42708 0.48065 0.865 0.0
C140 C 0.49619 0.51648 0.88262 0.0
C141 C 0.41629 0.44769 0.92529 0.0
C142 C 0.43616 0.43314 0.93648 0.0
C143 C 0.4397 0.47611 0.91322 0.0
C144 C 0.48338 0.49039 0.91206 0.0
C145 C 0.47995 0.44765 0.93526 0.0
C146 C 0.50334 0.4762 0.92327 0.0
C147 C 0.50919 0.52168 0.89981 0.0
C148 C 0.66124 0.70348 0.90843 0.0
C149 C 0.68774 0.69683 0.91958 0.0
C150 C 0.62454 0.66811 0.90016 0.0
C151 C 0.61371 0.62557 0.90298 0.0
C152 C 0.67698 0.65422 0.92224 0.0
C153 C 0.64013 0.61896 0.91413 0.0
C154 C 0.57361 0.58772 0.89525 0.0
C155 C 0.65819 0.6426 0.85259 0.0
C156 C 0.64146 0.65494 0.83926 0.0
C157 C 0.63248 0.61988 0.86538 0.0
C158 C 0.58966 0.6097 0.86533 0.0
C159 C 0.59863 0.64491 0.83926 0.0
C160 C 0.57294 0.62231 0.85212 0.0
C161 C 0.56106 0.58206 0.87797 0.0
H162 H 0.41599 0.36841 0.86864 0.0
H163 H 0.47669 0.43298 0.88356 0.0
H164 H 0.36927 0.44724 0.84883 0.0
H165 H 0.43043 0.51201 0.86367 0.0
H166 H 0.38283 0.43778 0.92606 0.0
H167 H 0.42386 0.48752 0.90501 0.0
H168 H 0.49614 0.43659 0.94347 0.0
H169 H 0.53705 0.48691 0.92264 0.0
H170 H 0.66885 0.736 0.90615 0.0
H171 H 0.60416 0.67397 0.89185 0.0
H172 H 0.69646 0.64812 0.93096 0.0
H173 H 0.63217 0.58641 0.91659 0.0
H174 H 0.69115 0.65016 0.85308 0.0
H175 H 0.64587 0.60923 0.87503 0.0
H176 H 0.58456 0.65343 0.82907 0.0
H177 H 0.53978 0.61417 0.85165 0.0
N178 N 0.52259 0.54681 0.87236 0.0
N179 N 0.54736 0.55713 0.90545 0.0
H180 H 0.05525 0.11773 0.10016 0.0
H181 H 0.03844 0.16362 0.11744 0.0
H182 H 0.02975 0.22513 0.07363 0.0
H183 H 0.04768 0.17989 0.05623 0.0
H184 H 0.07453 0.28413 0.09847 0.0
H185 H 0.93901 0.15127 0.09278 0.0
H186 H 0.88884 0.07258 0.0936 0.0
H187 H 0.92036 0.0813 0.14641 0.0
H188 H 0.97118 0.15997 0.14586 0.0
H189 H 0.98121 0.39111 0.14035 0.0
H190 H 0.9931 0.34406 0.12127 0.0
H191 H 0.0126 0.28402 0.16344 0.0
H192 H -0.00024 0.3303 0.18259 0.0
H193 H 0.95962 0.22427 0.13836 0.0
H194 H 0.09716 0.35748 0.14342 0.0
H195 H 0.14643 0.43622 0.14223 0.0
H196 H 0.10917 0.42655 0.08995 0.0
H197 H 0.0592 0.34779 0.09088 0.0
C198 C 0.0495 0.14079 0.09414 0.0
C199 C 0.05272 0.14506 0.07678 0.0
C200 C 0.03968 0.16692 0.10406 0.0
C201 C 0.03224 0.19747 0.09682 0.0
C202 C 0.03527 0.20172 0.07949 0.0
C203 C 0.04539 0.17575 0.06955 0.0
C204 C 0.02271 0.22584 0.10749 0.0
C205 C 0.04891 0.27099 0.10698 0.0
C206 C 0.98983 0.20879 0.11885 0.0
C207 C 0.95919 0.16148 0.11924 0.0
C208 C 0.93549 0.13636 0.10454 0.0
C209 C 0.90689 0.09176 0.10497 0.0
C210 C 0.90149 0.07194 0.12004 0.0
C211 C 0.92461 0.09669 0.13474 0.0
C212 C 0.95328 0.1413 0.13438 0.0
C213 C 0.98779 0.36771 0.14556 0.0
C214 C 0.98958 0.36445 0.16299 0.0
C215 C 0.99491 0.3411 0.13465 0.0
C216 C 0.00408 0.31078 0.14094 0.0
C217 C 0.00567 0.30727 0.15832 0.0
C218 C -0.00132 0.33398 0.16925 0.0
C219 C 0.01165 0.28242 0.12942 0.0
C220 C 0.98506 0.23731 0.12977 0.0
C221 C 0.04398 0.2995 0.11785 0.0
C222 C 0.07411 0.34682 0.11726 0.0
C223 C 0.09921 0.3722 0.1317 0.0
C224 C 0.12731 0.41683 0.13107 0.0
C225 C 0.13084 0.4364 0.11604 0.0
C226 C 0.10635 0.41136 0.10159 0.0
C227 C 0.07816 0.36672 0.10216 0.0
H228 H 0.15262 0.47095 0.11557 0.0
H229 H 0.87934 0.03741 0.12034 0.0
H230 H -0.00086 0.03714 0.44667 0.0
H231 H 0.94633 0.03854 0.46427 0.0
H232 H 0.88033 0.04946 0.42057 0.0
H233 H 0.93353 0.04909 0.40295 0.0
H234 H 0.88809 0.1046 0.44502 0.0
H235 H 0.84063 0.95331 0.44006 0.0
H236 H 0.84751 0.88899 0.4417 0.0
H237 H 0.881 0.9187 0.49458 0.0
H238 H 0.87488 0.98356 0.49322 0.0
H239 H 0.69186 0.05123 0.48029 0.0
H240 H 0.74604 0.0496 0.46358 0.0
H241 H 0.81634 0.05302 0.50879 0.0
H242 H 0.76192 0.05419 0.52561 0.0
H243 H 0.80725 0.9913 0.48427 0.0
H244 H 0.8526 0.14233 0.48881 0.0
H245 H 0.84361 0.20526 0.48669 0.0
H246 H 0.81156 0.17404 0.43379 0.0
H247 H 0.81977 0.11052 0.43563 0.0
C248 C 0.97329 0.03966 0.44079 0.0
C249 C 0.97054 0.04294 0.4234 0.0
C250 C 0.943 0.04029 0.45087 0.0
C251 C 0.90905 0.04365 0.44373 0.0
C252 C 0.90624 0.04687 0.42637 0.0
C253 C 0.93664 0.04652 0.4163 0.0
C254 C 0.87694 0.04472 0.45437 0.0
C255 C 0.87002 0.07949 0.45343 0.0
C256 C 0.85402 0.01252 0.46565 0.0
C257 C 0.85774 0.97355 0.46651 0.0
C258 C 0.84981 0.94633 0.45202 0.0
C259 C 0.85351 0.90974 0.4529 0.0
C260 C 0.8648 0.89984 0.46823 0.0
C261 C 0.87232 0.92645 0.48272 0.0
C262 C 0.86871 0.96311 0.4819 0.0
C263 C 0.71875 0.05143 0.48667 0.0
C264 C 0.7227 0.0529 0.50426 0.0
C265 C 0.7498 0.05078 0.47711 0.0
C266 C 0.78534 0.05151 0.48496 0.0
C267 C 0.78919 0.05255 0.50251 0.0
C268 C 0.75829 0.05353 0.51209 0.0
C269 C 0.81835 0.05097 0.47481 0.0
C270 C 0.82543 0.01637 0.47586 0.0
C271 C 0.84119 0.08314 0.46354 0.0
C272 C 0.8364 0.12142 0.46239 0.0
C273 C 0.84329 0.14867 0.47675 0.0
C274 C 0.8384 0.18449 0.47559 0.0
C275 C 0.82691 0.19358 0.46012 0.0
C276 C 0.82041 0.16693 0.44576 0.0
C277 C 0.82521 0.13103 0.44685 0.0
H278 H 0.82315 0.22133 0.45925 0.0
H279 H 0.86763 0.87148 0.46889 0.0
H280 H 0.94678 0.81724 0.74674 0.0
H281 H 0.87861 0.77269 0.75929 0.0
H282 H 0.83975 0.86345 0.74709 0.0
H283 H 0.9079 0.90822 0.73439 0.0
H284 H 0.83634 0.84808 0.78067 0.0
H285 H 0.78522 0.76473 0.72838 0.0
H286 H 0.78691 0.72357 0.70334 0.0
H287 H 0.78986 0.63078 0.73437 0.0
H288 H 0.78884 0.67173 0.75964 0.0
H289 H 0.64608 0.72216 0.82264 0.0
H290 H 0.69241 0.75985 0.80019 0.0
H291 H 0.74488 0.67654 0.80211 0.0
H292 H 0.69745 0.63758 0.82396 0.0
H293 H 0.73309 0.68998 0.77047 0.0
H294 H 0.79697 0.77871 0.82231 0.0
H295 H 0.79861 0.82015 0.84793 0.0
H296 H 0.77506 0.90301 0.81813 0.0
H297 H 0.77273 0.86165 0.79233 0.0
C298 C 0.92337 0.82728 0.74639 0.0
C299 C 0.93289 0.86643 0.73968 0.0
C300 C 0.88433 0.80166 0.75351 0.0
C301 C 0.85414 0.81478 0.75411 0.0
C302 C 0.86264 0.85277 0.74672 0.0
C303 C 0.90153 0.8782 0.73942 0.0
C304 C 0.81622 0.79132 0.7641 0.0
C305 C 0.81308 0.81372 0.7782 0.0
C306 C 0.78663 0.74632 0.76109 0.0
C307 C 0.78724 0.72151 0.74593 0.0
C308 C 0.78659 0.73575 0.72988 0.0
C309 C 0.78735 0.71241 0.71564 0.0
C310 C 0.78857 0.67462 0.71726 0.0
C311 C 0.78894 0.66006 0.73313 0.0
C312 C 0.7882 0.6833 0.74742 0.0
C313 C 0.66702 0.71145 0.81811 0.0
C314 C 0.66842 0.67718 0.82525 0.0
C315 C 0.6937 0.73323 0.80536 0.0
C316 C 0.72254 0.72139 0.79963 0.0
C317 C 0.72299 0.68633 0.80636 0.0
C318 C 0.69623 0.66445 0.81902 0.0
C319 C 0.7538 0.7466 0.78721 0.0
C320 C 0.75579 0.72452 0.77271 0.0
C321 C 0.78271 0.79188 0.78993 0.0
C322 C 0.78413 0.81677 0.80542 0.0
C323 C 0.79179 0.80555 0.82124 0.0
C324 C 0.79291 0.82905 0.83579 0.0
C325 C 0.78679 0.8641 0.83467 0.0
C326 C 0.77968 0.87579 0.81898 0.0
C327 C 0.77848 0.85234 0.80439 0.0
H328 H 0.78768 0.88227 0.84595 0.0
H329 H 0.78915 0.65659 0.70622 0.0
H330 H 0.05452 0.98676 0.1062 0.0
H331 H 0.03224 0.93772 0.1289 0.0
H332 H 0.12334 0.9005 0.11585 0.0
H333 H 0.14567 0.94917 0.09312 0.0
H334 H 0.9952 0.84977 0.12359 0.0
H335 H 0.15659 0.87325 0.15137 0.0
H336 H 0.2315 0.93269 0.15794 0.0
H337 H 0.18983 0.02432 0.16221 0.0
H338 H 0.11462 0.96539 0.15591 0.0
H339 H 0.97952 0.66195 0.1542 0.0
H340 H 0.0006 0.72854 0.14051 0.0
H341 H 0.01853 0.79664 0.1885 0.0
H342 H 0.99578 0.72966 0.20237 0.0
H343 H 0.0881 0.84006 0.16802 0.0
H344 H 0.93604 0.77669 0.16507 0.0
H345 H 0.86035 0.71844 0.15926 0.0
H346 H 0.88158 0.71034 0.10716 0.0
H347 H 0.9576 0.76811 0.1127 0.0
C348 C 0.07049 0.96885 0.10839 0.0
C349 C 0.10167 0.97162 0.09778 0.0
C350 C 0.05758 0.94074 0.12132 0.0
C351 C 0.07614 0.91553 0.12405 0.0
C352 C 0.10888 0.91997 0.11406 0.0
C353 C 0.12149 0.9477 0.10103 0.0
C354 C 0.05854 0.88137 0.13612 0.0
C355 C 0.01541 0.84787 0.13341 0.0
C356 C 0.08479 0.87925 0.14908 0.0
C357 C 0.12995 0.91488 0.15303 0.0
C358 C 0.16336 0.90604 0.15379 0.0
C359 C 0.2059 0.93966 0.15745 0.0
C360 C 0.21543 0.98227 0.16045 0.0
C361 C 0.18243 0.99133 0.15983 0.0
C362 C 0.13984 0.95783 0.15618 0.0
C363 C 0.98702 0.69074 0.16188 0.0
C364 C 0.9858 0.69024 0.17942 0.0
C365 C -0.00063 0.72889 0.15401 0.0
C366 C 0.01098 0.7674 0.16351 0.0
C367 C 0.00981 0.76722 0.18098 0.0
C368 C 0.99698 0.72892 0.18887 0.0
C369 C 0.0253 0.80793 0.15505 0.0
C370 C 0.06778 0.84242 0.15838 0.0
C371 C -0.00161 0.81119 0.14275 0.0
C372 C 0.95262 0.77656 0.13933 0.0
C373 C 0.92466 0.76227 0.15239 0.0
C374 C 0.88167 0.72937 0.14914 0.0
C375 C 0.86618 0.71065 0.13286 0.0
C376 C 0.89363 0.72486 0.11978 0.0
C377 C 0.93666 0.75772 0.12296 0.0
H378 H 0.83289 0.68518 0.13037 0.0
H379 H 0.24838 0.00824 0.16328 0.0
H380 H 0.12707 0.0752 0.42742 0.0
H381 H 0.17534 0.07557 0.44975 0.0
H382 H 0.26353 0.08557 0.41316 0.0
H383 H 0.21591 0.08527 0.39089 0.0
H384 H 0.24283 0.01933 0.43388 0.0
H385 H 0.28736 0.17136 0.4388 0.0
H386 H 0.27573 0.23259 0.44303 0.0
H387 H 0.22901 0.19088 0.49132 0.0
H388 H 0.23984 0.12902 0.48727 0.0
H389 H 0.43197 0.06819 0.47908 0.0
H390 H 0.37884 0.07192 0.46086 0.0
H391 H 0.31037 0.0712 0.50383 0.0
H392 H 0.36384 0.06773 0.52222 0.0
H393 H 0.31401 0.12837 0.48222 0.0
H394 H 0.27304 0.97975 0.47868 0.0
H395 H 0.28297 0.91731 0.47497 0.0
H396 H 0.31914 0.94962 0.42478 0.0
H397 H 0.31006 0.01267 0.42828 0.0
C398 C 0.15697 0.07795 0.42416 0.0
C399 C 0.1675 0.08 0.40734 0.0
C400 C 0.18451 0.07823 0.43694 0.0
C401 C 0.22293 0.08051 0.43308 0.0
C402 C 0.23393 0.0836 0.41638 0.0
C403 C 0.20666 0.08356 0.40367 0.0
C404 C 0.25104 0.07763 0.44618 0.0
C405 C 0.25871 0.04338 0.44438 0.0
C406 C 0.27036 0.10808 0.4602 0.0
C407 C 0.26393 0.14528 0.46265 0.0
C408 C 0.27424 0.17501 0.45025 0.0
C409 C 0.26787 0.20988 0.45264 0.0
C410 C 0.25151 0.21554 0.46741 0.0
C411 C 0.2416 0.18641 0.47987 0.0
C412 C 0.24787 0.15146 0.47754 0.0
C413 C 0.4055 0.06861 0.48465 0.0
C414 C 0.4018 0.06717 0.50205 0.0
C415 C 0.37518 0.0708 0.47423 0.0
C416 C 0.3402 0.07106 0.48095 0.0
C417 C 0.33703 0.0709 0.49838 0.0
C418 C 0.36759 0.06895 0.50886 0.0
C419 C 0.30679 0.07074 0.46963 0.0
C420 C 0.29788 0.10412 0.47181 0.0
C421 C 0.28589 0.03921 0.456 0.0
C422 C 0.29118 0.00116 0.4538 0.0
C423 C 0.28341 0.97374 0.46689 0.0
C424 C 0.28885 0.9382 0.46482 0.0
C425 C 0.30176 0.92955 0.44966 0.0
C426 C 0.30917 0.95638 0.43652 0.0
C427 C 0.30384 0.99199 0.43854 0.0
H428 H 0.30595 0.90202 0.44808 0.0
H429 H 0.24661 0.24257 0.46924 0.0
H430 H 0.10159 0.03044 0.78496 0.0
H431 H 0.1429 0.09349 0.80485 0.0
H432 H 0.17634 0.17768 0.76411 0.0
H433 H 0.13266 0.11464 0.74436 0.0
H434 H 0.22097 0.14512 0.80874 0.0
H435 H 0.20471 0.27889 0.77668 0.0
H436 H 0.14973 0.28561 0.76042 0.0
H437 H 0.04982 0.17341 0.78186 0.0
H438 H 0.10416 0.16635 0.79841 0.0
H439 H 0.39641 0.34763 0.83634 0.0
H440 H 0.33962 0.28415 0.81963 0.0
H441 H 0.24455 0.30752 0.84003 0.0
H442 H 0.30185 0.37238 0.85626 0.0
H443 H 0.22347 0.28392 0.80879 0.0
H444 H 0.26137 0.22591 0.85367 0.0
H445 H 0.30896 0.21585 0.87326 0.0
H446 H 0.35099 0.16965 0.83222 0.0
H447 H 0.30409 0.18001 0.81234 0.0
C448 C 0.11721 0.06251 0.78032 0.0
C449 C 0.11397 0.06777 0.76315 0.0
C450 C 0.14093 0.09855 0.79168 0.0
C451 C 0.16271 0.14058 0.78607 0.0
C452 C 0.15906 0.14583 0.76888 0.0
C453 C 0.13431 0.10977 0.75756 0.0
C454 C 0.19162 0.17839 0.79802 0.0
C455 C 0.22119 0.17531 0.80878 0.0
C456 C 0.1915 0.21765 0.79847 0.0
C457 C 0.15857 0.22189 0.78867 0.0
C458 C 0.17101 0.25577 0.77798 0.0
C459 C 0.13996 0.25961 0.7687 0.0
C460 C 0.09632 0.22988 0.77007 0.0
C461 C 0.08363 0.19632 0.78076 0.0
C462 C 0.11455 0.19235 0.79008 0.0
C463 C 0.36335 0.33905 0.83728 0.0
C464 C 0.35334 0.36451 0.84767 0.0
C465 C 0.33089 0.30273 0.82778 0.0
C466 C 0.28764 0.29042 0.82883 0.0
C467 C 0.27763 0.31625 0.83904 0.0
C468 C 0.31028 0.35316 0.84833 0.0
C469 C 0.25312 0.25067 0.81917 0.0
C470 C 0.22273 0.25347 0.80883 0.0
C471 C 0.25123 0.21052 0.8196 0.0
C472 C 0.27942 0.20405 0.8315 0.0
C473 C 0.28097 0.21388 0.84881 0.0
C474 C 0.3078 0.20808 0.85996 0.0
C475 C 0.33304 0.1922 0.85398 0.0
C476 C 0.33143 0.18198 0.83683 0.0
C477 C 0.30469 0.18775 0.82562 0.0
H478 H 0.35379 0.18774 0.86264 0.0
H479 H 0.07233 0.2329 0.76287 0.0
H480 H 0.97707 0.97923 0.65535 0.0
H481 H 0.92951 0.99568 0.63919 0.0
H482 H 0.91241 0.05472 0.68387 0.0
H483 H 0.96015 0.03854 0.70016 0.0
H484 H 0.83547 0.99403 0.66639 0.0
H485 H 0.97017 0.11782 0.65479 0.0
H486 H 0.04419 0.15609 0.64579 0.0
H487 H -0.00129 0.08966 0.59689 0.0
H488 H 0.92444 0.0505 0.60567 0.0
H489 H 0.71231 0.0675 0.62507 0.0
H490 H 0.76847 0.06543 0.64184 0.0
H491 H 0.80392 0.02131 0.59777 0.0
H492 H 0.74952 0.02582 0.58071 0.0
H493 H 0.87346 0.07832 0.6159 0.0
H494 H 0.74097 0.95104 0.62729 0.0
H495 H 0.66652 0.90975 0.63575 0.0
H496 H 0.70713 0.97866 0.6843 0.0
H497 H 0.78178 0.02079 0.67605 0.0
C498 C 0.96358 0.99613 0.66172 0.0
C499 C 0.97231 0.00749 0.67905 0.0
C500 C 0.93653 0.00565 0.65245 0.0
C501 C 0.91758 0.02656 0.66033 0.0
C502 C 0.92678 0.03861 0.67757 0.0
C503 C 0.95417 0.02947 0.68683 0.0
C504 C 0.88631 0.03357 0.65073 0.0
C505 C 0.84391 0.01311 0.65552 0.0
C506 C 0.89713 0.05737 0.63627 0.0
C507 C 0.94176 0.08093 0.63095 0.0
C508 C 0.97598 0.11109 0.64216 0.0
C509 C 0.01798 0.133 0.63709 0.0
C510 C 0.02616 0.12523 0.62079 0.0
C511 C 0.99233 0.09561 0.60952 0.0
C512 C 0.95027 0.07358 0.61453 0.0
C513 C 0.73243 0.05799 0.61886 0.0
C514 C 0.72613 0.04662 0.60151 0.0
C515 C 0.76425 0.05631 0.62853 0.0
C516 C 0.78998 0.04248 0.62114 0.0
C517 C 0.78433 0.03186 0.60379 0.0
C518 C 0.75282 0.03396 0.59407 0.0
C519 C 0.82243 0.03856 0.6315 0.0
C520 C 0.86503 0.0595 0.62683 0.0
C521 C 0.8117 0.01474 0.64598 0.0
C522 C 0.76687 0.98938 0.65099 0.0
C523 C 0.73396 0.95761 0.63973 0.0
C524 C 0.69174 0.93402 0.64449 0.0
C525 C 0.68208 0.94166 0.66054 0.0
C526 C 0.71465 0.97283 0.67187 0.0
C527 C 0.75693 0.99655 0.66716 0.0
H528 H 0.64937 0.92336 0.6642 0.0
H529 H 0.0587 0.14224 0.61689 0.0
H530 H 0.03474 0.9294 0.00742 0.0
H531 H 0.97378 0.8881 0.98704 0.0
H532 H 0.91217 0.95346 0.00734 0.0
H533 H 0.97316 0.99485 0.02807 0.0
H534 H 0.85702 0.86702 0.00263 0.0
H535 H 0.95539 0.97827 0.9697 0.0
H536 H 0.02485 0.02588 0.95788 0.0
H537 H 0.02026 0.91496 0.9336 0.0
H538 H 0.95104 0.86659 0.94547 0.0
H539 H 0.69228 0.76679 0.93637 0.0
H540 H 0.75324 0.82457 0.95399 0.0
H541 H 0.82911 0.76775 0.94191 0.0
H542 H 0.76847 0.71018 0.92418 0.0
H543 H 0.87513 0.85776 0.94173 0.0
H544 H 0.78175 0.74706 0.97741 0.0
H545 H 0.71275 0.69893 0.98946 0.0
H546 H 0.70858 0.80966 0.00862 0.0
H547 H 0.77733 0.85845 0.99645 0.0
C548 C 0.00838 0.93525 0.00756 0.0
C549 C 0.0089 0.96553 0.01939 0.0
C550 C 0.97362 0.91174 0.99581 0.0
C551 C 0.93871 0.91815 0.99551 0.0
C552 C 0.93892 0.9482 0.00731 0.0
C553 C 0.97381 0.97184 0.01912 0.0
C554 C 0.90144 0.89204 0.98323 0.0
C555 C 0.8608 0.86574 0.98927 0.0
C556 C 0.90655 0.88979 0.96583 0.0
C557 C 0.94812 0.91877 0.95858 0.0
C558 C 0.96933 0.96399 0.96194 0.0
C559 C 0.00864 0.99113 0.95521 0.0
C560 C 0.02699 0.97345 0.94502 0.0
C561 C 0.00601 0.9286 0.9415 0.0
C562 C 0.9667 0.90131 0.94821 0.0
C563 C 0.72221 0.76708 0.93726 0.0
C564 C 0.72564 0.73391 0.92899 0.0
C565 C 0.75686 0.7999 0.94739 0.0
C566 C 0.79549 0.80014 0.94935 0.0
C567 C 0.79954 0.76808 0.94056 0.0
C568 C 0.76484 0.7351 0.93055 0.0
C569 C 0.83106 0.83241 0.96119 0.0
C570 C 0.87132 0.85972 0.95506 0.0
C571 C 0.82563 0.83564 0.9785 0.0
C572 C 0.78437 0.80637 0.98584 0.0
C573 C 0.76592 0.76113 0.98406 0.0
C574 C 0.7269 0.73373 0.99093 0.0
C575 C 0.70622 0.75122 -0.00025 0.0
C576 C 0.72459 0.79615 0.00175 0.0
C577 C 0.76358 0.82369 0.99487 0.0
H578 H 0.67603 0.72996 0.00508 0.0
H579 H 0.05744 0.99452 0.93983 0.0
H580 H 0.9707 0.90875 0.37093 0.0
H581 H 0.9296 0.8341 0.35795 0.0
H582 H 0.97838 0.88142 0.3102 0.0
H583 H 0.01994 0.9553 0.32306 0.0
H584 H 0.88762 0.81386 0.30895 0.0
H585 H 0.03071 0.85019 0.33245 0.0
H586 H 0.08491 0.87209 0.3561 0.0
H587 H 0.99498 0.76347 0.38227 0.0
H588 H 0.94008 0.7413 0.35882 0.0
H589 H 0.9198 0.68157 0.25344 0.0
H590 H 0.91766 0.73457 0.27265 0.0
H591 H 0.88843 0.64884 0.31265 0.0
H592 H 0.89183 0.59607 0.29345 0.0
H593 H 0.94975 0.7239 0.32325 0.0
H594 H 0.81397 0.6756 0.29633 0.0
H595 H 0.75851 0.65242 0.27311 0.0
H596 H 0.82795 0.77898 0.25444 0.0
H597 H 0.88421 0.8028 0.27739 0.0
C598 C 0.97201 0.90312 0.35762 0.0
C599 C -0.00121 0.93758 0.34801 0.0
C600 C 0.94856 0.86064 0.35025 0.0
C601 C 0.95103 0.85246 0.33314 0.0
C602 C 0.97589 0.88717 0.3234 0.0
C603 C -0.00012 0.92927 0.33079 0.0
C604 C 0.93195 0.80784 0.32548 0.0
C605 C 0.90079 0.79382 0.31207 0.0
C606 C 0.94814 0.78125 0.33002 0.0
C607 C 0.98119 0.79446 0.34402 0.0
C608 C 0.02242 0.83122 0.34331 0.0
C609 C 0.05327 0.84363 0.35666 0.0
C610 C 0.04335 0.81927 0.3707 0.0
C611 C 0.00259 0.78237 0.3714 0.0
C612 C 0.9716 0.76987 0.35809 0.0
C613 C 0.91196 0.67362 0.26623 0.0
C614 C 0.90607 0.63481 0.27198 0.0
C615 C 0.91049 0.70385 0.27721 0.0
C616 C 0.90223 0.69553 0.29409 0.0
C617 C 0.89476 0.65598 0.29969 0.0
C618 C 0.89679 0.62594 0.28875 0.0
C619 C 0.90636 0.73023 0.30611 0.0
C620 C 0.93498 0.74265 0.32035 0.0
C621 C 0.88726 0.75494 0.30244 0.0
C622 C 0.85344 0.74095 0.28859 0.0
C623 C 0.81758 0.69844 0.28722 0.0
C624 C 0.78597 0.68519 0.27411 0.0
C625 C 0.78972 0.7142 0.26231 0.0
C626 C 0.82507 0.75655 0.26361 0.0
C627 C 0.8568 0.76998 0.27669 0.0
H628 H 0.76521 0.70387 0.25216 0.0
H629 H 0.06727 0.82892 0.38103 0.0
H630 H 0.09829 0.98002 0.6725 0.0
H631 H 0.14947 0.9908 0.65138 0.0
H632 H 0.21706 0.95386 0.68579 0.0
H633 H 0.16613 0.94257 0.70683 0.0
H634 H 0.26965 0.03416 0.67161 0.0
H635 H 0.15912 0.8858 0.65446 0.0
H636 H 0.08532 0.82763 0.6452 0.0
H637 H 0.08864 0.89537 0.60189 0.0
H638 H 0.1623 0.95427 0.61104 0.0
H639 H 0.41745 0.01561 0.6239 0.0
H640 H 0.35928 0.00242 0.64163 0.0
H641 H 0.29012 0.01613 0.59969 0.0
H642 H 0.34794 0.02803 0.58175 0.0
H643 H 0.23609 0.95187 0.61635 0.0
H644 H 0.34508 0.09813 0.63166 0.0
H645 H 0.41786 0.15934 0.64031 0.0
H646 H 0.41638 0.10133 0.68623 0.0
H647 H 0.34381 0.03943 0.67774 0.0
C648 C 0.12375 0.97369 0.67549 0.0
C649 C 0.12818 0.96055 0.69138 0.0
C650 C 0.15288 0.97981 0.66341 0.0
C651 C 0.18703 0.9732 0.66708 0.0
C652 C 0.19096 0.95922 0.68276 0.0
C653 C 0.16168 0.95263 0.69474 0.0
C654 C 0.22009 0.9828 0.65497 0.0
C655 C 0.26248 0.01592 0.65959 0.0
C656 C 0.21024 0.96012 0.63904 0.0
C657 C 0.16602 0.92467 0.63354 0.0
C658 C 0.14397 0.88849 0.64305 0.0
C659 C 0.1022 0.85534 0.6378 0.0
C660 C 0.08225 0.85786 0.62299 0.0
C661 C 0.1041 0.89349 0.61338 0.0
C662 C 0.14587 0.92675 0.61858 0.0
C663 C 0.38994 0.01604 0.6185 0.0
C664 C 0.38733 0.02322 0.60151 0.0
C665 C 0.35673 0.0086 0.62864 0.0
C666 C 0.32064 0.00915 0.6221 0.0
C667 C 0.31767 0.01568 0.60504 0.0
C668 C 0.35068 0.02252 0.59482 0.0
C669 C 0.28612 0.00273 0.63313 0.0
C670 C 0.24339 0.97039 0.62831 0.0
C671 C 0.2955 0.02669 0.64879 0.0
C672 C 0.33912 0.06396 0.65399 0.0
C673 C 0.36039 0.09827 0.64355 0.0
C674 C 0.40159 0.13311 0.64843 0.0
C675 C 0.42177 0.13418 0.6638 0.0
C676 C 0.40073 0.10044 0.67433 0.0
C677 C 0.35954 0.06549 0.66949 0.0
H678 H 0.45367 0.16118 0.66755 0.0
H679 H 0.04992 0.83216 0.61895 0.0
H680 H 0.25615 0.12025 0.03378 0.0
H681 H 0.30576 0.18147 0.01833 0.0
H682 H 0.2279 0.23885 0.02472 0.0
H683 H 0.17869 0.17821 0.04057 0.0
H684 H 0.28832 0.20088 0.98949 0.0
H685 H 0.28811 0.34797 0.02197 0.0
H686 H 0.28493 0.37497 0.05039 0.0
H687 H 0.33744 0.30336 0.0717 0.0
H688 H 0.34148 0.2764 0.04341 0.0
H689 H 0.35316 0.36425 0.93318 0.0
H690 H 0.31359 0.31334 0.95408 0.0
H691 H 0.42398 0.3812 0.98953 0.0
H692 H 0.46307 0.43359 0.96899 0.0
H693 H 0.35314 0.35792 0.00499 0.0
H694 H 0.40123 0.28729 0.96739 0.0
H695 H 0.41046 0.2608 0.93987 0.0
H696 H 0.27354 0.17969 0.93091 0.0
H697 H 0.26348 0.20615 0.95829 0.0
C698 C 0.25003 0.14632 0.0322 0.0
C699 C 0.21333 0.14424 0.03833 0.0
C700 C 0.27835 0.18124 0.02331 0.0
C701 C 0.27057 0.21475 0.02032 0.0
C702 C 0.23496 0.21371 0.02705 0.0
C703 C 0.20676 0.17893 0.03609 0.0
C704 C 0.29755 0.24864 0.00898 0.0
C705 C 0.3026 0.23522 0.99294 0.0
C706 C 0.31663 0.29348 0.01349 0.0
C707 C 0.31469 0.30984 0.03056 0.0
C708 C 0.29913 0.33812 0.03272 0.0
C709 C 0.29715 0.35339 0.04881 0.0
C710 C 0.31084 0.34078 0.06284 0.0
C711 C 0.32668 0.31297 0.06082 0.0
C712 C 0.32875 0.29762 0.04476 0.0
C713 C 0.36884 0.36882 0.94551 0.0
C714 C 0.41146 0.40287 0.94934 0.0
C715 C 0.3463 0.3394 0.95739 0.0
C716 C 0.36608 0.34302 0.97328 0.0
C717 C 0.40815 0.37763 0.97732 0.0
C718 C 0.43062 0.40726 0.96548 0.0
C719 C 0.34332 0.31001 0.9855 0.0
C720 C 0.33895 0.32357 0.00163 0.0
C721 C 0.32566 0.26526 0.98124 0.0
C722 C 0.33161 0.24899 0.96483 0.0
C723 C 0.37309 0.26401 0.9595 0.0
C724 C 0.37847 0.24898 0.94394 0.0
C725 C 0.34261 0.21866 0.93363 0.0
C726 C 0.30129 0.20321 0.9389 0.0
C727 C 0.29573 0.21818 0.95445 0.0
H728 H 0.34684 0.20707 0.92158 0.0
H729 H 0.30927 0.35263 0.07529 0.0
H730 H 0.1033 0.15717 0.32486 0.0
H731 H 0.08388 0.201 0.3088 0.0
H732 H 0.01036 0.20604 0.349 0.0
H733 H 0.02829 0.16029 0.36495 0.0
H734 H 0.96561 0.18903 0.32102 0.0
H735 H 0.10938 0.29638 0.33951 0.0
H736 H 0.18757 0.32873 0.3447 0.0
H737 H 0.20063 0.32 0.29181 0.0
H738 H 0.12242 0.28704 0.28631 0.0
H739 H 0.94811 0.36075 0.28651 0.0
H740 H 0.96544 0.31733 0.30427 0.0
H741 H 0.01301 0.28078 0.26197 0.0
H742 H 0.99522 0.32387 0.24408 0.0
H743 H 0.07076 0.31633 0.29194 0.0
H744 H 0.92386 0.20725 0.27454 0.0
H745 H 0.846 0.17849 0.27061 0.0
H746 H 0.84024 0.19615 0.32364 0.0
H747 H 0.91824 0.22563 0.32786 0.0
C748 C 0.08347 0.16804 0.33043 0.0
C749 C 0.06741 0.1553 0.34622 0.0
C750 C 0.07252 0.19334 0.32123 0.0
C751 C 0.04613 0.20743 0.32776 0.0
C752 C 0.0308 0.19559 0.3437 0.0
C753 C 0.04122 0.16963 0.35284 0.0
C754 C 0.0328 0.23244 0.31749 0.0
C755 C 0.98875 0.21733 0.31492 0.0
C756 C 0.06283 0.26899 0.30927 0.0
C757 C 0.10995 0.28889 0.31251 0.0
C758 C 0.12887 0.30106 0.32899 0.0
C759 C 0.17321 0.31956 0.33199 0.0
C760 C 0.19904 0.32633 0.3186 0.0
C761 C 0.18058 0.3147 0.30218 0.0
C762 C 0.13625 0.29616 0.29911 0.0
C763 C 0.96177 0.34297 0.28099 0.0
C764 C 0.97037 0.3455 0.26397 0.0
C765 C 0.97156 0.31821 0.29111 0.0
C766 C 0.99048 0.29597 0.2844 0.0
C767 C -0.00162 0.29778 0.26733 0.0
C768 C 0.98798 0.32205 0.25713 0.0
C769 C 0.00385 0.27253 0.29542 0.0
C770 C 0.04785 0.28809 0.29814 0.0
C771 C 0.9739 0.23696 0.304 0.0
C772 C 0.92697 0.21906 0.30149 0.0
C773 C 0.90607 0.20537 0.28534 0.0
C774 C 0.86189 0.18886 0.28307 0.0
C775 C 0.83821 0.1856 0.29686 0.0
C776 C 0.85864 0.19874 0.31296 0.0
C777 C 0.90282 0.21532 0.3153 0.0
H778 H 0.80401 0.17281 0.29507 0.0
H779 H 0.23336 0.34065 0.32095 0.0
loop_
_geom_bond_atom_site_label_1
_geom_bond_atom_site_label_2
_geom_bond_distance
_geom_bond_site_symmetry_2
_ccdc_geom_bond_type
Zn0 O3 2.031 1_545 S
Zn0 O5 2.049 . S
Zn0 O10 2.067 1_545 S
Zn1 O2 1.962 . S
Zn1 O4 1.986 . S
Zn1 O6 1.996 . S
Zn1 O9 1.943 . S
O2 Zn1 1.962 . S
O2 C7 1.254 1_545 S
O3 Zn0 2.031 1_565 S
O3 C7 1.269 . S
O4 Zn1 1.986 . S
O4 C11 1.262 . S
O5 Zn0 2.049 . S
O5 C13 1.260 . S
O6 Zn1 1.996 . S
O6 C13 1.257 . S
C7 O2 1.254 1_565 S
C7 O3 1.269 . S
C8 O9 1.261 . S
C8 O10 1.261 1_545 S
O9 Zn1 1.943 . S
O9 C8 1.261 . S
O10 Zn0 2.067 1_565 S
O10 C8 1.261 1_565 S
C11 O4 1.262 . S
C11 O12 1.232 . S
O12 C11 1.232 . S
C13 O5 1.260 . S
C13 O6 1.257 . S
Zn14 O17 2.031 . S
Zn14 O19 2.049 . S
Zn14 O24 2.067 . S
Zn15 O16 1.962 . S
Zn15 O18 1.986 1_455 S
Zn15 O20 1.996 . S
Zn15 O23 1.943 1_455 S
O16 Zn15 1.962 . S
O16 C21 1.254 . S
O17 Zn14 2.031 . S
O17 C21 1.269 . S
O18 Zn15 1.986 1_655 S
O18 C25 1.262 . S
O19 Zn14 2.049 . S
O19 C27 1.260 . S
O20 Zn15 1.996 . S
O20 C27 1.257 . S
C21 O16 1.254 . S
C21 O17 1.269 . S
C22 O23 1.249 1_455 S
C22 O24 1.270 . S
O23 Zn15 1.943 1_655 S
O23 C22 1.249 1_655 S
O24 Zn14 2.067 . S
O24 C22 1.270 . S
C25 O18 1.262 . S
C25 O26 1.232 . S
O26 C25 1.232 . S
C27 O19 1.260 . S
C27 O20 1.257 . S
Zn28 O31 2.031 1_565 S
Zn28 O33 2.049 . S
Zn28 O38 2.067 1_565 S
Zn29 O30 1.962 1_545 S
Zn29 O32 1.986 1_445 S
Zn29 O34 1.996 1_445 S
Zn29 O37 1.943 . S
O30 Zn29 1.962 1_565 S
O30 C35 1.254 . S
O31 Zn28 2.031 1_545 S
O31 C35 1.269 1_545 S
O32 Zn29 1.986 1_665 S
O32 C39 1.262 1_565 S
O33 Zn28 2.049 . S
O33 C41 1.260 1_455 S
O34 Zn29 1.996 1_665 S
O34 C41 1.257 . S
C35 O30 1.254 . S
C35 O31 1.269 1_565 S
C36 O37 1.249 . S
C36 O38 1.270 . S
O37 Zn29 1.943 . S
O37 C36 1.249 . S
O38 Zn28 2.067 1_545 S
O38 C36 1.270 . S
C39 O32 1.262 1_545 S
C39 O40 1.231 . S
O40 C39 1.231 . S
C41 O33 1.260 1_655 S
C41 O34 1.257 . S
C42 C43 1.384 . S
C42 C44 1.384 . S
C42 H70 0.931 1_455 S
C43 C42 1.384 . S
C43 C46 1.382 . S
C44 C42 1.384 . S
C44 C45 1.381 . S
C44 H71 0.930 1_455 S
C45 C44 1.381 . S
C45 C47 1.381 . S
C45 C48 1.487 . S
C46 C43 1.382 . S
C46 C47 1.387 . S
C46 H72 0.930 . S
C47 C45 1.381 . S
C47 C46 1.387 . S
C47 H73 0.931 . S
C48 C45 1.487 . S
C48 C55 1.399 . S
C48 N86 1.343 . S
C49 C50 1.384 . S
C49 C51 1.384 . S
C49 H74 0.931 . S
C50 C49 1.384 . S
C50 C53 1.382 . S
C51 C49 1.384 . S
C51 C52 1.381 . S
C51 H75 0.930 . S
C52 C51 1.381 . S
C52 C54 1.381 . S
C52 C55 1.487 . S
C53 C50 1.382 . S
C53 C54 1.387 . S
C53 H76 0.930 1_455 S
C54 C52 1.381 . S
C54 C53 1.387 . S
C54 H77 0.931 1_455 S
C55 C48 1.399 . S
C55 C52 1.487 . S
C55 N87 1.343 . S
C56 C57 1.384 . S
C56 C58 1.384 . S
C56 H78 0.931 . S
C57 C56 1.384 . S
C57 C60 1.382 . S
C58 C56 1.384 . S
C58 C59 1.381 . S
C58 H79 0.930 . S
C59 C58 1.381 . S
C59 C61 1.381 . S
C59 C62 1.487 . S
C60 C57 1.382 . S
C60 C61 1.387 . S
C60 H80 0.930 1_455 S
C61 C59 1.381 . S
C61 C60 1.387 . S
C61 H81 0.931 1_455 S
C62 C59 1.487 . S
C62 C69 1.399 . S
C62 N87 1.343 . S
C63 C64 1.384 . S
C63 C65 1.384 . S
C63 H82 0.931 1_455 S
C64 C63 1.384 . S
C64 C67 1.382 . S
C65 C63 1.384 . S
C65 C66 1.381 . S
C65 H83 0.930 1_455 S
C66 C65 1.381 . S
C66 C68 1.381 . S
C66 C69 1.487 . S
C67 C64 1.382 . S
C67 C68 1.387 . S
C67 H84 0.930 . S
C68 C66 1.381 . S
C68 C67 1.387 . S
C68 H85 0.931 . S
C69 C62 1.399 . S
C69 C66 1.487 . S
C69 N86 1.343 . S
H70 C42 0.931 1_655 S
H71 C44 0.930 1_655 S
H72 C46 0.930 . S
H73 C47 0.931 . S
H74 C49 0.931 . S
H75 C51 0.930 . S
H76 C53 0.930 1_655 S
H77 C54 0.931 1_655 S
H78 C56 0.931 . S
H79 C58 0.930 . S
H80 C60 0.930 1_655 S
H81 C61 0.931 1_655 S
H82 C63 0.931 1_655 S
H83 C65 0.930 1_655 S
H84 C67 0.930 . S
H85 C68 0.931 . S
N86 C48 1.343 . S
N86 C69 1.343 . S
N87 C55 1.343 . S
N87 C62 1.343 . S
C88 C89 1.384 . S
C88 C90 1.384 . S
C88 H116 0.931 . S
C89 C88 1.384 . S
C89 C92 1.382 . S
C90 C88 1.384 . S
C90 C91 1.381 . S
C90 H117 0.930 . S
C91 C90 1.381 . S
C91 C93 1.381 . S
C91 C94 1.487 . S
C92 C89 1.382 . S
C92 C93 1.387 . S
C92 H118 0.930 1_545 S
C93 C91 1.381 . S
C93 C92 1.387 . S
C93 H119 0.931 1_545 S
C94 C91 1.487 . S
C94 C101 1.399 . S
C94 N132 1.343 . S
C95 C96 1.381 1_565 S
C95 C97 1.380 1_565 S
C95 H120 0.939 . S
C96 C95 1.381 1_545 S
C96 C99 1.382 . S
C97 C95 1.380 1_545 S
C97 C98 1.381 . S
C97 H121 0.930 1_545 S
C98 C97 1.381 . S
C98 C100 1.381 . S
C98 C101 1.487 . S
C99 C96 1.382 . S
C99 C100 1.387 . S
C99 H122 0.930 . S
C100 C98 1.381 . S
C100 C99 1.387 . S
C100 H123 0.931 . S
C101 C94 1.399 . S
C101 C98 1.487 . S
C101 N133 1.343 . S
C102 C103 1.380 1_565 S
C102 C104 1.387 1_565 S
C102 H124 0.932 . S
C103 C102 1.380 1_545 S
C103 C106 1.382 . S
C104 C102 1.387 1_545 S
C104 C105 1.381 . S
C104 H125 0.930 1_545 S
C105 C104 1.381 . S
C105 C107 1.381 . S
C105 C108 1.487 . S
C106 C103 1.382 . S
C106 C107 1.387 . S
C106 H126 0.930 . S
C107 C105 1.381 . S
C107 C106 1.387 . S
C107 H127 0.931 . S
C108 C105 1.487 . S
C108 C115 1.399 . S
C108 N133 1.343 . S
C109 C110 1.384 . S
C109 C111 1.384 . S
C109 H128 0.931 . S
C110 C109 1.384 . S
C110 C113 1.382 . S
C111 C109 1.384 . S
C111 C112 1.381 . S
C111 H129 0.930 . S
C112 C111 1.381 . S
C112 C114 1.381 . S
C112 C115 1.487 . S
C113 C110 1.382 . S
C113 C114 1.387 . S
C113 H130 0.930 1_545 S
C114 C112 1.381 . S
C114 C113 1.387 . S
C114 H131 0.931 1_545 S
C115 C108 1.399 . S
C115 C112 1.487 . S
C115 N132 1.343 . S
H116 C88 0.931 . S
H117 C90 0.930 . S
H118 C92 0.930 1_565 S
H119 C93 0.931 1_565 S
H120 C95 0.939 . S
H121 C97 0.930 1_565 S
H122 C99 0.930 . S
H123 C100 0.931 . S
H124 C102 0.932 . S
H125 C104 0.930 1_565 S
H126 C106 0.930 . S
H127 C107 0.931 . S
H128 C109 0.931 . S
H129 C111 0.930 . S
H130 C113 0.930 1_565 S
H131 C114 0.931 1_565 S
N132 C94 1.343 . S
N132 C115 1.343 . S
N133 C101 1.343 . S
N133 C108 1.343 . S
C134 C135 1.384 . S
C134 C136 1.384 . S
C134 H162 0.931 . S
C135 C134 1.384 . S
C135 C138 1.382 . S
C136 C134 1.384 . S
C136 C137 1.381 . S
C136 H163 0.930 . S
C137 C136 1.381 . S
C137 C139 1.381 . S
C137 C140 1.487 . S
C138 C135 1.382 . S
C138 C139 1.387 . S
C138 H164 0.930 . S
C139 C137 1.381 . S
C139 C138 1.387 . S
C139 H165 0.931 . S
C140 C137 1.487 . S
C140 C147 1.399 . S
C140 N178 1.343 . S
C141 C142 1.384 . S
C141 C143 1.384 . S
C141 H166 0.931 . S
C142 C141 1.384 . S
C142 C145 1.382 . S
C143 C141 1.384 . S
C143 C144 1.381 . S
C143 H167 0.930 . S
C144 C143 1.381 . S
C144 C146 1.381 . S
C144 C147 1.487 . S
C145 C142 1.382 . S
C145 C146 1.387 . S
C145 H168 0.930 . S
C146 C144 1.381 . S
C146 C145 1.387 . S
C146 H169 0.931 . S
C147 C140 1.399 . S
C147 C144 1.487 . S
C147 N179 1.343 . S
C148 C149 1.384 . S
C148 C150 1.384 . S
C148 H170 0.931 . S
C149 C148 1.384 . S
C149 C152 1.382 . S
C150 C148 1.384 . S
C150 C151 1.381 . S
C150 H171 0.930 . S
C151 C150 1.381 . S
C151 C153 1.381 . S
C151 C154 1.487 . S
C152 C149 1.382 . S
C152 C153 1.387 . S
C152 H172 0.930 . S
C153 C151 1.381 . S
C153 C152 1.387 . S
C153 H173 0.931 . S
C154 C151 1.487 . S
C154 C161 1.399 . S
C154 N179 1.343 . S
C155 C156 1.384 . S
C155 C157 1.384 . S
C155 H174 0.931 . S
C156 C155 1.384 . S
C156 C159 1.382 . S
C157 C155 1.384 . S
C157 C158 1.381 . S
C157 H175 0.930 . S
C158 C157 1.381 . S
C158 C160 1.381 . S
C158 C161 1.487 . S
C159 C156 1.382 . S
C159 C160 1.387 . S
C159 H176 0.930 . S
C160 C158 1.381 . S
C160 C159 1.387 . S
C160 H177 0.931 . S
C161 C154 1.399 . S
C161 C158 1.487 . S
C161 N178 1.343 . S
H162 C134 0.931 . S
H163 C136 0.930 . S
H164 C138 0.930 . S
H165 C139 0.931 . S
H166 C141 0.931 . S
H167 C143 0.930 . S
H168 C145 0.930 . S
H169 C146 0.931 . S
H170 C148 0.931 . S
H171 C150 0.930 . S
H172 C152 0.930 . S
H173 C153 0.931 . S
H174 C155 0.931 . S
H175 C157 0.930 . S
H176 C159 0.930 . S
H177 C160 0.931 . S
N178 C140 1.343 . S
N178 C161 1.343 . S
N179 C147 1.343 . S
N179 C154 1.343 . S
H180 C198 0.951 . S
H181 C200 0.951 . S
H182 C202 0.950 1_655 S
H183 C203 0.950 1_655 S
H184 C205 0.950 . S
H185 C208 0.950 . S
H186 C209 0.950 . S
H187 C211 0.950 . S
H188 C212 0.950 . S
H189 C213 0.980 . S
H190 C215 0.951 . S
H191 C217 0.950 . S
H192 C218 0.950 . S
H193 C220 0.950 . S
H194 C223 0.950 . S
H195 C224 0.950 . S
H196 C226 0.950 . S
H197 C227 0.950 . S
C198 H180 0.951 . S
C198 C199 1.366 . S
C198 C200 1.388 . S
C199 C198 1.366 . S
C199 C203 1.385 . S
C200 H181 0.951 . S
C200 C198 1.388 . S
C200 C201 1.366 . S
C201 C200 1.366 . S
C201 C202 1.414 . S
C201 C204 1.499 . S
C202 H182 0.950 1_455 S
C202 C201 1.414 . S
C202 C203 1.374 . S
C203 H183 0.950 1_455 S
C203 C199 1.385 . S
C203 C202 1.374 . S
C204 C201 1.499 . S
C204 C205 1.373 . S
C204 C206 1.389 . S
C205 H184 0.950 . S
C205 C204 1.373 . S
C205 C221 1.377 . S
C206 C204 1.389 . S
C206 C207 1.524 . S
C206 C220 1.377 . S
C207 C206 1.524 . S
C207 C208 1.397 1_455 S
C207 C212 1.363 . S
C208 H185 0.950 . S
C208 C207 1.397 1_655 S
C208 C209 1.334 . S
C209 H186 0.950 . S
C209 C208 1.334 . S
C209 C210 1.287 1_655 S
C210 C209 1.287 1_455 S
C210 C211 1.524 . S
C210 H229 0.913 1_455 S
C211 H187 0.950 . S
C211 C210 1.524 . S
C211 C212 1.415 . S
C212 H188 0.950 . S
C212 C207 1.363 . S
C212 C211 1.415 . S
C213 H189 0.980 . S
C213 C214 1.366 . S
C213 C215 1.388 . S
C214 C213 1.366 . S
C214 C218 1.385 . S
C215 H190 0.951 . S
C215 C213 1.388 . S
C215 C216 1.366 . S
C216 C215 1.366 . S
C216 C217 1.414 . S
C216 C219 1.499 . S
C217 H191 0.950 . S
C217 C216 1.414 . S
C217 C218 1.374 . S
C218 H192 0.950 . S
C218 C214 1.385 . S
C218 C217 1.374 . S
C219 C216 1.499 . S
C219 C220 1.373 . S
C219 C221 1.389 . S
C220 H193 0.950 . S
C220 C206 1.377 . S
C220 C219 1.373 . S
C221 C205 1.377 . S
C221 C219 1.389 . S
C221 C222 1.524 . S
C222 C221 1.524 . S
C222 C223 1.397 . S
C222 C227 1.363 . S
C223 H194 0.950 . S
C223 C222 1.397 . S
C223 C224 1.334 . S
C224 H195 0.950 . S
C224 C223 1.334 . S
C224 C225 1.287 . S
C225 C224 1.287 . S
C225 C226 1.524 . S
C225 H228 0.999 . S
C226 H196 0.950 . S
C226 C225 1.524 . S
C226 C227 1.415 . S
C227 H197 0.950 . S
C227 C222 1.363 . S
C227 C226 1.415 . S
H228 C225 0.999 . S
H229 C210 0.913 1_655 S
H230 C248 0.951 . S
H231 C250 0.951 . S
H232 C252 0.950 . S
H233 C253 0.950 . S
H234 C255 0.950 . S
H235 C258 0.950 . S
H236 C259 0.950 . S
H237 C261 0.950 . S
H238 C262 0.950 . S
H239 C263 0.951 . S
H240 C265 0.951 . S
H241 C267 0.950 . S
H242 C268 0.950 . S
H243 C270 0.950 1_565 S
H244 C273 0.950 . S
H245 C274 0.950 . S
H246 C276 0.950 . S
H247 C277 0.950 . S
C248 H230 0.951 . S
C248 C249 1.366 . S
C248 C250 1.388 . S
C249 C248 1.366 . S
C249 C253 1.385 . S
C250 H231 0.951 . S
C250 C248 1.388 . S
C250 C251 1.366 . S
C251 C250 1.366 . S
C251 C252 1.414 . S
C251 C254 1.499 . S
C252 H232 0.950 . S
C252 C251 1.414 . S
C252 C253 1.374 . S
C253 H233 0.950 . S
C253 C249 1.385 . S
C253 C252 1.374 . S
C254 C251 1.499 . S
C254 C255 1.373 . S
C254 C256 1.389 . S
C255 H234 0.950 . S
C255 C254 1.373 . S
C255 C271 1.377 . S
C256 C254 1.389 . S
C256 C257 1.524 1_545 S
C256 C270 1.377 . S
C257 C256 1.524 1_565 S
C257 C258 1.397 . S
C257 C262 1.363 . S
C258 H235 0.950 . S
C258 C257 1.397 . S
C258 C259 1.334 . S
C259 H236 0.950 . S
C259 C258 1.334 . S
C259 C260 1.287 . S
C260 C259 1.287 . S
C260 C261 1.524 . S
C260 H279 0.913 . S
C261 H237 0.950 . S
C261 C260 1.524 . S
C261 C262 1.415 . S
C262 H238 0.950 . S
C262 C257 1.363 . S
C262 C261 1.415 . S
C263 H239 0.951 . S
C263 C264 1.366 . S
C263 C265 1.388 . S
C264 C263 1.366 . S
C264 C268 1.385 . S
C265 H240 0.951 . S
C265 C263 1.388 . S
C265 C266 1.366 . S
C266 C265 1.366 . S
C266 C267 1.414 . S
C266 C269 1.499 . S
C267 H241 0.950 . S
C267 C266 1.414 . S
C267 C268 1.374 . S
C268 H242 0.950 . S
C268 C264 1.385 . S
C268 C267 1.374 . S
C269 C266 1.499 . S
C269 C270 1.373 . S
C269 C271 1.389 . S
C270 H243 0.950 1_545 S
C270 C256 1.377 . S
C270 C269 1.373 . S
C271 C255 1.377 . S
C271 C269 1.389 . S
C271 C272 1.524 . S
C272 C271 1.524 . S
C272 C273 1.397 . S
C272 C277 1.363 . S
C273 H244 0.950 . S
C273 C272 1.397 . S
C273 C274 1.334 . S
C274 H245 0.950 . S
C274 C273 1.334 . S
C274 C275 1.287 . S
C275 C274 1.287 . S
C275 C276 1.524 . S
C275 H278 0.999 . S
C276 H246 0.950 . S
C276 C275 1.524 . S
C276 C277 1.415 . S
C277 H247 0.950 . S
C277 C272 1.363 . S
C277 C276 1.415 . S
H278 C275 0.999 . S
H279 C260 0.913 . S
H280 C298 0.951 . S
H281 C300 0.951 . S
H282 C302 0.950 . S
H283 C303 0.950 . S
H284 C305 0.950 . S
H285 C308 0.950 . S
H286 C309 0.950 . S
H287 C311 0.950 . S
H288 C312 0.950 . S
H289 C313 0.951 . S
H290 C315 0.951 . S
H291 C317 0.950 . S
H292 C318 0.950 . S
H293 C320 0.950 . S
H294 C323 0.950 . S
H295 C324 0.950 . S
H296 C326 0.950 . S
H297 C327 0.950 . S
C298 H280 0.951 . S
C298 C299 1.366 . S
C298 C300 1.388 . S
C299 C298 1.366 . S
C299 C303 1.385 . S
C300 H281 0.951 . S
C300 C298 1.388 . S
C300 C301 1.366 . S
C301 C300 1.366 . S
C301 C302 1.414 . S
C301 C304 1.499 . S
C302 H282 0.950 . S
C302 C301 1.414 . S
C302 C303 1.374 . S
C303 H283 0.950 . S
C303 C299 1.385 . S
C303 C302 1.374 . S
C304 C301 1.499 . S
C304 C305 1.373 . S
C304 C306 1.389 . S
C305 H284 0.950 . S
C305 C304 1.373 . S
C305 C321 1.377 . S
C306 C304 1.389 . S
C306 C307 1.524 . S
C306 C320 1.377 . S
C307 C306 1.524 . S
C307 C308 1.397 . S
C307 C312 1.363 . S
C308 H285 0.950 . S
C308 C307 1.397 . S
C308 C309 1.334 . S
C309 H286 0.950 . S
C309 C308 1.334 . S
C309 C310 1.287 . S
C310 C309 1.287 . S
C310 C311 1.524 . S
C310 H329 0.913 . S
C311 H287 0.950 . S
C311 C310 1.524 . S
C311 C312 1.415 . S
C312 H288 0.950 . S
C312 C307 1.363 . S
C312 C311 1.415 . S
C313 H289 0.951 . S
C313 C314 1.366 . S
C313 C315 1.388 . S
C314 C313 1.366 . S
C314 C318 1.385 . S
C315 H290 0.951 . S
C315 C313 1.388 . S
C315 C316 1.366 . S
C316 C315 1.366 . S
C316 C317 1.414 . S
C316 C319 1.499 . S
C317 H291 0.950 . S
C317 C316 1.414 . S
C317 C318 1.374 . S
C318 H292 0.950 . S
C318 C314 1.385 . S
C318 C317 1.374 . S
C319 C316 1.499 . S
C319 C320 1.373 . S
C319 C321 1.389 . S
C320 H293 0.950 . S
C320 C306 1.377 . S
C320 C319 1.373 . S
C321 C305 1.377 . S
C321 C319 1.389 . S
C321 C322 1.524 . S
C322 C321 1.524 . S
C322 C323 1.397 . S
C322 C327 1.363 . S
C323 H294 0.950 . S
C323 C322 1.397 . S
C323 C324 1.334 . S
C324 H295 0.950 . S
C324 C323 1.334 . S
C324 C325 1.287 . S
C325 C324 1.287 . S
C325 C326 1.524 . S
C325 H328 0.999 . S
C326 H296 0.950 . S
C326 C325 1.524 . S
C326 C327 1.415 . S
C327 H297 0.950 . S
C327 C322 1.363 . S
C327 C326 1.415 . S
H328 C325 0.999 . S
H329 C310 0.913 . S
H330 C348 0.951 1_545 S
H331 C350 0.951 . S
H332 C352 0.950 . S
H333 C353 0.950 . S
H334 C355 0.950 . S
H335 C358 0.950 . S
H336 C359 0.950 . S
H337 C361 0.950 1_545 S
H338 C362 0.950 . S
H339 C363 0.951 . S
H340 C365 0.951 . S
H341 C367 0.950 . S
H342 C368 0.950 . S
H343 C370 0.950 . S
H344 C373 0.950 . S
H345 C374 0.950 . S
H346 C376 0.950 . S
H347 C377 0.950 . S
C348 H330 0.951 1_565 S
C348 C349 1.366 . S
C348 C350 1.388 . S
C349 C348 1.366 . S
C349 C353 1.385 . S
C350 H331 0.951 . S
C350 C348 1.388 . S
C350 C351 1.366 . S
C351 C350 1.366 . S
C351 C352 1.414 . S
C351 C354 1.499 . S
C352 H332 0.950 . S
C352 C351 1.414 . S
C352 C353 1.374 . S
C353 H333 0.950 . S
C353 C349 1.385 . S
C353 C352 1.374 . S
C354 C351 1.499 . S
C354 C355 1.373 . S
C354 C356 1.389 . S
C355 H334 0.950 . S
C355 C354 1.373 . S
C355 C371 1.377 . S
C356 C354 1.389 . S
C356 C357 1.524 . S
C356 C370 1.377 . S
C357 C356 1.524 . S
C357 C358 1.397 . S
C357 C362 1.363 . S
C358 H335 0.950 . S
C358 C357 1.397 . S
C358 C359 1.334 . S
C359 H336 0.950 . S
C359 C358 1.334 . S
C359 C360 1.287 . S
C360 C359 1.287 . S
C360 C361 1.524 . S
C360 H379 0.913 1_565 S
C361 H337 0.950 1_565 S
C361 C360 1.524 . S
C361 C362 1.415 . S
C362 H338 0.950 . S
C362 C357 1.363 . S
C362 C361 1.415 . S
C363 H339 0.951 . S
C363 C364 1.366 . S
C363 C365 1.388 . S
C364 C363 1.366 . S
C364 C368 1.385 . S
C365 H340 0.951 . S
C365 C363 1.388 . S
C365 C366 1.366 . S
C366 C365 1.366 . S
C366 C367 1.414 . S
C366 C369 1.499 . S
C367 H341 0.950 . S
C367 C366 1.414 . S
C367 C368 1.374 . S
C368 H342 0.950 . S
C368 C364 1.385 . S
C368 C367 1.374 . S
C369 C366 1.499 . S
C369 C370 1.373 . S
C369 C371 1.389 . S
C370 H343 0.950 . S
C370 C356 1.377 . S
C370 C369 1.373 . S
C371 C355 1.377 . S
C371 C369 1.389 . S
C371 C372 1.524 1_455 S
C372 C371 1.524 1_655 S
C372 C373 1.397 . S
C372 C377 1.363 . S
C373 H344 0.950 . S
C373 C372 1.397 . S
C373 C374 1.334 . S
C374 H345 0.950 . S
C374 C373 1.334 . S
C374 C375 1.287 . S
C375 C374 1.287 . S
C375 C376 1.524 . S
C375 H378 0.999 . S
C376 H346 0.950 . S
C376 C375 1.524 . S
C376 C377 1.415 . S
C377 H347 0.950 . S
C377 C372 1.363 . S
C377 C376 1.415 . S
H378 C375 0.999 . S
H379 C360 0.913 1_545 S
H380 C398 0.951 . S
H381 C400 0.951 . S
H382 C402 0.950 . S
H383 C403 0.950 . S
H384 C405 0.950 . S
H385 C408 0.950 . S
H386 C409 0.950 . S
H387 C411 0.950 . S
H388 C412 0.950 . S
H389 C413 0.951 . S
H390 C415 0.951 . S
H391 C417 0.950 . S
H392 C418 0.950 . S
H393 C420 0.950 . S
H394 C423 0.950 . S
H395 C424 0.950 . S
H396 C426 0.950 . S
H397 C427 0.934 1_545 S
C398 H380 0.951 . S
C398 C399 1.366 . S
C398 C400 1.388 . S
C399 C398 1.366 . S
C399 C403 1.385 . S
C400 H381 0.951 . S
C400 C398 1.388 . S
C400 C401 1.366 . S
C401 C400 1.366 . S
C401 C402 1.414 . S
C401 C404 1.499 . S
C402 H382 0.950 . S
C402 C401 1.414 . S
C402 C403 1.374 . S
C403 H383 0.950 . S
C403 C399 1.385 . S
C403 C402 1.374 . S
C404 C401 1.499 . S
C404 C405 1.373 . S
C404 C406 1.389 . S
C405 H384 0.950 . S
C405 C404 1.373 . S
C405 C421 1.377 . S
C406 C404 1.389 . S
C406 C407 1.524 . S
C406 C420 1.377 . S
C407 C406 1.524 . S
C407 C408 1.397 . S
C407 C412 1.363 . S
C408 H385 0.950 . S
C408 C407 1.397 . S
C408 C409 1.334 . S
C409 H386 0.950 . S
C409 C408 1.334 . S
C409 C410 1.287 . S
C410 C409 1.287 . S
C410 C411 1.524 . S
C410 H429 0.913 . S
C411 H387 0.950 . S
C411 C410 1.524 . S
C411 C412 1.415 . S
C412 H388 0.950 . S
C412 C407 1.363 . S
C412 C411 1.415 . S
C413 H389 0.951 . S
C413 C414 1.366 . S
C413 C415 1.388 . S
C414 C413 1.366 . S
C414 C418 1.385 . S
C415 H390 0.951 . S
C415 C413 1.388 . S
C415 C416 1.366 . S
C416 C415 1.366 . S
C416 C417 1.414 . S
C416 C419 1.499 . S
C417 H391 0.950 . S
C417 C416 1.414 . S
C417 C418 1.374 . S
C418 H392 0.950 . S
C418 C414 1.385 . S
C418 C417 1.374 . S
C419 C416 1.499 . S
C419 C420 1.373 . S
C419 C421 1.389 . S
C420 H393 0.950 . S
C420 C406 1.377 . S
C420 C419 1.373 . S
C421 C405 1.377 . S
C421 C419 1.389 . S
C421 C422 1.524 1_545 S
C422 C421 1.524 1_565 S
C422 C423 1.397 . S
C422 C427 1.361 . S
C423 H394 0.950 . S
C423 C422 1.397 . S
C423 C424 1.334 . S
C424 H395 0.950 . S
C424 C423 1.334 . S
C424 C425 1.287 . S
C425 C424 1.287 . S
C425 C426 1.524 . S
C425 H428 0.999 . S
C426 H396 0.950 . S
C426 C425 1.524 . S
C426 C427 1.433 . S
C427 H397 0.934 1_565 S
C427 C422 1.361 . S
C427 C426 1.433 . S
H428 C425 0.999 . S
H429 C410 0.913 . S
H430 C448 0.951 . S
H431 C450 0.951 . S
H432 C452 0.950 . S
H433 C453 0.950 . S
H434 C455 0.950 . S
H435 C458 0.950 . S
H436 C459 0.950 . S
H437 C461 0.950 . S
H438 C462 0.950 . S
H439 C463 0.951 . S
H440 C465 0.951 . S
H441 C467 0.950 . S
H442 C468 0.950 . S
H443 C470 0.950 . S
H444 C473 0.950 . S
H445 C474 0.950 . S
H446 C476 0.950 . S
H447 C477 0.950 . S
C448 H430 0.951 . S
C448 C449 1.366 . S
C448 C450 1.388 . S
C449 C448 1.366 . S
C449 C453 1.385 . S
C450 H431 0.951 . S
C450 C448 1.388 . S
C450 C451 1.366 . S
C451 C450 1.366 . S
C451 C452 1.414 . S
C451 C454 1.499 . S
C452 H432 0.950 . S
C452 C451 1.414 . S
C452 C453 1.374 . S
C453 H433 0.950 . S
C453 C449 1.385 . S
C453 C452 1.374 . S
C454 C451 1.499 . S
C454 C455 1.373 . S
C454 C456 1.389 . S
C455 H434 0.950 . S
C455 C454 1.373 . S
C455 C471 1.377 . S
C456 C454 1.389 . S
C456 C457 1.524 . S
C456 C470 1.377 . S
C457 C456 1.524 . S
C457 C458 1.397 . S
C457 C462 1.363 . S
C458 H435 0.950 . S
C458 C457 1.397 . S
C458 C459 1.334 . S
C459 H436 0.950 . S
C459 C458 1.334 . S
C459 C460 1.287 . S
C460 C459 1.287 . S
C460 C461 1.524 . S
C460 H479 0.913 . S
C461 H437 0.950 . S
C461 C460 1.524 . S
C461 C462 1.415 . S
C462 H438 0.950 . S
C462 C457 1.363 . S
C462 C461 1.415 . S
C463 H439 0.951 . S
C463 C464 1.366 . S
C463 C465 1.388 . S
C464 C463 1.366 . S
C464 C468 1.385 . S
C465 H440 0.951 . S
C465 C463 1.388 . S
C465 C466 1.366 . S
C466 C465 1.366 . S
C466 C467 1.414 . S
C466 C469 1.499 . S
C467 H441 0.950 . S
C467 C466 1.414 . S
C467 C468 1.374 . S
C468 H442 0.950 . S
C468 C464 1.385 . S
C468 C467 1.374 . S
C469 C466 1.499 . S
C469 C470 1.373 . S
C469 C471 1.389 . S
C470 H443 0.950 . S
C470 C456 1.377 . S
C470 C469 1.373 . S
C471 C455 1.377 . S
C471 C469 1.389 . S
C471 C472 1.524 . S
C472 C471 1.524 . S
C472 C473 1.397 . S
C472 C477 1.363 . S
C473 H444 0.950 . S
C473 C472 1.397 . S
C473 C474 1.334 . S
C474 H445 0.950 . S
C474 C473 1.334 . S
C474 C475 1.287 . S
C475 C474 1.287 . S
C475 C476 1.524 . S
C475 H478 0.999 . S
C476 H446 0.950 . S
C476 C475 1.524 . S
C476 C477 1.415 . S
C477 H447 0.950 . S
C477 C472 1.363 . S
C477 C476 1.415 . S
H478 C475 0.999 . S
H479 C460 0.913 . S
H480 C498 0.951 . S
H481 C500 0.951 . S
H482 C502 0.950 . S
H483 C503 0.950 . S
H484 C505 0.950 . S
H485 C508 0.950 . S
H486 C509 0.950 . S
H487 C511 0.950 . S
H488 C512 0.950 . S
H489 C513 0.951 . S
H490 C515 0.951 . S
H491 C517 0.946 1_565 S
H492 C518 0.946 1_565 S
H493 C520 0.950 . S
H494 C523 0.950 . S
H495 C524 0.950 . S
H496 C526 0.950 . S
H497 C527 0.950 1_545 S
C498 H480 0.951 . S
C498 C499 1.366 . S
C498 C500 1.388 . S
C499 C498 1.366 . S
C499 C503 1.385 . S
C500 H481 0.951 . S
C500 C498 1.388 . S
C500 C501 1.366 . S
C501 C500 1.366 . S
C501 C502 1.414 . S
C501 C504 1.499 . S
C502 H482 0.950 . S
C502 C501 1.414 . S
C502 C503 1.374 . S
C503 H483 0.950 . S
C503 C499 1.385 . S
C503 C502 1.374 . S
C504 C501 1.499 . S
C504 C505 1.373 . S
C504 C506 1.389 . S
C505 H484 0.950 . S
C505 C504 1.373 . S
C505 C521 1.377 . S
C506 C504 1.389 . S
C506 C507 1.524 . S
C506 C520 1.377 . S
C507 C506 1.524 . S
C507 C508 1.397 . S
C507 C512 1.363 . S
C508 H485 0.950 . S
C508 C507 1.397 . S
C508 C509 1.334 . S
C509 H486 0.950 . S
C509 C508 1.334 . S
C509 C510 1.287 . S
C510 C509 1.287 . S
C510 C511 1.524 . S
C510 H529 0.913 . S
C511 H487 0.950 . S
C511 C510 1.524 . S
C511 C512 1.415 . S
C512 H488 0.950 . S
C512 C507 1.363 . S
C512 C511 1.415 . S
C513 H489 0.951 . S
C513 C514 1.366 . S
C513 C515 1.388 . S
C514 C513 1.366 . S
C514 C518 1.385 . S
C515 H490 0.951 . S
C515 C513 1.388 . S
C515 C516 1.366 . S
C516 C515 1.366 . S
C516 C517 1.414 . S
C516 C519 1.499 . S
C517 H491 0.946 1_545 S
C517 C516 1.414 . S
C517 C518 1.374 . S
C518 H492 0.946 1_545 S
C518 C514 1.385 . S
C518 C517 1.374 . S
C519 C516 1.499 . S
C519 C520 1.373 . S
C519 C521 1.389 . S
C520 H493 0.950 . S
C520 C506 1.377 . S
C520 C519 1.373 . S
C521 C505 1.377 . S
C521 C519 1.389 . S
C521 C522 1.524 1_545 S
C522 C521 1.524 1_565 S
C522 C523 1.397 . S
C522 C527 1.363 . S
C523 H494 0.950 . S
C523 C522 1.397 . S
C523 C524 1.334 . S
C524 H495 0.950 . S
C524 C523 1.334 . S
C524 C525 1.287 . S
C525 C524 1.287 . S
C525 C526 1.524 . S
C525 H528 0.999 . S
C526 H496 0.950 . S
C526 C525 1.524 . S
C526 C527 1.415 . S
C527 H497 0.950 1_565 S
C527 C522 1.363 . S
C527 C526 1.415 . S
H528 C525 0.999 . S
H529 C510 0.913 . S
H530 C548 0.951 1_455 S
H531 C550 0.951 . S
H532 C552 0.950 . S
H533 C553 0.950 . S
H534 C555 0.985 . S
H535 C558 0.950 . S
H536 C559 0.950 . S
H537 C561 0.950 1_455 S
H538 C562 0.950 . S
H539 C563 0.951 . S
H540 C565 0.951 . S
H541 C567 0.950 . S
H542 C568 0.950 . S
H543 C570 0.950 . S
H544 C573 0.968 . S
H545 C574 0.950 . S
H546 C576 0.950 . S
H547 C577 0.950 . S
C548 H530 0.951 1_655 S
C548 C549 1.366 . S
C548 C550 1.388 . S
C549 C548 1.366 . S
C549 C553 1.385 . S
C550 H531 0.951 . S
C550 C548 1.388 . S
C550 C551 1.366 . S
C551 C550 1.366 . S
C551 C552 1.414 . S
C551 C554 1.499 1_554 S
C552 H532 0.950 . S
C552 C551 1.414 . S
C552 C553 1.374 . S
C553 H533 0.950 . S
C553 C549 1.385 . S
C553 C552 1.374 . S
C554 C551 1.499 1_556 S
C554 C555 1.358 1_556 S
C554 C556 1.389 . S
C555 H534 0.985 . S
C555 C554 1.358 1_554 S
C555 C571 1.358 1_554 S
C556 C554 1.389 . S
C556 C557 1.524 . S
C556 C570 1.377 . S
C557 C556 1.524 . S
C557 C558 1.397 . S
C557 C562 1.363 . S
C558 H535 0.950 . S
C558 C557 1.397 . S
C558 C559 1.334 . S
C559 H536 0.950 . S
C559 C558 1.334 . S
C559 C560 1.287 . S
C560 C559 1.287 . S
C560 C561 1.524 . S
C560 H579 0.913 1_655 S
C561 H537 0.950 1_655 S
C561 C560 1.524 . S
C561 C562 1.415 . S
C562 H538 0.950 . S
C562 C557 1.363 . S
C562 C561 1.415 . S
C563 H539 0.951 . S
C563 C564 1.366 . S
C563 C565 1.388 . S
C564 C563 1.366 . S
C564 C568 1.385 . S
C565 H540 0.951 . S
C565 C563 1.388 . S
C565 C566 1.366 . S
C566 C565 1.366 . S
C566 C567 1.414 . S
C566 C569 1.499 . S
C567 H541 0.950 . S
C567 C566 1.414 . S
C567 C568 1.374 . S
C568 H542 0.950 . S
C568 C564 1.385 . S
C568 C567 1.374 . S
C569 C566 1.499 . S
C569 C570 1.373 . S
C569 C571 1.389 . S
C570 H543 0.950 . S
C570 C556 1.377 . S
C570 C569 1.373 . S
C571 C555 1.358 1_556 S
C571 C569 1.389 . S
C571 C572 1.547 . S
C572 C571 1.547 . S
C572 C573 1.396 . S
C572 C577 1.341 1_556 S
C573 H544 0.968 . S
C573 C572 1.396 . S
C573 C574 1.315 1_556 S
C574 H545 0.950 . S
C574 C573 1.315 1_554 S
C574 C575 1.287 . S
C575 C574 1.287 . S
C575 C576 1.524 . S
C575 H578 0.999 . S
C576 H546 0.950 . S
C576 C575 1.524 . S
C576 C577 1.415 . S
C577 H547 0.950 . S
C577 C572 1.341 1_554 S
C577 C576 1.415 . S
H578 C575 0.999 . S
H579 C560 0.913 1_455 S
H580 C598 0.951 . S
H581 C600 0.951 . S
H582 C602 0.950 . S
H583 C603 0.951 . S
H584 C605 0.950 . S
H585 C608 0.950 . S
H586 C609 0.950 . S
H587 C611 0.950 . S
H588 C612 0.950 . S
H589 C613 0.951 . S
H590 C615 0.951 . S
H591 C617 0.950 . S
H592 C618 0.950 . S
H593 C620 0.950 . S
H594 C623 0.950 . S
H595 C624 0.950 . S
H596 C626 0.950 . S
H597 C627 0.950 . S
C598 H580 0.951 . S
C598 C599 1.366 . S
C598 C600 1.388 . S
C599 C598 1.366 . S
C599 C603 1.385 . S
C600 H581 0.951 . S
C600 C598 1.388 . S
C600 C601 1.366 . S
C601 C600 1.366 . S
C601 C602 1.414 . S
C601 C604 1.499 . S
C602 H582 0.950 . S
C602 C601 1.414 . S
C602 C603 1.374 . S
C603 H583 0.951 . S
C603 C599 1.385 . S
C603 C602 1.374 . S
C604 C601 1.499 . S
C604 C605 1.373 1_455 S
C604 C606 1.389 . S
C605 H584 0.950 . S
C605 C604 1.373 1_655 S
C605 C621 1.377 . S
C606 C604 1.389 . S
C606 C607 1.524 . S
C606 C620 1.377 . S
C607 C606 1.524 . S
C607 C608 1.397 . S
C607 C612 1.363 . S
C608 H585 0.950 . S
C608 C607 1.397 . S
C608 C609 1.334 . S
C609 H586 0.950 . S
C609 C608 1.334 . S
C609 C610 1.287 . S
C610 C609 1.287 . S
C610 C611 1.524 . S
C610 H629 0.913 . S
C611 H587 0.950 . S
C611 C610 1.524 . S
C611 C612 1.415 . S
C612 H588 0.950 . S
C612 C607 1.363 . S
C612 C611 1.415 . S
C613 H589 0.951 . S
C613 C614 1.366 . S
C613 C615 1.388 . S
C614 C613 1.366 . S
C614 C618 1.385 . S
C615 H590 0.951 . S
C615 C613 1.388 . S
C615 C616 1.366 . S
C616 C615 1.366 . S
C616 C617 1.414 . S
C616 C619 1.499 . S
C617 H591 0.950 . S
C617 C616 1.414 . S
C617 C618 1.374 . S
C618 H592 0.950 . S
C618 C614 1.385 . S
C618 C617 1.374 . S
C619 C616 1.499 . S
C619 C620 1.373 . S
C619 C621 1.389 1_455 S
C620 H593 0.950 . S
C620 C606 1.377 . S
C620 C619 1.373 . S
C621 C605 1.377 . S
C621 C619 1.389 1_655 S
C621 C622 1.524 . S
C622 C621 1.524 . S
C622 C623 1.397 . S
C622 C627 1.363 . S
C623 H594 0.950 . S
C623 C622 1.397 . S
C623 C624 1.334 . S
C624 H595 0.950 . S
C624 C623 1.334 . S
C624 C625 1.287 . S
C625 C624 1.287 . S
C625 C626 1.524 . S
C625 H628 0.999 . S
C626 H596 0.950 . S
C626 C625 1.524 . S
C626 C627 1.415 . S
C627 H597 0.950 . S
C627 C622 1.363 . S
C627 C626 1.415 . S
H628 C625 0.999 . S
H629 C610 0.913 . S
H630 C648 0.951 . S
H631 C650 0.951 . S
H632 C652 0.950 . S
H633 C653 0.950 . S
H634 C655 0.950 . S
H635 C658 0.950 . S
H636 C659 0.950 . S
H637 C661 0.950 . S
H638 C662 0.950 1_545 S
H639 C663 0.951 1_565 S
H640 C665 0.951 1_565 S
H641 C667 0.950 . S
H642 C668 0.950 . S
H643 C670 0.952 . S
H644 C673 0.950 . S
H645 C674 0.950 . S
H646 C676 0.950 . S
H647 C677 0.950 . S
C648 H630 0.951 . S
C648 C649 1.366 1_545 S
C648 C650 1.388 . S
C649 C648 1.366 1_565 S
C649 C653 1.385 . S
C650 H631 0.951 . S
C650 C648 1.388 . S
C650 C651 1.366 . S
C651 C650 1.366 . S
C651 C652 1.414 1_545 S
C651 C654 1.499 . S
C652 H632 0.950 . S
C652 C651 1.414 1_565 S
C652 C653 1.374 . S
C653 H633 0.950 . S
C653 C649 1.385 . S
C653 C652 1.374 . S
C654 C651 1.499 . S
C654 C655 1.373 . S
C654 C656 1.389 1_545 S
C655 H634 0.950 . S
C655 C654 1.373 . S
C655 C671 1.377 . S
C656 C654 1.389 1_565 S
C656 C657 1.524 . S
C656 C670 1.374 . S
C657 C656 1.524 . S
C657 C658 1.397 . S
C657 C662 1.363 . S
C658 H635 0.950 . S
C658 C657 1.397 . S
C658 C659 1.334 . S
C659 H636 0.950 . S
C659 C658 1.334 . S
C659 C660 1.287 . S
C660 C659 1.287 . S
C660 C661 1.524 . S
C660 H679 0.913 . S
C661 H637 0.950 . S
C661 C660 1.524 . S
C661 C662 1.415 . S
C662 H638 0.950 1_565 S
C662 C657 1.363 . S
C662 C661 1.415 . S
C663 H639 0.951 1_545 S
C663 C664 1.366 . S
C663 C665 1.388 . S
C664 C663 1.366 . S
C664 C668 1.385 . S
C665 H640 0.951 1_545 S
C665 C663 1.388 . S
C665 C666 1.366 . S
C666 C665 1.366 . S
C666 C667 1.414 . S
C666 C669 1.499 . S
C667 H641 0.950 . S
C667 C666 1.414 . S
C667 C668 1.374 . S
C668 H642 0.950 . S
C668 C664 1.385 . S
C668 C667 1.374 . S
C669 C666 1.499 . S
C669 C670 1.375 1_545 S
C669 C671 1.389 . S
C670 H643 0.952 . S
C670 C656 1.374 . S
C670 C669 1.375 1_565 S
C671 C655 1.377 . S
C671 C669 1.389 . S
C671 C672 1.524 . S
C672 C671 1.524 . S
C672 C673 1.397 . S
C672 C677 1.363 . S
C673 H644 0.950 . S
C673 C672 1.397 . S
C673 C674 1.334 . S
C674 H645 0.950 . S
C674 C673 1.334 . S
C674 C675 1.287 . S
C675 C674 1.287 . S
C675 C676 1.524 . S
C675 H678 0.999 . S
C676 H646 0.950 . S
C676 C675 1.524 . S
C676 C677 1.415 . S
C677 H647 0.950 . S
C677 C672 1.363 . S
C677 C676 1.415 . S
H678 C675 0.999 . S
H679 C660 0.913 . S
H680 C698 0.951 . S
H681 C700 0.951 . S
H682 C702 0.950 . S
H683 C703 0.950 . S
H684 C705 0.950 . S
H685 C708 0.950 . S
H686 C709 0.950 . S
H687 C711 0.950 . S
H688 C712 0.950 . S
H689 C713 0.951 . S
H690 C715 0.951 . S
H691 C717 0.950 . S
H692 C718 0.950 . S
H693 C720 0.950 . S
H694 C723 0.950 . S
H695 C724 0.950 . S
H696 C726 0.950 . S
H697 C727 0.950 . S
C698 H680 0.951 . S
C698 C699 1.366 . S
C698 C700 1.388 . S
C699 C698 1.366 . S
C699 C703 1.385 . S
C700 H681 0.951 . S
C700 C698 1.388 . S
C700 C701 1.366 . S
C701 C700 1.366 . S
C701 C702 1.414 1_554 S
C701 C704 1.499 1_554 S
C702 H682 0.950 . S
C702 C701 1.414 1_556 S
C702 C703 1.374 1_556 S
C703 H683 0.950 . S
C703 C699 1.385 . S
C703 C702 1.374 1_554 S
C704 C701 1.499 1_556 S
C704 C705 1.373 . S
C704 C706 1.389 . S
C705 H684 0.950 . S
C705 C704 1.373 . S
C705 C721 1.377 . S
C706 C704 1.389 . S
C706 C707 1.524 1_556 S
C706 C720 1.377 . S
C707 C706 1.524 1_554 S
C707 C708 1.397 . S
C707 C712 1.363 . S
C708 H685 0.950 . S
C708 C707 1.397 . S
C708 C709 1.334 . S
C709 H686 0.950 . S
C709 C708 1.334 . S
C709 C710 1.287 . S
C710 C709 1.287 . S
C710 C711 1.524 . S
C710 H729 0.913 . S
C711 H687 0.950 . S
C711 C710 1.524 . S
C711 C712 1.415 . S
C712 H688 0.950 . S
C712 C707 1.363 . S
C712 C711 1.415 . S
C713 H689 0.951 . S
C713 C714 1.366 . S
C713 C715 1.388 . S
C714 C713 1.366 . S
C714 C718 1.385 . S
C715 H690 0.951 . S
C715 C713 1.388 . S
C715 C716 1.366 . S
C716 C715 1.366 . S
C716 C717 1.414 . S
C716 C719 1.499 . S
C717 H691 0.950 . S
C717 C716 1.414 . S
C717 C718 1.374 . S
C718 H692 0.950 . S
C718 C714 1.385 . S
C718 C717 1.374 . S
C719 C716 1.499 . S
C719 C720 1.373 . S
C719 C721 1.389 . S
C720 H693 0.950 . S
C720 C706 1.377 . S
C720 C719 1.373 . S
C721 C705 1.377 . S
C721 C719 1.389 . S
C721 C722 1.524 . S
C722 C721 1.524 . S
C722 C723 1.397 . S
C722 C727 1.363 . S
C723 H694 0.950 . S
C723 C722 1.397 . S
C723 C724 1.334 . S
C724 H695 0.950 . S
C724 C723 1.334 . S
C724 C725 1.287 . S
C725 C724 1.287 . S
C725 C726 1.524 . S
C725 H728 0.999 . S
C726 H696 0.950 . S
C726 C725 1.524 . S
C726 C727 1.415 . S
C727 H697 0.950 . S
C727 C722 1.363 . S
C727 C726 1.415 . S
H728 C725 0.999 . S
H729 C710 0.913 . S
H730 C748 0.951 . S
H731 C750 0.951 . S
H732 C752 0.950 . S
H733 C753 0.950 . S
H734 C755 0.950 1_655 S
H735 C758 0.950 . S
H736 C759 0.950 . S
H737 C761 0.950 . S
H738 C762 0.950 . S
H739 C763 0.951 . S
H740 C765 0.951 . S
H741 C767 0.950 . S
H742 C768 0.950 . S
H743 C770 0.950 . S
H744 C773 0.950 . S
H745 C774 0.950 . S
H746 C776 0.950 . S
H747 C777 0.950 . S
C748 H730 0.951 . S
C748 C749 1.366 . S
C748 C750 1.388 . S
C749 C748 1.366 . S
C749 C753 1.385 . S
C750 H731 0.951 . S
C750 C748 1.388 . S
C750 C751 1.366 . S
C751 C750 1.366 . S
C751 C752 1.414 . S
C751 C754 1.499 . S
C752 H732 0.950 . S
C752 C751 1.414 . S
C752 C753 1.374 . S
C753 H733 0.950 . S
C753 C749 1.385 . S
C753 C752 1.374 . S
C754 C751 1.499 . S
C754 C755 1.373 . S
C754 C756 1.389 . S
C755 H734 0.950 1_455 S
C755 C754 1.373 . S
C755 C771 1.377 . S
C756 C754 1.389 . S
C756 C757 1.524 . S
C756 C770 1.377 . S
C757 C756 1.524 . S
C757 C758 1.397 . S
C757 C762 1.363 . S
C758 H735 0.950 . S
C758 C757 1.397 . S
C758 C759 1.334 . S
C759 H736 0.950 . S
C759 C758 1.334 . S
C759 C760 1.287 . S
C760 C759 1.287 . S
C760 C761 1.524 . S
C760 H779 0.913 . S
C761 H737 0.950 . S
C761 C760 1.524 . S
C761 C762 1.415 . S
C762 H738 0.950 . S
C762 C757 1.363 . S
C762 C761 1.415 . S
C763 H739 0.951 . S
C763 C764 1.366 . S
C763 C765 1.388 . S
C764 C763 1.366 . S
C764 C768 1.385 . S
C765 H740 0.951 . S
C765 C763 1.388 . S
C765 C766 1.366 . S
C766 C765 1.366 . S
C766 C767 1.414 . S
C766 C769 1.499 . S
C767 H741 0.950 . S
C767 C766 1.414 . S
C767 C768 1.374 . S
C768 H742 0.950 . S
C768 C764 1.385 . S
C768 C767 1.374 . S
C769 C766 1.499 . S
C769 C770 1.373 . S
C769 C771 1.389 . S
C770 H743 0.950 . S
C770 C756 1.377 . S
C770 C769 1.373 . S
C771 C755 1.377 . S
C771 C769 1.389 . S
C771 C772 1.524 1_455 S
C772 C771 1.524 1_655 S
C772 C773 1.397 . S
C772 C777 1.363 . S
C773 H744 0.950 . S
C773 C772 1.397 . S
C773 C774 1.334 . S
C774 H745 0.950 . S
C774 C773 1.334 . S
C774 C775 1.287 . S
C775 C774 1.287 . S
C775 C776 1.524 . S
C775 H778 0.999 . S
C776 H746 0.950 . S
C776 C775 1.524 . S
C776 C777 1.415 . S
C777 H747 0.950 . S
C777 C772 1.363 . S
C777 C776 1.415 . S
H778 C775 0.999 . S
H779 C760 0.913 . S
C214 C50 1.293 . S
C199 C11 1.282 . S
C249 C25 1.356 . S
C264 C89 1.368 . S
C299 C41 1.354 . S
C314 C156 1.414 . S
C349 C7 1.317 . S
C364 C57 1.321 . S
C414 C110 1.392 . S
C399 C21 1.388 . S
C449 C36 1.373 . S
C464 C135 1.427 . S
C514 C96 1.362 . S
C499 C39 1.351 . S
C549 C8 1.365 1_665 S
C564 C149 1.429 . S
C614 C64 1.485 . S
C599 C22 1.428 1_565 S
C664 C103 1.386 . S
C649 C35 1.382 . S
C714 C142 1.413 . S
C699 C13 1.349 . S
C749 C27 1.405 . S
C764 C43 1.457 . S
