# Generated by pormake.
# Topology eea, (3,6)-cn, num edge types: 1
# Building blocks:
#     Node 0, Type 0, BuildingBlock: VETTIZ_charged_linker_0, # of connection points: 3
#     Node 1, Type 0, BuildingBlock: VETTIZ_charged_linker_0, # of connection points: 3
#     Node 2, Type 0, BuildingBlock: VETTIZ_charged_linker_0, # of connection points: 3
#     Node 3, Type 0, BuildingBlock: VETTIZ_charged_linker_0, # of connection points: 3
#     Node 4, Type 0, BuildingBlock: VETTIZ_charged_linker_0, # of connection points: 3
#     Node 5, Type 0, BuildingBlock: VETTIZ_charged_linker_0, # of connection points: 3
#     Node 6, Type 0, BuildingBlock: VETTIZ_charged_linker_0, # of connection points: 3
#     Node 7, Type 0, BuildingBlock: VETTIZ_charged_linker_0, # of connection points: 3
#     Node 8, Type 0, BuildingBlock: VETTIZ_charged_linker_0, # of connection points: 3
#     Node 9, Type 0, BuildingBlock: VETTIZ_charged_linker_0, # of connection points: 3
#     Node 10, Type 0, BuildingBlock: VETTIZ_charged_linker_0, # of connection points: 3
#     Node 11, Type 0, BuildingBlock: VETTIZ_charged_linker_0, # of connection points: 3
#     Node 12, Type 0, BuildingBlock: VETTIZ_charged_linker_0, # of connection points: 3
#     Node 13, Type 0, BuildingBlock: VETTIZ_charged_linker_0, # of connection points: 3
#     Node 14, Type 0, BuildingBlock: VETTIZ_charged_linker_0, # of connection points: 3
#     Node 15, Type 0, BuildingBlock: VETTIZ_charged_linker_0, # of connection points: 3
#     Node 16, Type 0, BuildingBlock: VETTIZ_charged_linker_0, # of connection points: 3
#     Node 17, Type 0, BuildingBlock: VETTIZ_charged_linker_0, # of connection points: 3
#     Node 18, Type 1, BuildingBlock: NUHQIS_clean_sbu_0, # of connection points: 6
#     Node 19, Type 1, BuildingBlock: NUHQIS_clean_sbu_0, # of connection points: 6
#     Node 20, Type 1, BuildingBlock: NUHQIS_clean_sbu_0, # of connection points: 6
#     Node 21, Type 1, BuildingBlock: NUHQIS_clean_sbu_0, # of connection points: 6
#     Node 22, Type 1, BuildingBlock: NUHQIS_clean_sbu_0, # of connection points: 6
#     Node 23, Type 1, BuildingBlock: NUHQIS_clean_sbu_0, # of connection points: 6
#     Node 24, Type 1, BuildingBlock: NUHQIS_clean_sbu_0, # of connection points: 6
#     Node 25, Type 1, BuildingBlock: NUHQIS_clean_sbu_0, # of connection points: 6
#     Node 26, Type 1, BuildingBlock: NUHQIS_clean_sbu_0, # of connection points: 6
#     Edge 27, Type (0, 1), BuildingBlock: UVAHIK_clean_linker_0, # of connection points: 2
#     Edge 28, Type (0, 1), BuildingBlock: UVAHIK_clean_linker_0, # of connection points: 2
#     Edge 29, Type (0, 1), BuildingBlock: UVAHIK_clean_linker_0, # of connection points: 2
#     Edge 30, Type (0, 1), BuildingBlock: UVAHIK_clean_linker_0, # of connection points: 2
#     Edge 31, Type (0, 1), BuildingBlock: UVAHIK_clean_linker_0, # of connection points: 2
#     Edge 32, Type (0, 1), BuildingBlock: UVAHIK_clean_linker_0, # of connection points: 2
#     Edge 33, Type (0, 1), BuildingBlock: UVAHIK_clean_linker_0, # of connection points: 2
#     Edge 34, Type (0, 1), BuildingBlock: UVAHIK_clean_linker_0, # of connection points: 2
#     Edge 35, Type (0, 1), BuildingBlock: UVAHIK_clean_linker_0, # of connection points: 2
#     Edge 36, Type (0, 1), BuildingBlock: UVAHIK_clean_linker_0, # of connection points: 2
#     Edge 37, Type (0, 1), BuildingBlock: UVAHIK_clean_linker_0, # of connection points: 2
#     Edge 38, Type (0, 1), BuildingBlock: UVAHIK_clean_linker_0, # of connection points: 2
#     Edge 39, Type (0, 1), BuildingBlock: UVAHIK_clean_linker_0, # of connection points: 2
#     Edge 40, Type (0, 1), BuildingBlock: UVAHIK_clean_linker_0, # of connection points: 2
#     Edge 41, Type (0, 1), BuildingBlock: UVAHIK_clean_linker_0, # of connection points: 2
#     Edge 42, Type (0, 1), BuildingBlock: UVAHIK_clean_linker_0, # of connection points: 2
#     Edge 43, Type (0, 1), BuildingBlock: UVAHIK_clean_linker_0, # of connection points: 2
#     Edge 44, Type (0, 1), BuildingBlock: UVAHIK_clean_linker_0, # of connection points: 2
#     Edge 45, Type (0, 1), BuildingBlock: UVAHIK_clean_linker_0, # of connection points: 2
#     Edge 46, Type (0, 1), BuildingBlock: UVAHIK_clean_linker_0, # of connection points: 2
#     Edge 47, Type (0, 1), BuildingBlock: UVAHIK_clean_linker_0, # of connection points: 2
#     Edge 48, Type (0, 1), BuildingBlock: UVAHIK_clean_linker_0, # of connection points: 2
#     Edge 49, Type (0, 1), BuildingBlock: UVAHIK_clean_linker_0, # of connection points: 2
#     Edge 50, Type (0, 1), BuildingBlock: UVAHIK_clean_linker_0, # of connection points: 2
#     Edge 51, Type (0, 1), BuildingBlock: UVAHIK_clean_linker_0, # of connection points: 2
#     Edge 52, Type (0, 1), BuildingBlock: UVAHIK_clean_linker_0, # of connection points: 2
#     Edge 53, Type (0, 1), BuildingBlock: UVAHIK_clean_linker_0, # of connection points: 2
#     Edge 54, Type (0, 1), BuildingBlock: UVAHIK_clean_linker_0, # of connection points: 2
#     Edge 55, Type (0, 1), BuildingBlock: UVAHIK_clean_linker_0, # of connection points: 2
#     Edge 56, Type (0, 1), BuildingBlock: UVAHIK_clean_linker_0, # of connection points: 2
#     Edge 57, Type (0, 1), BuildingBlock: UVAHIK_clean_linker_0, # of connection points: 2
#     Edge 58, Type (0, 1), BuildingBlock: UVAHIK_clean_linker_0, # of connection points: 2
#     Edge 59, Type (0, 1), BuildingBlock: UVAHIK_clean_linker_0, # of connection points: 2
#     Edge 60, Type (0, 1), BuildingBlock: UVAHIK_clean_linker_0, # of connection points: 2
#     Edge 61, Type (0, 1), BuildingBlock: UVAHIK_clean_linker_0, # of connection points: 2
#     Edge 62, Type (0, 1), BuildingBlock: UVAHIK_clean_linker_0, # of connection points: 2
#     Edge 63, Type (0, 1), BuildingBlock: UVAHIK_clean_linker_0, # of connection points: 2
#     Edge 64, Type (0, 1), BuildingBlock: UVAHIK_clean_linker_0, # of connection points: 2
#     Edge 65, Type (0, 1), BuildingBlock: UVAHIK_clean_linker_0, # of connection points: 2
#     Edge 66, Type (0, 1), BuildingBlock: UVAHIK_clean_linker_0, # of connection points: 2
#     Edge 67, Type (0, 1), BuildingBlock: UVAHIK_clean_linker_0, # of connection points: 2
#     Edge 68, Type (0, 1), BuildingBlock: UVAHIK_clean_linker_0, # of connection points: 2
#     Edge 69, Type (0, 1), BuildingBlock: UVAHIK_clean_linker_0, # of connection points: 2
#     Edge 70, Type (0, 1), BuildingBlock: UVAHIK_clean_linker_0, # of connection points: 2
#     Edge 71, Type (0, 1), BuildingBlock: UVAHIK_clean_linker_0, # of connection points: 2
#     Edge 72, Type (0, 1), BuildingBlock: UVAHIK_clean_linker_0, # of connection points: 2
#     Edge 73, Type (0, 1), BuildingBlock: UVAHIK_clean_linker_0, # of connection points: 2
#     Edge 74, Type (0, 1), BuildingBlock: UVAHIK_clean_linker_0, # of connection points: 2
#     Edge 75, Type (0, 1), BuildingBlock: UVAHIK_clean_linker_0, # of connection points: 2
#     Edge 76, Type (0, 1), BuildingBlock: UVAHIK_clean_linker_0, # of connection points: 2
#     Edge 77, Type (0, 1), BuildingBlock: UVAHIK_clean_linker_0, # of connection points: 2
#     Edge 78, Type (0, 1), BuildingBlock: UVAHIK_clean_linker_0, # of connection points: 2
#     Edge 79, Type (0, 1), BuildingBlock: UVAHIK_clean_linker_0, # of connection points: 2
#     Edge 80, Type (0, 1), BuildingBlock: UVAHIK_clean_linker_0, # of connection points: 2
# Relax obj value: 0.035
# Max RMSD: 0.135
# Mean RMSD: 0.067
data_MOF--net-eea--node1-NUHQIS_clean_sbu_0--node2-VETTIZ_charged_linker_0--edge1-UVAHIK_clean_linker_0
_symmetry_space_group_name_H-M    P1
_symmetry_Int_Tables_number       1
_symmetry_cell_setting            triclinic
loop_
_symmetry_equiv_pos_as_xyz
'x, y, z'
_cell_length_a     77.068859
_cell_length_b     77.146371
_cell_length_c     108.18297
_cell_angle_alpha  93.489498
_cell_angle_beta   93.539983
_cell_angle_gamma 119.82209
loop_
_atom_site_label
_atom_site_type_symbol
_atom_site_fract_x
_atom_site_fract_y
_atom_site_fract_z
_atom_type_partial_charge
C0 C 0.27135 0.18247 0.38961 0.0
C1 C 0.27319 0.20029 0.39526 0.0
C2 C 0.28224 0.20715 0.40764 0.0
C3 C 0.28626 0.17803 0.40871 0.0
C4 C 0.27789 0.17162 0.39648 0.0
C5 C 0.27602 0.15187 0.39203 0.0
H6 H 0.283 0.07099 0.40519 0.0
C7 C 0.29048 0.16276 0.41338 0.0
C8 C 0.2846 0.14745 0.40362 0.0
H9 H 0.25945 0.08082 0.37063 0.0
H10 H 0.26902 0.11431 0.37912 0.0
H11 H 0.32263 0.11563 0.41056 0.0
H12 H 0.26326 0.08867 0.42242 0.0
H13 H 0.28014 0.10346 0.43542 0.0
H14 H 0.28179 0.08272 0.42823 0.0
H15 H 0.3149 0.09827 0.42214 0.0
H16 H 0.32543 0.1249 0.42623 0.0
C17 C 0.28924 0.15526 0.38119 0.0
C18 C 0.25336 0.13636 0.38855 0.0
C19 C 0.31615 0.16956 0.45886 0.0
C20 C 0.32031 0.15714 0.46599 0.0
C21 C 0.31873 0.13958 0.45998 0.0
C22 C 0.31266 0.13424 0.44721 0.0
C23 C 0.30789 0.14643 0.44031 0.0
C24 C 0.30999 0.16394 0.4461 0.0
C25 C 0.30424 0.17501 0.43725 0.0
C26 C 0.29812 0.16111 0.42526 0.0
C27 C 0.30016 0.14434 0.42715 0.0
C28 C 0.32311 0.19567 0.43629 0.0
C29 C 0.28625 0.17621 0.442 0.0
C30 C 0.2799 0.08035 0.39943 0.0
C31 C 0.27029 0.07312 0.38724 0.0
C32 C 0.26696 0.086 0.38001 0.0
C33 C 0.27234 0.10541 0.38501 0.0
C34 C 0.28098 0.11201 0.39742 0.0
C35 C 0.28496 0.09968 0.40433 0.0
C36 C 0.29379 0.10899 0.41744 0.0
C37 C 0.29417 0.12884 0.4173 0.0
C38 C 0.28659 0.13047 0.40557 0.0
C39 C 0.31526 0.11204 0.41932 0.0
C40 C 0.27918 0.09531 0.42644 0.0
H41 H 0.29533 0.20202 0.42379 0.0
H42 H 0.26474 0.17692 0.38007 0.0
H43 H 0.24391 0.13938 0.39471 0.0
H44 H 0.24951 0.12081 0.38982 0.0
H45 H 0.24841 0.13695 0.3788 0.0
H46 H 0.30327 0.17017 0.38286 0.0
H47 H 0.28113 0.15481 0.37222 0.0
H48 H 0.29441 0.14427 0.38019 0.0
H49 H 0.31748 0.1833 0.46314 0.0
H50 H 0.32161 0.1296 0.46524 0.0
H51 H 0.31149 0.12056 0.44325 0.0
H52 H 0.33697 0.19452 0.43694 0.0
H53 H 0.32499 0.20696 0.44392 0.0
H54 H 0.32283 0.20149 0.42724 0.0
H55 H 0.27583 0.16212 0.44593 0.0
H56 H 0.27685 0.17779 0.43455 0.0
H57 H 0.29148 0.18883 0.44944 0.0
H58 H 0.28369 0.22072 0.41227 0.0
C59 C 0.28884 0.19616 0.41436 0.0
C60 C 0.941 0.19187 0.40057 0.0
C61 C 0.9573 0.20915 0.4072 0.0
C62 C 0.95556 0.21471 0.41954 0.0
C63 C 0.92182 0.1859 0.4184 0.0
C64 C 0.92355 0.18059 0.4063 0.0
C65 C 0.90516 0.16165 0.40052 0.0
H66 H 0.81417 0.08198 0.40651 0.0
C67 C 0.90178 0.17071 0.42158 0.0
C68 C 0.89196 0.15653 0.41108 0.0
H69 H 0.84785 0.09436 0.37447 0.0
H70 H 0.87366 0.12602 0.38521 0.0
H71 H 0.8518 0.0973 0.42712 0.0
H72 H 0.82033 0.12535 0.41189 0.0
H73 H 0.82871 0.13626 0.42736 0.0
H74 H 0.81125 0.10958 0.42421 0.0
H75 H 0.82644 0.0903 0.42971 0.0
H76 H 0.84758 0.11003 0.43957 0.0
C77 C 0.91135 0.14568 0.39746 0.0
C78 C 0.89603 0.16676 0.38911 0.0
C79 C 0.88105 0.17423 0.46514 0.0
C80 C 0.86326 0.16206 0.47055 0.0
C81 C 0.84686 0.146 0.463 0.0
C82 C 0.84835 0.14158 0.45053 0.0
C83 C 0.86639 0.15335 0.4454 0.0
C84 C 0.88222 0.16965 0.45256 0.0
C85 C 0.89986 0.18092 0.44522 0.0
C86 C 0.89206 0.16838 0.43262 0.0
C87 C 0.87253 0.15212 0.43289 0.0
C88 C 0.91811 0.18029 0.45149 0.0
C89 C 0.9033 0.20238 0.4445 0.0
C90 C 0.82695 0.09163 0.40172 0.0
C91 C 0.82901 0.08553 0.38965 0.0
C92 C 0.84603 0.09851 0.38385 0.0
C93 C 0.86099 0.11694 0.39009 0.0
C94 C 0.85901 0.1225 0.40231 0.0
C95 C 0.84205 0.11007 0.40784 0.0
C96 C 0.84247 0.11839 0.42087 0.0
C97 C 0.86273 0.13768 0.42234 0.0
C98 C 0.87235 0.13996 0.41147 0.0
C99 C 0.84193 0.10327 0.42986 0.0
C100 C 0.82475 0.12253 0.42121 0.0
H101 H 0.93752 0.20819 0.43456 0.0
H102 H 0.94191 0.18692 0.39118 0.0
H103 H 0.89786 0.18197 0.39087 0.0
H104 H 0.87964 0.15652 0.38702 0.0
H105 H 0.90353 0.16662 0.38069 0.0
H106 H 0.9234 0.14742 0.40451 0.0
H107 H 0.91717 0.14713 0.38822 0.0
H108 H 0.89899 0.13013 0.3977 0.0
H109 H 0.89391 0.18677 0.47061 0.0
H110 H 0.83274 0.13676 0.46672 0.0
H111 H 0.83539 0.12902 0.44539 0.0
H112 H 0.91335 0.16518 0.45454 0.0
H113 H 0.92522 0.19147 0.45984 0.0
H114 H 0.92967 0.18292 0.44516 0.0
H115 H 0.88875 0.20221 0.44385 0.0
H116 H 0.91027 0.20903 0.43611 0.0
H117 H 0.9127 0.21254 0.45291 0.0
H118 H 0.96781 0.22805 0.42482 0.0
C119 C 0.93791 0.20322 0.42515 0.0
C120 C 0.93948 0.76994 0.40742 0.0
C121 C 0.95414 0.76553 0.41211 0.0
C122 C 0.95154 0.75665 0.42341 0.0
C123 C 0.92066 0.75741 0.42519 0.0
C124 C 0.92295 0.76568 0.41401 0.0
C125 C 0.906 0.76923 0.41011 0.0
H126 H 0.82248 0.77115 0.42356 0.0
C127 C 0.9021 0.75543 0.42982 0.0
C128 C 0.89344 0.76227 0.42096 0.0
H129 H 0.8513 0.7845 0.3895 0.0
H130 H 0.87579 0.7766 0.39786 0.0
H131 H 0.82333 0.73066 0.42504 0.0
H132 H 0.86257 0.79052 0.44286 0.0
H133 H 0.85855 0.77378 0.45413 0.0
H134 H 0.83746 0.77473 0.44675 0.0
H135 H 0.81667 0.74072 0.43811 0.0
H136 H 0.83085 0.72802 0.44011 0.0
C137 C 0.89464 0.7558 0.39776 0.0
C138 C 0.91498 0.79204 0.40925 0.0
C139 C 0.8819 0.72989 0.47201 0.0
C140 C 0.86602 0.72748 0.47888 0.0
C141 C 0.85196 0.7324 0.47373 0.0
C142 C 0.8537 0.73971 0.46207 0.0
C143 C 0.86969 0.74219 0.45537 0.0
C144 C 0.88346 0.7373 0.46033 0.0
C145 C 0.89956 0.74114 0.45186 0.0
C146 C 0.89303 0.74895 0.44099 0.0
C147 C 0.87552 0.74953 0.44313 0.0
C148 C 0.89836 0.7209 0.44796 0.0
C149 C 0.92005 0.75738 0.4588 0.0
C150 C 0.8339 0.77223 0.4178 0.0
C151 C 0.83495 0.77889 0.40587 0.0
C152 C 0.8503 0.78006 0.39885 0.0
C153 C 0.86448 0.77523 0.40367 0.0
C154 C 0.86332 0.76887 0.41563 0.0
C155 C 0.84801 0.76712 0.42239 0.0
C156 C 0.84852 0.75904 0.43465 0.0
C157 C 0.86681 0.7565 0.43417 0.0
C158 C 0.87556 0.76255 0.42308 0.0
C159 C 0.82882 0.73862 0.43461 0.0
C160 C 0.85181 0.77519 0.44522 0.0
H161 H 0.93392 0.74592 0.43849 0.0
H162 H 0.94091 0.77691 0.39886 0.0
H163 H 0.92643 0.80091 0.4173 0.0
H164 H 0.90372 0.79686 0.40955 0.0
H165 H 0.92245 0.79651 0.4006 0.0
H166 H 0.89623 0.74223 0.39682 0.0
H167 H 0.90048 0.76408 0.38954 0.0
H168 H 0.87821 0.74977 0.39727 0.0
H169 H 0.89306 0.72641 0.47572 0.0
H170 H 0.8394 0.73039 0.47868 0.0
H171 H 0.8425 0.74317 0.45873 0.0
H172 H 0.88245 0.70841 0.44659 0.0
H173 H 0.9065 0.71719 0.45521 0.0
H174 H 0.9043 0.72066 0.43896 0.0
H175 H 0.91844 0.76912 0.46425 0.0
H176 H 0.93145 0.76558 0.45247 0.0
H177 H 0.92607 0.7507 0.46541 0.0
H178 H 0.96225 0.75263 0.42718 0.0
C179 C 0.93496 0.75262 0.42996 0.0
C180 C 0.15472 0.22698 0.59675 0.0
C181 C 0.17349 0.23242 0.59246 0.0
C182 C 0.1789 0.24347 0.58203 0.0
C183 C 0.14706 0.24284 0.58021 0.0
C184 C 0.14191 0.23246 0.59059 0.0
C185 C 0.12173 0.22833 0.59416 0.0
H186 H 0.03846 0.23609 0.58315 0.0
C187 C 0.13029 0.24591 0.57587 0.0
C188 C 0.11547 0.2376 0.58407 0.0
H189 H 0.05349 0.20987 0.61328 0.0
H190 H 0.08458 0.21774 0.6051 0.0
H191 H 0.08327 0.27484 0.58304 0.0
H192 H 0.05319 0.21663 0.56165 0.0
H193 H 0.06667 0.23469 0.55161 0.0
H194 H 0.04658 0.23544 0.5589 0.0
H195 H 0.06222 0.26707 0.57157 0.0
H196 H 0.08752 0.27811 0.56733 0.0
C197 C 0.12499 0.23948 0.60727 0.0
C198 C 0.10764 0.20526 0.59328 0.0
C199 C 0.1336 0.2788 0.53618 0.0
C200 C 0.12021 0.28297 0.52936 0.0
C201 C 0.10173 0.27806 0.53397 0.0
C202 C 0.09671 0.26913 0.54513 0.0
C203 C 0.11024 0.26493 0.55177 0.0
C204 C 0.12833 0.2698 0.54724 0.0
C205 C 0.14078 0.26401 0.55534 0.0
C206 C 0.12716 0.25473 0.56545 0.0
C207 C 0.10929 0.25534 0.56337 0.0
C208 C 0.16059 0.28343 0.56052 0.0
C209 C 0.14375 0.24837 0.5475 0.0
C210 C 0.04839 0.23194 0.58794 0.0
C211 C 0.04349 0.22249 0.59898 0.0
C212 C 0.05699 0.2175 0.60493 0.0
C213 C 0.07505 0.22198 0.60011 0.0
C214 C 0.07983 0.23158 0.58918 0.0
C215 C 0.06659 0.23636 0.58324 0.0
C216 C 0.07426 0.24645 0.57167 0.0
C217 C 0.09438 0.24722 0.5718 0.0
C218 C 0.0975 0.23842 0.58208 0.0
C219 C 0.07689 0.26772 0.57336 0.0
C220 C 0.05943 0.23278 0.56031 0.0
H221 H 0.17085 0.25694 0.56801 0.0
H222 H 0.14989 0.21841 0.60467 0.0
H223 H 0.11024 0.1977 0.5851 0.0
H224 H 0.09155 0.20062 0.59185 0.0
H225 H 0.11035 0.1991 0.60173 0.0
H226 H 0.13989 0.25354 0.60879 0.0
H227 H 0.12444 0.22998 0.61472 0.0
H228 H 0.114 0.24449 0.60859 0.0
H229 H 0.14777 0.28206 0.53284 0.0
H230 H 0.09121 0.28126 0.52897 0.0
H231 H 0.08247 0.26581 0.54815 0.0
H232 H 0.15821 0.29651 0.56175 0.0
H233 H 0.1724 0.28718 0.55412 0.0
H234 H 0.16643 0.28247 0.56989 0.0
H235 H 0.12978 0.2378 0.54135 0.0
H236 H 0.14695 0.23871 0.5532 0.0
H237 H 0.15603 0.25583 0.54146 0.0
H238 H 0.19339 0.24837 0.57865 0.0
C239 C 0.16581 0.24862 0.57589 0.0
C240 C 0.72106 0.80191 0.61433 0.0
C241 C 0.72293 0.78676 0.60767 0.0
C242 C 0.71705 0.78265 0.59472 0.0
C243 C 0.709 0.80929 0.59525 0.0
C244 C 0.71441 0.8131 0.60795 0.0
C245 C 0.71388 0.83117 0.61346 0.0
H246 H 0.70727 0.91343 0.60421 0.0
C247 C 0.70409 0.82451 0.59136 0.0
C248 C 0.70702 0.83744 0.60197 0.0
H249 H 0.72368 0.89704 0.6387 0.0
H250 H 0.71615 0.86515 0.62831 0.0
H251 H 0.72927 0.89792 0.58668 0.0
H252 H 0.66811 0.86981 0.59563 0.0
H253 H 0.66706 0.86071 0.58016 0.0
H254 H 0.67676 0.88726 0.58413 0.0
H255 H 0.71203 0.90625 0.58213 0.0
H256 H 0.71307 0.88683 0.57277 0.0
C257 C 0.73553 0.84716 0.61909 0.0
C258 C 0.69804 0.82423 0.62293 0.0
C259 C 0.68465 0.82461 0.54565 0.0
C260 C 0.67972 0.83712 0.53918 0.0
C261 C 0.67876 0.85274 0.54602 0.0
C262 C 0.68321 0.85621 0.55899 0.0
C263 C 0.68875 0.84399 0.56525 0.0
C264 C 0.68896 0.82823 0.55862 0.0
C265 C 0.69481 0.81657 0.56687 0.0
C266 C 0.69805 0.82795 0.57954 0.0
C267 C 0.69478 0.84417 0.5785 0.0
C268 C 0.71455 0.81828 0.56288 0.0
C269 C 0.67684 0.79479 0.56599 0.0
C270 C 0.70889 0.90283 0.60958 0.0
C271 C 0.71636 0.90789 0.62226 0.0
C272 C 0.71834 0.89367 0.62887 0.0
C273 C 0.71396 0.87516 0.62282 0.0
C274 C 0.70769 0.87085 0.60998 0.0
C275 C 0.70471 0.88432 0.60365 0.0
C276 C 0.69798 0.87716 0.59003 0.0
C277 C 0.69827 0.85759 0.58917 0.0
C278 C 0.70408 0.85406 0.60087 0.0
C279 C 0.71377 0.89281 0.58241 0.0
C280 C 0.67643 0.87364 0.58723 0.0
H281 H 0.70605 0.79003 0.57864 0.0
H282 H 0.72516 0.8054 0.6243 0.0
H283 H 0.68462 0.80947 0.6194 0.0
H284 H 0.69217 0.83456 0.62454 0.0
H285 H 0.70428 0.82246 0.63198 0.0
H286 H 0.74703 0.84582 0.61404 0.0
H287 H 0.73822 0.84546 0.62903 0.0
H288 H 0.739 0.86273 0.61826 0.0
H289 H 0.6857 0.81257 0.54072 0.0
H290 H 0.67457 0.86234 0.54133 0.0
H291 H 0.68244 0.86846 0.56362 0.0
H292 H 0.72406 0.83291 0.55919 0.0
H293 H 0.71138 0.80617 0.55546 0.0
H294 H 0.72425 0.81799 0.57073 0.0
H295 H 0.66234 0.79471 0.56561 0.0
H296 H 0.67697 0.78699 0.57418 0.0
H297 H 0.67643 0.78577 0.55746 0.0
H298 H 0.71858 0.77136 0.58924 0.0
C299 C 0.70996 0.7937 0.58851 0.0
C300 C 0.06631 0.82244 0.60397 0.0
C301 C 0.04982 0.80469 0.5979 0.0
C302 C 0.05129 0.79779 0.58583 0.0
C303 C 0.08503 0.82629 0.58609 0.0
C304 C 0.08357 0.83295 0.59792 0.0
C305 C 0.10204 0.85234 0.60303 0.0
H306 H 0.19341 0.92961 0.59477 0.0
C307 C 0.10495 0.84092 0.58244 0.0
C308 C 0.11494 0.8562 0.59237 0.0
H309 H 0.15935 0.92229 0.62632 0.0
H310 H 0.13352 0.88964 0.61688 0.0
H311 H 0.18487 0.88421 0.59119 0.0
H312 H 0.15667 0.91433 0.57443 0.0
H313 H 0.15769 0.8986 0.56245 0.0
H314 H 0.18075 0.91838 0.57085 0.0
H315 H 0.19584 0.90091 0.57951 0.0
H316 H 0.1782 0.87446 0.57545 0.0
C317 C 0.11152 0.84854 0.61486 0.0
C318 C 0.09588 0.86853 0.60522 0.0
C319 C 0.12532 0.83128 0.5397 0.0
C320 C 0.14289 0.84266 0.53391 0.0
C321 C 0.15895 0.86018 0.54059 0.0
C322 C 0.15759 0.86637 0.55273 0.0
C323 C 0.13991 0.85504 0.55833 0.0
C324 C 0.1242 0.83771 0.5519 0.0
C325 C 0.10668 0.82758 0.5595 0.0
C326 C 0.11448 0.84182 0.57145 0.0
C327 C 0.13391 0.85791 0.57063 0.0
C328 C 0.10353 0.80661 0.56169 0.0
C329 C 0.08825 0.82713 0.55257 0.0
C330 C 0.18037 0.92101 0.59965 0.0
C331 C 0.17843 0.92867 0.6113 0.0
C332 C 0.16137 0.91674 0.6174 0.0
C333 C 0.14625 0.89783 0.61184 0.0
C334 C 0.14808 0.89074 0.59999 0.0
C335 C 0.16506 0.90218 0.59418 0.0
C336 C 0.16431 0.89245 0.58153 0.0
C337 C 0.14391 0.87342 0.58062 0.0
C338 C 0.1345 0.87251 0.59145 0.0
C339 C 0.18174 0.88783 0.5818 0.0
C340 C 0.16502 0.90661 0.57174 0.0
H341 H 0.06893 0.8025 0.57072 0.0
H342 H 0.0659 0.82806 0.6133 0.0
H343 H 0.08318 0.86569 0.59833 0.0
H344 H 0.10798 0.8838 0.60393 0.0
H345 H 0.09099 0.86863 0.61465 0.0
H346 H 0.11021 0.8335 0.61368 0.0
H347 H 0.10385 0.84905 0.62312 0.0
H348 H 0.1278 0.85928 0.61691 0.0
H349 H 0.11276 0.81764 0.53489 0.0
H350 H 0.17252 0.86944 0.53632 0.0
H351 H 0.17031 0.87991 0.55721 0.0
H352 H 0.11823 0.80721 0.56328 0.0
H353 H 0.09479 0.79549 0.55349 0.0
H354 H 0.09594 0.80087 0.57008 0.0
H355 H 0.09289 0.84123 0.54814 0.0
H356 H 0.07711 0.82623 0.55882 0.0
H357 H 0.08069 0.81438 0.5451 0.0
H358 H 0.03878 0.78429 0.58086 0.0
C359 C 0.06879 0.80846 0.57991 0.0
C360 C 0.9363 0.51543 0.72444 0.0
C361 C 0.93841 0.53326 0.73029 0.0
C362 C 0.9478 0.53994 0.74261 0.0
C363 C 0.95172 0.51073 0.74322 0.0
C364 C 0.94299 0.50445 0.73105 0.0
C365 C 0.94101 0.48473 0.72639 0.0
H366 H 0.94868 0.40379 0.73851 0.0
C367 C 0.95605 0.49539 0.74763 0.0
C368 C 0.94992 0.48017 0.73778 0.0
H369 H 0.92419 0.41382 0.70439 0.0
H370 H 0.9338 0.44722 0.71312 0.0
H371 H 0.98829 0.44864 0.74384 0.0
H372 H 0.92922 0.42098 0.75619 0.0
H373 H 0.94623 0.43588 0.76912 0.0
H374 H 0.94805 0.41531 0.7618 0.0
H375 H 0.98082 0.43086 0.75516 0.0
H376 H 0.9913 0.45739 0.75964 0.0
C377 C 0.95388 0.48822 0.71536 0.0
C378 C 0.91831 0.46924 0.72311 0.0
C379 C 0.98271 0.50175 0.79283 0.0
C380 C 0.98694 0.48921 0.79979 0.0
C381 C 0.98524 0.4717 0.79363 0.0
C382 C 0.97894 0.46649 0.78086 0.0
C383 C 0.97409 0.47879 0.77414 0.0
C384 C 0.97632 0.49625 0.78008 0.0
C385 C 0.97038 0.50743 0.77144 0.0
C386 C 0.96398 0.49363 0.75939 0.0
C387 C 0.96607 0.47684 0.76106 0.0
C388 C 0.98922 0.5281 0.77043 0.0
C389 C 0.95254 0.5086 0.77646 0.0
C390 C 0.94538 0.41317 0.7329 0.0
C391 C 0.9355 0.40602 0.72077 0.0
C392 C 0.93191 0.41894 0.71372 0.0
C393 C 0.93731 0.43829 0.71887 0.0
C394 C 0.94624 0.44479 0.73123 0.0
C395 C 0.95046 0.43243 0.73795 0.0
C396 C 0.95956 0.44161 0.75103 0.0
C397 C 0.95986 0.46143 0.75112 0.0
C398 C 0.95198 0.46317 0.73951 0.0
C399 C 0.98108 0.44472 0.75263 0.0
C400 C 0.94522 0.42779 0.76009 0.0
H401 H 0.96128 0.53458 0.75846 0.0
H402 H 0.92942 0.51 0.71494 0.0
H403 H 0.90908 0.47207 0.72957 0.0
H404 H 0.91455 0.45364 0.7241 0.0
H405 H 0.91304 0.4701 0.71349 0.0
H406 H 0.96792 0.50313 0.71696 0.0
H407 H 0.94551 0.48783 0.70651 0.0
H408 H 0.95904 0.47724 0.71414 0.0
H409 H 0.98415 0.51546 0.79722 0.0
H410 H 0.98818 0.46164 0.79875 0.0
H411 H 0.97767 0.45283 0.77679 0.0
H412 H 0.00308 0.52696 0.77096 0.0
H413 H 0.99121 0.53938 0.7781 0.0
H414 H 0.9888 0.53394 0.76141 0.0
H415 H 0.94227 0.4945 0.78045 0.0
H416 H 0.94292 0.51017 0.76916 0.0
H417 H 0.95794 0.52122 0.78394 0.0
H418 H 0.94944 0.5535 0.7474 0.0
C419 C 0.95452 0.52883 0.74907 0.0
C420 C 0.60621 0.52524 0.7332 0.0
C421 C 0.62247 0.54236 0.73999 0.0
C422 C 0.62065 0.54751 0.7524 0.0
C423 C 0.58691 0.51862 0.751 0.0
C424 C 0.58872 0.51372 0.73883 0.0
C425 C 0.57036 0.49496 0.73285 0.0
H426 H 0.47903 0.41514 0.73789 0.0
C427 C 0.56683 0.50325 0.75404 0.0
C428 C 0.55708 0.48944 0.74337 0.0
H429 H 0.51304 0.42849 0.70598 0.0
H430 H 0.53895 0.45978 0.71712 0.0
H431 H 0.51617 0.429 0.75824 0.0
H432 H 0.4857 0.45868 0.74413 0.0
H433 H 0.4937 0.46847 0.7598 0.0
H434 H 0.47613 0.44193 0.75593 0.0
H435 H 0.49112 0.42252 0.76127 0.0
H436 H 0.51279 0.44168 0.77108 0.0
C437 C 0.57653 0.47907 0.72948 0.0
C438 C 0.56132 0.50051 0.7216 0.0
C439 C 0.54572 0.50479 0.79773 0.0
C440 C 0.52793 0.49218 0.80301 0.0
C441 C 0.51164 0.47634 0.79527 0.0
C442 C 0.51321 0.47256 0.78273 0.0
C443 C 0.53124 0.48475 0.77771 0.0
C444 C 0.547 0.50082 0.78507 0.0
C445 C 0.5647 0.5125 0.77785 0.0
C446 C 0.55703 0.50045 0.76508 0.0
C447 C 0.53749 0.48411 0.76516 0.0
C448 C 0.58296 0.51172 0.78397 0.0
C449 C 0.56808 0.53399 0.77752 0.0
C450 C 0.49188 0.42495 0.7332 0.0
C451 C 0.49401 0.41926 0.72105 0.0
C452 C 0.51116 0.43237 0.7154 0.0
C453 C 0.52618 0.45057 0.72188 0.0
C454 C 0.52411 0.45572 0.73418 0.0
C455 C 0.50704 0.44312 0.73956 0.0
C456 C 0.50744 0.45088 0.75271 0.0
C457 C 0.52774 0.47009 0.75442 0.0
C458 C 0.53745 0.47281 0.74357 0.0
C459 C 0.50672 0.43526 0.76136 0.0
C460 C 0.4898 0.45512 0.75329 0.0
H461 H 0.6025 0.54042 0.76739 0.0
H462 H 0.60718 0.52058 0.72374 0.0
H463 H 0.56311 0.51566 0.72362 0.0
H464 H 0.54496 0.49029 0.71941 0.0
H465 H 0.56892 0.50074 0.71317 0.0
H466 H 0.58854 0.48056 0.73647 0.0
H467 H 0.58239 0.48084 0.72024 0.0
H468 H 0.56414 0.46348 0.72955 0.0
H469 H 0.55849 0.51717 0.80336 0.0
H470 H 0.49753 0.46677 0.79893 0.0
H471 H 0.50031 0.46013 0.77745 0.0
H472 H 0.57823 0.49645 0.7867 0.0
H473 H 0.58991 0.52253 0.79249 0.0
H474 H 0.59462 0.51479 0.77764 0.0
H475 H 0.55349 0.53375 0.77685 0.0
H476 H 0.57527 0.5411 0.76929 0.0
H477 H 0.57726 0.5438 0.78609 0.0
H478 H 0.63287 0.56072 0.75781 0.0
C479 C 0.60296 0.53576 0.75793 0.0
C480 C 0.60508 0.10349 0.74071 0.0
C481 C 0.6198 0.09904 0.74525 0.0
C482 C 0.6172 0.08978 0.7564 0.0
C483 C 0.58619 0.09021 0.75836 0.0
C484 C 0.58849 0.09886 0.74732 0.0
C485 C 0.57147 0.10239 0.74357 0.0
H486 H 0.48756 0.1031 0.7575 0.0
C487 C 0.56753 0.08786 0.76302 0.0
C488 C 0.55882 0.09489 0.75434 0.0
H489 H 0.51676 0.11814 0.72363 0.0
H490 H 0.54119 0.10992 0.73165 0.0
H491 H 0.48857 0.06249 0.75815 0.0
H492 H 0.5275 0.12174 0.77694 0.0
H493 H 0.52313 0.10438 0.78785 0.0
H494 H 0.50225 0.1057 0.78051 0.0
H495 H 0.4817 0.07186 0.77144 0.0
H496 H 0.49601 0.05923 0.77307 0.0
C497 C 0.56026 0.08936 0.73108 0.0
C498 C 0.58032 0.12525 0.74306 0.0
C499 C 0.54724 0.06054 0.80475 0.0
C500 C 0.53103 0.05726 0.81155 0.0
C501 C 0.51682 0.06212 0.80658 0.0
C502 C 0.51862 0.07003 0.7951 0.0
C503 C 0.53484 0.0732 0.78843 0.0
C504 C 0.54881 0.06845 0.79325 0.0
C505 C 0.56502 0.07283 0.78479 0.0
C506 C 0.5584 0.08087 0.7741 0.0
C507 C 0.54073 0.08109 0.77632 0.0
C508 C 0.56415 0.05283 0.78059 0.0
C509 C 0.58538 0.08907 0.79188 0.0
C510 C 0.49905 0.10447 0.75171 0.0
C511 C 0.50025 0.11172 0.73995 0.0
C512 C 0.51567 0.11325 0.73286 0.0
C513 C 0.52981 0.10824 0.73748 0.0
C514 C 0.52856 0.10136 0.74929 0.0
C515 C 0.51315 0.09921 0.7561 0.0
C516 C 0.51357 0.09061 0.76816 0.0
C517 C 0.53197 0.08827 0.76754 0.0
C518 C 0.54082 0.09486 0.75654 0.0
C519 C 0.49395 0.07004 0.76782 0.0
C520 C 0.51663 0.10626 0.779 0.0
H521 H 0.59952 0.07841 0.77138 0.0
H522 H 0.60652 0.11074 0.73228 0.0
H523 H 0.5917 0.1339 0.75118 0.0
H524 H 0.56898 0.12995 0.74352 0.0
H525 H 0.58784 0.13012 0.73446 0.0
H526 H 0.56198 0.07587 0.7299 0.0
H527 H 0.56614 0.09799 0.72299 0.0
H528 H 0.54382 0.0832 0.73056 0.0
H529 H 0.55834 0.05683 0.80822 0.0
H530 H 0.50438 0.06009 0.81168 0.0
H531 H 0.50734 0.07347 0.79191 0.0
H532 H 0.54834 0.04015 0.77928 0.0
H533 H 0.57263 0.04919 0.78763 0.0
H534 H 0.56989 0.05291 0.77147 0.0
H535 H 0.58355 0.10057 0.79743 0.0
H536 H 0.59684 0.09755 0.78564 0.0
H537 H 0.59143 0.08232 0.79841 0.0
H538 H 0.62796 0.08573 0.76004 0.0
C539 C 0.60056 0.0854 0.76296 0.0
C540 C 0.82354 0.55986 0.92968 0.0
C541 C 0.84234 0.56532 0.92544 0.0
C542 C 0.8478 0.57635 0.91501 0.0
C543 C 0.81605 0.5759 0.91319 0.0
C544 C 0.81081 0.56543 0.92352 0.0
C545 C 0.79065 0.56134 0.92709 0.0
H546 H 0.7092 0.57237 0.91751 0.0
C547 C 0.79941 0.57923 0.90893 0.0
C548 C 0.78456 0.57088 0.9171 0.0
H549 H 0.72242 0.54238 0.94606 0.0
H550 H 0.7531 0.54976 0.93761 0.0
H551 H 0.75494 0.61004 0.91709 0.0
H552 H 0.72181 0.55219 0.89536 0.0
H553 H 0.73615 0.56991 0.88538 0.0
H554 H 0.71685 0.57214 0.89274 0.0
H555 H 0.73327 0.603 0.90629 0.0
H556 H 0.75798 0.61325 0.90121 0.0
C557 C 0.79397 0.57231 0.94026 0.0
C558 C 0.77643 0.53826 0.92606 0.0
C559 C 0.8032 0.61314 0.86963 0.0
C560 C 0.78995 0.61764 0.86294 0.0
C561 C 0.77165 0.61306 0.86767 0.0
C562 C 0.76662 0.60409 0.87882 0.0
C563 C 0.77996 0.59949 0.88531 0.0
C564 C 0.79791 0.60407 0.88066 0.0
C565 C 0.81014 0.59783 0.88859 0.0
C566 C 0.7965 0.58849 0.89868 0.0
C567 C 0.77886 0.58957 0.89679 0.0
C568 C 0.83013 0.61699 0.89385 0.0
C569 C 0.81279 0.58213 0.88056 0.0
C570 C 0.71863 0.56729 0.92191 0.0
C571 C 0.71337 0.55708 0.93268 0.0
C572 C 0.72622 0.55078 0.93803 0.0
C573 C 0.74406 0.55495 0.93303 0.0
C574 C 0.74925 0.56544 0.92247 0.0
C575 C 0.73653 0.57121 0.91696 0.0
C576 C 0.74425 0.58152 0.90545 0.0
C577 C 0.76397 0.5815 0.90524 0.0
C578 C 0.76679 0.5721 0.91527 0.0
C579 C 0.74773 0.60308 0.9075 0.0
C580 C 0.72901 0.56845 0.89409 0.0
H581 H 0.83987 0.58993 0.90099 0.0
H582 H 0.81865 0.55125 0.93758 0.0
H583 H 0.77976 0.53062 0.91828 0.0
H584 H 0.76044 0.53371 0.92386 0.0
H585 H 0.77814 0.53205 0.93475 0.0
H586 H 0.80844 0.58685 0.94155 0.0
H587 H 0.79447 0.5631 0.94762 0.0
H588 H 0.78244 0.57644 0.94194 0.0
H589 H 0.81724 0.61616 0.86619 0.0
H590 H 0.76125 0.61653 0.86277 0.0
H591 H 0.75252 0.60104 0.88195 0.0
H592 H 0.82803 0.63022 0.89524 0.0
H593 H 0.84189 0.62068 0.88741 0.0
H594 H 0.83591 0.61574 0.90316 0.0
H595 H 0.79872 0.57177 0.87444 0.0
H596 H 0.81588 0.57228 0.88614 0.0
H597 H 0.82502 0.58956 0.87449 0.0
H598 H 0.86231 0.5812 0.91165 0.0
C599 C 0.83478 0.58159 0.90886 0.0
C600 C 0.38808 0.1377 0.94745 0.0
C601 C 0.38581 0.1201 0.9411 0.0
C602 C 0.37612 0.11399 0.92885 0.0
C603 C 0.373 0.14373 0.92906 0.0
C604 C 0.38157 0.14921 0.94128 0.0
C605 C 0.3836 0.16874 0.9465 0.0
H606 H 0.38306 0.25361 0.93578 0.0
C607 C 0.36938 0.15971 0.92505 0.0
C608 C 0.37532 0.17431 0.93527 0.0
H609 H 0.39748 0.23719 0.97093 0.0
H610 H 0.3882 0.20449 0.96106 0.0
H611 H 0.40138 0.23323 0.91809 0.0
H612 H 0.34205 0.2127 0.92898 0.0
H613 H 0.3386 0.20143 0.91375 0.0
H614 H 0.35114 0.22849 0.91666 0.0
H615 H 0.38605 0.24381 0.91365 0.0
H616 H 0.38394 0.22235 0.90469 0.0
C617 C 0.40623 0.18387 0.95024 0.0
C618 C 0.3703 0.16458 0.95737 0.0
C619 C 0.34773 0.15814 0.87949 0.0
C620 C 0.34459 0.17158 0.87277 0.0
C621 C 0.34609 0.18873 0.87932 0.0
C622 C 0.35137 0.19284 0.89222 0.0
C623 C 0.35524 0.17969 0.8987 0.0
C624 C 0.35294 0.16245 0.89239 0.0
C625 C 0.35735 0.15005 0.90085 0.0
C626 C 0.36285 0.16281 0.91326 0.0
C627 C 0.36187 0.18028 0.9119 0.0
C628 C 0.37545 0.14876 0.89638 0.0
C629 C 0.33789 0.12945 0.90083 0.0
C630 C 0.38397 0.24296 0.94147 0.0
C631 C 0.39143 0.24833 0.95417 0.0
C632 C 0.39237 0.23381 0.96107 0.0
C633 C 0.38685 0.21473 0.95534 0.0
C634 C 0.38025 0.20999 0.94256 0.0
C635 C 0.37831 0.22378 0.93594 0.0
C636 C 0.37011 0.2158 0.92257 0.0
C637 C 0.36796 0.19511 0.92219 0.0
C638 C 0.37427 0.19195 0.93387 0.0
C639 C 0.38605 0.22948 0.91422 0.0
C640 C 0.34947 0.21462 0.92026 0.0
H641 H 0.36272 0.12037 0.91343 0.0
H642 H 0.39549 0.14289 0.95685 0.0
H643 H 0.35738 0.1489 0.95618 0.0
H644 H 0.36331 0.1741 0.95784 0.0
H645 H 0.37904 0.16674 0.96645 0.0
H646 H 0.41536 0.18309 0.94288 0.0
H647 H 0.4116 0.1805 0.95904 0.0
H648 H 0.40984 0.19964 0.9514 0.0
H649 H 0.34682 0.14488 0.87478 0.0
H650 H 0.34329 0.19911 0.87446 0.0
H651 H 0.35255 0.20628 0.89662 0.0
H652 H 0.38695 0.16348 0.8936 0.0
H653 H 0.37059 0.1374 0.88817 0.0
H654 H 0.3835 0.14521 0.90364 0.0
H655 H 0.32423 0.1308 0.89916 0.0
H656 H 0.33653 0.12326 0.9099 0.0
H657 H 0.33696 0.11832 0.89341 0.0
H658 H 0.37374 0.10026 0.92384 0.0
C659 C 0.36967 0.12567 0.92282 0.0
C660 C 0.73375 0.15916 0.93739 0.0
C661 C 0.71693 0.14176 0.93127 0.0
C662 C 0.71822 0.13467 0.91921 0.0
C663 C 0.75241 0.16241 0.91954 0.0
C664 C 0.75114 0.16922 0.93138 0.0
C665 C 0.76991 0.18832 0.93651 0.0
H666 H 0.86198 0.26429 0.92821 0.0
C667 C 0.7725 0.17663 0.91592 0.0
C668 C 0.78277 0.19183 0.92586 0.0
H669 H 0.82817 0.25762 0.95981 0.0
H670 H 0.80198 0.22514 0.95041 0.0
H671 H 0.85265 0.2186 0.92467 0.0
H672 H 0.82524 0.24941 0.90787 0.0
H673 H 0.82618 0.23359 0.8959 0.0
H674 H 0.84927 0.25317 0.90439 0.0
H675 H 0.86376 0.23505 0.91289 0.0
H676 H 0.8457 0.20867 0.90897 0.0
C677 C 0.77907 0.18414 0.94833 0.0
C678 C 0.76437 0.20496 0.93873 0.0
C679 C 0.7924 0.16625 0.87316 0.0
C680 C 0.81004 0.17728 0.86736 0.0
C681 C 0.82637 0.19459 0.87405 0.0
C682 C 0.82518 0.2009 0.8862 0.0
C683 C 0.80742 0.18993 0.8918 0.0
C684 C 0.79145 0.17281 0.88537 0.0
C685 C 0.77387 0.16306 0.89295 0.0
C686 C 0.78195 0.17727 0.90492 0.0
C687 C 0.80156 0.19303 0.90411 0.0
C688 C 0.77011 0.14187 0.89512 0.0
C689 C 0.75573 0.16316 0.88603 0.0
C690 C 0.84892 0.25586 0.93311 0.0
C691 C 0.84716 0.26367 0.94476 0.0
C692 C 0.83006 0.25195 0.95089 0.0
C693 C 0.81472 0.23314 0.94535 0.0
C694 C 0.81637 0.22593 0.93348 0.0
C695 C 0.83339 0.23712 0.92765 0.0
C696 C 0.83243 0.22726 0.91501 0.0
C697 C 0.81183 0.20848 0.91411 0.0
C698 C 0.80251 0.2078 0.92494 0.0
C699 C 0.84955 0.2222 0.91526 0.0
C700 C 0.83346 0.24153 0.90521 0.0
H701 H 0.73584 0.1388 0.90414 0.0
H702 H 0.73349 0.16491 0.94672 0.0
H703 H 0.75175 0.20245 0.93188 0.0
H704 H 0.77673 0.22007 0.93742 0.0
H705 H 0.7596 0.20526 0.94818 0.0
H706 H 0.77728 0.16889 0.94713 0.0
H707 H 0.77151 0.1849 0.9566 0.0
H708 H 0.79543 0.19451 0.95038 0.0
H709 H 0.77963 0.15279 0.86833 0.0
H710 H 0.84002 0.20359 0.86979 0.0
H711 H 0.8381 0.21427 0.8907 0.0
H712 H 0.7846 0.14206 0.89679 0.0
H713 H 0.76131 0.13088 0.88688 0.0
H714 H 0.76232 0.13622 0.90345 0.0
H715 H 0.76075 0.17729 0.88157 0.0
H716 H 0.74476 0.16268 0.89229 0.0
H717 H 0.74787 0.1504 0.87859 0.0
H718 H 0.70546 0.12143 0.9142 0.0
C719 C 0.73585 0.14486 0.91334 0.0
C720 C 0.60693 0.85635 0.05742 0.0
C721 C 0.60782 0.87308 0.06405 0.0
C722 C 0.61571 0.87809 0.07669 0.0
C723 C 0.6202 0.84913 0.0761 0.0
C724 C 0.61308 0.84461 0.06361 0.0
C725 C 0.6119 0.82565 0.0581 0.0
H726 H 0.6148 0.74136 0.067 0.0
C727 C 0.62398 0.83313 0.0799 0.0
C728 C 0.61925 0.81939 0.06938 0.0
H729 H 0.59942 0.75877 0.03259 0.0
H730 H 0.60797 0.79092 0.04307 0.0
H731 H 0.65525 0.78485 0.07555 0.0
H732 H 0.59405 0.75774 0.08436 0.0
H733 H 0.60976 0.76969 0.0983 0.0
H734 H 0.61101 0.74958 0.08984 0.0
H735 H 0.64545 0.76587 0.08607 0.0
H736 H 0.65626 0.7922 0.09138 0.0
C737 C 0.62646 0.83107 0.04786 0.0
C738 C 0.58957 0.81043 0.05343 0.0
C739 C 0.64484 0.83303 0.12536 0.0
C740 C 0.64803 0.81944 0.13186 0.0
C741 C 0.64644 0.80238 0.12511 0.0
C742 C 0.6414 0.79875 0.11218 0.0
C743 C 0.63776 0.81221 0.10589 0.0
C744 C 0.63972 0.82912 0.11245 0.0
C745 C 0.63508 0.84165 0.10423 0.0
C746 C 0.63008 0.82948 0.09165 0.0
C747 C 0.63155 0.8122 0.0927 0.0
C748 C 0.65431 0.86251 0.1046 0.0
C749 C 0.61664 0.84226 0.10871 0.0
C750 C 0.61363 0.75222 0.06166 0.0
C751 C 0.60618 0.74739 0.04897 0.0
C752 C 0.60473 0.76195 0.04242 0.0
C753 C 0.60973 0.78063 0.04852 0.0
C754 C 0.61611 0.78479 0.06134 0.0
C755 C 0.6185 0.77093 0.06762 0.0
C756 C 0.62561 0.77802 0.0812 0.0
C757 C 0.62664 0.79823 0.08208 0.0
C758 C 0.62085 0.80199 0.07045 0.0
C759 C 0.64667 0.78026 0.08381 0.0
C760 C 0.60944 0.76301 0.08892 0.0
H761 H 0.62752 0.87068 0.0924 0.0
H762 H 0.60125 0.85226 0.04765 0.0
H763 H 0.57943 0.81137 0.05999 0.0
H764 H 0.58593 0.79465 0.05286 0.0
H765 H 0.58535 0.81353 0.04416 0.0
H766 H 0.63973 0.84643 0.05014 0.0
H767 H 0.61891 0.83071 0.03869 0.0
H768 H 0.6329 0.82111 0.04695 0.0
H769 H 0.64621 0.84643 0.13021 0.0
H770 H 0.64859 0.79154 0.12987 0.0
H771 H 0.64019 0.78538 0.10763 0.0
H772 H 0.66801 0.86109 0.10512 0.0
H773 H 0.65577 0.87261 0.11286 0.0
H774 H 0.65487 0.86994 0.0961 0.0
H775 H 0.60595 0.82777 0.11215 0.0
H776 H 0.60762 0.84425 0.10121 0.0
H777 H 0.6213 0.85433 0.11645 0.0
H778 H 0.61644 0.8908 0.08206 0.0
C779 C 0.62197 0.86627 0.08273 0.0
C780 C 0.27342 0.85818 0.06662 0.0
C781 C 0.29091 0.87344 0.07374 0.0
C782 C 0.29002 0.87759 0.08652 0.0
C783 C 0.255 0.85118 0.08482 0.0
C784 C 0.2559 0.84716 0.07233 0.0
C785 C 0.23675 0.82939 0.06619 0.0
H786 H 0.14518 0.75041 0.07162 0.0
C787 C 0.23467 0.83651 0.08788 0.0
C788 C 0.22401 0.82363 0.07699 0.0
H789 H 0.17795 0.76458 0.03917 0.0
H790 H 0.20412 0.79568 0.05032 0.0
H791 H 0.18265 0.76383 0.09175 0.0
H792 H 0.15234 0.79416 0.07847 0.0
H793 H 0.16175 0.80462 0.09394 0.0
H794 H 0.14347 0.77815 0.09069 0.0
H795 H 0.15739 0.75709 0.09444 0.0
H796 H 0.17859 0.77581 0.10471 0.0
C797 C 0.24151 0.81287 0.06162 0.0
C798 C 0.22794 0.83661 0.05578 0.0
C799 C 0.21488 0.83851 0.13187 0.0
C800 C 0.19683 0.82683 0.13716 0.0
C801 C 0.18001 0.81162 0.12943 0.0
C802 C 0.18124 0.80762 0.11684 0.0
C803 C 0.19946 0.81896 0.11179 0.0
C804 C 0.2158 0.83438 0.11918 0.0
C805 C 0.23366 0.84523 0.11195 0.0
C806 C 0.22526 0.83371 0.09907 0.0
C807 C 0.20531 0.81816 0.09914 0.0
C808 C 0.25103 0.84268 0.11776 0.0
C809 C 0.23873 0.86733 0.11203 0.0
C810 C 0.15782 0.76036 0.06683 0.0
C811 C 0.1596 0.75487 0.05454 0.0
C812 C 0.1764 0.76824 0.04872 0.0
C813 C 0.19159 0.78631 0.0552 0.0
C814 C 0.19007 0.79108 0.06769 0.0
C815 C 0.17318 0.77842 0.07321 0.0
C816 C 0.17412 0.78596 0.08653 0.0
C817 C 0.19478 0.80478 0.08824 0.0
C818 C 0.20403 0.80764 0.0772 0.0
C819 C 0.17303 0.76988 0.09488 0.0
C820 C 0.15701 0.79089 0.08757 0.0
H821 H 0.27253 0.87041 0.10182 0.0
H822 H 0.27328 0.85464 0.05677 0.0
H823 H 0.22982 0.85153 0.05885 0.0
H824 H 0.2116 0.82658 0.05333 0.0
H825 H 0.23569 0.83816 0.04724 0.0
H826 H 0.25459 0.81407 0.06739 0.0
H827 H 0.24517 0.81407 0.05182 0.0
H828 H 0.22914 0.79751 0.06243 0.0
H829 H 0.2281 0.85034 0.1375 0.0
H830 H 0.16574 0.80278 0.13309 0.0
H831 H 0.16795 0.79573 0.11155 0.0
H832 H 0.24512 0.82761 0.12113 0.0
H833 H 0.25966 0.85413 0.12582 0.0
H834 H 0.26148 0.84343 0.111 0.0
H835 H 0.22473 0.86815 0.11073 0.0
H836 H 0.24745 0.87486 0.10436 0.0
H837 H 0.24716 0.87617 0.12102 0.0
H838 H 0.30324 0.889 0.09235 0.0
C839 C 0.27217 0.86664 0.09206 0.0
C840 C 0.27615 0.43978 0.07533 0.0
C841 C 0.29097 0.4357 0.08015 0.0
C842 C 0.28848 0.42689 0.09145 0.0
C843 C 0.25691 0.42641 0.09284 0.0
C844 C 0.25938 0.43505 0.08177 0.0
C845 C 0.24241 0.43857 0.07789 0.0
H846 H 0.15392 0.43198 0.08892 0.0
C847 C 0.23782 0.42343 0.09714 0.0
C848 C 0.22927 0.43054 0.08839 0.0
H849 H 0.18903 0.45671 0.05825 0.0
H850 H 0.21374 0.44882 0.06647 0.0
H851 H 0.15924 0.3937 0.08917 0.0
H852 H 0.19158 0.45207 0.11004 0.0
H853 H 0.18875 0.43449 0.12046 0.0
H854 H 0.1667 0.43342 0.11285 0.0
H855 H 0.14909 0.40088 0.10168 0.0
H856 H 0.16477 0.38996 0.10442 0.0
C857 C 0.23176 0.42591 0.06523 0.0
C858 C 0.25117 0.46149 0.07766 0.0
C859 C 0.21478 0.39262 0.13765 0.0
C860 C 0.19758 0.38785 0.14379 0.0
C861 C 0.18298 0.39182 0.13837 0.0
C862 C 0.1854 0.4004 0.12712 0.0
C863 C 0.20264 0.40514 0.12111 0.0
C864 C 0.21694 0.40115 0.12634 0.0
C865 C 0.23412 0.40697 0.11847 0.0
C866 C 0.22783 0.41525 0.10777 0.0
C867 C 0.20939 0.41418 0.10942 0.0
C868 C 0.23453 0.3877 0.11406 0.0
C869 C 0.25366 0.42338 0.12626 0.0
C870 C 0.16701 0.43586 0.08402 0.0
C871 C 0.16943 0.44496 0.07288 0.0
C872 C 0.18659 0.44944 0.06674 0.0
C873 C 0.20103 0.44496 0.07159 0.0
C874 C 0.1984 0.43589 0.08273 0.0
C875 C 0.18161 0.4315 0.08875 0.0
C876 C 0.18135 0.42195 0.1005 0.0
C877 C 0.20079 0.4214 0.10057 0.0
C878 C 0.21069 0.42956 0.09013 0.0
C879 C 0.16262 0.40055 0.099 0.0
C880 C 0.18198 0.43602 0.1116 0.0
H881 H 0.27055 0.41551 0.10632 0.0
H882 H 0.27768 0.44681 0.06679 0.0
H883 H 0.26392 0.47014 0.08507 0.0
H884 H 0.24023 0.46633 0.07963 0.0
H885 H 0.25687 0.46638 0.06858 0.0
H886 H 0.23124 0.4112 0.06485 0.0
H887 H 0.23985 0.4338 0.05737 0.0
H888 H 0.21589 0.42202 0.06362 0.0
H889 H 0.22619 0.38959 0.14149 0.0
H890 H 0.16974 0.38859 0.14296 0.0
H891 H 0.17375 0.4031 0.12356 0.0
H892 H 0.219 0.37463 0.11204 0.0
H893 H 0.24261 0.38395 0.12132 0.0
H894 H 0.24141 0.38881 0.10528 0.0
H895 H 0.25073 0.43397 0.13196 0.0
H896 H 0.26543 0.43289 0.12047 0.0
H897 H 0.25982 0.41664 0.13272 0.0
H898 H 0.29951 0.42336 0.09533 0.0
C899 C 0.27157 0.42223 0.0978 0.0
C900 C 0.48936 0.89514 0.26315 0.0
C901 C 0.50816 0.9006 0.2589 0.0
C902 C 0.51363 0.91169 0.24849 0.0
C903 C 0.48183 0.91115 0.24664 0.0
C904 C 0.4766 0.90068 0.25698 0.0
C905 C 0.45642 0.89656 0.26053 0.0
H906 H 0.37329 0.9046 0.2497 0.0
C907 C 0.4651 0.91431 0.24231 0.0
C908 C 0.45023 0.90594 0.25047 0.0
H909 H 0.38833 0.87815 0.27969 0.0
H910 H 0.41935 0.88597 0.27145 0.0
H911 H 0.41823 0.94335 0.24964 0.0
H912 H 0.38808 0.8853 0.22805 0.0
H913 H 0.40156 0.90351 0.21808 0.0
H914 H 0.38146 0.90414 0.22543 0.0
H915 H 0.39715 0.93569 0.23821 0.0
H916 H 0.42242 0.94673 0.23393 0.0
C917 C 0.45964 0.9076 0.27367 0.0
C918 C 0.44229 0.87349 0.25957 0.0
C919 C 0.46882 0.94797 0.20289 0.0
C920 C 0.45551 0.95229 0.19612 0.0
C921 C 0.43696 0.94723 0.20066 0.0
C922 C 0.4318 0.93806 0.21174 0.0
C923 C 0.44527 0.93374 0.21834 0.0
C924 C 0.46342 0.93872 0.21386 0.0
C925 C 0.47577 0.93275 0.22191 0.0
C926 C 0.46206 0.92329 0.23194 0.0
C927 C 0.44421 0.92395 0.22988 0.0
C928 C 0.49557 0.95208 0.22721 0.0
C929 C 0.47877 0.91721 0.21396 0.0
C930 C 0.38323 0.9004 0.25444 0.0
C931 C 0.37835 0.89091 0.26547 0.0
C932 C 0.39182 0.88582 0.27135 0.0
C933 C 0.40984 0.89028 0.2665 0.0
C934 C 0.41462 0.89996 0.2556 0.0
C935 C 0.40142 0.90482 0.24971 0.0
C936 C 0.40913 0.91502 0.23818 0.0
C937 C 0.42925 0.91575 0.23828 0.0
C938 C 0.4323 0.90683 0.2485 0.0
C939 C 0.41181 0.9363 0.23996 0.0
C940 C 0.39431 0.90147 0.22678 0.0
H941 H 0.50568 0.92528 0.23448 0.0
H942 H 0.48447 0.88653 0.27104 0.0
H943 H 0.44492 0.86599 0.25137 0.0
H944 H 0.42621 0.86888 0.25811 0.0
H945 H 0.44493 0.86723 0.268 0.0
H946 H 0.47462 0.92157 0.27529 0.0
H947 H 0.45886 0.89797 0.28109 0.0
H948 H 0.44878 0.91279 0.27497 0.0
H949 H 0.48305 0.95134 0.19959 0.0
H950 H 0.42648 0.95054 0.1957 0.0
H951 H 0.41751 0.93464 0.21471 0.0
H952 H 0.49317 0.96512 0.22862 0.0
H953 H 0.50738 0.95603 0.22078 0.0
H954 H 0.50142 0.95089 0.23652 0.0
H955 H 0.46486 0.90679 0.20773 0.0
H956 H 0.48184 0.9074 0.2196 0.0
H957 H 0.49115 0.92478 0.20801 0.0
H958 H 0.52814 0.9166 0.24513 0.0
C959 C 0.50059 0.91691 0.24234 0.0
C960 C 0.05331 0.46482 0.28112 0.0
C961 C 0.05079 0.44713 0.27477 0.0
C962 C 0.04114 0.44114 0.2625 0.0
C963 C 0.03832 0.47107 0.26279 0.0
C964 C 0.04696 0.47646 0.27499 0.0
C965 C 0.04935 0.49611 0.28024 0.0
H966 H 0.04608 0.5801 0.27064 0.0
C967 C 0.03472 0.48712 0.25889 0.0
C968 C 0.0409 0.50171 0.26913 0.0
H969 H 0.0658 0.56534 0.30468 0.0
H970 H 0.05623 0.53254 0.29474 0.0
H971 H 0.06494 0.56154 0.25235 0.0
H972 H 0.00556 0.53749 0.26396 0.0
H973 H 0.00239 0.52795 0.24832 0.0
H974 H 0.01406 0.55475 0.25235 0.0
H975 H 0.04825 0.57056 0.2479 0.0
H976 H 0.04749 0.54964 0.23907 0.0
C977 C 0.07211 0.51108 0.28376 0.0
C978 C 0.03634 0.49212 0.29125 0.0
C979 C 0.0124 0.48596 0.21352 0.0
C980 C 0.00911 0.49946 0.20697 0.0
C981 C 0.01012 0.51624 0.21371 0.0
C982 C 0.01523 0.52002 0.22663 0.0
C983 C 0.01946 0.50695 0.23293 0.0
C984 C 0.01748 0.48996 0.22644 0.0
C985 C 0.02217 0.47756 0.23474 0.0
C986 C 0.02774 0.49017 0.24722 0.0
C987 C 0.02638 0.50749 0.24606 0.0
C988 C 0.04028 0.4765 0.2301 0.0
C989 C 0.00284 0.45685 0.23472 0.0
C990 C 0.04803 0.56969 0.27602 0.0
C991 C 0.05686 0.57539 0.28844 0.0
C992 C 0.05934 0.56143 0.29504 0.0
C993 C 0.05372 0.54237 0.28926 0.0
C994 C 0.04567 0.53721 0.2767 0.0
C995 C 0.0426 0.55063 0.27036 0.0
C996 C 0.03398 0.54262 0.25705 0.0
C997 C 0.03259 0.52225 0.25641 0.0
C998 C 0.03962 0.51926 0.26791 0.0
C999 C 0.04929 0.55678 0.24856 0.0
C1000 C 0.01296 0.54068 0.2552 0.0
H1001 H 0.02792 0.44778 0.2471 0.0
H1002 H 0.0608 0.46997 0.29051 0.0
H1003 H 0.02261 0.47696 0.28967 0.0
H1004 H 0.03058 0.50263 0.29239 0.0
H1005 H 0.04484 0.49285 0.30012 0.0
H1006 H 0.08115 0.50903 0.2768 0.0
H1007 H 0.07731 0.50876 0.293 0.0
H1008 H 0.07614 0.52695 0.28385 0.0
H1009 H 0.0118 0.47295 0.20866 0.0
H1010 H 0.00716 0.52661 0.20897 0.0
H1011 H 0.01606 0.5332 0.23117 0.0
H1012 H 0.05175 0.49136 0.22749 0.0
H1013 H 0.03544 0.4654 0.22176 0.0
H1014 H 0.04832 0.47269 0.23723 0.0
H1015 H 0.98908 0.45806 0.23315 0.0
H1016 H 0.00164 0.45061 0.24377 0.0
H1017 H 0.00196 0.44584 0.22724 0.0
H1018 H 0.03865 0.42738 0.25748 0.0
C1019 C 0.03486 0.45298 0.2565 0.0
C1020 C 0.40168 0.48701 0.27118 0.0
C1021 C 0.3866 0.46762 0.26613 0.0
C1022 C 0.38928 0.45935 0.25489 0.0
C1023 C 0.4213 0.48966 0.25392 0.0
C1024 C 0.41882 0.49758 0.26503 0.0
C1025 C 0.43629 0.51811 0.2694 0.0
H1026 H 0.52606 0.5967 0.25983 0.0
C1027 C 0.44074 0.50472 0.24992 0.0
C1028 C 0.44964 0.52132 0.25905 0.0
H1029 H 0.49115 0.59064 0.29078 0.0
H1030 H 0.46609 0.55726 0.28201 0.0
H1031 H 0.51943 0.55202 0.25809 0.0
H1032 H 0.48906 0.57835 0.23908 0.0
H1033 H 0.4903 0.56164 0.22793 0.0
H1034 H 0.51328 0.58271 0.23557 0.0
H1035 H 0.53021 0.56853 0.24628 0.0
H1036 H 0.51398 0.54178 0.24244 0.0
C1037 C 0.44617 0.51699 0.28203 0.0
C1038 C 0.42847 0.53315 0.26989 0.0
C1039 C 0.46205 0.49263 0.20805 0.0
C1040 C 0.47906 0.50435 0.20187 0.0
C1041 C 0.49435 0.523 0.20791 0.0
C1042 C 0.49272 0.52998 0.21977 0.0
C1043 C 0.47554 0.51831 0.22573 0.0
C1044 C 0.46064 0.49988 0.21995 0.0
C1045 C 0.44357 0.48956 0.22784 0.0
C1046 C 0.45054 0.50506 0.23914 0.0
C1047 C 0.46927 0.52187 0.23779 0.0
C1048 C 0.44249 0.46985 0.23122 0.0
C1049 C 0.42415 0.48651 0.22057 0.0
C1050 C 0.51298 0.58822 0.2647 0.0
C1051 C 0.51065 0.59639 0.27604 0.0
C1052 C 0.4935 0.58467 0.28213 0.0
C1053 C 0.47886 0.5653 0.27696 0.0
C1054 C 0.48127 0.55749 0.26553 0.0
C1055 C 0.49816 0.56887 0.25964 0.0
C1056 C 0.49807 0.55823 0.24749 0.0
C1057 C 0.47833 0.53856 0.24709 0.0
C1058 C 0.46857 0.53825 0.25766 0.0
C1059 C 0.51641 0.55502 0.24849 0.0
C1060 C 0.49781 0.57082 0.23691 0.0
H1061 H 0.40761 0.46316 0.24025 0.0
H1062 H 0.40015 0.49405 0.27968 0.0
H1063 H 0.41655 0.5291 0.2621 0.0
H1064 H 0.44018 0.54866 0.26875 0.0
H1065 H 0.42191 0.53318 0.27874 0.0
H1066 H 0.44497 0.50205 0.28242 0.0
H1067 H 0.43877 0.51933 0.28994 0.0
H1068 H 0.46249 0.52786 0.28359 0.0
H1069 H 0.45012 0.47815 0.20374 0.0
H1070 H 0.50746 0.53251 0.20333 0.0
H1071 H 0.50482 0.54435 0.22376 0.0
H1072 H 0.45774 0.47157 0.23229 0.0
H1073 H 0.43317 0.45726 0.22386 0.0
H1074 H 0.4366 0.46549 0.24027 0.0
H1075 H 0.42725 0.50016 0.216 0.0
H1076 H 0.41225 0.48403 0.22659 0.0
H1077 H 0.41807 0.47367 0.21319 0.0
H1078 H 0.37817 0.44432 0.25086 0.0
C1079 C 0.40649 0.47026 0.24876 0.0
Tb1080 Tb 0.4985 0.99316 0.99235 0.0
Eu1081 Eu 0.51602 0.02352 0.01876 0.0
C1082 C 0.52161 0.98526 0.01376 0.0
C1083 C 0.47339 0.98301 0.01558 0.0
C1084 C 0.49166 0.97909 0.95858 0.0
C1085 C 0.48579 0.97093 0.93612 0.0
C1086 C 0.48167 0.9651 0.9481 0.0
C1087 C 0.50589 0.99899 0.95698 0.0
C1088 C 0.51002 0.00483 0.94503 0.0
C1089 C 0.49997 0.9909 0.93443 0.0
C1090 C 0.48707 0.97309 0.97117 0.0
O1091 O 0.4981 0.02039 0.98891 0.0
O1092 O 0.49316 0.02878 0.00842 0.0
O1093 O 0.53614 0.04121 0.00454 0.0
O1094 O 0.53047 0.01362 0.99175 0.0
C1095 C 0.49129 0.02915 0.99634 0.0
O1096 O 0.5125 0.04222 0.03321 0.0
O1097 O 0.5382 0.03809 0.03509 0.0
O1098 O 0.53038 0.00435 0.01797 0.0
O1099 O 0.50568 0.97687 0.00552 0.0
O1100 O 0.47296 0.98244 0.00337 0.0
O1101 O 0.48989 0.99465 0.023 0.0
C1102 C 0.54111 0.03296 0.99545 0.0
O1103 O 0.50212 0.97515 0.97857 0.0
O1104 O 0.47684 0.97991 0.97677 0.0
C1105 C 0.5229 0.03851 0.05322 0.0
C1106 C 0.51223 0.02679 0.07712 0.0
C1107 C 0.52448 0.04721 0.0754 0.0
C1108 C 0.52971 0.05301 0.06354 0.0
C1109 C 0.51091 0.01813 0.05491 0.0
C1110 C 0.5056 0.01233 0.06673 0.0
C1111 C 0.5276 0.04451 0.04064 0.0
H1112 H 0.4776 0.95987 0.92817 0.0
H1113 H 0.47059 0.9497 0.94916 0.0
H1114 H 0.51378 0.01001 0.96499 0.0
H1115 H 0.52122 0.02024 0.9441 0.0
H1116 H 0.52969 0.05873 0.08319 0.0
H1117 H 0.5389 0.06881 0.06239 0.0
H1118 H 0.50555 0.00669 0.04707 0.0
H1119 H 0.49641 0.99648 0.06773 0.0
Tb1120 Tb 0.0173 0.51101 0.99164 0.0
Eu1121 Eu 0.99229 0.50475 0.01617 0.0
C1122 C 0.02767 0.54668 0.01088 0.0
C1123 C 0.03076 0.49913 0.01651 0.0
C1124 C 0.03202 0.51496 0.95939 0.0
C1125 C 0.04362 0.52228 0.939 0.0
C1126 C 0.04776 0.52351 0.95187 0.0
C1127 C 0.01203 0.5052 0.95394 0.0
C1128 C 0.00786 0.50387 0.94104 0.0
C1129 C 0.02363 0.51242 0.93344 0.0
C1130 C 0.0367 0.51662 0.97289 0.0
O1131 O 0.98923 0.48274 0.98736 0.0
O1132 O 0.98438 0.47424 0.00726 0.0
O1133 O 0.97229 0.5055 1.00051 0.0
O1134 O 0.99545 0.52016 0.98642 0.0
C1135 C 0.98119 0.46916 0.99518 0.0
O1136 O 0.96787 0.48663 0.02718 0.0
O1137 O 0.98864 0.51802 0.03344 0.0
O1138 O 0.00884 0.53739 0.01311 0.0
O1139 O 0.03519 0.53665 0.00544 0.0
O1140 O 0.02845 0.49697 0.00426 0.0
O1141 O 0.02091 0.50559 0.02306 0.0
C1142 C 0.97772 0.51447 0.99033 0.0
O1143 O 0.03545 0.53072 0.97933 0.0
O1144 O 0.02847 0.49983 0.978 0.0
C1145 C 0.97478 0.49663 0.04896 0.0
C1146 C 0.98001 0.4915 0.07417 0.0
C1147 C 0.98442 0.48118 0.06486 0.0
C1148 C 0.98197 0.48385 0.05232 0.0
C1149 C 0.96982 0.50642 0.0582 0.0
C1150 C 0.97245 0.50393 0.0707 0.0
C1151 C 0.97362 0.50119 0.03607 0.0
H1152 H 0.05607 0.5288 0.93338 0.0
H1153 H 0.06327 0.53112 0.95597 0.0
H1154 H 0.9997 0.49867 0.95966 0.0
H1155 H 0.99232 0.49637 0.93703 0.0
H1156 H 0.9904 0.47162 0.06733 0.0
H1157 H 0.98609 0.47633 0.0453 0.0
H1158 H 0.96432 0.51639 0.05576 0.0
H1159 H 0.96875 0.5119 0.07768 0.0
Tb1160 Tb 0.50959 0.49599 0.01506 0.0
Eu1161 Eu 0.48753 0.50022 0.98908 0.0
C1162 C 0.48346 0.45891 0.99522 0.0
C1163 C 0.53195 0.50512 0.99069 0.0
C1164 C 0.51811 0.49026 0.04831 0.0
C1165 C 0.51994 0.4793 0.06871 0.0
C1166 C 0.52535 0.48137 0.05653 0.0
C1167 C 0.50493 0.49654 0.0523 0.0
C1168 C 0.49961 0.49458 0.06446 0.0
C1169 C 0.50729 0.48622 0.07286 0.0
C1170 C 0.52495 0.49367 0.03581 0.0
O1171 O 0.52425 0.52742 0.01166 0.0
O1172 O 0.49672 0.5272 0.00265 0.0
O1173 O 0.46318 0.48647 1.00182 0.0
O1174 O 0.48328 0.49705 0.02047 0.0
C1175 C 0.51459 0.53687 0.00888 0.0
O1176 O 0.48552 0.51965 0.976 0.0
O1177 O 0.46538 0.48744 0.97262 0.0
O1178 O 0.48705 0.47098 0.9865 0.0
O1179 O 0.48734 0.46566 0.00708 0.0
O1180 O 0.52895 0.49637 1.00107 0.0
O1181 O 0.51958 0.51049 0.98568 0.0
C1182 C 0.46553 0.48952 0.01405 0.0
O1183 O 0.51544 0.47863 0.02717 0.0
O1184 O 0.52794 0.5104 0.03179 0.0
C1185 C 0.47743 0.5051 0.9551 0.0
C1186 C 0.48667 0.50517 0.93027 0.0
C1187 C 0.50211 0.51528 0.94009 0.0
C1188 C 0.49755 0.51514 0.9524 0.0
C1189 C 0.462 0.49506 0.94531 0.0
C1190 C 0.46657 0.49502 0.93299 0.0
C1191 C 0.47243 0.50469 0.96805 0.0
H1192 H 0.5262 0.47293 0.07499 0.0
H1193 H 0.53552 0.47641 0.05361 0.0
H1194 H 0.49911 0.50338 0.0461 0.0
H1195 H 0.48962 0.49981 0.06733 0.0
H1196 H 0.51774 0.52299 0.93828 0.0
H1197 H 0.50977 0.52281 0.9598 0.0
H1198 H 0.44641 0.48718 0.94719 0.0
H1199 H 0.45437 0.48721 0.92559 0.0
Tb1200 Tb 0.16345 0.32069 0.32382 0.0
Eu1201 Eu 0.18207 0.34948 0.35078 0.0
C1202 C 0.18795 0.31206 0.3439 0.0
C1203 C 0.13913 0.30991 0.34729 0.0
C1204 C 0.15446 0.30685 0.28995 0.0
C1205 C 0.14998 0.29803 0.26758 0.0
C1206 C 0.14604 0.29235 0.2796 0.0
C1207 C 0.16692 0.32711 0.28817 0.0
C1208 C 0.17091 0.33281 0.27618 0.0
C1209 C 0.16247 0.31834 0.26572 0.0
C1210 C 0.15041 0.30089 0.30259 0.0
O1211 O 0.16422 0.34866 0.32121 0.0
O1212 O 0.15957 0.35599 0.34102 0.0
O1213 O 0.20304 0.36782 0.33715 0.0
O1214 O 0.19495 0.34167 0.32208 0.0
C1215 C 0.1578 0.35727 0.32903 0.0
O1216 O 0.18006 0.36907 0.36537 0.0
O1217 O 0.20329 0.36132 0.36763 0.0
O1218 O 0.19697 0.331 0.34842 0.0
O1219 O 0.17136 0.30396 0.33623 0.0
O1220 O 0.13839 0.3111 0.3352 0.0
O1221 O 0.15608 0.32006 0.35454 0.0
C1222 C 0.20671 0.36037 0.32703 0.0
O1223 O 0.1656 0.30234 0.30955 0.0
O1224 O 0.14101 0.30823 0.30865 0.0
C1225 C 0.18836 0.36373 0.3855 0.0
C1226 C 0.17678 0.35275 0.40938 0.0
C1227 C 0.18996 0.37296 0.4076 0.0
C1228 C 0.19566 0.37839 0.39575 0.0
C1229 C 0.17529 0.34357 0.38722 0.0
C1230 C 0.16953 0.33812 0.39903 0.0
C1231 C 0.19401 0.36945 0.37301 0.0
H1232 H 0.14342 0.28649 0.25976 0.0
H1233 H 0.13645 0.27663 0.28082 0.0
H1234 H 0.1735 0.33854 0.29607 0.0
H1235 H 0.18036 0.34859 0.27509 0.0
H1236 H 0.19564 0.38463 0.41533 0.0
H1237 H 0.20568 0.39405 0.39459 0.0
H1238 H 0.16955 0.33203 0.37941 0.0
H1239 H 0.15961 0.32241 0.40007 0.0
Tb1240 Tb 0.68203 0.84364 0.3238 0.0
Eu1241 Eu 0.65645 0.83659 0.34822 0.0
C1242 C 0.693 0.87875 0.34374 0.0
C1243 C 0.69549 0.8317 0.34883 0.0
C1244 C 0.69611 0.84716 0.29145 0.0
C1245 C 0.70702 0.85344 0.27084 0.0
C1246 C 0.71157 0.85526 0.28371 0.0
C1247 C 0.67599 0.83726 0.28623 0.0
C1248 C 0.67141 0.83534 0.27334 0.0
C1249 C 0.68689 0.84343 0.26551 0.0
C1250 C 0.70117 0.84929 0.30494 0.0
O1251 O 0.65408 0.8153 0.31932 0.0
O1252 O 0.64884 0.80632 0.33908 0.0
O1253 O 0.63676 0.83748 0.33242 0.0
O1254 O 0.66071 0.85368 0.31906 0.0
C1255 C 0.64591 0.80151 0.32699 0.0
O1256 O 0.6323 0.81777 0.3592 0.0
O1257 O 0.65139 0.84955 0.3651 0.0
O1258 O 0.67416 0.8696 0.34602 0.0
O1259 O 0.7002 0.86886 0.33777 0.0
O1260 O 0.69426 0.83067 0.33659 0.0
O1261 O 0.68449 0.83664 0.35537 0.0
C1262 C 0.64268 0.84741 0.32264 0.0
O1263 O 0.69967 0.8633 0.31129 0.0
O1264 O 0.69342 0.83264 0.31021 0.0
C1265 C 0.63879 0.82842 0.38085 0.0
C1266 C 0.64517 0.82488 0.40623 0.0
C1267 C 0.65124 0.8158 0.39714 0.0
C1268 C 0.64821 0.81769 0.38451 0.0
C1269 C 0.63216 0.83692 0.38988 0.0
C1270 C 0.63536 0.83521 0.40246 0.0
C1271 C 0.63711 0.83239 0.36787 0.0
H1272 H 0.71925 0.85961 0.26503 0.0
H1273 H 0.72717 0.86296 0.28762 0.0
H1274 H 0.66387 0.83105 0.29213 0.0
H1275 H 0.65577 0.82774 0.26951 0.0
H1276 H 0.65897 0.80788 0.39982 0.0
H1277 H 0.65365 0.81123 0.37766 0.0
H1278 H 0.62495 0.84532 0.38721 0.0
H1279 H 0.63037 0.84218 0.40928 0.0
Tb1280 Tb 0.17267 0.82247 0.34745 0.0
Eu1281 Eu 0.15111 0.82731 0.32159 0.0
C1282 C 0.14517 0.7858 0.32847 0.0
C1283 C 0.19532 0.83264 0.3231 0.0
C1284 C 0.18373 0.82005 0.38075 0.0
C1285 C 0.1852 0.81183 0.40195 0.0
C1286 C 0.18958 0.81098 0.38964 0.0
C1287 C 0.17344 0.83001 0.38426 0.0
C1288 C 0.16917 0.83097 0.39657 0.0
C1289 C 0.17494 0.82183 0.40554 0.0
C1290 C 0.18749 0.8182 0.36772 0.0
O1291 O 0.17305 0.85077 0.35018 0.0
O1292 O 0.17529 0.85801 0.33001 0.0
O1293 O 0.13141 0.82677 0.33627 0.0
O1294 O 0.14205 0.81327 0.35141 0.0
C1295 C 0.17837 0.86386 0.34197 0.0
O1296 O 0.14339 0.84469 0.30946 0.0
O1297 O 0.13381 0.81364 0.30353 0.0
O1298 O 0.13544 0.79498 0.32528 0.0
O1299 O 0.16324 0.79594 0.33449 0.0
O1300 O 0.19673 0.83522 0.33535 0.0
O1301 O 0.17816 0.82593 0.31618 0.0
C1302 C 0.12931 0.81848 0.34676 0.0
O1303 O 0.17256 0.80346 0.36056 0.0
O1304 O 0.19559 0.83476 0.36235 0.0
C1305 C 0.14183 0.83535 0.28798 0.0
C1306 C 0.15369 0.84013 0.26373 0.0
C1307 C 0.16823 0.84735 0.27413 0.0
C1308 C 0.16232 0.84485 0.28618 0.0
C1309 C 0.12739 0.82884 0.27766 0.0
C1310 C 0.13325 0.83119 0.26564 0.0
C1311 C 0.13517 0.83024 0.30034 0.0
H1312 H 0.19001 0.80482 0.40867 0.0
H1313 H 0.1974 0.80312 0.38706 0.0
H1314 H 0.16856 0.83686 0.37746 0.0
H1315 H 0.16104 0.83857 0.39903 0.0
H1316 H 0.18406 0.85414 0.27292 0.0
H1317 H 0.17367 0.84973 0.29406 0.0
H1318 H 0.11151 0.82136 0.27889 0.0
H1319 H 0.12175 0.82567 0.2578 0.0
Tb1320 Tb 0.82966 0.65323 0.65728 0.0
Eu1321 Eu 0.84754 0.68319 0.68385 0.0
C1322 C 0.85309 0.6451 0.67836 0.0
C1323 C 0.80472 0.64337 0.68048 0.0
C1324 C 0.82118 0.63855 0.62319 0.0
C1325 C 0.84097 0.64463 0.60553 0.0
C1326 C 0.8372 0.63871 0.61752 0.0
C1327 C 0.80872 0.64396 0.61644 0.0
C1328 C 0.81247 0.64985 0.60446 0.0
C1329 C 0.82873 0.6504 0.59888 0.0
C1330 C 0.81769 0.63309 0.63612 0.0
O1331 O 0.82955 0.68048 0.65365 0.0
O1332 O 0.82625 0.69038 0.67332 0.0
O1333 O 0.86805 0.70102 0.66989 0.0
O1334 O 0.86158 0.67381 0.65635 0.0
C1335 C 0.82395 0.69026 0.6612 0.0
O1336 O 0.8436 0.70107 0.69862 0.0
O1337 O 0.8699 0.69784 0.70011 0.0
O1338 O 0.86203 0.66418 0.6826 0.0
O1339 O 0.83688 0.63679 0.67034 0.0
O1340 O 0.80423 0.64388 0.66833 0.0
O1341 O 0.82151 0.65397 0.68782 0.0
C1342 C 0.87272 0.69295 0.66055 0.0
O1343 O 0.83308 0.63535 0.64327 0.0
O1344 O 0.80728 0.63931 0.64211 0.0
C1345 C 0.85497 0.69793 0.7185 0.0
C1346 C 0.84498 0.68663 0.74255 0.0
C1347 C 0.85723 0.70698 0.74069 0.0
C1348 C 0.86213 0.71257 0.72875 0.0
C1349 C 0.84302 0.67761 0.72032 0.0
C1350 C 0.83804 0.67201 0.73222 0.0
C1351 C 0.85911 0.70382 0.70585 0.0
H1352 H 0.85342 0.64457 0.60145 0.0
H1353 H 0.84697 0.63441 0.62238 0.0
H1354 H 0.79617 0.64391 0.62047 0.0
H1355 H 0.80285 0.65438 0.59967 0.0
H1356 H 0.86266 0.71862 0.74842 0.0
H1357 H 0.87127 0.72834 0.7275 0.0
H1358 H 0.83738 0.66608 0.71251 0.0
H1359 H 0.82883 0.6562 0.73333 0.0
Tb1360 Tb 0.34796 0.17644 0.65784 0.0
Eu1361 Eu 0.32221 0.16993 0.68215 0.0
C1362 C 0.35847 0.2119 0.6773 0.0
C1363 C 0.36136 0.16509 0.68313 0.0
C1364 C 0.36272 0.18058 0.62558 0.0
C1365 C 0.37444 0.18829 0.60526 0.0
C1366 C 0.37851 0.18925 0.61812 0.0
C1367 C 0.34275 0.17095 0.6201 0.0
C1368 C 0.33866 0.16989 0.60722 0.0
C1369 C 0.35448 0.17858 0.59967 0.0
C1370 C 0.36733 0.18208 0.63908 0.0
O1371 O 0.32018 0.14785 0.65365 0.0
O1372 O 0.31509 0.13953 0.67356 0.0
O1373 O 0.30255 0.17025 0.66613 0.0
O1374 O 0.32652 0.1862 0.65275 0.0
C1375 C 0.31221 0.13432 0.66151 0.0
O1376 O 0.29739 0.15174 0.69288 0.0
O1377 O 0.31786 0.18318 0.69916 0.0
O1378 O 0.33959 0.20277 0.67946 0.0
O1379 O 0.36584 0.20184 0.67173 0.0
O1380 O 0.36042 0.164 0.67088 0.0
O1381 O 0.35016 0.16999 0.68949 0.0
C1382 C 0.30846 0.17995 0.65627 0.0
O1383 O 0.36616 0.19618 0.64557 0.0
O1384 O 0.35901 0.16522 0.64414 0.0
C1385 C 0.30384 0.16181 0.71462 0.0
C1386 C 0.3094 0.15739 0.73993 0.0
C1387 C 0.31432 0.14733 0.73075 0.0
C1388 C 0.31172 0.14966 0.71816 0.0
C1389 C 0.29828 0.17125 0.72373 0.0
C1390 C 0.30108 0.16911 0.73628 0.0
C1391 C 0.30283 0.16631 0.70171 0.0
H1392 H 0.38693 0.1949 0.59967 0.0
H1393 H 0.394 0.19677 0.62224 0.0
H1394 H 0.33038 0.16434 0.62579 0.0
H1395 H 0.32314 0.16249 0.60318 0.0
H1396 H 0.32089 0.13834 0.73336 0.0
H1397 H 0.31632 0.14245 0.71124 0.0
H1398 H 0.29227 0.18074 0.72116 0.0
H1399 H 0.29701 0.17687 0.74317 0.0
Tb1400 Tb 0.83773 0.15511 0.68062 0.0
Eu1401 Eu 0.81671 0.16074 0.65477 0.0
C1402 C 0.80923 0.11871 0.66169 0.0
C1403 C 0.8604 0.16487 0.65627 0.0
C1404 C 0.84864 0.15233 0.71389 0.0
C1405 C 0.85005 0.14405 0.73509 0.0
C1406 C 0.85419 0.14298 0.72275 0.0
C1407 C 0.83889 0.1628 0.71749 0.0
C1408 C 0.83484 0.16399 0.72984 0.0
C1409 C 0.84032 0.15456 0.73877 0.0
C1410 C 0.8522 0.15031 0.70084 0.0
O1411 O 0.83892 0.18381 0.68342 0.0
O1412 O 0.84136 0.19116 0.66326 0.0
O1413 O 0.79721 0.16068 0.66946 0.0
O1414 O 0.80737 0.14687 0.68466 0.0
C1415 C 0.84449 0.19696 0.67523 0.0
O1416 O 0.8094 0.17855 0.64278 0.0
O1417 O 0.79959 0.1475 0.63663 0.0
O1418 O 0.80009 0.12846 0.65849 0.0
O1419 O 0.82736 0.12837 0.66766 0.0
O1420 O 0.86182 0.16742 0.66852 0.0
O1421 O 0.8433 0.15849 0.64935 0.0
C1422 C 0.79494 0.15243 0.67997 0.0
O1423 O 0.83702 0.13582 0.6937 0.0
O1424 O 0.86069 0.16686 0.69547 0.0
C1425 C 0.80782 0.16953 0.62123 0.0
C1426 C 0.81975 0.17474 0.59701 0.0
C1427 C 0.83426 0.18202 0.60742 0.0
C1428 C 0.82833 0.17929 0.61946 0.0
C1429 C 0.79339 0.16295 0.61091 0.0
C1430 C 0.79928 0.16551 0.5989 0.0
C1431 C 0.80113 0.16425 0.63357 0.0
H1432 H 0.85462 0.13681 0.74177 0.0
H1433 H 0.86162 0.13474 0.7201 0.0
H1434 H 0.83424 0.16989 0.71072 0.0
H1435 H 0.82712 0.17198 0.73236 0.0
H1436 H 0.85012 0.18903 0.60622 0.0
H1437 H 0.83968 0.18423 0.62734 0.0
H1438 H 0.7775 0.15527 0.61211 0.0
H1439 H 0.78779 0.15993 0.59105 0.0
C1440 C 0.31458 0.8748 0.05829 0.0
C1441 C 0.30999 0.88456 0.06787 0.0
C1442 C 0.33208 0.88522 0.05248 0.0
C1443 C 0.37252 0.93725 0.04849 0.0
H1444 H 0.39926 0.90941 0.03608 0.0
C1445 C 0.45291 0.97694 0.03349 0.0
C1446 C 0.45464 0.97092 0.02131 0.0
C1447 C 0.43506 0.96619 0.0389 0.0
C1448 C 0.39182 0.91728 0.03944 0.0
H1449 H 0.32067 0.9131 0.07893 0.0
H1450 H 0.35175 0.93091 0.06939 0.0
H1451 H 0.36908 0.89129 0.04662 0.0
H1452 H 0.43916 0.94872 0.00533 0.0
H1453 H 0.40798 0.92943 0.01503 0.0
H1454 H 0.396 0.96347 0.04176 0.0
C1455 C 0.34144 0.91531 0.06603 0.0
C1456 C 0.37446 0.90692 0.04543 0.0
C1457 C 0.3237 0.90497 0.07168 0.0
C1458 C 0.43823 0.95371 0.01472 0.0
C1459 C 0.42047 0.94268 0.02025 0.0
C1460 C 0.39011 0.94768 0.04275 0.0
C1461 C 0.34581 0.90563 0.05626 0.0
C1462 C 0.3645 0.91674 0.05001 0.0
C1463 C 0.41871 0.94898 0.03234 0.0
C1464 C 0.39986 0.93777 0.03815 0.0
H1465 H 0.3047 0.85899 0.05525 0.0
H1466 H 0.33465 0.87723 0.04491 0.0
H1467 H 0.36512 0.94528 0.05161 0.0
H1468 H 0.46524 0.99022 0.0388 0.0
H1469 H 0.43406 0.97125 0.04825 0.0
C1470 C 0.14523 0.45759 0.0755 0.0
C1471 C 0.15419 0.44982 0.06766 0.0
C1472 C 0.13113 0.4624 0.07055 0.0
C1473 C 0.09651 0.45257 0.04224 0.0
H1474 H 0.09869 0.50172 0.05512 0.0
C1475 C 0.05432 0.48561 0.01606 0.0
C1476 C 0.04447 0.49348 0.02299 0.0
C1477 C 0.06699 0.4799 0.02202 0.0
C1478 C 0.09772 0.48782 0.05153 0.0
H1479 H 0.15502 0.44069 0.04844 0.0
H1480 H 0.13084 0.44947 0.03979 0.0
H1481 H 0.12207 0.49237 0.06455 0.0
H1482 H 0.0404 0.50158 0.04171 0.0
H1483 H 0.06262 0.49158 0.05214 0.0
H1484 H 0.07235 0.44814 0.02913 0.0
C1485 C 0.13453 0.45166 0.0498 0.0
C1486 C 0.11111 0.48244 0.05693 0.0
C1487 C 0.14861 0.44686 0.05475 0.0
C1488 C 0.04776 0.49561 0.03607 0.0
C1489 C 0.06055 0.48996 0.04205 0.0
C1490 C 0.08318 0.45797 0.03683 0.0
C1491 C 0.12562 0.45952 0.05763 0.0
C1492 C 0.11081 0.46484 0.05227 0.0
C1493 C 0.07023 0.48194 0.03509 0.0
C1494 C 0.08376 0.47576 0.04132 0.0
H1495 H 0.14932 0.46025 0.08548 0.0
H1496 H 0.12443 0.46824 0.07686 0.0
H1497 H 0.09556 0.43871 0.03858 0.0
H1498 H 0.05223 0.48378 0.00598 0.0
H1499 H 0.07446 0.47409 0.01637 0.0
C1500 C 0.60855 0.71618 0.04544 0.0
C1501 C 0.5985 0.72678 0.0429 0.0
C1502 C 0.60017 0.69608 0.04068 0.0
C1503 C 0.55107 0.65178 0.02983 0.0
H1504 H 0.58278 0.62925 0.01779 0.0
C1505 C 0.51474 0.56939 0.00872 0.0
C1506 C 0.52437 0.55879 0.01227 0.0
C1507 C 0.52411 0.59013 0.01181 0.0
C1508 C 0.57376 0.63531 0.02123 0.0
H1509 H 0.57199 0.7247 0.0331 0.0
H1510 H 0.55763 0.68984 0.02457 0.0
H1511 H 0.59893 0.66532 0.02399 0.0
H1512 H 0.55138 0.56164 0.02189 0.0
H1513 H 0.56759 0.59779 0.02741 0.0
H1514 H 0.52596 0.62183 0.02722 0.0
C1515 C 0.57186 0.69698 0.03039 0.0
C1516 C 0.58301 0.65595 0.02476 0.0
C1517 C 0.58023 0.71705 0.03514 0.0
C1518 C 0.54357 0.56937 0.01898 0.0
C1519 C 0.55292 0.59011 0.02208 0.0
C1520 C 0.54184 0.63118 0.02631 0.0
C1521 C 0.58155 0.68617 0.03329 0.0
C1522 C 0.57176 0.66439 0.02913 0.0
C1523 C 0.54329 0.60072 0.01854 0.0
C1524 C 0.55309 0.62269 0.02201 0.0
H1525 H 0.62275 0.72333 0.05129 0.0
H1526 H 0.60795 0.68812 0.04314 0.0
H1527 H 0.54205 0.65777 0.03338 0.0
H1528 H 0.49999 0.56171 0.00349 0.0
H1529 H 0.5164 0.59792 0.00882 0.0
C1530 C 0.86831 0.28895 0.96303 0.0
C1531 C 0.86242 0.28438 0.95014 0.0
C1532 C 0.88177 0.30871 0.96809 0.0
C1533 C 0.90112 0.36106 0.96103 0.0
H1534 H 0.94265 0.37371 0.98789 0.0
C1535 C 0.96331 0.44231 0.97733 0.0
C1536 C 0.96806 0.44782 0.99024 0.0
C1537 C 0.95074 0.42222 0.97263 0.0
C1538 C 0.93099 0.37037 0.98047 0.0
H1539 H 0.86626 0.29706 0.93246 0.0
H1540 H 0.89012 0.33129 0.94121 0.0
H1541 H 0.92038 0.33879 0.97927 0.0
H1542 H 0.96345 0.43647 0.00834 0.0
H1543 H 0.94143 0.40137 1.00009 0.0
H1544 H 0.91175 0.3926 0.96218 0.0
C1545 C 0.88411 0.31967 0.94745 0.0
C1546 C 0.91824 0.35039 0.97554 0.0
C1547 C 0.87063 0.29997 0.94241 0.0
C1548 C 0.96009 0.43275 0.99834 0.0
C1549 C 0.94756 0.41262 0.99362 0.0
C1550 C 0.91389 0.381 0.96593 0.0
C1551 C 0.88965 0.32434 0.96036 0.0
C1552 C 0.9032 0.34551 0.96572 0.0
C1553 C 0.94267 0.40717 0.98072 0.0
C1554 C 0.92901 0.3859 0.97566 0.0
H1555 H 0.86243 0.27726 0.96923 0.0
H1556 H 0.88563 0.31181 0.97808 0.0
H1557 H 0.88942 0.35781 0.95366 0.0
H1558 H 0.96924 0.45351 0.97081 0.0
H1559 H 0.94745 0.41846 0.96263 0.0
C1560 C 0.69439 0.55331 0.9514 0.0
C1561 C 0.69467 0.55287 0.93839 0.0
C1562 C 0.67674 0.54841 0.95682 0.0
C1563 C 0.62107 0.52252 0.94929 0.0
H1564 H 0.62381 0.54836 0.98183 0.0
C1565 C 0.55108 0.51356 0.97194 0.0
C1566 C 0.55015 0.5096 0.98448 0.0
C1567 C 0.56846 0.51851 0.96615 0.0
C1568 C 0.62284 0.54091 0.97278 0.0
H1569 H 0.67637 0.54723 0.92093 0.0
H1570 H 0.64584 0.53962 0.9304 0.0
H1571 H 0.65452 0.55864 0.9719 0.0
H1572 H 0.56678 0.50769 1.00075 0.0
H1573 H 0.5973 0.5167 0.99066 0.0
H1574 H 0.58921 0.50521 0.95013 0.0
C1575 C 0.6592 0.54321 0.93642 0.0
C1576 C 0.64046 0.54674 0.96708 0.0
C1577 C 0.67685 0.5479 0.93098 0.0
C1578 C 0.56698 0.51059 0.99108 0.0
C1579 C 0.58449 0.51587 0.98533 0.0
C1580 C 0.60341 0.51691 0.95493 0.0
C1581 C 0.65883 0.5432 0.94943 0.0
C1582 C 0.63988 0.53752 0.95529 0.0
C1583 C 0.58542 0.51993 0.97281 0.0
C1584 C 0.60413 0.52594 0.96677 0.0
H1585 H 0.70786 0.55745 0.95748 0.0
H1586 H 0.67712 0.54835 0.96684 0.0
H1587 H 0.61997 0.51479 0.94034 0.0
H1588 H 0.53836 0.51285 0.96657 0.0
H1589 H 0.56878 0.52166 0.95652 0.0
C1590 C 0.39401 0.10642 0.95971 0.0
C1591 C 0.39461 0.10889 0.94694 0.0
C1592 C 0.40355 0.09706 0.96529 0.0
C1593 C 0.4237 0.06348 0.95833 0.0
H1594 H 0.45746 0.08922 0.9895 0.0
C1595 C 0.47936 0.04032 0.97807 0.0
C1596 C 0.48085 0.0391 0.99096 0.0
C1597 C 0.46858 0.04876 0.97291 0.0
C1598 C 0.4479 0.0817 0.98088 0.0
H1599 H 0.40572 0.10339 0.93004 0.0
H1600 H 0.42208 0.08687 0.93975 0.0
H1601 H 0.43816 0.10325 0.98018 0.0
H1602 H 0.47236 0.04596 0.00857 0.0
H1603 H 0.45337 0.06045 0.99953 0.0
H1604 H 0.43339 0.04192 0.95901 0.0
C1605 C 0.41405 0.09198 0.94541 0.0
C1606 C 0.43684 0.08973 0.97555 0.0
C1607 C 0.40461 0.10141 0.93984 0.0
C1608 C 0.47158 0.04675 0.9986 0.0
C1609 C 0.46075 0.05514 0.99343 0.0
C1610 C 0.4347 0.05541 0.96368 0.0
C1611 C 0.4138 0.08989 0.95821 0.0
C1612 C 0.42474 0.08079 0.96418 0.0
C1613 C 0.459 0.05609 0.98051 0.0
C1614 C 0.44705 0.06451 0.97496 0.0
H1615 H 0.38621 0.11177 0.9654 0.0
H1616 H 0.40289 0.09542 0.97515 0.0
H1617 H 0.41429 0.05611 0.94964 0.0
H1618 H 0.48639 0.03464 0.97192 0.0
H1619 H 0.46782 0.04959 0.96295 0.0
C1620 C 0.68666 0.11012 0.93625 0.0
C1621 C 0.69816 0.13122 0.93746 0.0
C1622 C 0.66933 0.1003 0.94235 0.0
C1623 C 0.64528 0.10709 0.96906 0.0
H1624 H 0.59691 0.06171 0.95173 0.0
C1625 C 0.57035 0.06636 0.99162 0.0
C1626 C 0.55925 0.04532 0.98916 0.0
C1627 C 0.5871 0.07771 0.98525 0.0
C1628 C 0.61035 0.07422 0.95676 0.0
H1629 H 0.7 0.15851 0.94577 0.0
H1630 H 0.66999 0.14133 0.95655 0.0
H1631 H 0.62648 0.07956 0.94069 0.0
H1632 H 0.55729 0.01973 0.97818 0.0
H1633 H 0.58646 0.03933 0.96742 0.0
H1634 H 0.6293 0.1015 0.98521 0.0
C1635 C 0.67454 0.13242 0.95099 0.0
C1636 C 0.62728 0.08446 0.95041 0.0
C1637 C 0.69177 0.14224 0.94483 0.0
C1638 C 0.56537 0.03591 0.9803 0.0
C1639 C 0.58207 0.04719 0.97402 0.0
C1640 C 0.62836 0.09674 0.97545 0.0
C1641 C 0.66316 0.11135 0.94984 0.0
C1642 C 0.64498 0.1009 0.95651 0.0
C1643 C 0.59308 0.06824 0.97632 0.0
C1644 C 0.61075 0.08004 0.96941 0.0
H1645 H 0.69127 0.10114 0.93082 0.0
H1646 H 0.66098 0.08403 0.9414 0.0
H1647 H 0.65878 0.11961 0.97403 0.0
H1648 H 0.56599 0.07407 0.99834 0.0
H1649 H 0.59515 0.09392 0.98718 0.0
C1650 C 0.86843 0.55468 0.92505 0.0
C1651 C 0.85622 0.55965 0.93186 0.0
C1652 C 0.88153 0.5495 0.93109 0.0
C1653 C 0.8893 0.52891 0.95904 0.0
H1654 H 0.94521 0.55486 0.95253 0.0
C1655 C 0.9477 0.51899 0.98891 0.0
C1656 C 0.96352 0.51881 0.98322 0.0
C1657 C 0.93456 0.52359 0.98237 0.0
C1658 C 0.92958 0.54718 0.95432 0.0
H1659 H 0.84859 0.56324 0.95048 0.0
H1660 H 0.87094 0.55354 0.96089 0.0
H1661 H 0.92231 0.56339 0.94154 0.0
H1662 H 0.97772 0.52292 0.96611 0.0
H1663 H 0.95437 0.53025 0.95454 0.0
H1664 H 0.89624 0.5123 0.97156 0.0
C1665 C 0.87029 0.55367 0.95086 0.0
C1666 C 0.9165 0.55217 0.94806 0.0
C1667 C 0.8574 0.55914 0.94487 0.0
C1668 C 0.96576 0.5231 0.97079 0.0
C1669 C 0.95242 0.52743 0.96418 0.0
C1670 C 0.90228 0.52369 0.96517 0.0
C1671 C 0.88252 0.54887 0.94404 0.0
C1672 C 0.89628 0.54321 0.95044 0.0
C1673 C 0.93668 0.52784 0.9699 0.0
C1674 C 0.92267 0.53289 0.963 0.0
H1675 H 0.86769 0.55449 0.91502 0.0
H1676 H 0.89064 0.54565 0.92559 0.0
H1677 H 0.87371 0.52157 0.96092 0.0
H1678 H 0.94567 0.51596 0.99852 0.0
H1679 H 0.92294 0.52417 0.98721 0.0
C1680 C 0.39026 0.28045 0.95601 0.0
C1681 C 0.39902 0.2692 0.95996 0.0
C1682 C 0.39869 0.30065 0.96051 0.0
C1683 C 0.42857 0.33871 0.9859 0.0
H1684 H 0.44738 0.37617 0.96091 0.0
C1685 C 0.47612 0.42452 0.99948 0.0
C1686 C 0.47378 0.43712 0.99156 0.0
C1687 C 0.46687 0.40387 0.99594 0.0
C1688 C 0.4419 0.366 0.96802 0.0
H1689 H 0.42327 0.27051 0.97214 0.0
H1690 H 0.43727 0.30553 0.98039 0.0
H1691 H 0.43024 0.34022 0.95456 0.0
H1692 H 0.45952 0.43803 0.9739 0.0
H1693 H 0.44261 0.40207 0.96798 0.0
H1694 H 0.43944 0.36426 0.99936 0.0
C1695 C 0.424 0.29859 0.97368 0.0
C1696 C 0.43219 0.3454 0.96436 0.0
C1697 C 0.41586 0.27848 0.969 0.0
C1698 C 0.46182 0.4287 0.98012 0.0
C1699 C 0.45222 0.40804 0.9767 0.0
C1700 C 0.43789 0.35933 0.98957 0.0
C1701 C 0.41573 0.30991 0.96927 0.0
C1702 C 0.42552 0.33162 0.97326 0.0
C1703 C 0.45472 0.39531 0.98451 0.0
C1704 C 0.44474 0.37329 0.98068 0.0
H1705 H 0.37701 0.27375 0.94932 0.0
H1706 H 0.39197 0.30911 0.95708 0.0
H1707 H 0.42345 0.32827 0.9929 0.0
H1708 H 0.48536 0.43067 0.00833 0.0
H1709 H 0.4695 0.3947 1.00212 0.0
C1710 C 0.12414 0.72614 0.04949 0.0
C1711 C 0.14475 0.73471 0.04816 0.0
C1712 C 0.11049 0.70644 0.04443 0.0
C1713 C 0.10429 0.66526 0.02175 0.0
H1714 H 0.06563 0.63099 0.04324 0.0
C1715 C 0.06077 0.57876 0.01232 0.0
C1716 C 0.04044 0.56853 0.01455 0.0
C1717 C 0.07278 0.59941 0.01579 0.0
C1718 C 0.07613 0.64041 0.03705 0.0
H1719 H 0.16712 0.72935 0.04033 0.0
H1720 H 0.14335 0.6951 0.03147 0.0
H1721 H 0.08755 0.66661 0.05006 0.0
H1722 H 0.01675 0.572 0.02207 0.0
H1723 H 0.03767 0.60801 0.02802 0.0
H1724 H 0.093 0.63897 0.0088 0.0
C1725 C 0.13768 0.70368 0.03628 0.0
C1726 C 0.08868 0.66083 0.04095 0.0
C1727 C 0.15131 0.72334 0.04134 0.0
C1728 C 0.03238 0.5794 0.02027 0.0
C1729 C 0.04439 0.60003 0.02373 0.0
C1730 C 0.09172 0.64482 0.01784 0.0
C1731 C 0.11716 0.69489 0.03792 0.0
C1732 C 0.10301 0.67346 0.03339 0.0
C1733 C 0.06474 0.61027 0.02156 0.0
C1734 C 0.07762 0.63213 0.02549 0.0
H1735 H 0.11857 0.7346 0.05454 0.0
H1736 H 0.09473 0.70019 0.04568 0.0
H1737 H 0.11499 0.67466 0.01565 0.0
H1738 H 0.06746 0.57083 0.00795 0.0
H1739 H 0.08848 0.6068 0.01414 0.0
C1740 C 0.32817 0.44905 0.08001 0.0
C1741 C 0.30895 0.4407 0.07344 0.0
C1742 C 0.34509 0.45419 0.07366 0.0
C1743 C 0.36045 0.44444 0.04338 0.0
H1744 H 0.40996 0.49431 0.05422 0.0
C1745 C 0.42838 0.47591 0.01435 0.0
C1746 C 0.44766 0.48439 0.02084 0.0
C1747 C 0.4115 0.47063 0.02077 0.0
C1748 C 0.39633 0.48022 0.05114 0.0
H1749 H 0.29249 0.43082 0.05501 0.0
H1750 H 0.32199 0.44009 0.04395 0.0
H1751 H 0.38055 0.48477 0.06544 0.0
H1752 H 0.46421 0.49401 0.03925 0.0
H1753 H 0.43486 0.48467 0.05042 0.0
H1754 H 0.37622 0.4399 0.02908 0.0
C1755 C 0.32399 0.44254 0.05402 0.0
C1756 C 0.37945 0.47474 0.05759 0.0
C1757 C 0.30708 0.43744 0.06037 0.0
C1758 C 0.44965 0.48756 0.03392 0.0
C1759 C 0.43278 0.4823 0.04034 0.0
C1760 C 0.37733 0.44992 0.03693 0.0
C1761 C 0.34323 0.45105 0.06058 0.0
C1762 C 0.36128 0.45679 0.05379 0.0
C1763 C 0.41348 0.47371 0.03386 0.0
C1764 C 0.39549 0.46789 0.04072 0.0
H1765 H 0.3302 0.45195 0.09007 0.0
H1766 H 0.35964 0.4605 0.07902 0.0
H1767 H 0.34681 0.43036 0.0403 0.0
H1768 H 0.42624 0.47326 0.00428 0.0
H1769 H 0.39691 0.4643 0.01547 0.0
C1770 C 0.58156 0.87457 0.05001 0.0
C1771 C 0.59961 0.88463 0.05799 0.0
C1772 C 0.57325 0.88525 0.04476 0.0
C1773 C 0.57266 0.93233 0.05 0.0
H1774 H 0.5502 0.92046 0.01541 0.0
C1775 C 0.54799 0.9825 0.02663 0.0
C1776 C 0.53015 0.97319 0.01847 0.0
C1777 C 0.55622 0.97134 0.03118 0.0
C1778 C 0.55617 0.92377 0.02512 0.0
H1779 H 0.62336 0.91385 0.06642 0.0
H1780 H 0.60873 0.93249 0.05731 0.0
H1781 H 0.56548 0.90184 0.0237 0.0
H1782 H 0.50698 0.94478 0.00867 0.0
H1783 H 0.52127 0.92518 0.01679 0.0
H1784 H 0.56326 0.9541 0.0515 0.0
C1785 C 0.60092 0.9163 0.05525 0.0
C1786 C 0.56497 0.91315 0.02986 0.0
C1787 C 0.60929 0.90564 0.06046 0.0
C1788 C 0.52075 0.95242 0.01492 0.0
C1789 C 0.52899 0.94121 0.01952 0.0
C1790 C 0.56381 0.94287 0.04529 0.0
C1791 C 0.58273 0.90619 0.04742 0.0
C1792 C 0.5734 0.91741 0.04233 0.0
C1793 C 0.54679 0.95056 0.02774 0.0
C1794 C 0.55558 0.93882 0.03278 0.0
H1795 H 0.57353 0.85836 0.04808 0.0
H1796 H 0.55908 0.87703 0.03889 0.0
H1797 H 0.57868 0.93567 0.05971 0.0
H1798 H 0.55573 0.99849 0.02951 0.0
H1799 H 0.57013 0.97908 0.03731 0.0
C1800 C 0.97526 0.22409 0.38866 0.0
C1801 C 0.97612 0.2209 0.40129 0.0
C1802 C 0.99285 0.23388 0.38283 0.0
C1803 C 0.04778 0.26755 0.38898 0.0
H1804 H 0.04842 0.24479 0.35616 0.0
C1805 C 0.12111 0.29555 0.36584 0.0
C1806 C 0.12033 0.29801 0.35308 0.0
C1807 C 0.10347 0.28573 0.37161 0.0
C1808 C 0.04843 0.25147 0.36525 0.0
H1809 H 0.99621 0.22579 0.41774 0.0
H1810 H 0.02695 0.24306 0.40757 0.0
H1811 H 0.0178 0.22919 0.36653 0.0
H1812 H 0.10029 0.29168 0.33633 0.0
H1813 H 0.06948 0.2747 0.34643 0.0
H1814 H 0.07835 0.2899 0.3877 0.0
C1815 C 0.01265 0.23808 0.40221 0.0
C1816 C 0.03088 0.24253 0.37121 0.0
C1817 C 0.99503 0.22822 0.40804 0.0
C1818 C 0.10144 0.28997 0.34616 0.0
C1819 C 0.08376 0.28018 0.35195 0.0
C1820 C 0.06531 0.27653 0.38302 0.0
C1821 C 0.01173 0.2408 0.3895 0.0
C1822 C 0.03036 0.25046 0.38314 0.0
C1823 C 0.08458 0.27817 0.36478 0.0
C1824 C 0.06588 0.26857 0.37109 0.0
H1825 H 0.96096 0.21897 0.38325 0.0
H1826 H 0.99166 0.23608 0.37309 0.0
H1827 H 0.04778 0.27418 0.3981 0.0
H1828 H 0.13538 0.30139 0.37146 0.0
H1829 H 0.10466 0.2841 0.38145 0.0
C1830 C 0.80013 0.7747 0.40365 0.0
C1831 C 0.82017 0.7845 0.40069 0.0
C1832 C 0.78632 0.77986 0.39863 0.0
C1833 C 0.77406 0.79811 0.37154 0.0
H1834 H 0.74634 0.81696 0.39235 0.0
C1835 C 0.72684 0.8296 0.34992 0.0
C1836 C 0.70969 0.8268 0.35537 0.0
C1837 C 0.74011 0.82458 0.35585 0.0
C1838 C 0.75362 0.81137 0.38636 0.0
H1839 H 0.84128 0.80797 0.39031 0.0
H1840 H 0.81689 0.81605 0.38109 0.0
H1841 H 0.76934 0.80727 0.40198 0.0
H1842 H 0.69289 0.81647 0.37128 0.0
H1843 H 0.71548 0.80674 0.38138 0.0
H1844 H 0.75798 0.80127 0.35591 0.0
C1845 C 0.81203 0.80445 0.38737 0.0
C1846 C 0.76689 0.80596 0.39191 0.0
C1847 C 0.82594 0.79965 0.39259 0.0
C1848 C 0.70609 0.81892 0.36691 0.0
C1849 C 0.71915 0.81345 0.37272 0.0
C1850 C 0.76049 0.80308 0.36598 0.0
C1851 C 0.79212 0.79461 0.39033 0.0
C1852 C 0.7774 0.79953 0.38454 0.0
C1853 C 0.73635 0.81613 0.36725 0.0
C1854 C 0.75026 0.81008 0.37328 0.0
H1855 H 0.7949 0.76274 0.40965 0.0
H1856 H 0.77097 0.77197 0.40097 0.0
H1857 H 0.78183 0.79295 0.36567 0.0
H1858 H 0.73015 0.8359 0.34111 0.0
H1859 H 0.75342 0.82748 0.35146 0.0
C1860 C 0.26317 0.04648 0.36986 0.0
C1861 C 0.26247 0.05183 0.3824 0.0
C1862 C 0.25457 0.02628 0.36523 0.0
C1863 C 0.21667 0.97549 0.37203 0.0
H1864 H 0.24192 0.95757 0.3485 0.0
C1865 C 0.18948 0.89184 0.35896 0.0
C1866 C 0.18794 0.88548 0.34628 0.0
C1867 C 0.19866 0.91225 0.36309 0.0
C1868 C 0.23462 0.96241 0.35497 0.0
H1869 H 0.25229 0.04007 0.39992 0.0
H1870 H 0.238 0.00505 0.39197 0.0
H1871 H 0.25829 0.9931 0.35632 0.0
H1872 H 0.19492 0.8956 0.328 0.0
H1873 H 0.21097 0.93131 0.33525 0.0
H1874 H 0.19313 0.9448 0.37078 0.0
C1875 C 0.24486 0.01641 0.38564 0.0
C1876 C 0.24397 0.98274 0.35945 0.0
C1877 C 0.25336 0.03654 0.39025 0.0
C1878 C 0.19584 0.9 0.33783 0.0
C1879 C 0.20514 0.92045 0.34198 0.0
C1880 C 0.2074 0.95519 0.36761 0.0
C1881 C 0.24512 0.01101 0.37304 0.0
C1882 C 0.23515 0.98949 0.36808 0.0
C1883 C 0.2066 0.92677 0.35465 0.0
C1884 C 0.21631 0.94842 0.35909 0.0
H1885 H 0.27025 0.05789 0.3636 0.0
H1886 H 0.25492 0.02263 0.35545 0.0
H1887 H 0.20924 0.98024 0.37846 0.0
H1888 H 0.1836 0.88105 0.36573 0.0
H1889 H 0.19977 0.9167 0.37293 0.0
C1890 C 0.5341 0.63267 0.2735 0.0
C1891 C 0.52566 0.61725 0.28132 0.0
C1892 C 0.54768 0.65242 0.27846 0.0
C1893 C 0.58181 0.68298 0.30661 0.0
H1894 H 0.5768 0.72585 0.29301 0.0
C1895 C 0.6243 0.76502 0.3298 0.0
C1896 C 0.63272 0.78026 0.32185 0.0
C1897 C 0.61165 0.745 0.3249 0.0
C1898 C 0.57854 0.71407 0.29682 0.0
H1899 H 0.52527 0.61045 0.3005 0.0
H1900 H 0.5486 0.64501 0.3092 0.0
H1901 H 0.55408 0.69116 0.28438 0.0
H1902 H 0.6346 0.78637 0.3025 0.0
H1903 H 0.61261 0.7515 0.294 0.0
H1904 H 0.60618 0.70597 0.31913 0.0
C1905 C 0.54488 0.64179 0.2992 0.0
C1906 C 0.56553 0.69418 0.29187 0.0
C1907 C 0.53132 0.62202 0.29423 0.0
C1908 C 0.62832 0.77503 0.3089 0.0
C1909 C 0.61563 0.75505 0.30402 0.0
C1910 C 0.59479 0.70289 0.31159 0.0
C1911 C 0.55312 0.65725 0.29138 0.0
C1912 C 0.56703 0.6784 0.29668 0.0
C1913 C 0.6071 0.73982 0.31196 0.0
C1914 C 0.59331 0.71865 0.30673 0.0
H1915 H 0.52993 0.62958 0.26353 0.0
H1916 H 0.55395 0.66391 0.27216 0.0
H1917 H 0.58354 0.67121 0.31042 0.0
H1918 H 0.62738 0.76852 0.33982 0.0
H1919 H 0.60515 0.73363 0.33126 0.0
C1920 C 0.34108 0.87849 0.26337 0.0
C1921 C 0.35938 0.8862 0.27095 0.0
C1922 C 0.32313 0.87295 0.26868 0.0
C1923 C 0.30057 0.85804 0.29822 0.0
H1924 H 0.26026 0.86934 0.28404 0.0
C1925 C 0.23252 0.84579 0.32396 0.0
C1926 C 0.21379 0.83811 0.31689 0.0
C1927 C 0.25 0.85149 0.31812 0.0
C1928 C 0.27124 0.86583 0.28804 0.0
H1929 H 0.37323 0.89506 0.29005 0.0
H1930 H 0.34208 0.88541 0.29927 0.0
H1931 H 0.29121 0.87991 0.27422 0.0
H1932 H 0.19886 0.8304 0.29804 0.0
H1933 H 0.22929 0.84006 0.28789 0.0
H1934 H 0.28068 0.84392 0.31199 0.0
C1935 C 0.34147 0.8832 0.28923 0.0
C1936 C 0.28901 0.87192 0.28241 0.0
C1937 C 0.35936 0.88875 0.28393 0.0
C1938 C 0.213 0.83622 0.30381 0.0
C1939 C 0.2305 0.84192 0.29797 0.0
C1940 C 0.28283 0.85193 0.30382 0.0
C1941 C 0.32308 0.87498 0.2817 0.0
C1942 C 0.30395 0.86822 0.28748 0.0
C1943 C 0.24925 0.84966 0.30504 0.0
C1944 C 0.26796 0.85583 0.29886 0.0
H1945 H 0.34051 0.87618 0.25334 0.0
H1946 H 0.30921 0.86654 0.26261 0.0
H1947 H 0.31156 0.85458 0.30224 0.0
H1948 H 0.23376 0.84758 0.33404 0.0
H1949 H 0.26419 0.85766 0.32388 0.0
C1950 C 0.06935 0.42819 0.27361 0.0
C1951 C 0.05933 0.43572 0.28064 0.0
C1952 C 0.07873 0.41877 0.27926 0.0
C1953 C 0.10135 0.4167 0.30953 0.0
H1954 H 0.09885 0.36945 0.29287 0.0
C1955 C 0.13784 0.37453 0.33197 0.0
C1956 C 0.14735 0.36748 0.32409 0.0
C1957 C 0.12665 0.38274 0.32707 0.0
C1958 C 0.09987 0.38277 0.29758 0.0
H1959 H 0.05073 0.43862 0.29904 0.0
H1960 H 0.06729 0.42224 0.30892 0.0
H1961 H 0.07925 0.38313 0.28357 0.0
H1962 H 0.1531 0.36412 0.30495 0.0
H1963 H 0.13391 0.37872 0.29648 0.0
H1964 H 0.12219 0.41649 0.32347 0.0
C1965 C 0.06804 0.42387 0.29907 0.0
C1966 C 0.08859 0.39056 0.29227 0.0
C1967 C 0.05857 0.43324 0.2934 0.0
C1968 C 0.14586 0.36929 0.31127 0.0
C1969 C 0.13473 0.37752 0.30639 0.0
C1970 C 0.11268 0.40893 0.31484 0.0
C1971 C 0.07838 0.41671 0.29207 0.0
C1972 C 0.08937 0.40772 0.29812 0.0
C1973 C 0.12476 0.38408 0.3142 0.0
C1974 C 0.11223 0.392 0.30885 0.0
H1975 H 0.07056 0.43018 0.26382 0.0
H1976 H 0.08683 0.41368 0.27366 0.0
H1977 H 0.10244 0.4301 0.31418 0.0
H1978 H 0.13863 0.37329 0.34188 0.0
H1979 H 0.11903 0.38754 0.33331 0.0
C1980 C 0.3493 0.44391 0.26564 0.0
C1981 C 0.36817 0.45627 0.27254 0.0
C1982 C 0.33195 0.43378 0.27168 0.0
C1983 C 0.3104 0.43596 0.30044 0.0
H1984 H 0.2738 0.37906 0.29132 0.0
C1985 C 0.2422 0.389 0.32767 0.0
C1986 C 0.22488 0.37301 0.32091 0.0
C1987 C 0.25979 0.39972 0.32189 0.0
C1988 C 0.28363 0.39502 0.29386 0.0
H1989 H 0.38348 0.46708 0.29129 0.0
H1990 H 0.35309 0.4499 0.30174 0.0
H1991 H 0.30407 0.39647 0.28085 0.0
H1992 H 0.212 0.35637 0.30268 0.0
H1993 H 0.24214 0.37548 0.29253 0.0
H1994 H 0.28979 0.43475 0.3132 0.0
C1995 C 0.35182 0.4482 0.29165 0.0
C1996 C 0.30104 0.40495 0.28789 0.0
C1997 C 0.3692 0.45809 0.28564 0.0
C1998 C 0.22522 0.36844 0.30819 0.0
C1999 C 0.2426 0.37933 0.30239 0.0
C2000 C 0.29281 0.4261 0.3063 0.0
C2001 C 0.33303 0.43597 0.28473 0.0
C2002 C 0.31459 0.4255 0.29112 0.0
C2003 C 0.26028 0.39484 0.3092 0.0
C2004 C 0.27915 0.40549 0.30307 0.0
H2005 H 0.3478 0.44238 0.25556 0.0
H2006 H 0.3176 0.42455 0.26612 0.0
H2007 H 0.32056 0.45188 0.30302 0.0
H2008 H 0.24238 0.39278 0.3375 0.0
H2009 H 0.27313 0.41142 0.32749 0.0
C2010 C 0.52312 0.89402 0.27823 0.0
C2011 C 0.52202 0.89482 0.26525 0.0
C2012 C 0.53598 0.88844 0.28414 0.0
C2013 C 0.58228 0.88714 0.2813 0.0
H2014 H 0.56164 0.84619 0.30409 0.0
C2015 C 0.63134 0.8573 0.3034 0.0
C2016 C 0.62872 0.85221 0.31567 0.0
C2017 C 0.61814 0.86195 0.29693 0.0
C2018 C 0.5678 0.85789 0.29792 0.0
H2019 H 0.53363 0.89003 0.24836 0.0
H2020 H 0.55655 0.88104 0.25879 0.0
H2021 H 0.53925 0.85584 0.2937 0.0
H2022 H 0.61039 0.84835 0.33084 0.0
H2023 H 0.58795 0.85717 0.3198 0.0
H2024 H 0.61096 0.88977 0.28576 0.0
C2025 C 0.54738 0.88475 0.26434 0.0
C2026 C 0.55489 0.86332 0.29192 0.0
C2027 C 0.5343 0.89002 0.25838 0.0
C2028 C 0.6127 0.85199 0.32134 0.0
C2029 C 0.59972 0.85694 0.31495 0.0
C2030 C 0.59529 0.88195 0.28744 0.0
C2031 C 0.54829 0.88382 0.27726 0.0
C2032 C 0.562 0.878 0.28356 0.0
C2033 C 0.60218 0.86194 0.30263 0.0
C2034 C 0.58825 0.86725 0.29586 0.0
H2035 H 0.51426 0.89798 0.2839 0.0
H2036 H 0.53655 0.88806 0.29415 0.0
H2037 H 0.58819 0.89865 0.27497 0.0
H2038 H 0.64345 0.85745 0.29875 0.0
H2039 H 0.62036 0.86536 0.28739 0.0
C2040 C 0.08335 0.60677 0.30128 0.0
C2041 C 0.06446 0.59616 0.29421 0.0
C2042 C 0.09131 0.62688 0.30585 0.0
C2043 C 0.0879 0.67133 0.29941 0.0
H2044 H 0.11758 0.69332 0.33212 0.0
C2045 C 0.11614 0.75301 0.31889 0.0
C2046 C 0.13566 0.76389 0.32514 0.0
C2047 C 0.10708 0.73235 0.31564 0.0
C2048 C 0.1095 0.68743 0.32292 0.0
H2049 H 0.0387 0.59807 0.28687 0.0
H2050 H 0.05259 0.6332 0.29487 0.0
H2051 H 0.10194 0.65734 0.32579 0.0
H2052 H 0.16094 0.76157 0.33298 0.0
H2053 H 0.14517 0.72545 0.32717 0.0
H2054 H 0.09558 0.70136 0.29646 0.0
C2055 C 0.06139 0.62604 0.29669 0.0
C2056 C 0.10052 0.66683 0.3193 0.0
C2057 C 0.05344 0.60594 0.29212 0.0
C2058 C 0.14588 0.75362 0.32816 0.0
C2059 C 0.1368 0.73291 0.32491 0.0
C2060 C 0.09688 0.69189 0.30302 0.0
C2061 C 0.08054 0.63682 0.30345 0.0
C2062 C 0.08963 0.65857 0.3075 0.0
C2063 C 0.11733 0.72207 0.31856 0.0
C2064 C 0.10779 0.70018 0.3148 0.0
H2065 H 0.09235 0.59976 0.30289 0.0
H2066 H 0.1062 0.63483 0.3109 0.0
H2067 H 0.07995 0.6655 0.29017 0.0
H2068 H 0.10779 0.76042 0.31648 0.0
H2069 H 0.09195 0.72438 0.31092 0.0
C2070 C 0.82032 0.05352 0.37684 0.0
C2071 C 0.814 0.06531 0.38342 0.0
C2072 C 0.8064 0.03396 0.37171 0.0
C2073 C 0.75643 0.99194 0.37561 0.0
H2074 H 0.76079 0.97045 0.34335 0.0
C2075 C 0.69854 0.9115 0.35378 0.0
C2076 C 0.70621 0.90041 0.34785 0.0
C2077 C 0.71102 0.93199 0.35761 0.0
C2078 C 0.75949 0.97618 0.35243 0.0
H2079 H 0.78796 0.06602 0.38936 0.0
H2080 H 0.76366 0.03179 0.38044 0.0
H2081 H 0.78368 0.00577 0.3507 0.0
H2082 H 0.73303 0.90216 0.3413 0.0
H2083 H 0.75484 0.93777 0.34813 0.0
H2084 H 0.73246 0.96232 0.37744 0.0
C2085 C 0.77944 0.03763 0.37941 0.0
C2086 C 0.77257 0.99642 0.35662 0.0
C2087 C 0.79336 0.05722 0.38451 0.0
C2088 C 0.72662 0.91026 0.34581 0.0
C2089 C 0.7391 0.93072 0.34965 0.0
C2090 C 0.74337 0.9717 0.37143 0.0
C2091 C 0.78584 0.02571 0.37307 0.0
C2092 C 0.77128 0.00449 0.3683 0.0
C2093 C 0.73146 0.94183 0.3556 0.0
C2094 C 0.74485 0.96354 0.35983 0.0
H2095 H 0.83612 0.05914 0.376 0.0
H2096 H 0.81185 0.02506 0.36703 0.0
H2097 H 0.75525 0.99764 0.38473 0.0
H2098 H 0.68286 0.9044 0.35544 0.0
H2099 H 0.70461 0.94016 0.36202 0.0
C2100 C 0.97064 0.76905 0.39223 0.0
C2101 C 0.97212 0.7704 0.40534 0.0
C2102 C 0.98762 0.7744 0.38591 0.0
C2103 C 0.03761 0.77957 0.38876 0.0
H2104 H 0.04907 0.81578 0.36318 0.0
C2105 C 0.11196 0.81123 0.36621 0.0
C2106 C 0.11165 0.81417 0.35352 0.0
C2107 C 0.09511 0.8064 0.37255 0.0
C2108 C 0.04598 0.80541 0.37014 0.0
H2109 H 0.99294 0.77852 0.42199 0.0
H2110 H 0.02233 0.78716 0.41091 0.0
H2111 H 0.01915 0.8057 0.37399 0.0
H2112 H 0.09338 0.81436 0.33754 0.0
H2113 H 0.06374 0.80523 0.34845 0.0
H2114 H 0.06397 0.77869 0.38476 0.0
C2115 C 0.00796 0.78198 0.40557 0.0
C2116 C 0.02885 0.79971 0.37638 0.0
C2117 C 0.99104 0.77691 0.41191 0.0
C2118 C 0.09415 0.81233 0.34734 0.0
C2119 C 0.07716 0.80718 0.35364 0.0
C2120 C 0.05458 0.78502 0.38241 0.0
C2121 C 0.00646 0.78095 0.39251 0.0
C2122 C 0.02453 0.7868 0.38579 0.0
C2123 C 0.07735 0.80404 0.36634 0.0
C2124 C 0.0591 0.79811 0.37304 0.0
H2125 H 0.95632 0.7637 0.38679 0.0
H2126 H 0.98597 0.77319 0.37583 0.0
H2127 H 0.03452 0.7694 0.39587 0.0
H2128 H 0.12529 0.81276 0.37129 0.0
H2129 H 0.09612 0.80462 0.38238 0.0
C2130 C 0.24635 0.20053 0.38105 0.0
C2131 C 0.26494 0.21121 0.38846 0.0
C2132 C 0.23816 0.2107 0.375 0.0
C2133 C 0.25115 0.26035 0.36484 0.0
H2134 H 0.19418 0.24089 0.36569 0.0
C2135 C 0.2155 0.30881 0.3549 0.0
C2136 C 0.19671 0.29971 0.34773 0.0
C2137 C 0.2238 0.29732 0.35873 0.0
C2138 C 0.21005 0.24634 0.36522 0.0
H2139 H 0.28968 0.24098 0.39511 0.0
H2140 H 0.27514 0.25877 0.38481 0.0
H2141 H 0.20889 0.2222 0.37456 0.0
H2142 H 0.17195 0.27137 0.33887 0.0
H2143 H 0.18652 0.25124 0.34564 0.0
H2144 H 0.25235 0.28473 0.35574 0.0
C2145 C 0.26702 0.2425 0.38354 0.0
C2146 C 0.21849 0.23564 0.37029 0.0
C2147 C 0.27525 0.23231 0.38957 0.0
C2148 C 0.18645 0.27884 0.3444 0.0
C2149 C 0.19473 0.2673 0.34831 0.0
C2150 C 0.24272 0.27108 0.35981 0.0
C2151 C 0.24831 0.23181 0.37625 0.0
C2152 C 0.23918 0.24264 0.37028 0.0
C2153 C 0.21349 0.27644 0.35554 0.0
C2154 C 0.22213 0.2643 0.36007 0.0
H2155 H 0.23789 0.18426 0.38011 0.0
H2156 H 0.22383 0.20202 0.36935 0.0
H2157 H 0.26706 0.26595 0.36448 0.0
H2158 H 0.22384 0.32486 0.35763 0.0
H2159 H 0.23815 0.30476 0.36443 0.0
C2160 C 0.64052 0.55775 0.72155 0.0
C2161 C 0.64133 0.55434 0.73415 0.0
C2162 C 0.65813 0.56764 0.71575 0.0
C2163 C 0.71299 0.60134 0.72191 0.0
H2164 H 0.71385 0.57837 0.6892 0.0
C2165 C 0.78653 0.62943 0.69904 0.0
C2166 C 0.78585 0.63155 0.68622 0.0
C2167 C 0.76884 0.61967 0.70475 0.0
C2168 C 0.7138 0.58513 0.69826 0.0
H2169 H 0.66139 0.55906 0.75058 0.0
H2170 H 0.69217 0.57656 0.74048 0.0
H2171 H 0.68317 0.56281 0.69952 0.0
H2172 H 0.76595 0.62471 0.66933 0.0
H2173 H 0.73502 0.60787 0.67934 0.0
H2174 H 0.74353 0.62375 0.72064 0.0
C2175 C 0.67787 0.57162 0.73511 0.0
C2176 C 0.69621 0.5762 0.70418 0.0
C2177 C 0.66023 0.56163 0.74091 0.0
C2178 C 0.76701 0.62326 0.6792 0.0
C2179 C 0.74927 0.61355 0.68494 0.0
C2180 C 0.73054 0.61033 0.71597 0.0
C2181 C 0.67699 0.57448 0.72242 0.0
C2182 C 0.69562 0.58417 0.71608 0.0
C2183 C 0.74998 0.61185 0.69782 0.0
C2184 C 0.7312 0.6023 0.70408 0.0
H2185 H 0.62624 0.55269 0.71613 0.0
H2186 H 0.65697 0.56995 0.70603 0.0
H2187 H 0.71292 0.60799 0.731 0.0
H2188 H 0.80077 0.6355 0.70473 0.0
H2189 H 0.76996 0.61827 0.71463 0.0
C2190 C 0.46555 0.10778 0.73787 0.0
C2191 C 0.48562 0.11771 0.73504 0.0
C2192 C 0.45194 0.11342 0.7332 0.0
C2193 C 0.44978 0.15462 0.71766 0.0
H2194 H 0.39369 0.11396 0.70923 0.0
C2195 C 0.39301 0.16345 0.68481 0.0
C2196 C 0.37548 0.16036 0.68992 0.0
C2197 C 0.40633 0.15884 0.69112 0.0
C2198 C 0.4093 0.12546 0.71164 0.0
H2199 H 0.50699 0.14177 0.72515 0.0
H2200 H 0.48314 0.15052 0.71636 0.0
H2201 H 0.41714 0.10457 0.71845 0.0
H2202 H 0.35802 0.14978 0.70558 0.0
H2203 H 0.38108 0.14101 0.71642 0.0
H2204 H 0.4419 0.17519 0.71015 0.0
C2205 C 0.47794 0.13877 0.72251 0.0
C2206 C 0.42277 0.12015 0.717 0.0
C2207 C 0.49163 0.13342 0.72738 0.0
C2208 C 0.37147 0.15242 0.70145 0.0
C2209 C 0.38457 0.14733 0.70762 0.0
C2210 C 0.43639 0.15978 0.71204 0.0
C2211 C 0.45788 0.12892 0.72537 0.0
C2212 C 0.44327 0.13464 0.72004 0.0
C2213 C 0.40214 0.15059 0.70252 0.0
C2214 C 0.41607 0.14524 0.70895 0.0
H2215 H 0.46017 0.09543 0.74358 0.0
H2216 H 0.43676 0.10562 0.7358 0.0
H2217 H 0.46525 0.16637 0.72013 0.0
H2218 H 0.39653 0.16962 0.67597 0.0
H2219 H 0.41976 0.16139 0.687 0.0
C2220 C 0.92818 0.37954 0.70323 0.0
C2221 C 0.92768 0.38478 0.71583 0.0
C2222 C 0.9197 0.35938 0.69854 0.0
C2223 C 0.88241 0.30838 0.70538 0.0
H2224 H 0.90779 0.29097 0.68165 0.0
C2225 C 0.85589 0.22493 0.69227 0.0
C2226 C 0.85422 0.21859 0.67958 0.0
C2227 C 0.86503 0.24534 0.6964 0.0
C2228 C 0.90045 0.29566 0.68818 0.0
H2229 H 0.91791 0.37286 0.73337 0.0
H2230 H 0.9038 0.33791 0.72531 0.0
H2231 H 0.92382 0.32648 0.68946 0.0
H2232 H 0.86098 0.22873 0.66128 0.0
H2233 H 0.87695 0.26441 0.66854 0.0
H2234 H 0.85917 0.27758 0.70421 0.0
C2235 C 0.91044 0.34933 0.71899 0.0
C2236 C 0.9096 0.31599 0.69264 0.0
C2237 C 0.91883 0.36942 0.72366 0.0
C2238 C 0.862 0.23311 0.67112 0.0
C2239 C 0.87125 0.25356 0.67527 0.0
C2240 C 0.87334 0.2881 0.70097 0.0
C2241 C 0.91054 0.34404 0.70635 0.0
C2242 C 0.90074 0.32255 0.70136 0.0
C2243 C 0.87278 0.25986 0.68795 0.0
C2244 C 0.8823 0.2815 0.69238 0.0
H2245 H 0.93505 0.39102 0.69697 0.0
H2246 H 0.91991 0.3558 0.68873 0.0
H2247 H 0.87495 0.31299 0.71187 0.0
H2248 H 0.85011 0.21414 0.69904 0.0
H2249 H 0.86621 0.24978 0.70625 0.0
C2250 C 0.20166 0.96505 0.609 0.0
C2251 C 0.19352 0.94943 0.61671 0.0
C2252 C 0.21508 0.98476 0.61406 0.0
C2253 C 0.24925 0.01542 0.64214 0.0
H2254 H 0.24292 0.05769 0.62873 0.0
C2255 C 0.29127 0.09793 0.66478 0.0
C2256 C 0.29925 0.11293 0.65663 0.0
C2257 C 0.27877 0.07778 0.66011 0.0
C2258 C 0.24501 0.04608 0.63249 0.0
H2259 H 0.19355 0.94227 0.63579 0.0
H2260 H 0.21664 0.97683 0.64468 0.0
H2261 H 0.22046 0.0229 0.62027 0.0
H2262 H 0.30052 0.11846 0.63717 0.0
H2263 H 0.27876 0.08336 0.62908 0.0
H2264 H 0.27373 0.03875 0.65446 0.0
C2265 C 0.21278 0.97375 0.63468 0.0
C2266 C 0.23216 0.02613 0.62764 0.0
C2267 C 0.19937 0.95398 0.62961 0.0
C2268 C 0.29458 0.10732 0.64373 0.0
C2269 C 0.28202 0.08721 0.63908 0.0
C2270 C 0.26207 0.03542 0.64705 0.0
C2271 C 0.22063 0.9894 0.62697 0.0
C2272 C 0.2342 0.01057 0.63234 0.0
C2273 C 0.2739 0.07223 0.64721 0.0
C2274 C 0.26015 0.05096 0.64221 0.0
H2275 H 0.19731 0.96216 0.59905 0.0
H2276 H 0.22108 0.99639 0.60783 0.0
H2277 H 0.25136 0.00382 0.64588 0.0
H2278 H 0.29459 0.10174 0.67477 0.0
H2279 H 0.2726 0.06658 0.66661 0.0
C2280 C 0.02432 0.22038 0.61736 0.0
C2281 C 0.02447 0.2178 0.60439 0.0
C2282 C 0.00642 0.21519 0.62255 0.0
C2283 C 0.95112 0.18357 0.6158 0.0
H2284 H 0.95108 0.21592 0.64466 0.0
C2285 C 0.87803 0.16839 0.63697 0.0
C2286 C 0.87883 0.17022 0.65005 0.0
C2287 C 0.89554 0.17424 0.63112 0.0
C2288 C 0.95086 0.2066 0.63668 0.0
H2289 H 0.0058 0.20791 0.58671 0.0
H2290 H 0.97457 0.19921 0.59577 0.0
H2291 H 0.98195 0.22659 0.63484 0.0
H2292 H 0.89879 0.17949 0.6672 0.0
H2293 H 0.92922 0.18953 0.657 0.0
H2294 H 0.91998 0.16359 0.61766 0.0
C2295 C 0.98831 0.20501 0.60193 0.0
C2296 C 0.96858 0.21273 0.63104 0.0
C2297 C 0.00627 0.21022 0.59672 0.0
C2298 C 0.89756 0.17788 0.65712 0.0
C2299 C 0.91507 0.18378 0.65126 0.0
C2300 C 0.93336 0.17747 0.62143 0.0
C2301 C 0.98814 0.20731 0.61493 0.0
C2302 C 0.969 0.20122 0.62058 0.0
C2303 C 0.91431 0.18215 0.6382 0.0
C2304 C 0.93305 0.18883 0.632 0.0
H2305 H 0.03809 0.22644 0.62354 0.0
H2306 H 0.00688 0.21699 0.63259 0.0
H2307 H 0.95093 0.17418 0.60788 0.0
H2308 H 0.8639 0.16265 0.63121 0.0
H2309 H 0.89443 0.17296 0.62104 0.0
C2310 C 0.74772 0.78651 0.6238 0.0
C2311 C 0.73215 0.77623 0.61403 0.0
C2312 C 0.75707 0.77704 0.62941 0.0
C2313 C 0.75211 0.72674 0.63193 0.0
H2314 H 0.80919 0.75902 0.64287 0.0
C2315 C 0.80407 0.6945 0.64378 0.0
C2316 C 0.81419 0.70081 0.65587 0.0
C2317 C 0.79384 0.70368 0.63893 0.0
C2318 C 0.79323 0.7499 0.6399 0.0
H2319 H 0.71399 0.74759 0.60275 0.0
H2320 H 0.73114 0.73154 0.61195 0.0
H2321 H 0.79154 0.77483 0.63377 0.0
H2322 H 0.82197 0.72191 0.67227 0.0
H2323 H 0.80459 0.73847 0.66355 0.0
H2324 H 0.75428 0.70165 0.6376 0.0
C2325 C 0.73577 0.74678 0.61555 0.0
C2326 C 0.78303 0.75893 0.63477 0.0
C2327 C 0.72611 0.75614 0.6101 0.0
C2328 C 0.81425 0.71674 0.66293 0.0
C2329 C 0.80439 0.72622 0.65797 0.0
C2330 C 0.76244 0.71766 0.63682 0.0
C2331 C 0.75148 0.75715 0.62523 0.0
C2332 C 0.7623 0.74749 0.63075 0.0
C2333 C 0.79394 0.71959 0.64599 0.0
C2334 C 0.78304 0.7292 0.64086 0.0
H2335 H 0.7531 0.80209 0.62699 0.0
H2336 H 0.76879 0.78543 0.637 0.0
H2337 H 0.73611 0.71747 0.6292 0.0
H2338 H 0.80367 0.68216 0.63816 0.0
H2339 H 0.78594 0.69843 0.62965 0.0
C2340 C 0.02059 0.77245 0.60312 0.0
C2341 C 0.03125 0.79356 0.60418 0.0
C2342 C 0.00355 0.76207 0.60938 0.0
C2343 C 0.96507 0.76817 0.6251 0.0
H2344 H 0.95679 0.72039 0.63981 0.0
C2345 C 0.90252 0.72632 0.65737 0.0
C2346 C 0.89131 0.70531 0.65467 0.0
C2347 C 0.9199 0.73773 0.65155 0.0
C2348 C 0.95885 0.73365 0.63569 0.0
H2349 H 0.03189 0.82028 0.61241 0.0
H2350 H 0.00265 0.80225 0.62363 0.0
H2351 H 0.9863 0.73891 0.62882 0.0
H2352 H 0.88969 0.67985 0.64375 0.0
H2353 H 0.91987 0.69968 0.63375 0.0
H2354 H 0.93762 0.7629 0.63212 0.0
C2355 C 0.0073 0.79366 0.61784 0.0
C2356 C 0.97571 0.74422 0.62934 0.0
C2357 C 0.02426 0.80402 0.61153 0.0
C2358 C 0.89793 0.69599 0.64609 0.0
C2359 C 0.91532 0.70734 0.64039 0.0
C2360 C 0.94826 0.75765 0.63154 0.0
C2361 C 0.99678 0.77255 0.61691 0.0
C2362 C 0.97896 0.76152 0.62386 0.0
C2363 C 0.9265 0.72831 0.64304 0.0
C2364 C 0.94488 0.74017 0.6368 0.0
H2365 H 0.02562 0.7639 0.59763 0.0
H2366 H 0.99565 0.74581 0.60829 0.0
H2367 H 0.96694 0.78128 0.62087 0.0
H2368 H 0.89781 0.73396 0.6639 0.0
H2369 H 0.9283 0.75388 0.65381 0.0
C2370 C 0.1886 0.22591 0.61175 0.0
C2371 C 0.18739 0.22666 0.59877 0.0
C2372 C 0.20151 0.22036 0.61762 0.0
C2373 C 0.24779 0.2191 0.61466 0.0
H2374 H 0.22729 0.17815 0.63746 0.0
C2375 C 0.29709 0.18959 0.63692 0.0
C2376 C 0.29447 0.18461 0.64921 0.0
C2377 C 0.28385 0.19413 0.63038 0.0
C2378 C 0.2334 0.18984 0.63128 0.0
H2379 H 0.19885 0.22179 0.58183 0.0
H2380 H 0.22187 0.21286 0.59219 0.0
H2381 H 0.20482 0.18772 0.62709 0.0
H2382 H 0.27609 0.18084 0.66434 0.0
H2383 H 0.25359 0.18944 0.65319 0.0
H2384 H 0.27651 0.22181 0.6191 0.0
C2385 C 0.21275 0.21659 0.59777 0.0
C2386 C 0.22045 0.19523 0.6253 0.0
C2387 C 0.19961 0.22183 0.59186 0.0
C2388 C 0.27841 0.18438 0.65483 0.0
C2389 C 0.26539 0.18921 0.64838 0.0
C2390 C 0.26084 0.21395 0.62079 0.0
C2391 C 0.21376 0.21572 0.61069 0.0
C2392 C 0.22751 0.20992 0.61695 0.0
C2393 C 0.26784 0.19408 0.63604 0.0
C2394 C 0.25385 0.19927 0.62922 0.0
H2395 H 0.17978 0.22989 0.61745 0.0
H2396 H 0.20217 0.22002 0.62763 0.0
H2397 H 0.25365 0.2306 0.60833 0.0
H2398 H 0.30925 0.18976 0.6323 0.0
H2399 H 0.28607 0.19747 0.62083 0.0
C2400 C 0.71302 0.93856 0.62572 0.0
C2401 C 0.7236 0.92847 0.62825 0.0
C2402 C 0.721 0.95865 0.63037 0.0
C2403 C 0.7596 0.99905 0.65354 0.0
H2404 H 0.75738 0.03412 0.63008 0.0
C2405 C 0.80821 0.0857 0.66183 0.0
C2406 C 0.79891 0.09671 0.65849 0.0
C2407 C 0.79831 0.06489 0.65874 0.0
C2408 C 0.75792 0.02451 0.6368 0.0
H2409 H 0.75071 0.93149 0.63782 0.0
H2410 H 0.76458 0.96647 0.64592 0.0
H2411 H 0.74072 0.99812 0.62399 0.0
H2412 H 0.77182 0.09444 0.64943 0.0
H2413 H 0.75458 0.05825 0.64415 0.0
H2414 H 0.77704 0.02555 0.6663 0.0
C2415 C 0.74999 0.95879 0.6405 0.0
C2416 C 0.74833 0.00386 0.63332 0.0
C2417 C 0.74201 0.93872 0.63586 0.0
C2418 C 0.77948 0.08646 0.65208 0.0
C2419 C 0.76961 0.06571 0.649 0.0
C2420 C 0.76922 0.01973 0.65703 0.0
C2421 C 0.73975 0.96909 0.63762 0.0
C2422 C 0.74912 0.9909 0.64162 0.0
C2423 C 0.77893 0.05469 0.65225 0.0
C2424 C 0.76854 0.03269 0.64867 0.0
H2425 H 0.69868 0.93098 0.62002 0.0
H2426 H 0.71258 0.96608 0.62817 0.0
H2427 H 0.76029 0.98942 0.6602 0.0
H2428 H 0.82317 0.09315 0.66678 0.0
H2429 H 0.80596 0.05685 0.66126 0.0
C2430 C 0.4852 0.38738 0.70805 0.0
C2431 C 0.47894 0.39923 0.71462 0.0
C2432 C 0.47122 0.36782 0.70295 0.0
C2433 C 0.42135 0.3261 0.70729 0.0
H2434 H 0.4255 0.30345 0.67537 0.0
C2435 C 0.36373 0.2449 0.68664 0.0
C2436 C 0.37153 0.23368 0.68105 0.0
C2437 C 0.37608 0.26551 0.6901 0.0
C2438 C 0.42425 0.30951 0.68435 0.0
H2439 H 0.45298 0.40016 0.72048 0.0
H2440 H 0.42856 0.36596 0.71161 0.0
H2441 H 0.44831 0.33899 0.68222 0.0
H2442 H 0.39843 0.23532 0.67471 0.0
H2443 H 0.41999 0.27116 0.6809 0.0
H2444 H 0.39754 0.2966 0.70953 0.0
C2445 C 0.44433 0.37172 0.71057 0.0
C2446 C 0.43729 0.32987 0.68825 0.0
C2447 C 0.45831 0.3913 0.71565 0.0
C2448 C 0.39192 0.24352 0.67897 0.0
C2449 C 0.40426 0.26411 0.68244 0.0
C2450 C 0.40834 0.30574 0.70339 0.0
C2451 C 0.45067 0.35966 0.70433 0.0
C2452 C 0.43609 0.33835 0.69981 0.0
C2453 C 0.39649 0.27535 0.68805 0.0
C2454 C 0.40975 0.29717 0.69193 0.0
H2455 H 0.501 0.39293 0.70725 0.0
H2456 H 0.47661 0.35883 0.69834 0.0
H2457 H 0.42025 0.3321 0.71633 0.0
H2458 H 0.34806 0.2378 0.68832 0.0
H2459 H 0.36958 0.27379 0.69427 0.0
C2460 C 0.63634 0.10316 0.72537 0.0
C2461 C 0.63781 0.10424 0.73846 0.0
C2462 C 0.65334 0.10878 0.71902 0.0
C2463 C 0.70948 0.1373 0.724 0.0
H2464 H 0.70448 0.10969 0.69165 0.0
C2465 C 0.7775 0.14551 0.69939 0.0
C2466 C 0.77735 0.1485 0.6867 0.0
C2467 C 0.76065 0.14095 0.70568 0.0
C2468 C 0.70606 0.11765 0.70063 0.0
H2469 H 0.65859 0.11203 0.75507 0.0
H2470 H 0.68789 0.12075 0.74403 0.0
H2471 H 0.67482 0.09935 0.70274 0.0
H2472 H 0.75941 0.14913 0.67067 0.0
H2473 H 0.7298 0.14077 0.68164 0.0
H2474 H 0.74093 0.15513 0.72197 0.0
C2475 C 0.67368 0.11611 0.73864 0.0
C2476 C 0.68904 0.11179 0.707 0.0
C2477 C 0.65673 0.11074 0.745 0.0
C2478 C 0.76002 0.14698 0.68045 0.0
C2479 C 0.74304 0.14207 0.6867 0.0
C2480 C 0.72654 0.14295 0.71771 0.0
C2481 C 0.67228 0.11537 0.72556 0.0
C2482 C 0.69048 0.12154 0.71878 0.0
C2483 C 0.74316 0.13895 0.69937 0.0
C2484 C 0.725 0.13321 0.70595 0.0
H2485 H 0.62203 0.09792 0.71995 0.0
H2486 H 0.6516 0.10821 0.70898 0.0
H2487 H 0.71122 0.1455 0.7329 0.0
H2488 H 0.79064 0.14666 0.70449 0.0
H2489 H 0.76114 0.13851 0.71542 0.0
C2490 C 0.94057 0.56554 0.72517 0.0
C2491 C 0.93014 0.54443 0.72381 0.0
C2492 C 0.93221 0.576 0.71965 0.0
C2493 C 0.89434 0.57134 0.69513 0.0
H2494 H 0.8964 0.61546 0.71565 0.0
C2495 C 0.85144 0.61195 0.67999 0.0
C2496 C 0.86161 0.63291 0.68291 0.0
C2497 C 0.85954 0.60063 0.68461 0.0
C2498 C 0.8959 0.60334 0.70973 0.0
H2499 H 0.9028 0.51776 0.71547 0.0
H2500 H 0.88836 0.53607 0.70574 0.0
H2501 H 0.91153 0.59697 0.72413 0.0
H2502 H 0.8885 0.65846 0.69272 0.0
H2503 H 0.90267 0.63886 0.70054 0.0
H2504 H 0.87882 0.57785 0.68068 0.0
C2505 C 0.90307 0.5445 0.71099 0.0
C2506 C 0.90457 0.59275 0.71461 0.0
C2507 C 0.91138 0.53403 0.71656 0.0
C2508 C 0.88014 0.64232 0.69038 0.0
C2509 C 0.88824 0.63106 0.69493 0.0
C2510 C 0.88573 0.58202 0.69022 0.0
C2511 C 0.91329 0.56559 0.71262 0.0
C2512 C 0.90399 0.57671 0.70735 0.0
C2513 C 0.87798 0.61007 0.69221 0.0
C2514 C 0.88652 0.59823 0.69745 0.0
H2515 H 0.9552 0.57401 0.7305 0.0
H2516 H 0.94058 0.59228 0.72089 0.0
H2517 H 0.89379 0.55912 0.6893 0.0
H2518 H 0.83711 0.60425 0.67426 0.0
H2519 H 0.85118 0.58446 0.68243 0.0
C2520 C 0.4806 0.97718 0.18326 0.0
C2521 C 0.4609 0.96167 0.18427 0.0
C2522 C 0.48602 0.98528 0.17196 0.0
C2523 C 0.46488 0.98908 0.14106 0.0
H2524 H 0.51684 0.00066 0.13125 0.0
C2525 C 0.48654 0.00536 0.09103 0.0
C2526 C 0.50626 0.02051 0.08966 0.0
C2527 C 0.481 0.99909 0.10274 0.0
C2528 C 0.50238 0.99776 0.13391 0.0
H2529 H 0.4314 0.94265 0.17415 0.0
H2530 H 0.44085 0.95668 0.15441 0.0
H2531 H 0.50711 0.98812 0.15129 0.0
H2532 H 0.5356 0.04095 0.09959 0.0
H2533 H 0.52587 0.03014 0.12006 0.0
H2534 H 0.46011 0.99851 0.12357 0.0
C2535 C 0.45207 0.96281 0.16241 0.0
C2536 C 0.49679 0.99057 0.14542 0.0
C2537 C 0.44664 0.95474 0.17374 0.0
C2538 C 0.52025 0.02936 0.10033 0.0
C2539 C 0.51473 0.02301 0.11204 0.0
C2540 C 0.47046 0.99622 0.12952 0.0
C2541 C 0.47189 0.97806 0.16134 0.0
C2542 C 0.47795 0.98609 0.14915 0.0
C2543 C 0.49505 0.00774 0.11338 0.0
C2544 C 0.48926 0.0006 0.12579 0.0
H2545 H 0.49187 0.98311 0.19124 0.0
H2546 H 0.5013 0.99728 0.17157 0.0
H2547 H 0.45039 0.9861 0.14369 0.0
H2548 H 0.47532 0.99839 0.08304 0.0
H2549 H 0.46577 0.98718 0.10341 0.0
C2550 C 0.99397 0.47749 0.18661 0.0
C2551 C 0.00576 0.49672 0.19314 0.0
C2552 C 0.99161 0.47504 0.17357 0.0
C2553 C 0.01511 0.50134 0.14641 0.0
H2554 H 0.96294 0.4649 0.12825 0.0
C2555 C 0.99469 0.50784 0.09575 0.0
C2556 C 0.98408 0.49018 0.08752 0.0
C2557 C 0.99812 0.50688 0.10842 0.0
C2558 C 0.97766 0.47491 0.1332 0.0
H2559 H 0.02442 0.52843 0.19106 0.0
H2560 H 0.01974 0.52426 0.16847 0.0
H2561 H 0.96709 0.4666 0.15095 0.0
H2562 H 0.96887 0.45768 0.08602 0.0
H2563 H 0.97469 0.45596 0.10838 0.0
H2564 H 0.02549 0.51011 0.1287 0.0
C2565 C 0.01258 0.511 0.17337 0.0
C2566 C 0.98005 0.47589 0.14619 0.0
C2567 C 0.01499 0.51343 0.18635 0.0
C2568 C 0.97715 0.4715 0.09219 0.0
C2569 C 0.98036 0.47052 0.10495 0.0
C2570 C 0.01268 0.50046 0.13346 0.0
C2571 C 0.001 0.49178 0.16681 0.0
C2572 C 0.99872 0.48941 0.15296 0.0
C2573 C 0.99087 0.48823 0.11317 0.0
C2574 C 0.99385 0.48751 0.12675 0.0
H2575 H 0.98651 0.46431 0.19155 0.0
H2576 H 0.98267 0.46002 0.16881 0.0
H2577 H 0.02982 0.51155 0.15131 0.0
H2578 H 1.00036 0.52244 0.09237 0.0
H2579 H 0.00609 0.52076 0.11456 0.0
C2580 C 0.46409 0.48933 0.17986 0.0
C2581 C 0.48074 0.49783 0.18898 0.0
C2582 C 0.46634 0.48549 0.16742 0.0
C2583 C 0.50482 0.50422 0.14578 0.0
H2584 H 0.46646 0.45735 0.12352 0.0
C2585 C 0.50429 0.50276 0.09261 0.0
C2586 C 0.50299 0.48577 0.08607 0.0
C2587 C 0.50107 0.50284 0.10517 0.0
C2588 C 0.47734 0.47046 0.12966 0.0
H2589 H 0.51247 0.50756 0.19232 0.0
H2590 H 0.5164 0.50106 0.17065 0.0
H2591 H 0.4618 0.45909 0.14569 0.0
H2592 H 0.49685 0.45538 0.08751 0.0
H2593 H 0.49112 0.45549 0.10955 0.0
H2594 H 0.52028 0.51571 0.12983 0.0
C2595 C 0.50169 0.4977 0.17307 0.0
C2596 C 0.4746 0.47152 0.14231 0.0
C2597 C 0.49944 0.50145 0.18549 0.0
C2598 C 0.49808 0.46872 0.09234 0.0
C2599 C 0.49465 0.46873 0.1049 0.0
C2600 C 0.50744 0.50326 0.13316 0.0
C2601 C 0.48529 0.49013 0.16385 0.0
C2602 C 0.48832 0.48844 0.1505 0.0
C2603 C 0.49634 0.48589 0.11148 0.0
C2604 C 0.49369 0.48644 0.12494 0.0
H2605 H 0.44951 0.48651 0.18221 0.0
H2606 H 0.45344 0.47976 0.1605 0.0
H2607 H 0.51552 0.51757 0.15182 0.0
H2608 H 0.50824 0.5162 0.08809 0.0
H2609 H 0.50228 0.5162 0.10995 0.0
C2610 C 0.98204 0.50091 0.82077 0.0
C2611 C 0.99215 0.49376 0.8135 0.0
C2612 C 0.98598 0.50397 0.83373 0.0
C2613 C 0.00456 0.4871 0.85971 0.0
H2614 H 0.00922 0.53371 0.8788 0.0
C2615 C 0.00465 0.49263 0.9131 0.0
C2616 C 0.01934 0.5109 0.91974 0.0
C2617 C 0.00121 0.49098 0.90014 0.0
C2618 C 0.00804 0.52066 0.87358 0.0
H2619 H 0.01489 0.48498 0.81416 0.0
H2620 H 0.02163 0.49017 0.83681 0.0
H2621 H 0.00441 0.53063 0.85606 0.0
H2622 H 0.04151 0.54191 0.91807 0.0
H2623 H 0.03558 0.53899 0.89541 0.0
H2624 H 0.00831 0.47718 0.8772 0.0
C2625 C 0.01046 0.49314 0.83246 0.0
C2626 C 0.00513 0.51883 0.86058 0.0
C2627 C 0.00659 0.49016 0.81949 0.0
C2628 C 0.03024 0.52758 0.91318 0.0
C2629 C 0.02672 0.52597 0.90023 0.0
C2630 C 0.00733 0.48887 0.8727 0.0
C2631 C 1.00005 0.49987 0.83972 0.0
C2632 C 0.0034 0.50204 0.85351 0.0
C2633 C 0.0123 0.5076 0.89356 0.0
C2634 C 0.00911 0.50567 0.87977 0.0
H2635 H 0.9706 0.50354 0.81647 0.0
H2636 H 0.97756 0.50895 0.83909 0.0
H2637 H 0.00305 0.47388 0.85452 0.0
H2638 H 0.99611 0.47948 0.91789 0.0
H2639 H 0.98985 0.47669 0.89525 0.0
C2640 C 0.53387 0.51438 0.8228 0.0
C2641 C 0.52608 0.49507 0.81649 0.0
C2642 C 0.5307 0.51671 0.83527 0.0
C2643 C 0.49512 0.49009 0.85754 0.0
H2644 H 0.53755 0.52604 0.88322 0.0
C2645 C 0.48223 0.48696 0.9093 0.0
C2646 C 0.49156 0.50498 0.91722 0.0
C2647 C 0.48695 0.48667 0.89706 0.0
C2648 C 0.52545 0.51616 0.87614 0.0
H2649 H 0.50999 0.46317 0.81863 0.0
H2650 H 0.50413 0.46728 0.84015 0.0
H2651 H 0.54529 0.52433 0.86175 0.0
H2652 H 0.51297 0.5369 0.91852 0.0
H2653 H 0.52088 0.53654 0.89703 0.0
H2654 H 0.47516 0.48208 0.87171 0.0
C2655 C 0.51239 0.48057 0.83542 0.0
C2656 C 0.52993 0.51516 0.86386 0.0
C2657 C 0.5157 0.47824 0.82306 0.0
C2658 C 0.50568 0.52275 0.91264 0.0
C2659 C 0.51026 0.52251 0.90034 0.0
C2660 C 0.49059 0.49124 0.86975 0.0
C2661 C 0.51957 0.49979 0.84159 0.0
C2662 C 0.51485 0.50189 0.85449 0.0
C2663 C 0.50095 0.50445 0.89238 0.0
C2664 C 0.50573 0.50405 0.87926 0.0
H2665 H 0.54184 0.52765 0.81801 0.0
H2666 H 0.53638 0.5317 0.83983 0.0
H2667 H 0.48312 0.47998 0.85045 0.0
H2668 H 0.47152 0.47298 0.91264 0.0
H2669 H 0.47979 0.47239 0.89132 0.0
C2670 C 0.50988 0.03488 0.82702 0.0
C2671 C 0.52892 0.04904 0.82384 0.0
C2672 C 0.50767 0.02789 0.83877 0.0
C2673 C 0.53256 0.04184 0.87097 0.0
H2674 H 0.49425 0.9864 0.87505 0.0
C2675 C 0.50683 0.01596 0.91888 0.0
C2676 C 0.50411 0.99725 0.92168 0.0
C2677 C 0.51063 0.02194 0.90692 0.0
C2678 C 0.50515 0.0019 0.87408 0.0
H2679 H 0.56063 0.0667 0.83052 0.0
H2680 H 0.55682 0.05425 0.85098 0.0
H2681 H 0.49988 0.99698 0.85418 0.0
H2682 H 0.50357 0.9703 0.91407 0.0
H2683 H 0.51018 0.98073 0.89321 0.0
H2684 H 0.53798 0.04672 0.89086 0.0
C2685 C 0.54355 0.04874 0.84441 0.0
C2686 C 0.50822 0.00802 0.86211 0.0
C2687 C 0.54577 0.05571 0.83263 0.0
C2688 C 0.5053 0.98468 0.9122 0.0
C2689 C 0.5091 0.99067 0.90023 0.0
C2690 C 0.52947 0.03573 0.88294 0.0
C2691 C 0.52444 0.03486 0.84767 0.0
C2692 C 0.52185 0.02811 0.86039 0.0
C2693 C 0.51181 0.00938 0.89744 0.0
C2694 C 0.51562 0.01571 0.88466 0.0
H2695 H 0.49662 0.02921 0.82042 0.0
H2696 H 0.49271 0.01736 0.84098 0.0
H2697 H 0.54303 0.05747 0.87001 0.0
H2698 H 0.50567 0.02588 0.92588 0.0
H2699 H 0.51228 0.03629 0.90506 0.0
C2700 C 0.14514 0.30729 0.5162 0.0
C2701 C 0.12543 0.29198 0.51739 0.0
C2702 C 0.15045 0.31491 0.50476 0.0
C2703 C 0.12929 0.3179 0.4737 0.0
H2704 H 0.18062 0.32756 0.46381 0.0
C2705 C 0.15076 0.33235 0.42343 0.0
C2706 C 0.17068 0.34688 0.42196 0.0
C2707 C 0.14513 0.32647 0.4352 0.0
C2708 C 0.16635 0.3252 0.46648 0.0
H2709 H 0.09577 0.27288 0.50749 0.0
H2710 H 0.10503 0.28612 0.48751 0.0
H2711 H 0.17094 0.31599 0.48405 0.0
H2712 H 0.20029 0.36662 0.43178 0.0
H2713 H 0.19041 0.35661 0.45233 0.0
H2714 H 0.12467 0.32696 0.45604 0.0
C2715 C 0.11635 0.29243 0.49547 0.0
C2716 C 0.16079 0.31856 0.47811 0.0
C2717 C 0.11103 0.28482 0.50693 0.0
C2718 C 0.18479 0.35552 0.43258 0.0
C2719 C 0.17917 0.34961 0.44435 0.0
C2720 C 0.13486 0.32452 0.46205 0.0
C2721 C 0.1362 0.30741 0.49421 0.0
C2722 C 0.14218 0.3148 0.48187 0.0
C2723 C 0.15929 0.33494 0.4458 0.0
C2724 C 0.15345 0.32822 0.45828 0.0
H2725 H 0.15653 0.3134 0.52412 0.0
H2726 H 0.16576 0.32673 0.5042 0.0
H2727 H 0.11497 0.31543 0.47635 0.0
H2728 H 0.13945 0.32554 0.41548 0.0
H2729 H 0.12974 0.31501 0.43596 0.0
C2730 C 0.66604 0.81505 0.5188 0.0
C2731 C 0.6763 0.83438 0.52535 0.0
C2732 C 0.66338 0.81261 0.50578 0.0
C2733 C 0.68343 0.84031 0.4784 0.0
H2734 H 0.63246 0.79924 0.46085 0.0
C2735 C 0.65871 0.84246 0.42767 0.0
C2736 C 0.64986 0.82454 0.41965 0.0
C2737 C 0.66288 0.84236 0.44038 0.0
C2738 C 0.64686 0.81059 0.46563 0.0
H2739 H 0.69194 0.86628 0.52328 0.0
H2740 H 0.68665 0.86205 0.50069 0.0
H2741 H 0.63765 0.80159 0.48353 0.0
H2742 H 0.63852 0.7925 0.41857 0.0
H2743 H 0.64562 0.79228 0.44098 0.0
H2744 H 0.69236 0.8497 0.46051 0.0
C2745 C 0.68097 0.84874 0.50558 0.0
C2746 C 0.64986 0.81194 0.47862 0.0
C2747 C 0.68372 0.85117 0.51857 0.0
C2748 C 0.6454 0.80651 0.42457 0.0
C2749 C 0.64934 0.80637 0.43736 0.0
C2750 C 0.68036 0.83906 0.46545 0.0
C2751 C 0.67087 0.82944 0.49901 0.0
C2752 C 0.66808 0.82704 0.48517 0.0
C2753 C 0.65813 0.82432 0.44537 0.0
C2754 C 0.66195 0.82439 0.45896 0.0
H2755 H 0.65996 0.80178 0.52373 0.0
H2756 H 0.65566 0.79754 0.50102 0.0
H2757 H 0.69782 0.85181 0.48311 0.0
H2758 H 0.66248 0.8566 0.42409 0.0
H2759 H 0.66949 0.85639 0.44636 0.0
C2760 C 0.16283 0.83928 0.51741 0.0
C2761 C 0.14452 0.8369 0.52084 0.0
C2762 C 0.16519 0.83605 0.50494 0.0
C2763 C 0.13809 0.81238 0.47388 0.0
H2764 H 0.18679 0.85392 0.46224 0.0
C2765 C 0.16286 0.8056 0.42509 0.0
C2766 C 0.17032 0.82275 0.41861 0.0
C2767 C 0.1588 0.80656 0.43746 0.0
C2768 C 0.17307 0.84226 0.46533 0.0
H2769 H 0.11406 0.82844 0.51386 0.0
H2770 H 0.11814 0.82255 0.49205 0.0
H2771 H 0.18121 0.8563 0.48406 0.0
H2772 H 0.17936 0.85433 0.42003 0.0
H2773 H 0.17227 0.85602 0.44162 0.0
H2774 H 0.12993 0.79842 0.45506 0.0
C2775 C 0.13065 0.82693 0.49905 0.0
C2776 C 0.16997 0.8435 0.47785 0.0
C2777 C 0.12831 0.83026 0.51155 0.0
C2778 C 0.17351 0.84084 0.42475 0.0
C2779 C 0.16961 0.84184 0.43714 0.0
C2780 C 0.14127 0.81104 0.46134 0.0
C2781 C 0.14927 0.83024 0.4956 0.0
C2782 C 0.15246 0.82859 0.48228 0.0
C2783 C 0.16229 0.82474 0.44365 0.0
C2784 C 0.15878 0.82602 0.45693 0.0
H2785 H 0.17548 0.84393 0.52435 0.0
H2786 H 0.17958 0.83831 0.50259 0.0
H2787 H 0.12449 0.80063 0.47703 0.0
H2788 H 0.16006 0.7914 0.42057 0.0
H2789 H 0.1533 0.79317 0.44225 0.0
C2790 C 0.66638 0.81839 0.15156 0.0
C2791 C 0.6524 0.82267 0.14563 0.0
C2792 C 0.67001 0.82088 0.16454 0.0
C2793 C 0.66559 0.8472 0.19264 0.0
H2794 H 0.66892 0.8058 0.20947 0.0
C2795 C 0.69283 0.85761 0.24494 0.0
C2796 C 0.68215 0.8413 0.25182 0.0
C2797 C 0.68878 0.85547 0.232 0.0
C2798 C 0.66789 0.81742 0.2049 0.0
H2799 H 0.63116 0.8328 0.14873 0.0
H2800 H 0.63768 0.83736 0.17136 0.0
H2801 H 0.66278 0.80187 0.18679 0.0
H2802 H 0.65881 0.80997 0.25055 0.0
H2803 H 0.65162 0.80626 0.22793 0.0
H2804 H 0.67054 0.86267 0.21077 0.0
C2805 C 0.64597 0.83227 0.16595 0.0
C2806 C 0.6646 0.81528 0.19192 0.0
C2807 C 0.64228 0.82969 0.15298 0.0
C2808 C 0.66719 0.82285 0.2455 0.0
C2809 C 0.66322 0.82067 0.23255 0.0
C2810 C 0.669 0.84939 0.20563 0.0
C2811 C 0.6598 0.82779 0.17187 0.0
C2812 C 0.66341 0.83014 0.18565 0.0
C2813 C 0.67403 0.83694 0.22566 0.0
C2814 C 0.67018 0.83452 0.21189 0.0
H2815 H 0.67466 0.81326 0.14617 0.0
H2816 H 0.68097 0.81759 0.16884 0.0
H2817 H 0.66489 0.85897 0.18806 0.0
H2818 H 0.70431 0.87207 0.24956 0.0
H2819 H 0.69747 0.86823 0.22693 0.0
C2820 C 0.20443 0.84965 0.15696 0.0
C2821 C 0.19523 0.83017 0.15065 0.0
C2822 C 0.20152 0.85254 0.16941 0.0
C2823 C 0.16452 0.82886 0.19126 0.0
H2824 H 0.20753 0.86024 0.21769 0.0
C2825 C 0.14931 0.8234 0.24235 0.0
C2826 C 0.15959 0.84069 0.2509 0.0
C2827 C 0.15458 0.8236 0.23024 0.0
C2828 C 0.19531 0.8517 0.21039 0.0
H2829 H 0.17689 0.79842 0.15282 0.0
H2830 H 0.1714 0.80355 0.1743 0.0
H2831 H 0.21552 0.85829 0.19627 0.0
H2832 H 0.1836 0.87176 0.2535 0.0
H2833 H 0.19258 0.87234 0.23214 0.0
H2834 H 0.14422 0.82244 0.20512 0.0
C2835 C 0.18063 0.81657 0.16957 0.0
C2836 C 0.19993 0.85055 0.19815 0.0
C2837 C 0.18371 0.81367 0.15723 0.0
C2838 C 0.17546 0.8582 0.2471 0.0
C2839 C 0.18062 0.85849 0.23489 0.0
C2840 C 0.15989 0.83021 0.20341 0.0
C2841 C 0.18922 0.83601 0.17572 0.0
C2842 C 0.18457 0.83877 0.18853 0.0
C2843 C 0.17015 0.8412 0.22628 0.0
C2844 C 0.17523 0.84126 0.2132 0.0
H2845 H 0.21331 0.8627 0.15217 0.0
H2846 H 0.20829 0.86769 0.17397 0.0
H2847 H 0.15236 0.81998 0.18396 0.0
H2848 H 0.13732 0.80955 0.2451 0.0
H2849 H 0.14654 0.80983 0.22402 0.0
C2850 C 0.17576 0.36357 0.15819 0.0
C2851 C 0.19479 0.379 0.15588 0.0
C2852 C 0.17268 0.35615 0.16981 0.0
C2853 C 0.19909 0.35405 0.19909 0.0
H2854 H 0.14992 0.34392 0.21275 0.0
C2855 C 0.18587 0.33924 0.25053 0.0
C2856 C 0.16654 0.32447 0.25293 0.0
C2857 C 0.18957 0.34528 0.23858 0.0
C2858 C 0.16361 0.34642 0.20902 0.0
H2859 H 0.22563 0.39847 0.16392 0.0
H2860 H 0.22026 0.38559 0.18426 0.0
H2861 H 0.15602 0.35537 0.19215 0.0
H2862 H 0.13596 0.30449 0.24456 0.0
H2863 H 0.14248 0.3148 0.22369 0.0
H2864 H 0.20671 0.34524 0.21606 0.0
C2865 C 0.20774 0.37905 0.17702 0.0
C2866 C 0.16712 0.35299 0.19719 0.0
C2867 C 0.21083 0.38645 0.16536 0.0
C2868 C 0.15106 0.31577 0.24304 0.0
C2869 C 0.15475 0.32185 0.23109 0.0
C2870 C 0.19559 0.34751 0.21095 0.0
C2871 C 0.18855 0.364 0.17945 0.0
C2872 C 0.18488 0.35687 0.19205 0.0
C2873 C 0.17403 0.33675 0.22872 0.0
C2874 C 0.17779 0.34359 0.21606 0.0
H2875 H 0.16317 0.35722 0.15101 0.0
H2876 H 0.15781 0.34424 0.17124 0.0
H2877 H 0.21281 0.35665 0.19537 0.0
H2878 H 0.1982 0.34609 0.2579 0.0
H2879 H 0.20455 0.35691 0.23711 0.0
C2880 C 0.81485 0.64179 0.84968 0.0
C2881 C 0.79512 0.6266 0.85095 0.0
C2882 C 0.82009 0.64933 0.83822 0.0
C2883 C 0.79861 0.65201 0.80712 0.0
H2884 H 0.85004 0.66205 0.79718 0.0
C2885 C 0.8195 0.66572 0.75673 0.0
C2886 C 0.83923 0.68063 0.75517 0.0
C2887 C 0.8141 0.65992 0.76854 0.0
C2888 C 0.83573 0.65957 0.79987 0.0
H2889 H 0.76537 0.60759 0.84116 0.0
H2890 H 0.77451 0.62063 0.82113 0.0
H2891 H 0.84056 0.65066 0.81749 0.0
H2892 H 0.86875 0.7011 0.76486 0.0
H2893 H 0.85928 0.69111 0.7855 0.0
H2894 H 0.79372 0.6607 0.78938 0.0
C2895 C 0.7859 0.62695 0.82904 0.0
C2896 C 0.83029 0.65304 0.81154 0.0
C2897 C 0.78064 0.61945 0.84054 0.0
C2898 C 0.8534 0.68967 0.76574 0.0
C2899 C 0.84802 0.6838 0.77755 0.0
C2900 C 0.80403 0.65847 0.79542 0.0
C2901 C 0.80576 0.64183 0.8277 0.0
C2902 C 0.81164 0.64914 0.81532 0.0
C2903 C 0.82831 0.66882 0.7791 0.0
C2904 C 0.82265 0.6623 0.79164 0.0
H2905 H 0.8263 0.64786 0.85757 0.0
H2906 H 0.83542 0.66108 0.83761 0.0
H2907 H 0.78427 0.64945 0.80978 0.0
H2908 H 0.80815 0.65861 0.74881 0.0
H2909 H 0.79884 0.64821 0.76937 0.0
C2910 C 0.34972 0.18458 0.85184 0.0
C2911 C 0.34073 0.16826 0.85896 0.0
C2912 C 0.3467 0.18158 0.83887 0.0
C2913 C 0.31286 0.14533 0.81242 0.0
H2914 H 0.35711 0.17868 0.79383 0.0
C2915 C 0.30765 0.13836 0.75828 0.0
C2916 C 0.31391 0.15672 0.75332 0.0
C2917 C 0.31143 0.13801 0.77106 0.0
C2918 C 0.34463 0.16926 0.79891 0.0
H2919 H 0.32126 0.13593 0.85795 0.0
H2920 H 0.31644 0.13062 0.83524 0.0
H2921 H 0.36262 0.18118 0.81644 0.0
H2922 H 0.32955 0.18907 0.75764 0.0
H2923 H 0.33633 0.18849 0.77988 0.0
H2924 H 0.29491 0.13346 0.79476 0.0
C2925 C 0.32564 0.1458 0.83974 0.0
C2926 C 0.34773 0.17076 0.81186 0.0
C2927 C 0.32858 0.14882 0.85275 0.0
C2928 C 0.32441 0.17471 0.76126 0.0
C2929 C 0.32843 0.17438 0.77395 0.0
C2930 C 0.3098 0.14371 0.79942 0.0
C2931 C 0.33476 0.16215 0.83264 0.0
C2932 C 0.33178 0.15916 0.8188 0.0
C2933 C 0.32187 0.15604 0.779 0.0
C2934 C 0.32557 0.15599 0.79258 0.0
H2935 H 0.35942 0.19973 0.85628 0.0
H2936 H 0.35368 0.19458 0.83372 0.0
H2937 H 0.3002 0.13629 0.81747 0.0
H2938 H 0.2995 0.1243 0.75232 0.0
H2939 H 0.30629 0.12369 0.77474 0.0
C2940 C 0.82961 0.17334 0.8508 0.0
C2941 C 0.8115 0.17141 0.85427 0.0
C2942 C 0.83183 0.16996 0.83832 0.0
C2943 C 0.80434 0.14651 0.80731 0.0
H2944 H 0.85343 0.18714 0.79552 0.0
C2945 C 0.82816 0.1386 0.75838 0.0
C2946 C 0.83595 0.15572 0.75188 0.0
C2947 C 0.82432 0.13977 0.77078 0.0
C2948 C 0.8396 0.17572 0.79865 0.0
H2949 H 0.78121 0.16361 0.84735 0.0
H2950 H 0.78503 0.15746 0.82552 0.0
H2951 H 0.84812 0.18985 0.81737 0.0
H2952 H 0.84583 0.18751 0.7533 0.0
H2953 H 0.83911 0.18957 0.77494 0.0
H2954 H 0.79581 0.13246 0.78851 0.0
C2955 C 0.7975 0.1616 0.8325 0.0
C2956 C 0.83665 0.17716 0.81119 0.0
C2957 C 0.79531 0.16508 0.84501 0.0
C2958 C 0.8397 0.17403 0.75803 0.0
C2959 C 0.83602 0.17524 0.77045 0.0
C2960 C 0.80738 0.14498 0.79475 0.0
C2961 C 0.81594 0.16443 0.829 0.0
C2962 C 0.81899 0.16258 0.81567 0.0
C2963 C 0.82836 0.15815 0.77698 0.0
C2964 C 0.82502 0.15962 0.79029 0.0
H2965 H 0.84223 0.17774 0.85772 0.0
H2966 H 0.84608 0.17186 0.83595 0.0
H2967 H 0.79063 0.13501 0.8105 0.0
H2968 H 0.82493 0.12424 0.75386 0.0
H2969 H 0.81855 0.12638 0.77559 0.0
C2970 C 0.31504 0.16891 0.48683 0.0
C2971 C 0.32534 0.16182 0.47971 0.0
C2972 C 0.31869 0.1719 0.49982 0.0
C2973 C 0.33656 0.15464 0.52591 0.0
H2974 H 0.34076 0.20093 0.54512 0.0
C2975 C 0.33561 0.1592 0.5792 0.0
C2976 C 0.35028 0.17735 0.58598 0.0
C2977 C 0.33232 0.1578 0.56625 0.0
C2978 C 0.33969 0.18797 0.53987 0.0
H2979 H 0.34819 0.15319 0.48062 0.0
H2980 H 0.35441 0.15826 0.50329 0.0
H2981 H 0.33652 0.19825 0.52237 0.0
H2982 H 0.37253 0.20843 0.58455 0.0
H2983 H 0.36686 0.20595 0.5619 0.0
H2984 H 0.33988 0.14441 0.54336 0.0
C2985 C 0.34331 0.16121 0.49882 0.0
C2986 C 0.33711 0.18636 0.52687 0.0
C2987 C 0.33973 0.1583 0.48585 0.0
C2988 C 0.36128 0.19419 0.57956 0.0
C2989 C 0.3579 0.19282 0.56661 0.0
C2990 C 0.33901 0.15618 0.53889 0.0
C2991 C 0.33265 0.1678 0.50595 0.0
C2992 C 0.33558 0.16971 0.51975 0.0
C2993 C 0.34354 0.17456 0.55981 0.0
C2994 C 0.34062 0.17286 0.54602 0.0
H2995 H 0.30365 0.1715 0.48242 0.0
H2996 H 0.3101 0.1768 0.50507 0.0
H2997 H 0.33519 0.14151 0.52068 0.0
H2998 H 0.327 0.14594 0.58389 0.0
H2999 H 0.321 0.14359 0.56126 0.0
C3000 C 0.86994 0.18525 0.49003 0.0
C3001 C 0.86153 0.16566 0.48399 0.0
C3002 C 0.86698 0.18828 0.50246 0.0
C3003 C 0.83063 0.16424 0.52452 0.0
H3004 H 0.8735 0.19646 0.55088 0.0
C3005 C 0.8157 0.15826 0.57562 0.0
C3006 C 0.82569 0.17554 0.58418 0.0
C3007 C 0.82096 0.1587 0.56349 0.0
C3008 C 0.86131 0.18769 0.5436 0.0
H3009 H 0.84455 0.13397 0.48662 0.0
H3010 H 0.83888 0.13931 0.50801 0.0
H3011 H 0.88151 0.19473 0.52943 0.0
H3012 H 0.84918 0.20682 0.58683 0.0
H3013 H 0.85813 0.2078 0.56545 0.0
H3014 H 0.81033 0.15735 0.53841 0.0
C3015 C 0.84756 0.15228 0.5031 0.0
C3016 C 0.86594 0.18667 0.53134 0.0
C3017 C 0.85073 0.14925 0.49081 0.0
C3018 C 0.84126 0.19327 0.58041 0.0
C3019 C 0.84641 0.19379 0.56818 0.0
C3020 C 0.82598 0.16546 0.53667 0.0
C3021 C 0.85538 0.17178 0.50899 0.0
C3022 C 0.85066 0.17457 0.52176 0.0
C3023 C 0.83622 0.17651 0.55954 0.0
C3024 C 0.84127 0.17679 0.54644 0.0
H3025 H 0.87826 0.19823 0.48506 0.0
H3026 H 0.87315 0.20347 0.50682 0.0
H3027 H 0.81854 0.15508 0.51724 0.0
H3028 H 0.80393 0.14426 0.57835 0.0
H3029 H 0.81316 0.14493 0.55725 0.0
C3030 C 0.86693 0.70378 0.49365 0.0
C3031 C 0.86392 0.71991 0.49137 0.0
C3032 C 0.86379 0.69603 0.50521 0.0
C3033 C 0.83678 0.69362 0.53281 0.0
H3034 H 0.87156 0.6765 0.54846 0.0
C3035 C 0.81727 0.65162 0.5768 0.0
C3036 C 0.83304 0.65725 0.58625 0.0
C3037 C 0.82125 0.6586 0.56508 0.0
C3038 C 0.86176 0.68132 0.54425 0.0
H3039 H 0.85621 0.74113 0.49971 0.0
H3040 H 0.85082 0.72773 0.5198 0.0
H3041 H 0.87868 0.6906 0.52853 0.0
H3042 H 0.86542 0.67467 0.5907 0.0
H3043 H 0.87236 0.68686 0.57028 0.0
H3044 H 0.82009 0.68477 0.54859 0.0
C3045 C 0.85512 0.72072 0.51257 0.0
C3046 C 0.86572 0.6892 0.53275 0.0
C3047 C 0.85824 0.72842 0.50104 0.0
C3048 C 0.85292 0.66981 0.5836 0.0
C3049 C 0.8569 0.6768 0.57188 0.0
C3050 C 0.8328 0.68572 0.54426 0.0
C3051 C 0.8576 0.70426 0.51477 0.0
C3052 C 0.85333 0.69555 0.52692 0.0
C3053 C 0.84111 0.67141 0.56249 0.0
C3054 C 0.84525 0.6795 0.55016 0.0
H3055 H 0.87114 0.69675 0.48637 0.0
H3056 H 0.86567 0.68324 0.50654 0.0
H3057 H 0.82674 0.69809 0.52852 0.0
H3058 H 0.8018 0.64169 0.57842 0.0
H3059 H 0.80873 0.65384 0.55801 0.0
loop_
_geom_bond_atom_site_label_1
_geom_bond_atom_site_label_2
_geom_bond_distance
_geom_bond_site_symmetry_2
_ccdc_geom_bond_type
C0 C1 1.391 . S
C0 C4 1.391 . S
C0 H42 0.948 . S
C1 C0 1.391 . S
C1 C2 1.391 . S
C2 C1 1.391 . S
C2 H58 0.947 . S
C2 C59 1.392 . S
C3 C4 1.391 . S
C3 C7 1.397 . S
C3 C59 1.419 . S
C4 C0 1.391 . S
C4 C3 1.391 . S
C4 C5 1.399 . S
C5 C4 1.399 . S
C5 C8 1.396 . S
C5 C17 1.453 . S
C5 C18 1.684 . S
H6 C30 0.948 . S
C7 C3 1.397 . S
C7 C8 1.394 . S
C7 C26 1.723 . S
C8 C5 1.396 . S
C8 C7 1.394 . S
C8 C38 1.723 . S
H9 C32 0.947 . S
H10 C33 0.948 . S
H11 C39 0.982 . S
H12 C40 0.979 . S
H13 C40 0.980 . S
H14 C40 0.983 . S
H15 C39 0.979 . S
H16 C39 0.977 . S
C17 C5 1.453 . S
C17 H46 0.982 . S
C17 H47 0.979 . S
C17 H48 0.977 . S
C18 C5 1.684 . S
C18 H43 0.979 . S
C18 H44 0.980 . S
C18 H45 0.983 . S
C19 C20 1.391 . S
C19 C24 1.391 . S
C19 H49 0.948 . S
C20 C19 1.391 . S
C20 C21 1.391 . S
C21 C20 1.391 . S
C21 C22 1.392 . S
C21 H50 0.947 . S
C22 C21 1.392 . S
C22 C23 1.419 . S
C22 H51 0.948 . S
C23 C22 1.419 . S
C23 C24 1.391 . S
C23 C27 1.397 . S
C24 C19 1.391 . S
C24 C23 1.391 . S
C24 C25 1.399 . S
C25 C24 1.399 . S
C25 C26 1.396 . S
C25 C28 1.453 . S
C25 C29 1.684 . S
C26 C7 1.723 . S
C26 C25 1.396 . S
C26 C27 1.394 . S
C27 C23 1.397 . S
C27 C26 1.394 . S
C27 C37 1.723 . S
C28 C25 1.453 . S
C28 H52 0.982 . S
C28 H53 0.979 . S
C28 H54 0.977 . S
C29 C25 1.684 . S
C29 H55 0.979 . S
C29 H56 0.980 . S
C29 H57 0.983 . S
C30 H6 0.948 . S
C30 C31 1.391 . S
C30 C35 1.391 . S
C31 C30 1.391 . S
C31 C32 1.391 . S
C32 H9 0.947 . S
C32 C31 1.391 . S
C32 C33 1.392 . S
C33 H10 0.948 . S
C33 C32 1.392 . S
C33 C34 1.419 . S
C34 C33 1.419 . S
C34 C35 1.391 . S
C34 C38 1.397 . S
C35 C30 1.391 . S
C35 C34 1.391 . S
C35 C36 1.399 . S
C36 C35 1.399 . S
C36 C37 1.396 . S
C36 C39 1.453 . S
C36 C40 1.684 . S
C37 C27 1.723 . S
C37 C36 1.396 . S
C37 C38 1.394 . S
C38 C8 1.723 . S
C38 C34 1.397 . S
C38 C37 1.394 . S
C39 H11 0.982 . S
C39 H15 0.979 . S
C39 H16 0.977 . S
C39 C36 1.453 . S
C40 H12 0.979 . S
C40 H13 0.980 . S
C40 H14 0.983 . S
C40 C36 1.684 . S
H41 C59 0.948 . S
H42 C0 0.948 . S
H43 C18 0.979 . S
H44 C18 0.980 . S
H45 C18 0.983 . S
H46 C17 0.982 . S
H47 C17 0.979 . S
H48 C17 0.977 . S
H49 C19 0.948 . S
H50 C21 0.947 . S
H51 C22 0.948 . S
H52 C28 0.982 . S
H53 C28 0.979 . S
H54 C28 0.977 . S
H55 C29 0.979 . S
H56 C29 0.980 . S
H57 C29 0.983 . S
H58 C2 0.947 . S
C59 C2 1.392 . S
C59 C3 1.419 . S
C59 H41 0.948 . S
C60 C61 1.391 . S
C60 C64 1.391 . S
C60 H102 0.948 . S
C61 C60 1.391 . S
C61 C62 1.391 . S
C62 C61 1.391 . S
C62 H118 0.947 . S
C62 C119 1.392 . S
C63 C64 1.391 . S
C63 C67 1.397 . S
C63 C119 1.419 . S
C64 C60 1.391 . S
C64 C63 1.391 . S
C64 C65 1.399 . S
C65 C64 1.399 . S
C65 C68 1.396 . S
C65 C77 1.453 . S
C65 C78 1.684 . S
H66 C90 0.948 . S
C67 C63 1.397 . S
C67 C68 1.394 . S
C67 C86 1.723 . S
C68 C65 1.396 . S
C68 C67 1.394 . S
C68 C98 1.723 . S
H69 C92 0.947 . S
H70 C93 0.948 . S
H71 C99 0.982 . S
H72 C100 0.979 . S
H73 C100 0.980 . S
H74 C100 0.983 . S
H75 C99 0.979 . S
H76 C99 0.977 . S
C77 C65 1.453 . S
C77 H106 0.982 . S
C77 H107 0.979 . S
C77 H108 0.977 . S
C78 C65 1.684 . S
C78 H103 0.979 . S
C78 H104 0.980 . S
C78 H105 0.983 . S
C79 C80 1.391 . S
C79 C84 1.391 . S
C79 H109 0.948 . S
C80 C79 1.391 . S
C80 C81 1.391 . S
C81 C80 1.391 . S
C81 C82 1.392 . S
C81 H110 0.947 . S
C82 C81 1.392 . S
C82 C83 1.419 . S
C82 H111 0.948 . S
C83 C82 1.419 . S
C83 C84 1.391 . S
C83 C87 1.397 . S
C84 C79 1.391 . S
C84 C83 1.391 . S
C84 C85 1.399 . S
C85 C84 1.399 . S
C85 C86 1.396 . S
C85 C88 1.453 . S
C85 C89 1.684 . S
C86 C67 1.723 . S
C86 C85 1.396 . S
C86 C87 1.394 . S
C87 C83 1.397 . S
C87 C86 1.394 . S
C87 C97 1.723 . S
C88 C85 1.453 . S
C88 H112 0.982 . S
C88 H113 0.979 . S
C88 H114 0.977 . S
C89 C85 1.684 . S
C89 H115 0.979 . S
C89 H116 0.980 . S
C89 H117 0.983 . S
C90 H66 0.948 . S
C90 C91 1.391 . S
C90 C95 1.391 . S
C91 C90 1.391 . S
C91 C92 1.391 . S
C92 H69 0.947 . S
C92 C91 1.391 . S
C92 C93 1.392 . S
C93 H70 0.948 . S
C93 C92 1.392 . S
C93 C94 1.419 . S
C94 C93 1.419 . S
C94 C95 1.391 . S
C94 C98 1.397 . S
C95 C90 1.391 . S
C95 C94 1.391 . S
C95 C96 1.399 . S
C96 C95 1.399 . S
C96 C97 1.396 . S
C96 C99 1.453 . S
C96 C100 1.684 . S
C97 C87 1.723 . S
C97 C96 1.396 . S
C97 C98 1.394 . S
C98 C68 1.723 . S
C98 C94 1.397 . S
C98 C97 1.394 . S
C99 H71 0.982 . S
C99 H75 0.979 . S
C99 H76 0.977 . S
C99 C96 1.453 . S
C100 H72 0.979 . S
C100 H73 0.980 . S
C100 H74 0.983 . S
C100 C96 1.684 . S
H101 C119 0.948 . S
H102 C60 0.948 . S
H103 C78 0.979 . S
H104 C78 0.980 . S
H105 C78 0.983 . S
H106 C77 0.982 . S
H107 C77 0.979 . S
H108 C77 0.977 . S
H109 C79 0.948 . S
H110 C81 0.947 . S
H111 C82 0.948 . S
H112 C88 0.982 . S
H113 C88 0.979 . S
H114 C88 0.977 . S
H115 C89 0.979 . S
H116 C89 0.980 . S
H117 C89 0.983 . S
H118 C62 0.947 . S
C119 C62 1.392 . S
C119 C63 1.419 . S
C119 H101 0.948 . S
C120 C121 1.391 . S
C120 C124 1.391 . S
C120 H162 0.948 . S
C121 C120 1.391 . S
C121 C122 1.391 . S
C122 C121 1.391 . S
C122 H178 0.947 . S
C122 C179 1.392 . S
C123 C124 1.391 . S
C123 C127 1.397 . S
C123 C179 1.419 . S
C124 C120 1.391 . S
C124 C123 1.391 . S
C124 C125 1.399 . S
C125 C124 1.399 . S
C125 C128 1.396 . S
C125 C137 1.453 . S
C125 C138 1.684 . S
H126 C150 0.948 . S
C127 C123 1.397 . S
C127 C128 1.394 . S
C127 C146 1.723 . S
C128 C125 1.396 . S
C128 C127 1.394 . S
C128 C158 1.723 . S
H129 C152 0.947 . S
H130 C153 0.948 . S
H131 C159 0.982 . S
H132 C160 0.979 . S
H133 C160 0.980 . S
H134 C160 0.983 . S
H135 C159 0.979 . S
H136 C159 0.977 . S
C137 C125 1.453 . S
C137 H166 0.982 . S
C137 H167 0.979 . S
C137 H168 0.977 . S
C138 C125 1.684 . S
C138 H163 0.979 . S
C138 H164 0.980 . S
C138 H165 0.983 . S
C139 C140 1.391 . S
C139 C144 1.391 . S
C139 H169 0.948 . S
C140 C139 1.391 . S
C140 C141 1.391 . S
C141 C140 1.391 . S
C141 C142 1.392 . S
C141 H170 0.947 . S
C142 C141 1.392 . S
C142 C143 1.419 . S
C142 H171 0.948 . S
C143 C142 1.419 . S
C143 C144 1.391 . S
C143 C147 1.397 . S
C144 C139 1.391 . S
C144 C143 1.391 . S
C144 C145 1.399 . S
C145 C144 1.399 . S
C145 C146 1.396 . S
C145 C148 1.453 . S
C145 C149 1.684 . S
C146 C127 1.723 . S
C146 C145 1.396 . S
C146 C147 1.394 . S
C147 C143 1.397 . S
C147 C146 1.394 . S
C147 C157 1.723 . S
C148 C145 1.453 . S
C148 H172 0.982 . S
C148 H173 0.979 . S
C148 H174 0.977 . S
C149 C145 1.684 . S
C149 H175 0.979 . S
C149 H176 0.980 . S
C149 H177 0.983 . S
C150 H126 0.948 . S
C150 C151 1.391 . S
C150 C155 1.391 . S
C151 C150 1.391 . S
C151 C152 1.391 . S
C152 H129 0.947 . S
C152 C151 1.391 . S
C152 C153 1.392 . S
C153 H130 0.948 . S
C153 C152 1.392 . S
C153 C154 1.419 . S
C154 C153 1.419 . S
C154 C155 1.391 . S
C154 C158 1.397 . S
C155 C150 1.391 . S
C155 C154 1.391 . S
C155 C156 1.399 . S
C156 C155 1.399 . S
C156 C157 1.396 . S
C156 C159 1.453 . S
C156 C160 1.684 . S
C157 C147 1.723 . S
C157 C156 1.396 . S
C157 C158 1.394 . S
C158 C128 1.723 . S
C158 C154 1.397 . S
C158 C157 1.394 . S
C159 H131 0.982 . S
C159 H135 0.979 . S
C159 H136 0.977 . S
C159 C156 1.453 . S
C160 H132 0.979 . S
C160 H133 0.980 . S
C160 H134 0.983 . S
C160 C156 1.684 . S
H161 C179 0.948 . S
H162 C120 0.948 . S
H163 C138 0.979 . S
H164 C138 0.980 . S
H165 C138 0.983 . S
H166 C137 0.982 . S
H167 C137 0.979 . S
H168 C137 0.977 . S
H169 C139 0.948 . S
H170 C141 0.947 . S
H171 C142 0.948 . S
H172 C148 0.982 . S
H173 C148 0.979 . S
H174 C148 0.977 . S
H175 C149 0.979 . S
H176 C149 0.980 . S
H177 C149 0.983 . S
H178 C122 0.947 . S
C179 C122 1.392 . S
C179 C123 1.419 . S
C179 H161 0.948 . S
C180 C181 1.391 . S
C180 C184 1.391 . S
C180 H222 0.948 . S
C181 C180 1.391 . S
C181 C182 1.391 . S
C182 C181 1.391 . S
C182 H238 0.947 . S
C182 C239 1.392 . S
C183 C184 1.391 . S
C183 C187 1.397 . S
C183 C239 1.419 . S
C184 C180 1.391 . S
C184 C183 1.391 . S
C184 C185 1.399 . S
C185 C184 1.399 . S
C185 C188 1.396 . S
C185 C197 1.453 . S
C185 C198 1.684 . S
H186 C210 0.948 . S
C187 C183 1.397 . S
C187 C188 1.394 . S
C187 C206 1.723 . S
C188 C185 1.396 . S
C188 C187 1.394 . S
C188 C218 1.723 . S
H189 C212 0.947 . S
H190 C213 0.948 . S
H191 C219 0.982 . S
H192 C220 0.979 . S
H193 C220 0.980 . S
H194 C220 0.983 . S
H195 C219 0.979 . S
H196 C219 0.977 . S
C197 C185 1.453 . S
C197 H226 0.982 . S
C197 H227 0.979 . S
C197 H228 0.977 . S
C198 C185 1.684 . S
C198 H223 0.979 . S
C198 H224 0.980 . S
C198 H225 0.983 . S
C199 C200 1.391 . S
C199 C204 1.391 . S
C199 H229 0.948 . S
C200 C199 1.391 . S
C200 C201 1.391 . S
C201 C200 1.391 . S
C201 C202 1.392 . S
C201 H230 0.947 . S
C202 C201 1.392 . S
C202 C203 1.419 . S
C202 H231 0.948 . S
C203 C202 1.419 . S
C203 C204 1.391 . S
C203 C207 1.397 . S
C204 C199 1.391 . S
C204 C203 1.391 . S
C204 C205 1.399 . S
C205 C204 1.399 . S
C205 C206 1.396 . S
C205 C208 1.453 . S
C205 C209 1.684 . S
C206 C187 1.723 . S
C206 C205 1.396 . S
C206 C207 1.394 . S
C207 C203 1.397 . S
C207 C206 1.394 . S
C207 C217 1.723 . S
C208 C205 1.453 . S
C208 H232 0.982 . S
C208 H233 0.979 . S
C208 H234 0.977 . S
C209 C205 1.684 . S
C209 H235 0.979 . S
C209 H236 0.980 . S
C209 H237 0.983 . S
C210 H186 0.948 . S
C210 C211 1.391 . S
C210 C215 1.391 . S
C211 C210 1.391 . S
C211 C212 1.391 . S
C212 H189 0.947 . S
C212 C211 1.391 . S
C212 C213 1.392 . S
C213 H190 0.948 . S
C213 C212 1.392 . S
C213 C214 1.419 . S
C214 C213 1.419 . S
C214 C215 1.391 . S
C214 C218 1.397 . S
C215 C210 1.391 . S
C215 C214 1.391 . S
C215 C216 1.399 . S
C216 C215 1.399 . S
C216 C217 1.396 . S
C216 C219 1.453 . S
C216 C220 1.684 . S
C217 C207 1.723 . S
C217 C216 1.396 . S
C217 C218 1.394 . S
C218 C188 1.723 . S
C218 C214 1.397 . S
C218 C217 1.394 . S
C219 H191 0.982 . S
C219 H195 0.979 . S
C219 H196 0.977 . S
C219 C216 1.453 . S
C220 H192 0.979 . S
C220 H193 0.980 . S
C220 H194 0.983 . S
C220 C216 1.684 . S
H221 C239 0.948 . S
H222 C180 0.948 . S
H223 C198 0.979 . S
H224 C198 0.980 . S
H225 C198 0.983 . S
H226 C197 0.982 . S
H227 C197 0.979 . S
H228 C197 0.977 . S
H229 C199 0.948 . S
H230 C201 0.947 . S
H231 C202 0.948 . S
H232 C208 0.982 . S
H233 C208 0.979 . S
H234 C208 0.977 . S
H235 C209 0.979 . S
H236 C209 0.980 . S
H237 C209 0.983 . S
H238 C182 0.947 . S
C239 C182 1.392 . S
C239 C183 1.419 . S
C239 H221 0.948 . S
C240 C241 1.391 . S
C240 C244 1.391 . S
C240 H282 0.948 . S
C241 C240 1.391 . S
C241 C242 1.391 . S
C242 C241 1.391 . S
C242 H298 0.947 . S
C242 C299 1.392 . S
C243 C244 1.391 . S
C243 C247 1.397 . S
C243 C299 1.419 . S
C244 C240 1.391 . S
C244 C243 1.391 . S
C244 C245 1.399 . S
C245 C244 1.399 . S
C245 C248 1.396 . S
C245 C257 1.453 . S
C245 C258 1.684 . S
H246 C270 0.948 . S
C247 C243 1.397 . S
C247 C248 1.394 . S
C247 C266 1.723 . S
C248 C245 1.396 . S
C248 C247 1.394 . S
C248 C278 1.723 . S
H249 C272 0.947 . S
H250 C273 0.948 . S
H251 C279 0.982 . S
H252 C280 0.979 . S
H253 C280 0.980 . S
H254 C280 0.983 . S
H255 C279 0.979 . S
H256 C279 0.977 . S
C257 C245 1.453 . S
C257 H286 0.982 . S
C257 H287 0.979 . S
C257 H288 0.977 . S
C258 C245 1.684 . S
C258 H283 0.979 . S
C258 H284 0.980 . S
C258 H285 0.983 . S
C259 C260 1.391 . S
C259 C264 1.391 . S
C259 H289 0.948 . S
C260 C259 1.391 . S
C260 C261 1.391 . S
C261 C260 1.391 . S
C261 C262 1.392 . S
C261 H290 0.947 . S
C262 C261 1.392 . S
C262 C263 1.419 . S
C262 H291 0.948 . S
C263 C262 1.419 . S
C263 C264 1.391 . S
C263 C267 1.397 . S
C264 C259 1.391 . S
C264 C263 1.391 . S
C264 C265 1.399 . S
C265 C264 1.399 . S
C265 C266 1.396 . S
C265 C268 1.453 . S
C265 C269 1.684 . S
C266 C247 1.723 . S
C266 C265 1.396 . S
C266 C267 1.394 . S
C267 C263 1.397 . S
C267 C266 1.394 . S
C267 C277 1.723 . S
C268 C265 1.453 . S
C268 H292 0.982 . S
C268 H293 0.979 . S
C268 H294 0.977 . S
C269 C265 1.684 . S
C269 H295 0.979 . S
C269 H296 0.980 . S
C269 H297 0.983 . S
C270 H246 0.948 . S
C270 C271 1.391 . S
C270 C275 1.391 . S
C271 C270 1.391 . S
C271 C272 1.391 . S
C272 H249 0.947 . S
C272 C271 1.391 . S
C272 C273 1.392 . S
C273 H250 0.948 . S
C273 C272 1.392 . S
C273 C274 1.419 . S
C274 C273 1.419 . S
C274 C275 1.391 . S
C274 C278 1.397 . S
C275 C270 1.391 . S
C275 C274 1.391 . S
C275 C276 1.399 . S
C276 C275 1.399 . S
C276 C277 1.396 . S
C276 C279 1.453 . S
C276 C280 1.684 . S
C277 C267 1.723 . S
C277 C276 1.396 . S
C277 C278 1.394 . S
C278 C248 1.723 . S
C278 C274 1.397 . S
C278 C277 1.394 . S
C279 H251 0.982 . S
C279 H255 0.979 . S
C279 H256 0.977 . S
C279 C276 1.453 . S
C280 H252 0.979 . S
C280 H253 0.980 . S
C280 H254 0.983 . S
C280 C276 1.684 . S
H281 C299 0.948 . S
H282 C240 0.948 . S
H283 C258 0.979 . S
H284 C258 0.980 . S
H285 C258 0.983 . S
H286 C257 0.982 . S
H287 C257 0.979 . S
H288 C257 0.977 . S
H289 C259 0.948 . S
H290 C261 0.947 . S
H291 C262 0.948 . S
H292 C268 0.982 . S
H293 C268 0.979 . S
H294 C268 0.977 . S
H295 C269 0.979 . S
H296 C269 0.980 . S
H297 C269 0.983 . S
H298 C242 0.947 . S
C299 C242 1.392 . S
C299 C243 1.419 . S
C299 H281 0.948 . S
C300 C301 1.391 . S
C300 C304 1.391 . S
C300 H342 0.948 . S
C301 C300 1.391 . S
C301 C302 1.391 . S
C302 C301 1.391 . S
C302 H358 0.947 . S
C302 C359 1.392 . S
C303 C304 1.391 . S
C303 C307 1.397 . S
C303 C359 1.419 . S
C304 C300 1.391 . S
C304 C303 1.391 . S
C304 C305 1.399 . S
C305 C304 1.399 . S
C305 C308 1.396 . S
C305 C317 1.453 . S
C305 C318 1.684 . S
H306 C330 0.948 . S
C307 C303 1.397 . S
C307 C308 1.394 . S
C307 C326 1.723 . S
C308 C305 1.396 . S
C308 C307 1.394 . S
C308 C338 1.723 . S
H309 C332 0.947 . S
H310 C333 0.948 . S
H311 C339 0.982 . S
H312 C340 0.979 . S
H313 C340 0.980 . S
H314 C340 0.983 . S
H315 C339 0.979 . S
H316 C339 0.977 . S
C317 C305 1.453 . S
C317 H346 0.982 . S
C317 H347 0.979 . S
C317 H348 0.977 . S
C318 C305 1.684 . S
C318 H343 0.979 . S
C318 H344 0.980 . S
C318 H345 0.983 . S
C319 C320 1.391 . S
C319 C324 1.391 . S
C319 H349 0.948 . S
C320 C319 1.391 . S
C320 C321 1.391 . S
C321 C320 1.391 . S
C321 C322 1.392 . S
C321 H350 0.947 . S
C322 C321 1.392 . S
C322 C323 1.419 . S
C322 H351 0.948 . S
C323 C322 1.419 . S
C323 C324 1.391 . S
C323 C327 1.397 . S
C324 C319 1.391 . S
C324 C323 1.391 . S
C324 C325 1.399 . S
C325 C324 1.399 . S
C325 C326 1.396 . S
C325 C328 1.453 . S
C325 C329 1.684 . S
C326 C307 1.723 . S
C326 C325 1.396 . S
C326 C327 1.394 . S
C327 C323 1.397 . S
C327 C326 1.394 . S
C327 C337 1.723 . S
C328 C325 1.453 . S
C328 H352 0.982 . S
C328 H353 0.979 . S
C328 H354 0.977 . S
C329 C325 1.684 . S
C329 H355 0.979 . S
C329 H356 0.980 . S
C329 H357 0.983 . S
C330 H306 0.948 . S
C330 C331 1.391 . S
C330 C335 1.391 . S
C331 C330 1.391 . S
C331 C332 1.391 . S
C332 H309 0.947 . S
C332 C331 1.391 . S
C332 C333 1.392 . S
C333 H310 0.948 . S
C333 C332 1.392 . S
C333 C334 1.419 . S
C334 C333 1.419 . S
C334 C335 1.391 . S
C334 C338 1.397 . S
C335 C330 1.391 . S
C335 C334 1.391 . S
C335 C336 1.399 . S
C336 C335 1.399 . S
C336 C337 1.396 . S
C336 C339 1.453 . S
C336 C340 1.684 . S
C337 C327 1.723 . S
C337 C336 1.396 . S
C337 C338 1.394 . S
C338 C308 1.723 . S
C338 C334 1.397 . S
C338 C337 1.394 . S
C339 H311 0.982 . S
C339 H315 0.979 . S
C339 H316 0.977 . S
C339 C336 1.453 . S
C340 H312 0.979 . S
C340 H313 0.980 . S
C340 H314 0.983 . S
C340 C336 1.684 . S
H341 C359 0.948 . S
H342 C300 0.948 . S
H343 C318 0.979 . S
H344 C318 0.980 . S
H345 C318 0.983 . S
H346 C317 0.982 . S
H347 C317 0.979 . S
H348 C317 0.977 . S
H349 C319 0.948 . S
H350 C321 0.947 . S
H351 C322 0.948 . S
H352 C328 0.982 . S
H353 C328 0.979 . S
H354 C328 0.977 . S
H355 C329 0.979 . S
H356 C329 0.980 . S
H357 C329 0.983 . S
H358 C302 0.947 . S
C359 C302 1.392 . S
C359 C303 1.419 . S
C359 H341 0.948 . S
C360 C361 1.391 . S
C360 C364 1.391 . S
C360 H402 0.948 . S
C361 C360 1.391 . S
C361 C362 1.391 . S
C362 C361 1.391 . S
C362 H418 0.947 . S
C362 C419 1.392 . S
C363 C364 1.391 . S
C363 C367 1.397 . S
C363 C419 1.419 . S
C364 C360 1.391 . S
C364 C363 1.391 . S
C364 C365 1.399 . S
C365 C364 1.399 . S
C365 C368 1.396 . S
C365 C377 1.453 . S
C365 C378 1.684 . S
H366 C390 0.948 . S
C367 C363 1.397 . S
C367 C368 1.394 . S
C367 C386 1.723 . S
C368 C365 1.396 . S
C368 C367 1.394 . S
C368 C398 1.723 . S
H369 C392 0.947 . S
H370 C393 0.948 . S
H371 C399 0.982 . S
H372 C400 0.979 . S
H373 C400 0.980 . S
H374 C400 0.983 . S
H375 C399 0.979 . S
H376 C399 0.977 . S
C377 C365 1.453 . S
C377 H406 0.982 . S
C377 H407 0.979 . S
C377 H408 0.977 . S
C378 C365 1.684 . S
C378 H403 0.979 . S
C378 H404 0.980 . S
C378 H405 0.983 . S
C379 C380 1.391 . S
C379 C384 1.391 . S
C379 H409 0.948 . S
C380 C379 1.391 . S
C380 C381 1.391 . S
C381 C380 1.391 . S
C381 C382 1.392 . S
C381 H410 0.947 . S
C382 C381 1.392 . S
C382 C383 1.419 . S
C382 H411 0.948 . S
C383 C382 1.419 . S
C383 C384 1.391 . S
C383 C387 1.397 . S
C384 C379 1.391 . S
C384 C383 1.391 . S
C384 C385 1.399 . S
C385 C384 1.399 . S
C385 C386 1.396 . S
C385 C388 1.453 . S
C385 C389 1.684 . S
C386 C367 1.723 . S
C386 C385 1.396 . S
C386 C387 1.394 . S
C387 C383 1.397 . S
C387 C386 1.394 . S
C387 C397 1.723 . S
C388 C385 1.453 . S
C388 H412 0.982 . S
C388 H413 0.979 . S
C388 H414 0.977 . S
C389 C385 1.684 . S
C389 H415 0.979 . S
C389 H416 0.980 . S
C389 H417 0.983 . S
C390 H366 0.948 . S
C390 C391 1.391 . S
C390 C395 1.391 . S
C391 C390 1.391 . S
C391 C392 1.391 . S
C392 H369 0.947 . S
C392 C391 1.391 . S
C392 C393 1.392 . S
C393 H370 0.948 . S
C393 C392 1.392 . S
C393 C394 1.419 . S
C394 C393 1.419 . S
C394 C395 1.391 . S
C394 C398 1.397 . S
C395 C390 1.391 . S
C395 C394 1.391 . S
C395 C396 1.399 . S
C396 C395 1.399 . S
C396 C397 1.396 . S
C396 C399 1.453 . S
C396 C400 1.684 . S
C397 C387 1.723 . S
C397 C396 1.396 . S
C397 C398 1.394 . S
C398 C368 1.723 . S
C398 C394 1.397 . S
C398 C397 1.394 . S
C399 H371 0.982 . S
C399 H375 0.979 . S
C399 H376 0.977 . S
C399 C396 1.453 . S
C400 H372 0.979 . S
C400 H373 0.980 . S
C400 H374 0.983 . S
C400 C396 1.684 . S
H401 C419 0.948 . S
H402 C360 0.948 . S
H403 C378 0.979 . S
H404 C378 0.980 . S
H405 C378 0.983 . S
H406 C377 0.982 . S
H407 C377 0.979 . S
H408 C377 0.977 . S
H409 C379 0.948 . S
H410 C381 0.947 . S
H411 C382 0.948 . S
H412 C388 0.982 . S
H413 C388 0.979 . S
H414 C388 0.977 . S
H415 C389 0.979 . S
H416 C389 0.980 . S
H417 C389 0.983 . S
H418 C362 0.947 . S
C419 C362 1.392 . S
C419 C363 1.419 . S
C419 H401 0.948 . S
C420 C421 1.391 . S
C420 C424 1.391 . S
C420 H462 0.948 . S
C421 C420 1.391 . S
C421 C422 1.391 . S
C422 C421 1.391 . S
C422 H478 0.947 . S
C422 C479 1.392 . S
C423 C424 1.391 . S
C423 C427 1.397 . S
C423 C479 1.419 . S
C424 C420 1.391 . S
C424 C423 1.391 . S
C424 C425 1.399 . S
C425 C424 1.399 . S
C425 C428 1.396 . S
C425 C437 1.453 . S
C425 C438 1.684 . S
H426 C450 0.948 . S
C427 C423 1.397 . S
C427 C428 1.394 . S
C427 C446 1.723 . S
C428 C425 1.396 . S
C428 C427 1.394 . S
C428 C458 1.723 . S
H429 C452 0.947 . S
H430 C453 0.948 . S
H431 C459 0.982 . S
H432 C460 0.979 . S
H433 C460 0.980 . S
H434 C460 0.983 . S
H435 C459 0.979 . S
H436 C459 0.977 . S
C437 C425 1.453 . S
C437 H466 0.982 . S
C437 H467 0.979 . S
C437 H468 0.977 . S
C438 C425 1.684 . S
C438 H463 0.979 . S
C438 H464 0.980 . S
C438 H465 0.983 . S
C439 C440 1.391 . S
C439 C444 1.391 . S
C439 H469 0.948 . S
C440 C439 1.391 . S
C440 C441 1.391 . S
C441 C440 1.391 . S
C441 C442 1.392 . S
C441 H470 0.947 . S
C442 C441 1.392 . S
C442 C443 1.419 . S
C442 H471 0.948 . S
C443 C442 1.419 . S
C443 C444 1.391 . S
C443 C447 1.397 . S
C444 C439 1.391 . S
C444 C443 1.391 . S
C444 C445 1.399 . S
C445 C444 1.399 . S
C445 C446 1.396 . S
C445 C448 1.453 . S
C445 C449 1.684 . S
C446 C427 1.723 . S
C446 C445 1.396 . S
C446 C447 1.394 . S
C447 C443 1.397 . S
C447 C446 1.394 . S
C447 C457 1.723 . S
C448 C445 1.453 . S
C448 H472 0.982 . S
C448 H473 0.979 . S
C448 H474 0.977 . S
C449 C445 1.684 . S
C449 H475 0.979 . S
C449 H476 0.980 . S
C449 H477 0.983 . S
C450 H426 0.948 . S
C450 C451 1.391 . S
C450 C455 1.391 . S
C451 C450 1.391 . S
C451 C452 1.391 . S
C452 H429 0.947 . S
C452 C451 1.391 . S
C452 C453 1.392 . S
C453 H430 0.948 . S
C453 C452 1.392 . S
C453 C454 1.419 . S
C454 C453 1.419 . S
C454 C455 1.391 . S
C454 C458 1.397 . S
C455 C450 1.391 . S
C455 C454 1.391 . S
C455 C456 1.399 . S
C456 C455 1.399 . S
C456 C457 1.396 . S
C456 C459 1.453 . S
C456 C460 1.684 . S
C457 C447 1.723 . S
C457 C456 1.396 . S
C457 C458 1.394 . S
C458 C428 1.723 . S
C458 C454 1.397 . S
C458 C457 1.394 . S
C459 H431 0.982 . S
C459 H435 0.979 . S
C459 H436 0.977 . S
C459 C456 1.453 . S
C460 H432 0.979 . S
C460 H433 0.980 . S
C460 H434 0.983 . S
C460 C456 1.684 . S
H461 C479 0.948 . S
H462 C420 0.948 . S
H463 C438 0.979 . S
H464 C438 0.980 . S
H465 C438 0.983 . S
H466 C437 0.982 . S
H467 C437 0.979 . S
H468 C437 0.977 . S
H469 C439 0.948 . S
H470 C441 0.947 . S
H471 C442 0.948 . S
H472 C448 0.982 . S
H473 C448 0.979 . S
H474 C448 0.977 . S
H475 C449 0.979 . S
H476 C449 0.980 . S
H477 C449 0.983 . S
H478 C422 0.947 . S
C479 C422 1.392 . S
C479 C423 1.419 . S
C479 H461 0.948 . S
C480 C481 1.391 . S
C480 C484 1.391 . S
C480 H522 0.948 . S
C481 C480 1.391 . S
C481 C482 1.391 . S
C482 C481 1.391 . S
C482 H538 0.947 . S
C482 C539 1.392 . S
C483 C484 1.391 . S
C483 C487 1.397 . S
C483 C539 1.419 . S
C484 C480 1.391 . S
C484 C483 1.391 . S
C484 C485 1.399 . S
C485 C484 1.399 . S
C485 C488 1.396 . S
C485 C497 1.453 . S
C485 C498 1.684 . S
H486 C510 0.948 . S
C487 C483 1.397 . S
C487 C488 1.394 . S
C487 C506 1.723 . S
C488 C485 1.396 . S
C488 C487 1.394 . S
C488 C518 1.723 . S
H489 C512 0.947 . S
H490 C513 0.948 . S
H491 C519 0.982 . S
H492 C520 0.979 . S
H493 C520 0.980 . S
H494 C520 0.983 . S
H495 C519 0.979 . S
H496 C519 0.977 . S
C497 C485 1.453 . S
C497 H526 0.982 . S
C497 H527 0.979 . S
C497 H528 0.977 . S
C498 C485 1.684 . S
C498 H523 0.979 . S
C498 H524 0.980 . S
C498 H525 0.983 . S
C499 C500 1.391 . S
C499 C504 1.391 . S
C499 H529 0.948 . S
C500 C499 1.391 . S
C500 C501 1.391 . S
C501 C500 1.391 . S
C501 C502 1.392 . S
C501 H530 0.947 . S
C502 C501 1.392 . S
C502 C503 1.419 . S
C502 H531 0.948 . S
C503 C502 1.419 . S
C503 C504 1.391 . S
C503 C507 1.397 . S
C504 C499 1.391 . S
C504 C503 1.391 . S
C504 C505 1.399 . S
C505 C504 1.399 . S
C505 C506 1.396 . S
C505 C508 1.453 . S
C505 C509 1.684 . S
C506 C487 1.723 . S
C506 C505 1.396 . S
C506 C507 1.394 . S
C507 C503 1.397 . S
C507 C506 1.394 . S
C507 C517 1.723 . S
C508 C505 1.453 . S
C508 H532 0.982 . S
C508 H533 0.979 . S
C508 H534 0.977 . S
C509 C505 1.684 . S
C509 H535 0.979 . S
C509 H536 0.980 . S
C509 H537 0.983 . S
C510 H486 0.948 . S
C510 C511 1.391 . S
C510 C515 1.391 . S
C511 C510 1.391 . S
C511 C512 1.391 . S
C512 H489 0.947 . S
C512 C511 1.391 . S
C512 C513 1.392 . S
C513 H490 0.948 . S
C513 C512 1.392 . S
C513 C514 1.419 . S
C514 C513 1.419 . S
C514 C515 1.391 . S
C514 C518 1.397 . S
C515 C510 1.391 . S
C515 C514 1.391 . S
C515 C516 1.399 . S
C516 C515 1.399 . S
C516 C517 1.396 . S
C516 C519 1.453 . S
C516 C520 1.684 . S
C517 C507 1.723 . S
C517 C516 1.396 . S
C517 C518 1.394 . S
C518 C488 1.723 . S
C518 C514 1.397 . S
C518 C517 1.394 . S
C519 H491 0.982 . S
C519 H495 0.979 . S
C519 H496 0.977 . S
C519 C516 1.453 . S
C520 H492 0.979 . S
C520 H493 0.980 . S
C520 H494 0.983 . S
C520 C516 1.684 . S
H521 C539 0.948 . S
H522 C480 0.948 . S
H523 C498 0.979 . S
H524 C498 0.980 . S
H525 C498 0.983 . S
H526 C497 0.982 . S
H527 C497 0.979 . S
H528 C497 0.977 . S
H529 C499 0.948 . S
H530 C501 0.947 . S
H531 C502 0.948 . S
H532 C508 0.982 . S
H533 C508 0.979 . S
H534 C508 0.977 . S
H535 C509 0.979 . S
H536 C509 0.980 . S
H537 C509 0.983 . S
H538 C482 0.947 . S
C539 C482 1.392 . S
C539 C483 1.419 . S
C539 H521 0.948 . S
C540 C541 1.391 . S
C540 C544 1.391 . S
C540 H582 0.948 . S
C541 C540 1.391 . S
C541 C542 1.391 . S
C542 C541 1.391 . S
C542 H598 0.947 . S
C542 C599 1.392 . S
C543 C544 1.391 . S
C543 C547 1.397 . S
C543 C599 1.419 . S
C544 C540 1.391 . S
C544 C543 1.391 . S
C544 C545 1.399 . S
C545 C544 1.399 . S
C545 C548 1.396 . S
C545 C557 1.453 . S
C545 C558 1.684 . S
H546 C570 0.948 . S
C547 C543 1.397 . S
C547 C548 1.394 . S
C547 C566 1.723 . S
C548 C545 1.396 . S
C548 C547 1.394 . S
C548 C578 1.723 . S
H549 C572 0.947 . S
H550 C573 0.948 . S
H551 C579 0.982 . S
H552 C580 0.979 . S
H553 C580 0.980 . S
H554 C580 0.983 . S
H555 C579 0.979 . S
H556 C579 0.977 . S
C557 C545 1.453 . S
C557 H586 0.982 . S
C557 H587 0.979 . S
C557 H588 0.977 . S
C558 C545 1.684 . S
C558 H583 0.979 . S
C558 H584 0.980 . S
C558 H585 0.983 . S
C559 C560 1.391 . S
C559 C564 1.391 . S
C559 H589 0.948 . S
C560 C559 1.391 . S
C560 C561 1.391 . S
C561 C560 1.391 . S
C561 C562 1.392 . S
C561 H590 0.947 . S
C562 C561 1.392 . S
C562 C563 1.419 . S
C562 H591 0.948 . S
C563 C562 1.419 . S
C563 C564 1.391 . S
C563 C567 1.397 . S
C564 C559 1.391 . S
C564 C563 1.391 . S
C564 C565 1.399 . S
C565 C564 1.399 . S
C565 C566 1.396 . S
C565 C568 1.453 . S
C565 C569 1.684 . S
C566 C547 1.723 . S
C566 C565 1.396 . S
C566 C567 1.394 . S
C567 C563 1.397 . S
C567 C566 1.394 . S
C567 C577 1.723 . S
C568 C565 1.453 . S
C568 H592 0.982 . S
C568 H593 0.979 . S
C568 H594 0.977 . S
C569 C565 1.684 . S
C569 H595 0.979 . S
C569 H596 0.980 . S
C569 H597 0.983 . S
C570 H546 0.948 . S
C570 C571 1.391 . S
C570 C575 1.391 . S
C571 C570 1.391 . S
C571 C572 1.391 . S
C572 H549 0.947 . S
C572 C571 1.391 . S
C572 C573 1.392 . S
C573 H550 0.948 . S
C573 C572 1.392 . S
C573 C574 1.419 . S
C574 C573 1.419 . S
C574 C575 1.391 . S
C574 C578 1.397 . S
C575 C570 1.391 . S
C575 C574 1.391 . S
C575 C576 1.399 . S
C576 C575 1.399 . S
C576 C577 1.396 . S
C576 C579 1.453 . S
C576 C580 1.684 . S
C577 C567 1.723 . S
C577 C576 1.396 . S
C577 C578 1.394 . S
C578 C548 1.723 . S
C578 C574 1.397 . S
C578 C577 1.394 . S
C579 H551 0.982 . S
C579 H555 0.979 . S
C579 H556 0.977 . S
C579 C576 1.453 . S
C580 H552 0.979 . S
C580 H553 0.980 . S
C580 H554 0.983 . S
C580 C576 1.684 . S
H581 C599 0.948 . S
H582 C540 0.948 . S
H583 C558 0.979 . S
H584 C558 0.980 . S
H585 C558 0.983 . S
H586 C557 0.982 . S
H587 C557 0.979 . S
H588 C557 0.977 . S
H589 C559 0.948 . S
H590 C561 0.947 . S
H591 C562 0.948 . S
H592 C568 0.982 . S
H593 C568 0.979 . S
H594 C568 0.977 . S
H595 C569 0.979 . S
H596 C569 0.980 . S
H597 C569 0.983 . S
H598 C542 0.947 . S
C599 C542 1.392 . S
C599 C543 1.419 . S
C599 H581 0.948 . S
C600 C601 1.391 . S
C600 C604 1.391 . S
C600 H642 0.948 . S
C601 C600 1.391 . S
C601 C602 1.391 . S
C602 C601 1.391 . S
C602 H658 0.947 . S
C602 C659 1.392 . S
C603 C604 1.391 . S
C603 C607 1.397 . S
C603 C659 1.419 . S
C604 C600 1.391 . S
C604 C603 1.391 . S
C604 C605 1.399 . S
C605 C604 1.399 . S
C605 C608 1.396 . S
C605 C617 1.453 . S
C605 C618 1.684 . S
H606 C630 0.948 . S
C607 C603 1.397 . S
C607 C608 1.394 . S
C607 C626 1.723 . S
C608 C605 1.396 . S
C608 C607 1.394 . S
C608 C638 1.723 . S
H609 C632 0.947 . S
H610 C633 0.948 . S
H611 C639 0.982 . S
H612 C640 0.979 . S
H613 C640 0.980 . S
H614 C640 0.983 . S
H615 C639 0.979 . S
H616 C639 0.977 . S
C617 C605 1.453 . S
C617 H646 0.982 . S
C617 H647 0.979 . S
C617 H648 0.977 . S
C618 C605 1.684 . S
C618 H643 0.979 . S
C618 H644 0.980 . S
C618 H645 0.983 . S
C619 C620 1.391 . S
C619 C624 1.391 . S
C619 H649 0.948 . S
C620 C619 1.391 . S
C620 C621 1.391 . S
C621 C620 1.391 . S
C621 C622 1.392 . S
C621 H650 0.947 . S
C622 C621 1.392 . S
C622 C623 1.419 . S
C622 H651 0.948 . S
C623 C622 1.419 . S
C623 C624 1.391 . S
C623 C627 1.397 . S
C624 C619 1.391 . S
C624 C623 1.391 . S
C624 C625 1.399 . S
C625 C624 1.399 . S
C625 C626 1.396 . S
C625 C628 1.453 . S
C625 C629 1.684 . S
C626 C607 1.723 . S
C626 C625 1.396 . S
C626 C627 1.394 . S
C627 C623 1.397 . S
C627 C626 1.394 . S
C627 C637 1.723 . S
C628 C625 1.453 . S
C628 H652 0.982 . S
C628 H653 0.979 . S
C628 H654 0.977 . S
C629 C625 1.684 . S
C629 H655 0.979 . S
C629 H656 0.980 . S
C629 H657 0.983 . S
C630 H606 0.948 . S
C630 C631 1.391 . S
C630 C635 1.391 . S
C631 C630 1.391 . S
C631 C632 1.391 . S
C632 H609 0.947 . S
C632 C631 1.391 . S
C632 C633 1.392 . S
C633 H610 0.948 . S
C633 C632 1.392 . S
C633 C634 1.419 . S
C634 C633 1.419 . S
C634 C635 1.391 . S
C634 C638 1.397 . S
C635 C630 1.391 . S
C635 C634 1.391 . S
C635 C636 1.399 . S
C636 C635 1.399 . S
C636 C637 1.396 . S
C636 C639 1.453 . S
C636 C640 1.684 . S
C637 C627 1.723 . S
C637 C636 1.396 . S
C637 C638 1.394 . S
C638 C608 1.723 . S
C638 C634 1.397 . S
C638 C637 1.394 . S
C639 H611 0.982 . S
C639 H615 0.979 . S
C639 H616 0.977 . S
C639 C636 1.453 . S
C640 H612 0.979 . S
C640 H613 0.980 . S
C640 H614 0.983 . S
C640 C636 1.684 . S
H641 C659 0.948 . S
H642 C600 0.948 . S
H643 C618 0.979 . S
H644 C618 0.980 . S
H645 C618 0.983 . S
H646 C617 0.982 . S
H647 C617 0.979 . S
H648 C617 0.977 . S
H649 C619 0.948 . S
H650 C621 0.947 . S
H651 C622 0.948 . S
H652 C628 0.982 . S
H653 C628 0.979 . S
H654 C628 0.977 . S
H655 C629 0.979 . S
H656 C629 0.980 . S
H657 C629 0.983 . S
H658 C602 0.947 . S
C659 C602 1.392 . S
C659 C603 1.419 . S
C659 H641 0.948 . S
C660 C661 1.391 . S
C660 C664 1.391 . S
C660 H702 0.948 . S
C661 C660 1.391 . S
C661 C662 1.391 . S
C662 C661 1.391 . S
C662 H718 0.947 . S
C662 C719 1.392 . S
C663 C664 1.391 . S
C663 C667 1.397 . S
C663 C719 1.419 . S
C664 C660 1.391 . S
C664 C663 1.391 . S
C664 C665 1.399 . S
C665 C664 1.399 . S
C665 C668 1.396 . S
C665 C677 1.453 . S
C665 C678 1.684 . S
H666 C690 0.948 . S
C667 C663 1.397 . S
C667 C668 1.394 . S
C667 C686 1.723 . S
C668 C665 1.396 . S
C668 C667 1.394 . S
C668 C698 1.723 . S
H669 C692 0.947 . S
H670 C693 0.948 . S
H671 C699 0.982 . S
H672 C700 0.979 . S
H673 C700 0.980 . S
H674 C700 0.983 . S
H675 C699 0.979 . S
H676 C699 0.977 . S
C677 C665 1.453 . S
C677 H706 0.982 . S
C677 H707 0.979 . S
C677 H708 0.977 . S
C678 C665 1.684 . S
C678 H703 0.979 . S
C678 H704 0.980 . S
C678 H705 0.983 . S
C679 C680 1.391 . S
C679 C684 1.391 . S
C679 H709 0.948 . S
C680 C679 1.391 . S
C680 C681 1.391 . S
C681 C680 1.391 . S
C681 C682 1.392 . S
C681 H710 0.947 . S
C682 C681 1.392 . S
C682 C683 1.419 . S
C682 H711 0.948 . S
C683 C682 1.419 . S
C683 C684 1.391 . S
C683 C687 1.397 . S
C684 C679 1.391 . S
C684 C683 1.391 . S
C684 C685 1.399 . S
C685 C684 1.399 . S
C685 C686 1.396 . S
C685 C688 1.453 . S
C685 C689 1.684 . S
C686 C667 1.723 . S
C686 C685 1.396 . S
C686 C687 1.394 . S
C687 C683 1.397 . S
C687 C686 1.394 . S
C687 C697 1.723 . S
C688 C685 1.453 . S
C688 H712 0.982 . S
C688 H713 0.979 . S
C688 H714 0.977 . S
C689 C685 1.684 . S
C689 H715 0.979 . S
C689 H716 0.980 . S
C689 H717 0.983 . S
C690 H666 0.948 . S
C690 C691 1.391 . S
C690 C695 1.391 . S
C691 C690 1.391 . S
C691 C692 1.391 . S
C692 H669 0.947 . S
C692 C691 1.391 . S
C692 C693 1.392 . S
C693 H670 0.948 . S
C693 C692 1.392 . S
C693 C694 1.419 . S
C694 C693 1.419 . S
C694 C695 1.391 . S
C694 C698 1.397 . S
C695 C690 1.391 . S
C695 C694 1.391 . S
C695 C696 1.399 . S
C696 C695 1.399 . S
C696 C697 1.396 . S
C696 C699 1.453 . S
C696 C700 1.684 . S
C697 C687 1.723 . S
C697 C696 1.396 . S
C697 C698 1.394 . S
C698 C668 1.723 . S
C698 C694 1.397 . S
C698 C697 1.394 . S
C699 H671 0.982 . S
C699 H675 0.979 . S
C699 H676 0.977 . S
C699 C696 1.453 . S
C700 H672 0.979 . S
C700 H673 0.980 . S
C700 H674 0.983 . S
C700 C696 1.684 . S
H701 C719 0.948 . S
H702 C660 0.948 . S
H703 C678 0.979 . S
H704 C678 0.980 . S
H705 C678 0.983 . S
H706 C677 0.982 . S
H707 C677 0.979 . S
H708 C677 0.977 . S
H709 C679 0.948 . S
H710 C681 0.947 . S
H711 C682 0.948 . S
H712 C688 0.982 . S
H713 C688 0.979 . S
H714 C688 0.977 . S
H715 C689 0.979 . S
H716 C689 0.980 . S
H717 C689 0.983 . S
H718 C662 0.947 . S
C719 C662 1.392 . S
C719 C663 1.419 . S
C719 H701 0.948 . S
C720 C721 1.391 . S
C720 C724 1.391 . S
C720 H762 0.948 . S
C721 C720 1.391 . S
C721 C722 1.391 . S
C722 C721 1.391 . S
C722 H778 0.947 . S
C722 C779 1.392 . S
C723 C724 1.391 . S
C723 C727 1.397 . S
C723 C779 1.419 . S
C724 C720 1.391 . S
C724 C723 1.391 . S
C724 C725 1.399 . S
C725 C724 1.399 . S
C725 C728 1.396 . S
C725 C737 1.453 . S
C725 C738 1.684 . S
H726 C750 0.948 . S
C727 C723 1.397 . S
C727 C728 1.394 . S
C727 C746 1.723 . S
C728 C725 1.396 . S
C728 C727 1.394 . S
C728 C758 1.723 . S
H729 C752 0.947 . S
H730 C753 0.948 . S
H731 C759 0.982 . S
H732 C760 0.979 . S
H733 C760 0.980 . S
H734 C760 0.983 . S
H735 C759 0.979 . S
H736 C759 0.977 . S
C737 C725 1.453 . S
C737 H766 0.982 . S
C737 H767 0.979 . S
C737 H768 0.977 . S
C738 C725 1.684 . S
C738 H763 0.979 . S
C738 H764 0.980 . S
C738 H765 0.983 . S
C739 C740 1.391 . S
C739 C744 1.391 . S
C739 H769 0.948 . S
C740 C739 1.391 . S
C740 C741 1.391 . S
C741 C740 1.391 . S
C741 C742 1.392 . S
C741 H770 0.947 . S
C742 C741 1.392 . S
C742 C743 1.419 . S
C742 H771 0.948 . S
C743 C742 1.419 . S
C743 C744 1.391 . S
C743 C747 1.397 . S
C744 C739 1.391 . S
C744 C743 1.391 . S
C744 C745 1.399 . S
C745 C744 1.399 . S
C745 C746 1.396 . S
C745 C748 1.453 . S
C745 C749 1.684 . S
C746 C727 1.723 . S
C746 C745 1.396 . S
C746 C747 1.394 . S
C747 C743 1.397 . S
C747 C746 1.394 . S
C747 C757 1.723 . S
C748 C745 1.453 . S
C748 H772 0.982 . S
C748 H773 0.979 . S
C748 H774 0.977 . S
C749 C745 1.684 . S
C749 H775 0.979 . S
C749 H776 0.980 . S
C749 H777 0.983 . S
C750 H726 0.948 . S
C750 C751 1.391 . S
C750 C755 1.391 . S
C751 C750 1.391 . S
C751 C752 1.391 . S
C752 H729 0.947 . S
C752 C751 1.391 . S
C752 C753 1.392 . S
C753 H730 0.948 . S
C753 C752 1.392 . S
C753 C754 1.419 . S
C754 C753 1.419 . S
C754 C755 1.391 . S
C754 C758 1.397 . S
C755 C750 1.391 . S
C755 C754 1.391 . S
C755 C756 1.399 . S
C756 C755 1.399 . S
C756 C757 1.396 . S
C756 C759 1.453 . S
C756 C760 1.684 . S
C757 C747 1.723 . S
C757 C756 1.396 . S
C757 C758 1.394 . S
C758 C728 1.723 . S
C758 C754 1.397 . S
C758 C757 1.394 . S
C759 H731 0.982 . S
C759 H735 0.979 . S
C759 H736 0.977 . S
C759 C756 1.453 . S
C760 H732 0.979 . S
C760 H733 0.980 . S
C760 H734 0.983 . S
C760 C756 1.684 . S
H761 C779 0.948 . S
H762 C720 0.948 . S
H763 C738 0.979 . S
H764 C738 0.980 . S
H765 C738 0.983 . S
H766 C737 0.982 . S
H767 C737 0.979 . S
H768 C737 0.977 . S
H769 C739 0.948 . S
H770 C741 0.947 . S
H771 C742 0.948 . S
H772 C748 0.982 . S
H773 C748 0.979 . S
H774 C748 0.977 . S
H775 C749 0.979 . S
H776 C749 0.980 . S
H777 C749 0.983 . S
H778 C722 0.947 . S
C779 C722 1.392 . S
C779 C723 1.419 . S
C779 H761 0.948 . S
C780 C781 1.391 . S
C780 C784 1.391 . S
C780 H822 0.948 . S
C781 C780 1.391 . S
C781 C782 1.391 . S
C782 C781 1.391 . S
C782 H838 0.947 . S
C782 C839 1.392 . S
C783 C784 1.391 . S
C783 C787 1.397 . S
C783 C839 1.419 . S
C784 C780 1.391 . S
C784 C783 1.391 . S
C784 C785 1.399 . S
C785 C784 1.399 . S
C785 C788 1.396 . S
C785 C797 1.453 . S
C785 C798 1.684 . S
H786 C810 0.948 . S
C787 C783 1.397 . S
C787 C788 1.394 . S
C787 C806 1.723 . S
C788 C785 1.396 . S
C788 C787 1.394 . S
C788 C818 1.723 . S
H789 C812 0.947 . S
H790 C813 0.948 . S
H791 C819 0.982 . S
H792 C820 0.979 . S
H793 C820 0.980 . S
H794 C820 0.983 . S
H795 C819 0.979 . S
H796 C819 0.977 . S
C797 C785 1.453 . S
C797 H826 0.982 . S
C797 H827 0.979 . S
C797 H828 0.977 . S
C798 C785 1.684 . S
C798 H823 0.979 . S
C798 H824 0.980 . S
C798 H825 0.983 . S
C799 C800 1.391 . S
C799 C804 1.391 . S
C799 H829 0.948 . S
C800 C799 1.391 . S
C800 C801 1.391 . S
C801 C800 1.391 . S
C801 C802 1.392 . S
C801 H830 0.947 . S
C802 C801 1.392 . S
C802 C803 1.419 . S
C802 H831 0.948 . S
C803 C802 1.419 . S
C803 C804 1.391 . S
C803 C807 1.397 . S
C804 C799 1.391 . S
C804 C803 1.391 . S
C804 C805 1.399 . S
C805 C804 1.399 . S
C805 C806 1.396 . S
C805 C808 1.453 . S
C805 C809 1.684 . S
C806 C787 1.723 . S
C806 C805 1.396 . S
C806 C807 1.394 . S
C807 C803 1.397 . S
C807 C806 1.394 . S
C807 C817 1.723 . S
C808 C805 1.453 . S
C808 H832 0.982 . S
C808 H833 0.979 . S
C808 H834 0.977 . S
C809 C805 1.684 . S
C809 H835 0.979 . S
C809 H836 0.980 . S
C809 H837 0.983 . S
C810 H786 0.948 . S
C810 C811 1.391 . S
C810 C815 1.391 . S
C811 C810 1.391 . S
C811 C812 1.391 . S
C812 H789 0.947 . S
C812 C811 1.391 . S
C812 C813 1.392 . S
C813 H790 0.948 . S
C813 C812 1.392 . S
C813 C814 1.419 . S
C814 C813 1.419 . S
C814 C815 1.391 . S
C814 C818 1.397 . S
C815 C810 1.391 . S
C815 C814 1.391 . S
C815 C816 1.399 . S
C816 C815 1.399 . S
C816 C817 1.396 . S
C816 C819 1.453 . S
C816 C820 1.684 . S
C817 C807 1.723 . S
C817 C816 1.396 . S
C817 C818 1.394 . S
C818 C788 1.723 . S
C818 C814 1.397 . S
C818 C817 1.394 . S
C819 H791 0.982 . S
C819 H795 0.979 . S
C819 H796 0.977 . S
C819 C816 1.453 . S
C820 H792 0.979 . S
C820 H793 0.980 . S
C820 H794 0.983 . S
C820 C816 1.684 . S
H821 C839 0.948 . S
H822 C780 0.948 . S
H823 C798 0.979 . S
H824 C798 0.980 . S
H825 C798 0.983 . S
H826 C797 0.982 . S
H827 C797 0.979 . S
H828 C797 0.977 . S
H829 C799 0.948 . S
H830 C801 0.947 . S
H831 C802 0.948 . S
H832 C808 0.982 . S
H833 C808 0.979 . S
H834 C808 0.977 . S
H835 C809 0.979 . S
H836 C809 0.980 . S
H837 C809 0.983 . S
H838 C782 0.947 . S
C839 C782 1.392 . S
C839 C783 1.419 . S
C839 H821 0.948 . S
C840 C841 1.391 . S
C840 C844 1.391 . S
C840 H882 0.948 . S
C841 C840 1.391 . S
C841 C842 1.391 . S
C842 C841 1.391 . S
C842 H898 0.947 . S
C842 C899 1.392 . S
C843 C844 1.391 . S
C843 C847 1.397 . S
C843 C899 1.419 . S
C844 C840 1.391 . S
C844 C843 1.391 . S
C844 C845 1.399 . S
C845 C844 1.399 . S
C845 C848 1.396 . S
C845 C857 1.453 . S
C845 C858 1.684 . S
H846 C870 0.948 . S
C847 C843 1.397 . S
C847 C848 1.394 . S
C847 C866 1.723 . S
C848 C845 1.396 . S
C848 C847 1.394 . S
C848 C878 1.723 . S
H849 C872 0.947 . S
H850 C873 0.948 . S
H851 C879 0.982 . S
H852 C880 0.979 . S
H853 C880 0.980 . S
H854 C880 0.983 . S
H855 C879 0.979 . S
H856 C879 0.977 . S
C857 C845 1.453 . S
C857 H886 0.982 . S
C857 H887 0.979 . S
C857 H888 0.977 . S
C858 C845 1.684 . S
C858 H883 0.979 . S
C858 H884 0.980 . S
C858 H885 0.983 . S
C859 C860 1.391 . S
C859 C864 1.391 . S
C859 H889 0.948 . S
C860 C859 1.391 . S
C860 C861 1.391 . S
C861 C860 1.391 . S
C861 C862 1.392 . S
C861 H890 0.947 . S
C862 C861 1.392 . S
C862 C863 1.419 . S
C862 H891 0.948 . S
C863 C862 1.419 . S
C863 C864 1.391 . S
C863 C867 1.397 . S
C864 C859 1.391 . S
C864 C863 1.391 . S
C864 C865 1.399 . S
C865 C864 1.399 . S
C865 C866 1.396 . S
C865 C868 1.453 . S
C865 C869 1.684 . S
C866 C847 1.723 . S
C866 C865 1.396 . S
C866 C867 1.394 . S
C867 C863 1.397 . S
C867 C866 1.394 . S
C867 C877 1.723 . S
C868 C865 1.453 . S
C868 H892 0.982 . S
C868 H893 0.979 . S
C868 H894 0.977 . S
C869 C865 1.684 . S
C869 H895 0.979 . S
C869 H896 0.980 . S
C869 H897 0.983 . S
C870 H846 0.948 . S
C870 C871 1.391 . S
C870 C875 1.391 . S
C871 C870 1.391 . S
C871 C872 1.391 . S
C872 H849 0.947 . S
C872 C871 1.391 . S
C872 C873 1.392 . S
C873 H850 0.948 . S
C873 C872 1.392 . S
C873 C874 1.419 . S
C874 C873 1.419 . S
C874 C875 1.391 . S
C874 C878 1.397 . S
C875 C870 1.391 . S
C875 C874 1.391 . S
C875 C876 1.399 . S
C876 C875 1.399 . S
C876 C877 1.396 . S
C876 C879 1.453 . S
C876 C880 1.684 . S
C877 C867 1.723 . S
C877 C876 1.396 . S
C877 C878 1.394 . S
C878 C848 1.723 . S
C878 C874 1.397 . S
C878 C877 1.394 . S
C879 H851 0.982 . S
C879 H855 0.979 . S
C879 H856 0.977 . S
C879 C876 1.453 . S
C880 H852 0.979 . S
C880 H853 0.980 . S
C880 H854 0.983 . S
C880 C876 1.684 . S
H881 C899 0.948 . S
H882 C840 0.948 . S
H883 C858 0.979 . S
H884 C858 0.980 . S
H885 C858 0.983 . S
H886 C857 0.982 . S
H887 C857 0.979 . S
H888 C857 0.977 . S
H889 C859 0.948 . S
H890 C861 0.947 . S
H891 C862 0.948 . S
H892 C868 0.982 . S
H893 C868 0.979 . S
H894 C868 0.977 . S
H895 C869 0.979 . S
H896 C869 0.980 . S
H897 C869 0.983 . S
H898 C842 0.947 . S
C899 C842 1.392 . S
C899 C843 1.419 . S
C899 H881 0.948 . S
C900 C901 1.391 . S
C900 C904 1.391 . S
C900 H942 0.948 . S
C901 C900 1.391 . S
C901 C902 1.391 . S
C902 C901 1.391 . S
C902 H958 0.947 . S
C902 C959 1.392 . S
C903 C904 1.391 . S
C903 C907 1.397 . S
C903 C959 1.419 . S
C904 C900 1.391 . S
C904 C903 1.391 . S
C904 C905 1.399 . S
C905 C904 1.399 . S
C905 C908 1.396 . S
C905 C917 1.453 . S
C905 C918 1.684 . S
H906 C930 0.948 . S
C907 C903 1.397 . S
C907 C908 1.394 . S
C907 C926 1.723 . S
C908 C905 1.396 . S
C908 C907 1.394 . S
C908 C938 1.723 . S
H909 C932 0.947 . S
H910 C933 0.948 . S
H911 C939 0.982 . S
H912 C940 0.979 . S
H913 C940 0.980 . S
H914 C940 0.983 . S
H915 C939 0.979 . S
H916 C939 0.977 . S
C917 C905 1.453 . S
C917 H946 0.982 . S
C917 H947 0.979 . S
C917 H948 0.977 . S
C918 C905 1.684 . S
C918 H943 0.979 . S
C918 H944 0.980 . S
C918 H945 0.983 . S
C919 C920 1.391 . S
C919 C924 1.391 . S
C919 H949 0.948 . S
C920 C919 1.391 . S
C920 C921 1.391 . S
C921 C920 1.391 . S
C921 C922 1.392 . S
C921 H950 0.947 . S
C922 C921 1.392 . S
C922 C923 1.419 . S
C922 H951 0.948 . S
C923 C922 1.419 . S
C923 C924 1.391 . S
C923 C927 1.397 . S
C924 C919 1.391 . S
C924 C923 1.391 . S
C924 C925 1.399 . S
C925 C924 1.399 . S
C925 C926 1.396 . S
C925 C928 1.453 . S
C925 C929 1.684 . S
C926 C907 1.723 . S
C926 C925 1.396 . S
C926 C927 1.394 . S
C927 C923 1.397 . S
C927 C926 1.394 . S
C927 C937 1.723 . S
C928 C925 1.453 . S
C928 H952 0.982 . S
C928 H953 0.979 . S
C928 H954 0.977 . S
C929 C925 1.684 . S
C929 H955 0.979 . S
C929 H956 0.980 . S
C929 H957 0.983 . S
C930 H906 0.948 . S
C930 C931 1.391 . S
C930 C935 1.391 . S
C931 C930 1.391 . S
C931 C932 1.391 . S
C932 H909 0.947 . S
C932 C931 1.391 . S
C932 C933 1.392 . S
C933 H910 0.948 . S
C933 C932 1.392 . S
C933 C934 1.419 . S
C934 C933 1.419 . S
C934 C935 1.391 . S
C934 C938 1.397 . S
C935 C930 1.391 . S
C935 C934 1.391 . S
C935 C936 1.399 . S
C936 C935 1.399 . S
C936 C937 1.396 . S
C936 C939 1.453 . S
C936 C940 1.684 . S
C937 C927 1.723 . S
C937 C936 1.396 . S
C937 C938 1.394 . S
C938 C908 1.723 . S
C938 C934 1.397 . S
C938 C937 1.394 . S
C939 H911 0.982 . S
C939 H915 0.979 . S
C939 H916 0.977 . S
C939 C936 1.453 . S
C940 H912 0.979 . S
C940 H913 0.980 . S
C940 H914 0.983 . S
C940 C936 1.684 . S
H941 C959 0.948 . S
H942 C900 0.948 . S
H943 C918 0.979 . S
H944 C918 0.980 . S
H945 C918 0.983 . S
H946 C917 0.982 . S
H947 C917 0.979 . S
H948 C917 0.977 . S
H949 C919 0.948 . S
H950 C921 0.947 . S
H951 C922 0.948 . S
H952 C928 0.982 . S
H953 C928 0.979 . S
H954 C928 0.977 . S
H955 C929 0.979 . S
H956 C929 0.980 . S
H957 C929 0.983 . S
H958 C902 0.947 . S
C959 C902 1.392 . S
C959 C903 1.419 . S
C959 H941 0.948 . S
C960 C961 1.391 . S
C960 C964 1.391 . S
C960 H1002 0.948 . S
C961 C960 1.391 . S
C961 C962 1.391 . S
C962 C961 1.391 . S
C962 H1018 0.947 . S
C962 C1019 1.392 . S
C963 C964 1.391 . S
C963 C967 1.397 . S
C963 C1019 1.419 . S
C964 C960 1.391 . S
C964 C963 1.391 . S
C964 C965 1.399 . S
C965 C964 1.399 . S
C965 C968 1.396 . S
C965 C977 1.453 . S
C965 C978 1.684 . S
H966 C990 0.948 . S
C967 C963 1.397 . S
C967 C968 1.394 . S
C967 C986 1.723 . S
C968 C965 1.396 . S
C968 C967 1.394 . S
C968 C998 1.723 . S
H969 C992 0.947 . S
H970 C993 0.948 . S
H971 C999 0.982 . S
H972 C1000 0.979 . S
H973 C1000 0.980 . S
H974 C1000 0.983 . S
H975 C999 0.979 . S
H976 C999 0.977 . S
C977 C965 1.453 . S
C977 H1006 0.982 . S
C977 H1007 0.979 . S
C977 H1008 0.977 . S
C978 C965 1.684 . S
C978 H1003 0.979 . S
C978 H1004 0.980 . S
C978 H1005 0.983 . S
C979 C980 1.391 . S
C979 C984 1.391 . S
C979 H1009 0.948 . S
C980 C979 1.391 . S
C980 C981 1.391 . S
C981 C980 1.391 . S
C981 C982 1.392 . S
C981 H1010 0.947 . S
C982 C981 1.392 . S
C982 C983 1.419 . S
C982 H1011 0.948 . S
C983 C982 1.419 . S
C983 C984 1.391 . S
C983 C987 1.397 . S
C984 C979 1.391 . S
C984 C983 1.391 . S
C984 C985 1.399 . S
C985 C984 1.399 . S
C985 C986 1.396 . S
C985 C988 1.453 . S
C985 C989 1.684 . S
C986 C967 1.723 . S
C986 C985 1.396 . S
C986 C987 1.394 . S
C987 C983 1.397 . S
C987 C986 1.394 . S
C987 C997 1.723 . S
C988 C985 1.453 . S
C988 H1012 0.982 . S
C988 H1013 0.979 . S
C988 H1014 0.977 . S
C989 C985 1.684 . S
C989 H1015 0.979 1_455 S
C989 H1016 0.980 . S
C989 H1017 0.983 . S
C990 H966 0.948 . S
C990 C991 1.391 . S
C990 C995 1.391 . S
C991 C990 1.391 . S
C991 C992 1.391 . S
C992 H969 0.947 . S
C992 C991 1.391 . S
C992 C993 1.392 . S
C993 H970 0.948 . S
C993 C992 1.392 . S
C993 C994 1.419 . S
C994 C993 1.419 . S
C994 C995 1.391 . S
C994 C998 1.397 . S
C995 C990 1.391 . S
C995 C994 1.391 . S
C995 C996 1.399 . S
C996 C995 1.399 . S
C996 C997 1.396 . S
C996 C999 1.453 . S
C996 C1000 1.684 . S
C997 C987 1.723 . S
C997 C996 1.396 . S
C997 C998 1.394 . S
C998 C968 1.723 . S
C998 C994 1.397 . S
C998 C997 1.394 . S
C999 H971 0.982 . S
C999 H975 0.979 . S
C999 H976 0.977 . S
C999 C996 1.453 . S
C1000 H972 0.979 . S
C1000 H973 0.980 . S
C1000 H974 0.983 . S
C1000 C996 1.684 . S
H1001 C1019 0.948 . S
H1002 C960 0.948 . S
H1003 C978 0.979 . S
H1004 C978 0.980 . S
H1005 C978 0.983 . S
H1006 C977 0.982 . S
H1007 C977 0.979 . S
H1008 C977 0.977 . S
H1009 C979 0.948 . S
H1010 C981 0.947 . S
H1011 C982 0.948 . S
H1012 C988 0.982 . S
H1013 C988 0.979 . S
H1014 C988 0.977 . S
H1015 C989 0.979 1_655 S
H1016 C989 0.980 . S
H1017 C989 0.983 . S
H1018 C962 0.947 . S
C1019 C962 1.392 . S
C1019 C963 1.419 . S
C1019 H1001 0.948 . S
C1020 C1021 1.391 . S
C1020 C1024 1.391 . S
C1020 H1062 0.948 . S
C1021 C1020 1.391 . S
C1021 C1022 1.391 . S
C1022 C1021 1.391 . S
C1022 H1078 0.947 . S
C1022 C1079 1.392 . S
C1023 C1024 1.391 . S
C1023 C1027 1.397 . S
C1023 C1079 1.419 . S
C1024 C1020 1.391 . S
C1024 C1023 1.391 . S
C1024 C1025 1.399 . S
C1025 C1024 1.399 . S
C1025 C1028 1.396 . S
C1025 C1037 1.453 . S
C1025 C1038 1.684 . S
H1026 C1050 0.948 . S
C1027 C1023 1.397 . S
C1027 C1028 1.394 . S
C1027 C1046 1.723 . S
C1028 C1025 1.396 . S
C1028 C1027 1.394 . S
C1028 C1058 1.723 . S
H1029 C1052 0.947 . S
H1030 C1053 0.948 . S
H1031 C1059 0.982 . S
H1032 C1060 0.979 . S
H1033 C1060 0.980 . S
H1034 C1060 0.983 . S
H1035 C1059 0.979 . S
H1036 C1059 0.977 . S
C1037 C1025 1.453 . S
C1037 H1066 0.982 . S
C1037 H1067 0.979 . S
C1037 H1068 0.977 . S
C1038 C1025 1.684 . S
C1038 H1063 0.979 . S
C1038 H1064 0.980 . S
C1038 H1065 0.983 . S
C1039 C1040 1.391 . S
C1039 C1044 1.391 . S
C1039 H1069 0.948 . S
C1040 C1039 1.391 . S
C1040 C1041 1.391 . S
C1041 C1040 1.391 . S
C1041 C1042 1.392 . S
C1041 H1070 0.947 . S
C1042 C1041 1.392 . S
C1042 C1043 1.419 . S
C1042 H1071 0.948 . S
C1043 C1042 1.419 . S
C1043 C1044 1.391 . S
C1043 C1047 1.397 . S
C1044 C1039 1.391 . S
C1044 C1043 1.391 . S
C1044 C1045 1.399 . S
C1045 C1044 1.399 . S
C1045 C1046 1.396 . S
C1045 C1048 1.453 . S
C1045 C1049 1.684 . S
C1046 C1027 1.723 . S
C1046 C1045 1.396 . S
C1046 C1047 1.394 . S
C1047 C1043 1.397 . S
C1047 C1046 1.394 . S
C1047 C1057 1.723 . S
C1048 C1045 1.453 . S
C1048 H1072 0.982 . S
C1048 H1073 0.979 . S
C1048 H1074 0.977 . S
C1049 C1045 1.684 . S
C1049 H1075 0.979 . S
C1049 H1076 0.980 . S
C1049 H1077 0.983 . S
C1050 H1026 0.948 . S
C1050 C1051 1.391 . S
C1050 C1055 1.391 . S
C1051 C1050 1.391 . S
C1051 C1052 1.391 . S
C1052 H1029 0.947 . S
C1052 C1051 1.391 . S
C1052 C1053 1.392 . S
C1053 H1030 0.948 . S
C1053 C1052 1.392 . S
C1053 C1054 1.419 . S
C1054 C1053 1.419 . S
C1054 C1055 1.391 . S
C1054 C1058 1.397 . S
C1055 C1050 1.391 . S
C1055 C1054 1.391 . S
C1055 C1056 1.399 . S
C1056 C1055 1.399 . S
C1056 C1057 1.396 . S
C1056 C1059 1.453 . S
C1056 C1060 1.684 . S
C1057 C1047 1.723 . S
C1057 C1056 1.396 . S
C1057 C1058 1.394 . S
C1058 C1028 1.723 . S
C1058 C1054 1.397 . S
C1058 C1057 1.394 . S
C1059 H1031 0.982 . S
C1059 H1035 0.979 . S
C1059 H1036 0.977 . S
C1059 C1056 1.453 . S
C1060 H1032 0.979 . S
C1060 H1033 0.980 . S
C1060 H1034 0.983 . S
C1060 C1056 1.684 . S
H1061 C1079 0.948 . S
H1062 C1020 0.948 . S
H1063 C1038 0.979 . S
H1064 C1038 0.980 . S
H1065 C1038 0.983 . S
H1066 C1037 0.982 . S
H1067 C1037 0.979 . S
H1068 C1037 0.977 . S
H1069 C1039 0.948 . S
H1070 C1041 0.947 . S
H1071 C1042 0.948 . S
H1072 C1048 0.982 . S
H1073 C1048 0.979 . S
H1074 C1048 0.977 . S
H1075 C1049 0.979 . S
H1076 C1049 0.980 . S
H1077 C1049 0.983 . S
H1078 C1022 0.947 . S
C1079 C1022 1.392 . S
C1079 C1023 1.419 . S
C1079 H1061 0.948 . S
Tb1080 C1090 2.825 . S
Tb1080 O1091 2.347 1_565 S
Tb1080 O1094 2.366 1_565 S
Tb1080 O1099 2.418 . S
Tb1080 O1100 2.384 . S
Tb1080 O1103 2.479 . S
Tb1080 O1104 2.441 1_565 S
Eu1081 O1092 2.418 . S
Eu1081 O1093 2.384 . S
Eu1081 O1096 2.479 . S
Eu1081 O1097 2.449 1_545 S
Eu1081 O1098 2.347 1_545 S
Eu1081 O1101 2.366 1_545 S
Eu1081 C1111 2.825 . S
C1082 O1098 1.259 . S
C1082 O1099 1.265 1_554 S
C1083 O1100 1.255 1_554 S
C1083 O1101 1.265 . S
C1084 C1086 1.380 . S
C1084 C1087 1.374 1_565 S
C1084 C1090 1.507 . S
C1085 C1086 1.384 . S
C1085 C1089 1.387 1_565 S
C1085 H1112 0.930 . S
C1086 C1084 1.380 . S
C1086 C1085 1.384 . S
C1086 H1113 0.931 . S
C1087 C1084 1.374 1_545 S
C1087 C1088 1.390 . S
C1087 H1114 0.930 . S
C1088 C1087 1.390 . S
C1088 C1089 1.391 . S
C1088 H1115 0.930 . S
C1089 C1085 1.387 1_545 S
C1089 C1088 1.391 . S
C1090 Tb1080 2.825 . S
C1090 C1084 1.507 . S
C1090 O1103 1.238 . S
C1090 O1104 1.202 1_565 S
O1091 Tb1080 2.347 1_545 S
O1091 C1095 1.259 . S
O1092 Eu1081 2.418 . S
O1092 C1095 1.265 1_554 S
O1093 Eu1081 2.384 . S
O1093 C1102 1.255 1_554 S
O1094 Tb1080 2.366 1_545 S
O1094 C1102 1.265 . S
C1095 O1091 1.259 . S
C1095 O1092 1.265 1_556 S
O1096 Eu1081 2.479 . S
O1096 C1111 1.238 . S
O1097 Eu1081 2.449 1_565 S
O1097 C1111 1.214 1_565 S
O1098 Eu1081 2.347 1_565 S
O1098 C1082 1.259 . S
O1099 Tb1080 2.418 . S
O1099 C1082 1.265 1_556 S
O1100 Tb1080 2.384 . S
O1100 C1083 1.255 1_556 S
O1101 Eu1081 2.366 1_565 S
O1101 C1083 1.265 . S
C1102 O1093 1.255 1_556 S
C1102 O1094 1.265 . S
O1103 Tb1080 2.479 . S
O1103 C1090 1.238 . S
O1104 Tb1080 2.441 1_545 S
O1104 C1090 1.202 1_545 S
C1105 C1108 1.380 . S
C1105 C1109 1.374 1_545 S
C1105 C1111 1.507 . S
C1106 C1107 1.387 1_565 S
C1106 C1110 1.391 . S
C1107 C1106 1.387 1_545 S
C1107 C1108 1.384 . S
C1107 H1116 0.930 . S
C1108 C1105 1.380 . S
C1108 C1107 1.384 . S
C1108 H1117 0.931 . S
C1109 C1105 1.374 1_565 S
C1109 C1110 1.390 . S
C1109 H1118 0.930 . S
C1110 C1106 1.391 . S
C1110 C1109 1.390 . S
C1110 H1119 0.930 . S
C1111 Eu1081 2.825 . S
C1111 O1096 1.238 . S
C1111 O1097 1.214 1_545 S
C1111 C1105 1.507 . S
H1112 C1085 0.930 . S
H1113 C1086 0.931 . S
H1114 C1087 0.930 . S
H1115 C1088 0.930 . S
H1116 C1107 0.930 . S
H1117 C1108 0.931 . S
H1118 C1109 0.930 . S
H1119 C1110 0.930 . S
Tb1120 C1130 2.825 . S
Tb1120 O1131 2.347 1_455 S
Tb1120 O1134 2.366 1_455 S
Tb1120 O1139 2.418 . S
Tb1120 O1140 2.384 1_556 S
Tb1120 O1143 2.479 . S
Tb1120 O1144 2.471 1_455 S
Eu1121 O1132 2.418 . S
Eu1121 O1133 2.384 1_554 S
Eu1121 O1136 2.479 . S
Eu1121 O1137 2.471 1_655 S
Eu1121 O1138 2.347 1_655 S
Eu1121 O1141 2.366 1_655 S
Eu1121 C1151 2.825 . S
C1122 O1138 1.259 . S
C1122 O1139 1.265 1_554 S
C1123 O1140 1.255 . S
C1123 O1141 1.265 . S
C1124 C1126 1.380 . S
C1124 C1127 1.374 1_455 S
C1124 C1130 1.507 . S
C1125 C1126 1.384 . S
C1125 C1129 1.387 1_455 S
C1125 H1152 0.930 . S
C1126 C1124 1.380 . S
C1126 C1125 1.384 . S
C1126 H1153 0.931 . S
C1127 C1124 1.374 1_655 S
C1127 C1128 1.390 . S
C1127 H1154 0.930 . S
C1128 C1127 1.390 . S
C1128 C1129 1.391 . S
C1128 H1155 0.930 . S
C1129 C1125 1.387 1_655 S
C1129 C1128 1.391 . S
C1130 Tb1120 2.825 . S
C1130 C1124 1.507 . S
C1130 O1143 1.238 . S
C1130 O1144 1.247 1_455 S
O1131 Tb1120 2.347 1_655 S
O1131 C1135 1.259 . S
O1132 Eu1121 2.418 . S
O1132 C1135 1.265 1_554 S
O1133 Eu1121 2.384 1_556 S
O1133 C1142 1.255 . S
O1134 Tb1120 2.366 1_655 S
O1134 C1142 1.265 . S
C1135 O1131 1.259 . S
C1135 O1132 1.265 1_556 S
O1136 Eu1121 2.479 . S
O1136 C1151 1.238 . S
O1137 Eu1121 2.471 1_455 S
O1137 C1151 1.247 1_455 S
O1138 Eu1121 2.347 1_455 S
O1138 C1122 1.259 . S
O1139 Tb1120 2.418 . S
O1139 C1122 1.265 1_556 S
O1140 Tb1120 2.384 1_554 S
O1140 C1123 1.255 . S
O1141 Eu1121 2.366 1_455 S
O1141 C1123 1.265 . S
C1142 O1133 1.255 . S
C1142 O1134 1.265 . S
O1143 Tb1120 2.479 . S
O1143 C1130 1.238 . S
O1144 Tb1120 2.471 1_655 S
O1144 C1130 1.247 1_655 S
C1145 C1148 1.380 . S
C1145 C1149 1.374 1_655 S
C1145 C1151 1.507 . S
C1146 C1147 1.387 1_455 S
C1146 C1150 1.391 . S
C1147 C1146 1.387 1_655 S
C1147 C1148 1.384 . S
C1147 H1156 0.930 . S
C1148 C1145 1.380 . S
C1148 C1147 1.384 . S
C1148 H1157 0.931 . S
C1149 C1145 1.374 1_455 S
C1149 C1150 1.390 . S
C1149 H1158 0.930 . S
C1150 C1146 1.391 . S
C1150 C1149 1.390 . S
C1150 H1159 0.930 . S
C1151 Eu1121 2.825 . S
C1151 O1136 1.238 . S
C1151 O1137 1.247 1_655 S
C1151 C1145 1.507 . S
H1152 C1125 0.930 . S
H1153 C1126 0.931 . S
H1154 C1127 0.930 . S
H1155 C1128 0.930 . S
H1156 C1147 0.930 . S
H1157 C1148 0.931 . S
H1158 C1149 0.930 . S
H1159 C1150 0.930 . S
Tb1160 C1170 2.825 . S
Tb1160 O1171 2.347 . S
Tb1160 O1174 2.366 . S
Tb1160 O1179 2.418 . S
Tb1160 O1180 2.381 . S
Tb1160 O1183 2.479 . S
Tb1160 O1184 2.471 . S
Eu1161 O1172 2.418 . S
Eu1161 O1173 2.355 1_556 S
Eu1161 O1176 2.479 . S
Eu1161 O1177 2.471 . S
Eu1161 O1178 2.347 . S
Eu1161 O1181 2.366 . S
Eu1161 C1191 2.825 . S
C1162 O1178 1.259 . S
C1162 O1179 1.265 1_556 S
C1163 O1180 1.259 1_556 S
C1163 O1181 1.265 . S
C1164 C1166 1.380 . S
C1164 C1167 1.374 . S
C1164 C1170 1.507 . S
C1165 C1166 1.384 . S
C1165 C1169 1.387 . S
C1165 H1192 0.930 . S
C1166 C1164 1.380 . S
C1166 C1165 1.384 . S
C1166 H1193 0.931 . S
C1167 C1164 1.374 . S
C1167 C1168 1.390 . S
C1167 H1194 0.930 . S
C1168 C1167 1.390 . S
C1168 C1169 1.391 . S
C1168 H1195 0.930 . S
C1169 C1165 1.387 . S
C1169 C1168 1.391 . S
C1170 Tb1160 2.825 . S
C1170 C1164 1.507 . S
C1170 O1183 1.238 . S
C1170 O1184 1.247 . S
O1171 Tb1160 2.347 . S
O1171 C1175 1.259 . S
O1172 Eu1161 2.418 . S
O1172 C1175 1.265 1_556 S
O1173 Eu1161 2.355 1_554 S
O1173 C1182 1.289 . S
O1174 Tb1160 2.366 . S
O1174 C1182 1.265 . S
C1175 O1171 1.259 . S
C1175 O1172 1.265 1_554 S
O1176 Eu1161 2.479 . S
O1176 C1191 1.238 . S
O1177 Eu1161 2.471 . S
O1177 C1191 1.247 . S
O1178 Eu1161 2.347 . S
O1178 C1162 1.259 . S
O1179 Tb1160 2.418 . S
O1179 C1162 1.265 1_554 S
O1180 Tb1160 2.381 . S
O1180 C1163 1.259 1_554 S
O1181 Eu1161 2.366 . S
O1181 C1163 1.265 . S
C1182 O1173 1.289 . S
C1182 O1174 1.265 . S
O1183 Tb1160 2.479 . S
O1183 C1170 1.238 . S
O1184 Tb1160 2.471 . S
O1184 C1170 1.247 . S
C1185 C1188 1.380 . S
C1185 C1189 1.374 . S
C1185 C1191 1.507 . S
C1186 C1187 1.387 . S
C1186 C1190 1.391 . S
C1187 C1186 1.387 . S
C1187 C1188 1.384 . S
C1187 H1196 0.930 . S
C1188 C1185 1.380 . S
C1188 C1187 1.384 . S
C1188 H1197 0.931 . S
C1189 C1185 1.374 . S
C1189 C1190 1.390 . S
C1189 H1198 0.930 . S
C1190 C1186 1.391 . S
C1190 C1189 1.390 . S
C1190 H1199 0.930 . S
C1191 Eu1161 2.825 . S
C1191 O1176 1.238 . S
C1191 O1177 1.247 . S
C1191 C1185 1.507 . S
H1192 C1165 0.930 . S
H1193 C1166 0.931 . S
H1194 C1167 0.930 . S
H1195 C1168 0.930 . S
H1196 C1187 0.930 . S
H1197 C1188 0.931 . S
H1198 C1189 0.930 . S
H1199 C1190 0.930 . S
Tb1200 C1210 2.825 . S
Tb1200 O1211 2.347 . S
Tb1200 O1214 2.366 . S
Tb1200 O1219 2.418 . S
Tb1200 O1220 2.384 . S
Tb1200 O1223 2.479 . S
Tb1200 O1224 2.471 . S
Eu1201 O1212 2.418 . S
Eu1201 O1213 2.384 . S
Eu1201 O1216 2.479 . S
Eu1201 O1217 2.471 . S
Eu1201 O1218 2.347 . S
Eu1201 O1221 2.366 . S
Eu1201 C1231 2.825 . S
C1202 O1218 1.259 . S
C1202 O1219 1.265 . S
C1203 O1220 1.255 . S
C1203 O1221 1.265 . S
C1204 C1206 1.380 . S
C1204 C1207 1.374 . S
C1204 C1210 1.507 . S
C1205 C1206 1.384 . S
C1205 C1209 1.387 . S
C1205 H1232 0.930 . S
C1206 C1204 1.380 . S
C1206 C1205 1.384 . S
C1206 H1233 0.931 . S
C1207 C1204 1.374 . S
C1207 C1208 1.390 . S
C1207 H1234 0.930 . S
C1208 C1207 1.390 . S
C1208 C1209 1.391 . S
C1208 H1235 0.930 . S
C1209 C1205 1.387 . S
C1209 C1208 1.391 . S
C1210 Tb1200 2.825 . S
C1210 C1204 1.507 . S
C1210 O1223 1.238 . S
C1210 O1224 1.247 . S
O1211 Tb1200 2.347 . S
O1211 C1215 1.259 . S
O1212 Eu1201 2.418 . S
O1212 C1215 1.265 . S
O1213 Eu1201 2.384 . S
O1213 C1222 1.255 . S
O1214 Tb1200 2.366 . S
O1214 C1222 1.265 . S
C1215 O1211 1.259 . S
C1215 O1212 1.265 . S
O1216 Eu1201 2.479 . S
O1216 C1231 1.238 . S
O1217 Eu1201 2.471 . S
O1217 C1231 1.247 . S
O1218 Eu1201 2.347 . S
O1218 C1202 1.259 . S
O1219 Tb1200 2.418 . S
O1219 C1202 1.265 . S
O1220 Tb1200 2.384 . S
O1220 C1203 1.255 . S
O1221 Eu1201 2.366 . S
O1221 C1203 1.265 . S
C1222 O1213 1.255 . S
C1222 O1214 1.265 . S
O1223 Tb1200 2.479 . S
O1223 C1210 1.238 . S
O1224 Tb1200 2.471 . S
O1224 C1210 1.247 . S
C1225 C1228 1.380 . S
C1225 C1229 1.374 . S
C1225 C1231 1.507 . S
C1226 C1227 1.387 . S
C1226 C1230 1.391 . S
C1227 C1226 1.387 . S
C1227 C1228 1.384 . S
C1227 H1236 0.930 . S
C1228 C1225 1.380 . S
C1228 C1227 1.384 . S
C1228 H1237 0.931 . S
C1229 C1225 1.374 . S
C1229 C1230 1.390 . S
C1229 H1238 0.930 . S
C1230 C1226 1.391 . S
C1230 C1229 1.390 . S
C1230 H1239 0.930 . S
C1231 Eu1201 2.825 . S
C1231 O1216 1.238 . S
C1231 O1217 1.247 . S
C1231 C1225 1.507 . S
H1232 C1205 0.930 . S
H1233 C1206 0.931 . S
H1234 C1207 0.930 . S
H1235 C1208 0.930 . S
H1236 C1227 0.930 . S
H1237 C1228 0.931 . S
H1238 C1229 0.930 . S
H1239 C1230 0.930 . S
Tb1240 C1250 2.825 . S
Tb1240 O1251 2.347 . S
Tb1240 O1254 2.366 . S
Tb1240 O1259 2.418 . S
Tb1240 O1260 2.384 . S
Tb1240 O1263 2.479 . S
Tb1240 O1264 2.471 . S
Eu1241 O1252 2.418 . S
Eu1241 O1253 2.384 . S
Eu1241 O1256 2.479 . S
Eu1241 O1257 2.471 . S
Eu1241 O1258 2.347 . S
Eu1241 O1261 2.366 . S
Eu1241 C1271 2.825 . S
C1242 O1258 1.259 . S
C1242 O1259 1.265 . S
C1243 O1260 1.255 . S
C1243 O1261 1.265 . S
C1244 C1246 1.380 . S
C1244 C1247 1.374 . S
C1244 C1250 1.507 . S
C1245 C1246 1.384 . S
C1245 C1249 1.387 . S
C1245 H1272 0.930 . S
C1246 C1244 1.380 . S
C1246 C1245 1.384 . S
C1246 H1273 0.931 . S
C1247 C1244 1.374 . S
C1247 C1248 1.390 . S
C1247 H1274 0.930 . S
C1248 C1247 1.390 . S
C1248 C1249 1.391 . S
C1248 H1275 0.930 . S
C1249 C1245 1.387 . S
C1249 C1248 1.391 . S
C1250 Tb1240 2.825 . S
C1250 C1244 1.507 . S
C1250 O1263 1.238 . S
C1250 O1264 1.247 . S
O1251 Tb1240 2.347 . S
O1251 C1255 1.259 . S
O1252 Eu1241 2.418 . S
O1252 C1255 1.265 . S
O1253 Eu1241 2.384 . S
O1253 C1262 1.255 . S
O1254 Tb1240 2.366 . S
O1254 C1262 1.265 . S
C1255 O1251 1.259 . S
C1255 O1252 1.265 . S
O1256 Eu1241 2.479 . S
O1256 C1271 1.238 . S
O1257 Eu1241 2.471 . S
O1257 C1271 1.247 . S
O1258 Eu1241 2.347 . S
O1258 C1242 1.259 . S
O1259 Tb1240 2.418 . S
O1259 C1242 1.265 . S
O1260 Tb1240 2.384 . S
O1260 C1243 1.255 . S
O1261 Eu1241 2.366 . S
O1261 C1243 1.265 . S
C1262 O1253 1.255 . S
C1262 O1254 1.265 . S
O1263 Tb1240 2.479 . S
O1263 C1250 1.238 . S
O1264 Tb1240 2.471 . S
O1264 C1250 1.247 . S
C1265 C1268 1.380 . S
C1265 C1269 1.374 . S
C1265 C1271 1.507 . S
C1266 C1267 1.387 . S
C1266 C1270 1.391 . S
C1267 C1266 1.387 . S
C1267 C1268 1.384 . S
C1267 H1276 0.930 . S
C1268 C1265 1.380 . S
C1268 C1267 1.384 . S
C1268 H1277 0.931 . S
C1269 C1265 1.374 . S
C1269 C1270 1.390 . S
C1269 H1278 0.930 . S
C1270 C1266 1.391 . S
C1270 C1269 1.390 . S
C1270 H1279 0.930 . S
C1271 Eu1241 2.825 . S
C1271 O1256 1.238 . S
C1271 O1257 1.247 . S
C1271 C1265 1.507 . S
H1272 C1245 0.930 . S
H1273 C1246 0.931 . S
H1274 C1247 0.930 . S
H1275 C1248 0.930 . S
H1276 C1267 0.930 . S
H1277 C1268 0.931 . S
H1278 C1269 0.930 . S
H1279 C1270 0.930 . S
Tb1280 C1290 2.825 . S
Tb1280 O1291 2.347 . S
Tb1280 O1294 2.366 . S
Tb1280 O1299 2.418 . S
Tb1280 O1300 2.384 . S
Tb1280 O1303 2.479 . S
Tb1280 O1304 2.471 . S
Eu1281 O1292 2.418 . S
Eu1281 O1293 2.384 . S
Eu1281 O1296 2.479 . S
Eu1281 O1297 2.471 . S
Eu1281 O1298 2.347 . S
Eu1281 O1301 2.366 . S
Eu1281 C1311 2.825 . S
C1282 O1298 1.259 . S
C1282 O1299 1.265 . S
C1283 O1300 1.255 . S
C1283 O1301 1.265 . S
C1284 C1286 1.380 . S
C1284 C1287 1.374 . S
C1284 C1290 1.507 . S
C1285 C1286 1.384 . S
C1285 C1289 1.387 . S
C1285 H1312 0.930 . S
C1286 C1284 1.380 . S
C1286 C1285 1.384 . S
C1286 H1313 0.931 . S
C1287 C1284 1.374 . S
C1287 C1288 1.390 . S
C1287 H1314 0.930 . S
C1288 C1287 1.390 . S
C1288 C1289 1.391 . S
C1288 H1315 0.930 . S
C1289 C1285 1.387 . S
C1289 C1288 1.391 . S
C1290 Tb1280 2.825 . S
C1290 C1284 1.507 . S
C1290 O1303 1.238 . S
C1290 O1304 1.247 . S
O1291 Tb1280 2.347 . S
O1291 C1295 1.259 . S
O1292 Eu1281 2.418 . S
O1292 C1295 1.265 . S
O1293 Eu1281 2.384 . S
O1293 C1302 1.255 . S
O1294 Tb1280 2.366 . S
O1294 C1302 1.265 . S
C1295 O1291 1.259 . S
C1295 O1292 1.265 . S
O1296 Eu1281 2.479 . S
O1296 C1311 1.238 . S
O1297 Eu1281 2.471 . S
O1297 C1311 1.247 . S
O1298 Eu1281 2.347 . S
O1298 C1282 1.259 . S
O1299 Tb1280 2.418 . S
O1299 C1282 1.265 . S
O1300 Tb1280 2.384 . S
O1300 C1283 1.255 . S
O1301 Eu1281 2.366 . S
O1301 C1283 1.265 . S
C1302 O1293 1.255 . S
C1302 O1294 1.265 . S
O1303 Tb1280 2.479 . S
O1303 C1290 1.238 . S
O1304 Tb1280 2.471 . S
O1304 C1290 1.247 . S
C1305 C1308 1.380 . S
C1305 C1309 1.374 . S
C1305 C1311 1.507 . S
C1306 C1307 1.387 . S
C1306 C1310 1.391 . S
C1307 C1306 1.387 . S
C1307 C1308 1.384 . S
C1307 H1316 0.930 . S
C1308 C1305 1.380 . S
C1308 C1307 1.384 . S
C1308 H1317 0.931 . S
C1309 C1305 1.374 . S
C1309 C1310 1.390 . S
C1309 H1318 0.930 . S
C1310 C1306 1.391 . S
C1310 C1309 1.390 . S
C1310 H1319 0.930 . S
C1311 Eu1281 2.825 . S
C1311 O1296 1.238 . S
C1311 O1297 1.247 . S
C1311 C1305 1.507 . S
H1312 C1285 0.930 . S
H1313 C1286 0.931 . S
H1314 C1287 0.930 . S
H1315 C1288 0.930 . S
H1316 C1307 0.930 . S
H1317 C1308 0.931 . S
H1318 C1309 0.930 . S
H1319 C1310 0.930 . S
Tb1320 C1330 2.825 . S
Tb1320 O1331 2.347 . S
Tb1320 O1334 2.366 . S
Tb1320 O1339 2.418 . S
Tb1320 O1340 2.384 . S
Tb1320 O1343 2.479 . S
Tb1320 O1344 2.471 . S
Eu1321 O1332 2.418 . S
Eu1321 O1333 2.384 . S
Eu1321 O1336 2.479 . S
Eu1321 O1337 2.471 . S
Eu1321 O1338 2.347 . S
Eu1321 O1341 2.366 . S
Eu1321 C1351 2.825 . S
C1322 O1338 1.259 . S
C1322 O1339 1.265 . S
C1323 O1340 1.255 . S
C1323 O1341 1.265 . S
C1324 C1326 1.380 . S
C1324 C1327 1.374 . S
C1324 C1330 1.507 . S
C1325 C1326 1.384 . S
C1325 C1329 1.387 . S
C1325 H1352 0.930 . S
C1326 C1324 1.380 . S
C1326 C1325 1.384 . S
C1326 H1353 0.931 . S
C1327 C1324 1.374 . S
C1327 C1328 1.390 . S
C1327 H1354 0.930 . S
C1328 C1327 1.390 . S
C1328 C1329 1.391 . S
C1328 H1355 0.930 . S
C1329 C1325 1.387 . S
C1329 C1328 1.391 . S
C1330 Tb1320 2.825 . S
C1330 C1324 1.507 . S
C1330 O1343 1.238 . S
C1330 O1344 1.247 . S
O1331 Tb1320 2.347 . S
O1331 C1335 1.259 . S
O1332 Eu1321 2.418 . S
O1332 C1335 1.265 . S
O1333 Eu1321 2.384 . S
O1333 C1342 1.255 . S
O1334 Tb1320 2.366 . S
O1334 C1342 1.265 . S
C1335 O1331 1.259 . S
C1335 O1332 1.265 . S
O1336 Eu1321 2.479 . S
O1336 C1351 1.238 . S
O1337 Eu1321 2.471 . S
O1337 C1351 1.247 . S
O1338 Eu1321 2.347 . S
O1338 C1322 1.259 . S
O1339 Tb1320 2.418 . S
O1339 C1322 1.265 . S
O1340 Tb1320 2.384 . S
O1340 C1323 1.255 . S
O1341 Eu1321 2.366 . S
O1341 C1323 1.265 . S
C1342 O1333 1.255 . S
C1342 O1334 1.265 . S
O1343 Tb1320 2.479 . S
O1343 C1330 1.238 . S
O1344 Tb1320 2.471 . S
O1344 C1330 1.247 . S
C1345 C1348 1.380 . S
C1345 C1349 1.374 . S
C1345 C1351 1.507 . S
C1346 C1347 1.387 . S
C1346 C1350 1.391 . S
C1347 C1346 1.387 . S
C1347 C1348 1.384 . S
C1347 H1356 0.930 . S
C1348 C1345 1.380 . S
C1348 C1347 1.384 . S
C1348 H1357 0.931 . S
C1349 C1345 1.374 . S
C1349 C1350 1.390 . S
C1349 H1358 0.930 . S
C1350 C1346 1.391 . S
C1350 C1349 1.390 . S
C1350 H1359 0.930 . S
C1351 Eu1321 2.825 . S
C1351 O1336 1.238 . S
C1351 O1337 1.247 . S
C1351 C1345 1.507 . S
H1352 C1325 0.930 . S
H1353 C1326 0.931 . S
H1354 C1327 0.930 . S
H1355 C1328 0.930 . S
H1356 C1347 0.930 . S
H1357 C1348 0.931 . S
H1358 C1349 0.930 . S
H1359 C1350 0.930 . S
Tb1360 C1370 2.825 . S
Tb1360 O1371 2.347 . S
Tb1360 O1374 2.366 . S
Tb1360 O1379 2.418 . S
Tb1360 O1380 2.384 . S
Tb1360 O1383 2.479 . S
Tb1360 O1384 2.471 . S
Eu1361 O1372 2.418 . S
Eu1361 O1373 2.384 . S
Eu1361 O1376 2.479 . S
Eu1361 O1377 2.471 . S
Eu1361 O1378 2.347 . S
Eu1361 O1381 2.366 . S
Eu1361 C1391 2.825 . S
C1362 O1378 1.259 . S
C1362 O1379 1.265 . S
C1363 O1380 1.255 . S
C1363 O1381 1.265 . S
C1364 C1366 1.380 . S
C1364 C1367 1.374 . S
C1364 C1370 1.507 . S
C1365 C1366 1.384 . S
C1365 C1369 1.387 . S
C1365 H1392 0.930 . S
C1366 C1364 1.380 . S
C1366 C1365 1.384 . S
C1366 H1393 0.931 . S
C1367 C1364 1.374 . S
C1367 C1368 1.390 . S
C1367 H1394 0.930 . S
C1368 C1367 1.390 . S
C1368 C1369 1.391 . S
C1368 H1395 0.930 . S
C1369 C1365 1.387 . S
C1369 C1368 1.391 . S
C1370 Tb1360 2.825 . S
C1370 C1364 1.507 . S
C1370 O1383 1.238 . S
C1370 O1384 1.247 . S
O1371 Tb1360 2.347 . S
O1371 C1375 1.259 . S
O1372 Eu1361 2.418 . S
O1372 C1375 1.265 . S
O1373 Eu1361 2.384 . S
O1373 C1382 1.255 . S
O1374 Tb1360 2.366 . S
O1374 C1382 1.265 . S
C1375 O1371 1.259 . S
C1375 O1372 1.265 . S
O1376 Eu1361 2.479 . S
O1376 C1391 1.238 . S
O1377 Eu1361 2.471 . S
O1377 C1391 1.247 . S
O1378 Eu1361 2.347 . S
O1378 C1362 1.259 . S
O1379 Tb1360 2.418 . S
O1379 C1362 1.265 . S
O1380 Tb1360 2.384 . S
O1380 C1363 1.255 . S
O1381 Eu1361 2.366 . S
O1381 C1363 1.265 . S
C1382 O1373 1.255 . S
C1382 O1374 1.265 . S
O1383 Tb1360 2.479 . S
O1383 C1370 1.238 . S
O1384 Tb1360 2.471 . S
O1384 C1370 1.247 . S
C1385 C1388 1.380 . S
C1385 C1389 1.374 . S
C1385 C1391 1.507 . S
C1386 C1387 1.387 . S
C1386 C1390 1.391 . S
C1387 C1386 1.387 . S
C1387 C1388 1.384 . S
C1387 H1396 0.930 . S
C1388 C1385 1.380 . S
C1388 C1387 1.384 . S
C1388 H1397 0.931 . S
C1389 C1385 1.374 . S
C1389 C1390 1.390 . S
C1389 H1398 0.930 . S
C1390 C1386 1.391 . S
C1390 C1389 1.390 . S
C1390 H1399 0.930 . S
C1391 Eu1361 2.825 . S
C1391 O1376 1.238 . S
C1391 O1377 1.247 . S
C1391 C1385 1.507 . S
H1392 C1365 0.930 . S
H1393 C1366 0.931 . S
H1394 C1367 0.930 . S
H1395 C1368 0.930 . S
H1396 C1387 0.930 . S
H1397 C1388 0.931 . S
H1398 C1389 0.930 . S
H1399 C1390 0.930 . S
Tb1400 C1410 2.825 . S
Tb1400 O1411 2.347 . S
Tb1400 O1414 2.366 . S
Tb1400 O1419 2.418 . S
Tb1400 O1420 2.384 . S
Tb1400 O1423 2.479 . S
Tb1400 O1424 2.471 . S
Eu1401 O1412 2.418 . S
Eu1401 O1413 2.384 . S
Eu1401 O1416 2.479 . S
Eu1401 O1417 2.471 . S
Eu1401 O1418 2.347 . S
Eu1401 O1421 2.366 . S
Eu1401 C1431 2.825 . S
C1402 O1418 1.259 . S
C1402 O1419 1.265 . S
C1403 O1420 1.255 . S
C1403 O1421 1.265 . S
C1404 C1406 1.380 . S
C1404 C1407 1.374 . S
C1404 C1410 1.507 . S
C1405 C1406 1.384 . S
C1405 C1409 1.387 . S
C1405 H1432 0.930 . S
C1406 C1404 1.380 . S
C1406 C1405 1.384 . S
C1406 H1433 0.931 . S
C1407 C1404 1.374 . S
C1407 C1408 1.390 . S
C1407 H1434 0.930 . S
C1408 C1407 1.390 . S
C1408 C1409 1.391 . S
C1408 H1435 0.930 . S
C1409 C1405 1.387 . S
C1409 C1408 1.391 . S
C1410 Tb1400 2.825 . S
C1410 C1404 1.507 . S
C1410 O1423 1.238 . S
C1410 O1424 1.247 . S
O1411 Tb1400 2.347 . S
O1411 C1415 1.259 . S
O1412 Eu1401 2.418 . S
O1412 C1415 1.265 . S
O1413 Eu1401 2.384 . S
O1413 C1422 1.255 . S
O1414 Tb1400 2.366 . S
O1414 C1422 1.265 . S
C1415 O1411 1.259 . S
C1415 O1412 1.265 . S
O1416 Eu1401 2.479 . S
O1416 C1431 1.238 . S
O1417 Eu1401 2.471 . S
O1417 C1431 1.247 . S
O1418 Eu1401 2.347 . S
O1418 C1402 1.259 . S
O1419 Tb1400 2.418 . S
O1419 C1402 1.265 . S
O1420 Tb1400 2.384 . S
O1420 C1403 1.255 . S
O1421 Eu1401 2.366 . S
O1421 C1403 1.265 . S
C1422 O1413 1.255 . S
C1422 O1414 1.265 . S
O1423 Tb1400 2.479 . S
O1423 C1410 1.238 . S
O1424 Tb1400 2.471 . S
O1424 C1410 1.247 . S
C1425 C1428 1.380 . S
C1425 C1429 1.374 . S
C1425 C1431 1.507 . S
C1426 C1427 1.387 . S
C1426 C1430 1.391 . S
C1427 C1426 1.387 . S
C1427 C1428 1.384 . S
C1427 H1436 0.930 . S
C1428 C1425 1.380 . S
C1428 C1427 1.384 . S
C1428 H1437 0.931 . S
C1429 C1425 1.374 . S
C1429 C1430 1.390 . S
C1429 H1438 0.930 . S
C1430 C1426 1.391 . S
C1430 C1429 1.390 . S
C1430 H1439 0.930 . S
C1431 Eu1401 2.825 . S
C1431 O1416 1.238 . S
C1431 O1417 1.247 . S
C1431 C1425 1.507 . S
H1432 C1405 0.930 . S
H1433 C1406 0.931 . S
H1434 C1407 0.930 . S
H1435 C1408 0.930 . S
H1436 C1427 0.930 . S
H1437 C1428 0.931 . S
H1438 C1429 0.930 . S
H1439 C1430 0.930 . S
C1440 C1441 1.349 . S
C1440 C1442 1.327 . S
C1440 H1465 0.950 . S
C1441 C1440 1.349 . S
C1441 C1457 1.349 . S
C1442 C1440 1.327 . S
C1442 C1461 1.429 . S
C1442 H1466 0.950 . S
C1443 C1460 1.574 . S
C1443 C1462 1.368 . S
C1443 H1467 0.949 . S
H1444 C1448 0.949 . S
C1445 C1446 1.349 . S
C1445 C1447 1.327 . S
C1445 H1468 0.950 . S
C1446 C1445 1.349 . S
C1446 C1458 1.349 . S
C1447 C1445 1.327 . S
C1447 C1463 1.429 . S
C1447 H1469 0.950 . S
C1448 H1444 0.949 . S
C1448 C1456 1.574 . S
C1448 C1464 1.368 . S
H1449 C1457 0.950 . S
H1450 C1455 0.950 . S
H1451 C1456 0.949 . S
H1452 C1458 0.950 . S
H1453 C1459 0.950 . S
H1454 C1460 0.949 . S
C1455 H1450 0.950 . S
C1455 C1457 1.327 . S
C1455 C1461 1.429 . S
C1456 C1448 1.574 . S
C1456 H1451 0.949 . S
C1456 C1462 1.368 . S
C1457 C1441 1.349 . S
C1457 H1449 0.950 . S
C1457 C1455 1.327 . S
C1458 C1446 1.349 . S
C1458 H1452 0.950 . S
C1458 C1459 1.327 . S
C1459 H1453 0.950 . S
C1459 C1458 1.327 . S
C1459 C1463 1.429 . S
C1460 C1443 1.574 . S
C1460 H1454 0.949 . S
C1460 C1464 1.368 . S
C1461 C1442 1.429 . S
C1461 C1455 1.429 . S
C1461 C1462 1.523 . S
C1462 C1443 1.368 . S
C1462 C1456 1.368 . S
C1462 C1461 1.523 . S
C1463 C1447 1.429 . S
C1463 C1459 1.429 . S
C1463 C1464 1.523 . S
C1464 C1448 1.368 . S
C1464 C1460 1.368 . S
C1464 C1463 1.523 . S
H1465 C1440 0.950 . S
H1466 C1442 0.950 . S
H1467 C1443 0.949 . S
H1468 C1445 0.950 . S
H1469 C1447 0.950 . S
C1470 C1471 1.349 . S
C1470 C1472 1.327 . S
C1470 H1495 0.950 . S
C1471 C1470 1.349 . S
C1471 C1487 1.349 . S
C1472 C1470 1.327 . S
C1472 C1491 1.429 . S
C1472 H1496 0.950 . S
C1473 C1490 1.574 . S
C1473 C1492 1.368 . S
C1473 H1497 0.949 . S
H1474 C1478 0.949 . S
C1475 C1476 1.349 . S
C1475 C1477 1.327 . S
C1475 H1498 0.950 . S
C1476 C1475 1.349 . S
C1476 C1488 1.349 . S
C1477 C1475 1.327 . S
C1477 C1493 1.429 . S
C1477 H1499 0.950 . S
C1478 H1474 0.949 . S
C1478 C1486 1.574 . S
C1478 C1494 1.368 . S
H1479 C1487 0.950 . S
H1480 C1485 0.950 . S
H1481 C1486 0.949 . S
H1482 C1488 0.950 . S
H1483 C1489 0.950 . S
H1484 C1490 0.949 . S
C1485 H1480 0.950 . S
C1485 C1487 1.327 . S
C1485 C1491 1.429 . S
C1486 C1478 1.574 . S
C1486 H1481 0.949 . S
C1486 C1492 1.368 . S
C1487 C1471 1.349 . S
C1487 H1479 0.950 . S
C1487 C1485 1.327 . S
C1488 C1476 1.349 . S
C1488 H1482 0.950 . S
C1488 C1489 1.327 . S
C1489 H1483 0.950 . S
C1489 C1488 1.327 . S
C1489 C1493 1.429 . S
C1490 C1473 1.574 . S
C1490 H1484 0.949 . S
C1490 C1494 1.368 . S
C1491 C1472 1.429 . S
C1491 C1485 1.429 . S
C1491 C1492 1.523 . S
C1492 C1473 1.368 . S
C1492 C1486 1.368 . S
C1492 C1491 1.523 . S
C1493 C1477 1.429 . S
C1493 C1489 1.429 . S
C1493 C1494 1.523 . S
C1494 C1478 1.368 . S
C1494 C1490 1.368 . S
C1494 C1493 1.523 . S
H1495 C1470 0.950 . S
H1496 C1472 0.950 . S
H1497 C1473 0.949 . S
H1498 C1475 0.950 . S
H1499 C1477 0.950 . S
C1500 C1501 1.349 . S
C1500 C1502 1.327 . S
C1500 H1525 0.950 . S
C1501 C1500 1.349 . S
C1501 C1517 1.349 . S
C1502 C1500 1.327 . S
C1502 C1521 1.429 . S
C1502 H1526 0.950 . S
C1503 C1520 1.574 . S
C1503 C1522 1.368 . S
C1503 H1527 0.949 . S
H1504 C1508 0.949 . S
C1505 C1506 1.349 . S
C1505 C1507 1.327 . S
C1505 H1528 0.950 . S
C1506 C1505 1.349 . S
C1506 C1518 1.349 . S
C1507 C1505 1.327 . S
C1507 C1523 1.429 . S
C1507 H1529 0.950 . S
C1508 H1504 0.949 . S
C1508 C1516 1.574 . S
C1508 C1524 1.368 . S
H1509 C1517 0.950 . S
H1510 C1515 0.950 . S
H1511 C1516 0.949 . S
H1512 C1518 0.950 . S
H1513 C1519 0.950 . S
H1514 C1520 0.949 . S
C1515 H1510 0.950 . S
C1515 C1517 1.327 . S
C1515 C1521 1.429 . S
C1516 C1508 1.574 . S
C1516 H1511 0.949 . S
C1516 C1522 1.368 . S
C1517 C1501 1.349 . S
C1517 H1509 0.950 . S
C1517 C1515 1.327 . S
C1518 C1506 1.349 . S
C1518 H1512 0.950 . S
C1518 C1519 1.327 . S
C1519 H1513 0.950 . S
C1519 C1518 1.327 . S
C1519 C1523 1.429 . S
C1520 C1503 1.574 . S
C1520 H1514 0.949 . S
C1520 C1524 1.368 . S
C1521 C1502 1.429 . S
C1521 C1515 1.429 . S
C1521 C1522 1.523 . S
C1522 C1503 1.368 . S
C1522 C1516 1.368 . S
C1522 C1521 1.523 . S
C1523 C1507 1.429 . S
C1523 C1519 1.429 . S
C1523 C1524 1.523 . S
C1524 C1508 1.368 . S
C1524 C1520 1.368 . S
C1524 C1523 1.523 . S
H1525 C1500 0.950 . S
H1526 C1502 0.950 . S
H1527 C1503 0.949 . S
H1528 C1505 0.950 . S
H1529 C1507 0.950 . S
C1530 C1531 1.349 . S
C1530 C1532 1.327 . S
C1530 H1555 0.950 . S
C1531 C1530 1.349 . S
C1531 C1547 1.349 . S
C1532 C1530 1.327 . S
C1532 C1551 1.429 . S
C1532 H1556 0.950 . S
C1533 C1550 1.574 . S
C1533 C1552 1.368 . S
C1533 H1557 0.949 . S
H1534 C1538 0.949 . S
C1535 C1536 1.349 . S
C1535 C1537 1.327 . S
C1535 H1558 0.950 . S
C1536 C1535 1.349 . S
C1536 C1548 1.349 . S
C1537 C1535 1.327 . S
C1537 C1553 1.429 . S
C1537 H1559 0.950 . S
C1538 H1534 0.949 . S
C1538 C1546 1.574 . S
C1538 C1554 1.368 . S
H1539 C1547 0.950 . S
H1540 C1545 0.950 . S
H1541 C1546 0.949 . S
H1542 C1548 0.950 1_554 S
H1543 C1549 0.950 . S
H1544 C1550 0.949 . S
C1545 H1540 0.950 . S
C1545 C1547 1.327 . S
C1545 C1551 1.429 . S
C1546 C1538 1.574 . S
C1546 H1541 0.949 . S
C1546 C1552 1.368 . S
C1547 C1531 1.349 . S
C1547 H1539 0.950 . S
C1547 C1545 1.327 . S
C1548 C1536 1.349 . S
C1548 H1542 0.950 1_556 S
C1548 C1549 1.327 . S
C1549 H1543 0.950 . S
C1549 C1548 1.327 . S
C1549 C1553 1.429 . S
C1550 C1533 1.574 . S
C1550 H1544 0.949 . S
C1550 C1554 1.368 . S
C1551 C1532 1.429 . S
C1551 C1545 1.429 . S
C1551 C1552 1.523 . S
C1552 C1533 1.368 . S
C1552 C1546 1.368 . S
C1552 C1551 1.523 . S
C1553 C1537 1.429 . S
C1553 C1549 1.429 . S
C1553 C1554 1.523 . S
C1554 C1538 1.368 . S
C1554 C1550 1.368 . S
C1554 C1553 1.523 . S
H1555 C1530 0.950 . S
H1556 C1532 0.950 . S
H1557 C1533 0.949 . S
H1558 C1535 0.950 . S
H1559 C1537 0.950 . S
C1560 C1561 1.349 . S
C1560 C1562 1.327 . S
C1560 H1585 0.950 . S
C1561 C1560 1.349 . S
C1561 C1577 1.349 . S
C1562 C1560 1.327 . S
C1562 C1581 1.429 . S
C1562 H1586 0.950 . S
C1563 C1580 1.574 . S
C1563 C1582 1.368 . S
C1563 H1587 0.949 . S
H1564 C1568 0.949 . S
C1565 C1566 1.349 . S
C1565 C1567 1.327 . S
C1565 H1588 0.950 . S
C1566 C1565 1.349 . S
C1566 C1578 1.349 . S
C1567 C1565 1.327 . S
C1567 C1583 1.429 . S
C1567 H1589 0.950 . S
C1568 H1564 0.949 . S
C1568 C1576 1.574 . S
C1568 C1584 1.368 . S
H1569 C1577 0.950 . S
H1570 C1575 0.950 . S
H1571 C1576 0.949 . S
H1572 C1578 0.950 . S
H1573 C1579 0.950 . S
H1574 C1580 0.949 . S
C1575 H1570 0.950 . S
C1575 C1577 1.327 . S
C1575 C1581 1.429 . S
C1576 C1568 1.574 . S
C1576 H1571 0.949 . S
C1576 C1582 1.368 . S
C1577 C1561 1.349 . S
C1577 H1569 0.950 . S
C1577 C1575 1.327 . S
C1578 C1566 1.349 . S
C1578 H1572 0.950 . S
C1578 C1579 1.327 . S
C1579 H1573 0.950 . S
C1579 C1578 1.327 . S
C1579 C1583 1.429 . S
C1580 C1563 1.574 . S
C1580 H1574 0.949 . S
C1580 C1584 1.368 . S
C1581 C1562 1.429 . S
C1581 C1575 1.429 . S
C1581 C1582 1.523 . S
C1582 C1563 1.368 . S
C1582 C1576 1.368 . S
C1582 C1581 1.523 . S
C1583 C1567 1.429 . S
C1583 C1579 1.429 . S
C1583 C1584 1.523 . S
C1584 C1568 1.368 . S
C1584 C1580 1.368 . S
C1584 C1583 1.523 . S
H1585 C1560 0.950 . S
H1586 C1562 0.950 . S
H1587 C1563 0.949 . S
H1588 C1565 0.950 . S
H1589 C1567 0.950 . S
C1590 C1591 1.349 . S
C1590 C1592 1.327 . S
C1590 H1615 0.950 . S
C1591 C1590 1.349 . S
C1591 C1607 1.349 . S
C1592 C1590 1.327 . S
C1592 C1611 1.429 . S
C1592 H1616 0.950 . S
C1593 C1610 1.574 . S
C1593 C1612 1.368 . S
C1593 H1617 0.949 . S
H1594 C1598 0.949 . S
C1595 C1596 1.349 . S
C1595 C1597 1.327 . S
C1595 H1618 0.950 . S
C1596 C1595 1.349 . S
C1596 C1608 1.349 . S
C1597 C1595 1.327 . S
C1597 C1613 1.429 . S
C1597 H1619 0.950 . S
C1598 H1594 0.949 . S
C1598 C1606 1.574 . S
C1598 C1614 1.368 . S
H1599 C1607 0.950 . S
H1600 C1605 0.950 . S
H1601 C1606 0.949 . S
H1602 C1608 0.950 1_554 S
H1603 C1609 0.948 1_554 S
H1604 C1610 0.949 . S
C1605 H1600 0.950 . S
C1605 C1607 1.327 . S
C1605 C1611 1.429 . S
C1606 C1598 1.574 . S
C1606 H1601 0.949 . S
C1606 C1612 1.368 . S
C1607 C1591 1.349 . S
C1607 H1599 0.950 . S
C1607 C1605 1.327 . S
C1608 C1596 1.349 . S
C1608 H1602 0.950 1_556 S
C1608 C1609 1.327 . S
C1609 H1603 0.948 1_556 S
C1609 C1608 1.327 . S
C1609 C1613 1.429 . S
C1610 C1593 1.574 . S
C1610 H1604 0.949 . S
C1610 C1614 1.368 . S
C1611 C1592 1.429 . S
C1611 C1605 1.429 . S
C1611 C1612 1.523 . S
C1612 C1593 1.368 . S
C1612 C1606 1.368 . S
C1612 C1611 1.523 . S
C1613 C1597 1.429 . S
C1613 C1609 1.429 . S
C1613 C1614 1.523 . S
C1614 C1598 1.368 . S
C1614 C1610 1.368 . S
C1614 C1613 1.523 . S
H1615 C1590 0.950 . S
H1616 C1592 0.950 . S
H1617 C1593 0.949 . S
H1618 C1595 0.950 . S
H1619 C1597 0.950 . S
C1620 C1621 1.349 . S
C1620 C1622 1.327 . S
C1620 H1645 0.950 . S
C1621 C1620 1.349 . S
C1621 C1637 1.349 . S
C1622 C1620 1.327 . S
C1622 C1641 1.429 . S
C1622 H1646 0.950 . S
C1623 C1640 1.574 . S
C1623 C1642 1.368 . S
C1623 H1647 0.949 . S
H1624 C1628 0.949 . S
C1625 C1626 1.349 . S
C1625 C1627 1.327 . S
C1625 H1648 0.897 1_556 S
C1626 C1625 1.349 . S
C1626 C1638 1.349 . S
C1627 C1625 1.327 . S
C1627 C1643 1.429 . S
C1627 H1649 0.950 . S
C1628 H1624 0.949 . S
C1628 C1636 1.574 . S
C1628 C1644 1.368 . S
H1629 C1637 0.950 . S
H1630 C1635 0.950 . S
H1631 C1636 0.949 . S
H1632 C1638 0.950 . S
H1633 C1639 0.950 . S
H1634 C1640 0.949 . S
C1635 H1630 0.950 . S
C1635 C1637 1.327 . S
C1635 C1641 1.429 . S
C1636 C1628 1.574 . S
C1636 H1631 0.949 . S
C1636 C1642 1.368 . S
C1637 C1621 1.349 . S
C1637 H1629 0.950 . S
C1637 C1635 1.327 . S
C1638 C1626 1.349 . S
C1638 H1632 0.950 . S
C1638 C1639 1.327 . S
C1639 H1633 0.950 . S
C1639 C1638 1.327 . S
C1639 C1643 1.429 . S
C1640 C1623 1.574 . S
C1640 H1634 0.949 . S
C1640 C1644 1.368 . S
C1641 C1622 1.429 . S
C1641 C1635 1.429 . S
C1641 C1642 1.523 . S
C1642 C1623 1.368 . S
C1642 C1636 1.368 . S
C1642 C1641 1.523 . S
C1643 C1627 1.429 . S
C1643 C1639 1.429 . S
C1643 C1644 1.523 . S
C1644 C1628 1.368 . S
C1644 C1640 1.368 . S
C1644 C1643 1.523 . S
H1645 C1620 0.950 . S
H1646 C1622 0.950 . S
H1647 C1623 0.949 . S
H1648 C1625 0.897 1_554 S
H1649 C1627 0.950 . S
C1650 C1651 1.349 . S
C1650 C1652 1.327 . S
C1650 H1675 0.950 . S
C1651 C1650 1.349 . S
C1651 C1667 1.349 . S
C1652 C1650 1.327 . S
C1652 C1671 1.429 . S
C1652 H1676 0.950 . S
C1653 C1670 1.574 . S
C1653 C1672 1.368 . S
C1653 H1677 0.949 . S
H1654 C1658 0.949 . S
C1655 C1656 1.349 . S
C1655 C1657 1.327 . S
C1655 H1678 0.950 . S
C1656 C1655 1.349 . S
C1656 C1668 1.349 . S
C1657 C1655 1.327 . S
C1657 C1673 1.429 . S
C1657 H1679 0.950 . S
C1658 H1654 0.949 . S
C1658 C1666 1.574 . S
C1658 C1674 1.368 . S
H1659 C1667 0.950 . S
H1660 C1665 0.950 . S
H1661 C1666 0.949 . S
H1662 C1668 0.950 . S
H1663 C1669 0.950 . S
H1664 C1670 0.949 . S
C1665 H1660 0.950 . S
C1665 C1667 1.327 . S
C1665 C1671 1.429 . S
C1666 C1658 1.574 . S
C1666 H1661 0.949 . S
C1666 C1672 1.368 . S
C1667 C1651 1.349 . S
C1667 H1659 0.950 . S
C1667 C1665 1.327 . S
C1668 C1656 1.349 . S
C1668 H1662 0.950 . S
C1668 C1669 1.327 . S
C1669 H1663 0.950 . S
C1669 C1668 1.327 . S
C1669 C1673 1.429 . S
C1670 C1653 1.574 . S
C1670 H1664 0.949 . S
C1670 C1674 1.368 . S
C1671 C1652 1.429 . S
C1671 C1665 1.429 . S
C1671 C1672 1.523 . S
C1672 C1653 1.368 . S
C1672 C1666 1.368 . S
C1672 C1671 1.523 . S
C1673 C1657 1.429 . S
C1673 C1669 1.429 . S
C1673 C1674 1.523 . S
C1674 C1658 1.368 . S
C1674 C1670 1.368 . S
C1674 C1673 1.523 . S
H1675 C1650 0.950 . S
H1676 C1652 0.950 . S
H1677 C1653 0.949 . S
H1678 C1655 0.950 . S
H1679 C1657 0.950 . S
C1680 C1681 1.349 . S
C1680 C1682 1.327 . S
C1680 H1705 0.950 . S
C1681 C1680 1.349 . S
C1681 C1697 1.349 . S
C1682 C1680 1.327 . S
C1682 C1701 1.429 . S
C1682 H1706 0.950 . S
C1683 C1700 1.574 . S
C1683 C1702 1.368 . S
C1683 H1707 0.949 . S
H1684 C1688 0.949 . S
C1685 C1686 1.349 . S
C1685 C1687 1.327 . S
C1685 H1708 0.950 1_556 S
C1686 C1685 1.349 . S
C1686 C1698 1.349 . S
C1687 C1685 1.327 . S
C1687 C1703 1.429 . S
C1687 H1709 0.959 . S
C1688 H1684 0.949 . S
C1688 C1696 1.574 . S
C1688 C1704 1.368 . S
H1689 C1697 0.950 . S
H1690 C1695 0.950 . S
H1691 C1696 0.949 . S
H1692 C1698 0.950 . S
H1693 C1699 0.950 . S
H1694 C1700 0.949 . S
C1695 H1690 0.950 . S
C1695 C1697 1.327 . S
C1695 C1701 1.429 . S
C1696 C1688 1.574 . S
C1696 H1691 0.949 . S
C1696 C1702 1.368 . S
C1697 C1681 1.349 . S
C1697 H1689 0.950 . S
C1697 C1695 1.327 . S
C1698 C1686 1.349 . S
C1698 H1692 0.950 . S
C1698 C1699 1.327 . S
C1699 H1693 0.950 . S
C1699 C1698 1.327 . S
C1699 C1703 1.429 . S
C1700 C1683 1.574 . S
C1700 H1694 0.949 . S
C1700 C1704 1.368 . S
C1701 C1682 1.429 . S
C1701 C1695 1.429 . S
C1701 C1702 1.523 . S
C1702 C1683 1.368 . S
C1702 C1696 1.368 . S
C1702 C1701 1.523 . S
C1703 C1687 1.429 . S
C1703 C1699 1.429 . S
C1703 C1704 1.523 . S
C1704 C1688 1.368 . S
C1704 C1700 1.368 . S
C1704 C1703 1.523 . S
H1705 C1680 0.950 . S
H1706 C1682 0.950 . S
H1707 C1683 0.949 . S
H1708 C1685 0.950 1_554 S
H1709 C1687 0.959 . S
C1710 C1711 1.349 . S
C1710 C1712 1.327 . S
C1710 H1735 0.950 . S
C1711 C1710 1.349 . S
C1711 C1727 1.349 . S
C1712 C1710 1.327 . S
C1712 C1731 1.429 . S
C1712 H1736 0.950 . S
C1713 C1730 1.574 . S
C1713 C1732 1.368 . S
C1713 H1737 0.949 . S
H1714 C1718 0.949 . S
C1715 C1716 1.349 . S
C1715 C1717 1.327 . S
C1715 H1738 0.955 . S
C1716 C1715 1.349 . S
C1716 C1728 1.349 . S
C1717 C1715 1.327 . S
C1717 C1733 1.429 . S
C1717 H1739 0.950 . S
C1718 H1714 0.949 . S
C1718 C1726 1.574 . S
C1718 C1734 1.368 . S
H1719 C1727 0.950 . S
H1720 C1725 0.950 . S
H1721 C1726 0.949 . S
H1722 C1728 0.950 . S
H1723 C1729 0.950 . S
H1724 C1730 0.949 . S
C1725 H1720 0.950 . S
C1725 C1727 1.327 . S
C1725 C1731 1.429 . S
C1726 C1718 1.574 . S
C1726 H1721 0.949 . S
C1726 C1732 1.368 . S
C1727 C1711 1.349 . S
C1727 H1719 0.950 . S
C1727 C1725 1.327 . S
C1728 C1716 1.349 . S
C1728 H1722 0.950 . S
C1728 C1729 1.327 . S
C1729 H1723 0.950 . S
C1729 C1728 1.327 . S
C1729 C1733 1.429 . S
C1730 C1713 1.574 . S
C1730 H1724 0.949 . S
C1730 C1734 1.368 . S
C1731 C1712 1.429 . S
C1731 C1725 1.429 . S
C1731 C1732 1.523 . S
C1732 C1713 1.368 . S
C1732 C1726 1.368 . S
C1732 C1731 1.523 . S
C1733 C1717 1.429 . S
C1733 C1729 1.429 . S
C1733 C1734 1.523 . S
C1734 C1718 1.368 . S
C1734 C1730 1.368 . S
C1734 C1733 1.523 . S
H1735 C1710 0.950 . S
H1736 C1712 0.950 . S
H1737 C1713 0.949 . S
H1738 C1715 0.955 . S
H1739 C1717 0.950 . S
C1740 C1741 1.349 . S
C1740 C1742 1.327 . S
C1740 H1765 0.950 . S
C1741 C1740 1.349 . S
C1741 C1757 1.349 . S
C1742 C1740 1.327 . S
C1742 C1761 1.429 . S
C1742 H1766 0.950 . S
C1743 C1760 1.574 . S
C1743 C1762 1.368 . S
C1743 H1767 0.949 . S
H1744 C1748 0.949 . S
C1745 C1746 1.349 . S
C1745 C1747 1.327 . S
C1745 H1768 0.950 . S
C1746 C1745 1.349 . S
C1746 C1758 1.349 . S
C1747 C1745 1.327 . S
C1747 C1763 1.429 . S
C1747 H1769 0.950 . S
C1748 H1744 0.949 . S
C1748 C1756 1.574 . S
C1748 C1764 1.368 . S
H1749 C1757 0.950 . S
H1750 C1755 0.950 . S
H1751 C1756 0.949 . S
H1752 C1758 0.950 . S
H1753 C1759 0.950 . S
H1754 C1760 0.949 . S
C1755 H1750 0.950 . S
C1755 C1757 1.327 . S
C1755 C1761 1.429 . S
C1756 C1748 1.574 . S
C1756 H1751 0.949 . S
C1756 C1762 1.368 . S
C1757 C1741 1.349 . S
C1757 H1749 0.950 . S
C1757 C1755 1.327 . S
C1758 C1746 1.349 . S
C1758 H1752 0.950 . S
C1758 C1759 1.327 . S
C1759 H1753 0.950 . S
C1759 C1758 1.327 . S
C1759 C1763 1.429 . S
C1760 C1743 1.574 . S
C1760 H1754 0.949 . S
C1760 C1764 1.368 . S
C1761 C1742 1.429 . S
C1761 C1755 1.429 . S
C1761 C1762 1.523 . S
C1762 C1743 1.368 . S
C1762 C1756 1.368 . S
C1762 C1761 1.523 . S
C1763 C1747 1.429 . S
C1763 C1759 1.429 . S
C1763 C1764 1.523 . S
C1764 C1748 1.368 . S
C1764 C1760 1.368 . S
C1764 C1763 1.523 . S
H1765 C1740 0.950 . S
H1766 C1742 0.950 . S
H1767 C1743 0.949 . S
H1768 C1745 0.950 . S
H1769 C1747 0.950 . S
C1770 C1771 1.349 . S
C1770 C1772 1.327 . S
C1770 H1795 0.950 . S
C1771 C1770 1.349 . S
C1771 C1787 1.349 . S
C1772 C1770 1.327 . S
C1772 C1791 1.429 . S
C1772 H1796 0.950 . S
C1773 C1790 1.574 . S
C1773 C1792 1.368 . S
C1773 H1797 0.949 . S
H1774 C1778 0.949 . S
C1775 C1776 1.349 . S
C1775 C1777 1.327 . S
C1775 H1798 0.950 . S
C1776 C1775 1.349 . S
C1776 C1788 1.349 . S
C1777 C1775 1.327 . S
C1777 C1793 1.429 . S
C1777 H1799 0.950 . S
C1778 H1774 0.949 . S
C1778 C1786 1.574 . S
C1778 C1794 1.368 . S
H1779 C1787 0.950 . S
H1780 C1785 0.950 . S
H1781 C1786 0.949 . S
H1782 C1788 0.950 1_556 S
H1783 C1789 0.930 1_556 S
H1784 C1790 0.949 . S
C1785 H1780 0.950 . S
C1785 C1787 1.327 . S
C1785 C1791 1.429 . S
C1786 C1778 1.574 . S
C1786 H1781 0.949 . S
C1786 C1792 1.368 . S
C1787 C1771 1.349 . S
C1787 H1779 0.950 . S
C1787 C1785 1.327 . S
C1788 C1776 1.349 . S
C1788 H1782 0.950 1_554 S
C1788 C1789 1.327 . S
C1789 H1783 0.930 1_554 S
C1789 C1788 1.327 . S
C1789 C1793 1.429 . S
C1790 C1773 1.574 . S
C1790 H1784 0.949 . S
C1790 C1794 1.368 . S
C1791 C1772 1.429 . S
C1791 C1785 1.429 . S
C1791 C1792 1.523 . S
C1792 C1773 1.368 . S
C1792 C1786 1.368 . S
C1792 C1791 1.523 . S
C1793 C1777 1.429 . S
C1793 C1789 1.429 . S
C1793 C1794 1.523 . S
C1794 C1778 1.368 . S
C1794 C1790 1.368 . S
C1794 C1793 1.523 . S
H1795 C1770 0.950 . S
H1796 C1772 0.950 . S
H1797 C1773 0.949 . S
H1798 C1775 0.950 . S
H1799 C1777 0.950 . S
C1800 C1801 1.349 . S
C1800 C1802 1.327 . S
C1800 H1825 0.950 . S
C1801 C1800 1.349 . S
C1801 C1817 1.349 . S
C1802 C1800 1.327 . S
C1802 C1821 1.429 . S
C1802 H1826 0.950 . S
C1803 C1820 1.574 . S
C1803 C1822 1.368 . S
C1803 H1827 0.949 . S
H1804 C1808 0.949 . S
C1805 C1806 1.349 . S
C1805 C1807 1.327 . S
C1805 H1828 0.950 . S
C1806 C1805 1.349 . S
C1806 C1818 1.349 . S
C1807 C1805 1.327 . S
C1807 C1823 1.429 . S
C1807 H1829 0.950 . S
C1808 H1804 0.949 . S
C1808 C1816 1.574 . S
C1808 C1824 1.368 . S
H1809 C1817 0.950 . S
H1810 C1815 0.950 1_455 S
H1811 C1816 0.949 . S
H1812 C1818 0.950 . S
H1813 C1819 0.950 . S
H1814 C1820 0.949 . S
C1815 H1810 0.950 1_655 S
C1815 C1817 1.327 . S
C1815 C1821 1.429 . S
C1816 C1808 1.574 . S
C1816 H1811 0.949 . S
C1816 C1822 1.368 . S
C1817 C1801 1.349 . S
C1817 H1809 0.950 . S
C1817 C1815 1.327 . S
C1818 C1806 1.349 . S
C1818 H1812 0.950 . S
C1818 C1819 1.327 . S
C1819 H1813 0.950 . S
C1819 C1818 1.327 . S
C1819 C1823 1.429 . S
C1820 C1803 1.574 . S
C1820 H1814 0.949 . S
C1820 C1824 1.368 . S
C1821 C1802 1.429 . S
C1821 C1815 1.429 . S
C1821 C1822 1.523 1_655 S
C1822 C1803 1.368 . S
C1822 C1816 1.368 . S
C1822 C1821 1.523 1_455 S
C1823 C1807 1.429 . S
C1823 C1819 1.429 . S
C1823 C1824 1.523 . S
C1824 C1808 1.368 . S
C1824 C1820 1.368 . S
C1824 C1823 1.523 . S
H1825 C1800 0.950 . S
H1826 C1802 0.950 . S
H1827 C1803 0.949 . S
H1828 C1805 0.950 . S
H1829 C1807 0.950 . S
C1830 C1831 1.349 . S
C1830 C1832 1.327 . S
C1830 H1855 0.950 . S
C1831 C1830 1.349 . S
C1831 C1847 1.349 . S
C1832 C1830 1.327 . S
C1832 C1851 1.429 . S
C1832 H1856 0.950 . S
C1833 C1850 1.574 . S
C1833 C1852 1.368 . S
C1833 H1857 0.949 . S
H1834 C1838 0.949 . S
C1835 C1836 1.349 . S
C1835 C1837 1.327 . S
C1835 H1858 0.950 . S
C1836 C1835 1.349 . S
C1836 C1848 1.349 . S
C1837 C1835 1.327 . S
C1837 C1853 1.429 . S
C1837 H1859 0.950 . S
C1838 H1834 0.949 . S
C1838 C1846 1.574 . S
C1838 C1854 1.368 . S
H1839 C1847 0.950 . S
H1840 C1845 0.950 . S
H1841 C1846 0.949 . S
H1842 C1848 0.950 . S
H1843 C1849 0.950 . S
H1844 C1850 0.949 . S
C1845 H1840 0.950 . S
C1845 C1847 1.327 . S
C1845 C1851 1.429 . S
C1846 C1838 1.574 . S
C1846 H1841 0.949 . S
C1846 C1852 1.368 . S
C1847 C1831 1.349 . S
C1847 H1839 0.950 . S
C1847 C1845 1.327 . S
C1848 C1836 1.349 . S
C1848 H1842 0.950 . S
C1848 C1849 1.327 . S
C1849 H1843 0.950 . S
C1849 C1848 1.327 . S
C1849 C1853 1.429 . S
C1850 C1833 1.574 . S
C1850 H1844 0.949 . S
C1850 C1854 1.368 . S
C1851 C1832 1.429 . S
C1851 C1845 1.429 . S
C1851 C1852 1.523 . S
C1852 C1833 1.368 . S
C1852 C1846 1.368 . S
C1852 C1851 1.523 . S
C1853 C1837 1.429 . S
C1853 C1849 1.429 . S
C1853 C1854 1.523 . S
C1854 C1838 1.368 . S
C1854 C1850 1.368 . S
C1854 C1853 1.523 . S
H1855 C1830 0.950 . S
H1856 C1832 0.950 . S
H1857 C1833 0.949 . S
H1858 C1835 0.950 . S
H1859 C1837 0.950 . S
C1860 C1861 1.349 . S
C1860 C1862 1.327 . S
C1860 H1885 0.950 . S
C1861 C1860 1.349 . S
C1861 C1877 1.349 . S
C1862 C1860 1.327 . S
C1862 C1881 1.429 . S
C1862 H1886 0.950 . S
C1863 C1880 1.574 . S
C1863 C1882 1.367 . S
C1863 H1887 0.949 . S
H1864 C1868 0.949 . S
C1865 C1866 1.349 . S
C1865 C1867 1.327 . S
C1865 H1888 0.950 . S
C1866 C1865 1.349 . S
C1866 C1878 1.349 . S
C1867 C1865 1.327 . S
C1867 C1883 1.429 . S
C1867 H1889 0.950 . S
C1868 H1864 0.949 . S
C1868 C1876 1.574 . S
C1868 C1884 1.368 . S
H1869 C1877 0.950 . S
H1870 C1875 0.950 . S
H1871 C1876 0.949 1_545 S
H1872 C1878 0.950 . S
H1873 C1879 0.950 . S
H1874 C1880 0.949 . S
C1875 H1870 0.950 . S
C1875 C1877 1.327 . S
C1875 C1881 1.429 . S
C1876 C1868 1.574 . S
C1876 H1871 0.949 1_565 S
C1876 C1882 1.365 . S
C1877 C1861 1.349 . S
C1877 H1869 0.950 . S
C1877 C1875 1.327 . S
C1878 C1866 1.349 . S
C1878 H1872 0.950 . S
C1878 C1879 1.327 . S
C1879 H1873 0.950 . S
C1879 C1878 1.327 . S
C1879 C1883 1.429 . S
C1880 C1863 1.574 . S
C1880 H1874 0.949 . S
C1880 C1884 1.368 . S
C1881 C1862 1.429 . S
C1881 C1875 1.429 . S
C1881 C1882 1.528 1_545 S
C1882 C1863 1.367 . S
C1882 C1876 1.365 . S
C1882 C1881 1.528 1_565 S
C1883 C1867 1.429 . S
C1883 C1879 1.429 . S
C1883 C1884 1.523 . S
C1884 C1868 1.368 . S
C1884 C1880 1.368 . S
C1884 C1883 1.523 . S
H1885 C1860 0.950 . S
H1886 C1862 0.950 . S
H1887 C1863 0.949 . S
H1888 C1865 0.950 . S
H1889 C1867 0.950 . S
C1890 C1891 1.349 . S
C1890 C1892 1.327 . S
C1890 H1915 0.950 . S
C1891 C1890 1.349 . S
C1891 C1907 1.349 . S
C1892 C1890 1.327 . S
C1892 C1911 1.429 . S
C1892 H1916 0.950 . S
C1893 C1910 1.574 . S
C1893 C1912 1.368 . S
C1893 H1917 0.949 . S
H1894 C1898 0.949 . S
C1895 C1896 1.349 . S
C1895 C1897 1.327 . S
C1895 H1918 0.950 . S
C1896 C1895 1.349 . S
C1896 C1908 1.349 . S
C1897 C1895 1.327 . S
C1897 C1913 1.429 . S
C1897 H1919 0.950 . S
C1898 H1894 0.949 . S
C1898 C1906 1.574 . S
C1898 C1914 1.368 . S
H1899 C1907 0.950 . S
H1900 C1905 0.950 . S
H1901 C1906 0.949 . S
H1902 C1908 0.950 . S
H1903 C1909 0.950 . S
H1904 C1910 0.949 . S
C1905 H1900 0.950 . S
C1905 C1907 1.327 . S
C1905 C1911 1.429 . S
C1906 C1898 1.574 . S
C1906 H1901 0.949 . S
C1906 C1912 1.368 . S
C1907 C1891 1.349 . S
C1907 H1899 0.950 . S
C1907 C1905 1.327 . S
C1908 C1896 1.349 . S
C1908 H1902 0.950 . S
C1908 C1909 1.327 . S
C1909 H1903 0.950 . S
C1909 C1908 1.327 . S
C1909 C1913 1.429 . S
C1910 C1893 1.574 . S
C1910 H1904 0.949 . S
C1910 C1914 1.368 . S
C1911 C1892 1.429 . S
C1911 C1905 1.429 . S
C1911 C1912 1.523 . S
C1912 C1893 1.368 . S
C1912 C1906 1.368 . S
C1912 C1911 1.523 . S
C1913 C1897 1.429 . S
C1913 C1909 1.429 . S
C1913 C1914 1.523 . S
C1914 C1898 1.368 . S
C1914 C1910 1.368 . S
C1914 C1913 1.523 . S
H1915 C1890 0.950 . S
H1916 C1892 0.950 . S
H1917 C1893 0.949 . S
H1918 C1895 0.950 . S
H1919 C1897 0.950 . S
C1920 C1921 1.349 . S
C1920 C1922 1.327 . S
C1920 H1945 0.950 . S
C1921 C1920 1.349 . S
C1921 C1937 1.349 . S
C1922 C1920 1.327 . S
C1922 C1941 1.429 . S
C1922 H1946 0.950 . S
C1923 C1940 1.574 . S
C1923 C1942 1.368 . S
C1923 H1947 0.949 . S
H1924 C1928 0.949 . S
C1925 C1926 1.349 . S
C1925 C1927 1.327 . S
C1925 H1948 0.950 . S
C1926 C1925 1.349 . S
C1926 C1938 1.349 . S
C1927 C1925 1.327 . S
C1927 C1943 1.429 . S
C1927 H1949 0.950 . S
C1928 H1924 0.949 . S
C1928 C1936 1.574 . S
C1928 C1944 1.368 . S
H1929 C1937 0.950 . S
H1930 C1935 0.950 . S
H1931 C1936 0.949 . S
H1932 C1938 0.950 . S
H1933 C1939 0.950 . S
H1934 C1940 0.949 . S
C1935 H1930 0.950 . S
C1935 C1937 1.327 . S
C1935 C1941 1.429 . S
C1936 C1928 1.574 . S
C1936 H1931 0.949 . S
C1936 C1942 1.368 . S
C1937 C1921 1.349 . S
C1937 H1929 0.950 . S
C1937 C1935 1.327 . S
C1938 C1926 1.349 . S
C1938 H1932 0.950 . S
C1938 C1939 1.327 . S
C1939 H1933 0.950 . S
C1939 C1938 1.327 . S
C1939 C1943 1.429 . S
C1940 C1923 1.574 . S
C1940 H1934 0.949 . S
C1940 C1944 1.368 . S
C1941 C1922 1.429 . S
C1941 C1935 1.429 . S
C1941 C1942 1.523 . S
C1942 C1923 1.368 . S
C1942 C1936 1.368 . S
C1942 C1941 1.523 . S
C1943 C1927 1.429 . S
C1943 C1939 1.429 . S
C1943 C1944 1.523 . S
C1944 C1928 1.368 . S
C1944 C1940 1.368 . S
C1944 C1943 1.523 . S
H1945 C1920 0.950 . S
H1946 C1922 0.950 . S
H1947 C1923 0.949 . S
H1948 C1925 0.950 . S
H1949 C1927 0.950 . S
C1950 C1951 1.349 . S
C1950 C1952 1.327 . S
C1950 H1975 0.950 . S
C1951 C1950 1.349 . S
C1951 C1967 1.349 . S
C1952 C1950 1.327 . S
C1952 C1971 1.429 . S
C1952 H1976 0.950 . S
C1953 C1970 1.574 . S
C1953 C1972 1.368 . S
C1953 H1977 0.949 . S
H1954 C1958 0.949 . S
C1955 C1956 1.349 . S
C1955 C1957 1.327 . S
C1955 H1978 0.950 . S
C1956 C1955 1.349 . S
C1956 C1968 1.349 . S
C1957 C1955 1.327 . S
C1957 C1973 1.429 . S
C1957 H1979 0.950 . S
C1958 H1954 0.949 . S
C1958 C1966 1.574 . S
C1958 C1974 1.368 . S
H1959 C1967 0.950 . S
H1960 C1965 0.950 . S
H1961 C1966 0.949 . S
H1962 C1968 0.950 . S
H1963 C1969 0.950 . S
H1964 C1970 0.949 . S
C1965 H1960 0.950 . S
C1965 C1967 1.327 . S
C1965 C1971 1.429 . S
C1966 C1958 1.574 . S
C1966 H1961 0.949 . S
C1966 C1972 1.368 . S
C1967 C1951 1.349 . S
C1967 H1959 0.950 . S
C1967 C1965 1.327 . S
C1968 C1956 1.349 . S
C1968 H1962 0.950 . S
C1968 C1969 1.327 . S
C1969 H1963 0.950 . S
C1969 C1968 1.327 . S
C1969 C1973 1.429 . S
C1970 C1953 1.574 . S
C1970 H1964 0.949 . S
C1970 C1974 1.368 . S
C1971 C1952 1.429 . S
C1971 C1965 1.429 . S
C1971 C1972 1.523 . S
C1972 C1953 1.368 . S
C1972 C1966 1.368 . S
C1972 C1971 1.523 . S
C1973 C1957 1.429 . S
C1973 C1969 1.429 . S
C1973 C1974 1.523 . S
C1974 C1958 1.368 . S
C1974 C1970 1.368 . S
C1974 C1973 1.523 . S
H1975 C1950 0.950 . S
H1976 C1952 0.950 . S
H1977 C1953 0.949 . S
H1978 C1955 0.950 . S
H1979 C1957 0.950 . S
C1980 C1981 1.349 . S
C1980 C1982 1.327 . S
C1980 H2005 0.950 . S
C1981 C1980 1.349 . S
C1981 C1997 1.349 . S
C1982 C1980 1.327 . S
C1982 C2001 1.429 . S
C1982 H2006 0.950 . S
C1983 C2000 1.574 . S
C1983 C2002 1.368 . S
C1983 H2007 0.949 . S
H1984 C1988 0.949 . S
C1985 C1986 1.349 . S
C1985 C1987 1.327 . S
C1985 H2008 0.950 . S
C1986 C1985 1.349 . S
C1986 C1998 1.349 . S
C1987 C1985 1.327 . S
C1987 C2003 1.429 . S
C1987 H2009 0.950 . S
C1988 H1984 0.949 . S
C1988 C1996 1.574 . S
C1988 C2004 1.368 . S
H1989 C1997 0.950 . S
H1990 C1995 0.950 . S
H1991 C1996 0.949 . S
H1992 C1998 0.950 . S
H1993 C1999 0.950 . S
H1994 C2000 0.949 . S
C1995 H1990 0.950 . S
C1995 C1997 1.327 . S
C1995 C2001 1.429 . S
C1996 C1988 1.574 . S
C1996 H1991 0.949 . S
C1996 C2002 1.368 . S
C1997 C1981 1.349 . S
C1997 H1989 0.950 . S
C1997 C1995 1.327 . S
C1998 C1986 1.349 . S
C1998 H1992 0.950 . S
C1998 C1999 1.327 . S
C1999 H1993 0.950 . S
C1999 C1998 1.327 . S
C1999 C2003 1.429 . S
C2000 C1983 1.574 . S
C2000 H1994 0.949 . S
C2000 C2004 1.368 . S
C2001 C1982 1.429 . S
C2001 C1995 1.429 . S
C2001 C2002 1.523 . S
C2002 C1983 1.368 . S
C2002 C1996 1.368 . S
C2002 C2001 1.523 . S
C2003 C1987 1.429 . S
C2003 C1999 1.429 . S
C2003 C2004 1.523 . S
C2004 C1988 1.368 . S
C2004 C2000 1.368 . S
C2004 C2003 1.523 . S
H2005 C1980 0.950 . S
H2006 C1982 0.950 . S
H2007 C1983 0.949 . S
H2008 C1985 0.950 . S
H2009 C1987 0.950 . S
C2010 C2011 1.349 . S
C2010 C2012 1.327 . S
C2010 H2035 0.950 . S
C2011 C2010 1.349 . S
C2011 C2027 1.349 . S
C2012 C2010 1.327 . S
C2012 C2031 1.429 . S
C2012 H2036 0.950 . S
C2013 C2030 1.574 . S
C2013 C2032 1.368 . S
C2013 H2037 0.949 . S
H2014 C2018 0.949 . S
C2015 C2016 1.349 . S
C2015 C2017 1.327 . S
C2015 H2038 0.950 . S
C2016 C2015 1.349 . S
C2016 C2028 1.349 . S
C2017 C2015 1.327 . S
C2017 C2033 1.429 . S
C2017 H2039 0.950 . S
C2018 H2014 0.949 . S
C2018 C2026 1.574 . S
C2018 C2034 1.368 . S
H2019 C2027 0.950 . S
H2020 C2025 0.950 . S
H2021 C2026 0.949 . S
H2022 C2028 0.950 . S
H2023 C2029 0.950 . S
H2024 C2030 0.949 . S
C2025 H2020 0.950 . S
C2025 C2027 1.327 . S
C2025 C2031 1.429 . S
C2026 C2018 1.574 . S
C2026 H2021 0.949 . S
C2026 C2032 1.368 . S
C2027 C2011 1.349 . S
C2027 H2019 0.950 . S
C2027 C2025 1.327 . S
C2028 C2016 1.349 . S
C2028 H2022 0.950 . S
C2028 C2029 1.327 . S
C2029 H2023 0.950 . S
C2029 C2028 1.327 . S
C2029 C2033 1.429 . S
C2030 C2013 1.574 . S
C2030 H2024 0.949 . S
C2030 C2034 1.368 . S
C2031 C2012 1.429 . S
C2031 C2025 1.429 . S
C2031 C2032 1.523 . S
C2032 C2013 1.368 . S
C2032 C2026 1.368 . S
C2032 C2031 1.523 . S
C2033 C2017 1.429 . S
C2033 C2029 1.429 . S
C2033 C2034 1.523 . S
C2034 C2018 1.368 . S
C2034 C2030 1.368 . S
C2034 C2033 1.523 . S
H2035 C2010 0.950 . S
H2036 C2012 0.950 . S
H2037 C2013 0.949 . S
H2038 C2015 0.950 . S
H2039 C2017 0.950 . S
C2040 C2041 1.349 . S
C2040 C2042 1.327 . S
C2040 H2065 0.950 . S
C2041 C2040 1.349 . S
C2041 C2057 1.349 . S
C2042 C2040 1.327 . S
C2042 C2061 1.429 . S
C2042 H2066 0.950 . S
C2043 C2060 1.574 . S
C2043 C2062 1.368 . S
C2043 H2067 0.949 . S
H2044 C2048 0.949 . S
C2045 C2046 1.349 . S
C2045 C2047 1.327 . S
C2045 H2068 0.950 . S
C2046 C2045 1.349 . S
C2046 C2058 1.349 . S
C2047 C2045 1.327 . S
C2047 C2063 1.429 . S
C2047 H2069 0.950 . S
C2048 H2044 0.949 . S
C2048 C2056 1.574 . S
C2048 C2064 1.368 . S
H2049 C2057 0.950 . S
H2050 C2055 0.950 . S
H2051 C2056 0.949 . S
H2052 C2058 0.950 . S
H2053 C2059 0.950 . S
H2054 C2060 0.949 . S
C2055 H2050 0.950 . S
C2055 C2057 1.327 . S
C2055 C2061 1.429 . S
C2056 C2048 1.574 . S
C2056 H2051 0.949 . S
C2056 C2062 1.368 . S
C2057 C2041 1.349 . S
C2057 H2049 0.950 . S
C2057 C2055 1.327 . S
C2058 C2046 1.349 . S
C2058 H2052 0.950 . S
C2058 C2059 1.327 . S
C2059 H2053 0.950 . S
C2059 C2058 1.327 . S
C2059 C2063 1.429 . S
C2060 C2043 1.574 . S
C2060 H2054 0.949 . S
C2060 C2064 1.368 . S
C2061 C2042 1.429 . S
C2061 C2055 1.429 . S
C2061 C2062 1.523 . S
C2062 C2043 1.368 . S
C2062 C2056 1.368 . S
C2062 C2061 1.523 . S
C2063 C2047 1.429 . S
C2063 C2059 1.429 . S
C2063 C2064 1.523 . S
C2064 C2048 1.368 . S
C2064 C2060 1.368 . S
C2064 C2063 1.523 . S
H2065 C2040 0.950 . S
H2066 C2042 0.950 . S
H2067 C2043 0.949 . S
H2068 C2045 0.950 . S
H2069 C2047 0.950 . S
C2070 C2071 1.349 . S
C2070 C2072 1.327 . S
C2070 H2095 0.950 . S
C2071 C2070 1.349 . S
C2071 C2087 1.349 . S
C2072 C2070 1.327 . S
C2072 C2091 1.429 . S
C2072 H2096 0.950 . S
C2073 C2090 1.574 . S
C2073 C2092 1.368 . S
C2073 H2097 0.949 . S
H2074 C2078 0.949 . S
C2075 C2076 1.349 . S
C2075 C2077 1.327 . S
C2075 H2098 0.950 . S
C2076 C2075 1.349 . S
C2076 C2088 1.349 . S
C2077 C2075 1.327 . S
C2077 C2093 1.429 . S
C2077 H2099 0.950 . S
C2078 H2074 0.949 . S
C2078 C2086 1.574 . S
C2078 C2094 1.368 . S
H2079 C2087 0.950 . S
H2080 C2085 0.950 . S
H2081 C2086 0.972 . S
H2082 C2088 0.950 . S
H2083 C2089 0.950 . S
H2084 C2090 0.949 . S
C2085 H2080 0.950 . S
C2085 C2087 1.327 . S
C2085 C2091 1.429 . S
C2086 C2078 1.574 . S
C2086 H2081 0.972 . S
C2086 C2092 1.368 . S
C2087 C2071 1.349 . S
C2087 H2079 0.950 . S
C2087 C2085 1.327 . S
C2088 C2076 1.349 . S
C2088 H2082 0.950 . S
C2088 C2089 1.327 . S
C2089 H2083 0.950 . S
C2089 C2088 1.327 . S
C2089 C2093 1.429 . S
C2090 C2073 1.574 . S
C2090 H2084 0.949 . S
C2090 C2094 1.368 . S
C2091 C2072 1.429 . S
C2091 C2085 1.429 . S
C2091 C2092 1.523 1_545 S
C2092 C2073 1.368 . S
C2092 C2086 1.368 . S
C2092 C2091 1.523 1_565 S
C2093 C2077 1.429 . S
C2093 C2089 1.429 . S
C2093 C2094 1.523 . S
C2094 C2078 1.368 . S
C2094 C2090 1.368 . S
C2094 C2093 1.523 . S
H2095 C2070 0.950 . S
H2096 C2072 0.950 . S
H2097 C2073 0.949 . S
H2098 C2075 0.950 . S
H2099 C2077 0.950 . S
C2100 C2101 1.349 . S
C2100 C2102 1.327 . S
C2100 H2125 0.950 . S
C2101 C2100 1.349 . S
C2101 C2117 1.349 . S
C2102 C2100 1.327 . S
C2102 C2121 1.429 1_655 S
C2102 H2126 0.950 . S
C2103 C2120 1.574 . S
C2103 C2122 1.368 . S
C2103 H2127 0.949 . S
H2104 C2108 0.949 . S
C2105 C2106 1.349 . S
C2105 C2107 1.327 . S
C2105 H2128 0.950 . S
C2106 C2105 1.349 . S
C2106 C2118 1.349 . S
C2107 C2105 1.327 . S
C2107 C2123 1.429 . S
C2107 H2129 0.950 . S
C2108 H2104 0.949 . S
C2108 C2116 1.574 . S
C2108 C2124 1.368 . S
H2109 C2117 0.950 . S
H2110 C2115 0.950 . S
H2111 C2116 0.949 . S
H2112 C2118 0.950 . S
H2113 C2119 0.950 . S
H2114 C2120 0.949 . S
C2115 H2110 0.950 . S
C2115 C2117 1.327 1_455 S
C2115 C2121 1.429 . S
C2116 C2108 1.574 . S
C2116 H2111 0.949 . S
C2116 C2122 1.368 . S
C2117 C2101 1.349 . S
C2117 H2109 0.950 . S
C2117 C2115 1.327 1_655 S
C2118 C2106 1.349 . S
C2118 H2112 0.950 . S
C2118 C2119 1.327 . S
C2119 H2113 0.950 . S
C2119 C2118 1.327 . S
C2119 C2123 1.429 . S
C2120 C2103 1.574 . S
C2120 H2114 0.949 . S
C2120 C2124 1.368 . S
C2121 C2102 1.429 1_455 S
C2121 C2115 1.429 . S
C2121 C2122 1.523 . S
C2122 C2103 1.368 . S
C2122 C2116 1.368 . S
C2122 C2121 1.523 . S
C2123 C2107 1.429 . S
C2123 C2119 1.429 . S
C2123 C2124 1.523 . S
C2124 C2108 1.368 . S
C2124 C2120 1.368 . S
C2124 C2123 1.523 . S
H2125 C2100 0.950 . S
H2126 C2102 0.950 . S
H2127 C2103 0.949 . S
H2128 C2105 0.950 . S
H2129 C2107 0.950 . S
C2130 C2131 1.349 . S
C2130 C2132 1.327 . S
C2130 H2155 0.950 . S
C2131 C2130 1.349 . S
C2131 C2147 1.349 . S
C2132 C2130 1.327 . S
C2132 C2151 1.429 . S
C2132 H2156 0.950 . S
C2133 C2150 1.574 . S
C2133 C2152 1.368 . S
C2133 H2157 0.949 . S
H2134 C2138 0.949 . S
C2135 C2136 1.349 . S
C2135 C2137 1.327 . S
C2135 H2158 0.950 . S
C2136 C2135 1.349 . S
C2136 C2148 1.349 . S
C2137 C2135 1.327 . S
C2137 C2153 1.429 . S
C2137 H2159 0.950 . S
C2138 H2134 0.949 . S
C2138 C2146 1.574 . S
C2138 C2154 1.368 . S
H2139 C2147 0.950 . S
H2140 C2145 0.950 . S
H2141 C2146 0.949 . S
H2142 C2148 0.950 . S
H2143 C2149 0.950 . S
H2144 C2150 0.949 . S
C2145 H2140 0.950 . S
C2145 C2147 1.327 . S
C2145 C2151 1.429 . S
C2146 C2138 1.574 . S
C2146 H2141 0.949 . S
C2146 C2152 1.368 . S
C2147 C2131 1.349 . S
C2147 H2139 0.950 . S
C2147 C2145 1.327 . S
C2148 C2136 1.349 . S
C2148 H2142 0.950 . S
C2148 C2149 1.327 . S
C2149 H2143 0.950 . S
C2149 C2148 1.327 . S
C2149 C2153 1.429 . S
C2150 C2133 1.574 . S
C2150 H2144 0.949 . S
C2150 C2154 1.368 . S
C2151 C2132 1.429 . S
C2151 C2145 1.429 . S
C2151 C2152 1.523 . S
C2152 C2133 1.368 . S
C2152 C2146 1.368 . S
C2152 C2151 1.523 . S
C2153 C2137 1.429 . S
C2153 C2149 1.429 . S
C2153 C2154 1.523 . S
C2154 C2138 1.368 . S
C2154 C2150 1.368 . S
C2154 C2153 1.523 . S
H2155 C2130 0.950 . S
H2156 C2132 0.950 . S
H2157 C2133 0.949 . S
H2158 C2135 0.950 . S
H2159 C2137 0.950 . S
C2160 C2161 1.349 . S
C2160 C2162 1.327 . S
C2160 H2185 0.950 . S
C2161 C2160 1.349 . S
C2161 C2177 1.349 . S
C2162 C2160 1.327 . S
C2162 C2181 1.429 . S
C2162 H2186 0.950 . S
C2163 C2180 1.574 . S
C2163 C2182 1.368 . S
C2163 H2187 0.949 . S
H2164 C2168 0.949 . S
C2165 C2166 1.349 . S
C2165 C2167 1.327 . S
C2165 H2188 0.950 . S
C2166 C2165 1.349 . S
C2166 C2178 1.349 . S
C2167 C2165 1.327 . S
C2167 C2183 1.429 . S
C2167 H2189 0.950 . S
C2168 H2164 0.949 . S
C2168 C2176 1.574 . S
C2168 C2184 1.368 . S
H2169 C2177 0.950 . S
H2170 C2175 0.950 . S
H2171 C2176 0.949 . S
H2172 C2178 0.950 . S
H2173 C2179 0.950 . S
H2174 C2180 0.949 . S
C2175 H2170 0.950 . S
C2175 C2177 1.327 . S
C2175 C2181 1.429 . S
C2176 C2168 1.574 . S
C2176 H2171 0.949 . S
C2176 C2182 1.368 . S
C2177 C2161 1.349 . S
C2177 H2169 0.950 . S
C2177 C2175 1.327 . S
C2178 C2166 1.349 . S
C2178 H2172 0.950 . S
C2178 C2179 1.327 . S
C2179 H2173 0.950 . S
C2179 C2178 1.327 . S
C2179 C2183 1.429 . S
C2180 C2163 1.574 . S
C2180 H2174 0.949 . S
C2180 C2184 1.368 . S
C2181 C2162 1.429 . S
C2181 C2175 1.429 . S
C2181 C2182 1.523 . S
C2182 C2163 1.368 . S
C2182 C2176 1.368 . S
C2182 C2181 1.523 . S
C2183 C2167 1.429 . S
C2183 C2179 1.429 . S
C2183 C2184 1.523 . S
C2184 C2168 1.368 . S
C2184 C2180 1.368 . S
C2184 C2183 1.523 . S
H2185 C2160 0.950 . S
H2186 C2162 0.950 . S
H2187 C2163 0.949 . S
H2188 C2165 0.950 . S
H2189 C2167 0.950 . S
C2190 C2191 1.349 . S
C2190 C2192 1.327 . S
C2190 H2215 0.950 . S
C2191 C2190 1.349 . S
C2191 C2207 1.349 . S
C2192 C2190 1.327 . S
C2192 C2211 1.429 . S
C2192 H2216 0.950 . S
C2193 C2210 1.574 . S
C2193 C2212 1.368 . S
C2193 H2217 0.949 . S
H2194 C2198 0.949 . S
C2195 C2196 1.349 . S
C2195 C2197 1.327 . S
C2195 H2218 0.950 . S
C2196 C2195 1.349 . S
C2196 C2208 1.349 . S
C2197 C2195 1.327 . S
C2197 C2213 1.429 . S
C2197 H2219 0.950 . S
C2198 H2194 0.949 . S
C2198 C2206 1.574 . S
C2198 C2214 1.368 . S
H2199 C2207 0.950 . S
H2200 C2205 0.950 . S
H2201 C2206 0.949 . S
H2202 C2208 0.950 . S
H2203 C2209 0.950 . S
H2204 C2210 0.949 . S
C2205 H2200 0.950 . S
C2205 C2207 1.327 . S
C2205 C2211 1.429 . S
C2206 C2198 1.574 . S
C2206 H2201 0.949 . S
C2206 C2212 1.368 . S
C2207 C2191 1.349 . S
C2207 H2199 0.950 . S
C2207 C2205 1.327 . S
C2208 C2196 1.349 . S
C2208 H2202 0.950 . S
C2208 C2209 1.327 . S
C2209 H2203 0.950 . S
C2209 C2208 1.327 . S
C2209 C2213 1.429 . S
C2210 C2193 1.574 . S
C2210 H2204 0.949 . S
C2210 C2214 1.368 . S
C2211 C2192 1.429 . S
C2211 C2205 1.429 . S
C2211 C2212 1.523 . S
C2212 C2193 1.368 . S
C2212 C2206 1.368 . S
C2212 C2211 1.523 . S
C2213 C2197 1.429 . S
C2213 C2209 1.429 . S
C2213 C2214 1.523 . S
C2214 C2198 1.368 . S
C2214 C2210 1.368 . S
C2214 C2213 1.523 . S
H2215 C2190 0.950 . S
H2216 C2192 0.950 . S
H2217 C2193 0.949 . S
H2218 C2195 0.950 . S
H2219 C2197 0.950 . S
C2220 C2221 1.349 . S
C2220 C2222 1.327 . S
C2220 H2245 0.950 . S
C2221 C2220 1.349 . S
C2221 C2237 1.349 . S
C2222 C2220 1.327 . S
C2222 C2241 1.429 . S
C2222 H2246 0.950 . S
C2223 C2240 1.574 . S
C2223 C2242 1.368 . S
C2223 H2247 0.949 . S
H2224 C2228 0.949 . S
C2225 C2226 1.349 . S
C2225 C2227 1.327 . S
C2225 H2248 0.950 . S
C2226 C2225 1.349 . S
C2226 C2238 1.349 . S
C2227 C2225 1.327 . S
C2227 C2243 1.429 . S
C2227 H2249 0.950 . S
C2228 H2224 0.949 . S
C2228 C2236 1.574 . S
C2228 C2244 1.368 . S
H2229 C2237 0.950 . S
H2230 C2235 0.950 . S
H2231 C2236 0.949 . S
H2232 C2238 0.950 . S
H2233 C2239 0.950 . S
H2234 C2240 0.949 . S
C2235 H2230 0.950 . S
C2235 C2237 1.327 . S
C2235 C2241 1.429 . S
C2236 C2228 1.574 . S
C2236 H2231 0.949 . S
C2236 C2242 1.368 . S
C2237 C2221 1.349 . S
C2237 H2229 0.950 . S
C2237 C2235 1.327 . S
C2238 C2226 1.349 . S
C2238 H2232 0.950 . S
C2238 C2239 1.327 . S
C2239 H2233 0.950 . S
C2239 C2238 1.327 . S
C2239 C2243 1.429 . S
C2240 C2223 1.574 . S
C2240 H2234 0.949 . S
C2240 C2244 1.368 . S
C2241 C2222 1.429 . S
C2241 C2235 1.429 . S
C2241 C2242 1.523 . S
C2242 C2223 1.368 . S
C2242 C2236 1.368 . S
C2242 C2241 1.523 . S
C2243 C2227 1.429 . S
C2243 C2239 1.429 . S
C2243 C2244 1.523 . S
C2244 C2228 1.368 . S
C2244 C2240 1.368 . S
C2244 C2243 1.523 . S
H2245 C2220 0.950 . S
H2246 C2222 0.950 . S
H2247 C2223 0.949 . S
H2248 C2225 0.950 . S
H2249 C2227 0.950 . S
C2250 C2251 1.349 . S
C2250 C2252 1.327 . S
C2250 H2275 0.950 . S
C2251 C2250 1.349 . S
C2251 C2267 1.349 . S
C2252 C2250 1.327 . S
C2252 C2271 1.429 . S
C2252 H2276 0.950 . S
C2253 C2270 1.574 . S
C2253 C2272 1.368 . S
C2253 H2277 0.903 1_545 S
H2254 C2258 0.949 . S
C2255 C2256 1.349 . S
C2255 C2257 1.327 . S
C2255 H2278 0.950 . S
C2256 C2255 1.349 . S
C2256 C2268 1.349 . S
C2257 C2255 1.327 . S
C2257 C2273 1.429 . S
C2257 H2279 0.950 . S
C2258 H2254 0.949 . S
C2258 C2266 1.574 . S
C2258 C2274 1.368 . S
H2259 C2267 0.950 . S
H2260 C2265 0.950 . S
H2261 C2266 0.949 . S
H2262 C2268 0.950 . S
H2263 C2269 0.950 . S
H2264 C2270 0.949 . S
C2265 H2260 0.950 . S
C2265 C2267 1.327 . S
C2265 C2271 1.429 . S
C2266 C2258 1.574 . S
C2266 H2261 0.949 . S
C2266 C2272 1.368 . S
C2267 C2251 1.349 . S
C2267 H2259 0.950 . S
C2267 C2265 1.327 . S
C2268 C2256 1.349 . S
C2268 H2262 0.950 . S
C2268 C2269 1.327 . S
C2269 H2263 0.950 . S
C2269 C2268 1.327 . S
C2269 C2273 1.429 . S
C2270 C2253 1.574 . S
C2270 H2264 0.949 . S
C2270 C2274 1.368 . S
C2271 C2252 1.429 . S
C2271 C2265 1.429 . S
C2271 C2272 1.523 1_565 S
C2272 C2253 1.368 . S
C2272 C2266 1.368 . S
C2272 C2271 1.523 1_545 S
C2273 C2257 1.429 . S
C2273 C2269 1.429 . S
C2273 C2274 1.523 . S
C2274 C2258 1.368 . S
C2274 C2270 1.368 . S
C2274 C2273 1.523 . S
H2275 C2250 0.950 . S
H2276 C2252 0.950 . S
H2277 C2253 0.903 1_565 S
H2278 C2255 0.950 . S
H2279 C2257 0.950 . S
C2280 C2281 1.349 . S
C2280 C2282 1.327 . S
C2280 H2305 0.950 . S
C2281 C2280 1.349 . S
C2281 C2297 1.349 . S
C2282 C2280 1.327 . S
C2282 C2301 1.429 1_455 S
C2282 H2306 0.950 . S
C2283 C2300 1.574 . S
C2283 C2302 1.368 . S
C2283 H2307 0.949 . S
H2284 C2288 0.949 . S
C2285 C2286 1.349 . S
C2285 C2287 1.327 . S
C2285 H2308 0.950 . S
C2286 C2285 1.349 . S
C2286 C2298 1.349 . S
C2287 C2285 1.327 . S
C2287 C2303 1.429 . S
C2287 H2309 0.950 . S
C2288 H2284 0.949 . S
C2288 C2296 1.574 . S
C2288 C2304 1.368 . S
H2289 C2297 0.950 . S
H2290 C2295 0.950 1_655 S
H2291 C2296 0.949 . S
H2292 C2298 0.950 . S
H2293 C2299 0.950 . S
H2294 C2300 0.949 . S
C2295 H2290 0.950 1_455 S
C2295 C2297 1.327 . S
C2295 C2301 1.429 1_455 S
C2296 C2288 1.574 . S
C2296 H2291 0.949 . S
C2296 C2302 1.368 . S
C2297 C2281 1.349 . S
C2297 H2289 0.950 . S
C2297 C2295 1.327 . S
C2298 C2286 1.349 . S
C2298 H2292 0.950 . S
C2298 C2299 1.327 . S
C2299 H2293 0.950 . S
C2299 C2298 1.327 . S
C2299 C2303 1.429 . S
C2300 C2283 1.574 . S
C2300 H2294 0.949 . S
C2300 C2304 1.368 . S
C2301 C2282 1.429 1_655 S
C2301 C2295 1.429 1_655 S
C2301 C2302 1.523 . S
C2302 C2283 1.368 . S
C2302 C2296 1.368 . S
C2302 C2301 1.523 . S
C2303 C2287 1.429 . S
C2303 C2299 1.429 . S
C2303 C2304 1.523 . S
C2304 C2288 1.368 . S
C2304 C2300 1.368 . S
C2304 C2303 1.523 . S
H2305 C2280 0.950 . S
H2306 C2282 0.950 . S
H2307 C2283 0.949 . S
H2308 C2285 0.950 . S
H2309 C2287 0.950 . S
C2310 C2311 1.349 . S
C2310 C2312 1.327 . S
C2310 H2335 0.950 . S
C2311 C2310 1.349 . S
C2311 C2327 1.349 . S
C2312 C2310 1.327 . S
C2312 C2331 1.429 . S
C2312 H2336 0.950 . S
C2313 C2330 1.574 . S
C2313 C2332 1.368 . S
C2313 H2337 0.949 . S
H2314 C2318 0.949 . S
C2315 C2316 1.349 . S
C2315 C2317 1.327 . S
C2315 H2338 0.950 . S
C2316 C2315 1.349 . S
C2316 C2328 1.349 . S
C2317 C2315 1.327 . S
C2317 C2333 1.429 . S
C2317 H2339 0.950 . S
C2318 H2314 0.949 . S
C2318 C2326 1.574 . S
C2318 C2334 1.368 . S
H2319 C2327 0.950 . S
H2320 C2325 0.950 . S
H2321 C2326 0.949 . S
H2322 C2328 0.950 . S
H2323 C2329 0.950 . S
H2324 C2330 0.949 . S
C2325 H2320 0.950 . S
C2325 C2327 1.327 . S
C2325 C2331 1.429 . S
C2326 C2318 1.574 . S
C2326 H2321 0.949 . S
C2326 C2332 1.368 . S
C2327 C2311 1.349 . S
C2327 H2319 0.950 . S
C2327 C2325 1.327 . S
C2328 C2316 1.349 . S
C2328 H2322 0.950 . S
C2328 C2329 1.327 . S
C2329 H2323 0.950 . S
C2329 C2328 1.327 . S
C2329 C2333 1.429 . S
C2330 C2313 1.574 . S
C2330 H2324 0.949 . S
C2330 C2334 1.368 . S
C2331 C2312 1.429 . S
C2331 C2325 1.429 . S
C2331 C2332 1.523 . S
C2332 C2313 1.368 . S
C2332 C2326 1.368 . S
C2332 C2331 1.523 . S
C2333 C2317 1.429 . S
C2333 C2329 1.429 . S
C2333 C2334 1.523 . S
C2334 C2318 1.368 . S
C2334 C2330 1.368 . S
C2334 C2333 1.523 . S
H2335 C2310 0.950 . S
H2336 C2312 0.950 . S
H2337 C2313 0.949 . S
H2338 C2315 0.950 . S
H2339 C2317 0.950 . S
C2340 C2341 1.349 . S
C2340 C2342 1.327 . S
C2340 H2365 0.950 . S
C2341 C2340 1.349 . S
C2341 C2357 1.349 . S
C2342 C2340 1.327 . S
C2342 C2361 1.429 . S
C2342 H2366 0.950 . S
C2343 C2360 1.574 . S
C2343 C2362 1.368 . S
C2343 H2367 0.949 . S
H2344 C2348 0.949 . S
C2345 C2346 1.349 . S
C2345 C2347 1.327 . S
C2345 H2368 0.950 . S
C2346 C2345 1.349 . S
C2346 C2358 1.349 . S
C2347 C2345 1.327 . S
C2347 C2363 1.429 . S
C2347 H2369 0.950 . S
C2348 H2344 0.949 . S
C2348 C2356 1.574 . S
C2348 C2364 1.368 . S
H2349 C2357 0.950 . S
H2350 C2355 0.950 . S
H2351 C2356 0.949 . S
H2352 C2358 0.950 . S
H2353 C2359 0.950 . S
H2354 C2360 0.949 . S
C2355 H2350 0.950 . S
C2355 C2357 1.327 . S
C2355 C2361 1.429 . S
C2356 C2348 1.574 . S
C2356 H2351 0.949 . S
C2356 C2362 1.368 . S
C2357 C2341 1.349 . S
C2357 H2349 0.950 . S
C2357 C2355 1.327 . S
C2358 C2346 1.349 . S
C2358 H2352 0.950 . S
C2358 C2359 1.327 . S
C2359 H2353 0.950 . S
C2359 C2358 1.327 . S
C2359 C2363 1.429 . S
C2360 C2343 1.574 . S
C2360 H2354 0.949 . S
C2360 C2364 1.368 . S
C2361 C2342 1.429 . S
C2361 C2355 1.429 . S
C2361 C2362 1.523 1_455 S
C2362 C2343 1.368 . S
C2362 C2356 1.368 . S
C2362 C2361 1.523 1_655 S
C2363 C2347 1.429 . S
C2363 C2359 1.429 . S
C2363 C2364 1.523 . S
C2364 C2348 1.368 . S
C2364 C2360 1.368 . S
C2364 C2363 1.523 . S
H2365 C2340 0.950 . S
H2366 C2342 0.950 . S
H2367 C2343 0.949 . S
H2368 C2345 0.950 . S
H2369 C2347 0.950 . S
C2370 C2371 1.349 . S
C2370 C2372 1.327 . S
C2370 H2395 0.950 . S
C2371 C2370 1.349 . S
C2371 C2387 1.349 . S
C2372 C2370 1.327 . S
C2372 C2391 1.429 . S
C2372 H2396 0.950 . S
C2373 C2390 1.574 . S
C2373 C2392 1.368 . S
C2373 H2397 0.949 . S
H2374 C2378 0.949 . S
C2375 C2376 1.349 . S
C2375 C2377 1.327 . S
C2375 H2398 0.950 . S
C2376 C2375 1.349 . S
C2376 C2388 1.349 . S
C2377 C2375 1.327 . S
C2377 C2393 1.429 . S
C2377 H2399 0.950 . S
C2378 H2374 0.949 . S
C2378 C2386 1.574 . S
C2378 C2394 1.368 . S
H2379 C2387 0.950 . S
H2380 C2385 0.950 . S
H2381 C2386 0.949 . S
H2382 C2388 0.950 . S
H2383 C2389 0.950 . S
H2384 C2390 0.949 . S
C2385 H2380 0.950 . S
C2385 C2387 1.327 . S
C2385 C2391 1.429 . S
C2386 C2378 1.574 . S
C2386 H2381 0.949 . S
C2386 C2392 1.368 . S
C2387 C2371 1.349 . S
C2387 H2379 0.950 . S
C2387 C2385 1.327 . S
C2388 C2376 1.349 . S
C2388 H2382 0.950 . S
C2388 C2389 1.327 . S
C2389 H2383 0.950 . S
C2389 C2388 1.327 . S
C2389 C2393 1.429 . S
C2390 C2373 1.574 . S
C2390 H2384 0.949 . S
C2390 C2394 1.368 . S
C2391 C2372 1.429 . S
C2391 C2385 1.429 . S
C2391 C2392 1.523 . S
C2392 C2373 1.368 . S
C2392 C2386 1.368 . S
C2392 C2391 1.523 . S
C2393 C2377 1.429 . S
C2393 C2389 1.429 . S
C2393 C2394 1.523 . S
C2394 C2378 1.368 . S
C2394 C2390 1.368 . S
C2394 C2393 1.523 . S
H2395 C2370 0.950 . S
H2396 C2372 0.950 . S
H2397 C2373 0.949 . S
H2398 C2375 0.950 . S
H2399 C2377 0.950 . S
C2400 C2401 1.349 . S
C2400 C2402 1.327 . S
C2400 H2425 0.950 . S
C2401 C2400 1.349 . S
C2401 C2417 1.349 . S
C2402 C2400 1.327 . S
C2402 C2421 1.429 . S
C2402 H2426 0.950 . S
C2403 C2420 1.574 . S
C2403 C2422 1.368 . S
C2403 H2427 0.949 1_545 S
H2404 C2408 0.949 . S
C2405 C2406 1.349 . S
C2405 C2407 1.327 . S
C2405 H2428 0.950 . S
C2406 C2405 1.349 . S
C2406 C2418 1.349 . S
C2407 C2405 1.327 . S
C2407 C2423 1.429 . S
C2407 H2429 0.950 . S
C2408 H2404 0.949 . S
C2408 C2416 1.574 . S
C2408 C2424 1.368 . S
H2409 C2417 0.950 . S
H2410 C2415 0.950 . S
H2411 C2416 0.949 . S
H2412 C2418 0.950 . S
H2413 C2419 0.950 . S
H2414 C2420 0.949 . S
C2415 H2410 0.950 . S
C2415 C2417 1.327 . S
C2415 C2421 1.429 . S
C2416 C2408 1.574 . S
C2416 H2411 0.949 . S
C2416 C2422 1.368 . S
C2417 C2401 1.349 . S
C2417 H2409 0.950 . S
C2417 C2415 1.327 . S
C2418 C2406 1.349 . S
C2418 H2412 0.950 . S
C2418 C2419 1.327 . S
C2419 H2413 0.950 . S
C2419 C2418 1.327 . S
C2419 C2423 1.429 . S
C2420 C2403 1.574 . S
C2420 H2414 0.949 . S
C2420 C2424 1.368 . S
C2421 C2402 1.429 . S
C2421 C2415 1.429 . S
C2421 C2422 1.523 1_565 S
C2422 C2403 1.368 . S
C2422 C2416 1.368 . S
C2422 C2421 1.523 1_545 S
C2423 C2407 1.429 . S
C2423 C2419 1.429 . S
C2423 C2424 1.523 . S
C2424 C2408 1.368 . S
C2424 C2420 1.368 . S
C2424 C2423 1.523 . S
H2425 C2400 0.950 . S
H2426 C2402 0.950 . S
H2427 C2403 0.949 1_565 S
H2428 C2405 0.950 . S
H2429 C2407 0.950 . S
C2430 C2431 1.349 . S
C2430 C2432 1.327 . S
C2430 H2455 0.950 . S
C2431 C2430 1.349 . S
C2431 C2447 1.349 . S
C2432 C2430 1.327 . S
C2432 C2451 1.429 . S
C2432 H2456 0.950 . S
C2433 C2450 1.574 . S
C2433 C2452 1.368 . S
C2433 H2457 0.949 . S
H2434 C2438 0.949 . S
C2435 C2436 1.349 . S
C2435 C2437 1.327 . S
C2435 H2458 0.950 . S
C2436 C2435 1.349 . S
C2436 C2448 1.349 . S
C2437 C2435 1.327 . S
C2437 C2453 1.429 . S
C2437 H2459 0.950 . S
C2438 H2434 0.949 . S
C2438 C2446 1.574 . S
C2438 C2454 1.368 . S
H2439 C2447 0.950 . S
H2440 C2445 0.950 . S
H2441 C2446 0.949 . S
H2442 C2448 0.950 . S
H2443 C2449 0.950 . S
H2444 C2450 0.949 . S
C2445 H2440 0.950 . S
C2445 C2447 1.327 . S
C2445 C2451 1.429 . S
C2446 C2438 1.574 . S
C2446 H2441 0.949 . S
C2446 C2452 1.368 . S
C2447 C2431 1.349 . S
C2447 H2439 0.950 . S
C2447 C2445 1.327 . S
C2448 C2436 1.349 . S
C2448 H2442 0.950 . S
C2448 C2449 1.327 . S
C2449 H2443 0.950 . S
C2449 C2448 1.327 . S
C2449 C2453 1.429 . S
C2450 C2433 1.574 . S
C2450 H2444 0.949 . S
C2450 C2454 1.368 . S
C2451 C2432 1.429 . S
C2451 C2445 1.429 . S
C2451 C2452 1.523 . S
C2452 C2433 1.368 . S
C2452 C2446 1.368 . S
C2452 C2451 1.523 . S
C2453 C2437 1.429 . S
C2453 C2449 1.429 . S
C2453 C2454 1.523 . S
C2454 C2438 1.368 . S
C2454 C2450 1.368 . S
C2454 C2453 1.523 . S
H2455 C2430 0.950 . S
H2456 C2432 0.950 . S
H2457 C2433 0.949 . S
H2458 C2435 0.950 . S
H2459 C2437 0.950 . S
C2460 C2461 1.349 . S
C2460 C2462 1.327 . S
C2460 H2485 0.950 . S
C2461 C2460 1.349 . S
C2461 C2477 1.349 . S
C2462 C2460 1.327 . S
C2462 C2481 1.429 . S
C2462 H2486 0.950 . S
C2463 C2480 1.574 . S
C2463 C2482 1.368 . S
C2463 H2487 0.949 . S
H2464 C2468 0.949 . S
C2465 C2466 1.349 . S
C2465 C2467 1.327 . S
C2465 H2488 0.950 . S
C2466 C2465 1.349 . S
C2466 C2478 1.349 . S
C2467 C2465 1.327 . S
C2467 C2483 1.429 . S
C2467 H2489 0.950 . S
C2468 H2464 0.949 . S
C2468 C2476 1.574 . S
C2468 C2484 1.368 . S
H2469 C2477 0.950 . S
H2470 C2475 0.950 . S
H2471 C2476 0.949 . S
H2472 C2478 0.950 . S
H2473 C2479 0.950 . S
H2474 C2480 0.949 . S
C2475 H2470 0.950 . S
C2475 C2477 1.327 . S
C2475 C2481 1.429 . S
C2476 C2468 1.574 . S
C2476 H2471 0.949 . S
C2476 C2482 1.368 . S
C2477 C2461 1.349 . S
C2477 H2469 0.950 . S
C2477 C2475 1.327 . S
C2478 C2466 1.349 . S
C2478 H2472 0.950 . S
C2478 C2479 1.327 . S
C2479 H2473 0.950 . S
C2479 C2478 1.327 . S
C2479 C2483 1.429 . S
C2480 C2463 1.574 . S
C2480 H2474 0.949 . S
C2480 C2484 1.368 . S
C2481 C2462 1.429 . S
C2481 C2475 1.429 . S
C2481 C2482 1.523 . S
C2482 C2463 1.368 . S
C2482 C2476 1.368 . S
C2482 C2481 1.523 . S
C2483 C2467 1.429 . S
C2483 C2479 1.429 . S
C2483 C2484 1.523 . S
C2484 C2468 1.368 . S
C2484 C2480 1.368 . S
C2484 C2483 1.523 . S
H2485 C2460 0.950 . S
H2486 C2462 0.950 . S
H2487 C2463 0.949 . S
H2488 C2465 0.950 . S
H2489 C2467 0.950 . S
C2490 C2491 1.349 . S
C2490 C2492 1.327 . S
C2490 H2515 0.950 . S
C2491 C2490 1.349 . S
C2491 C2507 1.349 . S
C2492 C2490 1.327 . S
C2492 C2511 1.429 . S
C2492 H2516 0.950 . S
C2493 C2510 1.574 . S
C2493 C2512 1.368 . S
C2493 H2517 0.949 . S
H2494 C2498 0.949 . S
C2495 C2496 1.349 . S
C2495 C2497 1.327 . S
C2495 H2518 0.950 . S
C2496 C2495 1.349 . S
C2496 C2508 1.349 . S
C2497 C2495 1.327 . S
C2497 C2513 1.429 . S
C2497 H2519 0.950 . S
C2498 H2494 0.949 . S
C2498 C2506 1.574 . S
C2498 C2514 1.368 . S
H2499 C2507 0.950 . S
H2500 C2505 0.950 . S
H2501 C2506 0.949 . S
H2502 C2508 0.950 . S
H2503 C2509 0.950 . S
H2504 C2510 0.949 . S
C2505 H2500 0.950 . S
C2505 C2507 1.327 . S
C2505 C2511 1.429 . S
C2506 C2498 1.574 . S
C2506 H2501 0.949 . S
C2506 C2512 1.368 . S
C2507 C2491 1.349 . S
C2507 H2499 0.950 . S
C2507 C2505 1.327 . S
C2508 C2496 1.349 . S
C2508 H2502 0.950 . S
C2508 C2509 1.327 . S
C2509 H2503 0.950 . S
C2509 C2508 1.327 . S
C2509 C2513 1.429 . S
C2510 C2493 1.574 . S
C2510 H2504 0.949 . S
C2510 C2514 1.368 . S
C2511 C2492 1.429 . S
C2511 C2505 1.429 . S
C2511 C2512 1.523 . S
C2512 C2493 1.368 . S
C2512 C2506 1.368 . S
C2512 C2511 1.523 . S
C2513 C2497 1.429 . S
C2513 C2509 1.429 . S
C2513 C2514 1.523 . S
C2514 C2498 1.368 . S
C2514 C2510 1.368 . S
C2514 C2513 1.523 . S
H2515 C2490 0.950 . S
H2516 C2492 0.950 . S
H2517 C2493 0.949 . S
H2518 C2495 0.950 . S
H2519 C2497 0.950 . S
C2520 C2521 1.349 . S
C2520 C2522 1.327 . S
C2520 H2545 0.950 . S
C2521 C2520 1.349 . S
C2521 C2537 1.349 . S
C2522 C2520 1.327 . S
C2522 C2541 1.429 . S
C2522 H2546 0.950 . S
C2523 C2540 1.574 . S
C2523 C2542 1.368 . S
C2523 H2547 0.949 . S
H2524 C2528 0.949 1_545 S
C2525 C2526 1.349 . S
C2525 C2527 1.327 . S
C2525 H2548 0.950 . S
C2526 C2525 1.349 . S
C2526 C2538 1.349 1_565 S
C2527 C2525 1.327 . S
C2527 C2543 1.429 . S
C2527 H2549 0.950 . S
C2528 H2524 0.949 1_565 S
C2528 C2536 1.574 . S
C2528 C2544 1.368 . S
H2529 C2537 0.950 . S
H2530 C2535 0.950 . S
H2531 C2536 0.949 . S
H2532 C2538 0.950 . S
H2533 C2539 0.946 1_545 S
H2534 C2540 0.949 . S
C2535 H2530 0.950 . S
C2535 C2537 1.327 . S
C2535 C2541 1.429 . S
C2536 C2528 1.574 . S
C2536 H2531 0.949 . S
C2536 C2542 1.368 . S
C2537 C2521 1.349 . S
C2537 H2529 0.950 . S
C2537 C2535 1.327 . S
C2538 C2526 1.349 1_545 S
C2538 H2532 0.950 . S
C2538 C2539 1.323 1_545 S
C2539 H2533 0.946 1_565 S
C2539 C2538 1.323 1_565 S
C2539 C2543 1.436 . S
C2540 C2523 1.574 . S
C2540 H2534 0.949 . S
C2540 C2544 1.368 . S
C2541 C2522 1.429 . S
C2541 C2535 1.429 . S
C2541 C2542 1.523 . S
C2542 C2523 1.368 . S
C2542 C2536 1.368 . S
C2542 C2541 1.523 . S
C2543 C2527 1.429 . S
C2543 C2539 1.436 . S
C2543 C2544 1.523 . S
C2544 C2528 1.368 . S
C2544 C2540 1.368 . S
C2544 C2543 1.523 . S
H2545 C2520 0.950 . S
H2546 C2522 0.950 . S
H2547 C2523 0.949 . S
H2548 C2525 0.950 . S
H2549 C2527 0.950 . S
C2550 C2551 1.349 1_655 S
C2550 C2552 1.327 . S
C2550 H2575 0.950 . S
C2551 C2550 1.349 1_455 S
C2551 C2567 1.349 . S
C2552 C2550 1.327 . S
C2552 C2571 1.429 1_655 S
C2552 H2576 0.950 . S
C2553 C2570 1.574 . S
C2553 C2572 1.368 . S
C2553 H2577 0.949 . S
H2554 C2558 0.949 . S
C2555 C2556 1.349 . S
C2555 C2557 1.327 . S
C2555 H2578 0.950 . S
C2556 C2555 1.349 . S
C2556 C2568 1.349 1_455 S
C2557 C2555 1.327 . S
C2557 C2573 1.429 . S
C2557 H2579 0.950 . S
C2558 H2554 0.949 . S
C2558 C2566 1.574 . S
C2558 C2574 1.368 1_655 S
H2559 C2567 0.950 . S
H2560 C2565 0.950 . S
H2561 C2566 0.949 . S
H2562 C2568 0.950 . S
H2563 C2569 0.950 . S
H2564 C2570 0.949 . S
C2565 H2560 0.950 . S
C2565 C2567 1.327 . S
C2565 C2571 1.429 . S
C2566 C2558 1.574 . S
C2566 H2561 0.949 . S
C2566 C2572 1.368 1_655 S
C2567 C2551 1.349 . S
C2567 H2559 0.950 . S
C2567 C2565 1.327 . S
C2568 C2556 1.349 1_655 S
C2568 H2562 0.950 . S
C2568 C2569 1.327 . S
C2569 H2563 0.950 . S
C2569 C2568 1.327 . S
C2569 C2573 1.429 1_655 S
C2570 C2553 1.574 . S
C2570 H2564 0.949 . S
C2570 C2574 1.368 . S
C2571 C2552 1.429 1_455 S
C2571 C2565 1.429 . S
C2571 C2572 1.523 . S
C2572 C2553 1.368 . S
C2572 C2566 1.368 1_455 S
C2572 C2571 1.523 . S
C2573 C2557 1.429 . S
C2573 C2569 1.429 1_455 S
C2573 C2574 1.523 . S
C2574 C2558 1.368 1_455 S
C2574 C2570 1.368 . S
C2574 C2573 1.523 . S
H2575 C2550 0.950 . S
H2576 C2552 0.950 . S
H2577 C2553 0.949 . S
H2578 C2555 0.950 . S
H2579 C2557 0.950 . S
C2580 C2581 1.349 . S
C2580 C2582 1.327 . S
C2580 H2605 0.950 . S
C2581 C2580 1.349 . S
C2581 C2597 1.349 . S
C2582 C2580 1.327 . S
C2582 C2601 1.429 . S
C2582 H2606 0.950 . S
C2583 C2600 1.574 . S
C2583 C2602 1.368 . S
C2583 H2607 0.949 . S
H2584 C2588 0.949 . S
C2585 C2586 1.349 . S
C2585 C2587 1.327 . S
C2585 H2608 0.950 . S
C2586 C2585 1.349 . S
C2586 C2598 1.349 . S
C2587 C2585 1.327 . S
C2587 C2603 1.429 . S
C2587 H2609 0.950 . S
C2588 H2584 0.949 . S
C2588 C2596 1.574 . S
C2588 C2604 1.368 . S
H2589 C2597 0.950 . S
H2590 C2595 0.950 . S
H2591 C2596 0.949 . S
H2592 C2598 0.950 . S
H2593 C2599 0.950 . S
H2594 C2600 0.949 . S
C2595 H2590 0.950 . S
C2595 C2597 1.327 . S
C2595 C2601 1.429 . S
C2596 C2588 1.574 . S
C2596 H2591 0.949 . S
C2596 C2602 1.368 . S
C2597 C2581 1.349 . S
C2597 H2589 0.950 . S
C2597 C2595 1.327 . S
C2598 C2586 1.349 . S
C2598 H2592 0.950 . S
C2598 C2599 1.327 . S
C2599 H2593 0.950 . S
C2599 C2598 1.327 . S
C2599 C2603 1.429 . S
C2600 C2583 1.574 . S
C2600 H2594 0.949 . S
C2600 C2604 1.368 . S
C2601 C2582 1.429 . S
C2601 C2595 1.429 . S
C2601 C2602 1.523 . S
C2602 C2583 1.368 . S
C2602 C2596 1.368 . S
C2602 C2601 1.523 . S
C2603 C2587 1.429 . S
C2603 C2599 1.429 . S
C2603 C2604 1.523 . S
C2604 C2588 1.368 . S
C2604 C2600 1.368 . S
C2604 C2603 1.523 . S
H2605 C2580 0.950 . S
H2606 C2582 0.950 . S
H2607 C2583 0.949 . S
H2608 C2585 0.950 . S
H2609 C2587 0.950 . S
C2610 C2611 1.349 . S
C2610 C2612 1.327 . S
C2610 H2635 0.950 . S
C2611 C2610 1.349 . S
C2611 C2627 1.349 . S
C2612 C2610 1.327 . S
C2612 C2631 1.429 . S
C2612 H2636 0.950 . S
C2613 C2630 1.574 . S
C2613 C2632 1.368 . S
C2613 H2637 0.949 . S
H2614 C2618 0.949 . S
C2615 C2616 1.349 . S
C2615 C2617 1.327 . S
C2615 H2638 0.950 . S
C2616 C2615 1.349 . S
C2616 C2628 1.349 . S
C2617 C2615 1.327 . S
C2617 C2633 1.429 . S
C2617 H2639 0.950 . S
C2618 H2614 0.949 . S
C2618 C2626 1.574 . S
C2618 C2634 1.368 . S
H2619 C2627 0.950 . S
H2620 C2625 0.950 . S
H2621 C2626 0.949 . S
H2622 C2628 0.950 . S
H2623 C2629 0.950 . S
H2624 C2630 0.949 . S
C2625 H2620 0.950 . S
C2625 C2627 1.327 . S
C2625 C2631 1.429 . S
C2626 C2618 1.574 . S
C2626 H2621 0.949 . S
C2626 C2632 1.368 . S
C2627 C2611 1.349 . S
C2627 H2619 0.950 . S
C2627 C2625 1.327 . S
C2628 C2616 1.349 . S
C2628 H2622 0.950 . S
C2628 C2629 1.327 . S
C2629 H2623 0.950 . S
C2629 C2628 1.327 . S
C2629 C2633 1.429 . S
C2630 C2613 1.574 . S
C2630 H2624 0.949 . S
C2630 C2634 1.368 . S
C2631 C2612 1.429 . S
C2631 C2625 1.429 . S
C2631 C2632 1.523 . S
C2632 C2613 1.368 . S
C2632 C2626 1.368 . S
C2632 C2631 1.523 . S
C2633 C2617 1.429 . S
C2633 C2629 1.429 . S
C2633 C2634 1.523 . S
C2634 C2618 1.368 . S
C2634 C2630 1.368 . S
C2634 C2633 1.523 . S
H2635 C2610 0.950 . S
H2636 C2612 0.950 . S
H2637 C2613 0.949 . S
H2638 C2615 0.950 . S
H2639 C2617 0.950 . S
C2640 C2641 1.349 . S
C2640 C2642 1.327 . S
C2640 H2665 0.950 . S
C2641 C2640 1.349 . S
C2641 C2657 1.349 . S
C2642 C2640 1.327 . S
C2642 C2661 1.429 . S
C2642 H2666 0.950 . S
C2643 C2660 1.574 . S
C2643 C2662 1.368 . S
C2643 H2667 0.949 . S
H2644 C2648 0.949 . S
C2645 C2646 1.349 . S
C2645 C2647 1.327 . S
C2645 H2668 0.950 . S
C2646 C2645 1.349 . S
C2646 C2658 1.349 . S
C2647 C2645 1.327 . S
C2647 C2663 1.429 . S
C2647 H2669 0.950 . S
C2648 H2644 0.949 . S
C2648 C2656 1.574 . S
C2648 C2664 1.368 . S
H2649 C2657 0.950 . S
H2650 C2655 0.950 . S
H2651 C2656 0.949 . S
H2652 C2658 0.950 . S
H2653 C2659 0.950 . S
H2654 C2660 0.949 . S
C2655 H2650 0.950 . S
C2655 C2657 1.327 . S
C2655 C2661 1.429 . S
C2656 C2648 1.574 . S
C2656 H2651 0.949 . S
C2656 C2662 1.368 . S
C2657 C2641 1.349 . S
C2657 H2649 0.950 . S
C2657 C2655 1.327 . S
C2658 C2646 1.349 . S
C2658 H2652 0.950 . S
C2658 C2659 1.327 . S
C2659 H2653 0.950 . S
C2659 C2658 1.327 . S
C2659 C2663 1.429 . S
C2660 C2643 1.574 . S
C2660 H2654 0.949 . S
C2660 C2664 1.368 . S
C2661 C2642 1.429 . S
C2661 C2655 1.429 . S
C2661 C2662 1.523 . S
C2662 C2643 1.368 . S
C2662 C2656 1.368 . S
C2662 C2661 1.523 . S
C2663 C2647 1.429 . S
C2663 C2659 1.429 . S
C2663 C2664 1.523 . S
C2664 C2648 1.368 . S
C2664 C2660 1.368 . S
C2664 C2663 1.523 . S
H2665 C2640 0.950 . S
H2666 C2642 0.950 . S
H2667 C2643 0.949 . S
H2668 C2645 0.950 . S
H2669 C2647 0.950 . S
C2670 C2671 1.349 . S
C2670 C2672 1.327 . S
C2670 H2695 0.950 . S
C2671 C2670 1.349 . S
C2671 C2687 1.349 . S
C2672 C2670 1.327 . S
C2672 C2691 1.429 . S
C2672 H2696 0.950 . S
C2673 C2690 1.574 . S
C2673 C2692 1.368 . S
C2673 H2697 0.949 . S
H2674 C2678 0.949 1_565 S
C2675 C2676 1.349 . S
C2675 C2677 1.327 . S
C2675 H2698 0.950 . S
C2676 C2675 1.349 . S
C2676 C2688 1.349 1_545 S
C2677 C2675 1.327 . S
C2677 C2693 1.429 . S
C2677 H2699 0.950 . S
C2678 H2674 0.949 1_545 S
C2678 C2686 1.574 . S
C2678 C2694 1.368 . S
H2679 C2687 0.950 . S
H2680 C2685 0.950 . S
H2681 C2686 0.949 . S
H2682 C2688 0.950 . S
H2683 C2689 0.922 1_565 S
H2684 C2690 0.949 . S
C2685 H2680 0.950 . S
C2685 C2687 1.327 . S
C2685 C2691 1.429 . S
C2686 C2678 1.574 . S
C2686 H2681 0.949 . S
C2686 C2692 1.368 . S
C2687 C2671 1.349 . S
C2687 H2679 0.950 . S
C2687 C2685 1.327 . S
C2688 C2676 1.349 1_565 S
C2688 H2682 0.950 . S
C2688 C2689 1.319 1_565 S
C2689 H2683 0.922 1_545 S
C2689 C2688 1.319 1_545 S
C2689 C2693 1.464 . S
C2690 C2673 1.574 . S
C2690 H2684 0.949 . S
C2690 C2694 1.368 . S
C2691 C2672 1.429 . S
C2691 C2685 1.429 . S
C2691 C2692 1.523 . S
C2692 C2673 1.368 . S
C2692 C2686 1.368 . S
C2692 C2691 1.523 . S
C2693 C2677 1.429 . S
C2693 C2689 1.464 . S
C2693 C2694 1.523 . S
C2694 C2678 1.368 . S
C2694 C2690 1.368 . S
C2694 C2693 1.523 . S
H2695 C2670 0.950 . S
H2696 C2672 0.950 . S
H2697 C2673 0.949 . S
H2698 C2675 0.950 . S
H2699 C2677 0.950 . S
C2700 C2701 1.349 . S
C2700 C2702 1.327 . S
C2700 H2725 0.950 . S
C2701 C2700 1.349 . S
C2701 C2717 1.349 . S
C2702 C2700 1.327 . S
C2702 C2721 1.429 . S
C2702 H2726 0.950 . S
C2703 C2720 1.574 . S
C2703 C2722 1.368 . S
C2703 H2727 0.949 . S
H2704 C2708 0.949 . S
C2705 C2706 1.349 . S
C2705 C2707 1.327 . S
C2705 H2728 0.950 . S
C2706 C2705 1.349 . S
C2706 C2718 1.349 . S
C2707 C2705 1.327 . S
C2707 C2723 1.429 . S
C2707 H2729 0.950 . S
C2708 H2704 0.949 . S
C2708 C2716 1.574 . S
C2708 C2724 1.368 . S
H2709 C2717 0.950 . S
H2710 C2715 0.950 . S
H2711 C2716 0.949 . S
H2712 C2718 0.950 . S
H2713 C2719 0.950 . S
H2714 C2720 0.949 . S
C2715 H2710 0.950 . S
C2715 C2717 1.327 . S
C2715 C2721 1.429 . S
C2716 C2708 1.574 . S
C2716 H2711 0.949 . S
C2716 C2722 1.368 . S
C2717 C2701 1.349 . S
C2717 H2709 0.950 . S
C2717 C2715 1.327 . S
C2718 C2706 1.349 . S
C2718 H2712 0.950 . S
C2718 C2719 1.327 . S
C2719 H2713 0.950 . S
C2719 C2718 1.327 . S
C2719 C2723 1.429 . S
C2720 C2703 1.574 . S
C2720 H2714 0.949 . S
C2720 C2724 1.368 . S
C2721 C2702 1.429 . S
C2721 C2715 1.429 . S
C2721 C2722 1.523 . S
C2722 C2703 1.368 . S
C2722 C2716 1.368 . S
C2722 C2721 1.523 . S
C2723 C2707 1.429 . S
C2723 C2719 1.429 . S
C2723 C2724 1.523 . S
C2724 C2708 1.368 . S
C2724 C2720 1.368 . S
C2724 C2723 1.523 . S
H2725 C2700 0.950 . S
H2726 C2702 0.950 . S
H2727 C2703 0.949 . S
H2728 C2705 0.950 . S
H2729 C2707 0.950 . S
C2730 C2731 1.349 . S
C2730 C2732 1.327 . S
C2730 H2755 0.950 . S
C2731 C2730 1.349 . S
C2731 C2747 1.349 . S
C2732 C2730 1.327 . S
C2732 C2751 1.429 . S
C2732 H2756 0.950 . S
C2733 C2750 1.574 . S
C2733 C2752 1.368 . S
C2733 H2757 0.949 . S
H2734 C2738 0.949 . S
C2735 C2736 1.349 . S
C2735 C2737 1.327 . S
C2735 H2758 0.950 . S
C2736 C2735 1.349 . S
C2736 C2748 1.349 . S
C2737 C2735 1.327 . S
C2737 C2753 1.429 . S
C2737 H2759 0.950 . S
C2738 H2734 0.949 . S
C2738 C2746 1.574 . S
C2738 C2754 1.368 . S
H2739 C2747 0.950 . S
H2740 C2745 0.950 . S
H2741 C2746 0.949 . S
H2742 C2748 0.950 . S
H2743 C2749 0.950 . S
H2744 C2750 0.949 . S
C2745 H2740 0.950 . S
C2745 C2747 1.327 . S
C2745 C2751 1.429 . S
C2746 C2738 1.574 . S
C2746 H2741 0.949 . S
C2746 C2752 1.368 . S
C2747 C2731 1.349 . S
C2747 H2739 0.950 . S
C2747 C2745 1.327 . S
C2748 C2736 1.349 . S
C2748 H2742 0.950 . S
C2748 C2749 1.327 . S
C2749 H2743 0.950 . S
C2749 C2748 1.327 . S
C2749 C2753 1.429 . S
C2750 C2733 1.574 . S
C2750 H2744 0.949 . S
C2750 C2754 1.368 . S
C2751 C2732 1.429 . S
C2751 C2745 1.429 . S
C2751 C2752 1.523 . S
C2752 C2733 1.368 . S
C2752 C2746 1.368 . S
C2752 C2751 1.523 . S
C2753 C2737 1.429 . S
C2753 C2749 1.429 . S
C2753 C2754 1.523 . S
C2754 C2738 1.368 . S
C2754 C2750 1.368 . S
C2754 C2753 1.523 . S
H2755 C2730 0.950 . S
H2756 C2732 0.950 . S
H2757 C2733 0.949 . S
H2758 C2735 0.950 . S
H2759 C2737 0.950 . S
C2760 C2761 1.349 . S
C2760 C2762 1.327 . S
C2760 H2785 0.950 . S
C2761 C2760 1.349 . S
C2761 C2777 1.349 . S
C2762 C2760 1.327 . S
C2762 C2781 1.429 . S
C2762 H2786 0.950 . S
C2763 C2780 1.574 . S
C2763 C2782 1.368 . S
C2763 H2787 0.949 . S
H2764 C2768 0.949 . S
C2765 C2766 1.349 . S
C2765 C2767 1.327 . S
C2765 H2788 0.950 . S
C2766 C2765 1.349 . S
C2766 C2778 1.349 . S
C2767 C2765 1.327 . S
C2767 C2783 1.429 . S
C2767 H2789 0.950 . S
C2768 H2764 0.949 . S
C2768 C2776 1.574 . S
C2768 C2784 1.368 . S
H2769 C2777 0.950 . S
H2770 C2775 0.950 . S
H2771 C2776 0.949 . S
H2772 C2778 0.950 . S
H2773 C2779 0.950 . S
H2774 C2780 0.949 . S
C2775 H2770 0.950 . S
C2775 C2777 1.327 . S
C2775 C2781 1.429 . S
C2776 C2768 1.574 . S
C2776 H2771 0.949 . S
C2776 C2782 1.368 . S
C2777 C2761 1.349 . S
C2777 H2769 0.950 . S
C2777 C2775 1.327 . S
C2778 C2766 1.349 . S
C2778 H2772 0.950 . S
C2778 C2779 1.327 . S
C2779 H2773 0.950 . S
C2779 C2778 1.327 . S
C2779 C2783 1.429 . S
C2780 C2763 1.574 . S
C2780 H2774 0.949 . S
C2780 C2784 1.368 . S
C2781 C2762 1.429 . S
C2781 C2775 1.429 . S
C2781 C2782 1.523 . S
C2782 C2763 1.368 . S
C2782 C2776 1.368 . S
C2782 C2781 1.523 . S
C2783 C2767 1.429 . S
C2783 C2779 1.429 . S
C2783 C2784 1.523 . S
C2784 C2768 1.368 . S
C2784 C2780 1.368 . S
C2784 C2783 1.523 . S
H2785 C2760 0.950 . S
H2786 C2762 0.950 . S
H2787 C2763 0.949 . S
H2788 C2765 0.950 . S
H2789 C2767 0.950 . S
C2790 C2791 1.349 . S
C2790 C2792 1.327 . S
C2790 H2815 0.950 . S
C2791 C2790 1.349 . S
C2791 C2807 1.349 . S
C2792 C2790 1.327 . S
C2792 C2811 1.429 . S
C2792 H2816 0.950 . S
C2793 C2810 1.574 . S
C2793 C2812 1.368 . S
C2793 H2817 0.949 . S
H2794 C2798 0.949 . S
C2795 C2796 1.349 . S
C2795 C2797 1.327 . S
C2795 H2818 0.950 . S
C2796 C2795 1.349 . S
C2796 C2808 1.349 . S
C2797 C2795 1.327 . S
C2797 C2813 1.429 . S
C2797 H2819 0.950 . S
C2798 H2794 0.949 . S
C2798 C2806 1.574 . S
C2798 C2814 1.368 . S
H2799 C2807 0.950 . S
H2800 C2805 0.950 . S
H2801 C2806 0.949 . S
H2802 C2808 0.950 . S
H2803 C2809 0.950 . S
H2804 C2810 0.949 . S
C2805 H2800 0.950 . S
C2805 C2807 1.327 . S
C2805 C2811 1.429 . S
C2806 C2798 1.574 . S
C2806 H2801 0.949 . S
C2806 C2812 1.368 . S
C2807 C2791 1.349 . S
C2807 H2799 0.950 . S
C2807 C2805 1.327 . S
C2808 C2796 1.349 . S
C2808 H2802 0.950 . S
C2808 C2809 1.327 . S
C2809 H2803 0.950 . S
C2809 C2808 1.327 . S
C2809 C2813 1.429 . S
C2810 C2793 1.574 . S
C2810 H2804 0.949 . S
C2810 C2814 1.368 . S
C2811 C2792 1.429 . S
C2811 C2805 1.429 . S
C2811 C2812 1.523 . S
C2812 C2793 1.368 . S
C2812 C2806 1.368 . S
C2812 C2811 1.523 . S
C2813 C2797 1.429 . S
C2813 C2809 1.429 . S
C2813 C2814 1.523 . S
C2814 C2798 1.368 . S
C2814 C2810 1.368 . S
C2814 C2813 1.523 . S
H2815 C2790 0.950 . S
H2816 C2792 0.950 . S
H2817 C2793 0.949 . S
H2818 C2795 0.950 . S
H2819 C2797 0.950 . S
C2820 C2821 1.349 . S
C2820 C2822 1.327 . S
C2820 H2845 0.950 . S
C2821 C2820 1.349 . S
C2821 C2837 1.349 . S
C2822 C2820 1.327 . S
C2822 C2841 1.429 . S
C2822 H2846 0.950 . S
C2823 C2840 1.574 . S
C2823 C2842 1.368 . S
C2823 H2847 0.949 . S
H2824 C2828 0.949 . S
C2825 C2826 1.349 . S
C2825 C2827 1.327 . S
C2825 H2848 0.950 . S
C2826 C2825 1.349 . S
C2826 C2838 1.349 . S
C2827 C2825 1.327 . S
C2827 C2843 1.429 . S
C2827 H2849 0.950 . S
C2828 H2824 0.949 . S
C2828 C2836 1.574 . S
C2828 C2844 1.368 . S
H2829 C2837 0.950 . S
H2830 C2835 0.950 . S
H2831 C2836 0.949 . S
H2832 C2838 0.950 . S
H2833 C2839 0.950 . S
H2834 C2840 0.949 . S
C2835 H2830 0.950 . S
C2835 C2837 1.327 . S
C2835 C2841 1.429 . S
C2836 C2828 1.574 . S
C2836 H2831 0.949 . S
C2836 C2842 1.368 . S
C2837 C2821 1.349 . S
C2837 H2829 0.950 . S
C2837 C2835 1.327 . S
C2838 C2826 1.349 . S
C2838 H2832 0.950 . S
C2838 C2839 1.327 . S
C2839 H2833 0.950 . S
C2839 C2838 1.327 . S
C2839 C2843 1.429 . S
C2840 C2823 1.574 . S
C2840 H2834 0.949 . S
C2840 C2844 1.368 . S
C2841 C2822 1.429 . S
C2841 C2835 1.429 . S
C2841 C2842 1.523 . S
C2842 C2823 1.368 . S
C2842 C2836 1.368 . S
C2842 C2841 1.523 . S
C2843 C2827 1.429 . S
C2843 C2839 1.429 . S
C2843 C2844 1.523 . S
C2844 C2828 1.368 . S
C2844 C2840 1.368 . S
C2844 C2843 1.523 . S
H2845 C2820 0.950 . S
H2846 C2822 0.950 . S
H2847 C2823 0.949 . S
H2848 C2825 0.950 . S
H2849 C2827 0.950 . S
C2850 C2851 1.349 . S
C2850 C2852 1.327 . S
C2850 H2875 0.950 . S
C2851 C2850 1.349 . S
C2851 C2867 1.349 . S
C2852 C2850 1.327 . S
C2852 C2871 1.429 . S
C2852 H2876 0.950 . S
C2853 C2870 1.574 . S
C2853 C2872 1.368 . S
C2853 H2877 0.949 . S
H2854 C2858 0.949 . S
C2855 C2856 1.349 . S
C2855 C2857 1.327 . S
C2855 H2878 0.950 . S
C2856 C2855 1.349 . S
C2856 C2868 1.349 . S
C2857 C2855 1.327 . S
C2857 C2873 1.429 . S
C2857 H2879 0.950 . S
C2858 H2854 0.949 . S
C2858 C2866 1.574 . S
C2858 C2874 1.368 . S
H2859 C2867 0.950 . S
H2860 C2865 0.950 . S
H2861 C2866 0.949 . S
H2862 C2868 0.950 . S
H2863 C2869 0.950 . S
H2864 C2870 0.949 . S
C2865 H2860 0.950 . S
C2865 C2867 1.327 . S
C2865 C2871 1.429 . S
C2866 C2858 1.574 . S
C2866 H2861 0.949 . S
C2866 C2872 1.368 . S
C2867 C2851 1.349 . S
C2867 H2859 0.950 . S
C2867 C2865 1.327 . S
C2868 C2856 1.349 . S
C2868 H2862 0.950 . S
C2868 C2869 1.327 . S
C2869 H2863 0.950 . S
C2869 C2868 1.327 . S
C2869 C2873 1.429 . S
C2870 C2853 1.574 . S
C2870 H2864 0.949 . S
C2870 C2874 1.368 . S
C2871 C2852 1.429 . S
C2871 C2865 1.429 . S
C2871 C2872 1.523 . S
C2872 C2853 1.368 . S
C2872 C2866 1.368 . S
C2872 C2871 1.523 . S
C2873 C2857 1.429 . S
C2873 C2869 1.429 . S
C2873 C2874 1.523 . S
C2874 C2858 1.368 . S
C2874 C2870 1.368 . S
C2874 C2873 1.523 . S
H2875 C2850 0.950 . S
H2876 C2852 0.950 . S
H2877 C2853 0.949 . S
H2878 C2855 0.950 . S
H2879 C2857 0.950 . S
C2880 C2881 1.349 . S
C2880 C2882 1.327 . S
C2880 H2905 0.950 . S
C2881 C2880 1.349 . S
C2881 C2897 1.349 . S
C2882 C2880 1.327 . S
C2882 C2901 1.429 . S
C2882 H2906 0.950 . S
C2883 C2900 1.574 . S
C2883 C2902 1.368 . S
C2883 H2907 0.949 . S
H2884 C2888 0.949 . S
C2885 C2886 1.349 . S
C2885 C2887 1.327 . S
C2885 H2908 0.950 . S
C2886 C2885 1.349 . S
C2886 C2898 1.349 . S
C2887 C2885 1.327 . S
C2887 C2903 1.429 . S
C2887 H2909 0.950 . S
C2888 H2884 0.949 . S
C2888 C2896 1.574 . S
C2888 C2904 1.368 . S
H2889 C2897 0.950 . S
H2890 C2895 0.950 . S
H2891 C2896 0.949 . S
H2892 C2898 0.950 . S
H2893 C2899 0.950 . S
H2894 C2900 0.949 . S
C2895 H2890 0.950 . S
C2895 C2897 1.327 . S
C2895 C2901 1.429 . S
C2896 C2888 1.574 . S
C2896 H2891 0.949 . S
C2896 C2902 1.368 . S
C2897 C2881 1.349 . S
C2897 H2889 0.950 . S
C2897 C2895 1.327 . S
C2898 C2886 1.349 . S
C2898 H2892 0.950 . S
C2898 C2899 1.327 . S
C2899 H2893 0.950 . S
C2899 C2898 1.327 . S
C2899 C2903 1.429 . S
C2900 C2883 1.574 . S
C2900 H2894 0.949 . S
C2900 C2904 1.368 . S
C2901 C2882 1.429 . S
C2901 C2895 1.429 . S
C2901 C2902 1.523 . S
C2902 C2883 1.368 . S
C2902 C2896 1.368 . S
C2902 C2901 1.523 . S
C2903 C2887 1.429 . S
C2903 C2899 1.429 . S
C2903 C2904 1.523 . S
C2904 C2888 1.368 . S
C2904 C2900 1.368 . S
C2904 C2903 1.523 . S
H2905 C2880 0.950 . S
H2906 C2882 0.950 . S
H2907 C2883 0.949 . S
H2908 C2885 0.950 . S
H2909 C2887 0.950 . S
C2910 C2911 1.349 . S
C2910 C2912 1.327 . S
C2910 H2935 0.950 . S
C2911 C2910 1.349 . S
C2911 C2927 1.349 . S
C2912 C2910 1.327 . S
C2912 C2931 1.429 . S
C2912 H2936 0.950 . S
C2913 C2930 1.574 . S
C2913 C2932 1.368 . S
C2913 H2937 0.949 . S
H2914 C2918 0.949 . S
C2915 C2916 1.349 . S
C2915 C2917 1.327 . S
C2915 H2938 0.950 . S
C2916 C2915 1.349 . S
C2916 C2928 1.349 . S
C2917 C2915 1.327 . S
C2917 C2933 1.429 . S
C2917 H2939 0.950 . S
C2918 H2914 0.949 . S
C2918 C2926 1.574 . S
C2918 C2934 1.368 . S
H2919 C2927 0.950 . S
H2920 C2925 0.950 . S
H2921 C2926 0.949 . S
H2922 C2928 0.950 . S
H2923 C2929 0.950 . S
H2924 C2930 0.949 . S
C2925 H2920 0.950 . S
C2925 C2927 1.327 . S
C2925 C2931 1.429 . S
C2926 C2918 1.574 . S
C2926 H2921 0.949 . S
C2926 C2932 1.368 . S
C2927 C2911 1.349 . S
C2927 H2919 0.950 . S
C2927 C2925 1.327 . S
C2928 C2916 1.349 . S
C2928 H2922 0.950 . S
C2928 C2929 1.327 . S
C2929 H2923 0.950 . S
C2929 C2928 1.327 . S
C2929 C2933 1.429 . S
C2930 C2913 1.574 . S
C2930 H2924 0.949 . S
C2930 C2934 1.368 . S
C2931 C2912 1.429 . S
C2931 C2925 1.429 . S
C2931 C2932 1.523 . S
C2932 C2913 1.368 . S
C2932 C2926 1.368 . S
C2932 C2931 1.523 . S
C2933 C2917 1.429 . S
C2933 C2929 1.429 . S
C2933 C2934 1.523 . S
C2934 C2918 1.368 . S
C2934 C2930 1.368 . S
C2934 C2933 1.523 . S
H2935 C2910 0.950 . S
H2936 C2912 0.950 . S
H2937 C2913 0.949 . S
H2938 C2915 0.950 . S
H2939 C2917 0.950 . S
C2940 C2941 1.349 . S
C2940 C2942 1.327 . S
C2940 H2965 0.950 . S
C2941 C2940 1.349 . S
C2941 C2957 1.349 . S
C2942 C2940 1.327 . S
C2942 C2961 1.429 . S
C2942 H2966 0.950 . S
C2943 C2960 1.574 . S
C2943 C2962 1.368 . S
C2943 H2967 0.949 . S
H2944 C2948 0.949 . S
C2945 C2946 1.349 . S
C2945 C2947 1.327 . S
C2945 H2968 0.950 . S
C2946 C2945 1.349 . S
C2946 C2958 1.349 . S
C2947 C2945 1.327 . S
C2947 C2963 1.429 . S
C2947 H2969 0.950 . S
C2948 H2944 0.949 . S
C2948 C2956 1.574 . S
C2948 C2964 1.368 . S
H2949 C2957 0.950 . S
H2950 C2955 0.950 . S
H2951 C2956 0.949 . S
H2952 C2958 0.950 . S
H2953 C2959 0.950 . S
H2954 C2960 0.949 . S
C2955 H2950 0.950 . S
C2955 C2957 1.327 . S
C2955 C2961 1.429 . S
C2956 C2948 1.574 . S
C2956 H2951 0.949 . S
C2956 C2962 1.368 . S
C2957 C2941 1.349 . S
C2957 H2949 0.950 . S
C2957 C2955 1.327 . S
C2958 C2946 1.349 . S
C2958 H2952 0.950 . S
C2958 C2959 1.327 . S
C2959 H2953 0.950 . S
C2959 C2958 1.327 . S
C2959 C2963 1.429 . S
C2960 C2943 1.574 . S
C2960 H2954 0.949 . S
C2960 C2964 1.368 . S
C2961 C2942 1.429 . S
C2961 C2955 1.429 . S
C2961 C2962 1.523 . S
C2962 C2943 1.368 . S
C2962 C2956 1.368 . S
C2962 C2961 1.523 . S
C2963 C2947 1.429 . S
C2963 C2959 1.429 . S
C2963 C2964 1.523 . S
C2964 C2948 1.368 . S
C2964 C2960 1.368 . S
C2964 C2963 1.523 . S
H2965 C2940 0.950 . S
H2966 C2942 0.950 . S
H2967 C2943 0.949 . S
H2968 C2945 0.950 . S
H2969 C2947 0.950 . S
C2970 C2971 1.349 . S
C2970 C2972 1.327 . S
C2970 H2995 0.950 . S
C2971 C2970 1.349 . S
C2971 C2987 1.349 . S
C2972 C2970 1.327 . S
C2972 C2991 1.429 . S
C2972 H2996 0.950 . S
C2973 C2990 1.574 . S
C2973 C2992 1.368 . S
C2973 H2997 0.949 . S
H2974 C2978 0.949 . S
C2975 C2976 1.349 . S
C2975 C2977 1.327 . S
C2975 H2998 0.950 . S
C2976 C2975 1.349 . S
C2976 C2988 1.349 . S
C2977 C2975 1.327 . S
C2977 C2993 1.429 . S
C2977 H2999 0.950 . S
C2978 H2974 0.949 . S
C2978 C2986 1.574 . S
C2978 C2994 1.368 . S
H2979 C2987 0.950 . S
H2980 C2985 0.950 . S
H2981 C2986 0.949 . S
H2982 C2988 0.950 . S
H2983 C2989 0.950 . S
H2984 C2990 0.949 . S
C2985 H2980 0.950 . S
C2985 C2987 1.327 . S
C2985 C2991 1.429 . S
C2986 C2978 1.574 . S
C2986 H2981 0.949 . S
C2986 C2992 1.368 . S
C2987 C2971 1.349 . S
C2987 H2979 0.950 . S
C2987 C2985 1.327 . S
C2988 C2976 1.349 . S
C2988 H2982 0.950 . S
C2988 C2989 1.327 . S
C2989 H2983 0.950 . S
C2989 C2988 1.327 . S
C2989 C2993 1.429 . S
C2990 C2973 1.574 . S
C2990 H2984 0.949 . S
C2990 C2994 1.368 . S
C2991 C2972 1.429 . S
C2991 C2985 1.429 . S
C2991 C2992 1.523 . S
C2992 C2973 1.368 . S
C2992 C2986 1.368 . S
C2992 C2991 1.523 . S
C2993 C2977 1.429 . S
C2993 C2989 1.429 . S
C2993 C2994 1.523 . S
C2994 C2978 1.368 . S
C2994 C2990 1.368 . S
C2994 C2993 1.523 . S
H2995 C2970 0.950 . S
H2996 C2972 0.950 . S
H2997 C2973 0.949 . S
H2998 C2975 0.950 . S
H2999 C2977 0.950 . S
C3000 C3001 1.349 . S
C3000 C3002 1.327 . S
C3000 H3025 0.950 . S
C3001 C3000 1.349 . S
C3001 C3017 1.349 . S
C3002 C3000 1.327 . S
C3002 C3021 1.429 . S
C3002 H3026 0.950 . S
C3003 C3020 1.574 . S
C3003 C3022 1.368 . S
C3003 H3027 0.949 . S
H3004 C3008 0.949 . S
C3005 C3006 1.349 . S
C3005 C3007 1.327 . S
C3005 H3028 0.950 . S
C3006 C3005 1.349 . S
C3006 C3018 1.349 . S
C3007 C3005 1.327 . S
C3007 C3023 1.429 . S
C3007 H3029 0.950 . S
C3008 H3004 0.949 . S
C3008 C3016 1.574 . S
C3008 C3024 1.368 . S
H3009 C3017 0.950 . S
H3010 C3015 0.950 . S
H3011 C3016 0.949 . S
H3012 C3018 0.950 . S
H3013 C3019 0.950 . S
H3014 C3020 0.949 . S
C3015 H3010 0.950 . S
C3015 C3017 1.327 . S
C3015 C3021 1.429 . S
C3016 C3008 1.574 . S
C3016 H3011 0.949 . S
C3016 C3022 1.368 . S
C3017 C3001 1.349 . S
C3017 H3009 0.950 . S
C3017 C3015 1.327 . S
C3018 C3006 1.349 . S
C3018 H3012 0.950 . S
C3018 C3019 1.327 . S
C3019 H3013 0.950 . S
C3019 C3018 1.327 . S
C3019 C3023 1.429 . S
C3020 C3003 1.574 . S
C3020 H3014 0.949 . S
C3020 C3024 1.368 . S
C3021 C3002 1.429 . S
C3021 C3015 1.429 . S
C3021 C3022 1.523 . S
C3022 C3003 1.368 . S
C3022 C3016 1.368 . S
C3022 C3021 1.523 . S
C3023 C3007 1.429 . S
C3023 C3019 1.429 . S
C3023 C3024 1.523 . S
C3024 C3008 1.368 . S
C3024 C3020 1.368 . S
C3024 C3023 1.523 . S
H3025 C3000 0.950 . S
H3026 C3002 0.950 . S
H3027 C3003 0.949 . S
H3028 C3005 0.950 . S
H3029 C3007 0.950 . S
C3030 C3031 1.349 . S
C3030 C3032 1.327 . S
C3030 H3055 0.950 . S
C3031 C3030 1.349 . S
C3031 C3047 1.349 . S
C3032 C3030 1.327 . S
C3032 C3051 1.429 . S
C3032 H3056 0.950 . S
C3033 C3050 1.574 . S
C3033 C3052 1.368 . S
C3033 H3057 0.949 . S
H3034 C3038 0.949 . S
C3035 C3036 1.349 . S
C3035 C3037 1.327 . S
C3035 H3058 0.950 . S
C3036 C3035 1.349 . S
C3036 C3048 1.349 . S
C3037 C3035 1.327 . S
C3037 C3053 1.429 . S
C3037 H3059 0.950 . S
C3038 H3034 0.949 . S
C3038 C3046 1.574 . S
C3038 C3054 1.368 . S
H3039 C3047 0.950 . S
H3040 C3045 0.950 . S
H3041 C3046 0.949 . S
H3042 C3048 0.950 . S
H3043 C3049 0.950 . S
H3044 C3050 0.949 . S
C3045 H3040 0.950 . S
C3045 C3047 1.327 . S
C3045 C3051 1.429 . S
C3046 C3038 1.574 . S
C3046 H3041 0.949 . S
C3046 C3052 1.368 . S
C3047 C3031 1.349 . S
C3047 H3039 0.950 . S
C3047 C3045 1.327 . S
C3048 C3036 1.349 . S
C3048 H3042 0.950 . S
C3048 C3049 1.327 . S
C3049 H3043 0.950 . S
C3049 C3048 1.327 . S
C3049 C3053 1.429 . S
C3050 C3033 1.574 . S
C3050 H3044 0.949 . S
C3050 C3054 1.368 . S
C3051 C3032 1.429 . S
C3051 C3045 1.429 . S
C3051 C3052 1.523 . S
C3052 C3033 1.368 . S
C3052 C3046 1.368 . S
C3052 C3051 1.523 . S
C3053 C3037 1.429 . S
C3053 C3049 1.429 . S
C3053 C3054 1.523 . S
C3054 C3038 1.368 . S
C3054 C3050 1.368 . S
C3054 C3053 1.523 . S
H3055 C3030 0.950 . S
H3056 C3032 0.950 . S
H3057 C3033 0.949 . S
H3058 C3035 0.950 . S
H3059 C3037 0.950 . S
C1441 C781 1.657 . S
C1446 C1083 1.668 . S
C1471 C871 1.790 . S
C1476 C1123 1.827 . S
C1501 C751 1.686 . S
C1506 C1175 1.730 . S
C1531 C691 1.504 . S
C1536 C1135 1.534 . S
C1566 C1163 1.440 . S
C1561 C571 1.385 . S
C1591 C601 1.332 . S
C1596 C1095 1.345 . S
C1626 C1102 1.667 . S
C1621 C661 1.602 . S
C1656 C1142 1.831 . S
C1651 C541 1.780 . S
C1681 C631 1.752 . S
C1686 C1162 1.730 . S
C1711 C811 1.553 . S
C1716 C1122 1.534 . S
C1741 C841 1.406 . S
C1746 C1182 1.440 . S
C1776 C1082 1.348 . S
C1771 C721 1.281 . S
C1806 C1203 1.667 . S
C1801 C61 1.657 . S
C1831 C151 1.790 . S
C1836 C1243 1.832 . S
C1861 C31 1.687 . S
C1866 C1295 1.730 . S
C1891 C1051 1.504 . S
C1896 C1255 1.533 . S
C1921 C931 1.384 . S
C1926 C1283 1.439 . S
C1951 C961 1.332 . S
C1956 C1215 1.348 . S
C1981 C1021 1.603 . S
C1986 C1222 1.668 . S
C2011 C901 1.776 . S
C2016 C1262 1.831 . S
C2046 C1282 1.730 . S
C2041 C991 1.752 . S
C2071 C91 1.553 . S
C2076 C1242 1.534 . S
C2106 C1302 1.440 . S
C2101 C121 1.406 . S
C2131 C1 1.277 . S
C2136 C1202 1.348 . S
C2166 C1323 1.667 . S
C2161 C421 1.657 . S
C2191 C511 1.790 . S
C2196 C1363 1.831 . S
C2226 C1415 1.730 . S
C2221 C391 1.686 . S
C2256 C1375 1.534 . S
C2251 C331 1.504 . S
C2286 C1403 1.439 . S
C2281 C211 1.384 . S
C2311 C241 1.332 . S
C2316 C1335 1.348 . S
C2341 C301 1.602 . S
C2346 C1342 1.667 . S
C2371 C181 1.776 . S
C2376 C1382 1.831 . S
C2406 C1402 1.730 . S
C2401 C271 1.752 . S
C2431 C451 1.552 . S
C2436 C1362 1.533 . S
C2461 C481 1.406 . S
C2466 C1422 1.440 . S
C2491 C361 1.277 . S
C2496 C1322 1.348 . S
C2521 C920 1.233 . S
C2526 C1106 1.249 . S
C2556 C1146 1.906 . S
C2551 C980 1.906 . S
C2581 C1040 1.522 . S
C2586 C1169 1.579 . S
C2611 C380 1.851 . S
C2616 C1129 1.906 . S
C2641 C440 1.555 . S
C2646 C1186 1.579 . S
C2676 C1089 1.249 . S
C2671 C500 1.228 . S
C2701 C200 1.233 . S
C2706 C1226 1.248 . S
C2731 C260 1.905 . S
C2736 C1266 1.906 . S
C2761 C320 1.522 . S
C2766 C1289 1.580 . S
C2791 C740 1.851 . S
C2796 C1249 1.906 . S
C2826 C1306 1.579 . S
C2821 C800 1.555 . S
C2851 C860 1.230 . S
C2856 C1209 1.249 . S
C2881 C560 1.233 . S
C2886 C1346 1.248 . S
C2911 C620 1.905 . S
C2916 C1386 1.906 . S
C2946 C1409 1.580 . S
C2941 C680 1.522 . S
C2971 C20 1.851 . S
C2976 C1369 1.906 . S
C3001 C80 1.555 . S
C3006 C1426 1.579 . S
C3031 C140 1.230 . S
C3036 C1329 1.249 . S
