# Generated by pormake.
# Topology zzz, (3,6)-cn, num edge types: 1
# Building blocks:
#     Node 0, Type 0, BuildingBlock: BETDAH_clean_linker_0, # of connection points: 3
#     Node 1, Type 0, BuildingBlock: BETDAH_clean_linker_0, # of connection points: 3
#     Node 2, Type 0, BuildingBlock: BETDAH_clean_linker_0, # of connection points: 3
#     Node 3, Type 0, BuildingBlock: BETDAH_clean_linker_0, # of connection points: 3
#     Node 4, Type 0, BuildingBlock: BETDAH_clean_linker_0, # of connection points: 3
#     Node 5, Type 0, BuildingBlock: BETDAH_clean_linker_0, # of connection points: 3
#     Node 6, Type 0, BuildingBlock: BETDAH_clean_linker_0, # of connection points: 3
#     Node 7, Type 0, BuildingBlock: BETDAH_clean_linker_0, # of connection points: 3
#     Node 8, Type 1, BuildingBlock: BETDIP_clean_sbu_0, # of connection points: 6
#     Node 9, Type 1, BuildingBlock: BETDIP_clean_sbu_0, # of connection points: 6
#     Node 10, Type 1, BuildingBlock: BETDIP_clean_sbu_0, # of connection points: 6
#     Node 11, Type 1, BuildingBlock: BETDIP_clean_sbu_0, # of connection points: 6
#     Edge 12, Type (0, 1), BuildingBlock: ZUJKAS_clean_linker_0, # of connection points: 2
#     Edge 13, Type (0, 1), BuildingBlock: ZUJKAS_clean_linker_0, # of connection points: 2
#     Edge 14, Type (0, 1), BuildingBlock: ZUJKAS_clean_linker_0, # of connection points: 2
#     Edge 15, Type (0, 1), BuildingBlock: ZUJKAS_clean_linker_0, # of connection points: 2
#     Edge 16, Type (0, 1), BuildingBlock: ZUJKAS_clean_linker_0, # of connection points: 2
#     Edge 17, Type (0, 1), BuildingBlock: ZUJKAS_clean_linker_0, # of connection points: 2
#     Edge 18, Type (0, 1), BuildingBlock: ZUJKAS_clean_linker_0, # of connection points: 2
#     Edge 19, Type (0, 1), BuildingBlock: ZUJKAS_clean_linker_0, # of connection points: 2
#     Edge 20, Type (0, 1), BuildingBlock: ZUJKAS_clean_linker_0, # of connection points: 2
#     Edge 21, Type (0, 1), BuildingBlock: ZUJKAS_clean_linker_0, # of connection points: 2
#     Edge 22, Type (0, 1), BuildingBlock: ZUJKAS_clean_linker_0, # of connection points: 2
#     Edge 23, Type (0, 1), BuildingBlock: ZUJKAS_clean_linker_0, # of connection points: 2
#     Edge 24, Type (0, 1), BuildingBlock: ZUJKAS_clean_linker_0, # of connection points: 2
#     Edge 25, Type (0, 1), BuildingBlock: ZUJKAS_clean_linker_0, # of connection points: 2
#     Edge 26, Type (0, 1), BuildingBlock: ZUJKAS_clean_linker_0, # of connection points: 2
#     Edge 27, Type (0, 1), BuildingBlock: ZUJKAS_clean_linker_0, # of connection points: 2
#     Edge 28, Type (0, 1), BuildingBlock: ZUJKAS_clean_linker_0, # of connection points: 2
#     Edge 29, Type (0, 1), BuildingBlock: ZUJKAS_clean_linker_0, # of connection points: 2
#     Edge 30, Type (0, 1), BuildingBlock: ZUJKAS_clean_linker_0, # of connection points: 2
#     Edge 31, Type (0, 1), BuildingBlock: ZUJKAS_clean_linker_0, # of connection points: 2
#     Edge 32, Type (0, 1), BuildingBlock: ZUJKAS_clean_linker_0, # of connection points: 2
#     Edge 33, Type (0, 1), BuildingBlock: ZUJKAS_clean_linker_0, # of connection points: 2
#     Edge 34, Type (0, 1), BuildingBlock: ZUJKAS_clean_linker_0, # of connection points: 2
#     Edge 35, Type (0, 1), BuildingBlock: ZUJKAS_clean_linker_0, # of connection points: 2
# Relax obj value: 0.221
# Max RMSD: 0.153
# Mean RMSD: 0.146
data_MOF--net-zzz--node1-BETDIP_clean_sbu_0--node2-BETDAH_clean_linker_0--edge1-ZUJKAS_clean_linker_0
_symmetry_space_group_name_H-M    P1
_symmetry_Int_Tables_number       1
_symmetry_cell_setting            triclinic
loop_
_symmetry_equiv_pos_as_xyz
'x, y, z'
_cell_length_a     68.382669
_cell_length_b     68.428558
_cell_length_c     17.589521
_cell_angle_alpha  89.846418
_cell_angle_beta   89.945616
_cell_angle_gamma 90.038377
loop_
_atom_site_label
_atom_site_type_symbol
_atom_site_fract_x
_atom_site_fract_y
_atom_site_fract_z
_atom_type_partial_charge
H0 H 0.79714 0.50603 0.22531 0.0
H1 H 0.73602 0.50944 0.17318 0.0
H2 H 0.75529 0.51125 0.40698 0.0
C3 C 0.78212 0.50735 0.24464 0.0
C4 C 0.77823 0.50837 0.32279 0.0
C5 C 0.767 0.50789 0.19088 0.0
C6 C 0.74757 0.50922 0.21525 0.0
C7 C 0.74315 0.51061 0.29323 0.0
C8 C 0.7586 0.51034 0.34685 0.0
N9 N 0.7234 0.51219 0.31891 0.0
C10 C 0.7071 0.51232 0.27076 0.0
H11 H 0.03001 0.79046 0.24443 0.0
H12 H 0.02326 0.73025 0.18252 0.0
H13 H 0.99366 0.75295 0.38068 0.0
C14 C 0.02398 0.77611 0.25624 0.0
C15 C 0.01138 0.77376 0.31839 0.0
C16 C 0.02842 0.76052 0.20752 0.0
C17 C 0.02004 0.74215 0.22104 0.0
C18 C 0.00758 0.7392 0.28387 0.0
C19 C 1.00347 0.75506 0.33295 0.0
N20 N 0.99871 0.72065 0.29792 0.0
C21 C 1.00042 0.70448 0.24978 0.0
H22 H 0.71996 0.02317 0.26176 0.0
H23 H 0.77968 0.01663 0.19257 0.0
H24 H 0.75713 0.98286 0.38164 0.0
C25 C 0.73416 0.01642 0.27029 0.0
C26 C 0.73646 1.00235 0.32743 0.0
C27 C 0.74966 0.02162 0.22241 0.0
C28 C 0.76794 0.01275 0.23116 0.0
C29 C 0.77086 0.9988 0.28917 0.0
C30 C 0.75507 0.9938 0.33774 0.0
N31 N 0.78927 0.98929 0.29887 0.0
C32 C 0.80538 0.99171 0.25059 0.0
H33 H 0.50056 0.71644 0.23609 0.0
H34 H 0.50706 0.77686 0.1769 0.0
H35 H 0.5172 0.75781 0.4081 0.0
C36 C 0.504 0.73129 0.25306 0.0
C37 C 0.50865 0.73516 0.32909 0.0
C38 C 0.50354 0.7462 0.19837 0.0
C39 C 0.50765 0.76545 0.21961 0.0
C40 C 0.51282 0.76979 0.29524 0.0
C41 C 0.51343 0.75452 0.34972 0.0
N42 N 0.51737 0.78928 0.31783 0.0
C43 C 0.51685 0.80543 0.26892 0.0
H44 H 0.22679 0.53664 0.14256 0.0
H45 H 0.28305 0.52169 0.23221 0.0
H46 H 0.26138 0.49261 0.03141 0.0
C47 C 0.24032 0.52847 0.1372 0.0
C48 C 0.24224 0.51461 0.07913 0.0
C49 C 0.25489 0.53093 0.19223 0.0
C50 C 0.27205 0.51985 0.18853 0.0
C51 C 0.27474 0.50623 0.12958 0.0
C52 C 0.25959 0.50341 0.07579 0.0
N53 N 0.29225 0.49498 0.12396 0.0
C54 C 0.30838 0.49689 0.17242 0.0
H55 H 0.01011 0.21563 0.20543 0.0
H56 H 0.0087 0.27714 0.24908 0.0
H57 H 0.01878 0.25619 0.02087 0.0
C58 C 0.01164 0.23049 0.1846 0.0
C59 C 0.015 0.23378 0.10688 0.0
C60 C 0.00931 0.24604 0.23556 0.0
C61 C 0.01055 0.26528 0.20908 0.0
C62 C 0.01423 0.26914 0.13175 0.0
C63 C 0.01612 0.25329 0.08057 0.0
N64 N 0.0161 0.28872 0.1045 0.0
C65 C 0.01576 0.3052 0.15149 0.0
H66 H 0.29019 0.99056 0.15224 0.0
H67 H 0.22969 0.9951 0.21448 0.0
H68 H 0.25104 0.02356 0.01085 0.0
C69 C 0.27553 0.99571 0.13971 0.0
C70 C 0.27257 0.00745 0.07561 0.0
C71 C 0.26015 0.99107 0.18937 0.0
C72 C 0.2414 0.99845 0.17509 0.0
C73 C 0.23788 0.01009 0.11025 0.0
C74 C 0.25356 0.01439 0.06018 0.0
N75 N 0.21894 0.0179 0.09495 0.0
C76 C 0.20274 0.01583 0.14302 0.0
H77 H 0.5085 0.29229 0.19584 0.0
H78 H 0.50245 0.23179 0.25447 0.0
H79 H 0.4954 0.25045 0.02115 0.0
C80 C 0.50556 0.27735 0.17866 0.0
C81 C 0.50211 0.27329 0.1019 0.0
C82 C 0.50552 0.26249 0.23361 0.0
C83 C 0.50224 0.24314 0.21161 0.0
C84 C 0.4984 0.2386 0.13498 0.0
C85 C 0.49818 0.25383 0.0803 0.0
N86 N 0.49487 0.21896 0.11155 0.0
C87 C 0.49527 0.20274 0.16017 0.0
Tb88 Tb 0.01643 0.9966 0.78371 0.0
Tb89 Tb 0.99559 0.01035 0.63819 0.0
C90 C 0.02251 0.97791 0.90303 0.0
C91 C 0.03291 0.95921 0.90857 0.0
C92 C 0.02973 0.94657 0.97004 0.0
C93 C 0.03716 0.92752 0.96818 0.0
C94 C 0.04772 0.92085 0.90445 0.0
C95 C 0.05144 0.93385 0.84437 0.0
C96 C 0.04407 0.95281 0.84638 0.0
C97 C 0.04239 1.00157 0.67129 0.0
C98 C 1.00634 0.96639 0.64882 0.0
C99 C 0.98478 0.03027 0.52668 0.0
C100 C 0.97841 0.05079 0.52645 0.0
C101 C 0.98625 0.06381 0.47304 0.0
C102 C 0.9836 0.0839 0.48182 0.0
C103 C 0.97315 0.09131 0.5445 0.0
C104 C 0.96419 0.07816 0.59501 0.0
C105 C 0.96691 0.05808 0.5864 0.0
C106 C 0.97267 0.99795 0.74987 0.0
C107 C 0.00866 0.04165 0.7676 0.0
O108 O 1.00599 0.97687 0.86535 0.0
O109 O 0.03323 0.99296 0.88236 0.0
O110 O 0.02414 1.00344 0.67069 0.0
O111 O 0.04686 0.99692 0.74043 0.0
O112 O 0.00926 0.96943 0.7225 0.0
O113 O 1.00327 0.98104 0.60082 0.0
O114 O 1.00322 0.02764 0.544 0.0
O115 O 0.97328 0.01795 0.56207 0.0
O116 O 0.98806 0.00803 0.75668 0.0
O117 O 0.96944 0.99514 0.67813 0.0
O118 O 1.00152 0.03806 0.69864 0.0
O119 O 0.01425 0.0274 0.81405 0.0
H120 H 0.02087 0.95115 0.01786 0.0
H121 H 0.03384 0.91774 0.01494 0.0
H122 H 0.05963 0.9292 0.79486 0.0
H123 H 0.04643 0.96219 0.79767 0.0
H124 H 0.99521 0.05849 0.42664 0.0
H125 H 0.99025 0.09368 0.44073 0.0
H126 H 0.95615 0.08339 0.64399 0.0
H127 H 0.96092 0.04836 0.6292 0.0
Tb128 Tb 0.51333 0.01325 0.77908 0.0
Tb129 Tb 0.4982 0.99394 0.64381 0.0
C130 C 0.52517 0.02502 0.90565 0.0
C131 C 0.54508 0.03076 0.92831 0.0
C132 C 0.56125 0.01984 0.90357 0.0
C133 C 0.5802 0.02653 0.91632 0.0
C134 C 0.58344 0.04428 0.95425 0.0
C135 C 0.56726 0.0551 0.98002 0.0
C136 C 0.54822 0.04837 0.96709 0.0
C137 C 0.51127 0.0361 0.65794 0.0
C138 C 0.54441 0.99853 0.66293 0.0
C139 C 0.48522 0.98301 0.51822 0.0
C140 C 0.46444 0.97991 0.49935 0.0
C141 C 0.45054 0.99429 0.51776 0.0
C142 C 0.43066 0.98994 0.51676 0.0
C143 C 0.42418 0.97114 0.49739 0.0
C144 C 0.43793 0.95708 0.47449 0.0
C145 C 0.45795 0.96141 0.47579 0.0
C146 C 0.50017 0.97107 0.76526 0.0
C147 C 0.46715 0.00852 0.75955 0.0
O148 O 0.52255 1.0065 0.88973 0.0
O149 O 0.51702 0.03649 0.85539 0.0
O150 O 0.49864 0.02371 0.6786 0.0
O151 O 0.52532 0.03634 0.70704 0.0
O152 O 0.54129 1.00329 0.73463 0.0
O153 O 0.5296 0.9958 0.61554 0.0
O154 O 0.49049 1.00109 0.53168 0.0
O155 O 0.49222 0.97087 0.56883 0.0
O156 O 0.51282 0.98343 0.74449 0.0
O157 O 0.48621 0.97081 0.71579 0.0
O158 O 0.47038 1.00438 0.68746 0.0
O159 O 0.48193 0.01072 0.80752 0.0
H160 H 0.55931 1.00633 0.87257 0.0
H161 H 0.59232 0.018 0.8947 0.0
H162 H 0.56933 0.06874 0.01008 0.0
H163 H 0.53593 0.05712 0.98582 0.0
H164 H 0.455 0.00868 0.53658 0.0
H165 H 0.42034 1.0012 0.53293 0.0
H166 H 0.43328 0.94249 0.45891 0.0
H167 H 0.46838 0.95004 0.46216 0.0
Tb168 Tb 0.49712 0.51273 0.80448 0.0
Tb169 Tb 0.51703 0.49907 0.6565 0.0
C170 C 0.49222 0.53052 0.92631 0.0
C171 C 0.48221 0.54931 0.93702 0.0
C172 C 0.48996 0.56316 0.98708 0.0
C173 C 0.48306 0.58238 0.98599 0.0
C174 C 0.46834 0.58806 0.93449 0.0
C175 C 0.46003 0.57392 0.88679 0.0
C176 C 0.46693 0.55475 0.88792 0.0
C177 C 0.47046 0.50847 0.69454 0.0
C178 C 0.5074 0.54334 0.67053 0.0
C179 C 0.52649 0.47973 0.54142 0.0
C180 C 0.52983 0.45858 0.53318 0.0
C181 C 0.51719 0.44508 0.56825 0.0
C182 C 0.52207 0.42533 0.57129 0.0
C183 C 0.53953 0.41865 0.5386 0.0
C184 C 0.55174 0.43194 0.50034 0.0
C185 C 0.54699 0.45182 0.49819 0.0
C186 C 0.54055 0.51123 0.76602 0.0
C187 C 0.50412 0.4677 0.78632 0.0
O188 O 0.50838 0.53181 0.88632 0.0
O189 O 0.48115 0.51576 0.90556 0.0
O190 O 0.48866 0.50606 0.69207 0.0
O191 O 0.46652 0.51338 0.76385 0.0
O192 O 0.50431 0.54006 0.74405 0.0
O193 O 0.51034 0.52889 0.62176 0.0
O194 O 0.50849 0.48522 0.55564 0.0
O195 O 0.53918 0.48868 0.58465 0.0
O196 O 0.52515 0.5012 0.77408 0.0
O197 O 0.54342 0.51427 0.69398 0.0
O198 O 0.51097 0.47137 0.71692 0.0
O199 O 0.49882 0.48182 0.83345 0.0
H200 H 0.50201 0.55936 0.02425 0.0
H201 H 0.48998 0.593 0.02277 0.0
H202 H 0.44854 0.57778 0.84716 0.0
H203 H 0.46086 0.54441 0.84793 0.0
H204 H 0.50381 0.44981 0.59545 0.0
H205 H 0.51222 0.41526 0.59972 0.0
H206 H 0.56521 0.42704 0.47416 0.0
H207 H 0.55698 0.46201 0.47126 0.0
Tb208 Tb 1.00398 0.49448 0.76902 0.0
Tb209 Tb 0.01575 0.51481 0.63302 0.0
C210 C 0.9845 0.4841 0.88268 0.0
C211 C 0.96296 0.48349 0.89039 0.0
C212 C 0.95234 0.50079 0.90264 0.0
C213 C 0.93205 0.50098 0.89495 0.0
C214 C 0.92187 0.48387 0.87528 0.0
C215 C 0.93236 0.46635 0.86712 0.0
C216 C 0.95269 0.46615 0.87487 0.0
C217 C 0.01505 0.4709 0.6581 0.0
C218 C 0.97167 0.50692 0.64603 0.0
C219 C 0.03422 0.52566 0.51737 0.0
C220 C 0.05367 0.53466 0.51091 0.0
C221 C 0.06661 0.52822 0.45461 0.0
C222 C 0.08586 0.53502 0.45319 0.0
C223 C 0.09243 0.54846 0.50787 0.0
C224 C 0.07933 0.55528 0.56315 0.0
C225 C 0.06014 0.5483 0.56513 0.0
C226 C 1.00497 0.53861 0.74407 0.0
C227 C 0.04828 0.50264 0.75844 0.0
O228 O 0.99236 0.50147 0.87593 0.0
O229 O 0.99197 0.47172 0.83421 0.0
O230 O 1.00471 0.48608 0.65114 0.0
O231 O 0.01914 0.46833 0.72934 0.0
O232 O 0.97585 0.50385 0.71854 0.0
O233 O 0.98596 0.50879 0.59603 0.0
O234 O 0.0342 0.5076 0.54195 0.0
O235 O 0.02069 0.53625 0.54993 0.0
O236 O 0.01508 0.52328 0.75068 0.0
O237 O 1.00138 0.54142 0.67271 0.0
O238 O 0.04424 0.50851 0.68818 0.0
O239 O 0.03408 0.49781 0.80582 0.0
H240 H 0.95973 0.51443 0.91472 0.0
H241 H 0.92446 0.51476 0.90123 0.0
H242 H 0.92489 0.45282 0.85393 0.0
H243 H 0.96043 0.45255 0.86568 0.0
H244 H 0.06196 0.51756 0.41289 0.0
H245 H 0.09568 0.52969 0.40955 0.0
H246 H 0.0841 0.56552 0.60618 0.0
H247 H 0.05051 0.5532 0.61015 0.0
H248 H 0.20166 0.01323 0.29663 0.0
H249 H 0.17243 0.01164 0.37799 0.0
H250 H 0.13571 0.01425 0.17895 0.0
H251 H 0.16496 0.01558 0.09776 0.0
H252 H 0.14244 0.03851 0.39237 0.0
H253 H 0.11253 0.96769 0.29187 0.0
H254 H 0.13718 0.97547 0.27095 0.0
H255 H 0.11697 0.98535 0.21816 0.0
C256 C 0.18732 0.01329 0.27047 0.0
C257 C 0.18548 0.01438 0.19115 0.0
C258 C 0.17062 0.01243 0.31688 0.0
C259 C 0.15176 0.01253 0.28481 0.0
C260 C 0.15001 0.0137 0.20523 0.0
H261 H 0.0363 1.0069 0.51652 0.0
H262 H 0.06161 0.01106 0.41749 0.0
C263 C 0.16672 0.01457 0.15886 0.0
C264 C 0.13406 0.01207 0.33493 0.0
H265 H 0.09315 0.98541 0.37923 0.0
C266 C 0.13167 0.0269 0.38928 0.0
C267 C 0.1198 0.99705 0.3307 0.0
C268 C 0.12175 0.98038 0.27528 0.0
C269 C 0.11566 0.02703 0.43967 0.0
C270 C 0.10171 0.01173 0.43696 0.0
C271 C 0.10376 0.99718 0.38129 0.0
C272 C 0.08601 0.0097 0.49575 0.0
C273 C 0.11383 0.04363 0.4955 0.0
C274 C 0.09121 0.00733 0.57233 0.0
C275 C 0.07688 1.00501 0.62834 0.0
C276 C 0.05689 1.00496 0.60958 0.0
C277 C 0.05155 0.00722 0.53287 0.0
C278 C 0.06601 0.00947 0.47631 0.0
H279 H 0.12168 0.05688 0.4752 0.0
H280 H 0.09827 0.04746 0.50569 0.0
H281 H 0.12043 0.03918 0.55049 0.0
H282 H 0.10646 0.00699 0.58887 0.0
H283 H 0.08155 1.0031 0.68673 0.0
H284 H 0.49173 0.16537 0.11337 0.0
H285 H 0.49241 0.13569 0.19242 0.0
H286 H 0.50076 0.1711 0.39231 0.0
H287 H 0.49976 0.20071 0.31352 0.0
H288 H 0.52135 0.12126 0.2829 0.0
H289 H 0.45579 0.13624 0.45834 0.0
H290 H 0.46129 0.1498 0.37277 0.0
H291 H 0.47337 0.15571 0.46059 0.0
C292 C 0.49359 0.16676 0.17429 0.0
C293 C 0.4956 0.18527 0.20748 0.0
C294 C 0.494 0.14982 0.21942 0.0
C295 C 0.49631 0.15109 0.29872 0.0
C296 C 0.49849 0.16968 0.33167 0.0
H297 H 0.53749 0.06382 0.61521 0.0
H298 H 0.53311 0.09047 0.52418 0.0
C299 C 0.49806 0.18662 0.2865 0.0
C300 C 0.49715 0.13298 0.34646 0.0
H301 H 0.47664 0.11047 0.50129 0.0
C302 C 0.51147 0.11886 0.33029 0.0
C303 C 0.48408 0.12959 0.40771 0.0
C304 C 0.46764 0.14353 0.42555 0.0
C305 C 0.5135 0.10188 0.37497 0.0
C306 C 0.50106 0.09896 0.43847 0.0
C307 C 0.4863 0.11273 0.45312 0.0
C308 C 0.50371 0.08221 0.49218 0.0
C309 C 0.52894 0.08714 0.35349 0.0
C310 C 0.48852 0.06874 0.50584 0.0
C311 C 0.49099 0.0534 0.55837 0.0
C312 C 0.50862 0.05142 0.59882 0.0
C313 C 0.52376 0.06488 0.5848 0.0
C314 C 0.52132 0.0801 0.53235 0.0
H315 H 0.53304 0.08842 0.29254 0.0
H316 H 0.54227 0.08981 0.38785 0.0
H317 H 0.52387 0.07199 0.36473 0.0
H318 H 0.47475 0.0701 0.47592 0.0
H319 H 0.47904 0.04331 0.56819 0.0
H320 H 0.30936 0.50079 0.32564 0.0
H321 H 0.33856 0.50211 0.40717 0.0
H322 H 0.37538 0.49658 0.20917 0.0
H323 H 0.34619 0.49549 0.12783 0.0
H324 H 0.36779 0.47434 0.42566 0.0
H325 H 0.39984 0.54341 0.31561 0.0
H326 H 0.37495 0.53624 0.29592 0.0
H327 H 0.39484 0.52537 0.24425 0.0
C328 C 0.32372 0.50001 0.29973 0.0
C329 C 0.32561 0.49817 0.22065 0.0
C330 C 0.3404 0.50073 0.34624 0.0
C331 C 0.35928 0.49974 0.31448 0.0
C332 C 0.36108 0.49782 0.23515 0.0
H333 H 0.4754 0.50353 0.53892 0.0
H334 H 0.44944 0.49995 0.44261 0.0
C335 C 0.3444 0.49709 0.18871 0.0
C336 C 0.37697 0.50006 0.36466 0.0
H337 H 0.4188 0.52565 0.40454 0.0
C338 C 0.37892 0.48557 0.4209 0.0
C339 C 0.3917 0.51458 0.35828 0.0
C340 C 0.39023 0.5309 0.30074 0.0
C341 C 0.39501 0.48524 0.47082 0.0
C342 C 0.40949 0.50003 0.46581 0.0
C343 C 0.4078 0.51427 0.40846 0.0
C344 C 0.42555 0.50177 0.5232 0.0
C345 C 0.3964 0.46889 0.52831 0.0
C346 C 0.42089 0.50425 0.60026 0.0
C347 C 0.43561 0.50616 0.65483 0.0
C348 C 0.45548 0.50572 0.63414 0.0
C349 C 0.46028 0.50348 0.5569 0.0
C350 C 0.44543 0.50159 0.50183 0.0
H351 H 0.38817 0.45577 0.50946 0.0
H352 H 0.41185 0.46466 0.53869 0.0
H353 H 0.38995 0.47381 0.58291 0.0
H354 H 0.40576 0.50497 0.61832 0.0
H355 H 0.43135 0.5081 0.71367 0.0
H356 H 0.03191 0.30861 0.29117 0.0
H357 H 0.03185 0.33762 0.37346 0.0
H358 H 0.99959 0.3695 0.20291 0.0
H359 H 0.99947 0.3404 0.1212 0.0
H360 H 0.04708 0.37462 0.34719 0.0
H361 H 0.96692 0.3793 0.39262 0.0
H362 H 0.97852 0.35788 0.35342 0.0
H363 H 0.97412 0.37893 0.29446 0.0
C364 C 0.02474 0.32181 0.27165 0.0
C365 C 0.01561 0.32233 0.20027 0.0
C366 C 0.02473 0.33839 0.31855 0.0
C367 C 0.01547 0.35575 0.29512 0.0
C368 C 1.00647 0.35623 0.2232 0.0
H369 H 1.00006 0.47022 0.51318 0.0
H370 H 1.00092 0.44302 0.4222 0.0
C371 C 1.0065 0.33965 0.17632 0.0
C372 C 0.01563 0.37341 0.34518 0.0
H373 H 0.98595 0.40562 0.43909 0.0
C374 C 0.0337 0.38136 0.3674 0.0
C375 C 0.9982 0.38233 0.37148 0.0
C376 C 0.97833 0.37411 0.35245 0.0
C377 C 0.03482 0.39799 0.41429 0.0
C378 C 0.01739 0.4068 0.44122 0.0
C379 C 0.99932 0.39897 0.41844 0.0
C380 C 0.01759 0.42371 0.49507 0.0
C381 C 0.0547 0.40617 0.43344 0.0
C382 C 0.02661 0.422 0.56655 0.0
C383 C 0.02616 0.43752 0.61841 0.0
C384 C 0.01656 0.4551 0.6004 0.0
C385 C 0.00765 0.45691 0.52866 0.0
C386 C 0.00808 0.44133 0.47672 0.0
H387 H 0.06591 0.40164 0.39123 0.0
H388 H 0.05438 0.42238 0.43592 0.0
H389 H 0.0593 0.40056 0.48989 0.0
H390 H 0.03367 0.40848 0.58302 0.0
H391 H 0.03307 0.43559 0.67331 0.0
H392 H 0.80963 0.97768 0.10793 0.0
H393 H 0.83915 0.97897 0.02809 0.0
H394 H 0.86932 0.01062 0.20443 0.0
H395 H 0.83987 0.00904 0.28454 0.0
H396 H 0.85972 0.01038 0.97159 0.0
H397 H 0.90769 0.96673 0.16123 0.0
H398 H 0.88152 0.96787 0.17391 0.0
H399 H 0.89678 0.98761 0.20592 0.0
C400 C 0.8226 0.9849 0.12941 0.0
C401 C 0.82258 0.99322 0.20221 0.0
C402 C 0.83946 0.98563 0.08388 0.0
C403 C 0.85668 0.99458 0.11052 0.0
C404 C 0.85646 1.00322 0.18306 0.0
H405 H 0.97197 0.01249 0.89593 0.0
H406 H 0.94427 0.012 0.98551 0.0
C407 C 0.83959 1.00247 0.22858 0.0
C408 C 0.87462 0.99517 0.0617 0.0
H409 H 0.92271 0.98126 0.05349 0.0
C410 C 0.87346 1.00396 0.98957 0.0
C411 C 0.89268 0.98692 0.085 0.0
C412 C 0.89479 0.97659 0.16043 0.0
C413 C 0.88974 1.00482 0.94055 0.0
C414 C 0.90771 0.99632 0.96332 0.0
C415 C 0.90899 0.98777 0.03587 0.0
C416 C 0.92505 0.99565 0.91144 0.0
C417 C 0.88759 0.01513 0.86505 0.0
C418 C 0.92378 0.98608 0.84107 0.0
C419 C 0.93953 0.98634 0.79012 0.0
C420 C 0.95704 0.99605 0.80835 0.0
C421 C 0.95867 1.00492 0.88015 0.0
C422 C 0.94283 1.00467 0.9313 0.0
H423 H 0.87511 0.02551 0.86535 0.0
H424 H 0.90111 0.02327 0.84999 0.0
H425 H 0.88481 1.00414 0.82006 0.0
H426 H 0.91046 0.97859 0.82501 0.0
H427 H 0.93783 0.97922 0.73559 0.0
H428 H 0.48734 0.8164 0.17603 0.0
H429 H 0.48607 0.84558 0.09416 0.0
H430 H 0.5437 0.86216 0.17005 0.0
H431 H 0.54498 0.83289 0.2513 0.0
H432 H 0.48867 0.88489 0.13588 0.0
H433 H 0.54912 0.86559 0.93892 0.0
H434 H 0.53791 0.84792 0.00169 0.0
H435 H 0.55549 0.86505 0.03794 0.0
C436 C 0.49974 0.82626 0.1747 0.0
C437 C 0.51628 0.82246 0.21944 0.0
C438 C 0.49902 0.84292 0.12808 0.0
C439 C 0.51489 0.856 0.12495 0.0
C440 C 0.53142 0.85215 0.17011 0.0
H441 H 0.53206 0.96415 0.85753 0.0
H442 H 0.53618 0.93728 0.94967 0.0
C443 C 0.53212 0.83549 0.21681 0.0
C444 C 0.51384 0.87391 0.0762 0.0
H445 H 0.53531 0.89709 0.92483 0.0
C446 C 0.49888 0.88753 0.08973 0.0
C447 C 0.52724 0.87752 0.01626 0.0
C448 C 0.54326 0.8632 0.99716 0.0
C449 C 0.49693 0.90456 0.04525 0.0
C450 C 0.51006 0.90797 0.98423 0.0
C451 C 0.52526 0.89455 0.97156 0.0
C452 C 0.50754 0.92474 0.93039 0.0
C453 C 0.48092 0.91886 0.06473 0.0
C454 C 0.49019 0.92662 0.88842 0.0
C455 C 0.48782 0.9419 0.83623 0.0
C456 C 0.5028 0.95564 0.82401 0.0
C457 C 0.52021 0.95385 0.86598 0.0
C458 C 0.52259 0.93847 0.91843 0.0
H459 H 0.47637 0.91747 0.12517 0.0
H460 H 0.48562 0.93415 0.05404 0.0
H461 H 0.46793 0.91579 0.02889 0.0
H462 H 0.47852 0.91603 0.89505 0.0
H463 H 0.47426 0.94278 0.80458 0.0
H464 H 0.70379 0.52814 0.13001 0.0
H465 H 0.67457 0.52855 0.04856 0.0
H466 H 0.64249 0.49686 0.22051 0.0
H467 H 0.67165 0.49669 0.30213 0.0
H468 H 0.65342 0.49792 0.9888 0.0
H469 H 0.60561 0.54205 0.17659 0.0
H470 H 0.63167 0.54016 0.1911 0.0
H471 H 0.61572 0.52076 0.22156 0.0
C472 C 0.69045 0.52134 0.1503 0.0
C473 C 0.68987 0.51246 0.22226 0.0
C474 C 0.67376 0.52157 0.10382 0.0
C475 C 0.65613 0.51304 0.12866 0.0
C476 C 0.6557 0.50396 0.20054 0.0
H477 H 0.54125 0.49713 0.91277 0.0
H478 H 0.56896 0.49755 0.00189 0.0
C479 C 0.67239 0.50373 0.24696 0.0
C480 C 0.63844 0.51315 0.07845 0.0
H481 H 0.59062 0.52785 0.06832 0.0
C482 C 0.63973 0.50455 0.00618 0.0
C483 C 0.62046 0.52168 0.10097 0.0
C484 C 0.61825 0.53185 0.17648 0.0
C485 C 0.6236 0.50403 0.95644 0.0
C486 C 0.60566 0.51272 0.9786 0.0
C487 C 0.6043 0.52119 0.05113 0.0
C488 C 0.58836 0.51345 0.92657 0.0
C489 C 0.62583 0.49379 0.88106 0.0
C490 C 0.58972 0.52277 0.85548 0.0
C491 C 0.57395 0.52254 0.80469 0.0
C492 C 0.55633 0.51311 0.82382 0.0
C493 C 0.55463 0.50448 0.89624 0.0
C494 C 0.57048 0.50469 0.94717 0.0
H495 H 0.63821 0.48328 0.88175 0.0
H496 H 0.61228 0.48579 0.86565 0.0
H497 H 0.62883 0.5048 0.8361 0.0
H498 H 0.60311 0.53008 0.8388 0.0
H499 H 0.5757 0.52947 0.74965 0.0
H500 H 0.98649 0.70105 0.1066 0.0
H501 H 0.98746 0.6719 0.02519 0.0
H502 H 0.0182 0.64046 0.20116 0.0
H503 H 0.01691 0.66954 0.28285 0.0
H504 H 0.01862 0.65127 0.96869 0.0
H505 H 0.97402 0.60286 0.15372 0.0
H506 H 0.97549 0.62891 0.16823 0.0
H507 H 0.99495 0.61324 0.20005 0.0
C508 C 0.9934 0.68787 0.12771 0.0
C509 C 1.00154 0.68742 0.20086 0.0
C510 C 0.99397 0.67122 0.08127 0.0
C511 C 1.00259 0.65377 0.10729 0.0
C512 C 0.01104 0.65351 0.18024 0.0
H513 H 0.01989 0.53925 0.88946 0.0
H514 H 0.01969 0.56682 0.97909 0.0
C515 C 0.01044 0.67017 0.22668 0.0
C516 C 1.00308 0.63608 0.05741 0.0
H517 H 0.98881 0.58816 0.04615 0.0
C518 C 0.01205 0.6375 0.98568 0.0
C519 C 0.99462 0.61799 0.0794 0.0
C520 C 0.98407 0.61562 0.15423 0.0
C521 C 0.01289 0.62144 0.93585 0.0
C522 C 1.00422 0.60344 0.9574 0.0
C523 C 0.99547 0.60191 0.02949 0.0
C524 C 1.00361 0.58629 0.90483 0.0
C525 C 0.02338 0.62384 0.86087 0.0
C526 C 0.99418 0.58779 0.83415 0.0
C527 C 0.99426 0.5721 0.78314 0.0
C528 C 1.00369 0.55446 0.8016 0.0
C529 C 0.01255 0.55267 0.87346 0.0
C530 C 0.01246 0.56843 0.92467 0.0
H531 H 0.0338 0.6363 0.86207 0.0
H532 H 0.03152 0.61037 0.84561 0.0
H533 H 0.01249 0.62679 0.81555 0.0
H534 H 0.98683 0.60119 0.81808 0.0
H535 H 0.98715 0.57392 0.72858 0.0
H536 H 0.97809 0.25907 0.31762 0.0
H537 H 0.96575 0.24472 0.43635 0.0
H538 H 0.01721 0.20836 0.44964 0.0
H539 H 0.02948 0.22273 0.33236 0.0
H540 H 0.95701 0.20733 0.42675 0.0
H541 H 1.00566 0.21442 0.672 0.0
H542 H 1.00579 0.23197 0.59481 0.0
H543 H 0.02054 0.21011 0.58997 0.0
C544 C 0.98711 0.24866 0.34806 0.0
C545 C 1.00457 0.24173 0.31579 0.0
C546 C 0.98009 0.24052 0.41589 0.0
C547 C 0.99059 0.22555 0.45243 0.0
C548 C 0.00901 0.22019 0.4239 0.0
H549 H 1.00324 0.11705 0.53008 0.0
H550 H 1.00204 0.15243 0.53987 0.0
C551 C 0.01593 0.22819 0.35615 0.0
C552 C 0.98065 0.21193 0.50546 0.0
H553 H 0.99323 0.18037 0.64716 0.0
C554 C 0.96434 0.20185 0.47715 0.0
C555 C 0.98992 0.20502 0.57203 0.0
C556 C 1.00632 0.21616 0.60922 0.0
C557 C 0.9593 0.18333 0.50512 0.0
C558 C 0.97063 0.17504 0.56433 0.0
C559 C 0.98481 0.18656 0.6007 0.0
C560 C 0.97163 0.15357 0.5742 0.0
C561 C 0.9436 0.17189 0.46437 0.0
C562 C 0.9551 0.14233 0.59274 0.0
C563 C 0.9556 0.12198 0.58488 0.0
C564 C 0.97271 0.11263 0.55929 0.0
C565 C 0.98962 0.12386 0.54702 0.0
C566 C 0.98906 0.14409 0.55406 0.0
H567 H 0.93728 0.18009 0.41564 0.0
H568 H 0.94963 0.15791 0.4427 0.0
H569 H 0.93155 0.16844 0.5045 0.0
H570 H 0.94162 0.14933 0.60999 0.0
H571 H 0.9424 0.11369 0.59578 0.0
H572 H 0.27946 0.95658 0.19956 0.0
H573 H 0.298 0.94561 0.30889 0.0
H574 H 0.27004 0.98944 0.4477 0.0
H575 H 0.25203 1.00109 0.33623 0.0
H576 H 0.30635 0.99651 0.44027 0.0
H577 H 0.30225 0.9185 0.50526 0.0
H578 H 0.30392 0.92043 0.40408 0.0
H579 H 0.28305 0.93068 0.45291 0.0
C580 C 0.27663 0.96331 0.2542 0.0
C581 C 0.26474 0.97995 0.25929 0.0
C582 C 0.28708 0.95684 0.31733 0.0
C583 C 0.28556 0.96672 0.38701 0.0
C584 C 0.2715 0.9816 0.39456 0.0
H585 H 0.39919 0.97941 0.61372 0.0
H586 H 0.36355 0.97577 0.61477 0.0
C587 C 0.26116 0.98823 0.3309 0.0
C588 C 0.3021 0.96527 0.44142 0.0
H589 H 0.33647 0.93246 0.50055 0.0
C590 C 0.31254 0.98252 0.45646 0.0
C591 C 0.31026 0.9471 0.46325 0.0
C592 C 0.29907 0.92821 0.45608 0.0
C593 C 0.33181 0.98196 0.48317 0.0
C594 C 0.34076 0.96363 0.49606 0.0
C595 C 0.32966 0.94647 0.48922 0.0
C596 C 0.36221 0.96212 0.50411 0.0
C597 C 0.34304 1.0009 0.49014 0.0
C598 C 0.37324 0.95487 0.44304 0.0
C599 C 0.39356 0.95695 0.44224 0.0
C600 C 0.40309 0.96641 0.50243 0.0
C601 C 0.39211 0.97247 0.56584 0.0
C602 C 0.37181 0.97028 0.5668 0.0
H603 H 0.33447 0.01369 0.47002 0.0
H604 H 0.34695 1.00337 0.55056 0.0
H605 H 0.35683 1.00016 0.45685 0.0
H606 H 0.36604 0.94861 0.39396 0.0
H607 H 0.40167 0.95215 0.39277 0.0
H608 H 0.53385 0.24784 0.32743 0.0
H609 H 0.54569 0.26311 0.44492 0.0
H610 H 0.49851 0.30495 0.43226 0.0
H611 H 0.48654 0.28943 0.31778 0.0
H612 H 0.56036 0.29706 0.43901 0.0
H613 H 0.50367 0.30355 0.6545 0.0
H614 H 0.50224 0.28496 0.58181 0.0
H615 H 0.49149 0.30883 0.56701 0.0
C616 C 0.52557 0.25972 0.35219 0.0
C617 C 0.50948 0.2677 0.31352 0.0
C618 C 0.53234 0.26845 0.41915 0.0
C619 C 0.52298 0.28515 0.44818 0.0
C620 C 0.50577 0.29181 0.41295 0.0
H621 H 0.54868 0.39435 0.42223 0.0
H622 H 0.55146 0.3589 0.42725 0.0
C623 C 0.49905 0.28311 0.34658 0.0
C624 C 0.53316 0.2985 0.50149 0.0
H625 H 0.52026 0.33583 0.61841 0.0
C626 C 0.55191 0.30507 0.48079 0.0
C627 C 0.52285 0.3086 0.55896 0.0
C628 C 0.50405 0.30086 0.59224 0.0
C629 C 0.55887 0.32323 0.50551 0.0
C630 C 0.5465 0.33522 0.54976 0.0
C631 C 0.52946 0.32709 0.5815 0.0
C632 C 0.5486 0.3568 0.54996 0.0
C633 C 0.57875 0.32996 0.47915 0.0
C634 C 0.54589 0.36757 0.61695 0.0
C635 C 0.54388 0.38788 0.61361 0.0
C636 C 0.54455 0.39771 0.54342 0.0
C637 C 0.54832 0.3871 0.47705 0.0
C638 C 0.55012 0.36682 0.48018 0.0
H639 H 0.58926 0.31759 0.48022 0.0
H640 H 0.57778 0.33512 0.41938 0.0
H641 H 0.58456 0.34196 0.51506 0.0
H642 H 0.54453 0.36022 0.67132 0.0
H643 H 0.54124 0.39589 0.66552 0.0
H644 H 0.25047 0.57044 0.19687 0.0
H645 H 0.23142 0.58817 0.2923 0.0
H646 H 0.22745 0.53538 0.42672 0.0
H647 H 0.24749 0.51831 0.33432 0.0
H648 H 0.19655 0.57873 0.2997 0.0
H649 H 0.22126 0.5723 0.59374 0.0
H650 H 0.23796 0.56863 0.51543 0.0
H651 H 0.22386 0.54848 0.55357 0.0
C652 C 0.2465 0.56309 0.2493 0.0
C653 C 0.25035 0.54311 0.2588 0.0
C654 C 0.23555 0.57316 0.30368 0.0
C655 C 0.22781 0.56318 0.36699 0.0
C656 C 0.23353 0.54371 0.37995 0.0
H657 H 0.12473 0.52555 0.5016 0.0
H658 H 0.15867 0.53602 0.48594 0.0
C659 C 0.24491 0.53382 0.32662 0.0
C660 C 0.21011 0.57078 0.40625 0.0
H661 H 0.18521 0.5653 0.57319 0.0
C662 C 0.19436 0.57667 0.36024 0.0
C663 C 0.20703 0.56835 0.48532 0.0
C664 C 0.22359 0.5643 0.53959 0.0
C665 C 0.1753 0.57761 0.38906 0.0
C666 C 0.17193 0.57253 0.46578 0.0
C667 C 0.18785 0.56887 0.51395 0.0
C668 C 0.15212 0.56692 0.49099 0.0
C669 C 0.15863 0.58197 0.33537 0.0
C670 C 0.13733 0.58089 0.50085 0.0
C671 C 0.11787 0.57491 0.50962 0.0
C672 C 0.11305 0.55493 0.50773 0.0
C673 C 0.12806 0.54103 0.50195 0.0
C674 C 0.14743 0.54699 0.49394 0.0
H675 H 0.16377 0.58538 0.27688 0.0
H676 H 0.14857 0.56924 0.33268 0.0
H677 H 0.15014 0.59464 0.3567 0.0
H678 H 0.14072 0.59634 0.49832 0.0
H679 H 0.10652 0.58588 0.51414 0.0
H680 H 0.02044 0.75059 0.06016 0.0
H681 H 0.03368 0.76701 0.94768 0.0
H682 H 0.07526 0.79728 0.08979 0.0
H683 H 0.06298 0.78004 0.20016 0.0
H684 H 0.02614 0.80251 0.94154 0.0
H685 H 0.10508 0.80051 0.90131 0.0
H686 H 0.09271 0.78162 0.9549 0.0
H687 H 0.10171 0.80341 0.00137 0.0
C688 C 0.03316 0.75989 0.06643 0.0
C689 C 0.04038 0.7645 0.13895 0.0
C690 C 0.0407 0.76933 0.00209 0.0
C691 C 0.05537 0.78363 0.00976 0.0
C692 C 0.06422 0.78617 0.08114 0.0
H693 H 0.06386 0.89759 0.01413 0.0
H694 H 0.06893 0.86226 0.00873 0.0
C695 C 0.05694 0.77652 0.14493 0.0
C696 C 0.05744 0.79947 0.95224 0.0
H697 H 0.09024 0.83481 0.902 0.0
C698 C 0.04024 0.80911 0.92967 0.0
C699 C 0.07574 0.80813 0.93521 0.0
C700 C 0.09479 0.79764 0.94895 0.0
C701 C 0.04075 0.82826 0.90158 0.0
C702 C 0.05895 0.83792 0.89553 0.0
C703 C 0.07627 0.82747 0.90842 0.0
C704 C 0.05975 0.85946 0.89154 0.0
C705 C 0.02169 0.83874 0.88667 0.0
C706 C 0.05341 0.86958 0.82674 0.0
C707 C 0.05029 0.88974 0.82998 0.0
C708 C 0.0535 0.90004 0.8981 0.0
C709 C 0.06099 0.89 0.96135 0.0
C710 C 0.06412 0.86988 0.95801 0.0
H711 H 0.00875 0.82935 0.89809 0.0
H712 H 0.02064 0.85198 0.9228 0.0
H713 H 0.02112 0.84351 0.82637 0.0
H714 H 0.04995 0.86175 0.77501 0.0
H715 H 0.0444 0.89706 0.78037 0.0
H716 H 0.73866 0.01191 0.08102 0.0
H717 H 0.7174 0.03171 0.00192 0.0
H718 H 0.7285 0.08168 0.1451 0.0
H719 H 0.7491 0.06128 0.22685 0.0
H720 H 0.69294 0.0732 0.15439 0.0
H721 H 0.70745 0.07222 0.8491 0.0
H722 H 0.71093 0.04767 0.8812 0.0
H723 H 0.72656 0.0669 0.91695 0.0
C724 C 0.73749 0.02741 0.09276 0.0
C725 C 0.74541 0.03515 0.15956 0.0
C726 C 0.72536 0.03886 0.04716 0.0
C727 C 0.72121 0.05831 0.06726 0.0
C728 C 0.73143 0.06674 0.12833 0.0
H729 H 0.59786 0.08161 0.93796 0.0
H730 H 0.63182 0.09254 0.95686 0.0
C731 C 0.7433 0.05514 0.1748 0.0
C732 C 0.70268 0.06721 0.0398 0.0
H733 H 0.67223 0.06473 0.88659 0.0
C734 C 0.68871 0.0723 0.09512 0.0
C735 C 0.69691 0.06635 0.96261 0.0
C736 C 0.71143 0.06319 0.89933 0.0
C737 C 0.66884 0.0737 0.07682 0.0
C738 C 0.66285 0.06984 0.00175 0.0
C739 C 0.67693 0.06733 0.94459 0.0
C740 C 0.64256 0.06382 0.98652 0.0
C741 C 0.65413 0.07711 0.13932 0.0
C742 C 0.63755 0.04418 0.99786 0.0
C743 C 0.61834 0.03797 0.98814 0.0
C744 C 0.60372 0.05129 0.96655 0.0
C745 C 0.60878 0.07105 0.95531 0.0
C746 C 0.62813 0.07729 0.96522 0.0
H747 H 0.66107 0.08318 0.19123 0.0
H748 H 0.64253 0.0873 0.11973 0.0
H749 H 0.64703 0.06303 0.15442 0.0
H750 H 0.64853 0.03368 0.01528 0.0
H751 H 0.61489 0.02274 0.99842 0.0
H752 H 0.52159 0.72009 0.10784 0.0
H753 H 0.50745 0.70391 0.99869 0.0
H754 H 0.45885 0.7442 0.00207 0.0
H755 H 0.47298 0.76015 0.11426 0.0
H756 H 0.44547 0.71003 0.01683 0.0
H757 H 0.49615 0.70324 0.78025 0.0
H758 H 0.51088 0.69903 0.86247 0.0
H759 H 0.49904 0.72246 0.84973 0.0
C760 C 0.50831 0.72599 0.08327 0.0
C761 C 0.4982 0.74112 0.11963 0.0
C762 C 0.50029 0.7169 0.01993 0.0
C763 C 0.48205 0.72285 0.99121 0.0
C764 C 0.47296 0.73939 0.02281 0.0
H765 H 0.46191 0.60898 0.80364 0.0
H766 H 0.45662 0.64425 0.79188 0.0
C767 C 0.48103 0.74852 0.08674 0.0
C768 C 0.47089 0.70882 0.94378 0.0
H769 H 0.48194 0.67062 0.82814 0.0
C770 C 0.45304 0.70188 0.97299 0.0
C771 C 0.47994 0.69844 0.88388 0.0
C772 C 0.49744 0.70643 0.84193 0.0
C773 C 0.44618 0.6832 0.95434 0.0
C774 C 0.45777 0.67114 0.90729 0.0
C775 C 0.47347 0.67949 0.86714 0.0
C776 C 0.45678 0.64954 0.91303 0.0
C777 C 0.42751 0.676 0.99044 0.0
C778 C 0.4583 0.64073 0.98508 0.0
C779 C 0.46106 0.62065 0.99208 0.0
C780 C 0.46271 0.60891 0.92713 0.0
C781 C 0.46045 0.61759 0.85492 0.0
C782 C 0.45752 0.63775 0.84798 0.0
H783 H 0.41651 0.68793 0.99236 0.0
H784 H 0.42123 0.6634 0.95912 0.0
H785 H 0.43046 0.67151 0.05002 0.0
H786 H 0.45842 0.64951 0.03621 0.0
H787 H 0.46256 0.61439 0.04841 0.0
H788 H 0.79232 0.53081 0.11329 0.0
H789 H 0.80674 0.52413 0.99003 0.0
H790 H 0.76752 0.47524 0.96048 0.0
H791 H 0.75323 0.48183 0.08604 0.0
H792 H 0.80344 0.4635 0.95485 0.0
H793 H 0.8011 0.52677 0.76601 0.0
H794 H 0.8063 0.53621 0.85851 0.0
H795 H 0.78343 0.52365 0.84173 0.0
C796 C 0.78634 0.51905 0.07935 0.0
C797 C 0.77193 0.50666 0.10926 0.0
C798 C 0.79436 0.51539 0.00809 0.0
C799 C 0.78808 0.49929 0.96502 0.0
C800 C 0.77246 0.48786 0.99219 0.0
H801 H 0.90028 0.46489 0.7659 0.0
H802 H 0.86455 0.46511 0.75079 0.0
C803 C 0.76434 0.4916 0.06385 0.0
C804 C 0.80109 0.4921 0.90368 0.0
H805 H 0.83524 0.51215 0.78601 0.0
C806 C 0.80981 0.47372 0.91459 0.0
C807 C 0.80921 0.50505 0.84932 0.0
C808 C 0.79928 0.52391 0.82782 0.0
C809 C 0.82829 0.46962 0.88409 0.0
C810 C 0.83806 0.48429 0.84219 0.0
C811 C 0.82786 0.50112 0.81996 0.0
C812 C 0.85958 0.48515 0.84356 0.0
C813 C 0.83844 0.45088 0.90602 0.0
C814 C 0.86842 0.49626 0.90084 0.0
C815 C 0.88859 0.49585 0.9108 0.0
C816 C 0.9004 0.48441 0.86317 0.0
C817 C 0.89153 0.47358 0.80441 0.0
C818 C 0.8712 0.47389 0.79487 0.0
H819 H 0.82811 0.44004 0.93069 0.0
H820 H 0.84564 0.44434 0.85557 0.0
H821 H 0.84995 0.45406 0.94871 0.0
H822 H 0.85958 0.50481 0.93966 0.0
H823 H 0.89484 0.50412 0.95723 0.0
H824 H 0.99658 0.2267 0.96977 0.0
H825 H 0.99536 0.1955 0.90011 0.0
H826 H 0.03588 0.17028 0.06006 0.0
H827 H 0.03722 0.20118 0.12908 0.0
H828 H 0.02561 0.16949 0.83415 0.0
H829 H 0.98612 0.13545 0.07603 0.0
H830 H 0.98838 0.1616 0.06494 0.0
H831 H 0.00843 0.14756 0.10221 0.0
C832 C 1.00556 0.21463 0.98894 0.0
C833 C 0.01682 0.21641 0.05558 0.0
C834 C 1.00477 0.19676 0.94936 0.0
C835 C 0.01519 0.18035 0.97579 0.0
C836 C 0.02738 0.18254 0.03936 0.0
H837 H 0.02418 0.05579 0.90093 0.0
H838 H 0.02555 0.08963 0.94463 0.0
C839 C 0.02817 0.20028 0.07869 0.0
C840 C 0.01273 0.16064 0.94032 0.0
H841 H 0.99805 0.11398 0.98125 0.0
C842 C 0.01945 0.15736 0.86594 0.0
C843 C 1.00461 0.14478 0.98157 0.0
C844 C 0.99629 0.14748 0.06035 0.0
C845 C 0.01909 0.13852 0.83312 0.0
C846 C 0.0114 0.1225 0.87528 0.0
C847 C 1.00416 0.12603 0.94885 0.0
C848 C 0.01111 0.10188 0.84588 0.0
C849 C 0.02769 0.13593 0.75475 0.0
C850 C 1.00249 0.09717 0.77564 0.0
C851 C 1.00201 0.07776 0.74991 0.0
C852 C 0.00964 0.06239 0.79442 0.0
C853 C 0.01809 0.06711 0.86496 0.0
C854 C 0.01885 0.08655 0.89016 0.0
H855 H 0.03805 0.1479 0.74031 0.0
H856 H 0.03551 0.12178 0.74978 0.0
H857 H 0.01574 0.13624 0.71212 0.0
H858 H 0.99587 0.10844 0.74089 0.0
H859 H 0.9955 0.07478 0.69524 0.0
H860 H 0.28121 0.99702 0.92837 0.0
H861 H 0.3135 0.99905 0.86621 0.0
H862 H 0.33597 0.03076 0.05875 0.0
H863 H 0.30398 0.02855 0.12078 0.0
H864 H 0.34039 0.03058 0.82767 0.0
H865 H 0.37058 0.98152 0.04981 0.0
H866 H 0.34464 0.98481 0.03593 0.0
H867 H 0.3586 1.00284 0.08655 0.0
C868 C 0.29291 1.00492 0.95615 0.0
C869 C 0.29007 0.01272 0.02921 0.0
C870 C 0.3114 1.00595 0.92096 0.0
C871 C 0.32734 0.01469 0.95849 0.0
C872 C 0.32407 0.0236 0.0292 0.0
H873 H 0.4538 0.02166 0.8981 0.0
H874 H 0.41988 0.02384 0.94238 0.0
C875 C 0.30572 0.02253 0.06427 0.0
C876 C 0.34762 0.01358 0.92668 0.0
H877 H 0.39342 0.99613 0.96587 0.0
C878 C 0.35198 0.02297 0.8576 0.0
C879 C 0.3628 1.00362 0.96558 0.0
C880 C 0.35895 0.99246 0.03821 0.0
C881 C 0.37116 0.0232 0.82772 0.0
C882 C 0.38641 0.01339 0.86712 0.0
C883 C 0.38191 1.0038 0.93571 0.0
C884 C 0.40709 0.01274 0.83852 0.0
C885 C 0.37494 0.03449 0.75539 0.0
C886 C 0.41144 1.0056 0.76558 0.0
C887 C 0.43084 1.0045 0.73989 0.0
C888 C 0.44651 0.01023 0.78685 0.0
C889 C 0.44217 0.01717 0.86021 0.0
C890 C 0.42272 0.01841 0.88565 0.0
H891 H 0.36364 0.04589 0.74582 0.0
H892 H 0.38952 0.04163 0.75637 0.0
H893 H 0.37445 0.02431 0.70642 0.0
H894 H 0.39983 1.00054 0.72876 0.0
H895 H 0.43355 0.99881 0.68351 0.0
H896 H 0.4732 0.28742 0.00788 0.0
H897 H 0.473 0.31923 0.94205 0.0
H898 H 0.53279 0.32889 0.01009 0.0
H899 H 0.53289 0.29743 0.07631 0.0
H900 H 0.50946 0.35888 0.05131 0.0
H901 H 0.49703 0.34166 0.74721 0.0
H902 H 0.47959 0.33075 0.81099 0.0
H903 H 0.50481 0.32349 0.81538 0.0
C904 C 0.48647 0.29607 0.00643 0.0
C905 C 0.50309 0.2899 0.04686 0.0
C906 C 0.48635 0.31429 0.96895 0.0
C907 C 0.50291 0.32656 0.9708 0.0
C908 C 0.51981 0.31981 0.00776 0.0
H909 H 0.52451 0.43623 0.73184 0.0
H910 H 0.52334 0.40231 0.77635 0.0
C911 C 0.5199 0.30175 0.04525 0.0
C912 C 0.50223 0.34712 0.94147 0.0
H913 H 0.49488 0.37511 0.78245 0.0
C914 C 0.50626 0.36239 0.99244 0.0
C915 C 0.4983 0.3518 0.86451 0.0
C916 C 0.49486 0.33609 0.80603 0.0
C917 C 0.50646 0.38208 0.96902 0.0
C918 C 0.50196 0.38686 0.89257 0.0
C919 C 0.49806 0.37157 0.84129 0.0
C920 C 0.50196 0.40755 0.86433 0.0
C921 C 0.51211 0.39749 0.02619 0.0
C922 C 0.49019 0.42193 0.89845 0.0
C923 C 0.49094 0.44144 0.87354 0.0
C924 C 0.5032 0.44698 0.81288 0.0
C925 C 0.51468 0.43249 0.77788 0.0
C926 C 0.51406 0.41305 0.80332 0.0
H927 H 0.52043 0.39115 0.07457 0.0
H928 H 0.52115 0.40912 0.9995 0.0
H929 H 0.49868 0.4043 0.04955 0.0
H930 H 0.48037 0.41809 0.94446 0.0
H931 H 0.48175 0.45215 0.90138 0.0
H932 H 0.22384 0.48018 0.04064 0.0
H933 H 0.19215 0.47655 0.97629 0.0
H934 H 0.19019 0.53876 0.9375 0.0
H935 H 0.22163 0.54242 0.00192 0.0
H936 H 0.15706 0.52568 0.00548 0.0
H937 H 0.17367 0.47912 0.75604 0.0
H938 H 0.18183 0.46925 0.84527 0.0
H939 H 0.19248 0.49147 0.80957 0.0
C940 C 0.21693 0.49298 0.01629 0.0
C941 C 0.2253 0.51159 0.02648 0.0
C942 C 0.19875 0.49091 0.97958 0.0
C943 C 0.18866 0.50738 0.95163 0.0
C944 C 0.19754 0.52581 0.95859 0.0
H945 H 0.08143 0.51363 0.68011 0.0
H946 H 0.11524 0.51429 0.7262 0.0
C947 C 0.21559 0.52788 0.99528 0.0
C948 C 0.16824 0.50587 0.92111 0.0
H949 H 0.14004 0.48482 0.78273 0.0
C950 C 0.15339 0.51674 0.95668 0.0
C951 C 0.16334 0.49438 0.85697 0.0
C952 C 0.17867 0.48301 0.81415 0.0
C953 C 0.13393 0.51636 0.93059 0.0
C954 C 0.1289 0.5045 0.86763 0.0
C955 C 0.14377 0.49378 0.83137 0.0
C956 C 0.10835 0.50328 0.8385 0.0
C957 C 0.11898 0.52903 0.9699 0.0
C958 C 0.09311 0.49657 0.88555 0.0
C959 C 0.07372 0.49621 0.85943 0.0
C960 C 0.06904 0.50245 0.78527 0.0
C961 C 0.08439 0.50875 0.7376 0.0
C962 C 0.1038 0.5091 0.76384 0.0
H963 H 0.12599 0.54093 0.00301 0.0
H964 H 0.10874 0.53566 0.92823 0.0
H965 H 0.11034 0.51992 0.01002 0.0
H966 H 0.0962 0.49163 0.94283 0.0
H967 H 0.06239 0.49113 0.89771 0.0
H968 H 0.99821 0.80875 0.26594 0.0
H969 H 0.99573 0.83961 0.33449 0.0
H970 H 0.01086 0.81017 0.54334 0.0
H971 H 0.01382 0.77907 0.47383 0.0
H972 H 0.97371 0.85276 0.45238 0.0
H973 H 0.05218 0.85283 0.53452 0.0
H974 H 0.04233 0.83572 0.46674 0.0
H975 H 0.03833 0.8321 0.56681 0.0
C976 C 1.00082 0.80878 0.32668 0.0
C977 C 1.00639 0.79146 0.36428 0.0
C978 C 0.9994 0.82648 0.36591 0.0
C979 C 1.00355 0.82745 0.44395 0.0
C980 C 0.00805 0.80997 0.48279 0.0
H981 H 0.01389 0.93267 0.72886 0.0
H982 H 0.01259 0.89892 0.68363 0.0
C983 C 0.00946 0.79213 0.4433 0.0
C984 C 1.00363 0.84694 0.48272 0.0
H985 H 0.03339 0.87991 0.57251 0.0
C986 C 0.98675 0.85863 0.47895 0.0
C987 C 0.02062 0.85472 0.51764 0.0
C988 C 0.03947 0.84331 0.52134 0.0
C989 C 0.98642 0.87778 0.50823 0.0
C990 C 1.00356 0.88576 0.54111 0.0
C991 C 0.02027 0.8739 0.54694 0.0
C992 C 1.00453 0.90647 0.56834 0.0
C993 C 0.96759 0.88922 0.50419 0.0
C994 C 1.00085 0.92216 0.51849 0.0
C995 C 1.00159 0.94156 0.54418 0.0
C996 C 1.00613 0.94581 0.62043 0.0
C997 C 0.01021 0.93006 0.66987 0.0
C998 C 0.0095 0.91068 0.64406 0.0
H999 H 0.95471 0.87942 0.49887 0.0
H1000 H 0.96565 0.8985 0.55532 0.0
H1001 H 0.96794 0.89886 0.4534 0.0
H1002 H 0.99747 0.91941 0.45934 0.0
H1003 H 0.99849 0.95322 0.50422 0.0
H1004 H 0.73089 1.00337 0.4827 0.0
H1005 H 0.69966 0.99949 0.55134 0.0
H1006 H 0.6708 0.98577 0.34027 0.0
H1007 H 0.70175 0.9894 0.27244 0.0
H1008 H 0.66615 0.02168 0.52721 0.0
H1009 H 0.64893 0.94374 0.47897 0.0
H1010 H 0.67311 0.95367 0.46439 0.0
H1011 H 0.65463 0.95642 0.39236 0.0
C1012 C 0.71797 0.99895 0.45158 0.0
C1013 C 0.71882 0.99655 0.37228 0.0
C1014 C 0.70009 0.9969 0.49064 0.0
C1015 C 0.68279 0.99212 0.45128 0.0
C1016 C 0.68387 0.98905 0.37249 0.0
H1017 H 0.55725 0.98961 0.51873 0.0
H1018 H 0.59103 0.98786 0.47268 0.0
C1019 C 0.70161 0.9912 0.33363 0.0
C1020 C 0.66333 0.99185 0.49043 0.0
H1021 H 0.62205 0.96419 0.5155 0.0
C1022 C 0.65663 0.009 0.52568 0.0
C1023 C 0.65075 0.97539 0.48814 0.0
C1024 C 0.65728 0.9562 0.45458 0.0
C1025 C 0.63755 0.0104 0.55579 0.0
C1026 C 0.62482 0.99406 0.55197 0.0
C1027 C 0.63168 0.97677 0.51821 0.0
C1028 C 0.60423 0.99475 0.5811 0.0
C1029 C 0.63096 0.02965 0.58863 0.0
C1030 C 0.60024 0.99887 0.65781 0.0
C1031 C 0.58091 0.99991 0.68435 0.0
C1032 C 0.565 0.99671 0.63499 0.0
C1033 C 0.56905 0.9922 0.5585 0.0
C1034 C 0.58841 0.99117 0.53201 0.0
H1035 H 0.64043 0.04194 0.56974 0.0
H1036 H 0.61563 0.03294 0.57215 0.0
H1037 H 0.63166 0.02887 0.65158 0.0
H1038 H 0.61211 1.00127 0.69743 0.0
H1039 H 0.57847 1.00333 0.74366 0.0
H1040 H 0.53695 0.72354 0.43157 0.0
H1041 H 0.53779 0.6928 0.5047 0.0
H1042 H 0.48038 0.67811 0.42126 0.0
H1043 H 0.47933 0.70877 0.35014 0.0
H1044 H 0.48447 0.66788 0.5702 0.0
H1045 H 0.5475 0.64035 0.40227 0.0
H1046 H 0.55177 0.66286 0.45184 0.0
H1047 H 0.53421 0.66209 0.37593 0.0
C1048 C 0.52436 0.71394 0.43034 0.0
C1049 C 0.50815 0.71854 0.38449 0.0
C1050 C 0.52494 0.69623 0.47133 0.0
C1051 C 0.50933 0.68281 0.46718 0.0
C1052 C 0.49269 0.68803 0.42511 0.0
H1053 H 0.50868 0.55686 0.52303 0.0
H1054 H 0.50923 0.59082 0.47894 0.0
C1055 C 0.49212 0.7056 0.38431 0.0
C1056 C 0.51035 0.66298 0.50329 0.0
H1057 H 0.53491 0.61943 0.49683 0.0
C1058 C 0.49559 0.65733 0.55455 0.0
C1059 C 0.52465 0.64902 0.4821 0.0
C1060 C 0.54035 0.65374 0.42456 0.0
C1061 C 0.4946 0.6382 0.58443 0.0
C1062 C 0.509 0.62427 0.56371 0.0
C1063 C 0.52389 0.63001 0.51309 0.0
C1064 C 0.50856 0.60352 0.59152 0.0
C1065 C 0.47768 0.63299 0.6358 0.0
C1066 C 0.50818 0.59912 0.66965 0.0
C1067 C 0.50761 0.57967 0.69503 0.0
C1068 C 0.50779 0.56403 0.643 0.0
C1069 C 0.50851 0.56845 0.56485 0.0
C1070 C 0.50886 0.58793 0.53951 0.0
H1071 H 0.46527 0.64332 0.62897 0.0
H1072 H 0.47232 0.61796 0.6245 0.0
H1073 H 0.48258 0.63373 0.69582 0.0
H1074 H 0.5085 0.61072 0.71133 0.0
H1075 H 0.50724 0.57692 0.75569 0.0
H1076 H 0.80655 0.48047 0.32774 0.0
H1077 H 0.8372 0.48091 0.39897 0.0
H1078 H 0.81955 0.53428 0.509 0.0
H1079 H 0.78866 0.53392 0.43684 0.0
H1080 H 0.85702 0.53641 0.44515 0.0
H1081 H 0.85075 0.4695 0.62072 0.0
H1082 H 0.84533 0.46533 0.52232 0.0
H1083 H 0.82985 0.48115 0.57743 0.0
C1084 C 0.80899 0.4921 0.36831 0.0
C1085 C 0.7951 0.50712 0.37679 0.0
C1086 C 0.82653 0.49229 0.40935 0.0
C1087 C 0.83074 0.50752 0.46016 0.0
C1088 C 0.81665 0.52229 0.47055 0.0
H1089 H 0.93867 0.50446 0.73446 0.0
H1090 H 0.90443 0.5058 0.69443 0.0
C1091 C 0.79892 0.52201 0.42976 0.0
C1092 C 0.85047 0.50865 0.49705 0.0
H1093 H 0.88308 0.48239 0.60394 0.0
C1094 C 0.86262 0.52468 0.48053 0.0
C1095 C 0.85783 0.49353 0.5442 0.0
C1096 C 0.84521 0.4765 0.56796 0.0
C1097 C 0.88207 0.52561 0.50697 0.0
C1098 C 0.88985 0.5099 0.55015 0.0
C1099 C 0.87738 0.49429 0.56969 0.0
C1100 C 0.91086 0.50927 0.57469 0.0
C1101 C 0.89404 0.54354 0.48861 0.0
C1102 C 0.92611 0.51054 0.52105 0.0
C1103 C 0.94578 0.50988 0.54398 0.0
C1104 C 0.95076 0.50774 0.6212 0.0
C1105 C 0.93546 0.5062 0.67466 0.0
C1106 C 0.9158 0.50691 0.65174 0.0
H1107 H 0.88457 0.5564 0.47717 0.0
H1108 H 0.90417 0.5472 0.53578 0.0
H1109 H 0.90284 0.54076 0.43671 0.0
H1110 H 0.92282 0.51183 0.46105 0.0
H1111 H 0.95708 0.51094 0.50099 0.0
loop_
_geom_bond_atom_site_label_1
_geom_bond_atom_site_label_2
_geom_bond_distance
_geom_bond_site_symmetry_2
_ccdc_geom_bond_type
H0 C3 0.929 . S
H1 C6 0.929 . S
H2 C8 0.930 . S
C3 H0 0.929 . S
C3 C4 1.398 . S
C3 C5 1.396 . S
C4 C3 1.398 . S
C4 C8 1.407 . S
C5 C3 1.396 . S
C5 C6 1.394 . S
C6 H1 0.929 . S
C6 C5 1.394 . S
C6 C7 1.382 . S
C7 C6 1.382 . S
C7 C8 1.392 . S
C7 N9 1.420 . S
C8 H2 0.930 . S
C8 C4 1.407 . S
C8 C7 1.392 . S
N9 C7 1.420 . S
N9 C10 1.244 . S
C10 N9 1.244 . S
H11 C14 0.929 . S
H12 C17 0.929 . S
H13 C19 0.930 . S
C14 H11 0.929 . S
C14 C15 1.395 1_655 S
C14 C16 1.395 1_655 S
C15 C14 1.395 1_455 S
C15 C19 1.413 . S
C16 C14 1.395 1_455 S
C16 C17 1.396 . S
C17 H12 0.929 . S
C17 C16 1.396 . S
C17 C18 1.382 . S
C18 C17 1.382 . S
C18 C19 1.392 . S
C18 N20 1.420 . S
C19 H13 0.930 . S
C19 C15 1.413 . S
C19 C18 1.392 . S
N20 C18 1.420 . S
N20 C21 1.232 1_455 S
C21 N20 1.232 1_655 S
H22 C25 0.929 . S
H23 C28 0.929 . S
H24 C30 0.930 . S
C25 H22 0.929 . S
C25 C26 1.395 1_565 S
C25 C27 1.395 1_565 S
C26 C25 1.395 1_545 S
C26 C30 1.413 . S
C27 C25 1.395 1_545 S
C27 C28 1.396 . S
C28 H23 0.929 . S
C28 C27 1.396 . S
C28 C29 1.382 . S
C29 C28 1.382 . S
C29 C30 1.392 . S
C29 N31 1.420 . S
C30 H24 0.930 . S
C30 C26 1.413 . S
C30 C29 1.392 . S
N31 C29 1.420 . S
N31 C32 1.232 1_545 S
C32 N31 1.232 1_565 S
H33 C36 0.929 . S
H34 C39 0.929 . S
H35 C41 0.930 . S
C36 H33 0.929 . S
C36 C37 1.398 . S
C36 C38 1.396 . S
C37 C36 1.398 . S
C37 C41 1.407 . S
C38 C36 1.396 . S
C38 C39 1.394 . S
C39 H34 0.929 . S
C39 C38 1.394 . S
C39 C40 1.382 . S
C40 C39 1.382 . S
C40 C41 1.392 . S
C40 N42 1.420 . S
C41 H35 0.930 . S
C41 C37 1.407 . S
C41 C40 1.392 . S
N42 C40 1.420 . S
N42 C43 1.244 . S
C43 N42 1.244 . S
H44 C47 0.929 . S
H45 C50 0.929 . S
H46 C52 0.930 . S
C47 H44 0.929 . S
C47 C48 1.398 1_554 S
C47 C49 1.396 . S
C48 C47 1.398 1_556 S
C48 C52 1.407 . S
C49 C47 1.396 . S
C49 C50 1.394 . S
C50 H45 0.929 . S
C50 C49 1.394 . S
C50 C51 1.382 . S
C51 C50 1.382 . S
C51 C52 1.392 1_554 S
C51 N53 1.420 . S
C52 H46 0.930 . S
C52 C48 1.407 . S
C52 C51 1.392 1_556 S
N53 C51 1.420 . S
N53 C54 1.244 . S
C54 N53 1.244 . S
H55 C58 0.929 . S
H56 C61 0.929 . S
H57 C63 0.930 . S
C58 H55 0.929 . S
C58 C59 1.394 1_654 S
C58 C60 1.394 1_655 S
C59 C58 1.394 1_456 S
C59 C63 1.416 . S
C60 C58 1.394 1_455 S
C60 C61 1.398 . S
C61 H56 0.929 . S
C61 C60 1.398 . S
C61 C62 1.382 . S
C62 C61 1.382 . S
C62 C63 1.392 1_554 S
C62 N64 1.420 . S
C63 H57 0.930 . S
C63 C59 1.416 . S
C63 C62 1.392 1_556 S
N64 C62 1.420 . S
N64 C65 1.238 1_455 S
C65 N64 1.238 1_655 S
H66 C69 0.929 . S
H67 C72 0.929 . S
H68 C74 0.930 . S
C69 H66 0.929 . S
C69 C70 1.395 1_564 S
C69 C71 1.394 1_565 S
C70 C69 1.395 1_546 S
C70 C74 1.416 . S
C71 C69 1.394 1_545 S
C71 C72 1.398 . S
C72 H67 0.929 . S
C72 C71 1.398 . S
C72 C73 1.382 . S
C73 C72 1.382 . S
C73 C74 1.392 1_554 S
C73 N75 1.420 . S
C74 H68 0.930 . S
C74 C70 1.416 . S
C74 C73 1.392 1_556 S
N75 C73 1.420 . S
N75 C76 1.238 1_545 S
C76 N75 1.238 1_565 S
H77 C80 0.929 . S
H78 C83 0.929 . S
H79 C85 0.930 . S
C80 H77 0.929 . S
C80 C81 1.398 1_554 S
C80 C82 1.396 . S
C81 C80 1.398 1_556 S
C81 C85 1.407 . S
C82 C80 1.396 . S
C82 C83 1.394 . S
C83 H78 0.929 . S
C83 C82 1.394 . S
C83 C84 1.382 . S
C84 C83 1.382 . S
C84 C85 1.392 1_554 S
C84 N86 1.420 . S
C85 H79 0.930 . S
C85 C81 1.407 . S
C85 C84 1.392 1_556 S
N86 C84 1.420 . S
N86 C87 1.244 . S
C87 N86 1.244 . S
Tb88 C90 2.809 . S
Tb88 O108 2.480 1_455 S
Tb88 O109 2.440 . S
Tb88 O110 2.658 1_565 S
Tb88 O111 2.409 . S
Tb88 O112 2.378 . S
Tb88 O116 2.325 1_455 S
Tb88 O119 2.341 1_565 S
Tb89 C99 2.809 . S
Tb89 O110 2.325 1_655 S
Tb89 O113 2.341 1_545 S
Tb89 O114 2.475 1_655 S
Tb89 O115 2.440 . S
Tb89 O116 2.658 1_545 S
Tb89 O117 2.409 . S
Tb89 O118 2.378 . S
C90 Tb88 2.809 . S
C90 C91 1.514 . S
C90 O108 1.238 1_455 S
C90 O109 1.266 . S
C91 C90 1.514 . S
C91 C92 1.359 . S
C91 C96 1.348 . S
C92 C91 1.359 . S
C92 C93 1.380 . S
C92 H120 0.929 1_455 S
C93 C92 1.380 . S
C93 C94 1.347 . S
C93 H121 0.931 1_455 S
C94 C93 1.347 . S
C94 C95 1.369 . S
C95 C94 1.369 . S
C95 C96 1.408 . S
C95 H122 0.930 . S
C96 C91 1.348 . S
C96 C95 1.408 . S
C96 H123 0.930 . S
C97 O110 1.263 1_565 S
C97 O111 1.281 . S
C98 O112 1.236 1_655 S
C98 O113 1.266 . S
C99 Tb89 2.809 . S
C99 C100 1.514 . S
C99 O114 1.226 1_655 S
C99 O115 1.266 . S
C100 C99 1.514 . S
C100 C101 1.359 . S
C100 C105 1.348 . S
C101 C100 1.359 . S
C101 C102 1.380 . S
C101 H124 0.929 1_655 S
C102 C101 1.380 . S
C102 C103 1.347 . S
C102 H125 0.931 1_655 S
C103 C102 1.347 . S
C103 C104 1.369 . S
C104 C103 1.369 . S
C104 C105 1.408 . S
C104 H126 0.930 . S
C105 C100 1.348 . S
C105 C104 1.408 . S
C105 H127 0.930 . S
C106 O116 1.281 1_545 S
C106 O117 1.254 . S
C107 O118 1.236 1_455 S
C107 O119 1.266 . S
O108 Tb88 2.480 1_655 S
O108 C90 1.238 1_655 S
O109 Tb88 2.440 . S
O109 C90 1.266 . S
O110 Tb88 2.658 1_545 S
O110 Tb89 2.325 1_455 S
O110 C97 1.263 1_545 S
O111 Tb88 2.409 . S
O111 C97 1.281 . S
O112 Tb88 2.378 . S
O112 C98 1.236 1_455 S
O113 Tb89 2.341 1_565 S
O113 C98 1.266 . S
O114 Tb89 2.475 1_455 S
O114 C99 1.226 1_455 S
O115 Tb89 2.440 . S
O115 C99 1.266 . S
O116 Tb88 2.325 1_655 S
O116 Tb89 2.658 1_565 S
O116 C106 1.281 1_565 S
O117 Tb89 2.409 . S
O117 C106 1.254 . S
O118 Tb89 2.378 . S
O118 C107 1.236 1_655 S
O119 Tb88 2.341 1_545 S
O119 C107 1.266 . S
H120 C92 0.929 1_655 S
H121 C93 0.931 1_655 S
H122 C95 0.930 . S
H123 C96 0.930 . S
H124 C101 0.929 1_455 S
H125 C102 0.931 1_455 S
H126 C104 0.930 . S
H127 C105 0.930 . S
Tb128 C130 2.809 . S
Tb128 O148 2.476 1_545 S
Tb128 O149 2.440 . S
Tb128 O150 2.658 . S
Tb128 O151 2.409 . S
Tb128 O152 2.378 . S
Tb128 O156 2.325 1_545 S
Tb128 O159 2.341 . S
Tb129 C139 2.809 . S
Tb129 O150 2.325 1_565 S
Tb129 O153 2.341 . S
Tb129 O154 2.471 1_565 S
Tb129 O155 2.440 . S
Tb129 O156 2.658 . S
Tb129 O157 2.409 . S
Tb129 O158 2.378 . S
C130 Tb128 2.809 . S
C130 C131 1.514 . S
C130 O148 1.230 1_545 S
C130 O149 1.266 . S
C131 C130 1.514 . S
C131 C132 1.359 . S
C131 C136 1.348 . S
C132 C131 1.359 . S
C132 C133 1.380 . S
C132 H160 0.929 1_545 S
C133 C132 1.380 . S
C133 C134 1.347 . S
C133 H161 0.931 1_545 S
C134 C133 1.347 . S
C134 C135 1.369 . S
C135 C134 1.369 . S
C135 C136 1.408 . S
C135 H162 0.930 . S
C136 C131 1.348 . S
C136 C135 1.408 . S
C136 H163 0.930 . S
C137 O150 1.281 . S
C137 O151 1.254 . S
C138 O152 1.236 1_565 S
C138 O153 1.266 . S
C139 Tb129 2.809 . S
C139 C140 1.514 . S
C139 O154 1.218 1_565 S
C139 O155 1.266 . S
C140 C139 1.514 . S
C140 C141 1.359 . S
C140 C145 1.348 . S
C141 C140 1.359 . S
C141 C142 1.380 . S
C141 H164 0.929 1_565 S
C142 C141 1.380 . S
C142 C143 1.347 . S
C142 H165 0.931 1_565 S
C143 C142 1.347 . S
C143 C144 1.369 . S
C144 C143 1.369 . S
C144 C145 1.408 . S
C144 H166 0.930 . S
C145 C140 1.348 . S
C145 C144 1.408 . S
C145 H167 0.930 . S
C146 O156 1.281 . S
C146 O157 1.254 . S
C147 O158 1.236 1_545 S
C147 O159 1.266 . S
O148 Tb128 2.476 1_565 S
O148 C130 1.230 1_565 S
O149 Tb128 2.440 . S
O149 C130 1.266 . S
O150 Tb128 2.658 . S
O150 Tb129 2.325 1_545 S
O150 C137 1.281 . S
O151 Tb128 2.409 . S
O151 C137 1.254 . S
O152 Tb128 2.378 . S
O152 C138 1.236 1_545 S
O153 Tb129 2.341 . S
O153 C138 1.266 . S
O154 Tb129 2.471 1_545 S
O154 C139 1.218 1_545 S
O155 Tb129 2.440 . S
O155 C139 1.266 . S
O156 Tb128 2.325 1_565 S
O156 Tb129 2.658 . S
O156 C146 1.281 . S
O157 Tb129 2.409 . S
O157 C146 1.254 . S
O158 Tb129 2.378 . S
O158 C147 1.236 1_565 S
O159 Tb128 2.341 . S
O159 C147 1.266 . S
H160 C132 0.929 1_565 S
H161 C133 0.931 1_565 S
H162 C135 0.930 . S
H163 C136 0.930 . S
H164 C141 0.929 1_545 S
H165 C142 0.931 1_545 S
H166 C144 0.930 . S
H167 C145 0.930 . S
Tb168 C170 2.809 . S
Tb168 O188 2.484 . S
Tb168 O189 2.440 . S
Tb168 O190 2.658 . S
Tb168 O191 2.409 . S
Tb168 O192 2.378 . S
Tb168 O196 2.325 . S
Tb168 O199 2.341 . S
Tb169 C179 2.809 . S
Tb169 O190 2.325 . S
Tb169 O193 2.341 . S
Tb169 O194 2.484 . S
Tb169 O195 2.440 . S
Tb169 O196 2.658 . S
Tb169 O197 2.409 . S
Tb169 O198 2.378 . S
C170 Tb168 2.809 . S
C170 C171 1.514 . S
C170 O188 1.248 . S
C170 O189 1.266 . S
C171 C170 1.514 . S
C171 C172 1.359 . S
C171 C176 1.348 . S
C172 C171 1.359 . S
C172 C173 1.380 . S
C172 H200 0.929 . S
C173 C172 1.380 . S
C173 C174 1.347 . S
C173 H201 0.931 . S
C174 C173 1.347 . S
C174 C175 1.369 . S
C175 C174 1.369 . S
C175 C176 1.408 . S
C175 H202 0.930 . S
C176 C171 1.348 . S
C176 C175 1.408 . S
C176 H203 0.930 . S
C177 O190 1.281 . S
C177 O191 1.254 . S
C178 O192 1.236 . S
C178 O193 1.266 . S
C179 Tb169 2.809 . S
C179 C180 1.514 . S
C179 O194 1.248 . S
C179 O195 1.266 . S
C180 C179 1.514 . S
C180 C181 1.359 . S
C180 C185 1.348 . S
C181 C180 1.359 . S
C181 C182 1.380 . S
C181 H204 0.929 . S
C182 C181 1.380 . S
C182 C183 1.347 . S
C182 H205 0.931 . S
C183 C182 1.347 . S
C183 C184 1.369 . S
C184 C183 1.369 . S
C184 C185 1.408 . S
C184 H206 0.930 . S
C185 C180 1.348 . S
C185 C184 1.408 . S
C185 H207 0.930 . S
C186 O196 1.281 . S
C186 O197 1.254 . S
C187 O198 1.236 . S
C187 O199 1.266 . S
O188 Tb168 2.484 . S
O188 C170 1.248 . S
O189 Tb168 2.440 . S
O189 C170 1.266 . S
O190 Tb168 2.658 . S
O190 Tb169 2.325 . S
O190 C177 1.281 . S
O191 Tb168 2.409 . S
O191 C177 1.254 . S
O192 Tb168 2.378 . S
O192 C178 1.236 . S
O193 Tb169 2.341 . S
O193 C178 1.266 . S
O194 Tb169 2.484 . S
O194 C179 1.248 . S
O195 Tb169 2.440 . S
O195 C179 1.266 . S
O196 Tb168 2.325 . S
O196 Tb169 2.658 . S
O196 C186 1.281 . S
O197 Tb169 2.409 . S
O197 C186 1.254 . S
O198 Tb169 2.378 . S
O198 C187 1.236 . S
O199 Tb168 2.341 . S
O199 C187 1.266 . S
H200 C172 0.929 . S
H201 C173 0.931 . S
H202 C175 0.930 . S
H203 C176 0.930 . S
H204 C181 0.929 . S
H205 C182 0.931 . S
H206 C184 0.930 . S
H207 C185 0.930 . S
Tb208 C210 2.809 . S
Tb208 O228 2.484 . S
Tb208 O229 2.440 . S
Tb208 O230 2.658 1_655 S
Tb208 O231 2.409 . S
Tb208 O232 2.378 . S
Tb208 O236 2.325 . S
Tb208 O239 2.341 1_655 S
Tb209 C219 2.809 . S
Tb209 O230 2.325 . S
Tb209 O233 2.341 1_455 S
Tb209 O234 2.484 . S
Tb209 O235 2.440 . S
Tb209 O236 2.658 1_455 S
Tb209 O237 2.409 . S
Tb209 O238 2.378 . S
C210 Tb208 2.809 . S
C210 C211 1.514 . S
C210 O228 1.248 . S
C210 O229 1.266 . S
C211 C210 1.514 . S
C211 C212 1.359 . S
C211 C216 1.348 . S
C212 C211 1.359 . S
C212 C213 1.380 . S
C212 H240 0.929 . S
C213 C212 1.380 . S
C213 C214 1.347 . S
C213 H241 0.931 . S
C214 C213 1.347 . S
C214 C215 1.369 . S
C215 C214 1.369 . S
C215 C216 1.408 . S
C215 H242 0.930 . S
C216 C211 1.348 . S
C216 C215 1.408 . S
C216 H243 0.930 . S
C217 O230 1.269 1_655 S
C217 O231 1.270 . S
C218 O232 1.236 . S
C218 O233 1.266 . S
C219 Tb209 2.809 . S
C219 C220 1.514 . S
C219 O234 1.248 . S
C219 O235 1.266 . S
C220 C219 1.514 . S
C220 C221 1.359 . S
C220 C225 1.348 . S
C221 C220 1.359 . S
C221 C222 1.380 . S
C221 H244 0.929 . S
C222 C221 1.380 . S
C222 C223 1.347 . S
C222 H245 0.931 . S
C223 C222 1.347 . S
C223 C224 1.369 . S
C224 C223 1.369 . S
C224 C225 1.408 . S
C224 H246 0.930 . S
C225 C220 1.348 . S
C225 C224 1.408 . S
C225 H247 0.930 . S
C226 O236 1.265 1_455 S
C226 O237 1.277 . S
C227 O238 1.236 . S
C227 O239 1.266 . S
O228 Tb208 2.484 . S
O228 C210 1.248 . S
O229 Tb208 2.440 . S
O229 C210 1.266 . S
O230 Tb208 2.658 1_455 S
O230 Tb209 2.325 . S
O230 C217 1.269 1_455 S
O231 Tb208 2.409 . S
O231 C217 1.270 . S
O232 Tb208 2.378 . S
O232 C218 1.236 . S
O233 Tb209 2.341 1_655 S
O233 C218 1.266 . S
O234 Tb209 2.484 . S
O234 C219 1.248 . S
O235 Tb209 2.440 . S
O235 C219 1.266 . S
O236 Tb208 2.325 . S
O236 Tb209 2.658 1_655 S
O236 C226 1.265 1_655 S
O237 Tb209 2.409 . S
O237 C226 1.277 . S
O238 Tb209 2.378 . S
O238 C227 1.236 . S
O239 Tb208 2.341 1_455 S
O239 C227 1.266 . S
H240 C212 0.929 . S
H241 C213 0.931 . S
H242 C215 0.930 . S
H243 C216 0.930 . S
H244 C221 0.929 . S
H245 C222 0.931 . S
H246 C224 0.930 . S
H247 C225 0.930 . S
H248 C256 0.929 . S
H249 C258 0.930 . S
H250 C260 0.930 . S
H251 C263 0.929 . S
H252 C266 0.930 . S
H253 C268 0.960 . S
H254 C268 0.960 . S
H255 C268 0.960 . S
C256 H248 0.929 . S
C256 C257 1.378 . S
C256 C258 1.384 . S
C257 C256 1.378 . S
C257 C263 1.389 1_565 S
C258 H249 0.930 . S
C258 C256 1.384 . S
C258 C259 1.373 . S
C259 C258 1.373 . S
C259 C260 1.398 1_565 S
C259 C264 1.489 1_565 S
C260 H250 0.930 . S
C260 C259 1.398 1_545 S
C260 C263 1.386 . S
H261 C277 0.930 . S
H262 C278 0.931 . S
C263 H251 0.929 . S
C263 C257 1.389 1_545 S
C263 C260 1.386 . S
C264 C259 1.489 1_545 S
C264 C266 1.406 . S
C264 C267 1.392 1_545 S
H265 C271 0.930 . S
C266 H252 0.930 . S
C266 C264 1.406 . S
C266 C269 1.403 . S
C267 C264 1.392 1_565 S
C267 C268 1.524 . S
C267 C271 1.400 . S
C268 H253 0.960 . S
C268 H254 0.960 . S
C268 H255 0.960 . S
C268 C267 1.524 . S
C269 C266 1.403 . S
C269 C270 1.392 . S
C269 C273 1.495 . S
C270 C269 1.392 . S
C270 C271 1.385 1_545 S
C270 C272 1.478 . S
C271 H265 0.930 . S
C271 C267 1.400 . S
C271 C270 1.385 1_565 S
C272 C270 1.478 . S
C272 C274 1.381 1_545 S
C272 C278 1.383 . S
C273 C269 1.495 . S
C273 H279 0.959 . S
C273 H280 0.961 . S
C273 H281 0.960 . S
C274 C272 1.381 1_565 S
C274 C275 1.394 . S
C274 H282 0.930 . S
C275 C274 1.394 . S
C275 C276 1.383 1_565 S
C275 H283 0.929 . S
C276 C275 1.383 1_545 S
C276 C277 1.377 . S
C277 H261 0.930 . S
C277 C276 1.377 . S
C277 C278 1.379 . S
C278 H262 0.931 . S
C278 C272 1.383 . S
C278 C277 1.379 . S
H279 C273 0.959 . S
H280 C273 0.961 . S
H281 C273 0.960 . S
H282 C274 0.930 . S
H283 C275 0.929 . S
H284 C292 0.929 . S
H285 C294 0.930 . S
H286 C296 0.930 . S
H287 C299 0.929 . S
H288 C302 0.930 . S
H289 C304 0.960 . S
H290 C304 0.960 . S
H291 C304 0.960 . S
C292 H284 0.929 . S
C292 C293 1.377 . S
C292 C294 1.384 . S
C293 C292 1.377 . S
C293 C299 1.390 . S
C294 H285 0.930 . S
C294 C292 1.384 . S
C294 C295 1.372 . S
C295 C294 1.372 . S
C295 C296 1.400 . S
C295 C300 1.490 . S
C296 H286 0.930 . S
C296 C295 1.400 . S
C296 C299 1.386 . S
H297 C313 0.930 . S
H298 C314 0.931 . S
C299 H287 0.929 . S
C299 C293 1.390 . S
C299 C296 1.386 . S
C300 C295 1.490 . S
C300 C302 1.395 . S
C300 C303 1.403 . S
H301 C307 0.930 . S
C302 H288 0.930 . S
C302 C300 1.395 . S
C302 C305 1.403 . S
C303 C300 1.403 . S
C303 C304 1.524 . S
C303 C307 1.400 . S
C304 H289 0.960 . S
C304 H290 0.960 . S
C304 H291 0.960 . S
C304 C303 1.524 . S
C305 C302 1.403 . S
C305 C306 1.392 . S
C305 C309 1.495 . S
C306 C305 1.392 . S
C306 C307 1.385 . S
C306 C308 1.478 . S
C307 H301 0.930 . S
C307 C303 1.400 . S
C307 C306 1.385 . S
C308 C306 1.478 . S
C308 C310 1.381 . S
C308 C314 1.383 . S
C309 C305 1.495 . S
C309 H315 0.959 . S
C309 H316 0.961 . S
C309 H317 0.960 . S
C310 C308 1.381 . S
C310 C311 1.394 . S
C310 H318 0.930 . S
C311 C310 1.394 . S
C311 C312 1.383 . S
C311 H319 0.929 . S
C312 C311 1.383 . S
C312 C313 1.377 . S
C313 H297 0.930 . S
C313 C312 1.377 . S
C313 C314 1.379 . S
C314 H298 0.931 . S
C314 C308 1.383 . S
C314 C313 1.379 . S
H315 C309 0.959 . S
H316 C309 0.961 . S
H317 C309 0.960 . S
H318 C310 0.930 . S
H319 C311 0.929 . S
H320 C328 0.929 . S
H321 C330 0.930 . S
H322 C332 0.930 . S
H323 C335 0.929 . S
H324 C338 0.930 . S
H325 C340 0.960 . S
H326 C340 0.960 . S
H327 C340 0.960 . S
C328 H320 0.929 . S
C328 C329 1.377 . S
C328 C330 1.384 . S
C329 C328 1.377 . S
C329 C335 1.390 . S
C330 H321 0.930 . S
C330 C328 1.384 . S
C330 C331 1.372 . S
C331 C330 1.372 . S
C331 C332 1.400 . S
C331 C336 1.490 . S
C332 H322 0.930 . S
C332 C331 1.400 . S
C332 C335 1.386 . S
H333 C349 0.930 . S
H334 C350 0.931 . S
C335 H323 0.929 . S
C335 C329 1.390 . S
C335 C332 1.386 . S
C336 C331 1.490 . S
C336 C338 1.395 . S
C336 C339 1.403 . S
H337 C343 0.930 . S
C338 H324 0.930 . S
C338 C336 1.395 . S
C338 C341 1.403 . S
C339 C336 1.403 . S
C339 C340 1.524 . S
C339 C343 1.400 . S
C340 H325 0.960 . S
C340 H326 0.960 . S
C340 H327 0.960 . S
C340 C339 1.524 . S
C341 C338 1.403 . S
C341 C342 1.392 . S
C341 C345 1.495 . S
C342 C341 1.392 . S
C342 C343 1.385 . S
C342 C344 1.478 . S
C343 H337 0.930 . S
C343 C339 1.400 . S
C343 C342 1.385 . S
C344 C342 1.478 . S
C344 C346 1.381 . S
C344 C350 1.383 . S
C345 C341 1.495 . S
C345 H351 0.959 . S
C345 H352 0.961 . S
C345 H353 0.960 . S
C346 C344 1.381 . S
C346 C347 1.394 . S
C346 H354 0.930 . S
C347 C346 1.394 . S
C347 C348 1.383 . S
C347 H355 0.929 . S
C348 C347 1.383 . S
C348 C349 1.377 . S
C349 H333 0.930 . S
C349 C348 1.377 . S
C349 C350 1.379 . S
C350 H334 0.931 . S
C350 C344 1.383 . S
C350 C349 1.379 . S
H351 C345 0.959 . S
H352 C345 0.961 . S
H353 C345 0.960 . S
H354 C346 0.930 . S
H355 C347 0.929 . S
H356 C364 0.929 . S
H357 C366 0.930 . S
H358 C368 0.930 . S
H359 C371 0.929 . S
H360 C374 0.930 . S
H361 C376 0.960 . S
H362 C376 0.960 . S
H363 C376 0.960 . S
C364 H356 0.929 . S
C364 C365 1.379 1_455 S
C364 C366 1.384 . S
C365 C364 1.379 1_655 S
C365 C371 1.388 . S
C366 H357 0.930 . S
C366 C364 1.384 . S
C366 C367 1.380 . S
C367 C366 1.380 . S
C367 C368 1.391 1_455 S
C367 C372 1.491 . S
C368 H358 0.930 . S
C368 C367 1.391 1_655 S
C368 C371 1.386 . S
H369 C385 0.930 . S
H370 C386 0.934 . S
C371 H359 0.929 . S
C371 C365 1.388 . S
C371 C368 1.386 . S
C372 C367 1.491 . S
C372 C374 1.395 . S
C372 C375 1.403 1_455 S
H373 C379 0.930 . S
C374 H360 0.930 . S
C374 C372 1.395 . S
C374 C377 1.403 . S
C375 C372 1.403 1_655 S
C375 C376 1.524 . S
C375 C379 1.400 . S
C376 H361 0.960 . S
C376 H362 0.960 . S
C376 H363 0.960 . S
C376 C375 1.524 . S
C377 C374 1.403 . S
C377 C378 1.392 . S
C377 C381 1.495 . S
C378 C377 1.392 . S
C378 C379 1.385 1_455 S
C378 C380 1.478 . S
C379 H373 0.930 . S
C379 C375 1.400 . S
C379 C378 1.385 1_655 S
C380 C378 1.478 . S
C380 C382 1.381 . S
C380 C386 1.379 1_455 S
C381 C377 1.495 . S
C381 H387 0.959 . S
C381 H388 0.961 . S
C381 H389 0.960 . S
C382 C380 1.381 . S
C382 C383 1.394 . S
C382 H390 0.930 . S
C383 C382 1.394 . S
C383 C384 1.383 . S
C383 H391 0.929 . S
C384 C383 1.383 . S
C384 C385 1.377 1_455 S
C385 H369 0.930 . S
C385 C384 1.377 1_655 S
C385 C386 1.380 . S
C386 H370 0.934 . S
C386 C380 1.379 1_655 S
C386 C385 1.380 . S
H387 C381 0.959 . S
H388 C381 0.961 . S
H389 C381 0.960 . S
H390 C382 0.930 . S
H391 C383 0.929 . S
H392 C400 0.929 . S
H393 C402 0.930 . S
H394 C404 0.930 . S
H395 C407 0.929 . S
H396 C410 0.930 . S
H397 C412 0.960 . S
H398 C412 0.960 1_565 S
H399 C412 0.960 . S
C400 H392 0.929 . S
C400 C401 1.382 . S
C400 C402 1.384 . S
C401 C400 1.382 . S
C401 C407 1.385 1_565 S
C402 H393 0.930 . S
C402 C400 1.384 . S
C402 C403 1.372 . S
C403 C402 1.372 . S
C403 C404 1.400 1_565 S
C403 C408 1.490 . S
C404 H394 0.930 . S
C404 C403 1.400 1_545 S
C404 C407 1.386 . S
H405 C421 0.930 . S
H406 C422 0.931 . S
C407 H395 0.929 . S
C407 C401 1.385 1_545 S
C407 C404 1.386 . S
C408 C403 1.490 . S
C408 C410 1.395 . S
C408 C411 1.403 1_565 S
H409 C415 0.930 . S
C410 H396 0.930 . S
C410 C408 1.395 . S
C410 C413 1.403 1_554 S
C411 C408 1.403 1_545 S
C411 C412 1.524 . S
C411 C415 1.400 . S
C412 H397 0.960 . S
C412 H398 0.960 1_545 S
C412 H399 0.960 . S
C412 C411 1.524 . S
C413 C410 1.403 1_556 S
C413 C414 1.392 . S
C413 C417 1.495 . S
C414 C413 1.392 . S
C414 C415 1.385 1_566 S
C414 C416 1.478 . S
C415 H409 0.930 . S
C415 C411 1.400 . S
C415 C414 1.385 1_544 S
C416 C414 1.478 . S
C416 C418 1.381 . S
C416 C422 1.383 1_565 S
C417 C413 1.495 . S
C417 H423 0.959 . S
C417 H424 0.949 1_565 S
C417 H425 0.960 . S
C418 C416 1.381 . S
C418 C419 1.394 . S
C418 H426 0.930 . S
C419 C418 1.394 . S
C419 C420 1.407 . S
C419 H427 0.929 . S
C420 C419 1.407 . S
C420 C421 1.354 1_565 S
C421 H405 0.930 . S
C421 C420 1.354 1_545 S
C421 C422 1.379 . S
C422 H406 0.931 . S
C422 C416 1.383 1_545 S
C422 C421 1.379 . S
H423 C417 0.959 . S
H424 C417 0.949 1_545 S
H425 C417 0.960 . S
H426 C418 0.930 . S
H427 C419 0.929 . S
H428 C436 0.929 . S
H429 C438 0.930 . S
H430 C440 0.930 . S
H431 C443 0.929 . S
H432 C446 0.930 . S
H433 C448 0.960 . S
H434 C448 0.960 . S
H435 C448 0.960 . S
C436 H428 0.929 . S
C436 C437 1.377 . S
C436 C438 1.384 . S
C437 C436 1.377 . S
C437 C443 1.390 . S
C438 H429 0.930 . S
C438 C436 1.384 . S
C438 C439 1.372 . S
C439 C438 1.372 . S
C439 C440 1.400 . S
C439 C444 1.490 . S
C440 H430 0.930 . S
C440 C439 1.400 . S
C440 C443 1.386 . S
H441 C457 0.930 . S
H442 C458 0.931 1_554 S
C443 H431 0.929 . S
C443 C437 1.390 . S
C443 C440 1.386 . S
C444 C439 1.490 . S
C444 C446 1.395 . S
C444 C447 1.403 . S
H445 C451 0.930 1_556 S
C446 H432 0.930 . S
C446 C444 1.395 . S
C446 C449 1.403 . S
C447 C444 1.403 . S
C447 C448 1.524 . S
C447 C451 1.400 . S
C448 H433 0.960 . S
C448 H434 0.960 . S
C448 H435 0.960 . S
C448 C447 1.524 . S
C449 C446 1.403 . S
C449 C450 1.392 . S
C449 C453 1.495 . S
C450 C449 1.392 . S
C450 C451 1.385 . S
C450 C452 1.478 1_554 S
C451 H445 0.930 1_554 S
C451 C447 1.400 . S
C451 C450 1.385 . S
C452 C450 1.478 1_556 S
C452 C454 1.381 . S
C452 C458 1.383 . S
C453 C449 1.495 . S
C453 H459 0.959 . S
C453 H460 0.961 . S
C453 H461 0.947 1_554 S
C454 C452 1.381 . S
C454 C455 1.394 . S
C454 H462 0.930 . S
C455 C454 1.394 . S
C455 C456 1.383 . S
C455 H463 0.929 . S
C456 C455 1.383 . S
C456 C457 1.377 . S
C457 H441 0.930 . S
C457 C456 1.377 . S
C457 C458 1.379 . S
C458 H442 0.931 1_556 S
C458 C452 1.383 . S
C458 C457 1.379 . S
H459 C453 0.959 . S
H460 C453 0.961 . S
H461 C453 0.947 1_556 S
H462 C454 0.930 . S
H463 C455 0.929 . S
H464 C472 0.929 . S
H465 C474 0.930 . S
H466 C476 0.930 . S
H467 C479 0.929 . S
H468 C482 0.930 . S
H469 C484 0.960 . S
H470 C484 0.960 . S
H471 C484 0.960 . S
C472 H464 0.929 . S
C472 C473 1.377 . S
C472 C474 1.384 . S
C473 C472 1.377 . S
C473 C479 1.390 . S
C474 H465 0.930 . S
C474 C472 1.384 . S
C474 C475 1.372 . S
C475 C474 1.372 . S
C475 C476 1.400 . S
C475 C480 1.490 . S
C476 H466 0.930 . S
C476 C475 1.400 . S
C476 C479 1.386 . S
H477 C493 0.930 . S
H478 C494 0.931 . S
C479 H467 0.929 . S
C479 C473 1.390 . S
C479 C476 1.386 . S
C480 C475 1.490 . S
C480 C482 1.395 . S
C480 C483 1.403 . S
H481 C487 0.930 . S
C482 H468 0.930 . S
C482 C480 1.395 . S
C482 C485 1.403 1_554 S
C483 C480 1.403 . S
C483 C484 1.524 . S
C483 C487 1.400 . S
C484 H469 0.960 . S
C484 H470 0.960 . S
C484 H471 0.960 . S
C484 C483 1.524 . S
C485 C482 1.403 1_556 S
C485 C486 1.392 . S
C485 C489 1.495 . S
C486 C485 1.392 . S
C486 C487 1.385 1_556 S
C486 C488 1.478 . S
C487 H481 0.930 . S
C487 C483 1.400 . S
C487 C486 1.385 1_554 S
C488 C486 1.478 . S
C488 C490 1.381 . S
C488 C494 1.383 . S
C489 C485 1.495 . S
C489 H495 0.959 . S
C489 H496 0.961 . S
C489 H497 0.960 . S
C490 C488 1.381 . S
C490 C491 1.394 . S
C490 H498 0.930 . S
C491 C490 1.394 . S
C491 C492 1.383 . S
C491 H499 0.929 . S
C492 C491 1.383 . S
C492 C493 1.377 . S
C493 H477 0.930 . S
C493 C492 1.377 . S
C493 C494 1.379 . S
C494 H478 0.931 . S
C494 C488 1.383 . S
C494 C493 1.379 . S
H495 C489 0.959 . S
H496 C489 0.961 . S
H497 C489 0.960 . S
H498 C490 0.930 . S
H499 C491 0.929 . S
H500 C508 0.929 . S
H501 C510 0.930 . S
H502 C512 0.930 . S
H503 C515 0.929 . S
H504 C518 0.930 . S
H505 C520 0.960 . S
H506 C520 0.960 . S
H507 C520 0.960 1_455 S
C508 H500 0.929 . S
C508 C509 1.395 . S
C508 C510 1.384 . S
C509 C508 1.395 . S
C509 C515 1.373 1_655 S
C510 H501 0.930 . S
C510 C508 1.384 . S
C510 C511 1.372 . S
C511 C510 1.372 . S
C511 C512 1.400 1_655 S
C511 C516 1.490 . S
C512 H502 0.930 . S
C512 C511 1.400 1_455 S
C512 C515 1.386 . S
H513 C529 0.930 . S
H514 C530 0.931 . S
C515 H503 0.929 . S
C515 C509 1.373 1_455 S
C515 C512 1.386 . S
C516 C511 1.490 . S
C516 C518 1.395 . S
C516 C519 1.403 . S
H517 C523 0.933 . S
C518 H504 0.930 . S
C518 C516 1.395 . S
C518 C521 1.403 1_554 S
C519 C516 1.403 . S
C519 C520 1.524 . S
C519 C523 1.400 . S
C520 H505 0.960 . S
C520 H506 0.960 . S
C520 H507 0.960 1_655 S
C520 C519 1.524 . S
C521 C518 1.403 1_556 S
C521 C522 1.392 . S
C521 C525 1.495 . S
C522 C521 1.392 . S
C522 C523 1.385 1_556 S
C522 C524 1.479 . S
C523 H517 0.933 . S
C523 C519 1.400 . S
C523 C522 1.385 1_554 S
C524 C522 1.479 . S
C524 C526 1.412 . S
C524 C530 1.352 1_655 S
C525 C521 1.495 . S
C525 H531 0.959 . S
C525 H532 0.961 1_655 S
C525 H533 0.960 . S
C526 C524 1.412 . S
C526 C527 1.394 . S
C526 H534 0.930 . S
C527 C526 1.394 . S
C527 C528 1.412 . S
C527 H535 0.929 . S
C528 C527 1.412 . S
C528 C529 1.348 1_655 S
C529 H513 0.930 . S
C529 C528 1.348 1_455 S
C529 C530 1.379 . S
C530 H514 0.931 . S
C530 C524 1.352 1_455 S
C530 C529 1.379 . S
H531 C525 0.959 . S
H532 C525 0.961 1_455 S
H533 C525 0.960 . S
H534 C526 0.930 . S
H535 C527 0.929 . S
H536 C544 0.929 . S
H537 C546 0.930 . S
H538 C548 0.930 . S
H539 C551 0.929 . S
H540 C554 0.930 . S
H541 C556 0.962 . S
H542 C556 0.948 1_655 S
H543 C556 0.975 . S
C544 H536 0.929 . S
C544 C545 1.328 1_655 S
C544 C546 1.384 . S
C545 C544 1.328 1_455 S
C545 C551 1.431 . S
C546 H537 0.930 . S
C546 C544 1.384 . S
C546 C547 1.372 . S
C547 C546 1.372 . S
C547 C548 1.400 1_655 S
C547 C552 1.490 . S
C548 H538 0.930 . S
C548 C547 1.400 1_455 S
C548 C551 1.386 . S
H549 C565 0.930 1_455 S
H550 C566 0.931 1_455 S
C551 H539 0.929 . S
C551 C545 1.431 . S
C551 C548 1.386 . S
C552 C547 1.490 . S
C552 C554 1.395 . S
C552 C555 1.403 . S
H553 C559 0.930 . S
C554 H540 0.930 . S
C554 C552 1.395 . S
C554 C557 1.403 . S
C555 C552 1.403 . S
C555 C556 1.519 1_655 S
C555 C559 1.400 . S
C556 H541 0.962 . S
C556 H542 0.948 1_455 S
C556 H543 0.975 . S
C556 C555 1.519 1_455 S
C557 C554 1.403 . S
C557 C558 1.392 . S
C557 C561 1.495 . S
C558 C557 1.392 . S
C558 C559 1.385 . S
C558 C560 1.478 . S
C559 H553 0.930 . S
C559 C555 1.400 . S
C559 C558 1.385 . S
C560 C558 1.478 . S
C560 C562 1.381 . S
C560 C566 1.383 . S
C561 C557 1.495 . S
C561 H567 0.959 . S
C561 H568 0.961 . S
C561 H569 0.960 . S
C562 C560 1.381 . S
C562 C563 1.394 . S
C562 H570 0.930 . S
C563 C562 1.394 . S
C563 C564 1.383 . S
C563 H571 0.929 . S
C564 C563 1.383 . S
C564 C565 1.377 . S
C565 H549 0.930 1_655 S
C565 C564 1.377 . S
C565 C566 1.379 . S
C566 H550 0.931 1_655 S
C566 C560 1.383 . S
C566 C565 1.379 . S
H567 C561 0.959 . S
H568 C561 0.961 . S
H569 C561 0.960 . S
H570 C562 0.930 . S
H571 C563 0.929 . S
H572 C580 0.929 . S
H573 C582 0.930 . S
H574 C584 0.930 . S
H575 C587 0.929 . S
H576 C590 0.930 . S
H577 C592 0.960 . S
H578 C592 0.960 . S
H579 C592 0.960 . S
C580 H572 0.929 . S
C580 C581 1.369 1_565 S
C580 C582 1.384 . S
C581 C580 1.369 1_545 S
C581 C587 1.392 . S
C582 H573 0.930 . S
C582 C580 1.384 . S
C582 C583 1.372 . S
C583 C582 1.372 . S
C583 C584 1.400 . S
C583 C588 1.490 . S
C584 H574 0.930 . S
C584 C583 1.400 . S
C584 C587 1.386 1_565 S
H585 C601 0.930 . S
H586 C602 0.931 . S
C587 H575 0.929 . S
C587 C581 1.392 . S
C587 C584 1.386 1_545 S
C588 C583 1.490 . S
C588 C590 1.395 1_565 S
C588 C591 1.403 . S
H589 C595 0.930 . S
C590 H576 0.930 . S
C590 C588 1.395 1_545 S
C590 C593 1.403 . S
C591 C588 1.403 . S
C591 C592 1.524 . S
C591 C595 1.400 . S
C592 H577 0.960 . S
C592 H578 0.960 . S
C592 H579 0.960 . S
C592 C591 1.524 . S
C593 C590 1.403 . S
C593 C594 1.392 1_545 S
C593 C597 1.495 . S
C594 C593 1.392 1_565 S
C594 C595 1.385 . S
C594 C596 1.478 . S
C595 H589 0.930 . S
C595 C591 1.400 . S
C595 C594 1.385 . S
C596 C594 1.478 . S
C596 C598 1.381 . S
C596 C602 1.383 . S
C597 C593 1.495 . S
C597 H603 0.959 . S
C597 H604 0.961 . S
C597 H605 0.960 . S
C598 C596 1.381 . S
C598 C599 1.394 . S
C598 H606 0.930 . S
C599 C598 1.394 . S
C599 C600 1.383 . S
C599 H607 0.929 . S
C600 C599 1.383 . S
C600 C601 1.377 . S
C601 H585 0.930 . S
C601 C600 1.377 . S
C601 C602 1.379 . S
C602 H586 0.931 . S
C602 C596 1.383 . S
C602 C601 1.379 . S
H603 C597 0.959 . S
H604 C597 0.961 . S
H605 C597 0.960 . S
H606 C598 0.930 . S
H607 C599 0.929 . S
H608 C616 0.929 . S
H609 C618 0.930 . S
H610 C620 0.930 . S
H611 C623 0.929 . S
H612 C626 0.930 . S
H613 C628 0.960 . S
H614 C628 0.960 . S
H615 C628 0.960 . S
C616 H608 0.929 . S
C616 C617 1.377 . S
C616 C618 1.384 . S
C617 C616 1.377 . S
C617 C623 1.390 . S
C618 H609 0.930 . S
C618 C616 1.384 . S
C618 C619 1.372 . S
C619 C618 1.372 . S
C619 C620 1.400 . S
C619 C624 1.490 . S
C620 H610 0.930 . S
C620 C619 1.400 . S
C620 C623 1.386 . S
H621 C637 0.930 . S
H622 C638 0.931 . S
C623 H611 0.929 . S
C623 C617 1.390 . S
C623 C620 1.386 . S
C624 C619 1.490 . S
C624 C626 1.395 . S
C624 C627 1.403 . S
H625 C631 0.930 . S
C626 H612 0.930 . S
C626 C624 1.395 . S
C626 C629 1.403 . S
C627 C624 1.403 . S
C627 C628 1.524 . S
C627 C631 1.400 . S
C628 H613 0.960 . S
C628 H614 0.960 . S
C628 H615 0.960 . S
C628 C627 1.524 . S
C629 C626 1.403 . S
C629 C630 1.392 . S
C629 C633 1.495 . S
C630 C629 1.392 . S
C630 C631 1.385 . S
C630 C632 1.478 . S
C631 H625 0.930 . S
C631 C627 1.400 . S
C631 C630 1.385 . S
C632 C630 1.478 . S
C632 C634 1.381 . S
C632 C638 1.383 . S
C633 C629 1.495 . S
C633 H639 0.959 . S
C633 H640 0.961 . S
C633 H641 0.960 . S
C634 C632 1.381 . S
C634 C635 1.394 . S
C634 H642 0.930 . S
C635 C634 1.394 . S
C635 C636 1.383 . S
C635 H643 0.929 . S
C636 C635 1.383 . S
C636 C637 1.377 . S
C637 H621 0.930 . S
C637 C636 1.377 . S
C637 C638 1.379 . S
C638 H622 0.931 . S
C638 C632 1.383 . S
C638 C637 1.379 . S
H639 C633 0.959 . S
H640 C633 0.961 . S
H641 C633 0.960 . S
H642 C634 0.930 . S
H643 C635 0.929 . S
H644 C652 0.929 . S
H645 C654 0.930 . S
H646 C656 0.930 . S
H647 C659 0.929 . S
H648 C662 0.930 . S
H649 C664 0.960 . S
H650 C664 0.960 . S
H651 C664 0.960 . S
C652 H644 0.929 . S
C652 C653 1.377 . S
C652 C654 1.384 . S
C653 C652 1.377 . S
C653 C659 1.390 . S
C654 H645 0.930 . S
C654 C652 1.384 . S
C654 C655 1.372 . S
C655 C654 1.372 . S
C655 C656 1.400 . S
C655 C660 1.490 . S
C656 H646 0.930 . S
C656 C655 1.400 . S
C656 C659 1.386 . S
H657 C673 0.930 . S
H658 C674 0.931 . S
C659 H647 0.929 . S
C659 C653 1.390 . S
C659 C656 1.386 . S
C660 C655 1.490 . S
C660 C662 1.395 . S
C660 C663 1.403 . S
H661 C667 0.930 . S
C662 H648 0.930 . S
C662 C660 1.395 . S
C662 C665 1.403 . S
C663 C660 1.403 . S
C663 C664 1.524 . S
C663 C667 1.400 . S
C664 H649 0.960 . S
C664 H650 0.960 . S
C664 H651 0.960 . S
C664 C663 1.524 . S
C665 C662 1.403 . S
C665 C666 1.392 . S
C665 C669 1.495 . S
C666 C665 1.392 . S
C666 C667 1.385 . S
C666 C668 1.478 . S
C667 H661 0.930 . S
C667 C663 1.400 . S
C667 C666 1.385 . S
C668 C666 1.478 . S
C668 C670 1.381 . S
C668 C674 1.383 . S
C669 C665 1.495 . S
C669 H675 0.959 . S
C669 H676 0.961 . S
C669 H677 0.960 . S
C670 C668 1.381 . S
C670 C671 1.394 . S
C670 H678 0.930 . S
C671 C670 1.394 . S
C671 C672 1.383 . S
C671 H679 0.929 . S
C672 C671 1.383 . S
C672 C673 1.377 . S
C673 H657 0.930 . S
C673 C672 1.377 . S
C673 C674 1.379 . S
C674 H658 0.931 . S
C674 C668 1.383 . S
C674 C673 1.379 . S
H675 C669 0.959 . S
H676 C669 0.961 . S
H677 C669 0.960 . S
H678 C670 0.930 . S
H679 C671 0.929 . S
H680 C688 0.929 . S
H681 C690 0.930 . S
H682 C692 0.930 . S
H683 C695 0.929 . S
H684 C698 0.930 . S
H685 C700 0.960 . S
H686 C700 0.960 . S
H687 C700 0.960 . S
C688 H680 0.929 . S
C688 C689 1.377 . S
C688 C690 1.384 . S
C689 C688 1.377 . S
C689 C695 1.390 1_655 S
C690 H681 0.930 . S
C690 C688 1.384 . S
C690 C691 1.372 1_655 S
C691 C690 1.372 1_455 S
C691 C692 1.400 . S
C691 C696 1.490 . S
C692 H682 0.930 . S
C692 C691 1.400 . S
C692 C695 1.386 . S
H693 C709 0.930 . S
H694 C710 0.931 . S
C695 H683 0.929 . S
C695 C689 1.390 1_455 S
C695 C692 1.386 . S
C696 C691 1.490 . S
C696 C698 1.395 1_455 S
C696 C699 1.403 . S
H697 C703 0.930 . S
C698 H684 0.930 . S
C698 C696 1.395 1_655 S
C698 C701 1.411 . S
C699 C696 1.403 . S
C699 C700 1.524 . S
C699 C703 1.400 . S
C700 H685 0.960 . S
C700 H686 0.960 . S
C700 H687 0.960 . S
C700 C699 1.524 . S
C701 C698 1.411 . S
C701 C702 1.358 1_655 S
C701 C705 1.525 . S
C702 C701 1.358 1_455 S
C702 C703 1.385 . S
C702 C704 1.478 . S
C703 H697 0.930 . S
C703 C699 1.400 . S
C703 C702 1.385 . S
C704 C702 1.478 . S
C704 C706 1.384 . S
C704 C710 1.383 . S
C705 C701 1.525 . S
C705 H711 0.959 . S
C705 H712 0.961 . S
C705 H713 0.960 . S
C706 C704 1.384 . S
C706 C707 1.395 1_554 S
C706 H714 0.927 1_455 S
C707 C706 1.395 1_556 S
C707 C708 1.383 . S
C707 H715 0.929 1_455 S
C708 C707 1.383 . S
C708 C709 1.377 1_556 S
C709 H693 0.930 . S
C709 C708 1.377 1_554 S
C709 C710 1.379 . S
C710 H694 0.931 . S
C710 C704 1.383 . S
C710 C709 1.379 . S
H711 C705 0.959 . S
H712 C705 0.961 . S
H713 C705 0.960 . S
H714 C706 0.927 1_655 S
H715 C707 0.929 1_655 S
H716 C724 0.929 . S
H717 C726 0.930 . S
H718 C728 0.930 . S
H719 C731 0.929 . S
H720 C734 0.925 1_565 S
H721 C736 0.960 . S
H722 C736 0.960 . S
H723 C736 0.960 . S
C724 H716 0.929 . S
C724 C725 1.377 . S
C724 C726 1.384 . S
C725 C724 1.377 . S
C725 C731 1.390 1_565 S
C726 H717 0.930 . S
C726 C724 1.384 . S
C726 C727 1.372 1_565 S
C727 C726 1.372 1_545 S
C727 C728 1.400 . S
C727 C732 1.490 . S
C728 H718 0.930 . S
C728 C727 1.400 . S
C728 C731 1.386 . S
H729 C745 0.928 1_556 S
H730 C746 0.931 . S
C731 H719 0.929 . S
C731 C725 1.390 1_545 S
C731 C728 1.386 . S
C732 C727 1.490 . S
C732 C734 1.395 . S
C732 C735 1.403 . S
H733 C739 0.930 . S
C734 H720 0.925 1_545 S
C734 C732 1.395 . S
C734 C737 1.403 . S
C735 C732 1.403 . S
C735 C736 1.524 . S
C735 C739 1.400 . S
C736 H721 0.960 . S
C736 H722 0.960 . S
C736 H723 0.960 . S
C736 C735 1.524 . S
C737 C734 1.403 . S
C737 C738 1.392 . S
C737 C741 1.495 . S
C738 C737 1.392 . S
C738 C739 1.385 . S
C738 C740 1.478 . S
C739 H733 0.930 . S
C739 C735 1.400 . S
C739 C738 1.385 . S
C740 C738 1.478 . S
C740 C742 1.422 . S
C740 C746 1.383 . S
C741 C737 1.495 . S
C741 H747 0.945 1_545 S
C741 H748 0.961 . S
C741 H749 0.960 1_545 S
C742 C740 1.422 . S
C742 C743 1.404 . S
C742 H750 0.880 1_545 S
C743 C742 1.404 . S
C743 C744 1.383 1_554 S
C743 H751 0.929 1_544 S
C744 C743 1.383 1_556 S
C744 C745 1.376 1_556 S
C745 H729 0.928 1_554 S
C745 C744 1.376 1_554 S
C745 C746 1.382 . S
C746 H730 0.931 . S
C746 C740 1.383 . S
C746 C745 1.382 . S
H747 C741 0.945 1_565 S
H748 C741 0.961 . S
H749 C741 0.960 1_565 S
H750 C742 0.880 1_565 S
H751 C743 0.929 1_566 S
H752 C760 0.929 . S
H753 C762 0.930 . S
H754 C764 0.930 . S
H755 C767 0.929 . S
H756 C770 0.930 . S
H757 C772 0.960 . S
H758 C772 0.960 . S
H759 C772 0.960 . S
C760 H752 0.929 . S
C760 C761 1.377 . S
C760 C762 1.384 . S
C761 C760 1.377 . S
C761 C767 1.390 . S
C762 H753 0.930 . S
C762 C760 1.384 . S
C762 C763 1.372 . S
C763 C762 1.372 . S
C763 C764 1.400 . S
C763 C768 1.490 . S
C764 H754 0.930 . S
C764 C763 1.400 . S
C764 C767 1.386 . S
H765 C781 0.930 . S
H766 C782 0.931 . S
C767 H755 0.929 . S
C767 C761 1.390 . S
C767 C764 1.386 . S
C768 C763 1.490 . S
C768 C770 1.395 . S
C768 C771 1.403 . S
H769 C775 0.930 . S
C770 H756 0.930 . S
C770 C768 1.395 . S
C770 C773 1.403 . S
C771 C768 1.403 . S
C771 C772 1.524 . S
C771 C775 1.400 . S
C772 H757 0.960 . S
C772 H758 0.960 . S
C772 H759 0.960 . S
C772 C771 1.524 . S
C773 C770 1.403 . S
C773 C774 1.392 . S
C773 C777 1.495 . S
C774 C773 1.392 . S
C774 C775 1.385 . S
C774 C776 1.478 . S
C775 H769 0.930 . S
C775 C771 1.400 . S
C775 C774 1.385 . S
C776 C774 1.478 . S
C776 C778 1.381 . S
C776 C782 1.383 . S
C777 C773 1.495 . S
C777 H783 0.959 . S
C777 H784 0.961 . S
C777 H785 0.960 . S
C778 C776 1.381 . S
C778 C779 1.394 . S
C778 H786 0.930 . S
C779 C778 1.394 . S
C779 C780 1.383 1_554 S
C779 H787 0.929 . S
C780 C779 1.383 1_556 S
C780 C781 1.377 . S
C781 H765 0.930 . S
C781 C780 1.377 . S
C781 C782 1.379 1_556 S
C782 H766 0.931 . S
C782 C776 1.383 . S
C782 C781 1.379 1_554 S
H783 C777 0.959 . S
H784 C777 0.961 . S
H785 C777 0.960 . S
H786 C778 0.930 . S
H787 C779 0.929 . S
H788 C796 0.929 . S
H789 C798 0.930 . S
H790 C800 0.930 . S
H791 C803 0.929 . S
H792 C806 0.930 . S
H793 C808 0.960 . S
H794 C808 0.960 . S
H795 C808 0.960 . S
C796 H788 0.929 . S
C796 C797 1.377 . S
C796 C798 1.384 . S
C797 C796 1.377 . S
C797 C803 1.390 . S
C798 H789 0.930 . S
C798 C796 1.384 . S
C798 C799 1.372 . S
C799 C798 1.372 . S
C799 C800 1.400 . S
C799 C804 1.490 . S
C800 H790 0.930 . S
C800 C799 1.400 . S
C800 C803 1.386 . S
H801 C817 0.930 . S
H802 C818 0.931 . S
C803 H791 0.929 . S
C803 C797 1.390 . S
C803 C800 1.386 . S
C804 C799 1.490 . S
C804 C806 1.395 . S
C804 C807 1.403 . S
H805 C811 0.930 . S
C806 H792 0.930 . S
C806 C804 1.395 . S
C806 C809 1.403 . S
C807 C804 1.403 . S
C807 C808 1.524 . S
C807 C811 1.400 . S
C808 H793 0.960 . S
C808 H794 0.960 . S
C808 H795 0.960 . S
C808 C807 1.524 . S
C809 C806 1.403 . S
C809 C810 1.392 . S
C809 C813 1.495 . S
C810 C809 1.392 . S
C810 C811 1.385 . S
C810 C812 1.478 . S
C811 H805 0.930 . S
C811 C807 1.400 . S
C811 C810 1.385 . S
C812 C810 1.478 . S
C812 C814 1.381 . S
C812 C818 1.383 . S
C813 C809 1.495 . S
C813 H819 0.959 . S
C813 H820 0.961 . S
C813 H821 0.960 . S
C814 C812 1.381 . S
C814 C815 1.394 . S
C814 H822 0.930 . S
C815 C814 1.394 . S
C815 C816 1.383 1_554 S
C815 H823 0.929 . S
C816 C815 1.383 1_556 S
C816 C817 1.377 . S
C817 H801 0.930 . S
C817 C816 1.377 . S
C817 C818 1.379 1_556 S
C818 H802 0.931 . S
C818 C812 1.383 . S
C818 C817 1.379 1_554 S
H819 C813 0.959 . S
H820 C813 0.961 . S
H821 C813 0.960 . S
H822 C814 0.930 . S
H823 C815 0.929 . S
H824 C832 0.929 . S
H825 C834 0.930 . S
H826 C836 0.930 . S
H827 C839 0.929 . S
H828 C842 0.930 . S
H829 C844 0.960 . S
H830 C844 0.960 1_554 S
H831 C844 0.960 . S
C832 H824 0.929 . S
C832 C833 1.342 1_655 S
C832 C834 1.384 . S
C833 C832 1.342 1_455 S
C833 C839 1.427 . S
C834 H825 0.930 . S
C834 C832 1.384 . S
C834 C835 1.372 1_655 S
C835 C834 1.372 1_455 S
C835 C836 1.400 . S
C835 C840 1.490 . S
C836 H826 0.930 . S
C836 C835 1.400 . S
C836 C839 1.386 . S
H837 C853 0.930 . S
H838 C854 0.931 . S
C839 H827 0.929 . S
C839 C833 1.427 . S
C839 C836 1.386 . S
C840 C835 1.490 . S
C840 C842 1.395 1_455 S
C840 C843 1.403 . S
H841 C847 0.930 . S
C842 H828 0.930 . S
C842 C840 1.395 1_655 S
C842 C845 1.403 . S
C843 C840 1.403 . S
C843 C844 1.524 . S
C843 C847 1.400 . S
C844 H829 0.960 . S
C844 H830 0.960 1_556 S
C844 H831 0.960 . S
C844 C843 1.524 . S
C845 C842 1.403 . S
C845 C846 1.392 1_655 S
C845 C849 1.495 . S
C846 C845 1.392 1_455 S
C846 C847 1.385 . S
C846 C848 1.478 . S
C847 H841 0.930 . S
C847 C843 1.400 . S
C847 C846 1.385 . S
C848 C846 1.478 . S
C848 C850 1.381 1_455 S
C848 C854 1.383 . S
C849 C845 1.495 . S
C849 H855 0.959 . S
C849 H856 0.961 . S
C849 H857 0.960 . S
C850 C848 1.381 1_655 S
C850 C851 1.394 . S
C850 H858 0.930 . S
C851 C850 1.394 . S
C851 C852 1.383 1_655 S
C851 H859 0.929 . S
C852 C851 1.383 1_455 S
C852 C853 1.377 . S
C853 H837 0.930 . S
C853 C852 1.377 . S
C853 C854 1.379 . S
C854 H838 0.931 . S
C854 C848 1.383 . S
C854 C853 1.379 . S
H855 C849 0.959 . S
H856 C849 0.961 . S
H857 C849 0.960 . S
H858 C850 0.930 . S
H859 C851 0.929 . S
H860 C868 0.929 . S
H861 C870 0.930 . S
H862 C872 0.930 . S
H863 C875 0.929 . S
H864 C878 0.930 . S
H865 C880 0.960 1_554 S
H866 C880 0.960 1_554 S
H867 C880 0.960 . S
C868 H860 0.929 . S
C868 C869 1.346 1_565 S
C868 C870 1.384 . S
C869 C868 1.346 1_545 S
C869 C875 1.423 . S
C870 H861 0.930 . S
C870 C868 1.384 . S
C870 C871 1.372 1_565 S
C871 C870 1.372 1_545 S
C871 C872 1.400 . S
C871 C876 1.490 . S
C872 H862 0.930 . S
C872 C871 1.400 . S
C872 C875 1.386 . S
H873 C889 0.930 . S
H874 C890 0.931 . S
C875 H863 0.929 . S
C875 C869 1.423 . S
C875 C872 1.386 . S
C876 C871 1.490 . S
C876 C878 1.395 1_545 S
C876 C879 1.403 . S
H877 C883 0.930 . S
C878 H864 0.930 . S
C878 C876 1.395 1_565 S
C878 C881 1.403 . S
C879 C876 1.403 . S
C879 C880 1.524 . S
C879 C883 1.400 . S
C880 H865 0.960 1_556 S
C880 H866 0.960 1_556 S
C880 H867 0.960 . S
C880 C879 1.524 . S
C881 C878 1.403 . S
C881 C882 1.392 1_565 S
C881 C885 1.495 . S
C882 C881 1.392 1_545 S
C882 C883 1.385 . S
C882 C884 1.478 . S
C883 H877 0.930 . S
C883 C879 1.400 . S
C883 C882 1.385 . S
C884 C882 1.478 . S
C884 C886 1.381 1_545 S
C884 C890 1.383 . S
C885 C881 1.495 . S
C885 H891 0.959 . S
C885 H892 0.961 . S
C885 H893 0.960 . S
C886 C884 1.381 1_565 S
C886 C887 1.394 . S
C886 H894 0.930 . S
C887 C886 1.394 . S
C887 C888 1.383 1_565 S
C887 H895 0.929 . S
C888 C887 1.383 1_545 S
C888 C889 1.377 . S
C889 H873 0.930 . S
C889 C888 1.377 . S
C889 C890 1.379 . S
C890 H874 0.931 . S
C890 C884 1.383 . S
C890 C889 1.379 . S
H891 C885 0.959 . S
H892 C885 0.961 . S
H893 C885 0.960 . S
H894 C886 0.930 . S
H895 C887 0.929 . S
H896 C904 0.929 1_554 S
H897 C906 0.930 . S
H898 C908 0.930 . S
H899 C911 0.929 . S
H900 C914 0.930 . S
H901 C916 0.960 . S
H902 C916 0.960 . S
H903 C916 0.960 . S
C904 H896 0.929 1_556 S
C904 C905 1.377 . S
C904 C906 1.384 . S
C905 C904 1.377 . S
C905 C911 1.390 . S
C906 H897 0.930 . S
C906 C904 1.384 . S
C906 C907 1.372 . S
C907 C906 1.372 . S
C907 C908 1.400 . S
C907 C912 1.490 . S
C908 H898 0.930 . S
C908 C907 1.400 . S
C908 C911 1.386 . S
H909 C925 0.930 . S
H910 C926 0.931 . S
C911 H899 0.929 . S
C911 C905 1.390 . S
C911 C908 1.386 . S
C912 C907 1.490 . S
C912 C914 1.395 . S
C912 C915 1.403 . S
H913 C919 0.930 . S
C914 H900 0.930 . S
C914 C912 1.395 . S
C914 C917 1.403 . S
C915 C912 1.403 . S
C915 C916 1.524 . S
C915 C919 1.400 . S
C916 H901 0.960 . S
C916 H902 0.960 . S
C916 H903 0.960 . S
C916 C915 1.524 . S
C917 C914 1.403 . S
C917 C918 1.392 . S
C917 C921 1.495 . S
C918 C917 1.392 . S
C918 C919 1.385 . S
C918 C920 1.478 . S
C919 H913 0.930 . S
C919 C915 1.400 . S
C919 C918 1.385 . S
C920 C918 1.478 . S
C920 C922 1.381 . S
C920 C926 1.383 . S
C921 C917 1.495 . S
C921 H927 0.959 . S
C921 H928 0.961 . S
C921 H929 0.960 . S
C922 C920 1.381 . S
C922 C923 1.394 . S
C922 H930 0.930 . S
C923 C922 1.394 . S
C923 C924 1.383 . S
C923 H931 0.929 . S
C924 C923 1.383 . S
C924 C925 1.377 . S
C925 H909 0.930 . S
C925 C924 1.377 . S
C925 C926 1.379 . S
C926 H910 0.931 . S
C926 C920 1.383 . S
C926 C925 1.379 . S
H927 C921 0.959 . S
H928 C921 0.961 . S
H929 C921 0.960 . S
H930 C922 0.930 . S
H931 C923 0.929 . S
H932 C940 0.929 . S
H933 C942 0.930 . S
H934 C944 0.930 . S
H935 C947 0.929 . S
H936 C950 0.930 . S
H937 C952 0.960 . S
H938 C952 0.960 . S
H939 C952 0.960 . S
C940 H932 0.929 . S
C940 C941 1.377 . S
C940 C942 1.384 . S
C941 C940 1.377 . S
C941 C947 1.390 . S
C942 H933 0.930 . S
C942 C940 1.384 . S
C942 C943 1.372 . S
C943 C942 1.372 . S
C943 C944 1.400 . S
C943 C948 1.490 . S
C944 H934 0.930 . S
C944 C943 1.400 . S
C944 C947 1.386 . S
H945 C961 0.930 . S
H946 C962 0.931 . S
C947 H935 0.929 . S
C947 C941 1.390 . S
C947 C944 1.386 . S
C948 C943 1.490 . S
C948 C950 1.395 . S
C948 C951 1.403 . S
H949 C955 0.930 . S
C950 H936 0.930 . S
C950 C948 1.395 . S
C950 C953 1.403 . S
C951 C948 1.403 . S
C951 C952 1.524 . S
C951 C955 1.400 . S
C952 H937 0.960 . S
C952 H938 0.960 . S
C952 H939 0.960 . S
C952 C951 1.524 . S
C953 C950 1.403 . S
C953 C954 1.392 . S
C953 C957 1.495 . S
C954 C953 1.392 . S
C954 C955 1.385 . S
C954 C956 1.478 . S
C955 H949 0.930 . S
C955 C951 1.400 . S
C955 C954 1.385 . S
C956 C954 1.478 . S
C956 C958 1.381 . S
C956 C962 1.383 . S
C957 C953 1.495 . S
C957 H963 0.959 1_556 S
C957 H964 0.961 . S
C957 H965 0.960 . S
C958 C956 1.381 . S
C958 C959 1.394 . S
C958 H966 0.930 . S
C959 C958 1.394 . S
C959 C960 1.383 . S
C959 H967 0.929 . S
C960 C959 1.383 . S
C960 C961 1.377 . S
C961 H945 0.930 . S
C961 C960 1.377 . S
C961 C962 1.379 . S
C962 H946 0.931 . S
C962 C956 1.383 . S
C962 C961 1.379 . S
H963 C957 0.959 1_554 S
H964 C957 0.961 . S
H965 C957 0.960 . S
H966 C958 0.930 . S
H967 C959 0.929 . S
H968 C976 0.929 . S
H969 C978 0.930 . S
H970 C980 0.930 . S
H971 C983 0.929 . S
H972 C986 0.930 . S
H973 C988 0.960 . S
H974 C988 0.960 . S
H975 C988 0.960 . S
C976 H968 0.929 . S
C976 C977 1.385 . S
C976 C978 1.384 . S
C977 C976 1.385 . S
C977 C983 1.385 1_655 S
C978 H969 0.930 . S
C978 C976 1.384 . S
C978 C979 1.372 . S
C979 C978 1.372 . S
C979 C980 1.400 1_655 S
C979 C984 1.490 . S
C980 H970 0.930 . S
C980 C979 1.400 1_455 S
C980 C983 1.386 . S
H981 C997 0.930 . S
H982 C998 0.931 . S
C983 H971 0.929 . S
C983 C977 1.385 1_455 S
C983 C980 1.386 . S
C984 C979 1.490 . S
C984 C986 1.395 . S
C984 C987 1.403 1_655 S
H985 C991 0.930 . S
C986 H972 0.930 . S
C986 C984 1.395 . S
C986 C989 1.403 . S
C987 C984 1.403 1_455 S
C987 C988 1.524 . S
C987 C991 1.400 . S
C988 H973 0.960 . S
C988 H974 0.960 . S
C988 H975 0.960 . S
C988 C987 1.524 . S
C989 C986 1.403 . S
C989 C990 1.392 . S
C989 C993 1.495 . S
C990 C989 1.392 . S
C990 C991 1.385 1_655 S
C990 C992 1.478 . S
C991 H985 0.930 . S
C991 C987 1.400 . S
C991 C990 1.385 1_455 S
C992 C990 1.478 . S
C992 C994 1.381 . S
C992 C998 1.383 . S
C993 C989 1.495 . S
C993 H999 0.959 . S
C993 H1000 0.961 . S
C993 H1001 0.960 . S
C994 C992 1.381 . S
C994 C995 1.394 . S
C994 H1002 0.930 . S
C995 C994 1.394 . S
C995 C996 1.383 . S
C995 H1003 0.929 . S
C996 C995 1.383 . S
C996 C997 1.377 . S
C997 H981 0.930 . S
C997 C996 1.377 . S
C997 C998 1.379 . S
C998 H982 0.931 . S
C998 C992 1.383 . S
C998 C997 1.379 . S
H999 C993 0.959 . S
H1000 C993 0.961 . S
H1001 C993 0.960 . S
H1002 C994 0.930 . S
H1003 C995 0.929 . S
H1004 C1012 0.929 . S
H1005 C1014 0.930 . S
H1006 C1016 0.930 . S
H1007 C1019 0.929 . S
H1008 C1022 0.930 . S
H1009 C1024 0.960 . S
H1010 C1024 0.960 . S
H1011 C1024 0.960 . S
C1012 H1004 0.929 . S
C1012 C1013 1.362 1_545 S
C1012 C1014 1.384 . S
C1013 C1012 1.362 1_565 S
C1013 C1019 1.409 . S
C1014 H1005 0.930 . S
C1014 C1012 1.384 . S
C1014 C1015 1.372 1_545 S
C1015 C1014 1.372 1_565 S
C1015 C1016 1.400 . S
C1015 C1020 1.490 . S
C1016 H1006 0.930 . S
C1016 C1015 1.400 . S
C1016 C1019 1.386 . S
H1017 C1033 0.930 . S
H1018 C1034 0.931 . S
C1019 H1007 0.929 . S
C1019 C1013 1.409 . S
C1019 C1016 1.386 . S
C1020 C1015 1.490 . S
C1020 C1022 1.395 1_565 S
C1020 C1023 1.403 . S
H1021 C1027 0.930 . S
C1022 H1008 0.930 . S
C1022 C1020 1.395 1_545 S
C1022 C1025 1.403 . S
C1023 C1020 1.403 . S
C1023 C1024 1.524 . S
C1023 C1027 1.400 . S
C1024 H1009 0.960 . S
C1024 H1010 0.960 . S
C1024 H1011 0.960 . S
C1024 C1023 1.524 . S
C1025 C1022 1.403 . S
C1025 C1026 1.353 1_545 S
C1025 C1029 1.495 . S
C1026 C1025 1.353 1_565 S
C1026 C1027 1.425 . S
C1026 C1028 1.480 . S
C1027 H1021 0.930 . S
C1027 C1023 1.400 . S
C1027 C1026 1.425 . S
C1028 C1026 1.480 . S
C1028 C1030 1.381 1_565 S
C1028 C1034 1.383 . S
C1029 C1025 1.495 . S
C1029 H1035 0.959 . S
C1029 H1036 0.961 . S
C1029 H1037 0.960 . S
C1030 C1028 1.381 1_545 S
C1030 C1031 1.401 . S
C1030 H1038 0.930 . S
C1031 C1030 1.401 . S
C1031 C1032 1.367 1_545 S
C1031 H1039 0.942 . S
C1032 C1031 1.367 1_565 S
C1032 C1033 1.377 . S
C1033 H1017 0.930 . S
C1033 C1032 1.377 . S
C1033 C1034 1.379 . S
C1034 H1018 0.931 . S
C1034 C1028 1.383 . S
C1034 C1033 1.379 . S
H1035 C1029 0.959 . S
H1036 C1029 0.961 . S
H1037 C1029 0.960 . S
H1038 C1030 0.930 . S
H1039 C1031 0.942 . S
H1040 C1048 0.929 . S
H1041 C1050 0.930 . S
H1042 C1052 0.930 . S
H1043 C1055 0.929 . S
H1044 C1058 0.930 . S
H1045 C1060 0.960 . S
H1046 C1060 0.960 . S
H1047 C1060 0.960 . S
C1048 H1040 0.929 . S
C1048 C1049 1.377 . S
C1048 C1050 1.384 . S
C1049 C1048 1.377 . S
C1049 C1055 1.390 . S
C1050 H1041 0.930 . S
C1050 C1048 1.384 . S
C1050 C1051 1.372 . S
C1051 C1050 1.372 . S
C1051 C1052 1.400 . S
C1051 C1056 1.490 . S
C1052 H1042 0.930 . S
C1052 C1051 1.400 . S
C1052 C1055 1.386 . S
H1053 C1069 0.930 . S
H1054 C1070 0.931 . S
C1055 H1043 0.929 . S
C1055 C1049 1.390 . S
C1055 C1052 1.386 . S
C1056 C1051 1.490 . S
C1056 C1058 1.395 . S
C1056 C1059 1.403 . S
H1057 C1063 0.930 . S
C1058 H1044 0.930 . S
C1058 C1056 1.395 . S
C1058 C1061 1.403 . S
C1059 C1056 1.403 . S
C1059 C1060 1.524 . S
C1059 C1063 1.400 . S
C1060 H1045 0.960 . S
C1060 H1046 0.960 . S
C1060 H1047 0.960 . S
C1060 C1059 1.524 . S
C1061 C1058 1.403 . S
C1061 C1062 1.392 . S
C1061 C1065 1.495 . S
C1062 C1061 1.392 . S
C1062 C1063 1.385 . S
C1062 C1064 1.478 . S
C1063 H1057 0.930 . S
C1063 C1059 1.400 . S
C1063 C1062 1.385 . S
C1064 C1062 1.478 . S
C1064 C1066 1.381 . S
C1064 C1070 1.383 . S
C1065 C1061 1.495 . S
C1065 H1071 0.959 . S
C1065 H1072 0.961 . S
C1065 H1073 0.960 . S
C1066 C1064 1.381 . S
C1066 C1067 1.394 . S
C1066 H1074 0.930 . S
C1067 C1066 1.394 . S
C1067 C1068 1.383 . S
C1067 H1075 0.929 . S
C1068 C1067 1.383 . S
C1068 C1069 1.377 . S
C1069 H1053 0.930 . S
C1069 C1068 1.377 . S
C1069 C1070 1.379 . S
C1070 H1054 0.931 . S
C1070 C1064 1.383 . S
C1070 C1069 1.379 . S
H1071 C1065 0.959 . S
H1072 C1065 0.961 . S
H1073 C1065 0.960 . S
H1074 C1066 0.930 . S
H1075 C1067 0.929 . S
H1076 C1084 0.929 . S
H1077 C1086 0.930 . S
H1078 C1088 0.930 . S
H1079 C1091 0.929 . S
H1080 C1094 0.930 . S
H1081 C1096 0.960 . S
H1082 C1096 0.960 . S
H1083 C1096 0.960 . S
C1084 H1076 0.929 . S
C1084 C1085 1.377 . S
C1084 C1086 1.384 . S
C1085 C1084 1.377 . S
C1085 C1091 1.390 . S
C1086 H1077 0.930 . S
C1086 C1084 1.384 . S
C1086 C1087 1.372 . S
C1087 C1086 1.372 . S
C1087 C1088 1.400 . S
C1087 C1092 1.490 . S
C1088 H1078 0.930 . S
C1088 C1087 1.400 . S
C1088 C1091 1.386 . S
H1089 C1105 0.930 . S
H1090 C1106 0.931 . S
C1091 H1079 0.929 . S
C1091 C1085 1.390 . S
C1091 C1088 1.386 . S
C1092 C1087 1.490 . S
C1092 C1094 1.395 . S
C1092 C1095 1.403 . S
H1093 C1099 0.930 . S
C1094 H1080 0.930 . S
C1094 C1092 1.395 . S
C1094 C1097 1.403 . S
C1095 C1092 1.403 . S
C1095 C1096 1.524 . S
C1095 C1099 1.400 . S
C1096 H1081 0.960 . S
C1096 H1082 0.960 . S
C1096 H1083 0.960 . S
C1096 C1095 1.524 . S
C1097 C1094 1.403 . S
C1097 C1098 1.392 . S
C1097 C1101 1.495 . S
C1098 C1097 1.392 . S
C1098 C1099 1.385 . S
C1098 C1100 1.478 . S
C1099 H1093 0.930 . S
C1099 C1095 1.400 . S
C1099 C1098 1.385 . S
C1100 C1098 1.478 . S
C1100 C1102 1.381 . S
C1100 C1106 1.383 . S
C1101 C1097 1.495 . S
C1101 H1107 0.959 . S
C1101 H1108 0.961 . S
C1101 H1109 0.960 . S
C1102 C1100 1.381 . S
C1102 C1103 1.394 . S
C1102 H1110 0.930 . S
C1103 C1102 1.394 . S
C1103 C1104 1.383 . S
C1103 H1111 0.929 . S
C1104 C1103 1.383 . S
C1104 C1105 1.377 . S
C1105 H1089 0.930 . S
C1105 C1104 1.377 . S
C1105 C1106 1.379 . S
C1106 H1090 0.931 . S
C1106 C1100 1.383 . S
C1106 C1105 1.379 . S
H1107 C1101 0.959 . S
H1108 C1101 0.961 . S
H1109 C1101 0.960 . S
H1110 C1102 0.930 . S
H1111 C1103 0.929 . S
C257 C76 1.731 . S
C276 C97 1.802 1_545 S
C312 C137 1.820 . S
C293 C87 1.738 . S
C348 C177 1.816 . S
C329 C54 1.746 . S
C384 C217 1.818 1_455 S
C365 C65 1.733 . S
C420 C106 1.803 1_565 S
C401 C32 1.742 . S
C437 C43 1.734 . S
C456 C146 1.822 . S
C473 C10 1.746 . S
C492 C186 1.814 . S
C509 C21 1.740 . S
C528 C226 1.805 1_655 S
C564 C103 0.337 . S
C545 C60 0.387 . S
C600 C143 0.278 . S
C581 C71 0.374 . S
C636 C183 0.392 . S
C617 C82 0.403 . S
C653 C49 0.385 . S
C672 C223 0.309 . S
C689 C16 0.404 1_655 S
C708 C94 0.287 . S
C744 C134 0.322 . S
C725 C27 0.404 1_565 S
C780 C174 0.338 . S
C761 C38 0.412 . S
C797 C5 0.406 . S
C816 C214 0.330 . S
C833 C59 1.886 . S
C852 C107 2.063 . S
C869 C70 1.869 . S
C888 C147 2.054 . S
C924 C187 2.033 . S
C905 C81 1.857 . S
C960 C227 2.062 . S
C941 C48 1.876 . S
C977 C15 1.888 1_655 S
C996 C98 2.098 . S
C1032 C138 2.044 . S
C1013 C26 1.879 1_565 S
C1068 C178 2.047 . S
C1049 C37 1.862 . S
C1085 C4 1.884 . S
C1104 C218 2.077 . S
