# Generated by pormake.
# Topology pyr, (3,6)-cn, num edge types: 1
# Building blocks:
#     Node 0, Type 0, BuildingBlock: BETDIP_clean_linker_0, # of connection points: 3
#     Node 1, Type 0, BuildingBlock: BETDIP_clean_linker_0, # of connection points: 3
#     Node 2, Type 0, BuildingBlock: BETDIP_clean_linker_0, # of connection points: 3
#     Node 3, Type 0, BuildingBlock: BETDIP_clean_linker_0, # of connection points: 3
#     Node 4, Type 0, BuildingBlock: BETDIP_clean_linker_0, # of connection points: 3
#     Node 5, Type 0, BuildingBlock: BETDIP_clean_linker_0, # of connection points: 3
#     Node 6, Type 0, BuildingBlock: BETDIP_clean_linker_0, # of connection points: 3
#     Node 7, Type 0, BuildingBlock: BETDIP_clean_linker_0, # of connection points: 3
#     Node 8, Type 1, BuildingBlock: BETFAJ_clean_sbu_0, # of connection points: 6
#     Node 9, Type 1, BuildingBlock: BETFAJ_clean_sbu_0, # of connection points: 6
#     Node 10, Type 1, BuildingBlock: BETFAJ_clean_sbu_0, # of connection points: 6
#     Node 11, Type 1, BuildingBlock: BETFAJ_clean_sbu_0, # of connection points: 6
#     Edge 12, Type (0, 1), BuildingBlock: MIFKUJ_clean_linker_0, # of connection points: 2
#     Edge 13, Type (0, 1), BuildingBlock: MIFKUJ_clean_linker_0, # of connection points: 2
#     Edge 14, Type (0, 1), BuildingBlock: MIFKUJ_clean_linker_0, # of connection points: 2
#     Edge 15, Type (0, 1), BuildingBlock: MIFKUJ_clean_linker_0, # of connection points: 2
#     Edge 16, Type (0, 1), BuildingBlock: MIFKUJ_clean_linker_0, # of connection points: 2
#     Edge 17, Type (0, 1), BuildingBlock: MIFKUJ_clean_linker_0, # of connection points: 2
#     Edge 18, Type (0, 1), BuildingBlock: MIFKUJ_clean_linker_0, # of connection points: 2
#     Edge 19, Type (0, 1), BuildingBlock: MIFKUJ_clean_linker_0, # of connection points: 2
#     Edge 20, Type (0, 1), BuildingBlock: MIFKUJ_clean_linker_0, # of connection points: 2
#     Edge 21, Type (0, 1), BuildingBlock: MIFKUJ_clean_linker_0, # of connection points: 2
#     Edge 22, Type (0, 1), BuildingBlock: MIFKUJ_clean_linker_0, # of connection points: 2
#     Edge 23, Type (0, 1), BuildingBlock: MIFKUJ_clean_linker_0, # of connection points: 2
#     Edge 24, Type (0, 1), BuildingBlock: MIFKUJ_clean_linker_0, # of connection points: 2
#     Edge 25, Type (0, 1), BuildingBlock: MIFKUJ_clean_linker_0, # of connection points: 2
#     Edge 26, Type (0, 1), BuildingBlock: MIFKUJ_clean_linker_0, # of connection points: 2
#     Edge 27, Type (0, 1), BuildingBlock: MIFKUJ_clean_linker_0, # of connection points: 2
#     Edge 28, Type (0, 1), BuildingBlock: MIFKUJ_clean_linker_0, # of connection points: 2
#     Edge 29, Type (0, 1), BuildingBlock: MIFKUJ_clean_linker_0, # of connection points: 2
#     Edge 30, Type (0, 1), BuildingBlock: MIFKUJ_clean_linker_0, # of connection points: 2
#     Edge 31, Type (0, 1), BuildingBlock: MIFKUJ_clean_linker_0, # of connection points: 2
#     Edge 32, Type (0, 1), BuildingBlock: MIFKUJ_clean_linker_0, # of connection points: 2
#     Edge 33, Type (0, 1), BuildingBlock: MIFKUJ_clean_linker_0, # of connection points: 2
#     Edge 34, Type (0, 1), BuildingBlock: MIFKUJ_clean_linker_0, # of connection points: 2
#     Edge 35, Type (0, 1), BuildingBlock: MIFKUJ_clean_linker_0, # of connection points: 2
# Relax obj value: 0.100
# Max RMSD: 0.175
# Mean RMSD: 0.137
data_MOF--net-pyr--node1-BETFAJ_clean_sbu_0--node2-BETDIP_clean_linker_0--edge1-MIFKUJ_clean_linker_0
_symmetry_space_group_name_H-M    P1
_symmetry_Int_Tables_number       1
_symmetry_cell_setting            triclinic
loop_
_symmetry_equiv_pos_as_xyz
'x, y, z'
_cell_length_a     49.179396
_cell_length_b     51.222068
_cell_length_c     48.126542
_cell_angle_alpha  92.629045
_cell_angle_beta   86.756956
_cell_angle_gamma 104.69598
loop_
_atom_site_label
_atom_site_type_symbol
_atom_site_fract_x
_atom_site_fract_y
_atom_site_fract_z
_atom_type_partial_charge
H0 H 0.29946 0.30372 0.2163 0.0
H1 H 0.35725 0.28642 0.15199 0.0
H2 H 0.32926 0.23201 0.21932 0.0
H3 H 0.32957 0.35011 0.20418 0.0
C4 C 0.32255 0.345 0.18314 0.0
C5 C 0.31286 0.29119 0.20779 0.0
C6 C 0.31254 0.26717 0.22081 0.0
C7 C 0.32934 0.29847 0.18321 0.0
C8 C 0.34522 0.28126 0.17142 0.0
C9 C 0.34584 0.2576 0.18478 0.0
C10 C 0.32972 0.25083 0.20963 0.0
N11 N 0.32833 0.32188 0.16904 0.0
H12 H 0.23538 0.84966 0.6763 0.0
H13 H 0.24146 0.82047 0.59164 0.0
H14 H 0.30785 0.82224 0.64631 0.0
H15 H 0.19403 0.80986 0.59629 0.0
C16 C 0.19083 0.82772 0.60768 0.0
C17 C 0.24681 0.84118 0.65983 0.0
C18 C 0.27348 0.83731 0.66437 0.0
C19 C 0.23476 0.83445 0.63399 0.0
C20 C 0.24992 0.82456 0.6121 0.0
C21 C 0.27639 0.82026 0.61631 0.0
C22 C 0.28793 0.82655 0.64255 0.0
N23 N 0.20796 0.83904 0.63018 0.0
H24 H 0.69634 0.40845 0.84299 0.0
H25 H 0.62798 0.337 0.83665 0.0
H26 H 0.69136 0.34212 0.89636 0.0
H27 H 0.6257 0.35285 0.79245 0.0
C28 C 0.63226 0.37474 0.79403 0.0
C29 C 0.68597 0.38831 0.84971 0.0
C30 C 0.69723 0.37704 0.87124 0.0
C31 C 0.66127 0.37414 0.83671 0.0
C32 C 0.64721 0.34802 0.84601 0.0
C33 C 0.65797 0.33612 0.86766 0.0
C34 C 0.68296 0.35096 0.87985 0.0
N35 N 0.65113 0.38736 0.81515 0.0
H36 H 0.82684 0.65313 0.35284 0.0
H37 H 0.89727 0.72273 0.34459 0.0
H38 H 0.82987 0.72456 0.40449 0.0
H39 H 0.91097 0.70145 0.30864 0.0
C40 C 0.898 0.68105 0.30598 0.0
C41 C 0.83749 0.67358 0.35921 0.0
C42 C 0.82519 0.6873 0.3803 0.0
C43 C 0.86319 0.68611 0.34572 0.0
C44 C 0.87718 0.71264 0.35413 0.0
C45 C 0.865 0.72664 0.37512 0.0
C46 C 0.83895 0.71395 0.38789 0.0
N47 N 0.87381 0.67126 0.32381 0.0
H48 H 0.67233 0.79013 0.88766 0.0
H49 H 0.73256 0.76617 0.83103 0.0
H50 H 0.70352 0.83566 0.81402 0.0
H51 H 0.70103 0.72099 0.84789 0.0
C52 C 0.70755 0.7292 0.86839 0.0
C53 C 0.68464 0.793 0.86816 0.0
C54 C 0.68501 0.81509 0.85153 0.0
C55 C 0.70082 0.77476 0.8603 0.0
C56 C 0.71871 0.77926 0.83631 0.0
C57 C 0.72018 0.80157 0.81999 0.0
C58 C 0.70252 0.81874 0.82705 0.0
N59 N 0.70114 0.75361 0.87823 0.0
H60 H 0.71001 0.14183 0.42759 0.0
H61 H 0.70648 0.18833 0.50365 0.0
H62 H 0.65018 0.19029 0.43911 0.0
H63 H 0.72458 0.15438 0.52057 0.0
C64 C 0.73923 0.15165 0.5036 0.0
C65 C 0.70047 0.15546 0.44029 0.0
C66 C 0.67865 0.16484 0.43011 0.0
C67 C 0.7101 0.16323 0.46691 0.0
C68 C 0.69834 0.1812 0.48349 0.0
C69 C 0.67648 0.19073 0.47359 0.0
C70 C 0.66645 0.18221 0.44708 0.0
N71 N 0.73269 0.1536 0.47558 0.0
H72 H 0.32803 0.66597 0.2152 0.0
H73 H 0.39895 0.73549 0.21722 0.0
H74 H 0.33763 0.72732 0.15474 0.0
H75 H 0.41825 0.70522 0.24047 0.0
C76 C 0.40092 0.69299 0.25284 0.0
C77 C 0.33959 0.68501 0.20663 0.0
C78 C 0.32988 0.69452 0.18294 0.0
C79 C 0.36462 0.69921 0.21904 0.0
C80 C 0.37994 0.72412 0.20772 0.0
C81 C 0.37051 0.73445 0.18413 0.0
C82 C 0.34552 0.7193 0.17218 0.0
N83 N 0.373 0.68795 0.2431 0.0
H84 H 0.13789 0.34699 0.71474 0.0
H85 H 0.20388 0.41958 0.70223 0.0
H86 H 0.20176 0.34947 0.64942 0.0
H87 H 0.19116 0.43248 0.74321 0.0
C88 C 0.17011 0.42109 0.74935 0.0
C89 C 0.15675 0.35791 0.70347 0.0
C90 C 0.16832 0.34512 0.68105 0.0
C91 C 0.16975 0.38451 0.71197 0.0
C92 C 0.19411 0.39871 0.69699 0.0
C93 C 0.2057 0.38622 0.67431 0.0
C94 C 0.1928 0.35936 0.66671 0.0
N95 N 0.15753 0.3962 0.7354 0.0
Sm96 Sm 0.02317 0.04895 0.49752 0.0
Sm97 Sm 0.01568 1.0213 0.55407 0.0
C98 C 0.02543 0.0802 0.45467 0.0
C99 C 0.0487 0.09873 0.43958 0.0
C100 C 0.04405 0.12095 0.42646 0.0
C101 C 0.06632 0.13881 0.41243 0.0
C102 C 0.0936 0.13466 0.41126 0.0
C103 C 0.09809 0.11236 0.42465 0.0
C104 C 0.0759 0.09468 0.43881 0.0
C105 C 0.06319 1.02168 0.50691 0.0
C106 C 0.0508 0.0852 0.55173 0.0
C107 C 0.01575 0.99811 0.602 0.0
C108 C 0.99408 0.97833 0.61758 0.0
C109 C 1.00123 0.96448 0.63932 0.0
C110 C 0.98036 0.94549 0.65384 0.0
C111 C 0.95194 0.94033 0.647 0.0
C112 C 0.94504 0.9546 0.62526 0.0
C113 C 0.96589 0.97319 0.61062 0.0
C114 C 0.96767 0.0327 0.53653 0.0
C115 C 0.99319 0.98609 0.49929 0.0
O116 O 0.02008 0.08763 0.48028 0.0
O117 O 0.02493 0.05459 0.452 0.0
O118 O 0.05279 0.03566 0.52455 0.0
O119 O 0.05432 0.02363 0.48245 0.0
O120 O 0.04793 0.08417 0.52454 0.0
O121 O 0.04082 0.06396 0.56729 0.0
O122 O 0.02527 0.98913 0.57845 0.0
O123 O 0.01055 0.02179 0.60006 0.0
O124 O 0.99217 0.04758 0.53394 0.0
O125 O 0.96748 1.01172 0.55054 0.0
O126 O 0.00763 0.9862 0.52164 0.0
O127 O 0.99025 1.00887 0.48946 0.0
H128 H 0.02322 0.12452 0.42714 0.0
H129 H 0.06219 0.15597 0.40269 0.0
H130 H 0.11866 0.10825 0.42382 0.0
H131 H 0.07997 0.07774 0.44905 0.0
H132 H 0.02295 0.96813 0.64488 0.0
H133 H 0.98657 0.93468 0.67019 0.0
H134 H 0.92342 0.95185 0.61979 0.0
H135 H 0.95988 0.9838 0.59404 0.0
Sm136 Sm 0.53534 0.03996 0.03904 0.0
Sm137 Sm 0.48877 0.02678 1.00396 0.0
C138 C 0.58254 0.05757 0.06559 0.0
C139 C 0.5896 0.06707 0.09414 0.0
C140 C 0.57289 0.08116 0.11016 0.0
C141 C 0.57951 0.08969 0.13746 0.0
C142 C 0.60276 0.08399 0.14935 0.0
C143 C 0.61932 0.0697 0.13321 0.0
C144 C 0.61281 0.06137 0.10581 0.0
C145 C 0.4939 0.99624 0.05922 0.0
C146 C 0.4819 0.06211 0.05885 0.0
C147 C 0.44621 1.00709 0.97134 0.0
C148 C 0.43596 0.9853 0.95041 0.0
C149 C 0.42176 0.95903 0.95819 0.0
C150 C 0.41035 0.9394 0.93794 0.0
C151 C 0.41299 0.9457 0.90962 0.0
C152 C 0.42759 0.97185 0.90195 0.0
C153 C 0.43883 0.99141 0.92208 0.0
C154 C 0.52121 0.07929 0.99626 0.0
C155 C 0.54189 1.0023 0.98434 0.0
O156 O 0.57168 0.07311 0.05115 0.0
O157 O 0.56997 0.03197 0.0624 0.0
O158 O 0.50215 0.99958 0.03387 0.0
O159 O 0.50673 1.01683 0.07431 0.0
O160 O 0.50957 0.06854 0.05774 0.0
O161 O 0.46794 0.04202 0.04314 0.0
O162 O 0.44572 1.00079 0.99746 0.0
O163 O 0.46857 0.0258 0.96396 0.0
O164 O 0.53083 0.0587 0.99812 0.0
O165 O 0.49407 0.07248 0.9996 0.0
O166 O 0.51622 1.00303 0.97882 0.0
O167 O 0.55447 1.01561 1.00596 0.0
H168 H 0.55471 0.08558 0.10159 0.0
H169 H 0.56653 0.10095 0.14915 0.0
H170 H 0.63708 0.06458 0.14187 0.0
H171 H 0.62574 0.05027 0.09379 0.0
H172 H 0.41901 0.95375 0.97988 0.0
H173 H 0.39925 0.91939 0.94445 0.0
H174 H 0.42945 0.97755 0.88039 0.0
H175 H 0.44924 1.01158 0.91547 0.0
Sm176 Sm 0.52261 0.5199 0.50697 0.0
Sm177 Sm 0.50815 0.55903 0.54971 0.0
C178 C 0.54978 0.48921 0.47723 0.0
C179 C 0.55949 0.46594 0.48506 0.0
C180 C 0.58111 0.45814 0.46938 0.0
C181 C 0.59144 0.43695 0.47799 0.0
C182 C 0.58033 0.42339 0.50251 0.0
C183 C 0.55876 0.43148 0.51823 0.0
C184 C 0.54839 0.45252 0.50953 0.0
C185 C 0.46896 0.50381 0.52985 0.0
C186 C 0.53653 0.51493 0.57421 0.0
C187 C 0.48239 0.5904 0.58014 0.0
C188 C 0.46752 0.6103 0.57268 0.0
C189 C 0.44227 0.61124 0.58712 0.0
C190 C 0.42641 0.62817 0.57853 0.0
C191 C 0.4358 0.64456 0.55556 0.0
C192 C 0.46134 0.64399 0.54137 0.0
C193 C 0.47698 0.62672 0.54969 0.0
C194 C 0.56167 0.57465 0.52639 0.0
C195 C 0.49377 0.56371 0.483 0.0
O196 O 0.56252 0.51213 0.48927 0.0
O197 O 0.52244 0.48559 0.4771 0.0
O198 O 0.49064 0.51452 0.54303 0.0
O199 O 0.47524 0.4999 0.50364 0.0
O200 O 0.54048 0.50804 0.54762 0.0
O201 O 0.52248 0.53325 0.58127 0.0
O202 O 0.47011 0.56538 0.57317 0.0
O203 O 0.50963 0.59661 0.57493 0.0
O204 O 0.53975 0.56443 0.51348 0.0
O205 O 0.55587 0.57788 0.55279 0.0
O206 O 0.48696 0.56808 0.50962 0.0
O207 O 0.51097 0.54812 0.47615 0.0
H208 H 0.58998 0.46844 0.45055 0.0
H209 H 0.60776 0.43089 0.4652 0.0
H210 H 0.54999 0.42163 0.53734 0.0
H211 H 0.53179 0.45845 0.522 0.0
H212 H 0.43466 0.59855 0.60475 0.0
H213 H 0.4069 0.62865 0.58993 0.0
H214 H 0.46885 0.65648 0.52357 0.0
H215 H 0.4962 0.62591 0.53791 0.0
Sm216 Sm 0.01639 0.50688 0.03408 0.0
Sm217 Sm 0.01097 0.56277 1.02083 0.0
C218 C 0.03462 0.463 0.03855 0.0
C219 C 0.05713 0.45577 0.05298 0.0
C220 C 0.07291 0.43956 0.03895 0.0
C221 C 0.0952 0.43341 0.05174 0.0
C222 C 0.10198 0.44324 0.07889 0.0
C223 C 0.08602 0.45934 0.09301 0.0
C224 C 0.06389 0.46573 0.08008 0.0
C225 C 0.9895 0.53127 0.07519 0.0
C226 C 0.06777 0.5611 0.05116 0.0
C227 C 0.99319 0.60708 1.01757 0.0
C228 C 0.97014 0.61559 1.00536 0.0
C229 C 0.95491 0.63065 1.02196 0.0
C230 C 0.93268 0.63872 1.01117 0.0
C231 C 0.92534 0.63206 0.98342 0.0
C232 C 0.94061 0.61681 0.96685 0.0
C233 C 0.96274 0.60854 0.97776 0.0
C234 C 0.03888 0.53896 0.9802 0.0
C235 C 0.95981 0.50845 1.00335 0.0
O236 O 0.04299 0.47979 1.01828 0.0
O237 O 0.01368 0.46807 0.05405 0.0
O238 O 0.01116 0.54248 0.06091 0.0
O239 O 0.98175 0.50556 0.0691 0.0
O240 O 0.0604 0.53469 0.04546 0.0
O241 O 0.05064 0.57642 0.04645 0.0
O242 O 0.98584 0.59057 0.03819 0.0
O243 O 0.01261 0.60118 1.00047 0.0
O244 O 0.01685 0.52736 0.99383 0.0
O245 O 0.04631 0.56462 0.98671 0.0
O246 O 0.96721 0.5349 1.00885 0.0
O247 O 0.9768 0.4931 1.00843 0.0
H248 H 0.0681 0.43183 1.01797 0.0
H249 H 0.107 0.42075 0.04049 0.0
H250 H 0.09099 0.4674 0.11384 0.0
H251 H 0.05225 0.47863 0.09117 0.0
H252 H 0.96013 0.63606 0.04339 0.0
H253 H 0.92107 0.64995 0.02472 0.0
H254 H 0.93576 0.61156 0.94533 0.0
H255 H 0.97404 0.59672 0.96458 0.0
H256 H 0.25662 0.26435 0.22365 0.0
H257 H 0.22214 0.24632 0.26079 0.0
H258 H 0.28798 0.231 0.3084 0.0
H259 H 0.32256 0.24828 0.27056 0.0
H260 H 0.2457 0.18943 0.30968 0.0
H261 H 0.25438 0.28332 0.32681 0.0
H262 H 0.25636 0.33016 0.31515 0.0
H263 H 0.17143 0.3053 0.28875 0.0
H264 H 0.16904 0.25823 0.29993 0.0
H265 H 0.14864 0.15268 0.42545 0.0
H266 H 0.18813 0.17944 0.39756 0.0
H267 H 0.13165 0.18557 0.33424 0.0
H268 H 0.09214 0.15813 0.3615 0.0
H269 H 0.17233 0.23465 0.34626 0.0
H270 H 0.16692 0.1399 0.32522 0.0
H271 H 0.16574 0.09342 0.33757 0.0
H272 H 0.24644 0.12158 0.37336 0.0
H273 H 0.2479 0.16833 0.36157 0.0
C274 C 0.2638 0.25752 0.24223 0.0
C275 C 0.29226 0.25789 0.24439 0.0
C276 C 0.24409 0.2473 0.26352 0.0
C277 C 0.25249 0.23779 0.28771 0.0
C278 C 0.28101 0.23835 0.29001 0.0
C279 C 0.30072 0.24821 0.26845 0.0
C280 C 0.23114 0.22577 0.30969 0.0
C281 C 0.23008 0.19963 0.31812 0.0
C282 C 0.21042 0.23883 0.32047 0.0
C283 C 0.21161 0.2672 0.31406 0.0
C284 C 0.23617 0.28781 0.31839 0.0
C285 C 0.23736 0.31441 0.31188 0.0
C286 C 0.21406 0.32069 0.30117 0.0
C287 C 0.18947 0.3004 0.29704 0.0
C288 C 0.18817 0.27377 0.30352 0.0
C289 C 0.14459 0.15962 0.40554 0.0
C290 C 0.11722 0.15298 0.39559 0.0
C291 C 0.16716 0.17507 0.38976 0.0
C292 C 0.16277 0.18428 0.3638 0.0
C293 C 0.1354 0.1787 0.3543 0.0
C294 C 0.11283 0.16308 0.36997 0.0
C295 C 0.18687 0.19839 0.34576 0.0
C296 C 0.18834 0.2248 0.33809 0.0
C297 C 0.20815 0.18574 0.33591 0.0
C298 C 0.20736 0.15763 0.34281 0.0
C299 C 0.1843 0.13621 0.33594 0.0
C300 C 0.1836 0.10981 0.3428 0.0
C301 C 0.20596 0.10456 0.35632 0.0
C302 C 0.22911 0.12569 0.36294 0.0
C303 C 0.22989 0.15213 0.35616 0.0
H304 H 0.20538 0.08411 0.36161 0.0
H305 H 0.21503 0.34129 0.29611 0.0
H306 H 0.32836 0.86172 0.67442 0.0
H307 H 0.3498 0.87246 0.71938 0.0
H308 H 0.26928 0.84004 0.76143 0.0
H309 H 0.24764 0.82874 0.71639 0.0
H310 H 0.29695 0.88957 0.78315 0.0
H311 H 0.31783 0.80488 0.75969 0.0
H312 H 0.33517 0.77182 0.72945 0.0
H313 H 0.41814 0.82508 0.72652 0.0
H314 H 0.40121 0.85867 0.75638 0.0
H315 H 0.35999 0.91204 0.9126 0.0
H316 H 0.33443 0.88537 0.87441 0.0
H317 H 0.40826 0.9093 0.81953 0.0
H318 H 0.43421 0.93515 0.85782 0.0
H319 H 0.37985 0.85815 0.80758 0.0
H320 H 0.35854 0.94477 0.82358 0.0
H321 H 0.34249 0.97997 0.8517 0.0
H322 H 0.26167 0.9249 0.86655 0.0
H323 H 0.27741 0.88923 0.83881 0.0
C324 C 0.31524 0.85654 0.6932 0.0
C325 C 0.2863 0.84424 0.69181 0.0
C326 C 0.32753 0.86271 0.71888 0.0
C327 C 0.31119 0.85668 0.74369 0.0
C328 C 0.28225 0.84475 0.74247 0.0
C329 C 0.26991 0.83846 0.71674 0.0
C330 C 0.32432 0.86384 0.77085 0.0
C331 C 0.31466 0.88222 0.78881 0.0
C332 C 0.34782 0.85468 0.77785 0.0
C333 C 0.35818 0.83438 0.76014 0.0
C334 C 0.33973 0.80963 0.75245 0.0
C335 C 0.34949 0.79078 0.73539 0.0
C336 C 0.37773 0.79637 0.72603 0.0
C337 C 0.39627 0.82079 0.73378 0.0
C338 C 0.38661 0.83973 0.7508 0.0
C339 C 0.37102 0.91097 0.89262 0.0
C340 C 0.399 0.926 0.88808 0.0
C341 C 0.35632 0.89591 0.87077 0.0
C342 C 0.36929 0.89583 0.84402 0.0
C343 C 0.39779 0.90921 0.83996 0.0
C344 C 0.41252 0.92417 0.86179 0.0
C345 C 0.35268 0.88413 0.81966 0.0
C346 C 0.36175 0.86502 0.80218 0.0
C347 C 0.3288 0.89281 0.81289 0.0
C348 C 0.31926 0.91426 0.82943 0.0
C349 C 0.33742 0.94011 0.83302 0.0
C350 C 0.32837 0.96015 0.84886 0.0
C351 C 0.30111 0.95464 0.86098 0.0
C352 C 0.2828 0.92911 0.8572 0.0
C353 C 0.29177 0.90898 0.84143 0.0
H354 H 0.29413 0.97018 0.87323 0.0
H355 H 0.38524 0.78175 0.71282 0.0
H356 H 0.63842 0.43017 0.79105 0.0
H357 H 0.62317 0.45439 0.75425 0.0
H358 H 0.59153 0.37897 0.70942 0.0
H359 H 0.60638 0.35478 0.74621 0.0
H360 H 0.6206 0.41821 0.67386 0.0
H361 H 0.54682 0.41015 0.74561 0.0
H362 H 0.52723 0.41585 0.79315 0.0
H363 H 0.55945 0.50183 0.78936 0.0
H364 H 0.57957 0.49661 0.7419 0.0
H365 H 0.54388 0.4634 0.57306 0.0
H366 H 0.55965 0.44018 0.60979 0.0
H367 H 0.57082 0.5121 0.6627 0.0
H368 H 0.55292 0.53458 0.62654 0.0
H369 H 0.55351 0.47497 0.69465 0.0
H370 H 0.62839 0.48475 0.62444 0.0
H371 H 0.64961 0.48061 0.57728 0.0
H372 H 0.61855 0.39437 0.57828 0.0
H373 H 0.59695 0.39801 0.62541 0.0
C374 C 0.62824 0.41874 0.77336 0.0
C375 C 0.62366 0.39041 0.77172 0.0
C376 C 0.6194 0.43263 0.75226 0.0
C377 C 0.60596 0.41866 0.7288 0.0
C378 C 0.60182 0.39043 0.72706 0.0
C379 C 0.61028 0.37655 0.74825 0.0
C380 C 0.59599 0.43318 0.70621 0.0
C381 C 0.60573 0.43044 0.67842 0.0
C382 C 0.57708 0.44979 0.71184 0.0
C383 C 0.56496 0.45296 0.74033 0.0
C384 C 0.54993 0.43026 0.755 0.0
C385 C 0.53869 0.4334 0.78192 0.0
C386 C 0.54216 0.45918 0.7943 0.0
C387 C 0.55682 0.48187 0.77976 0.0
C388 C 0.56813 0.47883 0.75285 0.0
C389 C 0.54982 0.47435 0.59245 0.0
C390 C 0.54726 0.50104 0.59657 0.0
C391 C 0.55918 0.46105 0.6136 0.0
C392 C 0.56747 0.47431 0.6393 0.0
C393 C 0.56479 0.50104 0.64336 0.0
C394 C 0.5546 0.51406 0.6225 0.0
C395 C 0.57828 0.46034 0.66202 0.0
C396 C 0.56859 0.46303 0.68992 0.0
C397 C 0.59762 0.44401 0.65651 0.0
C398 C 0.6109 0.44168 0.62837 0.0
C399 C 0.62601 0.46491 0.61456 0.0
C400 C 0.63811 0.46265 0.58785 0.0
C401 C 0.63541 0.43725 0.5748 0.0
C402 C 0.62063 0.41403 0.58844 0.0
C403 C 0.60851 0.41617 0.61517 0.0
H404 H 0.64488 0.43559 0.55417 0.0
H405 H 0.53344 0.46158 0.81514 0.0
H406 H 0.94168 0.69477 0.26816 0.0
H407 H 0.95382 0.66754 0.22851 0.0
H408 H 0.88274 0.60191 0.25075 0.0
H409 H 0.87072 0.62892 0.29066 0.0
H410 H 0.929 0.58389 0.23721 0.0
H411 H 0.87992 0.64105 0.19652 0.0
H412 H 0.86934 0.68413 0.18652 0.0
H413 H 0.95202 0.71252 0.14828 0.0
H414 H 0.96325 0.66975 0.1584 0.0
H415 H 0.94282 0.5109 0.10888 0.0
H416 H 0.92344 0.53454 0.14763 0.0
H417 H 0.9895 0.60662 0.13222 0.0
H418 H 0.00847 0.58335 0.09336 0.0
H419 H 0.94095 0.61916 0.14179 0.0
H420 H 0.99127 0.56374 0.18567 0.0
H421 H 1.00236 0.52095 0.19597 0.0
H422 H 0.91769 0.48956 0.22826 0.0
H423 H 0.906 0.53206 0.21782 0.0
C424 C 0.92868 0.67452 0.26458 0.0
C425 C 0.90523 0.66404 0.28241 0.0
C426 C 0.93554 0.65903 0.24187 0.0
C427 C 0.91895 0.63281 0.23642 0.0
C428 C 0.89577 0.62211 0.2545 0.0
C429 C 0.8889 0.63761 0.27726 0.0
C430 C 0.92599 0.61659 0.21194 0.0
C431 C 0.93116 0.5914 0.21627 0.0
C432 C 0.92922 0.62655 0.18467 0.0
C433 C 0.9225 0.65226 0.17843 0.0
C434 C 0.89592 0.65656 0.18616 0.0
C435 C 0.88979 0.68091 0.18044 0.0
C436 C 0.91001 0.70108 0.16683 0.0
C437 C 0.93639 0.6969 0.15884 0.0
C438 C 0.94263 0.67259 0.16454 0.0
C439 C 0.9531 0.5318 0.11379 0.0
C440 C 0.97719 0.54526 0.09822 0.0
C441 C 0.9421 0.54526 0.13596 0.0
C442 C 0.9552 0.5723 0.14306 0.0
C443 C 0.979 0.5858 0.12717 0.0
C444 C 0.98988 0.57244 0.105 0.0
C445 C 0.9445 0.58669 0.16712 0.0
C446 C 0.93857 0.61155 0.16269 0.0
C447 C 0.94064 0.57645 0.19429 0.0
C448 C 0.94768 0.55095 0.20068 0.0
C449 C 0.97496 0.54763 0.19478 0.0
C450 C 0.98137 0.52345 0.20067 0.0
C451 C 0.96072 0.50252 0.21268 0.0
C452 C 0.93365 0.50577 0.21891 0.0
C453 C 0.92712 0.5299 0.21303 0.0
H454 H 0.96572 0.48381 0.21723 0.0
H455 H 0.90523 0.71992 0.16242 0.0
H456 H 0.34052 0.23326 0.13327 0.0
H457 H 0.36426 0.19926 0.11367 0.0
H458 H 0.4109 0.20613 0.188 0.0
H459 H 0.38656 0.23953 0.20805 0.0
H460 H 0.44124 0.20732 0.12692 0.0
H461 H 0.36727 0.15746 0.19086 0.0
H462 H 0.31801 0.14366 0.20903 0.0
H463 H 0.29177 0.11144 0.12815 0.0
H464 H 0.34086 0.12549 0.10939 0.0
H465 H 0.50138 0.09735 0.10175 0.0
H466 H 0.47825 0.12969 0.12542 0.0
H467 H 0.40576 0.09947 0.0758 0.0
H468 H 0.42833 0.06636 0.0529 0.0
H469 H 0.38844 0.11084 0.12516 0.0
H470 H 0.45793 0.15792 0.05974 0.0
H471 H 0.5051 0.1729 0.03673 0.0
H472 H 0.5377 0.21202 0.11305 0.0
H473 H 0.49078 0.19691 0.13665 0.0
C474 C 0.35606 0.22767 0.14524 0.0
C475 C 0.36185 0.23893 0.17207 0.0
C476 C 0.36949 0.20828 0.13411 0.0
C477 C 0.38922 0.20029 0.14947 0.0
C478 C 0.39572 0.21215 0.1759 0.0
C479 C 0.38184 0.2311 0.1873 0.0
C480 C 0.40234 0.17884 0.13824 0.0
C481 C 0.42996 0.18616 0.12688 0.0
C482 C 0.3871 0.15147 0.13734 0.0
C483 C 0.35766 0.14282 0.14866 0.0
C484 C 0.35095 0.1477 0.17689 0.0
C485 C 0.32307 0.13978 0.18731 0.0
C486 C 0.30176 0.12676 0.16974 0.0
C487 C 0.30829 0.12157 0.14172 0.0
C488 C 0.33614 0.1295 0.13119 0.0
C489 C 0.48036 0.09738 0.09615 0.0
C490 C 0.46674 0.07946 0.07534 0.0
C491 C 0.46722 0.11599 0.10956 0.0
C492 C 0.44052 0.1175 0.10192 0.0
C493 C 0.4264 0.0988 0.08199 0.0
C494 C 0.43934 0.07987 0.06891 0.0
C495 C 0.42772 0.13912 0.11394 0.0
C496 C 0.4 0.13192 0.12532 0.0
C497 C 0.44268 0.16673 0.1142 0.0
C498 C 0.4709 0.17605 0.10004 0.0
C499 C 0.4752 0.16956 0.07167 0.0
C500 C 0.50189 0.17809 0.05851 0.0
C501 C 0.5244 0.19335 0.07344 0.0
C502 C 0.52025 0.20017 0.10153 0.0
C503 C 0.49361 0.19163 0.11481 0.0
H504 H 0.54504 0.19995 0.06322 0.0
H505 H 0.28019 0.12063 0.17784 0.0
H506 H 0.17 0.82161 0.55627 0.0
H507 H 0.14391 0.85012 0.5353 0.0
H508 H 0.14384 0.89577 0.61287 0.0
H509 H 0.17021 0.86771 0.63376 0.0
H510 H 0.09121 0.88242 0.58487 0.0
H511 H 0.19162 0.92049 0.56758 0.0
H512 H 0.23911 0.91865 0.54971 0.0
H513 H 0.20877 0.89946 0.46743 0.0
H514 H 0.16095 0.90079 0.48494 0.0
H515 H 0.07893 1.01253 0.55797 0.0
H516 H 0.09564 0.97403 0.57142 0.0
H517 H 0.09389 0.94429 0.48603 0.0
H518 H 0.07653 0.98254 0.47251 0.0
H519 H 0.14319 0.94395 0.51212 0.0
H520 H 0.04459 0.91447 0.52783 0.0
H521 H 0.99642 0.91403 0.54543 0.0
H522 H 0.02135 0.91438 0.62948 0.0
H523 H 0.06987 0.91592 0.61258 0.0
C524 C 0.16401 0.8375 0.56889 0.0
C525 C 0.17225 0.8427 0.59646 0.0
C526 C 0.14922 0.85372 0.55692 0.0
C527 C 0.1422 0.87505 0.57256 0.0
C528 C 0.14913 0.87935 0.60055 0.0
C529 C 0.16427 0.86342 0.61238 0.0
C530 C 0.12936 0.89415 0.55941 0.0
C531 C 0.10251 0.89604 0.56908 0.0
C532 C 0.14394 0.91111 0.53815 0.0
C533 C 0.17266 0.91038 0.52763 0.0
C534 C 0.19502 0.91561 0.54573 0.0
C535 C 0.222 0.91472 0.53566 0.0
C536 C 0.22694 0.90885 0.50747 0.0
C537 C 0.2049 0.90394 0.48928 0.0
C538 C 0.17786 0.90476 0.49926 0.0
C539 C 0.08214 0.99779 0.54208 0.0
C540 C 0.07626 1.0003 0.51428 0.0
C541 C 0.09155 0.9758 0.54979 0.0
C542 C 0.0955 0.95618 0.52976 0.0
C543 C 0.09072 0.95918 0.50177 0.0
C544 C 0.08096 0.98104 0.49409 0.0
C545 C 0.10524 0.93289 0.5382 0.0
C546 C 0.13156 0.93015 0.52762 0.0
C547 C 0.09005 0.91509 0.55857 0.0
C548 C 0.06109 0.91561 0.56888 0.0
C549 C 0.04 0.91503 0.55009 0.0
C550 C 0.01258 0.91458 0.55994 0.0
C551 C 1.00587 0.91439 0.58852 0.0
C552 C 0.02659 0.91475 0.60733 0.0
C553 C 0.05408 0.9155 0.59763 0.0
H554 H 0.98459 0.91383 0.59608 0.0
H555 H 0.24785 0.90819 0.49971 0.0
H556 H 0.74558 0.40951 0.84682 0.0
H557 H 0.78915 0.43307 0.8688 0.0
H558 H 0.7536 0.40239 0.94832 0.0
H559 H 0.7097 0.37955 0.9267 0.0
H560 H 0.7822 0.45288 0.95575 0.0
H561 H 0.80194 0.37473 0.90842 0.0
H562 H 0.8052 0.3438 0.86827 0.0
H563 H 0.86352 0.408 0.82552 0.0
H564 H 0.86032 0.43941 0.86529 0.0
H565 H 0.93739 0.45494 0.98932 0.0
H566 H 0.89312 0.43429 0.9673 0.0
H567 H 0.87579 0.51247 0.96419 0.0
H568 H 0.91991 0.53324 0.9867 0.0
H569 H 0.87347 0.43797 0.91888 0.0
H570 H 0.80485 0.50606 0.96726 0.0
H571 H 0.80123 0.53358 1.01011 0.0
H572 H 0.83985 0.48344 0.05552 0.0
H573 H 0.84338 0.45544 1.01304 0.0
C574 C 0.74682 0.40797 0.86905 0.0
C575 C 0.72388 0.3923 0.8848 0.0
C576 C 0.772 0.42131 0.88162 0.0
C577 C 0.77513 0.41936 0.91032 0.0
C578 C 0.75203 0.40427 0.92618 0.0
C579 C 0.72689 0.39092 0.91364 0.0
C580 C 0.80241 0.43261 0.92378 0.0
C581 C 0.80213 0.44967 0.94753 0.0
C582 C 0.82865 0.42833 0.9136 0.0
C583 C 0.83066 0.40948 0.88971 0.0
C584 C 0.8153 0.3823 0.89037 0.0
C585 C 0.81716 0.36467 0.86769 0.0
C586 C 0.8345 0.37395 0.84432 0.0
C587 C 0.85007 0.40085 0.84361 0.0
C588 C 0.84825 0.41857 0.86622 0.0
C589 C 0.92417 0.46783 0.98411 0.0
C590 C 0.93239 0.49586 0.99007 0.0
C591 C 0.89877 0.45593 0.97132 0.0
C592 C 0.88065 0.4716 0.96414 0.0
C593 C 0.88893 0.49966 0.96984 0.0
C594 C 0.91434 0.5116 0.98271 0.0
C595 C 0.85331 0.45848 0.95068 0.0
C596 C 0.85358 0.4414 0.92695 0.0
C597 C 0.82701 0.4624 0.96115 0.0
C598 C 0.82463 0.47885 0.9869 0.0
C599 C 0.81247 0.50086 0.98642 0.0
C600 C 0.81046 0.51655 1.01064 0.0
C601 C 0.82039 0.51032 0.0355 0.0
C602 C 0.83226 0.48831 0.03623 0.0
C603 C 0.8343 0.47254 1.01208 0.0
H604 H 0.81883 0.5225 0.05421 0.0
H605 H 0.83591 0.36027 0.82679 0.0
H606 H 0.77937 0.70742 0.39233 0.0
H607 H 0.73588 0.68596 0.41831 0.0
H608 H 0.76692 0.61539 0.42761 0.0
H609 H 0.8103 0.63663 0.40116 0.0
H610 H 0.71357 0.60038 0.41682 0.0
H611 H 0.76816 0.66232 0.48131 0.0
H612 H 0.79696 0.70623 0.49832 0.0
H613 H 0.72697 0.74135 0.49292 0.0
H614 H 0.69787 0.69775 0.47544 0.0
H615 H 0.61215 0.59226 0.55073 0.0
H616 H 0.65863 0.60852 0.52734 0.0
H617 H 0.6203 0.59653 0.44768 0.0
H618 H 0.57418 0.57932 0.47085 0.0
H619 H 0.68057 0.64986 0.49756 0.0
H620 H 0.66362 0.58111 0.39707 0.0
H621 H 0.63719 0.53522 0.3829 0.0
H622 H 0.63647 0.50928 0.46658 0.0
H623 H 0.66332 0.55488 0.48117 0.0
C624 C 0.7769 0.68733 0.39993 0.0
C625 C 0.79827 0.67375 0.39488 0.0
C626 C 0.75208 0.6751 0.41482 0.0
C627 C 0.74833 0.64924 0.42536 0.0
C628 C 0.76936 0.63536 0.41973 0.0
C629 C 0.7941 0.64749 0.40459 0.0
C630 C 0.72258 0.63686 0.44245 0.0
C631 C 0.70637 0.61116 0.43451 0.0
C632 C 0.71357 0.65059 0.46603 0.0
C633 C 0.7309 0.6768 0.47685 0.0
C634 C 0.75896 0.67945 0.48358 0.0
C635 C 0.77533 0.70428 0.49332 0.0
C636 C 0.76382 0.72658 0.49665 0.0
C637 C 0.73587 0.72407 0.49031 0.0
C638 C 0.71942 0.69929 0.48051 0.0
C639 C 0.61377 0.59297 0.52822 0.0
C640 C 0.58968 0.58446 0.51256 0.0
C641 C 0.64027 0.60231 0.51488 0.0
C642 C 0.64306 0.60342 0.4857 0.0
C643 C 0.61884 0.59527 0.47014 0.0
C644 C 0.59246 0.58559 0.48342 0.0
C645 C 0.67113 0.61366 0.47148 0.0
C646 C 0.6878 0.63897 0.47998 0.0
C647 C 0.68095 0.59921 0.44893 0.0
C648 C 0.66533 0.57151 0.44024 0.0
C649 C 0.65799 0.56558 0.41241 0.0
C650 C 0.64291 0.53962 0.40431 0.0
C651 C 0.63512 0.51937 0.42383 0.0
C652 C 0.64247 0.525 0.45149 0.0
C653 C 0.65762 0.55091 0.45969 0.0
H654 H 0.62345 0.49931 0.41748 0.0
H655 H 0.77654 0.74579 0.50418 0.0
H656 H 0.30706 0.38842 0.20651 0.0
H657 H 0.27069 0.40909 0.19151 0.0
H658 H 0.25713 0.35372 0.12042 0.0
H659 H 0.29341 0.33306 0.13522 0.0
H660 H 0.26285 0.4338 0.14321 0.0
H661 H 0.18606 0.33119 0.1147 0.0
H662 H 0.17541 0.2837 0.12841 0.0
H663 H 0.20735 0.3091 0.20913 0.0
H664 H 0.21778 0.35672 0.19605 0.0
H665 H 0.15487 0.44616 0.05661 0.0
H666 H 0.19341 0.43347 0.07809 0.0
H667 H 0.14116 0.41276 0.15289 0.0
H668 H 0.10244 0.42536 0.13144 0.0
H669 H 0.16718 0.37309 0.13479 0.0
H670 H 0.19244 0.46766 0.15476 0.0
H671 H 0.20185 0.51592 0.14436 0.0
H672 H 0.27071 0.50866 0.08817 0.0
H673 H 0.26143 0.46023 0.09786 0.0
C674 C 0.29656 0.38096 0.18746 0.0
C675 C 0.30293 0.35911 0.1721 0.0
C676 C 0.27588 0.3928 0.17891 0.0
C677 C 0.26106 0.38273 0.15504 0.0
C678 C 0.26817 0.36158 0.13907 0.0
C679 C 0.28895 0.34985 0.14751 0.0
C680 C 0.2371 0.39324 0.14761 0.0
C681 C 0.24192 0.42058 0.14135 0.0
C682 C 0.20966 0.37611 0.14602 0.0
C683 C 0.20295 0.34752 0.15427 0.0
C684 C 0.19069 0.32664 0.13541 0.0
C685 C 0.18471 0.2997 0.14307 0.0
C686 C 0.19079 0.29338 0.16959 0.0
C687 C 0.20275 0.31401 0.18856 0.0
C688 C 0.20873 0.34098 0.18102 0.0
C689 C 0.15164 0.43893 0.07765 0.0
C690 C 0.12567 0.43665 0.09235 0.0
C691 C 0.17371 0.43189 0.08995 0.0
C692 C 0.17016 0.42234 0.11712 0.0
C693 C 0.14431 0.42018 0.13193 0.0
C694 C 0.1223 0.42749 0.11972 0.0
C695 C 0.19309 0.41346 0.12947 0.0
C696 C 0.18806 0.38638 0.13671 0.0
C697 C 0.22015 0.431 0.1325 0.0
C698 C 0.22606 0.46022 0.12685 0.0
C699 C 0.20946 0.47629 0.14002 0.0
C700 C 0.21479 0.50369 0.13428 0.0
C701 C 0.2368 0.51532 0.11554 0.0
C702 C 0.25363 0.49961 0.10264 0.0
C703 C 0.24836 0.47218 0.10827 0.0
H704 H 0.24083 0.53649 0.11103 0.0
H705 H 0.18618 0.27251 0.17546 0.0
H706 H 0.60103 0.31356 0.8783 0.0
H707 H 0.57842 0.2701 0.89924 0.0
H708 H 0.65934 0.2526 0.90281 0.0
H709 H 0.68186 0.29552 0.88136 0.0
H710 H 0.6219 0.20778 0.88812 0.0
H711 H 0.62487 0.27551 0.96117 0.0
H712 H 0.6158 0.31696 0.98354 0.0
H713 H 0.52682 0.28376 0.97767 0.0
H714 H 0.53539 0.24225 0.9549 0.0
H715 H 0.57799 0.09762 0.9811 0.0
H716 H 0.60196 0.14057 0.95964 0.0
H717 H 0.52326 0.16343 0.9618 0.0
H718 H 0.49972 0.1213 0.98402 0.0
H719 H 0.56052 0.20579 0.97373 0.0
H720 H 0.55688 0.13864 0.89983 0.0
H721 H 0.56537 0.09711 0.87706 0.0
H722 H 0.65445 0.12888 0.88377 0.0
H723 H 0.64646 0.17048 0.90689 0.0
C724 C 0.61401 0.30033 0.88317 0.0
C725 C 0.64343 0.30845 0.87824 0.0
C726 C 0.60104 0.27548 0.89549 0.0
C727 C 0.61707 0.25793 0.90325 0.0
C728 C 0.6463 0.26557 0.89734 0.0
C729 C 0.65925 0.29038 0.88517 0.0
C730 C 0.60369 0.23192 0.91785 0.0
C731 C 0.60873 0.20747 0.90702 0.0
C732 C 0.58598 0.23099 0.94233 0.0
C733 C 0.58079 0.2559 0.95606 0.0
C734 C 0.60338 0.27714 0.96445 0.0
C735 C 0.59833 0.30063 0.97724 0.0
C736 C 0.57076 0.30302 0.98195 0.0
C737 C 0.54817 0.2819 0.97396 0.0
C738 C 0.55311 0.25838 0.96113 0.0
C739 C 0.56586 0.11188 0.97709 0.0
C740 C 0.53682 0.10576 0.98418 0.0
C741 C 0.57956 0.13647 0.96455 0.0
C742 C 0.56452 0.15546 0.95834 0.0
C743 C 0.53562 0.14945 0.96608 0.0
C744 C 0.52206 0.12512 0.97879 0.0
C745 C 0.57846 0.18149 0.94388 0.0
C746 C 0.57361 0.20601 0.95479 0.0
C747 C 0.59619 0.18244 0.91938 0.0
C748 C 0.60105 0.15754 0.90534 0.0
C749 C 0.57826 0.13669 0.8966 0.0
C750 C 0.58299 0.11315 0.88362 0.0
C751 C 0.61042 0.11033 0.87905 0.0
C752 C 0.6332 0.13108 0.88737 0.0
C753 C 0.62859 0.15465 0.90039 0.0
H754 H 0.61404 0.09209 0.869 0.0
H755 H 0.56689 0.32122 0.99185 0.0
H756 H 0.91807 0.74396 0.39381 0.0
H757 H 0.9406 0.78894 0.41329 0.0
H758 H 0.86735 0.81649 0.39688 0.0
H759 H 0.84452 0.77139 0.37797 0.0
H760 H 0.92311 0.85311 0.38146 0.0
H761 H 0.87004 0.80264 0.45765 0.0
H762 H 0.85559 0.76351 0.48797 0.0
H763 H 0.94067 0.7763 0.51259 0.0
H764 H 0.95571 0.81526 0.48202 0.0
H765 H 0.94902 0.97422 0.46481 0.0
H766 H 0.92795 0.93061 0.44203 0.0
H767 H 0.98859 0.89585 0.47808 0.0
H768 H 0.00929 0.93922 0.50127 0.0
H769 H 0.93921 0.86243 0.48271 0.0
H770 H 0.99312 0.91268 0.408 0.0
H771 H 0.00918 0.95115 0.377 0.0
H772 H 0.92544 0.93844 0.34863 0.0
H773 H 0.90879 0.90009 0.37977 0.0
C774 C 0.90699 0.75975 0.39408 0.0
C775 C 0.87962 0.75433 0.38446 0.0
C776 C 0.91978 0.78532 0.40526 0.0
C777 C 0.90555 0.80593 0.40655 0.0
C778 C 0.87864 0.80083 0.396 0.0
C779 C 0.86563 0.77513 0.38532 0.0
C780 C 0.91826 0.83244 0.42004 0.0
C781 C 0.92639 0.8553 0.40364 0.0
C782 C 0.92307 0.83502 0.44883 0.0
C783 C 0.91406 0.81166 0.46729 0.0
C784 C 0.88572 0.79693 0.4693 0.0
C785 C 0.87741 0.77482 0.48658 0.0
C786 C 0.89722 0.76737 0.50213 0.0
C787 C 0.92536 0.78206 0.50049 0.0
C788 C 0.93379 0.80417 0.4832 0.0
C789 C 0.95788 0.95728 0.46777 0.0
C790 C 0.98065 0.96004 0.48496 0.0
C791 C 0.9459 0.93238 0.45467 0.0
C792 C 0.95685 0.90994 0.45806 0.0
C793 C 0.97968 0.91278 0.47519 0.0
C794 C 0.99145 0.93756 0.4885 0.0
C795 C 0.94428 0.8834 0.44416 0.0
C796 C 0.93609 0.86042 0.4605 0.0
C797 C 0.9397 0.88069 0.41523 0.0
C798 C 0.94966 0.90368 0.39642 0.0
C799 C 0.97808 0.91821 0.39531 0.0
C800 C 0.9873 0.93998 0.37769 0.0
C801 C 0.96833 0.94728 0.36091 0.0
C802 C 0.94011 0.93278 0.36167 0.0
C803 C 0.93077 0.91102 0.37928 0.0
H804 H 0.9755 0.96413 0.34728 0.0
H805 H 0.89075 0.75026 0.51551 0.0
H806 H 0.25326 0.77826 0.58094 0.0
H807 H 0.27822 0.7507 0.55206 0.0
H808 H 0.3576 0.80429 0.57344 0.0
H809 H 0.33276 0.83266 0.60163 0.0
H810 H 0.3591 0.77696 0.5195 0.0
H811 H 0.33133 0.75888 0.61706 0.0
H812 H 0.29645 0.75119 0.65664 0.0
H813 H 0.24628 0.68229 0.61297 0.0
H814 H 0.2807 0.68993 0.57289 0.0
H815 H 0.45288 0.6989 0.55054 0.0
H816 H 0.42307 0.72959 0.54416 0.0
H817 H 0.35143 0.66128 0.53439 0.0
H818 H 0.38109 0.63066 0.542 0.0
H819 H 0.34074 0.69349 0.57345 0.0
H820 H 0.3811 0.70568 0.48162 0.0
H821 H 0.41998 0.71461 0.44599 0.0
H822 H 0.44933 0.7955 0.47904 0.0
H823 H 0.4117 0.78668 0.51597 0.0
C824 C 0.27598 0.78489 0.57859 0.0
C825 C 0.2911 0.80727 0.59413 0.0
C826 C 0.29019 0.76912 0.562 0.0
C827 C 0.31969 0.77528 0.56104 0.0
C828 C 0.33481 0.79922 0.57398 0.0
C829 C 0.3206 0.81513 0.59045 0.0
C830 C 0.33427 0.75411 0.5526 0.0
C831 C 0.35518 0.75859 0.53105 0.0
C832 C 0.32875 0.73012 0.56764 0.0
C833 C 0.30836 0.72515 0.5919 0.0
C834 C 0.31276 0.7422 0.61585 0.0
C835 C 0.29309 0.73785 0.63836 0.0
C836 C 0.26912 0.7163 0.63729 0.0
C837 C 0.26483 0.69901 0.61374 0.0
C838 C 0.28439 0.70334 0.59112 0.0
C839 C 0.43091 0.69054 0.54637 0.0
C840 C 0.41906 0.66261 0.547 0.0
C841 C 0.41392 0.70802 0.54251 0.0
C842 C 0.38502 0.69772 0.53859 0.0
C843 C 0.37366 0.66964 0.53739 0.0
C844 C 0.39051 0.65221 0.54178 0.0
C845 C 0.36606 0.71609 0.54023 0.0
C846 C 0.34431 0.71126 0.56095 0.0
C847 C 0.37124 0.73976 0.52454 0.0
C848 C 0.39351 0.74543 0.50177 0.0
C849 C 0.39594 0.72533 0.4815 0.0
C850 C 0.41779 0.73037 0.46104 0.0
C851 C 0.43694 0.75566 0.46008 0.0
C852 C 0.43442 0.77593 0.47975 0.0
C853 C 0.41289 0.77088 0.50055 0.0
H854 H 0.45376 0.75953 0.44414 0.0
H855 H 0.2539 0.71296 0.65474 0.0
H856 H 0.7757 0.80539 0.82473 0.0
H857 H 0.81439 0.82399 0.79144 0.0
H858 H 0.75504 0.83414 0.73283 0.0
H859 H 0.71596 0.81579 0.76639 0.0
H860 H 0.80958 0.81167 0.71328 0.0
H861 H 0.77557 0.88538 0.75908 0.0
H862 H 0.76008 0.90831 0.80095 0.0
H863 H 0.83963 0.91496 0.83685 0.0
H864 H 0.85536 0.89157 0.79537 0.0
H865 H 0.90371 0.90651 0.62721 0.0
H866 H 0.86419 0.87909 0.654 0.0
H867 H 0.90987 0.90071 0.7291 0.0
H868 H 0.94853 0.93013 0.70283 0.0
H869 H 0.86037 0.90555 0.73934 0.0
H870 H 0.89677 0.83528 0.69462 0.0
H871 H 0.91347 0.8099 0.65532 0.0
H872 H 0.83259 0.79416 0.61965 0.0
H873 H 0.8155 0.81976 0.65856 0.0
C874 C 0.77081 0.81093 0.80449 0.0
C875 C 0.74286 0.80914 0.79807 0.0
C876 C 0.79292 0.82158 0.78556 0.0
C877 C 0.78744 0.83034 0.7598 0.0
C878 C 0.75953 0.82728 0.75262 0.0
C879 C 0.73733 0.81699 0.77179 0.0
C880 C 0.81109 0.84538 0.74197 0.0
C881 C 0.82054 0.83234 0.71856 0.0
C882 C 0.82571 0.87195 0.74961 0.0
C883 C 0.81651 0.88648 0.77429 0.0
C884 C 0.78964 0.89151 0.77602 0.0
C885 C 0.78084 0.90462 0.79965 0.0
C886 C 0.79883 0.91303 0.82158 0.0
C887 C 0.8257 0.90841 0.81987 0.0
C888 C 0.83457 0.89523 0.7963 0.0
C889 C 0.90535 0.90567 0.64947 0.0
C890 C 0.92931 0.92091 0.66283 0.0
C891 C 0.88284 0.88953 0.66473 0.0
C892 C 0.88406 0.88753 0.69359 0.0
C893 C 0.90837 0.9019 0.70685 0.0
C894 C 0.93068 0.91851 0.69169 0.0
C895 C 0.85937 0.87197 0.71026 0.0
C896 C 0.8496 0.88492 0.73369 0.0
C897 C 0.84476 0.84517 0.70274 0.0
C898 C 0.85494 0.82966 0.67938 0.0
C899 C 0.88261 0.82657 0.6783 0.0
C900 C 0.89213 0.81212 0.65611 0.0
C901 C 0.87413 0.80049 0.63497 0.0
C902 C 0.84653 0.80321 0.63602 0.0
C903 C 0.8369 0.81766 0.65816 0.0
H904 H 0.88155 0.78932 0.6178 0.0
H905 H 0.79198 0.92318 0.83986 0.0
H906 H 0.71192 0.16311 0.38308 0.0
H907 H 0.6971 0.15032 0.33576 0.0
H908 H 0.61018 0.13787 0.36447 0.0
H909 H 0.62487 0.14992 0.41218 0.0
H910 H 0.61861 0.09676 0.32999 0.0
H911 H 0.64238 0.19348 0.32913 0.0
H912 H 0.67245 0.23951 0.33637 0.0
H913 H 0.73514 0.22153 0.27813 0.0
H914 H 0.70562 0.17525 0.27083 0.0
H915 H 0.56618 0.08395 0.19448 0.0
H916 H 0.57756 0.09907 0.24221 0.0
H917 H 0.66611 0.11792 0.21833 0.0
H918 H 0.65487 0.10421 0.17022 0.0
H919 H 0.65469 0.15686 0.25098 0.0
H920 H 0.63284 0.05996 0.25347 0.0
H921 H 0.60377 1.01347 0.24642 0.0
H922 H 0.53865 0.03126 0.30161 0.0
H923 H 0.5672 0.07798 0.30871 0.0
C924 C 0.68963 0.15743 0.37938 0.0
C925 C 0.66953 0.15741 0.40135 0.0
C926 C 0.68122 0.15041 0.35229 0.0
C927 C 0.65257 0.14346 0.3466 0.0
C928 C 0.63241 0.14329 0.36846 0.0
C929 C 0.64082 0.15033 0.39562 0.0
C930 C 0.64375 0.13579 0.31785 0.0
C931 C 0.62609 0.11005 0.31274 0.0
C932 C 0.65412 0.15294 0.29535 0.0
C933 C 0.67187 0.18081 0.29962 0.0
C934 C 0.66267 0.19927 0.31803 0.0
C935 C 0.6796 0.22542 0.32211 0.0
C936 C 0.70571 0.23342 0.30776 0.0
C937 C 0.71492 0.2153 0.28925 0.0
C938 C 0.69808 0.18911 0.28511 0.0
C939 C 0.58807 0.09162 0.19928 0.0
C940 C 0.60962 0.09282 0.1785 0.0
C941 C 0.59455 0.09996 0.22666 0.0
C942 C 0.62269 0.10926 0.23391 0.0
C943 C 0.64424 0.11069 0.21321 0.0
C944 C 0.63779 0.10258 0.18577 0.0
C945 C 0.62975 0.11769 0.26302 0.0
C946 C 0.64707 0.1436 0.26822 0.0
C947 C 0.6192 0.10064 0.28558 0.0
C948 C 0.60204 0.07254 0.28139 0.0
C949 C 0.61223 0.05401 0.26393 0.0
C950 C 0.59586 0.02762 0.25996 0.0
C951 C 0.56934 1.01944 0.2735 0.0
C952 C 0.55917 0.03763 0.2911 0.0
C953 C 0.57545 0.06406 0.29513 0.0
H954 H 0.55671 0.99899 0.27039 0.0
H955 H 0.71879 0.25367 0.31095 0.0
H956 H 0.36554 0.66597 0.29546 0.0
H957 H 0.37871 0.64398 0.33535 0.0
H958 H 0.46542 0.66583 0.30533 0.0
H959 H 0.4525 0.68826 0.26602 0.0
H960 H 0.44621 0.61072 0.32106 0.0
H961 H 0.44526 0.70024 0.35987 0.0
H962 H 0.42178 0.73687 0.37123 0.0
H963 H 0.35786 0.68305 0.42039 0.0
H964 H 0.38087 0.64604 0.40914 0.0
H965 H 0.5182 0.57775 0.43139 0.0
H966 H 0.50111 0.59962 0.3945 0.0
H967 H 0.42633 0.60095 0.44538 0.0
H968 H 0.4447 0.5809 0.4833 0.0
H969 H 0.43513 0.64231 0.41898 0.0
H970 H 0.43155 0.55363 0.38393 0.0
H971 H 0.44803 0.51282 0.37132 0.0
H972 H 0.51074 0.55803 0.31418 0.0
H973 H 0.49487 0.59921 0.3267 0.0
C974 C 0.38741 0.6661 0.29736 0.0
C975 C 0.40794 0.67893 0.27735 0.0
C976 C 0.39497 0.65356 0.3203 0.0
C977 C 0.42319 0.65315 0.32365 0.0
C978 C 0.44354 0.6657 0.30346 0.0
C979 C 0.43609 0.67862 0.28091 0.0
C980 C 0.43177 0.63962 0.34784 0.0
C981 C 0.44407 0.61783 0.34245 0.0
C982 C 0.42794 0.64788 0.37603 0.0
C983 C 0.41461 0.67032 0.38342 0.0
C984 C 0.42611 0.69619 0.37298 0.0
C985 C 0.41288 0.71701 0.37939 0.0
C986 C 0.3882 0.71222 0.39632 0.0
C987 C 0.37685 0.68667 0.40711 0.0
C988 C 0.39004 0.6658 0.4008 0.0
C989 C 0.49808 0.58265 0.43478 0.0
C990 C 0.48278 0.57716 0.46039 0.0
C991 C 0.48803 0.59502 0.41337 0.0
C992 C 0.46167 0.60138 0.41618 0.0
C993 C 0.44658 0.5963 0.44207 0.0
C994 C 0.45708 0.58464 0.46389 0.0
C995 C 0.45022 0.6134 0.39234 0.0
C996 C 0.4373 0.63493 0.39771 0.0
C997 C 0.45255 0.60425 0.36409 0.0
C998 C 0.46219 0.57956 0.35646 0.0
C999 C 0.44898 0.55491 0.36881 0.0
C1000 C 0.45819 0.53171 0.36166 0.0
C1001 C 0.48046 0.53285 0.34202 0.0
C1002 C 0.49352 0.55718 0.32942 0.0
C1003 C 0.4844 0.58046 0.33651 0.0
H1004 H 0.48757 0.51486 0.33651 0.0
H1005 H 0.37801 0.72838 0.40129 0.0
H1006 H 0.18822 0.46877 0.77729 0.0
H1007 H 0.16524 0.48693 0.81731 0.0
H1008 H 0.09652 0.4152 0.81628 0.0
H1009 H 0.11916 0.39725 0.77571 0.0
H1010 H 0.07674 0.45836 0.82469 0.0
H1011 H 0.14734 0.4256 0.8652 0.0
H1012 H 0.1949 0.41985 0.87125 0.0
H1013 H 0.22512 0.50492 0.88896 0.0
H1014 H 0.17779 0.51125 0.88262 0.0
H1015 H 0.02103 0.48733 0.95955 0.0
H1016 H 0.04279 0.46557 0.92112 0.0
H1017 H 0.10897 0.53856 0.91137 0.0
H1018 H 0.08727 0.56045 0.94982 0.0
H1019 H 0.12887 0.49226 0.90977 0.0
H1020 H 0.057 0.52402 0.86741 0.0
H1021 H 0.0086 0.52811 0.86265 0.0
H1022 H 0.97988 0.44216 0.8501 0.0
H1023 H 0.02808 0.43753 0.85517 0.0
C1024 C 0.1682 0.45689 0.78562 0.0
C1025 C 0.15555 0.4316 0.77346 0.0
C1026 C 0.15515 0.46721 0.80858 0.0
C1027 C 0.12935 0.45225 0.82016 0.0
C1028 C 0.11646 0.42707 0.8078 0.0
C1029 C 0.12945 0.41681 0.78464 0.0
C1030 C 0.11578 0.46313 0.84492 0.0
C1031 C 0.08802 0.46536 0.84345 0.0
C1032 C 0.13055 0.47263 0.86933 0.0
C1033 C 0.15906 0.46893 0.87318 0.0
C1034 C 0.16417 0.44312 0.87017 0.0
C1035 C 0.19108 0.43975 0.87369 0.0
C1036 C 0.21303 0.46201 0.88042 0.0
C1037 C 0.2081 0.48769 0.88371 0.0
C1038 C 0.18123 0.49118 0.88019 0.0
C1039 C 0.04024 0.49871 0.94923 0.0
C1040 C 0.05241 0.52563 0.95752 0.0
C1041 C 0.0526 0.48628 0.92725 0.0
C1042 C 0.07734 0.50054 0.91322 0.0
C1043 C 0.08984 0.52723 0.92189 0.0
C1044 C 0.0774 0.53973 0.94376 0.0
C1045 C 0.09007 0.48773 0.88932 0.0
C1046 C 0.11763 0.48513 0.89101 0.0
C1047 C 0.07502 0.47762 0.86527 0.0
C1048 C 0.04609 0.48041 0.86195 0.0
C1049 C 0.04033 0.50598 0.86385 0.0
C1050 C 0.01294 0.50839 0.86106 0.0
C1051 C 0.99117 0.4854 0.85615 0.0
C1052 C 0.99676 0.45995 0.85394 0.0
C1053 C 0.02411 0.45742 0.85674 0.0
H1054 H 0.96997 0.48731 0.85401 0.0
H1055 H 0.23385 0.45936 0.88314 0.0
H1056 H 0.63401 0.80649 0.88124 0.0
H1057 H 0.60975 0.83997 0.89925 0.0
H1058 H 0.67287 0.90259 0.85838 0.0
H1059 H 0.69904 0.86992 0.84319 0.0
H1060 H 0.66341 0.92156 0.90406 0.0
H1061 H 0.60109 0.87587 0.83586 0.0
H1062 H 0.57109 0.83735 0.81038 0.0
H1063 H 0.51806 0.81632 0.88412 0.0
H1064 H 0.54796 0.8545 0.91017 0.0
H1065 H 0.53225 0.98397 0.93046 0.0
H1066 H 0.55652 0.95487 0.90234 0.0
H1067 H 0.60691 0.95093 0.9719 0.0
H1068 H 0.58393 0.98098 0.99932 0.0
H1069 H 0.55972 0.90654 0.90482 0.0
H1070 H 0.6697 0.94335 0.95367 0.0
H1071 H 0.70024 0.98576 0.97216 0.0
H1072 H 0.65932 0.03163 0.92372 0.0
H1073 H 0.62881 0.98952 0.90463 0.0
C1074 C 0.64305 0.82741 0.87634 0.0
C1075 C 0.66868 0.83522 0.86063 0.0
C1076 C 0.62873 0.84656 0.88622 0.0
C1077 C 0.63906 0.8739 0.87981 0.0
C1078 C 0.66429 0.88168 0.86365 0.0
C1079 C 0.67908 0.86271 0.8545 0.0
C1080 C 0.62455 0.89462 0.89124 0.0
C1081 C 0.64075 0.91827 0.90397 0.0
C1082 C 0.59502 0.89094 0.89059 0.0
C1083 C 0.57691 0.86795 0.87502 0.0
C1084 C 0.58314 0.86293 0.8467 0.0
C1085 C 0.56613 0.84117 0.83214 0.0
C1086 C 0.54272 0.82437 0.84564 0.0
C1087 C 0.53622 0.82934 0.8737 0.0
C1088 C 0.55317 0.85106 0.88836 0.0
C1089 C 0.54873 0.97709 0.93957 0.0
C1090 C 0.55647 0.98504 0.96694 0.0
C1091 C 0.56251 0.96038 0.92354 0.0
C1092 C 0.58398 0.95105 0.93475 0.0
C1093 C 0.59112 0.9585 0.96237 0.0
C1094 C 0.57785 0.97562 0.97812 0.0
C1095 C 0.59858 0.93304 0.91805 0.0
C1096 C 0.58241 0.90992 0.90447 0.0
C1097 C 0.62827 0.93779 0.91674 0.0
C1098 C 0.64682 0.96324 0.92789 0.0
C1099 C 0.66732 0.96248 0.94684 0.0
C1100 C 0.6846 0.98647 0.95746 0.0
C1101 C 0.68167 1.01137 0.94917 0.0
C1102 C 0.66151 1.01233 0.93019 0.0
C1103 C 0.6442 0.9884 0.91949 0.0
H1104 H 0.69505 0.02992 0.95744 0.0
H1105 H 0.52958 0.80753 0.83433 0.0
H1106 H 0.7851 0.15158 0.46925 0.0
H1107 H 0.82256 0.12962 0.47635 0.0
H1108 H 0.78466 0.10411 0.55693 0.0
H1109 H 0.7473 0.12695 0.55018 0.0
H1110 H 0.84039 0.11965 0.55892 0.0
H1111 H 0.77543 0.06022 0.50026 0.0
H1112 H 0.74516 0.04696 0.46023 0.0
H1113 H 0.81764 0.06785 0.40391 0.0
H1114 H 0.84833 0.08161 0.44359 0.0
H1115 H 0.91598 1.01649 0.56254 0.0
H1116 H 0.87534 0.03519 0.55745 0.0
H1117 H 0.92177 0.08723 0.49371 0.0
H1118 H 0.96283 0.06928 0.49936 0.0
H1119 H 0.85936 0.05466 0.48515 0.0
H1120 H 0.92282 0.11853 0.54497 0.0
H1121 H 0.95268 0.13001 0.58537 0.0
H1122 H 0.88119 0.09811 0.64029 0.0
H1123 H 0.85097 0.08591 0.60001 0.0
C1124 C 0.7848 0.14141 0.48855 0.0
C1125 C 0.76315 0.14053 0.50905 0.0
C1126 C 0.80615 0.12878 0.49252 0.0
C1127 C 0.80594 0.11461 0.51682 0.0
C1128 C 0.78502 0.11473 0.53791 0.0
C1129 C 0.76377 0.12773 0.53407 0.0
C1130 C 0.8274 0.09939 0.51978 0.0
C1131 C 0.84419 0.10512 0.543 0.0
C1132 C 0.83253 0.08058 0.49887 0.0
C1133 C 0.81416 0.07215 0.47492 0.0
C1134 C 0.7849 0.06216 0.47933 0.0
C1135 C 0.76767 0.05453 0.45671 0.0
C1136 C 0.77946 0.05661 0.42954 0.0
C1137 C 0.80853 0.06626 0.42496 0.0
C1138 C 0.82586 0.07396 0.44751 0.0
C1139 C 0.91736 0.03171 0.54725 0.0
C1140 C 0.94244 0.04168 0.53143 0.0
C1141 C 0.89424 0.04234 0.54442 0.0
C1142 C 0.89581 0.06256 0.52532 0.0
C1143 C 0.92036 0.0716 0.50854 0.0
C1144 C 0.9437 0.06145 0.51184 0.0
C1145 C 0.87237 0.07536 0.5239 0.0
C1146 C 0.85524 0.06905 0.50107 0.0
C1147 C 0.86676 0.0934 0.54522 0.0
C1148 C 0.88474 0.10098 0.56948 0.0
C1149 C 0.91353 0.11369 0.56563 0.0
C1150 C 0.93051 0.12039 0.58852 0.0
C1151 C 0.91888 0.11474 0.61541 0.0
C1152 C 0.8902 0.10243 0.61944 0.0
C1153 C 0.87313 0.09561 0.59659 0.0
H1154 H 0.93208 0.11996 0.63311 0.0
H1155 H 0.76609 0.0507 0.41205 0.0
H1156 H 0.27966 0.66543 0.20755 0.0
H1157 H 0.23668 0.6411 0.18498 0.0
H1158 H 0.27696 0.66334 0.10459 0.0
H1159 H 0.31989 0.68756 0.12695 0.0
H1160 H 0.22721 0.67019 0.10447 0.0
H1161 H 0.26348 0.59771 0.12977 0.0
H1162 H 0.28166 0.56893 0.15982 0.0
H1163 H 0.2037 0.55163 0.20853 0.0
H1164 H 0.18518 0.58068 0.17903 0.0
H1165 H 0.11295 0.53916 0.05667 0.0
H1166 H 0.1578 0.5602 0.07783 0.0
H1167 H 0.129 0.63185 0.09838 0.0
H1168 H 0.08483 0.61142 0.07628 0.0
H1169 H 0.17499 0.57652 0.12587 0.0
H1170 H 0.1812 0.68792 0.10108 0.0
H1171 H 0.16672 0.71345 0.06481 0.0
H1172 H 0.16669 0.64834 1.00533 0.0
H1173 H 0.18152 0.62258 0.04114 0.0
C1174 C 0.27957 0.66492 0.18504 0.0
C1175 C 0.30352 0.67873 0.16924 0.0
C1176 C 0.25482 0.65091 0.17208 0.0
C1177 C 0.25328 0.65006 0.14288 0.0
C1178 C 0.27724 0.66367 0.1271 0.0
C1179 C 0.30191 0.67768 0.14001 0.0
C1180 C 0.22666 0.63578 0.12876 0.0
C1181 C 0.21584 0.64973 0.1093 0.0
C1182 C 0.21183 0.60874 0.13423 0.0
C1183 C 0.22308 0.59168 0.15239 0.0
C1184 C 0.25034 0.58807 0.14711 0.0
C1185 C 0.26068 0.57166 0.16402 0.0
C1186 C 0.24389 0.55856 0.18615 0.0
C1187 C 0.21671 0.56185 0.19143 0.0
C1188 C 0.20628 0.57829 0.17461 0.0
C1189 C 0.11623 0.55949 0.06552 0.0
C1190 C 0.09521 0.57364 0.06434 0.0
C1191 C 0.14196 0.57152 0.0778 0.0
C1192 C 0.14741 0.598 0.08945 0.0
C1193 C 0.12604 0.61179 0.08894 0.0
C1194 C 0.10054 0.59996 0.07633 0.0
C1195 C 0.17523 0.61118 0.10207 0.0
C1196 C 0.1863 0.59704 0.12119 0.0
C1197 C 0.19081 0.63776 0.09565 0.0
C1198 C 0.1822 0.65323 0.07389 0.0
C1199 C 0.17821 0.6791 0.08024 0.0
C1200 C 0.16992 0.6936 0.05976 0.0
C1201 C 0.1657 0.68249 0.03281 0.0
C1202 C 0.16987 0.65689 0.02624 0.0
C1203 C 0.17819 0.64232 0.04663 0.0
H1204 H 0.15926 0.69373 1.017 0.0
H1205 H 0.2519 0.54576 0.19914 0.0
H1206 H 0.21541 0.38733 0.61783 0.0
H1207 H 0.2587 0.40932 0.59185 0.0
H1208 H 0.29735 0.44042 0.66888 0.0
H1209 H 0.25401 0.41849 0.69502 0.0
H1210 H 0.30965 0.47807 0.62949 0.0
H1211 H 0.31123 0.3848 0.63522 0.0
H1212 H 0.29159 0.33564 0.62944 0.0
H1213 H 0.28848 0.34357 0.54132 0.0
H1214 H 0.30777 0.39286 0.54663 0.0
H1215 H 0.45384 0.50765 0.58489 0.0
H1216 H 0.40745 0.49007 0.60759 0.0
H1217 H 0.37389 0.46 0.52809 0.0
H1218 H 0.42045 0.47742 0.50527 0.0
H1219 H 0.35754 0.42244 0.56666 0.0
H1220 H 0.35894 0.51561 0.56054 0.0
H1221 H 0.37572 0.56508 0.56667 0.0
H1222 H 0.37212 0.55773 0.65538 0.0
H1223 H 0.35586 0.50821 0.64981 0.0
C1224 C 0.23315 0.39882 0.62924 0.0
C1225 C 0.2314 0.40099 0.65849 0.0
C1226 C 0.25786 0.41139 0.61437 0.0
C1227 C 0.28141 0.42616 0.62845 0.0
C1228 C 0.27944 0.42908 0.6576 0.0
C1229 C 0.25467 0.4166 0.6725 0.0
C1230 C 0.30829 0.43807 0.61286 0.0
C1231 C 0.32035 0.46589 0.61601 0.0
C1232 C 0.32177 0.42225 0.59467 0.0
C1233 C 0.31071 0.39255 0.59136 0.0
C1234 C 0.30621 0.37608 0.61463 0.0
C1235 C 0.29516 0.34819 0.61144 0.0
C1236 C 0.28873 0.3365 0.58504 0.0
C1237 C 0.29345 0.35266 0.56176 0.0
C1238 C 0.30447 0.38057 0.56484 0.0
C1239 C 0.43653 0.49744 0.57223 0.0
C1240 C 0.44071 0.49389 0.54332 0.0
C1241 C 0.40999 0.48751 0.5852 0.0
C1242 C 0.3871 0.47395 0.56951 0.0
C1243 C 0.39124 0.47044 0.54059 0.0
C1244 C 0.4178 0.48042 0.52759 0.0
C1245 C 0.35916 0.46252 0.58348 0.0
C1246 C 0.34687 0.43472 0.58004 0.0
C1247 C 0.34549 0.47839 0.60143 0.0
C1248 C 0.35635 0.50813 0.60473 0.0
C1249 C 0.36207 0.5245 0.58134 0.0
C1250 C 0.37142 0.55256 0.58472 0.0
C1251 C 0.37489 0.5645 0.6114 0.0
C1252 C 0.36936 0.54843 0.63474 0.0
C1253 C 0.36009 0.52037 0.63148 0.0
H1254 H 0.38173 0.58622 0.61404 0.0
H1255 H 0.28016 0.31491 0.58262 0.0
H1256 H 0.7209 0.68183 0.85569 0.0
H1257 H 0.75608 0.66364 0.87696 0.0
H1258 H 0.77341 0.73199 0.93484 0.0
H1259 H 0.73811 0.75011 0.9139 0.0
H1260 H 0.82159 0.72193 0.90638 0.0
H1261 H 0.73911 0.67329 0.95836 0.0
H1262 H 0.69113 0.64377 0.96388 0.0
H1263 H 0.71756 0.57956 0.91865 0.0
H1264 H 0.76563 0.60884 0.91251 0.0
H1265 H 0.91184 0.68047 0.99331 0.0
H1266 H 0.87321 0.69523 0.97507 0.0
H1267 H 0.84811 0.62001 0.92792 0.0
H1268 H 0.8858 0.60438 0.94742 0.0
H1269 H 0.80337 0.63296 0.95021 0.0
H1270 H 0.88447 0.67956 0.89697 0.0
H1271 H 0.93255 0.70808 0.88868 0.0
H1272 H 0.90928 0.77483 0.93216 0.0
H1273 H 0.86113 0.74658 0.94105 0.0
C1274 C 0.73194 0.69272 0.87323 0.0
C1275 C 0.72676 0.71727 0.8832 0.0
C1276 C 0.75197 0.68233 0.88535 0.0
C1277 C 0.76726 0.69647 0.90749 0.0
C1278 C 0.76179 0.7208 0.91777 0.0
C1279 C 0.74153 0.73104 0.90587 0.0
C1280 C 0.78996 0.68657 0.91898 0.0
C1281 C 0.81761 0.70267 0.91636 0.0
C1282 C 0.78478 0.661 0.931 0.0
C1283 C 0.7559 0.64335 0.93474 0.0
C1284 C 0.73463 0.65296 0.94937 0.0
C1285 C 0.70743 0.63625 0.95266 0.0
C1286 C 0.70128 0.60983 0.94156 0.0
C1287 C 0.72235 0.60004 0.92721 0.0
C1288 C 0.74958 0.61667 0.92384 0.0
C1289 C 0.89792 0.66686 0.97935 0.0
C1290 C 0.90201 0.6412 0.97185 0.0
C1291 C 0.87602 0.6755 0.96864 0.0
C1292 C 0.85801 0.65893 0.94974 0.0
C1293 C 0.86183 0.63321 0.94236 0.0
C1294 C 0.88359 0.62443 0.9533 0.0
C1295 C 0.83513 0.66843 0.93787 0.0
C1296 C 0.80744 0.65225 0.94028 0.0
C1297 C 0.84032 0.69378 0.92523 0.0
C1298 C 0.86926 0.71086 0.91991 0.0
C1299 C 0.88966 0.70025 0.90495 0.0
C1300 C 0.91692 0.71639 0.90011 0.0
C1301 C 0.92399 0.74323 0.90995 0.0
C1302 C 0.90378 0.75402 0.92459 0.0
C1303 C 0.8765 0.73796 0.92951 0.0
H1304 H 0.9451 0.75569 0.90617 0.0
H1305 H 0.68021 0.59693 0.94413 0.0
H1306 H 0.38004 0.74693 0.12874 0.0
H1307 H 0.40086 0.7906 0.10831 0.0
H1308 H 0.41765 0.82676 0.19021 0.0
H1309 H 0.39592 0.78296 0.21096 0.0
H1310 H 0.39702 0.85917 0.16027 0.0
H1311 H 0.4709 0.81418 0.14308 0.0
H1312 H 0.49218 0.77734 0.1262 0.0
H1313 H 0.46986 0.78651 0.04288 0.0
H1314 H 0.4481 0.82318 0.05933 0.0
H1315 H 0.48469 0.9843 0.11435 0.0
H1316 H 0.46487 0.94056 0.13517 0.0
H1317 H 0.4511 0.90313 0.05335 0.0
H1318 H 0.47182 0.94706 0.03234 0.0
H1319 H 0.4703 0.87131 0.08351 0.0
H1320 H 0.39596 0.91568 0.10031 0.0
H1321 H 0.3742 0.9523 0.11683 0.0
H1322 H 0.39664 0.94405 0.20033 0.0
H1323 H 0.41887 0.90759 0.18424 0.0
C1324 C 0.3881 0.76409 0.14257 0.0
C1325 C 0.38602 0.7611 0.1717 0.0
C1326 C 0.40034 0.78921 0.13072 0.0
C1327 C 0.41125 0.81235 0.14749 0.0
C1328 C 0.40953 0.80943 0.1766 0.0
C1329 C 0.39729 0.78418 0.18851 0.0
C1330 C 0.42367 0.8395 0.13463 0.0
C1331 C 0.41337 0.86183 0.14379 0.0
C1332 C 0.4445 0.84325 0.11245 0.0
C1333 C 0.45764 0.82126 0.10249 0.0
C1334 C 0.47034 0.80821 0.12119 0.0
C1335 C 0.48253 0.78738 0.1117 0.0
C1336 C 0.48231 0.77955 0.0835 0.0
C1337 C 0.46998 0.79258 0.06472 0.0
C1338 C 0.45775 0.8134 0.07412 0.0
C1339 C 0.47728 0.96684 0.10069 0.0
C1340 C 0.47984 0.96942 0.07156 0.0
C1341 C 0.46573 0.94166 0.11271 0.0
C1342 C 0.45588 0.91815 0.09607 0.0
C1343 C 0.45837 0.92071 0.06689 0.0
C1344 C 0.47013 0.94596 0.05482 0.0
C1345 C 0.44365 0.89102 0.10912 0.0
C1346 C 0.45396 0.86868 0.09999 0.0
C1347 C 0.42275 0.88724 0.13127 0.0
C1348 C 0.40931 0.90908 0.14102 0.0
C1349 C 0.39643 0.9218 0.12216 0.0
C1350 C 0.38398 0.94251 0.13145 0.0
C1351 C 0.3841 0.95054 0.1596 0.0
C1352 C 0.3966 0.93783 0.17853 0.0
C1353 C 0.4091 0.91712 0.16934 0.0
H1354 H 0.37447 0.96658 0.16675 0.0
H1355 H 0.49175 0.76342 0.07619 0.0
H1356 H 0.19305 0.30332 0.67326 0.0
H1357 H 0.17254 0.25826 0.65341 0.0
H1358 H 0.0933 0.27889 0.64737 0.0
H1359 H 0.11361 0.32376 0.66817 0.0
H1360 H 0.08359 0.2286 0.66117 0.0
H1361 H 0.14096 0.28231 0.59084 0.0
H1362 H 0.18429 0.31233 0.57074 0.0
H1363 H 0.2283 0.2506 0.5775 0.0
H1364 H 0.18531 0.22032 0.59805 0.0
H1365 H 0.06919 0.13453 0.52798 0.0
H1366 H 0.08863 0.17811 0.55124 0.0
H1367 H 0.08403 0.13881 0.62938 0.0
H1368 H 0.064 0.09518 0.60643 0.0
H1369 H 0.1342 0.19947 0.57805 0.0
H1370 H 0.06791 0.17892 0.68209 0.0
H1371 H 0.02137 0.15201 0.69899 0.0
H1372 H 0.9893 0.15242 0.61794 0.0
H1373 H 0.03551 0.17951 0.60061 0.0
C1374 C 0.17116 0.29807 0.66797 0.0
C1375 C 0.15493 0.317 0.672 0.0
C1376 C 0.15949 0.2724 0.65653 0.0
C1377 C 0.13155 0.26538 0.64827 0.0
C1378 C 0.11493 0.28387 0.65347 0.0
C1379 C 0.1265 0.30946 0.66535 0.0
C1380 C 0.12012 0.23926 0.63316 0.0
C1381 C 0.0947 0.22221 0.64306 0.0
C1382 C 0.13421 0.23117 0.60904 0.0
C1383 C 0.15997 0.24913 0.59621 0.0
C1384 C 0.15992 0.27518 0.58818 0.0
C1385 C 0.18441 0.29225 0.5767 0.0
C1386 C 0.20905 0.2834 0.5729 0.0
C1387 C 0.2092 0.25743 0.58049 0.0
C1388 C 0.18477 0.2403 0.59203 0.0
C1389 C 0.07245 0.13508 0.55009 0.0
C1390 C 0.06484 0.11132 0.56536 0.0
C1391 C 0.08362 0.16005 0.56336 0.0
C1392 C 0.08742 0.16182 0.59214 0.0
C1393 C 0.08077 0.13803 0.60725 0.0
C1394 C 0.06945 0.11306 0.59404 0.0
C1395 C 0.09792 0.18858 0.60637 0.0
C1396 C 0.12316 0.20579 0.59626 0.0
C1397 C 0.0832 0.19718 0.62974 0.0
C1398 C 0.05526 0.181 0.64001 0.0
C1399 C 0.05089 0.17331 0.6679 0.0
C1400 C 0.02458 0.158 0.67754 0.0
C1401 C 1.00242 0.1504 0.65951 0.0
C1402 C 1.00651 0.15817 0.63183 0.0
C1403 C 0.03277 0.17347 0.62208 0.0
H1404 H 0.98206 0.13856 0.667 0.0
H1405 H 0.22798 0.29665 0.56402 0.0
H1406 H 0.70674 0.23953 0.49258 0.0
H1407 H 0.68838 0.27744 0.51034 0.0
H1408 H 0.60366 0.22666 0.50827 0.0
H1409 H 0.62209 0.18906 0.48927 0.0
H1410 H 0.60697 0.26859 0.48088 0.0
H1411 H 0.63582 0.25554 0.57082 0.0
H1412 H 0.66772 0.24865 0.60593 0.0
H1413 H 0.72425 0.3254 0.58788 0.0
H1414 H 0.69292 0.3326 0.55235 0.0
H1415 H 0.54834 0.3756 0.52206 0.0
H1416 H 0.56372 0.33503 0.53029 0.0
H1417 H 0.64959 0.37723 0.50955 0.0
H1418 H 0.63443 0.41817 0.50159 0.0
H1419 H 0.64195 0.33823 0.55441 0.0
H1420 H 0.61649 0.34628 0.45955 0.0
H1421 H 0.58454 0.35337 0.42456 0.0
H1422 H 0.52111 0.2846 0.45334 0.0
H1423 H 0.55258 0.27739 0.48884 0.0
C1424 C 0.68426 0.23635 0.4967 0.0
C1425 C 0.66573 0.21157 0.48952 0.0
C1426 C 0.67377 0.25795 0.507 0.0
C1427 C 0.6446 0.2549 0.51082 0.0
C1428 C 0.62622 0.22951 0.50543 0.0
C1429 C 0.6367 0.20807 0.49463 0.0
C1430 C 0.63324 0.27894 0.51623 0.0
C1431 C 0.61413 0.28337 0.49749 0.0
C1432 C 0.64315 0.29874 0.53735 0.0
C1433 C 0.66207 0.29452 0.55875 0.0
C1434 C 0.65516 0.27087 0.57417 0.0
C1435 C 0.67313 0.26692 0.59419 0.0
C1436 C 0.69802 0.28655 0.5991 0.0
C1437 C 0.70497 0.3102 0.58405 0.0
C1438 C 0.68708 0.31425 0.56399 0.0
C1439 C 0.5706 0.37653 0.52 0.0
C1440 C 0.59016 0.39998 0.51084 0.0
C1441 C 0.57932 0.35333 0.52471 0.0
C1442 C 0.60771 0.35321 0.52035 0.0
C1443 C 0.62758 0.37704 0.51306 0.0
C1444 C 0.61885 0.40024 0.50815 0.0
C1445 C 0.6159 0.3274 0.51917 0.0
C1446 C 0.63448 0.32291 0.53838 0.0
C1447 C 0.60552 0.30737 0.49857 0.0
C1448 C 0.58673 0.3115 0.47704 0.0
C1449 C 0.59564 0.33282 0.45857 0.0
C1450 C 0.57764 0.33684 0.43862 0.0
C1451 C 0.55078 0.3195 0.43678 0.0
C1452 C 0.5419 0.29805 0.45483 0.0
C1453 C 0.55981 0.29398 0.47486 0.0
H1454 H 0.53687 0.32263 0.42132 0.0
H1455 H 0.7119 0.28345 0.6146 0.0
loop_
_geom_bond_atom_site_label_1
_geom_bond_atom_site_label_2
_geom_bond_distance
_geom_bond_site_symmetry_2
_ccdc_geom_bond_type
H0 C5 0.930 . S
H1 C8 0.930 . S
H2 C10 0.930 . S
H3 C4 1.016 . S
C4 H3 1.016 . S
C4 N11 1.286 . S
C5 H0 0.930 . S
C5 C6 1.397 . S
C5 C7 1.361 . S
C6 C5 1.397 . S
C6 C10 1.390 . S
C7 C5 1.361 . S
C7 C8 1.393 . S
C7 N11 1.413 . S
C8 H1 0.930 . S
C8 C7 1.393 . S
C8 C9 1.399 . S
C9 C8 1.399 . S
C9 C10 1.381 . S
C10 H2 0.930 . S
C10 C6 1.390 . S
C10 C9 1.381 . S
N11 C4 1.286 . S
N11 C7 1.413 . S
H12 C17 0.930 . S
H13 C20 0.930 . S
H14 C22 0.930 . S
H15 C16 1.016 . S
C16 H15 1.016 . S
C16 N23 1.286 . S
C17 H12 0.930 . S
C17 C18 1.397 . S
C17 C19 1.361 . S
C18 C17 1.397 . S
C18 C22 1.390 . S
C19 C17 1.361 . S
C19 C20 1.393 . S
C19 N23 1.413 . S
C20 H13 0.930 . S
C20 C19 1.393 . S
C20 C21 1.399 . S
C21 C20 1.399 . S
C21 C22 1.381 . S
C22 H14 0.930 . S
C22 C18 1.390 . S
C22 C21 1.381 . S
N23 C16 1.286 . S
N23 C19 1.413 . S
H24 C29 0.930 . S
H25 C32 0.930 . S
H26 C34 0.930 . S
H27 C28 1.016 . S
C28 H27 1.016 . S
C28 N35 1.286 . S
C29 H24 0.930 . S
C29 C30 1.397 . S
C29 C31 1.361 . S
C30 C29 1.397 . S
C30 C34 1.390 . S
C31 C29 1.361 . S
C31 C32 1.393 . S
C31 N35 1.413 . S
C32 H25 0.930 . S
C32 C31 1.393 . S
C32 C33 1.399 . S
C33 C32 1.399 . S
C33 C34 1.381 . S
C34 H26 0.930 . S
C34 C30 1.390 . S
C34 C33 1.381 . S
N35 C28 1.286 . S
N35 C31 1.413 . S
H36 C41 0.930 . S
H37 C44 0.930 . S
H38 C46 0.930 . S
H39 C40 1.016 . S
C40 H39 1.016 . S
C40 N47 1.286 . S
C41 H36 0.930 . S
C41 C42 1.397 . S
C41 C43 1.361 . S
C42 C41 1.397 . S
C42 C46 1.390 . S
C43 C41 1.361 . S
C43 C44 1.393 . S
C43 N47 1.413 . S
C44 H37 0.930 . S
C44 C43 1.393 . S
C44 C45 1.399 . S
C45 C44 1.399 . S
C45 C46 1.381 . S
C46 H38 0.930 . S
C46 C42 1.390 . S
C46 C45 1.381 . S
N47 C40 1.286 . S
N47 C43 1.413 . S
H48 C53 0.930 . S
H49 C56 0.930 . S
H50 C58 0.930 . S
H51 C52 1.016 . S
C52 H51 1.016 . S
C52 N59 1.286 . S
C53 H48 0.930 . S
C53 C54 1.397 . S
C53 C55 1.361 . S
C54 C53 1.397 . S
C54 C58 1.390 . S
C55 C53 1.361 . S
C55 C56 1.393 . S
C55 N59 1.413 . S
C56 H49 0.930 . S
C56 C55 1.393 . S
C56 C57 1.399 . S
C57 C56 1.399 . S
C57 C58 1.381 . S
C58 H50 0.930 . S
C58 C54 1.390 . S
C58 C57 1.381 . S
N59 C52 1.286 . S
N59 C55 1.413 . S
H60 C65 0.930 . S
H61 C68 0.930 . S
H62 C70 0.930 . S
H63 C64 1.016 . S
C64 H63 1.016 . S
C64 N71 1.286 . S
C65 H60 0.930 . S
C65 C66 1.397 . S
C65 C67 1.361 . S
C66 C65 1.397 . S
C66 C70 1.390 . S
C67 C65 1.361 . S
C67 C68 1.393 . S
C67 N71 1.413 . S
C68 H61 0.930 . S
C68 C67 1.393 . S
C68 C69 1.399 . S
C69 C68 1.399 . S
C69 C70 1.381 . S
C70 H62 0.930 . S
C70 C66 1.390 . S
C70 C69 1.381 . S
N71 C64 1.286 . S
N71 C67 1.413 . S
H72 C77 0.930 . S
H73 C80 0.930 . S
H74 C82 0.930 . S
H75 C76 1.016 . S
C76 H75 1.016 . S
C76 N83 1.286 . S
C77 H72 0.930 . S
C77 C78 1.397 . S
C77 C79 1.361 . S
C78 C77 1.397 . S
C78 C82 1.390 . S
C79 C77 1.361 . S
C79 C80 1.393 . S
C79 N83 1.413 . S
C80 H73 0.930 . S
C80 C79 1.393 . S
C80 C81 1.399 . S
C81 C80 1.399 . S
C81 C82 1.381 . S
C82 H74 0.930 . S
C82 C78 1.390 . S
C82 C81 1.381 . S
N83 C76 1.286 . S
N83 C79 1.413 . S
H84 C89 0.930 . S
H85 C92 0.930 . S
H86 C94 0.930 . S
H87 C88 1.016 . S
C88 H87 1.016 . S
C88 N95 1.286 . S
C89 H84 0.930 . S
C89 C90 1.397 . S
C89 C91 1.361 . S
C90 C89 1.397 . S
C90 C94 1.390 . S
C91 C89 1.361 . S
C91 C92 1.393 . S
C91 N95 1.413 . S
C92 H85 0.930 . S
C92 C91 1.393 . S
C92 C93 1.399 . S
C93 C92 1.399 . S
C93 C94 1.381 . S
C94 H86 0.930 . S
C94 C90 1.390 . S
C94 C93 1.381 . S
N95 C88 1.286 . S
N95 C91 1.413 . S
Sm96 C98 2.846 . S
Sm96 O116 2.543 . S
Sm96 O117 2.450 . S
Sm96 O118 2.681 1_545 S
Sm96 O119 2.464 1_545 S
Sm96 O120 2.396 . S
Sm96 O124 2.386 1_455 S
Sm96 O127 2.408 1_445 S
Sm97 C107 2.846 . S
Sm97 O118 2.386 1_655 S
Sm97 O121 2.408 1_665 S
Sm97 O122 2.543 . S
Sm97 O123 2.450 . S
Sm97 O124 2.681 1_565 S
Sm97 O125 2.464 1_565 S
Sm97 O126 2.396 . S
C98 Sm96 2.846 . S
C98 C99 1.506 . S
C98 O116 1.261 . S
C98 O117 1.242 . S
C99 C98 1.506 . S
C99 C100 1.358 . S
C99 C104 1.382 . S
C100 C99 1.358 . S
C100 C101 1.385 . S
C100 H128 0.930 . S
C101 C100 1.385 . S
C101 C102 1.395 . S
C101 H129 0.929 . S
C102 C101 1.395 . S
C102 C103 1.335 . S
C103 C102 1.335 . S
C103 C104 1.398 . S
C103 H130 0.930 . S
C104 C99 1.382 . S
C104 C103 1.398 . S
C104 H131 0.929 . S
C105 O118 1.271 . S
C105 O119 1.251 . S
C106 O120 1.252 . S
C106 O121 1.272 . S
C107 Sm97 2.846 . S
C107 C108 1.506 . S
C107 O122 1.261 . S
C107 O123 1.242 . S
C108 C107 1.506 . S
C108 C109 1.358 . S
C108 C113 1.382 . S
C109 C108 1.358 . S
C109 C110 1.385 . S
C109 H132 0.930 . S
C110 C109 1.385 . S
C110 C111 1.395 . S
C110 H133 0.929 . S
C111 C110 1.395 . S
C111 C112 1.335 . S
C112 C111 1.335 . S
C112 C113 1.398 . S
C112 H134 0.930 . S
C113 C108 1.382 . S
C113 C112 1.398 . S
C113 H135 0.929 . S
C114 O124 1.271 . S
C114 O125 1.251 . S
C115 O126 1.252 . S
C115 O127 1.272 . S
O116 Sm96 2.543 . S
O116 C98 1.261 . S
O117 Sm96 2.450 . S
O117 C98 1.242 . S
O118 Sm96 2.681 1_565 S
O118 Sm97 2.386 1_455 S
O118 C105 1.271 . S
O119 Sm96 2.464 1_565 S
O119 C105 1.251 . S
O120 Sm96 2.396 . S
O120 C106 1.252 . S
O121 Sm97 2.408 1_445 S
O121 C106 1.272 . S
O122 Sm97 2.543 . S
O122 C107 1.261 . S
O123 Sm97 2.450 . S
O123 C107 1.242 . S
O124 Sm96 2.386 1_655 S
O124 Sm97 2.681 1_545 S
O124 C114 1.271 . S
O125 Sm97 2.464 1_545 S
O125 C114 1.251 . S
O126 Sm97 2.396 . S
O126 C115 1.252 . S
O127 Sm96 2.408 1_665 S
O127 C115 1.272 . S
H128 C100 0.930 . S
H129 C101 0.929 . S
H130 C103 0.930 . S
H131 C104 0.929 . S
H132 C109 0.930 . S
H133 C110 0.929 . S
H134 C112 0.930 . S
H135 C113 0.929 . S
Sm136 C138 2.846 . S
Sm136 O156 2.543 . S
Sm136 O157 2.450 . S
Sm136 O158 2.681 1_545 S
Sm136 O159 2.464 1_545 S
Sm136 O160 2.396 . S
Sm136 O164 2.381 1_554 S
Sm136 O167 2.408 1_544 S
Sm137 C147 2.846 1_545 S
Sm137 O158 2.386 1_546 S
Sm137 O161 2.408 1_556 S
Sm137 O162 2.543 1_545 S
Sm137 O163 2.449 1_545 S
Sm137 O164 2.684 . S
Sm137 O165 2.464 . S
Sm137 O166 2.396 1_545 S
C138 Sm136 2.846 . S
C138 C139 1.506 . S
C138 O156 1.261 . S
C138 O157 1.242 . S
C139 C138 1.506 . S
C139 C140 1.358 . S
C139 C144 1.382 . S
C140 C139 1.358 . S
C140 C141 1.385 . S
C140 H168 0.930 . S
C141 C140 1.385 . S
C141 C142 1.395 . S
C141 H169 0.929 . S
C142 C141 1.395 . S
C142 C143 1.335 . S
C143 C142 1.335 . S
C143 C144 1.398 . S
C143 H170 0.930 . S
C144 C139 1.382 . S
C144 C143 1.398 . S
C144 H171 0.929 . S
C145 O158 1.271 . S
C145 O159 1.251 . S
C146 O160 1.252 . S
C146 O161 1.272 . S
C147 Sm137 2.846 1_565 S
C147 C148 1.506 . S
C147 O162 1.261 . S
C147 O163 1.270 . S
C148 C147 1.506 . S
C148 C149 1.358 . S
C148 C153 1.382 . S
C149 C148 1.358 . S
C149 C150 1.385 . S
C149 H172 0.930 . S
C150 C149 1.385 . S
C150 C151 1.395 . S
C150 H173 0.929 . S
C151 C150 1.395 . S
C151 C152 1.335 . S
C152 C151 1.335 . S
C152 C153 1.398 . S
C152 H174 0.930 . S
C153 C148 1.382 . S
C153 C152 1.398 . S
C153 H175 0.929 . S
C154 O164 1.277 . S
C154 O165 1.251 . S
C155 O166 1.252 . S
C155 O167 1.272 . S
O156 Sm136 2.543 . S
O156 C138 1.261 . S
O157 Sm136 2.450 . S
O157 C138 1.242 . S
O158 Sm136 2.681 1_565 S
O158 Sm137 2.386 1_564 S
O158 C145 1.271 . S
O159 Sm136 2.464 1_565 S
O159 C145 1.251 . S
O160 Sm136 2.396 . S
O160 C146 1.252 . S
O161 Sm137 2.408 1_554 S
O161 C146 1.272 . S
O162 Sm137 2.543 1_565 S
O162 C147 1.261 . S
O163 Sm137 2.449 1_565 S
O163 C147 1.270 . S
O164 Sm136 2.381 1_556 S
O164 Sm137 2.684 . S
O164 C154 1.277 . S
O165 Sm137 2.464 . S
O165 C154 1.251 . S
O166 Sm137 2.396 1_565 S
O166 C155 1.252 . S
O167 Sm136 2.408 1_566 S
O167 C155 1.272 . S
H168 C140 0.930 . S
H169 C141 0.929 . S
H170 C143 0.930 . S
H171 C144 0.929 . S
H172 C149 0.930 . S
H173 C150 0.929 . S
H174 C152 0.930 . S
H175 C153 0.929 . S
Sm176 C178 2.846 . S
Sm176 O196 2.543 . S
Sm176 O197 2.450 . S
Sm176 O198 2.681 . S
Sm176 O199 2.464 . S
Sm176 O200 2.396 . S
Sm176 O204 2.386 . S
Sm176 O207 2.408 . S
Sm177 C187 2.846 . S
Sm177 O198 2.386 . S
Sm177 O201 2.408 . S
Sm177 O202 2.543 . S
Sm177 O203 2.450 . S
Sm177 O204 2.681 . S
Sm177 O205 2.464 . S
Sm177 O206 2.396 . S
C178 Sm176 2.846 . S
C178 C179 1.506 . S
C178 O196 1.261 . S
C178 O197 1.242 . S
C179 C178 1.506 . S
C179 C180 1.358 . S
C179 C184 1.382 . S
C180 C179 1.358 . S
C180 C181 1.385 . S
C180 H208 0.930 . S
C181 C180 1.385 . S
C181 C182 1.395 . S
C181 H209 0.929 . S
C182 C181 1.395 . S
C182 C183 1.335 . S
C183 C182 1.335 . S
C183 C184 1.398 . S
C183 H210 0.930 . S
C184 C179 1.382 . S
C184 C183 1.398 . S
C184 H211 0.929 . S
C185 O198 1.271 . S
C185 O199 1.251 . S
C186 O200 1.252 . S
C186 O201 1.272 . S
C187 Sm177 2.846 . S
C187 C188 1.506 . S
C187 O202 1.261 . S
C187 O203 1.242 . S
C188 C187 1.506 . S
C188 C189 1.358 . S
C188 C193 1.382 . S
C189 C188 1.358 . S
C189 C190 1.385 . S
C189 H212 0.930 . S
C190 C189 1.385 . S
C190 C191 1.395 . S
C190 H213 0.929 . S
C191 C190 1.395 . S
C191 C192 1.335 . S
C192 C191 1.335 . S
C192 C193 1.398 . S
C192 H214 0.930 . S
C193 C188 1.382 . S
C193 C192 1.398 . S
C193 H215 0.929 . S
C194 O204 1.271 . S
C194 O205 1.251 . S
C195 O206 1.252 . S
C195 O207 1.272 . S
O196 Sm176 2.543 . S
O196 C178 1.261 . S
O197 Sm176 2.450 . S
O197 C178 1.242 . S
O198 Sm176 2.681 . S
O198 Sm177 2.386 . S
O198 C185 1.271 . S
O199 Sm176 2.464 . S
O199 C185 1.251 . S
O200 Sm176 2.396 . S
O200 C186 1.252 . S
O201 Sm177 2.408 . S
O201 C186 1.272 . S
O202 Sm177 2.543 . S
O202 C187 1.261 . S
O203 Sm177 2.450 . S
O203 C187 1.242 . S
O204 Sm176 2.386 . S
O204 Sm177 2.681 . S
O204 C194 1.271 . S
O205 Sm177 2.464 . S
O205 C194 1.251 . S
O206 Sm177 2.396 . S
O206 C195 1.252 . S
O207 Sm176 2.408 . S
O207 C195 1.272 . S
H208 C180 0.930 . S
H209 C181 0.929 . S
H210 C183 0.930 . S
H211 C184 0.929 . S
H212 C189 0.930 . S
H213 C190 0.929 . S
H214 C192 0.930 . S
H215 C193 0.929 . S
Sm216 C218 2.846 . S
Sm216 O236 2.543 . S
Sm216 O237 2.450 . S
Sm216 O238 2.681 1_455 S
Sm216 O239 2.464 1_455 S
Sm216 O240 2.396 . S
Sm216 O244 2.386 1_554 S
Sm216 O247 2.408 1_454 S
Sm217 C227 2.846 1_455 S
Sm217 O238 2.386 1_456 S
Sm217 O241 2.408 1_556 S
Sm217 O242 2.543 1_455 S
Sm217 O243 2.450 1_455 S
Sm217 O244 2.681 . S
Sm217 O245 2.464 . S
Sm217 O246 2.396 1_455 S
C218 Sm216 2.846 . S
C218 C219 1.506 . S
C218 O236 1.261 . S
C218 O237 1.242 . S
C219 C218 1.506 . S
C219 C220 1.358 . S
C219 C224 1.382 . S
C220 C219 1.358 . S
C220 C221 1.385 . S
C220 H248 0.930 . S
C221 C220 1.385 . S
C221 C222 1.395 . S
C221 H249 0.929 . S
C222 C221 1.395 . S
C222 C223 1.335 . S
C223 C222 1.335 . S
C223 C224 1.398 . S
C223 H250 0.930 . S
C224 C219 1.382 . S
C224 C223 1.398 . S
C224 H251 0.929 . S
C225 O238 1.271 . S
C225 O239 1.251 . S
C226 O240 1.252 . S
C226 O241 1.272 . S
C227 Sm217 2.846 1_655 S
C227 C228 1.506 . S
C227 O242 1.261 . S
C227 O243 1.242 . S
C228 C227 1.506 . S
C228 C229 1.358 . S
C228 C233 1.382 . S
C229 C228 1.358 . S
C229 C230 1.385 . S
C229 H252 0.930 . S
C230 C229 1.385 . S
C230 C231 1.395 . S
C230 H253 0.929 . S
C231 C230 1.395 . S
C231 C232 1.335 . S
C232 C231 1.335 . S
C232 C233 1.398 . S
C232 H254 0.930 . S
C233 C228 1.382 . S
C233 C232 1.398 . S
C233 H255 0.929 . S
C234 O244 1.271 . S
C234 O245 1.251 . S
C235 O246 1.252 . S
C235 O247 1.272 . S
O236 Sm216 2.543 . S
O236 C218 1.261 . S
O237 Sm216 2.450 . S
O237 C218 1.242 . S
O238 Sm216 2.681 1_655 S
O238 Sm217 2.386 1_654 S
O238 C225 1.271 . S
O239 Sm216 2.464 1_655 S
O239 C225 1.251 . S
O240 Sm216 2.396 . S
O240 C226 1.252 . S
O241 Sm217 2.408 1_554 S
O241 C226 1.272 . S
O242 Sm217 2.543 1_655 S
O242 C227 1.261 . S
O243 Sm217 2.450 1_655 S
O243 C227 1.242 . S
O244 Sm216 2.386 1_556 S
O244 Sm217 2.681 . S
O244 C234 1.271 . S
O245 Sm217 2.464 . S
O245 C234 1.251 . S
O246 Sm217 2.396 1_655 S
O246 C235 1.252 . S
O247 Sm216 2.408 1_656 S
O247 C235 1.272 . S
H248 C220 0.930 . S
H249 C221 0.929 . S
H250 C223 0.930 . S
H251 C224 0.929 . S
H252 C229 0.930 . S
H253 C230 0.929 . S
H254 C232 0.930 . S
H255 C233 0.929 . S
H256 C274 0.951 . S
H257 C276 0.951 . S
H258 C278 0.950 . S
H259 C279 0.950 . S
H260 C281 0.950 . S
H261 C284 0.950 . S
H262 C285 0.950 . S
H263 C287 0.950 . S
H264 C288 0.950 . S
H265 C289 0.951 . S
H266 C291 0.951 . S
H267 C293 0.950 . S
H268 C294 0.950 . S
H269 C296 0.950 . S
H270 C299 0.950 . S
H271 C300 0.950 . S
H272 C302 0.950 . S
H273 C303 0.950 . S
C274 H256 0.951 . S
C274 C275 1.366 . S
C274 C276 1.388 . S
C275 C274 1.366 . S
C275 C279 1.385 . S
C276 H257 0.951 . S
C276 C274 1.388 . S
C276 C277 1.366 . S
C277 C276 1.366 . S
C277 C278 1.414 . S
C277 C280 1.499 . S
C278 H258 0.950 . S
C278 C277 1.414 . S
C278 C279 1.374 . S
C279 H259 0.950 . S
C279 C275 1.385 . S
C279 C278 1.374 . S
C280 C277 1.499 . S
C280 C281 1.373 . S
C280 C282 1.389 . S
C281 H260 0.950 . S
C281 C280 1.373 . S
C281 C297 1.377 . S
C282 C280 1.389 . S
C282 C283 1.524 . S
C282 C296 1.377 . S
C283 C282 1.524 . S
C283 C284 1.397 . S
C283 C288 1.363 . S
C284 H261 0.950 . S
C284 C283 1.397 . S
C284 C285 1.334 . S
C285 H262 0.950 . S
C285 C284 1.334 . S
C285 C286 1.287 . S
C286 C285 1.287 . S
C286 C287 1.524 . S
C286 H305 0.913 . S
C287 H263 0.950 . S
C287 C286 1.524 . S
C287 C288 1.415 . S
C288 H264 0.950 . S
C288 C283 1.363 . S
C288 C287 1.415 . S
C289 H265 0.951 . S
C289 C290 1.366 . S
C289 C291 1.388 . S
C290 C289 1.366 . S
C290 C294 1.385 . S
C291 H266 0.951 . S
C291 C289 1.388 . S
C291 C292 1.366 . S
C292 C291 1.366 . S
C292 C293 1.414 . S
C292 C295 1.499 . S
C293 H267 0.950 . S
C293 C292 1.414 . S
C293 C294 1.374 . S
C294 H268 0.950 . S
C294 C290 1.385 . S
C294 C293 1.374 . S
C295 C292 1.499 . S
C295 C296 1.373 . S
C295 C297 1.389 . S
C296 H269 0.950 . S
C296 C282 1.377 . S
C296 C295 1.373 . S
C297 C281 1.377 . S
C297 C295 1.389 . S
C297 C298 1.524 . S
C298 C297 1.524 . S
C298 C299 1.397 . S
C298 C303 1.363 . S
C299 H270 0.950 . S
C299 C298 1.397 . S
C299 C300 1.334 . S
C300 H271 0.950 . S
C300 C299 1.334 . S
C300 C301 1.287 . S
C301 C300 1.287 . S
C301 C302 1.524 . S
C301 H304 0.999 . S
C302 H272 0.950 . S
C302 C301 1.524 . S
C302 C303 1.415 . S
C303 H273 0.950 . S
C303 C298 1.363 . S
C303 C302 1.415 . S
H304 C301 0.999 . S
H305 C286 0.913 . S
H306 C324 0.951 . S
H307 C326 0.951 . S
H308 C328 0.950 . S
H309 C329 0.950 . S
H310 C331 0.950 . S
H311 C334 0.950 . S
H312 C335 0.950 . S
H313 C337 0.950 . S
H314 C338 0.950 . S
H315 C339 0.951 . S
H316 C341 0.951 . S
H317 C343 0.950 . S
H318 C344 0.950 . S
H319 C346 0.950 . S
H320 C349 0.950 . S
H321 C350 0.950 . S
H322 C352 0.950 . S
H323 C353 0.950 . S
C324 H306 0.951 . S
C324 C325 1.366 . S
C324 C326 1.388 . S
C325 C324 1.366 . S
C325 C329 1.385 . S
C326 H307 0.951 . S
C326 C324 1.388 . S
C326 C327 1.366 . S
C327 C326 1.366 . S
C327 C328 1.414 . S
C327 C330 1.499 . S
C328 H308 0.950 . S
C328 C327 1.414 . S
C328 C329 1.374 . S
C329 H309 0.950 . S
C329 C325 1.385 . S
C329 C328 1.374 . S
C330 C327 1.499 . S
C330 C331 1.373 . S
C330 C332 1.389 . S
C331 H310 0.950 . S
C331 C330 1.373 . S
C331 C347 1.377 . S
C332 C330 1.389 . S
C332 C333 1.524 . S
C332 C346 1.377 . S
C333 C332 1.524 . S
C333 C334 1.397 . S
C333 C338 1.363 . S
C334 H311 0.950 . S
C334 C333 1.397 . S
C334 C335 1.334 . S
C335 H312 0.950 . S
C335 C334 1.334 . S
C335 C336 1.287 . S
C336 C335 1.287 . S
C336 C337 1.524 . S
C336 H355 0.913 . S
C337 H313 0.950 . S
C337 C336 1.524 . S
C337 C338 1.415 . S
C338 H314 0.950 . S
C338 C333 1.363 . S
C338 C337 1.415 . S
C339 H315 0.951 . S
C339 C340 1.366 . S
C339 C341 1.388 . S
C340 C339 1.366 . S
C340 C344 1.385 . S
C341 H316 0.951 . S
C341 C339 1.388 . S
C341 C342 1.366 . S
C342 C341 1.366 . S
C342 C343 1.414 . S
C342 C345 1.499 . S
C343 H317 0.950 . S
C343 C342 1.414 . S
C343 C344 1.374 . S
C344 H318 0.950 . S
C344 C340 1.385 . S
C344 C343 1.374 . S
C345 C342 1.499 . S
C345 C346 1.373 . S
C345 C347 1.389 . S
C346 H319 0.950 . S
C346 C332 1.377 . S
C346 C345 1.373 . S
C347 C331 1.377 . S
C347 C345 1.389 . S
C347 C348 1.524 . S
C348 C347 1.524 . S
C348 C349 1.397 . S
C348 C353 1.363 . S
C349 H320 0.950 . S
C349 C348 1.397 . S
C349 C350 1.334 . S
C350 H321 0.950 . S
C350 C349 1.334 . S
C350 C351 1.287 . S
C351 C350 1.287 . S
C351 C352 1.524 . S
C351 H354 0.999 . S
C352 H322 0.950 . S
C352 C351 1.524 . S
C352 C353 1.415 . S
C353 H323 0.950 . S
C353 C348 1.363 . S
C353 C352 1.415 . S
H354 C351 0.999 . S
H355 C336 0.913 . S
H356 C374 0.951 . S
H357 C376 0.951 . S
H358 C378 0.950 . S
H359 C379 0.950 . S
H360 C381 0.950 . S
H361 C384 0.950 . S
H362 C385 0.950 . S
H363 C387 0.950 . S
H364 C388 0.950 . S
H365 C389 0.951 . S
H366 C391 0.951 . S
H367 C393 0.950 . S
H368 C394 0.950 . S
H369 C396 0.950 . S
H370 C399 0.950 . S
H371 C400 0.950 . S
H372 C402 0.950 . S
H373 C403 0.950 . S
C374 H356 0.951 . S
C374 C375 1.366 . S
C374 C376 1.388 . S
C375 C374 1.366 . S
C375 C379 1.385 . S
C376 H357 0.951 . S
C376 C374 1.388 . S
C376 C377 1.366 . S
C377 C376 1.366 . S
C377 C378 1.414 . S
C377 C380 1.499 . S
C378 H358 0.950 . S
C378 C377 1.414 . S
C378 C379 1.374 . S
C379 H359 0.950 . S
C379 C375 1.385 . S
C379 C378 1.374 . S
C380 C377 1.499 . S
C380 C381 1.373 . S
C380 C382 1.389 . S
C381 H360 0.950 . S
C381 C380 1.373 . S
C381 C397 1.377 . S
C382 C380 1.389 . S
C382 C383 1.524 . S
C382 C396 1.377 . S
C383 C382 1.524 . S
C383 C384 1.397 . S
C383 C388 1.363 . S
C384 H361 0.950 . S
C384 C383 1.397 . S
C384 C385 1.334 . S
C385 H362 0.950 . S
C385 C384 1.334 . S
C385 C386 1.287 . S
C386 C385 1.287 . S
C386 C387 1.524 . S
C386 H405 0.913 . S
C387 H363 0.950 . S
C387 C386 1.524 . S
C387 C388 1.415 . S
C388 H364 0.950 . S
C388 C383 1.363 . S
C388 C387 1.415 . S
C389 H365 0.951 . S
C389 C390 1.366 . S
C389 C391 1.388 . S
C390 C389 1.366 . S
C390 C394 1.385 . S
C391 H366 0.951 . S
C391 C389 1.388 . S
C391 C392 1.366 . S
C392 C391 1.366 . S
C392 C393 1.414 . S
C392 C395 1.499 . S
C393 H367 0.950 . S
C393 C392 1.414 . S
C393 C394 1.374 . S
C394 H368 0.950 . S
C394 C390 1.385 . S
C394 C393 1.374 . S
C395 C392 1.499 . S
C395 C396 1.373 . S
C395 C397 1.389 . S
C396 H369 0.950 . S
C396 C382 1.377 . S
C396 C395 1.373 . S
C397 C381 1.377 . S
C397 C395 1.389 . S
C397 C398 1.524 . S
C398 C397 1.524 . S
C398 C399 1.397 . S
C398 C403 1.363 . S
C399 H370 0.950 . S
C399 C398 1.397 . S
C399 C400 1.334 . S
C400 H371 0.950 . S
C400 C399 1.334 . S
C400 C401 1.287 . S
C401 C400 1.287 . S
C401 C402 1.524 . S
C401 H404 0.999 . S
C402 H372 0.950 . S
C402 C401 1.524 . S
C402 C403 1.415 . S
C403 H373 0.950 . S
C403 C398 1.363 . S
C403 C402 1.415 . S
H404 C401 0.999 . S
H405 C386 0.913 . S
H406 C424 0.951 . S
H407 C426 0.951 . S
H408 C428 0.950 . S
H409 C429 0.950 . S
H410 C431 0.950 . S
H411 C434 0.950 . S
H412 C435 0.950 . S
H413 C437 0.950 . S
H414 C438 0.950 . S
H415 C439 0.951 . S
H416 C441 0.951 . S
H417 C443 0.950 . S
H418 C444 0.950 1_455 S
H419 C446 0.950 . S
H420 C449 0.950 . S
H421 C450 0.950 . S
H422 C452 0.950 . S
H423 C453 0.950 . S
C424 H406 0.951 . S
C424 C425 1.366 . S
C424 C426 1.388 . S
C425 C424 1.366 . S
C425 C429 1.385 . S
C426 H407 0.951 . S
C426 C424 1.388 . S
C426 C427 1.366 . S
C427 C426 1.366 . S
C427 C428 1.414 . S
C427 C430 1.499 . S
C428 H408 0.950 . S
C428 C427 1.414 . S
C428 C429 1.374 . S
C429 H409 0.950 . S
C429 C425 1.385 . S
C429 C428 1.374 . S
C430 C427 1.499 . S
C430 C431 1.373 . S
C430 C432 1.389 . S
C431 H410 0.950 . S
C431 C430 1.373 . S
C431 C447 1.377 . S
C432 C430 1.389 . S
C432 C433 1.524 . S
C432 C446 1.377 . S
C433 C432 1.524 . S
C433 C434 1.397 . S
C433 C438 1.363 . S
C434 H411 0.950 . S
C434 C433 1.397 . S
C434 C435 1.334 . S
C435 H412 0.950 . S
C435 C434 1.334 . S
C435 C436 1.287 . S
C436 C435 1.287 . S
C436 C437 1.524 . S
C436 H455 0.913 . S
C437 H413 0.950 . S
C437 C436 1.524 . S
C437 C438 1.415 . S
C438 H414 0.950 . S
C438 C433 1.363 . S
C438 C437 1.415 . S
C439 H415 0.951 . S
C439 C440 1.366 . S
C439 C441 1.388 . S
C440 C439 1.366 . S
C440 C444 1.385 . S
C441 H416 0.951 . S
C441 C439 1.388 . S
C441 C442 1.366 . S
C442 C441 1.366 . S
C442 C443 1.414 . S
C442 C445 1.499 . S
C443 H417 0.950 . S
C443 C442 1.414 . S
C443 C444 1.374 . S
C444 H418 0.950 1_655 S
C444 C440 1.385 . S
C444 C443 1.374 . S
C445 C442 1.499 . S
C445 C446 1.373 . S
C445 C447 1.389 . S
C446 H419 0.950 . S
C446 C432 1.377 . S
C446 C445 1.373 . S
C447 C431 1.377 . S
C447 C445 1.389 . S
C447 C448 1.524 . S
C448 C447 1.524 . S
C448 C449 1.397 . S
C448 C453 1.363 . S
C449 H420 0.950 . S
C449 C448 1.397 . S
C449 C450 1.334 . S
C450 H421 0.950 . S
C450 C449 1.334 . S
C450 C451 1.287 . S
C451 C450 1.287 . S
C451 C452 1.524 . S
C451 H454 0.999 . S
C452 H422 0.950 . S
C452 C451 1.524 . S
C452 C453 1.415 . S
C453 H423 0.950 . S
C453 C448 1.363 . S
C453 C452 1.415 . S
H454 C451 0.999 . S
H455 C436 0.913 . S
H456 C474 0.951 . S
H457 C476 0.951 . S
H458 C478 0.950 . S
H459 C479 0.950 . S
H460 C481 0.950 . S
H461 C484 0.950 . S
H462 C485 0.950 . S
H463 C487 0.950 . S
H464 C488 0.950 . S
H465 C489 0.951 . S
H466 C491 0.951 . S
H467 C493 0.950 . S
H468 C494 0.950 . S
H469 C496 0.950 . S
H470 C499 0.950 . S
H471 C500 0.950 . S
H472 C502 0.950 . S
H473 C503 0.950 . S
C474 H456 0.951 . S
C474 C475 1.366 . S
C474 C476 1.388 . S
C475 C474 1.366 . S
C475 C479 1.385 . S
C476 H457 0.951 . S
C476 C474 1.388 . S
C476 C477 1.366 . S
C477 C476 1.366 . S
C477 C478 1.414 . S
C477 C480 1.499 . S
C478 H458 0.950 . S
C478 C477 1.414 . S
C478 C479 1.374 . S
C479 H459 0.950 . S
C479 C475 1.385 . S
C479 C478 1.374 . S
C480 C477 1.499 . S
C480 C481 1.373 . S
C480 C482 1.389 . S
C481 H460 0.950 . S
C481 C480 1.373 . S
C481 C497 1.377 . S
C482 C480 1.389 . S
C482 C483 1.524 . S
C482 C496 1.377 . S
C483 C482 1.524 . S
C483 C484 1.397 . S
C483 C488 1.363 . S
C484 H461 0.950 . S
C484 C483 1.397 . S
C484 C485 1.334 . S
C485 H462 0.950 . S
C485 C484 1.334 . S
C485 C486 1.287 . S
C486 C485 1.287 . S
C486 C487 1.524 . S
C486 H505 0.913 . S
C487 H463 0.950 . S
C487 C486 1.524 . S
C487 C488 1.415 . S
C488 H464 0.950 . S
C488 C483 1.363 . S
C488 C487 1.415 . S
C489 H465 0.951 . S
C489 C490 1.366 . S
C489 C491 1.388 . S
C490 C489 1.366 . S
C490 C494 1.385 . S
C491 H466 0.951 . S
C491 C489 1.388 . S
C491 C492 1.366 . S
C492 C491 1.366 . S
C492 C493 1.414 . S
C492 C495 1.499 . S
C493 H467 0.950 . S
C493 C492 1.414 . S
C493 C494 1.374 . S
C494 H468 0.950 . S
C494 C490 1.385 . S
C494 C493 1.374 . S
C495 C492 1.499 . S
C495 C496 1.373 . S
C495 C497 1.389 . S
C496 H469 0.950 . S
C496 C482 1.377 . S
C496 C495 1.373 . S
C497 C481 1.377 . S
C497 C495 1.389 . S
C497 C498 1.524 . S
C498 C497 1.524 . S
C498 C499 1.397 . S
C498 C503 1.363 . S
C499 H470 0.950 . S
C499 C498 1.397 . S
C499 C500 1.334 . S
C500 H471 0.950 . S
C500 C499 1.334 . S
C500 C501 1.287 . S
C501 C500 1.287 . S
C501 C502 1.524 . S
C501 H504 0.999 . S
C502 H472 0.950 . S
C502 C501 1.524 . S
C502 C503 1.415 . S
C503 H473 0.950 . S
C503 C498 1.363 . S
C503 C502 1.415 . S
H504 C501 0.999 . S
H505 C486 0.913 . S
H506 C524 0.951 . S
H507 C526 0.951 . S
H508 C528 0.950 . S
H509 C529 0.950 . S
H510 C531 0.950 . S
H511 C534 0.950 . S
H512 C535 0.950 . S
H513 C537 0.955 . S
H514 C538 0.950 . S
H515 C539 0.951 . S
H516 C541 0.951 . S
H517 C543 0.950 . S
H518 C544 0.950 . S
H519 C546 0.950 . S
H520 C549 0.950 . S
H521 C550 0.950 . S
H522 C552 0.950 . S
H523 C553 0.950 . S
C524 H506 0.951 . S
C524 C525 1.366 . S
C524 C526 1.388 . S
C525 C524 1.366 . S
C525 C529 1.385 . S
C526 H507 0.951 . S
C526 C524 1.388 . S
C526 C527 1.366 . S
C527 C526 1.366 . S
C527 C528 1.414 . S
C527 C530 1.499 . S
C528 H508 0.950 . S
C528 C527 1.414 . S
C528 C529 1.374 . S
C529 H509 0.950 . S
C529 C525 1.385 . S
C529 C528 1.374 . S
C530 C527 1.499 . S
C530 C531 1.373 . S
C530 C532 1.389 . S
C531 H510 0.950 . S
C531 C530 1.373 . S
C531 C547 1.377 . S
C532 C530 1.389 . S
C532 C533 1.524 . S
C532 C546 1.377 . S
C533 C532 1.524 . S
C533 C534 1.397 . S
C533 C538 1.363 . S
C534 H511 0.950 . S
C534 C533 1.397 . S
C534 C535 1.334 . S
C535 H512 0.950 . S
C535 C534 1.334 . S
C535 C536 1.287 . S
C536 C535 1.287 . S
C536 C537 1.524 . S
C536 H555 0.913 . S
C537 H513 0.955 . S
C537 C536 1.524 . S
C537 C538 1.415 . S
C538 H514 0.950 . S
C538 C533 1.363 . S
C538 C537 1.415 . S
C539 H515 0.951 . S
C539 C540 1.366 . S
C539 C541 1.388 . S
C540 C539 1.366 . S
C540 C544 1.385 . S
C541 H516 0.951 . S
C541 C539 1.388 . S
C541 C542 1.366 . S
C542 C541 1.366 . S
C542 C543 1.414 . S
C542 C545 1.499 . S
C543 H517 0.950 . S
C543 C542 1.414 . S
C543 C544 1.374 . S
C544 H518 0.950 . S
C544 C540 1.385 . S
C544 C543 1.374 . S
C545 C542 1.499 . S
C545 C546 1.373 . S
C545 C547 1.389 . S
C546 H519 0.950 . S
C546 C532 1.377 . S
C546 C545 1.373 . S
C547 C531 1.377 . S
C547 C545 1.389 . S
C547 C548 1.524 . S
C548 C547 1.524 . S
C548 C549 1.397 . S
C548 C553 1.363 . S
C549 H520 0.950 . S
C549 C548 1.397 . S
C549 C550 1.334 . S
C550 H521 0.950 . S
C550 C549 1.334 . S
C550 C551 1.287 . S
C551 C550 1.287 . S
C551 C552 1.524 . S
C551 H554 0.999 . S
C552 H522 0.950 . S
C552 C551 1.524 . S
C552 C553 1.415 . S
C553 H523 0.950 . S
C553 C548 1.363 . S
C553 C552 1.415 . S
H554 C551 0.999 . S
H555 C536 0.913 . S
H556 C574 0.951 . S
H557 C576 0.951 . S
H558 C578 0.950 . S
H559 C579 0.950 . S
H560 C581 0.950 . S
H561 C584 0.950 . S
H562 C585 0.950 . S
H563 C587 0.950 . S
H564 C588 0.950 . S
H565 C589 0.951 . S
H566 C591 0.951 . S
H567 C593 0.950 . S
H568 C594 0.950 . S
H569 C596 0.950 . S
H570 C599 0.950 . S
H571 C600 0.950 . S
H572 C602 0.950 . S
H573 C603 0.950 . S
C574 H556 0.951 . S
C574 C575 1.366 . S
C574 C576 1.388 . S
C575 C574 1.366 . S
C575 C579 1.385 . S
C576 H557 0.951 . S
C576 C574 1.388 . S
C576 C577 1.366 . S
C577 C576 1.366 . S
C577 C578 1.414 . S
C577 C580 1.499 . S
C578 H558 0.950 . S
C578 C577 1.414 . S
C578 C579 1.374 . S
C579 H559 0.950 . S
C579 C575 1.385 . S
C579 C578 1.374 . S
C580 C577 1.499 . S
C580 C581 1.373 . S
C580 C582 1.389 . S
C581 H560 0.950 . S
C581 C580 1.373 . S
C581 C597 1.377 . S
C582 C580 1.389 . S
C582 C583 1.524 . S
C582 C596 1.377 . S
C583 C582 1.524 . S
C583 C584 1.397 . S
C583 C588 1.363 . S
C584 H561 0.950 . S
C584 C583 1.397 . S
C584 C585 1.334 . S
C585 H562 0.950 . S
C585 C584 1.334 . S
C585 C586 1.287 . S
C586 C585 1.287 . S
C586 C587 1.524 . S
C586 H605 0.913 . S
C587 H563 0.950 . S
C587 C586 1.524 . S
C587 C588 1.415 . S
C588 H564 0.950 . S
C588 C583 1.363 . S
C588 C587 1.415 . S
C589 H565 0.951 . S
C589 C590 1.366 . S
C589 C591 1.388 . S
C590 C589 1.366 . S
C590 C594 1.385 . S
C591 H566 0.951 . S
C591 C589 1.388 . S
C591 C592 1.366 . S
C592 C591 1.366 . S
C592 C593 1.414 . S
C592 C595 1.499 . S
C593 H567 0.950 . S
C593 C592 1.414 . S
C593 C594 1.374 . S
C594 H568 0.950 . S
C594 C590 1.385 . S
C594 C593 1.374 . S
C595 C592 1.499 . S
C595 C596 1.373 . S
C595 C597 1.389 . S
C596 H569 0.950 . S
C596 C582 1.377 . S
C596 C595 1.373 . S
C597 C581 1.377 . S
C597 C595 1.389 . S
C597 C598 1.524 . S
C598 C597 1.524 . S
C598 C599 1.397 . S
C598 C603 1.363 . S
C599 H570 0.950 . S
C599 C598 1.397 . S
C599 C600 1.334 . S
C600 H571 0.950 . S
C600 C599 1.334 . S
C600 C601 1.281 1_556 S
C601 C600 1.281 1_554 S
C601 C602 1.525 . S
C601 H604 1.005 . S
C602 H572 0.950 . S
C602 C601 1.525 . S
C602 C603 1.415 1_554 S
C603 H573 0.950 . S
C603 C598 1.363 . S
C603 C602 1.415 1_556 S
H604 C601 1.005 . S
H605 C586 0.913 . S
H606 C624 0.951 . S
H607 C626 0.951 . S
H608 C628 0.950 . S
H609 C629 0.950 . S
H610 C631 0.950 . S
H611 C634 0.950 . S
H612 C635 0.950 . S
H613 C637 0.950 . S
H614 C638 0.950 . S
H615 C639 0.951 . S
H616 C641 0.951 . S
H617 C643 0.950 . S
H618 C644 0.950 . S
H619 C646 0.950 . S
H620 C649 0.950 . S
H621 C650 0.950 . S
H622 C652 0.950 . S
H623 C653 0.950 . S
C624 H606 0.951 . S
C624 C625 1.366 . S
C624 C626 1.388 . S
C625 C624 1.366 . S
C625 C629 1.385 . S
C626 H607 0.951 . S
C626 C624 1.388 . S
C626 C627 1.366 . S
C627 C626 1.366 . S
C627 C628 1.414 . S
C627 C630 1.499 . S
C628 H608 0.950 . S
C628 C627 1.414 . S
C628 C629 1.374 . S
C629 H609 0.950 . S
C629 C625 1.385 . S
C629 C628 1.374 . S
C630 C627 1.499 . S
C630 C631 1.373 . S
C630 C632 1.389 . S
C631 H610 0.950 . S
C631 C630 1.373 . S
C631 C647 1.377 . S
C632 C630 1.389 . S
C632 C633 1.524 . S
C632 C646 1.377 . S
C633 C632 1.524 . S
C633 C634 1.397 . S
C633 C638 1.363 . S
C634 H611 0.950 . S
C634 C633 1.397 . S
C634 C635 1.334 . S
C635 H612 0.950 . S
C635 C634 1.334 . S
C635 C636 1.287 . S
C636 C635 1.287 . S
C636 C637 1.524 . S
C636 H655 0.913 . S
C637 H613 0.950 . S
C637 C636 1.524 . S
C637 C638 1.415 . S
C638 H614 0.950 . S
C638 C633 1.363 . S
C638 C637 1.415 . S
C639 H615 0.951 . S
C639 C640 1.366 . S
C639 C641 1.388 . S
C640 C639 1.366 . S
C640 C644 1.385 . S
C641 H616 0.951 . S
C641 C639 1.388 . S
C641 C642 1.366 . S
C642 C641 1.366 . S
C642 C643 1.414 . S
C642 C645 1.499 . S
C643 H617 0.950 . S
C643 C642 1.414 . S
C643 C644 1.374 . S
C644 H618 0.950 . S
C644 C640 1.385 . S
C644 C643 1.374 . S
C645 C642 1.499 . S
C645 C646 1.373 . S
C645 C647 1.389 . S
C646 H619 0.950 . S
C646 C632 1.377 . S
C646 C645 1.373 . S
C647 C631 1.377 . S
C647 C645 1.389 . S
C647 C648 1.524 . S
C648 C647 1.524 . S
C648 C649 1.397 . S
C648 C653 1.363 . S
C649 H620 0.950 . S
C649 C648 1.397 . S
C649 C650 1.334 . S
C650 H621 0.950 . S
C650 C649 1.334 . S
C650 C651 1.287 . S
C651 C650 1.287 . S
C651 C652 1.524 . S
C651 H654 0.999 . S
C652 H622 0.950 . S
C652 C651 1.524 . S
C652 C653 1.415 . S
C653 H623 0.950 . S
C653 C648 1.363 . S
C653 C652 1.415 . S
H654 C651 0.999 . S
H655 C636 0.913 . S
H656 C674 0.951 . S
H657 C676 0.951 . S
H658 C678 0.950 . S
H659 C679 0.950 . S
H660 C681 0.950 . S
H661 C684 0.950 . S
H662 C685 0.950 . S
H663 C687 0.950 . S
H664 C688 0.950 . S
H665 C689 0.951 . S
H666 C691 0.951 . S
H667 C693 0.950 . S
H668 C694 0.950 . S
H669 C696 0.950 . S
H670 C699 0.950 . S
H671 C700 0.950 . S
H672 C702 0.950 . S
H673 C703 0.950 . S
C674 H656 0.951 . S
C674 C675 1.366 . S
C674 C676 1.388 . S
C675 C674 1.366 . S
C675 C679 1.385 . S
C676 H657 0.951 . S
C676 C674 1.388 . S
C676 C677 1.366 . S
C677 C676 1.366 . S
C677 C678 1.414 . S
C677 C680 1.499 . S
C678 H658 0.950 . S
C678 C677 1.414 . S
C678 C679 1.374 . S
C679 H659 0.950 . S
C679 C675 1.385 . S
C679 C678 1.374 . S
C680 C677 1.499 . S
C680 C681 1.373 . S
C680 C682 1.389 . S
C681 H660 0.950 . S
C681 C680 1.373 . S
C681 C697 1.377 . S
C682 C680 1.389 . S
C682 C683 1.524 . S
C682 C696 1.377 . S
C683 C682 1.524 . S
C683 C684 1.397 . S
C683 C688 1.363 . S
C684 H661 0.950 . S
C684 C683 1.397 . S
C684 C685 1.334 . S
C685 H662 0.950 . S
C685 C684 1.334 . S
C685 C686 1.287 . S
C686 C685 1.287 . S
C686 C687 1.524 . S
C686 H705 0.913 . S
C687 H663 0.950 . S
C687 C686 1.524 . S
C687 C688 1.415 . S
C688 H664 0.950 . S
C688 C683 1.363 . S
C688 C687 1.415 . S
C689 H665 0.951 . S
C689 C690 1.366 . S
C689 C691 1.388 . S
C690 C689 1.366 . S
C690 C694 1.385 . S
C691 H666 0.951 . S
C691 C689 1.388 . S
C691 C692 1.366 . S
C692 C691 1.366 . S
C692 C693 1.414 . S
C692 C695 1.499 . S
C693 H667 0.950 . S
C693 C692 1.414 . S
C693 C694 1.374 . S
C694 H668 0.950 . S
C694 C690 1.385 . S
C694 C693 1.374 . S
C695 C692 1.499 . S
C695 C696 1.373 . S
C695 C697 1.389 . S
C696 H669 0.950 . S
C696 C682 1.377 . S
C696 C695 1.373 . S
C697 C681 1.377 . S
C697 C695 1.389 . S
C697 C698 1.524 . S
C698 C697 1.524 . S
C698 C699 1.397 . S
C698 C703 1.363 . S
C699 H670 0.950 . S
C699 C698 1.397 . S
C699 C700 1.334 . S
C700 H671 0.950 . S
C700 C699 1.334 . S
C700 C701 1.287 . S
C701 C700 1.287 . S
C701 C702 1.524 . S
C701 H704 0.999 . S
C702 H672 0.950 . S
C702 C701 1.524 . S
C702 C703 1.415 . S
C703 H673 0.950 . S
C703 C698 1.363 . S
C703 C702 1.415 . S
H704 C701 0.999 . S
H705 C686 0.913 . S
H706 C724 0.951 . S
H707 C726 0.951 . S
H708 C728 0.950 . S
H709 C729 0.950 . S
H710 C731 0.950 . S
H711 C734 0.950 . S
H712 C735 0.950 . S
H713 C737 0.950 . S
H714 C738 0.950 . S
H715 C739 0.951 . S
H716 C741 0.951 . S
H717 C743 0.950 . S
H718 C744 0.950 . S
H719 C746 0.950 . S
H720 C749 0.950 . S
H721 C750 0.950 . S
H722 C752 0.950 . S
H723 C753 0.950 . S
C724 H706 0.951 . S
C724 C725 1.366 . S
C724 C726 1.388 . S
C725 C724 1.366 . S
C725 C729 1.385 . S
C726 H707 0.951 . S
C726 C724 1.388 . S
C726 C727 1.366 . S
C727 C726 1.366 . S
C727 C728 1.414 . S
C727 C730 1.499 . S
C728 H708 0.950 . S
C728 C727 1.414 . S
C728 C729 1.374 . S
C729 H709 0.950 . S
C729 C725 1.385 . S
C729 C728 1.374 . S
C730 C727 1.499 . S
C730 C731 1.373 . S
C730 C732 1.389 . S
C731 H710 0.950 . S
C731 C730 1.373 . S
C731 C747 1.377 . S
C732 C730 1.389 . S
C732 C733 1.524 . S
C732 C746 1.377 . S
C733 C732 1.524 . S
C733 C734 1.397 . S
C733 C738 1.363 . S
C734 H711 0.950 . S
C734 C733 1.397 . S
C734 C735 1.334 . S
C735 H712 0.950 . S
C735 C734 1.334 . S
C735 C736 1.287 . S
C736 C735 1.287 . S
C736 C737 1.524 . S
C736 H755 0.913 . S
C737 H713 0.950 . S
C737 C736 1.524 . S
C737 C738 1.415 . S
C738 H714 0.950 . S
C738 C733 1.363 . S
C738 C737 1.415 . S
C739 H715 0.951 . S
C739 C740 1.366 . S
C739 C741 1.388 . S
C740 C739 1.366 . S
C740 C744 1.385 . S
C741 H716 0.951 . S
C741 C739 1.388 . S
C741 C742 1.366 . S
C742 C741 1.366 . S
C742 C743 1.414 . S
C742 C745 1.499 . S
C743 H717 0.950 . S
C743 C742 1.414 . S
C743 C744 1.374 . S
C744 H718 0.950 . S
C744 C740 1.385 . S
C744 C743 1.374 . S
C745 C742 1.499 . S
C745 C746 1.373 . S
C745 C747 1.389 . S
C746 H719 0.950 . S
C746 C732 1.377 . S
C746 C745 1.373 . S
C747 C731 1.377 . S
C747 C745 1.389 . S
C747 C748 1.524 . S
C748 C747 1.524 . S
C748 C749 1.397 . S
C748 C753 1.363 . S
C749 H720 0.950 . S
C749 C748 1.397 . S
C749 C750 1.334 . S
C750 H721 0.950 . S
C750 C749 1.334 . S
C750 C751 1.287 . S
C751 C750 1.287 . S
C751 C752 1.524 . S
C751 H754 0.999 . S
C752 H722 0.950 . S
C752 C751 1.524 . S
C752 C753 1.415 . S
C753 H723 0.950 . S
C753 C748 1.363 . S
C753 C752 1.415 . S
H754 C751 0.999 . S
H755 C736 0.913 . S
H756 C774 0.951 . S
H757 C776 0.951 . S
H758 C778 0.950 . S
H759 C779 0.950 . S
H760 C781 0.950 . S
H761 C784 0.950 . S
H762 C785 0.950 . S
H763 C787 0.950 . S
H764 C788 0.950 . S
H765 C789 0.951 . S
H766 C791 0.951 . S
H767 C793 0.950 . S
H768 C794 0.950 . S
H769 C796 0.950 . S
H770 C799 0.950 . S
H771 C800 0.950 . S
H772 C802 0.950 . S
H773 C803 0.950 . S
C774 H756 0.951 . S
C774 C775 1.366 . S
C774 C776 1.388 . S
C775 C774 1.366 . S
C775 C779 1.385 . S
C776 H757 0.951 . S
C776 C774 1.388 . S
C776 C777 1.366 . S
C777 C776 1.366 . S
C777 C778 1.414 . S
C777 C780 1.499 . S
C778 H758 0.950 . S
C778 C777 1.414 . S
C778 C779 1.374 . S
C779 H759 0.950 . S
C779 C775 1.385 . S
C779 C778 1.374 . S
C780 C777 1.499 . S
C780 C781 1.373 . S
C780 C782 1.389 . S
C781 H760 0.950 . S
C781 C780 1.373 . S
C781 C797 1.377 . S
C782 C780 1.389 . S
C782 C783 1.524 . S
C782 C796 1.377 . S
C783 C782 1.524 . S
C783 C784 1.397 . S
C783 C788 1.363 . S
C784 H761 0.950 . S
C784 C783 1.397 . S
C784 C785 1.334 . S
C785 H762 0.950 . S
C785 C784 1.334 . S
C785 C786 1.287 . S
C786 C785 1.287 . S
C786 C787 1.524 . S
C786 H805 0.913 . S
C787 H763 0.950 . S
C787 C786 1.524 . S
C787 C788 1.415 . S
C788 H764 0.950 . S
C788 C783 1.363 . S
C788 C787 1.415 . S
C789 H765 0.951 . S
C789 C790 1.366 . S
C789 C791 1.388 . S
C790 C789 1.366 . S
C790 C794 1.385 . S
C791 H766 0.951 . S
C791 C789 1.388 . S
C791 C792 1.366 . S
C792 C791 1.366 . S
C792 C793 1.414 . S
C792 C795 1.499 . S
C793 H767 0.950 . S
C793 C792 1.414 . S
C793 C794 1.374 . S
C794 H768 0.950 . S
C794 C790 1.385 . S
C794 C793 1.374 . S
C795 C792 1.499 . S
C795 C796 1.373 . S
C795 C797 1.389 . S
C796 H769 0.950 . S
C796 C782 1.377 . S
C796 C795 1.373 . S
C797 C781 1.377 . S
C797 C795 1.389 . S
C797 C798 1.524 . S
C798 C797 1.524 . S
C798 C799 1.397 . S
C798 C803 1.363 . S
C799 H770 0.950 . S
C799 C798 1.397 . S
C799 C800 1.334 . S
C800 H771 0.950 . S
C800 C799 1.334 . S
C800 C801 1.287 . S
C801 C800 1.287 . S
C801 C802 1.524 . S
C801 H804 0.999 . S
C802 H772 0.950 . S
C802 C801 1.524 . S
C802 C803 1.415 . S
C803 H773 0.950 . S
C803 C798 1.363 . S
C803 C802 1.415 . S
H804 C801 0.999 . S
H805 C786 0.913 . S
H806 C824 0.951 . S
H807 C826 0.951 . S
H808 C828 0.950 . S
H809 C829 0.950 . S
H810 C831 0.950 . S
H811 C834 0.950 . S
H812 C835 0.950 . S
H813 C837 0.950 . S
H814 C838 0.950 . S
H815 C839 0.951 . S
H816 C841 0.951 . S
H817 C843 0.950 . S
H818 C844 0.950 . S
H819 C846 0.950 . S
H820 C849 0.950 . S
H821 C850 0.950 . S
H822 C852 0.950 . S
H823 C853 0.950 . S
C824 H806 0.951 . S
C824 C825 1.366 . S
C824 C826 1.388 . S
C825 C824 1.366 . S
C825 C829 1.385 . S
C826 H807 0.951 . S
C826 C824 1.388 . S
C826 C827 1.366 . S
C827 C826 1.366 . S
C827 C828 1.414 . S
C827 C830 1.499 . S
C828 H808 0.950 . S
C828 C827 1.414 . S
C828 C829 1.374 . S
C829 H809 0.950 . S
C829 C825 1.385 . S
C829 C828 1.374 . S
C830 C827 1.499 . S
C830 C831 1.373 . S
C830 C832 1.389 . S
C831 H810 0.950 . S
C831 C830 1.373 . S
C831 C847 1.377 . S
C832 C830 1.389 . S
C832 C833 1.524 . S
C832 C846 1.377 . S
C833 C832 1.524 . S
C833 C834 1.397 . S
C833 C838 1.363 . S
C834 H811 0.950 . S
C834 C833 1.397 . S
C834 C835 1.334 . S
C835 H812 0.950 . S
C835 C834 1.334 . S
C835 C836 1.287 . S
C836 C835 1.287 . S
C836 C837 1.524 . S
C836 H855 0.913 . S
C837 H813 0.950 . S
C837 C836 1.524 . S
C837 C838 1.415 . S
C838 H814 0.950 . S
C838 C833 1.363 . S
C838 C837 1.415 . S
C839 H815 0.951 . S
C839 C840 1.366 . S
C839 C841 1.388 . S
C840 C839 1.366 . S
C840 C844 1.385 . S
C841 H816 0.951 . S
C841 C839 1.388 . S
C841 C842 1.366 . S
C842 C841 1.366 . S
C842 C843 1.414 . S
C842 C845 1.499 . S
C843 H817 0.950 . S
C843 C842 1.414 . S
C843 C844 1.374 . S
C844 H818 0.950 . S
C844 C840 1.385 . S
C844 C843 1.374 . S
C845 C842 1.499 . S
C845 C846 1.373 . S
C845 C847 1.389 . S
C846 H819 0.950 . S
C846 C832 1.377 . S
C846 C845 1.373 . S
C847 C831 1.377 . S
C847 C845 1.389 . S
C847 C848 1.524 . S
C848 C847 1.524 . S
C848 C849 1.397 . S
C848 C853 1.363 . S
C849 H820 0.950 . S
C849 C848 1.397 . S
C849 C850 1.334 . S
C850 H821 0.950 . S
C850 C849 1.334 . S
C850 C851 1.287 . S
C851 C850 1.287 . S
C851 C852 1.524 . S
C851 H854 0.999 . S
C852 H822 0.950 . S
C852 C851 1.524 . S
C852 C853 1.415 . S
C853 H823 0.950 . S
C853 C848 1.363 . S
C853 C852 1.415 . S
H854 C851 0.999 . S
H855 C836 0.913 . S
H856 C874 0.951 . S
H857 C876 0.951 . S
H858 C878 0.950 . S
H859 C879 0.950 . S
H860 C881 0.950 . S
H861 C884 0.950 . S
H862 C885 0.950 . S
H863 C887 0.950 . S
H864 C888 0.950 . S
H865 C889 0.951 . S
H866 C891 0.951 . S
H867 C893 0.950 . S
H868 C894 0.950 . S
H869 C896 0.950 . S
H870 C899 0.950 . S
H871 C900 0.950 . S
H872 C902 0.950 . S
H873 C903 0.950 . S
C874 H856 0.951 . S
C874 C875 1.366 . S
C874 C876 1.388 . S
C875 C874 1.366 . S
C875 C879 1.385 . S
C876 H857 0.951 . S
C876 C874 1.388 . S
C876 C877 1.366 . S
C877 C876 1.366 . S
C877 C878 1.414 . S
C877 C880 1.499 . S
C878 H858 0.950 . S
C878 C877 1.414 . S
C878 C879 1.374 . S
C879 H859 0.950 . S
C879 C875 1.385 . S
C879 C878 1.374 . S
C880 C877 1.499 . S
C880 C881 1.373 . S
C880 C882 1.389 . S
C881 H860 0.950 . S
C881 C880 1.373 . S
C881 C897 1.377 . S
C882 C880 1.389 . S
C882 C883 1.524 . S
C882 C896 1.377 . S
C883 C882 1.524 . S
C883 C884 1.397 . S
C883 C888 1.363 . S
C884 H861 0.950 . S
C884 C883 1.397 . S
C884 C885 1.334 . S
C885 H862 0.950 . S
C885 C884 1.334 . S
C885 C886 1.287 . S
C886 C885 1.287 . S
C886 C887 1.524 . S
C886 H905 0.913 . S
C887 H863 0.950 . S
C887 C886 1.524 . S
C887 C888 1.415 . S
C888 H864 0.950 . S
C888 C883 1.363 . S
C888 C887 1.415 . S
C889 H865 0.951 . S
C889 C890 1.366 . S
C889 C891 1.388 . S
C890 C889 1.366 . S
C890 C894 1.385 . S
C891 H866 0.951 . S
C891 C889 1.388 . S
C891 C892 1.366 . S
C892 C891 1.366 . S
C892 C893 1.414 . S
C892 C895 1.499 . S
C893 H867 0.950 . S
C893 C892 1.414 . S
C893 C894 1.374 . S
C894 H868 0.950 . S
C894 C890 1.385 . S
C894 C893 1.374 . S
C895 C892 1.499 . S
C895 C896 1.373 . S
C895 C897 1.389 . S
C896 H869 0.950 . S
C896 C882 1.377 . S
C896 C895 1.373 . S
C897 C881 1.377 . S
C897 C895 1.389 . S
C897 C898 1.524 . S
C898 C897 1.524 . S
C898 C899 1.397 . S
C898 C903 1.363 . S
C899 H870 0.950 . S
C899 C898 1.397 . S
C899 C900 1.334 . S
C900 H871 0.950 . S
C900 C899 1.334 . S
C900 C901 1.287 . S
C901 C900 1.287 . S
C901 C902 1.524 . S
C901 H904 0.999 . S
C902 H872 0.950 . S
C902 C901 1.524 . S
C902 C903 1.415 . S
C903 H873 0.950 . S
C903 C898 1.363 . S
C903 C902 1.415 . S
H904 C901 0.999 . S
H905 C886 0.913 . S
H906 C924 0.951 . S
H907 C926 0.951 . S
H908 C928 0.950 . S
H909 C929 0.950 . S
H910 C931 0.950 . S
H911 C934 0.950 . S
H912 C935 0.950 . S
H913 C937 0.950 . S
H914 C938 0.950 . S
H915 C939 0.951 . S
H916 C941 0.951 . S
H917 C943 0.950 . S
H918 C944 0.950 . S
H919 C946 0.950 . S
H920 C949 0.950 . S
H921 C950 0.950 . S
H922 C952 0.950 . S
H923 C953 0.950 . S
C924 H906 0.951 . S
C924 C925 1.366 . S
C924 C926 1.388 . S
C925 C924 1.366 . S
C925 C929 1.385 . S
C926 H907 0.951 . S
C926 C924 1.388 . S
C926 C927 1.366 . S
C927 C926 1.366 . S
C927 C928 1.414 . S
C927 C930 1.499 . S
C928 H908 0.950 . S
C928 C927 1.414 . S
C928 C929 1.374 . S
C929 H909 0.950 . S
C929 C925 1.385 . S
C929 C928 1.374 . S
C930 C927 1.499 . S
C930 C931 1.373 . S
C930 C932 1.389 . S
C931 H910 0.950 . S
C931 C930 1.373 . S
C931 C947 1.377 . S
C932 C930 1.389 . S
C932 C933 1.524 . S
C932 C946 1.377 . S
C933 C932 1.524 . S
C933 C934 1.397 . S
C933 C938 1.363 . S
C934 H911 0.950 . S
C934 C933 1.397 . S
C934 C935 1.334 . S
C935 H912 0.950 . S
C935 C934 1.334 . S
C935 C936 1.287 . S
C936 C935 1.287 . S
C936 C937 1.524 . S
C936 H955 0.913 . S
C937 H913 0.950 . S
C937 C936 1.524 . S
C937 C938 1.415 . S
C938 H914 0.950 . S
C938 C933 1.363 . S
C938 C937 1.415 . S
C939 H915 0.951 . S
C939 C940 1.366 . S
C939 C941 1.388 . S
C940 C939 1.366 . S
C940 C944 1.385 . S
C941 H916 0.951 . S
C941 C939 1.388 . S
C941 C942 1.366 . S
C942 C941 1.366 . S
C942 C943 1.414 . S
C942 C945 1.499 . S
C943 H917 0.950 . S
C943 C942 1.414 . S
C943 C944 1.374 . S
C944 H918 0.950 . S
C944 C940 1.385 . S
C944 C943 1.374 . S
C945 C942 1.499 . S
C945 C946 1.373 . S
C945 C947 1.389 . S
C946 H919 0.950 . S
C946 C932 1.377 . S
C946 C945 1.373 . S
C947 C931 1.377 . S
C947 C945 1.389 . S
C947 C948 1.524 . S
C948 C947 1.524 . S
C948 C949 1.397 . S
C948 C953 1.363 . S
C949 H920 0.950 . S
C949 C948 1.397 . S
C949 C950 1.334 . S
C950 H921 0.950 . S
C950 C949 1.334 . S
C950 C951 1.287 . S
C951 C950 1.287 . S
C951 C952 1.524 . S
C951 H954 0.999 . S
C952 H922 0.950 . S
C952 C951 1.524 . S
C952 C953 1.415 . S
C953 H923 0.950 . S
C953 C948 1.363 . S
C953 C952 1.415 . S
H954 C951 0.999 . S
H955 C936 0.913 . S
H956 C974 0.951 . S
H957 C976 0.951 . S
H958 C978 0.950 . S
H959 C979 0.950 . S
H960 C981 0.950 . S
H961 C984 0.950 . S
H962 C985 0.950 . S
H963 C987 0.950 . S
H964 C988 0.950 . S
H965 C989 0.951 . S
H966 C991 0.951 . S
H967 C993 0.950 . S
H968 C994 0.950 . S
H969 C996 0.950 . S
H970 C999 0.950 . S
H971 C1000 0.950 . S
H972 C1002 0.950 . S
H973 C1003 0.950 . S
C974 H956 0.951 . S
C974 C975 1.366 . S
C974 C976 1.388 . S
C975 C974 1.366 . S
C975 C979 1.385 . S
C976 H957 0.951 . S
C976 C974 1.388 . S
C976 C977 1.366 . S
C977 C976 1.366 . S
C977 C978 1.414 . S
C977 C980 1.499 . S
C978 H958 0.950 . S
C978 C977 1.414 . S
C978 C979 1.374 . S
C979 H959 0.950 . S
C979 C975 1.385 . S
C979 C978 1.374 . S
C980 C977 1.499 . S
C980 C981 1.373 . S
C980 C982 1.389 . S
C981 H960 0.950 . S
C981 C980 1.373 . S
C981 C997 1.377 . S
C982 C980 1.389 . S
C982 C983 1.524 . S
C982 C996 1.377 . S
C983 C982 1.524 . S
C983 C984 1.397 . S
C983 C988 1.363 . S
C984 H961 0.950 . S
C984 C983 1.397 . S
C984 C985 1.334 . S
C985 H962 0.950 . S
C985 C984 1.334 . S
C985 C986 1.287 . S
C986 C985 1.287 . S
C986 C987 1.524 . S
C986 H1005 0.913 . S
C987 H963 0.950 . S
C987 C986 1.524 . S
C987 C988 1.415 . S
C988 H964 0.950 . S
C988 C983 1.363 . S
C988 C987 1.415 . S
C989 H965 0.951 . S
C989 C990 1.366 . S
C989 C991 1.388 . S
C990 C989 1.366 . S
C990 C994 1.385 . S
C991 H966 0.951 . S
C991 C989 1.388 . S
C991 C992 1.366 . S
C992 C991 1.366 . S
C992 C993 1.414 . S
C992 C995 1.499 . S
C993 H967 0.950 . S
C993 C992 1.414 . S
C993 C994 1.374 . S
C994 H968 0.950 . S
C994 C990 1.385 . S
C994 C993 1.374 . S
C995 C992 1.499 . S
C995 C996 1.373 . S
C995 C997 1.389 . S
C996 H969 0.950 . S
C996 C982 1.377 . S
C996 C995 1.373 . S
C997 C981 1.377 . S
C997 C995 1.389 . S
C997 C998 1.524 . S
C998 C997 1.524 . S
C998 C999 1.397 . S
C998 C1003 1.363 . S
C999 H970 0.950 . S
C999 C998 1.397 . S
C999 C1000 1.334 . S
C1000 H971 0.950 . S
C1000 C999 1.334 . S
C1000 C1001 1.287 . S
C1001 C1000 1.287 . S
C1001 C1002 1.524 . S
C1001 H1004 0.999 . S
C1002 H972 0.950 . S
C1002 C1001 1.524 . S
C1002 C1003 1.415 . S
C1003 H973 0.950 . S
C1003 C998 1.363 . S
C1003 C1002 1.415 . S
H1004 C1001 0.999 . S
H1005 C986 0.913 . S
H1006 C1024 0.951 . S
H1007 C1026 0.951 . S
H1008 C1028 0.950 . S
H1009 C1029 0.950 . S
H1010 C1031 0.950 . S
H1011 C1034 0.950 . S
H1012 C1035 0.950 . S
H1013 C1037 0.950 . S
H1014 C1038 0.950 . S
H1015 C1039 0.951 . S
H1016 C1041 0.951 . S
H1017 C1043 0.950 . S
H1018 C1044 0.950 . S
H1019 C1046 0.950 . S
H1020 C1049 0.950 . S
H1021 C1050 0.950 . S
H1022 C1052 0.937 1_655 S
H1023 C1053 0.950 . S
C1024 H1006 0.951 . S
C1024 C1025 1.366 . S
C1024 C1026 1.388 . S
C1025 C1024 1.366 . S
C1025 C1029 1.385 . S
C1026 H1007 0.951 . S
C1026 C1024 1.388 . S
C1026 C1027 1.366 . S
C1027 C1026 1.366 . S
C1027 C1028 1.414 . S
C1027 C1030 1.499 . S
C1028 H1008 0.950 . S
C1028 C1027 1.414 . S
C1028 C1029 1.374 . S
C1029 H1009 0.950 . S
C1029 C1025 1.385 . S
C1029 C1028 1.374 . S
C1030 C1027 1.499 . S
C1030 C1031 1.373 . S
C1030 C1032 1.389 . S
C1031 H1010 0.950 . S
C1031 C1030 1.373 . S
C1031 C1047 1.377 . S
C1032 C1030 1.389 . S
C1032 C1033 1.524 . S
C1032 C1046 1.377 . S
C1033 C1032 1.524 . S
C1033 C1034 1.397 . S
C1033 C1038 1.363 . S
C1034 H1011 0.950 . S
C1034 C1033 1.397 . S
C1034 C1035 1.334 . S
C1035 H1012 0.950 . S
C1035 C1034 1.334 . S
C1035 C1036 1.287 . S
C1036 C1035 1.287 . S
C1036 C1037 1.524 . S
C1036 H1055 0.913 . S
C1037 H1013 0.950 . S
C1037 C1036 1.524 . S
C1037 C1038 1.415 . S
C1038 H1014 0.950 . S
C1038 C1033 1.363 . S
C1038 C1037 1.415 . S
C1039 H1015 0.951 . S
C1039 C1040 1.366 . S
C1039 C1041 1.388 . S
C1040 C1039 1.366 . S
C1040 C1044 1.385 . S
C1041 H1016 0.951 . S
C1041 C1039 1.388 . S
C1041 C1042 1.366 . S
C1042 C1041 1.366 . S
C1042 C1043 1.414 . S
C1042 C1045 1.499 . S
C1043 H1017 0.950 . S
C1043 C1042 1.414 . S
C1043 C1044 1.374 . S
C1044 H1018 0.950 . S
C1044 C1040 1.385 . S
C1044 C1043 1.374 . S
C1045 C1042 1.499 . S
C1045 C1046 1.373 . S
C1045 C1047 1.389 . S
C1046 H1019 0.950 . S
C1046 C1032 1.377 . S
C1046 C1045 1.373 . S
C1047 C1031 1.377 . S
C1047 C1045 1.389 . S
C1047 C1048 1.524 . S
C1048 C1047 1.524 . S
C1048 C1049 1.397 . S
C1048 C1053 1.363 . S
C1049 H1020 0.950 . S
C1049 C1048 1.397 . S
C1049 C1050 1.334 . S
C1050 H1021 0.950 . S
C1050 C1049 1.334 . S
C1050 C1051 1.287 . S
C1051 C1050 1.287 . S
C1051 C1052 1.524 . S
C1051 H1054 0.999 1_455 S
C1052 H1022 0.937 1_455 S
C1052 C1051 1.524 . S
C1052 C1053 1.429 . S
C1053 H1023 0.950 . S
C1053 C1048 1.363 . S
C1053 C1052 1.429 . S
H1054 C1051 0.999 1_655 S
H1055 C1036 0.913 . S
H1056 C1074 0.951 . S
H1057 C1076 0.951 . S
H1058 C1078 0.950 . S
H1059 C1079 0.950 . S
H1060 C1081 0.950 . S
H1061 C1084 0.950 . S
H1062 C1085 0.950 . S
H1063 C1087 0.950 . S
H1064 C1088 0.950 . S
H1065 C1089 0.951 . S
H1066 C1091 0.951 . S
H1067 C1093 0.950 . S
H1068 C1094 0.950 . S
H1069 C1096 0.950 . S
H1070 C1099 0.950 . S
H1071 C1100 0.950 . S
H1072 C1102 0.950 . S
H1073 C1103 0.950 . S
C1074 H1056 0.951 . S
C1074 C1075 1.366 . S
C1074 C1076 1.388 . S
C1075 C1074 1.366 . S
C1075 C1079 1.385 . S
C1076 H1057 0.951 . S
C1076 C1074 1.388 . S
C1076 C1077 1.366 . S
C1077 C1076 1.366 . S
C1077 C1078 1.414 . S
C1077 C1080 1.499 . S
C1078 H1058 0.950 . S
C1078 C1077 1.414 . S
C1078 C1079 1.374 . S
C1079 H1059 0.950 . S
C1079 C1075 1.385 . S
C1079 C1078 1.374 . S
C1080 C1077 1.499 . S
C1080 C1081 1.373 . S
C1080 C1082 1.389 . S
C1081 H1060 0.950 . S
C1081 C1080 1.373 . S
C1081 C1097 1.377 . S
C1082 C1080 1.389 . S
C1082 C1083 1.524 . S
C1082 C1096 1.377 . S
C1083 C1082 1.524 . S
C1083 C1084 1.397 . S
C1083 C1088 1.363 . S
C1084 H1061 0.950 . S
C1084 C1083 1.397 . S
C1084 C1085 1.334 . S
C1085 H1062 0.950 . S
C1085 C1084 1.334 . S
C1085 C1086 1.287 . S
C1086 C1085 1.287 . S
C1086 C1087 1.524 . S
C1086 H1105 0.913 . S
C1087 H1063 0.950 . S
C1087 C1086 1.524 . S
C1087 C1088 1.415 . S
C1088 H1064 0.950 . S
C1088 C1083 1.363 . S
C1088 C1087 1.415 . S
C1089 H1065 0.951 . S
C1089 C1090 1.366 . S
C1089 C1091 1.388 . S
C1090 C1089 1.366 . S
C1090 C1094 1.385 . S
C1091 H1066 0.951 . S
C1091 C1089 1.388 . S
C1091 C1092 1.366 . S
C1092 C1091 1.366 . S
C1092 C1093 1.414 . S
C1092 C1095 1.499 . S
C1093 H1067 0.950 . S
C1093 C1092 1.414 . S
C1093 C1094 1.374 . S
C1094 H1068 0.950 . S
C1094 C1090 1.385 . S
C1094 C1093 1.374 . S
C1095 C1092 1.499 . S
C1095 C1096 1.373 . S
C1095 C1097 1.389 . S
C1096 H1069 0.950 . S
C1096 C1082 1.377 . S
C1096 C1095 1.373 . S
C1097 C1081 1.377 . S
C1097 C1095 1.389 . S
C1097 C1098 1.524 . S
C1098 C1097 1.524 . S
C1098 C1099 1.397 . S
C1098 C1103 1.363 . S
C1099 H1070 0.950 . S
C1099 C1098 1.397 . S
C1099 C1100 1.334 . S
C1100 H1071 0.950 . S
C1100 C1099 1.334 . S
C1100 C1101 1.287 . S
C1101 C1100 1.287 . S
C1101 C1102 1.524 . S
C1101 H1104 0.999 . S
C1102 H1072 0.950 . S
C1102 C1101 1.524 . S
C1102 C1103 1.415 . S
C1103 H1073 0.950 . S
C1103 C1098 1.363 . S
C1103 C1102 1.415 . S
H1104 C1101 0.999 . S
H1105 C1086 0.913 . S
H1106 C1124 0.951 . S
H1107 C1126 0.951 . S
H1108 C1128 0.950 . S
H1109 C1129 0.950 . S
H1110 C1131 0.950 . S
H1111 C1134 0.950 . S
H1112 C1135 0.950 . S
H1113 C1137 0.950 . S
H1114 C1138 0.950 . S
H1115 C1139 0.951 . S
H1116 C1141 0.951 . S
H1117 C1143 0.950 . S
H1118 C1144 0.950 . S
H1119 C1146 0.950 . S
H1120 C1149 0.950 . S
H1121 C1150 0.950 . S
H1122 C1152 0.950 . S
H1123 C1153 0.950 . S
C1124 H1106 0.951 . S
C1124 C1125 1.366 . S
C1124 C1126 1.388 . S
C1125 C1124 1.366 . S
C1125 C1129 1.385 . S
C1126 H1107 0.951 . S
C1126 C1124 1.388 . S
C1126 C1127 1.366 . S
C1127 C1126 1.366 . S
C1127 C1128 1.414 . S
C1127 C1130 1.499 . S
C1128 H1108 0.950 . S
C1128 C1127 1.414 . S
C1128 C1129 1.374 . S
C1129 H1109 0.950 . S
C1129 C1125 1.385 . S
C1129 C1128 1.374 . S
C1130 C1127 1.499 . S
C1130 C1131 1.373 . S
C1130 C1132 1.389 . S
C1131 H1110 0.950 . S
C1131 C1130 1.373 . S
C1131 C1147 1.377 . S
C1132 C1130 1.389 . S
C1132 C1133 1.524 . S
C1132 C1146 1.377 . S
C1133 C1132 1.524 . S
C1133 C1134 1.397 . S
C1133 C1138 1.363 . S
C1134 H1111 0.950 . S
C1134 C1133 1.397 . S
C1134 C1135 1.334 . S
C1135 H1112 0.950 . S
C1135 C1134 1.334 . S
C1135 C1136 1.287 . S
C1136 C1135 1.287 . S
C1136 C1137 1.524 . S
C1136 H1155 0.913 . S
C1137 H1113 0.950 . S
C1137 C1136 1.524 . S
C1137 C1138 1.415 . S
C1138 H1114 0.950 . S
C1138 C1133 1.363 . S
C1138 C1137 1.415 . S
C1139 H1115 0.951 . S
C1139 C1140 1.366 . S
C1139 C1141 1.388 . S
C1140 C1139 1.366 . S
C1140 C1144 1.385 . S
C1141 H1116 0.951 . S
C1141 C1139 1.388 . S
C1141 C1142 1.366 . S
C1142 C1141 1.366 . S
C1142 C1143 1.414 . S
C1142 C1145 1.499 . S
C1143 H1117 0.950 . S
C1143 C1142 1.414 . S
C1143 C1144 1.374 . S
C1144 H1118 0.950 . S
C1144 C1140 1.385 . S
C1144 C1143 1.374 . S
C1145 C1142 1.499 . S
C1145 C1146 1.373 . S
C1145 C1147 1.389 . S
C1146 H1119 0.950 . S
C1146 C1132 1.377 . S
C1146 C1145 1.373 . S
C1147 C1131 1.377 . S
C1147 C1145 1.389 . S
C1147 C1148 1.524 . S
C1148 C1147 1.524 . S
C1148 C1149 1.397 . S
C1148 C1153 1.363 . S
C1149 H1120 0.950 . S
C1149 C1148 1.397 . S
C1149 C1150 1.334 . S
C1150 H1121 0.950 . S
C1150 C1149 1.334 . S
C1150 C1151 1.287 . S
C1151 C1150 1.287 . S
C1151 C1152 1.524 . S
C1151 H1154 0.999 . S
C1152 H1122 0.950 . S
C1152 C1151 1.524 . S
C1152 C1153 1.415 . S
C1153 H1123 0.950 . S
C1153 C1148 1.363 . S
C1153 C1152 1.415 . S
H1154 C1151 0.999 . S
H1155 C1136 0.913 . S
H1156 C1174 0.951 . S
H1157 C1176 0.951 . S
H1158 C1178 0.950 . S
H1159 C1179 0.950 . S
H1160 C1181 0.950 . S
H1161 C1184 0.950 . S
H1162 C1185 0.950 . S
H1163 C1187 0.950 . S
H1164 C1188 0.950 . S
H1165 C1189 0.951 . S
H1166 C1191 0.951 . S
H1167 C1193 0.950 . S
H1168 C1194 0.950 . S
H1169 C1196 0.950 . S
H1170 C1199 0.950 . S
H1171 C1200 0.950 . S
H1172 C1202 0.950 1_556 S
H1173 C1203 0.950 . S
C1174 H1156 0.951 . S
C1174 C1175 1.366 . S
C1174 C1176 1.388 . S
C1175 C1174 1.366 . S
C1175 C1179 1.385 . S
C1176 H1157 0.951 . S
C1176 C1174 1.388 . S
C1176 C1177 1.366 . S
C1177 C1176 1.366 . S
C1177 C1178 1.414 . S
C1177 C1180 1.499 . S
C1178 H1158 0.950 . S
C1178 C1177 1.414 . S
C1178 C1179 1.374 . S
C1179 H1159 0.950 . S
C1179 C1175 1.385 . S
C1179 C1178 1.374 . S
C1180 C1177 1.499 . S
C1180 C1181 1.373 . S
C1180 C1182 1.389 . S
C1181 H1160 0.950 . S
C1181 C1180 1.373 . S
C1181 C1197 1.377 . S
C1182 C1180 1.389 . S
C1182 C1183 1.524 . S
C1182 C1196 1.377 . S
C1183 C1182 1.524 . S
C1183 C1184 1.397 . S
C1183 C1188 1.363 . S
C1184 H1161 0.950 . S
C1184 C1183 1.397 . S
C1184 C1185 1.334 . S
C1185 H1162 0.950 . S
C1185 C1184 1.334 . S
C1185 C1186 1.287 . S
C1186 C1185 1.287 . S
C1186 C1187 1.524 . S
C1186 H1205 0.913 . S
C1187 H1163 0.950 . S
C1187 C1186 1.524 . S
C1187 C1188 1.415 . S
C1188 H1164 0.950 . S
C1188 C1183 1.363 . S
C1188 C1187 1.415 . S
C1189 H1165 0.951 . S
C1189 C1190 1.366 . S
C1189 C1191 1.388 . S
C1190 C1189 1.366 . S
C1190 C1194 1.385 . S
C1191 H1166 0.951 . S
C1191 C1189 1.388 . S
C1191 C1192 1.366 . S
C1192 C1191 1.366 . S
C1192 C1193 1.414 . S
C1192 C1195 1.499 . S
C1193 H1167 0.950 . S
C1193 C1192 1.414 . S
C1193 C1194 1.374 . S
C1194 H1168 0.950 . S
C1194 C1190 1.385 . S
C1194 C1193 1.374 . S
C1195 C1192 1.499 . S
C1195 C1196 1.373 . S
C1195 C1197 1.389 . S
C1196 H1169 0.950 . S
C1196 C1182 1.377 . S
C1196 C1195 1.373 . S
C1197 C1181 1.377 . S
C1197 C1195 1.389 . S
C1197 C1198 1.524 . S
C1198 C1197 1.524 . S
C1198 C1199 1.397 . S
C1198 C1203 1.363 . S
C1199 H1170 0.950 . S
C1199 C1198 1.397 . S
C1199 C1200 1.334 . S
C1200 H1171 0.950 . S
C1200 C1199 1.334 . S
C1200 C1201 1.287 . S
C1201 C1200 1.287 . S
C1201 C1202 1.524 . S
C1201 H1204 0.999 1_554 S
C1202 H1172 0.950 1_554 S
C1202 C1201 1.524 . S
C1202 C1203 1.415 . S
C1203 H1173 0.950 . S
C1203 C1198 1.363 . S
C1203 C1202 1.415 . S
H1204 C1201 0.999 1_556 S
H1205 C1186 0.913 . S
H1206 C1224 0.951 . S
H1207 C1226 0.951 . S
H1208 C1228 0.950 . S
H1209 C1229 0.950 . S
H1210 C1231 0.950 . S
H1211 C1234 0.950 . S
H1212 C1235 0.950 . S
H1213 C1237 0.950 . S
H1214 C1238 0.950 . S
H1215 C1239 0.951 . S
H1216 C1241 0.951 . S
H1217 C1243 0.950 . S
H1218 C1244 0.950 . S
H1219 C1246 0.950 . S
H1220 C1249 0.950 . S
H1221 C1250 0.950 . S
H1222 C1252 0.950 . S
H1223 C1253 0.950 . S
C1224 H1206 0.951 . S
C1224 C1225 1.366 . S
C1224 C1226 1.388 . S
C1225 C1224 1.366 . S
C1225 C1229 1.385 . S
C1226 H1207 0.951 . S
C1226 C1224 1.388 . S
C1226 C1227 1.366 . S
C1227 C1226 1.366 . S
C1227 C1228 1.414 . S
C1227 C1230 1.499 . S
C1228 H1208 0.950 . S
C1228 C1227 1.414 . S
C1228 C1229 1.374 . S
C1229 H1209 0.950 . S
C1229 C1225 1.385 . S
C1229 C1228 1.374 . S
C1230 C1227 1.499 . S
C1230 C1231 1.373 . S
C1230 C1232 1.389 . S
C1231 H1210 0.950 . S
C1231 C1230 1.373 . S
C1231 C1247 1.377 . S
C1232 C1230 1.389 . S
C1232 C1233 1.524 . S
C1232 C1246 1.377 . S
C1233 C1232 1.524 . S
C1233 C1234 1.397 . S
C1233 C1238 1.363 . S
C1234 H1211 0.950 . S
C1234 C1233 1.397 . S
C1234 C1235 1.334 . S
C1235 H1212 0.950 . S
C1235 C1234 1.334 . S
C1235 C1236 1.287 . S
C1236 C1235 1.287 . S
C1236 C1237 1.524 . S
C1236 H1255 0.913 . S
C1237 H1213 0.950 . S
C1237 C1236 1.524 . S
C1237 C1238 1.415 . S
C1238 H1214 0.950 . S
C1238 C1233 1.363 . S
C1238 C1237 1.415 . S
C1239 H1215 0.951 . S
C1239 C1240 1.366 . S
C1239 C1241 1.388 . S
C1240 C1239 1.366 . S
C1240 C1244 1.385 . S
C1241 H1216 0.951 . S
C1241 C1239 1.388 . S
C1241 C1242 1.366 . S
C1242 C1241 1.366 . S
C1242 C1243 1.414 . S
C1242 C1245 1.499 . S
C1243 H1217 0.950 . S
C1243 C1242 1.414 . S
C1243 C1244 1.374 . S
C1244 H1218 0.950 . S
C1244 C1240 1.385 . S
C1244 C1243 1.374 . S
C1245 C1242 1.499 . S
C1245 C1246 1.373 . S
C1245 C1247 1.389 . S
C1246 H1219 0.950 . S
C1246 C1232 1.377 . S
C1246 C1245 1.373 . S
C1247 C1231 1.377 . S
C1247 C1245 1.389 . S
C1247 C1248 1.524 . S
C1248 C1247 1.524 . S
C1248 C1249 1.397 . S
C1248 C1253 1.363 . S
C1249 H1220 0.950 . S
C1249 C1248 1.397 . S
C1249 C1250 1.334 . S
C1250 H1221 0.950 . S
C1250 C1249 1.334 . S
C1250 C1251 1.287 . S
C1251 C1250 1.287 . S
C1251 C1252 1.524 . S
C1251 H1254 0.999 . S
C1252 H1222 0.950 . S
C1252 C1251 1.524 . S
C1252 C1253 1.415 . S
C1253 H1223 0.950 . S
C1253 C1248 1.363 . S
C1253 C1252 1.415 . S
H1254 C1251 0.999 . S
H1255 C1236 0.913 . S
H1256 C1274 0.951 . S
H1257 C1276 0.951 . S
H1258 C1278 0.950 . S
H1259 C1279 0.950 . S
H1260 C1281 0.950 . S
H1261 C1284 0.950 . S
H1262 C1285 0.950 . S
H1263 C1287 0.950 . S
H1264 C1288 0.950 . S
H1265 C1289 0.951 . S
H1266 C1291 0.951 . S
H1267 C1293 0.950 . S
H1268 C1294 0.950 . S
H1269 C1296 0.950 . S
H1270 C1299 0.950 . S
H1271 C1300 0.950 . S
H1272 C1302 0.950 . S
H1273 C1303 0.950 . S
C1274 H1256 0.951 . S
C1274 C1275 1.366 . S
C1274 C1276 1.388 . S
C1275 C1274 1.366 . S
C1275 C1279 1.385 . S
C1276 H1257 0.951 . S
C1276 C1274 1.388 . S
C1276 C1277 1.366 . S
C1277 C1276 1.366 . S
C1277 C1278 1.414 . S
C1277 C1280 1.499 . S
C1278 H1258 0.950 . S
C1278 C1277 1.414 . S
C1278 C1279 1.374 . S
C1279 H1259 0.950 . S
C1279 C1275 1.385 . S
C1279 C1278 1.374 . S
C1280 C1277 1.499 . S
C1280 C1281 1.373 . S
C1280 C1282 1.389 . S
C1281 H1260 0.950 . S
C1281 C1280 1.373 . S
C1281 C1297 1.377 . S
C1282 C1280 1.389 . S
C1282 C1283 1.524 . S
C1282 C1296 1.377 . S
C1283 C1282 1.524 . S
C1283 C1284 1.397 . S
C1283 C1288 1.363 . S
C1284 H1261 0.950 . S
C1284 C1283 1.397 . S
C1284 C1285 1.334 . S
C1285 H1262 0.950 . S
C1285 C1284 1.334 . S
C1285 C1286 1.287 . S
C1286 C1285 1.287 . S
C1286 C1287 1.524 . S
C1286 H1305 0.913 . S
C1287 H1263 0.950 . S
C1287 C1286 1.524 . S
C1287 C1288 1.415 . S
C1288 H1264 0.950 . S
C1288 C1283 1.363 . S
C1288 C1287 1.415 . S
C1289 H1265 0.951 . S
C1289 C1290 1.366 . S
C1289 C1291 1.388 . S
C1290 C1289 1.366 . S
C1290 C1294 1.385 . S
C1291 H1266 0.951 . S
C1291 C1289 1.388 . S
C1291 C1292 1.366 . S
C1292 C1291 1.366 . S
C1292 C1293 1.414 . S
C1292 C1295 1.499 . S
C1293 H1267 0.950 . S
C1293 C1292 1.414 . S
C1293 C1294 1.374 . S
C1294 H1268 0.950 . S
C1294 C1290 1.385 . S
C1294 C1293 1.374 . S
C1295 C1292 1.499 . S
C1295 C1296 1.373 . S
C1295 C1297 1.389 . S
C1296 H1269 0.950 . S
C1296 C1282 1.377 . S
C1296 C1295 1.373 . S
C1297 C1281 1.377 . S
C1297 C1295 1.389 . S
C1297 C1298 1.524 . S
C1298 C1297 1.524 . S
C1298 C1299 1.397 . S
C1298 C1303 1.363 . S
C1299 H1270 0.950 . S
C1299 C1298 1.397 . S
C1299 C1300 1.334 . S
C1300 H1271 0.950 . S
C1300 C1299 1.334 . S
C1300 C1301 1.287 . S
C1301 C1300 1.287 . S
C1301 C1302 1.524 . S
C1301 H1304 0.999 . S
C1302 H1272 0.950 . S
C1302 C1301 1.524 . S
C1302 C1303 1.415 . S
C1303 H1273 0.950 . S
C1303 C1298 1.363 . S
C1303 C1302 1.415 . S
H1304 C1301 0.999 . S
H1305 C1286 0.913 . S
H1306 C1324 0.951 . S
H1307 C1326 0.951 . S
H1308 C1328 0.950 . S
H1309 C1329 0.950 . S
H1310 C1331 0.950 . S
H1311 C1334 0.950 . S
H1312 C1335 0.950 . S
H1313 C1337 0.950 . S
H1314 C1338 0.950 . S
H1315 C1339 0.951 . S
H1316 C1341 0.951 . S
H1317 C1343 0.950 . S
H1318 C1344 0.950 . S
H1319 C1346 0.950 . S
H1320 C1349 0.950 . S
H1321 C1350 0.950 . S
H1322 C1352 0.950 . S
H1323 C1353 0.950 . S
C1324 H1306 0.951 . S
C1324 C1325 1.366 . S
C1324 C1326 1.388 . S
C1325 C1324 1.366 . S
C1325 C1329 1.385 . S
C1326 H1307 0.951 . S
C1326 C1324 1.388 . S
C1326 C1327 1.366 . S
C1327 C1326 1.366 . S
C1327 C1328 1.414 . S
C1327 C1330 1.499 . S
C1328 H1308 0.950 . S
C1328 C1327 1.414 . S
C1328 C1329 1.374 . S
C1329 H1309 0.950 . S
C1329 C1325 1.385 . S
C1329 C1328 1.374 . S
C1330 C1327 1.499 . S
C1330 C1331 1.373 . S
C1330 C1332 1.389 . S
C1331 H1310 0.950 . S
C1331 C1330 1.373 . S
C1331 C1347 1.377 . S
C1332 C1330 1.389 . S
C1332 C1333 1.524 . S
C1332 C1346 1.377 . S
C1333 C1332 1.524 . S
C1333 C1334 1.397 . S
C1333 C1338 1.363 . S
C1334 H1311 0.950 . S
C1334 C1333 1.397 . S
C1334 C1335 1.334 . S
C1335 H1312 0.950 . S
C1335 C1334 1.334 . S
C1335 C1336 1.287 . S
C1336 C1335 1.287 . S
C1336 C1337 1.524 . S
C1336 H1355 0.913 . S
C1337 H1313 0.950 . S
C1337 C1336 1.524 . S
C1337 C1338 1.415 . S
C1338 H1314 0.950 . S
C1338 C1333 1.363 . S
C1338 C1337 1.415 . S
C1339 H1315 0.951 . S
C1339 C1340 1.366 . S
C1339 C1341 1.388 . S
C1340 C1339 1.366 . S
C1340 C1344 1.385 . S
C1341 H1316 0.951 . S
C1341 C1339 1.388 . S
C1341 C1342 1.366 . S
C1342 C1341 1.366 . S
C1342 C1343 1.414 . S
C1342 C1345 1.499 . S
C1343 H1317 0.950 . S
C1343 C1342 1.414 . S
C1343 C1344 1.374 . S
C1344 H1318 0.950 . S
C1344 C1340 1.385 . S
C1344 C1343 1.374 . S
C1345 C1342 1.499 . S
C1345 C1346 1.373 . S
C1345 C1347 1.389 . S
C1346 H1319 0.950 . S
C1346 C1332 1.377 . S
C1346 C1345 1.373 . S
C1347 C1331 1.377 . S
C1347 C1345 1.389 . S
C1347 C1348 1.524 . S
C1348 C1347 1.524 . S
C1348 C1349 1.397 . S
C1348 C1353 1.363 . S
C1349 H1320 0.950 . S
C1349 C1348 1.397 . S
C1349 C1350 1.334 . S
C1350 H1321 0.950 . S
C1350 C1349 1.334 . S
C1350 C1351 1.287 . S
C1351 C1350 1.287 . S
C1351 C1352 1.524 . S
C1351 H1354 0.999 . S
C1352 H1322 0.950 . S
C1352 C1351 1.524 . S
C1352 C1353 1.415 . S
C1353 H1323 0.950 . S
C1353 C1348 1.363 . S
C1353 C1352 1.415 . S
H1354 C1351 0.999 . S
H1355 C1336 0.913 . S
H1356 C1374 0.951 . S
H1357 C1376 0.951 . S
H1358 C1378 0.950 . S
H1359 C1379 0.950 . S
H1360 C1381 0.950 . S
H1361 C1384 0.950 . S
H1362 C1385 0.950 . S
H1363 C1387 0.950 . S
H1364 C1388 0.950 . S
H1365 C1389 0.951 . S
H1366 C1391 0.951 . S
H1367 C1393 0.950 . S
H1368 C1394 0.950 . S
H1369 C1396 0.950 . S
H1370 C1399 0.950 . S
H1371 C1400 0.950 . S
H1372 C1402 0.950 . S
H1373 C1403 0.950 . S
C1374 H1356 0.951 . S
C1374 C1375 1.366 . S
C1374 C1376 1.388 . S
C1375 C1374 1.366 . S
C1375 C1379 1.385 . S
C1376 H1357 0.951 . S
C1376 C1374 1.388 . S
C1376 C1377 1.366 . S
C1377 C1376 1.366 . S
C1377 C1378 1.414 . S
C1377 C1380 1.499 . S
C1378 H1358 0.950 . S
C1378 C1377 1.414 . S
C1378 C1379 1.374 . S
C1379 H1359 0.950 . S
C1379 C1375 1.385 . S
C1379 C1378 1.374 . S
C1380 C1377 1.499 . S
C1380 C1381 1.373 . S
C1380 C1382 1.389 . S
C1381 H1360 0.950 . S
C1381 C1380 1.373 . S
C1381 C1397 1.377 . S
C1382 C1380 1.389 . S
C1382 C1383 1.524 . S
C1382 C1396 1.377 . S
C1383 C1382 1.524 . S
C1383 C1384 1.397 . S
C1383 C1388 1.363 . S
C1384 H1361 0.950 . S
C1384 C1383 1.397 . S
C1384 C1385 1.334 . S
C1385 H1362 0.950 . S
C1385 C1384 1.334 . S
C1385 C1386 1.287 . S
C1386 C1385 1.287 . S
C1386 C1387 1.524 . S
C1386 H1405 0.913 . S
C1387 H1363 0.950 . S
C1387 C1386 1.524 . S
C1387 C1388 1.415 . S
C1388 H1364 0.950 . S
C1388 C1383 1.363 . S
C1388 C1387 1.415 . S
C1389 H1365 0.951 . S
C1389 C1390 1.366 . S
C1389 C1391 1.388 . S
C1390 C1389 1.366 . S
C1390 C1394 1.385 . S
C1391 H1366 0.951 . S
C1391 C1389 1.388 . S
C1391 C1392 1.366 . S
C1392 C1391 1.366 . S
C1392 C1393 1.414 . S
C1392 C1395 1.499 . S
C1393 H1367 0.950 . S
C1393 C1392 1.414 . S
C1393 C1394 1.374 . S
C1394 H1368 0.950 . S
C1394 C1390 1.385 . S
C1394 C1393 1.374 . S
C1395 C1392 1.499 . S
C1395 C1396 1.373 . S
C1395 C1397 1.389 . S
C1396 H1369 0.950 . S
C1396 C1382 1.377 . S
C1396 C1395 1.373 . S
C1397 C1381 1.377 . S
C1397 C1395 1.389 . S
C1397 C1398 1.524 . S
C1398 C1397 1.524 . S
C1398 C1399 1.397 . S
C1398 C1403 1.363 . S
C1399 H1370 0.950 . S
C1399 C1398 1.397 . S
C1399 C1400 1.334 . S
C1400 H1371 0.950 . S
C1400 C1399 1.334 . S
C1400 C1401 1.269 1_455 S
C1401 C1400 1.269 1_655 S
C1401 C1402 1.531 . S
C1401 H1404 1.014 . S
C1402 H1372 0.950 . S
C1402 C1401 1.531 . S
C1402 C1403 1.415 1_655 S
C1403 H1373 0.950 . S
C1403 C1398 1.363 . S
C1403 C1402 1.415 1_455 S
H1404 C1401 1.014 . S
H1405 C1386 0.913 . S
H1406 C1424 0.951 . S
H1407 C1426 0.951 . S
H1408 C1428 0.950 . S
H1409 C1429 0.950 . S
H1410 C1431 0.950 . S
H1411 C1434 0.950 . S
H1412 C1435 0.950 . S
H1413 C1437 0.950 . S
H1414 C1438 0.950 . S
H1415 C1439 0.951 . S
H1416 C1441 0.951 . S
H1417 C1443 0.950 . S
H1418 C1444 0.950 . S
H1419 C1446 0.950 . S
H1420 C1449 0.950 . S
H1421 C1450 0.950 . S
H1422 C1452 0.950 . S
H1423 C1453 0.950 . S
C1424 H1406 0.951 . S
C1424 C1425 1.366 . S
C1424 C1426 1.388 . S
C1425 C1424 1.366 . S
C1425 C1429 1.385 . S
C1426 H1407 0.951 . S
C1426 C1424 1.388 . S
C1426 C1427 1.366 . S
C1427 C1426 1.366 . S
C1427 C1428 1.414 . S
C1427 C1430 1.499 . S
C1428 H1408 0.950 . S
C1428 C1427 1.414 . S
C1428 C1429 1.374 . S
C1429 H1409 0.950 . S
C1429 C1425 1.385 . S
C1429 C1428 1.374 . S
C1430 C1427 1.499 . S
C1430 C1431 1.373 . S
C1430 C1432 1.389 . S
C1431 H1410 0.950 . S
C1431 C1430 1.373 . S
C1431 C1447 1.377 . S
C1432 C1430 1.389 . S
C1432 C1433 1.524 . S
C1432 C1446 1.377 . S
C1433 C1432 1.524 . S
C1433 C1434 1.397 . S
C1433 C1438 1.363 . S
C1434 H1411 0.950 . S
C1434 C1433 1.397 . S
C1434 C1435 1.334 . S
C1435 H1412 0.950 . S
C1435 C1434 1.334 . S
C1435 C1436 1.287 . S
C1436 C1435 1.287 . S
C1436 C1437 1.524 . S
C1436 H1455 0.913 . S
C1437 H1413 0.950 . S
C1437 C1436 1.524 . S
C1437 C1438 1.415 . S
C1438 H1414 0.950 . S
C1438 C1433 1.363 . S
C1438 C1437 1.415 . S
C1439 H1415 0.951 . S
C1439 C1440 1.366 . S
C1439 C1441 1.388 . S
C1440 C1439 1.366 . S
C1440 C1444 1.385 . S
C1441 H1416 0.951 . S
C1441 C1439 1.388 . S
C1441 C1442 1.366 . S
C1442 C1441 1.366 . S
C1442 C1443 1.414 . S
C1442 C1445 1.499 . S
C1443 H1417 0.950 . S
C1443 C1442 1.414 . S
C1443 C1444 1.374 . S
C1444 H1418 0.950 . S
C1444 C1440 1.385 . S
C1444 C1443 1.374 . S
C1445 C1442 1.499 . S
C1445 C1446 1.373 . S
C1445 C1447 1.389 . S
C1446 H1419 0.950 . S
C1446 C1432 1.377 . S
C1446 C1445 1.373 . S
C1447 C1431 1.377 . S
C1447 C1445 1.389 . S
C1447 C1448 1.524 . S
C1448 C1447 1.524 . S
C1448 C1449 1.397 . S
C1448 C1453 1.363 . S
C1449 H1420 0.950 . S
C1449 C1448 1.397 . S
C1449 C1450 1.334 . S
C1450 H1421 0.950 . S
C1450 C1449 1.334 . S
C1450 C1451 1.287 . S
C1451 C1450 1.287 . S
C1451 C1452 1.524 . S
C1451 H1454 0.999 . S
C1452 H1422 0.950 . S
C1452 C1451 1.524 . S
C1452 C1453 1.415 . S
C1453 H1423 0.950 . S
C1453 C1448 1.363 . S
C1453 C1452 1.415 . S
H1454 C1451 0.999 . S
H1455 C1436 0.913 . S
C275 C6 1.078 . S
C290 C102 1.101 . S
C325 C18 1.287 . S
C340 C151 1.276 . S
C390 C186 2.572 . S
C375 C28 2.609 . S
C425 C40 1.613 . S
C440 C225 1.573 . S
C490 C146 2.488 . S
C475 C9 2.412 . S
C540 C105 0.876 . S
C525 C16 0.894 . S
C590 C235 1.841 . S
C575 C30 1.870 . S
C640 C194 1.134 . S
C625 C42 1.157 . S
C675 C4 1.516 . S
C690 C222 1.539 . S
C740 C154 2.510 . S
C725 C33 2.589 . S
C775 C45 2.042 . S
C790 C115 2.029 . S
C825 C21 0.945 . S
C840 C191 0.955 . S
C890 C111 1.120 . S
C875 C57 1.106 . S
C925 C66 1.304 . S
C940 C142 1.286 . S
C975 C76 2.661 . S
C990 C195 2.620 . S
C1025 C88 1.536 . S
C1040 C234 1.503 . S
C1075 C54 2.392 . S
C1090 C155 2.466 . S
C1140 C114 0.985 . S
C1125 C64 1.013 . S
C1190 C226 1.733 . S
C1175 C78 1.769 . S
C1240 C185 1.169 . S
C1225 C93 1.194 . S
C1275 C52 1.471 . S
C1290 C231 1.524 . S
C1340 C145 2.495 . S
C1325 C81 2.577 . S
C1390 C106 2.003 . S
C1375 C90 2.015 . S
C1425 C69 0.959 . S
C1440 C182 0.973 . S
