# Generated by pormake.
# Topology pyr, (3,6)-cn, num edge types: 1
# Building blocks:
#     Node 0, Type 0, BuildingBlock: ESEHIV_clean_linker_0, # of connection points: 3
#     Node 1, Type 0, BuildingBlock: ESEHIV_clean_linker_0, # of connection points: 3
#     Node 2, Type 0, BuildingBlock: ESEHIV_clean_linker_0, # of connection points: 3
#     Node 3, Type 0, BuildingBlock: ESEHIV_clean_linker_0, # of connection points: 3
#     Node 4, Type 0, BuildingBlock: ESEHIV_clean_linker_0, # of connection points: 3
#     Node 5, Type 0, BuildingBlock: ESEHIV_clean_linker_0, # of connection points: 3
#     Node 6, Type 0, BuildingBlock: ESEHIV_clean_linker_0, # of connection points: 3
#     Node 7, Type 0, BuildingBlock: ESEHIV_clean_linker_0, # of connection points: 3
#     Node 8, Type 1, BuildingBlock: LEVNOQ01_clean_sbu_1, # of connection points: 6
#     Node 9, Type 1, BuildingBlock: LEVNOQ01_clean_sbu_1, # of connection points: 6
#     Node 10, Type 1, BuildingBlock: LEVNOQ01_clean_sbu_1, # of connection points: 6
#     Node 11, Type 1, BuildingBlock: LEVNOQ01_clean_sbu_1, # of connection points: 6
#     Edge 12, Type (0, 1), BuildingBlock: EZIPEK_clean_linker_0, # of connection points: 2
#     Edge 13, Type (0, 1), BuildingBlock: EZIPEK_clean_linker_0, # of connection points: 2
#     Edge 14, Type (0, 1), BuildingBlock: EZIPEK_clean_linker_0, # of connection points: 2
#     Edge 15, Type (0, 1), BuildingBlock: EZIPEK_clean_linker_0, # of connection points: 2
#     Edge 16, Type (0, 1), BuildingBlock: EZIPEK_clean_linker_0, # of connection points: 2
#     Edge 17, Type (0, 1), BuildingBlock: EZIPEK_clean_linker_0, # of connection points: 2
#     Edge 18, Type (0, 1), BuildingBlock: EZIPEK_clean_linker_0, # of connection points: 2
#     Edge 19, Type (0, 1), BuildingBlock: EZIPEK_clean_linker_0, # of connection points: 2
#     Edge 20, Type (0, 1), BuildingBlock: EZIPEK_clean_linker_0, # of connection points: 2
#     Edge 21, Type (0, 1), BuildingBlock: EZIPEK_clean_linker_0, # of connection points: 2
#     Edge 22, Type (0, 1), BuildingBlock: EZIPEK_clean_linker_0, # of connection points: 2
#     Edge 23, Type (0, 1), BuildingBlock: EZIPEK_clean_linker_0, # of connection points: 2
#     Edge 24, Type (0, 1), BuildingBlock: EZIPEK_clean_linker_0, # of connection points: 2
#     Edge 25, Type (0, 1), BuildingBlock: EZIPEK_clean_linker_0, # of connection points: 2
#     Edge 26, Type (0, 1), BuildingBlock: EZIPEK_clean_linker_0, # of connection points: 2
#     Edge 27, Type (0, 1), BuildingBlock: EZIPEK_clean_linker_0, # of connection points: 2
#     Edge 28, Type (0, 1), BuildingBlock: EZIPEK_clean_linker_0, # of connection points: 2
#     Edge 29, Type (0, 1), BuildingBlock: EZIPEK_clean_linker_0, # of connection points: 2
#     Edge 30, Type (0, 1), BuildingBlock: EZIPEK_clean_linker_0, # of connection points: 2
#     Edge 31, Type (0, 1), BuildingBlock: EZIPEK_clean_linker_0, # of connection points: 2
#     Edge 32, Type (0, 1), BuildingBlock: EZIPEK_clean_linker_0, # of connection points: 2
#     Edge 33, Type (0, 1), BuildingBlock: EZIPEK_clean_linker_0, # of connection points: 2
#     Edge 34, Type (0, 1), BuildingBlock: EZIPEK_clean_linker_0, # of connection points: 2
#     Edge 35, Type (0, 1), BuildingBlock: EZIPEK_clean_linker_0, # of connection points: 2
# Relax obj value: 0.035
# Max RMSD: 0.110
# Mean RMSD: 0.045
data_MOF--net-pry--node1-LEVNOQ01_clean_sbu_1--node2-ESEHIV_clean_linker_0--edge1-EZIPEK_clean_linker_0
_symmetry_space_group_name_H-M    P1
_symmetry_Int_Tables_number       1
_symmetry_cell_setting            triclinic
loop_
_symmetry_equiv_pos_as_xyz
'x, y, z'
_cell_length_a     25.704399
_cell_length_b     24.543004
_cell_length_c     24.260856
_cell_angle_alpha  92.648819
_cell_angle_beta   91.077694
_cell_angle_gamma 92.813701
loop_
_atom_site_label
_atom_site_type_symbol
_atom_site_fract_x
_atom_site_fract_y
_atom_site_fract_z
_atom_type_partial_charge
H0 H 0.04791 0.16117 0.16372 0.0
H1 H 0.15964 0.03834 0.18226 0.0
H2 H 0.18745 0.16431 0.06756 0.0
C3 C 0.08385 0.14329 0.15127 0.0
C4 C 0.11522 0.16862 0.11157 0.0
C5 C 0.10048 0.09741 0.17808 0.0
C6 C 0.14659 0.07374 0.16179 0.0
C7 C 0.17707 0.09677 0.12076 0.0
C8 C 0.16204 0.14481 0.09675 0.0
H9 H 0.29727 0.97464 0.65498 0.0
H10 H 0.43448 0.88335 0.67304 0.0
H11 H 0.31182 0.8252 0.55876 0.0
C12 C 0.32071 0.94114 0.64159 0.0
C13 C 0.30089 0.90252 0.60117 0.0
C14 C 0.36734 0.93236 0.66998 0.0
C15 C 0.39773 0.88928 0.65201 0.0
C16 C 0.3778 0.8495 0.61265 0.0
C17 C 0.32901 0.85651 0.58744 0.0
H18 H 0.69585 0.30006 0.92928 0.0
H19 H 0.7084 0.43683 0.82548 0.0
H20 H 0.56894 0.33217 0.81917 0.0
C21 C 0.67924 0.32446 0.89782 0.0
C22 C 0.62904 0.31135 0.87676 0.0
C23 C 0.70692 0.37063 0.88107 0.0
C24 C 0.68615 0.40172 0.83979 0.0
C25 C 0.63723 0.38693 0.81608 0.0
C26 C 0.6079 0.34235 0.83557 0.0
H27 H 0.83701 0.65795 0.4564 0.0
H28 H 0.9604 0.60736 0.35149 0.0
H29 H 0.81178 0.51884 0.34346 0.0
C30 C 0.85249 0.62868 0.42693 0.0
C31 C 0.82053 0.58403 0.40692 0.0
C32 C 0.90277 0.63784 0.40655 0.0
C33 C 0.92161 0.60038 0.36748 0.0
C34 C 0.88778 0.56025 0.34165 0.0
C35 C 0.83791 0.55028 0.36299 0.0
H36 H 0.81489 0.92016 0.82619 0.0
H37 H 0.92004 0.79025 0.8345 0.0
H38 H 0.80707 0.81298 0.96186 0.0
C39 C 0.82946 0.88611 0.84779 0.0
C40 C 0.80516 0.86956 0.89602 0.0
C41 C 0.87 0.85711 0.82507 0.0
C42 C 0.88856 0.81256 0.85231 0.0
C43 C 0.86718 0.79701 0.90259 0.0
C44 C 0.82514 0.82575 0.92426 0.0
H45 H 0.56033 0.18303 0.34362 0.0
H46 H 0.67125 0.06005 0.36577 0.0
H47 H 0.66622 0.19566 0.48404 0.0
C48 C 0.59074 0.16622 0.36827 0.0
C49 C 0.60963 0.19469 0.41682 0.0
C50 C 0.61226 0.11714 0.35032 0.0
C51 C 0.65319 0.09674 0.38079 0.0
C52 C 0.67298 0.12521 0.42868 0.0
C53 C 0.65024 0.17326 0.44752 0.0
H54 H 0.34768 0.70841 0.0685 0.0
H55 H 0.2843 0.58101 0.16711 0.0
H56 H 0.41236 0.68721 0.22978 0.0
C57 C 0.34824 0.68632 0.10622 0.0
C58 C 0.38244 0.70389 0.14965 0.0
C59 C 0.3122 0.64282 0.11276 0.0
C60 C 0.31248 0.6146 0.16173 0.0
C61 C 0.35063 0.62812 0.20264 0.0
C62 C 0.38446 0.67422 0.19713 0.0
H63 H 0.04549 0.34056 0.64084 0.0
H64 H 0.14207 0.34176 0.50101 0.0
H65 H 0.17198 0.45946 0.63467 0.0
C66 C 0.07325 0.36376 0.61742 0.0
C67 C 0.09777 0.41333 0.63913 0.0
C68 C 0.08914 0.3382 0.5683 0.0
C69 C 0.12965 0.36193 0.53891 0.0
C70 C 0.16102 0.40416 0.5644 0.0
C71 C 0.14514 0.42947 0.61427 0.0
O72 O 0.94951 0.01052 0.64422 0.0
Mg73 Mg 0.0126 0.02586 0.59366 0.0
O74 O 0.95463 0.94283 0.58383 0.0
Mg75 Mg 0.9812 0.98552 0.50021 0.0
O76 O 0.00999 0.07599 0.52925 0.0
O77 O 0.03693 0.10185 0.61574 0.0
O78 O 0.00672 0.01645 0.41359 0.0
O79 O 0.89933 0.02529 0.49694 0.0
Mg80 Mg 0.90822 0.94195 0.41586 0.0
O81 O 0.95722 0.89901 0.464 0.0
O82 O 0.94546 0.9854 0.35348 0.0
O83 O 0.84152 0.97232 0.44974 0.0
O84 O 0.90078 0.86121 0.39973 0.0
C85 C 0.09252 0.95355 0.55124 0.0
C86 C 0.94023 0.96093 0.63102 0.0
C87 C 0.02813 0.11333 0.56526 0.0
C88 C 0.98815 0.01206 0.36418 0.0
C89 C 0.8525 0.01442 0.48006 0.0
C90 C 0.93649 0.85626 0.43702 0.0
O91 O 0.07812 0.97699 0.59549 0.0
O92 O 0.06396 0.95267 0.50773 0.0
O93 O 0.3894 0.09243 0.03019 0.0
Mg94 Mg 0.46823 0.0952 0.05025 0.0
O95 O 0.41132 0.01071 0.04822 0.0
Mg96 Mg 0.4984 0.00331 0.0114 0.0
O97 O 0.52233 0.09477 0.99057 0.0
O98 O 0.49002 0.17003 0.03119 0.0
O99 O 0.58364 0.98468 0.9776 0.0
O100 O 0.46061 0.00094 0.92186 0.0
Mg101 Mg 0.49791 0.88893 0.94934 0.0
O102 O 0.47939 0.91346 0.02729 0.0
O103 O 0.57774 0.89957 0.94132 0.0
O104 O 0.45076 0.91625 0.88651 0.0
O105 O 0.4723 0.82642 0.99476 0.0
C106 C 0.52693 0.0468 0.13923 0.0
C107 C 0.37625 0.04566 0.04502 0.0
C108 C 0.51994 0.1476 0.99574 0.0
C109 C 0.60456 0.94284 0.95502 0.0
C110 C 0.44492 0.96679 0.88311 0.0
C111 C 0.46882 0.86226 0.03502 0.0
O112 O 0.49618 0.08435 0.13092 0.0
O113 O 0.53603 0.01164 0.10057 0.0
O114 O 0.43341 0.60442 0.61464 0.0
Mg115 Mg 0.44726 0.52175 0.61579 0.0
O116 O 0.47948 0.61207 0.53927 0.0
Mg117 Mg 0.49086 0.51889 0.51496 0.0
O118 O 0.52154 0.49791 0.6037 0.0
O119 O 0.48227 0.50505 0.68606 0.0
O120 O 0.50192 0.42726 0.49269 0.0
O121 O 0.58378 0.5366 0.50429 0.0
Mg122 Mg 0.52793 0.52534 0.42578 0.0
O123 O 0.45187 0.53684 0.42729 0.0
O124 O 0.55768 0.446 0.42836 0.0
O125 O 0.57544 0.59685 0.44296 0.0
O126 O 0.49797 0.52839 0.3494 0.0
C127 C 0.37021 0.47446 0.55191 0.0
C128 C 0.45361 0.63364 0.57849 0.0
C129 C 0.52176 0.49247 0.65691 0.0
C130 C 0.53569 0.41154 0.4586 0.0
C131 C 0.60499 0.57232 0.47417 0.0
C132 C 0.45498 0.53714 0.37387 0.0
O133 O 0.38433 0.46727 0.60077 0.0
O134 O 0.40149 0.49701 0.51906 0.0
O135 O 0.09692 0.42035 0.07389 0.0
Mg136 Mg 0.06724 0.50004 0.08404 0.0
O137 O 0.03587 0.4019 0.01075 0.0
Mg138 Mg 0.01936 0.49448 0.00036 0.0
O139 O -0.01066 0.50417 0.09592 0.0
O140 O 0.05007 0.50847 0.16417 0.0
O141 O 0.00062 0.58834 0.99313 0.0
O142 O 0.92687 0.46858 0.99605 0.0
Mg143 Mg 0.98569 0.49078 0.93058 0.0
O144 O 0.05818 0.48292 0.90617 0.0
O145 O 0.93822 0.55969 0.93674 0.0
O146 O 0.94904 0.41158 0.93222 0.0
O147 O -0.00554 0.50173 0.84854 0.0
C148 C 0.13158 0.55843 0.02636 0.0
C149 C 0.07156 0.38562 0.04228 0.0
C150 C 0.00197 0.50812 0.14856 0.0
C151 C 0.96005 0.59869 0.96524 0.0
C152 C 0.91408 0.42852 0.96292 0.0
C153 C 0.04136 0.48881 0.85621 0.0
O154 O 0.11158 0.572 0.07134 0.0
O155 O 0.10898 0.52012 0.99697 0.0
C156 C 0.07177 0.10673 0.27695 0.0
C157 C 0.07155 0.07587 0.2259 0.0
C158 C 0.02518 0.00014 0.26924 0.0
C159 C 0.01823 0.03415 0.31748 0.0
N160 N 0.0273 0.12411 0.36259 0.0
N161 N 0.04049 -0.00391 0.17098 0.0
C162 C 0.0394 0.08874 0.32013 0.0
C163 C 0.04588 0.02344 0.22128 0.0
N164 N 0.10482 0.15174 0.28531 0.0
N165 N 0.01489 0.945 0.26999 0.0
H166 H 0.05501 0.01192 0.13484 0.0
H167 H 0.01747 0.96014 0.16443 0.0
H168 H 0.00304 0.92544 0.3052 0.0
H169 H 0.02401 0.91796 0.23763 0.0
H170 H 0.10981 0.17296 0.3234 0.0
H171 H 0.13172 0.16377 0.2561 0.0
H172 H 0.03783 0.1657 0.36344 0.0
H173 H 0.00237 0.11325 0.3941 0.0
C174 C 0.34854 0.95229 0.77063 0.0
C175 C 0.38074 0.96099 0.72426 0.0
C176 C 0.45217 -0.00374 0.78631 0.0
C177 C 0.42057 0.9846 0.83183 0.0
N178 N 0.33491 0.97482 0.8675 0.0
N179 N 0.45642 0.00681 0.68733 0.0
C180 C 0.36713 0.97131 0.82367 0.0
C181 C 0.43027 0.98883 0.732 0.0
N182 N 0.3029 0.92127 0.76556 0.0
N183 N 0.50367 0.011 0.79506 0.0
H184 H 0.44063 0.00184 0.64734 0.0
H185 H 0.49107 0.03068 0.69043 0.0
H186 H 0.51979 0.01834 0.83467 0.0
H187 H 0.53043 0.01394 0.76351 0.0
H188 H 0.28152 0.90931 0.7994 0.0
H189 H 0.28847 0.90286 0.7286 0.0
H190 H 0.2945 0.96932 0.86386 0.0
H191 H 0.34902 0.98982 0.90614 0.0
C192 C 0.61078 0.39191 0.71683 0.0
C193 C 0.61705 0.41786 0.77019 0.0
C194 C 0.58397 0.50121 0.73511 0.0
C195 C 0.56642 0.47136 0.68652 0.0
N196 N 0.5631 0.38765 0.62968 0.0
N197 N 0.60666 0.49676 0.83177 0.0
C198 C 0.58078 0.41682 0.67619 0.0
C199 C 0.60376 0.47283 0.7797 0.0
N200 N 0.63376 0.3438 0.70505 0.0
N201 N 0.58047 0.55662 0.73863 0.0
H202 H 0.61932 0.47678 0.86618 0.0
H203 H 0.59219 0.53482 0.84165 0.0
H204 H 0.56638 0.57806 0.70574 0.0
H205 H 0.59639 0.58137 0.77135 0.0
H206 H 0.63459 0.32564 0.66544 0.0
H207 H 0.65641 0.32476 0.73391 0.0
H208 H 0.56678 0.34573 0.62366 0.0
H209 H 0.54235 0.40464 0.59806 0.0
C210 C 0.89445 0.56332 0.2389 0.0
C211 C 0.9038 0.53538 0.28787 0.0
C212 C 0.96545 0.47894 0.23884 0.0
C213 C 0.96234 0.51267 0.19251 0.0
N214 N 0.92695 0.59089 0.15091 0.0
N215 N 0.94676 0.4662 0.33539 0.0
C216 C 0.92672 0.5551 0.19253 0.0
C217 C 0.93817 0.49232 0.2877 0.0
N218 N 0.85537 0.59891 0.23724 0.0
N219 N -0.00518 0.4341 0.23623 0.0
H220 H 0.92504 0.47306 0.37075 0.0
H221 H 0.97657 0.43966 0.34098 0.0
H222 H 0.01811 0.42491 0.20301 0.0
H223 H -0.00623 0.40413 0.26523 0.0
H224 H 0.84235 0.61581 0.20121 0.0
H225 H 0.83291 0.60792 0.27125 0.0
H226 H 0.90683 0.62671 0.15226 0.0
H227 H 0.95057 0.58782 0.11666 0.0
C228 C 0.23086 0.03461 0.06179 0.0
C229 C 0.22772 0.07339 0.10692 0.0
C230 C 0.32157 0.07022 0.12424 0.0
C231 C 0.32593 0.03992 0.07367 0.0
N232 N 0.2867 0.98271 0.00054 0.0
N233 N 0.26919 0.12792 0.18222 0.0
C234 C 0.28088 0.01833 0.04457 0.0
C235 C 0.27275 0.09044 0.1391 0.0
N236 N 0.18608 0.01407 0.03558 0.0
N237 N 0.36456 0.07907 0.15796 0.0
H238 H 0.23393 0.14286 0.19522 0.0
H239 H 0.30135 0.14684 0.2032 0.0
H240 H 0.40002 0.06266 0.14808 0.0
H241 H 0.36396 0.09712 0.1976 0.0
H242 H 0.18475 0.98452 0.00343 0.0
H243 H 0.14921 0.02554 0.04743 0.0
H244 H 0.25667 0.96757 0.97398 0.0
H245 H 0.32282 0.96703 0.99184 0.0
C246 C 0.20511 0.87712 0.60194 0.0
C247 C 0.24734 0.90706 0.57873 0.0
C248 C 0.18664 0.95988 0.52661 0.0
C249 C 0.14452 0.93077 0.55084 0.0
N250 N 0.11225 0.85313 0.59896 0.0
N251 N 0.27943 0.96619 0.50921 0.0
C252 C 0.15345 0.88633 0.58427 0.0
C253 C 0.23838 0.94485 0.5376 0.0
N254 N 0.21419 0.84211 0.64291 0.0
N255 N 0.17741 0.00397 0.49605 0.0
H256 H 0.31778 0.956 0.51676 0.0
H257 H 0.27516 0.99001 0.47516 0.0
H258 H 0.14002 0.01547 0.48597 0.0
H259 H 0.20669 0.03105 0.48321 0.0
H260 H 0.18483 0.82423 0.66605 0.0
H261 H 0.25146 0.83335 0.65641 0.0
H262 H 0.11625 0.81703 0.61919 0.0
H263 H 0.07404 0.85915 0.5861 0.0
C264 C 0.80117 0.38786 0.86806 0.0
C265 C 0.75927 0.38468 0.90445 0.0
C266 C 0.81936 0.40652 0.98285 0.0
C267 C 0.8595 0.4165 0.94498 0.0
N268 N 0.87924 0.44024 0.8515 0.0
N269 N 0.72618 0.40278 0.99596 0.0
C270 C 0.8479 0.41385 0.88743 0.0
C271 C 0.7675 0.39728 0.96197 0.0
N272 N 0.79673 0.36623 0.81515 0.0
N273 N 0.83059 0.40479 0.03794 0.0
H274 H 0.68771 0.39908 0.98151 0.0
H275 H 0.73024 0.4165 0.03718 0.0
H276 H 0.86832 0.41116 0.05432 0.0
H277 H 0.80311 0.39261 0.06652 0.0
H278 H 0.82844 0.365 0.78897 0.0
H279 H 0.76335 0.34437 0.79971 0.0
H280 H 0.87019 0.44175 0.80952 0.0
H281 H 0.90887 0.4679 0.86547 0.0
C282 C 0.75436 0.5694 0.48206 0.0
C283 C 0.76584 0.57877 0.42597 0.0
C284 C 0.67366 0.5696 0.40249 0.0
C285 C 0.66091 0.57038 0.45933 0.0
N286 N 0.69056 0.5762 0.5545 0.0
N287 N 0.73368 0.60661 0.33801 0.0
C288 C 0.70169 0.57143 0.49974 0.0
C289 C 0.72473 0.58442 0.38767 0.0
N290 N 0.79332 0.55761 0.51795 0.0
N291 N 0.63804 0.55215 0.36228 0.0
H292 H 0.76985 0.62404 0.32831 0.0
H293 H 0.70366 0.61467 0.31048 0.0
H294 H 0.60177 0.5344 0.37094 0.0
H295 H 0.64764 0.54791 0.32075 0.0
H296 H 0.78654 0.54557 0.55791 0.0
H297 H 0.83198 0.55522 0.50611 0.0
H298 H 0.71914 0.58251 0.58546 0.0
H299 H 0.65264 0.57826 0.5687 0.0
C300 C 0.10067 0.23302 0.03261 0.0
C301 C 0.10147 0.22291 0.09021 0.0
C302 C 0.06507 0.31167 0.10813 0.0
C303 C 0.0751 0.32674 0.05388 0.0
N304 N 0.10483 0.30181 0.9632 0.0
N305 N 0.09876 0.26322 0.18321 0.0
C306 C 0.09351 0.28736 0.0154 0.0
C307 C 0.08754 0.26517 0.12818 0.0
N308 N 0.10443 0.19084 0.99445 0.0
N309 N 0.0326 0.34092 0.14022 0.0
H310 H 0.12159 0.23356 0.1991 0.0
H311 H 0.0916 0.2953 0.21135 0.0
H312 H 0.01224 0.37283 0.12462 0.0
H313 H 0.021 0.3284 0.17885 0.0
H314 H 0.0999 0.19532 0.95217 0.0
H315 H 0.10661 0.15041 0.00534 0.0
H316 H 0.12326 0.27633 0.93499 0.0
H317 H 0.09851 0.34071 0.94957 0.0
C318 C 0.58992 0.2766 0.96102 0.0
C319 C 0.59768 0.26893 0.90373 0.0
C320 C 0.55343 0.17867 0.90456 0.0
C321 C 0.5526 0.18418 0.96314 0.0
N322 N 0.58596 0.23173 0.04692 0.0
N323 N 0.59538 0.20885 0.8219 0.0
C324 C 0.57604 0.23106 0.99133 0.0
C325 C 0.58204 0.21876 0.87552 0.0
N326 N 0.59452 0.32759 0.98621 0.0
N327 N 0.52507 0.13743 0.87647 0.0
H328 H 0.61628 0.23741 0.79939 0.0
H329 H 0.58932 0.17074 0.80141 0.0
H330 H 0.50227 0.10807 0.89584 0.0
H331 H 0.52056 0.13528 0.83363 0.0
H332 H 0.58551 0.33526 0.02749 0.0
H333 H 0.6012 0.3627 0.96417 0.0
H334 H 0.60664 0.26402 0.0682 0.0
H335 H 0.57901 0.19749 0.0702 0.0
C336 C 0.94939 0.72474 0.37688 0.0
C337 C 0.93149 0.69111 0.41985 0.0
C338 C 0.94212 0.76951 0.48585 0.0
C339 C 0.95713 0.80196 0.44183 0.0
N340 N 0.00054 0.80626 0.35575 0.0
N341 N 0.93067 0.67757 0.51791 0.0
C342 C 0.97153 0.77704 0.39163 0.0
C343 C 0.9351 0.71212 0.47559 0.0
N344 N 0.93899 0.71111 0.32236 0.0
N345 N 0.93127 0.79373 0.53574 0.0
H346 H 0.92672 0.63525 0.51097 0.0
H347 H 0.93601 0.69057 0.55921 0.0
H348 H 0.93783 0.83565 0.5439 0.0
H349 H 0.91438 0.77262 0.56769 0.0
H350 H 0.94861 0.73722 0.291 0.0
H351 H 0.9146 0.67815 0.30839 0.0
H352 H 0.01412 0.78898 0.31899 0.0
H353 H 0.01502 0.84596 0.3664 0.0
C354 C 0.40937 0.77518 0.54782 0.0
C355 C 0.40474 0.79742 0.60248 0.0
C356 C 0.45068 0.72002 0.63583 0.0
C357 C 0.44477 0.69287 0.58315 0.0
N358 N 0.40194 0.69063 0.49365 0.0
N359 N 0.40784 0.77921 0.70018 0.0
C360 C 0.42021 0.7194 0.53988 0.0
C361 C 0.42228 0.76704 0.64729 0.0
N362 N 0.40326 0.80668 0.5035 0.0
N363 N 0.48191 0.7 0.67546 0.0
H364 H 0.38106 0.80838 0.71028 0.0
H365 H 0.41694 0.75507 0.73294 0.0
H366 H 0.50402 0.66597 0.66786 0.0
H367 H 0.48985 0.72078 0.7134 0.0
H368 H 0.40924 0.79198 0.46317 0.0
H369 H 0.39797 0.84854 0.50771 0.0
H370 H 0.37821 0.70792 0.46451 0.0
H371 H 0.40467 0.6485 0.48837 0.0
C372 C 0.86304 0.86489 0.72214 0.0
C373 C 0.89254 0.87419 0.77216 0.0
C374 C 0.96019 0.92403 0.72261 0.0
C375 C 0.92641 0.9237 0.67556 0.0
N376 N 0.84591 0.89344 0.62911 0.0
N377 N 0.96797 0.91559 0.82133 0.0
C378 C 0.87812 0.89328 0.67453 0.0
C379 C 0.94116 0.90395 0.77265 0.0
N380 N 0.82112 0.82836 0.72023 0.0
N381 N 0.01092 0.94269 0.71901 0.0
H382 H 0.9557 0.90133 0.859 0.0
H383 H 0.00039 0.94277 0.82511 0.0
H384 H 0.02642 0.95662 0.68257 0.0
H385 H 0.03883 0.93895 0.75011 0.0
H386 H 0.80043 0.81618 0.6841 0.0
H387 H 0.81002 0.8063 0.7542 0.0
H388 H 0.80762 0.87744 0.62799 0.0
H389 H 0.85678 0.91227 0.59312 0.0
C390 C 0.54641 0.0581 0.29412 0.0
C391 C 0.59443 0.08926 0.29707 0.0
C392 C 0.60605 0.07111 0.19781 0.0
C393 C 0.55438 0.04817 0.19351 0.0
N394 N 0.47544 0.01698 0.23622 0.0
N395 N 0.66965 0.12799 0.25211 0.0
C396 C 0.52483 0.04018 0.24151 0.0
C397 C 0.62469 0.09566 0.24916 0.0
N398 N 0.52188 0.04537 0.34171 0.0
N399 N 0.63687 0.07025 0.1525 0.0
H400 H 0.69029 0.1396 0.21771 0.0
H401 H 0.68471 0.14674 0.28884 0.0
H402 H 0.62401 0.05346 0.11412 0.0
H403 H 0.67647 0.08148 0.15393 0.0
H404 H 0.48913 0.01883 0.34299 0.0
H405 H 0.53669 0.05822 0.38076 0.0
H406 H 0.44899 0.01603 0.26815 0.0
H407 H 0.46033 -5e-05 0.19869 0.0
C408 C 0.37198 0.54068 0.24783 0.0
C409 C 0.35646 0.59562 0.25214 0.0
C410 C 0.3962 0.60795 0.34333 0.0
C411 C 0.41113 0.55328 0.33995 0.0
N412 N 0.39892 0.46293 0.29762 0.0
N413 N 0.3345 0.67145 0.31239 0.0
C414 C 0.3932 0.51778 0.29538 0.0
C415 C 0.36071 0.62496 0.30361 0.0
N416 N 0.37163 0.51213 0.19814 0.0
N417 N 0.42092 0.64561 0.37907 0.0
H418 H 0.30847 0.68481 0.28291 0.0
H419 H 0.33518 0.69292 0.35057 0.0
H420 H 0.45038 0.63598 0.40654 0.0
H421 H 0.41584 0.68737 0.37682 0.0
H422 H 0.38839 0.4745 0.19266 0.0
H423 H 0.35842 0.52724 0.16141 0.0
H424 H 0.38302 0.43463 0.26782 0.0
H425 H 0.41502 0.44579 0.33227 0.0
C426 C 0.10466 0.48934 0.71792 0.0
C427 C 0.07991 0.44064 0.69296 0.0
C428 C 0.03995 0.42082 0.78016 0.0
C429 C 0.06712 0.46628 0.80686 0.0
N430 N 0.12775 0.54324 0.80282 0.0
N431 N -0.00655 0.39825 0.69563 0.0
C432 C 0.10056 0.50036 0.7762 0.0
C433 C 0.03869 0.41608 0.72234 0.0
N434 N 0.12345 0.52913 0.68509 0.0
N435 N 0.01212 0.38407 0.80984 0.0
H436 H 0.9871 0.4047 0.65382 0.0
H437 H 0.96059 0.38441 0.71653 0.0
H438 H 0.01308 0.38594 0.85292 0.0
H439 H -0.00714 0.34935 0.7912 0.0
H440 H 0.13862 0.56718 0.70001 0.0
H441 H 0.11674 0.52671 0.64245 0.0
H442 H 0.15632 0.56718 0.78418 0.0
H443 H 0.12458 0.5515 0.84522 0.0
C444 C 0.75038 0.9227 0.96473 0.0
C445 C 0.7555 0.89504 0.91234 0.0
C446 C 0.66988 0.92523 0.88456 0.0
C447 C 0.6603 0.94258 0.93963 0.0
N448 N 0.69091 0.95608 0.03392 0.0
N449 N 0.71346 0.8602 0.82681 0.0
C450 C 0.70066 0.94157 0.98027 0.0
C451 C 0.71357 0.89405 0.87318 0.0
N452 N 0.79293 0.93192 0.99902 0.0
N453 N 0.63587 0.93706 0.84339 0.0
H454 H 0.74228 0.83257 0.81914 0.0
H455 H 0.68164 0.85475 0.79952 0.0
H456 H 0.60353 0.96024 0.85103 0.0
H457 H 0.64296 0.92901 0.8017 0.0
H458 H 0.79251 0.95606 0.03545 0.0
H459 H 0.82983 0.9195 0.98852 0.0
H460 H 0.71674 0.9501 0.06644 0.0
H461 H 0.65566 0.97164 0.04607 0.0
C462 C 0.72006 0.06879 0.4957 0.0
C463 C 0.72194 0.10778 0.45432 0.0
C464 C 0.81589 0.09839 0.44507 0.0
C465 C 0.81312 0.05617 0.48312 0.0
N466 N 0.76829 0.01047 0.55482 0.0
N467 N 0.77203 0.16882 0.3983 0.0
C468 C 0.76688 0.04476 0.51209 0.0
C469 C 0.77022 0.12598 0.43239 0.0
N470 N 0.67316 0.05318 0.51719 0.0
N471 N 0.86107 0.10884 0.41758 0.0
H472 H 0.73883 0.18714 0.38458 0.0
H473 H 0.80639 0.18857 0.38618 0.0
H474 H 0.89599 0.09122 0.42701 0.0
H475 H 0.86395 0.13331 0.38378 0.0
H476 H 0.66782 0.02108 0.54337 0.0
H477 H 0.63867 0.07151 0.50715 0.0
H478 H 0.73712 0.00242 0.58045 0.0
H479 H 0.80274 -0.00662 0.56735 0.0
C480 C 0.23296 0.66051 0.05528 0.0
C481 C 0.27369 0.62607 0.06864 0.0
C482 C 0.22704 0.5479 0.02141 0.0
C483 C 0.18408 0.58105 0.01509 0.0
N484 N 0.15497 0.66993 -0.00058 0.0
N485 N 0.3188 0.54451 0.04606 0.0
C486 C 0.19091 0.63813 0.022 0.0
C487 C 0.274 0.57217 0.04494 0.0
N488 N 0.23168 0.71235 0.07817 0.0
N489 N 0.22166 0.4931 0.00893 0.0
H490 H 0.35373 0.56237 0.06255 0.0
H491 H 0.32251 0.50637 0.0263 0.0
H492 H 0.18882 0.47513 0.98827 0.0
H493 H 0.24928 0.46558 0.01967 0.0
H494 H 0.19982 0.73656 0.07382 0.0
H495 H 0.26049 0.73001 0.10493 0.0
H496 H 0.15893 0.71242 -2e-05 0.0
H497 H 0.12434 0.65231 0.97485 0.0
C498 C 0.25342 0.38112 0.54039 0.0
C499 C 0.21321 0.41932 0.5425 0.0
C500 C 0.27773 0.49454 0.53204 0.0
C501 C 0.31725 0.45652 0.53386 0.0
N502 N 0.34306 0.36473 0.51822 0.0
N503 N 0.18534 0.5084 0.52118 0.0
C504 C 0.30494 0.40007 0.53026 0.0
C505 C 0.22488 0.47485 0.53154 0.0
N506 N 0.24397 0.32783 0.55244 0.0
N507 N 0.29076 0.54926 0.53404 0.0
H508 H 0.14631 0.49435 0.5198 0.0
H509 H 0.19133 0.54825 0.50886 0.0
H510 H 0.32924 0.56467 0.53256 0.0
H511 H 0.26376 0.5792 0.53957 0.0
H512 H 0.27339 0.30111 0.55952 0.0
H513 H 0.20729 0.31039 0.55849 0.0
H514 H 0.33564 0.32306 0.50958 0.0
H515 H 0.38137 0.37834 0.51119 0.0
C516 C 0.85866 0.70128 0.93898 0.0
C517 C 0.88936 0.74987 0.93096 0.0
C518 C 0.96833 0.70202 0.95386 0.0
C519 C 0.93741 0.65391 0.96366 0.0
N520 N 0.85227 0.61579 0.98501 0.0
N521 N 0.97103 0.80063 0.9491 0.0
C522 C 0.88224 0.65637 0.96278 0.0
C523 C 0.94343 0.75159 0.94478 0.0
N524 N 0.808 0.69614 0.92067 0.0
N525 N 0.02097 0.70004 0.94886 0.0
H526 H 0.95362 0.83764 0.94392 0.0
H527 H 0.0095 0.80483 0.96365 0.0
H528 H 0.04053 0.66428 0.95208 0.0
H529 H 0.04444 0.73274 0.93612 0.0
H530 H 0.78591 0.65937 0.92051 0.0
H531 H 0.78952 0.72677 0.90072 0.0
H532 H 0.81213 0.61771 0.98943 0.0
H533 H 0.86843 0.58354 0.00483 0.0
C534 C 0.46624 0.75702 0.13403 0.0
C535 C 0.41249 0.75615 0.14576 0.0
C536 C 0.40384 0.84503 0.10725 0.0
C537 C 0.45558 0.84238 0.08916 0.0
N538 N 0.54129 0.81096 0.10383 0.0
N539 N 0.33698 0.80712 0.16566 0.0
C540 C 0.48881 0.80388 0.11023 0.0
C541 C 0.38397 0.80361 0.14079 0.0
N542 N 0.49422 0.71185 0.14082 0.0
N543 N 0.37251 0.88344 0.08786 0.0
H544 H 0.32208 0.77635 0.19015 0.0
H545 H 0.31566 0.84215 0.16628 0.0
H546 H 0.38645 0.91364 0.06247 0.0
H547 H 0.33261 0.88361 0.09457 0.0
H548 H 0.53203 0.70827 0.1269 0.0
H549 H 0.47873 0.67672 0.15818 0.0
H550 H 0.56828 0.78607 0.12113 0.0
H551 H 0.55753 0.84528 0.08534 0.0
C552 C 0.02891 0.2618 0.52774 0.0
C553 C 0.07499 0.27956 0.55784 0.0
C554 C 0.09697 0.18539 0.56769 0.0
C555 C 0.04647 0.16779 0.54882 0.0
N556 N 0.96288 0.18834 0.51029 0.0
N557 N 0.14601 0.2571 0.61865 0.0
C558 C 0.01207 0.20553 0.52755 0.0
C559 C 0.10754 0.24112 0.58081 0.0
N560 N 0.00121 0.29865 0.50048 0.0
N561 N 0.13436 0.14844 0.5745 0.0
H562 H 0.15376 0.2976 0.63243 0.0
H563 H 0.16698 0.22935 0.64024 0.0
H564 H 0.12762 0.1069 0.56399 0.0
H565 H 0.17307 0.16008 0.58458 0.0
H566 H 0.9697 0.28752 0.47404 0.0
H567 H 0.01238 0.34015 0.50126 0.0
H568 H 0.93423 0.21485 0.49993 0.0
H569 H 0.94991 0.14739 0.50889 0.0
C570 C 0.62503 0.29619 0.43569 0.0
C571 C 0.59006 0.24947 0.43257 0.0
C572 C 0.51709 0.30894 0.44818 0.0
C573 C 0.553 0.35464 0.45609 0.0
N574 N 0.6419 0.38737 0.47557 0.0
N575 N 0.50408 0.21045 0.44937 0.0
C576 C 0.60723 0.34678 0.45583 0.0
C577 C 0.53639 0.25551 0.44317 0.0
N578 N 0.6743 0.29349 0.41606 0.0
N579 N 0.46501 0.31637 0.44229 0.0
H580 H 0.51714 0.17084 0.44715 0.0
H581 H 0.46573 0.21276 0.46213 0.0
H582 H 0.44941 0.35477 0.4437 0.0
H583 H 0.43788 0.28472 0.4309 0.0
H584 H 0.69946 0.32781 0.41315 0.0
H585 H 0.68761 0.25848 0.39637 0.0
H586 H 0.68164 0.38171 0.48036 0.0
H587 H 0.63021 0.4243 0.49316 0.0
loop_
_geom_bond_atom_site_label_1
_geom_bond_atom_site_label_2
_geom_bond_distance
_geom_bond_site_symmetry_2
_ccdc_geom_bond_type
H0 C3 0.931 . S
H1 C6 0.928 . S
H2 C8 0.930 . S
C3 H0 0.931 . S
C3 C4 1.413 . S
C3 C5 1.360 . S
C4 C3 1.413 . S
C4 C8 1.429 . S
C5 C3 1.360 . S
C5 C6 1.372 . S
C6 H1 0.928 . S
C6 C5 1.372 . S
C6 C7 1.404 . S
C7 C6 1.404 . S
C7 C8 1.391 . S
C8 H2 0.930 . S
C8 C4 1.429 . S
C8 C7 1.391 . S
H9 C12 0.931 . S
H10 C15 0.928 . S
H11 C17 0.930 . S
C12 H9 0.931 . S
C12 C13 1.413 . S
C12 C14 1.360 . S
C13 C12 1.413 . S
C13 C17 1.429 . S
C14 C12 1.360 . S
C14 C15 1.372 . S
C15 H10 0.928 . S
C15 C14 1.372 . S
C15 C16 1.404 . S
C16 C15 1.404 . S
C16 C17 1.391 . S
C17 H11 0.930 . S
C17 C13 1.429 . S
C17 C16 1.391 . S
H18 C21 0.931 . S
H19 C24 0.928 . S
H20 C26 0.930 . S
C21 H18 0.931 . S
C21 C22 1.413 . S
C21 C23 1.360 . S
C22 C21 1.413 . S
C22 C26 1.429 . S
C23 C21 1.360 . S
C23 C24 1.372 . S
C24 H19 0.928 . S
C24 C23 1.372 . S
C24 C25 1.404 . S
C25 C24 1.404 . S
C25 C26 1.391 . S
C26 H20 0.930 . S
C26 C22 1.429 . S
C26 C25 1.391 . S
H27 C30 0.931 . S
H28 C33 0.928 . S
H29 C35 0.930 . S
C30 H27 0.931 . S
C30 C31 1.413 . S
C30 C32 1.360 . S
C31 C30 1.413 . S
C31 C35 1.429 . S
C32 C30 1.360 . S
C32 C33 1.372 . S
C33 H28 0.928 . S
C33 C32 1.372 . S
C33 C34 1.404 . S
C34 C33 1.404 . S
C34 C35 1.391 . S
C35 H29 0.930 . S
C35 C31 1.429 . S
C35 C34 1.391 . S
H36 C39 0.931 . S
H37 C42 0.928 . S
H38 C44 0.930 . S
C39 H36 0.931 . S
C39 C40 1.413 . S
C39 C41 1.360 . S
C40 C39 1.413 . S
C40 C44 1.429 . S
C41 C39 1.360 . S
C41 C42 1.372 . S
C42 H37 0.928 . S
C42 C41 1.372 . S
C42 C43 1.404 . S
C43 C42 1.404 . S
C43 C44 1.391 . S
C44 H38 0.930 . S
C44 C40 1.429 . S
C44 C43 1.391 . S
H45 C48 0.931 . S
H46 C51 0.928 . S
H47 C53 0.930 . S
C48 H45 0.931 . S
C48 C49 1.413 . S
C48 C50 1.360 . S
C49 C48 1.413 . S
C49 C53 1.429 . S
C50 C48 1.360 . S
C50 C51 1.372 . S
C51 H46 0.928 . S
C51 C50 1.372 . S
C51 C52 1.404 . S
C52 C51 1.404 . S
C52 C53 1.391 . S
C53 H47 0.930 . S
C53 C49 1.429 . S
C53 C52 1.391 . S
H54 C57 0.931 . S
H55 C60 0.928 . S
H56 C62 0.930 . S
C57 H54 0.931 . S
C57 C58 1.413 . S
C57 C59 1.360 . S
C58 C57 1.413 . S
C58 C62 1.429 . S
C59 C57 1.360 . S
C59 C60 1.372 . S
C60 H55 0.928 . S
C60 C59 1.372 . S
C60 C61 1.404 . S
C61 C60 1.404 . S
C61 C62 1.391 . S
C62 H56 0.930 . S
C62 C58 1.429 . S
C62 C61 1.391 . S
H63 C66 0.931 . S
H64 C69 0.928 . S
H65 C71 0.930 . S
C66 H63 0.931 . S
C66 C67 1.413 . S
C66 C68 1.360 . S
C67 C66 1.413 . S
C67 C71 1.429 . S
C68 C66 1.360 . S
C68 C69 1.372 . S
C69 H64 0.928 . S
C69 C68 1.372 . S
C69 C70 1.404 . S
C70 C69 1.404 . S
C70 C71 1.391 . S
C71 H65 0.930 . S
C71 C67 1.429 . S
C71 C70 1.391 . S
O72 Mg73 1.990 . S
O72 C86 1.253 1_445 S
Mg73 O72 1.990 . S
Mg73 O76 2.180 . S
Mg73 O77 2.117 . S
Mg73 O91 2.030 1_545 S
O74 Mg75 2.072 1_665 S
O74 C86 1.260 . S
Mg75 O74 2.072 1_445 S
Mg75 O76 2.099 . S
Mg75 O78 2.079 . S
Mg75 O79 2.072 1_455 S
Mg75 O81 2.099 1_445 S
Mg75 O92 2.079 1_545 S
O76 Mg73 2.180 . S
O76 Mg75 2.099 . S
O76 C87 1.279 . S
O77 Mg73 2.117 . S
O77 C87 1.250 . S
O78 Mg75 2.079 . S
O78 C88 1.264 . S
O79 Mg75 2.072 1_655 S
O79 C89 1.260 . S
Mg80 O81 2.180 . S
Mg80 O82 2.030 1_565 S
Mg80 O83 1.990 1_565 S
Mg80 O84 2.117 . S
O81 Mg75 2.099 1_665 S
O81 Mg80 2.180 . S
O81 C90 1.279 . S
O82 Mg80 2.030 1_545 S
O82 C88 1.248 1_655 S
O83 Mg80 1.990 1_545 S
O83 C89 1.253 . S
O84 Mg80 2.117 . S
O84 C90 1.250 . S
C85 O91 1.248 . S
C85 O92 1.264 . S
C86 O72 1.253 1_665 S
C86 O74 1.260 . S
C87 O76 1.279 . S
C87 O77 1.250 . S
C88 O78 1.264 . S
C88 O82 1.248 1_455 S
C89 O79 1.260 . S
C89 O83 1.253 . S
C90 O81 1.279 . S
C90 O84 1.250 . S
O91 Mg73 2.030 1_565 S
O91 C85 1.248 . S
O92 Mg75 2.079 1_565 S
O92 C85 1.264 . S
O93 Mg94 1.990 . S
O93 C107 1.253 . S
Mg94 O93 1.990 . S
Mg94 O97 2.180 1_554 S
Mg94 O98 2.117 1_554 S
Mg94 O112 2.030 . S
O95 Mg96 2.072 . S
O95 C107 1.260 . S
Mg96 O95 2.072 . S
Mg96 O97 2.099 1_554 S
Mg96 O99 2.079 1_544 S
Mg96 O100 2.072 1_554 S
Mg96 O102 2.099 1_545 S
Mg96 O113 2.079 . S
O97 Mg94 2.180 1_556 S
O97 Mg96 2.099 1_556 S
O97 C108 1.279 . S
O98 Mg94 2.117 1_556 S
O98 C108 1.250 . S
O99 Mg96 2.079 1_566 S
O99 C109 1.264 . S
O100 Mg96 2.072 1_556 S
O100 C110 1.260 1_545 S
Mg101 O102 2.180 1_556 S
Mg101 O103 2.030 . S
Mg101 O104 1.990 . S
Mg101 O105 2.117 1_556 S
O102 Mg96 2.099 1_565 S
O102 Mg101 2.180 1_554 S
O102 C111 1.279 . S
O103 Mg101 2.030 . S
O103 C109 1.248 . S
O104 Mg101 1.990 . S
O104 C110 1.253 . S
O105 Mg101 2.117 1_554 S
O105 C111 1.250 . S
C106 O112 1.248 . S
C106 O113 1.264 . S
C107 O93 1.253 . S
C107 O95 1.260 . S
C108 O97 1.279 . S
C108 O98 1.250 . S
C109 O99 1.264 . S
C109 O103 1.248 . S
C110 O100 1.260 1_565 S
C110 O104 1.253 . S
C111 O102 1.279 . S
C111 O105 1.250 . S
O112 Mg94 2.030 . S
O112 C106 1.248 . S
O113 Mg96 2.079 . S
O113 C106 1.264 . S
O114 Mg115 1.990 . S
O114 C128 1.253 . S
Mg115 O114 1.990 . S
Mg115 O118 2.180 . S
Mg115 O119 2.117 . S
Mg115 O133 2.030 . S
O116 Mg117 2.072 . S
O116 C128 1.260 . S
Mg117 O116 2.072 . S
Mg117 O118 2.099 . S
Mg117 O120 2.079 . S
Mg117 O121 2.072 . S
Mg117 O123 2.099 . S
Mg117 O134 2.079 . S
O118 Mg115 2.180 . S
O118 Mg117 2.099 . S
O118 C129 1.279 . S
O119 Mg115 2.117 . S
O119 C129 1.250 . S
O120 Mg117 2.079 . S
O120 C130 1.264 . S
O121 Mg117 2.072 . S
O121 C131 1.260 . S
Mg122 O123 2.180 . S
Mg122 O124 2.030 . S
Mg122 O125 1.990 . S
Mg122 O126 2.117 . S
O123 Mg117 2.099 . S
O123 Mg122 2.180 . S
O123 C132 1.279 . S
O124 Mg122 2.030 . S
O124 C130 1.248 . S
O125 Mg122 1.990 . S
O125 C131 1.253 . S
O126 Mg122 2.117 . S
O126 C132 1.250 . S
C127 O133 1.248 . S
C127 O134 1.264 . S
C128 O114 1.253 . S
C128 O116 1.260 . S
C129 O118 1.279 . S
C129 O119 1.250 . S
C130 O120 1.264 . S
C130 O124 1.248 . S
C131 O121 1.260 . S
C131 O125 1.253 . S
C132 O123 1.279 . S
C132 O126 1.250 . S
O133 Mg115 2.030 . S
O133 C127 1.248 . S
O134 Mg117 2.079 . S
O134 C127 1.264 . S
O135 Mg136 1.990 . S
O135 C149 1.253 . S
Mg136 O135 1.990 . S
Mg136 O139 2.180 1_455 S
Mg136 O140 2.117 1_455 S
Mg136 O154 2.030 . S
O137 Mg138 2.072 . S
O137 C149 1.260 . S
Mg138 O137 2.072 . S
Mg138 O139 2.099 1_455 S
Mg138 O141 2.079 1_454 S
Mg138 O142 2.072 1_454 S
Mg138 O144 2.099 1_554 S
Mg138 O155 2.079 . S
O139 Mg136 2.180 1_655 S
O139 Mg138 2.099 1_655 S
O139 C150 1.279 . S
O140 Mg136 2.117 1_655 S
O140 C150 1.250 . S
O141 Mg138 2.079 1_656 S
O141 C151 1.264 . S
O142 Mg138 2.072 1_656 S
O142 C152 1.259 . S
Mg143 O144 2.180 1_655 S
Mg143 O145 2.030 . S
Mg143 O146 1.990 . S
Mg143 O147 2.111 1_655 S
O144 Mg138 2.099 1_556 S
O144 Mg143 2.180 1_455 S
O144 C153 1.279 . S
O145 Mg143 2.030 . S
O145 C151 1.248 . S
O146 Mg143 1.990 . S
O146 C152 1.253 . S
O147 Mg143 2.111 1_455 S
O147 C153 1.256 . S
C148 O154 1.248 . S
C148 O155 1.264 . S
C149 O135 1.253 . S
C149 O137 1.260 . S
C150 O139 1.279 . S
C150 O140 1.250 . S
C151 O141 1.264 . S
C151 O145 1.248 . S
C152 O142 1.259 . S
C152 O146 1.253 . S
C153 O144 1.279 . S
C153 O147 1.256 . S
O154 Mg136 2.030 . S
O154 C148 1.248 . S
O155 Mg138 2.079 . S
O155 C148 1.264 . S
C156 C157 1.363 . S
C156 C162 1.379 . S
C156 N164 1.356 . S
C157 C156 1.363 . S
C157 C163 1.363 . S
C158 C159 1.363 . S
C158 C163 1.379 . S
C158 N165 1.356 1_545 S
C159 C158 1.363 . S
C159 C162 1.363 . S
N160 C162 1.356 . S
N160 H172 0.984 . S
N160 H173 0.985 . S
N161 C163 1.356 . S
N161 H166 0.984 . S
N161 H167 0.985 1_545 S
C162 C156 1.379 . S
C162 C159 1.363 . S
C162 N160 1.356 . S
C163 C157 1.363 . S
C163 C158 1.379 . S
C163 N161 1.356 . S
N164 C156 1.356 . S
N164 H170 0.984 . S
N164 H171 0.984 . S
N165 C158 1.356 1_565 S
N165 H168 0.984 . S
N165 H169 0.985 . S
H166 N161 0.984 . S
H167 N161 0.985 1_565 S
H168 N165 0.984 . S
H169 N165 0.985 . S
H170 N164 0.984 . S
H171 N164 0.984 . S
H172 N160 0.984 . S
H173 N160 0.985 . S
C174 C175 1.363 . S
C174 C180 1.379 . S
C174 N182 1.356 . S
C175 C174 1.363 . S
C175 C181 1.363 . S
C176 C177 1.363 . S
C176 C181 1.379 . S
C176 N183 1.356 . S
C177 C176 1.363 . S
C177 C180 1.363 . S
N178 C180 1.356 . S
N178 H190 0.984 . S
N178 H191 0.985 . S
N179 C181 1.356 . S
N179 H184 0.984 . S
N179 H185 0.985 . S
C180 C174 1.379 . S
C180 C177 1.363 . S
C180 N178 1.356 . S
C181 C175 1.363 . S
C181 C176 1.379 . S
C181 N179 1.356 . S
N182 C174 1.356 . S
N182 H188 0.984 . S
N182 H189 0.984 . S
N183 C176 1.356 . S
N183 H186 0.984 . S
N183 H187 0.985 . S
H184 N179 0.984 . S
H185 N179 0.985 . S
H186 N183 0.984 . S
H187 N183 0.985 . S
H188 N182 0.984 . S
H189 N182 0.984 . S
H190 N178 0.984 . S
H191 N178 0.985 . S
C192 C193 1.363 . S
C192 C198 1.379 . S
C192 N200 1.356 . S
C193 C192 1.363 . S
C193 C199 1.363 . S
C194 C195 1.363 . S
C194 C199 1.379 . S
C194 N201 1.356 . S
C195 C194 1.363 . S
C195 C198 1.363 . S
N196 C198 1.356 . S
N196 H208 0.984 . S
N196 H209 0.985 . S
N197 C199 1.356 . S
N197 H202 0.984 . S
N197 H203 0.985 . S
C198 C192 1.379 . S
C198 C195 1.363 . S
C198 N196 1.356 . S
C199 C193 1.363 . S
C199 C194 1.379 . S
C199 N197 1.356 . S
N200 C192 1.356 . S
N200 H206 0.984 . S
N200 H207 0.984 . S
N201 C194 1.356 . S
N201 H204 0.984 . S
N201 H205 0.985 . S
H202 N197 0.984 . S
H203 N197 0.985 . S
H204 N201 0.984 . S
H205 N201 0.985 . S
H206 N200 0.984 . S
H207 N200 0.984 . S
H208 N196 0.984 . S
H209 N196 0.985 . S
C210 C211 1.363 . S
C210 C216 1.379 . S
C210 N218 1.356 . S
C211 C210 1.363 . S
C211 C217 1.363 . S
C212 C213 1.363 . S
C212 C217 1.379 . S
C212 N219 1.356 . S
C213 C212 1.363 . S
C213 C216 1.363 . S
N214 C216 1.356 . S
N214 H226 0.984 . S
N214 H227 0.985 . S
N215 C217 1.356 . S
N215 H220 0.984 . S
N215 H221 0.985 . S
C216 C210 1.379 . S
C216 C213 1.363 . S
C216 N214 1.356 . S
C217 C211 1.363 . S
C217 C212 1.379 . S
C217 N215 1.356 . S
N218 C210 1.356 . S
N218 H224 0.984 . S
N218 H225 0.984 . S
N219 C212 1.356 . S
N219 H222 0.984 . S
N219 H223 0.985 . S
H220 N215 0.984 . S
H221 N215 0.985 . S
H222 N219 0.984 . S
H223 N219 0.985 . S
H224 N218 0.984 . S
H225 N218 0.984 . S
H226 N214 0.984 . S
H227 N214 0.985 . S
C228 C229 1.363 . S
C228 C234 1.379 . S
C228 N236 1.356 . S
C229 C228 1.363 . S
C229 C235 1.363 . S
C230 C231 1.363 . S
C230 C235 1.379 . S
C230 N237 1.356 . S
C231 C230 1.363 . S
C231 C234 1.363 . S
N232 C234 1.356 1_565 S
N232 H244 0.984 . S
N232 H245 0.985 . S
N233 C235 1.356 . S
N233 H238 0.984 . S
N233 H239 0.985 . S
C234 C228 1.379 . S
C234 C231 1.363 . S
C234 N232 1.356 1_545 S
C235 C229 1.363 . S
C235 C230 1.379 . S
C235 N233 1.356 . S
N236 C228 1.356 . S
N236 H242 0.984 1_545 S
N236 H243 0.984 . S
N237 C230 1.356 . S
N237 H240 0.984 . S
N237 H241 0.985 . S
H238 N233 0.984 . S
H239 N233 0.985 . S
H240 N237 0.984 . S
H241 N237 0.985 . S
H242 N236 0.984 1_565 S
H243 N236 0.984 . S
H244 N232 0.984 . S
H245 N232 0.985 . S
C246 C247 1.363 . S
C246 C252 1.379 . S
C246 N254 1.356 . S
C247 C246 1.363 . S
C247 C253 1.363 . S
C248 C249 1.363 . S
C248 C253 1.379 . S
C248 N255 1.356 . S
C249 C248 1.363 . S
C249 C252 1.363 . S
N250 C252 1.356 . S
N250 H262 0.984 . S
N250 H263 0.985 . S
N251 C253 1.356 . S
N251 H256 0.984 . S
N251 H257 0.985 . S
C252 C246 1.379 . S
C252 C249 1.363 . S
C252 N250 1.356 . S
C253 C247 1.363 . S
C253 C248 1.379 . S
C253 N251 1.356 . S
N254 C246 1.356 . S
N254 H260 0.984 . S
N254 H261 0.984 . S
N255 C248 1.356 . S
N255 H258 0.984 . S
N255 H259 0.985 1_565 S
H256 N251 0.984 . S
H257 N251 0.985 . S
H258 N255 0.984 . S
H259 N255 0.985 1_545 S
H260 N254 0.984 . S
H261 N254 0.984 . S
H262 N250 0.984 . S
H263 N250 0.985 . S
C264 C265 1.363 . S
C264 C270 1.379 . S
C264 N272 1.356 . S
C265 C264 1.363 . S
C265 C271 1.363 . S
C266 C267 1.363 . S
C266 C271 1.379 . S
C266 N273 1.356 1_556 S
C267 C266 1.363 . S
C267 C270 1.363 . S
N268 C270 1.356 . S
N268 H280 0.984 . S
N268 H281 0.985 . S
N269 C271 1.356 . S
N269 H274 0.984 . S
N269 H275 0.985 1_556 S
C270 C264 1.379 . S
C270 C267 1.363 . S
C270 N268 1.356 . S
C271 C265 1.363 . S
C271 C266 1.379 . S
C271 N269 1.356 . S
N272 C264 1.356 . S
N272 H278 0.984 . S
N272 H279 0.984 . S
N273 C266 1.356 1_554 S
N273 H276 0.984 . S
N273 H277 0.985 . S
H274 N269 0.984 . S
H275 N269 0.985 1_554 S
H276 N273 0.984 . S
H277 N273 0.985 . S
H278 N272 0.984 . S
H279 N272 0.984 . S
H280 N268 0.984 . S
H281 N268 0.985 . S
C282 C283 1.363 . S
C282 C288 1.379 . S
C282 N290 1.356 . S
C283 C282 1.363 . S
C283 C289 1.363 . S
C284 C285 1.363 . S
C284 C289 1.379 . S
C284 N291 1.356 . S
C285 C284 1.363 . S
C285 C288 1.363 . S
N286 C288 1.356 . S
N286 H298 0.984 . S
N286 H299 0.985 . S
N287 C289 1.356 . S
N287 H292 0.984 . S
N287 H293 0.985 . S
C288 C282 1.379 . S
C288 C285 1.363 . S
C288 N286 1.356 . S
C289 C283 1.363 . S
C289 C284 1.379 . S
C289 N287 1.356 . S
N290 C282 1.356 . S
N290 H296 0.984 . S
N290 H297 0.984 . S
N291 C284 1.356 . S
N291 H294 0.984 . S
N291 H295 0.985 . S
H292 N287 0.984 . S
H293 N287 0.985 . S
H294 N291 0.984 . S
H295 N291 0.985 . S
H296 N290 0.984 . S
H297 N290 0.984 . S
H298 N286 0.984 . S
H299 N286 0.985 . S
C300 C301 1.363 . S
C300 C306 1.379 . S
C300 N308 1.356 . S
C301 C300 1.363 . S
C301 C307 1.363 . S
C302 C303 1.363 . S
C302 C307 1.379 . S
C302 N309 1.356 . S
C303 C302 1.363 . S
C303 C306 1.363 . S
N304 C306 1.356 1_556 S
N304 H316 0.984 . S
N304 H317 0.985 . S
N305 C307 1.356 . S
N305 H310 0.984 . S
N305 H311 0.985 . S
C306 C300 1.379 . S
C306 C303 1.363 . S
C306 N304 1.356 1_554 S
C307 C301 1.363 . S
C307 C302 1.379 . S
C307 N305 1.356 . S
N308 C300 1.356 . S
N308 H314 0.984 1_554 S
N308 H315 0.984 . S
N309 C302 1.356 . S
N309 H312 0.984 . S
N309 H313 0.985 1_455 S
H310 N305 0.984 . S
H311 N305 0.985 . S
H312 N309 0.984 . S
H313 N309 0.985 1_655 S
H314 N308 0.984 1_556 S
H315 N308 0.984 . S
H316 N304 0.984 . S
H317 N304 0.985 . S
C318 C319 1.363 . S
C318 C324 1.379 . S
C318 N326 1.356 . S
C319 C318 1.363 . S
C319 C325 1.363 . S
C320 C321 1.363 . S
C320 C325 1.379 . S
C320 N327 1.356 . S
C321 C320 1.363 . S
C321 C324 1.363 . S
N322 C324 1.356 1_554 S
N322 H334 0.984 . S
N322 H335 0.985 . S
N323 C325 1.356 . S
N323 H328 0.984 . S
N323 H329 0.985 . S
C324 C318 1.379 . S
C324 C321 1.363 . S
C324 N322 1.356 1_556 S
C325 C319 1.363 . S
C325 C320 1.379 . S
C325 N323 1.356 . S
N326 C318 1.356 . S
N326 H332 0.984 1_556 S
N326 H333 0.984 . S
N327 C320 1.356 . S
N327 H330 0.984 . S
N327 H331 0.985 . S
H328 N323 0.984 . S
H329 N323 0.985 . S
H330 N327 0.984 . S
H331 N327 0.985 . S
H332 N326 0.984 1_554 S
H333 N326 0.984 . S
H334 N322 0.984 . S
H335 N322 0.985 . S
C336 C337 1.363 . S
C336 C342 1.379 . S
C336 N344 1.356 . S
C337 C336 1.363 . S
C337 C343 1.363 . S
C338 C339 1.363 . S
C338 C343 1.379 . S
C338 N345 1.356 . S
C339 C338 1.363 . S
C339 C342 1.363 . S
N340 C342 1.361 . S
N340 H352 0.980 1_655 S
N340 H353 0.984 1_655 S
N341 C343 1.356 . S
N341 H346 0.984 . S
N341 H347 0.985 . S
C342 C336 1.379 . S
C342 C339 1.363 . S
C342 N340 1.361 . S
C343 C337 1.363 . S
C343 C338 1.379 . S
C343 N341 1.356 . S
N344 C336 1.356 . S
N344 H350 0.984 . S
N344 H351 0.984 . S
N345 C338 1.356 . S
N345 H348 0.984 . S
N345 H349 0.985 . S
H346 N341 0.984 . S
H347 N341 0.985 . S
H348 N345 0.984 . S
H349 N345 0.985 . S
H350 N344 0.984 . S
H351 N344 0.984 . S
H352 N340 0.980 1_455 S
H353 N340 0.984 1_455 S
C354 C355 1.363 . S
C354 C360 1.379 . S
C354 N362 1.356 . S
C355 C354 1.363 . S
C355 C361 1.363 . S
C356 C357 1.363 . S
C356 C361 1.379 . S
C356 N363 1.356 . S
C357 C356 1.363 . S
C357 C360 1.363 . S
N358 C360 1.356 . S
N358 H370 0.984 . S
N358 H371 0.985 . S
N359 C361 1.356 . S
N359 H364 0.984 . S
N359 H365 0.985 . S
C360 C354 1.379 . S
C360 C357 1.363 . S
C360 N358 1.356 . S
C361 C355 1.363 . S
C361 C356 1.379 . S
C361 N359 1.356 . S
N362 C354 1.356 . S
N362 H368 0.984 . S
N362 H369 0.984 . S
N363 C356 1.356 . S
N363 H366 0.984 . S
N363 H367 0.985 . S
H364 N359 0.984 . S
H365 N359 0.985 . S
H366 N363 0.984 . S
H367 N363 0.985 . S
H368 N362 0.984 . S
H369 N362 0.984 . S
H370 N358 0.984 . S
H371 N358 0.985 . S
C372 C373 1.363 . S
C372 C378 1.379 . S
C372 N380 1.356 . S
C373 C372 1.363 . S
C373 C379 1.363 . S
C374 C375 1.363 . S
C374 C379 1.379 . S
C374 N381 1.356 1_655 S
C375 C374 1.363 . S
C375 C378 1.363 . S
N376 C378 1.356 . S
N376 H388 0.984 1_565 S
N376 H389 0.985 . S
N377 C379 1.356 . S
N377 H382 0.984 . S
N377 H383 0.985 1_655 S
C378 C372 1.379 . S
C378 C375 1.363 . S
C378 N376 1.356 . S
C379 C373 1.363 . S
C379 C374 1.379 . S
C379 N377 1.356 . S
N380 C372 1.356 . S
N380 H386 0.984 . S
N380 H387 0.984 . S
N381 C374 1.356 1_455 S
N381 H384 0.984 . S
N381 H385 0.985 . S
H382 N377 0.984 . S
H383 N377 0.985 1_455 S
H384 N381 0.984 . S
H385 N381 0.985 . S
H386 N380 0.984 . S
H387 N380 0.984 . S
H388 N376 0.984 1_545 S
H389 N376 0.985 . S
C390 C391 1.363 . S
C390 C396 1.379 . S
C390 N398 1.356 . S
C391 C390 1.363 . S
C391 C397 1.363 . S
C392 C393 1.363 . S
C392 C397 1.379 . S
C392 N399 1.356 . S
C393 C392 1.363 . S
C393 C396 1.363 . S
N394 C396 1.356 . S
N394 H406 0.984 . S
N394 H407 0.985 . S
N395 C397 1.356 . S
N395 H400 0.984 . S
N395 H401 0.985 . S
C396 C390 1.379 . S
C396 C393 1.363 . S
C396 N394 1.356 . S
C397 C391 1.363 . S
C397 C392 1.379 . S
C397 N395 1.356 . S
N398 C390 1.356 . S
N398 H404 0.984 . S
N398 H405 0.984 . S
N399 C392 1.356 . S
N399 H402 0.984 . S
N399 H403 0.985 1_545 S
H400 N395 0.984 . S
H401 N395 0.985 . S
H402 N399 0.984 . S
H403 N399 0.985 1_565 S
H404 N398 0.984 . S
H405 N398 0.984 . S
H406 N394 0.984 . S
H407 N394 0.985 . S
C408 C409 1.363 . S
C408 C414 1.379 . S
C408 N416 1.356 . S
C409 C408 1.363 . S
C409 C415 1.363 . S
C410 C411 1.363 . S
C410 C415 1.379 . S
C410 N417 1.356 . S
C411 C410 1.363 . S
C411 C414 1.363 . S
N412 C414 1.356 . S
N412 H424 0.984 . S
N412 H425 0.985 . S
N413 C415 1.356 . S
N413 H418 0.984 . S
N413 H419 0.985 . S
C414 C408 1.379 . S
C414 C411 1.363 . S
C414 N412 1.356 . S
C415 C409 1.363 . S
C415 C410 1.379 . S
C415 N413 1.356 . S
N416 C408 1.356 . S
N416 H422 0.984 . S
N416 H423 0.984 . S
N417 C410 1.356 . S
N417 H420 0.984 . S
N417 H421 0.985 . S
H418 N413 0.984 . S
H419 N413 0.985 . S
H420 N417 0.984 . S
H421 N417 0.985 . S
H422 N416 0.984 . S
H423 N416 0.984 . S
H424 N412 0.984 . S
H425 N412 0.985 . S
C426 C427 1.363 . S
C426 C432 1.379 . S
C426 N434 1.356 . S
C427 C426 1.363 . S
C427 C433 1.363 . S
C428 C429 1.363 . S
C428 C433 1.379 . S
C428 N435 1.356 . S
C429 C428 1.363 . S
C429 C432 1.363 . S
N430 C432 1.356 . S
N430 H442 0.984 . S
N430 H443 0.985 . S
N431 C433 1.356 . S
N431 H436 0.984 . S
N431 H437 0.989 . S
C432 C426 1.379 . S
C432 C429 1.363 . S
C432 N430 1.356 . S
C433 C427 1.363 . S
C433 C428 1.379 . S
C433 N431 1.356 . S
N434 C426 1.356 . S
N434 H440 0.984 . S
N434 H441 0.984 . S
N435 C428 1.356 . S
N435 H438 0.984 . S
N435 H439 0.985 1_455 S
H436 N431 0.984 . S
H437 N431 0.989 . S
H438 N435 0.984 . S
H439 N435 0.985 1_655 S
H440 N434 0.984 . S
H441 N434 0.984 . S
H442 N430 0.984 . S
H443 N430 0.985 . S
C444 C445 1.363 . S
C444 C450 1.379 . S
C444 N452 1.356 . S
C445 C444 1.363 . S
C445 C451 1.363 . S
C446 C447 1.363 . S
C446 C451 1.379 . S
C446 N453 1.356 . S
C447 C446 1.363 . S
C447 C450 1.363 . S
N448 C450 1.356 1_554 S
N448 H460 0.984 . S
N448 H461 0.985 . S
N449 C451 1.356 . S
N449 H454 0.984 . S
N449 H455 0.985 . S
C450 C444 1.379 . S
C450 C447 1.363 . S
C450 N448 1.356 1_556 S
C451 C445 1.363 . S
C451 C446 1.379 . S
C451 N449 1.356 . S
N452 C444 1.356 . S
N452 H458 0.984 1_556 S
N452 H459 0.984 . S
N453 C446 1.356 . S
N453 H456 0.984 . S
N453 H457 0.985 . S
H454 N449 0.984 . S
H455 N449 0.985 . S
H456 N453 0.984 . S
H457 N453 0.985 . S
H458 N452 0.984 1_554 S
H459 N452 0.984 . S
H460 N448 0.984 . S
H461 N448 0.985 . S
C462 C463 1.363 . S
C462 C468 1.379 . S
C462 N470 1.356 . S
C463 C462 1.363 . S
C463 C469 1.363 . S
C464 C465 1.363 . S
C464 C469 1.379 . S
C464 N471 1.356 . S
C465 C464 1.363 . S
C465 C468 1.363 . S
N466 C468 1.356 . S
N466 H478 0.984 . S
N466 H479 0.985 . S
N467 C469 1.356 . S
N467 H472 0.984 . S
N467 H473 0.985 . S
C468 C462 1.379 . S
C468 C465 1.363 . S
C468 N466 1.356 . S
C469 C463 1.363 . S
C469 C464 1.379 . S
C469 N467 1.356 . S
N470 C462 1.356 . S
N470 H476 0.984 . S
N470 H477 0.984 . S
N471 C464 1.356 . S
N471 H474 0.984 . S
N471 H475 0.985 . S
H472 N467 0.984 . S
H473 N467 0.985 . S
H474 N471 0.984 . S
H475 N471 0.985 . S
H476 N470 0.984 . S
H477 N470 0.984 . S
H478 N466 0.984 . S
H479 N466 0.985 . S
C480 C481 1.363 . S
C480 C486 1.379 . S
C480 N488 1.356 . S
C481 C480 1.363 . S
C481 C487 1.363 . S
C482 C483 1.363 . S
C482 C487 1.379 . S
C482 N489 1.356 . S
C483 C482 1.363 . S
C483 C486 1.363 . S
N484 C486 1.356 . S
N484 H496 0.984 1_554 S
N484 H497 0.985 1_554 S
N485 C487 1.356 . S
N485 H490 0.984 . S
N485 H491 0.985 . S
C486 C480 1.379 . S
C486 C483 1.363 . S
C486 N484 1.356 . S
C487 C481 1.363 . S
C487 C482 1.379 . S
C487 N485 1.356 . S
N488 C480 1.356 . S
N488 H494 0.984 . S
N488 H495 0.984 . S
N489 C482 1.356 . S
N489 H492 0.984 . S
N489 H493 0.985 . S
H490 N485 0.984 . S
H491 N485 0.985 . S
H492 N489 0.984 . S
H493 N489 0.985 . S
H494 N488 0.984 . S
H495 N488 0.984 . S
H496 N484 0.984 1_556 S
H497 N484 0.985 1_556 S
C498 C499 1.363 . S
C498 C504 1.379 . S
C498 N506 1.356 . S
C499 C498 1.363 . S
C499 C505 1.363 . S
C500 C501 1.363 . S
C500 C505 1.379 . S
C500 N507 1.356 . S
C501 C500 1.363 . S
C501 C504 1.363 . S
N502 C504 1.356 . S
N502 H514 0.984 . S
N502 H515 0.985 . S
N503 C505 1.356 . S
N503 H508 0.984 . S
N503 H509 0.985 . S
C504 C498 1.379 . S
C504 C501 1.363 . S
C504 N502 1.356 . S
C505 C499 1.363 . S
C505 C500 1.379 . S
C505 N503 1.356 . S
N506 C498 1.356 . S
N506 H512 0.984 . S
N506 H513 0.984 . S
N507 C500 1.356 . S
N507 H510 0.984 . S
N507 H511 0.985 . S
H508 N503 0.984 . S
H509 N503 0.985 . S
H510 N507 0.984 . S
H511 N507 0.985 . S
H512 N506 0.984 . S
H513 N506 0.984 . S
H514 N502 0.984 . S
H515 N502 0.985 . S
C516 C517 1.363 . S
C516 C522 1.379 . S
C516 N524 1.356 . S
C517 C516 1.363 . S
C517 C523 1.363 . S
C518 C519 1.363 . S
C518 C523 1.379 . S
C518 N525 1.356 1_655 S
C519 C518 1.363 . S
C519 C522 1.363 . S
N520 C522 1.356 . S
N520 H532 0.984 . S
N520 H533 0.985 . S
N521 C523 1.356 . S
N521 H526 0.984 . S
N521 H527 0.985 1_655 S
C522 C516 1.379 . S
C522 C519 1.363 . S
C522 N520 1.356 . S
C523 C517 1.363 . S
C523 C518 1.379 . S
C523 N521 1.356 . S
N524 C516 1.356 . S
N524 H530 0.984 . S
N524 H531 0.984 . S
N525 C518 1.356 1_455 S
N525 H528 0.984 . S
N525 H529 0.985 1_556 S
H526 N521 0.984 . S
H527 N521 0.985 1_455 S
H528 N525 0.984 . S
H529 N525 0.985 1_554 S
H530 N524 0.984 . S
H531 N524 0.984 . S
H532 N520 0.984 . S
H533 N520 0.985 . S
C534 C535 1.363 . S
C534 C540 1.379 . S
C534 N542 1.356 . S
C535 C534 1.363 . S
C535 C541 1.363 . S
C536 C537 1.363 . S
C536 C541 1.379 . S
C536 N543 1.356 . S
C537 C536 1.363 . S
C537 C540 1.363 . S
N538 C540 1.356 . S
N538 H550 0.984 1_554 S
N538 H551 0.985 . S
N539 C541 1.356 . S
N539 H544 0.984 . S
N539 H545 0.985 . S
C540 C534 1.379 . S
C540 C537 1.363 . S
C540 N538 1.356 . S
C541 C535 1.363 . S
C541 C536 1.379 . S
C541 N539 1.356 . S
N542 C534 1.356 . S
N542 H548 0.984 . S
N542 H549 0.984 . S
N543 C536 1.356 . S
N543 H546 0.984 . S
N543 H547 0.985 . S
H544 N539 0.984 . S
H545 N539 0.985 . S
H546 N543 0.984 . S
H547 N543 0.985 . S
H548 N542 0.984 . S
H549 N542 0.984 . S
H550 N538 0.984 1_556 S
H551 N538 0.985 . S
C552 C553 1.363 . S
C552 C558 1.379 . S
C552 N560 1.356 . S
C553 C552 1.363 . S
C553 C559 1.363 . S
C554 C555 1.363 . S
C554 C559 1.379 . S
C554 N561 1.356 . S
C555 C554 1.363 . S
C555 C558 1.363 . S
N556 C558 1.356 1_655 S
N556 H568 0.984 . S
N556 H569 0.985 . S
N557 C559 1.356 . S
N557 H562 0.984 . S
N557 H563 0.985 . S
C558 C552 1.379 . S
C558 C555 1.363 . S
C558 N556 1.356 1_455 S
C559 C553 1.363 . S
C559 C554 1.379 . S
C559 N557 1.356 . S
N560 C552 1.356 . S
N560 H566 0.984 . S
N560 H567 0.984 . S
N561 C554 1.356 . S
N561 H564 0.984 . S
N561 H565 0.985 . S
H562 N557 0.984 . S
H563 N557 0.985 . S
H564 N561 0.984 . S
H565 N561 0.985 . S
H566 N560 0.984 . S
H567 N560 0.984 . S
H568 N556 0.984 . S
H569 N556 0.985 . S
C570 C571 1.363 . S
C570 C576 1.379 . S
C570 N578 1.356 . S
C571 C570 1.363 . S
C571 C577 1.363 . S
C572 C573 1.363 . S
C572 C577 1.379 . S
C572 N579 1.356 . S
C573 C572 1.363 . S
C573 C576 1.363 . S
N574 C576 1.356 . S
N574 H586 0.984 . S
N574 H587 0.985 . S
N575 C577 1.356 . S
N575 H580 0.984 . S
N575 H581 0.985 . S
C576 C570 1.379 . S
C576 C573 1.363 . S
C576 N574 1.356 . S
C577 C571 1.363 . S
C577 C572 1.379 . S
C577 N575 1.356 . S
N578 C570 1.356 . S
N578 H584 0.984 . S
N578 H585 0.984 . S
N579 C572 1.356 . S
N579 H582 0.984 . S
N579 H583 0.985 . S
H580 N575 0.984 . S
H581 N575 0.985 . S
H582 N579 0.984 . S
H583 N579 0.985 . S
H584 N578 0.984 . S
H585 N578 0.984 . S
H586 N574 0.984 . S
H587 N574 0.985 . S
C157 C5 1.540 . S
C159 C88 1.502 . S
C175 C14 1.481 . S
C177 C110 1.408 . S
C195 C129 1.239 . S
C193 C25 1.494 . S
C211 C34 1.679 . S
C213 C150 1.359 . S
C231 C107 1.619 . S
C229 C7 1.669 . S
C249 C85 1.556 . S
C247 C13 1.605 . S
C267 C152 1.346 . S
C265 C23 1.434 . S
C285 C131 1.405 . S
C283 C31 1.468 . S
C301 C4 1.619 . S
C303 C149 1.565 . S
C321 C108 1.281 . S
C319 C22 1.579 . S
C337 C32 1.578 . S
C339 C90 1.399 . S
C355 C16 1.479 . S
C357 C128 1.457 . S
C375 C86 1.487 . S
C373 C41 1.548 . S
C391 C50 1.378 . S
C393 C106 1.332 . S
C409 C61 1.515 . S
C411 C132 1.274 . S
C427 C67 1.619 . S
C429 C153 1.299 . S
C445 C40 1.610 . S
C447 C109 1.576 . S
C465 C89 1.578 . S
C463 C52 1.646 . S
C483 C148 1.302 . S
C481 C59 1.372 . S
C501 C127 1.448 . S
C499 C70 1.506 . S
C517 C43 1.499 . S
C519 C151 1.458 . S
C537 C111 1.265 . S
C535 C58 1.521 . S
C555 C87 1.306 . S
C553 C68 1.484 . S
C571 C49 1.440 . S
C573 C130 1.415 . S
