# Generated by pormake.
# Topology pto, (3,4)-cn, num edge types: 1
# Building blocks:
#     Node 0, Type 0, BuildingBlock: OLANEW_clean_sbu_2, # of connection points: 3
#     Node 1, Type 0, BuildingBlock: OLANEW_clean_sbu_2, # of connection points: 3
#     Node 2, Type 0, BuildingBlock: OLANEW_clean_sbu_2, # of connection points: 3
#     Node 3, Type 0, BuildingBlock: OLANEW_clean_sbu_2, # of connection points: 3
#     Node 4, Type 0, BuildingBlock: OLANEW_clean_sbu_2, # of connection points: 3
#     Node 5, Type 0, BuildingBlock: OLANEW_clean_sbu_2, # of connection points: 3
#     Node 6, Type 0, BuildingBlock: OLANEW_clean_sbu_2, # of connection points: 3
#     Node 7, Type 0, BuildingBlock: OLANEW_clean_sbu_2, # of connection points: 3
#     Node 8, Type 1, BuildingBlock: NAWXER_clean_linker_0, # of connection points: 4
#     Node 9, Type 1, BuildingBlock: NAWXER_clean_linker_0, # of connection points: 4
#     Node 10, Type 1, BuildingBlock: NAWXER_clean_linker_0, # of connection points: 4
#     Node 11, Type 1, BuildingBlock: NAWXER_clean_linker_0, # of connection points: 4
#     Node 12, Type 1, BuildingBlock: NAWXER_clean_linker_0, # of connection points: 4
#     Node 13, Type 1, BuildingBlock: NAWXER_clean_linker_0, # of connection points: 4
#     Edge 14, Type (0, 1), BuildingBlock: UVAHIK_clean_linker_0, # of connection points: 2
#     Edge 15, Type (0, 1), BuildingBlock: UVAHIK_clean_linker_0, # of connection points: 2
#     Edge 16, Type (0, 1), BuildingBlock: UVAHIK_clean_linker_0, # of connection points: 2
#     Edge 17, Type (0, 1), BuildingBlock: UVAHIK_clean_linker_0, # of connection points: 2
#     Edge 18, Type (0, 1), BuildingBlock: UVAHIK_clean_linker_0, # of connection points: 2
#     Edge 19, Type (0, 1), BuildingBlock: UVAHIK_clean_linker_0, # of connection points: 2
#     Edge 20, Type (0, 1), BuildingBlock: UVAHIK_clean_linker_0, # of connection points: 2
#     Edge 21, Type (0, 1), BuildingBlock: UVAHIK_clean_linker_0, # of connection points: 2
#     Edge 22, Type (0, 1), BuildingBlock: UVAHIK_clean_linker_0, # of connection points: 2
#     Edge 23, Type (0, 1), BuildingBlock: UVAHIK_clean_linker_0, # of connection points: 2
#     Edge 24, Type (0, 1), BuildingBlock: UVAHIK_clean_linker_0, # of connection points: 2
#     Edge 25, Type (0, 1), BuildingBlock: UVAHIK_clean_linker_0, # of connection points: 2
#     Edge 26, Type (0, 1), BuildingBlock: UVAHIK_clean_linker_0, # of connection points: 2
#     Edge 27, Type (0, 1), BuildingBlock: UVAHIK_clean_linker_0, # of connection points: 2
#     Edge 28, Type (0, 1), BuildingBlock: UVAHIK_clean_linker_0, # of connection points: 2
#     Edge 29, Type (0, 1), BuildingBlock: UVAHIK_clean_linker_0, # of connection points: 2
#     Edge 30, Type (0, 1), BuildingBlock: UVAHIK_clean_linker_0, # of connection points: 2
#     Edge 31, Type (0, 1), BuildingBlock: UVAHIK_clean_linker_0, # of connection points: 2
#     Edge 32, Type (0, 1), BuildingBlock: UVAHIK_clean_linker_0, # of connection points: 2
#     Edge 33, Type (0, 1), BuildingBlock: UVAHIK_clean_linker_0, # of connection points: 2
#     Edge 34, Type (0, 1), BuildingBlock: UVAHIK_clean_linker_0, # of connection points: 2
#     Edge 35, Type (0, 1), BuildingBlock: UVAHIK_clean_linker_0, # of connection points: 2
#     Edge 36, Type (0, 1), BuildingBlock: UVAHIK_clean_linker_0, # of connection points: 2
#     Edge 37, Type (0, 1), BuildingBlock: UVAHIK_clean_linker_0, # of connection points: 2
# Relax obj value: 0.008
# Max RMSD: 0.128
# Mean RMSD: 0.055
data_MOF--net-pto--node1-OLANEW_clean_sbu_2--node2-NAWXER_clean_linker_0--edge1-UVAHIK_clean_linker_0
_symmetry_space_group_name_H-M    P1
_symmetry_Int_Tables_number       1
_symmetry_cell_setting            triclinic
loop_
_symmetry_equiv_pos_as_xyz
'x, y, z'
_cell_length_a     52.153411
_cell_length_b     74.498107
_cell_length_c     63.171645
_cell_angle_alpha  92.612287
_cell_angle_beta   89.808209
_cell_angle_gamma 104.93319
loop_
_atom_site_label
_atom_site_type_symbol
_atom_site_fract_x
_atom_site_fract_y
_atom_site_fract_z
_atom_type_partial_charge
O0 O 0.33225 0.34387 0.29188 0.0
Cd1 Cd 0.30603 0.34673 0.32334 0.0
O2 O 0.36342 0.36952 0.29934 0.0
Cd3 Cd 0.33934 0.37769 0.32442 0.0
O4 O 0.30562 0.38771 0.33545 0.0
C5 C 0.28749 0.3864 0.32164 0.0
O6 O 0.29026 0.37893 0.3028 0.0
C7 C 0.35448 0.3549 0.28763 0.0
C8 C 0.30804 0.31817 0.3497 0.0
O9 O 0.28926 0.31621 0.33607 0.0
O10 O 0.32552 0.33383 0.3512 0.0
O11 O 0.26354 0.88681 0.79147 0.0
Cd12 Cd 0.23285 0.8965 0.76829 0.0
O13 O 0.25619 0.86101 0.77184 0.0
Cd14 Cd 0.25675 0.83222 0.76428 0.0
O15 O 0.24244 0.80244 0.75688 0.0
C16 C 0.23408 0.79165 0.77183 0.0
O17 O 0.23564 0.79868 0.79139 0.0
C18 C 0.26787 0.87098 0.78759 0.0
C19 C 0.25958 0.9182 0.73635 0.0
O20 O 0.25473 0.9256 0.75413 0.0
O21 O 0.25175 0.90046 0.73366 0.0
O22 O 0.7822 0.76612 0.29714 0.0
Cd23 Cd 0.77293 0.74164 0.26898 0.0
O24 O 0.74304 0.75576 0.31158 0.0
Cd25 Cd 0.72798 0.73718 0.28426 0.0
O26 O 0.71058 0.73576 0.25272 0.0
C27 C 0.71878 0.75042 0.24249 0.0
O28 O 0.73738 0.76419 0.25108 0.0
C29 C 0.76596 0.76706 0.31197 0.0
C30 C 0.80288 0.7162 0.27476 0.0
O31 O 0.81065 0.72953 0.26219 0.0
O32 O 0.78088 0.71484 0.28445 0.0
O33 O 0.72859 0.28807 0.61713 0.0
Cd34 Cd 0.69454 0.25971 0.60734 0.0
O35 O 0.71153 0.2874 0.64885 0.0
Cd36 Cd 0.70561 0.29761 0.68107 0.0
O37 O 0.69466 0.30443 0.71326 0.0
C38 C 0.6735 0.30965 0.71608 0.0
O39 O 0.6592 0.31115 0.69949 0.0
C40 C 0.72904 0.29525 0.6358 0.0
C41 C 0.7168 0.23046 0.59607 0.0
O42 O 0.71279 0.24152 0.58222 0.0
O43 O 0.71022 0.23323 0.61527 0.0
O44 O 0.76202 0.77079 0.65851 0.0
Cd45 Cd 0.74064 0.74351 0.67822 0.0
O46 O 0.76433 0.79026 0.6861 0.0
Cd47 Cd 0.743 0.76949 0.70753 0.0
O48 O 0.7156 0.75989 0.73325 0.0
C49 C 0.69123 0.75922 0.73049 0.0
O50 O 0.68337 0.76312 0.71191 0.0
C51 C 0.76898 0.78725 0.66667 0.0
C52 C 0.77418 0.72021 0.68306 0.0
O53 O 0.75969 0.71885 0.66641 0.0
O54 O 0.77276 0.73259 0.69749 0.0
O55 O 0.81346 0.26899 0.29145 0.0
Cd56 Cd 0.78413 0.23976 0.27745 0.0
O57 O 0.78066 0.2772 0.3078 0.0
Cd58 Cd 0.74999 0.25571 0.29122 0.0
O59 O 0.72197 0.25326 0.265 0.0
C60 C 0.72118 0.26903 0.25858 0.0
O61 O 0.73627 0.28405 0.26819 0.0
C62 C 0.80527 0.28031 0.30374 0.0
C63 C 0.78738 0.21006 0.30172 0.0
O64 O 0.80166 0.21401 0.28518 0.0
O65 O 0.7715 0.22011 0.30672 0.0
O66 O 0.29524 0.35459 0.7628 0.0
Cd67 Cd 0.26507 0.34263 0.7329 0.0
O68 O 0.32904 0.36842 0.74338 0.0
Cd69 Cd 0.30842 0.35709 0.71386 0.0
O70 O 0.29929 0.33602 0.68795 0.0
C71 C 0.29352 0.31922 0.6933 0.0
O72 O 0.2921 0.31584 0.71356 0.0
C73 C 0.31901 0.36445 0.76148 0.0
C74 C 0.22941 0.36412 0.72692 0.0
O75 O 0.22469 0.35122 0.74023 0.0
O76 O 0.25104 0.36688 0.71641 0.0
O77 O 0.36428 0.83814 0.29496 0.0
Cd78 Cd 0.3426 0.83167 0.32919 0.0
O79 O 0.32911 0.84274 0.27922 0.0
Cd80 Cd 0.30291 0.83213 0.30531 0.0
O81 O 0.27373 0.80922 0.31899 0.0
C82 C 0.28094 0.79443 0.32166 0.0
O83 O 0.30559 0.7943 0.31749 0.0
C84 C 0.35344 0.84262 0.27871 0.0
C85 C 0.34372 0.86438 0.35293 0.0
O86 O 0.36295 0.85664 0.35386 0.0
O87 O 0.32394 0.85661 0.34081 0.0
C88 C 0.98974 0.47183 0.31601 0.0
C89 C 0.97042 0.46624 0.33167 0.0
C90 C 0.00464 0.49031 0.31559 0.0
C91 C 0.00055 0.50358 0.33082 0.0
C92 C 0.96634 0.47966 0.34683 0.0
C93 C 0.9811 0.49818 0.34628 0.0
C94 C 0.01611 0.52317 0.3304 0.0
C95 C 0.07232 0.49006 0.35023 0.0
C96 C 0.09196 0.48965 0.33506 0.0
C97 C 0.0566 0.50261 0.34884 0.0
C98 C 0.06033 0.51495 0.33228 0.0
C99 C 0.09576 0.50215 0.31862 0.0
C100 C 0.08023 0.51478 0.31736 0.0
C101 C 0.04409 0.52842 0.33062 0.0
C102 C 0.06963 0.61176 0.34217 0.0
C103 C 0.09194 0.61656 0.32901 0.0
C104 C 0.05373 0.59349 0.34183 0.0
C105 C 0.0597 0.57972 0.32817 0.0
C106 C 0.09798 0.60268 0.31555 0.0
C107 C 0.0821 0.58445 0.31522 0.0
C108 C 0.04366 0.56017 0.32803 0.0
C109 C 0.99031 0.59323 0.30369 0.0
C110 C 0.9664 0.5918 0.3147 0.0
C111 C 0.00625 0.58126 0.3076 0.0
C112 C 0.99919 0.56799 0.32314 0.0
C113 C 0.95904 0.57814 0.32984 0.0
C114 C 0.97526 0.56641 0.33402 0.0
C115 C 0.01557 0.55486 0.32709 0.0
H116 H 0.99304 0.46202 0.30379 0.0
H117 H 0.01917 0.49428 0.30323 0.0
H118 H 0.95189 0.47585 0.35928 0.0
H119 H 0.97761 0.50825 0.35812 0.0
H120 H 0.06895 0.48057 0.36305 0.0
H121 H 0.04168 0.50275 0.36077 0.0
H122 H 0.11102 0.50233 0.3069 0.0
H123 H 0.08357 0.52431 0.30457 0.0
H124 H 0.06441 0.62213 0.35268 0.0
H125 H 0.03693 0.59009 0.35238 0.0
H126 H 0.11531 0.60581 0.30552 0.0
H127 H 0.0873 0.57402 0.30476 0.0
H128 H 0.99685 0.60362 0.29205 0.0
H129 H 0.02397 0.58232 0.29826 0.0
H130 H 0.9405 0.57626 0.33828 0.0
H131 H 0.96905 0.55603 0.34576 0.0
N132 N 0.00291 0.53656 0.32863 0.0
N133 N 0.05678 0.5467 0.32945 0.0
C134 C 0.9492 0.47225 0.67562 0.0
C135 C 0.92643 0.46603 0.68798 0.0
C136 C 0.9668 0.4896 0.68019 0.0
C137 C 0.962 0.50101 0.69727 0.0
C138 C 0.92169 0.4775 0.70504 0.0
C139 C 0.93922 0.49488 0.70953 0.0
C140 C 0.97972 0.51976 0.70171 0.0
C141 C 0.02804 0.47941 0.71553 0.0
C142 C 0.0522 0.48205 0.70459 0.0
C143 C 0.01334 0.49266 0.71515 0.0
C144 C 0.0221 0.50862 0.70337 0.0
C145 C 0.06103 0.49816 0.69302 0.0
C146 C 0.04615 0.51126 0.69241 0.0
C147 C 0.00762 0.52335 0.70357 0.0
C148 C 0.04046 0.60385 0.73314 0.0
C149 C 0.06412 0.60968 0.72172 0.0
C150 C 0.02292 0.5865 0.72845 0.0
C151 C 0.02854 0.57472 0.71209 0.0
C152 C 0.06971 0.59783 0.70538 0.0
C153 C 0.05217 0.58048 0.70071 0.0
C154 C 0.0109 0.5559 0.70772 0.0
C155 C 0.96218 0.5949 0.68995 0.0
C156 C 0.9402 0.59427 0.7031 0.0
C157 C 0.97646 0.58146 0.69107 0.0
C158 C 0.96898 0.56714 0.70533 0.0
C159 C 0.93286 0.57999 0.71745 0.0
C160 C 0.94697 0.56643 0.71839 0.0
C161 C 0.98306 0.55229 0.70581 0.0
H162 H 0.95341 0.46369 0.66242 0.0
H163 H 0.98395 0.49422 0.67021 0.0
H164 H 0.90411 0.47323 0.71464 0.0
H165 H 0.93498 0.50357 0.72261 0.0
H166 H 0.02048 0.46714 0.72449 0.0
H167 H 0.9954 0.49054 0.72441 0.0
H168 H 0.07979 0.50094 0.68479 0.0
H169 H 0.05359 0.52359 0.68349 0.0
H170 H 0.03548 0.61269 0.74573 0.0
H171 H 0.00522 0.58219 0.7379 0.0
H172 H 0.08795 0.60179 0.6965 0.0
H173 H 0.05709 0.57152 0.68821 0.0
H174 H 0.96831 0.60578 0.6788 0.0
H175 H 0.99307 0.58207 0.68054 0.0
H176 H 0.91581 0.57905 0.72758 0.0
H177 H 0.94071 0.55539 0.72933 0.0
N178 N 0.96855 0.53436 0.70302 0.0
N179 N 0.02206 0.54131 0.70642 0.0
C180 C 0.31156 0.15153 0.47598 0.0
C181 C 0.33313 0.16037 0.46356 0.0
C182 C 0.31334 0.13696 0.48852 0.0
C183 C 0.33675 0.131 0.48896 0.0
C184 C 0.35634 0.15406 0.46361 0.0
C185 C 0.35804 0.13936 0.47609 0.0
C186 C 0.33898 0.11623 0.50309 0.0
C187 C 0.34099 0.16744 0.54448 0.0
C188 C 0.31929 0.16535 0.55828 0.0
C189 C 0.34602 0.15196 0.53358 0.0
C190 C 0.3293 0.13412 0.53614 0.0
C191 C 0.30269 0.14744 0.56083 0.0
C192 C 0.30775 0.132 0.54997 0.0
C193 C 0.33444 0.11747 0.52507 0.0
C194 C 0.35583 0.04724 0.5565 0.0
C195 C 0.33656 0.04411 0.57246 0.0
C196 C 0.35645 0.06086 0.54181 0.0
C197 C 0.33738 0.07123 0.54256 0.0
C198 C 0.31757 0.05448 0.57315 0.0
C199 C 0.31799 0.06788 0.55838 0.0
C200 C 0.33825 0.08648 0.52809 0.0
C201 C 0.3244 0.03489 0.4857 0.0
C202 C 0.34543 0.03449 0.47187 0.0
C203 C 0.32361 0.05131 0.49695 0.0
C204 C 0.34392 0.06763 0.49469 0.0
C205 C 0.3657 0.05087 0.46957 0.0
C206 C 0.36481 0.06735 0.48074 0.0
C207 C 0.34263 0.08517 0.50603 0.0
H208 H 0.2935 0.15615 0.4764 0.0
H209 H 0.29653 0.13048 0.49811 0.0
H210 H 0.37315 0.16049 0.45399 0.0
H211 H 0.37618 0.13482 0.4761 0.0
H212 H 0.35442 0.18099 0.54245 0.0
H213 H 0.36319 0.15389 0.52343 0.0
H214 H 0.28563 0.14536 0.57112 0.0
H215 H 0.29462 0.11837 0.55222 0.0
H216 H 0.37085 0.03954 0.55579 0.0
H217 H 0.37216 0.06355 0.53023 0.0
H218 H 0.30231 0.0522 0.58514 0.0
H219 H 0.30312 0.0757 0.55938 0.0
H220 H 0.30857 0.02248 0.4879 0.0
H221 H 0.30696 0.0513 0.50726 0.0
H222 H 0.38198 0.05103 0.45882 0.0
H223 H 0.38048 0.07986 0.47857 0.0
N224 N 0.34304 0.10016 0.49437 0.0
N225 N 0.3342 0.10256 0.53666 0.0
C226 C 0.47218 0.82159 0.92903 0.0
C227 C 0.44444 0.81595 0.93092 0.0
C228 C 0.48855 0.81763 0.9447 0.0
C229 C 0.47741 0.80754 0.96225 0.0
C230 C 0.43336 0.80585 0.94843 0.0
C231 C 0.44968 0.80169 0.96392 0.0
C232 C 0.4941 0.80434 0.9799 0.0
C233 C 0.52073 0.77548 0.9226 0.0
C234 C 0.54779 0.78218 0.91786 0.0
C235 C 0.51064 0.78089 0.94171 0.0
C236 C 0.52737 0.79332 0.95626 0.0
C237 C 0.56443 0.79461 0.93248 0.0
C238 C 0.55433 0.80003 0.95151 0.0
C239 C 0.51759 0.7984 0.97711 0.0
C240 C 0.54277 0.78081 0.06531 0.0
C241 C 0.57059 0.78741 0.06531 0.0
C242 C 0.52753 0.78488 0.04894 0.0
C243 C 0.53975 0.7959 0.03242 0.0
C244 C 0.58278 0.79817 0.04854 0.0
C245 C 0.56751 0.8023 0.03223 0.0
C246 C 0.52396 0.79988 0.01464 0.0
C247 C 0.49834 0.82729 0.07299 0.0
C248 C 0.47135 0.82049 0.07791 0.0
C249 C 0.50801 0.82269 0.05336 0.0
C250 C 0.49095 0.811 0.03839 0.0
C251 C 0.45424 0.80916 0.06266 0.0
C252 C 0.46394 0.80453 0.04311 0.0
C253 C 0.50067 0.80604 0.01744 0.0
H254 H 0.4812 0.82965 0.91584 0.0
H255 H 0.50983 0.82292 0.94336 0.0
H256 H 0.41203 0.80126 0.95021 0.0
H257 H 0.44059 0.79403 0.97736 0.0
H258 H 0.5075 0.76568 0.91179 0.0
H259 H 0.48992 0.77507 0.94528 0.0
H260 H 0.58528 0.80022 0.92919 0.0
H261 H 0.56764 0.80953 0.96256 0.0
H262 H 0.53273 0.77258 0.07803 0.0
H263 H 0.5062 0.77928 0.04913 0.0
H264 H 0.60417 0.80319 0.04784 0.0
H265 H 0.57739 0.81055 0.01946 0.0
H266 H 0.51205 0.83601 0.08438 0.0
H267 H 0.5288 0.82833 0.04987 0.0
H268 H 0.43325 0.80401 0.06575 0.0
H269 H 0.45031 0.79574 0.03169 0.0
N270 N 0.48661 0.80786 -3e-05 0.0
N271 N 0.53159 0.79648 0.9946 0.0
C272 C 0.79131 0.05425 0.44757 0.0
C273 C 0.81088 0.06111 0.43252 0.0
C274 C 0.79406 0.04044 0.46098 0.0
C275 C 0.81641 0.03324 0.45954 0.0
C276 C 0.83302 0.05365 0.4309 0.0
C277 C 0.83563 0.0397 0.44418 0.0
C278 C 0.81973 0.0189 0.47391 0.0
C279 C 0.82935 0.07271 0.51088 0.0
C280 C 0.80931 0.07205 0.526 0.0
C281 C 0.83351 0.05631 0.50163 0.0
C282 C 0.81744 0.03896 0.5071 0.0
C283 C 0.79411 0.05463 0.53215 0.0
C284 C 0.79821 0.03825 0.52283 0.0
C285 C 0.81996 0.0215 0.49621 0.0
C286 C 0.84597 0.95102 0.52299 0.0
C287 C 0.82848 0.94664 0.54008 0.0
C288 C 0.84504 0.96565 0.51019 0.0
C289 C 0.82626 0.97595 0.514 0.0
C290 C 0.81059 0.95756 0.54446 0.0
C291 C 0.80956 0.97211 0.53158 0.0
C292 C 0.82351 0.99048 0.49956 0.0
C293 C 0.79883 0.93615 0.46239 0.0
C294 C 0.81382 0.93459 0.44416 0.0
C295 C 0.80155 0.95333 0.47311 0.0
C296 C 0.81992 0.96929 0.46628 0.0
C297 C 0.8319 0.95065 0.43715 0.0
C298 C 0.83487 0.96783 0.44808 0.0
C299 C 0.82229 0.98767 0.47723 0.0
H300 H 0.7741 0.05979 0.44922 0.0
H301 H 0.7788 0.03542 0.47253 0.0
H302 H 0.84823 0.05852 0.41926 0.0
H303 H 0.85288 0.03418 0.44271 0.0
H304 H 0.84173 0.08592 0.50612 0.0
H305 H 0.84903 0.05719 0.48999 0.0
H306 H 0.7784 0.05365 0.54363 0.0
H307 H 0.78571 0.02501 0.52739 0.0
H308 H 0.86031 0.94308 0.51947 0.0
H309 H 0.85871 0.96872 0.4971 0.0
H310 H 0.79675 0.95446 0.55744 0.0
H311 H 0.79506 0.97996 0.53493 0.0
H312 H 0.78488 0.9241 0.4684 0.0
H313 H 0.78902 0.95414 0.48664 0.0
H314 H 0.84338 0.95007 0.42294 0.0
H315 H 0.8488 0.98 0.44228 0.0
N316 N 0.82088 0.0021 0.46527 0.0
N317 N 0.82186 0.00719 0.50819 0.0
C318 C 0.50014 0.36092 0.94724 0.0
C319 C 0.47326 0.35226 0.94275 0.0
C320 C 0.51353 0.35467 0.96333 0.0
C321 C 0.50031 0.33966 0.97526 0.0
C322 C 0.46001 0.33745 0.95508 0.0
C323 C 0.47335 0.33134 0.97129 0.0
C324 C 0.51437 0.3327 0.99204 0.0
C325 C 0.54536 0.31732 0.92973 0.0
C326 C 0.5723 0.32601 0.92651 0.0
C327 C 0.53433 0.31755 0.94986 0.0
C328 C 0.54991 0.32673 0.96716 0.0
C329 C 0.58806 0.33472 0.94397 0.0
C330 C 0.57696 0.33501 0.96412 0.0
C331 C 0.5382 0.32738 0.98846 0.0
C332 C 0.55328 0.29402 0.07129 0.0
C333 C 0.58017 0.30256 0.07571 0.0
C334 C 0.54036 0.29969 0.05449 0.0
C335 C 0.55405 0.3141 0.04189 0.0
C336 C 0.59407 0.31646 0.06252 0.0
C337 C 0.58115 0.32208 0.04567 0.0
C338 C 0.54013 0.32109 0.025 0.0
C339 C 0.50833 0.33749 0.08704 0.0
C340 C 0.481 0.32978 0.08973 0.0
C341 C 0.51992 0.33644 0.06721 0.0
C342 C 0.50449 0.32735 0.04979 0.0
C343 C 0.46555 0.32093 0.0722 0.0
C344 C 0.47718 0.31978 0.05241 0.0
C345 C 0.51635 0.3265 0.02857 0.0
H346 H 0.51085 0.3726 0.9384 0.0
H347 H 0.53422 0.36157 0.96648 0.0
H348 H 0.43945 0.33025 0.95192 0.0
H349 H 0.46279 0.31979 0.9804 0.0
H350 H 0.53284 0.31012 0.91671 0.0
H351 H 0.51362 0.31049 0.95193 0.0
H352 H 0.60886 0.34159 0.94198 0.0
H353 H 0.5894 0.342 0.97729 0.0
H354 H 0.54202 0.28332 0.08119 0.0
H355 H 0.51955 0.29305 0.05156 0.0
H356 H 0.61491 0.32308 0.06532 0.0
H357 H 0.59214 0.33306 0.03598 0.0
H358 H 0.52064 0.34472 0.10015 0.0
H359 H 0.54087 0.34297 0.06545 0.0
H360 H 0.44447 0.31476 0.07383 0.0
H361 H 0.46486 0.31286 0.03915 0.0
N362 N 0.50428 0.33195 0.01191 0.0
N363 N 0.5503 0.32188 0.00511 0.0
C364 C 0.26121 0.40228 0.34606 0.0
C365 C 0.26447 0.39413 0.32606 0.0
C366 C 0.24019 0.41049 0.34966 0.0
C367 C 0.1756 0.41339 0.32703 0.0
H368 H 0.19175 0.46151 0.35725 0.0
C369 C 0.11369 0.46638 0.31816 0.0
C370 C 0.10873 0.47642 0.3364 0.0
C371 C 0.13048 0.45457 0.31913 0.0
C372 C 0.1868 0.44795 0.34906 0.0
H373 H 0.24788 0.38785 0.29431 0.0
H374 H 0.21173 0.4024 0.30042 0.0
H375 H 0.22522 0.44393 0.35506 0.0
H376 H 0.11719 0.48182 0.37 0.0
H377 H 0.14672 0.46116 0.37167 0.0
H378 H 0.13748 0.41778 0.32041 0.0
C379 C 0.22505 0.40222 0.31348 0.0
C380 C 0.20596 0.43784 0.34783 0.0
C381 C 0.24595 0.39398 0.30992 0.0
C382 C 0.12055 0.47416 0.35572 0.0
C383 C 0.13758 0.46246 0.35665 0.0
C384 C 0.15652 0.42355 0.32814 0.0
C385 C 0.22203 0.41074 0.33332 0.0
C386 C 0.20076 0.42059 0.33647 0.0
C387 C 0.14285 0.45264 0.33832 0.0
C388 C 0.16209 0.44108 0.33886 0.0
H389 H 0.27507 0.40254 0.35887 0.0
H390 H 0.23824 0.41672 0.36521 0.0
H391 H 0.17073 0.39997 0.31852 0.0
H392 H 0.10465 0.46773 0.3031 0.0
H393 H 0.13437 0.44732 0.3047 0.0
C394 C 0.20988 0.76016 0.78357 0.0
C395 C 0.22041 0.77185 0.7671 0.0
C396 C 0.19494 0.74194 0.77905 0.0
C397 C 0.17874 0.70455 0.73675 0.0
H398 H 0.11354 0.68818 0.76822 0.0
C399 C 0.09595 0.63928 0.71109 0.0
C400 C 0.08314 0.62788 0.72713 0.0
C401 C 0.11384 0.65641 0.71623 0.0
C402 C 0.13184 0.69242 0.75947 0.0
H403 H 0.22427 0.77336 0.73297 0.0
H404 H 0.19801 0.74164 0.7251 0.0
H405 H 0.14338 0.71857 0.77687 0.0
H406 H 0.07957 0.62531 0.76114 0.0
H407 H 0.11072 0.65518 0.7701 0.0
H408 H 0.16698 0.67842 0.71921 0.0
C409 C 0.20148 0.7465 0.74152 0.0
C410 C 0.14897 0.70985 0.76445 0.0
C411 C 0.21643 0.76472 0.74604 0.0
C412 C 0.08874 0.63392 0.74841 0.0
C413 C 0.10662 0.65103 0.75355 0.0
C414 C 0.16157 0.6871 0.73177 0.0
C415 C 0.19019 0.735 0.75796 0.0
C416 C 0.17258 0.71615 0.75311 0.0
C417 C 0.11932 0.6625 0.73753 0.0
C418 C 0.13787 0.68087 0.74302 0.0
H419 H 0.21271 0.76518 0.79998 0.0
H420 H 0.1869 0.73333 0.79209 0.0
H421 H 0.19692 0.70891 0.72789 0.0
H422 H 0.09182 0.63512 0.69454 0.0
H423 H 0.12299 0.66504 0.70351 0.0
C424 C 0.83873 0.70103 0.26376 0.0
C425 C 0.81902 0.70293 0.27824 0.0
C426 C 0.85413 0.68858 0.26717 0.0
C427 C 0.85692 0.64829 0.29943 0.0
H428 H 0.93064 0.66113 0.28228 0.0
C429 C 0.93448 0.61048 0.32653 0.0
C430 C 0.94912 0.60435 0.31023 0.0
C431 C 0.91818 0.62215 0.3223 0.0
C432 C 0.91003 0.65735 0.28703 0.0
H433 H 0.80013 0.69348 0.30777 0.0
H434 H 0.82765 0.67241 0.31425 0.0
H435 H 0.90319 0.68234 0.2758 0.0
H436 H 0.95754 0.60563 0.27652 0.0
H437 H 0.92997 0.62663 0.26946 0.0
H438 H 0.86434 0.62359 0.31138 0.0
C439 C 0.83075 0.68 0.29986 0.0
C440 C 0.8942 0.66942 0.28321 0.0
C441 C 0.81505 0.69219 0.29623 0.0
C442 C 0.9471 0.61034 0.28961 0.0
C443 C 0.93117 0.62227 0.28548 0.0
C444 C 0.87292 0.63639 0.30358 0.0
C445 C 0.8505 0.67799 0.28536 0.0
C446 C 0.86738 0.66505 0.28932 0.0
C447 C 0.91651 0.62822 0.30177 0.0
C448 C 0.89958 0.64081 0.29737 0.0
H449 H 0.84209 0.70902 0.24965 0.0
H450 H 0.86871 0.68718 0.25541 0.0
H451 H 0.83627 0.64419 0.30398 0.0
H452 H 0.93586 0.60651 0.34268 0.0
H453 H 0.90724 0.62672 0.33516 0.0
C454 C 0.7586 0.31672 0.66263 0.0
C455 C 0.74923 0.31267 0.64168 0.0
C456 C 0.77788 0.33318 0.6679 0.0
C457 C 0.80838 0.38002 0.64841 0.0
H458 H 0.86459 0.37969 0.68831 0.0
C459 C 0.89934 0.44262 0.66163 0.0
C460 C 0.90719 0.4479 0.68275 0.0
C461 C 0.88041 0.42592 0.65676 0.0
C462 C 0.84888 0.38003 0.67728 0.0
H463 H 0.75333 0.32237 0.60971 0.0
H464 H 0.7873 0.35087 0.61878 0.0
H465 H 0.83073 0.35095 0.67961 0.0
H466 H 0.90184 0.43961 0.71526 0.0
H467 H 0.86863 0.41045 0.70676 0.0
H468 H 0.82669 0.40905 0.64595 0.0
C469 C 0.77927 0.34162 0.63128 0.0
C470 C 0.82943 0.36358 0.67233 0.0
C471 C 0.75996 0.32521 0.62604 0.0
C472 C 0.89601 0.43598 0.69886 0.0
C473 C 0.87718 0.41922 0.69398 0.0
C474 C 0.82787 0.39642 0.65328 0.0
C475 C 0.78841 0.34586 0.65229 0.0
C476 C 0.80896 0.36337 0.6578 0.0
C477 C 0.86901 0.41409 0.67289 0.0
C478 C 0.84836 0.39661 0.66774 0.0
H479 H 0.75158 0.30701 0.67487 0.0
H480 H 0.78444 0.33601 0.68425 0.0
H481 H 0.79264 0.38044 0.63745 0.0
H482 H 0.90743 0.45158 0.64889 0.0
H483 H 0.87471 0.42225 0.64035 0.0
C484 C 0.29011 0.28578 0.3617 0.0
C485 C 0.31006 0.30258 0.36273 0.0
C486 C 0.29266 0.27071 0.37315 0.0
C487 C 0.34283 0.25109 0.39715 0.0
H488 H 0.28291 0.22118 0.42697 0.0
C489 C 0.35247 0.19258 0.45132 0.0
C490 C 0.33145 0.17639 0.45103 0.0
C491 C 0.3502 0.20809 0.44055 0.0
C492 C 0.29976 0.22924 0.4185 0.0
H493 H 0.34815 0.31684 0.37685 0.0
H494 H 0.35256 0.29051 0.39686 0.0
H495 H 0.27801 0.24823 0.40867 0.0
H496 H 0.29199 0.16348 0.43861 0.0
H497 H 0.28815 0.1904 0.41955 0.0
H498 H 0.36451 0.23201 0.40673 0.0
C499 C 0.33505 0.28897 0.38705 0.0
C500 C 0.29695 0.24476 0.40807 0.0
C501 C 0.33243 0.30408 0.3757 0.0
C502 C 0.30836 0.17587 0.43937 0.0
C503 C 0.30614 0.19132 0.42852 0.0
C504 C 0.34561 0.23551 0.4075 0.0
C505 C 0.31528 0.27209 0.38578 0.0
C506 C 0.31843 0.25584 0.39725 0.0
C507 C 0.32691 0.2077 0.42916 0.0
C508 C 0.32408 0.22435 0.41824 0.0
H509 H 0.27264 0.28416 0.35184 0.0
H510 H 0.2772 0.25783 0.3717 0.0
H511 H 0.35964 0.25922 0.3887 0.0
H512 H 0.37037 0.19346 0.4604 0.0
H513 H 0.36645 0.22054 0.4416 0.0
C514 C 0.28728 0.86967 0.82328 0.0
C515 C 0.28558 0.86427 0.80166 0.0
C516 C 0.30473 0.86404 0.83663 0.0
C517 C 0.34583 0.83022 0.8403 0.0
H518 H 0.38078 0.86494 0.88534 0.0
C519 C 0.43054 0.81864 0.89342 0.0
C520 C 0.42701 0.82134 0.91529 0.0
C521 C 0.41382 0.82369 0.87882 0.0
C522 C 0.37107 0.85508 0.87288 0.0
H523 H 0.30133 0.84924 0.77685 0.0
H524 H 0.33216 0.8396 0.80004 0.0
H525 H 0.35068 0.87406 0.86113 0.0
H526 H 0.40367 0.83171 0.93905 0.0
H527 H 0.3747 0.84072 0.91357 0.0
H528 H 0.36684 0.8114 0.85201 0.0
C529 C 0.31943 0.8477 0.80688 0.0
C530 C 0.35369 0.86024 0.85906 0.0
C531 C 0.30171 0.85317 0.79358 0.0
C532 C 0.40667 0.82933 0.92228 0.0
C533 C 0.39025 0.83461 0.90772 0.0
C534 C 0.36351 0.82515 0.854 0.0
C535 C 0.32126 0.85315 0.82857 0.0
C536 C 0.34055 0.8478 0.84275 0.0
C537 C 0.39362 0.83182 0.88586 0.0
C538 C 0.37603 0.83746 0.87057 0.0
H539 H 0.27499 0.87819 0.82993 0.0
H540 H 0.30514 0.86819 0.8533 0.0
H541 H 0.33587 0.82019 0.8281 0.0
H542 H 0.44603 0.81244 0.88765 0.0
H543 H 0.4169 0.82149 0.86204 0.0
C544 C 0.79826 0.7945 0.32973 0.0
C545 C 0.77279 0.78217 0.32865 0.0
C546 C 0.80373 0.80995 0.34399 0.0
C547 C 0.76999 0.84157 0.37077 0.0
H548 H 0.83379 0.85786 0.40532 0.0
C549 C 0.78444 0.90419 0.43001 0.0
C550 C 0.80991 0.9164 0.43217 0.0
C551 C 0.78056 0.88725 0.41851 0.0
C552 C 0.81603 0.85363 0.39557 0.0
H553 H 0.73343 0.776 0.34237 0.0
H554 H 0.74298 0.80299 0.3671 0.0
H555 H 0.82619 0.82898 0.3835 0.0
H556 H 0.85138 0.92008 0.42414 0.0
H557 H 0.84442 0.89087 0.40332 0.0
H558 H 0.76003 0.8663 0.38216 0.0
C559 C 0.75863 0.80075 0.3568 0.0
C560 C 0.81166 0.83706 0.38316 0.0
C561 C 0.75323 0.78524 0.3427 0.0
C562 C 0.83143 0.91115 0.42258 0.0
C563 C 0.8275 0.89425 0.41089 0.0
C564 C 0.77446 0.85819 0.38295 0.0
C565 C 0.78376 0.81345 0.3573 0.0
C566 C 0.78852 0.83084 0.37073 0.0
C567 C 0.80197 0.88213 0.40861 0.0
C568 C 0.79746 0.86441 0.3956 0.0
H569 H 0.8138 0.7925 0.31916 0.0
H570 H 0.82324 0.81956 0.344 0.0
H571 H 0.75222 0.83729 0.36101 0.0
H572 H 0.76731 0.90782 0.43689 0.0
H573 H 0.76068 0.87816 0.41742 0.0
C574 C 0.67922 0.31102 0.7556 0.0
C575 C 0.66443 0.31316 0.73775 0.0
C576 C 0.67001 0.31357 0.77604 0.0
C577 C 0.60834 0.31271 0.805 0.0
H578 H 0.65598 0.3379 0.8503 0.0
C579 C 0.56962 0.32897 0.88724 0.0
C580 C 0.58382 0.32588 0.90499 0.0
C581 C 0.58002 0.32832 0.86691 0.0
C582 C 0.64247 0.33067 0.83786 0.0
H583 H 0.62863 0.32005 0.72742 0.0
H584 H 0.6127 0.32462 0.76305 0.0
H585 H 0.67321 0.33525 0.81462 0.0
H586 H 0.62015 0.31977 0.91531 0.0
H587 H 0.63829 0.31856 0.87976 0.0
H588 H 0.57765 0.30797 0.82819 0.0
C589 C 0.63124 0.32072 0.76123 0.0
C590 C 0.65234 0.32917 0.81743 0.0
C591 C 0.64046 0.31821 0.74081 0.0
C592 C 0.60886 0.32241 0.90197 0.0
C593 C 0.61926 0.32174 0.88161 0.0
C594 C 0.59849 0.31419 0.82541 0.0
C595 C 0.64579 0.31827 0.77909 0.0
C596 C 0.63537 0.32016 0.80077 0.0
C597 C 0.60486 0.32455 0.86382 0.0
C598 C 0.61543 0.32319 0.84209 0.0
H599 H 0.69777 0.30713 0.7538 0.0
H600 H 0.68156 0.3114 0.78945 0.0
H601 H 0.59483 0.30539 0.79261 0.0
H602 H 0.55049 0.33201 0.88908 0.0
H603 H 0.56864 0.33089 0.85359 0.0
C604 C 0.28093 0.94931 0.72226 0.0
C605 C 0.27336 0.92985 0.7193 0.0
C606 C 0.29296 0.96041 0.70593 0.0
C607 C 0.29824 0.95995 0.64792 0.0
H608 H 0.35183 0.00617 0.65975 0.0
C609 C 0.3373 0.01215 0.58295 0.0
C610 C 0.33628 0.03038 0.58873 0.0
C611 C 0.3345 0.99884 0.59832 0.0
C612 C 0.33691 0.99328 0.6562 0.0
H613 H 0.27312 0.90675 0.69704 0.0
H614 H 0.29434 0.92618 0.66854 0.0
H615 H 0.33775 0.98448 0.6879 0.0
H616 H 0.33304 0.0493 0.61509 0.0
H617 H 0.32813 0.02616 0.64185 0.0
H618 H 0.29697 0.96899 0.61635 0.0
C619 C 0.29066 0.93284 0.68343 0.0
C620 C 0.32879 0.98089 0.67232 0.0
C621 C 0.27859 0.92171 0.69978 0.0
C622 C 0.3336 0.03528 0.61019 0.0
C623 C 0.33107 0.02208 0.62553 0.0
C624 C 0.30645 0.97232 0.63177 0.0
C625 C 0.29776 0.95233 0.68626 0.0
C626 C 0.30884 0.96432 0.66852 0.0
C627 C 0.33101 0.00363 0.61973 0.0
C628 C 0.32534 0.98934 0.6359 0.0
H629 H 0.27718 0.95602 0.7371 0.0
H630 H 0.29777 0.97538 0.70855 0.0
H631 H 0.28266 0.9474 0.6445 0.0
H632 H 0.3393 0.00803 0.56648 0.0
H633 H 0.33468 0.98474 0.59344 0.0
C634 C 0.68443 0.73892 0.21384 0.0
C635 C 0.70596 0.75283 0.22232 0.0
C636 C 0.67096 0.74201 0.1958 0.0
C637 C 0.65725 0.78035 0.16711 0.0
H638 H 0.63298 0.74289 0.12188 0.0
C639 C 0.60891 0.7966 0.09097 0.0
C640 C 0.58685 0.78304 0.08267 0.0
C641 C 0.62411 0.79255 0.10737 0.0
C642 C 0.63938 0.75343 0.1345 0.0
H643 H 0.73092 0.78061 0.218 0.0
H644 H 0.70756 0.78592 0.18656 0.0
H645 H 0.65865 0.73621 0.15143 0.0
H646 H 0.56375 0.75447 0.08493 0.0
H647 H 0.58984 0.74757 0.11395 0.0
H648 H 0.63777 0.79749 0.15046 0.0
C649 C 0.70081 0.77274 0.19403 0.0
C650 C 0.65412 0.7496 0.15139 0.0
C651 C 0.71429 0.76964 0.21198 0.0
C652 C 0.58042 0.76531 0.09112 0.0
C653 C 0.59559 0.76127 0.10758 0.0
C654 C 0.64247 0.78415 0.1503 0.0
C655 C 0.67872 0.7591 0.18595 0.0
C656 C 0.66326 0.76305 0.16785 0.0
C657 C 0.61757 0.77487 0.11595 0.0
C658 C 0.63338 0.77075 0.13377 0.0
H659 H 0.67753 0.72581 0.22143 0.0
H660 H 0.65391 0.73127 0.19001 0.0
H661 H 0.66358 0.79088 0.17975 0.0
H662 H 0.61427 0.81045 0.08497 0.0
H663 H 0.6411 0.80329 0.11327 0.0
C664 C 0.73637 0.21234 0.56902 0.0
C665 C 0.72854 0.21489 0.59001 0.0
C666 C 0.74715 0.19752 0.56322 0.0
C667 C 0.74931 0.15108 0.57922 0.0
H668 H 0.80874 0.15796 0.54068 0.0
C669 C 0.79752 0.09149 0.5562 0.0
C670 C 0.80344 0.08942 0.53464 0.0
C671 C 0.79041 0.10738 0.56399 0.0
C672 C 0.79201 0.15578 0.55133 0.0
H673 H 0.7261 0.20397 0.62143 0.0
H674 H 0.745 0.17812 0.61127 0.0
H675 H 0.79232 0.1846 0.55233 0.0
H676 H 0.80662 0.10243 0.50439 0.0
H677 H 0.79415 0.1301 0.51795 0.0
H678 H 0.74869 0.12223 0.57799 0.0
C679 C 0.74257 0.1875 0.59928 0.0
C680 C 0.78261 0.17104 0.558 0.0
C681 C 0.73186 0.20236 0.6051 0.0
C682 C 0.80258 0.10374 0.52114 0.0
C683 C 0.79543 0.1196 0.52893 0.0
C684 C 0.75867 0.13581 0.57252 0.0
C685 C 0.75027 0.18488 0.57825 0.0
C686 C 0.76102 0.16884 0.57188 0.0
C687 C 0.78901 0.12154 0.5504 0.0
C688 C 0.77999 0.13796 0.55836 0.0
H689 H 0.73405 0.22173 0.55701 0.0
H690 H 0.75257 0.19575 0.54683 0.0
H691 H 0.73241 0.14887 0.5897 0.0
H692 H 0.79836 0.08081 0.56705 0.0
H693 H 0.786 0.10858 0.58069 0.0
C694 C 0.39171 0.36436 0.2619 0.0
C695 C 0.36932 0.35101 0.26871 0.0
C696 C 0.40471 0.36109 0.2433 0.0
C697 C 0.43621 0.34727 0.20851 0.0
H698 H 0.39229 0.32372 0.16044 0.0
C699 C 0.48088 0.32814 0.12934 0.0
C700 C 0.46855 0.33135 0.11064 0.0
C701 C 0.46917 0.32977 0.14902 0.0
C702 C 0.40485 0.33043 0.17366 0.0
H703 H 0.3436 0.32346 0.2617 0.0
H704 H 0.36655 0.31763 0.22953 0.0
H705 H 0.37159 0.32822 0.19412 0.0
H706 H 0.43456 0.33911 0.09795 0.0
H707 H 0.41426 0.34213 0.13225 0.0
H708 H 0.4694 0.35007 0.18777 0.0
C709 C 0.37373 0.33081 0.23829 0.0
C710 C 0.393 0.33278 0.19308 0.0
C711 C 0.36066 0.33411 0.25682 0.0
C712 C 0.44431 0.33625 0.11205 0.0
C713 C 0.43267 0.33796 0.13171 0.0
C714 C 0.44807 0.34498 0.18904 0.0
C715 C 0.39569 0.34436 0.23114 0.0
C716 C 0.40852 0.34131 0.21072 0.0
C717 C 0.44493 0.33472 0.15044 0.0
C718 C 0.4325 0.33663 0.17134 0.0
H719 H 0.39887 0.37755 0.27067 0.0
H720 H 0.42137 0.37192 0.23813 0.0
H721 H 0.44877 0.35371 0.22183 0.0
H722 H 0.49942 0.32414 0.12871 0.0
H723 H 0.47895 0.32692 0.16311 0.0
C724 C 0.80403 0.70694 0.70517 0.0
C725 C 0.79201 0.70787 0.6855 0.0
C726 C 0.82069 0.69514 0.70746 0.0
C727 C 0.86346 0.67127 0.67751 0.0
H728 H 0.85317 0.63841 0.72441 0.0
C729 C 0.91656 0.61252 0.68151 0.0
C730 C 0.92449 0.60815 0.70144 0.0
C731 C 0.90107 0.62516 0.67989 0.0
C732 C 0.85665 0.6477 0.71141 0.0
H733 H 0.78823 0.69727 0.65279 0.0
H734 H 0.8176 0.67685 0.65677 0.0
H735 H 0.82514 0.65978 0.72113 0.0
H736 H 0.92298 0.61388 0.73527 0.0
H737 H 0.89652 0.63635 0.73251 0.0
H738 H 0.89522 0.65953 0.66791 0.0
C739 C 0.81408 0.68524 0.67039 0.0
C740 C 0.8405 0.65989 0.70951 0.0
C741 C 0.79716 0.69686 0.66815 0.0
C742 C 0.91689 0.61685 0.71972 0.0
C743 C 0.90163 0.62966 0.71811 0.0
C744 C 0.87983 0.65924 0.67953 0.0
C745 C 0.82595 0.68422 0.69008 0.0
C746 C 0.84361 0.67169 0.69246 0.0
C747 C 0.89337 0.63391 0.69817 0.0
C748 C 0.87651 0.64718 0.69641 0.0
H749 H 0.80043 0.71524 0.71884 0.0
H750 H 0.82973 0.69471 0.72278 0.0
H751 H 0.86652 0.68041 0.66436 0.0
H752 H 0.92183 0.60582 0.66716 0.0
H753 H 0.89469 0.62777 0.6643 0.0
C754 C 0.8509 0.30208 0.30664 0.0
C755 C 0.82375 0.29797 0.3116 0.0
C756 C 0.86755 0.31971 0.31171 0.0
C757 C 0.8641 0.36789 0.31905 0.0
H758 H 0.93576 0.37731 0.34129 0.0
C759 C 0.92717 0.44251 0.33708 0.0
C760 C 0.95423 0.4466 0.33187 0.0
C761 C 0.91174 0.42414 0.33661 0.0
C762 C 0.91589 0.37491 0.33485 0.0
H763 H 0.79315 0.30889 0.32678 0.0
H764 H 0.82218 0.33957 0.33552 0.0
H765 H 0.90822 0.34536 0.33727 0.0
H766 H 0.98639 0.43438 0.32266 0.0
H767 H 0.95925 0.40244 0.32097 0.0
H768 H 0.87178 0.3972 0.31594 0.0
C769 C 0.8305 0.32922 0.32753 0.0
C770 C 0.90011 0.35662 0.33264 0.0
C771 C 0.81392 0.31159 0.3226 0.0
C772 C 0.96553 0.4318 0.32645 0.0
C773 C 0.95003 0.41342 0.32579 0.0
C774 C 0.8799 0.38611 0.32107 0.0
C775 C 0.85733 0.3336 0.3217 0.0
C776 C 0.87404 0.35294 0.32473 0.0
C777 C 0.92287 0.40936 0.3307 0.0
C778 C 0.906 0.38989 0.329 0.0
H779 H 0.85912 0.29189 0.29821 0.0
H780 H 0.88813 0.32273 0.30695 0.0
H781 H 0.84425 0.36546 0.31252 0.0
H782 H 0.91768 0.45352 0.34112 0.0
H783 H 0.89101 0.42155 0.34082 0.0
C784 C 0.2124 0.38654 0.70614 0.0
C785 C 0.21044 0.37552 0.72382 0.0
C786 C 0.19442 0.39728 0.7032 0.0
C787 C 0.12877 0.40308 0.72142 0.0
H788 H 0.15384 0.4515 0.69758 0.0
C789 C 0.07026 0.4595 0.72472 0.0
C790 C 0.06863 0.46845 0.7058 0.0
C791 C 0.08653 0.44733 0.72611 0.0
C792 C 0.14653 0.43793 0.70408 0.0
H793 H 0.1883 0.36723 0.75242 0.0
H794 H 0.15758 0.38643 0.74778 0.0
H795 H 0.18453 0.43217 0.70188 0.0
H796 H 0.08237 0.47103 0.6733 0.0
H797 H 0.11138 0.45025 0.67606 0.0
H798 H 0.09095 0.40929 0.72424 0.0
C799 C 0.17246 0.38642 0.73578 0.0
C800 C 0.16407 0.42679 0.70648 0.0
C801 C 0.19021 0.37549 0.73855 0.0
C802 C 0.0835 0.46472 0.68826 0.0
C803 C 0.10004 0.45276 0.68978 0.0
C804 C 0.11134 0.41435 0.71929 0.0
C805 C 0.17427 0.39745 0.71805 0.0
C806 C 0.15545 0.40921 0.7152 0.0
C807 C 0.1018 0.44402 0.70874 0.0
C808 C 0.12007 0.43188 0.7106 0.0
H809 H 0.22766 0.38674 0.69441 0.0
H810 H 0.19619 0.40529 0.68916 0.0
H811 H 0.12123 0.3895 0.7278 0.0
H812 H 0.05954 0.46224 0.73868 0.0
H813 H 0.08775 0.44091 0.741 0.0
C814 C 0.26931 0.7605 0.32852 0.0
C815 C 0.26128 0.77699 0.32677 0.0
C816 C 0.25056 0.74357 0.33089 0.0
C817 C 0.18071 0.72199 0.34463 0.0
H818 H 0.19094 0.68104 0.30832 0.0
C819 C 0.11631 0.64599 0.34893 0.0
C820 C 0.1093 0.63584 0.32956 0.0
C821 C 0.13394 0.66369 0.34945 0.0
C822 C 0.18769 0.69236 0.31845 0.0
H823 H 0.2273 0.78876 0.32715 0.0
H824 H 0.19453 0.75914 0.33117 0.0
H825 H 0.22366 0.71096 0.30852 0.0
H826 H 0.11434 0.63671 0.29549 0.0
H827 H 0.14512 0.66751 0.29642 0.0
H828 H 0.14441 0.70333 0.35426 0.0
C829 C 0.21536 0.75934 0.3308 0.0
C830 C 0.20662 0.70945 0.31878 0.0
C831 C 0.23415 0.7763 0.32841 0.0
C832 C 0.11975 0.64399 0.31071 0.0
C833 C 0.13738 0.66165 0.31124 0.0
C834 C 0.16176 0.70482 0.34436 0.0
C835 C 0.22334 0.74273 0.33157 0.0
C836 C 0.20336 0.72447 0.33184 0.0
C837 C 0.14496 0.67159 0.33063 0.0
C838 C 0.165 0.68985 0.33117 0.0
H839 H 0.29006 0.76054 0.3275 0.0
H840 H 0.25737 0.73107 0.33184 0.0
H841 H 0.17771 0.73328 0.35493 0.0
H842 H 0.10884 0.64002 0.36375 0.0
H843 H 0.13959 0.67094 0.36465 0.0
C844 C 0.78588 0.8002 0.63177 0.0
C845 C 0.78109 0.8031 0.65342 0.0
C846 C 0.79534 0.81532 0.619 0.0
C847 C 0.82628 0.86633 0.62098 0.0
H848 H 0.79159 0.86398 0.56636 0.0
C849 C 0.82562 0.93135 0.57492 0.0
C850 C 0.82808 0.93029 0.55277 0.0
C851 C 0.82352 0.91562 0.5867 0.0
C852 C 0.80178 0.86477 0.58142 0.0
H853 H 0.78329 0.82418 0.67872 0.0
H854 H 0.79932 0.85042 0.65645 0.0
H855 H 0.78166 0.83674 0.58779 0.0
H856 H 0.83061 0.91194 0.52563 0.0
H857 H 0.82714 0.88448 0.54623 0.0
H858 H 0.8458 0.89459 0.61478 0.0
C859 C 0.79614 0.8365 0.64935 0.0
C860 C 0.79613 0.84913 0.59371 0.0
C861 C 0.78676 0.82142 0.66211 0.0
C862 C 0.82897 0.91324 0.5427 0.0
C863 C 0.82672 0.89748 0.55446 0.0
C864 C 0.83185 0.882 0.60872 0.0
C865 C 0.80019 0.83366 0.62758 0.0
C866 C 0.80802 0.84979 0.61377 0.0
C867 C 0.82369 0.89845 0.57656 0.0
C868 C 0.81939 0.88146 0.58892 0.0
H869 H 0.78187 0.78627 0.62459 0.0
H870 H 0.79862 0.81264 0.60235 0.0
H871 H 0.83614 0.86722 0.6362 0.0
H872 H 0.82511 0.94434 0.58314 0.0
H873 H 0.82096 0.91678 0.60368 0.0
C874 C 0.70376 0.28847 0.234 0.0
C875 C 0.70415 0.27075 0.24047 0.0
C876 C 0.68822 0.29041 0.21676 0.0
C877 C 0.65573 0.26596 0.16823 0.0
H878 H 0.61981 0.30557 0.17048 0.0
C879 C 0.58942 0.27891 0.09973 0.0
C880 C 0.59337 0.29757 0.09452 0.0
C881 C 0.60138 0.27439 0.11783 0.0
C882 C 0.62986 0.29452 0.16956 0.0
H883 H 0.68839 0.24111 0.23394 0.0
H884 H 0.66097 0.24453 0.20376 0.0
H885 H 0.64283 0.29966 0.20184 0.0
H886 H 0.61276 0.32612 0.1043 0.0
H887 H 0.6338 0.31824 0.13569 0.0
H888 H 0.64283 0.26098 0.13581 0.0
C889 C 0.67293 0.25692 0.21199 0.0
C890 C 0.64305 0.29113 0.18753 0.0
C891 C 0.68852 0.25496 0.22933 0.0
C892 C 0.60956 0.3116 0.10775 0.0
C893 C 0.62136 0.3071 0.12587 0.0
C894 C 0.64242 0.26933 0.15023 0.0
C895 C 0.67262 0.27469 0.20554 0.0
C896 C 0.65658 0.27705 0.18697 0.0
C897 C 0.61731 0.28846 0.13118 0.0
C898 C 0.62978 0.28388 0.15061 0.0
H899 H 0.71562 0.30094 0.24215 0.0
H900 H 0.68883 0.3043 0.212 0.0
H901 H 0.66614 0.25512 0.16723 0.0
H902 H 0.57717 0.26779 0.08975 0.0
H903 H 0.59781 0.25991 0.12157 0.0
C904 C 0.29605 0.30732 0.65572 0.0
C905 C 0.29105 0.30378 0.67722 0.0
C906 C 0.29604 0.29274 0.64094 0.0
C907 C 0.27486 0.24138 0.63292 0.0
H908 H 0.33418 0.24865 0.59423 0.0
C909 C 0.30636 0.18022 0.59165 0.0
C910 C 0.31422 0.18166 0.57036 0.0
C911 C 0.30149 0.19545 0.60309 0.0
C912 C 0.31727 0.24647 0.6047 0.0
H913 H 0.2812 0.28209 0.69992 0.0
H914 H 0.28138 0.25679 0.67427 0.0
H915 H 0.32843 0.27471 0.61687 0.0
H916 H 0.32292 0.20025 0.54434 0.0
H917 H 0.31458 0.22696 0.56443 0.0
H918 H 0.26404 0.21304 0.62107 0.0
C919 C 0.28509 0.27077 0.66874 0.0
C920 C 0.31395 0.26141 0.61765 0.0
C921 C 0.28515 0.28532 0.68349 0.0
C922 C 0.3172 0.19875 0.56079 0.0
C923 C 0.31238 0.21403 0.57227 0.0
C924 C 0.27821 0.22645 0.61999 0.0
C925 C 0.29092 0.27433 0.64736 0.0
C926 C 0.29295 0.25895 0.63216 0.0
C927 C 0.30442 0.21253 0.59354 0.0
C928 C 0.2997 0.22875 0.606 0.0
H929 H 0.30058 0.32139 0.65036 0.0
H930 H 0.30029 0.29591 0.62453 0.0
H931 H 0.25822 0.23911 0.64366 0.0
H932 H 0.30439 0.16738 0.59964 0.0
H933 H 0.29592 0.19394 0.61957 0.0
C934 C 0.39411 0.8435 0.25705 0.0
C935 C 0.36831 0.84594 0.25862 0.0
C936 C 0.40669 0.84406 0.23742 0.0
C937 C 0.3894 0.83508 0.18111 0.0
H938 H 0.46509 0.85406 0.17272 0.0
C939 C 0.44202 0.81149 0.10928 0.0
C940 C 0.46092 0.82509 0.09883 0.0
C941 C 0.43151 0.81583 0.1286 0.0
C942 C 0.44389 0.84885 0.17478 0.0
H943 H 0.33621 0.85212 0.24099 0.0
H944 H 0.35826 0.85327 0.20684 0.0
H945 H 0.44565 0.85995 0.20681 0.0
H946 H 0.48372 0.85394 0.10065 0.0
H947 H 0.46544 0.86148 0.1346 0.0
H948 H 0.38757 0.82392 0.14921 0.0
C949 C 0.36856 0.85056 0.22072 0.0
C950 C 0.4328 0.85209 0.19433 0.0
C951 C 0.35598 0.85 0.24033 0.0
C952 C 0.4694 0.84309 0.10839 0.0
C953 C 0.45892 0.84742 0.12781 0.0
C954 C 0.40048 0.83179 0.16165 0.0
C955 C 0.39374 0.84708 0.21894 0.0
C956 C 0.40545 0.84507 0.19778 0.0
C957 C 0.43967 0.83387 0.13801 0.0
C958 C 0.42788 0.83841 0.15835 0.0
H959 H 0.40421 0.84039 0.27082 0.0
H960 H 0.42601 0.8412 0.23658 0.0
H961 H 0.36833 0.82928 0.18329 0.0
H962 H 0.43547 0.7974 0.1026 0.0
H963 H 0.41711 0.80498 0.13629 0.0
C964 C 0.77723 0.19219 0.33471 0.0
C965 C 0.78929 0.19442 0.31475 0.0
C966 C 0.77938 0.1776 0.34716 0.0
C967 C 0.81953 0.14357 0.35356 0.0
H968 H 0.76036 0.11936 0.38825 0.0
C969 C 0.78413 0.07521 0.40838 0.0
C970 C 0.8083 0.07609 0.41865 0.0
C971 C 0.7817 0.08938 0.39538 0.0
C972 C 0.777 0.12581 0.37849 0.0
H973 H 0.81272 0.18293 0.29203 0.0
H974 H 0.81585 0.15718 0.31344 0.0
H975 H 0.75591 0.14398 0.36569 0.0
H976 H 0.84872 0.09261 0.42369 0.0
H977 H 0.84439 0.11757 0.40143 0.0
H978 H 0.84028 0.12495 0.36577 0.0
C979 C 0.80528 0.16695 0.31977 0.0
C980 C 0.77458 0.14015 0.36576 0.0
C981 C 0.80335 0.18166 0.30741 0.0
C982 C 0.82996 0.09146 0.41573 0.0
C983 C 0.82747 0.10572 0.4029 0.0
C984 C 0.82187 0.12912 0.36615 0.0
C985 C 0.79342 0.16477 0.33985 0.0
C986 C 0.79585 0.14929 0.35319 0.0
C987 C 0.80332 0.10487 0.39252 0.0
C988 C 0.80068 0.12009 0.37886 0.0
H989 H 0.76639 0.20186 0.34087 0.0
H990 H 0.77037 0.17658 0.36267 0.0
H991 H 0.83646 0.15041 0.34431 0.0
H992 H 0.7672 0.06341 0.41016 0.0
H993 H 0.76295 0.08806 0.38736 0.0
C994 C 0.36336 0.37679 0.77921 0.0
C995 C 0.33574 0.36961 0.78083 0.0
C996 C 0.37966 0.37901 0.79716 0.0
C997 C 0.38066 0.38095 0.8557 0.0
H998 H 0.43797 0.35686 0.84869 0.0
C999 C 0.43229 0.35811 0.92655 0.0
C1000 C 0.45925 0.35826 0.92495 0.0
C1001 C 0.4187 0.36251 0.90931 0.0
C1002 C 0.42246 0.36401 0.85093 0.0
H1003 H 0.30346 0.3603 0.80279 0.0
H1004 H 0.33196 0.36429 0.83411 0.0
H1005 H 0.41175 0.3601 0.81808 0.0
H1006 H 0.49317 0.36367 0.90397 0.0
H1007 H 0.46983 0.3721 0.87432 0.0
H1008 H 0.39129 0.38479 0.8886 0.0
C1009 C 0.34097 0.36815 0.81894 0.0
C1010 C 0.40738 0.36583 0.83333 0.0
C1011 C 0.32466 0.36578 0.80097 0.0
C1012 C 0.47249 0.36355 0.9059 0.0
C1013 C 0.45897 0.36814 0.88874 0.0
C1014 C 0.39595 0.3793 0.87331 0.0
C1015 C 0.36868 0.37426 0.81711 0.0
C1016 C 0.38609 0.37407 0.83557 0.0
C1017 C 0.43178 0.36735 0.89008 0.0
C1018 C 0.4168 0.37054 0.8712 0.0
H1019 H 0.37255 0.37996 0.76396 0.0
H1020 H 0.40094 0.38397 0.79534 0.0
H1021 H 0.36449 0.3875 0.85784 0.0
H1022 H 0.42155 0.35443 0.94108 0.0
H1023 H 0.39772 0.36156 0.91092 0.0
C1024 C 0.36724 0.8913 0.37688 0.0
C1025 C 0.34433 0.88178 0.36543 0.0
C1026 C 0.36783 0.9078 0.38858 0.0
C1027 C 0.32434 0.93383 0.4144 0.0
H1028 H 0.38516 0.97638 0.41084 0.0
C1029 C 0.32271 0.00614 0.44971 0.0
C1030 C 0.3459 0.01709 0.45966 0.0
C1031 C 0.32296 0.98965 0.43837 0.0
C1032 C 0.36818 0.96456 0.41225 0.0
H1033 H 0.30406 0.88207 0.35733 0.0
H1034 H 0.30509 0.91082 0.37781 0.0
H1035 H 0.38481 0.94745 0.39097 0.0
H1036 H 0.38752 0.0193 0.46563 0.0
H1037 H 0.38792 0.99035 0.44605 0.0
H1038 H 0.30776 0.95077 0.43581 0.0
C1039 C 0.32254 0.90547 0.37781 0.0
C1040 C 0.36797 0.948 0.40083 0.0
C1041 C 0.32201 0.88906 0.36599 0.0
C1042 C 0.36941 0.01124 0.45794 0.0
C1043 C 0.36963 0.99467 0.44668 0.0
C1044 C 0.3246 0.95033 0.42592 0.0
C1045 C 0.34546 0.91503 0.38921 0.0
C1046 C 0.34598 0.9325 0.40169 0.0
C1047 C 0.34638 0.98365 0.43679 0.0
C1048 C 0.34644 0.96595 0.42489 0.0
H1049 H 0.38478 0.88606 0.37678 0.0
H1050 H 0.3857 0.91477 0.39736 0.0
H1051 H 0.30729 0.92202 0.41564 0.0
H1052 H 0.3044 0.01044 0.45047 0.0
H1053 H 0.30482 0.98173 0.4306 0.0
C1054 C 0.68174 0.75426 0.76902 0.0
C1055 C 0.6727 0.75636 0.74857 0.0
C1056 C 0.66504 0.75371 0.78646 0.0
C1057 C 0.60718 0.76992 0.80359 0.0
H1058 H 0.60916 0.73994 0.85184 0.0
C1059 C 0.54522 0.77493 0.87854 0.0
C1060 C 0.55888 0.7761 0.89791 0.0
C1061 C 0.55637 0.77001 0.85968 0.0
C1062 C 0.60848 0.74846 0.83852 0.0
H1063 H 0.63858 0.75854 0.73028 0.0
H1064 H 0.6094 0.7574 0.76069 0.0
H1065 H 0.63346 0.73535 0.81981 0.0
H1066 H 0.59442 0.77231 0.91277 0.0
H1067 H 0.61405 0.7641 0.87991 0.0
H1068 H 0.58274 0.78333 0.82241 0.0
C1069 C 0.62955 0.75651 0.76327 0.0
C1070 C 0.62238 0.74582 0.82018 0.0
C1071 C 0.64624 0.75706 0.74583 0.0
C1072 C 0.58358 0.77179 0.89807 0.0
C1073 C 0.59467 0.76685 0.87926 0.0
C1074 C 0.59328 0.77255 0.82192 0.0
C1075 C 0.63893 0.75523 0.78384 0.0
C1076 C 0.62223 0.75673 0.80262 0.0
C1077 C 0.58134 0.76608 0.85981 0.0
C1078 C 0.59412 0.76207 0.83972 0.0
H1079 H 0.702 0.75367 0.77169 0.0
H1080 H 0.67298 0.75289 0.8021 0.0
H1081 H 0.60696 0.77876 0.79048 0.0
H1082 H 0.52622 0.77826 0.87789 0.0
H1083 H 0.54549 0.76938 0.84498 0.0
loop_
_geom_bond_atom_site_label_1
_geom_bond_atom_site_label_2
_geom_bond_distance
_geom_bond_site_symmetry_2
_ccdc_geom_bond_type
O0 Cd1 2.300 . S
O0 C7 1.275 . S
Cd1 O0 2.300 . S
Cd1 O9 2.381 . S
Cd1 O10 2.378 . S
O2 Cd3 2.385 . S
O2 C7 1.255 . S
Cd3 O2 2.385 . S
Cd3 O4 2.317 . S
O4 Cd3 2.317 . S
O4 C5 1.232 . S
C5 O4 1.232 . S
C5 O6 1.218 . S
O6 C5 1.218 . S
C7 O0 1.275 . S
C7 O2 1.255 . S
C8 O9 1.258 . S
C8 O10 1.256 . S
O9 Cd1 2.381 . S
O9 C8 1.258 . S
O10 Cd1 2.378 . S
O10 C8 1.256 . S
O11 Cd12 2.300 . S
O11 C18 1.275 . S
Cd12 O11 2.300 . S
Cd12 O20 2.381 . S
Cd12 O21 2.378 . S
O13 Cd14 2.385 . S
O13 C18 1.255 . S
Cd14 O13 2.385 . S
Cd14 O15 2.317 . S
O15 Cd14 2.317 . S
O15 C16 1.232 . S
C16 O15 1.232 . S
C16 O17 1.218 . S
O17 C16 1.218 . S
C18 O11 1.275 . S
C18 O13 1.255 . S
C19 O20 1.258 . S
C19 O21 1.256 . S
O20 Cd12 2.381 . S
O20 C19 1.258 . S
O21 Cd12 2.378 . S
O21 C19 1.256 . S
O22 Cd23 2.300 . S
O22 C29 1.275 . S
Cd23 O22 2.300 . S
Cd23 O31 2.381 . S
Cd23 O32 2.378 . S
O24 Cd25 2.385 . S
O24 C29 1.255 . S
Cd25 O24 2.385 . S
Cd25 O26 2.317 . S
O26 Cd25 2.317 . S
O26 C27 1.232 . S
C27 O26 1.232 . S
C27 O28 1.218 . S
O28 C27 1.218 . S
C29 O22 1.275 . S
C29 O24 1.255 . S
C30 O31 1.258 . S
C30 O32 1.256 . S
O31 Cd23 2.381 . S
O31 C30 1.258 . S
O32 Cd23 2.378 . S
O32 C30 1.256 . S
O33 Cd34 2.300 . S
O33 C40 1.275 . S
Cd34 O33 2.300 . S
Cd34 O42 2.381 . S
Cd34 O43 2.378 . S
O35 Cd36 2.385 . S
O35 C40 1.255 . S
Cd36 O35 2.385 . S
Cd36 O37 2.317 . S
O37 Cd36 2.317 . S
O37 C38 1.232 . S
C38 O37 1.232 . S
C38 O39 1.218 . S
O39 C38 1.218 . S
C40 O33 1.275 . S
C40 O35 1.255 . S
C41 O42 1.258 . S
C41 O43 1.256 . S
O42 Cd34 2.381 . S
O42 C41 1.258 . S
O43 Cd34 2.378 . S
O43 C41 1.256 . S
O44 Cd45 2.300 . S
O44 C51 1.275 . S
Cd45 O44 2.300 . S
Cd45 O53 2.381 . S
Cd45 O54 2.378 . S
O46 Cd47 2.385 . S
O46 C51 1.255 . S
Cd47 O46 2.385 . S
Cd47 O48 2.317 . S
O48 Cd47 2.317 . S
O48 C49 1.232 . S
C49 O48 1.232 . S
C49 O50 1.218 . S
O50 C49 1.218 . S
C51 O44 1.275 . S
C51 O46 1.255 . S
C52 O53 1.258 . S
C52 O54 1.256 . S
O53 Cd45 2.381 . S
O53 C52 1.258 . S
O54 Cd45 2.378 . S
O54 C52 1.256 . S
O55 Cd56 2.300 . S
O55 C62 1.275 . S
Cd56 O55 2.300 . S
Cd56 O64 2.381 . S
Cd56 O65 2.378 . S
O57 Cd58 2.385 . S
O57 C62 1.255 . S
Cd58 O57 2.385 . S
Cd58 O59 2.317 . S
O59 Cd58 2.317 . S
O59 C60 1.232 . S
C60 O59 1.232 . S
C60 O61 1.218 . S
O61 C60 1.218 . S
C62 O55 1.275 . S
C62 O57 1.255 . S
C63 O64 1.258 . S
C63 O65 1.256 . S
O64 Cd56 2.381 . S
O64 C63 1.258 . S
O65 Cd56 2.378 . S
O65 C63 1.256 . S
O66 Cd67 2.300 . S
O66 C73 1.275 . S
Cd67 O66 2.300 . S
Cd67 O75 2.381 . S
Cd67 O76 2.378 . S
O68 Cd69 2.385 . S
O68 C73 1.255 . S
Cd69 O68 2.385 . S
Cd69 O70 2.317 . S
O70 Cd69 2.317 . S
O70 C71 1.232 . S
C71 O70 1.232 . S
C71 O72 1.218 . S
O72 C71 1.218 . S
C73 O66 1.275 . S
C73 O68 1.255 . S
C74 O75 1.258 . S
C74 O76 1.256 . S
O75 Cd67 2.381 . S
O75 C74 1.258 . S
O76 Cd67 2.378 . S
O76 C74 1.256 . S
O77 Cd78 2.300 . S
O77 C84 1.275 . S
Cd78 O77 2.300 . S
Cd78 O86 2.381 . S
Cd78 O87 2.378 . S
O79 Cd80 2.385 . S
O79 C84 1.255 . S
Cd80 O79 2.385 . S
Cd80 O81 2.317 . S
O81 Cd80 2.317 . S
O81 C82 1.232 . S
C82 O81 1.232 . S
C82 O83 1.218 . S
O83 C82 1.218 . S
C84 O77 1.275 . S
C84 O79 1.255 . S
C85 O86 1.258 . S
C85 O87 1.256 . S
O86 Cd78 2.381 . S
O86 C85 1.258 . S
O87 Cd78 2.378 . S
O87 C85 1.256 . S
C88 C89 1.384 . S
C88 C90 1.384 1_655 S
C88 H116 0.929 1_655 S
C89 C88 1.384 . S
C89 C92 1.382 . S
C90 C88 1.384 1_455 S
C90 C91 1.381 . S
C90 H117 0.930 . S
C91 C90 1.381 . S
C91 C93 1.381 1_455 S
C91 C94 1.487 . S
C92 C89 1.382 . S
C92 C93 1.387 . S
C92 H118 0.930 . S
C93 C91 1.381 1_655 S
C93 C92 1.387 . S
C93 H119 0.931 . S
C94 C91 1.487 . S
C94 C101 1.399 . S
C94 N132 1.343 . S
C95 C96 1.384 . S
C95 C97 1.384 . S
C95 H120 0.931 . S
C96 C95 1.384 . S
C96 C99 1.382 . S
C97 C95 1.384 . S
C97 C98 1.381 . S
C97 H121 0.930 . S
C98 C97 1.381 . S
C98 C100 1.381 . S
C98 C101 1.487 . S
C99 C96 1.382 . S
C99 C100 1.387 . S
C99 H122 0.930 . S
C100 C98 1.381 . S
C100 C99 1.387 . S
C100 H123 0.931 . S
C101 C94 1.399 . S
C101 C98 1.487 . S
C101 N133 1.343 . S
C102 C103 1.384 . S
C102 C104 1.384 . S
C102 H124 0.931 . S
C103 C102 1.384 . S
C103 C106 1.382 . S
C104 C102 1.384 . S
C104 C105 1.381 . S
C104 H125 0.930 . S
C105 C104 1.381 . S
C105 C107 1.381 . S
C105 C108 1.487 . S
C106 C103 1.382 . S
C106 C107 1.387 . S
C106 H126 0.930 . S
C107 C105 1.381 . S
C107 C106 1.387 . S
C107 H127 0.931 . S
C108 C105 1.487 . S
C108 C115 1.399 . S
C108 N133 1.343 . S
C109 C110 1.384 . S
C109 C111 1.385 1_655 S
C109 H128 0.931 1_655 S
C110 C109 1.384 . S
C110 C113 1.382 . S
C111 C109 1.385 1_455 S
C111 C112 1.381 . S
C111 H129 0.930 . S
C112 C111 1.381 . S
C112 C114 1.381 1_455 S
C112 C115 1.487 . S
C113 C110 1.382 . S
C113 C114 1.387 . S
C113 H130 0.930 . S
C114 C112 1.381 1_655 S
C114 C113 1.387 . S
C114 H131 0.931 . S
C115 C108 1.399 . S
C115 C112 1.487 . S
C115 N132 1.343 . S
H116 C88 0.929 1_455 S
H117 C90 0.930 . S
H118 C92 0.930 . S
H119 C93 0.931 . S
H120 C95 0.931 . S
H121 C97 0.930 . S
H122 C99 0.930 . S
H123 C100 0.931 . S
H124 C102 0.931 . S
H125 C104 0.930 . S
H126 C106 0.930 . S
H127 C107 0.931 . S
H128 C109 0.931 1_455 S
H129 C111 0.930 . S
H130 C113 0.930 . S
H131 C114 0.931 . S
N132 C94 1.343 . S
N132 C115 1.343 . S
N133 C101 1.343 . S
N133 C108 1.343 . S
C134 C135 1.384 . S
C134 C136 1.384 . S
C134 H162 0.931 . S
C135 C134 1.384 . S
C135 C138 1.382 . S
C136 C134 1.384 . S
C136 C137 1.381 . S
C136 H163 0.930 . S
C137 C136 1.381 . S
C137 C139 1.381 . S
C137 C140 1.487 . S
C138 C135 1.382 . S
C138 C139 1.387 . S
C138 H164 0.930 . S
C139 C137 1.381 . S
C139 C138 1.387 . S
C139 H165 0.931 . S
C140 C137 1.487 . S
C140 C147 1.399 1_655 S
C140 N178 1.343 . S
C141 C142 1.384 . S
C141 C143 1.384 . S
C141 H166 0.931 . S
C142 C141 1.384 . S
C142 C145 1.382 . S
C143 C141 1.384 . S
C143 C144 1.381 . S
C143 H167 0.930 . S
C144 C143 1.381 . S
C144 C146 1.381 . S
C144 C147 1.487 . S
C145 C142 1.382 . S
C145 C146 1.387 . S
C145 H168 0.930 . S
C146 C144 1.381 . S
C146 C145 1.387 . S
C146 H169 0.931 . S
C147 C140 1.399 1_455 S
C147 C144 1.487 . S
C147 N179 1.343 . S
C148 C149 1.384 . S
C148 C150 1.384 . S
C148 H170 0.931 . S
C149 C148 1.384 . S
C149 C152 1.382 . S
C150 C148 1.384 . S
C150 C151 1.381 . S
C150 H171 0.930 . S
C151 C150 1.381 . S
C151 C153 1.381 . S
C151 C154 1.487 . S
C152 C149 1.382 . S
C152 C153 1.387 . S
C152 H172 0.930 . S
C153 C151 1.381 . S
C153 C152 1.387 . S
C153 H173 0.931 . S
C154 C151 1.487 . S
C154 C161 1.399 1_455 S
C154 N179 1.343 . S
C155 C156 1.384 . S
C155 C157 1.384 . S
C155 H174 0.931 . S
C156 C155 1.384 . S
C156 C159 1.382 . S
C157 C155 1.384 . S
C157 C158 1.381 . S
C157 H175 0.930 . S
C158 C157 1.381 . S
C158 C160 1.381 . S
C158 C161 1.487 . S
C159 C156 1.382 . S
C159 C160 1.387 . S
C159 H176 0.930 . S
C160 C158 1.381 . S
C160 C159 1.387 . S
C160 H177 0.931 . S
C161 C154 1.399 1_655 S
C161 C158 1.487 . S
C161 N178 1.343 . S
H162 C134 0.931 . S
H163 C136 0.930 . S
H164 C138 0.930 . S
H165 C139 0.931 . S
H166 C141 0.931 . S
H167 C143 0.930 . S
H168 C145 0.930 . S
H169 C146 0.931 . S
H170 C148 0.931 . S
H171 C150 0.930 . S
H172 C152 0.930 . S
H173 C153 0.931 . S
H174 C155 0.931 . S
H175 C157 0.930 . S
H176 C159 0.930 . S
H177 C160 0.931 . S
N178 C140 1.343 . S
N178 C161 1.343 . S
N179 C147 1.343 . S
N179 C154 1.343 . S
C180 C181 1.384 . S
C180 C182 1.384 . S
C180 H208 0.931 . S
C181 C180 1.384 . S
C181 C184 1.382 . S
C182 C180 1.384 . S
C182 C183 1.381 . S
C182 H209 0.930 . S
C183 C182 1.381 . S
C183 C185 1.381 . S
C183 C186 1.487 . S
C184 C181 1.382 . S
C184 C185 1.387 . S
C184 H210 0.930 . S
C185 C183 1.381 . S
C185 C184 1.387 . S
C185 H211 0.931 . S
C186 C183 1.487 . S
C186 C193 1.399 . S
C186 N224 1.343 . S
C187 C188 1.384 . S
C187 C189 1.384 . S
C187 H212 0.931 . S
C188 C187 1.384 . S
C188 C191 1.382 . S
C189 C187 1.384 . S
C189 C190 1.381 . S
C189 H213 0.930 . S
C190 C189 1.381 . S
C190 C192 1.381 . S
C190 C193 1.487 . S
C191 C188 1.382 . S
C191 C192 1.387 . S
C191 H214 0.930 . S
C192 C190 1.381 . S
C192 C191 1.387 . S
C192 H215 0.931 . S
C193 C186 1.399 . S
C193 C190 1.487 . S
C193 N225 1.343 . S
C194 C195 1.384 . S
C194 C196 1.384 . S
C194 H216 0.931 . S
C195 C194 1.384 . S
C195 C198 1.382 . S
C196 C194 1.384 . S
C196 C197 1.381 . S
C196 H217 0.930 . S
C197 C196 1.381 . S
C197 C199 1.381 . S
C197 C200 1.487 . S
C198 C195 1.382 . S
C198 C199 1.387 . S
C198 H218 0.930 . S
C199 C197 1.381 . S
C199 C198 1.387 . S
C199 H219 0.931 . S
C200 C197 1.487 . S
C200 C207 1.399 . S
C200 N225 1.343 . S
C201 C202 1.384 . S
C201 C203 1.384 . S
C201 H220 0.931 . S
C202 C201 1.384 . S
C202 C205 1.382 . S
C203 C201 1.384 . S
C203 C204 1.381 . S
C203 H221 0.930 . S
C204 C203 1.381 . S
C204 C206 1.381 . S
C204 C207 1.487 . S
C205 C202 1.382 . S
C205 C206 1.387 . S
C205 H222 0.930 . S
C206 C204 1.381 . S
C206 C205 1.387 . S
C206 H223 0.931 . S
C207 C200 1.399 . S
C207 C204 1.487 . S
C207 N224 1.343 . S
H208 C180 0.931 . S
H209 C182 0.930 . S
H210 C184 0.930 . S
H211 C185 0.931 . S
H212 C187 0.931 . S
H213 C189 0.930 . S
H214 C191 0.930 . S
H215 C192 0.931 . S
H216 C194 0.931 . S
H217 C196 0.930 . S
H218 C198 0.930 . S
H219 C199 0.931 . S
H220 C201 0.931 . S
H221 C203 0.930 . S
H222 C205 0.930 . S
H223 C206 0.931 . S
N224 C186 1.343 . S
N224 C207 1.343 . S
N225 C193 1.343 . S
N225 C200 1.343 . S
C226 C227 1.384 . S
C226 C228 1.384 . S
C226 H254 0.931 . S
C227 C226 1.384 . S
C227 C230 1.382 . S
C228 C226 1.384 . S
C228 C229 1.381 . S
C228 H255 0.930 . S
C229 C228 1.381 . S
C229 C231 1.381 . S
C229 C232 1.487 . S
C230 C227 1.382 . S
C230 C231 1.387 . S
C230 H256 0.930 . S
C231 C229 1.381 . S
C231 C230 1.387 . S
C231 H257 0.931 . S
C232 C229 1.487 . S
C232 C239 1.399 . S
C232 N270 1.343 1_556 S
C233 C234 1.384 . S
C233 C235 1.384 . S
C233 H258 0.931 . S
C234 C233 1.384 . S
C234 C237 1.382 . S
C235 C233 1.384 . S
C235 C236 1.381 . S
C235 H259 0.930 . S
C236 C235 1.381 . S
C236 C238 1.381 . S
C236 C239 1.487 . S
C237 C234 1.382 . S
C237 C238 1.387 . S
C237 H260 0.930 . S
C238 C236 1.381 . S
C238 C237 1.387 . S
C238 H261 0.931 . S
C239 C232 1.399 . S
C239 C236 1.487 . S
C239 N271 1.343 1_556 S
C240 C241 1.384 . S
C240 C242 1.384 . S
C240 H262 0.931 . S
C241 C240 1.384 . S
C241 C244 1.382 . S
C242 C240 1.384 . S
C242 C243 1.381 . S
C242 H263 0.930 . S
C243 C242 1.381 . S
C243 C245 1.381 . S
C243 C246 1.487 . S
C244 C241 1.382 . S
C244 C245 1.387 . S
C244 H264 0.930 . S
C245 C243 1.381 . S
C245 C244 1.387 . S
C245 H265 0.931 . S
C246 C243 1.487 . S
C246 C253 1.399 . S
C246 N271 1.343 . S
C247 C248 1.384 . S
C247 C249 1.384 . S
C247 H266 0.931 . S
C248 C247 1.384 . S
C248 C251 1.382 . S
C249 C247 1.384 . S
C249 C250 1.381 . S
C249 H267 0.930 . S
C250 C249 1.381 . S
C250 C252 1.381 . S
C250 C253 1.487 . S
C251 C248 1.382 . S
C251 C252 1.387 . S
C251 H268 0.930 . S
C252 C250 1.381 . S
C252 C251 1.387 . S
C252 H269 0.931 . S
C253 C246 1.399 . S
C253 C250 1.487 . S
C253 N270 1.343 . S
H254 C226 0.931 . S
H255 C228 0.930 . S
H256 C230 0.930 . S
H257 C231 0.931 . S
H258 C233 0.931 . S
H259 C235 0.930 . S
H260 C237 0.930 . S
H261 C238 0.931 . S
H262 C240 0.931 . S
H263 C242 0.930 . S
H264 C244 0.930 . S
H265 C245 0.931 . S
H266 C247 0.931 . S
H267 C249 0.930 . S
H268 C251 0.930 . S
H269 C252 0.931 . S
N270 C232 1.343 1_554 S
N270 C253 1.343 . S
N271 C239 1.343 1_554 S
N271 C246 1.343 . S
C272 C273 1.384 . S
C272 C274 1.384 . S
C272 H300 0.931 . S
C273 C272 1.384 . S
C273 C276 1.382 . S
C274 C272 1.384 . S
C274 C275 1.381 . S
C274 H301 0.930 . S
C275 C274 1.381 . S
C275 C277 1.381 . S
C275 C278 1.487 . S
C276 C273 1.382 . S
C276 C277 1.387 . S
C276 H302 0.930 . S
C277 C275 1.381 . S
C277 C276 1.387 . S
C277 H303 0.931 . S
C278 C275 1.487 . S
C278 C285 1.399 . S
C278 N316 1.343 . S
C279 C280 1.384 . S
C279 C281 1.384 . S
C279 H304 0.931 . S
C280 C279 1.384 . S
C280 C283 1.382 . S
C281 C279 1.384 . S
C281 C282 1.381 . S
C281 H305 0.930 . S
C282 C281 1.381 . S
C282 C284 1.381 . S
C282 C285 1.487 . S
C283 C280 1.382 . S
C283 C284 1.387 . S
C283 H306 0.930 . S
C284 C282 1.381 . S
C284 C283 1.387 . S
C284 H307 0.931 . S
C285 C278 1.399 . S
C285 C282 1.487 . S
C285 N317 1.343 . S
C286 C287 1.384 . S
C286 C288 1.384 . S
C286 H308 0.931 . S
C287 C286 1.384 . S
C287 C290 1.382 . S
C288 C286 1.384 . S
C288 C289 1.381 . S
C288 H309 0.930 . S
C289 C288 1.381 . S
C289 C291 1.381 . S
C289 C292 1.487 . S
C290 C287 1.382 . S
C290 C291 1.387 . S
C290 H310 0.930 . S
C291 C289 1.381 . S
C291 C290 1.387 . S
C291 H311 0.931 . S
C292 C289 1.487 . S
C292 C299 1.399 . S
C292 N317 1.343 1_565 S
C293 C294 1.384 . S
C293 C295 1.384 . S
C293 H312 0.931 . S
C294 C293 1.384 . S
C294 C297 1.382 . S
C295 C293 1.384 . S
C295 C296 1.381 . S
C295 H313 0.930 . S
C296 C295 1.381 . S
C296 C298 1.381 . S
C296 C299 1.487 . S
C297 C294 1.382 . S
C297 C298 1.387 . S
C297 H314 0.930 . S
C298 C296 1.381 . S
C298 C297 1.387 . S
C298 H315 0.931 . S
C299 C292 1.399 . S
C299 C296 1.487 . S
C299 N316 1.343 1_565 S
H300 C272 0.931 . S
H301 C274 0.930 . S
H302 C276 0.930 . S
H303 C277 0.931 . S
H304 C279 0.931 . S
H305 C281 0.930 . S
H306 C283 0.930 . S
H307 C284 0.931 . S
H308 C286 0.931 . S
H309 C288 0.930 . S
H310 C290 0.930 . S
H311 C291 0.931 . S
H312 C293 0.931 . S
H313 C295 0.930 . S
H314 C297 0.930 . S
H315 C298 0.931 . S
N316 C278 1.343 . S
N316 C299 1.343 1_545 S
N317 C285 1.343 . S
N317 C292 1.343 1_545 S
C318 C319 1.384 . S
C318 C320 1.384 . S
C318 H346 0.931 . S
C319 C318 1.384 . S
C319 C322 1.382 . S
C320 C318 1.384 . S
C320 C321 1.381 . S
C320 H347 0.930 . S
C321 C320 1.381 . S
C321 C323 1.381 . S
C321 C324 1.487 . S
C322 C319 1.382 . S
C322 C323 1.387 . S
C322 H348 0.930 . S
C323 C321 1.381 . S
C323 C322 1.387 . S
C323 H349 0.931 . S
C324 C321 1.487 . S
C324 C331 1.399 . S
C324 N362 1.343 1_556 S
C325 C326 1.384 . S
C325 C327 1.384 . S
C325 H350 0.931 . S
C326 C325 1.384 . S
C326 C329 1.382 . S
C327 C325 1.384 . S
C327 C328 1.381 . S
C327 H351 0.930 . S
C328 C327 1.381 . S
C328 C330 1.381 . S
C328 C331 1.487 . S
C329 C326 1.382 . S
C329 C330 1.387 . S
C329 H352 0.930 . S
C330 C328 1.381 . S
C330 C329 1.387 . S
C330 H353 0.931 . S
C331 C324 1.399 . S
C331 C328 1.487 . S
C331 N363 1.343 1_556 S
C332 C333 1.384 . S
C332 C334 1.384 . S
C332 H354 0.931 . S
C333 C332 1.384 . S
C333 C336 1.382 . S
C334 C332 1.384 . S
C334 C335 1.381 . S
C334 H355 0.930 . S
C335 C334 1.381 . S
C335 C337 1.381 . S
C335 C338 1.487 . S
C336 C333 1.382 . S
C336 C337 1.387 . S
C336 H356 0.930 . S
C337 C335 1.381 . S
C337 C336 1.387 . S
C337 H357 0.931 . S
C338 C335 1.487 . S
C338 C345 1.399 . S
C338 N363 1.343 . S
C339 C340 1.384 . S
C339 C341 1.384 . S
C339 H358 0.931 . S
C340 C339 1.384 . S
C340 C343 1.382 . S
C341 C339 1.384 . S
C341 C342 1.381 . S
C341 H359 0.930 . S
C342 C341 1.381 . S
C342 C344 1.381 . S
C342 C345 1.487 . S
C343 C340 1.382 . S
C343 C344 1.387 . S
C343 H360 0.930 . S
C344 C342 1.381 . S
C344 C343 1.387 . S
C344 H361 0.931 . S
C345 C338 1.399 . S
C345 C342 1.487 . S
C345 N362 1.343 . S
H346 C318 0.931 . S
H347 C320 0.930 . S
H348 C322 0.930 . S
H349 C323 0.931 . S
H350 C325 0.931 . S
H351 C327 0.930 . S
H352 C329 0.930 . S
H353 C330 0.931 . S
H354 C332 0.931 . S
H355 C334 0.930 . S
H356 C336 0.930 . S
H357 C337 0.931 . S
H358 C339 0.931 . S
H359 C341 0.930 . S
H360 C343 0.930 . S
H361 C344 0.931 . S
N362 C324 1.343 1_554 S
N362 C345 1.343 . S
N363 C331 1.343 1_554 S
N363 C338 1.343 . S
C364 C365 1.349 . S
C364 C366 1.327 . S
C364 H389 0.950 . S
C365 C364 1.349 . S
C365 C381 1.349 . S
C366 C364 1.327 . S
C366 C385 1.429 . S
C366 H390 0.950 . S
C367 C384 1.574 . S
C367 C386 1.368 . S
C367 H391 0.949 . S
H368 C372 0.949 . S
C369 C370 1.349 . S
C369 C371 1.327 . S
C369 H392 0.950 . S
C370 C369 1.349 . S
C370 C382 1.349 . S
C371 C369 1.327 . S
C371 C387 1.429 . S
C371 H393 0.950 . S
C372 H368 0.949 . S
C372 C380 1.574 . S
C372 C388 1.368 . S
H373 C381 0.950 . S
H374 C379 0.950 . S
H375 C380 0.949 . S
H376 C382 0.950 . S
H377 C383 0.950 . S
H378 C384 0.949 . S
C379 H374 0.950 . S
C379 C381 1.327 . S
C379 C385 1.429 . S
C380 C372 1.574 . S
C380 H375 0.949 . S
C380 C386 1.368 . S
C381 C365 1.349 . S
C381 H373 0.950 . S
C381 C379 1.327 . S
C382 C370 1.349 . S
C382 H376 0.950 . S
C382 C383 1.327 . S
C383 H377 0.950 . S
C383 C382 1.327 . S
C383 C387 1.429 . S
C384 C367 1.574 . S
C384 H378 0.949 . S
C384 C388 1.368 . S
C385 C366 1.429 . S
C385 C379 1.429 . S
C385 C386 1.523 . S
C386 C367 1.368 . S
C386 C380 1.368 . S
C386 C385 1.523 . S
C387 C371 1.429 . S
C387 C383 1.429 . S
C387 C388 1.523 . S
C388 C372 1.368 . S
C388 C384 1.368 . S
C388 C387 1.523 . S
H389 C364 0.950 . S
H390 C366 0.950 . S
H391 C367 0.949 . S
H392 C369 0.950 . S
H393 C371 0.950 . S
C394 C395 1.349 . S
C394 C396 1.327 . S
C394 H419 0.950 . S
C395 C394 1.349 . S
C395 C411 1.349 . S
C396 C394 1.327 . S
C396 C415 1.429 . S
C396 H420 0.950 . S
C397 C414 1.574 . S
C397 C416 1.368 . S
C397 H421 0.949 . S
H398 C402 0.949 . S
C399 C400 1.349 . S
C399 C401 1.327 . S
C399 H422 0.950 . S
C400 C399 1.349 . S
C400 C412 1.349 . S
C401 C399 1.327 . S
C401 C417 1.429 . S
C401 H423 0.950 . S
C402 H398 0.949 . S
C402 C410 1.574 . S
C402 C418 1.368 . S
H403 C411 0.950 . S
H404 C409 0.950 . S
H405 C410 0.949 . S
H406 C412 0.950 . S
H407 C413 0.950 . S
H408 C414 0.949 . S
C409 H404 0.950 . S
C409 C411 1.327 . S
C409 C415 1.429 . S
C410 C402 1.574 . S
C410 H405 0.949 . S
C410 C416 1.368 . S
C411 C395 1.349 . S
C411 H403 0.950 . S
C411 C409 1.327 . S
C412 C400 1.349 . S
C412 H406 0.950 . S
C412 C413 1.327 . S
C413 H407 0.950 . S
C413 C412 1.327 . S
C413 C417 1.429 . S
C414 C397 1.574 . S
C414 H408 0.949 . S
C414 C418 1.368 . S
C415 C396 1.429 . S
C415 C409 1.429 . S
C415 C416 1.523 . S
C416 C397 1.368 . S
C416 C410 1.368 . S
C416 C415 1.523 . S
C417 C401 1.429 . S
C417 C413 1.429 . S
C417 C418 1.523 . S
C418 C402 1.368 . S
C418 C414 1.368 . S
C418 C417 1.523 . S
H419 C394 0.950 . S
H420 C396 0.950 . S
H421 C397 0.949 . S
H422 C399 0.950 . S
H423 C401 0.950 . S
C424 C425 1.349 . S
C424 C426 1.327 . S
C424 H449 0.950 . S
C425 C424 1.349 . S
C425 C441 1.349 . S
C426 C424 1.327 . S
C426 C445 1.429 . S
C426 H450 0.950 . S
C427 C444 1.574 . S
C427 C446 1.368 . S
C427 H451 0.949 . S
H428 C432 0.949 . S
C429 C430 1.349 . S
C429 C431 1.327 . S
C429 H452 0.950 . S
C430 C429 1.349 . S
C430 C442 1.349 . S
C431 C429 1.327 . S
C431 C447 1.429 . S
C431 H453 0.950 . S
C432 H428 0.949 . S
C432 C440 1.574 . S
C432 C448 1.368 . S
H433 C441 0.950 . S
H434 C439 0.950 . S
H435 C440 0.949 . S
H436 C442 0.950 . S
H437 C443 0.950 . S
H438 C444 0.949 . S
C439 H434 0.950 . S
C439 C441 1.327 . S
C439 C445 1.429 . S
C440 C432 1.574 . S
C440 H435 0.949 . S
C440 C446 1.368 . S
C441 C425 1.349 . S
C441 H433 0.950 . S
C441 C439 1.327 . S
C442 C430 1.349 . S
C442 H436 0.950 . S
C442 C443 1.327 . S
C443 H437 0.950 . S
C443 C442 1.327 . S
C443 C447 1.429 . S
C444 C427 1.574 . S
C444 H438 0.949 . S
C444 C448 1.368 . S
C445 C426 1.429 . S
C445 C439 1.429 . S
C445 C446 1.523 . S
C446 C427 1.368 . S
C446 C440 1.368 . S
C446 C445 1.523 . S
C447 C431 1.429 . S
C447 C443 1.429 . S
C447 C448 1.523 . S
C448 C432 1.368 . S
C448 C444 1.368 . S
C448 C447 1.523 . S
H449 C424 0.950 . S
H450 C426 0.950 . S
H451 C427 0.949 . S
H452 C429 0.950 . S
H453 C431 0.950 . S
C454 C455 1.349 . S
C454 C456 1.327 . S
C454 H479 0.950 . S
C455 C454 1.349 . S
C455 C471 1.349 . S
C456 C454 1.327 . S
C456 C475 1.429 . S
C456 H480 0.950 . S
C457 C474 1.574 . S
C457 C476 1.368 . S
C457 H481 0.949 . S
H458 C462 0.949 . S
C459 C460 1.349 . S
C459 C461 1.327 . S
C459 H482 0.950 . S
C460 C459 1.349 . S
C460 C472 1.349 . S
C461 C459 1.327 . S
C461 C477 1.429 . S
C461 H483 0.950 . S
C462 H458 0.949 . S
C462 C470 1.574 . S
C462 C478 1.368 . S
H463 C471 0.950 . S
H464 C469 0.950 . S
H465 C470 0.949 . S
H466 C472 0.950 . S
H467 C473 0.950 . S
H468 C474 0.949 . S
C469 H464 0.950 . S
C469 C471 1.327 . S
C469 C475 1.429 . S
C470 C462 1.574 . S
C470 H465 0.949 . S
C470 C476 1.368 . S
C471 C455 1.349 . S
C471 H463 0.950 . S
C471 C469 1.327 . S
C472 C460 1.349 . S
C472 H466 0.950 . S
C472 C473 1.327 . S
C473 H467 0.950 . S
C473 C472 1.327 . S
C473 C477 1.429 . S
C474 C457 1.574 . S
C474 H468 0.949 . S
C474 C478 1.368 . S
C475 C456 1.429 . S
C475 C469 1.429 . S
C475 C476 1.523 . S
C476 C457 1.368 . S
C476 C470 1.368 . S
C476 C475 1.523 . S
C477 C461 1.429 . S
C477 C473 1.429 . S
C477 C478 1.523 . S
C478 C462 1.368 . S
C478 C474 1.368 . S
C478 C477 1.523 . S
H479 C454 0.950 . S
H480 C456 0.950 . S
H481 C457 0.949 . S
H482 C459 0.950 . S
H483 C461 0.950 . S
C484 C485 1.349 . S
C484 C486 1.327 . S
C484 H509 0.950 . S
C485 C484 1.349 . S
C485 C501 1.349 . S
C486 C484 1.327 . S
C486 C505 1.429 . S
C486 H510 0.950 . S
C487 C504 1.574 . S
C487 C506 1.368 . S
C487 H511 0.949 . S
H488 C492 0.949 . S
C489 C490 1.349 . S
C489 C491 1.327 . S
C489 H512 0.950 . S
C490 C489 1.349 . S
C490 C502 1.349 . S
C491 C489 1.327 . S
C491 C507 1.429 . S
C491 H513 0.950 . S
C492 H488 0.949 . S
C492 C500 1.574 . S
C492 C508 1.368 . S
H493 C501 0.950 . S
H494 C499 0.950 . S
H495 C500 0.949 . S
H496 C502 0.950 . S
H497 C503 0.950 . S
H498 C504 0.949 . S
C499 H494 0.950 . S
C499 C501 1.327 . S
C499 C505 1.429 . S
C500 C492 1.574 . S
C500 H495 0.949 . S
C500 C506 1.368 . S
C501 C485 1.349 . S
C501 H493 0.950 . S
C501 C499 1.327 . S
C502 C490 1.349 . S
C502 H496 0.950 . S
C502 C503 1.327 . S
C503 H497 0.950 . S
C503 C502 1.327 . S
C503 C507 1.429 . S
C504 C487 1.574 . S
C504 H498 0.949 . S
C504 C508 1.368 . S
C505 C486 1.429 . S
C505 C499 1.429 . S
C505 C506 1.523 . S
C506 C487 1.368 . S
C506 C500 1.368 . S
C506 C505 1.523 . S
C507 C491 1.429 . S
C507 C503 1.429 . S
C507 C508 1.523 . S
C508 C492 1.368 . S
C508 C504 1.368 . S
C508 C507 1.523 . S
H509 C484 0.950 . S
H510 C486 0.950 . S
H511 C487 0.949 . S
H512 C489 0.950 . S
H513 C491 0.950 . S
C514 C515 1.349 . S
C514 C516 1.327 . S
C514 H539 0.950 . S
C515 C514 1.349 . S
C515 C531 1.349 . S
C516 C514 1.327 . S
C516 C535 1.429 . S
C516 H540 0.950 . S
C517 C534 1.574 . S
C517 C536 1.368 . S
C517 H541 0.949 . S
H518 C522 0.949 . S
C519 C520 1.349 . S
C519 C521 1.327 . S
C519 H542 0.950 . S
C520 C519 1.349 . S
C520 C532 1.349 . S
C521 C519 1.327 . S
C521 C537 1.429 . S
C521 H543 0.950 . S
C522 H518 0.949 . S
C522 C530 1.574 . S
C522 C538 1.368 . S
H523 C531 0.950 . S
H524 C529 0.950 . S
H525 C530 0.949 . S
H526 C532 0.950 . S
H527 C533 0.950 . S
H528 C534 0.949 . S
C529 H524 0.950 . S
C529 C531 1.327 . S
C529 C535 1.429 . S
C530 C522 1.574 . S
C530 H525 0.949 . S
C530 C536 1.368 . S
C531 C515 1.349 . S
C531 H523 0.950 . S
C531 C529 1.327 . S
C532 C520 1.349 . S
C532 H526 0.950 . S
C532 C533 1.327 . S
C533 H527 0.950 . S
C533 C532 1.327 . S
C533 C537 1.429 . S
C534 C517 1.574 . S
C534 H528 0.949 . S
C534 C538 1.368 . S
C535 C516 1.429 . S
C535 C529 1.429 . S
C535 C536 1.523 . S
C536 C517 1.368 . S
C536 C530 1.368 . S
C536 C535 1.523 . S
C537 C521 1.429 . S
C537 C533 1.429 . S
C537 C538 1.523 . S
C538 C522 1.368 . S
C538 C534 1.368 . S
C538 C537 1.523 . S
H539 C514 0.950 . S
H540 C516 0.950 . S
H541 C517 0.949 . S
H542 C519 0.950 . S
H543 C521 0.950 . S
C544 C545 1.349 . S
C544 C546 1.327 . S
C544 H569 0.950 . S
C545 C544 1.349 . S
C545 C561 1.349 . S
C546 C544 1.327 . S
C546 C565 1.429 . S
C546 H570 0.950 . S
C547 C564 1.574 . S
C547 C566 1.368 . S
C547 H571 0.949 . S
H548 C552 0.949 . S
C549 C550 1.349 . S
C549 C551 1.327 . S
C549 H572 0.950 . S
C550 C549 1.349 . S
C550 C562 1.349 . S
C551 C549 1.327 . S
C551 C567 1.429 . S
C551 H573 0.950 . S
C552 H548 0.949 . S
C552 C560 1.574 . S
C552 C568 1.368 . S
H553 C561 0.950 . S
H554 C559 0.950 . S
H555 C560 0.949 . S
H556 C562 0.950 . S
H557 C563 0.950 . S
H558 C564 0.949 . S
C559 H554 0.950 . S
C559 C561 1.327 . S
C559 C565 1.429 . S
C560 C552 1.574 . S
C560 H555 0.949 . S
C560 C566 1.368 . S
C561 C545 1.349 . S
C561 H553 0.950 . S
C561 C559 1.327 . S
C562 C550 1.349 . S
C562 H556 0.950 . S
C562 C563 1.327 . S
C563 H557 0.950 . S
C563 C562 1.327 . S
C563 C567 1.429 . S
C564 C547 1.574 . S
C564 H558 0.949 . S
C564 C568 1.368 . S
C565 C546 1.429 . S
C565 C559 1.429 . S
C565 C566 1.523 . S
C566 C547 1.368 . S
C566 C560 1.368 . S
C566 C565 1.523 . S
C567 C551 1.429 . S
C567 C563 1.429 . S
C567 C568 1.523 . S
C568 C552 1.368 . S
C568 C564 1.368 . S
C568 C567 1.523 . S
H569 C544 0.950 . S
H570 C546 0.950 . S
H571 C547 0.949 . S
H572 C549 0.950 . S
H573 C551 0.950 . S
C574 C575 1.349 . S
C574 C576 1.327 . S
C574 H599 0.950 . S
C575 C574 1.349 . S
C575 C591 1.349 . S
C576 C574 1.327 . S
C576 C595 1.429 . S
C576 H600 0.950 . S
C577 C594 1.574 . S
C577 C596 1.368 . S
C577 H601 0.949 . S
H578 C582 0.949 . S
C579 C580 1.349 . S
C579 C581 1.327 . S
C579 H602 0.950 . S
C580 C579 1.349 . S
C580 C592 1.349 . S
C581 C579 1.327 . S
C581 C597 1.429 . S
C581 H603 0.950 . S
C582 H578 0.949 . S
C582 C590 1.574 . S
C582 C598 1.368 . S
H583 C591 0.950 . S
H584 C589 0.950 . S
H585 C590 0.949 . S
H586 C592 0.950 . S
H587 C593 0.950 . S
H588 C594 0.949 . S
C589 H584 0.950 . S
C589 C591 1.327 . S
C589 C595 1.429 . S
C590 C582 1.574 . S
C590 H585 0.949 . S
C590 C596 1.368 . S
C591 C575 1.349 . S
C591 H583 0.950 . S
C591 C589 1.327 . S
C592 C580 1.349 . S
C592 H586 0.950 . S
C592 C593 1.327 . S
C593 H587 0.950 . S
C593 C592 1.327 . S
C593 C597 1.429 . S
C594 C577 1.574 . S
C594 H588 0.949 . S
C594 C598 1.368 . S
C595 C576 1.429 . S
C595 C589 1.429 . S
C595 C596 1.523 . S
C596 C577 1.368 . S
C596 C590 1.368 . S
C596 C595 1.523 . S
C597 C581 1.429 . S
C597 C593 1.429 . S
C597 C598 1.523 . S
C598 C582 1.368 . S
C598 C594 1.368 . S
C598 C597 1.523 . S
H599 C574 0.950 . S
H600 C576 0.950 . S
H601 C577 0.949 . S
H602 C579 0.950 . S
H603 C581 0.950 . S
C604 C605 1.349 . S
C604 C606 1.327 . S
C604 H629 0.950 . S
C605 C604 1.349 . S
C605 C621 1.349 . S
C606 C604 1.327 . S
C606 C625 1.429 . S
C606 H630 0.950 . S
C607 C624 1.574 . S
C607 C626 1.368 . S
C607 H631 0.949 . S
H608 C612 0.949 . S
C609 C610 1.349 . S
C609 C611 1.327 1_545 S
C609 H632 0.950 . S
C610 C609 1.349 . S
C610 C622 1.349 . S
C611 C609 1.327 1_565 S
C611 C627 1.429 . S
C611 H633 0.950 . S
C612 H608 0.949 . S
C612 C620 1.574 . S
C612 C628 1.368 . S
H613 C621 0.950 . S
H614 C619 0.950 . S
H615 C620 0.949 . S
H616 C622 0.950 . S
H617 C623 0.950 . S
H618 C624 0.949 . S
C619 H614 0.950 . S
C619 C621 1.327 . S
C619 C625 1.429 . S
C620 C612 1.574 . S
C620 H615 0.949 . S
C620 C626 1.368 . S
C621 C605 1.349 . S
C621 H613 0.950 . S
C621 C619 1.327 . S
C622 C610 1.349 . S
C622 H616 0.950 . S
C622 C623 1.327 . S
C623 H617 0.950 . S
C623 C622 1.327 . S
C623 C627 1.429 1_545 S
C624 C607 1.574 . S
C624 H618 0.949 . S
C624 C628 1.368 . S
C625 C606 1.429 . S
C625 C619 1.429 . S
C625 C626 1.523 . S
C626 C607 1.368 . S
C626 C620 1.368 . S
C626 C625 1.523 . S
C627 C611 1.429 . S
C627 C623 1.429 1_565 S
C627 C628 1.523 . S
C628 C612 1.368 . S
C628 C624 1.368 . S
C628 C627 1.523 . S
H629 C604 0.950 . S
H630 C606 0.950 . S
H631 C607 0.949 . S
H632 C609 0.950 . S
H633 C611 0.950 . S
C634 C635 1.349 . S
C634 C636 1.327 . S
C634 H659 0.950 . S
C635 C634 1.349 . S
C635 C651 1.349 . S
C636 C634 1.327 . S
C636 C655 1.429 . S
C636 H660 0.950 . S
C637 C654 1.574 . S
C637 C656 1.368 . S
C637 H661 0.949 . S
H638 C642 0.949 . S
C639 C640 1.349 . S
C639 C641 1.327 . S
C639 H662 0.950 . S
C640 C639 1.349 . S
C640 C652 1.349 . S
C641 C639 1.327 . S
C641 C657 1.429 . S
C641 H663 0.950 . S
C642 H638 0.949 . S
C642 C650 1.574 . S
C642 C658 1.368 . S
H643 C651 0.950 . S
H644 C649 0.950 . S
H645 C650 0.949 . S
H646 C652 0.950 . S
H647 C653 0.950 . S
H648 C654 0.949 . S
C649 H644 0.950 . S
C649 C651 1.327 . S
C649 C655 1.429 . S
C650 C642 1.574 . S
C650 H645 0.949 . S
C650 C656 1.368 . S
C651 C635 1.349 . S
C651 H643 0.950 . S
C651 C649 1.327 . S
C652 C640 1.349 . S
C652 H646 0.950 . S
C652 C653 1.327 . S
C653 H647 0.950 . S
C653 C652 1.327 . S
C653 C657 1.429 . S
C654 C637 1.574 . S
C654 H648 0.949 . S
C654 C658 1.368 . S
C655 C636 1.429 . S
C655 C649 1.429 . S
C655 C656 1.523 . S
C656 C637 1.368 . S
C656 C650 1.368 . S
C656 C655 1.523 . S
C657 C641 1.429 . S
C657 C653 1.429 . S
C657 C658 1.523 . S
C658 C642 1.368 . S
C658 C654 1.368 . S
C658 C657 1.523 . S
H659 C634 0.950 . S
H660 C636 0.950 . S
H661 C637 0.949 . S
H662 C639 0.950 . S
H663 C641 0.950 . S
C664 C665 1.349 . S
C664 C666 1.327 . S
C664 H689 0.950 . S
C665 C664 1.349 . S
C665 C681 1.349 . S
C666 C664 1.327 . S
C666 C685 1.429 . S
C666 H690 0.950 . S
C667 C684 1.574 . S
C667 C686 1.368 . S
C667 H691 0.949 . S
H668 C672 0.949 . S
C669 C670 1.349 . S
C669 C671 1.327 . S
C669 H692 0.950 . S
C670 C669 1.349 . S
C670 C682 1.349 . S
C671 C669 1.327 . S
C671 C687 1.429 . S
C671 H693 0.950 . S
C672 H668 0.949 . S
C672 C680 1.574 . S
C672 C688 1.368 . S
H673 C681 0.950 . S
H674 C679 0.950 . S
H675 C680 0.949 . S
H676 C682 0.950 . S
H677 C683 0.950 . S
H678 C684 0.949 . S
C679 H674 0.950 . S
C679 C681 1.327 . S
C679 C685 1.429 . S
C680 C672 1.574 . S
C680 H675 0.949 . S
C680 C686 1.368 . S
C681 C665 1.349 . S
C681 H673 0.950 . S
C681 C679 1.327 . S
C682 C670 1.349 . S
C682 H676 0.950 . S
C682 C683 1.327 . S
C683 H677 0.950 . S
C683 C682 1.327 . S
C683 C687 1.429 . S
C684 C667 1.574 . S
C684 H678 0.949 . S
C684 C688 1.368 . S
C685 C666 1.429 . S
C685 C679 1.429 . S
C685 C686 1.523 . S
C686 C667 1.368 . S
C686 C680 1.368 . S
C686 C685 1.523 . S
C687 C671 1.429 . S
C687 C683 1.429 . S
C687 C688 1.523 . S
C688 C672 1.368 . S
C688 C684 1.368 . S
C688 C687 1.523 . S
H689 C664 0.950 . S
H690 C666 0.950 . S
H691 C667 0.949 . S
H692 C669 0.950 . S
H693 C671 0.950 . S
C694 C695 1.349 . S
C694 C696 1.327 . S
C694 H719 0.950 . S
C695 C694 1.349 . S
C695 C711 1.349 . S
C696 C694 1.327 . S
C696 C715 1.429 . S
C696 H720 0.950 . S
C697 C714 1.574 . S
C697 C716 1.368 . S
C697 H721 0.949 . S
H698 C702 0.949 . S
C699 C700 1.349 . S
C699 C701 1.327 . S
C699 H722 0.950 . S
C700 C699 1.349 . S
C700 C712 1.349 . S
C701 C699 1.327 . S
C701 C717 1.429 . S
C701 H723 0.950 . S
C702 H698 0.949 . S
C702 C710 1.574 . S
C702 C718 1.368 . S
H703 C711 0.950 . S
H704 C709 0.950 . S
H705 C710 0.949 . S
H706 C712 0.950 . S
H707 C713 0.950 . S
H708 C714 0.949 . S
C709 H704 0.950 . S
C709 C711 1.327 . S
C709 C715 1.429 . S
C710 C702 1.574 . S
C710 H705 0.949 . S
C710 C716 1.368 . S
C711 C695 1.349 . S
C711 H703 0.950 . S
C711 C709 1.327 . S
C712 C700 1.349 . S
C712 H706 0.950 . S
C712 C713 1.327 . S
C713 H707 0.950 . S
C713 C712 1.327 . S
C713 C717 1.429 . S
C714 C697 1.574 . S
C714 H708 0.949 . S
C714 C718 1.368 . S
C715 C696 1.429 . S
C715 C709 1.429 . S
C715 C716 1.523 . S
C716 C697 1.368 . S
C716 C710 1.368 . S
C716 C715 1.523 . S
C717 C701 1.429 . S
C717 C713 1.429 . S
C717 C718 1.523 . S
C718 C702 1.368 . S
C718 C714 1.368 . S
C718 C717 1.523 . S
H719 C694 0.950 . S
H720 C696 0.950 . S
H721 C697 0.949 . S
H722 C699 0.950 . S
H723 C701 0.950 . S
C724 C725 1.349 . S
C724 C726 1.327 . S
C724 H749 0.950 . S
C725 C724 1.349 . S
C725 C741 1.349 . S
C726 C724 1.327 . S
C726 C745 1.429 . S
C726 H750 0.950 . S
C727 C744 1.574 . S
C727 C746 1.368 . S
C727 H751 0.949 . S
H728 C732 0.949 . S
C729 C730 1.349 . S
C729 C731 1.327 . S
C729 H752 0.950 . S
C730 C729 1.349 . S
C730 C742 1.349 . S
C731 C729 1.327 . S
C731 C747 1.429 . S
C731 H753 0.950 . S
C732 H728 0.949 . S
C732 C740 1.574 . S
C732 C748 1.368 . S
H733 C741 0.950 . S
H734 C739 0.950 . S
H735 C740 0.949 . S
H736 C742 0.950 . S
H737 C743 0.950 . S
H738 C744 0.949 . S
C739 H734 0.950 . S
C739 C741 1.327 . S
C739 C745 1.429 . S
C740 C732 1.574 . S
C740 H735 0.949 . S
C740 C746 1.368 . S
C741 C725 1.349 . S
C741 H733 0.950 . S
C741 C739 1.327 . S
C742 C730 1.349 . S
C742 H736 0.950 . S
C742 C743 1.327 . S
C743 H737 0.950 . S
C743 C742 1.327 . S
C743 C747 1.429 . S
C744 C727 1.574 . S
C744 H738 0.949 . S
C744 C748 1.368 . S
C745 C726 1.429 . S
C745 C739 1.429 . S
C745 C746 1.523 . S
C746 C727 1.368 . S
C746 C740 1.368 . S
C746 C745 1.523 . S
C747 C731 1.429 . S
C747 C743 1.429 . S
C747 C748 1.523 . S
C748 C732 1.368 . S
C748 C744 1.368 . S
C748 C747 1.523 . S
H749 C724 0.950 . S
H750 C726 0.950 . S
H751 C727 0.949 . S
H752 C729 0.950 . S
H753 C731 0.950 . S
C754 C755 1.349 . S
C754 C756 1.327 . S
C754 H779 0.950 . S
C755 C754 1.349 . S
C755 C771 1.349 . S
C756 C754 1.327 . S
C756 C775 1.429 . S
C756 H780 0.950 . S
C757 C774 1.574 . S
C757 C776 1.368 . S
C757 H781 0.949 . S
H758 C762 0.949 . S
C759 C760 1.349 . S
C759 C761 1.327 . S
C759 H782 0.950 . S
C760 C759 1.349 . S
C760 C772 1.349 . S
C761 C759 1.327 . S
C761 C777 1.429 . S
C761 H783 0.950 . S
C762 H758 0.949 . S
C762 C770 1.574 . S
C762 C778 1.368 . S
H763 C771 0.950 . S
H764 C769 0.950 . S
H765 C770 0.949 . S
H766 C772 0.950 . S
H767 C773 0.950 . S
H768 C774 0.949 . S
C769 H764 0.950 . S
C769 C771 1.327 . S
C769 C775 1.429 . S
C770 C762 1.574 . S
C770 H765 0.949 . S
C770 C776 1.368 . S
C771 C755 1.349 . S
C771 H763 0.950 . S
C771 C769 1.327 . S
C772 C760 1.349 . S
C772 H766 0.950 . S
C772 C773 1.327 . S
C773 H767 0.950 . S
C773 C772 1.327 . S
C773 C777 1.429 . S
C774 C757 1.574 . S
C774 H768 0.949 . S
C774 C778 1.368 . S
C775 C756 1.429 . S
C775 C769 1.429 . S
C775 C776 1.523 . S
C776 C757 1.368 . S
C776 C770 1.368 . S
C776 C775 1.523 . S
C777 C761 1.429 . S
C777 C773 1.429 . S
C777 C778 1.523 . S
C778 C762 1.368 . S
C778 C774 1.368 . S
C778 C777 1.523 . S
H779 C754 0.950 . S
H780 C756 0.950 . S
H781 C757 0.949 . S
H782 C759 0.950 . S
H783 C761 0.950 . S
C784 C785 1.349 . S
C784 C786 1.327 . S
C784 H809 0.950 . S
C785 C784 1.349 . S
C785 C801 1.349 . S
C786 C784 1.327 . S
C786 C805 1.429 . S
C786 H810 0.950 . S
C787 C804 1.574 . S
C787 C806 1.368 . S
C787 H811 0.949 . S
H788 C792 0.949 . S
C789 C790 1.349 . S
C789 C791 1.327 . S
C789 H812 0.950 . S
C790 C789 1.349 . S
C790 C802 1.349 . S
C791 C789 1.327 . S
C791 C807 1.429 . S
C791 H813 0.950 . S
C792 H788 0.949 . S
C792 C800 1.574 . S
C792 C808 1.368 . S
H793 C801 0.950 . S
H794 C799 0.950 . S
H795 C800 0.949 . S
H796 C802 0.950 . S
H797 C803 0.950 . S
H798 C804 0.949 . S
C799 H794 0.950 . S
C799 C801 1.327 . S
C799 C805 1.429 . S
C800 C792 1.574 . S
C800 H795 0.949 . S
C800 C806 1.368 . S
C801 C785 1.349 . S
C801 H793 0.950 . S
C801 C799 1.327 . S
C802 C790 1.349 . S
C802 H796 0.950 . S
C802 C803 1.327 . S
C803 H797 0.950 . S
C803 C802 1.327 . S
C803 C807 1.429 . S
C804 C787 1.574 . S
C804 H798 0.949 . S
C804 C808 1.368 . S
C805 C786 1.429 . S
C805 C799 1.429 . S
C805 C806 1.523 . S
C806 C787 1.368 . S
C806 C800 1.368 . S
C806 C805 1.523 . S
C807 C791 1.429 . S
C807 C803 1.429 . S
C807 C808 1.523 . S
C808 C792 1.368 . S
C808 C804 1.368 . S
C808 C807 1.523 . S
H809 C784 0.950 . S
H810 C786 0.950 . S
H811 C787 0.949 . S
H812 C789 0.950 . S
H813 C791 0.950 . S
C814 C815 1.349 . S
C814 C816 1.327 . S
C814 H839 0.950 . S
C815 C814 1.349 . S
C815 C831 1.349 . S
C816 C814 1.327 . S
C816 C835 1.429 . S
C816 H840 0.950 . S
C817 C834 1.574 . S
C817 C836 1.368 . S
C817 H841 0.949 . S
H818 C822 0.949 . S
C819 C820 1.349 . S
C819 C821 1.327 . S
C819 H842 0.950 . S
C820 C819 1.349 . S
C820 C832 1.349 . S
C821 C819 1.327 . S
C821 C837 1.429 . S
C821 H843 0.950 . S
C822 H818 0.949 . S
C822 C830 1.574 . S
C822 C838 1.368 . S
H823 C831 0.950 . S
H824 C829 0.950 . S
H825 C830 0.949 . S
H826 C832 0.950 . S
H827 C833 0.950 . S
H828 C834 0.949 . S
C829 H824 0.950 . S
C829 C831 1.327 . S
C829 C835 1.429 . S
C830 C822 1.574 . S
C830 H825 0.949 . S
C830 C836 1.368 . S
C831 C815 1.349 . S
C831 H823 0.950 . S
C831 C829 1.327 . S
C832 C820 1.349 . S
C832 H826 0.950 . S
C832 C833 1.327 . S
C833 H827 0.950 . S
C833 C832 1.327 . S
C833 C837 1.429 . S
C834 C817 1.574 . S
C834 H828 0.949 . S
C834 C838 1.368 . S
C835 C816 1.429 . S
C835 C829 1.429 . S
C835 C836 1.523 . S
C836 C817 1.368 . S
C836 C830 1.368 . S
C836 C835 1.523 . S
C837 C821 1.429 . S
C837 C833 1.429 . S
C837 C838 1.523 . S
C838 C822 1.368 . S
C838 C834 1.368 . S
C838 C837 1.523 . S
H839 C814 0.950 . S
H840 C816 0.950 . S
H841 C817 0.949 . S
H842 C819 0.950 . S
H843 C821 0.950 . S
C844 C845 1.349 . S
C844 C846 1.327 . S
C844 H869 0.950 . S
C845 C844 1.349 . S
C845 C861 1.349 . S
C846 C844 1.327 . S
C846 C865 1.429 . S
C846 H870 0.950 . S
C847 C864 1.574 . S
C847 C866 1.368 . S
C847 H871 0.949 . S
H848 C852 0.949 . S
C849 C850 1.349 . S
C849 C851 1.327 . S
C849 H872 0.950 . S
C850 C849 1.349 . S
C850 C862 1.349 . S
C851 C849 1.327 . S
C851 C867 1.429 . S
C851 H873 0.950 . S
C852 H848 0.949 . S
C852 C860 1.574 . S
C852 C868 1.368 . S
H853 C861 0.950 . S
H854 C859 0.950 . S
H855 C860 0.949 . S
H856 C862 0.950 . S
H857 C863 0.950 . S
H858 C864 0.949 . S
C859 H854 0.950 . S
C859 C861 1.327 . S
C859 C865 1.429 . S
C860 C852 1.574 . S
C860 H855 0.949 . S
C860 C866 1.368 . S
C861 C845 1.349 . S
C861 H853 0.950 . S
C861 C859 1.327 . S
C862 C850 1.349 . S
C862 H856 0.950 . S
C862 C863 1.327 . S
C863 H857 0.950 . S
C863 C862 1.327 . S
C863 C867 1.429 . S
C864 C847 1.574 . S
C864 H858 0.949 . S
C864 C868 1.368 . S
C865 C846 1.429 . S
C865 C859 1.429 . S
C865 C866 1.523 . S
C866 C847 1.368 . S
C866 C860 1.368 . S
C866 C865 1.523 . S
C867 C851 1.429 . S
C867 C863 1.429 . S
C867 C868 1.523 . S
C868 C852 1.368 . S
C868 C864 1.368 . S
C868 C867 1.523 . S
H869 C844 0.950 . S
H870 C846 0.950 . S
H871 C847 0.949 . S
H872 C849 0.950 . S
H873 C851 0.950 . S
C874 C875 1.349 . S
C874 C876 1.327 . S
C874 H899 0.950 . S
C875 C874 1.349 . S
C875 C891 1.349 . S
C876 C874 1.327 . S
C876 C895 1.429 . S
C876 H900 0.950 . S
C877 C894 1.574 . S
C877 C896 1.368 . S
C877 H901 0.949 . S
H878 C882 0.949 . S
C879 C880 1.349 . S
C879 C881 1.327 . S
C879 H902 0.950 . S
C880 C879 1.349 . S
C880 C892 1.349 . S
C881 C879 1.327 . S
C881 C897 1.429 . S
C881 H903 0.950 . S
C882 H878 0.949 . S
C882 C890 1.574 . S
C882 C898 1.368 . S
H883 C891 0.950 . S
H884 C889 0.950 . S
H885 C890 0.949 . S
H886 C892 0.950 . S
H887 C893 0.950 . S
H888 C894 0.949 . S
C889 H884 0.950 . S
C889 C891 1.327 . S
C889 C895 1.429 . S
C890 C882 1.574 . S
C890 H885 0.949 . S
C890 C896 1.368 . S
C891 C875 1.349 . S
C891 H883 0.950 . S
C891 C889 1.327 . S
C892 C880 1.349 . S
C892 H886 0.950 . S
C892 C893 1.327 . S
C893 H887 0.950 . S
C893 C892 1.327 . S
C893 C897 1.429 . S
C894 C877 1.574 . S
C894 H888 0.949 . S
C894 C898 1.368 . S
C895 C876 1.429 . S
C895 C889 1.429 . S
C895 C896 1.523 . S
C896 C877 1.368 . S
C896 C890 1.368 . S
C896 C895 1.523 . S
C897 C881 1.429 . S
C897 C893 1.429 . S
C897 C898 1.523 . S
C898 C882 1.368 . S
C898 C894 1.368 . S
C898 C897 1.523 . S
H899 C874 0.950 . S
H900 C876 0.950 . S
H901 C877 0.949 . S
H902 C879 0.950 . S
H903 C881 0.950 . S
C904 C905 1.349 . S
C904 C906 1.327 . S
C904 H929 0.950 . S
C905 C904 1.349 . S
C905 C921 1.349 . S
C906 C904 1.327 . S
C906 C925 1.429 . S
C906 H930 0.950 . S
C907 C924 1.574 . S
C907 C926 1.368 . S
C907 H931 0.949 . S
H908 C912 0.949 . S
C909 C910 1.349 . S
C909 C911 1.327 . S
C909 H932 0.950 . S
C910 C909 1.349 . S
C910 C922 1.349 . S
C911 C909 1.327 . S
C911 C927 1.429 . S
C911 H933 0.950 . S
C912 H908 0.949 . S
C912 C920 1.574 . S
C912 C928 1.368 . S
H913 C921 0.950 . S
H914 C919 0.950 . S
H915 C920 0.949 . S
H916 C922 0.950 . S
H917 C923 0.950 . S
H918 C924 0.949 . S
C919 H914 0.950 . S
C919 C921 1.327 . S
C919 C925 1.429 . S
C920 C912 1.574 . S
C920 H915 0.949 . S
C920 C926 1.368 . S
C921 C905 1.349 . S
C921 H913 0.950 . S
C921 C919 1.327 . S
C922 C910 1.349 . S
C922 H916 0.950 . S
C922 C923 1.327 . S
C923 H917 0.950 . S
C923 C922 1.327 . S
C923 C927 1.429 . S
C924 C907 1.574 . S
C924 H918 0.949 . S
C924 C928 1.368 . S
C925 C906 1.429 . S
C925 C919 1.429 . S
C925 C926 1.523 . S
C926 C907 1.368 . S
C926 C920 1.368 . S
C926 C925 1.523 . S
C927 C911 1.429 . S
C927 C923 1.429 . S
C927 C928 1.523 . S
C928 C912 1.368 . S
C928 C924 1.368 . S
C928 C927 1.523 . S
H929 C904 0.950 . S
H930 C906 0.950 . S
H931 C907 0.949 . S
H932 C909 0.950 . S
H933 C911 0.950 . S
C934 C935 1.349 . S
C934 C936 1.327 . S
C934 H959 0.950 . S
C935 C934 1.349 . S
C935 C951 1.349 . S
C936 C934 1.327 . S
C936 C955 1.429 . S
C936 H960 0.950 . S
C937 C954 1.574 . S
C937 C956 1.368 . S
C937 H961 0.949 . S
H938 C942 0.949 . S
C939 C940 1.349 . S
C939 C941 1.327 . S
C939 H962 0.950 . S
C940 C939 1.349 . S
C940 C952 1.349 . S
C941 C939 1.327 . S
C941 C957 1.429 . S
C941 H963 0.950 . S
C942 H938 0.949 . S
C942 C950 1.574 . S
C942 C958 1.368 . S
H943 C951 0.950 . S
H944 C949 0.950 . S
H945 C950 0.949 . S
H946 C952 0.950 . S
H947 C953 0.950 . S
H948 C954 0.949 . S
C949 H944 0.950 . S
C949 C951 1.327 . S
C949 C955 1.429 . S
C950 C942 1.574 . S
C950 H945 0.949 . S
C950 C956 1.368 . S
C951 C935 1.349 . S
C951 H943 0.950 . S
C951 C949 1.327 . S
C952 C940 1.349 . S
C952 H946 0.950 . S
C952 C953 1.327 . S
C953 H947 0.950 . S
C953 C952 1.327 . S
C953 C957 1.429 . S
C954 C937 1.574 . S
C954 H948 0.949 . S
C954 C958 1.368 . S
C955 C936 1.429 . S
C955 C949 1.429 . S
C955 C956 1.523 . S
C956 C937 1.368 . S
C956 C950 1.368 . S
C956 C955 1.523 . S
C957 C941 1.429 . S
C957 C953 1.429 . S
C957 C958 1.523 . S
C958 C942 1.368 . S
C958 C954 1.368 . S
C958 C957 1.523 . S
H959 C934 0.950 . S
H960 C936 0.950 . S
H961 C937 0.949 . S
H962 C939 0.950 . S
H963 C941 0.950 . S
C964 C965 1.349 . S
C964 C966 1.327 . S
C964 H989 0.950 . S
C965 C964 1.349 . S
C965 C981 1.349 . S
C966 C964 1.327 . S
C966 C985 1.429 . S
C966 H990 0.950 . S
C967 C984 1.574 . S
C967 C986 1.368 . S
C967 H991 0.949 . S
H968 C972 0.949 . S
C969 C970 1.349 . S
C969 C971 1.327 . S
C969 H992 0.950 . S
C970 C969 1.349 . S
C970 C982 1.349 . S
C971 C969 1.327 . S
C971 C987 1.429 . S
C971 H993 0.950 . S
C972 H968 0.949 . S
C972 C980 1.574 . S
C972 C988 1.368 . S
H973 C981 0.950 . S
H974 C979 0.950 . S
H975 C980 0.949 . S
H976 C982 0.950 . S
H977 C983 0.950 . S
H978 C984 0.949 . S
C979 H974 0.950 . S
C979 C981 1.327 . S
C979 C985 1.429 . S
C980 C972 1.574 . S
C980 H975 0.949 . S
C980 C986 1.368 . S
C981 C965 1.349 . S
C981 H973 0.950 . S
C981 C979 1.327 . S
C982 C970 1.349 . S
C982 H976 0.950 . S
C982 C983 1.327 . S
C983 H977 0.950 . S
C983 C982 1.327 . S
C983 C987 1.429 . S
C984 C967 1.574 . S
C984 H978 0.949 . S
C984 C988 1.368 . S
C985 C966 1.429 . S
C985 C979 1.429 . S
C985 C986 1.523 . S
C986 C967 1.368 . S
C986 C980 1.368 . S
C986 C985 1.523 . S
C987 C971 1.429 . S
C987 C983 1.429 . S
C987 C988 1.523 . S
C988 C972 1.368 . S
C988 C984 1.368 . S
C988 C987 1.523 . S
H989 C964 0.950 . S
H990 C966 0.950 . S
H991 C967 0.949 . S
H992 C969 0.950 . S
H993 C971 0.950 . S
C994 C995 1.349 . S
C994 C996 1.327 . S
C994 H1019 0.950 . S
C995 C994 1.349 . S
C995 C1011 1.349 . S
C996 C994 1.327 . S
C996 C1015 1.429 . S
C996 H1020 0.950 . S
C997 C1014 1.574 . S
C997 C1016 1.368 . S
C997 H1021 0.949 . S
H998 C1002 0.949 . S
C999 C1000 1.349 . S
C999 C1001 1.327 . S
C999 H1022 0.950 . S
C1000 C999 1.349 . S
C1000 C1012 1.349 . S
C1001 C999 1.327 . S
C1001 C1017 1.429 . S
C1001 H1023 0.950 . S
C1002 H998 0.949 . S
C1002 C1010 1.574 . S
C1002 C1018 1.368 . S
H1003 C1011 0.950 . S
H1004 C1009 0.950 . S
H1005 C1010 0.949 . S
H1006 C1012 0.950 . S
H1007 C1013 0.950 . S
H1008 C1014 0.949 . S
C1009 H1004 0.950 . S
C1009 C1011 1.327 . S
C1009 C1015 1.429 . S
C1010 C1002 1.574 . S
C1010 H1005 0.949 . S
C1010 C1016 1.368 . S
C1011 C995 1.349 . S
C1011 H1003 0.950 . S
C1011 C1009 1.327 . S
C1012 C1000 1.349 . S
C1012 H1006 0.950 . S
C1012 C1013 1.327 . S
C1013 H1007 0.950 . S
C1013 C1012 1.327 . S
C1013 C1017 1.429 . S
C1014 C997 1.574 . S
C1014 H1008 0.949 . S
C1014 C1018 1.368 . S
C1015 C996 1.429 . S
C1015 C1009 1.429 . S
C1015 C1016 1.523 . S
C1016 C997 1.368 . S
C1016 C1010 1.368 . S
C1016 C1015 1.523 . S
C1017 C1001 1.429 . S
C1017 C1013 1.429 . S
C1017 C1018 1.523 . S
C1018 C1002 1.368 . S
C1018 C1014 1.368 . S
C1018 C1017 1.523 . S
H1019 C994 0.950 . S
H1020 C996 0.950 . S
H1021 C997 0.949 . S
H1022 C999 0.950 . S
H1023 C1001 0.950 . S
C1024 C1025 1.349 . S
C1024 C1026 1.327 . S
C1024 H1049 0.950 . S
C1025 C1024 1.349 . S
C1025 C1041 1.349 . S
C1026 C1024 1.327 . S
C1026 C1045 1.429 . S
C1026 H1050 0.950 . S
C1027 C1044 1.574 . S
C1027 C1046 1.368 . S
C1027 H1051 0.949 . S
H1028 C1032 0.949 . S
C1029 C1030 1.349 . S
C1029 C1031 1.327 . S
C1029 H1052 0.950 . S
C1030 C1029 1.349 . S
C1030 C1042 1.349 . S
C1031 C1029 1.327 . S
C1031 C1047 1.429 1_545 S
C1031 H1053 0.950 1_545 S
C1032 H1028 0.949 . S
C1032 C1040 1.574 . S
C1032 C1048 1.368 . S
H1033 C1041 0.950 . S
H1034 C1039 0.950 . S
H1035 C1040 0.949 . S
H1036 C1042 0.950 . S
H1037 C1043 0.962 . S
H1038 C1044 0.949 . S
C1039 H1034 0.950 . S
C1039 C1041 1.327 . S
C1039 C1045 1.429 . S
C1040 C1032 1.574 . S
C1040 H1035 0.949 . S
C1040 C1046 1.368 . S
C1041 C1025 1.349 . S
C1041 H1033 0.950 . S
C1041 C1039 1.327 . S
C1042 C1030 1.349 . S
C1042 H1036 0.950 . S
C1042 C1043 1.314 1_545 S
C1043 H1037 0.962 . S
C1043 C1042 1.314 1_565 S
C1043 C1047 1.430 . S
C1044 C1027 1.574 . S
C1044 H1038 0.949 . S
C1044 C1048 1.368 . S
C1045 C1026 1.429 . S
C1045 C1039 1.429 . S
C1045 C1046 1.523 . S
C1046 C1027 1.368 . S
C1046 C1040 1.368 . S
C1046 C1045 1.523 . S
C1047 C1031 1.429 1_565 S
C1047 C1043 1.430 . S
C1047 C1048 1.523 . S
C1048 C1032 1.368 . S
C1048 C1044 1.368 . S
C1048 C1047 1.523 . S
H1049 C1024 0.950 . S
H1050 C1026 0.950 . S
H1051 C1027 0.949 . S
H1052 C1029 0.950 . S
H1053 C1031 0.950 1_565 S
C1054 C1055 1.349 . S
C1054 C1056 1.327 . S
C1054 H1079 0.950 . S
C1055 C1054 1.349 . S
C1055 C1071 1.349 . S
C1056 C1054 1.327 . S
C1056 C1075 1.429 . S
C1056 H1080 0.950 . S
C1057 C1074 1.574 . S
C1057 C1076 1.368 . S
C1057 H1081 0.949 . S
H1058 C1062 0.949 . S
C1059 C1060 1.349 . S
C1059 C1061 1.327 . S
C1059 H1082 0.950 . S
C1060 C1059 1.349 . S
C1060 C1072 1.349 . S
C1061 C1059 1.327 . S
C1061 C1077 1.429 . S
C1061 H1083 0.950 . S
C1062 H1058 0.949 . S
C1062 C1070 1.574 . S
C1062 C1078 1.368 . S
H1063 C1071 0.950 . S
H1064 C1069 0.950 . S
H1065 C1070 0.949 . S
H1066 C1072 0.950 . S
H1067 C1073 0.950 . S
H1068 C1074 0.949 . S
C1069 H1064 0.950 . S
C1069 C1071 1.327 . S
C1069 C1075 1.429 . S
C1070 C1062 1.574 . S
C1070 H1065 0.949 . S
C1070 C1076 1.368 . S
C1071 C1055 1.349 . S
C1071 H1063 0.950 . S
C1071 C1069 1.327 . S
C1072 C1060 1.349 . S
C1072 H1066 0.950 . S
C1072 C1073 1.327 . S
C1073 H1067 0.950 . S
C1073 C1072 1.327 . S
C1073 C1077 1.429 . S
C1074 C1057 1.574 . S
C1074 H1068 0.949 . S
C1074 C1078 1.368 . S
C1075 C1056 1.429 . S
C1075 C1069 1.429 . S
C1075 C1076 1.523 . S
C1076 C1057 1.368 . S
C1076 C1070 1.368 . S
C1076 C1075 1.523 . S
C1077 C1061 1.429 . S
C1077 C1073 1.429 . S
C1077 C1078 1.523 . S
C1078 C1062 1.368 . S
C1078 C1074 1.368 . S
C1078 C1077 1.523 . S
H1079 C1054 0.950 . S
H1080 C1056 0.950 . S
H1081 C1057 0.949 . S
H1082 C1059 0.950 . S
H1083 C1061 0.950 . S
C370 C96 1.544 . S
C365 C5 1.374 . S
C400 C149 1.506 . S
C395 C16 1.269 . S
C430 C110 1.747 . S
C425 C30 1.749 . S
C460 C135 1.622 . S
C455 C40 1.571 . S
C490 C181 1.447 . S
C485 C8 1.442 . S
C520 C227 1.468 . S
C515 C18 1.410 . S
C545 C29 1.763 . S
C550 C294 1.790 . S
C580 C326 1.566 . S
C575 C38 1.319 . S
C610 C195 1.395 . S
C605 C19 1.389 . S
C635 C27 1.505 . S
C640 C241 1.667 . S
C670 C280 1.579 . S
C665 C41 1.564 . S
C700 C340 1.532 . S
C695 C7 1.494 . S
C725 C52 1.565 . S
C730 C156 1.596 . S
C760 C89 1.606 . S
C755 C62 1.570 . S
C785 C74 1.345 . S
C790 C142 1.351 . S
C815 C82 1.213 . S
C820 C103 1.406 . S
C850 C287 1.854 . S
C845 C51 1.763 . S
C880 C333 1.630 . S
C875 C60 1.381 . S
C910 C188 1.480 . S
C905 C71 1.257 . S
C935 C84 1.462 . S
C940 C248 1.508 . S
C970 C273 1.739 . S
C965 C63 1.731 . S
C1000 C319 1.463 . S
C995 C73 1.424 . S
C1030 C202 1.553 . S
C1025 C85 1.555 . S
C1055 C49 1.394 . S
C1060 C234 1.688 . S
