# Generated by pormake.
# Topology eea, (3,6)-cn, num edge types: 1
# Building blocks:
#     Node 0, Type 0, BuildingBlock: PAMTOO_clean_linker_0, # of connection points: 3
#     Node 1, Type 0, BuildingBlock: PAMTOO_clean_linker_0, # of connection points: 3
#     Node 2, Type 0, BuildingBlock: PAMTOO_clean_linker_0, # of connection points: 3
#     Node 3, Type 0, BuildingBlock: PAMTOO_clean_linker_0, # of connection points: 3
#     Node 4, Type 0, BuildingBlock: PAMTOO_clean_linker_0, # of connection points: 3
#     Node 5, Type 0, BuildingBlock: PAMTOO_clean_linker_0, # of connection points: 3
#     Node 6, Type 0, BuildingBlock: PAMTOO_clean_linker_0, # of connection points: 3
#     Node 7, Type 0, BuildingBlock: PAMTOO_clean_linker_0, # of connection points: 3
#     Node 8, Type 0, BuildingBlock: PAMTOO_clean_linker_0, # of connection points: 3
#     Node 9, Type 0, BuildingBlock: PAMTOO_clean_linker_0, # of connection points: 3
#     Node 10, Type 0, BuildingBlock: PAMTOO_clean_linker_0, # of connection points: 3
#     Node 11, Type 0, BuildingBlock: PAMTOO_clean_linker_0, # of connection points: 3
#     Node 12, Type 0, BuildingBlock: PAMTOO_clean_linker_0, # of connection points: 3
#     Node 13, Type 0, BuildingBlock: PAMTOO_clean_linker_0, # of connection points: 3
#     Node 14, Type 0, BuildingBlock: PAMTOO_clean_linker_0, # of connection points: 3
#     Node 15, Type 0, BuildingBlock: PAMTOO_clean_linker_0, # of connection points: 3
#     Node 16, Type 0, BuildingBlock: PAMTOO_clean_linker_0, # of connection points: 3
#     Node 17, Type 0, BuildingBlock: PAMTOO_clean_linker_0, # of connection points: 3
#     Node 18, Type 1, BuildingBlock: CUKXOW_clean_sbu_0, # of connection points: 6
#     Node 19, Type 1, BuildingBlock: CUKXOW_clean_sbu_0, # of connection points: 6
#     Node 20, Type 1, BuildingBlock: CUKXOW_clean_sbu_0, # of connection points: 6
#     Node 21, Type 1, BuildingBlock: CUKXOW_clean_sbu_0, # of connection points: 6
#     Node 22, Type 1, BuildingBlock: CUKXOW_clean_sbu_0, # of connection points: 6
#     Node 23, Type 1, BuildingBlock: CUKXOW_clean_sbu_0, # of connection points: 6
#     Node 24, Type 1, BuildingBlock: CUKXOW_clean_sbu_0, # of connection points: 6
#     Node 25, Type 1, BuildingBlock: CUKXOW_clean_sbu_0, # of connection points: 6
#     Node 26, Type 1, BuildingBlock: CUKXOW_clean_sbu_0, # of connection points: 6
#     Edge 27, Type (0, 1), BuildingBlock: XIVTED_clean_linker_0, # of connection points: 2
#     Edge 28, Type (0, 1), BuildingBlock: XIVTED_clean_linker_0, # of connection points: 2
#     Edge 29, Type (0, 1), BuildingBlock: XIVTED_clean_linker_0, # of connection points: 2
#     Edge 30, Type (0, 1), BuildingBlock: XIVTED_clean_linker_0, # of connection points: 2
#     Edge 31, Type (0, 1), BuildingBlock: XIVTED_clean_linker_0, # of connection points: 2
#     Edge 32, Type (0, 1), BuildingBlock: XIVTED_clean_linker_0, # of connection points: 2
#     Edge 33, Type (0, 1), BuildingBlock: XIVTED_clean_linker_0, # of connection points: 2
#     Edge 34, Type (0, 1), BuildingBlock: XIVTED_clean_linker_0, # of connection points: 2
#     Edge 35, Type (0, 1), BuildingBlock: XIVTED_clean_linker_0, # of connection points: 2
#     Edge 36, Type (0, 1), BuildingBlock: XIVTED_clean_linker_0, # of connection points: 2
#     Edge 37, Type (0, 1), BuildingBlock: XIVTED_clean_linker_0, # of connection points: 2
#     Edge 38, Type (0, 1), BuildingBlock: XIVTED_clean_linker_0, # of connection points: 2
#     Edge 39, Type (0, 1), BuildingBlock: XIVTED_clean_linker_0, # of connection points: 2
#     Edge 40, Type (0, 1), BuildingBlock: XIVTED_clean_linker_0, # of connection points: 2
#     Edge 41, Type (0, 1), BuildingBlock: XIVTED_clean_linker_0, # of connection points: 2
#     Edge 42, Type (0, 1), BuildingBlock: XIVTED_clean_linker_0, # of connection points: 2
#     Edge 43, Type (0, 1), BuildingBlock: XIVTED_clean_linker_0, # of connection points: 2
#     Edge 44, Type (0, 1), BuildingBlock: XIVTED_clean_linker_0, # of connection points: 2
#     Edge 45, Type (0, 1), BuildingBlock: XIVTED_clean_linker_0, # of connection points: 2
#     Edge 46, Type (0, 1), BuildingBlock: XIVTED_clean_linker_0, # of connection points: 2
#     Edge 47, Type (0, 1), BuildingBlock: XIVTED_clean_linker_0, # of connection points: 2
#     Edge 48, Type (0, 1), BuildingBlock: XIVTED_clean_linker_0, # of connection points: 2
#     Edge 49, Type (0, 1), BuildingBlock: XIVTED_clean_linker_0, # of connection points: 2
#     Edge 50, Type (0, 1), BuildingBlock: XIVTED_clean_linker_0, # of connection points: 2
#     Edge 51, Type (0, 1), BuildingBlock: XIVTED_clean_linker_0, # of connection points: 2
#     Edge 52, Type (0, 1), BuildingBlock: XIVTED_clean_linker_0, # of connection points: 2
#     Edge 53, Type (0, 1), BuildingBlock: XIVTED_clean_linker_0, # of connection points: 2
#     Edge 54, Type (0, 1), BuildingBlock: XIVTED_clean_linker_0, # of connection points: 2
#     Edge 55, Type (0, 1), BuildingBlock: XIVTED_clean_linker_0, # of connection points: 2
#     Edge 56, Type (0, 1), BuildingBlock: XIVTED_clean_linker_0, # of connection points: 2
#     Edge 57, Type (0, 1), BuildingBlock: XIVTED_clean_linker_0, # of connection points: 2
#     Edge 58, Type (0, 1), BuildingBlock: XIVTED_clean_linker_0, # of connection points: 2
#     Edge 59, Type (0, 1), BuildingBlock: XIVTED_clean_linker_0, # of connection points: 2
#     Edge 60, Type (0, 1), BuildingBlock: XIVTED_clean_linker_0, # of connection points: 2
#     Edge 61, Type (0, 1), BuildingBlock: XIVTED_clean_linker_0, # of connection points: 2
#     Edge 62, Type (0, 1), BuildingBlock: XIVTED_clean_linker_0, # of connection points: 2
#     Edge 63, Type (0, 1), BuildingBlock: XIVTED_clean_linker_0, # of connection points: 2
#     Edge 64, Type (0, 1), BuildingBlock: XIVTED_clean_linker_0, # of connection points: 2
#     Edge 65, Type (0, 1), BuildingBlock: XIVTED_clean_linker_0, # of connection points: 2
#     Edge 66, Type (0, 1), BuildingBlock: XIVTED_clean_linker_0, # of connection points: 2
#     Edge 67, Type (0, 1), BuildingBlock: XIVTED_clean_linker_0, # of connection points: 2
#     Edge 68, Type (0, 1), BuildingBlock: XIVTED_clean_linker_0, # of connection points: 2
#     Edge 69, Type (0, 1), BuildingBlock: XIVTED_clean_linker_0, # of connection points: 2
#     Edge 70, Type (0, 1), BuildingBlock: XIVTED_clean_linker_0, # of connection points: 2
#     Edge 71, Type (0, 1), BuildingBlock: XIVTED_clean_linker_0, # of connection points: 2
#     Edge 72, Type (0, 1), BuildingBlock: XIVTED_clean_linker_0, # of connection points: 2
#     Edge 73, Type (0, 1), BuildingBlock: XIVTED_clean_linker_0, # of connection points: 2
#     Edge 74, Type (0, 1), BuildingBlock: XIVTED_clean_linker_0, # of connection points: 2
#     Edge 75, Type (0, 1), BuildingBlock: XIVTED_clean_linker_0, # of connection points: 2
#     Edge 76, Type (0, 1), BuildingBlock: XIVTED_clean_linker_0, # of connection points: 2
#     Edge 77, Type (0, 1), BuildingBlock: XIVTED_clean_linker_0, # of connection points: 2
#     Edge 78, Type (0, 1), BuildingBlock: XIVTED_clean_linker_0, # of connection points: 2
#     Edge 79, Type (0, 1), BuildingBlock: XIVTED_clean_linker_0, # of connection points: 2
#     Edge 80, Type (0, 1), BuildingBlock: XIVTED_clean_linker_0, # of connection points: 2
# Relax obj value: 0.033
# Max RMSD: 0.157
# Mean RMSD: 0.091
data_MOF--net-eea--node1-CUKXOW_clean_sbu_0--node2-PAMTOO_clean_linker_0--edge1-XIVTED_clean_linker_0
_symmetry_space_group_name_H-M    P1
_symmetry_Int_Tables_number       1
_symmetry_cell_setting            triclinic
loop_
_symmetry_equiv_pos_as_xyz
'x, y, z'
_cell_length_a     60.544129
_cell_length_b     56.928895
_cell_length_c     50.193832
_cell_angle_alpha  93.288905
_cell_angle_beta   93.358251
_cell_angle_gamma 119.97272
loop_
_atom_site_label
_atom_site_type_symbol
_atom_site_fract_x
_atom_site_fract_y
_atom_site_fract_z
_atom_type_partial_charge
H0 H 0.24347 0.07462 0.4484 0.0
H1 H 0.23562 0.14592 0.44991 0.0
H2 H 0.20823 0.08917 0.37931 0.0
H3 H 0.22841 0.14317 0.36421 0.0
C4 C 0.22973 0.15402 0.3839 0.0
O5 O 0.21436 0.13534 0.40062 0.0
H6 H 0.25008 0.16478 0.39281 0.0
C7 C 0.2373 0.08717 0.43868 0.0
C8 C 0.22547 0.07895 0.41227 0.0
C9 C 0.24079 0.11108 0.45279 0.0
C10 C 0.23316 0.1274 0.43959 0.0
C11 C 0.22161 0.11952 0.41313 0.0
C12 C 0.21736 0.09514 0.3997 0.0
H13 H 0.92537 0.16815 0.45985 0.0
H14 H 0.85473 0.09134 0.44297 0.0
H15 H 0.91235 0.11462 0.38889 0.0
H16 H 0.86019 0.0798 0.35902 0.0
C17 C 0.85011 0.07468 0.37748 0.0
O18 O 0.86699 0.07717 0.39866 0.0
H19 H 0.843 0.08911 0.38141 0.0
C20 C 0.9133 0.14938 0.44713 0.0
C21 C 0.92191 0.14428 0.42313 0.0
C22 C 0.88923 0.13029 0.45489 0.0
C23 C 0.87358 0.10615 0.43795 0.0
C24 C 0.88197 0.10082 0.41426 0.0
C25 C 0.90606 0.11959 0.40703 0.0
H26 H 0.83391 0.7384 0.45869 0.0
H27 H 0.90711 0.74459 0.45197 0.0
H28 H 0.88044 0.78205 0.397 0.0
H29 H 0.90773 0.75696 0.37069 0.0
C30 C 0.91833 0.75614 0.38914 0.0
O31 O 0.91711 0.77209 0.41007 0.0
H32 H 0.90918 0.73448 0.39361 0.0
C33 C 0.85119 0.7456 0.44862 0.0
C34 C 0.85472 0.76113 0.42678 0.0
C35 C 0.87001 0.7397 0.45797 0.0
C36 C 0.8924 0.74901 0.44503 0.0
C37 C 0.89576 0.76372 0.42276 0.0
C38 C 0.87713 0.76996 0.41379 0.0
H39 H 0.08813 0.28634 0.57209 0.0
H40 H 0.15988 0.28751 0.57829 0.0
H41 H 0.10336 0.24258 0.63093 0.0
H42 H 0.15771 0.27045 0.65685 0.0
C43 C 0.16714 0.27044 0.63848 0.0
O44 O 0.14878 0.25621 0.61718 0.0
H45 H 0.17969 0.29198 0.63437 0.0
C46 C 0.10077 0.28033 0.58175 0.0
C47 C 0.0926 0.26348 0.60275 0.0
C48 C 0.12497 0.28916 0.57272 0.0
C49 C 0.14145 0.28165 0.58546 0.0
C50 C 0.13366 0.26515 0.60657 0.0
C51 C 0.10938 0.25615 0.61522 0.0
H52 H 0.75949 0.8257 0.57306 0.0
H53 H 0.76596 0.90481 0.58399 0.0
H54 H 0.79876 0.87923 0.64528 0.0
H55 H 0.78481 0.91804 0.66938 0.0
C56 C 0.77959 0.92327 0.64991 0.0
O57 O 0.79264 0.91886 0.63041 0.0
H58 H 0.7585 0.91 0.64477 0.0
C59 C 0.7656 0.84468 0.58518 0.0
C60 C 0.77923 0.8497 0.61057 0.0
C61 C 0.7609 0.86453 0.57497 0.0
C62 C 0.76969 0.88932 0.59088 0.0
C63 C 0.78342 0.89452 0.61595 0.0
C64 C 0.78824 0.87487 0.6257 0.0
H65 H 0.18014 0.92844 0.57331 0.0
H66 H 0.10556 0.85565 0.56438 0.0
H67 H 0.13063 0.91008 0.63647 0.0
H68 H 0.10446 0.85236 0.64595 0.0
C69 C 0.09177 0.84331 0.62682 0.0
O70 O 0.0939 0.86382 0.61188 0.0
H71 H 0.09805 0.83054 0.61567 0.0
C72 C 0.1621 0.91514 0.58103 0.0
C73 C 0.15764 0.9223 0.60657 0.0
C74 C 0.14343 0.89129 0.56528 0.0
C75 C 0.12036 0.87409 0.57598 0.0
C76 C 0.11597 0.88075 0.60169 0.0
C77 C 0.13437 0.905 0.61674 0.0
H78 H 0.91542 0.41469 0.77489 0.0
H79 H 0.90938 0.48694 0.77499 0.0
H80 H 0.87558 0.42606 0.70752 0.0
H81 H 0.89539 0.47874 0.68946 0.0
C82 C 0.89855 0.49088 0.7089 0.0
O83 O 0.88416 0.47374 0.72725 0.0
H84 H 0.91932 0.50123 0.71616 0.0
C85 C 0.90904 0.42701 0.76499 0.0
C86 C 0.89509 0.41737 0.73958 0.0
C87 C 0.91409 0.45191 0.77814 0.0
C88 C 0.90529 0.46745 0.7654 0.0
C89 C 0.89165 0.45817 0.73989 0.0
C90 C 0.88616 0.43299 0.72724 0.0
H91 H 0.58787 0.51207 0.78441 0.0
H92 H 0.52311 0.43007 0.77359 0.0
H93 H 0.57912 0.45608 0.71752 0.0
H94 H 0.52791 0.41579 0.6889 0.0
C95 C 0.51808 0.41187 0.70753 0.0
O96 O 0.5355 0.4165 0.7291 0.0
H97 H 0.51048 0.42605 0.70985 0.0
C98 C 0.57742 0.49202 0.77345 0.0
C99 C 0.58669 0.48673 0.75007 0.0
C100 C 0.5545 0.4718 0.78243 0.0
C101 C 0.54057 0.44627 0.76716 0.0
C102 C 0.54929 0.44102 0.74364 0.0
C103 C 0.57237 0.46096 0.73536 0.0
H104 H 0.50599 0.08963 0.79703 0.0
H105 H 0.57404 0.08431 0.79113 0.0
H106 H 0.55577 0.12846 0.73609 0.0
H107 H 0.57609 0.09642 0.71103 0.0
C108 C 0.58749 0.09573 0.72886 0.0
O109 O 0.58821 0.11274 0.74999 0.0
H110 H 0.57813 0.07431 0.73408 0.0
C111 C 0.52317 0.09464 0.78743 0.0
C112 C 0.5288 0.11027 0.76551 0.0
C113 C 0.53923 0.08505 0.79689 0.0
C114 C 0.56146 0.09165 0.78436 0.0
C115 C 0.56717 0.10707 0.76236 0.0
C116 C 0.55097 0.11642 0.75302 0.0
H117 H 0.74944 0.59842 0.89698 0.0
H118 H 0.82346 0.6054 0.90906 0.0
H119 H 0.7701 0.57069 0.96742 0.0
H120 H 0.82558 0.60225 0.99103 0.0
C121 C 0.83404 0.60054 0.97244 0.0
O122 O 0.81489 0.58201 0.95347 0.0
H123 H 0.84418 0.62105 0.965 0.0
C124 C 0.76316 0.59567 0.90924 0.0
C125 C 0.75656 0.58372 0.93349 0.0
C126 C 0.78736 0.60397 0.90048 0.0
C127 C 0.80494 0.59976 0.91586 0.0
C128 C 0.79848 0.58755 0.93975 0.0
C129 C 0.77454 0.5798 0.94867 0.0
H130 H 0.42503 0.15645 0.90538 0.0
H131 H 0.43395 0.23644 0.91965 0.0
H132 H 0.46317 0.20605 0.97982 0.0
H133 H 0.45221 0.24958 0.00517 0.0
C134 C 0.44671 0.25342 0.98509 0.0
O135 O 0.45972 0.24789 0.96633 0.0
H136 H 0.42561 0.23976 0.9804 0.0
C137 C 0.43148 0.17511 0.9182 0.0
C138 C 0.44393 0.17838 0.94389 0.0
C139 C 0.42759 0.19585 0.909 0.0
C140 C 0.43674 0.22013 0.92591 0.0
C141 C 0.44958 0.22374 0.95121 0.0
C142 C 0.45293 0.20285 0.96028 0.0
H143 H 0.8476 0.25549 0.90888 0.0
H144 H 0.77512 0.18041 0.90403 0.0
H145 H 0.79879 0.23934 0.9724 0.0
H146 H 0.7719 0.18103 0.98436 0.0
C147 C 0.75942 0.17161 0.96515 0.0
O148 O 0.76231 0.19196 0.94953 0.0
H149 H 0.76527 0.15815 0.95463 0.0
C150 C 0.83026 0.24183 0.91755 0.0
C151 C 0.82576 0.25017 0.94252 0.0
C152 C 0.81224 0.2167 0.90327 0.0
C153 C 0.78929 0.19997 0.91437 0.0
C154 C 0.78455 0.20815 0.93924 0.0
C155 C 0.80267 0.23324 0.9532 0.0
H156 H 0.57942 0.74261 0.11201 0.0
H157 H 0.57768 0.81745 0.11168 0.0
H158 H 0.54 0.75552 0.04555 0.0
H159 H 0.56017 0.80763 0.02698 0.0
C160 C 0.56383 0.82035 0.04616 0.0
O161 O 0.55029 0.80383 0.06532 0.0
H162 H 0.58476 0.83104 0.05276 0.0
C163 C 0.57398 0.75571 0.10222 0.0
C164 C 0.55955 0.74626 0.07705 0.0
C165 C 0.58062 0.7813 0.1152 0.0
C166 C 0.57253 0.79747 0.10244 0.0
C167 C 0.55787 0.78808 0.07745 0.0
C168 C 0.55116 0.76243 0.06496 0.0
H169 H 0.25318 0.84199 0.11971 0.0
H170 H 0.18606 0.7616 0.10733 0.0
H171 H 0.24307 0.78548 0.05265 0.0
H172 H 0.19207 0.75008 0.02315 0.0
C173 C 0.18154 0.74446 0.04129 0.0
O174 O 0.19823 0.74759 0.06297 0.0
H175 H 0.17357 0.75818 0.04469 0.0
C176 C 0.2422 0.82209 0.10851 0.0
C177 C 0.25142 0.81632 0.08532 0.0
C178 C 0.21864 0.80255 0.11697 0.0
C179 C 0.20405 0.77731 0.10135 0.0
C180 C 0.21273 0.77168 0.07801 0.0
C181 C 0.23643 0.79081 0.07031 0.0
H182 H 0.16882 0.41135 0.12712 0.0
H183 H 0.23937 0.41054 0.12445 0.0
H184 H 0.21528 0.4438 0.06219 0.0
H185 H 0.23933 0.41358 0.04303 0.0
C186 C 0.25178 0.41627 0.06152 0.0
O187 O 0.25113 0.43442 0.08037 0.0
H188 H 0.24441 0.396 0.0693 0.0
C189 C 0.18556 0.41548 0.11704 0.0
C190 C 0.18943 0.42783 0.09301 0.0
C191 C 0.20318 0.40877 0.1285 0.0
C192 C 0.22553 0.4156 0.11612 0.0
C193 C 0.2298 0.42833 0.09237 0.0
C194 C 0.21187 0.43444 0.08086 0.0
H195 H 0.41931 0.94549 0.23484 0.0
H196 H 0.49223 0.94939 0.24173 0.0
H197 H 0.43888 0.90946 0.29878 0.0
H198 H 0.49337 0.93763 0.32169 0.0
C199 C 0.50204 0.93642 0.30309 0.0
O200 O 0.48296 0.92088 0.28275 0.0
H201 H 0.51422 0.9575 0.29755 0.0
C202 C 0.43281 0.94131 0.24559 0.0
C203 C 0.42592 0.92668 0.26832 0.0
C204 C 0.45683 0.95001 0.23606 0.0
C205 C 0.47401 0.94374 0.24932 0.0
C206 C 0.46728 0.92892 0.27166 0.0
C207 C 0.44353 0.92072 0.28131 0.0
H208 H 0.08645 0.48304 0.24036 0.0
H209 H 0.09287 0.562 0.24712 0.0
H210 H 0.12489 0.53853 0.3117 0.0
H211 H 0.10391 0.57598 0.32964 0.0
C212 C 0.10481 0.58458 0.31012 0.0
O213 O 0.11912 0.5779 0.29423 0.0
H214 H 0.08495 0.57575 0.30031 0.0
C215 C 0.09294 0.50253 0.25173 0.0
C216 C 0.10611 0.50826 0.27745 0.0
C217 C 0.08765 0.52156 0.24079 0.0
C218 C 0.09619 0.5468 0.25555 0.0
C219 C 0.10959 0.55286 0.28102 0.0
C220 C 0.1142 0.53349 0.29212 0.0
H221 H 0.51209 0.59227 0.23823 0.0
H222 H 0.43768 0.51925 0.22904 0.0
H223 H 0.46297 0.57272 0.30184 0.0
H224 H 0.43789 0.51371 0.30896 0.0
C225 C 0.42395 0.50541 0.29067 0.0
O226 O 0.42625 0.52671 0.27691 0.0
H227 H 0.42833 0.49195 0.27784 0.0
C228 C 0.49413 0.57875 0.24597 0.0
C229 C 0.48975 0.58552 0.27172 0.0
C230 C 0.47546 0.55504 0.23008 0.0
C231 C 0.45248 0.53759 0.24079 0.0
C232 C 0.44823 0.54384 0.26671 0.0
C233 C 0.46662 0.56794 0.28195 0.0
Tb234 Tb 0.5274 0.02067 0.0115 0.0
C235 C 0.50961 0.95788 0.01292 0.0
Tb236 Tb 0.46921 0.9782 0.01052 0.0
O237 O 0.52671 0.03803 0.05195 0.0
O238 O 0.50161 0.99769 0.03862 0.0
O239 O 0.52826 0.98272 0.00897 0.0
C240 C 0.42325 0.94404 0.02534 0.0
O241 O 0.48556 0.95181 0.01548 0.0
C242 C 0.48463 0.99333 0.96368 0.0
C243 C 0.48739 0.03985 0.00418 0.0
O244 O 0.43289 0.9394 0.00454 0.0
O245 O 0.43945 0.96785 0.03765 0.0
O246 O 0.46109 0.98359 0.96912 0.0
O247 O 0.49743 0.99124 0.98317 0.0
O248 O 0.47029 0.01746 0.01429 0.0
O249 O 0.51002 0.04383 0.99849 0.0
C250 C 0.57623 0.05136 0.00186 0.0
O251 O 0.55646 0.04736 0.98642 0.0
O252 O 0.56852 0.03804 0.02275 0.0
C253 C 0.507 0.01559 0.05744 0.0
Tb254 Tb 0.98021 0.50307 0.01268 0.0
C255 C 0.03922 0.54883 0.01536 0.0
Tb256 Tb 0.02225 0.48575 0.01079 0.0
O257 O 0.97457 0.4918 0.05393 0.0
O258 O 0.0095 0.50413 0.03904 0.0
O259 O 0.01489 0.54288 0.01284 0.0
C260 C 0.05708 0.47255 0.026 0.0
O261 O 0.04615 0.53009 0.01712 0.0
C262 C 0.00244 0.48473 0.96216 0.0
C263 C 0.96303 0.44103 0.00499 0.0
O264 O 0.05994 0.48993 0.00895 0.0
O265 O 0.03451 0.46247 0.03452 0.0
O266 O 0.0204 0.47887 0.96676 0.0
O267 O 0.99722 0.49044 0.98456 0.0
O268 O 0.98678 0.44712 0.01335 0.0
O269 O 0.95694 0.45982 0.99955 0.0
C270 C 0.94886 0.52261 0.00344 0.0
O271 O 0.94971 0.51038 0.02414 0.0
O272 O 0.96562 0.52377 0.98776 0.0
C273 C 0.99704 0.49439 0.05862 0.0
Tb274 Tb 0.4785 0.49478 0.00643 0.0
C275 C 0.49469 0.45084 0.99943 0.0
Tb276 Tb 0.53554 0.51452 0.00284 0.0
O277 O 0.46895 0.47636 0.96486 0.0
O278 O 0.50475 0.5106 0.9771 0.0
O279 O 0.47739 0.45631 0.00837 0.0
C280 C 0.58119 0.52658 0.98752 0.0
O281 O 0.51739 0.47017 0.99325 0.0
C282 C 0.5227 0.517 0.05129 0.0
C283 C 0.51903 0.55839 0.01131 0.0
O284 O 0.57128 0.51347 0.00799 0.0
O285 O 0.5654 0.53274 0.97576 0.0
O286 O 0.54544 0.53296 0.04434 0.0
O287 O 0.50944 0.49907 0.03217 0.0
O288 O 0.53681 0.55344 0.00277 0.0
O289 O 0.49604 0.53874 0.01623 0.0
C290 C 0.43281 0.4832 0.02108 0.0
O291 O 0.4417 0.49299 0.99889 0.0
O292 O 0.44966 0.48002 0.03507 0.0
C293 C 0.49157 0.49274 0.95789 0.0
Tb294 Tb 0.19534 0.35627 0.34767 0.0
C295 C 0.17867 0.29401 0.35066 0.0
Tb296 Tb 0.13749 0.31339 0.34849 0.0
O297 O 0.19567 0.37459 0.38799 0.0
O298 O 0.17051 0.33393 0.37573 0.0
O299 O 0.19699 0.3188 0.34615 0.0
C300 C 0.09205 0.27776 0.36346 0.0
O301 O 0.15461 0.2877 0.35354 0.0
C302 C 0.15163 0.32772 0.30111 0.0
C303 C 0.15454 0.3746 0.34153 0.0
O304 O 0.10187 0.27394 0.34243 0.0
O305 O 0.10775 0.30166 0.37595 0.0
O306 O 0.12832 0.31818 0.30724 0.0
O307 O 0.16495 0.326 0.32031 0.0
O308 O 0.13788 0.3523 0.35213 0.0
O309 O 0.17703 0.37869 0.33518 0.0
C310 C 0.24324 0.38727 0.3355 0.0
O311 O 0.22269 0.38225 0.32086 0.0
O312 O 0.23686 0.37481 0.35707 0.0
C313 C 0.17624 0.35229 0.39419 0.0
Tb314 Tb 0.64603 0.83757 0.34664 0.0
C315 C 0.70455 0.88043 0.35148 0.0
Tb316 Tb 0.68361 0.81667 0.35103 0.0
O317 O 0.65969 0.85785 0.38744 0.0
O318 O 0.65977 0.82197 0.37668 0.0
O319 O 0.68124 0.8755 0.34335 0.0
C320 C 0.72003 0.80561 0.36673 0.0
O321 O 0.70923 0.86087 0.35776 0.0
C322 C 0.66364 0.81279 0.30226 0.0
C323 C 0.62522 0.77371 0.34389 0.0
O324 O 0.71605 0.81135 0.34294 0.0
O325 O 0.70348 0.80605 0.38174 0.0
O326 O 0.67142 0.79666 0.3104 0.0
O327 O 0.66963 0.83182 0.32052 0.0
O328 O 0.64824 0.77859 0.35331 0.0
O329 O 0.62074 0.79343 0.33751 0.0
C330 C 0.61037 0.85073 0.33386 0.0
O331 O 0.62867 0.85402 0.31952 0.0
O332 O 0.61194 0.83967 0.35525 0.0
C333 C 0.66642 0.84078 0.39516 0.0
Tb334 Tb 0.14614 0.82811 0.34231 0.0
C335 C 0.16259 0.78439 0.33651 0.0
Tb336 Tb 0.20328 0.848 0.33877 0.0
O337 O 0.13689 0.80919 0.3009 0.0
O338 O 0.17242 0.84382 0.31298 0.0
O339 O 0.14558 0.7901 0.34587 0.0
C340 C 0.24907 0.86109 0.32292 0.0
O341 O 0.18494 0.80349 0.32928 0.0
C342 C 0.19054 0.85086 0.38726 0.0
C343 C 0.18648 0.89167 0.34729 0.0
O344 O 0.23925 0.84719 0.34301 0.0
O345 O 0.23306 0.8673 0.31182 0.0
O346 O 0.21335 0.86651 0.38029 0.0
O347 O 0.17722 0.83288 0.36821 0.0
O348 O 0.20431 0.88683 0.33868 0.0
O349 O 0.16363 0.87197 0.35243 0.0
C350 C 0.09999 0.81722 0.35494 0.0
O351 O 0.11583 0.8129 0.36944 0.0
O352 O 0.11016 0.82767 0.33346 0.0
C353 C 0.15942 0.8258 0.29387 0.0
Tb354 Tb 0.86208 0.69258 0.6805 0.0
C355 C 0.84523 0.62954 0.67915 0.0
Tb356 Tb 0.80462 0.64891 0.67609 0.0
O357 O 0.86174 0.70374 0.72309 0.0
O358 O 0.83643 0.66477 0.70516 0.0
O359 O 0.86355 0.6548 0.67602 0.0
C360 C 0.75689 0.61828 0.68913 0.0
O361 O 0.82135 0.62325 0.6828 0.0
C362 C 0.82506 0.65995 0.63061 0.0
C363 C 0.82142 0.7118 0.67472 0.0
O364 O 0.76494 0.61554 0.66636 0.0
O365 O 0.77562 0.6384 0.70435 0.0
O366 O 0.80488 0.63681 0.63386 0.0
O367 O 0.8304 0.67616 0.6512 0.0
O368 O 0.80296 0.68678 0.67846 0.0
O369 O 0.84531 0.71776 0.67179 0.0
C370 C 0.91063 0.72402 0.6701 0.0
O371 O 0.9007 0.72769 0.69104 0.0
O372 O 0.89328 0.70252 0.65513 0.0
C373 C 0.84178 0.68044 0.72612 0.0
Tb374 Tb 0.31332 0.17451 0.68169 0.0
C375 C 0.37161 0.21789 0.68561 0.0
Tb376 Tb 0.35146 0.15413 0.68562 0.0
O377 O 0.32723 0.19478 0.72256 0.0
O378 O 0.32754 0.15909 0.71138 0.0
O379 O 0.34811 0.21269 0.67806 0.0
C380 C 0.3889 0.14494 0.70201 0.0
O381 O 0.3767 0.19851 0.69151 0.0
C382 C 0.33054 0.14975 0.63735 0.0
C383 C 0.29319 0.11065 0.6792 0.0
O384 O 0.37253 0.14581 0.71699 0.0
O385 O 0.38404 0.14895 0.67771 0.0
O386 O 0.33853 0.13364 0.64513 0.0
O387 O 0.33681 0.16884 0.65555 0.0
O388 O 0.31641 0.11575 0.6882 0.0
O389 O 0.28835 0.13023 0.67316 0.0
C390 C 0.27706 0.18661 0.66849 0.0
O391 O 0.27942 0.17678 0.69048 0.0
O392 O 0.29496 0.18932 0.65375 0.0
C393 C 0.33421 0.1778 0.72998 0.0
Tb394 Tb 0.81296 0.16494 0.67463 0.0
C395 C 0.82942 0.12104 0.67068 0.0
Tb396 Tb 0.8699 0.18469 0.67173 0.0
O397 O 0.80413 0.145 0.63372 0.0
O398 O 0.83931 0.18027 0.64545 0.0
O399 O 0.81177 0.12662 0.67823 0.0
C400 C 0.91547 0.19597 0.65671 0.0
O401 O 0.85241 0.14019 0.66499 0.0
C402 C 0.8571 0.18831 0.71996 0.0
C403 C 0.85328 0.22846 0.67792 0.0
O404 O 0.89716 0.19548 0.64148 0.0
O405 O 0.90808 0.18995 0.68036 0.0
O406 O 0.87971 0.20419 0.71265 0.0
O407 O 0.84371 0.16973 0.70129 0.0
O408 O 0.87097 0.22332 0.66948 0.0
O409 O 0.83056 0.20899 0.68368 0.0
C410 C 0.76675 0.15406 0.68706 0.0
O411 O 0.77674 0.16411 0.66536 0.0
O412 O 0.78278 0.15022 0.70175 0.0
C413 C 0.8266 0.16175 0.62667 0.0
H414 H 0.29579 0.85236 0.11717 0.0
H415 H 0.38367 0.89872 0.99675 0.0
H416 H 0.26507 0.8266 0.03406 0.0
H417 H 0.40541 0.94691 0.07327 0.0
H418 H 0.34143 0.86822 0.01133 0.0
H419 H 0.33746 0.88408 0.10263 0.0
C420 C 0.29765 0.85348 0.09589 0.0
C421 C 0.27674 0.83658 0.07686 0.0
C422 C 0.35544 0.88551 0.02488 0.0
C423 C 0.32468 0.87241 0.06016 0.0
C424 C 0.37952 0.9028 0.01663 0.0
C425 C 0.3979 0.92531 0.03384 0.0
C426 C 0.34993 0.89056 0.05068 0.0
C427 C 0.39164 0.92979 0.05938 0.0
C428 C 0.32152 0.8715 0.08763 0.0
C429 C 0.28064 0.83871 0.04954 0.0
N430 N 0.3682 0.91246 0.06712 0.0
N431 N 0.30415 0.85611 0.04204 0.0
H432 H 0.13728 0.39532 0.08982 0.0
H433 H 0.10654 0.49673 0.01397 0.0
H434 H 0.1965 0.47264 0.06815 0.0
H435 H 0.052 0.43285 0.05728 0.0
H436 H 0.13905 0.4853 0.02863 0.0
H437 H 0.10502 0.4058 0.07272 0.0
C438 C 0.14354 0.41458 0.08156 0.0
C439 C 0.16972 0.43332 0.08081 0.0
C440 C 0.11997 0.4738 0.03491 0.0
C441 C 0.13272 0.44519 0.06071 0.0
C442 C 0.10143 0.48026 0.02653 0.0
C443 C 0.07665 0.46569 0.0345 0.0
C444 C 0.11352 0.45244 0.05113 0.0
C445 C 0.07095 0.44457 0.05076 0.0
C446 C 0.12507 0.42048 0.0717 0.0
C447 C 0.17657 0.45756 0.06908 0.0
N448 N 0.08925 0.43852 0.0585 0.0
N449 N 0.15817 0.46284 0.05955 0.0
H450 H 0.51319 0.70503 0.05318 0.0
H451 H 0.56635 0.60479 0.01602 0.0
H452 H 0.59209 0.72669 0.07054 0.0
H453 H 0.48606 0.57722 0.01978 0.0
H454 H 0.57641 0.65145 0.02894 0.0
H455 H 0.50328 0.65987 0.03377 0.0
C456 C 0.52845 0.70035 0.05264 0.0
C457 C 0.55344 0.71949 0.06365 0.0
C458 C 0.55658 0.63518 0.02677 0.0
C459 C 0.54231 0.66805 0.04155 0.0
C460 C 0.55081 0.60855 0.01928 0.0
C461 C 0.52533 0.58701 0.01695 0.0
C462 C 0.53673 0.64036 0.03174 0.0
C463 C 0.506 0.59314 0.02152 0.0
C464 C 0.52278 0.67457 0.04172 0.0
C465 C 0.57249 0.71236 0.06259 0.0
N466 N 0.5121 0.61923 0.02874 0.0
N467 N 0.56654 0.68721 0.05178 0.0
H468 H 0.81831 0.29036 0.96514 0.0
H469 H 0.96827 0.39577 0.00288 0.0
H470 H 0.87738 0.27094 0.95193 0.0
H471 H 0.91117 0.42 0.99603 0.0
H472 H 0.93441 0.34827 0.9917 0.0
H473 H 0.85142 0.33627 0.98425 0.0
C474 C 0.83822 0.29565 0.96663 0.0
C475 C 0.84517 0.27695 0.95677 0.0
C476 C 0.9293 0.36399 0.9928 0.0
C477 C 0.88307 0.32931 0.97842 0.0
C478 C 0.94862 0.39113 0.99926 0.0
C479 C 0.94262 0.41199 0.00018 0.0
C480 C 0.90376 0.35761 0.98743 0.0
C481 C 0.91676 0.40466 0.99531 0.0
C482 C 0.8571 0.32187 0.97735 0.0
C483 C 0.87126 0.2849 0.959 0.0
N484 N 0.89832 0.37811 0.98908 0.0
N485 N 0.88926 0.31048 0.9695 0.0
H486 H 0.72598 0.53847 0.95901 0.0
H487 H 0.60599 0.56056 0.95009 0.0
H488 H 0.72828 0.60912 0.92874 0.0
H489 H 0.61432 0.51047 0.00653 0.0
H490 H 0.64892 0.57456 0.93741 0.0
H491 H 0.68338 0.52437 0.9728 0.0
C492 C 0.7177 0.55117 0.95543 0.0
C493 C 0.73084 0.57505 0.94258 0.0
C494 C 0.64139 0.56054 0.9526 0.0
C495 C 0.68181 0.55856 0.95776 0.0
C496 C 0.61688 0.55247 0.95975 0.0
C497 C 0.60675 0.53443 0.97941 0.0
C498 C 0.65571 0.5502 0.96495 0.0
C499 C 0.62157 0.5245 0.99132 0.0
C500 C 0.69331 0.54298 0.96319 0.0
C501 C 0.71878 0.5903 0.93806 0.0
N502 N 0.64535 0.53245 0.98382 0.0
N503 N 0.69493 0.58172 0.94549 0.0
H504 H 0.43459 0.15629 0.992 0.0
H505 H 0.50765 0.07501 0.9664 0.0
H506 H 0.46407 0.1516 0.91696 0.0
H507 H 0.45106 0.05063 0.0232 0.0
H508 H 0.49593 0.10771 0.95186 0.0
H509 H 0.44404 0.12167 0.00733 0.0
C510 C 0.443 0.14793 0.97877 0.0
C511 C 0.44855 0.15676 0.95317 0.0
C512 C 0.48606 0.09525 0.96752 0.0
C513 C 0.4596 0.11758 0.97062 0.0
C514 C 0.49287 0.07669 0.97604 0.0
C515 C 0.48043 0.06015 0.99623 0.0
C516 C 0.46687 0.09772 0.97947 0.0
C517 C 0.46114 0.06301 0.0076 0.0
C518 C 0.44825 0.12813 0.98747 0.0
C519 C 0.45931 0.1452 0.93674 0.0
N520 N 0.45506 0.08163 0.9992 0.0
N521 N 0.46469 0.12642 0.94584 0.0
H522 H 0.71615 0.15135 0.92962 0.0
H523 H 0.61927 0.06496 0.03475 0.0
H524 H 0.74022 0.15158 0.01222 0.0
H525 H 0.59432 0.07707 0.95713 0.0
H526 H 0.66388 0.09436 0.02592 0.0
H527 H 0.67146 0.12194 0.93832 0.0
C528 C 0.71195 0.14541 0.94966 0.0
C529 C 0.73179 0.15442 0.97042 0.0
C530 C 0.64866 0.09062 0.01081 0.0
C531 C 0.68087 0.12028 0.98039 0.0
C532 C 0.62323 0.0738 0.01583 0.0
C533 C 0.60318 0.06868 0.99665 0.0
C534 C 0.65405 0.10224 0.98635 0.0
C535 C 0.60928 0.0806 0.97247 0.0
C536 C 0.68649 0.12859 0.95461 0.0
C537 C 0.72542 0.14551 0.99582 0.0
N538 N 0.63419 0.0968 0.96797 0.0
N539 N 0.70052 0.12896 1.00011 0.0
H540 H 0.87314 0.6068 0.94342 0.0
H541 H 0.91294 0.52039 0.03493 0.0
H542 H 0.83609 0.57123 0.0131 0.0
H543 H 0.94674 0.55099 0.96218 0.0
H544 H 0.88561 0.54021 0.02805 0.0
H545 H 0.90154 0.58815 0.95079 0.0
C546 C 0.87129 0.59533 0.96047 0.0
C547 C 0.85272 0.59096 0.97803 0.0
C548 C 0.89897 0.5426 0.01355 0.0
C549 C 0.88462 0.56915 0.98633 0.0
C550 C 0.91455 0.53128 0.01747 0.0
C551 C 0.93204 0.53408 0.99907 0.0
C552 C 0.90096 0.5569 0.99108 0.0
C553 C 0.93343 0.54837 0.97681 0.0
C554 C 0.88735 0.58458 0.9646 0.0
C555 C 0.85053 0.57543 0.99944 0.0
N556 N 0.91809 0.5593 0.97343 0.0
N557 N 0.86633 0.56512 0.00304 0.0
H558 H 0.41459 0.27448 0.98522 0.0
H559 H 0.5263 0.43039 0.98884 0.0
H560 H 0.49461 0.29906 0.98761 0.0
H561 H 0.44819 0.40534 0.00278 0.0
H562 H 0.51483 0.38244 0.98447 0.0
H563 H 0.4263 0.32244 0.98787 0.0
C564 C 0.43463 0.29003 0.98611 0.0
C565 C 0.45365 0.28285 0.9858 0.0
C566 C 0.50024 0.38749 0.9885 0.0
C567 C 0.46727 0.33778 0.98906 0.0
C568 C 0.50675 0.41486 0.99093 0.0
C569 C 0.48822 0.42198 0.99629 0.0
C570 C 0.47498 0.36708 0.99121 0.0
C571 C 0.46319 0.40092 0.9988 0.0
C572 C 0.44133 0.31739 0.9877 0.0
C573 C 0.47937 0.30379 0.98742 0.0
N574 N 0.45732 0.3745 0.9962 0.0
N575 N 0.48544 0.33032 0.98887 0.0
H576 H 0.18515 0.69951 0.02728 0.0
H577 H 0.03427 0.59424 0.02048 0.0
H578 H 0.12994 0.72342 0.04502 0.0
H579 H 0.09101 0.56964 0.01639 0.0
H580 H 0.06868 0.64187 0.02617 0.0
H581 H 0.15048 0.65181 0.02007 0.0
C582 C 0.16566 0.6946 0.0296 0.0
C583 C 0.16029 0.71525 0.03669 0.0
C584 C 0.07357 0.62603 0.02402 0.0
C585 C 0.1206 0.661 0.02846 0.0
C586 C 0.05392 0.5988 0.02069 0.0
C587 C 0.05972 0.57783 0.01804 0.0
C588 C 0.0992 0.63236 0.02453 0.0
C589 C 0.08559 0.58506 0.01848 0.0
C590 C 0.14592 0.66747 0.02553 0.0
C591 C 0.13481 0.70802 0.03951 0.0
N592 N 0.10434 0.6117 0.02165 0.0
N593 N 0.11587 0.68147 0.03534 0.0
H594 H 0.27545 0.44507 0.01978 0.0
H595 H 0.41149 0.46059 0.06604 0.0
H596 H 0.28968 0.41276 0.09012 0.0
H597 H 0.3956 0.48774 0.99267 0.0
H598 H 0.36767 0.44531 0.07666 0.0
H599 H 0.32014 0.4631 0.01071 0.0
C600 C 0.28804 0.44166 0.03317 0.0
C601 C 0.27892 0.42695 0.05535 0.0
C602 C 0.37377 0.45468 0.05828 0.0
C603 C 0.32999 0.4478 0.04549 0.0
C604 C 0.39876 0.46343 0.05225 0.0
C605 C 0.40701 0.4753 0.02842 0.0
C606 C 0.35698 0.45786 0.04031 0.0
C607 C 0.38989 0.4786 0.01123 0.0
C608 C 0.31351 0.45199 0.02808 0.0
C609 C 0.29601 0.42358 0.07252 0.0
N610 N 0.36562 0.46984 0.01748 0.0
N611 N 0.32073 0.43383 0.06718 0.0
H612 H 0.59392 0.87416 0.03848 0.0
H613 H 0.47833 0.90449 0.0225 0.0
H614 H 0.51493 0.81258 0.04153 0.0
H615 H 0.55662 0.96238 0.01035 0.0
H616 H 0.491 0.87058 0.03005 0.0
H617 H 0.58038 0.90698 0.029 0.0
C618 C 0.57372 0.86767 0.03741 0.0
C619 C 0.55557 0.84086 0.04145 0.0
C620 C 0.50535 0.89067 0.0256 0.0
C621 C 0.5398 0.87813 0.03017 0.0
C622 C 0.49813 0.91006 0.02124 0.0
C623 C 0.51642 0.93642 0.01583 0.0
C624 C 0.53107 0.89771 0.02465 0.0
C625 C 0.5418 0.9424 0.0145 0.0
C626 C 0.56597 0.88634 0.03187 0.0
C627 C 0.52957 0.83326 0.03914 0.0
N628 N 0.54836 0.92327 0.019 0.0
N629 N 0.52245 0.85185 0.03381 0.0
H630 H 0.96701 0.17827 0.45512 0.0
H631 H 0.05318 0.23243 0.33429 0.0
H632 H 0.93515 0.1567 0.37214 0.0
H633 H 0.07437 0.27825 0.41209 0.0
H634 H 0.01158 0.19998 0.34892 0.0
H635 H 0.00833 0.21117 0.44076 0.0
C636 C 0.96853 0.1805 0.43392 0.0
C637 C 0.94734 0.16453 0.41486 0.0
C638 C 0.02534 0.21717 0.36275 0.0
C639 C 0.99494 0.20172 0.39835 0.0
C640 C 0.04905 0.23559 0.35446 0.0
C641 C 0.06707 0.25801 0.37201 0.0
C642 C 0.01986 0.22099 0.38893 0.0
C643 C 0.06085 0.26125 0.39793 0.0
C644 C 0.99222 0.19921 0.42577 0.0
C645 C 0.9509 0.16806 0.38761 0.0
N646 N 0.03779 0.24282 0.4057 0.0
N647 N 0.97423 0.18612 0.38019 0.0
H648 H 0.82761 0.77632 0.45835 0.0
H649 H 0.75298 0.80015 0.33576 0.0
H650 H 0.8375 0.76296 0.37542 0.0
H651 H 0.73278 0.79738 0.41697 0.0
H652 H 0.78628 0.78985 0.35019 0.0
H653 H 0.79493 0.78724 0.44383 0.0
C654 C 0.82281 0.77549 0.43706 0.0
C655 C 0.83523 0.76847 0.41808 0.0
C656 C 0.77456 0.79146 0.36486 0.0
C657 C 0.79805 0.78147 0.40133 0.0
C658 C 0.7556 0.79738 0.35665 0.0
C659 C 0.74016 0.79954 0.37524 0.0
C660 C 0.77817 0.78788 0.3919 0.0
C661 C 0.74429 0.7958 0.40203 0.0
C662 C 0.80422 0.78188 0.4288 0.0
C663 C 0.82862 0.76847 0.39079 0.0
N664 N 0.76295 0.79019 0.40959 0.0
N665 N 0.81047 0.77484 0.38323 0.0
H666 H 0.25954 0.06089 0.40855 0.0
H667 H 0.15276 0.90987 0.3527 0.0
H668 H 0.18118 0.03791 0.38481 0.0
H669 H 0.23368 0.93839 0.35431 0.0
H670 H 0.16279 0.95651 0.36492 0.0
H671 H 0.25066 0.01617 0.38926 0.0
C672 C 0.2405 0.04645 0.39912 0.0
C673 C 0.22101 0.05301 0.39839 0.0
C674 C 0.17836 0.95264 0.36236 0.0
C675 C 0.21067 0.0018 0.37646 0.0
C676 C 0.17266 0.92597 0.35547 0.0
C677 C 0.19242 0.92018 0.35258 0.0
C678 C 0.20403 0.97369 0.36682 0.0
C679 C 0.21783 0.94192 0.35627 0.0
C680 C 0.23547 0.021 0.38802 0.0
C681 C 0.19676 0.0337 0.38569 0.0
N682 N 0.22293 0.96769 0.36349 0.0
N683 N 0.19219 0.00885 0.37549 0.0
H684 H 0.54111 0.60507 0.28201 0.0
H685 H 0.57381 0.75463 0.33286 0.0
H686 H 0.48254 0.62496 0.29635 0.0
H687 H 0.62861 0.72744 0.34187 0.0
H688 H 0.54004 0.70752 0.31937 0.0
H689 H 0.57356 0.64996 0.30371 0.0
C690 C 0.53511 0.61887 0.28994 0.0
C691 C 0.50917 0.61142 0.2873 0.0
C692 C 0.55941 0.71184 0.3246 0.0
C693 C 0.54614 0.66286 0.31189 0.0
C694 C 0.57873 0.73875 0.33224 0.0
C695 C 0.60414 0.74506 0.33838 0.0
C696 C 0.5656 0.69114 0.32267 0.0
C697 C 0.60932 0.72358 0.33733 0.0
C698 C 0.55359 0.64442 0.30239 0.0
C699 C 0.50235 0.62992 0.29809 0.0
N700 N 0.59028 0.69765 0.3293 0.0
N701 N 0.52076 0.65495 0.30962 0.0
H702 H 0.39509 0.8785 0.2897 0.0
H703 H 0.27382 0.89783 0.28763 0.0
H704 H 0.39742 0.95213 0.26837 0.0
H705 H 0.28288 0.84493 0.33976 0.0
H706 H 0.31717 0.914 0.27509 0.0
H707 H 0.35231 0.86241 0.30382 0.0
C708 C 0.38683 0.89147 0.28819 0.0
C709 C 0.40008 0.91681 0.27773 0.0
C710 C 0.3097 0.89888 0.28929 0.0
C711 C 0.35069 0.89797 0.2932 0.0
C712 C 0.28495 0.88955 0.29636 0.0
C713 C 0.27488 0.87009 0.31479 0.0
C714 C 0.32435 0.88835 0.30042 0.0
C715 C 0.29005 0.86003 0.32552 0.0
C716 C 0.3623 0.88212 0.29612 0.0
C717 C 0.3879 0.93227 0.27576 0.0
N718 N 0.31406 0.86918 0.31807 0.0
N719 N 0.36388 0.92253 0.28324 0.0
H720 H 0.09888 0.48896 0.3271 0.0
H721 H 0.17448 0.40993 0.3039 0.0
H722 H 0.12788 0.48247 0.25226 0.0
H723 H 0.11782 0.38486 0.36066 0.0
H724 H 0.16228 0.44216 0.28931 0.0
H725 H 0.10991 0.45591 0.344 0.0
C726 C 0.1076 0.48061 0.3143 0.0
C727 C 0.11244 0.48836 0.28823 0.0
C728 C 0.15251 0.42968 0.30499 0.0
C729 C 0.12525 0.45103 0.30742 0.0
C730 C 0.15959 0.41135 0.31354 0.0
C731 C 0.14724 0.3947 0.33369 0.0
C732 C 0.1331 0.4318 0.31683 0.0
C733 C 0.12781 0.3973 0.34506 0.0
C734 C 0.11372 0.4617 0.32386 0.0
C735 C 0.12363 0.47688 0.27237 0.0
N736 N 0.12141 0.41568 0.33658 0.0
N737 N 0.12981 0.45898 0.28227 0.0
H738 H 0.40814 0.48742 0.3395 0.0
H739 H 0.2583 0.41116 0.28933 0.0
H740 H 0.37884 0.48457 0.25829 0.0
H741 H 0.28801 0.40286 0.36622 0.0
H742 H 0.30223 0.44031 0.27842 0.0
H743 H 0.36417 0.45869 0.35062 0.0
C744 C 0.39238 0.48089 0.32409 0.0
C745 C 0.397 0.4887 0.29808 0.0
C746 C 0.29917 0.4321 0.29767 0.0
C747 C 0.34674 0.45564 0.31049 0.0
C748 C 0.27412 0.41551 0.3039 0.0
C749 C 0.26963 0.40465 0.32869 0.0
C750 C 0.31986 0.438 0.31644 0.0
C751 C 0.29073 0.41084 0.34686 0.0
C752 C 0.36732 0.46443 0.33039 0.0
C753 C 0.37598 0.47931 0.27869 0.0
N754 N 0.31496 0.42718 0.3404 0.0
N755 N 0.35175 0.46336 0.28531 0.0
H756 H 0.53967 0.93932 0.27353 0.0
H757 H 0.57242 0.84665 0.36346 0.0
H758 H 0.50012 0.90341 0.34188 0.0
H759 H 0.60821 0.87806 0.29184 0.0
H760 H 0.5453 0.86669 0.35566 0.0
H761 H 0.56494 0.91689 0.2798 0.0
C762 C 0.53654 0.92686 0.29 0.0
C763 C 0.51827 0.9236 0.30756 0.0
C764 C 0.55898 0.86908 0.34155 0.0
C765 C 0.54666 0.89755 0.31469 0.0
C766 C 0.5744 0.8576 0.34598 0.0
C767 C 0.59255 0.86079 0.32828 0.0
C768 C 0.56185 0.88396 0.31933 0.0
C769 C 0.59443 0.87517 0.30596 0.0
C770 C 0.55081 0.91396 0.29351 0.0
C771 C 0.5144 0.90678 0.32823 0.0
N772 N 0.57935 0.88635 0.30219 0.0
N773 N 0.52857 0.89447 0.33131 0.0
H774 H 0.13584 0.6249 0.27856 0.0
H775 H 0.12679 0.74277 0.36165 0.0
H776 H 0.09856 0.61337 0.35126 0.0
H777 H 0.18307 0.76003 0.30546 0.0
H778 H 0.11445 0.69482 0.35606 0.0
H779 H 0.15167 0.6739 0.28601 0.0
C780 C 0.13131 0.63272 0.29632 0.0
C781 C 0.1164 0.61512 0.31476 0.0
C782 C 0.12959 0.70907 0.34504 0.0
C783 C 0.13377 0.67102 0.32287 0.0
C784 C 0.13661 0.73649 0.34813 0.0
C785 C 0.15598 0.75549 0.33395 0.0
C786 C 0.14175 0.70035 0.32732 0.0
C787 C 0.1681 0.7461 0.31686 0.0
C788 C 0.1403 0.66069 0.3005 0.0
C789 C 0.11042 0.62631 0.33688 0.0
N790 N 0.16064 0.71913 0.31384 0.0
N791 N 0.11905 0.65349 0.34029 0.0
H792 H 0.79839 0.05649 0.37396 0.0
H793 H 0.75583 0.89846 0.36111 0.0
H794 H 0.85187 0.02758 0.37054 0.0
H795 H 0.70267 0.92737 0.34824 0.0
H796 H 0.79114 0.94557 0.36682 0.0
H797 H 0.76288 0.00927 0.36673 0.0
C798 C 0.80261 0.04014 0.37175 0.0
C799 C 0.82803 0.04581 0.37314 0.0
C800 C 0.77176 0.94161 0.36265 0.0
C801 C 0.78763 0.99184 0.3648 0.0
C802 C 0.75154 0.91469 0.35942 0.0
C803 C 0.72619 0.90889 0.35417 0.0
C804 C 0.76662 0.96298 0.36084 0.0
C805 C 0.72189 0.93082 0.35218 0.0
C806 C 0.78238 0.01323 0.36756 0.0
C807 C 0.8325 0.02395 0.36987 0.0
N808 N 0.74189 0.95689 0.35563 0.0
N809 N 0.8125 0.99791 0.36599 0.0
H810 H 0.95312 0.74903 0.41951 0.0
H811 H 0.06597 0.82608 0.32589 0.0
H812 H 0.94596 0.7867 0.35001 0.0
H813 H 0.0751 0.79235 0.39769 0.0
H814 H 0.0222 0.81257 0.335 0.0
H815 H 0.9981 0.76535 0.41254 0.0
C816 C 0.96111 0.76069 0.40274 0.0
C817 C 0.94588 0.76619 0.38502 0.0
C818 C 0.03376 0.80819 0.34885 0.0
C819 C 0.99712 0.78509 0.37701 0.0
C820 C 0.05874 0.81591 0.34365 0.0
C821 C 0.07404 0.81021 0.36104 0.0
C822 C 0.02398 0.79457 0.37157 0.0
C823 C 0.06383 0.79704 0.38378 0.0
C824 C 0.98672 0.77005 0.3988 0.0
C825 C 0.95706 0.78174 0.36386 0.0
N826 N 0.03935 0.78955 0.38834 0.0
N827 N 0.98199 0.79053 0.36035 0.0
H828 H 0.18057 0.14484 0.3744 0.0
H829 H 0.22642 0.29989 0.35092 0.0
H830 H 0.25969 0.20902 0.38151 0.0
H831 H 0.14745 0.23993 0.35791 0.0
H832 H 0.23842 0.26571 0.35858 0.0
H833 H 0.16756 0.17833 0.36528 0.0
C834 C 0.19516 0.16605 0.37432 0.0
C835 C 0.22121 0.17436 0.37939 0.0
C836 C 0.21845 0.25998 0.3584 0.0
C837 C 0.20657 0.21256 0.36829 0.0
C838 C 0.21153 0.2795 0.35391 0.0
C839 C 0.18584 0.27286 0.35381 0.0
C840 C 0.19959 0.2335 0.36272 0.0
C841 C 0.16748 0.24603 0.35787 0.0
C842 C 0.18775 0.18511 0.36902 0.0
C843 C 0.23939 0.20189 0.37825 0.0
N844 N 0.17472 0.22734 0.36217 0.0
N845 N 0.23174 0.22 0.37287 0.0
H846 H 0.63103 0.52357 0.78133 0.0
H847 H 0.7148 0.57805 0.65805 0.0
H848 H 0.59905 0.49804 0.69861 0.0
H849 H 0.74066 0.61743 0.73876 0.0
H850 H 0.67273 0.54706 0.67263 0.0
H851 H 0.67179 0.5569 0.76633 0.0
C852 C 0.63243 0.5251 0.76002 0.0
C853 C 0.61145 0.50782 0.74124 0.0
C854 C 0.68755 0.56258 0.68712 0.0
C855 C 0.65839 0.54571 0.72392 0.0
C856 C 0.71154 0.58022 0.67881 0.0
C857 C 0.73112 0.60027 0.69724 0.0
C858 C 0.68328 0.56485 0.71413 0.0
C859 C 0.72599 0.60225 0.72391 0.0
C860 C 0.6558 0.54408 0.75147 0.0
C861 C 0.61474 0.51052 0.71386 0.0
N862 N 0.70261 0.58465 0.7316 0.0
N863 N 0.63776 0.52897 0.70604 0.0
H864 H 0.51261 0.11022 0.71323 0.0
H865 H 0.40406 0.14244 0.75336 0.0
H866 H 0.50386 0.13023 0.79473 0.0
H867 H 0.42238 0.13926 0.67196 0.0
H868 H 0.44001 0.13671 0.76874 0.0
H869 H 0.4797 0.12055 0.69737 0.0
C870 C 0.50404 0.11714 0.72777 0.0
C871 C 0.51084 0.1191 0.75537 0.0
C872 C 0.43625 0.13734 0.74752 0.0
C873 C 0.47285 0.13043 0.7374 0.0
C874 C 0.41567 0.14047 0.73875 0.0
C875 C 0.4103 0.1412 0.71139 0.0
C876 C 0.4514 0.1347 0.72874 0.0
C877 C 0.42594 0.13873 0.69325 0.0
C878 C 0.48513 0.12285 0.71871 0.0
C879 C 0.49885 0.12787 0.7733 0.0
N880 N 0.44576 0.13545 0.70223 0.0
N881 N 0.48033 0.13299 0.76402 0.0
H882 H 0.92865 0.39896 0.73395 0.0
H883 H 0.81982 0.24695 0.68398 0.0
H884 H 0.84943 0.37552 0.71525 0.0
H885 H 0.90044 0.27509 0.68248 0.0
H886 H 0.83025 0.29386 0.69535 0.0
H887 H 0.91885 0.35376 0.71524 0.0
C888 C 0.9092 0.38429 0.72578 0.0
C889 C 0.88976 0.39087 0.72631 0.0
C890 C 0.84565 0.28983 0.69229 0.0
C891 C 0.87839 0.33914 0.70496 0.0
C892 C 0.83973 0.26302 0.68587 0.0
C893 C 0.85931 0.25705 0.68242 0.0
C894 C 0.87138 0.31084 0.69567 0.0
C895 C 0.88473 0.27875 0.68494 0.0
C896 C 0.90365 0.35857 0.71499 0.0
C897 C 0.86497 0.37128 0.71515 0.0
N898 N 0.89006 0.30466 0.69171 0.0
N899 N 0.85993 0.34617 0.7052 0.0
H900 H 0.20907 0.9419 0.61668 0.0
H901 H 0.24166 0.09126 0.66903 0.0
H902 H 0.15063 0.96194 0.6312 0.0
H903 H 0.29693 0.06454 0.67602 0.0
H904 H 0.20801 0.0442 0.65523 0.0
H905 H 0.2416 0.98678 0.63831 0.0
C906 C 0.20311 0.95573 0.62461 0.0
C907 C 0.17716 0.94829 0.62204 0.0
C908 C 0.22745 0.04859 0.66008 0.0
C909 C 0.21426 0.99975 0.64663 0.0
C910 C 0.24671 0.07548 0.66792 0.0
C911 C 0.27222 0.08192 0.67362 0.0
C912 C 0.23376 0.02801 0.65751 0.0
C913 C 0.27755 0.06057 0.67188 0.0
C914 C 0.22165 0.98128 0.63704 0.0
C915 C 0.17042 0.96685 0.63288 0.0
N916 N 0.25855 0.03464 0.6637 0.0
N917 N 0.18889 0.99186 0.64441 0.0
H918 H 0.04825 0.24505 0.5698 0.0
H919 H 0.95697 0.20328 0.68849 0.0
H920 H 0.0764 0.25614 0.65328 0.0
H921 H 0.93221 0.20678 0.60722 0.0
H922 H 1.00014 0.21868 0.67547 0.0
H923 H 0.00499 0.22747 0.58273 0.0
C924 C 0.0454 0.24402 0.5909 0.0
C925 C 0.06612 0.25241 0.61051 0.0
C926 C 0.98526 0.21602 0.66047 0.0
C927 C 0.01637 0.2317 0.62541 0.0
C928 C 0.96064 0.20716 0.66787 0.0
C929 C 0.94114 0.20387 0.64888 0.0
C930 C 0.9903 0.22146 0.63386 0.0
C931 C 0.9468 0.20916 0.62246 0.0
C932 C 0.02062 0.23378 0.59824 0.0
C933 C 0.06104 0.2498 0.63746 0.0
N934 N 0.97089 0.21772 0.61572 0.0
N935 N 0.03668 0.23971 0.64412 0.0
H936 H 0.74642 0.79459 0.60986 0.0
H937 H 0.85377 0.76653 0.67465 0.0
H938 H 0.82422 0.85779 0.63556 0.0
H939 H 0.77359 0.70494 0.66213 0.0
H940 H 0.84302 0.80016 0.66053 0.0
H941 H 0.75581 0.76112 0.62811 0.0
C942 C 0.76549 0.80139 0.61925 0.0
C943 C 0.78457 0.82902 0.6212 0.0
C944 C 0.82772 0.77935 0.66107 0.0
C945 C 0.79538 0.79094 0.64226 0.0
C946 C 0.83385 0.76011 0.66917 0.0
C947 C 0.81457 0.73282 0.66947 0.0
C948 C 0.80213 0.77127 0.65289 0.0
C949 C 0.78908 0.72575 0.66226 0.0
C950 C 0.77077 0.78234 0.62985 0.0
C951 C 0.80885 0.83676 0.63386 0.0
N952 N 0.78361 0.74481 0.65399 0.0
N953 N 0.81357 0.81784 0.64379 0.0
H954 H 0.05284 0.79905 0.5958 0.0
H955 H 0.94849 0.76952 0.70007 0.0
H956 H 0.06865 0.84851 0.67044 0.0
H957 H 0.93294 0.71917 0.626 0.0
H958 H 0.99236 0.79918 0.68923 0.0
H959 H 0.00847 0.77014 0.60588 0.0
C960 C 0.04688 0.8037 0.61435 0.0
C961 C 0.0644 0.82577 0.63259 0.0
C962 C 0.97938 0.78165 0.67533 0.0
C963 C 0.01379 0.79312 0.6442 0.0
C964 C 0.95437 0.76472 0.68153 0.0
C965 C 0.93718 0.74188 0.66392 0.0
C966 C 0.98724 0.77569 0.65131 0.0
C967 C 0.94568 0.73657 0.64015 0.0
C968 C 0.02162 0.78727 0.62011 0.0
C969 C 0.05574 0.83138 0.6561 0.0
N970 N 0.97013 0.75335 0.63453 0.0
N971 N 0.03107 0.81507 0.66131 0.0
H972 H 0.20443 0.2734 0.60834 0.0
H973 H 0.23924 0.18232 0.69827 0.0
H974 H 0.16528 0.23692 0.67672 0.0
H975 H 0.27378 0.21274 0.6258 0.0
H976 H 0.21144 0.20148 0.69033 0.0
H977 H 0.22988 0.25109 0.61412 0.0
C978 C 0.20138 0.26079 0.62467 0.0
C979 C 0.18318 0.25733 0.64239 0.0
C980 C 0.22497 0.20384 0.67605 0.0
C981 C 0.21183 0.23151 0.649 0.0
C982 C 0.24079 0.19287 0.68056 0.0
C983 C 0.25881 0.19605 0.66268 0.0
C984 C 0.22732 0.21825 0.65357 0.0
C985 C 0.26011 0.20988 0.64007 0.0
C986 C 0.21577 0.24797 0.62791 0.0
C987 C 0.17946 0.2404 0.66291 0.0
N988 N 0.24467 0.22063 0.63623 0.0
N989 N 0.19377 0.22823 0.66576 0.0
H990 H 0.74793 0.94485 0.65143 0.0
H991 H 0.86109 0.10042 0.66135 0.0
H992 H 0.82781 0.96852 0.65562 0.0
H993 H 0.78274 0.07573 0.67385 0.0
H994 H 0.84925 0.0524 0.65634 0.0
H995 H 0.76025 0.99298 0.65675 0.0
C996 C 0.76808 0.96025 0.65334 0.0
C997 C 0.7869 0.95281 0.6527 0.0
C998 C 0.83471 0.05755 0.66026 0.0
C999 C 0.80119 0.00787 0.65897 0.0
C1000 C 0.84143 0.08496 0.66309 0.0
C1001 C 0.82291 0.09218 0.6681 0.0
C1002 C 0.80924 0.03722 0.66221 0.0
C1003 C 0.79773 0.07122 0.67013 0.0
C1004 C 0.77512 0.9877 0.65646 0.0
C1005 C 0.81274 0.97351 0.65565 0.0
N1006 N 0.79164 0.04474 0.66709 0.0
N1007 N 0.81915 1.00014 0.65852 0.0
H1008 H 0.52099 0.36525 0.70548 0.0
H1009 H 0.36906 0.26427 0.68083 0.0
H1010 H 0.4662 0.39259 0.70272 0.0
H1011 H 0.42305 0.23686 0.6962 0.0
H1012 H 0.40457 0.3113 0.68622 0.0
H1013 H 0.48551 0.31789 0.69981 0.0
C1014 C 0.50145 0.36119 0.70386 0.0
C1015 C 0.49644 0.38274 0.70494 0.0
C1016 C 0.40865 0.29499 0.6884 0.0
C1017 C 0.45582 0.32881 0.69801 0.0
C1018 C 0.38837 0.26808 0.68523 0.0
C1019 C 0.39302 0.24649 0.68805 0.0
C1020 C 0.43383 0.30043 0.6943 0.0
C1021 C 0.41849 0.25279 0.69387 0.0
C1022 C 0.48123 0.33423 0.70057 0.0
C1023 C 0.47084 0.37652 0.70229 0.0
N1024 N 0.43792 0.27916 0.69677 0.0
N1025 N 0.45148 0.35013 0.69894 0.0
H1026 H 0.62289 0.08794 0.75698 0.0
H1027 H 0.73151 0.1612 0.65783 0.0
H1028 H 0.61303 0.12434 0.68768 0.0
H1029 H 0.74329 0.13066 0.73078 0.0
H1030 H 0.68796 0.14768 0.66818 0.0
H1031 H 0.66705 0.10309 0.74752 0.0
C1032 C 0.6301 0.09902 0.73969 0.0
C1033 C 0.61436 0.10456 0.72281 0.0
C1034 C 0.70008 0.14401 0.68198 0.0
C1035 C 0.66471 0.12219 0.71196 0.0
C1036 C 0.72491 0.15172 0.67607 0.0
C1037 C 0.74088 0.14695 0.69348 0.0
C1038 C 0.6912 0.13135 0.70541 0.0
C1039 C 0.73149 0.13464 0.71684 0.0
C1040 C 0.65525 0.10774 0.73432 0.0
C1041 C 0.62455 0.11937 0.70092 0.0
N1042 N 0.70721 0.12717 0.72209 0.0
N1043 N 0.64908 0.12758 0.69604 0.0
H1044 H 0.9294 0.54594 0.70695 0.0
H1045 H 0.81373 0.57518 0.68428 0.0
H1046 H 0.8499 0.48274 0.69951 0.0
H1047 H 0.89306 0.63547 0.67958 0.0
H1048 H 0.82641 0.54119 0.69085 0.0
H1049 H 0.91635 0.57933 0.69826 0.0
C1050 C 0.90917 0.53918 0.70369 0.0
C1051 C 0.89065 0.5117 0.70449 0.0
C1052 C 0.84101 0.56183 0.68825 0.0
C1053 C 0.87554 0.54965 0.69418 0.0
C1054 C 0.8338 0.58128 0.68449 0.0
C1055 C 0.85236 0.6083 0.68145 0.0
C1056 C 0.867 0.56946 0.68915 0.0
C1057 C 0.87806 0.61493 0.68186 0.0
C1058 C 0.90172 0.55819 0.6986 0.0
C1059 C 0.86472 0.50386 0.69955 0.0
N1060 N 0.88461 0.59569 0.68579 0.0
N1061 N 0.8579 0.52277 0.69476 0.0
H1062 H 0.50118 0.99594 0.22654 0.0
H1063 H 0.47142 0.96631 0.07063 0.0
H1064 H 0.42693 0.93455 0.18845 0.0
H1065 H 0.52295 0.0488 0.10528 0.0
H1066 H 0.45718 0.95351 0.11438 0.0
H1067 H 0.5122 0.01526 0.18337 0.0
C1068 C 0.48715 0.98671 0.20916 0.0
C1069 C 0.46313 0.96358 0.21099 0.0
C1070 C 0.47129 0.97454 0.11244 0.0
C1071 C 0.47566 0.9853 0.16186 0.0
C1072 C 0.47927 0.98197 0.08735 0.0
C1073 C 0.49782 0.00888 0.08412 0.0
C1074 C 0.48257 0.99388 0.13485 0.0
C1075 C 0.50833 0.02792 0.1069 0.0
C1076 C 0.49338 0.99783 0.18467 0.0
C1077 C 0.44558 0.95248 0.18796 0.0
N1078 N 0.50077 0.01997 0.13151 0.0
N1079 N 0.45232 0.9632 0.1643 0.0
H1080 H 0.09776 0.50329 0.19409 0.0
H1081 H 0.97577 0.48691 0.10616 0.0
H1082 H 0.04552 0.52553 0.22633 0.0
H1083 H 0.0452 0.50333 0.0719 0.0
H1084 H 0.99706 0.49162 0.1509 0.0
H1085 H 0.0746 0.49397 0.14938 0.0
C1086 C 0.0813 0.50602 0.19173 0.0
C1087 C 0.07354 0.51527 0.21381 0.0
C1088 C 0.00751 0.49394 0.13352 0.0
C1089 C 0.04691 0.50441 0.16305 0.0
C1090 C 0.99537 0.49113 0.10803 0.0
C1091 C 0.00875 0.49463 0.08534 0.0
C1092 C 0.03304 0.49988 0.13624 0.0
C1093 C 0.03414 0.50021 0.08887 0.0
C1094 C 0.0682 0.50082 0.16629 0.0
C1095 C 0.0522 0.51864 0.20973 0.0
N1096 N 0.04547 0.50261 0.11385 0.0
N1097 N 0.03953 0.51308 0.18484 0.0
H1098 H 0.49938 0.59096 0.19305 0.0
H1099 H 0.4821 0.48004 0.07625 0.0
H1100 H 0.46176 0.5051 0.20351 0.0
H1101 H 0.54259 0.56414 0.08355 0.0
H1102 H 0.46828 0.48865 0.11912 0.0
H1103 H 0.50926 0.58116 0.14889 0.0
C1104 C 0.49328 0.57003 0.18619 0.0
C1105 C 0.48007 0.5489 0.20237 0.0
C1106 C 0.48453 0.50516 0.11124 0.0
C1107 C 0.49083 0.5375 0.15129 0.0
C1108 C 0.4923 0.50031 0.0868 0.0
C1109 C 0.51349 0.52143 0.07652 0.0
C1110 C 0.49788 0.53139 0.12509 0.0
C1111 C 0.52627 0.54727 0.09096 0.0
C1112 C 0.49881 0.56446 0.16085 0.0
C1113 C 0.4719 0.52207 0.19179 0.0
N1114 N 0.51821 0.55156 0.11445 0.0
N1115 N 0.47747 0.51713 0.16693 0.0
H1116 H 0.90264 0.47183 0.82319 0.0
H1117 H 0.01977 0.48059 0.91494 0.0
H1118 H 0.95844 0.45322 0.79437 0.0
H1119 H 0.95879 0.48701 0.94834 0.0
H1120 H 0.99993 0.47646 0.87005 0.0
H1121 H 0.92531 0.48342 0.86849 0.0
C1122 C 0.91982 0.47051 0.82636 0.0
C1123 C 0.92859 0.46134 0.8051 0.0
C1124 C 0.99087 0.47894 0.88711 0.0
C1125 C 0.95445 0.47443 0.85662 0.0
C1126 C 0.00222 0.48133 0.91277 0.0
C1127 C 0.99088 0.48418 0.93532 0.0
C1128 C 0.96783 0.47923 0.88384 0.0
C1129 C 0.96821 0.4851 0.93141 0.0
C1130 C 0.93263 0.47695 0.85219 0.0
C1131 C 0.95082 0.45982 0.81027 0.0
N1132 N 0.95728 0.48246 0.90606 0.0
N1133 N 0.96291 0.4662 0.83546 0.0
H1134 H 0.58325 0.50317 0.82898 0.0
H1135 H 0.46687 0.45147 0.91774 0.0
H1136 H 0.50475 0.45225 0.79445 0.0
H1137 H 0.5353 0.52977 0.93742 0.0
H1138 H 0.48188 0.44763 0.87429 0.0
H1139 H 0.5677 0.50987 0.87093 0.0
C1140 C 0.56278 0.49361 0.82998 0.0
C1141 C 0.54536 0.477 0.80791 0.0
C1142 C 0.49363 0.46561 0.88818 0.0
C1143 C 0.52753 0.48402 0.85635 0.0
C1144 C 0.48512 0.4678 0.91295 0.0
C1145 C 0.50021 0.4907 0.93142 0.0
C1146 C 0.51755 0.48632 0.88201 0.0
C1147 C 0.52359 0.51135 0.92416 0.0
C1148 C 0.55395 0.49735 0.85406 0.0
C1149 C 0.51901 0.46471 0.81092 0.0
N1150 N 0.53171 0.50858 0.9001 0.0
N1151 N 0.51094 0.46826 0.83473 0.0
H1152 H 0.49191 0.04367 0.80525 0.0
H1153 H 0.53234 0.01116 0.94638 0.0
H1154 H 0.5706 0.08716 0.84017 0.0
H1155 H 0.45802 1.00084 0.92337 0.0
H1156 H 0.54714 0.0319 0.90445 0.0
H1157 H 0.47949 0.01934 0.84504 0.0
C1158 C 0.50661 0.04811 0.82131 0.0
C1159 C 0.53226 0.06796 0.81964 0.0
C1160 C 0.52763 0.02506 0.90872 0.0
C1161 C 0.51816 0.03978 0.86514 0.0
C1162 C 0.51927 0.01349 0.93264 0.0
C1163 C 0.49413 0.00485 0.93848 0.0
C1164 C 0.51042 0.02727 0.89046 0.0
C1165 C 0.47761 0.00738 0.91968 0.0
C1166 C 0.4995 0.03414 0.84397 0.0
C1167 C 0.5506 0.07212 0.84069 0.0
N1168 N 0.48603 0.0183 0.89651 0.0
N1169 N 0.54316 0.05827 0.86276 0.0
H1170 H 0.17049 0.33413 0.56353 0.0
H1171 H 0.14142 0.30343 0.4087 0.0
H1172 H 0.09494 0.27603 0.52564 0.0
H1173 H 0.1922 0.38689 0.44113 0.0
H1174 H 0.12713 0.29198 0.45265 0.0
H1175 H 0.18212 0.35347 0.52039 0.0
C1176 C 0.15631 0.32571 0.54625 0.0
C1177 C 0.13174 0.30341 0.54808 0.0
C1178 C 0.14108 0.31292 0.45016 0.0
C1179 C 0.14494 0.3251 0.4991 0.0
C1180 C 0.14908 0.31958 0.42496 0.0
C1181 C 0.16736 0.34637 0.42103 0.0
C1182 C 0.15212 0.33293 0.47203 0.0
C1183 C 0.17775 0.36607 0.4433 0.0
C1184 C 0.16289 0.33685 0.52181 0.0
C1185 C 0.11401 0.29332 0.52519 0.0
N1186 N 0.17019 0.35889 0.46809 0.0
N1187 N 0.12109 0.30396 0.50159 0.0
H1188 H 0.72108 0.81653 0.54875 0.0
H1189 H 0.69533 0.88729 0.42827 0.0
H1190 H 0.7699 0.90173 0.53843 0.0
H1191 H 0.67006 0.8015 0.42088 0.0
H1192 H 0.71904 0.89262 0.47152 0.0
H1193 H 0.69884 0.81004 0.50424 0.0
C1194 C 0.7273 0.83385 0.53717 0.0
C1195 C 0.74736 0.85981 0.54766 0.0
C1196 C 0.70839 0.87263 0.4604 0.0
C1197 C 0.72151 0.85252 0.49693 0.0
C1198 C 0.69479 0.86957 0.43583 0.0
C1199 C 0.68084 0.84395 0.42108 0.0
C1200 C 0.70766 0.8498 0.47055 0.0
C1201 C 0.68078 0.82164 0.43165 0.0
C1202 C 0.71448 0.83011 0.5118 0.0
C1203 C 0.75418 0.88149 0.53168 0.0
N1204 N 0.69387 0.82502 0.4559 0.0
N1205 N 0.74118 0.87739 0.5073 0.0
H1206 H 0.16791 0.92674 0.52805 0.0
H1207 H 0.1491 0.81472 0.41181 0.0
H1208 H 0.12932 0.841 0.53917 0.0
H1209 H 0.21137 0.89798 0.41973 0.0
H1210 H 0.13543 0.82389 0.45457 0.0
H1211 H 0.17781 0.91634 0.48414 0.0
C1212 C 0.16161 0.90572 0.5214 0.0
C1213 C 0.14812 0.88479 0.53771 0.0
C1214 C 0.15205 0.84009 0.44685 0.0
C1215 C 0.15889 0.87271 0.48687 0.0
C1216 C 0.15974 0.83492 0.42249 0.0
C1217 C 0.1814 0.85563 0.41242 0.0
C1218 C 0.1659 0.86625 0.4608 0.0
C1219 C 0.19468 0.88141 0.42697 0.0
C1220 C 0.16716 0.89981 0.4962 0.0
C1221 C 0.13969 0.85783 0.52737 0.0
N1222 N 0.18667 0.88603 0.45035 0.0
N1223 N 0.14526 0.85256 0.50261 0.0
H1224 H 0.57577 0.81035 0.15823 0.0
H1225 H 0.65461 0.77458 0.26197 0.0
H1226 H 0.61967 0.77335 0.13392 0.0
H1227 H 0.64843 0.84604 0.27921 0.0
H1228 H 0.63662 0.77004 0.21599 0.0
H1229 H 0.59788 0.82108 0.20362 0.0
C1230 C 0.59023 0.80477 0.16224 0.0
C1231 C 0.5955 0.79048 0.14218 0.0
C1232 C 0.63919 0.78675 0.22981 0.0
C1233 C 0.62028 0.80214 0.19417 0.0
C1234 C 0.64938 0.78931 0.2561 0.0
C1235 C 0.65275 0.81057 0.27452 0.0
C1236 C 0.63188 0.80531 0.22188 0.0
C1237 C 0.64565 0.82907 0.26576 0.0
C1238 C 0.60273 0.81082 0.18819 0.0
C1239 C 0.61431 0.78361 0.1488 0.0
N1240 N 0.63528 0.82589 0.24004 0.0
N1241 N 0.62572 0.78916 0.17424 0.0
H1242 H 0.16893 0.78493 0.12804 0.0
H1243 H 0.20284 0.86347 0.27356 0.0
H1244 H 0.24724 0.83287 0.16403 0.0
H1245 H 0.13488 0.7849 0.25327 0.0
H1246 H 0.21777 0.85896 0.2302 0.0
H1247 H 0.1543 0.79121 0.17072 0.0
C1248 C 0.18312 0.7967 0.14481 0.0
C1249 C 0.20946 0.80806 0.14228 0.0
C1250 C 0.19966 0.84269 0.23535 0.0
C1251 C 0.19263 0.81604 0.19101 0.0
C1252 C 0.1913 0.8451 0.26016 0.0
C1253 C 0.16805 0.82413 0.26732 0.0
C1254 C 0.18424 0.8195 0.2173 0.0
C1255 C 0.15308 0.8014 0.24861 0.0
C1256 C 0.17468 0.80038 0.16913 0.0
C1257 C 0.2268 0.82392 0.16471 0.0
N1258 N 0.16139 0.7997 0.22438 0.0
N1259 N 0.21808 0.82747 0.1881 0.0
H1260 H 0.2364 0.41669 0.17269 0.0
H1261 H 0.1241 0.33482 0.26152 0.0
H1262 H 0.15716 0.36754 0.14021 0.0
H1263 H 0.19847 0.34425 0.28207 0.0
H1264 H 0.13775 0.35258 0.2188 0.0
H1265 H 0.22499 0.3951 0.21468 0.0
C1266 C 0.21672 0.40119 0.17424 0.0
C1267 C 0.1976 0.39431 0.15309 0.0
C1268 C 0.15112 0.35077 0.23263 0.0
C1269 C 0.18453 0.37012 0.20092 0.0
C1270 C 0.14338 0.34071 0.25703 0.0
C1271 C 0.16033 0.33841 0.27541 0.0
C1272 C 0.17613 0.35891 0.22662 0.0
C1273 C 0.18508 0.34634 0.26861 0.0
C1274 C 0.21026 0.38899 0.19818 0.0
C1275 C 0.1724 0.37413 0.15624 0.0
N1276 N 0.19241 0.35653 0.24472 0.0
N1277 N 0.16657 0.36304 0.17979 0.0
H1278 H 0.75928 0.58508 0.85161 0.0
H1279 H 0.85708 0.70974 0.7755 0.0
H1280 H 0.83052 0.65086 0.89135 0.0
H1281 H 0.80572 0.62932 0.73574 0.0
H1282 H 0.84282 0.69225 0.81869 0.0
H1283 H 0.77119 0.60512 0.80914 0.0
C1284 C 0.77734 0.60387 0.85138 0.0
C1285 C 0.79402 0.61633 0.8749 0.0
C1286 C 0.83456 0.67858 0.80042 0.0
C1287 C 0.80767 0.63935 0.82661 0.0
C1288 C 0.84259 0.68853 0.77584 0.0
C1289 C 0.83234 0.67099 0.75205 0.0
C1290 C 0.81595 0.65104 0.80102 0.0
C1291 C 0.81376 0.64365 0.75354 0.0
C1292 C 0.78416 0.6152 0.82719 0.0
C1293 C 0.81728 0.64054 0.87354 0.0
N1294 N 0.8061 0.63452 0.7776 0.0
N1295 N 0.82342 0.65134 0.84977 0.0
H1296 H 0.38737 0.14902 0.88164 0.0
H1297 H 0.36331 0.22383 0.76392 0.0
H1298 H 0.43721 0.23467 0.87397 0.0
H1299 H 0.33716 0.13786 0.75488 0.0
H1300 H 0.38683 0.2281 0.80707 0.0
H1301 H 0.36544 0.14424 0.83749 0.0
C1302 C 0.39391 0.1668 0.87071 0.0
C1303 C 0.41423 0.19235 0.88183 0.0
C1304 C 0.37602 0.20832 0.7956 0.0
C1305 C 0.38861 0.18702 0.83146 0.0
C1306 C 0.36252 0.20586 0.77109 0.0
C1307 C 0.3484 0.18049 0.75591 0.0
C1308 C 0.37496 0.18511 0.80519 0.0
C1309 C 0.34802 0.15782 0.76598 0.0
C1310 C 0.38123 0.16403 0.84553 0.0
C1311 C 0.42134 0.21468 0.86669 0.0
N1312 N 0.36098 0.16061 0.79012 0.0
N1313 N 0.40845 0.21152 0.84244 0.0
H1314 H 0.77817 0.18859 0.85833 0.0
H1315 H 0.8858 0.2273 0.76061 0.0
H1316 H 0.85833 0.22611 0.88721 0.0
H1317 H 0.8124 0.15405 0.7414 0.0
H1318 H 0.8743 0.23156 0.80571 0.0
H1319 H 0.78833 0.17898 0.81389 0.0
C1320 C 0.79782 0.19455 0.85553 0.0
C1321 C 0.81747 0.20859 0.87663 0.0
C1322 C 0.86067 0.21456 0.7916 0.0
C1323 C 0.82914 0.19825 0.82567 0.0
C1324 C 0.86717 0.21216 0.76585 0.0
C1325 C 0.84982 0.1905 0.74712 0.0
C1326 C 0.83648 0.19543 0.79861 0.0
C1327 C 0.82599 0.17142 0.75502 0.0
C1328 C 0.80357 0.18915 0.83011 0.0
C1329 C 0.84261 0.21602 0.87151 0.0
N1330 N 0.81986 0.17444 0.78018 0.0
N1331 N 0.84774 0.2111 0.84652 0.0
H1332 H 0.27482 0.16193 0.47894 0.0
H1333 H 0.30255 0.10171 0.60692 0.0
H1334 H 0.23179 0.07683 0.49205 0.0
H1335 H 0.3235 0.18625 0.6096 0.0
H1336 H 0.27862 0.09301 0.56325 0.0
H1337 H 0.29454 0.17237 0.52542 0.0
C1338 C 0.26932 0.14548 0.49159 0.0
C1339 C 0.2519 0.11837 0.48134 0.0
C1340 C 0.28827 0.11346 0.57338 0.0
C1341 C 0.27464 0.13017 0.53429 0.0
C1342 C 0.30203 0.11846 0.59825 0.0
C1343 C 0.31506 0.14474 0.61171 0.0
C1344 C 0.28787 0.13501 0.56156 0.0
C1345 C 0.31362 0.16568 0.59976 0.0
C1346 C 0.28064 0.15147 0.51807 0.0
C1347 C 0.24565 0.09791 0.4987 0.0
N1348 N 0.30047 0.16044 0.5751 0.0
N1349 N 0.25718 0.1042 0.52414 0.0
H1350 H 0.86177 0.09297 0.48956 0.0
H1351 H 0.86622 0.20028 0.60217 0.0
H1352 H 0.89694 0.1788 0.47959 0.0
H1353 H 0.80907 0.11485 0.59422 0.0
H1354 H 0.88234 0.19312 0.56045 0.0
H1355 H 0.84667 0.10094 0.53117 0.0
C1356 C 0.86619 0.11348 0.49593 0.0
C1357 C 0.88051 0.13519 0.48073 0.0
C1358 C 0.86625 0.17598 0.56785 0.0
C1359 C 0.86372 0.1445 0.52896 0.0
C1360 C 0.85717 0.18002 0.59165 0.0
C1361 C 0.83639 0.15807 0.60156 0.0
C1362 C 0.8546 0.14975 0.55414 0.0
C1363 C 0.82509 0.1323 0.58714 0.0
C1364 C 0.85766 0.11801 0.51983 0.0
C1365 C 0.88623 0.16145 0.49066 0.0
N1366 N 0.83443 0.1288 0.56422 0.0
N1367 N 0.87786 0.16537 0.51416 0.0
H1368 H 0.90334 0.75456 0.50299 0.0
H1369 H 0.80779 0.63037 0.58146 0.0
H1370 H 0.82869 0.69144 0.46756 0.0
H1371 H 0.86359 0.70966 0.62058 0.0
H1372 H 0.82134 0.64723 0.53791 0.0
H1373 H 0.89513 0.73249 0.54475 0.0
C1374 C 0.88542 0.73579 0.50391 0.0
C1375 C 0.86655 0.72485 0.48201 0.0
C1376 C 0.83081 0.66074 0.55612 0.0
C1377 C 0.85709 0.69964 0.52941 0.0
C1378 C 0.82316 0.65116 0.5809 0.0
C1379 C 0.83465 0.66867 0.60458 0.0
C1380 C 0.85028 0.68786 0.5552 0.0
C1381 C 0.85442 0.69542 0.60282 0.0
C1382 C 0.88069 0.72334 0.5277 0.0
C1383 C 0.84357 0.70062 0.48419 0.0
N1384 N 0.8616 0.70424 0.57853 0.0
N1385 N 0.83942 0.68883 0.50755 0.0
loop_
_geom_bond_atom_site_label_1
_geom_bond_atom_site_label_2
_geom_bond_distance
_geom_bond_site_symmetry_2
_ccdc_geom_bond_type
H0 C7 0.929 . S
H1 C10 0.930 . S
H2 C12 0.929 . S
H3 C4 0.969 . S
C4 H3 0.969 . S
C4 O5 1.550 . S
C4 H6 0.973 . S
O5 C4 1.550 . S
O5 C11 1.412 . S
H6 C4 0.973 . S
C7 H0 0.929 . S
C7 C8 1.400 . S
C7 C9 1.364 . S
C8 C7 1.400 . S
C8 C12 1.377 . S
C9 C7 1.364 . S
C9 C10 1.374 . S
C10 H1 0.930 . S
C10 C9 1.374 . S
C10 C11 1.383 . S
C11 O5 1.412 . S
C11 C10 1.383 . S
C11 C12 1.394 . S
C12 H2 0.929 . S
C12 C8 1.377 . S
C12 C11 1.394 . S
H13 C20 0.929 . S
H14 C23 0.930 . S
H15 C25 0.929 . S
H16 C17 0.969 . S
C17 H16 0.969 . S
C17 O18 1.550 . S
C17 H19 0.973 . S
O18 C17 1.550 . S
O18 C24 1.412 . S
H19 C17 0.973 . S
C20 H13 0.929 . S
C20 C21 1.400 . S
C20 C22 1.364 . S
C21 C20 1.400 . S
C21 C25 1.377 . S
C22 C20 1.364 . S
C22 C23 1.374 . S
C23 H14 0.930 . S
C23 C22 1.374 . S
C23 C24 1.383 . S
C24 O18 1.412 . S
C24 C23 1.383 . S
C24 C25 1.394 . S
C25 H15 0.929 . S
C25 C21 1.377 . S
C25 C24 1.394 . S
H26 C33 0.929 . S
H27 C36 0.930 . S
H28 C38 0.929 . S
H29 C30 0.969 . S
C30 H29 0.969 . S
C30 O31 1.550 . S
C30 H32 0.973 . S
O31 C30 1.550 . S
O31 C37 1.412 . S
H32 C30 0.973 . S
C33 H26 0.929 . S
C33 C34 1.400 . S
C33 C35 1.364 . S
C34 C33 1.400 . S
C34 C38 1.377 . S
C35 C33 1.364 . S
C35 C36 1.374 . S
C36 H27 0.930 . S
C36 C35 1.374 . S
C36 C37 1.383 . S
C37 O31 1.412 . S
C37 C36 1.383 . S
C37 C38 1.394 . S
C38 H28 0.929 . S
C38 C34 1.377 . S
C38 C37 1.394 . S
H39 C46 0.929 . S
H40 C49 0.930 . S
H41 C51 0.929 . S
H42 C43 0.969 . S
C43 H42 0.969 . S
C43 O44 1.550 . S
C43 H45 0.973 . S
O44 C43 1.550 . S
O44 C50 1.412 . S
H45 C43 0.973 . S
C46 H39 0.929 . S
C46 C47 1.400 . S
C46 C48 1.364 . S
C47 C46 1.400 . S
C47 C51 1.377 . S
C48 C46 1.364 . S
C48 C49 1.374 . S
C49 H40 0.930 . S
C49 C48 1.374 . S
C49 C50 1.383 . S
C50 O44 1.412 . S
C50 C49 1.383 . S
C50 C51 1.394 . S
C51 H41 0.929 . S
C51 C47 1.377 . S
C51 C50 1.394 . S
H52 C59 0.929 . S
H53 C62 0.930 . S
H54 C64 0.929 . S
H55 C56 0.969 . S
C56 H55 0.969 . S
C56 O57 1.550 . S
C56 H58 0.973 . S
O57 C56 1.550 . S
O57 C63 1.412 . S
H58 C56 0.973 . S
C59 H52 0.929 . S
C59 C60 1.400 . S
C59 C61 1.364 . S
C60 C59 1.400 . S
C60 C64 1.377 . S
C61 C59 1.364 . S
C61 C62 1.374 . S
C62 H53 0.930 . S
C62 C61 1.374 . S
C62 C63 1.383 . S
C63 O57 1.412 . S
C63 C62 1.383 . S
C63 C64 1.394 . S
C64 H54 0.929 . S
C64 C60 1.377 . S
C64 C63 1.394 . S
H65 C72 0.929 . S
H66 C75 0.930 . S
H67 C77 0.929 . S
H68 C69 0.969 . S
C69 H68 0.969 . S
C69 O70 1.550 . S
C69 H71 0.973 . S
O70 C69 1.550 . S
O70 C76 1.412 . S
H71 C69 0.973 . S
C72 H65 0.929 . S
C72 C73 1.400 . S
C72 C74 1.364 . S
C73 C72 1.400 . S
C73 C77 1.377 . S
C74 C72 1.364 . S
C74 C75 1.374 . S
C75 H66 0.930 . S
C75 C74 1.374 . S
C75 C76 1.383 . S
C76 O70 1.412 . S
C76 C75 1.383 . S
C76 C77 1.394 . S
C77 H67 0.929 . S
C77 C73 1.377 . S
C77 C76 1.394 . S
H78 C85 0.929 . S
H79 C88 0.930 . S
H80 C90 0.929 . S
H81 C82 0.969 . S
C82 H81 0.969 . S
C82 O83 1.550 . S
C82 H84 0.973 . S
O83 C82 1.550 . S
O83 C89 1.412 . S
H84 C82 0.973 . S
C85 H78 0.929 . S
C85 C86 1.400 . S
C85 C87 1.364 . S
C86 C85 1.400 . S
C86 C90 1.377 . S
C87 C85 1.364 . S
C87 C88 1.374 . S
C88 H79 0.930 . S
C88 C87 1.374 . S
C88 C89 1.383 . S
C89 O83 1.412 . S
C89 C88 1.383 . S
C89 C90 1.394 . S
C90 H80 0.929 . S
C90 C86 1.377 . S
C90 C89 1.394 . S
H91 C98 0.929 . S
H92 C101 0.930 . S
H93 C103 0.929 . S
H94 C95 0.969 . S
C95 H94 0.969 . S
C95 O96 1.550 . S
C95 H97 0.973 . S
O96 C95 1.550 . S
O96 C102 1.412 . S
H97 C95 0.973 . S
C98 H91 0.929 . S
C98 C99 1.400 . S
C98 C100 1.364 . S
C99 C98 1.400 . S
C99 C103 1.377 . S
C100 C98 1.364 . S
C100 C101 1.374 . S
C101 H92 0.930 . S
C101 C100 1.374 . S
C101 C102 1.383 . S
C102 O96 1.412 . S
C102 C101 1.383 . S
C102 C103 1.394 . S
C103 H93 0.929 . S
C103 C99 1.377 . S
C103 C102 1.394 . S
H104 C111 0.929 . S
H105 C114 0.930 . S
H106 C116 0.929 . S
H107 C108 0.969 . S
C108 H107 0.969 . S
C108 O109 1.550 . S
C108 H110 0.973 . S
O109 C108 1.550 . S
O109 C115 1.412 . S
H110 C108 0.973 . S
C111 H104 0.929 . S
C111 C112 1.400 . S
C111 C113 1.364 . S
C112 C111 1.400 . S
C112 C116 1.377 . S
C113 C111 1.364 . S
C113 C114 1.374 . S
C114 H105 0.930 . S
C114 C113 1.374 . S
C114 C115 1.383 . S
C115 O109 1.412 . S
C115 C114 1.383 . S
C115 C116 1.394 . S
C116 H106 0.929 . S
C116 C112 1.377 . S
C116 C115 1.394 . S
H117 C124 0.929 . S
H118 C127 0.930 . S
H119 C129 0.929 . S
H120 C121 0.969 . S
C121 H120 0.969 . S
C121 O122 1.550 . S
C121 H123 0.973 . S
O122 C121 1.550 . S
O122 C128 1.412 . S
H123 C121 0.973 . S
C124 H117 0.929 . S
C124 C125 1.400 . S
C124 C126 1.364 . S
C125 C124 1.400 . S
C125 C129 1.377 . S
C126 C124 1.364 . S
C126 C127 1.374 . S
C127 H118 0.930 . S
C127 C126 1.374 . S
C127 C128 1.383 . S
C128 O122 1.412 . S
C128 C127 1.383 . S
C128 C129 1.394 . S
C129 H119 0.929 . S
C129 C125 1.377 . S
C129 C128 1.394 . S
H130 C137 0.929 . S
H131 C140 0.930 . S
H132 C142 0.929 . S
H133 C134 0.969 . S
C134 H133 0.969 . S
C134 O135 1.550 . S
C134 H136 0.973 . S
O135 C134 1.550 . S
O135 C141 1.412 . S
H136 C134 0.973 . S
C137 H130 0.929 . S
C137 C138 1.400 . S
C137 C139 1.364 . S
C138 C137 1.400 . S
C138 C142 1.377 . S
C139 C137 1.364 . S
C139 C140 1.374 . S
C140 H131 0.930 . S
C140 C139 1.374 . S
C140 C141 1.383 . S
C141 O135 1.412 . S
C141 C140 1.383 . S
C141 C142 1.394 . S
C142 H132 0.929 . S
C142 C138 1.377 . S
C142 C141 1.394 . S
H143 C150 0.929 . S
H144 C153 0.930 . S
H145 C155 0.929 . S
H146 C147 0.969 . S
C147 H146 0.969 . S
C147 O148 1.550 . S
C147 H149 0.973 . S
O148 C147 1.550 . S
O148 C154 1.412 . S
H149 C147 0.973 . S
C150 H143 0.929 . S
C150 C151 1.400 . S
C150 C152 1.364 . S
C151 C150 1.400 . S
C151 C155 1.377 . S
C152 C150 1.364 . S
C152 C153 1.374 . S
C153 H144 0.930 . S
C153 C152 1.374 . S
C153 C154 1.383 . S
C154 O148 1.412 . S
C154 C153 1.383 . S
C154 C155 1.394 . S
C155 H145 0.929 . S
C155 C151 1.377 . S
C155 C154 1.394 . S
H156 C163 0.929 . S
H157 C166 0.930 . S
H158 C168 0.929 . S
H159 C160 0.969 . S
C160 H159 0.969 . S
C160 O161 1.550 . S
C160 H162 0.973 . S
O161 C160 1.550 . S
O161 C167 1.412 . S
H162 C160 0.973 . S
C163 H156 0.929 . S
C163 C164 1.400 . S
C163 C165 1.364 . S
C164 C163 1.400 . S
C164 C168 1.377 . S
C165 C163 1.364 . S
C165 C166 1.374 . S
C166 H157 0.930 . S
C166 C165 1.374 . S
C166 C167 1.383 . S
C167 O161 1.412 . S
C167 C166 1.383 . S
C167 C168 1.394 . S
C168 H158 0.929 . S
C168 C164 1.377 . S
C168 C167 1.394 . S
H169 C176 0.929 . S
H170 C179 0.930 . S
H171 C181 0.929 . S
H172 C173 0.969 . S
C173 H172 0.969 . S
C173 O174 1.550 . S
C173 H175 0.973 . S
O174 C173 1.550 . S
O174 C180 1.412 . S
H175 C173 0.973 . S
C176 H169 0.929 . S
C176 C177 1.400 . S
C176 C178 1.364 . S
C177 C176 1.400 . S
C177 C181 1.377 . S
C178 C176 1.364 . S
C178 C179 1.374 . S
C179 H170 0.930 . S
C179 C178 1.374 . S
C179 C180 1.383 . S
C180 O174 1.412 . S
C180 C179 1.383 . S
C180 C181 1.394 . S
C181 H171 0.929 . S
C181 C177 1.377 . S
C181 C180 1.394 . S
H182 C189 0.929 . S
H183 C192 0.930 . S
H184 C194 0.929 . S
H185 C186 0.969 . S
C186 H185 0.969 . S
C186 O187 1.550 . S
C186 H188 0.973 . S
O187 C186 1.550 . S
O187 C193 1.412 . S
H188 C186 0.973 . S
C189 H182 0.929 . S
C189 C190 1.400 . S
C189 C191 1.364 . S
C190 C189 1.400 . S
C190 C194 1.377 . S
C191 C189 1.364 . S
C191 C192 1.374 . S
C192 H183 0.930 . S
C192 C191 1.374 . S
C192 C193 1.383 . S
C193 O187 1.412 . S
C193 C192 1.383 . S
C193 C194 1.394 . S
C194 H184 0.929 . S
C194 C190 1.377 . S
C194 C193 1.394 . S
H195 C202 0.929 . S
H196 C205 0.930 . S
H197 C207 0.929 . S
H198 C199 0.969 . S
C199 H198 0.969 . S
C199 O200 1.550 . S
C199 H201 0.973 . S
O200 C199 1.550 . S
O200 C206 1.412 . S
H201 C199 0.973 . S
C202 H195 0.929 . S
C202 C203 1.400 . S
C202 C204 1.364 . S
C203 C202 1.400 . S
C203 C207 1.377 . S
C204 C202 1.364 . S
C204 C205 1.374 . S
C205 H196 0.930 . S
C205 C204 1.374 . S
C205 C206 1.383 . S
C206 O200 1.412 . S
C206 C205 1.383 . S
C206 C207 1.394 . S
C207 H197 0.929 . S
C207 C203 1.377 . S
C207 C206 1.394 . S
H208 C215 0.929 . S
H209 C218 0.930 . S
H210 C220 0.929 . S
H211 C212 0.969 . S
C212 H211 0.969 . S
C212 O213 1.550 . S
C212 H214 0.973 . S
O213 C212 1.550 . S
O213 C219 1.412 . S
H214 C212 0.973 . S
C215 H208 0.929 . S
C215 C216 1.400 . S
C215 C217 1.364 . S
C216 C215 1.400 . S
C216 C220 1.377 . S
C217 C215 1.364 . S
C217 C218 1.374 . S
C218 H209 0.930 . S
C218 C217 1.374 . S
C218 C219 1.383 . S
C219 O213 1.412 . S
C219 C218 1.383 . S
C219 C220 1.394 . S
C220 H210 0.929 . S
C220 C216 1.377 . S
C220 C219 1.394 . S
H221 C228 0.929 . S
H222 C231 0.930 . S
H223 C233 0.929 . S
H224 C225 0.969 . S
C225 H224 0.969 . S
C225 O226 1.550 . S
C225 H227 0.973 . S
O226 C225 1.550 . S
O226 C232 1.412 . S
H227 C225 0.973 . S
C228 H221 0.929 . S
C228 C229 1.400 . S
C228 C230 1.364 . S
C229 C228 1.400 . S
C229 C233 1.377 . S
C230 C228 1.364 . S
C230 C231 1.374 . S
C231 H222 0.930 . S
C231 C230 1.374 . S
C231 C232 1.383 . S
C232 O226 1.412 . S
C232 C231 1.383 . S
C232 C233 1.394 . S
C233 H223 0.929 . S
C233 C229 1.377 . S
C233 C232 1.394 . S
Tb234 O237 2.453 . S
Tb234 O238 2.596 1_545 S
Tb234 O239 2.374 1_545 S
Tb234 O247 2.343 1_554 S
Tb234 O249 2.353 . S
Tb234 O251 2.427 . S
Tb234 O252 2.529 . S
C235 O239 1.251 . S
C235 O241 1.263 1_554 S
Tb236 O238 2.343 1_556 S
Tb236 O241 2.353 . S
Tb236 O244 2.427 1_556 S
Tb236 O245 2.513 1_556 S
Tb236 O246 2.453 . S
Tb236 O247 2.596 1_565 S
Tb236 O248 2.375 1_565 S
O237 Tb234 2.453 . S
O237 C253 1.245 1_545 S
O238 Tb234 2.596 1_565 S
O238 Tb236 2.343 1_554 S
O238 C253 1.259 . S
O239 Tb234 2.374 1_565 S
O239 C235 1.251 . S
C240 O244 1.275 . S
C240 O245 1.246 . S
O241 C235 1.263 1_556 S
O241 Tb236 2.353 . S
C242 O246 1.245 1_545 S
C242 O247 1.259 . S
C243 O248 1.249 1_554 S
C243 O249 1.263 . S
O244 Tb236 2.427 1_554 S
O244 C240 1.275 . S
O245 Tb236 2.513 1_554 S
O245 C240 1.246 . S
O246 Tb236 2.453 . S
O246 C242 1.245 1_565 S
O247 Tb234 2.343 1_556 S
O247 Tb236 2.596 1_545 S
O247 C242 1.259 . S
O248 Tb236 2.375 1_545 S
O248 C243 1.249 1_556 S
O249 Tb234 2.353 . S
O249 C243 1.263 . S
C250 O251 1.275 1_556 S
C250 O252 1.241 1_556 S
O251 Tb234 2.427 . S
O251 C250 1.275 1_554 S
O252 Tb234 2.529 . S
O252 C250 1.241 1_554 S
C253 O237 1.245 1_565 S
C253 O238 1.259 . S
Tb254 O257 2.453 . S
Tb254 O258 2.596 1_655 S
Tb254 O259 2.374 1_655 S
Tb254 O267 2.343 1_554 S
Tb254 O269 2.353 . S
Tb254 O271 2.427 1_554 S
Tb254 O272 2.513 1_554 S
C255 O259 1.251 . S
C255 O261 1.263 . S
Tb256 O258 2.343 1_556 S
Tb256 O261 2.353 1_556 S
Tb256 O264 2.427 1_556 S
Tb256 O265 2.513 1_556 S
Tb256 O266 2.453 . S
Tb256 O267 2.596 1_455 S
Tb256 O268 2.374 1_455 S
O257 Tb254 2.453 . S
O257 C273 1.245 1_655 S
O258 Tb254 2.596 1_455 S
O258 Tb256 2.343 1_554 S
O258 C273 1.259 . S
O259 Tb254 2.374 1_455 S
O259 C255 1.251 . S
C260 O264 1.275 . S
C260 O265 1.246 . S
O261 C255 1.263 . S
O261 Tb256 2.353 1_554 S
C262 O266 1.245 1_655 S
C262 O267 1.259 . S
C263 O268 1.250 1_554 S
C263 O269 1.263 . S
O264 Tb256 2.427 1_554 S
O264 C260 1.275 . S
O265 Tb256 2.513 1_554 S
O265 C260 1.246 . S
O266 Tb256 2.453 . S
O266 C262 1.245 1_455 S
O267 Tb254 2.343 1_556 S
O267 Tb256 2.596 1_655 S
O267 C262 1.259 . S
O268 Tb256 2.374 1_655 S
O268 C263 1.250 1_556 S
O269 Tb254 2.353 . S
O269 C263 1.263 . S
C270 O271 1.275 . S
C270 O272 1.246 . S
O271 Tb254 2.427 1_556 S
O271 C270 1.275 . S
O272 Tb254 2.513 1_556 S
O272 C270 1.246 . S
C273 O257 1.245 1_455 S
C273 O258 1.259 . S
Tb274 O277 2.453 . S
Tb274 O278 2.596 . S
Tb274 O279 2.374 1_556 S
Tb274 O287 2.343 1_556 S
Tb274 O289 2.353 1_556 S
Tb274 O291 2.427 1_556 S
Tb274 O292 2.513 1_556 S
C275 O279 1.251 . S
C275 O281 1.263 . S
Tb276 O278 2.343 1_554 S
Tb276 O281 2.353 . S
Tb276 O284 2.427 . S
Tb276 O285 2.492 1_554 S
Tb276 O286 2.453 . S
Tb276 O287 2.596 . S
Tb276 O288 2.374 . S
O277 Tb274 2.453 . S
O277 C293 1.245 . S
O278 Tb274 2.596 . S
O278 Tb276 2.343 1_556 S
O278 C293 1.259 . S
O279 Tb274 2.374 1_554 S
O279 C275 1.251 . S
C280 O284 1.275 1_556 S
C280 O285 1.251 . S
O281 C275 1.263 . S
O281 Tb276 2.353 . S
C282 O286 1.245 . S
C282 O287 1.259 . S
C283 O288 1.250 . S
C283 O289 1.263 . S
O284 Tb276 2.427 . S
O284 C280 1.275 1_554 S
O285 Tb276 2.492 1_556 S
O285 C280 1.251 . S
O286 Tb276 2.453 . S
O286 C282 1.245 . S
O287 Tb274 2.343 1_554 S
O287 Tb276 2.596 . S
O287 C282 1.259 . S
O288 Tb276 2.374 . S
O288 C283 1.250 . S
O289 Tb274 2.353 1_554 S
O289 C283 1.263 . S
C290 O291 1.275 . S
C290 O292 1.246 . S
O291 Tb274 2.427 1_554 S
O291 C290 1.275 . S
O292 Tb274 2.513 1_554 S
O292 C290 1.246 . S
C293 O277 1.245 . S
C293 O278 1.259 . S
Tb294 O297 2.453 . S
Tb294 O298 2.596 . S
Tb294 O299 2.374 . S
Tb294 O307 2.343 . S
Tb294 O309 2.353 . S
Tb294 O311 2.427 . S
Tb294 O312 2.513 . S
C295 O299 1.251 . S
C295 O301 1.263 . S
Tb296 O298 2.343 . S
Tb296 O301 2.353 . S
Tb296 O304 2.427 . S
Tb296 O305 2.513 . S
Tb296 O306 2.453 . S
Tb296 O307 2.596 . S
Tb296 O308 2.374 . S
O297 Tb294 2.453 . S
O297 C313 1.245 . S
O298 Tb294 2.596 . S
O298 Tb296 2.343 . S
O298 C313 1.259 . S
O299 Tb294 2.374 . S
O299 C295 1.251 . S
C300 O304 1.275 . S
C300 O305 1.246 . S
O301 C295 1.263 . S
O301 Tb296 2.353 . S
C302 O306 1.245 . S
C302 O307 1.259 . S
C303 O308 1.250 . S
C303 O309 1.263 . S
O304 Tb296 2.427 . S
O304 C300 1.275 . S
O305 Tb296 2.513 . S
O305 C300 1.246 . S
O306 Tb296 2.453 . S
O306 C302 1.245 . S
O307 Tb294 2.343 . S
O307 Tb296 2.596 . S
O307 C302 1.259 . S
O308 Tb296 2.374 . S
O308 C303 1.250 . S
O309 Tb294 2.353 . S
O309 C303 1.263 . S
C310 O311 1.275 . S
C310 O312 1.246 . S
O311 Tb294 2.427 . S
O311 C310 1.275 . S
O312 Tb294 2.513 . S
O312 C310 1.246 . S
C313 O297 1.245 . S
C313 O298 1.259 . S
Tb314 O317 2.453 . S
Tb314 O318 2.596 . S
Tb314 O319 2.374 . S
Tb314 O327 2.343 . S
Tb314 O329 2.353 . S
Tb314 O331 2.427 . S
Tb314 O332 2.513 . S
C315 O319 1.251 . S
C315 O321 1.263 . S
Tb316 O318 2.343 . S
Tb316 O321 2.353 . S
Tb316 O324 2.427 . S
Tb316 O325 2.513 . S
Tb316 O326 2.453 . S
Tb316 O327 2.596 . S
Tb316 O328 2.374 . S
O317 Tb314 2.453 . S
O317 C333 1.245 . S
O318 Tb314 2.596 . S
O318 Tb316 2.343 . S
O318 C333 1.259 . S
O319 Tb314 2.374 . S
O319 C315 1.251 . S
C320 O324 1.275 . S
C320 O325 1.246 . S
O321 C315 1.263 . S
O321 Tb316 2.353 . S
C322 O326 1.245 . S
C322 O327 1.259 . S
C323 O328 1.250 . S
C323 O329 1.263 . S
O324 Tb316 2.427 . S
O324 C320 1.275 . S
O325 Tb316 2.513 . S
O325 C320 1.246 . S
O326 Tb316 2.453 . S
O326 C322 1.245 . S
O327 Tb314 2.343 . S
O327 Tb316 2.596 . S
O327 C322 1.259 . S
O328 Tb316 2.374 . S
O328 C323 1.250 . S
O329 Tb314 2.353 . S
O329 C323 1.263 . S
C330 O331 1.275 . S
C330 O332 1.246 . S
O331 Tb314 2.427 . S
O331 C330 1.275 . S
O332 Tb314 2.513 . S
O332 C330 1.246 . S
C333 O317 1.245 . S
C333 O318 1.259 . S
Tb334 O337 2.453 . S
Tb334 O338 2.596 . S
Tb334 O339 2.374 . S
Tb334 O347 2.343 . S
Tb334 O349 2.353 . S
Tb334 O351 2.427 . S
Tb334 O352 2.513 . S
C335 O339 1.251 . S
C335 O341 1.263 . S
Tb336 O338 2.343 . S
Tb336 O341 2.353 . S
Tb336 O344 2.427 . S
Tb336 O345 2.513 . S
Tb336 O346 2.453 . S
Tb336 O347 2.596 . S
Tb336 O348 2.374 . S
O337 Tb334 2.453 . S
O337 C353 1.245 . S
O338 Tb334 2.596 . S
O338 Tb336 2.343 . S
O338 C353 1.259 . S
O339 Tb334 2.374 . S
O339 C335 1.251 . S
C340 O344 1.275 . S
C340 O345 1.246 . S
O341 C335 1.263 . S
O341 Tb336 2.353 . S
C342 O346 1.245 . S
C342 O347 1.259 . S
C343 O348 1.250 . S
C343 O349 1.263 . S
O344 Tb336 2.427 . S
O344 C340 1.275 . S
O345 Tb336 2.513 . S
O345 C340 1.246 . S
O346 Tb336 2.453 . S
O346 C342 1.245 . S
O347 Tb334 2.343 . S
O347 Tb336 2.596 . S
O347 C342 1.259 . S
O348 Tb336 2.374 . S
O348 C343 1.250 . S
O349 Tb334 2.353 . S
O349 C343 1.263 . S
C350 O351 1.275 . S
C350 O352 1.246 . S
O351 Tb334 2.427 . S
O351 C350 1.275 . S
O352 Tb334 2.513 . S
O352 C350 1.246 . S
C353 O337 1.245 . S
C353 O338 1.259 . S
Tb354 O357 2.453 . S
Tb354 O358 2.596 . S
Tb354 O359 2.374 . S
Tb354 O367 2.343 . S
Tb354 O369 2.353 . S
Tb354 O371 2.427 . S
Tb354 O372 2.513 . S
C355 O359 1.251 . S
C355 O361 1.263 . S
Tb356 O358 2.343 . S
Tb356 O361 2.353 . S
Tb356 O364 2.427 . S
Tb356 O365 2.513 . S
Tb356 O366 2.453 . S
Tb356 O367 2.596 . S
Tb356 O368 2.374 . S
O357 Tb354 2.453 . S
O357 C373 1.245 . S
O358 Tb354 2.596 . S
O358 Tb356 2.343 . S
O358 C373 1.259 . S
O359 Tb354 2.374 . S
O359 C355 1.251 . S
C360 O364 1.275 . S
C360 O365 1.246 . S
O361 C355 1.263 . S
O361 Tb356 2.353 . S
C362 O366 1.245 . S
C362 O367 1.259 . S
C363 O368 1.250 . S
C363 O369 1.263 . S
O364 Tb356 2.427 . S
O364 C360 1.275 . S
O365 Tb356 2.513 . S
O365 C360 1.246 . S
O366 Tb356 2.453 . S
O366 C362 1.245 . S
O367 Tb354 2.343 . S
O367 Tb356 2.596 . S
O367 C362 1.259 . S
O368 Tb356 2.374 . S
O368 C363 1.250 . S
O369 Tb354 2.353 . S
O369 C363 1.263 . S
C370 O371 1.275 . S
C370 O372 1.246 . S
O371 Tb354 2.427 . S
O371 C370 1.275 . S
O372 Tb354 2.513 . S
O372 C370 1.246 . S
C373 O357 1.245 . S
C373 O358 1.259 . S
Tb374 O377 2.453 . S
Tb374 O378 2.596 . S
Tb374 O379 2.374 . S
Tb374 O387 2.343 . S
Tb374 O389 2.353 . S
Tb374 O391 2.427 . S
Tb374 O392 2.513 . S
C375 O379 1.251 . S
C375 O381 1.263 . S
Tb376 O378 2.343 . S
Tb376 O381 2.353 . S
Tb376 O384 2.427 . S
Tb376 O385 2.513 . S
Tb376 O386 2.453 . S
Tb376 O387 2.596 . S
Tb376 O388 2.374 . S
O377 Tb374 2.453 . S
O377 C393 1.245 . S
O378 Tb374 2.596 . S
O378 Tb376 2.343 . S
O378 C393 1.259 . S
O379 Tb374 2.374 . S
O379 C375 1.251 . S
C380 O384 1.275 . S
C380 O385 1.246 . S
O381 C375 1.263 . S
O381 Tb376 2.353 . S
C382 O386 1.245 . S
C382 O387 1.259 . S
C383 O388 1.250 . S
C383 O389 1.263 . S
O384 Tb376 2.427 . S
O384 C380 1.275 . S
O385 Tb376 2.513 . S
O385 C380 1.246 . S
O386 Tb376 2.453 . S
O386 C382 1.245 . S
O387 Tb374 2.343 . S
O387 Tb376 2.596 . S
O387 C382 1.259 . S
O388 Tb376 2.374 . S
O388 C383 1.250 . S
O389 Tb374 2.353 . S
O389 C383 1.263 . S
C390 O391 1.275 . S
C390 O392 1.246 . S
O391 Tb374 2.427 . S
O391 C390 1.275 . S
O392 Tb374 2.513 . S
O392 C390 1.246 . S
C393 O377 1.245 . S
C393 O378 1.259 . S
Tb394 O397 2.453 . S
Tb394 O398 2.596 . S
Tb394 O399 2.374 . S
Tb394 O407 2.343 . S
Tb394 O409 2.353 . S
Tb394 O411 2.427 . S
Tb394 O412 2.513 . S
C395 O399 1.251 . S
C395 O401 1.263 . S
Tb396 O398 2.343 . S
Tb396 O401 2.353 . S
Tb396 O404 2.427 . S
Tb396 O405 2.513 . S
Tb396 O406 2.453 . S
Tb396 O407 2.596 . S
Tb396 O408 2.374 . S
O397 Tb394 2.453 . S
O397 C413 1.245 . S
O398 Tb394 2.596 . S
O398 Tb396 2.343 . S
O398 C413 1.259 . S
O399 Tb394 2.374 . S
O399 C395 1.251 . S
C400 O404 1.275 . S
C400 O405 1.246 . S
O401 C395 1.263 . S
O401 Tb396 2.353 . S
C402 O406 1.245 . S
C402 O407 1.259 . S
C403 O408 1.250 . S
C403 O409 1.263 . S
O404 Tb396 2.427 . S
O404 C400 1.275 . S
O405 Tb396 2.513 . S
O405 C400 1.246 . S
O406 Tb396 2.453 . S
O406 C402 1.245 . S
O407 Tb394 2.343 . S
O407 Tb396 2.596 . S
O407 C402 1.259 . S
O408 Tb396 2.374 . S
O408 C403 1.250 . S
O409 Tb394 2.353 . S
O409 C403 1.263 . S
C410 O411 1.275 . S
C410 O412 1.246 . S
O411 Tb394 2.427 . S
O411 C410 1.275 . S
O412 Tb394 2.513 . S
O412 C410 1.246 . S
C413 O397 1.245 . S
C413 O398 1.259 . S
H414 C420 0.930 . S
H415 C424 0.930 1_556 S
H416 C429 0.929 . S
H417 C427 0.929 . S
H418 C422 0.929 . S
H419 C428 0.929 . S
C420 H414 0.930 . S
C420 C421 1.367 . S
C420 C428 1.378 . S
C421 C420 1.367 . S
C421 C429 1.433 . S
C422 H418 0.929 . S
C422 C424 1.378 . S
C422 C426 1.350 . S
C423 C426 1.463 . S
C423 C428 1.350 . S
C423 N431 1.427 . S
C424 H415 0.930 1_554 S
C424 C422 1.378 . S
C424 C425 1.367 . S
C425 C424 1.367 . S
C425 C427 1.433 . S
C426 C422 1.350 . S
C426 C423 1.463 . S
C426 N430 1.427 . S
C427 H417 0.929 . S
C427 C425 1.433 . S
C427 N430 1.384 . S
C428 H419 0.929 . S
C428 C420 1.378 . S
C428 C423 1.350 . S
C429 H416 0.929 . S
C429 C421 1.433 . S
C429 N431 1.384 . S
N430 C426 1.427 . S
N430 C427 1.384 . S
N431 C423 1.427 . S
N431 C429 1.384 . S
H432 C438 0.930 . S
H433 C442 0.930 . S
H434 C447 0.929 . S
H435 C445 0.929 . S
H436 C440 0.929 . S
H437 C446 0.929 . S
C438 H432 0.930 . S
C438 C439 1.367 . S
C438 C446 1.378 . S
C439 C438 1.367 . S
C439 C447 1.433 . S
C440 H436 0.929 . S
C440 C442 1.378 . S
C440 C444 1.350 . S
C441 C444 1.463 . S
C441 C446 1.350 . S
C441 N449 1.427 . S
C442 H433 0.930 . S
C442 C440 1.378 . S
C442 C443 1.367 . S
C443 C442 1.367 . S
C443 C445 1.433 . S
C444 C440 1.350 . S
C444 C441 1.463 . S
C444 N448 1.427 . S
C445 H435 0.929 . S
C445 C443 1.433 . S
C445 N448 1.384 . S
C446 H437 0.929 . S
C446 C438 1.378 . S
C446 C441 1.350 . S
C447 H434 0.929 . S
C447 C439 1.433 . S
C447 N449 1.384 . S
N448 C444 1.427 . S
N448 C445 1.384 . S
N449 C441 1.427 . S
N449 C447 1.384 . S
H450 C456 0.930 . S
H451 C460 0.930 . S
H452 C465 0.929 . S
H453 C463 0.929 . S
H454 C458 0.929 . S
H455 C464 0.929 . S
C456 H450 0.930 . S
C456 C457 1.367 . S
C456 C464 1.378 . S
C457 C456 1.367 . S
C457 C465 1.433 . S
C458 H454 0.929 . S
C458 C460 1.378 . S
C458 C462 1.350 . S
C459 C462 1.463 . S
C459 C464 1.350 . S
C459 N467 1.427 . S
C460 H451 0.930 . S
C460 C458 1.378 . S
C460 C461 1.367 . S
C461 C460 1.367 . S
C461 C463 1.433 . S
C462 C458 1.350 . S
C462 C459 1.463 . S
C462 N466 1.427 . S
C463 H453 0.929 . S
C463 C461 1.433 . S
C463 N466 1.384 . S
C464 H455 0.929 . S
C464 C456 1.378 . S
C464 C459 1.350 . S
C465 H452 0.929 . S
C465 C457 1.433 . S
C465 N467 1.384 . S
N466 C462 1.427 . S
N466 C463 1.384 . S
N467 C459 1.427 . S
N467 C465 1.384 . S
H468 C474 0.930 . S
H469 C478 0.930 . S
H470 C483 0.929 . S
H471 C481 0.929 1_554 S
H472 C476 0.929 . S
H473 C482 0.929 . S
C474 H468 0.930 . S
C474 C475 1.367 . S
C474 C482 1.378 . S
C475 C474 1.367 . S
C475 C483 1.433 . S
C476 H472 0.929 . S
C476 C478 1.378 . S
C476 C480 1.350 . S
C477 C480 1.463 . S
C477 C482 1.350 . S
C477 N485 1.427 . S
C478 H469 0.930 . S
C478 C476 1.378 . S
C478 C479 1.367 . S
C479 C478 1.367 . S
C479 C481 1.433 . S
C480 C476 1.350 . S
C480 C477 1.463 . S
C480 N484 1.427 . S
C481 H471 0.929 1_556 S
C481 C479 1.433 . S
C481 N484 1.384 . S
C482 H473 0.929 . S
C482 C474 1.378 . S
C482 C477 1.350 . S
C483 H470 0.929 . S
C483 C475 1.433 . S
C483 N485 1.384 . S
N484 C480 1.427 . S
N484 C481 1.384 . S
N485 C477 1.427 . S
N485 C483 1.384 . S
H486 C492 0.930 . S
H487 C496 0.930 . S
H488 C501 0.929 . S
H489 C499 0.929 . S
H490 C494 0.929 . S
H491 C500 0.929 . S
C492 H486 0.930 . S
C492 C493 1.367 . S
C492 C500 1.378 . S
C493 C492 1.367 . S
C493 C501 1.433 . S
C494 H490 0.929 . S
C494 C496 1.378 . S
C494 C498 1.350 . S
C495 C498 1.463 . S
C495 C500 1.350 . S
C495 N503 1.427 . S
C496 H487 0.930 . S
C496 C494 1.378 . S
C496 C497 1.367 . S
C497 C496 1.367 . S
C497 C499 1.433 . S
C498 C494 1.350 . S
C498 C495 1.463 . S
C498 N502 1.427 . S
C499 H489 0.929 . S
C499 C497 1.433 . S
C499 N502 1.384 . S
C500 H491 0.929 . S
C500 C492 1.378 . S
C500 C495 1.350 . S
C501 H488 0.929 . S
C501 C493 1.433 . S
C501 N503 1.384 . S
N502 C498 1.427 . S
N502 C499 1.384 . S
N503 C495 1.427 . S
N503 C501 1.384 . S
H504 C510 0.930 1_554 S
H505 C514 0.930 . S
H506 C519 0.929 . S
H507 C517 0.929 . S
H508 C512 0.929 . S
H509 C518 0.950 . S
C510 H504 0.930 1_556 S
C510 C511 1.367 . S
C510 C518 1.372 1_556 S
C511 C510 1.367 . S
C511 C519 1.433 . S
C512 H508 0.929 . S
C512 C514 1.378 . S
C512 C516 1.350 . S
C513 C516 1.463 . S
C513 C518 1.334 1_556 S
C513 N521 1.427 . S
C514 H505 0.930 . S
C514 C512 1.378 . S
C514 C515 1.367 . S
C515 C514 1.367 . S
C515 C517 1.433 1_556 S
C516 C512 1.350 . S
C516 C513 1.463 . S
C516 N520 1.427 1_556 S
C517 H507 0.929 . S
C517 C515 1.433 1_554 S
C517 N520 1.384 . S
C518 H509 0.950 . S
C518 C510 1.372 1_554 S
C518 C513 1.334 1_554 S
C519 H506 0.929 . S
C519 C511 1.433 . S
C519 N521 1.384 . S
N520 C516 1.427 1_554 S
N520 C517 1.384 . S
N521 C513 1.427 . S
N521 C519 1.384 . S
H522 C528 0.930 . S
H523 C532 0.930 . S
H524 C537 0.929 1_554 S
H525 C535 0.929 . S
H526 C530 0.929 . S
H527 C536 0.929 . S
C528 H522 0.930 . S
C528 C529 1.367 . S
C528 C536 1.378 . S
C529 C528 1.367 . S
C529 C537 1.433 . S
C530 H526 0.929 . S
C530 C532 1.378 . S
C530 C534 1.350 1_554 S
C531 C534 1.463 . S
C531 C536 1.350 . S
C531 N539 1.427 . S
C532 H523 0.930 . S
C532 C530 1.378 . S
C532 C533 1.367 1_554 S
C533 C532 1.367 1_556 S
C533 C535 1.433 . S
C534 C530 1.350 1_556 S
C534 C531 1.463 . S
C534 N538 1.427 . S
C535 H525 0.929 . S
C535 C533 1.433 . S
C535 N538 1.384 . S
C536 H527 0.929 . S
C536 C528 1.378 . S
C536 C531 1.350 . S
C537 H524 0.929 1_556 S
C537 C529 1.433 . S
C537 N539 1.384 . S
N538 C534 1.427 . S
N538 C535 1.384 . S
N539 C531 1.427 . S
N539 C537 1.384 . S
H540 C546 0.930 . S
H541 C550 0.930 . S
H542 C555 0.929 . S
H543 C553 0.929 . S
H544 C548 0.929 . S
H545 C554 0.929 . S
C546 H540 0.930 . S
C546 C547 1.367 . S
C546 C554 1.378 . S
C547 C546 1.367 . S
C547 C555 1.433 . S
C548 H544 0.929 . S
C548 C550 1.378 . S
C548 C552 1.350 . S
C549 C552 1.463 . S
C549 C554 1.350 . S
C549 N557 1.427 . S
C550 H541 0.930 . S
C550 C548 1.378 . S
C550 C551 1.367 . S
C551 C550 1.367 . S
C551 C553 1.433 . S
C552 C548 1.350 . S
C552 C549 1.463 . S
C552 N556 1.427 . S
C553 H543 0.929 . S
C553 C551 1.433 . S
C553 N556 1.384 . S
C554 H545 0.929 . S
C554 C546 1.378 . S
C554 C549 1.350 . S
C555 H542 0.929 . S
C555 C547 1.433 . S
C555 N557 1.384 . S
N556 C552 1.427 . S
N556 C553 1.384 . S
N557 C549 1.427 . S
N557 C555 1.384 . S
H558 C564 0.930 . S
H559 C568 0.930 . S
H560 C573 0.929 . S
H561 C571 0.929 . S
H562 C566 0.929 . S
H563 C572 0.929 . S
C564 H558 0.930 . S
C564 C565 1.367 . S
C564 C572 1.378 . S
C565 C564 1.367 . S
C565 C573 1.433 1_556 S
C566 H562 0.929 . S
C566 C568 1.378 . S
C566 C570 1.350 1_554 S
C567 C570 1.463 . S
C567 C572 1.350 . S
C567 N575 1.427 1_556 S
C568 H559 0.930 . S
C568 C566 1.378 . S
C568 C569 1.394 . S
C569 C568 1.394 . S
C569 C571 1.405 1_554 S
C570 C566 1.350 1_556 S
C570 C567 1.463 . S
C570 N574 1.427 . S
C571 H561 0.929 . S
C571 C569 1.405 1_556 S
C571 N574 1.384 . S
C572 H563 0.929 . S
C572 C564 1.378 . S
C572 C567 1.350 . S
C573 H560 0.929 . S
C573 C565 1.433 1_554 S
C573 N575 1.384 . S
N574 C570 1.427 . S
N574 C571 1.384 . S
N575 C567 1.427 1_554 S
N575 C573 1.384 . S
H576 C582 0.930 . S
H577 C586 0.930 1_556 S
H578 C591 0.929 . S
H579 C589 0.929 . S
H580 C584 0.918 1_556 S
H581 C590 0.929 . S
C582 H576 0.930 . S
C582 C583 1.367 . S
C582 C590 1.378 . S
C583 C582 1.367 . S
C583 C591 1.433 . S
C584 H580 0.918 1_554 S
C584 C586 1.378 . S
C584 C588 1.350 . S
C585 C588 1.463 . S
C585 C590 1.350 . S
C585 N593 1.427 . S
C586 H577 0.930 1_554 S
C586 C584 1.378 . S
C586 C587 1.367 . S
C587 C586 1.367 . S
C587 C589 1.433 . S
C588 C584 1.350 . S
C588 C585 1.463 . S
C588 N592 1.427 . S
C589 H579 0.929 . S
C589 C587 1.433 . S
C589 N592 1.384 . S
C590 H581 0.929 . S
C590 C582 1.378 . S
C590 C585 1.350 . S
C591 H578 0.929 . S
C591 C583 1.433 . S
C591 N593 1.384 . S
N592 C588 1.427 . S
N592 C589 1.384 . S
N593 C585 1.427 . S
N593 C591 1.384 . S
H594 C600 0.930 . S
H595 C604 0.930 . S
H596 C609 0.929 . S
H597 C607 0.929 . S
H598 C602 0.929 . S
H599 C608 0.929 . S
C600 H594 0.930 . S
C600 C601 1.367 . S
C600 C608 1.378 . S
C601 C600 1.367 . S
C601 C609 1.433 . S
C602 H598 0.929 . S
C602 C604 1.378 . S
C602 C606 1.350 . S
C603 C606 1.463 . S
C603 C608 1.350 . S
C603 N611 1.427 . S
C604 H595 0.930 . S
C604 C602 1.378 . S
C604 C605 1.367 . S
C605 C604 1.367 . S
C605 C607 1.433 . S
C606 C602 1.350 . S
C606 C603 1.463 . S
C606 N610 1.427 . S
C607 H597 0.929 . S
C607 C605 1.433 . S
C607 N610 1.384 . S
C608 H599 0.929 . S
C608 C600 1.378 . S
C608 C603 1.350 . S
C609 H596 0.929 . S
C609 C601 1.433 . S
C609 N611 1.384 . S
N610 C606 1.427 . S
N610 C607 1.384 . S
N611 C603 1.427 . S
N611 C609 1.384 . S
H612 C618 0.930 . S
H613 C622 0.930 . S
H614 C627 0.929 . S
H615 C625 0.929 1_556 S
H616 C620 0.929 . S
H617 C626 0.929 . S
C618 H612 0.930 . S
C618 C619 1.367 . S
C618 C626 1.378 . S
C619 C618 1.367 . S
C619 C627 1.433 . S
C620 H616 0.929 . S
C620 C622 1.378 . S
C620 C624 1.350 . S
C621 C624 1.463 . S
C621 C626 1.350 . S
C621 N629 1.427 . S
C622 H613 0.930 . S
C622 C620 1.378 . S
C622 C623 1.367 . S
C623 C622 1.367 . S
C623 C625 1.433 . S
C624 C620 1.350 . S
C624 C621 1.463 . S
C624 N628 1.427 . S
C625 H615 0.929 1_554 S
C625 C623 1.433 . S
C625 N628 1.384 . S
C626 H617 0.929 . S
C626 C618 1.378 . S
C626 C621 1.350 . S
C627 H614 0.929 . S
C627 C619 1.433 . S
C627 N629 1.384 . S
N628 C624 1.427 . S
N628 C625 1.384 . S
N629 C621 1.427 . S
N629 C627 1.384 . S
H630 C636 0.930 . S
H631 C640 0.930 . S
H632 C645 0.929 . S
H633 C643 0.929 . S
H634 C638 0.929 1_655 S
H635 C644 0.929 . S
C636 H630 0.930 . S
C636 C637 1.367 . S
C636 C644 1.378 . S
C637 C636 1.367 . S
C637 C645 1.433 . S
C638 H634 0.929 1_455 S
C638 C640 1.378 . S
C638 C642 1.350 . S
C639 C642 1.463 1_655 S
C639 C644 1.350 . S
C639 N647 1.427 . S
C640 H631 0.930 . S
C640 C638 1.378 . S
C640 C641 1.367 . S
C641 C640 1.367 . S
C641 C643 1.433 . S
C642 C638 1.350 . S
C642 C639 1.463 1_455 S
C642 N646 1.427 . S
C643 H633 0.929 . S
C643 C641 1.433 . S
C643 N646 1.384 . S
C644 H635 0.929 . S
C644 C636 1.378 . S
C644 C639 1.350 . S
C645 H632 0.929 . S
C645 C637 1.433 . S
C645 N647 1.384 . S
N646 C642 1.427 . S
N646 C643 1.384 . S
N647 C639 1.427 . S
N647 C645 1.384 . S
H648 C654 0.930 . S
H649 C658 0.930 . S
H650 C663 0.929 . S
H651 C661 0.929 . S
H652 C656 0.929 . S
H653 C662 0.929 . S
C654 H648 0.930 . S
C654 C655 1.367 . S
C654 C662 1.378 . S
C655 C654 1.367 . S
C655 C663 1.433 . S
C656 H652 0.929 . S
C656 C658 1.378 . S
C656 C660 1.350 . S
C657 C660 1.463 . S
C657 C662 1.350 . S
C657 N665 1.427 . S
C658 H649 0.930 . S
C658 C656 1.378 . S
C658 C659 1.367 . S
C659 C658 1.367 . S
C659 C661 1.433 . S
C660 C656 1.350 . S
C660 C657 1.463 . S
C660 N664 1.427 . S
C661 H651 0.929 . S
C661 C659 1.433 . S
C661 N664 1.384 . S
C662 H653 0.929 . S
C662 C654 1.378 . S
C662 C657 1.350 . S
C663 H650 0.929 . S
C663 C655 1.433 . S
C663 N665 1.384 . S
N664 C660 1.427 . S
N664 C661 1.384 . S
N665 C657 1.427 . S
N665 C663 1.384 . S
H666 C672 0.930 . S
H667 C676 0.930 . S
H668 C681 0.929 . S
H669 C679 0.929 . S
H670 C674 0.929 . S
H671 C680 0.929 . S
C672 H666 0.930 . S
C672 C673 1.367 . S
C672 C680 1.378 . S
C673 C672 1.367 . S
C673 C681 1.433 . S
C674 H670 0.929 . S
C674 C676 1.378 . S
C674 C678 1.350 . S
C675 C678 1.463 1_545 S
C675 C680 1.350 . S
C675 N683 1.427 . S
C676 H667 0.930 . S
C676 C674 1.378 . S
C676 C677 1.367 . S
C677 C676 1.367 . S
C677 C679 1.433 . S
C678 C674 1.350 . S
C678 C675 1.463 1_565 S
C678 N682 1.427 . S
C679 H669 0.929 . S
C679 C677 1.433 . S
C679 N682 1.384 . S
C680 H671 0.929 . S
C680 C672 1.378 . S
C680 C675 1.350 . S
C681 H668 0.929 . S
C681 C673 1.433 . S
C681 N683 1.384 . S
N682 C678 1.427 . S
N682 C679 1.384 . S
N683 C675 1.427 . S
N683 C681 1.384 . S
H684 C690 0.930 . S
H685 C694 0.930 . S
H686 C699 0.929 . S
H687 C697 0.929 . S
H688 C692 0.929 . S
H689 C698 0.929 . S
C690 H684 0.930 . S
C690 C691 1.367 . S
C690 C698 1.378 . S
C691 C690 1.367 . S
C691 C699 1.433 . S
C692 H688 0.929 . S
C692 C694 1.378 . S
C692 C696 1.350 . S
C693 C696 1.463 . S
C693 C698 1.350 . S
C693 N701 1.427 . S
C694 H685 0.930 . S
C694 C692 1.378 . S
C694 C695 1.367 . S
C695 C694 1.367 . S
C695 C697 1.433 . S
C696 C692 1.350 . S
C696 C693 1.463 . S
C696 N700 1.427 . S
C697 H687 0.929 . S
C697 C695 1.433 . S
C697 N700 1.384 . S
C698 H689 0.929 . S
C698 C690 1.378 . S
C698 C693 1.350 . S
C699 H686 0.929 . S
C699 C691 1.433 . S
C699 N701 1.384 . S
N700 C696 1.427 . S
N700 C697 1.384 . S
N701 C693 1.427 . S
N701 C699 1.384 . S
H702 C708 0.930 . S
H703 C712 0.930 . S
H704 C717 0.929 . S
H705 C715 0.929 . S
H706 C710 0.929 . S
H707 C716 0.929 . S
C708 H702 0.930 . S
C708 C709 1.367 . S
C708 C716 1.378 . S
C709 C708 1.367 . S
C709 C717 1.433 . S
C710 H706 0.929 . S
C710 C712 1.378 . S
C710 C714 1.350 . S
C711 C714 1.463 . S
C711 C716 1.350 . S
C711 N719 1.427 . S
C712 H703 0.930 . S
C712 C710 1.378 . S
C712 C713 1.367 . S
C713 C712 1.367 . S
C713 C715 1.433 . S
C714 C710 1.350 . S
C714 C711 1.463 . S
C714 N718 1.427 . S
C715 H705 0.929 . S
C715 C713 1.433 . S
C715 N718 1.384 . S
C716 H707 0.929 . S
C716 C708 1.378 . S
C716 C711 1.350 . S
C717 H704 0.929 . S
C717 C709 1.433 . S
C717 N719 1.384 . S
N718 C714 1.427 . S
N718 C715 1.384 . S
N719 C711 1.427 . S
N719 C717 1.384 . S
H720 C726 0.930 . S
H721 C730 0.930 . S
H722 C735 0.929 . S
H723 C733 0.929 . S
H724 C728 0.929 . S
H725 C734 0.929 . S
C726 H720 0.930 . S
C726 C727 1.367 . S
C726 C734 1.378 . S
C727 C726 1.367 . S
C727 C735 1.433 . S
C728 H724 0.929 . S
C728 C730 1.378 . S
C728 C732 1.350 . S
C729 C732 1.463 . S
C729 C734 1.350 . S
C729 N737 1.427 . S
C730 H721 0.930 . S
C730 C728 1.378 . S
C730 C731 1.367 . S
C731 C730 1.367 . S
C731 C733 1.433 . S
C732 C728 1.350 . S
C732 C729 1.463 . S
C732 N736 1.427 . S
C733 H723 0.929 . S
C733 C731 1.433 . S
C733 N736 1.384 . S
C734 H725 0.929 . S
C734 C726 1.378 . S
C734 C729 1.350 . S
C735 H722 0.929 . S
C735 C727 1.433 . S
C735 N737 1.384 . S
N736 C732 1.427 . S
N736 C733 1.384 . S
N737 C729 1.427 . S
N737 C735 1.384 . S
H738 C744 0.930 . S
H739 C748 0.930 . S
H740 C753 0.929 . S
H741 C751 0.929 . S
H742 C746 0.929 . S
H743 C752 0.929 . S
C744 H738 0.930 . S
C744 C745 1.367 . S
C744 C752 1.378 . S
C745 C744 1.367 . S
C745 C753 1.433 . S
C746 H742 0.929 . S
C746 C748 1.378 . S
C746 C750 1.350 . S
C747 C750 1.463 . S
C747 C752 1.350 . S
C747 N755 1.427 . S
C748 H739 0.930 . S
C748 C746 1.378 . S
C748 C749 1.367 . S
C749 C748 1.367 . S
C749 C751 1.433 . S
C750 C746 1.350 . S
C750 C747 1.463 . S
C750 N754 1.427 . S
C751 H741 0.929 . S
C751 C749 1.433 . S
C751 N754 1.384 . S
C752 H743 0.929 . S
C752 C744 1.378 . S
C752 C747 1.350 . S
C753 H740 0.929 . S
C753 C745 1.433 . S
C753 N755 1.384 . S
N754 C750 1.427 . S
N754 C751 1.384 . S
N755 C747 1.427 . S
N755 C753 1.384 . S
H756 C762 0.930 . S
H757 C766 0.930 . S
H758 C771 0.929 . S
H759 C769 0.929 . S
H760 C764 0.929 . S
H761 C770 0.929 . S
C762 H756 0.930 . S
C762 C763 1.367 . S
C762 C770 1.378 . S
C763 C762 1.367 . S
C763 C771 1.433 . S
C764 H760 0.929 . S
C764 C766 1.378 . S
C764 C768 1.350 . S
C765 C768 1.463 . S
C765 C770 1.350 . S
C765 N773 1.427 . S
C766 H757 0.930 . S
C766 C764 1.378 . S
C766 C767 1.367 . S
C767 C766 1.367 . S
C767 C769 1.433 . S
C768 C764 1.350 . S
C768 C765 1.463 . S
C768 N772 1.427 . S
C769 H759 0.929 . S
C769 C767 1.433 . S
C769 N772 1.384 . S
C770 H761 0.929 . S
C770 C762 1.378 . S
C770 C765 1.350 . S
C771 H758 0.929 . S
C771 C763 1.433 . S
C771 N773 1.384 . S
N772 C768 1.427 . S
N772 C769 1.384 . S
N773 C765 1.427 . S
N773 C771 1.384 . S
H774 C780 0.930 . S
H775 C784 0.930 . S
H776 C789 0.929 . S
H777 C787 0.929 . S
H778 C782 0.929 . S
H779 C788 0.929 . S
C780 H774 0.930 . S
C780 C781 1.367 . S
C780 C788 1.378 . S
C781 C780 1.367 . S
C781 C789 1.433 . S
C782 H778 0.929 . S
C782 C784 1.378 . S
C782 C786 1.350 . S
C783 C786 1.463 . S
C783 C788 1.350 . S
C783 N791 1.427 . S
C784 H775 0.930 . S
C784 C782 1.378 . S
C784 C785 1.367 . S
C785 C784 1.367 . S
C785 C787 1.433 . S
C786 C782 1.350 . S
C786 C783 1.463 . S
C786 N790 1.427 . S
C787 H777 0.929 . S
C787 C785 1.433 . S
C787 N790 1.384 . S
C788 H779 0.929 . S
C788 C780 1.378 . S
C788 C783 1.350 . S
C789 H776 0.929 . S
C789 C781 1.433 . S
C789 N791 1.384 . S
N790 C786 1.427 . S
N790 C787 1.384 . S
N791 C783 1.427 . S
N791 C789 1.384 . S
H792 C798 0.930 . S
H793 C802 0.930 . S
H794 C807 0.929 . S
H795 C805 0.929 . S
H796 C800 0.929 . S
H797 C806 0.929 . S
C798 H792 0.930 . S
C798 C799 1.367 . S
C798 C806 1.378 1_545 S
C799 C798 1.367 . S
C799 C807 1.433 . S
C800 H796 0.929 . S
C800 C802 1.378 . S
C800 C804 1.350 . S
C801 C804 1.463 . S
C801 C806 1.350 . S
C801 N809 1.427 . S
C802 H793 0.930 . S
C802 C800 1.378 . S
C802 C803 1.367 . S
C803 C802 1.367 . S
C803 C805 1.433 . S
C804 C800 1.350 . S
C804 C801 1.463 . S
C804 N808 1.427 . S
C805 H795 0.929 . S
C805 C803 1.433 . S
C805 N808 1.384 . S
C806 H797 0.929 . S
C806 C798 1.378 1_565 S
C806 C801 1.350 . S
C807 H794 0.929 . S
C807 C799 1.433 . S
C807 N809 1.384 1_545 S
N808 C804 1.427 . S
N808 C805 1.384 . S
N809 C801 1.427 . S
N809 C807 1.384 1_565 S
H810 C816 0.930 . S
H811 C820 0.930 . S
H812 C825 0.929 . S
H813 C823 0.929 . S
H814 C818 0.929 . S
H815 C824 0.929 . S
C816 H810 0.930 . S
C816 C817 1.367 . S
C816 C824 1.378 1_655 S
C817 C816 1.367 . S
C817 C825 1.433 . S
C818 H814 0.929 . S
C818 C820 1.378 . S
C818 C822 1.350 . S
C819 C822 1.463 . S
C819 C824 1.350 . S
C819 N827 1.441 . S
C820 H811 0.930 . S
C820 C818 1.378 . S
C820 C821 1.367 . S
C821 C820 1.367 . S
C821 C823 1.433 . S
C822 C818 1.350 . S
C822 C819 1.463 . S
C822 N826 1.427 . S
C823 H813 0.929 . S
C823 C821 1.433 . S
C823 N826 1.384 . S
C824 H815 0.929 . S
C824 C816 1.378 1_455 S
C824 C819 1.350 . S
C825 H812 0.929 . S
C825 C817 1.433 . S
C825 N827 1.346 1_655 S
N826 C822 1.427 . S
N826 C823 1.384 . S
N827 C819 1.441 . S
N827 C825 1.346 1_455 S
H828 C834 0.930 . S
H829 C838 0.930 . S
H830 C843 0.929 . S
H831 C841 0.929 . S
H832 C836 0.929 . S
H833 C842 0.929 . S
C834 H828 0.930 . S
C834 C835 1.367 . S
C834 C842 1.378 . S
C835 C834 1.367 . S
C835 C843 1.433 . S
C836 H832 0.929 . S
C836 C838 1.378 . S
C836 C840 1.350 . S
C837 C840 1.463 . S
C837 C842 1.350 . S
C837 N845 1.427 . S
C838 H829 0.930 . S
C838 C836 1.378 . S
C838 C839 1.367 . S
C839 C838 1.367 . S
C839 C841 1.433 . S
C840 C836 1.350 . S
C840 C837 1.463 . S
C840 N844 1.427 . S
C841 H831 0.929 . S
C841 C839 1.433 . S
C841 N844 1.384 . S
C842 H833 0.929 . S
C842 C834 1.378 . S
C842 C837 1.350 . S
C843 H830 0.929 . S
C843 C835 1.433 . S
C843 N845 1.384 . S
N844 C840 1.427 . S
N844 C841 1.384 . S
N845 C837 1.427 . S
N845 C843 1.384 . S
H846 C852 0.930 . S
H847 C856 0.930 . S
H848 C861 0.929 . S
H849 C859 0.929 . S
H850 C854 0.929 . S
H851 C860 0.929 . S
C852 H846 0.930 . S
C852 C853 1.367 . S
C852 C860 1.378 . S
C853 C852 1.367 . S
C853 C861 1.433 . S
C854 H850 0.929 . S
C854 C856 1.378 . S
C854 C858 1.350 . S
C855 C858 1.463 . S
C855 C860 1.350 . S
C855 N863 1.427 . S
C856 H847 0.930 . S
C856 C854 1.378 . S
C856 C857 1.367 . S
C857 C856 1.367 . S
C857 C859 1.433 . S
C858 C854 1.350 . S
C858 C855 1.463 . S
C858 N862 1.427 . S
C859 H849 0.929 . S
C859 C857 1.433 . S
C859 N862 1.384 . S
C860 H851 0.929 . S
C860 C852 1.378 . S
C860 C855 1.350 . S
C861 H848 0.929 . S
C861 C853 1.433 . S
C861 N863 1.384 . S
N862 C858 1.427 . S
N862 C859 1.384 . S
N863 C855 1.427 . S
N863 C861 1.384 . S
H864 C870 0.930 . S
H865 C874 0.930 . S
H866 C879 0.929 . S
H867 C877 0.929 . S
H868 C872 0.929 . S
H869 C878 0.929 . S
C870 H864 0.930 . S
C870 C871 1.367 . S
C870 C878 1.378 . S
C871 C870 1.367 . S
C871 C879 1.433 . S
C872 H868 0.929 . S
C872 C874 1.378 . S
C872 C876 1.350 . S
C873 C876 1.463 . S
C873 C878 1.350 . S
C873 N881 1.427 . S
C874 H865 0.930 . S
C874 C872 1.378 . S
C874 C875 1.367 . S
C875 C874 1.367 . S
C875 C877 1.433 . S
C876 C872 1.350 . S
C876 C873 1.463 . S
C876 N880 1.427 . S
C877 H867 0.929 . S
C877 C875 1.433 . S
C877 N880 1.384 . S
C878 H869 0.929 . S
C878 C870 1.378 . S
C878 C873 1.350 . S
C879 H866 0.929 . S
C879 C871 1.433 . S
C879 N881 1.384 . S
N880 C876 1.427 . S
N880 C877 1.384 . S
N881 C873 1.427 . S
N881 C879 1.384 . S
H882 C888 0.930 . S
H883 C892 0.930 . S
H884 C897 0.929 . S
H885 C895 0.929 . S
H886 C890 0.929 . S
H887 C896 0.929 . S
C888 H882 0.930 . S
C888 C889 1.367 . S
C888 C896 1.378 . S
C889 C888 1.367 . S
C889 C897 1.433 . S
C890 H886 0.929 . S
C890 C892 1.378 . S
C890 C894 1.350 . S
C891 C894 1.463 . S
C891 C896 1.350 . S
C891 N899 1.427 . S
C892 H883 0.930 . S
C892 C890 1.378 . S
C892 C893 1.367 . S
C893 C892 1.367 . S
C893 C895 1.433 . S
C894 C890 1.350 . S
C894 C891 1.463 . S
C894 N898 1.427 . S
C895 H885 0.929 . S
C895 C893 1.433 . S
C895 N898 1.384 . S
C896 H887 0.929 . S
C896 C888 1.378 . S
C896 C891 1.350 . S
C897 H884 0.929 . S
C897 C889 1.433 . S
C897 N899 1.384 . S
N898 C894 1.427 . S
N898 C895 1.384 . S
N899 C891 1.427 . S
N899 C897 1.384 . S
H900 C906 0.930 . S
H901 C910 0.930 . S
H902 C915 0.929 . S
H903 C913 0.929 . S
H904 C908 0.929 . S
H905 C914 0.929 . S
C906 H900 0.930 . S
C906 C907 1.367 . S
C906 C914 1.378 . S
C907 C906 1.367 . S
C907 C915 1.433 . S
C908 H904 0.929 . S
C908 C910 1.378 . S
C908 C912 1.350 . S
C909 C912 1.463 1_565 S
C909 C914 1.350 . S
C909 N917 1.427 . S
C910 H901 0.930 . S
C910 C908 1.378 . S
C910 C911 1.367 . S
C911 C910 1.367 . S
C911 C913 1.433 . S
C912 C908 1.350 . S
C912 C909 1.463 1_545 S
C912 N916 1.427 . S
C913 H903 0.929 . S
C913 C911 1.433 . S
C913 N916 1.384 . S
C914 H905 0.929 . S
C914 C906 1.378 . S
C914 C909 1.350 . S
C915 H902 0.929 . S
C915 C907 1.433 . S
C915 N917 1.384 . S
N916 C912 1.427 . S
N916 C913 1.384 . S
N917 C909 1.427 . S
N917 C915 1.384 . S
H918 C924 0.930 . S
H919 C928 0.930 . S
H920 C933 0.929 . S
H921 C931 0.929 . S
H922 C926 0.929 1_455 S
H923 C932 0.929 . S
C924 H918 0.930 . S
C924 C925 1.367 . S
C924 C932 1.378 . S
C925 C924 1.367 . S
C925 C933 1.433 . S
C926 H922 0.929 1_655 S
C926 C928 1.378 . S
C926 C930 1.350 . S
C927 C930 1.463 1_455 S
C927 C932 1.350 . S
C927 N935 1.427 . S
C928 H919 0.930 . S
C928 C926 1.378 . S
C928 C929 1.367 . S
C929 C928 1.367 . S
C929 C931 1.433 . S
C930 C926 1.350 . S
C930 C927 1.463 1_655 S
C930 N934 1.427 . S
C931 H921 0.929 . S
C931 C929 1.433 . S
C931 N934 1.384 . S
C932 H923 0.929 . S
C932 C924 1.378 . S
C932 C927 1.350 . S
C933 H920 0.929 . S
C933 C925 1.433 . S
C933 N935 1.384 . S
N934 C930 1.427 . S
N934 C931 1.384 . S
N935 C927 1.427 . S
N935 C933 1.384 . S
H936 C942 0.930 . S
H937 C946 0.930 . S
H938 C951 0.929 . S
H939 C949 0.929 . S
H940 C944 0.929 . S
H941 C950 0.929 . S
C942 H936 0.930 . S
C942 C943 1.367 . S
C942 C950 1.378 . S
C943 C942 1.367 . S
C943 C951 1.433 . S
C944 H940 0.929 . S
C944 C946 1.378 . S
C944 C948 1.350 . S
C945 C948 1.463 . S
C945 C950 1.350 . S
C945 N953 1.427 . S
C946 H937 0.930 . S
C946 C944 1.378 . S
C946 C947 1.367 . S
C947 C946 1.367 . S
C947 C949 1.433 . S
C948 C944 1.350 . S
C948 C945 1.463 . S
C948 N952 1.427 . S
C949 H939 0.929 . S
C949 C947 1.433 . S
C949 N952 1.384 . S
C950 H941 0.929 . S
C950 C942 1.378 . S
C950 C945 1.350 . S
C951 H938 0.929 . S
C951 C943 1.433 . S
C951 N953 1.384 . S
N952 C948 1.427 . S
N952 C949 1.384 . S
N953 C945 1.427 . S
N953 C951 1.384 . S
H954 C960 0.930 . S
H955 C964 0.930 . S
H956 C969 0.929 . S
H957 C967 0.929 . S
H958 C962 0.929 . S
H959 C968 0.929 1_655 S
C960 H954 0.930 . S
C960 C961 1.367 . S
C960 C968 1.378 . S
C961 C960 1.367 . S
C961 C969 1.433 . S
C962 H958 0.929 . S
C962 C964 1.378 . S
C962 C966 1.350 . S
C963 C966 1.463 . S
C963 C968 1.350 1_655 S
C963 N971 1.427 1_655 S
C964 H955 0.930 . S
C964 C962 1.378 . S
C964 C965 1.367 . S
C965 C964 1.367 . S
C965 C967 1.433 . S
C966 C962 1.350 . S
C966 C963 1.463 . S
C966 N970 1.427 . S
C967 H957 0.929 . S
C967 C965 1.433 . S
C967 N970 1.384 . S
C968 H959 0.929 1_455 S
C968 C960 1.378 . S
C968 C963 1.350 1_455 S
C969 H956 0.929 . S
C969 C961 1.433 . S
C969 N971 1.384 . S
N970 C966 1.427 . S
N970 C967 1.384 . S
N971 C963 1.427 1_455 S
N971 C969 1.384 . S
H972 C978 0.930 . S
H973 C982 0.930 . S
H974 C987 0.929 . S
H975 C985 0.929 . S
H976 C980 0.929 . S
H977 C986 0.929 . S
C978 H972 0.930 . S
C978 C979 1.367 . S
C978 C986 1.378 . S
C979 C978 1.367 . S
C979 C987 1.433 . S
C980 H976 0.929 . S
C980 C982 1.378 . S
C980 C984 1.350 . S
C981 C984 1.463 . S
C981 C986 1.350 . S
C981 N989 1.427 . S
C982 H973 0.930 . S
C982 C980 1.378 . S
C982 C983 1.367 . S
C983 C982 1.367 . S
C983 C985 1.433 . S
C984 C980 1.350 . S
C984 C981 1.463 . S
C984 N988 1.427 . S
C985 H975 0.929 . S
C985 C983 1.433 . S
C985 N988 1.384 . S
C986 H977 0.929 . S
C986 C978 1.378 . S
C986 C981 1.350 . S
C987 H974 0.929 . S
C987 C979 1.433 . S
C987 N989 1.384 . S
N988 C984 1.427 . S
N988 C985 1.384 . S
N989 C981 1.427 . S
N989 C987 1.384 . S
H990 C996 0.930 . S
H991 C1000 0.930 . S
H992 C1005 0.929 . S
H993 C1003 0.929 . S
H994 C998 0.929 . S
H995 C1004 0.929 . S
C996 H990 0.930 . S
C996 C997 1.367 . S
C996 C1004 1.378 1_565 S
C997 C996 1.367 . S
C997 C1005 1.433 . S
C998 H994 0.929 . S
C998 C1000 1.378 . S
C998 C1002 1.350 . S
C999 C1002 1.463 . S
C999 C1004 1.350 . S
C999 N1007 1.427 . S
C1000 H991 0.930 . S
C1000 C998 1.378 . S
C1000 C1001 1.367 . S
C1001 C1000 1.367 . S
C1001 C1003 1.433 . S
C1002 C998 1.350 . S
C1002 C999 1.463 . S
C1002 N1006 1.427 . S
C1003 H993 0.929 . S
C1003 C1001 1.433 . S
C1003 N1006 1.384 . S
C1004 H995 0.929 . S
C1004 C996 1.378 1_545 S
C1004 C999 1.350 . S
C1005 H992 0.929 . S
C1005 C997 1.433 . S
C1005 N1007 1.384 1_565 S
N1006 C1002 1.427 . S
N1006 C1003 1.384 . S
N1007 C999 1.427 . S
N1007 C1005 1.384 1_545 S
H1008 C1014 0.930 . S
H1009 C1018 0.930 . S
H1010 C1023 0.929 . S
H1011 C1021 0.929 . S
H1012 C1016 0.929 . S
H1013 C1022 0.929 . S
C1014 H1008 0.930 . S
C1014 C1015 1.367 . S
C1014 C1022 1.378 . S
C1015 C1014 1.367 . S
C1015 C1023 1.433 . S
C1016 H1012 0.929 . S
C1016 C1018 1.378 . S
C1016 C1020 1.350 . S
C1017 C1020 1.463 . S
C1017 C1022 1.350 . S
C1017 N1025 1.427 . S
C1018 H1009 0.930 . S
C1018 C1016 1.378 . S
C1018 C1019 1.367 . S
C1019 C1018 1.367 . S
C1019 C1021 1.433 . S
C1020 C1016 1.350 . S
C1020 C1017 1.463 . S
C1020 N1024 1.427 . S
C1021 H1011 0.929 . S
C1021 C1019 1.433 . S
C1021 N1024 1.384 . S
C1022 H1013 0.929 . S
C1022 C1014 1.378 . S
C1022 C1017 1.350 . S
C1023 H1010 0.929 . S
C1023 C1015 1.433 . S
C1023 N1025 1.384 . S
N1024 C1020 1.427 . S
N1024 C1021 1.384 . S
N1025 C1017 1.427 . S
N1025 C1023 1.384 . S
H1026 C1032 0.930 . S
H1027 C1036 0.930 . S
H1028 C1041 0.929 . S
H1029 C1039 0.929 . S
H1030 C1034 0.929 . S
H1031 C1040 0.929 . S
C1032 H1026 0.930 . S
C1032 C1033 1.367 . S
C1032 C1040 1.378 . S
C1033 C1032 1.367 . S
C1033 C1041 1.433 . S
C1034 H1030 0.929 . S
C1034 C1036 1.378 . S
C1034 C1038 1.350 . S
C1035 C1038 1.463 . S
C1035 C1040 1.350 . S
C1035 N1043 1.427 . S
C1036 H1027 0.930 . S
C1036 C1034 1.378 . S
C1036 C1037 1.367 . S
C1037 C1036 1.367 . S
C1037 C1039 1.433 . S
C1038 C1034 1.350 . S
C1038 C1035 1.463 . S
C1038 N1042 1.427 . S
C1039 H1029 0.929 . S
C1039 C1037 1.433 . S
C1039 N1042 1.384 . S
C1040 H1031 0.929 . S
C1040 C1032 1.378 . S
C1040 C1035 1.350 . S
C1041 H1028 0.929 . S
C1041 C1033 1.433 . S
C1041 N1043 1.384 . S
N1042 C1038 1.427 . S
N1042 C1039 1.384 . S
N1043 C1035 1.427 . S
N1043 C1041 1.384 . S
H1044 C1050 0.930 . S
H1045 C1054 0.930 . S
H1046 C1059 0.929 . S
H1047 C1057 0.929 . S
H1048 C1052 0.929 . S
H1049 C1058 0.929 . S
C1050 H1044 0.930 . S
C1050 C1051 1.367 . S
C1050 C1058 1.378 . S
C1051 C1050 1.367 . S
C1051 C1059 1.433 . S
C1052 H1048 0.929 . S
C1052 C1054 1.378 . S
C1052 C1056 1.350 . S
C1053 C1056 1.463 . S
C1053 C1058 1.350 . S
C1053 N1061 1.427 . S
C1054 H1045 0.930 . S
C1054 C1052 1.378 . S
C1054 C1055 1.367 . S
C1055 C1054 1.367 . S
C1055 C1057 1.433 . S
C1056 C1052 1.350 . S
C1056 C1053 1.463 . S
C1056 N1060 1.427 . S
C1057 H1047 0.929 . S
C1057 C1055 1.433 . S
C1057 N1060 1.384 . S
C1058 H1049 0.929 . S
C1058 C1050 1.378 . S
C1058 C1053 1.350 . S
C1059 H1046 0.929 . S
C1059 C1051 1.433 . S
C1059 N1061 1.384 . S
N1060 C1056 1.427 . S
N1060 C1057 1.384 . S
N1061 C1053 1.427 . S
N1061 C1059 1.384 . S
H1062 C1068 0.930 . S
H1063 C1072 0.930 . S
H1064 C1077 0.929 . S
H1065 C1075 0.929 1_545 S
H1066 C1070 0.929 . S
H1067 C1076 0.929 . S
C1068 H1062 0.930 . S
C1068 C1069 1.367 . S
C1068 C1076 1.378 . S
C1069 C1068 1.367 . S
C1069 C1077 1.433 . S
C1070 H1066 0.929 . S
C1070 C1072 1.378 . S
C1070 C1074 1.350 . S
C1071 C1074 1.463 . S
C1071 C1076 1.350 . S
C1071 N1079 1.427 . S
C1072 H1063 0.930 . S
C1072 C1070 1.378 . S
C1072 C1073 1.367 . S
C1073 C1072 1.367 . S
C1073 C1075 1.433 . S
C1074 C1070 1.350 . S
C1074 C1071 1.463 . S
C1074 N1078 1.427 . S
C1075 H1065 0.929 1_565 S
C1075 C1073 1.433 . S
C1075 N1078 1.384 . S
C1076 H1067 0.929 . S
C1076 C1068 1.378 . S
C1076 C1071 1.350 . S
C1077 H1064 0.929 . S
C1077 C1069 1.433 . S
C1077 N1079 1.384 . S
N1078 C1074 1.427 . S
N1078 C1075 1.384 . S
N1079 C1071 1.427 . S
N1079 C1077 1.384 . S
H1080 C1086 0.930 . S
H1081 C1090 0.930 . S
H1082 C1095 0.929 . S
H1083 C1093 0.929 . S
H1084 C1088 0.929 . S
H1085 C1094 0.929 . S
C1086 H1080 0.930 . S
C1086 C1087 1.367 . S
C1086 C1094 1.378 . S
C1087 C1086 1.367 . S
C1087 C1095 1.433 . S
C1088 H1084 0.929 . S
C1088 C1090 1.378 . S
C1088 C1092 1.350 . S
C1089 C1092 1.463 . S
C1089 C1094 1.350 . S
C1089 N1097 1.427 . S
C1090 H1081 0.930 . S
C1090 C1088 1.378 . S
C1090 C1091 1.367 . S
C1091 C1090 1.367 . S
C1091 C1093 1.433 . S
C1092 C1088 1.350 . S
C1092 C1089 1.463 . S
C1092 N1096 1.427 . S
C1093 H1083 0.929 . S
C1093 C1091 1.433 . S
C1093 N1096 1.384 . S
C1094 H1085 0.929 . S
C1094 C1086 1.378 . S
C1094 C1089 1.350 . S
C1095 H1082 0.929 . S
C1095 C1087 1.433 . S
C1095 N1097 1.384 . S
N1096 C1092 1.427 . S
N1096 C1093 1.384 . S
N1097 C1089 1.427 . S
N1097 C1095 1.384 . S
H1098 C1104 0.930 . S
H1099 C1108 0.930 . S
H1100 C1113 0.929 . S
H1101 C1111 0.929 . S
H1102 C1106 0.929 . S
H1103 C1112 0.929 . S
C1104 H1098 0.930 . S
C1104 C1105 1.367 . S
C1104 C1112 1.378 . S
C1105 C1104 1.367 . S
C1105 C1113 1.433 . S
C1106 H1102 0.929 . S
C1106 C1108 1.378 . S
C1106 C1110 1.350 . S
C1107 C1110 1.463 . S
C1107 C1112 1.350 . S
C1107 N1115 1.427 . S
C1108 H1099 0.930 . S
C1108 C1106 1.378 . S
C1108 C1109 1.367 . S
C1109 C1108 1.367 . S
C1109 C1111 1.433 . S
C1110 C1106 1.350 . S
C1110 C1107 1.463 . S
C1110 N1114 1.427 . S
C1111 H1101 0.929 . S
C1111 C1109 1.433 . S
C1111 N1114 1.384 . S
C1112 H1103 0.929 . S
C1112 C1104 1.378 . S
C1112 C1107 1.350 . S
C1113 H1100 0.929 . S
C1113 C1105 1.433 . S
C1113 N1115 1.384 . S
N1114 C1110 1.427 . S
N1114 C1111 1.384 . S
N1115 C1107 1.427 . S
N1115 C1113 1.384 . S
H1116 C1122 0.930 . S
H1117 C1126 0.930 . S
H1118 C1131 0.929 . S
H1119 C1129 0.929 . S
H1120 C1124 0.929 . S
H1121 C1130 0.929 . S
C1122 H1116 0.930 . S
C1122 C1123 1.367 . S
C1122 C1130 1.378 . S
C1123 C1122 1.367 . S
C1123 C1131 1.433 . S
C1124 H1120 0.929 . S
C1124 C1126 1.378 . S
C1124 C1128 1.350 . S
C1125 C1128 1.463 . S
C1125 C1130 1.350 . S
C1125 N1133 1.427 . S
C1126 H1117 0.930 . S
C1126 C1124 1.378 . S
C1126 C1127 1.367 . S
C1127 C1126 1.367 . S
C1127 C1129 1.433 . S
C1128 C1124 1.350 . S
C1128 C1125 1.463 . S
C1128 N1132 1.427 . S
C1129 H1119 0.929 . S
C1129 C1127 1.433 . S
C1129 N1132 1.384 . S
C1130 H1121 0.929 . S
C1130 C1122 1.378 . S
C1130 C1125 1.350 . S
C1131 H1118 0.929 . S
C1131 C1123 1.433 . S
C1131 N1133 1.384 . S
N1132 C1128 1.427 . S
N1132 C1129 1.384 . S
N1133 C1125 1.427 . S
N1133 C1131 1.384 . S
H1134 C1140 0.930 . S
H1135 C1144 0.930 . S
H1136 C1149 0.929 . S
H1137 C1147 0.929 . S
H1138 C1142 0.929 . S
H1139 C1148 0.929 . S
C1140 H1134 0.930 . S
C1140 C1141 1.367 . S
C1140 C1148 1.378 . S
C1141 C1140 1.367 . S
C1141 C1149 1.433 . S
C1142 H1138 0.929 . S
C1142 C1144 1.378 . S
C1142 C1146 1.350 . S
C1143 C1146 1.463 . S
C1143 C1148 1.350 . S
C1143 N1151 1.427 . S
C1144 H1135 0.930 . S
C1144 C1142 1.378 . S
C1144 C1145 1.367 . S
C1145 C1144 1.367 . S
C1145 C1147 1.433 . S
C1146 C1142 1.350 . S
C1146 C1143 1.463 . S
C1146 N1150 1.427 . S
C1147 H1137 0.929 . S
C1147 C1145 1.433 . S
C1147 N1150 1.384 . S
C1148 H1139 0.929 . S
C1148 C1140 1.378 . S
C1148 C1143 1.350 . S
C1149 H1136 0.929 . S
C1149 C1141 1.433 . S
C1149 N1151 1.384 . S
N1150 C1146 1.427 . S
N1150 C1147 1.384 . S
N1151 C1143 1.427 . S
N1151 C1149 1.384 . S
H1152 C1158 0.930 . S
H1153 C1162 0.930 . S
H1154 C1167 0.929 . S
H1155 C1165 0.929 . S
H1156 C1160 0.929 . S
H1157 C1166 0.929 . S
C1158 H1152 0.930 . S
C1158 C1159 1.367 . S
C1158 C1166 1.378 . S
C1159 C1158 1.367 . S
C1159 C1167 1.433 . S
C1160 H1156 0.929 . S
C1160 C1162 1.378 . S
C1160 C1164 1.350 . S
C1161 C1164 1.463 . S
C1161 C1166 1.350 . S
C1161 N1169 1.427 . S
C1162 H1153 0.930 . S
C1162 C1160 1.378 . S
C1162 C1163 1.367 . S
C1163 C1162 1.367 . S
C1163 C1165 1.433 . S
C1164 C1160 1.350 . S
C1164 C1161 1.463 . S
C1164 N1168 1.427 . S
C1165 H1155 0.929 . S
C1165 C1163 1.433 . S
C1165 N1168 1.384 . S
C1166 H1157 0.929 . S
C1166 C1158 1.378 . S
C1166 C1161 1.350 . S
C1167 H1154 0.929 . S
C1167 C1159 1.433 . S
C1167 N1169 1.384 . S
N1168 C1164 1.427 . S
N1168 C1165 1.384 . S
N1169 C1161 1.427 . S
N1169 C1167 1.384 . S
H1170 C1176 0.930 . S
H1171 C1180 0.930 . S
H1172 C1185 0.929 . S
H1173 C1183 0.929 . S
H1174 C1178 0.929 . S
H1175 C1184 0.929 . S
C1176 H1170 0.930 . S
C1176 C1177 1.367 . S
C1176 C1184 1.378 . S
C1177 C1176 1.367 . S
C1177 C1185 1.433 . S
C1178 H1174 0.929 . S
C1178 C1180 1.378 . S
C1178 C1182 1.350 . S
C1179 C1182 1.463 . S
C1179 C1184 1.350 . S
C1179 N1187 1.427 . S
C1180 H1171 0.930 . S
C1180 C1178 1.378 . S
C1180 C1181 1.367 . S
C1181 C1180 1.367 . S
C1181 C1183 1.433 . S
C1182 C1178 1.350 . S
C1182 C1179 1.463 . S
C1182 N1186 1.427 . S
C1183 H1173 0.929 . S
C1183 C1181 1.433 . S
C1183 N1186 1.384 . S
C1184 H1175 0.929 . S
C1184 C1176 1.378 . S
C1184 C1179 1.350 . S
C1185 H1172 0.929 . S
C1185 C1177 1.433 . S
C1185 N1187 1.384 . S
N1186 C1182 1.427 . S
N1186 C1183 1.384 . S
N1187 C1179 1.427 . S
N1187 C1185 1.384 . S
H1188 C1194 0.930 . S
H1189 C1198 0.930 . S
H1190 C1203 0.929 . S
H1191 C1201 0.929 . S
H1192 C1196 0.929 . S
H1193 C1202 0.929 . S
C1194 H1188 0.930 . S
C1194 C1195 1.367 . S
C1194 C1202 1.378 . S
C1195 C1194 1.367 . S
C1195 C1203 1.433 . S
C1196 H1192 0.929 . S
C1196 C1198 1.378 . S
C1196 C1200 1.350 . S
C1197 C1200 1.463 . S
C1197 C1202 1.350 . S
C1197 N1205 1.427 . S
C1198 H1189 0.930 . S
C1198 C1196 1.378 . S
C1198 C1199 1.367 . S
C1199 C1198 1.367 . S
C1199 C1201 1.433 . S
C1200 C1196 1.350 . S
C1200 C1197 1.463 . S
C1200 N1204 1.427 . S
C1201 H1191 0.929 . S
C1201 C1199 1.433 . S
C1201 N1204 1.384 . S
C1202 H1193 0.929 . S
C1202 C1194 1.378 . S
C1202 C1197 1.350 . S
C1203 H1190 0.929 . S
C1203 C1195 1.433 . S
C1203 N1205 1.384 . S
N1204 C1200 1.427 . S
N1204 C1201 1.384 . S
N1205 C1197 1.427 . S
N1205 C1203 1.384 . S
H1206 C1212 0.930 . S
H1207 C1216 0.930 . S
H1208 C1221 0.929 . S
H1209 C1219 0.929 . S
H1210 C1214 0.929 . S
H1211 C1220 0.929 . S
C1212 H1206 0.930 . S
C1212 C1213 1.367 . S
C1212 C1220 1.378 . S
C1213 C1212 1.367 . S
C1213 C1221 1.433 . S
C1214 H1210 0.929 . S
C1214 C1216 1.378 . S
C1214 C1218 1.350 . S
C1215 C1218 1.463 . S
C1215 C1220 1.350 . S
C1215 N1223 1.427 . S
C1216 H1207 0.930 . S
C1216 C1214 1.378 . S
C1216 C1217 1.367 . S
C1217 C1216 1.367 . S
C1217 C1219 1.433 . S
C1218 C1214 1.350 . S
C1218 C1215 1.463 . S
C1218 N1222 1.427 . S
C1219 H1209 0.929 . S
C1219 C1217 1.433 . S
C1219 N1222 1.384 . S
C1220 H1211 0.929 . S
C1220 C1212 1.378 . S
C1220 C1215 1.350 . S
C1221 H1208 0.929 . S
C1221 C1213 1.433 . S
C1221 N1223 1.384 . S
N1222 C1218 1.427 . S
N1222 C1219 1.384 . S
N1223 C1215 1.427 . S
N1223 C1221 1.384 . S
H1224 C1230 0.930 . S
H1225 C1234 0.930 . S
H1226 C1239 0.929 . S
H1227 C1237 0.929 . S
H1228 C1232 0.929 . S
H1229 C1238 0.929 . S
C1230 H1224 0.930 . S
C1230 C1231 1.367 . S
C1230 C1238 1.378 . S
C1231 C1230 1.367 . S
C1231 C1239 1.433 . S
C1232 H1228 0.929 . S
C1232 C1234 1.378 . S
C1232 C1236 1.350 . S
C1233 C1236 1.463 . S
C1233 C1238 1.350 . S
C1233 N1241 1.427 . S
C1234 H1225 0.930 . S
C1234 C1232 1.378 . S
C1234 C1235 1.367 . S
C1235 C1234 1.367 . S
C1235 C1237 1.433 . S
C1236 C1232 1.350 . S
C1236 C1233 1.463 . S
C1236 N1240 1.427 . S
C1237 H1227 0.929 . S
C1237 C1235 1.433 . S
C1237 N1240 1.384 . S
C1238 H1229 0.929 . S
C1238 C1230 1.378 . S
C1238 C1233 1.350 . S
C1239 H1226 0.929 . S
C1239 C1231 1.433 . S
C1239 N1241 1.384 . S
N1240 C1236 1.427 . S
N1240 C1237 1.384 . S
N1241 C1233 1.427 . S
N1241 C1239 1.384 . S
H1242 C1248 0.930 . S
H1243 C1252 0.930 . S
H1244 C1257 0.929 . S
H1245 C1255 0.929 . S
H1246 C1250 0.929 . S
H1247 C1256 0.929 . S
C1248 H1242 0.930 . S
C1248 C1249 1.367 . S
C1248 C1256 1.378 . S
C1249 C1248 1.367 . S
C1249 C1257 1.433 . S
C1250 H1246 0.929 . S
C1250 C1252 1.378 . S
C1250 C1254 1.350 . S
C1251 C1254 1.463 . S
C1251 C1256 1.350 . S
C1251 N1259 1.427 . S
C1252 H1243 0.930 . S
C1252 C1250 1.378 . S
C1252 C1253 1.367 . S
C1253 C1252 1.367 . S
C1253 C1255 1.433 . S
C1254 C1250 1.350 . S
C1254 C1251 1.463 . S
C1254 N1258 1.427 . S
C1255 H1245 0.929 . S
C1255 C1253 1.433 . S
C1255 N1258 1.384 . S
C1256 H1247 0.929 . S
C1256 C1248 1.378 . S
C1256 C1251 1.350 . S
C1257 H1244 0.929 . S
C1257 C1249 1.433 . S
C1257 N1259 1.384 . S
N1258 C1254 1.427 . S
N1258 C1255 1.384 . S
N1259 C1251 1.427 . S
N1259 C1257 1.384 . S
H1260 C1266 0.930 . S
H1261 C1270 0.930 . S
H1262 C1275 0.929 . S
H1263 C1273 0.929 . S
H1264 C1268 0.929 . S
H1265 C1274 0.929 . S
C1266 H1260 0.930 . S
C1266 C1267 1.367 . S
C1266 C1274 1.378 . S
C1267 C1266 1.367 . S
C1267 C1275 1.433 . S
C1268 H1264 0.929 . S
C1268 C1270 1.378 . S
C1268 C1272 1.350 . S
C1269 C1272 1.463 . S
C1269 C1274 1.350 . S
C1269 N1277 1.427 . S
C1270 H1261 0.930 . S
C1270 C1268 1.378 . S
C1270 C1271 1.367 . S
C1271 C1270 1.367 . S
C1271 C1273 1.433 . S
C1272 C1268 1.350 . S
C1272 C1269 1.463 . S
C1272 N1276 1.427 . S
C1273 H1263 0.929 . S
C1273 C1271 1.433 . S
C1273 N1276 1.384 . S
C1274 H1265 0.929 . S
C1274 C1266 1.378 . S
C1274 C1269 1.350 . S
C1275 H1262 0.929 . S
C1275 C1267 1.433 . S
C1275 N1277 1.384 . S
N1276 C1272 1.427 . S
N1276 C1273 1.384 . S
N1277 C1269 1.427 . S
N1277 C1275 1.384 . S
H1278 C1284 0.930 . S
H1279 C1288 0.930 . S
H1280 C1293 0.929 . S
H1281 C1291 0.929 . S
H1282 C1286 0.929 . S
H1283 C1292 0.929 . S
C1284 H1278 0.930 . S
C1284 C1285 1.367 . S
C1284 C1292 1.378 . S
C1285 C1284 1.367 . S
C1285 C1293 1.433 . S
C1286 H1282 0.929 . S
C1286 C1288 1.378 . S
C1286 C1290 1.350 . S
C1287 C1290 1.463 . S
C1287 C1292 1.350 . S
C1287 N1295 1.427 . S
C1288 H1279 0.930 . S
C1288 C1286 1.378 . S
C1288 C1289 1.367 . S
C1289 C1288 1.367 . S
C1289 C1291 1.433 . S
C1290 C1286 1.350 . S
C1290 C1287 1.463 . S
C1290 N1294 1.427 . S
C1291 H1281 0.929 . S
C1291 C1289 1.433 . S
C1291 N1294 1.384 . S
C1292 H1283 0.929 . S
C1292 C1284 1.378 . S
C1292 C1287 1.350 . S
C1293 H1280 0.929 . S
C1293 C1285 1.433 . S
C1293 N1295 1.384 . S
N1294 C1290 1.427 . S
N1294 C1291 1.384 . S
N1295 C1287 1.427 . S
N1295 C1293 1.384 . S
H1296 C1302 0.930 . S
H1297 C1306 0.930 . S
H1298 C1311 0.929 . S
H1299 C1309 0.929 . S
H1300 C1304 0.929 . S
H1301 C1310 0.929 . S
C1302 H1296 0.930 . S
C1302 C1303 1.367 . S
C1302 C1310 1.378 . S
C1303 C1302 1.367 . S
C1303 C1311 1.433 . S
C1304 H1300 0.929 . S
C1304 C1306 1.378 . S
C1304 C1308 1.350 . S
C1305 C1308 1.463 . S
C1305 C1310 1.350 . S
C1305 N1313 1.427 . S
C1306 H1297 0.930 . S
C1306 C1304 1.378 . S
C1306 C1307 1.367 . S
C1307 C1306 1.367 . S
C1307 C1309 1.433 . S
C1308 C1304 1.350 . S
C1308 C1305 1.463 . S
C1308 N1312 1.427 . S
C1309 H1299 0.929 . S
C1309 C1307 1.433 . S
C1309 N1312 1.384 . S
C1310 H1301 0.929 . S
C1310 C1302 1.378 . S
C1310 C1305 1.350 . S
C1311 H1298 0.929 . S
C1311 C1303 1.433 . S
C1311 N1313 1.384 . S
N1312 C1308 1.427 . S
N1312 C1309 1.384 . S
N1313 C1305 1.427 . S
N1313 C1311 1.384 . S
H1314 C1320 0.930 . S
H1315 C1324 0.930 . S
H1316 C1329 0.929 . S
H1317 C1327 0.929 . S
H1318 C1322 0.929 . S
H1319 C1328 0.929 . S
C1320 H1314 0.930 . S
C1320 C1321 1.367 . S
C1320 C1328 1.378 . S
C1321 C1320 1.367 . S
C1321 C1329 1.433 . S
C1322 H1318 0.929 . S
C1322 C1324 1.378 . S
C1322 C1326 1.350 . S
C1323 C1326 1.463 . S
C1323 C1328 1.350 . S
C1323 N1331 1.427 . S
C1324 H1315 0.930 . S
C1324 C1322 1.378 . S
C1324 C1325 1.367 . S
C1325 C1324 1.367 . S
C1325 C1327 1.433 . S
C1326 C1322 1.350 . S
C1326 C1323 1.463 . S
C1326 N1330 1.427 . S
C1327 H1317 0.929 . S
C1327 C1325 1.433 . S
C1327 N1330 1.384 . S
C1328 H1319 0.929 . S
C1328 C1320 1.378 . S
C1328 C1323 1.350 . S
C1329 H1316 0.929 . S
C1329 C1321 1.433 . S
C1329 N1331 1.384 . S
N1330 C1326 1.427 . S
N1330 C1327 1.384 . S
N1331 C1323 1.427 . S
N1331 C1329 1.384 . S
H1332 C1338 0.930 . S
H1333 C1342 0.930 . S
H1334 C1347 0.929 . S
H1335 C1345 0.929 . S
H1336 C1340 0.929 . S
H1337 C1346 0.929 . S
C1338 H1332 0.930 . S
C1338 C1339 1.367 . S
C1338 C1346 1.378 . S
C1339 C1338 1.367 . S
C1339 C1347 1.433 . S
C1340 H1336 0.929 . S
C1340 C1342 1.378 . S
C1340 C1344 1.350 . S
C1341 C1344 1.463 . S
C1341 C1346 1.350 . S
C1341 N1349 1.427 . S
C1342 H1333 0.930 . S
C1342 C1340 1.378 . S
C1342 C1343 1.367 . S
C1343 C1342 1.367 . S
C1343 C1345 1.433 . S
C1344 C1340 1.350 . S
C1344 C1341 1.463 . S
C1344 N1348 1.427 . S
C1345 H1335 0.929 . S
C1345 C1343 1.433 . S
C1345 N1348 1.384 . S
C1346 H1337 0.929 . S
C1346 C1338 1.378 . S
C1346 C1341 1.350 . S
C1347 H1334 0.929 . S
C1347 C1339 1.433 . S
C1347 N1349 1.384 . S
N1348 C1344 1.427 . S
N1348 C1345 1.384 . S
N1349 C1341 1.427 . S
N1349 C1347 1.384 . S
H1350 C1356 0.930 . S
H1351 C1360 0.930 . S
H1352 C1365 0.929 . S
H1353 C1363 0.929 . S
H1354 C1358 0.929 . S
H1355 C1364 0.929 . S
C1356 H1350 0.930 . S
C1356 C1357 1.367 . S
C1356 C1364 1.378 . S
C1357 C1356 1.367 . S
C1357 C1365 1.433 . S
C1358 H1354 0.929 . S
C1358 C1360 1.378 . S
C1358 C1362 1.350 . S
C1359 C1362 1.463 . S
C1359 C1364 1.350 . S
C1359 N1367 1.427 . S
C1360 H1351 0.930 . S
C1360 C1358 1.378 . S
C1360 C1361 1.367 . S
C1361 C1360 1.367 . S
C1361 C1363 1.433 . S
C1362 C1358 1.350 . S
C1362 C1359 1.463 . S
C1362 N1366 1.427 . S
C1363 H1353 0.929 . S
C1363 C1361 1.433 . S
C1363 N1366 1.384 . S
C1364 H1355 0.929 . S
C1364 C1356 1.378 . S
C1364 C1359 1.350 . S
C1365 H1352 0.929 . S
C1365 C1357 1.433 . S
C1365 N1367 1.384 . S
N1366 C1362 1.427 . S
N1366 C1363 1.384 . S
N1367 C1359 1.427 . S
N1367 C1365 1.384 . S
H1368 C1374 0.930 . S
H1369 C1378 0.930 . S
H1370 C1383 0.929 . S
H1371 C1381 0.929 . S
H1372 C1376 0.929 . S
H1373 C1382 0.929 . S
C1374 H1368 0.930 . S
C1374 C1375 1.367 . S
C1374 C1382 1.378 . S
C1375 C1374 1.367 . S
C1375 C1383 1.433 . S
C1376 H1372 0.929 . S
C1376 C1378 1.378 . S
C1376 C1380 1.350 . S
C1377 C1380 1.463 . S
C1377 C1382 1.350 . S
C1377 N1385 1.427 . S
C1378 H1369 0.930 . S
C1378 C1376 1.378 . S
C1378 C1379 1.367 . S
C1379 C1378 1.367 . S
C1379 C1381 1.433 . S
C1380 C1376 1.350 . S
C1380 C1377 1.463 . S
C1380 N1384 1.427 . S
C1381 H1371 0.929 . S
C1381 C1379 1.433 . S
C1381 N1384 1.384 . S
C1382 H1373 0.929 . S
C1382 C1374 1.378 . S
C1382 C1377 1.350 . S
C1383 H1370 0.929 . S
C1383 C1375 1.433 . S
C1383 N1385 1.384 . S
N1384 C1380 1.427 . S
N1384 C1381 1.384 . S
N1385 C1377 1.427 . S
N1385 C1383 1.384 . S
C421 C177 1.557 . S
C425 C240 1.535 . S
C439 C190 1.516 . S
C443 C260 1.492 . S
C457 C164 1.512 . S
C461 C283 1.517 . S
C475 C151 1.428 . S
C479 C263 1.430 1_556 S
C497 C280 1.433 . S
C493 C125 1.450 . S
C511 C138 1.473 . S
C515 C243 1.474 1_556 S
C533 C250 1.540 . S
C529 C147 1.532 . S
C551 C270 1.433 . S
C547 C121 1.402 . S
C565 C134 1.483 . S
C569 C275 1.566 . S
C583 C173 1.400 . S
C587 C255 1.457 . S
C601 C186 1.420 . S
C605 C290 1.422 . S
C623 C235 1.545 . S
C619 C160 1.498 . S
C641 C300 1.535 . S
C637 C21 1.557 . S
C655 C34 1.515 . S
C659 C320 1.488 . S
C673 C8 1.516 . S
C677 C343 1.521 . S
C691 C229 1.430 . S
C695 C323 1.432 . S
C709 C203 1.450 . S
C713 C340 1.434 . S
C727 C216 1.473 . S
C731 C303 1.474 . S
C745 C225 1.535 . S
C749 C310 1.552 . S
C763 C199 1.411 . S
C767 C330 1.430 . S
C785 C335 1.556 . S
C781 C212 1.491 . S
C799 C17 1.396 . S
C803 C315 1.458 . S
C821 C350 1.421 . S
C817 C30 1.417 . S
C835 C4 1.503 . S
C839 C295 1.540 . S
C857 C360 1.534 . S
C853 C99 1.557 . S
C871 C112 1.518 . S
C875 C380 1.496 . S
C893 C403 1.520 . S
C889 C86 1.513 . S
C911 C383 1.432 . S
C907 C73 1.430 . S
C929 C400 1.429 . S
C925 C47 1.450 . S
C943 C60 1.471 . S
C947 C363 1.474 . S
C961 C69 1.528 . S
C965 C370 1.543 . S
C979 C43 1.408 . S
C983 C390 1.429 . S
C1001 C395 1.557 . S
C997 C56 1.484 . S
C1015 C95 1.411 . S
C1019 C375 1.464 . S
C1033 C108 1.410 . S
C1037 C410 1.429 . S
C1051 C82 1.499 . S
C1055 C355 1.545 . S
C1069 C204 1.364 . S
C1073 C253 1.319 . S
C1091 C273 1.628 . S
C1087 C217 1.714 . S
C1105 C230 1.514 . S
C1109 C282 1.484 . S
C1123 C87 1.680 . S
C1127 C262 1.626 . S
C1141 C100 1.583 . S
C1145 C293 1.511 . S
C1163 C242 1.316 . S
C1159 C113 1.331 . S
C1177 C48 1.364 . S
C1181 C313 1.319 . S
C1195 C61 1.716 . S
C1199 C333 1.636 . S
C1213 C74 1.514 . S
C1217 C342 1.485 . S
C1231 C165 1.679 . S
C1235 C322 1.626 . S
C1253 C353 1.524 . S
C1249 C178 1.586 . S
C1267 C191 1.338 . S
C1271 C302 1.308 . S
C1285 C126 1.360 . S
C1289 C373 1.302 . S
C1303 C139 1.716 . S
C1307 C393 1.634 . S
C1325 C402 1.482 . S
C1321 C152 1.521 . S
C1339 C9 1.681 . S
C1343 C382 1.632 . S
C1357 C22 1.584 . S
C1361 C413 1.513 . S
C1375 C35 1.336 . S
C1379 C362 1.305 . S
