# Generated by pormake.
# Topology wbl, (4,4)-cn, num edge types: 1
# Building blocks:
#     Node 0, Type 0, BuildingBlock: MUDLON_clean_linker_0, # of connection points: 4
#     Node 1, Type 0, BuildingBlock: MUDLON_clean_linker_0, # of connection points: 4
#     Node 2, Type 0, BuildingBlock: MUDLON_clean_linker_0, # of connection points: 4
#     Node 3, Type 0, BuildingBlock: MUDLON_clean_linker_0, # of connection points: 4
#     Node 4, Type 0, BuildingBlock: MUDLON_clean_linker_0, # of connection points: 4
#     Node 5, Type 0, BuildingBlock: MUDLON_clean_linker_0, # of connection points: 4
#     Node 6, Type 0, BuildingBlock: MUDLON_clean_linker_0, # of connection points: 4
#     Node 7, Type 0, BuildingBlock: MUDLON_clean_linker_0, # of connection points: 4
#     Node 8, Type 1, BuildingBlock: QUQFOY_clean_sbu_1, # of connection points: 4
#     Node 9, Type 1, BuildingBlock: QUQFOY_clean_sbu_1, # of connection points: 4
#     Node 10, Type 1, BuildingBlock: QUQFOY_clean_sbu_1, # of connection points: 4
#     Node 11, Type 1, BuildingBlock: QUQFOY_clean_sbu_1, # of connection points: 4
#     Node 12, Type 1, BuildingBlock: QUQFOY_clean_sbu_1, # of connection points: 4
#     Node 13, Type 1, BuildingBlock: QUQFOY_clean_sbu_1, # of connection points: 4
#     Node 14, Type 1, BuildingBlock: QUQFOY_clean_sbu_1, # of connection points: 4
#     Node 15, Type 1, BuildingBlock: QUQFOY_clean_sbu_1, # of connection points: 4
#     Edge 16, Type (0, 1), BuildingBlock: XIVTED_clean_linker_0, # of connection points: 2
#     Edge 17, Type (0, 1), BuildingBlock: XIVTED_clean_linker_0, # of connection points: 2
#     Edge 18, Type (0, 1), BuildingBlock: XIVTED_clean_linker_0, # of connection points: 2
#     Edge 19, Type (0, 1), BuildingBlock: XIVTED_clean_linker_0, # of connection points: 2
#     Edge 20, Type (0, 1), BuildingBlock: XIVTED_clean_linker_0, # of connection points: 2
#     Edge 21, Type (0, 1), BuildingBlock: XIVTED_clean_linker_0, # of connection points: 2
#     Edge 22, Type (0, 1), BuildingBlock: XIVTED_clean_linker_0, # of connection points: 2
#     Edge 23, Type (0, 1), BuildingBlock: XIVTED_clean_linker_0, # of connection points: 2
#     Edge 24, Type (0, 1), BuildingBlock: XIVTED_clean_linker_0, # of connection points: 2
#     Edge 25, Type (0, 1), BuildingBlock: XIVTED_clean_linker_0, # of connection points: 2
#     Edge 26, Type (0, 1), BuildingBlock: XIVTED_clean_linker_0, # of connection points: 2
#     Edge 27, Type (0, 1), BuildingBlock: XIVTED_clean_linker_0, # of connection points: 2
#     Edge 28, Type (0, 1), BuildingBlock: XIVTED_clean_linker_0, # of connection points: 2
#     Edge 29, Type (0, 1), BuildingBlock: XIVTED_clean_linker_0, # of connection points: 2
#     Edge 30, Type (0, 1), BuildingBlock: XIVTED_clean_linker_0, # of connection points: 2
#     Edge 31, Type (0, 1), BuildingBlock: XIVTED_clean_linker_0, # of connection points: 2
#     Edge 32, Type (0, 1), BuildingBlock: XIVTED_clean_linker_0, # of connection points: 2
#     Edge 33, Type (0, 1), BuildingBlock: XIVTED_clean_linker_0, # of connection points: 2
#     Edge 34, Type (0, 1), BuildingBlock: XIVTED_clean_linker_0, # of connection points: 2
#     Edge 35, Type (0, 1), BuildingBlock: XIVTED_clean_linker_0, # of connection points: 2
#     Edge 36, Type (0, 1), BuildingBlock: XIVTED_clean_linker_0, # of connection points: 2
#     Edge 37, Type (0, 1), BuildingBlock: XIVTED_clean_linker_0, # of connection points: 2
#     Edge 38, Type (0, 1), BuildingBlock: XIVTED_clean_linker_0, # of connection points: 2
#     Edge 39, Type (0, 1), BuildingBlock: XIVTED_clean_linker_0, # of connection points: 2
#     Edge 40, Type (0, 1), BuildingBlock: XIVTED_clean_linker_0, # of connection points: 2
#     Edge 41, Type (0, 1), BuildingBlock: XIVTED_clean_linker_0, # of connection points: 2
#     Edge 42, Type (0, 1), BuildingBlock: XIVTED_clean_linker_0, # of connection points: 2
#     Edge 43, Type (0, 1), BuildingBlock: XIVTED_clean_linker_0, # of connection points: 2
#     Edge 44, Type (0, 1), BuildingBlock: XIVTED_clean_linker_0, # of connection points: 2
#     Edge 45, Type (0, 1), BuildingBlock: XIVTED_clean_linker_0, # of connection points: 2
#     Edge 46, Type (0, 1), BuildingBlock: XIVTED_clean_linker_0, # of connection points: 2
#     Edge 47, Type (0, 1), BuildingBlock: XIVTED_clean_linker_0, # of connection points: 2
# Relax obj value: 0.142
# Max RMSD: 0.210
# Mean RMSD: 0.162
data_MOF--net-wbl--node1-QUQFOY_clean_sbu_1--node2-MUDLON_clean_linker_0--edge1-XIVTED_clean_linker_0
_symmetry_space_group_name_H-M    P1
_symmetry_Int_Tables_number       1
_symmetry_cell_setting            triclinic
loop_
_symmetry_equiv_pos_as_xyz
'x, y, z'
_cell_length_a     53.730502
_cell_length_b     53.680365
_cell_length_c     79.04836
_cell_angle_alpha  93.488615
_cell_angle_beta   93.50724
_cell_angle_gamma 90.193327
loop_
_atom_site_label
_atom_site_type_symbol
_atom_site_fract_x
_atom_site_fract_y
_atom_site_fract_z
_atom_type_partial_charge
H0 H 0.21687 0.00336 0.34089 0.0
N1 N 0.17172 0.99341 0.3237 0.0
H2 H 0.22784 0.99629 0.3707 0.0
H3 H 0.14272 0.97503 0.34603 0.0
H4 H 0.15352 0.96801 0.37594 0.0
H5 H 0.17824 0.94608 0.3138 0.0
H6 H 0.21162 0.92823 0.29765 0.0
H7 H 0.20587 0.02008 0.30692 0.0
H8 H 0.23831 0.00257 0.28988 0.0
H9 H 0.19088 0.04009 0.3326 0.0
H10 H 0.1262 1.00037 0.30992 0.0
H11 H 0.16828 0.07931 0.33168 0.0
H12 H 0.10297 0.03946 0.30953 0.0
H13 H 0.07338 0.19462 0.3456 0.0
H14 H 0.0612 0.20693 0.37432 0.0
H15 H 0.04378 0.1299 0.38197 0.0
H16 H 0.05661 0.1178 0.3537 0.0
H17 H 0.0344 0.11305 0.32758 0.0
H18 H 0.99261 0.11646 0.31436 0.0
H19 H 0.01253 0.18752 0.29576 0.0
H20 H 0.05417 0.18443 0.30989 0.0
H21 H 0.11039 0.13518 0.35036 0.0
H22 H 0.13621 0.09865 0.34679 0.0
H23 H 0.09782 0.07971 0.29809 0.0
N24 N 0.0709 0.14917 0.32988 0.0
H25 H 0.07131 0.1158 0.30182 0.0
C26 C 0.17894 0.98946 0.34121 0.0
C27 C 0.20297 0.99554 0.34842 0.0
C28 C 0.20924 0.99145 0.36544 0.0
C29 C 0.19154 0.98159 0.37563 0.0
C30 C 0.16748 0.97584 0.36844 0.0
C31 C 0.16131 0.97969 0.35138 0.0
C32 C 0.18937 0.98434 0.31172 0.0
C33 C 0.19109 0.9585 0.30837 0.0
C34 C 0.21018 0.94835 0.29899 0.0
C35 C 0.22794 0.96389 0.29243 0.0
C36 C 0.22538 0.98993 0.295 0.0
C37 C 0.2065 1.00006 0.30469 0.0
C38 C 0.16019 0.01725 0.32121 0.0
C39 C 0.1719 0.03985 0.32718 0.0
C40 C 0.15882 0.06228 0.32681 0.0
C41 C 0.13367 0.06257 0.3207 0.0
C42 C 0.12237 0.04004 0.31413 0.0
C43 C 0.13556 0.01765 0.31438 0.0
C44 C 0.06599 0.15539 0.34746 0.0
C45 C 0.06731 0.18042 0.35363 0.0
C46 C 0.06014 0.18741 0.36996 0.0
C47 C 0.05148 0.16941 0.38044 0.0
C48 C 0.05069 0.14423 0.37436 0.0
C49 C 0.05781 0.13728 0.35808 0.0
C50 C 0.04742 0.14869 0.31985 0.0
C51 C 0.02985 0.12933 0.32063 0.0
C52 C 0.00596 0.13119 0.31286 0.0
C53 C 0.99906 0.15237 0.30407 0.0
C54 C 0.01703 0.17116 0.30268 0.0
C55 C 0.04091 0.16934 0.31056 0.0
C56 C 0.08696 0.12753 0.32719 0.0
C57 C 0.10687 0.12296 0.33906 0.0
C58 C 0.12214 0.10218 0.33684 0.0
C59 C 0.11874 0.08582 0.32231 0.0
C60 C 0.10033 0.09139 0.30974 0.0
C61 C 0.08493 0.11213 0.312 0.0
H62 H 0.00778 0.50884 0.60982 0.0
N63 N 0.98654 0.51916 0.57996 0.0
H64 H 0.9876 0.5048 0.63646 0.0
H65 H 0.93706 0.52639 0.58486 0.0
H66 H 0.91663 0.52245 0.61145 0.0
H67 H 0.94726 0.51791 0.55615 0.0
H68 H 0.93471 0.48228 0.53671 0.0
H69 H 0.01189 0.47773 0.57411 0.0
H70 H 0.99949 0.44191 0.55487 0.0
H71 H 0.03312 0.53552 0.58186 0.0
H72 H 0.95769 0.55757 0.56905 0.0
H73 H 0.0477 0.57798 0.5787 0.0
H74 H 0.97206 0.59996 0.5651 0.0
H75 H 0.07547 0.6604 0.60187 0.0
H76 H 0.08982 0.66832 0.63161 0.0
H77 H 0.05438 0.74044 0.63224 0.0
H78 H 0.0398 0.73227 0.60238 0.0
H79 H 0.03958 0.72903 0.56152 0.0
H80 H 0.06979 0.75445 0.54834 0.0
H81 H 0.12904 0.70636 0.56608 0.0
H82 H 0.09884 0.68207 0.57999 0.0
H83 H 0.07162 0.65249 0.56525 0.0
H84 H 0.0549 0.61049 0.56072 0.0
H85 H 0.98689 0.63457 0.58306 0.0
N86 N 0.04908 0.69254 0.58203 0.0
H87 H 0.00344 0.67702 0.58695 0.0
C88 C 0.97398 0.51778 0.59542 0.0
C89 C 0.98791 0.51196 0.61017 0.0
C90 C 0.97635 0.50981 0.62535 0.0
C91 C 0.95051 0.51338 0.62606 0.0
C92 C 0.93653 0.5194 0.61125 0.0
C93 C 0.9482 0.52173 0.59606 0.0
C94 C 0.98049 0.50031 0.56665 0.0
C95 C 0.95897 0.50159 0.55573 0.0
C96 C 0.95177 0.48115 0.54464 0.0
C97 C 0.96602 0.45917 0.54428 0.0
C98 C 0.98824 0.45861 0.55461 0.0
C99 C 0.99532 0.47897 0.56569 0.0
C100 C 0.99447 0.54341 0.57564 0.0
C101 C 0.01983 0.54947 0.57791 0.0
C102 C 0.02809 0.57374 0.57598 0.0
C103 C 0.01106 0.59252 0.57163 0.0
C104 C 0.98566 0.58608 0.56866 0.0
C105 C 0.9774 0.56175 0.57074 0.0
C106 C 0.05629 0.69574 0.59993 0.0
C107 C 0.0704 0.67774 0.60844 0.0
C108 C 0.07857 0.68227 0.62546 0.0
C109 C 0.07317 0.70498 0.63421 0.0
C110 C 0.05891 0.72283 0.62575 0.0
C111 C 0.05047 0.71817 0.60878 0.0
C112 C 0.06675 0.70357 0.57159 0.0
C113 C 0.05902 0.72368 0.56217 0.0
C114 C 0.0764 0.73814 0.55461 0.0
C115 C 0.10203 0.73263 0.5562 0.0
C116 C 0.10958 0.7115 0.56484 0.0
C117 C 0.09221 0.6973 0.57261 0.0
C118 C 0.0388 0.66821 0.5766 0.0
C119 C 0.05295 0.64912 0.56891 0.0
C120 C 0.04337 0.62483 0.5664 0.0
C121 C 0.01964 0.61895 0.57172 0.0
C122 C 0.0051 0.63833 0.5786 0.0
C123 C 0.01457 0.66264 0.58092 0.0
H124 H 0.63694 0.50813 0.84917 0.0
N125 N 0.5982 0.49923 0.82695 0.0
H126 H 0.64536 0.48964 0.87664 0.0
H127 H 0.56944 0.46412 0.84095 0.0
H128 H 0.57724 0.44668 0.86844 0.0
H129 H 0.60856 0.44974 0.81978 0.0
H130 H 0.63781 0.43383 0.79968 0.0
H131 H 0.61581 0.52347 0.80181 0.0
H132 H 0.64328 0.5073 0.78038 0.0
H133 H 0.58643 0.54704 0.8311 0.0
H134 H 0.5557 0.4751 0.81418 0.0
H135 H 0.54508 0.56537 0.82878 0.0
H136 H 0.5138 0.49216 0.81396 0.0
H137 H 0.42316 0.61051 0.84635 0.0
H138 H 0.41722 0.62745 0.87473 0.0
H139 H 0.42002 0.55295 0.89285 0.0
H140 H 0.42368 0.53587 0.86371 0.0
H141 H 0.37811 0.54958 0.82784 0.0
H142 H 0.34792 0.57354 0.81135 0.0
H143 H 0.40705 0.62262 0.79868 0.0
H144 H 0.43706 0.59875 0.8156 0.0
H145 H 0.46974 0.58331 0.84853 0.0
H146 H 0.51113 0.56931 0.84337 0.0
H147 H 0.48083 0.51439 0.80509 0.0
N148 N 0.42563 0.56084 0.83564 0.0
H149 H 0.43886 0.52686 0.81193 0.0
C150 C 0.60235 0.4881 0.84309 0.0
C151 C 0.62387 0.49471 0.85332 0.0
C152 C 0.62869 0.4841 0.86891 0.0
C153 C 0.61181 0.46692 0.87463 0.0
C154 C 0.59035 0.46013 0.86437 0.0
C155 C 0.58582 0.47031 0.84864 0.0
C156 C 0.61061 0.48809 0.81271 0.0
C157 C 0.61592 0.46244 0.81119 0.0
C158 C 0.63257 0.45325 0.79942 0.0
C159 C 0.64367 0.46934 0.78855 0.0
C160 C 0.63605 0.49445 0.78893 0.0
C161 C 0.62002 0.50373 0.80103 0.0
C162 C 0.57393 0.50966 0.82344 0.0
C163 C 0.57056 0.5352 0.82701 0.0
C164 C 0.54675 0.54551 0.82592 0.0
C165 C 0.52554 0.53025 0.82185 0.0
C166 C 0.52932 0.50479 0.81717 0.0
C167 C 0.55333 0.49475 0.81758 0.0
C168 C 0.42321 0.57165 0.85271 0.0
C169 C 0.42204 0.59764 0.85627 0.0
C170 C 0.41911 0.60744 0.87275 0.0
C171 C 0.41815 0.5917 0.88631 0.0
C172 C 0.42008 0.56574 0.88278 0.0
C173 C 0.4224 0.55588 0.86615 0.0
C174 C 0.40971 0.57233 0.823 0.0
C175 C 0.38461 0.56509 0.82111 0.0
C176 C 0.36741 0.57882 0.81163 0.0
C177 C 0.37503 0.60016 0.80378 0.0
C178 C 0.40054 0.60649 0.80476 0.0
C179 C 0.41776 0.59269 0.81427 0.0
C180 C 0.45084 0.55562 0.83097 0.0
C181 C 0.47176 0.56814 0.83909 0.0
C182 C 0.49582 0.56026 0.83584 0.0
C183 C 0.49982 0.54033 0.82386 0.0
C184 C 0.47882 0.52916 0.81483 0.0
C185 C 0.45469 0.53649 0.81854 0.0
H186 H 0.58017 0.93918 0.12444 0.0
N187 N 0.55345 0.95225 0.09717 0.0
H188 H 0.56631 0.93751 0.15318 0.0
H189 H 0.51071 0.97271 0.10839 0.0
H190 H 0.49672 0.97184 0.13727 0.0
H191 H 0.50972 0.95517 0.07809 0.0
H192 H 0.4855 0.91984 0.06455 0.0
H193 H 0.56766 0.90513 0.09421 0.0
H194 H 0.54347 0.8696 0.08134 0.0
H195 H 0.60039 0.95486 0.08923 0.0
H196 H 0.53117 0.995 0.08703 0.0
H197 H 0.62123 0.98928 0.07695 0.0
H198 H 0.55169 0.02962 0.07429 0.0
H199 H 0.69219 0.06865 0.07898 0.0
H200 H 0.71054 0.0801 0.10763 0.0
H201 H 0.65847 0.14093 0.11216 0.0
H202 H 0.6404 0.12949 0.08383 0.0
H203 H 0.61929 0.12658 0.05655 0.0
H204 H 0.62601 0.16437 0.04167 0.0
H205 H 0.69569 0.13449 0.02508 0.0
H206 H 0.68946 0.09758 0.04094 0.0
H207 H 0.65341 0.0454 0.04705 0.0
H208 H 0.62492 0.01131 0.0519 0.0
H209 H 0.58209 0.06216 0.08292 0.0
N210 N 0.65458 0.09066 0.06239 0.0
H211 H 0.60996 0.09622 0.07733 0.0
C212 C 0.54655 0.95608 0.11439 0.0
C213 C 0.56221 0.9469 0.12733 0.0
C214 C 0.55422 0.94605 0.14375 0.0
C215 C 0.53029 0.95443 0.14757 0.0
C216 C 0.51511 0.9649 0.13472 0.0
C217 C 0.52316 0.96568 0.11824 0.0
C218 C 0.54053 0.93263 0.08702 0.0
C219 C 0.51737 0.93659 0.07846 0.0
C220 C 0.50346 0.91632 0.07089 0.0
C221 C 0.51242 0.89177 0.0719 0.0
C222 C 0.53608 0.88817 0.08 0.0
C223 C 0.54995 0.90841 0.08743 0.0
C224 C 0.56441 0.97244 0.08905 0.0
C225 C 0.58966 0.97106 0.08584 0.0
C226 C 0.60143 0.99069 0.07866 0.0
C227 C 0.58811 0.01223 0.07446 0.0
C228 C 0.56253 0.01339 0.07744 0.0
C229 C 0.55075 0.9936 0.08466 0.0
C230 C 0.66517 0.09827 0.07913 0.0
C231 C 0.68488 0.08449 0.08618 0.0
C232 C 0.6952 0.09097 0.10254 0.0
C233 C 0.68601 0.1115 0.11209 0.0
C234 C 0.66622 0.12527 0.105 0.0
C235 C 0.65582 0.11868 0.08874 0.0
C236 C 0.65427 0.10955 0.05019 0.0
C237 C 0.6358 0.128 0.0495 0.0
C238 C 0.63961 0.14959 0.04083 0.0
C239 C 0.66175 0.15285 0.03252 0.0
C240 C 0.67881 0.13303 0.03178 0.0
C241 C 0.67516 0.11175 0.04065 0.0
C242 C 0.63409 0.07322 0.06196 0.0
C243 C 0.63734 0.04931 0.05438 0.0
C244 C 0.62122 0.02982 0.05737 0.0
C245 C 0.60159 0.03383 0.0682 0.0
C246 C 0.59699 0.05835 0.07454 0.0
C247 C 0.61303 0.07792 0.07138 0.0
H248 H 0.14108 0.60539 0.94536 0.0
N249 N 0.10337 0.61301 0.96528 0.0
H250 H 0.14857 0.6253 0.91895 0.0
H251 H 0.07254 0.64654 0.94909 0.0
H252 H 0.07956 0.66553 0.92267 0.0
H253 H 0.1141 0.66245 0.97327 0.0
H254 H 0.14706 0.67842 0.99345 0.0
H255 H 0.12618 0.5882 0.98979 0.0
H256 H 0.15762 0.60427 0.01129 0.0
H257 H 0.08828 0.56582 0.96209 0.0
H258 H 0.06422 0.63979 0.97705 0.0
H259 H 0.04673 0.54945 0.96552 0.0
H260 H 0.02172 0.62458 0.97835 0.0
H261 H 0.91894 0.50838 0.95124 0.0
H262 H 0.90789 0.49107 0.92296 0.0
H263 H 0.91097 0.56486 0.90395 0.0
H264 H 0.92007 0.58249 0.93298 0.0
H265 H 0.88107 0.57091 0.96998 0.0
H266 H 0.85356 0.54787 0.98693 0.0
H267 H 0.91346 0.49699 0.99875 0.0
H268 H 0.94074 0.52003 0.98143 0.0
H269 H 0.96644 0.53259 0.9487 0.0
H270 H 0.00937 0.54539 0.95222 0.0
H271 H 0.99 0.6046 0.98872 0.0
N272 N 0.9263 0.55804 0.96133 0.0
H273 H 0.94615 0.59322 0.98339 0.0
C274 C 0.10611 0.62393 0.94919 0.0
C275 C 0.12751 0.61838 0.9404 0.0
C276 C 0.13183 0.62985 0.92543 0.0
C277 C 0.11457 0.64686 0.91881 0.0
C278 C 0.09302 0.65228 0.92745 0.0
C279 C 0.08896 0.64122 0.94261 0.0
C280 C 0.11832 0.6239 0.97963 0.0
C281 C 0.1234 0.64966 0.9816 0.0
C282 C 0.1422 0.65884 0.99338 0.0
C283 C 0.15574 0.64258 0.00382 0.0
C284 C 0.14847 0.61727 0.00305 0.0
C285 C 0.13023 0.60803 0.99092 0.0
C286 C 0.079 0.60403 0.96867 0.0
C287 C 0.07377 0.57855 0.96589 0.0
C288 C 0.04979 0.56935 0.96765 0.0
C289 C 0.03015 0.58564 0.97162 0.0
C290 C 0.03597 0.61116 0.97531 0.0
C291 C 0.06028 0.62012 0.97425 0.0
C292 C 0.91984 0.54704 0.94443 0.0
C293 C 0.91677 0.52108 0.94118 0.0
C294 C 0.91085 0.51103 0.92476 0.0
C295 C 0.90867 0.52644 0.91099 0.0
C296 C 0.91205 0.55238 0.91421 0.0
C297 C 0.91743 0.56252 0.93078 0.0
C298 C 0.91283 0.54725 0.97439 0.0
C299 C 0.88843 0.55524 0.97665 0.0
C300 C 0.87278 0.54202 0.98638 0.0
C301 C 0.88124 0.52042 0.99411 0.0
C302 C 0.90628 0.51335 0.99278 0.0
C303 C 0.92199 0.52668 0.98304 0.0
C304 C 0.95266 0.5625 0.96538 0.0
C305 C 0.97119 0.54846 0.95739 0.0
C306 C 0.9962 0.55567 0.9597 0.0
C307 C 0.00368 0.57644 0.97065 0.0
C308 C 0.98523 0.58913 0.97968 0.0
C309 C 0.96005 0.58244 0.97687 0.0
H310 H 0.62465 0.40914 0.20862 0.0
N311 N 0.6252 0.45534 0.22617 0.0
H312 H 0.63005 0.40087 0.1788 0.0
H313 H 0.63076 0.4883 0.20288 0.0
H314 H 0.63364 0.48032 0.1724 0.0
H315 H 0.67104 0.45935 0.24045 0.0
H316 H 0.6947 0.42742 0.25505 0.0
H317 H 0.60546 0.41257 0.23759 0.0
H318 H 0.62915 0.37994 0.25118 0.0
H319 H 0.57919 0.43434 0.21837 0.0
H320 H 0.61738 0.49952 0.24163 0.0
H321 H 0.5393 0.45578 0.22009 0.0
H322 H 0.57782 0.52161 0.24275 0.0
H323 H 0.42348 0.55057 0.20594 0.0
H324 H 0.41009 0.56139 0.17709 0.0
H325 H 0.48659 0.57802 0.16764 0.0
H326 H 0.49975 0.56655 0.19609 0.0
H327 H 0.50619 0.58951 0.2219 0.0
H328 H 0.50362 0.63228 0.23371 0.0
H329 H 0.4326 0.61525 0.25342 0.0
H330 H 0.4348 0.57267 0.24067 0.0
H331 H 0.48346 0.51376 0.20078 0.0
H332 H 0.5196 0.48765 0.205 0.0
H333 H 0.53756 0.52661 0.25365 0.0
N334 N 0.46934 0.55383 0.2209 0.0
H335 H 0.50191 0.55351 0.24921 0.0
C336 C 0.62794 0.44952 0.20826 0.0
C337 C 0.62707 0.42489 0.20101 0.0
C338 C 0.62972 0.42014 0.18366 0.0
C339 C 0.63233 0.43985 0.17292 0.0
C340 C 0.63239 0.4645 0.18017 0.0
C341 C 0.63053 0.46919 0.19762 0.0
C342 C 0.63667 0.43829 0.23768 0.0
C343 C 0.66166 0.44233 0.24325 0.0
C344 C 0.67519 0.42389 0.25141 0.0
C345 C 0.66409 0.40071 0.25389 0.0
C346 C 0.63841 0.3975 0.24955 0.0
C347 C 0.62475 0.41621 0.24167 0.0
C348 C 0.60124 0.46536 0.23004 0.0
C349 C 0.5789 0.45304 0.2243 0.0
C350 C 0.55613 0.46551 0.22504 0.0
C351 C 0.55531 0.4906 0.23134 0.0
C352 C 0.5776 0.50226 0.23799 0.0
C353 C 0.60028 0.48971 0.23736 0.0
C354 C 0.46252 0.55766 0.20323 0.0
C355 C 0.43733 0.55614 0.19749 0.0
C356 C 0.42972 0.56255 0.18108 0.0
C357 C 0.44725 0.57065 0.17006 0.0
C358 C 0.47261 0.57156 0.17569 0.0
C359 C 0.48017 0.56521 0.19207 0.0
C360 C 0.47045 0.57789 0.23024 0.0
C361 C 0.49011 0.59492 0.22881 0.0
C362 C 0.48872 0.61939 0.23576 0.0
C363 C 0.46776 0.62739 0.24439 0.0
C364 C 0.44877 0.60993 0.24655 0.0
C365 C 0.45009 0.5855 0.23946 0.0
C366 C 0.49077 0.53758 0.22384 0.0
C367 C 0.4954 0.51737 0.2122 0.0
C368 C 0.51593 0.50189 0.21481 0.0
C369 C 0.53194 0.50534 0.22951 0.0
C370 C 0.52618 0.524 0.24188 0.0
C371 C 0.50573 0.53964 0.23921 0.0
H372 H 0.45701 0.02501 0.44864 0.0
N373 N 0.49465 0.02069 0.4718 0.0
H374 H 0.44919 1.0001 0.42173 0.0
H375 H 0.52244 0.98126 0.45994 0.0
H376 H 0.5148 0.95652 0.43334 0.0
H377 H 0.49411 0.97299 0.48274 0.0
H378 H 0.46607 0.95774 0.50259 0.0
H379 H 0.47054 0.04838 0.49442 0.0
H380 H 0.44408 0.03364 0.5158 0.0
H381 H 0.50688 0.06467 0.46128 0.0
H382 H 0.53732 0.00204 0.4869 0.0
H383 H 0.54893 0.08071 0.4584 0.0
H384 H 0.57962 0.0173 0.48344 0.0
H385 H 0.65363 0.11297 0.43581 0.0
H386 H 0.66053 0.12768 0.40781 0.0
H387 H 0.69066 0.05562 0.39281 0.0
H388 H 0.68294 0.04098 0.4207 0.0
H389 H 0.71125 0.04946 0.4533 0.0
H390 H 0.74683 0.07128 0.46809 0.0
H391 H 0.69909 0.1332 0.48153 0.0
H392 H 0.66379 0.11142 0.4661 0.0
H393 H 0.62006 0.0721 0.4295 0.0
H394 H 0.57958 0.06486 0.43953 0.0
H395 H 0.61286 0.04862 0.48868 0.0
N396 N 0.6658 0.06707 0.44711 0.0
H397 H 0.65418 0.05569 0.47858 0.0
C398 C 0.49037 0.00531 0.45624 0.0
C399 C 0.46963 0.01006 0.44533 0.0
C400 C 0.46516 0.99575 0.43004 0.0
C401 C 0.48149 0.97645 0.42539 0.0
C402 C 0.50212 0.97153 0.43643 0.0
C403 C 0.5065 0.98573 0.45171 0.0
C404 C 0.48369 0.01186 0.48656 0.0
C405 C 0.4834 0.98643 0.48992 0.0
C406 C 0.4674 0.9777 0.50159 0.0
C407 C 0.45193 0.99429 0.51059 0.0
C408 C 0.45472 0.02006 0.50864 0.0
C409 C 0.47016 0.02866 0.4966 0.0
C410 C 0.51902 0.03209 0.47406 0.0
C411 C 0.5227 0.05472 0.46664 0.0
C412 C 0.54673 0.06368 0.46484 0.0
C413 C 0.56766 0.04997 0.4703 0.0
C414 C 0.56393 0.02833 0.47908 0.0
C415 C 0.53975 0.01951 0.48102 0.0
C416 C 0.6677 0.07575 0.43028 0.0
C417 C 0.66153 0.10033 0.42643 0.0
C418 C 0.66561 0.10873 0.41042 0.0
C419 C 0.67621 0.09288 0.398 0.0
C420 C 0.68204 0.06824 0.40189 0.0
C421 C 0.67777 0.05982 0.41784 0.0
C422 C 0.68495 0.07872 0.45859 0.0
C423 C 0.70843 0.06751 0.45976 0.0
C424 C 0.72872 0.08005 0.46829 0.0
C425 C 0.72594 0.10414 0.47596 0.0
C426 C 0.70204 0.11488 0.47551 0.0
C427 C 0.68176 0.10237 0.46682 0.0
C428 C 0.64092 0.06587 0.45346 0.0
C429 C 0.61918 0.06795 0.44266 0.0
C430 C 0.59562 0.06369 0.44843 0.0
C431 C 0.59285 0.05663 0.46503 0.0
C432 C 0.61432 0.05423 0.47585 0.0
C433 C 0.638 0.05859 0.47009 0.0
H434 H 0.09444 0.00603 0.68934 0.0
N435 N 0.11944 0.01797 0.71874 0.0
H436 H 0.11117 0.99912 0.66134 0.0
H437 H 0.16861 0.02102 0.71155 0.0
H438 H 0.18544 0.01486 0.68367 0.0
H439 H 0.16046 0.02414 0.74092 0.0
H440 H 0.17692 0.99318 0.7603 0.0
H441 H 0.09782 0.97588 0.7258 0.0
H442 H 0.11376 0.9451 0.7452 0.0
H443 H 0.07571 0.03273 0.72945 0.0
H444 H 0.14847 0.06017 0.71951 0.0
H445 H 0.06105 0.07554 0.73377 0.0
H446 H 0.13368 0.10282 0.72238 0.0
H447 H 0.01278 0.18533 0.70357 0.0
H448 H 0.99559 0.18969 0.67481 0.0
H449 H 0.06942 0.20378 0.65865 0.0
H450 H 0.08676 0.19926 0.6878 0.0
H451 H 0.07083 0.23983 0.72105 0.0
H452 H 0.04406 0.27054 0.7346 0.0
H453 H 0.99703 0.21107 0.74935 0.0
H454 H 0.02365 0.18051 0.73532 0.0
H455 H 0.03406 0.14813 0.71142 0.0
H456 H 0.04908 0.10666 0.71627 0.0
H457 H 0.11948 0.13787 0.73731 0.0
N458 N 0.06178 0.19156 0.71518 0.0
H459 H 0.10463 0.17959 0.73116 0.0
C460 C 0.13016 0.01395 0.70252 0.0
C461 C 0.11432 0.00791 0.68813 0.0
C462 C 0.12392 0.00418 0.67215 0.0
C463 C 0.14968 0.00654 0.67022 0.0
C464 C 0.16557 0.0126 0.68471 0.0
C465 C 0.15593 0.01624 0.7007 0.0
C466 C 0.12806 0.00202 0.7318 0.0
C467 C 0.15014 0.00701 0.74193 0.0
C468 C 0.15947 0.98935 0.75299 0.0
C469 C 0.14664 0.96669 0.75427 0.0
C470 C 0.12393 0.96247 0.74471 0.0
C471 C 0.11484 0.97993 0.73356 0.0
C472 C 0.1129 0.04322 0.72377 0.0
C473 C 0.08855 0.04806 0.72833 0.0
C474 C 0.08016 0.07257 0.73058 0.0
C475 C 0.0959 0.09284 0.72797 0.0
C476 C 0.12092 0.08788 0.72457 0.0
C477 C 0.12942 0.06333 0.7227 0.0
C478 C 0.05122 0.19216 0.69794 0.0
C479 C 0.02542 0.18925 0.69394 0.0
C480 C 0.01552 0.19188 0.67744 0.0
C481 C 0.03111 0.19736 0.66452 0.0
C482 C 0.05697 0.19946 0.66836 0.0
C483 C 0.06688 0.19695 0.68495 0.0
C484 C 0.04931 0.20794 0.72705 0.0
C485 C 0.0552 0.23342 0.72769 0.0
C486 C 0.03981 0.25095 0.73547 0.0
C487 C 0.01813 0.24333 0.7429 0.0
C488 C 0.01331 0.21761 0.74346 0.0
C489 C 0.02874 0.20004 0.7356 0.0
C490 C 0.0685 0.1671 0.72054 0.0
C491 C 0.05269 0.14623 0.71711 0.0
C492 C 0.06129 0.12231 0.72016 0.0
C493 C 0.08572 0.11863 0.72705 0.0
C494 C 0.10082 0.13978 0.73158 0.0
C495 C 0.09231 0.1637 0.72825 0.0
O496 O 0.3789 0.69133 0.00337 0.0
Cd497 Cd 0.36847 0.70707 0.02632 0.0
Cd498 Cd 0.40547 0.67958 0.03892 0.0
O499 O 0.40229 0.66234 0.01479 0.0
O500 O 0.33299 0.71727 0.02317 0.0
O501 O 0.34568 0.6868 0.03927 0.0
C502 C 0.3276 0.69963 0.03274 0.0
C503 C 0.40883 0.6544 0.06202 0.0
C504 C 0.3918 0.67162 0.0018 0.0
C505 C 0.41196 0.73558 0.04183 0.0
O506 O 0.42249 0.71443 0.04235 0.0
O507 O 0.389 0.73696 0.03711 0.0
O508 O 0.42714 0.65716 0.05248 0.0
O509 O 0.38828 0.66584 0.05833 0.0
O510 O 0.43383 0.86999 0.30868 0.0
Cd511 Cd 0.421 0.85586 0.28485 0.0
Cd512 Cd 0.46873 0.86412 0.27774 0.0
O513 O 0.47149 0.88062 0.30202 0.0
O514 O 0.38407 0.8555 0.28564 0.0
O515 O 0.40415 0.88043 0.26972 0.0
C516 C 0.38339 0.87313 0.27528 0.0
C517 C 0.47853 0.88746 0.25515 0.0
C518 C 0.45488 0.8802 0.31278 0.0
C519 C 0.45127 0.81115 0.27395 0.0
O520 O 0.47006 0.82568 0.27444 0.0
O521 O 0.42983 0.81979 0.27684 0.0
O522 O 0.49574 0.87836 0.26504 0.0
O523 O 0.45555 0.8834 0.25819 0.0
O524 O 0.2428 0.91809 0.49861 0.0
Cd525 Cd 0.25276 0.90573 0.52238 0.0
Cd526 Cd 0.2129 0.93112 0.53035 0.0
O527 O 0.21662 0.9468 0.50753 0.0
O528 O 0.28921 0.89865 0.52284 0.0
O529 O 0.27292 0.93005 0.53786 0.0
C530 C 0.29246 0.91844 0.53288 0.0
C531 C 0.20665 0.95487 0.55542 0.0
C532 C 0.22874 0.93656 0.4957 0.0
C533 C 0.20979 0.87553 0.53061 0.0
O534 O 0.19785 0.89575 0.52919 0.0
O535 O 0.23343 0.87546 0.53034 0.0
O536 O 0.18936 0.95225 0.54338 0.0
O537 O 0.22806 0.9449 0.55289 0.0
O538 O 0.18015 0.748 0.75054 0.0
Cd539 Cd 0.20207 0.75703 0.77247 0.0
Cd540 Cd 0.17595 0.71851 0.78347 0.0
O541 O 0.154 0.72278 0.76162 0.0
O542 O 0.21581 0.79063 0.76888 0.0
O543 O 0.18894 0.78403 0.78828 0.0
C544 C 0.20182 0.79956 0.78043 0.0
C545 C 0.15772 0.71259 0.80895 0.0
C546 C 0.16043 0.73471 0.74919 0.0
C547 C 0.23081 0.71133 0.78 0.0
O548 O 0.20967 0.70104 0.78101 0.0
O549 O 0.23238 0.73466 0.77821 0.0
O550 O 0.15646 0.6957 0.79663 0.0
O551 O 0.1687 0.73345 0.80664 0.0
O552 O 0.93364 0.23284 0.54622 0.0
Cd553 Cd 0.9157 0.2419 0.52356 0.0
Cd554 Cd 0.94041 0.20181 0.51147 0.0
O555 O 0.95767 0.20352 0.53547 0.0
O556 O 0.90358 0.27648 0.52801 0.0
O557 O 0.93257 0.26691 0.51002 0.0
C558 C 0.91931 0.2837 0.51761 0.0
C559 C 0.96542 0.19918 0.4884 0.0
C560 C 0.9511 0.21715 0.54809 0.0
C561 C 0.88457 0.19839 0.5093 0.0
O562 O 0.90494 0.18665 0.50803 0.0
O563 O 0.88474 0.22134 0.51431 0.0
O564 O 0.96198 0.18026 0.4973 0.0
O565 O 0.9546 0.21989 0.49265 0.0
O566 O 0.86149 0.42487 0.79249 0.0
Cd567 Cd 0.85118 0.40707 0.76925 0.0
Cd568 Cd 0.88451 0.43772 0.7587 0.0
O569 O 0.8787 0.45697 0.7815 0.0
O570 O 0.81659 0.39435 0.77052 0.0
O571 O 0.82644 0.42501 0.75451 0.0
C572 C 0.80951 0.41139 0.76046 0.0
C573 C 0.88935 0.46011 0.73464 0.0
C574 C 0.87094 0.44667 0.79425 0.0
C575 C 0.89694 0.38288 0.7591 0.0
O576 O 0.90509 0.40518 0.75934 0.0
O577 O 0.87395 0.37879 0.7608 0.0
O578 O 0.90612 0.4605 0.74701 0.0
O579 O 0.86918 0.44747 0.73609 0.0
O580 O 0.68761 0.3848 0.05018 0.0
Cd581 Cd 0.70457 0.37437 0.02805 0.0
Cd582 Cd 0.67936 0.41374 0.01739 0.0
O583 O 0.66213 0.41302 0.03982 0.0
O584 O 0.71716 0.34018 0.03175 0.0
O585 O 0.68699 0.34779 0.01248 0.0
C586 C 0.70066 0.33178 0.02027 0.0
C587 C 0.65776 0.41539 0.99111 0.0
C588 C 0.67002 0.40032 0.05205 0.0
C589 C 0.73475 0.41847 0.01996 0.0
O590 O 0.7141 0.42985 0.01899 0.0
O591 O 0.73525 0.39513 0.02199 0.0
O592 O 0.6583 0.4342 0.00209 0.0
O593 O 0.66854 0.39502 0.99539 0.0
O594 O 0.76016 0.18512 0.2342 0.0
Cd595 Cd 0.7727 0.20136 0.25757 0.0
Cd596 Cd 0.76482 0.15425 0.26691 0.0
O597 O 0.75018 0.14802 0.24234 0.0
O598 O 0.77346 0.23755 0.25354 0.0
O599 O 0.74832 0.22154 0.2712 0.0
C600 C 0.75601 0.24079 0.26391 0.0
C601 C 0.74148 0.14444 0.28947 0.0
C602 C 0.75112 0.16335 0.23078 0.0
C603 C 0.81737 0.17305 0.27077 0.0
O604 O 0.80304 0.15421 0.27098 0.0
O605 O 0.80866 0.194 0.2667 0.0
O606 O 0.75168 0.12729 0.28012 0.0
O607 O 0.74419 0.1674 0.2858 0.0
H608 H 0.27597 0.98243 0.29386 0.0
H609 H 0.33634 0.85389 0.27441 0.0
H610 H 0.23103 0.91978 0.27275 0.0
H611 H 0.37676 0.92195 0.2682 0.0
H612 H 0.29736 0.87734 0.2736 0.0
H613 H 0.31298 0.96124 0.28424 0.0
C614 C 0.27366 0.9645 0.28689 0.0
C615 C 0.25013 0.95282 0.28439 0.0
C616 C 0.3147 0.88706 0.27204 0.0
C617 C 0.29286 0.92812 0.27382 0.0
C618 C 0.33692 0.87371 0.27254 0.0
C619 C 0.35974 0.88607 0.27146 0.0
C620 C 0.31541 0.91305 0.27097 0.0
C621 C 0.35951 0.91175 0.26904 0.0
C622 C 0.29494 0.95235 0.28147 0.0
C623 C 0.24874 0.92928 0.2755 0.0
N624 N 0.33771 0.92454 0.26927 0.0
N625 N 0.26984 0.91751 0.27085 0.0
H626 H 0.14846 0.74534 0.57098 0.0
H627 H 0.16161 0.8654 0.51986 0.0
H628 H 0.09849 0.76029 0.5279 0.0
H629 H 0.2258 0.83275 0.54528 0.0
H630 H 0.13743 0.82795 0.52397 0.0
H631 H 0.17677 0.77746 0.56277 0.0
C632 C 0.14356 0.75496 0.55961 0.0
C633 C 0.12078 0.75009 0.55021 0.0
C634 C 0.15686 0.82885 0.52852 0.0
C635 C 0.15297 0.78751 0.54111 0.0
C636 C 0.17064 0.85028 0.52628 0.0
C637 C 0.19571 0.85223 0.53234 0.0
C638 C 0.16802 0.80936 0.53721 0.0
C639 C 0.20651 0.83198 0.54042 0.0
C640 C 0.15975 0.77344 0.55502 0.0
C641 C 0.11545 0.7637 0.53581 0.0
N642 N 0.19248 0.81146 0.54284 0.0
N643 N 0.13124 0.78199 0.53184 0.0
H644 H 0.3321 0.58727 0.78451 0.0
H645 H 0.2797 0.72677 0.78505 0.0
H646 H 0.37431 0.65137 0.80606 0.0
H647 H 0.23365 0.66054 0.77695 0.0
H648 H 0.31661 0.70021 0.78777 0.0
H649 H 0.29803 0.61491 0.7763 0.0
C650 C 0.33431 0.60717 0.78739 0.0
C651 C 0.35601 0.61693 0.7962 0.0
C652 C 0.29841 0.69156 0.7853 0.0
C653 C 0.31708 0.64871 0.78676 0.0
C654 C 0.27736 0.70669 0.78374 0.0
C655 C 0.25353 0.69586 0.78094 0.0
C656 C 0.29559 0.66547 0.78387 0.0
C657 C 0.25161 0.66972 0.7793 0.0
C658 C 0.31486 0.62294 0.78268 0.0
C659 C 0.35802 0.64297 0.79923 0.0
N660 N 0.27233 0.65545 0.78081 0.0
N661 N 0.3387 0.65793 0.79466 0.0
H662 H 0.46171 0.88588 0.07321 0.0
H663 H 0.46271 0.74054 0.04609 0.0
H664 H 0.52713 0.84731 0.05655 0.0
H665 H 0.39487 0.78336 0.04707 0.0
H666 H 0.4868 0.77905 0.05217 0.0
H667 H 0.43691 0.84833 0.06521 0.0
C668 C 0.47085 0.8697 0.06765 0.0
C669 C 0.49667 0.86984 0.06564 0.0
C670 C 0.46664 0.78002 0.05102 0.0
C671 C 0.46837 0.82652 0.0569 0.0
C672 C 0.45286 0.75802 0.04765 0.0
C673 C 0.42671 0.7587 0.04607 0.0
C674 C 0.45422 0.80289 0.05303 0.0
C675 C 0.41499 0.78195 0.04815 0.0
C676 C 0.45667 0.84818 0.06321 0.0
C677 C 0.50743 0.84801 0.05866 0.0
N678 N 0.42883 0.80311 0.0516 0.0
N679 N 0.49329 0.82721 0.05468 0.0
H680 H 0.16705 0.68945 0.01922 0.0
H681 H 0.30925 0.65554 0.04257 0.0
H682 H 0.19827 0.61581 0.01115 0.0
H683 H 0.2861 0.72794 0.02685 0.0
H684 H 0.26552 0.64196 0.04039 0.0
H685 H 0.20798 0.7045 0.03087 0.0
C686 C 0.18227 0.67633 0.02 0.0
C687 C 0.17901 0.6513 0.01382 0.0
C688 C 0.27004 0.66095 0.03773 0.0
C689 C 0.22568 0.66841 0.02771 0.0
C690 C 0.29494 0.66876 0.03904 0.0
C691 C 0.3013 0.69279 0.03464 0.0
C692 C 0.25142 0.67741 0.03221 0.0
C693 C 0.282 0.70914 0.03014 0.0
C694 C 0.20558 0.68497 0.02678 0.0
C695 C 0.19946 0.63516 0.0158 0.0
N696 N 0.2579 0.70109 0.0289 0.0
N697 N 0.22188 0.64403 0.02244 0.0
H698 H 0.42518 0.6555 0.24369 0.0
H699 H 0.49467 0.78471 0.27116 0.0
H700 H 0.50405 0.66066 0.25785 0.0
H701 H 0.41461 0.7756 0.2681 0.0
H702 H 0.49884 0.73974 0.26495 0.0
H703 H 0.42123 0.69977 0.25163 0.0
C704 C 0.44165 0.6658 0.24869 0.0
C705 C 0.465 0.65415 0.25012 0.0
C706 C 0.48038 0.74761 0.26569 0.0
C707 C 0.46063 0.70527 0.25886 0.0
C708 C 0.47797 0.77329 0.26917 0.0
C709 C 0.45424 0.78399 0.27013 0.0
C710 C 0.45891 0.73253 0.263 0.0
C711 C 0.43328 0.76822 0.2675 0.0
C712 C 0.43939 0.6912 0.2531 0.0
C713 C 0.48573 0.66881 0.25629 0.0
N714 N 0.43611 0.74334 0.26399 0.0
N715 N 0.48307 0.69361 0.26035 0.0
H716 H 0.44939 0.9505 0.52751 0.0
H717 H 0.30489 0.96641 0.54378 0.0
H718 H 0.40603 0.01553 0.51539 0.0
H719 H 0.33749 0.89532 0.52979 0.0
H720 H 0.34608 0.98602 0.54356 0.0
H721 H 0.41207 0.93188 0.5379 0.0
C722 C 0.43227 0.96107 0.52713 0.0
C723 C 0.43106 0.98458 0.52013 0.0
C724 C 0.34424 0.96604 0.54089 0.0
C725 C 0.38853 0.96356 0.5327 0.0
C726 C 0.3208 0.9548 0.54111 0.0
C727 C 0.31771 0.92924 0.53656 0.0
C728 C 0.36477 0.95156 0.53634 0.0
C729 C 0.33901 0.91514 0.53317 0.0
C730 C 0.41104 0.95043 0.53322 0.0
C731 C 0.40833 0.99754 0.5207 0.0
N732 N 0.36163 0.92652 0.53298 0.0
N733 N 0.38802 0.9868 0.52672 0.0
H734 H 0.12359 0.93617 0.77525 0.0
H735 H 0.23154 0.83645 0.77022 0.0
H736 H 0.1949 0.95046 0.75535 0.0
H737 H 0.16409 0.82481 0.7957 0.0
H738 H 0.22119 0.8805 0.7688 0.0
H739 H 0.14033 0.89796 0.78675 0.0
C740 C 0.1429 0.93145 0.77353 0.0
C741 C 0.15777 0.94634 0.76412 0.0
C742 C 0.20883 0.86846 0.77497 0.0
C743 C 0.17703 0.90253 0.77713 0.0
C744 C 0.21476 0.84327 0.77581 0.0
C745 C 0.19847 0.82686 0.78288 0.0
C746 C 0.18622 0.87728 0.78099 0.0
C747 C 0.1771 0.83678 0.79005 0.0
C748 C 0.15247 0.90966 0.78013 0.0
C749 C 0.18276 0.93955 0.76251 0.0
N750 N 0.17135 0.86127 0.78864 0.0
N751 N 0.19146 0.91794 0.76869 0.0
H752 H 0.68411 0.49676 0.78023 0.0
H753 H 0.76947 0.38189 0.76584 0.0
H754 H 0.65292 0.42214 0.77399 0.0
H755 H 0.78863 0.45447 0.74967 0.0
H756 H 0.72616 0.3953 0.76749 0.0
H757 H 0.72153 0.48156 0.76762 0.0
C758 C 0.68468 0.47728 0.77588 0.0
C759 C 0.66506 0.46076 0.77846 0.0
C760 C 0.73973 0.4081 0.76321 0.0
C761 C 0.70885 0.44302 0.76448 0.0
C762 C 0.76446 0.40047 0.76228 0.0
C763 C 0.78273 0.4172 0.75781 0.0
C764 C 0.73338 0.4328 0.76002 0.0
C765 C 0.77517 0.44101 0.75326 0.0
C766 C 0.70633 0.46857 0.76874 0.0
C767 C 0.66767 0.43556 0.7728 0.0
N768 N 0.75117 0.44829 0.75484 0.0
N769 N 0.68934 0.42739 0.7664 0.0
H770 H 0.70774 0.17523 0.03489 0.0
H771 H 0.65956 0.30719 0.00479 0.0
H772 H 0.63144 0.18766 0.01711 0.0
H773 H 0.73172 0.2944 0.02966 0.0
H774 H 0.65066 0.26223 0.00444 0.0
H775 H 0.71838 0.21722 0.02804 0.0
C776 C 0.69323 0.18656 0.02922 0.0
C777 C 0.66857 0.17769 0.02658 0.0
C778 C 0.66855 0.26928 0.00977 0.0
C779 C 0.68068 0.22654 0.01913 0.0
C780 C 0.6737 0.29489 0.00989 0.0
C781 C 0.69634 0.30457 0.0174 0.0
C782 C 0.68626 0.2533 0.01711 0.0
C783 C 0.71393 0.28781 0.02388 0.0
C784 C 0.69933 0.21076 0.02547 0.0
C785 C 0.65061 0.19374 0.01958 0.0
N786 N 0.70846 0.26309 0.02367 0.0
N787 N 0.65697 0.21746 0.0162 0.0
H788 H 0.96672 0.11651 0.28904 0.0
H789 H 0.85262 0.21018 0.27626 0.0
H790 H 0.97132 0.19524 0.30394 0.0
H791 H 0.84385 0.13007 0.27483 0.0
H792 H 0.89728 0.2054 0.2831 0.0
H793 H 0.9227 0.12156 0.28036 0.0
C794 C 0.95854 0.13486 0.29049 0.0
C795 C 0.97283 0.15544 0.29734 0.0
C796 C 0.88556 0.18888 0.28129 0.0
C797 C 0.92245 0.16138 0.2872 0.0
C798 C 0.86006 0.19158 0.27737 0.0
C799 C 0.84442 0.1705 0.27503 0.0
C800 C 0.89555 0.16491 0.28273 0.0
C801 C 0.85515 0.14686 0.27662 0.0
C802 C 0.93341 0.13773 0.28548 0.0
C803 C 0.96123 0.17887 0.29854 0.0
N804 N 0.88005 0.14471 0.28033 0.0
N805 N 0.93674 0.18117 0.29357 0.0
H806 H 0.91818 0.44108 0.54112 0.0
H807 H 0.9587 0.30654 0.50411 0.0
H808 H 0.99237 0.42411 0.52597 0.0
H809 H 0.88934 0.32219 0.52729 0.0
H810 H 0.96809 0.35139 0.50588 0.0
H811 H 0.90426 0.39984 0.52969 0.0
C812 C 0.93145 0.42892 0.53504 0.0
C813 C 0.95658 0.436 0.53471 0.0
C814 C 0.95065 0.345 0.51034 0.0
C815 C 0.94083 0.38841 0.5219 0.0
C816 C 0.94523 0.31943 0.50926 0.0
C817 C 0.92337 0.31062 0.51579 0.0
C818 C 0.93402 0.3618 0.51791 0.0
C819 C 0.90658 0.32814 0.52232 0.0
C820 C 0.92352 0.40524 0.52864 0.0
C821 C 0.97294 0.41924 0.52682 0.0
N822 N 0.91236 0.35284 0.52336 0.0
N823 N 0.96486 0.39611 0.52091 0.0
H824 H 0.7675 0.08687 0.49363 0.0
H825 H 0.83815 0.21861 0.50409 0.0
H826 H 0.73559 0.15432 0.47474 0.0
H827 H 0.8762 0.14798 0.50551 0.0
H828 H 0.79865 0.19616 0.49757 0.0
H829 H 0.80575 0.11003 0.50253 0.0
C830 C 0.76844 0.10654 0.49137 0.0
C831 C 0.74825 0.11854 0.48324 0.0
C832 C 0.81567 0.18562 0.49932 0.0
C833 C 0.79196 0.14523 0.49368 0.0
C834 C 0.8382 0.19839 0.50306 0.0
C835 C 0.86054 0.18515 0.50527 0.0
C836 C 0.81541 0.15942 0.49802 0.0
C837 C 0.85947 0.15896 0.50379 0.0
C838 C 0.79029 0.11974 0.49651 0.0
C839 C 0.75047 0.14425 0.48109 0.0
N840 N 0.83728 0.14696 0.50031 0.0
N841 N 0.77195 0.1567 0.48623 0.0
H842 H 0.96707 0.24017 0.73879 0.0
H843 H 0.94784 0.38513 0.76092 0.0
H844 H 0.02653 0.28991 0.75881 0.0
H845 H 0.88639 0.33271 0.75412 0.0
H846 H 0.97689 0.35044 0.75913 0.0
H847 H 0.93711 0.27338 0.74409 0.0
C848 C 0.97384 0.25788 0.74461 0.0
C849 C 0.99949 0.26222 0.74826 0.0
C850 C 0.95706 0.34648 0.75808 0.0
C851 C 0.96521 0.3006 0.75389 0.0
C852 C 0.94042 0.36632 0.759 0.0
C853 C 0.9146 0.36186 0.75761 0.0
C854 C 0.94789 0.32194 0.75558 0.0
C855 C 0.90614 0.33703 0.75524 0.0
C856 C 0.95669 0.27693 0.74748 0.0
C857 C 0.00705 0.2858 0.75548 0.0
N858 N 0.92275 0.318 0.75421 0.0
N859 N 0.99004 0.30414 0.75789 0.0
H860 H 0.87801 0.46925 0.99163 0.0
H861 H 0.74103 0.46888 0.02376 0.0
H862 H 0.8429 0.53448 0.01397 0.0
H863 H 0.78162 0.40087 0.01365 0.0
H864 H 0.7788 0.49286 0.02066 0.0
H865 H 0.84423 0.44344 0.00058 0.0
C866 C 0.86351 0.47812 0.99873 0.0
C867 C 0.86319 0.50417 0.00189 0.0
C868 C 0.77958 0.47269 0.01924 0.0
C869 C 0.82415 0.47473 0.01179 0.0
C870 C 0.75794 0.45895 0.02091 0.0
C871 C 0.7581 0.43281 0.01881 0.0
C872 C 0.80159 0.46029 0.01519 0.0
C873 C 0.78066 0.421 0.01532 0.0
C874 C 0.84411 0.46335 0.00373 0.0
C875 C 0.84367 0.51457 0.01094 0.0
N876 N 0.80147 0.43486 0.01343 0.0
N877 N 0.82482 0.49988 0.01538 0.0
H878 H 0.71158 0.38979 0.24524 0.0
H879 H 0.71325 0.25322 0.27995 0.0
H880 H 0.65238 0.36192 0.27369 0.0
H881 H 0.7722 0.2849 0.25317 0.0
H882 H 0.69222 0.29379 0.2805 0.0
H883 H 0.73562 0.35285 0.25096 0.0
C884 C 0.70373 0.37618 0.253 0.0
C885 C 0.67977 0.37919 0.25898 0.0
C886 C 0.7099 0.29188 0.27468 0.0
C887 C 0.70722 0.33597 0.26514 0.0
C888 C 0.72193 0.26876 0.2744 0.0
C889 C 0.74439 0.2656 0.26634 0.0
C890 C 0.72045 0.3119 0.26687 0.0
C891 C 0.75479 0.28636 0.25936 0.0
C892 C 0.71747 0.35483 0.25612 0.0
C893 C 0.67057 0.36033 0.26858 0.0
N894 N 0.74268 0.30849 0.25968 0.0
N895 N 0.68421 0.33942 0.27123 0.0
H896 H 0.16433 0.99309 0.40315 0.0
H897 H 0.255 0.92275 0.468 0.0
H898 H 0.23365 0.95976 0.38912 0.0
H899 H 0.19474 0.9701 0.48369 0.0
H900 H 0.24725 0.93539 0.43896 0.0
H901 H 0.17467 0.98392 0.43266 0.0
C902 C 0.18173 0.98383 0.4063 0.0
C903 C 0.19811 0.97708 0.39367 0.0
C904 C 0.23584 0.94314 0.44878 0.0
C905 C 0.2101 0.96654 0.42741 0.0
C906 C 0.24023 0.93591 0.46537 0.0
C907 C 0.22543 0.94529 0.4783 0.0
C908 C 0.21635 0.95968 0.44506 0.0
C909 C 0.20661 0.96236 0.47414 0.0
C910 C 0.1877 0.97873 0.42316 0.0
C911 C 0.22057 0.96542 0.39849 0.0
N912 N 0.20249 0.96884 0.45786 0.0
N913 N 0.22583 0.96034 0.41496 0.0
H914 H 0.07308 0.67469 0.66084 0.0
H915 H 0.16364 0.76289 0.72165 0.0
H916 H 0.09677 0.7475 0.64765 0.0
H917 H 0.12324 0.70091 0.73941 0.0
H918 H 0.14036 0.75694 0.69415 0.0
H919 H 0.09245 0.68316 0.68946 0.0
C920 C 0.0823 0.69248 0.66401 0.0
C921 C 0.08339 0.71041 0.65188 0.0
C922 C 0.13647 0.74476 0.70411 0.0
C923 C 0.10565 0.72019 0.6845 0.0
C924 C 0.14981 0.74809 0.7198 0.0
C925 C 0.14547 0.7323 0.73283 0.0
C926 C 0.1189 0.72529 0.70135 0.0
C927 C 0.12721 0.71352 0.72973 0.0
C928 C 0.09324 0.69736 0.68035 0.0
C929 C 0.09535 0.73326 0.65667 0.0
N930 N 0.11475 0.7104 0.71426 0.0
N931 N 0.10622 0.73742 0.67257 0.0
H932 H 0.39388 0.57109 0.91204 0.0
H933 H 0.3917 0.69391 0.97169 0.0
H934 H 0.43495 0.63705 0.90107 0.0
H935 H 0.3994 0.62224 0.99331 0.0
H936 H 0.39866 0.67387 0.94365 0.0
H937 H 0.38782 0.58993 0.94042 0.0
C938 C 0.40183 0.58937 0.91552 0.0
C939 C 0.41488 0.60245 0.90391 0.0
C940 C 0.39877 0.6626 0.95457 0.0
C941 C 0.40704 0.62435 0.93619 0.0
C942 C 0.39468 0.67395 0.9705 0.0
C943 C 0.39508 0.65968 0.98479 0.0
C944 C 0.40262 0.63676 0.95289 0.0
C945 C 0.39913 0.63389 0.98259 0.0
C946 C 0.39815 0.60013 0.9317 0.0
C947 C 0.42417 0.62639 0.90925 0.0
N948 N 0.40254 0.62316 0.96688 0.0
N949 N 0.41982 0.63666 0.9249 0.0
H950 H 0.48313 0.93985 0.15457 0.0
H951 H 0.52439 0.90515 0.24849 0.0
H952 H 0.55543 0.95848 0.17902 0.0
H953 H 0.44785 0.90159 0.22842 0.0
H954 H 0.53574 0.92571 0.22334 0.0
H955 H 0.46921 0.92748 0.18167 0.0
C956 C 0.49597 0.94182 0.16568 0.0
C957 C 0.52061 0.95006 0.16441 0.0
C958 C 0.51641 0.92064 0.22448 0.0
C959 C 0.50489 0.93528 0.19547 0.0
C960 C 0.50993 0.90882 0.23882 0.0
C961 C 0.48516 0.90147 0.2405 0.0
C962 C 0.49807 0.92493 0.21157 0.0
C963 C 0.46718 0.90687 0.22762 0.0
C964 C 0.48803 0.93455 0.18115 0.0
C965 C 0.53645 0.95176 0.17926 0.0
N966 N 0.47404 0.91805 0.21361 0.0
N967 N 0.5284 0.94418 0.1941 0.0
H968 H 0.08302 0.64906 0.89055 0.0
H969 H 0.17326 0.73289 0.84047 0.0
H970 H 0.15617 0.67228 0.91115 0.0
H971 H 0.12132 0.67945 0.81506 0.0
H972 H 0.16124 0.71911 0.86793 0.0
H973 H 0.09126 0.66825 0.86402 0.0
C974 C 0.10073 0.65837 0.88949 0.0
C975 C 0.11904 0.65898 0.90294 0.0
C976 C 0.15233 0.71065 0.85631 0.0
C977 C 0.1284 0.68117 0.87288 0.0
C978 C 0.15902 0.7186 0.84068 0.0
C979 C 0.14834 0.70717 0.82551 0.0
C980 C 0.13451 0.69152 0.8567 0.0
C981 C 0.13011 0.68861 0.82648 0.0
C982 C 0.10543 0.66923 0.87439 0.0
C983 C 0.14171 0.6712 0.90097 0.0
N984 N 0.12375 0.68136 0.84182 0.0
N985 N 0.14575 0.68191 0.88621 0.0
H986 H 0.46991 0.56249 0.14005 0.0
H987 H 0.37703 0.65018 0.08765 0.0
H988 H 0.40634 0.59878 0.16133 0.0
H989 H 0.44764 0.62403 0.07052 0.0
H990 H 0.38423 0.62695 0.11324 0.0
H991 H 0.45873 0.58038 0.11299 0.0
C992 C 0.45356 0.57418 0.13903 0.0
C993 C 0.43921 0.57933 0.15307 0.0
C994 C 0.39805 0.6262 0.10382 0.0
C995 C 0.42616 0.59977 0.12202 0.0
C996 C 0.39393 0.63941 0.0892 0.0
C997 C 0.41185 0.63919 0.07699 0.0
C998 C 0.42017 0.61259 0.10617 0.0
C999 C 0.4334 0.6249 0.07965 0.0
C1000 C 0.44713 0.58432 0.12355 0.0
C1001 C 0.41788 0.59415 0.15085 0.0
N1002 N 0.43698 0.61226 0.09395 0.0
N1003 N 0.4121 0.60399 0.13566 0.0
H1004 H 0.43743 0.95708 0.41076 0.0
H1005 H 0.49849 0.90131 0.32682 0.0
H1006 H 0.51597 0.96202 0.40272 0.0
H1007 H 0.42195 0.88797 0.33769 0.0
H1008 H 0.50512 0.92405 0.35444 0.0
H1009 H 0.43109 0.93259 0.38369 0.0
C1010 C 0.45332 0.95309 0.40326 0.0
C1011 C 0.47726 0.96159 0.409 0.0
C1012 C 0.4869 0.91605 0.35081 0.0
C1013 C 0.4702 0.93347 0.37808 0.0
C1014 C 0.4831 0.90304 0.33503 0.0
C1015 C 0.4596 0.89273 0.32988 0.0
C1016 C 0.46704 0.91894 0.36151 0.0
C1017 C 0.44038 0.89558 0.34111 0.0
C1018 C 0.44972 0.93898 0.38787 0.0
C1019 C 0.49723 0.9556 0.39888 0.0
N1020 N 0.44449 0.90852 0.35634 0.0
N1021 N 0.49324 0.94199 0.3839 0.0
H1022 H 0.12958 0.02075 0.63954 0.0
H1023 H 0.23546 0.95579 0.58534 0.0
H1024 H 0.1931 0.983 0.66197 0.0
H1025 H 0.16522 0.98133 0.56349 0.0
H1026 H 0.2234 0.97142 0.61341 0.0
H1027 H 0.14532 0.01166 0.61153 0.0
C1028 C 0.14681 0.01051 0.6386 0.0
C1029 C 0.15986 0.0024 0.65318 0.0
C1030 C 0.21074 0.97379 0.60244 0.0
C1031 C 0.17822 0.99224 0.62106 0.0
C1032 C 0.21766 0.965 0.5864 0.0
C1033 C 0.20124 0.96709 0.57206 0.0
C1034 C 0.18729 0.98485 0.60412 0.0
C1035 C 0.1784 0.97915 0.57421 0.0
C1036 C 0.15588 0.00546 0.62259 0.0
C1037 C 0.18246 0.98976 0.65114 0.0
N1038 N 0.17205 0.98744 0.58993 0.0
N1039 N 0.19084 0.98496 0.63539 0.0
H1040 H 0.58052 0.4673 0.90051 0.0
H1041 H 0.67056 0.39027 0.96182 0.0
H1042 H 0.65325 0.4427 0.8867 0.0
H1043 H 0.62148 0.44749 0.98076 0.0
H1044 H 0.6575 0.40021 0.93268 0.0
H1045 H 0.58895 0.45124 0.92872 0.0
C1046 C 0.59816 0.4583 0.90341 0.0
C1047 C 0.61632 0.45641 0.8914 0.0
C1048 C 0.6494 0.41031 0.94326 0.0
C1049 C 0.62585 0.43776 0.92334 0.0
C1050 C 0.65665 0.40453 0.95984 0.0
C1051 C 0.64714 0.41819 0.97367 0.0
C1052 C 0.63217 0.42948 0.94057 0.0
C1053 C 0.62935 0.43664 0.97042 0.0
C1054 C 0.60295 0.44923 0.91945 0.0
C1055 C 0.63891 0.44469 0.89572 0.0
N1056 N 0.62242 0.44177 0.95419 0.0
N1057 N 0.64304 0.4357 0.91136 0.0
H1058 H 0.69848 0.08076 0.13769 0.0
H1059 H 0.74615 0.19249 0.20354 0.0
H1060 H 0.69793 0.15824 0.12598 0.0
H1061 H 0.73521 0.11703 0.21783 0.0
H1062 H 0.7312 0.17969 0.17454 0.0
H1063 H 0.71497 0.09308 0.16656 0.0
C1064 C 0.70201 0.10034 0.14117 0.0
C1065 C 0.69677 0.11852 0.12945 0.0
C1066 C 0.73204 0.16593 0.18402 0.0
C1067 C 0.71546 0.13275 0.16244 0.0
C1068 C 0.74061 0.17322 0.2006 0.0
C1069 C 0.74191 0.15582 0.21317 0.0
C1070 C 0.72483 0.14102 0.17992 0.0
C1071 C 0.73446 0.1311 0.20857 0.0
C1072 C 0.71125 0.10738 0.15767 0.0
C1073 C 0.70142 0.14365 0.13468 0.0
N1074 N 0.72628 0.12443 0.19231 0.0
N1075 N 0.71051 0.15001 0.15077 0.0
H1076 H 0.0232 0.21012 0.38943 0.0
H1077 H 0.99579 0.1606 0.47954 0.0
H1078 H 0.05823 0.14534 0.40999 0.0
H1079 H 0.97034 0.23211 0.46348 0.0
H1080 H 0.01948 0.15542 0.45428 0.0
H1081 H 0.00483 0.21955 0.41661 0.0
C1082 C 0.02735 0.19807 0.39972 0.0
C1083 C 0.04214 0.17676 0.39734 0.0
C1084 C 0.00887 0.17234 0.4563 0.0
C1085 C 0.02078 0.18723 0.42841 0.0
C1086 C 0.99526 0.17529 0.47072 0.0
C1087 C 0.98093 0.19676 0.47357 0.0
C1088 C 0.008 0.19087 0.44449 0.0
C1089 C 0.9811 0.21523 0.46175 0.0
C1090 C 0.01671 0.2034 0.41521 0.0
C1091 C 0.04656 0.16168 0.4111 0.0
N1092 N 0.99426 0.21177 0.44763 0.0
N1093 N 0.03578 0.1671 0.42597 0.0
H1094 H 0.96677 0.53025 0.65819 0.0
H1095 H 0.86301 0.45559 0.70363 0.0
H1096 H 0.90656 0.48904 0.63061 0.0
H1097 H 0.92704 0.4925 0.72981 0.0
H1098 H 0.875 0.47231 0.67706 0.0
H1099 H 0.94892 0.52115 0.68479 0.0
C1100 C 0.94972 0.51934 0.65774 0.0
C1101 C 0.93833 0.51012 0.64216 0.0
C1102 C 0.88625 0.47694 0.68867 0.0
C1103 C 0.91767 0.49961 0.67263 0.0
C1104 C 0.87937 0.46748 0.70384 0.0
C1105 C 0.8942 0.47245 0.71892 0.0
C1106 C 0.90805 0.4915 0.68864 0.0
C1107 C 0.91519 0.48796 0.71846 0.0
C1108 C 0.93947 0.51421 0.67294 0.0
C1109 C 0.91595 0.49654 0.64233 0.0
N1110 N 0.92157 0.49676 0.70358 0.0
N1111 N 0.90648 0.49147 0.65734 0.0
H1112 H 0.69378 0.13924 0.39129 0.0
H1113 H 0.72503 0.09836 0.29665 0.0
H1114 H 0.67241 0.06773 0.36657 0.0
H1115 H 0.7276 0.17521 0.31624 0.0
H1116 H 0.706 0.08683 0.32233 0.0
H1117 H 0.70618 0.15301 0.36413 0.0
C1118 C 0.69135 0.12651 0.38014 0.0
C1119 C 0.68215 0.10217 0.38132 0.0
C1120 C 0.71051 0.10625 0.32097 0.0
C1121 C 0.69685 0.11775 0.35021 0.0
C1122 C 0.72144 0.11285 0.30632 0.0
C1123 C 0.72803 0.13777 0.30434 0.0
C1124 C 0.70643 0.12463 0.33389 0.0
C1125 C 0.72281 0.15577 0.31725 0.0
C1126 C 0.69858 0.13439 0.36464 0.0
C1127 C 0.67988 0.08646 0.36642 0.0
N1128 N 0.71255 0.14881 0.33158 0.0
N1129 N 0.68737 0.09444 0.35155 0.0
H1130 H 0.9899 0.22455 0.65596 0.0
H1131 H 0.99145 0.18822 0.55643 0.0
H1132 H 0.04739 0.17963 0.63383 0.0
H1133 H 0.93984 0.24056 0.57842 0.0
H1134 H 0.01187 0.1842 0.5846 0.0
H1135 H 0.97098 0.22998 0.6276 0.0
C1136 C 0.9985 0.21576 0.64511 0.0
C1137 C 0.02015 0.20145 0.64725 0.0
C1138 C 0.99612 0.19661 0.58325 0.0
C1139 C 0.99865 0.20772 0.61469 0.0
C1140 C 0.9844 0.19888 0.56717 0.0
C1141 C 0.96383 0.21471 0.56504 0.0
C1142 C 0.98715 0.21015 0.59733 0.0
C1143 C 0.9556 0.22811 0.57943 0.0
C1144 C 0.98776 0.21898 0.6289 0.0
C1145 C 0.03076 0.19089 0.63272 0.0
N1146 N 0.96723 0.22546 0.59495 0.0
N1147 N 0.01982 0.19411 0.61704 0.0
H1148 H 0.92364 0.48102 0.89726 0.0
H1149 H 0.87534 0.49686 0.80252 0.0
H1150 H 0.88132 0.54629 0.8843 0.0
H1151 H 0.87483 0.42538 0.82472 0.0
H1152 H 0.88376 0.51717 0.83102 0.0
H1153 H 0.91254 0.46198 0.86908 0.0
C1154 C 0.91184 0.49136 0.88862 0.0
C1155 C 0.90311 0.51527 0.89342 0.0
C1156 C 0.88161 0.49707 0.82958 0.0
C1157 C 0.89116 0.49369 0.8608 0.0
C1158 C 0.8769 0.48549 0.81339 0.0
C1159 C 0.8744 0.45942 0.8113 0.0
C1160 C 0.88449 0.48239 0.84364 0.0
C1161 C 0.87651 0.44553 0.82578 0.0
C1162 C 0.90566 0.48045 0.87248 0.0
C1163 C 0.88871 0.52796 0.88123 0.0
N1164 N 0.88176 0.45716 0.84133 0.0
N1165 N 0.88327 0.51705 0.86544 0.0
H1166 H 0.65809 0.46753 0.15126 0.0
H1167 H 0.66498 0.36739 0.07669 0.0
H1168 H 0.61366 0.4002 0.15181 0.0
H1169 H 0.65396 0.44457 0.06596 0.0
H1170 H 0.6528 0.37723 0.10582 0.0
H1171 H 0.66344 0.45817 0.12117 0.0
C1172 C 0.64917 0.45095 0.14516 0.0
C1173 C 0.63535 0.43468 0.15436 0.0
C1174 C 0.65281 0.39187 0.09697 0.0
C1175 C 0.64247 0.4235 0.11994 0.0
C1176 C 0.65978 0.38632 0.08044 0.0
C1177 C 0.66037 0.40521 0.06897 0.0
C1178 C 0.64727 0.41658 0.10212 0.0
C1179 C 0.65354 0.42946 0.07441 0.0
C1180 C 0.65244 0.4456 0.12796 0.0
C1181 C 0.62501 0.41308 0.14556 0.0
N1182 N 0.64769 0.43458 0.09073 0.0
N1183 N 0.62908 0.40794 0.12891 0.0
loop_
_geom_bond_atom_site_label_1
_geom_bond_atom_site_label_2
_geom_bond_distance
_geom_bond_site_symmetry_2
_ccdc_geom_bond_type
H0 C27 0.929 . S
N1 C26 1.433 . S
N1 C32 1.435 . S
N1 C38 1.423 . S
H2 C28 0.930 . S
H3 C31 0.931 . S
H4 C30 0.929 . S
H5 C33 0.930 . S
H6 C34 0.932 . S
H7 C37 0.929 . S
H8 C36 0.931 . S
H9 C39 0.929 . S
H10 C43 0.932 . S
H11 C40 0.931 . S
H12 C42 0.929 . S
H13 C45 0.929 . S
H14 C46 0.930 . S
H15 C48 0.929 1_455 S
H16 C49 0.931 . S
H17 C51 0.930 . S
H18 C52 0.932 . S
H19 C54 0.931 1_455 S
H20 C55 0.929 . S
H21 C57 0.929 . S
H22 C58 0.931 . S
H23 C60 0.929 . S
N24 C44 1.433 . S
N24 C50 1.428 1_455 S
N24 C56 1.423 . S
H25 C61 0.932 . S
C26 N1 1.433 . S
C26 C27 1.363 . S
C26 C31 1.370 . S
C27 H0 0.929 . S
C27 C26 1.363 . S
C27 C28 1.385 . S
C28 H2 0.930 . S
C28 C27 1.385 . S
C28 C29 1.357 . S
C29 C28 1.357 . S
C29 C30 1.406 . S
C30 H4 0.929 . S
C30 C29 1.406 . S
C30 C31 1.391 . S
C31 H3 0.931 . S
C31 C26 1.370 . S
C31 C30 1.391 . S
C32 N1 1.435 . S
C32 C33 1.358 . S
C32 C37 1.371 . S
C33 H5 0.930 . S
C33 C32 1.358 . S
C33 C34 1.405 . S
C34 H6 0.932 . S
C34 C33 1.405 . S
C34 C35 1.383 . S
C35 C34 1.383 . S
C35 C36 1.393 . S
C36 H8 0.931 . S
C36 C35 1.393 . S
C36 C37 1.382 . S
C37 H7 0.929 . S
C37 C32 1.371 . S
C37 C36 1.382 . S
C38 N1 1.423 . S
C38 C39 1.362 1_565 S
C38 C43 1.388 . S
C39 H9 0.929 . S
C39 C38 1.362 1_545 S
C39 C40 1.376 . S
C40 H11 0.931 . S
C40 C39 1.376 . S
C40 C41 1.396 . S
C41 C40 1.396 . S
C41 C42 1.348 . S
C41 C59 1.472 . S
C42 H12 0.929 . S
C42 C41 1.348 . S
C42 C43 1.443 1_545 S
C43 H10 0.932 . S
C43 C38 1.388 . S
C43 C42 1.443 1_565 S
C44 N24 1.433 . S
C44 C45 1.363 1_455 S
C44 C49 1.370 . S
C45 H13 0.929 . S
C45 C44 1.363 1_655 S
C45 C46 1.385 . S
C46 H14 0.930 . S
C46 C45 1.385 . S
C46 C47 1.357 . S
C47 C46 1.357 . S
C47 C48 1.412 . S
C48 H15 0.929 1_655 S
C48 C47 1.412 . S
C48 C49 1.386 1_655 S
C49 H16 0.931 . S
C49 C44 1.370 . S
C49 C48 1.386 1_455 S
C50 N24 1.428 1_655 S
C50 C51 1.370 . S
C50 C55 1.366 1_655 S
C51 H17 0.930 . S
C51 C50 1.370 . S
C51 C52 1.405 . S
C52 H18 0.932 . S
C52 C51 1.405 . S
C52 C53 1.383 . S
C53 C52 1.383 . S
C53 C54 1.393 . S
C54 H19 0.931 1_655 S
C54 C53 1.393 . S
C54 C55 1.382 1_655 S
C55 H20 0.929 . S
C55 C50 1.366 1_455 S
C55 C54 1.382 1_455 S
C56 N24 1.423 . S
C56 C57 1.362 . S
C56 C61 1.388 . S
C57 H21 0.929 . S
C57 C56 1.362 . S
C57 C58 1.376 . S
C58 H22 0.931 . S
C58 C57 1.376 . S
C58 C59 1.396 . S
C59 C41 1.472 . S
C59 C58 1.396 . S
C59 C60 1.348 . S
C60 H23 0.929 . S
C60 C59 1.348 . S
C60 C61 1.443 . S
C61 H25 0.932 . S
C61 C56 1.388 . S
C61 C60 1.443 . S
H62 C89 0.929 . S
N63 C88 1.433 . S
N63 C94 1.435 . S
N63 C100 1.423 1_655 S
H64 C90 0.930 . S
H65 C93 0.931 . S
H66 C92 0.929 . S
H67 C95 0.930 . S
H68 C96 0.932 . S
H69 C99 0.919 1_455 S
H70 C98 0.931 1_455 S
H71 C101 0.929 . S
H72 C105 0.916 1_655 S
H73 C102 0.931 . S
H74 C104 0.929 . S
H75 C107 0.929 . S
H76 C108 0.930 . S
H77 C110 0.929 . S
H78 C111 0.931 . S
H79 C113 0.930 . S
H80 C114 0.932 . S
H81 C116 0.931 . S
H82 C117 0.929 . S
H83 C119 0.929 . S
H84 C120 0.931 . S
H85 C122 0.929 . S
N86 C106 1.433 . S
N86 C112 1.435 . S
N86 C118 1.423 . S
H87 C123 0.932 . S
C88 N63 1.433 . S
C88 C89 1.363 . S
C88 C93 1.370 . S
C89 H62 0.929 . S
C89 C88 1.363 . S
C89 C90 1.385 . S
C90 H64 0.930 . S
C90 C89 1.385 . S
C90 C91 1.357 . S
C91 C90 1.357 . S
C91 C92 1.406 . S
C92 H66 0.929 . S
C92 C91 1.406 . S
C92 C93 1.391 . S
C93 H65 0.931 . S
C93 C88 1.370 . S
C93 C92 1.391 . S
C94 N63 1.435 . S
C94 C95 1.358 . S
C94 C99 1.378 . S
C95 H67 0.930 . S
C95 C94 1.358 . S
C95 C96 1.405 . S
C96 H68 0.932 . S
C96 C95 1.405 . S
C96 C97 1.383 . S
C97 C96 1.383 . S
C97 C98 1.393 . S
C98 H70 0.931 1_655 S
C98 C97 1.393 . S
C98 C99 1.385 . S
C99 H69 0.919 1_655 S
C99 C94 1.378 . S
C99 C98 1.385 . S
C100 N63 1.423 1_455 S
C100 C101 1.362 . S
C100 C105 1.388 . S
C101 H71 0.929 . S
C101 C100 1.362 . S
C101 C102 1.376 . S
C102 H73 0.931 . S
C102 C101 1.376 . S
C102 C103 1.396 . S
C103 C102 1.396 . S
C103 C104 1.348 . S
C103 C121 1.472 . S
C104 H74 0.929 . S
C104 C103 1.348 . S
C104 C105 1.443 . S
C105 H72 0.916 1_455 S
C105 C100 1.388 . S
C105 C104 1.443 . S
C106 N86 1.433 . S
C106 C107 1.363 . S
C106 C111 1.370 . S
C107 H75 0.929 . S
C107 C106 1.363 . S
C107 C108 1.385 . S
C108 H76 0.930 . S
C108 C107 1.385 . S
C108 C109 1.357 . S
C109 C108 1.357 . S
C109 C110 1.406 . S
C110 H77 0.929 . S
C110 C109 1.406 . S
C110 C111 1.391 . S
C111 H78 0.931 . S
C111 C106 1.370 . S
C111 C110 1.391 . S
C112 N86 1.435 . S
C112 C113 1.358 . S
C112 C117 1.371 . S
C113 H79 0.930 . S
C113 C112 1.358 . S
C113 C114 1.405 . S
C114 H80 0.932 . S
C114 C113 1.405 . S
C114 C115 1.383 . S
C115 C114 1.383 . S
C115 C116 1.393 . S
C116 H81 0.931 . S
C116 C115 1.393 . S
C116 C117 1.382 . S
C117 H82 0.929 . S
C117 C112 1.371 . S
C117 C116 1.382 . S
C118 N86 1.423 . S
C118 C119 1.362 . S
C118 C123 1.388 . S
C119 H83 0.929 . S
C119 C118 1.362 . S
C119 C120 1.376 . S
C120 H84 0.931 . S
C120 C119 1.376 . S
C120 C121 1.396 . S
C121 C103 1.472 . S
C121 C120 1.396 . S
C121 C122 1.348 . S
C122 H85 0.929 . S
C122 C121 1.348 . S
C122 C123 1.443 . S
C123 H87 0.932 . S
C123 C118 1.388 . S
C123 C122 1.443 . S
H124 C151 0.929 . S
N125 C150 1.433 . S
N125 C156 1.435 . S
N125 C162 1.423 . S
H126 C152 0.930 . S
H127 C155 0.931 . S
H128 C154 0.929 . S
H129 C157 0.930 . S
H130 C158 0.932 . S
H131 C161 0.929 . S
H132 C160 0.931 . S
H133 C163 0.929 . S
H134 C167 0.932 . S
H135 C164 0.931 . S
H136 C166 0.929 . S
H137 C169 0.929 . S
H138 C170 0.930 . S
H139 C172 0.929 . S
H140 C173 0.931 . S
H141 C175 0.930 . S
H142 C176 0.932 . S
H143 C178 0.931 . S
H144 C179 0.929 . S
H145 C181 0.929 . S
H146 C182 0.931 . S
H147 C184 0.929 . S
N148 C168 1.433 . S
N148 C174 1.435 . S
N148 C180 1.423 . S
H149 C185 0.932 . S
C150 N125 1.433 . S
C150 C151 1.363 . S
C150 C155 1.370 . S
C151 H124 0.929 . S
C151 C150 1.363 . S
C151 C152 1.385 . S
C152 H126 0.930 . S
C152 C151 1.385 . S
C152 C153 1.357 . S
C153 C152 1.357 . S
C153 C154 1.406 . S
C154 H128 0.929 . S
C154 C153 1.406 . S
C154 C155 1.391 . S
C155 H127 0.931 . S
C155 C150 1.370 . S
C155 C154 1.391 . S
C156 N125 1.435 . S
C156 C157 1.358 . S
C156 C161 1.371 . S
C157 H129 0.930 . S
C157 C156 1.358 . S
C157 C158 1.405 . S
C158 H130 0.932 . S
C158 C157 1.405 . S
C158 C159 1.383 . S
C159 C158 1.383 . S
C159 C160 1.393 . S
C160 H132 0.931 . S
C160 C159 1.393 . S
C160 C161 1.382 . S
C161 H131 0.929 . S
C161 C156 1.371 . S
C161 C160 1.382 . S
C162 N125 1.423 . S
C162 C163 1.362 . S
C162 C167 1.388 . S
C163 H133 0.929 . S
C163 C162 1.362 . S
C163 C164 1.376 . S
C164 H135 0.931 . S
C164 C163 1.376 . S
C164 C165 1.396 . S
C165 C164 1.396 . S
C165 C166 1.348 . S
C165 C183 1.472 . S
C166 H136 0.929 . S
C166 C165 1.348 . S
C166 C167 1.443 . S
C167 H134 0.932 . S
C167 C162 1.388 . S
C167 C166 1.443 . S
C168 N148 1.433 . S
C168 C169 1.363 . S
C168 C173 1.370 . S
C169 H137 0.929 . S
C169 C168 1.363 . S
C169 C170 1.385 . S
C170 H138 0.930 . S
C170 C169 1.385 . S
C170 C171 1.357 . S
C171 C170 1.357 . S
C171 C172 1.406 . S
C172 H139 0.929 . S
C172 C171 1.406 . S
C172 C173 1.391 . S
C173 H140 0.931 . S
C173 C168 1.370 . S
C173 C172 1.391 . S
C174 N148 1.435 . S
C174 C175 1.358 . S
C174 C179 1.371 . S
C175 H141 0.930 . S
C175 C174 1.358 . S
C175 C176 1.405 . S
C176 H142 0.932 . S
C176 C175 1.405 . S
C176 C177 1.383 . S
C177 C176 1.383 . S
C177 C178 1.393 . S
C178 H143 0.931 . S
C178 C177 1.393 . S
C178 C179 1.382 . S
C179 H144 0.929 . S
C179 C174 1.371 . S
C179 C178 1.382 . S
C180 N148 1.423 . S
C180 C181 1.362 . S
C180 C185 1.388 . S
C181 H145 0.929 . S
C181 C180 1.362 . S
C181 C182 1.376 . S
C182 H146 0.931 . S
C182 C181 1.376 . S
C182 C183 1.396 . S
C183 C165 1.472 . S
C183 C182 1.396 . S
C183 C184 1.348 . S
C184 H147 0.929 . S
C184 C183 1.348 . S
C184 C185 1.443 . S
C185 H149 0.932 . S
C185 C180 1.388 . S
C185 C184 1.443 . S
H186 C213 0.929 . S
N187 C212 1.433 . S
N187 C218 1.435 . S
N187 C224 1.423 . S
H188 C214 0.930 . S
H189 C217 0.931 . S
H190 C216 0.929 . S
H191 C219 0.930 . S
H192 C220 0.932 . S
H193 C223 0.929 . S
H194 C222 0.931 . S
H195 C225 0.929 . S
H196 C229 0.932 . S
H197 C226 0.931 . S
H198 C228 0.929 . S
H199 C231 0.929 . S
H200 C232 0.930 . S
H201 C234 0.929 . S
H202 C235 0.931 . S
H203 C237 0.930 . S
H204 C238 0.932 . S
H205 C240 0.931 . S
H206 C241 0.929 . S
H207 C243 0.929 . S
H208 C244 0.931 1_565 S
H209 C246 0.929 . S
N210 C230 1.433 . S
N210 C236 1.435 . S
N210 C242 1.423 . S
H211 C247 0.932 . S
C212 N187 1.433 . S
C212 C213 1.363 . S
C212 C217 1.370 . S
C213 H186 0.929 . S
C213 C212 1.363 . S
C213 C214 1.385 . S
C214 H188 0.930 . S
C214 C213 1.385 . S
C214 C215 1.357 . S
C215 C214 1.357 . S
C215 C216 1.406 . S
C216 H190 0.929 . S
C216 C215 1.406 . S
C216 C217 1.391 . S
C217 H189 0.931 . S
C217 C212 1.370 . S
C217 C216 1.391 . S
C218 N187 1.435 . S
C218 C219 1.358 . S
C218 C223 1.371 . S
C219 H191 0.930 . S
C219 C218 1.358 . S
C219 C220 1.405 . S
C220 H192 0.932 . S
C220 C219 1.405 . S
C220 C221 1.383 . S
C221 C220 1.383 . S
C221 C222 1.393 . S
C222 H194 0.931 . S
C222 C221 1.393 . S
C222 C223 1.382 . S
C223 H193 0.929 . S
C223 C218 1.371 . S
C223 C222 1.382 . S
C224 N187 1.423 . S
C224 C225 1.362 . S
C224 C229 1.388 . S
C225 H195 0.929 . S
C225 C224 1.362 . S
C225 C226 1.376 . S
C226 H197 0.931 . S
C226 C225 1.376 . S
C226 C227 1.396 . S
C227 C226 1.396 . S
C227 C228 1.348 . S
C227 C245 1.467 1_565 S
C228 H198 0.929 . S
C228 C227 1.348 . S
C228 C229 1.443 . S
C229 H196 0.932 . S
C229 C224 1.388 . S
C229 C228 1.443 . S
C230 N210 1.433 . S
C230 C231 1.363 . S
C230 C235 1.370 . S
C231 H199 0.929 . S
C231 C230 1.363 . S
C231 C232 1.385 . S
C232 H200 0.930 . S
C232 C231 1.385 . S
C232 C233 1.357 . S
C233 C232 1.357 . S
C233 C234 1.406 . S
C234 H201 0.929 . S
C234 C233 1.406 . S
C234 C235 1.391 . S
C235 H202 0.931 . S
C235 C230 1.370 . S
C235 C234 1.391 . S
C236 N210 1.435 . S
C236 C237 1.358 . S
C236 C241 1.371 . S
C237 H203 0.930 . S
C237 C236 1.358 . S
C237 C238 1.405 . S
C238 H204 0.932 . S
C238 C237 1.405 . S
C238 C239 1.383 . S
C239 C238 1.383 . S
C239 C240 1.393 . S
C240 H205 0.931 . S
C240 C239 1.393 . S
C240 C241 1.382 . S
C241 H206 0.929 . S
C241 C236 1.371 . S
C241 C240 1.382 . S
C242 N210 1.423 . S
C242 C243 1.362 . S
C242 C247 1.388 . S
C243 H207 0.929 . S
C243 C242 1.362 . S
C243 C244 1.376 . S
C244 H208 0.931 1_545 S
C244 C243 1.376 . S
C244 C245 1.396 . S
C245 C227 1.467 1_545 S
C245 C244 1.396 . S
C245 C246 1.353 . S
C246 H209 0.929 . S
C246 C245 1.353 . S
C246 C247 1.443 . S
C247 H211 0.932 . S
C247 C242 1.388 . S
C247 C246 1.443 . S
H248 C275 0.929 . S
N249 C274 1.433 . S
N249 C280 1.435 . S
N249 C286 1.423 . S
H250 C276 0.930 . S
H251 C279 0.931 . S
H252 C278 0.929 . S
H253 C281 0.930 . S
H254 C282 0.932 . S
H255 C285 0.929 . S
H256 C284 0.931 . S
H257 C287 0.929 . S
H258 C291 0.932 . S
H259 C288 0.931 . S
H260 C290 0.929 . S
H261 C293 0.929 . S
H262 C294 0.930 . S
H263 C296 0.929 . S
H264 C297 0.931 . S
H265 C299 0.930 . S
H266 C300 0.932 . S
H267 C302 0.933 . S
H268 C303 0.929 . S
H269 C305 0.929 . S
H270 C306 0.922 1_455 S
H271 C308 0.929 . S
N272 C292 1.433 . S
N272 C298 1.435 . S
N272 C304 1.423 . S
H273 C309 0.932 . S
C274 N249 1.433 . S
C274 C275 1.363 . S
C274 C279 1.370 . S
C275 H248 0.929 . S
C275 C274 1.363 . S
C275 C276 1.385 . S
C276 H250 0.930 . S
C276 C275 1.385 . S
C276 C277 1.357 . S
C277 C276 1.357 . S
C277 C278 1.406 . S
C278 H252 0.929 . S
C278 C277 1.406 . S
C278 C279 1.391 . S
C279 H251 0.931 . S
C279 C274 1.370 . S
C279 C278 1.391 . S
C280 N249 1.435 . S
C280 C281 1.358 . S
C280 C285 1.371 . S
C281 H253 0.930 . S
C281 C280 1.358 . S
C281 C282 1.405 1_556 S
C282 H254 0.932 . S
C282 C281 1.405 1_554 S
C282 C283 1.383 . S
C283 C282 1.383 . S
C283 C284 1.393 . S
C284 H256 0.931 . S
C284 C283 1.393 . S
C284 C285 1.382 1_554 S
C285 H255 0.929 . S
C285 C280 1.371 . S
C285 C284 1.382 1_556 S
C286 N249 1.423 . S
C286 C287 1.362 . S
C286 C291 1.388 . S
C287 H257 0.929 . S
C287 C286 1.362 . S
C287 C288 1.376 . S
C288 H259 0.931 . S
C288 C287 1.376 . S
C288 C289 1.396 . S
C289 C288 1.396 . S
C289 C290 1.348 . S
C289 C307 1.472 . S
C290 H260 0.929 . S
C290 C289 1.348 . S
C290 C291 1.443 . S
C291 H258 0.932 . S
C291 C286 1.388 . S
C291 C290 1.443 . S
C292 N272 1.433 . S
C292 C293 1.363 . S
C292 C297 1.370 . S
C293 H261 0.929 . S
C293 C292 1.363 . S
C293 C294 1.385 . S
C294 H262 0.930 . S
C294 C293 1.385 . S
C294 C295 1.357 . S
C295 C294 1.357 . S
C295 C296 1.406 . S
C296 H263 0.929 . S
C296 C295 1.406 . S
C296 C297 1.391 . S
C297 H264 0.931 . S
C297 C292 1.370 . S
C297 C296 1.391 . S
C298 N272 1.435 . S
C298 C299 1.358 . S
C298 C303 1.371 . S
C299 H265 0.930 . S
C299 C298 1.358 . S
C299 C300 1.405 . S
C300 H266 0.932 . S
C300 C299 1.405 . S
C300 C301 1.383 . S
C301 C300 1.383 . S
C301 C302 1.393 . S
C302 H267 0.933 . S
C302 C301 1.393 . S
C302 C303 1.382 . S
C303 H268 0.929 . S
C303 C298 1.371 . S
C303 C302 1.382 . S
C304 N272 1.423 . S
C304 C305 1.362 . S
C304 C309 1.388 . S
C305 H269 0.929 . S
C305 C304 1.362 . S
C305 C306 1.386 . S
C306 H270 0.922 1_655 S
C306 C305 1.386 . S
C306 C307 1.395 1_655 S
C307 C289 1.472 . S
C307 C306 1.395 1_455 S
C307 C308 1.348 1_455 S
C308 H271 0.929 . S
C308 C307 1.348 1_655 S
C308 C309 1.443 . S
C309 H273 0.932 . S
C309 C304 1.388 . S
C309 C308 1.443 . S
H310 C337 0.929 . S
N311 C336 1.433 . S
N311 C342 1.435 . S
N311 C348 1.423 . S
H312 C338 0.930 . S
H313 C341 0.931 . S
H314 C340 0.929 . S
H315 C343 0.930 . S
H316 C344 0.932 . S
H317 C347 0.929 . S
H318 C346 0.931 . S
H319 C349 0.929 . S
H320 C353 0.932 . S
H321 C350 0.931 . S
H322 C352 0.929 . S
H323 C355 0.929 . S
H324 C356 0.930 . S
H325 C358 0.929 . S
H326 C359 0.931 . S
H327 C361 0.930 . S
H328 C362 0.932 . S
H329 C364 0.931 . S
H330 C365 0.929 . S
H331 C367 0.929 . S
H332 C368 0.931 . S
H333 C370 0.929 . S
N334 C354 1.433 . S
N334 C360 1.435 . S
N334 C366 1.423 . S
H335 C371 0.932 . S
C336 N311 1.433 . S
C336 C337 1.363 . S
C336 C341 1.370 . S
C337 H310 0.929 . S
C337 C336 1.363 . S
C337 C338 1.385 . S
C338 H312 0.930 . S
C338 C337 1.385 . S
C338 C339 1.357 . S
C339 C338 1.357 . S
C339 C340 1.406 . S
C340 H314 0.929 . S
C340 C339 1.406 . S
C340 C341 1.391 . S
C341 H313 0.931 . S
C341 C336 1.370 . S
C341 C340 1.391 . S
C342 N311 1.435 . S
C342 C343 1.358 . S
C342 C347 1.371 . S
C343 H315 0.930 . S
C343 C342 1.358 . S
C343 C344 1.405 . S
C344 H316 0.932 . S
C344 C343 1.405 . S
C344 C345 1.383 . S
C345 C344 1.383 . S
C345 C346 1.393 . S
C346 H318 0.931 . S
C346 C345 1.393 . S
C346 C347 1.382 . S
C347 H317 0.929 . S
C347 C342 1.371 . S
C347 C346 1.382 . S
C348 N311 1.423 . S
C348 C349 1.362 . S
C348 C353 1.388 . S
C349 H319 0.929 . S
C349 C348 1.362 . S
C349 C350 1.376 . S
C350 H321 0.931 . S
C350 C349 1.376 . S
C350 C351 1.396 . S
C351 C350 1.396 . S
C351 C352 1.348 . S
C351 C369 1.472 . S
C352 H322 0.929 . S
C352 C351 1.348 . S
C352 C353 1.443 . S
C353 H320 0.932 . S
C353 C348 1.388 . S
C353 C352 1.443 . S
C354 N334 1.433 . S
C354 C355 1.363 . S
C354 C359 1.370 . S
C355 H323 0.929 . S
C355 C354 1.363 . S
C355 C356 1.385 . S
C356 H324 0.930 . S
C356 C355 1.385 . S
C356 C357 1.357 . S
C357 C356 1.357 . S
C357 C358 1.406 . S
C358 H325 0.929 . S
C358 C357 1.406 . S
C358 C359 1.391 . S
C359 H326 0.931 . S
C359 C354 1.370 . S
C359 C358 1.391 . S
C360 N334 1.435 . S
C360 C361 1.358 . S
C360 C365 1.371 . S
C361 H327 0.930 . S
C361 C360 1.358 . S
C361 C362 1.405 . S
C362 H328 0.932 . S
C362 C361 1.405 . S
C362 C363 1.383 . S
C363 C362 1.383 . S
C363 C364 1.393 . S
C364 H329 0.931 . S
C364 C363 1.393 . S
C364 C365 1.382 . S
C365 H330 0.929 . S
C365 C360 1.371 . S
C365 C364 1.382 . S
C366 N334 1.423 . S
C366 C367 1.362 . S
C366 C371 1.388 . S
C367 H331 0.929 . S
C367 C366 1.362 . S
C367 C368 1.376 . S
C368 H332 0.931 . S
C368 C367 1.376 . S
C368 C369 1.396 . S
C369 C351 1.472 . S
C369 C368 1.396 . S
C369 C370 1.348 . S
C370 H333 0.929 . S
C370 C369 1.348 . S
C370 C371 1.443 . S
C371 H335 0.932 . S
C371 C366 1.388 . S
C371 C370 1.443 . S
H372 C399 0.929 . S
N373 C398 1.433 . S
N373 C404 1.435 . S
N373 C410 1.423 . S
H374 C400 0.930 . S
H375 C403 0.931 . S
H376 C402 0.929 . S
H377 C405 0.930 . S
H378 C406 0.932 . S
H379 C409 0.929 1_545 S
H380 C408 0.931 . S
H381 C411 0.929 . S
H382 C415 0.932 . S
H383 C412 0.931 . S
H384 C414 0.929 . S
H385 C417 0.929 . S
H386 C418 0.930 . S
H387 C420 0.929 . S
H388 C421 0.931 . S
H389 C423 0.930 . S
H390 C424 0.932 . S
H391 C426 0.931 . S
H392 C427 0.929 . S
H393 C429 0.929 . S
H394 C430 0.931 . S
H395 C432 0.929 . S
N396 C416 1.433 . S
N396 C422 1.435 . S
N396 C428 1.423 . S
H397 C433 0.932 . S
C398 N373 1.433 . S
C398 C399 1.363 . S
C398 C403 1.370 . S
C399 H372 0.929 . S
C399 C398 1.363 . S
C399 C400 1.385 . S
C400 H374 0.930 . S
C400 C399 1.385 . S
C400 C401 1.357 . S
C401 C400 1.357 . S
C401 C402 1.406 . S
C402 H376 0.929 . S
C402 C401 1.406 . S
C402 C403 1.391 . S
C403 H375 0.931 . S
C403 C398 1.370 . S
C403 C402 1.391 . S
C404 N373 1.435 . S
C404 C405 1.358 . S
C404 C409 1.371 . S
C405 H377 0.930 . S
C405 C404 1.358 . S
C405 C406 1.405 . S
C406 H378 0.932 . S
C406 C405 1.405 . S
C406 C407 1.383 . S
C407 C406 1.383 . S
C407 C408 1.393 . S
C408 H380 0.931 . S
C408 C407 1.393 . S
C408 C409 1.382 . S
C409 H379 0.929 1_565 S
C409 C404 1.371 . S
C409 C408 1.382 . S
C410 N373 1.423 . S
C410 C411 1.362 1_565 S
C410 C415 1.388 . S
C411 H381 0.929 . S
C411 C410 1.362 1_545 S
C411 C412 1.376 . S
C412 H383 0.931 . S
C412 C411 1.376 . S
C412 C413 1.396 . S
C413 C412 1.396 . S
C413 C414 1.348 . S
C413 C431 1.472 . S
C414 H384 0.929 . S
C414 C413 1.348 . S
C414 C415 1.443 1_545 S
C415 H382 0.932 . S
C415 C410 1.388 . S
C415 C414 1.443 1_565 S
C416 N396 1.433 . S
C416 C417 1.363 . S
C416 C421 1.370 . S
C417 H385 0.929 . S
C417 C416 1.363 . S
C417 C418 1.385 . S
C418 H386 0.930 . S
C418 C417 1.385 . S
C418 C419 1.357 . S
C419 C418 1.357 . S
C419 C420 1.406 . S
C420 H387 0.929 . S
C420 C419 1.406 . S
C420 C421 1.391 . S
C421 H388 0.931 . S
C421 C416 1.370 . S
C421 C420 1.391 . S
C422 N396 1.435 . S
C422 C423 1.358 . S
C422 C427 1.371 . S
C423 H389 0.930 . S
C423 C422 1.358 . S
C423 C424 1.405 . S
C424 H390 0.932 . S
C424 C423 1.405 . S
C424 C425 1.383 . S
C425 C424 1.383 . S
C425 C426 1.393 . S
C426 H391 0.931 . S
C426 C425 1.393 . S
C426 C427 1.382 . S
C427 H392 0.929 . S
C427 C422 1.371 . S
C427 C426 1.382 . S
C428 N396 1.423 . S
C428 C429 1.362 . S
C428 C433 1.388 . S
C429 H393 0.929 . S
C429 C428 1.362 . S
C429 C430 1.376 . S
C430 H394 0.931 . S
C430 C429 1.376 . S
C430 C431 1.396 . S
C431 C413 1.472 . S
C431 C430 1.396 . S
C431 C432 1.348 . S
C432 H395 0.929 . S
C432 C431 1.348 . S
C432 C433 1.443 . S
C433 H397 0.932 . S
C433 C428 1.388 . S
C433 C432 1.443 . S
H434 C461 0.929 . S
N435 C460 1.433 . S
N435 C466 1.435 . S
N435 C472 1.423 . S
H436 C462 0.930 1_565 S
H437 C465 0.931 . S
H438 C464 0.929 . S
H439 C467 0.930 . S
H440 C468 0.932 . S
H441 C471 0.929 . S
H442 C470 0.931 . S
H443 C473 0.929 . S
H444 C477 0.932 . S
H445 C474 0.931 . S
H446 C476 0.929 . S
H447 C479 0.929 . S
H448 C480 0.930 . S
H449 C482 0.929 . S
H450 C483 0.931 . S
H451 C485 0.942 . S
H452 C486 0.932 . S
H453 C488 0.931 . S
H454 C489 0.929 . S
H455 C491 0.929 . S
H456 C492 0.931 . S
H457 C494 0.929 . S
N458 C478 1.433 . S
N458 C484 1.435 1_455 S
N458 C490 1.423 . S
H459 C495 0.932 . S
C460 N435 1.433 . S
C460 C461 1.363 . S
C460 C465 1.370 . S
C461 H434 0.929 . S
C461 C460 1.363 . S
C461 C462 1.385 . S
C462 H436 0.930 1_545 S
C462 C461 1.385 . S
C462 C463 1.357 . S
C463 C462 1.357 . S
C463 C464 1.406 . S
C464 H438 0.929 . S
C464 C463 1.406 . S
C464 C465 1.391 . S
C465 H437 0.931 . S
C465 C460 1.370 . S
C465 C464 1.391 . S
C466 N435 1.435 . S
C466 C467 1.358 . S
C466 C471 1.371 . S
C467 H439 0.930 . S
C467 C466 1.358 . S
C467 C468 1.405 . S
C468 H440 0.932 . S
C468 C467 1.405 . S
C468 C469 1.383 . S
C469 C468 1.383 . S
C469 C470 1.393 . S
C470 H442 0.931 . S
C470 C469 1.393 . S
C470 C471 1.382 . S
C471 H441 0.929 . S
C471 C466 1.371 . S
C471 C470 1.382 . S
C472 N435 1.423 . S
C472 C473 1.362 . S
C472 C477 1.388 . S
C473 H443 0.929 . S
C473 C472 1.362 . S
C473 C474 1.376 . S
C474 H445 0.931 . S
C474 C473 1.376 . S
C474 C475 1.396 . S
C475 C474 1.396 . S
C475 C476 1.348 . S
C475 C493 1.472 . S
C476 H446 0.929 . S
C476 C475 1.348 . S
C476 C477 1.443 . S
C477 H444 0.932 . S
C477 C472 1.388 . S
C477 C476 1.443 . S
C478 N458 1.433 . S
C478 C479 1.363 1_455 S
C478 C483 1.370 . S
C479 H447 0.929 . S
C479 C478 1.363 1_655 S
C479 C480 1.385 . S
C480 H448 0.930 . S
C480 C479 1.385 . S
C480 C481 1.357 1_655 S
C481 C480 1.357 1_455 S
C481 C482 1.406 . S
C482 H449 0.929 . S
C482 C481 1.406 . S
C482 C483 1.391 . S
C483 H450 0.931 . S
C483 C478 1.370 . S
C483 C482 1.391 . S
C484 N458 1.435 1_655 S
C484 C485 1.355 1_655 S
C484 C489 1.371 . S
C485 H451 0.942 . S
C485 C484 1.355 1_455 S
C485 C486 1.396 1_455 S
C486 H452 0.932 . S
C486 C485 1.396 1_655 S
C486 C487 1.383 . S
C487 C486 1.383 . S
C487 C488 1.393 . S
C488 H453 0.931 . S
C488 C487 1.393 . S
C488 C489 1.382 . S
C489 H454 0.929 . S
C489 C484 1.371 . S
C489 C488 1.382 . S
C490 N458 1.423 . S
C490 C491 1.362 . S
C490 C495 1.388 . S
C491 H455 0.929 . S
C491 C490 1.362 . S
C491 C492 1.376 . S
C492 H456 0.931 . S
C492 C491 1.376 . S
C492 C493 1.396 . S
C493 C475 1.472 . S
C493 C492 1.396 . S
C493 C494 1.348 . S
C494 H457 0.929 . S
C494 C493 1.348 . S
C494 C495 1.443 . S
C495 H459 0.932 . S
C495 C490 1.388 . S
C495 C494 1.443 . S
O496 Cd497 2.223 . S
O496 C504 1.315 . S
Cd497 O496 2.223 . S
Cd497 O500 2.297 . S
Cd497 O501 2.439 . S
Cd497 O507 2.240 . S
Cd498 O499 2.240 . S
Cd498 O506 2.223 . S
Cd498 O508 2.297 . S
Cd498 O509 2.439 . S
O499 Cd498 2.240 . S
O499 C504 1.279 . S
O500 Cd497 2.297 . S
O500 C502 1.247 . S
O501 Cd497 2.439 . S
O501 C502 1.208 . S
C502 O500 1.247 . S
C502 O501 1.208 . S
C503 O508 1.247 . S
C503 O509 1.208 . S
C504 O496 1.315 . S
C504 O499 1.279 . S
C505 O506 1.315 . S
C505 O507 1.279 . S
O506 Cd498 2.223 . S
O506 C505 1.315 . S
O507 Cd497 2.240 . S
O507 C505 1.279 . S
O508 Cd498 2.297 . S
O508 C503 1.247 . S
O509 Cd498 2.439 . S
O509 C503 1.208 . S
O510 Cd511 2.223 . S
O510 C518 1.315 . S
Cd511 O510 2.223 . S
Cd511 O514 2.297 . S
Cd511 O515 2.439 . S
Cd511 O521 2.240 . S
Cd512 O513 2.240 . S
Cd512 O520 2.223 . S
Cd512 O522 2.297 . S
Cd512 O523 2.439 . S
O513 Cd512 2.240 . S
O513 C518 1.279 . S
O514 Cd511 2.297 . S
O514 C516 1.247 . S
O515 Cd511 2.439 . S
O515 C516 1.208 . S
C516 O514 1.247 . S
C516 O515 1.208 . S
C517 O522 1.247 . S
C517 O523 1.208 . S
C518 O510 1.315 . S
C518 O513 1.279 . S
C519 O520 1.315 . S
C519 O521 1.279 . S
O520 Cd512 2.223 . S
O520 C519 1.315 . S
O521 Cd511 2.240 . S
O521 C519 1.279 . S
O522 Cd512 2.297 . S
O522 C517 1.247 . S
O523 Cd512 2.439 . S
O523 C517 1.208 . S
O524 Cd525 2.223 . S
O524 C532 1.315 . S
Cd525 O524 2.223 . S
Cd525 O528 2.297 . S
Cd525 O529 2.439 . S
Cd525 O535 2.240 . S
Cd526 O527 2.240 . S
Cd526 O534 2.223 . S
Cd526 O536 2.297 . S
Cd526 O537 2.439 . S
O527 Cd526 2.240 . S
O527 C532 1.279 . S
O528 Cd525 2.297 . S
O528 C530 1.247 . S
O529 Cd525 2.439 . S
O529 C530 1.208 . S
C530 O528 1.247 . S
C530 O529 1.208 . S
C531 O536 1.247 . S
C531 O537 1.208 . S
C532 O524 1.315 . S
C532 O527 1.279 . S
C533 O534 1.315 . S
C533 O535 1.279 . S
O534 Cd526 2.223 . S
O534 C533 1.315 . S
O535 Cd525 2.240 . S
O535 C533 1.279 . S
O536 Cd526 2.297 . S
O536 C531 1.247 . S
O537 Cd526 2.439 . S
O537 C531 1.208 . S
O538 Cd539 2.223 . S
O538 C546 1.315 . S
Cd539 O538 2.223 . S
Cd539 O542 2.297 . S
Cd539 O543 2.439 . S
Cd539 O549 2.240 . S
Cd540 O541 2.240 . S
Cd540 O548 2.223 . S
Cd540 O550 2.297 . S
Cd540 O551 2.439 . S
O541 Cd540 2.240 . S
O541 C546 1.279 . S
O542 Cd539 2.297 . S
O542 C544 1.247 . S
O543 Cd539 2.439 . S
O543 C544 1.208 . S
C544 O542 1.247 . S
C544 O543 1.208 . S
C545 O550 1.247 . S
C545 O551 1.208 . S
C546 O538 1.315 . S
C546 O541 1.279 . S
C547 O548 1.315 . S
C547 O549 1.279 . S
O548 Cd540 2.223 . S
O548 C547 1.315 . S
O549 Cd539 2.240 . S
O549 C547 1.279 . S
O550 Cd540 2.297 . S
O550 C545 1.247 . S
O551 Cd540 2.439 . S
O551 C545 1.208 . S
O552 Cd553 2.223 . S
O552 C560 1.315 . S
Cd553 O552 2.223 . S
Cd553 O556 2.297 . S
Cd553 O557 2.439 . S
Cd553 O563 2.240 . S
Cd554 O555 2.240 . S
Cd554 O562 2.223 . S
Cd554 O564 2.297 . S
Cd554 O565 2.439 . S
O555 Cd554 2.240 . S
O555 C560 1.279 . S
O556 Cd553 2.297 . S
O556 C558 1.247 . S
O557 Cd553 2.439 . S
O557 C558 1.208 . S
C558 O556 1.247 . S
C558 O557 1.208 . S
C559 O564 1.247 . S
C559 O565 1.208 . S
C560 O552 1.315 . S
C560 O555 1.279 . S
C561 O562 1.315 . S
C561 O563 1.279 . S
O562 Cd554 2.223 . S
O562 C561 1.315 . S
O563 Cd553 2.240 . S
O563 C561 1.279 . S
O564 Cd554 2.297 . S
O564 C559 1.247 . S
O565 Cd554 2.439 . S
O565 C559 1.208 . S
O566 Cd567 2.223 . S
O566 C574 1.315 . S
Cd567 O566 2.223 . S
Cd567 O570 2.297 . S
Cd567 O571 2.439 . S
Cd567 O577 2.240 . S
Cd568 O569 2.240 . S
Cd568 O576 2.223 . S
Cd568 O578 2.297 . S
Cd568 O579 2.439 . S
O569 Cd568 2.240 . S
O569 C574 1.279 . S
O570 Cd567 2.297 . S
O570 C572 1.247 . S
O571 Cd567 2.439 . S
O571 C572 1.208 . S
C572 O570 1.247 . S
C572 O571 1.208 . S
C573 O578 1.247 . S
C573 O579 1.208 . S
C574 O566 1.315 . S
C574 O569 1.279 . S
C575 O576 1.315 . S
C575 O577 1.279 . S
O576 Cd568 2.223 . S
O576 C575 1.315 . S
O577 Cd567 2.240 . S
O577 C575 1.279 . S
O578 Cd568 2.297 . S
O578 C573 1.247 . S
O579 Cd568 2.439 . S
O579 C573 1.208 . S
O580 Cd581 2.223 . S
O580 C588 1.315 . S
Cd581 O580 2.223 . S
Cd581 O584 2.297 . S
Cd581 O585 2.451 . S
Cd581 O591 2.240 1_554 S
Cd582 O583 2.240 1_556 S
Cd582 O590 2.225 . S
Cd582 O592 2.297 . S
Cd582 O593 2.439 . S
O583 Cd582 2.240 1_554 S
O583 C588 1.279 . S
O584 Cd581 2.297 . S
O584 C586 1.247 . S
O585 Cd581 2.451 . S
O585 C586 1.252 . S
C586 O584 1.247 . S
C586 O585 1.252 . S
C587 O592 1.247 . S
C587 O593 1.208 . S
C588 O580 1.315 . S
C588 O583 1.279 . S
C589 O590 1.320 . S
C589 O591 1.279 . S
O590 Cd582 2.225 . S
O590 C589 1.320 . S
O591 Cd581 2.240 1_556 S
O591 C589 1.279 . S
O592 Cd582 2.297 . S
O592 C587 1.247 . S
O593 Cd582 2.439 . S
O593 C587 1.208 . S
O594 Cd595 2.223 . S
O594 C602 1.315 . S
Cd595 O594 2.223 . S
Cd595 O598 2.297 . S
Cd595 O599 2.439 . S
Cd595 O605 2.240 . S
Cd596 O597 2.240 . S
Cd596 O604 2.223 . S
Cd596 O606 2.297 . S
Cd596 O607 2.439 . S
O597 Cd596 2.240 . S
O597 C602 1.279 . S
O598 Cd595 2.297 . S
O598 C600 1.247 . S
O599 Cd595 2.439 . S
O599 C600 1.208 . S
C600 O598 1.247 . S
C600 O599 1.208 . S
C601 O606 1.247 . S
C601 O607 1.208 . S
C602 O594 1.315 . S
C602 O597 1.279 . S
C603 O604 1.315 . S
C603 O605 1.279 . S
O604 Cd596 2.223 . S
O604 C603 1.315 . S
O605 Cd595 2.240 . S
O605 C603 1.279 . S
O606 Cd596 2.297 . S
O606 C601 1.247 . S
O607 Cd596 2.439 . S
O607 C601 1.208 . S
H608 C614 0.930 . S
H609 C618 0.930 . S
H610 C623 0.929 . S
H611 C621 0.929 . S
H612 C616 0.929 . S
H613 C622 0.929 . S
C614 H608 0.930 . S
C614 C615 1.367 . S
C614 C622 1.378 . S
C615 C614 1.367 . S
C615 C623 1.433 . S
C616 H612 0.929 . S
C616 C618 1.378 . S
C616 C620 1.350 . S
C617 C620 1.463 . S
C617 C622 1.350 . S
C617 N625 1.427 . S
C618 H609 0.930 . S
C618 C616 1.378 . S
C618 C619 1.367 . S
C619 C618 1.367 . S
C619 C621 1.433 . S
C620 C616 1.350 . S
C620 C617 1.463 . S
C620 N624 1.427 . S
C621 H611 0.929 . S
C621 C619 1.433 . S
C621 N624 1.384 . S
C622 H613 0.929 . S
C622 C614 1.378 . S
C622 C617 1.350 . S
C623 H610 0.929 . S
C623 C615 1.433 . S
C623 N625 1.384 . S
N624 C620 1.427 . S
N624 C621 1.384 . S
N625 C617 1.427 . S
N625 C623 1.384 . S
H626 C632 0.930 . S
H627 C636 0.930 . S
H628 C641 0.929 . S
H629 C639 0.929 . S
H630 C634 0.929 . S
H631 C640 0.929 . S
C632 H626 0.930 . S
C632 C633 1.367 . S
C632 C640 1.378 . S
C633 C632 1.367 . S
C633 C641 1.433 . S
C634 H630 0.929 . S
C634 C636 1.378 . S
C634 C638 1.350 . S
C635 C638 1.463 . S
C635 C640 1.350 . S
C635 N643 1.427 . S
C636 H627 0.930 . S
C636 C634 1.378 . S
C636 C637 1.367 . S
C637 C636 1.367 . S
C637 C639 1.433 . S
C638 C634 1.350 . S
C638 C635 1.463 . S
C638 N642 1.427 . S
C639 H629 0.929 . S
C639 C637 1.433 . S
C639 N642 1.384 . S
C640 H631 0.929 . S
C640 C632 1.378 . S
C640 C635 1.350 . S
C641 H628 0.929 . S
C641 C633 1.433 . S
C641 N643 1.384 . S
N642 C638 1.427 . S
N642 C639 1.384 . S
N643 C635 1.427 . S
N643 C641 1.384 . S
H644 C650 0.930 . S
H645 C654 0.930 . S
H646 C659 0.929 . S
H647 C657 0.929 . S
H648 C652 0.929 . S
H649 C658 0.929 . S
C650 H644 0.930 . S
C650 C651 1.367 . S
C650 C658 1.378 . S
C651 C650 1.367 . S
C651 C659 1.433 . S
C652 H648 0.929 . S
C652 C654 1.378 . S
C652 C656 1.350 . S
C653 C656 1.463 . S
C653 C658 1.350 . S
C653 N661 1.427 . S
C654 H645 0.930 . S
C654 C652 1.378 . S
C654 C655 1.367 . S
C655 C654 1.367 . S
C655 C657 1.433 . S
C656 C652 1.350 . S
C656 C653 1.463 . S
C656 N660 1.427 . S
C657 H647 0.929 . S
C657 C655 1.433 . S
C657 N660 1.384 . S
C658 H649 0.929 . S
C658 C650 1.378 . S
C658 C653 1.350 . S
C659 H646 0.929 . S
C659 C651 1.433 . S
C659 N661 1.384 . S
N660 C656 1.427 . S
N660 C657 1.384 . S
N661 C653 1.427 . S
N661 C659 1.384 . S
H662 C668 0.930 . S
H663 C672 0.930 . S
H664 C677 0.929 . S
H665 C675 0.929 . S
H666 C670 0.929 . S
H667 C676 0.929 . S
C668 H662 0.930 . S
C668 C669 1.367 . S
C668 C676 1.378 . S
C669 C668 1.367 . S
C669 C677 1.433 . S
C670 H666 0.929 . S
C670 C672 1.378 . S
C670 C674 1.350 . S
C671 C674 1.463 . S
C671 C676 1.350 . S
C671 N679 1.427 . S
C672 H663 0.930 . S
C672 C670 1.378 . S
C672 C673 1.367 . S
C673 C672 1.367 . S
C673 C675 1.433 . S
C674 C670 1.350 . S
C674 C671 1.463 . S
C674 N678 1.427 . S
C675 H665 0.929 . S
C675 C673 1.433 . S
C675 N678 1.384 . S
C676 H667 0.929 . S
C676 C668 1.378 . S
C676 C671 1.350 . S
C677 H664 0.929 . S
C677 C669 1.433 . S
C677 N679 1.384 . S
N678 C674 1.427 . S
N678 C675 1.384 . S
N679 C671 1.427 . S
N679 C677 1.384 . S
H680 C686 0.930 . S
H681 C690 0.930 . S
H682 C695 0.929 . S
H683 C693 0.929 . S
H684 C688 0.929 . S
H685 C694 0.929 . S
C686 H680 0.930 . S
C686 C687 1.367 . S
C686 C694 1.378 . S
C687 C686 1.367 . S
C687 C695 1.433 . S
C688 H684 0.929 . S
C688 C690 1.378 . S
C688 C692 1.350 . S
C689 C692 1.463 . S
C689 C694 1.350 . S
C689 N697 1.427 . S
C690 H681 0.930 . S
C690 C688 1.378 . S
C690 C691 1.367 . S
C691 C690 1.367 . S
C691 C693 1.433 . S
C692 C688 1.350 . S
C692 C689 1.463 . S
C692 N696 1.427 . S
C693 H683 0.929 . S
C693 C691 1.433 . S
C693 N696 1.384 . S
C694 H685 0.929 . S
C694 C686 1.378 . S
C694 C689 1.350 . S
C695 H682 0.929 . S
C695 C687 1.433 . S
C695 N697 1.384 . S
N696 C692 1.427 . S
N696 C693 1.384 . S
N697 C689 1.427 . S
N697 C695 1.384 . S
H698 C704 0.930 . S
H699 C708 0.930 . S
H700 C713 0.929 . S
H701 C711 0.929 . S
H702 C706 0.929 . S
H703 C712 0.929 . S
C704 H698 0.930 . S
C704 C705 1.367 . S
C704 C712 1.378 . S
C705 C704 1.367 . S
C705 C713 1.433 . S
C706 H702 0.929 . S
C706 C708 1.378 . S
C706 C710 1.350 . S
C707 C710 1.463 . S
C707 C712 1.350 . S
C707 N715 1.427 . S
C708 H699 0.930 . S
C708 C706 1.378 . S
C708 C709 1.367 . S
C709 C708 1.367 . S
C709 C711 1.433 . S
C710 C706 1.350 . S
C710 C707 1.463 . S
C710 N714 1.427 . S
C711 H701 0.929 . S
C711 C709 1.433 . S
C711 N714 1.384 . S
C712 H703 0.929 . S
C712 C704 1.378 . S
C712 C707 1.350 . S
C713 H700 0.929 . S
C713 C705 1.433 . S
C713 N715 1.384 . S
N714 C710 1.427 . S
N714 C711 1.384 . S
N715 C707 1.427 . S
N715 C713 1.384 . S
H716 C722 0.930 . S
H717 C726 0.930 . S
H718 C731 0.929 . S
H719 C729 0.929 . S
H720 C724 0.929 . S
H721 C730 0.929 . S
C722 H716 0.930 . S
C722 C723 1.367 . S
C722 C730 1.378 . S
C723 C722 1.367 . S
C723 C731 1.433 . S
C724 H720 0.929 . S
C724 C726 1.378 . S
C724 C728 1.350 . S
C725 C728 1.463 . S
C725 C730 1.350 . S
C725 N733 1.427 . S
C726 H717 0.930 . S
C726 C724 1.378 . S
C726 C727 1.367 . S
C727 C726 1.367 . S
C727 C729 1.433 . S
C728 C724 1.350 . S
C728 C725 1.463 . S
C728 N732 1.427 . S
C729 H719 0.929 . S
C729 C727 1.433 . S
C729 N732 1.384 . S
C730 H721 0.929 . S
C730 C722 1.378 . S
C730 C725 1.350 . S
C731 H718 0.929 . S
C731 C723 1.433 . S
C731 N733 1.384 . S
N732 C728 1.427 . S
N732 C729 1.384 . S
N733 C725 1.427 . S
N733 C731 1.384 . S
H734 C740 0.930 . S
H735 C744 0.930 . S
H736 C749 0.929 . S
H737 C747 0.929 . S
H738 C742 0.929 . S
H739 C748 0.929 . S
C740 H734 0.930 . S
C740 C741 1.383 . S
C740 C748 1.378 . S
C741 C740 1.383 . S
C741 C749 1.446 . S
C742 H738 0.929 . S
C742 C744 1.378 . S
C742 C746 1.350 . S
C743 C746 1.463 . S
C743 C748 1.350 . S
C743 N751 1.427 . S
C744 H735 0.930 . S
C744 C742 1.378 . S
C744 C745 1.367 . S
C745 C744 1.367 . S
C745 C747 1.433 . S
C746 C742 1.350 . S
C746 C743 1.463 . S
C746 N750 1.427 . S
C747 H737 0.929 . S
C747 C745 1.433 . S
C747 N750 1.384 . S
C748 H739 0.929 . S
C748 C740 1.378 . S
C748 C743 1.350 . S
C749 H736 0.929 . S
C749 C741 1.446 . S
C749 N751 1.384 . S
N750 C746 1.427 . S
N750 C747 1.384 . S
N751 C743 1.427 . S
N751 C749 1.384 . S
H752 C758 0.930 . S
H753 C762 0.930 . S
H754 C767 0.929 . S
H755 C765 0.929 . S
H756 C760 0.929 . S
H757 C766 0.929 . S
C758 H752 0.930 . S
C758 C759 1.367 . S
C758 C766 1.378 . S
C759 C758 1.367 . S
C759 C767 1.433 . S
C760 H756 0.929 . S
C760 C762 1.378 . S
C760 C764 1.350 . S
C761 C764 1.463 . S
C761 C766 1.350 . S
C761 N769 1.427 . S
C762 H753 0.930 . S
C762 C760 1.378 . S
C762 C763 1.367 . S
C763 C762 1.367 . S
C763 C765 1.433 . S
C764 C760 1.350 . S
C764 C761 1.463 . S
C764 N768 1.427 . S
C765 H755 0.929 . S
C765 C763 1.433 . S
C765 N768 1.384 . S
C766 H757 0.929 . S
C766 C758 1.378 . S
C766 C761 1.350 . S
C767 H754 0.929 . S
C767 C759 1.433 . S
C767 N769 1.384 . S
N768 C764 1.427 . S
N768 C765 1.384 . S
N769 C761 1.427 . S
N769 C767 1.384 . S
H770 C776 0.930 . S
H771 C780 0.876 1_556 S
H772 C785 0.929 . S
H773 C783 0.929 . S
H774 C778 0.929 1_556 S
H775 C784 0.929 . S
C776 H770 0.930 . S
C776 C777 1.367 . S
C776 C784 1.378 . S
C777 C776 1.367 . S
C777 C785 1.433 . S
C778 H774 0.929 1_554 S
C778 C780 1.393 . S
C778 C782 1.350 . S
C779 C782 1.463 . S
C779 C784 1.350 . S
C779 N787 1.427 . S
C780 H771 0.876 1_554 S
C780 C778 1.393 . S
C780 C781 1.409 . S
C781 C780 1.409 . S
C781 C783 1.433 . S
C782 C778 1.350 . S
C782 C779 1.463 . S
C782 N786 1.427 . S
C783 H773 0.929 . S
C783 C781 1.433 . S
C783 N786 1.384 . S
C784 H775 0.929 . S
C784 C776 1.378 . S
C784 C779 1.350 . S
C785 H772 0.929 . S
C785 C777 1.433 . S
C785 N787 1.384 . S
N786 C782 1.427 . S
N786 C783 1.384 . S
N787 C779 1.427 . S
N787 C785 1.384 . S
H788 C794 0.930 . S
H789 C798 0.930 . S
H790 C803 0.929 . S
H791 C801 0.929 . S
H792 C796 0.929 . S
H793 C802 0.929 . S
C794 H788 0.930 . S
C794 C795 1.367 . S
C794 C802 1.378 . S
C795 C794 1.367 . S
C795 C803 1.433 . S
C796 H792 0.929 . S
C796 C798 1.378 . S
C796 C800 1.350 . S
C797 C800 1.463 . S
C797 C802 1.350 . S
C797 N805 1.427 . S
C798 H789 0.930 . S
C798 C796 1.378 . S
C798 C799 1.367 . S
C799 C798 1.367 . S
C799 C801 1.433 . S
C800 C796 1.350 . S
C800 C797 1.463 . S
C800 N804 1.427 . S
C801 H791 0.929 . S
C801 C799 1.433 . S
C801 N804 1.384 . S
C802 H793 0.929 . S
C802 C794 1.378 . S
C802 C797 1.350 . S
C803 H790 0.929 . S
C803 C795 1.433 . S
C803 N805 1.384 . S
N804 C800 1.427 . S
N804 C801 1.384 . S
N805 C797 1.427 . S
N805 C803 1.384 . S
H806 C812 0.930 . S
H807 C816 0.930 . S
H808 C821 0.929 . S
H809 C819 0.929 . S
H810 C814 0.929 . S
H811 C820 0.929 . S
C812 H806 0.930 . S
C812 C813 1.367 . S
C812 C820 1.378 . S
C813 C812 1.367 . S
C813 C821 1.433 . S
C814 H810 0.929 . S
C814 C816 1.378 . S
C814 C818 1.350 . S
C815 C818 1.463 . S
C815 C820 1.350 . S
C815 N823 1.427 . S
C816 H807 0.930 . S
C816 C814 1.378 . S
C816 C817 1.367 . S
C817 C816 1.367 . S
C817 C819 1.433 . S
C818 C814 1.350 . S
C818 C815 1.463 . S
C818 N822 1.427 . S
C819 H809 0.929 . S
C819 C817 1.433 . S
C819 N822 1.384 . S
C820 H811 0.929 . S
C820 C812 1.378 . S
C820 C815 1.350 . S
C821 H808 0.929 . S
C821 C813 1.433 . S
C821 N823 1.384 . S
N822 C818 1.427 . S
N822 C819 1.384 . S
N823 C815 1.427 . S
N823 C821 1.384 . S
H824 C830 0.930 . S
H825 C834 0.930 . S
H826 C839 0.929 . S
H827 C837 0.929 . S
H828 C832 0.929 . S
H829 C838 0.929 . S
C830 H824 0.930 . S
C830 C831 1.367 . S
C830 C838 1.378 . S
C831 C830 1.367 . S
C831 C839 1.433 . S
C832 H828 0.929 . S
C832 C834 1.378 . S
C832 C836 1.350 . S
C833 C836 1.463 . S
C833 C838 1.350 . S
C833 N841 1.427 . S
C834 H825 0.930 . S
C834 C832 1.378 . S
C834 C835 1.367 . S
C835 C834 1.367 . S
C835 C837 1.433 . S
C836 C832 1.350 . S
C836 C833 1.463 . S
C836 N840 1.427 . S
C837 H827 0.929 . S
C837 C835 1.433 . S
C837 N840 1.384 . S
C838 H829 0.929 . S
C838 C830 1.378 . S
C838 C833 1.350 . S
C839 H826 0.929 . S
C839 C831 1.433 . S
C839 N841 1.384 . S
N840 C836 1.427 . S
N840 C837 1.384 . S
N841 C833 1.427 . S
N841 C839 1.384 . S
H842 C848 0.930 . S
H843 C852 0.930 . S
H844 C857 0.929 . S
H845 C855 0.929 . S
H846 C850 0.929 . S
H847 C856 0.929 . S
C848 H842 0.930 . S
C848 C849 1.367 . S
C848 C856 1.378 . S
C849 C848 1.367 . S
C849 C857 1.433 . S
C850 H846 0.929 . S
C850 C852 1.378 . S
C850 C854 1.350 . S
C851 C854 1.463 . S
C851 C856 1.350 . S
C851 N859 1.427 . S
C852 H843 0.930 . S
C852 C850 1.378 . S
C852 C853 1.367 . S
C853 C852 1.367 . S
C853 C855 1.433 . S
C854 C850 1.350 . S
C854 C851 1.463 . S
C854 N858 1.427 . S
C855 H845 0.929 . S
C855 C853 1.433 . S
C855 N858 1.384 . S
C856 H847 0.929 . S
C856 C848 1.378 . S
C856 C851 1.350 . S
C857 H844 0.929 . S
C857 C849 1.433 . S
C857 N859 1.384 . S
N858 C854 1.427 . S
N858 C855 1.384 . S
N859 C851 1.427 . S
N859 C857 1.384 . S
H860 C866 0.930 . S
H861 C870 0.930 . S
H862 C875 0.929 . S
H863 C873 0.929 . S
H864 C868 0.929 . S
H865 C874 0.929 . S
C866 H860 0.930 . S
C866 C867 1.367 . S
C866 C874 1.378 . S
C867 C866 1.367 . S
C867 C875 1.433 1_556 S
C868 H864 0.929 . S
C868 C870 1.378 . S
C868 C872 1.350 1_554 S
C869 C872 1.463 . S
C869 C874 1.350 . S
C869 N877 1.427 1_556 S
C870 H861 0.930 . S
C870 C868 1.378 . S
C870 C871 1.367 1_554 S
C871 C870 1.367 1_556 S
C871 C873 1.433 . S
C872 C868 1.350 1_556 S
C872 C869 1.463 . S
C872 N876 1.427 . S
C873 H863 0.929 . S
C873 C871 1.433 . S
C873 N876 1.384 . S
C874 H865 0.929 . S
C874 C866 1.378 . S
C874 C869 1.350 . S
C875 H862 0.929 . S
C875 C867 1.433 1_554 S
C875 N877 1.384 . S
N876 C872 1.427 . S
N876 C873 1.384 . S
N877 C869 1.427 1_554 S
N877 C875 1.384 . S
H878 C884 0.930 . S
H879 C888 0.930 . S
H880 C893 0.929 . S
H881 C891 0.929 . S
H882 C886 0.929 . S
H883 C892 0.929 . S
C884 H878 0.930 . S
C884 C885 1.367 . S
C884 C892 1.378 . S
C885 C884 1.367 . S
C885 C893 1.433 . S
C886 H882 0.929 . S
C886 C888 1.378 . S
C886 C890 1.350 . S
C887 C890 1.463 . S
C887 C892 1.350 . S
C887 N895 1.427 . S
C888 H879 0.930 . S
C888 C886 1.378 . S
C888 C889 1.367 . S
C889 C888 1.367 . S
C889 C891 1.433 . S
C890 C886 1.350 . S
C890 C887 1.463 . S
C890 N894 1.427 . S
C891 H881 0.929 . S
C891 C889 1.433 . S
C891 N894 1.384 . S
C892 H883 0.929 . S
C892 C884 1.378 . S
C892 C887 1.350 . S
C893 H880 0.929 . S
C893 C885 1.433 . S
C893 N895 1.384 . S
N894 C890 1.427 . S
N894 C891 1.384 . S
N895 C887 1.427 . S
N895 C893 1.384 . S
H896 C902 0.930 . S
H897 C906 0.930 . S
H898 C911 0.929 . S
H899 C909 0.929 . S
H900 C904 0.929 . S
H901 C910 0.929 . S
C902 H896 0.930 . S
C902 C903 1.367 . S
C902 C910 1.378 . S
C903 C902 1.367 . S
C903 C911 1.433 . S
C904 H900 0.929 . S
C904 C906 1.378 . S
C904 C908 1.350 . S
C905 C908 1.463 . S
C905 C910 1.350 . S
C905 N913 1.427 . S
C906 H897 0.930 . S
C906 C904 1.378 . S
C906 C907 1.367 . S
C907 C906 1.367 . S
C907 C909 1.433 . S
C908 C904 1.350 . S
C908 C905 1.463 . S
C908 N912 1.427 . S
C909 H899 0.929 . S
C909 C907 1.433 . S
C909 N912 1.384 . S
C910 H901 0.929 . S
C910 C902 1.378 . S
C910 C905 1.350 . S
C911 H898 0.929 . S
C911 C903 1.433 . S
C911 N913 1.384 . S
N912 C908 1.427 . S
N912 C909 1.384 . S
N913 C905 1.427 . S
N913 C911 1.384 . S
H914 C920 0.930 . S
H915 C924 0.930 . S
H916 C929 0.929 . S
H917 C927 0.929 . S
H918 C922 0.929 . S
H919 C928 0.929 . S
C920 H914 0.930 . S
C920 C921 1.367 . S
C920 C928 1.378 . S
C921 C920 1.367 . S
C921 C929 1.433 . S
C922 H918 0.929 . S
C922 C924 1.378 . S
C922 C926 1.350 . S
C923 C926 1.463 . S
C923 C928 1.350 . S
C923 N931 1.427 . S
C924 H915 0.930 . S
C924 C922 1.378 . S
C924 C925 1.367 . S
C925 C924 1.367 . S
C925 C927 1.433 . S
C926 C922 1.350 . S
C926 C923 1.463 . S
C926 N930 1.427 . S
C927 H917 0.929 . S
C927 C925 1.433 . S
C927 N930 1.384 . S
C928 H919 0.929 . S
C928 C920 1.378 . S
C928 C923 1.350 . S
C929 H916 0.929 . S
C929 C921 1.433 . S
C929 N931 1.384 . S
N930 C926 1.427 . S
N930 C927 1.384 . S
N931 C923 1.427 . S
N931 C929 1.384 . S
H932 C938 0.930 . S
H933 C942 0.930 . S
H934 C947 0.929 . S
H935 C945 0.929 . S
H936 C940 0.929 . S
H937 C946 0.929 . S
C938 H932 0.930 . S
C938 C939 1.367 . S
C938 C946 1.378 . S
C939 C938 1.367 . S
C939 C947 1.433 . S
C940 H936 0.929 . S
C940 C942 1.378 . S
C940 C944 1.350 . S
C941 C944 1.463 . S
C941 C946 1.350 . S
C941 N949 1.427 . S
C942 H933 0.930 . S
C942 C940 1.378 . S
C942 C943 1.367 . S
C943 C942 1.367 . S
C943 C945 1.433 . S
C944 C940 1.350 . S
C944 C941 1.463 . S
C944 N948 1.427 . S
C945 H935 0.929 . S
C945 C943 1.433 . S
C945 N948 1.384 . S
C946 H937 0.929 . S
C946 C938 1.378 . S
C946 C941 1.350 . S
C947 H934 0.929 . S
C947 C939 1.433 . S
C947 N949 1.384 . S
N948 C944 1.427 . S
N948 C945 1.384 . S
N949 C941 1.427 . S
N949 C947 1.384 . S
H950 C956 0.930 . S
H951 C960 0.930 . S
H952 C965 0.929 . S
H953 C963 0.929 . S
H954 C958 0.929 . S
H955 C964 0.929 . S
C956 H950 0.930 . S
C956 C957 1.367 . S
C956 C964 1.378 . S
C957 C956 1.367 . S
C957 C965 1.433 . S
C958 H954 0.929 . S
C958 C960 1.378 . S
C958 C962 1.350 . S
C959 C962 1.463 . S
C959 C964 1.350 . S
C959 N967 1.427 . S
C960 H951 0.930 . S
C960 C958 1.378 . S
C960 C961 1.367 . S
C961 C960 1.367 . S
C961 C963 1.433 . S
C962 C958 1.350 . S
C962 C959 1.463 . S
C962 N966 1.427 . S
C963 H953 0.929 . S
C963 C961 1.433 . S
C963 N966 1.384 . S
C964 H955 0.929 . S
C964 C956 1.378 . S
C964 C959 1.350 . S
C965 H952 0.929 . S
C965 C957 1.433 . S
C965 N967 1.384 . S
N966 C962 1.427 . S
N966 C963 1.384 . S
N967 C959 1.427 . S
N967 C965 1.384 . S
H968 C974 0.930 . S
H969 C978 0.930 . S
H970 C983 0.929 . S
H971 C981 0.929 . S
H972 C976 0.929 . S
H973 C982 0.929 . S
C974 H968 0.930 . S
C974 C975 1.367 . S
C974 C982 1.378 . S
C975 C974 1.367 . S
C975 C983 1.433 . S
C976 H972 0.929 . S
C976 C978 1.378 . S
C976 C980 1.350 . S
C977 C980 1.463 . S
C977 C982 1.350 . S
C977 N985 1.427 . S
C978 H969 0.930 . S
C978 C976 1.378 . S
C978 C979 1.367 . S
C979 C978 1.367 . S
C979 C981 1.433 . S
C980 C976 1.350 . S
C980 C977 1.463 . S
C980 N984 1.427 . S
C981 H971 0.929 . S
C981 C979 1.433 . S
C981 N984 1.384 . S
C982 H973 0.929 . S
C982 C974 1.378 . S
C982 C977 1.350 . S
C983 H970 0.929 . S
C983 C975 1.433 . S
C983 N985 1.384 . S
N984 C980 1.427 . S
N984 C981 1.384 . S
N985 C977 1.427 . S
N985 C983 1.384 . S
H986 C992 0.930 . S
H987 C996 0.930 . S
H988 C1001 0.929 . S
H989 C999 0.929 . S
H990 C994 0.929 . S
H991 C1000 0.929 . S
C992 H986 0.930 . S
C992 C993 1.367 . S
C992 C1000 1.378 . S
C993 C992 1.367 . S
C993 C1001 1.433 . S
C994 H990 0.929 . S
C994 C996 1.378 . S
C994 C998 1.350 . S
C995 C998 1.463 . S
C995 C1000 1.350 . S
C995 N1003 1.427 . S
C996 H987 0.930 . S
C996 C994 1.378 . S
C996 C997 1.367 . S
C997 C996 1.367 . S
C997 C999 1.433 . S
C998 C994 1.350 . S
C998 C995 1.463 . S
C998 N1002 1.427 . S
C999 H989 0.929 . S
C999 C997 1.433 . S
C999 N1002 1.384 . S
C1000 H991 0.929 . S
C1000 C992 1.378 . S
C1000 C995 1.350 . S
C1001 H988 0.929 . S
C1001 C993 1.433 . S
C1001 N1003 1.384 . S
N1002 C998 1.427 . S
N1002 C999 1.384 . S
N1003 C995 1.427 . S
N1003 C1001 1.384 . S
H1004 C1010 0.930 . S
H1005 C1014 0.930 . S
H1006 C1019 0.929 . S
H1007 C1017 0.929 . S
H1008 C1012 0.929 . S
H1009 C1018 0.929 . S
C1010 H1004 0.930 . S
C1010 C1011 1.367 . S
C1010 C1018 1.378 . S
C1011 C1010 1.367 . S
C1011 C1019 1.433 . S
C1012 H1008 0.929 . S
C1012 C1014 1.378 . S
C1012 C1016 1.350 . S
C1013 C1016 1.463 . S
C1013 C1018 1.350 . S
C1013 N1021 1.427 . S
C1014 H1005 0.930 . S
C1014 C1012 1.378 . S
C1014 C1015 1.367 . S
C1015 C1014 1.367 . S
C1015 C1017 1.433 . S
C1016 C1012 1.350 . S
C1016 C1013 1.463 . S
C1016 N1020 1.427 . S
C1017 H1007 0.929 . S
C1017 C1015 1.433 . S
C1017 N1020 1.384 . S
C1018 H1009 0.929 . S
C1018 C1010 1.378 . S
C1018 C1013 1.350 . S
C1019 H1006 0.929 . S
C1019 C1011 1.433 . S
C1019 N1021 1.384 . S
N1020 C1016 1.427 . S
N1020 C1017 1.384 . S
N1021 C1013 1.427 . S
N1021 C1019 1.384 . S
H1022 C1028 0.930 . S
H1023 C1032 0.930 . S
H1024 C1037 0.929 . S
H1025 C1035 0.929 . S
H1026 C1030 0.929 . S
H1027 C1036 0.929 . S
C1028 H1022 0.930 . S
C1028 C1029 1.367 1_565 S
C1028 C1036 1.378 . S
C1029 C1028 1.367 1_545 S
C1029 C1037 1.433 . S
C1030 H1026 0.929 . S
C1030 C1032 1.378 . S
C1030 C1034 1.350 . S
C1031 C1034 1.463 . S
C1031 C1036 1.350 . S
C1031 N1039 1.427 1_565 S
C1032 H1023 0.930 . S
C1032 C1030 1.378 . S
C1032 C1033 1.367 . S
C1033 C1032 1.367 . S
C1033 C1035 1.433 . S
C1034 C1030 1.350 . S
C1034 C1031 1.463 . S
C1034 N1038 1.427 . S
C1035 H1025 0.929 . S
C1035 C1033 1.433 . S
C1035 N1038 1.384 . S
C1036 H1027 0.929 . S
C1036 C1028 1.378 . S
C1036 C1031 1.350 . S
C1037 H1024 0.929 . S
C1037 C1029 1.433 . S
C1037 N1039 1.384 . S
N1038 C1034 1.427 . S
N1038 C1035 1.384 . S
N1039 C1031 1.427 1_545 S
N1039 C1037 1.384 . S
H1040 C1046 0.930 . S
H1041 C1050 0.930 . S
H1042 C1055 0.929 . S
H1043 C1053 0.929 . S
H1044 C1048 0.929 . S
H1045 C1054 0.929 . S
C1046 H1040 0.930 . S
C1046 C1047 1.367 . S
C1046 C1054 1.378 . S
C1047 C1046 1.367 . S
C1047 C1055 1.433 . S
C1048 H1044 0.929 . S
C1048 C1050 1.378 . S
C1048 C1052 1.350 . S
C1049 C1052 1.463 . S
C1049 C1054 1.350 . S
C1049 N1057 1.427 . S
C1050 H1041 0.930 . S
C1050 C1048 1.378 . S
C1050 C1051 1.367 . S
C1051 C1050 1.367 . S
C1051 C1053 1.433 . S
C1052 C1048 1.350 . S
C1052 C1049 1.463 . S
C1052 N1056 1.427 . S
C1053 H1043 0.929 . S
C1053 C1051 1.433 . S
C1053 N1056 1.384 . S
C1054 H1045 0.929 . S
C1054 C1046 1.378 . S
C1054 C1049 1.350 . S
C1055 H1042 0.929 . S
C1055 C1047 1.433 . S
C1055 N1057 1.384 . S
N1056 C1052 1.427 . S
N1056 C1053 1.384 . S
N1057 C1049 1.427 . S
N1057 C1055 1.384 . S
H1058 C1064 0.930 . S
H1059 C1068 0.930 . S
H1060 C1073 0.929 . S
H1061 C1071 0.929 . S
H1062 C1066 0.929 . S
H1063 C1072 0.929 . S
C1064 H1058 0.930 . S
C1064 C1065 1.367 . S
C1064 C1072 1.378 . S
C1065 C1064 1.367 . S
C1065 C1073 1.433 . S
C1066 H1062 0.929 . S
C1066 C1068 1.378 . S
C1066 C1070 1.350 . S
C1067 C1070 1.463 . S
C1067 C1072 1.350 . S
C1067 N1075 1.427 . S
C1068 H1059 0.930 . S
C1068 C1066 1.378 . S
C1068 C1069 1.367 . S
C1069 C1068 1.367 . S
C1069 C1071 1.433 . S
C1070 C1066 1.350 . S
C1070 C1067 1.463 . S
C1070 N1074 1.427 . S
C1071 H1061 0.929 . S
C1071 C1069 1.433 . S
C1071 N1074 1.384 . S
C1072 H1063 0.929 . S
C1072 C1064 1.378 . S
C1072 C1067 1.350 . S
C1073 H1060 0.929 . S
C1073 C1065 1.433 . S
C1073 N1075 1.384 . S
N1074 C1070 1.427 . S
N1074 C1071 1.384 . S
N1075 C1067 1.427 . S
N1075 C1073 1.384 . S
H1076 C1082 0.930 . S
H1077 C1086 0.930 . S
H1078 C1091 0.929 1_455 S
H1079 C1089 0.929 . S
H1080 C1084 0.929 . S
H1081 C1090 0.929 . S
C1082 H1076 0.930 . S
C1082 C1083 1.367 . S
C1082 C1090 1.378 . S
C1083 C1082 1.367 . S
C1083 C1091 1.433 . S
C1084 H1080 0.929 . S
C1084 C1086 1.378 . S
C1084 C1088 1.350 . S
C1085 C1088 1.463 . S
C1085 C1090 1.350 . S
C1085 N1093 1.427 . S
C1086 H1077 0.930 . S
C1086 C1084 1.378 . S
C1086 C1087 1.367 . S
C1087 C1086 1.367 . S
C1087 C1089 1.433 . S
C1088 C1084 1.350 . S
C1088 C1085 1.463 . S
C1088 N1092 1.427 . S
C1089 H1079 0.929 . S
C1089 C1087 1.433 . S
C1089 N1092 1.384 . S
C1090 H1081 0.929 . S
C1090 C1082 1.378 . S
C1090 C1085 1.350 . S
C1091 H1078 0.929 1_655 S
C1091 C1083 1.433 . S
C1091 N1093 1.384 . S
N1092 C1088 1.427 . S
N1092 C1089 1.384 . S
N1093 C1085 1.427 . S
N1093 C1091 1.384 . S
H1094 C1100 0.930 . S
H1095 C1104 0.930 . S
H1096 C1109 0.929 . S
H1097 C1107 0.929 . S
H1098 C1102 0.929 . S
H1099 C1108 0.929 . S
C1100 H1094 0.930 . S
C1100 C1101 1.367 . S
C1100 C1108 1.378 . S
C1101 C1100 1.367 . S
C1101 C1109 1.433 . S
C1102 H1098 0.929 . S
C1102 C1104 1.378 . S
C1102 C1106 1.350 . S
C1103 C1106 1.463 . S
C1103 C1108 1.350 . S
C1103 N1111 1.427 . S
C1104 H1095 0.930 . S
C1104 C1102 1.378 . S
C1104 C1105 1.367 . S
C1105 C1104 1.367 . S
C1105 C1107 1.433 . S
C1106 C1102 1.350 . S
C1106 C1103 1.463 . S
C1106 N1110 1.427 . S
C1107 H1097 0.929 . S
C1107 C1105 1.433 . S
C1107 N1110 1.384 . S
C1108 H1099 0.929 . S
C1108 C1100 1.378 . S
C1108 C1103 1.350 . S
C1109 H1096 0.929 . S
C1109 C1101 1.433 . S
C1109 N1111 1.384 . S
N1110 C1106 1.427 . S
N1110 C1107 1.384 . S
N1111 C1103 1.427 . S
N1111 C1109 1.384 . S
H1112 C1118 0.930 . S
H1113 C1122 0.930 . S
H1114 C1127 0.929 . S
H1115 C1125 0.929 . S
H1116 C1120 0.929 . S
H1117 C1126 0.929 . S
C1118 H1112 0.930 . S
C1118 C1119 1.367 . S
C1118 C1126 1.378 . S
C1119 C1118 1.367 . S
C1119 C1127 1.433 . S
C1120 H1116 0.929 . S
C1120 C1122 1.378 . S
C1120 C1124 1.350 . S
C1121 C1124 1.463 . S
C1121 C1126 1.350 . S
C1121 N1129 1.427 . S
C1122 H1113 0.930 . S
C1122 C1120 1.378 . S
C1122 C1123 1.367 . S
C1123 C1122 1.367 . S
C1123 C1125 1.433 . S
C1124 C1120 1.350 . S
C1124 C1121 1.463 . S
C1124 N1128 1.427 . S
C1125 H1115 0.929 . S
C1125 C1123 1.433 . S
C1125 N1128 1.384 . S
C1126 H1117 0.929 . S
C1126 C1118 1.378 . S
C1126 C1121 1.350 . S
C1127 H1114 0.929 . S
C1127 C1119 1.433 . S
C1127 N1129 1.384 . S
N1128 C1124 1.427 . S
N1128 C1125 1.384 . S
N1129 C1121 1.427 . S
N1129 C1127 1.384 . S
H1130 C1136 0.930 . S
H1131 C1140 0.930 . S
H1132 C1145 0.929 1_455 S
H1133 C1143 0.929 . S
H1134 C1138 0.929 . S
H1135 C1144 0.929 . S
C1136 H1130 0.930 . S
C1136 C1137 1.367 . S
C1136 C1144 1.378 . S
C1137 C1136 1.367 . S
C1137 C1145 1.433 . S
C1138 H1134 0.929 . S
C1138 C1140 1.378 . S
C1138 C1142 1.350 . S
C1139 C1142 1.463 . S
C1139 C1144 1.350 . S
C1139 N1147 1.427 . S
C1140 H1131 0.930 . S
C1140 C1138 1.378 . S
C1140 C1141 1.367 . S
C1141 C1140 1.367 . S
C1141 C1143 1.433 . S
C1142 C1138 1.350 . S
C1142 C1139 1.463 . S
C1142 N1146 1.427 . S
C1143 H1133 0.929 . S
C1143 C1141 1.433 . S
C1143 N1146 1.384 . S
C1144 H1135 0.929 . S
C1144 C1136 1.378 . S
C1144 C1139 1.350 . S
C1145 H1132 0.929 1_655 S
C1145 C1137 1.433 . S
C1145 N1147 1.384 . S
N1146 C1142 1.427 . S
N1146 C1143 1.384 . S
N1147 C1139 1.427 . S
N1147 C1145 1.384 . S
H1148 C1154 0.930 . S
H1149 C1158 0.930 . S
H1150 C1163 0.929 . S
H1151 C1161 0.929 . S
H1152 C1156 0.929 . S
H1153 C1162 0.929 . S
C1154 H1148 0.930 . S
C1154 C1155 1.367 . S
C1154 C1162 1.378 . S
C1155 C1154 1.367 . S
C1155 C1163 1.433 . S
C1156 H1152 0.929 . S
C1156 C1158 1.378 . S
C1156 C1160 1.350 . S
C1157 C1160 1.463 . S
C1157 C1162 1.350 . S
C1157 N1165 1.427 . S
C1158 H1149 0.930 . S
C1158 C1156 1.378 . S
C1158 C1159 1.367 . S
C1159 C1158 1.367 . S
C1159 C1161 1.433 . S
C1160 C1156 1.350 . S
C1160 C1157 1.463 . S
C1160 N1164 1.427 . S
C1161 H1151 0.929 . S
C1161 C1159 1.433 . S
C1161 N1164 1.384 . S
C1162 H1153 0.929 . S
C1162 C1154 1.378 . S
C1162 C1157 1.350 . S
C1163 H1150 0.929 . S
C1163 C1155 1.433 . S
C1163 N1165 1.384 . S
N1164 C1160 1.427 . S
N1164 C1161 1.384 . S
N1165 C1157 1.427 . S
N1165 C1163 1.384 . S
H1166 C1172 0.930 . S
H1167 C1176 0.930 . S
H1168 C1181 0.929 . S
H1169 C1179 0.929 . S
H1170 C1174 0.929 . S
H1171 C1180 0.929 . S
C1172 H1166 0.930 . S
C1172 C1173 1.367 . S
C1172 C1180 1.378 . S
C1173 C1172 1.367 . S
C1173 C1181 1.433 . S
C1174 H1170 0.929 . S
C1174 C1176 1.378 . S
C1174 C1178 1.350 . S
C1175 C1178 1.463 . S
C1175 C1180 1.350 . S
C1175 N1183 1.427 . S
C1176 H1167 0.930 . S
C1176 C1174 1.378 . S
C1176 C1177 1.367 . S
C1177 C1176 1.367 . S
C1177 C1179 1.433 . S
C1178 C1174 1.350 . S
C1178 C1175 1.463 . S
C1178 N1182 1.427 . S
C1179 H1169 0.929 . S
C1179 C1177 1.433 . S
C1179 N1182 1.384 . S
C1180 H1171 0.929 . S
C1180 C1172 1.378 . S
C1180 C1175 1.350 . S
C1181 H1168 0.929 . S
C1181 C1173 1.433 . S
C1181 N1183 1.384 . S
N1182 C1178 1.427 . S
N1182 C1179 1.384 . S
N1183 C1175 1.427 . S
N1183 C1181 1.384 . S
C619 C516 1.436 . S
C615 C35 1.322 . S
C637 C533 1.429 . S
C633 C115 1.339 . S
C655 C547 1.566 . S
C651 C177 1.457 . S
C669 C221 1.297 . S
C673 C505 1.433 . S
C687 C283 1.370 . S
C691 C502 1.532 . S
C705 C363 1.224 . S
C709 C519 1.353 . S
C727 C530 1.669 . S
C723 C407 1.537 . S
C745 C544 1.571 . S
C741 C469 1.404 1_565 S
C759 C159 1.419 . S
C763 C572 1.571 . S
C781 C586 1.667 . S
C777 C239 1.558 . S
C795 C53 1.244 . S
C799 C603 1.359 . S
C817 C558 1.533 . S
C813 C97 1.349 . S
C831 C425 1.308 . S
C835 C561 1.443 . S
C849 C487 1.437 . S
C853 C575 1.560 . S
C871 C589 1.431 . S
C867 C301 1.336 . S
C885 C345 1.305 . S
C889 C600 1.438 . S
C907 C532 2.175 . S
C903 C29 2.182 . S
C925 C546 2.256 . S
C921 C109 2.189 . S
C939 C171 2.104 . S
C943 C504 2.176 1_556 S
C957 C215 1.999 . S
C961 C517 1.912 . S
C975 C277 1.801 . S
C979 C545 1.713 . S
C997 C503 1.693 . S
C993 C357 1.749 . S
C1015 C518 2.048 . S
C1011 C401 2.043 . S
C1033 C531 1.826 . S
C1029 C463 1.905 . S
C1051 C587 1.826 . S
C1047 C153 1.911 . S
C1069 C602 2.044 . S
C1065 C233 2.045 . S
C1083 C47 1.744 . S
C1087 C559 1.685 . S
C1105 C573 1.709 . S
C1101 C91 1.794 . S
C1123 C601 1.910 . S
C1119 C419 1.922 . S
C1137 C481 2.096 1_655 S
C1141 C560 2.175 . S
C1159 C574 2.257 . S
C1155 C295 2.187 . S
C1177 C588 2.171 . S
C1173 C339 2.182 . S
