# Generated by pormake.
# Topology tbo, (3,4)-cn, num edge types: 1
# Building blocks:
#     Node 0, Type 0, BuildingBlock: OLANEW_clean_sbu_2, # of connection points: 3
#     Node 1, Type 0, BuildingBlock: OLANEW_clean_sbu_2, # of connection points: 3
#     Node 2, Type 0, BuildingBlock: OLANEW_clean_sbu_2, # of connection points: 3
#     Node 3, Type 0, BuildingBlock: OLANEW_clean_sbu_2, # of connection points: 3
#     Node 4, Type 0, BuildingBlock: OLANEW_clean_sbu_2, # of connection points: 3
#     Node 5, Type 0, BuildingBlock: OLANEW_clean_sbu_2, # of connection points: 3
#     Node 6, Type 0, BuildingBlock: OLANEW_clean_sbu_2, # of connection points: 3
#     Node 7, Type 0, BuildingBlock: OLANEW_clean_sbu_2, # of connection points: 3
#     Node 8, Type 0, BuildingBlock: OLANEW_clean_sbu_2, # of connection points: 3
#     Node 9, Type 0, BuildingBlock: OLANEW_clean_sbu_2, # of connection points: 3
#     Node 10, Type 0, BuildingBlock: OLANEW_clean_sbu_2, # of connection points: 3
#     Node 11, Type 0, BuildingBlock: OLANEW_clean_sbu_2, # of connection points: 3
#     Node 12, Type 0, BuildingBlock: OLANEW_clean_sbu_2, # of connection points: 3
#     Node 13, Type 0, BuildingBlock: OLANEW_clean_sbu_2, # of connection points: 3
#     Node 14, Type 0, BuildingBlock: OLANEW_clean_sbu_2, # of connection points: 3
#     Node 15, Type 0, BuildingBlock: OLANEW_clean_sbu_2, # of connection points: 3
#     Node 16, Type 0, BuildingBlock: OLANEW_clean_sbu_2, # of connection points: 3
#     Node 17, Type 0, BuildingBlock: OLANEW_clean_sbu_2, # of connection points: 3
#     Node 18, Type 0, BuildingBlock: OLANEW_clean_sbu_2, # of connection points: 3
#     Node 19, Type 0, BuildingBlock: OLANEW_clean_sbu_2, # of connection points: 3
#     Node 20, Type 0, BuildingBlock: OLANEW_clean_sbu_2, # of connection points: 3
#     Node 21, Type 0, BuildingBlock: OLANEW_clean_sbu_2, # of connection points: 3
#     Node 22, Type 0, BuildingBlock: OLANEW_clean_sbu_2, # of connection points: 3
#     Node 23, Type 0, BuildingBlock: OLANEW_clean_sbu_2, # of connection points: 3
#     Node 24, Type 0, BuildingBlock: OLANEW_clean_sbu_2, # of connection points: 3
#     Node 25, Type 0, BuildingBlock: OLANEW_clean_sbu_2, # of connection points: 3
#     Node 26, Type 0, BuildingBlock: OLANEW_clean_sbu_2, # of connection points: 3
#     Node 27, Type 0, BuildingBlock: OLANEW_clean_sbu_2, # of connection points: 3
#     Node 28, Type 0, BuildingBlock: OLANEW_clean_sbu_2, # of connection points: 3
#     Node 29, Type 0, BuildingBlock: OLANEW_clean_sbu_2, # of connection points: 3
#     Node 30, Type 0, BuildingBlock: OLANEW_clean_sbu_2, # of connection points: 3
#     Node 31, Type 0, BuildingBlock: OLANEW_clean_sbu_2, # of connection points: 3
#     Node 32, Type 1, BuildingBlock: GIZVER_clean_linker_0, # of connection points: 4
#     Node 33, Type 1, BuildingBlock: GIZVER_clean_linker_0, # of connection points: 4
#     Node 34, Type 1, BuildingBlock: GIZVER_clean_linker_0, # of connection points: 4
#     Node 35, Type 1, BuildingBlock: GIZVER_clean_linker_0, # of connection points: 4
#     Node 36, Type 1, BuildingBlock: GIZVER_clean_linker_0, # of connection points: 4
#     Node 37, Type 1, BuildingBlock: GIZVER_clean_linker_0, # of connection points: 4
#     Node 38, Type 1, BuildingBlock: GIZVER_clean_linker_0, # of connection points: 4
#     Node 39, Type 1, BuildingBlock: GIZVER_clean_linker_0, # of connection points: 4
#     Node 40, Type 1, BuildingBlock: GIZVER_clean_linker_0, # of connection points: 4
#     Node 41, Type 1, BuildingBlock: GIZVER_clean_linker_0, # of connection points: 4
#     Node 42, Type 1, BuildingBlock: GIZVER_clean_linker_0, # of connection points: 4
#     Node 43, Type 1, BuildingBlock: GIZVER_clean_linker_0, # of connection points: 4
#     Node 44, Type 1, BuildingBlock: GIZVER_clean_linker_0, # of connection points: 4
#     Node 45, Type 1, BuildingBlock: GIZVER_clean_linker_0, # of connection points: 4
#     Node 46, Type 1, BuildingBlock: GIZVER_clean_linker_0, # of connection points: 4
#     Node 47, Type 1, BuildingBlock: GIZVER_clean_linker_0, # of connection points: 4
#     Node 48, Type 1, BuildingBlock: GIZVER_clean_linker_0, # of connection points: 4
#     Node 49, Type 1, BuildingBlock: GIZVER_clean_linker_0, # of connection points: 4
#     Node 50, Type 1, BuildingBlock: GIZVER_clean_linker_0, # of connection points: 4
#     Node 51, Type 1, BuildingBlock: GIZVER_clean_linker_0, # of connection points: 4
#     Node 52, Type 1, BuildingBlock: GIZVER_clean_linker_0, # of connection points: 4
#     Node 53, Type 1, BuildingBlock: GIZVER_clean_linker_0, # of connection points: 4
#     Node 54, Type 1, BuildingBlock: GIZVER_clean_linker_0, # of connection points: 4
#     Node 55, Type 1, BuildingBlock: GIZVER_clean_linker_0, # of connection points: 4
#     Edge 56, Type (0, 1), BuildingBlock: KIFKEQ_clean_linker_1, # of connection points: 2
#     Edge 57, Type (0, 1), BuildingBlock: KIFKEQ_clean_linker_1, # of connection points: 2
#     Edge 58, Type (0, 1), BuildingBlock: KIFKEQ_clean_linker_1, # of connection points: 2
#     Edge 59, Type (0, 1), BuildingBlock: KIFKEQ_clean_linker_1, # of connection points: 2
#     Edge 60, Type (0, 1), BuildingBlock: KIFKEQ_clean_linker_1, # of connection points: 2
#     Edge 61, Type (0, 1), BuildingBlock: KIFKEQ_clean_linker_1, # of connection points: 2
#     Edge 62, Type (0, 1), BuildingBlock: KIFKEQ_clean_linker_1, # of connection points: 2
#     Edge 63, Type (0, 1), BuildingBlock: KIFKEQ_clean_linker_1, # of connection points: 2
#     Edge 64, Type (0, 1), BuildingBlock: KIFKEQ_clean_linker_1, # of connection points: 2
#     Edge 65, Type (0, 1), BuildingBlock: KIFKEQ_clean_linker_1, # of connection points: 2
#     Edge 66, Type (0, 1), BuildingBlock: KIFKEQ_clean_linker_1, # of connection points: 2
#     Edge 67, Type (0, 1), BuildingBlock: KIFKEQ_clean_linker_1, # of connection points: 2
#     Edge 68, Type (0, 1), BuildingBlock: KIFKEQ_clean_linker_1, # of connection points: 2
#     Edge 69, Type (0, 1), BuildingBlock: KIFKEQ_clean_linker_1, # of connection points: 2
#     Edge 70, Type (0, 1), BuildingBlock: KIFKEQ_clean_linker_1, # of connection points: 2
#     Edge 71, Type (0, 1), BuildingBlock: KIFKEQ_clean_linker_1, # of connection points: 2
#     Edge 72, Type (0, 1), BuildingBlock: KIFKEQ_clean_linker_1, # of connection points: 2
#     Edge 73, Type (0, 1), BuildingBlock: KIFKEQ_clean_linker_1, # of connection points: 2
#     Edge 74, Type (0, 1), BuildingBlock: KIFKEQ_clean_linker_1, # of connection points: 2
#     Edge 75, Type (0, 1), BuildingBlock: KIFKEQ_clean_linker_1, # of connection points: 2
#     Edge 76, Type (0, 1), BuildingBlock: KIFKEQ_clean_linker_1, # of connection points: 2
#     Edge 77, Type (0, 1), BuildingBlock: KIFKEQ_clean_linker_1, # of connection points: 2
#     Edge 78, Type (0, 1), BuildingBlock: KIFKEQ_clean_linker_1, # of connection points: 2
#     Edge 79, Type (0, 1), BuildingBlock: KIFKEQ_clean_linker_1, # of connection points: 2
#     Edge 80, Type (0, 1), BuildingBlock: KIFKEQ_clean_linker_1, # of connection points: 2
#     Edge 81, Type (0, 1), BuildingBlock: KIFKEQ_clean_linker_1, # of connection points: 2
#     Edge 82, Type (0, 1), BuildingBlock: KIFKEQ_clean_linker_1, # of connection points: 2
#     Edge 83, Type (0, 1), BuildingBlock: KIFKEQ_clean_linker_1, # of connection points: 2
#     Edge 84, Type (0, 1), BuildingBlock: KIFKEQ_clean_linker_1, # of connection points: 2
#     Edge 85, Type (0, 1), BuildingBlock: KIFKEQ_clean_linker_1, # of connection points: 2
#     Edge 86, Type (0, 1), BuildingBlock: KIFKEQ_clean_linker_1, # of connection points: 2
#     Edge 87, Type (0, 1), BuildingBlock: KIFKEQ_clean_linker_1, # of connection points: 2
#     Edge 88, Type (0, 1), BuildingBlock: KIFKEQ_clean_linker_1, # of connection points: 2
#     Edge 89, Type (0, 1), BuildingBlock: KIFKEQ_clean_linker_1, # of connection points: 2
#     Edge 90, Type (0, 1), BuildingBlock: KIFKEQ_clean_linker_1, # of connection points: 2
#     Edge 91, Type (0, 1), BuildingBlock: KIFKEQ_clean_linker_1, # of connection points: 2
#     Edge 92, Type (0, 1), BuildingBlock: KIFKEQ_clean_linker_1, # of connection points: 2
#     Edge 93, Type (0, 1), BuildingBlock: KIFKEQ_clean_linker_1, # of connection points: 2
#     Edge 94, Type (0, 1), BuildingBlock: KIFKEQ_clean_linker_1, # of connection points: 2
#     Edge 95, Type (0, 1), BuildingBlock: KIFKEQ_clean_linker_1, # of connection points: 2
#     Edge 96, Type (0, 1), BuildingBlock: KIFKEQ_clean_linker_1, # of connection points: 2
#     Edge 97, Type (0, 1), BuildingBlock: KIFKEQ_clean_linker_1, # of connection points: 2
#     Edge 98, Type (0, 1), BuildingBlock: KIFKEQ_clean_linker_1, # of connection points: 2
#     Edge 99, Type (0, 1), BuildingBlock: KIFKEQ_clean_linker_1, # of connection points: 2
#     Edge 100, Type (0, 1), BuildingBlock: KIFKEQ_clean_linker_1, # of connection points: 2
#     Edge 101, Type (0, 1), BuildingBlock: KIFKEQ_clean_linker_1, # of connection points: 2
#     Edge 102, Type (0, 1), BuildingBlock: KIFKEQ_clean_linker_1, # of connection points: 2
#     Edge 103, Type (0, 1), BuildingBlock: KIFKEQ_clean_linker_1, # of connection points: 2
#     Edge 104, Type (0, 1), BuildingBlock: KIFKEQ_clean_linker_1, # of connection points: 2
#     Edge 105, Type (0, 1), BuildingBlock: KIFKEQ_clean_linker_1, # of connection points: 2
#     Edge 106, Type (0, 1), BuildingBlock: KIFKEQ_clean_linker_1, # of connection points: 2
#     Edge 107, Type (0, 1), BuildingBlock: KIFKEQ_clean_linker_1, # of connection points: 2
#     Edge 108, Type (0, 1), BuildingBlock: KIFKEQ_clean_linker_1, # of connection points: 2
#     Edge 109, Type (0, 1), BuildingBlock: KIFKEQ_clean_linker_1, # of connection points: 2
#     Edge 110, Type (0, 1), BuildingBlock: KIFKEQ_clean_linker_1, # of connection points: 2
#     Edge 111, Type (0, 1), BuildingBlock: KIFKEQ_clean_linker_1, # of connection points: 2
#     Edge 112, Type (0, 1), BuildingBlock: KIFKEQ_clean_linker_1, # of connection points: 2
#     Edge 113, Type (0, 1), BuildingBlock: KIFKEQ_clean_linker_1, # of connection points: 2
#     Edge 114, Type (0, 1), BuildingBlock: KIFKEQ_clean_linker_1, # of connection points: 2
#     Edge 115, Type (0, 1), BuildingBlock: KIFKEQ_clean_linker_1, # of connection points: 2
#     Edge 116, Type (0, 1), BuildingBlock: KIFKEQ_clean_linker_1, # of connection points: 2
#     Edge 117, Type (0, 1), BuildingBlock: KIFKEQ_clean_linker_1, # of connection points: 2
#     Edge 118, Type (0, 1), BuildingBlock: KIFKEQ_clean_linker_1, # of connection points: 2
#     Edge 119, Type (0, 1), BuildingBlock: KIFKEQ_clean_linker_1, # of connection points: 2
#     Edge 120, Type (0, 1), BuildingBlock: KIFKEQ_clean_linker_1, # of connection points: 2
#     Edge 121, Type (0, 1), BuildingBlock: KIFKEQ_clean_linker_1, # of connection points: 2
#     Edge 122, Type (0, 1), BuildingBlock: KIFKEQ_clean_linker_1, # of connection points: 2
#     Edge 123, Type (0, 1), BuildingBlock: KIFKEQ_clean_linker_1, # of connection points: 2
#     Edge 124, Type (0, 1), BuildingBlock: KIFKEQ_clean_linker_1, # of connection points: 2
#     Edge 125, Type (0, 1), BuildingBlock: KIFKEQ_clean_linker_1, # of connection points: 2
#     Edge 126, Type (0, 1), BuildingBlock: KIFKEQ_clean_linker_1, # of connection points: 2
#     Edge 127, Type (0, 1), BuildingBlock: KIFKEQ_clean_linker_1, # of connection points: 2
#     Edge 128, Type (0, 1), BuildingBlock: KIFKEQ_clean_linker_1, # of connection points: 2
#     Edge 129, Type (0, 1), BuildingBlock: KIFKEQ_clean_linker_1, # of connection points: 2
#     Edge 130, Type (0, 1), BuildingBlock: KIFKEQ_clean_linker_1, # of connection points: 2
#     Edge 131, Type (0, 1), BuildingBlock: KIFKEQ_clean_linker_1, # of connection points: 2
#     Edge 132, Type (0, 1), BuildingBlock: KIFKEQ_clean_linker_1, # of connection points: 2
#     Edge 133, Type (0, 1), BuildingBlock: KIFKEQ_clean_linker_1, # of connection points: 2
#     Edge 134, Type (0, 1), BuildingBlock: KIFKEQ_clean_linker_1, # of connection points: 2
#     Edge 135, Type (0, 1), BuildingBlock: KIFKEQ_clean_linker_1, # of connection points: 2
#     Edge 136, Type (0, 1), BuildingBlock: KIFKEQ_clean_linker_1, # of connection points: 2
#     Edge 137, Type (0, 1), BuildingBlock: KIFKEQ_clean_linker_1, # of connection points: 2
#     Edge 138, Type (0, 1), BuildingBlock: KIFKEQ_clean_linker_1, # of connection points: 2
#     Edge 139, Type (0, 1), BuildingBlock: KIFKEQ_clean_linker_1, # of connection points: 2
#     Edge 140, Type (0, 1), BuildingBlock: KIFKEQ_clean_linker_1, # of connection points: 2
#     Edge 141, Type (0, 1), BuildingBlock: KIFKEQ_clean_linker_1, # of connection points: 2
#     Edge 142, Type (0, 1), BuildingBlock: KIFKEQ_clean_linker_1, # of connection points: 2
#     Edge 143, Type (0, 1), BuildingBlock: KIFKEQ_clean_linker_1, # of connection points: 2
#     Edge 144, Type (0, 1), BuildingBlock: KIFKEQ_clean_linker_1, # of connection points: 2
#     Edge 145, Type (0, 1), BuildingBlock: KIFKEQ_clean_linker_1, # of connection points: 2
#     Edge 146, Type (0, 1), BuildingBlock: KIFKEQ_clean_linker_1, # of connection points: 2
#     Edge 147, Type (0, 1), BuildingBlock: KIFKEQ_clean_linker_1, # of connection points: 2
#     Edge 148, Type (0, 1), BuildingBlock: KIFKEQ_clean_linker_1, # of connection points: 2
#     Edge 149, Type (0, 1), BuildingBlock: KIFKEQ_clean_linker_1, # of connection points: 2
#     Edge 150, Type (0, 1), BuildingBlock: KIFKEQ_clean_linker_1, # of connection points: 2
#     Edge 151, Type (0, 1), BuildingBlock: KIFKEQ_clean_linker_1, # of connection points: 2
# Relax obj value: 0.018
# Max RMSD: 0.132
# Mean RMSD: 0.096
data_MOF--net-tbo--node1-OLANEW_clean_sbu_2--node2-GIZVER_clean_linker_0--edge1-KIFKEQ_clean_linker_1
_symmetry_space_group_name_H-M    P1
_symmetry_Int_Tables_number       1
_symmetry_cell_setting            triclinic
loop_
_symmetry_equiv_pos_as_xyz
'x, y, z'
_cell_length_a     77.753498
_cell_length_b     79.887957
_cell_length_c     77.006141
_cell_angle_alpha  97.946305
_cell_angle_beta   87.317819
_cell_angle_gamma 99.506803
loop_
_atom_site_label
_atom_site_type_symbol
_atom_site_fract_x
_atom_site_fract_y
_atom_site_fract_z
_atom_type_partial_charge
O0 O 0.20662 0.16457 0.16432 0.0
Cd1 Cd 0.18651 0.1467 0.18257 0.0
O2 O 0.18508 0.17353 0.15244 0.0
Cd3 Cd 0.1633 0.16519 0.17003 0.0
O4 O 0.1398 0.17358 0.18303 0.0
C5 C 0.13902 0.18926 0.18233 0.0
O6 O 0.1519 0.19837 0.17442 0.0
C7 C 0.20126 0.17281 0.15317 0.0
C8 C 0.20176 0.1248 0.20061 0.0
O9 O 0.19787 0.12064 0.18442 0.0
O10 O 0.1988 0.13941 0.20818 0.0
O11 O 0.87592 0.17632 0.16698 0.0
Cd12 Cd 0.84911 0.15725 0.15737 0.0
O13 O 0.89026 0.15575 0.17126 0.0
Cd14 Cd 0.86745 0.13569 0.16717 0.0
O15 O 0.84738 0.11612 0.17646 0.0
C16 C 0.85067 0.10106 0.17659 0.0
O17 O 0.86567 0.09733 0.16995 0.0
C18 C 0.88982 0.17159 0.1712 0.0
C19 C 0.83133 0.17146 0.13383 0.0
O20 O 0.82973 0.17562 0.15044 0.0
O21 O 0.8413 0.16049 0.12826 0.0
O22 O 0.90424 0.82922 0.15545 0.0
Cd23 Cd 0.92405 0.84382 0.17872 0.0
O24 O 0.89042 0.85098 0.16266 0.0
Cd25 Cd 0.86893 0.8658 0.16422 0.0
O26 O 0.8516 0.88337 0.17631 0.0
C27 C 0.83737 0.87753 0.18376 0.0
O28 O 0.83288 0.86087 0.18316 0.0
C29 C 0.89146 0.83675 0.15327 0.0
C30 C 0.95056 0.82691 0.18739 0.0
O31 O 0.93487 0.82306 0.19316 0.0
O32 O 0.95366 0.8384 0.17706 0.0
O33 O 0.23758 0.93043 0.12214 0.0
Cd34 Cd 0.23649 0.91859 0.09117 0.0
O35 O 0.22327 0.90682 0.13069 0.0
Cd36 Cd 0.21245 0.8893 0.1495 0.0
O37 O 0.19943 0.87134 0.16687 0.0
C38 C 0.19115 0.87651 0.18067 0.0
O39 O 0.19068 0.89296 0.18464 0.0
C40 C 0.23105 0.92214 0.13447 0.0
C41 C 0.24057 0.88425 0.08511 0.0
O42 O 0.22536 0.88857 0.08618 0.0
O43 O 0.25384 0.89615 0.0871 0.0
O44 O 0.20772 0.88605 0.89545 0.0
Cd45 Cd 0.18822 0.86259 0.90694 0.0
O46 O 0.18732 0.88451 0.87658 0.0
Cd47 Cd 0.17177 0.88713 0.85438 0.0
O48 O 0.14892 0.87846 0.83798 0.0
C49 C 0.15027 0.86943 0.8232 0.0
O50 O 0.16578 0.86642 0.81741 0.0
C51 C 0.2023 0.89146 0.88226 0.0
C52 C 0.20489 0.84013 0.92228 0.0
O53 O 0.2033 0.83854 0.90562 0.0
O54 O 0.1989 0.85253 0.93167 0.0
O55 O 0.18823 0.15176 0.93443 0.0
Cd56 Cd 0.17234 0.12832 0.9146 0.0
O57 O 0.17659 0.17034 0.92249 0.0
Cd58 Cd 0.16948 0.19371 0.91461 0.0
O59 O 0.15758 0.21137 0.90127 0.0
C60 C 0.16245 0.21342 0.8856 0.0
O61 O 0.17485 0.20534 0.87816 0.0
C62 C 0.18683 0.16729 0.93371 0.0
C63 C 0.19517 0.10935 0.89461 0.0
O64 O 0.19044 0.12231 0.88918 0.0
O65 O 0.18903 0.10529 0.90947 0.0
O66 O 0.85878 0.2341 0.89146 0.0
Cd67 Cd 0.87266 0.24188 0.8642 0.0
O68 O 0.86015 0.20745 0.88114 0.0
Cd69 Cd 0.85493 0.17962 0.87971 0.0
O70 O 0.84825 0.15351 0.86668 0.0
C71 C 0.84792 0.15211 0.85006 0.0
O72 O 0.85193 0.16601 0.8424 0.0
C73 C 0.85503 0.21831 0.89308 0.0
C74 C 0.90877 0.24573 0.86361 0.0
O75 O 0.90079 0.25832 0.86922 0.0
O76 O 0.89959 0.23113 0.85865 0.0
O77 O 0.87937 0.86415 0.83898 0.0
Cd78 Cd 0.85825 0.87949 0.85674 0.0
O79 O 0.89176 0.85861 0.86231 0.0
Cd80 Cd 0.87203 0.8652 0.88221 0.0
O81 O 0.85618 0.85818 0.90528 0.0
C82 C 0.86222 0.84838 0.91431 0.0
O83 O 0.87742 0.84379 0.90963 0.0
C84 C 0.8914 0.85828 0.84575 0.0
C85 C 0.84122 0.90008 0.83873 0.0
O86 O 0.85644 0.90558 0.84491 0.0
O87 O 0.83416 0.88477 0.84077 0.0
O88 O 0.19415 0.65849 0.65236 0.0
Cd89 Cd 0.17702 0.6423 0.67384 0.0
O90 O 0.1762 0.67638 0.64862 0.0
Cd91 Cd 0.15559 0.66973 0.66804 0.0
O92 O 0.13355 0.67753 0.68432 0.0
C93 C 0.1227 0.68438 0.67691 0.0
O94 O 0.1248 0.68548 0.66005 0.0
C95 C 0.19041 0.6706 0.64483 0.0
C96 C 0.19785 0.6232 0.68933 0.0
O97 O 0.19023 0.61718 0.67486 0.0
O98 O 0.19553 0.63814 0.69652 0.0
O99 O 0.87047 0.67787 0.6719 0.0
Cd100 Cd 0.84696 0.65885 0.65568 0.0
O101 O 0.88301 0.65724 0.67945 0.0
Cd102 Cd 0.86076 0.63689 0.67334 0.0
O103 O 0.84176 0.61664 0.68311 0.0
C104 C 0.84654 0.60252 0.6849 0.0
O105 O 0.86234 0.60004 0.67957 0.0
C106 C 0.88307 0.67308 0.6788 0.0
C107 C 0.83519 0.67631 0.63067 0.0
O108 O 0.82757 0.67583 0.64576 0.0
O109 O 0.84815 0.66824 0.62726 0.0
O110 O 0.91678 0.33811 0.66231 0.0
Cd111 Cd 0.93733 0.35631 0.6831 0.0
O112 O 0.89911 0.35604 0.6721 0.0
Cd113 Cd 0.8756 0.36803 0.67716 0.0
O114 O 0.85813 0.38544 0.68926 0.0
C115 C 0.84431 0.38003 0.69764 0.0
O116 O 0.84009 0.36351 0.69835 0.0
C117 C 0.90197 0.3428 0.66183 0.0
C118 C 0.95895 0.34021 0.70116 0.0
O119 O 0.94305 0.34071 0.70611 0.0
O120 O 0.96456 0.34688 0.68734 0.0
O121 O 0.19717 0.39554 0.64305 0.0
Cd122 Cd 0.17892 0.37225 0.62503 0.0
O123 O 0.20406 0.37779 0.66004 0.0
Cd124 Cd 0.18399 0.356 0.65211 0.0
O125 O 0.16782 0.33993 0.6692 0.0
C126 C 0.17264 0.34403 0.68498 0.0
O127 O 0.18604 0.35626 0.68835 0.0
C128 C 0.20602 0.39269 0.65549 0.0
C129 C 0.20018 0.35225 0.60406 0.0
O130 O 0.19566 0.36538 0.59878 0.0
O131 O 0.19434 0.34838 0.61906 0.0
O132 O 0.20348 0.40404 0.39447 0.0
Cd133 Cd 0.18808 0.38661 0.41584 0.0
O134 O 0.18084 0.39817 0.37763 0.0
Cd135 Cd 0.16423 0.3955 0.35485 0.0
O136 O 0.14272 0.38363 0.33761 0.0
C137 C 0.14571 0.37739 0.32189 0.0
O138 O 0.16189 0.37903 0.3158 0.0
C139 C 0.19648 0.40554 0.38029 0.0
C140 C 0.2101 0.36675 0.42812 0.0
O141 O 0.20116 0.36126 0.41433 0.0
O142 O 0.20852 0.38159 0.43619 0.0
O143 O 0.1887 0.64842 0.40474 0.0
Cd144 Cd 0.17113 0.62669 0.38444 0.0
O145 O 0.17608 0.66852 0.3966 0.0
Cd146 Cd 0.17093 0.69406 0.39333 0.0
O147 O 0.1597 0.71099 0.37843 0.0
C148 C 0.16892 0.72327 0.3717 0.0
O149 O 0.18575 0.72665 0.37452 0.0
C150 C 0.18715 0.66414 0.40603 0.0
C151 C 0.19191 0.60606 0.36362 0.0
O152 O 0.18861 0.6199 0.35879 0.0
O153 O 0.18531 0.60192 0.37829 0.0
O154 O 0.92102 0.71544 0.4095 0.0
Cd155 Cd 0.94054 0.69837 0.39194 0.0
O156 O 0.90041 0.69354 0.40343 0.0
Cd157 Cd 0.87457 0.67767 0.40127 0.0
O158 O 0.85537 0.65542 0.39191 0.0
C159 C 0.8414 0.65667 0.3846 0.0
O160 O 0.83779 0.67196 0.38339 0.0
C161 C 0.90511 0.70872 0.41096 0.0
C162 C 0.96359 0.71718 0.37027 0.0
O163 O 0.94787 0.71125 0.36576 0.0
O164 O 0.96843 0.71436 0.38514 0.0
O165 O 0.88913 0.36326 0.34194 0.0
Cd166 Cd 0.8679 0.37904 0.35904 0.0
O167 O 0.88693 0.34342 0.35962 0.0
Cd168 Cd 0.86854 0.35192 0.3801 0.0
O169 O 0.85312 0.34574 0.4037 0.0
C170 C 0.86104 0.34451 0.41746 0.0
O171 O 0.87815 0.34812 0.41743 0.0
C172 C 0.89342 0.34957 0.34591 0.0
C173 C 0.85422 0.40212 0.34115 0.0
O174 O 0.86782 0.407 0.35046 0.0
O175 O 0.84724 0.38632 0.34005 0.0
O176 O 0.69827 0.16738 0.66692 0.0
Cd177 Cd 0.67838 0.14958 0.6853 0.0
O178 O 0.68007 0.18504 0.66328 0.0
Cd179 Cd 0.65855 0.17628 0.68102 0.0
O180 O 0.6351 0.18068 0.69699 0.0
C181 C 0.6229 0.18568 0.68962 0.0
O182 O 0.62454 0.18703 0.67279 0.0
C183 C 0.69473 0.17998 0.66003 0.0
C184 C 0.6943 0.12627 0.70065 0.0
O185 O 0.68906 0.1228 0.68483 0.0
O186 O 0.69222 0.1408 0.70916 0.0
O187 O 0.39165 0.18379 0.65125 0.0
Cd188 Cd 0.3754 0.16791 0.62606 0.0
O189 O 0.38706 0.16059 0.66411 0.0
Cd190 Cd 0.38638 0.14572 0.68606 0.0
O191 O 0.37768 0.12858 0.70571 0.0
C192 C 0.36277 0.12943 0.71296 0.0
O193 O 0.35373 0.1407 0.70865 0.0
C194 C 0.3936 0.17631 0.66439 0.0
C195 C 0.3619 0.18942 0.60645 0.0
O196 O 0.35324 0.18352 0.61946 0.0
O197 O 0.37696 0.18516 0.60272 0.0
O198 O 0.37677 0.84297 0.67574 0.0
Cd199 Cd 0.38901 0.86273 0.70108 0.0
O200 O 0.38136 0.8619 0.65711 0.0
Cd201 Cd 0.38834 0.88292 0.67817 0.0
O202 O 0.38087 0.90213 0.69895 0.0
C203 C 0.36599 0.89805 0.70615 0.0
O204 O 0.35695 0.88289 0.70106 0.0
C205 C 0.3761 0.84664 0.66024 0.0
C206 C 0.41273 0.84983 0.71986 0.0
O207 O 0.39626 0.84632 0.72279 0.0
O208 O 0.41804 0.85925 0.70787 0.0
O209 O 0.68516 0.89175 0.64992 0.0
Cd210 Cd 0.66602 0.86659 0.63578 0.0
O211 O 0.69448 0.87544 0.66707 0.0
Cd212 Cd 0.67129 0.85586 0.66478 0.0
O213 O 0.6497 0.84505 0.68101 0.0
C214 C 0.6481 0.85447 0.69551 0.0
O215 O 0.65877 0.86907 0.69858 0.0
C216 C 0.69592 0.88968 0.66109 0.0
C217 C 0.68705 0.84452 0.61762 0.0
O218 O 0.68345 0.84443 0.63399 0.0
O219 O 0.68028 0.85471 0.60951 0.0
O220 O 0.70416 0.89117 0.40324 0.0
Cd221 Cd 0.69079 0.8715 0.42359 0.0
O222 O 0.67979 0.88612 0.38904 0.0
Cd223 Cd 0.6607 0.88476 0.3686 0.0
O224 O 0.63844 0.87446 0.35184 0.0
C225 C 0.64079 0.87029 0.33548 0.0
O226 O 0.65666 0.87317 0.3287 0.0
C227 C 0.69552 0.89367 0.39048 0.0
C228 C 0.71511 0.85527 0.43766 0.0
O229 O 0.70813 0.84915 0.42289 0.0
O230 O 0.71064 0.8691 0.44573 0.0
O231 O 0.69607 0.16168 0.40701 0.0
Cd232 Cd 0.68147 0.14555 0.38093 0.0
O233 O 0.68401 0.1833 0.40197 0.0
Cd234 Cd 0.67814 0.20931 0.40262 0.0
O235 O 0.66786 0.22922 0.3912 0.0
C236 C 0.67469 0.23346 0.37679 0.0
O237 O 0.68801 0.22638 0.36999 0.0
C238 C 0.69401 0.1772 0.4112 0.0
C239 C 0.7 0.12086 0.36343 0.0
O240 O 0.70405 0.13667 0.36128 0.0
O241 O 0.68723 0.11667 0.37394 0.0
O242 O 0.36956 0.23266 0.34199 0.0
Cd243 Cd 0.38752 0.23073 0.31533 0.0
O244 O 0.37556 0.20838 0.34823 0.0
Cd245 Cd 0.37176 0.18565 0.36159 0.0
O246 O 0.36228 0.15822 0.3579 0.0
C247 C 0.34672 0.15272 0.36255 0.0
O248 O 0.3373 0.16362 0.37101 0.0
C249 C 0.36776 0.22122 0.35214 0.0
C250 C 0.42233 0.24324 0.32253 0.0
O251 O 0.41132 0.25335 0.32159 0.0
O252 O 0.41695 0.22707 0.32002 0.0
O253 O 0.38391 0.86423 0.33862 0.0
Cd254 Cd 0.35965 0.87673 0.35425 0.0
O255 O 0.38281 0.84662 0.35842 0.0
Cd256 Cd 0.36216 0.85487 0.37618 0.0
O257 O 0.34519 0.84857 0.39863 0.0
C258 C 0.35222 0.84889 0.41328 0.0
O259 O 0.36907 0.85429 0.41463 0.0
C260 C 0.38946 0.85197 0.34439 0.0
C261 C 0.34465 0.89985 0.33782 0.0
O262 O 0.35624 0.90522 0.34947 0.0
O263 O 0.34052 0.88363 0.33359 0.0
O264 O 0.7068 0.66429 0.161 0.0
Cd265 Cd 0.69315 0.64959 0.18548 0.0
O266 O 0.68678 0.68113 0.16245 0.0
Cd267 Cd 0.66786 0.67156 0.18217 0.0
O268 O 0.64347 0.67787 0.19501 0.0
C269 C 0.64077 0.6928 0.19321 0.0
O270 O 0.65247 0.70245 0.18449 0.0
C271 C 0.70086 0.67661 0.15575 0.0
C272 C 0.71289 0.62799 0.19886 0.0
O273 O 0.70077 0.62187 0.18793 0.0
O274 O 0.71593 0.64426 0.20318 0.0
O275 O 0.40797 0.68752 0.13855 0.0
Cd276 Cd 0.39501 0.67142 0.11168 0.0
O277 O 0.40255 0.66403 0.15087 0.0
Cd278 Cd 0.3997 0.64846 0.17243 0.0
O279 O 0.38791 0.63013 0.18997 0.0
C280 C 0.37254 0.63138 0.19581 0.0
O281 O 0.365 0.64371 0.19146 0.0
C282 C 0.40867 0.6799 0.15187 0.0
C283 C 0.36917 0.6868 0.0992 0.0
O284 O 0.36548 0.6761 0.11031 0.0
O285 O 0.38512 0.6903 0.09405 0.0
O286 O 0.42399 0.34079 0.15347 0.0
Cd287 Cd 0.44655 0.36067 0.17056 0.0
O288 O 0.40876 0.36162 0.15972 0.0
Cd289 Cd 0.38578 0.37453 0.16224 0.0
O290 O 0.36835 0.39203 0.17437 0.0
C291 C 0.35364 0.38638 0.18107 0.0
O292 O 0.34855 0.36974 0.17983 0.0
C293 C 0.40987 0.3466 0.15223 0.0
C294 C 0.47127 0.34665 0.18675 0.0
O295 O 0.45588 0.34692 0.19339 0.0
O296 O 0.47492 0.35256 0.17213 0.0
O297 O 0.74137 0.42486 0.12213 0.0
Cd298 Cd 0.732 0.4104 0.09334 0.0
O299 O 0.73042 0.40184 0.13388 0.0
Cd300 Cd 0.7214 0.38697 0.15529 0.0
O301 O 0.70824 0.37362 0.17629 0.0
C302 C 0.69269 0.37595 0.18026 0.0
O303 O 0.68561 0.38606 0.17163 0.0
C304 C 0.73821 0.41727 0.13566 0.0
C305 C 0.73837 0.37676 0.08719 0.0
O306 O 0.74952 0.38907 0.08239 0.0
O307 O 0.72427 0.38041 0.09501 0.0
O308 O 0.698 0.38639 0.90541 0.0
Cd309 Cd 0.6787 0.36712 0.92282 0.0
O310 O 0.67539 0.38218 0.88878 0.0
Cd311 Cd 0.65781 0.38137 0.86715 0.0
O312 O 0.63461 0.37125 0.8517 0.0
C313 C 0.63593 0.36315 0.83642 0.0
O314 O 0.65154 0.36185 0.8296 0.0
C315 C 0.69104 0.38935 0.89176 0.0
C316 C 0.6934 0.34159 0.93535 0.0
O317 O 0.68852 0.33988 0.91944 0.0
O318 O 0.69175 0.35555 0.94524 0.0
O319 O 0.68532 0.66606 0.90552 0.0
Cd320 Cd 0.6727 0.64739 0.87975 0.0
O321 O 0.66931 0.68435 0.89945 0.0
Cd322 Cd 0.65615 0.70655 0.89841 0.0
O323 O 0.63912 0.72185 0.88784 0.0
C324 C 0.64085 0.73809 0.89085 0.0
O325 O 0.65328 0.74648 0.90118 0.0
C326 C 0.68069 0.68071 0.9091 0.0
C327 C 0.69275 0.62266 0.86542 0.0
O328 O 0.69651 0.63816 0.86217 0.0
O329 O 0.67961 0.61882 0.87563 0.0
O330 O 0.38999 0.69018 0.92869 0.0
Cd331 Cd 0.41725 0.68073 0.9177 0.0
O332 O 0.37699 0.66397 0.92075 0.0
Cd333 Cd 0.35485 0.64377 0.91406 0.0
O334 O 0.34053 0.62307 0.89627 0.0
C335 C 0.32734 0.62547 0.88837 0.0
O336 O 0.32173 0.64023 0.89199 0.0
C337 C 0.37606 0.67932 0.92724 0.0
C338 C 0.43549 0.70375 0.89669 0.0
O339 O 0.4237 0.6916 0.89027 0.0
O340 O 0.43879 0.70488 0.913 0.0
O341 O 0.39979 0.3794 0.8388 0.0
Cd342 Cd 0.38363 0.40248 0.85131 0.0
O343 O 0.38979 0.36652 0.86132 0.0
Cd344 Cd 0.38459 0.34839 0.88073 0.0
O345 O 0.37148 0.3374 0.90347 0.0
C346 C 0.3773 0.32684 0.91169 0.0
O347 O 0.39212 0.32171 0.90642 0.0
C348 C 0.39897 0.36661 0.84717 0.0
C349 C 0.36934 0.42007 0.82789 0.0
O350 O 0.38458 0.4256 0.83402 0.0
O351 O 0.36111 0.406 0.8324 0.0
H352 H 0.30514 0.29332 0.029 0.0
H353 H 0.25666 0.25867 0.03141 0.0
H354 H 0.2864 0.25953 0.98298 0.0
H355 H 0.28308 0.29843 0.05241 0.0
H356 H 0.26317 0.28391 0.0535 0.0
H357 H 0.30786 0.29506 0.06794 0.0
H358 H 0.30172 0.25661 0.1029 0.0
H359 H 0.26274 0.25596 0.06492 0.0
C360 C 0.29559 0.2831 0.02273 0.0
C361 C 0.29776 0.27697 0.00487 0.0
C362 C 0.28085 0.27644 0.03243 0.0
C363 C 0.26829 0.26345 0.02413 0.0
C364 C 0.27015 0.2574 0.00624 0.0
C365 C 0.28502 0.26406 0.99683 0.0
C366 C 0.27746 0.28458 0.05092 0.0
C367 C 0.28491 0.27601 0.06452 0.0
C368 C 0.30085 0.28343 0.07228 0.0
C369 C 0.3071 0.27667 0.08627 0.0
C370 C 0.29722 0.26195 0.0921 0.0
C371 C 0.28108 0.25453 0.08469 0.0
C372 C 0.2752 0.26148 0.07068 0.0
H373 H 0.75452 0.20525 0.03703 0.0
H374 H 0.73279 0.2505 0.03267 0.0
H375 H 0.76929 0.25135 0.07294 0.0
H376 H 0.73119 0.20327 0.01736 0.0
H377 H 0.71754 0.21942 0.02115 0.0
H378 H 0.75623 0.20621 0.99594 0.0
H379 H 0.75396 0.23932 0.95697 0.0
H380 H 0.72112 0.24303 0.0035 0.0
C381 C 0.75357 0.21849 0.04171 0.0
C382 C 0.76335 0.22716 0.05615 0.0
C383 C 0.74248 0.22684 0.03323 0.0
C384 C 0.7415 0.24409 0.039 0.0
C385 C 0.75138 0.25305 0.05309 0.0
C386 C 0.76205 0.24447 0.06175 0.0
C387 C 0.73125 0.21731 0.01841 0.0
C388 C 0.73752 0.22355 0.00123 0.0
C389 C 0.75068 0.21631 0.99128 0.0
C390 C 0.75653 0.22192 0.97526 0.0
C391 C 0.74937 0.2351 0.96939 0.0
C392 C 0.73679 0.24313 0.97954 0.0
C393 C 0.73078 0.23706 0.99542 0.0
H394 H 0.7476 0.75595 0.05587 0.0
H395 H 0.79049 0.79766 0.05902 0.0
H396 H 0.78857 0.75879 0.09257 0.0
H397 H 0.74472 0.78334 0.04592 0.0
H398 H 0.76268 0.80042 0.04679 0.0
H399 H 0.74056 0.76177 0.02051 0.0
H400 H 0.77222 0.77084 0.97439 0.0
H401 H 0.78667 0.80011 0.02413 0.0
C402 C 0.75996 0.76207 0.06144 0.0
C403 C 0.76705 0.75512 0.07485 0.0
C404 C 0.76829 0.77744 0.05572 0.0
C405 C 0.78421 0.78561 0.06305 0.0
C406 C 0.79173 0.77863 0.07603 0.0
C407 C 0.78316 0.76342 0.08178 0.0
C408 C 0.75909 0.78628 0.04365 0.0
C409 C 0.76344 0.7811 0.02454 0.0
C410 C 0.75211 0.76829 0.01438 0.0
C411 C 0.75501 0.7647 0.99618 0.0
C412 C 0.76985 0.77353 0.9884 0.0
C413 C 0.78133 0.78631 0.99831 0.0
C414 C 0.77806 0.79003 0.01642 0.0
H415 H 0.26547 0.71516 0.03237 0.0
H416 H 0.23643 0.75621 0.0317 0.0
H417 H 0.28011 0.76274 0.06579 0.0
H418 H 0.23824 0.71023 0.01656 0.0
H419 H 0.22512 0.72683 0.01765 0.0
H420 H 0.26353 0.71004 0.99622 0.0
H421 H 0.26893 0.743 0.95583 0.0
H422 H 0.23144 0.74895 0.99823 0.0
C423 C 0.26326 0.728 0.03741 0.0
C424 C 0.27416 0.73799 0.05029 0.0
C425 C 0.24976 0.73461 0.03062 0.0
C426 C 0.24709 0.75134 0.03682 0.0
C427 C 0.25806 0.76175 0.0494 0.0
C428 C 0.27156 0.75491 0.05609 0.0
C429 C 0.23875 0.72417 0.01612 0.0
C430 C 0.2464 0.72873 0.9987 0.0
C431 C 0.25972 0.72045 0.99045 0.0
C432 C 0.26816 0.7256 0.97505 0.0
C433 C 0.26262 0.73897 0.96772 0.0
C434 C 0.24914 0.74735 0.97575 0.0
C435 C 0.24131 0.74223 0.99142 0.0
H436 H 0.02769 0.23963 0.25006 0.0
H437 H 0.03511 0.28901 0.2816 0.0
H438 H 0.07444 0.27532 0.24349 0.0
H439 H 0.00989 0.24534 0.27687 0.0
H440 H 0.01317 0.26583 0.28987 0.0
H441 H 0.99628 0.24311 0.24628 0.0
H442 H 0.95284 0.27047 0.24923 0.0
H443 H 0.99246 0.28418 0.28808 0.0
C444 C 0.0353 0.25224 0.25329 0.0
C445 C 0.05164 0.25628 0.24502 0.0
C446 C 0.029 0.26427 0.2661 0.0
C447 C 0.03951 0.2802 0.27099 0.0
C448 C 0.05616 0.28418 0.2632 0.0
C449 C 0.0617 0.27238 0.24972 0.0
C450 C 0.01216 0.25935 0.27611 0.0
C451 C 0.99658 0.2637 0.26764 0.0
C452 C 0.98973 0.25344 0.25243 0.0
C453 C 0.97403 0.25592 0.24561 0.0
C454 C 0.96527 0.2689 0.25409 0.0
C455 C 0.97172 0.2791 0.26948 0.0
C456 C 0.98763 0.2767 0.27595 0.0
H457 H 0.80132 0.01296 0.26469 0.0
H458 H 0.7705 0.02077 0.31203 0.0
H459 H 0.7695 0.05285 0.27184 0.0
H460 H 0.80822 0.00209 0.29139 0.0
H461 H 0.79532 0.00515 0.31098 0.0
H462 H 0.79917 0.97848 0.26825 0.0
H463 H 0.76138 0.93685 0.28319 0.0
H464 H 0.76807 0.98584 0.31541 0.0
C465 C 0.79191 0.01969 0.27235 0.0
C466 C 0.78596 0.03336 0.26602 0.0
C467 C 0.78638 0.01508 0.28891 0.0
C468 C 0.77448 0.02399 0.29905 0.0
C469 C 0.76812 0.0374 0.29277 0.0
C470 C 0.77375 0.0419 0.27621 0.0
C471 C 0.79456 0.00192 0.29647 0.0
C472 C 0.78438 0.98417 0.29205 0.0
C473 C 0.78873 0.97357 0.27692 0.0
C474 C 0.78056 0.95642 0.27363 0.0
C475 C 0.76752 0.95014 0.28545 0.0
C476 C 0.763 0.96057 0.30064 0.0
C477 C 0.77132 0.97768 0.30368 0.0
H478 H 0.06282 0.75501 0.27761 0.0
H479 H 0.05942 0.775 0.22904 0.0
H480 H 0.01869 0.77859 0.26818 0.0
H481 H 0.07815 0.74402 0.24925 0.0
H482 H 0.08028 0.75637 0.23145 0.0
H483 H 0.09528 0.75361 0.27562 0.0
H484 H 0.1399 0.79283 0.27173 0.0
H485 H 0.09949 0.78431 0.2336 0.0
C486 C 0.05599 0.76161 0.26944 0.0
C487 C 0.0399 0.76657 0.27524 0.0
C488 C 0.06311 0.76459 0.25282 0.0
C489 C 0.05423 0.77297 0.24203 0.0
C490 C 0.03842 0.77834 0.2478 0.0
C491 C 0.03137 0.77517 0.26433 0.0
C492 C 0.07922 0.75731 0.246 0.0
C493 C 0.09557 0.76796 0.25387 0.0
C494 C 0.10222 0.76409 0.26923 0.0
C495 C 0.1182 0.77303 0.27582 0.0
C496 C 0.12741 0.78612 0.26693 0.0
C497 C 0.12085 0.79027 0.25161 0.0
C498 C 0.10476 0.78125 0.24535 0.0
H499 H 0.24 0.99426 0.26162 0.0
H500 H 0.27061 0.99311 0.30642 0.0
H501 H 0.27272 0.95581 0.26053 0.0
H502 H 0.23163 0.00696 0.2922 0.0
H503 H 0.24688 0.00967 0.30938 0.0
H504 H 0.23498 0.0265 0.26992 0.0
H505 H 0.27265 0.07239 0.27915 0.0
H506 H 0.27373 0.03099 0.30917 0.0
C507 C 0.24947 0.98866 0.26788 0.0
C508 C 0.25608 0.97447 0.25901 0.0
C509 C 0.25445 0.99527 0.28507 0.0
C510 C 0.26662 0.98784 0.29323 0.0
C511 C 0.2735 0.97361 0.28445 0.0
C512 C 0.26793 0.96698 0.26738 0.0
C513 C 0.2458 0.00944 0.29498 0.0
C514 C 0.25373 0.02669 0.28987 0.0
C515 C 0.24633 0.03368 0.27671 0.0
C516 C 0.25333 0.05008 0.27259 0.0
C517 C 0.26779 0.05943 0.28173 0.0
C518 C 0.27508 0.05277 0.29512 0.0
C519 C 0.26818 0.03625 0.29888 0.0
H520 H 0.99075 0.78721 0.79362 0.0
H521 H 0.98905 0.74339 0.75412 0.0
H522 H 0.9489 0.7749 0.75708 0.0
H523 H 0.00824 0.76553 0.7965 0.0
H524 H 0.00481 0.74569 0.78241 0.0
H525 H 0.02935 0.78998 0.78805 0.0
H526 H 0.07027 0.77659 0.75186 0.0
H527 H 0.02297 0.74085 0.75607 0.0
C528 C 0.98467 0.77936 0.78224 0.0
C529 C 0.96918 0.78309 0.77601 0.0
C530 C 0.99195 0.76511 0.77432 0.0
C531 C 0.98372 0.75465 0.75993 0.0
C532 C 0.96825 0.75817 0.75353 0.0
C533 C 0.96125 0.77259 0.76145 0.0
C534 C 0.00716 0.75982 0.78249 0.0
C535 C 0.02417 0.76499 0.77289 0.0
C536 C 0.03427 0.78109 0.77786 0.0
C537 C 0.05094 0.78544 0.77028 0.0
C538 C 0.05715 0.77366 0.75721 0.0
C539 C 0.04719 0.75757 0.75196 0.0
C540 C 0.03064 0.75334 0.75982 0.0
H541 H 0.28893 0.99826 0.84018 0.0
H542 H 0.32844 0.99935 0.79917 0.0
H543 H 0.2905 0.95398 0.80176 0.0
H544 H 0.3162 0.0195 0.84303 0.0
H545 H 0.33186 0.0206 0.82534 0.0
H546 H 0.2888 0.03126 0.84199 0.0
H547 H 0.28911 0.06905 0.8072 0.0
H548 H 0.32785 0.03583 0.80075 0.0
C549 C 0.29469 0.99202 0.82846 0.0
C550 C 0.28764 0.97516 0.82171 0.0
C551 C 0.30939 0.00081 0.82038 0.0
C552 C 0.31701 0.99265 0.80533 0.0
C553 C 0.31013 0.97579 0.7984 0.0
C554 C 0.29538 0.96723 0.8066 0.0
C555 C 0.31762 0.01842 0.82849 0.0
C556 C 0.30924 0.03209 0.82208 0.0
C557 C 0.2944 0.03736 0.83084 0.0
C558 C 0.28693 0.05061 0.82547 0.0
C559 C 0.29437 0.05837 0.81099 0.0
C560 C 0.30916 0.0532 0.80201 0.0
C561 C 0.31644 0.03994 0.80757 0.0
H562 H 0.05374 0.31622 0.78796 0.0
H563 H 0.04421 0.28846 0.83243 0.0
H564 H 0.00487 0.28317 0.79387 0.0
H565 H 0.07038 0.32566 0.81576 0.0
H566 H 0.06728 0.31282 0.83322 0.0
H567 H 0.08557 0.31575 0.78802 0.0
H568 H 0.12347 0.28333 0.793 0.0
H569 H 0.08395 0.28979 0.83345 0.0
C570 C 0.04535 0.30707 0.79501 0.0
C571 C 0.02884 0.29959 0.78848 0.0
C572 C 0.05095 0.30306 0.81086 0.0
C573 C 0.04 0.29139 0.82013 0.0
C574 C 0.02341 0.28402 0.81396 0.0
C575 C 0.01804 0.28811 0.79812 0.0
C576 C 0.06794 0.3122 0.81868 0.0
C577 C 0.08294 0.30341 0.81134 0.0
C578 C 0.09072 0.30702 0.79523 0.0
C579 C 0.10536 0.29988 0.78858 0.0
C580 C 0.11204 0.28871 0.79808 0.0
C581 C 0.10451 0.285 0.81438 0.0
C582 C 0.08974 0.29223 0.82078 0.0
H583 H 0.74349 0.994 0.75286 0.0
H584 H 0.77076 0.99207 0.79961 0.0
H585 H 0.77471 0.95447 0.75462 0.0
H586 H 0.73347 0.00625 0.78368 0.0
H587 H 0.74899 0.01037 0.80072 0.0
H588 H 0.73428 0.02595 0.76244 0.0
H589 H 0.77364 0.07084 0.76657 0.0
H590 H 0.77722 0.03036 0.79701 0.0
C591 C 0.75225 0.98808 0.7597 0.0
C592 C 0.7587 0.97349 0.75141 0.0
C593 C 0.75645 0.99479 0.77706 0.0
C594 C 0.76766 0.98707 0.78611 0.0
C595 C 0.77461 0.97273 0.77791 0.0
C596 C 0.77013 0.96609 0.76056 0.0
C597 C 0.74768 0.0092 0.78626 0.0
C598 C 0.75522 0.02605 0.78002 0.0
C599 C 0.74648 0.03293 0.76774 0.0
C600 C 0.75322 0.04902 0.76264 0.0
C601 C 0.76885 0.05808 0.76981 0.0
C602 C 0.77745 0.05156 0.78238 0.0
C603 C 0.77071 0.03542 0.78721 0.0
H604 H 0.27053 0.72593 0.50982 0.0
H605 H 0.31015 0.77047 0.51323 0.0
H606 H 0.27129 0.76284 0.47387 0.0
H607 H 0.29871 0.72566 0.52252 0.0
H608 H 0.31532 0.74394 0.52358 0.0
H609 H 0.27515 0.72348 0.54509 0.0
H610 H 0.28783 0.75337 0.5949 0.0
H611 H 0.31633 0.76687 0.5482 0.0
C612 C 0.27599 0.73798 0.5053 0.0
C613 C 0.26858 0.74336 0.49108 0.0
C614 C 0.29112 0.74757 0.51314 0.0
C615 C 0.29835 0.76319 0.50734 0.0
C616 C 0.29101 0.76897 0.49339 0.0
C617 C 0.27615 0.75898 0.48541 0.0
C618 C 0.30105 0.73987 0.52557 0.0
C619 C 0.29612 0.7448 0.54456 0.0
C620 C 0.28265 0.73444 0.55275 0.0
C621 C 0.27966 0.73746 0.57095 0.0
C622 C 0.28993 0.7513 0.58081 0.0
C623 C 0.30316 0.76213 0.57283 0.0
C624 C 0.30605 0.75884 0.55459 0.0
H625 H 0.79268 0.8052 0.54739 0.0
H626 H 0.82662 0.76772 0.54443 0.0
H627 H 0.77786 0.76042 0.57335 0.0
H628 H 0.82313 0.81202 0.53793 0.0
H629 H 0.83717 0.79622 0.53608 0.0
H630 H 0.79972 0.80974 0.5157 0.0
H631 H 0.81049 0.78357 0.46462 0.0
H632 H 0.83894 0.77717 0.50925 0.0
C633 C 0.79505 0.79295 0.55039 0.0
C634 C 0.78297 0.78331 0.56078 0.0
C635 C 0.81067 0.78731 0.54436 0.0
C636 C 0.81444 0.77194 0.54898 0.0
C637 C 0.80279 0.76225 0.55972 0.0
C638 C 0.78692 0.76785 0.56516 0.0
C639 C 0.82367 0.7982 0.53377 0.0
C640 C 0.8198 0.79396 0.51452 0.0
C641 C 0.80693 0.80115 0.5073 0.0
C642 C 0.80335 0.79735 0.48933 0.0
C643 C 0.81278 0.78614 0.47859 0.0
C644 C 0.82585 0.77903 0.48563 0.0
C645 C 0.82906 0.7828 0.50366 0.0
H646 H 0.82232 0.2707 0.55879 0.0
H647 H 0.77716 0.2317 0.55992 0.0
H648 H 0.79484 0.26325 0.60761 0.0
H649 H 0.81782 0.24633 0.5356 0.0
H650 H 0.79933 0.23004 0.53618 0.0
H651 H 0.81571 0.27339 0.52399 0.0
H652 H 0.7768 0.26769 0.48495 0.0
H653 H 0.77233 0.23224 0.52286 0.0
C654 C 0.81147 0.26431 0.56602 0.0
C655 C 0.80983 0.26885 0.58426 0.0
C656 C 0.79966 0.251 0.55713 0.0
C657 C 0.78585 0.2424 0.56662 0.0
C658 C 0.78407 0.24667 0.5849 0.0
C659 C 0.79598 0.26008 0.59351 0.0
C660 C 0.80349 0.24417 0.5383 0.0
C661 C 0.7947 0.2522 0.52517 0.0
C662 C 0.80338 0.26696 0.51853 0.0
C663 C 0.79674 0.27283 0.50422 0.0
C664 C 0.78118 0.26387 0.49674 0.0
C665 C 0.77223 0.24912 0.50319 0.0
C666 C 0.7789 0.24367 0.51778 0.0
H667 H 0.29933 0.3097 0.52114 0.0
H668 H 0.33477 0.27368 0.52017 0.0
H669 H 0.29398 0.27514 0.55988 0.0
H670 H 0.32977 0.31417 0.50658 0.0
H671 H 0.3412 0.29634 0.50227 0.0
H672 H 0.30224 0.31418 0.4914 0.0
H673 H 0.29519 0.28162 0.44221 0.0
H674 H 0.33212 0.27327 0.47888 0.0
C675 C 0.30354 0.29929 0.52655 0.0
C676 C 0.29463 0.29301 0.54119 0.0
C677 C 0.31797 0.29236 0.51889 0.0
C678 C 0.32357 0.27899 0.52602 0.0
C679 C 0.31494 0.27263 0.5408 0.0
C680 C 0.30037 0.27961 0.54818 0.0
C681 C 0.32793 0.29995 0.5038 0.0
C682 C 0.31824 0.29432 0.48692 0.0
C683 C 0.30538 0.30333 0.48248 0.0
C684 C 0.29667 0.29851 0.46657 0.0
C685 C 0.30119 0.28468 0.45492 0.0
C686 C 0.31415 0.27558 0.45905 0.0
C687 C 0.32229 0.28026 0.47534 0.0
H688 H 0.8003 0.5158 0.77596 0.0
H689 H 0.76732 0.52313 0.82186 0.0
H690 H 0.76623 0.55366 0.78034 0.0
H691 H 0.80695 0.50677 0.80423 0.0
H692 H 0.79211 0.5083 0.82252 0.0
H693 H 0.80053 0.48388 0.77913 0.0
H694 H 0.76705 0.43831 0.79144 0.0
H695 H 0.76707 0.48598 0.82512 0.0
C696 C 0.79022 0.52209 0.78299 0.0
C697 C 0.78379 0.53508 0.77586 0.0
C698 C 0.78427 0.51763 0.79952 0.0
C699 C 0.7716 0.52614 0.80888 0.0
C700 C 0.76488 0.53895 0.80186 0.0
C701 C 0.77084 0.54318 0.78529 0.0
C702 C 0.79284 0.50528 0.80798 0.0
C703 C 0.78457 0.48693 0.80259 0.0
C704 C 0.79056 0.47755 0.78739 0.0
C705 C 0.78426 0.45998 0.78316 0.0
C706 C 0.77143 0.45199 0.79414 0.0
C707 C 0.76515 0.46121 0.80933 0.0
C708 C 0.77167 0.47876 0.81335 0.0
H709 H 0.28558 0.54387 0.72259 0.0
H710 H 0.31136 0.54006 0.76979 0.0
H711 H 0.2743 0.57469 0.77075 0.0
H712 H 0.31047 0.52935 0.72068 0.0
H713 H 0.32453 0.53286 0.73895 0.0
H714 H 0.28485 0.50552 0.71905 0.0
H715 H 0.29146 0.46241 0.74449 0.0
H716 H 0.32402 0.51106 0.75803 0.0
C717 C 0.28734 0.54748 0.73657 0.0
C718 C 0.27828 0.55994 0.74574 0.0
C719 C 0.29942 0.54038 0.74519 0.0
C720 C 0.30199 0.54548 0.7632 0.0
C721 C 0.29289 0.55777 0.7726 0.0
C722 C 0.28105 0.56487 0.76374 0.0
C723 C 0.31074 0.52861 0.73499 0.0
C724 C 0.30501 0.51029 0.73821 0.0
C725 C 0.29138 0.50005 0.72851 0.0
C726 C 0.28634 0.48276 0.73075 0.0
C727 C 0.29489 0.47589 0.74312 0.0
C728 C 0.30848 0.48594 0.75303 0.0
C729 C 0.31349 0.50319 0.75052 0.0
H730 H 0.32245 0.53093 0.27019 0.0
H731 H 0.27949 0.5222 0.30684 0.0
H732 H 0.28444 0.56492 0.27772 0.0
H733 H 0.32267 0.51009 0.28919 0.0
H734 H 0.30962 0.51189 0.30875 0.0
H735 H 0.31432 0.48726 0.26544 0.0
H736 H 0.27412 0.44597 0.27673 0.0
H737 H 0.28087 0.4937 0.31101 0.0
C738 C 0.31035 0.53428 0.27612 0.0
C739 C 0.3045 0.54909 0.27234 0.0
C740 C 0.30131 0.52439 0.28845 0.0
C741 C 0.28618 0.52939 0.2969 0.0
C742 C 0.27993 0.54392 0.29298 0.0
C743 C 0.28904 0.55352 0.28053 0.0
C744 C 0.30899 0.50992 0.29419 0.0
C745 C 0.29831 0.49258 0.28847 0.0
C746 C 0.30319 0.48234 0.2733 0.0
C747 C 0.29467 0.46539 0.26904 0.0
C748 C 0.28062 0.45907 0.27979 0.0
C749 C 0.27553 0.46914 0.29498 0.0
C750 C 0.2844 0.48594 0.29913 0.0
H751 H 0.78645 0.54058 0.2457 0.0
H752 H 0.80871 0.54425 0.2964 0.0
H753 H 0.77381 0.57859 0.28721 0.0
H754 H 0.8143 0.53005 0.24945 0.0
H755 H 0.82291 0.53123 0.27065 0.0
H756 H 0.78754 0.50846 0.24086 0.0
H757 H 0.78868 0.46027 0.25943 0.0
H758 H 0.81686 0.50678 0.2863 0.0
C759 C 0.78731 0.54617 0.25935 0.0
C760 C 0.778 0.55955 0.26554 0.0
C761 C 0.79833 0.54052 0.27052 0.0
C762 C 0.79993 0.5484 0.28795 0.0
C763 C 0.79142 0.56239 0.29411 0.0
C764 C 0.78005 0.5675 0.28292 0.0
C765 C 0.81056 0.52823 0.26328 0.0
C766 C 0.80269 0.50969 0.26375 0.0
C767 C 0.79154 0.50118 0.25041 0.0
C768 C 0.78645 0.48332 0.24864 0.0
C769 C 0.79192 0.47411 0.26109 0.0
C770 C 0.80281 0.48243 0.27481 0.0
C771 C 0.80809 0.50028 0.27608 0.0
H772 H 0.51548 0.22845 0.76961 0.0
H773 H 0.51827 0.27693 0.80256 0.0
H774 H 0.56007 0.26759 0.76578 0.0
H775 H 0.49599 0.23148 0.79515 0.0
H776 H 0.49891 0.25065 0.81039 0.0
H777 H 0.47992 0.23048 0.7673 0.0
H778 H 0.4412 0.26349 0.7704 0.0
H779 H 0.48135 0.27265 0.80884 0.0
C780 C 0.52221 0.24133 0.77357 0.0
C781 C 0.53844 0.24695 0.76572 0.0
C782 C 0.5148 0.25217 0.78678 0.0
C783 C 0.5238 0.2687 0.79215 0.0
C784 C 0.54012 0.27443 0.78454 0.0
C785 C 0.54717 0.26354 0.7712 0.0
C786 C 0.49804 0.2457 0.79617 0.0
C787 C 0.48252 0.25115 0.78872 0.0
C788 C 0.47459 0.24153 0.77372 0.0
C789 C 0.45974 0.24599 0.76705 0.0
C790 C 0.45277 0.26018 0.77551 0.0
C791 C 0.46034 0.26984 0.79071 0.0
C792 C 0.47546 0.26542 0.79705 0.0
H793 H 0.51454 0.83285 0.80013 0.0
H794 H 0.51677 0.80191 0.84107 0.0
H795 H 0.47223 0.79213 0.80809 0.0
H796 H 0.53554 0.84237 0.8232 0.0
H797 H 0.53446 0.83128 0.84194 0.0
H798 H 0.55113 0.83207 0.79607 0.0
H799 H 0.59125 0.80241 0.80268 0.0
H800 H 0.55138 0.80818 0.84269 0.0
C801 C 0.50865 0.82236 0.80708 0.0
C802 C 0.49227 0.81291 0.80212 0.0
C803 C 0.51746 0.8185 0.82119 0.0
C804 C 0.51 0.80487 0.83017 0.0
C805 C 0.49382 0.79516 0.8253 0.0
C806 C 0.48506 0.79921 0.81128 0.0
C807 C 0.53433 0.82941 0.82735 0.0
C808 C 0.54975 0.82116 0.8202 0.0
C809 C 0.55703 0.82419 0.8037 0.0
C810 C 0.57202 0.81747 0.79721 0.0
C811 C 0.57933 0.80712 0.80726 0.0
C812 C 0.57199 0.80362 0.82367 0.0
C813 C 0.55714 0.81069 0.83003 0.0
H814 H 0.52368 0.73483 0.25884 0.0
H815 H 0.53026 0.78318 0.29226 0.0
H816 H 0.57 0.77146 0.25374 0.0
H817 H 0.5051 0.73935 0.28508 0.0
H818 H 0.50842 0.7591 0.29938 0.0
H819 H 0.48906 0.73703 0.25738 0.0
H820 H 0.4508 0.77049 0.25881 0.0
H821 H 0.49225 0.78162 0.29584 0.0
C822 C 0.53111 0.74744 0.26259 0.0
C823 C 0.54749 0.75201 0.25461 0.0
C824 C 0.52458 0.75893 0.2758 0.0
C825 C 0.53487 0.77483 0.28135 0.0
C826 C 0.55151 0.77936 0.27376 0.0
C827 C 0.55728 0.76812 0.25987 0.0
C828 C 0.50759 0.75351 0.28532 0.0
C829 C 0.49241 0.75893 0.27722 0.0
C830 C 0.48412 0.74862 0.26277 0.0
C831 C 0.46909 0.75269 0.25592 0.0
C832 C 0.46252 0.76742 0.26378 0.0
C833 C 0.47052 0.77787 0.27839 0.0
C834 C 0.48576 0.77369 0.28472 0.0
H835 H 0.57178 0.33231 0.27324 0.0
H836 H 0.55745 0.3095 0.32055 0.0
H837 H 0.52286 0.2988 0.27735 0.0
H838 H 0.58392 0.34541 0.30351 0.0
H839 H 0.58116 0.33269 0.32101 0.0
H840 H 0.60338 0.33903 0.27835 0.0
H841 H 0.64371 0.31036 0.28683 0.0
H842 H 0.59873 0.31008 0.32176 0.0
C843 C 0.56291 0.32362 0.2804 0.0
C844 C 0.54717 0.31518 0.27278 0.0
C845 C 0.56689 0.32139 0.29756 0.0
C846 C 0.55494 0.31069 0.30708 0.0
C847 C 0.53912 0.30258 0.2997 0.0
C848 C 0.5355 0.30461 0.28258 0.0
C849 C 0.58269 0.33202 0.3065 0.0
C850 C 0.5992 0.32509 0.30053 0.0
C851 C 0.60857 0.3305 0.28577 0.0
C852 C 0.62469 0.32535 0.28078 0.0
C853 C 0.63122 0.31428 0.29056 0.0
C854 C 0.62199 0.30863 0.30541 0.0
C855 C 0.60584 0.31397 0.31015 0.0
H856 H 0.23672 0.18251 0.15631 0.0
H857 H 0.19394 0.18481 0.12338 0.0
H858 H 0.2563 0.20095 0.13856 0.0
H859 H 0.21349 0.2026 0.10533 0.0
H860 H 0.2463 0.25227 0.0925 0.0
H861 H 0.22775 0.23122 0.10781 0.0
H862 H 0.27122 0.20441 0.11097 0.0
H863 H 0.28995 0.22585 0.09581 0.0
C864 C 0.23156 0.1867 0.14511 0.0
C865 C 0.21372 0.18235 0.1414 0.0
C866 C 0.2428 0.19722 0.13487 0.0
C867 C 0.23647 0.2035 0.1206 0.0
C868 C 0.21878 0.19842 0.11646 0.0
C869 C 0.20756 0.1881 0.12677 0.0
C870 C 0.25186 0.24173 0.09616 0.0
C871 C 0.2696 0.24071 0.09282 0.0
C872 C 0.24119 0.2296 0.10497 0.0
C873 C 0.24791 0.21599 0.11062 0.0
C874 C 0.26563 0.21481 0.10704 0.0
C875 C 0.27635 0.22705 0.09829 0.0
H876 H 0.82322 0.15905 0.09977 0.0
H877 H 0.81841 0.20145 0.14012 0.0
H878 H 0.80737 0.17196 0.07965 0.0
H879 H 0.80301 0.21446 0.11989 0.0
H880 H 0.79504 0.24013 0.07106 0.0
H881 H 0.81182 0.22635 0.08923 0.0
H882 H 0.77462 0.1798 0.08045 0.0
H883 H 0.75717 0.19374 0.06303 0.0
C884 C 0.81887 0.17115 0.10429 0.0
C885 C 0.82201 0.17924 0.12152 0.0
C886 C 0.80978 0.17848 0.09282 0.0
C887 C 0.80406 0.1942 0.09825 0.0
C888 C 0.8074 0.20238 0.11537 0.0
C889 C 0.81613 0.19489 0.12695 0.0
C890 C 0.79026 0.22702 0.0731 0.0
C891 C 0.77454 0.21818 0.06573 0.0
C892 C 0.79997 0.21912 0.08341 0.0
C893 C 0.79443 0.20208 0.08627 0.0
C894 C 0.7792 0.19293 0.07832 0.0
C895 C 0.76927 0.20093 0.06827 0.0
H896 H 0.87271 0.85243 0.13308 0.0
H897 H 0.87948 0.80277 0.14502 0.0
H898 H 0.8499 0.83898 0.11265 0.0
H899 H 0.8561 0.78925 0.12538 0.0
H900 H 0.82211 0.7669 0.07986 0.0
H901 H 0.84726 0.78142 0.09687 0.0
H902 H 0.82126 0.82549 0.11081 0.0
H903 H 0.79674 0.81122 0.09288 0.0
C904 C 0.8691 0.83863 0.13151 0.0
C905 C 0.87772 0.82865 0.14075 0.0
C906 C 0.85599 0.83087 0.11981 0.0
C907 C 0.85096 0.81295 0.1173 0.0
C908 C 0.85974 0.80302 0.12658 0.0
C909 C 0.87309 0.81077 0.13799 0.0
C910 C 0.822 0.7798 0.08638 0.0
C911 C 0.80759 0.788 0.08503 0.0
C912 C 0.83631 0.78809 0.0963 0.0
C913 C 0.83635 0.80464 0.10548 0.0
C914 C 0.82196 0.81291 0.10377 0.0
C915 C 0.80783 0.80473 0.09354 0.0
H916 H 0.21701 0.85745 0.07051 0.0
H917 H 0.26919 0.87008 0.09058 0.0
H918 H 0.22127 0.82769 0.06235 0.0
H919 H 0.27325 0.84019 0.08271 0.0
H920 H 0.26234 0.7801 0.08237 0.0
H921 H 0.25831 0.80973 0.09166 0.0
H922 H 0.24324 0.81372 0.03939 0.0
H923 H 0.24815 0.78452 0.02972 0.0
C924 C 0.22931 0.85384 0.07334 0.0
C925 C 0.2428 0.86609 0.08113 0.0
C926 C 0.23176 0.83685 0.0686 0.0
C927 C 0.24759 0.83173 0.07189 0.0
C928 C 0.2609 0.84384 0.08012 0.0
C929 C 0.25859 0.86092 0.08454 0.0
C930 C 0.25845 0.78733 0.07275 0.0
C931 C 0.25553 0.77979 0.05527 0.0
C932 C 0.25604 0.80425 0.07813 0.0
C933 C 0.25036 0.81389 0.06626 0.0
C934 C 0.24739 0.80644 0.04885 0.0
C935 C 0.25011 0.78966 0.04337 0.0
H936 H 0.20154 0.83403 0.95637 0.0
H937 H 0.22583 0.81778 0.90666 0.0
H938 H 0.21287 0.81198 0.96946 0.0
H939 H 0.23742 0.79593 0.91992 0.0
H940 H 0.21593 0.75474 0.97522 0.0
H941 H 0.20638 0.77814 0.96305 0.0
H942 H 0.25909 0.79505 0.94553 0.0
H943 H 0.269 0.77222 0.95853 0.0
C944 C 0.20946 0.82589 0.9483 0.0
C945 C 0.21276 0.82759 0.93047 0.0
C946 C 0.21585 0.81324 0.95577 0.0
C947 C 0.22596 0.80227 0.94567 0.0
C948 C 0.22972 0.8043 0.92799 0.0
C949 C 0.22304 0.81673 0.92042 0.0
C950 C 0.22561 0.76358 0.96909 0.0
C951 C 0.24329 0.76152 0.96796 0.0
C952 C 0.22008 0.77694 0.96204 0.0
C953 C 0.23201 0.78837 0.9534 0.0
C954 C 0.24962 0.7863 0.95203 0.0
C955 C 0.25524 0.77312 0.95939 0.0
H956 H 0.21291 0.16378 0.95459 0.0
H957 H 0.18492 0.20198 0.94006 0.0
H958 H 0.23139 0.18584 0.97326 0.0
H959 H 0.2036 0.2241 0.95867 0.0
H960 H 0.25603 0.25898 0.97488 0.0
H961 H 0.23461 0.23764 0.95847 0.0
H962 H 0.23088 0.2063 1.00035 0.0
H963 H 0.25267 0.2276 0.01666 0.0
C964 C 0.2106 0.17687 0.95538 0.0
C965 C 0.19752 0.18106 0.94546 0.0
C966 C 0.22117 0.18951 0.96621 0.0
C967 C 0.219 0.20674 0.96743 0.0
C968 C 0.20575 0.21096 0.95781 0.0
C969 C 0.19507 0.19825 0.94702 0.0
C970 C 0.25065 0.24752 0.98058 0.0
C971 C 0.2562 0.24485 0.99695 0.0
C972 C 0.23823 0.23539 0.97126 0.0
C973 C 0.23109 0.22024 0.97807 0.0
C974 C 0.23629 0.21776 0.99468 0.0
C975 C 0.24866 0.22999 0.00407 0.0
H976 H 0.8539 0.23483 0.92618 0.0
H977 H 0.82906 0.19065 0.8924 0.0
H978 H 0.8305 0.23035 0.94801 0.0
H979 H 0.80575 0.18594 0.9144 0.0
H980 H 0.75732 0.21014 0.94038 0.0
H981 H 0.78275 0.2041 0.92237 0.0
H982 H 0.81371 0.21212 0.96883 0.0
H983 H 0.78817 0.21836 0.98686 0.0
C984 C 0.84373 0.22381 0.92371 0.0
C985 C 0.84334 0.21305 0.90765 0.0
C986 C 0.83038 0.22116 0.93625 0.0
C987 C 0.81623 0.20783 0.93288 0.0
C988 C 0.81647 0.19635 0.91732 0.0
C989 C 0.82994 0.19892 0.90481 0.0
C990 C 0.76948 0.21024 0.94675 0.0
C991 C 0.77088 0.21492 0.96494 0.0
C992 C 0.78401 0.20662 0.93648 0.0
C993 C 0.80026 0.20774 0.94419 0.0
C994 C 0.80136 0.21128 0.96254 0.0
C995 C 0.78676 0.21475 0.97285 0.0
H996 H 0.87089 0.82551 0.93432 0.0
H997 H 0.83023 0.85484 0.92767 0.0
H998 H 0.85321 0.81183 0.95696 0.0
H999 H 0.81246 0.84099 0.95032 0.0
H1000 H 0.78953 0.82116 0.00063 0.0
H1001 H 0.81055 0.83771 0.98224 0.0
H1002 H 0.82611 0.7908 0.9565 0.0
H1003 H 0.80531 0.77439 0.97494 0.0
C1004 C 0.85823 0.82915 0.93776 0.0
C1005 C 0.85192 0.84118 0.92905 0.0
C1006 C 0.84808 0.82125 0.95072 0.0
C1007 C 0.8314 0.82524 0.95537 0.0
C1008 C 0.82533 0.83775 0.94714 0.0
C1009 C 0.83547 0.8456 0.93408 0.0
C1010 C 0.79775 0.81447 0.99131 0.0
C1011 C 0.7958 0.7965 0.98918 0.0
C1012 C 0.80963 0.82391 0.98066 0.0
C1013 C 0.81992 0.81556 0.96784 0.0
C1014 C 0.81849 0.79764 0.96633 0.0
C1015 C 0.80653 0.78823 0.97683 0.0
H1016 H 0.13586 0.22291 0.18521 0.0
H1017 H 0.1085 0.17412 0.19729 0.0
H1018 H 0.11215 0.23683 0.1984 0.0
H1019 H 0.08424 0.18809 0.21015 0.0
H1020 H 0.05755 0.22518 0.25181 0.0
H1021 H 0.07695 0.20728 0.23525 0.0
H1022 H 0.08311 0.24045 0.19477 0.0
H1023 H 0.06433 0.25863 0.21177 0.0
C1024 C 0.12467 0.21508 0.19053 0.0
C1025 C 0.12413 0.19738 0.1902 0.0
C1026 C 0.11092 0.22307 0.19797 0.0
C1027 C 0.0961 0.2136 0.2052 0.0
C1028 C 0.09548 0.19582 0.2048 0.0
C1029 C 0.10936 0.1878 0.19739 0.0
C1030 C 0.0627 0.22831 0.23913 0.0
C1031 C 0.05955 0.2433 0.23307 0.0
C1032 C 0.07384 0.21808 0.22963 0.0
C1033 C 0.08193 0.22259 0.21381 0.0
C1034 C 0.07755 0.23684 0.20713 0.0
C1035 C 0.06663 0.24716 0.21673 0.0
H1036 H 0.82012 0.1057 0.19438 0.0
H1037 H 0.85466 0.06847 0.18066 0.0
H1038 H 0.80313 0.08694 0.21352 0.0
H1039 H 0.83746 0.04958 0.19956 0.0
H1040 H 0.82027 0.03695 0.25549 0.0
H1041 H 0.8341 0.05097 0.23126 0.0
H1042 H 0.78393 0.05972 0.21596 0.0
H1043 H 0.76995 0.04547 0.24029 0.0
C1044 C 0.82391 0.09338 0.19518 0.0
C1045 C 0.8389 0.08869 0.18616 0.0
C1046 C 0.81409 0.08257 0.20609 0.0
C1047 C 0.81904 0.06683 0.20821 0.0
C1048 C 0.83348 0.06175 0.19844 0.0
C1049 C 0.84329 0.07256 0.18754 0.0
C1050 C 0.81207 0.04142 0.24672 0.0
C1051 C 0.79397 0.04007 0.24989 0.0
C1052 C 0.82004 0.04951 0.23279 0.0
C1053 C 0.81014 0.05652 0.22168 0.0
C1054 C 0.79195 0.05465 0.22443 0.0
C1055 C 0.78395 0.04649 0.23836 0.0
H1056 H 0.94785 0.79648 0.20041 0.0
H1057 H 0.98536 0.83974 0.18815 0.0
H1058 H 0.97103 0.78467 0.21263 0.0
H1059 H 0.00845 0.82808 0.20082 0.0
H1060 H 0.03186 0.81103 0.25146 0.0
H1061 H 0.0119 0.82262 0.23425 0.0
H1062 H 0.00118 0.77385 0.20155 0.0
H1063 H 0.02155 0.76244 0.2185 0.0
C1064 C 0.96106 0.80337 0.20019 0.0
C1065 C 0.9648 0.81903 0.19334 0.0
C1066 C 0.97431 0.79659 0.20711 0.0
C1067 C 0.99148 0.8055 0.20765 0.0
C1068 C 0.9953 0.821 0.20055 0.0
C1069 C 0.98211 0.8276 0.19326 0.0
C1070 C 0.02552 0.80298 0.24033 0.0
C1071 C 0.02825 0.78595 0.23613 0.0
C1072 C 0.01415 0.80957 0.23051 0.0
C1073 C 0.00503 0.79909 0.21662 0.0
C1074 C 0.00807 0.78215 0.21221 0.0
C1075 C 0.01973 0.77568 0.2218 0.0
H1076 H 0.20948 0.91665 0.16315 0.0
H1077 H 0.25741 0.94682 0.14716 0.0
H1078 H 0.21442 0.9294 0.19358 0.0
H1079 H 0.26195 0.96009 0.17741 0.0
H1080 H 0.25526 0.99163 0.23089 0.0
H1081 H 0.24779 0.97945 0.20072 0.0
H1082 H 0.23705 0.92886 0.21649 0.0
H1083 H 0.24445 0.94105 0.24663 0.0
C1084 C 0.22124 0.92569 0.16616 0.0
C1085 C 0.23338 0.93024 0.15285 0.0
C1086 C 0.22393 0.93319 0.18354 0.0
C1087 C 0.23861 0.94566 0.18784 0.0
C1088 C 0.25045 0.9506 0.17445 0.0
C1089 C 0.24787 0.94296 0.15714 0.0
C1090 C 0.25111 0.97794 0.2279 0.0
C1091 C 0.25053 0.96726 0.24101 0.0
C1092 C 0.24696 0.97097 0.21066 0.0
C1093 C 0.24191 0.95321 0.20629 0.0
C1094 C 0.2408 0.9426 0.21953 0.0
C1095 C 0.24516 0.94954 0.23671 0.0
H1096 H 0.14858 0.84856 0.79185 0.0
H1097 H 0.11608 0.87011 0.83325 0.0
H1098 H 0.12283 0.83107 0.77829 0.0
H1099 H 0.09024 0.85276 0.81947 0.0
H1100 H 0.05606 0.79908 0.80456 0.0
H1101 H 0.07868 0.82218 0.81616 0.0
H1102 H 0.09569 0.83061 0.76341 0.0
H1103 H 0.07295 0.80743 0.75177 0.0
C1104 C 0.13591 0.8498 0.7979 0.0
C1105 C 0.13443 0.8606 0.81374 0.0
C1106 C 0.12111 0.83983 0.79005 0.0
C1107 C 0.10446 0.84043 0.79785 0.0
C1108 C 0.1029 0.85183 0.81326 0.0
C1109 C 0.11771 0.86183 0.8211 0.0
C1110 C 0.06429 0.80616 0.79542 0.0
C1111 C 0.06277 0.80131 0.77723 0.0
C1112 C 0.0773 0.81942 0.80208 0.0
C1113 C 0.08912 0.82814 0.79072 0.0
C1114 C 0.08699 0.82393 0.77252 0.0
C1115 C 0.07396 0.81068 0.76585 0.0
H1116 H 0.20759 0.08125 0.90252 0.0
H1117 H 0.2108 0.11521 0.86301 0.0
H1118 H 0.22852 0.06552 0.88558 0.0
H1119 H 0.23196 0.09972 0.84627 0.0
H1120 H 0.28242 0.05678 0.8611 0.0
H1121 H 0.25937 0.06983 0.87753 0.0
H1122 H 0.23485 0.07248 0.829 0.0
H1123 H 0.25796 0.05947 0.81256 0.0
C1124 C 0.21275 0.08536 0.89022 0.0
C1125 C 0.20755 0.09951 0.88413 0.0
C1126 C 0.22481 0.07639 0.88055 0.0
C1127 C 0.23193 0.08135 0.86457 0.0
C1128 C 0.22655 0.09539 0.8584 0.0
C1129 C 0.2145 0.10435 0.86806 0.0
C1130 C 0.27194 0.05986 0.85395 0.0
C1131 C 0.27206 0.05714 0.83551 0.0
C1132 C 0.25873 0.06736 0.86337 0.0
C1133 C 0.24531 0.07231 0.85459 0.0
C1134 C 0.24516 0.06912 0.83617 0.0
C1135 C 0.25838 0.06164 0.82675 0.0
H1136 H 0.92955 0.22218 0.85045 0.0
H1137 H 0.93139 0.2754 0.87173 0.0
H1138 H 0.96049 0.22791 0.84237 0.0
H1139 H 0.96199 0.2812 0.86327 0.0
H1140 H 0.01699 0.29039 0.84927 0.0
H1141 H 0.99177 0.27772 0.86568 0.0
H1142 H 0.97511 0.24273 0.81937 0.0
H1143 H 1.00076 0.25481 0.80329 0.0
C1144 C 0.93662 0.23503 0.85367 0.0
C1145 C 0.92797 0.24841 0.86146 0.0
C1146 C 0.95432 0.23832 0.84899 0.0
C1147 C 0.96369 0.25504 0.85199 0.0
C1148 C 0.95528 0.26812 0.86092 0.0
C1149 C 0.93764 0.26483 0.86564 0.0
C1150 C 0.00832 0.27955 0.84279 0.0
C1151 C 0.01067 0.27379 0.82489 0.0
C1152 C 0.99374 0.27241 0.85215 0.0
C1153 C 0.98121 0.25948 0.84374 0.0
C1154 C 0.98449 0.25265 0.8263 0.0
C1155 C 0.9991 0.2597 0.817 0.0
H1156 H 0.80648 0.89554 0.83181 0.0
H1157 H 0.85487 0.92982 0.82572 0.0
H1158 H 0.79098 0.91416 0.81785 0.0
H1159 H 0.83933 0.94831 0.81151 0.0
H1160 H 0.80586 0.96262 0.76768 0.0
H1161 H 0.82243 0.94561 0.78275 0.0
H1162 H 0.784 0.94495 0.82505 0.0
H1163 H 0.76752 0.96209 0.81006 0.0
C1164 C 0.81383 0.907 0.82743 0.0
C1165 C 0.83191 0.91119 0.82987 0.0
C1166 C 0.80492 0.91772 0.81955 0.0
C1167 C 0.81395 0.93271 0.81365 0.0
C1168 C 0.83206 0.9368 0.81588 0.0
C1169 C 0.84093 0.92624 0.82405 0.0
C1170 C 0.80107 0.95896 0.78028 0.0
C1171 C 0.78543 0.9637 0.78773 0.0
C1172 C 0.81057 0.9493 0.78892 0.0
C1173 C 0.80446 0.94389 0.80503 0.0
C1174 C 0.78895 0.94883 0.81259 0.0
C1175 C 0.77961 0.95876 0.8041 0.0
H1176 H 0.20219 0.12514 0.23609 0.0
H1177 H 0.21773 0.09754 0.18721 0.0
H1178 H 0.21368 0.10528 0.25224 0.0
H1179 H 0.22958 0.07788 0.20347 0.0
H1180 H 0.26824 0.06453 0.2443 0.0
H1181 H 0.25516 0.08158 0.22592 0.0
H1182 H 0.20641 0.07225 0.25486 0.0
H1183 H 0.21941 0.05492 0.27301 0.0
C1184 C 0.20812 0.11488 0.2288 0.0
C1185 C 0.20907 0.11293 0.21037 0.0
C1186 C 0.21458 0.10345 0.23805 0.0
C1187 C 0.22244 0.09001 0.22909 0.0
C1188 C 0.22359 0.08815 0.21068 0.0
C1189 C 0.21679 0.09937 0.2014 0.0
C1190 C 0.25464 0.06588 0.24647 0.0
C1191 C 0.24479 0.05837 0.25999 0.0
C1192 C 0.24716 0.0756 0.23598 0.0
C1193 C 0.22982 0.0783 0.23905 0.0
C1194 C 0.21985 0.07044 0.25229 0.0
C1195 C 0.22722 0.06042 0.26255 0.0
H1196 H 0.19348 0.91126 0.85834 0.0
H1197 H 0.23687 0.90277 0.88723 0.0
H1198 H 0.21277 0.93291 0.84415 0.0
H1199 H 0.25603 0.92444 0.87319 0.0
H1200 H 0.28357 0.97399 0.85701 0.0
H1201 H 0.26167 0.95529 0.87213 0.0
H1202 H 0.23753 0.93441 0.82273 0.0
H1203 H 0.25914 0.95353 0.80766 0.0
C1204 C 0.20711 0.9138 0.86153 0.0
C1205 C 0.21362 0.905 0.87372 0.0
C1206 C 0.21817 0.92632 0.85346 0.0
C1207 C 0.23594 0.93042 0.85755 0.0
C1208 C 0.24236 0.92179 0.86993 0.0
C1209 C 0.23136 0.90927 0.87791 0.0
C1210 C 0.27337 0.96569 0.84942 0.0
C1211 C 0.27316 0.96519 0.83111 0.0
C1212 C 0.26093 0.95483 0.85806 0.0
C1213 C 0.24797 0.94322 0.84861 0.0
C1214 C 0.24729 0.94325 0.83041 0.0
C1215 C 0.25976 0.95409 0.82175 0.0
H1216 H 0.17136 0.22192 0.85286 0.0
H1217 H 0.13417 0.22933 0.89558 0.0
H1218 H 0.15707 0.23905 0.83597 0.0
H1219 H 0.11995 0.24667 0.87866 0.0
H1220 H 0.08851 0.26051 0.83427 0.0
H1221 H 0.10236 0.24352 0.85193 0.0
H1222 H 0.15307 0.26894 0.83659 0.0
H1223 H 0.13932 0.286 0.81919 0.0
C1224 C 0.16017 0.22726 0.85869 0.0
C1225 C 0.15393 0.22426 0.8756 0.0
C1226 C 0.15203 0.23715 0.84902 0.0
C1227 C 0.13738 0.24425 0.85597 0.0
C1228 C 0.1311 0.24124 0.87287 0.0
C1229 C 0.13933 0.23141 0.88261 0.0
C1230 C 0.10261 0.26255 0.83477 0.0
C1231 C 0.11278 0.27451 0.82514 0.0
C1232 C 0.11054 0.25283 0.8449 0.0
C1233 C 0.12882 0.25481 0.84559 0.0
C1234 C 0.13897 0.26686 0.83609 0.0
C1235 C 0.13106 0.27661 0.82605 0.0
H1236 H 0.83962 0.14635 0.81558 0.0
H1237 H 0.84186 0.1203 0.86079 0.0
H1238 H 0.82597 0.11982 0.79908 0.0
H1239 H 0.82884 0.09339 0.84398 0.0
H1240 H 0.78049 0.05883 0.81769 0.0
H1241 H 0.80084 0.08136 0.83374 0.0
H1242 H 0.82763 0.0921 0.78502 0.0
H1243 H 0.80665 0.06989 0.76895 0.0
C1244 C 0.83752 0.13485 0.82189 0.0
C1245 C 0.84159 0.13547 0.83957 0.0
C1246 C 0.82983 0.11954 0.81235 0.0
C1247 C 0.8262 0.10439 0.82018 0.0
C1248 C 0.83114 0.10485 0.83762 0.0
C1249 C 0.83866 0.12026 0.84724 0.0
C1250 C 0.79101 0.06572 0.81048 0.0
C1251 C 0.79195 0.06274 0.79209 0.0
C1252 C 0.80275 0.07865 0.81968 0.0
C1253 C 0.8158 0.08876 0.81069 0.0
C1254 C 0.81749 0.08486 0.79235 0.0
C1255 C 0.80558 0.07208 0.78313 0.0
H1256 H 0.88941 0.84509 0.81093 0.0
H1257 H 0.92314 0.85289 0.85527 0.0
H1258 H 0.90958 0.82861 0.79373 0.0
H1259 H 0.94369 0.83717 0.83795 0.0
H1260 H 0.96321 0.78891 0.8113 0.0
H1261 H 0.94573 0.80872 0.82735 0.0
H1262 H 0.93691 0.82768 0.77911 0.0
H1263 H 0.95408 0.80732 0.76297 0.0
C1264 C 0.90131 0.84358 0.81688 0.0
C1265 C 0.90457 0.85013 0.83452 0.0
C1266 C 0.91296 0.83419 0.807 0.0
C1267 C 0.92825 0.83132 0.81446 0.0
C1268 C 0.93186 0.83867 0.83185 0.0
C1269 C 0.92012 0.84782 0.84178 0.0
C1270 C 0.95782 0.79753 0.80416 0.0
C1271 C 0.96009 0.79659 0.78587 0.0
C1272 C 0.94777 0.80895 0.81338 0.0
C1273 C 0.93984 0.81991 0.8046 0.0
C1274 C 0.94254 0.81929 0.78632 0.0
C1275 C 0.95247 0.80769 0.77706 0.0
H1276 H 0.84427 0.91258 0.1899 0.0
H1277 H 0.80697 0.86913 0.20215 0.0
H1278 H 0.82891 0.93157 0.21024 0.0
H1279 H 0.79146 0.88815 0.22224 0.0
H1280 H 0.78604 0.92357 0.27411 0.0
H1281 H 0.79787 0.90472 0.2508 0.0
H1282 H 0.80188 0.94371 0.21649 0.0
H1283 H 0.78982 0.96268 0.23993 0.0
C1284 C 0.83265 0.9071 0.19673 0.0
C1285 C 0.82696 0.8893 0.19453 0.0
C1286 C 0.82378 0.91801 0.20832 0.0
C1287 C 0.80904 0.91137 0.21799 0.0
C1288 C 0.80295 0.89365 0.21522 0.0
C1289 C 0.8118 0.88275 0.20363 0.0
C1290 C 0.78906 0.92804 0.2615 0.0
C1291 C 0.78685 0.94463 0.25888 0.0
C1292 C 0.79589 0.91721 0.24811 0.0
C1293 C 0.80077 0.92267 0.23174 0.0
C1294 C 0.79839 0.93918 0.22901 0.0
C1295 C 0.79149 0.95004 0.24243 0.0
H1296 H 0.171 0.88312 0.21015 0.0
H1297 H 0.18963 0.84173 0.17629 0.0
H1298 H 0.15421 0.86252 0.22757 0.0
H1299 H 0.17315 0.8212 0.19391 0.0
H1300 H 0.12597 0.78839 0.21609 0.0
H1301 H 0.14305 0.80943 0.19952 0.0
H1302 H 0.15713 0.84233 0.24781 0.0
H1303 H 0.1394 0.8215 0.26441 0.0
C1304 C 0.17163 0.86965 0.20649 0.0
C1305 C 0.18159 0.86408 0.19176 0.0
C1306 C 0.16206 0.85784 0.21654 0.0
C1307 C 0.16225 0.8402 0.21209 0.0
C1308 C 0.17247 0.83467 0.19753 0.0
C1309 C 0.18201 0.84646 0.18749 0.0
C1310 C 0.13251 0.80021 0.22319 0.0
C1311 C 0.13123 0.80329 0.24159 0.0
C1312 C 0.14252 0.81218 0.21369 0.0
C1313 C 0.15155 0.82754 0.22233 0.0
C1314 C 0.15023 0.83069 0.24073 0.0
C1315 C 0.1402 0.81868 0.25026 0.0
H1316 H 0.92272 0.1664 0.17783 0.0
H1317 H 0.89081 0.20608 0.17973 0.0
H1318 H 0.94598 0.18708 0.19236 0.0
H1319 H 0.91366 0.22654 0.19484 0.0
H1320 H 0.96899 0.22109 0.24216 0.0
H1321 H 0.95091 0.2011 0.22112 0.0
H1322 H 0.94165 0.24321 0.19494 0.0
H1323 H 0.95936 0.26324 0.21651 0.0
C1324 C 0.92072 0.17957 0.18121 0.0
C1325 C 0.90483 0.18454 0.17776 0.0
C1326 C 0.93402 0.19142 0.18966 0.0
C1327 C 0.93168 0.20848 0.19503 0.0
C1328 C 0.91609 0.2136 0.19076 0.0
C1329 C 0.90288 0.2018 0.18216 0.0
C1330 C 0.96342 0.22602 0.23167 0.0
C1331 C 0.96551 0.24372 0.23102 0.0
C1332 C 0.95305 0.21455 0.21953 0.0
C1333 C 0.94464 0.2205 0.20634 0.0
C1334 C 0.94759 0.23817 0.20512 0.0
C1335 C 0.95782 0.24966 0.2174 0.0
H1336 H 0.22299 0.66326 0.63507 0.0
H1337 H 0.18629 0.69594 0.62554 0.0
H1338 H 0.24425 0.6776 0.61544 0.0
H1339 H 0.20765 0.7104 0.60614 0.0
H1340 H 0.28387 0.72352 0.60052 0.0
H1341 H 0.26198 0.706 0.61678 0.0
H1342 H 0.22391 0.70682 0.57792 0.0
H1343 H 0.24587 0.7248 0.56179 0.0
C1344 C 0.2194 0.67342 0.62873 0.0
C1345 C 0.20295 0.67851 0.632 0.0
C1346 C 0.23162 0.68169 0.61753 0.0
C1347 C 0.22768 0.6952 0.60929 0.0
C1348 C 0.21104 0.69993 0.61213 0.0
C1349 C 0.19884 0.6917 0.62337 0.0
C1350 C 0.27082 0.71998 0.59545 0.0
C1351 C 0.26652 0.72571 0.57999 0.0
C1352 C 0.25832 0.70976 0.60466 0.0
C1353 C 0.24118 0.70502 0.59867 0.0
C1354 C 0.23697 0.7104 0.58296 0.0
C1355 C 0.24954 0.72057 0.57366 0.0
H1356 H 0.85255 0.68534 0.6008 0.0
H1357 H 0.80545 0.69052 0.63174 0.0
H1358 H 0.84459 0.70417 0.58109 0.0
H1359 H 0.7975 0.70925 0.61199 0.0
H1360 H 0.83492 0.75858 0.57044 0.0
H1361 H 0.84231 0.73577 0.58518 0.0
H1362 H 0.7893 0.70939 0.58045 0.0
H1363 H 0.78192 0.73194 0.56511 0.0
C1364 C 0.84041 0.69032 0.60328 0.0
C1365 C 0.82967 0.68651 0.61789 0.0
C1366 C 0.8359 0.70115 0.59203 0.0
C1367 C 0.82044 0.70819 0.59502 0.0
C1368 C 0.80941 0.70388 0.60925 0.0
C1369 C 0.81402 0.69324 0.62063 0.0
C1370 C 0.82491 0.74771 0.57204 0.0
C1371 C 0.80777 0.74722 0.56665 0.0
C1372 C 0.82917 0.73465 0.58057 0.0
C1373 C 0.81635 0.72088 0.58409 0.0
C1374 C 0.79938 0.71999 0.57813 0.0
C1375 C 0.79517 0.73295 0.5694 0.0
H1376 H 0.89975 0.30945 0.64734 0.0
H1377 H 0.87408 0.35356 0.64845 0.0
H1378 H 0.87774 0.29268 0.62768 0.0
H1379 H 0.85192 0.33674 0.62899 0.0
H1380 H 0.80526 0.29426 0.61107 0.0
H1381 H 0.82764 0.31268 0.62925 0.0
H1382 H 0.86763 0.29042 0.59771 0.0
H1383 H 0.84526 0.27169 0.57987 0.0
C1384 C 0.88939 0.31558 0.64343 0.0
C1385 C 0.88847 0.33276 0.64985 0.0
C1386 C 0.87681 0.30598 0.63208 0.0
C1387 C 0.86301 0.31334 0.6268 0.0
C1388 C 0.86219 0.33059 0.63306 0.0
C1389 C 0.87482 0.34021 0.64438 0.0
C1390 C 0.81884 0.29337 0.60798 0.0
C1391 C 0.82346 0.28147 0.59404 0.0
C1392 C 0.83167 0.30401 0.61831 0.0
C1393 C 0.84943 0.30294 0.61502 0.0
C1394 C 0.85407 0.29141 0.60076 0.0
C1395 C 0.84124 0.28082 0.59038 0.0
H1396 H 0.2119 0.32379 0.61181 0.0
H1397 H 0.21618 0.35825 0.57264 0.0
H1398 H 0.23386 0.30881 0.59577 0.0
H1399 H 0.23797 0.34308 0.55648 0.0
H1400 H 0.29228 0.32708 0.54745 0.0
H1401 H 0.2683 0.34039 0.5614 0.0
H1402 H 0.23961 0.29054 0.56829 0.0
H1403 H 0.26365 0.27713 0.55414 0.0
C1404 C 0.21738 0.32805 0.59967 0.0
C1405 C 0.21238 0.34229 0.59355 0.0
C1406 C 0.2299 0.3194 0.59043 0.0
C1407 C 0.23773 0.32483 0.57492 0.0
C1408 C 0.23236 0.33875 0.56854 0.0
C1409 C 0.2198 0.34738 0.57775 0.0
C1410 C 0.28077 0.31892 0.55169 0.0
C1411 C 0.27985 0.30103 0.54961 0.0
C1412 C 0.26701 0.32656 0.55969 0.0
C1413 C 0.25202 0.31652 0.56587 0.0
C1414 C 0.25106 0.29862 0.5638 0.0
C1415 C 0.26483 0.29096 0.55574 0.0
H1416 H 0.21864 0.33638 0.41214 0.0
H1417 H 0.22874 0.3737 0.45823 0.0
H1418 H 0.23919 0.31988 0.42186 0.0
H1419 H 0.24891 0.35694 0.46823 0.0
H1420 H 0.26492 0.286 0.4521 0.0
H1421 H 0.24341 0.30217 0.44351 0.0
H1422 H 0.27725 0.34948 0.46112 0.0
H1423 H 0.29856 0.33329 0.46993 0.0
C1424 C 0.22513 0.34099 0.42443 0.0
C1425 C 0.22209 0.35639 0.43438 0.0
C1426 C 0.23685 0.33146 0.43007 0.0
C1427 C 0.24575 0.33706 0.44584 0.0
C1428 C 0.24251 0.35237 0.45589 0.0
C1429 C 0.23086 0.36194 0.45021 0.0
C1430 C 0.26774 0.29986 0.4541 0.0
C1431 C 0.28342 0.30837 0.46171 0.0
C1432 C 0.25544 0.30913 0.44914 0.0
C1433 C 0.25858 0.32715 0.45159 0.0
C1434 C 0.27424 0.33564 0.45931 0.0
C1435 C 0.28649 0.32636 0.46435 0.0
H1436 H 0.2203 0.66288 0.41425 0.0
H1437 H 0.17943 0.69365 0.42532 0.0
H1438 H 0.23873 0.68224 0.43536 0.0
H1439 H 0.19753 0.71273 0.44736 0.0
H1440 H 0.24173 0.75223 0.47388 0.0
H1441 H 0.22197 0.73383 0.45314 0.0
H1442 H 0.24251 0.68974 0.46506 0.0
H1443 H 0.26334 0.7082 0.48433 0.0
C1444 C 0.21524 0.67381 0.42131 0.0
C1445 C 0.19847 0.6768 0.41811 0.0
C1446 C 0.22574 0.68484 0.43361 0.0
C1447 C 0.21959 0.69897 0.44343 0.0
C1448 C 0.20283 0.70211 0.43999 0.0
C1449 C 0.19243 0.6912 0.42735 0.0
C1450 C 0.24215 0.73862 0.47197 0.0
C1451 C 0.25444 0.73185 0.48069 0.0
C1452 C 0.23059 0.72799 0.46021 0.0
C1453 C 0.23077 0.71025 0.45707 0.0
C1454 C 0.24229 0.70338 0.46664 0.0
C1455 C 0.25407 0.71401 0.4781 0.0
H1456 H 0.90828 0.74333 0.41799 0.0
H1457 H 0.87399 0.69687 0.4271 0.0
H1458 H 0.88855 0.7602 0.43527 0.0
H1459 H 0.85405 0.7138 0.44406 0.0
H1460 H 0.81549 0.7525 0.45978 0.0
H1461 H 0.83409 0.73528 0.44084 0.0
H1462 H 0.87966 0.76462 0.46676 0.0
H1463 H 0.8612 0.78187 0.48539 0.0
C1464 C 0.89646 0.7367 0.42356 0.0
C1465 C 0.89258 0.71873 0.4209 0.0
C1466 C 0.88518 0.74638 0.43347 0.0
C1467 C 0.86974 0.73832 0.44098 0.0
C1468 C 0.86571 0.72036 0.43817 0.0
C1469 C 0.87708 0.71066 0.42832 0.0
C1470 C 0.82949 0.75527 0.46132 0.0
C1471 C 0.8369 0.76846 0.47409 0.0
C1472 C 0.8401 0.74536 0.4506 0.0
C1473 C 0.85832 0.74864 0.45231 0.0
C1474 C 0.86568 0.7619 0.46501 0.0
C1475 C 0.8551 0.77166 0.4758 0.0
H1476 H 0.8741 0.34062 0.44878 0.0
H1477 H 0.82619 0.33189 0.42027 0.0
H1478 H 0.85893 0.32622 0.47237 0.0
H1479 H 0.81114 0.31713 0.44362 0.0
H1480 H 0.78484 0.29945 0.4923 0.0
H1481 H 0.80042 0.31945 0.47347 0.0
H1482 H 0.84708 0.29731 0.4766 0.0
H1483 H 0.83156 0.27754 0.49558 0.0
C1484 C 0.8603 0.33574 0.44759 0.0
C1485 C 0.85139 0.33732 0.43255 0.0
C1486 C 0.85162 0.32739 0.46109 0.0
C1487 C 0.83383 0.32038 0.45989 0.0
C1488 C 0.82479 0.32254 0.44514 0.0
C1489 C 0.83345 0.33093 0.43166 0.0
C1490 C 0.79851 0.29906 0.48917 0.0
C1491 C 0.80694 0.28687 0.49538 0.0
C1492 C 0.80741 0.31045 0.47829 0.0
C1493 C 0.82497 0.30988 0.4733 0.0
C1494 C 0.83364 0.29827 0.48029 0.0
C1495 C 0.82474 0.28693 0.49122 0.0
H1496 H 0.1158 0.6864 0.71237 0.0
H1497 H 0.09854 0.70091 0.66486 0.0
H1498 H 0.09515 0.7024 0.72952 0.0
H1499 H 0.07782 0.71667 0.68197 0.0
H1500 H 0.06443 0.76272 0.72099 0.0
H1501 H 0.08069 0.74323 0.70237 0.0
H1502 H 0.06397 0.70418 0.7359 0.0
H1503 H 0.04794 0.72389 0.75476 0.0
C1504 C 0.10744 0.69279 0.70556 0.0
C1505 C 0.10896 0.6925 0.68725 0.0
C1506 C 0.09554 0.70189 0.71538 0.0
C1507 C 0.08492 0.71093 0.70712 0.0
C1508 C 0.08598 0.71007 0.68876 0.0
C1509 C 0.09783 0.70096 0.67895 0.0
C1510 C 0.06408 0.74991 0.72427 0.0
C1511 C 0.05496 0.74487 0.73937 0.0
C1512 C 0.0733 0.73869 0.71354 0.0
C1513 C 0.07369 0.72215 0.71768 0.0
C1514 C 0.06407 0.71689 0.73245 0.0
C1515 C 0.05473 0.7281 0.74314 0.0
H1516 H 0.81491 0.60539 0.7013 0.0
H1517 H 0.85316 0.57142 0.6914 0.0
H1518 H 0.7988 0.58671 0.72103 0.0
H1519 H 0.83683 0.55255 0.71084 0.0
H1520 H 0.81842 0.54056 0.76659 0.0
H1521 H 0.83216 0.55453 0.74225 0.0
H1522 H 0.7815 0.559 0.72432 0.0
H1523 H 0.76766 0.54491 0.74881 0.0
C1524 C 0.81972 0.59378 0.70307 0.0
C1525 C 0.83545 0.59002 0.69492 0.0
C1526 C 0.81041 0.583 0.71432 0.0
C1527 C 0.8166 0.5682 0.71766 0.0
C1528 C 0.83186 0.56401 0.70881 0.0
C1529 C 0.84118 0.57479 0.69758 0.0
C1530 C 0.81015 0.5441 0.75723 0.0
C1531 C 0.79192 0.54162 0.7597 0.0
C1532 C 0.81806 0.55216 0.74324 0.0
C1533 C 0.80795 0.55797 0.73134 0.0
C1534 C 0.78968 0.55491 0.7334 0.0
C1535 C 0.78175 0.54682 0.74741 0.0
H1536 H 0.94964 0.3178 0.72493 0.0
H1537 H 0.99464 0.34624 0.70124 0.0
H1538 H 0.96872 0.30716 0.74368 0.0
H1539 H 0.01374 0.33579 0.72033 0.0
H1540 H 0.00888 0.27912 0.76294 0.0
H1541 H 0.99316 0.28812 0.74009 0.0
H1542 H 0.01754 0.34044 0.75464 0.0
H1543 H 0.03282 0.33163 0.77802 0.0
C1544 C 0.96361 0.32169 0.72364 0.0
C1545 C 0.97063 0.33285 0.71161 0.0
C1546 C 0.97453 0.31554 0.73432 0.0
C1547 C 0.9927 0.32065 0.73343 0.0
C1548 C 0.99978 0.33169 0.72129 0.0
C1549 C 0.98885 0.33758 0.71033 0.0
C1550 C 0.01097 0.29255 0.76127 0.0
C1551 C 0.02192 0.30468 0.77257 0.0
C1552 C 0.00199 0.29767 0.74813 0.0
C1553 C 0.00399 0.31499 0.74574 0.0
C1554 C 0.01582 0.32698 0.75617 0.0
C1555 C 0.02464 0.3219 0.76952 0.0
H1556 H 0.21292 0.42677 0.65099 0.0
H1557 H 0.22607 0.39038 0.68283 0.0
H1558 H 0.23127 0.44991 0.66911 0.0
H1559 H 0.24436 0.4133 0.70062 0.0
H1560 H 0.25987 0.45888 0.74088 0.0
H1561 H 0.23998 0.43804 0.72214 0.0
H1562 H 0.26259 0.46016 0.67655 0.0
H1563 H 0.28256 0.48105 0.69533 0.0
C1564 C 0.21979 0.42368 0.66174 0.0
C1565 C 0.21794 0.40673 0.6655 0.0
C1566 C 0.2303 0.43692 0.67209 0.0
C1567 C 0.23906 0.43344 0.68643 0.0
C1568 C 0.23748 0.41645 0.6899 0.0
C1569 C 0.22708 0.40328 0.67958 0.0
C1570 C 0.26055 0.45934 0.72686 0.0
C1571 C 0.2729 0.47149 0.71956 0.0
C1572 C 0.24918 0.4474 0.71613 0.0
C1573 C 0.2499 0.44731 0.69785 0.0
C1574 C 0.26167 0.45996 0.6906 0.0
C1575 C 0.27309 0.47194 0.70136 0.0
H1576 H 0.14823 0.35991 0.28902 0.0
H1577 H 0.11099 0.37028 0.33097 0.0
H1578 H 0.12576 0.3392 0.27334 0.0
H1579 H 0.08855 0.34939 0.31527 0.0
H1580 H 0.04962 0.31685 0.27513 0.0
H1581 H 0.07046 0.34146 0.28791 0.0
H1582 H 0.11156 0.31065 0.28035 0.0
H1583 H 0.09098 0.28621 0.26818 0.0
C1584 C 0.13521 0.35795 0.29481 0.0
C1585 C 0.13149 0.36659 0.31137 0.0
C1586 C 0.12235 0.34603 0.28584 0.0
C1587 C 0.10545 0.34252 0.29318 0.0
C1588 C 0.10143 0.35188 0.30925 0.0
C1589 C 0.11433 0.36377 0.31828 0.0
C1590 C 0.06311 0.31536 0.27621 0.0
C1591 C 0.06862 0.29957 0.27035 0.0
C1592 C 0.07502 0.32945 0.28348 0.0
C1593 C 0.09269 0.32804 0.2849 0.0
C1594 C 0.09815 0.31229 0.27902 0.0
C1595 C 0.08629 0.29825 0.27197 0.0
H1596 H 0.20887 0.61232 0.33275 0.0
H1597 H 0.20068 0.57564 0.36982 0.0
H1598 H 0.22856 0.5955 0.31544 0.0
H1599 H 0.2201 0.55855 0.35225 0.0
H1600 H 0.25255 0.55551 0.28007 0.0
H1601 H 0.22979 0.56893 0.29669 0.0
H1602 H 0.25088 0.56027 0.34501 0.0
H1603 H 0.27348 0.5467 0.32836 0.0
C1604 C 0.21114 0.60057 0.33712 0.0
C1605 C 0.20326 0.59537 0.35271 0.0
C1606 C 0.22234 0.59084 0.32712 0.0
C1607 C 0.22591 0.57563 0.33242 0.0
C1608 C 0.2178 0.57029 0.34788 0.0
C1609 C 0.20661 0.58005 0.35792 0.0
C1610 C 0.25221 0.55635 0.29424 0.0
C1611 C 0.26485 0.55012 0.30291 0.0
C1612 C 0.23922 0.5641 0.30377 0.0
C1613 C 0.2386 0.56585 0.32221 0.0
C1614 C 0.25083 0.55898 0.33083 0.0
C1615 C 0.26379 0.55118 0.32129 0.0
H1616 H 0.99921 0.72202 0.37012 0.0
H1617 H 0.95569 0.73337 0.34347 0.0
H1618 H 0.01942 0.73572 0.34896 0.0
H1619 H 0.97591 0.74735 0.32263 0.0
H1620 H 0.04028 0.73687 0.28938 0.0
H1621 H 0.02336 0.72703 0.31446 0.0
H1622 H 0.00169 0.77391 0.32314 0.0
H1623 H 0.01934 0.78435 0.29861 0.0
C1624 C 0.99399 0.72764 0.35991 0.0
C1625 C 0.97588 0.72656 0.35838 0.0
C1626 C 0.00554 0.73542 0.34781 0.0
C1627 C 0.99918 0.7426 0.33424 0.0
C1628 C 0.98112 0.74204 0.33308 0.0
C1629 C 0.96957 0.73395 0.34493 0.0
C1630 C 0.03239 0.7454 0.2969 0.0
C1631 C 0.03116 0.76141 0.29179 0.0
C1632 C 0.02261 0.73967 0.31124 0.0
C1633 C 0.01116 0.74968 0.3206 0.0
C1634 C 0.01032 0.7659 0.31598 0.0
C1635 C 0.02035 0.77179 0.30185 0.0
H1636 H 0.86394 0.43692 0.34359 0.0
H1637 H 0.82722 0.39513 0.31835 0.0
H1638 H 0.8511 0.45709 0.3292 0.0
H1639 H 0.81474 0.41517 0.30353 0.0
H1640 H 0.78526 0.45608 0.29113 0.0
H1641 H 0.7974 0.43733 0.30805 0.0
H1642 H 0.84887 0.46617 0.30134 0.0
H1643 H 0.83661 0.48508 0.28476 0.0
C1644 C 0.8532 0.43202 0.33488 0.0
C1645 C 0.84663 0.41439 0.33213 0.0
C1646 C 0.84586 0.44359 0.32655 0.0
C1647 C 0.83182 0.43783 0.31518 0.0
C1648 C 0.82531 0.42017 0.31243 0.0
C1649 C 0.83257 0.40862 0.32082 0.0
C1650 C 0.79915 0.45847 0.2934 0.0
C1651 C 0.80996 0.47207 0.28659 0.0
C1652 C 0.80615 0.44766 0.30301 0.0
C1653 C 0.82418 0.45007 0.30596 0.0
C1654 C 0.83491 0.464 0.29955 0.0
C1655 C 0.82788 0.47488 0.29004 0.0
H1656 H 0.21146 0.63015 0.72207 0.0
H1657 H 0.20987 0.59387 0.67485 0.0
H1658 H 0.23044 0.61434 0.73524 0.0
H1659 H 0.22947 0.57835 0.68776 0.0
H1660 H 0.25205 0.54557 0.72308 0.0
H1661 H 0.23217 0.56033 0.70936 0.0
H1662 H 0.25937 0.60901 0.73346 0.0
H1663 H 0.27869 0.59422 0.74747 0.0
C1664 C 0.21525 0.61884 0.71445 0.0
C1665 C 0.20918 0.61331 0.69739 0.0
C1666 C 0.22626 0.6098 0.72196 0.0
C1667 C 0.23169 0.5951 0.71254 0.0
C1668 C 0.22545 0.58948 0.69551 0.0
C1669 C 0.21427 0.59844 0.68805 0.0
C1670 C 0.25375 0.55943 0.72533 0.0
C1671 C 0.26677 0.56874 0.7365 0.0
C1672 C 0.24241 0.56792 0.71745 0.0
C1673 C 0.24398 0.58591 0.72043 0.0
C1674 C 0.25739 0.59516 0.73122 0.0
C1675 C 0.26856 0.58669 0.7392 0.0
H1676 H 0.23172 0.41266 0.37764 0.0
H1677 H 0.18513 0.42059 0.3536 0.0
H1678 H 0.24956 0.42883 0.357 0.0
H1679 H 0.20313 0.43678 0.33272 0.0
H1680 H 0.24441 0.44797 0.28741 0.0
H1681 H 0.2244 0.433 0.30778 0.0
H1682 H 0.25653 0.4583 0.35099 0.0
H1683 H 0.27678 0.47267 0.33071 0.0
C1684 C 0.22525 0.41785 0.36793 0.0
C1685 C 0.20695 0.41513 0.36718 0.0
C1686 C 0.2355 0.42721 0.35613 0.0
C1687 C 0.22778 0.4342 0.34328 0.0
C1688 C 0.20947 0.4314 0.34237 0.0
C1689 C 0.19915 0.42201 0.35426 0.0
C1690 C 0.24716 0.45035 0.30127 0.0
C1691 C 0.26225 0.46147 0.3074 0.0
C1692 C 0.23561 0.4419 0.31295 0.0
C1693 C 0.23897 0.44433 0.33098 0.0
C1694 C 0.25371 0.45593 0.33714 0.0
C1695 C 0.26521 0.46436 0.32552 0.0
H1696 H 0.13553 0.71673 0.35982 0.0
H1697 H 0.18449 0.75074 0.35583 0.0
H1698 H 0.12339 0.73019 0.33778 0.0
H1699 H 0.17216 0.76458 0.33413 0.0
H1700 H 0.15181 0.76851 0.27981 0.0
H1701 H 0.16379 0.7581 0.30416 0.0
H1702 H 0.11364 0.75542 0.33123 0.0
H1703 H 0.10161 0.7656 0.30665 0.0
C1704 C 0.14364 0.72726 0.35443 0.0
C1705 C 0.16104 0.73256 0.35952 0.0
C1706 C 0.13663 0.73507 0.34184 0.0
C1707 C 0.1468 0.74845 0.33407 0.0
C1708 C 0.16403 0.75412 0.33959 0.0
C1709 C 0.17107 0.74625 0.35213 0.0
C1710 C 0.14341 0.76595 0.29108 0.0
C1711 C 0.12575 0.76786 0.29128 0.0
C1712 C 0.15029 0.76 0.30509 0.0
C1713 C 0.1397 0.75587 0.3197 0.0
C1714 C 0.12212 0.75819 0.32008 0.0
C1715 C 0.11522 0.76406 0.30602 0.0
H1716 H 0.84592 0.62337 0.38388 0.0
H1717 H 0.81284 0.65479 0.36447 0.0
H1718 H 0.83137 0.59839 0.36525 0.0
H1719 H 0.79846 0.62979 0.34566 0.0
H1720 H 0.77063 0.57937 0.31813 0.0
H1721 H 0.78023 0.60071 0.34319 0.0
H1722 H 0.83319 0.59148 0.33315 0.0
H1723 H 0.82386 0.57072 0.30809 0.0
C1724 C 0.83538 0.62492 0.37584 0.0
C1725 C 0.83074 0.64115 0.37545 0.0
C1726 C 0.82707 0.6106 0.36513 0.0
C1727 C 0.81393 0.61216 0.35382 0.0
C1728 C 0.80847 0.62814 0.3543 0.0
C1729 C 0.8168 0.6425 0.36501 0.0
C1730 C 0.78429 0.5818 0.32138 0.0
C1731 C 0.79644 0.57327 0.31101 0.0
C1732 C 0.78977 0.59399 0.33574 0.0
C1733 C 0.80746 0.59777 0.34015 0.0
C1734 C 0.81941 0.58866 0.33032 0.0
C1735 C 0.81401 0.57665 0.31592 0.0
H1736 H 0.9149 0.36072 0.31887 0.0
H1737 H 0.89974 0.31725 0.34713 0.0
H1738 H 0.93458 0.3446 0.29998 0.0
H1739 H 0.91913 0.30134 0.32832 0.0
H1740 H 0.93727 0.2715 0.27801 0.0
H1741 H 0.91898 0.28946 0.29591 0.0
H1742 H 0.9627 0.33057 0.30285 0.0
H1743 H 0.9812 0.31245 0.28472 0.0
C1744 C 0.91576 0.34778 0.32107 0.0
C1745 C 0.90568 0.34027 0.33448 0.0
C1746 C 0.92708 0.33862 0.31033 0.0
C1747 C 0.92829 0.32169 0.31263 0.0
C1748 C 0.91833 0.31429 0.32612 0.0
C1749 C 0.90726 0.32347 0.33695 0.0
C1750 C 0.94297 0.28444 0.28314 0.0
C1751 C 0.96067 0.2906 0.27987 0.0
C1752 C 0.93252 0.29468 0.29351 0.0
C1753 C 0.93942 0.31139 0.30082 0.0
C1754 C 0.95703 0.31776 0.2973 0.0
C1755 C 0.96761 0.30738 0.28705 0.0
H1756 H 0.8506 0.41504 0.70059 0.0
H1757 H 0.81474 0.37281 0.71773 0.0
H1758 H 0.83509 0.4352 0.71921 0.0
H1759 H 0.79943 0.39297 0.73654 0.0
H1760 H 0.76776 0.43401 0.75959 0.0
H1761 H 0.78118 0.41528 0.73704 0.0
H1762 H 0.83206 0.44359 0.75075 0.0
H1763 H 0.81873 0.46217 0.77327 0.0
C1764 C 0.83934 0.41005 0.70823 0.0
C1765 C 0.834 0.39229 0.70776 0.0
C1766 C 0.8305 0.42161 0.71897 0.0
C1767 C 0.81609 0.41571 0.72946 0.0
C1768 C 0.81037 0.39797 0.7285 0.0
C1769 C 0.81923 0.3864 0.71779 0.0
C1770 C 0.78181 0.43626 0.75774 0.0
C1771 C 0.79216 0.44959 0.76827 0.0
C1772 C 0.78949 0.42553 0.74482 0.0
C1773 C 0.80769 0.42791 0.74212 0.0
C1774 C 0.81798 0.44155 0.75229 0.0
C1775 C 0.81032 0.45224 0.76521 0.0
H1776 H 0.17789 0.35324 0.71984 0.0
H1777 H 0.14559 0.31693 0.68314 0.0
H1778 H 0.16134 0.34154 0.74416 0.0
H1779 H 0.12894 0.30515 0.70778 0.0
H1780 H 0.11737 0.27981 0.76027 0.0
H1781 H 0.13363 0.28946 0.73438 0.0
H1782 H 0.13018 0.3419 0.75509 0.0
H1783 H 0.11423 0.33236 0.78084 0.0
C1784 C 0.1673 0.3427 0.71694 0.0
C1785 C 0.16297 0.33609 0.69954 0.0
C1786 C 0.15778 0.33605 0.7309 0.0
C1787 C 0.14379 0.32256 0.72782 0.0
C1788 C 0.13972 0.31554 0.71047 0.0
C1789 C 0.14919 0.32232 0.69641 0.0
C1790 C 0.1201 0.29338 0.75921 0.0
C1791 C 0.11454 0.30534 0.77252 0.0
C1792 C 0.12926 0.29887 0.74439 0.0
C1793 C 0.1332 0.31641 0.74283 0.0
C1794 C 0.12745 0.32831 0.75605 0.0
C1795 C 0.11819 0.32284 0.77071 0.0
H1796 H 0.9148 0.66772 0.68877 0.0
H1797 H 0.88363 0.70753 0.68741 0.0
H1798 H 0.93734 0.68845 0.70426 0.0
H1799 H 0.90577 0.72812 0.70358 0.0
H1800 H 0.9606 0.72357 0.75257 0.0
H1801 H 0.94152 0.70338 0.73264 0.0
H1802 H 0.93406 0.74444 0.70401 0.0
H1803 H 0.95283 0.76477 0.72447 0.0
C1804 C 0.91277 0.68092 0.69177 0.0
C1805 C 0.89736 0.68595 0.68697 0.0
C1806 C 0.92565 0.69281 0.70076 0.0
C1807 C 0.92336 0.70998 0.70539 0.0
C1808 C 0.90816 0.71509 0.70007 0.0
C1809 C 0.89537 0.70324 0.69088 0.0
C1810 C 0.95514 0.72823 0.74182 0.0
C1811 C 0.95822 0.74575 0.74006 0.0
C1812 C 0.9442 0.71663 0.73033 0.0
C1813 C 0.93616 0.72222 0.71666 0.0
C1814 C 0.93975 0.7397 0.71455 0.0
C1815 C 0.95058 0.75134 0.72619 0.0
H1816 H 0.69063 0.20607 0.64178 0.0
H1817 H 0.72818 0.17436 0.6515 0.0
H1818 H 0.71198 0.22145 0.62308 0.0
H1819 H 0.74949 0.18965 0.63257 0.0
H1820 H 0.7496 0.23497 0.57757 0.0
H1821 H 0.72794 0.21796 0.59488 0.0
H1822 H 0.76694 0.21807 0.63306 0.0
H1823 H 0.78858 0.23458 0.61559 0.0
C1824 C 0.70341 0.2023 0.63987 0.0
C1825 C 0.70768 0.18899 0.64824 0.0
C1826 C 0.71562 0.21106 0.62903 0.0
C1827 C 0.73246 0.20681 0.62632 0.0
C1828 C 0.7367 0.19339 0.63454 0.0
C1829 C 0.72445 0.18456 0.64534 0.0
C1830 C 0.75354 0.23125 0.5896 0.0
C1831 C 0.77077 0.23627 0.59527 0.0
C1832 C 0.74111 0.22162 0.59959 0.0
C1833 C 0.74569 0.21667 0.61539 0.0
C1834 C 0.76299 0.22151 0.6209 0.0
C1835 C 0.77535 0.23118 0.61098 0.0
H1836 H 0.37613 0.20227 0.57693 0.0
H1837 H 0.33151 0.20251 0.61253 0.0
H1838 H 0.36451 0.22135 0.56006 0.0
H1839 H 0.32012 0.22195 0.59594 0.0
H1840 H 0.34884 0.27125 0.54746 0.0
H1841 H 0.35994 0.25063 0.56266 0.0
H1842 H 0.3075 0.22355 0.56836 0.0
H1843 H 0.29638 0.24437 0.5533 0.0
C1844 C 0.36386 0.20643 0.58119 0.0
C1845 C 0.35476 0.20089 0.5961 0.0
C1846 C 0.35724 0.21745 0.57156 0.0
C1847 C 0.34139 0.22323 0.57665 0.0
C1848 C 0.33223 0.21756 0.59149 0.0
C1849 C 0.33883 0.2065 0.60108 0.0
C1850 C 0.33971 0.26076 0.55174 0.0
C1851 C 0.32173 0.25944 0.54917 0.0
C1852 C 0.34607 0.24892 0.56046 0.0
C1853 C 0.33462 0.23543 0.56677 0.0
C1854 C 0.31666 0.23395 0.56393 0.0
C1855 C 0.31028 0.24584 0.55526 0.0
H1856 H 0.35478 0.81668 0.66439 0.0
H1857 H 0.37774 0.84741 0.62467 0.0
H1858 H 0.33777 0.79703 0.64205 0.0
H1859 H 0.36086 0.82739 0.60224 0.0
H1860 H 0.33859 0.77269 0.56926 0.0
H1861 H 0.35745 0.79338 0.58939 0.0
H1862 H 0.31266 0.803 0.6221 0.0
H1863 H 0.29364 0.78309 0.6017 0.0
C1864 C 0.35644 0.8191 0.65086 0.0
C1865 C 0.36757 0.83366 0.64632 0.0
C1866 C 0.3466 0.8079 0.63811 0.0
C1867 C 0.34792 0.81083 0.6205 0.0
C1868 C 0.35963 0.8249 0.61576 0.0
C1869 C 0.36925 0.83632 0.62859 0.0
C1870 C 0.33266 0.77951 0.58049 0.0
C1871 C 0.31455 0.77602 0.58391 0.0
C1872 C 0.34351 0.79126 0.59205 0.0
C1873 C 0.3365 0.79953 0.60738 0.0
C1874 C 0.3184 0.79653 0.61051 0.0
C1875 C 0.30754 0.78507 0.59884 0.0
H1876 H 0.68944 0.83236 0.5827 0.0
H1877 H 0.71282 0.83292 0.63255 0.0
H1878 H 0.71065 0.81533 0.56826 0.0
H1879 H 0.73473 0.81715 0.61821 0.0
H1880 H 0.76637 0.77961 0.59273 0.0
H1881 H 0.74137 0.79167 0.60512 0.0
H1882 H 0.73925 0.81633 0.55883 0.0
H1883 H 0.76296 0.80246 0.54549 0.0
C1884 C 0.69919 0.82889 0.59053 0.0
C1885 C 0.69946 0.83386 0.60873 0.0
C1886 C 0.71146 0.81924 0.58226 0.0
C1887 C 0.72453 0.81474 0.59198 0.0
C1888 C 0.72468 0.81984 0.61024 0.0
C1889 C 0.71217 0.82906 0.61851 0.0
C1890 C 0.76029 0.78712 0.58486 0.0
C1891 C 0.76692 0.79005 0.56804 0.0
C1892 C 0.74608 0.79443 0.59221 0.0
C1893 C 0.73837 0.80537 0.58323 0.0
C1894 C 0.74466 0.80793 0.5662 0.0
C1895 C 0.75858 0.8002 0.55864 0.0
H1896 H 0.73109 0.82897 0.42166 0.0
H1897 H 0.728 0.86196 0.47073 0.0
H1898 H 0.75242 0.81502 0.43395 0.0
H1899 H 0.74878 0.84761 0.48327 0.0
H1900 H 0.77754 0.7824 0.46656 0.0
H1901 H 0.75594 0.79611 0.45424 0.0
H1902 H 0.77859 0.84492 0.48216 0.0
H1903 H 0.79976 0.83107 0.49479 0.0
C1904 C 0.73487 0.83316 0.43512 0.0
C1905 C 0.72789 0.84662 0.44519 0.0
C1906 C 0.74703 0.82507 0.44222 0.0
C1907 C 0.75238 0.83015 0.45963 0.0
C1908 C 0.74524 0.84354 0.46973 0.0
C1909 C 0.73322 0.85172 0.46257 0.0
C1910 C 0.77787 0.79606 0.47 0.0
C1911 C 0.79027 0.80565 0.4817 0.0
C1912 C 0.76555 0.80395 0.4629 0.0
C1913 C 0.76545 0.82166 0.4672 0.0
C1914 C 0.77799 0.83122 0.47881 0.0
C1915 C 0.79018 0.8233 0.48603 0.0
H1916 H 0.72501 0.17299 0.42316 0.0
H1917 H 0.68517 0.20513 0.43272 0.0
H1918 H 0.74174 0.19004 0.44703 0.0
H1919 H 0.70162 0.222 0.45726 0.0
H1920 H 0.74659 0.2596 0.48573 0.0
H1921 H 0.72666 0.24221 0.46448 0.0
H1922 H 0.74354 0.19656 0.47727 0.0
H1923 H 0.76451 0.214 0.49728 0.0
C1924 C 0.71974 0.18365 0.43051 0.0
C1925 C 0.70385 0.18782 0.42593 0.0
C1926 C 0.72927 0.19338 0.44437 0.0
C1927 C 0.72304 0.20739 0.45431 0.0
C1928 C 0.707 0.21147 0.4498 0.0
C1929 C 0.69755 0.20183 0.4357 0.0
C1930 C 0.74609 0.24585 0.484 0.0
C1931 C 0.7575 0.23832 0.49306 0.0
C1932 C 0.73444 0.23581 0.47193 0.0
C1933 C 0.73367 0.21793 0.4688 0.0
C1934 C 0.7441 0.21032 0.47888 0.0
C1935 C 0.75595 0.22036 0.4907 0.0
H1936 H 0.3731 0.21229 0.38425 0.0
H1937 H 0.33842 0.23563 0.35646 0.0
H1938 H 0.35813 0.22089 0.41197 0.0
H1939 H 0.32348 0.24413 0.384 0.0
H1940 H 0.34767 0.26968 0.45206 0.0
H1941 H 0.3583 0.25143 0.42741 0.0
H1942 H 0.30555 0.23396 0.41025 0.0
H1943 H 0.29469 0.25181 0.43536 0.0
C1944 C 0.36192 0.21873 0.384 0.0
C1945 C 0.35688 0.22331 0.36825 0.0
C1946 C 0.35346 0.22377 0.39985 0.0
C1947 C 0.33967 0.2332 0.40012 0.0
C1948 C 0.33393 0.23672 0.38419 0.0
C1949 C 0.34255 0.23195 0.36844 0.0
C1950 C 0.33821 0.26152 0.44345 0.0
C1951 C 0.32029 0.26241 0.44564 0.0
C1952 C 0.34435 0.25105 0.42928 0.0
C1953 C 0.33276 0.24136 0.41687 0.0
C1954 C 0.31478 0.24144 0.41955 0.0
C1955 C 0.3086 0.25176 0.43386 0.0
H1956 H 0.31816 0.83314 0.41353 0.0
H1957 H 0.36367 0.84661 0.44578 0.0
H1958 H 0.30317 0.81659 0.43562 0.0
H1959 H 0.34852 0.83034 0.46806 0.0
H1960 H 0.3259 0.77781 0.48656 0.0
H1961 H 0.34003 0.80004 0.46969 0.0
H1962 H 0.29049 0.81661 0.46502 0.0
H1963 H 0.27629 0.79423 0.48193 0.0
C1964 C 0.32486 0.83286 0.42549 0.0
C1965 C 0.3422 0.84103 0.42778 0.0
C1966 C 0.31621 0.82344 0.43822 0.0
C1967 C 0.3247 0.822 0.45357 0.0
C1968 C 0.34172 0.83094 0.45626 0.0
C1969 C 0.35037 0.84035 0.44352 0.0
C1970 C 0.31808 0.78648 0.48236 0.0
C1971 C 0.29995 0.78419 0.48552 0.0
C1972 C 0.32619 0.79925 0.47265 0.0
C1973 C 0.31638 0.81005 0.46587 0.0
C1974 C 0.29838 0.80832 0.46979 0.0
C1975 C 0.29026 0.79553 0.47951 0.0
H1976 H 0.61623 0.18659 0.72506 0.0
H1977 H 0.59567 0.19821 0.67773 0.0
H1978 H 0.59329 0.19918 0.74233 0.0
H1979 H 0.57267 0.21058 0.69496 0.0
H1980 H 0.55403 0.25384 0.73451 0.0
H1981 H 0.57244 0.23679 0.71552 0.0
H1982 H 0.56149 0.19684 0.74885 0.0
H1983 H 0.54321 0.21414 0.76806 0.0
C1984 C 0.60668 0.19159 0.7183 0.0
C1985 C 0.60792 0.19154 0.70002 0.0
C1986 C 0.59346 0.19872 0.7282 0.0
C1987 C 0.58121 0.20601 0.72004 0.0
C1988 C 0.58205 0.20531 0.70168 0.0
C1989 C 0.59521 0.19815 0.6918 0.0
C1990 C 0.55536 0.24131 0.73763 0.0
C1991 C 0.54723 0.23534 0.75278 0.0
C1992 C 0.56583 0.23148 0.7267 0.0
C1993 C 0.56851 0.21547 0.7307 0.0
C1994 C 0.55982 0.20919 0.7455 0.0
C1995 C 0.5492 0.219 0.75639 0.0
H1996 H 0.33197 0.1291 0.73148 0.0
H1997 H 0.37676 0.10307 0.72318 0.0
H1998 H 0.31947 0.10969 0.7521 0.0
H1999 H 0.364 0.08331 0.74358 0.0
H2000 H 0.34386 0.06476 0.79653 0.0
H2001 H 0.35712 0.08248 0.77452 0.0
H2002 H 0.30642 0.08032 0.75284 0.0
H2003 H 0.29318 0.06279 0.77497 0.0
C2004 C 0.33913 0.11918 0.73399 0.0
C2005 C 0.35538 0.11765 0.72567 0.0
C2006 C 0.33188 0.10794 0.74573 0.0
C2007 C 0.34065 0.09483 0.74941 0.0
C2008 C 0.35696 0.09335 0.74116 0.0
C2009 C 0.36425 0.10464 0.72942 0.0
C2010 C 0.3356 0.06784 0.78687 0.0
C2011 C 0.31746 0.06247 0.78755 0.0
C2012 C 0.3432 0.07801 0.77426 0.0
C2013 C 0.33282 0.08298 0.76201 0.0
C2014 C 0.31475 0.07705 0.76231 0.0
C2015 C 0.30716 0.06696 0.77495 0.0
H2016 H 0.40578 0.825 0.74145 0.0
H2017 H 0.44795 0.86054 0.72211 0.0
H2018 H 0.42612 0.81558 0.75982 0.0
H2019 H 0.46826 0.85117 0.74063 0.0
H2020 H 0.49019 0.84531 0.79504 0.0
H2021 H 0.47209 0.85351 0.77369 0.0
H2022 H 0.45261 0.80027 0.7567 0.0
H2023 H 0.47119 0.79191 0.7776 0.0
C2024 C 0.4194 0.83074 0.74105 0.0
C2025 C 0.42524 0.84354 0.73035 0.0
C2026 C 0.43106 0.82527 0.7515 0.0
C2027 C 0.44877 0.83265 0.75167 0.0
C2028 C 0.45466 0.84534 0.74085 0.0
C2029 C 0.44304 0.85063 0.73019 0.0
C2030 C 0.4824 0.83528 0.7865 0.0
C2031 C 0.48216 0.81791 0.78817 0.0
C2032 C 0.47196 0.84002 0.7743 0.0
C2033 C 0.46086 0.82753 0.7636 0.0
C2034 C 0.46087 0.81018 0.76495 0.0
C2035 C 0.47148 0.80542 0.77698 0.0
H2036 H 0.72533 0.88801 0.67814 0.0
H2037 H 0.69549 0.92399 0.66195 0.0
H2038 H 0.74313 0.91126 0.69623 0.0
H2039 H 0.7134 0.94736 0.68017 0.0
H2040 H 0.77652 0.95708 0.72422 0.0
H2041 H 0.76412 0.93903 0.69809 0.0
H2042 H 0.71345 0.95239 0.7132 0.0
H2043 H 0.72552 0.96986 0.73943 0.0
C2044 C 0.72285 0.90096 0.67812 0.0
C2045 C 0.70886 0.90415 0.66883 0.0
C2046 C 0.73314 0.91431 0.68839 0.0
C2047 C 0.72954 0.9311 0.68973 0.0
C2048 C 0.71634 0.93449 0.67947 0.0
C2049 C 0.70616 0.92114 0.66899 0.0
C2050 C 0.76276 0.95627 0.7219 0.0
C2051 C 0.75202 0.96482 0.73408 0.0
C2052 C 0.75571 0.94603 0.70688 0.0
C2053 C 0.73782 0.9443 0.70362 0.0
C2054 C 0.72733 0.95368 0.71519 0.0
C2055 C 0.73431 0.96374 0.73027 0.0
H2056 H 0.64244 0.85581 0.3013 0.0
H2057 H 0.60641 0.86195 0.34532 0.0
H2058 H 0.61981 0.83588 0.28499 0.0
H2059 H 0.58377 0.84192 0.32891 0.0
H2060 H 0.54438 0.81143 0.28754 0.0
H2061 H 0.56494 0.83582 0.30125 0.0
H2062 H 0.60677 0.80611 0.29112 0.0
H2063 H 0.58649 0.7818 0.27821 0.0
C2064 C 0.62963 0.85314 0.30742 0.0
C2065 C 0.62633 0.86028 0.32472 0.0
C2066 C 0.61668 0.84168 0.29807 0.0
C2067 C 0.60011 0.83721 0.30577 0.0
C2068 C 0.59641 0.84519 0.32263 0.0
C2069 C 0.60942 0.85658 0.33205 0.0
C2070 C 0.55796 0.81012 0.28827 0.0
C2071 C 0.56377 0.79467 0.28148 0.0
C2072 C 0.56971 0.82409 0.29605 0.0
C2073 C 0.58749 0.82293 0.29699 0.0
C2074 C 0.59324 0.80755 0.29018 0.0
C2075 C 0.58156 0.7936 0.28268 0.0
H2076 H 0.68854 0.08659 0.35506 0.0
H2077 H 0.73328 0.12581 0.35018 0.0
H2078 H 0.70443 0.06527 0.33834 0.0
H2079 H 0.74925 0.10438 0.33398 0.0
H2080 H 0.77564 0.05473 0.32509 0.0
H2081 H 0.75876 0.0745 0.34292 0.0
H2082 H 0.71893 0.06368 0.30395 0.0
H2083 H 0.73608 0.04425 0.28583 0.0
C2084 C 0.7018 0.09061 0.35055 0.0
C2085 C 0.70969 0.10785 0.35388 0.0
C2086 C 0.71082 0.07844 0.34097 0.0
C2087 C 0.72801 0.08325 0.33497 0.0
C2088 C 0.73601 0.1004 0.33856 0.0
C2089 C 0.72686 0.11263 0.34776 0.0
C2090 C 0.76318 0.05644 0.32047 0.0
C2091 C 0.75707 0.04799 0.30417 0.0
C2092 C 0.75361 0.06777 0.33059 0.0
C2093 C 0.7376 0.07053 0.32475 0.0
C2094 C 0.73121 0.06165 0.30872 0.0
C2095 C 0.74099 0.05062 0.29839 0.0
H2096 H 0.43578 0.27308 0.34205 0.0
H2097 H 0.45058 0.22911 0.30939 0.0
H2098 H 0.46619 0.28675 0.34326 0.0
H2099 H 0.48087 0.24317 0.30945 0.0
H2100 H 0.53511 0.27073 0.31014 0.0
H2101 H 0.50804 0.25515 0.32166 0.0
H2102 H 0.48376 0.30033 0.32275 0.0
H2103 H 0.51079 0.31568 0.31214 0.0
C2104 C 0.44562 0.26632 0.33523 0.0
C2105 C 0.44088 0.25021 0.32539 0.0
C2106 C 0.46304 0.27415 0.33583 0.0
C2107 C 0.47602 0.2663 0.32609 0.0
C2108 C 0.47135 0.24962 0.31724 0.0
C2109 C 0.45394 0.24158 0.31706 0.0
C2110 C 0.52409 0.27735 0.31354 0.0
C2111 C 0.52486 0.29431 0.31037 0.0
C2112 C 0.50854 0.26844 0.31991 0.0
C2113 C 0.49356 0.27637 0.323 0.0
C2114 C 0.49495 0.29377 0.32088 0.0
C2115 C 0.51044 0.30262 0.31469 0.0
H2116 H 0.32689 0.89382 0.30727 0.0
H2117 H 0.34219 0.93311 0.35062 0.0
H2118 H 0.31117 0.91327 0.29482 0.0
H2119 H 0.32611 0.95247 0.33827 0.0
H2120 H 0.27391 0.96831 0.31906 0.0
H2121 H 0.29263 0.95192 0.33216 0.0
H2122 H 0.31946 0.94259 0.28234 0.0
H2123 H 0.30145 0.95958 0.26937 0.0
C2124 C 0.32694 0.90662 0.31411 0.0
C2125 C 0.33581 0.91194 0.3299 0.0
C2126 C 0.318 0.91777 0.30695 0.0
C2127 C 0.31744 0.93436 0.3156 0.0
C2128 C 0.32629 0.93972 0.33139 0.0
C2129 C 0.33556 0.92867 0.33838 0.0
C2130 C 0.28406 0.96315 0.31097 0.0
C2131 C 0.28595 0.96513 0.29305 0.0
C2132 C 0.29473 0.95368 0.31848 0.0
C2133 C 0.30733 0.94583 0.30819 0.0
C2134 C 0.30965 0.94828 0.29049 0.0
C2135 C 0.29923 0.95795 0.28306 0.0
H2136 H 0.69824 0.12556 0.73558 0.0
H2137 H 0.70842 0.09879 0.68443 0.0
H2138 H 0.71128 0.10497 0.74929 0.0
H2139 H 0.72178 0.07837 0.69821 0.0
H2140 H 0.76469 0.06334 0.73314 0.0
H2141 H 0.74956 0.08089 0.71721 0.0
H2142 H 0.70446 0.07212 0.75158 0.0
H2143 H 0.7195 0.05436 0.76733 0.0
C2144 C 0.70329 0.11531 0.72726 0.0
C2145 C 0.70232 0.11382 0.70892 0.0
C2146 C 0.71064 0.10346 0.73512 0.0
C2147 C 0.71747 0.09004 0.7248 0.0
C2148 C 0.71663 0.0886 0.70646 0.0
C2149 C 0.70896 0.10027 0.6986 0.0
C2150 C 0.75142 0.06491 0.73704 0.0
C2151 C 0.74322 0.05745 0.7514 0.0
C2152 C 0.74277 0.07492 0.72793 0.0
C2153 C 0.72589 0.07795 0.73324 0.0
C2154 C 0.71751 0.07008 0.74729 0.0
C2155 C 0.72603 0.0598 0.75618 0.0
H2156 H 0.6806 0.90976 0.36682 0.0
H2157 H 0.73034 0.90267 0.38491 0.0
H2158 H 0.69561 0.92705 0.34518 0.0
H2159 H 0.74524 0.92019 0.36365 0.0
H2160 H 0.73199 0.93855 0.2959 0.0
H2161 H 0.71463 0.92333 0.31793 0.0
H2162 H 0.74982 0.95028 0.35799 0.0
H2163 H 0.76735 0.96511 0.33602 0.0
C2164 C 0.69467 0.9116 0.36602 0.0
C2165 C 0.70422 0.90448 0.37739 0.0
C2166 C 0.70328 0.92166 0.35372 0.0
C2167 C 0.7216 0.92502 0.35274 0.0
C2168 C 0.73111 0.91806 0.36423 0.0
C2169 C 0.72254 0.90794 0.37639 0.0
C2170 C 0.73592 0.9413 0.30944 0.0
C2171 C 0.75109 0.95299 0.31419 0.0
C2172 C 0.72591 0.93269 0.32206 0.0
C2173 C 0.73096 0.93549 0.33965 0.0
C2174 C 0.74573 0.94768 0.34449 0.0
C2175 C 0.75566 0.95633 0.33193 0.0
H2176 H 0.68765 0.24646 0.34702 0.0
H2177 H 0.6447 0.24717 0.38467 0.0
H2178 H 0.67478 0.26475 0.33027 0.0
H2179 H 0.63188 0.26568 0.36791 0.0
H2180 H 0.60529 0.28136 0.32116 0.0
H2181 H 0.61801 0.26388 0.33916 0.0
H2182 H 0.66869 0.29418 0.33258 0.0
H2183 H 0.65601 0.31176 0.31482 0.0
C2184 C 0.67551 0.25061 0.3518 0.0
C2185 C 0.66721 0.24533 0.3672 0.0
C2186 C 0.66817 0.26117 0.34222 0.0
C2187 C 0.65229 0.26666 0.34774 0.0
C2188 C 0.64403 0.26151 0.36321 0.0
C2189 C 0.65144 0.25101 0.37288 0.0
C2190 C 0.61912 0.28439 0.32368 0.0
C2191 C 0.62963 0.29789 0.3164 0.0
C2192 C 0.6264 0.27438 0.33401 0.0
C2193 C 0.64438 0.2776 0.33725 0.0
C2194 C 0.65485 0.29118 0.33009 0.0
C2195 C 0.64758 0.30122 0.31985 0.0
H2196 H 0.36106 0.12856 0.34043 0.0
H2197 H 0.31356 0.13713 0.36926 0.0
H2198 H 0.34591 0.10151 0.32567 0.0
H2199 H 0.29843 0.11023 0.35437 0.0
H2200 H 0.27629 0.0573 0.33086 0.0
H2201 H 0.29582 0.0788 0.34941 0.0
H2202 H 0.3233 0.0955 0.30321 0.0
H2203 H 0.30406 0.07372 0.28471 0.0
C2204 C 0.34747 0.12455 0.34385 0.0
C2205 C 0.33845 0.13511 0.35587 0.0
C2206 C 0.33879 0.10909 0.33532 0.0
C2207 C 0.32095 0.10382 0.33872 0.0
C2208 C 0.31222 0.11386 0.35155 0.0
C2209 C 0.32087 0.12934 0.36002 0.0
C2210 C 0.28681 0.06524 0.32469 0.0
C2211 C 0.28859 0.0639 0.30632 0.0
C2212 C 0.29788 0.07766 0.33531 0.0
C2213 C 0.311 0.08893 0.32778 0.0
C2214 C 0.31341 0.08692 0.30944 0.0
C2215 C 0.3023 0.07456 0.29882 0.0
H2216 H 0.40927 0.86055 0.31522 0.0
H2217 H 0.40071 0.82331 0.35171 0.0
H2218 H 0.43135 0.84521 0.29949 0.0
H2219 H 0.42198 0.80783 0.33585 0.0
H2220 H 0.46867 0.78785 0.3139 0.0
H2221 H 0.45176 0.80819 0.32973 0.0
H2222 H 0.43442 0.81935 0.28071 0.0
H2223 H 0.45255 0.79997 0.26474 0.0
C2224 C 0.41209 0.84914 0.31989 0.0
C2225 C 0.40323 0.84323 0.33478 0.0
C2226 C 0.42468 0.84028 0.31083 0.0
C2227 C 0.42862 0.8253 0.31643 0.0
C2228 C 0.41972 0.81952 0.33134 0.0
C2229 C 0.40733 0.82838 0.3404 0.0
C2230 C 0.46173 0.79498 0.30639 0.0
C2231 C 0.4619 0.792 0.28795 0.0
C2232 C 0.45173 0.80649 0.31554 0.0
C2233 C 0.44132 0.81516 0.30656 0.0
C2234 C 0.44222 0.81293 0.28812 0.0
C2235 C 0.45245 0.80158 0.27894 0.0
H2236 H 0.33511 0.8924 0.72426 0.0
H2237 H 0.37983 0.93134 0.71809 0.0
H2238 H 0.32219 0.91237 0.74556 0.0
H2239 H 0.36664 0.95156 0.73927 0.0
H2240 H 0.34504 0.97486 0.79323 0.0
H2241 H 0.35904 0.95693 0.77041 0.0
H2242 H 0.309 0.93781 0.74693 0.0
H2243 H 0.29504 0.95558 0.76984 0.0
C2244 C 0.34218 0.90526 0.7274 0.0
C2245 C 0.35851 0.91027 0.71944 0.0
C2246 C 0.33469 0.91677 0.73953 0.0
C2247 C 0.34329 0.93364 0.744 0.0
C2248 C 0.35972 0.93863 0.73619 0.0
C2249 C 0.36725 0.92707 0.72403 0.0
C2250 C 0.3371 0.96706 0.783 0.0
C2251 C 0.31892 0.96653 0.78339 0.0
C2252 C 0.34511 0.95677 0.76993 0.0
C2253 C 0.33511 0.94576 0.75697 0.0
C2254 C 0.31703 0.94584 0.75695 0.0
C2255 C 0.30903 0.95606 0.77003 0.0
H2256 H 0.62423 0.82486 0.6941 0.0
H2257 H 0.64292 0.87155 0.72791 0.0
H2258 H 0.60386 0.81559 0.71739 0.0
H2259 H 0.62304 0.86216 0.75114 0.0
H2260 H 0.57659 0.8487 0.78542 0.0
H2261 H 0.59276 0.85722 0.75946 0.0
H2262 H 0.60457 0.80596 0.74594 0.0
H2263 H 0.58752 0.79715 0.77149 0.0
C2264 C 0.62396 0.83315 0.70646 0.0
C2265 C 0.63519 0.84893 0.70915 0.0
C2266 C 0.61237 0.8278 0.71982 0.0
C2267 C 0.61178 0.83815 0.73612 0.0
C2268 C 0.6229 0.854 0.73866 0.0
C2269 C 0.63442 0.85934 0.72535 0.0
C2270 C 0.58226 0.83911 0.77671 0.0
C2271 C 0.58079 0.82224 0.7806 0.0
C2272 C 0.59175 0.84407 0.76193 0.0
C2273 C 0.60015 0.83233 0.75072 0.0
C2274 C 0.59818 0.8153 0.75424 0.0
C2275 C 0.58859 0.81031 0.76901 0.0
H2276 H 0.41541 0.1651 0.6854 0.0
H2277 H 0.3933 0.20953 0.6777 0.0
H2278 H 0.43214 0.1817 0.70977 0.0
H2279 H 0.40921 0.22601 0.70258 0.0
H2280 H 0.45189 0.25657 0.73669 0.0
H2281 H 0.43648 0.23946 0.71175 0.0
H2282 H 0.43128 0.19466 0.73861 0.0
H2283 H 0.44764 0.21175 0.763 0.0
C2284 C 0.41385 0.17834 0.6892 0.0
C2285 C 0.40298 0.18601 0.67979 0.0
C2286 C 0.42344 0.1879 0.70319 0.0
C2287 C 0.42214 0.2053 0.70825 0.0
C2288 C 0.41095 0.21281 0.69891 0.0
C2289 C 0.40167 0.20333 0.68472 0.0
C2290 C 0.44752 0.24303 0.73711 0.0
C2291 C 0.45094 0.23543 0.75167 0.0
C2292 C 0.43853 0.23321 0.72291 0.0
C2293 C 0.4324 0.21561 0.72311 0.0
C2294 C 0.43599 0.20806 0.73775 0.0
C2295 C 0.4453 0.21784 0.75179 0.0
H2296 H 0.72762 0.66806 0.13318 0.0
H2297 H 0.69572 0.70745 0.14774 0.0
H2298 H 0.74289 0.68466 0.11102 0.0
H2299 H 0.71128 0.72422 0.12646 0.0
H2300 H 0.73152 0.74775 0.08004 0.0
H2301 H 0.71532 0.72669 0.09686 0.0
H2302 H 0.76319 0.70941 0.10721 0.0
H2303 H 0.77928 0.72948 0.08894 0.0
C2304 C 0.72391 0.68026 0.1317 0.0
C2305 C 0.71038 0.68636 0.14219 0.0
C2306 C 0.73271 0.68983 0.11904 0.0
C2307 C 0.72828 0.70579 0.11673 0.0
C2308 C 0.7148 0.71183 0.12737 0.0
C2309 C 0.70593 0.70222 0.13978 0.0
C2310 C 0.73862 0.73913 0.08535 0.0
C2311 C 0.75686 0.74059 0.08319 0.0
C2312 C 0.7293 0.7272 0.09537 0.0
C2313 C 0.73793 0.71658 0.10389 0.0
C2314 C 0.75602 0.71734 0.10093 0.0
C2315 C 0.76533 0.72908 0.09062 0.0
H2316 H 0.33462 0.68321 0.10885 0.0
H2317 H 0.37254 0.70832 0.0741 0.0
H2318 H 0.31187 0.69597 0.0974 0.0
H2319 H 0.3497 0.72075 0.06233 0.0
H2320 H 0.27255 0.7059 0.05949 0.0
H2321 H 0.29562 0.69375 0.0711 0.0
H2322 H 0.33053 0.74169 0.07006 0.0
H2323 H 0.30766 0.7536 0.05767 0.0
C2324 C 0.3381 0.69141 0.09872 0.0
C2325 C 0.3554 0.69473 0.09238 0.0
C2326 C 0.32503 0.69865 0.09208 0.0
C2327 C 0.32893 0.70934 0.07889 0.0
C2328 C 0.34627 0.71275 0.07264 0.0
C2329 C 0.35935 0.70554 0.07932 0.0
C2330 C 0.2852 0.7138 0.06156 0.0
C2331 C 0.28825 0.73072 0.05762 0.0
C2332 C 0.29837 0.70689 0.06843 0.0
C2333 C 0.31493 0.71675 0.07158 0.0
C2334 C 0.31799 0.73368 0.06764 0.0
C2335 C 0.3048 0.74058 0.06073 0.0
H2336 H 0.39981 0.31206 0.15022 0.0
H2337 H 0.38681 0.3571 0.13212 0.0
H2338 H 0.37527 0.29439 0.13407 0.0
H2339 H 0.36258 0.33936 0.11565 0.0
H2340 H 0.33686 0.29469 0.07259 0.0
H2341 H 0.36169 0.31163 0.08852 0.0
H2342 H 0.33922 0.29578 0.13701 0.0
H2343 H 0.31377 0.27981 0.12154 0.0
C2344 C 0.39173 0.31815 0.14276 0.0
C2345 C 0.39506 0.33596 0.14256 0.0
C2346 C 0.37772 0.30807 0.13358 0.0
C2347 C 0.36713 0.31556 0.12364 0.0
C2348 C 0.37062 0.33332 0.1232 0.0
C2349 C 0.38435 0.34346 0.13273 0.0
C2350 C 0.33701 0.29491 0.08667 0.0
C2351 C 0.32311 0.2858 0.09567 0.0
C2352 C 0.35132 0.30454 0.09573 0.0
C2353 C 0.3523 0.30495 0.11393 0.0
C2354 C 0.3388 0.29552 0.12293 0.0
C2355 C 0.32428 0.28622 0.11396 0.0
H2356 H 0.76416 0.36441 0.06644 0.0
H2357 H 0.71942 0.34854 0.09921 0.0
H2358 H 0.76823 0.33458 0.05888 0.0
H2359 H 0.72352 0.31873 0.0916 0.0
H2360 H 0.74709 0.26897 0.08644 0.0
H2361 H 0.74503 0.29918 0.09555 0.0
H2362 H 0.7513 0.30853 0.04153 0.0
H2363 H 0.75355 0.27843 0.03246 0.0
C2364 C 0.75526 0.35458 0.07212 0.0
C2365 C 0.74141 0.35882 0.08336 0.0
C2366 C 0.75755 0.33751 0.06771 0.0
C2367 C 0.74615 0.32435 0.07461 0.0
C2368 C 0.73258 0.32863 0.0862 0.0
C2369 C 0.73018 0.34568 0.09047 0.0
C2370 C 0.74818 0.27754 0.07656 0.0
C2371 C 0.75045 0.27138 0.05875 0.0
C2372 C 0.74687 0.29477 0.08175 0.0
C2373 C 0.74802 0.30619 0.06925 0.0
C2374 C 0.75054 0.30006 0.05147 0.0
C2375 C 0.75166 0.28282 0.04626 0.0
H2376 H 0.69361 0.33565 0.96941 0.0
H2377 H 0.7084 0.31591 0.91673 0.0
H2378 H 0.7038 0.3118 0.98057 0.0
H2379 H 0.71902 0.29239 0.92801 0.0
H2380 H 0.70388 0.2521 0.98389 0.0
H2381 H 0.69376 0.27652 0.974 0.0
H2382 H 0.74467 0.29198 0.95133 0.0
H2383 H 0.75527 0.2684 0.96208 0.0
C2384 C 0.69917 0.32631 0.96025 0.0
C2385 C 0.70023 0.32764 0.9422 0.0
C2386 C 0.70488 0.31265 0.96663 0.0
C2387 C 0.71214 0.30032 0.95512 0.0
C2388 C 0.71349 0.30179 0.93713 0.0
C2389 C 0.7074 0.31521 0.93069 0.0
C2390 C 0.71306 0.26084 0.97709 0.0
C2391 C 0.73041 0.25806 0.9737 0.0
C2392 C 0.7072 0.27476 0.97135 0.0
C2393 C 0.71844 0.28598 0.96182 0.0
C2394 C 0.73572 0.28334 0.95847 0.0
C2395 C 0.7417 0.2697 0.96452 0.0
H2396 H 0.67871 0.71513 0.91778 0.0
H2397 H 0.70212 0.67436 0.93356 0.0
H2398 H 0.69428 0.73526 0.94051 0.0
H2399 H 0.71828 0.69464 0.95581 0.0
H2400 H 0.74316 0.769 0.96456 0.0
H2401 H 0.72369 0.7488 0.94506 0.0
H2402 H 0.71715 0.71313 0.98315 0.0
H2403 H 0.73743 0.7332 0.00244 0.0
C2404 C 0.68695 0.71035 0.92617 0.0
C2405 C 0.68904 0.69304 0.92375 0.0
C2406 C 0.69609 0.72198 0.93914 0.0
C2407 C 0.70767 0.71663 0.94996 0.0
C2408 C 0.70935 0.69922 0.9479 0.0
C2409 C 0.70016 0.68759 0.93499 0.0
C2410 C 0.73769 0.7568 0.96875 0.0
C2411 C 0.7421 0.7526 0.98495 0.0
C2412 C 0.72627 0.74529 0.95766 0.0
C2413 C 0.71882 0.72929 0.96248 0.0
C2414 C 0.72282 0.72526 0.97892 0.0
C2415 C 0.73432 0.73681 0.99005 0.0
H2416 H 0.36603 0.70959 0.92356 0.0
H2417 H 0.34823 0.66149 0.94327 0.0
H2418 H 0.33867 0.71948 0.93389 0.0
H2419 H 0.32103 0.67162 0.95401 0.0
H2420 H 0.29323 0.71375 0.99188 0.0
H2421 H 0.31785 0.70076 0.97891 0.0
H2422 H 0.30279 0.70699 0.92733 0.0
H2423 H 0.27731 0.71893 0.94 0.0
C2424 C 0.35621 0.70112 0.93 0.0
C2425 C 0.35915 0.68475 0.93255 0.0
C2426 C 0.34058 0.70674 0.93581 0.0
C2427 C 0.32784 0.69626 0.94466 0.0
C2428 C 0.3307 0.67986 0.94714 0.0
C2429 C 0.34616 0.67406 0.94094 0.0
C2430 C 0.29477 0.71197 0.97773 0.0
C2431 C 0.2831 0.7174 0.96704 0.0
C2432 C 0.30897 0.70462 0.97036 0.0
C2433 C 0.3121 0.7029 0.95218 0.0
C2434 C 0.3006 0.70827 0.94141 0.0
C2435 C 0.28612 0.71526 0.94873 0.0
H2436 H 0.34744 0.33647 0.92715 0.0
H2437 H 0.38451 0.3024 0.9308 0.0
H2438 H 0.33041 0.3251 0.95148 0.0
H2439 H 0.36752 0.29116 0.95535 0.0
H2440 H 0.31845 0.26066 0.98077 0.0
H2441 H 0.33913 0.2734 0.95961 0.0
H2442 H 0.33085 0.32384 0.98311 0.0
H2443 H 0.30982 0.31103 0.00403 0.0
C2444 C 0.35204 0.32663 0.93321 0.0
C2445 C 0.36731 0.32029 0.92693 0.0
C2446 C 0.34234 0.32021 0.94728 0.0
C2447 C 0.34761 0.30724 0.95541 0.0
C2448 C 0.36302 0.30105 0.94929 0.0
C2449 C 0.37278 0.30754 0.93525 0.0
C2450 C 0.3212 0.27448 0.98153 0.0
C2451 C 0.3124 0.28483 0.99399 0.0
C2452 C 0.33315 0.28179 0.96948 0.0
C2453 C 0.33653 0.29964 0.96955 0.0
C2454 C 0.32835 0.31004 0.98255 0.0
C2455 C 0.31646 0.30271 0.99467 0.0
H2456 H 0.63405 0.7253 0.1948 0.0
H2457 H 0.61164 0.67555 0.20856 0.0
H2458 H 0.60877 0.73695 0.20744 0.0
H2459 H 0.58575 0.68715 0.22079 0.0
H2460 H 0.55581 0.72198 0.26162 0.0
H2461 H 0.57664 0.7057 0.2452 0.0
H2462 H 0.57913 0.73786 0.20406 0.0
H2463 H 0.55898 0.75456 0.22103 0.0
C2464 C 0.6236 0.71676 0.20035 0.0
C2465 C 0.62492 0.69949 0.2007 0.0
C2466 C 0.60893 0.72343 0.20747 0.0
C2467 C 0.59501 0.71299 0.215 0.0
C2468 C 0.59624 0.69562 0.21522 0.0
C2469 C 0.61106 0.68895 0.20818 0.0
C2470 C 0.56045 0.72517 0.24881 0.0
C2471 C 0.55587 0.73949 0.24256 0.0
C2472 C 0.57242 0.71588 0.23938 0.0
C2473 C 0.57992 0.72066 0.22343 0.0
C2474 C 0.57406 0.7341 0.21652 0.0
C2475 C 0.56233 0.74354 0.22608 0.0
H2476 H 0.34086 0.63241 0.21228 0.0
H2477 H 0.38261 0.6023 0.20453 0.0
H2478 H 0.32489 0.61209 0.23039 0.0
H2479 H 0.36657 0.58196 0.22286 0.0
H2480 H 0.32206 0.54068 0.2413 0.0
H2481 H 0.3391 0.56028 0.22275 0.0
H2482 H 0.32808 0.6034 0.25944 0.0
H2483 H 0.31137 0.584 0.27799 0.0
C2484 C 0.34667 0.62147 0.21447 0.0
C2485 C 0.36305 0.61902 0.207 0.0
C2486 C 0.33753 0.60986 0.22492 0.0
C2487 C 0.3445 0.59545 0.22811 0.0
C2488 C 0.36081 0.59287 0.22053 0.0
C2489 C 0.37004 0.60459 0.21013 0.0
C2490 C 0.3234 0.55435 0.24544 0.0
C2491 C 0.31512 0.56076 0.261 0.0
C2492 C 0.33316 0.56555 0.23483 0.0
C2493 C 0.33478 0.58339 0.23955 0.0
C2494 C 0.32677 0.58975 0.25525 0.0
C2495 C 0.31713 0.5786 0.26585 0.0
H2496 H 0.46581 0.32446 0.211 0.0
H2497 H 0.50679 0.35504 0.18403 0.0
H2498 H 0.48755 0.31587 0.22835 0.0
H2499 H 0.52859 0.34672 0.20181 0.0
H2500 H 0.54983 0.34629 0.26068 0.0
H2501 H 0.53368 0.35282 0.2366 0.0
H2502 H 0.51426 0.29903 0.22294 0.0
H2503 H 0.53081 0.29239 0.24656 0.0
C2504 C 0.47948 0.32922 0.20869 0.0
C2505 C 0.4846 0.34041 0.19616 0.0
C2506 C 0.49192 0.32425 0.21855 0.0
C2507 C 0.50974 0.3306 0.21636 0.0
C2508 C 0.51494 0.34164 0.20371 0.0
C2509 C 0.50248 0.34632 0.19352 0.0
C2510 C 0.5427 0.3358 0.25211 0.0
C2511 C 0.54139 0.31884 0.25572 0.0
C2512 C 0.53338 0.33956 0.23838 0.0
C2513 C 0.52251 0.32643 0.22815 0.0
C2514 C 0.52236 0.30939 0.23081 0.0
C2515 C 0.53183 0.30562 0.24433 0.0
H2516 H 0.74039 0.45141 0.14593 0.0
H2517 H 0.74786 0.40459 0.16449 0.0
H2518 H 0.74999 0.46757 0.17396 0.0
H2519 H 0.75719 0.42073 0.19268 0.0
H2520 H 0.79188 0.4903 0.2149 0.0
H2521 H 0.77836 0.47445 0.18853 0.0
H2522 H 0.74721 0.43894 0.21945 0.0
H2523 H 0.76052 0.45513 0.24616 0.0
C2524 C 0.74391 0.44454 0.15607 0.0
C2525 C 0.74309 0.42668 0.15309 0.0
C2526 C 0.74942 0.4538 0.17211 0.0
C2527 C 0.75431 0.44541 0.18553 0.0
C2528 C 0.75318 0.4275 0.1827 0.0
C2529 C 0.74772 0.41823 0.16659 0.0
C2530 C 0.78184 0.47939 0.21623 0.0
C2531 C 0.7772 0.47411 0.23273 0.0
C2532 C 0.77414 0.47024 0.20105 0.0
C2533 C 0.76169 0.45548 0.20192 0.0
C2534 C 0.75688 0.45021 0.21838 0.0
C2535 C 0.76451 0.45947 0.23365 0.0
H2536 H 0.63429 0.34329 0.80449 0.0
H2537 H 0.60188 0.36113 0.84798 0.0
H2538 H 0.60898 0.32461 0.7914 0.0
H2539 H 0.57644 0.34262 0.83468 0.0
H2540 H 0.54536 0.28756 0.8189 0.0
H2541 H 0.56683 0.31178 0.83051 0.0
H2542 H 0.58099 0.32266 0.77782 0.0
H2543 H 0.55948 0.29831 0.7662 0.0
C2544 C 0.62171 0.34346 0.81111 0.0
C2545 C 0.62016 0.35356 0.82738 0.0
C2546 C 0.60715 0.33282 0.80354 0.0
C2547 C 0.59068 0.33204 0.81204 0.0
C2548 C 0.58898 0.34274 0.82792 0.0
C2549 C 0.60356 0.35341 0.83549 0.0
C2550 C 0.55269 0.2954 0.80982 0.0
C2551 C 0.55083 0.29092 0.79163 0.0
C2552 C 0.56504 0.3093 0.81647 0.0
C2553 C 0.57578 0.31905 0.80508 0.0
C2554 C 0.57316 0.3152 0.78693 0.0
C2555 C 0.56082 0.3013 0.78028 0.0
H2556 H 0.68225 0.58807 0.85891 0.0
H2557 H 0.72651 0.62767 0.85349 0.0
H2558 H 0.69909 0.56654 0.84418 0.0
H2559 H 0.74342 0.60606 0.8393 0.0
H2560 H 0.7711 0.55742 0.8339 0.0
H2561 H 0.75326 0.57718 0.85029 0.0
H2562 H 0.71455 0.56372 0.81022 0.0
H2563 H 0.73267 0.54429 0.79355 0.0
C2564 C 0.69561 0.59213 0.85475 0.0
C2565 C 0.70309 0.60954 0.85732 0.0
C2566 C 0.70517 0.57985 0.84629 0.0
C2567 C 0.72249 0.58472 0.8407 0.0
C2568 C 0.73009 0.60203 0.8436 0.0
C2569 C 0.72041 0.61437 0.85165 0.0
C2570 C 0.75866 0.55853 0.82875 0.0
C2571 C 0.75316 0.54934 0.81254 0.0
C2572 C 0.74855 0.56986 0.83805 0.0
C2573 C 0.73259 0.57189 0.83147 0.0
C2574 C 0.72678 0.56225 0.81557 0.0
C2575 C 0.7371 0.55121 0.80606 0.0
H2576 H 0.46502 0.72682 0.90437 0.0
H2577 H 0.42683 0.70915 0.86419 0.0
H2578 H 0.4798 0.74814 0.88668 0.0
H2579 H 0.44112 0.73095 0.84678 0.0
H2580 H 0.48993 0.79673 0.86077 0.0
H2581 H 0.47619 0.77428 0.87761 0.0
H2582 H 0.46607 0.73968 0.8295 0.0
H2583 H 0.47933 0.76248 0.81268 0.0
C2584 C 0.45974 0.72755 0.89178 0.0
C2585 C 0.44475 0.71634 0.88569 0.0
C2586 C 0.46814 0.73985 0.88166 0.0
C2587 C 0.46161 0.7414 0.86532 0.0
C2588 C 0.44669 0.73001 0.85917 0.0
C2589 C 0.43842 0.71756 0.8692 0.0
C2590 C 0.48485 0.78428 0.85383 0.0
C2591 C 0.48571 0.78131 0.83544 0.0
C2592 C 0.47703 0.77136 0.86347 0.0
C2593 C 0.47007 0.75508 0.85496 0.0
C2594 C 0.47104 0.75211 0.83651 0.0
C2595 C 0.47869 0.76513 0.82685 0.0
H2596 H 0.38109 0.45252 0.82012 0.0
H2597 H 0.33898 0.41009 0.81009 0.0
H2598 H 0.36664 0.4694 0.80299 0.0
H2599 H 0.32483 0.42668 0.79249 0.0
H2600 H 0.29431 0.46544 0.77728 0.0
H2601 H 0.30936 0.45012 0.79548 0.0
H2602 H 0.35891 0.47247 0.77412 0.0
H2603 H 0.34375 0.48815 0.75624 0.0
C2604 C 0.36884 0.44672 0.81409 0.0
C2605 C 0.36116 0.42996 0.81653 0.0
C2606 C 0.36057 0.45639 0.8042 0.0
C2607 C 0.34446 0.4495 0.79642 0.0
C2608 C 0.33701 0.43259 0.79859 0.0
C2609 C 0.34521 0.42299 0.80857 0.0
C2610 C 0.30843 0.46715 0.77657 0.0
C2611 C 0.31784 0.47795 0.76529 0.0
C2612 C 0.31707 0.45827 0.78691 0.0
C2613 C 0.33538 0.45983 0.78614 0.0
C2614 C 0.34483 0.47105 0.7752 0.0
C2615 C 0.33615 0.48005 0.76495 0.0
H2616 H 0.70274 0.59415 0.20237 0.0
H2617 H 0.74507 0.63618 0.21338 0.0
H2618 H 0.71817 0.57591 0.21713 0.0
H2619 H 0.76065 0.61778 0.22766 0.0
H2620 H 0.78947 0.57275 0.23554 0.0
H2621 H 0.77376 0.58841 0.21791 0.0
H2622 H 0.72788 0.57868 0.25103 0.0
H2623 H 0.74376 0.56344 0.26894 0.0
C2624 C 0.71543 0.59942 0.20773 0.0
C2625 C 0.72269 0.61661 0.20674 0.0
C2626 C 0.7242 0.589 0.21622 0.0
C2627 C 0.7406 0.59544 0.22347 0.0
C2628 C 0.74808 0.61247 0.22206 0.0
C2629 C 0.73913 0.623 0.21396 0.0
C2630 C 0.77594 0.57372 0.23883 0.0
C2631 C 0.76776 0.56683 0.25351 0.0
C2632 C 0.76702 0.58275 0.22885 0.0
C2633 C 0.74964 0.58474 0.23314 0.0
C2634 C 0.74123 0.57723 0.24739 0.0
C2635 C 0.75029 0.56854 0.25761 0.0
H2636 H 0.67898 0.40551 0.86645 0.0
H2637 H 0.72629 0.39908 0.8902 0.0
H2638 H 0.6961 0.42341 0.84662 0.0
H2639 H 0.74336 0.41728 0.8706 0.0
H2640 H 0.76702 0.46412 0.84499 0.0
H2641 H 0.74846 0.44753 0.86507 0.0
H2642 H 0.71757 0.42059 0.82163 0.0
H2643 H 0.73597 0.43743 0.80155 0.0
C2644 C 0.69301 0.40761 0.86727 0.0
C2645 C 0.70123 0.40047 0.87969 0.0
C2646 C 0.70283 0.41803 0.85597 0.0
C2647 C 0.72109 0.42174 0.85701 0.0
C2648 C 0.7293 0.41481 0.86958 0.0
C2649 C 0.7195 0.40431 0.88078 0.0
C2650 C 0.75609 0.45487 0.83976 0.0
C2651 C 0.75295 0.4521 0.82168 0.0
C2652 C 0.74558 0.44523 0.85124 0.0
C2653 C 0.73162 0.43266 0.84493 0.0
C2654 C 0.72816 0.43024 0.82692 0.0
C2655 C 0.73876 0.43979 0.81541 0.0
H2656 H 0.61469 0.72459 0.86797 0.0
H2657 H 0.64118 0.77273 0.89395 0.0
H2658 H 0.59678 0.73992 0.85269 0.0
H2659 H 0.62343 0.78806 0.87843 0.0
H2660 H 0.57827 0.80979 0.8589 0.0
H2661 H 0.59362 0.79358 0.87602 0.0
H2662 H 0.60075 0.75817 0.82952 0.0
H2663 H 0.58497 0.77405 0.81257 0.0
C2664 C 0.61668 0.73845 0.87046 0.0
C2665 C 0.62944 0.74742 0.88215 0.0
C2666 C 0.60646 0.74724 0.86162 0.0
C2667 C 0.60871 0.76523 0.86427 0.0
C2668 C 0.62122 0.7742 0.87623 0.0
C2669 C 0.63148 0.7654 0.88505 0.0
C2670 C 0.58287 0.79839 0.85241 0.0
C2671 C 0.58041 0.79323 0.83436 0.0
C2672 C 0.59184 0.78921 0.86218 0.0
C2673 C 0.59848 0.77461 0.85414 0.0
C2674 C 0.59568 0.76925 0.83618 0.0
C2675 C 0.58678 0.77846 0.82641 0.0
H2676 H 0.30003 0.62711 0.86789 0.0
H2677 H 0.33805 0.5951 0.87545 0.0
H2678 H 0.29049 0.60816 0.84135 0.0
H2679 H 0.32831 0.57603 0.84901 0.0
H2680 H 0.3247 0.56539 0.78803 0.0
H2681 H 0.33133 0.57919 0.81767 0.0
H2682 H 0.27643 0.57929 0.82909 0.0
H2683 H 0.26974 0.56529 0.79938 0.0
C2684 C 0.30616 0.61587 0.86407 0.0
C2685 C 0.31994 0.61274 0.87369 0.0
C2686 C 0.30061 0.60495 0.84889 0.0
C2687 C 0.30875 0.59066 0.843 0.0
C2688 C 0.32197 0.58708 0.85308 0.0
C2689 C 0.32748 0.59797 0.86828 0.0
C2690 C 0.31399 0.56795 0.79697 0.0
C2691 C 0.29669 0.56432 0.79128 0.0
C2692 C 0.3178 0.57589 0.81398 0.0
C2693 C 0.30441 0.58042 0.8257 0.0
C2694 C 0.28705 0.57618 0.82027 0.0
C2695 C 0.28323 0.56818 0.80326 0.0
H2696 H 0.42736 0.36798 0.82503 0.0
H2697 H 0.39228 0.33303 0.85344 0.0
H2698 H 0.4427 0.34467 0.81256 0.0
H2699 H 0.40794 0.30981 0.84139 0.0
H2700 H 0.42565 0.26972 0.79821 0.0
H2701 H 0.41147 0.29303 0.81282 0.0
H2702 H 0.46171 0.32516 0.8201 0.0
H2703 H 0.47591 0.30187 0.80501 0.0
C2704 C 0.42303 0.35536 0.82879 0.0
C2705 C 0.40868 0.35244 0.84041 0.0
C2706 C 0.43192 0.34202 0.82174 0.0
C2707 C 0.4266 0.32537 0.82601 0.0
C2708 C 0.41233 0.32247 0.83776 0.0
C2709 C 0.40348 0.33585 0.84488 0.0
C2710 C 0.43368 0.28179 0.80283 0.0
C2711 C 0.45191 0.28399 0.80028 0.0
C2712 C 0.42556 0.29509 0.81141 0.0
C2713 C 0.43544 0.31098 0.81764 0.0
C2714 C 0.4537 0.31313 0.81531 0.0
C2715 C 0.46185 0.29976 0.8068 0.0
H2716 H 0.32213 0.37842 0.19777 0.0
H2717 H 0.36156 0.42131 0.18834 0.0
H2718 H 0.30632 0.3976 0.21733 0.0
H2719 H 0.3459 0.44043 0.20818 0.0
H2720 H 0.30661 0.47238 0.23618 0.0
H2721 H 0.31939 0.45349 0.2132 0.0
H2722 H 0.31131 0.41335 0.24639 0.0
H2723 H 0.29874 0.43211 0.26922 0.0
C2724 C 0.32738 0.39195 0.19976 0.0
C2725 C 0.34321 0.39829 0.1916 0.0
C2726 C 0.31835 0.40294 0.21106 0.0
C2727 C 0.32492 0.42053 0.21447 0.0
C2728 C 0.34039 0.42698 0.20575 0.0
C2729 C 0.34943 0.41598 0.19444 0.0
C2730 C 0.30755 0.45951 0.23852 0.0
C2731 C 0.30152 0.45375 0.25452 0.0
C2732 C 0.31487 0.44869 0.22537 0.0
C2733 C 0.3163 0.43187 0.22791 0.0
C2734 C 0.31008 0.42609 0.24382 0.0
C2735 C 0.30283 0.43688 0.25694 0.0
H2736 H 0.65998 0.37977 0.19271 0.0
H2737 H 0.70289 0.3535 0.20012 0.0
H2738 H 0.64374 0.3669 0.21662 0.0
H2739 H 0.68661 0.34074 0.22427 0.0
H2740 H 0.6433 0.30832 0.25488 0.0
H2741 H 0.65997 0.31999 0.2303 0.0
H2742 H 0.64613 0.36972 0.24866 0.0
H2743 H 0.62971 0.35819 0.27318 0.0
C2744 C 0.66596 0.37125 0.19943 0.0
C2745 C 0.68276 0.36773 0.19455 0.0
C2746 C 0.65667 0.36393 0.2132 0.0
C2747 C 0.66394 0.35289 0.2224 0.0
C2748 C 0.68063 0.3491 0.21734 0.0
C2749 C 0.68997 0.35649 0.20358 0.0
C2750 C 0.64395 0.32177 0.25372 0.0
C2751 C 0.63503 0.33228 0.26589 0.0
C2752 C 0.65348 0.32844 0.23966 0.0
C2753 C 0.65423 0.34573 0.23747 0.0
C2754 C 0.6455 0.35626 0.24977 0.0
C2755 C 0.63606 0.34963 0.26382 0.0
H2756 H 0.42867 0.66905 0.17498 0.0
H2757 H 0.40644 0.7128 0.16508 0.0
H2758 H 0.44319 0.68611 0.20077 0.0
H2759 H 0.42062 0.72967 0.19104 0.0
H2760 H 0.43371 0.74468 0.25074 0.0
H2761 H 0.41868 0.72672 0.22607 0.0
H2762 H 0.46789 0.71539 0.20345 0.0
H2763 H 0.48325 0.73423 0.22752 0.0
C2764 C 0.42663 0.68219 0.17852 0.0
C2765 C 0.41634 0.6896 0.16816 0.0
C2766 C 0.43504 0.69195 0.19314 0.0
C2767 C 0.43297 0.70914 0.19782 0.0
C2768 C 0.42233 0.7164 0.18771 0.0
C2769 C 0.41427 0.70678 0.17289 0.0
C2770 C 0.44146 0.73869 0.2404 0.0
C2771 C 0.45981 0.74117 0.24112 0.0
C2772 C 0.43278 0.72825 0.22637 0.0
C2773 C 0.44216 0.7197 0.21296 0.0
C2774 C 0.46039 0.72175 0.21377 0.0
C2775 C 0.46914 0.7325 0.22761 0.0
loop_
_geom_bond_atom_site_label_1
_geom_bond_atom_site_label_2
_geom_bond_distance
_geom_bond_site_symmetry_2
_ccdc_geom_bond_type
O0 Cd1 2.300 . S
O0 C7 1.275 . S
Cd1 O0 2.300 . S
Cd1 O9 2.381 . S
Cd1 O10 2.378 . S
O2 Cd3 2.385 . S
O2 C7 1.255 . S
Cd3 O2 2.385 . S
Cd3 O4 2.317 . S
O4 Cd3 2.317 . S
O4 C5 1.232 . S
C5 O4 1.232 . S
C5 O6 1.218 . S
O6 C5 1.218 . S
C7 O0 1.275 . S
C7 O2 1.255 . S
C8 O9 1.258 . S
C8 O10 1.256 . S
O9 Cd1 2.381 . S
O9 C8 1.258 . S
O10 Cd1 2.378 . S
O10 C8 1.256 . S
O11 Cd12 2.300 . S
O11 C18 1.275 . S
Cd12 O11 2.300 . S
Cd12 O20 2.381 . S
Cd12 O21 2.378 . S
O13 Cd14 2.385 . S
O13 C18 1.255 . S
Cd14 O13 2.385 . S
Cd14 O15 2.317 . S
O15 Cd14 2.317 . S
O15 C16 1.232 . S
C16 O15 1.232 . S
C16 O17 1.218 . S
O17 C16 1.218 . S
C18 O11 1.275 . S
C18 O13 1.255 . S
C19 O20 1.258 . S
C19 O21 1.256 . S
O20 Cd12 2.381 . S
O20 C19 1.258 . S
O21 Cd12 2.378 . S
O21 C19 1.256 . S
O22 Cd23 2.300 . S
O22 C29 1.275 . S
Cd23 O22 2.300 . S
Cd23 O31 2.381 . S
Cd23 O32 2.378 . S
O24 Cd25 2.385 . S
O24 C29 1.255 . S
Cd25 O24 2.385 . S
Cd25 O26 2.317 . S
O26 Cd25 2.317 . S
O26 C27 1.232 . S
C27 O26 1.232 . S
C27 O28 1.218 . S
O28 C27 1.218 . S
C29 O22 1.275 . S
C29 O24 1.255 . S
C30 O31 1.258 . S
C30 O32 1.256 . S
O31 Cd23 2.381 . S
O31 C30 1.258 . S
O32 Cd23 2.378 . S
O32 C30 1.256 . S
O33 Cd34 2.300 . S
O33 C40 1.275 . S
Cd34 O33 2.300 . S
Cd34 O42 2.381 . S
Cd34 O43 2.378 . S
O35 Cd36 2.385 . S
O35 C40 1.255 . S
Cd36 O35 2.385 . S
Cd36 O37 2.317 . S
O37 Cd36 2.317 . S
O37 C38 1.232 . S
C38 O37 1.232 . S
C38 O39 1.218 . S
O39 C38 1.218 . S
C40 O33 1.275 . S
C40 O35 1.255 . S
C41 O42 1.258 . S
C41 O43 1.256 . S
O42 Cd34 2.381 . S
O42 C41 1.258 . S
O43 Cd34 2.378 . S
O43 C41 1.256 . S
O44 Cd45 2.300 . S
O44 C51 1.275 . S
Cd45 O44 2.300 . S
Cd45 O53 2.381 . S
Cd45 O54 2.378 . S
O46 Cd47 2.385 . S
O46 C51 1.255 . S
Cd47 O46 2.385 . S
Cd47 O48 2.317 . S
O48 Cd47 2.317 . S
O48 C49 1.232 . S
C49 O48 1.232 . S
C49 O50 1.218 . S
O50 C49 1.218 . S
C51 O44 1.275 . S
C51 O46 1.255 . S
C52 O53 1.258 . S
C52 O54 1.256 . S
O53 Cd45 2.381 . S
O53 C52 1.258 . S
O54 Cd45 2.378 . S
O54 C52 1.256 . S
O55 Cd56 2.300 . S
O55 C62 1.275 . S
Cd56 O55 2.300 . S
Cd56 O64 2.381 . S
Cd56 O65 2.378 . S
O57 Cd58 2.385 . S
O57 C62 1.255 . S
Cd58 O57 2.385 . S
Cd58 O59 2.317 . S
O59 Cd58 2.317 . S
O59 C60 1.232 . S
C60 O59 1.232 . S
C60 O61 1.218 . S
O61 C60 1.218 . S
C62 O55 1.275 . S
C62 O57 1.255 . S
C63 O64 1.258 . S
C63 O65 1.256 . S
O64 Cd56 2.381 . S
O64 C63 1.258 . S
O65 Cd56 2.378 . S
O65 C63 1.256 . S
O66 Cd67 2.300 . S
O66 C73 1.275 . S
Cd67 O66 2.300 . S
Cd67 O75 2.381 . S
Cd67 O76 2.378 . S
O68 Cd69 2.385 . S
O68 C73 1.255 . S
Cd69 O68 2.385 . S
Cd69 O70 2.317 . S
O70 Cd69 2.317 . S
O70 C71 1.232 . S
C71 O70 1.232 . S
C71 O72 1.218 . S
O72 C71 1.218 . S
C73 O66 1.275 . S
C73 O68 1.255 . S
C74 O75 1.258 . S
C74 O76 1.256 . S
O75 Cd67 2.381 . S
O75 C74 1.258 . S
O76 Cd67 2.378 . S
O76 C74 1.256 . S
O77 Cd78 2.300 . S
O77 C84 1.275 . S
Cd78 O77 2.300 . S
Cd78 O86 2.381 . S
Cd78 O87 2.378 . S
O79 Cd80 2.385 . S
O79 C84 1.255 . S
Cd80 O79 2.385 . S
Cd80 O81 2.317 . S
O81 Cd80 2.317 . S
O81 C82 1.232 . S
C82 O81 1.232 . S
C82 O83 1.218 . S
O83 C82 1.218 . S
C84 O77 1.275 . S
C84 O79 1.255 . S
C85 O86 1.258 . S
C85 O87 1.256 . S
O86 Cd78 2.381 . S
O86 C85 1.258 . S
O87 Cd78 2.378 . S
O87 C85 1.256 . S
O88 Cd89 2.300 . S
O88 C95 1.275 . S
Cd89 O88 2.300 . S
Cd89 O97 2.381 . S
Cd89 O98 2.378 . S
O90 Cd91 2.385 . S
O90 C95 1.255 . S
Cd91 O90 2.385 . S
Cd91 O92 2.317 . S
O92 Cd91 2.317 . S
O92 C93 1.232 . S
C93 O92 1.232 . S
C93 O94 1.218 . S
O94 C93 1.218 . S
C95 O88 1.275 . S
C95 O90 1.255 . S
C96 O97 1.258 . S
C96 O98 1.256 . S
O97 Cd89 2.381 . S
O97 C96 1.258 . S
O98 Cd89 2.378 . S
O98 C96 1.256 . S
O99 Cd100 2.300 . S
O99 C106 1.275 . S
Cd100 O99 2.300 . S
Cd100 O108 2.381 . S
Cd100 O109 2.378 . S
O101 Cd102 2.385 . S
O101 C106 1.255 . S
Cd102 O101 2.385 . S
Cd102 O103 2.317 . S
O103 Cd102 2.317 . S
O103 C104 1.232 . S
C104 O103 1.232 . S
C104 O105 1.218 . S
O105 C104 1.218 . S
C106 O99 1.275 . S
C106 O101 1.255 . S
C107 O108 1.258 . S
C107 O109 1.256 . S
O108 Cd100 2.381 . S
O108 C107 1.258 . S
O109 Cd100 2.378 . S
O109 C107 1.256 . S
O110 Cd111 2.300 . S
O110 C117 1.275 . S
Cd111 O110 2.300 . S
Cd111 O119 2.381 . S
Cd111 O120 2.378 . S
O112 Cd113 2.385 . S
O112 C117 1.255 . S
Cd113 O112 2.385 . S
Cd113 O114 2.317 . S
O114 Cd113 2.317 . S
O114 C115 1.232 . S
C115 O114 1.232 . S
C115 O116 1.218 . S
O116 C115 1.218 . S
C117 O110 1.275 . S
C117 O112 1.255 . S
C118 O119 1.258 . S
C118 O120 1.256 . S
O119 Cd111 2.381 . S
O119 C118 1.258 . S
O120 Cd111 2.378 . S
O120 C118 1.256 . S
O121 Cd122 2.300 . S
O121 C128 1.275 . S
Cd122 O121 2.300 . S
Cd122 O130 2.381 . S
Cd122 O131 2.378 . S
O123 Cd124 2.385 . S
O123 C128 1.255 . S
Cd124 O123 2.385 . S
Cd124 O125 2.317 . S
O125 Cd124 2.317 . S
O125 C126 1.232 . S
C126 O125 1.232 . S
C126 O127 1.218 . S
O127 C126 1.218 . S
C128 O121 1.275 . S
C128 O123 1.255 . S
C129 O130 1.258 . S
C129 O131 1.256 . S
O130 Cd122 2.381 . S
O130 C129 1.258 . S
O131 Cd122 2.378 . S
O131 C129 1.256 . S
O132 Cd133 2.300 . S
O132 C139 1.275 . S
Cd133 O132 2.300 . S
Cd133 O141 2.381 . S
Cd133 O142 2.378 . S
O134 Cd135 2.385 . S
O134 C139 1.255 . S
Cd135 O134 2.385 . S
Cd135 O136 2.317 . S
O136 Cd135 2.317 . S
O136 C137 1.232 . S
C137 O136 1.232 . S
C137 O138 1.218 . S
O138 C137 1.218 . S
C139 O132 1.275 . S
C139 O134 1.255 . S
C140 O141 1.258 . S
C140 O142 1.256 . S
O141 Cd133 2.381 . S
O141 C140 1.258 . S
O142 Cd133 2.378 . S
O142 C140 1.256 . S
O143 Cd144 2.300 . S
O143 C150 1.275 . S
Cd144 O143 2.300 . S
Cd144 O152 2.381 . S
Cd144 O153 2.378 . S
O145 Cd146 2.385 . S
O145 C150 1.255 . S
Cd146 O145 2.385 . S
Cd146 O147 2.317 . S
O147 Cd146 2.317 . S
O147 C148 1.232 . S
C148 O147 1.232 . S
C148 O149 1.218 . S
O149 C148 1.218 . S
C150 O143 1.275 . S
C150 O145 1.255 . S
C151 O152 1.258 . S
C151 O153 1.256 . S
O152 Cd144 2.381 . S
O152 C151 1.258 . S
O153 Cd144 2.378 . S
O153 C151 1.256 . S
O154 Cd155 2.300 . S
O154 C161 1.275 . S
Cd155 O154 2.300 . S
Cd155 O163 2.381 . S
Cd155 O164 2.378 . S
O156 Cd157 2.385 . S
O156 C161 1.255 . S
Cd157 O156 2.385 . S
Cd157 O158 2.317 . S
O158 Cd157 2.317 . S
O158 C159 1.232 . S
C159 O158 1.232 . S
C159 O160 1.218 . S
O160 C159 1.218 . S
C161 O154 1.275 . S
C161 O156 1.255 . S
C162 O163 1.258 . S
C162 O164 1.256 . S
O163 Cd155 2.381 . S
O163 C162 1.258 . S
O164 Cd155 2.378 . S
O164 C162 1.256 . S
O165 Cd166 2.300 . S
O165 C172 1.275 . S
Cd166 O165 2.300 . S
Cd166 O174 2.381 . S
Cd166 O175 2.378 . S
O167 Cd168 2.385 . S
O167 C172 1.255 . S
Cd168 O167 2.385 . S
Cd168 O169 2.317 . S
O169 Cd168 2.317 . S
O169 C170 1.232 . S
C170 O169 1.232 . S
C170 O171 1.218 . S
O171 C170 1.218 . S
C172 O165 1.275 . S
C172 O167 1.255 . S
C173 O174 1.258 . S
C173 O175 1.256 . S
O174 Cd166 2.381 . S
O174 C173 1.258 . S
O175 Cd166 2.378 . S
O175 C173 1.256 . S
O176 Cd177 2.300 . S
O176 C183 1.275 . S
Cd177 O176 2.300 . S
Cd177 O185 2.381 . S
Cd177 O186 2.378 . S
O178 Cd179 2.385 . S
O178 C183 1.255 . S
Cd179 O178 2.385 . S
Cd179 O180 2.317 . S
O180 Cd179 2.317 . S
O180 C181 1.232 . S
C181 O180 1.232 . S
C181 O182 1.218 . S
O182 C181 1.218 . S
C183 O176 1.275 . S
C183 O178 1.255 . S
C184 O185 1.258 . S
C184 O186 1.256 . S
O185 Cd177 2.381 . S
O185 C184 1.258 . S
O186 Cd177 2.378 . S
O186 C184 1.256 . S
O187 Cd188 2.300 . S
O187 C194 1.275 . S
Cd188 O187 2.300 . S
Cd188 O196 2.381 . S
Cd188 O197 2.378 . S
O189 Cd190 2.385 . S
O189 C194 1.255 . S
Cd190 O189 2.385 . S
Cd190 O191 2.317 . S
O191 Cd190 2.317 . S
O191 C192 1.232 . S
C192 O191 1.232 . S
C192 O193 1.218 . S
O193 C192 1.218 . S
C194 O187 1.275 . S
C194 O189 1.255 . S
C195 O196 1.258 . S
C195 O197 1.256 . S
O196 Cd188 2.381 . S
O196 C195 1.258 . S
O197 Cd188 2.378 . S
O197 C195 1.256 . S
O198 Cd199 2.300 . S
O198 C205 1.275 . S
Cd199 O198 2.300 . S
Cd199 O207 2.381 . S
Cd199 O208 2.378 . S
O200 Cd201 2.385 . S
O200 C205 1.255 . S
Cd201 O200 2.385 . S
Cd201 O202 2.317 . S
O202 Cd201 2.317 . S
O202 C203 1.232 . S
C203 O202 1.232 . S
C203 O204 1.218 . S
O204 C203 1.218 . S
C205 O198 1.275 . S
C205 O200 1.255 . S
C206 O207 1.258 . S
C206 O208 1.256 . S
O207 Cd199 2.381 . S
O207 C206 1.258 . S
O208 Cd199 2.378 . S
O208 C206 1.256 . S
O209 Cd210 2.300 . S
O209 C216 1.275 . S
Cd210 O209 2.300 . S
Cd210 O218 2.381 . S
Cd210 O219 2.378 . S
O211 Cd212 2.385 . S
O211 C216 1.255 . S
Cd212 O211 2.385 . S
Cd212 O213 2.317 . S
O213 Cd212 2.317 . S
O213 C214 1.232 . S
C214 O213 1.232 . S
C214 O215 1.218 . S
O215 C214 1.218 . S
C216 O209 1.275 . S
C216 O211 1.255 . S
C217 O218 1.258 . S
C217 O219 1.256 . S
O218 Cd210 2.381 . S
O218 C217 1.258 . S
O219 Cd210 2.378 . S
O219 C217 1.256 . S
O220 Cd221 2.300 . S
O220 C227 1.275 . S
Cd221 O220 2.300 . S
Cd221 O229 2.381 . S
Cd221 O230 2.378 . S
O222 Cd223 2.385 . S
O222 C227 1.255 . S
Cd223 O222 2.385 . S
Cd223 O224 2.317 . S
O224 Cd223 2.317 . S
O224 C225 1.232 . S
C225 O224 1.232 . S
C225 O226 1.218 . S
O226 C225 1.218 . S
C227 O220 1.275 . S
C227 O222 1.255 . S
C228 O229 1.258 . S
C228 O230 1.256 . S
O229 Cd221 2.381 . S
O229 C228 1.258 . S
O230 Cd221 2.378 . S
O230 C228 1.256 . S
O231 Cd232 2.300 . S
O231 C238 1.275 . S
Cd232 O231 2.300 . S
Cd232 O240 2.381 . S
Cd232 O241 2.378 . S
O233 Cd234 2.385 . S
O233 C238 1.255 . S
Cd234 O233 2.385 . S
Cd234 O235 2.317 . S
O235 Cd234 2.317 . S
O235 C236 1.232 . S
C236 O235 1.232 . S
C236 O237 1.218 . S
O237 C236 1.218 . S
C238 O231 1.275 . S
C238 O233 1.255 . S
C239 O240 1.258 . S
C239 O241 1.256 . S
O240 Cd232 2.381 . S
O240 C239 1.258 . S
O241 Cd232 2.378 . S
O241 C239 1.256 . S
O242 Cd243 2.300 . S
O242 C249 1.275 . S
Cd243 O242 2.300 . S
Cd243 O251 2.381 . S
Cd243 O252 2.378 . S
O244 Cd245 2.385 . S
O244 C249 1.255 . S
Cd245 O244 2.385 . S
Cd245 O246 2.317 . S
O246 Cd245 2.317 . S
O246 C247 1.232 . S
C247 O246 1.232 . S
C247 O248 1.218 . S
O248 C247 1.218 . S
C249 O242 1.275 . S
C249 O244 1.255 . S
C250 O251 1.258 . S
C250 O252 1.256 . S
O251 Cd243 2.381 . S
O251 C250 1.258 . S
O252 Cd243 2.378 . S
O252 C250 1.256 . S
O253 Cd254 2.300 . S
O253 C260 1.275 . S
Cd254 O253 2.300 . S
Cd254 O262 2.381 . S
Cd254 O263 2.378 . S
O255 Cd256 2.385 . S
O255 C260 1.255 . S
Cd256 O255 2.385 . S
Cd256 O257 2.317 . S
O257 Cd256 2.317 . S
O257 C258 1.232 . S
C258 O257 1.232 . S
C258 O259 1.218 . S
O259 C258 1.218 . S
C260 O253 1.275 . S
C260 O255 1.255 . S
C261 O262 1.258 . S
C261 O263 1.256 . S
O262 Cd254 2.381 . S
O262 C261 1.258 . S
O263 Cd254 2.378 . S
O263 C261 1.256 . S
O264 Cd265 2.300 . S
O264 C271 1.275 . S
Cd265 O264 2.300 . S
Cd265 O273 2.381 . S
Cd265 O274 2.378 . S
O266 Cd267 2.385 . S
O266 C271 1.255 . S
Cd267 O266 2.385 . S
Cd267 O268 2.317 . S
O268 Cd267 2.317 . S
O268 C269 1.232 . S
C269 O268 1.232 . S
C269 O270 1.218 . S
O270 C269 1.218 . S
C271 O264 1.275 . S
C271 O266 1.255 . S
C272 O273 1.258 . S
C272 O274 1.256 . S
O273 Cd265 2.381 . S
O273 C272 1.258 . S
O274 Cd265 2.378 . S
O274 C272 1.256 . S
O275 Cd276 2.300 . S
O275 C282 1.275 . S
Cd276 O275 2.300 . S
Cd276 O284 2.381 . S
Cd276 O285 2.378 . S
O277 Cd278 2.385 . S
O277 C282 1.255 . S
Cd278 O277 2.385 . S
Cd278 O279 2.317 . S
O279 Cd278 2.317 . S
O279 C280 1.232 . S
C280 O279 1.232 . S
C280 O281 1.218 . S
O281 C280 1.218 . S
C282 O275 1.275 . S
C282 O277 1.255 . S
C283 O284 1.258 . S
C283 O285 1.256 . S
O284 Cd276 2.381 . S
O284 C283 1.258 . S
O285 Cd276 2.378 . S
O285 C283 1.256 . S
O286 Cd287 2.300 . S
O286 C293 1.275 . S
Cd287 O286 2.300 . S
Cd287 O295 2.381 . S
Cd287 O296 2.378 . S
O288 Cd289 2.385 . S
O288 C293 1.255 . S
Cd289 O288 2.385 . S
Cd289 O290 2.317 . S
O290 Cd289 2.317 . S
O290 C291 1.232 . S
C291 O290 1.232 . S
C291 O292 1.218 . S
O292 C291 1.218 . S
C293 O286 1.275 . S
C293 O288 1.255 . S
C294 O295 1.258 . S
C294 O296 1.256 . S
O295 Cd287 2.381 . S
O295 C294 1.258 . S
O296 Cd287 2.378 . S
O296 C294 1.256 . S
O297 Cd298 2.300 . S
O297 C304 1.275 . S
Cd298 O297 2.300 . S
Cd298 O306 2.381 . S
Cd298 O307 2.378 . S
O299 Cd300 2.385 . S
O299 C304 1.255 . S
Cd300 O299 2.385 . S
Cd300 O301 2.317 . S
O301 Cd300 2.317 . S
O301 C302 1.232 . S
C302 O301 1.232 . S
C302 O303 1.218 . S
O303 C302 1.218 . S
C304 O297 1.275 . S
C304 O299 1.255 . S
C305 O306 1.258 . S
C305 O307 1.256 . S
O306 Cd298 2.381 . S
O306 C305 1.258 . S
O307 Cd298 2.378 . S
O307 C305 1.256 . S
O308 Cd309 2.300 . S
O308 C315 1.275 . S
Cd309 O308 2.300 . S
Cd309 O317 2.381 . S
Cd309 O318 2.378 . S
O310 Cd311 2.385 . S
O310 C315 1.255 . S
Cd311 O310 2.385 . S
Cd311 O312 2.317 . S
O312 Cd311 2.317 . S
O312 C313 1.232 . S
C313 O312 1.232 . S
C313 O314 1.218 . S
O314 C313 1.218 . S
C315 O308 1.275 . S
C315 O310 1.255 . S
C316 O317 1.258 . S
C316 O318 1.256 . S
O317 Cd309 2.381 . S
O317 C316 1.258 . S
O318 Cd309 2.378 . S
O318 C316 1.256 . S
O319 Cd320 2.300 . S
O319 C326 1.275 . S
Cd320 O319 2.300 . S
Cd320 O328 2.381 . S
Cd320 O329 2.378 . S
O321 Cd322 2.385 . S
O321 C326 1.255 . S
Cd322 O321 2.385 . S
Cd322 O323 2.317 . S
O323 Cd322 2.317 . S
O323 C324 1.232 . S
C324 O323 1.232 . S
C324 O325 1.218 . S
O325 C324 1.218 . S
C326 O319 1.275 . S
C326 O321 1.255 . S
C327 O328 1.258 . S
C327 O329 1.256 . S
O328 Cd320 2.381 . S
O328 C327 1.258 . S
O329 Cd320 2.378 . S
O329 C327 1.256 . S
O330 Cd331 2.300 . S
O330 C337 1.275 . S
Cd331 O330 2.300 . S
Cd331 O339 2.381 . S
Cd331 O340 2.378 . S
O332 Cd333 2.385 . S
O332 C337 1.255 . S
Cd333 O332 2.385 . S
Cd333 O334 2.317 . S
O334 Cd333 2.317 . S
O334 C335 1.232 . S
C335 O334 1.232 . S
C335 O336 1.218 . S
O336 C335 1.218 . S
C337 O330 1.275 . S
C337 O332 1.255 . S
C338 O339 1.258 . S
C338 O340 1.256 . S
O339 Cd331 2.381 . S
O339 C338 1.258 . S
O340 Cd331 2.378 . S
O340 C338 1.256 . S
O341 Cd342 2.300 . S
O341 C348 1.275 . S
Cd342 O341 2.300 . S
Cd342 O350 2.381 . S
Cd342 O351 2.378 . S
O343 Cd344 2.385 . S
O343 C348 1.255 . S
Cd344 O343 2.385 . S
Cd344 O345 2.317 . S
O345 Cd344 2.317 . S
O345 C346 1.232 . S
C346 O345 1.232 . S
C346 O347 1.218 . S
O347 C346 1.218 . S
C348 O341 1.275 . S
C348 O343 1.255 . S
C349 O350 1.258 . S
C349 O351 1.256 . S
O350 Cd342 2.381 . S
O350 C349 1.258 . S
O351 Cd342 2.378 . S
O351 C349 1.256 . S
H352 C360 0.930 . S
H353 C363 0.930 . S
H354 C365 0.930 . S
H355 C366 0.970 . S
H356 C366 0.970 . S
H357 C368 0.930 . S
H358 C370 0.930 . S
H359 C372 0.930 . S
C360 H352 0.930 . S
C360 C361 1.382 . S
C360 C362 1.426 . S
C361 C360 1.382 . S
C361 C365 1.389 1_554 S
C362 C360 1.426 . S
C362 C363 1.375 . S
C362 C366 1.532 . S
C363 H353 0.930 . S
C363 C362 1.375 . S
C363 C364 1.416 . S
C364 C363 1.416 . S
C364 C365 1.371 1_554 S
C365 H354 0.930 . S
C365 C361 1.389 1_556 S
C365 C364 1.371 1_556 S
C366 H355 0.970 . S
C366 H356 0.970 . S
C366 C362 1.532 . S
C366 C367 1.499 . S
C367 C366 1.499 . S
C367 C368 1.370 . S
C367 C372 1.415 . S
C368 H357 0.930 . S
C368 C367 1.370 . S
C368 C369 1.407 . S
C369 C368 1.407 . S
C369 C370 1.365 . S
C370 H358 0.930 . S
C370 C369 1.365 . S
C370 C371 1.393 . S
C371 C370 1.393 . S
C371 C372 1.387 . S
C372 H359 0.930 . S
C372 C367 1.415 . S
C372 C371 1.387 . S
H373 C381 0.930 . S
H374 C384 0.930 . S
H375 C386 0.930 . S
H376 C387 0.975 . S
H377 C387 0.971 1_554 S
H378 C389 0.930 . S
H379 C391 0.930 . S
H380 C393 0.930 . S
C381 H373 0.930 . S
C381 C382 1.382 . S
C381 C383 1.426 . S
C382 C381 1.382 . S
C382 C386 1.389 . S
C383 C381 1.426 . S
C383 C384 1.375 . S
C383 C387 1.480 1_554 S
C384 H374 0.930 . S
C384 C383 1.375 . S
C384 C385 1.416 . S
C385 C384 1.416 . S
C385 C386 1.371 . S
C386 H375 0.930 . S
C386 C382 1.389 . S
C386 C385 1.371 . S
C387 H376 0.975 . S
C387 H377 0.971 1_556 S
C387 C383 1.480 1_556 S
C387 C388 1.551 . S
C388 C387 1.551 . S
C388 C389 1.370 . S
C388 C393 1.415 . S
C389 H378 0.930 . S
C389 C388 1.370 . S
C389 C390 1.407 . S
C390 C389 1.407 . S
C390 C391 1.365 . S
C391 H379 0.930 . S
C391 C390 1.365 . S
C391 C392 1.393 . S
C392 C391 1.393 . S
C392 C393 1.387 . S
C393 H380 0.930 . S
C393 C388 1.415 . S
C393 C392 1.387 . S
H394 C402 0.930 . S
H395 C405 0.930 . S
H396 C407 0.930 . S
H397 C408 0.970 . S
H398 C408 0.970 . S
H399 C410 0.930 . S
H400 C412 0.930 . S
H401 C414 0.930 . S
C402 H394 0.930 . S
C402 C403 1.382 . S
C402 C404 1.426 . S
C403 C402 1.382 . S
C403 C407 1.389 . S
C404 C402 1.426 . S
C404 C405 1.375 . S
C404 C408 1.532 . S
C405 H395 0.930 . S
C405 C404 1.375 . S
C405 C406 1.416 . S
C406 C405 1.416 . S
C406 C407 1.371 . S
C407 H396 0.930 . S
C407 C403 1.389 . S
C407 C406 1.371 . S
C408 H397 0.970 . S
C408 H398 0.970 . S
C408 C404 1.532 . S
C408 C409 1.499 . S
C409 C408 1.499 . S
C409 C410 1.370 . S
C409 C414 1.415 . S
C410 H399 0.930 . S
C410 C409 1.370 . S
C410 C411 1.407 . S
C411 C410 1.407 . S
C411 C412 1.365 1_554 S
C412 H400 0.930 . S
C412 C411 1.365 1_556 S
C412 C413 1.393 1_556 S
C413 C412 1.393 1_554 S
C413 C414 1.387 . S
C414 H401 0.930 . S
C414 C409 1.415 . S
C414 C413 1.387 . S
H415 C423 0.930 . S
H416 C426 0.930 . S
H417 C428 0.930 . S
H418 C429 0.970 . S
H419 C429 0.970 . S
H420 C431 0.930 . S
H421 C433 0.930 . S
H422 C435 0.930 . S
C423 H415 0.930 . S
C423 C424 1.382 . S
C423 C425 1.426 . S
C424 C423 1.382 . S
C424 C428 1.389 . S
C425 C423 1.426 . S
C425 C426 1.375 . S
C425 C429 1.532 1_554 S
C426 H416 0.930 . S
C426 C425 1.375 . S
C426 C427 1.416 . S
C427 C426 1.416 . S
C427 C428 1.371 . S
C428 H417 0.930 . S
C428 C424 1.389 . S
C428 C427 1.371 . S
C429 H418 0.970 . S
C429 H419 0.970 . S
C429 C425 1.532 1_556 S
C429 C430 1.499 . S
C430 C429 1.499 . S
C430 C431 1.370 . S
C430 C435 1.415 . S
C431 H420 0.930 . S
C431 C430 1.370 . S
C431 C432 1.407 . S
C432 C431 1.407 . S
C432 C433 1.365 . S
C433 H421 0.930 . S
C433 C432 1.365 . S
C433 C434 1.393 . S
C434 C433 1.393 . S
C434 C435 1.387 . S
C435 H422 0.930 . S
C435 C430 1.415 . S
C435 C434 1.387 . S
H436 C444 0.930 . S
H437 C447 0.930 . S
H438 C449 0.930 . S
H439 C450 0.970 1_655 S
H440 C450 0.970 . S
H441 C452 0.930 . S
H442 C454 0.930 . S
H443 C456 0.930 . S
C444 H436 0.930 . S
C444 C445 1.382 . S
C444 C446 1.426 . S
C445 C444 1.382 . S
C445 C449 1.389 . S
C446 C444 1.426 . S
C446 C447 1.375 . S
C446 C450 1.532 . S
C447 H437 0.930 . S
C447 C446 1.375 . S
C447 C448 1.416 . S
C448 C447 1.416 . S
C448 C449 1.371 . S
C449 H438 0.930 . S
C449 C445 1.389 . S
C449 C448 1.371 . S
C450 H439 0.970 1_455 S
C450 H440 0.970 . S
C450 C446 1.532 . S
C450 C451 1.499 1_455 S
C451 C450 1.499 1_655 S
C451 C452 1.370 . S
C451 C456 1.415 . S
C452 H441 0.930 . S
C452 C451 1.370 . S
C452 C453 1.407 . S
C453 C452 1.407 . S
C453 C454 1.365 . S
C454 H442 0.930 . S
C454 C453 1.365 . S
C454 C455 1.393 . S
C455 C454 1.393 . S
C455 C456 1.387 . S
C456 H443 0.930 . S
C456 C451 1.415 . S
C456 C455 1.387 . S
H457 C465 0.930 . S
H458 C468 0.930 . S
H459 C470 0.930 . S
H460 C471 0.970 . S
H461 C471 0.970 . S
H462 C473 0.930 . S
H463 C475 0.930 . S
H464 C477 0.930 . S
C465 H457 0.930 . S
C465 C466 1.382 . S
C465 C467 1.426 . S
C466 C465 1.382 . S
C466 C470 1.389 . S
C467 C465 1.426 . S
C467 C468 1.375 . S
C467 C471 1.532 . S
C468 H458 0.930 . S
C468 C467 1.375 . S
C468 C469 1.416 . S
C469 C468 1.416 . S
C469 C470 1.371 . S
C470 H459 0.930 . S
C470 C466 1.389 . S
C470 C469 1.371 . S
C471 H460 0.970 . S
C471 H461 0.970 . S
C471 C467 1.532 . S
C471 C472 1.499 1_545 S
C472 C471 1.499 1_565 S
C472 C473 1.370 . S
C472 C477 1.415 . S
C473 H462 0.930 . S
C473 C472 1.370 . S
C473 C474 1.407 . S
C474 C473 1.407 . S
C474 C475 1.365 . S
C475 H463 0.930 . S
C475 C474 1.365 . S
C475 C476 1.393 . S
C476 C475 1.393 . S
C476 C477 1.387 . S
C477 H464 0.930 . S
C477 C472 1.415 . S
C477 C476 1.387 . S
H478 C486 0.930 . S
H479 C489 0.930 . S
H480 C491 0.930 . S
H481 C492 0.970 . S
H482 C492 0.970 . S
H483 C494 0.930 . S
H484 C496 0.930 . S
H485 C498 0.930 . S
C486 H478 0.930 . S
C486 C487 1.382 . S
C486 C488 1.426 . S
C487 C486 1.382 . S
C487 C491 1.389 . S
C488 C486 1.426 . S
C488 C489 1.375 . S
C488 C492 1.532 . S
C489 H479 0.930 . S
C489 C488 1.375 . S
C489 C490 1.416 . S
C490 C489 1.416 . S
C490 C491 1.371 . S
C491 H480 0.930 . S
C491 C487 1.389 . S
C491 C490 1.371 . S
C492 H481 0.970 . S
C492 H482 0.970 . S
C492 C488 1.532 . S
C492 C493 1.499 . S
C493 C492 1.499 . S
C493 C494 1.370 . S
C493 C498 1.415 . S
C494 H483 0.930 . S
C494 C493 1.370 . S
C494 C495 1.407 . S
C495 C494 1.407 . S
C495 C496 1.365 . S
C496 H484 0.930 . S
C496 C495 1.365 . S
C496 C497 1.393 . S
C497 C496 1.393 . S
C497 C498 1.387 . S
C498 H485 0.930 . S
C498 C493 1.415 . S
C498 C497 1.387 . S
H499 C507 0.930 . S
H500 C510 0.930 1_545 S
H501 C512 0.930 . S
H502 C513 0.970 . S
H503 C513 0.970 . S
H504 C515 0.930 . S
H505 C517 0.930 . S
H506 C519 0.930 . S
C507 H499 0.930 . S
C507 C508 1.382 . S
C507 C509 1.399 1_565 S
C508 C507 1.382 . S
C508 C512 1.389 . S
C509 C507 1.399 1_545 S
C509 C510 1.357 1_545 S
C509 C513 1.579 . S
C510 H500 0.930 1_565 S
C510 C509 1.357 1_565 S
C510 C511 1.416 . S
C511 C510 1.416 . S
C511 C512 1.371 . S
C512 H501 0.930 . S
C512 C508 1.389 . S
C512 C511 1.371 . S
C513 H502 0.970 . S
C513 H503 0.970 . S
C513 C509 1.579 . S
C513 C514 1.499 . S
C514 C513 1.499 . S
C514 C515 1.370 . S
C514 C519 1.415 . S
C515 H504 0.930 . S
C515 C514 1.370 . S
C515 C516 1.407 . S
C516 C515 1.407 . S
C516 C517 1.365 . S
C517 H505 0.930 . S
C517 C516 1.365 . S
C517 C518 1.393 . S
C518 C517 1.393 . S
C518 C519 1.387 . S
C519 H506 0.930 . S
C519 C514 1.415 . S
C519 C518 1.387 . S
H520 C528 0.930 . S
H521 C531 0.930 . S
H522 C533 0.930 . S
H523 C534 0.970 . S
H524 C534 0.970 1_655 S
H525 C536 0.930 . S
H526 C538 0.930 . S
H527 C540 0.930 . S
C528 H520 0.930 . S
C528 C529 1.382 . S
C528 C530 1.426 . S
C529 C528 1.382 . S
C529 C533 1.389 . S
C530 C528 1.426 . S
C530 C531 1.375 . S
C530 C534 1.532 1_655 S
C531 H521 0.930 . S
C531 C530 1.375 . S
C531 C532 1.416 . S
C532 C531 1.416 . S
C532 C533 1.371 . S
C533 H522 0.930 . S
C533 C529 1.389 . S
C533 C532 1.371 . S
C534 H523 0.970 . S
C534 H524 0.970 1_455 S
C534 C530 1.532 1_455 S
C534 C535 1.499 . S
C535 C534 1.499 . S
C535 C536 1.370 . S
C535 C540 1.415 . S
C536 H525 0.930 . S
C536 C535 1.370 . S
C536 C537 1.407 . S
C537 C536 1.407 . S
C537 C538 1.365 . S
C538 H526 0.930 . S
C538 C537 1.365 . S
C538 C539 1.393 . S
C539 C538 1.393 . S
C539 C540 1.387 . S
C540 H527 0.930 . S
C540 C535 1.415 . S
C540 C539 1.387 . S
H541 C549 0.930 . S
H542 C552 0.930 . S
H543 C554 0.930 . S
H544 C555 0.970 . S
H545 C555 0.970 . S
H546 C557 0.930 . S
H547 C559 0.930 . S
H548 C561 0.930 . S
C549 H541 0.930 . S
C549 C550 1.382 . S
C549 C551 1.426 . S
C550 C549 1.382 . S
C550 C554 1.389 . S
C551 C549 1.426 . S
C551 C552 1.375 . S
C551 C555 1.532 1_565 S
C552 H542 0.930 . S
C552 C551 1.375 . S
C552 C553 1.416 . S
C553 C552 1.416 . S
C553 C554 1.371 . S
C554 H543 0.930 . S
C554 C550 1.389 . S
C554 C553 1.371 . S
C555 H544 0.970 . S
C555 H545 0.970 . S
C555 C551 1.532 1_545 S
C555 C556 1.499 . S
C556 C555 1.499 . S
C556 C557 1.370 . S
C556 C561 1.415 . S
C557 H546 0.930 . S
C557 C556 1.370 . S
C557 C558 1.407 . S
C558 C557 1.407 . S
C558 C559 1.365 . S
C559 H547 0.930 . S
C559 C558 1.365 . S
C559 C560 1.393 . S
C560 C559 1.393 . S
C560 C561 1.387 . S
C561 H548 0.930 . S
C561 C556 1.415 . S
C561 C560 1.387 . S
H562 C570 0.930 . S
H563 C573 0.930 . S
H564 C575 0.930 . S
H565 C576 0.970 . S
H566 C576 0.970 . S
H567 C578 0.930 . S
H568 C580 0.930 . S
H569 C582 0.930 . S
C570 H562 0.930 . S
C570 C571 1.382 . S
C570 C572 1.426 . S
C571 C570 1.382 . S
C571 C575 1.389 . S
C572 C570 1.426 . S
C572 C573 1.375 . S
C572 C576 1.532 . S
C573 H563 0.930 . S
C573 C572 1.375 . S
C573 C574 1.416 . S
C574 C573 1.416 . S
C574 C575 1.371 . S
C575 H564 0.930 . S
C575 C571 1.389 . S
C575 C574 1.371 . S
C576 H565 0.970 . S
C576 H566 0.970 . S
C576 C572 1.532 . S
C576 C577 1.499 . S
C577 C576 1.499 . S
C577 C578 1.370 . S
C577 C582 1.415 . S
C578 H567 0.930 . S
C578 C577 1.370 . S
C578 C579 1.407 . S
C579 C578 1.407 . S
C579 C580 1.365 . S
C580 H568 0.930 . S
C580 C579 1.365 . S
C580 C581 1.393 . S
C581 C580 1.393 . S
C581 C582 1.387 . S
C582 H569 0.930 . S
C582 C577 1.415 . S
C582 C581 1.387 . S
H583 C591 0.930 . S
H584 C594 0.927 1_545 S
H585 C596 0.930 . S
H586 C597 0.970 . S
H587 C597 0.970 . S
H588 C599 0.930 . S
H589 C601 0.930 . S
H590 C603 0.930 . S
C591 H583 0.930 . S
C591 C592 1.382 . S
C591 C593 1.426 1_565 S
C592 C591 1.382 . S
C592 C596 1.389 . S
C593 C591 1.426 1_545 S
C593 C594 1.373 1_545 S
C593 C597 1.532 . S
C594 H584 0.927 1_565 S
C594 C593 1.373 1_565 S
C594 C595 1.422 . S
C595 C594 1.422 . S
C595 C596 1.371 . S
C596 H585 0.930 . S
C596 C592 1.389 . S
C596 C595 1.371 . S
C597 H586 0.970 . S
C597 H587 0.970 . S
C597 C593 1.532 . S
C597 C598 1.499 . S
C598 C597 1.499 . S
C598 C599 1.370 . S
C598 C603 1.415 . S
C599 H588 0.930 . S
C599 C598 1.370 . S
C599 C600 1.407 . S
C600 C599 1.407 . S
C600 C601 1.365 . S
C601 H589 0.930 . S
C601 C600 1.365 . S
C601 C602 1.393 . S
C602 C601 1.393 . S
C602 C603 1.387 . S
C603 H590 0.930 . S
C603 C598 1.415 . S
C603 C602 1.387 . S
H604 C612 0.930 . S
H605 C615 0.930 . S
H606 C617 0.930 . S
H607 C618 0.970 . S
H608 C618 0.970 . S
H609 C620 0.930 . S
H610 C622 0.930 . S
H611 C624 0.930 . S
C612 H604 0.930 . S
C612 C613 1.382 . S
C612 C614 1.426 . S
C613 C612 1.382 . S
C613 C617 1.389 . S
C614 C612 1.426 . S
C614 C615 1.375 . S
C614 C618 1.532 . S
C615 H605 0.930 . S
C615 C614 1.375 . S
C615 C616 1.416 . S
C616 C615 1.416 . S
C616 C617 1.371 . S
C617 H606 0.930 . S
C617 C613 1.389 . S
C617 C616 1.371 . S
C618 H607 0.970 . S
C618 H608 0.970 . S
C618 C614 1.532 . S
C618 C619 1.499 . S
C619 C618 1.499 . S
C619 C620 1.370 . S
C619 C624 1.415 . S
C620 H609 0.930 . S
C620 C619 1.370 . S
C620 C621 1.407 . S
C621 C620 1.407 . S
C621 C622 1.365 . S
C622 H610 0.930 . S
C622 C621 1.365 . S
C622 C623 1.393 . S
C623 C622 1.393 . S
C623 C624 1.387 . S
C624 H611 0.930 . S
C624 C619 1.415 . S
C624 C623 1.387 . S
H625 C633 0.930 . S
H626 C636 0.930 . S
H627 C638 0.930 . S
H628 C639 0.970 . S
H629 C639 0.970 . S
H630 C641 0.930 . S
H631 C643 0.930 . S
H632 C645 0.930 . S
C633 H625 0.930 . S
C633 C634 1.382 . S
C633 C635 1.426 . S
C634 C633 1.382 . S
C634 C638 1.389 . S
C635 C633 1.426 . S
C635 C636 1.375 . S
C635 C639 1.532 . S
C636 H626 0.930 . S
C636 C635 1.375 . S
C636 C637 1.416 . S
C637 C636 1.416 . S
C637 C638 1.371 . S
C638 H627 0.930 . S
C638 C634 1.389 . S
C638 C637 1.371 . S
C639 H628 0.970 . S
C639 H629 0.970 . S
C639 C635 1.532 . S
C639 C640 1.499 . S
C640 C639 1.499 . S
C640 C641 1.370 . S
C640 C645 1.415 . S
C641 H630 0.930 . S
C641 C640 1.370 . S
C641 C642 1.407 . S
C642 C641 1.407 . S
C642 C643 1.365 . S
C643 H631 0.930 . S
C643 C642 1.365 . S
C643 C644 1.393 . S
C644 C643 1.393 . S
C644 C645 1.387 . S
C645 H632 0.930 . S
C645 C640 1.415 . S
C645 C644 1.387 . S
H646 C654 0.930 . S
H647 C657 0.930 . S
H648 C659 0.930 . S
H649 C660 0.970 . S
H650 C660 0.970 . S
H651 C662 0.930 . S
H652 C664 0.930 . S
H653 C666 0.930 . S
C654 H646 0.930 . S
C654 C655 1.382 . S
C654 C656 1.426 . S
C655 C654 1.382 . S
C655 C659 1.389 . S
C656 C654 1.426 . S
C656 C657 1.375 . S
C656 C660 1.532 . S
C657 H647 0.930 . S
C657 C656 1.375 . S
C657 C658 1.416 . S
C658 C657 1.416 . S
C658 C659 1.371 . S
C659 H648 0.930 . S
C659 C655 1.389 . S
C659 C658 1.371 . S
C660 H649 0.970 . S
C660 H650 0.970 . S
C660 C656 1.532 . S
C660 C661 1.499 . S
C661 C660 1.499 . S
C661 C662 1.370 . S
C661 C666 1.415 . S
C662 H651 0.930 . S
C662 C661 1.370 . S
C662 C663 1.407 . S
C663 C662 1.407 . S
C663 C664 1.365 . S
C664 H652 0.930 . S
C664 C663 1.365 . S
C664 C665 1.393 . S
C665 C664 1.393 . S
C665 C666 1.387 . S
C666 H653 0.930 . S
C666 C661 1.415 . S
C666 C665 1.387 . S
H667 C675 0.930 . S
H668 C678 0.930 . S
H669 C680 0.930 . S
H670 C681 0.970 . S
H671 C681 0.970 . S
H672 C683 0.930 . S
H673 C685 0.930 . S
H674 C687 0.930 . S
C675 H667 0.930 . S
C675 C676 1.382 . S
C675 C677 1.426 . S
C676 C675 1.382 . S
C676 C680 1.389 . S
C677 C675 1.426 . S
C677 C678 1.375 . S
C677 C681 1.532 . S
C678 H668 0.930 . S
C678 C677 1.375 . S
C678 C679 1.416 . S
C679 C678 1.416 . S
C679 C680 1.371 . S
C680 H669 0.930 . S
C680 C676 1.389 . S
C680 C679 1.371 . S
C681 H670 0.970 . S
C681 H671 0.970 . S
C681 C677 1.532 . S
C681 C682 1.499 . S
C682 C681 1.499 . S
C682 C683 1.370 . S
C682 C687 1.415 . S
C683 H672 0.930 . S
C683 C682 1.370 . S
C683 C684 1.407 . S
C684 C683 1.407 . S
C684 C685 1.365 . S
C685 H673 0.930 . S
C685 C684 1.365 . S
C685 C686 1.393 . S
C686 C685 1.393 . S
C686 C687 1.387 . S
C687 H674 0.930 . S
C687 C682 1.415 . S
C687 C686 1.387 . S
H688 C696 0.930 . S
H689 C699 0.930 . S
H690 C701 0.930 . S
H691 C702 0.970 . S
H692 C702 0.970 . S
H693 C704 0.930 . S
H694 C706 0.930 . S
H695 C708 0.930 . S
C696 H688 0.930 . S
C696 C697 1.382 . S
C696 C698 1.426 . S
C697 C696 1.382 . S
C697 C701 1.389 . S
C698 C696 1.426 . S
C698 C699 1.375 . S
C698 C702 1.532 . S
C699 H689 0.930 . S
C699 C698 1.375 . S
C699 C700 1.416 . S
C700 C699 1.416 . S
C700 C701 1.371 . S
C701 H690 0.930 . S
C701 C697 1.389 . S
C701 C700 1.371 . S
C702 H691 0.970 . S
C702 H692 0.970 . S
C702 C698 1.532 . S
C702 C703 1.499 . S
C703 C702 1.499 . S
C703 C704 1.370 . S
C703 C708 1.415 . S
C704 H693 0.930 . S
C704 C703 1.370 . S
C704 C705 1.407 . S
C705 C704 1.407 . S
C705 C706 1.365 . S
C706 H694 0.930 . S
C706 C705 1.365 . S
C706 C707 1.393 . S
C707 C706 1.393 . S
C707 C708 1.387 . S
C708 H695 0.930 . S
C708 C703 1.415 . S
C708 C707 1.387 . S
H709 C717 0.930 . S
H710 C720 0.930 . S
H711 C722 0.930 . S
H712 C723 0.970 . S
H713 C723 0.970 . S
H714 C725 0.930 . S
H715 C727 0.930 . S
H716 C729 0.930 . S
C717 H709 0.930 . S
C717 C718 1.382 . S
C717 C719 1.426 . S
C718 C717 1.382 . S
C718 C722 1.389 . S
C719 C717 1.426 . S
C719 C720 1.375 . S
C719 C723 1.532 . S
C720 H710 0.930 . S
C720 C719 1.375 . S
C720 C721 1.416 . S
C721 C720 1.416 . S
C721 C722 1.371 . S
C722 H711 0.930 . S
C722 C718 1.389 . S
C722 C721 1.371 . S
C723 H712 0.970 . S
C723 H713 0.970 . S
C723 C719 1.532 . S
C723 C724 1.499 . S
C724 C723 1.499 . S
C724 C725 1.370 . S
C724 C729 1.415 . S
C725 H714 0.930 . S
C725 C724 1.370 . S
C725 C726 1.407 . S
C726 C725 1.407 . S
C726 C727 1.365 . S
C727 H715 0.930 . S
C727 C726 1.365 . S
C727 C728 1.393 . S
C728 C727 1.393 . S
C728 C729 1.387 . S
C729 H716 0.930 . S
C729 C724 1.415 . S
C729 C728 1.387 . S
H730 C738 0.930 . S
H731 C741 0.930 . S
H732 C743 0.930 . S
H733 C744 0.970 . S
H734 C744 0.970 . S
H735 C746 0.930 . S
H736 C748 0.930 . S
H737 C750 0.930 . S
C738 H730 0.930 . S
C738 C739 1.382 . S
C738 C740 1.426 . S
C739 C738 1.382 . S
C739 C743 1.389 . S
C740 C738 1.426 . S
C740 C741 1.375 . S
C740 C744 1.532 . S
C741 H731 0.930 . S
C741 C740 1.375 . S
C741 C742 1.416 . S
C742 C741 1.416 . S
C742 C743 1.371 . S
C743 H732 0.930 . S
C743 C739 1.389 . S
C743 C742 1.371 . S
C744 H733 0.970 . S
C744 H734 0.970 . S
C744 C740 1.532 . S
C744 C745 1.499 . S
C745 C744 1.499 . S
C745 C746 1.370 . S
C745 C750 1.415 . S
C746 H735 0.930 . S
C746 C745 1.370 . S
C746 C747 1.407 . S
C747 C746 1.407 . S
C747 C748 1.365 . S
C748 H736 0.930 . S
C748 C747 1.365 . S
C748 C749 1.393 . S
C749 C748 1.393 . S
C749 C750 1.387 . S
C750 H737 0.930 . S
C750 C745 1.415 . S
C750 C749 1.387 . S
H751 C759 0.930 . S
H752 C762 0.930 . S
H753 C764 0.930 . S
H754 C765 0.970 . S
H755 C765 0.970 . S
H756 C767 0.930 . S
H757 C769 0.930 . S
H758 C771 0.930 . S
C759 H751 0.930 . S
C759 C760 1.382 . S
C759 C761 1.426 . S
C760 C759 1.382 . S
C760 C764 1.389 . S
C761 C759 1.426 . S
C761 C762 1.375 . S
C761 C765 1.532 . S
C762 H752 0.930 . S
C762 C761 1.375 . S
C762 C763 1.416 . S
C763 C762 1.416 . S
C763 C764 1.371 . S
C764 H753 0.930 . S
C764 C760 1.389 . S
C764 C763 1.371 . S
C765 H754 0.970 . S
C765 H755 0.970 . S
C765 C761 1.532 . S
C765 C766 1.499 . S
C766 C765 1.499 . S
C766 C767 1.370 . S
C766 C771 1.415 . S
C767 H756 0.930 . S
C767 C766 1.370 . S
C767 C768 1.407 . S
C768 C767 1.407 . S
C768 C769 1.365 . S
C769 H757 0.930 . S
C769 C768 1.365 . S
C769 C770 1.393 . S
C770 C769 1.393 . S
C770 C771 1.387 . S
C771 H758 0.930 . S
C771 C766 1.415 . S
C771 C770 1.387 . S
H772 C780 0.930 . S
H773 C783 0.930 . S
H774 C785 0.930 . S
H775 C786 0.970 . S
H776 C786 0.970 . S
H777 C788 0.930 . S
H778 C790 0.930 . S
H779 C792 0.930 . S
C780 H772 0.930 . S
C780 C781 1.382 . S
C780 C782 1.426 . S
C781 C780 1.382 . S
C781 C785 1.389 . S
C782 C780 1.426 . S
C782 C783 1.375 . S
C782 C786 1.532 . S
C783 H773 0.930 . S
C783 C782 1.375 . S
C783 C784 1.416 . S
C784 C783 1.416 . S
C784 C785 1.371 . S
C785 H774 0.930 . S
C785 C781 1.389 . S
C785 C784 1.371 . S
C786 H775 0.970 . S
C786 H776 0.970 . S
C786 C782 1.532 . S
C786 C787 1.499 . S
C787 C786 1.499 . S
C787 C788 1.370 . S
C787 C792 1.415 . S
C788 H777 0.930 . S
C788 C787 1.370 . S
C788 C789 1.407 . S
C789 C788 1.407 . S
C789 C790 1.365 . S
C790 H778 0.930 . S
C790 C789 1.365 . S
C790 C791 1.393 . S
C791 C790 1.393 . S
C791 C792 1.387 . S
C792 H779 0.930 . S
C792 C787 1.415 . S
C792 C791 1.387 . S
H793 C801 0.930 . S
H794 C804 0.930 . S
H795 C806 0.930 . S
H796 C807 0.970 . S
H797 C807 0.970 . S
H798 C809 0.930 . S
H799 C811 0.930 . S
H800 C813 0.930 . S
C801 H793 0.930 . S
C801 C802 1.382 . S
C801 C803 1.426 . S
C802 C801 1.382 . S
C802 C806 1.389 . S
C803 C801 1.426 . S
C803 C804 1.375 . S
C803 C807 1.532 . S
C804 H794 0.930 . S
C804 C803 1.375 . S
C804 C805 1.416 . S
C805 C804 1.416 . S
C805 C806 1.371 . S
C806 H795 0.930 . S
C806 C802 1.389 . S
C806 C805 1.371 . S
C807 H796 0.970 . S
C807 H797 0.970 . S
C807 C803 1.532 . S
C807 C808 1.499 . S
C808 C807 1.499 . S
C808 C809 1.370 . S
C808 C813 1.415 . S
C809 H798 0.930 . S
C809 C808 1.370 . S
C809 C810 1.407 . S
C810 C809 1.407 . S
C810 C811 1.365 . S
C811 H799 0.930 . S
C811 C810 1.365 . S
C811 C812 1.393 . S
C812 C811 1.393 . S
C812 C813 1.387 . S
C813 H800 0.930 . S
C813 C808 1.415 . S
C813 C812 1.387 . S
H814 C822 0.930 . S
H815 C825 0.930 . S
H816 C827 0.930 . S
H817 C828 0.970 . S
H818 C828 0.970 . S
H819 C830 0.930 . S
H820 C832 0.930 . S
H821 C834 0.930 . S
C822 H814 0.930 . S
C822 C823 1.382 . S
C822 C824 1.426 . S
C823 C822 1.382 . S
C823 C827 1.389 . S
C824 C822 1.426 . S
C824 C825 1.375 . S
C824 C828 1.532 . S
C825 H815 0.930 . S
C825 C824 1.375 . S
C825 C826 1.416 . S
C826 C825 1.416 . S
C826 C827 1.371 . S
C827 H816 0.930 . S
C827 C823 1.389 . S
C827 C826 1.371 . S
C828 H817 0.970 . S
C828 H818 0.970 . S
C828 C824 1.532 . S
C828 C829 1.499 . S
C829 C828 1.499 . S
C829 C830 1.370 . S
C829 C834 1.415 . S
C830 H819 0.930 . S
C830 C829 1.370 . S
C830 C831 1.407 . S
C831 C830 1.407 . S
C831 C832 1.365 . S
C832 H820 0.930 . S
C832 C831 1.365 . S
C832 C833 1.393 . S
C833 C832 1.393 . S
C833 C834 1.387 . S
C834 H821 0.930 . S
C834 C829 1.415 . S
C834 C833 1.387 . S
H835 C843 0.930 . S
H836 C846 0.930 . S
H837 C848 0.930 . S
H838 C849 0.970 . S
H839 C849 0.970 . S
H840 C851 0.930 . S
H841 C853 0.930 . S
H842 C855 0.930 . S
C843 H835 0.930 . S
C843 C844 1.382 . S
C843 C845 1.426 . S
C844 C843 1.382 . S
C844 C848 1.389 . S
C845 C843 1.426 . S
C845 C846 1.375 . S
C845 C849 1.532 . S
C846 H836 0.930 . S
C846 C845 1.375 . S
C846 C847 1.416 . S
C847 C846 1.416 . S
C847 C848 1.371 . S
C848 H837 0.930 . S
C848 C844 1.389 . S
C848 C847 1.371 . S
C849 H838 0.970 . S
C849 H839 0.970 . S
C849 C845 1.532 . S
C849 C850 1.499 . S
C850 C849 1.499 . S
C850 C851 1.370 . S
C850 C855 1.415 . S
C851 H840 0.930 . S
C851 C850 1.370 . S
C851 C852 1.407 . S
C852 C851 1.407 . S
C852 C853 1.365 . S
C853 H841 0.930 . S
C853 C852 1.365 . S
C853 C854 1.393 . S
C854 C853 1.393 . S
C854 C855 1.387 . S
C855 H842 0.930 . S
C855 C850 1.415 . S
C855 C854 1.387 . S
H856 C864 0.950 . S
H857 C869 0.950 . S
H858 C866 0.950 . S
H859 C868 0.950 . S
H860 C870 0.950 . S
H861 C872 0.950 . S
H862 C874 0.950 . S
H863 C875 0.950 . S
C864 H856 0.950 . S
C864 C865 1.386 . S
C864 C866 1.391 . S
C865 C864 1.386 . S
C865 C869 1.393 . S
C866 H858 0.950 . S
C866 C864 1.391 . S
C866 C867 1.400 . S
C867 C866 1.400 . S
C867 C868 1.398 . S
C867 C873 1.491 . S
C868 H859 0.950 . S
C868 C867 1.398 . S
C868 C869 1.391 . S
C869 H857 0.950 . S
C869 C865 1.393 . S
C869 C868 1.391 . S
C870 H860 0.950 . S
C870 C871 1.386 . S
C870 C872 1.391 . S
C871 C870 1.386 . S
C871 C875 1.393 . S
C872 H861 0.950 . S
C872 C870 1.391 . S
C872 C873 1.400 . S
C873 C867 1.491 . S
C873 C872 1.400 . S
C873 C874 1.398 . S
C874 H862 0.950 . S
C874 C873 1.398 . S
C874 C875 1.391 . S
C875 H863 0.950 . S
C875 C871 1.393 . S
C875 C874 1.391 . S
H876 C884 0.950 . S
H877 C889 0.950 . S
H878 C886 0.950 . S
H879 C888 0.950 . S
H880 C890 0.950 . S
H881 C892 0.950 . S
H882 C894 0.950 . S
H883 C895 0.950 . S
C884 H876 0.950 . S
C884 C885 1.386 . S
C884 C886 1.391 . S
C885 C884 1.386 . S
C885 C889 1.393 . S
C886 H878 0.950 . S
C886 C884 1.391 . S
C886 C887 1.400 . S
C887 C886 1.400 . S
C887 C888 1.398 . S
C887 C893 1.491 . S
C888 H879 0.950 . S
C888 C887 1.398 . S
C888 C889 1.391 . S
C889 H877 0.950 . S
C889 C885 1.393 . S
C889 C888 1.391 . S
C890 H880 0.950 . S
C890 C891 1.386 . S
C890 C892 1.391 . S
C891 C890 1.386 . S
C891 C895 1.393 . S
C892 H881 0.950 . S
C892 C890 1.391 . S
C892 C893 1.400 . S
C893 C887 1.491 . S
C893 C892 1.400 . S
C893 C894 1.398 . S
C894 H882 0.950 . S
C894 C893 1.398 . S
C894 C895 1.391 . S
C895 H883 0.950 . S
C895 C891 1.393 . S
C895 C894 1.391 . S
H896 C904 0.950 . S
H897 C909 0.950 . S
H898 C906 0.950 . S
H899 C908 0.950 . S
H900 C910 0.950 . S
H901 C912 0.950 . S
H902 C914 0.950 . S
H903 C915 0.950 . S
C904 H896 0.950 . S
C904 C905 1.386 . S
C904 C906 1.391 . S
C905 C904 1.386 . S
C905 C909 1.393 . S
C906 H898 0.950 . S
C906 C904 1.391 . S
C906 C907 1.400 . S
C907 C906 1.400 . S
C907 C908 1.398 . S
C907 C913 1.491 . S
C908 H899 0.950 . S
C908 C907 1.398 . S
C908 C909 1.391 . S
C909 H897 0.950 . S
C909 C905 1.393 . S
C909 C908 1.391 . S
C910 H900 0.950 . S
C910 C911 1.386 . S
C910 C912 1.391 . S
C911 C910 1.386 . S
C911 C915 1.393 . S
C912 H901 0.950 . S
C912 C910 1.391 . S
C912 C913 1.400 . S
C913 C907 1.491 . S
C913 C912 1.400 . S
C913 C914 1.398 . S
C914 H902 0.950 . S
C914 C913 1.398 . S
C914 C915 1.391 . S
C915 H903 0.950 . S
C915 C911 1.393 . S
C915 C914 1.391 . S
H916 C924 0.950 . S
H917 C929 0.950 . S
H918 C926 0.950 . S
H919 C928 0.950 . S
H920 C930 0.950 . S
H921 C932 0.950 . S
H922 C934 0.950 . S
H923 C935 0.950 . S
C924 H916 0.950 . S
C924 C925 1.386 . S
C924 C926 1.391 . S
C925 C924 1.386 . S
C925 C929 1.393 . S
C926 H918 0.950 . S
C926 C924 1.391 . S
C926 C927 1.400 . S
C927 C926 1.400 . S
C927 C928 1.398 . S
C927 C933 1.491 . S
C928 H919 0.950 . S
C928 C927 1.398 . S
C928 C929 1.391 . S
C929 H917 0.950 . S
C929 C925 1.393 . S
C929 C928 1.391 . S
C930 H920 0.950 . S
C930 C931 1.386 . S
C930 C932 1.391 . S
C931 C930 1.386 . S
C931 C935 1.393 . S
C932 H921 0.950 . S
C932 C930 1.391 . S
C932 C933 1.400 . S
C933 C927 1.491 . S
C933 C932 1.400 . S
C933 C934 1.398 . S
C934 H922 0.950 . S
C934 C933 1.398 . S
C934 C935 1.391 . S
C935 H923 0.950 . S
C935 C931 1.393 . S
C935 C934 1.391 . S
H936 C944 0.950 . S
H937 C949 0.950 . S
H938 C946 0.950 . S
H939 C948 0.950 . S
H940 C950 0.950 . S
H941 C952 0.950 . S
H942 C954 0.950 . S
H943 C955 0.950 . S
C944 H936 0.950 . S
C944 C945 1.386 . S
C944 C946 1.391 . S
C945 C944 1.386 . S
C945 C949 1.393 . S
C946 H938 0.950 . S
C946 C944 1.391 . S
C946 C947 1.400 . S
C947 C946 1.400 . S
C947 C948 1.398 . S
C947 C953 1.491 . S
C948 H939 0.950 . S
C948 C947 1.398 . S
C948 C949 1.391 . S
C949 H937 0.950 . S
C949 C945 1.393 . S
C949 C948 1.391 . S
C950 H940 0.950 . S
C950 C951 1.386 . S
C950 C952 1.391 . S
C951 C950 1.386 . S
C951 C955 1.393 . S
C952 H941 0.950 . S
C952 C950 1.391 . S
C952 C953 1.400 . S
C953 C947 1.491 . S
C953 C952 1.400 . S
C953 C954 1.398 . S
C954 H942 0.950 . S
C954 C953 1.398 . S
C954 C955 1.391 . S
C955 H943 0.950 . S
C955 C951 1.393 . S
C955 C954 1.391 . S
H956 C964 0.950 . S
H957 C969 0.950 . S
H958 C966 0.950 . S
H959 C968 0.950 . S
H960 C970 0.950 . S
H961 C972 0.950 . S
H962 C974 0.950 . S
H963 C975 0.950 . S
C964 H956 0.950 . S
C964 C965 1.386 . S
C964 C966 1.391 . S
C965 C964 1.386 . S
C965 C969 1.393 . S
C966 H958 0.950 . S
C966 C964 1.391 . S
C966 C967 1.400 . S
C967 C966 1.400 . S
C967 C968 1.398 . S
C967 C973 1.491 . S
C968 H959 0.950 . S
C968 C967 1.398 . S
C968 C969 1.391 . S
C969 H957 0.950 . S
C969 C965 1.393 . S
C969 C968 1.391 . S
C970 H960 0.950 . S
C970 C971 1.386 . S
C970 C972 1.391 . S
C971 C970 1.386 . S
C971 C975 1.393 . S
C972 H961 0.950 . S
C972 C970 1.391 . S
C972 C973 1.400 . S
C973 C967 1.491 . S
C973 C972 1.400 . S
C973 C974 1.398 . S
C974 H962 0.950 . S
C974 C973 1.398 . S
C974 C975 1.391 . S
C975 H963 0.950 . S
C975 C971 1.393 . S
C975 C974 1.391 . S
H976 C984 0.950 . S
H977 C989 0.950 . S
H978 C986 0.950 . S
H979 C988 0.950 . S
H980 C990 0.950 . S
H981 C992 0.950 . S
H982 C994 0.950 . S
H983 C995 0.950 . S
C984 H976 0.950 . S
C984 C985 1.386 . S
C984 C986 1.391 . S
C985 C984 1.386 . S
C985 C989 1.393 . S
C986 H978 0.950 . S
C986 C984 1.391 . S
C986 C987 1.400 . S
C987 C986 1.400 . S
C987 C988 1.398 . S
C987 C993 1.491 . S
C988 H979 0.950 . S
C988 C987 1.398 . S
C988 C989 1.391 . S
C989 H977 0.950 . S
C989 C985 1.393 . S
C989 C988 1.391 . S
C990 H980 0.950 . S
C990 C991 1.386 . S
C990 C992 1.391 . S
C991 C990 1.386 . S
C991 C995 1.393 . S
C992 H981 0.950 . S
C992 C990 1.391 . S
C992 C993 1.400 . S
C993 C987 1.491 . S
C993 C992 1.400 . S
C993 C994 1.398 . S
C994 H982 0.950 . S
C994 C993 1.398 . S
C994 C995 1.391 . S
C995 H983 0.950 . S
C995 C991 1.393 . S
C995 C994 1.391 . S
H996 C1004 0.950 . S
H997 C1009 0.950 . S
H998 C1006 0.950 . S
H999 C1008 0.950 . S
H1000 C1010 0.950 . S
H1001 C1012 0.950 . S
H1002 C1014 0.950 . S
H1003 C1015 0.950 . S
C1004 H996 0.950 . S
C1004 C1005 1.386 . S
C1004 C1006 1.391 . S
C1005 C1004 1.386 . S
C1005 C1009 1.393 . S
C1006 H998 0.950 . S
C1006 C1004 1.391 . S
C1006 C1007 1.400 . S
C1007 C1006 1.400 . S
C1007 C1008 1.398 . S
C1007 C1013 1.491 . S
C1008 H999 0.950 . S
C1008 C1007 1.398 . S
C1008 C1009 1.391 . S
C1009 H997 0.950 . S
C1009 C1005 1.393 . S
C1009 C1008 1.391 . S
C1010 H1000 0.950 . S
C1010 C1011 1.386 . S
C1010 C1012 1.391 . S
C1011 C1010 1.386 . S
C1011 C1015 1.393 . S
C1012 H1001 0.950 . S
C1012 C1010 1.391 . S
C1012 C1013 1.400 . S
C1013 C1007 1.491 . S
C1013 C1012 1.400 . S
C1013 C1014 1.398 . S
C1014 H1002 0.950 . S
C1014 C1013 1.398 . S
C1014 C1015 1.391 . S
C1015 H1003 0.950 . S
C1015 C1011 1.393 . S
C1015 C1014 1.391 . S
H1016 C1024 0.950 . S
H1017 C1029 0.950 . S
H1018 C1026 0.950 . S
H1019 C1028 0.950 . S
H1020 C1030 0.950 . S
H1021 C1032 0.950 . S
H1022 C1034 0.950 . S
H1023 C1035 0.950 . S
C1024 H1016 0.950 . S
C1024 C1025 1.386 . S
C1024 C1026 1.391 . S
C1025 C1024 1.386 . S
C1025 C1029 1.393 . S
C1026 H1018 0.950 . S
C1026 C1024 1.391 . S
C1026 C1027 1.400 . S
C1027 C1026 1.400 . S
C1027 C1028 1.398 . S
C1027 C1033 1.491 . S
C1028 H1019 0.950 . S
C1028 C1027 1.398 . S
C1028 C1029 1.391 . S
C1029 H1017 0.950 . S
C1029 C1025 1.393 . S
C1029 C1028 1.391 . S
C1030 H1020 0.950 . S
C1030 C1031 1.386 . S
C1030 C1032 1.391 . S
C1031 C1030 1.386 . S
C1031 C1035 1.393 . S
C1032 H1021 0.950 . S
C1032 C1030 1.391 . S
C1032 C1033 1.400 . S
C1033 C1027 1.491 . S
C1033 C1032 1.400 . S
C1033 C1034 1.398 . S
C1034 H1022 0.950 . S
C1034 C1033 1.398 . S
C1034 C1035 1.391 . S
C1035 H1023 0.950 . S
C1035 C1031 1.393 . S
C1035 C1034 1.391 . S
H1036 C1044 0.950 . S
H1037 C1049 0.950 . S
H1038 C1046 0.950 . S
H1039 C1048 0.950 . S
H1040 C1050 0.950 . S
H1041 C1052 0.950 . S
H1042 C1054 0.950 . S
H1043 C1055 0.950 . S
C1044 H1036 0.950 . S
C1044 C1045 1.386 . S
C1044 C1046 1.391 . S
C1045 C1044 1.386 . S
C1045 C1049 1.393 . S
C1046 H1038 0.950 . S
C1046 C1044 1.391 . S
C1046 C1047 1.400 . S
C1047 C1046 1.400 . S
C1047 C1048 1.398 . S
C1047 C1053 1.491 . S
C1048 H1039 0.950 . S
C1048 C1047 1.398 . S
C1048 C1049 1.391 . S
C1049 H1037 0.950 . S
C1049 C1045 1.393 . S
C1049 C1048 1.391 . S
C1050 H1040 0.950 . S
C1050 C1051 1.386 . S
C1050 C1052 1.391 . S
C1051 C1050 1.386 . S
C1051 C1055 1.393 . S
C1052 H1041 0.950 . S
C1052 C1050 1.391 . S
C1052 C1053 1.400 . S
C1053 C1047 1.491 . S
C1053 C1052 1.400 . S
C1053 C1054 1.398 . S
C1054 H1042 0.950 . S
C1054 C1053 1.398 . S
C1054 C1055 1.391 . S
C1055 H1043 0.950 . S
C1055 C1051 1.393 . S
C1055 C1054 1.391 . S
H1056 C1064 0.950 . S
H1057 C1069 0.950 . S
H1058 C1066 0.950 . S
H1059 C1068 0.950 . S
H1060 C1070 0.950 . S
H1061 C1072 0.950 . S
H1062 C1074 0.950 . S
H1063 C1075 0.946 1_455 S
C1064 H1056 0.950 . S
C1064 C1065 1.386 . S
C1064 C1066 1.391 . S
C1065 C1064 1.386 . S
C1065 C1069 1.393 . S
C1066 H1058 0.950 . S
C1066 C1064 1.391 . S
C1066 C1067 1.400 . S
C1067 C1066 1.400 . S
C1067 C1068 1.398 . S
C1067 C1073 1.491 . S
C1068 H1059 0.950 . S
C1068 C1067 1.398 . S
C1068 C1069 1.391 . S
C1069 H1057 0.950 . S
C1069 C1065 1.393 . S
C1069 C1068 1.391 . S
C1070 H1060 0.950 . S
C1070 C1071 1.386 . S
C1070 C1072 1.391 1_455 S
C1071 C1070 1.386 . S
C1071 C1075 1.386 1_455 S
C1072 H1061 0.950 . S
C1072 C1070 1.391 1_655 S
C1072 C1073 1.400 . S
C1073 C1067 1.491 . S
C1073 C1072 1.400 . S
C1073 C1074 1.398 . S
C1074 H1062 0.950 . S
C1074 C1073 1.398 . S
C1074 C1075 1.400 . S
C1075 H1063 0.946 1_655 S
C1075 C1071 1.386 1_655 S
C1075 C1074 1.400 . S
H1076 C1084 0.950 . S
H1077 C1089 0.950 . S
H1078 C1086 0.950 . S
H1079 C1088 0.950 . S
H1080 C1090 0.950 . S
H1081 C1092 0.950 . S
H1082 C1094 0.950 . S
H1083 C1095 0.950 . S
C1084 H1076 0.950 . S
C1084 C1085 1.386 . S
C1084 C1086 1.391 . S
C1085 C1084 1.386 . S
C1085 C1089 1.393 . S
C1086 H1078 0.950 . S
C1086 C1084 1.391 . S
C1086 C1087 1.400 . S
C1087 C1086 1.400 . S
C1087 C1088 1.398 . S
C1087 C1093 1.491 . S
C1088 H1079 0.950 . S
C1088 C1087 1.398 . S
C1088 C1089 1.391 . S
C1089 H1077 0.950 . S
C1089 C1085 1.393 . S
C1089 C1088 1.391 . S
C1090 H1080 0.950 . S
C1090 C1091 1.386 . S
C1090 C1092 1.391 . S
C1091 C1090 1.386 . S
C1091 C1095 1.393 . S
C1092 H1081 0.950 . S
C1092 C1090 1.391 . S
C1092 C1093 1.400 . S
C1093 C1087 1.491 . S
C1093 C1092 1.400 . S
C1093 C1094 1.398 . S
C1094 H1082 0.950 . S
C1094 C1093 1.398 . S
C1094 C1095 1.391 . S
C1095 H1083 0.950 . S
C1095 C1091 1.393 . S
C1095 C1094 1.391 . S
H1096 C1104 0.950 . S
H1097 C1109 0.950 . S
H1098 C1106 0.950 . S
H1099 C1108 0.950 . S
H1100 C1110 0.950 . S
H1101 C1112 0.950 . S
H1102 C1114 0.950 . S
H1103 C1115 0.950 . S
C1104 H1096 0.950 . S
C1104 C1105 1.386 . S
C1104 C1106 1.391 . S
C1105 C1104 1.386 . S
C1105 C1109 1.393 . S
C1106 H1098 0.950 . S
C1106 C1104 1.391 . S
C1106 C1107 1.400 . S
C1107 C1106 1.400 . S
C1107 C1108 1.398 . S
C1107 C1113 1.491 . S
C1108 H1099 0.950 . S
C1108 C1107 1.398 . S
C1108 C1109 1.391 . S
C1109 H1097 0.950 . S
C1109 C1105 1.393 . S
C1109 C1108 1.391 . S
C1110 H1100 0.950 . S
C1110 C1111 1.386 . S
C1110 C1112 1.391 . S
C1111 C1110 1.386 . S
C1111 C1115 1.393 . S
C1112 H1101 0.950 . S
C1112 C1110 1.391 . S
C1112 C1113 1.400 . S
C1113 C1107 1.491 . S
C1113 C1112 1.400 . S
C1113 C1114 1.398 . S
C1114 H1102 0.950 . S
C1114 C1113 1.398 . S
C1114 C1115 1.391 . S
C1115 H1103 0.950 . S
C1115 C1111 1.393 . S
C1115 C1114 1.391 . S
H1116 C1124 0.950 . S
H1117 C1129 0.950 . S
H1118 C1126 0.950 . S
H1119 C1128 0.950 . S
H1120 C1130 0.950 . S
H1121 C1132 0.950 . S
H1122 C1134 0.950 . S
H1123 C1135 0.950 . S
C1124 H1116 0.950 . S
C1124 C1125 1.386 . S
C1124 C1126 1.391 . S
C1125 C1124 1.386 . S
C1125 C1129 1.393 . S
C1126 H1118 0.950 . S
C1126 C1124 1.391 . S
C1126 C1127 1.400 . S
C1127 C1126 1.400 . S
C1127 C1128 1.398 . S
C1127 C1133 1.491 . S
C1128 H1119 0.950 . S
C1128 C1127 1.398 . S
C1128 C1129 1.391 . S
C1129 H1117 0.950 . S
C1129 C1125 1.393 . S
C1129 C1128 1.391 . S
C1130 H1120 0.950 . S
C1130 C1131 1.386 . S
C1130 C1132 1.391 . S
C1131 C1130 1.386 . S
C1131 C1135 1.393 . S
C1132 H1121 0.950 . S
C1132 C1130 1.391 . S
C1132 C1133 1.400 . S
C1133 C1127 1.491 . S
C1133 C1132 1.400 . S
C1133 C1134 1.398 . S
C1134 H1122 0.950 . S
C1134 C1133 1.398 . S
C1134 C1135 1.391 . S
C1135 H1123 0.950 . S
C1135 C1131 1.393 . S
C1135 C1134 1.391 . S
H1136 C1144 0.950 . S
H1137 C1149 0.950 . S
H1138 C1146 0.950 . S
H1139 C1148 0.950 . S
H1140 C1150 0.949 . S
H1141 C1152 0.950 . S
H1142 C1154 0.950 . S
H1143 C1155 0.950 . S
C1144 H1136 0.950 . S
C1144 C1145 1.386 . S
C1144 C1146 1.391 . S
C1145 C1144 1.386 . S
C1145 C1149 1.393 . S
C1146 H1138 0.950 . S
C1146 C1144 1.391 . S
C1146 C1147 1.400 . S
C1147 C1146 1.400 . S
C1147 C1148 1.398 . S
C1147 C1153 1.491 . S
C1148 H1139 0.950 . S
C1148 C1147 1.398 . S
C1148 C1149 1.391 . S
C1149 H1137 0.950 . S
C1149 C1145 1.393 . S
C1149 C1148 1.391 . S
C1150 H1140 0.949 . S
C1150 C1151 1.386 1_655 S
C1150 C1152 1.391 . S
C1151 C1150 1.386 1_455 S
C1151 C1155 1.393 . S
C1152 H1141 0.950 . S
C1152 C1150 1.391 . S
C1152 C1153 1.400 . S
C1153 C1147 1.491 . S
C1153 C1152 1.400 . S
C1153 C1154 1.398 . S
C1154 H1142 0.950 . S
C1154 C1153 1.398 . S
C1154 C1155 1.391 1_655 S
C1155 H1143 0.950 . S
C1155 C1151 1.393 . S
C1155 C1154 1.391 1_455 S
H1156 C1164 0.950 . S
H1157 C1169 0.950 . S
H1158 C1166 0.950 . S
H1159 C1168 0.950 . S
H1160 C1170 0.950 . S
H1161 C1172 0.950 . S
H1162 C1174 0.950 . S
H1163 C1175 0.950 . S
C1164 H1156 0.950 . S
C1164 C1165 1.386 . S
C1164 C1166 1.391 . S
C1165 C1164 1.386 . S
C1165 C1169 1.393 . S
C1166 H1158 0.950 . S
C1166 C1164 1.391 . S
C1166 C1167 1.400 . S
C1167 C1166 1.400 . S
C1167 C1168 1.398 . S
C1167 C1173 1.491 . S
C1168 H1159 0.950 . S
C1168 C1167 1.398 . S
C1168 C1169 1.391 . S
C1169 H1157 0.950 . S
C1169 C1165 1.393 . S
C1169 C1168 1.391 . S
C1170 H1160 0.950 . S
C1170 C1171 1.386 . S
C1170 C1172 1.391 . S
C1171 C1170 1.386 . S
C1171 C1175 1.393 . S
C1172 H1161 0.950 . S
C1172 C1170 1.391 . S
C1172 C1173 1.400 . S
C1173 C1167 1.491 . S
C1173 C1172 1.400 . S
C1173 C1174 1.398 . S
C1174 H1162 0.950 . S
C1174 C1173 1.398 . S
C1174 C1175 1.391 . S
C1175 H1163 0.950 . S
C1175 C1171 1.393 . S
C1175 C1174 1.391 . S
H1176 C1184 0.950 . S
H1177 C1189 0.950 . S
H1178 C1186 0.950 . S
H1179 C1188 0.950 . S
H1180 C1190 0.950 . S
H1181 C1192 0.950 . S
H1182 C1194 0.950 . S
H1183 C1195 0.950 . S
C1184 H1176 0.950 . S
C1184 C1185 1.386 . S
C1184 C1186 1.391 . S
C1185 C1184 1.386 . S
C1185 C1189 1.393 . S
C1186 H1178 0.950 . S
C1186 C1184 1.391 . S
C1186 C1187 1.400 . S
C1187 C1186 1.400 . S
C1187 C1188 1.398 . S
C1187 C1193 1.491 . S
C1188 H1179 0.950 . S
C1188 C1187 1.398 . S
C1188 C1189 1.391 . S
C1189 H1177 0.950 . S
C1189 C1185 1.393 . S
C1189 C1188 1.391 . S
C1190 H1180 0.950 . S
C1190 C1191 1.386 . S
C1190 C1192 1.391 . S
C1191 C1190 1.386 . S
C1191 C1195 1.393 . S
C1192 H1181 0.950 . S
C1192 C1190 1.391 . S
C1192 C1193 1.400 . S
C1193 C1187 1.491 . S
C1193 C1192 1.400 . S
C1193 C1194 1.398 . S
C1194 H1182 0.950 . S
C1194 C1193 1.398 . S
C1194 C1195 1.391 . S
C1195 H1183 0.950 . S
C1195 C1191 1.393 . S
C1195 C1194 1.391 . S
H1196 C1204 0.950 . S
H1197 C1209 0.950 . S
H1198 C1206 0.950 . S
H1199 C1208 0.950 . S
H1200 C1210 0.950 . S
H1201 C1212 0.950 . S
H1202 C1214 0.950 . S
H1203 C1215 0.950 . S
C1204 H1196 0.950 . S
C1204 C1205 1.386 . S
C1204 C1206 1.391 . S
C1205 C1204 1.386 . S
C1205 C1209 1.393 . S
C1206 H1198 0.950 . S
C1206 C1204 1.391 . S
C1206 C1207 1.400 . S
C1207 C1206 1.400 . S
C1207 C1208 1.398 . S
C1207 C1213 1.491 . S
C1208 H1199 0.950 . S
C1208 C1207 1.398 . S
C1208 C1209 1.391 . S
C1209 H1197 0.950 . S
C1209 C1205 1.393 . S
C1209 C1208 1.391 . S
C1210 H1200 0.950 . S
C1210 C1211 1.386 . S
C1210 C1212 1.391 . S
C1211 C1210 1.386 . S
C1211 C1215 1.393 . S
C1212 H1201 0.950 . S
C1212 C1210 1.391 . S
C1212 C1213 1.400 . S
C1213 C1207 1.491 . S
C1213 C1212 1.400 . S
C1213 C1214 1.398 . S
C1214 H1202 0.950 . S
C1214 C1213 1.398 . S
C1214 C1215 1.391 . S
C1215 H1203 0.950 . S
C1215 C1211 1.393 . S
C1215 C1214 1.391 . S
H1216 C1224 0.950 . S
H1217 C1229 0.950 . S
H1218 C1226 0.950 . S
H1219 C1228 0.950 . S
H1220 C1230 0.950 . S
H1221 C1232 0.950 . S
H1222 C1234 0.950 . S
H1223 C1235 0.950 . S
C1224 H1216 0.950 . S
C1224 C1225 1.386 . S
C1224 C1226 1.391 . S
C1225 C1224 1.386 . S
C1225 C1229 1.393 . S
C1226 H1218 0.950 . S
C1226 C1224 1.391 . S
C1226 C1227 1.400 . S
C1227 C1226 1.400 . S
C1227 C1228 1.398 . S
C1227 C1233 1.491 . S
C1228 H1219 0.950 . S
C1228 C1227 1.398 . S
C1228 C1229 1.391 . S
C1229 H1217 0.950 . S
C1229 C1225 1.393 . S
C1229 C1228 1.391 . S
C1230 H1220 0.950 . S
C1230 C1231 1.386 . S
C1230 C1232 1.391 . S
C1231 C1230 1.386 . S
C1231 C1235 1.393 . S
C1232 H1221 0.950 . S
C1232 C1230 1.391 . S
C1232 C1233 1.400 . S
C1233 C1227 1.491 . S
C1233 C1232 1.400 . S
C1233 C1234 1.398 . S
C1234 H1222 0.950 . S
C1234 C1233 1.398 . S
C1234 C1235 1.391 . S
C1235 H1223 0.950 . S
C1235 C1231 1.393 . S
C1235 C1234 1.391 . S
H1236 C1244 0.950 . S
H1237 C1249 0.950 . S
H1238 C1246 0.950 . S
H1239 C1248 0.950 . S
H1240 C1250 0.950 . S
H1241 C1252 0.950 . S
H1242 C1254 0.950 . S
H1243 C1255 0.950 . S
C1244 H1236 0.950 . S
C1244 C1245 1.386 . S
C1244 C1246 1.391 . S
C1245 C1244 1.386 . S
C1245 C1249 1.393 . S
C1246 H1238 0.950 . S
C1246 C1244 1.391 . S
C1246 C1247 1.400 . S
C1247 C1246 1.400 . S
C1247 C1248 1.398 . S
C1247 C1253 1.491 . S
C1248 H1239 0.950 . S
C1248 C1247 1.398 . S
C1248 C1249 1.391 . S
C1249 H1237 0.950 . S
C1249 C1245 1.393 . S
C1249 C1248 1.391 . S
C1250 H1240 0.950 . S
C1250 C1251 1.386 . S
C1250 C1252 1.391 . S
C1251 C1250 1.386 . S
C1251 C1255 1.393 . S
C1252 H1241 0.950 . S
C1252 C1250 1.391 . S
C1252 C1253 1.400 . S
C1253 C1247 1.491 . S
C1253 C1252 1.400 . S
C1253 C1254 1.398 . S
C1254 H1242 0.950 . S
C1254 C1253 1.398 . S
C1254 C1255 1.391 . S
C1255 H1243 0.950 . S
C1255 C1251 1.393 . S
C1255 C1254 1.391 . S
H1256 C1264 0.950 . S
H1257 C1269 0.950 . S
H1258 C1266 0.950 . S
H1259 C1268 0.950 . S
H1260 C1270 0.950 . S
H1261 C1272 0.950 . S
H1262 C1274 0.950 . S
H1263 C1275 0.950 . S
C1264 H1256 0.950 . S
C1264 C1265 1.386 . S
C1264 C1266 1.391 . S
C1265 C1264 1.386 . S
C1265 C1269 1.393 . S
C1266 H1258 0.950 . S
C1266 C1264 1.391 . S
C1266 C1267 1.400 . S
C1267 C1266 1.400 . S
C1267 C1268 1.398 . S
C1267 C1273 1.491 . S
C1268 H1259 0.950 . S
C1268 C1267 1.398 . S
C1268 C1269 1.391 . S
C1269 H1257 0.950 . S
C1269 C1265 1.393 . S
C1269 C1268 1.391 . S
C1270 H1260 0.950 . S
C1270 C1271 1.386 . S
C1270 C1272 1.391 . S
C1271 C1270 1.386 . S
C1271 C1275 1.393 . S
C1272 H1261 0.950 . S
C1272 C1270 1.391 . S
C1272 C1273 1.400 . S
C1273 C1267 1.491 . S
C1273 C1272 1.400 . S
C1273 C1274 1.398 . S
C1274 H1262 0.950 . S
C1274 C1273 1.398 . S
C1274 C1275 1.391 . S
C1275 H1263 0.950 . S
C1275 C1271 1.393 . S
C1275 C1274 1.391 . S
H1276 C1284 0.950 . S
H1277 C1289 0.950 . S
H1278 C1286 0.950 . S
H1279 C1288 0.950 . S
H1280 C1290 0.950 . S
H1281 C1292 0.950 . S
H1282 C1294 0.950 . S
H1283 C1295 0.950 . S
C1284 H1276 0.950 . S
C1284 C1285 1.386 . S
C1284 C1286 1.391 . S
C1285 C1284 1.386 . S
C1285 C1289 1.393 . S
C1286 H1278 0.950 . S
C1286 C1284 1.391 . S
C1286 C1287 1.400 . S
C1287 C1286 1.400 . S
C1287 C1288 1.398 . S
C1287 C1293 1.491 . S
C1288 H1279 0.950 . S
C1288 C1287 1.398 . S
C1288 C1289 1.391 . S
C1289 H1277 0.950 . S
C1289 C1285 1.393 . S
C1289 C1288 1.391 . S
C1290 H1280 0.950 . S
C1290 C1291 1.386 . S
C1290 C1292 1.391 . S
C1291 C1290 1.386 . S
C1291 C1295 1.393 . S
C1292 H1281 0.950 . S
C1292 C1290 1.391 . S
C1292 C1293 1.400 . S
C1293 C1287 1.491 . S
C1293 C1292 1.400 . S
C1293 C1294 1.398 . S
C1294 H1282 0.950 . S
C1294 C1293 1.398 . S
C1294 C1295 1.391 . S
C1295 H1283 0.950 . S
C1295 C1291 1.393 . S
C1295 C1294 1.391 . S
H1296 C1304 0.950 . S
H1297 C1309 0.950 . S
H1298 C1306 0.950 . S
H1299 C1308 0.950 . S
H1300 C1310 0.950 . S
H1301 C1312 0.950 . S
H1302 C1314 0.950 . S
H1303 C1315 0.950 . S
C1304 H1296 0.950 . S
C1304 C1305 1.386 . S
C1304 C1306 1.391 . S
C1305 C1304 1.386 . S
C1305 C1309 1.393 . S
C1306 H1298 0.950 . S
C1306 C1304 1.391 . S
C1306 C1307 1.400 . S
C1307 C1306 1.400 . S
C1307 C1308 1.398 . S
C1307 C1313 1.491 . S
C1308 H1299 0.950 . S
C1308 C1307 1.398 . S
C1308 C1309 1.391 . S
C1309 H1297 0.950 . S
C1309 C1305 1.393 . S
C1309 C1308 1.391 . S
C1310 H1300 0.950 . S
C1310 C1311 1.386 . S
C1310 C1312 1.391 . S
C1311 C1310 1.386 . S
C1311 C1315 1.393 . S
C1312 H1301 0.950 . S
C1312 C1310 1.391 . S
C1312 C1313 1.400 . S
C1313 C1307 1.491 . S
C1313 C1312 1.400 . S
C1313 C1314 1.398 . S
C1314 H1302 0.950 . S
C1314 C1313 1.398 . S
C1314 C1315 1.391 . S
C1315 H1303 0.950 . S
C1315 C1311 1.393 . S
C1315 C1314 1.391 . S
H1316 C1324 0.950 . S
H1317 C1329 0.950 . S
H1318 C1326 0.950 . S
H1319 C1328 0.950 . S
H1320 C1330 0.950 . S
H1321 C1332 0.950 . S
H1322 C1334 0.950 . S
H1323 C1335 0.950 . S
C1324 H1316 0.950 . S
C1324 C1325 1.386 . S
C1324 C1326 1.391 . S
C1325 C1324 1.386 . S
C1325 C1329 1.393 . S
C1326 H1318 0.950 . S
C1326 C1324 1.391 . S
C1326 C1327 1.400 . S
C1327 C1326 1.400 . S
C1327 C1328 1.398 . S
C1327 C1333 1.491 . S
C1328 H1319 0.950 . S
C1328 C1327 1.398 . S
C1328 C1329 1.391 . S
C1329 H1317 0.950 . S
C1329 C1325 1.393 . S
C1329 C1328 1.391 . S
C1330 H1320 0.950 . S
C1330 C1331 1.386 . S
C1330 C1332 1.391 . S
C1331 C1330 1.386 . S
C1331 C1335 1.393 . S
C1332 H1321 0.950 . S
C1332 C1330 1.391 . S
C1332 C1333 1.400 . S
C1333 C1327 1.491 . S
C1333 C1332 1.400 . S
C1333 C1334 1.398 . S
C1334 H1322 0.950 . S
C1334 C1333 1.398 . S
C1334 C1335 1.391 . S
C1335 H1323 0.950 . S
C1335 C1331 1.393 . S
C1335 C1334 1.391 . S
H1336 C1344 0.950 . S
H1337 C1349 0.950 . S
H1338 C1346 0.950 . S
H1339 C1348 0.950 . S
H1340 C1350 0.950 . S
H1341 C1352 0.950 . S
H1342 C1354 0.950 . S
H1343 C1355 0.950 . S
C1344 H1336 0.950 . S
C1344 C1345 1.386 . S
C1344 C1346 1.391 . S
C1345 C1344 1.386 . S
C1345 C1349 1.393 . S
C1346 H1338 0.950 . S
C1346 C1344 1.391 . S
C1346 C1347 1.400 . S
C1347 C1346 1.400 . S
C1347 C1348 1.398 . S
C1347 C1353 1.491 . S
C1348 H1339 0.950 . S
C1348 C1347 1.398 . S
C1348 C1349 1.391 . S
C1349 H1337 0.950 . S
C1349 C1345 1.393 . S
C1349 C1348 1.391 . S
C1350 H1340 0.950 . S
C1350 C1351 1.386 . S
C1350 C1352 1.391 . S
C1351 C1350 1.386 . S
C1351 C1355 1.393 . S
C1352 H1341 0.950 . S
C1352 C1350 1.391 . S
C1352 C1353 1.400 . S
C1353 C1347 1.491 . S
C1353 C1352 1.400 . S
C1353 C1354 1.398 . S
C1354 H1342 0.950 . S
C1354 C1353 1.398 . S
C1354 C1355 1.391 . S
C1355 H1343 0.950 . S
C1355 C1351 1.393 . S
C1355 C1354 1.391 . S
H1356 C1364 0.950 . S
H1357 C1369 0.950 . S
H1358 C1366 0.950 . S
H1359 C1368 0.950 . S
H1360 C1370 0.950 . S
H1361 C1372 0.950 . S
H1362 C1374 0.950 . S
H1363 C1375 0.950 . S
C1364 H1356 0.950 . S
C1364 C1365 1.386 . S
C1364 C1366 1.391 . S
C1365 C1364 1.386 . S
C1365 C1369 1.393 . S
C1366 H1358 0.950 . S
C1366 C1364 1.391 . S
C1366 C1367 1.400 . S
C1367 C1366 1.400 . S
C1367 C1368 1.398 . S
C1367 C1373 1.491 . S
C1368 H1359 0.950 . S
C1368 C1367 1.398 . S
C1368 C1369 1.391 . S
C1369 H1357 0.950 . S
C1369 C1365 1.393 . S
C1369 C1368 1.391 . S
C1370 H1360 0.950 . S
C1370 C1371 1.386 . S
C1370 C1372 1.391 . S
C1371 C1370 1.386 . S
C1371 C1375 1.393 . S
C1372 H1361 0.950 . S
C1372 C1370 1.391 . S
C1372 C1373 1.400 . S
C1373 C1367 1.491 . S
C1373 C1372 1.400 . S
C1373 C1374 1.398 . S
C1374 H1362 0.950 . S
C1374 C1373 1.398 . S
C1374 C1375 1.391 . S
C1375 H1363 0.950 . S
C1375 C1371 1.393 . S
C1375 C1374 1.391 . S
H1376 C1384 0.950 . S
H1377 C1389 0.950 . S
H1378 C1386 0.950 . S
H1379 C1388 0.950 . S
H1380 C1390 0.950 . S
H1381 C1392 0.950 . S
H1382 C1394 0.950 . S
H1383 C1395 0.950 . S
C1384 H1376 0.950 . S
C1384 C1385 1.386 . S
C1384 C1386 1.391 . S
C1385 C1384 1.386 . S
C1385 C1389 1.393 . S
C1386 H1378 0.950 . S
C1386 C1384 1.391 . S
C1386 C1387 1.400 . S
C1387 C1386 1.400 . S
C1387 C1388 1.398 . S
C1387 C1393 1.491 . S
C1388 H1379 0.950 . S
C1388 C1387 1.398 . S
C1388 C1389 1.391 . S
C1389 H1377 0.950 . S
C1389 C1385 1.393 . S
C1389 C1388 1.391 . S
C1390 H1380 0.950 . S
C1390 C1391 1.386 . S
C1390 C1392 1.391 . S
C1391 C1390 1.386 . S
C1391 C1395 1.393 . S
C1392 H1381 0.950 . S
C1392 C1390 1.391 . S
C1392 C1393 1.400 . S
C1393 C1387 1.491 . S
C1393 C1392 1.400 . S
C1393 C1394 1.398 . S
C1394 H1382 0.950 . S
C1394 C1393 1.398 . S
C1394 C1395 1.391 . S
C1395 H1383 0.950 . S
C1395 C1391 1.393 . S
C1395 C1394 1.391 . S
H1396 C1404 0.950 . S
H1397 C1409 0.950 . S
H1398 C1406 0.950 . S
H1399 C1408 0.950 . S
H1400 C1410 0.950 . S
H1401 C1412 0.950 . S
H1402 C1414 0.950 . S
H1403 C1415 0.950 . S
C1404 H1396 0.950 . S
C1404 C1405 1.386 . S
C1404 C1406 1.391 . S
C1405 C1404 1.386 . S
C1405 C1409 1.393 . S
C1406 H1398 0.950 . S
C1406 C1404 1.391 . S
C1406 C1407 1.400 . S
C1407 C1406 1.400 . S
C1407 C1408 1.398 . S
C1407 C1413 1.491 . S
C1408 H1399 0.950 . S
C1408 C1407 1.398 . S
C1408 C1409 1.391 . S
C1409 H1397 0.950 . S
C1409 C1405 1.393 . S
C1409 C1408 1.391 . S
C1410 H1400 0.950 . S
C1410 C1411 1.386 . S
C1410 C1412 1.391 . S
C1411 C1410 1.386 . S
C1411 C1415 1.393 . S
C1412 H1401 0.950 . S
C1412 C1410 1.391 . S
C1412 C1413 1.400 . S
C1413 C1407 1.491 . S
C1413 C1412 1.400 . S
C1413 C1414 1.398 . S
C1414 H1402 0.950 . S
C1414 C1413 1.398 . S
C1414 C1415 1.391 . S
C1415 H1403 0.950 . S
C1415 C1411 1.393 . S
C1415 C1414 1.391 . S
H1416 C1424 0.950 . S
H1417 C1429 0.950 . S
H1418 C1426 0.950 . S
H1419 C1428 0.950 . S
H1420 C1430 0.950 . S
H1421 C1432 0.950 . S
H1422 C1434 0.950 . S
H1423 C1435 0.950 . S
C1424 H1416 0.950 . S
C1424 C1425 1.386 . S
C1424 C1426 1.391 . S
C1425 C1424 1.386 . S
C1425 C1429 1.393 . S
C1426 H1418 0.950 . S
C1426 C1424 1.391 . S
C1426 C1427 1.400 . S
C1427 C1426 1.400 . S
C1427 C1428 1.398 . S
C1427 C1433 1.491 . S
C1428 H1419 0.950 . S
C1428 C1427 1.398 . S
C1428 C1429 1.391 . S
C1429 H1417 0.950 . S
C1429 C1425 1.393 . S
C1429 C1428 1.391 . S
C1430 H1420 0.950 . S
C1430 C1431 1.386 . S
C1430 C1432 1.391 . S
C1431 C1430 1.386 . S
C1431 C1435 1.393 . S
C1432 H1421 0.950 . S
C1432 C1430 1.391 . S
C1432 C1433 1.400 . S
C1433 C1427 1.491 . S
C1433 C1432 1.400 . S
C1433 C1434 1.398 . S
C1434 H1422 0.950 . S
C1434 C1433 1.398 . S
C1434 C1435 1.391 . S
C1435 H1423 0.950 . S
C1435 C1431 1.393 . S
C1435 C1434 1.391 . S
H1436 C1444 0.950 . S
H1437 C1449 0.950 . S
H1438 C1446 0.950 . S
H1439 C1448 0.950 . S
H1440 C1450 0.950 . S
H1441 C1452 0.950 . S
H1442 C1454 0.950 . S
H1443 C1455 0.950 . S
C1444 H1436 0.950 . S
C1444 C1445 1.386 . S
C1444 C1446 1.391 . S
C1445 C1444 1.386 . S
C1445 C1449 1.393 . S
C1446 H1438 0.950 . S
C1446 C1444 1.391 . S
C1446 C1447 1.400 . S
C1447 C1446 1.400 . S
C1447 C1448 1.398 . S
C1447 C1453 1.491 . S
C1448 H1439 0.950 . S
C1448 C1447 1.398 . S
C1448 C1449 1.391 . S
C1449 H1437 0.950 . S
C1449 C1445 1.393 . S
C1449 C1448 1.391 . S
C1450 H1440 0.950 . S
C1450 C1451 1.386 . S
C1450 C1452 1.391 . S
C1451 C1450 1.386 . S
C1451 C1455 1.393 . S
C1452 H1441 0.950 . S
C1452 C1450 1.391 . S
C1452 C1453 1.400 . S
C1453 C1447 1.491 . S
C1453 C1452 1.400 . S
C1453 C1454 1.398 . S
C1454 H1442 0.950 . S
C1454 C1453 1.398 . S
C1454 C1455 1.391 . S
C1455 H1443 0.950 . S
C1455 C1451 1.393 . S
C1455 C1454 1.391 . S
H1456 C1464 0.950 . S
H1457 C1469 0.950 . S
H1458 C1466 0.950 . S
H1459 C1468 0.950 . S
H1460 C1470 0.950 . S
H1461 C1472 0.950 . S
H1462 C1474 0.950 . S
H1463 C1475 0.950 . S
C1464 H1456 0.950 . S
C1464 C1465 1.386 . S
C1464 C1466 1.391 . S
C1465 C1464 1.386 . S
C1465 C1469 1.393 . S
C1466 H1458 0.950 . S
C1466 C1464 1.391 . S
C1466 C1467 1.400 . S
C1467 C1466 1.400 . S
C1467 C1468 1.398 . S
C1467 C1473 1.491 . S
C1468 H1459 0.950 . S
C1468 C1467 1.398 . S
C1468 C1469 1.391 . S
C1469 H1457 0.950 . S
C1469 C1465 1.393 . S
C1469 C1468 1.391 . S
C1470 H1460 0.950 . S
C1470 C1471 1.386 . S
C1470 C1472 1.391 . S
C1471 C1470 1.386 . S
C1471 C1475 1.393 . S
C1472 H1461 0.950 . S
C1472 C1470 1.391 . S
C1472 C1473 1.400 . S
C1473 C1467 1.491 . S
C1473 C1472 1.400 . S
C1473 C1474 1.398 . S
C1474 H1462 0.950 . S
C1474 C1473 1.398 . S
C1474 C1475 1.391 . S
C1475 H1463 0.950 . S
C1475 C1471 1.393 . S
C1475 C1474 1.391 . S
H1476 C1484 0.950 . S
H1477 C1489 0.950 . S
H1478 C1486 0.950 . S
H1479 C1488 0.950 . S
H1480 C1490 0.950 . S
H1481 C1492 0.950 . S
H1482 C1494 0.950 . S
H1483 C1495 0.950 . S
C1484 H1476 0.950 . S
C1484 C1485 1.386 . S
C1484 C1486 1.391 . S
C1485 C1484 1.386 . S
C1485 C1489 1.393 . S
C1486 H1478 0.950 . S
C1486 C1484 1.391 . S
C1486 C1487 1.400 . S
C1487 C1486 1.400 . S
C1487 C1488 1.398 . S
C1487 C1493 1.491 . S
C1488 H1479 0.950 . S
C1488 C1487 1.398 . S
C1488 C1489 1.391 . S
C1489 H1477 0.950 . S
C1489 C1485 1.393 . S
C1489 C1488 1.391 . S
C1490 H1480 0.950 . S
C1490 C1491 1.386 . S
C1490 C1492 1.391 . S
C1491 C1490 1.386 . S
C1491 C1495 1.393 . S
C1492 H1481 0.950 . S
C1492 C1490 1.391 . S
C1492 C1493 1.400 . S
C1493 C1487 1.491 . S
C1493 C1492 1.400 . S
C1493 C1494 1.398 . S
C1494 H1482 0.950 . S
C1494 C1493 1.398 . S
C1494 C1495 1.391 . S
C1495 H1483 0.950 . S
C1495 C1491 1.393 . S
C1495 C1494 1.391 . S
H1496 C1504 0.950 . S
H1497 C1509 0.950 . S
H1498 C1506 0.950 . S
H1499 C1508 0.950 . S
H1500 C1510 0.950 . S
H1501 C1512 0.950 . S
H1502 C1514 0.950 . S
H1503 C1515 0.950 . S
C1504 H1496 0.950 . S
C1504 C1505 1.386 . S
C1504 C1506 1.391 . S
C1505 C1504 1.386 . S
C1505 C1509 1.393 . S
C1506 H1498 0.950 . S
C1506 C1504 1.391 . S
C1506 C1507 1.400 . S
C1507 C1506 1.400 . S
C1507 C1508 1.398 . S
C1507 C1513 1.491 . S
C1508 H1499 0.950 . S
C1508 C1507 1.398 . S
C1508 C1509 1.391 . S
C1509 H1497 0.950 . S
C1509 C1505 1.393 . S
C1509 C1508 1.391 . S
C1510 H1500 0.950 . S
C1510 C1511 1.386 . S
C1510 C1512 1.391 . S
C1511 C1510 1.386 . S
C1511 C1515 1.393 . S
C1512 H1501 0.950 . S
C1512 C1510 1.391 . S
C1512 C1513 1.400 . S
C1513 C1507 1.491 . S
C1513 C1512 1.400 . S
C1513 C1514 1.398 . S
C1514 H1502 0.950 . S
C1514 C1513 1.398 . S
C1514 C1515 1.391 . S
C1515 H1503 0.950 . S
C1515 C1511 1.393 . S
C1515 C1514 1.391 . S
H1516 C1524 0.950 . S
H1517 C1529 0.950 . S
H1518 C1526 0.950 . S
H1519 C1528 0.950 . S
H1520 C1530 0.950 . S
H1521 C1532 0.950 . S
H1522 C1534 0.950 . S
H1523 C1535 0.950 . S
C1524 H1516 0.950 . S
C1524 C1525 1.386 . S
C1524 C1526 1.391 . S
C1525 C1524 1.386 . S
C1525 C1529 1.393 . S
C1526 H1518 0.950 . S
C1526 C1524 1.391 . S
C1526 C1527 1.400 . S
C1527 C1526 1.400 . S
C1527 C1528 1.398 . S
C1527 C1533 1.491 . S
C1528 H1519 0.950 . S
C1528 C1527 1.398 . S
C1528 C1529 1.391 . S
C1529 H1517 0.950 . S
C1529 C1525 1.393 . S
C1529 C1528 1.391 . S
C1530 H1520 0.950 . S
C1530 C1531 1.386 . S
C1530 C1532 1.391 . S
C1531 C1530 1.386 . S
C1531 C1535 1.393 . S
C1532 H1521 0.950 . S
C1532 C1530 1.391 . S
C1532 C1533 1.400 . S
C1533 C1527 1.491 . S
C1533 C1532 1.400 . S
C1533 C1534 1.398 . S
C1534 H1522 0.950 . S
C1534 C1533 1.398 . S
C1534 C1535 1.391 . S
C1535 H1523 0.950 . S
C1535 C1531 1.393 . S
C1535 C1534 1.391 . S
H1536 C1544 0.950 . S
H1537 C1549 0.950 . S
H1538 C1546 0.950 . S
H1539 C1548 0.950 . S
H1540 C1550 0.950 . S
H1541 C1552 0.950 . S
H1542 C1554 0.950 . S
H1543 C1555 0.950 . S
C1544 H1536 0.950 . S
C1544 C1545 1.386 . S
C1544 C1546 1.391 . S
C1545 C1544 1.386 . S
C1545 C1549 1.393 . S
C1546 H1538 0.950 . S
C1546 C1544 1.391 . S
C1546 C1547 1.400 . S
C1547 C1546 1.400 . S
C1547 C1548 1.398 . S
C1547 C1553 1.491 . S
C1548 H1539 0.950 . S
C1548 C1547 1.398 . S
C1548 C1549 1.391 . S
C1549 H1537 0.950 . S
C1549 C1545 1.393 . S
C1549 C1548 1.391 . S
C1550 H1540 0.950 . S
C1550 C1551 1.386 . S
C1550 C1552 1.391 1_455 S
C1551 C1550 1.386 . S
C1551 C1555 1.393 1_455 S
C1552 H1541 0.950 . S
C1552 C1550 1.391 1_655 S
C1552 C1553 1.400 . S
C1553 C1547 1.491 . S
C1553 C1552 1.400 . S
C1553 C1554 1.398 . S
C1554 H1542 0.950 . S
C1554 C1553 1.398 . S
C1554 C1555 1.391 . S
C1555 H1543 0.950 . S
C1555 C1551 1.393 1_655 S
C1555 C1554 1.391 . S
H1556 C1564 0.950 . S
H1557 C1569 0.950 . S
H1558 C1566 0.950 . S
H1559 C1568 0.950 . S
H1560 C1570 0.950 . S
H1561 C1572 0.950 . S
H1562 C1574 0.950 . S
H1563 C1575 0.950 . S
C1564 H1556 0.950 . S
C1564 C1565 1.386 . S
C1564 C1566 1.391 . S
C1565 C1564 1.386 . S
C1565 C1569 1.393 . S
C1566 H1558 0.950 . S
C1566 C1564 1.391 . S
C1566 C1567 1.400 . S
C1567 C1566 1.400 . S
C1567 C1568 1.398 . S
C1567 C1573 1.491 . S
C1568 H1559 0.950 . S
C1568 C1567 1.398 . S
C1568 C1569 1.391 . S
C1569 H1557 0.950 . S
C1569 C1565 1.393 . S
C1569 C1568 1.391 . S
C1570 H1560 0.950 . S
C1570 C1571 1.386 . S
C1570 C1572 1.391 . S
C1571 C1570 1.386 . S
C1571 C1575 1.393 . S
C1572 H1561 0.950 . S
C1572 C1570 1.391 . S
C1572 C1573 1.400 . S
C1573 C1567 1.491 . S
C1573 C1572 1.400 . S
C1573 C1574 1.398 . S
C1574 H1562 0.950 . S
C1574 C1573 1.398 . S
C1574 C1575 1.391 . S
C1575 H1563 0.950 . S
C1575 C1571 1.393 . S
C1575 C1574 1.391 . S
H1576 C1584 0.950 . S
H1577 C1589 0.950 . S
H1578 C1586 0.950 . S
H1579 C1588 0.950 . S
H1580 C1590 0.950 . S
H1581 C1592 0.950 . S
H1582 C1594 0.950 . S
H1583 C1595 0.950 . S
C1584 H1576 0.950 . S
C1584 C1585 1.386 . S
C1584 C1586 1.391 . S
C1585 C1584 1.386 . S
C1585 C1589 1.393 . S
C1586 H1578 0.950 . S
C1586 C1584 1.391 . S
C1586 C1587 1.400 . S
C1587 C1586 1.400 . S
C1587 C1588 1.398 . S
C1587 C1593 1.491 . S
C1588 H1579 0.950 . S
C1588 C1587 1.398 . S
C1588 C1589 1.391 . S
C1589 H1577 0.950 . S
C1589 C1585 1.393 . S
C1589 C1588 1.391 . S
C1590 H1580 0.950 . S
C1590 C1591 1.386 . S
C1590 C1592 1.391 . S
C1591 C1590 1.386 . S
C1591 C1595 1.393 . S
C1592 H1581 0.950 . S
C1592 C1590 1.391 . S
C1592 C1593 1.400 . S
C1593 C1587 1.491 . S
C1593 C1592 1.400 . S
C1593 C1594 1.398 . S
C1594 H1582 0.950 . S
C1594 C1593 1.398 . S
C1594 C1595 1.391 . S
C1595 H1583 0.950 . S
C1595 C1591 1.393 . S
C1595 C1594 1.391 . S
H1596 C1604 0.950 . S
H1597 C1609 0.950 . S
H1598 C1606 0.950 . S
H1599 C1608 0.950 . S
H1600 C1610 0.950 . S
H1601 C1612 0.950 . S
H1602 C1614 0.950 . S
H1603 C1615 0.950 . S
C1604 H1596 0.950 . S
C1604 C1605 1.386 . S
C1604 C1606 1.391 . S
C1605 C1604 1.386 . S
C1605 C1609 1.393 . S
C1606 H1598 0.950 . S
C1606 C1604 1.391 . S
C1606 C1607 1.400 . S
C1607 C1606 1.400 . S
C1607 C1608 1.398 . S
C1607 C1613 1.491 . S
C1608 H1599 0.950 . S
C1608 C1607 1.398 . S
C1608 C1609 1.391 . S
C1609 H1597 0.950 . S
C1609 C1605 1.393 . S
C1609 C1608 1.391 . S
C1610 H1600 0.950 . S
C1610 C1611 1.386 . S
C1610 C1612 1.391 . S
C1611 C1610 1.386 . S
C1611 C1615 1.393 . S
C1612 H1601 0.950 . S
C1612 C1610 1.391 . S
C1612 C1613 1.400 . S
C1613 C1607 1.491 . S
C1613 C1612 1.400 . S
C1613 C1614 1.398 . S
C1614 H1602 0.950 . S
C1614 C1613 1.398 . S
C1614 C1615 1.391 . S
C1615 H1603 0.950 . S
C1615 C1611 1.393 . S
C1615 C1614 1.391 . S
H1616 C1624 0.950 . S
H1617 C1629 0.950 . S
H1618 C1626 0.950 . S
H1619 C1628 0.950 . S
H1620 C1630 0.939 1_455 S
H1621 C1632 0.950 . S
H1622 C1634 0.950 . S
H1623 C1635 0.949 . S
C1624 H1616 0.950 . S
C1624 C1625 1.386 . S
C1624 C1626 1.391 . S
C1625 C1624 1.386 . S
C1625 C1629 1.393 . S
C1626 H1618 0.950 . S
C1626 C1624 1.391 . S
C1626 C1627 1.400 . S
C1627 C1626 1.400 . S
C1627 C1628 1.398 . S
C1627 C1633 1.491 . S
C1628 H1619 0.950 . S
C1628 C1627 1.398 . S
C1628 C1629 1.391 . S
C1629 H1617 0.950 . S
C1629 C1625 1.393 . S
C1629 C1628 1.391 . S
C1630 H1620 0.939 1_655 S
C1630 C1631 1.378 1_655 S
C1630 C1632 1.409 . S
C1631 C1630 1.378 1_455 S
C1631 C1635 1.393 1_455 S
C1632 H1621 0.950 . S
C1632 C1630 1.409 . S
C1632 C1633 1.400 . S
C1633 C1627 1.491 . S
C1633 C1632 1.400 . S
C1633 C1634 1.398 . S
C1634 H1622 0.950 . S
C1634 C1633 1.398 . S
C1634 C1635 1.391 . S
C1635 H1623 0.949 . S
C1635 C1631 1.393 1_655 S
C1635 C1634 1.391 . S
H1636 C1644 0.950 . S
H1637 C1649 0.950 . S
H1638 C1646 0.950 . S
H1639 C1648 0.950 . S
H1640 C1650 0.950 . S
H1641 C1652 0.950 . S
H1642 C1654 0.950 . S
H1643 C1655 0.950 . S
C1644 H1636 0.950 . S
C1644 C1645 1.386 . S
C1644 C1646 1.391 . S
C1645 C1644 1.386 . S
C1645 C1649 1.393 . S
C1646 H1638 0.950 . S
C1646 C1644 1.391 . S
C1646 C1647 1.400 . S
C1647 C1646 1.400 . S
C1647 C1648 1.398 . S
C1647 C1653 1.491 . S
C1648 H1639 0.950 . S
C1648 C1647 1.398 . S
C1648 C1649 1.391 . S
C1649 H1637 0.950 . S
C1649 C1645 1.393 . S
C1649 C1648 1.391 . S
C1650 H1640 0.950 . S
C1650 C1651 1.386 . S
C1650 C1652 1.391 . S
C1651 C1650 1.386 . S
C1651 C1655 1.393 . S
C1652 H1641 0.950 . S
C1652 C1650 1.391 . S
C1652 C1653 1.400 . S
C1653 C1647 1.491 . S
C1653 C1652 1.400 . S
C1653 C1654 1.398 . S
C1654 H1642 0.950 . S
C1654 C1653 1.398 . S
C1654 C1655 1.391 . S
C1655 H1643 0.950 . S
C1655 C1651 1.393 . S
C1655 C1654 1.391 . S
H1656 C1664 0.950 . S
H1657 C1669 0.950 . S
H1658 C1666 0.950 . S
H1659 C1668 0.950 . S
H1660 C1670 0.950 . S
H1661 C1672 0.950 . S
H1662 C1674 0.950 . S
H1663 C1675 0.950 . S
C1664 H1656 0.950 . S
C1664 C1665 1.386 . S
C1664 C1666 1.391 . S
C1665 C1664 1.386 . S
C1665 C1669 1.393 . S
C1666 H1658 0.950 . S
C1666 C1664 1.391 . S
C1666 C1667 1.400 . S
C1667 C1666 1.400 . S
C1667 C1668 1.398 . S
C1667 C1673 1.491 . S
C1668 H1659 0.950 . S
C1668 C1667 1.398 . S
C1668 C1669 1.391 . S
C1669 H1657 0.950 . S
C1669 C1665 1.393 . S
C1669 C1668 1.391 . S
C1670 H1660 0.950 . S
C1670 C1671 1.386 . S
C1670 C1672 1.391 . S
C1671 C1670 1.386 . S
C1671 C1675 1.393 . S
C1672 H1661 0.950 . S
C1672 C1670 1.391 . S
C1672 C1673 1.400 . S
C1673 C1667 1.491 . S
C1673 C1672 1.400 . S
C1673 C1674 1.398 . S
C1674 H1662 0.950 . S
C1674 C1673 1.398 . S
C1674 C1675 1.391 . S
C1675 H1663 0.950 . S
C1675 C1671 1.393 . S
C1675 C1674 1.391 . S
H1676 C1684 0.950 . S
H1677 C1689 0.950 . S
H1678 C1686 0.950 . S
H1679 C1688 0.950 . S
H1680 C1690 0.950 . S
H1681 C1692 0.950 . S
H1682 C1694 0.950 . S
H1683 C1695 0.950 . S
C1684 H1676 0.950 . S
C1684 C1685 1.386 . S
C1684 C1686 1.391 . S
C1685 C1684 1.386 . S
C1685 C1689 1.393 . S
C1686 H1678 0.950 . S
C1686 C1684 1.391 . S
C1686 C1687 1.400 . S
C1687 C1686 1.400 . S
C1687 C1688 1.398 . S
C1687 C1693 1.491 . S
C1688 H1679 0.950 . S
C1688 C1687 1.398 . S
C1688 C1689 1.391 . S
C1689 H1677 0.950 . S
C1689 C1685 1.393 . S
C1689 C1688 1.391 . S
C1690 H1680 0.950 . S
C1690 C1691 1.386 . S
C1690 C1692 1.391 . S
C1691 C1690 1.386 . S
C1691 C1695 1.393 . S
C1692 H1681 0.950 . S
C1692 C1690 1.391 . S
C1692 C1693 1.400 . S
C1693 C1687 1.491 . S
C1693 C1692 1.400 . S
C1693 C1694 1.398 . S
C1694 H1682 0.950 . S
C1694 C1693 1.398 . S
C1694 C1695 1.391 . S
C1695 H1683 0.950 . S
C1695 C1691 1.393 . S
C1695 C1694 1.391 . S
H1696 C1704 0.950 . S
H1697 C1709 0.950 . S
H1698 C1706 0.950 . S
H1699 C1708 0.950 . S
H1700 C1710 0.950 . S
H1701 C1712 0.950 . S
H1702 C1714 0.950 . S
H1703 C1715 0.950 . S
C1704 H1696 0.950 . S
C1704 C1705 1.386 . S
C1704 C1706 1.391 . S
C1705 C1704 1.386 . S
C1705 C1709 1.393 . S
C1706 H1698 0.950 . S
C1706 C1704 1.391 . S
C1706 C1707 1.400 . S
C1707 C1706 1.400 . S
C1707 C1708 1.398 . S
C1707 C1713 1.491 . S
C1708 H1699 0.950 . S
C1708 C1707 1.398 . S
C1708 C1709 1.391 . S
C1709 H1697 0.950 . S
C1709 C1705 1.393 . S
C1709 C1708 1.391 . S
C1710 H1700 0.950 . S
C1710 C1711 1.386 . S
C1710 C1712 1.391 . S
C1711 C1710 1.386 . S
C1711 C1715 1.393 . S
C1712 H1701 0.950 . S
C1712 C1710 1.391 . S
C1712 C1713 1.400 . S
C1713 C1707 1.491 . S
C1713 C1712 1.400 . S
C1713 C1714 1.398 . S
C1714 H1702 0.950 . S
C1714 C1713 1.398 . S
C1714 C1715 1.391 . S
C1715 H1703 0.950 . S
C1715 C1711 1.393 . S
C1715 C1714 1.391 . S
H1716 C1724 0.950 . S
H1717 C1729 0.950 . S
H1718 C1726 0.950 . S
H1719 C1728 0.950 . S
H1720 C1730 0.950 . S
H1721 C1732 0.950 . S
H1722 C1734 0.950 . S
H1723 C1735 0.950 . S
C1724 H1716 0.950 . S
C1724 C1725 1.386 . S
C1724 C1726 1.391 . S
C1725 C1724 1.386 . S
C1725 C1729 1.393 . S
C1726 H1718 0.950 . S
C1726 C1724 1.391 . S
C1726 C1727 1.400 . S
C1727 C1726 1.400 . S
C1727 C1728 1.398 . S
C1727 C1733 1.491 . S
C1728 H1719 0.950 . S
C1728 C1727 1.398 . S
C1728 C1729 1.391 . S
C1729 H1717 0.950 . S
C1729 C1725 1.393 . S
C1729 C1728 1.391 . S
C1730 H1720 0.950 . S
C1730 C1731 1.386 . S
C1730 C1732 1.391 . S
C1731 C1730 1.386 . S
C1731 C1735 1.393 . S
C1732 H1721 0.950 . S
C1732 C1730 1.391 . S
C1732 C1733 1.400 . S
C1733 C1727 1.491 . S
C1733 C1732 1.400 . S
C1733 C1734 1.398 . S
C1734 H1722 0.950 . S
C1734 C1733 1.398 . S
C1734 C1735 1.391 . S
C1735 H1723 0.950 . S
C1735 C1731 1.393 . S
C1735 C1734 1.391 . S
H1736 C1744 0.950 . S
H1737 C1749 0.950 . S
H1738 C1746 0.950 . S
H1739 C1748 0.950 . S
H1740 C1750 0.950 . S
H1741 C1752 0.950 . S
H1742 C1754 0.950 . S
H1743 C1755 0.950 . S
C1744 H1736 0.950 . S
C1744 C1745 1.386 . S
C1744 C1746 1.391 . S
C1745 C1744 1.386 . S
C1745 C1749 1.393 . S
C1746 H1738 0.950 . S
C1746 C1744 1.391 . S
C1746 C1747 1.400 . S
C1747 C1746 1.400 . S
C1747 C1748 1.398 . S
C1747 C1753 1.491 . S
C1748 H1739 0.950 . S
C1748 C1747 1.398 . S
C1748 C1749 1.391 . S
C1749 H1737 0.950 . S
C1749 C1745 1.393 . S
C1749 C1748 1.391 . S
C1750 H1740 0.950 . S
C1750 C1751 1.386 . S
C1750 C1752 1.391 . S
C1751 C1750 1.386 . S
C1751 C1755 1.393 . S
C1752 H1741 0.950 . S
C1752 C1750 1.391 . S
C1752 C1753 1.400 . S
C1753 C1747 1.491 . S
C1753 C1752 1.400 . S
C1753 C1754 1.398 . S
C1754 H1742 0.950 . S
C1754 C1753 1.398 . S
C1754 C1755 1.391 . S
C1755 H1743 0.950 . S
C1755 C1751 1.393 . S
C1755 C1754 1.391 . S
H1756 C1764 0.950 . S
H1757 C1769 0.950 . S
H1758 C1766 0.950 . S
H1759 C1768 0.950 . S
H1760 C1770 0.950 . S
H1761 C1772 0.950 . S
H1762 C1774 0.950 . S
H1763 C1775 0.950 . S
C1764 H1756 0.950 . S
C1764 C1765 1.386 . S
C1764 C1766 1.391 . S
C1765 C1764 1.386 . S
C1765 C1769 1.393 . S
C1766 H1758 0.950 . S
C1766 C1764 1.391 . S
C1766 C1767 1.400 . S
C1767 C1766 1.400 . S
C1767 C1768 1.398 . S
C1767 C1773 1.491 . S
C1768 H1759 0.950 . S
C1768 C1767 1.398 . S
C1768 C1769 1.391 . S
C1769 H1757 0.950 . S
C1769 C1765 1.393 . S
C1769 C1768 1.391 . S
C1770 H1760 0.950 . S
C1770 C1771 1.386 . S
C1770 C1772 1.391 . S
C1771 C1770 1.386 . S
C1771 C1775 1.393 . S
C1772 H1761 0.950 . S
C1772 C1770 1.391 . S
C1772 C1773 1.400 . S
C1773 C1767 1.491 . S
C1773 C1772 1.400 . S
C1773 C1774 1.398 . S
C1774 H1762 0.950 . S
C1774 C1773 1.398 . S
C1774 C1775 1.391 . S
C1775 H1763 0.950 . S
C1775 C1771 1.393 . S
C1775 C1774 1.391 . S
H1776 C1784 0.950 . S
H1777 C1789 0.950 . S
H1778 C1786 0.950 . S
H1779 C1788 0.950 . S
H1780 C1790 0.950 . S
H1781 C1792 0.950 . S
H1782 C1794 0.950 . S
H1783 C1795 0.950 . S
C1784 H1776 0.950 . S
C1784 C1785 1.386 . S
C1784 C1786 1.391 . S
C1785 C1784 1.386 . S
C1785 C1789 1.393 . S
C1786 H1778 0.950 . S
C1786 C1784 1.391 . S
C1786 C1787 1.400 . S
C1787 C1786 1.400 . S
C1787 C1788 1.398 . S
C1787 C1793 1.491 . S
C1788 H1779 0.950 . S
C1788 C1787 1.398 . S
C1788 C1789 1.391 . S
C1789 H1777 0.950 . S
C1789 C1785 1.393 . S
C1789 C1788 1.391 . S
C1790 H1780 0.950 . S
C1790 C1791 1.386 . S
C1790 C1792 1.391 . S
C1791 C1790 1.386 . S
C1791 C1795 1.393 . S
C1792 H1781 0.950 . S
C1792 C1790 1.391 . S
C1792 C1793 1.400 . S
C1793 C1787 1.491 . S
C1793 C1792 1.400 . S
C1793 C1794 1.398 . S
C1794 H1782 0.950 . S
C1794 C1793 1.398 . S
C1794 C1795 1.391 . S
C1795 H1783 0.950 . S
C1795 C1791 1.393 . S
C1795 C1794 1.391 . S
H1796 C1804 0.950 . S
H1797 C1809 0.950 . S
H1798 C1806 0.950 . S
H1799 C1808 0.950 . S
H1800 C1810 0.950 . S
H1801 C1812 0.950 . S
H1802 C1814 0.950 . S
H1803 C1815 0.950 . S
C1804 H1796 0.950 . S
C1804 C1805 1.386 . S
C1804 C1806 1.391 . S
C1805 C1804 1.386 . S
C1805 C1809 1.393 . S
C1806 H1798 0.950 . S
C1806 C1804 1.391 . S
C1806 C1807 1.400 . S
C1807 C1806 1.400 . S
C1807 C1808 1.398 . S
C1807 C1813 1.491 . S
C1808 H1799 0.950 . S
C1808 C1807 1.398 . S
C1808 C1809 1.391 . S
C1809 H1797 0.950 . S
C1809 C1805 1.393 . S
C1809 C1808 1.391 . S
C1810 H1800 0.950 . S
C1810 C1811 1.386 . S
C1810 C1812 1.391 . S
C1811 C1810 1.386 . S
C1811 C1815 1.393 . S
C1812 H1801 0.950 . S
C1812 C1810 1.391 . S
C1812 C1813 1.400 . S
C1813 C1807 1.491 . S
C1813 C1812 1.400 . S
C1813 C1814 1.398 . S
C1814 H1802 0.950 . S
C1814 C1813 1.398 . S
C1814 C1815 1.391 . S
C1815 H1803 0.950 . S
C1815 C1811 1.393 . S
C1815 C1814 1.391 . S
H1816 C1824 0.950 . S
H1817 C1829 0.950 . S
H1818 C1826 0.950 . S
H1819 C1828 0.950 . S
H1820 C1830 0.950 . S
H1821 C1832 0.950 . S
H1822 C1834 0.950 . S
H1823 C1835 0.950 . S
C1824 H1816 0.950 . S
C1824 C1825 1.386 . S
C1824 C1826 1.391 . S
C1825 C1824 1.386 . S
C1825 C1829 1.393 . S
C1826 H1818 0.950 . S
C1826 C1824 1.391 . S
C1826 C1827 1.400 . S
C1827 C1826 1.400 . S
C1827 C1828 1.398 . S
C1827 C1833 1.491 . S
C1828 H1819 0.950 . S
C1828 C1827 1.398 . S
C1828 C1829 1.391 . S
C1829 H1817 0.950 . S
C1829 C1825 1.393 . S
C1829 C1828 1.391 . S
C1830 H1820 0.950 . S
C1830 C1831 1.386 . S
C1830 C1832 1.391 . S
C1831 C1830 1.386 . S
C1831 C1835 1.393 . S
C1832 H1821 0.950 . S
C1832 C1830 1.391 . S
C1832 C1833 1.400 . S
C1833 C1827 1.491 . S
C1833 C1832 1.400 . S
C1833 C1834 1.398 . S
C1834 H1822 0.950 . S
C1834 C1833 1.398 . S
C1834 C1835 1.391 . S
C1835 H1823 0.950 . S
C1835 C1831 1.393 . S
C1835 C1834 1.391 . S
H1836 C1844 0.950 . S
H1837 C1849 0.950 . S
H1838 C1846 0.950 . S
H1839 C1848 0.950 . S
H1840 C1850 0.950 . S
H1841 C1852 0.950 . S
H1842 C1854 0.950 . S
H1843 C1855 0.950 . S
C1844 H1836 0.950 . S
C1844 C1845 1.386 . S
C1844 C1846 1.391 . S
C1845 C1844 1.386 . S
C1845 C1849 1.393 . S
C1846 H1838 0.950 . S
C1846 C1844 1.391 . S
C1846 C1847 1.400 . S
C1847 C1846 1.400 . S
C1847 C1848 1.398 . S
C1847 C1853 1.491 . S
C1848 H1839 0.950 . S
C1848 C1847 1.398 . S
C1848 C1849 1.391 . S
C1849 H1837 0.950 . S
C1849 C1845 1.393 . S
C1849 C1848 1.391 . S
C1850 H1840 0.950 . S
C1850 C1851 1.386 . S
C1850 C1852 1.391 . S
C1851 C1850 1.386 . S
C1851 C1855 1.393 . S
C1852 H1841 0.950 . S
C1852 C1850 1.391 . S
C1852 C1853 1.400 . S
C1853 C1847 1.491 . S
C1853 C1852 1.400 . S
C1853 C1854 1.398 . S
C1854 H1842 0.950 . S
C1854 C1853 1.398 . S
C1854 C1855 1.391 . S
C1855 H1843 0.950 . S
C1855 C1851 1.393 . S
C1855 C1854 1.391 . S
H1856 C1864 0.950 . S
H1857 C1869 0.950 . S
H1858 C1866 0.950 . S
H1859 C1868 0.950 . S
H1860 C1870 0.950 . S
H1861 C1872 0.950 . S
H1862 C1874 0.950 . S
H1863 C1875 0.950 . S
C1864 H1856 0.950 . S
C1864 C1865 1.386 . S
C1864 C1866 1.391 . S
C1865 C1864 1.386 . S
C1865 C1869 1.393 . S
C1866 H1858 0.950 . S
C1866 C1864 1.391 . S
C1866 C1867 1.400 . S
C1867 C1866 1.400 . S
C1867 C1868 1.398 . S
C1867 C1873 1.491 . S
C1868 H1859 0.950 . S
C1868 C1867 1.398 . S
C1868 C1869 1.391 . S
C1869 H1857 0.950 . S
C1869 C1865 1.393 . S
C1869 C1868 1.391 . S
C1870 H1860 0.950 . S
C1870 C1871 1.386 . S
C1870 C1872 1.391 . S
C1871 C1870 1.386 . S
C1871 C1875 1.393 . S
C1872 H1861 0.950 . S
C1872 C1870 1.391 . S
C1872 C1873 1.400 . S
C1873 C1867 1.491 . S
C1873 C1872 1.400 . S
C1873 C1874 1.398 . S
C1874 H1862 0.950 . S
C1874 C1873 1.398 . S
C1874 C1875 1.391 . S
C1875 H1863 0.950 . S
C1875 C1871 1.393 . S
C1875 C1874 1.391 . S
H1876 C1884 0.950 . S
H1877 C1889 0.950 . S
H1878 C1886 0.950 . S
H1879 C1888 0.950 . S
H1880 C1890 0.950 . S
H1881 C1892 0.950 . S
H1882 C1894 0.950 . S
H1883 C1895 0.950 . S
C1884 H1876 0.950 . S
C1884 C1885 1.386 . S
C1884 C1886 1.391 . S
C1885 C1884 1.386 . S
C1885 C1889 1.393 . S
C1886 H1878 0.950 . S
C1886 C1884 1.391 . S
C1886 C1887 1.400 . S
C1887 C1886 1.400 . S
C1887 C1888 1.398 . S
C1887 C1893 1.491 . S
C1888 H1879 0.950 . S
C1888 C1887 1.398 . S
C1888 C1889 1.391 . S
C1889 H1877 0.950 . S
C1889 C1885 1.393 . S
C1889 C1888 1.391 . S
C1890 H1880 0.950 . S
C1890 C1891 1.386 . S
C1890 C1892 1.391 . S
C1891 C1890 1.386 . S
C1891 C1895 1.393 . S
C1892 H1881 0.950 . S
C1892 C1890 1.391 . S
C1892 C1893 1.400 . S
C1893 C1887 1.491 . S
C1893 C1892 1.400 . S
C1893 C1894 1.398 . S
C1894 H1882 0.950 . S
C1894 C1893 1.398 . S
C1894 C1895 1.391 . S
C1895 H1883 0.950 . S
C1895 C1891 1.393 . S
C1895 C1894 1.391 . S
H1896 C1904 0.950 . S
H1897 C1909 0.950 . S
H1898 C1906 0.950 . S
H1899 C1908 0.950 . S
H1900 C1910 0.950 . S
H1901 C1912 0.950 . S
H1902 C1914 0.950 . S
H1903 C1915 0.950 . S
C1904 H1896 0.950 . S
C1904 C1905 1.386 . S
C1904 C1906 1.391 . S
C1905 C1904 1.386 . S
C1905 C1909 1.393 . S
C1906 H1898 0.950 . S
C1906 C1904 1.391 . S
C1906 C1907 1.400 . S
C1907 C1906 1.400 . S
C1907 C1908 1.398 . S
C1907 C1913 1.491 . S
C1908 H1899 0.950 . S
C1908 C1907 1.398 . S
C1908 C1909 1.391 . S
C1909 H1897 0.950 . S
C1909 C1905 1.393 . S
C1909 C1908 1.391 . S
C1910 H1900 0.950 . S
C1910 C1911 1.386 . S
C1910 C1912 1.391 . S
C1911 C1910 1.386 . S
C1911 C1915 1.393 . S
C1912 H1901 0.950 . S
C1912 C1910 1.391 . S
C1912 C1913 1.400 . S
C1913 C1907 1.491 . S
C1913 C1912 1.400 . S
C1913 C1914 1.398 . S
C1914 H1902 0.950 . S
C1914 C1913 1.398 . S
C1914 C1915 1.391 . S
C1915 H1903 0.950 . S
C1915 C1911 1.393 . S
C1915 C1914 1.391 . S
H1916 C1924 0.950 . S
H1917 C1929 0.950 . S
H1918 C1926 0.950 . S
H1919 C1928 0.950 . S
H1920 C1930 0.950 . S
H1921 C1932 0.950 . S
H1922 C1934 0.950 . S
H1923 C1935 0.950 . S
C1924 H1916 0.950 . S
C1924 C1925 1.386 . S
C1924 C1926 1.391 . S
C1925 C1924 1.386 . S
C1925 C1929 1.393 . S
C1926 H1918 0.950 . S
C1926 C1924 1.391 . S
C1926 C1927 1.400 . S
C1927 C1926 1.400 . S
C1927 C1928 1.398 . S
C1927 C1933 1.491 . S
C1928 H1919 0.950 . S
C1928 C1927 1.398 . S
C1928 C1929 1.391 . S
C1929 H1917 0.950 . S
C1929 C1925 1.393 . S
C1929 C1928 1.391 . S
C1930 H1920 0.950 . S
C1930 C1931 1.386 . S
C1930 C1932 1.391 . S
C1931 C1930 1.386 . S
C1931 C1935 1.393 . S
C1932 H1921 0.950 . S
C1932 C1930 1.391 . S
C1932 C1933 1.400 . S
C1933 C1927 1.491 . S
C1933 C1932 1.400 . S
C1933 C1934 1.398 . S
C1934 H1922 0.950 . S
C1934 C1933 1.398 . S
C1934 C1935 1.391 . S
C1935 H1923 0.950 . S
C1935 C1931 1.393 . S
C1935 C1934 1.391 . S
H1936 C1944 0.950 . S
H1937 C1949 0.950 . S
H1938 C1946 0.950 . S
H1939 C1948 0.950 . S
H1940 C1950 0.950 . S
H1941 C1952 0.950 . S
H1942 C1954 0.950 . S
H1943 C1955 0.950 . S
C1944 H1936 0.950 . S
C1944 C1945 1.386 . S
C1944 C1946 1.391 . S
C1945 C1944 1.386 . S
C1945 C1949 1.393 . S
C1946 H1938 0.950 . S
C1946 C1944 1.391 . S
C1946 C1947 1.400 . S
C1947 C1946 1.400 . S
C1947 C1948 1.398 . S
C1947 C1953 1.491 . S
C1948 H1939 0.950 . S
C1948 C1947 1.398 . S
C1948 C1949 1.391 . S
C1949 H1937 0.950 . S
C1949 C1945 1.393 . S
C1949 C1948 1.391 . S
C1950 H1940 0.950 . S
C1950 C1951 1.386 . S
C1950 C1952 1.391 . S
C1951 C1950 1.386 . S
C1951 C1955 1.393 . S
C1952 H1941 0.950 . S
C1952 C1950 1.391 . S
C1952 C1953 1.400 . S
C1953 C1947 1.491 . S
C1953 C1952 1.400 . S
C1953 C1954 1.398 . S
C1954 H1942 0.950 . S
C1954 C1953 1.398 . S
C1954 C1955 1.391 . S
C1955 H1943 0.950 . S
C1955 C1951 1.393 . S
C1955 C1954 1.391 . S
H1956 C1964 0.950 . S
H1957 C1969 0.950 . S
H1958 C1966 0.950 . S
H1959 C1968 0.950 . S
H1960 C1970 0.950 . S
H1961 C1972 0.950 . S
H1962 C1974 0.950 . S
H1963 C1975 0.950 . S
C1964 H1956 0.950 . S
C1964 C1965 1.386 . S
C1964 C1966 1.391 . S
C1965 C1964 1.386 . S
C1965 C1969 1.393 . S
C1966 H1958 0.950 . S
C1966 C1964 1.391 . S
C1966 C1967 1.400 . S
C1967 C1966 1.400 . S
C1967 C1968 1.398 . S
C1967 C1973 1.491 . S
C1968 H1959 0.950 . S
C1968 C1967 1.398 . S
C1968 C1969 1.391 . S
C1969 H1957 0.950 . S
C1969 C1965 1.393 . S
C1969 C1968 1.391 . S
C1970 H1960 0.950 . S
C1970 C1971 1.386 . S
C1970 C1972 1.391 . S
C1971 C1970 1.386 . S
C1971 C1975 1.393 . S
C1972 H1961 0.950 . S
C1972 C1970 1.391 . S
C1972 C1973 1.400 . S
C1973 C1967 1.491 . S
C1973 C1972 1.400 . S
C1973 C1974 1.398 . S
C1974 H1962 0.950 . S
C1974 C1973 1.398 . S
C1974 C1975 1.391 . S
C1975 H1963 0.950 . S
C1975 C1971 1.393 . S
C1975 C1974 1.391 . S
H1976 C1984 0.950 . S
H1977 C1989 0.950 . S
H1978 C1986 0.950 . S
H1979 C1988 0.950 . S
H1980 C1990 0.950 . S
H1981 C1992 0.950 . S
H1982 C1994 0.950 . S
H1983 C1995 0.950 . S
C1984 H1976 0.950 . S
C1984 C1985 1.386 . S
C1984 C1986 1.391 . S
C1985 C1984 1.386 . S
C1985 C1989 1.393 . S
C1986 H1978 0.950 . S
C1986 C1984 1.391 . S
C1986 C1987 1.400 . S
C1987 C1986 1.400 . S
C1987 C1988 1.398 . S
C1987 C1993 1.491 . S
C1988 H1979 0.950 . S
C1988 C1987 1.398 . S
C1988 C1989 1.391 . S
C1989 H1977 0.950 . S
C1989 C1985 1.393 . S
C1989 C1988 1.391 . S
C1990 H1980 0.950 . S
C1990 C1991 1.386 . S
C1990 C1992 1.391 . S
C1991 C1990 1.386 . S
C1991 C1995 1.393 . S
C1992 H1981 0.950 . S
C1992 C1990 1.391 . S
C1992 C1993 1.400 . S
C1993 C1987 1.491 . S
C1993 C1992 1.400 . S
C1993 C1994 1.398 . S
C1994 H1982 0.950 . S
C1994 C1993 1.398 . S
C1994 C1995 1.391 . S
C1995 H1983 0.950 . S
C1995 C1991 1.393 . S
C1995 C1994 1.391 . S
H1996 C2004 0.950 . S
H1997 C2009 0.950 . S
H1998 C2006 0.950 . S
H1999 C2008 0.950 . S
H2000 C2010 0.950 . S
H2001 C2012 0.950 . S
H2002 C2014 0.950 . S
H2003 C2015 0.950 . S
C2004 H1996 0.950 . S
C2004 C2005 1.386 . S
C2004 C2006 1.391 . S
C2005 C2004 1.386 . S
C2005 C2009 1.393 . S
C2006 H1998 0.950 . S
C2006 C2004 1.391 . S
C2006 C2007 1.400 . S
C2007 C2006 1.400 . S
C2007 C2008 1.398 . S
C2007 C2013 1.491 . S
C2008 H1999 0.950 . S
C2008 C2007 1.398 . S
C2008 C2009 1.391 . S
C2009 H1997 0.950 . S
C2009 C2005 1.393 . S
C2009 C2008 1.391 . S
C2010 H2000 0.950 . S
C2010 C2011 1.386 . S
C2010 C2012 1.391 . S
C2011 C2010 1.386 . S
C2011 C2015 1.393 . S
C2012 H2001 0.950 . S
C2012 C2010 1.391 . S
C2012 C2013 1.400 . S
C2013 C2007 1.491 . S
C2013 C2012 1.400 . S
C2013 C2014 1.398 . S
C2014 H2002 0.950 . S
C2014 C2013 1.398 . S
C2014 C2015 1.391 . S
C2015 H2003 0.950 . S
C2015 C2011 1.393 . S
C2015 C2014 1.391 . S
H2016 C2024 0.950 . S
H2017 C2029 0.950 . S
H2018 C2026 0.950 . S
H2019 C2028 0.950 . S
H2020 C2030 0.950 . S
H2021 C2032 0.950 . S
H2022 C2034 0.950 . S
H2023 C2035 0.950 . S
C2024 H2016 0.950 . S
C2024 C2025 1.386 . S
C2024 C2026 1.391 . S
C2025 C2024 1.386 . S
C2025 C2029 1.393 . S
C2026 H2018 0.950 . S
C2026 C2024 1.391 . S
C2026 C2027 1.400 . S
C2027 C2026 1.400 . S
C2027 C2028 1.398 . S
C2027 C2033 1.491 . S
C2028 H2019 0.950 . S
C2028 C2027 1.398 . S
C2028 C2029 1.391 . S
C2029 H2017 0.950 . S
C2029 C2025 1.393 . S
C2029 C2028 1.391 . S
C2030 H2020 0.950 . S
C2030 C2031 1.386 . S
C2030 C2032 1.391 . S
C2031 C2030 1.386 . S
C2031 C2035 1.393 . S
C2032 H2021 0.950 . S
C2032 C2030 1.391 . S
C2032 C2033 1.400 . S
C2033 C2027 1.491 . S
C2033 C2032 1.400 . S
C2033 C2034 1.398 . S
C2034 H2022 0.950 . S
C2034 C2033 1.398 . S
C2034 C2035 1.391 . S
C2035 H2023 0.950 . S
C2035 C2031 1.393 . S
C2035 C2034 1.391 . S
H2036 C2044 0.950 . S
H2037 C2049 0.950 . S
H2038 C2046 0.950 . S
H2039 C2048 0.950 . S
H2040 C2050 0.950 . S
H2041 C2052 0.950 . S
H2042 C2054 0.950 . S
H2043 C2055 0.950 . S
C2044 H2036 0.950 . S
C2044 C2045 1.386 . S
C2044 C2046 1.391 . S
C2045 C2044 1.386 . S
C2045 C2049 1.393 . S
C2046 H2038 0.950 . S
C2046 C2044 1.391 . S
C2046 C2047 1.400 . S
C2047 C2046 1.400 . S
C2047 C2048 1.398 . S
C2047 C2053 1.491 . S
C2048 H2039 0.950 . S
C2048 C2047 1.398 . S
C2048 C2049 1.391 . S
C2049 H2037 0.950 . S
C2049 C2045 1.393 . S
C2049 C2048 1.391 . S
C2050 H2040 0.950 . S
C2050 C2051 1.386 . S
C2050 C2052 1.391 . S
C2051 C2050 1.386 . S
C2051 C2055 1.393 . S
C2052 H2041 0.950 . S
C2052 C2050 1.391 . S
C2052 C2053 1.400 . S
C2053 C2047 1.491 . S
C2053 C2052 1.400 . S
C2053 C2054 1.398 . S
C2054 H2042 0.950 . S
C2054 C2053 1.398 . S
C2054 C2055 1.391 . S
C2055 H2043 0.950 . S
C2055 C2051 1.393 . S
C2055 C2054 1.391 . S
H2056 C2064 0.950 . S
H2057 C2069 0.950 . S
H2058 C2066 0.950 . S
H2059 C2068 0.950 . S
H2060 C2070 0.950 . S
H2061 C2072 0.950 . S
H2062 C2074 0.950 . S
H2063 C2075 0.950 . S
C2064 H2056 0.950 . S
C2064 C2065 1.386 . S
C2064 C2066 1.391 . S
C2065 C2064 1.386 . S
C2065 C2069 1.393 . S
C2066 H2058 0.950 . S
C2066 C2064 1.391 . S
C2066 C2067 1.400 . S
C2067 C2066 1.400 . S
C2067 C2068 1.398 . S
C2067 C2073 1.491 . S
C2068 H2059 0.950 . S
C2068 C2067 1.398 . S
C2068 C2069 1.391 . S
C2069 H2057 0.950 . S
C2069 C2065 1.393 . S
C2069 C2068 1.391 . S
C2070 H2060 0.950 . S
C2070 C2071 1.386 . S
C2070 C2072 1.391 . S
C2071 C2070 1.386 . S
C2071 C2075 1.393 . S
C2072 H2061 0.950 . S
C2072 C2070 1.391 . S
C2072 C2073 1.400 . S
C2073 C2067 1.491 . S
C2073 C2072 1.400 . S
C2073 C2074 1.398 . S
C2074 H2062 0.950 . S
C2074 C2073 1.398 . S
C2074 C2075 1.391 . S
C2075 H2063 0.950 . S
C2075 C2071 1.393 . S
C2075 C2074 1.391 . S
H2076 C2084 0.950 . S
H2077 C2089 0.950 . S
H2078 C2086 0.950 . S
H2079 C2088 0.950 . S
H2080 C2090 0.950 . S
H2081 C2092 0.950 . S
H2082 C2094 0.950 . S
H2083 C2095 0.950 . S
C2084 H2076 0.950 . S
C2084 C2085 1.386 . S
C2084 C2086 1.391 . S
C2085 C2084 1.386 . S
C2085 C2089 1.393 . S
C2086 H2078 0.950 . S
C2086 C2084 1.391 . S
C2086 C2087 1.400 . S
C2087 C2086 1.400 . S
C2087 C2088 1.398 . S
C2087 C2093 1.491 . S
C2088 H2079 0.950 . S
C2088 C2087 1.398 . S
C2088 C2089 1.391 . S
C2089 H2077 0.950 . S
C2089 C2085 1.393 . S
C2089 C2088 1.391 . S
C2090 H2080 0.950 . S
C2090 C2091 1.386 . S
C2090 C2092 1.391 . S
C2091 C2090 1.386 . S
C2091 C2095 1.393 . S
C2092 H2081 0.950 . S
C2092 C2090 1.391 . S
C2092 C2093 1.400 . S
C2093 C2087 1.491 . S
C2093 C2092 1.400 . S
C2093 C2094 1.398 . S
C2094 H2082 0.950 . S
C2094 C2093 1.398 . S
C2094 C2095 1.391 . S
C2095 H2083 0.950 . S
C2095 C2091 1.393 . S
C2095 C2094 1.391 . S
H2096 C2104 0.950 . S
H2097 C2109 0.950 . S
H2098 C2106 0.950 . S
H2099 C2108 0.950 . S
H2100 C2110 0.950 . S
H2101 C2112 0.950 . S
H2102 C2114 0.950 . S
H2103 C2115 0.950 . S
C2104 H2096 0.950 . S
C2104 C2105 1.386 . S
C2104 C2106 1.391 . S
C2105 C2104 1.386 . S
C2105 C2109 1.393 . S
C2106 H2098 0.950 . S
C2106 C2104 1.391 . S
C2106 C2107 1.400 . S
C2107 C2106 1.400 . S
C2107 C2108 1.398 . S
C2107 C2113 1.491 . S
C2108 H2099 0.950 . S
C2108 C2107 1.398 . S
C2108 C2109 1.391 . S
C2109 H2097 0.950 . S
C2109 C2105 1.393 . S
C2109 C2108 1.391 . S
C2110 H2100 0.950 . S
C2110 C2111 1.386 . S
C2110 C2112 1.391 . S
C2111 C2110 1.386 . S
C2111 C2115 1.393 . S
C2112 H2101 0.950 . S
C2112 C2110 1.391 . S
C2112 C2113 1.400 . S
C2113 C2107 1.491 . S
C2113 C2112 1.400 . S
C2113 C2114 1.398 . S
C2114 H2102 0.950 . S
C2114 C2113 1.398 . S
C2114 C2115 1.391 . S
C2115 H2103 0.950 . S
C2115 C2111 1.393 . S
C2115 C2114 1.391 . S
H2116 C2124 0.950 . S
H2117 C2129 0.950 . S
H2118 C2126 0.950 . S
H2119 C2128 0.950 . S
H2120 C2130 0.950 . S
H2121 C2132 0.950 . S
H2122 C2134 0.950 . S
H2123 C2135 0.950 . S
C2124 H2116 0.950 . S
C2124 C2125 1.386 . S
C2124 C2126 1.391 . S
C2125 C2124 1.386 . S
C2125 C2129 1.393 . S
C2126 H2118 0.950 . S
C2126 C2124 1.391 . S
C2126 C2127 1.400 . S
C2127 C2126 1.400 . S
C2127 C2128 1.398 . S
C2127 C2133 1.491 . S
C2128 H2119 0.950 . S
C2128 C2127 1.398 . S
C2128 C2129 1.391 . S
C2129 H2117 0.950 . S
C2129 C2125 1.393 . S
C2129 C2128 1.391 . S
C2130 H2120 0.950 . S
C2130 C2131 1.386 . S
C2130 C2132 1.391 . S
C2131 C2130 1.386 . S
C2131 C2135 1.393 . S
C2132 H2121 0.950 . S
C2132 C2130 1.391 . S
C2132 C2133 1.400 . S
C2133 C2127 1.491 . S
C2133 C2132 1.400 . S
C2133 C2134 1.398 . S
C2134 H2122 0.950 . S
C2134 C2133 1.398 . S
C2134 C2135 1.391 . S
C2135 H2123 0.950 . S
C2135 C2131 1.393 . S
C2135 C2134 1.391 . S
H2136 C2144 0.950 . S
H2137 C2149 0.950 . S
H2138 C2146 0.950 . S
H2139 C2148 0.950 . S
H2140 C2150 0.950 . S
H2141 C2152 0.950 . S
H2142 C2154 0.950 . S
H2143 C2155 0.950 . S
C2144 H2136 0.950 . S
C2144 C2145 1.386 . S
C2144 C2146 1.391 . S
C2145 C2144 1.386 . S
C2145 C2149 1.393 . S
C2146 H2138 0.950 . S
C2146 C2144 1.391 . S
C2146 C2147 1.400 . S
C2147 C2146 1.400 . S
C2147 C2148 1.398 . S
C2147 C2153 1.491 . S
C2148 H2139 0.950 . S
C2148 C2147 1.398 . S
C2148 C2149 1.391 . S
C2149 H2137 0.950 . S
C2149 C2145 1.393 . S
C2149 C2148 1.391 . S
C2150 H2140 0.950 . S
C2150 C2151 1.386 . S
C2150 C2152 1.391 . S
C2151 C2150 1.386 . S
C2151 C2155 1.393 . S
C2152 H2141 0.950 . S
C2152 C2150 1.391 . S
C2152 C2153 1.400 . S
C2153 C2147 1.491 . S
C2153 C2152 1.400 . S
C2153 C2154 1.398 . S
C2154 H2142 0.950 . S
C2154 C2153 1.398 . S
C2154 C2155 1.391 . S
C2155 H2143 0.950 . S
C2155 C2151 1.393 . S
C2155 C2154 1.391 . S
H2156 C2164 0.950 . S
H2157 C2169 0.950 . S
H2158 C2166 0.950 . S
H2159 C2168 0.950 . S
H2160 C2170 0.950 . S
H2161 C2172 0.950 . S
H2162 C2174 0.950 . S
H2163 C2175 0.950 . S
C2164 H2156 0.950 . S
C2164 C2165 1.386 . S
C2164 C2166 1.391 . S
C2165 C2164 1.386 . S
C2165 C2169 1.393 . S
C2166 H2158 0.950 . S
C2166 C2164 1.391 . S
C2166 C2167 1.400 . S
C2167 C2166 1.400 . S
C2167 C2168 1.398 . S
C2167 C2173 1.491 . S
C2168 H2159 0.950 . S
C2168 C2167 1.398 . S
C2168 C2169 1.391 . S
C2169 H2157 0.950 . S
C2169 C2165 1.393 . S
C2169 C2168 1.391 . S
C2170 H2160 0.950 . S
C2170 C2171 1.386 . S
C2170 C2172 1.391 . S
C2171 C2170 1.386 . S
C2171 C2175 1.393 . S
C2172 H2161 0.950 . S
C2172 C2170 1.391 . S
C2172 C2173 1.400 . S
C2173 C2167 1.491 . S
C2173 C2172 1.400 . S
C2173 C2174 1.398 . S
C2174 H2162 0.950 . S
C2174 C2173 1.398 . S
C2174 C2175 1.391 . S
C2175 H2163 0.950 . S
C2175 C2171 1.393 . S
C2175 C2174 1.391 . S
H2176 C2184 0.950 . S
H2177 C2189 0.950 . S
H2178 C2186 0.950 . S
H2179 C2188 0.950 . S
H2180 C2190 0.950 . S
H2181 C2192 0.950 . S
H2182 C2194 0.950 . S
H2183 C2195 0.950 . S
C2184 H2176 0.950 . S
C2184 C2185 1.386 . S
C2184 C2186 1.391 . S
C2185 C2184 1.386 . S
C2185 C2189 1.393 . S
C2186 H2178 0.950 . S
C2186 C2184 1.391 . S
C2186 C2187 1.400 . S
C2187 C2186 1.400 . S
C2187 C2188 1.398 . S
C2187 C2193 1.491 . S
C2188 H2179 0.950 . S
C2188 C2187 1.398 . S
C2188 C2189 1.391 . S
C2189 H2177 0.950 . S
C2189 C2185 1.393 . S
C2189 C2188 1.391 . S
C2190 H2180 0.950 . S
C2190 C2191 1.386 . S
C2190 C2192 1.391 . S
C2191 C2190 1.386 . S
C2191 C2195 1.393 . S
C2192 H2181 0.950 . S
C2192 C2190 1.391 . S
C2192 C2193 1.400 . S
C2193 C2187 1.491 . S
C2193 C2192 1.400 . S
C2193 C2194 1.398 . S
C2194 H2182 0.950 . S
C2194 C2193 1.398 . S
C2194 C2195 1.391 . S
C2195 H2183 0.950 . S
C2195 C2191 1.393 . S
C2195 C2194 1.391 . S
H2196 C2204 0.950 . S
H2197 C2209 0.950 . S
H2198 C2206 0.950 . S
H2199 C2208 0.950 . S
H2200 C2210 0.950 . S
H2201 C2212 0.950 . S
H2202 C2214 0.950 . S
H2203 C2215 0.950 . S
C2204 H2196 0.950 . S
C2204 C2205 1.386 . S
C2204 C2206 1.391 . S
C2205 C2204 1.386 . S
C2205 C2209 1.393 . S
C2206 H2198 0.950 . S
C2206 C2204 1.391 . S
C2206 C2207 1.400 . S
C2207 C2206 1.400 . S
C2207 C2208 1.398 . S
C2207 C2213 1.491 . S
C2208 H2199 0.950 . S
C2208 C2207 1.398 . S
C2208 C2209 1.391 . S
C2209 H2197 0.950 . S
C2209 C2205 1.393 . S
C2209 C2208 1.391 . S
C2210 H2200 0.950 . S
C2210 C2211 1.386 . S
C2210 C2212 1.391 . S
C2211 C2210 1.386 . S
C2211 C2215 1.393 . S
C2212 H2201 0.950 . S
C2212 C2210 1.391 . S
C2212 C2213 1.400 . S
C2213 C2207 1.491 . S
C2213 C2212 1.400 . S
C2213 C2214 1.398 . S
C2214 H2202 0.950 . S
C2214 C2213 1.398 . S
C2214 C2215 1.391 . S
C2215 H2203 0.950 . S
C2215 C2211 1.393 . S
C2215 C2214 1.391 . S
H2216 C2224 0.950 . S
H2217 C2229 0.950 . S
H2218 C2226 0.950 . S
H2219 C2228 0.950 . S
H2220 C2230 0.950 . S
H2221 C2232 0.950 . S
H2222 C2234 0.950 . S
H2223 C2235 0.950 . S
C2224 H2216 0.950 . S
C2224 C2225 1.386 . S
C2224 C2226 1.391 . S
C2225 C2224 1.386 . S
C2225 C2229 1.393 . S
C2226 H2218 0.950 . S
C2226 C2224 1.391 . S
C2226 C2227 1.400 . S
C2227 C2226 1.400 . S
C2227 C2228 1.398 . S
C2227 C2233 1.491 . S
C2228 H2219 0.950 . S
C2228 C2227 1.398 . S
C2228 C2229 1.391 . S
C2229 H2217 0.950 . S
C2229 C2225 1.393 . S
C2229 C2228 1.391 . S
C2230 H2220 0.950 . S
C2230 C2231 1.386 . S
C2230 C2232 1.391 . S
C2231 C2230 1.386 . S
C2231 C2235 1.393 . S
C2232 H2221 0.950 . S
C2232 C2230 1.391 . S
C2232 C2233 1.400 . S
C2233 C2227 1.491 . S
C2233 C2232 1.400 . S
C2233 C2234 1.398 . S
C2234 H2222 0.950 . S
C2234 C2233 1.398 . S
C2234 C2235 1.391 . S
C2235 H2223 0.950 . S
C2235 C2231 1.393 . S
C2235 C2234 1.391 . S
H2236 C2244 0.950 . S
H2237 C2249 0.950 . S
H2238 C2246 0.950 . S
H2239 C2248 0.950 . S
H2240 C2250 0.950 . S
H2241 C2252 0.950 . S
H2242 C2254 0.950 . S
H2243 C2255 0.950 . S
C2244 H2236 0.950 . S
C2244 C2245 1.386 . S
C2244 C2246 1.391 . S
C2245 C2244 1.386 . S
C2245 C2249 1.393 . S
C2246 H2238 0.950 . S
C2246 C2244 1.391 . S
C2246 C2247 1.400 . S
C2247 C2246 1.400 . S
C2247 C2248 1.398 . S
C2247 C2253 1.491 . S
C2248 H2239 0.950 . S
C2248 C2247 1.398 . S
C2248 C2249 1.391 . S
C2249 H2237 0.950 . S
C2249 C2245 1.393 . S
C2249 C2248 1.391 . S
C2250 H2240 0.950 . S
C2250 C2251 1.386 . S
C2250 C2252 1.391 . S
C2251 C2250 1.386 . S
C2251 C2255 1.393 . S
C2252 H2241 0.950 . S
C2252 C2250 1.391 . S
C2252 C2253 1.400 . S
C2253 C2247 1.491 . S
C2253 C2252 1.400 . S
C2253 C2254 1.398 . S
C2254 H2242 0.950 . S
C2254 C2253 1.398 . S
C2254 C2255 1.391 . S
C2255 H2243 0.950 . S
C2255 C2251 1.393 . S
C2255 C2254 1.391 . S
H2256 C2264 0.950 . S
H2257 C2269 0.950 . S
H2258 C2266 0.950 . S
H2259 C2268 0.950 . S
H2260 C2270 0.950 . S
H2261 C2272 0.950 . S
H2262 C2274 0.950 . S
H2263 C2275 0.950 . S
C2264 H2256 0.950 . S
C2264 C2265 1.386 . S
C2264 C2266 1.391 . S
C2265 C2264 1.386 . S
C2265 C2269 1.393 . S
C2266 H2258 0.950 . S
C2266 C2264 1.391 . S
C2266 C2267 1.400 . S
C2267 C2266 1.400 . S
C2267 C2268 1.398 . S
C2267 C2273 1.491 . S
C2268 H2259 0.950 . S
C2268 C2267 1.398 . S
C2268 C2269 1.391 . S
C2269 H2257 0.950 . S
C2269 C2265 1.393 . S
C2269 C2268 1.391 . S
C2270 H2260 0.950 . S
C2270 C2271 1.386 . S
C2270 C2272 1.391 . S
C2271 C2270 1.386 . S
C2271 C2275 1.393 . S
C2272 H2261 0.950 . S
C2272 C2270 1.391 . S
C2272 C2273 1.400 . S
C2273 C2267 1.491 . S
C2273 C2272 1.400 . S
C2273 C2274 1.398 . S
C2274 H2262 0.950 . S
C2274 C2273 1.398 . S
C2274 C2275 1.391 . S
C2275 H2263 0.950 . S
C2275 C2271 1.393 . S
C2275 C2274 1.391 . S
H2276 C2284 0.950 . S
H2277 C2289 0.950 . S
H2278 C2286 0.950 . S
H2279 C2288 0.950 . S
H2280 C2290 0.950 . S
H2281 C2292 0.950 . S
H2282 C2294 0.950 . S
H2283 C2295 0.950 . S
C2284 H2276 0.950 . S
C2284 C2285 1.386 . S
C2284 C2286 1.391 . S
C2285 C2284 1.386 . S
C2285 C2289 1.393 . S
C2286 H2278 0.950 . S
C2286 C2284 1.391 . S
C2286 C2287 1.400 . S
C2287 C2286 1.400 . S
C2287 C2288 1.398 . S
C2287 C2293 1.491 . S
C2288 H2279 0.950 . S
C2288 C2287 1.398 . S
C2288 C2289 1.391 . S
C2289 H2277 0.950 . S
C2289 C2285 1.393 . S
C2289 C2288 1.391 . S
C2290 H2280 0.950 . S
C2290 C2291 1.386 . S
C2290 C2292 1.391 . S
C2291 C2290 1.386 . S
C2291 C2295 1.393 . S
C2292 H2281 0.950 . S
C2292 C2290 1.391 . S
C2292 C2293 1.400 . S
C2293 C2287 1.491 . S
C2293 C2292 1.400 . S
C2293 C2294 1.398 . S
C2294 H2282 0.950 . S
C2294 C2293 1.398 . S
C2294 C2295 1.391 . S
C2295 H2283 0.950 . S
C2295 C2291 1.393 . S
C2295 C2294 1.391 . S
H2296 C2304 0.950 . S
H2297 C2309 0.950 . S
H2298 C2306 0.950 . S
H2299 C2308 0.950 . S
H2300 C2310 0.950 . S
H2301 C2312 0.950 . S
H2302 C2314 0.950 . S
H2303 C2315 0.950 . S
C2304 H2296 0.950 . S
C2304 C2305 1.386 . S
C2304 C2306 1.391 . S
C2305 C2304 1.386 . S
C2305 C2309 1.393 . S
C2306 H2298 0.950 . S
C2306 C2304 1.391 . S
C2306 C2307 1.400 . S
C2307 C2306 1.400 . S
C2307 C2308 1.398 . S
C2307 C2313 1.491 . S
C2308 H2299 0.950 . S
C2308 C2307 1.398 . S
C2308 C2309 1.391 . S
C2309 H2297 0.950 . S
C2309 C2305 1.393 . S
C2309 C2308 1.391 . S
C2310 H2300 0.950 . S
C2310 C2311 1.386 . S
C2310 C2312 1.391 . S
C2311 C2310 1.386 . S
C2311 C2315 1.393 . S
C2312 H2301 0.950 . S
C2312 C2310 1.391 . S
C2312 C2313 1.400 . S
C2313 C2307 1.491 . S
C2313 C2312 1.400 . S
C2313 C2314 1.398 . S
C2314 H2302 0.950 . S
C2314 C2313 1.398 . S
C2314 C2315 1.391 . S
C2315 H2303 0.950 . S
C2315 C2311 1.393 . S
C2315 C2314 1.391 . S
H2316 C2324 0.950 . S
H2317 C2329 0.950 . S
H2318 C2326 0.950 . S
H2319 C2328 0.950 . S
H2320 C2330 0.950 . S
H2321 C2332 0.950 . S
H2322 C2334 0.950 . S
H2323 C2335 0.950 . S
C2324 H2316 0.950 . S
C2324 C2325 1.386 . S
C2324 C2326 1.391 . S
C2325 C2324 1.386 . S
C2325 C2329 1.393 . S
C2326 H2318 0.950 . S
C2326 C2324 1.391 . S
C2326 C2327 1.400 . S
C2327 C2326 1.400 . S
C2327 C2328 1.398 . S
C2327 C2333 1.491 . S
C2328 H2319 0.950 . S
C2328 C2327 1.398 . S
C2328 C2329 1.391 . S
C2329 H2317 0.950 . S
C2329 C2325 1.393 . S
C2329 C2328 1.391 . S
C2330 H2320 0.950 . S
C2330 C2331 1.386 . S
C2330 C2332 1.391 . S
C2331 C2330 1.386 . S
C2331 C2335 1.393 . S
C2332 H2321 0.950 . S
C2332 C2330 1.391 . S
C2332 C2333 1.400 . S
C2333 C2327 1.491 . S
C2333 C2332 1.400 . S
C2333 C2334 1.398 . S
C2334 H2322 0.950 . S
C2334 C2333 1.398 . S
C2334 C2335 1.391 . S
C2335 H2323 0.950 . S
C2335 C2331 1.393 . S
C2335 C2334 1.391 . S
H2336 C2344 0.950 . S
H2337 C2349 0.950 . S
H2338 C2346 0.950 . S
H2339 C2348 0.950 . S
H2340 C2350 0.950 . S
H2341 C2352 0.950 . S
H2342 C2354 0.950 . S
H2343 C2355 0.950 . S
C2344 H2336 0.950 . S
C2344 C2345 1.386 . S
C2344 C2346 1.391 . S
C2345 C2344 1.386 . S
C2345 C2349 1.393 . S
C2346 H2338 0.950 . S
C2346 C2344 1.391 . S
C2346 C2347 1.400 . S
C2347 C2346 1.400 . S
C2347 C2348 1.398 . S
C2347 C2353 1.491 . S
C2348 H2339 0.950 . S
C2348 C2347 1.398 . S
C2348 C2349 1.391 . S
C2349 H2337 0.950 . S
C2349 C2345 1.393 . S
C2349 C2348 1.391 . S
C2350 H2340 0.950 . S
C2350 C2351 1.386 . S
C2350 C2352 1.391 . S
C2351 C2350 1.386 . S
C2351 C2355 1.393 . S
C2352 H2341 0.950 . S
C2352 C2350 1.391 . S
C2352 C2353 1.400 . S
C2353 C2347 1.491 . S
C2353 C2352 1.400 . S
C2353 C2354 1.398 . S
C2354 H2342 0.950 . S
C2354 C2353 1.398 . S
C2354 C2355 1.391 . S
C2355 H2343 0.950 . S
C2355 C2351 1.393 . S
C2355 C2354 1.391 . S
H2356 C2364 0.950 . S
H2357 C2369 0.950 . S
H2358 C2366 0.950 . S
H2359 C2368 0.950 . S
H2360 C2370 0.950 . S
H2361 C2372 0.950 . S
H2362 C2374 0.950 . S
H2363 C2375 0.950 . S
C2364 H2356 0.950 . S
C2364 C2365 1.386 . S
C2364 C2366 1.391 . S
C2365 C2364 1.386 . S
C2365 C2369 1.393 . S
C2366 H2358 0.950 . S
C2366 C2364 1.391 . S
C2366 C2367 1.400 . S
C2367 C2366 1.400 . S
C2367 C2368 1.398 . S
C2367 C2373 1.491 . S
C2368 H2359 0.950 . S
C2368 C2367 1.398 . S
C2368 C2369 1.391 . S
C2369 H2357 0.950 . S
C2369 C2365 1.393 . S
C2369 C2368 1.391 . S
C2370 H2360 0.950 . S
C2370 C2371 1.386 . S
C2370 C2372 1.391 . S
C2371 C2370 1.386 . S
C2371 C2375 1.393 . S
C2372 H2361 0.950 . S
C2372 C2370 1.391 . S
C2372 C2373 1.400 . S
C2373 C2367 1.491 . S
C2373 C2372 1.400 . S
C2373 C2374 1.398 . S
C2374 H2362 0.950 . S
C2374 C2373 1.398 . S
C2374 C2375 1.391 . S
C2375 H2363 0.950 . S
C2375 C2371 1.393 . S
C2375 C2374 1.391 . S
H2376 C2384 0.950 . S
H2377 C2389 0.950 . S
H2378 C2386 0.950 . S
H2379 C2388 0.950 . S
H2380 C2390 0.950 . S
H2381 C2392 0.950 . S
H2382 C2394 0.950 . S
H2383 C2395 0.950 . S
C2384 H2376 0.950 . S
C2384 C2385 1.386 . S
C2384 C2386 1.391 . S
C2385 C2384 1.386 . S
C2385 C2389 1.393 . S
C2386 H2378 0.950 . S
C2386 C2384 1.391 . S
C2386 C2387 1.400 . S
C2387 C2386 1.400 . S
C2387 C2388 1.398 . S
C2387 C2393 1.491 . S
C2388 H2379 0.950 . S
C2388 C2387 1.398 . S
C2388 C2389 1.391 . S
C2389 H2377 0.950 . S
C2389 C2385 1.393 . S
C2389 C2388 1.391 . S
C2390 H2380 0.950 . S
C2390 C2391 1.386 . S
C2390 C2392 1.391 . S
C2391 C2390 1.386 . S
C2391 C2395 1.393 . S
C2392 H2381 0.950 . S
C2392 C2390 1.391 . S
C2392 C2393 1.400 . S
C2393 C2387 1.491 . S
C2393 C2392 1.400 . S
C2393 C2394 1.398 . S
C2394 H2382 0.950 . S
C2394 C2393 1.398 . S
C2394 C2395 1.391 . S
C2395 H2383 0.950 . S
C2395 C2391 1.393 . S
C2395 C2394 1.391 . S
H2396 C2404 0.950 . S
H2397 C2409 0.950 . S
H2398 C2406 0.950 . S
H2399 C2408 0.950 . S
H2400 C2410 0.950 . S
H2401 C2412 0.950 . S
H2402 C2414 0.950 . S
H2403 C2415 0.950 . S
C2404 H2396 0.950 . S
C2404 C2405 1.386 . S
C2404 C2406 1.391 . S
C2405 C2404 1.386 . S
C2405 C2409 1.393 . S
C2406 H2398 0.950 . S
C2406 C2404 1.391 . S
C2406 C2407 1.400 . S
C2407 C2406 1.400 . S
C2407 C2408 1.398 . S
C2407 C2413 1.491 . S
C2408 H2399 0.950 . S
C2408 C2407 1.398 . S
C2408 C2409 1.391 . S
C2409 H2397 0.950 . S
C2409 C2405 1.393 . S
C2409 C2408 1.391 . S
C2410 H2400 0.950 . S
C2410 C2411 1.386 . S
C2410 C2412 1.391 . S
C2411 C2410 1.386 . S
C2411 C2415 1.393 . S
C2412 H2401 0.950 . S
C2412 C2410 1.391 . S
C2412 C2413 1.400 . S
C2413 C2407 1.491 . S
C2413 C2412 1.400 . S
C2413 C2414 1.398 . S
C2414 H2402 0.950 . S
C2414 C2413 1.398 . S
C2414 C2415 1.391 . S
C2415 H2403 0.950 . S
C2415 C2411 1.393 . S
C2415 C2414 1.391 . S
H2416 C2424 0.950 . S
H2417 C2429 0.950 . S
H2418 C2426 0.950 . S
H2419 C2428 0.950 . S
H2420 C2430 0.950 . S
H2421 C2432 0.950 . S
H2422 C2434 0.950 . S
H2423 C2435 0.950 . S
C2424 H2416 0.950 . S
C2424 C2425 1.386 . S
C2424 C2426 1.391 . S
C2425 C2424 1.386 . S
C2425 C2429 1.393 . S
C2426 H2418 0.950 . S
C2426 C2424 1.391 . S
C2426 C2427 1.400 . S
C2427 C2426 1.400 . S
C2427 C2428 1.398 . S
C2427 C2433 1.491 . S
C2428 H2419 0.950 . S
C2428 C2427 1.398 . S
C2428 C2429 1.391 . S
C2429 H2417 0.950 . S
C2429 C2425 1.393 . S
C2429 C2428 1.391 . S
C2430 H2420 0.950 . S
C2430 C2431 1.386 . S
C2430 C2432 1.391 . S
C2431 C2430 1.386 . S
C2431 C2435 1.393 . S
C2432 H2421 0.950 . S
C2432 C2430 1.391 . S
C2432 C2433 1.400 . S
C2433 C2427 1.491 . S
C2433 C2432 1.400 . S
C2433 C2434 1.398 . S
C2434 H2422 0.950 . S
C2434 C2433 1.398 . S
C2434 C2435 1.391 . S
C2435 H2423 0.950 . S
C2435 C2431 1.393 . S
C2435 C2434 1.391 . S
H2436 C2444 0.950 . S
H2437 C2449 0.950 . S
H2438 C2446 0.950 . S
H2439 C2448 0.950 . S
H2440 C2450 0.950 . S
H2441 C2452 0.950 . S
H2442 C2454 0.950 . S
H2443 C2455 0.950 . S
C2444 H2436 0.950 . S
C2444 C2445 1.386 . S
C2444 C2446 1.391 . S
C2445 C2444 1.386 . S
C2445 C2449 1.393 . S
C2446 H2438 0.950 . S
C2446 C2444 1.391 . S
C2446 C2447 1.400 . S
C2447 C2446 1.400 . S
C2447 C2448 1.398 . S
C2447 C2453 1.491 . S
C2448 H2439 0.950 . S
C2448 C2447 1.398 . S
C2448 C2449 1.391 . S
C2449 H2437 0.950 . S
C2449 C2445 1.393 . S
C2449 C2448 1.391 . S
C2450 H2440 0.950 . S
C2450 C2451 1.386 . S
C2450 C2452 1.391 . S
C2451 C2450 1.386 . S
C2451 C2455 1.393 . S
C2452 H2441 0.950 . S
C2452 C2450 1.391 . S
C2452 C2453 1.400 . S
C2453 C2447 1.491 . S
C2453 C2452 1.400 . S
C2453 C2454 1.398 . S
C2454 H2442 0.950 . S
C2454 C2453 1.398 . S
C2454 C2455 1.391 . S
C2455 H2443 0.950 . S
C2455 C2451 1.393 . S
C2455 C2454 1.391 . S
H2456 C2464 0.950 . S
H2457 C2469 0.950 . S
H2458 C2466 0.950 . S
H2459 C2468 0.950 . S
H2460 C2470 0.950 . S
H2461 C2472 0.950 . S
H2462 C2474 0.950 . S
H2463 C2475 0.950 . S
C2464 H2456 0.950 . S
C2464 C2465 1.386 . S
C2464 C2466 1.391 . S
C2465 C2464 1.386 . S
C2465 C2469 1.393 . S
C2466 H2458 0.950 . S
C2466 C2464 1.391 . S
C2466 C2467 1.400 . S
C2467 C2466 1.400 . S
C2467 C2468 1.398 . S
C2467 C2473 1.491 . S
C2468 H2459 0.950 . S
C2468 C2467 1.398 . S
C2468 C2469 1.391 . S
C2469 H2457 0.950 . S
C2469 C2465 1.393 . S
C2469 C2468 1.391 . S
C2470 H2460 0.950 . S
C2470 C2471 1.386 . S
C2470 C2472 1.391 . S
C2471 C2470 1.386 . S
C2471 C2475 1.393 . S
C2472 H2461 0.950 . S
C2472 C2470 1.391 . S
C2472 C2473 1.400 . S
C2473 C2467 1.491 . S
C2473 C2472 1.400 . S
C2473 C2474 1.398 . S
C2474 H2462 0.950 . S
C2474 C2473 1.398 . S
C2474 C2475 1.391 . S
C2475 H2463 0.950 . S
C2475 C2471 1.393 . S
C2475 C2474 1.391 . S
H2476 C2484 0.950 . S
H2477 C2489 0.950 . S
H2478 C2486 0.950 . S
H2479 C2488 0.950 . S
H2480 C2490 0.950 . S
H2481 C2492 0.950 . S
H2482 C2494 0.950 . S
H2483 C2495 0.950 . S
C2484 H2476 0.950 . S
C2484 C2485 1.386 . S
C2484 C2486 1.391 . S
C2485 C2484 1.386 . S
C2485 C2489 1.393 . S
C2486 H2478 0.950 . S
C2486 C2484 1.391 . S
C2486 C2487 1.400 . S
C2487 C2486 1.400 . S
C2487 C2488 1.398 . S
C2487 C2493 1.491 . S
C2488 H2479 0.950 . S
C2488 C2487 1.398 . S
C2488 C2489 1.391 . S
C2489 H2477 0.950 . S
C2489 C2485 1.393 . S
C2489 C2488 1.391 . S
C2490 H2480 0.950 . S
C2490 C2491 1.386 . S
C2490 C2492 1.391 . S
C2491 C2490 1.386 . S
C2491 C2495 1.393 . S
C2492 H2481 0.950 . S
C2492 C2490 1.391 . S
C2492 C2493 1.400 . S
C2493 C2487 1.491 . S
C2493 C2492 1.400 . S
C2493 C2494 1.398 . S
C2494 H2482 0.950 . S
C2494 C2493 1.398 . S
C2494 C2495 1.391 . S
C2495 H2483 0.950 . S
C2495 C2491 1.393 . S
C2495 C2494 1.391 . S
H2496 C2504 0.950 . S
H2497 C2509 0.950 . S
H2498 C2506 0.950 . S
H2499 C2508 0.950 . S
H2500 C2510 0.950 . S
H2501 C2512 0.950 . S
H2502 C2514 0.950 . S
H2503 C2515 0.950 . S
C2504 H2496 0.950 . S
C2504 C2505 1.386 . S
C2504 C2506 1.391 . S
C2505 C2504 1.386 . S
C2505 C2509 1.393 . S
C2506 H2498 0.950 . S
C2506 C2504 1.391 . S
C2506 C2507 1.400 . S
C2507 C2506 1.400 . S
C2507 C2508 1.398 . S
C2507 C2513 1.491 . S
C2508 H2499 0.950 . S
C2508 C2507 1.398 . S
C2508 C2509 1.391 . S
C2509 H2497 0.950 . S
C2509 C2505 1.393 . S
C2509 C2508 1.391 . S
C2510 H2500 0.950 . S
C2510 C2511 1.386 . S
C2510 C2512 1.391 . S
C2511 C2510 1.386 . S
C2511 C2515 1.393 . S
C2512 H2501 0.950 . S
C2512 C2510 1.391 . S
C2512 C2513 1.400 . S
C2513 C2507 1.491 . S
C2513 C2512 1.400 . S
C2513 C2514 1.398 . S
C2514 H2502 0.950 . S
C2514 C2513 1.398 . S
C2514 C2515 1.391 . S
C2515 H2503 0.950 . S
C2515 C2511 1.393 . S
C2515 C2514 1.391 . S
H2516 C2524 0.950 . S
H2517 C2529 0.950 . S
H2518 C2526 0.950 . S
H2519 C2528 0.950 . S
H2520 C2530 0.950 . S
H2521 C2532 0.950 . S
H2522 C2534 0.950 . S
H2523 C2535 0.950 . S
C2524 H2516 0.950 . S
C2524 C2525 1.386 . S
C2524 C2526 1.391 . S
C2525 C2524 1.386 . S
C2525 C2529 1.393 . S
C2526 H2518 0.950 . S
C2526 C2524 1.391 . S
C2526 C2527 1.400 . S
C2527 C2526 1.400 . S
C2527 C2528 1.398 . S
C2527 C2533 1.491 . S
C2528 H2519 0.950 . S
C2528 C2527 1.398 . S
C2528 C2529 1.391 . S
C2529 H2517 0.950 . S
C2529 C2525 1.393 . S
C2529 C2528 1.391 . S
C2530 H2520 0.950 . S
C2530 C2531 1.386 . S
C2530 C2532 1.391 . S
C2531 C2530 1.386 . S
C2531 C2535 1.393 . S
C2532 H2521 0.950 . S
C2532 C2530 1.391 . S
C2532 C2533 1.400 . S
C2533 C2527 1.491 . S
C2533 C2532 1.400 . S
C2533 C2534 1.398 . S
C2534 H2522 0.950 . S
C2534 C2533 1.398 . S
C2534 C2535 1.391 . S
C2535 H2523 0.950 . S
C2535 C2531 1.393 . S
C2535 C2534 1.391 . S
H2536 C2544 0.950 . S
H2537 C2549 0.950 . S
H2538 C2546 0.950 . S
H2539 C2548 0.950 . S
H2540 C2550 0.950 . S
H2541 C2552 0.950 . S
H2542 C2554 0.950 . S
H2543 C2555 0.950 . S
C2544 H2536 0.950 . S
C2544 C2545 1.386 . S
C2544 C2546 1.391 . S
C2545 C2544 1.386 . S
C2545 C2549 1.393 . S
C2546 H2538 0.950 . S
C2546 C2544 1.391 . S
C2546 C2547 1.400 . S
C2547 C2546 1.400 . S
C2547 C2548 1.398 . S
C2547 C2553 1.491 . S
C2548 H2539 0.950 . S
C2548 C2547 1.398 . S
C2548 C2549 1.391 . S
C2549 H2537 0.950 . S
C2549 C2545 1.393 . S
C2549 C2548 1.391 . S
C2550 H2540 0.950 . S
C2550 C2551 1.386 . S
C2550 C2552 1.391 . S
C2551 C2550 1.386 . S
C2551 C2555 1.393 . S
C2552 H2541 0.950 . S
C2552 C2550 1.391 . S
C2552 C2553 1.400 . S
C2553 C2547 1.491 . S
C2553 C2552 1.400 . S
C2553 C2554 1.398 . S
C2554 H2542 0.950 . S
C2554 C2553 1.398 . S
C2554 C2555 1.391 . S
C2555 H2543 0.950 . S
C2555 C2551 1.393 . S
C2555 C2554 1.391 . S
H2556 C2564 0.950 . S
H2557 C2569 0.950 . S
H2558 C2566 0.950 . S
H2559 C2568 0.950 . S
H2560 C2570 0.950 . S
H2561 C2572 0.950 . S
H2562 C2574 0.950 . S
H2563 C2575 0.950 . S
C2564 H2556 0.950 . S
C2564 C2565 1.386 . S
C2564 C2566 1.391 . S
C2565 C2564 1.386 . S
C2565 C2569 1.393 . S
C2566 H2558 0.950 . S
C2566 C2564 1.391 . S
C2566 C2567 1.400 . S
C2567 C2566 1.400 . S
C2567 C2568 1.398 . S
C2567 C2573 1.491 . S
C2568 H2559 0.950 . S
C2568 C2567 1.398 . S
C2568 C2569 1.391 . S
C2569 H2557 0.950 . S
C2569 C2565 1.393 . S
C2569 C2568 1.391 . S
C2570 H2560 0.950 . S
C2570 C2571 1.386 . S
C2570 C2572 1.391 . S
C2571 C2570 1.386 . S
C2571 C2575 1.393 . S
C2572 H2561 0.950 . S
C2572 C2570 1.391 . S
C2572 C2573 1.400 . S
C2573 C2567 1.491 . S
C2573 C2572 1.400 . S
C2573 C2574 1.398 . S
C2574 H2562 0.950 . S
C2574 C2573 1.398 . S
C2574 C2575 1.391 . S
C2575 H2563 0.950 . S
C2575 C2571 1.393 . S
C2575 C2574 1.391 . S
H2576 C2584 0.950 . S
H2577 C2589 0.950 . S
H2578 C2586 0.950 . S
H2579 C2588 0.950 . S
H2580 C2590 0.950 . S
H2581 C2592 0.950 . S
H2582 C2594 0.950 . S
H2583 C2595 0.950 . S
C2584 H2576 0.950 . S
C2584 C2585 1.386 . S
C2584 C2586 1.391 . S
C2585 C2584 1.386 . S
C2585 C2589 1.393 . S
C2586 H2578 0.950 . S
C2586 C2584 1.391 . S
C2586 C2587 1.400 . S
C2587 C2586 1.400 . S
C2587 C2588 1.398 . S
C2587 C2593 1.491 . S
C2588 H2579 0.950 . S
C2588 C2587 1.398 . S
C2588 C2589 1.391 . S
C2589 H2577 0.950 . S
C2589 C2585 1.393 . S
C2589 C2588 1.391 . S
C2590 H2580 0.950 . S
C2590 C2591 1.386 . S
C2590 C2592 1.391 . S
C2591 C2590 1.386 . S
C2591 C2595 1.393 . S
C2592 H2581 0.950 . S
C2592 C2590 1.391 . S
C2592 C2593 1.400 . S
C2593 C2587 1.491 . S
C2593 C2592 1.400 . S
C2593 C2594 1.398 . S
C2594 H2582 0.950 . S
C2594 C2593 1.398 . S
C2594 C2595 1.391 . S
C2595 H2583 0.950 . S
C2595 C2591 1.393 . S
C2595 C2594 1.391 . S
H2596 C2604 0.950 . S
H2597 C2609 0.950 . S
H2598 C2606 0.950 . S
H2599 C2608 0.950 . S
H2600 C2610 0.950 . S
H2601 C2612 0.950 . S
H2602 C2614 0.950 . S
H2603 C2615 0.950 . S
C2604 H2596 0.950 . S
C2604 C2605 1.386 . S
C2604 C2606 1.391 . S
C2605 C2604 1.386 . S
C2605 C2609 1.393 . S
C2606 H2598 0.950 . S
C2606 C2604 1.391 . S
C2606 C2607 1.400 . S
C2607 C2606 1.400 . S
C2607 C2608 1.398 . S
C2607 C2613 1.491 . S
C2608 H2599 0.950 . S
C2608 C2607 1.398 . S
C2608 C2609 1.391 . S
C2609 H2597 0.950 . S
C2609 C2605 1.393 . S
C2609 C2608 1.391 . S
C2610 H2600 0.950 . S
C2610 C2611 1.386 . S
C2610 C2612 1.391 . S
C2611 C2610 1.386 . S
C2611 C2615 1.393 . S
C2612 H2601 0.950 . S
C2612 C2610 1.391 . S
C2612 C2613 1.400 . S
C2613 C2607 1.491 . S
C2613 C2612 1.400 . S
C2613 C2614 1.398 . S
C2614 H2602 0.950 . S
C2614 C2613 1.398 . S
C2614 C2615 1.391 . S
C2615 H2603 0.950 . S
C2615 C2611 1.393 . S
C2615 C2614 1.391 . S
H2616 C2624 0.950 . S
H2617 C2629 0.950 . S
H2618 C2626 0.950 . S
H2619 C2628 0.950 . S
H2620 C2630 0.950 . S
H2621 C2632 0.950 . S
H2622 C2634 0.950 . S
H2623 C2635 0.950 . S
C2624 H2616 0.950 . S
C2624 C2625 1.386 . S
C2624 C2626 1.391 . S
C2625 C2624 1.386 . S
C2625 C2629 1.393 . S
C2626 H2618 0.950 . S
C2626 C2624 1.391 . S
C2626 C2627 1.400 . S
C2627 C2626 1.400 . S
C2627 C2628 1.398 . S
C2627 C2633 1.491 . S
C2628 H2619 0.950 . S
C2628 C2627 1.398 . S
C2628 C2629 1.391 . S
C2629 H2617 0.950 . S
C2629 C2625 1.393 . S
C2629 C2628 1.391 . S
C2630 H2620 0.950 . S
C2630 C2631 1.386 . S
C2630 C2632 1.391 . S
C2631 C2630 1.386 . S
C2631 C2635 1.393 . S
C2632 H2621 0.950 . S
C2632 C2630 1.391 . S
C2632 C2633 1.400 . S
C2633 C2627 1.491 . S
C2633 C2632 1.400 . S
C2633 C2634 1.398 . S
C2634 H2622 0.950 . S
C2634 C2633 1.398 . S
C2634 C2635 1.391 . S
C2635 H2623 0.950 . S
C2635 C2631 1.393 . S
C2635 C2634 1.391 . S
H2636 C2644 0.950 . S
H2637 C2649 0.950 . S
H2638 C2646 0.950 . S
H2639 C2648 0.950 . S
H2640 C2650 0.950 . S
H2641 C2652 0.950 . S
H2642 C2654 0.950 . S
H2643 C2655 0.950 . S
C2644 H2636 0.950 . S
C2644 C2645 1.386 . S
C2644 C2646 1.391 . S
C2645 C2644 1.386 . S
C2645 C2649 1.393 . S
C2646 H2638 0.950 . S
C2646 C2644 1.391 . S
C2646 C2647 1.400 . S
C2647 C2646 1.400 . S
C2647 C2648 1.398 . S
C2647 C2653 1.491 . S
C2648 H2639 0.950 . S
C2648 C2647 1.398 . S
C2648 C2649 1.391 . S
C2649 H2637 0.950 . S
C2649 C2645 1.393 . S
C2649 C2648 1.391 . S
C2650 H2640 0.950 . S
C2650 C2651 1.386 . S
C2650 C2652 1.391 . S
C2651 C2650 1.386 . S
C2651 C2655 1.393 . S
C2652 H2641 0.950 . S
C2652 C2650 1.391 . S
C2652 C2653 1.400 . S
C2653 C2647 1.491 . S
C2653 C2652 1.400 . S
C2653 C2654 1.398 . S
C2654 H2642 0.950 . S
C2654 C2653 1.398 . S
C2654 C2655 1.391 . S
C2655 H2643 0.950 . S
C2655 C2651 1.393 . S
C2655 C2654 1.391 . S
H2656 C2664 0.950 . S
H2657 C2669 0.950 . S
H2658 C2666 0.950 . S
H2659 C2668 0.950 . S
H2660 C2670 0.950 . S
H2661 C2672 0.950 . S
H2662 C2674 0.950 . S
H2663 C2675 0.950 . S
C2664 H2656 0.950 . S
C2664 C2665 1.386 . S
C2664 C2666 1.391 . S
C2665 C2664 1.386 . S
C2665 C2669 1.393 . S
C2666 H2658 0.950 . S
C2666 C2664 1.391 . S
C2666 C2667 1.400 . S
C2667 C2666 1.400 . S
C2667 C2668 1.398 . S
C2667 C2673 1.491 . S
C2668 H2659 0.950 . S
C2668 C2667 1.398 . S
C2668 C2669 1.391 . S
C2669 H2657 0.950 . S
C2669 C2665 1.393 . S
C2669 C2668 1.391 . S
C2670 H2660 0.950 . S
C2670 C2671 1.386 . S
C2670 C2672 1.391 . S
C2671 C2670 1.386 . S
C2671 C2675 1.393 . S
C2672 H2661 0.950 . S
C2672 C2670 1.391 . S
C2672 C2673 1.400 . S
C2673 C2667 1.491 . S
C2673 C2672 1.400 . S
C2673 C2674 1.398 . S
C2674 H2662 0.950 . S
C2674 C2673 1.398 . S
C2674 C2675 1.391 . S
C2675 H2663 0.950 . S
C2675 C2671 1.393 . S
C2675 C2674 1.391 . S
H2676 C2684 0.950 . S
H2677 C2689 0.950 . S
H2678 C2686 0.950 . S
H2679 C2688 0.950 . S
H2680 C2690 0.950 . S
H2681 C2692 0.950 . S
H2682 C2694 0.950 . S
H2683 C2695 0.950 . S
C2684 H2676 0.950 . S
C2684 C2685 1.386 . S
C2684 C2686 1.391 . S
C2685 C2684 1.386 . S
C2685 C2689 1.393 . S
C2686 H2678 0.950 . S
C2686 C2684 1.391 . S
C2686 C2687 1.400 . S
C2687 C2686 1.400 . S
C2687 C2688 1.398 . S
C2687 C2693 1.491 . S
C2688 H2679 0.950 . S
C2688 C2687 1.398 . S
C2688 C2689 1.391 . S
C2689 H2677 0.950 . S
C2689 C2685 1.393 . S
C2689 C2688 1.391 . S
C2690 H2680 0.950 . S
C2690 C2691 1.386 . S
C2690 C2692 1.391 . S
C2691 C2690 1.386 . S
C2691 C2695 1.393 . S
C2692 H2681 0.950 . S
C2692 C2690 1.391 . S
C2692 C2693 1.400 . S
C2693 C2687 1.491 . S
C2693 C2692 1.400 . S
C2693 C2694 1.398 . S
C2694 H2682 0.950 . S
C2694 C2693 1.398 . S
C2694 C2695 1.391 . S
C2695 H2683 0.950 . S
C2695 C2691 1.393 . S
C2695 C2694 1.391 . S
H2696 C2704 0.950 . S
H2697 C2709 0.950 . S
H2698 C2706 0.950 . S
H2699 C2708 0.950 . S
H2700 C2710 0.950 . S
H2701 C2712 0.950 . S
H2702 C2714 0.950 . S
H2703 C2715 0.950 . S
C2704 H2696 0.950 . S
C2704 C2705 1.386 . S
C2704 C2706 1.391 . S
C2705 C2704 1.386 . S
C2705 C2709 1.393 . S
C2706 H2698 0.950 . S
C2706 C2704 1.391 . S
C2706 C2707 1.400 . S
C2707 C2706 1.400 . S
C2707 C2708 1.398 . S
C2707 C2713 1.491 . S
C2708 H2699 0.950 . S
C2708 C2707 1.398 . S
C2708 C2709 1.391 . S
C2709 H2697 0.950 . S
C2709 C2705 1.393 . S
C2709 C2708 1.391 . S
C2710 H2700 0.950 . S
C2710 C2711 1.386 . S
C2710 C2712 1.391 . S
C2711 C2710 1.386 . S
C2711 C2715 1.393 . S
C2712 H2701 0.950 . S
C2712 C2710 1.391 . S
C2712 C2713 1.400 . S
C2713 C2707 1.491 . S
C2713 C2712 1.400 . S
C2713 C2714 1.398 . S
C2714 H2702 0.950 . S
C2714 C2713 1.398 . S
C2714 C2715 1.391 . S
C2715 H2703 0.950 . S
C2715 C2711 1.393 . S
C2715 C2714 1.391 . S
H2716 C2724 0.950 . S
H2717 C2729 0.950 . S
H2718 C2726 0.950 . S
H2719 C2728 0.950 . S
H2720 C2730 0.950 . S
H2721 C2732 0.950 . S
H2722 C2734 0.950 . S
H2723 C2735 0.950 . S
C2724 H2716 0.950 . S
C2724 C2725 1.386 . S
C2724 C2726 1.391 . S
C2725 C2724 1.386 . S
C2725 C2729 1.393 . S
C2726 H2718 0.950 . S
C2726 C2724 1.391 . S
C2726 C2727 1.400 . S
C2727 C2726 1.400 . S
C2727 C2728 1.398 . S
C2727 C2733 1.491 . S
C2728 H2719 0.950 . S
C2728 C2727 1.398 . S
C2728 C2729 1.391 . S
C2729 H2717 0.950 . S
C2729 C2725 1.393 . S
C2729 C2728 1.391 . S
C2730 H2720 0.950 . S
C2730 C2731 1.386 . S
C2730 C2732 1.391 . S
C2731 C2730 1.386 . S
C2731 C2735 1.393 . S
C2732 H2721 0.950 . S
C2732 C2730 1.391 . S
C2732 C2733 1.400 . S
C2733 C2727 1.491 . S
C2733 C2732 1.400 . S
C2733 C2734 1.398 . S
C2734 H2722 0.950 . S
C2734 C2733 1.398 . S
C2734 C2735 1.391 . S
C2735 H2723 0.950 . S
C2735 C2731 1.393 . S
C2735 C2734 1.391 . S
H2736 C2744 0.950 . S
H2737 C2749 0.950 . S
H2738 C2746 0.950 . S
H2739 C2748 0.950 . S
H2740 C2750 0.950 . S
H2741 C2752 0.950 . S
H2742 C2754 0.950 . S
H2743 C2755 0.950 . S
C2744 H2736 0.950 . S
C2744 C2745 1.386 . S
C2744 C2746 1.391 . S
C2745 C2744 1.386 . S
C2745 C2749 1.393 . S
C2746 H2738 0.950 . S
C2746 C2744 1.391 . S
C2746 C2747 1.400 . S
C2747 C2746 1.400 . S
C2747 C2748 1.398 . S
C2747 C2753 1.491 . S
C2748 H2739 0.950 . S
C2748 C2747 1.398 . S
C2748 C2749 1.391 . S
C2749 H2737 0.950 . S
C2749 C2745 1.393 . S
C2749 C2748 1.391 . S
C2750 H2740 0.950 . S
C2750 C2751 1.386 . S
C2750 C2752 1.391 . S
C2751 C2750 1.386 . S
C2751 C2755 1.393 . S
C2752 H2741 0.950 . S
C2752 C2750 1.391 . S
C2752 C2753 1.400 . S
C2753 C2747 1.491 . S
C2753 C2752 1.400 . S
C2753 C2754 1.398 . S
C2754 H2742 0.950 . S
C2754 C2753 1.398 . S
C2754 C2755 1.391 . S
C2755 H2743 0.950 . S
C2755 C2751 1.393 . S
C2755 C2754 1.391 . S
H2756 C2764 0.950 . S
H2757 C2769 0.950 . S
H2758 C2766 0.950 . S
H2759 C2768 0.950 . S
H2760 C2770 0.950 . S
H2761 C2772 0.950 . S
H2762 C2774 0.950 . S
H2763 C2775 0.950 . S
C2764 H2756 0.950 . S
C2764 C2765 1.386 . S
C2764 C2766 1.391 . S
C2765 C2764 1.386 . S
C2765 C2769 1.393 . S
C2766 H2758 0.950 . S
C2766 C2764 1.391 . S
C2766 C2767 1.400 . S
C2767 C2766 1.400 . S
C2767 C2768 1.398 . S
C2767 C2773 1.491 . S
C2768 H2759 0.950 . S
C2768 C2767 1.398 . S
C2768 C2769 1.391 . S
C2769 H2757 0.950 . S
C2769 C2765 1.393 . S
C2769 C2768 1.391 . S
C2770 H2760 0.950 . S
C2770 C2771 1.386 . S
C2770 C2772 1.391 . S
C2771 C2770 1.386 . S
C2771 C2775 1.393 . S
C2772 H2761 0.950 . S
C2772 C2770 1.391 . S
C2772 C2773 1.400 . S
C2773 C2767 1.491 . S
C2773 C2772 1.400 . S
C2773 C2774 1.398 . S
C2774 H2762 0.950 . S
C2774 C2773 1.398 . S
C2774 C2775 1.391 . S
C2775 H2763 0.950 . S
C2775 C2771 1.393 . S
C2775 C2774 1.391 . S
C871 C371 1.849 . S
C865 C7 1.862 . S
C891 C382 1.262 . S
C885 C19 1.354 . S
C905 C29 1.752 . S
C911 C406 1.705 . S
C931 C427 1.287 . S
C925 C41 1.386 . S
C945 C52 1.425 . S
C951 C434 1.377 . S
C965 C62 1.571 . S
C971 C364 1.527 1_556 S
C985 C73 1.241 . S
C991 C390 1.246 . S
C1011 C413 1.654 1_556 S
C1005 C82 1.569 . S
C1031 C445 1.653 . S
C1025 C5 1.600 . S
C1045 C16 1.324 . S
C1051 C466 1.485 . S
C1065 C30 1.719 . S
C1071 C490 1.508 . S
C1091 C508 1.304 . S
C1085 C40 1.392 . S
C1105 C49 1.206 . S
C1111 C537 1.321 . S
C1131 C558 1.353 . S
C1125 C63 1.504 . S
C1145 C74 1.282 . S
C1151 C574 1.241 . S
C1171 C595 1.444 . S
C1165 C85 1.579 . S
C1185 C8 1.612 . S
C1191 C516 1.473 . S
C1205 C51 1.529 . S
C1211 C550 1.514 . S
C1231 C581 1.748 . S
C1225 C60 1.554 . S
C1245 C71 1.146 . S
C1251 C602 1.411 . S
C1271 C529 1.874 . S
C1265 C84 1.910 . S
C1291 C474 1.387 . S
C1285 C27 1.289 . S
C1305 C38 1.344 . S
C1311 C497 1.303 . S
C1331 C453 1.555 . S
C1325 C18 1.558 . S
C1351 C621 1.866 . S
C1345 C95 1.864 . S
C1365 C107 1.340 . S
C1371 C637 1.235 . S
C1385 C117 1.759 . S
C1391 C655 1.712 . S
C1411 C676 1.228 . S
C1405 C129 1.380 . S
C1425 C140 1.418 . S
C1431 C684 1.351 . S
C1445 C150 1.576 . S
C1451 C613 1.537 . S
C1465 C161 1.232 . S
C1471 C644 1.228 . S
C1485 C170 1.572 . S
C1491 C663 1.617 . S
C1511 C539 1.675 . S
C1505 C93 1.582 . S
C1525 C104 1.324 . S
C1531 C697 1.486 . S
C1551 C571 1.622 . S
C1545 C118 1.716 . S
C1565 C128 1.382 . S
C1571 C726 1.181 . S
C1585 C137 1.204 . S
C1591 C448 1.318 . S
C1611 C742 1.332 . S
C1605 C151 1.496 . S
C1625 C162 1.252 . S
C1631 C487 1.144 . S
C1651 C770 1.503 . S
C1645 C173 1.566 . S
C1665 C96 1.612 . S
C1671 C718 1.505 . S
C1691 C749 1.550 . S
C1685 C139 1.553 . S
C1705 C148 1.559 . S
C1711 C495 1.670 . S
C1731 C763 1.328 . S
C1725 C159 1.134 . S
C1745 C172 1.910 . S
C1751 C455 1.908 . S
C1765 C115 1.269 . S
C1771 C705 1.373 . S
C1785 C126 1.344 . S
C1791 C579 1.343 . S
C1805 C106 1.577 . S
C1811 C532 1.560 . S
C1825 C183 1.864 . S
C1831 C658 1.868 . S
C1851 C679 1.271 . S
C1845 C195 1.351 . S
C1865 C205 1.743 . S
C1871 C623 1.702 . S
C1885 C217 1.379 . S
C1891 C634 1.224 . S
C1905 C228 1.415 . S
C1911 C642 1.344 . S
C1925 C238 1.553 . S
C1931 C665 1.522 . S
C1951 C686 1.248 . S
C1945 C249 1.208 . S
C1965 C258 1.549 . S
C1971 C616 1.641 . S
C1991 C781 1.682 . S
C1985 C181 1.575 . S
C2005 C192 1.326 . S
C2011 C560 1.496 . S
C2031 C802 1.614 . S
C2025 C206 1.711 . S
C2045 C216 1.379 . S
C2051 C592 1.281 . S
C2065 C225 1.196 . S
C2071 C826 1.310 . S
C2085 C239 1.497 . S
C2091 C469 1.333 . S
C2111 C847 1.186 . S
C2105 C250 1.241 . S
C2125 C261 1.573 . S
C2131 C511 1.466 . S
C2151 C600 1.496 . S
C2145 C184 1.618 . S
C2171 C476 1.552 . S
C2165 C227 1.541 . S
C2185 C236 1.545 . S
C2191 C854 1.743 . S
C2205 C247 1.145 . S
C2211 C518 1.422 . S
C2231 C833 1.891 . S
C2225 C260 1.913 . S
C2251 C553 1.392 . S
C2245 C203 1.317 . S
C2271 C810 1.366 . S
C2265 C214 1.325 . S
C2291 C789 1.545 . S
C2285 C194 1.552 . S
C2305 C271 1.868 . S
C2311 C403 1.837 . S
C2325 C283 1.331 . S
C2331 C424 1.218 . S
C2351 C369 1.722 . S
C2345 C293 1.759 . S
C2371 C385 1.287 . S
C2365 C305 1.384 . S
C2391 C392 1.371 . S
C2385 C316 1.420 . S
C2411 C411 1.523 1_556 S
C2405 C326 1.559 . S
C2431 C432 1.219 . S
C2425 C337 1.211 . S
C2445 C346 1.535 . S
C2451 C361 1.640 1_556 S
C2465 C269 1.605 . S
C2471 C823 1.653 . S
C2491 C739 1.492 . S
C2485 C280 1.344 . S
C2511 C844 1.614 . S
C2505 C294 1.710 . S
C2531 C768 1.202 . S
C2525 C304 1.388 . S
C2545 C313 1.223 . S
C2551 C784 1.320 . S
C2571 C700 1.364 . S
C2565 C327 1.508 . S
C2591 C805 1.243 . S
C2585 C338 1.282 . S
C2605 C349 1.564 . S
C2611 C728 1.499 . S
C2631 C760 1.518 . S
C2625 C272 1.607 . S
C2651 C707 1.528 . S
C2645 C315 1.522 . S
C2671 C812 1.747 . S
C2665 C324 1.540 . S
C2685 C335 1.201 . S
C2691 C721 1.374 . S
C2705 C348 1.912 . S
C2711 C791 1.902 . S
C2725 C291 1.311 . S
C2731 C747 1.418 . S
C2745 C302 1.342 . S
C2751 C852 1.329 . S
C2771 C831 1.555 . S
C2765 C282 1.560 . S
