# Generated by pormake.
# Topology ctn, (3,4)-cn, num edge types: 1
# Building blocks:
#     Node 0, Type 0, BuildingBlock: VETTIZ_charged_linker_0, # of connection points: 3
#     Node 1, Type 0, BuildingBlock: VETTIZ_charged_linker_0, # of connection points: 3
#     Node 2, Type 0, BuildingBlock: VETTIZ_charged_linker_0, # of connection points: 3
#     Node 3, Type 0, BuildingBlock: VETTIZ_charged_linker_0, # of connection points: 3
#     Node 4, Type 0, BuildingBlock: VETTIZ_charged_linker_0, # of connection points: 3
#     Node 5, Type 0, BuildingBlock: VETTIZ_charged_linker_0, # of connection points: 3
#     Node 6, Type 0, BuildingBlock: VETTIZ_charged_linker_0, # of connection points: 3
#     Node 7, Type 0, BuildingBlock: VETTIZ_charged_linker_0, # of connection points: 3
#     Node 8, Type 0, BuildingBlock: VETTIZ_charged_linker_0, # of connection points: 3
#     Node 9, Type 0, BuildingBlock: VETTIZ_charged_linker_0, # of connection points: 3
#     Node 10, Type 0, BuildingBlock: VETTIZ_charged_linker_0, # of connection points: 3
#     Node 11, Type 0, BuildingBlock: VETTIZ_charged_linker_0, # of connection points: 3
#     Node 12, Type 0, BuildingBlock: VETTIZ_charged_linker_0, # of connection points: 3
#     Node 13, Type 0, BuildingBlock: VETTIZ_charged_linker_0, # of connection points: 3
#     Node 14, Type 0, BuildingBlock: VETTIZ_charged_linker_0, # of connection points: 3
#     Node 15, Type 0, BuildingBlock: VETTIZ_charged_linker_0, # of connection points: 3
#     Node 16, Type 1, BuildingBlock: AZAVOO_clean_sbu_0, # of connection points: 4
#     Node 17, Type 1, BuildingBlock: AZAVOO_clean_sbu_0, # of connection points: 4
#     Node 18, Type 1, BuildingBlock: AZAVOO_clean_sbu_0, # of connection points: 4
#     Node 19, Type 1, BuildingBlock: AZAVOO_clean_sbu_0, # of connection points: 4
#     Node 20, Type 1, BuildingBlock: AZAVOO_clean_sbu_0, # of connection points: 4
#     Node 21, Type 1, BuildingBlock: AZAVOO_clean_sbu_0, # of connection points: 4
#     Node 22, Type 1, BuildingBlock: AZAVOO_clean_sbu_0, # of connection points: 4
#     Node 23, Type 1, BuildingBlock: AZAVOO_clean_sbu_0, # of connection points: 4
#     Node 24, Type 1, BuildingBlock: AZAVOO_clean_sbu_0, # of connection points: 4
#     Node 25, Type 1, BuildingBlock: AZAVOO_clean_sbu_0, # of connection points: 4
#     Node 26, Type 1, BuildingBlock: AZAVOO_clean_sbu_0, # of connection points: 4
#     Node 27, Type 1, BuildingBlock: AZAVOO_clean_sbu_0, # of connection points: 4
#     Edge 28, Type (0, 1), BuildingBlock: ZUJKAS_clean_linker_0, # of connection points: 2
#     Edge 29, Type (0, 1), BuildingBlock: ZUJKAS_clean_linker_0, # of connection points: 2
#     Edge 30, Type (0, 1), BuildingBlock: ZUJKAS_clean_linker_0, # of connection points: 2
#     Edge 31, Type (0, 1), BuildingBlock: ZUJKAS_clean_linker_0, # of connection points: 2
#     Edge 32, Type (0, 1), BuildingBlock: ZUJKAS_clean_linker_0, # of connection points: 2
#     Edge 33, Type (0, 1), BuildingBlock: ZUJKAS_clean_linker_0, # of connection points: 2
#     Edge 34, Type (0, 1), BuildingBlock: ZUJKAS_clean_linker_0, # of connection points: 2
#     Edge 35, Type (0, 1), BuildingBlock: ZUJKAS_clean_linker_0, # of connection points: 2
#     Edge 36, Type (0, 1), BuildingBlock: ZUJKAS_clean_linker_0, # of connection points: 2
#     Edge 37, Type (0, 1), BuildingBlock: ZUJKAS_clean_linker_0, # of connection points: 2
#     Edge 38, Type (0, 1), BuildingBlock: ZUJKAS_clean_linker_0, # of connection points: 2
#     Edge 39, Type (0, 1), BuildingBlock: ZUJKAS_clean_linker_0, # of connection points: 2
#     Edge 40, Type (0, 1), BuildingBlock: ZUJKAS_clean_linker_0, # of connection points: 2
#     Edge 41, Type (0, 1), BuildingBlock: ZUJKAS_clean_linker_0, # of connection points: 2
#     Edge 42, Type (0, 1), BuildingBlock: ZUJKAS_clean_linker_0, # of connection points: 2
#     Edge 43, Type (0, 1), BuildingBlock: ZUJKAS_clean_linker_0, # of connection points: 2
#     Edge 44, Type (0, 1), BuildingBlock: ZUJKAS_clean_linker_0, # of connection points: 2
#     Edge 45, Type (0, 1), BuildingBlock: ZUJKAS_clean_linker_0, # of connection points: 2
#     Edge 46, Type (0, 1), BuildingBlock: ZUJKAS_clean_linker_0, # of connection points: 2
#     Edge 47, Type (0, 1), BuildingBlock: ZUJKAS_clean_linker_0, # of connection points: 2
#     Edge 48, Type (0, 1), BuildingBlock: ZUJKAS_clean_linker_0, # of connection points: 2
#     Edge 49, Type (0, 1), BuildingBlock: ZUJKAS_clean_linker_0, # of connection points: 2
#     Edge 50, Type (0, 1), BuildingBlock: ZUJKAS_clean_linker_0, # of connection points: 2
#     Edge 51, Type (0, 1), BuildingBlock: ZUJKAS_clean_linker_0, # of connection points: 2
#     Edge 52, Type (0, 1), BuildingBlock: ZUJKAS_clean_linker_0, # of connection points: 2
#     Edge 53, Type (0, 1), BuildingBlock: ZUJKAS_clean_linker_0, # of connection points: 2
#     Edge 54, Type (0, 1), BuildingBlock: ZUJKAS_clean_linker_0, # of connection points: 2
#     Edge 55, Type (0, 1), BuildingBlock: ZUJKAS_clean_linker_0, # of connection points: 2
#     Edge 56, Type (0, 1), BuildingBlock: ZUJKAS_clean_linker_0, # of connection points: 2
#     Edge 57, Type (0, 1), BuildingBlock: ZUJKAS_clean_linker_0, # of connection points: 2
#     Edge 58, Type (0, 1), BuildingBlock: ZUJKAS_clean_linker_0, # of connection points: 2
#     Edge 59, Type (0, 1), BuildingBlock: ZUJKAS_clean_linker_0, # of connection points: 2
#     Edge 60, Type (0, 1), BuildingBlock: ZUJKAS_clean_linker_0, # of connection points: 2
#     Edge 61, Type (0, 1), BuildingBlock: ZUJKAS_clean_linker_0, # of connection points: 2
#     Edge 62, Type (0, 1), BuildingBlock: ZUJKAS_clean_linker_0, # of connection points: 2
#     Edge 63, Type (0, 1), BuildingBlock: ZUJKAS_clean_linker_0, # of connection points: 2
#     Edge 64, Type (0, 1), BuildingBlock: ZUJKAS_clean_linker_0, # of connection points: 2
#     Edge 65, Type (0, 1), BuildingBlock: ZUJKAS_clean_linker_0, # of connection points: 2
#     Edge 66, Type (0, 1), BuildingBlock: ZUJKAS_clean_linker_0, # of connection points: 2
#     Edge 67, Type (0, 1), BuildingBlock: ZUJKAS_clean_linker_0, # of connection points: 2
#     Edge 68, Type (0, 1), BuildingBlock: ZUJKAS_clean_linker_0, # of connection points: 2
#     Edge 69, Type (0, 1), BuildingBlock: ZUJKAS_clean_linker_0, # of connection points: 2
#     Edge 70, Type (0, 1), BuildingBlock: ZUJKAS_clean_linker_0, # of connection points: 2
#     Edge 71, Type (0, 1), BuildingBlock: ZUJKAS_clean_linker_0, # of connection points: 2
#     Edge 72, Type (0, 1), BuildingBlock: ZUJKAS_clean_linker_0, # of connection points: 2
#     Edge 73, Type (0, 1), BuildingBlock: ZUJKAS_clean_linker_0, # of connection points: 2
#     Edge 74, Type (0, 1), BuildingBlock: ZUJKAS_clean_linker_0, # of connection points: 2
#     Edge 75, Type (0, 1), BuildingBlock: ZUJKAS_clean_linker_0, # of connection points: 2
# Relax obj value: 0.002
# Max RMSD: 0.045
# Mean RMSD: 0.024
data_MOF--net-ctn--node1-AZAVOO_clean_sbu_0--node2-VETTIZ_charged_linker_0--edge1-ZUJKAS_clean_linker_0
_symmetry_space_group_name_H-M    P1
_symmetry_Int_Tables_number       1
_symmetry_cell_setting            triclinic
loop_
_symmetry_equiv_pos_as_xyz
'x, y, z'
_cell_length_a     82.787705
_cell_length_b     83.921583
_cell_length_c     83.913779
_cell_angle_alpha  90.098478
_cell_angle_beta   92.440962
_cell_angle_gamma 92.698302
loop_
_atom_site_label
_atom_site_type_symbol
_atom_site_fract_x
_atom_site_fract_y
_atom_site_fract_z
_atom_type_partial_charge
C0 C 0.03316 0.06738 0.98059 0.0
C1 C 0.02146 0.07877 0.98259 0.0
C2 C 0.01038 0.07651 0.99479 0.0
C3 C 0.0233 0.05243 0.00322 0.0
C4 C 0.03389 0.05441 0.99102 0.0
C5 C 0.04605 0.04166 0.99098 0.0
H6 H 0.07795 0.97688 0.02571 0.0
C7 C 0.02786 0.03821 0.01244 0.0
C8 C 0.04115 0.03183 0.00531 0.0
H9 H 0.09292 0.00154 0.98319 0.0
H10 H 0.07159 0.01982 0.98562 0.0
H11 H 0.07181 0.00822 0.04585 0.0
H12 H 0.03917 0.97741 0.01709 0.0
H13 H 0.02949 0.98199 0.03467 0.0
H14 H 0.04789 0.9713 0.03593 0.0
H15 H 0.06555 0.98854 0.05216 0.0
H16 H 0.05378 0.00557 0.05601 0.0
C17 C 0.06317 0.04981 0.99355 0.0
C18 C 0.04342 0.03209 0.97519 0.0
C19 C 0.9979 0.02325 0.06216 0.0
C20 C 0.99996 0.01147 0.07388 0.0
C21 C 0.01196 0.0003 0.07199 0.0
C22 C 0.02193 0.00107 0.05886 0.0
C23 C 0.01995 0.01319 0.04749 0.0
C24 C 0.008 0.02394 0.04921 0.0
C25 C 0.00782 0.03624 0.03623 0.0
C26 C 0.02166 0.03114 0.0264 0.0
C27 C 0.02874 0.01764 0.03303 0.0
C28 C 0.01143 0.05287 0.04403 0.0
C29 C 0.99134 0.0344 0.02679 0.0
C30 C 0.07653 0.98614 0.01685 0.0
C31 C 0.0872 0.9878 0.00427 0.0
C32 C 0.08504 0.00014 0.99312 0.0
C33 C 0.07257 0.0107 0.9945 0.0
C34 C 0.06212 0.009 0.00721 0.0
C35 C 0.06414 0.99684 0.01809 0.0
C36 C 0.0519 0.99694 0.03086 0.0
C37 C 0.04217 0.01111 0.02578 0.0
C38 C 0.04828 0.01815 0.01196 0.0
C39 C 0.06112 -0.00015 0.04714 0.0
C40 C 0.04157 0.98108 0.02976 0.0
H41 H 0.00257 0.06251 0.01423 0.0
H42 H 0.04172 0.06861 0.97121 0.0
H43 H 0.03039 0.03125 0.97129 0.0
H44 H 0.04689 0.01958 0.97635 0.0
H45 H 0.05018 0.03789 0.96544 0.0
H46 H 0.06294 0.06008 0.00193 0.0
H47 H 0.06782 0.05442 0.98214 0.0
H48 H 0.07206 0.04189 0.99909 0.0
H49 H 0.98866 0.03189 0.06307 0.0
H50 H 0.01396 0.99119 0.08089 0.0
H51 H 0.03095 0.99235 0.05821 0.0
H52 H 0.01992 0.05207 0.05462 0.0
H53 H 1.00018 0.058 0.0481 0.0
H54 H 0.01754 0.06147 0.03608 0.0
H55 H 0.98716 0.02162 0.02579 0.0
H56 H 0.99194 0.03858 0.01435 0.0
H57 H 0.98186 0.04082 0.03281 0.0
H58 H 0.00136 0.08516 0.99675 0.0
C59 C 0.0112 0.0634 0.00506 0.0
C60 C 0.27263 0.67548 0.23815 0.0
C61 C 0.2581 0.67278 0.22901 0.0
C62 C 0.25432 0.68338 0.21653 0.0
C63 C 0.27941 0.6988 0.22225 0.0
C64 C 0.28303 0.68852 0.2346 0.0
C65 C 0.29886 0.69318 0.24324 0.0
H66 H 0.36572 0.74282 0.25002 0.0
C67 C 0.29283 0.711 0.22158 0.0
C68 C 0.30426 0.70781 0.23387 0.0
H69 H 0.3523 0.70316 0.28041 0.0
H70 H 0.32799 0.69781 0.26414 0.0
H71 H 0.33064 0.75687 0.24787 0.0
H72 H 0.35467 0.72583 0.21661 0.0
H73 H 0.34429 0.73943 0.20456 0.0
H74 H 0.36012 0.74672 0.2185 0.0
H75 H 0.34667 0.76396 0.23559 0.0
H76 H 0.32584 0.76281 0.22826 0.0
C77 C 0.29537 0.69737 0.26072 0.0
C78 C 0.31041 0.67935 0.24146 0.0
C79 C 0.29134 0.75359 0.1787 0.0
C80 C 0.30216 0.76626 0.17474 0.0
C81 C 0.3167 0.76876 0.18396 0.0
C82 C 0.3204 0.75881 0.19689 0.0
C83 C 0.30947 0.74619 0.20066 0.0
C84 C 0.29523 0.74376 0.19161 0.0
C85 C 0.28514 0.72967 0.19721 0.0
C86 C 0.29563 0.72406 0.21117 0.0
C87 C 0.30985 0.73378 0.21314 0.0
C88 C 0.26884 0.73574 0.20264 0.0
C89 C 0.28349 0.71718 0.18353 0.0
C90 C 0.35752 0.73304 0.25327 0.0
C91 C 0.36107 0.72339 0.26655 0.0
C92 C 0.35009 0.71064 0.27012 0.0
C93 C 0.33586 0.70763 0.26073 0.0
C94 C 0.33245 0.71748 0.24761 0.0
C95 C 0.3432 0.72994 0.24409 0.0
C96 C 0.33742 0.7394 0.22992 0.0
C97 C 0.3214 0.7306 0.22558 0.0
C98 C 0.31859 0.71772 0.23592 0.0
C99 C 0.33509 0.75672 0.23554 0.0
C100 C 0.34974 0.73794 0.21667 0.0
H101 H 0.26136 0.70388 0.20338 0.0
H102 H 0.27577 0.6677 0.24798 0.0
H103 H 0.30915 0.6742 0.22921 0.0
H104 H 0.32331 0.6832 0.24309 0.0
H105 H 0.30765 0.66961 0.25001 0.0
H106 H 0.28331 0.70258 0.26149 0.0
H107 H 0.29542 0.68659 0.26839 0.0
H108 H 0.304 0.70658 0.26595 0.0
H109 H 0.28019 0.75117 0.17171 0.0
H110 H 0.32517 0.77851 0.18125 0.0
H111 H 0.33164 0.76135 0.20343 0.0
H112 H 0.27058 0.74778 0.2082 0.0
H113 H 0.26001 0.73665 0.19238 0.0
H114 H 0.26336 0.72819 0.21193 0.0
H115 H 0.29482 0.71704 0.17686 0.0
H116 H 0.28157 0.70484 0.18782 0.0
H117 H 0.27349 0.71992 0.17487 0.0
H118 H 0.24329 0.68148 0.20923 0.0
C119 C 0.26489 0.69633 0.21309 0.0
C120 C 0.99732 0.43212 0.01123 0.0
C121 C 0.9881 0.42912 0.99697 0.0
C122 C 0.97464 0.43839 0.99345 0.0
C123 C 0.97965 0.4531 0.0182 0.0
C124 C 0.99289 0.44409 0.02161 0.0
C125 C 0.00133 0.44872 0.03729 0.0
H126 H 0.00607 0.49561 0.10328 0.0
C127 C 0.97825 0.46444 0.03151 0.0
C128 C 0.99092 0.46194 0.04275 0.0
H129 H 0.03784 0.4586 0.09056 0.0
H130 H 0.02181 0.45331 0.06632 0.0
H131 H 0.97227 0.47597 0.0921 0.0
H132 H 0.00306 0.51081 0.06899 0.0
H133 H 0.983 0.51513 0.06373 0.0
H134 H 0.98994 0.51617 0.0844 0.0
H135 H 0.97393 0.49657 0.09799 0.0
H136 H 0.95979 0.48959 0.0823 0.0
C137 C 0.00041 0.43407 0.04849 0.0
C138 C 0.01877 0.455 0.03394 0.0
C139 C 0.93286 0.5032 0.02974 0.0
C140 C 0.92868 0.51542 0.04005 0.0
C141 C 0.93798 0.51816 0.05436 0.0
C142 C 0.95126 0.50893 0.05829 0.0
C143 C 0.95538 0.49686 0.04778 0.0
C144 C 0.94622 0.49416 0.0338 0.0
C145 C 0.95255 0.48104 0.02393 0.0
C146 C 0.967 0.4763 0.03429 0.0
C147 C 0.96859 0.48557 0.04827 0.0
C148 C 0.93928 0.4674 0.02241 0.0
C149 C 0.9577 0.48824 0.00781 0.0
C150 C 0.00945 0.48624 0.09535 0.0
C151 C 0.02327 0.47753 0.09884 0.0
C152 C 0.02738 0.46561 0.08807 0.0
C153 C 0.01801 0.46251 0.07401 0.0
C154 C 0.00435 0.47144 0.07059 0.0
C155 C 1.00025 0.48304 0.0812 0.0
C156 C 0.98549 0.49152 0.07543 0.0
C157 C 0.98141 0.48306 0.05966 0.0
C158 C 0.99249 0.4713 0.0569 0.0
C159 C 0.97212 0.48842 0.08757 0.0
C160 C 0.99047 0.50938 0.07308 0.0
H161 H 0.95995 0.45688 0.00061 0.0
H162 H 0.00785 0.42535 0.01424 0.0
H163 H 0.01904 0.46152 0.02242 0.0
H164 H 0.02375 0.46374 0.04292 0.0
H165 H 0.02708 0.44504 0.03323 0.0
H166 H 0.98863 0.42723 0.04663 0.0
H167 H 0.01018 0.42583 0.0462 0.0
H168 H 0.00101 0.43736 0.06125 0.0
H169 H 0.92611 0.50093 0.01857 0.0
H170 H 0.93491 0.5274 0.06257 0.0
H171 H 0.95783 0.51161 0.06933 0.0
H172 H 0.93263 0.46613 0.03363 0.0
H173 H 0.93028 0.46978 0.01261 0.0
H174 H 0.94422 0.45559 0.02049 0.0
H175 H 0.96268 0.50071 0.00942 0.0
H176 H 0.96752 0.48186 0.00248 0.0
H177 H 0.94724 0.48848 0.99908 0.0
H178 H 0.96717 0.4362 0.98268 0.0
C179 C 0.97037 0.45033 0.00396 0.0
C180 C 0.67786 0.81035 0.24963 0.0
C181 C 0.66667 0.7972 0.24883 0.0
C182 C 0.66834 0.78532 0.23719 0.0
C183 C 0.69219 0.79956 0.22769 0.0
C184 C 0.69048 0.81126 0.23902 0.0
C185 C 0.70361 0.82424 0.23853 0.0
H186 H 0.77075 0.85548 0.20461 0.0
C187 C 0.70672 0.80397 0.21872 0.0
C188 C 0.71346 0.81843 0.22501 0.0
H189 H 0.74604 0.87404 0.24449 0.0
H190 H 0.72655 0.8517 0.24281 0.0
H191 H 0.73841 0.84416 0.1832 0.0
H192 H 0.76958 0.81987 0.21648 0.0
H193 H 0.76402 0.80623 0.20113 0.0
H194 H 0.77538 0.82443 0.19658 0.0
H195 H 0.75874 0.83951 0.179 0.0
H196 H 0.74195 0.82542 0.17498 0.0
C197 C 0.69558 0.84009 0.23436 0.0
C198 C 0.71336 0.82442 0.25473 0.0
C199 C 0.72361 0.76781 0.1743 0.0
C200 C 0.73659 0.76868 0.16399 0.0
C201 C 0.74776 0.78189 0.16517 0.0
C202 C 0.74606 0.794 0.1764 0.0
C203 C 0.73306 0.79295 0.18664 0.0
C204 C 0.72212 0.78 0.18549 0.0
C205 C 0.70914 0.78083 0.19744 0.0
C206 C 0.71412 0.79639 0.20595 0.0
C207 C 0.72812 0.80345 0.19954 0.0
C208 C 0.69261 0.78174 0.18817 0.0
C209 C 0.71043 0.76628 0.2087 0.0
C210 C 0.76102 0.85479 0.21285 0.0
C211 C 0.75983 0.86656 0.22463 0.0
C212 C 0.74722 0.86507 0.23537 0.0
C213 C 0.7359 0.85212 0.23433 0.0
C214 C 0.73724 0.84043 0.2225 0.0
C215 C 0.74971 0.84183 0.21208 0.0
C216 C 0.74959 0.82798 0.20066 0.0
C217 C 0.73487 0.81814 0.20581 0.0
C218 C 0.72763 0.82554 0.21853 0.0
C219 C 0.74716 0.83449 0.18351 0.0
C220 C 0.76547 0.81915 0.20369 0.0
H221 H 0.68162 0.77699 0.21807 0.0
H222 H 0.67707 0.81956 0.25858 0.0
H223 H 0.71377 0.81222 0.25986 0.0
H224 H 0.7262 0.82834 0.25365 0.0
H225 H 0.70783 0.83213 0.26357 0.0
H226 H 0.68553 0.83807 0.22524 0.0
H227 H 0.69044 0.84539 0.24506 0.0
H228 H 0.70393 0.84902 0.22904 0.0
H229 H 0.71491 0.75775 0.17382 0.0
H230 H 0.75772 0.78298 0.15723 0.0
H231 H 0.75493 0.80374 0.17664 0.0
H232 H 0.69388 0.78883 0.17706 0.0
H233 H 0.68761 0.76966 0.18469 0.0
H234 H 0.68356 0.78788 0.19491 0.0
H235 H 0.72329 0.76337 0.21101 0.0
H236 H 0.70582 0.76847 0.22062 0.0
H237 H 0.70393 0.75553 0.20339 0.0
H238 H 0.65979 0.77516 0.2362 0.0
C239 C 0.68101 0.78644 0.22662 0.0
C240 C 0.04308 0.93678 0.51141 0.0
C241 C 0.0292 0.92647 0.50969 0.0
C242 C 0.01749 0.92949 0.4975 0.0
C243 C 0.0336 0.95249 0.48889 0.0
C244 C 0.04502 0.94964 0.50092 0.0
C245 C 0.05913 0.96161 0.50096 0.0
H246 H 0.09654 0.02616 0.4678 0.0
C247 C 0.03936 0.96666 0.47994 0.0
C248 C 0.05431 0.97208 0.48697 0.0
H249 H 0.11257 0.99932 0.50897 0.0
H250 H 0.08858 0.9819 0.50628 0.0
H251 H 0.06033 0.0275 0.47733 0.0
H252 H 0.08291 0.99515 0.44622 0.0
H253 H 0.0647 0.00079 0.43675 0.0
H254 H 0.08046 0.01578 0.44152 0.0
H255 H 0.06585 0.03316 0.45761 0.0
H256 H 0.04652 0.02328 0.46126 0.0
C257 C 0.05973 0.97086 0.517 0.0
C258 C 0.07458 0.95256 0.49783 0.0
C259 C 0.00581 0.98592 0.43228 0.0
C260 C 0.00789 0.99872 0.42165 0.0
C261 C 0.02169 0.00915 0.42372 0.0
C262 C 0.03332 0.00674 0.43603 0.0
C263 C 0.03113 0.99379 0.44646 0.0
C264 C 0.01748 0.98373 0.44455 0.0
C265 C 0.017 0.97078 0.45691 0.0
C266 C 0.03266 0.97466 0.46649 0.0
C267 C 0.04095 0.98808 0.46026 0.0
C268 C 0.00193 0.97285 0.46694 0.0
C269 C 0.01727 0.9545 0.44819 0.0
C270 C 0.09495 0.0164 0.4761 0.0
C271 C 0.10649 0.01406 0.48858 0.0
C272 C 0.10381 0.00143 0.49934 0.0
C273 C 0.08989 0.99129 0.49772 0.0
C274 C 0.07842 0.99383 0.48525 0.0
C275 C 0.08103 0.00624 0.47472 0.0
C276 C 0.06732 0.00739 0.46247 0.0
C277 C 0.05612 0.99354 0.46731 0.0
C278 C 0.06273 0.98561 0.48061 0.0
C279 C 0.05959 0.02369 0.4646 0.0
C280 C 0.07409 0.00476 0.4458 0.0
H281 H 0.01025 0.94401 0.47812 0.0
H282 H 0.0524 0.93473 0.52052 0.0
H283 H 0.0719 0.94279 0.48899 0.0
H284 H 0.0842 0.96016 0.49259 0.0
H285 H 0.0795 0.94712 0.50896 0.0
H286 H 0.04733 0.97232 0.52125 0.0
H287 H 0.06663 0.96446 0.52643 0.0
H288 H 0.06496 0.98316 0.51603 0.0
H289 H 0.99524 0.97782 0.43115 0.0
H290 H 0.02364 0.01901 0.41561 0.0
H291 H 0.0436 0.01501 0.43688 0.0
H292 H 0.99936 0.98567 0.46821 0.0
H293 H 0.991 0.96667 0.46125 0.0
H294 H 0.0036 0.96855 0.47931 0.0
H295 H 0.02524 0.95536 0.43784 0.0
H296 H 0.02229 0.94503 0.45575 0.0
H297 H 0.00496 0.95051 0.44359 0.0
H298 H 0.00658 0.92188 0.49605 0.0
C299 C 0.0196 0.94241 0.48713 0.0
C300 C 0.24992 0.6693 0.77869 0.0
C301 C 0.24806 0.6576 0.76664 0.0
C302 C 0.23493 0.65833 0.75541 0.0
C303 C 0.22614 0.68225 0.76811 0.0
C304 C 0.23891 0.68143 0.77919 0.0
C305 C 0.23939 0.69485 0.79111 0.0
H306 H 0.20708 0.76166 0.81855 0.0
C307 C 0.21718 0.69657 0.77179 0.0
C308 C 0.22492 0.70399 0.78525 0.0
H309 H 0.2483 0.73739 0.83819 0.0
H310 H 0.24527 0.71785 0.81707 0.0
H311 H 0.18494 0.73016 0.81082 0.0
H312 H 0.21647 0.75909 0.78205 0.0
H313 H 0.19973 0.75302 0.76962 0.0
H314 H 0.1968 0.76518 0.78694 0.0
H315 H 0.18022 0.7498 0.8042 0.0
H316 H 0.17496 0.7324 0.79212 0.0
C317 C 0.23696 0.68756 0.80786 0.0
C318 C 0.25551 0.70476 0.78955 0.0
C319 C 0.16799 0.71085 0.73715 0.0
C320 C 0.15785 0.72383 0.73727 0.0
C321 C 0.16066 0.73575 0.74904 0.0
C322 C 0.17333 0.73476 0.76054 0.0
C323 C 0.1834 0.72174 0.76027 0.0
C324 C 0.18072 0.71011 0.74866 0.0
C325 C 0.19303 0.69747 0.74992 0.0
C326 C 0.2034 0.70335 0.76431 0.0
C327 C 0.19762 0.71753 0.77035 0.0
C328 C 0.18402 0.68129 0.75318 0.0
C329 C 0.20263 0.69783 0.73446 0.0
C330 C 0.21556 0.75224 0.81819 0.0
C331 C 0.22791 0.75104 0.83009 0.0
C332 C 0.23856 0.73846 0.82928 0.0
C333 C 0.2368 0.72714 0.81697 0.0
C334 C 0.22423 0.72833 0.80531 0.0
C335 C 0.21391 0.74077 0.806 0.0
C336 C 0.20113 0.74001 0.7927 0.0
C337 C 0.2054 0.72499 0.78401 0.0
C338 C 0.21895 0.71824 0.79142 0.0
C339 C 0.18437 0.7381 0.80022 0.0
C340 C 0.20347 0.75511 0.78227 0.0
H341 H 0.21426 0.67044 0.74721 0.0
H342 H 0.25997 0.66925 0.78739 0.0
H343 H 0.25882 0.7056 0.77685 0.0
H344 H 0.25485 0.71725 0.79353 0.0
H345 H 0.2656 0.6992 0.79631 0.0
H346 H 0.22884 0.67661 0.80709 0.0
H347 H 0.24867 0.6842 0.81355 0.0
H348 H 0.23095 0.69559 0.81594 0.0
H349 H 0.16626 0.70163 0.7281 0.0
H350 H 0.15294 0.7458 0.74944 0.0
H351 H 0.17479 0.74419 0.7692 0.0
H352 H 0.17412 0.68287 0.76153 0.0
H353 H 0.1785 0.67598 0.74198 0.0
H354 H 0.19187 0.67257 0.75903 0.0
H355 H 0.20423 0.71022 0.7299 0.0
H356 H 0.21505 0.69375 0.7363 0.0
H357 H 0.19621 0.69052 0.72489 0.0
H358 H 0.23307 0.64938 0.74612 0.0
C359 C 0.22397 0.67055 0.7561 0.0
C360 C 0.91556 0.49302 0.47577 0.0
C361 C 0.91059 0.48017 0.46565 0.0
C362 C 0.91987 0.47692 0.45241 0.0
C363 C 0.93884 0.49889 0.45973 0.0
C364 C 0.9296 0.50219 0.47257 0.0
C365 C 0.9364 0.51635 0.48205 0.0
H366 H 0.99279 0.57691 0.49172 0.0
C367 C 0.95277 0.51061 0.4599 0.0
C368 C 0.95135 0.5209 0.47292 0.0
H369 H 0.95163 0.56564 0.52046 0.0
H370 H 0.94447 0.54262 0.50409 0.0
H371 H 0.97509 0.56916 0.45767 0.0
H372 H 0.00379 0.5408 0.48965 0.0
H373 H 0.00868 0.53561 0.47024 0.0
H374 H 0.01279 0.55583 0.47721 0.0
H375 H 0.99648 0.57282 0.46126 0.0
H376 H 0.98858 0.55885 0.44623 0.0
C377 C 0.92381 0.52946 0.4811 0.0
C378 C 0.94081 0.51068 0.4992 0.0
C379 C 0.99537 0.50728 0.41822 0.0
C380 C 0.00986 0.51619 0.4157 0.0
C381 C 0.0143 0.52921 0.42588 0.0
C382 C 0.00455 0.53323 0.43839 0.0
C383 C 0.99019 0.52415 0.44084 0.0
C384 C 0.98581 0.51141 0.43085 0.0
C385 C 0.97026 0.50297 0.43543 0.0
C386 C 0.96611 0.51267 0.44987 0.0
C387 C 0.9778 0.5251 0.45293 0.0
C388 C 0.95761 0.50449 0.42143 0.0
C389 C 0.97393 0.48557 0.43993 0.0
C390 C 0.98234 0.56939 0.49461 0.0
C391 C 0.97267 0.57327 0.50734 0.0
C392 C 0.9591 0.56317 0.51055 0.0
C393 C 0.95499 0.54973 0.50106 0.0
C394 C 0.96454 0.54624 0.48817 0.0
C395 C 0.97807 0.55587 0.48525 0.0
C396 C 0.98692 0.55012 0.47118 0.0
C397 C 0.97624 0.53567 0.46596 0.0
C398 C 0.96314 0.5335 0.47594 0.0
C399 C 0.98693 0.56339 0.45837 0.0
C400 C 0.00399 0.54542 0.47723 0.0
H401 H 0.94054 0.48302 0.43923 0.0
H402 H 0.90858 0.49597 0.4859 0.0
H403 H 0.94527 0.49838 0.49907 0.0
H404 H 0.95079 0.518 0.50509 0.0
H405 H 0.93013 0.51055 0.50678 0.0
H406 H 0.91729 0.52936 0.46922 0.0
H407 H 0.91461 0.52759 0.49026 0.0
H408 H 0.92933 0.54165 0.48235 0.0
H409 H 0.9917 0.49712 0.41073 0.0
H410 H 0.02528 0.53639 0.42407 0.0
H411 H 0.0086 0.54328 0.44567 0.0
H412 H 0.9593 0.51617 0.41531 0.0
H413 H 0.95872 0.49496 0.4124 0.0
H414 H 0.94504 0.50425 0.42537 0.0
H415 H 0.98586 0.48512 0.44651 0.0
H416 H 0.96514 0.48006 0.44803 0.0
H417 H 0.97435 0.47798 0.42911 0.0
H418 H 0.91638 0.46701 0.44452 0.0
C419 C 0.93396 0.48618 0.44942 0.0
C420 C 0.79799 0.74173 0.82345 0.0
C421 C 0.7856 0.74152 0.83441 0.0
C422 C 0.7733 0.75252 0.83257 0.0
C423 C 0.78607 0.76396 0.80952 0.0
C424 C 0.79802 0.75305 0.81118 0.0
C425 C 0.8106 0.75531 0.79885 0.0
H426 H 0.8393 0.79694 0.73614 0.0
C427 C 0.78987 0.77439 0.79588 0.0
C428 C 0.80425 0.76941 0.78958 0.0
H429 H 0.85952 0.75595 0.75937 0.0
H430 H 0.83775 0.7548 0.77757 0.0
H431 H 0.82991 0.81463 0.76797 0.0
H432 H 0.80247 0.78306 0.73541 0.0
H433 H 0.78969 0.79817 0.74065 0.0
H434 H 0.80794 0.80334 0.73043 0.0
H435 H 0.82318 0.82076 0.74841 0.0
H436 H 0.81056 0.82218 0.76531 0.0
C437 C 0.82711 0.75952 0.80762 0.0
C438 C 0.81027 0.74 0.78848 0.0
C439 C 0.75319 0.81948 0.78101 0.0
C440 C 0.75382 0.8314 0.76925 0.0
C441 C 0.7666 0.8317 0.75863 0.0
C442 C 0.77855 0.82042 0.75974 0.0
C443 C 0.77782 0.80868 0.77163 0.0
C444 C 0.76526 0.80831 0.78198 0.0
C445 C 0.76656 0.79508 0.79396 0.0
C446 C 0.78196 0.78758 0.78909 0.0
C447 C 0.7885 0.79561 0.77602 0.0
C448 C 0.76848 0.80269 0.81083 0.0
C449 C 0.75152 0.7835 0.79141 0.0
C450 C 0.83899 0.78764 0.74507 0.0
C451 C 0.85123 0.77656 0.74631 0.0
C452 C 0.85042 0.76479 0.75827 0.0
C453 C 0.83768 0.76406 0.76878 0.0
C454 C 0.82556 0.77521 0.76737 0.0
C455 C 0.82634 0.78672 0.75564 0.0
C456 C 0.81237 0.79754 0.75586 0.0
C457 C 0.80307 0.79061 0.76964 0.0
C458 C 0.81087 0.77756 0.77636 0.0
C459 C 0.81923 0.81473 0.75946 0.0
C460 C 0.80258 0.79561 0.73975 0.0
H461 H 0.76376 0.77174 0.8195 0.0
H462 H 0.8077 0.73353 0.82463 0.0
H463 H 0.7977 0.73482 0.78669 0.0
H464 H 0.81442 0.74224 0.77632 0.0
H465 H 0.81769 0.73075 0.79423 0.0
H466 H 0.82552 0.76713 0.81826 0.0
H467 H 0.83304 0.74858 0.81179 0.0
H468 H 0.83554 0.76657 0.80026 0.0
H469 H 0.74349 0.8188 0.78928 0.0
H470 H 0.76758 0.84088 0.74963 0.0
H471 H 0.78798 0.82139 0.75137 0.0
H472 H 0.77551 0.81431 0.81054 0.0
H473 H 0.75651 0.80494 0.81567 0.0
H474 H 0.77537 0.7954 0.81943 0.0
H475 H 0.74796 0.78233 0.77851 0.0
H476 H 0.75374 0.77122 0.79536 0.0
H477 H 0.74099 0.78786 0.79762 0.0
H478 H 0.7635 0.75246 0.84073 0.0
C479 C 0.77344 0.76368 0.82019 0.0
C480 C 0.29478 0.24001 0.32157 0.0
C481 C 0.28247 0.23997 0.33266 0.0
C482 C 0.2711 0.25199 0.33162 0.0
C483 C 0.28454 0.26386 0.30915 0.0
C484 C 0.29564 0.25208 0.31006 0.0
C485 C 0.30839 0.25431 0.29788 0.0
H486 H 0.34053 0.29817 0.23829 0.0
C487 C 0.28915 0.27493 0.29627 0.0
C488 C 0.30317 0.26947 0.28967 0.0
H489 H 0.35728 0.25425 0.25855 0.0
H490 H 0.33529 0.2533 0.2765 0.0
H491 H 0.33222 0.31446 0.27162 0.0
H492 H 0.30273 0.28713 0.2369 0.0
H493 H 0.29151 0.30316 0.24296 0.0
H494 H 0.31025 0.30713 0.2332 0.0
H495 H 0.32618 0.32247 0.25258 0.0
H496 H 0.31353 0.32348 0.26951 0.0
C497 C 0.32506 0.25676 0.3069 0.0
C498 C 0.30698 0.23976 0.28644 0.0
C499 C 0.25517 0.32258 0.28394 0.0
C500 C 0.25671 0.33541 0.27325 0.0
C501 C 0.26995 0.33609 0.26316 0.0
C502 C 0.28136 0.32424 0.26369 0.0
C503 C 0.27964 0.31156 0.27448 0.0
C504 C 0.26674 0.31093 0.28442 0.0
C505 C 0.26711 0.29688 0.29549 0.0
C506 C 0.28222 0.28904 0.2904 0.0
C507 C 0.2895 0.29765 0.27806 0.0
C508 C 0.26895 0.30327 0.31288 0.0
C509 C 0.25165 0.28614 0.29188 0.0
C510 C 0.33955 0.28845 0.24672 0.0
C511 C 0.35068 0.27628 0.24701 0.0
C512 C 0.34879 0.26369 0.25798 0.0
C513 C 0.33604 0.26319 0.26845 0.0
C514 C 0.32499 0.2754 0.26799 0.0
C515 C 0.32681 0.28773 0.25721 0.0
C516 C 0.31369 0.29947 0.25822 0.0
C517 C 0.30376 0.29219 0.27141 0.0
C518 C 0.31048 0.27813 0.27712 0.0
C519 C 0.32171 0.31591 0.26313 0.0
C520 C 0.30403 0.2994 0.24199 0.0
H521 H 0.26306 0.27265 0.31989 0.0
H522 H 0.30365 0.23093 0.32185 0.0
H523 H 0.29413 0.23542 0.2845 0.0
H524 H 0.3111 0.24262 0.27438 0.0
H525 H 0.31385 0.2297 0.29136 0.0
H526 H 0.32398 0.26383 0.318 0.0
H527 H 0.33005 0.24515 0.31036 0.0
H528 H 0.33404 0.26363 0.30001 0.0
H529 H 0.24512 0.32154 0.29179 0.0
H530 H 0.27169 0.34594 0.255 0.0
H531 H 0.29116 0.3255 0.25575 0.0
H532 H 0.2755 0.31516 0.31344 0.0
H533 H 0.25696 0.3046 0.31806 0.0
H534 H 0.2763 0.29565 0.32077 0.0
H535 H 0.24886 0.28537 0.2788 0.0
H536 H 0.25289 0.27369 0.29578 0.0
H537 H 0.24102 0.29101 0.29752 0.0
H538 H 0.26167 0.25253 0.34013 0.0
C539 C 0.27202 0.26383 0.31992 0.0
C540 C 0.49694 0.93311 0.511 0.0
C541 C 0.48774 0.9299 0.49677 0.0
C542 C 0.47412 0.93893 0.49319 0.0
C543 C 0.47874 0.95363 0.518 0.0
C544 C 0.49225 0.94497 0.52138 0.0
C545 C 0.50058 0.94973 0.53707 0.0
H546 H 0.50338 0.99551 0.60379 0.0
C547 C 0.47696 0.96476 0.53142 0.0
C548 C 0.48975 0.96257 0.54262 0.0
H549 H 0.53677 0.9602 0.59043 0.0
H550 H 0.52107 0.95487 0.56601 0.0
H551 H 0.47042 0.97477 0.59205 0.0
H552 H 0.49985 0.01137 0.56983 0.0
H553 H 0.4796 0.01489 0.56449 0.0
H554 H 0.48634 0.01582 0.58523 0.0
H555 H 0.47129 0.99523 0.59846 0.0
H556 H 0.4574 0.98814 0.58261 0.0
C557 C 0.50013 0.935 0.54818 0.0
C558 C 0.51783 0.95656 0.53374 0.0
C559 C 0.42942 0.00093 0.53068 0.0
C560 C 0.42455 0.01261 0.54128 0.0
C561 C 0.43398 0.01571 0.55546 0.0
C562 C 0.44793 0.00732 0.55902 0.0
C563 C 0.45261 0.9957 0.54829 0.0
C564 C 0.44344 0.99273 0.53437 0.0
C565 C 0.45037 0.98015 0.52425 0.0
C566 C 0.4652 0.97604 0.5344 0.0
C567 C 0.46642 0.98513 0.5485 0.0
C568 C 0.43781 0.96589 0.52267 0.0
C569 C 0.45497 0.98785 0.50818 0.0
C570 C 0.50719 0.98651 0.59568 0.0
C571 C 0.52135 0.97828 0.59906 0.0
C572 C 0.52602 0.96684 0.58804 0.0
C573 C 0.51685 0.96371 0.57387 0.0
C574 C 0.50281 0.97211 0.5706 0.0
C575 C 0.49818 0.98328 0.58142 0.0
C576 C 0.48306 0.99124 0.57579 0.0
C577 C 0.47937 0.98297 0.55984 0.0
C578 C 0.49096 0.97175 0.55689 0.0
C579 C 0.46979 0.9873 0.58783 0.0
C580 C 0.48727 0.0093 0.5738 0.0
H581 H 0.459 0.95707 0.50037 0.0
H582 H 0.50759 0.92653 0.51402 0.0
H583 H 0.51794 0.96301 0.52217 0.0
H584 H 0.52247 0.96551 0.54267 0.0
H585 H 0.5265 0.9469 0.53315 0.0
H586 H 0.48847 0.92793 0.54641 0.0
H587 H 0.51005 0.927 0.54571 0.0
H588 H 0.50082 0.93819 0.56096 0.0
H589 H 0.42242 0.99808 0.51977 0.0
H590 H 0.43073 0.02482 0.56373 0.0
H591 H 0.45457 0.01028 0.56996 0.0
H592 H 0.43152 0.96396 0.53401 0.0
H593 H 0.42844 0.96804 0.51314 0.0
H594 H 0.44333 0.95445 0.52027 0.0
H595 H 0.45906 0.00059 0.50986 0.0
H596 H 0.46527 0.98226 0.5028 0.0
H597 H 0.44448 0.98743 0.49946 0.0
H598 H 0.46671 0.93659 0.48242 0.0
C599 C 0.46958 0.95075 0.50371 0.0
C600 C 0.17731 0.31038 0.7485 0.0
C601 C 0.16593 0.29739 0.74755 0.0
C602 C 0.16765 0.28541 0.73602 0.0
C603 C 0.19186 0.29928 0.72687 0.0
C604 C 0.19013 0.31106 0.73811 0.0
C605 C 0.20345 0.32387 0.73778 0.0
H606 H 0.27127 0.35429 0.70448 0.0
C607 C 0.20659 0.30345 0.71812 0.0
C608 C 0.21344 0.31785 0.72446 0.0
H609 H 0.24635 0.37328 0.74401 0.0
H610 H 0.22672 0.35105 0.74231 0.0
H611 H 0.23894 0.34289 0.68282 0.0
H612 H 0.26992 0.31896 0.71656 0.0
H613 H 0.26411 0.30496 0.70162 0.0
H614 H 0.2757 0.32286 0.69653 0.0
H615 H 0.25944 0.33846 0.67903 0.0
H616 H 0.24289 0.32417 0.67474 0.0
C617 C 0.1957 0.33982 0.73341 0.0
C618 C 0.21294 0.324 0.75412 0.0
C619 C 0.22349 0.26704 0.67391 0.0
C620 C 0.23664 0.26768 0.66379 0.0
C621 C 0.24809 0.28065 0.66526 0.0
C622 C 0.24644 0.29279 0.67648 0.0
C623 C 0.23322 0.29199 0.68645 0.0
C624 C 0.22206 0.27924 0.68512 0.0
C625 C 0.20893 0.28027 0.69687 0.0
C626 C 0.21406 0.29574 0.70548 0.0
C627 C 0.22826 0.30258 0.69928 0.0
C628 C 0.19256 0.2815 0.68738 0.0
C629 C 0.20978 0.26567 0.70811 0.0
C630 C 0.26147 0.35372 0.71264 0.0
C631 C 0.26024 0.36559 0.72431 0.0
C632 C 0.24755 0.36424 0.73496 0.0
C633 C 0.23614 0.35135 0.73391 0.0
C634 C 0.2375 0.33958 0.72215 0.0
C635 C 0.25008 0.34082 0.71186 0.0
C636 C 0.24998 0.3269 0.70054 0.0
C637 C 0.23511 0.31722 0.70557 0.0
C638 C 0.22779 0.32476 0.71816 0.0
C639 C 0.24781 0.33332 0.68333 0.0
C640 C 0.26575 0.31794 0.7038 0.0
H641 H 0.18113 0.2768 0.71719 0.0
H642 H 0.17649 0.31966 0.75737 0.0
H643 H 0.21308 0.31181 0.75932 0.0
H644 H 0.22584 0.32774 0.75322 0.0
H645 H 0.20737 0.33184 0.76282 0.0
H646 H 0.1858 0.33788 0.72412 0.0
H647 H 0.19042 0.34521 0.74399 0.0
H648 H 0.20426 0.34862 0.72822 0.0
H649 H 0.21437 0.25736 0.67304 0.0
H650 H 0.25849 0.28135 0.65785 0.0
H651 H 0.25556 0.3023 0.67698 0.0
H652 H 0.19411 0.28871 0.67638 0.0
H653 H 0.18746 0.26951 0.68369 0.0
H654 H 0.18348 0.28767 0.69405 0.0
H655 H 0.22254 0.26242 0.71048 0.0
H656 H 0.20517 0.26796 0.72001 0.0
H657 H 0.20305 0.25507 0.70274 0.0
H658 H 0.15896 0.27537 0.73494 0.0
C659 C 0.18051 0.2863 0.72568 0.0
C660 C 0.77219 0.17516 0.73727 0.0
C661 C 0.75799 0.17248 0.72763 0.0
C662 C 0.75462 0.18316 0.71511 0.0
C663 C 0.77937 0.19874 0.7219 0.0
C664 C 0.78267 0.18827 0.73418 0.0
C665 C 0.79838 0.19268 0.74313 0.0
H666 H 0.86455 0.24284 0.75319 0.0
C667 C 0.79278 0.21101 0.72181 0.0
C668 C 0.80397 0.20751 0.73419 0.0
H669 H 0.85196 0.20062 0.78034 0.0
H670 H 0.82763 0.1961 0.76387 0.0
H671 H 0.82887 0.25611 0.75042 0.0
H672 H 0.85494 0.22718 0.71881 0.0
H673 H 0.84427 0.24069 0.70693 0.0
H674 H 0.85957 0.24816 0.72137 0.0
H675 H 0.8456 0.26395 0.73946 0.0
H676 H 0.82523 0.26307 0.73091 0.0
C677 C 0.79459 0.19647 0.76062 0.0
C678 C 0.80994 0.17885 0.74122 0.0
C679 C 0.79161 0.2551 0.68052 0.0
C680 C 0.80239 0.26798 0.67714 0.0
C681 C 0.81675 0.27034 0.68666 0.0
C682 C 0.8203 0.26004 0.69935 0.0
C683 C 0.80941 0.24718 0.70253 0.0
C684 C 0.79535 0.2449 0.69316 0.0
C685 C 0.78533 0.23047 0.69805 0.0
C686 C 0.79565 0.22447 0.71193 0.0
C687 C 0.80972 0.2343 0.71453 0.0
C688 C 0.76886 0.23613 0.70345 0.0
C689 C 0.78405 0.21851 0.68389 0.0
C690 C 0.85664 0.23254 0.75549 0.0
C691 C 0.86018 0.22213 0.76817 0.0
C692 C 0.84941 0.20897 0.77084 0.0
C693 C 0.83531 0.20631 0.7612 0.0
C694 C 0.83186 0.2169 0.74869 0.0
C695 C 0.84248 0.2297 0.74597 0.0
C696 C 0.83685 0.23968 0.73211 0.0
C697 C 0.82107 0.23079 0.72705 0.0
C698 C 0.81821 0.21746 0.73681 0.0
C699 C 0.83406 0.25665 0.7384 0.0
C700 C 0.84954 0.23907 0.7191 0.0
H701 H 0.76193 0.20395 0.70252 0.0
H702 H 0.77525 0.16705 0.74684 0.0
H703 H 0.8081 0.17321 0.72922 0.0
H704 H 0.82284 0.18287 0.74196 0.0
H705 H 0.80778 0.16942 0.75025 0.0
H706 H 0.78301 0.20264 0.76116 0.0
H707 H 0.79339 0.18539 0.76777 0.0
H708 H 0.80373 0.20472 0.76656 0.0
H709 H 0.78062 0.25278 0.67326 0.0
H710 H 0.8252 0.28023 0.68435 0.0
H711 H 0.8314 0.26247 0.70617 0.0
H712 H 0.77046 0.24774 0.70988 0.0
H713 H 0.76035 0.2378 0.69305 0.0
H714 H 0.76305 0.22794 0.71199 0.0
H715 H 0.7953 0.21911 0.67707 0.0
H716 H 0.78273 0.20596 0.68775 0.0
H717 H 0.77382 0.22113 0.67547 0.0
H718 H 0.74369 0.18147 0.70762 0.0
C719 C 0.7652 0.19626 0.71222 0.0
C720 C 0.53372 0.56758 0.48247 0.0
C721 C 0.52209 0.57894 0.48489 0.0
C722 C 0.51118 0.57644 0.4972 0.0
C723 C 0.52395 0.552 0.50474 0.0
C724 C 0.53445 0.5543 0.4925 0.0
C725 C 0.54646 0.54144 0.49188 0.0
H726 H 0.57734 0.47471 0.52352 0.0
C727 C 0.5283 0.53732 0.51329 0.0
C728 C 0.54145 0.53106 0.50579 0.0
H729 H 0.59326 0.50159 0.48267 0.0
H730 H 0.57199 0.51982 0.48575 0.0
H731 H 0.57095 0.50524 0.54529 0.0
H732 H 0.53905 0.47574 0.51448 0.0
H733 H 0.52851 0.47998 0.53161 0.0
H734 H 0.54666 0.4689 0.53349 0.0
H735 H 0.56512 0.48498 0.55005 0.0
H736 H 0.55292 0.50129 0.55518 0.0
C737 C 0.56366 0.54932 0.49474 0.0
C738 C 0.5437 0.53256 0.47572 0.0
C739 C 0.49805 0.5203 0.56227 0.0
C740 C 0.49951 0.50753 0.57301 0.0
C741 C 0.51103 0.49607 0.57025 0.0
C742 C 0.5211 0.49748 0.55724 0.0
C743 C 0.5197 0.5105 0.54684 0.0
C744 C 0.50817 0.52151 0.54935 0.0
C745 C 0.50832 0.53455 0.53709 0.0
C746 C 0.52192 0.52962 0.52686 0.0
C747 C 0.52862 0.51558 0.53266 0.0
C748 C 0.51249 0.55063 0.54579 0.0
C749 C 0.49175 0.53371 0.52773 0.0
C750 C 0.57614 0.48445 0.51516 0.0
C751 C 0.58705 0.48674 0.50286 0.0
C752 C 0.58517 0.49968 0.49237 0.0
C753 C 0.57274 0.51022 0.49413 0.0
C754 C 0.56206 0.50789 0.50658 0.0
C755 C 0.56381 0.49514 0.51681 0.0
C756 C 0.5514 0.49465 0.52943 0.0
C757 C 0.54195 0.50922 0.52508 0.0
C758 C 0.54829 0.51692 0.51171 0.0
C759 C 0.56045 0.49652 0.54592 0.0
C760 C 0.54085 0.47899 0.52732 0.0
H761 H 0.50351 0.56195 0.51636 0.0
H762 H 0.54217 0.56901 0.47301 0.0
H763 H 0.53061 0.53166 0.47206 0.0
H764 H 0.54741 0.52009 0.47621 0.0
H765 H 0.55017 0.53893 0.46611 0.0
H766 H 0.56352 0.55951 0.50323 0.0
H767 H 0.56854 0.55398 0.48344 0.0
H768 H 0.57234 0.54119 0.50031 0.0
H769 H 0.48951 0.52944 0.5641 0.0
H770 H 0.51227 0.48599 0.57817 0.0
H771 H 0.52968 0.48843 0.55586 0.0
H772 H 0.52142 0.54906 0.55589 0.0
H773 H 0.50154 0.55557 0.55073 0.0
H774 H 0.5183 0.55968 0.53811 0.0
H775 H 0.48692 0.52115 0.52641 0.0
H776 H 0.4925 0.53814 0.51538 0.0
H777 H 0.48265 0.54044 0.53397 0.0
H778 H 0.50224 0.58508 0.4995 0.0
C779 C 0.51203 0.56304 0.50709 0.0
C780 C 0.54491 0.43571 0.01024 0.0
C781 C 0.53073 0.42579 0.00918 0.0
C782 C 0.51839 0.42931 0.99782 0.0
C783 C 0.53448 0.45211 0.98868 0.0
C784 C 0.54647 0.4488 -2e-05 0.0
C785 C 0.56059 0.46075 0.99976 0.0
H786 H 0.59561 0.52743 0.96831 0.0
C787 C 0.5399 0.46648 0.97985 0.0
C788 C 0.55514 0.47168 0.98637 0.0
H789 H 0.61392 0.49864 0.00715 0.0
H790 H 0.59038 0.48069 0.00423 0.0
H791 H 0.55892 0.52685 0.97894 0.0
H792 H 0.58294 0.4977 0.94586 0.0
H793 H 0.56388 0.50164 0.93717 0.0
H794 H 0.57833 0.51797 0.94157 0.0
H795 H 0.56519 0.53416 0.95997 0.0
H796 H 0.54581 0.52381 0.96207 0.0
C797 C 0.562 0.46945 0.01611 0.0
C798 C 0.5758 0.4518 0.99554 0.0
C799 C 0.50528 0.48613 0.93312 0.0
C800 C 0.50726 0.49886 0.92238 0.0
C801 C 0.52088 0.50952 0.92451 0.0
C802 C 0.53251 0.5073 0.93686 0.0
C803 C 0.53055 0.4943 0.94724 0.0
C804 C 0.517 0.48409 0.94538 0.0
C805 C 0.51684 0.47099 0.95759 0.0
C806 C 0.5327 0.47481 0.96687 0.0
C807 C 0.5407 0.48845 0.96074 0.0
C808 C 0.50201 0.47285 0.968 0.0
C809 C 0.51697 0.45482 0.94866 0.0
C810 C 0.5945 0.51731 0.97625 0.0
C811 C 0.60666 0.51449 0.988 0.0
C812 C 0.60484 0.50101 0.99789 0.0
C813 C 0.59108 0.49065 0.99625 0.0
C814 C 0.57895 0.49374 0.98459 0.0
C815 C 0.58083 0.50683 0.97475 0.0
C816 C 0.56679 0.50813 0.96291 0.0
C817 C 0.55605 0.49384 0.96745 0.0
C818 C 0.56324 0.48546 0.98015 0.0
C819 C 0.55873 0.52409 0.96595 0.0
C820 C 0.5732 0.5064 0.94594 0.0
H821 H 0.51041 0.44432 0.9791 0.0
H822 H 0.55452 0.43345 0.019 0.0
H823 H 0.57263 0.44222 0.9866 0.0
H824 H 0.58508 0.45955 0.98995 0.0
H825 H 0.58132 0.4461 0.00626 0.0
H826 H 0.54984 0.47092 0.02093 0.0
H827 H 0.56917 0.46263 0.02501 0.0
H828 H 0.56737 0.48171 0.01537 0.0
H829 H 0.49485 0.47787 0.93196 0.0
H830 H 0.52279 0.51933 0.91633 0.0
H831 H 0.54269 0.51571 0.9377 0.0
H832 H 0.49896 0.48558 0.96899 0.0
H833 H 0.49114 0.46613 0.96284 0.0
H834 H 0.50426 0.46902 0.98047 0.0
H835 H 0.52521 0.4557 0.93853 0.0
H836 H 0.52154 0.4451 0.95618 0.0
H837 H 0.50469 0.45116 0.94372 0.0
H838 H 0.50741 0.42176 0.99667 0.0
C839 C 0.52019 0.44237 0.98756 0.0
C840 C 0.74845 0.17027 0.27699 0.0
C841 C 0.74738 0.15922 0.26432 0.0
C842 C 0.73492 0.16048 0.25244 0.0
C843 C 0.72509 0.18353 0.26587 0.0
C844 C 0.73727 0.18224 0.27751 0.0
C845 C 0.73697 0.19501 0.29006 0.0
H846 H 0.70379 0.26108 0.31799 0.0
C847 C 0.71566 0.19745 0.26989 0.0
C848 C 0.7226 0.20421 0.28405 0.0
H849 H 0.74363 0.23553 0.33892 0.0
H850 H 0.74122 0.2166 0.31733 0.0
H851 H 0.68164 0.23053 0.31051 0.0
H852 H 0.71368 0.25804 0.28103 0.0
H853 H 0.69561 0.25369 0.26973 0.0
H854 H 0.69506 0.26521 0.28782 0.0
H855 H 0.67593 0.24899 0.30167 0.0
H856 H 0.67241 0.23019 0.2913 0.0
C857 C 0.73388 0.18684 0.30628 0.0
C858 C 0.75305 0.20522 0.28968 0.0
C859 C 0.66762 0.21269 0.2341 0.0
C860 C 0.65657 0.22491 0.23496 0.0
C861 C 0.65824 0.23575 0.24786 0.0
C862 C 0.67067 0.23456 0.25957 0.0
C863 C 0.6816 0.22234 0.25852 0.0
C864 C 0.67994 0.21161 0.24599 0.0
C865 C 0.69259 0.19927 0.247 0.0
C866 C 0.70204 0.20436 0.26223 0.0
C867 C 0.69557 0.21793 0.26885 0.0
C868 C 0.68385 0.18266 0.24866 0.0
C869 C 0.70302 0.20105 0.23216 0.0
C870 C 0.71195 0.25137 0.31801 0.0
C871 C 0.72403 0.24998 0.3302 0.0
C872 C 0.73444 0.23717 0.32957 0.0
C873 C 0.73294 0.22605 0.31706 0.0
C874 C 0.72082 0.22762 0.30501 0.0
C875 C 0.71053 0.24007 0.30566 0.0
C876 C 0.69805 0.23955 0.29208 0.0
C877 C 0.70268 0.22483 0.28309 0.0
C878 C 0.71607 0.21796 0.29068 0.0
C879 C 0.68108 0.23732 0.29913 0.0
C880 C 0.70055 0.25493 0.28212 0.0
H881 H 0.71459 0.17286 0.24377 0.0
H882 H 0.75801 0.16983 0.28618 0.0
H883 H 0.75689 0.20682 0.27721 0.0
H884 H 0.75205 0.21745 0.29428 0.0
H885 H 0.76293 0.19943 0.29652 0.0
H886 H 0.72604 0.17577 0.30463 0.0
H887 H 0.7454 0.18346 0.31236 0.0
H888 H 0.72727 0.19431 0.31441 0.0
H889 H 0.66683 0.20423 0.22431 0.0
H890 H 0.64977 0.24509 0.24904 0.0
H891 H 0.67124 0.2432 0.26904 0.0
H892 H 0.67321 0.18339 0.25624 0.0
H893 H 0.67943 0.17787 0.23683 0.0
H894 H 0.69153 0.17387 0.25463 0.0
H895 H 0.70492 0.21383 0.2289 0.0
H896 H 0.71531 0.1967 0.23418 0.0
H897 H 0.69706 0.19473 0.22169 0.0
H898 H 0.73371 0.15205 0.24263 0.0
C899 C 0.72378 0.17254 0.25316 0.0
C900 C 0.4157 0.99431 0.97479 0.0
C901 C 0.41014 0.98201 0.96422 0.0
C902 C 0.41921 0.97897 0.95076 0.0
C903 C 0.43903 -2e-05 0.95877 0.0
C904 C 0.43003 0.00311 0.97181 0.0
C905 C 0.43741 0.01668 0.98179 0.0
H906 H 0.49699 0.07381 0.99433 0.0
C907 C 0.45339 0.01117 0.95928 0.0
C908 C 0.45246 0.02103 0.97272 0.0
H909 H 0.45424 0.0646 0.02142 0.0
H910 H 0.44619 0.04231 0.00438 0.0
H911 H 0.4789 0.06907 0.95989 0.0
H912 H 0.50553 0.03728 0.99013 0.0
H913 H 0.51038 0.03309 0.97045 0.0
H914 H 0.51544 0.05265 0.97876 0.0
H915 H 0.50045 0.07112 0.96331 0.0
H916 H 0.4914 0.05841 0.94772 0.0
C917 C 0.42537 0.03031 0.98148 0.0
C918 C 0.44169 0.0102 0.99866 0.0
C919 C 0.49542 0.00814 0.91696 0.0
C920 C 0.51015 0.01672 0.91461 0.0
C921 C 0.5153 0.0289 0.92554 0.0
C922 C 0.50596 0.03256 0.93847 0.0
C923 C 0.49127 0.02394 0.94061 0.0
C924 C 0.48624 0.01192 0.93 0.0
C925 C 0.47039 0.00389 0.93434 0.0
C926 C 0.46677 0.01308 0.94928 0.0
C927 C 0.47903 0.02484 0.95286 0.0
C928 C 0.45775 0.00658 0.92057 0.0
C929 C 0.47333 0.98613 0.93793 0.0
C930 C 0.48586 0.06704 0.99655 0.0
C931 C 0.47628 0.07102 0.00931 0.0
C932 C 0.462 0.0617 0.01187 0.0
C933 C 0.45724 0.04882 0.00183 0.0
C934 C 0.46679 0.04518 0.98899 0.0
C935 C 0.48088 0.05416 0.98658 0.0
C936 C 0.48942 0.04858 0.97225 0.0
C937 C 0.47799 0.03494 0.96635 0.0
C938 C 0.46478 0.03301 0.97622 0.0
C939 C 0.49025 0.06247 0.96012 0.0
C940 C 0.50613 0.04267 0.97805 0.0
H941 H 0.43991 0.98492 0.93757 0.0
H942 H 0.4092 0.99692 0.98534 0.0
H943 H 0.44629 0.99799 0.99791 0.0
H944 H 0.45146 0.01735 0.00504 0.0
H945 H 0.43088 0.00952 0.00608 0.0
H946 H 0.4182 0.03045 0.96996 0.0
H947 H 0.41668 0.02888 0.99116 0.0
H948 H 0.43147 0.04229 0.98236 0.0
H949 H 0.49101 0.99879 0.90876 0.0
H950 H 0.52672 0.03551 0.92424 0.0
H951 H 0.5106 0.04194 0.94633 0.0
H952 H 0.45984 0.01851 0.91507 0.0
H953 H 0.45844 0.99747 0.91102 0.0
H954 H 0.44523 0.00655 0.92461 0.0
H955 H 0.48524 0.98489 0.94435 0.0
H956 H 0.46438 0.98058 0.94584 0.0
H957 H 0.47335 0.97905 0.92673 0.0
H958 H 0.41511 0.96977 0.94225 0.0
C959 C 0.43359 0.98784 0.948 0.0
Mg960 Mg 0.24282 0.8581 0.00583 0.0
O961 O 0.26611 0.87373 0.00258 0.0
O962 O 0.28672 0.85741 0.00401 0.0
Mg963 Mg 0.27691 0.83185 0.00752 0.0
C964 C 0.28123 0.8713 0.00233 0.0
C965 C 0.21184 0.875 0.99982 0.0
O966 O 0.20737 0.86053 0.00435 0.0
O967 O 0.24389 0.84906 0.98029 0.0
O968 O 0.26426 0.83252 0.98255 0.0
O969 O 0.24559 0.86059 0.0323 0.0
O970 O 0.25582 0.84134 0.01852 0.0
C971 C 0.25304 0.83902 0.97427 0.0
C972 C 0.25423 0.84813 0.03209 0.0
O973 O 0.22684 0.8784 0.99841 0.0
Mg974 Mg 0.14743 0.50588 0.27038 0.0
O975 O 0.13307 0.50379 0.24622 0.0
O976 O 0.15115 0.50557 0.2272 0.0
Mg977 Mg 0.17656 0.50883 0.23875 0.0
C978 C 0.13657 0.5039 0.23152 0.0
C979 C 0.12752 0.49688 0.29891 0.0
O980 O 0.14238 0.49908 0.30493 0.0
O981 O 0.15555 0.48035 0.26785 0.0
O982 O 0.17381 0.48351 0.24905 0.0
O983 O 0.14667 0.53248 0.26974 0.0
O984 O 0.16617 0.51889 0.25993 0.0
C985 C 0.16613 0.47478 0.25896 0.0
C986 C 0.16002 0.53245 0.26224 0.0
O987 O 0.1251 0.49805 0.2839 0.0
Mg988 Mg 0.77552 0.6455 0.01393 0.0
O989 O 0.75155 0.63035 0.01138 0.0
O990 O 0.73175 0.64748 0.00877 0.0
Mg991 Mg 0.74257 0.673 0.00994 0.0
C992 C 0.73657 0.63326 0.00949 0.0
C993 C 0.80562 0.62685 0.01111 0.0
O994 O 0.81089 0.64174 0.01335 0.0
O995 O 0.77407 0.65117 0.98731 0.0
O996 O 0.75461 0.66878 0.98617 0.0
O997 O 0.77366 0.64693 0.04039 0.0
O998 O 0.76364 0.66437 0.02349 0.0
C999 C 0.76528 0.66083 0.97951 0.0
C1000 C 0.7656 0.65962 0.03799 0.0
O1001 O 0.79043 0.62377 0.01011 0.0
Mg1002 Mg 0.90027 0.02702 0.24392 0.0
O1003 O 0.88473 0.00364 0.24091 0.0
O1004 O 0.90158 0.9839 0.238 0.0
Mg1005 Mg 0.92753 0.99448 0.23848 0.0
C1006 C 0.88732 0.98888 0.23896 0.0
C1007 C 0.87819 0.05462 0.24796 0.0
O1008 O 0.89038 0.06082 0.24015 0.0
O1009 O 0.90812 0.02024 0.26942 0.0
O1010 O 0.92545 0.00125 0.26485 0.0
O1011 O 0.89955 0.03047 0.21754 0.0
O1012 O 0.91843 0.01755 0.23078 0.0
C1013 C 0.91829 0.01017 0.2744 0.0
C1014 C 0.91235 0.0222 0.21729 0.0
O1015 O 0.87843 0.04005 0.25205 0.0
Mg1016 Mg 0.27566 0.145 0.51406 0.0
O1017 O 0.25167 0.12985 0.51168 0.0
O1018 O 0.23169 0.14689 0.51077 0.0
Mg1019 Mg 0.24251 0.17239 0.51202 0.0
C1020 C 0.23662 0.13271 0.5107 0.0
C1021 C 0.2891 0.11086 0.51725 0.0
O1022 O 0.27798 0.1098 0.52797 0.0
O1023 O 0.27335 0.15149 0.48774 0.0
O1024 O 0.25358 0.16876 0.48759 0.0
O1025 O 0.27458 0.14553 0.54062 0.0
O1026 O 0.26402 0.1635 0.52464 0.0
C1027 C 0.26414 0.16112 0.48042 0.0
C1028 C 0.26641 0.15824 0.53891 0.0
O1029 O 0.29047 0.12348 0.50897 0.0
Mg1030 Mg 0.4008 0.52591 0.74305 0.0
O1031 O 0.38534 0.50249 0.74004 0.0
O1032 O 0.40217 0.48283 0.73656 0.0
Mg1033 Mg 0.42808 0.49351 0.73688 0.0
C1034 C 0.38793 0.48777 0.73783 0.0
C1035 C 0.37815 0.55306 0.7467 0.0
O1036 O 0.38972 0.55907 0.73794 0.0
O1037 O 0.40899 0.51895 0.76844 0.0
O1038 O 0.42613 0.49994 0.76333 0.0
O1039 O 0.39974 0.52941 0.71662 0.0
O1040 O 0.41886 0.51664 0.72967 0.0
C1041 C 0.41914 0.50874 0.77312 0.0
C1042 C 0.4126 0.52123 0.71625 0.0
O1043 O 0.37901 0.53876 0.75153 0.0
Mg1044 Mg 0.74214 0.35692 0.50718 0.0
O1045 O 0.76591 0.37153 0.50295 0.0
O1046 O 0.78573 0.35431 0.50445 0.0
Mg1047 Mg 0.77505 0.32928 0.50892 0.0
C1048 C 0.78086 0.36842 0.50247 0.0
C1049 C 0.71163 0.37406 0.49928 0.0
O1050 O 0.70677 0.35938 0.50273 0.0
O1051 O 0.74216 0.34693 0.48193 0.0
O1052 O 0.76198 0.32975 0.48413 0.0
O1053 O 0.74566 0.36026 0.53349 0.0
O1054 O 0.75478 0.3401 0.52015 0.0
C1055 C 0.75081 0.33641 0.47595 0.0
C1056 C 0.75382 0.34747 0.53352 0.0
O1057 O 0.72675 0.37751 0.49932 0.0
Mg1058 Mg 0.64871 0.00407 0.76847 0.0
O1059 O 0.6332 0.00292 0.7449 0.0
O1060 O 0.65046 0.0048 0.72515 0.0
Mg1061 Mg 0.67635 0.00704 0.73555 0.0
C1062 C 0.63608 0.00338 0.73005 0.0
C1063 C 0.62857 0.00161 0.79733 0.0
O1064 O 0.6422 0.00928 0.80189 0.0
O1065 O 0.6559 0.97833 0.76493 0.0
O1066 O 0.67331 0.98159 0.74539 0.0
O1067 O 0.6487 0.03072 0.76864 0.0
O1068 O 0.66722 0.01694 0.75741 0.0
C1069 C 0.6659 0.97276 0.7554 0.0
C1070 C 0.66157 0.03059 0.76041 0.0
O1071 O 0.62692 0.99668 0.78299 0.0
Mg1072 Mg 0.03051 0.25887 0.89408 0.0
O1073 O 0.00652 0.25354 0.87972 0.0
O1074 O 0.98804 0.24612 0.89725 0.0
Mg1075 Mg 0.99981 0.2468 0.92234 0.0
C1076 C 0.9921 0.24891 0.88298 0.0
C1077 C 0.0573 0.27067 0.87315 0.0
O1078 O 0.0647 0.26498 0.88593 0.0
O1079 O 0.02137 0.28248 0.90273 0.0
O1080 O 0.00359 0.27408 0.92055 0.0
O1081 O 0.03659 0.23338 0.89215 0.0
O1082 O 0.02319 0.24315 0.91186 0.0
C1083 C 0.01119 0.2853 0.91328 0.0
C1084 C 0.02876 0.23093 0.90502 0.0
O1085 O 0.04193 0.27046 0.8725 0.0
Mg1086 Mg 0.52985 0.75833 0.39497 0.0
O1087 O 0.50586 0.75358 0.38045 0.0
O1088 O 0.48717 0.74612 0.39777 0.0
Mg1089 Mg 0.49879 0.74639 0.42293 0.0
C1090 C 0.49136 0.74907 0.38356 0.0
C1091 C 0.55697 0.76882 0.37407 0.0
O1092 O 0.5639 0.76213 0.38658 0.0
O1093 O 0.52103 0.78203 0.40376 0.0
O1094 O 0.50308 0.77363 0.42143 0.0
O1095 O 0.53554 0.73271 0.39293 0.0
O1096 O 0.52218 0.74259 0.41259 0.0
C1097 C 0.51086 0.78486 0.41432 0.0
C1098 C 0.52766 0.73032 0.40577 0.0
O1099 O 0.54169 0.76983 0.37356 0.0
Mg1100 Mg 0.99243 0.74822 0.60623 0.0
O1101 O 0.01632 0.74387 0.62026 0.0
O1102 O 0.03468 0.73896 0.60231 0.0
Mg1103 Mg 0.0226 0.73922 0.57732 0.0
C1104 C 0.0307 0.74075 0.61672 0.0
C1105 C 0.96734 0.76364 0.62605 0.0
O1106 O 0.96096 0.76381 0.61145 0.0
O1107 O 0.00232 0.77273 0.5985 0.0
O1108 O 0.01942 0.76621 0.57991 0.0
O1109 O 0.98534 0.72231 0.607 0.0
O1110 O 0.99912 0.73361 0.58775 0.0
C1111 C 0.01228 0.77664 0.5878 0.0
C1112 C 0.99291 0.72081 0.59393 0.0
O1113 O 0.98139 0.75836 0.62829 0.0
Mg1114 Mg 0.48964 0.24709 0.10511 0.0
O1115 O 0.5139 0.24339 0.11886 0.0
O1116 O 0.53151 0.23667 0.1008 0.0
Mg1117 Mg 0.51909 0.23665 0.07598 0.0
C1118 C 0.52801 0.23943 0.1152 0.0
C1119 C 0.46359 0.25911 0.12528 0.0
O1120 O 0.45631 0.25436 0.11176 0.0
O1121 O 0.49929 0.27116 0.09615 0.0
O1122 O 0.51644 0.26384 0.07791 0.0
O1123 O 0.48281 0.22121 0.10725 0.0
O1124 O 0.49589 0.23171 0.08711 0.0
C1125 C 0.50935 0.27461 0.0854 0.0
C1126 C 0.49007 0.21918 0.09408 0.0
O1127 O 0.47887 0.25823 0.12684 0.0
H1128 H 0.23335 0.74454 0.86165 0.0
H1129 H 0.23585 0.76338 0.88394 0.0
H1130 H 0.22814 0.80237 0.85152 0.0
H1131 H 0.22589 0.78355 0.82901 0.0
H1132 H 0.25492 0.80737 0.87413 0.0
H1133 H 0.19854 0.78739 0.90304 0.0
H1134 H 0.21123 0.77135 0.89847 0.0
H1135 H 0.2023 0.78273 0.88253 0.0
C1136 C 0.23228 0.75713 0.85923 0.0
C1137 C 0.22943 0.76256 0.84357 0.0
C1138 C 0.23354 0.76785 0.872 0.0
C1139 C 0.23193 0.78422 0.86938 0.0
C1140 C 0.22927 0.78975 0.85377 0.0
H1141 H 0.22742 0.8456 0.95382 0.0
H1142 H 0.22183 0.83516 0.92675 0.0
C1143 C 0.22792 0.779 0.84096 0.0
C1144 C 0.23353 0.79547 0.88301 0.0
H1145 H 0.21807 0.80285 0.91919 0.0
C1146 C 0.24674 0.80658 0.88389 0.0
C1147 C 0.22267 0.79459 0.89557 0.0
C1148 C 0.20779 0.78349 0.89483 0.0
C1149 C 0.24992 0.81619 0.89748 0.0
C1150 C 0.23971 0.81448 0.91052 0.0
C1151 C 0.22596 0.80405 0.90922 0.0
C1152 C 0.24381 0.82226 0.92612 0.0
C1153 C 0.26434 0.82788 0.89787 0.0
C1154 C 0.25803 0.8185 0.93468 0.0
C1155 C 0.26123 0.82436 0.95012 0.0
C1156 C 0.25023 0.83407 0.95737 0.0
C1157 C 0.23617 0.83819 0.94859 0.0
C1158 C 0.23294 0.83223 0.93313 0.0
H1159 H 0.26769 0.83139 0.88564 0.0
H1160 H 0.26193 0.83879 0.90472 0.0
H1161 H 0.27487 0.82221 0.90373 0.0
H1162 H 0.26642 0.81056 0.92963 0.0
H1163 H 0.27218 0.82095 0.95649 0.0
H1164 H 0.04278 0.51473 0.41703 0.0
H1165 H 0.06032 0.50845 0.39536 0.0
H1166 H 0.01851 0.50131 0.36329 0.0
H1167 H 0.00084 0.50784 0.38488 0.0
H1168 H 0.0591 0.47944 0.37549 0.0
H1169 H 0.04895 0.53511 0.34117 0.0
H1170 H 0.04448 0.53327 0.36198 0.0
H1171 H 0.03132 0.52359 0.34703 0.0
C1172 C 0.03731 0.51193 0.40534 0.0
C1173 C 0.02043 0.51191 0.40263 0.0
C1174 C 0.04734 0.50824 0.39302 0.0
C1175 C 0.04071 0.50456 0.37772 0.0
C1176 C 0.02386 0.50427 0.37499 0.0
H1177 H 0.09496 0.49482 0.29089 0.0
H1178 H 0.07257 0.49429 0.30912 0.0
C1179 C 0.01379 0.50789 0.38735 0.0
C1180 C 0.05156 0.50125 0.36466 0.0
H1181 H 0.06694 0.51731 0.33084 0.0
C1182 C 0.06074 0.48763 0.36565 0.0
C1183 C 0.05355 0.51191 0.35179 0.0
C1184 C 0.04416 0.52686 0.35037 0.0
C1185 C 0.07211 0.48452 0.35422 0.0
C1186 C 0.07462 0.49554 0.34171 0.0
C1187 C 0.06501 0.50888 0.34043 0.0
C1188 C 0.08798 0.49421 0.3306 0.0
C1189 C 0.08134 0.46948 0.3557 0.0
C1190 C 0.10405 0.49426 0.33662 0.0
C1191 C 0.11683 0.49451 0.32627 0.0
C1192 C 0.11382 0.49489 0.30966 0.0
C1193 C 0.09769 0.49449 0.30362 0.0
C1194 C 0.08488 0.49421 0.31401 0.0
H1195 H 0.0744 0.46005 0.36215 0.0
H1196 H 0.08419 0.46479 0.34381 0.0
H1197 H 0.09288 0.47211 0.36262 0.0
H1198 H 0.10678 0.49466 0.34935 0.0
H1199 H 0.12909 0.49489 0.33135 0.0
H1200 H 0.78008 0.74807 0.86546 0.0
H1201 H 0.77956 0.72957 0.8879 0.0
H1202 H 0.7909 0.69109 0.85678 0.0
H1203 H 0.79127 0.70959 0.8341 0.0
H1204 H 0.76409 0.68444 0.87714 0.0
H1205 H 0.81877 0.7089 0.91078 0.0
H1206 H 0.80509 0.7239 0.90458 0.0
H1207 H 0.81492 0.71272 0.88981 0.0
C1208 C 0.78242 0.73566 0.86337 0.0
C1209 C 0.78567 0.73026 0.84802 0.0
C1210 C 0.78229 0.72515 0.87622 0.0
C1211 C 0.78541 0.70903 0.87401 0.0
C1212 C 0.78861 0.70353 0.85872 0.0
H1213 H 0.7914 0.65307 0.96241 0.0
H1214 H 0.79722 0.66122 0.93511 0.0
C1215 C 0.78887 0.7141 0.84583 0.0
C1216 C 0.78459 0.69796 0.88769 0.0
H1217 H 0.7998 0.69307 0.92569 0.0
C1218 C 0.77208 0.68609 0.88766 0.0
C1219 C 0.79519 0.69997 0.90128 0.0
C1220 C 0.80936 0.71196 0.90161 0.0
C1221 C 0.7692 0.67692 0.90132 0.0
C1222 C 0.779 0.67984 0.91534 0.0
C1223 C 0.79221 0.69092 0.91497 0.0
C1224 C 0.77472 0.67296 0.93093 0.0
C1225 C 0.75542 0.66449 0.90077 0.0
C1226 C 0.7601 0.67675 0.93755 0.0
C1227 C 0.75679 0.67221 0.9531 0.0
C1228 C 0.76806 0.66381 0.96241 0.0
C1229 C 0.78244 0.65947 0.95555 0.0
C1230 C 0.7858 0.66414 0.93997 0.0
H1231 H 0.75269 0.66008 0.88841 0.0
H1232 H 0.75818 0.65419 0.90855 0.0
H1233 H 0.74438 0.66988 0.905 0.0
H1234 H 0.75153 0.68382 0.93093 0.0
H1235 H 0.74558 0.67572 0.95798 0.0
H1236 H 0.99497 0.02656 0.41139 0.0
H1237 H 0.97571 0.03018 0.38883 0.0
H1238 H 0.97494 0.97969 0.37891 0.0
H1239 H 0.99394 0.97598 0.40151 0.0
H1240 H 0.97944 0.02462 0.35797 0.0
H1241 H 0.92733 0.98698 0.37724 0.0
H1242 H 0.94418 0.99287 0.39067 0.0
H1243 H 0.94545 0.97607 0.37745 0.0
C1244 C 0.99061 0.01623 0.40443 0.0
C1245 C 0.9959 0.00097 0.40827 0.0
C1246 C 0.97956 0.0183 0.3916 0.0
C1247 C 0.97359 0.00516 0.38237 0.0
C1248 C 0.97894 0.98994 0.38615 0.0
H1249 H 0.93303 0.98604 0.29008 0.0
H1250 H 0.94421 0.98615 0.31748 0.0
C1251 C 0.98987 0.98784 0.39903 0.0
C1252 C 0.96269 0.00745 0.36811 0.0
H1253 H 0.92773 0.9929 0.34908 0.0
C1254 C 0.96798 0.01793 0.35617 0.0
C1255 C 0.94768 0.99877 0.36578 0.0
C1256 C 0.94075 0.98818 0.37856 0.0
C1257 C 0.95911 0.0193 0.34165 0.0
C1258 C 0.94456 0.01 0.33904 0.0
C1259 C 0.93893 -2e-05 0.35115 0.0
C1260 C 0.93596 0.00944 0.32322 0.0
C1261 C 0.96569 0.03011 0.32887 0.0
C1262 C 0.92722 0.02236 0.31757 0.0
C1263 C 0.92068 0.02231 0.30188 0.0
C1264 C 0.92298 0.00941 0.29161 0.0
C1265 C 0.93115 0.99622 0.29762 0.0
C1266 C 0.93751 0.99622 0.31329 0.0
H1267 H 0.97784 0.03553 0.3323 0.0
H1268 H 0.96651 0.02334 0.31757 0.0
H1269 H 0.9573 0.03986 0.32653 0.0
H1270 H 0.92587 0.03264 0.32513 0.0
H1271 H 0.91448 0.03265 0.29762 0.0
H1272 H 0.24673 0.27107 0.63327 0.0
H1273 H 0.25032 0.25011 0.61368 0.0
H1274 H 0.2339 0.21453 0.64705 0.0
H1275 H 0.23066 0.23538 0.66696 0.0
H1276 H 0.27058 0.22224 0.61876 0.0
H1277 H 0.20544 0.20662 0.60437 0.0
H1278 H 0.21226 0.22552 0.61325 0.0
H1279 H 0.21195 0.20777 0.62511 0.0
C1280 C 0.24401 0.25879 0.63654 0.0
C1281 C 0.23844 0.25493 0.65173 0.0
C1282 C 0.24597 0.24684 0.62528 0.0
C1283 C 0.24226 0.23083 0.62891 0.0
C1284 C 0.23663 0.22687 0.64398 0.0
H1285 H 0.27115 0.15108 0.57052 0.0
H1286 H 0.26441 0.1672 0.59348 0.0
C1287 C 0.23473 0.23881 0.65531 0.0
C1288 C 0.2447 0.2183 0.61695 0.0
H1289 H 0.22456 0.19221 0.59095 0.0
C1290 C 0.26056 0.21556 0.61276 0.0
C1291 C 0.23155 0.20972 0.60915 0.0
C1292 C 0.2143 0.21254 0.61306 0.0
C1293 C 0.26361 0.20456 0.60078 0.0
C1294 C 0.25045 0.19606 0.59287 0.0
C1295 C 0.2346 0.19867 0.59717 0.0
C1296 C 0.25296 0.18533 0.57929 0.0
C1297 C 0.28084 0.20248 0.59627 0.0
C1298 C 0.24831 0.18998 0.5638 0.0
C1299 C 0.25217 0.18085 0.55068 0.0
C1300 C 0.26065 0.16683 0.55284 0.0
C1301 C 0.26464 0.16182 0.56845 0.0
C1302 C 0.26085 0.17103 0.58157 0.0
H1303 H 0.28937 0.21169 0.60184 0.0
H1304 H 0.28467 0.19058 0.60024 0.0
H1305 H 0.28178 0.20306 0.58311 0.0
H1306 H 0.24223 0.201 0.56182 0.0
H1307 H 0.24897 0.18511 0.53886 0.0
H1308 H 0.46753 0.51417 0.57513 0.0
H1309 H 0.45191 0.51497 0.5992 0.0
H1310 H 0.4929 0.49898 0.62719 0.0
H1311 H 0.50882 0.49881 0.60335 0.0
H1312 H 0.44339 0.49175 0.62132 0.0
H1313 H 0.4827 0.54013 0.64967 0.0
H1314 H 0.48377 0.53478 0.62893 0.0
H1315 H 0.49347 0.52304 0.64414 0.0
C1316 C 0.47326 0.51092 0.58642 0.0
C1317 C 0.4895 0.5066 0.58732 0.0
C1318 C 0.46427 0.51126 0.60014 0.0
C1319 C 0.47134 0.50733 0.61501 0.0
C1320 C 0.48731 0.50238 0.61587 0.0
H1321 H 0.44113 0.50703 0.71223 0.0
H1322 H 0.4544 0.50256 0.68728 0.0
C1323 C 0.49634 0.50209 0.60218 0.0
C1324 C 0.46215 0.50877 0.62969 0.0
H1325 H 0.46287 0.52776 0.66574 0.0
C1326 C 0.4476 0.49966 0.63101 0.0
C1327 C 0.46762 0.51919 0.64226 0.0
C1328 C 0.48266 0.52996 0.64117 0.0
C1329 C 0.43856 0.50043 0.64478 0.0
C1330 C 0.44419 0.51067 0.65742 0.0
C1331 C 0.45866 0.51984 0.65604 0.0
C1332 C 0.43533 0.51211 0.67227 0.0
C1333 C 0.42326 0.49008 0.64586 0.0
C1334 C 0.42015 0.5189 0.67206 0.0
C1335 C 0.41251 0.5215 0.68634 0.0
C1336 C 0.41995 0.51736 0.70103 0.0
C1337 C 0.435 0.51025 0.70112 0.0
C1338 C 0.44263 0.50772 0.68688 0.0
H1339 H 0.42238 0.48052 0.63665 0.0
H1340 H 0.4226 0.48452 0.65783 0.0
H1341 H 0.41264 0.49758 0.64407 0.0
H1342 H 0.41443 0.52261 0.66091 0.0
H1343 H 0.40095 0.52705 0.68587 0.0
H1344 H 0.7735 0.28061 0.66853 0.0
H1345 H 0.76696 0.29607 0.64462 0.0
H1346 H 0.81648 0.29475 0.63086 0.0
H1347 H 0.82313 0.27925 0.65478 0.0
H1348 H 0.80257 0.32492 0.62627 0.0
H1349 H 0.76364 0.27497 0.60019 0.0
H1350 H 0.7583 0.28101 0.61974 0.0
H1351 H 0.77749 0.27241 0.61709 0.0
C1352 C 0.783 0.28362 0.66042 0.0
C1353 C 0.79879 0.27857 0.66343 0.0
C1354 C 0.77925 0.29246 0.64679 0.0
C1355 C 0.79118 0.2963 0.63587 0.0
C1356 C 0.8071 0.29186 0.63915 0.0
H1357 H 0.771 0.32062 0.53721 0.0
H1358 H 0.78173 0.30935 0.56202 0.0
C1359 C 0.81088 0.28305 0.65282 0.0
C1360 C 0.78686 0.30431 0.62069 0.0
H1361 H 0.76325 0.29962 0.58654 0.0
C1362 C 0.79401 0.31941 0.61754 0.0
C1363 C 0.77588 0.29695 0.60925 0.0
C1364 C 0.76848 0.28038 0.61162 0.0
C1365 C 0.79022 0.32749 0.60331 0.0
C1366 C 0.77884 0.32033 0.59211 0.0
C1367 C 0.7719 0.30513 0.59519 0.0
C1368 C 0.7739 0.32824 0.57703 0.0
C1369 C 0.79859 0.34349 0.60029 0.0
C1370 C 0.76608 0.34272 0.57721 0.0
C1371 C 0.76002 0.34928 0.56299 0.0
C1372 C 0.76156 0.3414 0.54837 0.0
C1373 C 0.76971 0.32708 0.54822 0.0
C1374 C 0.77581 0.32058 0.56241 0.0
H1375 H 0.80991 0.3453 0.6078 0.0
H1376 H 0.80155 0.34475 0.58756 0.0
H1377 H 0.79041 0.35307 0.60324 0.0
H1378 H 0.76416 0.34866 0.5884 0.0
H1379 H 0.75372 0.36028 0.56352 0.0
H1380 H 0.55427 0.98212 0.60206 0.0
H1381 H 0.57098 0.98757 0.62636 0.0
H1382 H 0.5281 0.98817 0.65372 0.0
H1383 H 0.51123 0.98248 0.62942 0.0
H1384 H 0.5686 0.01481 0.64812 0.0
H1385 H 0.55819 0.95567 0.677 0.0
H1386 H 0.55457 0.95856 0.65584 0.0
H1387 H 0.54073 0.96587 0.66968 0.0
C1388 C 0.54838 0.98326 0.61326 0.0
C1389 C 0.53143 0.98177 0.61384 0.0
C1390 C 0.55794 0.98646 0.62711 0.0
C1391 C 0.55077 0.98812 0.64182 0.0
C1392 C 0.53386 0.98676 0.64248 0.0
H1393 H 0.60341 0.99967 0.73493 0.0
H1394 H 0.58124 0.99725 0.71457 0.0
C1395 C 0.52425 0.98364 0.62859 0.0
C1396 C 0.56115 0.99144 0.65637 0.0
H1397 H 0.57602 0.97428 0.69047 0.0
C1398 C 0.57013 0.00602 0.65747 0.0
C1399 C 0.56297 0.98 0.66858 0.0
C1400 C 0.5537 0.96408 0.66779 0.0
C1401 C 0.58121 0.00932 0.67029 0.0
C1402 C 0.58364 0.99757 0.68213 0.0
C1403 C 0.57417 0.98324 0.68136 0.0
C1404 C 0.59685 0.99941 0.69458 0.0
C1405 C 0.59031 0.02533 0.67099 0.0
C1406 C 0.61295 0.00119 0.69008 0.0
C1407 C 0.62558 0.00258 0.70161 0.0
C1408 C 0.62244 0.00209 0.71796 0.0
C1409 C 0.60627 0.00016 0.72246 0.0
C1410 C 0.59359 0.99877 0.71086 0.0
H1411 H 0.58354 0.03453 0.66437 0.0
H1412 H 0.59267 0.02943 0.6835 0.0
H1413 H 0.60211 0.02433 0.66536 0.0
H1414 H 0.61578 0.00132 0.6776 0.0
H1415 H 0.63785 0.00394 0.69764 0.0
H1416 H 0.86292 0.21912 0.80059 0.0
H1417 H 0.88711 0.22377 0.81799 0.0
H1418 H 0.91489 0.23658 0.77723 0.0
H1419 H 0.89075 0.23178 0.75965 0.0
H1420 H 0.91704 0.20867 0.81658 0.0
H1421 H 0.92425 0.27439 0.80843 0.0
H1422 H 0.90567 0.2632 0.80295 0.0
H1423 H 0.92275 0.26253 0.79052 0.0
C1424 C 0.87419 0.22281 0.79529 0.0
C1425 C 0.8749 0.22507 0.77872 0.0
C1426 C 0.88798 0.22554 0.80526 0.0
C1427 C 0.90272 0.23068 0.79891 0.0
C1428 C 0.90354 0.2329 0.78239 0.0
H1429 H 0.99536 0.25365 0.85081 0.0
H1430 H 0.97467 0.24882 0.82933 0.0
C1431 C 0.88974 0.23016 0.77238 0.0
C1432 C 0.91724 0.23336 0.80967 0.0
H1433 H 0.94377 0.26235 0.82513 0.0
C1434 C 0.92294 0.22038 0.8184 0.0
C1435 C 0.92497 0.24865 0.8119 0.0
C1436 C 0.91909 0.26305 0.80307 0.0
C1437 C 0.93602 0.22231 0.82952 0.0
C1438 C 0.94339 0.23769 0.83217 0.0
C1439 C 0.93805 0.25059 0.82307 0.0
C1440 C 0.95595 0.24074 0.84505 0.0
C1441 C 0.94181 0.20788 0.83837 0.0
C1442 C 0.95216 0.23808 0.86097 0.0
C1443 C 0.96387 0.24083 0.87323 0.0
C1444 C 0.97966 0.24639 0.86984 0.0
C1445 C 0.98336 0.24931 0.85385 0.0
C1446 C 0.97157 0.24657 0.84156 0.0
H1447 H 0.93821 0.19665 0.83184 0.0
H1448 H 0.95518 0.20858 0.84032 0.0
H1449 H 0.9363 0.20729 0.8502 0.0
H1450 H 0.94008 0.2339 0.86393 0.0
H1451 H 0.96052 0.23852 0.88538 0.0
H1452 H 0.48773 0.92992 0.46407 0.0
H1453 H 0.49311 0.90764 0.44645 0.0
H1454 H 0.50244 0.87803 0.48746 0.0
H1455 H 0.49708 0.90017 0.50512 0.0
H1456 H 0.52494 0.87523 0.46374 0.0
H1457 H 0.46156 0.86893 0.43887 0.0
H1458 H 0.47147 0.88829 0.43693 0.0
H1459 H 0.46712 0.88078 0.45639 0.0
C1460 C 0.49089 0.91864 0.46932 0.0
C1461 C 0.49189 0.91678 0.486 0.0
C1462 C 0.49396 0.90594 0.45924 0.0
C1463 C 0.49795 0.89113 0.46566 0.0
C1464 C 0.49938 0.88937 0.48227 0.0
H1465 H 0.48905 0.79526 0.43502 0.0
H1466 H 0.48664 0.82221 0.44513 0.0
C1467 C 0.49637 0.90205 0.49235 0.0
C1468 C 0.50024 0.87724 0.4552 0.0
H1469 H 0.47992 0.85082 0.42968 0.0
C1470 C 0.51517 0.86997 0.45614 0.0
C1471 C 0.48741 0.87039 0.4454 0.0
C1472 C 0.47093 0.87738 0.44436 0.0
C1473 C 0.5175 0.85574 0.44789 0.0
C1474 C 0.50459 0.84876 0.43828 0.0
C1475 C 0.48982 0.8563 0.43696 0.0
C1476 C 0.50556 0.83276 0.43099 0.0
C1477 C 0.53345 0.84789 0.45016 0.0
C1478 C 0.51678 0.82982 0.41937 0.0
C1479 C 0.51825 0.81432 0.41355 0.0
C1480 C 0.50849 0.80155 0.41924 0.0
C1481 C 0.49686 0.80474 0.43043 0.0
C1482 C 0.49542 0.82017 0.43621 0.0
H1483 H 0.54107 0.85333 0.46014 0.0
H1484 H 0.53147 0.83494 0.45254 0.0
H1485 H 0.54026 0.84918 0.43909 0.0
H1486 H 0.52454 0.83944 0.41499 0.0
H1487 H 0.52727 0.81231 0.40488 0.0
H1488 H 0.15511 0.27095 0.76357 0.0
H1489 H 0.1339 0.26905 0.78293 0.0
H1490 H 0.12545 0.31901 0.77657 0.0
H1491 H 0.14677 0.32102 0.7572 0.0
H1492 H 0.12823 0.31112 0.80771 0.0
H1493 H 0.08517 0.2681 0.77647 0.0
H1494 H 0.10516 0.26074 0.77832 0.0
H1495 H 0.10161 0.27827 0.76657 0.0
C1496 C 0.14855 0.28147 0.76607 0.0
C1497 C 0.15257 0.29612 0.7588 0.0
C1498 C 0.13639 0.28036 0.77711 0.0
C1499 C 0.12787 0.29381 0.78097 0.0
C1500 C 0.13181 0.30845 0.77369 0.0
H1501 H 0.04607 0.28179 0.84416 0.0
H1502 H 0.06213 0.28965 0.8213 0.0
C1503 C 0.14403 0.3096 0.76269 0.0
C1504 C 0.11563 0.29277 0.79338 0.0
H1505 H 0.08214 0.27111 0.80471 0.0
C1506 C 0.11801 0.30253 0.80695 0.0
C1507 C 0.10213 0.28178 0.79227 0.0
C1508 C 0.09825 0.27175 0.77754 0.0
C1509 C 0.10775 0.30101 0.8198 0.0
C1510 C 0.09497 0.2892 0.81918 0.0
C1511 C 0.09206 0.28002 0.80526 0.0
C1512 C 0.08522 0.28542 0.83322 0.0
C1513 C 0.11081 0.31199 0.83398 0.0
C1514 C 0.09287 0.28037 0.84743 0.0
C1515 C 0.08378 0.27593 0.86047 0.0
C1516 C 0.0668 0.27629 0.85952 0.0
C1517 C 0.05913 0.28144 0.84529 0.0
C1518 C 0.06827 0.28591 0.83222 0.0
H1519 H 0.11716 0.32335 0.83056 0.0
H1520 H 0.09933 0.31478 0.83954 0.0
H1521 H 0.11864 0.30611 0.84304 0.0
H1522 H 0.10589 0.27952 0.84835 0.0
H1523 H 0.09009 0.27194 0.8712 0.0
H1524 H 0.54792 0.59726 0.47491 0.0
H1525 H 0.54745 0.62215 0.45992 0.0
H1526 H 0.49527 0.61933 0.45828 0.0
H1527 H 0.49558 0.59403 0.47276 0.0
H1528 H 0.5084 0.62869 0.42927 0.0
H1529 H 0.53588 0.66433 0.48008 0.0
H1530 H 0.54762 0.64791 0.4745 0.0
H1531 H 0.52792 0.6441 0.48232 0.0
C1532 C 0.53632 0.60177 0.47115 0.0
C1533 C 0.52178 0.59368 0.47512 0.0
C1534 C 0.53609 0.6161 0.46274 0.0
C1535 C 0.52133 0.62271 0.45827 0.0
C1536 C 0.50679 0.61446 0.46175 0.0
H1537 H 0.51206 0.72186 0.43275 0.0
H1538 H 0.50902 0.69538 0.44447 0.0
C1539 C 0.507 0.60009 0.47013 0.0
C1540 C 0.52112 0.63841 0.45027 0.0
H1541 H 0.53349 0.67752 0.45516 0.0
C1542 C 0.51382 0.6394 0.43492 0.0
C1543 C 0.52797 0.65238 0.45781 0.0
C1544 C 0.53515 0.65222 0.47464 0.0
C1545 C 0.5135 0.65399 0.42675 0.0
C1546 C 0.52091 0.66783 0.43406 0.0
C1547 C 0.52793 0.66686 0.44953 0.0
C1548 C 0.52151 0.68354 0.42602 0.0
C1549 C 0.50504 0.65448 0.41049 0.0
C1550 C 0.52947 0.68567 0.41168 0.0
C1551 C 0.5311 0.70082 0.40485 0.0
C1552 C 0.52493 0.71412 0.41232 0.0
C1553 C 0.51681 0.71188 0.42658 0.0
C1554 C 0.51511 0.69675 0.43334 0.0
H1555 H 0.49626 0.64416 0.40856 0.0
H1556 H 0.49852 0.66566 0.40884 0.0
H1557 H 0.51416 0.65399 0.40121 0.0
H1558 H 0.53483 0.67572 0.40601 0.0
H1559 H 0.53752 0.70216 0.39391 0.0
H1560 H 0.88341 0.77189 0.75288 0.0
H1561 H 0.90526 0.77206 0.7341 0.0
H1562 H 0.87134 0.78266 0.69559 0.0
H1563 H 0.84942 0.78231 0.71418 0.0
H1564 H 0.90705 0.75245 0.70719 0.0
H1565 H 0.90834 0.81628 0.69017 0.0
H1566 H 0.89851 0.80882 0.70765 0.0
H1567 H 0.88857 0.80654 0.68825 0.0
C1568 C 0.88059 0.77422 0.7404 0.0
C1569 C 0.86465 0.77712 0.73505 0.0
C1570 C 0.89311 0.77441 0.72972 0.0
C1571 C 0.88997 0.77764 0.71351 0.0
C1572 C 0.87411 0.78054 0.70812 0.0
H1573 H 0.93664 0.77418 0.62493 0.0
H1574 H 0.91935 0.77843 0.64723 0.0
C1575 C 0.86158 0.78033 0.71877 0.0
C1576 C 0.90307 0.7771 0.70204 0.0
H1577 H 0.92243 0.79889 0.67363 0.0
C1578 C 0.91059 0.76264 0.69999 0.0
C1579 C 0.90762 0.79043 0.69268 0.0
C1580 C 0.90046 0.80645 0.69487 0.0
C1581 C 0.92207 0.76096 0.68833 0.0
C1582 C 0.92636 0.77419 0.6787 0.0
C1583 C 0.91913 0.78877 0.68104 0.0
C1584 C 0.93749 0.77282 0.66542 0.0
C1585 C 0.92897 0.74483 0.68596 0.0
C1586 C 0.95359 0.76869 0.66827 0.0
C1587 C 0.96354 0.76618 0.6555 0.0
C1588 C 0.95755 0.76786 0.63968 0.0
C1589 C 0.94163 0.7727 0.63694 0.0
C1590 C 0.93172 0.77516 0.64969 0.0
H1591 H 0.92185 0.73518 0.69191 0.0
H1592 H 0.92933 0.74191 0.67307 0.0
H1593 H 0.94154 0.74502 0.69112 0.0
H1594 H 0.95838 0.76714 0.68035 0.0
H1595 H 0.97577 0.76258 0.65803 0.0
H1596 H 0.01824 0.89627 0.50132 0.0
H1597 H 0.01487 0.8731 0.51861 0.0
H1598 H 0.03221 0.90146 0.55926 0.0
H1599 H 0.03557 0.92482 0.542 0.0
H1600 H 0.04658 0.87254 0.55778 0.0
H1601 H 0.98002 0.8637 0.55058 0.0
H1602 H 0.98953 0.86481 0.53178 0.0
H1603 H 0.99069 0.88191 0.54482 0.0
C1604 C 0.0211 0.89767 0.51398 0.0
C1605 C 0.02705 0.91243 0.5203 0.0
C1606 C 0.01915 0.8844 0.52385 0.0
C1607 C 0.02298 0.88563 0.54027 0.0
C1608 C 0.02908 0.90029 0.54663 0.0
H1609 H 0.99731 0.8026 0.59935 0.0
H1610 H 0.00058 0.83037 0.59061 0.0
C1611 C 0.03106 0.91359 0.53674 0.0
C1612 C 0.02127 0.87136 0.55056 0.0
H1613 H 0.99441 0.84124 0.5604 0.0
C1614 C 0.03513 0.86581 0.55856 0.0
C1615 C 0.00627 0.86276 0.55184 0.0
C1616 C 0.99075 0.86869 0.54444 0.0
C1617 C 0.03457 0.8514 0.56703 0.0
C1618 C 0.01981 0.8422 0.56728 0.0
C1619 C 0.00577 0.84821 0.56006 0.0
C1620 C 0.01891 0.82577 0.57379 0.0
C1621 C 0.04983 0.84608 0.57548 0.0
C1622 C 0.02816 0.814 0.56726 0.0
C1623 C 0.02635 0.79818 0.57221 0.0
C1624 C 0.01512 0.79372 0.58372 0.0
C1625 C 0.00609 0.8056 0.59049 0.0
C1626 C 0.00792 0.82148 0.58551 0.0
H1627 H 0.0582 0.85643 0.57873 0.0
H1628 H 0.0471 0.83929 0.58647 0.0
H1629 H 0.0562 0.83825 0.56739 0.0
H1630 H 0.03643 0.81695 0.55793 0.0
H1631 H 0.03349 0.78938 0.56668 0.0
H1632 H 0.13522 0.70072 0.72745 0.0
H1633 H 0.11288 0.70314 0.70762 0.0
H1634 H 0.12819 0.75223 0.69962 0.0
H1635 H 0.15026 0.74996 0.7197 0.0
H1636 H 0.09616 0.74919 0.70199 0.0
H1637 H 0.11555 0.7035 0.65994 0.0
H1638 H 0.1126 0.69588 0.67962 0.0
H1639 H 0.12838 0.71091 0.67649 0.0
C1640 C 0.13387 0.71198 0.72135 0.0
C1641 C 0.14449 0.72514 0.72506 0.0
C1642 C 0.12114 0.71334 0.71 0.0
C1643 C 0.11902 0.72779 0.70192 0.0
C1644 C 0.1296 0.74095 0.70568 0.0
H1645 H 0.06346 0.74094 0.61398 0.0
H1646 H 0.08424 0.73809 0.63513 0.0
C1647 C 0.14219 0.73966 0.71716 0.0
C1648 C 0.10566 0.72935 0.68971 0.0
H1649 H 0.0897 0.7138 0.65454 0.0
C1650 C 0.09476 0.74147 0.69159 0.0
C1651 C 0.10396 0.7194 0.67605 0.0
C1652 C 0.11583 0.7068 0.67279 0.0
C1653 C 0.08221 0.74394 0.68019 0.0
C1654 C 0.08023 0.7337 0.66676 0.0
C1655 C 0.09113 0.72156 0.6649 0.0
C1656 C 0.06739 0.73573 0.65411 0.0
C1657 C 0.07154 0.7578 0.68243 0.0
C1658 C 0.05096 0.73528 0.6577 0.0
C1659 C 0.03901 0.73712 0.64562 0.0
C1660 C 0.04327 0.73912 0.62967 0.0
C1661 C 0.05973 0.73937 0.62611 0.0
C1662 C 0.07164 0.73773 0.6382 0.0
H1663 H 0.0774 0.76694 0.69066 0.0
H1664 H 0.06851 0.76359 0.67087 0.0
H1665 H 0.0601 0.75341 0.68769 0.0
H1666 H 0.04735 0.73334 0.66982 0.0
H1667 H 0.02644 0.73671 0.64875 0.0
H1668 H 0.00244 0.58605 0.51782 0.0
H1669 H 0.00826 0.61079 0.53294 0.0
H1670 H 0.95714 0.61828 0.53406 0.0
H1671 H 0.95125 0.59403 0.51841 0.0
H1672 H 0.97454 0.64498 0.52542 0.0
H1673 H 0.00235 0.61887 0.58022 0.0
H1674 H 0.01165 0.61371 0.56208 0.0
H1675 H 0.99113 0.60691 0.56525 0.0
C1676 C 0.99244 0.593 0.52123 0.0
C1677 C 0.97637 0.588 0.51696 0.0
C1678 C 0.99578 0.60703 0.53004 0.0
C1679 C 0.98311 0.61623 0.53485 0.0
C1680 C 0.96709 0.61129 0.53058 0.0
H1681 H 0.98012 0.69207 0.60376 0.0
H1682 H 0.97922 0.66665 0.58939 0.0
C1683 C 0.96375 0.59734 0.52174 0.0
C1684 C 0.98643 0.63137 0.5438 0.0
H1685 H 0.00281 0.64709 0.57877 0.0
C1686 C 0.98076 0.64546 0.53707 0.0
C1687 C 0.99441 0.63191 0.55905 0.0
C1688 C 1.00012 0.61704 0.56718 0.0
C1689 C 0.98273 0.66007 0.54521 0.0
C1690 C 0.99095 0.66068 0.56035 0.0
C1691 C 0.99668 0.64661 0.56708 0.0
C1692 C 0.99293 0.6757 0.56969 0.0
C1693 C 0.97552 0.67462 0.53773 0.0
C1694 C 0.00136 0.6891 0.56361 0.0
C1695 C 0.00179 0.70368 0.57173 0.0
C1696 C 0.99397 0.70507 0.58618 0.0
C1697 C 0.98623 0.69142 0.59263 0.0
C1698 C 0.98572 0.67687 0.58445 0.0
H1699 H 0.96631 0.67136 0.52811 0.0
H1700 H 0.96978 0.68189 0.5468 0.0
H1701 H 0.98526 0.68212 0.53239 0.0
H1702 H 0.00729 0.68837 0.55239 0.0
H1703 H 0.00789 0.71392 0.56644 0.0
H1704 H 0.77631 0.87814 0.25137 0.0
H1705 H 0.79675 0.90015 0.25325 0.0
H1706 H 0.7907 0.90799 0.20258 0.0
H1707 H 0.77058 0.88565 0.2006 0.0
H1708 H 0.82155 0.90832 0.21111 0.0
H1709 H 0.79147 0.94725 0.25278 0.0
H1710 H 0.794 0.92775 0.26093 0.0
H1711 H 0.78114 0.93011 0.24331 0.0
C1712 C 0.77922 0.88469 0.24068 0.0
C1713 C 0.77183 0.88024 0.22585 0.0
C1714 C 0.79084 0.89733 0.24177 0.0
C1715 C 0.79503 0.90598 0.22811 0.0
C1716 C 0.78761 0.90155 0.21329 0.0
H1717 H 0.85527 0.9946 0.233 0.0
H1718 H 0.83261 0.97489 0.22959 0.0
C1719 C 0.77615 0.88878 0.21216 0.0
C1720 C 0.80777 0.91907 0.22914 0.0
H1721 H 0.81969 0.95333 0.24926 0.0
C1722 C 0.82105 0.91824 0.21935 0.0
C1723 C 0.80702 0.93218 0.23968 0.0
C1724 C 0.79255 0.93449 0.24964 0.0
C1725 C 0.83379 0.92988 0.22012 0.0
C1726 C 0.83352 0.94245 0.23137 0.0
C1727 C 0.82002 0.94357 0.24082 0.0
C1728 C 0.84721 0.95443 0.23364 0.0
C1729 C 0.84728 0.92867 0.2087 0.0
C1730 C 0.8629 0.94953 0.23737 0.0
C1731 C 0.87587 0.96072 0.23914 0.0
C1732 C 0.8734 0.97712 0.23753 0.0
C1733 C 0.85759 0.98206 0.2343 0.0
C1734 C 0.84463 0.97081 0.23234 0.0
H1735 H 0.84318 0.92182 0.1978 0.0
H1736 H 0.85203 0.94065 0.20505 0.0
H1737 H 0.85733 0.92229 0.21459 0.0
H1738 H 0.86512 0.937 0.23894 0.0
H1739 H 0.88784 0.95651 0.24185 0.0
H1740 H 0.75989 0.14111 0.28859 0.0
H1741 H 0.78108 0.12183 0.28723 0.0
H1742 H 0.78339 0.1297 0.2366 0.0
H1743 H 0.76229 0.14907 0.23785 0.0
H1744 H 0.78373 0.09716 0.2455 0.0
H1745 H 0.829 0.13481 0.28121 0.0
H1746 H 0.81013 0.13064 0.29053 0.0
H1747 H 0.81055 0.14251 0.27274 0.0
C1748 C 0.76495 0.13879 0.27717 0.0
C1749 C 0.75949 0.14674 0.26335 0.0
C1750 C 0.77704 0.12776 0.27642 0.0
C1751 C 0.78396 0.12452 0.26186 0.0
C1752 C 0.77821 0.13205 0.24796 0.0
H1753 H 0.87477 0.08603 0.24103 0.0
H1754 H 0.85145 0.10201 0.24519 0.0
C1755 C 0.76611 0.14307 0.24869 0.0
C1756 C 0.79747 0.11358 0.26112 0.0
H1757 H 0.83684 0.10931 0.27359 0.0
C1758 C 0.79533 0.09975 0.25169 0.0
C1759 C 0.81263 0.1171 0.2691 0.0
C1760 C 0.81584 0.13213 0.27887 0.0
C1761 C 0.80797 0.08937 0.24996 0.0
C1762 C 0.82308 0.09283 0.25804 0.0
C1763 C 0.82519 0.10661 0.26754 0.0
C1764 C 0.83722 0.08293 0.25593 0.0
C1765 C 0.80523 0.07505 0.23911 0.0
C1766 C 0.83707 0.06693 0.2608 0.0
C1767 C 0.85044 0.0577 0.25842 0.0
C1768 C 0.8642 0.06437 0.25118 0.0
C1769 C 0.86437 0.08049 0.2466 0.0
C1770 C 0.85105 0.08967 0.24899 0.0
H1771 H 0.79413 0.07589 0.23129 0.0
H1772 H 0.81573 0.07372 0.23149 0.0
H1773 H 0.80385 0.06413 0.24645 0.0
H1774 H 0.82662 0.06158 0.26643 0.0
H1775 H 0.84994 0.04534 0.26214 0.0
H1776 H 0.40433 0.94987 0.95954 0.0
H1777 H 0.38001 0.93376 0.96554 0.0
H1778 H 0.35788 0.97559 0.98272 0.0
H1779 H 0.38194 0.99198 0.97628 0.0
H1780 H 0.35785 0.94752 0.00395 0.0
H1781 H 0.33384 0.93402 0.94231 0.0
H1782 H 0.35507 0.93108 0.94591 0.0
H1783 H 0.34771 0.95082 0.94701 0.0
C1784 C 0.39419 0.95575 0.96429 0.0
C1785 C 0.39513 0.97226 0.96739 0.0
C1786 C 0.38033 0.94649 0.96776 0.0
C1787 C 0.36714 0.95353 0.97444 0.0
C1788 C 0.36795 0.96997 0.97753 0.0
H1789 H 0.27492 0.90099 0.99056 0.0
H1790 H 0.29469 0.92263 0.98449 0.0
C1791 C 0.38176 0.97928 0.97394 0.0
C1792 C 0.35284 0.94352 0.97884 0.0
H1793 H 0.32238 0.91864 0.96321 0.0
C1794 C 0.34996 0.94134 0.99506 0.0
C1795 C 0.34252 0.93563 0.96719 0.0
C1796 C 0.34479 0.93806 0.94961 0.0
C1797 C 0.33742 0.93088 -4e-05 0.0
C1798 C 0.32758 0.92242 0.98832 0.0
C1799 C 0.33001 0.92513 0.97209 0.0
C1800 C 0.3155 0.90985 0.99277 0.0
C1801 C 0.33492 0.92871 0.01754 0.0
C1802 C 0.32072 0.89556 0.99939 0.0
C1803 C 0.30954 0.88318 0.00274 0.0
C1804 C 0.29288 0.88487 0.99958 0.0
C1805 C 0.28765 0.89934 0.9932 0.0
C1806 C 0.29891 0.91169 0.9897 0.0
H1807 H 0.34092 0.9386 0.02474 0.0
H1808 H 0.32181 0.92799 0.01994 0.0
H1809 H 0.34014 0.91738 0.02153 0.0
H1810 H 0.33351 0.89387 0.00168 0.0
H1811 H 0.314 0.87223 0.00768 0.0
H1812 H 0.24473 0.35138 0.24711 0.0
H1813 H 0.2262 0.37318 0.24659 0.0
H1814 H 0.22211 0.36943 0.29752 0.0
H1815 H 0.2414 0.34832 0.29833 0.0
H1816 H 0.19509 0.37482 0.25496 0.0
H1817 H 0.2347 0.41602 0.29296 0.0
H1818 H 0.24174 0.39779 0.28491 0.0
H1819 H 0.22965 0.3973 0.30224 0.0
C1820 C 0.24011 0.35533 0.25826 0.0
C1821 C 0.24477 0.34817 0.27279 0.0
C1822 C 0.22936 0.36769 0.2579 0.0
C1823 C 0.22298 0.37313 0.27204 0.0
C1824 C 0.22715 0.36568 0.2865 0.0
H1825 H 0.16268 0.4553 0.28494 0.0
H1826 H 0.17398 0.42899 0.28896 0.0
C1827 C 0.23804 0.35343 0.28689 0.0
C1828 C 0.21217 0.38677 0.27159 0.0
H1829 H 0.209 0.4249 0.28502 0.0
C1830 C 0.19809 0.38574 0.2616 0.0
C1831 C 0.21609 0.40102 0.28027 0.0
C1832 C 0.23143 0.40321 0.29059 0.0
C1833 C 0.18799 0.39866 0.25987 0.0
C1834 C 0.19209 0.41295 0.26832 0.0
C1835 C 0.20584 0.41384 0.27868 0.0
C1836 C 0.18333 0.42769 0.26534 0.0
C1837 C 0.17312 0.39706 0.24886 0.0
C1838 C 0.18472 0.43551 0.25068 0.0
C1839 C 0.17848 0.45053 0.24842 0.0
C1840 C 0.17063 0.458 0.26075 0.0
C1841 C 0.16858 0.44981 0.27519 0.0
C1842 C 0.17504 0.43482 0.27752 0.0
H1843 H 0.16951 0.38436 0.24631 0.0
H1844 H 0.16281 0.40294 0.25408 0.0
H1845 H 0.17569 0.40302 0.23739 0.0
H1846 H 0.19126 0.43028 0.24122 0.0
H1847 H 0.18021 0.4565 0.23714 0.0
H1848 H 0.1191 0.02796 0.5161 0.0
H1849 H 0.1425 0.04678 0.5193 0.0
H1850 H 0.15044 0.04335 0.46896 0.0
H1851 H 0.12682 0.02474 0.46564 0.0
H1852 H 0.17429 0.04446 0.51376 0.0
H1853 H 0.14811 0.09088 0.4748 0.0
H1854 H 0.13631 0.0737 0.48135 0.0
H1855 H 0.14954 0.07199 0.46503 0.0
C1856 C 0.12589 0.03115 0.50573 0.0
C1857 C 0.12107 0.02498 0.4906 0.0
C1858 C 0.13924 0.04192 0.50757 0.0
C1859 C 0.14806 0.04669 0.49433 0.0
C1860 C 0.14357 0.04016 0.47928 0.0
H1861 H 0.24127 0.10145 0.503 0.0
H1862 H 0.22052 0.07987 0.49888 0.0
C1863 C 0.13011 0.02951 0.4774 0.0
C1864 C 0.16177 0.05869 0.49633 0.0
H1865 H 0.1752 0.09564 0.4843 0.0
C1866 C 0.17452 0.05565 0.50732 0.0
C1867 C 0.16194 0.07337 0.48804 0.0
C1868 C 0.14818 0.07779 0.47676 0.0
C1869 C 0.1874 0.06692 0.51032 0.0
C1870 C 0.1877 0.08148 0.50182 0.0
C1871 C 0.17501 0.08443 0.49073 0.0
C1872 C 0.20054 0.09423 0.50477 0.0
C1873 C 0.20024 0.06335 0.52294 0.0
C1874 C 0.19621 0.10954 0.50919 0.0
C1875 C 0.20796 0.12191 0.5113 0.0
C1876 C 0.22437 0.11926 0.50911 0.0
C1877 C 0.22876 0.10386 0.5049 0.0
C1878 C 0.21692 0.09149 0.50262 0.0
H1879 H 0.19604 0.05377 0.53113 0.0
H1880 H 0.21108 0.05925 0.5171 0.0
H1881 H 0.20388 0.07416 0.53011 0.0
H1882 H 0.18366 0.11194 0.51093 0.0
H1883 H 0.20414 0.13359 0.51461 0.0
H1884 H 0.74774 0.16114 0.75621 0.0
H1885 H 0.73011 0.13753 0.76089 0.0
H1886 H 0.72543 0.1286 0.71023 0.0
H1887 H 0.74303 0.15221 0.70545 0.0
H1888 H 0.69613 0.12503 0.72525 0.0
H1889 H 0.74401 0.0917 0.757 0.0
H1890 H 0.74099 0.11093 0.76547 0.0
H1891 H 0.74844 0.10954 0.74572 0.0
C1892 C 0.74303 0.15409 0.74607 0.0
C1893 C 0.74687 0.15847 0.73047 0.0
C1894 C 0.73296 0.14062 0.74876 0.0
C1895 C 0.72668 0.13119 0.73592 0.0
C1896 C 0.73018 0.13571 0.72031 0.0
H1897 H 0.68888 0.03385 0.74332 0.0
H1898 H 0.70356 0.05849 0.73618 0.0
C1899 C 0.7402 0.14922 0.7176 0.0
C1900 C 0.71663 0.11647 0.73876 0.0
H1901 H 0.71729 0.08026 0.75713 0.0
C1902 C 0.70074 0.11521 0.73218 0.0
C1903 C 0.72277 0.1036 0.74762 0.0
C1904 C 0.74003 0.10389 0.75424 0.0
C1905 C 0.69073 0.10148 0.73442 0.0
C1906 C 0.69673 0.08881 0.74369 0.0
C1907 C 0.71268 0.09003 0.75011 0.0
C1908 C 0.68684 0.07404 0.74678 0.0
C1909 C 0.67397 0.10053 0.72659 0.0
C1910 C 0.67244 0.07458 0.75498 0.0
C1911 C 0.66389 0.06046 0.75896 0.0
C1912 C 0.66969 0.04556 0.75493 0.0
C1913 C 0.68397 0.0451 0.74648 0.0
C1914 C 0.69244 0.05919 0.74245 0.0
H1915 H 0.67285 0.10909 0.71656 0.0
H1916 H 0.67077 0.08831 0.72201 0.0
H1917 H 0.66506 0.10352 0.73551 0.0
H1918 H 0.66807 0.08589 0.75874 0.0
H1919 H 0.653 0.06123 0.76557 0.0
H1920 H 0.41371 0.02369 0.51217 0.0
H1921 H 0.38968 0.03887 0.50618 0.0
H1922 H 0.37822 0.03762 0.55579 0.0
H1923 H 0.40191 0.02198 0.56188 0.0
H1924 H 0.35415 0.02981 0.51594 0.0
H1925 H 0.38285 0.08678 0.53991 0.0
H1926 H 0.39459 0.07074 0.53296 0.0
H1927 H 0.38513 0.06907 0.55175 0.0
C1928 C 0.40597 0.02641 0.52179 0.0
C1929 C 0.4098 0.02163 0.53753 0.0
C1930 C 0.39229 0.03514 0.51834 0.0
C1931 C 0.38229 0.03937 0.53056 0.0
C1932 C 0.38591 0.03451 0.54623 0.0
H1933 H 0.28981 0.08243 0.53313 0.0
H1934 H 0.31195 0.0641 0.53467 0.0
C1935 C 0.39951 0.02569 0.54969 0.0
C1936 C 0.3683 0.04928 0.52704 0.0
H1937 H 0.35527 0.08691 0.53163 0.0
C1938 C 0.35435 0.0423 0.51931 0.0
C1939 C 0.36874 0.06557 0.53136 0.0
C1940 C 0.38363 0.07361 0.53938 0.0
C1941 C 0.34064 0.05121 0.51604 0.0
C1942 C 0.34098 0.06743 0.52067 0.0
C1943 C 0.35506 0.07445 0.52813 0.0
C1944 C 0.32679 0.07737 0.51821 0.0
C1945 C 0.32595 0.04329 0.50759 0.0
C1946 C 0.32775 0.0908 0.50832 0.0
C1947 C 0.31512 0.10129 0.50738 0.0
C1948 C 0.30138 0.09862 0.5165 0.0
C1949 C 0.30022 0.08483 0.52596 0.0
C1950 C 0.31282 0.0743 0.52681 0.0
H1951 H 0.3288 0.03189 0.50183 0.0
H1952 H 0.31653 0.04067 0.51637 0.0
H1953 H 0.3208 0.05131 0.49838 0.0
H1954 H 0.33847 0.09339 0.50163 0.0
H1955 H 0.31642 0.11179 0.49998 0.0
H1956 H 0.61862 0.4946 0.49671 0.0
H1957 H 0.64066 0.47653 0.4936 0.0
H1958 H 0.60798 0.43623 0.50218 0.0
H1959 H 0.58579 0.45417 0.50499 0.0
H1960 H 0.65242 0.4544 0.51647 0.0
H1961 H 0.62949 0.42441 0.46044 0.0
H1962 H 0.6221 0.4431 0.4671 0.0
H1963 H 0.61505 0.42465 0.47583 0.0
C1964 C 0.61608 0.48187 0.49774 0.0
C1965 C 0.60044 0.4758 0.50102 0.0
C1966 C 0.6287 0.47159 0.49604 0.0
C1967 C 0.62588 0.45505 0.49743 0.0
C1968 C 0.61033 0.44895 0.50079 0.0
H1969 H 0.67879 0.37018 0.49972 0.0
H1970 H 0.65899 0.39078 0.49819 0.0
C1971 C 0.59771 0.45922 0.50256 0.0
C1972 C 0.63932 0.44419 0.49593 0.0
H1973 H 0.65138 0.41255 0.47456 0.0
C1974 C 0.65232 0.44535 0.50722 0.0
C1975 C 0.63911 0.43244 0.48382 0.0
C1976 C 0.62577 0.43111 0.471 0.0
C1977 C 0.66483 0.43462 0.50713 0.0
C1978 C 0.66445 0.42264 0.4952 0.0
C1979 C 0.65164 0.42175 0.48368 0.0
C1980 C 0.67664 0.41025 0.49513 0.0
C1981 C 0.67795 0.43577 0.52019 0.0
C1982 C 0.69314 0.41431 0.49353 0.0
C1983 C 0.70457 0.40253 0.49447 0.0
C1984 C 0.69964 0.38648 0.49691 0.0
C1985 C 0.68303 0.38243 0.4979 0.0
C1986 C 0.67167 0.39419 0.49701 0.0
H1987 H 0.67453 0.44328 0.53032 0.0
H1988 H 0.6807 0.42376 0.52479 0.0
H1989 H 0.68915 0.44124 0.51532 0.0
H1990 H 0.6972 0.42661 0.49174 0.0
H1991 H 0.71725 0.40603 0.49356 0.0
H1992 H 0.75188 0.26211 0.3455 0.0
H1993 H 0.75438 0.27956 0.36883 0.0
H1994 H 0.7025 0.28262 0.36816 0.0
H1995 H 0.69978 0.26434 0.34544 0.0
H1996 H 0.74595 0.30971 0.37404 0.0
H1997 H 0.71169 0.26818 0.41316 0.0
H1998 H 0.71808 0.26229 0.39383 0.0
H1999 H 0.70047 0.27386 0.39548 0.0
C2000 C 0.74096 0.2663 0.35042 0.0
C2001 C 0.72561 0.26158 0.34369 0.0
C2002 C 0.74243 0.27643 0.36367 0.0
C2003 C 0.72861 0.28215 0.37044 0.0
C2004 C 0.71331 0.27804 0.36337 0.0
H2005 H 0.72322 0.33996 0.45728 0.0
H2006 H 0.71698 0.32882 0.43054 0.0
C2007 C 0.71181 0.26775 0.35022 0.0
C2008 C 0.73033 0.29211 0.3851 0.0
H2009 H 0.72045 0.29313 0.4242 0.0
C2010 C 0.7403 0.30612 0.38498 0.0
C2011 C 0.72297 0.28739 0.3994 0.0
C2012 C 0.71283 0.27204 0.40058 0.0
C2013 C 0.74331 0.3154 0.39882 0.0
C2014 C 0.73613 0.31054 0.41308 0.0
C2015 C 0.7258 0.29684 0.41314 0.0
C2016 C 0.74032 0.31867 0.42843 0.0
C2017 C 0.75431 0.33021 0.39822 0.0
C2018 C 0.75551 0.31665 0.43597 0.0
C2019 C 0.75905 0.3228 0.45124 0.0
C2020 C 0.74746 0.33117 0.45924 0.0
C2021 C 0.73242 0.33363 0.45141 0.0
C2022 C 0.72882 0.32728 0.43617 0.0
H2023 H 0.75638 0.33403 0.38577 0.0
H2024 H 0.74914 0.34015 0.40477 0.0
H2025 H 0.76619 0.32777 0.40412 0.0
H2026 H 0.76447 0.30989 0.43021 0.0
H2027 H 0.77077 0.32076 0.4569 0.0
H2028 H 0.5161 0.98728 0.90234 0.0
H2029 H 0.53369 0.98128 0.88061 0.0
H2030 H 0.54509 0.03153 0.87465 0.0
H2031 H 0.52702 0.03767 0.89583 0.0
H2032 H 0.5397 0.01583 0.84599 0.0
H2033 H 0.58286 0.9838 0.88552 0.0
H2034 H 0.56228 0.97597 0.88525 0.0
H2035 H 0.56725 0.99556 0.89323 0.0
C2036 C 0.52217 0.99707 0.89626 0.0
C2037 C 0.52027 0.01296 0.90096 0.0
C2038 C 0.53236 0.9936 0.88395 0.0
C2039 C 0.54094 0.00594 0.87621 0.0
C2040 C 0.53868 0.02181 0.88054 0.0
H2041 H 0.62883 0.01183 0.82812 0.0
H2042 H 0.60656 0.0109 0.84618 0.0
C2043 C 0.52846 0.02529 0.89276 0.0
C2044 C 0.55262 0.00248 0.86387 0.0
H2045 H 0.58877 0.98571 0.8584 0.0
C2046 C 0.55036 0.00912 0.84863 0.0
C2047 C 0.56658 0.99382 0.86741 0.0
C2048 C 0.57003 0.98697 0.88376 0.0
C2049 C 0.5619 0.00771 0.83697 0.0
C2050 C 0.57593 0.99916 0.84056 0.0
C2051 C 0.57795 0.99214 0.85565 0.0
C2052 C 0.58945 0.99881 0.82952 0.0
C2053 C 0.55936 0.01604 0.8212 0.0
C2054 C 0.58733 0.99206 0.8142 0.0
C2055 C 0.6001 0.99265 0.80373 0.0
C2056 C 0.61521 -9e-05 0.80849 0.0
C2057 C 0.61737 0.0062 0.82402 0.0
C2058 C 0.60464 0.00565 0.8344 0.0
H2059 H 0.54963 0.0247 0.82154 0.0
H2060 H 0.57069 0.02248 0.81771 0.0
H2061 H 0.55585 0.00705 0.81182 0.0
H2062 H 0.57579 0.98645 0.81029 0.0
H2063 H 0.59808 0.98762 0.79188 0.0
H2064 H 0.25558 0.22556 0.34553 0.0
H2065 H 0.25454 0.20851 0.369 0.0
H2066 H 0.30669 0.20909 0.37225 0.0
H2067 H 0.3079 0.22706 0.34946 0.0
H2068 H 0.26492 0.17953 0.37658 0.0
H2069 H 0.29716 0.22528 0.41569 0.0
H2070 H 0.29014 0.22958 0.39561 0.0
H2071 H 0.30854 0.21932 0.39916 0.0
C2072 C 0.26686 0.22222 0.3513 0.0
C2073 C 0.28182 0.22799 0.34573 0.0
C2074 C 0.26623 0.2123 0.36463 0.0
C2075 C 0.28054 0.20782 0.37262 0.0
C2076 C 0.2955 0.21274 0.36653 0.0
H2077 H 0.2908 0.15615 0.46311 0.0
H2078 H 0.29557 0.16507 0.4358 0.0
C2079 C 0.29615 0.22284 0.35332 0.0
C2080 C 0.27969 0.19863 0.38768 0.0
H2081 H 0.29013 0.20062 0.4275 0.0
C2082 C 0.27052 0.1841 0.38769 0.0
C2083 C 0.28693 0.20465 0.40222 0.0
C2084 C 0.29611 0.22062 0.40326 0.0
C2085 C 0.26822 0.17557 0.40186 0.0
C2086 C 0.27532 0.18169 0.41632 0.0
C2087 C 0.28485 0.19593 0.41629 0.0
C2088 C 0.27182 0.17437 0.43186 0.0
C2089 C 0.25801 0.16021 0.40142 0.0
C2090 C 0.25685 0.17656 0.43853 0.0
C2091 C 0.25415 0.17169 0.45413 0.0
C2092 C 0.26637 0.16445 0.46331 0.0
C2093 C 0.28113 0.16163 0.45632 0.0
C2094 C 0.28389 0.16672 0.44075 0.0
H2095 H 0.25564 0.15567 0.38906 0.0
H2096 H 0.26403 0.15093 0.40864 0.0
H2097 H 0.24622 0.16225 0.40672 0.0
H2098 H 0.24747 0.1826 0.43186 0.0
H2099 H 0.24263 0.17397 0.45913 0.0
H2100 H 0.49389 0.47532 0.90282 0.0
H2101 H 0.47613 0.47821 0.87906 0.0
H2102 H 0.47679 0.52904 0.88661 0.0
H2103 H 0.49448 0.52628 0.91059 0.0
H2104 H 0.44356 0.50904 0.87757 0.0
H2105 H 0.49542 0.50348 0.8381 0.0
H2106 H 0.49377 0.48964 0.85439 0.0
H2107 H 0.49807 0.51042 0.85848 0.0
C2108 C 0.49004 0.48709 0.89962 0.0
C2109 C 0.49563 0.50058 0.90858 0.0
C2110 C 0.47995 0.48871 0.88601 0.0
C2111 C 0.47521 0.50382 0.88114 0.0
C2112 C 0.48033 0.51728 0.89025 0.0
H2113 H 0.41673 0.53115 0.79672 0.0
H2114 H 0.42892 0.53053 0.82386 0.0
C2115 C 0.49052 0.51569 0.90385 0.0
C2116 C 0.46579 0.50555 0.86593 0.0
H2117 H 0.46939 0.50369 0.82567 0.0
C2118 C 0.44915 0.50799 0.86618 0.0
C2119 C 0.4732 0.50417 0.85119 0.0
C2120 C 0.49112 0.50188 0.85038 0.0
C2121 C 0.43958 0.50856 0.85194 0.0
C2122 C 0.44698 0.50693 0.83716 0.0
C2123 C 0.46371 0.50485 0.837 0.0
C2124 C 0.43771 0.50677 0.82162 0.0
C2125 C 0.42161 0.51037 0.85283 0.0
C2126 C 0.43849 0.49361 0.8114 0.0
C2127 C 0.43175 0.49401 0.7959 0.0
C2128 C 0.42402 0.50759 0.79026 0.0
C2129 C 0.4225 0.52048 0.80075 0.0
C2130 C 0.42942 0.52012 0.81628 0.0
H2131 H 0.4173 0.5076 0.86493 0.0
H2132 H 0.41879 0.52287 0.85002 0.0
H2133 H 0.41478 0.50246 0.84403 0.0
H2134 H 0.44478 0.48317 0.81527 0.0
H2135 H 0.43301 0.48383 0.78818 0.0
H2136 H 0.76442 0.75488 0.15598 0.0
H2137 H 0.76765 0.73494 0.13521 0.0
H2138 H 0.71628 0.73371 0.12403 0.0
H2139 H 0.71293 0.7537 0.14478 0.0
H2140 H 0.72946 0.70323 0.12523 0.0
H2141 H 0.76458 0.74523 0.0874 0.0
H2142 H 0.7728 0.74356 0.10744 0.0
H2143 H 0.75333 0.75183 0.10394 0.0
C2144 C 0.75381 0.75043 0.14905 0.0
C2145 C 0.73844 0.756 0.15192 0.0
C2146 C 0.75568 0.73902 0.13721 0.0
C2147 C 0.74224 0.73305 0.12793 0.0
C2148 C 0.72681 0.73821 0.13106 0.0
H2149 H 0.74861 0.68675 0.0364 0.0
H2150 H 0.74123 0.70347 0.05848 0.0
C2151 C 0.72492 0.74959 0.14293 0.0
C2152 C 0.74436 0.72174 0.11469 0.0
H2153 H 0.76304 0.71807 0.0795 0.0
C2154 C 0.73675 0.70645 0.11519 0.0
C2155 C 0.75369 0.72609 0.10151 0.0
C2156 C 0.76146 0.74261 0.0999 0.0
C2157 C 0.73848 0.69527 0.10296 0.0
C2158 C 0.74824 0.69946 0.09005 0.0
C2159 C 0.75563 0.71484 0.08946 0.0
C2160 C 0.75101 0.68822 0.0769 0.0
C2161 C 0.72967 0.67917 0.10386 0.0
C2162 C 0.75875 0.67393 0.07992 0.0
C2163 C 0.76288 0.66424 0.06728 0.0
C2164 C 0.75948 0.66875 0.05139 0.0
C2165 C 0.75132 0.68284 0.04846 0.0
C2166 C 0.74714 0.69246 0.06108 0.0
H2167 H 0.71942 0.67938 0.11199 0.0
H2168 H 0.72493 0.67511 0.09188 0.0
H2169 H 0.73819 0.67031 0.10853 0.0
H2170 H 0.76215 0.67058 0.09201 0.0
H2171 H 0.76925 0.65352 0.06994 0.0
H2172 H 0.98687 0.9855 0.08956 0.0
H2173 H 0.97123 0.98549 0.11367 0.0
H2174 H 0.97464 0.03692 0.11459 0.0
H2175 H 0.99084 0.03704 0.091 0.0
H2176 H 0.98181 0.0242 0.14353 0.0
H2177 H 0.92422 0.99639 0.11803 0.0
H2178 H 0.94164 0.98487 0.11528 0.0
H2179 H 0.94022 0.00395 0.10575 0.0
C2180 C 0.98435 0.9968 0.09493 0.0
C2181 C 0.99005 0.01127 0.08827 0.0
C2182 C 0.97523 0.99678 0.1086 0.0
C2183 C 0.97153 0.01121 0.11577 0.0
C2184 C 0.97723 0.02564 0.10917 0.0
H2185 H 0.90278 0.03112 0.18714 0.0
H2186 H 0.91697 0.02739 0.16251 0.0
C2187 C 0.98639 0.02569 0.09559 0.0
C2188 C 0.9623 0.01141 0.13053 0.0
H2189 H 0.92593 0.00053 0.14606 0.0
C2190 C 0.9696 0.01901 0.14408 0.0
C2191 C 0.94629 0.00479 0.13116 0.0
C2192 C 0.93754 0.99717 0.11675 0.0
C2193 C 0.96136 0.0202 0.15827 0.0
C2194 C 0.94551 0.01325 0.15904 0.0
C2195 C 0.93816 0.00568 0.14548 0.0
C2196 C 0.93622 0.01423 0.1737 0.0
C2197 C 0.96957 0.02928 0.17215 0.0
C2198 C 0.94209 0.00768 0.18806 0.0
C2199 C 0.93408 0.00989 0.20216 0.0
C2200 C 0.91993 0.01852 0.20213 0.0
C2201 C 0.91367 0.02444 0.18759 0.0
C2202 C 0.92175 0.0223 0.17349 0.0
H2203 H 0.97977 0.03725 0.16831 0.0
H2204 H 0.96086 0.0366 0.17827 0.0
H2205 H 0.97453 0.02069 0.18089 0.0
H2206 H 0.95306 0.00113 0.18842 0.0
H2207 H 0.93924 0.00515 0.21312 0.0
H2208 H 0.2731 0.77861 0.16609 0.0
H2209 H 0.26645 0.79415 0.14226 0.0
H2210 H 0.31589 0.79292 0.12827 0.0
H2211 H 0.32265 0.77728 0.15204 0.0
H2212 H 0.30197 0.82335 0.12462 0.0
H2213 H 0.26306 0.77404 0.09723 0.0
H2214 H 0.25786 0.77956 0.11699 0.0
H2215 H 0.277 0.77102 0.11396 0.0
C2216 C 0.28255 0.78161 0.15792 0.0
C2217 C 0.29837 0.77659 0.16087 0.0
C2218 C 0.27874 0.7905 0.14434 0.0
C2219 C 0.29063 0.79446 0.13342 0.0
C2220 C 0.30654 0.78995 0.13657 0.0
H2221 H 0.27176 0.82148 0.03532 0.0
H2222 H 0.2821 0.80956 0.05997 0.0
C2223 C 0.31039 0.78106 0.15017 0.0
C2224 C 0.28633 0.80284 0.11845 0.0
H2225 H 0.26292 0.79898 0.0841 0.0
C2226 C 0.29346 0.81804 0.11572 0.0
C2227 C 0.2754 0.79576 0.1068 0.0
C2228 C 0.26798 0.77914 0.10876 0.0
C2229 C 0.28973 0.82649 0.1017 0.0
C2230 C 0.27844 0.81957 0.09027 0.0
C2231 C 0.2715 0.80428 0.09293 0.0
C2232 C 0.27365 0.82784 0.07535 0.0
C2233 C 0.29805 0.8426 0.09913 0.0
C2234 C 0.26561 0.84218 0.07582 0.0
C2235 C 0.25975 0.8491 0.0617 0.0
C2236 C 0.26175 0.84173 0.04689 0.0
C2237 C 0.27013 0.82755 0.04648 0.0
C2238 C 0.276 0.82068 0.06057 0.0
H2239 H 0.30922 0.84435 0.10687 0.0
H2240 H 0.30126 0.84411 0.08649 0.0
H2241 H 0.28973 0.85206 0.10207 0.0
H2242 H 0.26338 0.84774 0.08712 0.0
H2243 H 0.25327 0.85998 0.06243 0.0
H2244 H 0.01366 0.48286 0.1292 0.0
H2245 H 0.03096 0.48872 0.15319 0.0
H2246 H 0.0734 0.48576 0.12548 0.0
H2247 H 0.05627 0.48014 0.10149 0.0
H2248 H 0.05643 0.46927 0.1667 0.0
H2249 H 0.07922 0.52959 0.14885 0.0
H2250 H 0.06118 0.51986 0.13977 0.0
H2251 H 0.08082 0.5144 0.13396 0.0
C2252 C 0.02668 0.4836 0.12821 0.0
C2253 C 0.03361 0.48105 0.11345 0.0
C2254 C 0.03652 0.48687 0.14192 0.0
C2255 C 0.05342 0.48785 0.14104 0.0
C2256 C 0.06036 0.48525 0.12636 0.0
H2257 H 0.13965 0.50173 0.19931 0.0
H2258 H 0.11828 0.49811 0.1786 0.0
C2259 C 0.05057 0.4819 0.11269 0.0
C2260 C 0.06395 0.49126 0.15547 0.0
H2261 H 0.09323 0.51764 0.17077 0.0
C2262 C 0.06435 0.47993 0.16774 0.0
C2263 C 0.07421 0.50519 0.15675 0.0
C2264 C 0.07379 0.51805 0.14421 0.0
C2265 C 0.07533 0.4818 0.18093 0.0
C2266 C 0.08593 0.49553 0.18197 0.0
C2267 C 0.08513 0.5071 0.16993 0.0
C2268 C 0.09869 0.49768 0.19487 0.0
C2269 C 0.07599 0.46874 0.19324 0.0
C2270 C 0.09477 0.49878 0.21094 0.0
C2271 C 0.10703 0.50079 0.22291 0.0
C2272 C 0.12341 0.50188 0.21899 0.0
C2273 C 0.12721 0.50094 0.20283 0.0
C2274 C 0.11499 0.49889 0.19093 0.0
H2275 H 0.06958 0.45752 0.18891 0.0
H2276 H 0.08872 0.46617 0.19662 0.0
H2277 H 0.07011 0.47265 0.20413 0.0
H2278 H 0.08225 0.49819 0.21422 0.0
H2279 H 0.10365 0.50155 0.23521 0.0
H2280 H 0.37472 0.7526 0.27558 0.0
H2281 H 0.39864 0.75823 0.29304 0.0
H2282 H 0.40431 0.70777 0.2993 0.0
H2283 H 0.38094 0.70201 0.28114 0.0
H2284 H 0.40272 0.75111 0.32366 0.0
H2285 H 0.44991 0.72258 0.29035 0.0
H2286 H 0.43016 0.72617 0.28151 0.0
H2287 H 0.4331 0.70898 0.29394 0.0
C2288 C 0.38126 0.74267 0.28034 0.0
C2289 C 0.3759 0.72683 0.27687 0.0
C2290 C 0.39488 0.74593 0.29044 0.0
C2291 C 0.40344 0.73344 0.2973 0.0
C2292 C 0.39815 0.71762 0.29386 0.0
H2293 H 0.46067 0.73586 0.385 0.0
H2294 H 0.44001 0.73294 0.36353 0.0
C2295 C 0.38461 0.71434 0.28366 0.0
C2296 C 0.4172 0.73696 0.30888 0.0
H2297 H 0.45655 0.72868 0.31789 0.0
C2298 C 0.41453 0.74634 0.3223 0.0
C2299 C 0.43271 0.73097 0.30699 0.0
C2300 C 0.43671 0.72176 0.29233 0.0
C2301 C 0.42675 0.74943 0.33414 0.0
C2302 C 0.44193 0.7426 0.33275 0.0
C2303 C 0.44482 0.73372 0.31906 0.0
C2304 C 0.45475 0.74414 0.34562 0.0
C2305 C 0.42326 0.76004 0.348 0.0
C2306 C 0.47015 0.75088 0.34257 0.0
C2307 C 0.48213 0.75242 0.35484 0.0
C2308 C 0.47891 0.7472 0.37037 0.0
C2309 C 0.46354 0.74019 0.37326 0.0
C2310 C 0.45165 0.73858 0.361 0.0
H2311 H 0.41341 0.76816 0.34483 0.0
H2312 H 0.41927 0.75253 0.3581 0.0
H2313 H 0.43419 0.76736 0.35206 0.0
H2314 H 0.47283 0.75513 0.33075 0.0
H2315 H 0.49384 0.75783 0.35217 0.0
H2316 H 0.99755 0.39926 0.00488 0.0
H2317 H 0.00326 0.37752 0.98691 0.0
H2318 H 0.99331 0.40752 0.94633 0.0
H2319 H 0.98768 0.42944 0.96426 0.0
H2320 H 0.97739 0.37793 0.94398 0.0
H2321 H 0.04232 0.3715 0.95983 0.0
H2322 H 0.03012 0.37115 0.97701 0.0
H2323 H 0.0317 0.38893 0.9651 0.0
C2324 C 0.99687 0.40136 0.99214 0.0
C2325 C 0.9922 0.41612 0.98601 0.0
C2326 C 1.00016 0.38891 0.98188 0.0
C2327 C 0.99897 0.39099 0.96529 0.0
C2328 C 0.99438 0.4057 0.9591 0.0
H2329 H 0.02843 0.31258 0.90484 0.0
H2330 H 0.02538 0.33973 0.91475 0.0
C2331 C 0.99108 0.41818 0.96937 0.0
C2332 C 0.00156 0.37743 0.95449 0.0
H2333 H 0.02836 0.34906 0.94661 0.0
C2334 C 0.98862 0.37176 0.94436 0.0
C2335 C 0.0163 0.36956 0.95478 0.0
C2336 C 0.03096 0.37569 0.96464 0.0
C2337 C 0.98972 0.35787 0.93521 0.0
C2338 C 0.00405 0.34934 0.93642 0.0
C2339 C 0.01732 0.35553 0.94582 0.0
C2340 C 0.00505 0.33332 0.92919 0.0
C2341 C 0.97543 0.35231 0.92453 0.0
C2342 C 0.99461 0.32076 0.934 0.0
C2343 C 0.99632 0.30529 0.92842 0.0
C2344 C 0.00859 0.30201 0.91795 0.0
C2345 C 0.01882 0.31469 0.91284 0.0
C2346 C 0.01712 0.33021 0.91851 0.0
H2347 H 0.96785 0.3624 0.92098 0.0
H2348 H 0.97941 0.34643 0.9136 0.0
H2349 H 0.96776 0.34357 0.93108 0.0
H2350 H 0.98543 0.32283 0.94248 0.0
H2351 H 0.98822 0.29585 0.93262 0.0
H2352 H 0.64732 0.82043 0.25907 0.0
H2353 H 0.62655 0.81794 0.27898 0.0
H2354 H 0.63578 0.76807 0.28462 0.0
H2355 H 0.65649 0.77044 0.26474 0.0
H2356 H 0.60298 0.77393 0.28274 0.0
H2357 H 0.63641 0.814 0.32692 0.0
H2358 H 0.63258 0.82261 0.30762 0.0
H2359 H 0.64576 0.80626 0.30967 0.0
C2360 C 0.64495 0.80895 0.26461 0.0
C2361 C 0.6536 0.79565 0.26039 0.0
C2362 C 0.63309 0.80756 0.27597 0.0
C2363 C 0.62979 0.79288 0.28343 0.0
C2364 C 0.63814 0.77951 0.27899 0.0
H2365 H 0.58959 0.76746 0.37192 0.0
H2366 H 0.60589 0.77459 0.34928 0.0
C2367 C 0.64994 0.78087 0.2676 0.0
C2368 C 0.61788 0.79139 0.29611 0.0
H2369 H 0.61082 0.80348 0.33395 0.0
C2370 C 0.6046 0.78046 0.2939 0.0
C2371 C 0.62013 0.79985 0.31069 0.0
C2372 C 0.63455 0.81125 0.31399 0.0
C2373 C 0.59366 0.77754 0.30602 0.0
C2374 C 0.59594 0.78598 0.32061 0.0
C2375 C 0.60903 0.79714 0.32269 0.0
C2376 C 0.58579 0.78236 0.33441 0.0
C2377 C 0.58017 0.76496 0.30335 0.0
C2378 C 0.56907 0.78461 0.33366 0.0
C2379 C 0.55964 0.78047 0.34663 0.0
C2380 C 0.56683 0.7741 0.36057 0.0
C2381 C 0.58364 0.77228 0.36137 0.0
C2382 C 0.59301 0.77638 0.34844 0.0
H2383 H 0.58206 0.75736 0.2928 0.0
H2384 H 0.57908 0.75719 0.31398 0.0
H2385 H 0.56854 0.77085 0.30131 0.0
H2386 H 0.56331 0.78949 0.32304 0.0
H2387 H 0.54674 0.78209 0.34568 0.0
H2388 H 0.04753 0.09682 0.97276 0.0
H2389 H 0.04743 0.12178 0.95788 0.0
H2390 H 0.99524 0.11932 0.95561 0.0
H2391 H 0.99519 0.09393 0.96995 0.0
H2392 H 0.00874 0.12911 0.92693 0.0
H2393 H 0.03595 0.16369 0.97858 0.0
H2394 H 0.04764 0.1473 0.97285 0.0
H2395 H 0.02782 0.14347 0.98039 0.0
C2396 C 0.03601 0.1014 0.96885 0.0
C2397 C 0.02136 0.09341 0.97264 0.0
C2398 C 0.03599 0.11578 0.96051 0.0
C2399 C 0.02133 0.12253 0.95594 0.0
C2400 C 0.00668 0.11435 0.95917 0.0
H2401 H 0.01317 0.22224 0.93195 0.0
H2402 H 0.00989 0.19562 0.94331 0.0
C2403 C 0.00668 0.09992 0.96747 0.0
C2404 C 0.02133 0.13837 0.9482 0.0
H2405 H 0.03397 0.17732 0.95388 0.0
C2406 C 0.0142 0.13968 0.93281 0.0
C2407 C 0.02821 0.15217 0.95604 0.0
C2408 C 0.0352 0.15168 0.97293 0.0
C2409 C 0.01407 0.15442 0.9249 0.0
C2410 C 0.02152 0.16809 0.93251 0.0
C2411 C 0.02838 0.1668 0.94801 0.0
C2412 C 0.02235 0.18393 0.92474 0.0
C2413 C 0.00576 0.15525 0.90859 0.0
C2414 C 0.03041 0.18621 0.91048 0.0
C2415 C 0.03217 0.20144 0.90385 0.0
C2416 C 0.02605 0.21468 0.91146 0.0
C2417 C 0.01788 0.21231 0.92568 0.0
C2418 C 0.01605 0.19709 0.93223 0.0
H2419 H 0.99687 0.14505 0.90645 0.0
H2420 H 0.99939 0.16653 0.90707 0.0
H2421 H 0.01495 0.15479 0.89938 0.0
H2422 H 0.03571 0.17629 0.90469 0.0
H2423 H 0.03862 0.20287 0.89294 0.0
H2424 H 0.36082 0.2514 0.22962 0.0
H2425 H 0.38265 0.25168 0.21093 0.0
H2426 H 0.39263 0.30184 0.22013 0.0
H2427 H 0.37062 0.30167 0.23878 0.0
H2428 H 0.39179 0.2954 0.18875 0.0
H2429 H 0.43088 0.25285 0.22006 0.0
H2430 H 0.4107 0.24449 0.21661 0.0
H2431 H 0.4142 0.26166 0.22943 0.0
C2432 C 0.3678 0.26245 0.22783 0.0
C2433 C 0.36407 0.27649 0.23576 0.0
C2434 C 0.38032 0.26258 0.21719 0.0
C2435 C 0.38954 0.2767 0.2144 0.0
C2436 C 0.38577 0.29078 0.2222 0.0
H2437 H 0.47427 0.26895 0.15536 0.0
H2438 H 0.45764 0.27587 0.17766 0.0
C2439 C 0.37315 0.29069 0.23279 0.0
C2440 C 0.40252 0.27683 0.20272 0.0
H2441 H 0.43554 0.25698 0.19217 0.0
C2442 C 0.4015 0.28717 0.18962 0.0
C2443 C 0.41543 0.26635 0.20401 0.0
C2444 C 0.41799 0.25584 0.21839 0.0
C2445 C 0.41247 0.28666 0.17734 0.0
C2446 C 0.42454 0.27526 0.178 0.0
C2447 C 0.42615 0.26557 0.19154 0.0
C2448 C 0.4348 0.27234 0.1643 0.0
C2449 C 0.41089 0.29828 0.16372 0.0
C2450 C 0.4275 0.26801 0.14943 0.0
C2451 C 0.43692 0.26414 0.13671 0.0
C2452 C 0.45389 0.2643 0.13862 0.0
C2453 C 0.46124 0.26876 0.15349 0.0
C2454 C 0.45175 0.2727 0.16624 0.0
H2455 H 0.40534 0.30937 0.16756 0.0
H2456 H 0.42283 0.30149 0.15876 0.0
H2457 H 0.40288 0.29276 0.15409 0.0
H2458 H 0.41444 0.26721 0.14774 0.0
H2459 H 0.43084 0.26068 0.12547 0.0
H2460 H 0.50426 0.41613 0.0257 0.0
H2461 H 0.50082 0.39217 0.04205 0.0
H2462 H 0.54929 0.3794 0.03223 0.0
H2463 H 0.55289 0.40347 0.01614 0.0
H2464 H 0.50132 0.36187 0.03283 0.0
H2465 H 0.54963 0.37309 0.07966 0.0
H2466 H 0.54307 0.38847 0.06618 0.0
H2467 H 0.55729 0.37433 0.06001 0.0
C2468 C 0.51421 0.40825 0.02713 0.0
C2469 C 0.52886 0.41168 0.01968 0.0
C2470 C 0.51226 0.39461 0.03652 0.0
C2471 C 0.52489 0.38412 0.03862 0.0
C2472 C 0.53954 0.38754 0.0312 0.0
H2473 H 0.53323 0.28703 0.06693 0.0
H2474 H 0.53668 0.31437 0.05725 0.0
C2475 C 0.54156 0.40126 0.02194 0.0
C2476 C 0.52235 0.36903 0.04759 0.0
H2477 H 0.53874 0.34608 0.07718 0.0
C2478 C 0.50937 0.35854 0.04268 0.0
C2479 C 0.53284 0.36469 0.06048 0.0
C2480 C 0.54638 0.37582 0.067 0.0
C2481 C 0.50694 0.34361 0.04991 0.0
C2482 C 0.51774 0.33908 0.06238 0.0
C2483 C 0.53052 0.34964 0.06756 0.0
C2484 C 0.51638 0.32301 0.06952 0.0
C2485 C 0.49315 0.33251 0.04386 0.0
C2486 C 0.50401 0.31897 0.0799 0.0
C2487 C 0.50203 0.30335 0.08554 0.0
C2488 C 0.51232 0.2915 0.08078 0.0
C2489 C 0.52502 0.2958 0.07076 0.0
C2490 C 0.52706 0.31143 0.06524 0.0
H2491 H 0.48681 0.33719 0.03304 0.0
H2492 H 0.4977 0.32063 0.04104 0.0
H2493 H 0.48424 0.33081 0.0533 0.0
H2494 H 0.4957 0.32782 0.08335 0.0
H2495 H 0.49213 0.30046 0.09323 0.0
H2496 H 0.63806 0.2009 0.2199 0.0
H2497 H 0.61634 0.20347 0.19951 0.0
H2498 H 0.62267 0.25471 0.20223 0.0
H2499 H 0.6449 0.25228 0.22198 0.0
H2500 H 0.58758 0.21765 0.20109 0.0
H2501 H 0.62432 0.24701 0.15482 0.0
H2502 H 0.63332 0.23782 0.17226 0.0
H2503 H 0.62568 0.25749 0.17352 0.0
C2504 C 0.63503 0.21272 0.21597 0.0
C2505 C 0.64332 0.22638 0.22255 0.0
C2506 C 0.62251 0.21417 0.20442 0.0
C2507 C 0.61803 0.22927 0.19918 0.0
C2508 C 0.62613 0.24292 0.20585 0.0
H2509 H 0.52768 0.2489 0.14655 0.0
H2510 H 0.54917 0.24651 0.16725 0.0
C2511 C 0.63871 0.2415 0.21732 0.0
C2512 C 0.60472 0.23075 0.18693 0.0
H2513 H 0.59577 0.24634 0.15023 0.0
C2514 C 0.58936 0.22387 0.18994 0.0
C2515 C 0.60712 0.23872 0.17231 0.0
C2516 C 0.62353 0.24554 0.16793 0.0
C2517 C 0.57631 0.22485 0.17879 0.0
C2518 C 0.57859 0.23327 0.16439 0.0
C2519 C 0.59398 0.24004 0.16134 0.0
C2520 C 0.56538 0.2347 0.152 0.0
C2521 C 0.56032 0.21654 0.18238 0.0
C2522 C 0.5675 0.22924 0.13645 0.0
C2523 C 0.55537 0.23079 0.12457 0.0
C2524 C 0.54079 0.23782 0.12796 0.0
C2525 C 0.53869 0.24331 0.14356 0.0
C2526 C 0.55093 0.24186 0.15544 0.0
H2527 H 0.56178 0.20717 0.19159 0.0
H2528 H 0.55212 0.22539 0.18698 0.0
H2529 H 0.55444 0.21096 0.17147 0.0
H2530 H 0.57856 0.22371 0.13351 0.0
H2531 H 0.55742 0.22639 0.11272 0.0
H2532 H 0.48857 0.10027 7e-05 0.0
H2533 H 0.49391 0.12413 0.01654 0.0
H2534 H 0.47884 0.09802 0.05798 0.0
H2535 H 0.47375 0.07397 0.04166 0.0
H2536 H 0.46317 0.12706 0.0523 0.0
H2537 H 0.52999 0.13566 0.05087 0.0
H2538 H 0.51982 0.13261 0.03169 0.0
H2539 H 0.5194 0.11682 0.04611 0.0
C2540 C 0.48675 0.09947 0.01275 0.0
C2541 C 0.48071 0.08519 0.01953 0.0
C2542 C 0.48981 0.11313 0.02215 0.0
C2543 C 0.48693 0.11278 0.0385 0.0
C2544 C 0.48119 0.0985 0.04538 0.0
H2545 H 0.48245 0.1904 0.10775 0.0
H2546 H 0.48277 0.16395 0.09546 0.0
C2547 C 0.47819 0.08481 0.03601 0.0
C2548 C 0.48865 0.12762 0.04811 0.0
H2549 H 0.51575 0.15739 0.06071 0.0
C2550 C 0.47469 0.13362 0.05431 0.0
C2551 C 0.50368 0.13615 0.05059 0.0
C2552 C 0.51912 0.12995 0.04459 0.0
C2553 C 0.47523 0.14823 0.06251 0.0
C2554 C 0.49025 0.15687 0.0649 0.0
C2555 C 0.50427 0.15072 0.0589 0.0
C2556 C 0.49147 0.17263 0.07296 0.0
C2557 C 0.45961 0.15457 0.06796 0.0
C2558 C 0.49694 0.1862 0.06465 0.0
C2559 C 0.49696 0.20129 0.07171 0.0
C2560 C 0.49149 0.20309 0.08721 0.0
C2561 C 0.48659 0.18942 0.09574 0.0
C2562 C 0.48669 0.17431 0.0887 0.0
H2563 H 0.44886 0.14856 0.06175 0.0
H2564 H 0.45869 0.15241 0.08094 0.0
H2565 H 0.45921 0.16761 0.06587 0.0
H2566 H 0.50075 0.18516 0.05251 0.0
H2567 H 0.50079 0.21158 0.06481 0.0
H2568 H 0.27676 0.3772 0.75101 0.0
H2569 H 0.29728 0.39916 0.7528 0.0
H2570 H 0.29117 0.40685 0.7021 0.0
H2571 H 0.271 0.38455 0.70022 0.0
H2572 H 0.32197 0.40717 0.7105 0.0
H2573 H 0.29221 0.44624 0.75228 0.0
H2574 H 0.29475 0.42676 0.76047 0.0
H2575 H 0.2818 0.42909 0.7429 0.0
C2576 C 0.27969 0.38371 0.74029 0.0
C2577 C 0.27227 0.37923 0.72548 0.0
C2578 C 0.29134 0.39631 0.74133 0.0
C2579 C 0.29554 0.40491 0.72764 0.0
C2580 C 0.28809 0.40046 0.71284 0.0
H2581 H 0.35584 0.49347 0.73217 0.0
H2582 H 0.33317 0.47375 0.72893 0.0
C2583 C 0.2766 0.38771 0.71177 0.0
C2584 C 0.30832 0.41797 0.7286 0.0
H2585 H 0.32041 0.45225 0.74862 0.0
C2586 C 0.32153 0.4171 0.71874 0.0
C2587 C 0.30766 0.4311 0.73913 0.0
C2588 C 0.29325 0.43346 0.74916 0.0
C2589 C 0.33429 0.42873 0.71941 0.0
C2590 C 0.33411 0.44132 0.73064 0.0
C2591 C 0.32068 0.44246 0.74018 0.0
C2592 C 0.34782 0.4533 0.7328 0.0
C2593 C 0.34769 0.42749 0.70788 0.0
C2594 C 0.36354 0.4484 0.73637 0.0
C2595 C 0.37652 0.4596 0.73803 0.0
C2596 C 0.37402 0.476 0.73648 0.0
C2597 C 0.35818 0.48093 0.73342 0.0
C2598 C 0.34521 0.46968 0.73155 0.0
H2599 H 0.34349 0.42064 0.69701 0.0
H2600 H 0.35243 0.43945 0.7042 0.0
H2601 H 0.35776 0.42108 0.7137 0.0
H2602 H 0.36579 0.43588 0.7379 0.0
H2603 H 0.38851 0.45539 0.74062 0.0
H2604 H 0.2622 0.64077 0.79104 0.0
H2605 H 0.28326 0.6214 0.78931 0.0
H2606 H 0.28204 0.62648 0.73816 0.0
H2607 H 0.2611 0.64596 0.73977 0.0
H2608 H 0.28314 0.59438 0.74887 0.0
H2609 H 0.33047 0.63421 0.77929 0.0
H2610 H 0.31235 0.63059 0.79004 0.0
H2611 H 0.31147 0.64137 0.77157 0.0
C2612 C 0.26645 0.63781 0.77942 0.0
C2613 C 0.26004 0.64502 0.76555 0.0
C2614 C 0.27846 0.62672 0.77846 0.0
C2615 C 0.28436 0.62268 0.76363 0.0
C2616 C 0.27766 0.62946 0.74972 0.0
H2617 H 0.37347 0.58387 0.73815 0.0
H2618 H 0.35027 0.59973 0.74315 0.0
C2619 C 0.26564 0.64054 0.75067 0.0
C2620 C 0.29783 0.61175 0.76257 0.0
H2621 H 0.338 0.60844 0.77231 0.0
C2622 C 0.29512 0.59738 0.75406 0.0
C2623 C 0.31347 0.6158 0.76923 0.0
C2624 C 0.31724 0.63138 0.77794 0.0
C2625 C 0.30769 0.58699 0.75195 0.0
C2626 C 0.32331 0.59103 0.75868 0.0
C2627 C 0.32597 0.60533 0.76729 0.0
C2628 C 0.33736 0.58116 0.75598 0.0
C2629 C 0.3043 0.57206 0.7421 0.0
C2630 C 0.33789 0.56548 0.76172 0.0
C2631 C 0.3512 0.55631 0.75887 0.0
C2632 C 0.3642 0.56272 0.75027 0.0
C2633 C 0.36367 0.57852 0.74478 0.0
C2634 C 0.35042 0.58764 0.74763 0.0
H2635 H 0.2926 0.57234 0.73513 0.0
H2636 H 0.31412 0.5704 0.73372 0.0
H2637 H 0.30374 0.56157 0.75012 0.0
H2638 H 0.32805 0.56034 0.76842 0.0
H2639 H 0.35126 0.54421 0.76331 0.0
H2640 H 0.90174 0.4683 0.49444 0.0
H2641 H 0.87815 0.45086 0.49998 0.0
H2642 H 0.86272 0.45189 0.45026 0.0
H2643 H 0.88641 0.46922 0.4446 0.0
H2644 H 0.84545 0.45473 0.49574 0.0
H2645 H 0.8644 0.4044 0.45891 0.0
H2646 H 0.87778 0.42139 0.46404 0.0
H2647 H 0.86255 0.42279 0.44824 0.0
C2648 C 0.89326 0.4649 0.48471 0.0
C2649 C 0.89598 0.47003 0.46906 0.0
C2650 C 0.8798 0.45492 0.48788 0.0
C2651 C 0.86881 0.44988 0.4755 0.0
C2652 C 0.87124 0.45534 0.45994 0.0
H2653 H 0.77574 0.39882 0.49179 0.0
H2654 H 0.79628 0.41942 0.48505 0.0
C2655 C 0.88477 0.46523 0.45672 0.0
C2656 C 0.85503 0.43865 0.4789 0.0
H2657 H 0.83887 0.40131 0.4703 0.0
C2658 C 0.84396 0.44306 0.49016 0.0
C2659 C 0.85323 0.42337 0.47172 0.0
C2660 C 0.86519 0.4176 0.46016 0.0
C2661 C 0.8312 0.43254 0.49453 0.0
C2662 C 0.82931 0.41734 0.4872 0.0
C2663 C 0.84028 0.41301 0.47582 0.0
C2664 C 0.81668 0.40528 0.49177 0.0
C2665 C 0.82021 0.43759 0.50731 0.0
C2666 C 0.8213 0.39045 0.49759 0.0
C2667 C 0.80966 0.37863 0.50126 0.0
C2668 C 0.79306 0.38138 0.49922 0.0
C2669 C 0.78841 0.39635 0.4936 0.0
C2670 C 0.80013 0.40817 0.48981 0.0
H2671 H 0.82558 0.44791 0.51434 0.0
H2672 H 0.80859 0.44119 0.50165 0.0
H2673 H 0.81754 0.4276 0.5156 0.0
H2674 H 0.834 0.38797 0.49921 0.0
H2675 H 0.81371 0.36729 0.50563 0.0
H2676 H 0.73953 0.8441 0.74242 0.0
H2677 H 0.72139 0.86628 0.74085 0.0
H2678 H 0.72189 0.86883 0.79216 0.0
H2679 H 0.74039 0.84689 0.79391 0.0
H2680 H 0.68874 0.87112 0.77137 0.0
H2681 H 0.74051 0.9129 0.75757 0.0
H2682 H 0.73872 0.89417 0.74699 0.0
H2683 H 0.74325 0.89439 0.76808 0.0
C2684 C 0.7358 0.84935 0.75339 0.0
C2685 C 0.74156 0.84382 0.76829 0.0
C2686 C 0.72533 0.86192 0.75246 0.0
C2687 C 0.72038 0.86915 0.76639 0.0
C2688 C 0.72554 0.8633 0.78129 0.0
H2689 H 0.6632 0.95259 0.78099 0.0
H2690 H 0.67475 0.92634 0.78399 0.0
C2691 C 0.73607 0.85075 0.78225 0.0
C2692 C 0.71091 0.88362 0.76531 0.0
H2693 H 0.71457 0.92319 0.7564 0.0
C2694 C 0.69432 0.88255 0.76815 0.0
C2695 C 0.71832 0.89844 0.76115 0.0
C2696 C 0.7362 0.9002 0.75835 0.0
C2697 C 0.6848 0.89596 0.76649 0.0
C2698 C 0.69221 0.91078 0.76217 0.0
C2699 C 0.70888 0.91181 0.75961 0.0
C2700 C 0.68306 0.92546 0.75989 0.0
C2701 C 0.66687 0.89405 0.76893 0.0
C2702 C 0.68375 0.93361 0.74534 0.0
C2703 C 0.6774 0.94864 0.74368 0.0
C2704 C 0.67014 0.95585 0.75653 0.0
C2705 C 0.66862 0.9473 0.77084 0.0
C2706 C 0.67517 0.93227 0.77255 0.0
H2707 H 0.66246 0.88136 0.76812 0.0
H2708 H 0.66433 0.89854 0.78097 0.0
H2709 H 0.65993 0.90104 0.75999 0.0
H2710 H 0.68975 0.92857 0.73541 0.0
H2711 H 0.67865 0.95485 0.73246 0.0
H2712 H 0.63842 0.50739 0.99347 0.0
H2713 H 0.66179 0.52611 0.99812 0.0
H2714 H 0.63074 0.56565 0.9919 0.0
H2715 H 0.6073 0.54708 0.9876 0.0
H2716 H 0.67381 0.55104 0.97775 0.0
H2717 H 0.65464 0.57432 0.03556 0.0
H2718 H 0.64611 0.55598 0.02677 0.0
H2719 H 0.63942 0.57487 0.01968 0.0
C2720 C 0.63656 0.52007 0.99322 0.0
C2721 C 0.62099 0.52575 0.99025 0.0
C2722 C 0.64993 0.53074 0.99578 0.0
C2723 C 0.64794 0.54724 0.99558 0.0
C2724 C 0.63248 0.55295 0.99235 0.0
H2725 H 0.70382 0.63503 0.00498 0.0
H2726 H 0.68352 0.61316 0.0019 0.0
C2727 C 0.61913 0.54231 0.98973 0.0
C2728 C 0.66199 0.55859 0.99863 0.0
H2729 H 0.67622 0.58883 0.02341 0.0
C2730 C 0.67447 0.5592 0.98781 0.0
C2731 C 0.6628 0.56914 0.01182 0.0
C2732 C 0.65011 0.5685 0.02422 0.0
C2733 C 0.68742 0.57062 0.98945 0.0
C2734 C 0.68799 0.58148 0.00241 0.0
C2735 C 0.67572 0.58053 0.01346 0.0
C2736 C 0.70063 0.59453 0.00424 0.0
C2737 C 0.70002 0.57139 0.97697 0.0
C2738 C 0.71704 0.59132 0.00674 0.0
C2739 C 0.72878 0.60385 0.00849 0.0
C2740 C 0.72428 0.61982 0.00786 0.0
C2741 C 0.70778 0.62292 0.00552 0.0
C2742 C 0.69612 0.61042 0.00376 0.0
H2743 H 0.69601 0.56448 0.96608 0.0
H2744 H 0.7029 0.58394 0.97351 0.0
H2745 H 0.7113 0.56634 0.98193 0.0
H2746 H 0.72075 0.57913 0.00744 0.0
H2747 H 0.74134 0.60102 0.01034 0.0
H2748 H 0.22508 0.67203 0.23028 0.0
H2749 H 0.20688 0.64902 0.23579 0.0
H2750 H 0.24783 0.61918 0.24044 0.0
H2751 H 0.26607 0.64212 0.23509 0.0
H2752 H 0.20159 0.62065 0.21977 0.0
H2753 H 0.22512 0.60977 0.2814 0.0
H2754 H 0.23008 0.62789 0.27076 0.0
H2755 H 0.2407 0.61009 0.26717 0.0
C2756 C 0.23019 0.66055 0.23246 0.0
C2757 C 0.24701 0.6589 0.23237 0.0
C2758 C 0.21979 0.64744 0.23564 0.0
C2759 C 0.22602 0.63245 0.23882 0.0
C2760 C 0.24279 0.63072 0.23846 0.0
H2761 H 0.18982 0.53611 0.24973 0.0
H2762 H 0.20454 0.56103 0.24332 0.0
C2763 C 0.25319 0.64383 0.23538 0.0
C2764 C 0.21502 0.61853 0.24218 0.0
H2765 H 0.20811 0.58892 0.26927 0.0
C2766 C 0.20289 0.61382 0.23067 0.0
C2767 C 0.21666 0.60969 0.25647 0.0
C2768 C 0.22873 0.6147 0.26973 0.0
C2769 C 0.19276 0.60016 0.23284 0.0
C2770 C 0.19485 0.59106 0.24684 0.0
C2771 C 0.20668 0.59593 0.2585 0.0
C2772 C 0.18524 0.57609 0.24942 0.0
C2773 C 0.18017 0.59523 0.22006 0.0
C2774 C 0.16946 0.5764 0.25482 0.0
C2775 C 0.161 0.56216 0.25855 0.0
C2776 C 0.16821 0.54743 0.25689 0.0
C2777 C 0.18387 0.54722 0.25104 0.0
C2778 C 0.19233 0.56144 0.24741 0.0
H2779 H 0.18065 0.60312 0.20945 0.0
H2780 H 0.1819 0.58277 0.21624 0.0
H2781 H 0.16794 0.59555 0.22495 0.0
H2782 H 0.16388 0.58766 0.25651 0.0
H2783 H 0.14897 0.56271 0.26305 0.0
H2784 H 0.92774 0.54781 0.04245 0.0
H2785 H 0.90514 0.56452 0.03515 0.0
H2786 H 0.87606 0.52271 0.02035 0.0
H2787 H 0.89859 0.50585 0.02778 0.0
H2788 H 0.88771 0.5649 0.00278 0.0
H2789 H 0.84886 0.54785 0.05325 0.0
H2790 H 0.87047 0.54554 0.05424 0.0
H2791 H 0.85754 0.53218 0.04221 0.0
C2792 C 0.91648 0.54215 0.03779 0.0
C2793 C 0.91491 0.52551 0.03576 0.0
C2794 C 0.90364 0.55171 0.03353 0.0
C2795 C 0.88895 0.54481 0.02732 0.0
C2796 C 0.88729 0.52822 0.02524 0.0
H2797 H 0.79914 0.59452 0.00828 0.0
H2798 H 0.81866 0.57342 0.01005 0.0
C2799 C 0.90018 0.51864 0.02939 0.0
C2800 C 0.87545 0.5551 0.02291 0.0
H2801 H 0.83919 0.56703 0.03532 0.0
C2802 C 0.87703 0.5653 0.0098 0.0
C2803 C 0.8615 0.55543 0.032 0.0
C2804 C 0.85939 0.54475 0.04628 0.0
C2805 C 0.86511 0.5761 0.0057 0.0
C2806 C 0.85148 0.57699 0.01525 0.0
C2807 C 0.84965 0.56636 0.02803 0.0
C2808 C 0.83968 0.58965 0.01298 0.0
C2809 C 0.86725 0.58646 0.9912 0.0
C2810 C 0.84501 0.60574 0.01408 0.0
C2811 C 0.83395 0.61777 0.01302 0.0
C2812 C 0.81726 0.61398 0.01102 0.0
C2813 C 0.81191 0.59784 0.00977 0.0
C2814 C 0.82304 0.58578 0.0108 0.0
H2815 H 0.87485 0.58076 0.98241 0.0
H2816 H 0.85542 0.589 0.98525 0.0
H2817 H 0.87348 0.59796 0.99489 0.0
H2818 H 0.85774 0.60902 0.01617 0.0
H2819 H 0.83849 0.63005 0.01413 0.0
H2820 H 0.11854 0.99526 0.99692 0.0
H2821 H 0.14042 0.97699 0.99394 0.0
H2822 H 0.10816 0.93728 0.00558 0.0
H2823 H 0.08611 0.9554 0.00823 0.0
H2824 H 0.15328 0.95597 0.0171 0.0
H2825 H 0.12758 0.92338 0.96355 0.0
H2826 H 0.12046 0.94234 0.96976 0.0
H2827 H 0.11399 0.9243 0.97963 0.0
C2828 C 0.11605 0.98261 0.99867 0.0
C2829 C 0.10056 0.97676 0.00272 0.0
C2830 C 0.12859 0.97222 0.99704 0.0
C2831 C 0.12583 0.95578 0.9993 0.0
C2832 C 0.11045 0.9499 0.00351 0.0
H2833 H 0.17924 0.87112 0.00269 0.0
H2834 H 0.15927 0.89158 0.00154 0.0
C2835 C 0.09792 0.96029 0.00519 0.0
C2836 C 0.13915 0.94479 0.99769 0.0
H2837 H 0.15015 0.91216 0.97715 0.0
C2838 C 0.15271 0.94648 0.00827 0.0
C2839 C 0.13835 0.93248 0.98612 0.0
C2840 C 0.12439 0.93055 0.97401 0.0
C2841 C 0.16523 0.93576 0.00802 0.0
C2842 C 0.16426 0.92323 0.99666 0.0
C2843 C 0.15086 0.92178 0.98584 0.0
C2844 C 0.17649 0.9109 0.99647 0.0
C2845 C 0.17903 0.93755 0.02032 0.0
C2846 C 0.19278 0.91492 0.99364 0.0
C2847 C 0.20429 0.90322 0.99434 0.0
C2848 C 0.19967 0.88729 0.99779 0.0
C2849 C 0.18325 0.88326 8e-05 0.0
C2850 C 0.17179 0.89494 0.9994 0.0
H2851 H 0.17618 0.94556 0.03027 0.0
H2852 H 0.18207 0.92578 0.02535 0.0
H2853 H 0.1899 0.94274 0.0146 0.0
H2854 H 0.1966 0.92712 0.99104 0.0
H2855 H 0.21683 0.90669 0.99244 0.0
loop_
_geom_bond_atom_site_label_1
_geom_bond_atom_site_label_2
_geom_bond_distance
_geom_bond_site_symmetry_2
_ccdc_geom_bond_type
C0 C1 1.391 . S
C0 C4 1.391 . S
C0 H42 0.948 . S
C1 C0 1.391 . S
C1 C2 1.394 . S
C2 C1 1.394 . S
C2 H58 0.941 1_556 S
C2 C59 1.390 1_556 S
C3 C4 1.391 1_554 S
C3 C7 1.397 . S
C3 C59 1.419 . S
C4 C0 1.391 . S
C4 C3 1.391 1_556 S
C4 C5 1.399 . S
C5 C4 1.399 . S
C5 C8 1.396 1_556 S
C5 C17 1.454 . S
C5 C18 1.684 . S
H6 C30 0.948 . S
C7 C3 1.397 . S
C7 C8 1.394 . S
C7 C26 1.723 . S
C8 C5 1.396 1_554 S
C8 C7 1.394 . S
C8 C38 1.723 . S
H9 C32 0.947 1_556 S
H10 C33 0.948 1_556 S
H11 C39 0.982 . S
H12 C40 0.979 . S
H13 C40 0.980 . S
H14 C40 0.983 . S
H15 C39 0.979 1_565 S
H16 C39 0.977 . S
C17 C5 1.454 . S
C17 H46 0.962 1_556 S
C17 H47 1.000 . S
C17 H48 0.974 1_556 S
C18 C5 1.684 . S
C18 H43 0.979 . S
C18 H44 0.980 . S
C18 H45 0.983 . S
C19 C20 1.391 . S
C19 C24 1.391 1_655 S
C19 H49 0.948 . S
C20 C19 1.391 . S
C20 C21 1.391 1_655 S
C21 C20 1.391 1_455 S
C21 C22 1.392 . S
C21 H50 0.947 . S
C22 C21 1.392 . S
C22 C23 1.419 . S
C22 H51 0.948 . S
C23 C22 1.419 . S
C23 C24 1.391 . S
C23 C27 1.397 . S
C24 C19 1.391 1_455 S
C24 C23 1.391 . S
C24 C25 1.399 . S
C25 C24 1.399 . S
C25 C26 1.396 . S
C25 C28 1.453 . S
C25 C29 1.684 1_455 S
C26 C7 1.723 . S
C26 C25 1.396 . S
C26 C27 1.394 . S
C27 C23 1.397 . S
C27 C26 1.394 . S
C27 C37 1.723 . S
C28 C25 1.453 . S
C28 H52 0.982 . S
C28 H53 0.970 1_455 S
C28 H54 0.977 . S
C29 C25 1.684 1_655 S
C29 H55 0.979 . S
C29 H56 0.980 . S
C29 H57 0.983 . S
C30 H6 0.948 . S
C30 C31 1.391 . S
C30 C35 1.391 1_565 S
C31 C30 1.391 . S
C31 C32 1.391 1_565 S
C32 H9 0.947 1_554 S
C32 C31 1.391 1_545 S
C32 C33 1.392 . S
C33 H10 0.948 1_554 S
C33 C32 1.392 . S
C33 C34 1.419 . S
C34 C33 1.419 . S
C34 C35 1.391 . S
C34 C38 1.397 . S
C35 C30 1.391 1_545 S
C35 C34 1.391 . S
C35 C36 1.399 . S
C36 C35 1.399 . S
C36 C37 1.396 . S
C36 C39 1.453 . S
C36 C40 1.684 1_545 S
C37 C27 1.723 . S
C37 C36 1.396 . S
C37 C38 1.394 . S
C38 C8 1.723 . S
C38 C34 1.397 . S
C38 C37 1.394 . S
C39 H11 0.982 . S
C39 H15 0.979 1_545 S
C39 H16 0.977 . S
C39 C36 1.453 . S
C40 H12 0.979 . S
C40 H13 0.980 . S
C40 H14 0.983 . S
C40 C36 1.684 1_565 S
H41 C59 0.948 . S
H42 C0 0.948 . S
H43 C18 0.979 . S
H44 C18 0.980 . S
H45 C18 0.983 . S
H46 C17 0.962 1_554 S
H47 C17 1.000 . S
H48 C17 0.974 1_554 S
H49 C19 0.948 . S
H50 C21 0.947 . S
H51 C22 0.948 . S
H52 C28 0.982 . S
H53 C28 0.970 1_655 S
H54 C28 0.977 . S
H55 C29 0.979 . S
H56 C29 0.980 . S
H57 C29 0.983 . S
H58 C2 0.941 1_554 S
C59 C2 1.390 1_554 S
C59 C3 1.419 . S
C59 H41 0.948 . S
C60 C61 1.391 . S
C60 C64 1.391 . S
C60 H102 0.948 . S
C61 C60 1.391 . S
C61 C62 1.391 . S
C62 C61 1.391 . S
C62 H118 0.947 . S
C62 C119 1.392 . S
C63 C64 1.391 . S
C63 C67 1.397 . S
C63 C119 1.419 . S
C64 C60 1.391 . S
C64 C63 1.391 . S
C64 C65 1.399 . S
C65 C64 1.399 . S
C65 C68 1.396 . S
C65 C77 1.453 . S
C65 C78 1.684 . S
H66 C90 0.948 . S
C67 C63 1.397 . S
C67 C68 1.394 . S
C67 C86 1.723 . S
C68 C65 1.396 . S
C68 C67 1.394 . S
C68 C98 1.723 . S
H69 C92 0.947 . S
H70 C93 0.948 . S
H71 C99 0.982 . S
H72 C100 0.979 . S
H73 C100 0.980 . S
H74 C100 0.983 . S
H75 C99 0.979 . S
H76 C99 0.977 . S
C77 C65 1.453 . S
C77 H106 0.982 . S
C77 H107 0.979 . S
C77 H108 0.977 . S
C78 C65 1.684 . S
C78 H103 0.979 . S
C78 H104 0.980 . S
C78 H105 0.983 . S
C79 C80 1.391 . S
C79 C84 1.391 . S
C79 H109 0.948 . S
C80 C79 1.391 . S
C80 C81 1.391 . S
C81 C80 1.391 . S
C81 C82 1.392 . S
C81 H110 0.947 . S
C82 C81 1.392 . S
C82 C83 1.419 . S
C82 H111 0.948 . S
C83 C82 1.419 . S
C83 C84 1.391 . S
C83 C87 1.397 . S
C84 C79 1.391 . S
C84 C83 1.391 . S
C84 C85 1.399 . S
C85 C84 1.399 . S
C85 C86 1.396 . S
C85 C88 1.453 . S
C85 C89 1.684 . S
C86 C67 1.723 . S
C86 C85 1.396 . S
C86 C87 1.394 . S
C87 C83 1.397 . S
C87 C86 1.394 . S
C87 C97 1.723 . S
C88 C85 1.453 . S
C88 H112 0.982 . S
C88 H113 0.979 . S
C88 H114 0.977 . S
C89 C85 1.684 . S
C89 H115 0.979 . S
C89 H116 0.980 . S
C89 H117 0.983 . S
C90 H66 0.948 . S
C90 C91 1.391 . S
C90 C95 1.391 . S
C91 C90 1.391 . S
C91 C92 1.391 . S
C92 H69 0.947 . S
C92 C91 1.391 . S
C92 C93 1.392 . S
C93 H70 0.948 . S
C93 C92 1.392 . S
C93 C94 1.419 . S
C94 C93 1.419 . S
C94 C95 1.391 . S
C94 C98 1.397 . S
C95 C90 1.391 . S
C95 C94 1.391 . S
C95 C96 1.399 . S
C96 C95 1.399 . S
C96 C97 1.396 . S
C96 C99 1.453 . S
C96 C100 1.684 . S
C97 C87 1.723 . S
C97 C96 1.396 . S
C97 C98 1.394 . S
C98 C68 1.723 . S
C98 C94 1.397 . S
C98 C97 1.394 . S
C99 H71 0.982 . S
C99 H75 0.979 . S
C99 H76 0.977 . S
C99 C96 1.453 . S
C100 H72 0.979 . S
C100 H73 0.980 . S
C100 H74 0.983 . S
C100 C96 1.684 . S
H101 C119 0.948 . S
H102 C60 0.948 . S
H103 C78 0.979 . S
H104 C78 0.980 . S
H105 C78 0.983 . S
H106 C77 0.982 . S
H107 C77 0.979 . S
H108 C77 0.977 . S
H109 C79 0.948 . S
H110 C81 0.947 . S
H111 C82 0.948 . S
H112 C88 0.982 . S
H113 C88 0.979 . S
H114 C88 0.977 . S
H115 C89 0.979 . S
H116 C89 0.980 . S
H117 C89 0.983 . S
H118 C62 0.947 . S
C119 C62 1.392 . S
C119 C63 1.419 . S
C119 H101 0.948 . S
C120 C121 1.427 . S
C120 C124 1.391 . S
C120 H162 0.948 1_655 S
C121 C120 1.427 . S
C121 C122 1.382 1_554 S
C122 C121 1.382 1_556 S
C122 H178 0.947 . S
C122 C179 1.392 1_556 S
C123 C124 1.391 . S
C123 C127 1.397 . S
C123 C179 1.419 . S
C124 C120 1.391 . S
C124 C123 1.391 . S
C124 C125 1.399 1_655 S
C125 C124 1.399 1_455 S
C125 C128 1.396 1_455 S
C125 C137 1.453 . S
C125 C138 1.684 . S
H126 C150 0.948 . S
C127 C123 1.397 . S
C127 C128 1.394 . S
C127 C146 1.723 . S
C128 C125 1.396 1_655 S
C128 C127 1.394 . S
C128 C158 1.723 . S
H129 C152 0.947 . S
H130 C153 0.948 . S
H131 C159 0.982 . S
H132 C160 0.979 . S
H133 C160 0.980 . S
H134 C160 0.983 . S
H135 C159 0.979 . S
H136 C159 0.977 . S
C137 C125 1.453 . S
C137 H166 0.982 1_455 S
C137 H167 0.979 . S
C137 H168 0.977 . S
C138 C125 1.684 . S
C138 H163 0.979 . S
C138 H164 0.980 . S
C138 H165 0.983 . S
C139 C140 1.391 . S
C139 C144 1.391 . S
C139 H169 0.948 . S
C140 C139 1.391 . S
C140 C141 1.391 . S
C141 C140 1.391 . S
C141 C142 1.392 . S
C141 H170 0.947 . S
C142 C141 1.392 . S
C142 C143 1.419 . S
C142 H171 0.948 . S
C143 C142 1.419 . S
C143 C144 1.391 . S
C143 C147 1.397 . S
C144 C139 1.391 . S
C144 C143 1.391 . S
C144 C145 1.399 . S
C145 C144 1.399 . S
C145 C146 1.396 . S
C145 C148 1.453 . S
C145 C149 1.684 . S
C146 C127 1.723 . S
C146 C145 1.396 . S
C146 C147 1.394 . S
C147 C143 1.397 . S
C147 C146 1.394 . S
C147 C157 1.723 . S
C148 C145 1.453 . S
C148 H172 0.982 . S
C148 H173 0.979 . S
C148 H174 0.977 . S
C149 C145 1.684 . S
C149 H175 0.965 1_554 S
C149 H176 0.980 1_554 S
C149 H177 0.983 1_554 S
C150 H126 0.948 . S
C150 C151 1.391 . S
C150 C155 1.428 . S
C151 C150 1.391 . S
C151 C152 1.391 . S
C152 H129 0.947 . S
C152 C151 1.391 . S
C152 C153 1.392 . S
C153 H130 0.948 . S
C153 C152 1.392 . S
C153 C154 1.419 . S
C154 C153 1.419 . S
C154 C155 1.408 . S
C154 C158 1.397 1_455 S
C155 C150 1.428 . S
C155 C154 1.408 . S
C155 C156 1.342 1_455 S
C156 C155 1.342 1_655 S
C156 C157 1.396 . S
C156 C159 1.453 . S
C156 C160 1.684 . S
C157 C147 1.723 . S
C157 C156 1.396 . S
C157 C158 1.394 . S
C158 C128 1.723 . S
C158 C154 1.397 1_655 S
C158 C157 1.394 . S
C159 H131 0.982 . S
C159 H135 0.979 . S
C159 H136 0.977 . S
C159 C156 1.453 . S
C160 H132 0.979 . S
C160 H133 0.980 . S
C160 H134 0.983 . S
C160 C156 1.684 . S
H161 C179 0.948 . S
H162 C120 0.948 1_455 S
H163 C138 0.979 . S
H164 C138 0.980 . S
H165 C138 0.983 . S
H166 C137 0.982 1_655 S
H167 C137 0.979 . S
H168 C137 0.977 . S
H169 C139 0.948 . S
H170 C141 0.947 . S
H171 C142 0.948 . S
H172 C148 0.982 . S
H173 C148 0.979 . S
H174 C148 0.977 . S
H175 C149 0.965 1_556 S
H176 C149 0.980 1_556 S
H177 C149 0.983 1_556 S
H178 C122 0.947 . S
C179 C122 1.392 1_554 S
C179 C123 1.419 . S
C179 H161 0.948 . S
C180 C181 1.391 . S
C180 C184 1.391 . S
C180 H222 0.948 . S
C181 C180 1.391 . S
C181 C182 1.391 . S
C182 C181 1.391 . S
C182 H238 0.947 . S
C182 C239 1.392 . S
C183 C184 1.391 . S
C183 C187 1.397 . S
C183 C239 1.419 . S
C184 C180 1.391 . S
C184 C183 1.391 . S
C184 C185 1.399 . S
C185 C184 1.399 . S
C185 C188 1.396 . S
C185 C197 1.453 . S
C185 C198 1.684 . S
H186 C210 0.948 . S
C187 C183 1.397 . S
C187 C188 1.394 . S
C187 C206 1.723 . S
C188 C185 1.396 . S
C188 C187 1.394 . S
C188 C218 1.723 . S
H189 C212 0.947 . S
H190 C213 0.948 . S
H191 C219 0.982 . S
H192 C220 0.979 . S
H193 C220 0.980 . S
H194 C220 0.983 . S
H195 C219 0.979 . S
H196 C219 0.977 . S
C197 C185 1.453 . S
C197 H226 0.982 . S
C197 H227 0.979 . S
C197 H228 0.977 . S
C198 C185 1.684 . S
C198 H223 0.979 . S
C198 H224 0.980 . S
C198 H225 0.983 . S
C199 C200 1.391 . S
C199 C204 1.391 . S
C199 H229 0.948 . S
C200 C199 1.391 . S
C200 C201 1.391 . S
C201 C200 1.391 . S
C201 C202 1.392 . S
C201 H230 0.947 . S
C202 C201 1.392 . S
C202 C203 1.419 . S
C202 H231 0.948 . S
C203 C202 1.419 . S
C203 C204 1.391 . S
C203 C207 1.397 . S
C204 C199 1.391 . S
C204 C203 1.391 . S
C204 C205 1.399 . S
C205 C204 1.399 . S
C205 C206 1.396 . S
C205 C208 1.453 . S
C205 C209 1.684 . S
C206 C187 1.723 . S
C206 C205 1.396 . S
C206 C207 1.394 . S
C207 C203 1.397 . S
C207 C206 1.394 . S
C207 C217 1.723 . S
C208 C205 1.453 . S
C208 H232 0.982 . S
C208 H233 0.979 . S
C208 H234 0.977 . S
C209 C205 1.684 . S
C209 H235 0.979 . S
C209 H236 0.980 . S
C209 H237 0.983 . S
C210 H186 0.948 . S
C210 C211 1.391 . S
C210 C215 1.391 . S
C211 C210 1.391 . S
C211 C212 1.391 . S
C212 H189 0.947 . S
C212 C211 1.391 . S
C212 C213 1.392 . S
C213 H190 0.948 . S
C213 C212 1.392 . S
C213 C214 1.419 . S
C214 C213 1.419 . S
C214 C215 1.391 . S
C214 C218 1.397 . S
C215 C210 1.391 . S
C215 C214 1.391 . S
C215 C216 1.399 . S
C216 C215 1.399 . S
C216 C217 1.396 . S
C216 C219 1.453 . S
C216 C220 1.684 . S
C217 C207 1.723 . S
C217 C216 1.396 . S
C217 C218 1.394 . S
C218 C188 1.723 . S
C218 C214 1.397 . S
C218 C217 1.394 . S
C219 H191 0.982 . S
C219 H195 0.979 . S
C219 H196 0.977 . S
C219 C216 1.453 . S
C220 H192 0.979 . S
C220 H193 0.980 . S
C220 H194 0.983 . S
C220 C216 1.684 . S
H221 C239 0.948 . S
H222 C180 0.948 . S
H223 C198 0.979 . S
H224 C198 0.980 . S
H225 C198 0.983 . S
H226 C197 0.982 . S
H227 C197 0.979 . S
H228 C197 0.977 . S
H229 C199 0.948 . S
H230 C201 0.947 . S
H231 C202 0.948 . S
H232 C208 0.982 . S
H233 C208 0.979 . S
H234 C208 0.977 . S
H235 C209 0.979 . S
H236 C209 0.980 . S
H237 C209 0.983 . S
H238 C182 0.947 . S
C239 C182 1.392 . S
C239 C183 1.419 . S
C239 H221 0.948 . S
C240 C241 1.391 . S
C240 C244 1.391 . S
C240 H282 0.948 . S
C241 C240 1.391 . S
C241 C242 1.391 . S
C242 C241 1.391 . S
C242 H298 0.947 . S
C242 C299 1.392 . S
C243 C244 1.391 . S
C243 C247 1.397 . S
C243 C299 1.419 . S
C244 C240 1.391 . S
C244 C243 1.391 . S
C244 C245 1.399 . S
C245 C244 1.399 . S
C245 C248 1.396 . S
C245 C257 1.453 . S
C245 C258 1.684 . S
H246 C270 0.948 . S
C247 C243 1.397 . S
C247 C248 1.394 . S
C247 C266 1.723 . S
C248 C245 1.396 . S
C248 C247 1.394 . S
C248 C278 1.723 . S
H249 C272 0.947 . S
H250 C273 0.948 . S
H251 C279 0.982 . S
H252 C280 0.979 1_565 S
H253 C280 0.980 . S
H254 C280 0.983 . S
H255 C279 0.979 . S
H256 C279 0.977 . S
C257 C245 1.453 . S
C257 H286 0.982 . S
C257 H287 0.979 . S
C257 H288 0.977 . S
C258 C245 1.684 . S
C258 H283 0.979 . S
C258 H284 0.980 . S
C258 H285 0.983 . S
C259 C260 1.391 . S
C259 C264 1.391 . S
C259 H289 0.948 . S
C260 C259 1.391 . S
C260 C261 1.391 . S
C261 C260 1.391 . S
C261 C262 1.392 . S
C261 H290 0.947 1_565 S
C262 C261 1.392 . S
C262 C263 1.419 . S
C262 H291 0.948 . S
C263 C262 1.419 . S
C263 C264 1.391 . S
C263 C267 1.397 . S
C264 C259 1.391 . S
C264 C263 1.391 . S
C264 C265 1.399 . S
C265 C264 1.399 . S
C265 C266 1.396 . S
C265 C268 1.453 . S
C265 C269 1.684 . S
C266 C247 1.723 . S
C266 C265 1.396 . S
C266 C267 1.394 . S
C267 C263 1.397 . S
C267 C266 1.394 . S
C267 C277 1.723 . S
C268 C265 1.453 . S
C268 H292 0.982 . S
C268 H293 0.924 1_455 S
C268 H294 0.977 . S
C269 C265 1.684 . S
C269 H295 0.979 . S
C269 H296 0.980 . S
C269 H297 0.983 . S
C270 H246 0.948 . S
C270 C271 1.391 . S
C270 C275 1.417 . S
C271 C270 1.391 . S
C271 C272 1.391 1_545 S
C272 H249 0.947 . S
C272 C271 1.391 1_565 S
C272 C273 1.392 . S
C273 H250 0.948 . S
C273 C272 1.392 . S
C273 C274 1.419 . S
C274 C273 1.419 . S
C274 C275 1.364 1_565 S
C274 C278 1.397 . S
C275 C270 1.417 . S
C275 C274 1.364 1_545 S
C275 C276 1.400 1_545 S
C276 C275 1.400 1_565 S
C276 C277 1.402 . S
C276 C279 1.446 1_565 S
C276 C280 1.683 1_565 S
C277 C267 1.723 . S
C277 C276 1.402 . S
C277 C278 1.394 . S
C278 C248 1.723 . S
C278 C274 1.397 . S
C278 C277 1.394 . S
C279 H251 0.982 . S
C279 H255 0.979 . S
C279 H256 0.977 . S
C279 C276 1.446 1_545 S
C280 H252 0.979 1_545 S
C280 H253 0.980 . S
C280 H254 0.983 . S
C280 C276 1.683 1_545 S
H281 C299 0.948 . S
H282 C240 0.948 . S
H283 C258 0.979 . S
H284 C258 0.980 . S
H285 C258 0.983 . S
H286 C257 0.982 . S
H287 C257 0.979 . S
H288 C257 0.977 . S
H289 C259 0.948 . S
H290 C261 0.947 1_545 S
H291 C262 0.948 . S
H292 C268 0.982 . S
H293 C268 0.924 1_655 S
H294 C268 0.977 . S
H295 C269 0.979 . S
H296 C269 0.980 . S
H297 C269 0.983 . S
H298 C242 0.947 . S
C299 C242 1.392 . S
C299 C243 1.419 . S
C299 H281 0.948 . S
C300 C301 1.391 . S
C300 C304 1.391 . S
C300 H342 0.948 . S
C301 C300 1.391 . S
C301 C302 1.391 . S
C302 C301 1.391 . S
C302 H358 0.947 . S
C302 C359 1.392 . S
C303 C304 1.391 . S
C303 C307 1.397 . S
C303 C359 1.419 . S
C304 C300 1.391 . S
C304 C303 1.391 . S
C304 C305 1.399 . S
C305 C304 1.399 . S
C305 C308 1.396 . S
C305 C317 1.453 . S
C305 C318 1.684 . S
H306 C330 0.948 . S
C307 C303 1.397 . S
C307 C308 1.394 . S
C307 C326 1.723 . S
C308 C305 1.396 . S
C308 C307 1.394 . S
C308 C338 1.723 . S
H309 C332 0.947 . S
H310 C333 0.948 . S
H311 C339 0.982 . S
H312 C340 0.979 . S
H313 C340 0.980 . S
H314 C340 0.983 . S
H315 C339 0.979 . S
H316 C339 0.977 . S
C317 C305 1.453 . S
C317 H346 0.982 . S
C317 H347 0.979 . S
C317 H348 0.977 . S
C318 C305 1.684 . S
C318 H343 0.979 . S
C318 H344 0.980 . S
C318 H345 0.983 . S
C319 C320 1.391 . S
C319 C324 1.391 . S
C319 H349 0.948 . S
C320 C319 1.391 . S
C320 C321 1.391 . S
C321 C320 1.391 . S
C321 C322 1.392 . S
C321 H350 0.947 . S
C322 C321 1.392 . S
C322 C323 1.419 . S
C322 H351 0.948 . S
C323 C322 1.419 . S
C323 C324 1.391 . S
C323 C327 1.397 . S
C324 C319 1.391 . S
C324 C323 1.391 . S
C324 C325 1.399 . S
C325 C324 1.399 . S
C325 C326 1.396 . S
C325 C328 1.453 . S
C325 C329 1.684 . S
C326 C307 1.723 . S
C326 C325 1.396 . S
C326 C327 1.394 . S
C327 C323 1.397 . S
C327 C326 1.394 . S
C327 C337 1.723 . S
C328 C325 1.453 . S
C328 H352 0.982 . S
C328 H353 0.979 . S
C328 H354 0.977 . S
C329 C325 1.684 . S
C329 H355 0.979 . S
C329 H356 0.980 . S
C329 H357 0.983 . S
C330 H306 0.948 . S
C330 C331 1.391 . S
C330 C335 1.391 . S
C331 C330 1.391 . S
C331 C332 1.391 . S
C332 H309 0.947 . S
C332 C331 1.391 . S
C332 C333 1.392 . S
C333 H310 0.948 . S
C333 C332 1.392 . S
C333 C334 1.419 . S
C334 C333 1.419 . S
C334 C335 1.391 . S
C334 C338 1.397 . S
C335 C330 1.391 . S
C335 C334 1.391 . S
C335 C336 1.399 . S
C336 C335 1.399 . S
C336 C337 1.396 . S
C336 C339 1.453 . S
C336 C340 1.684 . S
C337 C327 1.723 . S
C337 C336 1.396 . S
C337 C338 1.394 . S
C338 C308 1.723 . S
C338 C334 1.397 . S
C338 C337 1.394 . S
C339 H311 0.982 . S
C339 H315 0.979 . S
C339 H316 0.977 . S
C339 C336 1.453 . S
C340 H312 0.979 . S
C340 H313 0.980 . S
C340 H314 0.983 . S
C340 C336 1.684 . S
H341 C359 0.948 . S
H342 C300 0.948 . S
H343 C318 0.979 . S
H344 C318 0.980 . S
H345 C318 0.983 . S
H346 C317 0.982 . S
H347 C317 0.979 . S
H348 C317 0.977 . S
H349 C319 0.948 . S
H350 C321 0.947 . S
H351 C322 0.948 . S
H352 C328 0.982 . S
H353 C328 0.979 . S
H354 C328 0.977 . S
H355 C329 0.979 . S
H356 C329 0.980 . S
H357 C329 0.983 . S
H358 C302 0.947 . S
C359 C302 1.392 . S
C359 C303 1.419 . S
C359 H341 0.948 . S
C360 C361 1.391 . S
C360 C364 1.391 . S
C360 H402 0.948 . S
C361 C360 1.391 . S
C361 C362 1.391 . S
C362 C361 1.391 . S
C362 H418 0.947 . S
C362 C419 1.392 . S
C363 C364 1.391 . S
C363 C367 1.397 . S
C363 C419 1.419 . S
C364 C360 1.391 . S
C364 C363 1.391 . S
C364 C365 1.399 . S
C365 C364 1.399 . S
C365 C368 1.396 . S
C365 C377 1.453 . S
C365 C378 1.684 . S
H366 C390 0.948 . S
C367 C363 1.397 . S
C367 C368 1.394 . S
C367 C386 1.723 . S
C368 C365 1.396 . S
C368 C367 1.394 . S
C368 C398 1.723 . S
H369 C392 0.947 . S
H370 C393 0.948 . S
H371 C399 0.982 . S
H372 C400 0.979 . S
H373 C400 0.980 . S
H374 C400 0.983 . S
H375 C399 0.997 . S
H376 C399 0.977 . S
C377 C365 1.453 . S
C377 H406 0.982 . S
C377 H407 0.979 . S
C377 H408 0.977 . S
C378 C365 1.684 . S
C378 H403 0.979 . S
C378 H404 0.980 . S
C378 H405 0.983 . S
C379 C380 1.350 1_655 S
C379 C384 1.425 . S
C379 H409 0.958 . S
C380 C379 1.350 1_455 S
C380 C381 1.391 . S
C381 C380 1.391 . S
C381 C382 1.392 . S
C381 H410 0.947 . S
C382 C381 1.392 . S
C382 C383 1.419 1_455 S
C382 H411 0.948 . S
C383 C382 1.419 1_655 S
C383 C384 1.391 . S
C383 C387 1.397 . S
C384 C379 1.425 . S
C384 C383 1.391 . S
C384 C385 1.399 . S
C385 C384 1.399 . S
C385 C386 1.396 . S
C385 C388 1.453 . S
C385 C389 1.684 . S
C386 C367 1.723 . S
C386 C385 1.396 . S
C386 C387 1.394 . S
C387 C383 1.397 . S
C387 C386 1.394 . S
C387 C397 1.723 . S
C388 C385 1.453 . S
C388 H412 0.982 . S
C388 H413 0.979 . S
C388 H414 0.977 . S
C389 C385 1.684 . S
C389 H415 0.979 . S
C389 H416 0.980 . S
C389 H417 0.983 . S
C390 H366 0.948 . S
C390 C391 1.391 . S
C390 C395 1.391 . S
C391 C390 1.391 . S
C391 C392 1.391 . S
C392 H369 0.947 . S
C392 C391 1.391 . S
C392 C393 1.392 . S
C393 H370 0.948 . S
C393 C392 1.392 . S
C393 C394 1.419 . S
C394 C393 1.419 . S
C394 C395 1.391 . S
C394 C398 1.397 . S
C395 C390 1.391 . S
C395 C394 1.391 . S
C395 C396 1.399 . S
C396 C395 1.399 . S
C396 C397 1.396 . S
C396 C399 1.453 . S
C396 C400 1.684 1_655 S
C397 C387 1.723 . S
C397 C396 1.396 . S
C397 C398 1.394 . S
C398 C368 1.723 . S
C398 C394 1.397 . S
C398 C397 1.394 . S
C399 H371 0.982 . S
C399 H375 0.997 . S
C399 H376 0.977 . S
C399 C396 1.453 . S
C400 H372 0.979 . S
C400 H373 0.980 . S
C400 H374 0.983 . S
C400 C396 1.684 1_455 S
H401 C419 0.948 . S
H402 C360 0.948 . S
H403 C378 0.979 . S
H404 C378 0.980 . S
H405 C378 0.983 . S
H406 C377 0.982 . S
H407 C377 0.979 . S
H408 C377 0.977 . S
H409 C379 0.958 . S
H410 C381 0.947 . S
H411 C382 0.948 . S
H412 C388 0.982 . S
H413 C388 0.979 . S
H414 C388 0.977 . S
H415 C389 0.979 . S
H416 C389 0.980 . S
H417 C389 0.983 . S
H418 C362 0.947 . S
C419 C362 1.392 . S
C419 C363 1.419 . S
C419 H401 0.948 . S
C420 C421 1.391 . S
C420 C424 1.391 . S
C420 H462 0.948 . S
C421 C420 1.391 . S
C421 C422 1.391 . S
C422 C421 1.391 . S
C422 H478 0.947 . S
C422 C479 1.392 . S
C423 C424 1.391 . S
C423 C427 1.397 . S
C423 C479 1.419 . S
C424 C420 1.391 . S
C424 C423 1.391 . S
C424 C425 1.399 . S
C425 C424 1.399 . S
C425 C428 1.396 . S
C425 C437 1.453 . S
C425 C438 1.684 . S
H426 C450 0.948 . S
C427 C423 1.397 . S
C427 C428 1.394 . S
C427 C446 1.723 . S
C428 C425 1.396 . S
C428 C427 1.394 . S
C428 C458 1.723 . S
H429 C452 0.947 . S
H430 C453 0.948 . S
H431 C459 0.982 . S
H432 C460 0.979 . S
H433 C460 0.980 . S
H434 C460 0.983 . S
H435 C459 0.979 . S
H436 C459 0.977 . S
C437 C425 1.453 . S
C437 H466 0.982 . S
C437 H467 0.979 . S
C437 H468 0.977 . S
C438 C425 1.684 . S
C438 H463 0.979 . S
C438 H464 0.980 . S
C438 H465 0.983 . S
C439 C440 1.391 . S
C439 C444 1.391 . S
C439 H469 0.948 . S
C440 C439 1.391 . S
C440 C441 1.391 . S
C441 C440 1.391 . S
C441 C442 1.392 . S
C441 H470 0.947 . S
C442 C441 1.392 . S
C442 C443 1.419 . S
C442 H471 0.948 . S
C443 C442 1.419 . S
C443 C444 1.391 . S
C443 C447 1.397 . S
C444 C439 1.391 . S
C444 C443 1.391 . S
C444 C445 1.399 . S
C445 C444 1.399 . S
C445 C446 1.396 . S
C445 C448 1.453 . S
C445 C449 1.684 . S
C446 C427 1.723 . S
C446 C445 1.396 . S
C446 C447 1.394 . S
C447 C443 1.397 . S
C447 C446 1.394 . S
C447 C457 1.723 . S
C448 C445 1.453 . S
C448 H472 0.982 . S
C448 H473 0.979 . S
C448 H474 0.977 . S
C449 C445 1.684 . S
C449 H475 0.979 . S
C449 H476 0.980 . S
C449 H477 0.983 . S
C450 H426 0.948 . S
C450 C451 1.391 . S
C450 C455 1.391 . S
C451 C450 1.391 . S
C451 C452 1.391 . S
C452 H429 0.947 . S
C452 C451 1.391 . S
C452 C453 1.392 . S
C453 H430 0.948 . S
C453 C452 1.392 . S
C453 C454 1.419 . S
C454 C453 1.419 . S
C454 C455 1.391 . S
C454 C458 1.397 . S
C455 C450 1.391 . S
C455 C454 1.391 . S
C455 C456 1.399 . S
C456 C455 1.399 . S
C456 C457 1.396 . S
C456 C459 1.453 . S
C456 C460 1.684 . S
C457 C447 1.723 . S
C457 C456 1.396 . S
C457 C458 1.394 . S
C458 C428 1.723 . S
C458 C454 1.397 . S
C458 C457 1.394 . S
C459 H431 0.982 . S
C459 H435 0.979 . S
C459 H436 0.977 . S
C459 C456 1.453 . S
C460 H432 0.979 . S
C460 H433 0.980 . S
C460 H434 0.983 . S
C460 C456 1.684 . S
H461 C479 0.948 . S
H462 C420 0.948 . S
H463 C438 0.979 . S
H464 C438 0.980 . S
H465 C438 0.983 . S
H466 C437 0.982 . S
H467 C437 0.979 . S
H468 C437 0.977 . S
H469 C439 0.948 . S
H470 C441 0.947 . S
H471 C442 0.948 . S
H472 C448 0.982 . S
H473 C448 0.979 . S
H474 C448 0.977 . S
H475 C449 0.979 . S
H476 C449 0.980 . S
H477 C449 0.983 . S
H478 C422 0.947 . S
C479 C422 1.392 . S
C479 C423 1.419 . S
C479 H461 0.948 . S
C480 C481 1.391 . S
C480 C484 1.391 . S
C480 H522 0.948 . S
C481 C480 1.391 . S
C481 C482 1.391 . S
C482 C481 1.391 . S
C482 H538 0.947 . S
C482 C539 1.392 . S
C483 C484 1.391 . S
C483 C487 1.397 . S
C483 C539 1.419 . S
C484 C480 1.391 . S
C484 C483 1.391 . S
C484 C485 1.399 . S
C485 C484 1.399 . S
C485 C488 1.396 . S
C485 C497 1.453 . S
C485 C498 1.684 . S
H486 C510 0.948 . S
C487 C483 1.397 . S
C487 C488 1.394 . S
C487 C506 1.723 . S
C488 C485 1.396 . S
C488 C487 1.394 . S
C488 C518 1.723 . S
H489 C512 0.947 . S
H490 C513 0.948 . S
H491 C519 0.982 . S
H492 C520 0.979 . S
H493 C520 0.980 . S
H494 C520 0.983 . S
H495 C519 0.979 . S
H496 C519 0.977 . S
C497 C485 1.453 . S
C497 H526 0.982 . S
C497 H527 0.979 . S
C497 H528 0.977 . S
C498 C485 1.684 . S
C498 H523 0.979 . S
C498 H524 0.980 . S
C498 H525 0.983 . S
C499 C500 1.391 . S
C499 C504 1.391 . S
C499 H529 0.948 . S
C500 C499 1.391 . S
C500 C501 1.391 . S
C501 C500 1.391 . S
C501 C502 1.392 . S
C501 H530 0.947 . S
C502 C501 1.392 . S
C502 C503 1.419 . S
C502 H531 0.948 . S
C503 C502 1.419 . S
C503 C504 1.391 . S
C503 C507 1.397 . S
C504 C499 1.391 . S
C504 C503 1.391 . S
C504 C505 1.399 . S
C505 C504 1.399 . S
C505 C506 1.396 . S
C505 C508 1.453 . S
C505 C509 1.684 . S
C506 C487 1.723 . S
C506 C505 1.396 . S
C506 C507 1.394 . S
C507 C503 1.397 . S
C507 C506 1.394 . S
C507 C517 1.723 . S
C508 C505 1.453 . S
C508 H532 0.982 . S
C508 H533 0.979 . S
C508 H534 0.977 . S
C509 C505 1.684 . S
C509 H535 0.979 . S
C509 H536 0.980 . S
C509 H537 0.983 . S
C510 H486 0.948 . S
C510 C511 1.391 . S
C510 C515 1.391 . S
C511 C510 1.391 . S
C511 C512 1.391 . S
C512 H489 0.947 . S
C512 C511 1.391 . S
C512 C513 1.392 . S
C513 H490 0.948 . S
C513 C512 1.392 . S
C513 C514 1.419 . S
C514 C513 1.419 . S
C514 C515 1.391 . S
C514 C518 1.397 . S
C515 C510 1.391 . S
C515 C514 1.391 . S
C515 C516 1.399 . S
C516 C515 1.399 . S
C516 C517 1.396 . S
C516 C519 1.453 . S
C516 C520 1.684 . S
C517 C507 1.723 . S
C517 C516 1.396 . S
C517 C518 1.394 . S
C518 C488 1.723 . S
C518 C514 1.397 . S
C518 C517 1.394 . S
C519 H491 0.982 . S
C519 H495 0.979 . S
C519 H496 0.977 . S
C519 C516 1.453 . S
C520 H492 0.979 . S
C520 H493 0.980 . S
C520 H494 0.983 . S
C520 C516 1.684 . S
H521 C539 0.948 . S
H522 C480 0.948 . S
H523 C498 0.979 . S
H524 C498 0.980 . S
H525 C498 0.983 . S
H526 C497 0.982 . S
H527 C497 0.979 . S
H528 C497 0.977 . S
H529 C499 0.948 . S
H530 C501 0.947 . S
H531 C502 0.948 . S
H532 C508 0.982 . S
H533 C508 0.979 . S
H534 C508 0.977 . S
H535 C509 0.979 . S
H536 C509 0.980 . S
H537 C509 0.983 . S
H538 C482 0.947 . S
C539 C482 1.392 . S
C539 C483 1.419 . S
C539 H521 0.948 . S
C540 C541 1.391 . S
C540 C544 1.391 . S
C540 H582 0.948 . S
C541 C540 1.391 . S
C541 C542 1.391 . S
C542 C541 1.391 . S
C542 H598 0.947 . S
C542 C599 1.392 . S
C543 C544 1.391 . S
C543 C547 1.397 . S
C543 C599 1.419 . S
C544 C540 1.391 . S
C544 C543 1.391 . S
C544 C545 1.399 . S
C545 C544 1.399 . S
C545 C548 1.396 . S
C545 C557 1.453 . S
C545 C558 1.684 . S
H546 C570 0.948 . S
C547 C543 1.397 . S
C547 C548 1.394 . S
C547 C566 1.723 . S
C548 C545 1.396 . S
C548 C547 1.394 . S
C548 C578 1.723 . S
H549 C572 0.947 . S
H550 C573 0.948 . S
H551 C579 0.982 . S
H552 C580 0.979 . S
H553 C580 0.980 . S
H554 C580 0.983 . S
H555 C579 0.979 . S
H556 C579 0.977 . S
C557 C545 1.453 . S
C557 H586 0.982 . S
C557 H587 0.979 . S
C557 H588 0.977 . S
C558 C545 1.684 . S
C558 H583 0.979 . S
C558 H584 0.980 . S
C558 H585 0.983 . S
C559 C560 1.391 1_565 S
C559 C564 1.391 . S
C559 H589 0.948 . S
C560 C559 1.391 1_545 S
C560 C561 1.391 . S
C561 C560 1.391 . S
C561 C562 1.392 . S
C561 H590 0.947 . S
C562 C561 1.392 . S
C562 C563 1.419 1_545 S
C562 H591 0.948 . S
C563 C562 1.419 1_565 S
C563 C564 1.391 . S
C563 C567 1.397 . S
C564 C559 1.391 . S
C564 C563 1.391 . S
C564 C565 1.399 . S
C565 C564 1.399 . S
C565 C566 1.396 . S
C565 C568 1.453 . S
C565 C569 1.684 . S
C566 C547 1.723 . S
C566 C565 1.396 . S
C566 C567 1.394 . S
C567 C563 1.397 . S
C567 C566 1.394 . S
C567 C577 1.723 . S
C568 C565 1.453 . S
C568 H592 0.982 . S
C568 H593 0.979 . S
C568 H594 0.977 . S
C569 C565 1.684 . S
C569 H595 0.979 . S
C569 H596 0.980 . S
C569 H597 0.983 . S
C570 H546 0.948 . S
C570 C571 1.391 . S
C570 C575 1.391 . S
C571 C570 1.391 . S
C571 C572 1.391 . S
C572 H549 0.947 . S
C572 C571 1.391 . S
C572 C573 1.392 . S
C573 H550 0.948 . S
C573 C572 1.392 . S
C573 C574 1.419 . S
C574 C573 1.419 . S
C574 C575 1.391 . S
C574 C578 1.397 . S
C575 C570 1.391 . S
C575 C574 1.391 . S
C575 C576 1.399 . S
C576 C575 1.399 . S
C576 C577 1.396 . S
C576 C579 1.453 . S
C576 C580 1.684 1_565 S
C577 C567 1.723 . S
C577 C576 1.396 . S
C577 C578 1.394 . S
C578 C548 1.723 . S
C578 C574 1.397 . S
C578 C577 1.394 . S
C579 H551 0.982 . S
C579 H555 0.979 . S
C579 H556 0.977 . S
C579 C576 1.453 . S
C580 H552 0.979 . S
C580 H553 0.980 . S
C580 H554 0.983 . S
C580 C576 1.684 1_545 S
H581 C599 0.948 . S
H582 C540 0.948 . S
H583 C558 0.979 . S
H584 C558 0.980 . S
H585 C558 0.983 . S
H586 C557 0.982 . S
H587 C557 0.979 . S
H588 C557 0.977 . S
H589 C559 0.948 . S
H590 C561 0.947 . S
H591 C562 0.948 . S
H592 C568 0.982 . S
H593 C568 0.979 . S
H594 C568 0.977 . S
H595 C569 0.979 . S
H596 C569 0.980 . S
H597 C569 0.983 . S
H598 C542 0.947 . S
C599 C542 1.392 . S
C599 C543 1.419 . S
C599 H581 0.948 . S
C600 C601 1.391 . S
C600 C604 1.391 . S
C600 H642 0.948 . S
C601 C600 1.391 . S
C601 C602 1.391 . S
C602 C601 1.391 . S
C602 H658 0.947 . S
C602 C659 1.392 . S
C603 C604 1.391 . S
C603 C607 1.397 . S
C603 C659 1.419 . S
C604 C600 1.391 . S
C604 C603 1.391 . S
C604 C605 1.399 . S
C605 C604 1.399 . S
C605 C608 1.396 . S
C605 C617 1.453 . S
C605 C618 1.684 . S
H606 C630 0.948 . S
C607 C603 1.397 . S
C607 C608 1.394 . S
C607 C626 1.723 . S
C608 C605 1.396 . S
C608 C607 1.394 . S
C608 C638 1.723 . S
H609 C632 0.947 . S
H610 C633 0.948 . S
H611 C639 0.982 . S
H612 C640 0.979 . S
H613 C640 0.980 . S
H614 C640 0.983 . S
H615 C639 0.979 . S
H616 C639 0.977 . S
C617 C605 1.453 . S
C617 H646 0.982 . S
C617 H647 0.979 . S
C617 H648 0.977 . S
C618 C605 1.684 . S
C618 H643 0.979 . S
C618 H644 0.980 . S
C618 H645 0.983 . S
C619 C620 1.391 . S
C619 C624 1.391 . S
C619 H649 0.948 . S
C620 C619 1.391 . S
C620 C621 1.391 . S
C621 C620 1.391 . S
C621 C622 1.392 . S
C621 H650 0.947 . S
C622 C621 1.392 . S
C622 C623 1.419 . S
C622 H651 0.948 . S
C623 C622 1.419 . S
C623 C624 1.391 . S
C623 C627 1.397 . S
C624 C619 1.391 . S
C624 C623 1.391 . S
C624 C625 1.399 . S
C625 C624 1.399 . S
C625 C626 1.396 . S
C625 C628 1.453 . S
C625 C629 1.684 . S
C626 C607 1.723 . S
C626 C625 1.396 . S
C626 C627 1.394 . S
C627 C623 1.397 . S
C627 C626 1.394 . S
C627 C637 1.723 . S
C628 C625 1.453 . S
C628 H652 0.982 . S
C628 H653 0.979 . S
C628 H654 0.977 . S
C629 C625 1.684 . S
C629 H655 0.979 . S
C629 H656 0.980 . S
C629 H657 0.983 . S
C630 H606 0.948 . S
C630 C631 1.391 . S
C630 C635 1.391 . S
C631 C630 1.391 . S
C631 C632 1.391 . S
C632 H609 0.947 . S
C632 C631 1.391 . S
C632 C633 1.392 . S
C633 H610 0.948 . S
C633 C632 1.392 . S
C633 C634 1.419 . S
C634 C633 1.419 . S
C634 C635 1.391 . S
C634 C638 1.397 . S
C635 C630 1.391 . S
C635 C634 1.391 . S
C635 C636 1.399 . S
C636 C635 1.399 . S
C636 C637 1.396 . S
C636 C639 1.453 . S
C636 C640 1.684 . S
C637 C627 1.723 . S
C637 C636 1.396 . S
C637 C638 1.394 . S
C638 C608 1.723 . S
C638 C634 1.397 . S
C638 C637 1.394 . S
C639 H611 0.982 . S
C639 H615 0.979 . S
C639 H616 0.977 . S
C639 C636 1.453 . S
C640 H612 0.979 . S
C640 H613 0.980 . S
C640 H614 0.983 . S
C640 C636 1.684 . S
H641 C659 0.948 . S
H642 C600 0.948 . S
H643 C618 0.979 . S
H644 C618 0.980 . S
H645 C618 0.983 . S
H646 C617 0.982 . S
H647 C617 0.979 . S
H648 C617 0.977 . S
H649 C619 0.948 . S
H650 C621 0.947 . S
H651 C622 0.948 . S
H652 C628 0.982 . S
H653 C628 0.979 . S
H654 C628 0.977 . S
H655 C629 0.979 . S
H656 C629 0.980 . S
H657 C629 0.983 . S
H658 C602 0.947 . S
C659 C602 1.392 . S
C659 C603 1.419 . S
C659 H641 0.948 . S
C660 C661 1.391 . S
C660 C664 1.391 . S
C660 H702 0.948 . S
C661 C660 1.391 . S
C661 C662 1.391 . S
C662 C661 1.391 . S
C662 H718 0.947 . S
C662 C719 1.392 . S
C663 C664 1.391 . S
C663 C667 1.397 . S
C663 C719 1.419 . S
C664 C660 1.391 . S
C664 C663 1.391 . S
C664 C665 1.399 . S
C665 C664 1.399 . S
C665 C668 1.396 . S
C665 C677 1.453 . S
C665 C678 1.684 . S
H666 C690 0.948 . S
C667 C663 1.397 . S
C667 C668 1.394 . S
C667 C686 1.723 . S
C668 C665 1.396 . S
C668 C667 1.394 . S
C668 C698 1.723 . S
H669 C692 0.947 . S
H670 C693 0.948 . S
H671 C699 0.982 . S
H672 C700 0.979 . S
H673 C700 0.980 . S
H674 C700 0.983 . S
H675 C699 0.979 . S
H676 C699 0.977 . S
C677 C665 1.453 . S
C677 H706 0.982 . S
C677 H707 0.979 . S
C677 H708 0.977 . S
C678 C665 1.684 . S
C678 H703 0.979 . S
C678 H704 0.980 . S
C678 H705 0.983 . S
C679 C680 1.391 . S
C679 C684 1.391 . S
C679 H709 0.948 . S
C680 C679 1.391 . S
C680 C681 1.391 . S
C681 C680 1.391 . S
C681 C682 1.392 . S
C681 H710 0.947 . S
C682 C681 1.392 . S
C682 C683 1.419 . S
C682 H711 0.948 . S
C683 C682 1.419 . S
C683 C684 1.391 . S
C683 C687 1.397 . S
C684 C679 1.391 . S
C684 C683 1.391 . S
C684 C685 1.399 . S
C685 C684 1.399 . S
C685 C686 1.396 . S
C685 C688 1.453 . S
C685 C689 1.684 . S
C686 C667 1.723 . S
C686 C685 1.396 . S
C686 C687 1.394 . S
C687 C683 1.397 . S
C687 C686 1.394 . S
C687 C697 1.723 . S
C688 C685 1.453 . S
C688 H712 0.982 . S
C688 H713 0.979 . S
C688 H714 0.977 . S
C689 C685 1.684 . S
C689 H715 0.979 . S
C689 H716 0.980 . S
C689 H717 0.983 . S
C690 H666 0.948 . S
C690 C691 1.391 . S
C690 C695 1.391 . S
C691 C690 1.391 . S
C691 C692 1.391 . S
C692 H669 0.947 . S
C692 C691 1.391 . S
C692 C693 1.392 . S
C693 H670 0.948 . S
C693 C692 1.392 . S
C693 C694 1.419 . S
C694 C693 1.419 . S
C694 C695 1.391 . S
C694 C698 1.397 . S
C695 C690 1.391 . S
C695 C694 1.391 . S
C695 C696 1.399 . S
C696 C695 1.399 . S
C696 C697 1.396 . S
C696 C699 1.453 . S
C696 C700 1.684 . S
C697 C687 1.723 . S
C697 C696 1.396 . S
C697 C698 1.394 . S
C698 C668 1.723 . S
C698 C694 1.397 . S
C698 C697 1.394 . S
C699 H671 0.982 . S
C699 H675 0.979 . S
C699 H676 0.977 . S
C699 C696 1.453 . S
C700 H672 0.979 . S
C700 H673 0.980 . S
C700 H674 0.983 . S
C700 C696 1.684 . S
H701 C719 0.948 . S
H702 C660 0.948 . S
H703 C678 0.979 . S
H704 C678 0.980 . S
H705 C678 0.983 . S
H706 C677 0.982 . S
H707 C677 0.979 . S
H708 C677 0.977 . S
H709 C679 0.948 . S
H710 C681 0.947 . S
H711 C682 0.948 . S
H712 C688 0.982 . S
H713 C688 0.979 . S
H714 C688 0.977 . S
H715 C689 0.979 . S
H716 C689 0.980 . S
H717 C689 0.983 . S
H718 C662 0.947 . S
C719 C662 1.392 . S
C719 C663 1.419 . S
C719 H701 0.948 . S
C720 C721 1.391 . S
C720 C724 1.391 . S
C720 H762 0.948 . S
C721 C720 1.391 . S
C721 C722 1.391 . S
C722 C721 1.391 . S
C722 H778 0.947 . S
C722 C779 1.392 . S
C723 C724 1.391 . S
C723 C727 1.397 . S
C723 C779 1.419 . S
C724 C720 1.391 . S
C724 C723 1.391 . S
C724 C725 1.399 . S
C725 C724 1.399 . S
C725 C728 1.396 . S
C725 C737 1.453 . S
C725 C738 1.684 . S
H726 C750 0.948 . S
C727 C723 1.397 . S
C727 C728 1.394 . S
C727 C746 1.723 . S
C728 C725 1.396 . S
C728 C727 1.394 . S
C728 C758 1.723 . S
H729 C752 0.947 . S
H730 C753 0.948 . S
H731 C759 0.982 . S
H732 C760 0.979 . S
H733 C760 0.980 . S
H734 C760 0.983 . S
H735 C759 0.979 . S
H736 C759 0.977 . S
C737 C725 1.453 . S
C737 H766 0.982 . S
C737 H767 0.979 . S
C737 H768 0.977 . S
C738 C725 1.684 . S
C738 H763 0.979 . S
C738 H764 0.980 . S
C738 H765 0.983 . S
C739 C740 1.391 . S
C739 C744 1.391 . S
C739 H769 0.948 . S
C740 C739 1.391 . S
C740 C741 1.391 . S
C741 C740 1.391 . S
C741 C742 1.392 . S
C741 H770 0.947 . S
C742 C741 1.392 . S
C742 C743 1.419 . S
C742 H771 0.948 . S
C743 C742 1.419 . S
C743 C744 1.391 . S
C743 C747 1.397 . S
C744 C739 1.391 . S
C744 C743 1.391 . S
C744 C745 1.399 . S
C745 C744 1.399 . S
C745 C746 1.396 . S
C745 C748 1.453 . S
C745 C749 1.684 . S
C746 C727 1.723 . S
C746 C745 1.396 . S
C746 C747 1.394 . S
C747 C743 1.397 . S
C747 C746 1.394 . S
C747 C757 1.723 . S
C748 C745 1.453 . S
C748 H772 0.982 . S
C748 H773 0.979 . S
C748 H774 0.977 . S
C749 C745 1.684 . S
C749 H775 0.979 . S
C749 H776 0.980 . S
C749 H777 0.983 . S
C750 H726 0.948 . S
C750 C751 1.391 . S
C750 C755 1.391 . S
C751 C750 1.391 . S
C751 C752 1.391 . S
C752 H729 0.947 . S
C752 C751 1.391 . S
C752 C753 1.392 . S
C753 H730 0.948 . S
C753 C752 1.392 . S
C753 C754 1.419 . S
C754 C753 1.419 . S
C754 C755 1.391 . S
C754 C758 1.397 . S
C755 C750 1.391 . S
C755 C754 1.391 . S
C755 C756 1.399 . S
C756 C755 1.399 . S
C756 C757 1.396 . S
C756 C759 1.453 . S
C756 C760 1.684 . S
C757 C747 1.723 . S
C757 C756 1.396 . S
C757 C758 1.394 . S
C758 C728 1.723 . S
C758 C754 1.397 . S
C758 C757 1.394 . S
C759 H731 0.982 . S
C759 H735 0.979 . S
C759 H736 0.977 . S
C759 C756 1.453 . S
C760 H732 0.979 . S
C760 H733 0.980 . S
C760 H734 0.983 . S
C760 C756 1.684 . S
H761 C779 0.948 . S
H762 C720 0.948 . S
H763 C738 0.979 . S
H764 C738 0.980 . S
H765 C738 0.983 . S
H766 C737 0.982 . S
H767 C737 0.979 . S
H768 C737 0.977 . S
H769 C739 0.948 . S
H770 C741 0.947 . S
H771 C742 0.948 . S
H772 C748 0.982 . S
H773 C748 0.979 . S
H774 C748 0.977 . S
H775 C749 0.979 . S
H776 C749 0.980 . S
H777 C749 0.983 . S
H778 C722 0.947 . S
C779 C722 1.392 . S
C779 C723 1.419 . S
C779 H761 0.948 . S
C780 C781 1.391 . S
C780 C784 1.391 1_554 S
C780 H822 0.948 . S
C781 C780 1.391 . S
C781 C782 1.391 1_554 S
C782 C781 1.391 1_556 S
C782 H838 0.947 . S
C782 C839 1.392 . S
C783 C784 1.391 . S
C783 C787 1.397 . S
C783 C839 1.419 . S
C784 C780 1.391 1_556 S
C784 C783 1.391 . S
C784 C785 1.399 . S
C785 C784 1.399 . S
C785 C788 1.396 . S
C785 C797 1.453 1_556 S
C785 C798 1.684 . S
H786 C810 0.948 . S
C787 C783 1.397 . S
C787 C788 1.394 . S
C787 C806 1.723 . S
C788 C785 1.396 . S
C788 C787 1.394 . S
C788 C818 1.723 . S
H789 C812 0.947 . S
H790 C813 0.948 . S
H791 C819 0.982 . S
H792 C820 0.979 . S
H793 C820 0.980 . S
H794 C820 0.983 . S
H795 C819 0.979 . S
H796 C819 0.977 . S
C797 C785 1.453 1_554 S
C797 H826 0.982 . S
C797 H827 0.979 . S
C797 H828 0.977 . S
C798 C785 1.684 . S
C798 H823 0.979 . S
C798 H824 0.980 . S
C798 H825 0.983 1_556 S
C799 C800 1.391 . S
C799 C804 1.391 . S
C799 H829 0.948 . S
C800 C799 1.391 . S
C800 C801 1.391 . S
C801 C800 1.391 . S
C801 C802 1.392 . S
C801 H830 0.947 . S
C802 C801 1.392 . S
C802 C803 1.419 . S
C802 H831 0.948 . S
C803 C802 1.419 . S
C803 C804 1.391 . S
C803 C807 1.397 . S
C804 C799 1.391 . S
C804 C803 1.391 . S
C804 C805 1.399 . S
C805 C804 1.399 . S
C805 C806 1.396 . S
C805 C808 1.453 . S
C805 C809 1.684 . S
C806 C787 1.723 . S
C806 C805 1.396 . S
C806 C807 1.394 . S
C807 C803 1.397 . S
C807 C806 1.394 . S
C807 C817 1.723 . S
C808 C805 1.453 . S
C808 H832 0.982 . S
C808 H833 0.979 . S
C808 H834 0.977 . S
C809 C805 1.684 . S
C809 H835 0.979 . S
C809 H836 0.980 . S
C809 H837 0.983 . S
C810 H786 0.948 . S
C810 C811 1.391 . S
C810 C815 1.391 . S
C811 C810 1.391 . S
C811 C812 1.391 . S
C812 H789 0.947 . S
C812 C811 1.391 . S
C812 C813 1.392 . S
C813 H790 0.948 . S
C813 C812 1.392 . S
C813 C814 1.419 . S
C814 C813 1.419 . S
C814 C815 1.391 . S
C814 C818 1.397 . S
C815 C810 1.391 . S
C815 C814 1.391 . S
C815 C816 1.399 . S
C816 C815 1.399 . S
C816 C817 1.396 . S
C816 C819 1.453 . S
C816 C820 1.684 . S
C817 C807 1.723 . S
C817 C816 1.396 . S
C817 C818 1.394 . S
C818 C788 1.723 . S
C818 C814 1.397 . S
C818 C817 1.394 . S
C819 H791 0.982 . S
C819 H795 0.979 . S
C819 H796 0.977 . S
C819 C816 1.453 . S
C820 H792 0.979 . S
C820 H793 0.980 . S
C820 H794 0.983 . S
C820 C816 1.684 . S
H821 C839 0.948 . S
H822 C780 0.948 . S
H823 C798 0.979 . S
H824 C798 0.980 . S
H825 C798 0.983 1_554 S
H826 C797 0.982 . S
H827 C797 0.979 . S
H828 C797 0.977 . S
H829 C799 0.948 . S
H830 C801 0.947 . S
H831 C802 0.948 . S
H832 C808 0.982 . S
H833 C808 0.979 . S
H834 C808 0.977 . S
H835 C809 0.979 . S
H836 C809 0.980 . S
H837 C809 0.983 . S
H838 C782 0.947 . S
C839 C782 1.392 . S
C839 C783 1.419 . S
C839 H821 0.948 . S
C840 C841 1.391 . S
C840 C844 1.391 . S
C840 H882 0.948 . S
C841 C840 1.391 . S
C841 C842 1.391 . S
C842 C841 1.391 . S
C842 H898 0.947 . S
C842 C899 1.392 . S
C843 C844 1.391 . S
C843 C847 1.397 . S
C843 C899 1.419 . S
C844 C840 1.391 . S
C844 C843 1.391 . S
C844 C845 1.399 . S
C845 C844 1.399 . S
C845 C848 1.396 . S
C845 C857 1.453 . S
C845 C858 1.684 . S
H846 C870 0.948 . S
C847 C843 1.397 . S
C847 C848 1.394 . S
C847 C866 1.723 . S
C848 C845 1.396 . S
C848 C847 1.394 . S
C848 C878 1.723 . S
H849 C872 0.947 . S
H850 C873 0.948 . S
H851 C879 0.982 . S
H852 C880 0.979 . S
H853 C880 0.980 . S
H854 C880 0.983 . S
H855 C879 0.979 . S
H856 C879 0.977 . S
C857 C845 1.453 . S
C857 H886 0.982 . S
C857 H887 0.979 . S
C857 H888 0.977 . S
C858 C845 1.684 . S
C858 H883 0.979 . S
C858 H884 0.980 . S
C858 H885 0.983 . S
C859 C860 1.391 . S
C859 C864 1.391 . S
C859 H889 0.948 . S
C860 C859 1.391 . S
C860 C861 1.391 . S
C861 C860 1.391 . S
C861 C862 1.392 . S
C861 H890 0.947 . S
C862 C861 1.392 . S
C862 C863 1.419 . S
C862 H891 0.948 . S
C863 C862 1.419 . S
C863 C864 1.391 . S
C863 C867 1.397 . S
C864 C859 1.391 . S
C864 C863 1.391 . S
C864 C865 1.399 . S
C865 C864 1.399 . S
C865 C866 1.396 . S
C865 C868 1.453 . S
C865 C869 1.684 . S
C866 C847 1.723 . S
C866 C865 1.396 . S
C866 C867 1.394 . S
C867 C863 1.397 . S
C867 C866 1.394 . S
C867 C877 1.723 . S
C868 C865 1.453 . S
C868 H892 0.982 . S
C868 H893 0.979 . S
C868 H894 0.977 . S
C869 C865 1.684 . S
C869 H895 0.979 . S
C869 H896 0.980 . S
C869 H897 0.983 . S
C870 H846 0.948 . S
C870 C871 1.391 . S
C870 C875 1.391 . S
C871 C870 1.391 . S
C871 C872 1.391 . S
C872 H849 0.947 . S
C872 C871 1.391 . S
C872 C873 1.392 . S
C873 H850 0.948 . S
C873 C872 1.392 . S
C873 C874 1.419 . S
C874 C873 1.419 . S
C874 C875 1.391 . S
C874 C878 1.397 . S
C875 C870 1.391 . S
C875 C874 1.391 . S
C875 C876 1.399 . S
C876 C875 1.399 . S
C876 C877 1.396 . S
C876 C879 1.453 . S
C876 C880 1.684 . S
C877 C867 1.723 . S
C877 C876 1.396 . S
C877 C878 1.394 . S
C878 C848 1.723 . S
C878 C874 1.397 . S
C878 C877 1.394 . S
C879 H851 0.982 . S
C879 H855 0.979 . S
C879 H856 0.977 . S
C879 C876 1.453 . S
C880 H852 0.979 . S
C880 H853 0.980 . S
C880 H854 0.983 . S
C880 C876 1.684 . S
H881 C899 0.948 . S
H882 C840 0.948 . S
H883 C858 0.979 . S
H884 C858 0.980 . S
H885 C858 0.983 . S
H886 C857 0.982 . S
H887 C857 0.979 . S
H888 C857 0.977 . S
H889 C859 0.948 . S
H890 C861 0.947 . S
H891 C862 0.948 . S
H892 C868 0.982 . S
H893 C868 0.979 . S
H894 C868 0.977 . S
H895 C869 0.979 . S
H896 C869 0.980 . S
H897 C869 0.983 . S
H898 C842 0.947 . S
C899 C842 1.392 . S
C899 C843 1.419 . S
C899 H881 0.948 . S
C900 C901 1.349 1_545 S
C900 C904 1.421 . S
C900 H942 0.963 . S
C901 C900 1.349 1_565 S
C901 C902 1.391 . S
C902 C901 1.391 . S
C902 H958 0.947 . S
C902 C959 1.392 . S
C903 C904 1.391 . S
C903 C907 1.397 . S
C903 C959 1.419 1_545 S
C904 C900 1.421 . S
C904 C903 1.391 . S
C904 C905 1.399 . S
C905 C904 1.399 . S
C905 C908 1.396 . S
C905 C917 1.453 . S
C905 C918 1.684 1_556 S
H906 C930 0.934 1_556 S
C907 C903 1.397 . S
C907 C908 1.394 . S
C907 C926 1.723 . S
C908 C905 1.396 . S
C908 C907 1.394 . S
C908 C938 1.723 . S
H909 C932 0.947 . S
H910 C933 0.948 . S
H911 C939 0.982 . S
H912 C940 0.979 . S
H913 C940 0.980 . S
H914 C940 0.983 . S
H915 C939 0.979 . S
H916 C939 0.977 . S
C917 C905 1.453 . S
C917 H946 0.982 . S
C917 H947 0.999 . S
C917 H948 0.977 . S
C918 C905 1.684 1_554 S
C918 H943 0.979 . S
C918 H944 0.980 . S
C918 H945 0.983 . S
C919 C920 1.391 . S
C919 C924 1.391 . S
C919 H949 0.948 . S
C920 C919 1.391 . S
C920 C921 1.391 . S
C921 C920 1.391 . S
C921 C922 1.392 . S
C921 H950 0.947 . S
C922 C921 1.392 . S
C922 C923 1.419 . S
C922 H951 0.948 . S
C923 C922 1.419 . S
C923 C924 1.391 . S
C923 C927 1.397 . S
C924 C919 1.391 . S
C924 C923 1.391 . S
C924 C925 1.399 . S
C925 C924 1.399 . S
C925 C926 1.396 . S
C925 C928 1.453 . S
C925 C929 1.684 1_545 S
C926 C907 1.723 . S
C926 C925 1.396 . S
C926 C927 1.394 . S
C927 C923 1.397 . S
C927 C926 1.394 . S
C927 C937 1.723 . S
C928 C925 1.453 . S
C928 H952 0.982 . S
C928 H953 0.953 1_545 S
C928 H954 0.977 . S
C929 C925 1.684 1_565 S
C929 H955 0.979 . S
C929 H956 0.980 . S
C929 H957 0.983 . S
C930 H906 0.934 1_554 S
C930 C931 1.391 . S
C930 C935 1.391 1_554 S
C931 C930 1.391 . S
C931 C932 1.391 . S
C932 H909 0.947 . S
C932 C931 1.391 . S
C932 C933 1.392 . S
C933 H910 0.948 . S
C933 C932 1.392 . S
C933 C934 1.419 1_554 S
C934 C933 1.419 1_556 S
C934 C935 1.391 . S
C934 C938 1.397 . S
C935 C930 1.391 1_556 S
C935 C934 1.391 . S
C935 C936 1.399 . S
C936 C935 1.399 . S
C936 C937 1.396 . S
C936 C939 1.453 . S
C936 C940 1.684 . S
C937 C927 1.723 . S
C937 C936 1.396 . S
C937 C938 1.394 . S
C938 C908 1.723 . S
C938 C934 1.397 . S
C938 C937 1.394 . S
C939 H911 0.982 . S
C939 H915 0.979 . S
C939 H916 0.977 . S
C939 C936 1.453 . S
C940 H912 0.979 . S
C940 H913 0.980 . S
C940 H914 0.983 . S
C940 C936 1.684 . S
H941 C959 0.948 . S
H942 C900 0.963 . S
H943 C918 0.979 . S
H944 C918 0.980 . S
H945 C918 0.983 . S
H946 C917 0.982 . S
H947 C917 0.999 . S
H948 C917 0.977 . S
H949 C919 0.948 . S
H950 C921 0.947 . S
H951 C922 0.948 . S
H952 C928 0.982 . S
H953 C928 0.953 1_565 S
H954 C928 0.977 . S
H955 C929 0.979 . S
H956 C929 0.980 . S
H957 C929 0.983 . S
H958 C902 0.947 . S
C959 C902 1.392 . S
C959 C903 1.419 1_565 S
C959 H941 0.948 . S
Mg960 O961 2.035 . S
Mg960 O967 1.986 1_554 S
Mg960 O969 2.114 . S
Mg960 O970 2.251 . S
Mg960 O973 2.010 . S
O961 Mg960 2.035 . S
O961 C964 1.244 1_554 S
O962 Mg963 2.028 . S
O962 C964 1.248 . S
Mg963 O962 2.028 . S
Mg963 O968 2.032 . S
Mg963 O970 2.079 1_556 S
C964 O961 1.244 1_556 S
C964 O962 1.248 . S
C965 O966 1.264 . S
C965 O973 1.249 . S
O966 C965 1.264 . S
O967 Mg960 1.986 1_556 S
O967 C971 1.246 . S
O968 Mg963 2.032 . S
O968 C971 1.259 . S
O969 Mg960 2.114 . S
O969 C972 1.252 . S
O970 Mg960 2.251 . S
O970 Mg963 2.079 1_554 S
O970 C972 1.273 . S
C971 O967 1.246 . S
C971 O968 1.259 . S
C972 O969 1.252 . S
C972 O970 1.273 . S
O973 Mg960 2.010 . S
O973 C965 1.249 . S
Mg974 O975 2.028 . S
Mg974 O981 1.986 . S
Mg974 O983 2.114 . S
Mg974 O984 2.251 . S
Mg974 O987 2.010 . S
O975 Mg974 2.028 . S
O975 C978 1.250 . S
O976 Mg977 2.028 . S
O976 C978 1.248 . S
Mg977 O976 2.028 . S
Mg977 O982 2.032 . S
Mg977 O984 2.079 . S
C978 O975 1.250 . S
C978 O976 1.248 . S
C979 O980 1.264 . S
C979 O987 1.249 . S
O980 C979 1.264 . S
O981 Mg974 1.986 . S
O981 C985 1.246 . S
O982 Mg977 2.032 . S
O982 C985 1.259 . S
O983 Mg974 2.114 . S
O983 C986 1.252 . S
O984 Mg974 2.251 . S
O984 Mg977 2.079 . S
O984 C986 1.273 . S
C985 O981 1.246 . S
C985 O982 1.259 . S
C986 O983 1.252 . S
C986 O984 1.273 . S
O987 Mg974 2.010 . S
O987 C979 1.249 . S
Mg988 O989 2.028 . S
Mg988 O995 1.986 1_554 S
Mg988 O997 2.114 . S
Mg988 O998 2.251 . S
Mg988 O1001 2.010 . S
O989 Mg988 2.028 . S
O989 C992 1.250 . S
O990 Mg991 2.030 . S
O990 C992 1.246 1_556 S
Mg991 O990 2.030 . S
Mg991 O996 2.032 . S
Mg991 O998 2.079 1_556 S
C992 O989 1.250 . S
C992 O990 1.246 1_554 S
C993 O994 1.264 . S
C993 O1001 1.249 . S
O994 C993 1.264 . S
O995 Mg988 1.986 1_556 S
O995 C999 1.246 . S
O996 Mg991 2.032 . S
O996 C999 1.259 . S
O997 Mg988 2.114 . S
O997 C1000 1.252 . S
O998 Mg988 2.251 . S
O998 Mg991 2.079 1_554 S
O998 C1000 1.273 . S
C999 O995 1.246 . S
C999 O996 1.259 . S
C1000 O997 1.252 . S
C1000 O998 1.273 . S
O1001 Mg988 2.010 . S
O1001 C993 1.249 . S
Mg1002 O1003 2.028 . S
Mg1002 O1009 1.986 . S
Mg1002 O1011 2.114 . S
Mg1002 O1012 2.251 . S
Mg1002 O1015 2.010 . S
O1003 Mg1002 2.028 . S
O1003 C1006 1.250 1_545 S
O1004 Mg1005 2.028 . S
O1004 C1006 1.248 . S
Mg1005 O1004 2.028 . S
Mg1005 O1010 2.032 . S
Mg1005 O1012 2.079 1_565 S
C1006 O1003 1.250 1_565 S
C1006 O1004 1.248 . S
C1007 O1008 1.264 . S
C1007 O1015 1.249 . S
O1008 C1007 1.264 . S
O1009 Mg1002 1.986 . S
O1009 C1013 1.246 . S
O1010 Mg1005 2.032 . S
O1010 C1013 1.259 1_565 S
O1011 Mg1002 2.114 . S
O1011 C1014 1.252 . S
O1012 Mg1002 2.251 . S
O1012 Mg1005 2.079 1_545 S
O1012 C1014 1.273 . S
C1013 O1009 1.246 . S
C1013 O1010 1.259 1_545 S
C1014 O1011 1.252 . S
C1014 O1012 1.273 . S
O1015 Mg1002 2.010 . S
O1015 C1007 1.249 . S
Mg1016 O1017 2.028 . S
Mg1016 O1023 1.986 . S
Mg1016 O1025 2.114 . S
Mg1016 O1026 2.251 . S
Mg1016 O1029 2.010 . S
O1017 Mg1016 2.028 . S
O1017 C1020 1.250 . S
O1018 Mg1019 2.028 . S
O1018 C1020 1.248 . S
Mg1019 O1018 2.028 . S
Mg1019 O1024 2.032 . S
Mg1019 O1026 2.079 . S
C1020 O1017 1.250 . S
C1020 O1018 1.248 . S
C1021 O1022 1.264 . S
C1021 O1029 1.249 . S
O1022 C1021 1.264 . S
O1023 Mg1016 1.986 . S
O1023 C1027 1.246 . S
O1024 Mg1019 2.032 . S
O1024 C1027 1.259 . S
O1025 Mg1016 2.114 . S
O1025 C1028 1.252 . S
O1026 Mg1016 2.251 . S
O1026 Mg1019 2.079 . S
O1026 C1028 1.273 . S
C1027 O1023 1.246 . S
C1027 O1024 1.259 . S
C1028 O1025 1.252 . S
C1028 O1026 1.273 . S
O1029 Mg1016 2.010 . S
O1029 C1021 1.249 . S
Mg1030 O1031 2.028 . S
Mg1030 O1037 1.986 . S
Mg1030 O1039 2.114 . S
Mg1030 O1040 2.251 . S
Mg1030 O1043 2.010 . S
O1031 Mg1030 2.028 . S
O1031 C1034 1.250 . S
O1032 Mg1033 2.028 . S
O1032 C1034 1.248 . S
Mg1033 O1032 2.028 . S
Mg1033 O1038 2.032 . S
Mg1033 O1040 2.079 . S
C1034 O1031 1.250 . S
C1034 O1032 1.248 . S
C1035 O1036 1.264 . S
C1035 O1043 1.249 . S
O1036 C1035 1.264 . S
O1037 Mg1030 1.986 . S
O1037 C1041 1.246 . S
O1038 Mg1033 2.032 . S
O1038 C1041 1.259 . S
O1039 Mg1030 2.114 . S
O1039 C1042 1.252 . S
O1040 Mg1030 2.251 . S
O1040 Mg1033 2.079 . S
O1040 C1042 1.273 . S
C1041 O1037 1.246 . S
C1041 O1038 1.259 . S
C1042 O1039 1.252 . S
C1042 O1040 1.273 . S
O1043 Mg1030 2.010 . S
O1043 C1035 1.249 . S
Mg1044 O1045 2.028 . S
Mg1044 O1051 1.986 . S
Mg1044 O1053 2.114 . S
Mg1044 O1054 2.251 . S
Mg1044 O1057 2.010 . S
O1045 Mg1044 2.028 . S
O1045 C1048 1.250 . S
O1046 Mg1047 2.028 . S
O1046 C1048 1.248 . S
Mg1047 O1046 2.028 . S
Mg1047 O1052 2.032 . S
Mg1047 O1054 2.079 . S
C1048 O1045 1.250 . S
C1048 O1046 1.248 . S
C1049 O1050 1.264 . S
C1049 O1057 1.249 . S
O1050 C1049 1.264 . S
O1051 Mg1044 1.986 . S
O1051 C1055 1.246 . S
O1052 Mg1047 2.032 . S
O1052 C1055 1.259 . S
O1053 Mg1044 2.114 . S
O1053 C1056 1.252 . S
O1054 Mg1044 2.251 . S
O1054 Mg1047 2.079 . S
O1054 C1056 1.273 . S
C1055 O1051 1.246 . S
C1055 O1052 1.259 . S
C1056 O1053 1.252 . S
C1056 O1054 1.273 . S
O1057 Mg1044 2.010 . S
O1057 C1049 1.249 . S
Mg1058 O1059 2.028 1_545 S
Mg1058 O1065 1.986 1_545 S
Mg1058 O1067 2.114 . S
Mg1058 O1068 2.251 . S
Mg1058 O1071 2.010 . S
O1059 Mg1058 2.028 1_565 S
O1059 C1062 1.250 . S
O1060 Mg1061 2.028 . S
O1060 C1062 1.248 . S
Mg1061 O1060 2.028 . S
Mg1061 O1066 2.032 . S
Mg1061 O1068 2.079 1_565 S
C1062 O1059 1.250 . S
C1062 O1060 1.248 . S
C1063 O1064 1.264 . S
C1063 O1071 1.249 . S
O1064 C1063 1.264 . S
O1065 Mg1058 1.986 1_565 S
O1065 C1069 1.246 . S
O1066 Mg1061 2.032 . S
O1066 C1069 1.259 . S
O1067 Mg1058 2.114 . S
O1067 C1070 1.252 . S
O1068 Mg1058 2.251 . S
O1068 Mg1061 2.079 1_545 S
O1068 C1070 1.273 . S
C1069 O1065 1.246 . S
C1069 O1066 1.259 . S
C1070 O1067 1.252 . S
C1070 O1068 1.273 . S
O1071 Mg1058 2.010 . S
O1071 C1063 1.249 . S
Mg1072 O1073 2.028 . S
Mg1072 O1079 1.986 . S
Mg1072 O1081 2.114 . S
Mg1072 O1082 2.251 . S
Mg1072 O1085 2.010 . S
O1073 Mg1072 2.028 . S
O1073 C1076 1.250 1_455 S
O1074 Mg1075 2.028 . S
O1074 C1076 1.248 . S
Mg1075 O1074 2.028 . S
Mg1075 O1080 2.032 . S
Mg1075 O1082 2.079 1_655 S
C1076 O1073 1.250 1_655 S
C1076 O1074 1.248 . S
C1077 O1078 1.264 . S
C1077 O1085 1.249 . S
O1078 C1077 1.264 . S
O1079 Mg1072 1.986 . S
O1079 C1083 1.246 . S
O1080 Mg1075 2.032 . S
O1080 C1083 1.259 1_655 S
O1081 Mg1072 2.114 . S
O1081 C1084 1.252 . S
O1082 Mg1072 2.251 . S
O1082 Mg1075 2.079 1_455 S
O1082 C1084 1.273 . S
C1083 O1079 1.246 . S
C1083 O1080 1.259 1_455 S
C1084 O1081 1.252 . S
C1084 O1082 1.273 . S
O1085 Mg1072 2.010 . S
O1085 C1077 1.249 . S
Mg1086 O1087 2.028 . S
Mg1086 O1093 1.986 . S
Mg1086 O1095 2.114 . S
Mg1086 O1096 2.251 . S
Mg1086 O1099 2.010 . S
O1087 Mg1086 2.028 . S
O1087 C1090 1.250 . S
O1088 Mg1089 2.028 . S
O1088 C1090 1.248 . S
Mg1089 O1088 2.028 . S
Mg1089 O1094 2.032 . S
Mg1089 O1096 2.079 . S
C1090 O1087 1.250 . S
C1090 O1088 1.248 . S
C1091 O1092 1.264 . S
C1091 O1099 1.249 . S
O1092 C1091 1.264 . S
O1093 Mg1086 1.986 . S
O1093 C1097 1.246 . S
O1094 Mg1089 2.032 . S
O1094 C1097 1.259 . S
O1095 Mg1086 2.114 . S
O1095 C1098 1.252 . S
O1096 Mg1086 2.251 . S
O1096 Mg1089 2.079 . S
O1096 C1098 1.273 . S
C1097 O1093 1.246 . S
C1097 O1094 1.259 . S
C1098 O1095 1.252 . S
C1098 O1096 1.273 . S
O1099 Mg1086 2.010 . S
O1099 C1091 1.249 . S
Mg1100 O1101 2.028 1_655 S
Mg1100 O1107 2.000 . S
Mg1100 O1109 2.114 . S
Mg1100 O1110 2.251 1_655 S
Mg1100 O1113 2.010 . S
O1101 Mg1100 2.028 1_455 S
O1101 C1104 1.250 . S
O1102 Mg1103 2.028 . S
O1102 C1104 1.248 . S
Mg1103 O1102 2.028 . S
Mg1103 O1108 2.032 . S
Mg1103 O1110 2.079 . S
C1104 O1101 1.250 . S
C1104 O1102 1.248 . S
C1105 O1106 1.264 . S
C1105 O1113 1.249 . S
O1106 C1105 1.264 . S
O1107 Mg1100 2.000 . S
O1107 C1111 1.207 1_655 S
O1108 Mg1103 2.032 . S
O1108 C1111 1.259 . S
O1109 Mg1100 2.114 . S
O1109 C1112 1.252 . S
O1110 Mg1100 2.251 1_455 S
O1110 Mg1103 2.079 . S
O1110 C1112 1.273 1_455 S
C1111 O1107 1.207 1_455 S
C1111 O1108 1.259 . S
C1112 O1109 1.252 . S
C1112 O1110 1.273 1_655 S
O1113 Mg1100 2.010 . S
O1113 C1105 1.249 . S
Mg1114 O1115 2.028 . S
Mg1114 O1121 1.986 . S
Mg1114 O1123 2.114 . S
Mg1114 O1124 2.251 . S
Mg1114 O1127 2.010 . S
O1115 Mg1114 2.028 . S
O1115 C1118 1.250 . S
O1116 Mg1117 2.028 . S
O1116 C1118 1.248 . S
Mg1117 O1116 2.028 . S
Mg1117 O1122 2.032 . S
Mg1117 O1124 2.079 . S
C1118 O1115 1.250 . S
C1118 O1116 1.248 . S
C1119 O1120 1.264 . S
C1119 O1127 1.249 . S
O1120 C1119 1.264 . S
O1121 Mg1114 1.986 . S
O1121 C1125 1.246 . S
O1122 Mg1117 2.032 . S
O1122 C1125 1.259 . S
O1123 Mg1114 2.114 . S
O1123 C1126 1.252 . S
O1124 Mg1114 2.251 . S
O1124 Mg1117 2.079 . S
O1124 C1126 1.273 . S
C1125 O1121 1.246 . S
C1125 O1122 1.259 . S
C1126 O1123 1.252 . S
C1126 O1124 1.273 . S
O1127 Mg1114 2.010 . S
O1127 C1119 1.249 . S
H1128 C1136 0.929 . S
H1129 C1138 0.930 . S
H1130 C1140 0.930 . S
H1131 C1143 0.929 . S
H1132 C1146 0.930 . S
H1133 C1148 0.960 . S
H1134 C1148 0.960 . S
H1135 C1148 0.960 . S
C1136 H1128 0.929 . S
C1136 C1137 1.377 . S
C1136 C1138 1.384 . S
C1137 C1136 1.377 . S
C1137 C1143 1.390 . S
C1138 H1129 0.930 . S
C1138 C1136 1.384 . S
C1138 C1139 1.372 . S
C1139 C1138 1.372 . S
C1139 C1140 1.400 . S
C1139 C1144 1.490 . S
C1140 H1130 0.930 . S
C1140 C1139 1.400 . S
C1140 C1143 1.386 . S
H1141 C1157 0.930 . S
H1142 C1158 0.931 . S
C1143 H1131 0.929 . S
C1143 C1137 1.390 . S
C1143 C1140 1.386 . S
C1144 C1139 1.490 . S
C1144 C1146 1.395 . S
C1144 C1147 1.403 . S
H1145 C1151 0.930 . S
C1146 H1132 0.930 . S
C1146 C1144 1.395 . S
C1146 C1149 1.403 . S
C1147 C1144 1.403 . S
C1147 C1148 1.524 . S
C1147 C1151 1.400 . S
C1148 H1133 0.960 . S
C1148 H1134 0.960 . S
C1148 H1135 0.960 . S
C1148 C1147 1.524 . S
C1149 C1146 1.403 . S
C1149 C1150 1.392 . S
C1149 C1153 1.495 . S
C1150 C1149 1.392 . S
C1150 C1151 1.385 . S
C1150 C1152 1.478 . S
C1151 H1145 0.930 . S
C1151 C1147 1.400 . S
C1151 C1150 1.385 . S
C1152 C1150 1.478 . S
C1152 C1154 1.381 . S
C1152 C1158 1.383 . S
C1153 C1149 1.495 . S
C1153 H1159 0.959 . S
C1153 H1160 0.961 . S
C1153 H1161 0.960 . S
C1154 C1152 1.381 . S
C1154 C1155 1.394 . S
C1154 H1162 0.930 . S
C1155 C1154 1.394 . S
C1155 C1156 1.383 . S
C1155 H1163 0.929 . S
C1156 C1155 1.383 . S
C1156 C1157 1.377 . S
C1157 H1141 0.930 . S
C1157 C1156 1.377 . S
C1157 C1158 1.379 . S
C1158 H1142 0.931 . S
C1158 C1152 1.383 . S
C1158 C1157 1.379 . S
H1159 C1153 0.959 . S
H1160 C1153 0.961 . S
H1161 C1153 0.960 . S
H1162 C1154 0.930 . S
H1163 C1155 0.929 . S
H1164 C1172 0.929 . S
H1165 C1174 0.930 . S
H1166 C1176 0.930 . S
H1167 C1179 0.929 . S
H1168 C1182 0.930 . S
H1169 C1184 0.960 . S
H1170 C1184 0.960 . S
H1171 C1184 0.960 . S
C1172 H1164 0.929 . S
C1172 C1173 1.377 . S
C1172 C1174 1.384 . S
C1173 C1172 1.377 . S
C1173 C1179 1.390 . S
C1174 H1165 0.930 . S
C1174 C1172 1.384 . S
C1174 C1175 1.372 . S
C1175 C1174 1.372 . S
C1175 C1176 1.400 . S
C1175 C1180 1.490 . S
C1176 H1166 0.930 . S
C1176 C1175 1.400 . S
C1176 C1179 1.386 . S
H1177 C1193 0.930 . S
H1178 C1194 0.931 . S
C1179 H1167 0.929 . S
C1179 C1173 1.390 . S
C1179 C1176 1.386 . S
C1180 C1175 1.490 . S
C1180 C1182 1.395 . S
C1180 C1183 1.403 . S
H1181 C1187 0.930 . S
C1182 H1168 0.930 . S
C1182 C1180 1.395 . S
C1182 C1185 1.403 . S
C1183 C1180 1.403 . S
C1183 C1184 1.524 . S
C1183 C1187 1.400 . S
C1184 H1169 0.960 . S
C1184 H1170 0.960 . S
C1184 H1171 0.960 . S
C1184 C1183 1.524 . S
C1185 C1182 1.403 . S
C1185 C1186 1.392 . S
C1185 C1189 1.495 . S
C1186 C1185 1.392 . S
C1186 C1187 1.385 . S
C1186 C1188 1.478 . S
C1187 H1181 0.930 . S
C1187 C1183 1.400 . S
C1187 C1186 1.385 . S
C1188 C1186 1.478 . S
C1188 C1190 1.381 . S
C1188 C1194 1.383 . S
C1189 C1185 1.495 . S
C1189 H1195 0.959 . S
C1189 H1196 0.961 . S
C1189 H1197 0.960 . S
C1190 C1188 1.381 . S
C1190 C1191 1.394 . S
C1190 H1198 0.930 . S
C1191 C1190 1.394 . S
C1191 C1192 1.383 . S
C1191 H1199 0.929 . S
C1192 C1191 1.383 . S
C1192 C1193 1.377 . S
C1193 H1177 0.930 . S
C1193 C1192 1.377 . S
C1193 C1194 1.379 . S
C1194 H1178 0.931 . S
C1194 C1188 1.383 . S
C1194 C1193 1.379 . S
H1195 C1189 0.959 . S
H1196 C1189 0.961 . S
H1197 C1189 0.960 . S
H1198 C1190 0.930 . S
H1199 C1191 0.929 . S
H1200 C1208 0.929 . S
H1201 C1210 0.930 . S
H1202 C1212 0.930 . S
H1203 C1215 0.929 . S
H1204 C1218 0.930 . S
H1205 C1220 0.960 . S
H1206 C1220 0.960 . S
H1207 C1220 0.960 . S
C1208 H1200 0.929 . S
C1208 C1209 1.377 . S
C1208 C1210 1.384 . S
C1209 C1208 1.377 . S
C1209 C1215 1.390 . S
C1210 H1201 0.930 . S
C1210 C1208 1.384 . S
C1210 C1211 1.372 . S
C1211 C1210 1.372 . S
C1211 C1212 1.400 . S
C1211 C1216 1.490 . S
C1212 H1202 0.930 . S
C1212 C1211 1.400 . S
C1212 C1215 1.386 . S
H1213 C1229 0.930 . S
H1214 C1230 0.931 . S
C1215 H1203 0.929 . S
C1215 C1209 1.390 . S
C1215 C1212 1.386 . S
C1216 C1211 1.490 . S
C1216 C1218 1.395 . S
C1216 C1219 1.403 . S
H1217 C1223 0.930 . S
C1218 H1204 0.930 . S
C1218 C1216 1.395 . S
C1218 C1221 1.403 . S
C1219 C1216 1.403 . S
C1219 C1220 1.524 . S
C1219 C1223 1.400 . S
C1220 H1205 0.960 . S
C1220 H1206 0.960 . S
C1220 H1207 0.960 . S
C1220 C1219 1.524 . S
C1221 C1218 1.403 . S
C1221 C1222 1.392 . S
C1221 C1225 1.495 . S
C1222 C1221 1.392 . S
C1222 C1223 1.385 . S
C1222 C1224 1.478 . S
C1223 H1217 0.930 . S
C1223 C1219 1.400 . S
C1223 C1222 1.385 . S
C1224 C1222 1.478 . S
C1224 C1226 1.381 . S
C1224 C1230 1.383 . S
C1225 C1221 1.495 . S
C1225 H1231 0.959 . S
C1225 H1232 0.961 . S
C1225 H1233 0.960 . S
C1226 C1224 1.381 . S
C1226 C1227 1.394 . S
C1226 H1234 0.930 . S
C1227 C1226 1.394 . S
C1227 C1228 1.383 . S
C1227 H1235 0.929 . S
C1228 C1227 1.383 . S
C1228 C1229 1.377 . S
C1229 H1213 0.930 . S
C1229 C1228 1.377 . S
C1229 C1230 1.379 . S
C1230 H1214 0.931 . S
C1230 C1224 1.383 . S
C1230 C1229 1.379 . S
H1231 C1225 0.959 . S
H1232 C1225 0.961 . S
H1233 C1225 0.960 . S
H1234 C1226 0.930 . S
H1235 C1227 0.929 . S
H1236 C1244 0.901 1_545 S
H1237 C1246 0.930 1_545 S
H1238 C1248 0.930 . S
H1239 C1251 0.929 . S
H1240 C1254 0.930 . S
H1241 C1256 0.960 . S
H1242 C1256 0.960 . S
H1243 C1256 0.960 . S
C1244 H1236 0.901 1_565 S
C1244 C1245 1.377 . S
C1244 C1246 1.384 . S
C1245 C1244 1.377 . S
C1245 C1251 1.390 1_655 S
C1246 H1237 0.930 1_565 S
C1246 C1244 1.384 . S
C1246 C1247 1.372 . S
C1247 C1246 1.372 . S
C1247 C1248 1.400 . S
C1247 C1252 1.490 . S
C1248 H1238 0.930 . S
C1248 C1247 1.400 . S
C1248 C1251 1.386 1_655 S
H1249 C1265 0.924 1_565 S
H1250 C1266 0.931 . S
C1251 H1239 0.929 . S
C1251 C1245 1.390 1_455 S
C1251 C1248 1.386 1_455 S
C1252 C1247 1.490 . S
C1252 C1254 1.395 1_565 S
C1252 C1255 1.403 . S
H1253 C1259 0.930 . S
C1254 H1240 0.930 . S
C1254 C1252 1.395 1_545 S
C1254 C1257 1.403 . S
C1255 C1252 1.403 . S
C1255 C1256 1.524 . S
C1255 C1259 1.400 . S
C1256 H1241 0.960 . S
C1256 H1242 0.960 . S
C1256 H1243 0.960 . S
C1256 C1255 1.524 . S
C1257 C1254 1.403 . S
C1257 C1258 1.392 . S
C1257 C1261 1.495 . S
C1258 C1257 1.392 . S
C1258 C1259 1.385 1_545 S
C1258 C1260 1.478 . S
C1259 H1253 0.930 . S
C1259 C1255 1.400 . S
C1259 C1258 1.385 1_565 S
C1260 C1258 1.478 . S
C1260 C1262 1.381 . S
C1260 C1266 1.383 1_545 S
C1261 C1257 1.495 . S
C1261 H1267 0.959 . S
C1261 H1268 0.961 . S
C1261 H1269 0.960 . S
C1262 C1260 1.381 . S
C1262 C1263 1.394 . S
C1262 H1270 0.930 . S
C1263 C1262 1.394 . S
C1263 C1264 1.383 . S
C1263 H1271 0.929 . S
C1264 C1263 1.383 . S
C1264 C1265 1.384 . S
C1265 H1249 0.924 1_545 S
C1265 C1264 1.384 . S
C1265 C1266 1.378 1_545 S
C1266 H1250 0.931 . S
C1266 C1260 1.383 1_565 S
C1266 C1265 1.378 1_565 S
H1267 C1261 0.959 . S
H1268 C1261 0.961 . S
H1269 C1261 0.960 . S
H1270 C1262 0.930 . S
H1271 C1263 0.929 . S
H1272 C1280 0.929 . S
H1273 C1282 0.930 . S
H1274 C1284 0.930 . S
H1275 C1287 0.929 . S
H1276 C1290 0.930 . S
H1277 C1292 0.960 . S
H1278 C1292 0.960 . S
H1279 C1292 0.960 . S
C1280 H1272 0.929 . S
C1280 C1281 1.377 . S
C1280 C1282 1.384 . S
C1281 C1280 1.377 . S
C1281 C1287 1.390 . S
C1282 H1273 0.930 . S
C1282 C1280 1.384 . S
C1282 C1283 1.372 . S
C1283 C1282 1.372 . S
C1283 C1284 1.400 . S
C1283 C1288 1.490 . S
C1284 H1274 0.930 . S
C1284 C1283 1.400 . S
C1284 C1287 1.386 . S
H1285 C1301 0.930 . S
H1286 C1302 0.931 . S
C1287 H1275 0.929 . S
C1287 C1281 1.390 . S
C1287 C1284 1.386 . S
C1288 C1283 1.490 . S
C1288 C1290 1.395 . S
C1288 C1291 1.403 . S
H1289 C1295 0.930 . S
C1290 H1276 0.930 . S
C1290 C1288 1.395 . S
C1290 C1293 1.403 . S
C1291 C1288 1.403 . S
C1291 C1292 1.524 . S
C1291 C1295 1.400 . S
C1292 H1277 0.960 . S
C1292 H1278 0.960 . S
C1292 H1279 0.960 . S
C1292 C1291 1.524 . S
C1293 C1290 1.403 . S
C1293 C1294 1.392 . S
C1293 C1297 1.495 . S
C1294 C1293 1.392 . S
C1294 C1295 1.385 . S
C1294 C1296 1.478 . S
C1295 H1289 0.930 . S
C1295 C1291 1.400 . S
C1295 C1294 1.385 . S
C1296 C1294 1.478 . S
C1296 C1298 1.381 . S
C1296 C1302 1.383 . S
C1297 C1293 1.495 . S
C1297 H1303 0.959 . S
C1297 H1304 0.961 . S
C1297 H1305 0.960 . S
C1298 C1296 1.381 . S
C1298 C1299 1.394 . S
C1298 H1306 0.930 . S
C1299 C1298 1.394 . S
C1299 C1300 1.383 . S
C1299 H1307 0.929 . S
C1300 C1299 1.383 . S
C1300 C1301 1.377 . S
C1301 H1285 0.930 . S
C1301 C1300 1.377 . S
C1301 C1302 1.379 . S
C1302 H1286 0.931 . S
C1302 C1296 1.383 . S
C1302 C1301 1.379 . S
H1303 C1297 0.959 . S
H1304 C1297 0.961 . S
H1305 C1297 0.960 . S
H1306 C1298 0.930 . S
H1307 C1299 0.929 . S
H1308 C1316 0.929 . S
H1309 C1318 0.930 . S
H1310 C1320 0.930 . S
H1311 C1323 0.929 . S
H1312 C1326 0.930 . S
H1313 C1328 0.960 . S
H1314 C1328 0.960 . S
H1315 C1328 0.960 . S
C1316 H1308 0.929 . S
C1316 C1317 1.377 . S
C1316 C1318 1.384 . S
C1317 C1316 1.377 . S
C1317 C1323 1.390 . S
C1318 H1309 0.930 . S
C1318 C1316 1.384 . S
C1318 C1319 1.372 . S
C1319 C1318 1.372 . S
C1319 C1320 1.400 . S
C1319 C1324 1.490 . S
C1320 H1310 0.930 . S
C1320 C1319 1.400 . S
C1320 C1323 1.386 . S
H1321 C1337 0.930 . S
H1322 C1338 0.931 . S
C1323 H1311 0.929 . S
C1323 C1317 1.390 . S
C1323 C1320 1.386 . S
C1324 C1319 1.490 . S
C1324 C1326 1.395 . S
C1324 C1327 1.403 . S
H1325 C1331 0.930 . S
C1326 H1312 0.930 . S
C1326 C1324 1.395 . S
C1326 C1329 1.403 . S
C1327 C1324 1.403 . S
C1327 C1328 1.524 . S
C1327 C1331 1.400 . S
C1328 H1313 0.960 . S
C1328 H1314 0.960 . S
C1328 H1315 0.960 . S
C1328 C1327 1.524 . S
C1329 C1326 1.403 . S
C1329 C1330 1.392 . S
C1329 C1333 1.495 . S
C1330 C1329 1.392 . S
C1330 C1331 1.385 . S
C1330 C1332 1.478 . S
C1331 H1325 0.930 . S
C1331 C1327 1.400 . S
C1331 C1330 1.385 . S
C1332 C1330 1.478 . S
C1332 C1334 1.381 . S
C1332 C1338 1.383 . S
C1333 C1329 1.495 . S
C1333 H1339 0.959 . S
C1333 H1340 0.961 . S
C1333 H1341 0.960 . S
C1334 C1332 1.381 . S
C1334 C1335 1.394 . S
C1334 H1342 0.930 . S
C1335 C1334 1.394 . S
C1335 C1336 1.383 . S
C1335 H1343 0.929 . S
C1336 C1335 1.383 . S
C1336 C1337 1.377 . S
C1337 H1321 0.930 . S
C1337 C1336 1.377 . S
C1337 C1338 1.379 . S
C1338 H1322 0.931 . S
C1338 C1332 1.383 . S
C1338 C1337 1.379 . S
H1339 C1333 0.959 . S
H1340 C1333 0.961 . S
H1341 C1333 0.960 . S
H1342 C1334 0.930 . S
H1343 C1335 0.929 . S
H1344 C1352 0.929 . S
H1345 C1354 0.930 . S
H1346 C1356 0.930 . S
H1347 C1359 0.929 . S
H1348 C1362 0.930 . S
H1349 C1364 0.960 . S
H1350 C1364 0.960 . S
H1351 C1364 0.960 . S
C1352 H1344 0.929 . S
C1352 C1353 1.377 . S
C1352 C1354 1.384 . S
C1353 C1352 1.377 . S
C1353 C1359 1.390 . S
C1354 H1345 0.930 . S
C1354 C1352 1.384 . S
C1354 C1355 1.372 . S
C1355 C1354 1.372 . S
C1355 C1356 1.400 . S
C1355 C1360 1.490 . S
C1356 H1346 0.930 . S
C1356 C1355 1.400 . S
C1356 C1359 1.386 . S
H1357 C1373 0.930 . S
H1358 C1374 0.931 . S
C1359 H1347 0.929 . S
C1359 C1353 1.390 . S
C1359 C1356 1.386 . S
C1360 C1355 1.490 . S
C1360 C1362 1.395 . S
C1360 C1363 1.403 . S
H1361 C1367 0.930 . S
C1362 H1348 0.930 . S
C1362 C1360 1.395 . S
C1362 C1365 1.403 . S
C1363 C1360 1.403 . S
C1363 C1364 1.524 . S
C1363 C1367 1.400 . S
C1364 H1349 0.960 . S
C1364 H1350 0.960 . S
C1364 H1351 0.960 . S
C1364 C1363 1.524 . S
C1365 C1362 1.403 . S
C1365 C1366 1.392 . S
C1365 C1369 1.495 . S
C1366 C1365 1.392 . S
C1366 C1367 1.385 . S
C1366 C1368 1.478 . S
C1367 H1361 0.930 . S
C1367 C1363 1.400 . S
C1367 C1366 1.385 . S
C1368 C1366 1.478 . S
C1368 C1370 1.381 . S
C1368 C1374 1.383 . S
C1369 C1365 1.495 . S
C1369 H1375 0.959 . S
C1369 H1376 0.961 . S
C1369 H1377 0.960 . S
C1370 C1368 1.381 . S
C1370 C1371 1.394 . S
C1370 H1378 0.930 . S
C1371 C1370 1.394 . S
C1371 C1372 1.383 . S
C1371 H1379 0.929 . S
C1372 C1371 1.383 . S
C1372 C1373 1.377 . S
C1373 H1357 0.930 . S
C1373 C1372 1.377 . S
C1373 C1374 1.379 . S
C1374 H1358 0.931 . S
C1374 C1368 1.383 . S
C1374 C1373 1.379 . S
H1375 C1369 0.959 . S
H1376 C1369 0.961 . S
H1377 C1369 0.960 . S
H1378 C1370 0.930 . S
H1379 C1371 0.929 . S
H1380 C1388 0.929 . S
H1381 C1390 0.930 . S
H1382 C1392 0.930 . S
H1383 C1395 0.929 . S
H1384 C1398 0.930 1_545 S
H1385 C1400 0.960 . S
H1386 C1400 0.960 . S
H1387 C1400 0.960 . S
C1388 H1380 0.929 . S
C1388 C1389 1.377 . S
C1388 C1390 1.384 . S
C1389 C1388 1.377 . S
C1389 C1395 1.390 . S
C1390 H1381 0.930 . S
C1390 C1388 1.384 . S
C1390 C1391 1.372 . S
C1391 C1390 1.372 . S
C1391 C1392 1.400 . S
C1391 C1396 1.490 . S
C1392 H1382 0.930 . S
C1392 C1391 1.400 . S
C1392 C1395 1.386 . S
H1393 C1409 0.915 1_545 S
H1394 C1410 0.931 . S
C1395 H1383 0.929 . S
C1395 C1389 1.390 . S
C1395 C1392 1.386 . S
C1396 C1391 1.490 . S
C1396 C1398 1.395 . S
C1396 C1399 1.403 . S
H1397 C1403 0.930 . S
C1398 H1384 0.930 1_565 S
C1398 C1396 1.395 . S
C1398 C1401 1.400 1_565 S
C1399 C1396 1.403 . S
C1399 C1400 1.524 . S
C1399 C1403 1.400 . S
C1400 H1385 0.960 . S
C1400 H1386 0.960 . S
C1400 H1387 0.960 . S
C1400 C1399 1.524 . S
C1401 C1398 1.400 1_545 S
C1401 C1402 1.379 1_545 S
C1401 C1405 1.513 . S
C1402 C1401 1.379 1_565 S
C1402 C1403 1.385 . S
C1402 C1404 1.478 . S
C1403 H1397 0.930 . S
C1403 C1399 1.400 . S
C1403 C1402 1.385 . S
C1404 C1402 1.478 . S
C1404 C1406 1.381 . S
C1404 C1410 1.383 . S
C1405 C1401 1.513 . S
C1405 H1411 0.959 . S
C1405 H1412 0.961 . S
C1405 H1413 0.960 . S
C1406 C1404 1.381 . S
C1406 C1407 1.394 . S
C1406 H1414 0.930 . S
C1407 C1406 1.394 . S
C1407 C1408 1.383 . S
C1407 H1415 0.929 . S
C1408 C1407 1.383 . S
C1408 C1409 1.377 . S
C1409 H1393 0.915 1_565 S
C1409 C1408 1.377 . S
C1409 C1410 1.379 . S
C1410 H1394 0.931 . S
C1410 C1404 1.383 . S
C1410 C1409 1.379 . S
H1411 C1405 0.959 . S
H1412 C1405 0.961 . S
H1413 C1405 0.960 . S
H1414 C1406 0.930 . S
H1415 C1407 0.929 . S
H1416 C1424 0.929 . S
H1417 C1426 0.930 . S
H1418 C1428 0.930 . S
H1419 C1431 0.929 . S
H1420 C1434 0.930 . S
H1421 C1436 0.960 . S
H1422 C1436 0.960 . S
H1423 C1436 0.960 . S
C1424 H1416 0.929 . S
C1424 C1425 1.377 . S
C1424 C1426 1.384 . S
C1425 C1424 1.377 . S
C1425 C1431 1.390 . S
C1426 H1417 0.930 . S
C1426 C1424 1.384 . S
C1426 C1427 1.372 . S
C1427 C1426 1.372 . S
C1427 C1428 1.400 . S
C1427 C1432 1.490 . S
C1428 H1418 0.930 . S
C1428 C1427 1.400 . S
C1428 C1431 1.386 . S
H1429 C1445 0.930 . S
H1430 C1446 0.931 . S
C1431 H1419 0.929 . S
C1431 C1425 1.390 . S
C1431 C1428 1.386 . S
C1432 C1427 1.490 . S
C1432 C1434 1.395 . S
C1432 C1435 1.403 . S
H1433 C1439 0.930 . S
C1434 H1420 0.930 . S
C1434 C1432 1.395 . S
C1434 C1437 1.403 . S
C1435 C1432 1.403 . S
C1435 C1436 1.524 . S
C1435 C1439 1.400 . S
C1436 H1421 0.960 . S
C1436 H1422 0.960 . S
C1436 H1423 0.960 . S
C1436 C1435 1.524 . S
C1437 C1434 1.403 . S
C1437 C1438 1.392 . S
C1437 C1441 1.495 . S
C1438 C1437 1.392 . S
C1438 C1439 1.385 . S
C1438 C1440 1.478 . S
C1439 H1433 0.930 . S
C1439 C1435 1.400 . S
C1439 C1438 1.385 . S
C1440 C1438 1.478 . S
C1440 C1442 1.381 . S
C1440 C1446 1.383 . S
C1441 C1437 1.495 . S
C1441 H1447 0.959 . S
C1441 H1448 0.961 . S
C1441 H1449 0.960 . S
C1442 C1440 1.381 . S
C1442 C1443 1.394 . S
C1442 H1450 0.930 . S
C1443 C1442 1.394 . S
C1443 C1444 1.383 . S
C1443 H1451 0.929 . S
C1444 C1443 1.383 . S
C1444 C1445 1.377 . S
C1445 H1429 0.930 . S
C1445 C1444 1.377 . S
C1445 C1446 1.379 . S
C1446 H1430 0.931 . S
C1446 C1440 1.383 . S
C1446 C1445 1.379 . S
H1447 C1441 0.959 . S
H1448 C1441 0.961 . S
H1449 C1441 0.960 . S
H1450 C1442 0.930 . S
H1451 C1443 0.929 . S
H1452 C1460 0.929 . S
H1453 C1462 0.930 . S
H1454 C1464 0.930 . S
H1455 C1467 0.929 . S
H1456 C1470 0.930 . S
H1457 C1472 0.960 . S
H1458 C1472 0.960 . S
H1459 C1472 0.960 . S
C1460 H1452 0.929 . S
C1460 C1461 1.377 . S
C1460 C1462 1.384 . S
C1461 C1460 1.377 . S
C1461 C1467 1.390 . S
C1462 H1453 0.930 . S
C1462 C1460 1.384 . S
C1462 C1463 1.372 . S
C1463 C1462 1.372 . S
C1463 C1464 1.400 . S
C1463 C1468 1.490 . S
C1464 H1454 0.930 . S
C1464 C1463 1.400 . S
C1464 C1467 1.386 . S
H1465 C1481 0.930 . S
H1466 C1482 0.931 . S
C1467 H1455 0.929 . S
C1467 C1461 1.390 . S
C1467 C1464 1.386 . S
C1468 C1463 1.490 . S
C1468 C1470 1.395 . S
C1468 C1471 1.403 . S
H1469 C1475 0.930 . S
C1470 H1456 0.930 . S
C1470 C1468 1.395 . S
C1470 C1473 1.403 . S
C1471 C1468 1.403 . S
C1471 C1472 1.524 . S
C1471 C1475 1.400 . S
C1472 H1457 0.960 . S
C1472 H1458 0.960 . S
C1472 H1459 0.960 . S
C1472 C1471 1.524 . S
C1473 C1470 1.403 . S
C1473 C1474 1.392 . S
C1473 C1477 1.495 . S
C1474 C1473 1.392 . S
C1474 C1475 1.385 . S
C1474 C1476 1.478 . S
C1475 H1469 0.930 . S
C1475 C1471 1.400 . S
C1475 C1474 1.385 . S
C1476 C1474 1.478 . S
C1476 C1478 1.381 . S
C1476 C1482 1.383 . S
C1477 C1473 1.495 . S
C1477 H1483 0.959 . S
C1477 H1484 0.961 . S
C1477 H1485 0.960 . S
C1478 C1476 1.381 . S
C1478 C1479 1.394 . S
C1478 H1486 0.930 . S
C1479 C1478 1.394 . S
C1479 C1480 1.383 . S
C1479 H1487 0.929 . S
C1480 C1479 1.383 . S
C1480 C1481 1.377 . S
C1481 H1465 0.930 . S
C1481 C1480 1.377 . S
C1481 C1482 1.379 . S
C1482 H1466 0.931 . S
C1482 C1476 1.383 . S
C1482 C1481 1.379 . S
H1483 C1477 0.959 . S
H1484 C1477 0.961 . S
H1485 C1477 0.960 . S
H1486 C1478 0.930 . S
H1487 C1479 0.929 . S
H1488 C1496 0.929 . S
H1489 C1498 0.930 . S
H1490 C1500 0.930 . S
H1491 C1503 0.929 . S
H1492 C1506 0.930 . S
H1493 C1508 0.960 . S
H1494 C1508 0.960 . S
H1495 C1508 0.960 . S
C1496 H1488 0.929 . S
C1496 C1497 1.377 . S
C1496 C1498 1.384 . S
C1497 C1496 1.377 . S
C1497 C1503 1.390 . S
C1498 H1489 0.930 . S
C1498 C1496 1.384 . S
C1498 C1499 1.372 . S
C1499 C1498 1.372 . S
C1499 C1500 1.400 . S
C1499 C1504 1.490 . S
C1500 H1490 0.930 . S
C1500 C1499 1.400 . S
C1500 C1503 1.386 . S
H1501 C1517 0.930 . S
H1502 C1518 0.931 . S
C1503 H1491 0.929 . S
C1503 C1497 1.390 . S
C1503 C1500 1.386 . S
C1504 C1499 1.490 . S
C1504 C1506 1.395 . S
C1504 C1507 1.403 . S
H1505 C1511 0.930 . S
C1506 H1492 0.930 . S
C1506 C1504 1.395 . S
C1506 C1509 1.403 . S
C1507 C1504 1.403 . S
C1507 C1508 1.524 . S
C1507 C1511 1.400 . S
C1508 H1493 0.960 . S
C1508 H1494 0.960 . S
C1508 H1495 0.960 . S
C1508 C1507 1.524 . S
C1509 C1506 1.403 . S
C1509 C1510 1.392 . S
C1509 C1513 1.495 . S
C1510 C1509 1.392 . S
C1510 C1511 1.385 . S
C1510 C1512 1.478 . S
C1511 H1505 0.930 . S
C1511 C1507 1.400 . S
C1511 C1510 1.385 . S
C1512 C1510 1.478 . S
C1512 C1514 1.381 . S
C1512 C1518 1.383 . S
C1513 C1509 1.495 . S
C1513 H1519 0.959 . S
C1513 H1520 0.961 . S
C1513 H1521 0.960 . S
C1514 C1512 1.381 . S
C1514 C1515 1.394 . S
C1514 H1522 0.930 . S
C1515 C1514 1.394 . S
C1515 C1516 1.383 . S
C1515 H1523 0.929 . S
C1516 C1515 1.383 . S
C1516 C1517 1.377 . S
C1517 H1501 0.930 . S
C1517 C1516 1.377 . S
C1517 C1518 1.379 . S
C1518 H1502 0.931 . S
C1518 C1512 1.383 . S
C1518 C1517 1.379 . S
H1519 C1513 0.959 . S
H1520 C1513 0.961 . S
H1521 C1513 0.960 . S
H1522 C1514 0.930 . S
H1523 C1515 0.929 . S
H1524 C1532 0.929 . S
H1525 C1534 0.930 . S
H1526 C1536 0.930 . S
H1527 C1539 0.929 . S
H1528 C1542 0.930 . S
H1529 C1544 0.960 . S
H1530 C1544 0.960 . S
H1531 C1544 0.960 . S
C1532 H1524 0.929 . S
C1532 C1533 1.377 . S
C1532 C1534 1.384 . S
C1533 C1532 1.377 . S
C1533 C1539 1.390 . S
C1534 H1525 0.930 . S
C1534 C1532 1.384 . S
C1534 C1535 1.372 . S
C1535 C1534 1.372 . S
C1535 C1536 1.400 . S
C1535 C1540 1.490 . S
C1536 H1526 0.930 . S
C1536 C1535 1.400 . S
C1536 C1539 1.386 . S
H1537 C1553 0.930 . S
H1538 C1554 0.931 . S
C1539 H1527 0.929 . S
C1539 C1533 1.390 . S
C1539 C1536 1.386 . S
C1540 C1535 1.490 . S
C1540 C1542 1.395 . S
C1540 C1543 1.403 . S
H1541 C1547 0.930 . S
C1542 H1528 0.930 . S
C1542 C1540 1.395 . S
C1542 C1545 1.403 . S
C1543 C1540 1.403 . S
C1543 C1544 1.524 . S
C1543 C1547 1.400 . S
C1544 H1529 0.960 . S
C1544 H1530 0.960 . S
C1544 H1531 0.960 . S
C1544 C1543 1.524 . S
C1545 C1542 1.403 . S
C1545 C1546 1.392 . S
C1545 C1549 1.495 . S
C1546 C1545 1.392 . S
C1546 C1547 1.385 . S
C1546 C1548 1.478 . S
C1547 H1541 0.930 . S
C1547 C1543 1.400 . S
C1547 C1546 1.385 . S
C1548 C1546 1.478 . S
C1548 C1550 1.381 . S
C1548 C1554 1.383 . S
C1549 C1545 1.495 . S
C1549 H1555 0.959 . S
C1549 H1556 0.961 . S
C1549 H1557 0.960 . S
C1550 C1548 1.381 . S
C1550 C1551 1.394 . S
C1550 H1558 0.930 . S
C1551 C1550 1.394 . S
C1551 C1552 1.383 . S
C1551 H1559 0.929 . S
C1552 C1551 1.383 . S
C1552 C1553 1.377 . S
C1553 H1537 0.930 . S
C1553 C1552 1.377 . S
C1553 C1554 1.379 . S
C1554 H1538 0.931 . S
C1554 C1548 1.383 . S
C1554 C1553 1.379 . S
H1555 C1549 0.959 . S
H1556 C1549 0.961 . S
H1557 C1549 0.960 . S
H1558 C1550 0.930 . S
H1559 C1551 0.929 . S
H1560 C1568 0.929 . S
H1561 C1570 0.930 . S
H1562 C1572 0.930 . S
H1563 C1575 0.929 . S
H1564 C1578 0.930 . S
H1565 C1580 0.960 . S
H1566 C1580 0.960 . S
H1567 C1580 0.960 . S
C1568 H1560 0.929 . S
C1568 C1569 1.377 . S
C1568 C1570 1.384 . S
C1569 C1568 1.377 . S
C1569 C1575 1.390 . S
C1570 H1561 0.930 . S
C1570 C1568 1.384 . S
C1570 C1571 1.372 . S
C1571 C1570 1.372 . S
C1571 C1572 1.400 . S
C1571 C1576 1.490 . S
C1572 H1562 0.930 . S
C1572 C1571 1.400 . S
C1572 C1575 1.386 . S
H1573 C1589 0.930 . S
H1574 C1590 0.931 . S
C1575 H1563 0.929 . S
C1575 C1569 1.390 . S
C1575 C1572 1.386 . S
C1576 C1571 1.490 . S
C1576 C1578 1.395 . S
C1576 C1579 1.403 . S
H1577 C1583 0.930 . S
C1578 H1564 0.930 . S
C1578 C1576 1.395 . S
C1578 C1581 1.403 . S
C1579 C1576 1.403 . S
C1579 C1580 1.524 . S
C1579 C1583 1.400 . S
C1580 H1565 0.960 . S
C1580 H1566 0.960 . S
C1580 H1567 0.960 . S
C1580 C1579 1.524 . S
C1581 C1578 1.403 . S
C1581 C1582 1.392 . S
C1581 C1585 1.495 . S
C1582 C1581 1.392 . S
C1582 C1583 1.385 . S
C1582 C1584 1.478 . S
C1583 H1577 0.930 . S
C1583 C1579 1.400 . S
C1583 C1582 1.385 . S
C1584 C1582 1.478 . S
C1584 C1586 1.381 . S
C1584 C1590 1.383 . S
C1585 C1581 1.495 . S
C1585 H1591 0.959 . S
C1585 H1592 0.961 . S
C1585 H1593 0.960 . S
C1586 C1584 1.381 . S
C1586 C1587 1.394 . S
C1586 H1594 0.930 . S
C1587 C1586 1.394 . S
C1587 C1588 1.383 . S
C1587 H1595 0.929 . S
C1588 C1587 1.383 . S
C1588 C1589 1.377 . S
C1589 H1573 0.930 . S
C1589 C1588 1.377 . S
C1589 C1590 1.379 . S
C1590 H1574 0.931 . S
C1590 C1584 1.383 . S
C1590 C1589 1.379 . S
H1591 C1585 0.959 . S
H1592 C1585 0.961 . S
H1593 C1585 0.960 . S
H1594 C1586 0.930 . S
H1595 C1587 0.929 . S
H1596 C1604 0.929 . S
H1597 C1606 0.930 . S
H1598 C1608 0.930 . S
H1599 C1611 0.929 . S
H1600 C1614 0.930 . S
H1601 C1616 0.960 1_655 S
H1602 C1616 0.960 1_655 S
H1603 C1616 0.960 . S
C1604 H1596 0.929 . S
C1604 C1605 1.377 . S
C1604 C1606 1.384 . S
C1605 C1604 1.377 . S
C1605 C1611 1.390 . S
C1606 H1597 0.930 . S
C1606 C1604 1.384 . S
C1606 C1607 1.372 . S
C1607 C1606 1.372 . S
C1607 C1608 1.400 . S
C1607 C1612 1.490 . S
C1608 H1598 0.930 . S
C1608 C1607 1.400 . S
C1608 C1611 1.386 . S
H1609 C1625 0.930 . S
H1610 C1626 0.931 . S
C1611 H1599 0.929 . S
C1611 C1605 1.390 . S
C1611 C1608 1.386 . S
C1612 C1607 1.490 . S
C1612 C1614 1.395 . S
C1612 C1615 1.403 . S
H1613 C1619 0.930 . S
C1614 H1600 0.930 . S
C1614 C1612 1.395 . S
C1614 C1617 1.403 . S
C1615 C1612 1.403 . S
C1615 C1616 1.524 . S
C1615 C1619 1.400 . S
C1616 H1601 0.960 1_455 S
C1616 H1602 0.960 1_455 S
C1616 H1603 0.960 . S
C1616 C1615 1.524 . S
C1617 C1614 1.403 . S
C1617 C1618 1.392 . S
C1617 C1621 1.495 . S
C1618 C1617 1.392 . S
C1618 C1619 1.385 . S
C1618 C1620 1.478 . S
C1619 H1613 0.930 . S
C1619 C1615 1.400 . S
C1619 C1618 1.385 . S
C1620 C1618 1.478 . S
C1620 C1622 1.381 . S
C1620 C1626 1.383 . S
C1621 C1617 1.495 . S
C1621 H1627 0.959 . S
C1621 H1628 0.961 . S
C1621 H1629 0.960 . S
C1622 C1620 1.381 . S
C1622 C1623 1.394 . S
C1622 H1630 0.930 . S
C1623 C1622 1.394 . S
C1623 C1624 1.383 . S
C1623 H1631 0.929 . S
C1624 C1623 1.383 . S
C1624 C1625 1.377 . S
C1625 H1609 0.930 . S
C1625 C1624 1.377 . S
C1625 C1626 1.379 . S
C1626 H1610 0.931 . S
C1626 C1620 1.383 . S
C1626 C1625 1.379 . S
H1627 C1621 0.959 . S
H1628 C1621 0.961 . S
H1629 C1621 0.960 . S
H1630 C1622 0.930 . S
H1631 C1623 0.929 . S
H1632 C1640 0.929 . S
H1633 C1642 0.930 . S
H1634 C1644 0.930 . S
H1635 C1647 0.929 . S
H1636 C1650 0.930 . S
H1637 C1652 0.960 . S
H1638 C1652 0.960 . S
H1639 C1652 0.960 . S
C1640 H1632 0.929 . S
C1640 C1641 1.377 . S
C1640 C1642 1.384 . S
C1641 C1640 1.377 . S
C1641 C1647 1.390 . S
C1642 H1633 0.930 . S
C1642 C1640 1.384 . S
C1642 C1643 1.372 . S
C1643 C1642 1.372 . S
C1643 C1644 1.400 . S
C1643 C1648 1.490 . S
C1644 H1634 0.930 . S
C1644 C1643 1.400 . S
C1644 C1647 1.386 . S
H1645 C1661 0.930 . S
H1646 C1662 0.931 . S
C1647 H1635 0.929 . S
C1647 C1641 1.390 . S
C1647 C1644 1.386 . S
C1648 C1643 1.490 . S
C1648 C1650 1.395 . S
C1648 C1651 1.403 . S
H1649 C1655 0.930 . S
C1650 H1636 0.930 . S
C1650 C1648 1.395 . S
C1650 C1653 1.403 . S
C1651 C1648 1.403 . S
C1651 C1652 1.524 . S
C1651 C1655 1.400 . S
C1652 H1637 0.960 . S
C1652 H1638 0.960 . S
C1652 H1639 0.960 . S
C1652 C1651 1.524 . S
C1653 C1650 1.403 . S
C1653 C1654 1.392 . S
C1653 C1657 1.495 . S
C1654 C1653 1.392 . S
C1654 C1655 1.385 . S
C1654 C1656 1.478 . S
C1655 H1649 0.930 . S
C1655 C1651 1.400 . S
C1655 C1654 1.385 . S
C1656 C1654 1.478 . S
C1656 C1658 1.381 . S
C1656 C1662 1.383 . S
C1657 C1653 1.495 . S
C1657 H1663 0.959 . S
C1657 H1664 0.961 . S
C1657 H1665 0.960 . S
C1658 C1656 1.381 . S
C1658 C1659 1.394 . S
C1658 H1666 0.930 . S
C1659 C1658 1.394 . S
C1659 C1660 1.383 . S
C1659 H1667 0.929 . S
C1660 C1659 1.383 . S
C1660 C1661 1.377 . S
C1661 H1645 0.930 . S
C1661 C1660 1.377 . S
C1661 C1662 1.379 . S
C1662 H1646 0.931 . S
C1662 C1656 1.383 . S
C1662 C1661 1.379 . S
H1663 C1657 0.959 . S
H1664 C1657 0.961 . S
H1665 C1657 0.960 . S
H1666 C1658 0.930 . S
H1667 C1659 0.929 . S
H1668 C1676 0.929 1_455 S
H1669 C1678 0.930 1_455 S
H1670 C1680 0.930 . S
H1671 C1683 0.929 . S
H1672 C1686 0.930 1_455 S
H1673 C1688 0.960 . S
H1674 C1688 0.960 . S
H1675 C1688 0.960 . S
C1676 H1668 0.929 1_655 S
C1676 C1677 1.377 . S
C1676 C1678 1.384 . S
C1677 C1676 1.377 . S
C1677 C1683 1.390 . S
C1678 H1669 0.930 1_655 S
C1678 C1676 1.384 . S
C1678 C1679 1.372 . S
C1679 C1678 1.372 . S
C1679 C1680 1.400 . S
C1679 C1684 1.490 . S
C1680 H1670 0.930 . S
C1680 C1679 1.400 . S
C1680 C1683 1.386 . S
H1681 C1697 0.930 . S
H1682 C1698 0.931 . S
C1683 H1671 0.929 . S
C1683 C1677 1.390 . S
C1683 C1680 1.386 . S
C1684 C1679 1.490 . S
C1684 C1686 1.395 . S
C1684 C1687 1.403 . S
H1685 C1691 0.930 . S
C1686 H1672 0.930 1_655 S
C1686 C1684 1.395 . S
C1686 C1689 1.403 1_655 S
C1687 C1684 1.403 . S
C1687 C1688 1.524 . S
C1687 C1691 1.400 . S
C1688 H1673 0.960 . S
C1688 H1674 0.960 . S
C1688 H1675 0.960 . S
C1688 C1687 1.524 . S
C1689 C1686 1.403 1_455 S
C1689 C1690 1.392 1_455 S
C1689 C1693 1.495 . S
C1690 C1689 1.392 1_655 S
C1690 C1691 1.385 . S
C1690 C1692 1.478 . S
C1691 H1685 0.930 . S
C1691 C1687 1.400 . S
C1691 C1690 1.385 . S
C1692 C1690 1.478 . S
C1692 C1694 1.381 1_655 S
C1692 C1698 1.383 . S
C1693 C1689 1.495 . S
C1693 H1699 0.959 . S
C1693 H1700 0.961 . S
C1693 H1701 0.960 . S
C1694 C1692 1.381 1_455 S
C1694 C1695 1.394 . S
C1694 H1702 0.930 . S
C1695 C1694 1.394 . S
C1695 C1696 1.383 1_455 S
C1695 H1703 0.929 . S
C1696 C1695 1.383 1_655 S
C1696 C1697 1.377 . S
C1697 H1681 0.930 . S
C1697 C1696 1.377 . S
C1697 C1698 1.379 . S
C1698 H1682 0.931 . S
C1698 C1692 1.383 . S
C1698 C1697 1.379 . S
H1699 C1693 0.959 . S
H1700 C1693 0.961 . S
H1701 C1693 0.960 . S
H1702 C1694 0.930 . S
H1703 C1695 0.929 . S
H1704 C1712 0.929 . S
H1705 C1714 0.930 . S
H1706 C1716 0.930 . S
H1707 C1719 0.929 . S
H1708 C1722 0.930 . S
H1709 C1724 0.960 . S
H1710 C1724 0.960 . S
H1711 C1724 0.960 . S
C1712 H1704 0.929 . S
C1712 C1713 1.377 . S
C1712 C1714 1.384 . S
C1713 C1712 1.377 . S
C1713 C1719 1.390 . S
C1714 H1705 0.930 . S
C1714 C1712 1.384 . S
C1714 C1715 1.372 . S
C1715 C1714 1.372 . S
C1715 C1716 1.400 . S
C1715 C1720 1.490 . S
C1716 H1706 0.930 . S
C1716 C1715 1.400 . S
C1716 C1719 1.386 . S
H1717 C1733 0.930 . S
H1718 C1734 0.931 . S
C1719 H1707 0.929 . S
C1719 C1713 1.390 . S
C1719 C1716 1.386 . S
C1720 C1715 1.490 . S
C1720 C1722 1.395 . S
C1720 C1723 1.403 . S
H1721 C1727 0.930 . S
C1722 H1708 0.930 . S
C1722 C1720 1.395 . S
C1722 C1725 1.403 . S
C1723 C1720 1.403 . S
C1723 C1724 1.524 . S
C1723 C1727 1.400 . S
C1724 H1709 0.960 . S
C1724 H1710 0.960 . S
C1724 H1711 0.960 . S
C1724 C1723 1.524 . S
C1725 C1722 1.403 . S
C1725 C1726 1.392 . S
C1725 C1729 1.495 . S
C1726 C1725 1.392 . S
C1726 C1727 1.385 . S
C1726 C1728 1.478 . S
C1727 H1721 0.930 . S
C1727 C1723 1.400 . S
C1727 C1726 1.385 . S
C1728 C1726 1.478 . S
C1728 C1730 1.381 . S
C1728 C1734 1.383 . S
C1729 C1725 1.495 . S
C1729 H1735 0.959 . S
C1729 H1736 0.961 . S
C1729 H1737 0.960 . S
C1730 C1728 1.381 . S
C1730 C1731 1.394 . S
C1730 H1738 0.930 . S
C1731 C1730 1.394 . S
C1731 C1732 1.383 . S
C1731 H1739 0.929 . S
C1732 C1731 1.383 . S
C1732 C1733 1.377 . S
C1733 H1717 0.930 . S
C1733 C1732 1.377 . S
C1733 C1734 1.379 . S
C1734 H1718 0.931 . S
C1734 C1728 1.383 . S
C1734 C1733 1.379 . S
H1735 C1729 0.959 . S
H1736 C1729 0.961 . S
H1737 C1729 0.960 . S
H1738 C1730 0.930 . S
H1739 C1731 0.929 . S
H1740 C1748 0.929 . S
H1741 C1750 0.930 . S
H1742 C1752 0.930 . S
H1743 C1755 0.929 . S
H1744 C1758 0.930 . S
H1745 C1760 0.960 . S
H1746 C1760 0.960 . S
H1747 C1760 0.960 . S
C1748 H1740 0.929 . S
C1748 C1749 1.377 . S
C1748 C1750 1.384 . S
C1749 C1748 1.377 . S
C1749 C1755 1.390 . S
C1750 H1741 0.930 . S
C1750 C1748 1.384 . S
C1750 C1751 1.372 . S
C1751 C1750 1.372 . S
C1751 C1752 1.400 . S
C1751 C1756 1.490 . S
C1752 H1742 0.930 . S
C1752 C1751 1.400 . S
C1752 C1755 1.386 . S
H1753 C1769 0.930 . S
H1754 C1770 0.931 . S
C1755 H1743 0.929 . S
C1755 C1749 1.390 . S
C1755 C1752 1.386 . S
C1756 C1751 1.490 . S
C1756 C1758 1.395 . S
C1756 C1759 1.403 . S
H1757 C1763 0.930 . S
C1758 H1744 0.930 . S
C1758 C1756 1.395 . S
C1758 C1761 1.403 . S
C1759 C1756 1.403 . S
C1759 C1760 1.524 . S
C1759 C1763 1.400 . S
C1760 H1745 0.960 . S
C1760 H1746 0.960 . S
C1760 H1747 0.960 . S
C1760 C1759 1.524 . S
C1761 C1758 1.403 . S
C1761 C1762 1.392 . S
C1761 C1765 1.495 . S
C1762 C1761 1.392 . S
C1762 C1763 1.385 . S
C1762 C1764 1.478 . S
C1763 H1757 0.930 . S
C1763 C1759 1.400 . S
C1763 C1762 1.385 . S
C1764 C1762 1.478 . S
C1764 C1766 1.381 . S
C1764 C1770 1.383 . S
C1765 C1761 1.495 . S
C1765 H1771 0.959 . S
C1765 H1772 0.961 . S
C1765 H1773 0.960 . S
C1766 C1764 1.381 . S
C1766 C1767 1.394 . S
C1766 H1774 0.930 . S
C1767 C1766 1.394 . S
C1767 C1768 1.383 . S
C1767 H1775 0.929 . S
C1768 C1767 1.383 . S
C1768 C1769 1.377 . S
C1769 H1753 0.930 . S
C1769 C1768 1.377 . S
C1769 C1770 1.379 . S
C1770 H1754 0.931 . S
C1770 C1764 1.383 . S
C1770 C1769 1.379 . S
H1771 C1765 0.959 . S
H1772 C1765 0.961 . S
H1773 C1765 0.960 . S
H1774 C1766 0.930 . S
H1775 C1767 0.929 . S
H1776 C1784 0.929 . S
H1777 C1786 0.963 . S
H1778 C1788 0.930 . S
H1779 C1791 0.929 . S
H1780 C1794 0.930 . S
H1781 C1796 0.960 . S
H1782 C1796 0.960 . S
H1783 C1796 0.960 . S
C1784 H1776 0.929 . S
C1784 C1785 1.377 . S
C1784 C1786 1.384 . S
C1785 C1784 1.377 . S
C1785 C1791 1.390 . S
C1786 H1777 0.963 . S
C1786 C1784 1.384 . S
C1786 C1787 1.372 . S
C1787 C1786 1.372 . S
C1787 C1788 1.400 . S
C1787 C1792 1.490 . S
C1788 H1778 0.930 . S
C1788 C1787 1.400 . S
C1788 C1791 1.386 . S
H1789 C1805 0.930 . S
H1790 C1806 0.931 . S
C1791 H1779 0.929 . S
C1791 C1785 1.390 . S
C1791 C1788 1.386 . S
C1792 C1787 1.490 . S
C1792 C1794 1.395 1_556 S
C1792 C1795 1.403 . S
H1793 C1799 0.930 . S
C1794 H1780 0.930 . S
C1794 C1792 1.395 1_554 S
C1794 C1797 1.403 . S
C1795 C1792 1.403 . S
C1795 C1796 1.524 . S
C1795 C1799 1.400 . S
C1796 H1781 0.960 . S
C1796 H1782 0.960 . S
C1796 H1783 0.960 . S
C1796 C1795 1.524 . S
C1797 C1794 1.403 . S
C1797 C1798 1.392 1_554 S
C1797 C1801 1.495 . S
C1798 C1797 1.392 1_556 S
C1798 C1799 1.385 . S
C1798 C1800 1.478 . S
C1799 H1793 0.930 . S
C1799 C1795 1.400 . S
C1799 C1798 1.385 . S
C1800 C1798 1.478 . S
C1800 C1802 1.381 1_556 S
C1800 C1806 1.383 . S
C1801 C1797 1.495 . S
C1801 H1807 0.959 . S
C1801 H1808 0.961 . S
C1801 H1809 0.960 . S
C1802 C1800 1.381 1_554 S
C1802 C1803 1.394 . S
C1802 H1810 0.930 . S
C1803 C1802 1.394 . S
C1803 C1804 1.383 1_554 S
C1803 H1811 0.929 . S
C1804 C1803 1.383 1_556 S
C1804 C1805 1.377 . S
C1805 H1789 0.930 . S
C1805 C1804 1.377 . S
C1805 C1806 1.379 . S
C1806 H1790 0.931 . S
C1806 C1800 1.383 . S
C1806 C1805 1.379 . S
H1807 C1801 0.959 . S
H1808 C1801 0.961 . S
H1809 C1801 0.960 . S
H1810 C1802 0.930 . S
H1811 C1803 0.929 . S
H1812 C1820 0.929 . S
H1813 C1822 0.930 . S
H1814 C1824 0.930 . S
H1815 C1827 0.929 . S
H1816 C1830 0.930 . S
H1817 C1832 0.960 . S
H1818 C1832 0.960 . S
H1819 C1832 0.960 . S
C1820 H1812 0.929 . S
C1820 C1821 1.377 . S
C1820 C1822 1.384 . S
C1821 C1820 1.377 . S
C1821 C1827 1.390 . S
C1822 H1813 0.930 . S
C1822 C1820 1.384 . S
C1822 C1823 1.372 . S
C1823 C1822 1.372 . S
C1823 C1824 1.400 . S
C1823 C1828 1.490 . S
C1824 H1814 0.930 . S
C1824 C1823 1.400 . S
C1824 C1827 1.386 . S
H1825 C1841 0.930 . S
H1826 C1842 0.931 . S
C1827 H1815 0.929 . S
C1827 C1821 1.390 . S
C1827 C1824 1.386 . S
C1828 C1823 1.490 . S
C1828 C1830 1.395 . S
C1828 C1831 1.403 . S
H1829 C1835 0.930 . S
C1830 H1816 0.930 . S
C1830 C1828 1.395 . S
C1830 C1833 1.403 . S
C1831 C1828 1.403 . S
C1831 C1832 1.524 . S
C1831 C1835 1.400 . S
C1832 H1817 0.960 . S
C1832 H1818 0.960 . S
C1832 H1819 0.960 . S
C1832 C1831 1.524 . S
C1833 C1830 1.403 . S
C1833 C1834 1.392 . S
C1833 C1837 1.495 . S
C1834 C1833 1.392 . S
C1834 C1835 1.385 . S
C1834 C1836 1.478 . S
C1835 H1829 0.930 . S
C1835 C1831 1.400 . S
C1835 C1834 1.385 . S
C1836 C1834 1.478 . S
C1836 C1838 1.381 . S
C1836 C1842 1.383 . S
C1837 C1833 1.495 . S
C1837 H1843 0.959 . S
C1837 H1844 0.961 . S
C1837 H1845 0.960 . S
C1838 C1836 1.381 . S
C1838 C1839 1.394 . S
C1838 H1846 0.930 . S
C1839 C1838 1.394 . S
C1839 C1840 1.383 . S
C1839 H1847 0.929 . S
C1840 C1839 1.383 . S
C1840 C1841 1.377 . S
C1841 H1825 0.930 . S
C1841 C1840 1.377 . S
C1841 C1842 1.379 . S
C1842 H1826 0.931 . S
C1842 C1836 1.383 . S
C1842 C1841 1.379 . S
H1843 C1837 0.959 . S
H1844 C1837 0.961 . S
H1845 C1837 0.960 . S
H1846 C1838 0.930 . S
H1847 C1839 0.929 . S
H1848 C1856 0.929 . S
H1849 C1858 0.930 . S
H1850 C1860 0.930 . S
H1851 C1863 0.929 . S
H1852 C1866 0.930 . S
H1853 C1868 0.960 . S
H1854 C1868 0.960 . S
H1855 C1868 0.960 . S
C1856 H1848 0.929 . S
C1856 C1857 1.377 . S
C1856 C1858 1.384 . S
C1857 C1856 1.377 . S
C1857 C1863 1.390 . S
C1858 H1849 0.930 . S
C1858 C1856 1.384 . S
C1858 C1859 1.372 . S
C1859 C1858 1.372 . S
C1859 C1860 1.400 . S
C1859 C1864 1.490 . S
C1860 H1850 0.930 . S
C1860 C1859 1.400 . S
C1860 C1863 1.386 . S
H1861 C1877 0.930 . S
H1862 C1878 0.931 . S
C1863 H1851 0.929 . S
C1863 C1857 1.390 . S
C1863 C1860 1.386 . S
C1864 C1859 1.490 . S
C1864 C1866 1.395 . S
C1864 C1867 1.403 . S
H1865 C1871 0.930 . S
C1866 H1852 0.930 . S
C1866 C1864 1.395 . S
C1866 C1869 1.403 . S
C1867 C1864 1.403 . S
C1867 C1868 1.524 . S
C1867 C1871 1.400 . S
C1868 H1853 0.960 . S
C1868 H1854 0.960 . S
C1868 H1855 0.960 . S
C1868 C1867 1.524 . S
C1869 C1866 1.403 . S
C1869 C1870 1.392 . S
C1869 C1873 1.495 . S
C1870 C1869 1.392 . S
C1870 C1871 1.385 . S
C1870 C1872 1.478 . S
C1871 H1865 0.930 . S
C1871 C1867 1.400 . S
C1871 C1870 1.385 . S
C1872 C1870 1.478 . S
C1872 C1874 1.381 . S
C1872 C1878 1.383 . S
C1873 C1869 1.495 . S
C1873 H1879 0.959 . S
C1873 H1880 0.961 . S
C1873 H1881 0.960 . S
C1874 C1872 1.381 . S
C1874 C1875 1.394 . S
C1874 H1882 0.930 . S
C1875 C1874 1.394 . S
C1875 C1876 1.383 . S
C1875 H1883 0.929 . S
C1876 C1875 1.383 . S
C1876 C1877 1.377 . S
C1877 H1861 0.930 . S
C1877 C1876 1.377 . S
C1877 C1878 1.379 . S
C1878 H1862 0.931 . S
C1878 C1872 1.383 . S
C1878 C1877 1.379 . S
H1879 C1873 0.959 . S
H1880 C1873 0.961 . S
H1881 C1873 0.960 . S
H1882 C1874 0.930 . S
H1883 C1875 0.929 . S
H1884 C1892 0.929 . S
H1885 C1894 0.930 . S
H1886 C1896 0.930 . S
H1887 C1899 0.929 . S
H1888 C1902 0.930 . S
H1889 C1904 0.960 . S
H1890 C1904 0.960 . S
H1891 C1904 0.960 . S
C1892 H1884 0.929 . S
C1892 C1893 1.377 . S
C1892 C1894 1.384 . S
C1893 C1892 1.377 . S
C1893 C1899 1.390 . S
C1894 H1885 0.930 . S
C1894 C1892 1.384 . S
C1894 C1895 1.372 . S
C1895 C1894 1.372 . S
C1895 C1896 1.400 . S
C1895 C1900 1.490 . S
C1896 H1886 0.930 . S
C1896 C1895 1.400 . S
C1896 C1899 1.386 . S
H1897 C1913 0.930 . S
H1898 C1914 0.931 . S
C1899 H1887 0.929 . S
C1899 C1893 1.390 . S
C1899 C1896 1.386 . S
C1900 C1895 1.490 . S
C1900 C1902 1.395 . S
C1900 C1903 1.403 . S
H1901 C1907 0.930 . S
C1902 H1888 0.930 . S
C1902 C1900 1.395 . S
C1902 C1905 1.403 . S
C1903 C1900 1.403 . S
C1903 C1904 1.524 . S
C1903 C1907 1.400 . S
C1904 H1889 0.960 . S
C1904 H1890 0.960 . S
C1904 H1891 0.960 . S
C1904 C1903 1.524 . S
C1905 C1902 1.403 . S
C1905 C1906 1.392 . S
C1905 C1909 1.495 . S
C1906 C1905 1.392 . S
C1906 C1907 1.385 . S
C1906 C1908 1.478 . S
C1907 H1901 0.930 . S
C1907 C1903 1.400 . S
C1907 C1906 1.385 . S
C1908 C1906 1.478 . S
C1908 C1910 1.381 . S
C1908 C1914 1.383 . S
C1909 C1905 1.495 . S
C1909 H1915 0.959 . S
C1909 H1916 0.961 . S
C1909 H1917 0.960 . S
C1910 C1908 1.381 . S
C1910 C1911 1.394 . S
C1910 H1918 0.930 . S
C1911 C1910 1.394 . S
C1911 C1912 1.383 . S
C1911 H1919 0.929 . S
C1912 C1911 1.383 . S
C1912 C1913 1.377 . S
C1913 H1897 0.930 . S
C1913 C1912 1.377 . S
C1913 C1914 1.379 . S
C1914 H1898 0.931 . S
C1914 C1908 1.383 . S
C1914 C1913 1.379 . S
H1915 C1909 0.959 . S
H1916 C1909 0.961 . S
H1917 C1909 0.960 . S
H1918 C1910 0.930 . S
H1919 C1911 0.929 . S
H1920 C1928 0.929 . S
H1921 C1930 0.930 . S
H1922 C1932 0.930 . S
H1923 C1935 0.929 . S
H1924 C1938 0.930 . S
H1925 C1940 0.960 . S
H1926 C1940 0.960 . S
H1927 C1940 0.960 . S
C1928 H1920 0.929 . S
C1928 C1929 1.377 . S
C1928 C1930 1.384 . S
C1929 C1928 1.377 . S
C1929 C1935 1.390 . S
C1930 H1921 0.930 . S
C1930 C1928 1.384 . S
C1930 C1931 1.372 . S
C1931 C1930 1.372 . S
C1931 C1932 1.400 . S
C1931 C1936 1.490 . S
C1932 H1922 0.930 . S
C1932 C1931 1.400 . S
C1932 C1935 1.386 . S
H1933 C1949 0.930 . S
H1934 C1950 0.931 . S
C1935 H1923 0.929 . S
C1935 C1929 1.390 . S
C1935 C1932 1.386 . S
C1936 C1931 1.490 . S
C1936 C1938 1.395 . S
C1936 C1939 1.403 . S
H1937 C1943 0.930 . S
C1938 H1924 0.930 . S
C1938 C1936 1.395 . S
C1938 C1941 1.403 . S
C1939 C1936 1.403 . S
C1939 C1940 1.524 . S
C1939 C1943 1.400 . S
C1940 H1925 0.960 . S
C1940 H1926 0.960 . S
C1940 H1927 0.960 . S
C1940 C1939 1.524 . S
C1941 C1938 1.403 . S
C1941 C1942 1.392 . S
C1941 C1945 1.495 . S
C1942 C1941 1.392 . S
C1942 C1943 1.385 . S
C1942 C1944 1.478 . S
C1943 H1937 0.930 . S
C1943 C1939 1.400 . S
C1943 C1942 1.385 . S
C1944 C1942 1.478 . S
C1944 C1946 1.381 . S
C1944 C1950 1.383 . S
C1945 C1941 1.495 . S
C1945 H1951 0.959 . S
C1945 H1952 0.961 . S
C1945 H1953 0.960 . S
C1946 C1944 1.381 . S
C1946 C1947 1.394 . S
C1946 H1954 0.930 . S
C1947 C1946 1.394 . S
C1947 C1948 1.383 . S
C1947 H1955 0.929 . S
C1948 C1947 1.383 . S
C1948 C1949 1.377 . S
C1949 H1933 0.930 . S
C1949 C1948 1.377 . S
C1949 C1950 1.379 . S
C1950 H1934 0.931 . S
C1950 C1944 1.383 . S
C1950 C1949 1.379 . S
H1951 C1945 0.959 . S
H1952 C1945 0.961 . S
H1953 C1945 0.960 . S
H1954 C1946 0.930 . S
H1955 C1947 0.929 . S
H1956 C1964 0.929 . S
H1957 C1966 0.930 . S
H1958 C1968 0.930 . S
H1959 C1971 0.929 . S
H1960 C1974 0.930 . S
H1961 C1976 0.960 . S
H1962 C1976 0.960 . S
H1963 C1976 0.960 . S
C1964 H1956 0.929 . S
C1964 C1965 1.377 . S
C1964 C1966 1.384 . S
C1965 C1964 1.377 . S
C1965 C1971 1.390 . S
C1966 H1957 0.930 . S
C1966 C1964 1.384 . S
C1966 C1967 1.372 . S
C1967 C1966 1.372 . S
C1967 C1968 1.400 . S
C1967 C1972 1.490 . S
C1968 H1958 0.930 . S
C1968 C1967 1.400 . S
C1968 C1971 1.386 . S
H1969 C1985 0.930 . S
H1970 C1986 0.931 . S
C1971 H1959 0.929 . S
C1971 C1965 1.390 . S
C1971 C1968 1.386 . S
C1972 C1967 1.490 . S
C1972 C1974 1.395 . S
C1972 C1975 1.403 . S
H1973 C1979 0.930 . S
C1974 H1960 0.930 . S
C1974 C1972 1.395 . S
C1974 C1977 1.403 . S
C1975 C1972 1.403 . S
C1975 C1976 1.524 . S
C1975 C1979 1.400 . S
C1976 H1961 0.960 . S
C1976 H1962 0.960 . S
C1976 H1963 0.960 . S
C1976 C1975 1.524 . S
C1977 C1974 1.403 . S
C1977 C1978 1.392 . S
C1977 C1981 1.495 . S
C1978 C1977 1.392 . S
C1978 C1979 1.385 . S
C1978 C1980 1.478 . S
C1979 H1973 0.930 . S
C1979 C1975 1.400 . S
C1979 C1978 1.385 . S
C1980 C1978 1.478 . S
C1980 C1982 1.381 . S
C1980 C1986 1.383 . S
C1981 C1977 1.495 . S
C1981 H1987 0.959 . S
C1981 H1988 0.961 . S
C1981 H1989 0.960 . S
C1982 C1980 1.381 . S
C1982 C1983 1.394 . S
C1982 H1990 0.930 . S
C1983 C1982 1.394 . S
C1983 C1984 1.383 . S
C1983 H1991 0.929 . S
C1984 C1983 1.383 . S
C1984 C1985 1.377 . S
C1985 H1969 0.930 . S
C1985 C1984 1.377 . S
C1985 C1986 1.379 . S
C1986 H1970 0.931 . S
C1986 C1980 1.383 . S
C1986 C1985 1.379 . S
H1987 C1981 0.959 . S
H1988 C1981 0.961 . S
H1989 C1981 0.960 . S
H1990 C1982 0.930 . S
H1991 C1983 0.929 . S
H1992 C2000 0.929 . S
H1993 C2002 0.930 . S
H1994 C2004 0.930 . S
H1995 C2007 0.929 . S
H1996 C2010 0.930 . S
H1997 C2012 0.960 . S
H1998 C2012 0.960 . S
H1999 C2012 0.960 . S
C2000 H1992 0.929 . S
C2000 C2001 1.377 . S
C2000 C2002 1.384 . S
C2001 C2000 1.377 . S
C2001 C2007 1.390 . S
C2002 H1993 0.930 . S
C2002 C2000 1.384 . S
C2002 C2003 1.372 . S
C2003 C2002 1.372 . S
C2003 C2004 1.400 . S
C2003 C2008 1.490 . S
C2004 H1994 0.930 . S
C2004 C2003 1.400 . S
C2004 C2007 1.386 . S
H2005 C2021 0.930 . S
H2006 C2022 0.931 . S
C2007 H1995 0.929 . S
C2007 C2001 1.390 . S
C2007 C2004 1.386 . S
C2008 C2003 1.490 . S
C2008 C2010 1.395 . S
C2008 C2011 1.403 . S
H2009 C2015 0.930 . S
C2010 H1996 0.930 . S
C2010 C2008 1.395 . S
C2010 C2013 1.403 . S
C2011 C2008 1.403 . S
C2011 C2012 1.524 . S
C2011 C2015 1.400 . S
C2012 H1997 0.960 . S
C2012 H1998 0.960 . S
C2012 H1999 0.960 . S
C2012 C2011 1.524 . S
C2013 C2010 1.403 . S
C2013 C2014 1.392 . S
C2013 C2017 1.495 . S
C2014 C2013 1.392 . S
C2014 C2015 1.385 . S
C2014 C2016 1.478 . S
C2015 H2009 0.930 . S
C2015 C2011 1.400 . S
C2015 C2014 1.385 . S
C2016 C2014 1.478 . S
C2016 C2018 1.381 . S
C2016 C2022 1.383 . S
C2017 C2013 1.495 . S
C2017 H2023 0.959 . S
C2017 H2024 0.961 . S
C2017 H2025 0.960 . S
C2018 C2016 1.381 . S
C2018 C2019 1.394 . S
C2018 H2026 0.930 . S
C2019 C2018 1.394 . S
C2019 C2020 1.383 . S
C2019 H2027 0.929 . S
C2020 C2019 1.383 . S
C2020 C2021 1.377 . S
C2021 H2005 0.930 . S
C2021 C2020 1.377 . S
C2021 C2022 1.379 . S
C2022 H2006 0.931 . S
C2022 C2016 1.383 . S
C2022 C2021 1.379 . S
H2023 C2017 0.959 . S
H2024 C2017 0.961 . S
H2025 C2017 0.960 . S
H2026 C2018 0.930 . S
H2027 C2019 0.929 . S
H2028 C2036 0.890 1_565 S
H2029 C2038 0.930 1_565 S
H2030 C2040 0.930 . S
H2031 C2043 0.929 . S
H2032 C2046 0.930 . S
H2033 C2048 0.960 . S
H2034 C2048 0.982 . S
H2035 C2048 0.960 . S
C2036 H2028 0.890 1_545 S
C2036 C2037 1.377 . S
C2036 C2038 1.384 . S
C2037 C2036 1.377 . S
C2037 C2043 1.390 . S
C2038 H2029 0.930 1_545 S
C2038 C2036 1.384 . S
C2038 C2039 1.372 . S
C2039 C2038 1.372 . S
C2039 C2040 1.400 . S
C2039 C2044 1.490 . S
C2040 H2030 0.930 . S
C2040 C2039 1.400 . S
C2040 C2043 1.386 . S
H2041 C2057 0.930 . S
H2042 C2058 0.931 . S
C2043 H2031 0.929 . S
C2043 C2037 1.390 . S
C2043 C2040 1.386 . S
C2044 C2039 1.490 . S
C2044 C2046 1.395 . S
C2044 C2047 1.403 . S
H2045 C2051 0.930 . S
C2046 H2032 0.930 . S
C2046 C2044 1.395 . S
C2046 C2049 1.403 . S
C2047 C2044 1.403 . S
C2047 C2048 1.524 . S
C2047 C2051 1.400 . S
C2048 H2033 0.960 . S
C2048 H2034 0.982 . S
C2048 H2035 0.960 . S
C2048 C2047 1.524 . S
C2049 C2046 1.403 . S
C2049 C2050 1.392 . S
C2049 C2053 1.495 . S
C2050 C2049 1.392 . S
C2050 C2051 1.385 . S
C2050 C2052 1.478 . S
C2051 H2045 0.930 . S
C2051 C2047 1.400 . S
C2051 C2050 1.385 . S
C2052 C2050 1.478 . S
C2052 C2054 1.381 1_545 S
C2052 C2058 1.383 . S
C2053 C2049 1.495 . S
C2053 H2059 0.959 . S
C2053 H2060 0.961 . S
C2053 H2061 0.960 . S
C2054 C2052 1.381 1_565 S
C2054 C2055 1.394 . S
C2054 H2062 0.930 . S
C2055 C2054 1.394 . S
C2055 C2056 1.383 1_565 S
C2055 H2063 0.929 . S
C2056 C2055 1.383 1_545 S
C2056 C2057 1.377 . S
C2057 H2041 0.930 . S
C2057 C2056 1.377 . S
C2057 C2058 1.379 . S
C2058 H2042 0.931 . S
C2058 C2052 1.383 . S
C2058 C2057 1.379 . S
H2059 C2053 0.959 . S
H2060 C2053 0.961 . S
H2061 C2053 0.960 . S
H2062 C2054 0.930 . S
H2063 C2055 0.929 . S
H2064 C2072 0.929 . S
H2065 C2074 0.930 . S
H2066 C2076 0.930 . S
H2067 C2079 0.929 . S
H2068 C2082 0.930 . S
H2069 C2084 0.960 . S
H2070 C2084 0.960 . S
H2071 C2084 0.960 . S
C2072 H2064 0.929 . S
C2072 C2073 1.377 . S
C2072 C2074 1.384 . S
C2073 C2072 1.377 . S
C2073 C2079 1.390 . S
C2074 H2065 0.930 . S
C2074 C2072 1.384 . S
C2074 C2075 1.372 . S
C2075 C2074 1.372 . S
C2075 C2076 1.400 . S
C2075 C2080 1.490 . S
C2076 H2066 0.930 . S
C2076 C2075 1.400 . S
C2076 C2079 1.386 . S
H2077 C2093 0.930 . S
H2078 C2094 0.931 . S
C2079 H2067 0.929 . S
C2079 C2073 1.390 . S
C2079 C2076 1.386 . S
C2080 C2075 1.490 . S
C2080 C2082 1.395 . S
C2080 C2083 1.403 . S
H2081 C2087 0.930 . S
C2082 H2068 0.930 . S
C2082 C2080 1.395 . S
C2082 C2085 1.403 . S
C2083 C2080 1.403 . S
C2083 C2084 1.524 . S
C2083 C2087 1.400 . S
C2084 H2069 0.960 . S
C2084 H2070 0.960 . S
C2084 H2071 0.960 . S
C2084 C2083 1.524 . S
C2085 C2082 1.403 . S
C2085 C2086 1.392 . S
C2085 C2089 1.495 . S
C2086 C2085 1.392 . S
C2086 C2087 1.385 . S
C2086 C2088 1.478 . S
C2087 H2081 0.930 . S
C2087 C2083 1.400 . S
C2087 C2086 1.385 . S
C2088 C2086 1.478 . S
C2088 C2090 1.381 . S
C2088 C2094 1.383 . S
C2089 C2085 1.495 . S
C2089 H2095 0.959 . S
C2089 H2096 0.961 . S
C2089 H2097 0.960 . S
C2090 C2088 1.381 . S
C2090 C2091 1.394 . S
C2090 H2098 0.930 . S
C2091 C2090 1.394 . S
C2091 C2092 1.383 . S
C2091 H2099 0.929 . S
C2092 C2091 1.383 . S
C2092 C2093 1.377 . S
C2093 H2077 0.930 . S
C2093 C2092 1.377 . S
C2093 C2094 1.379 . S
C2094 H2078 0.931 . S
C2094 C2088 1.383 . S
C2094 C2093 1.379 . S
H2095 C2089 0.959 . S
H2096 C2089 0.961 . S
H2097 C2089 0.960 . S
H2098 C2090 0.930 . S
H2099 C2091 0.929 . S
H2100 C2108 0.929 . S
H2101 C2110 0.930 . S
H2102 C2112 0.930 . S
H2103 C2115 0.929 . S
H2104 C2118 0.930 . S
H2105 C2120 0.960 . S
H2106 C2120 0.960 . S
H2107 C2120 0.960 . S
C2108 H2100 0.929 . S
C2108 C2109 1.377 . S
C2108 C2110 1.384 . S
C2109 C2108 1.377 . S
C2109 C2115 1.390 . S
C2110 H2101 0.930 . S
C2110 C2108 1.384 . S
C2110 C2111 1.372 . S
C2111 C2110 1.372 . S
C2111 C2112 1.400 . S
C2111 C2116 1.490 . S
C2112 H2102 0.930 . S
C2112 C2111 1.400 . S
C2112 C2115 1.386 . S
H2113 C2129 0.930 . S
H2114 C2130 0.931 . S
C2115 H2103 0.929 . S
C2115 C2109 1.390 . S
C2115 C2112 1.386 . S
C2116 C2111 1.490 . S
C2116 C2118 1.395 . S
C2116 C2119 1.403 . S
H2117 C2123 0.930 . S
C2118 H2104 0.930 . S
C2118 C2116 1.395 . S
C2118 C2121 1.403 . S
C2119 C2116 1.403 . S
C2119 C2120 1.524 . S
C2119 C2123 1.400 . S
C2120 H2105 0.960 . S
C2120 H2106 0.960 . S
C2120 H2107 0.960 . S
C2120 C2119 1.524 . S
C2121 C2118 1.403 . S
C2121 C2122 1.392 . S
C2121 C2125 1.495 . S
C2122 C2121 1.392 . S
C2122 C2123 1.385 . S
C2122 C2124 1.478 . S
C2123 H2117 0.930 . S
C2123 C2119 1.400 . S
C2123 C2122 1.385 . S
C2124 C2122 1.478 . S
C2124 C2126 1.381 . S
C2124 C2130 1.383 . S
C2125 C2121 1.495 . S
C2125 H2131 0.959 . S
C2125 H2132 0.961 . S
C2125 H2133 0.960 . S
C2126 C2124 1.381 . S
C2126 C2127 1.394 . S
C2126 H2134 0.930 . S
C2127 C2126 1.394 . S
C2127 C2128 1.383 . S
C2127 H2135 0.929 . S
C2128 C2127 1.383 . S
C2128 C2129 1.377 . S
C2129 H2113 0.930 . S
C2129 C2128 1.377 . S
C2129 C2130 1.379 . S
C2130 H2114 0.931 . S
C2130 C2124 1.383 . S
C2130 C2129 1.379 . S
H2131 C2125 0.959 . S
H2132 C2125 0.961 . S
H2133 C2125 0.960 . S
H2134 C2126 0.930 . S
H2135 C2127 0.929 . S
H2136 C2144 0.929 . S
H2137 C2146 0.930 . S
H2138 C2148 0.930 . S
H2139 C2151 0.929 . S
H2140 C2154 0.930 . S
H2141 C2156 0.960 . S
H2142 C2156 0.960 . S
H2143 C2156 0.960 . S
C2144 H2136 0.929 . S
C2144 C2145 1.377 . S
C2144 C2146 1.384 . S
C2145 C2144 1.377 . S
C2145 C2151 1.390 . S
C2146 H2137 0.930 . S
C2146 C2144 1.384 . S
C2146 C2147 1.372 . S
C2147 C2146 1.372 . S
C2147 C2148 1.400 . S
C2147 C2152 1.490 . S
C2148 H2138 0.930 . S
C2148 C2147 1.400 . S
C2148 C2151 1.386 . S
H2149 C2165 0.930 . S
H2150 C2166 0.931 . S
C2151 H2139 0.929 . S
C2151 C2145 1.390 . S
C2151 C2148 1.386 . S
C2152 C2147 1.490 . S
C2152 C2154 1.395 . S
C2152 C2155 1.403 . S
H2153 C2159 0.930 . S
C2154 H2140 0.930 . S
C2154 C2152 1.395 . S
C2154 C2157 1.403 . S
C2155 C2152 1.403 . S
C2155 C2156 1.524 . S
C2155 C2159 1.400 . S
C2156 H2141 0.960 . S
C2156 H2142 0.960 . S
C2156 H2143 0.960 . S
C2156 C2155 1.524 . S
C2157 C2154 1.403 . S
C2157 C2158 1.392 . S
C2157 C2161 1.495 . S
C2158 C2157 1.392 . S
C2158 C2159 1.385 . S
C2158 C2160 1.478 . S
C2159 H2153 0.930 . S
C2159 C2155 1.400 . S
C2159 C2158 1.385 . S
C2160 C2158 1.478 . S
C2160 C2162 1.381 . S
C2160 C2166 1.383 . S
C2161 C2157 1.495 . S
C2161 H2167 0.959 . S
C2161 H2168 0.961 . S
C2161 H2169 0.960 . S
C2162 C2160 1.381 . S
C2162 C2163 1.394 . S
C2162 H2170 0.930 . S
C2163 C2162 1.394 . S
C2163 C2164 1.383 . S
C2163 H2171 0.929 . S
C2164 C2163 1.383 . S
C2164 C2165 1.377 . S
C2165 H2149 0.930 . S
C2165 C2164 1.377 . S
C2165 C2166 1.379 . S
C2166 H2150 0.931 . S
C2166 C2160 1.383 . S
C2166 C2165 1.379 . S
H2167 C2161 0.959 . S
H2168 C2161 0.961 . S
H2169 C2161 0.960 . S
H2170 C2162 0.930 . S
H2171 C2163 0.929 . S
H2172 C2180 0.929 . S
H2173 C2182 0.930 . S
H2174 C2184 0.930 . S
H2175 C2187 0.929 . S
H2176 C2190 0.930 . S
H2177 C2192 0.960 . S
H2178 C2192 0.960 . S
H2179 C2192 0.960 . S
C2180 H2172 0.929 . S
C2180 C2181 1.377 . S
C2180 C2182 1.384 . S
C2181 C2180 1.377 . S
C2181 C2187 1.390 . S
C2182 H2173 0.930 . S
C2182 C2180 1.384 . S
C2182 C2183 1.372 . S
C2183 C2182 1.372 . S
C2183 C2184 1.400 . S
C2183 C2188 1.490 . S
C2184 H2174 0.930 . S
C2184 C2183 1.400 . S
C2184 C2187 1.386 . S
H2185 C2201 0.930 . S
H2186 C2202 0.931 . S
C2187 H2175 0.929 . S
C2187 C2181 1.390 . S
C2187 C2184 1.386 . S
C2188 C2183 1.490 . S
C2188 C2190 1.395 . S
C2188 C2191 1.403 . S
H2189 C2195 0.930 . S
C2190 H2176 0.930 . S
C2190 C2188 1.395 . S
C2190 C2193 1.403 . S
C2191 C2188 1.403 . S
C2191 C2192 1.524 . S
C2191 C2195 1.400 . S
C2192 H2177 0.960 . S
C2192 H2178 0.960 . S
C2192 H2179 0.960 . S
C2192 C2191 1.524 . S
C2193 C2190 1.403 . S
C2193 C2194 1.392 . S
C2193 C2197 1.495 1_545 S
C2194 C2193 1.392 . S
C2194 C2195 1.385 . S
C2194 C2196 1.478 . S
C2195 H2189 0.930 . S
C2195 C2191 1.400 . S
C2195 C2194 1.385 . S
C2196 C2194 1.478 . S
C2196 C2198 1.381 . S
C2196 C2202 1.383 . S
C2197 C2193 1.495 1_565 S
C2197 H2203 0.959 . S
C2197 H2204 0.961 1_565 S
C2197 H2205 0.960 . S
C2198 C2196 1.381 . S
C2198 C2199 1.394 . S
C2198 H2206 0.930 1_545 S
C2199 C2198 1.394 . S
C2199 C2200 1.383 . S
C2199 H2207 0.929 1_545 S
C2200 C2199 1.383 . S
C2200 C2201 1.377 . S
C2201 H2185 0.930 . S
C2201 C2200 1.377 . S
C2201 C2202 1.379 . S
C2202 H2186 0.931 . S
C2202 C2196 1.383 . S
C2202 C2201 1.379 . S
H2203 C2197 0.959 . S
H2204 C2197 0.961 1_545 S
H2205 C2197 0.960 . S
H2206 C2198 0.930 1_565 S
H2207 C2199 0.929 1_565 S
H2208 C2216 0.929 . S
H2209 C2218 0.930 . S
H2210 C2220 0.930 . S
H2211 C2223 0.929 . S
H2212 C2226 0.930 . S
H2213 C2228 0.960 . S
H2214 C2228 0.960 . S
H2215 C2228 0.960 . S
C2216 H2208 0.929 . S
C2216 C2217 1.377 . S
C2216 C2218 1.384 . S
C2217 C2216 1.377 . S
C2217 C2223 1.390 . S
C2218 H2209 0.930 . S
C2218 C2216 1.384 . S
C2218 C2219 1.372 . S
C2219 C2218 1.372 . S
C2219 C2220 1.400 . S
C2219 C2224 1.490 . S
C2220 H2210 0.930 . S
C2220 C2219 1.400 . S
C2220 C2223 1.386 . S
H2221 C2237 0.930 . S
H2222 C2238 0.931 . S
C2223 H2211 0.929 . S
C2223 C2217 1.390 . S
C2223 C2220 1.386 . S
C2224 C2219 1.490 . S
C2224 C2226 1.395 . S
C2224 C2227 1.403 . S
H2225 C2231 0.930 . S
C2226 H2212 0.930 . S
C2226 C2224 1.395 . S
C2226 C2229 1.403 . S
C2227 C2224 1.403 . S
C2227 C2228 1.524 . S
C2227 C2231 1.400 . S
C2228 H2213 0.960 . S
C2228 H2214 0.960 . S
C2228 H2215 0.960 . S
C2228 C2227 1.524 . S
C2229 C2226 1.403 . S
C2229 C2230 1.392 . S
C2229 C2233 1.495 . S
C2230 C2229 1.392 . S
C2230 C2231 1.385 . S
C2230 C2232 1.478 . S
C2231 H2225 0.930 . S
C2231 C2227 1.400 . S
C2231 C2230 1.385 . S
C2232 C2230 1.478 . S
C2232 C2234 1.381 . S
C2232 C2238 1.383 . S
C2233 C2229 1.495 . S
C2233 H2239 0.959 . S
C2233 H2240 0.961 . S
C2233 H2241 0.960 . S
C2234 C2232 1.381 . S
C2234 C2235 1.394 . S
C2234 H2242 0.930 . S
C2235 C2234 1.394 . S
C2235 C2236 1.383 . S
C2235 H2243 0.929 . S
C2236 C2235 1.383 . S
C2236 C2237 1.377 . S
C2237 H2221 0.930 . S
C2237 C2236 1.377 . S
C2237 C2238 1.379 . S
C2238 H2222 0.931 . S
C2238 C2232 1.383 . S
C2238 C2237 1.379 . S
H2239 C2233 0.959 . S
H2240 C2233 0.961 . S
H2241 C2233 0.960 . S
H2242 C2234 0.930 . S
H2243 C2235 0.929 . S
H2244 C2252 0.929 . S
H2245 C2254 0.930 . S
H2246 C2256 0.930 . S
H2247 C2259 0.929 . S
H2248 C2262 0.930 . S
H2249 C2264 0.960 . S
H2250 C2264 0.960 . S
H2251 C2264 0.960 . S
C2252 H2244 0.929 . S
C2252 C2253 1.377 . S
C2252 C2254 1.384 . S
C2253 C2252 1.377 . S
C2253 C2259 1.390 . S
C2254 H2245 0.930 . S
C2254 C2252 1.384 . S
C2254 C2255 1.372 . S
C2255 C2254 1.372 . S
C2255 C2256 1.400 . S
C2255 C2260 1.490 . S
C2256 H2246 0.930 . S
C2256 C2255 1.400 . S
C2256 C2259 1.386 . S
H2257 C2273 0.930 . S
H2258 C2274 0.931 . S
C2259 H2247 0.929 . S
C2259 C2253 1.390 . S
C2259 C2256 1.386 . S
C2260 C2255 1.490 . S
C2260 C2262 1.395 . S
C2260 C2263 1.403 . S
H2261 C2267 0.930 . S
C2262 H2248 0.930 . S
C2262 C2260 1.395 . S
C2262 C2265 1.403 . S
C2263 C2260 1.403 . S
C2263 C2264 1.524 . S
C2263 C2267 1.400 . S
C2264 H2249 0.960 . S
C2264 H2250 0.960 . S
C2264 H2251 0.960 . S
C2264 C2263 1.524 . S
C2265 C2262 1.403 . S
C2265 C2266 1.392 . S
C2265 C2269 1.495 . S
C2266 C2265 1.392 . S
C2266 C2267 1.385 . S
C2266 C2268 1.478 . S
C2267 H2261 0.930 . S
C2267 C2263 1.400 . S
C2267 C2266 1.385 . S
C2268 C2266 1.478 . S
C2268 C2270 1.381 . S
C2268 C2274 1.383 . S
C2269 C2265 1.495 . S
C2269 H2275 0.959 . S
C2269 H2276 0.961 . S
C2269 H2277 0.960 . S
C2270 C2268 1.381 . S
C2270 C2271 1.394 . S
C2270 H2278 0.930 . S
C2271 C2270 1.394 . S
C2271 C2272 1.383 . S
C2271 H2279 0.929 . S
C2272 C2271 1.383 . S
C2272 C2273 1.377 . S
C2273 H2257 0.930 . S
C2273 C2272 1.377 . S
C2273 C2274 1.379 . S
C2274 H2258 0.931 . S
C2274 C2268 1.383 . S
C2274 C2273 1.379 . S
H2275 C2269 0.959 . S
H2276 C2269 0.961 . S
H2277 C2269 0.960 . S
H2278 C2270 0.930 . S
H2279 C2271 0.929 . S
H2280 C2288 0.929 . S
H2281 C2290 0.930 . S
H2282 C2292 0.930 . S
H2283 C2295 0.929 . S
H2284 C2298 0.930 . S
H2285 C2300 0.960 . S
H2286 C2300 0.960 . S
H2287 C2300 0.960 . S
C2288 H2280 0.929 . S
C2288 C2289 1.377 . S
C2288 C2290 1.384 . S
C2289 C2288 1.377 . S
C2289 C2295 1.390 . S
C2290 H2281 0.930 . S
C2290 C2288 1.384 . S
C2290 C2291 1.372 . S
C2291 C2290 1.372 . S
C2291 C2292 1.400 . S
C2291 C2296 1.490 . S
C2292 H2282 0.930 . S
C2292 C2291 1.400 . S
C2292 C2295 1.386 . S
H2293 C2309 0.930 . S
H2294 C2310 0.931 . S
C2295 H2283 0.929 . S
C2295 C2289 1.390 . S
C2295 C2292 1.386 . S
C2296 C2291 1.490 . S
C2296 C2298 1.395 . S
C2296 C2299 1.403 . S
H2297 C2303 0.930 . S
C2298 H2284 0.930 . S
C2298 C2296 1.395 . S
C2298 C2301 1.403 . S
C2299 C2296 1.403 . S
C2299 C2300 1.524 . S
C2299 C2303 1.400 . S
C2300 H2285 0.960 . S
C2300 H2286 0.960 . S
C2300 H2287 0.960 . S
C2300 C2299 1.524 . S
C2301 C2298 1.403 . S
C2301 C2302 1.392 . S
C2301 C2305 1.495 . S
C2302 C2301 1.392 . S
C2302 C2303 1.385 . S
C2302 C2304 1.478 . S
C2303 H2297 0.930 . S
C2303 C2299 1.400 . S
C2303 C2302 1.385 . S
C2304 C2302 1.478 . S
C2304 C2306 1.381 . S
C2304 C2310 1.383 . S
C2305 C2301 1.495 . S
C2305 H2311 0.959 . S
C2305 H2312 0.961 . S
C2305 H2313 0.960 . S
C2306 C2304 1.381 . S
C2306 C2307 1.394 . S
C2306 H2314 0.930 . S
C2307 C2306 1.394 . S
C2307 C2308 1.383 . S
C2307 H2315 0.929 . S
C2308 C2307 1.383 . S
C2308 C2309 1.377 . S
C2309 H2293 0.930 . S
C2309 C2308 1.377 . S
C2309 C2310 1.379 . S
C2310 H2294 0.931 . S
C2310 C2304 1.383 . S
C2310 C2309 1.379 . S
H2311 C2305 0.959 . S
H2312 C2305 0.961 . S
H2313 C2305 0.960 . S
H2314 C2306 0.930 . S
H2315 C2307 0.929 . S
H2316 C2324 0.939 1_554 S
H2317 C2326 0.918 1_455 S
H2318 C2328 0.930 . S
H2319 C2331 0.929 . S
H2320 C2334 0.930 . S
H2321 C2336 0.960 . S
H2322 C2336 0.960 . S
H2323 C2336 0.960 . S
C2324 H2316 0.939 1_556 S
C2324 C2325 1.377 . S
C2324 C2326 1.392 . S
C2325 C2324 1.377 . S
C2325 C2331 1.390 . S
C2326 H2317 0.918 1_655 S
C2326 C2324 1.392 . S
C2326 C2327 1.377 . S
C2327 C2326 1.377 . S
C2327 C2328 1.400 . S
C2327 C2332 1.490 . S
C2328 H2318 0.930 . S
C2328 C2327 1.400 . S
C2328 C2331 1.386 . S
H2329 C2345 0.929 1_655 S
H2330 C2346 0.945 . S
C2331 H2319 0.929 . S
C2331 C2325 1.390 . S
C2331 C2328 1.386 . S
C2332 C2327 1.490 . S
C2332 C2334 1.395 . S
C2332 C2335 1.403 1_655 S
H2333 C2339 0.930 . S
C2334 H2320 0.930 . S
C2334 C2332 1.395 . S
C2334 C2337 1.403 . S
C2335 C2332 1.403 1_455 S
C2335 C2336 1.524 . S
C2335 C2339 1.400 . S
C2336 H2321 0.960 . S
C2336 H2322 0.960 . S
C2336 H2323 0.960 . S
C2336 C2335 1.524 . S
C2337 C2334 1.403 . S
C2337 C2338 1.392 1_655 S
C2337 C2341 1.495 . S
C2338 C2337 1.392 1_455 S
C2338 C2339 1.385 . S
C2338 C2340 1.478 . S
C2339 H2333 0.930 . S
C2339 C2335 1.400 . S
C2339 C2338 1.385 . S
C2340 C2338 1.478 . S
C2340 C2342 1.381 . S
C2340 C2346 1.377 1_455 S
C2341 C2337 1.495 . S
C2341 H2347 0.959 . S
C2341 H2348 0.961 . S
C2341 H2349 0.960 . S
C2342 C2340 1.381 . S
C2342 C2343 1.394 . S
C2342 H2350 0.930 . S
C2343 C2342 1.394 . S
C2343 C2344 1.383 . S
C2343 H2351 0.929 . S
C2344 C2343 1.383 . S
C2344 C2345 1.377 . S
C2345 H2329 0.929 1_455 S
C2345 C2344 1.377 . S
C2345 C2346 1.372 1_455 S
C2346 H2330 0.945 . S
C2346 C2340 1.377 1_655 S
C2346 C2345 1.372 1_655 S
H2347 C2341 0.959 . S
H2348 C2341 0.961 . S
H2349 C2341 0.960 . S
H2350 C2342 0.930 . S
H2351 C2343 0.929 . S
H2352 C2360 0.929 . S
H2353 C2362 0.930 . S
H2354 C2364 0.930 . S
H2355 C2367 0.929 . S
H2356 C2370 0.930 . S
H2357 C2372 0.960 . S
H2358 C2372 0.960 . S
H2359 C2372 0.960 . S
C2360 H2352 0.929 . S
C2360 C2361 1.377 . S
C2360 C2362 1.384 . S
C2361 C2360 1.377 . S
C2361 C2367 1.390 . S
C2362 H2353 0.930 . S
C2362 C2360 1.384 . S
C2362 C2363 1.372 . S
C2363 C2362 1.372 . S
C2363 C2364 1.400 . S
C2363 C2368 1.490 . S
C2364 H2354 0.930 . S
C2364 C2363 1.400 . S
C2364 C2367 1.386 . S
H2365 C2381 0.930 . S
H2366 C2382 0.931 . S
C2367 H2355 0.929 . S
C2367 C2361 1.390 . S
C2367 C2364 1.386 . S
C2368 C2363 1.490 . S
C2368 C2370 1.395 . S
C2368 C2371 1.403 . S
H2369 C2375 0.930 . S
C2370 H2356 0.930 . S
C2370 C2368 1.395 . S
C2370 C2373 1.403 . S
C2371 C2368 1.403 . S
C2371 C2372 1.524 . S
C2371 C2375 1.400 . S
C2372 H2357 0.960 . S
C2372 H2358 0.960 . S
C2372 H2359 0.960 . S
C2372 C2371 1.524 . S
C2373 C2370 1.403 . S
C2373 C2374 1.392 . S
C2373 C2377 1.495 . S
C2374 C2373 1.392 . S
C2374 C2375 1.385 . S
C2374 C2376 1.478 . S
C2375 H2369 0.930 . S
C2375 C2371 1.400 . S
C2375 C2374 1.385 . S
C2376 C2374 1.478 . S
C2376 C2378 1.381 . S
C2376 C2382 1.383 . S
C2377 C2373 1.495 . S
C2377 H2383 0.959 . S
C2377 H2384 0.961 . S
C2377 H2385 0.960 . S
C2378 C2376 1.381 . S
C2378 C2379 1.394 . S
C2378 H2386 0.930 . S
C2379 C2378 1.394 . S
C2379 C2380 1.383 . S
C2379 H2387 0.929 . S
C2380 C2379 1.383 . S
C2380 C2381 1.377 . S
C2381 H2365 0.930 . S
C2381 C2380 1.377 . S
C2381 C2382 1.379 . S
C2382 H2366 0.931 . S
C2382 C2376 1.383 . S
C2382 C2381 1.379 . S
H2383 C2377 0.959 . S
H2384 C2377 0.961 . S
H2385 C2377 0.960 . S
H2386 C2378 0.930 . S
H2387 C2379 0.929 . S
H2388 C2396 0.929 . S
H2389 C2398 0.930 . S
H2390 C2400 0.930 . S
H2391 C2403 0.929 . S
H2392 C2406 0.930 . S
H2393 C2408 0.965 . S
H2394 C2408 0.960 . S
H2395 C2408 0.960 1_655 S
C2396 H2388 0.929 . S
C2396 C2397 1.377 . S
C2396 C2398 1.384 . S
C2397 C2396 1.377 . S
C2397 C2403 1.390 . S
C2398 H2389 0.930 . S
C2398 C2396 1.384 . S
C2398 C2399 1.372 . S
C2399 C2398 1.372 . S
C2399 C2400 1.400 . S
C2399 C2404 1.490 . S
C2400 H2390 0.930 . S
C2400 C2399 1.400 . S
C2400 C2403 1.386 . S
H2401 C2417 0.930 1_655 S
H2402 C2418 0.931 . S
C2403 H2391 0.929 . S
C2403 C2397 1.390 . S
C2403 C2400 1.386 . S
C2404 C2399 1.490 . S
C2404 C2406 1.395 . S
C2404 C2407 1.403 . S
H2405 C2411 0.930 . S
C2406 H2392 0.930 . S
C2406 C2404 1.395 . S
C2406 C2409 1.403 . S
C2407 C2404 1.403 . S
C2407 C2408 1.524 . S
C2407 C2411 1.400 . S
C2408 H2393 0.965 . S
C2408 H2394 0.960 . S
C2408 H2395 0.960 1_455 S
C2408 C2407 1.524 . S
C2409 C2406 1.403 . S
C2409 C2410 1.392 . S
C2409 C2413 1.495 . S
C2410 C2409 1.392 . S
C2410 C2411 1.385 . S
C2410 C2412 1.478 . S
C2411 H2405 0.930 . S
C2411 C2407 1.400 . S
C2411 C2410 1.385 . S
C2412 C2410 1.478 . S
C2412 C2414 1.381 . S
C2412 C2418 1.383 . S
C2413 C2409 1.495 . S
C2413 H2419 0.959 . S
C2413 H2420 0.961 . S
C2413 H2421 0.960 . S
C2414 C2412 1.381 . S
C2414 C2415 1.394 . S
C2414 H2422 0.930 . S
C2415 C2414 1.394 . S
C2415 C2416 1.383 . S
C2415 H2423 0.929 . S
C2416 C2415 1.383 . S
C2416 C2417 1.377 . S
C2417 H2401 0.930 1_455 S
C2417 C2416 1.377 . S
C2417 C2418 1.379 . S
C2418 H2402 0.931 . S
C2418 C2412 1.383 . S
C2418 C2417 1.379 . S
H2419 C2413 0.959 . S
H2420 C2413 0.961 . S
H2421 C2413 0.960 . S
H2422 C2414 0.930 . S
H2423 C2415 0.929 . S
H2424 C2432 0.929 . S
H2425 C2434 0.930 . S
H2426 C2436 0.930 . S
H2427 C2439 0.929 . S
H2428 C2442 0.930 . S
H2429 C2444 0.960 . S
H2430 C2444 0.960 . S
H2431 C2444 0.960 . S
C2432 H2424 0.929 . S
C2432 C2433 1.377 . S
C2432 C2434 1.384 . S
C2433 C2432 1.377 . S
C2433 C2439 1.390 . S
C2434 H2425 0.930 . S
C2434 C2432 1.384 . S
C2434 C2435 1.372 . S
C2435 C2434 1.372 . S
C2435 C2436 1.400 . S
C2435 C2440 1.490 . S
C2436 H2426 0.930 . S
C2436 C2435 1.400 . S
C2436 C2439 1.386 . S
H2437 C2453 0.930 . S
H2438 C2454 0.931 . S
C2439 H2427 0.929 . S
C2439 C2433 1.390 . S
C2439 C2436 1.386 . S
C2440 C2435 1.490 . S
C2440 C2442 1.395 . S
C2440 C2443 1.403 . S
H2441 C2447 0.930 . S
C2442 H2428 0.930 . S
C2442 C2440 1.395 . S
C2442 C2445 1.403 . S
C2443 C2440 1.403 . S
C2443 C2444 1.524 . S
C2443 C2447 1.400 . S
C2444 H2429 0.960 . S
C2444 H2430 0.960 . S
C2444 H2431 0.960 . S
C2444 C2443 1.524 . S
C2445 C2442 1.403 . S
C2445 C2446 1.392 . S
C2445 C2449 1.495 . S
C2446 C2445 1.392 . S
C2446 C2447 1.385 . S
C2446 C2448 1.478 . S
C2447 H2441 0.930 . S
C2447 C2443 1.400 . S
C2447 C2446 1.385 . S
C2448 C2446 1.478 . S
C2448 C2450 1.381 . S
C2448 C2454 1.383 . S
C2449 C2445 1.495 . S
C2449 H2455 0.959 . S
C2449 H2456 0.961 . S
C2449 H2457 0.960 . S
C2450 C2448 1.381 . S
C2450 C2451 1.394 . S
C2450 H2458 0.930 . S
C2451 C2450 1.394 . S
C2451 C2452 1.383 . S
C2451 H2459 0.929 . S
C2452 C2451 1.383 . S
C2452 C2453 1.377 . S
C2453 H2437 0.930 . S
C2453 C2452 1.377 . S
C2453 C2454 1.379 . S
C2454 H2438 0.931 . S
C2454 C2448 1.383 . S
C2454 C2453 1.379 . S
H2455 C2449 0.959 . S
H2456 C2449 0.961 . S
H2457 C2449 0.960 . S
H2458 C2450 0.930 . S
H2459 C2451 0.929 . S
H2460 C2468 0.929 . S
H2461 C2470 0.930 . S
H2462 C2472 0.930 . S
H2463 C2475 0.929 . S
H2464 C2478 0.930 . S
H2465 C2480 0.960 . S
H2466 C2480 0.960 . S
H2467 C2480 0.960 . S
C2468 H2460 0.929 . S
C2468 C2469 1.377 . S
C2468 C2470 1.384 . S
C2469 C2468 1.377 . S
C2469 C2475 1.390 . S
C2470 H2461 0.930 . S
C2470 C2468 1.384 . S
C2470 C2471 1.372 . S
C2471 C2470 1.372 . S
C2471 C2472 1.400 . S
C2471 C2476 1.490 . S
C2472 H2462 0.930 . S
C2472 C2471 1.400 . S
C2472 C2475 1.386 . S
H2473 C2489 0.930 . S
H2474 C2490 0.931 . S
C2475 H2463 0.929 . S
C2475 C2469 1.390 . S
C2475 C2472 1.386 . S
C2476 C2471 1.490 . S
C2476 C2478 1.395 . S
C2476 C2479 1.403 . S
H2477 C2483 0.930 . S
C2478 H2464 0.930 . S
C2478 C2476 1.395 . S
C2478 C2481 1.403 . S
C2479 C2476 1.403 . S
C2479 C2480 1.524 . S
C2479 C2483 1.400 . S
C2480 H2465 0.960 . S
C2480 H2466 0.960 . S
C2480 H2467 0.960 . S
C2480 C2479 1.524 . S
C2481 C2478 1.403 . S
C2481 C2482 1.392 . S
C2481 C2485 1.495 . S
C2482 C2481 1.392 . S
C2482 C2483 1.385 . S
C2482 C2484 1.478 . S
C2483 H2477 0.930 . S
C2483 C2479 1.400 . S
C2483 C2482 1.385 . S
C2484 C2482 1.478 . S
C2484 C2486 1.381 . S
C2484 C2490 1.383 . S
C2485 C2481 1.495 . S
C2485 H2491 0.959 . S
C2485 H2492 0.961 . S
C2485 H2493 0.960 . S
C2486 C2484 1.381 . S
C2486 C2487 1.394 . S
C2486 H2494 0.930 . S
C2487 C2486 1.394 . S
C2487 C2488 1.383 . S
C2487 H2495 0.929 . S
C2488 C2487 1.383 . S
C2488 C2489 1.377 . S
C2489 H2473 0.930 . S
C2489 C2488 1.377 . S
C2489 C2490 1.379 . S
C2490 H2474 0.931 . S
C2490 C2484 1.383 . S
C2490 C2489 1.379 . S
H2491 C2485 0.959 . S
H2492 C2485 0.961 . S
H2493 C2485 0.960 . S
H2494 C2486 0.930 . S
H2495 C2487 0.929 . S
H2496 C2504 0.929 . S
H2497 C2506 0.930 . S
H2498 C2508 0.930 . S
H2499 C2511 0.929 . S
H2500 C2514 0.930 . S
H2501 C2516 0.960 . S
H2502 C2516 0.960 . S
H2503 C2516 0.960 . S
C2504 H2496 0.929 . S
C2504 C2505 1.377 . S
C2504 C2506 1.384 . S
C2505 C2504 1.377 . S
C2505 C2511 1.390 . S
C2506 H2497 0.930 . S
C2506 C2504 1.384 . S
C2506 C2507 1.372 . S
C2507 C2506 1.372 . S
C2507 C2508 1.400 . S
C2507 C2512 1.490 . S
C2508 H2498 0.930 . S
C2508 C2507 1.400 . S
C2508 C2511 1.386 . S
H2509 C2525 0.930 . S
H2510 C2526 0.931 . S
C2511 H2499 0.929 . S
C2511 C2505 1.390 . S
C2511 C2508 1.386 . S
C2512 C2507 1.490 . S
C2512 C2514 1.395 . S
C2512 C2515 1.403 . S
H2513 C2519 0.930 . S
C2514 H2500 0.930 . S
C2514 C2512 1.395 . S
C2514 C2517 1.403 . S
C2515 C2512 1.403 . S
C2515 C2516 1.524 . S
C2515 C2519 1.400 . S
C2516 H2501 0.960 . S
C2516 H2502 0.960 . S
C2516 H2503 0.960 . S
C2516 C2515 1.524 . S
C2517 C2514 1.403 . S
C2517 C2518 1.392 . S
C2517 C2521 1.495 . S
C2518 C2517 1.392 . S
C2518 C2519 1.385 . S
C2518 C2520 1.478 . S
C2519 H2513 0.930 . S
C2519 C2515 1.400 . S
C2519 C2518 1.385 . S
C2520 C2518 1.478 . S
C2520 C2522 1.381 . S
C2520 C2526 1.383 . S
C2521 C2517 1.495 . S
C2521 H2527 0.959 . S
C2521 H2528 0.961 . S
C2521 H2529 0.960 . S
C2522 C2520 1.381 . S
C2522 C2523 1.394 . S
C2522 H2530 0.930 . S
C2523 C2522 1.394 . S
C2523 C2524 1.383 . S
C2523 H2531 0.929 . S
C2524 C2523 1.383 . S
C2524 C2525 1.377 . S
C2525 H2509 0.930 . S
C2525 C2524 1.377 . S
C2525 C2526 1.379 . S
C2526 H2510 0.931 . S
C2526 C2520 1.383 . S
C2526 C2525 1.379 . S
H2527 C2521 0.959 . S
H2528 C2521 0.961 . S
H2529 C2521 0.960 . S
H2530 C2522 0.930 . S
H2531 C2523 0.929 . S
H2532 C2540 0.929 . S
H2533 C2542 0.930 . S
H2534 C2544 0.930 . S
H2535 C2547 0.929 . S
H2536 C2550 0.930 . S
H2537 C2552 0.960 . S
H2538 C2552 0.960 . S
H2539 C2552 0.960 . S
C2540 H2532 0.929 . S
C2540 C2541 1.377 . S
C2540 C2542 1.384 . S
C2541 C2540 1.377 . S
C2541 C2547 1.390 . S
C2542 H2533 0.930 . S
C2542 C2540 1.384 . S
C2542 C2543 1.372 . S
C2543 C2542 1.372 . S
C2543 C2544 1.400 . S
C2543 C2548 1.490 . S
C2544 H2534 0.930 . S
C2544 C2543 1.400 . S
C2544 C2547 1.386 . S
H2545 C2561 0.930 . S
H2546 C2562 0.931 . S
C2547 H2535 0.929 . S
C2547 C2541 1.390 . S
C2547 C2544 1.386 . S
C2548 C2543 1.490 . S
C2548 C2550 1.395 . S
C2548 C2551 1.403 . S
H2549 C2555 0.930 . S
C2550 H2536 0.930 . S
C2550 C2548 1.395 . S
C2550 C2553 1.403 . S
C2551 C2548 1.403 . S
C2551 C2552 1.524 . S
C2551 C2555 1.400 . S
C2552 H2537 0.960 . S
C2552 H2538 0.960 . S
C2552 H2539 0.960 . S
C2552 C2551 1.524 . S
C2553 C2550 1.403 . S
C2553 C2554 1.392 . S
C2553 C2557 1.495 . S
C2554 C2553 1.392 . S
C2554 C2555 1.385 . S
C2554 C2556 1.478 . S
C2555 H2549 0.930 . S
C2555 C2551 1.400 . S
C2555 C2554 1.385 . S
C2556 C2554 1.478 . S
C2556 C2558 1.381 . S
C2556 C2562 1.383 . S
C2557 C2553 1.495 . S
C2557 H2563 0.959 . S
C2557 H2564 0.961 . S
C2557 H2565 0.960 . S
C2558 C2556 1.381 . S
C2558 C2559 1.394 . S
C2558 H2566 0.930 . S
C2559 C2558 1.394 . S
C2559 C2560 1.383 . S
C2559 H2567 0.929 . S
C2560 C2559 1.383 . S
C2560 C2561 1.377 . S
C2561 H2545 0.930 . S
C2561 C2560 1.377 . S
C2561 C2562 1.379 . S
C2562 H2546 0.931 . S
C2562 C2556 1.383 . S
C2562 C2561 1.379 . S
H2563 C2557 0.959 . S
H2564 C2557 0.961 . S
H2565 C2557 0.960 . S
H2566 C2558 0.930 . S
H2567 C2559 0.929 . S
H2568 C2576 0.929 . S
H2569 C2578 0.930 . S
H2570 C2580 0.930 . S
H2571 C2583 0.929 . S
H2572 C2586 0.930 . S
H2573 C2588 0.960 . S
H2574 C2588 0.960 . S
H2575 C2588 0.960 . S
C2576 H2568 0.929 . S
C2576 C2577 1.377 . S
C2576 C2578 1.384 . S
C2577 C2576 1.377 . S
C2577 C2583 1.390 . S
C2578 H2569 0.930 . S
C2578 C2576 1.384 . S
C2578 C2579 1.372 . S
C2579 C2578 1.372 . S
C2579 C2580 1.400 . S
C2579 C2584 1.490 . S
C2580 H2570 0.930 . S
C2580 C2579 1.400 . S
C2580 C2583 1.386 . S
H2581 C2597 0.930 . S
H2582 C2598 0.931 . S
C2583 H2571 0.929 . S
C2583 C2577 1.390 . S
C2583 C2580 1.386 . S
C2584 C2579 1.490 . S
C2584 C2586 1.395 . S
C2584 C2587 1.403 . S
H2585 C2591 0.930 . S
C2586 H2572 0.930 . S
C2586 C2584 1.395 . S
C2586 C2589 1.403 . S
C2587 C2584 1.403 . S
C2587 C2588 1.524 . S
C2587 C2591 1.400 . S
C2588 H2573 0.960 . S
C2588 H2574 0.960 . S
C2588 H2575 0.960 . S
C2588 C2587 1.524 . S
C2589 C2586 1.403 . S
C2589 C2590 1.392 . S
C2589 C2593 1.495 . S
C2590 C2589 1.392 . S
C2590 C2591 1.385 . S
C2590 C2592 1.478 . S
C2591 H2585 0.930 . S
C2591 C2587 1.400 . S
C2591 C2590 1.385 . S
C2592 C2590 1.478 . S
C2592 C2594 1.381 . S
C2592 C2598 1.383 . S
C2593 C2589 1.495 . S
C2593 H2599 0.959 . S
C2593 H2600 0.961 . S
C2593 H2601 0.960 . S
C2594 C2592 1.381 . S
C2594 C2595 1.394 . S
C2594 H2602 0.930 . S
C2595 C2594 1.394 . S
C2595 C2596 1.383 . S
C2595 H2603 0.929 . S
C2596 C2595 1.383 . S
C2596 C2597 1.377 . S
C2597 H2581 0.930 . S
C2597 C2596 1.377 . S
C2597 C2598 1.379 . S
C2598 H2582 0.931 . S
C2598 C2592 1.383 . S
C2598 C2597 1.379 . S
H2599 C2593 0.959 . S
H2600 C2593 0.961 . S
H2601 C2593 0.960 . S
H2602 C2594 0.930 . S
H2603 C2595 0.929 . S
H2604 C2612 0.929 . S
H2605 C2614 0.930 . S
H2606 C2616 0.930 . S
H2607 C2619 0.929 . S
H2608 C2622 0.930 . S
H2609 C2624 0.960 . S
H2610 C2624 0.960 . S
H2611 C2624 0.960 . S
C2612 H2604 0.929 . S
C2612 C2613 1.377 . S
C2612 C2614 1.384 . S
C2613 C2612 1.377 . S
C2613 C2619 1.390 . S
C2614 H2605 0.930 . S
C2614 C2612 1.384 . S
C2614 C2615 1.372 . S
C2615 C2614 1.372 . S
C2615 C2616 1.400 . S
C2615 C2620 1.490 . S
C2616 H2606 0.930 . S
C2616 C2615 1.400 . S
C2616 C2619 1.386 . S
H2617 C2633 0.930 . S
H2618 C2634 0.931 . S
C2619 H2607 0.929 . S
C2619 C2613 1.390 . S
C2619 C2616 1.386 . S
C2620 C2615 1.490 . S
C2620 C2622 1.395 . S
C2620 C2623 1.403 . S
H2621 C2627 0.930 . S
C2622 H2608 0.930 . S
C2622 C2620 1.395 . S
C2622 C2625 1.403 . S
C2623 C2620 1.403 . S
C2623 C2624 1.524 . S
C2623 C2627 1.400 . S
C2624 H2609 0.960 . S
C2624 H2610 0.960 . S
C2624 H2611 0.960 . S
C2624 C2623 1.524 . S
C2625 C2622 1.403 . S
C2625 C2626 1.392 . S
C2625 C2629 1.495 . S
C2626 C2625 1.392 . S
C2626 C2627 1.385 . S
C2626 C2628 1.478 . S
C2627 H2621 0.930 . S
C2627 C2623 1.400 . S
C2627 C2626 1.385 . S
C2628 C2626 1.478 . S
C2628 C2630 1.381 . S
C2628 C2634 1.383 . S
C2629 C2625 1.495 . S
C2629 H2635 0.959 . S
C2629 H2636 0.961 . S
C2629 H2637 0.960 . S
C2630 C2628 1.381 . S
C2630 C2631 1.394 . S
C2630 H2638 0.930 . S
C2631 C2630 1.394 . S
C2631 C2632 1.383 . S
C2631 H2639 0.929 . S
C2632 C2631 1.383 . S
C2632 C2633 1.377 . S
C2633 H2617 0.930 . S
C2633 C2632 1.377 . S
C2633 C2634 1.379 . S
C2634 H2618 0.931 . S
C2634 C2628 1.383 . S
C2634 C2633 1.379 . S
H2635 C2629 0.959 . S
H2636 C2629 0.961 . S
H2637 C2629 0.960 . S
H2638 C2630 0.930 . S
H2639 C2631 0.929 . S
H2640 C2648 0.929 . S
H2641 C2650 0.930 . S
H2642 C2652 0.930 . S
H2643 C2655 0.929 . S
H2644 C2658 0.930 . S
H2645 C2660 0.960 . S
H2646 C2660 0.960 . S
H2647 C2660 0.960 . S
C2648 H2640 0.929 . S
C2648 C2649 1.377 . S
C2648 C2650 1.384 . S
C2649 C2648 1.377 . S
C2649 C2655 1.390 . S
C2650 H2641 0.930 . S
C2650 C2648 1.384 . S
C2650 C2651 1.372 . S
C2651 C2650 1.372 . S
C2651 C2652 1.400 . S
C2651 C2656 1.490 . S
C2652 H2642 0.930 . S
C2652 C2651 1.400 . S
C2652 C2655 1.386 . S
H2653 C2669 0.930 . S
H2654 C2670 0.931 . S
C2655 H2643 0.929 . S
C2655 C2649 1.390 . S
C2655 C2652 1.386 . S
C2656 C2651 1.490 . S
C2656 C2658 1.395 . S
C2656 C2659 1.403 . S
H2657 C2663 0.930 . S
C2658 H2644 0.930 . S
C2658 C2656 1.395 . S
C2658 C2661 1.403 . S
C2659 C2656 1.403 . S
C2659 C2660 1.524 . S
C2659 C2663 1.400 . S
C2660 H2645 0.960 . S
C2660 H2646 0.960 . S
C2660 H2647 0.960 . S
C2660 C2659 1.524 . S
C2661 C2658 1.403 . S
C2661 C2662 1.392 . S
C2661 C2665 1.495 . S
C2662 C2661 1.392 . S
C2662 C2663 1.385 . S
C2662 C2664 1.478 . S
C2663 H2657 0.930 . S
C2663 C2659 1.400 . S
C2663 C2662 1.385 . S
C2664 C2662 1.478 . S
C2664 C2666 1.381 . S
C2664 C2670 1.383 . S
C2665 C2661 1.495 . S
C2665 H2671 0.959 . S
C2665 H2672 0.961 . S
C2665 H2673 0.960 . S
C2666 C2664 1.381 . S
C2666 C2667 1.394 . S
C2666 H2674 0.930 . S
C2667 C2666 1.394 . S
C2667 C2668 1.383 . S
C2667 H2675 0.929 . S
C2668 C2667 1.383 . S
C2668 C2669 1.377 . S
C2669 H2653 0.930 . S
C2669 C2668 1.377 . S
C2669 C2670 1.379 . S
C2670 H2654 0.931 . S
C2670 C2664 1.383 . S
C2670 C2669 1.379 . S
H2671 C2665 0.959 . S
H2672 C2665 0.961 . S
H2673 C2665 0.960 . S
H2674 C2666 0.930 . S
H2675 C2667 0.929 . S
H2676 C2684 0.929 . S
H2677 C2686 0.930 . S
H2678 C2688 0.930 . S
H2679 C2691 0.929 . S
H2680 C2694 0.930 . S
H2681 C2696 0.960 . S
H2682 C2696 0.960 . S
H2683 C2696 0.960 . S
C2684 H2676 0.929 . S
C2684 C2685 1.377 . S
C2684 C2686 1.384 . S
C2685 C2684 1.377 . S
C2685 C2691 1.390 . S
C2686 H2677 0.930 . S
C2686 C2684 1.384 . S
C2686 C2687 1.372 . S
C2687 C2686 1.372 . S
C2687 C2688 1.400 . S
C2687 C2692 1.490 . S
C2688 H2678 0.930 . S
C2688 C2687 1.400 . S
C2688 C2691 1.386 . S
H2689 C2705 0.930 . S
H2690 C2706 0.931 . S
C2691 H2679 0.929 . S
C2691 C2685 1.390 . S
C2691 C2688 1.386 . S
C2692 C2687 1.490 . S
C2692 C2694 1.395 . S
C2692 C2695 1.403 . S
H2693 C2699 0.930 . S
C2694 H2680 0.930 . S
C2694 C2692 1.395 . S
C2694 C2697 1.403 . S
C2695 C2692 1.403 . S
C2695 C2696 1.524 . S
C2695 C2699 1.400 . S
C2696 H2681 0.960 . S
C2696 H2682 0.960 . S
C2696 H2683 0.960 . S
C2696 C2695 1.524 . S
C2697 C2694 1.403 . S
C2697 C2698 1.392 . S
C2697 C2701 1.495 . S
C2698 C2697 1.392 . S
C2698 C2699 1.385 . S
C2698 C2700 1.478 . S
C2699 H2693 0.930 . S
C2699 C2695 1.400 . S
C2699 C2698 1.385 . S
C2700 C2698 1.478 . S
C2700 C2702 1.381 . S
C2700 C2706 1.383 . S
C2701 C2697 1.495 . S
C2701 H2707 0.959 . S
C2701 H2708 0.961 . S
C2701 H2709 0.960 . S
C2702 C2700 1.381 . S
C2702 C2703 1.394 . S
C2702 H2710 0.930 . S
C2703 C2702 1.394 . S
C2703 C2704 1.383 . S
C2703 H2711 0.929 . S
C2704 C2703 1.383 . S
C2704 C2705 1.377 . S
C2705 H2689 0.930 . S
C2705 C2704 1.377 . S
C2705 C2706 1.379 . S
C2706 H2690 0.931 . S
C2706 C2700 1.383 . S
C2706 C2705 1.379 . S
H2707 C2701 0.959 . S
H2708 C2701 0.961 . S
H2709 C2701 0.960 . S
H2710 C2702 0.930 . S
H2711 C2703 0.929 . S
H2712 C2720 0.929 . S
H2713 C2722 0.930 . S
H2714 C2724 0.930 . S
H2715 C2727 0.929 . S
H2716 C2730 0.930 . S
H2717 C2732 0.960 . S
H2718 C2732 0.960 . S
H2719 C2732 0.960 1_556 S
C2720 H2712 0.929 . S
C2720 C2721 1.377 . S
C2720 C2722 1.384 . S
C2721 C2720 1.377 . S
C2721 C2727 1.390 . S
C2722 H2713 0.930 . S
C2722 C2720 1.384 . S
C2722 C2723 1.372 . S
C2723 C2722 1.372 . S
C2723 C2724 1.400 . S
C2723 C2728 1.490 . S
C2724 H2714 0.930 . S
C2724 C2723 1.400 . S
C2724 C2727 1.386 . S
H2725 C2741 0.930 . S
H2726 C2742 0.931 . S
C2727 H2715 0.929 . S
C2727 C2721 1.390 . S
C2727 C2724 1.386 . S
C2728 C2723 1.490 . S
C2728 C2730 1.395 . S
C2728 C2731 1.403 . S
H2729 C2735 0.930 1_554 S
C2730 H2716 0.930 . S
C2730 C2728 1.395 . S
C2730 C2733 1.403 . S
C2731 C2728 1.403 . S
C2731 C2732 1.524 1_556 S
C2731 C2735 1.400 . S
C2732 H2717 0.960 . S
C2732 H2718 0.960 . S
C2732 H2719 0.960 1_554 S
C2732 C2731 1.524 1_554 S
C2733 C2730 1.403 . S
C2733 C2734 1.392 . S
C2733 C2737 1.495 . S
C2734 C2733 1.392 . S
C2734 C2735 1.385 . S
C2734 C2736 1.478 . S
C2735 H2729 0.930 1_556 S
C2735 C2731 1.400 . S
C2735 C2734 1.385 . S
C2736 C2734 1.478 . S
C2736 C2738 1.381 1_556 S
C2736 C2742 1.383 . S
C2737 C2733 1.495 . S
C2737 H2743 0.959 . S
C2737 H2744 0.961 . S
C2737 H2745 0.960 . S
C2738 C2736 1.381 1_554 S
C2738 C2739 1.394 . S
C2738 H2746 0.930 . S
C2739 C2738 1.394 . S
C2739 C2740 1.383 1_554 S
C2739 H2747 0.929 . S
C2740 C2739 1.383 1_556 S
C2740 C2741 1.377 . S
C2741 H2725 0.930 . S
C2741 C2740 1.377 . S
C2741 C2742 1.379 . S
C2742 H2726 0.931 . S
C2742 C2736 1.383 . S
C2742 C2741 1.379 . S
H2743 C2737 0.959 . S
H2744 C2737 0.961 . S
H2745 C2737 0.960 . S
H2746 C2738 0.930 . S
H2747 C2739 0.929 . S
H2748 C2756 0.929 . S
H2749 C2758 0.930 . S
H2750 C2760 0.930 . S
H2751 C2763 0.929 . S
H2752 C2766 0.930 . S
H2753 C2768 0.960 . S
H2754 C2768 0.960 . S
H2755 C2768 0.960 . S
C2756 H2748 0.929 . S
C2756 C2757 1.377 . S
C2756 C2758 1.384 . S
C2757 C2756 1.377 . S
C2757 C2763 1.390 . S
C2758 H2749 0.930 . S
C2758 C2756 1.384 . S
C2758 C2759 1.372 . S
C2759 C2758 1.372 . S
C2759 C2760 1.400 . S
C2759 C2764 1.490 . S
C2760 H2750 0.930 . S
C2760 C2759 1.400 . S
C2760 C2763 1.386 . S
H2761 C2777 0.930 . S
H2762 C2778 0.931 . S
C2763 H2751 0.929 . S
C2763 C2757 1.390 . S
C2763 C2760 1.386 . S
C2764 C2759 1.490 . S
C2764 C2766 1.395 . S
C2764 C2767 1.403 . S
H2765 C2771 0.930 . S
C2766 H2752 0.930 . S
C2766 C2764 1.395 . S
C2766 C2769 1.403 . S
C2767 C2764 1.403 . S
C2767 C2768 1.524 . S
C2767 C2771 1.400 . S
C2768 H2753 0.960 . S
C2768 H2754 0.960 . S
C2768 H2755 0.960 . S
C2768 C2767 1.524 . S
C2769 C2766 1.403 . S
C2769 C2770 1.392 . S
C2769 C2773 1.495 . S
C2770 C2769 1.392 . S
C2770 C2771 1.385 . S
C2770 C2772 1.478 . S
C2771 H2765 0.930 . S
C2771 C2767 1.400 . S
C2771 C2770 1.385 . S
C2772 C2770 1.478 . S
C2772 C2774 1.381 . S
C2772 C2778 1.383 . S
C2773 C2769 1.495 . S
C2773 H2779 0.959 . S
C2773 H2780 0.961 . S
C2773 H2781 0.960 . S
C2774 C2772 1.381 . S
C2774 C2775 1.394 . S
C2774 H2782 0.930 . S
C2775 C2774 1.394 . S
C2775 C2776 1.383 . S
C2775 H2783 0.929 . S
C2776 C2775 1.383 . S
C2776 C2777 1.377 . S
C2777 H2761 0.930 . S
C2777 C2776 1.377 . S
C2777 C2778 1.379 . S
C2778 H2762 0.931 . S
C2778 C2772 1.383 . S
C2778 C2777 1.379 . S
H2779 C2773 0.959 . S
H2780 C2773 0.961 . S
H2781 C2773 0.960 . S
H2782 C2774 0.930 . S
H2783 C2775 0.929 . S
H2784 C2792 0.929 . S
H2785 C2794 0.930 . S
H2786 C2796 0.930 . S
H2787 C2799 0.929 . S
H2788 C2802 0.930 . S
H2789 C2804 0.960 . S
H2790 C2804 0.960 . S
H2791 C2804 0.960 . S
C2792 H2784 0.929 . S
C2792 C2793 1.377 . S
C2792 C2794 1.384 . S
C2793 C2792 1.377 . S
C2793 C2799 1.390 . S
C2794 H2785 0.930 . S
C2794 C2792 1.384 . S
C2794 C2795 1.372 . S
C2795 C2794 1.372 . S
C2795 C2796 1.400 . S
C2795 C2800 1.490 . S
C2796 H2786 0.930 . S
C2796 C2795 1.400 . S
C2796 C2799 1.386 . S
H2797 C2813 0.930 . S
H2798 C2814 0.931 . S
C2799 H2787 0.929 . S
C2799 C2793 1.390 . S
C2799 C2796 1.386 . S
C2800 C2795 1.490 . S
C2800 C2802 1.395 . S
C2800 C2803 1.403 . S
H2801 C2807 0.930 . S
C2802 H2788 0.930 . S
C2802 C2800 1.395 . S
C2802 C2805 1.403 . S
C2803 C2800 1.403 . S
C2803 C2804 1.524 . S
C2803 C2807 1.400 . S
C2804 H2789 0.960 . S
C2804 H2790 0.960 . S
C2804 H2791 0.960 . S
C2804 C2803 1.524 . S
C2805 C2802 1.403 . S
C2805 C2806 1.392 . S
C2805 C2809 1.495 1_554 S
C2806 C2805 1.392 . S
C2806 C2807 1.385 . S
C2806 C2808 1.478 . S
C2807 H2801 0.930 . S
C2807 C2803 1.400 . S
C2807 C2806 1.385 . S
C2808 C2806 1.478 . S
C2808 C2810 1.381 . S
C2808 C2814 1.383 . S
C2809 C2805 1.495 1_556 S
C2809 H2815 0.959 . S
C2809 H2816 0.961 . S
C2809 H2817 0.960 . S
C2810 C2808 1.381 . S
C2810 C2811 1.394 . S
C2810 H2818 0.930 . S
C2811 C2810 1.394 . S
C2811 C2812 1.383 . S
C2811 H2819 0.929 . S
C2812 C2811 1.383 . S
C2812 C2813 1.377 . S
C2813 H2797 0.930 . S
C2813 C2812 1.377 . S
C2813 C2814 1.379 . S
C2814 H2798 0.931 . S
C2814 C2808 1.383 . S
C2814 C2813 1.379 . S
H2815 C2809 0.959 . S
H2816 C2809 0.961 . S
H2817 C2809 0.960 . S
H2818 C2810 0.930 . S
H2819 C2811 0.929 . S
H2820 C2828 0.948 . S
H2821 C2830 0.930 1_556 S
H2822 C2832 0.930 . S
H2823 C2835 0.929 . S
H2824 C2838 0.930 . S
H2825 C2840 0.960 1_556 S
H2826 C2840 0.960 1_556 S
H2827 C2840 0.960 . S
C2828 H2820 0.948 . S
C2828 C2829 1.377 . S
C2828 C2830 1.384 . S
C2829 C2828 1.377 . S
C2829 C2835 1.390 . S
C2830 H2821 0.930 1_554 S
C2830 C2828 1.384 . S
C2830 C2831 1.372 . S
C2831 C2830 1.372 . S
C2831 C2832 1.400 . S
C2831 C2836 1.490 . S
C2832 H2822 0.930 . S
C2832 C2831 1.400 . S
C2832 C2835 1.386 . S
H2833 C2849 0.930 . S
H2834 C2850 0.931 . S
C2835 H2823 0.929 . S
C2835 C2829 1.390 . S
C2835 C2832 1.386 . S
C2836 C2831 1.490 . S
C2836 C2838 1.395 . S
C2836 C2839 1.403 . S
H2837 C2843 0.930 . S
C2838 H2824 0.930 . S
C2838 C2836 1.395 . S
C2838 C2841 1.403 . S
C2839 C2836 1.403 . S
C2839 C2840 1.524 . S
C2839 C2843 1.400 . S
C2840 H2825 0.960 1_554 S
C2840 H2826 0.960 1_554 S
C2840 H2827 0.960 . S
C2840 C2839 1.524 . S
C2841 C2838 1.403 . S
C2841 C2842 1.392 . S
C2841 C2845 1.495 . S
C2842 C2841 1.392 . S
C2842 C2843 1.385 . S
C2842 C2844 1.478 . S
C2843 H2837 0.930 . S
C2843 C2839 1.400 . S
C2843 C2842 1.385 . S
C2844 C2842 1.478 . S
C2844 C2846 1.356 1_554 S
C2844 C2850 1.383 . S
C2845 C2841 1.495 . S
C2845 H2851 0.959 . S
C2845 H2852 0.961 . S
C2845 H2853 0.960 . S
C2846 C2844 1.356 1_556 S
C2846 C2847 1.399 . S
C2846 H2854 0.951 . S
C2847 C2846 1.399 . S
C2847 C2848 1.383 1_556 S
C2847 H2855 0.929 . S
C2848 C2847 1.383 1_554 S
C2848 C2849 1.377 . S
C2849 H2833 0.930 . S
C2849 C2848 1.377 . S
C2849 C2850 1.379 . S
C2850 H2834 0.931 . S
C2850 C2844 1.383 . S
C2850 C2849 1.379 . S
H2851 C2845 0.959 . S
H2852 C2845 0.961 . S
H2853 C2845 0.960 . S
H2854 C2846 0.951 . S
H2855 C2847 0.929 . S
C1156 C971 1.422 . S
C1137 C331 1.438 . S
C1192 C979 1.267 . S
C1173 C380 1.526 . S
C1209 C421 1.407 . S
C1228 C999 1.383 . S
C1264 C1013 1.515 . S
C1245 C260 1.506 1_655 S
C1300 C1028 1.530 . S
C1281 C620 1.511 . S
C1336 C1042 1.510 . S
C1317 C740 1.499 . S
C1353 C680 1.553 . S
C1372 C1056 1.572 . S
C1408 C1062 1.424 . S
C1389 C571 1.459 . S
C1425 C691 1.496 . S
C1444 C1076 1.488 . S
C1480 C1097 1.556 . S
C1461 C541 1.544 . S
C1497 C601 1.440 . S
C1516 C1077 1.169 . S
C1552 C1098 1.538 . S
C1533 C721 1.524 . S
C1569 C451 1.458 . S
C1588 C1105 1.250 . S
C1605 C241 1.484 . S
C1624 C1111 1.476 . S
C1641 C320 1.486 . S
C1660 C1104 1.487 . S
C1677 C391 1.457 . S
C1696 C1112 1.476 . S
C1713 C211 1.470 . S
C1732 C1006 1.431 . S
C1749 C841 1.478 . S
C1768 C1007 1.303 . S
C1804 C964 1.527 . S
C1785 C901 1.551 . S
C1840 C985 1.429 . S
C1821 C500 1.436 . S
C1857 C271 1.469 . S
C1876 C1020 1.471 . S
C1912 C1070 1.532 . S
C1893 C661 1.511 . S
C1948 C1021 1.260 . S
C1929 C560 1.418 . S
C1984 C1049 1.329 . S
C1965 C751 1.541 . S
C2020 C1055 1.424 . S
C2001 C871 1.438 . S
C2037 C920 1.530 . S
C2056 C1063 1.340 . S
C2073 C481 1.406 . S
C2092 C1027 1.387 . S
C2128 C1041 1.516 . S
C2109 C800 1.502 . S
C2145 C200 1.509 . S
C2164 C1000 1.532 . S
C2200 C1014 1.512 . S
C2181 C20 1.496 . S
C2236 C972 1.573 . S
C2217 C80 1.554 . S
C2272 C978 1.458 . S
C2253 C151 1.462 . S
C2289 C91 1.496 . S
C2308 C1090 1.475 . S
C2325 C121 1.527 1_556 S
C2344 C1083 1.522 . S
C2361 C181 1.446 . S
C2380 C1091 1.281 . S
C2397 C1 1.522 . S
C2416 C1084 1.538 . S
C2452 C1119 1.169 . S
C2433 C511 1.453 . S
C2488 C1125 1.491 . S
C2469 C781 1.489 . S
C2524 C1118 1.482 . S
C2505 C860 1.485 . S
C2541 C931 1.462 . S
C2560 C1126 1.471 . S
C2577 C631 1.470 . S
C2596 C1034 1.431 . S
C2632 C1035 1.301 . S
C2613 C301 1.478 . S
C2668 C1048 1.541 . S
C2649 C361 1.553 . S
C2704 C1069 1.440 . S
C2685 C440 1.439 . S
C2721 C811 1.465 . S
C2740 C992 1.465 1_556 S
C2776 C986 1.533 . S
C2757 C61 1.514 . S
C2793 C140 1.415 . S
C2812 C993 1.190 . S
C2848 C965 1.336 . S
C2829 C31 1.542 . S
