# Generated by pormake.
# Topology rtl, (3,6)-cn, num edge types: 1
# Building blocks:
#     Node 0, Type 0, BuildingBlock: INOVEN_clean_linker_0, # of connection points: 3
#     Node 1, Type 0, BuildingBlock: INOVEN_clean_linker_0, # of connection points: 3
#     Node 2, Type 0, BuildingBlock: INOVEN_clean_linker_0, # of connection points: 3
#     Node 3, Type 0, BuildingBlock: INOVEN_clean_linker_0, # of connection points: 3
#     Node 4, Type 1, BuildingBlock: FUNLAD_clean_sbu_0, # of connection points: 6
#     Node 5, Type 1, BuildingBlock: FUNLAD_clean_sbu_0, # of connection points: 6
#     Edge 6, Type (0, 1), BuildingBlock: MIFKUJ_clean_linker_0, # of connection points: 2
#     Edge 7, Type (0, 1), BuildingBlock: MIFKUJ_clean_linker_0, # of connection points: 2
#     Edge 8, Type (0, 1), BuildingBlock: MIFKUJ_clean_linker_0, # of connection points: 2
#     Edge 9, Type (0, 1), BuildingBlock: MIFKUJ_clean_linker_0, # of connection points: 2
#     Edge 10, Type (0, 1), BuildingBlock: MIFKUJ_clean_linker_0, # of connection points: 2
#     Edge 11, Type (0, 1), BuildingBlock: MIFKUJ_clean_linker_0, # of connection points: 2
#     Edge 12, Type (0, 1), BuildingBlock: MIFKUJ_clean_linker_0, # of connection points: 2
#     Edge 13, Type (0, 1), BuildingBlock: MIFKUJ_clean_linker_0, # of connection points: 2
#     Edge 14, Type (0, 1), BuildingBlock: MIFKUJ_clean_linker_0, # of connection points: 2
#     Edge 15, Type (0, 1), BuildingBlock: MIFKUJ_clean_linker_0, # of connection points: 2
#     Edge 16, Type (0, 1), BuildingBlock: MIFKUJ_clean_linker_0, # of connection points: 2
#     Edge 17, Type (0, 1), BuildingBlock: MIFKUJ_clean_linker_0, # of connection points: 2
# Relax obj value: 0.003
# Max RMSD: 0.052
# Mean RMSD: 0.034
data_MOF--net-rtl--node1-FUNLAD_clean_sbu_0--node2-INOVEN_clean_linker_0--edge1-MIFKUJ_clean_linker_0
_symmetry_space_group_name_H-M    P1
_symmetry_Int_Tables_number       1
_symmetry_cell_setting            triclinic
loop_
_symmetry_equiv_pos_as_xyz
'x, y, z'
_cell_length_a     50.987646
_cell_length_b     50.936804
_cell_length_c     27.549073
_cell_angle_alpha  91.183844
_cell_angle_beta   92.225687
_cell_angle_gamma 89.991078
loop_
_atom_site_label
_atom_site_type_symbol
_atom_site_fract_x
_atom_site_fract_y
_atom_site_fract_z
_atom_type_partial_charge
H0 H 0.193 0.81968 0.93868 0.0
H1 H 0.14179 0.87021 0.01857 0.0
H2 H 0.19258 0.8163 0.09482 0.0
N3 N 0.21446 0.79569 0.01406 0.0
N4 N 0.22018 0.78154 0.04934 0.0
C5 C 0.18559 0.82668 0.97296 0.0
C6 C 0.16598 0.84599 0.97348 0.0
C7 C 0.19501 0.81557 0.01638 0.0
C8 C 0.18518 0.82446 0.06094 0.0
C9 C 0.16639 0.84458 0.06181 0.0
C10 C 0.15669 0.85501 0.018 0.0
H11 H 0.68252 0.69809 0.62483 0.0
H12 H 0.62566 0.65002 0.54507 0.0
H13 H 0.68367 0.69218 0.46872 0.0
N14 N 0.7066 0.71559 0.54901 0.0
N15 N 0.72047 0.71928 0.51345 0.0
C16 C 0.67439 0.6902 0.59063 0.0
C17 C 0.65275 0.67315 0.59018 0.0
C18 C 0.68561 0.69724 0.5471 0.0
C19 C 0.67523 0.68681 0.50263 0.0
C20 C 0.6533 0.67014 0.50179 0.0
C21 C 0.64214 0.66351 0.54561 0.0
H22 H 0.81714 0.18876 0.92717 0.0
H23 H 0.86386 0.13387 0.0098 0.0
H24 H 0.81069 0.18543 0.08241 0.0
N25 N 0.79259 0.20977 0.00104 0.0
N26 N 0.77839 0.21554 0.03556 0.0
C27 C 0.82292 0.18018 0.96164 0.0
C28 C 0.84191 0.16023 0.96345 0.0
C29 C 0.81148 0.18934 0.00425 0.0
C30 C 0.81921 0.1784 0.04915 0.0
C31 C 0.83797 0.15826 0.05115 0.0
C32 C 0.84923 0.14932 0.00826 0.0
H33 H 0.31935 0.3085 0.42653 0.0
H34 H 0.3722 0.3603 0.50692 0.0
H35 H 0.31455 0.31658 0.58189 0.0
N36 N 0.29449 0.29097 0.50134 0.0
N37 N 0.28068 0.28631 0.53657 0.0
C38 C 0.32632 0.31727 0.46083 0.0
C39 C 0.34702 0.33538 0.4619 0.0
C40 C 0.31469 0.31018 0.50393 0.0
C41 C 0.32363 0.32176 0.5485 0.0
C42 C 0.34427 0.34012 0.54986 0.0
C43 C 0.35601 0.34648 0.50637 0.0
C44 C 0.02863 0.9745 0.43926 0.0
N45 N 0.04554 0.04589 0.51294 0.0
C46 C 0.07129 0.03918 0.51028 0.0
C47 C 0.0907 0.05857 0.51184 0.0
C48 C 0.08356 0.08511 0.51659 0.0
C49 C 0.05684 0.09145 0.51923 0.0
C50 C 0.03807 0.07146 0.51715 0.0
Zn51 Zn 0.0175 0.01707 0.51134 0.0
C52 C 0.97355 0.02825 0.44053 0.0
N53 N 0.95883 0.95697 0.50811 0.0
C54 C 0.96597 0.93131 0.50405 0.0
C55 C 0.9332 0.96392 0.51168 0.0
C56 C 0.91365 0.94474 0.51189 0.0
C57 C 0.92036 0.91803 0.50747 0.0
C58 C 0.947 0.91149 0.50323 0.0
Zn59 Zn 0.987 0.98572 0.50944 0.0
O60 O 0.03676 0.99685 0.45478 0.0
C61 C 0.03094 0.9746 0.5803 0.0
O62 O 0.00803 0.96482 0.45631 0.0
H63 H 0.92786 0.98442 0.51471 0.0
H64 H 0.07683 0.01874 0.50718 0.0
H65 H 0.98644 0.92614 0.50137 0.0
O66 O 0.03979 0.9957 0.56331 0.0
O67 O 0.00862 0.96603 0.56507 0.0
H68 H 0.0175 0.07639 0.51897 0.0
O69 O 0.96651 0.00721 0.56256 0.0
O70 O 0.99786 0.03675 0.56806 0.0
O71 O 0.96588 0.00588 0.45396 0.0
O72 O 0.99465 0.03799 0.45925 0.0
C73 C 0.97595 0.02825 0.58163 0.0
H74 H 0.1111 0.05283 0.51017 0.0
H75 H 0.05049 0.11169 0.52233 0.0
H76 H 0.89354 0.95089 0.51618 0.0
H77 H 0.95323 0.8913 0.49887 0.0
C78 C 0.47648 0.47437 0.95045 0.0
N79 N 0.54797 0.45961 0.02564 0.0
C80 C 0.54102 0.43381 0.02488 0.0
C81 C 0.5602 0.41428 0.0254 0.0
C82 C 0.58683 0.4213 0.02636 0.0
C83 C 0.5935 0.44806 0.02664 0.0
C84 C 0.57365 0.467 0.02649 0.0
Zn85 Zn 0.51885 0.48727 0.02568 0.0
C86 C 0.52858 0.53085 0.95916 0.0
N87 N 0.4567 0.54363 0.02533 0.0
C88 C 0.43114 0.53593 0.02553 0.0
C89 C 0.46333 0.56953 0.02598 0.0
C90 C 0.4439 0.58883 0.02685 0.0
C91 C 0.4174 0.58145 0.02756 0.0
C92 C 0.41109 0.5546 0.0269 0.0
Zn93 Zn 0.48593 0.51609 0.02504 0.0
O94 O 0.49851 0.46661 0.968 0.0
C95 C 0.47616 0.47242 0.09148 0.0
O96 O 0.4663 0.4952 0.96752 0.0
H97 H 0.48375 0.57525 0.02616 0.0
H98 H 0.52051 0.42833 0.02387 0.0
H99 H 0.42628 0.51525 0.02479 0.0
O100 O 0.49851 0.46534 0.07709 0.0
O101 O 0.46591 0.49346 0.07561 0.0
H102 H 0.57875 0.48762 0.02721 0.0
O103 O 0.50615 0.53661 0.08307 0.0
O104 O 0.53867 0.50837 0.08286 0.0
O105 O 0.50636 0.53811 0.97392 0.0
O106 O 0.53876 0.50972 0.97481 0.0
C107 C 0.52834 0.52906 0.10022 0.0
H108 H 0.55422 0.39386 0.02449 0.0
H109 H 0.61382 0.45428 0.02776 0.0
H110 H 0.4496 0.60933 0.02785 0.0
H111 H 0.39086 0.54812 0.02696 0.0
H112 H 0.24366 0.2797 0.60017 0.0
H113 H 0.20932 0.24587 0.59745 0.0
H114 H 0.2401 0.21364 0.46511 0.0
H115 H 0.27356 0.24804 0.46687 0.0
H116 H 0.18969 0.21415 0.45623 0.0
H117 H 0.25085 0.18487 0.58023 0.0
H118 H 0.27837 0.18835 0.65571 0.0
H119 H 0.20972 0.20191 0.73816 0.0
H120 H 0.18181 0.19884 0.66306 0.0
H121 H 0.12618 0.08976 0.46008 0.0
H122 H 0.15953 0.12441 0.464 0.0
H123 H 0.12007 0.16243 0.58194 0.0
H124 H 0.08681 0.12768 0.57859 0.0
H125 H 0.17415 0.15897 0.59863 0.0
H126 H 0.11331 0.18688 0.47188 0.0
H127 H 0.08686 0.18161 0.39545 0.0
H128 H 0.15693 0.16834 0.31694 0.0
H129 H 0.18378 0.17315 0.39306 0.0
C130 C 0.24289 0.26536 0.57057 0.0
C131 C 0.26106 0.26649 0.53386 0.0
C132 C 0.22346 0.24596 0.56913 0.0
C133 C 0.22232 0.22689 0.53144 0.0
C134 C 0.24052 0.2281 0.49453 0.0
C135 C 0.25967 0.24774 0.49559 0.0
C136 C 0.20205 0.20585 0.53007 0.0
C137 C 0.18659 0.20188 0.48722 0.0
C138 C 0.19754 0.19008 0.57073 0.0
C139 C 0.21428 0.19189 0.61596 0.0
C140 C 0.24164 0.18878 0.61441 0.0
C141 C 0.25731 0.19065 0.65713 0.0
C142 C 0.24581 0.19542 0.70168 0.0
C143 C 0.21861 0.19826 0.70362 0.0
C144 C 0.20286 0.19643 0.661 0.0
C145 C 0.12471 0.10542 0.48703 0.0
C146 C 0.10384 0.10605 0.51895 0.0
C147 C 0.14366 0.12528 0.48901 0.0
C148 C 0.14213 0.14608 0.523 0.0
C149 C 0.12155 0.14658 0.55536 0.0
C150 C 0.10248 0.12683 0.55316 0.0
C151 C 0.16204 0.16732 0.52485 0.0
C152 C 0.17736 0.1713 0.56776 0.0
C153 C 0.16664 0.18287 0.4841 0.0
C154 C 0.15053 0.18013 0.43825 0.0
C155 C 0.12306 0.18263 0.43838 0.0
C156 C 0.108 0.17976 0.3951 0.0
C157 C 0.1202 0.17458 0.35138 0.0
C158 C 0.1475 0.17232 0.35084 0.0
C159 C 0.16265 0.17514 0.39404 0.0
H160 H 0.10851 0.17237 0.31791 0.0
H161 H 0.25797 0.19686 0.73472 0.0
H162 H 0.22805 0.74334 0.1121 0.0
H163 H 0.26125 0.70853 0.10898 0.0
H164 H 0.29082 0.74168 0.97884 0.0
H165 H 0.25695 0.77563 0.9809 0.0
H166 H 0.28909 0.69164 0.9675 0.0
H167 H 0.32279 0.74885 0.09526 0.0
H168 H 0.32193 0.77467 0.1719 0.0
H169 H 0.30844 0.70436 0.2506 0.0
H170 H 0.30889 0.67815 0.17431 0.0
H171 H 0.41256 0.62576 0.97371 0.0
H172 H 0.37844 0.6595 0.97774 0.0
H173 H 0.34107 0.61667 0.0895 0.0
H174 H 0.37523 0.58289 0.08582 0.0
H175 H 0.34683 0.67082 0.11063 0.0
H176 H 0.3146 0.61404 0.97951 0.0
H177 H 0.31764 0.58953 0.9018 0.0
H178 H 0.33121 0.66147 0.82816 0.0
H179 H 0.32862 0.68638 0.9056 0.0
C180 C 0.24171 0.74303 0.08295 0.0
C181 C 0.23994 0.76196 0.04686 0.0
C182 C 0.26075 0.72332 0.08128 0.0
C183 C 0.27886 0.72265 0.04404 0.0
C184 C 0.27709 0.74171 0.00789 0.0
C185 C 0.25777 0.76114 0.00914 0.0
C186 C 0.29935 0.70188 0.04219 0.0
C187 C 0.30193 0.6874 0.99867 0.0
C188 C 0.31586 0.69588 0.08305 0.0
C189 C 0.31561 0.71158 0.129 0.0
C190 C 0.31945 0.73893 0.12886 0.0
C191 C 0.31907 0.75362 0.17225 0.0
C192 C 0.31507 0.74117 0.21608 0.0
C193 C 0.3115 0.71398 0.21662 0.0
C194 C 0.31184 0.69919 0.17332 0.0
C195 C 0.39711 0.62359 0.99923 0.0
C196 C 0.39651 0.60168 0.0294 0.0
C197 C 0.37758 0.64277 0.0013 0.0
C198 C 0.35718 0.64047 0.03372 0.0
C199 C 0.35664 0.61875 0.06418 0.0
C200 C 0.37603 0.59941 0.06179 0.0
C201 C 0.3365 0.66085 0.03605 0.0
C202 C 0.33393 0.67518 0.0796 0.0
C203 C 0.32027 0.66698 0.99508 0.0
C204 C 0.32166 0.65204 0.94844 0.0
C205 C 0.31844 0.62461 0.94682 0.0
C206 C 0.32005 0.61065 0.9028 0.0
C207 C 0.32468 0.62393 0.86009 0.0
C208 C 0.32765 0.65121 0.86128 0.0
C209 C 0.32609 0.66526 0.90522 0.0
H210 H 0.32592 0.61308 0.82605 0.0
H211 H 0.31478 0.75259 0.24963 0.0
H212 H 0.72745 0.75973 0.57869 0.0
H213 H 0.76112 0.79381 0.57699 0.0
H214 H 0.7933 0.75602 0.45078 0.0
H215 H 0.75865 0.7226 0.45122 0.0
H216 H 0.81059 0.79527 0.58792 0.0
H217 H 0.82092 0.79946 0.37883 0.0
H218 H 0.7936 0.79269 0.3037 0.0
H219 H 0.72423 0.81011 0.38179 0.0
H220 H 0.75115 0.81731 0.4572 0.0
H221 H 0.9242 0.86838 0.54487 0.0
H222 H 0.89056 0.83449 0.54455 0.0
H223 H 0.83546 0.88692 0.47373 0.0
H224 H 0.86959 0.92013 0.47005 0.0
H225 H 0.82821 0.84184 0.43621 0.0
H226 H 0.83574 0.87355 0.60021 0.0
H227 H 0.85814 0.88555 0.67849 0.0
H228 H 0.88283 0.80561 0.6963 0.0
H229 H 0.86086 0.7932 0.61777 0.0
C230 C 0.74175 0.7587 0.55067 0.0
C231 C 0.7406 0.73857 0.5149 0.0
C232 C 0.76103 0.77817 0.54975 0.0
C233 C 0.77963 0.77777 0.5134 0.0
C234 C 0.77885 0.75719 0.47853 0.0
C235 C 0.75925 0.73801 0.47893 0.0
C236 C 0.79971 0.79893 0.51198 0.0
C237 C 0.81442 0.80544 0.55471 0.0
C238 C 0.80439 0.81272 0.46901 0.0
C239 C 0.78805 0.80864 0.42374 0.0
C240 C 0.79985 0.80193 0.37991 0.0
C241 C 0.78443 0.798 0.33729 0.0
C242 C 0.75719 0.80088 0.33801 0.0
C243 C 0.74532 0.80778 0.38132 0.0
C244 C 0.76064 0.81176 0.42402 0.0
C245 C 0.90511 0.87265 0.52837 0.0
C246 C 0.89975 0.89721 0.50763 0.0
C247 C 0.88569 0.8533 0.52895 0.0
C248 C 0.86023 0.85825 0.51002 0.0
C249 C 0.85488 0.8826 0.48883 0.0
C250 C 0.87441 0.90178 0.48737 0.0
C251 C 0.8392 0.83808 0.51209 0.0
C252 C 0.82438 0.83168 0.46943 0.0
C253 C 0.83368 0.82515 0.55559 0.0
C254 C 0.84687 0.83251 0.60289 0.0
C255 C 0.8461 0.85857 0.62066 0.0
C256 C 0.8587 0.86544 0.66509 0.0
C257 C 0.87195 0.84637 0.69229 0.0
C258 C 0.87258 0.82037 0.67516 0.0
C259 C 0.86004 0.8134 0.63071 0.0
H260 H 0.88169 0.85172 0.72668 0.0
H261 H 0.74529 0.79781 0.30499 0.0
H262 H 0.77466 0.25399 0.96831 0.0
H263 H 0.74242 0.28973 0.96645 0.0
H264 H 0.7079 0.25967 0.09456 0.0
H265 H 0.74054 0.2241 0.09697 0.0
H266 H 0.67114 0.27224 0.01586 0.0
H267 H 0.74395 0.31016 0.11006 0.0
H268 H 0.79025 0.32283 0.1254 0.0
H269 H 0.78675 0.3713 -0.00037 0.0
H270 H 0.7405 0.3586 0.98312 0.0
H271 H 0.58926 0.37745 0.08163 0.0
H272 H 0.62246 0.34288 0.08148 0.0
H273 H 0.66406 0.38385 0.9725 0.0
H274 H 0.63101 0.41875 0.97308 0.0
H275 H 0.69768 0.36557 0.03835 0.0
H276 H 0.62581 0.32942 0.94329 0.0
H277 H 0.57988 0.31667 0.92403 0.0
H278 H 0.58172 0.26468 0.04483 0.0
H279 H 0.62757 0.27741 0.06527 0.0
C280 C 0.76017 0.255 0.99598 0.0
C281 C 0.75985 0.23629 0.03286 0.0
C282 C 0.74185 0.27543 0.99496 0.0
C283 C 0.72285 0.2773 0.03041 0.0
C284 C 0.7224 0.25849 0.06686 0.0
C285 C 0.74096 0.23831 0.06831 0.0
C286 C 0.70343 0.2989 0.02952 0.0
C287 C 0.67683 0.29264 0.02135 0.0
C288 C 0.71108 0.3255 0.03514 0.0
C289 C 0.73886 0.33319 0.04505 0.0
C290 C 0.75313 0.32331 0.0854 0.0
C291 C 0.77934 0.33055 0.09437 0.0
C292 C 0.79146 0.34779 0.06342 0.0
C293 C 0.77735 0.3579 0.02352 0.0
C294 C 0.75113 0.35071 0.01436 0.0
C295 C 0.60542 0.37902 0.05747 0.0
C296 C 0.60744 0.40071 0.02711 0.0
C297 C 0.62437 0.35924 0.05737 0.0
C298 C 0.64553 0.36051 0.02634 0.0
C299 C 0.64789 0.38241 0.99666 0.0
C300 C 0.62903 0.40235 0.99707 0.0
C301 C 0.66517 0.33898 0.02504 0.0
C302 C 0.69186 0.34521 0.0327 0.0
C303 C 0.65763 0.31234 0.0183 0.0
C304 C 0.63006 0.30457 0.00608 0.0
C305 C 0.61636 0.31542 0.96598 0.0
C306 C 0.59035 0.30818 0.95482 0.0
C307 C 0.57787 0.28993 0.98326 0.0
C308 C 0.5914 0.27884 0.02287 0.0
C309 C 0.61741 0.28605 0.03424 0.0
H310 H 0.55773 0.28433 0.97455 0.0
H311 H 0.81175 0.35338 0.07044 0.0
H312 H 0.14233 0.81787 0.13256 0.0
H313 H 0.12106 0.83687 0.20385 0.0
H314 H 0.14728 0.91399 0.16561 0.0
H315 H 0.16808 0.89516 0.09415 0.0
H316 H 0.15184 0.90281 0.26838 0.0
H317 H 0.08946 0.8984 0.13046 0.0
H318 H 0.06474 0.87517 0.06393 0.0
H319 H 0.0302 0.8247 0.16687 0.0
H320 H 0.05508 0.8474 0.23398 0.0
H321 H 0.06843 0.99208 0.38476 0.0
H322 H 0.09363 0.96694 0.32626 0.0
H323 H 0.04844 0.89765 0.35453 0.0
H324 H 0.02254 0.92292 0.41187 0.0
H325 H 0.05445 0.90056 0.26196 0.0
H326 H 0.11268 0.90661 0.40109 0.0
H327 H 0.13761 0.9284 0.469 0.0
H328 H 0.18039 0.9732 0.36804 0.0
H329 H 0.15543 0.95196 0.29949 0.0
C330 C 0.14389 0.83878 0.14006 0.0
C331 C 0.15666 0.85514 0.10807 0.0
C332 C 0.13173 0.8496 0.18052 0.0
C333 C 0.13255 0.87682 0.1897 0.0
C334 C 0.1465 0.89294 0.15914 0.0
C335 C 0.15826 0.88222 0.11836 0.0
C336 C 0.11721 0.88894 0.22875 0.0
C337 C 0.13055 0.90247 0.26704 0.0
C338 C 0.08949 0.88785 0.2274 0.0
C339 C 0.07437 0.87437 0.18714 0.0
C340 C 0.07678 0.8822 0.13886 0.0
C341 C 0.0627 0.86915 0.10106 0.0
C342 C 0.04597 0.84841 0.11115 0.0
C343 C 0.04321 0.84073 0.15909 0.0
C344 C 0.05729 0.85368 0.19702 0.0
C345 C 0.06383 0.9715 0.37846 0.0
C346 C 0.04352 0.95948 0.403 0.0
C347 C 0.07838 0.95709 0.34526 0.0
C348 C 0.07329 0.93024 0.33665 0.0
C349 C 0.0528 0.91829 0.36068 0.0
C350 C 0.03801 0.93278 0.39345 0.0
C351 C 0.089 0.91483 0.30179 0.0
C352 C 0.07574 0.90069 0.26403 0.0
C353 C 0.11682 0.91512 0.30404 0.0
C354 C 0.13202 0.92783 0.34515 0.0
C355 C 0.12728 0.92124 0.39336 0.0
C356 C 0.14143 0.93347 0.43198 0.0
C357 C 0.16054 0.95221 0.42285 0.0
C358 C 0.16557 0.9587 0.37506 0.0
C359 C 0.15144 0.94654 0.3363 0.0
H360 H 0.17147 0.96166 0.45279 0.0
H361 H 0.03508 0.83834 0.08184 0.0
H362 H 0.67919 0.65261 0.66849 0.0
H363 H 0.66019 0.63183 0.73863 0.0
H364 H 0.58253 0.65234 0.68444 0.0
H365 H 0.6014 0.67301 0.61421 0.0
H366 H 0.59074 0.65854 0.78821 0.0
H367 H 0.60303 0.59475 0.6576 0.0
H368 H 0.62943 0.57112 0.59761 0.0
H369 H 0.68052 0.54268 0.71245 0.0
H370 H 0.65463 0.56651 0.77308 0.0
H371 H 0.50825 0.56916 0.90107 0.0
H372 H 0.53148 0.59607 0.84432 0.0
H373 H 0.60409 0.55709 0.88444 0.0
H374 H 0.58067 0.52928 0.93968 0.0
H375 H 0.60164 0.56178 0.79231 0.0
H376 H 0.58857 0.62184 0.92427 0.0
H377 H 0.56369 0.64591 0.98595 0.0
H378 H 0.51658 0.68208 0.8734 0.0
H379 H 0.54094 0.65795 0.81101 0.0
C380 C 0.65812 0.65319 0.6722 0.0
C381 C 0.64171 0.66424 0.63594 0.0
C382 C 0.64731 0.64124 0.71206 0.0
C383 C 0.61998 0.6404 0.71637 0.0
C384 C 0.60367 0.65281 0.6817 0.0
C385 C 0.61443 0.66446 0.64158 0.0
C386 C 0.6082 0.62469 0.7545 0.0
C387 C 0.59294 0.63737 0.78912 0.0
C388 C 0.6117 0.59718 0.75619 0.0
C389 C 0.62709 0.58265 0.7198 0.0
C390 C 0.62003 0.58364 0.67001 0.0
C391 C 0.63487 0.57018 0.63591 0.0
C392 C 0.65669 0.55547 0.6512 0.0
C393 C 0.66365 0.55412 0.70065 0.0
C394 C 0.6489 0.56759 0.7349 0.0
C395 C 0.52917 0.56634 0.8978 0.0
C396 C 0.54265 0.54713 0.92483 0.0
C397 C 0.5425 0.58189 0.86562 0.0
C398 C 0.56969 0.57903 0.86074 0.0
C399 C 0.58314 0.55975 0.88762 0.0
C400 C 0.56974 0.54386 0.91918 0.0
C401 C 0.5839 0.59552 0.82641 0.0
C402 C 0.5996 0.58298 0.79218 0.0
C403 C 0.58104 0.62321 0.82556 0.0
C404 C 0.56646 0.63792 0.86297 0.0
C405 C 0.5728 0.6348 0.91267 0.0
C406 C 0.5588 0.64847 0.94776 0.0
C407 C 0.53853 0.66547 0.9336 0.0
C408 C 0.53227 0.66889 0.88431 0.0
C409 C 0.54619 0.65525 0.84907 0.0
H410 H 0.52771 0.67603 0.96082 0.0
H411 H 0.66816 0.54506 0.62474 0.0
H412 H 0.85839 0.18379 0.13186 0.0
H413 H 0.8783 0.16381 0.20491 0.0
H414 H 0.85694 0.0869 0.14805 0.0
H415 H 0.83748 0.10675 0.07473 0.0
H416 H 0.8493 0.09606 0.25272 0.0
H417 H 0.91402 0.10424 0.12885 0.0
H418 H 0.93893 0.12921 0.07027 0.0
H419 H 0.96939 0.17972 0.18581 0.0
H420 H 0.94426 0.15529 0.24499 0.0
H421 H 0.93431 0.00957 0.37894 0.0
H422 H 0.90859 0.03393 0.31835 0.0
H423 H 0.95086 0.10477 0.36028 0.0
H424 H 0.97737 0.08024 0.41961 0.0
H425 H 0.94646 0.10201 0.26733 0.0
H426 H 0.88575 0.09285 0.39308 0.0
H427 H 0.86032 0.06973 0.45341 0.0
H428 H 0.82161 0.02393 0.33931 0.0
H429 H 0.84709 0.04651 0.2783 0.0
C430 C 0.85753 0.16268 0.13555 0.0
C431 C 0.84657 0.14672 0.09787 0.0
C432 C 0.86891 0.15132 0.17706 0.0
C433 C 0.86912 0.12392 0.18159 0.0
C434 C 0.85687 0.10808 0.14517 0.0
C435 C 0.84591 0.11938 0.10336 0.0
C436 C 0.88408 0.11154 0.22205 0.0
C437 C 0.87055 0.09717 0.25596 0.0
C438 C 0.9117 0.11365 0.22669 0.0
C439 C 0.92703 0.12815 0.19123 0.0
C440 C 0.92584 0.12082 0.14169 0.0
C441 C 0.94003 0.13484 0.10839 0.0
C442 C 0.95568 0.15609 0.12429 0.0
C443 C 0.95722 0.16329 0.17354 0.0
C444 C 0.94301 0.14936 0.20697 0.0
C445 C 0.93809 0.03035 0.37529 0.0
C446 C 0.95785 0.04299 0.40404 0.0
C447 C 0.92324 0.04431 0.34087 0.0
C448 C 0.92742 0.07134 0.33529 0.0
C449 C 0.94721 0.08397 0.36395 0.0
C450 C 0.96235 0.06992 0.39786 0.0
C451 C 0.91178 0.0862 0.29843 0.0
C452 C 0.92519 0.10105 0.26487 0.0
C453 C 0.884 0.08478 0.2946 0.0
C454 C 0.8685 0.07124 0.33114 0.0
C455 C 0.87195 0.07772 0.38087 0.0
C456 C 0.8575 0.06473 0.41518 0.0
C457 C 0.8394 0.04534 0.40021 0.0
C458 C 0.83565 0.03894 0.35086 0.0
C459 C 0.85007 0.05185 0.31639 0.0
H460 H 0.82824 0.0353 0.42683 0.0
H461 H 0.96665 0.16692 0.09846 0.0
H462 H 0.35741 0.39157 0.56603 0.0
H463 H 0.37907 0.41124 0.63845 0.0
H464 H 0.37456 0.33743 0.71152 0.0
H465 H 0.35337 0.31726 0.6384 0.0
H466 H 0.36335 0.38241 0.77124 0.0
H467 H 0.4286 0.35054 0.66513 0.0
H468 H 0.45061 0.34495 0.58751 0.0
H469 H 0.46565 0.42784 0.58513 0.0
H470 H 0.443 0.43405 0.66195 0.0
H471 H 0.49349 0.42997 0.90385 0.0
H472 H 0.47016 0.4042 0.83996 0.0
H473 H 0.4051 0.45825 0.84392 0.0
H474 H 0.42816 0.48404 0.90804 0.0
H475 H 0.45301 0.41725 0.7497 0.0
H476 H 0.34783 0.42267 0.82394 0.0
H477 H 0.32742 0.42738 0.90339 0.0
H478 H 0.39571 0.39354 0.97356 0.0
H479 H 0.41608 0.38779 0.89459 0.0
C480 C 0.36098 0.37947 0.59748 0.0
C481 C 0.35408 0.35271 0.59619 0.0
C482 C 0.37323 0.3908 0.63889 0.0
C483 C 0.37872 0.37567 0.67995 0.0
C484 C 0.37051 0.34937 0.68002 0.0
C485 C 0.35835 0.33792 0.63833 0.0
C486 C 0.39443 0.38711 0.72143 0.0
C487 C 0.38296 0.39 0.76667 0.0
C488 C 0.42023 0.39647 0.71551 0.0
C489 C 0.43383 0.39279 0.66912 0.0
C490 C 0.4363 0.36763 0.64777 0.0
C491 C 0.4489 0.36434 0.60388 0.0
C492 C 0.45943 0.38604 0.58127 0.0
C493 C 0.45739 0.41106 0.60254 0.0
C494 C 0.44463 0.41448 0.64623 0.0
C495 C 0.47422 0.4364 0.89114 0.0
C496 C 0.46265 0.45903 0.9111 0.0
C497 C 0.46095 0.42167 0.85456 0.0
C498 C 0.43582 0.42917 0.83757 0.0
C499 C 0.42434 0.45191 0.85701 0.0
C500 C 0.4376 0.46669 0.89351 0.0
C501 C 0.42165 0.41335 0.79917 0.0
C502 C 0.43344 0.4096 0.75443 0.0
C503 C 0.39633 0.4029 0.80582 0.0
C504 C 0.3836 0.40507 0.8533 0.0
C505 C 0.35836 0.41597 0.85627 0.0
C506 C 0.34678 0.4188 0.90127 0.0
C507 C 0.36024 0.41078 0.94356 0.0
C508 C 0.38522 0.3997 0.94088 0.0
C509 C 0.39679 0.39663 0.89598 0.0
H510 H 0.35131 0.41315 0.97839 0.0
H511 H 0.46922 0.38345 0.54734 0.0
H512 H 0.67841 0.6426 0.43142 0.0
H513 H 0.65835 0.62004 0.35981 0.0
H514 H 0.58254 0.65077 0.39654 0.0
H515 H 0.60245 0.67238 0.46901 0.0
H516 H 0.57779 0.60169 0.37703 0.0
H517 H 0.6186 0.67287 0.29734 0.0
H518 H 0.65488 0.70198 0.27618 0.0
H519 H 0.69649 0.63602 0.21759 0.0
H520 H 0.66061 0.60644 0.239 0.0
H521 H 0.50862 0.56901 0.15549 0.0
H522 H 0.53132 0.59416 0.221 0.0
H523 H 0.60184 0.54939 0.19923 0.0
H524 H 0.57924 0.52394 0.13379 0.0
H525 H 0.60994 0.60487 0.20959 0.0
H526 H 0.56771 0.53422 0.29016 0.0
H527 H 0.5302 0.50635 0.3098 0.0
H528 H 0.48974 0.57384 0.36529 0.0
H529 H 0.52688 0.60219 0.3453 0.0
C530 C 0.65754 0.6448 0.42361 0.0
C531 C 0.64191 0.65915 0.45554 0.0
C532 C 0.64609 0.63199 0.38268 0.0
C533 C 0.61891 0.63383 0.37246 0.0
C534 C 0.6035 0.64892 0.40369 0.0
C535 C 0.61486 0.66133 0.44495 0.0
C536 C 0.60618 0.61887 0.33104 0.0
C537 C 0.58464 0.60278 0.34033 0.0
C538 C 0.61544 0.61965 0.28325 0.0
C539 C 0.63702 0.6374 0.27022 0.0
C540 C 0.63557 0.66454 0.28029 0.0
C541 C 0.65605 0.68113 0.26818 0.0
C542 C 0.67801 0.67085 0.24567 0.0
C543 C 0.67949 0.64395 0.23509 0.0
C544 C 0.65908 0.62727 0.24716 0.0
C545 C 0.52896 0.5645 0.16458 0.0
C546 C 0.5421 0.54438 0.13965 0.0
C547 C 0.54188 0.57888 0.20201 0.0
C548 C 0.56819 0.57352 0.215 0.0
C549 C 0.58153 0.5538 0.18965 0.0
C550 C 0.56854 0.5392 0.15251 0.0
C551 C 0.58155 0.58816 0.25582 0.0
C552 C 0.60319 0.604 0.24639 0.0
C553 C 0.57224 0.58741 0.30341 0.0
C554 C 0.54997 0.57036 0.31579 0.0
C555 C 0.55073 0.54315 0.30618 0.0
C556 C 0.52955 0.52726 0.31744 0.0
C557 C 0.50757 0.53832 0.33867 0.0
C558 C 0.50676 0.5653 0.34879 0.0
C559 C 0.52788 0.58129 0.33754 0.0
H560 H 0.49119 0.52599 0.34736 0.0
H561 H 0.69384 0.68372 0.23633 0.0
H562 H 0.89405 0.15653 0.94753 0.0
H563 H 0.91479 0.13676 0.87682 0.0
H564 H 0.83847 0.12134 0.80923 0.0
H565 H 0.81759 0.14152 0.87981 0.0
H566 H 0.87415 0.0768 0.81538 0.0
H567 H 0.8715 0.16605 0.76183 0.0
H568 H 0.87909 0.21376 0.7701 0.0
H569 H 0.96201 0.20058 0.7888 0.0
H570 H 0.95488 0.15274 0.78136 0.0
H571 H 0.92349 0.02614 0.59639 0.0
H572 H 0.89896 0.05097 0.65629 0.0
H573 H 0.9708 0.08768 0.71103 0.0
H574 H 0.9952 0.06386 0.64936 0.0
H575 H 0.9348 0.12256 0.70874 0.0
H576 H 0.93937 0.03515 0.76971 0.0
H577 H 0.93408 0.98701 0.7669 0.0
H578 H 0.85094 0.99573 0.74153 0.0
H579 H 0.85578 0.04395 0.74357 0.0
C580 C 0.88175 0.14919 0.91728 0.0
C581 C 0.85427 0.1505 0.9189 0.0
C582 C 0.89358 0.138 0.87698 0.0
C583 C 0.87812 0.12767 0.83791 0.0
C584 C 0.85067 0.12928 0.83908 0.0
C585 C 0.83881 0.14089 0.87913 0.0
C586 C 0.89078 0.11397 0.79716 0.0
C587 C 0.88705 0.08682 0.79138 0.0
C588 C 0.90826 0.12701 0.76722 0.0
C589 C 0.91262 0.15578 0.77145 0.0
C590 C 0.89133 0.1733 0.76812 0.0
C591 C 0.89556 0.20038 0.77258 0.0
C592 C 0.92101 0.21019 0.78008 0.0
C593 C 0.9423 0.19295 0.78302 0.0
C594 C 0.93818 0.16585 0.77864 0.0
C595 C 0.93404 0.03948 0.62128 0.0
C596 C 0.96128 0.04294 0.61849 0.0
C597 C 0.92002 0.05359 0.65567 0.0
C598 C 0.93306 0.07086 0.68893 0.0
C599 C 0.96027 0.07448 0.68586 0.0
C600 C 0.97422 0.06078 0.65075 0.0
C601 C 0.9184 0.08515 0.7269 0.0
C602 C 0.92178 0.11245 0.73235 0.0
C603 C 0.90097 0.07213 0.75727 0.0
C604 C 0.89798 0.04315 0.75629 0.0
C605 C 0.91998 0.02679 0.7632 0.0
C606 C 0.91706 0.9995 0.7618 0.0
C607 C 0.8922 0.98831 0.7539 0.0
C608 C 0.87019 0.00442 0.74756 0.0
C609 C 0.87301 0.03173 0.74888 0.0
H610 H 0.88998 0.96718 0.75281 0.0
H611 H 0.92424 0.23116 0.78352 0.0
H612 H 0.39842 0.33237 0.44018 0.0
H613 H 0.41951 0.35216 0.37151 0.0
H614 H 0.34397 0.37849 0.31543 0.0
H615 H 0.32277 0.35768 0.38324 0.0
H616 H 0.37295 0.36543 0.24287 0.0
H617 H 0.38528 0.41929 0.38492 0.0
H618 H 0.39786 0.43015 0.4703 0.0
H619 H 0.47779 0.40935 0.44445 0.0
H620 H 0.46562 0.39796 0.35899 0.0
H621 H 0.42419 0.47445 0.11234 0.0
H622 H 0.40118 0.44746 0.16981 0.0
H623 H 0.47334 0.40696 0.20612 0.0
H624 H 0.49642 0.43351 0.14827 0.0
H625 H 0.44547 0.42741 0.28716 0.0
H626 H 0.42994 0.37545 0.13973 0.0
H627 H 0.41396 0.36609 0.0555 0.0
H628 H 0.3359 0.38821 0.0928 0.0
H629 H 0.35147 0.39805 0.1771 0.0
C630 C 0.38635 0.34196 0.41258 0.0
C631 C 0.35907 0.34369 0.41684 0.0
C632 C 0.39838 0.3534 0.37362 0.0
C633 C 0.3834 0.36742 0.339 0.0
C634 C 0.35594 0.3679 0.34182 0.0
C635 C 0.34384 0.35601 0.38042 0.0
C636 C 0.39653 0.38278 0.30165 0.0
C637 C 0.3886 0.37921 0.25261 0.0
C638 C 0.41703 0.40072 0.31432 0.0
C639 C 0.42449 0.40755 0.36566 0.0
C640 C 0.40551 0.41684 0.39752 0.0
C641 C 0.41256 0.42311 0.4459 0.0
C642 C 0.4386 0.42043 0.46274 0.0
C643 C 0.45763 0.41142 0.43129 0.0
C644 C 0.45067 0.40506 0.38287 0.0
C645 C 0.43514 0.45975 0.13248 0.0
C646 C 0.46214 0.45615 0.12595 0.0
C647 C 0.42193 0.44426 0.16502 0.0
C648 C 0.43557 0.42516 0.19189 0.0
C649 C 0.46249 0.42156 0.18552 0.0
C650 C 0.47563 0.43674 0.15249 0.0
C651 C 0.42208 0.4098 0.22849 0.0
C652 C 0.42987 0.41355 0.27749 0.0
C653 C 0.40103 0.3926 0.21582 0.0
C654 C 0.39193 0.38771 0.16464 0.0
C655 C 0.40944 0.37867 0.12983 0.0
C656 C 0.40043 0.37317 0.08211 0.0
C657 C 0.37392 0.37651 0.06887 0.0
C658 C 0.35642 0.3856 0.10315 0.0
C659 C 0.36532 0.39113 0.15088 0.0
H660 H 0.36689 0.3719 0.03213 0.0
H661 H 0.44402 0.42547 0.5001 0.0
H662 H 0.11455 0.8472 0.94477 0.0
H663 H 0.09494 0.86695 0.87161 0.0
H664 H 0.17189 0.88901 0.82697 0.0
H665 H 0.1917 0.86875 0.9 0.0
H666 H 0.13193 0.9307 0.82861 0.0
H667 H 0.14551 0.84353 0.76502 0.0
H668 H 0.14281 0.79521 0.76509 0.0
H669 H 0.05867 0.79945 0.76314 0.0
H670 H 0.06087 0.84784 0.76382 0.0
H671 H 0.08306 0.98034 0.60458 0.0
H672 H 0.10886 0.95661 0.66599 0.0
H673 H 0.03987 0.9131 0.70199 0.0
H674 H 0.01419 0.93605 0.63926 0.0
H675 H 0.07964 0.88146 0.70125 0.0
H676 H 0.0644 0.96654 0.77263 0.0
H677 H 0.06474 0.01494 0.77737 0.0
H678 H 0.14874 0.01505 0.77057 0.0
H679 H 0.14886 0.96663 0.76514 0.0
C680 C 0.12725 0.85608 0.91908 0.0
C681 C 0.15457 0.85653 0.92779 0.0
C682 C 0.11608 0.86725 0.87737 0.0
C683 C 0.13201 0.87933 0.84399 0.0
C684 C 0.15934 0.87969 0.85238 0.0
C685 C 0.1706 0.86807 0.89379 0.0
C686 C 0.11978 0.89252 0.80153 0.0
C687 C 0.12092 0.91998 0.80013 0.0
C688 C 0.10477 0.87844 0.76551 0.0
C689 C 0.10337 0.84933 0.76489 0.0
C690 C 0.12643 0.83417 0.76504 0.0
C691 C 0.125 0.80677 0.76485 0.0
C692 C 0.10059 0.79427 0.76422 0.0
C693 C 0.07757 0.80916 0.76366 0.0
C694 C 0.0789 0.83658 0.76389 0.0
C695 C 0.07339 0.9657 0.62558 0.0
C696 C 0.04655 0.96018 0.61734 0.0
C697 C 0.08814 0.95221 0.6608 0.0
C698 C 0.07623 0.93336 0.68924 0.0
C699 C 0.04951 0.92756 0.68055 0.0
C700 C 0.03482 0.94076 0.64481 0.0
C701 C 0.09149 0.91983 0.72835 0.0
C702 C 0.09087 0.89228 0.7293 0.0
C703 C 0.10662 0.93387 0.76451 0.0
C704 C 0.10661 0.96298 0.76793 0.0
C705 C 0.08293 0.97689 0.77177 0.0
C706 C 0.08304 0.00433 0.77465 0.0
C707 C 0.10674 0.01806 0.77412 0.0
C708 C 0.13039 0.00439 0.77088 0.0
C709 C 0.13038 0.97695 0.76793 0.0
H710 H 0.10679 0.0393 0.77636 0.0
H711 H 0.09952 0.77304 0.76407 0.0
loop_
_geom_bond_atom_site_label_1
_geom_bond_atom_site_label_2
_geom_bond_distance
_geom_bond_site_symmetry_2
_ccdc_geom_bond_type
H0 C5 0.929 . S
H1 C10 0.931 . S
H2 C8 0.930 . S
N3 N4 1.234 . S
N3 C7 1.453 . S
N4 N3 1.234 . S
C5 H0 0.929 . S
C5 C6 1.373 . S
C5 C7 1.368 1_556 S
C6 C5 1.373 . S
C6 C10 1.397 1_556 S
C7 N3 1.453 . S
C7 C5 1.368 1_554 S
C7 C8 1.373 . S
C8 H2 0.930 . S
C8 C7 1.373 . S
C8 C9 1.371 . S
C9 C8 1.371 . S
C9 C10 1.383 . S
C10 H1 0.931 . S
C10 C6 1.397 1_554 S
C10 C9 1.383 . S
H11 C16 0.929 . S
H12 C21 0.931 . S
H13 C19 0.930 . S
N14 N15 1.234 . S
N14 C18 1.453 . S
N15 N14 1.234 . S
C16 H11 0.929 . S
C16 C17 1.373 . S
C16 C18 1.368 . S
C17 C16 1.373 . S
C17 C21 1.397 . S
C18 N14 1.453 . S
C18 C16 1.368 . S
C18 C19 1.373 . S
C19 H13 0.930 . S
C19 C18 1.373 . S
C19 C20 1.371 . S
C20 C19 1.371 . S
C20 C21 1.383 . S
C21 H12 0.931 . S
C21 C17 1.397 . S
C21 C20 1.383 . S
H22 C27 0.929 . S
H23 C32 0.931 . S
H24 C30 0.930 . S
N25 N26 1.234 1_556 S
N25 C29 1.453 . S
N26 N25 1.234 1_554 S
C27 H22 0.929 . S
C27 C28 1.373 . S
C27 C29 1.368 . S
C28 C27 1.373 . S
C28 C32 1.397 1_556 S
C29 N25 1.453 . S
C29 C27 1.368 . S
C29 C30 1.373 1_556 S
C30 H24 0.930 . S
C30 C29 1.373 1_554 S
C30 C31 1.371 . S
C31 C30 1.371 . S
C31 C32 1.383 . S
C32 H23 0.931 . S
C32 C28 1.397 1_554 S
C32 C31 1.383 . S
H33 C38 0.929 . S
H34 C43 0.931 . S
H35 C41 0.930 . S
N36 N37 1.234 . S
N36 C40 1.453 . S
N37 N36 1.234 . S
C38 H33 0.929 . S
C38 C39 1.373 . S
C38 C40 1.368 . S
C39 C38 1.373 . S
C39 C43 1.397 . S
C40 N36 1.453 . S
C40 C38 1.368 . S
C40 C41 1.373 . S
C41 H35 0.930 . S
C41 C40 1.373 . S
C41 C42 1.371 . S
C42 C41 1.371 . S
C42 C43 1.383 . S
C43 H34 0.931 . S
C43 C39 1.397 . S
C43 C42 1.383 . S
C44 O60 1.276 . S
C44 O62 1.254 . S
N45 C46 1.333 . S
N45 C50 1.307 . S
N45 Zn51 2.020 . S
C46 N45 1.333 . S
C46 C47 1.379 . S
C46 H64 0.952 . S
C47 C46 1.379 . S
C47 C48 1.390 . S
C47 H74 0.949 . S
C48 C47 1.390 . S
C48 C49 1.357 . S
C49 C48 1.357 . S
C49 C50 1.370 . S
C49 H75 0.950 . S
C50 N45 1.307 . S
C50 C49 1.370 . S
C50 H68 0.948 . S
Zn51 N45 2.020 . S
Zn51 O60 2.022 1_545 S
Zn51 O66 2.034 1_545 S
Zn51 O70 2.025 1_455 S
Zn51 O72 2.024 1_455 S
C52 O71 1.246 . S
C52 O72 1.249 . S
N53 C54 1.307 . S
N53 C55 1.333 . S
N53 Zn59 2.020 . S
C54 N53 1.307 . S
C54 C58 1.370 . S
C54 H65 0.948 . S
C55 N53 1.333 . S
C55 C56 1.379 . S
C55 H63 0.952 . S
C56 C55 1.379 . S
C56 C57 1.390 . S
C56 H76 0.949 . S
C57 C56 1.390 . S
C57 C58 1.357 . S
C58 C54 1.370 . S
C58 C57 1.357 . S
C58 H77 0.950 . S
Zn59 N53 2.020 . S
Zn59 O62 2.025 1_655 S
Zn59 O67 2.024 1_655 S
Zn59 O69 2.039 1_565 S
Zn59 O71 2.034 1_565 S
O60 C44 1.276 . S
O60 Zn51 2.022 1_565 S
C61 O66 1.246 . S
C61 O67 1.249 . S
O62 C44 1.254 . S
O62 Zn59 2.025 1_455 S
H63 C55 0.952 . S
H64 C46 0.952 . S
H65 C54 0.948 . S
O66 Zn51 2.034 1_565 S
O66 C61 1.246 . S
O67 Zn59 2.024 1_455 S
O67 C61 1.249 . S
H68 C50 0.948 . S
O69 Zn59 2.039 1_545 S
O69 C73 1.251 . S
O70 Zn51 2.025 1_655 S
O70 C73 1.254 . S
O71 C52 1.246 . S
O71 Zn59 2.034 1_545 S
O72 Zn51 2.024 1_655 S
O72 C52 1.249 . S
C73 O69 1.251 . S
C73 O70 1.254 . S
H74 C47 0.949 . S
H75 C49 0.950 . S
H76 C56 0.949 . S
H77 C58 0.950 . S
C78 O94 1.251 . S
C78 O96 1.254 . S
N79 C80 1.333 . S
N79 C84 1.307 . S
N79 Zn85 2.020 . S
C80 N79 1.333 . S
C80 C81 1.379 . S
C80 H98 0.952 . S
C81 C80 1.379 . S
C81 C82 1.390 . S
C81 H108 0.949 . S
C82 C81 1.390 . S
C82 C83 1.357 . S
C83 C82 1.357 . S
C83 C84 1.370 . S
C83 H109 0.950 . S
C84 N79 1.307 . S
C84 C83 1.370 . S
C84 H102 0.948 . S
Zn85 N79 2.020 . S
Zn85 O94 2.039 1_554 S
Zn85 O100 2.034 . S
Zn85 O104 2.025 . S
Zn85 O106 2.024 1_554 S
C86 O105 1.246 . S
C86 O106 1.249 . S
N87 C88 1.307 . S
N87 C89 1.333 . S
N87 Zn93 2.020 . S
C88 N87 1.307 . S
C88 C92 1.370 . S
C88 H99 0.948 . S
C89 N87 1.333 . S
C89 C90 1.379 . S
C89 H97 0.952 . S
C90 C89 1.379 . S
C90 C91 1.390 . S
C90 H110 0.949 . S
C91 C90 1.390 . S
C91 C92 1.357 . S
C92 C88 1.370 . S
C92 C91 1.357 . S
C92 H111 0.950 . S
Zn93 N87 2.020 . S
Zn93 O96 2.025 1_554 S
Zn93 O101 2.024 . S
Zn93 O103 2.039 . S
Zn93 O105 2.034 1_554 S
O94 C78 1.251 . S
O94 Zn85 2.039 1_556 S
C95 O100 1.246 . S
C95 O101 1.249 . S
O96 C78 1.254 . S
O96 Zn93 2.025 1_556 S
H97 C89 0.952 . S
H98 C80 0.952 . S
H99 C88 0.948 . S
O100 Zn85 2.034 . S
O100 C95 1.246 . S
O101 Zn93 2.024 . S
O101 C95 1.249 . S
H102 C84 0.948 . S
O103 Zn93 2.039 . S
O103 C107 1.251 . S
O104 Zn85 2.025 . S
O104 C107 1.254 . S
O105 C86 1.246 . S
O105 Zn93 2.034 1_556 S
O106 Zn85 2.024 1_556 S
O106 C86 1.249 . S
C107 O103 1.251 . S
C107 O104 1.254 . S
H108 C81 0.949 . S
H109 C83 0.950 . S
H110 C90 0.949 . S
H111 C92 0.950 . S
H112 C130 0.951 . S
H113 C132 0.951 . S
H114 C134 0.950 . S
H115 C135 0.950 . S
H116 C137 0.950 . S
H117 C140 0.950 . S
H118 C141 0.950 . S
H119 C143 0.950 . S
H120 C144 0.950 . S
H121 C145 0.951 . S
H122 C147 0.951 . S
H123 C149 0.950 . S
H124 C150 0.950 . S
H125 C152 0.950 . S
H126 C155 0.950 . S
H127 C156 0.950 . S
H128 C158 0.950 . S
H129 C159 0.950 . S
C130 H112 0.951 . S
C130 C131 1.366 . S
C130 C132 1.388 . S
C131 C130 1.366 . S
C131 C135 1.385 . S
C132 H113 0.951 . S
C132 C130 1.388 . S
C132 C133 1.366 . S
C133 C132 1.366 . S
C133 C134 1.414 . S
C133 C136 1.499 . S
C134 H114 0.950 . S
C134 C133 1.414 . S
C134 C135 1.374 . S
C135 H115 0.950 . S
C135 C131 1.385 . S
C135 C134 1.374 . S
C136 C133 1.499 . S
C136 C137 1.373 . S
C136 C138 1.389 . S
C137 H116 0.950 . S
C137 C136 1.373 . S
C137 C153 1.377 . S
C138 C136 1.389 . S
C138 C139 1.524 . S
C138 C152 1.377 . S
C139 C138 1.524 . S
C139 C140 1.397 . S
C139 C144 1.363 . S
C140 H117 0.950 . S
C140 C139 1.397 . S
C140 C141 1.334 . S
C141 H118 0.950 . S
C141 C140 1.334 . S
C141 C142 1.287 . S
C142 C141 1.287 . S
C142 C143 1.524 . S
C142 H161 0.913 . S
C143 H119 0.950 . S
C143 C142 1.524 . S
C143 C144 1.415 . S
C144 H120 0.950 . S
C144 C139 1.363 . S
C144 C143 1.415 . S
C145 H121 0.951 . S
C145 C146 1.366 . S
C145 C147 1.388 . S
C146 C145 1.366 . S
C146 C150 1.385 . S
C147 H122 0.951 . S
C147 C145 1.388 . S
C147 C148 1.366 . S
C148 C147 1.366 . S
C148 C149 1.414 . S
C148 C151 1.499 . S
C149 H123 0.950 . S
C149 C148 1.414 . S
C149 C150 1.374 . S
C150 H124 0.950 . S
C150 C146 1.385 . S
C150 C149 1.374 . S
C151 C148 1.499 . S
C151 C152 1.373 . S
C151 C153 1.389 . S
C152 H125 0.950 . S
C152 C138 1.377 . S
C152 C151 1.373 . S
C153 C137 1.377 . S
C153 C151 1.389 . S
C153 C154 1.524 . S
C154 C153 1.524 . S
C154 C155 1.397 . S
C154 C159 1.363 . S
C155 H126 0.950 . S
C155 C154 1.397 . S
C155 C156 1.334 . S
C156 H127 0.950 . S
C156 C155 1.334 . S
C156 C157 1.287 . S
C157 C156 1.287 . S
C157 C158 1.524 . S
C157 H160 0.999 . S
C158 H128 0.950 . S
C158 C157 1.524 . S
C158 C159 1.415 . S
C159 H129 0.950 . S
C159 C154 1.363 . S
C159 C158 1.415 . S
H160 C157 0.999 . S
H161 C142 0.913 . S
H162 C180 0.951 . S
H163 C182 0.951 . S
H164 C184 0.957 . S
H165 C185 0.955 . S
H166 C187 0.950 . S
H167 C190 0.950 . S
H168 C191 0.950 . S
H169 C193 0.950 . S
H170 C194 0.950 . S
H171 C195 0.951 . S
H172 C197 0.950 . S
H173 C199 0.950 . S
H174 C200 0.950 . S
H175 C202 0.950 . S
H176 C205 0.950 . S
H177 C206 0.950 . S
H178 C208 0.950 . S
H179 C209 0.950 . S
C180 H162 0.951 . S
C180 C181 1.366 . S
C180 C182 1.388 . S
C181 C180 1.366 . S
C181 C185 1.385 . S
C182 H163 0.951 . S
C182 C180 1.388 . S
C182 C183 1.366 . S
C183 C182 1.366 . S
C183 C184 1.414 . S
C183 C186 1.499 . S
C184 H164 0.957 . S
C184 C183 1.414 . S
C184 C185 1.374 . S
C185 H165 0.955 . S
C185 C181 1.385 . S
C185 C184 1.374 . S
C186 C183 1.499 . S
C186 C187 1.373 1_554 S
C186 C188 1.389 . S
C187 H166 0.950 . S
C187 C186 1.373 1_556 S
C187 C203 1.377 . S
C188 C186 1.389 . S
C188 C189 1.524 . S
C188 C202 1.377 . S
C189 C188 1.524 . S
C189 C190 1.397 . S
C189 C194 1.363 . S
C190 H167 0.950 . S
C190 C189 1.397 . S
C190 C191 1.334 . S
C191 H168 0.950 . S
C191 C190 1.334 . S
C191 C192 1.287 . S
C192 C191 1.287 . S
C192 C193 1.524 . S
C192 H211 0.913 . S
C193 H169 0.950 . S
C193 C192 1.524 . S
C193 C194 1.415 . S
C194 H170 0.950 . S
C194 C189 1.363 . S
C194 C193 1.415 . S
C195 H171 0.951 . S
C195 C196 1.366 . S
C195 C197 1.388 . S
C196 C195 1.366 . S
C196 C200 1.385 . S
C197 H172 0.950 . S
C197 C195 1.388 . S
C197 C198 1.366 . S
C198 C197 1.366 . S
C198 C199 1.414 . S
C198 C201 1.499 . S
C199 H173 0.950 . S
C199 C198 1.414 . S
C199 C200 1.374 . S
C200 H174 0.950 . S
C200 C196 1.385 . S
C200 C199 1.374 . S
C201 C198 1.499 . S
C201 C202 1.373 . S
C201 C203 1.389 1_554 S
C202 H175 0.950 . S
C202 C188 1.377 . S
C202 C201 1.373 . S
C203 C187 1.377 . S
C203 C201 1.389 1_556 S
C203 C204 1.524 . S
C204 C203 1.524 . S
C204 C205 1.397 . S
C204 C209 1.363 . S
C205 H176 0.950 . S
C205 C204 1.397 . S
C205 C206 1.334 . S
C206 H177 0.950 . S
C206 C205 1.334 . S
C206 C207 1.287 . S
C207 C206 1.287 . S
C207 C208 1.524 . S
C207 H210 0.999 . S
C208 H178 0.950 . S
C208 C207 1.524 . S
C208 C209 1.415 . S
C209 H179 0.950 . S
C209 C204 1.363 . S
C209 C208 1.415 . S
H210 C207 0.999 . S
H211 C192 0.913 . S
H212 C230 0.951 . S
H213 C232 0.951 . S
H214 C234 0.950 . S
H215 C235 0.950 . S
H216 C237 0.950 . S
H217 C240 0.950 . S
H218 C241 0.950 . S
H219 C243 0.950 . S
H220 C244 0.950 . S
H221 C245 0.951 . S
H222 C247 0.951 . S
H223 C249 0.950 . S
H224 C250 0.950 . S
H225 C252 0.950 . S
H226 C255 0.950 . S
H227 C256 0.950 . S
H228 C258 0.950 . S
H229 C259 0.950 . S
C230 H212 0.951 . S
C230 C231 1.366 . S
C230 C232 1.388 . S
C231 C230 1.366 . S
C231 C235 1.385 . S
C232 H213 0.951 . S
C232 C230 1.388 . S
C232 C233 1.366 . S
C233 C232 1.366 . S
C233 C234 1.414 . S
C233 C236 1.499 . S
C234 H214 0.950 . S
C234 C233 1.414 . S
C234 C235 1.374 . S
C235 H215 0.950 . S
C235 C231 1.385 . S
C235 C234 1.374 . S
C236 C233 1.499 . S
C236 C237 1.373 . S
C236 C238 1.389 . S
C237 H216 0.950 . S
C237 C236 1.373 . S
C237 C253 1.377 . S
C238 C236 1.389 . S
C238 C239 1.524 . S
C238 C252 1.377 . S
C239 C238 1.524 . S
C239 C240 1.397 . S
C239 C244 1.363 . S
C240 H217 0.950 . S
C240 C239 1.397 . S
C240 C241 1.334 . S
C241 H218 0.950 . S
C241 C240 1.334 . S
C241 C242 1.287 . S
C242 C241 1.287 . S
C242 C243 1.524 . S
C242 H261 0.913 . S
C243 H219 0.950 . S
C243 C242 1.524 . S
C243 C244 1.415 . S
C244 H220 0.950 . S
C244 C239 1.363 . S
C244 C243 1.415 . S
C245 H221 0.951 . S
C245 C246 1.366 . S
C245 C247 1.388 . S
C246 C245 1.366 . S
C246 C250 1.385 . S
C247 H222 0.951 . S
C247 C245 1.388 . S
C247 C248 1.366 . S
C248 C247 1.366 . S
C248 C249 1.414 . S
C248 C251 1.499 . S
C249 H223 0.950 . S
C249 C248 1.414 . S
C249 C250 1.374 . S
C250 H224 0.950 . S
C250 C246 1.385 . S
C250 C249 1.374 . S
C251 C248 1.499 . S
C251 C252 1.373 . S
C251 C253 1.389 . S
C252 H225 0.950 . S
C252 C238 1.377 . S
C252 C251 1.373 . S
C253 C237 1.377 . S
C253 C251 1.389 . S
C253 C254 1.524 . S
C254 C253 1.524 . S
C254 C255 1.397 . S
C254 C259 1.363 . S
C255 H226 0.950 . S
C255 C254 1.397 . S
C255 C256 1.334 . S
C256 H227 0.950 . S
C256 C255 1.334 . S
C256 C257 1.287 . S
C257 C256 1.287 . S
C257 C258 1.524 . S
C257 H260 0.999 . S
C258 H228 0.950 . S
C258 C257 1.524 . S
C258 C259 1.415 . S
C259 H229 0.950 . S
C259 C254 1.363 . S
C259 C258 1.415 . S
H260 C257 0.999 . S
H261 C242 0.913 . S
H262 C280 0.951 . S
H263 C282 0.951 . S
H264 C284 0.950 . S
H265 C285 0.950 . S
H266 C287 0.950 . S
H267 C290 0.950 . S
H268 C291 0.950 . S
H269 C293 0.950 . S
H270 C294 0.950 . S
H271 C295 0.951 . S
H272 C297 0.951 . S
H273 C299 0.950 . S
H274 C300 0.950 . S
H275 C302 0.950 . S
H276 C305 0.950 . S
H277 C306 0.950 . S
H278 C308 0.950 . S
H279 C309 0.950 . S
C280 H262 0.951 . S
C280 C281 1.366 . S
C280 C282 1.388 . S
C281 C280 1.366 . S
C281 C285 1.385 . S
C282 H263 0.951 . S
C282 C280 1.388 . S
C282 C283 1.366 . S
C283 C282 1.366 . S
C283 C284 1.414 . S
C283 C286 1.499 . S
C284 H264 0.950 . S
C284 C283 1.414 . S
C284 C285 1.374 . S
C285 H265 0.950 . S
C285 C281 1.385 . S
C285 C284 1.374 . S
C286 C283 1.499 . S
C286 C287 1.373 1_554 S
C286 C288 1.389 . S
C287 H266 0.950 . S
C287 C286 1.373 1_556 S
C287 C303 1.377 . S
C288 C286 1.389 . S
C288 C289 1.524 . S
C288 C302 1.377 . S
C289 C288 1.524 . S
C289 C290 1.397 . S
C289 C294 1.363 . S
C290 H267 0.950 . S
C290 C289 1.397 . S
C290 C291 1.334 . S
C291 H268 0.950 . S
C291 C290 1.334 . S
C291 C292 1.287 . S
C292 C291 1.287 . S
C292 C293 1.524 . S
C292 H311 0.913 . S
C293 H269 0.950 . S
C293 C292 1.524 . S
C293 C294 1.415 . S
C294 H270 0.950 . S
C294 C289 1.363 . S
C294 C293 1.415 . S
C295 H271 0.951 . S
C295 C296 1.366 . S
C295 C297 1.388 . S
C296 C295 1.366 . S
C296 C300 1.385 . S
C297 H272 0.951 . S
C297 C295 1.388 . S
C297 C298 1.366 . S
C298 C297 1.366 . S
C298 C299 1.414 . S
C298 C301 1.499 . S
C299 H273 0.950 . S
C299 C298 1.414 . S
C299 C300 1.374 . S
C300 H274 0.950 . S
C300 C296 1.385 . S
C300 C299 1.374 . S
C301 C298 1.499 . S
C301 C302 1.373 . S
C301 C303 1.389 1_554 S
C302 H275 0.950 . S
C302 C288 1.377 . S
C302 C301 1.373 . S
C303 C287 1.377 . S
C303 C301 1.389 1_556 S
C303 C304 1.524 . S
C304 C303 1.524 . S
C304 C305 1.397 . S
C304 C309 1.363 . S
C305 H276 0.950 . S
C305 C304 1.397 . S
C305 C306 1.334 . S
C306 H277 0.950 . S
C306 C305 1.334 . S
C306 C307 1.287 . S
C307 C306 1.287 . S
C307 C308 1.524 . S
C307 H310 0.999 . S
C308 H278 0.950 . S
C308 C307 1.524 . S
C308 C309 1.415 . S
C309 H279 0.950 . S
C309 C304 1.363 . S
C309 C308 1.415 . S
H310 C307 0.999 . S
H311 C292 0.913 . S
H312 C330 0.951 . S
H313 C332 0.951 . S
H314 C334 0.950 . S
H315 C335 0.950 . S
H316 C337 0.950 . S
H317 C340 0.950 . S
H318 C341 0.950 . S
H319 C343 0.950 . S
H320 C344 0.950 . S
H321 C345 0.951 . S
H322 C347 0.951 . S
H323 C349 0.950 . S
H324 C350 0.950 . S
H325 C352 0.950 . S
H326 C355 0.950 . S
H327 C356 0.950 . S
H328 C358 0.950 . S
H329 C359 0.950 . S
C330 H312 0.951 . S
C330 C331 1.366 . S
C330 C332 1.388 . S
C331 C330 1.366 . S
C331 C335 1.385 . S
C332 H313 0.951 . S
C332 C330 1.388 . S
C332 C333 1.366 . S
C333 C332 1.366 . S
C333 C334 1.414 . S
C333 C336 1.499 . S
C334 H314 0.950 . S
C334 C333 1.414 . S
C334 C335 1.374 . S
C335 H315 0.950 . S
C335 C331 1.385 . S
C335 C334 1.374 . S
C336 C333 1.499 . S
C336 C337 1.373 . S
C336 C338 1.389 . S
C337 H316 0.950 . S
C337 C336 1.373 . S
C337 C353 1.377 . S
C338 C336 1.389 . S
C338 C339 1.524 . S
C338 C352 1.377 . S
C339 C338 1.524 . S
C339 C340 1.397 . S
C339 C344 1.363 . S
C340 H317 0.950 . S
C340 C339 1.397 . S
C340 C341 1.334 . S
C341 H318 0.950 . S
C341 C340 1.334 . S
C341 C342 1.287 . S
C342 C341 1.287 . S
C342 C343 1.524 . S
C342 H361 0.913 . S
C343 H319 0.950 . S
C343 C342 1.524 . S
C343 C344 1.415 . S
C344 H320 0.950 . S
C344 C339 1.363 . S
C344 C343 1.415 . S
C345 H321 0.951 . S
C345 C346 1.366 . S
C345 C347 1.388 . S
C346 C345 1.366 . S
C346 C350 1.385 . S
C347 H322 0.951 . S
C347 C345 1.388 . S
C347 C348 1.366 . S
C348 C347 1.366 . S
C348 C349 1.414 . S
C348 C351 1.499 . S
C349 H323 0.950 . S
C349 C348 1.414 . S
C349 C350 1.374 . S
C350 H324 0.950 . S
C350 C346 1.385 . S
C350 C349 1.374 . S
C351 C348 1.499 . S
C351 C352 1.373 . S
C351 C353 1.389 . S
C352 H325 0.950 . S
C352 C338 1.377 . S
C352 C351 1.373 . S
C353 C337 1.377 . S
C353 C351 1.389 . S
C353 C354 1.524 . S
C354 C353 1.524 . S
C354 C355 1.397 . S
C354 C359 1.363 . S
C355 H326 0.950 . S
C355 C354 1.397 . S
C355 C356 1.334 . S
C356 H327 0.950 . S
C356 C355 1.334 . S
C356 C357 1.287 . S
C357 C356 1.287 . S
C357 C358 1.524 . S
C357 H360 0.999 . S
C358 H328 0.950 . S
C358 C357 1.524 . S
C358 C359 1.415 . S
C359 H329 0.950 . S
C359 C354 1.363 . S
C359 C358 1.415 . S
H360 C357 0.999 . S
H361 C342 0.913 . S
H362 C380 0.951 . S
H363 C382 0.951 . S
H364 C384 0.950 . S
H365 C385 0.950 . S
H366 C387 0.950 . S
H367 C390 0.950 . S
H368 C391 0.950 . S
H369 C393 0.950 . S
H370 C394 0.950 . S
H371 C395 0.951 . S
H372 C397 0.951 . S
H373 C399 0.950 . S
H374 C400 0.950 . S
H375 C402 0.950 . S
H376 C405 0.950 . S
H377 C406 0.950 . S
H378 C408 0.950 . S
H379 C409 0.950 . S
C380 H362 0.951 . S
C380 C381 1.366 . S
C380 C382 1.388 . S
C381 C380 1.366 . S
C381 C385 1.385 . S
C382 H363 0.951 . S
C382 C380 1.388 . S
C382 C383 1.366 . S
C383 C382 1.366 . S
C383 C384 1.414 . S
C383 C386 1.499 . S
C384 H364 0.950 . S
C384 C383 1.414 . S
C384 C385 1.374 . S
C385 H365 0.950 . S
C385 C381 1.385 . S
C385 C384 1.374 . S
C386 C383 1.499 . S
C386 C387 1.373 . S
C386 C388 1.389 . S
C387 H366 0.950 . S
C387 C386 1.373 . S
C387 C403 1.377 . S
C388 C386 1.389 . S
C388 C389 1.524 . S
C388 C402 1.377 . S
C389 C388 1.524 . S
C389 C390 1.397 . S
C389 C394 1.363 . S
C390 H367 0.950 . S
C390 C389 1.397 . S
C390 C391 1.334 . S
C391 H368 0.950 . S
C391 C390 1.334 . S
C391 C392 1.287 . S
C392 C391 1.287 . S
C392 C393 1.524 . S
C392 H411 0.913 . S
C393 H369 0.950 . S
C393 C392 1.524 . S
C393 C394 1.415 . S
C394 H370 0.950 . S
C394 C389 1.363 . S
C394 C393 1.415 . S
C395 H371 0.951 . S
C395 C396 1.366 . S
C395 C397 1.388 . S
C396 C395 1.366 . S
C396 C400 1.385 . S
C397 H372 0.951 . S
C397 C395 1.388 . S
C397 C398 1.366 . S
C398 C397 1.366 . S
C398 C399 1.414 . S
C398 C401 1.499 . S
C399 H373 0.950 . S
C399 C398 1.414 . S
C399 C400 1.374 . S
C400 H374 0.950 . S
C400 C396 1.385 . S
C400 C399 1.374 . S
C401 C398 1.499 . S
C401 C402 1.373 . S
C401 C403 1.389 . S
C402 H375 0.950 . S
C402 C388 1.377 . S
C402 C401 1.373 . S
C403 C387 1.377 . S
C403 C401 1.389 . S
C403 C404 1.524 . S
C404 C403 1.524 . S
C404 C405 1.397 . S
C404 C409 1.363 . S
C405 H376 0.950 . S
C405 C404 1.397 . S
C405 C406 1.334 . S
C406 H377 0.950 . S
C406 C405 1.334 . S
C406 C407 1.287 . S
C407 C406 1.287 . S
C407 C408 1.524 . S
C407 H410 0.999 . S
C408 H378 0.950 . S
C408 C407 1.524 . S
C408 C409 1.415 . S
C409 H379 0.950 . S
C409 C404 1.363 . S
C409 C408 1.415 . S
H410 C407 0.999 . S
H411 C392 0.913 . S
H412 C430 0.951 . S
H413 C432 0.951 . S
H414 C434 0.950 . S
H415 C435 0.950 . S
H416 C437 0.950 . S
H417 C440 0.950 . S
H418 C441 0.950 . S
H419 C443 0.950 . S
H420 C444 0.950 . S
H421 C445 0.951 . S
H422 C447 0.951 . S
H423 C449 0.950 . S
H424 C450 0.950 . S
H425 C452 0.950 . S
H426 C455 0.950 . S
H427 C456 0.950 . S
H428 C458 0.950 . S
H429 C459 0.950 . S
C430 H412 0.951 . S
C430 C431 1.366 . S
C430 C432 1.388 . S
C431 C430 1.366 . S
C431 C435 1.385 . S
C432 H413 0.951 . S
C432 C430 1.388 . S
C432 C433 1.366 . S
C433 C432 1.366 . S
C433 C434 1.414 . S
C433 C436 1.499 . S
C434 H414 0.950 . S
C434 C433 1.414 . S
C434 C435 1.374 . S
C435 H415 0.950 . S
C435 C431 1.385 . S
C435 C434 1.374 . S
C436 C433 1.499 . S
C436 C437 1.373 . S
C436 C438 1.389 . S
C437 H416 0.950 . S
C437 C436 1.373 . S
C437 C453 1.377 . S
C438 C436 1.389 . S
C438 C439 1.524 . S
C438 C452 1.377 . S
C439 C438 1.524 . S
C439 C440 1.397 . S
C439 C444 1.363 . S
C440 H417 0.950 . S
C440 C439 1.397 . S
C440 C441 1.334 . S
C441 H418 0.950 . S
C441 C440 1.334 . S
C441 C442 1.287 . S
C442 C441 1.287 . S
C442 C443 1.524 . S
C442 H461 0.913 . S
C443 H419 0.950 . S
C443 C442 1.524 . S
C443 C444 1.415 . S
C444 H420 0.950 . S
C444 C439 1.363 . S
C444 C443 1.415 . S
C445 H421 0.951 . S
C445 C446 1.366 . S
C445 C447 1.388 . S
C446 C445 1.366 . S
C446 C450 1.385 . S
C447 H422 0.951 . S
C447 C445 1.388 . S
C447 C448 1.366 . S
C448 C447 1.366 . S
C448 C449 1.414 . S
C448 C451 1.499 . S
C449 H423 0.950 . S
C449 C448 1.414 . S
C449 C450 1.374 . S
C450 H424 0.950 . S
C450 C446 1.385 . S
C450 C449 1.374 . S
C451 C448 1.499 . S
C451 C452 1.373 . S
C451 C453 1.389 . S
C452 H425 0.950 . S
C452 C438 1.377 . S
C452 C451 1.373 . S
C453 C437 1.377 . S
C453 C451 1.389 . S
C453 C454 1.524 . S
C454 C453 1.524 . S
C454 C455 1.397 . S
C454 C459 1.363 . S
C455 H426 0.950 . S
C455 C454 1.397 . S
C455 C456 1.334 . S
C456 H427 0.950 . S
C456 C455 1.334 . S
C456 C457 1.287 . S
C457 C456 1.287 . S
C457 C458 1.524 . S
C457 H460 0.999 . S
C458 H428 0.950 . S
C458 C457 1.524 . S
C458 C459 1.415 . S
C459 H429 0.950 . S
C459 C454 1.363 . S
C459 C458 1.415 . S
H460 C457 0.999 . S
H461 C442 0.913 . S
H462 C480 0.951 . S
H463 C482 0.951 . S
H464 C484 0.950 . S
H465 C485 0.950 . S
H466 C487 0.950 . S
H467 C490 0.950 . S
H468 C491 0.950 . S
H469 C493 0.950 . S
H470 C494 0.950 . S
H471 C495 0.951 . S
H472 C497 0.951 . S
H473 C499 0.950 . S
H474 C500 0.950 . S
H475 C502 0.950 . S
H476 C505 0.950 . S
H477 C506 0.950 . S
H478 C508 0.950 . S
H479 C509 0.950 . S
C480 H462 0.951 . S
C480 C481 1.366 . S
C480 C482 1.388 . S
C481 C480 1.366 . S
C481 C485 1.385 . S
C482 H463 0.951 . S
C482 C480 1.388 . S
C482 C483 1.366 . S
C483 C482 1.366 . S
C483 C484 1.414 . S
C483 C486 1.499 . S
C484 H464 0.950 . S
C484 C483 1.414 . S
C484 C485 1.374 . S
C485 H465 0.950 . S
C485 C481 1.385 . S
C485 C484 1.374 . S
C486 C483 1.499 . S
C486 C487 1.373 . S
C486 C488 1.389 . S
C487 H466 0.950 . S
C487 C486 1.373 . S
C487 C503 1.377 . S
C488 C486 1.389 . S
C488 C489 1.524 . S
C488 C502 1.377 . S
C489 C488 1.524 . S
C489 C490 1.397 . S
C489 C494 1.363 . S
C490 H467 0.950 . S
C490 C489 1.397 . S
C490 C491 1.334 . S
C491 H468 0.950 . S
C491 C490 1.334 . S
C491 C492 1.287 . S
C492 C491 1.287 . S
C492 C493 1.524 . S
C492 H511 0.913 . S
C493 H469 0.950 . S
C493 C492 1.524 . S
C493 C494 1.415 . S
C494 H470 0.950 . S
C494 C489 1.363 . S
C494 C493 1.415 . S
C495 H471 0.951 . S
C495 C496 1.366 . S
C495 C497 1.388 . S
C496 C495 1.366 . S
C496 C500 1.385 . S
C497 H472 0.951 . S
C497 C495 1.388 . S
C497 C498 1.366 . S
C498 C497 1.366 . S
C498 C499 1.414 . S
C498 C501 1.499 . S
C499 H473 0.950 . S
C499 C498 1.414 . S
C499 C500 1.374 . S
C500 H474 0.950 . S
C500 C496 1.385 . S
C500 C499 1.374 . S
C501 C498 1.499 . S
C501 C502 1.373 . S
C501 C503 1.389 . S
C502 H475 0.950 . S
C502 C488 1.377 . S
C502 C501 1.373 . S
C503 C487 1.377 . S
C503 C501 1.389 . S
C503 C504 1.524 . S
C504 C503 1.524 . S
C504 C505 1.397 . S
C504 C509 1.363 . S
C505 H476 0.950 . S
C505 C504 1.397 . S
C505 C506 1.334 . S
C506 H477 0.950 . S
C506 C505 1.334 . S
C506 C507 1.287 . S
C507 C506 1.287 . S
C507 C508 1.524 . S
C507 H510 0.999 . S
C508 H478 0.950 . S
C508 C507 1.524 . S
C508 C509 1.415 . S
C509 H479 0.950 . S
C509 C504 1.363 . S
C509 C508 1.415 . S
H510 C507 0.999 . S
H511 C492 0.913 . S
H512 C530 0.951 . S
H513 C532 0.951 . S
H514 C534 0.950 . S
H515 C535 0.950 . S
H516 C537 0.950 . S
H517 C540 0.950 . S
H518 C541 0.950 . S
H519 C543 0.950 . S
H520 C544 0.950 . S
H521 C545 0.951 . S
H522 C547 0.951 . S
H523 C549 0.950 . S
H524 C550 0.950 . S
H525 C552 0.950 . S
H526 C555 0.950 . S
H527 C556 0.950 . S
H528 C558 0.950 . S
H529 C559 0.950 . S
C530 H512 0.951 . S
C530 C531 1.366 . S
C530 C532 1.388 . S
C531 C530 1.366 . S
C531 C535 1.385 . S
C532 H513 0.951 . S
C532 C530 1.388 . S
C532 C533 1.366 . S
C533 C532 1.366 . S
C533 C534 1.414 . S
C533 C536 1.499 . S
C534 H514 0.950 . S
C534 C533 1.414 . S
C534 C535 1.374 . S
C535 H515 0.950 . S
C535 C531 1.385 . S
C535 C534 1.374 . S
C536 C533 1.499 . S
C536 C537 1.373 . S
C536 C538 1.389 . S
C537 H516 0.950 . S
C537 C536 1.373 . S
C537 C553 1.377 . S
C538 C536 1.389 . S
C538 C539 1.524 . S
C538 C552 1.377 . S
C539 C538 1.524 . S
C539 C540 1.397 . S
C539 C544 1.363 . S
C540 H517 0.950 . S
C540 C539 1.397 . S
C540 C541 1.334 . S
C541 H518 0.950 . S
C541 C540 1.334 . S
C541 C542 1.287 . S
C542 C541 1.287 . S
C542 C543 1.524 . S
C542 H561 0.913 . S
C543 H519 0.950 . S
C543 C542 1.524 . S
C543 C544 1.415 . S
C544 H520 0.950 . S
C544 C539 1.363 . S
C544 C543 1.415 . S
C545 H521 0.951 . S
C545 C546 1.366 . S
C545 C547 1.388 . S
C546 C545 1.366 . S
C546 C550 1.385 . S
C547 H522 0.951 . S
C547 C545 1.388 . S
C547 C548 1.366 . S
C548 C547 1.366 . S
C548 C549 1.414 . S
C548 C551 1.499 . S
C549 H523 0.950 . S
C549 C548 1.414 . S
C549 C550 1.374 . S
C550 H524 0.950 . S
C550 C546 1.385 . S
C550 C549 1.374 . S
C551 C548 1.499 . S
C551 C552 1.373 . S
C551 C553 1.389 . S
C552 H525 0.950 . S
C552 C538 1.377 . S
C552 C551 1.373 . S
C553 C537 1.377 . S
C553 C551 1.389 . S
C553 C554 1.524 . S
C554 C553 1.524 . S
C554 C555 1.397 . S
C554 C559 1.363 . S
C555 H526 0.950 . S
C555 C554 1.397 . S
C555 C556 1.334 . S
C556 H527 0.950 . S
C556 C555 1.334 . S
C556 C557 1.287 . S
C557 C556 1.287 . S
C557 C558 1.524 . S
C557 H560 0.999 . S
C558 H528 0.950 . S
C558 C557 1.524 . S
C558 C559 1.415 . S
C559 H529 0.950 . S
C559 C554 1.363 . S
C559 C558 1.415 . S
H560 C557 0.999 . S
H561 C542 0.913 . S
H562 C580 0.951 . S
H563 C582 0.951 . S
H564 C584 0.950 . S
H565 C585 0.950 . S
H566 C587 0.950 . S
H567 C590 0.950 . S
H568 C591 0.950 . S
H569 C593 0.950 . S
H570 C594 0.950 . S
H571 C595 0.951 . S
H572 C597 0.951 . S
H573 C599 0.950 . S
H574 C600 0.950 . S
H575 C602 0.950 . S
H576 C605 0.950 . S
H577 C606 0.950 . S
H578 C608 0.961 . S
H579 C609 0.950 . S
C580 H562 0.951 . S
C580 C581 1.366 . S
C580 C582 1.388 . S
C581 C580 1.366 . S
C581 C585 1.385 . S
C582 H563 0.951 . S
C582 C580 1.388 . S
C582 C583 1.366 . S
C583 C582 1.366 . S
C583 C584 1.414 . S
C583 C586 1.499 . S
C584 H564 0.950 . S
C584 C583 1.414 . S
C584 C585 1.374 . S
C585 H565 0.950 . S
C585 C581 1.385 . S
C585 C584 1.374 . S
C586 C583 1.499 . S
C586 C587 1.373 . S
C586 C588 1.389 . S
C587 H566 0.950 . S
C587 C586 1.373 . S
C587 C603 1.377 . S
C588 C586 1.389 . S
C588 C589 1.524 . S
C588 C602 1.377 . S
C589 C588 1.524 . S
C589 C590 1.397 . S
C589 C594 1.363 . S
C590 H567 0.950 . S
C590 C589 1.397 . S
C590 C591 1.334 . S
C591 H568 0.950 . S
C591 C590 1.334 . S
C591 C592 1.287 . S
C592 C591 1.287 . S
C592 C593 1.524 . S
C592 H611 0.913 . S
C593 H569 0.950 . S
C593 C592 1.524 . S
C593 C594 1.415 . S
C594 H570 0.950 . S
C594 C589 1.363 . S
C594 C593 1.415 . S
C595 H571 0.951 . S
C595 C596 1.366 . S
C595 C597 1.388 . S
C596 C595 1.366 . S
C596 C600 1.385 . S
C597 H572 0.951 . S
C597 C595 1.388 . S
C597 C598 1.366 . S
C598 C597 1.366 . S
C598 C599 1.414 . S
C598 C601 1.499 . S
C599 H573 0.950 . S
C599 C598 1.414 . S
C599 C600 1.374 . S
C600 H574 0.950 . S
C600 C596 1.385 . S
C600 C599 1.374 . S
C601 C598 1.499 . S
C601 C602 1.373 . S
C601 C603 1.389 . S
C602 H575 0.950 . S
C602 C588 1.377 . S
C602 C601 1.373 . S
C603 C587 1.377 . S
C603 C601 1.389 . S
C603 C604 1.524 . S
C604 C603 1.524 . S
C604 C605 1.397 . S
C604 C609 1.363 . S
C605 H576 0.950 . S
C605 C604 1.397 . S
C605 C606 1.334 1_545 S
C606 H577 0.950 . S
C606 C605 1.334 1_565 S
C606 C607 1.287 . S
C607 C606 1.287 . S
C607 C608 1.524 1_565 S
C607 H610 0.999 . S
C608 H578 0.961 . S
C608 C607 1.524 1_545 S
C608 C609 1.415 . S
C609 H579 0.950 . S
C609 C604 1.363 . S
C609 C608 1.415 . S
H610 C607 0.999 . S
H611 C592 0.913 . S
H612 C630 0.951 . S
H613 C632 0.951 . S
H614 C634 0.950 . S
H615 C635 0.950 . S
H616 C637 0.950 . S
H617 C640 0.950 . S
H618 C641 0.950 . S
H619 C643 0.950 . S
H620 C644 0.950 . S
H621 C645 0.951 . S
H622 C647 0.951 . S
H623 C649 0.950 . S
H624 C650 0.950 . S
H625 C652 0.950 . S
H626 C655 0.950 . S
H627 C656 0.950 . S
H628 C658 0.950 . S
H629 C659 0.950 . S
C630 H612 0.951 . S
C630 C631 1.366 . S
C630 C632 1.388 . S
C631 C630 1.366 . S
C631 C635 1.385 . S
C632 H613 0.951 . S
C632 C630 1.388 . S
C632 C633 1.366 . S
C633 C632 1.366 . S
C633 C634 1.414 . S
C633 C636 1.499 . S
C634 H614 0.950 . S
C634 C633 1.414 . S
C634 C635 1.374 . S
C635 H615 0.950 . S
C635 C631 1.385 . S
C635 C634 1.374 . S
C636 C633 1.499 . S
C636 C637 1.373 . S
C636 C638 1.389 . S
C637 H616 0.950 . S
C637 C636 1.373 . S
C637 C653 1.377 . S
C638 C636 1.389 . S
C638 C639 1.524 . S
C638 C652 1.377 . S
C639 C638 1.524 . S
C639 C640 1.397 . S
C639 C644 1.363 . S
C640 H617 0.950 . S
C640 C639 1.397 . S
C640 C641 1.334 . S
C641 H618 0.950 . S
C641 C640 1.334 . S
C641 C642 1.287 . S
C642 C641 1.287 . S
C642 C643 1.524 . S
C642 H661 0.913 . S
C643 H619 0.950 . S
C643 C642 1.524 . S
C643 C644 1.415 . S
C644 H620 0.950 . S
C644 C639 1.363 . S
C644 C643 1.415 . S
C645 H621 0.951 . S
C645 C646 1.366 . S
C645 C647 1.388 . S
C646 C645 1.366 . S
C646 C650 1.385 . S
C647 H622 0.951 . S
C647 C645 1.388 . S
C647 C648 1.366 . S
C648 C647 1.366 . S
C648 C649 1.414 . S
C648 C651 1.499 . S
C649 H623 0.950 . S
C649 C648 1.414 . S
C649 C650 1.374 . S
C650 H624 0.950 . S
C650 C646 1.385 . S
C650 C649 1.374 . S
C651 C648 1.499 . S
C651 C652 1.373 . S
C651 C653 1.389 . S
C652 H625 0.950 . S
C652 C638 1.377 . S
C652 C651 1.373 . S
C653 C637 1.377 . S
C653 C651 1.389 . S
C653 C654 1.524 . S
C654 C653 1.524 . S
C654 C655 1.397 . S
C654 C659 1.363 . S
C655 H626 0.950 . S
C655 C654 1.397 . S
C655 C656 1.334 . S
C656 H627 0.950 . S
C656 C655 1.334 . S
C656 C657 1.287 . S
C657 C656 1.287 . S
C657 C658 1.524 . S
C657 H660 0.999 . S
C658 H628 0.950 . S
C658 C657 1.524 . S
C658 C659 1.415 . S
C659 H629 0.950 . S
C659 C654 1.363 . S
C659 C658 1.415 . S
H660 C657 0.999 . S
H661 C642 0.913 . S
H662 C680 0.951 . S
H663 C682 0.951 . S
H664 C684 0.950 . S
H665 C685 0.950 . S
H666 C687 0.950 . S
H667 C690 0.950 . S
H668 C691 0.950 . S
H669 C693 0.950 . S
H670 C694 0.950 . S
H671 C695 0.951 . S
H672 C697 0.951 . S
H673 C699 0.950 . S
H674 C700 0.950 . S
H675 C702 0.950 . S
H676 C705 0.950 . S
H677 C706 0.950 . S
H678 C708 0.950 . S
H679 C709 0.950 . S
C680 H662 0.951 . S
C680 C681 1.366 . S
C680 C682 1.388 . S
C681 C680 1.366 . S
C681 C685 1.385 . S
C682 H663 0.951 . S
C682 C680 1.388 . S
C682 C683 1.366 . S
C683 C682 1.366 . S
C683 C684 1.414 . S
C683 C686 1.499 . S
C684 H664 0.950 . S
C684 C683 1.414 . S
C684 C685 1.374 . S
C685 H665 0.950 . S
C685 C681 1.385 . S
C685 C684 1.374 . S
C686 C683 1.499 . S
C686 C687 1.373 . S
C686 C688 1.389 . S
C687 H666 0.950 . S
C687 C686 1.373 . S
C687 C703 1.377 . S
C688 C686 1.389 . S
C688 C689 1.524 . S
C688 C702 1.377 . S
C689 C688 1.524 . S
C689 C690 1.397 . S
C689 C694 1.363 . S
C690 H667 0.950 . S
C690 C689 1.397 . S
C690 C691 1.334 . S
C691 H668 0.950 . S
C691 C690 1.334 . S
C691 C692 1.287 . S
C692 C691 1.287 . S
C692 C693 1.524 . S
C692 H711 0.913 . S
C693 H669 0.950 . S
C693 C692 1.524 . S
C693 C694 1.415 . S
C694 H670 0.950 . S
C694 C689 1.363 . S
C694 C693 1.415 . S
C695 H671 0.951 . S
C695 C696 1.366 . S
C695 C697 1.388 . S
C696 C695 1.366 . S
C696 C700 1.385 . S
C697 H672 0.951 . S
C697 C695 1.388 . S
C697 C698 1.366 . S
C698 C697 1.366 . S
C698 C699 1.414 . S
C698 C701 1.499 . S
C699 H673 0.950 . S
C699 C698 1.414 . S
C699 C700 1.374 . S
C700 H674 0.950 . S
C700 C696 1.385 . S
C700 C699 1.374 . S
C701 C698 1.499 . S
C701 C702 1.373 . S
C701 C703 1.389 . S
C702 H675 0.950 . S
C702 C688 1.377 . S
C702 C701 1.373 . S
C703 C687 1.377 . S
C703 C701 1.389 . S
C703 C704 1.524 . S
C704 C703 1.524 . S
C704 C705 1.397 . S
C704 C709 1.363 . S
C705 H676 0.950 . S
C705 C704 1.397 . S
C705 C706 1.334 1_565 S
C706 H677 0.950 . S
C706 C705 1.334 1_545 S
C706 C707 1.287 . S
C707 C706 1.287 . S
C707 C708 1.524 . S
C707 H710 0.999 . S
C708 H678 0.950 . S
C708 C707 1.524 . S
C708 C709 1.415 1_545 S
C709 H679 0.950 . S
C709 C704 1.363 . S
C709 C708 1.415 1_565 S
H710 C707 0.999 . S
H711 C692 0.913 . S
C146 C48 1.506 . S
C131 N37 1.504 . S
C181 N4 1.507 . S
C196 C91 1.509 . S
C231 N15 1.502 . S
C246 C57 1.509 . S
C281 N26 1.504 . S
C296 C82 1.507 . S
C346 C44 1.569 . S
C331 C9 1.545 . S
C396 C86 1.548 . S
C381 C17 1.547 . S
C431 C31 1.547 . S
C446 C52 1.565 . S
C481 C42 1.528 . S
C496 C78 1.549 . S
C546 C107 1.463 . S
C531 C20 1.444 . S
C596 C73 1.447 . S
C581 C28 1.442 . S
C646 C95 1.462 . S
C631 C39 1.460 . S
C681 C6 1.443 . S
C696 C61 1.444 . S
