# Generated by pormake.
# Topology anh, (6,3)-cn, num edge types: 1
# Building blocks:
#     Node 0, Type 0, BuildingBlock: BETFAJ_clean_sbu_0, # of connection points: 6
#     Node 1, Type 0, BuildingBlock: BETFAJ_clean_sbu_0, # of connection points: 6
#     Node 2, Type 0, BuildingBlock: BETFAJ_clean_sbu_0, # of connection points: 6
#     Node 3, Type 1, BuildingBlock: BELTOD_clean_linker_0, # of connection points: 3
#     Node 4, Type 1, BuildingBlock: BELTOD_clean_linker_0, # of connection points: 3
#     Node 5, Type 1, BuildingBlock: BELTOD_clean_linker_0, # of connection points: 3
#     Node 6, Type 1, BuildingBlock: BELTOD_clean_linker_0, # of connection points: 3
#     Node 7, Type 1, BuildingBlock: BELTOD_clean_linker_0, # of connection points: 3
#     Node 8, Type 1, BuildingBlock: BELTOD_clean_linker_0, # of connection points: 3
#     Edge 9, Type (0, 1), BuildingBlock: CIFDUS_clean_linker_0, # of connection points: 2
#     Edge 10, Type (0, 1), BuildingBlock: CIFDUS_clean_linker_0, # of connection points: 2
#     Edge 11, Type (0, 1), BuildingBlock: CIFDUS_clean_linker_0, # of connection points: 2
#     Edge 12, Type (0, 1), BuildingBlock: CIFDUS_clean_linker_0, # of connection points: 2
#     Edge 13, Type (0, 1), BuildingBlock: CIFDUS_clean_linker_0, # of connection points: 2
#     Edge 14, Type (0, 1), BuildingBlock: CIFDUS_clean_linker_0, # of connection points: 2
#     Edge 15, Type (0, 1), BuildingBlock: CIFDUS_clean_linker_0, # of connection points: 2
#     Edge 16, Type (0, 1), BuildingBlock: CIFDUS_clean_linker_0, # of connection points: 2
#     Edge 17, Type (0, 1), BuildingBlock: CIFDUS_clean_linker_0, # of connection points: 2
#     Edge 18, Type (0, 1), BuildingBlock: CIFDUS_clean_linker_0, # of connection points: 2
#     Edge 19, Type (0, 1), BuildingBlock: CIFDUS_clean_linker_0, # of connection points: 2
#     Edge 20, Type (0, 1), BuildingBlock: CIFDUS_clean_linker_0, # of connection points: 2
#     Edge 21, Type (0, 1), BuildingBlock: CIFDUS_clean_linker_0, # of connection points: 2
#     Edge 22, Type (0, 1), BuildingBlock: CIFDUS_clean_linker_0, # of connection points: 2
#     Edge 23, Type (0, 1), BuildingBlock: CIFDUS_clean_linker_0, # of connection points: 2
#     Edge 24, Type (0, 1), BuildingBlock: CIFDUS_clean_linker_0, # of connection points: 2
#     Edge 25, Type (0, 1), BuildingBlock: CIFDUS_clean_linker_0, # of connection points: 2
#     Edge 26, Type (0, 1), BuildingBlock: CIFDUS_clean_linker_0, # of connection points: 2
# Relax obj value: 0.195
# Max RMSD: 0.215
# Mean RMSD: 0.153
data_MOF--net-anh--node1-BETFAJ_clean_sbu_0--node2-BELTOD_clean_linker_0--edge1-CIFDUS_clean_linker_0
_symmetry_space_group_name_H-M    P1
_symmetry_Int_Tables_number       1
_symmetry_cell_setting            triclinic
loop_
_symmetry_equiv_pos_as_xyz
'x, y, z'
_cell_length_a     32.31341
_cell_length_b     37.802663
_cell_length_c     54.603834
_cell_angle_alpha  92.565183
_cell_angle_beta   89.225924
_cell_angle_gamma 129.63633
loop_
_atom_site_label
_atom_site_type_symbol
_atom_site_fract_x
_atom_site_fract_y
_atom_site_fract_z
_atom_type_partial_charge
Sm0 Sm 0.11254 0.50288 0.15281 0.0
Sm1 Sm 0.04961 0.5338 0.15698 0.0
C2 C 0.19082 0.50112 0.14777 0.0
C3 C 0.24582 0.53947 0.15641 0.0
C4 C 0.28602 0.56704 0.13942 0.0
C5 C 0.33939 0.59895 0.14742 0.0
C6 C 0.3524 0.59884 0.17188 0.0
C7 C 0.31232 0.58281 0.18937 0.0
C8 C 0.25857 0.55103 0.18163 0.0
C9 C 0.08482 0.50723 0.19986 0.0
C10 C 0.17705 0.61499 0.15388 0.0
C11 C 0.99883 0.55649 0.18158 0.0
C12 C 0.9439 0.53317 0.18846 0.0
C13 C 0.90957 0.48634 0.19376 0.0
C14 C 0.85481 0.46258 0.19602 0.0
C15 C 0.83493 0.48592 0.19332 0.0
C16 C 0.87004 0.53349 0.1902 0.0
C17 C 0.9244 0.55696 0.18749 0.0
C18 C 0.05658 0.52275 0.10674 0.0
C19 C 0.98605 0.42253 0.14902 0.0
O20 O 0.17339 0.50952 0.12929 0.0
O21 O 0.15512 0.47824 0.16476 0.0
O22 O 0.10406 0.53775 0.18431 0.0
O23 O 0.07714 0.47146 0.19029 0.0
O24 O 0.18 0.58181 0.15151 0.0
O25 O 0.13091 0.60606 0.15678 0.0
O26 O 1.02129 0.54183 0.19185 0.0
O27 O 1.00888 0.56374 0.1582 0.0
O28 O 0.07689 0.51554 0.12344 0.0
O29 O 1.03052 0.53538 0.11637 0.0
O30 O 0.98379 0.45395 0.15893 0.0
O31 O 1.03183 0.4346 0.14071 0.0
H32 H 0.27677 0.56168 0.11994 0.0
H33 H 0.37005 0.61487 0.13358 0.0
H34 H 0.32176 0.58538 0.20867 0.0
H35 H 0.22788 0.53311 0.19537 0.0
H36 H 0.92437 0.46751 0.19446 0.0
H37 H 0.82771 0.42561 0.1976 0.0
H38 H 0.85459 0.55131 0.18693 0.0
H39 H 0.95053 0.59285 0.18302 0.0
Sm40 Sm 0.58304 0.99777 0.47401 0.0
Sm41 Sm 0.5171 0.02463 0.4706 0.0
C42 C 0.62077 0.95519 0.48373 0.0
C43 C 0.59998 0.90727 0.48098 0.0
C44 C 0.58392 0.8811 0.50178 0.0
C45 C 0.56838 0.83715 0.49986 0.0
C46 C 0.56888 0.81856 0.47708 0.0
C47 C 0.582 0.84369 0.45603 0.0
C48 C 0.59742 0.88766 0.45795 0.0
C49 C 0.56897 0.01107 0.42658 0.0
C50 C 0.45148 0.91607 0.46905 0.0
C51 C 0.47766 0.06585 0.46035 0.0
C52 C 0.49502 0.1125 0.46443 0.0
C53 C 0.50177 0.13739 0.44427 0.0
C54 C 0.51715 0.18124 0.44778 0.0
C55 C 0.5259 0.20097 0.47156 0.0
C56 C 0.52009 0.17629 0.49171 0.0
C57 C 0.50499 0.1326 0.48819 0.0
C58 C 0.5289 0.00936 0.51769 0.0
C59 C 0.65114 0.10532 0.47479 0.0
O60 O 0.59788 0.96357 0.50019 0.0
O61 O 0.63168 0.97706 0.46366 0.0
O62 O 0.53227 0.98951 0.4421 0.0
O63 O 0.61422 0.02503 0.4357 0.0
O64 O 0.49752 0.92869 0.47724 0.0
O65 O 0.44838 0.94714 0.46172 0.0
O66 O 0.50556 0.06167 0.44479 0.0
O67 O 0.46418 0.04148 0.47963 0.0
O68 O 0.56669 0.03198 0.50268 0.0
O69 O 0.48368 0.99498 0.50827 0.0
O70 O 0.60498 0.09474 0.46816 0.0
O71 O 0.65282 0.07343 0.48171 0.0
H72 H 0.58517 0.89522 0.51973 0.0
H73 H 0.55916 0.81897 0.51649 0.0
H74 H 0.58221 0.83002 0.43821 0.0
H75 H 0.60883 0.90668 0.44148 0.0
H76 H 0.49483 0.12277 0.42577 0.0
H77 H 0.52209 0.19965 0.43187 0.0
H78 H 0.52587 0.19021 0.51029 0.0
H79 H 0.50058 0.11446 0.50413 0.0
Sm80 Sm 0.63276 0.58328 0.82929 0.0
Sm81 Sm 0.55395 0.48231 0.83129 0.0
C82 C 0.67821 0.66698 0.81621 0.0
C83 C 0.6618 0.69566 0.81849 0.0
C84 C 0.63096 0.69397 0.79981 0.0
C85 C 0.6162 0.72154 0.80176 0.0
C86 C 0.63214 0.75158 0.82236 0.0
C87 C 0.6613 0.75206 0.84142 0.0
C88 C 0.67615 0.72454 0.83947 0.0
C89 C 0.60755 0.55384 0.87547 0.0
C90 C 0.49759 0.53126 0.8354 0.0
C91 C 0.5054 0.39628 0.84138 0.0
C92 C 0.51774 0.36517 0.83639 0.0
C93 C 0.52211 0.34473 0.8559 0.0
C94 C 0.53438 0.31562 0.85151 0.0
C95 C 0.54229 0.30626 0.82748 0.0
C96 C 0.53888 0.32747 0.80802 0.0
C97 C 0.52687 0.3567 0.81241 0.0
C98 C 0.57612 0.51212 0.78441 0.0
C99 C 0.68908 0.53512 0.83458 0.0
O100 O 0.6497 0.63093 0.80094 0.0
O101 O 0.69118 0.65881 0.83657 0.0
O102 O 0.57503 0.53819 0.85778 0.0
O103 O 0.6565 0.58804 0.86964 0.0
O104 O 0.54793 0.5691 0.83074 0.0
O105 O 0.48947 0.49251 0.83868 0.0
O106 O 0.53768 0.43094 0.85701 0.0
O107 O 0.49199 0.40753 0.82252 0.0
O108 O 0.61076 0.52797 0.80142 0.0
O109 O 0.52848 0.47806 0.79155 0.0
O110 O 0.6377 0.49768 0.83712 0.0
O111 O 0.69928 0.57415 0.82933 0.0
H112 H 0.61901 0.67197 0.78344 0.0
H113 H 0.59443 0.72084 0.78657 0.0
H114 H 0.67372 0.77453 0.85763 0.0
H115 H 0.6995 0.7264 0.8543 0.0
H116 H 0.51583 0.35117 0.87456 0.0
H117 H 0.53652 0.29966 0.86688 0.0
H118 H 0.54578 0.32165 0.78935 0.0
H119 H 0.52483 0.37263 0.797 0.0
P120 P 0.60254 0.01326 0.19926 0.0
H121 H 0.56974 0.93551 0.16656 0.0
H122 H 0.48198 0.86174 0.15781 0.0
H123 H 0.4068 0.91543 0.18849 0.0
H124 H 0.49569 0.98902 0.19823 0.0
H125 H 0.71757 0.07528 0.19106 0.0
H126 H 0.7815 0.15441 0.17974 0.0
H127 H 0.65163 0.15723 0.16817 0.0
H128 H 0.58693 0.07691 0.18034 0.0
H129 H 0.5254 0.94439 0.23338 0.0
H130 H 0.64982 0.09182 0.23498 0.0
O131 O 0.63684 0.99414 0.20071 0.0
H132 H 0.50927 0.94843 0.27665 0.0
H133 H 0.63615 0.09598 0.27863 0.0
C134 C 0.53958 0.9678 0.18343 0.0
C135 C 0.53449 0.932 0.17082 0.0
C136 C 0.48376 0.88943 0.16578 0.0
C137 C 0.43663 0.88171 0.17295 0.0
C138 C 0.44195 0.91935 0.18334 0.0
C139 C 0.49291 0.96195 0.18851 0.0
C140 C 0.64698 0.0694 0.18605 0.0
C141 C 0.70225 0.09221 0.18554 0.0
C142 C 0.73917 0.13792 0.17897 0.0
C143 C 0.72217 0.16263 0.17274 0.0
C144 C 0.66645 0.13954 0.17293 0.0
C145 C 0.62923 0.09338 0.1796 0.0
C146 C 0.58787 0.01789 0.23068 0.0
C147 C 0.54881 0.9778 0.24296 0.0
C148 C 0.54015 0.9801 0.2679 0.0
C149 C 0.57147 0.02254 0.28135 0.0
C150 C 0.61044 0.06275 0.26888 0.0
C151 C 0.61856 0.06042 0.24382 0.0
P152 P 0.64222 0.56768 0.55782 0.0
H153 H 0.67975 0.55217 0.51318 0.0
H154 H 0.66163 0.48298 0.49457 0.0
H155 H 0.54127 0.40075 0.54865 0.0
H156 H 0.55903 0.46968 0.56718 0.0
H157 H 0.68828 0.66083 0.54762 0.0
H158 H 0.65297 0.69322 0.52762 0.0
H159 H 0.49945 0.55744 0.51649 0.0
H160 H 0.53563 0.52462 0.53631 0.0
H161 H 0.69486 0.56565 0.59964 0.0
H162 H 0.55054 0.54661 0.58591 0.0
O163 O 0.70911 0.60628 0.5565 0.0
H164 H 0.67246 0.55132 0.64287 0.0
H165 H 0.52805 0.53269 0.6293 0.0
C166 C 0.6217 0.51606 0.54189 0.0
C167 C 0.64884 0.51913 0.52077 0.0
C168 C 0.63843 0.4798 0.51012 0.0
C169 C 0.60041 0.43711 0.5204 0.0
C170 C 0.57081 0.4336 0.54055 0.0
C171 C 0.58114 0.4729 0.55117 0.0
C172 C 0.61483 0.59034 0.54305 0.0
C173 C 0.64724 0.63783 0.54066 0.0
C174 C 0.6271 0.65629 0.52917 0.0
C175 C 0.57384 0.62763 0.52022 0.0
C176 C 0.54078 0.58004 0.5231 0.0
C177 C 0.56137 0.56141 0.53434 0.0
C178 C 0.62503 0.55819 0.58969 0.0
C179 C 0.65866 0.55896 0.60601 0.0
C180 C 0.64589 0.55091 0.63074 0.0
C181 C 0.59881 0.54142 0.6396 0.0
C182 C 0.5646 0.53988 0.62305 0.0
C183 C 0.57759 0.54813 0.59826 0.0
P184 P 0.10967 0.55394 0.87482 0.0
H185 H 0.17282 0.5691 0.82868 0.0
H186 H 0.24323 0.56375 0.8186 0.0
H187 H 0.21935 0.5023 0.88728 0.0
H188 H 0.14745 0.50554 0.89674 0.0
H189 H 0.09248 0.62219 0.87235 0.0
H190 H 1.01956 0.62206 0.86479 0.0
H191 H 0.91563 0.47697 0.84553 0.0
H192 H 0.99107 0.47718 0.8542 0.0
H193 H 0.18036 0.58893 0.91857 0.0
H194 H 1.00987 0.49091 0.90341 0.0
O195 O 0.15925 0.61077 0.8757 0.0
H196 H 0.16377 0.57848 0.96264 0.0
H197 H 0.99309 0.48123 0.94738 0.0
C198 C 0.15116 0.53648 0.86336 0.0
C199 C 0.18065 0.55269 0.84135 0.0
C200 C 0.22247 0.55026 0.83571 0.0
C201 C 0.23922 0.53291 0.85203 0.0
C202 C 0.20965 0.51657 0.87399 0.0
C203 C 0.167 0.51798 0.87934 0.0
C204 C 0.05084 0.55023 0.8631 0.0
C205 C 0.05503 0.58994 0.86582 0.0
C206 C 1.01158 0.58982 0.86132 0.0
C207 C 0.95927 0.54981 0.85364 0.0
C208 C 0.95413 0.50926 0.85113 0.0
C209 C 0.99842 0.50941 0.85581 0.0
C210 C 0.09646 0.54131 0.90738 0.0
C211 C 0.1393 0.5649 0.92463 0.0
C212 C 0.12979 0.55874 0.94993 0.0
C213 C 0.07702 0.52937 0.95876 0.0
C214 C 1.03426 0.50465 0.94137 0.0
C215 C 1.04386 0.5102 0.91606 0.0
P216 P 0.07242 0.50085 0.4298 0.0
H217 H 0.14854 0.55193 0.4711 0.0
H218 H 0.2107 0.63388 0.48299 0.0
H219 H 0.13357 0.65791 0.43017 0.0
H220 H 0.07059 0.5757 0.41896 0.0
H221 H 1.04546 0.42047 0.45331 0.0
H222 H 0.96197 0.35038 0.46706 0.0
H223 H 0.8802 0.40326 0.45098 0.0
H224 H 0.96561 0.47501 0.43844 0.0
H225 H 0.14471 0.56037 0.39161 0.0
H226 H 0.97759 0.44046 0.39597 0.0
O227 O 0.11726 0.49257 0.43131 0.0
H228 H 0.13546 0.55705 0.34704 0.0
H229 H 0.96766 0.43781 0.35165 0.0
C230 C 0.10542 0.55766 0.44382 0.0
C231 C 0.144 0.57463 0.46256 0.0
C232 C 0.18006 0.62174 0.46913 0.0
C233 C 0.17832 0.653 0.4571 0.0
C234 C 0.13643 0.63514 0.43985 0.0
C235 C 0.10024 0.58793 0.43336 0.0
C236 C 1.01202 0.45316 0.44457 0.0
C237 C 1.00995 0.41761 0.45314 0.0
C238 C 0.96152 0.37687 0.46074 0.0
C239 C 0.91327 0.36998 0.45958 0.0
C240 C 0.91612 0.40686 0.45224 0.0
C241 C 0.96507 0.44811 0.445 0.0
C242 C 0.06187 0.50099 0.39731 0.0
C243 C 0.10569 0.53393 0.38305 0.0
C244 C 0.10026 0.53215 0.35753 0.0
C245 C 0.05081 0.49709 0.34564 0.0
C246 C 1.00651 0.46499 0.36012 0.0
C247 C 1.01206 0.46673 0.38564 0.0
P248 P 0.62812 0.04543 0.74351 0.0
H249 H 0.68371 0.12934 0.77467 0.0
H250 H 0.65652 0.17226 0.79111 0.0
H251 H 0.4931 0.06175 0.76618 0.0
H252 H 0.52188 0.02023 0.74826 0.0
H253 H 0.6719 0.99906 0.73928 0.0
H254 H 0.65218 0.93346 0.75915 0.0
H255 H 0.51833 0.91073 0.79577 0.0
H256 H 0.53872 0.97746 0.77599 0.0
H257 H 0.64414 0.10889 0.70921 0.0
H258 H 0.57345 0.96605 0.70741 0.0
O259 O 0.69519 0.08238 0.74483 0.0
H260 H 0.63202 0.10417 0.6648 0.0
H261 H 0.56128 0.96117 0.66277 0.0
C262 C 0.60488 0.07182 0.76002 0.0
C263 C 0.64189 0.11403 0.77293 0.0
C264 C 0.62607 0.13847 0.78258 0.0
C265 C 0.57262 0.12082 0.7798 0.0
C266 C 0.53486 0.07695 0.76817 0.0
C267 C 0.55103 0.05287 0.75815 0.0
C268 C 0.60747 0.99362 0.75648 0.0
C269 C 0.63818 0.98001 0.7515 0.0
C270 C 0.62694 0.94262 0.76285 0.0
C271 C 0.5843 0.91775 0.77918 0.0
C272 C 0.55157 0.92973 0.78329 0.0
C273 C 0.56328 0.96778 0.77203 0.0
C274 C 0.60983 0.03795 0.71159 0.0
C275 C 0.62534 0.07633 0.69927 0.0
C276 C 0.61881 0.0737 0.67388 0.0
C277 C 0.59648 0.0325 0.66029 0.0
C278 C 0.57866 0.99336 0.6728 0.0
C279 C 0.58564 0.99615 0.69831 0.0
P280 P 0.45219 0.36959 0.07357 0.0
H281 H 0.48266 0.33626 0.1097 0.0
H282 H 0.56714 0.37391 0.13208 0.0
H283 H 0.64537 0.49217 0.08764 0.0
H284 H 0.56082 0.45552 0.06579 0.0
H285 H 0.35365 0.35776 0.07504 0.0
H286 H 0.32835 0.39691 0.10018 0.0
H287 H 0.4778 0.47197 0.14118 0.0
H288 H 0.50259 0.4339 0.11718 0.0
H289 H 0.4924 0.35363 0.0309 0.0
H290 H 0.45071 0.43863 0.05246 0.0
O291 O 0.40938 0.31226 0.07229 0.0
H292 H 0.54155 0.40183 0.99605 0.0
H293 H 0.49862 0.48587 0.01756 0.0
C294 C 0.51612 0.39181 0.08528 0.0
C295 C 0.51818 0.36968 0.10436 0.0
C296 C 0.56578 0.39164 0.11746 0.0
C297 C 0.6116 0.43571 0.11142 0.0
C298 C 0.60997 0.45812 0.09236 0.0
C299 C 0.56204 0.43646 0.07952 0.0
C300 C 0.4299 0.39269 0.09392 0.0
C301 C 0.38036 0.38208 0.08972 0.0
C302 C 0.36616 0.40442 0.10391 0.0
C303 C 0.40178 0.43757 0.12221 0.0
C304 C 0.45032 0.44698 0.12685 0.0
C305 C 0.46424 0.42471 0.11293 0.0
C306 C 0.46663 0.39175 0.0438 0.0
C307 C 0.49189 0.38139 0.02754 0.0
C308 C 0.52119 0.40958 0.00818 0.0
C309 C 0.5244 0.44773 0.00471 0.0
C310 C 0.49682 0.45667 0.02021 0.0
C311 C 0.46836 0.429 0.03978 0.0
H312 H 0.31742 0.51768 0.1872 0.0
H313 H 0.4574 0.64449 0.15885 0.0
H314 H 0.48747 0.60359 0.14135 0.0
H315 H 0.46326 0.5295 0.12714 0.0
H316 H 0.31387 0.40264 0.14939 0.0
H317 H 0.29552 0.44579 0.17503 0.0
C318 C 0.35571 0.53714 0.17806 0.0
C319 C 0.38485 0.58412 0.174 0.0
C320 C 0.36893 0.51272 0.16571 0.0
C321 C 0.43449 0.60841 0.16227 0.0
C322 C 0.45073 0.58476 0.15169 0.0
C323 C 0.42697 0.51159 0.13782 0.0
C324 C 0.38962 0.46332 0.13656 0.0
C325 C 0.41644 0.53659 0.15202 0.0
C326 C 0.3425 0.43989 0.15007 0.0
C327 C 0.33253 0.46448 0.16489 0.0
H328 H 0.67599 0.18948 0.48387 0.0
H329 H 0.74277 0.12608 0.45803 0.0
H330 H 0.82837 0.2013 0.45071 0.0
H331 H 0.88387 0.2846 0.45064 0.0
H332 H 0.82218 0.35045 0.48013 0.0
H333 H 0.73538 0.27517 0.48669 0.0
C334 C 0.70944 0.19234 0.47672 0.0
C335 C 0.70294 0.15217 0.47151 0.0
C336 C 0.75956 0.2362 0.47309 0.0
C337 C 0.74676 0.1564 0.46241 0.0
C338 C 0.79577 0.19946 0.45812 0.0
C339 C 0.85213 0.28298 0.459 0.0
C340 C 0.86036 0.32388 0.46477 0.0
C341 C 0.8027 0.23959 0.46339 0.0
C342 C 0.81739 0.32002 0.47499 0.0
C343 C 0.76758 0.27678 0.47895 0.0
H344 H 0.54284 0.73939 0.80787 0.0
H345 H 0.70488 0.84212 0.83639 0.0
H346 H 0.70008 0.9024 0.82928 0.0
H347 H 0.65601 0.927 0.80891 0.0
H348 H 0.49636 0.82631 0.77814 0.0
H349 H 0.49357 0.76405 0.79234 0.0
C350 C 0.57676 0.77494 0.81281 0.0
C351 C 0.62437 0.78624 0.82237 0.0
C352 C 0.57431 0.80979 0.80805 0.0
C353 C 0.66763 0.83233 0.82916 0.0
C354 C 0.66515 0.86697 0.82489 0.0
C355 C 0.62021 0.89135 0.80584 0.0
C356 C 0.57676 0.88086 0.79233 0.0
C357 C 0.6196 0.85622 0.81348 0.0
C358 C 0.53023 0.83486 0.78853 0.0
C359 C 0.5289 0.79943 0.79646 0.0
H360 H 0.80307 0.45408 0.14824 0.0
H361 H 0.75088 0.46923 0.21798 0.0
H362 H 0.67817 0.4616 0.19752 0.0
H363 H 0.63541 0.457 0.15928 0.0
H364 H 0.69713 0.45292 0.08968 0.0
H365 H 0.76484 0.45461 0.11049 0.0
C366 C 0.77425 0.45387 0.15889 0.0
C367 C 0.78061 0.46115 0.18436 0.0
C368 C 0.73747 0.45486 0.14697 0.0
C369 C 0.74491 0.46232 0.19833 0.0
C370 C 0.70482 0.45944 0.18661 0.0
C371 C 0.66485 0.45777 0.1489 0.0
C372 C 0.66193 0.45445 0.1233 0.0
C373 C 0.70227 0.45755 0.16093 0.0
C374 C 0.69972 0.45583 0.10954 0.0
C375 C 0.73721 0.45558 0.12136 0.0
H376 H 0.34303 0.87232 0.46466 0.0
H377 H 0.45483 0.84637 0.46979 0.0
H378 H 0.38115 0.76413 0.46755 0.0
H379 H 0.28551 0.69895 0.46302 0.0
H380 H 0.17135 0.72221 0.459 0.0
H381 H 0.24496 0.80542 0.4618 0.0
C382 C 0.35114 0.84861 0.46523 0.0
C383 C 0.40468 0.86589 0.46736 0.0
C384 C 0.30805 0.80059 0.46414 0.0
C385 C 0.41426 0.83446 0.46827 0.0
C386 C 0.37203 0.78715 0.46696 0.0
C387 C 0.27635 0.72201 0.46322 0.0
C388 C 0.22258 0.7039 0.46082 0.0
C389 C 0.31881 0.76978 0.46488 0.0
C390 C 0.2122 0.73487 0.46055 0.0
C391 C 0.25438 0.7826 0.46222 0.0
H392 H 0.49859 0.23989 0.79109 0.0
H393 H 0.60892 0.29902 0.85299 0.0
H394 H 0.62528 0.24475 0.84476 0.0
H395 H 0.60916 0.18137 0.81952 0.0
H396 H 0.50341 0.12655 0.75591 0.0
H397 H 0.48358 0.17767 0.76564 0.0
C398 C 0.52661 0.24122 0.80266 0.0
C399 C 0.55258 0.27354 0.82257 0.0
C400 C 0.53618 0.21032 0.7977 0.0
C401 C 0.58798 0.27418 0.83768 0.0
C402 C 0.59751 0.24328 0.83293 0.0
C403 C 0.582 0.18071 0.80767 0.0
C404 C 0.55773 0.1498 0.78704 0.0
C405 C 0.57191 0.21128 0.81293 0.0
C406 C 0.52188 0.14908 0.77221 0.0
C407 C 0.51095 0.17877 0.77758 0.0
H408 H 0.49678 0.73897 0.50065 0.0
H409 H 0.63136 0.80515 0.45196 0.0
H410 H 0.63839 0.74577 0.45788 0.0
H411 H 0.61708 0.6837 0.48248 0.0
H412 H 0.48628 0.61944 0.53298 0.0
H413 H 0.4665 0.66894 0.52067 0.0
C414 C 0.52696 0.73982 0.49101 0.0
C415 C 0.56394 0.77677 0.47618 0.0
C416 C 0.53187 0.70624 0.49508 0.0
C417 C 0.6022 0.77704 0.46339 0.0
C418 C 0.60667 0.74333 0.46697 0.0
C419 C 0.58348 0.67994 0.49032 0.0
C420 C 0.5536 0.64872 0.50878 0.0
C421 C 0.57333 0.70908 0.48359 0.0
C422 C 0.50975 0.64343 0.51872 0.0
C423 C 0.49879 0.67194 0.51184 0.0
H424 H 0.80466 0.60277 0.83298 0.0
H425 H 0.67888 0.4586 0.84421 0.0
H426 H 0.74602 0.44918 0.85044 0.0
H427 H 0.8427 0.48111 0.85365 0.0
H428 H 0.96767 0.62503 0.84072 0.0
H429 H 0.90077 0.63401 0.83493 0.0
C430 C 0.79137 0.56906 0.83675 0.0
C431 C 0.73463 0.53157 0.838 0.0
C432 C 0.83136 0.5634 0.84043 0.0
C433 C 0.72083 0.48868 0.84301 0.0
C434 C 0.75994 0.48308 0.84665 0.0
C435 C 0.85602 0.51465 0.84948 0.0
C436 C 0.91297 0.55238 0.84851 0.0
C437 C 0.81579 0.52008 0.84553 0.0
C438 C 0.92617 0.59488 0.84277 0.0
C439 C 0.88701 0.60028 0.83905 0.0
H440 H 0.20761 0.68566 0.18558 0.0
H441 H 0.25836 0.65226 0.12167 0.0
H442 H 0.34107 0.73242 0.12066 0.0
H443 H 0.39939 0.81164 0.13827 0.0
H444 H 0.35327 0.8429 0.20516 0.0
H445 H 0.26843 0.76451 0.20446 0.0
C446 C 0.23683 0.69616 0.17141 0.0
C447 C 0.22696 0.66339 0.15359 0.0
C448 C 0.28509 0.74201 0.17144 0.0
C449 C 0.26531 0.677 0.13557 0.0
C450 C 0.31248 0.7228 0.13498 0.0
C451 C 0.37114 0.80148 0.15284 0.0
C452 C 0.38317 0.83399 0.17156 0.0
C453 C 0.32298 0.7556 0.1529 0.0
C454 C 0.3451 0.81958 0.19005 0.0
C455 C 0.29655 0.77437 0.18986 0.0
H456 H 0.5979 0.27037 0.50429 0.0
H457 H 0.48253 0.23309 0.44778 0.0
H458 H 0.49803 0.30464 0.45666 0.0
H459 H 0.53972 0.37555 0.4827 0.0
H460 H 0.6518 0.41054 0.54018 0.0
H461 H 0.64193 0.34201 0.529 0.0
C462 C 0.57603 0.27782 0.49395 0.0
C463 C 0.53881 0.24622 0.47555 0.0
C464 C 0.58429 0.31851 0.49949 0.0
C465 C 0.51174 0.25695 0.46193 0.0
C466 C 0.52023 0.29771 0.46713 0.0
C467 C 0.5621 0.36806 0.49253 0.0
C468 C 0.59621 0.39738 0.5122 0.0
C469 C 0.5557 0.32836 0.48615 0.0
C470 C 0.62525 0.38793 0.52499 0.0
C471 C 0.61958 0.3489 0.51862 0.0
H472 H 0.41089 0.51056 0.80619 0.0
H473 H 0.48014 0.55922 0.87897 0.0
H474 H 0.4092 0.56245 0.89098 0.0
H475 H 0.32515 0.55176 0.88139 0.0
H476 H 0.25988 0.50848 0.80768 0.0
H477 H 0.32927 0.50321 0.79613 0.0
C478 C 0.4109 0.52208 0.82472 0.0
C479 C 0.45246 0.53435 0.84155 0.0
C480 C 0.36941 0.52491 0.83161 0.0
C481 C 0.44991 0.54916 0.86537 0.0
C482 C 0.4087 0.5511 0.87234 0.0
C483 C 0.32564 0.54106 0.86273 0.0
C484 C 0.28518 0.53052 0.84564 0.0
C485 C 0.36772 0.53901 0.85575 0.0
C486 C 0.28909 0.51732 0.82157 0.0
C487 C 0.3294 0.51411 0.81483 0.0
H488 H 0.88543 0.38089 0.16796 0.0
H489 H 0.97875 0.35052 0.13038 0.0
H490 H 0.90497 0.26858 0.13305 0.0
H491 H 0.81557 0.20502 0.14743 0.0
H492 H 0.7219 0.23372 0.1861 0.0
H493 H 0.79309 0.31607 0.18092 0.0
C494 C 0.88946 0.35638 0.16012 0.0
C495 C 0.93812 0.37241 0.14901 0.0
C496 C 0.84652 0.30865 0.16182 0.0
C497 C 0.9422 0.33973 0.13905 0.0
C498 C 0.89987 0.29258 0.14059 0.0
C499 C 0.81057 0.22915 0.15484 0.0
C500 C 0.7632 0.21269 0.16737 0.0
C501 C 0.85214 0.27661 0.1522 0.0
C502 C 0.75742 0.2449 0.17621 0.0
C503 C 0.79848 0.29223 0.17345 0.0
H504 H 1.00688 0.52805 0.06861 0.0
H505 H 0.12591 0.51378 0.08401 0.0
H506 H 0.14341 0.51488 0.04011 0.0
H507 H 0.12586 0.52121 -0.00313 0.0
H508 H 1.00418 0.53266 0.98192 0.0
H509 H 0.98686 0.53116 0.02565 0.0
C510 C 1.03651 0.52498 0.06238 0.0
C511 C 0.06509 0.52097 0.07977 0.0
C512 C 0.04601 0.52515 0.03696 0.0
C513 C 0.10318 0.51683 0.07118 0.0
C514 C 0.11333 0.51758 0.04599 0.0
C515 C 0.09554 0.52336 0.00318 0.0
C516 C 0.06629 0.5269 0.98585 0.0
C517 C 0.08521 0.52198 0.02863 0.0
C518 C 1.0269 0.5293 0.99458 0.0
C519 C 1.0171 0.52869 0.01971 0.0
H520 H 0.57537 0.06747 0.395 0.0
H521 H 0.54129 0.93766 0.39912 0.0
H522 H 0.53635 0.92841 0.35429 0.0
H523 H 0.54976 0.96059 0.31431 0.0
H524 H 0.5805 0.08928 0.30969 0.0
H525 H 0.57946 0.096 0.35432 0.0
C526 C 0.56597 0.0369 0.38594 0.0
C527 C 0.55855 0.00317 0.40003 0.0
C528 C 0.56348 0.03202 0.36017 0.0
C529 C 0.54678 0.96379 0.3884 0.0
C530 C 0.54425 0.95867 0.36285 0.0
C531 C 0.55498 0.98965 0.32289 0.0
C532 C 0.56576 0.02459 0.30846 0.0
C533 C 0.55361 0.99301 0.34856 0.0
C534 C 0.57337 0.06232 0.32023 0.0
C535 C 0.5724 0.06607 0.3458 0.0
H536 H 0.50767 0.47096 0.74523 0.0
H537 H 0.67295 0.58308 0.76579 0.0
H538 H 0.694 0.60337 0.72286 0.0
H539 H 0.66586 0.58763 0.67937 0.0
H540 H 0.50097 0.47402 0.65888 0.0
H541 H 0.4792 0.45616 0.70193 0.0
C542 C 0.54829 0.4999 0.74032 0.0
C543 C 0.5888 0.52533 0.75861 0.0
C544 C 0.56012 0.51105 0.71563 0.0
C545 C 0.64118 0.56282 0.752 0.0
C546 C 0.6532 0.57442 0.72748 0.0
C547 C 0.6252 0.55886 0.68433 0.0
C548 C 0.58514 0.53212 0.6659 0.0
C549 C 0.6131 0.54848 0.70911 0.0
C550 C 0.53244 0.49545 0.67268 0.0
C551 C 0.52003 0.48503 0.69729 0.0
H552 H 0.61931 0.06435 0.54655 0.0
H553 H 0.45237 0.94303 0.54705 0.0
H554 H 0.45926 0.93689 0.59095 0.0
H555 H 0.51108 0.96937 0.6299 0.0
H556 H 0.67647 0.09349 0.62981 0.0
H557 H 0.67193 0.09544 0.58532 0.0
C558 C 0.5847 0.03638 0.55628 0.0
C559 C 0.53537 0.00433 0.54371 0.0
C560 C 0.58853 0.03389 0.5817 0.0
C561 C 0.49067 0.96835 0.55648 0.0
C562 C 0.49456 0.96482 0.58156 0.0
C563 C 0.5462 0.99649 0.62005 0.0
C564 C 0.59388 0.0314 0.63311 0.0
C565 C 0.543 0.9979 0.59448 0.0
C566 C 0.63906 0.06656 0.62017 0.0
C567 C 0.63657 0.06762 0.59472 0.0
H568 H 0.66264 0.55682 0.91358 0.0
H569 H 0.51023 0.51843 0.89207 0.0
H570 H 0.47334 0.48677 0.93172 0.0
H571 H 0.48117 0.46329 0.97057 0.0
H572 H 0.62899 0.49345 0.99184 0.0
H573 H 0.67148 0.53519 0.9542 0.0
C574 C 0.62177 0.54217 0.91793 0.0
C575 C 0.58906 0.5399 0.90027 0.0
C576 C 0.60003 0.52223 0.94046 0.0
C577 C 0.53593 0.52045 0.90559 0.0
C578 C 0.51477 0.50225 0.92817 0.0
C579 C 0.52296 0.47973 0.96708 0.0
C580 C 0.55223 0.47578 0.98357 0.0
C581 C 0.54601 0.502 0.94543 0.0
C582 C 0.606 0.49624 0.97901 0.0
C583 C 0.63011 0.51998 0.95764 0.0
H584 H 1.0291 0.44073 0.23278 0.0
H585 H 0.12589 0.58708 0.22645 0.0
H586 H 0.12184 0.597 0.27089 0.0
H587 H 0.09512 0.56419 0.31197 0.0
H588 H 0.99779 0.41738 0.31754 0.0
H589 H 0.99682 0.40757 0.27313 0.0
C590 C 0.04908 0.47479 0.24111 0.0
C591 C 0.07838 0.51317 0.22637 0.0
C592 C 0.04639 0.48016 0.26662 0.0
C593 C 0.10332 0.55699 0.23739 0.0
C594 C 0.10111 0.56267 0.26282 0.0
C595 C 0.07363 0.53005 0.30346 0.0
C596 C 0.04677 0.49163 0.31826 0.0
C597 C 0.07355 0.52456 0.27771 0.0
C598 C 1.01837 0.44759 0.30677 0.0
C599 C 1.01814 0.44192 0.28129 0.0
loop_
_geom_bond_atom_site_label_1
_geom_bond_atom_site_label_2
_geom_bond_distance
_geom_bond_site_symmetry_2
_ccdc_geom_bond_type
Sm0 C2 2.846 . S
Sm0 O20 2.543 . S
Sm0 O21 2.450 . S
Sm0 O22 2.681 . S
Sm0 O23 2.464 . S
Sm0 O24 2.396 . S
Sm0 O28 2.386 . S
Sm0 O31 2.408 1_455 S
Sm1 C11 2.846 . S
Sm1 O22 2.386 1_655 S
Sm1 O25 2.408 1_655 S
Sm1 O26 2.543 . S
Sm1 O27 2.450 . S
Sm1 O28 2.681 1_655 S
Sm1 O29 2.464 . S
Sm1 O30 2.396 . S
C2 Sm0 2.846 . S
C2 C3 1.506 . S
C2 O20 1.261 . S
C2 O21 1.242 . S
C3 C2 1.506 . S
C3 C4 1.358 . S
C3 C8 1.382 . S
C4 C3 1.358 . S
C4 C5 1.385 . S
C4 H32 0.930 . S
C5 C4 1.385 . S
C5 C6 1.395 . S
C5 H33 0.929 . S
C6 C5 1.395 . S
C6 C7 1.335 . S
C7 C6 1.335 . S
C7 C8 1.398 . S
C7 H34 0.930 . S
C8 C3 1.382 . S
C8 C7 1.398 . S
C8 H35 0.929 . S
C9 O22 1.271 . S
C9 O23 1.251 . S
C10 O24 1.252 . S
C10 O25 1.272 . S
C11 Sm1 2.846 . S
C11 C12 1.506 . S
C11 O26 1.261 . S
C11 O27 1.242 . S
C12 C11 1.506 . S
C12 C13 1.358 . S
C12 C17 1.382 . S
C13 C12 1.358 . S
C13 C14 1.385 . S
C13 H36 0.930 . S
C14 C13 1.385 . S
C14 C15 1.395 . S
C14 H37 0.929 . S
C15 C14 1.395 . S
C15 C16 1.335 . S
C16 C15 1.335 . S
C16 C17 1.398 . S
C16 H38 0.930 . S
C17 C12 1.382 . S
C17 C16 1.398 . S
C17 H39 0.929 . S
C18 O28 1.271 . S
C18 O29 1.251 1_455 S
C19 O30 1.252 . S
C19 O31 1.272 . S
O20 Sm0 2.543 . S
O20 C2 1.261 . S
O21 Sm0 2.450 . S
O21 C2 1.242 . S
O22 Sm0 2.681 . S
O22 Sm1 2.386 1_455 S
O22 C9 1.271 . S
O23 Sm0 2.464 . S
O23 C9 1.251 . S
O24 Sm0 2.396 . S
O24 C10 1.252 . S
O25 Sm1 2.408 1_455 S
O25 C10 1.272 . S
O26 Sm1 2.543 . S
O26 C11 1.261 . S
O27 Sm1 2.450 . S
O27 C11 1.242 . S
O28 Sm0 2.386 . S
O28 Sm1 2.681 1_455 S
O28 C18 1.271 . S
O29 Sm1 2.464 . S
O29 C18 1.251 1_655 S
O30 Sm1 2.396 . S
O30 C19 1.252 . S
O31 Sm0 2.408 1_655 S
O31 C19 1.272 . S
H32 C4 0.930 . S
H33 C5 0.929 . S
H34 C7 0.930 . S
H35 C8 0.929 . S
H36 C13 0.930 . S
H37 C14 0.929 . S
H38 C16 0.930 . S
H39 C17 0.929 . S
Sm40 C42 2.846 . S
Sm40 O60 2.543 . S
Sm40 O61 2.450 . S
Sm40 O62 2.681 1_565 S
Sm40 O63 2.464 . S
Sm40 O64 2.396 . S
Sm40 O68 2.386 . S
Sm40 O71 2.408 1_565 S
Sm41 C51 2.846 . S
Sm41 O62 2.386 . S
Sm41 O65 2.408 1_545 S
Sm41 O66 2.543 . S
Sm41 O67 2.450 . S
Sm41 O68 2.681 1_545 S
Sm41 O69 2.464 . S
Sm41 O70 2.396 . S
C42 Sm40 2.846 . S
C42 C43 1.506 . S
C42 O60 1.261 . S
C42 O61 1.242 . S
C43 C42 1.506 . S
C43 C44 1.358 . S
C43 C48 1.382 . S
C44 C43 1.358 . S
C44 C45 1.385 . S
C44 H72 0.930 . S
C45 C44 1.385 . S
C45 C46 1.395 . S
C45 H73 0.929 . S
C46 C45 1.395 . S
C46 C47 1.335 . S
C47 C46 1.335 . S
C47 C48 1.398 . S
C47 H74 0.930 . S
C48 C43 1.382 . S
C48 C47 1.398 . S
C48 H75 0.929 . S
C49 O62 1.271 . S
C49 O63 1.251 1_545 S
C50 O64 1.252 . S
C50 O65 1.272 . S
C51 Sm41 2.846 . S
C51 C52 1.506 . S
C51 O66 1.261 . S
C51 O67 1.242 . S
C52 C51 1.506 . S
C52 C53 1.358 . S
C52 C57 1.382 . S
C53 C52 1.358 . S
C53 C54 1.385 . S
C53 H76 0.930 . S
C54 C53 1.385 . S
C54 C55 1.395 . S
C54 H77 0.929 . S
C55 C54 1.395 . S
C55 C56 1.335 . S
C56 C55 1.335 . S
C56 C57 1.398 . S
C56 H78 0.930 . S
C57 C52 1.382 . S
C57 C56 1.398 . S
C57 H79 0.929 . S
C58 O68 1.271 1_545 S
C58 O69 1.251 . S
C59 O70 1.252 . S
C59 O71 1.272 . S
O60 Sm40 2.543 . S
O60 C42 1.261 . S
O61 Sm40 2.450 . S
O61 C42 1.242 . S
O62 Sm40 2.681 1_545 S
O62 Sm41 2.386 . S
O62 C49 1.271 . S
O63 Sm40 2.464 . S
O63 C49 1.251 1_565 S
O64 Sm40 2.396 . S
O64 C50 1.252 . S
O65 Sm41 2.408 1_565 S
O65 C50 1.272 . S
O66 Sm41 2.543 . S
O66 C51 1.261 . S
O67 Sm41 2.450 . S
O67 C51 1.242 . S
O68 Sm40 2.386 . S
O68 Sm41 2.681 1_565 S
O68 C58 1.271 1_565 S
O69 Sm41 2.464 . S
O69 C58 1.251 . S
O70 Sm41 2.396 . S
O70 C59 1.252 . S
O71 Sm40 2.408 1_545 S
O71 C59 1.272 . S
H72 C44 0.930 . S
H73 C45 0.929 . S
H74 C47 0.930 . S
H75 C48 0.929 . S
H76 C53 0.930 . S
H77 C54 0.929 . S
H78 C56 0.930 . S
H79 C57 0.929 . S
Sm80 C82 2.846 . S
Sm80 O100 2.543 . S
Sm80 O101 2.450 . S
Sm80 O102 2.681 . S
Sm80 O103 2.464 . S
Sm80 O104 2.396 . S
Sm80 O108 2.386 . S
Sm80 O111 2.408 . S
Sm81 C91 2.846 . S
Sm81 O102 2.386 . S
Sm81 O105 2.408 . S
Sm81 O106 2.543 . S
Sm81 O107 2.450 . S
Sm81 O108 2.681 . S
Sm81 O109 2.464 . S
Sm81 O110 2.396 . S
C82 Sm80 2.846 . S
C82 C83 1.506 . S
C82 O100 1.261 . S
C82 O101 1.242 . S
C83 C82 1.506 . S
C83 C84 1.358 . S
C83 C88 1.382 . S
C84 C83 1.358 . S
C84 C85 1.385 . S
C84 H112 0.930 . S
C85 C84 1.385 . S
C85 C86 1.395 . S
C85 H113 0.929 . S
C86 C85 1.395 . S
C86 C87 1.335 . S
C87 C86 1.335 . S
C87 C88 1.398 . S
C87 H114 0.930 . S
C88 C83 1.382 . S
C88 C87 1.398 . S
C88 H115 0.929 . S
C89 O102 1.271 . S
C89 O103 1.251 . S
C90 O104 1.252 . S
C90 O105 1.272 . S
C91 Sm81 2.846 . S
C91 C92 1.506 . S
C91 O106 1.261 . S
C91 O107 1.242 . S
C92 C91 1.506 . S
C92 C93 1.358 . S
C92 C97 1.382 . S
C93 C92 1.358 . S
C93 C94 1.385 . S
C93 H116 0.930 . S
C94 C93 1.385 . S
C94 C95 1.395 . S
C94 H117 0.929 . S
C95 C94 1.395 . S
C95 C96 1.335 . S
C96 C95 1.335 . S
C96 C97 1.398 . S
C96 H118 0.930 . S
C97 C92 1.382 . S
C97 C96 1.398 . S
C97 H119 0.929 . S
C98 O108 1.271 . S
C98 O109 1.251 . S
C99 O110 1.252 . S
C99 O111 1.272 . S
O100 Sm80 2.543 . S
O100 C82 1.261 . S
O101 Sm80 2.450 . S
O101 C82 1.242 . S
O102 Sm80 2.681 . S
O102 Sm81 2.386 . S
O102 C89 1.271 . S
O103 Sm80 2.464 . S
O103 C89 1.251 . S
O104 Sm80 2.396 . S
O104 C90 1.252 . S
O105 Sm81 2.408 . S
O105 C90 1.272 . S
O106 Sm81 2.543 . S
O106 C91 1.261 . S
O107 Sm81 2.450 . S
O107 C91 1.242 . S
O108 Sm80 2.386 . S
O108 Sm81 2.681 . S
O108 C98 1.271 . S
O109 Sm81 2.464 . S
O109 C98 1.251 . S
O110 Sm81 2.396 . S
O110 C99 1.252 . S
O111 Sm80 2.408 . S
O111 C99 1.272 . S
H112 C84 0.930 . S
H113 C85 0.929 . S
H114 C87 0.930 . S
H115 C88 0.929 . S
H116 C93 0.930 . S
H117 C94 0.929 . S
H118 C96 0.930 . S
H119 C97 0.929 . S
P120 O131 1.512 . S
P120 C134 1.814 . S
P120 C140 1.784 1_565 S
P120 C146 1.811 1_565 S
H121 C135 0.941 . S
H122 C136 0.939 . S
H123 C138 0.940 . S
H124 C139 0.940 . S
H125 C141 0.939 . S
H126 C142 0.942 . S
H127 C144 0.940 . S
H128 C145 0.939 . S
H129 C147 0.941 . S
H130 C151 0.939 . S
O131 P120 1.512 . S
H132 C148 0.939 . S
H133 C150 0.940 . S
C134 P120 1.814 . S
C134 C135 1.389 . S
C134 C139 1.391 . S
C135 H121 0.941 . S
C135 C134 1.389 . S
C135 C136 1.397 . S
C136 H122 0.939 . S
C136 C135 1.397 . S
C136 C137 1.378 . S
C137 C136 1.378 . S
C137 C138 1.378 . S
C138 H123 0.940 . S
C138 C137 1.378 . S
C138 C139 1.396 . S
C139 H124 0.940 . S
C139 C134 1.391 . S
C139 C138 1.396 . S
C140 P120 1.784 1_545 S
C140 C141 1.378 . S
C140 C145 1.400 . S
C141 H125 0.939 . S
C141 C140 1.378 . S
C141 C142 1.361 . S
C142 H126 0.942 . S
C142 C141 1.361 . S
C142 C143 1.369 . S
C143 C142 1.369 . S
C143 C144 1.404 . S
C144 H127 0.940 . S
C144 C143 1.404 . S
C144 C145 1.389 . S
C145 H128 0.939 . S
C145 C140 1.400 . S
C145 C144 1.389 . S
C146 P120 1.811 1_545 S
C146 C147 1.391 1_545 S
C146 C151 1.391 . S
C147 H129 0.941 . S
C147 C146 1.391 1_565 S
C147 C148 1.396 . S
C148 H132 0.939 . S
C148 C147 1.396 . S
C148 C149 1.397 1_565 S
C149 C148 1.397 1_545 S
C149 C150 1.385 . S
C150 H133 0.940 . S
C150 C149 1.385 . S
C150 C151 1.388 . S
C151 H130 0.939 . S
C151 C146 1.391 . S
C151 C150 1.388 . S
P152 O163 1.490 . S
P152 C166 1.812 . S
P152 C172 1.803 . S
P152 C178 1.819 . S
H153 C167 0.941 . S
H154 C168 0.939 . S
H155 C170 0.940 . S
H156 C171 0.940 . S
H157 C173 0.939 . S
H158 C174 0.942 . S
H159 C176 0.940 . S
H160 C177 0.939 . S
H161 C179 0.941 . S
H162 C183 0.939 . S
O163 P152 1.490 . S
H164 C180 0.939 . S
H165 C182 0.940 . S
C166 P152 1.812 . S
C166 C167 1.389 . S
C166 C171 1.391 . S
C167 H153 0.941 . S
C167 C166 1.389 . S
C167 C168 1.397 . S
C168 H154 0.939 . S
C168 C167 1.397 . S
C168 C169 1.378 . S
C169 C168 1.378 . S
C169 C170 1.378 . S
C170 H155 0.940 . S
C170 C169 1.378 . S
C170 C171 1.396 . S
C171 H156 0.940 . S
C171 C166 1.391 . S
C171 C170 1.396 . S
C172 P152 1.803 . S
C172 C173 1.378 . S
C172 C177 1.400 . S
C173 H157 0.939 . S
C173 C172 1.378 . S
C173 C174 1.361 . S
C174 H158 0.942 . S
C174 C173 1.361 . S
C174 C175 1.369 . S
C175 C174 1.369 . S
C175 C176 1.404 . S
C176 H159 0.940 . S
C176 C175 1.404 . S
C176 C177 1.389 . S
C177 H160 0.939 . S
C177 C172 1.400 . S
C177 C176 1.389 . S
C178 P152 1.819 . S
C178 C179 1.391 . S
C178 C183 1.391 . S
C179 H161 0.941 . S
C179 C178 1.391 . S
C179 C180 1.396 . S
C180 H164 0.939 . S
C180 C179 1.396 . S
C180 C181 1.397 . S
C181 C180 1.397 . S
C181 C182 1.385 . S
C182 H165 0.940 . S
C182 C181 1.385 . S
C182 C183 1.388 . S
C183 H162 0.939 . S
C183 C178 1.391 . S
C183 C182 1.388 . S
P184 O195 1.490 . S
P184 C198 1.812 . S
P184 C204 1.803 . S
P184 C210 1.819 . S
H185 C199 0.941 . S
H186 C200 0.939 . S
H187 C202 0.940 . S
H188 C203 0.940 . S
H189 C205 0.939 . S
H190 C206 0.942 . S
H191 C208 0.940 . S
H192 C209 0.939 . S
H193 C211 0.941 . S
H194 C215 0.939 1_655 S
O195 P184 1.490 . S
H196 C212 0.939 . S
H197 C214 0.940 1_655 S
C198 P184 1.812 . S
C198 C199 1.389 . S
C198 C203 1.391 . S
C199 H185 0.941 . S
C199 C198 1.389 . S
C199 C200 1.397 . S
C200 H186 0.939 . S
C200 C199 1.397 . S
C200 C201 1.378 . S
C201 C200 1.378 . S
C201 C202 1.378 . S
C202 H187 0.940 . S
C202 C201 1.378 . S
C202 C203 1.396 . S
C203 H188 0.940 . S
C203 C198 1.391 . S
C203 C202 1.396 . S
C204 P184 1.803 . S
C204 C205 1.378 . S
C204 C209 1.400 . S
C205 H189 0.939 . S
C205 C204 1.378 . S
C205 C206 1.361 1_455 S
C206 H190 0.942 . S
C206 C205 1.361 1_655 S
C206 C207 1.369 . S
C207 C206 1.369 . S
C207 C208 1.404 . S
C208 H191 0.940 . S
C208 C207 1.404 . S
C208 C209 1.389 1_655 S
C209 H192 0.939 . S
C209 C204 1.400 . S
C209 C208 1.389 1_455 S
C210 P184 1.819 . S
C210 C211 1.391 . S
C210 C215 1.391 . S
C211 H193 0.941 . S
C211 C210 1.391 . S
C211 C212 1.396 . S
C212 H196 0.939 . S
C212 C211 1.396 . S
C212 C213 1.397 . S
C213 C212 1.397 . S
C213 C214 1.385 . S
C214 H197 0.940 1_455 S
C214 C213 1.385 . S
C214 C215 1.388 . S
C215 H194 0.939 1_455 S
C215 C210 1.391 . S
C215 C214 1.388 . S
P216 O227 1.490 . S
P216 C230 1.812 . S
P216 C236 1.803 1_455 S
P216 C242 1.819 . S
H217 C231 0.941 . S
H218 C232 0.939 . S
H219 C234 0.940 . S
H220 C235 0.940 . S
H221 C237 0.939 . S
H222 C238 0.942 . S
H223 C240 0.940 . S
H224 C241 0.939 . S
H225 C243 0.941 . S
H226 C247 0.939 . S
O227 P216 1.490 . S
H228 C244 0.939 . S
H229 C246 0.940 . S
C230 P216 1.812 . S
C230 C231 1.389 . S
C230 C235 1.391 . S
C231 H217 0.941 . S
C231 C230 1.389 . S
C231 C232 1.397 . S
C232 H218 0.939 . S
C232 C231 1.397 . S
C232 C233 1.378 . S
C233 C232 1.378 . S
C233 C234 1.378 . S
C234 H219 0.940 . S
C234 C233 1.378 . S
C234 C235 1.396 . S
C235 H220 0.940 . S
C235 C230 1.391 . S
C235 C234 1.396 . S
C236 P216 1.803 1_655 S
C236 C237 1.378 . S
C236 C241 1.400 . S
C237 H221 0.939 . S
C237 C236 1.378 . S
C237 C238 1.361 . S
C238 H222 0.942 . S
C238 C237 1.361 . S
C238 C239 1.369 . S
C239 C238 1.369 . S
C239 C240 1.404 . S
C240 H223 0.940 . S
C240 C239 1.404 . S
C240 C241 1.389 . S
C241 H224 0.939 . S
C241 C236 1.400 . S
C241 C240 1.389 . S
C242 P216 1.819 . S
C242 C243 1.391 . S
C242 C247 1.391 1_455 S
C243 H225 0.941 . S
C243 C242 1.391 . S
C243 C244 1.396 . S
C244 H228 0.939 . S
C244 C243 1.396 . S
C244 C245 1.397 . S
C245 C244 1.397 . S
C245 C246 1.385 1_455 S
C246 H229 0.940 . S
C246 C245 1.385 1_655 S
C246 C247 1.388 . S
C247 H226 0.939 . S
C247 C242 1.391 1_655 S
C247 C246 1.388 . S
P248 O259 1.490 . S
P248 C262 1.812 . S
P248 C268 1.803 1_545 S
P248 C274 1.819 . S
H249 C263 0.941 . S
H250 C264 0.939 . S
H251 C266 0.940 . S
H252 C267 0.940 . S
H253 C269 0.939 . S
H254 C270 0.942 . S
H255 C272 0.940 . S
H256 C273 0.939 . S
H257 C275 0.941 . S
H258 C279 0.939 . S
O259 P248 1.490 . S
H260 C276 0.939 . S
H261 C278 0.940 . S
C262 P248 1.812 . S
C262 C263 1.389 . S
C262 C267 1.391 . S
C263 H249 0.941 . S
C263 C262 1.389 . S
C263 C264 1.397 . S
C264 H250 0.939 . S
C264 C263 1.397 . S
C264 C265 1.378 . S
C265 C264 1.378 . S
C265 C266 1.378 . S
C266 H251 0.940 . S
C266 C265 1.378 . S
C266 C267 1.396 . S
C267 H252 0.940 . S
C267 C262 1.391 . S
C267 C266 1.396 . S
C268 P248 1.803 1_565 S
C268 C269 1.378 . S
C268 C273 1.400 . S
C269 H253 0.939 . S
C269 C268 1.378 . S
C269 C270 1.361 . S
C270 H254 0.942 . S
C270 C269 1.361 . S
C270 C271 1.369 . S
C271 C270 1.369 . S
C271 C272 1.404 . S
C272 H255 0.940 . S
C272 C271 1.404 . S
C272 C273 1.389 . S
C273 H256 0.939 . S
C273 C268 1.400 . S
C273 C272 1.389 . S
C274 P248 1.819 . S
C274 C275 1.391 . S
C274 C279 1.391 1_545 S
C275 H257 0.941 . S
C275 C274 1.391 . S
C275 C276 1.396 . S
C276 H260 0.939 . S
C276 C275 1.396 . S
C276 C277 1.397 . S
C277 C276 1.397 . S
C277 C278 1.385 1_545 S
C278 H261 0.940 . S
C278 C277 1.385 1_565 S
C278 C279 1.388 . S
C279 H258 0.939 . S
C279 C274 1.391 1_565 S
C279 C278 1.388 . S
P280 O291 1.490 . S
P280 C294 1.812 . S
P280 C300 1.803 . S
P280 C306 1.819 . S
H281 C295 0.941 . S
H282 C296 0.939 . S
H283 C298 0.940 . S
H284 C299 0.940 . S
H285 C301 0.939 . S
H286 C302 0.942 . S
H287 C304 0.940 . S
H288 C305 0.939 . S
H289 C307 0.941 . S
H290 C311 0.939 . S
O291 P280 1.490 . S
H292 C308 0.939 . S
H293 C310 0.940 . S
C294 P280 1.812 . S
C294 C295 1.389 . S
C294 C299 1.391 . S
C295 H281 0.941 . S
C295 C294 1.389 . S
C295 C296 1.397 . S
C296 H282 0.939 . S
C296 C295 1.397 . S
C296 C297 1.378 . S
C297 C296 1.378 . S
C297 C298 1.378 . S
C298 H283 0.940 . S
C298 C297 1.378 . S
C298 C299 1.396 . S
C299 H284 0.940 . S
C299 C294 1.391 . S
C299 C298 1.396 . S
C300 P280 1.803 . S
C300 C301 1.378 . S
C300 C305 1.400 . S
C301 H285 0.939 . S
C301 C300 1.378 . S
C301 C302 1.361 . S
C302 H286 0.942 . S
C302 C301 1.361 . S
C302 C303 1.369 . S
C303 C302 1.369 . S
C303 C304 1.404 . S
C304 H287 0.940 . S
C304 C303 1.404 . S
C304 C305 1.389 . S
C305 H288 0.939 . S
C305 C300 1.400 . S
C305 C304 1.389 . S
C306 P280 1.819 . S
C306 C307 1.391 . S
C306 C311 1.391 . S
C307 H289 0.941 . S
C307 C306 1.391 . S
C307 C308 1.396 . S
C308 H292 0.939 . S
C308 C307 1.396 . S
C308 C309 1.397 . S
C309 C308 1.397 . S
C309 C310 1.385 . S
C310 H293 0.940 . S
C310 C309 1.385 . S
C310 C311 1.388 . S
C311 H290 0.939 . S
C311 C306 1.391 . S
C311 C310 1.388 . S
H312 C318 0.930 . S
H313 C321 0.930 . S
H314 C322 0.930 . S
H315 C323 0.930 . S
H316 C326 0.930 . S
H317 C327 0.930 . S
C318 H312 0.930 . S
C318 C319 1.355 . S
C318 C320 1.415 . S
C319 C318 1.355 . S
C319 C321 1.419 . S
C320 C318 1.415 . S
C320 C325 1.425 . S
C320 C327 1.409 . S
C321 H313 0.930 . S
C321 C319 1.419 . S
C321 C322 1.362 . S
C322 H314 0.930 . S
C322 C321 1.362 . S
C322 C325 1.409 . S
C323 H315 0.930 . S
C323 C324 1.355 . S
C323 C325 1.415 . S
C324 C323 1.355 . S
C324 C326 1.419 . S
C325 C320 1.425 . S
C325 C322 1.409 . S
C325 C323 1.415 . S
C326 H316 0.930 . S
C326 C324 1.419 . S
C326 C327 1.362 . S
C327 H317 0.930 . S
C327 C320 1.409 . S
C327 C326 1.362 . S
H328 C334 0.930 . S
H329 C337 0.930 . S
H330 C338 0.930 . S
H331 C339 0.930 . S
H332 C342 0.930 . S
H333 C343 0.930 . S
C334 H328 0.930 . S
C334 C335 1.355 . S
C334 C336 1.415 . S
C335 C334 1.355 . S
C335 C337 1.419 . S
C336 C334 1.415 . S
C336 C341 1.425 . S
C336 C343 1.409 . S
C337 H329 0.930 . S
C337 C335 1.419 . S
C337 C338 1.362 . S
C338 H330 0.930 . S
C338 C337 1.362 . S
C338 C341 1.409 . S
C339 H331 0.930 . S
C339 C340 1.355 . S
C339 C341 1.415 . S
C340 C339 1.355 . S
C340 C342 1.419 . S
C341 C336 1.425 . S
C341 C338 1.409 . S
C341 C339 1.415 . S
C342 H332 0.930 . S
C342 C340 1.419 . S
C342 C343 1.362 . S
C343 H333 0.930 . S
C343 C336 1.409 . S
C343 C342 1.362 . S
H344 C350 0.930 . S
H345 C353 0.930 . S
H346 C354 0.930 . S
H347 C355 0.930 . S
H348 C358 0.930 . S
H349 C359 0.930 . S
C350 H344 0.930 . S
C350 C351 1.355 . S
C350 C352 1.415 . S
C351 C350 1.355 . S
C351 C353 1.419 . S
C352 C350 1.415 . S
C352 C357 1.425 . S
C352 C359 1.409 . S
C353 H345 0.930 . S
C353 C351 1.419 . S
C353 C354 1.362 . S
C354 H346 0.930 . S
C354 C353 1.362 . S
C354 C357 1.409 . S
C355 H347 0.930 . S
C355 C356 1.355 . S
C355 C357 1.415 . S
C356 C355 1.355 . S
C356 C358 1.419 . S
C357 C352 1.425 . S
C357 C354 1.409 . S
C357 C355 1.415 . S
C358 H348 0.930 . S
C358 C356 1.419 . S
C358 C359 1.362 . S
C359 H349 0.930 . S
C359 C352 1.409 . S
C359 C358 1.362 . S
H360 C366 0.930 . S
H361 C369 0.930 . S
H362 C370 0.930 . S
H363 C371 0.930 . S
H364 C374 0.930 . S
H365 C375 0.930 . S
C366 H360 0.930 . S
C366 C367 1.355 . S
C366 C368 1.415 . S
C367 C366 1.355 . S
C367 C369 1.419 . S
C368 C366 1.415 . S
C368 C373 1.425 . S
C368 C375 1.409 . S
C369 H361 0.930 . S
C369 C367 1.419 . S
C369 C370 1.362 . S
C370 H362 0.930 . S
C370 C369 1.362 . S
C370 C373 1.409 . S
C371 H363 0.930 . S
C371 C372 1.355 . S
C371 C373 1.415 . S
C372 C371 1.355 . S
C372 C374 1.419 . S
C373 C368 1.425 . S
C373 C370 1.409 . S
C373 C371 1.415 . S
C374 H364 0.930 . S
C374 C372 1.419 . S
C374 C375 1.362 . S
C375 H365 0.930 . S
C375 C368 1.409 . S
C375 C374 1.362 . S
H376 C382 0.930 . S
H377 C385 0.930 . S
H378 C386 0.930 . S
H379 C387 0.930 . S
H380 C390 0.930 . S
H381 C391 0.930 . S
C382 H376 0.930 . S
C382 C383 1.355 . S
C382 C384 1.415 . S
C383 C382 1.355 . S
C383 C385 1.419 . S
C384 C382 1.415 . S
C384 C389 1.425 . S
C384 C391 1.409 . S
C385 H377 0.930 . S
C385 C383 1.419 . S
C385 C386 1.362 . S
C386 H378 0.930 . S
C386 C385 1.362 . S
C386 C389 1.409 . S
C387 H379 0.930 . S
C387 C388 1.355 . S
C387 C389 1.415 . S
C388 C387 1.355 . S
C388 C390 1.419 . S
C389 C384 1.425 . S
C389 C386 1.409 . S
C389 C387 1.415 . S
C390 H380 0.930 . S
C390 C388 1.419 . S
C390 C391 1.362 . S
C391 H381 0.930 . S
C391 C384 1.409 . S
C391 C390 1.362 . S
H392 C398 0.930 . S
H393 C401 0.930 . S
H394 C402 0.930 . S
H395 C403 0.930 . S
H396 C406 0.930 . S
H397 C407 0.930 . S
C398 H392 0.930 . S
C398 C399 1.355 . S
C398 C400 1.415 . S
C399 C398 1.355 . S
C399 C401 1.419 . S
C400 C398 1.415 . S
C400 C405 1.425 . S
C400 C407 1.409 . S
C401 H393 0.930 . S
C401 C399 1.419 . S
C401 C402 1.362 . S
C402 H394 0.930 . S
C402 C401 1.362 . S
C402 C405 1.409 . S
C403 H395 0.930 . S
C403 C404 1.355 . S
C403 C405 1.415 . S
C404 C403 1.355 . S
C404 C406 1.419 . S
C405 C400 1.425 . S
C405 C402 1.409 . S
C405 C403 1.415 . S
C406 H396 0.930 . S
C406 C404 1.419 . S
C406 C407 1.362 . S
C407 H397 0.930 . S
C407 C400 1.409 . S
C407 C406 1.362 . S
H408 C414 0.930 . S
H409 C417 0.930 . S
H410 C418 0.930 . S
H411 C419 0.930 . S
H412 C422 0.930 . S
H413 C423 0.930 . S
C414 H408 0.930 . S
C414 C415 1.355 . S
C414 C416 1.415 . S
C415 C414 1.355 . S
C415 C417 1.419 . S
C416 C414 1.415 . S
C416 C421 1.425 . S
C416 C423 1.409 . S
C417 H409 0.930 . S
C417 C415 1.419 . S
C417 C418 1.362 . S
C418 H410 0.930 . S
C418 C417 1.362 . S
C418 C421 1.409 . S
C419 H411 0.930 . S
C419 C420 1.355 . S
C419 C421 1.415 . S
C420 C419 1.355 . S
C420 C422 1.419 . S
C421 C416 1.425 . S
C421 C418 1.409 . S
C421 C419 1.415 . S
C422 H412 0.930 . S
C422 C420 1.419 . S
C422 C423 1.362 . S
C423 H413 0.930 . S
C423 C416 1.409 . S
C423 C422 1.362 . S
H424 C430 0.930 . S
H425 C433 0.930 . S
H426 C434 0.930 . S
H427 C435 0.930 . S
H428 C438 0.930 . S
H429 C439 0.930 . S
C430 H424 0.930 . S
C430 C431 1.355 . S
C430 C432 1.415 . S
C431 C430 1.355 . S
C431 C433 1.419 . S
C432 C430 1.415 . S
C432 C437 1.425 . S
C432 C439 1.409 . S
C433 H425 0.930 . S
C433 C431 1.419 . S
C433 C434 1.362 . S
C434 H426 0.930 . S
C434 C433 1.362 . S
C434 C437 1.409 . S
C435 H427 0.930 . S
C435 C436 1.355 . S
C435 C437 1.415 . S
C436 C435 1.355 . S
C436 C438 1.419 . S
C437 C432 1.425 . S
C437 C434 1.409 . S
C437 C435 1.415 . S
C438 H428 0.930 . S
C438 C436 1.419 . S
C438 C439 1.362 . S
C439 H429 0.930 . S
C439 C432 1.409 . S
C439 C438 1.362 . S
H440 C446 0.930 . S
H441 C449 0.930 . S
H442 C450 0.930 . S
H443 C451 0.930 . S
H444 C454 0.930 . S
H445 C455 0.930 . S
C446 H440 0.930 . S
C446 C447 1.355 . S
C446 C448 1.415 . S
C447 C446 1.355 . S
C447 C449 1.419 . S
C448 C446 1.415 . S
C448 C453 1.425 . S
C448 C455 1.409 . S
C449 H441 0.930 . S
C449 C447 1.419 . S
C449 C450 1.362 . S
C450 H442 0.930 . S
C450 C449 1.362 . S
C450 C453 1.409 . S
C451 H443 0.930 . S
C451 C452 1.355 . S
C451 C453 1.415 . S
C452 C451 1.355 . S
C452 C454 1.419 . S
C453 C448 1.425 . S
C453 C450 1.409 . S
C453 C451 1.415 . S
C454 H444 0.930 . S
C454 C452 1.419 . S
C454 C455 1.362 . S
C455 H445 0.930 . S
C455 C448 1.409 . S
C455 C454 1.362 . S
H456 C462 0.930 . S
H457 C465 0.930 . S
H458 C466 0.930 . S
H459 C467 0.930 . S
H460 C470 0.930 . S
H461 C471 0.930 . S
C462 H456 0.930 . S
C462 C463 1.355 . S
C462 C464 1.415 . S
C463 C462 1.355 . S
C463 C465 1.419 . S
C464 C462 1.415 . S
C464 C469 1.425 . S
C464 C471 1.409 . S
C465 H457 0.930 . S
C465 C463 1.419 . S
C465 C466 1.362 . S
C466 H458 0.930 . S
C466 C465 1.362 . S
C466 C469 1.409 . S
C467 H459 0.930 . S
C467 C468 1.355 . S
C467 C469 1.415 . S
C468 C467 1.355 . S
C468 C470 1.419 . S
C469 C464 1.425 . S
C469 C466 1.409 . S
C469 C467 1.415 . S
C470 H460 0.930 . S
C470 C468 1.419 . S
C470 C471 1.362 . S
C471 H461 0.930 . S
C471 C464 1.409 . S
C471 C470 1.362 . S
H472 C478 0.930 . S
H473 C481 0.930 . S
H474 C482 0.930 . S
H475 C483 0.930 . S
H476 C486 0.930 . S
H477 C487 0.930 . S
C478 H472 0.930 . S
C478 C479 1.355 . S
C478 C480 1.415 . S
C479 C478 1.355 . S
C479 C481 1.419 . S
C480 C478 1.415 . S
C480 C485 1.425 . S
C480 C487 1.409 . S
C481 H473 0.930 . S
C481 C479 1.419 . S
C481 C482 1.362 . S
C482 H474 0.930 . S
C482 C481 1.362 . S
C482 C485 1.409 . S
C483 H475 0.930 . S
C483 C484 1.355 . S
C483 C485 1.415 . S
C484 C483 1.355 . S
C484 C486 1.419 . S
C485 C480 1.425 . S
C485 C482 1.409 . S
C485 C483 1.415 . S
C486 H476 0.930 . S
C486 C484 1.419 . S
C486 C487 1.362 . S
C487 H477 0.930 . S
C487 C480 1.409 . S
C487 C486 1.362 . S
H488 C494 0.930 . S
H489 C497 0.930 . S
H490 C498 0.930 . S
H491 C499 0.930 . S
H492 C502 0.930 . S
H493 C503 0.930 . S
C494 H488 0.930 . S
C494 C495 1.355 . S
C494 C496 1.415 . S
C495 C494 1.355 . S
C495 C497 1.419 . S
C496 C494 1.415 . S
C496 C501 1.425 . S
C496 C503 1.409 . S
C497 H489 0.930 . S
C497 C495 1.419 . S
C497 C498 1.362 . S
C498 H490 0.930 . S
C498 C497 1.362 . S
C498 C501 1.409 . S
C499 H491 0.930 . S
C499 C500 1.355 . S
C499 C501 1.415 . S
C500 C499 1.355 . S
C500 C502 1.419 . S
C501 C496 1.425 . S
C501 C498 1.409 . S
C501 C499 1.415 . S
C502 H492 0.930 . S
C502 C500 1.419 . S
C502 C503 1.362 . S
C503 H493 0.930 . S
C503 C496 1.409 . S
C503 C502 1.362 . S
H504 C510 0.930 1_655 S
H505 C513 0.930 . S
H506 C514 0.930 . S
H507 C515 0.930 . S
H508 C518 0.930 1_656 S
H509 C519 0.930 . S
C510 H504 0.930 1_455 S
C510 C511 1.355 . S
C510 C512 1.415 . S
C511 C510 1.355 . S
C511 C513 1.419 . S
C512 C510 1.415 . S
C512 C517 1.425 . S
C512 C519 1.409 1_455 S
C513 H505 0.930 . S
C513 C511 1.419 . S
C513 C514 1.362 . S
C514 H506 0.930 . S
C514 C513 1.362 . S
C514 C517 1.409 . S
C515 H507 0.930 . S
C515 C516 1.355 1_554 S
C515 C517 1.415 . S
C516 C515 1.355 1_556 S
C516 C518 1.419 1_556 S
C517 C512 1.425 . S
C517 C514 1.409 . S
C517 C515 1.415 . S
C518 H508 0.930 1_454 S
C518 C516 1.419 1_554 S
C518 C519 1.362 1_455 S
C519 H509 0.930 . S
C519 C512 1.409 1_655 S
C519 C518 1.362 1_655 S
H520 C526 0.930 . S
H521 C529 0.930 . S
H522 C530 0.930 . S
H523 C531 0.930 . S
H524 C534 0.930 . S
H525 C535 0.930 . S
C526 H520 0.930 . S
C526 C527 1.355 . S
C526 C528 1.415 . S
C527 C526 1.355 . S
C527 C529 1.419 1_545 S
C528 C526 1.415 . S
C528 C533 1.425 1_545 S
C528 C535 1.409 . S
C529 H521 0.930 . S
C529 C527 1.419 1_565 S
C529 C530 1.362 . S
C530 H522 0.930 . S
C530 C529 1.362 . S
C530 C533 1.409 . S
C531 H523 0.930 . S
C531 C532 1.355 1_565 S
C531 C533 1.415 . S
C532 C531 1.355 1_545 S
C532 C534 1.419 . S
C533 C528 1.425 1_565 S
C533 C530 1.409 . S
C533 C531 1.415 . S
C534 H524 0.930 . S
C534 C532 1.419 . S
C534 C535 1.362 . S
C535 H525 0.930 . S
C535 C528 1.409 . S
C535 C534 1.362 . S
H536 C542 0.930 . S
H537 C545 0.930 . S
H538 C546 0.930 . S
H539 C547 0.930 . S
H540 C550 0.930 . S
H541 C551 0.930 . S
C542 H536 0.930 . S
C542 C543 1.355 . S
C542 C544 1.415 . S
C543 C542 1.355 . S
C543 C545 1.419 . S
C544 C542 1.415 . S
C544 C549 1.425 . S
C544 C551 1.409 . S
C545 H537 0.930 . S
C545 C543 1.419 . S
C545 C546 1.362 . S
C546 H538 0.930 . S
C546 C545 1.362 . S
C546 C549 1.409 . S
C547 H539 0.930 . S
C547 C548 1.355 . S
C547 C549 1.415 . S
C548 C547 1.355 . S
C548 C550 1.419 . S
C549 C544 1.425 . S
C549 C546 1.409 . S
C549 C547 1.415 . S
C550 H540 0.930 . S
C550 C548 1.419 . S
C550 C551 1.362 . S
C551 H541 0.930 . S
C551 C544 1.409 . S
C551 C550 1.362 . S
H552 C558 0.930 . S
H553 C561 0.930 . S
H554 C562 0.930 . S
H555 C563 0.930 . S
H556 C566 0.930 . S
H557 C567 0.930 . S
C558 H552 0.930 . S
C558 C559 1.361 . S
C558 C560 1.415 . S
C559 C558 1.361 . S
C559 C561 1.410 1_545 S
C560 C558 1.415 . S
C560 C565 1.425 1_545 S
C560 C567 1.409 . S
C561 H553 0.930 . S
C561 C559 1.410 1_565 S
C561 C562 1.362 . S
C562 H554 0.930 . S
C562 C561 1.362 . S
C562 C565 1.409 . S
C563 H555 0.930 . S
C563 C564 1.355 1_565 S
C563 C565 1.415 . S
C564 C563 1.355 1_545 S
C564 C566 1.419 . S
C565 C560 1.425 1_565 S
C565 C562 1.409 . S
C565 C563 1.415 . S
C566 H556 0.930 . S
C566 C564 1.419 . S
C566 C567 1.362 . S
C567 H557 0.930 . S
C567 C560 1.409 . S
C567 C566 1.362 . S
H568 C574 0.930 . S
H569 C577 0.930 . S
H570 C578 0.930 . S
H571 C579 0.930 . S
H572 C582 0.930 . S
H573 C583 0.930 . S
C574 H568 0.930 . S
C574 C575 1.355 . S
C574 C576 1.415 . S
C575 C574 1.355 . S
C575 C577 1.419 . S
C576 C574 1.415 . S
C576 C581 1.425 . S
C576 C583 1.409 . S
C577 H569 0.930 . S
C577 C575 1.419 . S
C577 C578 1.362 . S
C578 H570 0.930 . S
C578 C577 1.362 . S
C578 C581 1.409 . S
C579 H571 0.930 . S
C579 C580 1.355 . S
C579 C581 1.415 . S
C580 C579 1.355 . S
C580 C582 1.419 . S
C581 C576 1.425 . S
C581 C578 1.409 . S
C581 C579 1.415 . S
C582 H572 0.930 . S
C582 C580 1.419 . S
C582 C583 1.362 . S
C583 H573 0.930 . S
C583 C576 1.409 . S
C583 C582 1.362 . S
H584 C590 0.930 . S
H585 C593 0.930 . S
H586 C594 0.930 . S
H587 C595 0.930 . S
H588 C598 0.930 . S
H589 C599 0.930 . S
C590 H584 0.930 . S
C590 C591 1.355 1_655 S
C590 C592 1.415 . S
C591 C590 1.355 1_455 S
C591 C593 1.419 . S
C592 C590 1.415 . S
C592 C597 1.425 1_655 S
C592 C599 1.409 . S
C593 H585 0.930 . S
C593 C591 1.419 . S
C593 C594 1.362 . S
C594 H586 0.930 . S
C594 C593 1.362 . S
C594 C597 1.409 . S
C595 H587 0.930 . S
C595 C596 1.355 . S
C595 C597 1.415 . S
C596 C595 1.355 . S
C596 C598 1.419 1_455 S
C597 C592 1.425 1_455 S
C597 C594 1.409 . S
C597 C595 1.415 . S
C598 H588 0.930 . S
C598 C596 1.419 1_655 S
C598 C599 1.362 . S
C599 H589 0.930 . S
C599 C592 1.409 . S
C599 C598 1.362 . S
C319 C6 0.812 . S
C324 C303 0.712 . S
C335 C59 1.926 . S
C340 C239 1.894 . S
C351 C86 1.293 . S
C356 C271 1.314 . S
C367 C15 0.678 . S
C372 C297 0.560 . S
C388 C233 1.934 . S
C383 C50 1.997 . S
C404 C265 1.318 . S
C399 C95 1.337 . S
C415 C46 1.244 . S
C420 C175 1.289 . S
C431 C99 3.072 . S
C436 C207 2.984 . S
C447 C10 2.019 . S
C452 C137 1.933 . S
C468 C169 1.286 . S
C463 C55 1.300 . S
C484 C201 3.006 . S
C479 C90 3.014 . S
C495 C19 1.908 . S
C500 C143 1.901 . S
C516 C213 1.727 . S
C511 C18 1.742 . S
C527 C49 1.312 . S
C532 C149 1.355 . S
C543 C98 1.476 . S
C548 C181 1.501 . S
C564 C277 1.421 . S
C559 C58 1.451 . S
C580 C309 1.089 1_556 S
C575 C89 1.074 . S
C591 C9 1.350 . S
C596 C245 1.299 . S
