# Generated by pormake.
# Topology ssa, (4,4)-cn, num edge types: 1
# Building blocks:
#     Node 0, Type 0, BuildingBlock: NAWXER_clean_sbu_0, # of connection points: 4
#     Node 1, Type 0, BuildingBlock: NAWXER_clean_sbu_0, # of connection points: 4
#     Node 2, Type 0, BuildingBlock: NAWXER_clean_sbu_0, # of connection points: 4
#     Node 3, Type 0, BuildingBlock: NAWXER_clean_sbu_0, # of connection points: 4
#     Node 4, Type 0, BuildingBlock: NAWXER_clean_sbu_0, # of connection points: 4
#     Node 5, Type 0, BuildingBlock: NAWXER_clean_sbu_0, # of connection points: 4
#     Node 6, Type 1, BuildingBlock: MIFKUJ_clean_linker_1, # of connection points: 4
#     Node 7, Type 1, BuildingBlock: MIFKUJ_clean_linker_1, # of connection points: 4
#     Node 8, Type 1, BuildingBlock: MIFKUJ_clean_linker_1, # of connection points: 4
#     Node 9, Type 1, BuildingBlock: MIFKUJ_clean_linker_1, # of connection points: 4
#     Node 10, Type 1, BuildingBlock: MIFKUJ_clean_linker_1, # of connection points: 4
#     Node 11, Type 1, BuildingBlock: MIFKUJ_clean_linker_1, # of connection points: 4
#     Edge 12, Type (0, 1), BuildingBlock: ZUJKAS_clean_linker_0, # of connection points: 2
#     Edge 13, Type (0, 1), BuildingBlock: ZUJKAS_clean_linker_0, # of connection points: 2
#     Edge 14, Type (0, 1), BuildingBlock: ZUJKAS_clean_linker_0, # of connection points: 2
#     Edge 15, Type (0, 1), BuildingBlock: ZUJKAS_clean_linker_0, # of connection points: 2
#     Edge 16, Type (0, 1), BuildingBlock: ZUJKAS_clean_linker_0, # of connection points: 2
#     Edge 17, Type (0, 1), BuildingBlock: ZUJKAS_clean_linker_0, # of connection points: 2
#     Edge 18, Type (0, 1), BuildingBlock: ZUJKAS_clean_linker_0, # of connection points: 2
#     Edge 19, Type (0, 1), BuildingBlock: ZUJKAS_clean_linker_0, # of connection points: 2
#     Edge 20, Type (0, 1), BuildingBlock: ZUJKAS_clean_linker_0, # of connection points: 2
#     Edge 21, Type (0, 1), BuildingBlock: ZUJKAS_clean_linker_0, # of connection points: 2
#     Edge 22, Type (0, 1), BuildingBlock: ZUJKAS_clean_linker_0, # of connection points: 2
#     Edge 23, Type (0, 1), BuildingBlock: ZUJKAS_clean_linker_0, # of connection points: 2
#     Edge 24, Type (0, 1), BuildingBlock: ZUJKAS_clean_linker_0, # of connection points: 2
#     Edge 25, Type (0, 1), BuildingBlock: ZUJKAS_clean_linker_0, # of connection points: 2
#     Edge 26, Type (0, 1), BuildingBlock: ZUJKAS_clean_linker_0, # of connection points: 2
#     Edge 27, Type (0, 1), BuildingBlock: ZUJKAS_clean_linker_0, # of connection points: 2
#     Edge 28, Type (0, 1), BuildingBlock: ZUJKAS_clean_linker_0, # of connection points: 2
#     Edge 29, Type (0, 1), BuildingBlock: ZUJKAS_clean_linker_0, # of connection points: 2
#     Edge 30, Type (0, 1), BuildingBlock: ZUJKAS_clean_linker_0, # of connection points: 2
#     Edge 31, Type (0, 1), BuildingBlock: ZUJKAS_clean_linker_0, # of connection points: 2
#     Edge 32, Type (0, 1), BuildingBlock: ZUJKAS_clean_linker_0, # of connection points: 2
#     Edge 33, Type (0, 1), BuildingBlock: ZUJKAS_clean_linker_0, # of connection points: 2
#     Edge 34, Type (0, 1), BuildingBlock: ZUJKAS_clean_linker_0, # of connection points: 2
#     Edge 35, Type (0, 1), BuildingBlock: ZUJKAS_clean_linker_0, # of connection points: 2
# Relax obj value: 0.011
# Max RMSD: 0.026
# Mean RMSD: 0.026
data_MOF--net-ssa--node1-NAWXER_clean_sbu_0--node2-MIFKUJ_clean_linker_1--edge1-ZUJKAS_clean_linker_0
_symmetry_space_group_name_H-M    P1
_symmetry_Int_Tables_number       1
_symmetry_cell_setting            triclinic
loop_
_symmetry_equiv_pos_as_xyz
'x, y, z'
_cell_length_a     74.031811
_cell_length_b     74.052352
_cell_length_c     46.85621
_cell_angle_alpha  90.026357
_cell_angle_beta   89.990396
_cell_angle_gamma 120.00912
loop_
_atom_site_label
_atom_site_type_symbol
_atom_site_fract_x
_atom_site_fract_y
_atom_site_fract_z
_atom_type_partial_charge
C0 C 0.02746 0.53119 0.0019 0.0
C1 C 0.98572 0.46371 0.95537 0.0
O2 O 0.01114 0.5187 0.01616 0.0
Zn3 Zn 0.98537 0.48744 0.01278 0.0
O4 O 0.03125 0.52521 0.97835 0.0
Zn5 Zn 0.00701 0.49752 0.9784 0.0
O6 O 0.98181 0.50383 0.97376 0.0
O7 O 0.96175 0.4918 0.01191 0.0
O8 O 0.00264 0.47916 0.94657 0.0
O9 O 0.97804 0.46496 0.97935 0.0
O10 O 0.98934 0.47418 0.04582 0.0
O11 O 0.01378 0.48295 0.01312 0.0
C12 C 0.9657 0.50092 0.98784 0.0
C13 C 0.00602 0.4749 0.03748 0.0
C14 C 0.48663 0.03433 0.50888 0.0
C15 C 0.51398 0.99538 0.45841 0.0
O16 O 0.4824 0.01727 0.52141 0.0
Zn17 Zn 0.48756 0.99159 0.51502 0.0
O18 O 0.49661 0.03912 0.48545 0.0
Zn19 Zn 0.5001 0.01495 0.48269 0.0
O20 O 0.46914 0.98975 0.4747 0.0
O21 O 0.45968 0.96799 0.51107 0.0
O22 O 0.51548 0.01258 0.45086 0.0
O23 O 0.50412 0.98642 0.48136 0.0
O24 O 0.50403 0.99345 0.54818 0.0
O25 O 0.52056 0.01941 0.51778 0.0
C26 C 0.45554 0.97288 0.48693 0.0
C27 C 0.52035 0.0103 0.54116 0.0
C28 C 0.49434 0.47517 0.99564 0.0
C29 C 0.52336 0.54174 0.04541 0.0
O30 O 0.4918 0.48873 0.98193 0.0
Zn31 Zn 0.49941 0.52066 0.9869 0.0
O32 O 0.50379 0.48001 0.0195 0.0
Zn33 Zn 0.50898 0.50826 0.0208 0.0
O34 O 0.47805 0.50362 0.02463 0.0
O35 O 0.47218 0.51828 0.98751 0.0
O36 O 0.52298 0.52523 0.05376 0.0
O37 O 0.51532 0.5419 0.02124 0.0
O38 O 0.51756 0.53399 0.95467 0.0
O39 O 0.53121 0.52256 0.98684 0.0
C40 C 0.4659 0.50813 0.01072 0.0
C41 C 0.53258 0.5316 0.96292 0.0
C42 C 0.00513 0.52766 0.4606 0.0
C43 C 0.96516 0.46182 0.51149 0.0
O44 O 0.01385 0.52705 0.48396 0.0
Zn45 Zn 0.00786 0.50572 0.51843 0.0
O46 O 0.98775 0.51208 0.45343 0.0
Zn47 Zn 0.9848 0.49461 0.48577 0.0
O48 O 0.97952 0.51019 0.52063 0.0
O49 O 0.00548 0.52031 0.55121 0.0
O50 O 0.96069 0.46698 0.48778 0.0
O51 O 0.98199 0.47472 0.52452 0.0
O52 O 0.03137 0.50119 0.51592 0.0
O53 O 0.00966 0.48804 0.47954 0.0
C54 C 0.98836 0.51916 0.54412 0.0
C55 C 0.02634 0.49134 0.49237 0.0
C56 C 0.52209 0.99009 0.04151 0.0
C57 C 0.49539 0.02896 0.98949 0.0
O58 O 0.52387 0.00751 0.0485 0.0
Zn59 Zn 0.50877 0.00981 0.01635 0.0
O60 O 0.51229 0.98096 0.01858 0.0
Zn61 Zn 0.4961 0.98606 0.98434 0.0
O62 O 0.51264 0.98788 0.95114 0.0
O63 O 0.52919 0.01379 0.98169 0.0
O64 O 0.49098 0.01168 0.97748 0.0
O65 O 0.50561 0.03414 0.01275 0.0
O66 O 0.47763 0.98501 0.02413 0.0
O67 O 0.46811 0.96265 0.98839 0.0
C68 C 0.52899 0.00465 0.95837 0.0
C69 C 0.46395 0.96805 0.01216 0.0
C70 C 0.53583 0.50887 0.51091 0.0
C71 C 0.47061 0.48172 0.45803 0.0
O72 O 0.52239 0.51217 0.52356 0.0
Zn73 Zn 0.49104 0.50572 0.51688 0.0
O74 O 0.53117 0.49912 0.48729 0.0
Zn75 Zn 0.50325 0.49483 0.4843 0.0
O76 O 0.50876 0.52602 0.47873 0.0
O77 O 0.49456 0.53334 0.5151 0.0
O78 O 0.48665 0.48067 0.45107 0.0
O79 O 0.4705 0.49044 0.48164 0.0
O80 O 0.47626 0.48805 0.54892 0.0
O81 O 0.48734 0.47313 0.51823 0.0
C82 C 0.50468 0.5388 0.49177 0.0
C83 C 0.47786 0.4724 0.54149 0.0
H84 H 0.17031 0.40849 0.20433 0.0
H85 H 0.14086 0.40947 0.18221 0.0
H86 H 0.15859 0.46751 0.22557 0.0
H87 H 0.18803 0.46649 0.24749 0.0
H88 H 0.21216 0.43732 0.19881 0.0
H89 H 0.16067 0.4119 0.27669 0.0
H90 H 0.13734 0.41664 0.30891 0.0
H91 H 0.19027 0.47174 0.34388 0.0
H92 H 0.21326 0.46749 0.3108 0.0
H93 H 0.26275 0.46738 0.30021 0.0
H94 H 0.29409 0.46974 0.32085 0.0
H95 H 0.28377 0.41593 0.27185 0.0
H96 H 0.2524 0.41376 0.25101 0.0
H97 H 0.22349 0.4388 0.30331 0.0
H98 H 0.27181 0.47291 0.23037 0.0
H99 H 0.29969 0.48063 0.19643 0.0
H100 H 0.25996 0.42242 0.15296 0.0
H101 H 0.23189 0.41494 0.18699 0.0
C102 C 0.18121 0.43727 0.22781 0.0
C103 C 0.16778 0.42138 0.20913 0.0
C104 C 0.151 0.42198 0.19648 0.0
C105 C 0.14736 0.43853 0.20223 0.0
C106 C 0.16077 0.45437 0.2211 0.0
C107 C 0.17762 0.45382 0.23361 0.0
C108 C 0.19942 0.43692 0.24033 0.0
C109 C 0.21439 0.43714 0.22167 0.0
C110 C 0.20292 0.4379 0.27016 0.0
C111 C 0.18869 0.43951 0.29102 0.0
C112 C 0.16721 0.42503 0.29124 0.0
C113 C 0.15392 0.42765 0.30988 0.0
C114 C 0.16191 0.44469 0.32882 0.0
C115 C 0.18353 0.45869 0.3292 0.0
C116 C 0.19674 0.45615 0.31049 0.0
C117 C 0.25522 0.4404 0.27408 0.0
C118 C 0.26716 0.45602 0.294 0.0
C119 C 0.28506 0.45732 0.30583 0.0
C120 C 0.29135 0.44293 0.29814 0.0
C121 C 0.27945 0.42736 0.27801 0.0
C122 C 0.26151 0.42608 0.26614 0.0
C123 C 0.23613 0.43911 0.26181 0.0
C124 C 0.22101 0.43852 0.28046 0.0
C125 C 0.23301 0.43896 0.23202 0.0
C126 C 0.2499 0.44319 0.21147 0.0
C127 C 0.26917 0.4617 0.21372 0.0
C128 C 0.28512 0.46607 0.1943 0.0
C129 C 0.28214 0.45206 0.17209 0.0
C130 C 0.26271 0.43361 0.16967 0.0
C131 C 0.2467 0.42926 0.18915 0.0
H132 H 0.7392 0.19698 0.79709 0.0
H133 H 0.70832 0.16907 0.82077 0.0
H134 H 0.72206 0.12345 0.78525 0.0
H135 H 0.7529 0.15145 0.76145 0.0
H136 H 0.78293 0.21031 0.79565 0.0
H137 H 0.72352 0.18527 0.73494 0.0
H138 H 0.69149 0.15703 0.71452 0.0
H139 H 0.72731 0.13384 0.67102 0.0
H140 H 0.75939 0.16195 0.69239 0.0
H141 H 0.81734 0.22478 0.68002 0.0
H142 H 0.83982 0.25388 0.64853 0.0
H143 H 0.8267 0.29492 0.69873 0.0
H144 H 0.80402 0.2658 0.72976 0.0
H145 H 0.77646 0.20756 0.69005 0.0
H146 H 0.83908 0.2434 0.74845 0.0
H147 H 0.8671 0.27395 0.77259 0.0
H148 H 0.82114 0.28026 0.82171 0.0
H149 H 0.79335 0.2498 0.79771 0.0
C150 C 0.74826 0.17624 0.77755 0.0
C151 C 0.7358 0.18102 0.79493 0.0
C152 C 0.71809 0.16508 0.80815 0.0
C153 C 0.71275 0.14414 0.80455 0.0
C154 C 0.72588 0.13947 0.7884 0.0
C155 C 0.74346 0.15541 0.77486 0.0
C156 C 0.76466 0.19269 0.75958 0.0
C157 C 0.78167 0.20976 0.77256 0.0
C158 C 0.76282 0.19191 0.72955 0.0
C159 C 0.74376 0.17556 0.71534 0.0
C160 C 0.72446 0.17409 0.72101 0.0
C161 C 0.70619 0.15802 0.70917 0.0
C162 C 0.70685 0.14317 0.69116 0.0
C163 C 0.72628 0.14488 0.68511 0.0
C164 C 0.74461 0.16102 0.69703 0.0
C165 C 0.8093 0.24317 0.70756 0.0
C166 C 0.81935 0.24006 0.68425 0.0
C167 C 0.83212 0.25666 0.66625 0.0
C168 C 0.83508 0.27668 0.67129 0.0
C169 C 0.82498 0.27975 0.69462 0.0
C170 C 0.81207 0.26312 0.71241 0.0
C171 C 0.7951 0.22539 0.726 0.0
C172 C 0.77828 0.20798 0.71306 0.0
C173 C 0.79691 0.22623 0.75617 0.0
C174 C 0.8141 0.24434 0.77121 0.0
C175 C 0.83508 0.25141 0.76441 0.0
C176 C 0.85107 0.26889 0.77816 0.0
C177 C 0.84636 0.27952 0.79913 0.0
C178 C 0.82534 0.27225 0.80603 0.0
C179 C 0.80941 0.25484 0.79227 0.0
H180 H 0.60289 0.8414 0.31602 0.0
H181 H 0.59874 0.86944 0.33721 0.0
H182 H 0.54201 0.84863 0.28883 0.0
H183 H 0.546 0.82051 0.26837 0.0
H184 H 0.57464 0.79702 0.31696 0.0
H185 H 0.60642 0.85336 0.2487 0.0
H186 H 0.60414 0.88064 0.22243 0.0
H187 H 0.55146 0.83342 0.17517 0.0
H188 H 0.55315 0.80631 0.20258 0.0
H189 H 0.54664 0.75198 0.21409 0.0
H190 H 0.5424 0.72024 0.19164 0.0
H191 H 0.59747 0.72862 0.2352 0.0
H192 H 0.60157 0.76039 0.2579 0.0
H193 H 0.57933 0.79281 0.2117 0.0
H194 H 0.54124 0.73961 0.27962 0.0
H195 H 0.53289 0.71008 0.31083 0.0
H196 H 0.58944 0.74805 0.35868 0.0
H197 H 0.59803 0.77745 0.32666 0.0
C198 C 0.57484 0.82902 0.29051 0.0
C199 C 0.58952 0.84286 0.31018 0.0
C200 C 0.58723 0.85895 0.32203 0.0
C201 C 0.57008 0.86127 0.31461 0.0
C202 C 0.55528 0.84716 0.29518 0.0
C203 C 0.5576 0.83116 0.28334 0.0
C204 C 0.57753 0.81246 0.27691 0.0
C205 C 0.57629 0.79636 0.29403 0.0
C206 C 0.57895 0.81135 0.2469 0.0
C207 C 0.57973 0.8278 0.22796 0.0
C208 C 0.59444 0.84891 0.23259 0.0
C209 C 0.59321 0.86449 0.21738 0.0
C210 C 0.57742 0.85924 0.19695 0.0
C211 C 0.5635 0.83803 0.19122 0.0
C212 C 0.56462 0.82248 0.2066 0.0
C213 C 0.5744 0.7585 0.23763 0.0
C214 C 0.55785 0.74703 0.21872 0.0
C215 C 0.55534 0.72884 0.20611 0.0
C216 C 0.56955 0.72196 0.21184 0.0
C217 C 0.58635 0.73364 0.23041 0.0
C218 C 0.58867 0.75171 0.24339 0.0
C219 C 0.57632 0.77727 0.25176 0.0
C220 C 0.57842 0.79379 0.23471 0.0
C221 C 0.57516 0.77854 0.28178 0.0
C222 C 0.57044 0.76061 0.30054 0.0
C223 C 0.55199 0.7415 0.29658 0.0
C224 C 0.5471 0.72471 0.31468 0.0
C225 C 0.56047 0.72674 0.33729 0.0
C226 C 0.57894 0.74594 0.34127 0.0
C227 C 0.58382 0.76276 0.32312 0.0
H228 H 0.74773 0.53628 0.69412 0.0
H229 H 0.72005 0.531 0.6612 0.0
H230 H 0.72187 0.58647 0.69395 0.0
H231 H 0.75041 0.59226 0.72592 0.0
H232 H 0.78658 0.56539 0.70021 0.0
H233 H 0.72469 0.53742 0.75933 0.0
H234 H 0.69404 0.53615 0.7809 0.0
H235 H 0.73323 0.59755 0.81668 0.0
H236 H 0.76389 0.59846 0.79545 0.0
H237 H 0.82028 0.59201 0.81562 0.0
H238 H 0.84068 0.58486 0.85048 0.0
H239 H 0.82251 0.52629 0.80836 0.0
H240 H 0.8019 0.53326 0.77424 0.0
H241 H 0.77807 0.56942 0.80462 0.0
H242 H 0.84135 0.59172 0.75125 0.0
H243 H 0.87025 0.58919 0.73002 0.0
H244 H 0.82602 0.53438 0.68335 0.0
H245 H 0.79734 0.53709 0.70437 0.0
C246 C 0.75103 0.56455 0.71272 0.0
C247 C 0.74237 0.54747 0.69398 0.0
C248 C 0.72636 0.54434 0.67536 0.0
C249 C 0.71855 0.55817 0.67514 0.0
C250 C 0.7276 0.57559 0.69343 0.0
C251 C 0.74376 0.5788 0.71195 0.0
C252 C 0.76727 0.56691 0.73339 0.0
C253 C 0.78471 0.56624 0.72305 0.0
C254 C 0.76515 0.56862 0.76314 0.0
C255 C 0.74651 0.56811 0.77562 0.0
C256 C 0.72663 0.55066 0.77164 0.0
C257 C 0.70911 0.55002 0.78388 0.0
C258 C 0.71114 0.56679 0.80046 0.0
C259 C 0.73113 0.58427 0.80433 0.0
C260 C 0.74865 0.58486 0.79214 0.0
C261 C 0.80982 0.5633 0.79214 0.0
C262 C 0.82074 0.57765 0.81397 0.0
C263 C 0.83243 0.57359 0.83376 0.0
C264 C 0.83314 0.55498 0.83221 0.0
C265 C 0.82208 0.54063 0.81037 0.0
C266 C 0.81049 0.54472 0.79063 0.0
C267 C 0.79696 0.5671 0.77143 0.0
C268 C 0.78023 0.56906 0.78176 0.0
C269 C 0.79953 0.56621 0.74165 0.0
C270 C 0.81717 0.56462 0.72935 0.0
C271 C 0.83791 0.5791 0.73656 0.0
C272 C 0.8544 0.57761 0.72447 0.0
C273 C 0.85044 0.56167 0.70483 0.0
C274 C 0.82964 0.54709 0.69794 0.0
C275 C 0.81321 0.54859 0.71 0.0
H276 H 0.23329 0.82074 0.1913 0.0
H277 H 0.26373 0.84476 0.16314 0.0
H278 H 0.30165 0.82604 0.21077 0.0
H279 H 0.271 0.80154 0.23814 0.0
H280 H 0.21677 0.77897 0.19132 0.0
H281 H 0.24629 0.8337 0.26356 0.0
H282 H 0.27375 0.85826 0.29561 0.0
H283 H 0.27668 0.80701 0.33499 0.0
H284 H 0.24918 0.78263 0.30319 0.0
H285 H 0.19703 0.73379 0.29796 0.0
H286 H 0.16784 0.70387 0.32077 0.0
H287 H 0.12475 0.71273 0.26854 0.0
H288 H 0.15408 0.74339 0.24682 0.0
H289 H 0.20994 0.77298 0.29663 0.0
H290 H 0.18903 0.72022 0.22671 0.0
H291 H 0.16703 0.69248 0.19347 0.0
H292 H 0.15287 0.73496 0.14878 0.0
H293 H 0.17518 0.76279 0.18205 0.0
C294 C 0.2499 0.80949 0.217 0.0
C295 C 0.24823 0.822 0.19587 0.0
C296 C 0.26566 0.8358 0.17989 0.0
C297 C 0.2851 0.83725 0.18464 0.0
C298 C 0.28685 0.8251 0.20635 0.0
C299 C 0.2694 0.81128 0.22229 0.0
C300 C 0.23092 0.79315 0.23146 0.0
C301 C 0.21502 0.77796 0.21435 0.0
C302 C 0.22918 0.79124 0.26152 0.0
C303 C 0.24573 0.80633 0.28089 0.0
C304 C 0.25292 0.82779 0.27904 0.0
C305 C 0.26864 0.84181 0.29735 0.0
C306 C 0.27739 0.8346 0.31793 0.0
C307 C 0.27005 0.81307 0.31976 0.0
C308 C 0.25437 0.79911 0.3015 0.0
C309 C 0.17781 0.74078 0.27049 0.0
C310 C 0.1813 0.72943 0.29159 0.0
C311 C 0.16457 0.71214 0.30438 0.0
C312 C 0.14392 0.70572 0.29628 0.0
C313 C 0.14042 0.71729 0.27542 0.0
C314 C 0.1572 0.73471 0.26276 0.0
C315 C 0.19579 0.75879 0.25646 0.0
C316 C 0.21147 0.77425 0.27359 0.0
C317 C 0.1978 0.76054 0.22641 0.0
C318 C 0.18351 0.74349 0.20708 0.0
C319 C 0.18095 0.72348 0.21 0.0
C320 C 0.16835 0.70763 0.19098 0.0
C321 C 0.15813 0.71148 0.1685 0.0
C322 C 0.1607 0.73155 0.16566 0.0
C323 C 0.17333 0.74742 0.18473 0.0
H324 H 0.47661 0.26712 0.81657 0.0
H325 H 0.48025 0.29498 0.84796 0.0
H326 H 0.42231 0.28769 0.81551 0.0
H327 H 0.41824 0.25903 0.78507 0.0
H328 H 0.44976 0.22785 0.8137 0.0
H329 H 0.47288 0.28551 0.75085 0.0
H330 H 0.47297 0.315 0.72748 0.0
H331 H 0.41246 0.27327 0.69107 0.0
H332 H 0.41221 0.24381 0.71531 0.0
H333 H 0.417 0.18797 0.70343 0.0
H334 H 0.42121 0.16562 0.66878 0.0
H335 H 0.48133 0.18291 0.70535 0.0
H336 H 0.47743 0.20586 0.73897 0.0
H337 H 0.44005 0.22932 0.70921 0.0
H338 H 0.4238 0.17006 0.77149 0.0
H339 H 0.4296 0.1446 0.79728 0.0
H340 H 0.48571 0.19498 0.83438 0.0
H341 H 0.48024 0.22013 0.80792 0.0
C342 C 0.44723 0.26108 0.79828 0.0
C343 C 0.46456 0.27136 0.81641 0.0
C344 C 0.46674 0.28746 0.83414 0.0
C345 C 0.45167 0.29371 0.83408 0.0
C346 C 0.43412 0.28316 0.81624 0.0
C347 C 0.43188 0.26693 0.7986 0.0
C348 C 0.44551 0.24436 0.77903 0.0
C349 C 0.44774 0.22821 0.79081 0.0
C350 C 0.44256 0.24468 0.74924 0.0
C351 C 0.44242 0.26251 0.73509 0.0
C352 C 0.45952 0.28274 0.7381 0.0
C353 C 0.45964 0.29955 0.72451 0.0
C354 C 0.44273 0.29647 0.70738 0.0
C355 C 0.4256 0.27618 0.7044 0.0
C356 C 0.4255 0.25933 0.71803 0.0
C357 C 0.44676 0.19837 0.72408 0.0
C358 C 0.43106 0.18688 0.704 0.0
C359 C 0.43343 0.17401 0.68431 0.0
C360 C 0.45162 0.17247 0.68425 0.0
C361 C 0.46725 0.18392 0.70453 0.0
C362 C 0.4649 0.19683 0.72409 0.0
C363 C 0.44479 0.21296 0.74385 0.0
C364 C 0.44171 0.22869 0.73214 0.0
C365 C 0.4478 0.21272 0.77365 0.0
C366 C 0.45161 0.19699 0.78773 0.0
C367 C 0.4375 0.17555 0.78485 0.0
C368 C 0.44073 0.16104 0.79981 0.0
C369 C 0.45811 0.16776 0.81792 0.0
C370 C 0.47233 0.18923 0.82033 0.0
C371 C 0.46912 0.20366 0.80541 0.0
H372 H 0.03809 0.4688 0.02251 0.0
H373 H 0.05894 0.45995 0.05355 0.0
H374 H 0.02107 0.45648 0.12562 0.0
H375 H 0.99975 0.46496 0.09446 0.0
H376 H 0.08209 0.48348 0.0987 0.0
H377 H 0.02441 0.40342 0.13468 0.0
H378 H 0.01972 0.41575 0.10459 0.0
H379 H 0.01681 0.4227 0.14035 0.0
C380 C 0.03398 0.46589 0.04489 0.0
C381 C 0.01727 0.46762 0.05603 0.0
C382 C 0.04593 0.46084 0.06261 0.0
C383 C 0.04149 0.45742 0.09185 0.0
C384 C 0.02454 0.45867 0.10302 0.0
H385 H 0.1199 0.44915 0.22528 0.0
H386 H 0.09308 0.45327 0.20011 0.0
C387 C 0.01243 0.4636 0.08521 0.0
C388 C 0.05561 0.45401 0.11066 0.0
H389 H 0.05805 0.41898 0.15569 0.0
C390 C 0.0768 0.46939 0.11118 0.0
C391 C 0.04865 0.43563 0.12701 0.0
C392 C 0.0262 0.41832 0.12655 0.0
C393 C 0.09127 0.46678 0.12732 0.0
C394 C 0.08438 0.44834 0.1433 0.0
C395 C 0.06317 0.43311 0.14337 0.0
C396 C 0.09935 0.44439 0.15895 0.0
C397 C 0.11392 0.48364 0.12703 0.0
C398 C 0.11148 0.43785 0.14404 0.0
C399 C 0.12677 0.43552 0.15825 0.0
C400 C 0.13023 0.43978 0.18763 0.0
C401 C 0.11772 0.44595 0.2026 0.0
C402 C 0.10234 0.44817 0.18835 0.0
H403 H 0.11635 0.49807 0.11632 0.0
H404 H 0.12001 0.48753 0.14918 0.0
H405 H 0.12318 0.47787 0.11559 0.0
H406 H 0.10939 0.43495 0.12128 0.0
H407 H 0.1363 0.43099 0.14606 0.0
H408 H 0.55802 0.04423 0.52921 0.0
H409 H 0.58892 0.06071 0.55923 0.0
H410 H 0.55677 0.01457 0.62459 0.0
H411 H 0.52537 0.99786 0.59453 0.0
H412 H 0.57723 0.05565 0.64489 0.0
H413 H 0.63043 0.04136 0.5782 0.0
H414 H 0.61782 0.05246 0.55793 0.0
H415 H 0.60245 0.02702 0.57364 0.0
C416 C 0.55745 0.03741 0.54986 0.0
C417 C 0.53919 0.01968 0.55945 0.0
C418 C 0.57524 0.04679 0.56692 0.0
C419 C 0.57527 0.03863 0.59388 0.0
C420 C 0.5571 0.02095 0.60368 0.0
H421 H 0.6952 0.10187 0.68545 0.0
H422 H 0.66259 0.07379 0.66535 0.0
C423 C 0.53921 0.01145 0.5865 0.0
C424 C 0.594 0.0496 0.61221 0.0
H425 H 0.64682 0.07036 0.61104 0.0
C426 C 0.5924 0.05854 0.63781 0.0
C427 C 0.61373 0.05308 0.60321 0.0
C428 C 0.6162 0.04278 0.57688 0.0
C429 C 0.61023 0.07204 0.65361 0.0
C430 C 0.63013 0.07694 0.64324 0.0
C431 C 0.63158 0.06685 0.61873 0.0
C432 C 0.64962 0.09365 0.65619 0.0
C433 C 0.60763 0.08127 0.68095 0.0
C434 C 0.65327 0.11414 0.65714 0.0
C435 C 0.67186 0.13017 0.66838 0.0
C436 C 0.68728 0.12607 0.67875 0.0
C437 C 0.68371 0.10556 0.67742 0.0
C438 C 0.66505 0.08949 0.66615 0.0
H439 H 0.59201 0.07113 0.69055 0.0
H440 H 0.61977 0.08364 0.69681 0.0
H441 H 0.60905 0.09662 0.67629 0.0
H442 H 0.64185 0.11781 0.64878 0.0
H443 H 0.67429 0.14586 0.66856 0.0
H444 H 0.53732 0.58167 0.02854 0.0
H445 H 0.54874 0.61238 0.05863 0.0
H446 H 0.53945 0.5749 0.13363 0.0
H447 H 0.52879 0.54419 0.10341 0.0
H448 H 0.52576 0.61803 0.09572 0.0
H449 H 0.59462 0.62499 0.15238 0.0
H450 H 0.5832 0.60818 0.12185 0.0
H451 H 0.57184 0.59981 0.15673 0.0
C452 C 0.53805 0.58003 0.05142 0.0
C453 C 0.53214 0.56053 0.06364 0.0
C454 C 0.54458 0.5976 0.06861 0.0
C455 C 0.54514 0.59604 0.09841 0.0
C456 C 0.53966 0.57664 0.11068 0.0
H457 H 0.53422 0.68395 0.20975 0.0
H458 H 0.52881 0.65288 0.18396 0.0
C459 C 0.53343 0.55907 0.0934 0.0
C460 C 0.54969 0.61433 0.11647 0.0
H461 H 0.58048 0.6455 0.17054 0.0
C462 C 0.53783 0.62409 0.11196 0.0
C463 C 0.56555 0.62239 0.13748 0.0
C464 C 0.57967 0.61343 0.14223 0.0
C465 C 0.54127 0.64155 0.12787 0.0
C466 C 0.55653 0.64908 0.1497 0.0
C467 C 0.56859 0.63952 0.15407 0.0
C468 C 0.56039 0.66714 0.16775 0.0
C469 C 0.52884 0.65203 0.12059 0.0
C470 C 0.58022 0.6851 0.16846 0.0
C471 C 0.58342 0.70275 0.18361 0.0
C472 C 0.5668 0.70274 0.1981 0.0
C473 C 0.54719 0.68447 0.19831 0.0
C474 C 0.54408 0.66676 0.18352 0.0
H475 H 0.52261 0.64832 0.09847 0.0
H476 H 0.51536 0.64637 0.13533 0.0
H477 H 0.53846 0.66923 0.12275 0.0
H478 H 0.59306 0.68569 0.15658 0.0
H479 H 0.59868 0.71666 0.18311 0.0
H480 H 0.99929 0.53465 0.59871 0.0
H481 H 0.97936 0.54421 0.63124 0.0
H482 H 0.93387 0.53081 0.56512 0.0
H483 H 0.95341 0.52122 0.53271 0.0
H484 H 0.96428 0.57451 0.62416 0.0
H485 H 0.90084 0.49222 0.63372 0.0
H486 H 0.9266 0.49941 0.62095 0.0
H487 H 0.9081 0.50082 0.59754 0.0
C488 C 0.98515 0.53394 0.59105 0.0
C489 C 0.97782 0.52695 0.56321 0.0
C490 C 0.97381 0.5394 0.60964 0.0
C491 C 0.95501 0.53786 0.60065 0.0
C492 C 0.94818 0.53177 0.57257 0.0
H493 H 0.85365 0.55287 0.64913 0.0
H494 H 0.88095 0.54824 0.62714 0.0
C495 C 0.95942 0.52633 0.55406 0.0
C496 C 0.94186 0.54179 0.62057 0.0
H497 H 0.89284 0.51824 0.64884 0.0
C498 C 0.94879 0.56221 0.63004 0.0
C499 C 0.92174 0.52562 0.62827 0.0
C500 C 0.9139 0.50324 0.61984 0.0
C501 C 0.93556 0.56706 0.64571 0.0
C502 C 0.91507 0.55104 0.65208 0.0
C503 C 0.90853 0.5305 0.64371 0.0
C504 C 0.89953 0.55533 0.6655 0.0
C505 C 0.94314 0.58937 0.65416 0.0
C506 C 0.90103 0.56095 0.69436 0.0
C507 C 0.8853 0.56343 0.70713 0.0
C508 C 0.86781 0.56024 0.69121 0.0
C509 C 0.86669 0.55506 0.66213 0.0
C510 C 0.88234 0.55255 0.64947 0.0
H511 H 0.95862 0.60031 0.6448 0.0
H512 H 0.93176 0.59412 0.64726 0.0
H513 H 0.9444 0.59077 0.67775 0.0
H514 H 0.91408 0.56289 0.70715 0.0
H515 H 0.88653 0.56723 0.72963 0.0
H516 H 0.4324 0.92907 0.99669 0.0
H517 H 0.40068 0.90627 0.02386 0.0
H518 H 0.41868 0.95394 0.08814 0.0
H519 H 0.45031 0.97666 0.06149 0.0
H520 H 0.40854 0.91464 0.10972 0.0
H521 H 0.34735 0.91021 0.03646 0.0
H522 H 0.36601 0.90435 0.02081 0.0
H523 H 0.37443 0.93023 0.03353 0.0
C524 C 0.42947 0.93478 0.01644 0.0
C525 C 0.44392 0.95466 0.02695 0.0
C526 C 0.41131 0.92177 0.03186 0.0
C527 C 0.40731 0.92851 0.05789 0.0
C528 C 0.42149 0.94847 0.06808 0.0
H529 H 0.29744 0.87665 0.1651 0.0
H530 H 0.32697 0.8983 0.13375 0.0
C531 C 0.43957 0.96143 0.05277 0.0
C532 C 0.38902 0.91448 0.07555 0.0
H533 H 0.3358 0.88896 0.07777 0.0
C534 C 0.39263 0.90898 0.10274 0.0
C535 C 0.36833 0.90733 0.06642 0.0
C536 C 0.36368 0.91342 0.03781 0.0
C537 C 0.37607 0.89647 0.1211 0.0
C538 C 0.35537 0.88906 0.11184 0.0
C539 C 0.35173 0.8946 0.08469 0.0
C540 C 0.33731 0.87575 0.13029 0.0
C541 C 0.38089 0.89166 0.15049 0.0
C542 C 0.33329 0.85587 0.13845 0.0
C543 C 0.31645 0.84346 0.15627 0.0
C544 C 0.30325 0.85069 0.16618 0.0
C545 C 0.30722 0.87058 0.1577 0.0
C546 C 0.32408 0.88297 0.13985 0.0
H547 H 0.39738 0.90239 0.15665 0.0
H548 H 0.37055 0.89275 0.16675 0.0
H549 H 0.37817 0.87551 0.15079 0.0
H550 H 0.34311 0.84988 0.13088 0.0
H551 H 0.31356 0.82806 0.16189 0.0
H552 H 0.45923 0.46587 0.59417 0.0
H553 H 0.44817 0.43554 0.6254 0.0
H554 H 0.46737 0.40654 0.56167 0.0
H555 H 0.47813 0.43643 0.53032 0.0
H556 H 0.4288 0.37904 0.58703 0.0
H557 H 0.49045 0.42438 0.66757 0.0
H558 H 0.47309 0.43399 0.65909 0.0
H559 H 0.49069 0.4344 0.63239 0.0
C560 C 0.46093 0.45296 0.58674 0.0
C561 C 0.46973 0.45366 0.55985 0.0
C562 C 0.4547 0.4357 0.60465 0.0
C563 C 0.45723 0.41894 0.59597 0.0
C564 C 0.46532 0.41932 0.56879 0.0
H565 H 0.47565 0.32793 0.67911 0.0
H566 H 0.47686 0.35742 0.65408 0.0
C567 C 0.47153 0.43649 0.55094 0.0
C568 C 0.45234 0.40127 0.61532 0.0
H569 H 0.46928 0.38843 0.6756 0.0
C570 C 0.43743 0.38106 0.60661 0.0
C571 C 0.46381 0.40402 0.64067 0.0
C572 C 0.48053 0.42532 0.65051 0.0
C573 C 0.43411 0.36345 0.62215 0.0
C574 C 0.44583 0.3662 0.64723 0.0
C575 C 0.46027 0.38643 0.65641 0.0
C576 C 0.44473 0.34831 0.6629 0.0
C577 C 0.41883 0.34204 0.61088 0.0
C578 C 0.42626 0.33347 0.67633 0.0
C579 C 0.42553 0.31656 0.69074 0.0
C580 C 0.4433 0.31433 0.69213 0.0
C581 C 0.46178 0.32934 0.67878 0.0
C582 C 0.46248 0.34616 0.66438 0.0
H583 H 0.41403 0.34259 0.58858 0.0
H584 H 0.42568 0.3317 0.61163 0.0
H585 H 0.40465 0.33499 0.62444 0.0
H586 H 0.41249 0.33504 0.67582 0.0
H587 H 0.41115 0.3054 0.70113 0.0
H588 H 0.53543 0.00869 0.40762 0.0
H589 H 0.54998 0.99104 0.37929 0.0
H590 H 0.52791 0.94184 0.44188 0.0
H591 H 0.51367 0.95929 0.47029 0.0
H592 H 0.56916 0.95628 0.42406 0.0
H593 H 0.51446 0.93724 0.33262 0.0
H594 H 0.52946 0.96421 0.34289 0.0
H595 H 0.51003 0.94571 0.36671 0.0
C596 C 0.53373 0.99414 0.41533 0.0
C597 C 0.52328 0.98535 0.44113 0.0
C598 C 0.54199 0.98406 0.39909 0.0
C599 C 0.53984 0.96505 0.4084 0.0
C600 C 0.52974 0.9565 0.43433 0.0
H601 H 0.53425 0.85835 0.33517 0.0
H602 H 0.52953 0.88605 0.35562 0.0
C603 C 0.52154 0.9665 0.45049 0.0
C604 C 0.54759 0.95353 0.39126 0.0
H605 H 0.53724 0.92383 0.33121 0.0
C606 C 0.56245 0.94942 0.40354 0.0
C607 C 0.53862 0.94451 0.36463 0.0
C608 C 0.52215 0.94795 0.35089 0.0
C609 C 0.568 0.93584 0.39045 0.0
C610 C 0.55865 0.92641 0.36417 0.0
C611 C 0.5444 0.93117 0.35134 0.0
C612 C 0.56188 0.91004 0.35104 0.0
C613 C 0.58295 0.93082 0.4056 0.0
C614 C 0.58163 0.91439 0.34154 0.0
C615 C 0.58439 0.89854 0.32986 0.0
C616 C 0.56738 0.87814 0.32727 0.0
C617 C 0.5476 0.87394 0.33658 0.0
C618 C 0.54489 0.88974 0.34831 0.0
H619 H 0.58568 0.93633 0.42808 0.0
H620 H 0.57696 0.91375 0.40546 0.0
H621 H 0.59817 0.93854 0.39434 0.0
H622 H 0.59488 0.93005 0.34304 0.0
H623 H 0.59975 0.9023 0.32248 0.0
H624 H 0.56675 0.52818 0.97494 0.0
H625 H 0.59651 0.53669 0.94416 0.0
H626 H 0.57056 0.558 0.87883 0.0
H627 H 0.54056 0.54957 0.90965 0.0
H628 H 0.59343 0.51918 0.88851 0.0
H629 H 0.63255 0.60587 0.88738 0.0
H630 H 0.61391 0.59024 0.91452 0.0
H631 H 0.60508 0.59172 0.87941 0.0
C632 C 0.56739 0.53485 0.95415 0.0
C633 C 0.55123 0.53818 0.94476 0.0
C634 C 0.58442 0.53968 0.93658 0.0
C635 C 0.58577 0.54806 0.90933 0.0
C636 C 0.56991 0.55177 0.89996 0.0
H637 H 0.67171 0.55105 0.77849 0.0
H638 H 0.64069 0.54713 0.80288 0.0
C639 C 0.55276 0.54689 0.91756 0.0
C640 C 0.60338 0.55188 0.89047 0.0
H641 H 0.64794 0.5904 0.85987 0.0
C642 C 0.60527 0.53473 0.88203 0.0
C643 C 0.61882 0.57221 0.88229 0.0
C644 C 0.6177 0.59115 0.89145 0.0
C645 C 0.62238 0.53736 0.86589 0.0
C646 C 0.63788 0.55767 0.85781 0.0
C647 C 0.63591 0.57485 0.86598 0.0
C648 C 0.65681 0.56136 0.84224 0.0
C649 C 0.62411 0.51846 0.85836 0.0
C650 C 0.67616 0.57104 0.85615 0.0
C651 C 0.69387 0.57313 0.84242 0.0
C652 C 0.69256 0.5657 0.8144 0.0
C653 C 0.6732 0.55659 0.80024 0.0
C654 C 0.65548 0.55443 0.81405 0.0
H655 H 0.61269 0.50435 0.87026 0.0
H656 H 0.62116 0.51522 0.83519 0.0
H657 H 0.64007 0.52137 0.86294 0.0
H658 H 0.67745 0.57642 0.87796 0.0
H659 H 0.70843 0.57999 0.8541 0.0
H660 H 0.9908 0.53607 0.41104 0.0
H661 H 0.00961 0.56653 0.37986 0.0
H662 H 0.06256 0.59122 0.43659 0.0
H663 H 0.04386 0.56133 0.46801 0.0
H664 H 0.05364 0.62101 0.41941 0.0
H665 H 0.05686 0.57605 0.32632 0.0
H666 H 0.03118 0.56837 0.33934 0.0
H667 H 0.04895 0.56469 0.36136 0.0
C668 C 0.00643 0.54804 0.41688 0.0
C669 C 0.01586 0.54621 0.44194 0.0
C670 C 0.01719 0.56537 0.39898 0.0
C671 C 0.0376 0.58099 0.4057 0.0
C672 C 0.04683 0.57935 0.43096 0.0
H673 H 0.14188 0.66885 0.31005 0.0
H674 H 0.11392 0.63907 0.33494 0.0
C675 C 0.0361 0.56219 0.44889 0.0
C676 C 0.04976 0.59904 0.38656 0.0
H677 H 0.07328 0.61246 0.32123 0.0
C678 C 0.05778 0.61919 0.39782 0.0
C679 C 0.05524 0.59655 0.3585 0.0
C680 C 0.04779 0.57528 0.34563 0.0
C681 C 0.07172 0.63691 0.38221 0.0
C682 C 0.07739 0.63442 0.35425 0.0
C683 C 0.06881 0.61431 0.34261 0.0
C684 C 0.09367 0.65225 0.33781 0.0
C685 C 0.08109 0.65801 0.39639 0.0
C686 C 0.09144 0.66945 0.33068 0.0
C687 C 0.10761 0.68673 0.31686 0.0
C688 C 0.12621 0.68702 0.30965 0.0
C689 C 0.128 0.66939 0.31587 0.0
C690 C 0.11192 0.65223 0.32984 0.0
H691 H 0.0787 0.6567 0.41987 0.0
H692 H 0.09809 0.66739 0.39204 0.0
H693 H 0.07357 0.66659 0.38776 0.0
H694 H 0.07731 0.66962 0.33613 0.0
H695 H 0.10572 0.70005 0.31248 0.0
H696 H 0.46843 0.01952 0.94511 0.0
H697 H 0.46131 0.04325 0.91774 0.0
H698 H 0.50205 0.09404 0.973 0.0
H699 H 0.50908 0.07021 0.00099 0.0
H700 H 0.465 0.09387 0.95851 0.0
H701 H 0.50446 0.08591 0.86266 0.0
H702 H 0.48412 0.06145 0.87618 0.0
H703 H 0.50696 0.07702 0.8975 0.0
C704 C 0.4758 0.0357 0.95164 0.0
C705 C 0.48953 0.04305 0.97505 0.0
C706 C 0.47176 0.04926 0.93586 0.0
C707 C 0.48153 0.07047 0.94294 0.0
C708 C 0.4945 0.07772 0.96707 0.0
H709 H 0.49467 0.16817 0.82844 0.0
H710 H 0.50017 0.14499 0.85973 0.0
C711 C 0.49847 0.0641 0.98305 0.0
C712 C 0.47864 0.08507 0.92454 0.0
H713 H 0.48512 0.10331 0.85625 0.0
C714 C 0.46946 0.09603 0.93618 0.0
C715 C 0.48477 0.08807 0.89553 0.0
C716 C 0.49582 0.07766 0.88225 0.0
C717 C 0.46585 0.10961 0.91937 0.0
C718 C 0.47122 0.11194 0.89007 0.0
C719 C 0.48077 0.10129 0.87862 0.0
C720 C 0.46761 0.12579 0.871 0.0
C721 C 0.45665 0.12158 0.93325 0.0
C722 C 0.44741 0.12242 0.86647 0.0
C723 C 0.44423 0.13577 0.84877 0.0
C724 C 0.46119 0.15265 0.8351 0.0
C725 C 0.48132 0.15555 0.83903 0.0
C726 C 0.48448 0.14226 0.85679 0.0
H727 H 0.45866 0.12235 0.9568 0.0
H728 H 0.46393 0.13772 0.92476 0.0
H729 H 0.43968 0.11364 0.92865 0.0
H730 H 0.43411 0.1095 0.8767 0.0
H731 H 0.42856 0.13317 0.84635 0.0
H732 H 0.43347 0.47943 0.46916 0.0
H733 H 0.40453 0.46998 0.43647 0.0
H734 H 0.4373 0.45752 0.3703 0.0
H735 H 0.46658 0.46692 0.40312 0.0
H736 H 0.40997 0.49159 0.3827 0.0
H737 H 0.37629 0.40579 0.37017 0.0
H738 H 0.39226 0.41984 0.40047 0.0
H739 H 0.40407 0.42242 0.3662 0.0
C740 C 0.43452 0.47447 0.44778 0.0
C741 C 0.45241 0.47404 0.43871 0.0
C742 C 0.41793 0.46906 0.42913 0.0
C743 C 0.41878 0.46301 0.40107 0.0
C744 C 0.4363 0.46194 0.39202 0.0
H745 H 0.32194 0.43792 0.27241 0.0
H746 H 0.35391 0.44203 0.29436 0.0
C747 C 0.453 0.46737 0.41076 0.0
C748 C 0.40181 0.45933 0.3811 0.0
H749 H 0.3588 0.421 0.34725 0.0
C750 C 0.39892 0.47621 0.37465 0.0
C751 C 0.38756 0.43926 0.37052 0.0
C752 C 0.39 0.42068 0.37718 0.0
C753 C 0.3817 0.47343 0.35875 0.0
C754 C 0.36686 0.45321 0.3494 0.0
C755 C 0.37023 0.43645 0.35461 0.0
C756 C 0.347 0.44911 0.33635 0.0
C757 C 0.37922 0.49208 0.35262 0.0
C758 C 0.33243 0.45125 0.35293 0.0
C759 C 0.3142 0.44882 0.3406 0.0
C760 C 0.31019 0.4442 0.31139 0.0
C761 C 0.32453 0.44138 0.29499 0.0
C762 C 0.34281 0.44378 0.30743 0.0
H763 H 0.39421 0.50696 0.35496 0.0
H764 H 0.37313 0.49123 0.3307 0.0
H765 H 0.36787 0.49228 0.36792 0.0
H766 H 0.3353 0.45508 0.37541 0.0
H767 H 0.30327 0.45063 0.35397 0.0
H768 H 0.951 0.4274 0.97039 0.0
H769 H 0.93048 0.39669 0.94085 0.0
H770 H 0.97331 0.42589 0.87098 0.0
H771 H 0.99424 0.45678 0.90063 0.0
H772 H 0.91123 0.39669 0.88968 0.0
H773 H 0.96647 0.36719 0.87406 0.0
H774 H 0.96997 0.38566 0.90172 0.0
H775 H 0.97625 0.39415 0.86536 0.0
C776 C 0.95625 0.42728 0.94884 0.0
C777 C 0.97427 0.44459 0.93786 0.0
C778 C 0.94447 0.40968 0.93199 0.0
C779 C 0.95044 0.40894 0.90382 0.0
C780 C 0.96862 0.426 0.89284 0.0
H781 H 0.88178 0.31181 0.77557 0.0
H782 H 0.90818 0.34368 0.7994 0.0
C783 C 0.9805 0.44368 0.90977 0.0
C784 C 0.93678 0.39074 0.88569 0.0
H785 H 0.93396 0.34901 0.8504 0.0
C786 C 0.91623 0.3863 0.88103 0.0
C787 C 0.9434 0.37733 0.87425 0.0
C788 C 0.96517 0.38114 0.87919 0.0
C789 C 0.90201 0.36863 0.86562 0.0
C790 C 0.90842 0.35487 0.85492 0.0
C791 C 0.92913 0.35959 0.85877 0.0
C792 C 0.89343 0.33505 0.84085 0.0
C793 C 0.88018 0.36476 0.86097 0.0
C794 C 0.87676 0.3195 0.85649 0.0
C795 C 0.86178 0.30129 0.84306 0.0
C796 C 0.86317 0.29826 0.81368 0.0
C797 C 0.88032 0.3136 0.79825 0.0
C798 C 0.89537 0.33184 0.81177 0.0
H799 H 0.87928 0.37916 0.86417 0.0
H800 H 0.87459 0.35871 0.83913 0.0
H801 H 0.86948 0.35291 0.87648 0.0
H802 H 0.87522 0.32156 0.87908 0.0
H803 H 0.84903 0.28961 0.85569 0.0
H804 H 0.97138 0.52243 0.93839 0.0
H805 H 0.94804 0.53272 0.91653 0.0
H806 H 0.90507 0.50538 0.98672 0.0
H807 H 0.92856 0.49514 0.00912 0.0
H808 H 0.90716 0.5053 0.89979 0.0
H809 H 0.91106 0.56367 0.97795 0.0
H810 H 0.93012 0.55525 0.97701 0.0
H811 H 0.90493 0.5388 0.99258 0.0
C812 C 0.95706 0.51871 0.94939 0.0
C813 C 0.95181 0.50791 0.97551 0.0
C814 C 0.94375 0.52464 0.93683 0.0
C815 C 0.92494 0.51997 0.95011 0.0
C816 C 0.9197 0.50943 0.97637 0.0
H817 H 0.82164 0.5181 0.8592 0.0
H818 H 0.84314 0.50965 0.88984 0.0
C819 C 0.93308 0.5035 0.98904 0.0
C820 C 0.91039 0.5251 0.93537 0.0
H821 H 0.8871 0.55486 0.93973 0.0
C822 C 0.90272 0.51609 0.90854 0.0
C823 C 0.90483 0.53934 0.94678 0.0
C824 C 0.91325 0.55 0.97506 0.0
C825 C 0.88966 0.52095 0.89273 0.0
C826 C 0.88382 0.53494 0.90429 0.0
C827 C 0.8915 0.54401 0.9311 0.0
C828 C 0.87016 0.54062 0.8883 0.0
C829 C 0.88259 0.51145 0.86347 0.0
C830 C 0.87803 0.56103 0.87818 0.0
C831 C 0.86579 0.56592 0.86063 0.0
C832 C 0.84549 0.55044 0.85297 0.0
C833 C 0.83738 0.53024 0.86424 0.0
C834 C 0.84959 0.5254 0.8818 0.0
H835 H 0.89216 0.50486 0.85518 0.0
H836 H 0.86614 0.49862 0.86465 0.0
H837 H 0.8834 0.5232 0.84803 0.0
H838 H 0.89388 0.57299 0.88303 0.0
H839 H 0.8725 0.58158 0.85217 0.0
H840 H 0.42312 0.93525 0.50513 0.0
H841 H 0.39151 0.91143 0.47839 0.0
H842 H 0.41156 0.95511 0.40854 0.0
H843 H 0.44304 0.97889 0.43483 0.0
H844 H 0.35957 0.91934 0.45273 0.0
H845 H 0.40258 0.89935 0.37336 0.0
H846 H 0.41355 0.91099 0.40751 0.0
H847 H 0.41284 0.92679 0.37894 0.0
C848 C 0.42073 0.93983 0.48415 0.0
C849 C 0.43569 0.95891 0.47204 0.0
C850 C 0.40268 0.92622 0.46894 0.0
C851 C 0.39941 0.93143 0.44137 0.0
C852 C 0.41398 0.95069 0.42962 0.0
H853 H 0.31082 0.87273 0.3045 0.0
H854 H 0.33938 0.89639 0.33576 0.0
C855 C 0.43194 0.96429 0.44476 0.0
C856 C 0.38101 0.91667 0.42445 0.0
H857 H 0.36707 0.88775 0.36331 0.0
C858 C 0.36112 0.91228 0.43329 0.0
C859 C 0.38319 0.90758 0.3991 0.0
C860 C 0.40415 0.91123 0.38919 0.0
C861 C 0.34332 0.89945 0.41691 0.0
C862 C 0.34553 0.8905 0.39137 0.0
C863 C 0.36543 0.89472 0.3828 0.0
C864 C 0.32745 0.8767 0.37311 0.0
C865 C 0.32243 0.89608 0.42663 0.0
C866 C 0.31126 0.85778 0.38374 0.0
C867 C 0.29482 0.84431 0.36599 0.0
C868 C 0.29434 0.84941 0.33717 0.0
C869 C 0.31053 0.86846 0.32666 0.0
C870 C 0.32695 0.88193 0.34445 0.0
H871 H 0.32414 0.90826 0.44203 0.0
H872 H 0.31298 0.89607 0.40823 0.0
H873 H 0.31374 0.88073 0.43744 0.0
H874 H 0.31153 0.85324 0.40563 0.0
H875 H 0.28251 0.82986 0.37485 0.0
H876 H 0.46618 0.45725 0.95269 0.0
H877 H 0.45592 0.42439 0.92839 0.0
H878 H 0.49586 0.41356 0.98426 0.0
H879 H 0.50578 0.44627 0.00931 0.0
H880 H 0.48137 0.41581 0.89892 0.0
H881 H 0.4436 0.35693 0.98448 0.0
H882 H 0.44902 0.38345 0.98816 0.0
H883 H 0.46937 0.37727 0.99372 0.0
C884 C 0.47257 0.44775 0.9601 0.0
C885 C 0.48684 0.45437 0.98286 0.0
C886 C 0.46667 0.42895 0.94619 0.0
C887 C 0.47497 0.41642 0.95464 0.0
C888 C 0.48888 0.42274 0.97778 0.0
H889 H 0.48784 0.33026 0.84427 0.0
H890 H 0.49278 0.35933 0.87422 0.0
C891 C 0.49464 0.44149 0.99197 0.0
C892 C 0.47038 0.39774 0.93756 0.0
H893 H 0.45211 0.34536 0.94154 0.0
C894 C 0.47483 0.40038 0.90823 0.0
C895 C 0.46163 0.37758 0.94966 0.0
C896 C 0.45542 0.37355 0.98068 0.0
C897 C 0.47112 0.38352 0.89074 0.0
C898 C 0.46324 0.36354 0.90304 0.0
C899 C 0.45836 0.36075 0.93225 0.0
C900 C 0.46024 0.34545 0.8859 0.0
C901 C 0.47544 0.38725 0.85916 0.0
C902 C 0.4404 0.32771 0.88328 0.0
C903 C 0.43756 0.31086 0.8665 0.0
C904 C 0.45455 0.31144 0.85217 0.0
C905 C 0.47444 0.32917 0.85522 0.0
C906 C 0.47727 0.34593 0.87206 0.0
H907 H 0.47546 0.40157 0.85204 0.0
H908 H 0.49105 0.38931 0.85449 0.0
H909 H 0.46368 0.37384 0.84646 0.0
H910 H 0.42708 0.327 0.89397 0.0
H911 H 0.4221 0.29731 0.86495 0.0
H912 H 0.01636 0.46425 0.44802 0.0
H913 H 0.03889 0.45408 0.42337 0.0
H914 H 0.0893 0.49231 0.48078 0.0
H915 H 0.0666 0.50224 0.50613 0.0
H916 H 0.07402 0.47992 0.39506 0.0
H917 H 0.09157 0.43865 0.47977 0.0
H918 H 0.0708 0.4446 0.48298 0.0
H919 H 0.09736 0.46441 0.48976 0.0
C920 C 0.03217 0.47033 0.45568 0.0
C921 C 0.03972 0.48411 0.47901 0.0
C922 C 0.04502 0.46447 0.44154 0.0
C923 C 0.06571 0.47227 0.45036 0.0
C924 C 0.07324 0.48575 0.47398 0.0
H925 H 0.16433 0.48189 0.34133 0.0
H926 H 0.1412 0.48806 0.37168 0.0
C927 C 0.0603 0.49151 0.48834 0.0
C928 C 0.07968 0.46745 0.43338 0.0
H929 H 0.11171 0.44668 0.4371 0.0
C930 C 0.08218 0.47256 0.40425 0.0
C931 C 0.09013 0.45763 0.44531 0.0
C932 C 0.08721 0.45081 0.47611 0.0
C933 C 0.09503 0.46839 0.38679 0.0
C934 C 0.10609 0.45929 0.39892 0.0
C935 C 0.10336 0.45384 0.42794 0.0
C936 C 0.12067 0.4555 0.38175 0.0
C937 C 0.09638 0.47349 0.35539 0.0
C938 C 0.11717 0.43519 0.37808 0.0
C939 C 0.13059 0.43161 0.36103 0.0
C940 C 0.14779 0.44832 0.34749 0.0
C941 C 0.15138 0.46868 0.35166 0.0
C942 C 0.13803 0.47223 0.36875 0.0
H943 H 0.08278 0.47477 0.34815 0.0
H944 H 0.11067 0.4887 0.3514 0.0
H945 H 0.09726 0.46145 0.34229 0.0
H946 H 0.10391 0.42209 0.38811 0.0
H947 H 0.12755 0.41579 0.35858 0.0
H948 H 0.56871 0.03147 0.97465 0.0
H949 H 0.59888 0.05179 0.94412 0.0
H950 H 0.56177 0.02121 0.86973 0.0
H951 H 0.53136 0.00029 0.90045 0.0
H952 H 0.60325 0.02836 0.86695 0.0
H953 H 0.60147 0.09974 0.89741 0.0
H954 H 0.60288 0.0857 0.92772 0.0
H955 H 0.58023 0.07388 0.90504 0.0
C956 C 0.56699 0.02886 0.95181 0.0
C957 C 0.54761 0.01451 0.93986 0.0
C958 C 0.58423 0.04053 0.93441 0.0
C959 C 0.58239 0.03838 0.90467 0.0
C960 C 0.56342 0.0232 0.89266 0.0
H961 H 0.67407 0.13942 0.79935 0.0
H962 H 0.64142 0.11208 0.81998 0.0
C963 C 0.54611 0.01126 0.91019 0.0
C964 C 0.60002 0.05293 0.88641 0.0
H965 H 0.63228 0.10482 0.87411 0.0
C966 C 0.60952 0.04507 0.86822 0.0
C967 C 0.60788 0.0747 0.8877 0.0
C968 C 0.59746 0.08401 0.90529 0.0
C969 C 0.62724 0.05853 0.8521 0.0
C970 C 0.63586 0.08037 0.85481 0.0
C971 C 0.62585 0.08811 0.87224 0.0
C972 C 0.65535 0.09567 0.84016 0.0
C973 C 0.63641 0.0492 0.8322 0.0
C974 C 0.67406 0.09553 0.84455 0.0
C975 C 0.69271 0.11106 0.83256 0.0
C976 C 0.69301 0.12722 0.81651 0.0
C977 C 0.67428 0.12726 0.81197 0.0
C978 C 0.65563 0.11161 0.82361 0.0
H979 H 0.62455 0.03313 0.82569 0.0
H980 H 0.64295 0.05886 0.81272 0.0
H981 H 0.64915 0.04829 0.84334 0.0
H982 H 0.67437 0.08376 0.8579 0.0
H983 H 0.70699 0.11079 0.8365 0.0
H984 H 0.52732 0.55495 0.44317 0.0
H985 H 0.53722 0.58829 0.42065 0.0
H986 H 0.507 0.60284 0.4882 0.0
H987 H 0.49711 0.56942 0.51123 0.0
H988 H 0.50956 0.60101 0.40147 0.0
H989 H 0.5651 0.65584 0.482 0.0
H990 H 0.55723 0.62849 0.48122 0.0
H991 H 0.53996 0.63669 0.49545 0.0
C992 C 0.52287 0.56526 0.45345 0.0
C993 C 0.51139 0.5595 0.47903 0.0
C994 C 0.52857 0.58432 0.4405 0.0
C995 C 0.523 0.59808 0.45287 0.0
C996 C 0.51173 0.59256 0.47856 0.0
H997 H 0.52235 0.6996 0.36011 0.0
H998 H 0.51301 0.66885 0.38947 0.0
C999 C 0.50601 0.57342 0.49161 0.0
C1000 C 0.52818 0.61768 0.4379 0.0
H1001 H 0.55704 0.67076 0.44281 0.0
C1002 C 0.51989 0.61627 0.41052 0.0
C1003 C 0.54182 0.63752 0.44971 0.0
C1004 C 0.55172 0.63986 0.47861 0.0
C1005 C 0.5249 0.63417 0.39455 0.0
C1006 C 0.5383 0.65402 0.40649 0.0
C1007 C 0.54664 0.65548 0.43386 0.0
C1008 C 0.54422 0.67339 0.39043 0.0
C1009 C 0.5162 0.63169 0.36476 0.0
C1010 C 0.56499 0.68643 0.38197 0.0
C1011 C 0.57038 0.70399 0.36513 0.0
C1012 C 0.55508 0.70882 0.35654 0.0
C1013 C 0.53441 0.69606 0.36587 0.0
C1014 C 0.52905 0.67853 0.38271 0.0
H1015 H 0.51013 0.61561 0.35646 0.0
H1016 H 0.50315 0.635 0.365 0.0
H1017 H 0.5283 0.64283 0.34983 0.0
H1018 H 0.57691 0.6827 0.38777 0.0
H1019 H 0.5864 0.71343 0.35815 0.0
H1020 H 0.46353 0.02714 0.55716 0.0
H1021 H 0.45635 0.05146 0.5829 0.0
H1022 H 0.48946 0.09835 0.51876 0.0
H1023 H 0.49667 0.07395 0.49254 0.0
H1024 H 0.48794 0.09011 0.60434 0.0
H1025 H 0.43429 0.09939 0.53051 0.0
H1026 H 0.43897 0.07772 0.52814 0.0
H1027 H 0.45812 0.10294 0.51514 0.0
C1028 C 0.46911 0.04253 0.54825 0.0
C1029 C 0.48076 0.04863 0.5228 0.0
C1030 C 0.46497 0.0564 0.56303 0.0
C1031 C 0.47227 0.07664 0.55266 0.0
C1032 C 0.48343 0.08268 0.52689 0.0
H1033 H 0.4872 0.18111 0.65529 0.0
H1034 H 0.49227 0.15847 0.62224 0.0
C1035 C 0.4876 0.06876 0.512 0.0
C1036 C 0.46939 0.09169 0.5701 0.0
H1037 H 0.4451 0.12059 0.57195 0.0
C1038 C 0.47862 0.09682 0.59724 0.0
C1039 C 0.45711 0.10027 0.5608 0.0
C1040 C 0.44638 0.09474 0.53215 0.0
C1041 C 0.47589 0.11031 0.6154 0.0
C1042 C 0.46378 0.11905 0.60603 0.0
C1043 C 0.45449 0.11392 0.57892 0.0
C1044 C 0.46034 0.13323 0.62454 0.0
C1045 C 0.48564 0.11482 0.64472 0.0
C1046 C 0.44059 0.12663 0.63633 0.0
C1047 C 0.43766 0.13944 0.65547 0.0
C1048 C 0.45443 0.15913 0.66302 0.0
C1049 C 0.47406 0.16588 0.65044 0.0
C1050 C 0.47697 0.15304 0.63141 0.0
H1051 H 0.49115 0.10386 0.65064 0.0
H1052 H 0.49922 0.1309 0.64514 0.0
H1053 H 0.47432 0.11386 0.66107 0.0
H1054 H 0.42759 0.11135 0.63128 0.0
H1055 H 0.4224 0.13368 0.66492 0.0
H1056 H 0.44654 0.48189 0.05529 0.0
H1057 H 0.4124 0.47155 0.07546 0.0
H1058 H 0.40313 0.50859 0.01251 0.0
H1059 H 0.43756 0.51917 0.992 0.0
H1060 H 0.39543 0.51547 0.07004 0.0
H1061 H 0.35382 0.43134 0.04311 0.0
H1062 H 0.37874 0.44006 0.05959 0.0
H1063 H 0.37745 0.45013 0.0252 0.0
C1064 C 0.43724 0.48777 0.04553 0.0
C1065 C 0.44479 0.50139 0.02202 0.0
C1066 C 0.41764 0.48169 0.05698 0.0
C1067 C 0.40513 0.48904 0.0452 0.0
C1068 C 0.41252 0.5026 0.0217 0.0
H1069 H 0.27942 0.44582 0.11407 0.0
H1070 H 0.30809 0.45501 0.08039 0.0
C1071 C 0.43216 0.50862 0.01005 0.0
C1072 C 0.385 0.48353 0.05887 0.0
H1073 H 0.33896 0.44188 0.08068 0.0
C1074 C 0.38292 0.49943 0.07198 0.0
C1075 C 0.36863 0.46262 0.06112 0.0
C1076 C 0.36963 0.44506 0.04627 0.0
C1077 C 0.36538 0.49482 0.08863 0.0
C1078 C 0.34966 0.47378 0.09241 0.0
C1079 C 0.35117 0.45799 0.07799 0.0
C1080 C 0.33222 0.46783 0.11262 0.0
C1081 C 0.36397 0.51247 0.10251 0.0
C1082 C 0.33632 0.47155 0.14189 0.0
C1083 C 0.32004 0.46615 0.16116 0.0
C1084 C 0.29929 0.4569 0.15155 0.0
C1085 C 0.29519 0.45277 0.12221 0.0
C1086 C 0.31154 0.45813 0.10292 0.0
H1087 H 0.37411 0.52756 0.0916 0.0
H1088 H 0.34767 0.50937 0.10241 0.0
H1089 H 0.36918 0.51402 0.12503 0.0
H1090 H 0.35216 0.4786 0.14984 0.0
H1091 H 0.32371 0.46911 0.18365 0.0
H1092 H 0.93034 0.42853 0.4882 0.0
H1093 H 0.90725 0.39479 0.5108 0.0
H1094 H 0.94488 0.41531 0.58707 0.0
H1095 H 0.96818 0.44868 0.56459 0.0
H1096 H 0.93519 0.37604 0.57153 0.0
H1097 H 0.86405 0.38348 0.57214 0.0
H1098 H 0.87555 0.38574 0.53763 0.0
H1099 H 0.88962 0.40519 0.56438 0.0
C1100 C 0.93366 0.42583 0.50979 0.0
C1101 C 0.95106 0.44131 0.52462 0.0
C1102 C 0.9204 0.4066 0.52272 0.0
C1103 C 0.92419 0.40266 0.55077 0.0
C1104 C 0.94165 0.41803 0.56543 0.0
H1105 H 0.86462 0.31619 0.68646 0.0
H1106 H 0.88601 0.34561 0.65479 0.0
C1107 C 0.95495 0.43712 0.55252 0.0
C1108 C 0.9102 0.38259 0.56514 0.0
H1109 H 0.86068 0.35229 0.59067 0.0
C1110 C 0.91887 0.37079 0.57554 0.0
C1111 C 0.88891 0.37581 0.57042 0.0
C1112 C 0.87896 0.38826 0.5608 0.0
C1113 C 0.90691 0.35259 0.5915 0.0
C1114 C 0.8858 0.34605 0.59711 0.0
C1115 C 0.87691 0.35744 0.58612 0.0
C1116 C 0.87309 0.32812 0.61589 0.0
C1117 C 0.9169 0.3406 0.6028 0.0
C1118 C 0.85884 0.30866 0.60431 0.0
C1119 C 0.84667 0.29182 0.62231 0.0
C1120 C 0.84844 0.2943 0.65213 0.0
C1121 C 0.86279 0.31388 0.66358 0.0
C1122 C 0.87505 0.33063 0.64558 0.0
H1123 H 0.93275 0.34633 0.59385 0.0
H1124 H 0.91815 0.34211 0.62639 0.0
H1125 H 0.90702 0.32376 0.5977 0.0
H1126 H 0.85714 0.30654 0.58139 0.0
H1127 H 0.83559 0.27697 0.61292 0.0
H1128 H 0.51732 0.95151 0.03433 0.0
H1129 H 0.53119 0.9342 0.06371 0.0
H1130 H 0.56119 0.98823 0.11838 0.0
H1131 H 0.54691 0.00569 0.0892 0.0
H1132 H 0.57183 0.94567 0.07557 0.0
H1133 H 0.52825 0.94082 0.17478 0.0
H1134 H 0.52195 0.9476 0.1407 0.0
H1135 H 0.54431 0.9665 0.16031 0.0
C1136 C 0.52684 0.95979 0.0526 0.0
C1137 C 0.53093 0.97998 0.05949 0.0
C1138 C 0.53481 0.94985 0.06935 0.0
C1139 C 0.54706 0.95983 0.09336 0.0
C1140 C 0.55147 0.98011 0.1002 0.0
H1141 H 0.6079 0.89745 0.17719 0.0
H1142 H 0.60313 0.92449 0.15428 0.0
C1143 C 0.54337 0.99009 0.08345 0.0
C1144 C 0.55495 0.94863 0.11096 0.0
H1145 H 0.54951 0.92559 0.17591 0.0
C1146 C 0.56717 0.94146 0.09763 0.0
C1147 C 0.54869 0.94307 0.13965 0.0
C1148 C 0.53495 0.94972 0.15475 0.0
C1149 C 0.57264 0.9282 0.11181 0.0
C1150 C 0.56611 0.92237 0.14036 0.0
C1151 C 0.55455 0.93018 0.15405 0.0
C1152 C 0.5694 0.90668 0.15548 0.0
C1153 C 0.5844 0.91969 0.09561 0.0
C1154 C 0.55205 0.88798 0.16451 0.0
C1155 C 0.55472 0.87268 0.17796 0.0
C1156 C 0.57482 0.8757 0.18262 0.0
C1157 C 0.59221 0.89462 0.17397 0.0
C1158 C 0.58952 0.91002 0.16063 0.0
H1159 H 0.58426 0.92211 0.07222 0.0
H1160 H 0.60089 0.9278 0.10279 0.0
H1161 H 0.57764 0.90276 0.09972 0.0
H1162 H 0.53638 0.88513 0.16088 0.0
H1163 H 0.54098 0.85854 0.18494 0.0
H1164 H 0.55272 0.53592 0.55533 0.0
H1165 H 0.58538 0.5462 0.58017 0.0
H1166 H 0.59778 0.50794 0.52312 0.0
H1167 H 0.56521 0.49791 0.49758 0.0
H1168 H 0.59486 0.52064 0.60874 0.0
H1169 H 0.65354 0.56178 0.52377 0.0
H1170 H 0.62675 0.55562 0.52052 0.0
H1171 H 0.63367 0.5359 0.51403 0.0
C1172 C 0.56248 0.52984 0.54781 0.0
C1173 C 0.55635 0.51605 0.5245 0.0
C1174 C 0.58116 0.53576 0.56204 0.0
C1175 C 0.59412 0.528 0.55336 0.0
C1176 C 0.58824 0.51447 0.52981 0.0
H1177 H 0.68393 0.52057 0.66359 0.0
H1178 H 0.65442 0.51361 0.63315 0.0
C1179 C 0.56957 0.50866 0.51534 0.0
C1180 C 0.61295 0.533 0.57035 0.0
H1181 H 0.66581 0.55421 0.56662 0.0
C1182 C 0.61038 0.52806 0.59953 0.0
C1183 C 0.63321 0.5429 0.55838 0.0
C1184 C 0.63706 0.54956 0.52752 0.0
C1185 C 0.62746 0.53253 0.61704 0.0
C1186 C 0.64763 0.54173 0.60489 0.0
C1187 C 0.65029 0.54696 0.5758 0.0
C1188 C 0.6661 0.54595 0.62213 0.0
C1189 C 0.62377 0.52766 0.64851 0.0
C1190 C 0.68279 0.5664 0.62528 0.0
C1191 C 0.69991 0.57042 0.64235 0.0
C1192 C 0.70065 0.55403 0.65647 0.0
C1193 C 0.684 0.53354 0.65282 0.0
C1194 C 0.66699 0.52954 0.63569 0.0
H1195 H 0.60882 0.52629 0.65565 0.0
H1196 H 0.62298 0.51255 0.65277 0.0
H1197 H 0.63663 0.53987 0.66149 0.0
H1198 H 0.68245 0.57927 0.61482 0.0
H1199 H 0.7126 0.58633 0.64436 0.0
H1200 H 0.06672 0.55993 0.98311 0.0
H1201 H 0.09102 0.59354 0.00532 0.0
H1202 H 0.04495 0.58319 0.06931 0.0
H1203 H 0.02068 0.54986 0.04741 0.0
H1204 H 0.06657 0.62479 0.04502 0.0
H1205 H 0.11941 0.59677 0.08398 0.0
H1206 H 0.11318 0.59382 0.04653 0.0
H1207 H 0.09312 0.57909 0.07216 0.0
C1208 C 0.06173 0.56491 0.00176 0.0
C1209 C 0.04184 0.55214 0.01363 0.0
C1210 C 0.07564 0.58406 0.01445 0.0
C1211 C 0.06979 0.59069 0.03908 0.0
C1212 C 0.04974 0.57831 0.05033 0.0
H1213 H 0.13106 0.67033 0.17993 0.0
H1214 H 0.1108 0.64239 0.14587 0.0
C1215 C 0.03593 0.55921 0.03782 0.0
C1216 C 0.08466 0.61004 0.05417 0.0
H1217 H 0.12734 0.63047 0.09769 0.0
C1218 C 0.08005 0.62622 0.05623 0.0
C1219 C 0.10204 0.61165 0.06898 0.0
C1220 C 0.10728 0.59441 0.06808 0.0
C1221 C 0.09213 0.64382 0.0733 0.0
C1222 C 0.10928 0.64523 0.0885 0.0
C1223 C 0.11419 0.6293 0.08589 0.0
C1224 C 0.12149 0.66242 0.10876 0.0
C1225 C 0.08599 0.66034 0.07594 0.0
C1226 C 0.13421 0.68291 0.09908 0.0
C1227 C 0.14594 0.69892 0.11849 0.0
C1228 C 0.14516 0.69467 0.1479 0.0
C1229 C 0.13225 0.67409 0.15743 0.0
C1230 C 0.1206 0.65812 0.13802 0.0
H1231 H 0.07043 0.65529 0.06644 0.0
H1232 H 0.08575 0.66439 0.09871 0.0
H1233 H 0.09767 0.67468 0.06476 0.0
H1234 H 0.13529 0.68645 0.07651 0.0
H1235 H 0.15596 0.71453 0.11041 0.0
loop_
_geom_bond_atom_site_label_1
_geom_bond_atom_site_label_2
_geom_bond_distance
_geom_bond_site_symmetry_2
_ccdc_geom_bond_type
C0 O2 1.247 . S
C0 O4 1.258 . S
C1 O8 1.247 . S
C1 O9 1.258 . S
O2 C0 1.247 . S
O2 Zn3 2.028 1_455 S
Zn3 O2 2.028 1_655 S
Zn3 O7 2.035 1_554 S
Zn3 O9 2.035 1_554 S
Zn3 O10 2.028 1_655 S
O4 C0 1.258 . S
O4 Zn5 2.035 1_554 S
Zn5 O4 2.035 1_556 S
Zn5 O6 2.028 1_455 S
Zn5 O8 2.028 1_455 S
Zn5 O11 2.035 1_556 S
O6 Zn5 2.028 1_655 S
O6 C12 1.247 . S
O7 Zn3 2.035 1_556 S
O7 C12 1.258 . S
O8 C1 1.247 . S
O8 Zn5 2.028 1_655 S
O9 C1 1.258 . S
O9 Zn3 2.035 1_556 S
O10 Zn3 2.028 1_455 S
O10 C13 1.247 . S
O11 Zn5 2.035 1_554 S
O11 C13 1.258 . S
C12 O6 1.247 . S
C12 O7 1.258 . S
C13 O10 1.247 . S
C13 O11 1.258 . S
C14 O16 1.247 . S
C14 O18 1.258 . S
C15 O22 1.247 . S
C15 O23 1.258 . S
O16 C14 1.247 . S
O16 Zn17 2.028 1_545 S
Zn17 O16 2.028 1_565 S
Zn17 O21 2.035 . S
Zn17 O23 2.035 . S
Zn17 O24 2.028 1_565 S
O18 C14 1.258 . S
O18 Zn19 2.035 . S
Zn19 O18 2.035 . S
Zn19 O20 2.028 1_545 S
Zn19 O22 2.028 1_545 S
Zn19 O25 2.035 . S
O20 Zn19 2.028 1_565 S
O20 C26 1.247 . S
O21 Zn17 2.035 . S
O21 C26 1.258 . S
O22 C15 1.247 . S
O22 Zn19 2.028 1_565 S
O23 C15 1.258 . S
O23 Zn17 2.035 . S
O24 Zn17 2.028 1_545 S
O24 C27 1.247 . S
O25 Zn19 2.035 . S
O25 C27 1.258 . S
C26 O20 1.247 . S
C26 O21 1.258 . S
C27 O24 1.247 . S
C27 O25 1.258 . S
C28 O30 1.247 . S
C28 O32 1.258 . S
C29 O36 1.247 . S
C29 O37 1.258 . S
O30 C28 1.247 . S
O30 Zn31 2.028 . S
Zn31 O30 2.028 . S
Zn31 O35 2.035 1_556 S
Zn31 O37 2.035 1_556 S
Zn31 O38 2.028 . S
O32 C28 1.258 . S
O32 Zn33 2.035 1_556 S
Zn33 O32 2.035 1_554 S
Zn33 O34 2.028 . S
Zn33 O36 2.028 . S
Zn33 O39 2.035 1_554 S
O34 Zn33 2.028 . S
O34 C40 1.247 . S
O35 Zn31 2.035 1_554 S
O35 C40 1.258 . S
O36 C29 1.247 . S
O36 Zn33 2.028 . S
O37 C29 1.258 . S
O37 Zn31 2.035 1_554 S
O38 Zn31 2.028 . S
O38 C41 1.247 . S
O39 Zn33 2.035 1_556 S
O39 C41 1.258 . S
C40 O34 1.247 . S
C40 O35 1.258 . S
C41 O38 1.247 . S
C41 O39 1.258 . S
C42 O44 1.247 . S
C42 O46 1.258 . S
C43 O50 1.247 . S
C43 O51 1.258 . S
O44 C42 1.247 . S
O44 Zn45 2.028 . S
Zn45 O44 2.028 . S
Zn45 O49 2.035 1_455 S
Zn45 O51 2.035 1_455 S
Zn45 O52 2.028 . S
O46 C42 1.258 . S
O46 Zn47 2.035 1_455 S
Zn47 O46 2.035 1_655 S
Zn47 O48 2.028 . S
Zn47 O50 2.028 . S
Zn47 O53 2.035 1_655 S
O48 Zn47 2.028 . S
O48 C54 1.247 . S
O49 Zn45 2.035 1_655 S
O49 C54 1.258 . S
O50 C43 1.247 . S
O50 Zn47 2.028 . S
O51 C43 1.258 . S
O51 Zn45 2.035 1_655 S
O52 Zn45 2.028 . S
O52 C55 1.247 . S
O53 Zn47 2.035 1_455 S
O53 C55 1.258 . S
C54 O48 1.247 . S
C54 O49 1.258 . S
C55 O52 1.247 . S
C55 O53 1.258 . S
C56 O58 1.247 . S
C56 O60 1.258 . S
C57 O64 1.247 . S
C57 O65 1.258 . S
O58 C56 1.247 . S
O58 Zn59 2.028 1_565 S
Zn59 O58 2.028 1_545 S
Zn59 O63 2.035 1_554 S
Zn59 O65 2.035 1_554 S
Zn59 O66 2.028 1_545 S
O60 C56 1.258 . S
O60 Zn61 2.035 1_554 S
Zn61 O60 2.035 1_556 S
Zn61 O62 2.028 1_565 S
Zn61 O64 2.028 1_565 S
Zn61 O67 2.035 1_556 S
O62 Zn61 2.028 1_545 S
O62 C68 1.247 . S
O63 Zn59 2.035 1_556 S
O63 C68 1.258 . S
O64 C57 1.247 . S
O64 Zn61 2.028 1_545 S
O65 C57 1.258 . S
O65 Zn59 2.035 1_556 S
O66 Zn59 2.028 1_565 S
O66 C69 1.247 . S
O67 Zn61 2.035 1_554 S
O67 C69 1.258 . S
C68 O62 1.247 . S
C68 O63 1.258 . S
C69 O66 1.247 . S
C69 O67 1.258 . S
C70 O72 1.247 . S
C70 O74 1.258 . S
C71 O78 1.247 . S
C71 O79 1.258 . S
O72 C70 1.247 . S
O72 Zn73 2.028 . S
Zn73 O72 2.028 . S
Zn73 O77 2.035 . S
Zn73 O79 2.035 . S
Zn73 O80 2.028 . S
O74 C70 1.258 . S
O74 Zn75 2.035 . S
Zn75 O74 2.035 . S
Zn75 O76 2.028 . S
Zn75 O78 2.028 . S
Zn75 O81 2.035 . S
O76 Zn75 2.028 . S
O76 C82 1.247 . S
O77 Zn73 2.035 . S
O77 C82 1.258 . S
O78 C71 1.247 . S
O78 Zn75 2.028 . S
O79 C71 1.258 . S
O79 Zn73 2.035 . S
O80 Zn73 2.028 . S
O80 C83 1.247 . S
O81 Zn75 2.035 . S
O81 C83 1.258 . S
C82 O76 1.247 . S
C82 O77 1.258 . S
C83 O80 1.247 . S
C83 O81 1.258 . S
H84 C103 0.949 . S
H85 C104 0.950 . S
H86 C106 0.950 . S
H87 C107 0.950 . S
H88 C109 0.950 . S
H89 C112 0.950 . S
H90 C113 0.950 . S
H91 C115 0.951 . S
H92 C116 0.949 . S
H93 C118 0.949 . S
H94 C119 0.950 . S
H95 C121 0.950 . S
H96 C122 0.950 . S
H97 C124 0.950 . S
H98 C127 0.950 . S
H99 C128 0.950 . S
H100 C130 0.951 . S
H101 C131 0.949 . S
C102 C103 1.376 . S
C102 C107 1.386 . S
C102 C108 1.483 . S
C103 H84 0.949 . S
C103 C102 1.376 . S
C103 C104 1.397 . S
C104 H85 0.950 . S
C104 C103 1.397 . S
C104 C105 1.391 . S
C105 C104 1.391 . S
C105 C106 1.405 . S
C106 H86 0.950 . S
C106 C105 1.405 . S
C106 C107 1.367 . S
C107 H87 0.950 . S
C107 C102 1.386 . S
C107 C106 1.367 . S
C108 C102 1.483 . S
C108 C109 1.382 . S
C108 C110 1.403 . S
C109 H88 0.950 . S
C109 C108 1.382 . S
C109 C125 1.411 . S
C110 C108 1.403 . S
C110 C111 1.489 . S
C110 C124 1.411 . S
C111 C110 1.489 . S
C111 C112 1.383 . S
C111 C116 1.382 . S
C112 H89 0.950 . S
C112 C111 1.383 . S
C112 C113 1.395 . S
C113 H90 0.950 . S
C113 C112 1.395 . S
C113 C114 1.288 . S
C114 C113 1.288 . S
C114 C115 1.392 . S
C115 H91 0.951 . S
C115 C114 1.392 . S
C115 C116 1.392 . S
C116 H92 0.949 . S
C116 C111 1.382 . S
C116 C115 1.392 . S
C117 C118 1.376 . S
C117 C122 1.386 . S
C117 C123 1.483 . S
C118 H93 0.949 . S
C118 C117 1.376 . S
C118 C119 1.397 . S
C119 H94 0.950 . S
C119 C118 1.397 . S
C119 C120 1.391 . S
C120 C119 1.391 . S
C120 C121 1.405 . S
C121 H95 0.950 . S
C121 C120 1.405 . S
C121 C122 1.367 . S
C122 H96 0.950 . S
C122 C117 1.386 . S
C122 C121 1.367 . S
C123 C117 1.483 . S
C123 C124 1.382 . S
C123 C125 1.403 . S
C124 H97 0.950 . S
C124 C110 1.411 . S
C124 C123 1.382 . S
C125 C109 1.411 . S
C125 C123 1.403 . S
C125 C126 1.489 . S
C126 C125 1.489 . S
C126 C127 1.383 . S
C126 C131 1.382 . S
C127 H98 0.950 . S
C127 C126 1.383 . S
C127 C128 1.395 . S
C128 H99 0.950 . S
C128 C127 1.395 . S
C128 C129 1.288 . S
C129 C128 1.288 . S
C129 C130 1.392 . S
C130 H100 0.951 . S
C130 C129 1.392 . S
C130 C131 1.392 . S
C131 H101 0.949 . S
C131 C126 1.382 . S
C131 C130 1.392 . S
H132 C151 0.949 . S
H133 C152 0.950 . S
H134 C154 0.950 . S
H135 C155 0.950 . S
H136 C157 0.950 . S
H137 C160 0.950 . S
H138 C161 0.950 . S
H139 C163 0.951 . S
H140 C164 0.949 . S
H141 C166 0.949 . S
H142 C167 0.950 . S
H143 C169 0.950 . S
H144 C170 0.950 . S
H145 C172 0.950 . S
H146 C175 0.950 . S
H147 C176 0.950 . S
H148 C178 0.951 . S
H149 C179 0.949 . S
C150 C151 1.376 . S
C150 C155 1.386 . S
C150 C156 1.483 . S
C151 H132 0.949 . S
C151 C150 1.376 . S
C151 C152 1.397 . S
C152 H133 0.950 . S
C152 C151 1.397 . S
C152 C153 1.391 . S
C153 C152 1.391 . S
C153 C154 1.405 . S
C154 H134 0.950 . S
C154 C153 1.405 . S
C154 C155 1.367 . S
C155 H135 0.950 . S
C155 C150 1.386 . S
C155 C154 1.367 . S
C156 C150 1.483 . S
C156 C157 1.382 . S
C156 C158 1.403 . S
C157 H136 0.950 . S
C157 C156 1.382 . S
C157 C173 1.411 . S
C158 C156 1.403 . S
C158 C159 1.489 . S
C158 C172 1.411 . S
C159 C158 1.489 . S
C159 C160 1.383 . S
C159 C164 1.382 . S
C160 H137 0.950 . S
C160 C159 1.383 . S
C160 C161 1.395 . S
C161 H138 0.950 . S
C161 C160 1.395 . S
C161 C162 1.288 . S
C162 C161 1.288 . S
C162 C163 1.392 . S
C163 H139 0.951 . S
C163 C162 1.392 . S
C163 C164 1.392 . S
C164 H140 0.949 . S
C164 C159 1.382 . S
C164 C163 1.392 . S
C165 C166 1.376 . S
C165 C170 1.386 . S
C165 C171 1.483 . S
C166 H141 0.949 . S
C166 C165 1.376 . S
C166 C167 1.397 . S
C167 H142 0.950 . S
C167 C166 1.397 . S
C167 C168 1.391 . S
C168 C167 1.391 . S
C168 C169 1.405 . S
C169 H143 0.950 . S
C169 C168 1.405 . S
C169 C170 1.367 . S
C170 H144 0.950 . S
C170 C165 1.386 . S
C170 C169 1.367 . S
C171 C165 1.483 . S
C171 C172 1.382 . S
C171 C173 1.403 . S
C172 H145 0.950 . S
C172 C158 1.411 . S
C172 C171 1.382 . S
C173 C157 1.411 . S
C173 C171 1.403 . S
C173 C174 1.489 . S
C174 C173 1.489 . S
C174 C175 1.383 . S
C174 C179 1.382 . S
C175 H146 0.950 . S
C175 C174 1.383 . S
C175 C176 1.395 . S
C176 H147 0.950 . S
C176 C175 1.395 . S
C176 C177 1.288 . S
C177 C176 1.288 . S
C177 C178 1.392 . S
C178 H148 0.951 . S
C178 C177 1.392 . S
C178 C179 1.392 . S
C179 H149 0.949 . S
C179 C174 1.382 . S
C179 C178 1.392 . S
H180 C199 0.949 . S
H181 C200 0.950 . S
H182 C202 0.950 . S
H183 C203 0.950 . S
H184 C205 0.950 . S
H185 C208 0.950 . S
H186 C209 0.950 . S
H187 C211 0.951 . S
H188 C212 0.949 . S
H189 C214 0.949 . S
H190 C215 0.950 . S
H191 C217 0.950 . S
H192 C218 0.950 . S
H193 C220 0.950 . S
H194 C223 0.950 . S
H195 C224 0.950 . S
H196 C226 0.951 . S
H197 C227 0.949 . S
C198 C199 1.376 . S
C198 C203 1.386 . S
C198 C204 1.483 . S
C199 H180 0.949 . S
C199 C198 1.376 . S
C199 C200 1.397 . S
C200 H181 0.950 . S
C200 C199 1.397 . S
C200 C201 1.391 . S
C201 C200 1.391 . S
C201 C202 1.405 . S
C202 H182 0.950 . S
C202 C201 1.405 . S
C202 C203 1.367 . S
C203 H183 0.950 . S
C203 C198 1.386 . S
C203 C202 1.367 . S
C204 C198 1.483 . S
C204 C205 1.382 . S
C204 C206 1.403 . S
C205 H184 0.950 . S
C205 C204 1.382 . S
C205 C221 1.411 . S
C206 C204 1.403 . S
C206 C207 1.489 . S
C206 C220 1.411 . S
C207 C206 1.489 . S
C207 C208 1.383 . S
C207 C212 1.382 . S
C208 H185 0.950 . S
C208 C207 1.383 . S
C208 C209 1.395 . S
C209 H186 0.950 . S
C209 C208 1.395 . S
C209 C210 1.288 . S
C210 C209 1.288 . S
C210 C211 1.392 . S
C211 H187 0.951 . S
C211 C210 1.392 . S
C211 C212 1.392 . S
C212 H188 0.949 . S
C212 C207 1.382 . S
C212 C211 1.392 . S
C213 C214 1.376 . S
C213 C218 1.386 . S
C213 C219 1.483 . S
C214 H189 0.949 . S
C214 C213 1.376 . S
C214 C215 1.397 . S
C215 H190 0.950 . S
C215 C214 1.397 . S
C215 C216 1.391 . S
C216 C215 1.391 . S
C216 C217 1.405 . S
C217 H191 0.950 . S
C217 C216 1.405 . S
C217 C218 1.367 . S
C218 H192 0.950 . S
C218 C213 1.386 . S
C218 C217 1.367 . S
C219 C213 1.483 . S
C219 C220 1.382 . S
C219 C221 1.403 . S
C220 H193 0.950 . S
C220 C206 1.411 . S
C220 C219 1.382 . S
C221 C205 1.411 . S
C221 C219 1.403 . S
C221 C222 1.489 . S
C222 C221 1.489 . S
C222 C223 1.383 . S
C222 C227 1.382 . S
C223 H194 0.950 . S
C223 C222 1.383 . S
C223 C224 1.395 . S
C224 H195 0.950 . S
C224 C223 1.395 . S
C224 C225 1.288 . S
C225 C224 1.288 . S
C225 C226 1.392 . S
C226 H196 0.951 . S
C226 C225 1.392 . S
C226 C227 1.392 . S
C227 H197 0.949 . S
C227 C222 1.382 . S
C227 C226 1.392 . S
H228 C247 0.949 . S
H229 C248 0.950 . S
H230 C250 0.950 . S
H231 C251 0.950 . S
H232 C253 0.950 . S
H233 C256 0.950 . S
H234 C257 0.950 . S
H235 C259 0.951 . S
H236 C260 0.949 . S
H237 C262 0.949 . S
H238 C263 0.950 . S
H239 C265 0.950 . S
H240 C266 0.950 . S
H241 C268 0.950 . S
H242 C271 0.950 . S
H243 C272 0.950 . S
H244 C274 0.951 . S
H245 C275 0.949 . S
C246 C247 1.376 . S
C246 C251 1.386 . S
C246 C252 1.483 . S
C247 H228 0.949 . S
C247 C246 1.376 . S
C247 C248 1.397 . S
C248 H229 0.950 . S
C248 C247 1.397 . S
C248 C249 1.391 . S
C249 C248 1.391 . S
C249 C250 1.405 . S
C250 H230 0.950 . S
C250 C249 1.405 . S
C250 C251 1.367 . S
C251 H231 0.950 . S
C251 C246 1.386 . S
C251 C250 1.367 . S
C252 C246 1.483 . S
C252 C253 1.382 . S
C252 C254 1.403 . S
C253 H232 0.950 . S
C253 C252 1.382 . S
C253 C269 1.411 . S
C254 C252 1.403 . S
C254 C255 1.489 . S
C254 C268 1.411 . S
C255 C254 1.489 . S
C255 C256 1.383 . S
C255 C260 1.382 . S
C256 H233 0.950 . S
C256 C255 1.383 . S
C256 C257 1.395 . S
C257 H234 0.950 . S
C257 C256 1.395 . S
C257 C258 1.288 . S
C258 C257 1.288 . S
C258 C259 1.392 . S
C259 H235 0.951 . S
C259 C258 1.392 . S
C259 C260 1.392 . S
C260 H236 0.949 . S
C260 C255 1.382 . S
C260 C259 1.392 . S
C261 C262 1.376 . S
C261 C266 1.386 . S
C261 C267 1.483 . S
C262 H237 0.949 . S
C262 C261 1.376 . S
C262 C263 1.397 . S
C263 H238 0.950 . S
C263 C262 1.397 . S
C263 C264 1.391 . S
C264 C263 1.391 . S
C264 C265 1.405 . S
C265 H239 0.950 . S
C265 C264 1.405 . S
C265 C266 1.367 . S
C266 H240 0.950 . S
C266 C261 1.386 . S
C266 C265 1.367 . S
C267 C261 1.483 . S
C267 C268 1.382 . S
C267 C269 1.403 . S
C268 H241 0.950 . S
C268 C254 1.411 . S
C268 C267 1.382 . S
C269 C253 1.411 . S
C269 C267 1.403 . S
C269 C270 1.489 . S
C270 C269 1.489 . S
C270 C271 1.383 . S
C270 C275 1.382 . S
C271 H242 0.950 . S
C271 C270 1.383 . S
C271 C272 1.395 . S
C272 H243 0.950 . S
C272 C271 1.395 . S
C272 C273 1.288 . S
C273 C272 1.288 . S
C273 C274 1.392 . S
C274 H244 0.951 . S
C274 C273 1.392 . S
C274 C275 1.392 . S
C275 H245 0.949 . S
C275 C270 1.382 . S
C275 C274 1.392 . S
H276 C295 0.949 . S
H277 C296 0.950 . S
H278 C298 0.950 . S
H279 C299 0.950 . S
H280 C301 0.950 . S
H281 C304 0.950 . S
H282 C305 0.950 . S
H283 C307 0.951 . S
H284 C308 0.949 . S
H285 C310 0.949 . S
H286 C311 0.950 . S
H287 C313 0.950 . S
H288 C314 0.950 . S
H289 C316 0.950 . S
H290 C319 0.950 . S
H291 C320 0.950 . S
H292 C322 0.951 . S
H293 C323 0.949 . S
C294 C295 1.376 . S
C294 C299 1.386 . S
C294 C300 1.483 . S
C295 H276 0.949 . S
C295 C294 1.376 . S
C295 C296 1.397 . S
C296 H277 0.950 . S
C296 C295 1.397 . S
C296 C297 1.391 . S
C297 C296 1.391 . S
C297 C298 1.405 . S
C298 H278 0.950 . S
C298 C297 1.405 . S
C298 C299 1.367 . S
C299 H279 0.950 . S
C299 C294 1.386 . S
C299 C298 1.367 . S
C300 C294 1.483 . S
C300 C301 1.382 . S
C300 C302 1.403 . S
C301 H280 0.950 . S
C301 C300 1.382 . S
C301 C317 1.411 . S
C302 C300 1.403 . S
C302 C303 1.489 . S
C302 C316 1.411 . S
C303 C302 1.489 . S
C303 C304 1.383 . S
C303 C308 1.382 . S
C304 H281 0.950 . S
C304 C303 1.383 . S
C304 C305 1.395 . S
C305 H282 0.950 . S
C305 C304 1.395 . S
C305 C306 1.288 . S
C306 C305 1.288 . S
C306 C307 1.392 . S
C307 H283 0.951 . S
C307 C306 1.392 . S
C307 C308 1.392 . S
C308 H284 0.949 . S
C308 C303 1.382 . S
C308 C307 1.392 . S
C309 C310 1.376 . S
C309 C314 1.386 . S
C309 C315 1.483 . S
C310 H285 0.949 . S
C310 C309 1.376 . S
C310 C311 1.397 . S
C311 H286 0.950 . S
C311 C310 1.397 . S
C311 C312 1.391 . S
C312 C311 1.391 . S
C312 C313 1.405 . S
C313 H287 0.950 . S
C313 C312 1.405 . S
C313 C314 1.367 . S
C314 H288 0.950 . S
C314 C309 1.386 . S
C314 C313 1.367 . S
C315 C309 1.483 . S
C315 C316 1.382 . S
C315 C317 1.403 . S
C316 H289 0.950 . S
C316 C302 1.411 . S
C316 C315 1.382 . S
C317 C301 1.411 . S
C317 C315 1.403 . S
C317 C318 1.489 . S
C318 C317 1.489 . S
C318 C319 1.383 . S
C318 C323 1.382 . S
C319 H290 0.950 . S
C319 C318 1.383 . S
C319 C320 1.395 . S
C320 H291 0.950 . S
C320 C319 1.395 . S
C320 C321 1.288 . S
C321 C320 1.288 . S
C321 C322 1.392 . S
C322 H292 0.951 . S
C322 C321 1.392 . S
C322 C323 1.392 . S
C323 H293 0.949 . S
C323 C318 1.382 . S
C323 C322 1.392 . S
H324 C343 0.949 . S
H325 C344 0.950 . S
H326 C346 0.950 . S
H327 C347 0.950 . S
H328 C349 0.950 . S
H329 C352 0.950 . S
H330 C353 0.950 . S
H331 C355 0.951 . S
H332 C356 0.949 . S
H333 C358 0.949 . S
H334 C359 0.950 . S
H335 C361 0.950 . S
H336 C362 0.950 . S
H337 C364 0.950 . S
H338 C367 0.950 . S
H339 C368 0.950 . S
H340 C370 0.951 . S
H341 C371 0.949 . S
C342 C343 1.376 . S
C342 C347 1.386 . S
C342 C348 1.483 . S
C343 H324 0.949 . S
C343 C342 1.376 . S
C343 C344 1.397 . S
C344 H325 0.950 . S
C344 C343 1.397 . S
C344 C345 1.391 . S
C345 C344 1.391 . S
C345 C346 1.405 . S
C346 H326 0.950 . S
C346 C345 1.405 . S
C346 C347 1.367 . S
C347 H327 0.950 . S
C347 C342 1.386 . S
C347 C346 1.367 . S
C348 C342 1.483 . S
C348 C349 1.382 . S
C348 C350 1.403 . S
C349 H328 0.950 . S
C349 C348 1.382 . S
C349 C365 1.411 . S
C350 C348 1.403 . S
C350 C351 1.489 . S
C350 C364 1.411 . S
C351 C350 1.489 . S
C351 C352 1.383 . S
C351 C356 1.382 . S
C352 H329 0.950 . S
C352 C351 1.383 . S
C352 C353 1.395 . S
C353 H330 0.950 . S
C353 C352 1.395 . S
C353 C354 1.288 . S
C354 C353 1.288 . S
C354 C355 1.392 . S
C355 H331 0.951 . S
C355 C354 1.392 . S
C355 C356 1.392 . S
C356 H332 0.949 . S
C356 C351 1.382 . S
C356 C355 1.392 . S
C357 C358 1.376 . S
C357 C362 1.386 . S
C357 C363 1.483 . S
C358 H333 0.949 . S
C358 C357 1.376 . S
C358 C359 1.397 . S
C359 H334 0.950 . S
C359 C358 1.397 . S
C359 C360 1.391 . S
C360 C359 1.391 . S
C360 C361 1.405 . S
C361 H335 0.950 . S
C361 C360 1.405 . S
C361 C362 1.367 . S
C362 H336 0.950 . S
C362 C357 1.386 . S
C362 C361 1.367 . S
C363 C357 1.483 . S
C363 C364 1.382 . S
C363 C365 1.403 . S
C364 H337 0.950 . S
C364 C350 1.411 . S
C364 C363 1.382 . S
C365 C349 1.411 . S
C365 C363 1.403 . S
C365 C366 1.489 . S
C366 C365 1.489 . S
C366 C367 1.383 . S
C366 C371 1.382 . S
C367 H338 0.950 . S
C367 C366 1.383 . S
C367 C368 1.395 . S
C368 H339 0.950 . S
C368 C367 1.395 . S
C368 C369 1.288 . S
C369 C368 1.288 . S
C369 C370 1.392 . S
C370 H340 0.951 . S
C370 C369 1.392 . S
C370 C371 1.392 . S
C371 H341 0.949 . S
C371 C366 1.382 . S
C371 C370 1.392 . S
H372 C380 0.929 . S
H373 C382 0.930 . S
H374 C384 0.930 . S
H375 C387 0.929 . S
H376 C390 0.930 . S
H377 C392 0.960 . S
H378 C392 0.960 . S
H379 C392 0.960 . S
C380 H372 0.929 . S
C380 C381 1.377 . S
C380 C382 1.384 . S
C381 C380 1.377 . S
C381 C387 1.390 . S
C382 H373 0.930 . S
C382 C380 1.384 . S
C382 C383 1.372 . S
C383 C382 1.372 . S
C383 C384 1.400 . S
C383 C388 1.490 . S
C384 H374 0.930 . S
C384 C383 1.400 . S
C384 C387 1.386 . S
H385 C401 0.930 . S
H386 C402 0.931 . S
C387 H375 0.929 . S
C387 C381 1.390 . S
C387 C384 1.386 . S
C388 C383 1.490 . S
C388 C390 1.395 . S
C388 C391 1.403 . S
H389 C395 0.930 . S
C390 H376 0.930 . S
C390 C388 1.395 . S
C390 C393 1.403 . S
C391 C388 1.403 . S
C391 C392 1.524 . S
C391 C395 1.400 . S
C392 H377 0.960 . S
C392 H378 0.960 . S
C392 H379 0.960 . S
C392 C391 1.524 . S
C393 C390 1.403 . S
C393 C394 1.392 . S
C393 C397 1.495 . S
C394 C393 1.392 . S
C394 C395 1.385 . S
C394 C396 1.478 . S
C395 H389 0.930 . S
C395 C391 1.400 . S
C395 C394 1.385 . S
C396 C394 1.478 . S
C396 C398 1.381 . S
C396 C402 1.383 . S
C397 C393 1.495 . S
C397 H403 0.959 . S
C397 H404 0.961 . S
C397 H405 0.960 . S
C398 C396 1.381 . S
C398 C399 1.394 . S
C398 H406 0.930 . S
C399 C398 1.394 . S
C399 C400 1.383 . S
C399 H407 0.929 . S
C400 C399 1.383 . S
C400 C401 1.377 . S
C401 H385 0.930 . S
C401 C400 1.377 . S
C401 C402 1.379 . S
C402 H386 0.931 . S
C402 C396 1.383 . S
C402 C401 1.379 . S
H403 C397 0.959 . S
H404 C397 0.961 . S
H405 C397 0.960 . S
H406 C398 0.930 . S
H407 C399 0.929 . S
H408 C416 0.929 . S
H409 C418 0.930 . S
H410 C420 0.930 . S
H411 C423 0.929 . S
H412 C426 0.930 . S
H413 C428 0.960 . S
H414 C428 0.960 . S
H415 C428 0.960 . S
C416 H408 0.929 . S
C416 C417 1.377 . S
C416 C418 1.384 . S
C417 C416 1.377 . S
C417 C423 1.390 . S
C418 H409 0.930 . S
C418 C416 1.384 . S
C418 C419 1.372 . S
C419 C418 1.372 . S
C419 C420 1.400 . S
C419 C424 1.490 . S
C420 H410 0.930 . S
C420 C419 1.400 . S
C420 C423 1.386 . S
H421 C437 0.930 . S
H422 C438 0.931 . S
C423 H411 0.929 . S
C423 C417 1.390 . S
C423 C420 1.386 . S
C424 C419 1.490 . S
C424 C426 1.395 . S
C424 C427 1.403 . S
H425 C431 0.930 . S
C426 H412 0.930 . S
C426 C424 1.395 . S
C426 C429 1.403 . S
C427 C424 1.403 . S
C427 C428 1.524 . S
C427 C431 1.400 . S
C428 H413 0.960 . S
C428 H414 0.960 . S
C428 H415 0.960 . S
C428 C427 1.524 . S
C429 C426 1.403 . S
C429 C430 1.392 . S
C429 C433 1.495 . S
C430 C429 1.392 . S
C430 C431 1.385 . S
C430 C432 1.478 . S
C431 H425 0.930 . S
C431 C427 1.400 . S
C431 C430 1.385 . S
C432 C430 1.478 . S
C432 C434 1.381 . S
C432 C438 1.383 . S
C433 C429 1.495 . S
C433 H439 0.959 . S
C433 H440 0.961 . S
C433 H441 0.960 . S
C434 C432 1.381 . S
C434 C435 1.394 . S
C434 H442 0.930 . S
C435 C434 1.394 . S
C435 C436 1.383 . S
C435 H443 0.929 . S
C436 C435 1.383 . S
C436 C437 1.377 . S
C437 H421 0.930 . S
C437 C436 1.377 . S
C437 C438 1.379 . S
C438 H422 0.931 . S
C438 C432 1.383 . S
C438 C437 1.379 . S
H439 C433 0.959 . S
H440 C433 0.961 . S
H441 C433 0.960 . S
H442 C434 0.930 . S
H443 C435 0.929 . S
H444 C452 0.929 . S
H445 C454 0.930 . S
H446 C456 0.930 . S
H447 C459 0.929 . S
H448 C462 0.930 . S
H449 C464 0.960 . S
H450 C464 0.960 . S
H451 C464 0.960 . S
C452 H444 0.929 . S
C452 C453 1.377 . S
C452 C454 1.384 . S
C453 C452 1.377 . S
C453 C459 1.390 . S
C454 H445 0.930 . S
C454 C452 1.384 . S
C454 C455 1.372 . S
C455 C454 1.372 . S
C455 C456 1.400 . S
C455 C460 1.490 . S
C456 H446 0.930 . S
C456 C455 1.400 . S
C456 C459 1.386 . S
H457 C473 0.930 . S
H458 C474 0.931 . S
C459 H447 0.929 . S
C459 C453 1.390 . S
C459 C456 1.386 . S
C460 C455 1.490 . S
C460 C462 1.395 . S
C460 C463 1.403 . S
H461 C467 0.930 . S
C462 H448 0.930 . S
C462 C460 1.395 . S
C462 C465 1.403 . S
C463 C460 1.403 . S
C463 C464 1.524 . S
C463 C467 1.400 . S
C464 H449 0.960 . S
C464 H450 0.960 . S
C464 H451 0.960 . S
C464 C463 1.524 . S
C465 C462 1.403 . S
C465 C466 1.392 . S
C465 C469 1.495 . S
C466 C465 1.392 . S
C466 C467 1.385 . S
C466 C468 1.478 . S
C467 H461 0.930 . S
C467 C463 1.400 . S
C467 C466 1.385 . S
C468 C466 1.478 . S
C468 C470 1.381 . S
C468 C474 1.383 . S
C469 C465 1.495 . S
C469 H475 0.959 . S
C469 H476 0.961 . S
C469 H477 0.960 . S
C470 C468 1.381 . S
C470 C471 1.394 . S
C470 H478 0.930 . S
C471 C470 1.394 . S
C471 C472 1.383 . S
C471 H479 0.929 . S
C472 C471 1.383 . S
C472 C473 1.377 . S
C473 H457 0.930 . S
C473 C472 1.377 . S
C473 C474 1.379 . S
C474 H458 0.931 . S
C474 C468 1.383 . S
C474 C473 1.379 . S
H475 C469 0.959 . S
H476 C469 0.961 . S
H477 C469 0.960 . S
H478 C470 0.930 . S
H479 C471 0.929 . S
H480 C488 0.929 . S
H481 C490 0.930 . S
H482 C492 0.930 . S
H483 C495 0.929 . S
H484 C498 0.930 . S
H485 C500 0.960 . S
H486 C500 0.960 . S
H487 C500 0.960 . S
C488 H480 0.929 . S
C488 C489 1.377 . S
C488 C490 1.384 . S
C489 C488 1.377 . S
C489 C495 1.390 . S
C490 H481 0.930 . S
C490 C488 1.384 . S
C490 C491 1.372 . S
C491 C490 1.372 . S
C491 C492 1.400 . S
C491 C496 1.490 . S
C492 H482 0.930 . S
C492 C491 1.400 . S
C492 C495 1.386 . S
H493 C509 0.930 . S
H494 C510 0.931 . S
C495 H483 0.929 . S
C495 C489 1.390 . S
C495 C492 1.386 . S
C496 C491 1.490 . S
C496 C498 1.395 . S
C496 C499 1.403 . S
H497 C503 0.930 . S
C498 H484 0.930 . S
C498 C496 1.395 . S
C498 C501 1.403 . S
C499 C496 1.403 . S
C499 C500 1.524 . S
C499 C503 1.400 . S
C500 H485 0.960 . S
C500 H486 0.960 . S
C500 H487 0.960 . S
C500 C499 1.524 . S
C501 C498 1.403 . S
C501 C502 1.392 . S
C501 C505 1.495 . S
C502 C501 1.392 . S
C502 C503 1.385 . S
C502 C504 1.478 . S
C503 H497 0.930 . S
C503 C499 1.400 . S
C503 C502 1.385 . S
C504 C502 1.478 . S
C504 C506 1.381 . S
C504 C510 1.383 . S
C505 C501 1.495 . S
C505 H511 0.959 . S
C505 H512 0.961 . S
C505 H513 0.960 . S
C506 C504 1.381 . S
C506 C507 1.394 . S
C506 H514 0.930 . S
C507 C506 1.394 . S
C507 C508 1.383 . S
C507 H515 0.929 . S
C508 C507 1.383 . S
C508 C509 1.377 . S
C509 H493 0.930 . S
C509 C508 1.377 . S
C509 C510 1.379 . S
C510 H494 0.931 . S
C510 C504 1.383 . S
C510 C509 1.379 . S
H511 C505 0.959 . S
H512 C505 0.961 . S
H513 C505 0.960 . S
H514 C506 0.930 . S
H515 C507 0.929 . S
H516 C524 0.929 . S
H517 C526 0.930 . S
H518 C528 0.930 . S
H519 C531 0.929 . S
H520 C534 0.930 . S
H521 C536 0.960 . S
H522 C536 0.960 . S
H523 C536 0.960 . S
C524 H516 0.929 . S
C524 C525 1.377 . S
C524 C526 1.384 . S
C525 C524 1.377 . S
C525 C531 1.390 . S
C526 H517 0.930 . S
C526 C524 1.384 . S
C526 C527 1.372 . S
C527 C526 1.372 . S
C527 C528 1.400 . S
C527 C532 1.490 . S
C528 H518 0.930 . S
C528 C527 1.400 . S
C528 C531 1.386 . S
H529 C545 0.930 . S
H530 C546 0.931 . S
C531 H519 0.929 . S
C531 C525 1.390 . S
C531 C528 1.386 . S
C532 C527 1.490 . S
C532 C534 1.395 . S
C532 C535 1.403 . S
H533 C539 0.930 . S
C534 H520 0.930 . S
C534 C532 1.395 . S
C534 C537 1.403 . S
C535 C532 1.403 . S
C535 C536 1.524 . S
C535 C539 1.400 . S
C536 H521 0.960 . S
C536 H522 0.960 . S
C536 H523 0.960 . S
C536 C535 1.524 . S
C537 C534 1.403 . S
C537 C538 1.392 . S
C537 C541 1.495 . S
C538 C537 1.392 . S
C538 C539 1.385 . S
C538 C540 1.478 . S
C539 H533 0.930 . S
C539 C535 1.400 . S
C539 C538 1.385 . S
C540 C538 1.478 . S
C540 C542 1.381 . S
C540 C546 1.383 . S
C541 C537 1.495 . S
C541 H547 0.959 . S
C541 H548 0.961 . S
C541 H549 0.960 . S
C542 C540 1.381 . S
C542 C543 1.394 . S
C542 H550 0.930 . S
C543 C542 1.394 . S
C543 C544 1.383 . S
C543 H551 0.929 . S
C544 C543 1.383 . S
C544 C545 1.377 . S
C545 H529 0.930 . S
C545 C544 1.377 . S
C545 C546 1.379 . S
C546 H530 0.931 . S
C546 C540 1.383 . S
C546 C545 1.379 . S
H547 C541 0.959 . S
H548 C541 0.961 . S
H549 C541 0.960 . S
H550 C542 0.930 . S
H551 C543 0.929 . S
H552 C560 0.929 . S
H553 C562 0.930 . S
H554 C564 0.930 . S
H555 C567 0.929 . S
H556 C570 0.930 . S
H557 C572 0.960 . S
H558 C572 0.960 . S
H559 C572 0.960 . S
C560 H552 0.929 . S
C560 C561 1.377 . S
C560 C562 1.384 . S
C561 C560 1.377 . S
C561 C567 1.390 . S
C562 H553 0.930 . S
C562 C560 1.384 . S
C562 C563 1.372 . S
C563 C562 1.372 . S
C563 C564 1.400 . S
C563 C568 1.490 . S
C564 H554 0.930 . S
C564 C563 1.400 . S
C564 C567 1.386 . S
H565 C581 0.930 . S
H566 C582 0.931 . S
C567 H555 0.929 . S
C567 C561 1.390 . S
C567 C564 1.386 . S
C568 C563 1.490 . S
C568 C570 1.395 . S
C568 C571 1.403 . S
H569 C575 0.930 . S
C570 H556 0.930 . S
C570 C568 1.395 . S
C570 C573 1.403 . S
C571 C568 1.403 . S
C571 C572 1.524 . S
C571 C575 1.400 . S
C572 H557 0.960 . S
C572 H558 0.960 . S
C572 H559 0.960 . S
C572 C571 1.524 . S
C573 C570 1.403 . S
C573 C574 1.392 . S
C573 C577 1.495 . S
C574 C573 1.392 . S
C574 C575 1.385 . S
C574 C576 1.478 . S
C575 H569 0.930 . S
C575 C571 1.400 . S
C575 C574 1.385 . S
C576 C574 1.478 . S
C576 C578 1.381 . S
C576 C582 1.383 . S
C577 C573 1.495 . S
C577 H583 0.959 . S
C577 H584 0.961 . S
C577 H585 0.960 . S
C578 C576 1.381 . S
C578 C579 1.394 . S
C578 H586 0.930 . S
C579 C578 1.394 . S
C579 C580 1.383 . S
C579 H587 0.929 . S
C580 C579 1.383 . S
C580 C581 1.377 . S
C581 H565 0.930 . S
C581 C580 1.377 . S
C581 C582 1.379 . S
C582 H566 0.931 . S
C582 C576 1.383 . S
C582 C581 1.379 . S
H583 C577 0.959 . S
H584 C577 0.961 . S
H585 C577 0.960 . S
H586 C578 0.930 . S
H587 C579 0.929 . S
H588 C596 0.929 . S
H589 C598 0.930 . S
H590 C600 0.930 . S
H591 C603 0.929 . S
H592 C606 0.930 . S
H593 C608 0.960 . S
H594 C608 0.960 . S
H595 C608 0.960 . S
C596 H588 0.929 . S
C596 C597 1.377 . S
C596 C598 1.384 . S
C597 C596 1.377 . S
C597 C603 1.390 . S
C598 H589 0.930 . S
C598 C596 1.384 . S
C598 C599 1.372 . S
C599 C598 1.372 . S
C599 C600 1.400 . S
C599 C604 1.490 . S
C600 H590 0.930 . S
C600 C599 1.400 . S
C600 C603 1.386 . S
H601 C617 0.930 . S
H602 C618 0.931 . S
C603 H591 0.929 . S
C603 C597 1.390 . S
C603 C600 1.386 . S
C604 C599 1.490 . S
C604 C606 1.395 . S
C604 C607 1.403 . S
H605 C611 0.930 . S
C606 H592 0.930 . S
C606 C604 1.395 . S
C606 C609 1.403 . S
C607 C604 1.403 . S
C607 C608 1.524 . S
C607 C611 1.400 . S
C608 H593 0.960 . S
C608 H594 0.960 . S
C608 H595 0.960 . S
C608 C607 1.524 . S
C609 C606 1.403 . S
C609 C610 1.392 . S
C609 C613 1.495 . S
C610 C609 1.392 . S
C610 C611 1.385 . S
C610 C612 1.478 . S
C611 H605 0.930 . S
C611 C607 1.400 . S
C611 C610 1.385 . S
C612 C610 1.478 . S
C612 C614 1.381 . S
C612 C618 1.383 . S
C613 C609 1.495 . S
C613 H619 0.959 . S
C613 H620 0.961 . S
C613 H621 0.960 . S
C614 C612 1.381 . S
C614 C615 1.394 . S
C614 H622 0.930 . S
C615 C614 1.394 . S
C615 C616 1.383 . S
C615 H623 0.929 . S
C616 C615 1.383 . S
C616 C617 1.377 . S
C617 H601 0.930 . S
C617 C616 1.377 . S
C617 C618 1.379 . S
C618 H602 0.931 . S
C618 C612 1.383 . S
C618 C617 1.379 . S
H619 C613 0.959 . S
H620 C613 0.961 . S
H621 C613 0.960 . S
H622 C614 0.930 . S
H623 C615 0.929 . S
H624 C632 0.929 . S
H625 C634 0.930 . S
H626 C636 0.930 . S
H627 C639 0.929 . S
H628 C642 0.930 . S
H629 C644 0.960 . S
H630 C644 0.960 . S
H631 C644 0.960 . S
C632 H624 0.929 . S
C632 C633 1.377 . S
C632 C634 1.384 . S
C633 C632 1.377 . S
C633 C639 1.390 . S
C634 H625 0.930 . S
C634 C632 1.384 . S
C634 C635 1.372 . S
C635 C634 1.372 . S
C635 C636 1.400 . S
C635 C640 1.490 . S
C636 H626 0.930 . S
C636 C635 1.400 . S
C636 C639 1.386 . S
H637 C653 0.930 . S
H638 C654 0.931 . S
C639 H627 0.929 . S
C639 C633 1.390 . S
C639 C636 1.386 . S
C640 C635 1.490 . S
C640 C642 1.395 . S
C640 C643 1.403 . S
H641 C647 0.930 . S
C642 H628 0.930 . S
C642 C640 1.395 . S
C642 C645 1.403 . S
C643 C640 1.403 . S
C643 C644 1.524 . S
C643 C647 1.400 . S
C644 H629 0.960 . S
C644 H630 0.960 . S
C644 H631 0.960 . S
C644 C643 1.524 . S
C645 C642 1.403 . S
C645 C646 1.392 . S
C645 C649 1.495 . S
C646 C645 1.392 . S
C646 C647 1.385 . S
C646 C648 1.478 . S
C647 H641 0.930 . S
C647 C643 1.400 . S
C647 C646 1.385 . S
C648 C646 1.478 . S
C648 C650 1.381 . S
C648 C654 1.383 . S
C649 C645 1.495 . S
C649 H655 0.959 . S
C649 H656 0.961 . S
C649 H657 0.960 . S
C650 C648 1.381 . S
C650 C651 1.394 . S
C650 H658 0.930 . S
C651 C650 1.394 . S
C651 C652 1.383 . S
C651 H659 0.929 . S
C652 C651 1.383 . S
C652 C653 1.377 . S
C653 H637 0.930 . S
C653 C652 1.377 . S
C653 C654 1.379 . S
C654 H638 0.931 . S
C654 C648 1.383 . S
C654 C653 1.379 . S
H655 C649 0.959 . S
H656 C649 0.961 . S
H657 C649 0.960 . S
H658 C650 0.930 . S
H659 C651 0.929 . S
H660 C668 0.929 . S
H661 C670 0.930 . S
H662 C672 0.930 . S
H663 C675 0.929 . S
H664 C678 0.930 . S
H665 C680 0.960 . S
H666 C680 0.960 . S
H667 C680 0.960 . S
C668 H660 0.929 . S
C668 C669 1.377 . S
C668 C670 1.384 . S
C669 C668 1.377 . S
C669 C675 1.390 . S
C670 H661 0.930 . S
C670 C668 1.384 . S
C670 C671 1.372 . S
C671 C670 1.372 . S
C671 C672 1.400 . S
C671 C676 1.490 . S
C672 H662 0.930 . S
C672 C671 1.400 . S
C672 C675 1.386 . S
H673 C689 0.930 . S
H674 C690 0.931 . S
C675 H663 0.929 . S
C675 C669 1.390 . S
C675 C672 1.386 . S
C676 C671 1.490 . S
C676 C678 1.395 . S
C676 C679 1.403 . S
H677 C683 0.930 . S
C678 H664 0.930 . S
C678 C676 1.395 . S
C678 C681 1.403 . S
C679 C676 1.403 . S
C679 C680 1.524 . S
C679 C683 1.400 . S
C680 H665 0.960 . S
C680 H666 0.960 . S
C680 H667 0.960 . S
C680 C679 1.524 . S
C681 C678 1.403 . S
C681 C682 1.392 . S
C681 C685 1.495 . S
C682 C681 1.392 . S
C682 C683 1.385 . S
C682 C684 1.478 . S
C683 H677 0.930 . S
C683 C679 1.400 . S
C683 C682 1.385 . S
C684 C682 1.478 . S
C684 C686 1.381 . S
C684 C690 1.383 . S
C685 C681 1.495 . S
C685 H691 0.959 . S
C685 H692 0.961 . S
C685 H693 0.960 . S
C686 C684 1.381 . S
C686 C687 1.394 . S
C686 H694 0.930 . S
C687 C686 1.394 . S
C687 C688 1.383 . S
C687 H695 0.929 . S
C688 C687 1.383 . S
C688 C689 1.377 . S
C689 H673 0.930 . S
C689 C688 1.377 . S
C689 C690 1.379 . S
C690 H674 0.931 . S
C690 C684 1.383 . S
C690 C689 1.379 . S
H691 C685 0.959 . S
H692 C685 0.961 . S
H693 C685 0.960 . S
H694 C686 0.930 . S
H695 C687 0.929 . S
H696 C704 0.929 . S
H697 C706 0.930 . S
H698 C708 0.930 . S
H699 C711 0.929 . S
H700 C714 0.930 . S
H701 C716 0.960 . S
H702 C716 0.960 . S
H703 C716 0.960 . S
C704 H696 0.929 . S
C704 C705 1.377 . S
C704 C706 1.384 . S
C705 C704 1.377 . S
C705 C711 1.390 . S
C706 H697 0.930 . S
C706 C704 1.384 . S
C706 C707 1.372 . S
C707 C706 1.372 . S
C707 C708 1.400 . S
C707 C712 1.490 . S
C708 H698 0.930 . S
C708 C707 1.400 . S
C708 C711 1.386 . S
H709 C725 0.930 . S
H710 C726 0.931 . S
C711 H699 0.929 . S
C711 C705 1.390 . S
C711 C708 1.386 . S
C712 C707 1.490 . S
C712 C714 1.395 . S
C712 C715 1.403 . S
H713 C719 0.930 . S
C714 H700 0.930 . S
C714 C712 1.395 . S
C714 C717 1.403 . S
C715 C712 1.403 . S
C715 C716 1.524 . S
C715 C719 1.400 . S
C716 H701 0.960 . S
C716 H702 0.960 . S
C716 H703 0.960 . S
C716 C715 1.524 . S
C717 C714 1.403 . S
C717 C718 1.392 . S
C717 C721 1.495 . S
C718 C717 1.392 . S
C718 C719 1.385 . S
C718 C720 1.478 . S
C719 H713 0.930 . S
C719 C715 1.400 . S
C719 C718 1.385 . S
C720 C718 1.478 . S
C720 C722 1.381 . S
C720 C726 1.383 . S
C721 C717 1.495 . S
C721 H727 0.959 . S
C721 H728 0.961 . S
C721 H729 0.960 . S
C722 C720 1.381 . S
C722 C723 1.394 . S
C722 H730 0.930 . S
C723 C722 1.394 . S
C723 C724 1.383 . S
C723 H731 0.929 . S
C724 C723 1.383 . S
C724 C725 1.377 . S
C725 H709 0.930 . S
C725 C724 1.377 . S
C725 C726 1.379 . S
C726 H710 0.931 . S
C726 C720 1.383 . S
C726 C725 1.379 . S
H727 C721 0.959 . S
H728 C721 0.961 . S
H729 C721 0.960 . S
H730 C722 0.930 . S
H731 C723 0.929 . S
H732 C740 0.929 . S
H733 C742 0.930 . S
H734 C744 0.930 . S
H735 C747 0.929 . S
H736 C750 0.930 . S
H737 C752 0.960 . S
H738 C752 0.960 . S
H739 C752 0.960 . S
C740 H732 0.929 . S
C740 C741 1.377 . S
C740 C742 1.384 . S
C741 C740 1.377 . S
C741 C747 1.390 . S
C742 H733 0.930 . S
C742 C740 1.384 . S
C742 C743 1.372 . S
C743 C742 1.372 . S
C743 C744 1.400 . S
C743 C748 1.490 . S
C744 H734 0.930 . S
C744 C743 1.400 . S
C744 C747 1.386 . S
H745 C761 0.930 . S
H746 C762 0.931 . S
C747 H735 0.929 . S
C747 C741 1.390 . S
C747 C744 1.386 . S
C748 C743 1.490 . S
C748 C750 1.395 . S
C748 C751 1.403 . S
H749 C755 0.930 . S
C750 H736 0.930 . S
C750 C748 1.395 . S
C750 C753 1.403 . S
C751 C748 1.403 . S
C751 C752 1.524 . S
C751 C755 1.400 . S
C752 H737 0.960 . S
C752 H738 0.960 . S
C752 H739 0.960 . S
C752 C751 1.524 . S
C753 C750 1.403 . S
C753 C754 1.392 . S
C753 C757 1.495 . S
C754 C753 1.392 . S
C754 C755 1.385 . S
C754 C756 1.478 . S
C755 H749 0.930 . S
C755 C751 1.400 . S
C755 C754 1.385 . S
C756 C754 1.478 . S
C756 C758 1.381 . S
C756 C762 1.383 . S
C757 C753 1.495 . S
C757 H763 0.959 . S
C757 H764 0.961 . S
C757 H765 0.960 . S
C758 C756 1.381 . S
C758 C759 1.394 . S
C758 H766 0.930 . S
C759 C758 1.394 . S
C759 C760 1.383 . S
C759 H767 0.929 . S
C760 C759 1.383 . S
C760 C761 1.377 . S
C761 H745 0.930 . S
C761 C760 1.377 . S
C761 C762 1.379 . S
C762 H746 0.931 . S
C762 C756 1.383 . S
C762 C761 1.379 . S
H763 C757 0.959 . S
H764 C757 0.961 . S
H765 C757 0.960 . S
H766 C758 0.930 . S
H767 C759 0.929 . S
H768 C776 0.929 . S
H769 C778 0.930 . S
H770 C780 0.930 . S
H771 C783 0.929 . S
H772 C786 0.930 . S
H773 C788 0.960 . S
H774 C788 0.960 . S
H775 C788 0.960 . S
C776 H768 0.929 . S
C776 C777 1.377 . S
C776 C778 1.384 . S
C777 C776 1.377 . S
C777 C783 1.390 . S
C778 H769 0.930 . S
C778 C776 1.384 . S
C778 C779 1.372 . S
C779 C778 1.372 . S
C779 C780 1.400 . S
C779 C784 1.490 . S
C780 H770 0.930 . S
C780 C779 1.400 . S
C780 C783 1.386 . S
H781 C797 0.930 . S
H782 C798 0.931 . S
C783 H771 0.929 . S
C783 C777 1.390 . S
C783 C780 1.386 . S
C784 C779 1.490 . S
C784 C786 1.395 . S
C784 C787 1.403 . S
H785 C791 0.930 . S
C786 H772 0.930 . S
C786 C784 1.395 . S
C786 C789 1.403 . S
C787 C784 1.403 . S
C787 C788 1.524 . S
C787 C791 1.400 . S
C788 H773 0.960 . S
C788 H774 0.960 . S
C788 H775 0.960 . S
C788 C787 1.524 . S
C789 C786 1.403 . S
C789 C790 1.392 . S
C789 C793 1.495 . S
C790 C789 1.392 . S
C790 C791 1.385 . S
C790 C792 1.478 . S
C791 H785 0.930 . S
C791 C787 1.400 . S
C791 C790 1.385 . S
C792 C790 1.478 . S
C792 C794 1.381 . S
C792 C798 1.383 . S
C793 C789 1.495 . S
C793 H799 0.959 . S
C793 H800 0.961 . S
C793 H801 0.960 . S
C794 C792 1.381 . S
C794 C795 1.394 . S
C794 H802 0.930 . S
C795 C794 1.394 . S
C795 C796 1.383 . S
C795 H803 0.929 . S
C796 C795 1.383 . S
C796 C797 1.377 . S
C797 H781 0.930 . S
C797 C796 1.377 . S
C797 C798 1.379 . S
C798 H782 0.931 . S
C798 C792 1.383 . S
C798 C797 1.379 . S
H799 C793 0.959 . S
H800 C793 0.961 . S
H801 C793 0.960 . S
H802 C794 0.930 . S
H803 C795 0.929 . S
H804 C812 0.929 . S
H805 C814 0.930 . S
H806 C816 0.930 . S
H807 C819 0.929 . S
H808 C822 0.930 . S
H809 C824 0.960 . S
H810 C824 0.960 . S
H811 C824 0.960 . S
C812 H804 0.929 . S
C812 C813 1.377 . S
C812 C814 1.384 . S
C813 C812 1.377 . S
C813 C819 1.390 . S
C814 H805 0.930 . S
C814 C812 1.384 . S
C814 C815 1.372 . S
C815 C814 1.372 . S
C815 C816 1.400 . S
C815 C820 1.490 . S
C816 H806 0.930 . S
C816 C815 1.400 . S
C816 C819 1.386 . S
H817 C833 0.930 . S
H818 C834 0.931 . S
C819 H807 0.929 . S
C819 C813 1.390 . S
C819 C816 1.386 . S
C820 C815 1.490 . S
C820 C822 1.395 . S
C820 C823 1.403 . S
H821 C827 0.930 . S
C822 H808 0.930 . S
C822 C820 1.395 . S
C822 C825 1.403 . S
C823 C820 1.403 . S
C823 C824 1.524 . S
C823 C827 1.400 . S
C824 H809 0.960 . S
C824 H810 0.960 . S
C824 H811 0.960 . S
C824 C823 1.524 . S
C825 C822 1.403 . S
C825 C826 1.392 . S
C825 C829 1.495 . S
C826 C825 1.392 . S
C826 C827 1.385 . S
C826 C828 1.478 . S
C827 H821 0.930 . S
C827 C823 1.400 . S
C827 C826 1.385 . S
C828 C826 1.478 . S
C828 C830 1.381 . S
C828 C834 1.383 . S
C829 C825 1.495 . S
C829 H835 0.959 . S
C829 H836 0.961 . S
C829 H837 0.960 . S
C830 C828 1.381 . S
C830 C831 1.394 . S
C830 H838 0.930 . S
C831 C830 1.394 . S
C831 C832 1.383 . S
C831 H839 0.929 . S
C832 C831 1.383 . S
C832 C833 1.377 . S
C833 H817 0.930 . S
C833 C832 1.377 . S
C833 C834 1.379 . S
C834 H818 0.931 . S
C834 C828 1.383 . S
C834 C833 1.379 . S
H835 C829 0.959 . S
H836 C829 0.961 . S
H837 C829 0.960 . S
H838 C830 0.930 . S
H839 C831 0.929 . S
H840 C848 0.929 . S
H841 C850 0.930 . S
H842 C852 0.930 . S
H843 C855 0.929 . S
H844 C858 0.930 . S
H845 C860 0.960 . S
H846 C860 0.960 . S
H847 C860 0.960 . S
C848 H840 0.929 . S
C848 C849 1.377 . S
C848 C850 1.384 . S
C849 C848 1.377 . S
C849 C855 1.390 . S
C850 H841 0.930 . S
C850 C848 1.384 . S
C850 C851 1.372 . S
C851 C850 1.372 . S
C851 C852 1.400 . S
C851 C856 1.490 . S
C852 H842 0.930 . S
C852 C851 1.400 . S
C852 C855 1.386 . S
H853 C869 0.930 . S
H854 C870 0.931 . S
C855 H843 0.929 . S
C855 C849 1.390 . S
C855 C852 1.386 . S
C856 C851 1.490 . S
C856 C858 1.395 . S
C856 C859 1.403 . S
H857 C863 0.930 . S
C858 H844 0.930 . S
C858 C856 1.395 . S
C858 C861 1.403 . S
C859 C856 1.403 . S
C859 C860 1.524 . S
C859 C863 1.400 . S
C860 H845 0.960 . S
C860 H846 0.960 . S
C860 H847 0.960 . S
C860 C859 1.524 . S
C861 C858 1.403 . S
C861 C862 1.392 . S
C861 C865 1.495 . S
C862 C861 1.392 . S
C862 C863 1.385 . S
C862 C864 1.478 . S
C863 H857 0.930 . S
C863 C859 1.400 . S
C863 C862 1.385 . S
C864 C862 1.478 . S
C864 C866 1.381 . S
C864 C870 1.383 . S
C865 C861 1.495 . S
C865 H871 0.959 . S
C865 H872 0.961 . S
C865 H873 0.960 . S
C866 C864 1.381 . S
C866 C867 1.394 . S
C866 H874 0.930 . S
C867 C866 1.394 . S
C867 C868 1.383 . S
C867 H875 0.929 . S
C868 C867 1.383 . S
C868 C869 1.377 . S
C869 H853 0.930 . S
C869 C868 1.377 . S
C869 C870 1.379 . S
C870 H854 0.931 . S
C870 C864 1.383 . S
C870 C869 1.379 . S
H871 C865 0.959 . S
H872 C865 0.961 . S
H873 C865 0.960 . S
H874 C866 0.930 . S
H875 C867 0.929 . S
H876 C884 0.929 . S
H877 C886 0.930 . S
H878 C888 0.930 . S
H879 C891 0.929 . S
H880 C894 0.930 . S
H881 C896 0.960 . S
H882 C896 0.960 . S
H883 C896 0.960 . S
C884 H876 0.929 . S
C884 C885 1.377 . S
C884 C886 1.384 . S
C885 C884 1.377 . S
C885 C891 1.390 . S
C886 H877 0.930 . S
C886 C884 1.384 . S
C886 C887 1.372 . S
C887 C886 1.372 . S
C887 C888 1.400 . S
C887 C892 1.490 . S
C888 H878 0.930 . S
C888 C887 1.400 . S
C888 C891 1.386 . S
H889 C905 0.930 . S
H890 C906 0.931 . S
C891 H879 0.929 . S
C891 C885 1.390 . S
C891 C888 1.386 . S
C892 C887 1.490 . S
C892 C894 1.395 . S
C892 C895 1.403 . S
H893 C899 0.930 . S
C894 H880 0.930 . S
C894 C892 1.395 . S
C894 C897 1.403 . S
C895 C892 1.403 . S
C895 C896 1.524 . S
C895 C899 1.400 . S
C896 H881 0.960 . S
C896 H882 0.960 . S
C896 H883 0.960 . S
C896 C895 1.524 . S
C897 C894 1.403 . S
C897 C898 1.392 . S
C897 C901 1.495 . S
C898 C897 1.392 . S
C898 C899 1.385 . S
C898 C900 1.478 . S
C899 H893 0.930 . S
C899 C895 1.400 . S
C899 C898 1.385 . S
C900 C898 1.478 . S
C900 C902 1.381 . S
C900 C906 1.383 . S
C901 C897 1.495 . S
C901 H907 0.959 . S
C901 H908 0.961 . S
C901 H909 0.960 . S
C902 C900 1.381 . S
C902 C903 1.394 . S
C902 H910 0.930 . S
C903 C902 1.394 . S
C903 C904 1.383 . S
C903 H911 0.929 . S
C904 C903 1.383 . S
C904 C905 1.377 . S
C905 H889 0.930 . S
C905 C904 1.377 . S
C905 C906 1.379 . S
C906 H890 0.931 . S
C906 C900 1.383 . S
C906 C905 1.379 . S
H907 C901 0.959 . S
H908 C901 0.961 . S
H909 C901 0.960 . S
H910 C902 0.930 . S
H911 C903 0.929 . S
H912 C920 0.929 . S
H913 C922 0.930 . S
H914 C924 0.930 . S
H915 C927 0.929 . S
H916 C930 0.930 . S
H917 C932 0.960 . S
H918 C932 0.960 . S
H919 C932 0.960 . S
C920 H912 0.929 . S
C920 C921 1.377 . S
C920 C922 1.384 . S
C921 C920 1.377 . S
C921 C927 1.390 . S
C922 H913 0.930 . S
C922 C920 1.384 . S
C922 C923 1.372 . S
C923 C922 1.372 . S
C923 C924 1.400 . S
C923 C928 1.490 . S
C924 H914 0.930 . S
C924 C923 1.400 . S
C924 C927 1.386 . S
H925 C941 0.930 . S
H926 C942 0.931 . S
C927 H915 0.929 . S
C927 C921 1.390 . S
C927 C924 1.386 . S
C928 C923 1.490 . S
C928 C930 1.395 . S
C928 C931 1.403 . S
H929 C935 0.930 . S
C930 H916 0.930 . S
C930 C928 1.395 . S
C930 C933 1.403 . S
C931 C928 1.403 . S
C931 C932 1.524 . S
C931 C935 1.400 . S
C932 H917 0.960 . S
C932 H918 0.960 . S
C932 H919 0.960 . S
C932 C931 1.524 . S
C933 C930 1.403 . S
C933 C934 1.392 . S
C933 C937 1.495 . S
C934 C933 1.392 . S
C934 C935 1.385 . S
C934 C936 1.478 . S
C935 H929 0.930 . S
C935 C931 1.400 . S
C935 C934 1.385 . S
C936 C934 1.478 . S
C936 C938 1.381 . S
C936 C942 1.383 . S
C937 C933 1.495 . S
C937 H943 0.959 . S
C937 H944 0.961 . S
C937 H945 0.960 . S
C938 C936 1.381 . S
C938 C939 1.394 . S
C938 H946 0.930 . S
C939 C938 1.394 . S
C939 C940 1.383 . S
C939 H947 0.929 . S
C940 C939 1.383 . S
C940 C941 1.377 . S
C941 H925 0.930 . S
C941 C940 1.377 . S
C941 C942 1.379 . S
C942 H926 0.931 . S
C942 C936 1.383 . S
C942 C941 1.379 . S
H943 C937 0.959 . S
H944 C937 0.961 . S
H945 C937 0.960 . S
H946 C938 0.930 . S
H947 C939 0.929 . S
H948 C956 0.929 . S
H949 C958 0.930 . S
H950 C960 0.930 . S
H951 C963 0.929 . S
H952 C966 0.930 . S
H953 C968 0.960 . S
H954 C968 0.960 . S
H955 C968 0.960 . S
C956 H948 0.929 . S
C956 C957 1.377 . S
C956 C958 1.384 . S
C957 C956 1.377 . S
C957 C963 1.390 . S
C958 H949 0.930 . S
C958 C956 1.384 . S
C958 C959 1.372 . S
C959 C958 1.372 . S
C959 C960 1.400 . S
C959 C964 1.490 . S
C960 H950 0.930 . S
C960 C959 1.400 . S
C960 C963 1.386 . S
H961 C977 0.930 . S
H962 C978 0.931 . S
C963 H951 0.929 . S
C963 C957 1.390 . S
C963 C960 1.386 . S
C964 C959 1.490 . S
C964 C966 1.395 . S
C964 C967 1.403 . S
H965 C971 0.930 . S
C966 H952 0.930 . S
C966 C964 1.395 . S
C966 C969 1.403 . S
C967 C964 1.403 . S
C967 C968 1.524 . S
C967 C971 1.400 . S
C968 H953 0.960 . S
C968 H954 0.960 . S
C968 H955 0.960 . S
C968 C967 1.524 . S
C969 C966 1.403 . S
C969 C970 1.392 . S
C969 C973 1.495 . S
C970 C969 1.392 . S
C970 C971 1.385 . S
C970 C972 1.478 . S
C971 H965 0.930 . S
C971 C967 1.400 . S
C971 C970 1.385 . S
C972 C970 1.478 . S
C972 C974 1.381 . S
C972 C978 1.383 . S
C973 C969 1.495 . S
C973 H979 0.959 . S
C973 H980 0.961 . S
C973 H981 0.960 . S
C974 C972 1.381 . S
C974 C975 1.394 . S
C974 H982 0.930 . S
C975 C974 1.394 . S
C975 C976 1.383 . S
C975 H983 0.929 . S
C976 C975 1.383 . S
C976 C977 1.377 . S
C977 H961 0.930 . S
C977 C976 1.377 . S
C977 C978 1.379 . S
C978 H962 0.931 . S
C978 C972 1.383 . S
C978 C977 1.379 . S
H979 C973 0.959 . S
H980 C973 0.961 . S
H981 C973 0.960 . S
H982 C974 0.930 . S
H983 C975 0.929 . S
H984 C992 0.929 . S
H985 C994 0.930 . S
H986 C996 0.930 . S
H987 C999 0.929 . S
H988 C1002 0.930 . S
H989 C1004 0.960 . S
H990 C1004 0.960 . S
H991 C1004 0.960 . S
C992 H984 0.929 . S
C992 C993 1.377 . S
C992 C994 1.384 . S
C993 C992 1.377 . S
C993 C999 1.390 . S
C994 H985 0.930 . S
C994 C992 1.384 . S
C994 C995 1.372 . S
C995 C994 1.372 . S
C995 C996 1.400 . S
C995 C1000 1.490 . S
C996 H986 0.930 . S
C996 C995 1.400 . S
C996 C999 1.386 . S
H997 C1013 0.930 . S
H998 C1014 0.931 . S
C999 H987 0.929 . S
C999 C993 1.390 . S
C999 C996 1.386 . S
C1000 C995 1.490 . S
C1000 C1002 1.395 . S
C1000 C1003 1.403 . S
H1001 C1007 0.930 . S
C1002 H988 0.930 . S
C1002 C1000 1.395 . S
C1002 C1005 1.403 . S
C1003 C1000 1.403 . S
C1003 C1004 1.524 . S
C1003 C1007 1.400 . S
C1004 H989 0.960 . S
C1004 H990 0.960 . S
C1004 H991 0.960 . S
C1004 C1003 1.524 . S
C1005 C1002 1.403 . S
C1005 C1006 1.392 . S
C1005 C1009 1.495 . S
C1006 C1005 1.392 . S
C1006 C1007 1.385 . S
C1006 C1008 1.478 . S
C1007 H1001 0.930 . S
C1007 C1003 1.400 . S
C1007 C1006 1.385 . S
C1008 C1006 1.478 . S
C1008 C1010 1.381 . S
C1008 C1014 1.383 . S
C1009 C1005 1.495 . S
C1009 H1015 0.959 . S
C1009 H1016 0.961 . S
C1009 H1017 0.960 . S
C1010 C1008 1.381 . S
C1010 C1011 1.394 . S
C1010 H1018 0.930 . S
C1011 C1010 1.394 . S
C1011 C1012 1.383 . S
C1011 H1019 0.929 . S
C1012 C1011 1.383 . S
C1012 C1013 1.377 . S
C1013 H997 0.930 . S
C1013 C1012 1.377 . S
C1013 C1014 1.379 . S
C1014 H998 0.931 . S
C1014 C1008 1.383 . S
C1014 C1013 1.379 . S
H1015 C1009 0.959 . S
H1016 C1009 0.961 . S
H1017 C1009 0.960 . S
H1018 C1010 0.930 . S
H1019 C1011 0.929 . S
H1020 C1028 0.929 . S
H1021 C1030 0.930 . S
H1022 C1032 0.930 . S
H1023 C1035 0.929 . S
H1024 C1038 0.930 . S
H1025 C1040 0.960 . S
H1026 C1040 0.960 . S
H1027 C1040 0.960 . S
C1028 H1020 0.929 . S
C1028 C1029 1.377 . S
C1028 C1030 1.384 . S
C1029 C1028 1.377 . S
C1029 C1035 1.390 . S
C1030 H1021 0.930 . S
C1030 C1028 1.384 . S
C1030 C1031 1.372 . S
C1031 C1030 1.372 . S
C1031 C1032 1.400 . S
C1031 C1036 1.490 . S
C1032 H1022 0.930 . S
C1032 C1031 1.400 . S
C1032 C1035 1.386 . S
H1033 C1049 0.930 . S
H1034 C1050 0.931 . S
C1035 H1023 0.929 . S
C1035 C1029 1.390 . S
C1035 C1032 1.386 . S
C1036 C1031 1.490 . S
C1036 C1038 1.395 . S
C1036 C1039 1.403 . S
H1037 C1043 0.930 . S
C1038 H1024 0.930 . S
C1038 C1036 1.395 . S
C1038 C1041 1.403 . S
C1039 C1036 1.403 . S
C1039 C1040 1.524 . S
C1039 C1043 1.400 . S
C1040 H1025 0.960 . S
C1040 H1026 0.960 . S
C1040 H1027 0.960 . S
C1040 C1039 1.524 . S
C1041 C1038 1.403 . S
C1041 C1042 1.392 . S
C1041 C1045 1.495 . S
C1042 C1041 1.392 . S
C1042 C1043 1.385 . S
C1042 C1044 1.478 . S
C1043 H1037 0.930 . S
C1043 C1039 1.400 . S
C1043 C1042 1.385 . S
C1044 C1042 1.478 . S
C1044 C1046 1.381 . S
C1044 C1050 1.383 . S
C1045 C1041 1.495 . S
C1045 H1051 0.959 . S
C1045 H1052 0.961 . S
C1045 H1053 0.960 . S
C1046 C1044 1.381 . S
C1046 C1047 1.394 . S
C1046 H1054 0.930 . S
C1047 C1046 1.394 . S
C1047 C1048 1.383 . S
C1047 H1055 0.929 . S
C1048 C1047 1.383 . S
C1048 C1049 1.377 . S
C1049 H1033 0.930 . S
C1049 C1048 1.377 . S
C1049 C1050 1.379 . S
C1050 H1034 0.931 . S
C1050 C1044 1.383 . S
C1050 C1049 1.379 . S
H1051 C1045 0.959 . S
H1052 C1045 0.961 . S
H1053 C1045 0.960 . S
H1054 C1046 0.930 . S
H1055 C1047 0.929 . S
H1056 C1064 0.929 . S
H1057 C1066 0.930 . S
H1058 C1068 0.930 . S
H1059 C1071 0.929 . S
H1060 C1074 0.930 . S
H1061 C1076 0.960 . S
H1062 C1076 0.960 . S
H1063 C1076 0.960 . S
C1064 H1056 0.929 . S
C1064 C1065 1.377 . S
C1064 C1066 1.384 . S
C1065 C1064 1.377 . S
C1065 C1071 1.390 . S
C1066 H1057 0.930 . S
C1066 C1064 1.384 . S
C1066 C1067 1.372 . S
C1067 C1066 1.372 . S
C1067 C1068 1.400 . S
C1067 C1072 1.490 . S
C1068 H1058 0.930 . S
C1068 C1067 1.400 . S
C1068 C1071 1.386 . S
H1069 C1085 0.930 . S
H1070 C1086 0.931 . S
C1071 H1059 0.929 . S
C1071 C1065 1.390 . S
C1071 C1068 1.386 . S
C1072 C1067 1.490 . S
C1072 C1074 1.395 . S
C1072 C1075 1.403 . S
H1073 C1079 0.930 . S
C1074 H1060 0.930 . S
C1074 C1072 1.395 . S
C1074 C1077 1.403 . S
C1075 C1072 1.403 . S
C1075 C1076 1.524 . S
C1075 C1079 1.400 . S
C1076 H1061 0.960 . S
C1076 H1062 0.960 . S
C1076 H1063 0.960 . S
C1076 C1075 1.524 . S
C1077 C1074 1.403 . S
C1077 C1078 1.392 . S
C1077 C1081 1.495 . S
C1078 C1077 1.392 . S
C1078 C1079 1.385 . S
C1078 C1080 1.478 . S
C1079 H1073 0.930 . S
C1079 C1075 1.400 . S
C1079 C1078 1.385 . S
C1080 C1078 1.478 . S
C1080 C1082 1.381 . S
C1080 C1086 1.383 . S
C1081 C1077 1.495 . S
C1081 H1087 0.959 . S
C1081 H1088 0.961 . S
C1081 H1089 0.960 . S
C1082 C1080 1.381 . S
C1082 C1083 1.394 . S
C1082 H1090 0.930 . S
C1083 C1082 1.394 . S
C1083 C1084 1.383 . S
C1083 H1091 0.929 . S
C1084 C1083 1.383 . S
C1084 C1085 1.377 . S
C1085 H1069 0.930 . S
C1085 C1084 1.377 . S
C1085 C1086 1.379 . S
C1086 H1070 0.931 . S
C1086 C1080 1.383 . S
C1086 C1085 1.379 . S
H1087 C1081 0.959 . S
H1088 C1081 0.961 . S
H1089 C1081 0.960 . S
H1090 C1082 0.930 . S
H1091 C1083 0.929 . S
H1092 C1100 0.929 . S
H1093 C1102 0.930 . S
H1094 C1104 0.930 . S
H1095 C1107 0.929 . S
H1096 C1110 0.930 . S
H1097 C1112 0.960 . S
H1098 C1112 0.960 . S
H1099 C1112 0.960 . S
C1100 H1092 0.929 . S
C1100 C1101 1.377 . S
C1100 C1102 1.384 . S
C1101 C1100 1.377 . S
C1101 C1107 1.390 . S
C1102 H1093 0.930 . S
C1102 C1100 1.384 . S
C1102 C1103 1.372 . S
C1103 C1102 1.372 . S
C1103 C1104 1.400 . S
C1103 C1108 1.490 . S
C1104 H1094 0.930 . S
C1104 C1103 1.400 . S
C1104 C1107 1.386 . S
H1105 C1121 0.930 . S
H1106 C1122 0.931 . S
C1107 H1095 0.929 . S
C1107 C1101 1.390 . S
C1107 C1104 1.386 . S
C1108 C1103 1.490 . S
C1108 C1110 1.395 . S
C1108 C1111 1.403 . S
H1109 C1115 0.930 . S
C1110 H1096 0.930 . S
C1110 C1108 1.395 . S
C1110 C1113 1.403 . S
C1111 C1108 1.403 . S
C1111 C1112 1.524 . S
C1111 C1115 1.400 . S
C1112 H1097 0.960 . S
C1112 H1098 0.960 . S
C1112 H1099 0.960 . S
C1112 C1111 1.524 . S
C1113 C1110 1.403 . S
C1113 C1114 1.392 . S
C1113 C1117 1.495 . S
C1114 C1113 1.392 . S
C1114 C1115 1.385 . S
C1114 C1116 1.478 . S
C1115 H1109 0.930 . S
C1115 C1111 1.400 . S
C1115 C1114 1.385 . S
C1116 C1114 1.478 . S
C1116 C1118 1.381 . S
C1116 C1122 1.383 . S
C1117 C1113 1.495 . S
C1117 H1123 0.959 . S
C1117 H1124 0.961 . S
C1117 H1125 0.960 . S
C1118 C1116 1.381 . S
C1118 C1119 1.394 . S
C1118 H1126 0.930 . S
C1119 C1118 1.394 . S
C1119 C1120 1.383 . S
C1119 H1127 0.929 . S
C1120 C1119 1.383 . S
C1120 C1121 1.377 . S
C1121 H1105 0.930 . S
C1121 C1120 1.377 . S
C1121 C1122 1.379 . S
C1122 H1106 0.931 . S
C1122 C1116 1.383 . S
C1122 C1121 1.379 . S
H1123 C1117 0.959 . S
H1124 C1117 0.961 . S
H1125 C1117 0.960 . S
H1126 C1118 0.930 . S
H1127 C1119 0.929 . S
H1128 C1136 0.929 . S
H1129 C1138 0.930 . S
H1130 C1140 0.930 . S
H1131 C1143 0.929 . S
H1132 C1146 0.930 . S
H1133 C1148 0.960 . S
H1134 C1148 0.960 . S
H1135 C1148 0.960 . S
C1136 H1128 0.929 . S
C1136 C1137 1.377 . S
C1136 C1138 1.384 . S
C1137 C1136 1.377 . S
C1137 C1143 1.390 . S
C1138 H1129 0.930 . S
C1138 C1136 1.384 . S
C1138 C1139 1.372 . S
C1139 C1138 1.372 . S
C1139 C1140 1.400 . S
C1139 C1144 1.490 . S
C1140 H1130 0.930 . S
C1140 C1139 1.400 . S
C1140 C1143 1.386 . S
H1141 C1157 0.930 . S
H1142 C1158 0.931 . S
C1143 H1131 0.929 . S
C1143 C1137 1.390 . S
C1143 C1140 1.386 . S
C1144 C1139 1.490 . S
C1144 C1146 1.395 . S
C1144 C1147 1.403 . S
H1145 C1151 0.930 . S
C1146 H1132 0.930 . S
C1146 C1144 1.395 . S
C1146 C1149 1.403 . S
C1147 C1144 1.403 . S
C1147 C1148 1.524 . S
C1147 C1151 1.400 . S
C1148 H1133 0.960 . S
C1148 H1134 0.960 . S
C1148 H1135 0.960 . S
C1148 C1147 1.524 . S
C1149 C1146 1.403 . S
C1149 C1150 1.392 . S
C1149 C1153 1.495 . S
C1150 C1149 1.392 . S
C1150 C1151 1.385 . S
C1150 C1152 1.478 . S
C1151 H1145 0.930 . S
C1151 C1147 1.400 . S
C1151 C1150 1.385 . S
C1152 C1150 1.478 . S
C1152 C1154 1.381 . S
C1152 C1158 1.383 . S
C1153 C1149 1.495 . S
C1153 H1159 0.959 . S
C1153 H1160 0.961 . S
C1153 H1161 0.960 . S
C1154 C1152 1.381 . S
C1154 C1155 1.394 . S
C1154 H1162 0.930 . S
C1155 C1154 1.394 . S
C1155 C1156 1.383 . S
C1155 H1163 0.929 . S
C1156 C1155 1.383 . S
C1156 C1157 1.377 . S
C1157 H1141 0.930 . S
C1157 C1156 1.377 . S
C1157 C1158 1.379 . S
C1158 H1142 0.931 . S
C1158 C1152 1.383 . S
C1158 C1157 1.379 . S
H1159 C1153 0.959 . S
H1160 C1153 0.961 . S
H1161 C1153 0.960 . S
H1162 C1154 0.930 . S
H1163 C1155 0.929 . S
H1164 C1172 0.929 . S
H1165 C1174 0.930 . S
H1166 C1176 0.930 . S
H1167 C1179 0.929 . S
H1168 C1182 0.930 . S
H1169 C1184 0.960 . S
H1170 C1184 0.960 . S
H1171 C1184 0.960 . S
C1172 H1164 0.929 . S
C1172 C1173 1.377 . S
C1172 C1174 1.384 . S
C1173 C1172 1.377 . S
C1173 C1179 1.390 . S
C1174 H1165 0.930 . S
C1174 C1172 1.384 . S
C1174 C1175 1.372 . S
C1175 C1174 1.372 . S
C1175 C1176 1.400 . S
C1175 C1180 1.490 . S
C1176 H1166 0.930 . S
C1176 C1175 1.400 . S
C1176 C1179 1.386 . S
H1177 C1193 0.930 . S
H1178 C1194 0.931 . S
C1179 H1167 0.929 . S
C1179 C1173 1.390 . S
C1179 C1176 1.386 . S
C1180 C1175 1.490 . S
C1180 C1182 1.395 . S
C1180 C1183 1.403 . S
H1181 C1187 0.930 . S
C1182 H1168 0.930 . S
C1182 C1180 1.395 . S
C1182 C1185 1.403 . S
C1183 C1180 1.403 . S
C1183 C1184 1.524 . S
C1183 C1187 1.400 . S
C1184 H1169 0.960 . S
C1184 H1170 0.960 . S
C1184 H1171 0.960 . S
C1184 C1183 1.524 . S
C1185 C1182 1.403 . S
C1185 C1186 1.392 . S
C1185 C1189 1.495 . S
C1186 C1185 1.392 . S
C1186 C1187 1.385 . S
C1186 C1188 1.478 . S
C1187 H1181 0.930 . S
C1187 C1183 1.400 . S
C1187 C1186 1.385 . S
C1188 C1186 1.478 . S
C1188 C1190 1.381 . S
C1188 C1194 1.383 . S
C1189 C1185 1.495 . S
C1189 H1195 0.959 . S
C1189 H1196 0.961 . S
C1189 H1197 0.960 . S
C1190 C1188 1.381 . S
C1190 C1191 1.394 . S
C1190 H1198 0.930 . S
C1191 C1190 1.394 . S
C1191 C1192 1.383 . S
C1191 H1199 0.929 . S
C1192 C1191 1.383 . S
C1192 C1193 1.377 . S
C1193 H1177 0.930 . S
C1193 C1192 1.377 . S
C1193 C1194 1.379 . S
C1194 H1178 0.931 . S
C1194 C1188 1.383 . S
C1194 C1193 1.379 . S
H1195 C1189 0.959 . S
H1196 C1189 0.961 . S
H1197 C1189 0.960 . S
H1198 C1190 0.930 . S
H1199 C1191 0.929 . S
H1200 C1208 0.929 . S
H1201 C1210 0.930 . S
H1202 C1212 0.930 . S
H1203 C1215 0.929 . S
H1204 C1218 0.930 . S
H1205 C1220 0.960 . S
H1206 C1220 0.960 . S
H1207 C1220 0.960 . S
C1208 H1200 0.929 . S
C1208 C1209 1.377 . S
C1208 C1210 1.384 . S
C1209 C1208 1.377 . S
C1209 C1215 1.390 . S
C1210 H1201 0.930 . S
C1210 C1208 1.384 . S
C1210 C1211 1.372 . S
C1211 C1210 1.372 . S
C1211 C1212 1.400 . S
C1211 C1216 1.490 . S
C1212 H1202 0.930 . S
C1212 C1211 1.400 . S
C1212 C1215 1.386 . S
H1213 C1229 0.930 . S
H1214 C1230 0.931 . S
C1215 H1203 0.929 . S
C1215 C1209 1.390 . S
C1215 C1212 1.386 . S
C1216 C1211 1.490 . S
C1216 C1218 1.395 . S
C1216 C1219 1.403 . S
H1217 C1223 0.930 . S
C1218 H1204 0.930 . S
C1218 C1216 1.395 . S
C1218 C1221 1.403 . S
C1219 C1216 1.403 . S
C1219 C1220 1.524 . S
C1219 C1223 1.400 . S
C1220 H1205 0.960 . S
C1220 H1206 0.960 . S
C1220 H1207 0.960 . S
C1220 C1219 1.524 . S
C1221 C1218 1.403 . S
C1221 C1222 1.392 . S
C1221 C1225 1.495 . S
C1222 C1221 1.392 . S
C1222 C1223 1.385 . S
C1222 C1224 1.478 . S
C1223 H1217 0.930 . S
C1223 C1219 1.400 . S
C1223 C1222 1.385 . S
C1224 C1222 1.478 . S
C1224 C1226 1.381 . S
C1224 C1230 1.383 . S
C1225 C1221 1.495 . S
C1225 H1231 0.959 . S
C1225 H1232 0.961 . S
C1225 H1233 0.960 . S
C1226 C1224 1.381 . S
C1226 C1227 1.394 . S
C1226 H1234 0.930 . S
C1227 C1226 1.394 . S
C1227 C1228 1.383 . S
C1227 H1235 0.929 . S
C1228 C1227 1.383 . S
C1228 C1229 1.377 . S
C1229 H1213 0.930 . S
C1229 C1228 1.377 . S
C1229 C1230 1.379 . S
C1230 H1214 0.931 . S
C1230 C1224 1.383 . S
C1230 C1229 1.379 . S
H1231 C1225 0.959 . S
H1232 C1225 0.961 . S
H1233 C1225 0.960 . S
H1234 C1226 0.930 . S
H1235 C1227 0.929 . S
C381 C13 1.736 . S
C400 C105 1.716 . S
C417 C27 1.732 . S
C436 C162 1.716 . S
C472 C216 1.694 . S
C453 C29 1.736 . S
C508 C273 1.690 . S
C489 C54 1.734 . S
C544 C297 1.699 . S
C525 C69 1.737 . S
C580 C354 1.731 . S
C561 C83 1.731 . S
C597 C15 1.737 . S
C616 C201 1.729 . S
C633 C41 1.731 . S
C652 C258 1.720 . S
C688 C312 1.710 . S
C669 C42 1.737 . S
C724 C369 1.686 . S
C705 C57 1.731 . S
C741 C71 1.736 . S
C760 C120 1.677 . S
C796 C177 1.658 . S
C777 C1 1.731 . S
C832 C264 1.708 . S
C813 C12 1.735 . S
C849 C26 1.734 . S
C868 C306 1.682 . S
C904 C345 1.699 . S
C885 C28 1.736 . S
C921 C55 1.730 . S
C940 C114 1.671 . S
C957 C68 1.737 . S
C976 C153 1.710 . S
C993 C82 1.731 . S
C1012 C225 1.727 . S
C1029 C14 1.736 . S
C1048 C360 1.716 . S
C1084 C129 1.718 . S
C1065 C40 1.730 . S
C1101 C43 1.737 . S
C1120 C168 1.723 . S
C1137 C56 1.733 . S
C1156 C210 1.656 . S
C1173 C70 1.735 . S
C1192 C249 1.687 . S
C1209 C0 1.733 . S
C1228 C321 1.735 . S
