# Generated by pormake.
# Topology pth, (4,4)-cn, num edge types: 1
# Building blocks:
#     Node 0, Type 0, BuildingBlock: GALJAG_clean_sbu_0, # of connection points: 4
#     Node 1, Type 0, BuildingBlock: GALJAG_clean_sbu_0, # of connection points: 4
#     Node 2, Type 0, BuildingBlock: GALJAG_clean_sbu_0, # of connection points: 4
#     Node 3, Type 1, BuildingBlock: AZAVOO_clean_linker_0, # of connection points: 4
#     Node 4, Type 1, BuildingBlock: AZAVOO_clean_linker_0, # of connection points: 4
#     Node 5, Type 1, BuildingBlock: AZAVOO_clean_linker_0, # of connection points: 4
#     Edge 6, Type (0, 1), BuildingBlock: OJICUG_clean_linker_0, # of connection points: 2
#     Edge 7, Type (0, 1), BuildingBlock: OJICUG_clean_linker_0, # of connection points: 2
#     Edge 8, Type (0, 1), BuildingBlock: OJICUG_clean_linker_0, # of connection points: 2
#     Edge 9, Type (0, 1), BuildingBlock: OJICUG_clean_linker_0, # of connection points: 2
#     Edge 10, Type (0, 1), BuildingBlock: OJICUG_clean_linker_0, # of connection points: 2
#     Edge 11, Type (0, 1), BuildingBlock: OJICUG_clean_linker_0, # of connection points: 2
#     Edge 12, Type (0, 1), BuildingBlock: OJICUG_clean_linker_0, # of connection points: 2
#     Edge 13, Type (0, 1), BuildingBlock: OJICUG_clean_linker_0, # of connection points: 2
#     Edge 14, Type (0, 1), BuildingBlock: OJICUG_clean_linker_0, # of connection points: 2
#     Edge 15, Type (0, 1), BuildingBlock: OJICUG_clean_linker_0, # of connection points: 2
#     Edge 16, Type (0, 1), BuildingBlock: OJICUG_clean_linker_0, # of connection points: 2
#     Edge 17, Type (0, 1), BuildingBlock: OJICUG_clean_linker_0, # of connection points: 2
# Relax obj value: 0.144
# Max RMSD: 0.233
# Mean RMSD: 0.162
data_MOF--net-pth--node1-GALJAG_clean_sbu_0--node2-AZAVOO_clean_linker_0--edge1-OJICUG_clean_linker_0
_symmetry_space_group_name_H-M    P1
_symmetry_Int_Tables_number       1
_symmetry_cell_setting            triclinic
loop_
_symmetry_equiv_pos_as_xyz
'x, y, z'
_cell_length_a     20.746806
_cell_length_b     21.076522
_cell_length_c     53.851536
_cell_angle_alpha  93.615784
_cell_angle_beta   88.872647
_cell_angle_gamma 119.94043
loop_
_atom_site_label
_atom_site_type_symbol
_atom_site_fract_x
_atom_site_fract_y
_atom_site_fract_z
_atom_type_partial_charge
In0 In 0.10565 0.04322 0.06725 0.0
O1 O 0.02418 0.05908 0.09246 0.0
O2 O 0.13884 0.1151 0.10296 0.0
C3 C 0.0199 0.98414 0.02612 0.0
C4 C 0.22 0.15491 0.04551 0.0
C5 C 0.10472 0.93189 0.08919 0.0
O6 O 0.01111 0.02663 0.04166 0.0
O7 O 0.07121 0.97157 0.0315 0.0
O8 O 0.16432 0.9916 0.0864 0.0
O9 O 0.04702 0.92859 0.08057 0.0
C10 C 0.07392 0.102 0.10809 0.0
O11 O 0.21928 0.09555 0.04853 0.0
O12 O 0.16421 0.15769 0.05382 0.0
In13 In 0.0352 0.02906 0.39677 0.0
O14 O 0.08776 0.12712 0.37248 0.0
O15 O 0.96964 0.06501 0.37367 0.0
C16 C 0.15116 0.04608 0.42349 0.0
C17 C 0.9591 0.0408 0.43595 0.0
C18 C 0.01172 0.90961 0.36821 0.0
O19 O 0.15654 0.09593 0.41023 0.0
O20 O 0.08835 0.98855 0.42278 0.0
O21 O 0.96722 0.90646 0.38509 0.0
O22 O 0.06542 0.9731 0.36516 0.0
C23 C 0.02637 0.119 0.36527 0.0
O24 O 0.93048 0.98648 0.4202 0.0
O25 O 0.02482 0.08934 0.43146 0.0
In26 In 0.07459 0.06516 0.73559 0.0
O27 O 0.006 0.95026 0.74938 0.0
O28 O -0.0024 0.03701 0.7688 0.0
C29 C 0.16883 0.03082 0.71058 0.0
C30 C 0.9763 0.07425 0.70607 0.0
C31 C 0.17399 0.18784 0.76176 0.0
O32 O 0.166 0.03465 0.73391 0.0
O33 O 0.12233 0.04163 0.69968 0.0
O34 O 0.15129 0.19011 0.7404 0.0
O35 O 0.14396 0.12482 0.77003 0.0
C36 C 0.97657 0.9694 0.76686 0.0
O37 O 0.03424 0.13071 0.71463 0.0
O38 O 0.96905 0.01425 0.71212 0.0
H39 H 0.00367 0.37481 0.0683 0.0
H40 H 0.12824 0.96831 0.2766 0.0
H41 H 0.90013 0.32925 0.19607 0.0
H42 H 0.90983 0.23254 0.17234 0.0
H43 H 0.11668 0.29671 0.2108 0.0
H44 H 0.10911 0.39742 0.23295 0.0
H45 H 0.92753 0.45894 0.16531 0.0
H46 H 0.94012 0.42225 0.12226 0.0
H47 H 0.15083 0.44155 0.14157 0.0
H48 H 0.13816 0.47944 0.18442 0.0
H49 H 0.93168 0.59694 0.1923 0.0
H50 H 0.95447 0.68411 0.16088 0.0
H51 H 0.17916 0.72354 0.15267 0.0
H52 H 0.15638 0.63805 0.18499 0.0
H53 H 0.91153 0.61257 0.2437 0.0
H54 H 0.9242 0.73136 0.25734 0.0
H55 H 0.16365 0.83033 0.25543 0.0
H56 H 0.15004 0.71103 0.24195 0.0
H57 H 0.88752 0.50891 0.27923 0.0
H58 H 0.88435 0.59404 0.31155 0.0
H59 H 0.1235 0.70116 0.31934 0.0
H60 H 0.12622 0.61807 0.28631 0.0
H61 H 0.8948 0.32712 0.25768 0.0
H62 H 0.89794 0.2431 0.28631 0.0
H63 H 0.11589 0.41301 0.31253 0.0
H64 H 0.11399 0.49444 0.28276 0.0
O65 O 0.00018 0.39018 0.08536 0.0
O66 O 0.10754 0.39966 0.09637 0.0
O67 O -0.00176 0.8681 0.27055 0.0
O68 O 0.12162 0.92116 0.27056 0.0
C69 C 0.01076 0.44307 0.22313 0.0
C70 C 0.02295 0.49172 0.20429 0.0
C71 C 0.02864 0.5602 0.21051 0.0
C72 C 0.02213 0.58031 0.23543 0.0
C73 C 0.01195 0.53273 0.25441 0.0
C74 C 0.00729 0.46434 0.24838 0.0
C75 C 0.00462 0.37119 0.21582 0.0
C76 C 0.94645 0.32101 0.19986 0.0
C77 C 0.95206 0.26536 0.18635 0.0
C78 C 0.0152 0.25783 0.18909 0.0
C79 C 0.06858 0.3025 0.20756 0.0
C80 C 0.06379 0.35936 0.22061 0.0
C81 C 0.03183 0.47169 0.17796 0.0
C82 C 0.97661 0.45577 0.16013 0.0
C83 C 0.98385 0.43457 0.1356 0.0
C84 C 0.04641 0.42879 0.12848 0.0
C85 C 0.10192 0.44537 0.14642 0.0
C86 C 0.09479 0.46693 0.1709 0.0
C87 C 0.04246 0.61161 0.19092 0.0
C88 C 0.98582 0.62462 0.18374 0.0
C89 C -0.0012 0.67382 0.1656 0.0
C90 C 0.06856 0.71042 0.15414 0.0
C91 C 0.1251 0.69671 0.16129 0.0
C92 C 0.11212 0.6477 0.17959 0.0
C93 C 0.02987 0.65338 0.24195 0.0
C94 C 0.96661 0.66013 0.2461 0.0
C95 C 0.97404 0.72798 0.25391 0.0
C96 C 0.045 0.79034 0.25754 0.0
C97 C 0.10824 0.78346 0.25284 0.0
C98 C 0.10068 0.71552 0.24507 0.0
C99 C 0.00709 0.55744 0.28038 0.0
C100 C 0.93874 0.5482 0.28888 0.0
C101 C 0.93713 0.59739 0.30724 0.0
C102 C 0.00395 0.65576 0.31742 0.0
C103 C 0.07127 0.65797 0.31133 0.0
C104 C 0.07286 0.60945 0.29283 0.0
C105 C 0.00389 0.41717 0.26826 0.0
C106 C 0.94279 0.34628 0.26984 0.0
C107 C 0.94464 0.29847 0.2863 0.0
C108 C 0.00745 0.32098 0.30167 0.0
C109 C 0.06721 0.39319 0.30068 0.0
C110 C 0.06567 0.44048 0.284 0.0
C111 C 0.05351 0.40539 0.10248 0.0
C112 C 0.05322 0.86208 0.26654 0.0
H113 H 0.72557 0.04895 0.41469 0.0
H114 H 0.17965 0.11984 0.62242 0.0
H115 H 0.65006 0.96428 0.55568 0.0
H116 H 0.74033 0.95222 0.52913 0.0
H117 H 0.85848 0.18652 0.52166 0.0
H118 H 0.76978 0.19827 0.54924 0.0
H119 H 0.58328 0.97734 0.51157 0.0
H120 H 0.63337 0.98491 0.46969 0.0
H121 H 0.70536 0.21643 0.47255 0.0
H122 H 0.65588 0.20821 0.51465 0.0
H123 H 0.44811 0.97684 0.51419 0.0
H124 H 0.36425 0.96975 0.48163 0.0
H125 H 0.40841 0.18785 0.50532 0.0
H126 H 0.49489 0.19543 0.53738 0.0
H127 H 0.36178 0.96921 0.56381 0.0
H128 H 0.2441 0.96122 0.57654 0.0
H129 H 0.36525 0.18263 0.60971 0.0
H130 H 0.48234 0.19015 0.59658 0.0
H131 H 0.44164 0.94308 0.60596 0.0
H132 H 0.35199 0.91919 0.6393 0.0
H133 H 0.47887 0.14581 0.66665 0.0
H134 H 0.56769 0.16978 0.63286 0.0
H135 H 0.62238 0.9625 0.59976 0.0
H136 H 0.71018 0.96283 0.62928 0.0
H137 H 0.79122 0.19291 0.64888 0.0
H138 H 0.70641 0.19262 0.61789 0.0
O139 O 0.70433 0.04683 0.431 0.0
O140 O 0.73541 0.16443 0.43256 0.0
O141 O 0.16512 0.01022 0.59794 0.0
O142 O 0.22513 0.12239 0.61644 0.0
C143 C 0.63588 0.08505 0.56159 0.0
C144 C 0.59237 0.08886 0.54246 0.0
C145 C 0.5258 0.08854 0.54826 0.0
C146 C 0.50194 0.08318 0.5731 0.0
C147 C 0.54418 0.07677 0.59212 0.0
C148 C 0.61211 0.07953 0.58649 0.0
C149 C 0.70369 0.08221 0.55451 0.0
C150 C 0.69805 0.01349 0.54963 0.0
C151 C 0.74873 0.00653 0.53396 0.0
C152 C 0.80526 0.06815 0.52277 0.0
C153 C 0.81564 0.13799 0.52999 0.0
C154 C 0.76527 0.14496 0.54589 0.0
C155 C 0.61656 0.09235 0.51617 0.0
C156 C 0.60968 0.02957 0.50307 0.0
C157 C 0.63838 0.03408 0.47916 0.0
C158 C 0.67384 0.1014 0.46783 0.0
C159 C 0.67863 0.16381 0.48078 0.0
C160 C 0.65016 0.15925 0.50476 0.0
C161 C 0.47757 0.08669 0.52802 0.0
C162 C 0.44054 0.0235 0.51208 0.0
C163 C 0.39225 0.01937 0.49365 0.0
C164 C 0.37939 0.07809 0.49103 0.0
C165 C 0.41783 0.14208 0.50673 0.0
C166 C 0.46664 0.14631 0.52513 0.0
C167 C 0.4304 0.0803 0.57924 0.0
C168 C 0.36261 0.01622 0.57353 0.0
C169 C 0.29558 0.01173 0.58092 0.0
C170 C 0.2953 0.07128 0.59421 0.0
C171 C 0.36344 0.13578 0.59954 0.0
C172 C 0.43038 0.14028 0.59204 0.0
C173 C 0.51091 0.05817 0.61702 0.0
C174 C 0.45211 0.98671 0.61987 0.0
C175 C 0.40063 0.97328 0.63873 0.0
C176 C 0.4083 0.03089 0.65524 0.0
C177 C 0.47214 0.10047 0.65418 0.0
C178 C 0.52315 0.11416 0.63503 0.0
C179 C 0.65891 0.07772 0.60648 0.0
C180 C 0.65935 0.01292 0.61039 0.0
C181 C 0.70913 0.01319 0.62753 0.0
C182 C 0.75843 0.07809 0.64151 0.0
C183 C 0.75546 0.14232 0.63813 0.0
C184 C 0.70644 0.14216 0.62066 0.0
C185 C 0.70632 0.1064 0.44273 0.0
C186 C 0.22446 0.06591 0.60287 0.0
H187 H 0.68328 0.72193 0.06387 0.0
H188 H 0.2212 0.1089 0.8633 0.0
H189 H 0.62909 0.75432 0.93611 0.0
H190 H 0.7328 0.85225 0.96012 0.0
H191 H 0.88233 0.79127 0.92274 0.0
H192 H 0.77663 0.68929 0.90042 0.0
H193 H 0.52607 0.62519 0.96783 0.0
H194 H 0.57342 0.66635 0.01054 0.0
H195 H 0.76864 0.6509 0.99114 0.0
H196 H 0.71997 0.60849 0.94866 0.0
H197 H 0.39284 0.48378 0.9405 0.0
H198 H 0.32513 0.39787 0.97237 0.0
H199 H 0.51264 0.36511 0.98235 0.0
H200 H 0.57895 0.44947 0.94964 0.0
H201 H 0.36511 0.46975 0.88604 0.0
H202 H 0.25897 0.34962 0.87351 0.0
H203 H 0.39395 0.24949 0.88374 0.0
H204 H 0.49987 0.37016 0.89592 0.0
H205 H 0.45506 0.58005 0.85219 0.0
H206 H 0.37204 0.50001 0.81816 0.0
H207 H 0.48873 0.37799 0.81446 0.0
H208 H 0.57074 0.45759 0.84857 0.0
H209 H 0.61709 0.74504 0.87116 0.0
H210 H 0.70222 0.82849 0.841 0.0
H211 H 0.78852 0.68118 0.8251 0.0
H212 H 0.70106 0.59721 0.85441 0.0
O213 O 0.66501 0.70444 0.047 0.0
O214 O 0.76487 0.6968 0.03592 0.0
O215 O 0.19484 0.21103 0.86368 0.0
O216 O 0.26189 0.15687 0.86858 0.0
C217 C 0.63035 0.64087 0.90992 0.0
C218 C 0.59257 0.59247 0.92894 0.0
C219 C 0.53017 0.52319 0.92296 0.0
C220 C 0.50549 0.50199 0.89805 0.0
C221 C 0.54466 0.54931 0.87893 0.0
C222 C 0.6076 0.61841 0.88481 0.0
C223 C 0.69513 0.71394 0.91689 0.0
C224 C 0.68466 0.76364 0.93256 0.0
C225 C 0.74437 0.81995 0.94625 0.0
C226 C 0.81597 0.82857 0.94396 0.0
C227 C 0.82756 0.78462 0.92564 0.0
C228 C 0.76741 0.72708 0.91244 0.0
C229 C 0.61963 0.61399 0.95518 0.0
C230 C 0.57865 0.63002 0.97294 0.0
C231 C 0.60603 0.65384 -0.00273 0.0
C232 C 0.67496 0.66216 0.00424 0.0
C233 C 0.71543 0.64519 0.9864 0.0
C234 C 0.68779 0.621 0.96213 0.0
C235 C 0.4905 0.47253 0.94279 0.0
C236 C 0.41913 0.45791 0.94956 0.0
C237 C 0.38096 0.40942 0.96795 0.0
C238 C 0.4138 0.37507 0.98003 0.0
C239 C 0.4857 0.39028 0.97326 0.0
C240 C 0.52375 0.43865 0.95474 0.0
C241 C 0.44008 0.42852 0.89176 0.0
C242 C 0.37151 0.42174 0.88558 0.0
C243 C 0.31102 0.35308 0.87848 0.0
C244 C 0.318 0.28991 0.87761 0.0
C245 C 0.38665 0.29695 0.8842 0.0
C246 C 0.44716 0.36572 0.89123 0.0
C247 C 0.51834 0.52407 0.85292 0.0
C248 C 0.46516 0.53854 0.84311 0.0
C249 C 0.41756 0.49254 0.82377 0.0
C250 C 0.42304 0.43191 0.81415 0.0
C251 C 0.48269 0.42372 0.82187 0.0
C252 C 0.53012 0.46961 0.84113 0.0
C253 C 0.65284 0.66513 0.86479 0.0
C254 C 0.65356 0.73048 0.86076 0.0
C255 C 0.70284 0.77834 0.84374 0.0
C256 C 0.75283 0.76197 0.8307 0.0
C257 C 0.75024 0.69523 0.83444 0.0
C258 C 0.70042 0.64715 0.85123 0.0
C259 C 0.70454 0.68876 0.02997 0.0
C260 C 0.25435 0.21705 0.86957 0.0
C261 C 0.11732 0.1996 0.14231 0.0
C262 C 0.05865 0.13718 0.13014 0.0
H263 H 0.14965 0.28731 0.16988 0.0
C264 C 0.98592 0.11057 0.13879 0.0
H265 H 0.17397 0.22149 0.13596 0.0
C266 C 0.97195 0.14712 0.15892 0.0
C267 C 0.03032 0.21179 0.17045 0.0
H268 H 0.93981 0.06197 0.12987 0.0
H269 H 0.91521 0.12545 0.16509 0.0
C270 C 0.10331 0.23687 0.16204 0.0
C271 C 0.84463 0.99603 0.46159 0.0
C272 C 0.92007 0.0467 0.45835 0.0
H273 H 0.74911 0.96363 0.4844 0.0
C274 C 0.95853 0.10299 0.47687 0.0
H275 H 0.8136 0.95229 0.44757 0.0
C276 C 0.92201 0.10888 0.49818 0.0
C277 C 0.84626 0.05869 0.50135 0.0
H278 H 0.01697 0.14258 0.47492 0.0
H279 H 0.95298 0.15285 0.51214 0.0
C280 C 0.808 0.00212 0.48284 0.0
C281 C 0.88547 0.84086 0.77694 0.0
C282 C 0.91991 0.91648 0.7832 0.0
H283 H 0.80399 0.73295 0.78645 0.0
C284 C 0.89859 0.94121 0.80493 0.0
H285 H 0.90033 0.82032 0.76014 0.0
C286 C 0.84427 0.89117 0.82027 0.0
C287 C 0.80934 0.81528 0.81402 0.0
H288 H 0.92445 -0.00073 0.81025 0.0
H289 H 0.83067 0.91207 0.83724 0.0
C290 C 0.83043 0.79081 0.79209 0.0
C291 C 0.03499 0.80391 0.10233 0.0
C292 C 0.10055 0.87239 0.1033 0.0
H293 H 0.97442 0.69827 0.1171 0.0
C294 C 0.15859 0.88504 0.11945 0.0
H295 H 0.98964 0.79242 0.08983 0.0
C296 C 0.1494 0.8314 0.13543 0.0
C297 C 0.08221 0.76411 0.13533 0.0
H298 H 0.20963 0.93753 0.12059 0.0
H299 H 0.19356 0.84398 0.14861 0.0
C300 C 0.02608 0.75019 0.11807 0.0
C301 C 0.19982 -0.00353 0.45409 0.0
C302 C 0.21164 0.05457 0.43973 0.0
H303 H 0.24281 0.95896 0.48177 0.0
C304 C 0.27982 0.1206 0.4419 0.0
H305 H 0.14767 0.945 0.45294 0.0
C306 C 0.33493 0.12849 0.45843 0.0
C307 C 0.32264 0.07036 0.47295 0.0
H308 H 0.29024 0.16629 0.43105 0.0
H309 H 0.38713 0.17985 0.4598 0.0
C310 C 0.25457 0.00431 0.47053 0.0
C311 C 0.26546 0.32319 0.76712 0.0
C312 C 0.23583 0.25187 0.77523 0.0
H313 H 0.34856 0.43704 0.77319 0.0
C314 C 0.26848 0.2408 0.79588 0.0
H315 H 0.24138 0.33315 0.7512 0.0
C316 C 0.3301 0.29931 0.80794 0.0
C317 C 0.36011 0.37063 0.79992 0.0
H318 H 0.24714 0.18655 0.80258 0.0
H319 H 0.35376 0.2888 0.82385 0.0
C320 C 0.32675 0.38239 0.77958 0.0
C321 C 0.84887 0.01573 0.68751 0.0
C322 C 0.92049 0.07712 0.69034 0.0
H323 H 0.74092 0.96883 0.67087 0.0
C324 C 0.93806 0.14002 0.6778 0.0
H325 H 0.83351 0.96676 0.69722 0.0
C326 C 0.88543 0.1407 0.66212 0.0
C327 C 0.81369 0.07887 0.65901 0.0
H328 H 0.99303 0.18801 0.67961 0.0
H329 H 0.90175 0.18911 0.65198 0.0
C330 C 0.7959 0.01682 0.67224 0.0
C331 C 0.96989 0.88699 0.99174 0.0
C332 C 0.97217 0.94895 0.00386 0.0
H333 H 0.91807 0.79972 0.96393 0.0
C334 C 0.92727 0.97515 0.99492 0.0
H335 H 0.00371 0.86539 -0.00168 0.0
C336 C 0.87943 0.9387 0.97451 0.0
C337 C 0.87463 0.87457 0.96299 0.0
H338 H 0.92868 0.02339 0.00381 0.0
H339 H 0.84524 0.96003 0.96811 0.0
C340 C 0.92125 0.84983 0.97173 0.0
C341 C 0.05964 0.85231 0.33675 0.0
C342 C 0.00619 0.84398 0.35459 0.0
H343 H 0.10071 0.79983 0.31123 0.0
C344 C 0.95125 0.7729 0.36028 0.0
H345 H 0.10255 0.9063 0.33187 0.0
C346 C 0.95048 0.71129 0.34849 0.0
C347 C 0.005 0.71987 0.33098 0.0
H348 H 0.90955 0.7649 0.37407 0.0
H349 H 0.9079 0.65711 0.3533 0.0
C350 C 0.05909 0.79112 0.32513 0.0
C351 C 0.21771 -0.00045 0.67187 0.0
C352 C 0.22688 0.02218 0.69723 0.0
H353 H 0.26799 0.98262 0.63894 0.0
C354 C 0.29452 0.04228 0.70929 0.0
H355 H 0.16621 0.984 0.66214 0.0
C356 C 0.35337 0.04321 0.69588 0.0
C357 C 0.34458 0.02201 0.67041 0.0
H358 H 0.30311 0.06049 0.72882 0.0
H359 H 0.40609 0.06177 0.70525 0.0
C360 C 0.27577 -0.00141 0.65865 0.0
C361 C 0.28011 0.2823 0.03188 0.0
C362 C 0.27755 0.21442 0.03139 0.0
H363 H 0.32679 0.38708 0.01654 0.0
C364 C 0.32545 0.20219 0.01561 0.0
H365 H 0.24432 0.29347 0.04407 0.0
C366 C 0.37202 0.25554 -0.00049 0.0
C367 C 0.37169 0.32207 -0.00092 0.0
H368 H 0.32435 0.15018 0.01485 0.0
H369 H 0.40558 0.24325 0.98661 0.0
C370 C 0.32695 0.33569 0.01599 0.0
C371 C 0.08454 0.22167 0.33669 0.0
C372 C 0.02122 0.16971 0.34877 0.0
H373 H 0.12953 0.30855 0.31189 0.0
C374 C 0.95313 0.16737 0.34526 0.0
H375 H 0.13767 0.22442 0.33894 0.0
C376 C 0.94861 0.21661 0.33015 0.0
C377 C 0.01198 0.26881 0.318 0.0
H378 H 0.90345 0.12813 0.35448 0.0
H379 H 0.89563 0.21435 0.32828 0.0
C380 C 0.07989 0.27032 0.32136 0.0
loop_
_geom_bond_atom_site_label_1
_geom_bond_atom_site_label_2
_geom_bond_distance
_geom_bond_site_symmetry_2
_ccdc_geom_bond_type
In0 O1 2.294 . S
In0 O2 2.326 . S
In0 O6 2.266 1_445 S
In0 O7 2.326 1_545 S
In0 O8 2.266 1_545 S
In0 O9 2.326 1_545 S
In0 O11 2.294 . S
In0 O12 2.326 . S
O1 In0 2.294 . S
O1 C10 1.240 . S
O2 In0 2.326 . S
O2 C10 1.252 . S
C3 O6 1.252 . S
C3 O7 1.260 1_655 S
C4 O11 1.240 . S
C4 O12 1.252 . S
C5 O8 1.252 . S
C5 O9 1.260 . S
O6 In0 2.266 1_665 S
O6 C3 1.252 . S
O7 In0 2.326 1_565 S
O7 C3 1.260 1_455 S
O8 In0 2.266 1_565 S
O8 C5 1.252 . S
O9 In0 2.326 1_565 S
O9 C5 1.260 . S
C10 O1 1.240 . S
C10 O2 1.252 . S
O11 In0 2.294 . S
O11 C4 1.240 . S
O12 In0 2.326 . S
O12 C4 1.252 . S
In13 O14 2.294 . S
In13 O15 2.326 1_455 S
In13 O19 2.266 . S
In13 O20 2.326 1_545 S
In13 O21 2.266 1_445 S
In13 O22 2.326 1_545 S
In13 O24 2.294 1_445 S
In13 O25 2.326 . S
O14 In13 2.294 . S
O14 C23 1.240 . S
O15 In13 2.326 1_655 S
O15 C23 1.252 1_655 S
C16 O19 1.252 . S
C16 O20 1.260 1_545 S
C17 O24 1.240 1_545 S
C17 O25 1.252 1_655 S
C18 O21 1.252 1_455 S
C18 O22 1.260 . S
O19 In13 2.266 . S
O19 C16 1.252 . S
O20 In13 2.326 1_565 S
O20 C16 1.260 1_565 S
O21 In13 2.266 1_665 S
O21 C18 1.252 1_655 S
O22 In13 2.326 1_565 S
O22 C18 1.260 . S
C23 O14 1.240 . S
C23 O15 1.252 1_455 S
O24 In13 2.294 1_665 S
O24 C17 1.240 1_565 S
O25 In13 2.326 . S
O25 C17 1.252 1_455 S
In26 O27 2.294 1_545 S
In26 O28 2.326 . S
In26 O32 2.266 . S
In26 O33 2.326 . S
In26 O34 2.266 . S
In26 O35 2.326 . S
In26 O37 2.294 . S
In26 O38 2.326 . S
O27 In26 2.294 1_565 S
O27 C36 1.240 . S
O28 In26 2.326 . S
O28 C36 1.252 1_545 S
C29 O32 1.252 . S
C29 O33 1.260 . S
C30 O37 1.240 . S
C30 O38 1.252 . S
C31 O34 1.252 . S
C31 O35 1.260 . S
O32 In26 2.266 . S
O32 C29 1.252 . S
O33 In26 2.326 . S
O33 C29 1.260 . S
O34 In26 2.266 . S
O34 C31 1.252 . S
O35 In26 2.326 . S
O35 C31 1.260 . S
C36 O27 1.240 . S
C36 O28 1.252 1_565 S
O37 In26 2.294 . S
O37 C30 1.240 . S
O38 In26 2.326 . S
O38 C30 1.252 . S
H39 O65 0.856 . S
H40 O68 0.854 1_545 S
H41 C76 0.930 . S
H42 C77 0.930 . S
H43 C79 0.930 . S
H44 C80 0.930 . S
H45 C82 0.931 1_655 S
H46 C83 0.930 1_655 S
H47 C85 0.930 . S
H48 C86 0.929 . S
H49 C88 0.930 1_655 S
H50 C89 0.931 1_655 S
H51 C91 0.930 . S
H52 C92 0.929 . S
H53 C94 0.936 . S
H54 C95 0.930 1_655 S
H55 C97 0.930 . S
H56 C98 0.932 . S
H57 C100 0.930 . S
H58 C101 0.929 . S
H59 C103 0.931 . S
H60 C104 0.930 . S
H61 C106 0.929 . S
H62 C107 0.931 . S
H63 C109 0.930 . S
H64 C110 0.929 . S
O65 H39 0.856 . S
O65 C111 1.300 . S
O66 C111 1.209 . S
O67 C112 1.199 . S
O68 H40 0.854 1_565 S
O68 C112 1.297 . S
C69 C70 1.404 . S
C69 C74 1.397 . S
C69 C75 1.492 . S
C70 C69 1.404 . S
C70 C71 1.396 . S
C70 C81 1.492 . S
C71 C70 1.396 . S
C71 C72 1.397 . S
C71 C87 1.509 . S
C72 C71 1.397 . S
C72 C73 1.412 . S
C72 C93 1.485 . S
C73 C72 1.412 . S
C73 C74 1.388 . S
C73 C99 1.490 . S
C74 C69 1.397 . S
C74 C73 1.388 . S
C74 C105 1.519 . S
C75 C69 1.492 . S
C75 C76 1.363 1_455 S
C75 C80 1.390 . S
C76 H41 0.930 . S
C76 C75 1.363 1_655 S
C76 C77 1.372 . S
C77 H42 0.930 . S
C77 C76 1.372 . S
C77 C78 1.383 1_655 S
C78 C77 1.383 1_455 S
C78 C79 1.395 . S
C79 H43 0.930 . S
C79 C78 1.395 . S
C79 C80 1.362 . S
C80 H44 0.930 . S
C80 C75 1.390 . S
C80 C79 1.362 . S
C81 C70 1.492 . S
C81 C82 1.377 . S
C81 C86 1.397 . S
C82 H45 0.931 1_455 S
C82 C81 1.377 . S
C82 C83 1.376 . S
C83 H46 0.930 1_455 S
C83 C82 1.376 . S
C83 C84 1.376 . S
C84 C83 1.376 . S
C84 C85 1.378 . S
C84 C111 1.486 . S
C85 H47 0.930 . S
C85 C84 1.378 . S
C85 C86 1.376 . S
C86 H48 0.929 . S
C86 C81 1.397 . S
C86 C85 1.376 . S
C87 C71 1.509 . S
C87 C88 1.391 . S
C87 C92 1.386 . S
C88 H49 0.930 1_455 S
C88 C87 1.391 . S
C88 C89 1.375 . S
C89 H50 0.931 1_455 S
C89 C88 1.375 . S
C89 C90 1.375 . S
C90 C89 1.375 . S
C90 C91 1.361 . S
C91 H51 0.930 . S
C91 C90 1.361 . S
C91 C92 1.399 . S
C92 H52 0.929 . S
C92 C87 1.386 . S
C92 C91 1.399 . S
C93 C72 1.485 . S
C93 C94 1.384 1_455 S
C93 C98 1.360 . S
C94 H53 0.936 . S
C94 C93 1.384 1_655 S
C94 C95 1.377 1_655 S
C95 H54 0.930 1_455 S
C95 C94 1.377 1_455 S
C95 C96 1.397 . S
C96 C95 1.397 . S
C96 C97 1.390 . S
C96 C112 1.476 . S
C97 H55 0.930 . S
C97 C96 1.390 . S
C97 C98 1.366 . S
C98 H56 0.932 . S
C98 C93 1.360 . S
C98 C97 1.366 . S
C99 C73 1.490 . S
C99 C100 1.380 1_455 S
C99 C104 1.386 . S
C100 H57 0.930 . S
C100 C99 1.380 1_655 S
C100 C101 1.381 . S
C101 H58 0.929 . S
C101 C100 1.381 . S
C101 C102 1.371 1_655 S
C102 C101 1.371 1_455 S
C102 C103 1.380 . S
C103 H59 0.931 . S
C103 C102 1.380 . S
C103 C104 1.387 . S
C104 H60 0.930 . S
C104 C99 1.386 . S
C104 C103 1.387 . S
C105 C74 1.519 . S
C105 C106 1.377 1_455 S
C105 C110 1.361 . S
C106 H61 0.929 . S
C106 C105 1.377 1_655 S
C106 C107 1.386 . S
C107 H62 0.931 . S
C107 C106 1.386 . S
C107 C108 1.363 1_655 S
C108 C107 1.363 1_455 S
C108 C109 1.385 . S
C109 H63 0.930 . S
C109 C108 1.385 . S
C109 C110 1.396 . S
C110 H64 0.929 . S
C110 C105 1.361 . S
C110 C109 1.396 . S
C111 O65 1.300 . S
C111 O66 1.209 . S
C111 C84 1.486 . S
C112 O67 1.199 . S
C112 O68 1.297 . S
C112 C96 1.476 . S
H113 O139 0.856 . S
H114 O142 0.854 . S
H115 C150 0.930 . S
H116 C151 0.930 . S
H117 C153 0.930 . S
H118 C154 0.930 . S
H119 C156 0.931 1_565 S
H120 C157 0.930 1_565 S
H121 C159 0.930 . S
H122 C160 0.929 . S
H123 C162 0.930 1_565 S
H124 C163 0.931 1_565 S
H125 C165 0.930 . S
H126 C166 0.929 . S
H127 C168 0.931 1_565 S
H128 C169 0.930 1_565 S
H129 C171 0.930 . S
H130 C172 0.932 . S
H131 C174 0.924 1_565 S
H132 C175 0.929 . S
H133 C177 0.931 . S
H134 C178 0.930 . S
H135 C180 0.929 1_565 S
H136 C181 0.931 1_565 S
H137 C183 0.930 . S
H138 C184 0.929 . S
O139 H113 0.856 . S
O139 C185 1.300 . S
O140 C185 1.209 . S
O141 C186 1.199 . S
O142 H114 0.854 . S
O142 C186 1.297 . S
C143 C144 1.404 . S
C143 C148 1.397 . S
C143 C149 1.492 . S
C144 C143 1.404 . S
C144 C145 1.396 . S
C144 C155 1.492 . S
C145 C144 1.396 . S
C145 C146 1.397 . S
C145 C161 1.509 . S
C146 C145 1.397 . S
C146 C147 1.412 . S
C146 C167 1.485 . S
C147 C146 1.412 . S
C147 C148 1.388 . S
C147 C173 1.490 . S
C148 C143 1.397 . S
C148 C147 1.388 . S
C148 C179 1.519 . S
C149 C143 1.492 . S
C149 C150 1.363 1_545 S
C149 C154 1.390 . S
C150 H115 0.930 . S
C150 C149 1.363 1_565 S
C150 C151 1.372 . S
C151 H116 0.930 . S
C151 C150 1.372 . S
C151 C152 1.383 1_565 S
C152 C151 1.383 1_545 S
C152 C153 1.395 . S
C153 H117 0.930 . S
C153 C152 1.395 . S
C153 C154 1.362 . S
C154 H118 0.930 . S
C154 C149 1.390 . S
C154 C153 1.362 . S
C155 C144 1.492 . S
C155 C156 1.377 . S
C155 C160 1.397 . S
C156 H119 0.931 1_545 S
C156 C155 1.377 . S
C156 C157 1.376 . S
C157 H120 0.930 1_545 S
C157 C156 1.376 . S
C157 C158 1.376 . S
C158 C157 1.376 . S
C158 C159 1.378 . S
C158 C185 1.486 . S
C159 H121 0.930 . S
C159 C158 1.378 . S
C159 C160 1.376 . S
C160 H122 0.929 . S
C160 C155 1.397 . S
C160 C159 1.376 . S
C161 C145 1.509 . S
C161 C162 1.391 . S
C161 C166 1.386 . S
C162 H123 0.930 1_545 S
C162 C161 1.391 . S
C162 C163 1.375 . S
C163 H124 0.931 1_545 S
C163 C162 1.375 . S
C163 C164 1.375 . S
C164 C163 1.375 . S
C164 C165 1.361 . S
C165 H125 0.930 . S
C165 C164 1.361 . S
C165 C166 1.399 . S
C166 H126 0.929 . S
C166 C161 1.386 . S
C166 C165 1.399 . S
C167 C146 1.485 . S
C167 C168 1.394 . S
C167 C172 1.360 . S
C168 H127 0.931 1_545 S
C168 C167 1.394 . S
C168 C169 1.372 . S
C169 H128 0.930 1_545 S
C169 C168 1.372 . S
C169 C170 1.397 . S
C170 C169 1.397 . S
C170 C171 1.390 . S
C170 C186 1.476 . S
C171 H129 0.930 . S
C171 C170 1.390 . S
C171 C172 1.366 . S
C172 H130 0.932 . S
C172 C167 1.360 . S
C172 C171 1.366 . S
C173 C147 1.490 . S
C173 C174 1.387 . S
C173 C178 1.386 . S
C174 H131 0.924 1_545 S
C174 C173 1.387 . S
C174 C175 1.381 1_545 S
C175 H132 0.929 . S
C175 C174 1.381 1_565 S
C175 C176 1.371 1_565 S
C176 C175 1.371 1_545 S
C176 C177 1.380 . S
C177 H133 0.931 . S
C177 C176 1.380 . S
C177 C178 1.387 . S
C178 H134 0.930 . S
C178 C173 1.386 . S
C178 C177 1.387 . S
C179 C148 1.519 . S
C179 C180 1.377 . S
C179 C184 1.361 . S
C180 H135 0.929 1_545 S
C180 C179 1.377 . S
C180 C181 1.386 . S
C181 H136 0.931 1_545 S
C181 C180 1.386 . S
C181 C182 1.363 . S
C182 C181 1.363 . S
C182 C183 1.385 . S
C183 H137 0.930 . S
C183 C182 1.385 . S
C183 C184 1.396 . S
C184 H138 0.929 . S
C184 C179 1.361 . S
C184 C183 1.396 . S
C185 O139 1.300 . S
C185 O140 1.209 . S
C185 C158 1.486 . S
C186 O141 1.199 . S
C186 O142 1.297 . S
C186 C170 1.476 . S
H187 O213 0.856 . S
H188 O216 0.854 . S
H189 C224 0.930 . S
H190 C225 0.930 . S
H191 C227 0.930 . S
H192 C228 0.930 . S
H193 C230 0.931 . S
H194 C231 0.930 . S
H195 C233 0.930 . S
H196 C234 0.929 . S
H197 C236 0.930 . S
H198 C237 0.931 . S
H199 C239 0.930 . S
H200 C240 0.929 . S
H201 C242 0.931 . S
H202 C243 0.930 . S
H203 C245 0.930 . S
H204 C246 0.932 . S
H205 C248 0.930 . S
H206 C249 0.929 . S
H207 C251 0.931 . S
H208 C252 0.930 . S
H209 C254 0.929 . S
H210 C255 0.931 . S
H211 C257 0.930 . S
H212 C258 0.929 . S
O213 H187 0.856 . S
O213 C259 1.300 . S
O214 C259 1.209 . S
O215 C260 1.199 . S
O216 H188 0.854 . S
O216 C260 1.297 . S
C217 C218 1.404 . S
C217 C222 1.397 . S
C217 C223 1.492 . S
C218 C217 1.404 . S
C218 C219 1.396 . S
C218 C229 1.492 . S
C219 C218 1.396 . S
C219 C220 1.397 . S
C219 C235 1.509 . S
C220 C219 1.397 . S
C220 C221 1.412 . S
C220 C241 1.485 . S
C221 C220 1.412 . S
C221 C222 1.388 . S
C221 C247 1.490 . S
C222 C217 1.397 . S
C222 C221 1.388 . S
C222 C253 1.519 . S
C223 C217 1.492 . S
C223 C224 1.363 . S
C223 C228 1.390 . S
C224 H189 0.930 . S
C224 C223 1.363 . S
C224 C225 1.372 . S
C225 H190 0.930 . S
C225 C224 1.372 . S
C225 C226 1.383 . S
C226 C225 1.383 . S
C226 C227 1.395 . S
C227 H191 0.930 . S
C227 C226 1.395 . S
C227 C228 1.362 . S
C228 H192 0.930 . S
C228 C223 1.390 . S
C228 C227 1.362 . S
C229 C218 1.492 . S
C229 C230 1.377 . S
C229 C234 1.397 . S
C230 H193 0.931 . S
C230 C229 1.377 . S
C230 C231 1.376 1_556 S
C231 H194 0.930 . S
C231 C230 1.376 1_554 S
C231 C232 1.376 . S
C232 C231 1.376 . S
C232 C233 1.378 . S
C232 C259 1.486 . S
C233 H195 0.930 . S
C233 C232 1.378 . S
C233 C234 1.376 1_554 S
C234 H196 0.929 . S
C234 C229 1.397 . S
C234 C233 1.376 1_556 S
C235 C219 1.509 . S
C235 C236 1.391 . S
C235 C240 1.386 . S
C236 H197 0.930 . S
C236 C235 1.391 . S
C236 C237 1.375 . S
C237 H198 0.931 . S
C237 C236 1.375 . S
C237 C238 1.375 . S
C238 C237 1.375 . S
C238 C239 1.361 . S
C239 H199 0.930 . S
C239 C238 1.361 . S
C239 C240 1.399 . S
C240 H200 0.929 . S
C240 C235 1.386 . S
C240 C239 1.399 . S
C241 C220 1.485 . S
C241 C242 1.394 . S
C241 C246 1.360 . S
C242 H201 0.931 . S
C242 C241 1.394 . S
C242 C243 1.372 . S
C243 H202 0.930 . S
C243 C242 1.372 . S
C243 C244 1.397 . S
C244 C243 1.397 . S
C244 C245 1.390 . S
C244 C260 1.476 . S
C245 H203 0.930 . S
C245 C244 1.390 . S
C245 C246 1.366 . S
C246 H204 0.932 . S
C246 C241 1.360 . S
C246 C245 1.366 . S
C247 C221 1.490 . S
C247 C248 1.380 . S
C247 C252 1.386 . S
C248 H205 0.930 . S
C248 C247 1.380 . S
C248 C249 1.381 . S
C249 H206 0.929 . S
C249 C248 1.381 . S
C249 C250 1.371 . S
C250 C249 1.371 . S
C250 C251 1.380 . S
C251 H207 0.931 . S
C251 C250 1.380 . S
C251 C252 1.387 . S
C252 H208 0.930 . S
C252 C247 1.386 . S
C252 C251 1.387 . S
C253 C222 1.519 . S
C253 C254 1.377 . S
C253 C258 1.361 . S
C254 H209 0.929 . S
C254 C253 1.377 . S
C254 C255 1.386 . S
C255 H210 0.931 . S
C255 C254 1.386 . S
C255 C256 1.363 . S
C256 C255 1.363 . S
C256 C257 1.385 . S
C257 H211 0.930 . S
C257 C256 1.385 . S
C257 C258 1.396 . S
C258 H212 0.929 . S
C258 C253 1.361 . S
C258 C257 1.396 . S
C259 O213 1.300 . S
C259 O214 1.209 . S
C259 C232 1.486 . S
C260 O215 1.199 . S
C260 O216 1.297 . S
C260 C244 1.476 . S
C261 C262 1.387 . S
C261 H265 0.950 . S
C261 C270 1.390 . S
C262 C261 1.387 . S
C262 C264 1.387 . S
H263 C270 0.950 . S
C264 C262 1.387 . S
C264 C266 1.390 . S
C264 H268 0.950 . S
H265 C261 0.950 . S
C266 C264 1.390 . S
C266 C267 1.387 . S
C266 H269 0.950 1_455 S
C267 C266 1.387 . S
C267 C270 1.387 . S
H268 C264 0.950 . S
H269 C266 0.950 1_655 S
C270 C261 1.390 . S
C270 H263 0.950 . S
C270 C267 1.387 . S
C271 C272 1.387 1_565 S
C271 H275 0.950 . S
C271 C280 1.390 . S
C272 C271 1.387 1_545 S
C272 C274 1.387 . S
H273 C280 0.950 . S
C274 C272 1.387 . S
C274 C276 1.390 . S
C274 H278 0.950 . S
H275 C271 0.950 . S
C276 C274 1.390 . S
C276 C277 1.387 . S
C276 H279 0.950 . S
C277 C276 1.387 . S
C277 C280 1.387 1_545 S
H278 C274 0.950 . S
H279 C276 0.950 . S
C280 C271 1.390 . S
C280 H273 0.950 . S
C280 C277 1.387 1_565 S
C281 C282 1.387 . S
C281 H285 0.950 . S
C281 C290 1.390 . S
C282 C281 1.387 . S
C282 C284 1.387 . S
H283 C290 0.950 . S
C284 C282 1.387 . S
C284 C286 1.390 . S
C284 H288 0.950 1_655 S
H285 C281 0.950 . S
C286 C284 1.390 . S
C286 C287 1.387 . S
C286 H289 0.950 . S
C287 C286 1.387 . S
C287 C290 1.387 . S
H288 C284 0.950 1_455 S
H289 C286 0.950 . S
C290 C281 1.390 . S
C290 H283 0.950 . S
C290 C287 1.387 . S
C291 C292 1.387 . S
C291 H295 0.950 1_455 S
C291 C300 1.390 . S
C292 C291 1.387 . S
C292 C294 1.387 . S
H293 C300 0.950 1_655 S
C294 C292 1.387 . S
C294 C296 1.390 . S
C294 H298 0.950 . S
H295 C291 0.950 1_655 S
C296 C294 1.390 . S
C296 C297 1.387 . S
C296 H299 0.950 . S
C297 C296 1.387 . S
C297 C300 1.387 . S
H298 C294 0.950 . S
H299 C296 0.950 . S
C300 C291 1.390 . S
C300 H293 0.950 1_455 S
C300 C297 1.387 . S
C301 C302 1.387 1_565 S
C301 H305 0.950 . S
C301 C310 1.390 1_565 S
C302 C301 1.387 1_545 S
C302 C304 1.387 . S
H303 C310 0.950 1_565 S
C304 C302 1.387 . S
C304 C306 1.390 . S
C304 H308 0.950 . S
H305 C301 0.950 . S
C306 C304 1.390 . S
C306 C307 1.387 . S
C306 H309 0.950 . S
C307 C306 1.387 . S
C307 C310 1.387 . S
H308 C304 0.950 . S
H309 C306 0.950 . S
C310 C301 1.390 1_545 S
C310 H303 0.950 1_545 S
C310 C307 1.387 . S
C311 C312 1.387 . S
C311 H315 0.950 . S
C311 C320 1.390 . S
C312 C311 1.387 . S
C312 C314 1.387 . S
H313 C320 0.950 . S
C314 C312 1.387 . S
C314 C316 1.390 . S
C314 H318 0.950 . S
H315 C311 0.950 . S
C316 C314 1.390 . S
C316 C317 1.387 . S
C316 H319 0.950 . S
C317 C316 1.387 . S
C317 C320 1.387 . S
H318 C314 0.950 . S
H319 C316 0.950 . S
C320 C311 1.390 . S
C320 H313 0.950 . S
C320 C317 1.387 . S
C321 C322 1.387 . S
C321 H325 0.950 1_545 S
C321 C330 1.390 . S
C322 C321 1.387 . S
C322 C324 1.387 . S
H323 C330 0.950 1_565 S
C324 C322 1.387 . S
C324 C326 1.390 . S
C324 H328 0.950 . S
H325 C321 0.950 1_565 S
C326 C324 1.390 . S
C326 C327 1.387 . S
C326 H329 0.950 . S
C327 C326 1.387 . S
C327 C330 1.387 . S
H328 C324 0.950 . S
H329 C326 0.950 . S
C330 C321 1.390 . S
C330 H323 0.950 1_545 S
C330 C327 1.387 . S
C331 C332 1.387 . S
C331 H335 0.950 . S
C331 C340 1.390 1_554 S
C332 C331 1.387 . S
C332 C334 1.387 . S
H333 C340 0.950 . S
C334 C332 1.387 . S
C334 C336 1.390 1_554 S
C334 H338 0.950 1_565 S
H335 C331 0.950 . S
C336 C334 1.390 1_556 S
C336 C337 1.387 . S
C336 H339 0.950 . S
C337 C336 1.387 . S
C337 C340 1.387 . S
H338 C334 0.950 1_545 S
H339 C336 0.950 . S
C340 C331 1.390 1_556 S
C340 H333 0.950 . S
C340 C337 1.387 . S
C341 C342 1.387 . S
C341 H345 0.950 . S
C341 C350 1.390 . S
C342 C341 1.387 . S
C342 C344 1.387 1_455 S
H343 C350 0.950 . S
C344 C342 1.387 1_655 S
C344 C346 1.390 . S
C344 H348 0.950 . S
H345 C341 0.950 . S
C346 C344 1.390 . S
C346 C347 1.387 1_655 S
C346 H349 0.950 . S
C347 C346 1.387 1_455 S
C347 C350 1.387 . S
H348 C344 0.950 . S
H349 C346 0.950 . S
C350 C341 1.390 . S
C350 H343 0.950 . S
C350 C347 1.387 . S
C351 C352 1.387 . S
C351 H355 0.950 . S
C351 C360 1.390 . S
C352 C351 1.387 . S
C352 C354 1.387 . S
H353 C360 0.950 . S
C354 C352 1.387 . S
C354 C356 1.390 . S
C354 H358 0.950 . S
H355 C351 0.950 . S
C356 C354 1.390 . S
C356 C357 1.387 . S
C356 H359 0.950 . S
C357 C356 1.387 . S
C357 C360 1.387 . S
H358 C354 0.950 . S
H359 C356 0.950 . S
C360 C351 1.390 . S
C360 H353 0.950 . S
C360 C357 1.387 . S
C361 C362 1.387 . S
C361 H365 0.950 . S
C361 C370 1.390 . S
C362 C361 1.387 . S
C362 C364 1.387 . S
H363 C370 0.950 . S
C364 C362 1.387 . S
C364 C366 1.390 . S
C364 H368 0.950 . S
H365 C361 0.950 . S
C366 C364 1.390 . S
C366 C367 1.387 . S
C366 H369 0.950 1_554 S
C367 C366 1.387 . S
C367 C370 1.387 . S
H368 C364 0.950 . S
H369 C366 0.950 1_556 S
C370 C361 1.390 . S
C370 H363 0.950 . S
C370 C367 1.387 . S
C371 C372 1.387 . S
C371 H375 0.950 . S
C371 C380 1.390 . S
C372 C371 1.387 . S
C372 C374 1.387 1_455 S
H373 C380 0.950 . S
C374 C372 1.387 1_655 S
C374 C376 1.390 . S
C374 H378 0.950 . S
H375 C371 0.950 . S
C376 C374 1.390 . S
C376 C377 1.387 1_655 S
C376 H379 0.950 . S
C377 C376 1.387 1_455 S
C377 C380 1.387 . S
H378 C374 0.950 . S
H379 C376 0.950 . S
C380 C371 1.390 . S
C380 H373 0.950 . S
C380 C377 1.387 . S
C267 C78 1.514 . S
C262 C10 1.641 . S
C272 C17 1.583 . S
C277 C152 1.460 . S
C282 C36 2.106 1_655 S
C287 C256 2.099 . S
C292 C5 1.011 . S
C297 C90 1.003 . S
C307 C164 1.009 . S
C302 C16 1.020 . S
C312 C31 1.832 . S
C317 C250 1.619 . S
C327 C182 2.072 . S
C322 C30 2.083 1_655 S
C332 C3 1.622 . S
C337 C226 1.500 . S
C347 C102 1.646 . S
C342 C18 1.863 . S
C357 C176 1.585 . S
C352 C29 1.787 . S
C367 C238 0.986 1_554 S
C362 C4 0.993 . S
C372 C23 2.139 . S
C377 C108 2.133 . S
