# Generated by pormake.
# Topology anh, (6,3)-cn, num edge types: 1
# Building blocks:
#     Node 0, Type 0, BuildingBlock: PAMTUU_clean_sbu_0, # of connection points: 6
#     Node 1, Type 0, BuildingBlock: PAMTUU_clean_sbu_0, # of connection points: 6
#     Node 2, Type 0, BuildingBlock: PAMTUU_clean_sbu_0, # of connection points: 6
#     Node 3, Type 1, BuildingBlock: PAMTOO_clean_linker_0, # of connection points: 3
#     Node 4, Type 1, BuildingBlock: PAMTOO_clean_linker_0, # of connection points: 3
#     Node 5, Type 1, BuildingBlock: PAMTOO_clean_linker_0, # of connection points: 3
#     Node 6, Type 1, BuildingBlock: PAMTOO_clean_linker_0, # of connection points: 3
#     Node 7, Type 1, BuildingBlock: PAMTOO_clean_linker_0, # of connection points: 3
#     Node 8, Type 1, BuildingBlock: PAMTOO_clean_linker_0, # of connection points: 3
#     Edge 9, Type (0, 1), BuildingBlock: MIFKUJ_clean_linker_0, # of connection points: 2
#     Edge 10, Type (0, 1), BuildingBlock: MIFKUJ_clean_linker_0, # of connection points: 2
#     Edge 11, Type (0, 1), BuildingBlock: MIFKUJ_clean_linker_0, # of connection points: 2
#     Edge 12, Type (0, 1), BuildingBlock: MIFKUJ_clean_linker_0, # of connection points: 2
#     Edge 13, Type (0, 1), BuildingBlock: MIFKUJ_clean_linker_0, # of connection points: 2
#     Edge 14, Type (0, 1), BuildingBlock: MIFKUJ_clean_linker_0, # of connection points: 2
#     Edge 15, Type (0, 1), BuildingBlock: MIFKUJ_clean_linker_0, # of connection points: 2
#     Edge 16, Type (0, 1), BuildingBlock: MIFKUJ_clean_linker_0, # of connection points: 2
#     Edge 17, Type (0, 1), BuildingBlock: MIFKUJ_clean_linker_0, # of connection points: 2
#     Edge 18, Type (0, 1), BuildingBlock: MIFKUJ_clean_linker_0, # of connection points: 2
#     Edge 19, Type (0, 1), BuildingBlock: MIFKUJ_clean_linker_0, # of connection points: 2
#     Edge 20, Type (0, 1), BuildingBlock: MIFKUJ_clean_linker_0, # of connection points: 2
#     Edge 21, Type (0, 1), BuildingBlock: MIFKUJ_clean_linker_0, # of connection points: 2
#     Edge 22, Type (0, 1), BuildingBlock: MIFKUJ_clean_linker_0, # of connection points: 2
#     Edge 23, Type (0, 1), BuildingBlock: MIFKUJ_clean_linker_0, # of connection points: 2
#     Edge 24, Type (0, 1), BuildingBlock: MIFKUJ_clean_linker_0, # of connection points: 2
#     Edge 25, Type (0, 1), BuildingBlock: MIFKUJ_clean_linker_0, # of connection points: 2
#     Edge 26, Type (0, 1), BuildingBlock: MIFKUJ_clean_linker_0, # of connection points: 2
# Relax obj value: 0.199
# Max RMSD: 0.150
# Mean RMSD: 0.124
data_MOF--net-anh--node1-PAMTUU_clean_sbu_0--node2-PAMTOO_clean_linker_0--edge1-MIFKUJ_clean_linker_0
_symmetry_space_group_name_H-M    P1
_symmetry_Int_Tables_number       1
_symmetry_cell_setting            triclinic
loop_
_symmetry_equiv_pos_as_xyz
'x, y, z'
_cell_length_a     41.304726
_cell_length_b     41.237739
_cell_length_c     64.661827
_cell_angle_alpha  88.889373
_cell_angle_beta   92.889375
_cell_angle_gamma 119.86552
loop_
_atom_site_label
_atom_site_type_symbol
_atom_site_fract_x
_atom_site_fract_y
_atom_site_fract_z
_atom_type_partial_charge
Tb0 Tb 0.07711 0.59678 0.15213 0.0
Tb1 Tb 0.11903 0.55064 0.16085 0.0
C2 C 0.10869 0.57357 0.11439 0.0
C3 C 0.99935 0.61248 0.15632 0.0
C4 C 0.92377 0.57413 0.16618 0.0
C5 C 0.93672 0.60312 0.15153 0.0
C6 C 0.97428 0.62203 0.14655 0.0
C7 C 0.98696 0.58518 0.17188 0.0
C8 C 0.94944 0.56608 0.17673 0.0
C9 C 1.03665 0.62655 0.14841 0.0
O10 O 1.02973 0.53744 0.15767 0.0
O11 O 0.05962 0.50344 0.15699 0.0
O12 O 0.0891 0.54674 0.18837 0.0
O13 O 0.09286 0.60289 0.18476 0.0
O14 O 0.13435 0.51059 0.1541 0.0
O15 O 0.15188 0.54111 0.18315 0.0
O16 O 0.16578 0.61132 0.16352 0.0
O17 O 0.13692 0.64308 0.15036 0.0
O18 O 0.09084 0.58992 0.1211 0.0
O19 O 0.1223 0.55746 0.12711 0.0
C20 C 1.02784 0.50411 0.15782 0.0
O21 O 0.06376 0.63659 0.16239 0.0
O22 O 1.03824 0.60547 0.13424 0.0
C23 C 0.08825 0.57502 0.19643 0.0
C24 C 0.18857 0.51656 0.17189 0.0
C25 C 0.25531 0.51393 0.17253 0.0
C26 C 0.22531 0.48866 0.18427 0.0
C27 C 0.19235 0.49006 0.18397 0.0
C28 C 0.21846 0.54246 0.16039 0.0
C29 C 0.2517 0.54106 0.16065 0.0
C30 C 0.15288 0.51591 0.17182 0.0
C31 C 0.16806 0.64361 0.1575 0.0
H32 H 0.9174 0.60957 0.14299 0.0
H33 H 0.98331 0.64273 0.13437 0.0
H34 H 1.00594 0.57734 0.17958 0.0
H35 H 0.94023 0.54402 0.18813 0.0
H36 H 0.22668 0.46677 0.19313 0.0
H37 H 0.16944 0.46988 0.19292 0.0
H38 H 0.2159 0.56327 0.15109 0.0
H39 H 0.27435 0.56083 0.15143 0.0
Tb40 Tb 0.58188 1.02645 0.48199 0.0
Tb41 Tb 0.66999 0.06899 0.48813 0.0
C42 C 0.63142 0.05351 0.44323 0.0
C43 C 0.47956 0.96432 0.48937 0.0
C44 C 0.41562 0.91383 0.51016 0.0
C45 C 0.41239 0.92611 0.49011 0.0
C46 C 0.44409 0.95117 0.47985 0.0
C47 C 0.48322 0.95098 0.50903 0.0
C48 C 0.45134 0.92562 0.51933 0.0
C49 C 0.51162 0.99495 0.47953 0.0
O50 O 0.59324 0.97797 0.48139 0.0
O51 O 0.65545 1.00867 0.49148 0.0
O52 O 0.6469 0.07241 0.51708 0.0
O53 O 0.59486 1.01611 0.51323 0.0
O54 O 0.72378 0.10581 0.47832 0.0
O55 O 0.71578 0.07669 0.5074 0.0
O56 O 0.65993 0.11792 0.48531 0.0
O57 O 0.59646 0.08646 0.48788 0.0
O58 O 0.60099 0.0485 0.45151 0.0
O59 O 0.65927 0.05535 0.45493 0.0
C60 C 0.6241 0.97663 0.48714 0.0
O61 O 0.53301 1.02337 0.49158 0.0
O62 O 0.53077 0.98628 0.46759 0.0
C63 C 0.61895 0.04327 0.5252 0.0
C64 C 0.76536 0.13824 0.50615 0.0
C65 C 0.81672 0.20948 0.52218 0.0
C66 C 0.82785 0.18278 0.51915 0.0
C67 C 0.80234 0.14744 0.51107 0.0
C68 C 0.75346 0.16372 0.51049 0.0
C69 C 0.77894 0.19912 0.51835 0.0
C70 C 0.73965 0.10285 0.49566 0.0
C71 C 0.62847 0.11891 0.48724 0.0
H72 H 0.38521 0.91666 0.48244 0.0
H73 H 0.44082 0.96124 0.46471 0.0
H74 H 0.51056 0.96109 0.51664 0.0
H75 H 0.45454 0.91635 0.5347 0.0
H76 H 0.8566 0.18969 0.52227 0.0
H77 H 0.81175 0.12778 0.50806 0.0
H78 H 0.72482 0.15682 0.50701 0.0
H79 H 0.76939 0.219 0.52021 0.0
Tb80 Tb 0.61624 0.5198 0.81673 0.0
Tb81 Tb 0.66119 0.60754 0.82291 0.0
C82 C 0.63964 0.57097 0.77766 0.0
C83 C 0.58193 0.42027 0.82802 0.0
C84 C 0.58041 0.36286 0.8528 0.0
C85 C 0.55844 0.35452 0.83419 0.0
C86 C 0.55908 0.383 0.82198 0.0
C87 C 0.60488 0.429 0.84621 0.0
C88 C 0.60417 0.40043 0.85853 0.0
C89 C 0.57926 0.44949 0.8162 0.0
O90 O 0.67593 0.53155 0.81589 0.0
O91 O 0.70687 0.59246 0.82709 0.0
O92 O 0.63482 0.58278 0.85183 0.0
O93 O 0.64063 0.53197 0.84782 0.0
O94 O 0.67841 0.66175 0.81233 0.0
O95 O 0.69918 0.65259 0.84196 0.0
O96 O 0.60213 0.5976 0.82142 0.0
O97 O 0.57008 0.53357 0.82095 0.0
O98 O 0.61462 0.53941 0.78561 0.0
O99 O 0.66382 0.59887 0.78966 0.0
C100 C 0.70786 0.56168 0.82223 0.0
O101 O 0.57114 0.4705 0.82708 0.0
O102 O 0.60588 0.46899 0.8036 0.0
C103 C 0.63643 0.55432 0.85987 0.0
C104 C 0.6892 0.70385 0.83923 0.0
C105 C 0.67478 0.75946 0.85305 0.0
C106 C 0.71138 0.76516 0.85426 0.0
C107 C 0.71853 0.73757 0.84729 0.0
C108 C 0.65237 0.6969 0.83944 0.0
C109 C 0.64522 0.72451 0.84619 0.0
C110 C 0.69737 0.67702 0.8296 0.0
C111 C 0.56964 0.56567 0.82188 0.0
H112 H 0.5407 0.32587 0.82901 0.0
H113 H 0.54127 0.37587 0.80798 0.0
H114 H 0.62267 0.45781 0.85109 0.0
H115 H 0.62153 0.40767 0.87269 0.0
H116 H 0.73468 0.79155 0.85973 0.0
H117 H 0.74709 0.74311 0.84748 0.0
H118 H 0.6293 0.67083 0.83346 0.0
H119 H 0.61676 0.71923 0.8447 0.0
H120 H 0.68733 0.14938 0.21813 0.0
H121 H 0.5863 0.04243 0.21528 0.0
H122 H 0.62807 0.10516 0.15907 0.0
H123 H 0.5241 0.04212 0.16976 0.0
C124 C 0.53182 1.02344 0.17864 0.0
O125 O 0.57097 0.03751 0.17585 0.0
H126 H 0.52824 1.02773 0.19509 0.0
C127 C 0.66402 0.12801 0.20892 0.0
C128 C 0.66279 0.133 0.18729 0.0
C129 C 0.63677 0.0959 0.21902 0.0
C130 C 0.60668 0.06707 0.20738 0.0
C131 C 0.60134 0.06924 0.18589 0.0
C132 C 0.63027 0.10292 0.17571 0.0
H133 H 0.63415 0.63077 0.55033 0.0
H134 H 0.63938 0.52923 0.54919 0.0
H135 H 0.62744 0.57848 0.49162 0.0
H136 H 0.58366 0.4744 0.50049 0.0
C137 C 0.60804 0.47953 0.51087 0.0
O138 O 0.63472 0.51873 0.50949 0.0
H139 H 0.59743 0.47408 0.52675 0.0
C140 C 0.634 0.60871 0.54139 0.0
C141 C 0.6309 0.61011 0.51961 0.0
C142 C 0.63628 0.57966 0.5521 0.0
C143 C 0.63612 0.55054 0.54084 0.0
C144 C 0.63223 0.54812 0.51908 0.0
C145 C 0.62939 0.57859 0.50837 0.0
H146 H 0.06271 0.56396 0.88722 0.0
H147 H 0.16994 0.57077 0.8864 0.0
H148 H 0.10826 0.56244 0.82866 0.0
H149 H 0.16982 0.51726 0.84073 0.0
C150 C 0.19017 0.54352 0.84897 0.0
O151 O 0.1754 0.5686 0.84656 0.0
H152 H 0.18916 0.53565 0.86554 0.0
C153 C 0.08471 0.56484 0.87835 0.0
C154 C 0.08013 0.56362 0.85656 0.0
C155 C 0.11624 0.56681 0.88918 0.0
C156 C 0.14521 0.56766 0.87798 0.0
C157 C 0.14351 0.56508 0.85619 0.0
C158 C 0.1101 0.56298 0.8454 0.0
H159 H 0.99663 0.53476 0.41805 0.0
H160 H 0.07003 0.65402 0.41349 0.0
H161 H 1.03992 0.60315 0.47292 0.0
H162 H 1.03975 0.6665 0.47133 0.0
C163 C 0.06764 0.68525 0.46501 0.0
O164 O 0.0793 0.66551 0.45341 0.0
H165 H 0.06542 0.70634 0.455 0.0
C166 C 1.01337 0.56206 0.42525 0.0
C167 C 1.01511 0.56529 0.44692 0.0
C168 C 1.0332 0.59383 0.41288 0.0
C169 C 0.05371 0.62919 0.42253 0.0
C170 C 0.05589 0.63237 0.44413 0.0
C171 C 1.03703 0.60048 0.45621 0.0
H172 H 0.55215 0.97687 0.7403 0.0
H173 H 0.51218 0.05556 0.74226 0.0
H174 H 0.54162 1.01799 0.79858 0.0
H175 H 0.47821 1.01913 0.80016 0.0
C176 C 0.48893 0.04894 0.79589 0.0
O177 O 0.51816 0.06155 0.78276 0.0
H178 H 0.46569 0.05117 0.78785 0.0
C179 C 0.54375 0.99349 0.74897 0.0
C180 C 0.54745 0.99416 0.77066 0.0
C181 C 0.53169 1.01608 0.73847 0.0
C182 C 0.52156 0.03797 0.75002 0.0
C183 C 0.5252 0.03855 0.77166 0.0
C184 C 0.53874 1.01724 0.78184 0.0
H185 H 0.58675 0.41621 0.06975 0.0
H186 H 0.46942 0.37825 0.05836 0.0
H187 H 0.51277 0.37903 0.12013 0.0
H188 H 0.44543 0.31801 0.11258 0.0
C189 C 0.42959 0.33078 0.1051 0.0
O190 O 0.45336 0.36549 0.09714 0.0
H191 H 0.41087 0.31186 0.09245 0.0
C192 C 0.55862 0.40392 0.07516 0.0
C193 C 0.55279 0.39662 0.09631 0.0
C194 C 0.52885 0.39809 0.06132 0.0
C195 C 0.49275 0.38278 0.06874 0.0
C196 C 0.487 0.37554 0.08985 0.0
C197 C 0.51714 0.38325 0.10368 0.0
H198 H 0.29168 0.51621 0.13794 0.0
H199 H 0.33243 0.48975 0.13439 0.0
H200 H 0.3324 0.47131 0.20024 0.0
H201 H 0.29243 0.49875 0.20405 0.0
H202 H 0.401 0.49411 0.15275 0.0
H203 H 0.30033 0.37654 0.20351 0.0
H204 H 0.23814 0.35306 0.21768 0.0
H205 H 0.20278 0.3916 0.16365 0.0
H206 H 0.26445 0.41458 0.14904 0.0
H207 H 0.45337 0.35774 0.14425 0.0
H208 H 0.42852 0.38887 0.16491 0.0
H209 H 0.33416 0.35181 0.12131 0.0
H210 H 0.35916 0.32111 0.10054 0.0
H211 H 0.31807 0.35789 0.1637 0.0
H212 H 0.40723 0.42739 0.11027 0.0
H213 H 0.4682 0.44936 0.09495 0.0
H214 H 0.52474 0.50693 0.15156 0.0
H215 H 0.46403 0.48461 0.16734 0.0
C216 C 0.30172 0.50818 0.1518 0.0
C217 C 0.28814 0.5087 0.17121 0.0
C218 C 0.32503 0.49304 0.14974 0.0
C219 C 0.33475 0.47805 0.16701 0.0
C220 C 0.32484 0.4825 0.18673 0.0
C221 C 0.30179 0.49788 0.18883 0.0
C222 C 0.34823 0.45153 0.16376 0.0
C223 C 0.38324 0.46444 0.15549 0.0
C224 C 0.32475 0.41278 0.16714 0.0
C225 C 0.28707 0.39762 0.17533 0.0
C226 C 0.27917 0.37976 0.19463 0.0
C227 C 0.24403 0.36656 0.20273 0.0
C228 C 0.21657 0.37095 0.19161 0.0
C229 C 0.22409 0.38829 0.17228 0.0
C230 C 0.25911 0.40139 0.16408 0.0
C231 C 0.42639 0.35471 0.1397 0.0
C232 C 0.40796 0.33692 0.12094 0.0
C233 C 0.41237 0.37262 0.15142 0.0
C234 C 0.3798 0.37287 0.14446 0.0
C235 C 0.35927 0.3517 0.12694 0.0
C236 C 0.37347 0.33411 0.11511 0.0
C237 C 0.37088 0.40044 0.15275 0.0
C238 C 0.33648 0.38768 0.1617 0.0
C239 C 0.39479 0.43928 0.14983 0.0
C240 C 0.43117 0.45406 0.14004 0.0
C241 C 0.43268 0.44462 0.11946 0.0
C242 C 0.46717 0.45709 0.1107 0.0
C243 C 0.50033 0.47944 0.12229 0.0
C244 C 0.49904 0.48955 0.14262 0.0
C245 C 0.4646 0.47699 0.15148 0.0
H246 H 0.52701 0.48899 0.11551 0.0
H247 H 0.18944 0.36084 0.19794 0.0
H248 H 0.88532 0.2491 0.50606 0.0
H249 H 0.9247 0.31634 0.5055 0.0
H250 H 0.85101 0.32849 0.54567 0.0
H251 H 0.8113 0.2604 0.54659 0.0
H252 H 0.85746 0.36473 0.51106 0.0
H253 H 0.94431 0.36423 0.56051 0.0
H254 H 0.98459 0.34327 0.57856 0.0
H255 H 1.04945 0.36766 0.52471 0.0
H256 H 1.00926 0.38823 0.5062 0.0
H257 H 0.97254 0.55652 0.47978 0.0
H258 H 0.9428 0.50215 0.50256 0.0
H259 H 0.98472 0.445 0.46667 0.0
H260 H 1.01466 0.49926 0.44397 0.0
H261 H 0.99555 0.44067 0.5098 0.0
H262 H 0.89806 0.42677 0.45907 0.0
H263 H 0.85561 0.44507 0.44107 0.0
H264 H 0.80927 0.44598 0.49889 0.0
H265 H 0.85201 0.42839 0.5173 0.0
C266 C 0.87821 0.26576 0.51557 0.0
C267 C 0.84489 0.24929 0.52621 0.0
C268 C 0.9009 0.30444 0.51524 0.0
C269 C 0.89091 0.32752 0.5256 0.0
C270 C 0.85923 0.31116 0.53757 0.0
C271 C 0.83648 0.2723 0.53798 0.0
C272 C 0.90972 0.36784 0.52062 0.0
C273 C 0.88769 0.38185 0.51144 0.0
C274 C 0.94913 0.38997 0.52089 0.0
C275 C 0.97364 0.37776 0.53194 0.0
C276 C 0.96702 0.36493 0.55246 0.0
C277 C 0.98987 0.35314 0.56278 0.0
C278 C 1.01956 0.35413 0.55279 0.0
C279 C 1.02648 0.36696 0.53245 0.0
C280 C 1.00371 0.37878 0.52204 0.0
C281 C 0.97539 0.53232 0.47681 0.0
C282 C 0.9957 0.53191 0.46008 0.0
C283 C 0.95842 0.50139 0.48979 0.0
C284 C 0.9617 0.46973 0.48628 0.0
C285 C 0.98208 0.46933 0.46965 0.0
C286 C 0.99876 0.50009 0.45658 0.0
C287 C 0.94318 0.43635 0.49947 0.0
C288 C 0.96536 0.42394 0.51015 0.0
C289 C 0.90389 0.41571 0.50068 0.0
C290 C 0.87877 0.42701 0.48962 0.0
C291 C 0.87924 0.43144 0.46799 0.0
C292 C 0.85503 0.44157 0.4577 0.0
C293 C 0.82991 0.44691 0.46884 0.0
C294 C 0.82889 0.44204 0.49029 0.0
C295 C 0.85313 0.43205 0.50066 0.0
H296 H 0.81113 0.45465 0.46084 0.0
H297 H 1.0372 0.34497 0.56081 0.0
H298 H 0.61517 0.75939 0.8703 0.0
H299 H 0.59455 0.80489 0.86293 0.0
H300 H 0.69811 0.87687 0.83391 0.0
H301 H 0.7183 0.83132 0.84036 0.0
H302 H 0.61918 0.88489 0.86502 0.0
H303 H 0.67256 0.8845 0.78456 0.0
H304 H 0.6888 0.84499 0.76421 0.0
H305 H 0.60981 0.74759 0.79649 0.0
H306 H 0.59254 0.78639 0.81665 0.0
H307 H 0.60325 1.0176 0.80061 0.0
H308 H 0.62456 0.97972 0.82004 0.0
H309 H 0.54293 0.88164 0.78578 0.0
H310 H 0.52231 0.9198 0.76589 0.0
H311 H 0.60561 0.88264 0.78821 0.0
H312 H 0.5317 0.89832 0.83704 0.0
H313 H 0.51076 0.93313 0.85803 0.0
H314 H 0.61883 0.99082 0.88955 0.0
H315 H 0.64062 0.95676 0.86853 0.0
C316 C 0.63399 0.78541 0.86288 0.0
C317 C 0.66789 0.79121 0.85537 0.0
C318 C 0.62234 0.81154 0.85891 0.0
C319 C 0.64456 0.84369 0.84751 0.0
C320 C 0.68053 0.85195 0.8426 0.0
C321 C 0.69207 0.82582 0.8464 0.0
C322 C 0.62755 0.86385 0.8368 0.0
C323 C 0.61624 0.88464 0.84826 0.0
C324 C 0.62257 0.86221 0.81497 0.0
C325 C 0.6316 0.83842 0.80225 0.0
C326 C 0.65849 0.85462 0.78719 0.0
C327 C 0.66787 0.83235 0.77569 0.0
C328 C 0.65043 0.79382 0.7791 0.0
C329 C 0.62336 0.77744 0.79389 0.0
C330 C 0.61376 0.79955 0.80535 0.0
C331 C 0.58988 0.98792 0.79729 0.0
C332 C 0.56114 0.97147 0.78183 0.0
C333 C 0.60187 0.96629 0.80847 0.0
C334 C 0.58485 0.92773 0.80464 0.0
C335 C 0.55637 0.91134 0.78903 0.0
C336 C 0.54471 0.93309 0.77764 0.0
C337 C 0.59781 0.90474 0.81631 0.0
C338 C 0.60837 0.88314 0.80499 0.0
C339 C 0.60099 0.90491 0.83826 0.0
C340 C 0.58788 0.92519 0.85108 0.0
C341 C 0.55108 0.91861 0.84835 0.0
C342 C 0.53905 0.93819 0.86026 0.0
C343 C 0.56347 0.96423 0.87508 0.0
C344 C 0.59995 0.97066 0.87805 0.0
C345 C 0.61215 0.9512 0.86616 0.0
H346 H 0.55411 0.97937 0.88428 0.0
H347 H 0.65784 0.77666 0.77024 0.0
H348 H 0.87091 0.59462 0.17077 0.0
H349 H 0.80297 0.55383 0.16784 0.0
H350 H 0.81723 0.45756 0.16292 0.0
H351 H 0.88503 0.49805 0.16595 0.0
H352 H 0.77835 0.4663 0.12972 0.0
H353 H 0.77356 0.46312 0.2032 0.0
H354 H 0.78712 0.48916 0.2386 0.0
H355 H 0.73007 0.55014 0.22318 0.0
H356 H 0.71671 0.52491 0.18757 0.0
H357 H 0.58736 0.3562 0.10421 0.0
H358 H 0.64577 0.37603 0.12488 0.0
H359 H 0.64921 0.47917 0.14031 0.0
H360 H 0.59002 0.45848 0.12036 0.0
H361 H 0.67748 0.45766 0.17206 0.0
H362 H 0.69307 0.47234 0.0984 0.0
H363 H 0.68129 0.45089 0.06205 0.0
H364 H 0.72079 0.3742 0.07685 0.0
H365 H 0.73222 0.3948 0.1134 0.0
C366 C 0.85945 0.56467 0.16958 0.0
C367 C 0.88316 0.54952 0.16845 0.0
C368 C 0.82071 0.54139 0.16808 0.0
C369 C 0.80517 0.50269 0.16528 0.0
C370 C 0.82874 0.48732 0.16528 0.0
C371 C 0.86744 0.51049 0.16704 0.0
C372 C 0.76512 0.47947 0.15909 0.0
C373 C 0.75617 0.46352 0.1392 0.0
C374 C 0.73648 0.47702 0.17124 0.0
C375 C 0.74441 0.49231 0.19265 0.0
C376 C 0.76423 0.48235 0.2073 0.0
C377 C 0.77181 0.49691 0.22742 0.0
C378 C 0.75953 0.52135 0.23313 0.0
C379 C 0.73958 0.53121 0.21873 0.0
C380 C 0.73196 0.51674 0.19858 0.0
C381 C 0.60033 0.38266 0.11246 0.0
C382 C 0.58481 0.40607 0.11077 0.0
C383 C 0.63358 0.39401 0.12419 0.0
C384 C 0.65217 0.42938 0.13382 0.0
C385 C 0.63536 0.45179 0.13303 0.0
C386 C 0.60179 0.44015 0.12159 0.0
C387 C 0.69088 0.44491 0.14262 0.0
C388 C 0.6996 0.45964 0.16283 0.0
C389 C 0.71962 0.44696 0.13065 0.0
C390 C 0.71305 0.43476 0.10866 0.0
C391 C 0.69899 0.45071 0.09393 0.0
C392 C 0.69239 0.43873 0.07329 0.0
C393 C 0.70018 0.41112 0.06715 0.0
C394 C 0.71468 0.39552 0.08164 0.0
C395 C 0.72121 0.40732 0.10231 0.0
H396 H 0.69508 0.40189 0.05117 0.0
H397 H 0.7654 0.53259 0.24872 0.0
H398 H 0.39846 0.84927 0.53133 0.0
H399 H 0.33614 0.80187 0.54186 0.0
H400 H 0.29332 0.87507 0.52329 0.0
H401 H 0.35537 0.92266 0.51377 0.0
H402 H 0.2523 0.83048 0.55258 0.0
H403 H 0.30204 0.81594 0.4876 0.0
H404 H 0.34733 0.80746 0.46824 0.0
H405 H 0.32125 0.70814 0.50289 0.0
H406 H 0.27607 0.71634 0.5226 0.0
H407 H 0.10998 0.76001 0.4748 0.0
H408 H 0.16343 0.78929 0.49973 0.0
H409 H 0.14285 0.68042 0.51954 0.0
H410 H 0.08875 0.65103 0.49497 0.0
H411 H 0.2127 0.72595 0.5028 0.0
H412 H 0.14197 0.7324 0.55564 0.0
H413 H 0.09541 0.74349 0.57163 0.0
H414 H 0.15886 0.8602 0.55706 0.0
H415 H 0.20554 0.84978 0.54068 0.0
C416 C 0.37596 0.85564 0.53026 0.0
C417 C 0.38127 0.88901 0.52109 0.0
C418 C 0.34039 0.82856 0.53623 0.0
C419 C 0.30983 0.83449 0.53277 0.0
C420 C 0.31629 0.86962 0.52595 0.0
C421 C 0.3517 0.89665 0.52021 0.0
C422 C 0.27077 0.80302 0.53209 0.0
C423 C 0.24351 0.80728 0.54192 0.0
C424 C 0.25931 0.77212 0.51862 0.0
C425 C 0.28613 0.76699 0.5067 0.0
C426 C 0.30611 0.79239 0.49111 0.0
C427 C 0.33174 0.78764 0.4801 0.0
C428 C 0.33725 0.75734 0.48438 0.0
C429 C 0.31703 0.73165 0.49964 0.0
C430 C 0.29144 0.73634 0.51074 0.0
C431 C 0.11617 0.74239 0.48494 0.0
C432 C 0.09566 0.70334 0.48282 0.0
C433 C 0.14652 0.75907 0.49925 0.0
C434 C 0.15696 0.73694 0.5115 0.0
C435 C 0.13505 0.6979 0.51033 0.0
C436 C 0.10432 0.68121 0.49626 0.0
C437 C 0.19426 0.75477 0.52229 0.0
C438 C 0.2212 0.74792 0.51429 0.0
C439 C 0.20525 0.78362 0.53706 0.0
C440 C 0.17728 0.79024 0.54687 0.0
C441 C 0.1459 0.7604 0.5557 0.0
C442 C 0.11948 0.76658 0.56487 0.0
C443 C 0.12417 0.80252 0.56536 0.0
C444 C 0.1553 0.83238 0.55669 0.0
C445 C 0.18179 0.82635 0.5475 0.0
H446 H 0.10369 0.80725 0.57246 0.0
H447 H 0.3571 0.7537 0.47584 0.0
H448 H 0.63876 0.35801 0.87203 0.0
H449 H 0.63677 0.30045 0.88409 0.0
H450 H 0.51694 0.24036 0.87305 0.0
H451 H 0.51856 0.29788 0.86259 0.0
H452 H 0.53487 0.20227 0.89931 0.0
H453 H 0.58287 0.26447 0.83052 0.0
H454 H 0.63019 0.31865 0.81154 0.0
H455 H 0.71786 0.30883 0.84443 0.0
H456 H 0.67092 0.25466 0.86365 0.0
H457 H 0.45598 0.08219 0.81598 0.0
H458 H 0.48296 0.12729 0.84458 0.0
H459 H 0.5797 0.11299 0.84834 0.0
H460 H 0.55265 0.06765 0.8199 0.0
H461 H 0.59678 0.18451 0.8403 0.0
H462 H 0.53343 0.09641 0.89126 0.0
H463 H 0.4815 0.04219 0.90757 0.0
H464 H 0.41852 0.09941 0.90682 0.0
H465 H 0.46976 0.15376 0.8902 0.0
C466 C 0.61187 0.33285 0.87312 0.0
C467 C 0.57893 0.33192 0.86549 0.0
C468 C 0.61077 0.29991 0.87995 0.0
C469 C 0.57693 0.26576 0.87856 0.0
C470 C 0.54356 0.26615 0.87394 0.0
C471 C 0.54454 0.299 0.86758 0.0
C472 C 0.57617 0.22962 0.87648 0.0
C473 C 0.54883 0.19819 0.88669 0.0
C474 C 0.59549 0.22433 0.86056 0.0
C475 C 0.62357 0.25584 0.84854 0.0
C476 C 0.61226 0.27384 0.83359 0.0
C477 C 0.63898 0.30456 0.82286 0.0
C478 C 0.67701 0.3172 0.82681 0.0
C479 C 0.68839 0.29901 0.84141 0.0
C480 C 0.66177 0.26831 0.85222 0.0
C481 C 0.48258 0.08805 0.82324 0.0
C482 C 0.50268 0.07224 0.81539 0.0
C483 C 0.49781 0.11346 0.83973 0.0
C484 C 0.53331 0.12336 0.84863 0.0
C485 C 0.55221 0.10557 0.84176 0.0
C486 C 0.53681 0.07988 0.82542 0.0
C487 C 0.55306 0.15718 0.86188 0.0
C488 C 0.58417 0.18812 0.85375 0.0
C489 C 0.5367 0.16184 0.87943 0.0
C490 C 0.5056 0.12928 0.88949 0.0
C491 C 0.50844 0.0974 0.89446 0.0
C492 C 0.47911 0.06662 0.90378 0.0
C493 C 0.44675 0.06737 0.90824 0.0
C494 C 0.44365 0.09891 0.9034 0.0
C495 C 0.4729 0.12977 0.89407 0.0
H496 H 0.42406 0.04351 0.91545 0.0
H497 H 0.69768 0.34108 0.81854 0.0
H498 H 0.68141 0.96171 0.50086 0.0
H499 H 0.68195 0.90286 0.50488 0.0
H500 H 0.56731 0.84212 0.48214 0.0
H501 H 0.56648 0.90136 0.47875 0.0
H502 H 0.57034 0.79543 0.50689 0.0
H503 H 0.65858 0.86012 0.45501 0.0
H504 H 0.71394 0.91198 0.4395 0.0
H505 H 0.78457 0.90649 0.48886 0.0
H506 H 0.72955 0.85486 0.50479 0.0
H507 H 0.574 0.61986 0.4981 0.0
H508 H 0.57154 0.67773 0.49141 0.0
H509 H 0.684 0.74278 0.5169 0.0
H510 H 0.68638 0.68518 0.52332 0.0
H511 H 0.68096 0.78643 0.48955 0.0
H512 H 0.59192 0.72134 0.54131 0.0
H513 H 0.53628 0.66894 0.55627 0.0
H514 H 0.46678 0.67439 0.50622 0.0
H515 H 0.52211 0.72658 0.49083 0.0
C516 C 0.65605 0.93609 0.49652 0.0
C517 C 0.62399 0.93815 0.48921 0.0
C518 C 0.65645 0.90142 0.49869 0.0
C519 C 0.62497 0.86576 0.49344 0.0
C520 C 0.59267 0.86778 0.48641 0.0
C521 C 0.59221 0.90255 0.48433 0.0
C522 C 0.62563 0.82738 0.49547 0.0
C523 C 0.59466 0.79398 0.5027 0.0
C524 C 0.65684 0.82291 0.49067 0.0
C525 C 0.68992 0.85391 0.48119 0.0
C526 C 0.6859 0.87014 0.46262 0.0
C527 C 0.71721 0.89947 0.45375 0.0
C528 C 0.75274 0.9126 0.46322 0.0
C529 C 0.75703 0.89634 0.48156 0.0
C530 C 0.7258 0.86703 0.49051 0.0
C531 C 0.59878 0.64637 0.50179 0.0
C532 C 0.63094 0.64625 0.51077 0.0
C533 C 0.59714 0.68035 0.49832 0.0
C534 C 0.62737 0.71682 0.50377 0.0
C535 C 0.6597 0.71651 0.51222 0.0
C536 C 0.66122 0.68271 0.51581 0.0
C537 C 0.62578 0.75458 0.50103 0.0
C538 C 0.65662 0.78789 0.4937 0.0
C539 C 0.59442 0.75887 0.50564 0.0
C540 C 0.56118 0.72756 0.51481 0.0
C541 C 0.5648 0.71119 0.53342 0.0
C542 C 0.53332 0.68156 0.54199 0.0
C543 C 0.49803 0.66827 0.53217 0.0
C544 C 0.49414 0.68466 0.51379 0.0
C545 C 0.52554 0.71428 0.50514 0.0
H546 H 0.4737 0.64533 0.53882 0.0
H547 H 0.77695 0.9353 0.45633 0.0
H548 H 0.72568 0.50613 0.811 0.0
H549 H 0.78483 0.50557 0.81416 0.0
H550 H 0.83848 0.61474 0.84245 0.0
H551 H 0.77958 0.61581 0.83845 0.0
H552 H 0.89137 0.6178 0.82482 0.0
H553 H 0.81058 0.51337 0.86675 0.0
H554 H 0.75448 0.45319 0.87408 0.0
H555 H 0.77988 0.39989 0.82613 0.0
H556 H 0.83594 0.45986 0.81836 0.0
H557 H 0.05886 0.61672 0.86351 0.0
H558 H 0.99943 0.6153 0.85713 0.0
H559 H 0.95509 0.51042 0.82494 0.0
H560 H 1.01518 0.51159 0.83186 0.0
H561 H 0.89734 0.50378 0.84325 0.0
H562 H 0.97865 0.60734 0.802 0.0
H563 H 1.03427 0.66749 0.79411 0.0
H564 H 1.00729 0.7223 0.84045 0.0
H565 H 0.95174 0.66237 0.84879 0.0
C566 C 0.74983 0.53025 0.81798 0.0
C567 C 0.74599 0.56098 0.82442 0.0
C568 C 0.7846 0.52978 0.82009 0.0
C569 C 0.81837 0.55973 0.8292 0.0
C570 C 0.81446 0.5906 0.83541 0.0
C571 C 0.77979 0.5912 0.83313 0.0
C572 C 0.85702 0.55953 0.83193 0.0
C573 C 0.89196 0.5926 0.8292 0.0
C574 C 0.86062 0.52727 0.83709 0.0
C575 C 0.82723 0.49118 0.84184 0.0
C576 C 0.8041 0.48884 0.85771 0.0
C577 C 0.77233 0.45477 0.86194 0.0
C578 C 0.76357 0.42276 0.85053 0.0
C579 C 0.78667 0.42472 0.83492 0.0
C580 C 0.81846 0.45874 0.83061 0.0
C581 C 1.03712 0.59358 0.85448 0.0
C582 C 1.04423 0.56505 0.84774 0.0
C583 C 1.00207 0.59272 0.85075 0.0
C584 C 0.97063 0.5631 0.83994 0.0
C585 C 0.97749 0.5343 0.83316 0.0
C586 C 1.01292 0.53524 0.83688 0.0
C587 C 0.93156 0.56218 0.83637 0.0
C588 C 0.89664 0.52896 0.83893 0.0
C589 C 0.9279 0.59429 0.83107 0.0
C590 C 0.96126 0.6303 0.82615 0.0
C591 C 0.98473 0.63218 0.8106 0.0
C592 C 1.01622 0.66623 0.80603 0.0
C593 C 1.02436 0.69867 0.81681 0.0
C594 C 1.00098 0.69714 0.83214 0.0
C595 C 0.96948 0.66314 0.83678 0.0
H596 H 1.04875 0.72501 0.81325 0.0
H597 H 0.73893 0.39642 0.85381 0.0
H598 H 0.18798 0.71627 0.14281 0.0
H599 H 0.24748 0.77554 0.14556 0.0
H600 H 0.29837 0.72014 0.17908 0.0
H601 H 0.2387 0.66066 0.17625 0.0
H602 H 0.33031 0.78759 0.19624 0.0
H603 H 0.31624 0.75613 0.12409 0.0
H604 H 0.28471 0.73977 0.08936 0.0
H605 H 0.28046 0.84174 0.08796 0.0
H606 H 0.31157 0.85849 0.12281 0.0
H607 H 0.51783 0.95225 0.19543 0.0
H608 H 0.46184 0.88995 0.19155 0.0
H609 H 0.41233 0.93461 0.14792 0.0
H610 H 0.46887 0.99582 0.15098 0.0
H611 H 0.37983 0.87076 0.13589 0.0
H612 H 0.39016 0.90183 0.20798 0.0
H613 H 0.42014 0.91907 0.24308 0.0
H614 H 0.42921 0.81975 0.24537 0.0
H615 H 0.39969 0.80216 0.21018 0.0
C616 C 0.21162 0.71612 0.15074 0.0
C617 C 0.20674 0.68179 0.1591 0.0
C618 C 0.24667 0.75091 0.15226 0.0
C619 C 0.27982 0.75443 0.16239 0.0
C620 C 0.27476 0.7202 0.17105 0.0
C621 C 0.23978 0.68527 0.16932 0.0
C622 C 0.31873 0.79281 0.16394 0.0
C623 C 0.34092 0.80521 0.18278 0.0
C624 C 0.33447 0.81829 0.14707 0.0
C625 C 0.31589 0.80838 0.12614 0.0
C626 C 0.30836 0.77494 0.11643 0.0
C627 C 0.2906 0.76562 0.09672 0.0
C628 C 0.2805 0.78965 0.08649 0.0
C629 C 0.28824 0.82312 0.09592 0.0
C630 C 0.30596 0.83256 0.11565 0.0
C631 C 0.49572 0.94887 0.18442 0.0
C632 C 0.50025 0.98071 0.17306 0.0
C633 C 0.46223 0.91249 0.18255 0.0
C634 C 0.42993 0.90525 0.16972 0.0
C635 C 0.43509 0.93701 0.15806 0.0
C636 C 0.46857 0.97304 0.15973 0.0
C637 C 0.39156 0.86606 0.1683 0.0
C638 C 0.36937 0.85338 0.14943 0.0
C639 C 0.3756 0.84059 0.18524 0.0
C640 C 0.39313 0.85092 0.20638 0.0
C641 C 0.39873 0.88378 0.21594 0.0
C642 C 0.41563 0.89361 0.23585 0.0
C643 C 0.42668 0.87058 0.24642 0.0
C644 C 0.42072 0.8376 0.23714 0.0
C645 C 0.40391 0.82769 0.21722 0.0
H646 H 0.43978 0.87824 0.26182 0.0
H647 H 0.26675 0.78238 0.07123 0.0
H648 H 0.68878 0.19381 0.48678 0.0
H649 H 0.68966 0.25355 0.48944 0.0
H650 H 0.57055 0.19433 0.4952 0.0
H651 H 0.56963 0.13457 0.49196 0.0
H652 H 0.58095 0.25183 0.47545 0.0
H653 H 0.65414 0.25321 0.53724 0.0
H654 H 0.70696 0.25129 0.55567 0.0
H655 H 0.78464 0.34629 0.5213 0.0
H656 H 0.73226 0.34852 0.50252 0.0
H657 H 0.5581 0.40506 0.50543 0.0
H658 H 0.56399 0.34983 0.50199 0.0
H659 H 0.68361 0.41876 0.50281 0.0
H660 H 0.67742 0.47505 0.50766 0.0
H661 H 0.67693 0.35862 0.51754 0.0
H662 H 0.61157 0.36036 0.45582 0.0
H663 H 0.56369 0.36382 0.43303 0.0
H664 H 0.47757 0.26582 0.46154 0.0
H665 H 0.52492 0.26201 0.48467 0.0
C666 C 0.66249 0.193 0.48865 0.0
C667 C 0.62911 0.15754 0.48911 0.0
C668 C 0.66302 0.22814 0.49046 0.0
C669 C 0.63026 0.23077 0.49313 0.0
C670 C 0.59688 0.19523 0.49332 0.0
C671 C 0.59633 0.16011 0.49148 0.0
C672 C 0.63022 0.26932 0.49524 0.0
C673 C 0.60185 0.27458 0.48507 0.0
C674 C 0.65787 0.30168 0.50678 0.0
C675 C 0.68927 0.3008 0.51836 0.0
C676 C 0.68248 0.2736 0.53358 0.0
C677 C 0.71234 0.27246 0.54408 0.0
C678 C 0.74912 0.29858 0.53962 0.0
C679 C 0.75613 0.32603 0.52472 0.0
C680 C 0.72637 0.32727 0.51416 0.0
C681 C 0.58603 0.40923 0.50452 0.0
C682 C 0.61692 0.44635 0.5062 0.0
C683 C 0.58947 0.37659 0.50229 0.0
C684 C 0.62432 0.3778 0.50108 0.0
C685 C 0.65578 0.41499 0.50321 0.0
C686 C 0.65227 0.44811 0.50584 0.0
C687 C 0.627 0.34074 0.49812 0.0
C688 C 0.65582 0.33577 0.50806 0.0
C689 C 0.60038 0.3089 0.48586 0.0
C690 C 0.57176 0.31116 0.47213 0.0
C691 C 0.58239 0.3397 0.45733 0.0
C692 C 0.55535 0.3417 0.44434 0.0
C693 C 0.5176 0.31513 0.44588 0.0
C694 C 0.50682 0.28643 0.46039 0.0
C695 C 0.53374 0.28432 0.47344 0.0
H696 H 0.49671 0.31671 0.4358 0.0
H697 H 0.77218 0.29761 0.54773 0.0
H698 H 0.55542 0.62415 0.83213 0.0
H699 H 0.49625 0.62385 0.8358 0.0
H700 H 0.43496 0.50704 0.81986 0.0
H701 H 0.49419 0.50721 0.81649 0.0
H702 H 0.3953 0.53626 0.80206 0.0
H703 H 0.44428 0.54887 0.87246 0.0
H704 H 0.49148 0.57873 0.90113 0.0
H705 H 0.48899 0.68087 0.89185 0.0
H706 H 0.44208 0.65173 0.86296 0.0
H707 H 0.21196 0.50128 0.82639 0.0
H708 H 0.27212 0.50588 0.82233 0.0
H709 H 0.32673 0.61238 0.85359 0.0
H710 H 0.26498 0.60615 0.85899 0.0
H711 H 0.37193 0.59145 0.86289 0.0
H712 H 0.3276 0.5845 0.79291 0.0
H713 H 0.28439 0.56031 0.76213 0.0
H714 H 0.28257 0.45548 0.76753 0.0
H715 H 0.32548 0.47891 0.79848 0.0
C716 C 0.52958 0.59809 0.82938 0.0
C717 C 0.53143 0.5657 0.82393 0.0
C718 C 0.4948 0.59784 0.83167 0.0
C719 C 0.45891 0.56527 0.82846 0.0
C720 C 0.46082 0.53308 0.82265 0.0
C721 C 0.49559 0.53316 0.82071 0.0
C722 C 0.42028 0.56464 0.83092 0.0
C723 C 0.39051 0.548 0.81564 0.0
C724 C 0.4121 0.58082 0.84798 0.0
C725 C 0.43994 0.59823 0.86544 0.0
C726 C 0.45396 0.57776 0.87647 0.0
C727 C 0.48063 0.59454 0.89276 0.0
C728 C 0.49329 0.6317 0.89827 0.0
C729 C 0.47919 0.65211 0.88755 0.0
C730 C 0.45254 0.63546 0.87123 0.0
C731 C 0.23653 0.52664 0.83191 0.0
C732 C 0.23158 0.55408 0.84219 0.0
C733 C 0.27224 0.52942 0.82944 0.0
C734 C 0.30687 0.56035 0.83672 0.0
C735 C 0.30216 0.58798 0.8472 0.0
C736 C 0.26596 0.58478 0.85003 0.0
C737 C 0.34645 0.56273 0.83402 0.0
C738 C 0.37648 0.57964 0.84926 0.0
C739 C 0.3553 0.54762 0.81663 0.0
C740 C 0.32941 0.53332 0.79813 0.0
C741 C 0.31779 0.55621 0.7876 0.0
C742 C 0.29339 0.54265 0.77012 0.0
C743 C 0.28066 0.50634 0.76292 0.0
C744 C 0.2924 0.48356 0.77315 0.0
C745 C 0.31678 0.49697 0.79065 0.0
H746 H 0.26176 0.4959 0.74939 0.0
H747 H 0.51396 0.64465 0.91088 0.0
H748 H 0.95333 0.4906 0.16031 0.0
H749 H 0.89389 0.43191 0.16318 0.0
H750 H 0.95234 0.36999 0.16303 0.0
H751 H 1.01163 0.4287 0.15958 0.0
H752 H 0.89099 0.3245 0.14528 0.0
H753 H 0.90355 0.38938 0.20874 0.0
H754 H 0.91135 0.44177 0.23027 0.0
H755 H 0.81089 0.43259 0.2019 0.0
H756 H 0.80292 0.38074 0.17986 0.0
H757 H 0.73476 0.14731 0.17854 0.0
H758 H 0.79243 0.2065 0.17319 0.0
H759 H 0.73103 0.26534 0.17423 0.0
H760 H 0.67335 0.20576 0.1801 0.0
H761 H 0.79304 0.31286 0.19083 0.0
H762 H 0.77992 0.24926 0.12743 0.0
H763 H 0.77194 0.1982 0.10468 0.0
H764 H 0.87246 0.20568 0.1319 0.0
H765 H 0.88082 0.25653 0.15497 0.0
C766 C 0.95405 0.46471 0.16089 0.0
C767 C 0.98918 0.46625 0.15965 0.0
C768 C 0.91911 0.43013 0.16281 0.0
C769 C 0.91634 0.39413 0.16392 0.0
C770 C 0.95149 0.39581 0.16239 0.0
C771 C 0.98638 0.43034 0.16042 0.0
C772 C 0.878 0.35559 0.16641 0.0
C773 C 0.8702 0.32249 0.1556 0.0
C774 C 0.84829 0.35044 0.17923 0.0
C775 C 0.85286 0.38143 0.19251 0.0
C776 C 0.88327 0.39872 0.207 0.0
C777 C 0.88774 0.42836 0.21927 0.0
C778 C 0.86173 0.44065 0.21737 0.0
C779 C 0.83111 0.4232 0.20327 0.0
C780 C 0.82661 0.3937 0.19087 0.0
C781 C 0.7328 0.17246 0.17686 0.0
C782 C 0.69725 0.16965 0.17875 0.0
C783 C 0.76677 0.20739 0.17382 0.0
C784 C 0.76832 0.24278 0.17259 0.0
C785 C 0.73274 0.23999 0.17472 0.0
C786 C 0.6987 0.20494 0.17778 0.0
C787 C 0.80615 0.2817 0.16979 0.0
C788 C 0.81386 0.31485 0.18054 0.0
C789 C 0.83571 0.287 0.15682 0.0
C790 C 0.83076 0.2564 0.14307 0.0
C791 C 0.80018 0.23983 0.12865 0.0
C792 C 0.79561 0.21096 0.11569 0.0
C793 C 0.82162 0.19863 0.11689 0.0
C794 C 0.8523 0.21522 0.13102 0.0
C795 C 0.85698 0.24408 0.14403 0.0
H796 H 0.81804 0.17628 0.10684 0.0
H797 H 0.86522 0.46359 0.22687 0.0
H798 H 0.08951 0.60928 0.08411 0.0
H799 H 0.0932 0.60712 0.04676 0.0
H800 H 0.13991 0.53438 0.05447 0.0
H801 H 0.13694 0.53697 0.09223 0.0
H802 H 0.17471 0.58388 0.02465 0.0
H803 H 1.04666 0.50069 0.03821 0.0
H804 H 0.98553 0.48095 0.05272 0.0
H805 H 0.97671 0.56627 0.018 0.0
H806 H 1.03806 0.58688 0.0035 0.0
H807 H 0.14193 0.53146 0.91663 0.0
H808 H 0.14315 0.53187 0.95456 0.0
H809 H 0.09713 0.60557 0.95289 0.0
H810 H 0.09614 0.60555 0.9151 0.0
H811 H 0.06158 0.55157 0.97982 0.0
H812 H 0.19098 0.63571 0.96711 0.0
H813 H 0.2519 0.65468 0.95253 0.0
H814 H 0.25757 0.56605 0.98543 0.0
H815 H 0.19641 0.54624 -1e-05 0.0
C816 C 0.10067 0.59278 0.07801 0.0
C817 C 0.11267 0.57307 0.09143 0.0
C818 C 0.10259 0.59143 0.05647 0.0
C819 C 0.11615 0.56997 0.0475 0.0
C820 C 0.12912 0.55102 0.06084 0.0
C821 C 0.12735 0.55247 0.08251 0.0
C822 C 0.11634 0.56731 0.02429 0.0
C823 C 0.14978 0.57623 0.0149 0.0
C824 C 0.0841 0.55794 0.01128 0.0
C825 C 1.04712 0.54554 0.01991 0.0
C826 C 1.03181 0.51542 0.03378 0.0
C827 C 0.9971 0.50405 0.04199 0.0
C828 C 0.97729 0.5224 0.03632 0.0
C829 C 0.99211 0.55211 0.0224 0.0
C830 C 1.02683 0.56362 0.01416 0.0
C831 C 0.13253 0.54819 0.9243 0.0
C832 C 0.11878 0.56834 0.91256 0.0
C833 C 0.13318 0.54836 0.9461 0.0
C834 C 0.12039 0.5689 0.95684 0.0
C835 C 0.10698 0.58926 0.94515 0.0
C836 C 0.10632 0.58912 0.92341 0.0
C837 C 0.12006 0.56868 0.98015 0.0
C838 C 0.08651 0.55912 0.98956 0.0
C839 C 0.15214 0.57731 0.99313 0.0
C840 C 0.18895 0.58926 0.98446 0.0
C841 C 0.20509 0.62009 0.97111 0.0
C842 C 0.23968 0.63102 0.96287 0.0
C843 C 0.25855 0.61151 0.96801 0.0
C844 C 0.2429 0.58109 0.98144 0.0
C845 C 0.20829 0.57002 0.9897 0.0
H846 H 0.28533 0.62002 0.96161 0.0
H847 H 0.95042 0.51356 0.0427 0.0
H848 H 0.68843 0.06226 0.41883 0.0
H849 H 0.69137 0.06895 0.38106 0.0
H850 H 0.58316 0.06108 0.37763 0.0
H851 H 0.57969 0.05363 0.41505 0.0
H852 H 0.58516 1.02225 0.34747 0.0
H853 H 0.66758 0.14632 0.37332 0.0
H854 H 0.72078 0.19526 0.394 0.0
H855 H 0.79659 0.17304 0.36224 0.0
H856 H 0.74374 0.12361 0.34154 0.0
H857 H 0.65334 0.14895 0.24912 0.0
H858 H 0.65434 0.14165 0.2868 0.0
H859 H 0.62823 1.02738 0.27907 0.0
H860 H 0.62667 1.03439 0.24145 0.0
H861 H 0.69336 0.12774 0.31479 0.0
H862 H 0.57569 0.97303 0.31766 0.0
H863 H 0.51932 0.92861 0.29701 0.0
H864 H 0.50801 1.01972 0.27175 0.0
H865 H 0.56398 0.06461 0.29245 0.0
C866 C 0.66523 0.0619 0.41004 0.0
C867 C 0.63386 0.05744 0.42017 0.0
C868 C 0.66701 0.06591 0.38837 0.0
C869 C 0.63763 0.06591 0.37628 0.0
C870 C 0.60622 0.06111 0.3864 0.0
C871 C 0.60436 0.05697 0.40796 0.0
C872 C 0.63928 0.07097 0.35317 0.0
C873 C 0.60898 0.04526 0.34039 0.0
C874 C 0.66987 0.10131 0.34366 0.0
C875 C 0.70168 0.13101 0.35605 0.0
C876 C 0.69557 0.15169 0.37086 0.0
C877 C 0.72566 0.17954 0.38257 0.0
C878 C 0.76203 0.18718 0.37948 0.0
C879 C 0.7684 0.16705 0.36464 0.0
C880 C 0.73839 0.13913 0.35291 0.0
C881 C 0.6481 0.12234 0.25543 0.0
C882 C 0.63958 0.09218 0.24213 0.0
C883 C 0.64865 0.11816 0.27705 0.0
C884 C 0.64076 0.08375 0.28601 0.0
C885 C 0.63352 0.05399 0.27273 0.0
C886 C 0.63266 0.05805 0.25113 0.0
C887 C 0.63942 0.07881 0.30912 0.0
C888 C 0.66971 0.10455 0.32188 0.0
C889 C 0.60839 0.049 0.31866 0.0
C890 C 0.57427 1.02218 0.30645 0.0
C891 C 0.56107 0.98355 0.30777 0.0
C892 C 0.52921 0.9583 0.29604 0.0
C893 C 0.51018 0.97134 0.28302 0.0
C894 C 0.52286 1.00966 0.28178 0.0
C895 C 0.55466 0.03502 0.29349 0.0
H896 H 0.48556 0.95176 0.27393 0.0
H897 H 0.7853 0.20876 0.38856 0.0
H898 H 0.59779 0.51652 0.74867 0.0
H899 H 0.59981 0.52049 0.71106 0.0
H900 H 0.68588 0.63626 0.7159 0.0
H901 H 0.68395 0.63258 0.75385 0.0
H902 H 0.6332 0.62537 0.68481 0.0
H903 H 0.70775 0.56961 0.7045 0.0
H904 H 0.7218 0.52423 0.72219 0.0
H905 H 0.62984 0.43417 0.68835 0.0
H906 H 0.61489 0.47897 0.67066 0.0
H907 H 0.67838 0.6392 0.57867 0.0
H908 H 0.68101 0.63972 0.61654 0.0
H909 H 0.60254 0.52129 0.61655 0.0
H910 H 0.60006 0.52057 0.57865 0.0
H911 H 0.65434 0.53595 0.64552 0.0
H912 H 0.5779 0.59018 0.62676 0.0
H913 H 0.56234 0.63457 0.60913 0.0
H914 H 0.6557 0.72626 0.64118 0.0
H915 H 0.67215 0.68243 0.65879 0.0
C916 C 0.61723 0.54297 0.74186 0.0
C917 C 0.64085 0.57421 0.75452 0.0
C918 C 0.61843 0.54512 0.72022 0.0
C919 C 0.64332 0.57854 0.71045 0.0
C920 C 0.66647 0.61007 0.72296 0.0
C921 C 0.66543 0.60789 0.74472 0.0
C922 C 0.64505 0.58017 0.68725 0.0
C923 C 0.63844 0.60621 0.67625 0.0
C924 C 0.65095 0.55464 0.67587 0.0
C925 C 0.66001 0.52764 0.68639 0.0
C926 C 0.69035 0.5401 0.70094 0.0
C927 C 0.69851 0.51449 0.71095 0.0
C928 C 0.67668 0.47633 0.70643 0.0
C929 C 0.6467 0.46373 0.69185 0.0
C930 C 0.6384 0.48923 0.68181 0.0
C931 C 0.66145 0.61325 0.58669 0.0
C932 C 0.63882 0.57986 0.57543 0.0
C933 C 0.66295 0.61359 0.60845 0.0
C934 C 0.64151 0.58066 0.61966 0.0
C935 C 0.6194 0.54717 0.60845 0.0
C936 C 0.61806 0.54677 0.58668 0.0
C937 C 0.64217 0.58097 0.64297 0.0
C938 C 0.64923 0.55525 0.65403 0.0
C939 C 0.63645 0.60666 0.65438 0.0
C940 C 0.62648 0.63305 0.64393 0.0
C941 C 0.59527 0.61983 0.62994 0.0
C942 C 0.58627 0.64489 0.61997 0.0
C943 C 0.60808 0.68322 0.62399 0.0
C944 C 0.63887 0.69656 0.63805 0.0
C945 C 0.64803 0.67163 0.64804 0.0
H946 H 0.60107 0.70258 0.61625 0.0
H947 H 0.68303 0.45654 0.7142 0.0
H948 H 0.57545 0.98172 0.54769 0.0
H949 H 0.55907 0.97925 0.58359 0.0
H950 H 0.62859 0.09917 0.58865 0.0
H951 H 0.64626 0.10164 0.55276 0.0
H952 H 0.63629 0.0676 0.62263 0.0
H953 H 0.53135 0.0553 0.58128 0.0
H954 H 0.48165 1.02864 0.55361 0.0
H955 H 0.43298 0.92163 0.5833 0.0
H956 H 0.48272 0.94749 0.61102 0.0
H957 H 0.56122 0.08008 0.71578 0.0
H958 H 0.57277 0.08646 0.67879 0.0
H959 H 0.51938 0.96654 0.6727 0.0
H960 H 0.50735 0.9599 0.70971 0.0
H961 H 0.50228 1.00117 0.63905 0.0
H962 H 0.6098 1.01332 0.67895 0.0
H963 H 0.65985 0.04018 0.70641 0.0
H964 H 0.70342 0.14872 0.67886 0.0
H965 H 0.65322 0.12258 0.6514 0.0
C966 C 0.58749 1.00757 0.55649 0.0
C967 C 0.61196 0.04193 0.54742 0.0
C968 C 0.57787 1.00614 0.57697 0.0
C969 C 0.59177 0.03912 0.58865 0.0
C970 C 0.61728 0.07339 0.57986 0.0
C971 C 0.62741 0.07478 0.5594 0.0
C972 C 0.57958 0.03765 0.61001 0.0
C973 C 0.60698 0.05367 0.62614 0.0
C974 C 0.54128 1.01884 0.61466 0.0
C975 C 0.51093 1.00331 0.59818 0.0
C976 C 0.51016 1.02603 0.58186 0.0
C977 C 0.48197 1.01107 0.56617 0.0
C978 C 0.45417 0.97348 0.56671 0.0
C979 C 0.45451 0.95076 0.58293 0.0
C980 C 0.48267 0.96557 0.59865 0.0
C981 C 0.55108 0.05502 0.70646 0.0
C982 C 0.53351 1.01948 0.71563 0.0
C983 C 0.55795 0.05874 0.68538 0.0
C984 C 0.54732 1.02699 0.67311 0.0
C985 C 0.52786 0.99137 0.68194 0.0
C986 C 0.5212 0.98763 0.70307 0.0
C987 C 0.55901 1.03104 0.65151 0.0
C988 C 0.53153 1.01543 0.63541 0.0
C989 C 0.5972 0.05037 0.64683 0.0
C990 C 0.62751 0.06608 0.66326 0.0
C991 C 0.62986 0.04298 0.67885 0.0
C992 C 0.65829 0.05806 0.6944 0.0
C993 C 0.68474 0.09616 0.69442 0.0
C994 C 0.68287 0.11923 0.67885 0.0
C995 C 0.65445 0.1043 0.66329 0.0
H996 H 0.70674 0.10778 0.70646 0.0
H997 H 0.43234 0.96197 0.55457 0.0
H998 H 0.60216 0.57636 0.88707 0.0
H999 H 0.58342 0.55185 0.92196 0.0
H1000 H 0.63707 0.48553 0.91693 0.0
H1001 H 0.65492 0.50908 0.88211 0.0
H1002 H 0.5693 0.4437 0.92914 0.0
H1003 H 0.67309 0.56392 0.9489 0.0
H1004 H 0.71021 0.6328 0.94924 0.0
H1005 H 0.61858 0.63865 0.97382 0.0
H1006 H 0.58071 0.56977 0.97337 0.0
H1007 H 0.5717 0.38838 0.03391 0.0
H1008 H 0.58869 0.41654 -0.0004 0.0
H1009 H 0.52095 0.46808 0.00623 0.0
H1010 H 0.5041 0.44027 0.04056 0.0
H1011 H 0.59229 0.51769 0.99324 0.0
H1012 H 0.49004 0.3963 0.97487 0.0
H1013 H 0.45424 0.32738 0.97465 0.0
H1014 H 0.54521 0.32391 0.94747 0.0
H1015 H 0.58183 0.39284 0.94785 0.0
C1016 C 0.61048 0.55709 0.89361 0.0
C1017 C 0.6298 0.54447 0.88188 0.0
C1018 C 0.59979 0.5431 0.91352 0.0
C1019 C 0.60883 0.51681 0.92205 0.0
C1020 C 0.62952 0.50554 0.91062 0.0
C1021 C 0.63982 0.51913 0.89074 0.0
C1022 C 0.59502 0.49915 0.94233 0.0
C1023 C 0.57478 0.45992 0.9432 0.0
C1024 C 0.60119 0.52029 0.96055 0.0
C1025 C 0.62393 0.5617 0.96089 0.0
C1026 C 0.66075 0.5799 0.95422 0.0
C1027 C 0.68194 0.61894 0.95446 0.0
C1028 C 0.66673 0.64009 0.96149 0.0
C1029 C 0.63031 0.62223 0.96835 0.0
C1030 C 0.60898 0.58319 0.96812 0.0
C1031 C 0.56022 0.40546 0.02795 0.0
C1032 C 0.53637 0.41192 0.0398 0.0
C1033 C 0.56984 0.42144 0.00838 0.0
C1034 C 0.55593 0.44426 0.0004 0.0
C1035 C 0.5319 0.4505 0.01213 0.0
C1036 C 0.52201 0.43428 0.03161 0.0
C1037 C 0.56727 0.46237 0.98003 0.0
C1038 C 0.58684 0.50158 0.97914 0.0
C1039 C 0.56077 0.44125 0.96179 0.0
C1040 C 0.53883 0.39976 0.9616 0.0
C1041 C 0.50257 0.38085 0.96904 0.0
C1042 C 0.4821 0.34178 0.96885 0.0
C1043 C 0.49748 0.32128 0.96111 0.0
C1044 C 0.53335 0.33982 0.9535 0.0
C1045 C 0.55397 0.3789 0.95369 0.0
H1046 H 0.48157 0.29103 0.96096 0.0
H1047 H 0.68318 0.67031 0.96167 0.0
H1048 H 0.07936 0.6271 0.21688 0.0
H1049 H 0.06781 0.62814 0.25339 0.0
H1050 H 0.06932 0.52505 0.26286 0.0
H1051 H 0.08038 0.52347 0.22611 0.0
H1052 H 1.01283 0.52443 0.28258 0.0
H1053 H 0.14413 0.60747 0.27815 0.0
H1054 H 0.20105 0.66011 0.26443 0.0
H1055 H 0.1649 0.73661 0.28179 0.0
H1056 H 0.10746 0.68432 0.29534 0.0
H1057 H 1.03854 0.53914 0.39261 0.0
H1058 H 1.04444 0.53406 0.35563 0.0
H1059 H 1.03897 0.63475 0.3447 0.0
H1060 H 1.03228 0.63971 0.38173 0.0
H1061 H 0.0973 0.63576 0.32581 0.0
H1062 H 0.96572 0.55121 0.33081 0.0
H1063 H 0.90966 0.49781 0.34475 0.0
H1064 H 0.94775 0.42317 0.32682 0.0
H1065 H 1.00435 0.47624 0.31304 0.0
C1066 C 0.07733 0.60463 0.22669 0.0
C1067 C 0.08113 0.57534 0.21861 0.0
C1068 C 0.07079 0.60533 0.24759 0.0
C1069 C 0.06824 0.57697 0.26092 0.0
C1070 C 0.07131 0.54729 0.25285 0.0
C1071 C 0.07777 0.5465 0.23187 0.0
C1072 C 0.06261 0.57859 0.28328 0.0
C1073 C 1.03157 0.54853 0.29212 0.0
C1074 C 0.08669 0.61036 0.29561 0.0
C1075 C 0.12131 0.64192 0.28758 0.0
C1076 C 0.14817 0.63548 0.2789 0.0
C1077 C 0.18056 0.66526 0.27117 0.0
C1078 C 0.18655 0.70167 0.27219 0.0
C1079 C 0.1602 0.70838 0.28099 0.0
C1080 C 0.12774 0.67869 0.28871 0.0
C1081 C 1.03777 0.55982 0.38233 0.0
C1082 C 1.03472 0.58976 0.39017 0.0
C1083 C 1.04132 0.55693 0.36118 0.0
C1084 C 1.04188 0.58387 0.3474 0.0
C1085 C 1.03863 0.61367 0.3551 0.0
C1086 C 1.03493 0.61652 0.37626 0.0
C1087 C 1.04739 0.58173 0.32508 0.0
C1088 C 0.07851 0.61168 0.31627 0.0
C1089 C 1.02353 0.54975 0.31284 0.0
C1090 C 0.98947 0.51777 0.32108 0.0
C1091 C 0.96231 0.52346 0.33 0.0
C1092 C 0.93041 0.49324 0.33784 0.0
C1093 C 0.9252 0.45713 0.33672 0.0
C1094 C 0.95185 0.45116 0.3277 0.0
C1095 C 0.98383 0.4813 0.31986 0.0
H1096 H 0.90047 0.43377 0.34279 0.0
H1097 H 0.21164 0.72469 0.2662 0.0
loop_
_geom_bond_atom_site_label_1
_geom_bond_atom_site_label_2
_geom_bond_distance
_geom_bond_site_symmetry_2
_ccdc_geom_bond_type
Tb0 C9 2.764 . S
Tb0 O10 2.325 . S
Tb0 O13 2.303 . S
Tb0 O17 2.322 1_655 S
Tb0 O18 2.349 . S
Tb0 O21 2.415 . S
Tb0 O22 2.399 . S
Tb1 O11 2.322 1_455 S
Tb1 O12 2.349 . S
Tb1 O14 2.415 . S
Tb1 O15 2.399 . S
Tb1 O16 2.325 . S
Tb1 O19 2.303 . S
Tb1 C30 2.764 . S
C2 O18 1.261 1_455 S
C2 O19 1.257 . S
C3 C6 1.358 . S
C3 C7 1.332 . S
C3 C9 1.504 . S
C4 C5 1.373 . S
C4 C8 1.308 . S
C5 C4 1.373 . S
C5 C6 1.429 . S
C5 H32 0.932 . S
C6 C3 1.358 . S
C6 C5 1.429 . S
C6 H33 0.930 . S
C7 C3 1.332 . S
C7 C8 1.394 . S
C7 H34 0.932 . S
C8 C4 1.308 . S
C8 C7 1.394 . S
C8 H35 0.929 . S
C9 Tb0 2.764 . S
C9 C3 1.504 . S
C9 O21 1.239 . S
C9 O22 1.263 . S
O10 Tb0 2.325 . S
O10 C20 1.236 . S
O11 Tb1 2.322 1_655 S
O11 C20 1.257 . S
O12 Tb1 2.349 . S
O12 C23 1.261 . S
O13 Tb0 2.303 . S
O13 C23 1.257 1_655 S
O14 Tb1 2.415 . S
O14 C30 1.239 . S
O15 Tb1 2.399 . S
O15 C30 1.263 . S
O16 Tb1 2.325 . S
O16 C31 1.236 . S
O17 Tb0 2.322 1_455 S
O17 C31 1.257 . S
O18 Tb0 2.349 . S
O18 C2 1.261 1_655 S
O19 Tb1 2.303 . S
O19 C2 1.257 . S
C20 O10 1.236 . S
C20 O11 1.257 . S
O21 Tb0 2.415 . S
O21 C9 1.239 . S
O22 Tb0 2.399 . S
O22 C9 1.263 . S
C23 O12 1.261 . S
C23 O13 1.257 1_455 S
C24 C27 1.358 . S
C24 C28 1.332 . S
C24 C30 1.504 . S
C25 C26 1.373 . S
C25 C29 1.308 . S
C26 C25 1.373 . S
C26 C27 1.429 . S
C26 H36 0.932 . S
C27 C24 1.358 . S
C27 C26 1.429 . S
C27 H37 0.930 . S
C28 C24 1.332 . S
C28 C29 1.394 . S
C28 H38 0.932 . S
C29 C25 1.308 . S
C29 C28 1.394 . S
C29 H39 0.929 . S
C30 Tb1 2.764 . S
C30 O14 1.239 . S
C30 O15 1.263 . S
C30 C24 1.504 . S
C31 O16 1.236 . S
C31 O17 1.257 . S
H32 C5 0.932 . S
H33 C6 0.930 . S
H34 C7 0.932 . S
H35 C8 0.929 . S
H36 C26 0.932 . S
H37 C27 0.930 . S
H38 C28 0.932 . S
H39 C29 0.929 . S
Tb40 C49 2.764 . S
Tb40 O50 2.325 . S
Tb40 O53 2.303 1_565 S
Tb40 O57 2.322 1_565 S
Tb40 O58 2.349 . S
Tb40 O61 2.415 . S
Tb40 O62 2.399 . S
Tb41 O51 2.322 1_545 S
Tb41 O52 2.349 . S
Tb41 O54 2.415 . S
Tb41 O55 2.399 . S
Tb41 O56 2.325 . S
Tb41 O59 2.303 . S
Tb41 C70 2.764 . S
C42 O58 1.261 1_545 S
C42 O59 1.257 . S
C43 C46 1.358 . S
C43 C47 1.332 . S
C43 C49 1.504 . S
C44 C45 1.373 . S
C44 C48 1.308 . S
C45 C44 1.373 . S
C45 C46 1.429 . S
C45 H72 0.932 . S
C46 C43 1.358 . S
C46 C45 1.429 . S
C46 H73 0.930 . S
C47 C43 1.332 . S
C47 C48 1.394 . S
C47 H74 0.932 . S
C48 C44 1.308 . S
C48 C47 1.394 . S
C48 H75 0.929 . S
C49 Tb40 2.764 . S
C49 C43 1.504 . S
C49 O61 1.239 . S
C49 O62 1.263 . S
O50 Tb40 2.325 . S
O50 C60 1.236 . S
O51 Tb41 2.322 1_565 S
O51 C60 1.257 . S
O52 Tb41 2.349 . S
O52 C63 1.261 . S
O53 Tb40 2.303 1_545 S
O53 C63 1.257 . S
O54 Tb41 2.415 . S
O54 C70 1.239 . S
O55 Tb41 2.399 . S
O55 C70 1.263 . S
O56 Tb41 2.325 . S
O56 C71 1.236 . S
O57 Tb40 2.322 1_545 S
O57 C71 1.257 . S
O58 Tb40 2.349 . S
O58 C42 1.261 1_565 S
O59 Tb41 2.303 . S
O59 C42 1.257 . S
C60 O50 1.236 . S
C60 O51 1.257 . S
O61 Tb40 2.415 . S
O61 C49 1.239 . S
O62 Tb40 2.399 . S
O62 C49 1.263 . S
C63 O52 1.261 . S
C63 O53 1.257 . S
C64 C67 1.358 . S
C64 C68 1.332 . S
C64 C70 1.504 . S
C65 C66 1.373 . S
C65 C69 1.308 . S
C66 C65 1.373 . S
C66 C67 1.429 . S
C66 H76 0.932 . S
C67 C64 1.358 . S
C67 C66 1.429 . S
C67 H77 0.930 . S
C68 C64 1.332 . S
C68 C69 1.394 . S
C68 H78 0.932 . S
C69 C65 1.308 . S
C69 C68 1.394 . S
C69 H79 0.929 . S
C70 Tb41 2.764 . S
C70 O54 1.239 . S
C70 O55 1.263 . S
C70 C64 1.504 . S
C71 O56 1.236 . S
C71 O57 1.257 . S
H72 C45 0.932 . S
H73 C46 0.930 . S
H74 C47 0.932 . S
H75 C48 0.929 . S
H76 C66 0.932 . S
H77 C67 0.930 . S
H78 C68 0.932 . S
H79 C69 0.929 . S
Tb80 C89 2.764 . S
Tb80 O90 2.325 . S
Tb80 O93 2.303 . S
Tb80 O97 2.322 . S
Tb80 O98 2.349 . S
Tb80 O101 2.415 . S
Tb80 O102 2.399 . S
Tb81 O91 2.322 . S
Tb81 O92 2.349 . S
Tb81 O94 2.415 . S
Tb81 O95 2.399 . S
Tb81 O96 2.325 . S
Tb81 O99 2.303 . S
Tb81 C110 2.764 . S
C82 O98 1.261 . S
C82 O99 1.257 . S
C83 C86 1.358 . S
C83 C87 1.332 . S
C83 C89 1.504 . S
C84 C85 1.373 . S
C84 C88 1.308 . S
C85 C84 1.373 . S
C85 C86 1.429 . S
C85 H112 0.932 . S
C86 C83 1.358 . S
C86 C85 1.429 . S
C86 H113 0.930 . S
C87 C83 1.332 . S
C87 C88 1.394 . S
C87 H114 0.932 . S
C88 C84 1.308 . S
C88 C87 1.394 . S
C88 H115 0.929 . S
C89 Tb80 2.764 . S
C89 C83 1.504 . S
C89 O101 1.239 . S
C89 O102 1.263 . S
O90 Tb80 2.325 . S
O90 C100 1.236 . S
O91 Tb81 2.322 . S
O91 C100 1.257 . S
O92 Tb81 2.349 . S
O92 C103 1.261 . S
O93 Tb80 2.303 . S
O93 C103 1.257 . S
O94 Tb81 2.415 . S
O94 C110 1.239 . S
O95 Tb81 2.399 . S
O95 C110 1.263 . S
O96 Tb81 2.325 . S
O96 C111 1.236 . S
O97 Tb80 2.322 . S
O97 C111 1.257 . S
O98 Tb80 2.349 . S
O98 C82 1.261 . S
O99 Tb81 2.303 . S
O99 C82 1.257 . S
C100 O90 1.236 . S
C100 O91 1.257 . S
O101 Tb80 2.415 . S
O101 C89 1.239 . S
O102 Tb80 2.399 . S
O102 C89 1.263 . S
C103 O92 1.261 . S
C103 O93 1.257 . S
C104 C107 1.358 . S
C104 C108 1.332 . S
C104 C110 1.504 . S
C105 C106 1.373 . S
C105 C109 1.308 . S
C106 C105 1.373 . S
C106 C107 1.429 . S
C106 H116 0.932 . S
C107 C104 1.358 . S
C107 C106 1.429 . S
C107 H117 0.930 . S
C108 C104 1.332 . S
C108 C109 1.394 . S
C108 H118 0.932 . S
C109 C105 1.308 . S
C109 C108 1.394 . S
C109 H119 0.929 . S
C110 Tb81 2.764 . S
C110 O94 1.239 . S
C110 O95 1.263 . S
C110 C104 1.504 . S
C111 O96 1.236 . S
C111 O97 1.257 . S
H112 C85 0.932 . S
H113 C86 0.930 . S
H114 C87 0.932 . S
H115 C88 0.929 . S
H116 C106 0.932 . S
H117 C107 0.930 . S
H118 C108 0.932 . S
H119 C109 0.929 . S
H120 C127 0.929 . S
H121 C130 0.930 . S
H122 C132 0.929 . S
H123 C124 0.969 . S
C124 H123 0.969 . S
C124 O125 1.550 . S
C124 H126 0.973 . S
O125 C124 1.550 . S
O125 C131 1.412 . S
H126 C124 0.973 . S
C127 H120 0.929 . S
C127 C128 1.400 . S
C127 C129 1.364 . S
C128 C127 1.400 . S
C128 C132 1.377 . S
C129 C127 1.364 . S
C129 C130 1.374 1_545 S
C130 H121 0.930 . S
C130 C129 1.374 1_565 S
C130 C131 1.383 . S
C131 O125 1.412 . S
C131 C130 1.383 . S
C131 C132 1.394 1_565 S
C132 H122 0.929 . S
C132 C128 1.377 . S
C132 C131 1.394 1_545 S
H133 C140 0.929 . S
H134 C143 0.930 . S
H135 C145 0.929 . S
H136 C137 0.969 . S
C137 H136 0.969 . S
C137 O138 1.550 . S
C137 H139 0.973 . S
O138 C137 1.550 . S
O138 C144 1.412 . S
H139 C137 0.973 . S
C140 H133 0.929 . S
C140 C141 1.400 . S
C140 C142 1.364 . S
C141 C140 1.400 . S
C141 C145 1.377 . S
C142 C140 1.364 . S
C142 C143 1.374 . S
C143 H134 0.930 . S
C143 C142 1.374 . S
C143 C144 1.383 . S
C144 O138 1.412 . S
C144 C143 1.383 . S
C144 C145 1.394 . S
C145 H135 0.929 . S
C145 C141 1.377 . S
C145 C144 1.394 . S
H146 C153 0.929 . S
H147 C156 0.930 . S
H148 C158 0.929 . S
H149 C150 0.969 . S
C150 H149 0.969 . S
C150 O151 1.550 . S
C150 H152 0.973 . S
O151 C150 1.550 . S
O151 C157 1.412 . S
H152 C150 0.973 . S
C153 H146 0.929 . S
C153 C154 1.400 . S
C153 C155 1.364 . S
C154 C153 1.400 . S
C154 C158 1.377 . S
C155 C153 1.364 . S
C155 C156 1.374 . S
C156 H147 0.930 . S
C156 C155 1.374 . S
C156 C157 1.383 . S
C157 O151 1.412 . S
C157 C156 1.383 . S
C157 C158 1.394 . S
C158 H148 0.929 . S
C158 C154 1.377 . S
C158 C157 1.394 . S
H159 C166 0.929 . S
H160 C169 0.930 . S
H161 C171 0.929 . S
H162 C163 0.969 . S
C163 H162 0.969 . S
C163 O164 1.550 . S
C163 H165 0.973 . S
O164 C163 1.550 . S
O164 C170 1.412 . S
H165 C163 0.973 . S
C166 H159 0.929 . S
C166 C167 1.400 . S
C166 C168 1.364 1_655 S
C167 C166 1.400 . S
C167 C171 1.377 1_655 S
C168 C166 1.364 1_455 S
C168 C169 1.374 . S
C169 H160 0.930 . S
C169 C168 1.374 . S
C169 C170 1.383 . S
C170 O164 1.412 . S
C170 C169 1.383 . S
C170 C171 1.394 . S
C171 H161 0.929 . S
C171 C167 1.377 1_455 S
C171 C170 1.394 . S
H172 C179 0.929 . S
H173 C182 0.930 . S
H174 C184 0.929 . S
H175 C176 0.969 . S
C176 H175 0.969 . S
C176 O177 1.550 . S
C176 H178 0.973 . S
O177 C176 1.550 . S
O177 C183 1.412 . S
H178 C176 0.973 . S
C179 H172 0.929 . S
C179 C180 1.400 . S
C179 C181 1.364 . S
C180 C179 1.400 . S
C180 C184 1.377 . S
C181 C179 1.364 . S
C181 C182 1.374 1_565 S
C182 H173 0.930 . S
C182 C181 1.374 1_545 S
C182 C183 1.383 . S
C183 O177 1.412 . S
C183 C182 1.383 . S
C183 C184 1.394 1_545 S
C184 H174 0.929 . S
C184 C180 1.377 . S
C184 C183 1.394 1_565 S
H185 C192 0.929 . S
H186 C195 0.930 . S
H187 C197 0.929 . S
H188 C189 0.969 . S
C189 H188 0.969 . S
C189 O190 1.550 . S
C189 H191 0.973 . S
O190 C189 1.550 . S
O190 C196 1.412 . S
H191 C189 0.973 . S
C192 H185 0.929 . S
C192 C193 1.400 . S
C192 C194 1.364 . S
C193 C192 1.400 . S
C193 C197 1.377 . S
C194 C192 1.364 . S
C194 C195 1.374 . S
C195 H186 0.930 . S
C195 C194 1.374 . S
C195 C196 1.383 . S
C196 O190 1.412 . S
C196 C195 1.383 . S
C196 C197 1.394 . S
C197 H187 0.929 . S
C197 C193 1.377 . S
C197 C196 1.394 . S
H198 C216 0.951 . S
H199 C218 0.951 . S
H200 C220 0.950 . S
H201 C221 0.950 . S
H202 C223 0.950 . S
H203 C226 0.950 . S
H204 C227 0.950 . S
H205 C229 0.950 . S
H206 C230 0.950 . S
H207 C231 0.951 . S
H208 C233 0.951 . S
H209 C235 0.950 . S
H210 C236 0.950 . S
H211 C238 0.950 . S
H212 C241 0.950 . S
H213 C242 0.950 . S
H214 C244 0.950 . S
H215 C245 0.950 . S
C216 H198 0.951 . S
C216 C217 1.366 . S
C216 C218 1.388 . S
C217 C216 1.366 . S
C217 C221 1.385 . S
C218 H199 0.951 . S
C218 C216 1.388 . S
C218 C219 1.366 . S
C219 C218 1.366 . S
C219 C220 1.414 . S
C219 C222 1.499 . S
C220 H200 0.950 . S
C220 C219 1.414 . S
C220 C221 1.374 . S
C221 H201 0.950 . S
C221 C217 1.385 . S
C221 C220 1.374 . S
C222 C219 1.499 . S
C222 C223 1.373 . S
C222 C224 1.389 . S
C223 H202 0.950 . S
C223 C222 1.373 . S
C223 C239 1.377 . S
C224 C222 1.389 . S
C224 C225 1.524 . S
C224 C238 1.377 . S
C225 C224 1.524 . S
C225 C226 1.397 . S
C225 C230 1.363 . S
C226 H203 0.950 . S
C226 C225 1.397 . S
C226 C227 1.334 . S
C227 H204 0.950 . S
C227 C226 1.334 . S
C227 C228 1.287 . S
C228 C227 1.287 . S
C228 C229 1.524 . S
C228 H247 0.913 . S
C229 H205 0.950 . S
C229 C228 1.524 . S
C229 C230 1.415 . S
C230 H206 0.950 . S
C230 C225 1.363 . S
C230 C229 1.415 . S
C231 H207 0.951 . S
C231 C232 1.366 . S
C231 C233 1.388 . S
C232 C231 1.366 . S
C232 C236 1.385 . S
C233 H208 0.951 . S
C233 C231 1.388 . S
C233 C234 1.366 . S
C234 C233 1.366 . S
C234 C235 1.414 . S
C234 C237 1.499 . S
C235 H209 0.950 . S
C235 C234 1.414 . S
C235 C236 1.374 . S
C236 H210 0.950 . S
C236 C232 1.385 . S
C236 C235 1.374 . S
C237 C234 1.499 . S
C237 C238 1.373 . S
C237 C239 1.389 . S
C238 H211 0.950 . S
C238 C224 1.377 . S
C238 C237 1.373 . S
C239 C223 1.377 . S
C239 C237 1.389 . S
C239 C240 1.524 . S
C240 C239 1.524 . S
C240 C241 1.397 . S
C240 C245 1.363 . S
C241 H212 0.950 . S
C241 C240 1.397 . S
C241 C242 1.334 . S
C242 H213 0.950 . S
C242 C241 1.334 . S
C242 C243 1.287 . S
C243 C242 1.287 . S
C243 C244 1.524 . S
C243 H246 0.999 . S
C244 H214 0.950 . S
C244 C243 1.524 . S
C244 C245 1.415 . S
C245 H215 0.950 . S
C245 C240 1.363 . S
C245 C244 1.415 . S
H246 C243 0.999 . S
H247 C228 0.913 . S
H248 C266 0.951 . S
H249 C268 0.951 . S
H250 C270 0.950 . S
H251 C271 0.950 . S
H252 C273 0.950 . S
H253 C276 0.950 . S
H254 C277 0.950 . S
H255 C279 0.950 . S
H256 C280 0.950 . S
H257 C281 0.951 . S
H258 C283 0.951 . S
H259 C285 0.950 . S
H260 C286 0.950 1_455 S
H261 C288 0.950 . S
H262 C291 0.950 . S
H263 C292 0.950 . S
H264 C294 0.950 . S
H265 C295 0.950 . S
C266 H248 0.951 . S
C266 C267 1.366 . S
C266 C268 1.388 . S
C267 C266 1.366 . S
C267 C271 1.385 . S
C268 H249 0.951 . S
C268 C266 1.388 . S
C268 C269 1.366 . S
C269 C268 1.366 . S
C269 C270 1.414 . S
C269 C272 1.499 . S
C270 H250 0.950 . S
C270 C269 1.414 . S
C270 C271 1.374 . S
C271 H251 0.950 . S
C271 C267 1.385 . S
C271 C270 1.374 . S
C272 C269 1.499 . S
C272 C273 1.373 . S
C272 C274 1.389 . S
C273 H252 0.950 . S
C273 C272 1.373 . S
C273 C289 1.377 . S
C274 C272 1.389 . S
C274 C275 1.524 . S
C274 C288 1.377 . S
C275 C274 1.524 . S
C275 C276 1.397 . S
C275 C280 1.363 . S
C276 H253 0.950 . S
C276 C275 1.397 . S
C276 C277 1.334 . S
C277 H254 0.950 . S
C277 C276 1.334 . S
C277 C278 1.287 . S
C278 C277 1.287 . S
C278 C279 1.524 . S
C278 H297 0.913 . S
C279 H255 0.950 . S
C279 C278 1.524 . S
C279 C280 1.415 . S
C280 H256 0.950 . S
C280 C275 1.363 . S
C280 C279 1.415 . S
C281 H257 0.951 . S
C281 C282 1.366 . S
C281 C283 1.388 . S
C282 C281 1.366 . S
C282 C286 1.385 . S
C283 H258 0.951 . S
C283 C281 1.388 . S
C283 C284 1.366 . S
C284 C283 1.366 . S
C284 C285 1.414 . S
C284 C287 1.499 . S
C285 H259 0.950 . S
C285 C284 1.414 . S
C285 C286 1.374 . S
C286 H260 0.950 1_655 S
C286 C282 1.385 . S
C286 C285 1.374 . S
C287 C284 1.499 . S
C287 C288 1.373 . S
C287 C289 1.389 . S
C288 H261 0.950 . S
C288 C274 1.377 . S
C288 C287 1.373 . S
C289 C273 1.377 . S
C289 C287 1.389 . S
C289 C290 1.524 . S
C290 C289 1.524 . S
C290 C291 1.397 . S
C290 C295 1.363 . S
C291 H262 0.950 . S
C291 C290 1.397 . S
C291 C292 1.334 . S
C292 H263 0.950 . S
C292 C291 1.334 . S
C292 C293 1.287 . S
C293 C292 1.287 . S
C293 C294 1.524 . S
C293 H296 0.999 . S
C294 H264 0.950 . S
C294 C293 1.524 . S
C294 C295 1.415 . S
C295 H265 0.950 . S
C295 C290 1.363 . S
C295 C294 1.415 . S
H296 C293 0.999 . S
H297 C278 0.913 . S
H298 C316 0.951 . S
H299 C318 0.951 . S
H300 C320 0.950 . S
H301 C321 0.950 . S
H302 C323 0.950 . S
H303 C326 0.950 . S
H304 C327 0.950 . S
H305 C329 0.950 . S
H306 C330 0.950 . S
H307 C331 0.951 . S
H308 C333 0.951 . S
H309 C335 0.950 . S
H310 C336 0.950 . S
H311 C338 0.950 . S
H312 C341 0.950 . S
H313 C342 0.950 . S
H314 C344 0.950 . S
H315 C345 0.950 . S
C316 H298 0.951 . S
C316 C317 1.366 . S
C316 C318 1.388 . S
C317 C316 1.366 . S
C317 C321 1.385 . S
C318 H299 0.951 . S
C318 C316 1.388 . S
C318 C319 1.366 . S
C319 C318 1.366 . S
C319 C320 1.414 . S
C319 C322 1.499 . S
C320 H300 0.950 . S
C320 C319 1.414 . S
C320 C321 1.374 . S
C321 H301 0.950 . S
C321 C317 1.385 . S
C321 C320 1.374 . S
C322 C319 1.499 . S
C322 C323 1.373 . S
C322 C324 1.389 . S
C323 H302 0.950 . S
C323 C322 1.373 . S
C323 C339 1.377 . S
C324 C322 1.389 . S
C324 C325 1.524 . S
C324 C338 1.377 . S
C325 C324 1.524 . S
C325 C326 1.397 . S
C325 C330 1.363 . S
C326 H303 0.950 . S
C326 C325 1.397 . S
C326 C327 1.334 . S
C327 H304 0.950 . S
C327 C326 1.334 . S
C327 C328 1.287 . S
C328 C327 1.287 . S
C328 C329 1.524 . S
C328 H347 0.913 . S
C329 H305 0.950 . S
C329 C328 1.524 . S
C329 C330 1.415 . S
C330 H306 0.950 . S
C330 C325 1.363 . S
C330 C329 1.415 . S
C331 H307 0.951 . S
C331 C332 1.366 . S
C331 C333 1.388 . S
C332 C331 1.366 . S
C332 C336 1.385 . S
C333 H308 0.951 . S
C333 C331 1.388 . S
C333 C334 1.366 . S
C334 C333 1.366 . S
C334 C335 1.414 . S
C334 C337 1.499 . S
C335 H309 0.950 . S
C335 C334 1.414 . S
C335 C336 1.374 . S
C336 H310 0.950 . S
C336 C332 1.385 . S
C336 C335 1.374 . S
C337 C334 1.499 . S
C337 C338 1.373 . S
C337 C339 1.389 . S
C338 H311 0.950 . S
C338 C324 1.377 . S
C338 C337 1.373 . S
C339 C323 1.377 . S
C339 C337 1.389 . S
C339 C340 1.524 . S
C340 C339 1.524 . S
C340 C341 1.397 . S
C340 C345 1.363 . S
C341 H312 0.950 . S
C341 C340 1.397 . S
C341 C342 1.334 . S
C342 H313 0.950 . S
C342 C341 1.334 . S
C342 C343 1.287 . S
C343 C342 1.287 . S
C343 C344 1.524 . S
C343 H346 0.999 . S
C344 H314 0.950 . S
C344 C343 1.524 . S
C344 C345 1.415 . S
C345 H315 0.950 . S
C345 C340 1.363 . S
C345 C344 1.415 . S
H346 C343 0.999 . S
H347 C328 0.913 . S
H348 C366 0.951 . S
H349 C368 0.951 . S
H350 C370 0.950 . S
H351 C371 0.950 . S
H352 C373 0.950 . S
H353 C376 0.950 . S
H354 C377 0.950 . S
H355 C379 0.950 . S
H356 C380 0.950 . S
H357 C381 0.951 . S
H358 C383 0.951 . S
H359 C385 0.950 . S
H360 C386 0.950 . S
H361 C388 0.950 . S
H362 C391 0.950 . S
H363 C392 0.950 . S
H364 C394 0.950 . S
H365 C395 0.950 . S
C366 H348 0.951 . S
C366 C367 1.366 . S
C366 C368 1.388 . S
C367 C366 1.366 . S
C367 C371 1.385 . S
C368 H349 0.951 . S
C368 C366 1.388 . S
C368 C369 1.366 . S
C369 C368 1.366 . S
C369 C370 1.414 . S
C369 C372 1.499 . S
C370 H350 0.950 . S
C370 C369 1.414 . S
C370 C371 1.374 . S
C371 H351 0.950 . S
C371 C367 1.385 . S
C371 C370 1.374 . S
C372 C369 1.499 . S
C372 C373 1.373 . S
C372 C374 1.389 . S
C373 H352 0.950 . S
C373 C372 1.373 . S
C373 C389 1.377 . S
C374 C372 1.389 . S
C374 C375 1.524 . S
C374 C388 1.377 . S
C375 C374 1.524 . S
C375 C376 1.397 . S
C375 C380 1.363 . S
C376 H353 0.950 . S
C376 C375 1.397 . S
C376 C377 1.334 . S
C377 H354 0.950 . S
C377 C376 1.334 . S
C377 C378 1.287 . S
C378 C377 1.287 . S
C378 C379 1.524 . S
C378 H397 0.913 . S
C379 H355 0.950 . S
C379 C378 1.524 . S
C379 C380 1.415 . S
C380 H356 0.950 . S
C380 C375 1.363 . S
C380 C379 1.415 . S
C381 H357 0.951 . S
C381 C382 1.366 . S
C381 C383 1.388 . S
C382 C381 1.366 . S
C382 C386 1.385 . S
C383 H358 0.951 . S
C383 C381 1.388 . S
C383 C384 1.366 . S
C384 C383 1.366 . S
C384 C385 1.414 . S
C384 C387 1.499 . S
C385 H359 0.950 . S
C385 C384 1.414 . S
C385 C386 1.374 . S
C386 H360 0.950 . S
C386 C382 1.385 . S
C386 C385 1.374 . S
C387 C384 1.499 . S
C387 C388 1.373 . S
C387 C389 1.389 . S
C388 H361 0.950 . S
C388 C374 1.377 . S
C388 C387 1.373 . S
C389 C373 1.377 . S
C389 C387 1.389 . S
C389 C390 1.524 . S
C390 C389 1.524 . S
C390 C391 1.397 . S
C390 C395 1.363 . S
C391 H362 0.950 . S
C391 C390 1.397 . S
C391 C392 1.334 . S
C392 H363 0.950 . S
C392 C391 1.334 . S
C392 C393 1.287 . S
C393 C392 1.287 . S
C393 C394 1.524 . S
C393 H396 0.999 . S
C394 H364 0.950 . S
C394 C393 1.524 . S
C394 C395 1.415 . S
C395 H365 0.950 . S
C395 C390 1.363 . S
C395 C394 1.415 . S
H396 C393 0.999 . S
H397 C378 0.913 . S
H398 C416 0.951 . S
H399 C418 0.951 . S
H400 C420 0.950 . S
H401 C421 0.950 . S
H402 C423 0.950 . S
H403 C426 0.950 . S
H404 C427 0.950 . S
H405 C429 0.950 . S
H406 C430 0.950 . S
H407 C431 0.951 . S
H408 C433 0.951 . S
H409 C435 0.950 . S
H410 C436 0.950 . S
H411 C438 0.950 . S
H412 C441 0.950 . S
H413 C442 0.950 . S
H414 C444 0.950 . S
H415 C445 0.950 . S
C416 H398 0.951 . S
C416 C417 1.366 . S
C416 C418 1.388 . S
C417 C416 1.366 . S
C417 C421 1.385 . S
C418 H399 0.951 . S
C418 C416 1.388 . S
C418 C419 1.366 . S
C419 C418 1.366 . S
C419 C420 1.414 . S
C419 C422 1.499 . S
C420 H400 0.950 . S
C420 C419 1.414 . S
C420 C421 1.374 . S
C421 H401 0.950 . S
C421 C417 1.385 . S
C421 C420 1.374 . S
C422 C419 1.499 . S
C422 C423 1.373 . S
C422 C424 1.389 . S
C423 H402 0.950 . S
C423 C422 1.373 . S
C423 C439 1.377 . S
C424 C422 1.389 . S
C424 C425 1.524 . S
C424 C438 1.377 . S
C425 C424 1.524 . S
C425 C426 1.397 . S
C425 C430 1.363 . S
C426 H403 0.950 . S
C426 C425 1.397 . S
C426 C427 1.334 . S
C427 H404 0.950 . S
C427 C426 1.334 . S
C427 C428 1.287 . S
C428 C427 1.287 . S
C428 C429 1.524 . S
C428 H447 0.913 . S
C429 H405 0.950 . S
C429 C428 1.524 . S
C429 C430 1.415 . S
C430 H406 0.950 . S
C430 C425 1.363 . S
C430 C429 1.415 . S
C431 H407 0.951 . S
C431 C432 1.366 . S
C431 C433 1.388 . S
C432 C431 1.366 . S
C432 C436 1.385 . S
C433 H408 0.951 . S
C433 C431 1.388 . S
C433 C434 1.366 . S
C434 C433 1.366 . S
C434 C435 1.414 . S
C434 C437 1.499 . S
C435 H409 0.950 . S
C435 C434 1.414 . S
C435 C436 1.374 . S
C436 H410 0.950 . S
C436 C432 1.385 . S
C436 C435 1.374 . S
C437 C434 1.499 . S
C437 C438 1.373 . S
C437 C439 1.389 . S
C438 H411 0.950 . S
C438 C424 1.377 . S
C438 C437 1.373 . S
C439 C423 1.377 . S
C439 C437 1.389 . S
C439 C440 1.524 . S
C440 C439 1.524 . S
C440 C441 1.397 . S
C440 C445 1.363 . S
C441 H412 0.950 . S
C441 C440 1.397 . S
C441 C442 1.334 . S
C442 H413 0.950 . S
C442 C441 1.334 . S
C442 C443 1.287 . S
C443 C442 1.287 . S
C443 C444 1.524 . S
C443 H446 0.999 . S
C444 H414 0.950 . S
C444 C443 1.524 . S
C444 C445 1.415 . S
C445 H415 0.950 . S
C445 C440 1.363 . S
C445 C444 1.415 . S
H446 C443 0.999 . S
H447 C428 0.913 . S
H448 C466 0.951 . S
H449 C468 0.951 . S
H450 C470 0.950 . S
H451 C471 0.950 . S
H452 C473 0.950 . S
H453 C476 0.950 . S
H454 C477 0.950 . S
H455 C479 0.950 . S
H456 C480 0.950 . S
H457 C481 0.951 . S
H458 C483 0.951 . S
H459 C485 0.950 . S
H460 C486 0.950 . S
H461 C488 0.950 . S
H462 C491 0.950 . S
H463 C492 0.950 . S
H464 C494 0.950 . S
H465 C495 0.950 . S
C466 H448 0.951 . S
C466 C467 1.366 . S
C466 C468 1.388 . S
C467 C466 1.366 . S
C467 C471 1.385 . S
C468 H449 0.951 . S
C468 C466 1.388 . S
C468 C469 1.366 . S
C469 C468 1.366 . S
C469 C470 1.414 . S
C469 C472 1.499 . S
C470 H450 0.950 . S
C470 C469 1.414 . S
C470 C471 1.374 . S
C471 H451 0.950 . S
C471 C467 1.385 . S
C471 C470 1.374 . S
C472 C469 1.499 . S
C472 C473 1.373 . S
C472 C474 1.389 . S
C473 H452 0.950 . S
C473 C472 1.373 . S
C473 C489 1.377 . S
C474 C472 1.389 . S
C474 C475 1.524 . S
C474 C488 1.377 . S
C475 C474 1.524 . S
C475 C476 1.397 . S
C475 C480 1.363 . S
C476 H453 0.950 . S
C476 C475 1.397 . S
C476 C477 1.334 . S
C477 H454 0.950 . S
C477 C476 1.334 . S
C477 C478 1.287 . S
C478 C477 1.287 . S
C478 C479 1.524 . S
C478 H497 0.913 . S
C479 H455 0.950 . S
C479 C478 1.524 . S
C479 C480 1.415 . S
C480 H456 0.950 . S
C480 C475 1.363 . S
C480 C479 1.415 . S
C481 H457 0.951 . S
C481 C482 1.366 . S
C481 C483 1.388 . S
C482 C481 1.366 . S
C482 C486 1.385 . S
C483 H458 0.951 . S
C483 C481 1.388 . S
C483 C484 1.366 . S
C484 C483 1.366 . S
C484 C485 1.414 . S
C484 C487 1.499 . S
C485 H459 0.950 . S
C485 C484 1.414 . S
C485 C486 1.374 . S
C486 H460 0.950 . S
C486 C482 1.385 . S
C486 C485 1.374 . S
C487 C484 1.499 . S
C487 C488 1.373 . S
C487 C489 1.389 . S
C488 H461 0.950 . S
C488 C474 1.377 . S
C488 C487 1.373 . S
C489 C473 1.377 . S
C489 C487 1.389 . S
C489 C490 1.524 . S
C490 C489 1.524 . S
C490 C491 1.397 . S
C490 C495 1.363 . S
C491 H462 0.950 . S
C491 C490 1.397 . S
C491 C492 1.334 . S
C492 H463 0.950 . S
C492 C491 1.334 . S
C492 C493 1.287 . S
C493 C492 1.287 . S
C493 C494 1.524 . S
C493 H496 0.999 . S
C494 H464 0.950 . S
C494 C493 1.524 . S
C494 C495 1.415 . S
C495 H465 0.950 . S
C495 C490 1.363 . S
C495 C494 1.415 . S
H496 C493 0.999 . S
H497 C478 0.913 . S
H498 C516 0.951 . S
H499 C518 0.951 . S
H500 C520 0.950 . S
H501 C521 0.950 . S
H502 C523 0.950 . S
H503 C526 0.950 . S
H504 C527 0.950 . S
H505 C529 0.950 . S
H506 C530 0.950 . S
H507 C531 0.951 . S
H508 C533 0.951 . S
H509 C535 0.950 . S
H510 C536 0.950 . S
H511 C538 0.950 . S
H512 C541 0.950 . S
H513 C542 0.950 . S
H514 C544 0.950 . S
H515 C545 0.950 . S
C516 H498 0.951 . S
C516 C517 1.366 . S
C516 C518 1.388 . S
C517 C516 1.366 . S
C517 C521 1.385 . S
C518 H499 0.951 . S
C518 C516 1.388 . S
C518 C519 1.366 . S
C519 C518 1.366 . S
C519 C520 1.414 . S
C519 C522 1.499 . S
C520 H500 0.950 . S
C520 C519 1.414 . S
C520 C521 1.374 . S
C521 H501 0.950 . S
C521 C517 1.385 . S
C521 C520 1.374 . S
C522 C519 1.499 . S
C522 C523 1.373 . S
C522 C524 1.389 . S
C523 H502 0.950 . S
C523 C522 1.373 . S
C523 C539 1.377 . S
C524 C522 1.389 . S
C524 C525 1.524 . S
C524 C538 1.377 . S
C525 C524 1.524 . S
C525 C526 1.397 . S
C525 C530 1.363 . S
C526 H503 0.950 . S
C526 C525 1.397 . S
C526 C527 1.334 . S
C527 H504 0.950 . S
C527 C526 1.334 . S
C527 C528 1.287 . S
C528 C527 1.287 . S
C528 C529 1.524 . S
C528 H547 0.913 . S
C529 H505 0.950 . S
C529 C528 1.524 . S
C529 C530 1.415 . S
C530 H506 0.950 . S
C530 C525 1.363 . S
C530 C529 1.415 . S
C531 H507 0.951 . S
C531 C532 1.366 . S
C531 C533 1.388 . S
C532 C531 1.366 . S
C532 C536 1.385 . S
C533 H508 0.951 . S
C533 C531 1.388 . S
C533 C534 1.366 . S
C534 C533 1.366 . S
C534 C535 1.414 . S
C534 C537 1.499 . S
C535 H509 0.950 . S
C535 C534 1.414 . S
C535 C536 1.374 . S
C536 H510 0.950 . S
C536 C532 1.385 . S
C536 C535 1.374 . S
C537 C534 1.499 . S
C537 C538 1.373 . S
C537 C539 1.389 . S
C538 H511 0.950 . S
C538 C524 1.377 . S
C538 C537 1.373 . S
C539 C523 1.377 . S
C539 C537 1.389 . S
C539 C540 1.524 . S
C540 C539 1.524 . S
C540 C541 1.397 . S
C540 C545 1.363 . S
C541 H512 0.950 . S
C541 C540 1.397 . S
C541 C542 1.334 . S
C542 H513 0.950 . S
C542 C541 1.334 . S
C542 C543 1.287 . S
C543 C542 1.287 . S
C543 C544 1.524 . S
C543 H546 0.999 . S
C544 H514 0.950 . S
C544 C543 1.524 . S
C544 C545 1.415 . S
C545 H515 0.950 . S
C545 C540 1.363 . S
C545 C544 1.415 . S
H546 C543 0.999 . S
H547 C528 0.913 . S
H548 C566 0.951 . S
H549 C568 0.951 . S
H550 C570 0.950 . S
H551 C571 0.950 . S
H552 C573 0.950 . S
H553 C576 0.950 . S
H554 C577 0.950 . S
H555 C579 0.950 . S
H556 C580 0.950 . S
H557 C581 0.951 . S
H558 C583 0.951 . S
H559 C585 0.950 . S
H560 C586 0.950 . S
H561 C588 0.950 . S
H562 C591 0.950 . S
H563 C592 0.950 . S
H564 C594 0.950 . S
H565 C595 0.950 . S
C566 H548 0.951 . S
C566 C567 1.366 . S
C566 C568 1.388 . S
C567 C566 1.366 . S
C567 C571 1.385 . S
C568 H549 0.951 . S
C568 C566 1.388 . S
C568 C569 1.366 . S
C569 C568 1.366 . S
C569 C570 1.414 . S
C569 C572 1.499 . S
C570 H550 0.950 . S
C570 C569 1.414 . S
C570 C571 1.374 . S
C571 H551 0.950 . S
C571 C567 1.385 . S
C571 C570 1.374 . S
C572 C569 1.499 . S
C572 C573 1.373 . S
C572 C574 1.389 . S
C573 H552 0.950 . S
C573 C572 1.373 . S
C573 C589 1.377 . S
C574 C572 1.389 . S
C574 C575 1.524 . S
C574 C588 1.377 . S
C575 C574 1.524 . S
C575 C576 1.397 . S
C575 C580 1.363 . S
C576 H553 0.950 . S
C576 C575 1.397 . S
C576 C577 1.334 . S
C577 H554 0.950 . S
C577 C576 1.334 . S
C577 C578 1.287 . S
C578 C577 1.287 . S
C578 C579 1.524 . S
C578 H597 0.913 . S
C579 H555 0.950 . S
C579 C578 1.524 . S
C579 C580 1.415 . S
C580 H556 0.950 . S
C580 C575 1.363 . S
C580 C579 1.415 . S
C581 H557 0.951 . S
C581 C582 1.366 . S
C581 C583 1.388 . S
C582 C581 1.366 . S
C582 C586 1.385 . S
C583 H558 0.951 . S
C583 C581 1.388 . S
C583 C584 1.366 . S
C584 C583 1.366 . S
C584 C585 1.414 . S
C584 C587 1.499 . S
C585 H559 0.950 . S
C585 C584 1.414 . S
C585 C586 1.374 . S
C586 H560 0.950 . S
C586 C582 1.385 . S
C586 C585 1.374 . S
C587 C584 1.499 . S
C587 C588 1.373 . S
C587 C589 1.389 . S
C588 H561 0.950 . S
C588 C574 1.377 . S
C588 C587 1.373 . S
C589 C573 1.377 . S
C589 C587 1.389 . S
C589 C590 1.524 . S
C590 C589 1.524 . S
C590 C591 1.397 . S
C590 C595 1.363 . S
C591 H562 0.950 . S
C591 C590 1.397 . S
C591 C592 1.334 . S
C592 H563 0.950 . S
C592 C591 1.334 . S
C592 C593 1.287 . S
C593 C592 1.287 . S
C593 C594 1.524 . S
C593 H596 0.999 . S
C594 H564 0.950 . S
C594 C593 1.524 . S
C594 C595 1.415 . S
C595 H565 0.950 . S
C595 C590 1.363 . S
C595 C594 1.415 . S
H596 C593 0.999 . S
H597 C578 0.913 . S
H598 C616 0.951 . S
H599 C618 0.951 . S
H600 C620 0.950 . S
H601 C621 0.950 . S
H602 C623 0.950 . S
H603 C626 0.950 . S
H604 C627 0.950 . S
H605 C629 0.950 . S
H606 C630 0.950 . S
H607 C631 0.951 . S
H608 C633 0.951 . S
H609 C635 0.950 . S
H610 C636 0.950 . S
H611 C638 0.950 . S
H612 C641 0.950 . S
H613 C642 0.950 . S
H614 C644 0.950 . S
H615 C645 0.950 . S
C616 H598 0.951 . S
C616 C617 1.366 . S
C616 C618 1.388 . S
C617 C616 1.366 . S
C617 C621 1.385 . S
C618 H599 0.951 . S
C618 C616 1.388 . S
C618 C619 1.366 . S
C619 C618 1.366 . S
C619 C620 1.414 . S
C619 C622 1.499 . S
C620 H600 0.950 . S
C620 C619 1.414 . S
C620 C621 1.374 . S
C621 H601 0.950 . S
C621 C617 1.385 . S
C621 C620 1.374 . S
C622 C619 1.499 . S
C622 C623 1.373 . S
C622 C624 1.389 . S
C623 H602 0.950 . S
C623 C622 1.373 . S
C623 C639 1.377 . S
C624 C622 1.389 . S
C624 C625 1.524 . S
C624 C638 1.377 . S
C625 C624 1.524 . S
C625 C626 1.397 . S
C625 C630 1.363 . S
C626 H603 0.950 . S
C626 C625 1.397 . S
C626 C627 1.334 . S
C627 H604 0.950 . S
C627 C626 1.334 . S
C627 C628 1.287 . S
C628 C627 1.287 . S
C628 C629 1.524 . S
C628 H647 0.913 . S
C629 H605 0.950 . S
C629 C628 1.524 . S
C629 C630 1.415 . S
C630 H606 0.950 . S
C630 C625 1.363 . S
C630 C629 1.415 . S
C631 H607 0.951 . S
C631 C632 1.366 . S
C631 C633 1.388 . S
C632 C631 1.366 . S
C632 C636 1.385 . S
C633 H608 0.951 . S
C633 C631 1.388 . S
C633 C634 1.366 . S
C634 C633 1.366 . S
C634 C635 1.414 . S
C634 C637 1.499 . S
C635 H609 0.950 . S
C635 C634 1.414 . S
C635 C636 1.374 . S
C636 H610 0.950 . S
C636 C632 1.385 . S
C636 C635 1.374 . S
C637 C634 1.499 . S
C637 C638 1.373 . S
C637 C639 1.389 . S
C638 H611 0.950 . S
C638 C624 1.377 . S
C638 C637 1.373 . S
C639 C623 1.377 . S
C639 C637 1.389 . S
C639 C640 1.524 . S
C640 C639 1.524 . S
C640 C641 1.397 . S
C640 C645 1.363 . S
C641 H612 0.950 . S
C641 C640 1.397 . S
C641 C642 1.334 . S
C642 H613 0.950 . S
C642 C641 1.334 . S
C642 C643 1.287 . S
C643 C642 1.287 . S
C643 C644 1.524 . S
C643 H646 0.999 . S
C644 H614 0.950 . S
C644 C643 1.524 . S
C644 C645 1.415 . S
C645 H615 0.950 . S
C645 C640 1.363 . S
C645 C644 1.415 . S
H646 C643 0.999 . S
H647 C628 0.913 . S
H648 C666 0.951 . S
H649 C668 0.951 . S
H650 C670 0.950 . S
H651 C671 0.950 . S
H652 C673 0.950 . S
H653 C676 0.950 . S
H654 C677 0.950 . S
H655 C679 0.950 . S
H656 C680 0.950 . S
H657 C681 0.951 . S
H658 C683 0.951 . S
H659 C685 0.950 . S
H660 C686 0.950 . S
H661 C688 0.950 . S
H662 C691 0.950 . S
H663 C692 0.950 . S
H664 C694 0.950 . S
H665 C695 0.950 . S
C666 H648 0.951 . S
C666 C667 1.366 . S
C666 C668 1.388 . S
C667 C666 1.366 . S
C667 C671 1.385 . S
C668 H649 0.951 . S
C668 C666 1.388 . S
C668 C669 1.366 . S
C669 C668 1.366 . S
C669 C670 1.414 . S
C669 C672 1.499 . S
C670 H650 0.950 . S
C670 C669 1.414 . S
C670 C671 1.374 . S
C671 H651 0.950 . S
C671 C667 1.385 . S
C671 C670 1.374 . S
C672 C669 1.499 . S
C672 C673 1.373 . S
C672 C674 1.389 . S
C673 H652 0.950 . S
C673 C672 1.373 . S
C673 C689 1.377 . S
C674 C672 1.389 . S
C674 C675 1.524 . S
C674 C688 1.377 . S
C675 C674 1.524 . S
C675 C676 1.397 . S
C675 C680 1.363 . S
C676 H653 0.950 . S
C676 C675 1.397 . S
C676 C677 1.334 . S
C677 H654 0.950 . S
C677 C676 1.334 . S
C677 C678 1.287 . S
C678 C677 1.287 . S
C678 C679 1.524 . S
C678 H697 0.913 . S
C679 H655 0.950 . S
C679 C678 1.524 . S
C679 C680 1.415 . S
C680 H656 0.950 . S
C680 C675 1.363 . S
C680 C679 1.415 . S
C681 H657 0.951 . S
C681 C682 1.366 . S
C681 C683 1.388 . S
C682 C681 1.366 . S
C682 C686 1.385 . S
C683 H658 0.951 . S
C683 C681 1.388 . S
C683 C684 1.366 . S
C684 C683 1.366 . S
C684 C685 1.414 . S
C684 C687 1.499 . S
C685 H659 0.950 . S
C685 C684 1.414 . S
C685 C686 1.374 . S
C686 H660 0.950 . S
C686 C682 1.385 . S
C686 C685 1.374 . S
C687 C684 1.499 . S
C687 C688 1.373 . S
C687 C689 1.389 . S
C688 H661 0.950 . S
C688 C674 1.377 . S
C688 C687 1.373 . S
C689 C673 1.377 . S
C689 C687 1.389 . S
C689 C690 1.524 . S
C690 C689 1.524 . S
C690 C691 1.397 . S
C690 C695 1.363 . S
C691 H662 0.950 . S
C691 C690 1.397 . S
C691 C692 1.334 . S
C692 H663 0.950 . S
C692 C691 1.334 . S
C692 C693 1.287 . S
C693 C692 1.287 . S
C693 C694 1.524 . S
C693 H696 0.999 . S
C694 H664 0.950 . S
C694 C693 1.524 . S
C694 C695 1.415 . S
C695 H665 0.950 . S
C695 C690 1.363 . S
C695 C694 1.415 . S
H696 C693 0.999 . S
H697 C678 0.913 . S
H698 C716 0.951 . S
H699 C718 0.951 . S
H700 C720 0.950 . S
H701 C721 0.950 . S
H702 C723 0.950 . S
H703 C726 0.950 . S
H704 C727 0.950 . S
H705 C729 0.950 . S
H706 C730 0.950 . S
H707 C731 0.951 . S
H708 C733 0.951 . S
H709 C735 0.950 . S
H710 C736 0.950 . S
H711 C738 0.950 . S
H712 C741 0.950 . S
H713 C742 0.950 . S
H714 C744 0.950 . S
H715 C745 0.950 . S
C716 H698 0.951 . S
C716 C717 1.366 . S
C716 C718 1.388 . S
C717 C716 1.366 . S
C717 C721 1.385 . S
C718 H699 0.951 . S
C718 C716 1.388 . S
C718 C719 1.366 . S
C719 C718 1.366 . S
C719 C720 1.414 . S
C719 C722 1.499 . S
C720 H700 0.950 . S
C720 C719 1.414 . S
C720 C721 1.374 . S
C721 H701 0.950 . S
C721 C717 1.385 . S
C721 C720 1.374 . S
C722 C719 1.499 . S
C722 C723 1.373 . S
C722 C724 1.389 . S
C723 H702 0.950 . S
C723 C722 1.373 . S
C723 C739 1.377 . S
C724 C722 1.389 . S
C724 C725 1.524 . S
C724 C738 1.377 . S
C725 C724 1.524 . S
C725 C726 1.397 . S
C725 C730 1.363 . S
C726 H703 0.950 . S
C726 C725 1.397 . S
C726 C727 1.334 . S
C727 H704 0.950 . S
C727 C726 1.334 . S
C727 C728 1.287 . S
C728 C727 1.287 . S
C728 C729 1.524 . S
C728 H747 0.913 . S
C729 H705 0.950 . S
C729 C728 1.524 . S
C729 C730 1.415 . S
C730 H706 0.950 . S
C730 C725 1.363 . S
C730 C729 1.415 . S
C731 H707 0.951 . S
C731 C732 1.366 . S
C731 C733 1.388 . S
C732 C731 1.366 . S
C732 C736 1.385 . S
C733 H708 0.951 . S
C733 C731 1.388 . S
C733 C734 1.366 . S
C734 C733 1.366 . S
C734 C735 1.414 . S
C734 C737 1.499 . S
C735 H709 0.950 . S
C735 C734 1.414 . S
C735 C736 1.374 . S
C736 H710 0.950 . S
C736 C732 1.385 . S
C736 C735 1.374 . S
C737 C734 1.499 . S
C737 C738 1.373 . S
C737 C739 1.389 . S
C738 H711 0.950 . S
C738 C724 1.377 . S
C738 C737 1.373 . S
C739 C723 1.377 . S
C739 C737 1.389 . S
C739 C740 1.524 . S
C740 C739 1.524 . S
C740 C741 1.397 . S
C740 C745 1.363 . S
C741 H712 0.950 . S
C741 C740 1.397 . S
C741 C742 1.334 . S
C742 H713 0.950 . S
C742 C741 1.334 . S
C742 C743 1.287 . S
C743 C742 1.287 . S
C743 C744 1.524 . S
C743 H746 0.999 . S
C744 H714 0.950 . S
C744 C743 1.524 . S
C744 C745 1.415 . S
C745 H715 0.950 . S
C745 C740 1.363 . S
C745 C744 1.415 . S
H746 C743 0.999 . S
H747 C728 0.913 . S
H748 C766 0.951 . S
H749 C768 0.951 . S
H750 C770 0.950 . S
H751 C771 0.950 . S
H752 C773 0.950 . S
H753 C776 0.950 . S
H754 C777 0.950 . S
H755 C779 0.950 . S
H756 C780 0.950 . S
H757 C781 0.951 . S
H758 C783 0.951 . S
H759 C785 0.950 . S
H760 C786 0.950 . S
H761 C788 0.950 . S
H762 C791 0.950 . S
H763 C792 0.950 . S
H764 C794 0.950 . S
H765 C795 0.950 . S
C766 H748 0.951 . S
C766 C767 1.366 . S
C766 C768 1.388 . S
C767 C766 1.366 . S
C767 C771 1.385 . S
C768 H749 0.951 . S
C768 C766 1.388 . S
C768 C769 1.366 . S
C769 C768 1.366 . S
C769 C770 1.414 . S
C769 C772 1.499 . S
C770 H750 0.950 . S
C770 C769 1.414 . S
C770 C771 1.374 . S
C771 H751 0.950 . S
C771 C767 1.385 . S
C771 C770 1.374 . S
C772 C769 1.499 . S
C772 C773 1.373 . S
C772 C774 1.389 . S
C773 H752 0.950 . S
C773 C772 1.373 . S
C773 C789 1.377 . S
C774 C772 1.389 . S
C774 C775 1.524 . S
C774 C788 1.377 . S
C775 C774 1.524 . S
C775 C776 1.397 . S
C775 C780 1.363 . S
C776 H753 0.950 . S
C776 C775 1.397 . S
C776 C777 1.334 . S
C777 H754 0.950 . S
C777 C776 1.334 . S
C777 C778 1.287 . S
C778 C777 1.287 . S
C778 C779 1.524 . S
C778 H797 0.913 . S
C779 H755 0.950 . S
C779 C778 1.524 . S
C779 C780 1.415 . S
C780 H756 0.950 . S
C780 C775 1.363 . S
C780 C779 1.415 . S
C781 H757 0.951 . S
C781 C782 1.366 . S
C781 C783 1.388 . S
C782 C781 1.366 . S
C782 C786 1.385 . S
C783 H758 0.951 . S
C783 C781 1.388 . S
C783 C784 1.366 . S
C784 C783 1.366 . S
C784 C785 1.414 . S
C784 C787 1.499 . S
C785 H759 0.950 . S
C785 C784 1.414 . S
C785 C786 1.374 . S
C786 H760 0.950 . S
C786 C782 1.385 . S
C786 C785 1.374 . S
C787 C784 1.499 . S
C787 C788 1.373 . S
C787 C789 1.389 . S
C788 H761 0.950 . S
C788 C774 1.377 . S
C788 C787 1.373 . S
C789 C773 1.377 . S
C789 C787 1.389 . S
C789 C790 1.524 . S
C790 C789 1.524 . S
C790 C791 1.397 . S
C790 C795 1.363 . S
C791 H762 0.950 . S
C791 C790 1.397 . S
C791 C792 1.334 . S
C792 H763 0.950 . S
C792 C791 1.334 . S
C792 C793 1.287 . S
C793 C792 1.287 . S
C793 C794 1.524 . S
C793 H796 0.999 . S
C794 H764 0.950 . S
C794 C793 1.524 . S
C794 C795 1.415 . S
C795 H765 0.950 . S
C795 C790 1.363 . S
C795 C794 1.415 . S
H796 C793 0.999 . S
H797 C778 0.913 . S
H798 C816 0.951 . S
H799 C818 0.951 . S
H800 C820 0.950 . S
H801 C821 0.950 . S
H802 C823 0.950 . S
H803 C826 0.950 . S
H804 C827 0.950 . S
H805 C829 0.950 . S
H806 C830 0.950 . S
H807 C831 0.951 . S
H808 C833 0.951 . S
H809 C835 0.950 . S
H810 C836 0.950 . S
H811 C838 0.950 1_556 S
H812 C841 0.950 . S
H813 C842 0.950 . S
H814 C844 0.950 . S
H815 C845 0.950 . S
C816 H798 0.951 . S
C816 C817 1.366 . S
C816 C818 1.388 . S
C817 C816 1.366 . S
C817 C821 1.385 . S
C818 H799 0.951 . S
C818 C816 1.388 . S
C818 C819 1.366 . S
C819 C818 1.366 . S
C819 C820 1.414 . S
C819 C822 1.499 . S
C820 H800 0.950 . S
C820 C819 1.414 . S
C820 C821 1.374 . S
C821 H801 0.950 . S
C821 C817 1.385 . S
C821 C820 1.374 . S
C822 C819 1.499 . S
C822 C823 1.373 . S
C822 C824 1.389 . S
C823 H802 0.950 . S
C823 C822 1.373 . S
C823 C839 1.377 . S
C824 C822 1.389 . S
C824 C825 1.524 1_455 S
C824 C838 1.377 . S
C825 C824 1.524 1_655 S
C825 C826 1.397 . S
C825 C830 1.363 . S
C826 H803 0.950 . S
C826 C825 1.397 . S
C826 C827 1.334 . S
C827 H804 0.950 . S
C827 C826 1.334 . S
C827 C828 1.287 . S
C828 C827 1.287 . S
C828 C829 1.524 . S
C828 H847 0.913 . S
C829 H805 0.950 . S
C829 C828 1.524 . S
C829 C830 1.415 . S
C830 H806 0.950 . S
C830 C825 1.363 . S
C830 C829 1.415 . S
C831 H807 0.951 . S
C831 C832 1.366 . S
C831 C833 1.388 . S
C832 C831 1.366 . S
C832 C836 1.385 . S
C833 H808 0.951 . S
C833 C831 1.388 . S
C833 C834 1.366 . S
C834 C833 1.366 . S
C834 C835 1.414 . S
C834 C837 1.499 . S
C835 H809 0.950 . S
C835 C834 1.414 . S
C835 C836 1.374 . S
C836 H810 0.950 . S
C836 C832 1.385 . S
C836 C835 1.374 . S
C837 C834 1.499 . S
C837 C838 1.373 1_556 S
C837 C839 1.389 1_556 S
C838 H811 0.950 1_554 S
C838 C824 1.377 . S
C838 C837 1.373 1_554 S
C839 C823 1.377 . S
C839 C837 1.389 1_554 S
C839 C840 1.524 . S
C840 C839 1.524 . S
C840 C841 1.397 1_554 S
C840 C845 1.363 . S
C841 H812 0.950 . S
C841 C840 1.397 1_556 S
C841 C842 1.334 . S
C842 H813 0.950 . S
C842 C841 1.334 . S
C842 C843 1.287 . S
C843 C842 1.287 . S
C843 C844 1.524 1_556 S
C843 H846 0.999 . S
C844 H814 0.950 . S
C844 C843 1.524 1_554 S
C844 C845 1.415 . S
C845 H815 0.950 . S
C845 C840 1.363 . S
C845 C844 1.415 . S
H846 C843 0.999 . S
H847 C828 0.913 . S
H848 C866 0.951 1_565 S
H849 C868 0.951 1_565 S
H850 C870 0.950 . S
H851 C871 0.950 . S
H852 C873 0.950 . S
H853 C876 0.950 . S
H854 C877 0.950 . S
H855 C879 0.950 . S
H856 C880 0.950 . S
H857 C881 0.951 . S
H858 C883 0.951 . S
H859 C885 0.950 . S
H860 C886 0.950 . S
H861 C888 0.950 . S
H862 C891 0.950 . S
H863 C892 0.950 . S
H864 C894 0.950 . S
H865 C895 0.950 . S
C866 H848 0.951 1_545 S
C866 C867 1.366 . S
C866 C868 1.388 . S
C867 C866 1.366 . S
C867 C871 1.385 . S
C868 H849 0.951 1_545 S
C868 C866 1.388 . S
C868 C869 1.366 . S
C869 C868 1.366 . S
C869 C870 1.414 . S
C869 C872 1.499 . S
C870 H850 0.950 . S
C870 C869 1.414 . S
C870 C871 1.374 . S
C871 H851 0.950 . S
C871 C867 1.385 . S
C871 C870 1.374 . S
C872 C869 1.499 . S
C872 C873 1.373 . S
C872 C874 1.389 . S
C873 H852 0.950 . S
C873 C872 1.373 . S
C873 C889 1.377 . S
C874 C872 1.389 . S
C874 C875 1.524 . S
C874 C888 1.377 . S
C875 C874 1.524 . S
C875 C876 1.397 . S
C875 C880 1.363 . S
C876 H853 0.950 . S
C876 C875 1.397 . S
C876 C877 1.334 . S
C877 H854 0.950 . S
C877 C876 1.334 . S
C877 C878 1.287 . S
C878 C877 1.287 . S
C878 C879 1.524 . S
C878 H897 0.913 . S
C879 H855 0.950 . S
C879 C878 1.524 . S
C879 C880 1.415 . S
C880 H856 0.950 . S
C880 C875 1.363 . S
C880 C879 1.415 . S
C881 H857 0.951 . S
C881 C882 1.366 . S
C881 C883 1.388 . S
C882 C881 1.366 . S
C882 C886 1.385 1_545 S
C883 H858 0.951 . S
C883 C881 1.388 . S
C883 C884 1.366 . S
C884 C883 1.366 . S
C884 C885 1.414 1_545 S
C884 C887 1.499 . S
C885 H859 0.950 . S
C885 C884 1.414 1_565 S
C885 C886 1.374 . S
C886 H860 0.950 . S
C886 C882 1.385 1_565 S
C886 C885 1.374 . S
C887 C884 1.499 . S
C887 C888 1.373 . S
C887 C889 1.389 . S
C888 H861 0.950 . S
C888 C874 1.377 . S
C888 C887 1.373 . S
C889 C873 1.377 . S
C889 C887 1.389 . S
C889 C890 1.523 . S
C890 C889 1.523 . S
C890 C891 1.392 1_545 S
C890 C895 1.368 . S
C891 H862 0.950 . S
C891 C890 1.392 1_565 S
C891 C892 1.334 . S
C892 H863 0.950 . S
C892 C891 1.334 . S
C892 C893 1.287 . S
C893 C892 1.287 . S
C893 C894 1.524 1_565 S
C893 H896 0.999 . S
C894 H864 0.950 . S
C894 C893 1.524 1_545 S
C894 C895 1.415 . S
C895 H865 0.950 . S
C895 C890 1.368 . S
C895 C894 1.415 . S
H896 C893 0.999 . S
H897 C878 0.913 . S
H898 C916 0.951 . S
H899 C918 0.951 . S
H900 C920 0.950 . S
H901 C921 0.950 . S
H902 C923 0.950 . S
H903 C926 0.950 . S
H904 C927 0.950 . S
H905 C929 0.950 . S
H906 C930 0.950 . S
H907 C931 0.951 . S
H908 C933 0.951 . S
H909 C935 0.950 . S
H910 C936 0.950 . S
H911 C938 0.950 . S
H912 C941 0.950 . S
H913 C942 0.950 . S
H914 C944 0.950 . S
H915 C945 0.950 . S
C916 H898 0.951 . S
C916 C917 1.366 . S
C916 C918 1.388 . S
C917 C916 1.366 . S
C917 C921 1.385 . S
C918 H899 0.951 . S
C918 C916 1.388 . S
C918 C919 1.366 . S
C919 C918 1.366 . S
C919 C920 1.414 . S
C919 C922 1.499 . S
C920 H900 0.950 . S
C920 C919 1.414 . S
C920 C921 1.374 . S
C921 H901 0.950 . S
C921 C917 1.385 . S
C921 C920 1.374 . S
C922 C919 1.499 . S
C922 C923 1.373 . S
C922 C924 1.389 . S
C923 H902 0.950 . S
C923 C922 1.373 . S
C923 C939 1.377 . S
C924 C922 1.389 . S
C924 C925 1.524 . S
C924 C938 1.377 . S
C925 C924 1.524 . S
C925 C926 1.397 . S
C925 C930 1.363 . S
C926 H903 0.950 . S
C926 C925 1.397 . S
C926 C927 1.334 . S
C927 H904 0.950 . S
C927 C926 1.334 . S
C927 C928 1.287 . S
C928 C927 1.287 . S
C928 C929 1.524 . S
C928 H947 0.913 . S
C929 H905 0.950 . S
C929 C928 1.524 . S
C929 C930 1.415 . S
C930 H906 0.950 . S
C930 C925 1.363 . S
C930 C929 1.415 . S
C931 H907 0.951 . S
C931 C932 1.366 . S
C931 C933 1.388 . S
C932 C931 1.366 . S
C932 C936 1.385 . S
C933 H908 0.951 . S
C933 C931 1.388 . S
C933 C934 1.366 . S
C934 C933 1.366 . S
C934 C935 1.414 . S
C934 C937 1.499 . S
C935 H909 0.950 . S
C935 C934 1.414 . S
C935 C936 1.374 . S
C936 H910 0.950 . S
C936 C932 1.385 . S
C936 C935 1.374 . S
C937 C934 1.499 . S
C937 C938 1.373 . S
C937 C939 1.389 . S
C938 H911 0.950 . S
C938 C924 1.377 . S
C938 C937 1.373 . S
C939 C923 1.377 . S
C939 C937 1.389 . S
C939 C940 1.524 . S
C940 C939 1.524 . S
C940 C941 1.397 . S
C940 C945 1.363 . S
C941 H912 0.950 . S
C941 C940 1.397 . S
C941 C942 1.334 . S
C942 H913 0.950 . S
C942 C941 1.334 . S
C942 C943 1.287 . S
C943 C942 1.287 . S
C943 C944 1.524 . S
C943 H946 0.999 . S
C944 H914 0.950 . S
C944 C943 1.524 . S
C944 C945 1.415 . S
C945 H915 0.950 . S
C945 C940 1.363 . S
C945 C944 1.415 . S
H946 C943 0.999 . S
H947 C928 0.913 . S
H948 C966 0.951 . S
H949 C968 0.951 . S
H950 C970 0.950 . S
H951 C971 0.950 . S
H952 C973 0.950 . S
H953 C976 0.950 . S
H954 C977 0.950 . S
H955 C979 0.950 . S
H956 C980 0.950 . S
H957 C981 0.951 . S
H958 C983 0.951 . S
H959 C985 0.950 . S
H960 C986 0.950 . S
H961 C988 0.950 . S
H962 C991 0.950 . S
H963 C992 0.950 . S
H964 C994 0.950 . S
H965 C995 0.950 . S
C966 H948 0.951 . S
C966 C967 1.366 1_565 S
C966 C968 1.388 . S
C967 C966 1.366 1_545 S
C967 C971 1.385 . S
C968 H949 0.951 . S
C968 C966 1.388 . S
C968 C969 1.366 1_565 S
C969 C968 1.366 1_545 S
C969 C970 1.414 . S
C969 C972 1.499 . S
C970 H950 0.950 . S
C970 C969 1.414 . S
C970 C971 1.374 . S
C971 H951 0.950 . S
C971 C967 1.385 . S
C971 C970 1.374 . S
C972 C969 1.499 . S
C972 C973 1.373 . S
C972 C974 1.389 . S
C973 H952 0.950 . S
C973 C972 1.373 . S
C973 C989 1.377 . S
C974 C972 1.389 . S
C974 C975 1.524 . S
C974 C988 1.377 . S
C975 C974 1.524 . S
C975 C976 1.397 . S
C975 C980 1.363 1_545 S
C976 H953 0.950 . S
C976 C975 1.397 . S
C976 C977 1.334 . S
C977 H954 0.950 . S
C977 C976 1.334 . S
C977 C978 1.287 . S
C978 C977 1.287 . S
C978 C979 1.524 1_545 S
C978 H997 0.913 . S
C979 H955 0.950 . S
C979 C978 1.524 1_565 S
C979 C980 1.415 . S
C980 H956 0.950 . S
C980 C975 1.363 1_565 S
C980 C979 1.415 . S
C981 H957 0.951 . S
C981 C982 1.366 1_545 S
C981 C983 1.388 . S
C982 C981 1.366 1_565 S
C982 C986 1.384 . S
C983 H958 0.951 . S
C983 C981 1.388 . S
C983 C984 1.376 . S
C984 C983 1.376 . S
C984 C985 1.407 1_545 S
C984 C987 1.497 . S
C985 H959 0.950 . S
C985 C984 1.407 1_565 S
C985 C986 1.374 . S
C986 H960 0.950 . S
C986 C982 1.384 . S
C986 C985 1.374 . S
C987 C984 1.497 . S
C987 C988 1.373 . S
C987 C989 1.389 . S
C988 H961 0.950 . S
C988 C974 1.377 . S
C988 C987 1.373 . S
C989 C973 1.377 . S
C989 C987 1.389 . S
C989 C990 1.524 1_545 S
C990 C989 1.524 1_565 S
C990 C991 1.397 . S
C990 C995 1.363 1_565 S
C991 H962 0.950 . S
C991 C990 1.397 . S
C991 C992 1.334 . S
C992 H963 0.950 . S
C992 C991 1.334 . S
C992 C993 1.287 . S
C993 C992 1.287 . S
C993 C994 1.524 1_565 S
C993 H996 0.999 . S
C994 H964 0.950 . S
C994 C993 1.524 1_545 S
C994 C995 1.415 . S
C995 H965 0.950 . S
C995 C990 1.363 1_545 S
C995 C994 1.415 . S
H996 C993 0.999 . S
H997 C978 0.913 . S
H998 C1016 0.951 . S
H999 C1018 0.951 . S
H1000 C1020 0.950 . S
H1001 C1021 0.950 . S
H1002 C1023 0.950 . S
H1003 C1026 0.950 . S
H1004 C1027 0.950 . S
H1005 C1029 0.950 . S
H1006 C1030 0.950 . S
H1007 C1031 0.951 . S
H1008 C1033 0.951 . S
H1009 C1035 0.950 . S
H1010 C1036 0.950 . S
H1011 C1038 0.950 . S
H1012 C1041 0.968 . S
H1013 C1042 0.950 . S
H1014 C1044 0.950 . S
H1015 C1045 0.950 . S
C1016 H998 0.951 . S
C1016 C1017 1.366 . S
C1016 C1018 1.388 . S
C1017 C1016 1.366 . S
C1017 C1021 1.385 . S
C1018 H999 0.951 . S
C1018 C1016 1.388 . S
C1018 C1019 1.366 . S
C1019 C1018 1.366 . S
C1019 C1020 1.414 . S
C1019 C1022 1.499 . S
C1020 H1000 0.950 . S
C1020 C1019 1.414 . S
C1020 C1021 1.374 . S
C1021 H1001 0.950 . S
C1021 C1017 1.385 . S
C1021 C1020 1.374 . S
C1022 C1019 1.499 . S
C1022 C1023 1.373 . S
C1022 C1024 1.389 . S
C1023 H1002 0.950 . S
C1023 C1022 1.373 . S
C1023 C1039 1.377 . S
C1024 C1022 1.389 . S
C1024 C1025 1.524 . S
C1024 C1038 1.377 1_556 S
C1025 C1024 1.524 . S
C1025 C1026 1.397 . S
C1025 C1030 1.363 . S
C1026 H1003 0.950 . S
C1026 C1025 1.397 . S
C1026 C1027 1.334 . S
C1027 H1004 0.950 . S
C1027 C1026 1.334 . S
C1027 C1028 1.287 . S
C1028 C1027 1.287 . S
C1028 C1029 1.524 . S
C1028 H1047 0.913 . S
C1029 H1005 0.950 . S
C1029 C1028 1.524 . S
C1029 C1030 1.415 . S
C1030 H1006 0.950 . S
C1030 C1025 1.363 . S
C1030 C1029 1.415 . S
C1031 H1007 0.951 . S
C1031 C1032 1.366 . S
C1031 C1033 1.388 . S
C1032 C1031 1.366 . S
C1032 C1036 1.385 . S
C1033 H1008 0.951 . S
C1033 C1031 1.388 . S
C1033 C1034 1.366 . S
C1034 C1033 1.366 . S
C1034 C1035 1.414 . S
C1034 C1037 1.499 . S
C1035 H1009 0.950 . S
C1035 C1034 1.414 . S
C1035 C1036 1.374 . S
C1036 H1010 0.950 . S
C1036 C1032 1.385 . S
C1036 C1035 1.374 . S
C1037 C1034 1.499 . S
C1037 C1038 1.373 . S
C1037 C1039 1.389 1_554 S
C1038 H1011 0.950 . S
C1038 C1024 1.377 1_554 S
C1038 C1037 1.373 . S
C1039 C1023 1.377 . S
C1039 C1037 1.389 1_556 S
C1039 C1040 1.524 . S
C1040 C1039 1.524 . S
C1040 C1041 1.373 1_556 S
C1040 C1045 1.363 . S
C1041 H1012 0.968 . S
C1041 C1040 1.373 1_554 S
C1041 C1042 1.342 . S
C1042 H1013 0.950 . S
C1042 C1041 1.342 . S
C1042 C1043 1.287 1_554 S
C1043 C1042 1.287 1_556 S
C1043 C1044 1.524 . S
C1043 H1046 0.999 . S
C1044 H1014 0.950 . S
C1044 C1043 1.524 . S
C1044 C1045 1.415 . S
C1045 H1015 0.950 . S
C1045 C1040 1.363 . S
C1045 C1044 1.415 . S
H1046 C1043 0.999 . S
H1047 C1028 0.913 . S
H1048 C1066 0.951 . S
H1049 C1068 0.951 . S
H1050 C1070 0.950 . S
H1051 C1071 0.950 . S
H1052 C1073 0.950 . S
H1053 C1076 0.950 . S
H1054 C1077 0.950 . S
H1055 C1079 0.950 . S
H1056 C1080 0.950 . S
H1057 C1081 0.951 . S
H1058 C1083 0.951 . S
H1059 C1085 0.950 . S
H1060 C1086 0.950 . S
H1061 C1088 0.950 . S
H1062 C1091 0.950 . S
H1063 C1092 0.950 . S
H1064 C1094 0.950 . S
H1065 C1095 0.950 . S
C1066 H1048 0.951 . S
C1066 C1067 1.366 1_455 S
C1066 C1068 1.388 . S
C1067 C1066 1.366 1_655 S
C1067 C1071 1.385 . S
C1068 H1049 0.951 . S
C1068 C1066 1.388 . S
C1068 C1069 1.366 . S
C1069 C1068 1.366 . S
C1069 C1070 1.414 1_455 S
C1069 C1072 1.499 . S
C1070 H1050 0.950 . S
C1070 C1069 1.414 1_655 S
C1070 C1071 1.374 . S
C1071 H1051 0.950 . S
C1071 C1067 1.385 . S
C1071 C1070 1.374 . S
C1072 C1069 1.499 . S
C1072 C1073 1.373 1_455 S
C1072 C1074 1.389 . S
C1073 H1052 0.950 . S
C1073 C1072 1.373 1_655 S
C1073 C1089 1.377 . S
C1074 C1072 1.389 . S
C1074 C1075 1.524 . S
C1074 C1088 1.377 . S
C1075 C1074 1.524 . S
C1075 C1076 1.397 . S
C1075 C1080 1.363 . S
C1076 H1053 0.950 . S
C1076 C1075 1.397 . S
C1076 C1077 1.334 . S
C1077 H1054 0.950 . S
C1077 C1076 1.334 . S
C1077 C1078 1.287 . S
C1078 C1077 1.287 . S
C1078 C1079 1.524 . S
C1078 H1097 0.913 . S
C1079 H1055 0.950 . S
C1079 C1078 1.524 . S
C1079 C1080 1.415 . S
C1080 H1056 0.950 . S
C1080 C1075 1.363 . S
C1080 C1079 1.415 . S
C1081 H1057 0.951 . S
C1081 C1082 1.366 1_655 S
C1081 C1083 1.388 . S
C1082 C1081 1.366 1_455 S
C1082 C1086 1.385 . S
C1083 H1058 0.951 . S
C1083 C1081 1.388 . S
C1083 C1084 1.366 1_655 S
C1084 C1083 1.366 1_455 S
C1084 C1085 1.414 . S
C1084 C1087 1.499 . S
C1085 H1059 0.950 . S
C1085 C1084 1.414 . S
C1085 C1086 1.374 . S
C1086 H1060 0.950 . S
C1086 C1082 1.385 . S
C1086 C1085 1.374 . S
C1087 C1084 1.499 . S
C1087 C1088 1.373 . S
C1087 C1089 1.389 1_455 S
C1088 H1061 0.950 . S
C1088 C1074 1.377 . S
C1088 C1087 1.373 . S
C1089 C1073 1.377 . S
C1089 C1087 1.389 1_655 S
C1089 C1090 1.524 . S
C1090 C1089 1.524 . S
C1090 C1091 1.397 . S
C1090 C1095 1.363 . S
C1091 H1062 0.950 . S
C1091 C1090 1.397 . S
C1091 C1092 1.334 . S
C1092 H1063 0.950 . S
C1092 C1091 1.334 . S
C1092 C1093 1.287 . S
C1093 C1092 1.287 . S
C1093 C1094 1.524 . S
C1093 H1096 0.999 . S
C1094 H1064 0.950 . S
C1094 C1093 1.524 . S
C1094 C1095 1.415 . S
C1095 H1065 0.950 . S
C1095 C1090 1.363 . S
C1095 C1094 1.415 . S
H1096 C1093 0.999 . S
H1097 C1078 0.913 . S
C217 C25 0.307 . S
C232 C189 0.498 . S
C267 C65 0.244 . S
C282 C167 0.211 . S
C317 C105 0.279 . S
C332 C180 0.212 . S
C367 C4 0.254 . S
C382 C193 0.201 . S
C432 C163 0.488 . S
C417 C44 0.361 . S
C482 C176 0.489 . S
C467 C84 0.360 . S
C517 C60 2.819 . S
C532 C141 2.786 . S
C567 C100 2.972 . S
C582 C154 2.930 1_655 S
C617 C31 3.103 . S
C632 C124 2.901 . S
C682 C137 2.925 . S
C667 C71 3.115 . S
C732 C150 2.776 . S
C717 C111 2.943 . S
C767 C20 2.828 . S
C782 C128 2.794 . S
C832 C155 1.748 . S
C817 C2 1.710 . S
C867 C42 1.696 . S
C882 C129 1.767 . S
C917 C82 1.723 . S
C932 C142 1.802 . S
C982 C181 1.287 . S
C967 C63 1.268 . S
C1032 C194 1.340 . S
C1017 C103 1.323 . S
C1067 C23 1.268 1_655 S
C1082 C168 1.298 . S
