# Generated by pormake.
# Topology ctn, (3,4)-cn, num edge types: 1
# Building blocks:
#     Node 0, Type 0, BuildingBlock: ESEHIV_clean_linker_0, # of connection points: 3
#     Node 1, Type 0, BuildingBlock: ESEHIV_clean_linker_0, # of connection points: 3
#     Node 2, Type 0, BuildingBlock: ESEHIV_clean_linker_0, # of connection points: 3
#     Node 3, Type 0, BuildingBlock: ESEHIV_clean_linker_0, # of connection points: 3
#     Node 4, Type 0, BuildingBlock: ESEHIV_clean_linker_0, # of connection points: 3
#     Node 5, Type 0, BuildingBlock: ESEHIV_clean_linker_0, # of connection points: 3
#     Node 6, Type 0, BuildingBlock: ESEHIV_clean_linker_0, # of connection points: 3
#     Node 7, Type 0, BuildingBlock: ESEHIV_clean_linker_0, # of connection points: 3
#     Node 8, Type 0, BuildingBlock: ESEHIV_clean_linker_0, # of connection points: 3
#     Node 9, Type 0, BuildingBlock: ESEHIV_clean_linker_0, # of connection points: 3
#     Node 10, Type 0, BuildingBlock: ESEHIV_clean_linker_0, # of connection points: 3
#     Node 11, Type 0, BuildingBlock: ESEHIV_clean_linker_0, # of connection points: 3
#     Node 12, Type 0, BuildingBlock: ESEHIV_clean_linker_0, # of connection points: 3
#     Node 13, Type 0, BuildingBlock: ESEHIV_clean_linker_0, # of connection points: 3
#     Node 14, Type 0, BuildingBlock: ESEHIV_clean_linker_0, # of connection points: 3
#     Node 15, Type 0, BuildingBlock: ESEHIV_clean_linker_0, # of connection points: 3
#     Node 16, Type 1, BuildingBlock: UXUYUI_clean_sbu_0, # of connection points: 4
#     Node 17, Type 1, BuildingBlock: UXUYUI_clean_sbu_0, # of connection points: 4
#     Node 18, Type 1, BuildingBlock: UXUYUI_clean_sbu_0, # of connection points: 4
#     Node 19, Type 1, BuildingBlock: UXUYUI_clean_sbu_0, # of connection points: 4
#     Node 20, Type 1, BuildingBlock: UXUYUI_clean_sbu_0, # of connection points: 4
#     Node 21, Type 1, BuildingBlock: UXUYUI_clean_sbu_0, # of connection points: 4
#     Node 22, Type 1, BuildingBlock: UXUYUI_clean_sbu_0, # of connection points: 4
#     Node 23, Type 1, BuildingBlock: UXUYUI_clean_sbu_0, # of connection points: 4
#     Node 24, Type 1, BuildingBlock: UXUYUI_clean_sbu_0, # of connection points: 4
#     Node 25, Type 1, BuildingBlock: UXUYUI_clean_sbu_0, # of connection points: 4
#     Node 26, Type 1, BuildingBlock: UXUYUI_clean_sbu_0, # of connection points: 4
#     Node 27, Type 1, BuildingBlock: UXUYUI_clean_sbu_0, # of connection points: 4
#     Edge 28, Type (0, 1), BuildingBlock: AJUNOK_clean_linker_0, # of connection points: 2
#     Edge 29, Type (0, 1), BuildingBlock: AJUNOK_clean_linker_0, # of connection points: 2
#     Edge 30, Type (0, 1), BuildingBlock: AJUNOK_clean_linker_0, # of connection points: 2
#     Edge 31, Type (0, 1), BuildingBlock: AJUNOK_clean_linker_0, # of connection points: 2
#     Edge 32, Type (0, 1), BuildingBlock: AJUNOK_clean_linker_0, # of connection points: 2
#     Edge 33, Type (0, 1), BuildingBlock: AJUNOK_clean_linker_0, # of connection points: 2
#     Edge 34, Type (0, 1), BuildingBlock: AJUNOK_clean_linker_0, # of connection points: 2
#     Edge 35, Type (0, 1), BuildingBlock: AJUNOK_clean_linker_0, # of connection points: 2
#     Edge 36, Type (0, 1), BuildingBlock: AJUNOK_clean_linker_0, # of connection points: 2
#     Edge 37, Type (0, 1), BuildingBlock: AJUNOK_clean_linker_0, # of connection points: 2
#     Edge 38, Type (0, 1), BuildingBlock: AJUNOK_clean_linker_0, # of connection points: 2
#     Edge 39, Type (0, 1), BuildingBlock: AJUNOK_clean_linker_0, # of connection points: 2
#     Edge 40, Type (0, 1), BuildingBlock: AJUNOK_clean_linker_0, # of connection points: 2
#     Edge 41, Type (0, 1), BuildingBlock: AJUNOK_clean_linker_0, # of connection points: 2
#     Edge 42, Type (0, 1), BuildingBlock: AJUNOK_clean_linker_0, # of connection points: 2
#     Edge 43, Type (0, 1), BuildingBlock: AJUNOK_clean_linker_0, # of connection points: 2
#     Edge 44, Type (0, 1), BuildingBlock: AJUNOK_clean_linker_0, # of connection points: 2
#     Edge 45, Type (0, 1), BuildingBlock: AJUNOK_clean_linker_0, # of connection points: 2
#     Edge 46, Type (0, 1), BuildingBlock: AJUNOK_clean_linker_0, # of connection points: 2
#     Edge 47, Type (0, 1), BuildingBlock: AJUNOK_clean_linker_0, # of connection points: 2
#     Edge 48, Type (0, 1), BuildingBlock: AJUNOK_clean_linker_0, # of connection points: 2
#     Edge 49, Type (0, 1), BuildingBlock: AJUNOK_clean_linker_0, # of connection points: 2
#     Edge 50, Type (0, 1), BuildingBlock: AJUNOK_clean_linker_0, # of connection points: 2
#     Edge 51, Type (0, 1), BuildingBlock: AJUNOK_clean_linker_0, # of connection points: 2
#     Edge 52, Type (0, 1), BuildingBlock: AJUNOK_clean_linker_0, # of connection points: 2
#     Edge 53, Type (0, 1), BuildingBlock: AJUNOK_clean_linker_0, # of connection points: 2
#     Edge 54, Type (0, 1), BuildingBlock: AJUNOK_clean_linker_0, # of connection points: 2
#     Edge 55, Type (0, 1), BuildingBlock: AJUNOK_clean_linker_0, # of connection points: 2
#     Edge 56, Type (0, 1), BuildingBlock: AJUNOK_clean_linker_0, # of connection points: 2
#     Edge 57, Type (0, 1), BuildingBlock: AJUNOK_clean_linker_0, # of connection points: 2
#     Edge 58, Type (0, 1), BuildingBlock: AJUNOK_clean_linker_0, # of connection points: 2
#     Edge 59, Type (0, 1), BuildingBlock: AJUNOK_clean_linker_0, # of connection points: 2
#     Edge 60, Type (0, 1), BuildingBlock: AJUNOK_clean_linker_0, # of connection points: 2
#     Edge 61, Type (0, 1), BuildingBlock: AJUNOK_clean_linker_0, # of connection points: 2
#     Edge 62, Type (0, 1), BuildingBlock: AJUNOK_clean_linker_0, # of connection points: 2
#     Edge 63, Type (0, 1), BuildingBlock: AJUNOK_clean_linker_0, # of connection points: 2
#     Edge 64, Type (0, 1), BuildingBlock: AJUNOK_clean_linker_0, # of connection points: 2
#     Edge 65, Type (0, 1), BuildingBlock: AJUNOK_clean_linker_0, # of connection points: 2
#     Edge 66, Type (0, 1), BuildingBlock: AJUNOK_clean_linker_0, # of connection points: 2
#     Edge 67, Type (0, 1), BuildingBlock: AJUNOK_clean_linker_0, # of connection points: 2
#     Edge 68, Type (0, 1), BuildingBlock: AJUNOK_clean_linker_0, # of connection points: 2
#     Edge 69, Type (0, 1), BuildingBlock: AJUNOK_clean_linker_0, # of connection points: 2
#     Edge 70, Type (0, 1), BuildingBlock: AJUNOK_clean_linker_0, # of connection points: 2
#     Edge 71, Type (0, 1), BuildingBlock: AJUNOK_clean_linker_0, # of connection points: 2
#     Edge 72, Type (0, 1), BuildingBlock: AJUNOK_clean_linker_0, # of connection points: 2
#     Edge 73, Type (0, 1), BuildingBlock: AJUNOK_clean_linker_0, # of connection points: 2
#     Edge 74, Type (0, 1), BuildingBlock: AJUNOK_clean_linker_0, # of connection points: 2
#     Edge 75, Type (0, 1), BuildingBlock: AJUNOK_clean_linker_0, # of connection points: 2
# Relax obj value: 0.000
# Max RMSD: 0.006
# Mean RMSD: 0.004
data_MOF--net-ctn--node1-UXUYUI_clean_sbu_0--node2-ESEHIV_clean_linker_0--edge1-AJUNOK_clean_linker_0
_symmetry_space_group_name_H-M    P1
_symmetry_Int_Tables_number       1
_symmetry_cell_setting            triclinic
loop_
_symmetry_equiv_pos_as_xyz
'x, y, z'
_cell_length_a     49.972159
_cell_length_b     49.946445
_cell_length_c     49.802339
_cell_angle_alpha  90.002056
_cell_angle_beta   90.025465
_cell_angle_gamma 90.031355
loop_
_atom_site_label
_atom_site_type_symbol
_atom_site_fract_x
_atom_site_fract_y
_atom_site_fract_z
_atom_type_partial_charge
H0 H 0.01258 0.08126 0.05777 0.0
H1 H 0.05528 0.00954 0.07891 0.0
H2 H 0.07995 0.05587 0.01045 0.0
C3 C 0.0285 0.06705 0.05382 0.0
C4 C 0.04584 0.07125 0.03199 0.0
C5 C 0.03204 0.04509 0.07111 0.0
C6 C 0.05288 0.02687 0.06604 0.0
C7 C 0.07018 0.03047 0.04408 0.0
C8 C 0.06658 0.05282 0.02728 0.0
H9 H 0.30341 0.68899 0.25956 0.0
H10 H 0.32749 0.75758 0.21335 0.0
H11 H 0.25866 0.71183 0.18928 0.0
C12 C 0.30033 0.7023 0.24265 0.0
C13 C 0.2784 0.69818 0.22539 0.0
C14 C 0.31846 0.72335 0.23812 0.0
C15 C 0.31419 0.74069 0.21633 0.0
C16 C 0.2927 0.73667 0.19858 0.0
C17 C 0.27489 0.71539 0.20328 0.0
H18 H 0.96306 0.51153 0.07787 0.0
H19 H 1.00548 0.43908 0.05879 0.0
H20 H 0.93964 0.46476 0.00943 0.0
C21 C 0.9655 0.49379 0.06561 0.0
C22 C 0.94809 0.48959 0.04385 0.0
C23 C 0.98615 0.47557 0.07142 0.0
C24 C 0.99003 0.45359 0.05419 0.0
C25 C 0.97383 0.44987 0.03137 0.0
C26 C 0.95265 0.4678 0.02659 0.0
H27 H 0.68988 0.75927 0.21599 0.0
H28 H 0.75849 0.80475 0.1908 0.0
H29 H 0.71271 0.83021 0.25936 0.0
C30 C 0.70301 0.77638 0.21849 0.0
C31 C 0.69894 0.79402 0.24011 0.0
C32 C 0.72427 0.78028 0.20043 0.0
C33 C 0.74179 0.80196 0.20439 0.0
C34 C 0.73775 0.82016 0.22558 0.0
C35 C 0.71628 0.81597 0.24334 0.0
H36 H 0.00982 0.94009 0.46406 0.0
H37 H 0.05387 0.0104 0.44098 0.0
H38 H 0.07883 0.96452 0.50968 0.0
C39 C 0.02624 0.9539 0.46739 0.0
C40 C 0.04414 0.94941 0.48872 0.0
C41 C 0.02942 0.97606 0.45029 0.0
C42 C 0.05084 0.99378 0.45465 0.0
C43 C 0.06878 0.98981 0.47602 0.0
C44 C 0.06533 0.9675 0.4929 0.0
H45 H 0.1914 0.758 0.80346 0.0
H46 H 0.26145 0.71339 0.82638 0.0
H47 H 0.21438 0.68825 0.75849 0.0
C48 C 0.20521 0.74162 0.80003 0.0
C49 C 0.20041 0.72372 0.77882 0.0
C50 C 0.22714 0.73805 0.81735 0.0
C51 C 0.24435 0.71615 0.81326 0.0
C52 C 0.24007 0.6982 0.79191 0.0
C53 C 0.21796 0.7021 0.77486 0.0
H54 H 0.9397 0.5547 0.51048 0.0
H55 H 1.00828 0.58067 0.46513 0.0
H56 H 0.96482 0.51044 0.4408 0.0
C57 C 0.95312 0.55227 0.49357 0.0
C58 C 0.94965 0.5304 0.47613 0.0
C59 C 0.97418 0.57059 0.48975 0.0
C60 C 0.99215 0.56651 0.46842 0.0
C61 C 0.98905 0.54472 0.45085 0.0
C62 C 0.96755 0.52699 0.45462 0.0
H63 H 0.75786 0.80791 0.82598 0.0
H64 H 0.80476 0.83095 0.75746 0.0
H65 H 0.82992 0.76481 0.80673 0.0
C66 C 0.77519 0.80497 0.81327 0.0
C67 C 0.79345 0.78439 0.81925 0.0
C68 C 0.77918 0.82197 0.79115 0.0
C69 C 0.80172 0.81812 0.77475 0.0
C70 C 0.82001 0.79741 0.7801 0.0
C71 C 0.81563 0.78052 0.80228 0.0
H72 H 0.25997 0.30552 0.32841 0.0
H73 H 0.3062 0.32883 0.25939 0.0
H74 H 0.33146 0.26226 0.30818 0.0
C75 C 0.27685 0.30245 0.3151 0.0
C76 C 0.29485 0.28152 0.32041 0.0
C77 C 0.2809 0.31978 0.29323 0.0
C78 C 0.30339 0.31599 0.27671 0.0
C79 C 0.3219 0.29542 0.28198 0.0
C80 C 0.31743 0.27826 0.30394 0.0
H81 H 0.46134 1.00748 0.58087 0.0
H82 H 0.50494 0.93777 0.55551 0.0
H83 H 0.43417 0.96191 0.51277 0.0
C84 C 0.46346 0.99053 0.56748 0.0
C85 C 0.44474 0.9866 0.54672 0.0
C86 C 0.48496 0.97275 0.57116 0.0
C87 C 0.48813 0.95127 0.55318 0.0
C88 C 0.4698 0.94704 0.53218 0.0
C89 C 0.44824 0.96488 0.52906 0.0
H90 H 0.19128 0.25931 0.71669 0.0
H91 H 0.26169 0.3033 0.69364 0.0
H92 H 0.21651 0.32741 0.76304 0.0
C93 C 0.20542 0.27538 0.72023 0.0
C94 C 0.20156 0.29258 0.74224 0.0
C95 C 0.22729 0.27882 0.70277 0.0
C96 C 0.24507 0.30021 0.70726 0.0
C97 C 0.24146 0.31776 0.72907 0.0
C98 C 0.21958 0.31381 0.74637 0.0
H99 H 0.80167 0.19252 0.76216 0.0
H100 H 0.82664 0.26188 0.71743 0.0
H101 H 0.7571 0.21753 0.69263 0.0
C102 C 0.79867 0.20642 0.74573 0.0
C103 C 0.77696 0.2027 0.72815 0.0
C104 C 0.81659 0.22786 0.74217 0.0
C105 C 0.81275 0.24549 0.72049 0.0
C106 C 0.79122 0.24203 0.70265 0.0
C107 C 0.77353 0.22049 0.70654 0.0
H108 H 0.51037 0.57947 0.55694 0.0
H109 H 0.55893 0.51303 0.58235 0.0
H110 H 0.57782 0.55503 0.50936 0.0
C111 C 0.52725 0.56627 0.55373 0.0
C112 C 0.54361 0.56995 0.53105 0.0
C113 C 0.53248 0.5457 0.57231 0.0
C114 C 0.55448 0.52869 0.56795 0.0
C115 C 0.57124 0.53217 0.54554 0.0
C116 C 0.56549 0.55271 0.52711 0.0
H117 H 0.50993 0.44236 0.96722 0.0
H118 H 0.5572 0.51007 0.94271 0.0
H119 H 0.57823 0.4661 0.01402 0.0
C120 C 0.52682 0.45562 0.97041 0.0
C121 C 0.54363 0.45163 0.99267 0.0
C122 C 0.53121 0.47705 0.95266 0.0
C123 C 0.55322 0.4941 0.95689 0.0
C124 C 0.57059 0.49015 0.97878 0.0
C125 C 0.56531 0.4691 0.99681 0.0
H126 H 0.69173 0.25918 0.30511 0.0
H127 H 0.75939 0.21255 0.33053 0.0
H128 H 0.71528 0.18987 0.25976 0.0
C129 C 0.70474 0.24204 0.30246 0.0
C130 C 0.70041 0.22455 0.28078 0.0
C131 C 0.7259 0.23782 0.32056 0.0
C132 C 0.74345 0.21625 0.31625 0.0
C133 C 0.74004 0.19898 0.29415 0.0
C134 C 0.71834 0.20325 0.27662 0.0
H135 H 0.43695 0.05692 1.00853 0.0
H136 H 0.50681 0.07925 0.96343 0.0
H137 H 0.46131 0.00961 0.94069 0.0
C138 C 0.45069 0.05321 0.99213 0.0
C139 C 0.44682 0.03082 0.97546 0.0
C140 C 0.47217 0.07088 0.98784 0.0
C141 C 0.49006 0.06583 0.96666 0.0
C142 C 0.48645 0.04369 0.94957 0.0
C143 C 0.46456 0.02648 0.95398 0.0
Li144 Li 0.28335 0.90006 1.00457 0.0
Li145 Li 0.26254 0.86582 0.03386 0.0
Li146 Li 0.25437 0.866 0.98355 0.0
Li147 Li 0.2331 0.89964 0.01313 0.0
C148 C 0.31432 0.8549 0.99736 0.0
N149 N 0.36699 0.84421 0.98435 0.0
C150 C 0.33168 0.84437 0.01667 0.0
C151 C 0.32364 0.85964 0.97135 0.0
C152 C 0.35826 0.83919 0.00972 0.0
C153 C 0.35036 0.85421 0.96518 0.0
C154 C 0.26718 0.91087 0.06532 0.0
C155 C 0.2502 0.91504 0.11045 0.0
N156 N 0.27517 0.9215 0.11918 0.0
C157 C 0.29261 0.91788 0.07468 0.0
C158 C 0.24573 0.90972 0.08328 0.0
C159 C 0.29627 0.92305 0.102 0.0
C160 C 0.3107 0.94547 0.9845 0.0
N161 N 0.31387 0.92292 0.99948 0.0
C162 C 0.35984 0.93388 1.00748 0.0
C163 C 0.33781 0.917 0.01106 0.0
C164 C 0.35712 0.95744 0.99229 0.0
C165 C 0.33215 0.96304 0.98059 0.0
H166 H 0.2914 0.94995 0.97578 0.0
H167 H 0.3398 0.89929 0.02332 0.0
C168 C 0.25086 0.8224 0.06873 0.0
N169 N 0.26796 0.8432 0.06458 0.0
C170 C 0.25456 0.80508 0.09047 0.0
C171 C 0.2936 0.83063 0.10319 0.0
C172 C 0.28913 0.84747 0.08122 0.0
C173 C 0.27629 0.80897 0.10793 0.0
H174 H 0.23453 0.81898 0.05493 0.0
H175 H 0.30283 0.86371 0.07722 0.0
C176 C 0.24878 0.91122 0.95252 0.0
N177 N 0.23989 0.92198 0.89883 0.0
C178 C 0.22312 0.91785 0.94355 0.0
C179 C 0.27 0.91054 0.93428 0.0
C180 C 0.21901 0.9231 0.9163 0.0
C181 C 0.26508 0.91591 0.90719 0.0
C182 C 0.2027 0.85392 0.01971 0.0
C183 C 0.1856 0.84349 1.00011 0.0
C184 C 0.19315 0.85808 0.04574 0.0
C185 C 0.15904 0.83782 1.00679 0.0
C186 C 0.16646 0.85218 0.05163 0.0
N187 N 0.15009 0.84229 0.03218 0.0
C188 C 0.26689 0.82301 0.94853 0.0
C189 C 0.22865 0.84781 0.93551 0.0
C190 C 0.26401 0.8061 0.92634 0.0
N191 N 0.24951 0.84358 0.95255 0.0
C192 C 0.22504 0.83142 0.91304 0.0
C193 C 0.24297 0.81033 0.90813 0.0
H194 H 0.28293 0.81957 0.96266 0.0
H195 H 0.21452 0.86364 0.93958 0.0
C196 C 0.20561 0.94477 0.03337 0.0
N197 N 0.20236 0.92214 0.01853 0.0
C198 C 0.18412 0.96219 0.03756 0.0
C199 C 0.1562 0.93273 0.01122 0.0
C200 C 0.17829 0.916 1.00735 0.0
C201 C 0.159 0.95636 0.02628 0.0
H202 H 0.22502 0.94945 0.04175 0.0
H203 H 0.17622 0.89825 0.99516 0.0
O204 O 0.28828 0.86032 1.00388 0.0
O205 O 0.26325 0.90563 0.03865 0.0
O206 O 0.25314 0.90587 0.97911 0.0
O207 O 0.22871 0.85979 0.01347 0.0
H208 H 0.32475 0.84034 0.03682 0.0
H209 H 0.31037 0.8673 0.95606 0.0
H210 H 0.37196 0.83119 0.0245 0.0
H211 H 0.35786 0.85788 0.94515 0.0
H212 H 0.23379 0.91412 0.12458 0.0
H213 H 0.30938 0.91908 0.06104 0.0
H214 H 0.22582 0.90496 0.07629 0.0
H215 H 0.31589 0.9283 0.10955 0.0
H216 H 0.37882 0.92843 0.01642 0.0
H217 H 0.32911 0.98105 0.96887 0.0
H218 H 0.2409 0.78848 0.09328 0.0
H219 H 0.31041 0.83455 0.11635 0.0
H220 H 0.20651 0.91869 0.95742 0.0
H221 H 0.29008 0.90609 0.94096 0.0
H222 H 0.19921 0.92804 0.90905 0.0
H223 H 0.28131 0.91532 0.89283 0.0
H224 H 0.19272 0.83991 0.97993 0.0
H225 H 0.20623 0.86567 0.06125 0.0
H226 H 0.14555 0.82988 0.99177 0.0
H227 H 0.15878 0.85541 0.07167 0.0
H228 H 0.27818 0.78997 0.92337 0.0
H229 H 0.2081 0.8349 0.89993 0.0
H230 H 0.18723 0.98028 0.04916 0.0
H231 H 0.13712 0.92712 1.00258 0.0
Li232 Li 0.11851 0.51152 0.28705 0.0
Li233 Li 0.15134 0.48437 0.26492 0.0
Li234 Li 0.1517 0.5324 0.25793 0.0
Li235 Li 0.11606 0.50276 0.23635 0.0
C236 C 0.16026 0.51841 0.31852 0.0
N237 N 0.16344 0.52986 0.37276 0.0
C238 C 0.16501 0.49794 0.33708 0.0
C239 C 0.15737 0.54473 0.32759 0.0
C240 C 0.16651 0.50413 0.3644 0.0
C241 C 0.15895 0.55011 0.35507 0.0
C242 C 0.11074 0.45052 0.27196 0.0
C243 C 0.10034 0.40556 0.2576 0.0
N244 N 0.109 0.39604 0.28166 0.0
C245 C 0.11947 0.44028 0.29657 0.0
C246 C 0.10108 0.43302 0.25229 0.0
C247 C 0.11848 0.41269 0.30107 0.0
C248 C 0.07736 0.53726 0.3164 0.0
N249 N 0.0958 0.51727 0.31788 0.0
C250 C 0.08104 0.50613 0.36226 0.0
C251 C 0.09762 0.50155 0.34013 0.0
C252 C 0.06211 0.52686 0.36137 0.0
C253 C 0.06021 0.54239 0.33797 0.0
H254 H 0.07576 0.54914 0.29836 0.0
H255 H 0.11182 0.48535 0.3408 0.0
C256 C 0.19625 0.45583 0.28507 0.0
N257 N 0.17503 0.45384 0.26807 0.0
C258 C 0.21352 0.43414 0.2888 0.0
C259 C 0.18775 0.4091 0.25637 0.0
C260 C 0.17095 0.43126 0.25331 0.0
C261 C 0.20911 0.4102 0.27468 0.0
H262 H 0.19982 0.47431 0.29576 0.0
H263 H 0.1547 0.43042 0.23906 0.0
C264 C 0.10805 0.56349 0.25054 0.0
N265 N 0.10165 0.61677 0.23699 0.0
C266 C 0.0999 0.57058 0.22466 0.0
C267 C 0.11255 0.5835 0.26965 0.0
C268 C 0.09685 0.59763 0.21817 0.0
C269 C 0.10933 0.61031 0.26238 0.0
C270 C 0.17397 0.48974 0.21705 0.0
C271 C 0.20095 0.49373 0.22323 0.0
C272 C 0.1667 0.47044 0.19809 0.0
C273 C 0.22029 0.47803 0.2105 0.0
C274 C 0.18664 0.45518 0.18577 0.0
N275 N 0.21279 0.45923 0.1922 0.0
C276 C 0.19394 0.56864 0.26954 0.0
C277 C 0.17055 0.57828 0.22931 0.0
C278 C 0.21071 0.5907 0.26561 0.0
N279 N 0.17406 0.56309 0.25171 0.0
C280 C 0.18672 0.60068 0.2247 0.0
C281 C 0.20702 0.60721 0.24309 0.0
H282 H 0.19693 0.55581 0.28675 0.0
H283 H 0.15531 0.5729 0.21489 0.0
C284 C 0.06875 0.48574 0.21054 0.0
N285 N 0.09273 0.49787 0.20638 0.0
C286 C 0.05107 0.48169 0.18918 0.0
C287 C 0.08268 0.50353 0.15975 0.0
C288 C 0.10004 0.5066 0.18159 0.0
C289 C 0.0577 0.49102 0.16337 0.0
H290 H 0.06341 0.47903 0.23048 0.0
H291 H 0.11923 0.51627 0.17887 0.0
O292 O 0.15841 0.51273 0.29167 0.0
O293 O 0.11179 0.47747 0.2671 0.0
O294 O 0.11152 0.53711 0.25714 0.0
O295 O 0.15473 0.50444 0.22975 0.0
H296 H 0.16703 0.47739 0.33059 0.0
H297 H 0.15396 0.56086 0.31356 0.0
H298 H 0.16997 0.48845 0.37897 0.0
H299 H 0.15664 0.57039 0.36233 0.0
H300 H 0.09302 0.39179 0.24251 0.0
H301 H 0.12748 0.4534 0.31178 0.0
H302 H 0.0946 0.44046 0.23298 0.0
H303 H 0.12539 0.4045 0.31995 0.0
H304 H 0.0827 0.4933 0.37971 0.0
H305 H 0.04573 0.55845 0.33646 0.0
H306 H 0.22994 0.43596 0.30288 0.0
H307 H 0.18419 0.39139 0.24435 0.0
H308 H 0.09612 0.55541 0.20967 0.0
H309 H 0.11841 0.57839 0.28988 0.0
H310 H 0.09072 0.6034 0.19816 0.0
H311 H 0.11291 0.62599 0.27693 0.0
H312 H 0.20683 0.50859 0.23793 0.0
H313 H 0.14585 0.46706 0.19321 0.0
H314 H 0.24125 0.48074 0.21521 0.0
H315 H 0.18132 0.44004 0.17118 0.0
H316 H 0.22629 0.59494 0.28013 0.0
H317 H 0.1837 0.61249 0.20672 0.0
H318 H 0.03254 0.47109 0.19287 0.0
H319 H 0.08866 0.51114 0.14029 0.0
Li320 Li 0.73546 0.6198 1.00448 0.0
Li321 Li 0.75713 0.65397 0.0338 0.0
Li322 Li 0.76347 0.65531 0.98458 0.0
Li323 Li 0.78583 0.62093 0.01133 0.0
C324 C 0.70867 0.66715 0.98937 0.0
N325 N 0.6666 0.68311 0.95715 0.0
C326 C 0.6936 0.68969 0.9962 0.0
C327 C 0.70233 0.65268 0.96621 0.0
C328 C 0.6724 0.69745 0.97963 0.0
C329 C 0.681 0.66109 0.95016 0.0
C330 C 0.75355 0.60782 0.06421 0.0
C331 C 0.77192 0.60058 0.10841 0.0
N332 N 0.74697 0.595 0.11777 0.0
C333 C 0.72815 0.60165 0.07418 0.0
C334 C 0.77567 0.60699 0.08137 0.0
C335 C 0.72521 0.59537 0.10136 0.0
C336 C 0.70853 0.57388 0.98553 0.0
N337 N 0.70525 0.59666 1.00007 0.0
C338 C 0.65933 0.58574 1.00824 0.0
C339 C 0.68124 0.60295 0.01126 0.0
C340 C 0.66212 0.56192 0.99342 0.0
C341 C 0.68709 0.55633 0.98167 0.0
H342 H 0.72785 0.56934 0.97692 0.0
H343 H 0.67918 0.62124 0.02271 0.0
C344 C 0.76852 0.6963 0.07051 0.0
N345 N 0.75146 0.67574 0.06517 0.0
C346 C 0.76426 0.71295 0.09267 0.0
C347 C 0.72462 0.68739 0.10325 0.0
C348 C 0.72962 0.67128 0.08084 0.0
C349 C 0.74198 0.7087 0.10932 0.0
H350 H 0.78522 0.70014 0.05729 0.0
H351 H 0.71581 0.65543 0.07572 0.0
C352 C 0.77568 0.61264 0.95259 0.0
N353 N 0.79729 0.60712 0.90184 0.0
C354 C 0.80124 0.62254 0.94706 0.0
C355 C 0.76102 0.60006 0.93227 0.0
C356 C 0.81184 0.61953 0.92129 0.0
C357 C 0.77233 0.59742 0.90675 0.0
C358 C 0.81642 0.66521 0.02104 0.0
C359 C 0.83522 0.67462 1.00249 0.0
C360 C 0.82424 0.6605 0.04756 0.0
C361 C 0.86159 0.67892 0.01079 0.0
C362 C 0.85079 0.66502 0.05507 0.0
N363 N 0.86877 0.67405 0.03668 0.0
C364 C 0.78175 0.70181 0.95817 0.0
C365 C 0.75648 0.67325 0.92994 0.0
C366 C 0.78637 0.71944 0.93687 0.0
N367 N 0.76732 0.67906 0.95433 0.0
C368 C 0.76031 0.6905 0.90816 0.0
C369 C 0.77545 0.714 0.91143 0.0
H370 H 0.78991 0.70619 0.9778 0.0
H371 H 0.74493 0.65518 0.92726 0.0
C372 C 0.81158 0.57409 0.02875 0.0
N373 N 0.81624 0.5975 0.01559 0.0
C374 C 0.83241 0.55603 0.03346 0.0
C375 C 0.8625 0.586 0.01036 0.0
C376 C 0.84106 0.60346 1.00603 0.0
C377 C 0.85838 0.56206 0.02455 0.0
H378 H 0.7916 0.56944 0.03565 0.0
H379 H 0.84442 0.62175 0.99507 0.0
O380 O 0.72923 0.65914 1.0056 0.0
O381 O 0.75679 0.61404 0.03765 0.0
O382 O 0.76475 0.61599 0.97753 0.0
O383 O 0.79052 0.66072 0.01326 0.0
H384 H 0.6982 0.70102 0.01416 0.0
H385 H 0.71374 0.63513 0.96068 0.0
H386 H 0.66054 0.71485 0.98468 0.0
H387 H 0.67589 0.65009 0.93216 0.0
H388 H 0.78885 0.59995 0.12193 0.0
H389 H 0.71086 0.60196 0.06114 0.0
H390 H 0.79557 0.61099 0.07386 0.0
H391 H 0.70563 0.59078 0.10939 0.0
H392 H 0.64049 0.59085 0.01767 0.0
H393 H 0.69003 0.53868 0.96941 0.0
H394 H 0.77794 0.72937 0.0964 0.0
H395 H 0.70735 0.68321 0.11569 0.0
H396 H 0.81249 0.63295 0.96235 0.0
H397 H 0.74102 0.59269 0.93605 0.0
H398 H 0.83156 0.62722 0.91672 0.0
H399 H 0.76121 0.58776 0.89082 0.0
H400 H 0.82967 0.67816 0.98181 0.0
H401 H 0.8099 0.65361 0.06224 0.0
H402 H 0.87637 0.68603 0.99662 0.0
H403 H 0.85709 0.66141 0.07553 0.0
H404 H 0.79872 0.73693 0.94026 0.0
H405 H 0.75137 0.68557 0.88897 0.0
H406 H 0.82817 0.53743 0.04381 0.0
H407 H 0.88218 0.59135 1.00301 0.0
Li408 Li 0.86646 0.03289 0.26252 0.0
Li409 Li 0.90203 1.0036 0.2843 0.0
Li410 Li 0.90042 0.01307 0.23362 0.0
Li411 Li 0.86753 0.98487 0.25474 0.0
C412 C 0.90928 0.06449 0.27132 0.0
N413 N 0.91404 0.11756 0.28627 0.0
C414 C 0.91639 0.07115 0.29764 0.0
C415 C 0.90495 0.08481 0.25253 0.0
C416 C 0.91862 0.0981 0.30482 0.0
C417 C 0.90733 0.11152 0.2605 0.0
C418 C 0.84457 0.98817 0.30206 0.0
C419 C 0.83356 0.95 0.32954 0.0
N420 N 0.80712 0.95446 0.32482 0.0
C421 C 0.81732 0.99249 0.29759 0.0
C422 C 0.85282 0.96684 0.31823 0.0
C423 C 0.79868 0.97517 0.30924 0.0
C424 C 0.82504 0.06983 0.24994 0.0
N425 N 0.84379 0.06336 0.26865 0.0
C426 C 0.83006 0.10007 0.29633 0.0
C427 C 0.84621 0.07766 0.29178 0.0
C428 C 0.81086 0.10748 0.27712 0.0
C429 C 0.80825 0.09189 0.25382 0.0
H430 H 0.82298 0.05778 0.23204 0.0
H431 H 0.86063 0.07161 0.30677 0.0
C432 C 0.95011 0.98993 0.31112 0.0
N433 N 0.92463 0.9987 0.31483 0.0
C434 C 0.96709 0.98618 0.33313 0.0
C435 C 0.93146 1.00108 0.36233 0.0
C436 C 0.91507 1.00427 0.33978 0.0
C437 C 0.95785 0.99195 0.35912 0.0
H438 H 0.95723 0.98582 0.29103 0.0
H439 H 0.89473 0.01129 0.34213 0.0
C440 C 0.85862 0.01836 0.20146 0.0
N441 N 0.85495 0.02791 0.14692 0.0
C442 C 0.85285 0.99739 0.18378 0.0
C443 C 0.86233 0.04422 0.19139 0.0
C444 C 0.8511 1.00262 0.15628 0.0
C445 C 0.86047 0.04862 0.16376 0.0
C446 C 0.91061 0.95248 0.24731 0.0
C447 C 0.90242 0.94246 0.22243 0.0
C448 C 0.92236 0.93529 0.26605 0.0
C449 C 0.90608 0.91533 0.21671 0.0
C450 C 0.92572 0.90828 0.25955 0.0
N451 N 0.91756 0.89894 0.23523 0.0
C452 C 0.94248 0.03876 0.20548 0.0
C453 C 0.92176 1.00415 0.18051 0.0
C454 C 0.96037 0.04375 0.18448 0.0
N455 N 0.9236 0.01925 0.20319 0.0
C456 C 0.93909 1.00861 0.15893 0.0
C457 C 0.95887 0.02846 0.16087 0.0
H458 H 0.94385 0.05034 0.22376 0.0
H459 H 0.907 0.98848 0.1791 0.0
C460 C 0.82114 0.95806 0.23637 0.0
N461 N 0.84415 0.9542 0.25043 0.0
C462 C 0.80334 0.93688 0.23212 0.0
C463 C 0.83264 0.9082 0.25776 0.0
C464 C 0.84977 0.93 0.26168 0.0
C465 C 0.80924 0.91138 0.24244 0.0
H466 H 0.81651 0.97771 0.22854 0.0
H467 H 0.86751 0.92755 0.2738 0.0
O468 O 0.90656 0.03822 0.26403 0.0
O469 O 0.86313 1.00438 0.29019 0.0
O470 O 0.86059 0.01364 0.22847 0.0
O471 O 0.90715 0.97897 0.25333 0.0
H472 H 0.91993 0.0557 0.31242 0.0
H473 H 0.89974 0.08001 0.23202 0.0
H474 H 0.92395 0.10355 0.32516 0.0
H475 H 0.90386 0.12745 0.2462 0.0
H476 H 0.83963 0.9333 0.34196 0.0
H477 H 0.81068 0.00888 0.285 0.0
H478 H 0.87388 0.96312 0.32166 0.0
H479 H 0.77751 0.97815 0.30582 0.0
H480 H 0.83226 0.11124 0.31484 0.0
H481 H 0.79354 0.09687 0.23864 0.0
H482 H 0.98735 0.9792 0.32987 0.0
H483 H 0.92352 1.00542 0.38209 0.0
H484 H 0.85012 0.9772 0.19112 0.0
H485 H 0.86663 0.0607 0.20476 0.0
H486 H 0.8468 0.98655 0.14237 0.0
H487 H 0.8634 0.06852 0.1557 0.0
H488 H 0.89283 0.95535 0.20794 0.0
H489 H 0.92861 0.94264 0.28549 0.0
H490 H 0.89966 0.90727 0.1976 0.0
H491 H 0.93472 0.89473 0.27388 0.0
H492 H 0.97516 0.05947 0.18663 0.0
H493 H 0.93739 0.99629 0.14111 0.0
H494 H 0.78504 0.94052 0.22107 0.0
H495 H 0.8378 0.88898 0.26639 0.0
Li496 Li 0.25301 0.15217 0.53508 0.0
Li497 Li 0.23341 0.1193 0.50583 0.0
Li498 Li 0.28131 0.11734 0.51527 0.0
Li499 Li 0.26181 0.15291 0.48429 0.0
C500 C 0.24872 0.11073 0.5678 0.0
N501 N 0.24354 0.10802 0.62298 0.0
C502 C 0.22362 0.10635 0.57939 0.0
C503 C 0.2712 0.11352 0.58427 0.0
C504 C 0.22141 0.10509 0.60733 0.0
C505 C 0.26816 0.11215 0.61211 0.0
C506 C 0.20186 0.1628 0.49836 0.0
C507 C 0.16776 0.17724 0.46731 0.0
N508 N 0.14863 0.17035 0.48547 0.0
C509 C 0.18189 0.15603 0.5168 0.0
C510 C 0.1948 0.1736 0.47346 0.0
C511 C 0.15508 0.15992 0.50986 0.0
C512 C 0.26747 0.19351 0.57177 0.0
N513 N 0.24814 0.17527 0.56575 0.0
C514 C 0.22202 0.18971 0.60336 0.0
C515 C 0.22548 0.17347 0.58078 0.0
C516 C 0.24185 0.20837 0.61029 0.0
C517 C 0.26468 0.21041 0.59401 0.0
H518 H 0.28505 0.19505 0.55925 0.0
H519 H 0.21002 0.15942 0.5753 0.0
C520 C 0.19938 0.07499 0.51607 0.0
N521 N 0.20248 0.09664 0.49978 0.0
C522 C 0.17764 0.05768 0.51267 0.0
C523 C 0.16305 0.08462 0.47519 0.0
C524 C 0.18507 0.1014 0.47931 0.0
C525 C 0.15895 0.06256 0.49219 0.0
H526 H 0.21393 0.07102 0.53162 0.0
H527 H 0.18844 0.11801 0.46585 0.0
C528 C 0.3142 0.16144 0.51745 0.0
N529 N 0.36874 0.16966 0.52157 0.0
C530 C 0.32909 0.16856 0.49478 0.0
C531 C 0.32702 0.15874 0.54225 0.0
C532 C 0.35665 0.17259 0.49728 0.0
C533 C 0.35461 0.1629 0.54391 0.0
C534 C 0.25436 0.09105 0.46677 0.0
C535 C 0.25972 0.06576 0.4775 0.0
C536 C 0.23869 0.09326 0.44362 0.0
C537 C 0.24929 0.04305 0.46487 0.0
C538 C 0.22864 0.07007 0.43157 0.0
N539 N 0.23409 0.04566 0.44236 0.0
C540 C 0.30864 0.07339 0.53851 0.0
C541 C 0.33489 0.09787 0.50751 0.0
C542 C 0.32981 0.05574 0.54328 0.0
N543 N 0.31158 0.09417 0.52111 0.0
C544 C 0.35678 0.08103 0.51209 0.0
C545 C 0.35451 0.05968 0.53035 0.0
H546 H 0.28964 0.07022 0.54839 0.0
H547 H 0.33652 0.11382 0.49299 0.0
C548 C 0.27194 0.20234 0.4586 0.0
N549 N 0.26821 0.17573 0.45409 0.0
C550 C 0.27657 0.2198 0.43712 0.0
C551 C 0.27307 0.18223 0.40674 0.0
C552 C 0.26899 0.16543 0.42882 0.0
C553 C 0.27687 0.20977 0.4108 0.0
H554 H 0.27137 0.20996 0.47892 0.0
H555 H 0.26654 0.14418 0.42578 0.0
O556 O 0.25125 0.11246 0.54049 0.0
O557 O 0.22821 0.15908 0.50466 0.0
O558 O 0.28721 0.15735 0.51537 0.0
O559 O 0.26378 0.11353 0.47936 0.0
H560 H 0.20594 0.10446 0.567 0.0
H561 H 0.29077 0.11673 0.57564 0.0
H562 H 0.20209 0.10192 0.61658 0.0
H563 H 0.28539 0.11438 0.62509 0.0
H564 H 0.16198 0.18549 0.44808 0.0
H565 H 0.18701 0.14735 0.536 0.0
H566 H 0.21004 0.17899 0.45899 0.0
H567 H 0.1394 0.15454 0.52382 0.0
H568 H 0.20386 0.18794 0.61511 0.0
H569 H 0.28034 0.2247 0.59863 0.0
H570 H 0.17536 0.04075 0.52607 0.0
H571 H 0.14962 0.08864 0.4586 0.0
H572 H 0.31954 0.17067 0.47541 0.0
H573 H 0.31579 0.15353 0.56004 0.0
H574 H 0.36843 0.17797 0.47988 0.0
H575 H 0.3648 0.16077 0.56296 0.0
H576 H 0.27152 0.06367 0.49556 0.0
H577 H 0.23375 0.11266 0.43538 0.0
H578 H 0.2532 0.02337 0.47302 0.0
H579 H 0.21632 0.0715 0.41376 0.0
H580 H 0.32664 0.03893 0.55662 0.0
H581 H 0.37531 0.08477 0.50147 0.0
H582 H 0.27948 0.24095 0.44096 0.0
H583 H 0.27353 0.17379 0.3867 0.0
Li584 Li 0.40318 0.50276 0.78683 0.0
Li585 Li 0.36775 0.53217 0.76441 0.0
Li586 Li 0.36901 0.48414 0.7574 0.0
Li587 Li 0.40233 0.51158 0.73592 0.0
C588 C 0.34398 0.48947 0.80365 0.0
N589 N 0.30319 0.459 0.82518 0.0
C590 C 0.31751 0.49399 0.79581 0.0
C591 C 0.34972 0.46965 0.82258 0.0
C592 C 0.29716 0.4783 0.80688 0.0
C593 C 0.3288 0.45441 0.83321 0.0
C594 C 0.41325 0.56322 0.77209 0.0
C595 C 0.41853 0.60925 0.75844 0.0
N596 N 0.42422 0.61608 0.78426 0.0
C597 C 0.41945 0.57063 0.79843 0.0
C598 C 0.41305 0.58261 0.75187 0.0
C599 C 0.42483 0.59748 0.8042 0.0
C600 C 0.45075 0.48796 0.81364 0.0
N601 N 0.42578 0.4981 0.81736 0.0
C602 C 0.43359 0.50226 0.86458 0.0
C603 C 0.41692 0.50514 0.84219 0.0
C604 C 0.45953 0.49191 0.86134 0.0
C605 C 0.46798 0.48451 0.8355 0.0
H606 H 0.45729 0.48261 0.79365 0.0
H607 H 0.39694 0.51314 0.84455 0.0
C608 C 0.32417 0.56662 0.75252 0.0
N609 N 0.34495 0.56278 0.76975 0.0
C610 C 0.30717 0.58863 0.75551 0.0
C611 C 0.33248 0.60188 0.79463 0.0
C612 C 0.34899 0.57956 0.79088 0.0
C613 C 0.31142 0.60682 0.7766 0.0
H614 H 0.32062 0.55245 0.73651 0.0
H615 H 0.36492 0.57558 0.80498 0.0
C616 C 0.41067 0.45148 0.74895 0.0
N617 N 0.41416 0.39819 0.73456 0.0
C618 C 0.40201 0.44313 0.72361 0.0
C619 C 0.42126 0.43279 0.76692 0.0
C620 C 0.40387 0.41608 0.71674 0.0
C621 C 0.42284 0.40592 0.75927 0.0
C622 C 0.35937 0.52115 0.70459 0.0
C623 C 0.35229 0.5032 0.68424 0.0
C624 C 0.36316 0.54817 0.69838 0.0
C625 C 0.3493 0.51258 0.65798 0.0
C626 C 0.35999 0.55678 0.67189 0.0
N627 N 0.35319 0.53895 0.6524 0.0
C628 C 0.32493 0.45496 0.73631 0.0
C629 C 0.35072 0.4304 0.76767 0.0
C630 C 0.308 0.43302 0.73232 0.0
N631 N 0.34612 0.45315 0.75335 0.0
C632 C 0.33426 0.408 0.76436 0.0
C633 C 0.31277 0.409 0.74619 0.0
H634 H 0.32105 0.47352 0.72589 0.0
H635 H 0.36707 0.42968 0.78184 0.0
C636 C 0.44742 0.53353 0.70974 0.0
N637 N 0.42586 0.51736 0.70581 0.0
C638 C 0.46529 0.5387 0.68876 0.0
C639 C 0.43874 0.51021 0.66005 0.0
C640 C 0.42157 0.50535 0.68166 0.0
C641 C 0.46087 0.52728 0.66335 0.0
H642 H 0.4509 0.54227 0.72928 0.0
H643 H 0.40488 0.49192 0.67906 0.0
O644 O 0.36421 0.50411 0.79249 0.0
O645 O 0.40784 0.53703 0.76612 0.0
O646 O 0.40863 0.4778 0.7562 0.0
O647 O 0.36262 0.5123 0.7304 0.0
H648 H 0.31281 0.50924 0.78109 0.0
H649 H 0.37016 0.46586 0.82872 0.0
H650 H 0.2766 0.48142 0.80087 0.0
H651 H 0.33294 0.43888 0.84776 0.0
H652 H 0.41834 0.62447 0.74299 0.0
H653 H 0.41986 0.55588 0.8143 0.0
H654 H 0.40893 0.57715 0.73128 0.0
H655 H 0.42946 0.60353 0.82453 0.0
H656 H 0.4262 0.50783 0.88425 0.0
H657 H 0.48785 0.4765 0.83221 0.0
H658 H 0.29064 0.59118 0.74168 0.0
H659 H 0.33627 0.61523 0.81134 0.0
H660 H 0.39343 0.45729 0.70964 0.0
H661 H 0.42793 0.43892 0.78666 0.0
H662 H 0.39703 0.40929 0.69728 0.0
H663 H 0.43088 0.3912 0.773 0.0
H664 H 0.34963 0.48214 0.68853 0.0
H665 H 0.36839 0.56237 0.71388 0.0
H666 H 0.344 0.49887 0.64202 0.0
H667 H 0.3629 0.57764 0.66682 0.0
H668 H 0.2915 0.43475 0.71832 0.0
H669 H 0.33814 0.3902 0.77615 0.0
H670 H 0.48257 0.55122 0.69255 0.0
H671 H 0.43462 0.50083 0.64088 0.0
Li672 Li 0.78475 0.40179 0.50525 0.0
Li673 Li 0.76408 0.36818 0.5351 0.0
Li674 Li 0.75525 0.36807 0.48481 0.0
Li675 Li 0.73472 0.40213 0.51446 0.0
C676 C 0.81581 0.35756 0.49923 0.0
N677 N 0.86935 0.34914 0.48818 0.0
C678 C 0.8333 0.34969 0.51967 0.0
C679 C 0.82547 0.36067 0.47309 0.0
C680 C 0.86032 0.34565 0.51371 0.0
C681 C 0.85262 0.35646 0.46793 0.0
C682 C 0.76819 0.41315 0.56644 0.0
C683 C 0.74995 0.41508 0.61124 0.0
N684 N 0.77415 0.42326 0.62069 0.0
C685 C 0.79278 0.42192 0.57654 0.0
C686 C 0.74651 0.41001 0.58388 0.0
C687 C 0.79543 0.4268 0.60404 0.0
C688 C 0.81396 0.44439 0.48156 0.0
N689 N 0.81561 0.42409 0.49969 0.0
C690 C 0.86061 0.4365 0.51057 0.0
C691 C 0.83828 0.42003 0.51425 0.0
C692 C 0.85961 0.45741 0.49173 0.0
C693 C 0.83583 0.46134 0.47722 0.0
H694 H 0.79559 0.44761 0.47059 0.0
H695 H 0.83894 0.40425 0.52906 0.0
C696 C 0.75269 0.32476 0.56992 0.0
N697 N 0.76937 0.34595 0.56613 0.0
C698 C 0.75576 0.30809 0.59226 0.0
C699 C 0.79351 0.33494 0.60617 0.0
C700 C 0.7897 0.35109 0.58357 0.0
C701 C 0.77628 0.3132 0.61086 0.0
H702 H 0.73701 0.32071 0.55553 0.0
H703 H 0.80323 0.36752 0.57977 0.0
C704 C 0.74972 0.41258 0.45336 0.0
N705 N 0.74032 0.42182 0.39945 0.0
C706 C 0.72453 0.42114 0.44471 0.0
C707 C 0.77025 0.40915 0.43463 0.0
C708 C 0.72014 0.4256 0.41737 0.0
C709 C 0.76507 0.4138 0.40746 0.0
C710 C 0.70357 0.35713 0.52088 0.0
C711 C 0.68614 0.34909 0.50045 0.0
C712 C 0.69406 0.35939 0.54716 0.0
C713 C 0.65933 0.34403 0.50657 0.0
C714 C 0.66712 0.35416 0.55248 0.0
N715 N 0.65044 0.3467 0.53223 0.0
C716 C 0.76668 0.32421 0.45053 0.0
C717 C 0.72924 0.34983 0.43677 0.0
C718 C 0.76317 0.30669 0.4289 0.0
N719 N 0.74985 0.34533 0.45406 0.0
C720 C 0.72498 0.3328 0.4149 0.0
C721 C 0.74194 0.31074 0.41088 0.0
H722 H 0.78266 0.32074 0.46473 0.0
H723 H 0.71583 0.36643 0.44013 0.0
C724 C 0.70757 0.44648 0.5368 0.0
N725 N 0.70429 0.425 0.52032 0.0
C726 C 0.68639 0.46412 0.5415 0.0
C727 C 0.65879 0.43754 0.51194 0.0
C728 C 0.6805 0.42034 0.50787 0.0
C729 C 0.66165 0.45992 0.52879 0.0
H730 H 0.72674 0.45005 0.54619 0.0
H731 H 0.67845 0.40356 0.49436 0.0
O732 O 0.78935 0.36193 0.50476 0.0
O733 O 0.7653 0.40796 0.5396 0.0
O734 O 0.75432 0.40792 0.48004 0.0
O735 O 0.72987 0.36232 0.51521 0.0
H736 H 0.82615 0.3469 0.53994 0.0
H737 H 0.81214 0.36615 0.45694 0.0
H738 H 0.87411 0.33975 0.52937 0.0
H739 H 0.86037 0.35894 0.44781 0.0
H740 H 0.73336 0.4126 0.62496 0.0
H741 H 0.80968 0.42479 0.56334 0.0
H742 H 0.72719 0.40392 0.57634 0.0
H743 H 0.81441 0.4334 0.61214 0.0
H744 H 0.87828 0.43322 0.52272 0.0
H745 H 0.83418 0.47729 0.46258 0.0
H746 H 0.74211 0.29147 0.59506 0.0
H747 H 0.81005 0.33914 0.61959 0.0
H748 H 0.70849 0.42419 0.45892 0.0
H749 H 0.79 0.40311 0.441 0.0
H750 H 0.70068 0.43206 0.41039 0.0
H751 H 0.78076 0.41109 0.39274 0.0
H752 H 0.69317 0.34693 0.48006 0.0
H753 H 0.70737 0.36488 0.56333 0.0
H754 H 0.64559 0.33799 0.4909 0.0
H755 H 0.65949 0.35595 0.57273 0.0
H756 H 0.7766 0.28983 0.42661 0.0
H757 H 0.7086 0.33688 0.40126 0.0
H758 H 0.68935 0.48082 0.55505 0.0
H759 H 0.64012 0.43368 0.50158 0.0
Li760 Li 0.65014 0.98641 0.76309 0.0
Li761 Li 0.61608 0.01533 0.78461 0.0
Li762 Li 0.61569 1.00692 0.73416 0.0
Li763 Li 0.64946 0.03658 0.75507 0.0
C764 C 0.60524 0.95478 0.76834 0.0
N765 N 0.59482 0.90102 0.77629 0.0
C766 C 0.59836 0.94539 0.79385 0.0
C767 C 0.60635 0.93691 0.74678 0.0
C768 C 0.59329 0.91812 0.79749 0.0
C769 C 0.60115 0.90979 0.75123 0.0
C770 C 0.66159 0.02233 0.81509 0.0
C771 C 0.66258 0.05379 0.85181 0.0
N772 N 0.67288 0.03445 0.86803 0.0
C773 C 0.67241 1.00283 0.83204 0.0
C774 C 0.65684 0.04807 0.82496 0.0
C775 C 0.6779 0.00933 0.85877 0.0
C776 C 0.69367 0.95221 0.75051 0.0
N777 N 0.67292 0.9558 0.76781 0.0
C778 C 0.68516 0.91621 0.79195 0.0
C779 C 0.66863 0.93852 0.78847 0.0
C780 C 0.70644 0.91174 0.77409 0.0
C781 C 0.71074 0.93021 0.75328 0.0
H782 H 0.69712 0.96653 0.73463 0.0
H783 H 0.65264 0.94225 0.80255 0.0
C784 C 0.5709 0.03486 0.81256 0.0
N785 N 0.59361 0.02017 0.81555 0.0
C786 C 0.55349 0.03859 0.83423 0.0
C787 C 0.58321 0.01217 0.86179 0.0
C788 C 0.59988 0.00871 0.83952 0.0
C789 C 0.55947 0.02705 0.85927 0.0
H790 H 0.56614 0.04349 0.79323 0.0
H791 H 0.6177 0.99666 0.84137 0.0
C792 C 0.66095 1.00068 0.70294 0.0
N793 N 0.67192 0.9883 0.65001 0.0
C794 C 0.67076 0.02036 0.68559 0.0
C795 C 0.65707 0.97463 0.69348 0.0
C796 C 0.6761 0.01372 0.65887 0.0
C797 C 0.66263 0.96879 0.66662 0.0
C798 C 0.60418 0.06722 0.74999 0.0
C799 C 0.59708 0.07599 0.72431 0.0
C800 C 0.60535 0.08556 0.77114 0.0
C801 C 0.59183 0.10314 0.7201 0.0
C802 C 0.59998 0.11255 0.76612 0.0
N803 N 0.59342 0.12071 0.74091 0.0
C804 C 0.57031 0.9862 0.70776 0.0
C805 C 0.59836 0.01168 0.67921 0.0
C806 C 0.55277 0.98097 0.68652 0.0
N807 N 0.59274 1.00108 0.70374 0.0
C808 C 0.58149 1.00675 0.65734 0.0
C809 C 0.55843 0.991 0.66077 0.0
H810 H 0.56592 0.9785 0.72757 0.0
H811 H 0.61584 0.02411 0.67658 0.0
C812 C 0.69239 0.07162 0.76722 0.0
N813 N 0.67165 0.06761 0.74998 0.0
C814 C 0.70925 0.09376 0.76419 0.0
C815 C 0.68349 0.10709 0.7254 0.0
C816 C 0.66716 0.08465 0.72915 0.0
C817 C 0.70479 0.11194 0.74317 0.0
H818 H 0.69602 0.05751 0.78324 0.0
H819 H 0.65117 0.08062 0.71513 0.0
O820 O 0.61043 0.98139 0.76444 0.0
O821 O 0.65589 0.01625 0.78892 0.0
O822 O 0.65542 1.00688 0.72912 0.0
O823 O 0.60955 0.04074 0.75444 0.0
H824 H 0.59719 0.95896 0.81072 0.0
H825 H 0.61101 0.94392 0.72679 0.0
H826 H 0.58816 0.91054 0.81718 0.0
H827 H 0.60206 0.89572 0.73474 0.0
H828 H 0.6589 0.07361 0.85974 0.0
H829 H 0.67643 0.98287 0.82468 0.0
H830 H 0.6489 0.06349 0.81201 0.0
H831 H 0.68614 0.9944 0.87216 0.0
H832 H 0.68162 0.90287 0.80872 0.0
H833 H 0.72704 0.92758 0.7392 0.0
H834 H 0.53534 0.05006 0.83131 0.0
H835 H 0.58897 1.00339 0.88081 0.0
H836 H 0.67412 0.04055 0.69262 0.0
H837 H 0.64998 0.95907 0.70675 0.0
H838 H 0.68356 0.02878 0.64517 0.0
H839 H 0.65962 0.94873 0.65901 0.0
H840 H 0.59587 0.06203 0.70776 0.0
H841 H 0.61023 0.07903 0.79124 0.0
H842 H 0.58652 0.11024 0.70028 0.0
H843 H 0.60095 0.12699 0.78228 0.0
H844 H 0.53478 0.96951 0.69035 0.0
H845 H 0.58654 0.01504 0.63789 0.0
H846 H 0.72555 0.0967 0.77824 0.0
H847 H 0.6798 0.12021 0.70849 0.0
Li848 Li 0.03404 0.26456 0.86803 0.0
Li849 Li 1.00437 0.28538 0.90191 0.0
Li850 Li 0.01358 0.23526 0.90236 0.0
Li851 Li 0.98394 0.25565 0.86825 0.0
C852 C 0.06507 0.26961 0.9137 0.0
N853 N 0.11862 0.27726 0.92526 0.0
C854 C 0.07439 0.29491 0.92121 0.0
C855 C 0.0829 0.2481 0.91254 0.0
C856 C 0.10156 0.2984 0.92684 0.0
C857 C 0.10992 0.25239 0.91833 0.0
C858 C 0.99782 0.31596 0.85656 0.0
C859 C 0.9664 0.35258 0.85554 0.0
N860 N 0.98596 0.36894 0.84595 0.0
C861 C 0.01754 0.33305 0.84644 0.0
C862 C 0.97198 0.32571 0.86092 0.0
C863 C 0.01117 0.3598 0.8413 0.0
C864 C 0.069 0.2531 0.82455 0.0
N865 N 0.06494 0.26993 0.84563 0.0
C866 C 0.10458 0.29449 0.83449 0.0
C867 C 0.08201 0.29057 0.85061 0.0
C868 C 0.10955 0.27711 0.81289 0.0
C869 C 0.09128 0.25633 0.80786 0.0
H870 H 0.05488 0.23719 0.82058 0.0
H871 H 0.07794 0.30427 0.86687 0.0
C872 C 0.98312 0.31331 0.9465 0.0
N873 N 0.99886 0.31613 0.92441 0.0
C874 C 0.97897 0.33491 0.96387 0.0
C875 C 1.00717 0.36205 0.93542 0.0
C876 C 0.01096 0.33987 0.91873 0.0
C877 C 0.99122 0.35968 0.95854 0.0
H878 H 0.974 0.29415 0.95082 0.0
H879 H 0.02381 0.34157 0.9014 0.0
C880 C 0.02086 0.20435 0.85687 0.0
N881 N 0.03426 0.15183 0.84577 0.0
C882 C 1.0015 0.18661 0.84715 0.0
C883 C 0.04712 0.19548 0.86055 0.0
C884 C 0.00864 0.16011 0.84176 0.0
C885 C 0.05348 0.16883 0.85494 0.0
C886 C 0.95292 0.25011 0.91323 0.0
C887 C 0.94444 0.2245 0.92068 0.0
C888 C 0.93425 0.27084 0.91126 0.0
C889 C 0.91727 0.21992 0.92548 0.0
C890 C 0.90726 0.26546 0.9162 0.0
N891 N 0.8994 0.24031 0.92312 0.0
C892 C 0.03414 0.20888 0.94805 0.0
C893 C 0.00875 0.18055 0.91967 0.0
C894 C 0.03905 0.18769 0.96571 0.0
N895 N 0.01944 0.20495 0.9254 0.0
C896 C 0.0133 0.15875 0.93669 0.0
C897 C 0.02881 0.1621 0.95998 0.0
H898 H 0.04189 0.2286 0.95254 0.0
H899 H 0.99646 0.178 0.90203 0.0
C900 C 0.94846 0.2674 0.82538 0.0
N901 N 0.95303 0.25006 0.84593 0.0
C902 C 0.92618 0.26414 0.8087 0.0
C903 C 0.91387 0.22496 0.83428 0.0
C904 C 0.93644 0.22891 0.8504 0.0
C905 C 0.90842 0.24282 0.8132 0.0
H906 H 0.96219 0.28373 0.82181 0.0
H907 H 0.94088 0.21488 0.86628 0.0
O908 O 0.03856 0.26587 0.90793 0.0
O909 O 1.00376 0.28976 0.86193 0.0
O910 O 0.01417 0.23031 0.86245 0.0
O911 O 0.97941 0.25491 0.90823 0.0
H912 H 0.06085 0.31173 0.92244 0.0
H913 H 0.07594 0.22827 0.90742 0.0
H914 H 0.10908 0.31793 0.93247 0.0
H915 H 0.12396 0.23594 0.91739 0.0
H916 H 0.94651 0.36042 0.85894 0.0
H917 H 0.03756 0.3258 0.8427 0.0
H918 H 0.95639 0.31265 0.86828 0.0
H919 H 0.02627 0.3733 0.83361 0.0
H920 H 0.11775 0.31121 0.83862 0.0
H921 H 0.09431 0.24257 0.79133 0.0
H922 H 0.96666 0.33214 0.98155 0.0
H923 H 0.01657 0.38087 0.93018 0.0
H924 H 0.98115 0.19319 0.84393 0.0
H925 H 0.06246 0.20905 0.8675 0.0
H926 H 0.99382 0.14613 0.83439 0.0
H927 H 0.07371 0.16168 0.8578 0.0
H928 H 0.95863 0.20828 0.92252 0.0
H929 H 0.94054 0.29089 0.9061 0.0
H930 H 0.9104 0.20015 0.93106 0.0
H931 H 0.89258 0.28129 0.91461 0.0
H932 H 0.05041 0.1914 0.98385 0.0
H933 H 1.00487 0.13942 0.93159 0.0
H934 H 0.92276 0.27828 0.79257 0.0
H935 H 0.90106 0.20786 0.838 0.0
Li936 Li 0.53307 0.76373 0.36754 0.0
Li937 Li 0.50313 0.78402 0.40148 0.0
Li938 Li 0.51259 0.73393 0.40108 0.0
Li939 Li 0.48304 0.75453 0.367 0.0
C940 C 0.56379 0.76986 0.41254 0.0
N941 N 0.61712 0.78074 0.42234 0.0
C942 C 0.57182 0.79574 0.41953 0.0
C943 C 0.5828 0.74941 0.41098 0.0
C944 C 0.5989 0.80087 0.42429 0.0
C945 C 0.60969 0.75534 0.41588 0.0
C946 C 0.49552 0.81461 0.35559 0.0
C947 C 0.4622 0.84945 0.35319 0.0
N948 N 0.48103 0.86666 0.34366 0.0
C949 C 0.51449 0.83256 0.34551 0.0
C950 C 0.46911 0.82303 0.35923 0.0
C951 C 0.50679 0.85882 0.33969 0.0
C952 C 0.56885 0.75204 0.32492 0.0
N953 N 0.56397 0.76955 0.34526 0.0
C954 C 0.60251 0.79537 0.33311 0.0
C955 C 0.58012 0.79111 0.3494 0.0
C956 C 0.60825 0.77738 0.31221 0.0
C957 C 0.59097 0.75558 0.30811 0.0
H958 H 0.55545 0.73539 0.32159 0.0
H959 H 0.57542 0.80526 0.36509 0.0
C960 C 0.4828 0.81014 0.44741 0.0
N961 N 0.49689 0.81433 0.42444 0.0
C962 C 0.47762 0.83132 0.46502 0.0
C963 C 0.50183 0.8608 0.43525 0.0
C964 C 0.5067 0.839 0.41831 0.0
C965 C 0.48693 0.85717 0.4589 0.0
H966 H 0.47573 0.79023 0.45219 0.0
H967 H 0.51855 0.84179 0.40042 0.0
C968 C 0.51971 0.70338 0.35584 0.0
N969 N 0.53212 0.6505 0.34539 0.0
C970 C 0.50031 0.68618 0.34526 0.0
C971 C 0.54551 0.69378 0.36075 0.0
C972 C 0.50695 0.65949 0.3402 0.0
C973 C 0.55136 0.66695 0.35544 0.0
C974 C 0.45177 0.74957 0.41265 0.0
C975 C 0.44237 0.72421 0.41985 0.0
C976 C 0.43406 0.7712 0.41197 0.0
C977 C 0.41524 0.72079 0.42567 0.0
C978 C 0.40707 0.76697 0.41794 0.0
N979 N 0.39829 0.74205 0.42457 0.0
C980 C 0.53349 0.70596 0.4458 0.0
C981 C 0.50602 0.67937 0.41767 0.0
C982 C 0.53757 0.68432 0.46313 0.0
N983 N 0.51797 0.70314 0.42354 0.0
C984 C 0.5098 0.65713 0.43428 0.0
C985 C 0.52553 0.65949 0.45756 0.0
H986 H 0.5425 0.72514 0.45026 0.0
H987 H 0.49334 0.67767 0.40019 0.0
C988 C 0.4489 0.76542 0.32289 0.0
N989 N 0.45251 0.74882 0.34423 0.0
C990 C 0.42729 0.76169 0.30546 0.0
C991 C 0.41356 0.72364 0.33202 0.0
C992 C 0.43546 0.7281 0.34894 0.0
C993 C 0.40938 0.74045 0.30981 0.0
H994 H 0.46294 0.78146 0.31923 0.0
H995 H 0.43912 0.71467 0.36552 0.0
O996 O 0.53739 0.76451 0.4076 0.0
O997 O 0.50275 0.78889 0.36159 0.0
O998 O 0.5135 0.72953 0.36113 0.0
O999 O 0.47827 0.75326 0.40683 0.0
H1000 H 0.55735 0.81175 0.42102 0.0
H1001 H 0.57686 0.72917 0.40617 0.0
H1002 H 0.60543 0.82086 0.42951 0.0
H1003 H 0.62464 0.73974 0.41461 0.0
H1004 H 0.44184 0.85624 0.35601 0.0
H1005 H 0.53495 0.82633 0.34232 0.0
H1006 H 0.45408 0.80927 0.36647 0.0
H1007 H 0.5213 0.87296 0.33203 0.0
H1008 H 0.61492 0.81283 0.33652 0.0
H1009 H 0.59461 0.74132 0.29214 0.0
H1010 H 0.46681 0.82738 0.48343 0.0
H1011 H 0.50956 0.88032 0.42983 0.0
H1012 H 0.48032 0.69333 0.34111 0.0
H1013 H 0.56085 0.70691 0.3685 0.0
H1014 H 0.4921 0.64592 0.33216 0.0
H1015 H 0.57122 0.65923 0.35926 0.0
H1016 H 0.45584 0.7073 0.42072 0.0
H1017 H 0.44109 0.79107 0.4071 0.0
H1018 H 0.40766 0.70122 0.43107 0.0
H1019 H 0.39313 0.78352 0.41739 0.0
H1020 H 0.54971 0.6871 0.48094 0.0
H1021 H 0.50059 0.63827 0.42882 0.0
H1022 H 0.42459 0.77535 0.28879 0.0
H1023 H 0.40036 0.70688 0.33592 0.0
Li1024 Li 0.01392 0.78468 0.61741 0.0
Li1025 Li 0.9854 0.76429 0.65244 0.0
Li1026 Li 0.03452 0.75616 0.65248 0.0
Li1027 Li 1.00583 0.73531 0.61885 0.0
C1028 C 0.03266 0.81071 0.66377 0.0
N1029 N 0.06873 0.85031 0.67764 0.0
C1030 C 0.02773 0.82712 0.68594 0.0
C1031 C 0.05592 0.81443 0.64864 0.0
C1032 C 0.04621 0.84703 0.69263 0.0
C1033 C 0.07391 0.83456 0.65598 0.0
C1034 C 0.95392 0.77049 0.60734 0.0
C1035 C 0.90813 0.75647 0.60126 0.0
N1036 N 0.90098 0.78233 0.59659 0.0
C1037 C 0.94619 0.79687 0.60211 0.0
C1038 C 0.93481 0.75007 0.60659 0.0
C1039 C 0.91931 0.80247 0.59686 0.0
C1040 C 0.02947 0.81068 0.56954 0.0
N1041 N 0.01881 0.81497 0.59427 0.0
C1042 C 0.01603 0.86205 0.58567 0.0
C1043 C 0.01194 0.84001 0.60253 0.0
C1044 C 0.02749 0.85826 0.5602 0.0
C1045 C 0.03406 0.83214 0.55211 0.0
H1046 H 0.03437 0.79053 0.56334 0.0
H1047 H 1.00332 0.84286 0.62225 0.0
C1048 C 0.94947 0.7529 0.69543 0.0
N1049 N 0.95491 0.77047 0.67527 0.0
C1050 C 0.92778 0.75721 0.71263 0.0
C1051 C 0.9178 0.79784 0.68839 0.0
C1052 C 0.9398 0.79285 0.67177 0.0
C1053 C 0.91162 0.77997 0.70931 0.0
H1054 H 0.96219 0.7357 0.69847 0.0
H1055 H 0.94496 0.80701 0.65623 0.0
C1056 C 0.06041 0.73777 0.60543 0.0
N1057 N 0.10099 0.70325 0.59055 0.0
C1058 C 0.06551 0.71475 0.62051 0.0
C1059 C 0.07607 0.74334 0.58287 0.0
C1060 C 0.08606 0.69751 0.61265 0.0
C1061 C 0.09647 0.72561 0.57565 0.0
C1062 C 0.99688 0.70483 0.66391 0.0
C1063 C 0.01459 0.68642 0.67537 0.0
C1064 C 0.97074 0.69692 0.65786 0.0
C1065 C 1.00594 0.66026 0.68021 0.0
C1066 C 0.96285 0.67058 0.66299 0.0
N1067 N 0.98047 0.65294 0.67394 0.0
C1068 C 0.06095 0.74132 0.70024 0.0
C1069 C 0.09014 0.75772 0.66653 0.0
C1070 C 0.08257 0.73645 0.71737 0.0
N1071 N 0.0651 0.75149 0.67526 0.0
C1072 C 0.11232 0.75335 0.68309 0.0
C1073 C 0.10869 0.74227 0.70874 0.0
H1074 H 0.04081 0.73679 0.70676 0.0
H1075 H 0.09294 0.76584 0.6466 0.0
C1076 C 0.98615 0.70847 0.57312 0.0
N1077 N 1.00024 0.70452 0.59616 0.0
C1078 C 0.98117 0.68715 0.5556 0.0
C1079 C 1.00557 0.65805 0.58557 0.0
C1080 C 0.01014 0.67993 0.60246 0.0
C1081 C 0.99074 0.66145 0.56185 0.0
H1082 H 0.97886 0.72827 0.56826 0.0
H1083 H 0.02165 0.67715 0.62056 0.0
O1084 O 0.01476 0.7911 0.65706 0.0
O1085 O 0.98016 0.76464 0.61251 0.0
O1086 O 0.04054 0.75507 0.61291 0.0
O1087 O 1.00508 0.73047 0.65873 0.0
H1088 H 0.0098 0.82446 0.69785 0.0
H1089 H 0.06007 0.80194 0.6314 0.0
H1090 H 0.04266 0.85989 0.70974 0.0
H1091 H 0.09199 0.83765 0.64445 0.0
H1092 H 0.89311 0.74087 0.60073 0.0
H1093 H 0.96074 0.81289 0.60239 0.0
H1094 H 0.94053 0.72946 0.60986 0.0
H1095 H 0.91301 0.82283 0.59302 0.0
H1096 H 0.01065 0.88188 0.5926 0.0
H1097 H 0.0424 0.82832 0.53242 0.0
H1098 H 0.92398 0.74308 0.72869 0.0
H1099 H 0.90569 0.81546 0.68479 0.0
H1100 H 0.05381 0.71031 0.63817 0.0
H1101 H 0.0726 0.7612 0.5711 0.0
H1102 H 0.09018 0.67961 0.62415 0.0
H1103 H 0.10873 0.72967 0.55822 0.0
H1104 H 0.03488 0.69218 0.68031 0.0
H1105 H 0.9567 0.71101 0.64939 0.0
H1106 H 0.01948 0.64577 0.68892 0.0
H1107 H 0.9427 0.66418 0.6583 0.0
H1108 H 0.0789 0.72838 0.73721 0.0
H1109 H 0.13216 0.75813 0.67575 0.0
H1110 H 0.97028 0.69086 0.53717 0.0
H1111 H 0.01338 0.63859 0.59112 0.0
Li1112 Li 0.51511 0.28428 0.11834 0.0
Li1113 Li 0.48586 0.26387 0.15255 0.0
Li1114 Li 0.53595 0.25498 0.15151 0.0
Li1115 Li 0.50595 0.23438 0.11774 0.0
C1116 C 0.52114 0.31586 0.16126 0.0
N1117 N 0.53067 0.37012 0.16645 0.0
C1118 C 0.50062 0.33303 0.16943 0.0
C1119 C 0.54661 0.32624 0.15614 0.0
C1120 C 0.50582 0.36041 0.17185 0.0
C1121 C 0.551 0.35374 0.15875 0.0
C1122 C 0.45407 0.26516 0.10643 0.0
C1123 C 0.41189 0.24221 0.10137 0.0
N1124 N 0.4003 0.26552 0.09339 0.0
C1125 C 0.44183 0.28881 0.09783 0.0
C1126 C 0.43906 0.2416 0.10794 0.0
C1127 C 0.4146 0.28862 0.09148 0.0
C1128 C 0.53949 0.31498 0.07705 0.0
N1129 N 0.52002 0.31531 0.09612 0.0
C1130 C 0.50727 0.35969 0.08324 0.0
C1131 C 0.50386 0.33699 0.0993 0.0
C1132 C 0.52739 0.36001 0.06356 0.0
C1133 C 0.54351 0.3372 0.06045 0.0
H1134 H 0.55185 0.2974 0.07462 0.0
H1135 H 0.48819 0.33663 0.11424 0.0
C1136 C 0.45306 0.25433 0.19814 0.0
N1137 N 0.45551 0.26947 0.17556 0.0
C1138 C 0.43153 0.25824 0.21564 0.0
C1139 C 0.41568 0.29367 0.18672 0.0
C1140 C 0.43742 0.28896 0.16969 0.0
C1141 C 0.41261 0.27826 0.21011 0.0
H1142 H 0.468 0.23938 0.20275 0.0
H1143 H 0.44008 0.30119 0.15202 0.0
C1144 C 0.56639 0.24724 0.1074 0.0
N1145 N 0.61933 0.23339 0.09952 0.0
C1146 C 0.57308 0.22129 0.09935 0.0
C1147 C 0.5866 0.26625 0.11108 0.0
C1148 C 0.59997 0.21465 0.09554 0.0
C1149 C 0.61325 0.25882 0.10712 0.0
C1150 C 0.49844 0.20428 0.16503 0.0
C1151 C 0.51768 0.18626 0.17441 0.0
C1152 C 0.47163 0.1964 0.16377 0.0
C1153 C 0.50985 0.16044 0.18183 0.0
C1154 C 0.46459 0.17042 0.17138 0.0
N1155 N 0.48369 0.15311 0.18014 0.0
C1156 C 0.57157 0.26723 0.1939 0.0
C1157 C 0.58299 0.22767 0.17032 0.0
C1158 C 0.59322 0.26373 0.21133 0.0
N1159 N 0.56685 0.24933 0.17387 0.0
C1160 C 0.60497 0.22347 0.18721 0.0
C1161 C 0.61013 0.24149 0.20822 0.0
H1162 H 0.55835 0.28414 0.19655 0.0
H1163 H 0.57859 0.21339 0.15465 0.0
C1164 C 0.48723 0.20868 0.07086 0.0
N1165 N 0.49976 0.20408 0.09467 0.0
C1166 C 0.48214 0.18759 0.05311 0.0
C1167 C 0.50347 0.1574 0.08434 0.0
C1168 C 0.50816 0.17907 0.10149 0.0
C1169 C 0.49009 0.16147 0.05987 0.0
H1170 H 0.48128 0.22882 0.06559 0.0
H1171 H 0.51884 0.17593 0.12005 0.0
O1172 O 0.51633 0.28905 0.15832 0.0
O1173 O 0.48072 0.26502 0.1128 0.0
O1174 O 0.54017 0.25405 0.1114 0.0
O1175 O 0.5058 0.22962 0.1576 0.0
H1176 H 0.48086 0.32533 0.1737 0.0
H1177 H 0.56279 0.3132 0.15017 0.0
H1178 H 0.49007 0.37395 0.17798 0.0
H1179 H 0.57057 0.36205 0.15467 0.0
H1180 H 0.40003 0.22412 0.10253 0.0
H1181 H 0.45318 0.30717 0.09624 0.0
H1182 H 0.44832 0.22297 0.11381 0.0
H1183 H 0.40483 0.30684 0.08499 0.0
H1184 H 0.49403 0.37665 0.08589 0.0
H1185 H 0.5592 0.33665 0.04545 0.0
H1186 H 0.42996 0.24609 0.23359 0.0
H1187 H 0.4014 0.30915 0.18162 0.0
H1188 H 0.55772 0.20639 0.0962 0.0
H1189 H 0.58177 0.2865 0.11694 0.0
H1190 H 0.60544 0.1946 0.08946 0.0
H1191 H 0.6291 0.27329 0.11005 0.0
H1192 H 0.53847 0.19206 0.17579 0.0
H1193 H 0.45636 0.21027 0.15731 0.0
H1194 H 0.52457 0.14624 0.18894 0.0
H1195 H 0.44391 0.16405 0.17043 0.0
H1196 H 0.59672 0.27828 0.22708 0.0
H1197 H 0.61744 0.20599 0.18426 0.0
H1198 H 0.47243 0.19177 0.03412 0.0
H1199 H 0.51011 0.13761 0.09024 0.0
C1200 C 0.23638 0.747 0.86608 0.0
C1201 C 0.23178 0.75692 0.84003 0.0
C1202 C 0.24012 0.76438 0.88791 0.0
C1203 C 0.23939 0.79236 0.88456 0.0
H1204 H 0.23662 0.72562 0.86972 0.0
H1205 H 0.24316 0.75582 0.90767 0.0
S1206 S 0.23052 0.82849 0.82008 0.0
N1207 N 0.2284 0.79653 0.81187 0.0
N1208 N 0.23538 0.82915 0.85288 0.0
C1209 C 0.23532 0.80254 0.85854 0.0
C1210 C 0.23154 0.78485 0.83631 0.0
C1211 C 0.9985 0.53721 0.40197 0.0
C1212 C 1.00811 0.54054 0.42832 0.0
C1213 C 0.01611 0.53312 0.38041 0.0
C1214 C 0.04395 0.53184 0.38445 0.0
H1215 H 0.97721 0.53797 0.39796 0.0
H1216 H 1.00784 0.53056 0.36046 0.0
S1217 S 0.07926 0.53934 0.44955 0.0
N1218 N 0.04725 0.54225 0.45726 0.0
N1219 N 0.08033 0.53461 0.41674 0.0
C1220 C 0.05381 0.53514 0.41069 0.0
C1221 C 0.03591 0.53954 0.43261 0.0
C1222 C 0.79164 0.73893 0.84089 0.0
C1223 C 0.78928 0.76693 0.8432 0.0
C1224 C 0.7871 0.72205 0.86297 0.0
C1225 C 0.78007 0.73244 0.88831 0.0
H1226 H 0.79669 0.72995 0.82176 0.0
H1227 H 0.78933 0.70065 0.86019 0.0
S1228 S 0.77165 0.80437 0.90513 0.0
N1229 N 0.78026 0.80433 0.87314 0.0
N1230 N 0.77064 0.77261 0.91424 0.0
C1231 C 0.77771 0.76041 0.8909 0.0
C1232 C 0.78252 0.77761 0.86848 0.0
C1233 C 1.00584 0.95977 0.40891 0.0
C1234 C 0.01068 0.98042 0.42751 0.0
C1235 C 0.98883 0.96369 0.38681 0.0
C1236 C 0.9757 0.98828 0.38272 0.0
H1237 H 0.01561 0.94055 0.41124 0.0
H1238 H 0.98577 0.94729 0.3729 0.0
S1239 S 0.98134 0.04861 0.4258 0.0
N1240 N 1.00076 0.02625 0.44054 0.0
N1241 N 0.96876 0.03359 0.39907 0.0
C1242 C 0.98018 0.00901 0.4013 0.0
C1243 C 0.9977 1.0051 0.42364 0.0
C1244 C 0.23723 0.27076 0.65391 0.0
C1245 C 0.23136 0.26037 0.67955 0.0
C1246 C 0.24085 0.25383 0.63169 0.0
C1247 C 0.23855 0.22588 0.63419 0.0
H1248 H 0.23864 0.29219 0.65088 0.0
H1249 H 0.24504 0.26272 0.6123 0.0
S1250 S 0.22586 0.18832 0.69713 0.0
N1251 N 0.22527 0.22008 0.70634 0.0
N1252 N 0.23152 0.18843 0.66447 0.0
C1253 C 0.23309 0.21518 0.65971 0.0
C1254 C 0.22962 0.23236 0.68238 0.0
C1255 C 0.50544 0.51574 0.60236 0.0
C1256 C 0.51472 0.54159 0.59602 0.0
C1257 C 0.48815 0.51133 0.62411 0.0
C1258 C 0.47943 0.53258 0.6405 0.0
H1259 H 0.51129 0.49876 0.59017 0.0
H1260 H 0.4817 0.49103 0.62821 0.0
S1261 S 0.49815 0.60412 0.63273 0.0
N1262 N 0.51448 0.58869 0.60844 0.0
N1263 N 0.48123 0.58057 0.64864 0.0
C1264 C 0.48863 0.55855 0.63445 0.0
C1265 C 0.50637 0.56301 0.61238 0.0
C1266 C 0.78359 0.25041 0.65356 0.0
C1267 C 0.78737 0.26063 0.67962 0.0
C1268 C 0.77999 0.26751 0.63151 0.0
C1269 C 0.78001 0.29553 0.63464 0.0
H1270 H 0.78374 0.22899 0.65013 0.0
H1271 H 0.77751 0.25872 0.61178 0.0
S1272 S 0.78691 0.33235 0.69898 0.0
N1273 N 0.7895 0.30051 0.70751 0.0
N1274 N 0.78269 0.33266 0.6661 0.0
C1275 C 0.78341 0.30601 0.66065 0.0
C1276 C 0.78709 0.28858 0.6831 0.0
C1277 C 0.51476 1.0023 0.59904 0.0
C1278 C 0.50405 0.97673 0.59384 0.0
C1279 C 0.53244 1.00666 0.62051 0.0
C1280 C 0.5401 0.98566 0.63774 0.0
H1281 H 0.50953 0.0191 0.58633 0.0
H1282 H 0.53987 0.02676 0.62386 0.0
S1283 S 0.51799 0.91485 0.6327 0.0
N1284 N 0.50225 0.93014 0.60792 0.0
N1285 N 0.53614 0.93813 0.64763 0.0
C1286 C 0.52972 0.95994 0.63263 0.0
C1287 C 0.51162 0.95552 0.61084 0.0
C1288 C 0.8655 0.23594 0.75041 0.0
C1289 C 0.83964 0.23166 0.76077 0.0
C1290 C 0.88757 0.23956 0.76748 0.0
C1291 C 0.88467 0.23898 0.79558 0.0
H1292 H 0.86878 0.23618 0.72892 0.0
H1293 H 0.90713 0.2425 0.75858 0.0
S1294 S 0.82098 0.23056 0.83288 0.0
N1295 N 0.81222 0.2285 0.80097 0.0
N1296 N 0.85371 0.23513 0.833 0.0
C1297 C 0.8589 0.23501 0.80622 0.0
C1298 C 0.83641 0.23139 0.78884 0.0
C1299 C 0.49877 0.9191 0.50198 0.0
C1300 C 0.47348 0.9241 0.51337 0.0
C1301 C 0.50286 0.89759 0.48432 0.0
C1302 C 0.48186 0.8801 0.47738 0.0
H1303 H 0.51555 0.93205 0.5066 0.0
H1304 H 0.52276 0.89445 0.4763 0.0
S1305 S 0.41174 0.88444 0.50159 0.0
N1306 N 0.42716 0.90952 0.51667 0.0
N1307 N 0.43464 0.86963 0.48288 0.0
C1308 C 0.45643 0.88494 0.48853 0.0
C1309 C 0.45228 0.90681 0.50658 0.0
C1310 C 0.15253 0.28481 0.75023 0.0
C1311 C 0.17845 0.28852 0.7607 0.0
C1312 C 0.13043 0.28106 0.76721 0.0
C1313 C 0.13335 0.28091 0.79533 0.0
H1314 H 0.14924 0.28515 0.72874 0.0
H1315 H 0.11082 0.27863 0.75825 0.0
S1316 S 0.1972 0.28747 0.8328 0.0
N1317 N 0.20594 0.29026 0.80094 0.0
N1318 N 0.16441 0.28333 0.83281 0.0
C1319 C 0.15919 0.28423 0.80604 0.0
C1320 C 0.18171 0.288 0.78876 0.0
C1321 C 0.55961 0.6088 0.50338 0.0
C1322 C 0.5384 0.59224 0.51182 0.0
C1323 C 0.55527 0.63036 0.48586 0.0
C1324 C 0.52954 0.63626 0.47597 0.0
H1325 H 0.57973 0.6053 0.51068 0.0
H1326 H 0.57227 0.64242 0.47989 0.0
S1327 S 0.4672 0.5989 0.49164 0.0
N1328 N 0.49078 0.58281 0.50832 0.0
N1329 N 0.48244 0.62388 0.47622 0.0
C1330 C 0.50814 0.61981 0.48417 0.0
C1331 C 0.5126 0.59775 0.50191 0.0
C1332 C 0.8489 0.76804 0.75127 0.0
C1333 C 0.84368 0.79337 0.76244 0.0
C1334 C 0.87084 0.76392 0.73414 0.0
C1335 C 0.8885 0.78493 0.72761 0.0
H1336 H 0.83568 0.75137 0.75548 0.0
H1337 H 0.87376 0.74416 0.72566 0.0
S1338 S 0.885 0.85446 0.75376 0.0
N1339 N 0.85873 0.83939 0.76703 0.0
N1340 N 0.90014 0.83162 0.73523 0.0
C1341 C 0.88376 0.81024 0.73912 0.0
C1342 C 0.86134 0.81446 0.75643 0.0
C1343 C 0.01542 0.92138 0.51906 0.0
C1344 C 0.04041 0.92603 0.50686 0.0
C1345 C 0.01149 0.89961 0.53647 0.0
C1346 C 0.03228 0.88144 0.54204 0.0
H1347 H 0.99885 0.93486 0.51533 0.0
H1348 H 0.99192 0.89679 0.54538 0.0
S1349 S 0.10144 0.8846 0.51515 0.0
N1350 N 0.0862 0.91058 0.50149 0.0
N1351 N 0.07883 0.86974 0.53421 0.0
C1352 C 0.05733 0.88583 0.52993 0.0
C1353 C 0.06139 0.90811 0.51239 0.0
C1354 C 0.17284 0.75287 0.74855 0.0
C1355 C 0.17703 0.72781 0.76079 0.0
C1356 C 0.15088 0.7573 0.73154 0.0
C1357 C 0.13205 0.73695 0.72645 0.0
H1358 H 0.18679 0.76913 0.75199 0.0
H1359 H 0.1484 0.77691 0.72259 0.0
S1360 S 0.13385 0.66781 0.75361 0.0
N1361 N 0.16048 0.68244 0.7667 0.0
N1362 N 0.11926 0.69072 0.7347 0.0
C1363 C 0.136 0.71182 0.73857 0.0
C1364 C 0.15848 0.70725 0.7557 0.0
C1365 C 1.00316 0.59954 0.51899 0.0
C1366 C 0.97775 0.59383 0.50819 0.0
C1367 C 1.00712 0.6213 0.53638 0.0
C1368 C 0.98587 0.63836 0.54353 0.0
H1369 H 0.02013 0.58694 0.51415 0.0
H1370 H 0.02708 0.62497 0.54404 0.0
S1371 S 0.91541 0.63218 0.52075 0.0
N1372 N 0.93105 0.60726 0.50567 0.0
N1373 N 0.93836 0.64775 0.5388 0.0
C1374 C 0.96034 0.63287 0.53291 0.0
C1375 C 0.95631 0.61069 0.51521 0.0
C1376 C 0.7664 0.84944 0.25488 0.0
C1377 C 0.75592 0.84357 0.2293 0.0
C1378 C 0.78363 0.87128 0.25893 0.0
C1379 C 0.79098 0.88826 0.23759 0.0
H1380 H 0.76144 0.83689 0.27191 0.0
H1381 H 0.79105 0.87506 0.27902 0.0
S1382 S 0.76894 0.88172 0.16668 0.0
N1383 N 0.75378 0.85687 0.18238 0.0
N1384 N 0.78672 0.89738 0.18981 0.0
C1385 C 0.78064 0.8826 0.2119 0.0
C1386 C 0.76306 0.86039 0.20779 0.0
C1387 C 0.74834 0.15045 0.28356 0.0
C1388 C 0.75861 0.17599 0.28978 0.0
C1389 C 0.76534 0.12847 0.27941 0.0
C1390 C 0.79329 0.13109 0.28153 0.0
H1391 H 0.72693 0.14731 0.2822 0.0
H1392 H 0.75652 0.10918 0.27486 0.0
S1393 S 0.83056 0.1938 0.29536 0.0
N1394 N 0.79877 0.20279 0.2963 0.0
N1395 N 0.8306 0.16135 0.28903 0.0
C1396 C 0.80388 0.15647 0.28751 0.0
C1397 C 0.7866 0.17892 0.29151 0.0
C1398 C 0.40761 1.00395 0.95886 0.0
C1399 C 0.42414 0.01201 0.98029 0.0
C1400 C 0.38602 0.98642 0.96293 0.0
C1401 C 0.38013 0.97611 0.98858 0.0
H1402 H 0.41121 0.01148 0.93879 0.0
H1403 H 0.37398 0.98069 0.94577 0.0
S1404 S 0.4173 0.9909 0.05143 0.0
N1405 N 0.43341 1.00791 0.02806 0.0
N1406 N 0.39238 0.97572 0.03585 0.0
C1407 C 0.39649 0.98404 0.0102 0.0
C1408 C 0.41852 1.00182 1.00604 0.0
C1409 C 0.27213 0.36825 0.28329 0.0
C1410 C 0.26208 0.34232 0.28796 0.0
C1411 C 0.2549 0.39 0.27895 0.0
C1412 C 0.22693 0.38668 0.27892 0.0
H1413 H 0.29351 0.37186 0.28339 0.0
H1414 H 0.26358 0.40956 0.27544 0.0
S1415 S 0.19042 0.32285 0.28977 0.0
N1416 N 0.22232 0.31447 0.29167 0.0
N1417 N 0.18996 0.35543 0.28414 0.0
C1418 C 0.2166 0.36084 0.28339 0.0
C1419 C 0.23415 0.33868 0.28782 0.0
C1420 C 0.11754 0.99898 0.48419 0.0
C1421 C 0.09137 0.00876 0.48051 0.0
C1422 C 0.13922 0.01647 0.48801 0.0
C1423 C 0.13559 0.04443 0.48832 0.0
H1424 H 0.12136 0.97764 0.4837 0.0
H1425 H 0.15905 1.00804 0.49034 0.0
S1426 S 0.07076 0.0801 0.48202 0.0
N1427 N 0.06286 0.04814 0.479 0.0
N1428 N 0.10353 0.08097 0.48621 0.0
C1429 C 0.10946 0.05444 0.48512 0.0
C1430 C 0.0874 0.03663 0.48122 0.0
C1431 C 0.76804 0.1539 0.73626 0.0
C1432 C 0.75811 0.17994 0.73215 0.0
C1433 C 0.75069 0.13208 0.73986 0.0
C1434 C 0.72272 0.13545 0.73946 0.0
H1435 H 0.78941 0.15027 0.73633 0.0
H1436 H 0.75925 0.11235 0.74261 0.0
S1437 S 0.68658 0.19984 0.73167 0.0
N1438 N 0.71851 0.20807 0.72941 0.0
N1439 N 0.68594 0.16708 0.73608 0.0
C1440 C 0.71253 0.16143 0.73574 0.0
C1441 C 0.7302 0.18365 0.73211 0.0
C1442 C 0.4148 0.01465 0.51743 0.0
C1443 C 0.42165 1.00528 0.54321 0.0
C1444 C 0.39321 0.03219 0.51352 0.0
C1445 C 0.37756 0.04125 0.53522 0.0
H1446 H 0.42634 1.00855 0.50008 0.0
H1447 H 0.38859 0.03846 0.49322 0.0
S1448 S 0.38716 0.02288 0.60685 0.0
N1449 N 0.41056 1.00598 0.59077 0.0
N1450 N 0.371 0.04001 0.58361 0.0
C1451 C 0.38432 0.03221 0.56115 0.0
C1452 C 0.40611 0.01407 0.56509 0.0
C1453 C 0.59157 0.48623 0.54325 0.0
C1454 C 0.59464 0.51418 0.54132 0.0
C1455 C 0.61325 0.46886 0.53904 0.0
C1456 C 0.63893 0.47877 0.53297 0.0
H1457 H 0.57215 0.47767 0.54775 0.0
H1458 H 0.60993 0.4475 0.54083 0.0
S1459 S 0.65765 0.55034 0.52574 0.0
N1460 N 0.6255 0.55097 0.53331 0.0
N1461 N 0.66605 0.51838 0.52482 0.0
C1462 C 0.64228 0.50668 0.53101 0.0
C1463 C 0.6202 0.52435 0.53527 0.0
C1464 C 0.75502 0.26684 0.3497 0.0
C1465 C 0.72964 0.256 0.34399 0.0
C1466 C 0.75885 0.28444 0.37136 0.0
C1467 C 0.73744 0.2919 0.38814 0.0
H1468 H 0.77199 0.26202 0.33706 0.0
H1469 H 0.77866 0.29259 0.37477 0.0
S1470 S 0.6676 0.26706 0.3834 0.0
N1471 N 0.68316 0.25261 0.35801 0.0
N1472 N 0.69033 0.28569 0.39859 0.0
C1473 C 0.71208 0.28079 0.38296 0.0
C1474 C 0.70819 0.26286 0.36096 0.0
C1475 C 0.51283 0.06014 0.90991 0.0
C1476 C 0.50532 0.03887 0.92687 0.0
C1477 C 0.53027 0.05613 0.8882 0.0
C1478 C 0.54102 0.03069 0.88254 0.0
H1479 H 0.50491 0.08005 0.91325 0.0
H1480 H 0.53555 0.07319 0.87586 0.0
S1481 S 0.52782 0.96829 0.92087 0.0
N1482 N 0.51051 0.99149 0.93684 0.0
N1483 N 0.54245 0.98375 0.89552 0.0
C1484 C 0.53367 0.00922 0.89934 0.0
C1485 C 0.51601 0.01334 0.92154 0.0
C1486 C 0.30925 0.26019 0.36367 0.0
C1487 C 0.29 0.26304 0.34325 0.0
C1488 C 0.30475 0.24314 0.38566 0.0
C1489 C 0.2811 0.22797 0.38765 0.0
H1490 H 0.32775 0.27147 0.36279 0.0
H1491 H 0.31998 0.24157 0.40107 0.0
S1492 S 0.22466 0.22806 0.33933 0.0
N1493 N 0.24647 0.24932 0.32641 0.0
N1494 N 0.23826 0.21692 0.36743 0.0
C1495 C 0.26183 0.2305 0.36726 0.0
C1496 C 0.26621 0.24815 0.34515 0.0
C1497 C 0.50722 0.46019 0.91173 0.0
C1498 C 0.51291 0.48136 0.92949 0.0
C1499 C 0.4901 0.46382 0.88966 0.0
C1500 C 0.4777 0.48864 0.88477 0.0
H1501 H 0.51629 0.44073 0.91477 0.0
H1502 H 0.48629 0.44698 0.87649 0.0
S1503 S 0.48586 0.55038 0.92535 0.0
N1504 N 0.50469 0.52798 0.94077 0.0
N1505 N 0.47251 0.53478 0.89935 0.0
C1506 C 0.48314 0.50993 0.90243 0.0
C1507 C 0.50078 0.50631 0.92473 0.0
C1508 C 0.75354 0.75053 0.17229 0.0
C1509 C 0.72821 0.76176 0.17732 0.0
C1510 C 0.75777 0.73331 0.15041 0.0
C1511 C 0.73684 0.72667 0.13266 0.0
H1512 H 0.77019 0.75491 0.18551 0.0
H1513 H 0.77755 0.72496 0.14749 0.0
S1514 S 0.66727 0.75249 0.13577 0.0
N1515 N 0.68224 0.76607 0.16202 0.0
N1516 N 0.69017 0.73387 0.12087 0.0
C1517 C 0.71148 0.738 0.13732 0.0
C1518 C 0.70717 0.75549 0.15963 0.0
C1519 C 0.98588 0.04102 0.09052 0.0
C1520 C 0.01378 0.0411 0.09435 0.0
C1521 C 0.96827 0.03683 0.11209 0.0
C1522 C 0.97791 0.03298 0.13837 0.0
H1523 H 0.9776 0.04386 0.07061 0.0
H1524 H 0.94694 0.03683 0.10822 0.0
S1525 S 0.0492 0.03176 0.15915 0.0
N1526 N 0.05021 0.03726 0.12647 0.0
N1527 N 0.01717 0.02937 0.16696 0.0
C1528 C 1.00576 0.03321 0.1425 0.0
C1529 C 0.02367 0.03723 0.12051 0.0
C1530 C 0.26363 0.76601 0.16982 0.0
C1531 C 0.2889 0.75474 0.17511 0.0
C1532 C 0.25971 0.78347 0.14808 0.0
C1533 C 0.28092 0.79035 0.1308 0.0
H1534 H 0.24682 0.76161 0.18284 0.0
H1535 H 0.24 0.79195 0.14499 0.0
S1536 S 0.35035 0.76428 0.13441 0.0
N1537 N 0.33502 0.75037 0.16025 0.0
N1538 N 0.32769 0.78318 0.11948 0.0
C1539 C 0.30616 0.77884 0.13558 0.0
C1540 C 0.31014 0.76105 0.15769 0.0
C1541 C 0.03168 0.47561 0.09301 0.0
C1542 C 1.00386 0.47955 0.09527 0.0
C1543 C 0.04882 0.47938 0.11502 0.0
C1544 C 0.03895 0.48741 0.14026 0.0
H1545 H 0.04038 0.46978 0.07398 0.0
H1546 H 0.06999 0.47569 0.11225 0.0
S1547 S 0.96769 0.50061 0.15691 0.0
N1548 N 0.96715 0.49128 0.12513 0.0
N1549 N 0.99946 0.49997 0.16593 0.0
C1550 C 0.01118 0.49165 0.14276 0.0
C1551 C 0.99367 0.4874 0.12044 0.0
C1552 C 0.3387 0.72755 0.28416 0.0
C1553 C 0.34197 0.72724 0.25609 0.0
C1554 C 0.36057 0.7317 0.30139 0.0
C1555 C 0.38655 0.73571 0.29119 0.0
H1556 H 0.319 0.725 0.29287 0.0
H1557 H 0.35706 0.73219 0.32284 0.0
S1558 S 0.40621 0.73406 0.21937 0.0
N1559 N 0.37349 0.72951 0.21899 0.0
N1560 N 0.41451 0.73732 0.2513 0.0
C1561 C 0.39016 0.73489 0.26319 0.0
C1562 C 0.36792 0.73065 0.24568 0.0
C1563 C 0.95738 0.41088 1.00397 0.0
C1564 C 0.97877 0.42704 0.01271 0.0
C1565 C 0.96158 0.38919 0.98656 0.0
C1566 C 0.98735 0.38281 0.97706 0.0
H1567 H 0.93721 0.41486 0.01087 0.0
H1568 H 0.94445 0.37745 0.98028 0.0
S1569 S 0.05018 0.41882 0.99389 0.0
N1570 N 0.02665 0.4354 0.01015 0.0
N1571 N 0.03467 0.39417 0.97819 0.0
C1572 C 0.00893 0.39877 0.98569 0.0
C1573 C 1.00463 0.42092 1.00334 0.0
C1574 C 0.65038 0.78446 0.24893 0.0
C1575 C 0.67619 0.78973 0.25898 0.0
C1576 C 0.6286 0.78045 0.26625 0.0
C1577 C 0.63173 0.78161 0.29432 0.0
H1578 H 0.64691 0.78375 0.22747 0.0
H1579 H 0.60906 0.77677 0.25757 0.0
S1580 S 0.69548 0.79264 0.33089 0.0
N1581 N 0.70386 0.79444 0.29887 0.0
N1582 N 0.66291 0.78704 0.33138 0.0
C1583 C 0.65747 0.78655 0.30465 0.0
C1584 C 0.67967 0.79057 0.28702 0.0
C1585 C 0.01648 0.10066 1.00361 0.0
C1586 C 0.04204 0.09475 0.01394 0.0
C1587 C 0.01243 0.12235 0.98616 0.0
C1588 C 0.03373 0.13913 0.97844 0.0
H1589 H 0.9995 0.0882 1.00881 0.0
H1590 H 0.99237 0.12615 0.97885 0.0
S1591 S 0.10453 0.13248 1.00003 0.0
N1592 N 0.08889 0.10783 0.01559 0.0
N1593 N 0.08142 0.1481 0.98226 0.0
C1594 C 0.05938 0.13349 0.98867 0.0
C1595 C 0.0635 0.11142 1.00647 0.0
C1596 C 0.35189 0.26574 0.25452 0.0
C1597 C 0.34553 0.29147 0.26417 0.0
C1598 C 0.37367 0.26162 0.2372 0.0
C1599 C 0.38985 0.28308 0.22874 0.0
H1600 H 0.33967 0.24869 0.26005 0.0
H1601 H 0.3776 0.24153 0.23002 0.0
S1602 S 0.38333 0.35391 0.25011 0.0
N1603 N 0.35839 0.33843 0.26534 0.0
N1604 N 0.39906 0.33069 0.23258 0.0
C1605 C 0.38403 0.30881 0.23857 0.0
C1606 C 0.36196 0.313 0.25631 0.0
C1607 C 0.53621 0.40266 1.00085 0.0
C1608 C 0.53896 0.42873 0.0112 0.0
C1609 C 0.53259 0.38058 0.01791 0.0
C1610 C 0.53127 0.38377 0.04596 0.0
H1611 H 0.53726 0.39924 0.9794 0.0
H1612 H 0.53061 0.36087 1.00905 0.0
S1613 S 0.53697 0.44788 0.08315 0.0
N1614 N 0.53971 0.45653 0.05126 0.0
N1615 N 0.53311 0.41504 0.08332 0.0
C1616 C 0.53379 0.40975 0.05656 0.0
C1617 C 0.53764 0.43221 0.0392 0.0
C1618 C 0.6804 0.2278 0.2345 0.0
C1619 C 0.67706 0.22852 0.26257 0.0
C1620 C 0.65868 0.23186 0.21706 0.0
C1621 C 0.63281 0.23692 0.22702 0.0
H1622 H 0.70004 0.22445 0.22594 0.0
H1623 H 0.66223 0.23146 0.1956 0.0
S1624 S 0.61286 0.23828 0.29874 0.0
N1625 N 0.64544 0.23282 0.29943 0.0
N1626 N 0.60478 0.24073 0.26669 0.0
C1627 C 0.62911 0.23721 0.255 0.0
C1628 C 0.65116 0.23295 0.27275 0.0
C1629 C 0.50152 0.09904 0.01748 0.0
C1630 C 0.47628 0.09436 1.00583 0.0
C1631 C 0.50576 0.12068 0.03497 0.0
C1632 C 0.485 0.13863 0.04132 0.0
H1633 H 0.51806 0.08566 0.01332 0.0
H1634 H 0.52555 0.1235 0.0434 0.0
S1635 S 0.41523 0.13541 0.01593 0.0
N1636 N 0.43033 0.10975 1.00155 0.0
N1637 N 0.43817 0.15009 0.03474 0.0
C1638 C 0.45969 0.13424 0.02972 0.0
C1639 C 0.45535 0.11218 0.01197 0.0
C1640 C 0.24998 0.36648 0.73812 0.0
C1641 C 0.26015 0.3406 0.73356 0.0
C1642 C 0.26709 0.38841 0.74215 0.0
C1643 C 0.29509 0.38533 0.74195 0.0
H1644 H 0.22857 0.3699 0.73828 0.0
H1645 H 0.25829 0.40791 0.74568 0.0
S1646 S 0.33194 0.32175 0.73105 0.0
N1647 N 0.30008 0.31309 0.72955 0.0
N1648 N 0.33222 0.35437 0.73647 0.0
C1649 C 0.30555 0.35956 0.73746 0.0
C1650 C 0.28811 0.33722 0.73336 0.0
C1651 C 0.26553 0.65838 0.80914 0.0
C1652 C 0.25863 0.67527 0.78759 0.0
C1653 C 0.2827 0.63643 0.80547 0.0
C1654 C 0.29364 0.63051 0.78011 0.0
H1655 H 0.25727 0.66192 0.82893 0.0
H1656 H 0.28708 0.62374 0.82255 0.0
S1657 S 0.2839 0.67 0.71775 0.0
N1658 N 0.26543 0.68555 0.74039 0.0
N1659 N 0.29766 0.64437 0.73349 0.0
C1660 C 0.2873 0.64754 0.75852 0.0
C1661 C 0.26983 0.66988 0.76225 0.0
C1662 C 0.90096 0.52102 0.48411 0.0
C1663 C 0.92711 0.51132 0.48024 0.0
C1664 C 0.87929 0.50348 0.48763 0.0
C1665 C 0.88294 0.47553 0.48768 0.0
H1666 H 0.89715 0.54238 0.4841 0.0
H1667 H 0.85954 0.5119 0.49063 0.0
S1668 S 0.94744 0.43988 0.47865 0.0
N1669 N 0.95549 0.47191 0.47712 0.0
N1670 N 0.91474 0.43897 0.48327 0.0
C1671 C 0.909 0.46556 0.48392 0.0
C1672 C 0.93105 0.48342 0.48027 0.0
C1673 C 0.76998 0.8704 0.7815 0.0
C1674 C 0.76022 0.8443 0.78571 0.0
C1675 C 0.75249 0.89202 0.7775 0.0
C1676 C 0.72456 0.88837 0.77758 0.0
H1677 H 0.79132 0.87426 0.78188 0.0
H1678 H 0.76091 0.91184 0.77486 0.0
S1679 S 0.68888 0.82364 0.78498 0.0
N1680 N 0.72085 0.81575 0.7878 0.0
N1681 N 0.68801 0.85637 0.7804 0.0
C1682 C 0.71455 0.86229 0.78113 0.0
C1683 C 0.73235 0.84027 0.78515 0.0
C1684 C 0.59152 0.53595 0.98019 0.0
C1685 C 0.59425 0.508 0.9827 0.0
C1686 C 0.61345 0.55317 0.98382 0.0
C1687 C 0.63906 0.54318 0.99009 0.0
H1688 H 0.57221 0.54465 0.97558 0.0
H1689 H 0.61035 0.5745 0.98138 0.0
S1690 S 0.65695 0.47156 0.999 0.0
N1691 N 0.62482 0.4711 0.99133 0.0
N1692 N 0.66565 0.50344 0.99934 0.0
C1693 C 0.64203 0.51527 0.99283 0.0
C1694 C 0.61975 0.49773 0.98891 0.0
C1695 C 0.26984 0.64966 0.2356 0.0
C1696 C 0.25969 0.67537 0.23001 0.0
C1697 C 0.2527 0.6278 0.23986 0.0
C1698 C 0.22472 0.63073 0.23857 0.0
H1699 H 0.29124 0.6463 0.23635 0.0
H1700 H 0.26143 0.60835 0.24385 0.0
S1701 S 0.18788 0.69406 0.22664 0.0
N1702 N 0.21974 0.7027 0.22491 0.0
N1703 N 0.1876 0.66154 0.23258 0.0
C1704 C 0.21428 0.65632 0.23327 0.0
C1705 C 0.23172 0.67863 0.22907 0.0
C1706 C 0.92014 0.51867 0.01362 0.0
C1707 C 0.92503 0.50794 0.03929 0.0
C1708 C 0.89865 0.53621 1.00904 0.0
C1709 C 0.88108 0.5435 0.0299 0.0
H1710 H 0.9332 0.51372 0.99699 0.0
H1711 H 0.89562 0.54393 0.98894 0.0
S1712 S 0.88505 0.5208 0.10075 0.0
N1713 N 0.91024 0.50555 0.08574 0.0
N1714 N 0.87031 0.5389 0.07728 0.0
C1715 C 0.88573 0.53287 0.05564 0.0
C1716 C 0.9076 0.51505 0.0603 0.0
C1717 C 0.10908 1.00301 0.06027 0.0
C1718 C 0.09233 0.0111 0.03903 0.0
C1719 C 0.13048 0.98534 0.05597 0.0
C1720 C 0.13596 0.97491 0.03028 0.0
H1721 H 0.10586 0.0107 0.08035 0.0
H1722 H 0.14276 0.97966 0.07298 0.0
S1723 S 0.0979 0.9895 0.96793 0.0
N1724 N 0.08227 1.00674 0.99145 0.0
N1725 N 0.12295 0.97426 0.98322 0.0
C1726 C 0.11929 0.98275 1.00888 0.0
C1727 C 0.09744 1.00068 0.01328 0.0
loop_
_geom_bond_atom_site_label_1
_geom_bond_atom_site_label_2
_geom_bond_distance
_geom_bond_site_symmetry_2
_ccdc_geom_bond_type
H0 C3 0.931 1_655 S
H1 C6 0.928 1_565 S
H2 C8 0.930 1_556 S
C3 H0 0.931 1_455 S
C3 C4 1.413 . S
C3 C5 1.360 . S
C4 C3 1.413 . S
C4 C8 1.429 . S
C5 C3 1.360 . S
C5 C6 1.372 . S
C6 H1 0.928 1_545 S
C6 C5 1.372 . S
C6 C7 1.404 . S
C7 C6 1.404 . S
C7 C8 1.391 . S
C8 H2 0.930 1_554 S
C8 C4 1.429 . S
C8 C7 1.391 . S
H9 C12 0.931 . S
H10 C15 0.928 . S
H11 C17 0.930 . S
C12 H9 0.931 . S
C12 C13 1.413 . S
C12 C14 1.360 . S
C13 C12 1.413 . S
C13 C17 1.429 . S
C14 C12 1.360 . S
C14 C15 1.372 . S
C15 H10 0.928 . S
C15 C14 1.372 . S
C15 C16 1.404 . S
C16 C15 1.404 . S
C16 C17 1.391 . S
C17 H11 0.930 . S
C17 C13 1.429 . S
C17 C16 1.391 . S
H18 C21 0.931 . S
H19 C24 0.928 1_455 S
H20 C26 0.930 1_556 S
C21 H18 0.931 . S
C21 C22 1.413 . S
C21 C23 1.360 . S
C22 C21 1.413 . S
C22 C26 1.429 . S
C23 C21 1.360 . S
C23 C24 1.372 . S
C24 H19 0.928 1_655 S
C24 C23 1.372 . S
C24 C25 1.404 . S
C25 C24 1.404 . S
C25 C26 1.391 . S
C26 H20 0.930 1_554 S
C26 C22 1.429 . S
C26 C25 1.391 . S
H27 C30 0.931 . S
H28 C33 0.928 . S
H29 C35 0.930 . S
C30 H27 0.931 . S
C30 C31 1.413 . S
C30 C32 1.360 . S
C31 C30 1.413 . S
C31 C35 1.429 . S
C32 C30 1.360 . S
C32 C33 1.372 . S
C33 H28 0.928 . S
C33 C32 1.372 . S
C33 C34 1.404 . S
C34 C33 1.404 . S
C34 C35 1.391 . S
C35 H29 0.930 . S
C35 C31 1.429 . S
C35 C34 1.391 . S
H36 C39 0.931 1_655 S
H37 C42 0.928 1_545 S
H38 C44 0.930 . S
C39 H36 0.931 1_455 S
C39 C40 1.413 . S
C39 C41 1.360 . S
C40 C39 1.413 . S
C40 C44 1.429 . S
C41 C39 1.360 . S
C41 C42 1.372 . S
C42 H37 0.928 1_565 S
C42 C41 1.372 . S
C42 C43 1.404 . S
C43 C42 1.404 . S
C43 C44 1.391 . S
C44 H38 0.930 . S
C44 C40 1.429 . S
C44 C43 1.391 . S
H45 C48 0.931 . S
H46 C51 0.928 . S
H47 C53 0.930 . S
C48 H45 0.931 . S
C48 C49 1.413 . S
C48 C50 1.360 . S
C49 C48 1.413 . S
C49 C53 1.429 . S
C50 C48 1.360 . S
C50 C51 1.372 . S
C51 H46 0.928 . S
C51 C50 1.372 . S
C51 C52 1.404 . S
C52 C51 1.404 . S
C52 C53 1.391 . S
C53 H47 0.930 . S
C53 C49 1.429 . S
C53 C52 1.391 . S
H54 C57 0.931 . S
H55 C60 0.928 1_455 S
H56 C62 0.930 . S
C57 H54 0.931 . S
C57 C58 1.413 . S
C57 C59 1.360 . S
C58 C57 1.413 . S
C58 C62 1.429 . S
C59 C57 1.360 . S
C59 C60 1.372 . S
C60 H55 0.928 1_655 S
C60 C59 1.372 . S
C60 C61 1.404 . S
C61 C60 1.404 . S
C61 C62 1.391 . S
C62 H56 0.930 . S
C62 C58 1.429 . S
C62 C61 1.391 . S
H63 C66 0.931 . S
H64 C69 0.928 . S
H65 C71 0.930 . S
C66 H63 0.931 . S
C66 C67 1.413 . S
C66 C68 1.360 . S
C67 C66 1.413 . S
C67 C71 1.429 . S
C68 C66 1.360 . S
C68 C69 1.372 . S
C69 H64 0.928 . S
C69 C68 1.372 . S
C69 C70 1.404 . S
C70 C69 1.404 . S
C70 C71 1.391 . S
C71 H65 0.930 . S
C71 C67 1.429 . S
C71 C70 1.391 . S
H72 C75 0.931 . S
H73 C78 0.928 . S
H74 C80 0.930 . S
C75 H72 0.931 . S
C75 C76 1.413 . S
C75 C77 1.360 . S
C76 C75 1.413 . S
C76 C80 1.429 . S
C77 C75 1.360 . S
C77 C78 1.372 . S
C78 H73 0.928 . S
C78 C77 1.372 . S
C78 C79 1.404 . S
C79 C78 1.404 . S
C79 C80 1.391 . S
C80 H74 0.930 . S
C80 C76 1.429 . S
C80 C79 1.391 . S
H81 C84 0.931 1_545 S
H82 C87 0.928 . S
H83 C89 0.930 . S
C84 H81 0.931 1_565 S
C84 C85 1.413 . S
C84 C86 1.360 . S
C85 C84 1.413 . S
C85 C89 1.429 . S
C86 C84 1.360 . S
C86 C87 1.372 . S
C87 H82 0.928 . S
C87 C86 1.372 . S
C87 C88 1.404 . S
C88 C87 1.404 . S
C88 C89 1.391 . S
C89 H83 0.930 . S
C89 C85 1.429 . S
C89 C88 1.391 . S
H90 C93 0.931 . S
H91 C96 0.928 . S
H92 C98 0.930 . S
C93 H90 0.931 . S
C93 C94 1.413 . S
C93 C95 1.360 . S
C94 C93 1.413 . S
C94 C98 1.429 . S
C95 C93 1.360 . S
C95 C96 1.372 . S
C96 H91 0.928 . S
C96 C95 1.372 . S
C96 C97 1.404 . S
C97 C96 1.404 . S
C97 C98 1.391 . S
C98 H92 0.930 . S
C98 C94 1.429 . S
C98 C97 1.391 . S
H99 C102 0.931 . S
H100 C105 0.928 . S
H101 C107 0.930 . S
C102 H99 0.931 . S
C102 C103 1.413 . S
C102 C104 1.360 . S
C103 C102 1.413 . S
C103 C107 1.429 . S
C104 C102 1.360 . S
C104 C105 1.372 . S
C105 H100 0.928 . S
C105 C104 1.372 . S
C105 C106 1.404 . S
C106 C105 1.404 . S
C106 C107 1.391 . S
C107 H101 0.930 . S
C107 C103 1.429 . S
C107 C106 1.391 . S
H108 C111 0.931 . S
H109 C114 0.928 . S
H110 C116 0.930 . S
C111 H108 0.931 . S
C111 C112 1.413 . S
C111 C113 1.360 . S
C112 C111 1.413 . S
C112 C116 1.429 . S
C113 C111 1.360 . S
C113 C114 1.372 . S
C114 H109 0.928 . S
C114 C113 1.372 . S
C114 C115 1.404 . S
C115 C114 1.404 . S
C115 C116 1.391 . S
C116 H110 0.930 . S
C116 C112 1.429 . S
C116 C115 1.391 . S
H117 C120 0.931 . S
H118 C123 0.928 . S
H119 C125 0.930 1_554 S
C120 H117 0.931 . S
C120 C121 1.413 . S
C120 C122 1.360 . S
C121 C120 1.413 . S
C121 C125 1.429 . S
C122 C120 1.360 . S
C122 C123 1.372 . S
C123 H118 0.928 . S
C123 C122 1.372 . S
C123 C124 1.404 . S
C124 C123 1.404 . S
C124 C125 1.391 . S
C125 H119 0.930 1_556 S
C125 C121 1.429 . S
C125 C124 1.391 . S
H126 C129 0.931 . S
H127 C132 0.928 . S
H128 C134 0.930 . S
C129 H126 0.931 . S
C129 C130 1.413 . S
C129 C131 1.360 . S
C130 C129 1.413 . S
C130 C134 1.429 . S
C131 C129 1.360 . S
C131 C132 1.372 . S
C132 H127 0.928 . S
C132 C131 1.372 . S
C132 C133 1.404 . S
C133 C132 1.404 . S
C133 C134 1.391 . S
C134 H128 0.930 . S
C134 C130 1.429 . S
C134 C133 1.391 . S
H135 C138 0.931 1_554 S
H136 C141 0.928 . S
H137 C143 0.930 1_565 S
C138 H135 0.931 1_556 S
C138 C139 1.413 . S
C138 C140 1.360 . S
C139 C138 1.413 . S
C139 C143 1.429 . S
C140 C138 1.360 . S
C140 C141 1.372 . S
C141 H136 0.928 . S
C141 C140 1.372 . S
C141 C142 1.404 . S
C142 C141 1.404 . S
C142 C143 1.391 . S
C143 H137 0.930 1_545 S
C143 C139 1.429 . S
C143 C142 1.391 . S
Li144 N161 1.990 . S
Li144 O204 1.956 . S
Li144 O205 1.970 1_556 S
Li144 O206 1.961 . S
Li145 N169 1.990 . S
Li145 O204 1.970 1_554 S
Li145 O205 1.956 . S
Li145 O207 1.961 . S
Li146 N191 1.990 . S
Li146 O204 1.961 . S
Li146 O206 1.956 . S
Li146 O207 1.970 1_556 S
Li147 N197 1.990 . S
Li147 O205 1.961 . S
Li147 O206 1.970 1_554 S
Li147 O207 1.956 . S
C148 C150 1.348 1_556 S
C148 C151 1.356 . S
C148 O204 1.325 . S
N149 C152 1.314 1_556 S
N149 C153 1.279 . S
C150 C148 1.348 1_554 S
C150 C152 1.353 . S
C150 H208 0.929 . S
C151 C148 1.356 . S
C151 C153 1.358 . S
C151 H209 0.930 . S
C152 N149 1.314 1_554 S
C152 C150 1.353 . S
C152 H210 0.930 . S
C153 N149 1.279 . S
C153 C151 1.358 . S
C153 H211 0.930 . S
C154 C157 1.348 . S
C154 C158 1.356 . S
C154 O205 1.325 . S
C155 N156 1.279 . S
C155 C158 1.358 . S
C155 H212 0.930 . S
N156 C155 1.279 . S
N156 C159 1.314 . S
C157 C154 1.348 . S
C157 C159 1.353 . S
C157 H213 0.929 . S
C158 C154 1.356 . S
C158 C155 1.358 . S
C158 H214 0.930 . S
C159 N156 1.314 . S
C159 C157 1.353 . S
C159 H215 0.930 . S
C160 N161 1.314 . S
C160 C165 1.353 . S
C160 H166 0.930 . S
N161 Li144 1.990 . S
N161 C160 1.314 . S
N161 C163 1.279 . S
C162 C163 1.358 . S
C162 C164 1.356 . S
C162 H216 0.930 . S
C163 N161 1.279 . S
C163 C162 1.358 . S
C163 H167 0.930 . S
C164 C162 1.356 . S
C164 C165 1.348 . S
C165 C160 1.353 . S
C165 C164 1.348 . S
C165 H217 0.929 . S
H166 C160 0.930 . S
H167 C163 0.930 . S
C168 N169 1.314 . S
C168 C170 1.353 . S
C168 H174 0.930 . S
N169 Li145 1.990 . S
N169 C168 1.314 . S
N169 C172 1.279 . S
C170 C168 1.353 . S
C170 C173 1.348 . S
C170 H218 0.929 . S
C171 C172 1.358 . S
C171 C173 1.356 . S
C171 H219 0.930 . S
C172 N169 1.279 . S
C172 C171 1.358 . S
C172 H175 0.930 . S
C173 C170 1.348 . S
C173 C171 1.356 . S
H174 C168 0.930 . S
H175 C172 0.930 . S
C176 C178 1.348 . S
C176 C179 1.356 . S
C176 O206 1.325 . S
N177 C180 1.314 . S
N177 C181 1.279 . S
C178 C176 1.348 . S
C178 C180 1.353 . S
C178 H220 0.929 . S
C179 C176 1.356 . S
C179 C181 1.358 . S
C179 H221 0.930 . S
C180 N177 1.314 . S
C180 C178 1.353 . S
C180 H222 0.930 . S
C181 N177 1.279 . S
C181 C179 1.358 . S
C181 H223 0.930 . S
C182 C183 1.348 1_554 S
C182 C184 1.356 . S
C182 O207 1.325 . S
C183 C182 1.348 1_556 S
C183 C185 1.353 . S
C183 H224 0.929 . S
C184 C182 1.356 . S
C184 C186 1.358 . S
C184 H225 0.930 . S
C185 C183 1.353 . S
C185 N187 1.314 1_556 S
C185 H226 0.930 . S
C186 C184 1.358 . S
C186 N187 1.279 . S
C186 H227 0.930 . S
N187 C185 1.314 1_554 S
N187 C186 1.279 . S
C188 C190 1.353 . S
C188 N191 1.314 . S
C188 H194 0.930 . S
C189 N191 1.279 . S
C189 C192 1.358 . S
C189 H195 0.930 . S
C190 C188 1.353 . S
C190 C193 1.348 . S
C190 H228 0.929 . S
N191 Li146 1.990 . S
N191 C188 1.314 . S
N191 C189 1.279 . S
C192 C189 1.358 . S
C192 C193 1.356 . S
C192 H229 0.930 . S
C193 C190 1.348 . S
C193 C192 1.356 . S
H194 C188 0.930 . S
H195 C189 0.930 . S
C196 N197 1.314 . S
C196 C198 1.353 . S
C196 H202 0.930 . S
N197 Li147 1.990 . S
N197 C196 1.314 . S
N197 C200 1.279 . S
C198 C196 1.353 . S
C198 C201 1.348 . S
C198 H230 0.929 . S
C199 C200 1.358 . S
C199 C201 1.356 . S
C199 H231 0.930 . S
C200 N197 1.279 . S
C200 C199 1.358 . S
C200 H203 0.930 . S
C201 C198 1.348 . S
C201 C199 1.356 . S
H202 C196 0.930 . S
H203 C200 0.930 . S
O204 Li144 1.956 . S
O204 Li145 1.970 1_556 S
O204 Li146 1.961 . S
O204 C148 1.325 . S
O205 Li144 1.970 1_554 S
O205 Li145 1.956 . S
O205 Li147 1.961 . S
O205 C154 1.325 . S
O206 Li144 1.961 . S
O206 Li146 1.956 . S
O206 Li147 1.970 1_556 S
O206 C176 1.325 . S
O207 Li145 1.961 . S
O207 Li146 1.970 1_554 S
O207 Li147 1.956 . S
O207 C182 1.325 . S
H208 C150 0.929 . S
H209 C151 0.930 . S
H210 C152 0.930 . S
H211 C153 0.930 . S
H212 C155 0.930 . S
H213 C157 0.929 . S
H214 C158 0.930 . S
H215 C159 0.930 . S
H216 C162 0.930 . S
H217 C165 0.929 . S
H218 C170 0.929 . S
H219 C171 0.930 . S
H220 C178 0.929 . S
H221 C179 0.930 . S
H222 C180 0.930 . S
H223 C181 0.930 . S
H224 C183 0.929 . S
H225 C184 0.930 . S
H226 C185 0.930 . S
H227 C186 0.930 . S
H228 C190 0.929 . S
H229 C192 0.930 . S
H230 C198 0.929 . S
H231 C199 0.930 . S
Li232 N249 1.990 . S
Li232 O292 1.956 . S
Li232 O293 1.970 . S
Li232 O294 1.961 . S
Li233 N257 1.990 . S
Li233 O292 1.970 . S
Li233 O293 1.956 . S
Li233 O295 1.961 . S
Li234 N279 1.990 . S
Li234 O292 1.961 . S
Li234 O294 1.956 . S
Li234 O295 1.970 . S
Li235 N285 1.990 . S
Li235 O293 1.961 . S
Li235 O294 1.970 . S
Li235 O295 1.956 . S
C236 C238 1.348 . S
C236 C239 1.356 . S
C236 O292 1.325 . S
N237 C240 1.314 . S
N237 C241 1.279 . S
C238 C236 1.348 . S
C238 C240 1.353 . S
C238 H296 0.929 . S
C239 C236 1.356 . S
C239 C241 1.358 . S
C239 H297 0.930 . S
C240 N237 1.314 . S
C240 C238 1.353 . S
C240 H298 0.930 . S
C241 N237 1.279 . S
C241 C239 1.358 . S
C241 H299 0.930 . S
C242 C245 1.348 . S
C242 C246 1.356 . S
C242 O293 1.325 . S
C243 N244 1.279 . S
C243 C246 1.358 . S
C243 H300 0.930 . S
N244 C243 1.279 . S
N244 C247 1.314 . S
C245 C242 1.348 . S
C245 C247 1.353 . S
C245 H301 0.929 . S
C246 C242 1.356 . S
C246 C243 1.358 . S
C246 H302 0.930 . S
C247 N244 1.314 . S
C247 C245 1.353 . S
C247 H303 0.930 . S
C248 N249 1.314 . S
C248 C253 1.353 . S
C248 H254 0.930 . S
N249 Li232 1.990 . S
N249 C248 1.314 . S
N249 C251 1.279 . S
C250 C251 1.358 . S
C250 C252 1.356 . S
C250 H304 0.930 . S
C251 N249 1.279 . S
C251 C250 1.358 . S
C251 H255 0.930 . S
C252 C250 1.356 . S
C252 C253 1.348 . S
C253 C248 1.353 . S
C253 C252 1.348 . S
C253 H305 0.929 . S
H254 C248 0.930 . S
H255 C251 0.930 . S
C256 N257 1.314 . S
C256 C258 1.353 . S
C256 H262 0.930 . S
N257 Li233 1.990 . S
N257 C256 1.314 . S
N257 C260 1.279 . S
C258 C256 1.353 . S
C258 C261 1.348 . S
C258 H306 0.929 . S
C259 C260 1.358 . S
C259 C261 1.356 . S
C259 H307 0.930 . S
C260 N257 1.279 . S
C260 C259 1.358 . S
C260 H263 0.930 . S
C261 C258 1.348 . S
C261 C259 1.356 . S
H262 C256 0.930 . S
H263 C260 0.930 . S
C264 C266 1.348 . S
C264 C267 1.356 . S
C264 O294 1.325 . S
N265 C268 1.314 . S
N265 C269 1.279 . S
C266 C264 1.348 . S
C266 C268 1.353 . S
C266 H308 0.929 . S
C267 C264 1.356 . S
C267 C269 1.358 . S
C267 H309 0.930 . S
C268 N265 1.314 . S
C268 C266 1.353 . S
C268 H310 0.930 . S
C269 N265 1.279 . S
C269 C267 1.358 . S
C269 H311 0.930 . S
C270 C271 1.348 . S
C270 C272 1.356 . S
C270 O295 1.325 . S
C271 C270 1.348 . S
C271 C273 1.353 . S
C271 H312 0.929 . S
C272 C270 1.356 . S
C272 C274 1.358 . S
C272 H313 0.930 . S
C273 C271 1.353 . S
C273 N275 1.314 . S
C273 H314 0.930 . S
C274 C272 1.358 . S
C274 N275 1.279 . S
C274 H315 0.930 . S
N275 C273 1.314 . S
N275 C274 1.279 . S
C276 C278 1.353 . S
C276 N279 1.314 . S
C276 H282 0.930 . S
C277 N279 1.279 . S
C277 C280 1.358 . S
C277 H283 0.930 . S
C278 C276 1.353 . S
C278 C281 1.348 . S
C278 H316 0.929 . S
N279 Li234 1.990 . S
N279 C276 1.314 . S
N279 C277 1.279 . S
C280 C277 1.358 . S
C280 C281 1.356 . S
C280 H317 0.930 . S
C281 C278 1.348 . S
C281 C280 1.356 . S
H282 C276 0.930 . S
H283 C277 0.930 . S
C284 N285 1.314 . S
C284 C286 1.353 . S
C284 H290 0.930 . S
N285 Li235 1.990 . S
N285 C284 1.314 . S
N285 C288 1.279 . S
C286 C284 1.353 . S
C286 C289 1.348 . S
C286 H318 0.929 . S
C287 C288 1.358 . S
C287 C289 1.356 . S
C287 H319 0.930 . S
C288 N285 1.279 . S
C288 C287 1.358 . S
C288 H291 0.930 . S
C289 C286 1.348 . S
C289 C287 1.356 . S
H290 C284 0.930 . S
H291 C288 0.930 . S
O292 Li232 1.956 . S
O292 Li233 1.970 . S
O292 Li234 1.961 . S
O292 C236 1.325 . S
O293 Li232 1.970 . S
O293 Li233 1.956 . S
O293 Li235 1.961 . S
O293 C242 1.325 . S
O294 Li232 1.961 . S
O294 Li234 1.956 . S
O294 Li235 1.970 . S
O294 C264 1.325 . S
O295 Li233 1.961 . S
O295 Li234 1.970 . S
O295 Li235 1.956 . S
O295 C270 1.325 . S
H296 C238 0.929 . S
H297 C239 0.930 . S
H298 C240 0.930 . S
H299 C241 0.930 . S
H300 C243 0.930 . S
H301 C245 0.929 . S
H302 C246 0.930 . S
H303 C247 0.930 . S
H304 C250 0.930 . S
H305 C253 0.929 . S
H306 C258 0.929 . S
H307 C259 0.930 . S
H308 C266 0.929 . S
H309 C267 0.930 . S
H310 C268 0.930 . S
H311 C269 0.930 . S
H312 C271 0.929 . S
H313 C272 0.930 . S
H314 C273 0.930 . S
H315 C274 0.930 . S
H316 C278 0.929 . S
H317 C280 0.930 . S
H318 C286 0.929 . S
H319 C287 0.930 . S
Li320 N337 1.990 . S
Li320 O380 1.956 . S
Li320 O381 1.970 1_556 S
Li320 O382 1.961 . S
Li321 N345 1.990 . S
Li321 O380 1.970 1_554 S
Li321 O381 1.956 . S
Li321 O383 1.961 . S
Li322 N367 1.990 . S
Li322 O380 1.961 . S
Li322 O382 1.956 . S
Li322 O383 1.970 1_556 S
Li323 N373 1.990 . S
Li323 O381 1.961 . S
Li323 O382 1.970 1_554 S
Li323 O383 1.956 . S
C324 C326 1.348 1_556 S
C324 C327 1.356 . S
C324 O380 1.325 . S
N325 C328 1.314 1_556 S
N325 C329 1.279 . S
C326 C324 1.348 1_554 S
C326 C328 1.353 . S
C326 H384 0.929 . S
C327 C324 1.356 . S
C327 C329 1.358 . S
C327 H385 0.930 . S
C328 N325 1.314 1_554 S
C328 C326 1.353 . S
C328 H386 0.930 . S
C329 N325 1.279 . S
C329 C327 1.358 . S
C329 H387 0.930 . S
C330 C333 1.348 . S
C330 C334 1.356 . S
C330 O381 1.325 . S
C331 N332 1.279 . S
C331 C334 1.358 . S
C331 H388 0.930 . S
N332 C331 1.279 . S
N332 C335 1.314 . S
C333 C330 1.348 . S
C333 C335 1.353 . S
C333 H389 0.929 . S
C334 C330 1.356 . S
C334 C331 1.358 . S
C334 H390 0.930 . S
C335 N332 1.314 . S
C335 C333 1.353 . S
C335 H391 0.930 . S
C336 N337 1.314 . S
C336 C341 1.353 . S
C336 H342 0.930 . S
N337 Li320 1.990 . S
N337 C336 1.314 . S
N337 C339 1.279 . S
C338 C339 1.358 . S
C338 C340 1.356 . S
C338 H392 0.930 . S
C339 N337 1.279 . S
C339 C338 1.358 . S
C339 H343 0.930 . S
C340 C338 1.356 . S
C340 C341 1.348 . S
C341 C336 1.353 . S
C341 C340 1.348 . S
C341 H393 0.929 . S
H342 C336 0.930 . S
H343 C339 0.930 . S
C344 N345 1.314 . S
C344 C346 1.353 . S
C344 H350 0.930 . S
N345 Li321 1.990 . S
N345 C344 1.314 . S
N345 C348 1.279 . S
C346 C344 1.353 . S
C346 C349 1.348 . S
C346 H394 0.929 . S
C347 C348 1.358 . S
C347 C349 1.356 . S
C347 H395 0.930 . S
C348 N345 1.279 . S
C348 C347 1.358 . S
C348 H351 0.930 . S
C349 C346 1.348 . S
C349 C347 1.356 . S
H350 C344 0.930 . S
H351 C348 0.930 . S
C352 C354 1.348 . S
C352 C355 1.356 . S
C352 O382 1.325 . S
N353 C356 1.314 . S
N353 C357 1.279 . S
C354 C352 1.348 . S
C354 C356 1.353 . S
C354 H396 0.929 . S
C355 C352 1.356 . S
C355 C357 1.358 . S
C355 H397 0.930 . S
C356 N353 1.314 . S
C356 C354 1.353 . S
C356 H398 0.930 . S
C357 N353 1.279 . S
C357 C355 1.358 . S
C357 H399 0.930 . S
C358 C359 1.348 1_554 S
C358 C360 1.356 . S
C358 O383 1.325 . S
C359 C358 1.348 1_556 S
C359 C361 1.353 . S
C359 H400 0.929 . S
C360 C358 1.356 . S
C360 C362 1.358 . S
C360 H401 0.930 . S
C361 C359 1.353 . S
C361 N363 1.314 1_556 S
C361 H402 0.930 . S
C362 C360 1.358 . S
C362 N363 1.279 . S
C362 H403 0.930 . S
N363 C361 1.314 1_554 S
N363 C362 1.279 . S
C364 C366 1.353 . S
C364 N367 1.314 . S
C364 H370 0.930 . S
C365 N367 1.279 . S
C365 C368 1.358 . S
C365 H371 0.930 . S
C366 C364 1.353 . S
C366 C369 1.348 . S
C366 H404 0.929 . S
N367 Li322 1.990 . S
N367 C364 1.314 . S
N367 C365 1.279 . S
C368 C365 1.358 . S
C368 C369 1.356 . S
C368 H405 0.930 . S
C369 C366 1.348 . S
C369 C368 1.356 . S
H370 C364 0.930 . S
H371 C365 0.930 . S
C372 N373 1.314 . S
C372 C374 1.353 . S
C372 H378 0.930 . S
N373 Li323 1.990 . S
N373 C372 1.314 . S
N373 C376 1.279 . S
C374 C372 1.353 . S
C374 C377 1.348 . S
C374 H406 0.929 . S
C375 C376 1.358 . S
C375 C377 1.356 . S
C375 H407 0.930 . S
C376 N373 1.279 . S
C376 C375 1.358 . S
C376 H379 0.930 . S
C377 C374 1.348 . S
C377 C375 1.356 . S
H378 C372 0.930 . S
H379 C376 0.930 . S
O380 Li320 1.956 . S
O380 Li321 1.970 1_556 S
O380 Li322 1.961 . S
O380 C324 1.325 . S
O381 Li320 1.970 1_554 S
O381 Li321 1.956 . S
O381 Li323 1.961 . S
O381 C330 1.325 . S
O382 Li320 1.961 . S
O382 Li322 1.956 . S
O382 Li323 1.970 1_556 S
O382 C352 1.325 . S
O383 Li321 1.961 . S
O383 Li322 1.970 1_554 S
O383 Li323 1.956 . S
O383 C358 1.325 . S
H384 C326 0.929 . S
H385 C327 0.930 . S
H386 C328 0.930 . S
H387 C329 0.930 . S
H388 C331 0.930 . S
H389 C333 0.929 . S
H390 C334 0.930 . S
H391 C335 0.930 . S
H392 C338 0.930 . S
H393 C341 0.929 . S
H394 C346 0.929 . S
H395 C347 0.930 . S
H396 C354 0.929 . S
H397 C355 0.930 . S
H398 C356 0.930 . S
H399 C357 0.930 . S
H400 C359 0.929 . S
H401 C360 0.930 . S
H402 C361 0.930 . S
H403 C362 0.930 . S
H404 C366 0.929 . S
H405 C368 0.930 . S
H406 C374 0.929 . S
H407 C375 0.930 . S
Li408 N425 1.990 . S
Li408 O468 1.956 . S
Li408 O469 1.970 1_545 S
Li408 O470 1.961 . S
Li409 N433 1.990 . S
Li409 O468 1.970 1_565 S
Li409 O469 1.956 . S
Li409 O471 1.961 . S
Li410 N455 1.990 . S
Li410 O468 1.961 . S
Li410 O470 1.956 . S
Li410 O471 1.970 1_545 S
Li411 N461 1.990 . S
Li411 O469 1.961 . S
Li411 O470 1.970 1_565 S
Li411 O471 1.956 . S
C412 C414 1.348 . S
C412 C415 1.356 . S
C412 O468 1.325 . S
N413 C416 1.314 . S
N413 C417 1.279 . S
C414 C412 1.348 . S
C414 C416 1.353 . S
C414 H472 0.929 . S
C415 C412 1.356 . S
C415 C417 1.358 . S
C415 H473 0.930 . S
C416 N413 1.314 . S
C416 C414 1.353 . S
C416 H474 0.930 . S
C417 N413 1.279 . S
C417 C415 1.358 . S
C417 H475 0.930 . S
C418 C421 1.348 1_565 S
C418 C422 1.356 . S
C418 O469 1.325 . S
C419 N420 1.279 . S
C419 C422 1.358 . S
C419 H476 0.930 . S
N420 C419 1.279 . S
N420 C423 1.314 1_565 S
C421 C418 1.348 1_545 S
C421 C423 1.353 . S
C421 H477 0.929 . S
C422 C418 1.356 . S
C422 C419 1.358 . S
C422 H478 0.930 . S
C423 N420 1.314 1_545 S
C423 C421 1.353 . S
C423 H479 0.930 . S
C424 N425 1.314 . S
C424 C429 1.353 . S
C424 H430 0.930 . S
N425 Li408 1.990 . S
N425 C424 1.314 . S
N425 C427 1.279 . S
C426 C427 1.358 . S
C426 C428 1.356 . S
C426 H480 0.930 . S
C427 N425 1.279 . S
C427 C426 1.358 . S
C427 H431 0.930 . S
C428 C426 1.356 . S
C428 C429 1.348 . S
C429 C424 1.353 . S
C429 C428 1.348 . S
C429 H481 0.929 . S
H430 C424 0.930 . S
H431 C427 0.930 . S
C432 N433 1.314 . S
C432 C434 1.353 . S
C432 H438 0.930 . S
N433 Li409 1.990 . S
N433 C432 1.314 . S
N433 C436 1.279 . S
C434 C432 1.353 . S
C434 C437 1.348 . S
C434 H482 0.929 . S
C435 C436 1.358 . S
C435 C437 1.356 . S
C435 H483 0.930 . S
C436 N433 1.279 . S
C436 C435 1.358 . S
C436 H439 0.930 . S
C437 C434 1.348 . S
C437 C435 1.356 . S
H438 C432 0.930 . S
H439 C436 0.930 . S
C440 C442 1.348 1_545 S
C440 C443 1.356 . S
C440 O470 1.325 . S
N441 C444 1.314 1_545 S
N441 C445 1.279 . S
C442 C440 1.348 1_565 S
C442 C444 1.353 . S
C442 H484 0.929 . S
C443 C440 1.356 . S
C443 C445 1.358 . S
C443 H485 0.930 . S
C444 N441 1.314 1_565 S
C444 C442 1.353 . S
C444 H486 0.930 . S
C445 N441 1.279 . S
C445 C443 1.358 . S
C445 H487 0.930 . S
C446 C447 1.348 . S
C446 C448 1.356 . S
C446 O471 1.325 . S
C447 C446 1.348 . S
C447 C449 1.353 . S
C447 H488 0.929 . S
C448 C446 1.356 . S
C448 C450 1.358 . S
C448 H489 0.930 . S
C449 C447 1.353 . S
C449 N451 1.314 . S
C449 H490 0.930 . S
C450 C448 1.358 . S
C450 N451 1.279 . S
C450 H491 0.930 . S
N451 C449 1.314 . S
N451 C450 1.279 . S
C452 C454 1.353 . S
C452 N455 1.314 . S
C452 H458 0.930 . S
C453 N455 1.279 . S
C453 C456 1.358 . S
C453 H459 0.930 . S
C454 C452 1.353 . S
C454 C457 1.348 . S
C454 H492 0.929 . S
N455 Li410 1.990 . S
N455 C452 1.314 . S
N455 C453 1.279 . S
C456 C453 1.358 . S
C456 C457 1.356 . S
C456 H493 0.930 . S
C457 C454 1.348 . S
C457 C456 1.356 . S
H458 C452 0.930 . S
H459 C453 0.930 . S
C460 N461 1.314 . S
C460 C462 1.353 . S
C460 H466 0.930 . S
N461 Li411 1.990 . S
N461 C460 1.314 . S
N461 C464 1.279 . S
C462 C460 1.353 . S
C462 C465 1.348 . S
C462 H494 0.929 . S
C463 C464 1.358 . S
C463 C465 1.356 . S
C463 H495 0.930 . S
C464 N461 1.279 . S
C464 C463 1.358 . S
C464 H467 0.930 . S
C465 C462 1.348 . S
C465 C463 1.356 . S
H466 C460 0.930 . S
H467 C464 0.930 . S
O468 Li408 1.956 . S
O468 Li409 1.970 1_545 S
O468 Li410 1.961 . S
O468 C412 1.325 . S
O469 Li408 1.970 1_565 S
O469 Li409 1.956 . S
O469 Li411 1.961 . S
O469 C418 1.325 . S
O470 Li408 1.961 . S
O470 Li410 1.956 . S
O470 Li411 1.970 1_545 S
O470 C440 1.325 . S
O471 Li409 1.961 . S
O471 Li410 1.970 1_565 S
O471 Li411 1.956 . S
O471 C446 1.325 . S
H472 C414 0.929 . S
H473 C415 0.930 . S
H474 C416 0.930 . S
H475 C417 0.930 . S
H476 C419 0.930 . S
H477 C421 0.929 . S
H478 C422 0.930 . S
H479 C423 0.930 . S
H480 C426 0.930 . S
H481 C429 0.929 . S
H482 C434 0.929 . S
H483 C435 0.930 . S
H484 C442 0.929 . S
H485 C443 0.930 . S
H486 C444 0.930 . S
H487 C445 0.930 . S
H488 C447 0.929 . S
H489 C448 0.930 . S
H490 C449 0.930 . S
H491 C450 0.930 . S
H492 C454 0.929 . S
H493 C456 0.930 . S
H494 C462 0.929 . S
H495 C463 0.930 . S
Li496 N513 1.990 . S
Li496 O556 1.956 . S
Li496 O557 1.970 . S
Li496 O558 1.961 . S
Li497 N521 1.990 . S
Li497 O556 1.970 . S
Li497 O557 1.956 . S
Li497 O559 1.961 . S
Li498 N543 1.990 . S
Li498 O556 1.961 . S
Li498 O558 1.956 . S
Li498 O559 1.970 . S
Li499 N549 1.990 . S
Li499 O557 1.961 . S
Li499 O558 1.970 . S
Li499 O559 1.956 . S
C500 C502 1.348 . S
C500 C503 1.356 . S
C500 O556 1.325 . S
N501 C504 1.314 . S
N501 C505 1.279 . S
C502 C500 1.348 . S
C502 C504 1.353 . S
C502 H560 0.929 . S
C503 C500 1.356 . S
C503 C505 1.358 . S
C503 H561 0.930 . S
C504 N501 1.314 . S
C504 C502 1.353 . S
C504 H562 0.930 . S
C505 N501 1.279 . S
C505 C503 1.358 . S
C505 H563 0.930 . S
C506 C509 1.348 . S
C506 C510 1.356 . S
C506 O557 1.325 . S
C507 N508 1.279 . S
C507 C510 1.358 . S
C507 H564 0.930 . S
N508 C507 1.279 . S
N508 C511 1.314 . S
C509 C506 1.348 . S
C509 C511 1.353 . S
C509 H565 0.929 . S
C510 C506 1.356 . S
C510 C507 1.358 . S
C510 H566 0.930 . S
C511 N508 1.314 . S
C511 C509 1.353 . S
C511 H567 0.930 . S
C512 N513 1.314 . S
C512 C517 1.353 . S
C512 H518 0.930 . S
N513 Li496 1.990 . S
N513 C512 1.314 . S
N513 C515 1.279 . S
C514 C515 1.358 . S
C514 C516 1.356 . S
C514 H568 0.930 . S
C515 N513 1.279 . S
C515 C514 1.358 . S
C515 H519 0.930 . S
C516 C514 1.356 . S
C516 C517 1.348 . S
C517 C512 1.353 . S
C517 C516 1.348 . S
C517 H569 0.929 . S
H518 C512 0.930 . S
H519 C515 0.930 . S
C520 N521 1.314 . S
C520 C522 1.353 . S
C520 H526 0.930 . S
N521 Li497 1.990 . S
N521 C520 1.314 . S
N521 C524 1.279 . S
C522 C520 1.353 . S
C522 C525 1.348 . S
C522 H570 0.929 . S
C523 C524 1.358 . S
C523 C525 1.356 . S
C523 H571 0.930 . S
C524 N521 1.279 . S
C524 C523 1.358 . S
C524 H527 0.930 . S
C525 C522 1.348 . S
C525 C523 1.356 . S
H526 C520 0.930 . S
H527 C524 0.930 . S
C528 C530 1.348 . S
C528 C531 1.356 . S
C528 O558 1.325 . S
N529 C532 1.314 . S
N529 C533 1.279 . S
C530 C528 1.348 . S
C530 C532 1.353 . S
C530 H572 0.929 . S
C531 C528 1.356 . S
C531 C533 1.358 . S
C531 H573 0.930 . S
C532 N529 1.314 . S
C532 C530 1.353 . S
C532 H574 0.930 . S
C533 N529 1.279 . S
C533 C531 1.358 . S
C533 H575 0.930 . S
C534 C535 1.348 . S
C534 C536 1.356 . S
C534 O559 1.325 . S
C535 C534 1.348 . S
C535 C537 1.353 . S
C535 H576 0.929 . S
C536 C534 1.356 . S
C536 C538 1.358 . S
C536 H577 0.930 . S
C537 C535 1.353 . S
C537 N539 1.314 . S
C537 H578 0.930 . S
C538 C536 1.358 . S
C538 N539 1.279 . S
C538 H579 0.930 . S
N539 C537 1.314 . S
N539 C538 1.279 . S
C540 C542 1.353 . S
C540 N543 1.314 . S
C540 H546 0.930 . S
C541 N543 1.279 . S
C541 C544 1.358 . S
C541 H547 0.930 . S
C542 C540 1.353 . S
C542 C545 1.348 . S
C542 H580 0.929 . S
N543 Li498 1.990 . S
N543 C540 1.314 . S
N543 C541 1.279 . S
C544 C541 1.358 . S
C544 C545 1.356 . S
C544 H581 0.930 . S
C545 C542 1.348 . S
C545 C544 1.356 . S
H546 C540 0.930 . S
H547 C541 0.930 . S
C548 N549 1.314 . S
C548 C550 1.353 . S
C548 H554 0.930 . S
N549 Li499 1.990 . S
N549 C548 1.314 . S
N549 C552 1.279 . S
C550 C548 1.353 . S
C550 C553 1.348 . S
C550 H582 0.929 . S
C551 C552 1.358 . S
C551 C553 1.356 . S
C551 H583 0.930 . S
C552 N549 1.279 . S
C552 C551 1.358 . S
C552 H555 0.930 . S
C553 C550 1.348 . S
C553 C551 1.356 . S
H554 C548 0.930 . S
H555 C552 0.930 . S
O556 Li496 1.956 . S
O556 Li497 1.970 . S
O556 Li498 1.961 . S
O556 C500 1.325 . S
O557 Li496 1.970 . S
O557 Li497 1.956 . S
O557 Li499 1.961 . S
O557 C506 1.325 . S
O558 Li496 1.961 . S
O558 Li498 1.956 . S
O558 Li499 1.970 . S
O558 C528 1.325 . S
O559 Li497 1.961 . S
O559 Li498 1.970 . S
O559 Li499 1.956 . S
O559 C534 1.325 . S
H560 C502 0.929 . S
H561 C503 0.930 . S
H562 C504 0.930 . S
H563 C505 0.930 . S
H564 C507 0.930 . S
H565 C509 0.929 . S
H566 C510 0.930 . S
H567 C511 0.930 . S
H568 C514 0.930 . S
H569 C517 0.929 . S
H570 C522 0.929 . S
H571 C523 0.930 . S
H572 C530 0.929 . S
H573 C531 0.930 . S
H574 C532 0.930 . S
H575 C533 0.930 . S
H576 C535 0.929 . S
H577 C536 0.930 . S
H578 C537 0.930 . S
H579 C538 0.930 . S
H580 C542 0.929 . S
H581 C544 0.930 . S
H582 C550 0.929 . S
H583 C551 0.930 . S
Li584 N601 1.990 . S
Li584 O644 1.956 . S
Li584 O645 1.970 . S
Li584 O646 1.961 . S
Li585 N609 1.990 . S
Li585 O644 1.970 . S
Li585 O645 1.956 . S
Li585 O647 1.961 . S
Li586 N631 1.990 . S
Li586 O644 1.961 . S
Li586 O646 1.956 . S
Li586 O647 1.970 . S
Li587 N637 1.990 . S
Li587 O645 1.961 . S
Li587 O646 1.970 . S
Li587 O647 1.956 . S
C588 C590 1.348 . S
C588 C591 1.356 . S
C588 O644 1.325 . S
N589 C592 1.314 . S
N589 C593 1.279 . S
C590 C588 1.348 . S
C590 C592 1.353 . S
C590 H648 0.929 . S
C591 C588 1.356 . S
C591 C593 1.358 . S
C591 H649 0.930 . S
C592 N589 1.314 . S
C592 C590 1.353 . S
C592 H650 0.930 . S
C593 N589 1.279 . S
C593 C591 1.358 . S
C593 H651 0.930 . S
C594 C597 1.348 . S
C594 C598 1.356 . S
C594 O645 1.325 . S
C595 N596 1.279 . S
C595 C598 1.358 . S
C595 H652 0.930 . S
N596 C595 1.279 . S
N596 C599 1.314 . S
C597 C594 1.348 . S
C597 C599 1.353 . S
C597 H653 0.929 . S
C598 C594 1.356 . S
C598 C595 1.358 . S
C598 H654 0.930 . S
C599 N596 1.314 . S
C599 C597 1.353 . S
C599 H655 0.930 . S
C600 N601 1.314 . S
C600 C605 1.353 . S
C600 H606 0.930 . S
N601 Li584 1.990 . S
N601 C600 1.314 . S
N601 C603 1.279 . S
C602 C603 1.358 . S
C602 C604 1.356 . S
C602 H656 0.930 . S
C603 N601 1.279 . S
C603 C602 1.358 . S
C603 H607 0.930 . S
C604 C602 1.356 . S
C604 C605 1.348 . S
C605 C600 1.353 . S
C605 C604 1.348 . S
C605 H657 0.929 . S
H606 C600 0.930 . S
H607 C603 0.930 . S
C608 N609 1.314 . S
C608 C610 1.353 . S
C608 H614 0.930 . S
N609 Li585 1.990 . S
N609 C608 1.314 . S
N609 C612 1.279 . S
C610 C608 1.353 . S
C610 C613 1.348 . S
C610 H658 0.929 . S
C611 C612 1.358 . S
C611 C613 1.356 . S
C611 H659 0.930 . S
C612 N609 1.279 . S
C612 C611 1.358 . S
C612 H615 0.930 . S
C613 C610 1.348 . S
C613 C611 1.356 . S
H614 C608 0.930 . S
H615 C612 0.930 . S
C616 C618 1.348 . S
C616 C619 1.356 . S
C616 O646 1.325 . S
N617 C620 1.314 . S
N617 C621 1.279 . S
C618 C616 1.348 . S
C618 C620 1.353 . S
C618 H660 0.929 . S
C619 C616 1.356 . S
C619 C621 1.358 . S
C619 H661 0.930 . S
C620 N617 1.314 . S
C620 C618 1.353 . S
C620 H662 0.930 . S
C621 N617 1.279 . S
C621 C619 1.358 . S
C621 H663 0.930 . S
C622 C623 1.348 . S
C622 C624 1.356 . S
C622 O647 1.325 . S
C623 C622 1.348 . S
C623 C625 1.353 . S
C623 H664 0.929 . S
C624 C622 1.356 . S
C624 C626 1.358 . S
C624 H665 0.930 . S
C625 C623 1.353 . S
C625 N627 1.314 . S
C625 H666 0.930 . S
C626 C624 1.358 . S
C626 N627 1.279 . S
C626 H667 0.930 . S
N627 C625 1.314 . S
N627 C626 1.279 . S
C628 C630 1.353 . S
C628 N631 1.314 . S
C628 H634 0.930 . S
C629 N631 1.279 . S
C629 C632 1.358 . S
C629 H635 0.930 . S
C630 C628 1.353 . S
C630 C633 1.348 . S
C630 H668 0.929 . S
N631 Li586 1.990 . S
N631 C628 1.314 . S
N631 C629 1.279 . S
C632 C629 1.358 . S
C632 C633 1.356 . S
C632 H669 0.930 . S
C633 C630 1.348 . S
C633 C632 1.356 . S
H634 C628 0.930 . S
H635 C629 0.930 . S
C636 N637 1.314 . S
C636 C638 1.353 . S
C636 H642 0.930 . S
N637 Li587 1.990 . S
N637 C636 1.314 . S
N637 C640 1.279 . S
C638 C636 1.353 . S
C638 C641 1.348 . S
C638 H670 0.929 . S
C639 C640 1.358 . S
C639 C641 1.356 . S
C639 H671 0.930 . S
C640 N637 1.279 . S
C640 C639 1.358 . S
C640 H643 0.930 . S
C641 C638 1.348 . S
C641 C639 1.356 . S
H642 C636 0.930 . S
H643 C640 0.930 . S
O644 Li584 1.956 . S
O644 Li585 1.970 . S
O644 Li586 1.961 . S
O644 C588 1.325 . S
O645 Li584 1.970 . S
O645 Li585 1.956 . S
O645 Li587 1.961 . S
O645 C594 1.325 . S
O646 Li584 1.961 . S
O646 Li586 1.956 . S
O646 Li587 1.970 . S
O646 C616 1.325 . S
O647 Li585 1.961 . S
O647 Li586 1.970 . S
O647 Li587 1.956 . S
O647 C622 1.325 . S
H648 C590 0.929 . S
H649 C591 0.930 . S
H650 C592 0.930 . S
H651 C593 0.930 . S
H652 C595 0.930 . S
H653 C597 0.929 . S
H654 C598 0.930 . S
H655 C599 0.930 . S
H656 C602 0.930 . S
H657 C605 0.929 . S
H658 C610 0.929 . S
H659 C611 0.930 . S
H660 C618 0.929 . S
H661 C619 0.930 . S
H662 C620 0.930 . S
H663 C621 0.930 . S
H664 C623 0.929 . S
H665 C624 0.930 . S
H666 C625 0.930 . S
H667 C626 0.930 . S
H668 C630 0.929 . S
H669 C632 0.930 . S
H670 C638 0.929 . S
H671 C639 0.930 . S
Li672 N689 1.990 . S
Li672 O732 1.956 . S
Li672 O733 1.970 . S
Li672 O734 1.961 . S
Li673 N697 1.990 . S
Li673 O732 1.970 . S
Li673 O733 1.956 . S
Li673 O735 1.961 . S
Li674 N719 1.990 . S
Li674 O732 1.961 . S
Li674 O734 1.956 . S
Li674 O735 1.970 . S
Li675 N725 1.990 . S
Li675 O733 1.961 . S
Li675 O734 1.970 . S
Li675 O735 1.956 . S
C676 C678 1.348 . S
C676 C679 1.356 . S
C676 O732 1.325 . S
N677 C680 1.314 . S
N677 C681 1.279 . S
C678 C676 1.348 . S
C678 C680 1.353 . S
C678 H736 0.929 . S
C679 C676 1.356 . S
C679 C681 1.358 . S
C679 H737 0.930 . S
C680 N677 1.314 . S
C680 C678 1.353 . S
C680 H738 0.930 . S
C681 N677 1.279 . S
C681 C679 1.358 . S
C681 H739 0.930 . S
C682 C685 1.348 . S
C682 C686 1.356 . S
C682 O733 1.325 . S
C683 N684 1.279 . S
C683 C686 1.358 . S
C683 H740 0.930 . S
N684 C683 1.279 . S
N684 C687 1.314 . S
C685 C682 1.348 . S
C685 C687 1.353 . S
C685 H741 0.929 . S
C686 C682 1.356 . S
C686 C683 1.358 . S
C686 H742 0.930 . S
C687 N684 1.314 . S
C687 C685 1.353 . S
C687 H743 0.930 . S
C688 N689 1.314 . S
C688 C693 1.353 . S
C688 H694 0.930 . S
N689 Li672 1.990 . S
N689 C688 1.314 . S
N689 C691 1.279 . S
C690 C691 1.358 . S
C690 C692 1.356 . S
C690 H744 0.930 . S
C691 N689 1.279 . S
C691 C690 1.358 . S
C691 H695 0.930 . S
C692 C690 1.356 . S
C692 C693 1.348 . S
C693 C688 1.353 . S
C693 C692 1.348 . S
C693 H745 0.929 . S
H694 C688 0.930 . S
H695 C691 0.930 . S
C696 N697 1.314 . S
C696 C698 1.353 . S
C696 H702 0.930 . S
N697 Li673 1.990 . S
N697 C696 1.314 . S
N697 C700 1.279 . S
C698 C696 1.353 . S
C698 C701 1.348 . S
C698 H746 0.929 . S
C699 C700 1.358 . S
C699 C701 1.356 . S
C699 H747 0.930 . S
C700 N697 1.279 . S
C700 C699 1.358 . S
C700 H703 0.930 . S
C701 C698 1.348 . S
C701 C699 1.356 . S
H702 C696 0.930 . S
H703 C700 0.930 . S
C704 C706 1.348 . S
C704 C707 1.356 . S
C704 O734 1.325 . S
N705 C708 1.314 . S
N705 C709 1.279 . S
C706 C704 1.348 . S
C706 C708 1.353 . S
C706 H748 0.929 . S
C707 C704 1.356 . S
C707 C709 1.358 . S
C707 H749 0.930 . S
C708 N705 1.314 . S
C708 C706 1.353 . S
C708 H750 0.930 . S
C709 N705 1.279 . S
C709 C707 1.358 . S
C709 H751 0.930 . S
C710 C711 1.348 . S
C710 C712 1.356 . S
C710 O735 1.325 . S
C711 C710 1.348 . S
C711 C713 1.353 . S
C711 H752 0.929 . S
C712 C710 1.356 . S
C712 C714 1.358 . S
C712 H753 0.930 . S
C713 C711 1.353 . S
C713 N715 1.314 . S
C713 H754 0.930 . S
C714 C712 1.358 . S
C714 N715 1.279 . S
C714 H755 0.930 . S
N715 C713 1.314 . S
N715 C714 1.279 . S
C716 C718 1.353 . S
C716 N719 1.314 . S
C716 H722 0.930 . S
C717 N719 1.279 . S
C717 C720 1.358 . S
C717 H723 0.930 . S
C718 C716 1.353 . S
C718 C721 1.348 . S
C718 H756 0.929 . S
N719 Li674 1.990 . S
N719 C716 1.314 . S
N719 C717 1.279 . S
C720 C717 1.358 . S
C720 C721 1.356 . S
C720 H757 0.930 . S
C721 C718 1.348 . S
C721 C720 1.356 . S
H722 C716 0.930 . S
H723 C717 0.930 . S
C724 N725 1.314 . S
C724 C726 1.353 . S
C724 H730 0.930 . S
N725 Li675 1.990 . S
N725 C724 1.314 . S
N725 C728 1.279 . S
C726 C724 1.353 . S
C726 C729 1.348 . S
C726 H758 0.929 . S
C727 C728 1.358 . S
C727 C729 1.356 . S
C727 H759 0.930 . S
C728 N725 1.279 . S
C728 C727 1.358 . S
C728 H731 0.930 . S
C729 C726 1.348 . S
C729 C727 1.356 . S
H730 C724 0.930 . S
H731 C728 0.930 . S
O732 Li672 1.956 . S
O732 Li673 1.970 . S
O732 Li674 1.961 . S
O732 C676 1.325 . S
O733 Li672 1.970 . S
O733 Li673 1.956 . S
O733 Li675 1.961 . S
O733 C682 1.325 . S
O734 Li672 1.961 . S
O734 Li674 1.956 . S
O734 Li675 1.970 . S
O734 C704 1.325 . S
O735 Li673 1.961 . S
O735 Li674 1.970 . S
O735 Li675 1.956 . S
O735 C710 1.325 . S
H736 C678 0.929 . S
H737 C679 0.930 . S
H738 C680 0.930 . S
H739 C681 0.930 . S
H740 C683 0.930 . S
H741 C685 0.929 . S
H742 C686 0.930 . S
H743 C687 0.930 . S
H744 C690 0.930 . S
H745 C693 0.929 . S
H746 C698 0.929 . S
H747 C699 0.930 . S
H748 C706 0.929 . S
H749 C707 0.930 . S
H750 C708 0.930 . S
H751 C709 0.930 . S
H752 C711 0.929 . S
H753 C712 0.930 . S
H754 C713 0.930 . S
H755 C714 0.930 . S
H756 C718 0.929 . S
H757 C720 0.930 . S
H758 C726 0.929 . S
H759 C727 0.930 . S
Li760 N777 1.990 . S
Li760 O820 1.956 . S
Li760 O821 1.970 1_565 S
Li760 O822 1.961 . S
Li761 N785 1.990 . S
Li761 O820 1.970 1_545 S
Li761 O821 1.956 . S
Li761 O823 1.961 . S
Li762 N807 1.990 . S
Li762 O820 1.961 . S
Li762 O822 1.956 . S
Li762 O823 1.970 1_565 S
Li763 N813 1.990 . S
Li763 O821 1.961 . S
Li763 O822 1.970 1_545 S
Li763 O823 1.956 . S
C764 C766 1.348 . S
C764 C767 1.356 . S
C764 O820 1.325 . S
N765 C768 1.314 . S
N765 C769 1.279 . S
C766 C764 1.348 . S
C766 C768 1.353 . S
C766 H824 0.929 . S
C767 C764 1.356 . S
C767 C769 1.358 . S
C767 H825 0.930 . S
C768 N765 1.314 . S
C768 C766 1.353 . S
C768 H826 0.930 . S
C769 N765 1.279 . S
C769 C767 1.358 . S
C769 H827 0.930 . S
C770 C773 1.348 1_545 S
C770 C774 1.356 . S
C770 O821 1.325 . S
C771 N772 1.279 . S
C771 C774 1.358 . S
C771 H828 0.930 . S
N772 C771 1.279 . S
N772 C775 1.314 1_545 S
C773 C770 1.348 1_565 S
C773 C775 1.353 . S
C773 H829 0.929 . S
C774 C770 1.356 . S
C774 C771 1.358 . S
C774 H830 0.930 . S
C775 N772 1.314 1_565 S
C775 C773 1.353 . S
C775 H831 0.930 . S
C776 N777 1.314 . S
C776 C781 1.353 . S
C776 H782 0.930 . S
N777 Li760 1.990 . S
N777 C776 1.314 . S
N777 C779 1.279 . S
C778 C779 1.358 . S
C778 C780 1.356 . S
C778 H832 0.930 . S
C779 N777 1.279 . S
C779 C778 1.358 . S
C779 H783 0.930 . S
C780 C778 1.356 . S
C780 C781 1.348 . S
C781 C776 1.353 . S
C781 C780 1.348 . S
C781 H833 0.929 . S
H782 C776 0.930 . S
H783 C779 0.930 . S
C784 N785 1.314 . S
C784 C786 1.353 . S
C784 H790 0.930 . S
N785 Li761 1.990 . S
N785 C784 1.314 . S
N785 C788 1.279 . S
C786 C784 1.353 . S
C786 C789 1.348 . S
C786 H834 0.929 . S
C787 C788 1.358 . S
C787 C789 1.356 . S
C787 H835 0.930 . S
C788 N785 1.279 . S
C788 C787 1.358 . S
C788 H791 0.930 . S
C789 C786 1.348 . S
C789 C787 1.356 . S
H790 C784 0.930 . S
H791 C788 0.930 . S
C792 C794 1.348 1_565 S
C792 C795 1.356 . S
C792 O822 1.325 . S
N793 C796 1.314 1_565 S
N793 C797 1.279 . S
C794 C792 1.348 1_545 S
C794 C796 1.353 . S
C794 H836 0.929 . S
C795 C792 1.356 . S
C795 C797 1.358 . S
C795 H837 0.930 . S
C796 N793 1.314 1_545 S
C796 C794 1.353 . S
C796 H838 0.930 . S
C797 N793 1.279 . S
C797 C795 1.358 . S
C797 H839 0.930 . S
C798 C799 1.348 . S
C798 C800 1.356 . S
C798 O823 1.325 . S
C799 C798 1.348 . S
C799 C801 1.353 . S
C799 H840 0.929 . S
C800 C798 1.356 . S
C800 C802 1.358 . S
C800 H841 0.930 . S
C801 C799 1.353 . S
C801 N803 1.314 . S
C801 H842 0.930 . S
C802 C800 1.358 . S
C802 N803 1.279 . S
C802 H843 0.930 . S
N803 C801 1.314 . S
N803 C802 1.279 . S
C804 C806 1.353 . S
C804 N807 1.314 . S
C804 H810 0.930 . S
C805 N807 1.279 . S
C805 C808 1.358 . S
C805 H811 0.930 . S
C806 C804 1.353 . S
C806 C809 1.348 . S
C806 H844 0.929 . S
N807 Li762 1.990 . S
N807 C804 1.314 . S
N807 C805 1.279 . S
C808 C805 1.358 . S
C808 C809 1.356 . S
C808 H845 0.930 . S
C809 C806 1.348 . S
C809 C808 1.356 . S
H810 C804 0.930 . S
H811 C805 0.930 . S
C812 N813 1.314 . S
C812 C814 1.353 . S
C812 H818 0.930 . S
N813 Li763 1.990 . S
N813 C812 1.314 . S
N813 C816 1.279 . S
C814 C812 1.353 . S
C814 C817 1.348 . S
C814 H846 0.929 . S
C815 C816 1.358 . S
C815 C817 1.356 . S
C815 H847 0.930 . S
C816 N813 1.279 . S
C816 C815 1.358 . S
C816 H819 0.930 . S
C817 C814 1.348 . S
C817 C815 1.356 . S
H818 C812 0.930 . S
H819 C816 0.930 . S
O820 Li760 1.956 . S
O820 Li761 1.970 1_565 S
O820 Li762 1.961 . S
O820 C764 1.325 . S
O821 Li760 1.970 1_545 S
O821 Li761 1.956 . S
O821 Li763 1.961 . S
O821 C770 1.325 . S
O822 Li760 1.961 . S
O822 Li762 1.956 . S
O822 Li763 1.970 1_565 S
O822 C792 1.325 . S
O823 Li761 1.961 . S
O823 Li762 1.970 1_545 S
O823 Li763 1.956 . S
O823 C798 1.325 . S
H824 C766 0.929 . S
H825 C767 0.930 . S
H826 C768 0.930 . S
H827 C769 0.930 . S
H828 C771 0.930 . S
H829 C773 0.929 . S
H830 C774 0.930 . S
H831 C775 0.930 . S
H832 C778 0.930 . S
H833 C781 0.929 . S
H834 C786 0.929 . S
H835 C787 0.930 . S
H836 C794 0.929 . S
H837 C795 0.930 . S
H838 C796 0.930 . S
H839 C797 0.930 . S
H840 C799 0.929 . S
H841 C800 0.930 . S
H842 C801 0.930 . S
H843 C802 0.930 . S
H844 C806 0.929 . S
H845 C808 0.930 . S
H846 C814 0.929 . S
H847 C815 0.930 . S
Li848 N865 1.990 . S
Li848 O908 1.956 . S
Li848 O909 1.970 1_455 S
Li848 O910 1.961 . S
Li849 N873 1.990 . S
Li849 O908 1.970 1_655 S
Li849 O909 1.956 . S
Li849 O911 1.961 . S
Li850 N895 1.990 . S
Li850 O908 1.961 . S
Li850 O910 1.956 . S
Li850 O911 1.970 1_455 S
Li851 N901 1.990 . S
Li851 O909 1.961 . S
Li851 O910 1.970 1_655 S
Li851 O911 1.956 . S
C852 C854 1.348 . S
C852 C855 1.356 . S
C852 O908 1.325 . S
N853 C856 1.314 . S
N853 C857 1.279 . S
C854 C852 1.348 . S
C854 C856 1.353 . S
C854 H912 0.929 . S
C855 C852 1.356 . S
C855 C857 1.358 . S
C855 H913 0.930 . S
C856 N853 1.314 . S
C856 C854 1.353 . S
C856 H914 0.930 . S
C857 N853 1.279 . S
C857 C855 1.358 . S
C857 H915 0.930 . S
C858 C861 1.348 1_655 S
C858 C862 1.356 . S
C858 O909 1.325 . S
C859 N860 1.279 . S
C859 C862 1.358 . S
C859 H916 0.930 . S
N860 C859 1.279 . S
N860 C863 1.314 1_655 S
C861 C858 1.348 1_455 S
C861 C863 1.353 . S
C861 H917 0.929 . S
C862 C858 1.356 . S
C862 C859 1.358 . S
C862 H918 0.930 . S
C863 N860 1.314 1_455 S
C863 C861 1.353 . S
C863 H919 0.930 . S
C864 N865 1.314 . S
C864 C869 1.353 . S
C864 H870 0.930 . S
N865 Li848 1.990 . S
N865 C864 1.314 . S
N865 C867 1.279 . S
C866 C867 1.358 . S
C866 C868 1.356 . S
C866 H920 0.930 . S
C867 N865 1.279 . S
C867 C866 1.358 . S
C867 H871 0.930 . S
C868 C866 1.356 . S
C868 C869 1.348 . S
C869 C864 1.353 . S
C869 C868 1.348 . S
C869 H921 0.929 . S
H870 C864 0.930 . S
H871 C867 0.930 . S
C872 N873 1.314 . S
C872 C874 1.353 . S
C872 H878 0.930 . S
N873 Li849 1.990 . S
N873 C872 1.314 . S
N873 C876 1.279 . S
C874 C872 1.353 . S
C874 C877 1.348 . S
C874 H922 0.929 . S
C875 C876 1.358 . S
C875 C877 1.356 . S
C875 H923 0.930 . S
C876 N873 1.279 . S
C876 C875 1.358 . S
C876 H879 0.930 . S
C877 C874 1.348 . S
C877 C875 1.356 . S
H878 C872 0.930 . S
H879 C876 0.930 . S
C880 C882 1.348 1_455 S
C880 C883 1.356 . S
C880 O910 1.325 . S
N881 C884 1.314 1_455 S
N881 C885 1.279 . S
C882 C880 1.348 1_655 S
C882 C884 1.353 . S
C882 H924 0.929 . S
C883 C880 1.356 . S
C883 C885 1.358 . S
C883 H925 0.930 . S
C884 N881 1.314 1_655 S
C884 C882 1.353 . S
C884 H926 0.930 . S
C885 N881 1.279 . S
C885 C883 1.358 . S
C885 H927 0.930 . S
C886 C887 1.348 . S
C886 C888 1.356 . S
C886 O911 1.325 . S
C887 C886 1.348 . S
C887 C889 1.353 . S
C887 H928 0.929 . S
C888 C886 1.356 . S
C888 C890 1.358 . S
C888 H929 0.930 . S
C889 C887 1.353 . S
C889 N891 1.314 . S
C889 H930 0.930 . S
C890 C888 1.358 . S
C890 N891 1.279 . S
C890 H931 0.930 . S
N891 C889 1.314 . S
N891 C890 1.279 . S
C892 C894 1.353 . S
C892 N895 1.314 . S
C892 H898 0.930 . S
C893 N895 1.279 . S
C893 C896 1.358 . S
C893 H899 0.930 . S
C894 C892 1.353 . S
C894 C897 1.348 . S
C894 H932 0.929 . S
N895 Li850 1.990 . S
N895 C892 1.314 . S
N895 C893 1.279 . S
C896 C893 1.358 . S
C896 C897 1.356 . S
C896 H933 0.930 . S
C897 C894 1.348 . S
C897 C896 1.356 . S
H898 C892 0.930 . S
H899 C893 0.930 . S
C900 N901 1.314 . S
C900 C902 1.353 . S
C900 H906 0.930 . S
N901 Li851 1.990 . S
N901 C900 1.314 . S
N901 C904 1.279 . S
C902 C900 1.353 . S
C902 C905 1.348 . S
C902 H934 0.929 . S
C903 C904 1.358 . S
C903 C905 1.356 . S
C903 H935 0.930 . S
C904 N901 1.279 . S
C904 C903 1.358 . S
C904 H907 0.930 . S
C905 C902 1.348 . S
C905 C903 1.356 . S
H906 C900 0.930 . S
H907 C904 0.930 . S
O908 Li848 1.956 . S
O908 Li849 1.970 1_455 S
O908 Li850 1.961 . S
O908 C852 1.325 . S
O909 Li848 1.970 1_655 S
O909 Li849 1.956 . S
O909 Li851 1.961 . S
O909 C858 1.325 . S
O910 Li848 1.961 . S
O910 Li850 1.956 . S
O910 Li851 1.970 1_455 S
O910 C880 1.325 . S
O911 Li849 1.961 . S
O911 Li850 1.970 1_655 S
O911 Li851 1.956 . S
O911 C886 1.325 . S
H912 C854 0.929 . S
H913 C855 0.930 . S
H914 C856 0.930 . S
H915 C857 0.930 . S
H916 C859 0.930 . S
H917 C861 0.929 . S
H918 C862 0.930 . S
H919 C863 0.930 . S
H920 C866 0.930 . S
H921 C869 0.929 . S
H922 C874 0.929 . S
H923 C875 0.930 . S
H924 C882 0.929 . S
H925 C883 0.930 . S
H926 C884 0.930 . S
H927 C885 0.930 . S
H928 C887 0.929 . S
H929 C888 0.930 . S
H930 C889 0.930 . S
H931 C890 0.930 . S
H932 C894 0.929 . S
H933 C896 0.930 . S
H934 C902 0.929 . S
H935 C903 0.930 . S
Li936 N953 1.990 . S
Li936 O996 1.956 . S
Li936 O997 1.970 . S
Li936 O998 1.961 . S
Li937 N961 1.990 . S
Li937 O996 1.970 . S
Li937 O997 1.956 . S
Li937 O999 1.961 . S
Li938 N983 1.990 . S
Li938 O996 1.961 . S
Li938 O998 1.956 . S
Li938 O999 1.970 . S
Li939 N989 1.990 . S
Li939 O997 1.961 . S
Li939 O998 1.970 . S
Li939 O999 1.956 . S
C940 C942 1.348 . S
C940 C943 1.356 . S
C940 O996 1.325 . S
N941 C944 1.314 . S
N941 C945 1.279 . S
C942 C940 1.348 . S
C942 C944 1.353 . S
C942 H1000 0.929 . S
C943 C940 1.356 . S
C943 C945 1.358 . S
C943 H1001 0.930 . S
C944 N941 1.314 . S
C944 C942 1.353 . S
C944 H1002 0.930 . S
C945 N941 1.279 . S
C945 C943 1.358 . S
C945 H1003 0.930 . S
C946 C949 1.348 . S
C946 C950 1.356 . S
C946 O997 1.325 . S
C947 N948 1.279 . S
C947 C950 1.358 . S
C947 H1004 0.930 . S
N948 C947 1.279 . S
N948 C951 1.314 . S
C949 C946 1.348 . S
C949 C951 1.353 . S
C949 H1005 0.929 . S
C950 C946 1.356 . S
C950 C947 1.358 . S
C950 H1006 0.930 . S
C951 N948 1.314 . S
C951 C949 1.353 . S
C951 H1007 0.930 . S
C952 N953 1.314 . S
C952 C957 1.353 . S
C952 H958 0.930 . S
N953 Li936 1.990 . S
N953 C952 1.314 . S
N953 C955 1.279 . S
C954 C955 1.358 . S
C954 C956 1.356 . S
C954 H1008 0.930 . S
C955 N953 1.279 . S
C955 C954 1.358 . S
C955 H959 0.930 . S
C956 C954 1.356 . S
C956 C957 1.348 . S
C957 C952 1.353 . S
C957 C956 1.348 . S
C957 H1009 0.929 . S
H958 C952 0.930 . S
H959 C955 0.930 . S
C960 N961 1.314 . S
C960 C962 1.353 . S
C960 H966 0.930 . S
N961 Li937 1.990 . S
N961 C960 1.314 . S
N961 C964 1.279 . S
C962 C960 1.353 . S
C962 C965 1.348 . S
C962 H1010 0.929 . S
C963 C964 1.358 . S
C963 C965 1.356 . S
C963 H1011 0.930 . S
C964 N961 1.279 . S
C964 C963 1.358 . S
C964 H967 0.930 . S
C965 C962 1.348 . S
C965 C963 1.356 . S
H966 C960 0.930 . S
H967 C964 0.930 . S
C968 C970 1.348 . S
C968 C971 1.356 . S
C968 O998 1.325 . S
N969 C972 1.314 . S
N969 C973 1.279 . S
C970 C968 1.348 . S
C970 C972 1.353 . S
C970 H1012 0.929 . S
C971 C968 1.356 . S
C971 C973 1.358 . S
C971 H1013 0.930 . S
C972 N969 1.314 . S
C972 C970 1.353 . S
C972 H1014 0.930 . S
C973 N969 1.279 . S
C973 C971 1.358 . S
C973 H1015 0.930 . S
C974 C975 1.348 . S
C974 C976 1.356 . S
C974 O999 1.325 . S
C975 C974 1.348 . S
C975 C977 1.353 . S
C975 H1016 0.929 . S
C976 C974 1.356 . S
C976 C978 1.358 . S
C976 H1017 0.930 . S
C977 C975 1.353 . S
C977 N979 1.314 . S
C977 H1018 0.930 . S
C978 C976 1.358 . S
C978 N979 1.279 . S
C978 H1019 0.930 . S
N979 C977 1.314 . S
N979 C978 1.279 . S
C980 C982 1.353 . S
C980 N983 1.314 . S
C980 H986 0.930 . S
C981 N983 1.279 . S
C981 C984 1.358 . S
C981 H987 0.930 . S
C982 C980 1.353 . S
C982 C985 1.348 . S
C982 H1020 0.929 . S
N983 Li938 1.990 . S
N983 C980 1.314 . S
N983 C981 1.279 . S
C984 C981 1.358 . S
C984 C985 1.356 . S
C984 H1021 0.930 . S
C985 C982 1.348 . S
C985 C984 1.356 . S
H986 C980 0.930 . S
H987 C981 0.930 . S
C988 N989 1.314 . S
C988 C990 1.353 . S
C988 H994 0.930 . S
N989 Li939 1.990 . S
N989 C988 1.314 . S
N989 C992 1.279 . S
C990 C988 1.353 . S
C990 C993 1.348 . S
C990 H1022 0.929 . S
C991 C992 1.358 . S
C991 C993 1.356 . S
C991 H1023 0.930 . S
C992 N989 1.279 . S
C992 C991 1.358 . S
C992 H995 0.930 . S
C993 C990 1.348 . S
C993 C991 1.356 . S
H994 C988 0.930 . S
H995 C992 0.930 . S
O996 Li936 1.956 . S
O996 Li937 1.970 . S
O996 Li938 1.961 . S
O996 C940 1.325 . S
O997 Li936 1.970 . S
O997 Li937 1.956 . S
O997 Li939 1.961 . S
O997 C946 1.325 . S
O998 Li936 1.961 . S
O998 Li938 1.956 . S
O998 Li939 1.970 . S
O998 C968 1.325 . S
O999 Li937 1.961 . S
O999 Li938 1.970 . S
O999 Li939 1.956 . S
O999 C974 1.325 . S
H1000 C942 0.929 . S
H1001 C943 0.930 . S
H1002 C944 0.930 . S
H1003 C945 0.930 . S
H1004 C947 0.930 . S
H1005 C949 0.929 . S
H1006 C950 0.930 . S
H1007 C951 0.930 . S
H1008 C954 0.930 . S
H1009 C957 0.929 . S
H1010 C962 0.929 . S
H1011 C963 0.930 . S
H1012 C970 0.929 . S
H1013 C971 0.930 . S
H1014 C972 0.930 . S
H1015 C973 0.930 . S
H1016 C975 0.929 . S
H1017 C976 0.930 . S
H1018 C977 0.930 . S
H1019 C978 0.930 . S
H1020 C982 0.929 . S
H1021 C984 0.930 . S
H1022 C990 0.929 . S
H1023 C991 0.930 . S
Li1024 N1041 1.990 . S
Li1024 O1084 1.956 . S
Li1024 O1085 1.970 1_455 S
Li1024 O1086 1.961 . S
Li1025 N1049 1.990 . S
Li1025 O1084 1.970 1_655 S
Li1025 O1085 1.956 . S
Li1025 O1087 1.961 . S
Li1026 N1071 1.990 . S
Li1026 O1084 1.961 . S
Li1026 O1086 1.956 . S
Li1026 O1087 1.970 1_455 S
Li1027 N1077 1.990 . S
Li1027 O1085 1.961 . S
Li1027 O1086 1.970 1_655 S
Li1027 O1087 1.956 . S
C1028 C1030 1.348 1_455 S
C1028 C1031 1.356 . S
C1028 O1084 1.325 . S
N1029 C1032 1.314 1_455 S
N1029 C1033 1.279 . S
C1030 C1028 1.348 1_655 S
C1030 C1032 1.353 . S
C1030 H1088 0.929 . S
C1031 C1028 1.356 . S
C1031 C1033 1.358 . S
C1031 H1089 0.930 . S
C1032 N1029 1.314 1_655 S
C1032 C1030 1.353 . S
C1032 H1090 0.930 . S
C1033 N1029 1.279 . S
C1033 C1031 1.358 . S
C1033 H1091 0.930 . S
C1034 C1037 1.348 . S
C1034 C1038 1.356 . S
C1034 O1085 1.325 . S
C1035 N1036 1.279 . S
C1035 C1038 1.358 . S
C1035 H1092 0.930 . S
N1036 C1035 1.279 . S
N1036 C1039 1.314 . S
C1037 C1034 1.348 . S
C1037 C1039 1.353 . S
C1037 H1093 0.929 . S
C1038 C1034 1.356 . S
C1038 C1035 1.358 . S
C1038 H1094 0.930 . S
C1039 N1036 1.314 . S
C1039 C1037 1.353 . S
C1039 H1095 0.930 . S
C1040 N1041 1.314 . S
C1040 C1045 1.353 . S
C1040 H1046 0.930 . S
N1041 Li1024 1.990 . S
N1041 C1040 1.314 . S
N1041 C1043 1.279 . S
C1042 C1043 1.358 . S
C1042 C1044 1.356 . S
C1042 H1096 0.930 . S
C1043 N1041 1.279 . S
C1043 C1042 1.358 . S
C1043 H1047 0.930 . S
C1044 C1042 1.356 . S
C1044 C1045 1.348 . S
C1045 C1040 1.353 . S
C1045 C1044 1.348 . S
C1045 H1097 0.929 . S
H1046 C1040 0.930 . S
H1047 C1043 0.930 . S
C1048 N1049 1.314 . S
C1048 C1050 1.353 . S
C1048 H1054 0.930 . S
N1049 Li1025 1.990 . S
N1049 C1048 1.314 . S
N1049 C1052 1.279 . S
C1050 C1048 1.353 . S
C1050 C1053 1.348 . S
C1050 H1098 0.929 . S
C1051 C1052 1.358 . S
C1051 C1053 1.356 . S
C1051 H1099 0.930 . S
C1052 N1049 1.279 . S
C1052 C1051 1.358 . S
C1052 H1055 0.930 . S
C1053 C1050 1.348 . S
C1053 C1051 1.356 . S
H1054 C1048 0.930 . S
H1055 C1052 0.930 . S
C1056 C1058 1.348 . S
C1056 C1059 1.356 . S
C1056 O1086 1.325 . S
N1057 C1060 1.314 . S
N1057 C1061 1.279 . S
C1058 C1056 1.348 . S
C1058 C1060 1.353 . S
C1058 H1100 0.929 . S
C1059 C1056 1.356 . S
C1059 C1061 1.358 . S
C1059 H1101 0.930 . S
C1060 N1057 1.314 . S
C1060 C1058 1.353 . S
C1060 H1102 0.930 . S
C1061 N1057 1.279 . S
C1061 C1059 1.358 . S
C1061 H1103 0.930 . S
C1062 C1063 1.348 1_655 S
C1062 C1064 1.356 . S
C1062 O1087 1.325 . S
C1063 C1062 1.348 1_455 S
C1063 C1065 1.353 . S
C1063 H1104 0.929 . S
C1064 C1062 1.356 . S
C1064 C1066 1.358 . S
C1064 H1105 0.930 . S
C1065 C1063 1.353 . S
C1065 N1067 1.314 1_455 S
C1065 H1106 0.930 . S
C1066 C1064 1.358 . S
C1066 N1067 1.279 . S
C1066 H1107 0.930 . S
N1067 C1065 1.314 1_655 S
N1067 C1066 1.279 . S
C1068 C1070 1.353 . S
C1068 N1071 1.314 . S
C1068 H1074 0.930 . S
C1069 N1071 1.279 . S
C1069 C1072 1.358 . S
C1069 H1075 0.930 . S
C1070 C1068 1.353 . S
C1070 C1073 1.348 . S
C1070 H1108 0.929 . S
N1071 Li1026 1.990 . S
N1071 C1068 1.314 . S
N1071 C1069 1.279 . S
C1072 C1069 1.358 . S
C1072 C1073 1.356 . S
C1072 H1109 0.930 . S
C1073 C1070 1.348 . S
C1073 C1072 1.356 . S
H1074 C1068 0.930 . S
H1075 C1069 0.930 . S
C1076 N1077 1.314 . S
C1076 C1078 1.353 . S
C1076 H1082 0.930 . S
N1077 Li1027 1.990 . S
N1077 C1076 1.314 . S
N1077 C1080 1.279 . S
C1078 C1076 1.353 . S
C1078 C1081 1.348 . S
C1078 H1110 0.929 . S
C1079 C1080 1.358 . S
C1079 C1081 1.356 . S
C1079 H1111 0.930 . S
C1080 N1077 1.279 . S
C1080 C1079 1.358 . S
C1080 H1083 0.930 . S
C1081 C1078 1.348 . S
C1081 C1079 1.356 . S
H1082 C1076 0.930 . S
H1083 C1080 0.930 . S
O1084 Li1024 1.956 . S
O1084 Li1025 1.970 1_455 S
O1084 Li1026 1.961 . S
O1084 C1028 1.325 . S
O1085 Li1024 1.970 1_655 S
O1085 Li1025 1.956 . S
O1085 Li1027 1.961 . S
O1085 C1034 1.325 . S
O1086 Li1024 1.961 . S
O1086 Li1026 1.956 . S
O1086 Li1027 1.970 1_455 S
O1086 C1056 1.325 . S
O1087 Li1025 1.961 . S
O1087 Li1026 1.970 1_655 S
O1087 Li1027 1.956 . S
O1087 C1062 1.325 . S
H1088 C1030 0.929 . S
H1089 C1031 0.930 . S
H1090 C1032 0.930 . S
H1091 C1033 0.930 . S
H1092 C1035 0.930 . S
H1093 C1037 0.929 . S
H1094 C1038 0.930 . S
H1095 C1039 0.930 . S
H1096 C1042 0.930 . S
H1097 C1045 0.929 . S
H1098 C1050 0.929 . S
H1099 C1051 0.930 . S
H1100 C1058 0.929 . S
H1101 C1059 0.930 . S
H1102 C1060 0.930 . S
H1103 C1061 0.930 . S
H1104 C1063 0.929 . S
H1105 C1064 0.930 . S
H1106 C1065 0.930 . S
H1107 C1066 0.930 . S
H1108 C1070 0.929 . S
H1109 C1072 0.930 . S
H1110 C1078 0.929 . S
H1111 C1079 0.930 . S
Li1112 N1129 1.990 . S
Li1112 O1172 1.956 . S
Li1112 O1173 1.970 . S
Li1112 O1174 1.961 . S
Li1113 N1137 1.990 . S
Li1113 O1172 1.970 . S
Li1113 O1173 1.956 . S
Li1113 O1175 1.961 . S
Li1114 N1159 1.990 . S
Li1114 O1172 1.961 . S
Li1114 O1174 1.956 . S
Li1114 O1175 1.970 . S
Li1115 N1165 1.990 . S
Li1115 O1173 1.961 . S
Li1115 O1174 1.970 . S
Li1115 O1175 1.956 . S
C1116 C1118 1.348 . S
C1116 C1119 1.356 . S
C1116 O1172 1.325 . S
N1117 C1120 1.314 . S
N1117 C1121 1.279 . S
C1118 C1116 1.348 . S
C1118 C1120 1.353 . S
C1118 H1176 0.929 . S
C1119 C1116 1.356 . S
C1119 C1121 1.358 . S
C1119 H1177 0.930 . S
C1120 N1117 1.314 . S
C1120 C1118 1.353 . S
C1120 H1178 0.930 . S
C1121 N1117 1.279 . S
C1121 C1119 1.358 . S
C1121 H1179 0.930 . S
C1122 C1125 1.348 . S
C1122 C1126 1.356 . S
C1122 O1173 1.325 . S
C1123 N1124 1.279 . S
C1123 C1126 1.358 . S
C1123 H1180 0.930 . S
N1124 C1123 1.279 . S
N1124 C1127 1.314 . S
C1125 C1122 1.348 . S
C1125 C1127 1.353 . S
C1125 H1181 0.929 . S
C1126 C1122 1.356 . S
C1126 C1123 1.358 . S
C1126 H1182 0.930 . S
C1127 N1124 1.314 . S
C1127 C1125 1.353 . S
C1127 H1183 0.930 . S
C1128 N1129 1.314 . S
C1128 C1133 1.353 . S
C1128 H1134 0.930 . S
N1129 Li1112 1.990 . S
N1129 C1128 1.314 . S
N1129 C1131 1.279 . S
C1130 C1131 1.358 . S
C1130 C1132 1.356 . S
C1130 H1184 0.930 . S
C1131 N1129 1.279 . S
C1131 C1130 1.358 . S
C1131 H1135 0.930 . S
C1132 C1130 1.356 . S
C1132 C1133 1.348 . S
C1133 C1128 1.353 . S
C1133 C1132 1.348 . S
C1133 H1185 0.929 . S
H1134 C1128 0.930 . S
H1135 C1131 0.930 . S
C1136 N1137 1.314 . S
C1136 C1138 1.353 . S
C1136 H1142 0.930 . S
N1137 Li1113 1.990 . S
N1137 C1136 1.314 . S
N1137 C1140 1.279 . S
C1138 C1136 1.353 . S
C1138 C1141 1.348 . S
C1138 H1186 0.929 . S
C1139 C1140 1.358 . S
C1139 C1141 1.356 . S
C1139 H1187 0.930 . S
C1140 N1137 1.279 . S
C1140 C1139 1.358 . S
C1140 H1143 0.930 . S
C1141 C1138 1.348 . S
C1141 C1139 1.356 . S
H1142 C1136 0.930 . S
H1143 C1140 0.930 . S
C1144 C1146 1.348 . S
C1144 C1147 1.356 . S
C1144 O1174 1.325 . S
N1145 C1148 1.314 . S
N1145 C1149 1.279 . S
C1146 C1144 1.348 . S
C1146 C1148 1.353 . S
C1146 H1188 0.929 . S
C1147 C1144 1.356 . S
C1147 C1149 1.358 . S
C1147 H1189 0.930 . S
C1148 N1145 1.314 . S
C1148 C1146 1.353 . S
C1148 H1190 0.930 . S
C1149 N1145 1.279 . S
C1149 C1147 1.358 . S
C1149 H1191 0.930 . S
C1150 C1151 1.348 . S
C1150 C1152 1.356 . S
C1150 O1175 1.325 . S
C1151 C1150 1.348 . S
C1151 C1153 1.353 . S
C1151 H1192 0.929 . S
C1152 C1150 1.356 . S
C1152 C1154 1.358 . S
C1152 H1193 0.930 . S
C1153 C1151 1.353 . S
C1153 N1155 1.314 . S
C1153 H1194 0.930 . S
C1154 C1152 1.358 . S
C1154 N1155 1.279 . S
C1154 H1195 0.930 . S
N1155 C1153 1.314 . S
N1155 C1154 1.279 . S
C1156 C1158 1.353 . S
C1156 N1159 1.314 . S
C1156 H1162 0.930 . S
C1157 N1159 1.279 . S
C1157 C1160 1.358 . S
C1157 H1163 0.930 . S
C1158 C1156 1.353 . S
C1158 C1161 1.348 . S
C1158 H1196 0.929 . S
N1159 Li1114 1.990 . S
N1159 C1156 1.314 . S
N1159 C1157 1.279 . S
C1160 C1157 1.358 . S
C1160 C1161 1.356 . S
C1160 H1197 0.930 . S
C1161 C1158 1.348 . S
C1161 C1160 1.356 . S
H1162 C1156 0.930 . S
H1163 C1157 0.930 . S
C1164 N1165 1.314 . S
C1164 C1166 1.353 . S
C1164 H1170 0.930 . S
N1165 Li1115 1.990 . S
N1165 C1164 1.314 . S
N1165 C1168 1.279 . S
C1166 C1164 1.353 . S
C1166 C1169 1.348 . S
C1166 H1198 0.929 . S
C1167 C1168 1.358 . S
C1167 C1169 1.356 . S
C1167 H1199 0.930 . S
C1168 N1165 1.279 . S
C1168 C1167 1.358 . S
C1168 H1171 0.930 . S
C1169 C1166 1.348 . S
C1169 C1167 1.356 . S
H1170 C1164 0.930 . S
H1171 C1168 0.930 . S
O1172 Li1112 1.956 . S
O1172 Li1113 1.970 . S
O1172 Li1114 1.961 . S
O1172 C1116 1.325 . S
O1173 Li1112 1.970 . S
O1173 Li1113 1.956 . S
O1173 Li1115 1.961 . S
O1173 C1122 1.325 . S
O1174 Li1112 1.961 . S
O1174 Li1114 1.956 . S
O1174 Li1115 1.970 . S
O1174 C1144 1.325 . S
O1175 Li1113 1.961 . S
O1175 Li1114 1.970 . S
O1175 Li1115 1.956 . S
O1175 C1150 1.325 . S
H1176 C1118 0.929 . S
H1177 C1119 0.930 . S
H1178 C1120 0.930 . S
H1179 C1121 0.930 . S
H1180 C1123 0.930 . S
H1181 C1125 0.929 . S
H1182 C1126 0.930 . S
H1183 C1127 0.930 . S
H1184 C1130 0.930 . S
H1185 C1133 0.929 . S
H1186 C1138 0.929 . S
H1187 C1139 0.930 . S
H1188 C1146 0.929 . S
H1189 C1147 0.930 . S
H1190 C1148 0.930 . S
H1191 C1149 0.930 . S
H1192 C1151 0.929 . S
H1193 C1152 0.930 . S
H1194 C1153 0.930 . S
H1195 C1154 0.930 . S
H1196 C1158 0.929 . S
H1197 C1160 0.930 . S
H1198 C1166 0.929 . S
H1199 C1167 0.930 . S
C1200 C1201 1.369 . S
C1200 C1202 1.419 . S
C1200 H1204 0.930 . S
C1201 C1200 1.369 . S
C1201 C1210 1.429 . S
C1202 C1200 1.419 . S
C1202 C1203 1.363 . S
C1202 H1205 0.929 . S
C1203 C1202 1.363 . S
C1203 C1209 1.428 . S
H1204 C1200 0.930 . S
H1205 C1202 0.929 . S
S1206 N1207 1.613 . S
S1206 N1208 1.610 . S
N1207 S1206 1.613 . S
N1207 C1210 1.350 . S
N1208 S1206 1.610 . S
N1208 C1209 1.351 . S
C1209 C1203 1.428 . S
C1209 N1208 1.351 . S
C1209 C1210 1.434 . S
C1210 C1201 1.429 . S
C1210 N1207 1.350 . S
C1210 C1209 1.434 . S
C1211 C1212 1.369 1_655 S
C1211 C1213 1.419 1_655 S
C1211 H1215 0.930 . S
C1212 C1211 1.369 1_455 S
C1212 C1221 1.429 . S
C1213 C1211 1.419 1_455 S
C1213 C1214 1.363 . S
C1213 H1216 0.929 . S
C1214 C1213 1.363 . S
C1214 C1220 1.428 . S
H1215 C1211 0.930 . S
H1216 C1213 0.929 . S
S1217 N1218 1.613 . S
S1217 N1219 1.610 . S
N1218 S1217 1.613 . S
N1218 C1221 1.350 . S
N1219 S1217 1.610 . S
N1219 C1220 1.351 . S
C1220 C1214 1.428 . S
C1220 N1219 1.351 . S
C1220 C1221 1.434 . S
C1221 C1212 1.429 . S
C1221 N1218 1.350 . S
C1221 C1220 1.434 . S
C1222 C1223 1.369 . S
C1222 C1224 1.419 . S
C1222 H1226 0.930 . S
C1223 C1222 1.369 . S
C1223 C1232 1.429 . S
C1224 C1222 1.419 . S
C1224 C1225 1.363 . S
C1224 H1227 0.929 . S
C1225 C1224 1.363 . S
C1225 C1231 1.428 . S
H1226 C1222 0.930 . S
H1227 C1224 0.929 . S
S1228 N1229 1.613 . S
S1228 N1230 1.610 . S
N1229 S1228 1.613 . S
N1229 C1232 1.350 . S
N1230 S1228 1.610 . S
N1230 C1231 1.351 . S
C1231 C1225 1.428 . S
C1231 N1230 1.351 . S
C1231 C1232 1.434 . S
C1232 C1223 1.429 . S
C1232 N1229 1.350 . S
C1232 C1231 1.434 . S
C1233 C1234 1.369 . S
C1233 C1235 1.419 . S
C1233 H1237 0.930 . S
C1234 C1233 1.369 . S
C1234 C1243 1.457 1_655 S
C1235 C1233 1.419 . S
C1235 C1236 1.363 . S
C1235 H1238 0.929 . S
C1236 C1235 1.363 . S
C1236 C1242 1.428 1_565 S
H1237 C1233 0.930 . S
H1238 C1235 0.929 . S
S1239 N1240 1.613 . S
S1239 N1241 1.610 1_455 S
N1240 S1239 1.613 . S
N1240 C1243 1.322 1_545 S
N1241 S1239 1.610 1_655 S
N1241 C1242 1.351 . S
C1242 C1236 1.428 1_545 S
C1242 N1241 1.351 . S
C1242 C1243 1.431 1_645 S
C1243 C1234 1.457 1_455 S
C1243 N1240 1.322 1_565 S
C1243 C1242 1.431 1_465 S
C1244 C1245 1.369 . S
C1244 C1246 1.419 . S
C1244 H1248 0.930 . S
C1245 C1244 1.369 . S
C1245 C1254 1.429 . S
C1246 C1244 1.419 . S
C1246 C1247 1.363 . S
C1246 H1249 0.929 . S
C1247 C1246 1.363 . S
C1247 C1253 1.428 . S
H1248 C1244 0.930 . S
H1249 C1246 0.929 . S
S1250 N1251 1.613 . S
S1250 N1252 1.610 . S
N1251 S1250 1.613 . S
N1251 C1254 1.350 . S
N1252 S1250 1.610 . S
N1252 C1253 1.351 . S
C1253 C1247 1.428 . S
C1253 N1252 1.351 . S
C1253 C1254 1.434 . S
C1254 C1245 1.429 . S
C1254 N1251 1.350 . S
C1254 C1253 1.434 . S
C1255 C1256 1.369 . S
C1255 C1257 1.419 . S
C1255 H1259 0.930 . S
C1256 C1255 1.369 . S
C1256 C1265 1.429 . S
C1257 C1255 1.419 . S
C1257 C1258 1.363 . S
C1257 H1260 0.929 . S
C1258 C1257 1.363 . S
C1258 C1264 1.428 . S
H1259 C1255 0.930 . S
H1260 C1257 0.929 . S
S1261 N1262 1.613 . S
S1261 N1263 1.610 . S
N1262 S1261 1.613 . S
N1262 C1265 1.350 . S
N1263 S1261 1.610 . S
N1263 C1264 1.351 . S
C1264 C1258 1.428 . S
C1264 N1263 1.351 . S
C1264 C1265 1.434 . S
C1265 C1256 1.429 . S
C1265 N1262 1.350 . S
C1265 C1264 1.434 . S
C1266 C1267 1.369 . S
C1266 C1268 1.419 . S
C1266 H1270 0.930 . S
C1267 C1266 1.369 . S
C1267 C1276 1.429 . S
C1268 C1266 1.419 . S
C1268 C1269 1.363 . S
C1268 H1271 0.929 . S
C1269 C1268 1.363 . S
C1269 C1275 1.428 . S
H1270 C1266 0.930 . S
H1271 C1268 0.929 . S
S1272 N1273 1.613 . S
S1272 N1274 1.610 . S
N1273 S1272 1.613 . S
N1273 C1276 1.350 . S
N1274 S1272 1.610 . S
N1274 C1275 1.351 . S
C1275 C1269 1.428 . S
C1275 N1274 1.351 . S
C1275 C1276 1.434 . S
C1276 C1267 1.429 . S
C1276 N1273 1.350 . S
C1276 C1275 1.434 . S
C1277 C1278 1.373 . S
C1277 C1279 1.418 1_565 S
C1277 H1281 0.926 1_565 S
C1278 C1277 1.373 . S
C1278 C1287 1.429 . S
C1279 C1277 1.418 1_545 S
C1279 C1280 1.363 1_545 S
C1279 H1282 0.929 . S
C1280 C1279 1.363 1_565 S
C1280 C1286 1.428 . S
H1281 C1277 0.926 1_545 S
H1282 C1279 0.929 . S
S1283 N1284 1.613 . S
S1283 N1285 1.610 . S
N1284 S1283 1.613 . S
N1284 C1287 1.350 . S
N1285 S1283 1.610 . S
N1285 C1286 1.351 . S
C1286 C1280 1.428 . S
C1286 N1285 1.351 . S
C1286 C1287 1.434 . S
C1287 C1278 1.429 . S
C1287 N1284 1.350 . S
C1287 C1286 1.434 . S
C1288 C1289 1.369 . S
C1288 C1290 1.419 . S
C1288 H1292 0.930 . S
C1289 C1288 1.369 . S
C1289 C1298 1.429 . S
C1290 C1288 1.419 . S
C1290 C1291 1.363 . S
C1290 H1293 0.929 . S
C1291 C1290 1.363 . S
C1291 C1297 1.428 . S
H1292 C1288 0.930 . S
H1293 C1290 0.929 . S
S1294 N1295 1.613 . S
S1294 N1296 1.610 . S
N1295 S1294 1.613 . S
N1295 C1298 1.350 . S
N1296 S1294 1.610 . S
N1296 C1297 1.351 . S
C1297 C1291 1.428 . S
C1297 N1296 1.351 . S
C1297 C1298 1.434 . S
C1298 C1289 1.429 . S
C1298 N1295 1.350 . S
C1298 C1297 1.434 . S
C1299 C1300 1.369 . S
C1299 C1301 1.419 . S
C1299 H1303 0.930 . S
C1300 C1299 1.369 . S
C1300 C1309 1.429 . S
C1301 C1299 1.419 . S
C1301 C1302 1.363 . S
C1301 H1304 0.929 . S
C1302 C1301 1.363 . S
C1302 C1308 1.428 . S
H1303 C1299 0.930 . S
H1304 C1301 0.929 . S
S1305 N1306 1.613 . S
S1305 N1307 1.610 . S
N1306 S1305 1.613 . S
N1306 C1309 1.350 . S
N1307 S1305 1.610 . S
N1307 C1308 1.351 . S
C1308 C1302 1.428 . S
C1308 N1307 1.351 . S
C1308 C1309 1.434 . S
C1309 C1300 1.429 . S
C1309 N1306 1.350 . S
C1309 C1308 1.434 . S
C1310 C1311 1.369 . S
C1310 C1312 1.419 . S
C1310 H1314 0.930 . S
C1311 C1310 1.369 . S
C1311 C1320 1.429 . S
C1312 C1310 1.419 . S
C1312 C1313 1.363 . S
C1312 H1315 0.929 . S
C1313 C1312 1.363 . S
C1313 C1319 1.428 . S
H1314 C1310 0.930 . S
H1315 C1312 0.929 . S
S1316 N1317 1.613 . S
S1316 N1318 1.610 . S
N1317 S1316 1.613 . S
N1317 C1320 1.350 . S
N1318 S1316 1.610 . S
N1318 C1319 1.351 . S
C1319 C1313 1.428 . S
C1319 N1318 1.351 . S
C1319 C1320 1.434 . S
C1320 C1311 1.429 . S
C1320 N1317 1.350 . S
C1320 C1319 1.434 . S
C1321 C1322 1.369 . S
C1321 C1323 1.419 . S
C1321 H1325 0.930 . S
C1322 C1321 1.369 . S
C1322 C1331 1.429 . S
C1323 C1321 1.419 . S
C1323 C1324 1.363 . S
C1323 H1326 0.929 . S
C1324 C1323 1.363 . S
C1324 C1330 1.428 . S
H1325 C1321 0.930 . S
H1326 C1323 0.929 . S
S1327 N1328 1.613 . S
S1327 N1329 1.610 . S
N1328 S1327 1.613 . S
N1328 C1331 1.350 . S
N1329 S1327 1.610 . S
N1329 C1330 1.351 . S
C1330 C1324 1.428 . S
C1330 N1329 1.351 . S
C1330 C1331 1.434 . S
C1331 C1322 1.429 . S
C1331 N1328 1.350 . S
C1331 C1330 1.434 . S
C1332 C1333 1.369 . S
C1332 C1334 1.419 . S
C1332 H1336 0.930 . S
C1333 C1332 1.369 . S
C1333 C1342 1.429 . S
C1334 C1332 1.419 . S
C1334 C1335 1.363 . S
C1334 H1337 0.929 . S
C1335 C1334 1.363 . S
C1335 C1341 1.428 . S
H1336 C1332 0.930 . S
H1337 C1334 0.929 . S
S1338 N1339 1.613 . S
S1338 N1340 1.610 . S
N1339 S1338 1.613 . S
N1339 C1342 1.350 . S
N1340 S1338 1.610 . S
N1340 C1341 1.351 . S
C1341 C1335 1.428 . S
C1341 N1340 1.351 . S
C1341 C1342 1.434 . S
C1342 C1333 1.429 . S
C1342 N1339 1.350 . S
C1342 C1341 1.434 . S
C1343 C1344 1.369 . S
C1343 C1345 1.419 . S
C1343 H1347 0.930 1_455 S
C1344 C1343 1.369 . S
C1344 C1353 1.429 . S
C1345 C1343 1.419 . S
C1345 C1346 1.363 . S
C1345 H1348 0.929 1_455 S
C1346 C1345 1.363 . S
C1346 C1352 1.428 . S
H1347 C1343 0.930 1_655 S
H1348 C1345 0.929 1_655 S
S1349 N1350 1.613 . S
S1349 N1351 1.610 . S
N1350 S1349 1.613 . S
N1350 C1353 1.350 . S
N1351 S1349 1.610 . S
N1351 C1352 1.351 . S
C1352 C1346 1.428 . S
C1352 N1351 1.351 . S
C1352 C1353 1.434 . S
C1353 C1344 1.429 . S
C1353 N1350 1.350 . S
C1353 C1352 1.434 . S
C1354 C1355 1.369 . S
C1354 C1356 1.419 . S
C1354 H1358 0.930 . S
C1355 C1354 1.369 . S
C1355 C1364 1.429 . S
C1356 C1354 1.419 . S
C1356 C1357 1.363 . S
C1356 H1359 0.929 . S
C1357 C1356 1.363 . S
C1357 C1363 1.428 . S
H1358 C1354 0.930 . S
H1359 C1356 0.929 . S
S1360 N1361 1.613 . S
S1360 N1362 1.610 . S
N1361 S1360 1.613 . S
N1361 C1364 1.350 . S
N1362 S1360 1.610 . S
N1362 C1363 1.351 . S
C1363 C1357 1.428 . S
C1363 N1362 1.351 . S
C1363 C1364 1.434 . S
C1364 C1355 1.429 . S
C1364 N1361 1.350 . S
C1364 C1363 1.434 . S
C1365 C1366 1.369 . S
C1365 C1367 1.421 . S
C1365 H1369 0.930 1_655 S
C1366 C1365 1.369 . S
C1366 C1375 1.429 . S
C1367 C1365 1.421 . S
C1367 C1368 1.380 . S
C1367 H1370 0.909 1_655 S
C1368 C1367 1.380 . S
C1368 C1374 1.428 . S
H1369 C1365 0.930 1_455 S
H1370 C1367 0.909 1_455 S
S1371 N1372 1.613 . S
S1371 N1373 1.610 . S
N1372 S1371 1.613 . S
N1372 C1375 1.350 . S
N1373 S1371 1.610 . S
N1373 C1374 1.351 . S
C1374 C1368 1.428 . S
C1374 N1373 1.351 . S
C1374 C1375 1.434 . S
C1375 C1366 1.429 . S
C1375 N1372 1.350 . S
C1375 C1374 1.434 . S
C1376 C1377 1.369 . S
C1376 C1378 1.419 . S
C1376 H1380 0.930 . S
C1377 C1376 1.369 . S
C1377 C1386 1.429 . S
C1378 C1376 1.419 . S
C1378 C1379 1.363 . S
C1378 H1381 0.929 . S
C1379 C1378 1.363 . S
C1379 C1385 1.428 . S
H1380 C1376 0.930 . S
H1381 C1378 0.929 . S
S1382 N1383 1.613 . S
S1382 N1384 1.610 . S
N1383 S1382 1.613 . S
N1383 C1386 1.350 . S
N1384 S1382 1.610 . S
N1384 C1385 1.351 . S
C1385 C1379 1.428 . S
C1385 N1384 1.351 . S
C1385 C1386 1.434 . S
C1386 C1377 1.429 . S
C1386 N1383 1.350 . S
C1386 C1385 1.434 . S
C1387 C1388 1.369 . S
C1387 C1389 1.419 . S
C1387 H1391 0.930 . S
C1388 C1387 1.369 . S
C1388 C1397 1.429 . S
C1389 C1387 1.419 . S
C1389 C1390 1.363 . S
C1389 H1392 0.929 . S
C1390 C1389 1.363 . S
C1390 C1396 1.428 . S
H1391 C1387 0.930 . S
H1392 C1389 0.929 . S
S1393 N1394 1.613 . S
S1393 N1395 1.610 . S
N1394 S1393 1.613 . S
N1394 C1397 1.350 . S
N1395 S1393 1.610 . S
N1395 C1396 1.351 . S
C1396 C1390 1.428 . S
C1396 N1395 1.351 . S
C1396 C1397 1.434 . S
C1397 C1388 1.429 . S
C1397 N1394 1.350 . S
C1397 C1396 1.434 . S
C1398 C1399 1.370 . S
C1398 C1400 1.428 . S
C1398 H1402 0.919 1_565 S
C1399 C1398 1.370 . S
C1399 C1408 1.429 . S
C1400 C1398 1.428 . S
C1400 C1401 1.363 . S
C1400 H1403 0.929 . S
C1401 C1400 1.363 . S
C1401 C1407 1.409 1_556 S
H1402 C1398 0.919 1_545 S
H1403 C1400 0.929 . S
S1404 N1405 1.613 . S
S1404 N1406 1.610 . S
N1405 S1404 1.613 . S
N1405 C1408 1.350 1_554 S
N1406 S1404 1.610 . S
N1406 C1407 1.374 . S
C1407 C1401 1.409 1_554 S
C1407 N1406 1.374 . S
C1407 C1408 1.431 1_554 S
C1408 C1399 1.429 . S
C1408 N1405 1.350 1_556 S
C1408 C1407 1.431 1_556 S
C1409 C1410 1.369 . S
C1409 C1411 1.419 . S
C1409 H1413 0.930 . S
C1410 C1409 1.369 . S
C1410 C1419 1.429 . S
C1411 C1409 1.419 . S
C1411 C1412 1.363 . S
C1411 H1414 0.929 . S
C1412 C1411 1.363 . S
C1412 C1418 1.428 . S
H1413 C1409 0.930 . S
H1414 C1411 0.929 . S
S1415 N1416 1.613 . S
S1415 N1417 1.610 . S
N1416 S1415 1.613 . S
N1416 C1419 1.350 . S
N1417 S1415 1.610 . S
N1417 C1418 1.351 . S
C1418 C1412 1.428 . S
C1418 N1417 1.351 . S
C1418 C1419 1.434 . S
C1419 C1410 1.429 . S
C1419 N1416 1.350 . S
C1419 C1418 1.434 . S
C1420 C1421 1.369 1_565 S
C1420 C1422 1.419 1_565 S
C1420 H1424 0.930 . S
C1421 C1420 1.369 1_545 S
C1421 C1430 1.429 . S
C1422 C1420 1.419 1_545 S
C1422 C1423 1.363 . S
C1422 H1425 0.929 . S
C1423 C1422 1.363 . S
C1423 C1429 1.428 . S
H1424 C1420 0.930 . S
H1425 C1422 0.929 . S
S1426 N1427 1.613 . S
S1426 N1428 1.610 . S
N1427 S1426 1.613 . S
N1427 C1430 1.350 . S
N1428 S1426 1.610 . S
N1428 C1429 1.351 . S
C1429 C1423 1.428 . S
C1429 N1428 1.351 . S
C1429 C1430 1.434 . S
C1430 C1421 1.429 . S
C1430 N1427 1.350 . S
C1430 C1429 1.434 . S
C1431 C1432 1.369 . S
C1431 C1433 1.419 . S
C1431 H1435 0.930 . S
C1432 C1431 1.369 . S
C1432 C1441 1.429 . S
C1433 C1431 1.419 . S
C1433 C1434 1.363 . S
C1433 H1436 0.929 . S
C1434 C1433 1.363 . S
C1434 C1440 1.428 . S
H1435 C1431 0.930 . S
H1436 C1433 0.929 . S
S1437 N1438 1.613 . S
S1437 N1439 1.610 . S
N1438 S1437 1.613 . S
N1438 C1441 1.350 . S
N1439 S1437 1.610 . S
N1439 C1440 1.351 . S
C1440 C1434 1.428 . S
C1440 N1439 1.351 . S
C1440 C1441 1.434 . S
C1441 C1432 1.429 . S
C1441 N1438 1.350 . S
C1441 C1440 1.434 . S
C1442 C1443 1.372 . S
C1442 C1444 1.440 . S
C1442 H1446 0.906 1_545 S
C1443 C1442 1.372 . S
C1443 C1452 1.429 . S
C1444 C1442 1.440 . S
C1444 C1445 1.363 . S
C1444 H1447 0.929 . S
C1445 C1444 1.363 . S
C1445 C1451 1.428 . S
H1446 C1442 0.906 1_565 S
H1447 C1444 0.929 . S
S1448 N1449 1.613 . S
S1448 N1450 1.610 . S
N1449 S1448 1.613 . S
N1449 C1452 1.350 . S
N1450 S1448 1.610 . S
N1450 C1451 1.351 . S
C1451 C1445 1.428 . S
C1451 N1450 1.351 . S
C1451 C1452 1.434 . S
C1452 C1443 1.429 . S
C1452 N1449 1.350 . S
C1452 C1451 1.434 . S
C1453 C1454 1.369 . S
C1453 C1455 1.419 . S
C1453 H1457 0.930 . S
C1454 C1453 1.369 . S
C1454 C1463 1.429 . S
C1455 C1453 1.419 . S
C1455 C1456 1.363 . S
C1455 H1458 0.929 . S
C1456 C1455 1.363 . S
C1456 C1462 1.428 . S
H1457 C1453 0.930 . S
H1458 C1455 0.929 . S
S1459 N1460 1.613 . S
S1459 N1461 1.610 . S
N1460 S1459 1.613 . S
N1460 C1463 1.350 . S
N1461 S1459 1.610 . S
N1461 C1462 1.351 . S
C1462 C1456 1.428 . S
C1462 N1461 1.351 . S
C1462 C1463 1.434 . S
C1463 C1454 1.429 . S
C1463 N1460 1.350 . S
C1463 C1462 1.434 . S
C1464 C1465 1.369 . S
C1464 C1466 1.419 . S
C1464 H1468 0.930 . S
C1465 C1464 1.369 . S
C1465 C1474 1.429 . S
C1466 C1464 1.419 . S
C1466 C1467 1.363 . S
C1466 H1469 0.929 . S
C1467 C1466 1.363 . S
C1467 C1473 1.428 . S
H1468 C1464 0.930 . S
H1469 C1466 0.929 . S
S1470 N1471 1.613 . S
S1470 N1472 1.610 . S
N1471 S1470 1.613 . S
N1471 C1474 1.350 . S
N1472 S1470 1.610 . S
N1472 C1473 1.351 . S
C1473 C1467 1.428 . S
C1473 N1472 1.351 . S
C1473 C1474 1.434 . S
C1474 C1465 1.429 . S
C1474 N1471 1.350 . S
C1474 C1473 1.434 . S
C1475 C1476 1.369 . S
C1475 C1477 1.419 . S
C1475 H1479 0.930 . S
C1476 C1475 1.369 . S
C1476 C1485 1.429 1_545 S
C1477 C1475 1.419 . S
C1477 C1478 1.363 . S
C1477 H1480 0.929 . S
C1478 C1477 1.363 . S
C1478 C1484 1.428 1_545 S
H1479 C1475 0.930 . S
H1480 C1477 0.929 . S
S1481 N1482 1.613 . S
S1481 N1483 1.610 . S
N1482 S1481 1.613 . S
N1482 C1485 1.350 . S
N1483 S1481 1.610 . S
N1483 C1484 1.351 . S
C1484 C1478 1.428 1_565 S
C1484 N1483 1.351 . S
C1484 C1485 1.434 . S
C1485 C1476 1.429 1_565 S
C1485 N1482 1.350 . S
C1485 C1484 1.434 . S
C1486 C1487 1.369 . S
C1486 C1488 1.419 . S
C1486 H1490 0.930 . S
C1487 C1486 1.369 . S
C1487 C1496 1.429 . S
C1488 C1486 1.419 . S
C1488 C1489 1.363 . S
C1488 H1491 0.929 . S
C1489 C1488 1.363 . S
C1489 C1495 1.428 . S
H1490 C1486 0.930 . S
H1491 C1488 0.929 . S
S1492 N1493 1.613 . S
S1492 N1494 1.610 . S
N1493 S1492 1.613 . S
N1493 C1496 1.350 . S
N1494 S1492 1.610 . S
N1494 C1495 1.351 . S
C1495 C1489 1.428 . S
C1495 N1494 1.351 . S
C1495 C1496 1.434 . S
C1496 C1487 1.429 . S
C1496 N1493 1.350 . S
C1496 C1495 1.434 . S
C1497 C1498 1.369 . S
C1497 C1499 1.419 . S
C1497 H1501 0.930 . S
C1498 C1497 1.369 . S
C1498 C1507 1.429 . S
C1499 C1497 1.419 . S
C1499 C1500 1.363 . S
C1499 H1502 0.929 . S
C1500 C1499 1.363 . S
C1500 C1506 1.428 . S
H1501 C1497 0.930 . S
H1502 C1499 0.929 . S
S1503 N1504 1.613 . S
S1503 N1505 1.610 . S
N1504 S1503 1.613 . S
N1504 C1507 1.350 . S
N1505 S1503 1.610 . S
N1505 C1506 1.351 . S
C1506 C1500 1.428 . S
C1506 N1505 1.351 . S
C1506 C1507 1.434 . S
C1507 C1498 1.429 . S
C1507 N1504 1.350 . S
C1507 C1506 1.434 . S
C1508 C1509 1.369 . S
C1508 C1510 1.419 . S
C1508 H1512 0.930 . S
C1509 C1508 1.369 . S
C1509 C1518 1.429 . S
C1510 C1508 1.419 . S
C1510 C1511 1.363 . S
C1510 H1513 0.929 . S
C1511 C1510 1.363 . S
C1511 C1517 1.428 . S
H1512 C1508 0.930 . S
H1513 C1510 0.929 . S
S1514 N1515 1.613 . S
S1514 N1516 1.610 . S
N1515 S1514 1.613 . S
N1515 C1518 1.350 . S
N1516 S1514 1.610 . S
N1516 C1517 1.351 . S
C1517 C1511 1.428 . S
C1517 N1516 1.351 . S
C1517 C1518 1.434 . S
C1518 C1509 1.429 . S
C1518 N1515 1.350 . S
C1518 C1517 1.434 . S
C1519 C1520 1.369 . S
C1519 C1521 1.419 . S
C1519 H1523 0.930 . S
C1520 C1519 1.369 . S
C1520 C1529 1.429 1_655 S
C1521 C1519 1.419 . S
C1521 C1522 1.363 . S
C1521 H1524 0.929 . S
C1522 C1521 1.363 . S
C1522 C1528 1.428 . S
H1523 C1519 0.930 . S
H1524 C1521 0.929 . S
S1525 N1526 1.613 . S
S1525 N1527 1.610 . S
N1526 S1525 1.613 . S
N1526 C1529 1.350 . S
N1527 S1525 1.610 . S
N1527 C1528 1.351 1_455 S
C1528 C1522 1.428 . S
C1528 N1527 1.351 1_655 S
C1528 C1529 1.434 1_655 S
C1529 C1520 1.429 1_455 S
C1529 N1526 1.350 . S
C1529 C1528 1.434 1_455 S
C1530 C1531 1.369 . S
C1530 C1532 1.419 . S
C1530 H1534 0.930 . S
C1531 C1530 1.369 . S
C1531 C1540 1.429 . S
C1532 C1530 1.419 . S
C1532 C1533 1.363 . S
C1532 H1535 0.929 . S
C1533 C1532 1.363 . S
C1533 C1539 1.428 . S
H1534 C1530 0.930 . S
H1535 C1532 0.929 . S
S1536 N1537 1.613 . S
S1536 N1538 1.610 . S
N1537 S1536 1.613 . S
N1537 C1540 1.350 . S
N1538 S1536 1.610 . S
N1538 C1539 1.351 . S
C1539 C1533 1.428 . S
C1539 N1538 1.351 . S
C1539 C1540 1.434 . S
C1540 C1531 1.429 . S
C1540 N1537 1.350 . S
C1540 C1539 1.434 . S
C1541 C1542 1.369 . S
C1541 C1543 1.419 . S
C1541 H1545 0.930 . S
C1542 C1541 1.369 . S
C1542 C1551 1.429 1_455 S
C1543 C1541 1.419 . S
C1543 C1544 1.363 . S
C1543 H1546 0.929 . S
C1544 C1543 1.363 . S
C1544 C1550 1.428 . S
H1545 C1541 0.930 . S
H1546 C1543 0.929 . S
S1547 N1548 1.613 . S
S1547 N1549 1.610 . S
N1548 S1547 1.613 . S
N1548 C1551 1.350 . S
N1549 S1547 1.610 . S
N1549 C1550 1.351 1_655 S
C1550 C1544 1.428 . S
C1550 N1549 1.351 1_455 S
C1550 C1551 1.434 1_455 S
C1551 C1542 1.429 1_655 S
C1551 N1548 1.350 . S
C1551 C1550 1.434 1_655 S
C1552 C1553 1.369 . S
C1552 C1554 1.419 . S
C1552 H1556 0.930 . S
C1553 C1552 1.369 . S
C1553 C1562 1.429 . S
C1554 C1552 1.419 . S
C1554 C1555 1.363 . S
C1554 H1557 0.929 . S
C1555 C1554 1.363 . S
C1555 C1561 1.428 . S
H1556 C1552 0.930 . S
H1557 C1554 0.929 . S
S1558 N1559 1.613 . S
S1558 N1560 1.610 . S
N1559 S1558 1.613 . S
N1559 C1562 1.350 . S
N1560 S1558 1.610 . S
N1560 C1561 1.351 . S
C1561 C1555 1.428 . S
C1561 N1560 1.351 . S
C1561 C1562 1.434 . S
C1562 C1553 1.429 . S
C1562 N1559 1.350 . S
C1562 C1561 1.434 . S
C1563 C1564 1.369 . S
C1563 C1565 1.419 . S
C1563 H1567 0.930 . S
C1564 C1563 1.369 . S
C1564 C1573 1.429 1_655 S
C1565 C1563 1.419 . S
C1565 C1566 1.363 . S
C1565 H1568 0.929 . S
C1566 C1565 1.363 . S
C1566 C1572 1.428 1_655 S
H1567 C1563 0.930 . S
H1568 C1565 0.929 . S
S1569 N1570 1.631 . S
S1569 N1571 1.610 . S
N1570 S1569 1.631 . S
N1570 C1573 1.362 . S
N1571 S1569 1.610 . S
N1571 C1572 1.351 . S
C1572 C1566 1.428 1_455 S
C1572 N1571 1.351 . S
C1572 C1573 1.434 . S
C1573 C1564 1.429 1_455 S
C1573 N1570 1.362 . S
C1573 C1572 1.434 . S
C1574 C1575 1.369 . S
C1574 C1576 1.419 . S
C1574 H1578 0.930 . S
C1575 C1574 1.369 . S
C1575 C1584 1.429 . S
C1576 C1574 1.419 . S
C1576 C1577 1.363 . S
C1576 H1579 0.929 . S
C1577 C1576 1.363 . S
C1577 C1583 1.428 . S
H1578 C1574 0.930 . S
H1579 C1576 0.929 . S
S1580 N1581 1.613 . S
S1580 N1582 1.610 . S
N1581 S1580 1.613 . S
N1581 C1584 1.350 . S
N1582 S1580 1.610 . S
N1582 C1583 1.351 . S
C1583 C1577 1.428 . S
C1583 N1582 1.351 . S
C1583 C1584 1.434 . S
C1584 C1575 1.429 . S
C1584 N1581 1.350 . S
C1584 C1583 1.434 . S
C1585 C1586 1.369 . S
C1585 C1587 1.419 . S
C1585 H1589 0.930 . S
C1586 C1585 1.369 . S
C1586 C1595 1.429 1_556 S
C1587 C1585 1.419 . S
C1587 C1588 1.363 . S
C1587 H1590 0.930 . S
C1588 C1587 1.363 . S
C1588 C1594 1.428 . S
H1589 C1585 0.930 . S
H1590 C1587 0.930 . S
S1591 N1592 1.613 . S
S1591 N1593 1.610 . S
N1592 S1591 1.613 . S
N1592 C1595 1.350 . S
N1593 S1591 1.610 . S
N1593 C1594 1.351 1_554 S
C1594 C1588 1.428 . S
C1594 N1593 1.351 1_556 S
C1594 C1595 1.434 1_556 S
C1595 C1586 1.429 1_554 S
C1595 N1592 1.350 . S
C1595 C1594 1.434 1_554 S
C1596 C1597 1.369 . S
C1596 C1598 1.419 . S
C1596 H1600 0.930 . S
C1597 C1596 1.369 . S
C1597 C1606 1.429 . S
C1598 C1596 1.419 . S
C1598 C1599 1.363 . S
C1598 H1601 0.929 . S
C1599 C1598 1.363 . S
C1599 C1605 1.428 . S
H1600 C1596 0.930 . S
H1601 C1598 0.929 . S
S1602 N1603 1.613 . S
S1602 N1604 1.610 . S
N1603 S1602 1.613 . S
N1603 C1606 1.350 . S
N1604 S1602 1.610 . S
N1604 C1605 1.351 . S
C1605 C1599 1.428 . S
C1605 N1604 1.351 . S
C1605 C1606 1.434 . S
C1606 C1597 1.429 . S
C1606 N1603 1.350 . S
C1606 C1605 1.434 . S
C1607 C1608 1.369 1_556 S
C1607 C1609 1.419 1_556 S
C1607 H1611 0.930 . S
C1608 C1607 1.369 1_554 S
C1608 C1617 1.429 . S
C1609 C1607 1.419 1_554 S
C1609 C1610 1.363 . S
C1609 H1612 0.934 . S
C1610 C1609 1.363 . S
C1610 C1616 1.428 . S
H1611 C1607 0.930 . S
H1612 C1609 0.934 . S
S1613 N1614 1.613 . S
S1613 N1615 1.610 . S
N1614 S1613 1.613 . S
N1614 C1617 1.350 . S
N1615 S1613 1.610 . S
N1615 C1616 1.351 . S
C1616 C1610 1.428 . S
C1616 N1615 1.351 . S
C1616 C1617 1.434 . S
C1617 C1608 1.429 . S
C1617 N1614 1.350 . S
C1617 C1616 1.434 . S
C1618 C1619 1.369 . S
C1618 C1620 1.419 . S
C1618 H1622 0.930 . S
C1619 C1618 1.369 . S
C1619 C1628 1.429 . S
C1620 C1618 1.419 . S
C1620 C1621 1.363 . S
C1620 H1623 0.929 . S
C1621 C1620 1.363 . S
C1621 C1627 1.428 . S
H1622 C1618 0.930 . S
H1623 C1620 0.929 . S
S1624 N1625 1.613 . S
S1624 N1626 1.610 . S
N1625 S1624 1.613 . S
N1625 C1628 1.350 . S
N1626 S1624 1.610 . S
N1626 C1627 1.351 . S
C1627 C1621 1.428 . S
C1627 N1626 1.351 . S
C1627 C1628 1.434 . S
C1628 C1619 1.429 . S
C1628 N1625 1.350 . S
C1628 C1627 1.434 . S
C1629 C1630 1.369 . S
C1629 C1631 1.419 . S
C1629 H1633 0.930 . S
C1630 C1629 1.369 . S
C1630 C1639 1.429 1_554 S
C1631 C1629 1.419 . S
C1631 C1632 1.363 . S
C1631 H1634 0.929 . S
C1632 C1631 1.363 . S
C1632 C1638 1.428 . S
H1633 C1629 0.930 . S
H1634 C1631 0.929 . S
S1635 N1636 1.613 . S
S1635 N1637 1.610 1_556 S
N1636 S1635 1.613 . S
N1636 C1639 1.347 . S
N1637 S1635 1.610 1_554 S
N1637 C1638 1.351 . S
C1638 C1632 1.428 . S
C1638 N1637 1.351 . S
C1638 C1639 1.436 1_554 S
C1639 C1630 1.429 1_556 S
C1639 N1636 1.347 . S
C1639 C1638 1.436 1_556 S
C1640 C1641 1.369 . S
C1640 C1642 1.419 . S
C1640 H1644 0.930 . S
C1641 C1640 1.369 . S
C1641 C1650 1.429 . S
C1642 C1640 1.419 . S
C1642 C1643 1.363 . S
C1642 H1645 0.929 . S
C1643 C1642 1.363 . S
C1643 C1649 1.428 . S
H1644 C1640 0.930 . S
H1645 C1642 0.929 . S
S1646 N1647 1.613 . S
S1646 N1648 1.610 . S
N1647 S1646 1.613 . S
N1647 C1650 1.350 . S
N1648 S1646 1.610 . S
N1648 C1649 1.351 . S
C1649 C1643 1.428 . S
C1649 N1648 1.351 . S
C1649 C1650 1.434 . S
C1650 C1641 1.429 . S
C1650 N1647 1.350 . S
C1650 C1649 1.434 . S
C1651 C1652 1.369 . S
C1651 C1653 1.419 . S
C1651 H1655 0.930 . S
C1652 C1651 1.369 . S
C1652 C1661 1.429 . S
C1653 C1651 1.419 . S
C1653 C1654 1.363 . S
C1653 H1656 0.929 . S
C1654 C1653 1.363 . S
C1654 C1660 1.428 . S
H1655 C1651 0.930 . S
H1656 C1653 0.929 . S
S1657 N1658 1.613 . S
S1657 N1659 1.610 . S
N1658 S1657 1.613 . S
N1658 C1661 1.350 . S
N1659 S1657 1.610 . S
N1659 C1660 1.351 . S
C1660 C1654 1.428 . S
C1660 N1659 1.351 . S
C1660 C1661 1.434 . S
C1661 C1652 1.429 . S
C1661 N1658 1.350 . S
C1661 C1660 1.434 . S
C1662 C1663 1.369 . S
C1662 C1664 1.419 . S
C1662 H1666 0.930 . S
C1663 C1662 1.369 . S
C1663 C1672 1.429 . S
C1664 C1662 1.419 . S
C1664 C1665 1.363 . S
C1664 H1667 0.929 . S
C1665 C1664 1.363 . S
C1665 C1671 1.428 . S
H1666 C1662 0.930 . S
H1667 C1664 0.929 . S
S1668 N1669 1.613 . S
S1668 N1670 1.610 . S
N1669 S1668 1.613 . S
N1669 C1672 1.350 . S
N1670 S1668 1.610 . S
N1670 C1671 1.351 . S
C1671 C1665 1.428 . S
C1671 N1670 1.351 . S
C1671 C1672 1.434 . S
C1672 C1663 1.429 . S
C1672 N1669 1.350 . S
C1672 C1671 1.434 . S
C1673 C1674 1.369 . S
C1673 C1675 1.419 . S
C1673 H1677 0.930 . S
C1674 C1673 1.369 . S
C1674 C1683 1.429 . S
C1675 C1673 1.419 . S
C1675 C1676 1.363 . S
C1675 H1678 0.929 . S
C1676 C1675 1.363 . S
C1676 C1682 1.428 . S
H1677 C1673 0.930 . S
H1678 C1675 0.929 . S
S1679 N1680 1.613 . S
S1679 N1681 1.610 . S
N1680 S1679 1.613 . S
N1680 C1683 1.350 . S
N1681 S1679 1.610 . S
N1681 C1682 1.351 . S
C1682 C1676 1.428 . S
C1682 N1681 1.351 . S
C1682 C1683 1.434 . S
C1683 C1674 1.429 . S
C1683 N1680 1.350 . S
C1683 C1682 1.434 . S
C1684 C1685 1.369 . S
C1684 C1686 1.419 . S
C1684 H1688 0.930 . S
C1685 C1684 1.369 . S
C1685 C1694 1.429 . S
C1686 C1684 1.419 . S
C1686 C1687 1.363 . S
C1686 H1689 0.929 . S
C1687 C1686 1.363 . S
C1687 C1693 1.428 . S
H1688 C1684 0.930 . S
H1689 C1686 0.929 . S
S1690 N1691 1.613 1_554 S
S1690 N1692 1.610 . S
N1691 S1690 1.613 1_556 S
N1691 C1694 1.350 . S
N1692 S1690 1.610 . S
N1692 C1693 1.351 1_554 S
C1693 C1687 1.428 . S
C1693 N1692 1.351 1_556 S
C1693 C1694 1.434 . S
C1694 C1685 1.429 . S
C1694 N1691 1.350 . S
C1694 C1693 1.434 . S
C1695 C1696 1.369 . S
C1695 C1697 1.419 . S
C1695 H1699 0.930 . S
C1696 C1695 1.369 . S
C1696 C1705 1.429 . S
C1697 C1695 1.419 . S
C1697 C1698 1.363 . S
C1697 H1700 0.929 . S
C1698 C1697 1.363 . S
C1698 C1704 1.428 . S
H1699 C1695 0.930 . S
H1700 C1697 0.929 . S
S1701 N1702 1.613 . S
S1701 N1703 1.610 . S
N1702 S1701 1.613 . S
N1702 C1705 1.350 . S
N1703 S1701 1.610 . S
N1703 C1704 1.351 . S
C1704 C1698 1.428 . S
C1704 N1703 1.351 . S
C1704 C1705 1.434 . S
C1705 C1696 1.429 . S
C1705 N1702 1.350 . S
C1705 C1704 1.434 . S
C1706 C1707 1.369 . S
C1706 C1708 1.417 1_554 S
C1706 H1710 0.930 1_554 S
C1707 C1706 1.369 . S
C1707 C1716 1.429 . S
C1708 C1706 1.417 1_556 S
C1708 C1709 1.352 1_556 S
C1708 H1711 0.942 . S
C1709 C1708 1.352 1_554 S
C1709 C1715 1.428 . S
H1710 C1706 0.930 1_556 S
H1711 C1708 0.942 . S
S1712 N1713 1.613 . S
S1712 N1714 1.610 . S
N1713 S1712 1.613 . S
N1713 C1716 1.350 . S
N1714 S1712 1.610 . S
N1714 C1715 1.351 . S
C1715 C1709 1.428 . S
C1715 N1714 1.351 . S
C1715 C1716 1.434 . S
C1716 C1707 1.429 . S
C1716 N1713 1.350 . S
C1716 C1715 1.434 . S
C1717 C1718 1.369 . S
C1717 C1719 1.419 . S
C1717 H1721 0.930 . S
C1718 C1717 1.369 . S
C1718 C1727 1.400 1_554 S
C1719 C1717 1.419 . S
C1719 C1720 1.363 . S
C1719 H1722 0.929 . S
C1720 C1719 1.363 . S
C1720 C1726 1.428 1_554 S
H1721 C1717 0.930 . S
H1722 C1719 0.929 . S
S1723 N1724 1.613 . S
S1723 N1725 1.610 1_545 S
N1724 S1723 1.613 . S
N1724 C1727 1.378 1_545 S
N1725 S1723 1.610 1_565 S
N1725 C1726 1.351 . S
C1726 C1720 1.428 1_556 S
C1726 N1725 1.351 . S
C1726 C1727 1.438 . S
C1727 C1718 1.400 1_556 S
C1727 N1724 1.378 1_565 S
C1727 C1726 1.438 . S
C1203 C193 1.508 . S
C1201 C50 1.511 . S
C1214 C252 1.500 . S
C1212 C61 1.498 1_455 S
C1223 C67 1.507 . S
C1225 C369 1.508 . S
C1236 C437 1.506 . S
C1234 C41 1.504 1_655 S
C1247 C516 1.500 . S
C1245 C95 1.501 . S
C1258 C641 1.516 . S
C1256 C113 1.513 . S
C1267 C106 1.492 . S
C1269 C701 1.492 . S
C1280 C809 1.515 . S
C1278 C86 1.514 . S
C1289 C104 1.498 . S
C1291 C905 1.499 . S
C1302 C965 1.514 . S
C1300 C88 1.512 . S
C1311 C94 1.516 . S
C1313 C868 1.514 . S
C1324 C985 1.504 . S
C1322 C112 1.503 . S
C1333 C70 1.497 . S
C1335 C1053 1.499 . S
C1344 C40 1.510 . S
C1346 C1044 1.512 . S
C1355 C49 1.507 . S
C1357 C1073 1.508 . S
C1366 C59 1.511 . S
C1368 C1081 1.515 . S
C1377 C34 1.496 . S
C1379 C465 1.497 . S
C1388 C133 1.501 . S
C1390 C428 1.500 . S
C1401 C164 1.513 . S
C1399 C139 1.513 1_565 S
C1412 C261 1.509 . S
C1410 C77 1.509 . S
C1421 C43 1.499 1_545 S
C1423 C525 1.500 . S
C1434 C817 1.503 . S
C1432 C103 1.501 . S
C1445 C545 1.523 . S
C1443 C85 1.522 1_545 S
C1456 C729 1.499 . S
C1454 C115 1.496 . S
C1467 C721 1.509 . S
C1465 C131 1.509 . S
C1476 C142 1.499 . S
C1478 C789 1.500 . S
C1487 C76 1.509 . S
C1489 C553 1.508 . S
C1500 C604 1.506 . S
C1498 C122 1.505 . S
C1509 C32 1.501 . S
C1511 C349 1.500 . S
C1522 C457 1.516 . S
C1520 C5 1.513 1_655 S
C1533 C173 1.492 . S
C1531 C16 1.490 . S
C1544 C289 1.515 . S
C1542 C23 1.515 1_455 S
C1553 C14 1.497 . S
C1555 C993 1.498 . S
C1564 C25 1.513 1_556 S
C1566 C877 1.514 . S
C1575 C31 1.516 . S
C1577 C956 1.516 . S
C1586 C4 1.501 1_556 S
C1588 C897 1.504 . S
C1599 C1141 1.498 . S
C1597 C79 1.497 . S
C1610 C1132 1.512 . S
C1608 C121 1.511 1_554 S
C1621 C1161 1.509 . S
C1619 C130 1.507 . S
C1630 C140 1.511 1_554 S
C1632 C1169 1.515 . S
C1641 C97 1.497 . S
C1643 C633 1.497 . S
C1654 C613 1.500 . S
C1652 C52 1.501 . S
C1665 C692 1.513 . S
C1663 C58 1.511 . S
C1676 C780 1.508 . S
C1674 C68 1.512 . S
C1685 C124 1.498 . S
C1687 C340 1.501 . S
C1698 C281 1.503 . S
C1696 C13 1.504 . S
C1707 C22 1.522 . S
C1709 C377 1.523 . S
C1720 C201 1.498 . S
C1718 C7 1.497 1_565 S
