# Generated by pormake.
# Topology zzz, (3,6)-cn, num edge types: 1
# Building blocks:
#     Node 0, Type 0, BuildingBlock: QEWDON_clean_linker_0, # of connection points: 3
#     Node 1, Type 0, BuildingBlock: QEWDON_clean_linker_0, # of connection points: 3
#     Node 2, Type 0, BuildingBlock: QEWDON_clean_linker_0, # of connection points: 3
#     Node 3, Type 0, BuildingBlock: QEWDON_clean_linker_0, # of connection points: 3
#     Node 4, Type 0, BuildingBlock: QEWDON_clean_linker_0, # of connection points: 3
#     Node 5, Type 0, BuildingBlock: QEWDON_clean_linker_0, # of connection points: 3
#     Node 6, Type 0, BuildingBlock: QEWDON_clean_linker_0, # of connection points: 3
#     Node 7, Type 0, BuildingBlock: QEWDON_clean_linker_0, # of connection points: 3
#     Node 8, Type 1, BuildingBlock: CUKXOW_clean_sbu_0, # of connection points: 6
#     Node 9, Type 1, BuildingBlock: CUKXOW_clean_sbu_0, # of connection points: 6
#     Node 10, Type 1, BuildingBlock: CUKXOW_clean_sbu_0, # of connection points: 6
#     Node 11, Type 1, BuildingBlock: CUKXOW_clean_sbu_0, # of connection points: 6
#     Edge 12, Type (0, 1), BuildingBlock: ZUJKAS_clean_linker_0, # of connection points: 2
#     Edge 13, Type (0, 1), BuildingBlock: ZUJKAS_clean_linker_0, # of connection points: 2
#     Edge 14, Type (0, 1), BuildingBlock: ZUJKAS_clean_linker_0, # of connection points: 2
#     Edge 15, Type (0, 1), BuildingBlock: ZUJKAS_clean_linker_0, # of connection points: 2
#     Edge 16, Type (0, 1), BuildingBlock: ZUJKAS_clean_linker_0, # of connection points: 2
#     Edge 17, Type (0, 1), BuildingBlock: ZUJKAS_clean_linker_0, # of connection points: 2
#     Edge 18, Type (0, 1), BuildingBlock: ZUJKAS_clean_linker_0, # of connection points: 2
#     Edge 19, Type (0, 1), BuildingBlock: ZUJKAS_clean_linker_0, # of connection points: 2
#     Edge 20, Type (0, 1), BuildingBlock: ZUJKAS_clean_linker_0, # of connection points: 2
#     Edge 21, Type (0, 1), BuildingBlock: ZUJKAS_clean_linker_0, # of connection points: 2
#     Edge 22, Type (0, 1), BuildingBlock: ZUJKAS_clean_linker_0, # of connection points: 2
#     Edge 23, Type (0, 1), BuildingBlock: ZUJKAS_clean_linker_0, # of connection points: 2
#     Edge 24, Type (0, 1), BuildingBlock: ZUJKAS_clean_linker_0, # of connection points: 2
#     Edge 25, Type (0, 1), BuildingBlock: ZUJKAS_clean_linker_0, # of connection points: 2
#     Edge 26, Type (0, 1), BuildingBlock: ZUJKAS_clean_linker_0, # of connection points: 2
#     Edge 27, Type (0, 1), BuildingBlock: ZUJKAS_clean_linker_0, # of connection points: 2
#     Edge 28, Type (0, 1), BuildingBlock: ZUJKAS_clean_linker_0, # of connection points: 2
#     Edge 29, Type (0, 1), BuildingBlock: ZUJKAS_clean_linker_0, # of connection points: 2
#     Edge 30, Type (0, 1), BuildingBlock: ZUJKAS_clean_linker_0, # of connection points: 2
#     Edge 31, Type (0, 1), BuildingBlock: ZUJKAS_clean_linker_0, # of connection points: 2
#     Edge 32, Type (0, 1), BuildingBlock: ZUJKAS_clean_linker_0, # of connection points: 2
#     Edge 33, Type (0, 1), BuildingBlock: ZUJKAS_clean_linker_0, # of connection points: 2
#     Edge 34, Type (0, 1), BuildingBlock: ZUJKAS_clean_linker_0, # of connection points: 2
#     Edge 35, Type (0, 1), BuildingBlock: ZUJKAS_clean_linker_0, # of connection points: 2
# Relax obj value: 0.029
# Max RMSD: 0.090
# Mean RMSD: 0.035
data_MOF--net-zzz--node1-CUKXOW_clean_sbu_0--node2-QEWDON_clean_linker_0--edge1-ZUJKAS_clean_linker_0
_symmetry_space_group_name_H-M    P1
_symmetry_Int_Tables_number       1
_symmetry_cell_setting            triclinic
loop_
_symmetry_equiv_pos_as_xyz
'x, y, z'
_cell_length_a     69.629912
_cell_length_b     72.063544
_cell_length_c     19.682929
_cell_angle_alpha  92.965263
_cell_angle_beta   87.044509
_cell_angle_gamma 93.340811
loop_
_atom_site_label
_atom_site_type_symbol
_atom_site_fract_x
_atom_site_fract_y
_atom_site_fract_z
_atom_type_partial_charge
H0 H 0.77554 0.53465 0.98119 0.0
C1 C 0.78165 0.53116 0.02813 0.0
C2 C 0.79888 0.52191 0.02544 0.0
C3 C 0.77283 0.53664 0.09154 0.0
H4 H 0.82099 0.51173 0.08364 0.0
C5 C 0.80717 0.51804 0.08608 0.0
C6 C 0.79902 0.52389 0.14943 0.0
C7 C 0.78178 0.53312 0.15201 0.0
C8 C 0.75501 0.54711 0.09495 0.0
H9 H 0.77545 0.53767 0.20108 0.0
C10 C 0.73921 0.5412 0.05555 0.0
C11 C 0.7221 0.55085 0.06148 0.0
C12 C 0.75366 0.56305 0.13885 0.0
H13 H 0.76566 0.56809 0.16888 0.0
C14 C 0.7369 0.57279 0.14398 0.0
H15 H 0.73999 0.52879 0.02221 0.0
C16 C 0.7212 0.56673 0.10588 0.0
H17 H 0.70837 0.57461 0.11072 0.0
H18 H 0.73605 0.58509 0.17776 0.0
H19 H 0.9705 0.78053 0.91325 0.0
C20 C 0.97142 0.78749 0.96322 0.0
C21 C 0.97948 0.80578 0.96935 0.0
C22 C 0.96368 0.77861 0.02158 0.0
H23 H 0.98539 0.82948 0.03763 0.0
C24 C 0.97973 0.81512 0.03337 0.0
C25 C 0.9718 0.80666 0.09139 0.0
C26 C 0.96407 0.78829 0.08575 0.0
C27 C 0.95349 0.75999 0.01508 0.0
H28 H 0.95774 0.78181 0.13075 0.0
C29 C 0.96206 0.74496 0.97895 0.0
C30 C 0.95205 0.7274 0.97308 0.0
C31 C 0.93484 0.75731 0.045 0.0
H32 H 0.92785 0.76868 0.07245 0.0
C33 C 0.92487 0.74001 0.039 0.0
H34 H 0.97645 0.7469 0.95576 0.0
C35 C 0.93338 0.72515 0.00339 0.0
H36 H 0.92543 0.71178 0.00053 0.0
H37 H 0.91051 0.7381 0.06224 0.0
H38 H 0.73142 0.97266 0.96222 0.0
C39 C 0.72377 0.97539 0.01076 0.0
C40 C 0.70621 0.98407 0.01264 0.0
C41 C 0.73108 0.96962 0.07128 0.0
H42 H 0.68211 0.99299 0.07616 0.0
C43 C 0.69611 0.98708 0.07519 0.0
C44 C 0.7029 0.98121 0.13571 0.0
C45 C 0.7204 0.97241 0.1336 0.0
C46 C 0.7492 0.95964 0.06896 0.0
H47 H 0.72566 0.96774 0.18033 0.0
C48 C 0.76585 0.96636 0.03199 0.0
C49 C 0.78287 0.9566 0.02938 0.0
C50 C 0.7498 0.94309 0.10335 0.0
H51 H 0.73718 0.9375 0.13152 0.0
C52 C 0.76658 0.93338 0.10075 0.0
H53 H 0.76555 0.97913 0.00539 0.0
C54 C 0.783 0.94003 0.06407 0.0
H55 H 0.79592 0.93234 0.0637 0.0
H56 H 0.76688 0.92063 0.12734 0.0
H57 H 0.55411 0.73588 0.9743 0.0
C58 C 0.55079 0.72966 0.02279 0.0
C59 C 0.54086 0.71216 0.02444 0.0
C60 C 0.5571 0.73871 0.0836 0.0
H61 H 0.53023 0.68992 0.08718 0.0
C62 C 0.53716 0.70381 0.08672 0.0
C63 C 0.5438 0.71225 0.14729 0.0
C64 C 0.55374 0.72974 0.14561 0.0
C65 C 0.56826 0.75694 0.0822 0.0
H66 H 0.5589 0.7363 0.19253 0.0
C67 C 0.56217 0.77164 0.04534 0.0
C68 C 0.57275 0.78897 0.04535 0.0
C69 C 0.58514 0.7597 0.11848 0.0
H70 H 0.59031 0.7486 0.14649 0.0
C71 C 0.59566 0.77675 0.11849 0.0
H72 H 0.5492 0.76962 0.01709 0.0
C73 C 0.58953 0.7913 0.0825 0.0
H74 H 0.5978 0.80449 0.08472 0.0
H75 H 0.6086 0.77874 0.14682 0.0
H76 H 0.24224 0.50499 0.35977 0.0
C77 C 0.23508 0.4995 0.31479 0.0
C78 C 0.2156 0.49328 0.32057 0.0
C79 C 0.24497 0.49956 0.25045 0.0
H80 H 0.19077 0.48336 0.2662 0.0
C81 C 0.2061 0.48706 0.26193 0.0
C82 C 0.21546 0.48751 0.19731 0.0
C83 C 0.23498 0.49355 0.19195 0.0
C84 C 0.26521 0.50728 0.24329 0.0
H85 H 0.24227 0.49389 0.14199 0.0
C86 C 0.27921 0.50273 0.28811 0.0
C87 C 0.29843 0.50989 0.27971 0.0
C88 C 0.27061 0.5194 0.19098 0.0
H89 H 0.26012 0.52348 0.15662 0.0
C90 C 0.28953 0.52666 0.18298 0.0
H91 H 0.27528 0.49325 0.32815 0.0
C92 C 0.30336 0.52194 0.2268 0.0
H93 H 0.3179 0.52795 0.21979 0.0
H94 H 0.29348 0.53604 0.14274 0.0
H95 H 0.01481 0.234 0.4315 0.0
C96 C 0.02163 0.22849 0.38457 0.0
C97 C 0.03056 0.21147 0.38367 0.0
C98 C 0.02033 0.23768 0.3237 0.0
H99 H 0.04423 0.1903 0.32074 0.0
C100 C 0.03846 0.20399 0.32199 0.0
C101 C 0.03667 0.21261 0.26067 0.0
C102 C 0.02777 0.22959 0.26197 0.0
C103 C 0.00898 0.25436 0.32223 0.0
H104 H 0.02597 0.23617 0.21458 0.0
C105 C 0.01431 0.27103 0.35878 0.0
C106 C 0.004 0.28709 0.35262 0.0
C107 C 0.99298 0.2537 0.2814 0.0
H108 H 0.98861 0.24098 0.25315 0.0
C109 C 0.98246 0.26939 0.2767 0.0
H110 H 0.02683 0.27167 0.38952 0.0
C111 C 0.98794 0.286 0.31174 0.0
H112 H 0.97953 0.29802 0.30705 0.0
H113 H 0.97009 0.26873 0.24536 0.0
H114 H 0.28384 0.0259 0.37125 0.0
C115 C 0.2931 0.03114 0.32978 0.0
C116 C 0.31245 0.03636 0.34129 0.0
C117 C 0.28611 0.03175 0.26391 0.0
H118 H 0.34001 0.04499 0.29597 0.0
C119 C 0.32484 0.04208 0.28726 0.0
C120 C 0.31844 0.04208 0.22113 0.0
C121 C 0.299 0.03733 0.20996 0.0
C122 C 0.26586 0.02537 0.24982 0.0
H123 H 0.29409 0.03765 0.15871 0.0
C124 C 0.25036 0.02929 0.29661 0.0
C125 C 0.2313 0.02383 0.28061 0.0
C126 C 0.2619 0.01532 0.1883 0.0
H127 H 0.2734 0.01145 0.15216 0.0
C128 C 0.24303 0.00992 0.17265 0.0
H129 H 0.25298 0.03696 0.34434 0.0
C130 C 0.2278 0.01427 0.21817 0.0
H131 H 0.21324 0.00987 0.20517 0.0
H132 H 0.24021 1.00228 0.12508 0.0
H133 H 0.49045 0.28186 0.36735 0.0
C134 C 0.48547 0.28894 0.32486 0.0
C135 C 0.47798 0.30658 0.33638 0.0
C136 C 0.48775 0.28109 0.2579 0.0
H137 H 0.46767 0.33017 0.28973 0.0
C138 C 0.47273 0.31624 0.28094 0.0
C139 C 0.47622 0.30938 0.21399 0.0
C140 C 0.48296 0.29146 0.20271 0.0
C141 C 0.49745 0.2633 0.2446 0.0
H142 H 0.48562 0.28609 0.15085 0.0
C143 C 0.49283 0.24774 0.28439 0.0
C144 C 0.50254 0.23116 0.27155 0.0
C145 C 0.5119 0.26201 0.19214 0.0
H146 H 0.51614 0.2738 0.1617 0.0
C147 C 0.52136 0.24562 0.17896 0.0
H148 H 0.48183 0.24856 0.32526 0.0
C149 C 0.51673 0.2303 0.21814 0.0
H150 H 0.5242 0.21768 0.2062 0.0
H151 H 0.5324 0.2448 0.13828 0.0
Tb152 Tb 0.0049 0.99372 0.62322 0.0
C153 C 0.04642 0.01255 0.63134 0.0
Tb154 Tb 0.01309 0.02231 0.74406 0.0
O155 O 0.0079 0.01555 0.54861 0.0
O156 O 0.99979 0.02174 0.65045 0.0
O157 O 0.03589 0.99791 0.60751 0.0
C158 C 0.02061 0.05353 0.81908 0.0
O159 O 0.0397 0.02474 0.67867 0.0
C160 C 0.01345 0.98716 0.77065 0.0
C161 C 0.97145 0.00334 0.73495 0.0
O162 O 0.03065 0.03885 0.81703 0.0
O163 O 0.00622 0.05049 0.77996 0.0
O164 O 0.00928 1.00008 0.81679 0.0
O165 O 0.01884 0.99459 0.71607 0.0
O166 O 0.98202 0.01784 0.75977 0.0
O167 O 0.97816 0.99138 0.68691 0.0
C168 C 0.99772 0.96183 0.55157 0.0
O169 O 0.98994 0.97742 0.54239 0.0
O170 O 0.00955 0.96433 0.60029 0.0
C171 C 0.005 0.0288 0.59485 0.0
Tb172 Tb 0.50794 0.0269 0.63999 0.0
C173 C 0.53347 0.99748 0.56419 0.0
Tb174 Tb 0.51036 0.98894 0.70507 0.0
O175 O 0.53858 0.03344 0.6507 0.0
O176 O 0.52318 0.01614 0.7186 0.0
O177 O 0.52331 0.01224 0.55651 0.0
C178 C 0.52052 0.95754 0.75661 0.0
O179 O 0.53157 0.98749 0.61933 0.0
C180 C 0.47844 0.99364 0.64478 0.0
C181 C 0.48552 0.01873 0.78214 0.0
O182 O 0.51035 0.95858 0.70366 0.0
O183 O 0.52505 0.97427 0.78084 0.0
O184 O 0.47957 0.98281 0.6949 0.0
O185 O 0.49517 0.99972 0.62651 0.0
O186 O 0.49552 0.00384 0.78939 0.0
O187 O 0.48708 0.02848 0.72645 0.0
C188 C 0.49736 0.05818 0.58885 0.0
O189 O 0.49338 0.04145 0.56348 0.0
O190 O 0.50725 0.05718 0.64249 0.0
C191 C 0.53983 0.02246 0.70031 0.0
Tb192 Tb 0.51387 0.52355 0.61822 0.0
C193 C 0.47096 0.5074 0.63127 0.0
Tb194 Tb 0.50256 0.49551 0.73212 0.0
O195 O 0.51071 0.50153 0.53692 0.0
O196 O 0.51686 0.49533 0.63551 0.0
O197 O 0.48299 0.52072 0.60684 0.0
C198 C 0.49429 0.46364 0.79319 0.0
O199 O 0.47593 0.49552 0.6762 0.0
C200 C 0.50408 0.53079 0.77041 0.0
C201 C 0.54509 0.51286 0.72155 0.0
O202 O 0.48583 0.47908 0.80806 0.0
O203 O 0.5075 0.46634 0.74539 0.0
O204 O 0.50678 0.51771 0.81167 0.0
O205 O 0.49898 0.52353 0.71429 0.0
O206 O 0.53344 0.49902 0.74425 0.0
O207 O 0.53984 0.52478 0.67739 0.0
C208 C 0.52301 0.55518 0.5562 0.0
O209 O 0.53088 0.53945 0.54137 0.0
O210 O 0.51002 0.55295 0.60504 0.0
C211 C 0.51207 0.48827 0.57864 0.0
Tb212 Tb 0.99362 0.51184 0.619 0.0
C213 C 0.01228 0.4737 0.62835 0.0
Tb214 Tb 0.02285 0.50845 0.73089 0.0
O215 O 0.01667 0.50907 0.53919 0.0
O216 O 0.02244 0.52066 0.63597 0.0
O217 O 0.99739 0.48218 0.60737 0.0
C218 C 0.05445 0.50337 0.7975 0.0
O219 O 0.02494 0.48206 0.67007 0.0
C220 C 0.98639 0.50531 0.76996 0.0
C221 C 0.00421 0.54663 0.72136 0.0
O222 O 0.03765 0.49505 0.80931 0.0
O223 O 0.05334 0.51473 0.74908 0.0
O224 O 0.99976 0.51169 0.81017 0.0
O225 O 0.99405 0.49972 0.71401 0.0
O226 O 0.01919 0.53824 0.74244 0.0
O227 O 0.99162 0.53822 0.67947 0.0
C228 C 0.96121 0.51551 0.55515 0.0
O229 O 0.9777 0.52417 0.54062 0.0
O230 O 0.96311 0.50476 0.60481 0.0
C231 C 0.03005 0.51529 0.57966 0.0
H232 H 0.22395 0.01077 0.40736 0.0
H233 H 0.19339 0.0117 0.47546 0.0
H234 H 0.17101 0.04641 0.32933 0.0
H235 H 0.20119 0.0448 0.26004 0.0
H236 H 0.17074 0.03777 0.53793 0.0
H237 H 0.1333 1.00196 0.32205 0.0
H238 H 0.15917 0.00496 0.32263 0.0
H239 H 0.14515 0.02377 0.30032 0.0
C240 C 0.2126 0.01888 0.39075 0.0
C241 C 0.21476 0.0276 0.32846 0.0
C242 C 0.19516 0.01938 0.42946 0.0
C243 C 0.17972 0.02871 0.40654 0.0
C244 C 0.1825 0.03867 0.34701 0.0
H245 H 0.06973 0.04459 0.635 0.0
H246 H 0.10238 0.04919 0.58385 0.0
C247 C 0.19977 0.0379 0.30781 0.0
C248 C 0.16034 0.0269 0.44188 0.0
H249 H 0.11361 0.01235 0.41619 0.0
C250 C 0.15823 0.0322 0.51143 0.0
C251 C 0.14408 0.01928 0.40758 0.0
C252 C 0.14552 0.01199 0.33426 0.0
C253 C 0.14028 0.03025 0.54741 0.0
C254 C 0.12391 0.02322 0.51242 0.0
C255 C 0.12609 0.01788 0.44296 0.0
C256 C 0.10447 0.02052 0.54672 0.0
C257 C 0.13917 0.03523 0.62285 0.0
C258 C 0.09454 0.003 0.54172 0.0
C259 C 0.07579 1.00044 0.56963 0.0
C260 C 0.06653 0.01532 0.60371 0.0
C261 C 0.07654 0.03281 0.60964 0.0
C262 C 0.09527 0.03543 0.58082 0.0
H263 H 0.15352 0.03522 0.64507 0.0
H264 H 0.13388 0.04943 0.63148 0.0
H265 H 0.12908 0.02539 0.65041 0.0
H266 H 0.10128 0.99128 0.51564 0.0
H267 H 0.06855 0.98676 0.56445 0.0
H268 H 0.52813 0.20927 0.32408 0.0
H269 H 0.52141 0.17982 0.3789 0.0
H270 H 0.46043 0.18581 0.36771 0.0
H271 H 0.46708 0.21545 0.31195 0.0
H272 H 0.47238 0.17254 0.49564 0.0
H273 H 0.50146 0.13225 0.2699 0.0
H274 H 0.51762 0.15103 0.29865 0.0
H275 H 0.49488 0.15605 0.26642 0.0
C276 C 0.51326 0.20437 0.33332 0.0
C277 C 0.49813 0.21455 0.31269 0.0
C278 C 0.50946 0.18753 0.36464 0.0
C279 C 0.49045 0.18044 0.37594 0.0
C280 C 0.47521 0.19099 0.35884 0.0
H281 H 0.47681 0.06269 0.47636 0.0
H282 H 0.47098 0.09212 0.42514 0.0
C283 C 0.47903 0.20794 0.32735 0.0
C284 C 0.48681 0.16175 0.40389 0.0
H285 H 0.49803 0.11648 0.37418 0.0
C286 C 0.47772 0.16021 0.46881 0.0
C287 C 0.49341 0.14561 0.36822 0.0
C288 C 0.50222 0.14622 0.29663 0.0
C289 C 0.47611 0.14311 0.50061 0.0
C290 C 0.48407 0.12726 0.46694 0.0
C291 C 0.4921 0.12862 0.40039 0.0
C292 C 0.48567 0.10956 0.50138 0.0
C293 C 0.46608 0.14225 0.57024 0.0
C294 C 0.49584 0.10955 0.56114 0.0
C295 C 0.49914 0.09283 0.59028 0.0
C296 C 0.49254 0.07574 0.5599 0.0
C297 C 0.48208 0.07569 0.50074 0.0
C298 C 0.47873 0.09248 0.47157 0.0
H299 H 0.45529 0.15301 0.57817 0.0
H300 H 0.45874 0.12836 0.57786 0.0
H301 H 0.47688 0.14497 0.60961 0.0
H302 H 0.50182 0.12245 0.5841 0.0
H303 H 0.50732 0.09328 0.63575 0.0
H304 H 0.33516 0.50062 0.24417 0.0
H305 H 0.36112 0.49629 0.31937 0.0
H306 H 0.32196 0.50363 0.49448 0.0
H307 H 0.29589 0.50852 0.41908 0.0
H308 H 0.35489 0.5256 0.50493 0.0
H309 H 0.37382 0.45367 0.43197 0.0
H310 H 0.3733 0.4674 0.35874 0.0
H311 H 0.35149 0.46282 0.40981 0.0
C312 C 0.33201 0.50118 0.29868 0.0
C313 C 0.31349 0.50505 0.32568 0.0
C314 C 0.34682 0.49846 0.34164 0.0
C315 C 0.34345 0.49936 0.4126 0.0
C316 C 0.32485 0.50271 0.43984 0.0
H317 H 0.44206 0.48088 0.6603 0.0
H318 H 0.40954 0.47822 0.61724 0.0
C319 C 0.30996 0.50542 0.39673 0.0
C320 C 0.35984 0.49855 0.45762 0.0
H321 H 0.39881 0.47359 0.48369 0.0
C322 C 0.3643 0.51407 0.50122 0.0
C323 C 0.37198 0.4834 0.45373 0.0
C324 C 0.36729 0.4658 0.41156 0.0
C325 C 0.38117 0.51534 0.53769 0.0
C326 C 0.3941 0.50086 0.5294 0.0
C327 C 0.38904 0.48482 0.48925 0.0
C328 C 0.4135 0.5027 0.55782 0.0
C329 C 0.38514 0.53234 0.5839 0.0
C330 C 0.42659 0.5172 0.53808 0.0
C331 C 0.44511 0.51879 0.5625 0.0
C332 C 0.45106 0.5058 0.60697 0.0
C333 C 0.43794 0.4912 0.62651 0.0
C334 C 0.41936 0.48963 0.60188 0.0
H335 H 0.37158 0.53884 0.60179 0.0
H336 H 0.39295 0.52887 0.62896 0.0
H337 H 0.39417 0.54279 0.55532 0.0
H338 H 0.42256 0.52719 0.50282 0.0
H339 H 0.45479 0.53015 0.54592 0.0
H340 H 0.014 0.29406 0.48517 0.0
H341 H 0.0204 0.32464 0.5435 0.0
H342 H 0.01347 0.35139 0.35601 0.0
H343 H 0.00744 0.32106 0.29752 0.0
H344 H 0.04473 0.36696 0.4326 0.0
H345 H 0.97575 0.35972 0.5878 0.0
H346 H 0.99229 0.34162 0.5925 0.0
H347 H 0.981 0.34457 0.51413 0.0
C348 C 0.01416 0.30647 0.4563 0.0
C349 C 0.00994 0.3052 0.38705 0.0
C350 C 0.01768 0.32391 0.48972 0.0
C351 C 0.01712 0.34028 0.45424 0.0
C352 C 0.01388 0.33895 0.38441 0.0
H353 H 0.98847 0.45144 0.54885 0.0
H354 H 0.99168 0.41886 0.51266 0.0
C355 C 0.0103 0.32161 0.35119 0.0
C356 C 0.01865 0.35894 0.48971 0.0
H357 H 0.99353 0.3883 0.59808 0.0
C358 C 0.03372 0.37159 0.4696 0.0
C359 C 0.00412 0.36495 0.53735 0.0
C360 C 0.98727 0.35212 0.55914 0.0
C361 C 0.03436 0.39025 0.49446 0.0
C362 C 0.0196 0.39633 0.54094 0.0
C363 C 0.00486 0.38354 0.5626 0.0
C364 C 0.01818 0.41621 0.56309 0.0
C365 C 0.05029 0.40353 0.46842 0.0
C366 C 0.03204 0.42556 0.60364 0.0
C367 C 0.03027 0.44429 0.62455 0.0
C368 C 0.01457 0.45398 0.60534 0.0
C369 C 1.00077 0.4445 0.5646 0.0
C370 C 1.00254 0.42583 0.54393 0.0
H371 H 0.05875 0.39733 0.42442 0.0
H372 H 0.04429 0.41652 0.45281 0.0
H373 H 0.06024 0.40734 0.50977 0.0
H374 H 0.04411 0.41832 0.61968 0.0
H375 H 0.04114 0.45112 0.65603 0.0
H376 H 0.8069 0.93688 0.94278 0.0
H377 H 0.8378 0.94767 0.88946 0.0
H378 H 0.83017 0.00292 0.97761 0.0
H379 H 0.79921 0.99217 0.03172 0.0
H380 H 0.84663 0.97902 0.79841 0.0
H381 H 0.88303 0.98665 0.04452 0.0
H382 H 0.86083 0.97274 0.03462 0.0
H383 H 0.8606 0.99765 0.04023 0.0
C384 C 0.81177 0.95135 0.95067 0.0
C385 C 0.80069 0.96365 0.99189 0.0
C386 C 0.82938 0.9575 0.91994 0.0
C387 C 0.83636 0.97602 0.93027 0.0
C388 C 0.8251 0.98852 0.9696 0.0
H389 H 0.95059 0.02632 0.82236 0.0
H390 H 0.91737 0.02099 0.86688 0.0
C391 C 0.80737 0.9824 1e-05 0.0
C392 C 0.85571 0.98198 0.90143 0.0
H393 H 0.9018 0.99373 0.94554 0.0
C394 C 0.8587 0.98234 0.83047 0.0
C395 C 0.87137 0.98635 0.94348 0.0
C396 C 0.86897 0.98576 0.01998 0.0
C397 C 0.87699 0.98693 0.80034 0.0
C398 C 0.89282 0.99076 0.84229 0.0
C399 C 0.8897 0.99076 0.91338 0.0
C400 C 0.91282 0.9942 0.81357 0.0
C401 C 0.87911 0.98783 0.72388 0.0
C402 C 0.92144 0.98082 0.76944 0.0
C403 C 0.94039 0.98385 0.74362 0.0
C404 C 0.95126 1.00025 0.76203 0.0
C405 C 0.94267 0.01354 0.80694 0.0
C406 C 0.92366 0.01053 0.83247 0.0
H407 H 0.86519 0.9904 0.7018 0.0
H408 H 0.88994 0.99895 0.7086 0.0
H409 H 0.8839 0.97431 0.70159 0.0
H410 H 0.91359 0.96788 0.75561 0.0
H411 H 0.94656 0.9732 0.7098 0.0
H412 H 0.53597 0.80036 0.03746 0.0
H413 H 0.52595 0.82786 0.9832 0.0
H414 H 0.58498 0.84153 0.91871 0.0
H415 H 0.59498 0.81381 0.97031 0.0
H416 H 0.53673 0.86434 0.01365 0.0
H417 H 0.55768 0.84613 0.74434 0.0
H418 H 0.55611 0.82924 0.80927 0.0
H419 H 0.57713 0.84483 0.7999 0.0
C420 C 0.54676 0.809 0.01043 0.0
C421 C 0.56629 0.80485 0.00831 0.0
C422 C 0.54103 0.82479 0.97992 0.0
C423 C 0.55468 0.83667 0.94622 0.0
C424 C 0.57412 0.83242 0.94326 0.0
H425 H 0.54368 0.95312 0.86215 0.0
H426 H 0.55173 0.92375 0.90882 0.0
C427 C 0.57985 0.81665 0.97356 0.0
C428 C 0.54882 0.854 0.91709 0.0
H429 H 0.55102 0.8779 0.77118 0.0
C430 C 0.53972 0.86725 0.96052 0.0
C431 C 0.55254 0.85773 0.8476 0.0
C432 C 0.56122 0.84365 0.7974 0.0
C433 C 0.53465 0.88428 0.93673 0.0
C434 C 0.53914 0.88834 0.86792 0.0
C435 C 0.54783 0.87491 0.82415 0.0
C436 C 0.53452 0.90623 0.83976 0.0
C437 C 0.52425 0.89761 0.98531 0.0
C438 C 0.52266 0.90615 0.78418 0.0
C439 C 0.51824 0.92286 0.75711 0.0
C440 C 0.52561 0.93999 0.78503 0.0
C441 C 0.53767 0.9401 0.8401 0.0
C442 C 0.54217 0.92335 0.86702 0.0
H443 H 0.51728 0.89045 0.02955 0.0
H444 H 0.53477 0.90847 0.00511 0.0
H445 H 0.51308 0.90459 0.95934 0.0
H446 H 0.51667 0.89314 0.76205 0.0
H447 H 0.50894 0.92236 0.71453 0.0
H448 H 0.68467 0.54752 0.10907 0.0
H449 H 0.65612 0.53948 0.0443 0.0
H450 H 0.69207 0.53203 0.86092 0.0
H451 H 0.72083 0.53992 0.92595 0.0
H452 H 0.64386 0.5583 0.94017 0.0
H453 H 0.65638 0.48527 0.85325 0.0
H454 H 0.66979 0.49744 0.91962 0.0
H455 H 0.6758 0.50176 0.83175 0.0
C456 C 0.68652 0.54407 0.05499 0.0
C457 C 0.705 0.54444 0.02253 0.0
C458 C 0.67019 0.53944 0.01806 0.0
C459 C 0.67192 0.53503 0.9478 0.0
C460 C 0.69038 0.53503 0.9153 0.0
H461 H 0.57364 0.53931 0.68925 0.0
H462 H 0.6051 0.5445 0.73888 0.0
C463 C 0.7068 0.53957 0.95246 0.0
C464 C 0.65425 0.53148 0.9087 0.0
H465 H 0.62971 0.49884 0.80924 0.0
C466 C 0.64079 0.54531 0.91142 0.0
C467 C 0.65019 0.51447 0.87166 0.0
C468 C 0.66369 0.49879 0.8692 0.0
C469 C 0.62334 0.54258 0.87867 0.0
C470 C 0.61938 0.52568 0.84078 0.0
C471 C 0.63286 0.51185 0.83776 0.0
C472 C 0.6009 0.5218 0.80685 0.0
C473 C 0.60903 0.55759 0.8868 0.0
C474 C 0.58834 0.50691 0.82679 0.0
C475 C 0.57039 0.5038 0.79819 0.0
C476 C 0.56463 0.5155 0.74877 0.0
C477 C 0.5775 0.53009 0.72745 0.0
C478 C 0.59548 0.53315 0.75601 0.0
H479 H 0.61217 0.56751 0.93044 0.0
H480 H 0.60972 0.56557 0.83994 0.0
H481 H 0.59412 0.55147 0.89452 0.0
H482 H 0.59224 0.49794 0.86578 0.0
H483 H 0.56093 0.4924 0.81579 0.0
H484 H 0.98835 0.71551 0.98505 0.0
H485 H 1.00148 0.68663 0.93566 0.0
H486 H 0.94874 0.67349 0.83341 0.0
H487 H 0.93571 0.70233 0.88154 0.0
H488 H 0.98466 0.65074 0.95827 0.0
H489 H 0.99032 0.66363 0.68276 0.0
H490 H 0.9883 0.68216 0.7477 0.0
H491 H 0.96722 0.66844 0.72239 0.0
C492 C 0.97976 0.70666 0.95076 0.0
C493 C 0.96099 0.71116 0.93725 0.0
C494 C 0.98722 0.69013 0.92293 0.0
C495 C 0.97616 0.678 0.88034 0.0
C496 C 0.95766 0.68277 0.86518 0.0
H497 H 0.97357 0.5674 0.70047 0.0
H498 H 0.96868 0.59952 0.73989 0.0
C499 C 0.95017 0.69918 0.89322 0.0
C500 C 0.98313 0.65963 0.85607 0.0
H501 H 0.99084 0.63186 0.71252 0.0
C502 C 0.98632 0.64667 0.90455 0.0
C503 C 0.9852 0.65436 0.78599 0.0
C504 C 0.98277 0.66793 0.73165 0.0
C505 C 0.99065 0.6283 0.88488 0.0
C506 C 0.99219 0.62287 0.81474 0.0
C507 C 0.98958 0.63601 0.76625 0.0
C508 C 0.99556 0.6034 0.79063 0.0
C509 C 0.99265 0.61465 0.93937 0.0
C510 C 0.0124 0.59493 0.80553 0.0
C511 C 0.01522 0.57647 0.7833 0.0
C512 C 1.00133 0.5662 0.74515 0.0
C513 C 0.9846 0.57485 0.72964 0.0
C514 C 0.98177 0.59325 0.75208 0.0
H515 H 0.98669 0.61983 0.98981 0.0
H516 H 0.98521 0.60101 0.92584 0.0
H517 H 0.00814 0.6124 0.94429 0.0
H518 H 0.02341 0.60261 0.83407 0.0
H519 H 0.02834 0.57032 0.79575 0.0
H520 H 0.05897 0.19522 0.44521 0.0
H521 H 0.05472 0.16611 0.50454 0.0
H522 H 0.99309 0.16955 0.50649 0.0
H523 H 0.9973 0.19878 0.44789 0.0
H524 H 0.00803 0.15125 0.62343 0.0
H525 H 0.03401 0.12398 0.36755 0.0
H526 H 0.0499 0.14114 0.40839 0.0
H527 H 0.02686 0.14754 0.38316 0.0
C528 C 0.04457 0.19023 0.46145 0.0
C529 C 0.02846 0.19915 0.44175 0.0
C530 C 0.04214 0.17354 0.49477 0.0
C531 C 0.02359 0.16551 0.50833 0.0
C532 C 0.00752 0.17552 0.49619 0.0
H533 H 0.99195 0.04718 0.49085 0.0
H534 H 0.99547 0.08076 0.47361 0.0
C535 C 0.00994 0.1923 0.46318 0.0
C536 C 0.02095 0.14557 0.52345 0.0
H537 H 0.02721 0.1021 0.45137 0.0
C538 C 0.01225 0.14045 0.58609 0.0
C539 C 0.0261 0.13156 0.47386 0.0
C540 C 0.03458 0.13624 0.4042 0.0
C541 C 0.0088 0.12161 0.60085 0.0
C542 C 0.0144 0.1076 0.55175 0.0
C543 C 0.02295 0.11281 0.48898 0.0
C544 C 0.01157 0.08742 0.56387 0.0
C545 C 0.9988 0.11694 0.66819 0.0
C546 C 0.01974 0.07995 0.61936 0.0
C547 C 0.01758 0.06088 0.62926 0.0
C548 C 0.00738 0.04889 0.58378 0.0
C549 C 0.9997 0.05621 0.52708 0.0
C550 C 1.00168 0.07535 0.51739 0.0
H551 H 0.99044 0.12866 0.69035 0.0
H552 H 0.9889 0.10437 0.6627 0.0
H553 H 0.00976 0.11416 0.70482 0.0
H554 H 0.02813 0.08879 0.6543 0.0
H555 H 0.02451 0.05549 0.67117 0.0
H556 H 0.32286 0.00346 0.38093 0.0
H557 H 0.34807 0.99915 0.45892 0.0
H558 H 0.34855 0.05751 0.52137 0.0
H559 H 0.32403 0.06193 0.43946 0.0
H560 H 0.38247 0.04992 0.48509 0.0
H561 H 0.3563 0.99424 0.65215 0.0
H562 H 0.35293 0.98602 0.56606 0.0
H563 H 0.34016 0.00569 0.60137 0.0
C564 C 0.32769 0.01514 0.41386 0.0
C565 C 0.32133 0.03293 0.4054 0.0
C566 C 0.34215 0.0127 0.4586 0.0
C567 C 0.35019 0.02796 0.49697 0.0
C568 C 0.3426 0.0455 0.49258 0.0
H569 H 0.44682 0.99819 0.72829 0.0
H570 H 0.41617 0.00995 0.70069 0.0
C571 C 0.32841 0.04801 0.44659 0.0
C572 C 0.36832 0.02607 0.53234 0.0
H573 H 0.39108 0.99612 0.62522 0.0
C574 C 0.3842 0.03839 0.51713 0.0
C575 C 0.37071 0.01131 0.57531 0.0
C576 C 0.354 0.99875 0.60018 0.0
C577 C 0.40253 0.03573 0.54036 0.0
C578 C 0.4053 0.01981 0.5771 0.0
C579 C 0.3892 0.00813 0.59569 0.0
C580 C 0.42472 0.01459 0.59526 0.0
C581 C 0.41861 0.05012 0.52525 0.0
C582 C 0.43999 0.01349 0.54563 0.0
C583 C 0.45779 0.00731 0.56206 0.0
C584 C 0.46034 1.00144 0.62757 0.0
C585 C 0.44515 1.00253 0.67714 0.0
C586 C 0.42761 0.00925 0.6614 0.0
H587 H 0.41291 0.06412 0.52192 0.0
H588 H 0.42947 0.05098 0.5648 0.0
H589 H 0.42582 0.04646 0.47517 0.0
H590 H 0.43802 0.0169 0.49363 0.0
H591 H 0.46929 0.00643 0.52299 0.0
H592 H 0.51055 0.31646 0.4018 0.0
H593 H 0.51527 0.3455 0.47007 0.0
H594 H 0.45397 0.35175 0.48155 0.0
H595 H 0.44925 0.32275 0.4128 0.0
H596 H 0.47565 0.3785 0.40693 0.0
H597 H 0.50579 0.37211 0.65981 0.0
H598 H 0.51691 0.35836 0.59144 0.0
H599 H 0.49212 0.35327 0.61712 0.0
C600 C 0.498 0.32339 0.42267 0.0
C601 C 0.47954 0.31744 0.4019 0.0
C602 C 0.50072 0.34009 0.46138 0.0
C603 C 0.48499 0.35088 0.48032 0.0
C604 C 0.4663 0.34363 0.46739 0.0
H605 H 0.48706 0.46451 0.64712 0.0
H606 H 0.4813 0.43117 0.62532 0.0
C607 C 0.46359 0.32697 0.42869 0.0
C608 C 0.48826 0.37099 0.49868 0.0
H609 H 0.50871 0.40224 0.6138 0.0
C610 C 0.48273 0.38369 0.45252 0.0
C611 C 0.49757 0.37771 0.55788 0.0
C612 C 0.50333 0.36469 0.60983 0.0
C613 C 0.48647 0.4029 0.46342 0.0
C614 C 0.49626 0.40961 0.52159 0.0
C615 C 0.50146 0.39699 0.56864 0.0
C616 C 0.5005 0.42979 0.53557 0.0
C617 C 0.47974 0.41589 0.41293 0.0
C618 C 0.51319 0.44015 0.4922 0.0
C619 C 0.51674 0.45931 0.50551 0.0
C620 C 0.50784 0.46826 0.56274 0.0
C621 C 0.49487 0.45791 0.60484 0.0
C622 C 0.49138 0.43883 0.59191 0.0
H623 H 0.46894 0.40887 0.37919 0.0
H624 H 0.47332 0.42817 0.43964 0.0
H625 H 0.49226 0.42096 0.38046 0.0
H626 H 0.5204 0.4334 0.44838 0.0
H627 H 0.52668 0.46705 0.4719 0.0
H628 H 0.21041 0.52573 0.39375 0.0
H629 H 0.18215 0.53225 0.46855 0.0
H630 H 0.16457 0.47383 0.46065 0.0
H631 H 0.19281 0.4673 0.38634 0.0
H632 H 0.14757 0.52371 0.40736 0.0
H633 H 0.14674 0.49053 0.65518 0.0
H634 H 0.16875 0.49586 0.60541 0.0
H635 H 0.1539 0.47531 0.58442 0.0
C636 C 0.20109 0.51419 0.41114 0.0
C637 C 0.20371 0.49603 0.38435 0.0
C638 C 0.18487 0.51794 0.45345 0.0
C639 C 0.17124 0.50353 0.47011 0.0
C640 C 0.17502 0.48512 0.44944 0.0
H641 H 0.04863 0.49469 0.47946 0.0
H642 H 0.08357 0.49326 0.45751 0.0
C643 C 0.19115 0.48139 0.4069 0.0
C644 C 0.15151 0.50793 0.49524 0.0
H645 H 0.11578 0.49688 0.61427 0.0
C646 C 0.14075 0.51815 0.45337 0.0
C647 C 0.14259 0.50059 0.55499 0.0
C648 C 0.15364 0.4901 0.60297 0.0
C649 C 0.12111 0.5205 0.46795 0.0
C650 C 0.11198 0.51236 0.52568 0.0
C651 C 0.12285 0.5029 0.56951 0.0
C652 C 0.09098 0.51309 0.53965 0.0
C653 C 0.1101 0.5313 0.42071 0.0
C654 C 0.08371 0.5248 0.5927 0.0
C655 C 0.06383 0.52582 0.60456 0.0
C656 C 0.05096 0.51488 0.56447 0.0
C657 C 0.05827 0.50326 0.51105 0.0
C658 C 0.07816 0.50237 0.49876 0.0
H659 H 0.11985 0.5395 0.38561 0.0
H660 H 0.10088 0.52145 0.38962 0.0
H661 H 0.10054 0.5409 0.4503 0.0
H662 H 0.09342 0.5333 0.62428 0.0
H663 H 0.05852 0.53526 0.64486 0.0
H664 H 0.01584 0.81712 0.92837 0.0
H665 H 0.02419 0.84558 0.868 0.0
H666 H 0.96453 0.84943 0.82452 0.0
H667 H 0.95628 0.8207 0.88341 0.0
H668 H 0.99205 0.86557 0.72373 0.0
H669 H 0.00456 0.88972 0.99162 0.0
H670 H 0.01899 0.87111 0.95881 0.0
H671 H 0.99331 0.8672 0.96962 0.0
C672 C 0.00475 0.82345 0.90231 0.0
C673 C 0.98546 0.81678 0.91007 0.0
C674 C 0.00947 0.83981 0.86856 0.0
C675 C 0.99489 0.84982 0.84339 0.0
C676 C 0.97598 0.84192 0.84378 0.0
H677 H 0.98878 0.96916 0.85985 0.0
H678 H 0.98406 0.93548 0.87189 0.0
C679 C 0.97129 0.82544 0.87694 0.0
C680 C 0.99855 0.86974 0.82928 0.0
H681 H 0.00949 0.912 0.9086 0.0
C682 C 0.99597 0.87575 0.76388 0.0
C683 C 0.00321 0.88301 0.88233 0.0
C684 C 0.00502 0.87754 0.95471 0.0
C685 C 0.99808 0.89474 0.74999 0.0
C686 C 0.00315 0.90796 0.80283 0.0
C687 C 0.00569 0.90187 0.86812 0.0
C688 C 0.00548 0.92825 0.79267 0.0
C689 C 0.99448 0.90047 0.67934 0.0
C690 C 0.01924 0.9354 0.74479 0.0
C691 C 0.02191 0.95461 0.73796 0.0
C692 C 0.01095 0.96697 0.77906 0.0
C693 C 0.99741 0.95988 0.82763 0.0
C694 C 0.99466 0.94067 0.83424 0.0
H695 H 0.98534 0.88978 0.65143 0.0
H696 H 0.98743 0.91392 0.68084 0.0
H697 H 0.00848 0.9021 0.65015 0.0
H698 H 0.02815 0.92616 0.71355 0.0
H699 H 0.03275 0.95982 0.70118 0.0
H700 H 0.69841 0.96063 0.90282 0.0
H701 H 0.67412 0.96478 0.81972 0.0
H702 H 0.66663 0.02047 0.90472 0.0
H703 H 0.69133 0.01663 0.98495 0.0
H704 H 0.63811 0.96845 0.85614 0.0
H705 H 0.66138 0.0295 0.71071 0.0
H706 H 0.67793 0.01791 0.75948 0.0
H707 H 0.6633 0.03569 0.79942 0.0
C708 C 0.69226 0.97405 0.90119 0.0
C709 C 0.6967 0.98832 0.95018 0.0
C710 C 0.67822 0.97635 0.8543 0.0
C711 C 0.66853 0.99297 0.85566 0.0
C712 C 0.67413 0.00769 0.90122 0.0
H713 H 0.54855 0.0081 0.82022 0.0
H714 H 0.58011 0.99854 0.85072 0.0
C715 C 0.68822 0.00546 0.94745 0.0
C716 C 0.65075 0.99414 0.8178 0.0
H717 H 0.62655 0.02442 0.73139 0.0
C718 C 0.63573 0.98048 0.82739 0.0
C719 C 0.64762 0.0096 0.77923 0.0
C720 C 0.66354 0.02385 0.76105 0.0
C721 C 0.61737 0.98246 0.80315 0.0
C722 C 0.61373 0.9989 0.77078 0.0
C723 C 0.62909 0.01197 0.75752 0.0
C724 C 0.59414 0.00321 0.75155 0.0
C725 C 0.60215 0.9669 0.81278 0.0
C726 C 0.59153 0.00944 0.68648 0.0
C727 C 0.57377 0.01551 0.67009 0.0
C728 C 0.55812 0.01515 0.71802 0.0
C729 C 0.56041 0.00836 0.78238 0.0
C730 C 0.57839 0.00271 0.79945 0.0
H731 H 0.60876 0.95326 0.81379 0.0
H732 H 0.59417 0.96928 0.86243 0.0
H733 H 0.59175 0.96609 0.77168 0.0
H734 H 0.60338 0.00999 0.64871 0.0
H735 H 0.57233 0.02056 0.6198 0.0
H736 H 0.50561 0.70048 0.98129 0.0
H737 H 0.49894 0.67184 0.91207 0.0
H738 H 0.55974 0.66785 0.86473 0.0
H739 H 0.5664 0.69671 0.93304 0.0
H740 H 0.53269 0.65157 0.7582 0.0
H741 H 0.5181 0.62807 0.02166 0.0
H742 H 0.50434 0.64699 -0.00084 0.0
H743 H 0.53 0.65034 0.00418 0.0
C744 C 0.51741 0.69406 0.95281 0.0
C745 C 0.53649 0.70073 0.96219 0.0
C746 C 0.51363 0.67764 0.91379 0.0
C747 C 0.52889 0.66759 0.88449 0.0
C748 C 0.54778 0.67543 0.88696 0.0
H749 H 0.52974 0.5473 0.85728 0.0
H750 H 0.53696 0.58075 0.87872 0.0
C751 C 0.55157 0.69197 0.92558 0.0
C752 C 0.52556 0.64764 0.86434 0.0
H753 H 0.51313 0.60572 0.93202 0.0
C754 C 0.52838 0.6415 0.79594 0.0
C755 C 0.52038 0.63452 0.91414 0.0
C756 C 0.51818 0.6402 0.989 0.0
C757 C 0.5258 0.62251 0.77585 0.0
C758 C 0.52003 0.60948 0.82556 0.0
C759 C 0.51748 0.6157 0.89395 0.0
C760 C 0.51654 0.58929 0.80862 0.0
C761 C 0.52957 0.6166 0.70193 0.0
C762 C 0.50253 0.58297 0.76274 0.0
C763 C 0.49843 0.5639 0.75061 0.0
C764 C 0.50817 0.55085 0.78437 0.0
C765 C 0.52201 0.55713 0.83079 0.0
C766 C 0.52621 0.57619 0.84266 0.0
H767 H 0.53944 0.62687 0.67546 0.0
H768 H 0.53589 0.60278 0.69639 0.0
H769 H 0.51575 0.61566 0.67597 0.0
H770 H 0.49447 0.59276 0.73744 0.0
H771 H 0.48738 0.55934 0.71568 0.0
H772 H 0.81027 0.48889 0.96929 0.0
H773 H 0.83978 0.4852 0.89796 0.0
H774 H 0.8447 0.54434 0.87201 0.0
H775 H 0.81503 0.54804 0.94271 0.0
H776 H 0.86141 0.51791 0.75549 0.0
H777 H 0.88485 0.51034 0.01846 0.0
H778 H 0.86496 0.49508 0.99214 0.0
H779 H 0.86216 0.51969 0.00194 0.0
C780 C 0.81705 0.50092 0.945 0.0
C781 C 0.81049 0.51874 0.96145 0.0
C782 C 0.83394 0.49883 0.90464 0.0
C783 C 0.84451 0.51455 0.88081 0.0
C784 C 0.83668 0.53206 0.88989 0.0
H785 H 0.96872 0.52995 0.85796 0.0
H786 H 0.93401 0.53305 0.87871 0.0
C787 C 0.81968 0.53414 0.92995 0.0
C788 C 0.86519 0.51332 0.86099 0.0
H789 H 0.90833 0.50734 0.92915 0.0
C790 C 0.87173 0.51557 0.79317 0.0
C791 C 0.87858 0.51063 0.91078 0.0
C792 C 0.8724 0.50893 0.98506 0.0
C793 C 0.89142 0.51492 0.77363 0.0
C794 C 0.90474 0.51175 0.82332 0.0
C795 C 0.89812 0.50971 0.89114 0.0
C796 C 0.92568 0.51057 0.80696 0.0
C797 C 0.89779 0.51789 0.70038 0.0
C798 C 0.93251 0.49676 0.76045 0.0
C799 C 0.95231 0.49496 0.74886 0.0
C800 C 0.96556 0.50689 0.78365 0.0
C801 C 0.95875 0.52056 0.83066 0.0
C802 C 0.93897 0.5224 0.84214 0.0
H803 H 0.88717 0.5256 0.67436 0.0
H804 H 0.91202 0.52565 0.69641 0.0
H805 H 0.89905 0.50414 0.67291 0.0
H806 H 0.92256 0.48714 0.73419 0.0
H807 H 0.95728 0.48407 0.71337 0.0
H808 H 0.01355 0.2065 0.15327 0.0
H809 H 0.0162 0.18193 0.06343 0.0
H810 H 0.07138 0.16912 0.1332 0.0
H811 H 0.06883 0.19372 0.22338 0.0
H812 H 0.04467 0.1704 0.95631 0.0
H813 H 0.03451 0.12267 0.17054 0.0
H814 H 0.0304 0.14716 0.18127 0.0
H815 H 0.05454 0.13951 0.17516 0.0
C816 C 0.0266 0.19897 0.14784 0.0
C817 C 0.0409 0.20188 0.19578 0.0
C818 C 0.02804 0.18486 0.09669 0.0
C819 C 0.04379 0.1735 0.09275 0.0
C820 C 0.05897 0.17758 0.13621 0.0
H821 H 0.05085 0.06204 0.89992 0.0
H822 H 0.05868 0.09184 0.96098 0.0
C823 C 0.05753 0.19165 0.18748 0.0
C824 C 0.04301 0.15604 0.04979 0.0
H825 H 0.03675 0.10892 0.06002 0.0
C826 C 0.0431 0.15693 0.97875 0.0
C827 C 0.04085 0.13852 0.07948 0.0
C828 C 0.0399 0.13679 0.15577 0.0
C829 C 0.04108 0.14068 0.93645 0.0
C830 C 0.0385 0.12319 0.9663 0.0
C831 C 0.0388 0.12233 0.03727 0.0
C832 C 0.03453 0.10563 0.92559 0.0
C833 C 0.04182 0.1424 0.86027 0.0
C834 C 0.01827 0.10345 0.88602 0.0
C835 C 0.0138 0.08648 0.85126 0.0
C836 C 0.02539 0.07135 0.85612 0.0
C837 C 0.04166 0.0735 0.8956 0.0
C838 C 0.04616 0.0905 0.93024 0.0
H839 H 0.04977 0.15549 0.84528 0.0
H840 H 0.0488 0.13045 0.83339 0.0
H841 H 0.02693 0.14267 0.84294 0.0
H842 H 0.0088 0.11475 0.88309 0.0
H843 H 1.00118 0.08519 0.82099 0.0
H844 H 0.32268 0.01902 0.10805 0.0
H845 H 0.35106 0.01765 0.02968 0.0
H846 H 0.37569 0.0678 0.12741 0.0
H847 H 0.34744 0.06907 0.20672 0.0
H848 H 0.37079 0.04049 0.93831 0.0
H849 H 0.41487 0.02956 0.15846 0.0
H850 H 0.38891 0.0289 0.16509 0.0
H851 H 0.40261 0.05085 0.16559 0.0
C852 C 0.33387 0.03007 0.11147 0.0
C853 C 0.33295 0.04407 0.16377 0.0
C854 C 0.35014 0.0292 0.06699 0.0
C855 C 0.3657 0.04233 0.07404 0.0
C856 C 0.36406 0.05724 0.12235 0.0
H857 H 0.46613 0.05063 0.79458 0.0
H858 H 0.4375 0.05669 0.86704 0.0
C859 C 0.34787 0.05805 0.16718 0.0
C860 C 0.38409 0.03961 0.03432 0.0
H861 H 0.43161 0.03228 0.05137 0.0
C862 C 0.3841 0.03875 0.96295 0.0
C863 C 0.40135 0.03689 0.06668 0.0
C864 C 0.40198 0.0364 0.14313 0.0
C865 C 0.40099 0.03553 0.92301 0.0
C866 C 0.41838 0.03349 0.95544 0.0
C867 C 0.41831 0.03408 0.02675 0.0
C868 C 0.43674 0.03047 0.91605 0.0
C869 C 0.39995 0.03385 0.84649 0.0
C870 C 0.44642 0.01412 0.92226 0.0
C871 C 0.46301 0.01067 0.8814 0.0
C872 C 0.47015 0.02355 0.83373 0.0
C873 C 0.46094 0.04033 0.83033 0.0
C874 C 0.44446 0.04378 0.87131 0.0
H875 H 0.38495 0.03081 0.83079 0.0
H876 H 0.40533 0.04719 0.82475 0.0
H877 H 0.40904 0.0227 0.82421 0.0
H878 H 0.44076 0.00374 0.95701 0.0
H879 H 0.46969 0.99759 0.88507 0.0
H880 H 0.49168 0.3447 0.21444 0.0
H881 H 0.49177 0.36691 0.12593 0.0
H882 H 0.46211 0.32595 0.99566 0.0
H883 H 0.46142 0.30345 0.08628 0.0
H884 H 0.50863 0.36286 0.99451 0.0
H885 H 0.42992 0.37303 0.99376 0.0
H886 H 0.44054 0.36258 0.06325 0.0
H887 H 0.43774 0.34962 0.98381 0.0
C888 C 0.48482 0.34042 0.16754 0.0
C889 C 0.47615 0.32242 0.15793 0.0
C890 C 0.48506 0.35311 0.1167 0.0
C891 C 0.47677 0.34816 0.05457 0.0
C892 C 0.46832 0.33012 0.04378 0.0
H893 H 0.50456 0.42975 0.74284 0.0
H894 H 0.49848 0.3998 0.79533 0.0
C895 C 0.46806 0.31727 0.09521 0.0
C896 C 0.47767 0.36216 0.00181 0.0
H897 H 0.45051 0.39273 0.92761 0.0
C898 C 0.49592 0.36921 0.97881 0.0
C899 C 0.46105 0.3705 0.98231 0.0
C900 C 0.44115 0.3637 0.00711 0.0
C901 C 0.49811 0.38495 0.93958 0.0
C902 C 0.48151 0.39358 0.9211 0.0
C903 C 0.46319 0.38605 0.94171 0.0
C904 C 0.48304 0.41118 0.88482 0.0
C905 C 0.51823 0.39281 0.92192 0.0
C906 C 0.47552 0.42738 0.91595 0.0
C907 C 0.47869 0.44447 0.8854 0.0
C908 C 0.48958 0.4456 0.82365 0.0
C909 C 0.49641 0.42928 0.79119 0.0
C910 C 0.49298 0.41218 0.82114 0.0
H911 H 0.52909 0.38724 0.95375 0.0
H912 H 0.52215 0.38897 0.86788 0.0
H913 H 0.51912 0.40822 0.92863 0.0
H914 H 0.46773 0.4269 0.96499 0.0
H915 H 0.47316 0.45686 0.91107 0.0
H916 H 0.18846 0.45927 0.17211 0.0
H917 H 0.16333 0.45887 0.08952 0.0
H918 H 0.19023 0.50836 0.00393 0.0
H919 H 0.21528 0.509 0.08696 0.0
H920 H 0.1406 0.49151 0.09461 0.0
H921 H 0.17236 0.47495 0.83496 0.0
H922 H 0.18268 0.46777 0.91118 0.0
H923 H 0.18587 0.49153 0.8879 0.0
C924 C 0.18933 0.46975 0.1344 0.0
C925 C 0.20374 0.48425 0.13639 0.0
C926 C 0.17499 0.46949 0.08724 0.0
C927 C 0.17494 0.48357 0.04069 0.0
C928 C 0.19017 0.49721 0.03882 0.0
H929 H 0.08978 0.52119 0.77956 0.0
H930 H 0.11915 0.5159 0.83767 0.0
C931 C 0.20451 0.49752 0.08621 0.0
C932 C 0.15754 0.48567 0.00223 0.0
H933 H 0.14064 0.48548 0.84243 0.0
C934 C 0.14054 0.49004 0.03948 0.0
C935 C 0.15766 0.48405 0.93042 0.0
C936 C 0.17556 0.4792 0.88845 0.0
C937 C 0.12366 0.49309 0.00687 0.0
C938 C 0.12361 0.49116 0.93494 0.0
C939 C 0.14066 0.48683 0.89757 0.0
C940 C 0.10601 0.49382 0.89787 0.0
C941 C 0.10624 0.49892 0.04985 0.0
C942 C 0.08897 0.48296 0.91155 0.0
C943 C 0.07215 0.48613 0.87916 0.0
C944 C 0.07217 0.50002 0.83174 0.0
C945 C 0.08935 0.51051 0.81647 0.0
C946 C 0.10614 0.50744 0.84932 0.0
H947 H 0.11027 0.50497 0.10055 0.0
H948 H 0.09834 0.50931 0.02425 0.0
H949 H 0.09633 0.48654 0.05831 0.0
H950 H 0.08866 0.47206 0.94753 0.0
H951 H 0.05915 0.47768 0.8911 0.0
H952 H 0.98925 0.8021 0.2103 0.0
H953 H 0.99139 0.82485 0.30787 0.0
H954 H 0.95383 0.85996 0.21149 0.0
H955 H 0.95169 0.83737 0.11491 0.0
H956 H 0.00652 0.86127 0.29078 0.0
H957 H 0.93274 0.86232 0.40908 0.0
H958 H 0.94076 0.84313 0.35414 0.0
H959 H 0.93323 0.86385 0.31829 0.0
C960 C 0.98101 0.81441 0.21138 0.0
C961 C 0.97025 0.81805 0.15573 0.0
C962 C 0.98228 0.8274 0.26673 0.0
C963 C 0.97257 0.84398 0.26728 0.0
C964 C 0.96108 0.8471 0.21296 0.0
H965 H 0.97343 0.95446 0.4477 0.0
H966 H 0.96751 0.9246 0.38438 0.0
C967 C 0.95994 0.83425 0.15772 0.0
C968 C 0.97624 0.85919 0.31936 0.0
H969 H 0.95352 0.88969 0.43032 0.0
C970 C 0.99502 0.86727 0.32241 0.0
C971 C 0.96117 0.86708 0.35996 0.0
C972 C 0.94087 0.85854 0.36078 0.0
C973 C 0.99898 0.88362 0.36233 0.0
C974 C 0.98378 0.89186 0.40129 0.0
C975 C 0.96512 0.8834 0.40011 0.0
C976 C 0.98687 0.90966 0.44143 0.0
C977 C 0.01921 0.89242 0.35978 0.0
C978 C 0.99951 0.91107 0.49493 0.0
C979 C 0.00301 0.9281 0.53055 0.0
C980 C 0.99376 0.94394 0.51384 0.0
C981 C 0.98079 0.94246 0.46132 0.0
C982 C 0.97736 0.92542 0.42541 0.0
H983 H 0.02805 0.88681 0.31564 0.0
H984 H 0.01905 0.90775 0.35669 0.0
H985 H 0.02632 0.88949 0.40693 0.0
H986 H 0.00672 0.89902 0.50897 0.0
H987 H 0.01301 0.92888 0.57112 0.0
H988 H 0.69144 0.95411 0.22396 0.0
H989 H 0.66429 0.95508 0.30855 0.0
H990 H 0.65787 0.0127 0.26963 0.0
H991 H 0.68529 0.01196 0.18723 0.0
H992 H 0.65023 0.00583 0.4033 0.0
H993 H 0.61048 0.95363 0.23726 0.0
H994 H 0.63241 0.94602 0.26789 0.0
H995 H 0.63331 0.96472 0.21056 0.0
C996 C 0.68464 0.96713 0.23532 0.0
C997 C 0.69029 0.98291 0.19854 0.0
C998 C 0.66896 0.9676 0.28282 0.0
C999 C 0.65868 0.98379 0.2937 0.0
C1000 C 0.66543 0.99998 0.26148 0.0
H1001 H 0.55 0.01999 0.46676 0.0
H1002 H 0.58037 0.01574 0.40097 0.0
C1003 C 0.6811 0.99955 0.21443 0.0
C1004 C 0.64007 0.98373 0.33408 0.0
H1005 H 0.5938 0.96491 0.33666 0.0
C1006 C 0.63793 0.99681 0.38895 0.0
C1007 C 0.62395 0.97206 0.31485 0.0
C1008 C 0.62501 0.95842 0.2541 0.0
C1009 C 0.62014 0.99858 0.42487 0.0
C1010 C 0.60404 0.98708 0.4051 0.0
C1011 C 0.60621 0.97372 0.35137 0.0
C1012 C 0.5848 0.98885 0.43968 0.0
C1013 C 0.61863 0.01276 0.48375 0.0
C1014 C 0.57693 0.97479 0.48099 0.0
C1015 C 0.55958 0.97714 0.51853 0.0
C1016 C 0.5497 0.99354 0.51491 0.0
C1017 C 0.55714 0.00715 0.47044 0.0
C1018 C 0.57458 0.00483 0.43331 0.0
H1019 H 0.633 0.01765 0.5018 0.0
H1020 H 0.61137 0.02498 0.46739 0.0
H1021 H 0.60983 0.00685 0.52689 0.0
H1022 H 0.58458 0.96231 0.48616 0.0
H1023 H 0.55428 0.96637 0.55222 0.0
H1024 H 0.57234 0.70448 0.22988 0.0
H1025 H 0.5708 0.67996 0.3125 0.0
H1026 H 0.50992 0.67045 0.28513 0.0
H1027 H 0.51139 0.6948 0.2025 0.0
H1028 H 0.54698 0.67098 0.4362 0.0
H1029 H 0.53506 0.62135 0.21506 0.0
H1030 H 0.54345 0.64529 0.20548 0.0
H1031 H 0.51837 0.6395 0.2246 0.0
C1032 C 0.55852 0.69759 0.24336 0.0
C1033 C 0.542 0.7014 0.20952 0.0
C1034 C 0.55769 0.68353 0.29019 0.0
C1035 C 0.54033 0.67317 0.30371 0.0
C1036 C 0.52351 0.6781 0.27449 0.0
H1037 H 0.50653 0.58806 0.58465 0.0
H1038 H 0.51283 0.61713 0.52671 0.0
C1039 C 0.52435 0.69205 0.22762 0.0
C1040 C 0.54007 0.65604 0.34233 0.0
H1041 H 0.53147 0.60897 0.32452 0.0
C1042 C 0.54369 0.65739 0.41191 0.0
C1043 C 0.53618 0.63831 0.31005 0.0
C1044 C 0.53322 0.63591 0.23456 0.0
C1045 C 0.54285 0.64147 0.45068 0.0
C1046 C 0.53803 0.62383 0.41898 0.0
C1047 C 0.53505 0.62249 0.34891 0.0
C1048 C 0.5353 0.60661 0.45752 0.0
C1049 C 0.54725 0.64369 0.52501 0.0
C1050 C 0.54557 0.59087 0.4372 0.0
C1051 C 0.54182 0.57414 0.46979 0.0
C1052 C 0.52766 0.57288 0.52297 0.0
C1053 C 0.51757 0.58867 0.54382 0.0
C1054 C 0.52128 0.60536 0.51119 0.0
H1055 H 0.55639 0.65655 0.53588 0.0
H1056 H 0.53357 0.64475 0.5561 0.0
H1057 H 0.55469 0.63157 0.54137 0.0
H1058 H 0.55635 0.59148 0.39555 0.0
H1059 H 0.5498 0.56215 0.45283 0.0
H1060 H 0.80927 0.55132 0.24364 0.0
H1061 H 0.83458 0.55035 0.32545 0.0
H1062 H 0.83986 0.49196 0.27332 0.0
H1063 H 0.81474 0.4929 0.19116 0.0
H1064 H 0.8422 0.52828 0.43863 0.0
H1065 H 0.89265 0.51709 0.21433 0.0
H1066 H 0.86845 0.52417 0.20679 0.0
H1067 H 0.87265 0.50023 0.21931 0.0
C1068 C 0.81538 0.53815 0.25138 0.0
C1069 C 0.81019 0.52221 0.21076 0.0
C1070 C 0.82991 0.53764 0.29779 0.0
C1071 C 0.83937 0.52118 0.30419 0.0
C1072 C 0.83298 0.50488 0.26813 0.0
H1073 H 0.92681 0.49676 0.58013 0.0
H1074 H 0.89682 0.49927 0.52258 0.0
C1075 C 0.81857 0.5054 0.22156 0.0
C1076 C 0.8571 0.52144 0.3429 0.0
H1077 H 0.90529 0.51505 0.32284 0.0
C1078 C 0.85602 0.52543 0.41349 0.0
C1079 C 0.87517 0.51811 0.30961 0.0
C1080 C 0.87742 0.51483 0.23327 0.0
C1081 C 0.87252 0.52569 0.45201 0.0
C1082 C 0.89045 0.52162 0.419 0.0
C1083 C 0.89153 0.51805 0.34819 0.0
C1084 C 0.90832 0.52078 0.45656 0.0
C1085 C 0.87061 0.5306 0.52742 0.0
C1086 C 0.92492 0.53173 0.43766 0.0
C1087 C 0.94215 0.53013 0.46992 0.0
C1088 C 0.94307 0.51751 0.52146 0.0
C1089 C 0.92645 0.50664 0.54064 0.0
C1090 C 0.90926 0.50819 0.50823 0.0
H1091 H 0.85771 0.53866 0.5407 0.0
H1092 H 0.86902 0.5176 0.55554 0.0
H1093 H 0.88355 0.53883 0.54509 0.0
H1094 H 0.92457 0.54145 0.39762 0.0
H1095 H 0.95476 0.53867 0.45428 0.0
loop_
_geom_bond_atom_site_label_1
_geom_bond_atom_site_label_2
_geom_bond_distance
_geom_bond_site_symmetry_2
_ccdc_geom_bond_type
H0 C1 0.949 1_556 S
C1 H0 0.949 1_554 S
C1 C2 1.395 . S
C1 C3 1.391 . S
C2 C1 1.395 . S
C2 C5 1.390 . S
C3 C1 1.391 . S
C3 C7 1.387 . S
C3 C8 1.491 . S
H4 C5 0.950 . S
C5 C2 1.390 . S
C5 H4 0.950 . S
C5 C6 1.378 . S
C6 C5 1.378 . S
C6 C7 1.409 . S
C7 C3 1.387 . S
C7 C6 1.409 . S
C7 H9 0.951 . S
C8 C3 1.491 . S
C8 C10 1.382 . S
C8 C12 1.404 . S
H9 C7 0.951 . S
C10 C8 1.382 . S
C10 C11 1.390 . S
C10 H15 0.949 1_554 S
C11 C10 1.390 . S
C11 C16 1.399 . S
C12 C8 1.404 . S
C12 H13 0.950 . S
C12 C14 1.375 . S
H13 C12 0.950 . S
C14 C12 1.375 . S
C14 C16 1.382 . S
C14 H18 0.950 . S
H15 C10 0.949 1_556 S
C16 C11 1.399 . S
C16 C14 1.382 . S
C16 H17 0.952 . S
H17 C16 0.952 . S
H18 C14 0.950 . S
H19 C20 0.949 . S
C20 H19 0.949 . S
C20 C21 1.395 . S
C20 C22 1.391 1_556 S
C21 C20 1.395 . S
C21 C24 1.390 1_556 S
C22 C20 1.391 1_554 S
C22 C26 1.387 . S
C22 C27 1.491 . S
H23 C24 0.950 . S
C24 C21 1.390 1_554 S
C24 H23 0.950 . S
C24 C25 1.378 . S
C25 C24 1.378 . S
C25 C26 1.409 . S
C26 C22 1.387 . S
C26 C25 1.409 . S
C26 H28 0.951 . S
C27 C22 1.491 . S
C27 C29 1.382 1_554 S
C27 C31 1.404 . S
H28 C26 0.951 . S
C29 C27 1.382 1_556 S
C29 C30 1.390 . S
C29 H34 0.949 . S
C30 C29 1.390 . S
C30 C35 1.399 1_556 S
C31 C27 1.404 . S
C31 H32 0.950 . S
C31 C33 1.375 . S
H32 C31 0.950 . S
C33 C31 1.375 . S
C33 C35 1.382 . S
C33 H37 0.950 . S
H34 C29 0.949 . S
C35 C30 1.399 1_554 S
C35 C33 1.382 . S
C35 H36 0.952 . S
H36 C35 0.952 . S
H37 C33 0.950 . S
H38 C39 0.937 1_556 S
C39 H38 0.937 1_554 S
C39 C40 1.395 . S
C39 C41 1.404 . S
C40 C39 1.395 . S
C40 C43 1.390 . S
C41 C39 1.404 . S
C41 C45 1.387 . S
C41 C46 1.491 . S
H42 C43 0.950 . S
C43 C40 1.390 . S
C43 H42 0.950 . S
C43 C44 1.378 . S
C44 C43 1.378 . S
C44 C45 1.409 . S
C45 C41 1.387 . S
C45 C44 1.409 . S
C45 H47 0.951 . S
C46 C41 1.491 . S
C46 C48 1.382 . S
C46 C50 1.404 . S
H47 C45 0.951 . S
C48 C46 1.382 . S
C48 C49 1.389 1_554 S
C48 H53 0.949 1_554 S
C49 C48 1.389 1_556 S
C49 C54 1.388 1_556 S
C50 C46 1.404 . S
C50 H51 0.950 . S
C50 C52 1.375 . S
H51 C50 0.950 . S
C52 C50 1.375 . S
C52 C54 1.382 . S
C52 H56 0.950 . S
H53 C48 0.949 1_556 S
C54 C49 1.388 1_554 S
C54 C52 1.382 . S
C54 H55 0.952 . S
H55 C54 0.952 . S
H56 C52 0.950 . S
H57 C58 0.949 1_556 S
C58 H57 0.949 1_554 S
C58 C59 1.395 . S
C58 C60 1.391 . S
C59 C58 1.395 . S
C59 C62 1.390 . S
C60 C58 1.391 . S
C60 C64 1.387 . S
C60 C65 1.491 . S
H61 C62 0.950 . S
C62 C59 1.390 . S
C62 H61 0.950 . S
C62 C63 1.378 . S
C63 C62 1.378 . S
C63 C64 1.409 . S
C64 C60 1.387 . S
C64 C63 1.409 . S
C64 H66 0.951 . S
C65 C60 1.491 . S
C65 C67 1.382 . S
C65 C69 1.404 . S
H66 C64 0.951 . S
C67 C65 1.382 . S
C67 C68 1.390 . S
C67 H72 0.949 . S
C68 C67 1.390 . S
C68 C73 1.399 . S
C69 C65 1.404 . S
C69 H70 0.950 . S
C69 C71 1.375 . S
H70 C69 0.950 . S
C71 C69 1.375 . S
C71 C73 1.382 . S
C71 H75 0.950 . S
H72 C67 0.949 . S
C73 C68 1.399 . S
C73 C71 1.382 . S
C73 H74 0.952 . S
H74 C73 0.952 . S
H75 C71 0.950 . S
H76 C77 0.949 . S
C77 H76 0.949 . S
C77 C78 1.395 . S
C77 C79 1.391 . S
C78 C77 1.395 . S
C78 C81 1.390 . S
C79 C77 1.391 . S
C79 C83 1.387 . S
C79 C84 1.491 . S
H80 C81 0.950 . S
C81 C78 1.390 . S
C81 H80 0.950 . S
C81 C82 1.378 . S
C82 C81 1.378 . S
C82 C83 1.409 . S
C83 C79 1.387 . S
C83 C82 1.409 . S
C83 H85 0.951 . S
C84 C79 1.491 . S
C84 C86 1.382 . S
C84 C88 1.404 . S
H85 C83 0.951 . S
C86 C84 1.382 . S
C86 C87 1.390 . S
C86 H91 0.949 . S
C87 C86 1.390 . S
C87 C92 1.399 . S
C88 C84 1.404 . S
C88 H89 0.950 . S
C88 C90 1.375 . S
H89 C88 0.950 . S
C90 C88 1.375 . S
C90 C92 1.382 . S
C90 H94 0.950 . S
H91 C86 0.949 . S
C92 C87 1.399 . S
C92 C90 1.382 . S
C92 H93 0.952 . S
H93 C92 0.952 . S
H94 C90 0.950 . S
H95 C96 0.949 . S
C96 H95 0.949 . S
C96 C97 1.395 . S
C96 C98 1.391 . S
C97 C96 1.395 . S
C97 C100 1.390 . S
C98 C96 1.391 . S
C98 C102 1.387 . S
C98 C103 1.491 . S
H99 C100 0.950 . S
C100 C97 1.390 . S
C100 H99 0.950 . S
C100 C101 1.378 . S
C101 C100 1.378 . S
C101 C102 1.409 . S
C102 C98 1.387 . S
C102 C101 1.409 . S
C102 H104 0.951 . S
C103 C98 1.491 . S
C103 C105 1.382 . S
C103 C107 1.404 . S
H104 C102 0.951 . S
C105 C103 1.382 . S
C105 C106 1.390 . S
C105 H110 0.949 . S
C106 C105 1.390 . S
C106 C111 1.399 . S
C107 C103 1.404 . S
C107 H108 0.950 . S
C107 C109 1.375 . S
H108 C107 0.950 . S
C109 C107 1.375 . S
C109 C111 1.382 . S
C109 H113 0.950 . S
H110 C105 0.949 . S
C111 C106 1.399 . S
C111 C109 1.382 . S
C111 H112 0.952 . S
H112 C111 0.952 . S
H113 C109 0.950 . S
H114 C115 0.949 . S
C115 H114 0.949 . S
C115 C116 1.395 . S
C115 C117 1.391 . S
C116 C115 1.395 . S
C116 C119 1.390 . S
C117 C115 1.391 . S
C117 C121 1.387 . S
C117 C122 1.491 . S
H118 C119 0.950 . S
C119 C116 1.390 . S
C119 H118 0.950 . S
C119 C120 1.378 . S
C120 C119 1.378 . S
C120 C121 1.409 . S
C121 C117 1.387 . S
C121 C120 1.409 . S
C121 H123 0.951 . S
C122 C117 1.491 . S
C122 C124 1.382 . S
C122 C126 1.404 . S
H123 C121 0.951 . S
C124 C122 1.382 . S
C124 C125 1.390 . S
C124 H129 0.949 . S
C125 C124 1.390 . S
C125 C130 1.399 . S
C126 C122 1.404 . S
C126 H127 0.950 . S
C126 C128 1.375 . S
H127 C126 0.950 . S
C128 C126 1.375 . S
C128 C130 1.382 . S
C128 H132 0.950 . S
H129 C124 0.949 . S
C130 C125 1.399 . S
C130 C128 1.382 . S
C130 H131 0.952 . S
H131 C130 0.952 . S
H132 C128 0.950 . S
H133 C134 0.949 . S
C134 H133 0.949 . S
C134 C135 1.395 . S
C134 C136 1.391 . S
C135 C134 1.395 . S
C135 C138 1.390 . S
C136 C134 1.391 . S
C136 C140 1.387 . S
C136 C141 1.491 . S
H137 C138 0.950 . S
C138 C135 1.390 . S
C138 H137 0.950 . S
C138 C139 1.378 . S
C139 C138 1.378 . S
C139 C140 1.409 . S
C140 C136 1.387 . S
C140 C139 1.409 . S
C140 H142 0.951 . S
C141 C136 1.491 . S
C141 C143 1.382 . S
C141 C145 1.404 . S
H142 C140 0.951 . S
C143 C141 1.382 . S
C143 C144 1.390 . S
C143 H148 0.949 . S
C144 C143 1.390 . S
C144 C149 1.399 . S
C145 C141 1.404 . S
C145 H146 0.950 . S
C145 C147 1.375 . S
H146 C145 0.950 . S
C147 C145 1.375 . S
C147 C149 1.382 . S
C147 H151 0.950 . S
H148 C143 0.949 . S
C149 C144 1.399 . S
C149 C147 1.382 . S
C149 H150 0.952 . S
H150 C149 0.952 . S
H151 C147 0.950 . S
Tb152 O155 2.407 1_565 S
Tb152 O156 2.563 1_665 S
Tb152 O157 2.372 1_665 S
Tb152 O165 2.365 1_655 S
Tb152 O167 2.348 1_565 S
Tb152 O169 2.465 . S
Tb152 O170 2.553 1_655 S
C153 O157 1.251 . S
C153 O159 1.263 . S
Tb154 O156 2.343 . S
Tb154 O159 2.353 . S
Tb154 O162 2.427 . S
Tb154 O163 2.510 1_455 S
Tb154 O164 2.453 1_545 S
Tb154 O165 2.596 1_545 S
Tb154 O166 2.374 1_455 S
O155 Tb152 2.407 1_545 S
O155 C171 1.245 1_655 S
O156 Tb152 2.563 1_445 S
O156 Tb154 2.343 . S
O156 C171 1.259 . S
O157 Tb152 2.372 1_445 S
O157 C153 1.251 . S
C158 O162 1.275 . S
C158 O163 1.241 1_455 S
O159 C153 1.263 . S
O159 Tb154 2.353 . S
C160 O164 1.245 . S
C160 O165 1.259 . S
C161 O166 1.250 . S
C161 O167 1.263 . S
O162 Tb154 2.427 . S
O162 C158 1.275 . S
O163 Tb154 2.510 1_655 S
O163 C158 1.241 1_655 S
O164 Tb154 2.453 1_565 S
O164 C160 1.245 . S
O165 Tb152 2.365 1_455 S
O165 Tb154 2.596 1_565 S
O165 C160 1.259 . S
O166 Tb154 2.374 1_655 S
O166 C161 1.250 . S
O167 Tb152 2.348 1_545 S
O167 C161 1.263 . S
C168 O169 1.275 . S
C168 O170 1.246 1_655 S
O169 Tb152 2.465 . S
O169 C168 1.275 . S
O170 Tb152 2.553 1_455 S
O170 C168 1.246 1_455 S
C171 O155 1.245 1_455 S
C171 O156 1.259 . S
Tb172 O175 2.453 . S
Tb172 O176 2.543 1_545 S
Tb172 O177 2.374 . S
Tb172 O185 2.343 . S
Tb172 O187 2.353 . S
Tb172 O189 2.427 . S
Tb172 O190 2.513 . S
C173 O177 1.251 . S
C173 O179 1.262 1_545 S
Tb174 O176 2.373 . S
Tb174 O179 2.353 . S
Tb174 O182 2.427 . S
Tb174 O183 2.513 . S
Tb174 O184 2.453 . S
Tb174 O185 2.596 1_565 S
Tb174 O186 2.374 . S
O175 Tb172 2.453 . S
O175 C191 1.245 . S
O176 Tb172 2.543 1_565 S
O176 Tb174 2.373 . S
O176 C191 1.245 1_565 S
O177 Tb172 2.374 . S
O177 C173 1.251 . S
C178 O182 1.275 . S
C178 O183 1.246 . S
O179 C173 1.262 1_565 S
O179 Tb174 2.353 . S
C180 O184 1.245 1_545 S
C180 O185 1.259 . S
C181 O186 1.250 1_545 S
C181 O187 1.263 . S
O182 Tb174 2.427 . S
O182 C178 1.275 . S
O183 Tb174 2.513 . S
O183 C178 1.246 . S
O184 Tb174 2.453 . S
O184 C180 1.245 1_565 S
O185 Tb172 2.343 . S
O185 Tb174 2.596 1_545 S
O185 C180 1.259 . S
O186 Tb174 2.374 . S
O186 C181 1.250 1_565 S
O187 Tb172 2.353 . S
O187 C181 1.263 . S
C188 O189 1.275 . S
C188 O190 1.246 . S
O189 Tb172 2.427 . S
O189 C188 1.275 . S
O190 Tb172 2.513 . S
O190 C188 1.246 . S
C191 O175 1.245 . S
C191 O176 1.245 1_545 S
Tb192 O195 2.453 . S
Tb192 O196 2.596 . S
Tb192 O197 2.374 . S
Tb192 O205 2.343 . S
Tb192 O207 2.353 . S
Tb192 O209 2.427 . S
Tb192 O210 2.513 . S
C193 O197 1.251 . S
C193 O199 1.263 . S
Tb194 O196 2.343 . S
Tb194 O199 2.353 . S
Tb194 O202 2.427 . S
Tb194 O203 2.513 . S
Tb194 O204 2.453 . S
Tb194 O205 2.596 . S
Tb194 O206 2.374 . S
O195 Tb192 2.453 . S
O195 C211 1.245 . S
O196 Tb192 2.596 . S
O196 Tb194 2.343 . S
O196 C211 1.259 . S
O197 Tb192 2.374 . S
O197 C193 1.251 . S
C198 O202 1.275 . S
C198 O203 1.246 . S
O199 C193 1.263 . S
O199 Tb194 2.353 . S
C200 O204 1.245 . S
C200 O205 1.259 . S
C201 O206 1.250 . S
C201 O207 1.263 . S
O202 Tb194 2.427 . S
O202 C198 1.275 . S
O203 Tb194 2.513 . S
O203 C198 1.246 . S
O204 Tb194 2.453 . S
O204 C200 1.245 . S
O205 Tb192 2.343 . S
O205 Tb194 2.596 . S
O205 C200 1.259 . S
O206 Tb194 2.374 . S
O206 C201 1.250 . S
O207 Tb192 2.353 . S
O207 C201 1.263 . S
C208 O209 1.275 . S
C208 O210 1.246 . S
O209 Tb192 2.427 . S
O209 C208 1.275 . S
O210 Tb192 2.513 . S
O210 C208 1.246 . S
C211 O195 1.245 . S
C211 O196 1.259 . S
Tb212 O215 2.450 . S
Tb212 O216 2.593 . S
Tb212 O217 2.373 . S
Tb212 O225 2.344 1_455 S
Tb212 O227 2.353 . S
Tb212 O229 2.430 1_455 S
Tb212 O230 2.516 1_455 S
C213 O217 1.251 . S
C213 O219 1.263 . S
Tb214 O216 2.343 . S
Tb214 O219 2.353 . S
Tb214 O222 2.427 . S
Tb214 O223 2.513 . S
Tb214 O224 2.453 1_455 S
Tb214 O225 2.596 1_455 S
Tb214 O226 2.374 . S
O215 Tb212 2.450 . S
O215 C231 1.245 . S
O216 Tb212 2.593 . S
O216 Tb214 2.343 . S
O216 C231 1.259 . S
O217 Tb212 2.373 . S
O217 C213 1.251 . S
C218 O222 1.275 . S
C218 O223 1.246 . S
O219 C213 1.263 . S
O219 Tb214 2.353 . S
C220 O224 1.245 . S
C220 O225 1.259 . S
C221 O226 1.250 . S
C221 O227 1.263 . S
O222 Tb214 2.427 . S
O222 C218 1.275 . S
O223 Tb214 2.513 . S
O223 C218 1.246 . S
O224 Tb214 2.453 1_655 S
O224 C220 1.245 . S
O225 Tb212 2.344 1_655 S
O225 Tb214 2.596 1_655 S
O225 C220 1.259 . S
O226 Tb214 2.374 . S
O226 C221 1.250 . S
O227 Tb212 2.353 . S
O227 C221 1.263 . S
C228 O229 1.275 . S
C228 O230 1.246 . S
O229 Tb212 2.430 1_655 S
O229 C228 1.275 . S
O230 Tb212 2.516 1_655 S
O230 C228 1.246 . S
C231 O215 1.245 . S
C231 O216 1.259 . S
H232 C240 0.929 . S
H233 C242 0.930 . S
H234 C244 0.930 . S
H235 C247 0.929 . S
H236 C250 0.930 . S
H237 C252 0.960 . S
H238 C252 0.960 . S
H239 C252 0.960 . S
C240 H232 0.929 . S
C240 C241 1.377 . S
C240 C242 1.384 . S
C241 C240 1.377 . S
C241 C247 1.390 . S
C242 H233 0.930 . S
C242 C240 1.384 . S
C242 C243 1.372 . S
C243 C242 1.372 . S
C243 C244 1.400 . S
C243 C248 1.490 . S
C244 H234 0.930 . S
C244 C243 1.400 . S
C244 C247 1.386 . S
H245 C261 0.930 . S
H246 C262 0.931 . S
C247 H235 0.929 . S
C247 C241 1.390 . S
C247 C244 1.386 . S
C248 C243 1.490 . S
C248 C250 1.395 . S
C248 C251 1.403 . S
H249 C255 0.930 . S
C250 H236 0.930 . S
C250 C248 1.395 . S
C250 C253 1.403 . S
C251 C248 1.403 . S
C251 C252 1.524 . S
C251 C255 1.400 . S
C252 H237 0.960 . S
C252 H238 0.960 . S
C252 H239 0.960 . S
C252 C251 1.524 . S
C253 C250 1.403 . S
C253 C254 1.392 . S
C253 C257 1.495 . S
C254 C253 1.392 . S
C254 C255 1.385 . S
C254 C256 1.478 . S
C255 H249 0.930 . S
C255 C251 1.400 . S
C255 C254 1.385 . S
C256 C254 1.478 . S
C256 C258 1.381 . S
C256 C262 1.383 . S
C257 C253 1.495 . S
C257 H263 0.959 . S
C257 H264 0.961 . S
C257 H265 0.960 . S
C258 C256 1.381 . S
C258 C259 1.394 . S
C258 H266 0.930 . S
C259 C258 1.394 . S
C259 C260 1.383 . S
C259 H267 0.929 1_545 S
C260 C259 1.383 . S
C260 C261 1.377 . S
C261 H245 0.930 . S
C261 C260 1.377 . S
C261 C262 1.379 . S
C262 H246 0.931 . S
C262 C256 1.383 . S
C262 C261 1.379 . S
H263 C257 0.959 . S
H264 C257 0.961 . S
H265 C257 0.960 . S
H266 C258 0.930 . S
H267 C259 0.929 1_565 S
H268 C276 0.929 . S
H269 C278 0.930 . S
H270 C280 0.930 . S
H271 C283 0.929 . S
H272 C286 0.930 . S
H273 C288 0.960 . S
H274 C288 0.960 . S
H275 C288 0.960 . S
C276 H268 0.929 . S
C276 C277 1.377 . S
C276 C278 1.384 . S
C277 C276 1.377 . S
C277 C283 1.390 . S
C278 H269 0.930 . S
C278 C276 1.384 . S
C278 C279 1.372 . S
C279 C278 1.372 . S
C279 C280 1.400 . S
C279 C284 1.490 . S
C280 H270 0.930 . S
C280 C279 1.400 . S
C280 C283 1.386 . S
H281 C297 0.930 . S
H282 C298 0.931 . S
C283 H271 0.929 . S
C283 C277 1.390 . S
C283 C280 1.386 . S
C284 C279 1.490 . S
C284 C286 1.395 . S
C284 C287 1.403 . S
H285 C291 0.930 . S
C286 H272 0.930 . S
C286 C284 1.395 . S
C286 C289 1.403 . S
C287 C284 1.403 . S
C287 C288 1.524 . S
C287 C291 1.400 . S
C288 H273 0.960 . S
C288 H274 0.960 . S
C288 H275 0.960 . S
C288 C287 1.524 . S
C289 C286 1.403 . S
C289 C290 1.392 . S
C289 C293 1.495 . S
C290 C289 1.392 . S
C290 C291 1.385 . S
C290 C292 1.478 . S
C291 H285 0.930 . S
C291 C287 1.400 . S
C291 C290 1.385 . S
C292 C290 1.478 . S
C292 C294 1.381 . S
C292 C298 1.383 . S
C293 C289 1.495 . S
C293 H299 0.959 . S
C293 H300 0.961 . S
C293 H301 0.960 . S
C294 C292 1.381 . S
C294 C295 1.394 . S
C294 H302 0.930 . S
C295 C294 1.394 . S
C295 C296 1.383 . S
C295 H303 0.929 . S
C296 C295 1.383 . S
C296 C297 1.377 . S
C297 H281 0.930 . S
C297 C296 1.377 . S
C297 C298 1.379 . S
C298 H282 0.931 . S
C298 C292 1.383 . S
C298 C297 1.379 . S
H299 C293 0.959 . S
H300 C293 0.961 . S
H301 C293 0.960 . S
H302 C294 0.930 . S
H303 C295 0.929 . S
H304 C312 0.929 . S
H305 C314 0.930 . S
H306 C316 0.930 . S
H307 C319 0.929 . S
H308 C322 0.930 . S
H309 C324 0.960 . S
H310 C324 0.960 . S
H311 C324 0.960 . S
C312 H304 0.929 . S
C312 C313 1.377 . S
C312 C314 1.384 . S
C313 C312 1.377 . S
C313 C319 1.390 . S
C314 H305 0.930 . S
C314 C312 1.384 . S
C314 C315 1.372 . S
C315 C314 1.372 . S
C315 C316 1.400 . S
C315 C320 1.490 . S
C316 H306 0.930 . S
C316 C315 1.400 . S
C316 C319 1.386 . S
H317 C333 0.930 . S
H318 C334 0.931 . S
C319 H307 0.929 . S
C319 C313 1.390 . S
C319 C316 1.386 . S
C320 C315 1.490 . S
C320 C322 1.395 . S
C320 C323 1.403 . S
H321 C327 0.930 . S
C322 H308 0.930 . S
C322 C320 1.395 . S
C322 C325 1.403 . S
C323 C320 1.403 . S
C323 C324 1.524 . S
C323 C327 1.400 . S
C324 H309 0.960 . S
C324 H310 0.960 . S
C324 H311 0.960 . S
C324 C323 1.524 . S
C325 C322 1.403 . S
C325 C326 1.392 . S
C325 C329 1.495 . S
C326 C325 1.392 . S
C326 C327 1.385 . S
C326 C328 1.478 . S
C327 H321 0.930 . S
C327 C323 1.400 . S
C327 C326 1.385 . S
C328 C326 1.478 . S
C328 C330 1.381 . S
C328 C334 1.383 . S
C329 C325 1.495 . S
C329 H335 0.959 . S
C329 H336 0.961 . S
C329 H337 0.960 . S
C330 C328 1.381 . S
C330 C331 1.394 . S
C330 H338 0.930 . S
C331 C330 1.394 . S
C331 C332 1.383 . S
C331 H339 0.929 . S
C332 C331 1.383 . S
C332 C333 1.377 . S
C333 H317 0.930 . S
C333 C332 1.377 . S
C333 C334 1.379 . S
C334 H318 0.931 . S
C334 C328 1.383 . S
C334 C333 1.379 . S
H335 C329 0.959 . S
H336 C329 0.961 . S
H337 C329 0.960 . S
H338 C330 0.930 . S
H339 C331 0.929 . S
H340 C348 0.929 . S
H341 C350 0.930 . S
H342 C352 0.930 . S
H343 C355 0.929 . S
H344 C358 0.930 . S
H345 C360 0.960 . S
H346 C360 0.960 . S
H347 C360 0.960 . S
C348 H340 0.929 . S
C348 C349 1.377 . S
C348 C350 1.384 . S
C349 C348 1.377 . S
C349 C355 1.390 . S
C350 H341 0.930 . S
C350 C348 1.384 . S
C350 C351 1.372 . S
C351 C350 1.372 . S
C351 C352 1.400 . S
C351 C356 1.490 . S
C352 H342 0.930 . S
C352 C351 1.400 . S
C352 C355 1.386 . S
H353 C369 0.930 . S
H354 C370 0.931 . S
C355 H343 0.929 . S
C355 C349 1.390 . S
C355 C352 1.386 . S
C356 C351 1.490 . S
C356 C358 1.395 . S
C356 C359 1.403 . S
H357 C363 0.936 1_655 S
C358 H344 0.930 . S
C358 C356 1.395 . S
C358 C361 1.403 . S
C359 C356 1.403 . S
C359 C360 1.524 1_455 S
C359 C363 1.400 . S
C360 H345 0.960 . S
C360 H346 0.960 . S
C360 H347 0.960 . S
C360 C359 1.524 1_655 S
C361 C358 1.403 . S
C361 C362 1.392 . S
C361 C365 1.495 . S
C362 C361 1.392 . S
C362 C363 1.385 . S
C362 C364 1.478 . S
C363 H357 0.936 1_455 S
C363 C359 1.400 . S
C363 C362 1.385 . S
C364 C362 1.478 . S
C364 C366 1.381 . S
C364 C370 1.383 . S
C365 C361 1.495 . S
C365 H371 0.959 . S
C365 H372 0.961 . S
C365 H373 0.960 . S
C366 C364 1.381 . S
C366 C367 1.394 . S
C366 H374 0.930 . S
C367 C366 1.394 . S
C367 C368 1.383 . S
C367 H375 0.929 . S
C368 C367 1.383 . S
C368 C369 1.377 . S
C369 H353 0.930 . S
C369 C368 1.377 . S
C369 C370 1.379 . S
C370 H354 0.931 . S
C370 C364 1.383 . S
C370 C369 1.379 . S
H371 C365 0.959 . S
H372 C365 0.961 . S
H373 C365 0.960 . S
H374 C366 0.930 . S
H375 C367 0.929 . S
H376 C384 0.929 . S
H377 C386 0.930 . S
H378 C388 0.930 . S
H379 C391 0.929 1_554 S
H380 C394 0.930 . S
H381 C396 0.960 . S
H382 C396 0.960 . S
H383 C396 0.960 . S
C384 H376 0.929 . S
C384 C385 1.377 . S
C384 C386 1.384 . S
C385 C384 1.377 . S
C385 C391 1.390 . S
C386 H377 0.930 . S
C386 C384 1.384 . S
C386 C387 1.372 . S
C387 C386 1.372 . S
C387 C388 1.400 . S
C387 C392 1.490 . S
C388 H378 0.930 . S
C388 C387 1.400 . S
C388 C391 1.386 . S
H389 C405 0.930 . S
H390 C406 0.931 . S
C391 H379 0.929 1_556 S
C391 C385 1.390 . S
C391 C388 1.386 . S
C392 C387 1.490 . S
C392 C394 1.395 . S
C392 C395 1.403 . S
H393 C399 0.930 . S
C394 H380 0.930 . S
C394 C392 1.395 . S
C394 C397 1.403 . S
C395 C392 1.403 . S
C395 C396 1.524 . S
C395 C399 1.400 . S
C396 H381 0.960 . S
C396 H382 0.960 . S
C396 H383 0.960 . S
C396 C395 1.524 . S
C397 C394 1.403 . S
C397 C398 1.392 . S
C397 C401 1.495 1_565 S
C398 C397 1.392 . S
C398 C399 1.385 . S
C398 C400 1.478 . S
C399 H393 0.930 . S
C399 C395 1.400 . S
C399 C398 1.385 . S
C400 C398 1.478 . S
C400 C402 1.381 . S
C400 C406 1.383 1_565 S
C401 C397 1.495 1_545 S
C401 H407 0.959 . S
C401 H408 0.961 . S
C401 H409 0.960 1_545 S
C402 C400 1.381 . S
C402 C403 1.394 . S
C402 H410 0.930 . S
C403 C402 1.394 . S
C403 C404 1.383 . S
C403 H411 0.929 . S
C404 C403 1.383 . S
C404 C405 1.377 1_565 S
C405 H389 0.930 . S
C405 C404 1.377 1_545 S
C405 C406 1.379 . S
C406 H390 0.931 . S
C406 C400 1.383 1_545 S
C406 C405 1.379 . S
H407 C401 0.959 . S
H408 C401 0.961 . S
H409 C401 0.960 1_565 S
H410 C402 0.930 . S
H411 C403 0.929 . S
H412 C420 0.929 . S
H413 C422 0.930 . S
H414 C424 0.930 . S
H415 C427 0.929 . S
H416 C430 0.930 . S
H417 C432 0.960 . S
H418 C432 0.960 . S
H419 C432 0.960 . S
C420 H412 0.929 . S
C420 C421 1.377 . S
C420 C422 1.384 . S
C421 C420 1.377 . S
C421 C427 1.390 1_556 S
C422 H413 0.930 . S
C422 C420 1.384 . S
C422 C423 1.372 . S
C423 C422 1.372 . S
C423 C424 1.400 . S
C423 C428 1.490 . S
C424 H414 0.930 . S
C424 C423 1.400 . S
C424 C427 1.386 1_556 S
H425 C441 0.930 . S
H426 C442 0.931 . S
C427 H415 0.929 . S
C427 C421 1.390 1_554 S
C427 C424 1.386 1_554 S
C428 C423 1.490 . S
C428 C430 1.395 . S
C428 C431 1.403 . S
H429 C435 0.930 . S
C430 H416 0.930 . S
C430 C428 1.395 . S
C430 C433 1.403 . S
C431 C428 1.403 . S
C431 C432 1.524 . S
C431 C435 1.400 . S
C432 H417 0.960 . S
C432 H418 0.960 . S
C432 H419 0.960 . S
C432 C431 1.524 . S
C433 C430 1.403 . S
C433 C434 1.392 . S
C433 C437 1.495 . S
C434 C433 1.392 . S
C434 C435 1.385 . S
C434 C436 1.478 . S
C435 H429 0.930 . S
C435 C431 1.400 . S
C435 C434 1.385 . S
C436 C434 1.478 . S
C436 C438 1.381 . S
C436 C442 1.383 . S
C437 C433 1.495 . S
C437 H443 0.959 . S
C437 H444 0.961 . S
C437 H445 0.960 . S
C438 C436 1.381 . S
C438 C439 1.394 . S
C438 H446 0.930 . S
C439 C438 1.394 . S
C439 C440 1.383 . S
C439 H447 0.929 . S
C440 C439 1.383 . S
C440 C441 1.377 . S
C441 H425 0.930 . S
C441 C440 1.377 . S
C441 C442 1.379 . S
C442 H426 0.931 . S
C442 C436 1.383 . S
C442 C441 1.379 . S
H443 C437 0.959 . S
H444 C437 0.961 . S
H445 C437 0.960 . S
H446 C438 0.930 . S
H447 C439 0.929 . S
H448 C456 0.929 . S
H449 C458 0.930 1_554 S
H450 C460 0.930 . S
H451 C463 0.929 . S
H452 C466 0.930 . S
H453 C468 0.960 . S
H454 C468 0.960 . S
H455 C468 0.960 . S
C456 H448 0.929 . S
C456 C457 1.377 1_554 S
C456 C458 1.384 1_554 S
C457 C456 1.377 1_556 S
C457 C463 1.390 . S
C458 H449 0.930 1_556 S
C458 C456 1.384 1_556 S
C458 C459 1.372 . S
C459 C458 1.372 . S
C459 C460 1.400 . S
C459 C464 1.490 . S
C460 H450 0.930 . S
C460 C459 1.400 . S
C460 C463 1.386 . S
H461 C477 0.930 . S
H462 C478 0.931 . S
C463 H451 0.929 . S
C463 C457 1.390 . S
C463 C460 1.386 . S
C464 C459 1.490 . S
C464 C466 1.395 . S
C464 C467 1.403 . S
H465 C471 0.930 . S
C466 H452 0.930 . S
C466 C464 1.395 . S
C466 C469 1.403 . S
C467 C464 1.403 . S
C467 C468 1.524 . S
C467 C471 1.400 . S
C468 H453 0.960 . S
C468 H454 0.960 . S
C468 H455 0.960 . S
C468 C467 1.524 . S
C469 C466 1.403 . S
C469 C470 1.392 . S
C469 C473 1.495 . S
C470 C469 1.392 . S
C470 C471 1.385 . S
C470 C472 1.478 . S
C471 H465 0.930 . S
C471 C467 1.400 . S
C471 C470 1.385 . S
C472 C470 1.478 . S
C472 C474 1.381 . S
C472 C478 1.383 . S
C473 C469 1.495 . S
C473 H479 0.959 . S
C473 H480 0.961 . S
C473 H481 0.960 . S
C474 C472 1.381 . S
C474 C475 1.394 . S
C474 H482 0.930 . S
C475 C474 1.394 . S
C475 C476 1.383 . S
C475 H483 0.929 . S
C476 C475 1.383 . S
C476 C477 1.377 . S
C477 H461 0.930 . S
C477 C476 1.377 . S
C477 C478 1.379 . S
C478 H462 0.931 . S
C478 C472 1.383 . S
C478 C477 1.379 . S
H479 C473 0.959 . S
H480 C473 0.961 . S
H481 C473 0.960 . S
H482 C474 0.930 . S
H483 C475 0.929 . S
H484 C492 0.929 . S
H485 C494 0.930 1_455 S
H486 C496 0.930 . S
H487 C499 0.929 . S
H488 C502 0.930 1_455 S
H489 C504 0.960 . S
H490 C504 0.960 . S
H491 C504 0.960 . S
C492 H484 0.929 . S
C492 C493 1.377 . S
C492 C494 1.384 . S
C493 C492 1.377 . S
C493 C499 1.390 . S
C494 H485 0.930 1_655 S
C494 C492 1.384 . S
C494 C495 1.372 . S
C495 C494 1.372 . S
C495 C496 1.400 . S
C495 C500 1.490 . S
C496 H486 0.930 . S
C496 C495 1.400 . S
C496 C499 1.386 . S
H497 C513 0.930 . S
H498 C514 0.931 . S
C499 H487 0.929 . S
C499 C493 1.390 . S
C499 C496 1.386 . S
C500 C495 1.490 . S
C500 C502 1.395 . S
C500 C503 1.403 . S
H501 C507 0.930 . S
C502 H488 0.930 1_655 S
C502 C500 1.395 . S
C502 C505 1.403 1_655 S
C503 C500 1.403 . S
C503 C504 1.524 . S
C503 C507 1.400 . S
C504 H489 0.960 . S
C504 H490 0.960 . S
C504 H491 0.960 . S
C504 C503 1.524 . S
C505 C502 1.403 1_455 S
C505 C506 1.392 1_455 S
C505 C509 1.495 . S
C506 C505 1.392 1_655 S
C506 C507 1.385 . S
C506 C508 1.478 . S
C507 H501 0.930 . S
C507 C503 1.400 . S
C507 C506 1.385 . S
C508 C506 1.478 . S
C508 C510 1.381 1_655 S
C508 C514 1.383 . S
C509 C505 1.495 . S
C509 H515 0.959 . S
C509 H516 0.961 . S
C509 H517 0.960 . S
C510 C508 1.381 1_455 S
C510 C511 1.394 . S
C510 H518 0.930 . S
C511 C510 1.394 . S
C511 C512 1.384 . S
C511 H519 0.929 . S
C512 C511 1.384 . S
C512 C513 1.376 1_455 S
C513 H497 0.930 . S
C513 C512 1.376 1_655 S
C513 C514 1.379 . S
C514 H498 0.931 . S
C514 C508 1.383 . S
C514 C513 1.379 . S
H515 C509 0.959 . S
H516 C509 0.961 . S
H517 C509 0.960 . S
H518 C510 0.930 . S
H519 C511 0.929 . S
H520 C528 0.929 . S
H521 C530 0.930 . S
H522 C532 0.930 . S
H523 C535 0.929 . S
H524 C538 0.930 . S
H525 C540 0.960 . S
H526 C540 0.960 . S
H527 C540 0.960 . S
C528 H520 0.929 . S
C528 C529 1.377 . S
C528 C530 1.384 . S
C529 C528 1.377 . S
C529 C535 1.390 . S
C530 H521 0.930 . S
C530 C528 1.384 . S
C530 C531 1.372 . S
C531 C530 1.372 . S
C531 C532 1.400 . S
C531 C536 1.490 . S
C532 H522 0.930 . S
C532 C531 1.400 . S
C532 C535 1.386 . S
H533 C549 0.930 . S
H534 C550 0.931 . S
C535 H523 0.929 . S
C535 C529 1.390 . S
C535 C532 1.386 . S
C536 C531 1.490 . S
C536 C538 1.395 . S
C536 C539 1.403 . S
H537 C543 0.930 . S
C538 H524 0.930 . S
C538 C536 1.395 . S
C538 C541 1.403 . S
C539 C536 1.403 . S
C539 C540 1.524 . S
C539 C543 1.400 . S
C540 H525 0.960 . S
C540 H526 0.960 . S
C540 H527 0.960 . S
C540 C539 1.524 . S
C541 C538 1.403 . S
C541 C542 1.392 . S
C541 C545 1.495 1_455 S
C542 C541 1.392 . S
C542 C543 1.385 . S
C542 C544 1.478 . S
C543 H537 0.930 . S
C543 C539 1.400 . S
C543 C542 1.385 . S
C544 C542 1.478 . S
C544 C546 1.381 . S
C544 C550 1.383 . S
C545 C541 1.495 1_655 S
C545 H551 0.959 . S
C545 H552 0.961 . S
C545 H553 0.960 . S
C546 C544 1.381 . S
C546 C547 1.394 . S
C546 H554 0.930 . S
C547 C546 1.394 . S
C547 C548 1.383 . S
C547 H555 0.929 . S
C548 C547 1.383 . S
C548 C549 1.377 . S
C549 H533 0.930 . S
C549 C548 1.377 . S
C549 C550 1.379 . S
C550 H534 0.931 . S
C550 C544 1.383 . S
C550 C549 1.379 . S
H551 C545 0.959 . S
H552 C545 0.961 . S
H553 C545 0.960 . S
H554 C546 0.930 . S
H555 C547 0.929 . S
H556 C564 0.929 . S
H557 C566 0.930 . S
H558 C568 0.930 . S
H559 C571 0.929 . S
H560 C574 0.930 . S
H561 C576 0.960 1_565 S
H562 C576 0.960 . S
H563 C576 0.960 . S
C564 H556 0.929 . S
C564 C565 1.377 . S
C564 C566 1.384 . S
C565 C564 1.377 . S
C565 C571 1.390 . S
C566 H557 0.930 . S
C566 C564 1.384 . S
C566 C567 1.372 . S
C567 C566 1.372 . S
C567 C568 1.400 . S
C567 C572 1.490 . S
C568 H558 0.930 . S
C568 C567 1.400 . S
C568 C571 1.386 . S
H569 C585 0.930 . S
H570 C586 0.931 . S
C571 H559 0.929 . S
C571 C565 1.390 . S
C571 C568 1.386 . S
C572 C567 1.490 . S
C572 C574 1.395 . S
C572 C575 1.403 . S
H573 C579 0.930 . S
C574 H560 0.930 . S
C574 C572 1.395 . S
C574 C577 1.403 . S
C575 C572 1.403 . S
C575 C576 1.524 . S
C575 C579 1.400 . S
C576 H561 0.960 1_545 S
C576 H562 0.960 . S
C576 H563 0.960 . S
C576 C575 1.524 . S
C577 C574 1.403 . S
C577 C578 1.392 . S
C577 C581 1.495 . S
C578 C577 1.392 . S
C578 C579 1.385 . S
C578 C580 1.478 . S
C579 H573 0.930 . S
C579 C575 1.400 . S
C579 C578 1.385 . S
C580 C578 1.478 . S
C580 C582 1.381 . S
C580 C586 1.383 . S
C581 C577 1.495 . S
C581 H587 0.959 . S
C581 H588 0.961 . S
C581 H589 0.960 . S
C582 C580 1.381 . S
C582 C583 1.394 . S
C582 H590 0.930 . S
C583 C582 1.394 . S
C583 C584 1.383 . S
C583 H591 0.929 . S
C584 C583 1.383 . S
C584 C585 1.377 . S
C585 H569 0.930 . S
C585 C584 1.377 . S
C585 C586 1.379 . S
C586 H570 0.931 . S
C586 C580 1.383 . S
C586 C585 1.379 . S
H587 C581 0.959 . S
H588 C581 0.961 . S
H589 C581 0.960 . S
H590 C582 0.930 . S
H591 C583 0.929 . S
H592 C600 0.929 . S
H593 C602 0.930 . S
H594 C604 0.930 . S
H595 C607 0.929 . S
H596 C610 0.930 . S
H597 C612 0.960 . S
H598 C612 0.960 . S
H599 C612 0.960 . S
C600 H592 0.929 . S
C600 C601 1.377 . S
C600 C602 1.384 . S
C601 C600 1.377 . S
C601 C607 1.390 . S
C602 H593 0.930 . S
C602 C600 1.384 . S
C602 C603 1.372 . S
C603 C602 1.372 . S
C603 C604 1.400 . S
C603 C608 1.490 . S
C604 H594 0.930 . S
C604 C603 1.400 . S
C604 C607 1.386 . S
H605 C621 0.930 . S
H606 C622 0.931 . S
C607 H595 0.929 . S
C607 C601 1.390 . S
C607 C604 1.386 . S
C608 C603 1.490 . S
C608 C610 1.395 . S
C608 C611 1.403 . S
H609 C615 0.930 . S
C610 H596 0.930 . S
C610 C608 1.395 . S
C610 C613 1.403 . S
C611 C608 1.403 . S
C611 C612 1.524 . S
C611 C615 1.400 . S
C612 H597 0.960 . S
C612 H598 0.960 . S
C612 H599 0.960 . S
C612 C611 1.524 . S
C613 C610 1.403 . S
C613 C614 1.392 . S
C613 C617 1.495 . S
C614 C613 1.392 . S
C614 C615 1.385 . S
C614 C616 1.478 . S
C615 H609 0.930 . S
C615 C611 1.400 . S
C615 C614 1.385 . S
C616 C614 1.478 . S
C616 C618 1.381 . S
C616 C622 1.383 . S
C617 C613 1.495 . S
C617 H623 0.959 . S
C617 H624 0.961 . S
C617 H625 0.960 . S
C618 C616 1.381 . S
C618 C619 1.394 . S
C618 H626 0.930 . S
C619 C618 1.394 . S
C619 C620 1.383 . S
C619 H627 0.929 . S
C620 C619 1.383 . S
C620 C621 1.377 . S
C621 H605 0.930 . S
C621 C620 1.377 . S
C621 C622 1.379 . S
C622 H606 0.931 . S
C622 C616 1.383 . S
C622 C621 1.379 . S
H623 C617 0.959 . S
H624 C617 0.961 . S
H625 C617 0.960 . S
H626 C618 0.930 . S
H627 C619 0.929 . S
H628 C636 0.929 . S
H629 C638 0.930 . S
H630 C640 0.930 . S
H631 C643 0.929 . S
H632 C646 0.930 . S
H633 C648 0.960 . S
H634 C648 0.960 . S
H635 C648 0.960 . S
C636 H628 0.929 . S
C636 C637 1.377 . S
C636 C638 1.384 . S
C637 C636 1.377 . S
C637 C643 1.390 . S
C638 H629 0.930 . S
C638 C636 1.384 . S
C638 C639 1.372 . S
C639 C638 1.372 . S
C639 C640 1.400 . S
C639 C644 1.490 . S
C640 H630 0.930 . S
C640 C639 1.400 . S
C640 C643 1.386 . S
H641 C657 0.930 . S
H642 C658 0.931 . S
C643 H631 0.929 . S
C643 C637 1.390 . S
C643 C640 1.386 . S
C644 C639 1.490 . S
C644 C646 1.395 . S
C644 C647 1.403 . S
H645 C651 0.930 . S
C646 H632 0.930 . S
C646 C644 1.395 . S
C646 C649 1.403 . S
C647 C644 1.403 . S
C647 C648 1.524 . S
C647 C651 1.400 . S
C648 H633 0.960 . S
C648 H634 0.960 . S
C648 H635 0.960 . S
C648 C647 1.524 . S
C649 C646 1.403 . S
C649 C650 1.392 . S
C649 C653 1.495 . S
C650 C649 1.392 . S
C650 C651 1.385 . S
C650 C652 1.478 . S
C651 H645 0.930 . S
C651 C647 1.400 . S
C651 C650 1.385 . S
C652 C650 1.478 . S
C652 C654 1.381 . S
C652 C658 1.383 . S
C653 C649 1.495 . S
C653 H659 0.959 . S
C653 H660 0.961 . S
C653 H661 0.960 . S
C654 C652 1.381 . S
C654 C655 1.394 . S
C654 H662 0.930 . S
C655 C654 1.394 . S
C655 C656 1.383 . S
C655 H663 0.929 . S
C656 C655 1.383 . S
C656 C657 1.377 . S
C657 H641 0.930 . S
C657 C656 1.377 . S
C657 C658 1.379 . S
C658 H642 0.931 . S
C658 C652 1.383 . S
C658 C657 1.379 . S
H659 C653 0.959 . S
H660 C653 0.961 . S
H661 C653 0.960 . S
H662 C654 0.930 . S
H663 C655 0.929 . S
H664 C672 0.929 . S
H665 C674 0.930 . S
H666 C676 0.930 . S
H667 C679 0.929 1_554 S
H668 C682 0.930 . S
H669 C684 0.960 . S
H670 C684 0.960 . S
H671 C684 0.960 1_655 S
C672 H664 0.929 . S
C672 C673 1.377 . S
C672 C674 1.384 . S
C673 C672 1.377 . S
C673 C679 1.390 . S
C674 H665 0.930 . S
C674 C672 1.384 . S
C674 C675 1.372 . S
C675 C674 1.372 . S
C675 C676 1.400 . S
C675 C680 1.490 . S
C676 H666 0.930 . S
C676 C675 1.400 . S
C676 C679 1.386 . S
H677 C693 0.930 . S
H678 C694 0.931 . S
C679 H667 0.929 1_556 S
C679 C673 1.390 . S
C679 C676 1.386 . S
C680 C675 1.490 . S
C680 C682 1.395 . S
C680 C683 1.403 . S
H681 C687 0.930 1_455 S
C682 H668 0.930 . S
C682 C680 1.395 . S
C682 C685 1.403 . S
C683 C680 1.403 . S
C683 C684 1.524 1_655 S
C683 C687 1.400 . S
C684 H669 0.960 . S
C684 H670 0.960 . S
C684 H671 0.960 1_455 S
C684 C683 1.524 1_455 S
C685 C682 1.403 . S
C685 C686 1.392 . S
C685 C689 1.495 . S
C686 C685 1.392 . S
C686 C687 1.385 . S
C686 C688 1.478 . S
C687 H681 0.930 1_655 S
C687 C683 1.400 . S
C687 C686 1.385 . S
C688 C686 1.478 . S
C688 C690 1.400 . S
C688 C694 1.383 . S
C689 C685 1.495 . S
C689 H695 0.959 . S
C689 H696 0.961 . S
C689 H697 0.960 . S
C690 C688 1.400 . S
C690 C691 1.388 1_655 S
C690 H698 0.919 1_655 S
C691 C690 1.388 1_455 S
C691 C692 1.383 1_455 S
C691 H699 0.929 . S
C692 C691 1.383 1_655 S
C692 C693 1.377 . S
C693 H677 0.930 . S
C693 C692 1.377 . S
C693 C694 1.379 . S
C694 H678 0.931 . S
C694 C688 1.383 . S
C694 C693 1.379 . S
H695 C689 0.959 . S
H696 C689 0.961 . S
H697 C689 0.960 . S
H698 C690 0.919 1_455 S
H699 C691 0.929 . S
H700 C708 0.929 . S
H701 C710 0.930 . S
H702 C712 0.930 1_554 S
H703 C715 0.929 . S
H704 C718 0.930 . S
H705 C720 0.960 . S
H706 C720 0.960 . S
H707 C720 0.960 . S
C708 H700 0.929 . S
C708 C709 1.377 . S
C708 C710 1.384 . S
C709 C708 1.377 . S
C709 C715 1.390 1_556 S
C710 H701 0.930 . S
C710 C708 1.384 . S
C710 C711 1.372 . S
C711 C710 1.372 . S
C711 C712 1.400 . S
C711 C716 1.490 . S
C712 H702 0.930 1_556 S
C712 C711 1.400 . S
C712 C715 1.386 1_556 S
H713 C729 0.930 . S
H714 C730 0.931 . S
C715 H703 0.929 . S
C715 C709 1.390 1_554 S
C715 C712 1.386 1_554 S
C716 C711 1.490 . S
C716 C718 1.395 . S
C716 C719 1.403 . S
H717 C723 0.930 1_545 S
C718 H704 0.930 . S
C718 C716 1.395 . S
C718 C721 1.403 . S
C719 C716 1.403 . S
C719 C720 1.524 1_565 S
C719 C723 1.400 . S
C720 H705 0.960 . S
C720 H706 0.960 . S
C720 H707 0.960 . S
C720 C719 1.524 1_545 S
C721 C718 1.403 . S
C721 C722 1.392 . S
C721 C725 1.495 . S
C722 C721 1.392 . S
C722 C723 1.385 . S
C722 C724 1.478 . S
C723 H717 0.930 1_565 S
C723 C719 1.400 . S
C723 C722 1.385 . S
C724 C722 1.478 . S
C724 C726 1.381 . S
C724 C730 1.383 . S
C725 C721 1.495 . S
C725 H731 0.959 . S
C725 H732 0.961 . S
C725 H733 0.960 . S
C726 C724 1.381 . S
C726 C727 1.394 . S
C726 H734 0.930 . S
C727 C726 1.394 . S
C727 C728 1.383 . S
C727 H735 0.929 . S
C728 C727 1.383 . S
C728 C729 1.377 . S
C729 H713 0.930 . S
C729 C728 1.377 . S
C729 C730 1.379 . S
C730 H714 0.931 . S
C730 C724 1.383 . S
C730 C729 1.379 . S
H731 C725 0.959 . S
H732 C725 0.961 . S
H733 C725 0.960 . S
H734 C726 0.930 . S
H735 C727 0.929 . S
H736 C744 0.929 . S
H737 C746 0.930 . S
H738 C748 0.930 . S
H739 C751 0.929 1_554 S
H740 C754 0.930 . S
H741 C756 0.960 . S
H742 C756 0.960 . S
H743 C756 0.960 . S
C744 H736 0.929 . S
C744 C745 1.377 . S
C744 C746 1.384 . S
C745 C744 1.377 . S
C745 C751 1.390 . S
C746 H737 0.930 . S
C746 C744 1.384 . S
C746 C747 1.372 . S
C747 C746 1.372 . S
C747 C748 1.400 . S
C747 C752 1.490 . S
C748 H738 0.930 . S
C748 C747 1.400 . S
C748 C751 1.386 . S
H749 C765 0.930 . S
H750 C766 0.931 . S
C751 H739 0.929 1_556 S
C751 C745 1.390 . S
C751 C748 1.386 . S
C752 C747 1.490 . S
C752 C754 1.395 . S
C752 C755 1.403 . S
H753 C759 0.930 . S
C754 H740 0.930 . S
C754 C752 1.395 . S
C754 C757 1.403 . S
C755 C752 1.403 . S
C755 C756 1.524 1_556 S
C755 C759 1.400 . S
C756 H741 0.960 . S
C756 H742 0.960 . S
C756 H743 0.960 . S
C756 C755 1.524 1_554 S
C757 C754 1.403 . S
C757 C758 1.392 . S
C757 C761 1.495 . S
C758 C757 1.392 . S
C758 C759 1.385 . S
C758 C760 1.478 . S
C759 H753 0.930 . S
C759 C755 1.400 . S
C759 C758 1.385 . S
C760 C758 1.478 . S
C760 C762 1.381 . S
C760 C766 1.383 . S
C761 C757 1.495 . S
C761 H767 0.959 . S
C761 H768 0.961 . S
C761 H769 0.960 . S
C762 C760 1.381 . S
C762 C763 1.394 . S
C762 H770 0.930 . S
C763 C762 1.394 . S
C763 C764 1.383 . S
C763 H771 0.929 . S
C764 C763 1.383 . S
C764 C765 1.377 . S
C765 H749 0.930 . S
C765 C764 1.377 . S
C765 C766 1.379 . S
C766 H750 0.931 . S
C766 C760 1.383 . S
C766 C765 1.379 . S
H767 C761 0.959 . S
H768 C761 0.961 . S
H769 C761 0.960 . S
H770 C762 0.930 . S
H771 C763 0.929 . S
H772 C780 0.929 . S
H773 C782 0.930 . S
H774 C784 0.930 . S
H775 C787 0.929 1_554 S
H776 C790 0.930 . S
H777 C792 0.960 1_554 S
H778 C792 0.959 1_554 S
H779 C792 0.960 1_554 S
C780 H772 0.929 . S
C780 C781 1.377 . S
C780 C782 1.384 . S
C781 C780 1.377 . S
C781 C787 1.390 . S
C782 H773 0.930 . S
C782 C780 1.384 . S
C782 C783 1.372 . S
C783 C782 1.372 . S
C783 C784 1.400 . S
C783 C788 1.490 . S
C784 H774 0.930 . S
C784 C783 1.400 . S
C784 C787 1.386 . S
H785 C801 0.930 . S
H786 C802 0.931 . S
C787 H775 0.929 1_556 S
C787 C781 1.390 . S
C787 C784 1.386 . S
C788 C783 1.490 . S
C788 C790 1.395 . S
C788 C791 1.403 . S
H789 C795 0.930 . S
C790 H776 0.930 . S
C790 C788 1.395 . S
C790 C793 1.403 . S
C791 C788 1.403 . S
C791 C792 1.524 . S
C791 C795 1.400 . S
C792 H777 0.960 1_556 S
C792 H778 0.959 1_556 S
C792 H779 0.960 1_556 S
C792 C791 1.524 . S
C793 C790 1.403 . S
C793 C794 1.392 . S
C793 C797 1.495 . S
C794 C793 1.392 . S
C794 C795 1.385 . S
C794 C796 1.478 . S
C795 H789 0.930 . S
C795 C791 1.400 . S
C795 C794 1.385 . S
C796 C794 1.478 . S
C796 C798 1.381 . S
C796 C802 1.383 . S
C797 C793 1.495 . S
C797 H803 0.959 . S
C797 H804 0.961 . S
C797 H805 0.960 . S
C798 C796 1.381 . S
C798 C799 1.394 . S
C798 H806 0.930 . S
C799 C798 1.394 . S
C799 C800 1.383 . S
C799 H807 0.929 . S
C800 C799 1.383 . S
C800 C801 1.377 . S
C801 H785 0.930 . S
C801 C800 1.377 . S
C801 C802 1.379 . S
C802 H786 0.931 . S
C802 C796 1.383 . S
C802 C801 1.379 . S
H803 C797 0.959 . S
H804 C797 0.961 . S
H805 C797 0.960 . S
H806 C798 0.930 . S
H807 C799 0.929 . S
H808 C816 0.929 . S
H809 C818 0.930 . S
H810 C820 0.930 . S
H811 C823 0.929 . S
H812 C826 0.930 . S
H813 C828 0.960 . S
H814 C828 0.960 . S
H815 C828 0.960 . S
C816 H808 0.929 . S
C816 C817 1.377 . S
C816 C818 1.384 . S
C817 C816 1.377 . S
C817 C823 1.390 . S
C818 H809 0.930 . S
C818 C816 1.384 . S
C818 C819 1.372 . S
C819 C818 1.372 . S
C819 C820 1.400 . S
C819 C824 1.490 . S
C820 H810 0.930 . S
C820 C819 1.400 . S
C820 C823 1.386 . S
H821 C837 0.930 . S
H822 C838 0.931 . S
C823 H811 0.929 . S
C823 C817 1.390 . S
C823 C820 1.386 . S
C824 C819 1.490 . S
C824 C826 1.395 1_554 S
C824 C827 1.403 . S
H825 C831 0.930 . S
C826 H812 0.930 . S
C826 C824 1.395 1_556 S
C826 C829 1.403 . S
C827 C824 1.403 . S
C827 C828 1.524 . S
C827 C831 1.400 . S
C828 H813 0.960 . S
C828 H814 0.960 . S
C828 H815 0.960 . S
C828 C827 1.524 . S
C829 C826 1.403 . S
C829 C830 1.392 . S
C829 C833 1.495 . S
C830 C829 1.392 . S
C830 C831 1.385 1_556 S
C830 C832 1.478 . S
C831 H825 0.930 . S
C831 C827 1.400 . S
C831 C830 1.385 1_554 S
C832 C830 1.478 . S
C832 C834 1.381 . S
C832 C838 1.383 . S
C833 C829 1.495 . S
C833 H839 0.959 . S
C833 H840 0.961 . S
C833 H841 0.960 . S
C834 C832 1.381 . S
C834 C835 1.394 . S
C834 H842 0.930 1_455 S
C835 C834 1.394 . S
C835 C836 1.383 . S
C835 H843 0.929 1_455 S
C836 C835 1.383 . S
C836 C837 1.377 . S
C837 H821 0.930 . S
C837 C836 1.377 . S
C837 C838 1.379 . S
C838 H822 0.931 . S
C838 C832 1.383 . S
C838 C837 1.379 . S
H839 C833 0.959 . S
H840 C833 0.961 . S
H841 C833 0.960 . S
H842 C834 0.930 1_655 S
H843 C835 0.929 1_655 S
H844 C852 0.929 . S
H845 C854 0.930 . S
H846 C856 0.930 . S
H847 C859 0.929 . S
H848 C862 0.930 . S
H849 C864 0.960 . S
H850 C864 0.960 . S
H851 C864 0.960 . S
C852 H844 0.929 . S
C852 C853 1.377 . S
C852 C854 1.384 . S
C853 C852 1.377 . S
C853 C859 1.390 . S
C854 H845 0.930 . S
C854 C852 1.384 . S
C854 C855 1.372 . S
C855 C854 1.372 . S
C855 C856 1.400 . S
C855 C860 1.490 . S
C856 H846 0.930 . S
C856 C855 1.400 . S
C856 C859 1.386 . S
H857 C873 0.930 . S
H858 C874 0.931 . S
C859 H847 0.929 . S
C859 C853 1.390 . S
C859 C856 1.386 . S
C860 C855 1.490 . S
C860 C862 1.395 1_554 S
C860 C863 1.403 . S
H861 C867 0.930 . S
C862 H848 0.930 . S
C862 C860 1.395 1_556 S
C862 C865 1.403 . S
C863 C860 1.403 . S
C863 C864 1.524 . S
C863 C867 1.400 . S
C864 H849 0.960 . S
C864 H850 0.960 . S
C864 H851 0.960 . S
C864 C863 1.524 . S
C865 C862 1.403 . S
C865 C866 1.392 . S
C865 C869 1.495 . S
C866 C865 1.392 . S
C866 C867 1.385 1_556 S
C866 C868 1.478 . S
C867 H861 0.930 . S
C867 C863 1.400 . S
C867 C866 1.385 1_554 S
C868 C866 1.478 . S
C868 C870 1.381 . S
C868 C874 1.383 . S
C869 C865 1.495 . S
C869 H875 0.959 . S
C869 H876 0.961 . S
C869 H877 0.960 . S
C870 C868 1.381 . S
C870 C871 1.394 . S
C870 H878 0.930 1_545 S
C871 C870 1.394 . S
C871 C872 1.383 . S
C871 H879 0.929 1_545 S
C872 C871 1.383 . S
C872 C873 1.377 . S
C873 H857 0.930 . S
C873 C872 1.377 . S
C873 C874 1.379 . S
C874 H858 0.931 . S
C874 C868 1.383 . S
C874 C873 1.379 . S
H875 C869 0.959 . S
H876 C869 0.961 . S
H877 C869 0.960 . S
H878 C870 0.930 1_565 S
H879 C871 0.929 1_565 S
H880 C888 0.929 . S
H881 C890 0.930 . S
H882 C892 0.930 1_556 S
H883 C895 0.929 . S
H884 C898 0.930 . S
H885 C900 0.960 . S
H886 C900 0.960 1_554 S
H887 C900 0.960 . S
C888 H880 0.929 . S
C888 C889 1.377 . S
C888 C890 1.384 . S
C889 C888 1.377 . S
C889 C895 1.390 . S
C890 H881 0.930 . S
C890 C888 1.384 . S
C890 C891 1.372 . S
C891 C890 1.372 . S
C891 C892 1.400 . S
C891 C896 1.490 . S
C892 H882 0.930 1_554 S
C892 C891 1.400 . S
C892 C895 1.386 . S
H893 C909 0.930 . S
H894 C910 0.931 . S
C895 H883 0.929 . S
C895 C889 1.390 . S
C895 C892 1.386 . S
C896 C891 1.490 . S
C896 C898 1.395 . S
C896 C899 1.403 1_554 S
H897 C903 0.930 . S
C898 H884 0.930 . S
C898 C896 1.395 . S
C898 C901 1.403 . S
C899 C896 1.403 1_556 S
C899 C900 1.524 . S
C899 C903 1.400 . S
C900 H885 0.960 . S
C900 H886 0.960 1_556 S
C900 H887 0.960 . S
C900 C899 1.524 . S
C901 C898 1.403 . S
C901 C902 1.392 1_554 S
C901 C905 1.495 . S
C902 C901 1.392 1_556 S
C902 C903 1.385 . S
C902 C904 1.478 . S
C903 H897 0.930 . S
C903 C899 1.400 . S
C903 C902 1.385 . S
C904 C902 1.478 . S
C904 C906 1.381 . S
C904 C910 1.383 . S
C905 C901 1.495 . S
C905 H911 0.959 . S
C905 H912 0.961 1_554 S
C905 H913 0.960 . S
C906 C904 1.381 . S
C906 C907 1.394 . S
C906 H914 0.930 . S
C907 C906 1.394 . S
C907 C908 1.383 . S
C907 H915 0.929 . S
C908 C907 1.383 . S
C908 C909 1.377 . S
C909 H893 0.930 . S
C909 C908 1.377 . S
C909 C910 1.379 . S
C910 H894 0.931 . S
C910 C904 1.383 . S
C910 C909 1.379 . S
H911 C905 0.959 . S
H912 C905 0.961 1_556 S
H913 C905 0.960 . S
H914 C906 0.930 . S
H915 C907 0.929 . S
H916 C924 0.929 . S
H917 C926 0.930 . S
H918 C928 0.930 . S
H919 C931 0.929 . S
H920 C934 0.930 . S
H921 C936 0.960 . S
H922 C936 0.960 . S
H923 C936 0.960 . S
C924 H916 0.929 . S
C924 C925 1.377 . S
C924 C926 1.384 . S
C925 C924 1.377 . S
C925 C931 1.390 . S
C926 H917 0.930 . S
C926 C924 1.384 . S
C926 C927 1.372 . S
C927 C926 1.372 . S
C927 C928 1.400 . S
C927 C932 1.490 . S
C928 H918 0.930 . S
C928 C927 1.400 . S
C928 C931 1.386 . S
H929 C945 0.930 . S
H930 C946 0.931 . S
C931 H919 0.929 . S
C931 C925 1.390 . S
C931 C928 1.386 . S
C932 C927 1.490 . S
C932 C934 1.395 . S
C932 C935 1.403 1_554 S
H933 C939 0.930 . S
C934 H920 0.930 . S
C934 C932 1.395 . S
C934 C937 1.403 . S
C935 C932 1.403 1_556 S
C935 C936 1.524 . S
C935 C939 1.400 . S
C936 H921 0.960 . S
C936 H922 0.960 . S
C936 H923 0.960 . S
C936 C935 1.524 . S
C937 C934 1.403 . S
C937 C938 1.392 1_554 S
C937 C941 1.495 . S
C938 C937 1.392 1_556 S
C938 C939 1.385 . S
C938 C940 1.478 . S
C939 H933 0.930 . S
C939 C935 1.400 . S
C939 C938 1.385 . S
C940 C938 1.478 . S
C940 C942 1.381 . S
C940 C946 1.383 . S
C941 C937 1.495 . S
C941 H947 0.959 . S
C941 H948 0.961 . S
C941 H949 0.960 . S
C942 C940 1.381 . S
C942 C943 1.394 . S
C942 H950 0.930 . S
C943 C942 1.394 . S
C943 C944 1.383 . S
C943 H951 0.929 . S
C944 C943 1.383 . S
C944 C945 1.377 . S
C945 H929 0.930 . S
C945 C944 1.377 . S
C945 C946 1.379 . S
C946 H930 0.931 . S
C946 C940 1.383 . S
C946 C945 1.379 . S
H947 C941 0.959 . S
H948 C941 0.961 . S
H949 C941 0.960 . S
H950 C942 0.930 . S
H951 C943 0.929 . S
H952 C960 0.929 . S
H953 C962 0.930 . S
H954 C964 0.930 . S
H955 C967 0.929 . S
H956 C970 0.930 1_455 S
H957 C972 0.960 . S
H958 C972 0.960 . S
H959 C972 0.960 . S
C960 H952 0.929 . S
C960 C961 1.377 . S
C960 C962 1.384 . S
C961 C960 1.377 . S
C961 C967 1.390 . S
C962 H953 0.930 . S
C962 C960 1.384 . S
C962 C963 1.372 . S
C963 C962 1.372 . S
C963 C964 1.400 . S
C963 C968 1.490 . S
C964 H954 0.930 . S
C964 C963 1.400 . S
C964 C967 1.386 . S
H965 C981 0.930 . S
H966 C982 0.931 . S
C967 H955 0.929 . S
C967 C961 1.390 . S
C967 C964 1.386 . S
C968 C963 1.490 . S
C968 C970 1.395 . S
C968 C971 1.403 . S
H969 C975 0.930 . S
C970 H956 0.930 1_655 S
C970 C968 1.395 . S
C970 C973 1.403 1_655 S
C971 C968 1.403 . S
C971 C972 1.524 . S
C971 C975 1.400 . S
C972 H957 0.960 . S
C972 H958 0.960 . S
C972 H959 0.960 . S
C972 C971 1.524 . S
C973 C970 1.403 1_455 S
C973 C974 1.392 1_455 S
C973 C977 1.495 . S
C974 C973 1.392 1_655 S
C974 C975 1.385 . S
C974 C976 1.478 . S
C975 H969 0.930 . S
C975 C971 1.400 . S
C975 C974 1.385 . S
C976 C974 1.478 . S
C976 C978 1.381 1_655 S
C976 C982 1.383 . S
C977 C973 1.495 . S
C977 H983 0.959 . S
C977 H984 0.961 . S
C977 H985 0.960 . S
C978 C976 1.381 1_455 S
C978 C979 1.394 . S
C978 H986 0.930 . S
C979 C978 1.394 . S
C979 C980 1.383 1_455 S
C979 H987 0.929 . S
C980 C979 1.383 1_655 S
C980 C981 1.377 . S
C981 H965 0.930 . S
C981 C980 1.377 . S
C981 C982 1.379 . S
C982 H966 0.931 . S
C982 C976 1.383 . S
C982 C981 1.379 . S
H983 C977 0.959 . S
H984 C977 0.961 . S
H985 C977 0.960 . S
H986 C978 0.930 . S
H987 C979 0.929 . S
H988 C996 0.929 . S
H989 C998 0.930 . S
H990 C1000 0.930 . S
H991 C1003 0.929 . S
H992 C1006 0.930 . S
H993 C1008 0.960 . S
H994 C1008 0.960 . S
H995 C1008 0.960 . S
C996 H988 0.929 . S
C996 C997 1.377 . S
C996 C998 1.384 . S
C997 C996 1.377 . S
C997 C1003 1.390 . S
C998 H989 0.930 . S
C998 C996 1.384 . S
C998 C999 1.372 . S
C999 C998 1.372 . S
C999 C1000 1.400 . S
C999 C1004 1.490 . S
C1000 H990 0.930 . S
C1000 C999 1.400 . S
C1000 C1003 1.386 . S
H1001 C1017 0.930 1_545 S
H1002 C1018 0.931 . S
C1003 H991 0.929 . S
C1003 C997 1.390 . S
C1003 C1000 1.386 . S
C1004 C999 1.490 . S
C1004 C1006 1.395 . S
C1004 C1007 1.403 . S
H1005 C1011 0.930 . S
C1006 H992 0.930 . S
C1006 C1004 1.395 . S
C1006 C1009 1.403 . S
C1007 C1004 1.403 . S
C1007 C1008 1.524 . S
C1007 C1011 1.400 . S
C1008 H993 0.960 . S
C1008 H994 0.960 . S
C1008 H995 0.960 . S
C1008 C1007 1.524 . S
C1009 C1006 1.403 . S
C1009 C1010 1.392 . S
C1009 C1013 1.495 1_565 S
C1010 C1009 1.392 . S
C1010 C1011 1.385 . S
C1010 C1012 1.478 . S
C1011 H1005 0.930 . S
C1011 C1007 1.400 . S
C1011 C1010 1.385 . S
C1012 C1010 1.478 . S
C1012 C1014 1.381 . S
C1012 C1018 1.383 . S
C1013 C1009 1.495 1_545 S
C1013 H1019 0.959 . S
C1013 H1020 0.961 . S
C1013 H1021 0.960 . S
C1014 C1012 1.381 . S
C1014 C1015 1.394 . S
C1014 H1022 0.930 . S
C1015 C1014 1.394 . S
C1015 C1016 1.383 . S
C1015 H1023 0.929 . S
C1016 C1015 1.383 . S
C1016 C1017 1.377 . S
C1017 H1001 0.930 1_565 S
C1017 C1016 1.377 . S
C1017 C1018 1.379 . S
C1018 H1002 0.931 . S
C1018 C1012 1.383 . S
C1018 C1017 1.379 . S
H1019 C1013 0.959 . S
H1020 C1013 0.961 . S
H1021 C1013 0.960 . S
H1022 C1014 0.930 . S
H1023 C1015 0.929 . S
H1024 C1032 0.929 . S
H1025 C1034 0.930 . S
H1026 C1036 0.930 . S
H1027 C1039 0.929 . S
H1028 C1042 0.930 . S
H1029 C1044 0.960 . S
H1030 C1044 0.960 . S
H1031 C1044 0.960 . S
C1032 H1024 0.929 . S
C1032 C1033 1.377 . S
C1032 C1034 1.384 . S
C1033 C1032 1.377 . S
C1033 C1039 1.390 . S
C1034 H1025 0.930 . S
C1034 C1032 1.384 . S
C1034 C1035 1.372 . S
C1035 C1034 1.372 . S
C1035 C1036 1.400 . S
C1035 C1040 1.490 . S
C1036 H1026 0.930 . S
C1036 C1035 1.400 . S
C1036 C1039 1.386 . S
H1037 C1053 0.930 . S
H1038 C1054 0.931 . S
C1039 H1027 0.929 . S
C1039 C1033 1.390 . S
C1039 C1036 1.386 . S
C1040 C1035 1.490 . S
C1040 C1042 1.395 . S
C1040 C1043 1.403 . S
H1041 C1047 0.930 . S
C1042 H1028 0.930 . S
C1042 C1040 1.395 . S
C1042 C1045 1.403 . S
C1043 C1040 1.403 . S
C1043 C1044 1.524 . S
C1043 C1047 1.400 . S
C1044 H1029 0.960 . S
C1044 H1030 0.960 . S
C1044 H1031 0.960 . S
C1044 C1043 1.524 . S
C1045 C1042 1.403 . S
C1045 C1046 1.392 . S
C1045 C1049 1.495 . S
C1046 C1045 1.392 . S
C1046 C1047 1.385 . S
C1046 C1048 1.478 . S
C1047 H1041 0.930 . S
C1047 C1043 1.400 . S
C1047 C1046 1.385 . S
C1048 C1046 1.478 . S
C1048 C1050 1.381 . S
C1048 C1054 1.383 . S
C1049 C1045 1.495 . S
C1049 H1055 0.959 . S
C1049 H1056 0.961 . S
C1049 H1057 0.960 . S
C1050 C1048 1.381 . S
C1050 C1051 1.394 . S
C1050 H1058 0.930 . S
C1051 C1050 1.394 . S
C1051 C1052 1.383 . S
C1051 H1059 0.929 . S
C1052 C1051 1.383 . S
C1052 C1053 1.377 . S
C1053 H1037 0.930 . S
C1053 C1052 1.377 . S
C1053 C1054 1.379 . S
C1054 H1038 0.931 . S
C1054 C1048 1.383 . S
C1054 C1053 1.379 . S
H1055 C1049 0.959 . S
H1056 C1049 0.961 . S
H1057 C1049 0.960 . S
H1058 C1050 0.930 . S
H1059 C1051 0.929 . S
H1060 C1068 0.929 . S
H1061 C1070 0.930 . S
H1062 C1072 0.930 . S
H1063 C1075 0.929 . S
H1064 C1078 0.930 . S
H1065 C1080 0.960 . S
H1066 C1080 0.960 . S
H1067 C1080 0.960 . S
C1068 H1060 0.929 . S
C1068 C1069 1.377 . S
C1068 C1070 1.384 . S
C1069 C1068 1.377 . S
C1069 C1075 1.390 . S
C1070 H1061 0.930 . S
C1070 C1068 1.384 . S
C1070 C1071 1.372 . S
C1071 C1070 1.372 . S
C1071 C1072 1.400 . S
C1071 C1076 1.490 . S
C1072 H1062 0.930 . S
C1072 C1071 1.400 . S
C1072 C1075 1.386 . S
H1073 C1089 0.930 . S
H1074 C1090 0.931 . S
C1075 H1063 0.929 . S
C1075 C1069 1.390 . S
C1075 C1072 1.386 . S
C1076 C1071 1.490 . S
C1076 C1078 1.395 . S
C1076 C1079 1.403 . S
H1077 C1083 0.930 . S
C1078 H1064 0.930 . S
C1078 C1076 1.395 . S
C1078 C1081 1.403 . S
C1079 C1076 1.403 . S
C1079 C1080 1.524 . S
C1079 C1083 1.400 . S
C1080 H1065 0.960 . S
C1080 H1066 0.960 . S
C1080 H1067 0.960 . S
C1080 C1079 1.524 . S
C1081 C1078 1.403 . S
C1081 C1082 1.392 . S
C1081 C1085 1.495 . S
C1082 C1081 1.392 . S
C1082 C1083 1.385 . S
C1082 C1084 1.478 . S
C1083 H1077 0.930 . S
C1083 C1079 1.400 . S
C1083 C1082 1.385 . S
C1084 C1082 1.478 . S
C1084 C1086 1.381 . S
C1084 C1090 1.383 . S
C1085 C1081 1.495 . S
C1085 H1091 0.959 . S
C1085 H1092 0.961 . S
C1085 H1093 0.960 . S
C1086 C1084 1.381 . S
C1086 C1087 1.394 . S
C1086 H1094 0.930 . S
C1087 C1086 1.394 . S
C1087 C1088 1.383 . S
C1087 H1095 0.929 . S
C1088 C1087 1.383 . S
C1088 C1089 1.377 . S
C1089 H1073 0.930 . S
C1089 C1088 1.377 . S
C1089 C1090 1.379 . S
C1090 H1074 0.931 . S
C1090 C1084 1.383 . S
C1090 C1089 1.379 . S
H1091 C1085 0.959 . S
H1092 C1085 0.961 . S
H1093 C1085 0.960 . S
H1094 C1086 0.930 . S
H1095 C1087 0.929 . S
C241 C125 1.538 . S
C260 C153 1.688 . S
C296 C188 1.627 . S
C277 C144 1.500 . S
C332 C193 1.344 . S
C313 C87 1.276 . S
C368 C213 1.450 . S
C349 C106 1.319 . S
C404 C161 1.678 1_565 S
C385 C49 1.638 . S
C421 C68 1.613 1_556 S
C440 C178 1.627 . S
C457 C11 1.320 1_556 S
C476 C201 1.358 . S
C493 C30 1.391 . S
C512 C221 1.436 . S
C548 C171 1.233 . S
C529 C97 1.207 . S
C584 C180 0.963 . S
C565 C116 0.908 . S
C620 C211 1.300 . S
C601 C135 1.283 . S
C637 C78 0.944 . S
C656 C231 0.911 . S
C673 C21 1.203 . S
C692 C160 1.256 1_655 S
C728 C191 0.965 1_565 S
C709 C40 0.922 1_556 S
C764 C200 1.338 . S
C745 C59 1.285 1_556 S
C781 C2 0.938 1_556 S
C800 C220 0.989 . S
C817 C101 1.445 . S
C836 C158 1.477 . S
C853 C120 1.426 . S
C872 C181 1.480 . S
C908 C198 1.569 . S
C889 C139 1.542 . S
C944 C218 1.607 . S
C925 C82 1.608 . S
C961 C25 1.454 . S
C980 C168 1.447 . S
C1016 C173 1.475 1_565 S
C997 C44 1.437 . S
C1052 C208 1.596 . S
C1033 C63 1.547 . S
C1069 C6 1.606 . S
C1088 C228 1.641 . S
