# Generated by pormake.
# Topology zzz, (3,6)-cn, num edge types: 1
# Building blocks:
#     Node 0, Type 0, BuildingBlock: KAKCAD_clean_linker_0, # of connection points: 3
#     Node 1, Type 0, BuildingBlock: KAKCAD_clean_linker_0, # of connection points: 3
#     Node 2, Type 0, BuildingBlock: KAKCAD_clean_linker_0, # of connection points: 3
#     Node 3, Type 0, BuildingBlock: KAKCAD_clean_linker_0, # of connection points: 3
#     Node 4, Type 0, BuildingBlock: KAKCAD_clean_linker_0, # of connection points: 3
#     Node 5, Type 0, BuildingBlock: KAKCAD_clean_linker_0, # of connection points: 3
#     Node 6, Type 0, BuildingBlock: KAKCAD_clean_linker_0, # of connection points: 3
#     Node 7, Type 0, BuildingBlock: KAKCAD_clean_linker_0, # of connection points: 3
#     Node 8, Type 1, BuildingBlock: PAMTUU_clean_sbu_0, # of connection points: 6
#     Node 9, Type 1, BuildingBlock: PAMTUU_clean_sbu_0, # of connection points: 6
#     Node 10, Type 1, BuildingBlock: PAMTUU_clean_sbu_0, # of connection points: 6
#     Node 11, Type 1, BuildingBlock: PAMTUU_clean_sbu_0, # of connection points: 6
#     Edge 12, Type (0, 1), BuildingBlock: EZIPEK_clean_linker_0, # of connection points: 2
#     Edge 13, Type (0, 1), BuildingBlock: EZIPEK_clean_linker_0, # of connection points: 2
#     Edge 14, Type (0, 1), BuildingBlock: EZIPEK_clean_linker_0, # of connection points: 2
#     Edge 15, Type (0, 1), BuildingBlock: EZIPEK_clean_linker_0, # of connection points: 2
#     Edge 16, Type (0, 1), BuildingBlock: EZIPEK_clean_linker_0, # of connection points: 2
#     Edge 17, Type (0, 1), BuildingBlock: EZIPEK_clean_linker_0, # of connection points: 2
#     Edge 18, Type (0, 1), BuildingBlock: EZIPEK_clean_linker_0, # of connection points: 2
#     Edge 19, Type (0, 1), BuildingBlock: EZIPEK_clean_linker_0, # of connection points: 2
#     Edge 20, Type (0, 1), BuildingBlock: EZIPEK_clean_linker_0, # of connection points: 2
#     Edge 21, Type (0, 1), BuildingBlock: EZIPEK_clean_linker_0, # of connection points: 2
#     Edge 22, Type (0, 1), BuildingBlock: EZIPEK_clean_linker_0, # of connection points: 2
#     Edge 23, Type (0, 1), BuildingBlock: EZIPEK_clean_linker_0, # of connection points: 2
#     Edge 24, Type (0, 1), BuildingBlock: EZIPEK_clean_linker_0, # of connection points: 2
#     Edge 25, Type (0, 1), BuildingBlock: EZIPEK_clean_linker_0, # of connection points: 2
#     Edge 26, Type (0, 1), BuildingBlock: EZIPEK_clean_linker_0, # of connection points: 2
#     Edge 27, Type (0, 1), BuildingBlock: EZIPEK_clean_linker_0, # of connection points: 2
#     Edge 28, Type (0, 1), BuildingBlock: EZIPEK_clean_linker_0, # of connection points: 2
#     Edge 29, Type (0, 1), BuildingBlock: EZIPEK_clean_linker_0, # of connection points: 2
#     Edge 30, Type (0, 1), BuildingBlock: EZIPEK_clean_linker_0, # of connection points: 2
#     Edge 31, Type (0, 1), BuildingBlock: EZIPEK_clean_linker_0, # of connection points: 2
#     Edge 32, Type (0, 1), BuildingBlock: EZIPEK_clean_linker_0, # of connection points: 2
#     Edge 33, Type (0, 1), BuildingBlock: EZIPEK_clean_linker_0, # of connection points: 2
#     Edge 34, Type (0, 1), BuildingBlock: EZIPEK_clean_linker_0, # of connection points: 2
#     Edge 35, Type (0, 1), BuildingBlock: EZIPEK_clean_linker_0, # of connection points: 2
# Relax obj value: 0.417
# Max RMSD: 0.287
# Mean RMSD: 0.219
data_MOF--net-zzz--node1-PAMTUU_clean_sbu_0--node2-KAKCAD_clean_linker_0--edge1-EZIPEK_clean_linker_0
_symmetry_space_group_name_H-M    P1
_symmetry_Int_Tables_number       1
_symmetry_cell_setting            triclinic
loop_
_symmetry_equiv_pos_as_xyz
'x, y, z'
_cell_length_a     44.563086
_cell_length_b     49.01159
_cell_length_c     16.587479
_cell_angle_alpha  101.21529
_cell_angle_beta   90.512815
_cell_angle_gamma 89.221842
loop_
_atom_site_label
_atom_site_type_symbol
_atom_site_fract_x
_atom_site_fract_y
_atom_site_fract_z
_atom_type_partial_charge
C0 C 0.84781 0.59513 0.35905 0.0
C1 C 0.85551 0.57682 0.28606 0.0
C2 C 0.8178 0.59739 0.38385 0.0
C3 C 0.7961 0.58037 0.33706 0.0
C4 C 0.80303 0.56805 0.25546 0.0
C5 C 0.83284 0.56603 0.23033 0.0
C6 C 0.77437 0.56547 0.37975 0.0
C7 C 0.74709 0.55611 0.34263 0.0
C8 C 0.73172 0.53376 0.36504 0.0
C9 C 0.74523 0.52002 0.42514 0.0
C10 C 0.77224 0.53047 0.466 0.0
C11 C 0.78536 0.55376 0.44475 0.0
C12 C 0.7908 0.51691 0.52365 0.0
C13 C 0.7951 0.53135 0.60516 0.0
C14 C 0.8127 0.49693 0.49059 0.0
C15 C 0.83899 0.49299 0.53527 0.0
C16 C 0.84423 0.50899 0.61432 0.0
C17 C 0.70295 0.52492 0.31901 0.0
C18 C 0.68202 0.54546 0.30536 0.0
C19 C 0.69822 0.49737 0.27726 0.0
C20 C 0.6743 0.49103 0.22022 0.0
C21 C 0.65464 0.51209 0.20312 0.0
C22 C 0.65845 0.53921 0.2483 0.0
C23 C 0.82136 0.52743 0.64981 0.0
H24 H 0.86511 0.60414 0.40195 0.0
H25 H 0.81277 0.60799 0.44594 0.0
H26 H 0.78673 0.5555 0.21646 0.0
H27 H 0.83847 0.55245 0.17259 0.0
H28 H 0.73886 0.5651 0.29173 0.0
H29 H 0.80668 0.56063 0.47318 0.0
H30 H 0.73492 0.50176 0.44003 0.0
H31 H 0.77941 0.54765 0.63159 0.0
H32 H 0.81092 0.48628 0.4271 0.0
H33 H 0.85618 0.47872 0.50589 0.0
H34 H 0.68469 0.56688 0.33649 0.0
H35 H 0.71393 0.48104 0.28526 0.0
H36 H 0.82468 0.54019 0.71023 0.0
H37 H 0.64368 0.55587 0.23742 0.0
H38 H 0.67184 0.46986 0.18695 0.0
C39 C 0.08158 0.80918 0.20734 0.0
C40 C 0.10347 0.82619 0.25216 0.0
C41 C 0.07032 0.78662 0.23707 0.0
C42 C 0.08071 0.78097 0.31233 0.0
C43 C 0.10452 0.79659 0.35333 0.0
C44 C 0.11596 0.819 0.32315 0.0
C45 C 0.06273 0.7632 0.35556 0.0
C46 C 0.05329 0.73673 0.3168 0.0
C47 C 0.0326 0.72186 0.35504 0.0
C48 C 1.02037 0.73454 0.43189 0.0
C49 C 0.03018 0.76104 0.47112 0.0
C50 C 0.0516 0.77478 0.43313 0.0
C51 C 1.0169 0.77715 0.54726 0.0
C52 C 0.99121 0.79344 0.53988 0.0
C53 C 0.03582 0.78486 0.61598 0.0
C54 C 0.03162 0.81044 0.66942 0.0
C55 C 1.00836 0.82847 0.65487 0.0
C56 C 0.02376 0.69351 0.31203 0.0
C57 C 0.04587 0.67489 0.27312 0.0
C58 C 0.99346 0.68558 0.30344 0.0
C59 C 0.98547 0.66016 0.25332 0.0
C60 C 1.00768 0.64243 0.21121 0.0
C61 C 0.03791 0.64969 0.22325 0.0
C62 C 0.98699 0.81905 0.59338 0.0
H63 H 0.07186 0.81443 0.15211 0.0
H64 H 0.05181 0.7751 0.20479 0.0
H65 H 0.11288 0.79256 0.41148 0.0
H66 H 0.13304 0.83185 0.35799 0.0
H67 H 0.06159 0.728 0.25587 0.0
H68 H 0.0581 0.79569 0.46204 0.0
H69 H 1.00367 0.72392 0.46104 0.0
H70 H 0.97669 0.78824 0.48652 0.0
H71 H 0.05607 0.77291 0.62199 0.0
H72 H 0.04837 0.81742 0.71636 0.0
H73 H 0.06942 0.68014 0.27965 0.0
H74 H 0.97592 0.69951 0.33243 0.0
H75 H 0.96899 0.83278 0.58108 0.0
H76 H 0.05538 0.63614 0.19199 0.0
H77 H 0.962 0.65476 0.24511 0.0
C78 C 0.69174 0.9175 0.2253 0.0
C79 C 0.68356 0.93821 0.18132 0.0
C80 C 0.72164 0.91538 0.25008 0.0
C81 C 0.74306 0.93378 0.22983 0.0
C82 C 0.73582 0.9493 0.16947 0.0
C83 C 0.70601 0.952 0.14676 0.0
C84 C 0.76514 0.94641 0.29247 0.0
C85 C 0.7934 0.95411 0.26947 0.0
C86 C 0.80997 0.97517 0.32012 0.0
C87 C 0.79643 0.98955 0.39477 0.0
C88 C 0.76798 0.98093 0.41945 0.0
C89 C 0.75377 0.9586 0.36932 0.0
C90 C 0.74907 0.99564 0.48962 0.0
C91 C 0.74602 0.98362 0.55971 0.0
C92 C 0.72564 0.01332 0.47219 0.0
C93 C 0.69919 0.01719 0.5194 0.0
C94 C 0.69535 0.00362 0.586 0.0
C95 C 0.83995 0.98211 0.28741 0.0
C96 C 0.85893 0.9602 0.24869 0.0
C97 C 0.8477 0.0094 0.28107 0.0
C98 C 0.87256 0.01429 0.2333 0.0
C99 C 0.89003 0.99199 0.18977 0.0
C100 C 0.88322 0.965 0.20021 0.0
C101 C 0.7197 0.98774 0.60755 0.0
H102 H 0.67466 0.90596 0.24996 0.0
H103 H 0.72689 0.90282 0.29548 0.0
H104 H 0.75196 0.96326 0.15129 0.0
H105 H 0.7002 0.96736 0.11006 0.0
H106 H 0.80147 0.94498 0.20857 0.0
H107 H 0.73144 0.95312 0.38602 0.0
H108 H 0.80767 0.00702 0.43244 0.0
H109 H 0.76286 0.96899 0.57323 0.0
H110 H 0.72649 0.02195 0.4169 0.0
H111 H 0.68095 0.02945 0.50074 0.0
H112 H 0.85405 0.9389 0.25257 0.0
H113 H 0.83366 0.0268 0.30914 0.0
H114 H 0.71755 0.97698 0.65836 0.0
H115 H 0.89622 0.94737 0.16857 0.0
H116 H 0.87737 0.03541 0.22741 0.0
C117 C 0.52215 0.73877 0.44065 0.0
C118 C 0.54926 0.72387 0.44042 0.0
C119 C 0.51683 0.75527 0.38187 0.0
C120 C 0.53861 0.7572 0.32257 0.0
C121 C 0.56681 0.74448 0.32773 0.0
C122 C 0.5721 0.72788 0.38631 0.0
C123 C 0.52869 0.76324 0.24267 0.0
C124 C 0.53366 0.78871 0.21836 0.0
C125 C 0.52447 0.79252 0.13926 0.0
C126 C 0.51044 0.77027 0.08577 0.0
C127 C 0.50623 0.74465 0.10924 0.0
C128 C 0.51522 0.74153 0.18796 0.0
C129 C 0.49536 0.71992 0.05042 0.0
C130 C 0.47688 0.70075 0.07848 0.0
C131 C 0.50763 0.71279 0.97105 0.0
C132 C 0.50435 0.68585 0.92497 0.0
C133 C 0.4893 0.66578 0.95879 0.0
C134 C 0.52947 0.81929 0.1111 0.0
C135 C 0.52767 0.84509 0.16607 0.0
C136 C 0.53486 0.81927 0.02744 0.0
C137 C 0.53651 0.84414 0.9988 0.0
C138 C 0.53384 0.86975 0.0533 0.0
C139 C 0.53019 0.87007 0.13753 0.0
C140 C 0.47415 0.67379 0.0334 0.0
H141 H 0.50422 0.73574 0.48158 0.0
H142 H 0.49467 0.76429 0.37762 0.0
H143 H 0.5836 0.74505 0.28126 0.0
H144 H 0.59308 0.71637 0.38496 0.0
H145 H 0.54504 0.80511 0.26022 0.0
H146 H 0.51292 0.72157 0.20621 0.0
H147 H 0.50258 0.77272 0.0256 0.0
H148 H 0.46647 0.70591 0.13838 0.0
H149 H 0.52193 0.72713 0.94767 0.0
H150 H 0.51594 0.67994 0.86692 0.0
H151 H 0.52338 0.8461 0.23071 0.0
H152 H 0.53754 0.79999 0.98336 0.0
H153 H 0.46202 0.65863 0.05959 0.0
H154 H 0.52825 0.88966 0.18067 0.0
H155 H 0.53968 0.84342 0.93372 0.0
C156 C 0.2549 0.4416 0.47532 0.0
C157 C 0.22565 0.43489 0.4481 0.0
C158 C 0.27844 0.43602 0.41974 0.0
C159 C 0.27224 0.42454 0.33649 0.0
C160 C 0.24505 0.41016 0.31848 0.0
C161 C 0.22122 0.41622 0.37358 0.0
C162 C 0.28579 0.43847 0.27314 0.0
C163 C 0.31432 0.44998 0.28655 0.0
C164 C 0.32183 0.47399 0.25745 0.0
C165 C 0.30142 0.48453 0.20357 0.0
C166 C 0.27411 0.47026 0.17859 0.0
C167 C 0.26685 0.44768 0.21541 0.0
C168 C 0.25062 0.47878 0.121 0.0
C169 C 0.23996 0.50637 0.12803 0.0
C170 C 0.23485 0.45782 0.06711 0.0
C171 C 0.20813 0.46361 0.02798 0.0
C172 C 0.19648 0.49085 0.03792 0.0
C173 C 0.34903 0.48867 0.29742 0.0
C174 C 0.3454 0.50862 0.37041 0.0
C175 C 0.37745 0.47577 0.28239 0.0
C176 C 0.4008 0.48121 0.34092 0.0
C177 C 0.39632 0.49949 0.41667 0.0
C178 C 0.36871 0.51396 0.42923 0.0
C179 C 0.21347 0.51235 0.08618 0.0
H180 H 0.25877 0.45522 0.53417 0.0
H181 H 0.2996 0.44586 0.43891 0.0
H182 H 0.24028 0.39909 0.25667 0.0
H183 H 0.19876 0.41001 0.35288 0.0
H184 H 0.32947 0.44242 0.32906 0.0
H185 H 0.24455 0.4392 0.20502 0.0
H186 H 0.30674 0.50328 0.18158 0.0
H187 H 0.25114 0.52313 0.16897 0.0
H188 H 0.24238 0.43634 0.05847 0.0
H189 H 0.19609 0.44649 0.99105 0.0
H190 H 0.32358 0.51816 0.3856 0.0
H191 H 0.38077 0.4596 0.22846 0.0
H192 H 0.20553 0.53368 0.09439 0.0
H193 H 0.3645 0.5281 0.48693 0.0
H194 H 0.42176 0.46972 0.32936 0.0
C195 C 0.94837 0.21687 0.46035 0.0
C196 C 0.96136 0.19064 0.46064 0.0
C197 C 0.96122 0.23451 0.41349 0.0
C198 C 0.98697 0.2259 0.36647 0.0
C199 C 1.00038 0.20005 0.36985 0.0
C200 C 0.98764 0.18258 0.41639 0.0
C201 C 0.99936 0.24282 0.31029 0.0
C202 C 1.0052 0.27109 0.33673 0.0
C203 C 1.01958 0.2862 0.2847 0.0
C204 C 0.02804 0.27282 0.20472 0.0
C205 C 1.02108 0.24456 0.17712 0.0
C206 C 1.0068 0.22997 0.23019 0.0
C207 C 0.0294 0.22821 0.0957 0.0
C208 C 1.00607 0.21722 0.04197 0.0
C209 C 0.0577 0.21502 0.0871 0.0
C210 C 0.06138 0.18929 0.03368 0.0
C211 C 0.03673 0.1765 0.98881 0.0
C212 C 0.02603 0.31569 0.31833 0.0
C213 C 0.0539 0.32299 0.35603 0.0
C214 C 1.00209 0.3349 0.33189 0.0
C215 C 1.00532 0.36025 0.38669 0.0
C216 C 0.03247 0.36662 0.42923 0.0
C217 C 0.05712 0.34836 0.41123 0.0
C218 C 1.00966 0.19146 0.98909 0.0
H219 H 0.92805 0.22328 0.49453 0.0
H220 H 0.9505 0.25435 0.41168 0.0
H221 H 1.02053 0.19314 0.33535 0.0
H222 H 0.99797 0.16244 0.41661 0.0
H223 H 0.99955 0.28118 0.39899 0.0
H224 H 1.00193 0.20808 0.20912 0.0
H225 H 0.03958 0.28419 0.16472 0.0
H226 H 0.98392 0.22676 0.04855 0.0
H227 H 0.07581 0.22276 0.12897 0.0
H228 H 0.08244 0.17804 0.03422 0.0
H229 H 0.07241 0.30817 0.34791 0.0
H230 H 0.98024 0.32939 0.30483 0.0
H231 H 0.99041 0.18196 0.9549 0.0
H232 H 0.07816 0.35288 0.44399 0.0
H233 H 0.98603 0.37403 0.4002 0.0
C234 C 0.29087 0.88609 0.42369 0.0
C235 C 0.3206 0.89064 0.45053 0.0
C236 C 0.27746 0.90332 0.37502 0.0
C237 C 0.29363 0.92534 0.35316 0.0
C238 C 0.32372 0.92901 0.37828 0.0
C239 C 0.33701 0.91182 0.42619 0.0
C240 C 0.27881 0.94611 0.3111 0.0
C241 C 0.25015 0.95626 0.33515 0.0
C242 C 0.23678 0.97831 0.3045 0.0
C243 C 0.25335 0.99073 0.24784 0.0
C244 C 0.2825 0.98021 0.22172 0.0
C245 C 0.29443 0.95781 0.25345 0.0
C246 C 0.30258 0.99195 0.16459 0.0
C247 C 0.30012 0.98314 0.07872 0.0
C248 C 0.3292 0.00543 0.19591 0.0
C249 C 0.35299 0.00908 0.1437 0.0
C250 C 0.35111 -0.00083 0.05829 0.0
C251 C 0.20625 0.98772 0.33851 0.0
C252 C 0.1839 0.96758 0.33909 0.0
C253 C 0.20168 0.01419 0.38824 0.0
C254 C 0.17662 0.01961 0.44106 0.0
C255 C 0.15579 -0.00144 0.44662 0.0
C256 C 0.1593 0.97281 0.39257 0.0
C257 C 0.32397 0.98683 0.02626 0.0
H258 H 0.27794 0.86981 0.44212 0.0
H259 H 0.2543 0.89981 0.35596 0.0
H260 H 0.33669 0.94601 0.36427 0.0
H261 H 0.35994 0.91574 0.44703 0.0
H262 H 0.23856 0.94778 0.38181 0.0
H263 H 0.31654 0.94974 0.23399 0.0
H264 H 0.24384 0.00819 0.22481 0.0
H265 H 0.2805 0.97183 0.05255 0.0
H266 H 0.33235 0.01167 0.26173 0.0
H267 H 0.37348 0.01859 0.17055 0.0
H268 H 0.18667 0.94689 0.30221 0.0
H269 H 0.21854 0.03004 0.39077 0.0
H270 H 0.32176 0.97892 0.96086 0.0
H271 H 0.14374 0.95617 0.39455 0.0
H272 H 0.17449 0.03977 0.48129 0.0
C273 C 0.45513 0.27633 0.20904 0.0
C274 C 0.47838 0.28187 0.15824 0.0
C275 C 0.46056 0.25944 0.26677 0.0
C276 C 0.48927 0.24795 0.27407 0.0
C277 C 0.51133 0.25082 0.21641 0.0
C278 C 0.50592 0.26771 0.15879 0.0
C279 C 0.4992 0.24336 0.35547 0.0
C280 C 0.49561 0.21816 0.38262 0.0
C281 C 0.50521 0.21572 0.46268 0.0
C282 C 0.51835 0.239 0.51402 0.0
C283 C 0.52089 0.26423 0.48739 0.0
C284 C 0.51161 0.26614 0.40832 0.0
C285 C 0.53085 0.28974 0.54269 0.0
C286 C 0.5099 0.31132 0.56667 0.0
C287 C 0.5614 0.2944 0.56092 0.0
C288 C 0.57099 0.32088 0.59963 0.0
C289 C 0.54999 0.3427 0.62018 0.0
C290 C 0.50144 0.18934 0.49396 0.0
C291 C 0.5048 0.16316 0.44169 0.0
C292 C 0.49561 0.1902 0.57784 0.0
C293 C 0.49494 0.1658 0.60939 0.0
C294 C 0.49931 0.13985 0.55766 0.0
C295 C 0.50346 0.13865 0.47315 0.0
C296 C 0.5194 0.33758 0.60531 0.0
H297 H 0.43381 0.28726 0.20975 0.0
H298 H 0.44349 0.25807 0.31186 0.0
H299 H 0.53381 0.2427 0.22219 0.0
H300 H 0.52415 0.27191 0.12035 0.0
H301 H 0.48504 0.20088 0.34219 0.0
H302 H 0.51357 0.28584 0.38812 0.0
H303 H 0.52625 0.23782 0.57521 0.0
H304 H 0.48628 0.30812 0.55223 0.0
H305 H 0.57787 0.27802 0.54159 0.0
H306 H 0.5947 0.32463 0.61073 0.0
H307 H 0.50947 0.16156 0.377 0.0
H308 H 0.49185 0.20978 0.61979 0.0
H309 H 0.50297 0.35424 0.62096 0.0
H310 H 0.50675 0.11878 0.43211 0.0
H311 H 0.49139 0.16718 0.67461 0.0
Tb312 Tb 0.99638 0.00718 0.76411 0.0
Tb313 Tb 0.05139 -0.00252 0.88685 0.0
C314 C 0.98329 -0.00092 0.94387 0.0
C315 C 0.94908 0.04265 0.6352 0.0
C316 C 0.94096 0.09381 0.58573 0.0
C317 C 0.91696 0.08178 0.61963 0.0
C318 C 0.92099 0.05621 0.64393 0.0
C319 C 0.97289 0.05464 0.59998 0.0
C320 C 0.96877 0.07996 0.57505 0.0
C321 C 0.95438 0.01817 0.67246 0.0
O322 O 1.00549 0.0475 0.84107 0.0
O323 O 0.05468 0.04071 0.8744 0.0
O324 O 0.07079 0.99156 0.76348 0.0
O325 O 0.03722 0.01701 0.70221 0.0
O326 O 0.07202 0.00666 1.00353 0.0
O327 O 0.09266 0.97828 0.90363 0.0
O328 O 0.03001 0.95713 0.85311 0.0
O329 O 1.00715 0.9631 0.73273 0.0
O330 O 0.97519 0.99242 0.86611 0.0
O331 O 1.01112 0.00645 0.96424 0.0
C332 C 0.03173 0.05722 0.86803 0.0
O333 O 0.97744 0.00241 0.6458 0.0
O334 O 0.95299 0.02315 0.75227 0.0
C335 C 0.06358 0.00455 0.70351 0.0
C336 C 0.09819 0.96795 0.03427 0.0
C337 C 0.10878 0.92562 0.12323 0.0
C338 C 0.1301 0.94651 0.12452 0.0
C339 C 0.12478 0.96766 0.08008 0.0
C340 C 0.07675 0.94729 0.03438 0.0
C341 C 0.08197 0.92632 0.07882 0.0
C342 C 0.09357 0.98856 0.98202 0.0
C343 C 1.01729 0.94707 0.78201 0.0
H344 H 0.89541 0.09239 0.6285 0.0
H345 H 0.90252 0.04747 0.67214 0.0
H346 H 0.99495 0.04492 0.59403 0.0
H347 H 0.98753 0.08917 0.54938 0.0
H348 H 0.15088 0.94617 0.15869 0.0
H349 H 0.14161 0.98341 0.08011 0.0
H350 H 0.05632 0.94703 0.99848 0.0
H351 H 0.06537 0.91026 0.07724 0.0
Tb352 Tb 0.50806 0.98149 0.72831 0.0
Tb353 Tb 0.52923 0.02816 0.88767 0.0
C354 C 0.52872 0.96501 0.89491 0.0
C355 C 0.46953 0.92113 0.60415 0.0
C356 C 0.41913 0.88683 0.59397 0.0
C357 C 0.43905 0.88859 0.66074 0.0
C358 C 0.46396 0.90604 0.6665 0.0
C359 C 0.45094 0.91753 0.53472 0.0
C360 C 0.42592 0.90067 0.52984 0.0
C361 C 0.49237 0.94283 0.61326 0.0
O362 O 0.46564 0.99522 0.79097 0.0
O363 O 0.4848 0.01432 0.91796 0.0
O364 O 0.51229 0.05278 0.80082 0.0
O365 O 0.50963 0.01965 0.68091 0.0
O366 O 0.51585 0.05547 0.99626 0.0
O367 O 0.56207 0.05185 0.96016 0.0
O368 O 0.56974 0.02257 0.81183 0.0
O369 O 0.5561 0.98678 0.70679 0.0
O370 O 0.50981 0.96079 0.83312 0.0
O371 O 0.5434 0.98831 0.91539 0.0
C372 C 0.46206 0.00456 0.87037 0.0
O373 O 0.48176 0.96819 0.6231 0.0
O374 O 0.51487 0.94075 0.66272 0.0
C375 C 0.5092 0.04558 0.72056 0.0
C376 C 0.55218 0.04807 0.09432 0.0
C377 C 0.58341 0.00925 0.16699 0.0
C378 C 0.59624 0.03511 0.1652 0.0
C379 C 0.58061 0.05454 0.12907 0.0
C380 C 0.53761 0.02415 0.10893 0.0
C381 C 0.55328 0.00467 0.14465 0.0
C382 C 0.54358 0.05911 0.02099 0.0
C383 C 0.57613 0.00468 0.74379 0.0
H384 H 0.43455 0.87764 0.71003 0.0
H385 H 0.47809 0.90853 0.72085 0.0
H386 H 0.45491 0.92891 0.48603 0.0
H387 H 0.41101 0.89945 0.47734 0.0
H388 H 0.61954 0.03887 0.18264 0.0
H389 H 0.5923 0.07273 0.11828 0.0
H390 H 0.51564 0.01858 0.08291 0.0
H391 H 0.54313 0.98478 0.14578 0.0
Tb392 Tb 0.49313 0.48947 0.87282 0.0
Tb393 Tb 0.54912 0.52232 0.76774 0.0
C394 C 0.48347 0.50564 0.6892 0.0
C395 C 0.46218 0.43108 0.96013 0.0
C396 C 0.46756 0.38019 0.01387 0.0
C397 C 0.44446 0.3991 0.04368 0.0
C398 C 0.44176 0.42435 0.01685 0.0
C399 C 0.48525 0.41208 0.9298 0.0
C400 C 0.48787 0.38673 0.95644 0.0
C401 C 0.45916 0.45801 0.93393 0.0
O402 O 0.52365 0.45952 0.79762 0.0
O403 O 0.56251 0.47932 0.73254 0.0
O404 O 0.57293 0.5135 0.87535 0.0
O405 O 0.53564 0.49432 0.94654 0.0
O406 O 0.57672 0.5369 0.68329 0.0
O407 O 0.5633 0.56346 0.79885 0.0
O408 O 0.51336 0.52917 0.84606 0.0
O409 O 0.47571 0.53235 0.91836 0.0
O410 O 0.47326 0.49753 0.75607 0.0
O411 O 0.5112 0.51446 0.68112 0.0
C412 C 0.54783 0.45796 0.75053 0.0
O413 O 0.47382 0.47869 0.97748 0.0
O414 O 0.46161 0.45744 0.85539 0.0
C415 C 0.5635 0.50334 0.93916 0.0
C416 C 0.57119 0.58542 0.68639 0.0
C417 C 0.56202 0.63174 0.61145 0.0
C418 C 0.59081 0.62009 0.61479 0.0
C419 C 0.59535 0.59708 0.65193 0.0
C420 C 0.54231 0.5971 0.68327 0.0
C421 C 0.53774 0.62009 0.64572 0.0
C422 C 0.57695 0.56205 0.72858 0.0
C423 C 0.49464 0.54652 0.88629 0.0
H424 H 0.42879 0.39444 0.08856 0.0
H425 H 0.42388 0.43877 0.04097 0.0
H426 H 0.5013 0.41695 0.88617 0.0
H427 H 0.50599 0.37245 0.9335 0.0
H428 H 0.60973 0.62875 0.58825 0.0
H429 H 0.61779 0.58847 0.65425 0.0
H430 H 0.52342 0.58859 0.7103 0.0
H431 H 0.51535 0.6288 0.64339 0.0
Tb432 Tb 0.03083 0.52418 0.77596 0.0
Tb433 Tb 1.00933 0.48063 0.88505 0.0
C434 C 1.00597 0.54505 0.95567 0.0
C435 C 0.08391 0.54629 0.6462 0.0
C436 C 0.13362 0.51427 0.58026 0.0
C437 C 0.1347 0.5291 0.66126 0.0
C438 C 0.11005 0.5451 0.69406 0.0
C439 C 0.08433 0.53377 0.56246 0.0
C440 C 0.10904 0.51773 0.52976 0.0
C441 C 0.05481 0.55345 0.68711 0.0
O442 O 0.07167 0.50484 0.81657 0.0
O443 O 0.05278 0.49641 0.93582 0.0
O444 O 0.03261 0.45541 0.78153 0.0
O445 O 0.02374 0.48461 0.69229 0.0
O446 O 1.01931 0.45519 0.97083 0.0
O447 O 0.97526 0.45583 0.91789 0.0
O448 O 0.97284 0.48437 0.7967 0.0
O449 O 0.98188 0.52817 0.77451 0.0
O450 O 0.02316 0.54982 0.89631 0.0
O451 O 0.99426 0.5206 0.95539 0.0
C452 C 0.07602 0.50037 0.8915 0.0
O453 O 0.03329 0.53614 0.66116 0.0
O454 O 0.05563 0.55963 0.76712 0.0
C455 C 0.03018 0.45978 0.70623 0.0
C456 C 0.97767 0.45998 0.06018 0.0
C457 C 0.94703 0.49832 0.17898 0.0
C458 C 0.93119 0.47734 0.12695 0.0
C459 C 0.94646 0.45808 0.06816 0.0
C460 C 0.99374 0.4784 0.12069 0.0
C461 C 0.97841 0.49762 0.17977 0.0
C462 C 0.99105 0.44986 0.97867 0.0
C463 C 0.96373 0.50696 0.77084 0.0
H464 H 0.15386 0.52694 0.70033 0.0
H465 H 0.11065 0.55458 0.75872 0.0
H466 H 0.06458 0.53434 0.52424 0.0
H467 H 0.10827 0.5067 0.46649 0.0
H468 H 0.90686 0.47745 0.12676 0.0
H469 H 0.93358 0.44394 0.02288 0.0
H470 H 1.01789 0.48002 0.11731 0.0
H471 H 0.99083 0.51342 0.22102 0.0
C472 C 0.10076 -0.0011 0.49023 0.0
C473 C 0.13165 0.00238 0.51229 0.0
C474 C 0.11665 0.01266 0.65839 0.0
C475 C 0.08643 0.00528 0.63674 0.0
N476 N 0.05127 0.98623 0.5295 0.0
N477 N 0.16901 0.0067 0.62039 0.0
C478 C 0.07885 -0.00285 0.55185 0.0
C479 C 0.13958 0.00775 0.59726 0.0
N480 N 0.09215 -0.00212 0.41049 0.0
N481 N 0.12349 0.02531 0.73713 0.0
H482 H 0.18651 0.00205 0.57851 0.0
H483 H 0.17576 0.00751 0.68111 0.0
H484 H 0.10735 0.03035 0.7829 0.0
H485 H 0.14452 0.0336 0.75452 0.0
H486 H 0.06976 -0.00195 0.3919 0.0
H487 H 0.10732 -0.00032 0.36432 0.0
H488 H 0.04567 0.9772 0.46919 0.0
H489 H 0.03501 0.98358 0.57195 0.0
C490 C 0.52816 0.09874 0.59067 0.0
C491 C 0.50085 0.11415 0.59337 0.0
C492 C 0.47859 0.08423 0.67929 0.0
C493 C 0.50535 0.06793 0.67224 0.0
N494 N 0.55242 0.05531 0.60266 0.0
N495 N 0.44803 0.11786 0.62458 0.0
C496 C 0.52905 0.07371 0.62168 0.0
C497 C 0.47542 0.10582 0.63326 0.0
N498 N 0.55381 0.1088 0.56311 0.0
N499 N 0.45618 0.07907 0.72985 0.0
H500 H 0.44479 0.1332 0.58959 0.0
H501 H 0.4281 0.1109 0.64539 0.0
H502 H 0.4568 0.06228 0.76003 0.0
H503 H 0.43775 0.09228 0.74538 0.0
H504 H 0.57495 0.09996 0.56853 0.0
H505 H 0.55458 0.12755 0.54247 0.0
H506 H 0.56856 0.05714 0.55901 0.0
H507 H 0.55433 0.03689 0.62477 0.0
C508 C 0.42389 0.4782 0.52496 0.0
C509 C 0.41921 0.50127 0.48557 0.0
C510 C 0.45551 0.5281 0.58273 0.0
C511 C 0.46201 0.5042 0.61733 0.0
N512 N 0.45715 0.45466 0.60655 0.0
N513 N 0.43436 0.54676 0.46862 0.0
C514 C 0.44749 0.47875 0.58426 0.0
C515 C 0.43614 0.52582 0.51218 0.0
N516 N 0.40504 0.45602 0.5081 0.0
N517 N 0.4668 0.55331 0.61919 0.0
H518 H 0.42043 0.54586 0.4173 0.0
H519 H 0.44846 0.56387 0.47893 0.0
H520 H 0.48078 0.55596 0.67071 0.0
H521 H 0.46029 0.57201 0.60293 0.0
H522 H 0.40521 0.44005 0.54136 0.0
H523 H 0.38728 0.45483 0.46622 0.0
H524 H 0.44967 0.43507 0.57813 0.0
H525 H 0.47498 0.45388 0.64726 0.0
C526 C 0.04737 0.41558 0.49406 0.0
C527 C 0.03351 0.39027 0.50067 0.0
C528 C 1.01518 0.41135 0.63776 0.0
C529 C 0.0317 0.4358 0.63542 0.0
N530 N 0.06705 0.45971 0.56471 0.0
N531 N 1.00972 0.36206 0.58527 0.0
C532 C 0.04875 0.43755 0.56434 0.0
C533 C 1.0192 0.38754 0.57466 0.0
N534 N 0.05854 0.41885 0.42009 0.0
N535 N 0.99397 0.41134 0.69684 0.0
H536 H 1.01215 0.34402 0.5405 0.0
H537 H 1.00212 0.35839 0.64138 0.0
H538 H 0.98846 0.42882 0.74099 0.0
H539 H 0.97925 0.39495 0.69609 0.0
H540 H 0.06579 0.43782 0.40851 0.0
H541 H 0.05843 0.40298 0.36808 0.0
H542 H 0.08223 0.46077 0.51811 0.0
H543 H 0.06921 0.47601 0.61498 0.0
C544 C 0.90795 0.00746 0.05942 0.0
C545 C 0.91464 0.99616 0.13051 0.0
C546 C 0.96596 0.98503 0.0769 0.0
C547 C 0.9601 -0.00124 0.01009 0.0
N548 N 0.92734 0.02985 0.953 0.0
N549 N 0.95275 0.98022 0.21514 0.0
C550 C 0.93161 0.01195 1.00583 0.0
C551 C 0.94452 0.98681 0.14168 0.0
N552 N 0.87885 0.01273 0.04026 0.0
N553 N 0.99124 0.96896 0.07677 0.0
H554 H 0.93803 0.98199 0.26449 0.0
H555 H 0.97486 0.97588 0.22981 0.0
H556 H 1.00672 0.96599 0.02912 0.0
H557 H 0.9952 0.95625 0.11941 0.0
H558 H 0.87254 0.01818 0.98477 0.0
H559 H 0.86071 0.00895 0.07559 0.0
H560 H 0.90798 0.042 0.95272 0.0
H561 H 0.94446 0.03504 0.9165 0.0
C562 C 0.50775 0.91305 0.026 0.0
C563 C 0.534 0.89607 0.02075 0.0
C564 C 0.55784 0.92521 0.93503 0.0
C565 C 0.53225 0.94306 0.94485 0.0
N566 N 0.48649 0.95801 0.01736 0.0
N567 N 0.58598 0.88856 0.983 0.0
C568 C 0.50836 0.93823 0.99596 0.0
C569 C 0.55972 0.90301 0.97917 0.0
N570 N 0.48161 0.9044 0.05497 0.0
N571 N 0.57987 0.92902 0.88173 0.0
H572 H 0.58848 0.87317 0.01813 0.0
H573 H 0.60591 0.89295 0.95643 0.0
H574 H 0.57982 0.94587 0.85193 0.0
H575 H 0.59732 0.91487 0.86379 0.0
H576 H 0.46106 0.91448 0.05127 0.0
H577 H 0.47971 0.88566 0.07522 0.0
H578 H 0.47003 0.95683 0.06072 0.0
H579 H 0.48682 0.97703 0.99857 0.0
C580 C 0.60001 0.51156 0.15586 0.0
C581 C 0.63083 0.5066 0.13606 0.0
C582 C 0.61619 0.49361 0.9896 0.0
C583 C 0.58604 0.50275 1.00818 0.0
N584 N 0.55122 0.52561 0.1119 0.0
N585 N 0.66857 0.49751 0.03043 0.0
C586 C 0.57839 0.51292 0.09222 0.0
C587 C 0.63898 0.49874 0.05191 0.0
N588 N 0.59117 0.51457 0.23578 0.0
N589 N 0.62313 0.47919 0.91285 0.0
H590 H 0.686 0.50162 0.0732 0.0
H591 H 0.6757 0.49503 0.96976 0.0
H592 H 0.60731 0.47424 0.86586 0.0
H593 H 0.6439 0.46952 0.89848 0.0
H594 H 0.56872 0.51538 0.25326 0.0
H595 H 0.6062 0.51332 0.28358 0.0
H596 H 0.54593 0.53608 0.17101 0.0
H597 H 0.53504 0.52837 0.06851 0.0
C598 C 1.00728 0.59048 0.17073 0.0
C599 C 1.00003 0.61666 0.15116 0.0
C600 C 0.98748 0.59356 0.01028 0.0
C601 C 1.00028 0.56843 0.02586 0.0
N602 N 0.02457 0.54332 0.12059 0.0
N603 N 0.98451 0.64373 0.05073 0.0
C604 C 1.01035 0.5668 0.10637 0.0
C605 C 0.99002 0.61836 0.07075 0.0
N606 N 1.01124 0.58834 0.25103 0.0
N607 N 0.97249 0.59356 0.93807 0.0
H608 H 0.98572 0.66239 0.09328 0.0
H609 H 0.98073 0.64644 0.99073 0.0
H610 H 0.96977 0.57557 0.8934 0.0
H611 H 0.96021 0.61059 0.92619 0.0
H612 H 1.01364 0.56939 0.27006 0.0
H613 H 1.00906 0.60544 0.29927 0.0
H614 H 0.03564 0.54223 0.17545 0.0
H615 H 0.02735 0.52548 0.07555 0.0
C616 C 0.92918 0.14933 0.45791 0.0
C617 C 0.94741 0.1704 0.50363 0.0
C618 C 0.95196 0.14458 0.61475 0.0
C619 C 0.93795 0.12155 0.56387 0.0
N620 N 0.91241 0.10152 0.43791 0.0
N621 N 0.97281 0.19029 0.62993 0.0
C622 C 0.92563 0.124 0.48634 0.0
C623 C 0.95733 0.16884 0.58373 0.0
N624 N 0.91569 0.15363 0.38703 0.0
N625 N 0.96153 0.14357 0.69236 0.0
H626 H 0.97689 0.20878 0.60981 0.0
H627 H 0.98105 0.18958 0.68864 0.0
H628 H 0.95836 0.12661 0.72078 0.0
H629 H 0.95836 0.12661 0.72078 0.0
H630 H 0.90015 0.14022 0.35364 0.0
H631 H 0.91823 0.17202 0.36505 0.0
H632 H 0.90608 0.10072 0.37699 0.0
H633 H 0.90891 0.08287 0.45758 0.0
C634 C 0.33734 0.8895 0.59164 0.0
C635 C 0.33508 0.87532 0.50915 0.0
C636 C 0.38335 0.85274 0.52102 0.0
C637 C 0.38943 0.87333 0.59124 0.0
N638 N 0.37031 0.90544 0.70858 0.0
N639 N 0.35173 0.83691 0.40457 0.0
C640 C 0.36536 0.8891 0.63323 0.0
C641 C 0.35613 0.8542 0.4782 0.0
N642 N 0.31325 0.90464 0.62669 0.0
N643 N 0.40505 0.83384 0.49026 0.0
H644 H 0.33212 0.83728 0.36981 0.0
H645 H 0.33212 0.83728 0.36981 0.0
H646 H 0.42554 0.83296 0.52085 0.0
H647 H 0.40194 0.81899 0.43656 0.0
H648 H 0.31259 0.91527 0.68736 0.0
H649 H 0.29294 0.90488 0.59494 0.0
H650 H 0.35474 0.91951 0.73991 0.0
H651 H 0.39035 0.90452 0.74076 0.0
C652 C 0.56148 0.38142 0.73844 0.0
C653 C 0.55937 0.37165 0.65256 0.0
C654 C 0.55673 0.41936 0.62879 0.0
C655 C 0.55797 0.42929 0.71511 0.0
N656 N 0.56908 0.42061 0.8505 0.0
N657 N 0.56386 0.38035 0.51542 0.0
C658 C 0.56308 0.4105 0.76933 0.0
C659 C 0.56028 0.39041 0.59761 0.0
N660 N 0.56026 0.36297 0.79039 0.0
N661 N 0.54954 0.43707 0.57702 0.0
H662 H 0.56612 0.35914 0.49101 0.0
H663 H 0.56747 0.39302 0.47286 0.0
H664 H 0.54631 0.4584 0.59671 0.0
H665 H 0.54455 0.43035 0.51494 0.0
H666 H 0.55784 0.36887 0.85377 0.0
H667 H 0.56021 0.34147 0.7694 0.0
H668 H 0.57567 0.40818 0.8919 0.0
H669 H 0.56986 0.44184 0.87511 0.0
C670 C 0.19876 0.48015 0.45347 0.0
C671 C 0.20128 0.45446 0.48128 0.0
C672 C 0.15854 0.4676 0.57211 0.0
C673 C 0.15766 0.49406 0.54902 0.0
N674 N 0.17998 0.52761 0.48012 0.0
N675 N 0.18646 0.42481 0.57327 0.0
C676 C 0.17864 0.50093 0.49316 0.0
C677 C 0.18194 0.44844 0.54233 0.0
N678 N 0.21508 0.48448 0.38771 0.0
N679 N 0.13652 0.46049 0.62056 0.0
H680 H 0.20294 0.41001 0.55088 0.0
H681 H 0.1753 0.42076 0.62449 0.0
H682 H 0.12013 0.47454 0.64795 0.0
H683 H 0.13338 0.44027 0.6294 0.0
H684 H 0.21144 0.50127 0.35867 0.0
H685 H 0.2306 0.4702 0.35721 0.0
H686 H 0.1971 0.53471 0.44746 0.0
H687 H 0.16548 0.54345 0.50822 0.0
C688 C 0.09747 0.87809 0.27278 0.0
C689 C 0.11065 0.85304 0.2288 0.0
C690 C 0.12796 0.8773 0.12242 0.0
C691 C 0.11433 0.90212 0.1657 0.0
N692 N 0.09346 0.92836 0.29072 0.0
N693 N 0.14438 0.82996 0.12418 0.0
C694 C 0.10167 0.90324 0.24417 0.0
C695 C 0.12795 0.85308 0.1576 0.0
N696 N 0.07938 0.87755 0.33864 0.0
N697 N 0.13966 0.87662 0.04614 0.0
H698 H 0.1447 0.81195 0.14902 0.0
H699 H 0.15961 0.82936 0.07663 0.0
H700 H 0.14109 0.89427 0.01999 0.0
H701 H 0.14659 0.85841 1.00701 0.0
H702 H 0.0664 0.89446 0.36708 0.0
H703 H 0.07554 0.85961 0.36177 0.0
H704 H 0.08679 0.93097 0.35178 0.0
H705 H 0.09608 0.94707 0.27057 0.0
C706 C 0.63877 0.94972 0.10411 0.0
C707 C 0.65242 0.94927 0.18113 0.0
C708 C 0.61324 0.98093 0.24963 0.0
C709 C 0.60352 0.98542 0.17206 0.0
N710 N 0.60815 0.97585 0.0241 0.0
N711 N 0.65466 0.96737 0.3283 0.0
C712 C 0.61621 0.96994 0.09864 0.0
C713 C 0.63987 0.96514 0.25472 0.0
N714 N 0.64831 0.93139 0.03603 0.0
N715 N 0.59742 0.99237 0.31837 0.0
H716 H 0.67477 0.95714 0.33596 0.0
H717 H 0.64827 0.98133 0.38121 0.0
H718 H 0.57806 0.00442 0.31589 0.0
H719 H 0.60182 0.98771 0.37603 0.0
H720 H 0.63883 0.93003 0.97789 0.0
H721 H 0.6644 0.91595 0.03936 0.0
H722 H 0.61969 0.9682 0.96997 0.0
H723 H 0.59129 0.99011 0.01682 0.0
C724 C 0.46854 0.62051 0.8833 0.0
C725 C 0.49291 0.63567 0.92452 0.0
C726 C 0.51892 0.59235 0.93689 0.0
C727 C 0.49479 0.57708 0.89475 0.0
N728 N 0.44898 0.57575 0.81585 0.0
N729 N 0.54387 0.63647 0.97608 0.0
C730 C 0.47027 0.59092 0.86418 0.0
C731 C 0.51904 0.62169 0.94587 0.0
N732 N 0.44346 0.63449 0.86471 0.0
N733 N 0.54069 0.579 0.97373 0.0
H734 H 0.54454 0.65811 0.98882 0.0
H735 H 0.56473 0.62727 0.98259 0.0
H736 H 0.54144 0.55754 0.969 0.0
H737 H 0.55668 0.58922 0.01441 0.0
H738 H 0.42343 0.62487 0.84369 0.0
H739 H 0.44231 0.65616 0.87372 0.0
H740 H 0.43214 0.58447 0.78474 0.0
H741 H 0.44948 0.55406 0.80142 0.0
C742 C 0.90509 0.56738 0.21746 0.0
C743 C 0.88494 0.56225 0.27779 0.0
C744 C 0.91447 0.52106 0.29392 0.0
C745 C 0.93032 0.523 0.2222 0.0
N746 N 0.93997 0.54706 0.1112 0.0
N747 N 0.8687 0.53251 0.36965 0.0
C748 C 0.92596 0.54624 0.18358 0.0
C749 C 0.88951 0.53899 0.3166 0.0
N750 N 0.90365 0.59214 0.19146 0.0
N751 N 0.92287 0.50165 0.33897 0.0
H752 H 0.85012 0.54499 0.38946 0.0
H753 H 0.86877 0.51362 0.38958 0.0
H754 H 0.94107 0.48812 0.32269 0.0
H755 H 0.91373 0.50083 0.39605 0.0
H756 H 0.91948 0.59813 0.15261 0.0
H757 H 0.88819 0.60774 0.21554 0.0
H758 H 0.93485 0.56174 0.07529 0.0
H759 H 0.9553 0.53187 0.08403 0.0
C760 C 0.03596 0.1275 0.01293 0.0
C761 C 0.03709 0.14589 0.95642 0.0
C762 C 0.03324 0.10608 0.84114 0.0
C763 C 0.03476 0.08767 0.89765 0.0
N764 N 0.04112 0.08048 0.03678 0.0
N765 N 0.0401 0.15302 0.81726 0.0
C766 C 0.03746 0.09829 0.98329 0.0
C767 C 0.0366 0.13526 0.87053 0.0
N768 N 0.0315 0.1379 0.09477 0.0
N769 N 0.02824 0.09569 0.75955 0.0
H770 H 0.04248 0.17444 0.83703 0.0
H771 H 0.04287 0.1465 0.75419 0.0
H772 H 0.02736 0.07445 0.73512 0.0
H773 H 0.02321 0.10805 0.71668 0.0
H774 H 0.02687 0.12554 0.13746 0.0
H775 H 0.02955 0.15908 0.11954 0.0
H776 H 0.04722 0.08698 0.0982 0.0
H777 H 0.04003 0.05892 0.01903 0.0
C778 C 0.38845 0.02637 0.98932 0.0
C779 C 0.37819 0.00038 1.0039 0.0
C780 C 0.41963 0.97684 0.91715 0.0
C781 C 0.43177 0.00303 0.91016 0.0
N782 N 0.42867 0.05305 0.9449 0.0
N783 N 0.387 0.95111 0.99146 0.0
C784 C 0.4164 0.02787 0.94794 0.0
C785 C 0.39447 0.97566 0.96977 0.0
N786 N 0.3709 0.04959 0.01273 0.0
N787 N 0.43219 0.9529 0.87381 0.0
H788 H 0.3691 0.94929 0.03005 0.0
H789 H 0.40004 0.93305 0.97733 0.0
H790 H 0.4512 0.9526 0.83764 0.0
H791 H 0.42244 0.93344 0.86845 0.0
H792 H 0.37522 0.06866 0.99673 0.0
H793 H 0.35041 0.04924 0.04243 0.0
H794 H 0.42093 0.07181 0.97956 0.0
H795 H 0.44775 0.05514 0.91077 0.0
C796 C 0.48701 0.3325 0.16247 0.0
C797 C 0.47619 0.3066 0.11877 0.0
C798 C 0.45925 0.32893 1.0058 0.0
C799 C 0.47158 0.35441 0.04766 0.0
N800 N 0.50172 0.37963 0.15813 0.0
N801 N 0.45568 0.27887 0.99543 0.0
C802 C 0.48681 0.35593 0.12377 0.0
C803 C 0.46337 0.30443 0.03926 0.0
N804 N 0.49662 0.33493 0.24214 0.0
N805 N 0.44293 0.3284 0.93535 0.0
H806 H 0.45788 0.26071 0.01915 0.0
H807 H 0.44909 0.27528 0.93397 0.0
H808 H 0.44014 0.34578 0.90825 0.0
H809 H 0.43061 0.31134 0.90638 0.0
H810 H 0.50126 0.35389 0.28048 0.0
H811 H 0.49784 0.31824 0.27262 0.0
H812 H 0.51613 0.38101 0.20845 0.0
H813 H 0.50172 0.39741 0.13232 0.0
C814 C 0.14185 0.50918 0.04718 0.0
C815 C 0.16626 0.49597 0.99902 0.0
C816 C 0.13091 0.48375 0.88197 0.0
C817 C 0.10749 0.49968 0.9271 0.0
N818 N 0.09442 0.53405 0.0469 0.0
N819 N 0.18454 0.47754 0.86237 0.0
C820 C 0.1141 0.51434 1.00804 0.0
C821 C 0.16091 0.4854 0.91388 0.0
N822 N 0.14428 0.51555 0.13083 0.0
N823 N 0.12447 0.46552 0.81093 0.0
H824 H 0.20681 0.47961 0.88228 0.0
H825 H 0.18199 0.472 0.79874 0.0
H826 H 0.10282 0.46258 0.78676 0.0
H827 H 0.14018 0.45107 0.7816 0.0
H828 H 0.12616 0.52269 0.16877 0.0
H829 H 0.1633 0.51087 0.16274 0.0
H830 H 0.09922 0.54698 0.1031 0.0
H831 H 0.07502 0.53973 0.01835 0.0
C832 C 0.02764 0.87571 0.64706 0.0
C833 C 1.0106 0.85875 0.68969 0.0
C834 C 0.99821 0.89985 0.79558 0.0
C835 C 1.01587 0.91648 0.75329 0.0
N836 N 0.04943 0.91984 0.64178 0.0
N837 N 0.98302 0.85343 0.80954 0.0
C838 C 0.03111 0.90425 0.68023 0.0
C839 C 0.99685 0.87048 0.76561 0.0
N840 N 0.0414 0.86518 0.57433 0.0
N841 N 0.98161 0.91233 0.86184 0.0
H842 H 0.98096 0.83207 0.78795 0.0
H843 H 0.97527 0.85995 0.86926 0.0
H844 H 0.98203 0.93367 0.88527 0.0
H845 H 0.96586 0.90204 0.8905 0.0
H846 H 0.04047 0.84446 0.544 0.0
H847 H 0.04047 0.84446 0.544 0.0
H848 H 0.06075 0.91159 0.58746 0.0
H849 H 0.05417 0.94065 0.66526 0.0
C850 C 0.65277 0.02929 0.67365 0.0
C851 C 0.66514 0.00412 0.62828 0.0
C852 C 0.62181 0.97913 0.66971 0.0
C853 C 0.60731 0.00469 0.70606 0.0
N854 N 0.60799 0.05507 0.72561 0.0
N855 N 0.65709 0.95589 0.56776 0.0
C856 C 0.62258 0.03006 0.70369 0.0
C857 C 0.64837 0.9793 0.62192 0.0
N858 N 0.67009 0.05252 0.69006 0.0
N859 N 0.61131 0.95446 0.68397 0.0
H860 H 0.67577 0.9552 0.52995 0.0
H861 H 0.64396 0.93813 0.55421 0.0
H862 H 0.59327 0.95313 0.72234 0.0
H863 H 0.62275 0.93561 0.66573 0.0
H864 H 0.66359 0.07065 0.73036 0.0
H865 H 0.69215 0.05278 0.66973 0.0
H866 H 0.61692 0.07373 0.71618 0.0
H867 H 0.58574 0.05715 0.74444 0.0
C868 C 0.56021 0.7057 0.57007 0.0
C869 C 0.5517 0.70057 0.48593 0.0
C870 C 0.55028 0.65036 0.48401 0.0
C871 C 0.55732 0.65559 0.56915 0.0
N872 N 0.56473 0.68797 0.69677 0.0
N873 N 0.53348 0.66893 0.36592 0.0
C874 C 0.56101 0.68323 0.61331 0.0
C875 C 0.54525 0.67313 0.44379 0.0
N876 N 0.56831 0.73192 0.60781 0.0
N877 N 0.54921 0.62356 0.44108 0.0
H878 H 0.52985 0.68494 0.33358 0.0
H879 H 0.52505 0.64997 0.33548 0.0
H880 H 0.55171 0.60628 0.46878 0.0
H881 H 0.54791 0.61833 0.37726 0.0
H882 H 0.5778 0.73664 0.66633 0.0
H883 H 0.56738 0.74885 0.57819 0.0
H884 H 0.56443 0.70769 0.73397 0.0
H885 H 0.56594 0.67196 0.72999 0.0
C886 C 0.90025 0.51897 0.62122 0.0
C887 C 0.87471 0.50863 0.65589 0.0
C888 C 0.90681 0.50065 0.77196 0.0
C889 C 0.93293 0.50768 0.73168 0.0
N890 N 0.95428 0.51721 0.60676 0.0
N891 N 0.85484 0.48569 0.75939 0.0
C892 C 0.92956 0.51513 0.65322 0.0
C893 C 0.87835 0.49835 0.72999 0.0
N894 N 0.8965 0.53359 0.55959 0.0
N895 N 0.90879 0.49741 0.85183 0.0
H896 H 0.83387 0.48363 0.73054 0.0
H897 H 0.85689 0.47515 0.808 0.0
H898 H 0.92875 0.49988 0.88558 0.0
H899 H 0.89014 0.49506 0.88715 0.0
H900 H 0.91395 0.54388 0.53716 0.0
H901 H 0.87541 0.53803 0.53728 0.0
H902 H 0.95291 0.51979 0.54593 0.0
H903 H 0.97601 0.51321 0.6254 0.0
loop_
_geom_bond_atom_site_label_1
_geom_bond_atom_site_label_2
_geom_bond_distance
_geom_bond_site_symmetry_2
_ccdc_geom_bond_type
C0 C1 1.386 . S
C0 C2 1.397 . S
C0 H24 0.931 . S
C1 C0 1.386 . S
C1 C5 1.397 . S
C2 C0 1.397 . S
C2 C3 1.384 . S
C2 H25 0.930 . S
C3 C2 1.384 . S
C3 C4 1.377 . S
C3 C6 1.481 . S
C4 C3 1.377 . S
C4 C5 1.389 . S
C4 H26 0.929 . S
C5 C1 1.397 . S
C5 C4 1.389 . S
C5 H27 0.931 . S
C6 C3 1.481 . S
C6 C7 1.387 . S
C6 C11 1.390 . S
C7 C6 1.387 . S
C7 C8 1.401 . S
C7 H28 0.930 . S
C8 C7 1.401 . S
C8 C9 1.376 . S
C8 C17 1.511 . S
C9 C8 1.376 . S
C9 C10 1.392 . S
C9 H30 0.931 . S
C10 C9 1.392 . S
C10 C11 1.361 . S
C10 C12 1.500 . S
C11 C6 1.390 . S
C11 C10 1.361 . S
C11 H29 0.931 . S
C12 C10 1.500 . S
C12 C13 1.371 . S
C12 C14 1.365 . S
C13 C12 1.371 . S
C13 C23 1.386 . S
C13 H31 0.931 . S
C14 C12 1.365 . S
C14 C15 1.409 . S
C14 H32 0.929 . S
C15 C14 1.409 . S
C15 C16 1.380 . S
C15 H33 0.930 . S
C16 C15 1.380 . S
C16 C23 1.357 . S
C17 C8 1.511 . S
C17 C18 1.341 . S
C17 C19 1.371 . S
C18 C17 1.341 . S
C18 C22 1.394 . S
C18 H34 0.930 . S
C19 C17 1.371 . S
C19 C20 1.392 . S
C19 H35 0.931 . S
C20 C19 1.392 . S
C20 C21 1.331 . S
C20 H38 0.932 . S
C21 C20 1.331 . S
C21 C22 1.336 . S
C22 C18 1.394 . S
C22 C21 1.336 . S
C22 H37 0.929 . S
C23 C13 1.386 . S
C23 C16 1.357 . S
C23 H36 0.928 . S
H24 C0 0.931 . S
H25 C2 0.930 . S
H26 C4 0.929 . S
H27 C5 0.931 . S
H28 C7 0.930 . S
H29 C11 0.931 . S
H30 C9 0.931 . S
H31 C13 0.931 . S
H32 C14 0.929 . S
H33 C15 0.930 . S
H34 C18 0.930 . S
H35 C19 0.931 . S
H36 C23 0.928 . S
H37 C22 0.929 . S
H38 C20 0.932 . S
C39 C40 1.395 . S
C39 C41 1.397 . S
C39 H63 0.931 . S
C40 C39 1.395 . S
C40 C44 1.389 1_655 S
C41 C39 1.397 . S
C41 C42 1.389 . S
C41 H64 0.930 . S
C42 C41 1.389 . S
C42 C43 1.372 1_655 S
C42 C45 1.480 . S
C43 C42 1.372 1_455 S
C43 C44 1.389 . S
C43 H65 0.929 . S
C44 C40 1.389 1_455 S
C44 C43 1.389 . S
C44 H66 0.931 . S
C45 C42 1.480 . S
C45 C46 1.389 . S
C45 C50 1.390 . S
C46 C45 1.389 . S
C46 C47 1.402 . S
C46 H67 0.930 . S
C47 C46 1.402 . S
C47 C48 1.377 . S
C47 C56 1.513 . S
C48 C47 1.377 . S
C48 C49 1.392 . S
C48 H69 0.931 . S
C49 C48 1.392 . S
C49 C50 1.361 . S
C49 C51 1.499 1_655 S
C50 C45 1.390 . S
C50 C49 1.361 . S
C50 H68 0.931 . S
C51 C49 1.499 1_455 S
C51 C52 1.361 1_455 S
C51 C53 1.376 . S
C52 C51 1.361 1_655 S
C52 C62 1.386 . S
C52 H70 0.931 . S
C53 C51 1.376 . S
C53 C54 1.409 . S
C53 H71 0.929 . S
C54 C53 1.409 . S
C54 C55 1.380 . S
C54 H72 0.930 . S
C55 C54 1.380 . S
C55 C62 1.357 1_455 S
C56 C47 1.513 . S
C56 C57 1.341 . S
C56 C58 1.371 1_655 S
C57 C56 1.341 . S
C57 C61 1.394 . S
C57 H73 0.930 . S
C58 C56 1.371 1_455 S
C58 C59 1.392 . S
C58 H74 0.931 . S
C59 C58 1.392 . S
C59 C60 1.322 1_455 S
C59 H77 0.932 . S
C60 C59 1.322 1_655 S
C60 C61 1.345 . S
C61 C57 1.394 . S
C61 C60 1.345 . S
C61 H76 0.929 . S
C62 C52 1.386 . S
C62 C55 1.357 1_655 S
C62 H75 0.928 . S
H63 C39 0.931 . S
H64 C41 0.930 . S
H65 C43 0.929 . S
H66 C44 0.931 . S
H67 C46 0.930 . S
H68 C50 0.931 . S
H69 C48 0.931 . S
H70 C52 0.931 . S
H71 C53 0.929 . S
H72 C54 0.930 . S
H73 C57 0.930 . S
H74 C58 0.931 . S
H75 C62 0.928 . S
H76 C61 0.929 . S
H77 C59 0.932 . S
C78 C79 1.394 . S
C78 C80 1.397 . S
C78 H102 0.931 . S
C79 C78 1.394 . S
C79 C83 1.391 1_565 S
C80 C78 1.397 . S
C80 C81 1.388 . S
C80 H103 0.930 . S
C81 C80 1.388 . S
C81 C82 1.373 1_565 S
C81 C84 1.477 . S
C82 C81 1.373 1_545 S
C82 C83 1.389 . S
C82 H104 0.929 . S
C83 C79 1.391 1_545 S
C83 C82 1.389 . S
C83 H105 0.931 . S
C84 C81 1.477 . S
C84 C85 1.386 . S
C84 C89 1.394 . S
C85 C84 1.386 . S
C85 C86 1.398 . S
C85 H106 0.930 . S
C86 C85 1.398 . S
C86 C87 1.383 . S
C86 C95 1.511 . S
C87 C86 1.383 . S
C87 C88 1.392 . S
C87 H108 0.931 . S
C88 C87 1.392 . S
C88 C89 1.362 . S
C88 C90 1.504 1_565 S
C89 C84 1.394 . S
C89 C88 1.362 . S
C89 H107 0.931 . S
C90 C88 1.504 1_545 S
C90 C91 1.358 1_545 S
C90 C92 1.374 . S
C91 C90 1.358 1_565 S
C91 C101 1.386 . S
C91 H109 0.931 . S
C92 C90 1.374 . S
C92 C93 1.409 . S
C92 H110 0.929 . S
C93 C92 1.409 . S
C93 C94 1.380 . S
C93 H111 0.930 . S
C94 C93 1.380 . S
C94 C101 1.357 1_545 S
C95 C86 1.511 . S
C95 C96 1.341 . S
C95 C97 1.371 1_565 S
C96 C95 1.341 . S
C96 C100 1.394 . S
C96 H112 0.930 . S
C97 C95 1.371 1_545 S
C97 C98 1.392 . S
C97 H113 0.931 . S
C98 C97 1.392 . S
C98 C99 1.328 1_545 S
C98 H116 0.932 . S
C99 C98 1.328 1_565 S
C99 C100 1.342 . S
C100 C96 1.394 . S
C100 C99 1.342 . S
C100 H115 0.929 . S
C101 C91 1.386 . S
C101 C94 1.357 1_565 S
C101 H114 0.928 . S
H102 C78 0.931 . S
H103 C80 0.930 . S
H104 C82 0.929 . S
H105 C83 0.931 . S
H106 C85 0.930 . S
H107 C89 0.931 . S
H108 C87 0.931 . S
H109 C91 0.931 . S
H110 C92 0.929 . S
H111 C93 0.930 . S
H112 C96 0.930 . S
H113 C97 0.931 . S
H114 C101 0.928 . S
H115 C100 0.929 . S
H116 C98 0.932 . S
C117 C118 1.386 . S
C117 C119 1.397 . S
C117 H141 0.931 . S
C118 C117 1.386 . S
C118 C122 1.397 . S
C119 C117 1.397 . S
C119 C120 1.384 . S
C119 H142 0.930 . S
C120 C119 1.384 . S
C120 C121 1.377 . S
C120 C123 1.481 . S
C121 C120 1.377 . S
C121 C122 1.389 . S
C121 H143 0.929 . S
C122 C118 1.397 . S
C122 C121 1.389 . S
C122 H144 0.931 . S
C123 C120 1.481 . S
C123 C124 1.387 . S
C123 C128 1.390 . S
C124 C123 1.387 . S
C124 C125 1.401 1_554 S
C124 H145 0.930 . S
C125 C124 1.401 1_556 S
C125 C126 1.376 . S
C125 C134 1.511 . S
C126 C125 1.376 . S
C126 C127 1.392 . S
C126 H147 0.931 . S
C127 C126 1.392 . S
C127 C128 1.361 1_556 S
C127 C129 1.500 . S
C128 C123 1.390 . S
C128 C127 1.361 1_554 S
C128 H146 0.931 . S
C129 C127 1.500 . S
C129 C130 1.371 . S
C129 C131 1.365 . S
C130 C129 1.371 . S
C130 C140 1.386 . S
C130 H148 0.931 . S
C131 C129 1.365 . S
C131 C132 1.409 . S
C131 H149 0.929 . S
C132 C131 1.409 . S
C132 C133 1.380 . S
C132 H150 0.930 . S
C133 C132 1.380 . S
C133 C140 1.357 . S
C134 C125 1.511 . S
C134 C135 1.341 1_556 S
C134 C136 1.371 . S
C135 C134 1.341 1_554 S
C135 C139 1.394 . S
C135 H151 0.930 . S
C136 C134 1.371 . S
C136 C137 1.392 . S
C136 H152 0.931 . S
C137 C136 1.392 . S
C137 C138 1.331 . S
C137 H155 0.932 . S
C138 C137 1.331 . S
C138 C139 1.336 1_556 S
C139 C135 1.394 . S
C139 C138 1.336 1_554 S
C139 H154 0.929 . S
C140 C130 1.386 . S
C140 C133 1.357 . S
C140 H153 0.928 . S
H141 C117 0.931 . S
H142 C119 0.930 . S
H143 C121 0.929 . S
H144 C122 0.931 . S
H145 C124 0.930 . S
H146 C128 0.931 . S
H147 C126 0.931 . S
H148 C130 0.931 . S
H149 C131 0.929 . S
H150 C132 0.930 . S
H151 C135 0.930 . S
H152 C136 0.931 . S
H153 C140 0.928 . S
H154 C139 0.929 . S
H155 C137 0.932 . S
C156 C157 1.386 . S
C156 C158 1.397 . S
C156 H180 0.931 . S
C157 C156 1.386 . S
C157 C161 1.397 . S
C158 C156 1.397 . S
C158 C159 1.384 . S
C158 H181 0.930 . S
C159 C158 1.384 . S
C159 C160 1.377 . S
C159 C162 1.481 . S
C160 C159 1.377 . S
C160 C161 1.389 . S
C160 H182 0.929 . S
C161 C157 1.397 . S
C161 C160 1.389 . S
C161 H183 0.931 . S
C162 C159 1.481 . S
C162 C163 1.387 . S
C162 C167 1.390 . S
C163 C162 1.387 . S
C163 C164 1.401 . S
C163 H184 0.930 . S
C164 C163 1.401 . S
C164 C165 1.376 . S
C164 C173 1.511 . S
C165 C164 1.376 . S
C165 C166 1.392 . S
C165 H186 0.931 . S
C166 C165 1.392 . S
C166 C167 1.361 . S
C166 C168 1.500 . S
C167 C162 1.390 . S
C167 C166 1.361 . S
C167 H185 0.931 . S
C168 C166 1.500 . S
C168 C169 1.371 1_554 S
C168 C170 1.365 1_554 S
C169 C168 1.371 1_556 S
C169 C179 1.386 . S
C169 H187 0.931 . S
C170 C168 1.365 1_556 S
C170 C171 1.409 . S
C170 H188 0.929 1_556 S
C171 C170 1.409 . S
C171 C172 1.380 . S
C171 H189 0.930 . S
C172 C171 1.380 . S
C172 C179 1.357 . S
C173 C164 1.511 . S
C173 C174 1.341 . S
C173 C175 1.371 . S
C174 C173 1.341 . S
C174 C178 1.394 . S
C174 H190 0.930 . S
C175 C173 1.371 . S
C175 C176 1.392 . S
C175 H191 0.931 . S
C176 C175 1.392 . S
C176 C177 1.331 . S
C176 H194 0.932 . S
C177 C176 1.331 . S
C177 C178 1.336 . S
C178 C174 1.394 . S
C178 C177 1.336 . S
C178 H193 0.929 . S
C179 C169 1.386 . S
C179 C172 1.357 . S
C179 H192 0.928 . S
H180 C156 0.931 . S
H181 C158 0.930 . S
H182 C160 0.929 . S
H183 C161 0.931 . S
H184 C163 0.930 . S
H185 C167 0.931 . S
H186 C165 0.931 . S
H187 C169 0.931 . S
H188 C170 0.929 1_554 S
H189 C171 0.930 . S
H190 C174 0.930 . S
H191 C175 0.931 . S
H192 C179 0.928 . S
H193 C178 0.929 . S
H194 C176 0.932 . S
C195 C196 1.389 . S
C195 C197 1.397 . S
C195 H219 0.931 . S
C196 C195 1.389 . S
C196 C200 1.394 1_655 S
C197 C195 1.397 . S
C197 C198 1.383 . S
C197 H220 0.930 . S
C198 C197 1.383 . S
C198 C199 1.378 1_655 S
C198 C201 1.481 . S
C199 C198 1.378 1_455 S
C199 C200 1.389 . S
C199 H221 0.929 . S
C200 C196 1.394 1_455 S
C200 C199 1.389 . S
C200 H222 0.931 . S
C201 C198 1.481 . S
C201 C202 1.388 . S
C201 C206 1.390 . S
C202 C201 1.388 . S
C202 C203 1.402 . S
C202 H223 0.930 . S
C203 C202 1.402 . S
C203 C204 1.376 . S
C203 C212 1.512 . S
C204 C203 1.376 . S
C204 C205 1.392 1_655 S
C204 H225 0.933 . S
C205 C204 1.392 1_455 S
C205 C206 1.361 1_455 S
C205 C207 1.499 . S
C206 C201 1.390 . S
C206 C205 1.361 1_655 S
C206 H224 0.931 . S
C207 C205 1.499 . S
C207 C208 1.357 1_455 S
C207 C209 1.380 . S
C208 C207 1.357 1_655 S
C208 C218 1.386 1_554 S
C208 H226 0.931 . S
C209 C207 1.380 . S
C209 C210 1.409 1_554 S
C209 H227 0.929 . S
C210 C209 1.409 1_556 S
C210 C211 1.384 . S
C210 H228 0.930 . S
C211 C210 1.384 . S
C211 C218 1.353 1_455 S
C212 C203 1.512 . S
C212 C213 1.341 . S
C212 C214 1.371 1_655 S
C213 C212 1.341 . S
C213 C217 1.394 . S
C213 H229 0.930 . S
C214 C212 1.371 1_455 S
C214 C215 1.392 . S
C214 H230 0.931 . S
C215 C214 1.392 . S
C215 C216 1.325 1_455 S
C215 H233 0.932 . S
C216 C215 1.325 1_655 S
C216 C217 1.343 . S
C217 C213 1.394 . S
C217 C216 1.343 . S
C217 H232 0.929 . S
C218 C208 1.386 1_556 S
C218 C211 1.353 1_655 S
C218 H231 0.928 . S
H219 C195 0.931 . S
H220 C197 0.930 . S
H221 C199 0.929 . S
H222 C200 0.931 . S
H223 C202 0.930 . S
H224 C206 0.931 . S
H225 C204 0.933 . S
H226 C208 0.931 . S
H227 C209 0.929 . S
H228 C210 0.930 . S
H229 C213 0.930 . S
H230 C214 0.931 . S
H231 C218 0.928 . S
H232 C217 0.929 . S
H233 C215 0.932 . S
C234 C235 1.389 . S
C234 C236 1.397 . S
C234 H258 0.931 . S
C235 C234 1.389 . S
C235 C239 1.394 1_565 S
C236 C234 1.397 . S
C236 C237 1.383 . S
C236 H259 0.930 . S
C237 C236 1.383 . S
C237 C238 1.378 1_565 S
C237 C240 1.484 . S
C238 C237 1.378 1_545 S
C238 C239 1.389 . S
C238 H260 0.929 . S
C239 C235 1.394 1_545 S
C239 C238 1.389 . S
C239 H261 0.931 . S
C240 C237 1.484 . S
C240 C241 1.389 . S
C240 C245 1.386 . S
C241 C240 1.389 . S
C241 C242 1.405 . S
C241 H262 0.930 . S
C242 C241 1.405 . S
C242 C243 1.379 . S
C242 C251 1.514 . S
C243 C242 1.379 . S
C243 C244 1.390 1_565 S
C243 H264 0.928 . S
C244 C243 1.390 1_545 S
C244 C245 1.361 1_545 S
C244 C246 1.492 . S
C245 C240 1.386 . S
C245 C244 1.361 1_565 S
C245 H263 0.930 . S
C246 C244 1.492 . S
C246 C247 1.361 1_544 S
C246 C248 1.383 . S
C247 C246 1.361 1_566 S
C247 C257 1.386 . S
C247 H265 0.931 . S
C248 C246 1.383 . S
C248 C249 1.409 1_554 S
C248 H266 0.929 . S
C249 C248 1.409 1_556 S
C249 C250 1.383 . S
C249 H267 0.930 . S
C250 C249 1.383 . S
C250 C257 1.353 1_545 S
C251 C242 1.514 . S
C251 C252 1.341 . S
C251 C253 1.371 1_565 S
C252 C251 1.341 . S
C252 C256 1.394 . S
C252 H268 0.930 . S
C253 C251 1.371 1_545 S
C253 C254 1.392 . S
C253 H269 0.931 . S
C254 C253 1.392 . S
C254 C255 1.321 1_545 S
C254 H272 0.932 . S
C255 C254 1.321 1_565 S
C255 C256 1.345 . S
C256 C252 1.394 . S
C256 C255 1.345 . S
C256 H271 0.929 . S
C257 C247 1.386 . S
C257 C250 1.353 1_565 S
C257 H270 0.928 . S
H258 C234 0.931 . S
H259 C236 0.930 . S
H260 C238 0.929 . S
H261 C239 0.931 . S
H262 C241 0.930 . S
H263 C245 0.930 . S
H264 C243 0.928 . S
H265 C247 0.931 . S
H266 C248 0.929 . S
H267 C249 0.930 . S
H268 C252 0.930 . S
H269 C253 0.931 . S
H270 C257 0.928 . S
H271 C256 0.929 . S
H272 C254 0.932 . S
C273 C274 1.386 . S
C273 C275 1.397 . S
C273 H297 0.931 . S
C274 C273 1.386 . S
C274 C278 1.397 . S
C275 C273 1.397 . S
C275 C276 1.384 . S
C275 H298 0.930 . S
C276 C275 1.384 . S
C276 C277 1.377 . S
C276 C279 1.481 . S
C277 C276 1.377 . S
C277 C278 1.389 . S
C277 H299 0.929 . S
C278 C274 1.397 . S
C278 C277 1.389 . S
C278 H300 0.931 . S
C279 C276 1.481 . S
C279 C280 1.387 . S
C279 C284 1.390 . S
C280 C279 1.387 . S
C280 C281 1.401 . S
C280 H301 0.930 . S
C281 C280 1.401 . S
C281 C282 1.376 . S
C281 C290 1.511 . S
C282 C281 1.376 . S
C282 C283 1.392 . S
C282 H303 0.931 . S
C283 C282 1.392 . S
C283 C284 1.361 . S
C283 C285 1.500 . S
C284 C279 1.390 . S
C284 C283 1.361 . S
C284 H302 0.931 . S
C285 C283 1.500 . S
C285 C286 1.371 . S
C285 C287 1.365 . S
C286 C285 1.371 . S
C286 C296 1.386 . S
C286 H304 0.931 . S
C287 C285 1.365 . S
C287 C288 1.409 . S
C287 H305 0.929 . S
C288 C287 1.409 . S
C288 C289 1.380 . S
C288 H306 0.930 . S
C289 C288 1.380 . S
C289 C296 1.357 . S
C290 C281 1.511 . S
C290 C291 1.341 . S
C290 C292 1.371 . S
C291 C290 1.341 . S
C291 C295 1.394 . S
C291 H307 0.930 . S
C292 C290 1.371 . S
C292 C293 1.392 . S
C292 H308 0.931 . S
C293 C292 1.392 . S
C293 C294 1.331 . S
C293 H311 0.932 . S
C294 C293 1.331 . S
C294 C295 1.336 . S
C295 C291 1.394 . S
C295 C294 1.336 . S
C295 H310 0.929 . S
C296 C286 1.386 . S
C296 C289 1.357 . S
C296 H309 0.928 . S
H297 C273 0.931 . S
H298 C275 0.930 . S
H299 C277 0.929 . S
H300 C278 0.931 . S
H301 C280 0.930 . S
H302 C284 0.931 . S
H303 C282 0.931 . S
H304 C286 0.931 . S
H305 C287 0.929 . S
H306 C288 0.930 . S
H307 C291 0.930 . S
H308 C292 0.931 . S
H309 C296 0.928 . S
H310 C295 0.929 . S
H311 C293 0.932 . S
Tb312 C321 2.764 . S
Tb312 O322 2.325 . S
Tb312 O325 2.303 1_655 S
Tb312 O329 2.322 1_545 S
Tb312 O330 2.349 . S
Tb312 O333 2.415 . S
Tb312 O334 2.399 . S
Tb313 O323 2.322 1_565 S
Tb313 O324 2.349 . S
Tb313 O326 2.415 . S
Tb313 O327 2.399 . S
Tb313 O328 2.325 . S
Tb313 O331 2.303 1_455 S
Tb313 C342 2.764 . S
C314 O330 1.261 . S
C314 O331 1.257 1_545 S
C315 C318 1.358 . S
C315 C319 1.332 . S
C315 C321 1.504 . S
C316 C317 1.373 . S
C316 C320 1.308 . S
C317 C316 1.373 . S
C317 C318 1.429 . S
C317 H344 0.932 . S
C318 C315 1.358 . S
C318 C317 1.429 . S
C318 H345 0.930 . S
C319 C315 1.332 . S
C319 C320 1.394 . S
C319 H346 0.932 1_655 S
C320 C316 1.308 . S
C320 C319 1.394 . S
C320 H347 0.929 . S
C321 Tb312 2.764 . S
C321 C315 1.504 . S
C321 O333 1.239 . S
C321 O334 1.263 . S
O322 Tb312 2.325 . S
O322 C332 1.236 1_655 S
O323 Tb313 2.322 1_545 S
O323 C332 1.257 . S
O324 Tb313 2.349 . S
O324 C335 1.261 . S
O325 Tb312 2.303 1_455 S
O325 C335 1.257 1_545 S
O326 Tb313 2.415 . S
O326 C342 1.239 . S
O327 Tb313 2.399 . S
O327 C342 1.263 . S
O328 Tb313 2.325 . S
O328 C343 1.236 1_455 S
O329 Tb312 2.322 1_565 S
O329 C343 1.257 . S
O330 Tb312 2.349 . S
O330 C314 1.261 . S
O331 Tb313 2.303 1_655 S
O331 C314 1.257 1_565 S
C332 O322 1.236 1_455 S
C332 O323 1.257 . S
O333 Tb312 2.415 . S
O333 C321 1.239 . S
O334 Tb312 2.399 . S
O334 C321 1.263 . S
C335 O324 1.261 . S
C335 O325 1.257 1_565 S
C336 C339 1.358 1_556 S
C336 C340 1.332 1_556 S
C336 C342 1.504 . S
C337 C338 1.373 . S
C337 C341 1.308 . S
C338 C337 1.373 . S
C338 C339 1.429 . S
C338 H348 0.932 . S
C339 C336 1.358 1_554 S
C339 C338 1.429 . S
C339 H349 0.930 1_554 S
C340 C336 1.332 1_554 S
C340 C341 1.394 . S
C340 H350 0.893 1_455 S
C341 C337 1.308 . S
C341 C340 1.394 . S
C341 H351 0.929 . S
C342 Tb313 2.764 . S
C342 O326 1.239 . S
C342 O327 1.263 . S
C342 C336 1.504 . S
C343 O328 1.236 1_655 S
C343 O329 1.257 . S
H344 C317 0.932 . S
H345 C318 0.930 . S
H346 C319 0.932 1_455 S
H347 C320 0.929 . S
H348 C338 0.932 . S
H349 C339 0.930 1_556 S
H350 C340 0.893 1_655 S
H351 C341 0.929 . S
Tb352 C361 2.764 . S
Tb352 O362 2.325 . S
Tb352 O365 2.303 1_565 S
Tb352 O369 2.322 . S
Tb352 O370 2.349 . S
Tb352 O373 2.415 1_565 S
Tb352 O374 2.399 . S
Tb353 O363 2.322 . S
Tb353 O364 2.349 . S
Tb353 O366 2.415 1_545 S
Tb353 O367 2.399 . S
Tb353 O368 2.325 . S
Tb353 O371 2.303 1_545 S
Tb353 C382 2.764 1_556 S
C354 O370 1.261 . S
C354 O371 1.257 . S
C355 C358 1.358 . S
C355 C359 1.307 1_565 S
C355 C361 1.504 . S
C356 C357 1.373 . S
C356 C360 1.308 . S
C357 C356 1.373 . S
C357 C358 1.429 . S
C357 H384 0.932 . S
C358 C355 1.358 . S
C358 C357 1.429 . S
C358 H385 0.930 . S
C359 C355 1.307 1_545 S
C359 C360 1.395 1_545 S
C359 H386 0.957 . S
C360 C356 1.308 . S
C360 C359 1.395 1_565 S
C360 H387 0.929 1_565 S
C361 Tb352 2.764 . S
C361 C355 1.504 . S
C361 O373 1.239 1_565 S
C361 O374 1.263 . S
O362 Tb352 2.325 . S
O362 C372 1.236 1_565 S
O363 Tb353 2.322 . S
O363 C372 1.257 . S
O364 Tb353 2.349 . S
O364 C375 1.261 . S
O365 Tb352 2.303 1_545 S
O365 C375 1.257 . S
O366 Tb353 2.415 1_565 S
O366 C382 1.239 1_566 S
O367 Tb353 2.399 . S
O367 C382 1.263 1_556 S
O368 Tb353 2.325 . S
O368 C383 1.236 1_545 S
O369 Tb352 2.322 . S
O369 C383 1.257 . S
O370 Tb352 2.349 . S
O370 C354 1.261 . S
O371 Tb353 2.303 1_565 S
O371 C354 1.257 . S
C372 O362 1.236 1_545 S
C372 O363 1.257 . S
O373 Tb352 2.415 1_545 S
O373 C361 1.239 1_545 S
O374 Tb352 2.399 . S
O374 C361 1.263 . S
C375 O364 1.261 . S
C375 O365 1.257 . S
C376 C379 1.358 . S
C376 C380 1.314 1_545 S
C376 C382 1.504 . S
C377 C378 1.373 . S
C377 C381 1.308 . S
C378 C377 1.373 . S
C378 C379 1.429 . S
C378 H388 0.932 . S
C379 C376 1.358 . S
C379 C378 1.429 . S
C379 H389 0.930 . S
C380 C376 1.314 1_565 S
C380 C381 1.395 1_565 S
C380 H390 0.950 . S
C381 C377 1.308 . S
C381 C380 1.395 1_545 S
C381 H391 0.929 1_545 S
C382 Tb353 2.764 1_554 S
C382 O366 1.239 1_544 S
C382 O367 1.263 1_554 S
C382 C376 1.504 . S
C383 O368 1.236 1_565 S
C383 O369 1.257 . S
H384 C357 0.932 . S
H385 C358 0.930 . S
H386 C359 0.957 . S
H387 C360 0.929 1_545 S
H388 C378 0.932 . S
H389 C379 0.930 . S
H390 C380 0.950 . S
H391 C381 0.929 1_565 S
Tb392 C401 2.764 1_556 S
Tb392 O402 2.325 . S
Tb392 O405 2.303 . S
Tb392 O409 2.322 . S
Tb392 O410 2.349 . S
Tb392 O413 2.415 1_556 S
Tb392 O414 2.399 . S
Tb393 O403 2.322 . S
Tb393 O404 2.349 . S
Tb393 O406 2.415 . S
Tb393 O407 2.399 . S
Tb393 O408 2.325 . S
Tb393 O411 2.303 . S
Tb393 C422 2.764 . S
C394 O410 1.261 . S
C394 O411 1.257 . S
C395 C398 1.358 . S
C395 C399 1.332 . S
C395 C401 1.504 . S
C396 C397 1.373 . S
C396 C400 1.308 . S
C397 C396 1.373 . S
C397 C398 1.429 . S
C397 H424 0.932 . S
C398 C395 1.358 . S
C398 C397 1.429 . S
C398 H425 0.930 . S
C399 C395 1.332 . S
C399 C400 1.394 . S
C399 H426 0.932 . S
C400 C396 1.308 . S
C400 C399 1.394 . S
C400 H427 0.929 . S
C401 Tb392 2.764 1_554 S
C401 C395 1.504 . S
C401 O413 1.239 . S
C401 O414 1.263 1_554 S
O402 Tb392 2.325 . S
O402 C412 1.236 . S
O403 Tb393 2.322 . S
O403 C412 1.257 . S
O404 Tb393 2.349 . S
O404 C415 1.261 . S
O405 Tb392 2.303 . S
O405 C415 1.257 . S
O406 Tb393 2.415 . S
O406 C422 1.239 . S
O407 Tb393 2.399 . S
O407 C422 1.263 . S
O408 Tb393 2.325 . S
O408 C423 1.236 . S
O409 Tb392 2.322 . S
O409 C423 1.257 . S
O410 Tb392 2.349 . S
O410 C394 1.261 . S
O411 Tb393 2.303 . S
O411 C394 1.257 . S
C412 O402 1.236 . S
C412 O403 1.257 . S
O413 Tb392 2.415 1_554 S
O413 C401 1.239 . S
O414 Tb392 2.399 . S
O414 C401 1.263 1_556 S
C415 O404 1.261 . S
C415 O405 1.257 . S
C416 C419 1.358 . S
C416 C420 1.332 . S
C416 C422 1.504 . S
C417 C418 1.373 . S
C417 C421 1.308 . S
C418 C417 1.373 . S
C418 C419 1.429 . S
C418 H428 0.932 . S
C419 C416 1.358 . S
C419 C418 1.429 . S
C419 H429 0.930 . S
C420 C416 1.332 . S
C420 C421 1.394 . S
C420 H430 0.932 . S
C421 C417 1.308 . S
C421 C420 1.394 . S
C421 H431 0.929 . S
C422 Tb393 2.764 . S
C422 O406 1.239 . S
C422 O407 1.263 . S
C422 C416 1.504 . S
C423 O408 1.236 . S
C423 O409 1.257 . S
H424 C397 0.932 . S
H425 C398 0.930 . S
H426 C399 0.932 . S
H427 C400 0.929 . S
H428 C418 0.932 . S
H429 C419 0.930 . S
H430 C420 0.932 . S
H431 C421 0.929 . S
Tb432 C441 2.764 . S
Tb432 O442 2.325 . S
Tb432 O445 2.303 . S
Tb432 O449 2.322 1_455 S
Tb432 O450 2.349 . S
Tb432 O453 2.415 . S
Tb432 O454 2.399 . S
Tb433 O443 2.322 1_655 S
Tb433 O444 2.349 . S
Tb433 O446 2.415 . S
Tb433 O447 2.399 . S
Tb433 O448 2.325 . S
Tb433 O451 2.303 . S
Tb433 C462 2.764 . S
C434 O450 1.261 . S
C434 O451 1.257 1_455 S
C435 C438 1.358 . S
C435 C439 1.332 . S
C435 C441 1.504 . S
C436 C437 1.373 . S
C436 C440 1.308 . S
C437 C436 1.373 . S
C437 C438 1.429 . S
C437 H464 0.932 . S
C438 C435 1.358 . S
C438 C437 1.429 . S
C438 H465 0.930 . S
C439 C435 1.332 . S
C439 C440 1.394 . S
C439 H466 0.932 . S
C440 C436 1.308 . S
C440 C439 1.394 . S
C440 H467 0.929 . S
C441 Tb432 2.764 . S
C441 C435 1.504 . S
C441 O453 1.239 . S
C441 O454 1.263 . S
O442 Tb432 2.325 . S
O442 C452 1.236 . S
O443 Tb433 2.322 1_455 S
O443 C452 1.257 . S
O444 Tb433 2.349 . S
O444 C455 1.261 . S
O445 Tb432 2.303 . S
O445 C455 1.257 1_455 S
O446 Tb433 2.415 . S
O446 C462 1.239 . S
O447 Tb433 2.399 . S
O447 C462 1.263 . S
O448 Tb433 2.325 . S
O448 C463 1.236 . S
O449 Tb432 2.322 1_655 S
O449 C463 1.257 . S
O450 Tb432 2.349 . S
O450 C434 1.261 . S
O451 Tb433 2.303 . S
O451 C434 1.257 1_655 S
C452 O442 1.236 . S
C452 O443 1.257 . S
O453 Tb432 2.415 . S
O453 C441 1.239 . S
O454 Tb432 2.399 . S
O454 C441 1.263 . S
C455 O444 1.261 . S
C455 O445 1.257 1_655 S
C456 C459 1.358 . S
C456 C460 1.332 . S
C456 C462 1.504 1_554 S
C457 C458 1.373 . S
C457 C461 1.308 . S
C458 C457 1.373 . S
C458 C459 1.429 . S
C458 H468 0.932 . S
C459 C456 1.358 . S
C459 C458 1.429 . S
C459 H469 0.930 1_554 S
C460 C456 1.332 . S
C460 C461 1.394 . S
C460 H470 0.932 . S
C461 C457 1.308 . S
C461 C460 1.394 . S
C461 H471 0.929 . S
C462 Tb433 2.764 . S
C462 O446 1.239 . S
C462 O447 1.263 . S
C462 C456 1.504 1_556 S
C463 O448 1.236 . S
C463 O449 1.257 . S
H464 C437 0.932 . S
H465 C438 0.930 . S
H466 C439 0.932 . S
H467 C440 0.929 . S
H468 C458 0.932 . S
H469 C459 0.930 1_556 S
H470 C460 0.932 . S
H471 C461 0.929 . S
C472 C473 1.363 1_565 S
C472 C478 1.379 . S
C472 N480 1.356 . S
C473 C472 1.363 1_545 S
C473 C479 1.363 . S
C474 C475 1.363 . S
C474 C479 1.379 . S
C474 N481 1.356 . S
C475 C474 1.363 . S
C475 C478 1.363 1_545 S
N476 C478 1.356 . S
N476 H488 0.984 . S
N476 H489 0.985 . S
N477 C479 1.356 . S
N477 H482 0.984 . S
N477 H483 0.985 . S
C478 C472 1.379 . S
C478 C475 1.363 1_565 S
C478 N476 1.356 . S
C479 C473 1.363 . S
C479 C474 1.379 . S
C479 N477 1.356 . S
N480 C472 1.356 . S
N480 H486 0.984 . S
N480 H487 0.984 . S
N481 C474 1.356 . S
N481 H484 0.984 . S
N481 H485 0.985 . S
H482 N477 0.984 . S
H483 N477 0.985 . S
H484 N481 0.984 . S
H485 N481 0.985 . S
H486 N480 0.984 . S
H487 N480 0.984 . S
H488 N476 0.984 . S
H489 N476 0.985 . S
C490 C491 1.363 . S
C490 C496 1.379 . S
C490 N498 1.356 . S
C491 C490 1.363 . S
C491 C497 1.363 . S
C492 C493 1.363 . S
C492 C497 1.379 . S
C492 N499 1.356 . S
C493 C492 1.363 . S
C493 C496 1.363 . S
N494 C496 1.356 . S
N494 H506 0.984 . S
N494 H507 0.985 . S
N495 C497 1.356 . S
N495 H500 0.984 . S
N495 H501 0.985 . S
C496 C490 1.379 . S
C496 C493 1.363 . S
C496 N494 1.356 . S
C497 C491 1.363 . S
C497 C492 1.379 . S
C497 N495 1.356 . S
N498 C490 1.356 . S
N498 H504 0.984 . S
N498 H505 0.984 . S
N499 C492 1.356 . S
N499 H502 0.984 . S
N499 H503 0.985 . S
H500 N495 0.984 . S
H501 N495 0.985 . S
H502 N499 0.984 . S
H503 N499 0.985 . S
H504 N498 0.984 . S
H505 N498 0.984 . S
H506 N494 0.984 . S
H507 N494 0.985 . S
C508 C509 1.363 . S
C508 C514 1.379 . S
C508 N516 1.356 . S
C509 C508 1.363 . S
C509 C515 1.363 . S
C510 C511 1.363 . S
C510 C515 1.379 . S
C510 N517 1.356 . S
C511 C510 1.363 . S
C511 C514 1.363 . S
N512 C514 1.356 . S
N512 H524 0.984 . S
N512 H525 0.985 . S
N513 C515 1.356 . S
N513 H518 0.984 . S
N513 H519 0.985 . S
C514 C508 1.379 . S
C514 C511 1.363 . S
C514 N512 1.356 . S
C515 C509 1.363 . S
C515 C510 1.379 . S
C515 N513 1.356 . S
N516 C508 1.356 . S
N516 H522 0.984 . S
N516 H523 0.984 . S
N517 C510 1.356 . S
N517 H520 0.984 . S
N517 H521 0.985 . S
H518 N513 0.984 . S
H519 N513 0.985 . S
H520 N517 0.984 . S
H521 N517 0.985 . S
H522 N516 0.984 . S
H523 N516 0.984 . S
H524 N512 0.984 . S
H525 N512 0.985 . S
C526 C527 1.373 . S
C526 C532 1.379 . S
C526 N534 1.356 . S
C527 C526 1.373 . S
C527 C533 1.354 1_455 S
C528 C529 1.363 1_655 S
C528 C533 1.379 . S
C528 N535 1.356 . S
C529 C528 1.363 1_455 S
C529 C532 1.363 . S
N530 C532 1.356 . S
N530 H542 0.984 . S
N530 H543 0.985 . S
N531 C533 1.356 . S
N531 H536 0.984 . S
N531 H537 0.985 . S
C532 C526 1.379 . S
C532 C529 1.363 . S
C532 N530 1.356 . S
C533 C527 1.354 1_655 S
C533 C528 1.379 . S
C533 N531 1.356 . S
N534 C526 1.356 . S
N534 H540 0.984 . S
N534 H541 0.984 . S
N535 C528 1.356 . S
N535 H538 0.984 . S
N535 H539 0.985 . S
H536 N531 0.984 . S
H537 N531 0.985 . S
H538 N535 0.984 . S
H539 N535 0.985 . S
H540 N534 0.984 . S
H541 N534 0.984 . S
H542 N530 0.984 . S
H543 N530 0.985 . S
C544 C545 1.338 1_545 S
C544 C550 1.379 . S
C544 N552 1.356 . S
C545 C544 1.338 1_565 S
C545 C551 1.382 . S
C546 C547 1.363 . S
C546 C551 1.379 . S
C546 N553 1.356 . S
C547 C546 1.363 . S
C547 C550 1.363 1_565 S
N548 C550 1.356 . S
N548 H560 0.984 . S
N548 H561 0.985 1_554 S
N549 C551 1.356 . S
N549 H554 0.984 . S
N549 H555 0.985 . S
C550 C544 1.379 . S
C550 C547 1.363 1_545 S
C550 N548 1.356 . S
C551 C545 1.382 . S
C551 C546 1.379 . S
C551 N549 1.356 . S
N552 C544 1.356 . S
N552 H558 0.984 . S
N552 H559 0.984 . S
N553 C546 1.356 . S
N553 H556 0.984 1_554 S
N553 H557 0.985 . S
H554 N549 0.984 . S
H555 N549 0.985 . S
H556 N553 0.984 1_556 S
H557 N553 0.985 . S
H558 N552 0.984 . S
H559 N552 0.984 . S
H560 N548 0.984 . S
H561 N548 0.985 1_556 S
C562 C563 1.363 . S
C562 C568 1.379 . S
C562 N570 1.356 1_556 S
C563 C562 1.363 . S
C563 C569 1.363 . S
C564 C565 1.363 . S
C564 C569 1.379 . S
C564 N571 1.356 . S
C565 C564 1.363 . S
C565 C568 1.363 . S
N566 C568 1.356 . S
N566 H578 0.984 . S
N566 H579 0.985 . S
N567 C569 1.356 . S
N567 H572 0.984 . S
N567 H573 0.985 . S
C568 C562 1.379 . S
C568 C565 1.363 . S
C568 N566 1.356 . S
C569 C563 1.363 . S
C569 C564 1.379 . S
C569 N567 1.356 . S
N570 C562 1.356 1_554 S
N570 H576 0.984 . S
N570 H577 0.984 . S
N571 C564 1.356 . S
N571 H574 0.984 . S
N571 H575 0.985 . S
H572 N567 0.984 . S
H573 N567 0.985 . S
H574 N571 0.984 . S
H575 N571 0.985 . S
H576 N570 0.984 . S
H577 N570 0.984 . S
H578 N566 0.984 . S
H579 N566 0.985 . S
C580 C581 1.363 . S
C580 C586 1.379 . S
C580 N588 1.356 . S
C581 C580 1.363 . S
C581 C587 1.363 . S
C582 C583 1.363 . S
C582 C587 1.379 . S
C582 N589 1.356 . S
C583 C582 1.363 . S
C583 C586 1.363 . S
N584 C586 1.356 . S
N584 H596 0.984 . S
N584 H597 0.985 1_554 S
N585 C587 1.356 . S
N585 H590 0.984 . S
N585 H591 0.985 . S
C586 C580 1.379 . S
C586 C583 1.363 . S
C586 N584 1.356 . S
C587 C581 1.363 . S
C587 C582 1.379 . S
C587 N585 1.356 . S
N588 C580 1.356 . S
N588 H594 0.984 . S
N588 H595 0.984 . S
N589 C582 1.356 . S
N589 H592 0.984 1_554 S
N589 H593 0.985 . S
H590 N585 0.984 . S
H591 N585 0.985 . S
H592 N589 0.984 1_556 S
H593 N589 0.985 . S
H594 N588 0.984 . S
H595 N588 0.984 . S
H596 N584 0.984 . S
H597 N584 0.985 1_556 S
C598 C599 1.353 1_455 S
C598 C604 1.379 . S
C598 N606 1.356 . S
C599 C598 1.353 1_655 S
C599 C605 1.374 . S
C600 C601 1.363 . S
C600 C605 1.379 . S
C600 N607 1.356 . S
C601 C600 1.363 . S
C601 C604 1.363 1_655 S
N602 C604 1.356 . S
N602 H614 0.984 . S
N602 H615 0.985 1_554 S
N603 C605 1.356 . S
N603 H608 0.984 . S
N603 H609 0.985 . S
C604 C598 1.379 . S
C604 C601 1.363 1_455 S
C604 N602 1.356 . S
C605 C599 1.374 . S
C605 C600 1.379 . S
C605 N603 1.356 . S
N606 C598 1.356 . S
N606 H612 0.984 . S
N606 H613 0.984 . S
N607 C600 1.356 . S
N607 H610 0.984 1_554 S
N607 H611 0.985 . S
H608 N603 0.984 . S
H609 N603 0.985 . S
H610 N607 0.984 1_556 S
H611 N607 0.985 . S
H612 N606 0.984 . S
H613 N606 0.984 . S
H614 N602 0.984 . S
H615 N602 0.985 1_556 S
C616 C617 1.363 . S
C616 C622 1.379 . S
C616 N624 1.356 . S
C617 C616 1.363 . S
C617 C623 1.363 . S
C618 C619 1.363 . S
C618 C623 1.379 . S
C618 N625 1.356 . S
C619 C618 1.363 . S
C619 C622 1.363 . S
N620 C622 1.356 . S
N620 H632 0.984 . S
N620 H633 0.985 . S
N621 C623 1.356 1_455 S
N621 H626 0.984 . S
N621 H627 0.985 . S
C622 C616 1.379 . S
C622 C619 1.363 . S
C622 N620 1.356 . S
C623 C617 1.363 . S
C623 C618 1.379 . S
C623 N621 1.356 1_655 S
N624 C616 1.356 . S
N624 H630 0.984 . S
N624 H631 0.984 . S
N625 C618 1.356 . S
N625 H628 0.984 . S
N625 H629 0.985 . S
H626 N621 0.984 . S
H627 N621 0.985 . S
H628 N625 0.984 . S
H629 N625 0.985 . S
H630 N624 0.984 . S
H631 N624 0.984 . S
H632 N620 0.984 . S
H633 N620 0.985 . S
C634 C635 1.363 . S
C634 C640 1.379 1_545 S
C634 N642 1.356 . S
C635 C634 1.363 . S
C635 C641 1.363 1_545 S
C636 C637 1.363 . S
C636 C641 1.379 . S
C636 N643 1.356 . S
C637 C636 1.363 . S
C637 C640 1.363 . S
N638 C640 1.356 . S
N638 H650 0.984 1_565 S
N638 H651 0.985 . S
N639 C641 1.356 . S
N639 H644 0.984 . S
N639 H645 0.985 . S
C640 C634 1.379 1_565 S
C640 C637 1.363 . S
C640 N638 1.356 . S
C641 C635 1.363 1_565 S
C641 C636 1.379 . S
C641 N639 1.356 . S
N642 C634 1.356 . S
N642 H648 0.984 . S
N642 H649 0.984 . S
N643 C636 1.356 . S
N643 H646 0.984 . S
N643 H647 0.985 . S
H644 N639 0.984 . S
H645 N639 0.985 . S
H646 N643 0.984 . S
H647 N643 0.985 . S
H648 N642 0.984 . S
H649 N642 0.984 . S
H650 N638 0.984 1_545 S
H651 N638 0.985 . S
C652 C653 1.363 . S
C652 C658 1.379 . S
C652 N660 1.356 . S
C653 C652 1.363 . S
C653 C659 1.363 . S
C654 C655 1.363 . S
C654 C659 1.379 . S
C654 N661 1.356 . S
C655 C654 1.363 . S
C655 C658 1.363 . S
N656 C658 1.356 . S
N656 H668 0.984 . S
N656 H669 0.985 . S
N657 C659 1.356 . S
N657 H662 0.984 . S
N657 H663 0.985 . S
C658 C652 1.379 . S
C658 C655 1.363 . S
C658 N656 1.356 . S
C659 C653 1.363 . S
C659 C654 1.379 . S
C659 N657 1.356 . S
N660 C652 1.356 . S
N660 H666 0.984 . S
N660 H667 0.984 . S
N661 C654 1.356 . S
N661 H664 0.984 . S
N661 H665 0.985 . S
H662 N657 0.984 . S
H663 N657 0.985 . S
H664 N661 0.984 . S
H665 N661 0.985 . S
H666 N660 0.984 . S
H667 N660 0.984 . S
H668 N656 0.984 . S
H669 N656 0.985 . S
C670 C671 1.363 . S
C670 C676 1.379 . S
C670 N678 1.356 . S
C671 C670 1.363 . S
C671 C677 1.363 . S
C672 C673 1.363 . S
C672 C677 1.379 . S
C672 N679 1.356 . S
C673 C672 1.363 . S
C673 C676 1.363 . S
N674 C676 1.356 . S
N674 H686 0.984 . S
N674 H687 0.985 . S
N675 C677 1.356 . S
N675 H680 0.984 . S
N675 H681 0.985 . S
C676 C670 1.379 . S
C676 C673 1.363 . S
C676 N674 1.356 . S
C677 C671 1.363 . S
C677 C672 1.379 . S
C677 N675 1.356 . S
N678 C670 1.356 . S
N678 H684 0.984 . S
N678 H685 0.984 . S
N679 C672 1.356 . S
N679 H682 0.984 . S
N679 H683 0.985 . S
H680 N675 0.984 . S
H681 N675 0.985 . S
H682 N679 0.984 . S
H683 N679 0.985 . S
H684 N678 0.984 . S
H685 N678 0.984 . S
H686 N674 0.984 . S
H687 N674 0.985 . S
C688 C689 1.363 1_655 S
C688 C694 1.379 1_655 S
C688 N696 1.356 . S
C689 C688 1.363 1_455 S
C689 C695 1.363 . S
C690 C691 1.363 . S
C690 C695 1.379 . S
C690 N697 1.356 . S
C691 C690 1.363 . S
C691 C694 1.363 . S
N692 C694 1.356 . S
N692 H704 0.984 . S
N692 H705 0.985 . S
N693 C695 1.356 . S
N693 H698 0.984 . S
N693 H699 0.985 . S
C694 C688 1.379 1_455 S
C694 C691 1.363 . S
C694 N692 1.356 . S
C695 C689 1.363 . S
C695 C690 1.379 . S
C695 N693 1.356 . S
N696 C688 1.356 . S
N696 H702 0.984 . S
N696 H703 0.984 . S
N697 C690 1.356 . S
N697 H700 0.984 . S
N697 H701 0.985 . S
H698 N693 0.984 . S
H699 N693 0.985 . S
H700 N697 0.984 . S
H701 N697 0.985 . S
H702 N696 0.984 . S
H703 N696 0.984 . S
H704 N692 0.984 . S
H705 N692 0.985 . S
C706 C707 1.363 1_545 S
C706 C712 1.379 . S
C706 N714 1.356 . S
C707 C706 1.363 1_565 S
C707 C713 1.363 . S
C708 C709 1.363 . S
C708 C713 1.364 1_545 S
C708 N715 1.356 . S
C709 C708 1.363 . S
C709 C712 1.363 . S
N710 C712 1.356 . S
N710 H722 0.984 . S
N710 H723 0.985 . S
N711 C713 1.374 . S
N711 H716 0.984 . S
N711 H717 0.985 . S
C712 C706 1.379 . S
C712 C709 1.363 . S
C712 N710 1.356 . S
C713 C707 1.363 . S
C713 C708 1.364 1_565 S
C713 N711 1.374 . S
N714 C706 1.356 . S
N714 H720 0.984 . S
N714 H721 0.984 1_545 S
N715 C708 1.356 . S
N715 H718 0.984 . S
N715 H719 0.985 . S
H716 N711 0.984 . S
H717 N711 0.985 . S
H718 N715 0.984 . S
H719 N715 0.985 . S
H720 N714 0.984 . S
H721 N714 0.984 1_565 S
H722 N710 0.984 . S
H723 N710 0.985 . S
C724 C725 1.363 . S
C724 C730 1.379 . S
C724 N732 1.356 . S
C725 C724 1.363 . S
C725 C731 1.363 . S
C726 C727 1.363 . S
C726 C731 1.379 . S
C726 N733 1.356 . S
C727 C726 1.363 . S
C727 C730 1.363 . S
N728 C730 1.356 . S
N728 H740 0.984 . S
N728 H741 0.985 . S
N729 C731 1.356 . S
N729 H734 0.984 . S
N729 H735 0.985 . S
C730 C724 1.379 . S
C730 C727 1.363 . S
C730 N728 1.356 . S
C731 C725 1.363 . S
C731 C726 1.379 . S
C731 N729 1.356 . S
N732 C724 1.356 . S
N732 H738 0.984 . S
N732 H739 0.984 . S
N733 C726 1.356 . S
N733 H736 0.984 . S
N733 H737 0.985 . S
H734 N729 0.984 . S
H735 N729 0.985 . S
H736 N733 0.984 . S
H737 N733 0.985 . S
H738 N732 0.984 . S
H739 N732 0.984 . S
H740 N728 0.984 . S
H741 N728 0.985 . S
C742 C743 1.363 . S
C742 C748 1.379 . S
C742 N750 1.356 . S
C743 C742 1.363 . S
C743 C749 1.363 . S
C744 C745 1.363 . S
C744 C749 1.379 . S
C744 N751 1.356 . S
C745 C744 1.363 . S
C745 C748 1.363 . S
N746 C748 1.356 . S
N746 H758 0.984 1_554 S
N746 H759 0.985 . S
N747 C749 1.356 . S
N747 H752 0.984 . S
N747 H753 0.985 . S
C748 C742 1.379 . S
C748 C745 1.363 . S
C748 N746 1.356 . S
C749 C743 1.363 . S
C749 C744 1.379 . S
C749 N747 1.356 . S
N750 C742 1.356 . S
N750 H756 0.984 . S
N750 H757 0.984 . S
N751 C744 1.356 . S
N751 H754 0.984 . S
N751 H755 0.985 . S
H752 N747 0.984 . S
H753 N747 0.985 . S
H754 N751 0.984 . S
H755 N751 0.985 . S
H756 N750 0.984 . S
H757 N750 0.984 . S
H758 N746 0.984 1_556 S
H759 N746 0.985 . S
C760 C761 1.363 . S
C760 C766 1.379 . S
C760 N768 1.356 . S
C761 C760 1.363 . S
C761 C767 1.363 . S
C762 C763 1.363 . S
C762 C767 1.379 . S
C762 N769 1.356 . S
C763 C762 1.363 . S
C763 C766 1.363 . S
N764 C766 1.356 1_554 S
N764 H776 0.984 . S
N764 H777 0.985 1_554 S
N765 C767 1.356 1_655 S
N765 H770 0.984 . S
N765 H771 0.985 . S
C766 C760 1.379 . S
C766 C763 1.363 . S
C766 N764 1.356 1_556 S
C767 C761 1.363 . S
C767 C762 1.379 . S
C767 N765 1.356 1_455 S
N768 C760 1.356 . S
N768 H774 0.984 1_556 S
N768 H775 0.984 . S
N769 C762 1.356 . S
N769 H772 0.984 . S
N769 H773 0.982 1_455 S
H770 N765 0.984 . S
H771 N765 0.985 . S
H772 N769 0.984 . S
H773 N769 0.982 1_655 S
H774 N768 0.984 1_554 S
H775 N768 0.984 . S
H776 N764 0.984 . S
H777 N764 0.985 1_556 S
C778 C779 1.363 . S
C778 C784 1.379 . S
C778 N786 1.356 . S
C779 C778 1.363 . S
C779 C785 1.363 1_545 S
C780 C781 1.363 1_565 S
C780 C785 1.379 . S
C780 N787 1.356 . S
C781 C780 1.363 1_545 S
C781 C784 1.363 . S
N782 C784 1.356 . S
N782 H794 0.984 . S
N782 H795 0.985 . S
N783 C785 1.356 . S
N783 H788 0.984 . S
N783 H789 0.985 . S
C784 C778 1.379 . S
C784 C781 1.363 . S
C784 N782 1.356 . S
C785 C779 1.363 1_565 S
C785 C780 1.379 . S
C785 N783 1.356 . S
N786 C778 1.356 . S
N786 H792 0.984 . S
N786 H793 0.984 . S
N787 C780 1.356 . S
N787 H790 0.984 . S
N787 H791 0.985 . S
H788 N783 0.984 . S
H789 N783 0.985 . S
H790 N787 0.984 . S
H791 N787 0.985 . S
H792 N786 0.984 . S
H793 N786 0.984 . S
H794 N782 0.984 . S
H795 N782 0.985 . S
C796 C797 1.363 . S
C796 C802 1.379 . S
C796 N804 1.356 . S
C797 C796 1.363 . S
C797 C803 1.363 . S
C798 C799 1.363 . S
C798 C803 1.379 . S
C798 N805 1.356 . S
C799 C798 1.363 . S
C799 C802 1.363 . S
N800 C802 1.356 . S
N800 H812 0.984 . S
N800 H813 0.985 . S
N801 C803 1.356 . S
N801 H806 0.984 . S
N801 H807 0.985 . S
C802 C796 1.379 . S
C802 C799 1.363 . S
C802 N800 1.356 . S
C803 C797 1.363 . S
C803 C798 1.379 . S
C803 N801 1.356 . S
N804 C796 1.356 . S
N804 H810 0.984 . S
N804 H811 0.984 . S
N805 C798 1.356 . S
N805 H808 0.984 . S
N805 H809 0.985 . S
H806 N801 0.984 . S
H807 N801 0.985 . S
H808 N805 0.984 . S
H809 N805 0.985 . S
H810 N804 0.984 . S
H811 N804 0.984 . S
H812 N800 0.984 . S
H813 N800 0.985 . S
C814 C815 1.363 . S
C814 C820 1.379 . S
C814 N822 1.356 . S
C815 C814 1.363 . S
C815 C821 1.363 . S
C816 C817 1.363 . S
C816 C821 1.379 . S
C816 N823 1.356 . S
C817 C816 1.363 . S
C817 C820 1.363 . S
N818 C820 1.356 . S
N818 H830 0.984 . S
N818 H831 0.985 . S
N819 C821 1.356 . S
N819 H824 0.984 . S
N819 H825 0.985 . S
C820 C814 1.379 . S
C820 C817 1.363 . S
C820 N818 1.356 . S
C821 C815 1.363 . S
C821 C816 1.379 . S
C821 N819 1.356 . S
N822 C814 1.356 . S
N822 H828 0.984 . S
N822 H829 0.984 . S
N823 C816 1.356 . S
N823 H826 0.984 . S
N823 H827 0.985 . S
H824 N819 0.984 . S
H825 N819 0.985 . S
H826 N823 0.984 . S
H827 N823 0.985 . S
H828 N822 0.984 . S
H829 N822 0.984 . S
H830 N818 0.984 . S
H831 N818 0.985 . S
C832 C833 1.363 1_455 S
C832 C838 1.379 . S
C832 N840 1.356 . S
C833 C832 1.363 1_655 S
C833 C839 1.363 . S
C834 C835 1.363 . S
C834 C839 1.379 . S
C834 N841 1.356 . S
C835 C834 1.363 . S
C835 C838 1.363 1_655 S
N836 C838 1.356 . S
N836 H848 0.984 . S
N836 H849 0.985 . S
N837 C839 1.356 . S
N837 H842 0.984 . S
N837 H843 0.985 . S
C838 C832 1.379 . S
C838 C835 1.363 1_455 S
C838 N836 1.356 . S
C839 C833 1.363 . S
C839 C834 1.379 . S
C839 N837 1.356 . S
N840 C832 1.356 . S
N840 H846 0.984 . S
N840 H847 0.984 . S
N841 C834 1.356 . S
N841 H844 0.984 . S
N841 H845 0.985 . S
H842 N837 0.984 . S
H843 N837 0.985 . S
H844 N841 0.984 . S
H845 N841 0.985 . S
H846 N840 0.984 . S
H847 N840 0.984 . S
H848 N836 0.984 . S
H849 N836 0.985 . S
C850 C851 1.363 1_545 S
C850 C856 1.379 . S
C850 N858 1.356 . S
C851 C850 1.363 1_565 S
C851 C857 1.363 . S
C852 C853 1.363 . S
C852 C857 1.379 . S
C852 N859 1.356 . S
C853 C852 1.363 . S
C853 C856 1.363 1_565 S
N854 C856 1.356 . S
N854 H866 0.984 . S
N854 H867 0.985 . S
N855 C857 1.356 . S
N855 H860 0.984 . S
N855 H861 0.985 . S
C856 C850 1.379 . S
C856 C853 1.363 1_545 S
C856 N854 1.356 . S
C857 C851 1.363 . S
C857 C852 1.379 . S
C857 N855 1.356 . S
N858 C850 1.356 . S
N858 H864 0.984 . S
N858 H865 0.984 . S
N859 C852 1.356 . S
N859 H862 0.984 . S
N859 H863 0.985 . S
H860 N855 0.984 . S
H861 N855 0.985 . S
H862 N859 0.984 . S
H863 N859 0.985 . S
H864 N858 0.984 . S
H865 N858 0.984 . S
H866 N854 0.984 . S
H867 N854 0.985 . S
C868 C869 1.363 . S
C868 C874 1.379 . S
C868 N876 1.356 . S
C869 C868 1.363 . S
C869 C875 1.363 . S
C870 C871 1.363 . S
C870 C875 1.379 . S
C870 N877 1.356 . S
C871 C870 1.363 . S
C871 C874 1.363 . S
N872 C874 1.356 . S
N872 H884 0.984 . S
N872 H885 0.985 . S
N873 C875 1.356 . S
N873 H878 0.984 . S
N873 H879 0.985 . S
C874 C868 1.379 . S
C874 C871 1.363 . S
C874 N872 1.356 . S
C875 C869 1.363 . S
C875 C870 1.379 . S
C875 N873 1.356 . S
N876 C868 1.356 . S
N876 H882 0.984 . S
N876 H883 0.984 . S
N877 C870 1.356 . S
N877 H880 0.984 . S
N877 H881 0.985 . S
H878 N873 0.984 . S
H879 N873 0.985 . S
H880 N877 0.984 . S
H881 N877 0.985 . S
H882 N876 0.984 . S
H883 N876 0.984 . S
H884 N872 0.984 . S
H885 N872 0.985 . S
C886 C887 1.363 . S
C886 C892 1.379 . S
C886 N894 1.356 . S
C887 C886 1.363 . S
C887 C893 1.363 . S
C888 C889 1.363 . S
C888 C893 1.379 . S
C888 N895 1.356 . S
C889 C888 1.363 . S
C889 C892 1.363 . S
N890 C892 1.356 . S
N890 H902 0.984 . S
N890 H903 0.985 . S
N891 C893 1.356 . S
N891 H896 0.984 . S
N891 H897 0.985 . S
C892 C886 1.379 . S
C892 C889 1.363 . S
C892 N890 1.356 . S
C893 C887 1.363 . S
C893 C888 1.379 . S
C893 N891 1.356 . S
N894 C886 1.356 . S
N894 H900 0.984 . S
N894 H901 0.984 . S
N895 C888 1.356 . S
N895 H898 0.984 . S
N895 H899 0.985 . S
H896 N891 0.984 . S
H897 N891 0.985 . S
H898 N895 0.984 . S
H899 N895 0.985 . S
H900 N894 0.984 . S
H901 N894 0.984 . S
H902 N890 0.984 . S
H903 N890 0.985 . S
C473 C255 2.629 1_545 S
C475 C335 2.922 1_545 S
C493 C375 1.750 . S
C491 C294 1.692 . S
C511 C394 2.981 . S
C509 C177 2.674 . S
C529 C455 2.217 1_455 S
C527 C216 1.972 1_455 S
C547 C314 2.923 1_564 S
C545 C99 2.629 . S
C563 C138 1.680 . S
C565 C354 1.755 . S
C581 C21 2.685 . S
C583 C415 2.980 1_554 S
C599 C60 1.972 . S
C601 C434 2.217 1_654 S
C619 C316 1.016 . S
C617 C196 1.075 . S
C637 C356 0.614 . S
C635 C235 0.587 1_545 S
C655 C412 1.672 . S
C653 C289 1.400 . S
C671 C157 0.773 . S
C673 C436 0.767 . S
C689 C40 1.081 1_455 S
C691 C337 1.021 . S
C709 C377 0.614 . S
C707 C79 0.579 . S
C727 C423 1.671 . S
C725 C133 1.407 . S
C743 C1 0.774 . S
C745 C457 0.772 . S
C761 C211 2.515 . S
C763 C332 2.939 . S
C779 C250 3.153 . S
C781 C372 3.599 . S
C799 C396 2.110 . S
C797 C274 2.064 . S
C817 C452 3.586 . S
C815 C172 3.141 . S
C833 C55 2.516 1_655 S
C835 C343 2.947 . S
C853 C383 3.599 . S
C851 C94 3.153 1_565 S
C871 C417 2.111 . S
C869 C118 2.066 . S
C887 C16 3.143 . S
C889 C463 3.589 . S
