# Generated by pormake.
# Topology pyr, (3,6)-cn, num edge types: 1
# Building blocks:
#     Node 0, Type 0, BuildingBlock: ESEHIV_clean_linker_0, # of connection points: 3
#     Node 1, Type 0, BuildingBlock: ESEHIV_clean_linker_0, # of connection points: 3
#     Node 2, Type 0, BuildingBlock: ESEHIV_clean_linker_0, # of connection points: 3
#     Node 3, Type 0, BuildingBlock: ESEHIV_clean_linker_0, # of connection points: 3
#     Node 4, Type 0, BuildingBlock: ESEHIV_clean_linker_0, # of connection points: 3
#     Node 5, Type 0, BuildingBlock: ESEHIV_clean_linker_0, # of connection points: 3
#     Node 6, Type 0, BuildingBlock: ESEHIV_clean_linker_0, # of connection points: 3
#     Node 7, Type 0, BuildingBlock: ESEHIV_clean_linker_0, # of connection points: 3
#     Node 8, Type 1, BuildingBlock: VOLQOD_clean_sbu_1, # of connection points: 6
#     Node 9, Type 1, BuildingBlock: VOLQOD_clean_sbu_1, # of connection points: 6
#     Node 10, Type 1, BuildingBlock: VOLQOD_clean_sbu_1, # of connection points: 6
#     Node 11, Type 1, BuildingBlock: VOLQOD_clean_sbu_1, # of connection points: 6
#     Edge 12, Type (0, 1), BuildingBlock: XUDNAN_clean_linker_2, # of connection points: 2
#     Edge 13, Type (0, 1), BuildingBlock: XUDNAN_clean_linker_2, # of connection points: 2
#     Edge 14, Type (0, 1), BuildingBlock: XUDNAN_clean_linker_2, # of connection points: 2
#     Edge 15, Type (0, 1), BuildingBlock: XUDNAN_clean_linker_2, # of connection points: 2
#     Edge 16, Type (0, 1), BuildingBlock: XUDNAN_clean_linker_2, # of connection points: 2
#     Edge 17, Type (0, 1), BuildingBlock: XUDNAN_clean_linker_2, # of connection points: 2
#     Edge 18, Type (0, 1), BuildingBlock: XUDNAN_clean_linker_2, # of connection points: 2
#     Edge 19, Type (0, 1), BuildingBlock: XUDNAN_clean_linker_2, # of connection points: 2
#     Edge 20, Type (0, 1), BuildingBlock: XUDNAN_clean_linker_2, # of connection points: 2
#     Edge 21, Type (0, 1), BuildingBlock: XUDNAN_clean_linker_2, # of connection points: 2
#     Edge 22, Type (0, 1), BuildingBlock: XUDNAN_clean_linker_2, # of connection points: 2
#     Edge 23, Type (0, 1), BuildingBlock: XUDNAN_clean_linker_2, # of connection points: 2
#     Edge 24, Type (0, 1), BuildingBlock: XUDNAN_clean_linker_2, # of connection points: 2
#     Edge 25, Type (0, 1), BuildingBlock: XUDNAN_clean_linker_2, # of connection points: 2
#     Edge 26, Type (0, 1), BuildingBlock: XUDNAN_clean_linker_2, # of connection points: 2
#     Edge 27, Type (0, 1), BuildingBlock: XUDNAN_clean_linker_2, # of connection points: 2
#     Edge 28, Type (0, 1), BuildingBlock: XUDNAN_clean_linker_2, # of connection points: 2
#     Edge 29, Type (0, 1), BuildingBlock: XUDNAN_clean_linker_2, # of connection points: 2
#     Edge 30, Type (0, 1), BuildingBlock: XUDNAN_clean_linker_2, # of connection points: 2
#     Edge 31, Type (0, 1), BuildingBlock: XUDNAN_clean_linker_2, # of connection points: 2
#     Edge 32, Type (0, 1), BuildingBlock: XUDNAN_clean_linker_2, # of connection points: 2
#     Edge 33, Type (0, 1), BuildingBlock: XUDNAN_clean_linker_2, # of connection points: 2
#     Edge 34, Type (0, 1), BuildingBlock: XUDNAN_clean_linker_2, # of connection points: 2
#     Edge 35, Type (0, 1), BuildingBlock: XUDNAN_clean_linker_2, # of connection points: 2
# Relax obj value: 0.035
# Max RMSD: 0.118
# Mean RMSD: 0.043
data_MOF--net-pry--node1-VOLQOD_clean_sbu_1--node2-ESEHIV_clean_linker_0--edge1-XUDNAN_clean_linker_2
_symmetry_space_group_name_H-M    P1
_symmetry_Int_Tables_number       1
_symmetry_cell_setting            triclinic
loop_
_symmetry_equiv_pos_as_xyz
'x, y, z'
_cell_length_a     35.317415
_cell_length_b     35.385036
_cell_length_c     35.554315
_cell_angle_alpha  90.27024
_cell_angle_beta   89.98836
_cell_angle_gamma 90.115875
loop_
_atom_site_label
_atom_site_type_symbol
_atom_site_fract_x
_atom_site_fract_y
_atom_site_fract_z
_atom_type_partial_charge
H0 H 0.05549 0.12691 0.12645 0.0
H1 H 0.16276 0.10094 0.17656 0.0
H2 H 0.15708 0.18089 0.08747 0.0
C3 C 0.08545 0.13224 0.12925 0.0
C4 C 0.10255 0.15953 0.10615 0.0
C5 C 0.10593 0.11391 0.15775 0.0
C6 C 0.14572 0.11599 0.15639 0.0
C7 C 0.16409 0.13787 0.12892 0.0
C8 C 0.1424 0.16101 0.10528 0.0
H9 H 0.33053 0.92895 0.6653 0.0
H10 H 0.43017 0.86475 0.69388 0.0
H11 H 0.35965 0.83053 0.60158 0.0
C12 C 0.34966 0.90561 0.66041 0.0
C13 C 0.34152 0.88021 0.63106 0.0
C14 C 0.38119 0.90009 0.68417 0.0
C15 C 0.4059 0.86969 0.67615 0.0
C16 C 0.39907 0.84485 0.64582 0.0
C17 C 0.36643 0.85026 0.62395 0.0
H18 H 0.6588 0.39093 0.95351 0.0
H19 H 0.66137 0.4547 0.85102 0.0
H20 H 0.59425 0.35325 0.85835 0.0
C21 C 0.64886 0.39537 0.92505 0.0
C22 C 0.62506 0.36834 0.90832 0.0
C23 C 0.66209 0.42663 0.90468 0.0
C24 C 0.65029 0.43131 0.86723 0.0
C25 C 0.62565 0.405 0.85021 0.0
C26 C 0.61271 0.374 0.87131 0.0
H27 H 0.83877 0.64329 0.41419 0.0
H28 H 0.9453 0.64177 0.3565 0.0
H29 H 0.87404 0.54283 0.35565 0.0
C30 C 0.85995 0.62771 0.39845 0.0
C31 C 0.85309 0.59014 0.3877 0.0
C32 C 0.89314 0.6462 0.38732 0.0
C33 C 0.92002 0.62695 0.36556 0.0
C34 C 0.91312 0.58978 0.35322 0.0
C35 C 0.87997 0.5713 0.36528 0.0
H36 H 0.83237 0.91306 0.84081 0.0
H37 H 0.9365 0.85262 0.85685 0.0
H38 H 0.85147 0.85143 0.94314 0.0
C39 C 0.85118 0.89714 0.85886 0.0
C40 C 0.83868 0.88528 0.89444 0.0
C41 C 0.88631 0.88486 0.84506 0.0
C42 C 0.90959 0.86256 0.86779 0.0
C43 C 0.89729 0.85032 0.90311 0.0
C44 C 0.86196 0.86217 0.91657 0.0
H45 H 0.58929 0.15474 0.34506 0.0
H46 H 0.68649 0.08954 0.37491 0.0
H47 H 0.65178 0.1828 0.44524 0.0
C48 C 0.61209 0.14891 0.36457 0.0
C49 C 0.61772 0.17274 0.39579 0.0
C50 C 0.63691 0.11906 0.35685 0.0
C51 C 0.66676 0.11194 0.3817 0.0
C52 C 0.67211 0.13418 0.41424 0.0
C53 C 0.64732 0.16466 0.42104 0.0
H54 H 0.3604 0.6712 0.0718 0.0
H55 H 0.35267 0.57575 0.14594 0.0
H56 H 0.41506 0.67419 0.18002 0.0
C57 C 0.36875 0.65718 0.09755 0.0
C58 C 0.39011 0.67685 0.12463 0.0
C59 C 0.35572 0.62038 0.1048 0.0
C60 C 0.36443 0.60325 0.13923 0.0
C61 C 0.38585 0.6226 0.16627 0.0
C62 C 0.39933 0.65895 0.15856 0.0
H63 H 0.07235 0.32768 0.65238 0.0
H64 H 0.16907 0.34101 0.58126 0.0
H65 H 0.13897 0.42945 0.65926 0.0
C66 C 0.09552 0.34521 0.6426 0.0
C67 C 0.10258 0.38032 0.6597 0.0
C68 C 0.12041 0.33026 0.61587 0.0
C69 C 0.1498 0.35272 0.60197 0.0
C70 C 0.15576 0.3893 0.61659 0.0
C71 C 0.13225 0.40278 0.64572 0.0
O72 O 0.02372 0.06153 0.55672 0.0
Zn73 Zn 0.98621 0.02139 0.54283 0.0
O74 O 0.00636 0.99061 0.50169 0.0
Zn75 Zn 0.96917 0.98847 0.46172 0.0
Zn76 Zn 0.05429 0.01182 0.4834 0.0
Zn77 Zn 0.01515 0.93963 0.51891 0.0
O78 O 0.95353 0.9353 0.44929 0.0
O79 O 0.99111 0.90096 0.48545 0.0
O80 O 0.9372 0.04722 0.5282 0.0
O81 O 0.9225 0.0177 0.47487 0.0
O82 O 0.9912 0.0105 0.41496 0.0
O83 O 0.05234 0.02018 0.42698 0.0
O84 O 0.09887 0.97829 0.49732 0.0
O85 O 0.97434 0.9896 0.58845 0.0
O86 O 0.0703 0.9284 0.52233 0.0
O87 O 0.99265 0.93255 0.56983 0.0
C88 C 0.05173 0.07598 0.53935 0.0
C89 C 0.96589 0.90341 0.46008 0.0
C90 C 0.02426 0.0202 0.40443 0.0
C91 C 0.91442 0.04085 0.50113 0.0
C92 C 0.10026 0.94596 0.51293 0.0
C93 C 0.97787 0.9543 0.59432 0.0
O94 O 0.06453 0.06192 0.50887 0.0
O95 O 0.50912 0.10909 0.98173 0.0
Zn96 Zn 0.47617 0.06246 0.99112 0.0
O97 O 0.50565 0.02342 0.01775 0.0
Zn98 Zn 0.50482 0.97556 0.99002 0.0
Zn99 Zn 0.55821 0.03879 0.02362 0.0
Zn100 Zn 0.48453 0.01631 0.06768 0.0
O101 O 0.47883 0.93435 0.01978 0.0
O102 O 0.46591 0.96343 0.07372 0.0
O103 O 0.45659 0.04164 0.94131 0.0
O104 O 0.47797 0.98241 0.94075 0.0
O105 O 0.55742 0.95751 0.97745 0.0
O106 O 0.59404 0.00535 0.9952 0.0
O107 O 0.57505 0.03891 0.0777 0.0
O108 O 0.43082 0.07955 0.0223 0.0
O109 O 0.52225 0.02596 0.10871 0.0
O110 O 0.4408 0.05068 0.07675 0.0
C111 C 0.54377 0.11584 0.98959 0.0
C112 C 0.46522 0.93404 0.05298 0.0
C113 C 0.58983 0.97314 0.97974 0.0
C114 C 0.46024 0.00951 0.92528 0.0
C115 C 0.55734 0.03401 0.10845 0.0
C116 C 0.42182 0.07326 0.05645 0.0
O117 O 0.5645 0.09113 0.00521 0.0
O118 O 0.5532 0.50263 0.58434 0.0
Zn119 Zn 0.54196 0.53369 0.53808 0.0
O120 O 0.5002 0.51061 0.50904 0.0
Zn121 Zn 0.51658 0.49936 0.45822 0.0
Zn122 Zn 0.48386 0.4632 0.53228 0.0
Zn123 Zn 0.45789 0.54579 0.50585 0.0
O124 O 0.48659 0.52628 0.41905 0.0
O125 O 0.44318 0.55694 0.45228 0.0
O126 O 0.59027 0.53684 0.50643 0.0
O127 O 0.57027 0.51343 0.45189 0.0
O128 O 0.51389 0.44419 0.44659 0.0
O129 O 0.49401 0.41755 0.49933 0.0
O130 O 0.42811 0.46502 0.54489 0.0
O131 O 0.52748 0.58598 0.55663 0.0
O132 O 0.4117 0.52366 0.52998 0.0
O133 O 0.47031 0.59483 0.53188 0.0
C134 C 0.53938 0.47184 0.59678 0.0
C135 C 0.4577 0.54754 0.42087 0.0
C136 C 0.50549 0.41496 0.4655 0.0
C137 C 0.5964 0.52724 0.47231 0.0
C138 C 0.4035 0.49128 0.54314 0.0
C139 C 0.49834 0.60646 0.55129 0.0
O140 O 0.51298 0.45434 0.57964 0.0
O141 O 0.98304 0.49419 0.08813 0.0
Zn142 Zn 0.97812 0.47988 0.03378 0.0
O143 O 0.01362 0.50823 0.00326 0.0
Zn144 Zn 0.98794 0.52929 0.95931 0.0
Zn145 Zn 0.03527 0.54889 0.03323 0.0
Zn146 Zn 0.05351 0.4742 0.9873 0.0
O147 O 0.00664 0.50626 0.91035 0.0
O148 O 0.0492 0.46574 0.93232 0.0
O149 O 0.92452 0.48891 0.01699 0.0
O150 O 0.93195 0.51821 0.96226 0.0
O151 O 0.99247 0.58609 0.95911 0.0
O152 O 0.0169 0.59918 0.01533 0.0
O153 O 0.09192 0.54871 0.02848 0.0
O154 O 0.98896 0.42428 0.03145 0.0
O155 O 0.10534 0.49498 -0.00119 0.0
O156 O 0.04763 0.42234 0.00922 0.0
C157 C 0.00117 0.51998 0.10551 0.0
C158 C 0.03056 0.47985 0.90525 0.0
C159 C 0.00222 0.6098 0.98446 0.0
C160 C 0.91082 0.50343 0.98725 0.0
C161 C 0.11584 0.52556 0.01472 0.0
C162 C 0.01885 0.40594 0.02327 0.0
O163 O 0.02185 0.5437 0.08815 0.0
H164 H 0.13155 0.06113 0.21104 0.0
H165 H 0.03349 0.13034 0.18281 0.0
H166 H 0.00118 0.10767 0.23831 0.0
H167 H 0.08214 0.98391 0.25867 0.0
H168 H 0.11691 0.98093 0.29564 0.0
H169 H 0.13079 0.99627 0.24936 0.0
H170 H 0.15865 0.05778 0.27796 0.0
H171 H 0.14473 0.04275 0.32426 0.0
H172 H 0.12892 0.08769 0.30657 0.0
H173 H 0.97952 0.08161 0.29829 0.0
H174 H 0.97238 0.05731 0.36267 0.0
H175 H 0.08691 0.0131 0.35863 0.0
C176 C 0.10328 0.07165 0.21593 0.0
C177 C 0.08531 0.09696 0.19068 0.0
C178 C 0.048 0.10948 0.19951 0.0
C179 C 0.02917 0.09715 0.2317 0.0
C180 C 0.04804 0.07308 0.2559 0.0
C181 C 0.08441 0.06081 0.24888 0.0
C182 C 0.09971 0.03867 0.28204 0.0
C183 C 0.10786 0.9975 0.27074 0.0
C184 C 0.13509 0.05788 0.29869 0.0
C185 C 0.06634 0.04114 0.30883 0.0
C186 C 0.03659 0.06039 0.29262 0.0
C187 C 0.00256 0.06643 0.31138 0.0
C188 C 0.99878 0.05252 0.34789 0.0
C189 C 0.02914 0.03354 0.36556 0.0
C190 C 0.06339 0.02778 0.34578 0.0
H191 H 0.44839 0.91726 0.72175 0.0
H192 H 0.32689 0.93749 0.7267 0.0
H193 H 0.33583 0.97485 0.78409 0.0
H194 H 0.45507 0.89734 0.81853 0.0
H195 H 0.5018 0.91724 0.8238 0.0
H196 H 0.48721 0.89806 0.77914 0.0
H197 H 0.50295 0.96188 0.74716 0.0
H198 H 0.51743 0.98134 0.79184 0.0
H199 H 0.48149 0.00471 0.76455 0.0
H200 H 0.35731 0.00824 0.84324 0.0
H201 H 0.3885 0.027 0.903 0.0
H202 H 0.4931 0.97595 0.86454 0.0
C203 C 0.42337 0.92923 0.73458 0.0
C204 C 0.38693 0.92448 0.71844 0.0
C205 C 0.35547 0.94151 0.73687 0.0
C206 C 0.36012 0.96269 0.77 0.0
C207 C 0.39626 0.96609 0.78519 0.0
C208 C 0.42723 0.94926 0.76841 0.0
C209 C 0.46221 0.95315 0.79277 0.0
C210 C 0.47745 0.91414 0.80424 0.0
C211 C 0.49282 0.97668 0.77289 0.0
C212 C 0.44588 0.97426 0.82615 0.0
C213 C 0.40804 0.98246 0.82077 0.0
C214 C 0.38692 0.00194 0.84778 0.0
C215 C 0.40481 0.01259 0.88149 0.0
C216 C 0.44299 0.00273 0.88816 0.0
C217 C 0.46379 0.98368 0.86001 0.0
H218 H 0.61063 0.46968 0.8096 0.0
H219 H 0.61837 0.34752 0.79862 0.0
H220 H 0.59815 0.35189 0.73271 0.0
H221 H 0.53044 0.4833 0.75188 0.0
H222 H 0.54767 0.52597 0.73023 0.0
H223 H 0.56299 0.51365 0.77688 0.0
H224 H 0.63303 0.51709 0.75542 0.0
H225 H 0.61793 0.52958 0.70869 0.0
H226 H 0.64831 0.48933 0.71558 0.0
H227 H 0.57276 0.3685 0.66987 0.0
H228 H 0.5488 0.39732 0.61142 0.0
H229 H 0.56344 0.50897 0.66031 0.0
C230 C 0.6086 0.44386 0.79326 0.0
C231 C 0.61536 0.40819 0.80976 0.0
C232 C 0.61215 0.37513 0.78722 0.0
C233 C 0.60107 0.37729 0.74954 0.0
C234 C 0.59406 0.41275 0.73444 0.0
C235 C 0.59822 0.44552 0.75531 0.0
C236 C 0.58914 0.48005 0.73194 0.0
C237 C 0.55556 0.50202 0.74874 0.0
C238 C 0.6242 0.50551 0.72765 0.0
C239 C 0.57859 0.46142 0.69493 0.0
C240 C 0.58142 0.42255 0.69716 0.0
C241 C 0.57098 0.39893 0.6675 0.0
C242 C 0.55727 0.41549 0.63456 0.0
C243 C 0.55471 0.45525 0.63142 0.0
C244 C 0.56582 0.4785 0.66186 0.0
H245 H 0.94604 0.62498 0.29302 0.0
H246 H 0.93325 0.51488 0.34501 0.0
H247 H 0.96196 0.48509 0.289 0.0
H248 H 0.92121 0.60055 0.20527 0.0
H249 H 0.95509 0.6295 0.18067 0.0
H250 H 0.93965 0.64292 0.22696 0.0
H251 H 0.00906 0.64407 0.25046 0.0
H252 H 0.02494 0.63124 0.20393 0.0
H253 H 0.03853 0.60305 0.24378 0.0
H254 H 0.98008 0.46691 0.22334 0.0
H255 H 0.99258 0.4621 0.15505 0.0
H256 H 0.9988 0.58422 0.14804 0.0
C257 C 0.95078 0.59479 0.29359 0.0
C258 C 0.93724 0.57233 0.32356 0.0
C259 C 0.94291 0.5327 0.32226 0.0
C260 C 0.95948 0.51553 0.29068 0.0
C261 C 0.97106 0.53845 0.26104 0.0
C262 C 0.96776 0.57732 0.26262 0.0
C263 C 0.97955 0.5954 0.22592 0.0
C264 C 0.94692 0.61842 0.20871 0.0
C265 C 0.01515 0.61988 0.23135 0.0
C266 C 0.98812 0.56052 0.20275 0.0
C267 C 0.98326 0.52793 0.22357 0.0
C268 C 0.98511 0.49219 0.20706 0.0
C269 C 0.99194 0.48973 0.16828 0.0
C270 C 0.99717 0.52279 0.14663 0.0
C271 C 0.99594 0.55853 0.16425 0.0
H272 H 0.20522 0.13259 0.06403 0.0
H273 H 0.21735 0.13992 0.18529 0.0
H274 H 0.28635 0.13087 0.17887 0.0
H275 H 0.26933 0.06041 0.04977 0.0
H276 H 0.28848 0.07804 0.00624 0.0
H277 H 0.24091 0.08995 0.0198 0.0
H278 H 0.2569 0.16122 0.01444 0.0
H279 H 0.30459 0.14952 0.00063 0.0
H280 H 0.29649 0.18035 0.04031 0.0
H281 H 0.35192 0.11335 0.16014 0.0
H282 H 0.41038 0.08984 0.13032 0.0
H283 H 0.35672 0.09591 0.02075 0.0
C284 C 0.22256 0.13338 0.08914 0.0
C285 C 0.20595 0.13691 0.12517 0.0
C286 C 0.22943 0.13686 0.15745 0.0
C287 C 0.26867 0.13206 0.15405 0.0
C288 C 0.28401 0.12772 0.11818 0.0
C289 C 0.26178 0.12867 0.08624 0.0
C290 C 0.28493 0.12047 0.05123 0.0
C291 C 0.27002 0.08512 0.03057 0.0
C292 C 0.28578 0.15495 0.02511 0.0
C293 C 0.32342 0.11347 0.06861 0.0
C294 C 0.32227 0.11816 0.10724 0.0
C295 C 0.35339 0.11029 0.12988 0.0
C296 C 0.38639 0.09679 0.11269 0.0
C297 C 0.38813 0.09138 0.07322 0.0
C298 C 0.35643 0.10057 0.05088 0.0
H299 H 0.30747 0.94412 0.60208 0.0
H300 H 0.29368 0.82258 0.61207 0.0
H301 H 0.23387 0.82605 0.57689 0.0
H302 H 0.21071 0.96654 0.61699 0.0
H303 H 0.20973 0.00509 0.58404 0.0
H304 H 0.25332 0.99287 0.60717 0.0
H305 H 0.28599 0.98504 0.54234 0.0
H306 H 0.24236 0.997 0.51899 0.0
H307 H 0.26593 0.95319 0.50797 0.0
H308 H 0.17394 0.84237 0.5452 0.0
H309 H 0.11578 0.8712 0.52016 0.0
H310 H 0.16702 0.98241 0.52998 0.0
C311 C 0.29193 0.91825 0.59669 0.0
C312 C 0.30564 0.88299 0.60937 0.0
C313 C 0.28433 0.8498 0.60186 0.0
C314 C 0.25021 0.85146 0.582 0.0
C315 C 0.23761 0.88653 0.56978 0.0
C316 C 0.25764 0.91939 0.57684 0.0
C317 C 0.23648 0.9536 0.56228 0.0
C318 C 0.22699 0.98114 0.59454 0.0
C319 C 0.25904 0.97337 0.53103 0.0
C320 C 0.20111 0.93482 0.54672 0.0
C321 C 0.20262 0.89607 0.55113 0.0
C322 C 0.17254 0.87263 0.54115 0.0
C323 C 0.13963 0.88927 0.527 0.0
C324 C 0.13706 0.92896 0.52283 0.0
C325 C 0.16853 0.95193 0.53211 0.0
H326 H 0.72733 0.45152 0.87127 0.0
H327 H 0.66519 0.45507 0.97649 0.0
H328 H 0.7209 0.48299 0.00802 0.0
H329 H 0.81068 0.42254 0.90616 0.0
H330 H 0.84118 0.45059 0.87668 0.0
H331 H 0.79468 0.43779 0.86053 0.0
H332 H 0.77811 0.50828 0.85034 0.0
H333 H 0.82495 0.5214 0.86587 0.0
H334 H 0.78394 0.5415 0.8885 0.0
H335 H 0.78622 0.49781 0.0303 0.0
H336 H 0.8551 0.50527 0.04043 0.0
H337 H 0.87389 0.49634 0.9202 0.0
C338 C 0.72481 0.45976 0.90053 0.0
C339 C 0.69192 0.45109 0.92143 0.0
C340 C 0.69023 0.46121 0.96 0.0
C341 C 0.72165 0.47726 0.97811 0.0
C342 C 0.75429 0.48373 0.95709 0.0
C343 C 0.75583 0.47612 0.91893 0.0
C344 C 0.7953 0.48255 0.90352 0.0
C345 C 0.81138 0.4462 0.8857 0.0
C346 C 0.79558 0.5154 0.8754 0.0
C347 C 0.81612 0.49301 0.93931 0.0
C348 C 0.79191 0.49378 0.96986 0.0
C349 C 0.80529 0.49844 0.00649 0.0
C350 C 0.84441 0.50235 0.01201 0.0
C351 C 0.86958 0.50189 0.98104 0.0
C352 C 0.85511 0.49779 0.94425 0.0
H353 H 0.81175 0.59535 0.4533 0.0
H354 H 0.80962 0.54616 0.34108 0.0
H355 H 0.74575 0.5213 0.35301 0.0
H356 H 0.75631 0.52124 0.50052 0.0
H357 H 0.7313 0.5546 0.52979 0.0
H358 H 0.77881 0.56492 0.51435 0.0
H359 H 0.75561 0.62798 0.48576 0.0
H360 H 0.70804 0.61778 0.50087 0.0
H361 H 0.71751 0.62736 0.45201 0.0
H362 H 0.68112 0.50649 0.37413 0.0
H363 H 0.61875 0.50096 0.40378 0.0
H364 H 0.66047 0.56133 0.50227 0.0
C365 C 0.79801 0.57901 0.43137 0.0
C366 C 0.81603 0.57232 0.3964 0.0
C367 C 0.79699 0.55085 0.36845 0.0
C368 C 0.76051 0.53683 0.37483 0.0
C369 C 0.74339 0.54459 0.40925 0.0
C370 C 0.76141 0.56502 0.43716 0.0
C371 C 0.73556 0.57121 0.47071 0.0
C372 C 0.75145 0.55183 0.50592 0.0
C373 C 0.72878 0.6136 0.47773 0.0
C374 C 0.69993 0.55168 0.45687 0.0
C375 C 0.70536 0.53635 0.42145 0.0
C376 C 0.67654 0.51806 0.40199 0.0
C377 C 0.6411 0.51526 0.41913 0.0
C378 C 0.63457 0.53075 0.45546 0.0
C379 C 0.66457 0.54905 0.47461 0.0
H380 H 0.12048 0.20778 0.04626 0.0
H381 H 0.03031 0.18248 0.12621 0.0
H382 H 0.99491 0.23624 0.10378 0.0
H383 H 0.12159 0.30179 0.06847 0.0
H384 H 0.13222 0.31887 0.02196 0.0
H385 H 0.14673 0.27222 0.03548 0.0
H386 H 0.11073 0.24363 0.97855 0.0
H387 H 0.09626 0.29037 0.96464 0.0
H388 H 0.06121 0.2541 0.97221 0.0
H389 H 0.97279 0.29764 0.08167 0.0
H390 H 0.96746 0.3642 0.06284 0.0
H391 H 0.07437 0.35537 0.00295 0.0
C392 C 0.09315 0.21283 0.05894 0.0
C393 C 0.07862 0.18934 0.08783 0.0
C394 C 0.04228 0.19801 0.10298 0.0
C395 C 0.02165 0.22917 0.09065 0.0
C396 C 0.03762 0.25232 0.06357 0.0
C397 C 0.0726 0.24477 0.04793 0.0
C398 C 0.08593 0.27752 0.02391 0.0
C399 C 0.12384 0.29354 0.03834 0.0
C400 C 0.08869 0.26569 0.98236 0.0
C401 C 0.05377 0.30517 0.03015 0.0
C402 C 0.02571 0.28952 0.05221 0.0
C403 C 0.99425 0.31012 0.06388 0.0
C404 C 0.99157 0.34798 0.05314 0.0
C405 C 0.02053 0.36507 0.0315 0.0
C406 C 0.0517 0.34309 0.01939 0.0
H407 H 0.55867 0.32651 0.90863 0.0
H408 H 0.67444 0.32677 0.95014 0.0
H409 H 0.66429 0.26423 0.97788 0.0
H410 H 0.51627 0.27492 0.98767 0.0
H411 H 0.48471 0.24816 0.95786 0.0
H412 H 0.49946 0.29493 0.94424 0.0
H413 H 0.52405 0.2683 0.88081 0.0
H414 H 0.50962 0.22145 0.8943 0.0
H415 H 0.55803 0.23034 0.88087 0.0
H416 H 0.64432 0.20076 0.99695 0.0
H417 H 0.61478 0.13921 0.00842 0.0
H418 H 0.51176 0.17736 0.9535 0.0
C419 C 0.58176 0.31356 0.92386 0.0
C420 C 0.6172 0.332 0.92766 0.0
C421 C 0.64669 0.31393 0.94772 0.0
C422 C 0.64135 0.27816 0.96333 0.0
C423 C 0.60641 0.26063 0.95856 0.0
C424 C 0.577 0.2776 0.93949 0.0
C425 C 0.54294 0.25146 0.937 0.0
C426 C 0.50883 0.26838 0.95795 0.0
C427 C 0.5331 0.24235 0.8958 0.0
C428 C 0.55819 0.21698 0.95713 0.0
C429 C 0.5948 0.22318 0.9694 0.0
C430 C 0.61555 0.19557 0.98777 0.0
C431 C 0.59844 0.16057 0.99401 0.0
C432 C 0.56082 0.15328 0.98189 0.0
C433 C 0.54045 0.18203 0.96322 0.0
H434 H 0.95221 0.68147 0.42269 0.0
H435 H 0.84435 0.70213 0.36843 0.0
H436 H 0.85221 0.77083 0.37913 0.0
H437 H 0.94083 0.75203 0.495 0.0
H438 H 0.99015 0.7652 0.49543 0.0
H439 H 0.9765 0.71789 0.4823 0.0
H440 H 0.01236 0.72503 0.41908 0.0
H441 H 0.02599 0.77243 0.43196 0.0
H442 H 0.00105 0.7639 0.3885 0.0
H443 H 0.87228 0.83689 0.39478 0.0
H444 H 0.90088 0.89599 0.41875 0.0
H445 H 0.99447 0.83179 0.46511 0.0
C446 C 0.9304 0.70061 0.41307 0.0
C447 C 0.89771 0.6869 0.39482 0.0
C448 C 0.86944 0.7124 0.38275 0.0
C449 C 0.87376 0.75133 0.38849 0.0
C450 C 0.90635 0.76406 0.4066 0.0
C451 C 0.934 0.73949 0.41906 0.0
C452 C 0.96557 0.76041 0.43903 0.0
C453 C 0.96841 0.74816 0.48039 0.0
C454 C 0.00348 0.75513 0.4184 0.0
C455 C 0.95137 0.80056 0.43571 0.0
C456 C 0.91737 0.80209 0.41661 0.0
C457 C 0.89886 0.83611 0.40988 0.0
C458 C 0.91538 0.8695 0.42349 0.0
C459 C 0.94981 0.86846 0.44389 0.0
C460 C 0.96804 0.83349 0.44979 0.0
H461 H 0.41512 0.81224 0.577 0.0
H462 H 0.4401 0.80151 0.69622 0.0
H463 H 0.47705 0.74414 0.68278 0.0
H464 H 0.39355 0.71709 0.56541 0.0
H465 H 0.41157 0.71381 0.51807 0.0
H466 H 0.39431 0.75824 0.5357 0.0
H467 H 0.45862 0.78978 0.51969 0.0
H468 H 0.47616 0.74529 0.50206 0.0
H469 H 0.50176 0.77022 0.53837 0.0
H470 H 0.50713 0.6845 0.65689 0.0
H471 H 0.52097 0.6251 0.6224 0.0
H472 H 0.46798 0.67088 0.52262 0.0
C473 C 0.4283 0.79812 0.60052 0.0
C474 C 0.42454 0.81201 0.63776 0.0
C475 C 0.44308 0.79246 0.66727 0.0
C476 C 0.46407 0.75954 0.65995 0.0
C477 C 0.46597 0.74613 0.62307 0.0
C478 C 0.44818 0.76468 0.59394 0.0
C479 C 0.44998 0.74205 0.55776 0.0
C480 C 0.40999 0.73221 0.54342 0.0
C481 C 0.47301 0.76309 0.5277 0.0
C482 C 0.47068 0.70732 0.57128 0.0
C483 C 0.48075 0.71066 0.60873 0.0
C484 C 0.49954 0.68169 0.62753 0.0
C485 C 0.50739 0.64816 0.60774 0.0
C486 C 0.49546 0.64361 0.56999 0.0
C487 C 0.47741 0.67377 0.55149 0.0
H488 H 0.89415 0.9505 0.80411 0.0
H489 H 0.90136 0.82833 0.79632 0.0
H490 H 0.92343 0.83326 0.73082 0.0
H491 H 0.8629 0.96609 0.70625 0.0
H492 H 0.89078 0.00846 0.70096 0.0
H493 H 0.87281 0.99554 0.74659 0.0
H494 H 0.94091 0.99797 0.77357 0.0
H495 H 0.95912 0.01059 0.72801 0.0
H496 H 0.97747 0.96977 0.75198 0.0
H497 H 0.94838 0.85053 0.6689 0.0
H498 H 0.97297 0.8794 0.61117 0.0
H499 H 0.95005 0.9911 0.65722 0.0
C500 C 0.89984 0.92495 0.78823 0.0
C501 C 0.89633 0.88905 0.80503 0.0
C502 C 0.90428 0.85606 0.78382 0.0
C503 C 0.91669 0.85855 0.74666 0.0
C504 C 0.92085 0.89426 0.73108 0.0
C505 C 0.9125 0.92693 0.75089 0.0
C506 C 0.92101 0.96167 0.72749 0.0
C507 C 0.88471 0.98427 0.71987 0.0
C508 C 0.95144 0.98645 0.7464 0.0
C509 C 0.93591 0.94327 0.69182 0.0
C510 C 0.93538 0.90437 0.69466 0.0
C511 C 0.94868 0.88096 0.66608 0.0
C512 C 0.96277 0.89772 0.63345 0.0
C513 C 0.96344 0.93756 0.62956 0.0
C514 C 0.94976 0.96059 0.65924 0.0
H515 H 0.5724 0.09107 0.32397 0.0
H516 H 0.69378 0.10098 0.30776 0.0
H517 H 0.68739 0.07334 0.24424 0.0
H518 H 0.55913 0.00239 0.26861 0.0
H519 H 0.51456 0.01831 0.24982 0.0
H520 H 0.52945 0.03349 0.29598 0.0
H521 H 0.52191 0.10339 0.27589 0.0
H522 H 0.50726 0.0885 0.22971 0.0
H523 H 0.54692 0.12022 0.23503 0.0
H524 H 0.66688 0.05309 0.17979 0.0
H525 H 0.63396 0.03917 0.12002 0.0
H526 H 0.52598 0.04233 0.17838 0.0
C527 C 0.5977 0.08674 0.3073 0.0
C528 C 0.6336 0.09792 0.32088 0.0
C529 C 0.66607 0.09196 0.29821 0.0
C530 C 0.66271 0.07644 0.26202 0.0
C531 C 0.62674 0.06673 0.24908 0.0
C532 C 0.59485 0.07126 0.27118 0.0
C533 C 0.55921 0.06131 0.24967 0.0
C534 C 0.53943 0.02682 0.26705 0.0
C535 C 0.53226 0.09539 0.24744 0.0
C536 C 0.57592 0.0518 0.21161 0.0
C537 C 0.61494 0.05475 0.21192 0.0
C538 C 0.63639 0.05001 0.17934 0.0
C539 C 0.61743 0.04229 0.14551 0.0
C540 C 0.57742 0.03943 0.14456 0.0
C541 C 0.55661 0.04374 0.17825 0.0
H542 H 0.45051 0.60394 0.20406 0.0
H543 H 0.32842 0.60935 0.21484 0.0
H544 H 0.33339 0.59142 0.28188 0.0
H545 H 0.46227 0.52149 0.26512 0.0
H546 H 0.50638 0.5385 0.28435 0.0
H547 H 0.49284 0.55106 0.2372 0.0
H548 H 0.5001 0.62197 0.25441 0.0
H549 H 0.51319 0.60966 0.30173 0.0
H550 H 0.47391 0.64103 0.29366 0.0
H551 H 0.35217 0.57832 0.34856 0.0
H552 H 0.38282 0.56207 0.40891 0.0
H553 H 0.49229 0.56056 0.35347 0.0
C554 C 0.42493 0.60077 0.22057 0.0
C555 C 0.38909 0.60773 0.20469 0.0
C556 C 0.35604 0.60363 0.22677 0.0
C557 C 0.35862 0.59373 0.26477 0.0
C558 C 0.39444 0.58755 0.27989 0.0
C559 C 0.42695 0.59015 0.25834 0.0
C560 C 0.46187 0.58139 0.28134 0.0
C561 C 0.48202 0.546 0.2661 0.0
C562 C 0.48885 0.61556 0.28287 0.0
C563 C 0.44394 0.57407 0.31928 0.0
C564 C 0.40507 0.57822 0.31795 0.0
C565 C 0.38253 0.57449 0.3499 0.0
C566 C 0.40017 0.56554 0.38402 0.0
C567 C 0.43978 0.55987 0.38564 0.0
C568 C 0.46187 0.56436 0.35286 0.0
H569 H 0.08281 0.451 0.6886 0.0
H570 H 0.08164 0.33094 0.71478 0.0
H571 H 0.05414 0.34468 0.77599 0.0
H572 H 0.11518 0.47882 0.77725 0.0
H573 H 0.08801 0.52179 0.78045 0.0
H574 H 0.10109 0.50318 0.7351 0.0
H575 H 0.03061 0.50227 0.71501 0.0
H576 H 0.01728 0.52099 0.76037 0.0
H577 H 0.99644 0.47756 0.7435 0.0
H578 H 0.03537 0.36929 0.83628 0.0
H579 H 0.02651 0.40514 0.89493 0.0
H580 H 0.0406 0.51041 0.83435 0.0
C581 C 0.07614 0.42758 0.70694 0.0
C582 C 0.08334 0.38973 0.69584 0.0
C583 C 0.07485 0.36006 0.72128 0.0
C584 C 0.05944 0.36753 0.75655 0.0
C585 C 0.05301 0.40488 0.76661 0.0
C586 C 0.0611 0.43457 0.74285 0.0
C587 C 0.05514 0.47219 0.7628 0.0
C588 C 0.09206 0.49534 0.76397 0.0
C589 C 0.02294 0.49457 0.74431 0.0
C590 C 0.04388 0.45866 0.80173 0.0
C591 C 0.0424 0.41964 0.80279 0.0
C592 C 0.03575 0.39986 0.83581 0.0
C593 C 0.031 0.42042 0.86895 0.0
C594 C 0.03275 0.46033 0.86886 0.0
C595 C 0.03851 0.47988 0.83478 0.0
H596 H 0.80381 0.95288 0.90918 0.0
H597 H 0.78506 0.83184 0.90559 0.0
H598 H 0.7184 0.84128 0.92474 0.0
H599 H 0.7479 0.96946 0.99199 0.0
H600 H 0.7298 0.01428 0.97626 0.0
H601 H 0.77541 -0.00185 0.9603 0.0
H602 H 0.75365 0.00522 0.89108 0.0
H603 H 0.70793 0.02132 0.90685 0.0
H604 H 0.71131 0.98133 0.87544 0.0
H605 H 0.6541 0.86374 0.94353 0.0
H606 H 0.59708 0.89748 0.96563 0.0
H607 H 0.65846 0.0038 0.96057 0.0
C608 C 0.78545 0.92854 0.9123 0.0
C609 C 0.79914 0.89168 0.90595 0.0
C610 C 0.77478 0.86026 0.91054 0.0
C611 C 0.73698 0.86535 0.92122 0.0
C612 C 0.72423 0.90204 0.92749 0.0
C613 C 0.74774 0.9331 0.92358 0.0
C614 C 0.72729 0.9693 0.93378 0.0
C615 C 0.74623 0.98894 0.9676 0.0
C616 C 0.7249 0.99585 0.89975 0.0
C617 C 0.68871 0.95368 0.94406 0.0
C618 C 0.68743 0.91489 0.93978 0.0
C619 C 0.65473 0.89413 0.94713 0.0
C620 C 0.62248 0.91353 0.95955 0.0
C621 C 0.62341 0.95319 0.96498 0.0
C622 C 0.65699 0.97343 0.95696 0.0
H623 H 0.70365 0.06562 0.43191 0.0
H624 H 0.7172 0.18613 0.45165 0.0
H625 H 0.77698 0.17388 0.48516 0.0
H626 H 0.75149 0.0305 0.51751 0.0
H627 H 0.77381 0.99256 0.49184 0.0
H628 H 0.72818 0.00988 0.47722 0.0
H629 H 0.75477 0.02228 0.41041 0.0
H630 H 0.80037 0.0052 0.42481 0.0
H631 H 0.79606 0.05181 0.40505 0.0
H632 H 0.83922 0.1489 0.51055 0.0
H633 H 0.89932 0.11424 0.52084 0.0
H634 H 0.84741 0.01205 0.47707 0.0
C635 C 0.71883 0.08957 0.44355 0.0
C636 C 0.70536 0.12688 0.43905 0.0
C637 C 0.7262 0.15717 0.45528 0.0
C638 C 0.76042 0.15051 0.47426 0.0
C639 C 0.77358 0.11347 0.47665 0.0
C640 C 0.75337 0.08355 0.46157 0.0
C641 C 0.77565 0.04715 0.46319 0.0
C642 C 0.75611 0.01832 0.48898 0.0
C643 C 0.7821 0.03068 0.42352 0.0
C644 C 0.81212 0.06144 0.48033 0.0
C645 C 0.81011 0.09951 0.48899 0.0
C646 C 0.84098 0.11902 0.50414 0.0
C647 C 0.87492 0.09919 0.50992 0.0
C648 C 0.87782 0.06066 0.49954 0.0
C649 C 0.84586 0.04157 0.48512 0.0
H650 H 0.28976 0.6502 0.08014 0.0
H651 H 0.35788 0.54863 0.07581 0.0
H652 H 0.30561 0.5149 0.0434 0.0
H653 H 0.20844 0.60663 0.10598 0.0
H654 H 0.17653 0.63614 0.07967 0.0
H655 H 0.22159 0.65448 0.09453 0.0
H656 H 0.23856 0.67112 0.02564 0.0
H657 H 0.19319 0.65323 0.0105 0.0
H658 H 0.23605 0.63499 0.98979 0.0
H659 H 0.24323 0.49046 0.01926 0.0
H660 H 0.17563 0.47664 0.0074 0.0
H661 H 0.14807 0.59392 0.03068 0.0
C662 C 0.29419 0.62134 0.07087 0.0
C663 C 0.32792 0.6021 0.0796 0.0
C664 C 0.33229 0.56385 0.06873 0.0
C665 C 0.30284 0.54459 0.05029 0.0
C666 C 0.26933 0.56406 0.04316 0.0
C667 C 0.26495 0.60168 0.05301 0.0
C668 C 0.22471 0.61481 0.04696 0.0
C669 C 0.20679 0.62881 0.08399 0.0
C670 C 0.22304 0.64534 0.01639 0.0
C671 C 0.20673 0.57837 0.03359 0.0
C672 C 0.23302 0.54962 0.03071 0.0
C673 C 0.2225 0.51288 0.02089 0.0
C674 C 0.18405 0.50529 0.01428 0.0
C675 C 0.15662 0.53419 0.01825 0.0
C676 C 0.16837 0.57124 0.02744 0.0
H677 H 0.22837 0.36432 0.60645 0.0
H678 H 0.15857 0.46491 0.60075 0.0
H679 H 0.21483 0.50255 0.58277 0.0
H680 H 0.31061 0.40887 0.64525 0.0
H681 H 0.34347 0.38052 0.61856 0.0
H682 H 0.29774 0.36164 0.63086 0.0
H683 H 0.28374 0.34784 0.56054 0.0
H684 H 0.32952 0.36643 0.54805 0.0
H685 H 0.28741 0.38557 0.52682 0.0
H686 H 0.27856 0.52873 0.56486 0.0
H687 H 0.34495 0.5418 0.54773 0.0
H688 H 0.37269 0.42363 0.56534 0.0
C689 C 0.22478 0.39416 0.60092 0.0
C690 C 0.18909 0.41172 0.60466 0.0
C691 C 0.18574 0.45101 0.59811 0.0
C692 C 0.21746 0.47254 0.58784 0.0
C693 C 0.25224 0.4543 0.58446 0.0
C694 C 0.25606 0.41601 0.59078 0.0
C695 C 0.29656 0.40322 0.58538 0.0
C696 C 0.31305 0.38765 0.62221 0.0
C697 C 0.29946 0.37405 0.55328 0.0
C698 C 0.31495 0.44029 0.57478 0.0
C699 C 0.28894 0.46941 0.57447 0.0
C700 C 0.2992 0.50617 0.56506 0.0
C701 C 0.33701 0.51328 0.55538 0.0
C702 C 0.36412 0.48375 0.55522 0.0
C703 C 0.35279 0.44688 0.56536 0.0
H704 H 0.92225 0.78494 0.87223 0.0
H705 H 0.91791 0.84685 0.97764 0.0
H706 H 0.9503 0.7936 0.0095 0.0
H707 H 0.90017 0.69697 0.90966 0.0
H708 H 0.93046 0.67063 0.87831 0.0
H709 H 0.91108 0.71513 0.86361 0.0
H710 H 0.9787 0.74023 0.8499 0.0
H711 H 0.99835 0.69569 0.86452 0.0
H712 H 0.01405 0.739 0.88644 0.0
H713 H 0.98042 0.73196 0.02971 0.0
H714 H 0.00123 0.66592 0.03791 0.0
H715 H 0.98339 0.64494 0.9188 0.0
C716 C 0.92899 0.78772 0.90184 0.0
C717 C 0.91838 0.82014 0.92247 0.0
C718 C 0.92625 0.82224 0.96143 0.0
C719 C 0.94473 0.7923 0.9796 0.0
C720 C 0.95478 0.76062 0.9583 0.0
C721 C 0.94697 0.75817 0.92029 0.0
C722 C 0.95764 0.72007 0.9042 0.0
C723 C 0.92276 0.6995 0.88801 0.0
C724 C 0.98906 0.724 0.87452 0.0
C725 C 0.97209 0.70101 0.93923 0.0
C726 C 0.97083 0.72497 0.97005 0.0
C727 C 0.98175 0.71307 0.00572 0.0
C728 C 0.99358 0.67552 0.01006 0.0
C729 C 0.99386 0.65027 0.97897 0.0
C730 C 0.98351 0.66352 0.94309 0.0
H731 H 0.42009 0.7124 0.06259 0.0
H732 H 0.37826 0.73307 0.17564 0.0
H733 H 0.39118 0.80107 0.16845 0.0
H734 H 0.49594 0.78001 0.06617 0.0
H735 H 0.49061 0.79476 0.01801 0.0
H736 H 0.47733 0.74758 0.03152 0.0
H737 H 0.41001 0.75833 0.00469 0.0
H738 H 0.42306 0.80561 0.99119 0.0
H739 H 0.38255 0.79802 0.02108 0.0
H740 H 0.40865 0.86598 0.14987 0.0
H741 H 0.43196 0.92485 0.12165 0.0
H742 H 0.46302 0.86318 0.02022 0.0
C743 C 0.41357 0.73135 0.08569 0.0
C744 C 0.39854 0.71752 0.1198 0.0
C745 C 0.39045 0.74303 0.14953 0.0
C746 C 0.39738 0.78172 0.14562 0.0
C747 C 0.41236 0.79445 0.11179 0.0
C748 C 0.42051 0.77017 0.08234 0.0
C749 C 0.43732 0.7914 0.04935 0.0
C750 C 0.4777 0.77762 0.04078 0.0
C751 C 0.4117 0.78815 0.01452 0.0
C752 C 0.43747 0.83131 0.06506 0.0
C753 C 0.42271 0.83231 0.10102 0.0
C754 C 0.42024 0.86566 0.1217 0.0
C755 C 0.4336 0.89897 0.10535 0.0
C756 C 0.44939 0.89873 0.06867 0.0
C757 C 0.451 0.86438 0.04822 0.0
H758 H 0.11295 0.2922 0.54822 0.0
H759 H 0.12529 0.27616 0.66845 0.0
H760 H 0.11638 0.20764 0.66037 0.0
H761 H 0.04009 0.22816 0.53534 0.0
H762 H 0.05564 0.20954 0.49066 0.0
H763 H 0.0687 0.25675 0.50451 0.0
H764 H 0.1396 0.24038 0.49551 0.0
H765 H 0.12672 0.19307 0.48136 0.0
H766 H 0.15937 0.20034 0.51969 0.0
H767 H 0.09614 0.14422 0.64186 0.0
H768 H 0.06973 0.08665 0.61243 0.0
H769 H 0.07326 0.14074 0.5033 0.0
C770 C 0.11475 0.27394 0.57251 0.0
C771 C 0.11955 0.28916 0.60894 0.0
C772 C 0.12129 0.26481 0.64037 0.0
C773 C 0.1165 0.22592 0.63605 0.0
C774 C 0.11048 0.21173 0.60004 0.0
C775 C 0.11007 0.23472 0.56866 0.0
C776 C 0.10007 0.21216 0.53365 0.0
C777 C 0.06398 0.22757 0.51496 0.0
C778 C 0.13344 0.21145 0.50591 0.0
C779 C 0.09336 0.17348 0.55067 0.0
C780 C 0.09984 0.17399 0.589 0.0
C781 C 0.0919 0.14304 0.61174 0.0
C782 C 0.07672 0.11064 0.5949 0.0
C783 C 0.0701 0.10938 0.55574 0.0
C784 C 0.07908 0.1409 0.53321 0.0
H785 H 0.59011 0.20674 0.46069 0.0
H786 H 0.59522 0.21969 0.33928 0.0
H787 H 0.55916 0.27859 0.34417 0.0
H788 H 0.49558 0.24915 0.47464 0.0
H789 H 0.50936 0.27319 0.51732 0.0
H790 H 0.53148 0.22909 0.5045 0.0
H791 H 0.59756 0.26084 0.50831 0.0
H792 H 0.57567 0.30486 0.52136 0.0
H793 H 0.60674 0.30278 0.48117 0.0
H794 H 0.5283 0.33841 0.36144 0.0
H795 H 0.50681 0.39774 0.39091 0.0
H796 H 0.52209 0.34841 0.50142 0.0
C797 C 0.58334 0.22178 0.43512 0.0
C798 C 0.59487 0.20789 0.39952 0.0
C799 C 0.58569 0.22879 0.3668 0.0
C800 C 0.56532 0.26252 0.36924 0.0
C801 C 0.55438 0.27532 0.40461 0.0
C802 C 0.56314 0.25583 0.43703 0.0
C803 C 0.55066 0.2777 0.47167 0.0
C804 C 0.51993 0.25598 0.49331 0.0
C805 C 0.58469 0.28711 0.49711 0.0
C806 C 0.5346 0.31294 0.45354 0.0
C807 C 0.53661 0.3106 0.41479 0.0
C808 C 0.52605 0.34046 0.39174 0.0
C809 C 0.51395 0.37406 0.40873 0.0
C810 C 0.51251 0.37754 0.44839 0.0
C811 C 0.52212 0.34623 0.47102 0.0
loop_
_geom_bond_atom_site_label_1
_geom_bond_atom_site_label_2
_geom_bond_distance
_geom_bond_site_symmetry_2
_ccdc_geom_bond_type
H0 C3 0.931 . S
H1 C6 0.928 . S
H2 C8 0.930 . S
C3 H0 0.931 . S
C3 C4 1.413 . S
C3 C5 1.360 . S
C4 C3 1.413 . S
C4 C8 1.429 . S
C5 C3 1.360 . S
C5 C6 1.372 . S
C6 H1 0.928 . S
C6 C5 1.372 . S
C6 C7 1.404 . S
C7 C6 1.404 . S
C7 C8 1.391 . S
C8 H2 0.930 . S
C8 C4 1.429 . S
C8 C7 1.391 . S
H9 C12 0.931 . S
H10 C15 0.928 . S
H11 C17 0.930 . S
C12 H9 0.931 . S
C12 C13 1.413 . S
C12 C14 1.360 . S
C13 C12 1.413 . S
C13 C17 1.429 . S
C14 C12 1.360 . S
C14 C15 1.372 . S
C15 H10 0.928 . S
C15 C14 1.372 . S
C15 C16 1.404 . S
C16 C15 1.404 . S
C16 C17 1.391 . S
C17 H11 0.930 . S
C17 C13 1.429 . S
C17 C16 1.391 . S
H18 C21 0.931 . S
H19 C24 0.928 . S
H20 C26 0.930 . S
C21 H18 0.931 . S
C21 C22 1.413 . S
C21 C23 1.360 . S
C22 C21 1.413 . S
C22 C26 1.429 . S
C23 C21 1.360 . S
C23 C24 1.372 . S
C24 H19 0.928 . S
C24 C23 1.372 . S
C24 C25 1.404 . S
C25 C24 1.404 . S
C25 C26 1.391 . S
C26 H20 0.930 . S
C26 C22 1.429 . S
C26 C25 1.391 . S
H27 C30 0.931 . S
H28 C33 0.928 . S
H29 C35 0.930 . S
C30 H27 0.931 . S
C30 C31 1.413 . S
C30 C32 1.360 . S
C31 C30 1.413 . S
C31 C35 1.429 . S
C32 C30 1.360 . S
C32 C33 1.372 . S
C33 H28 0.928 . S
C33 C32 1.372 . S
C33 C34 1.404 . S
C34 C33 1.404 . S
C34 C35 1.391 . S
C35 H29 0.930 . S
C35 C31 1.429 . S
C35 C34 1.391 . S
H36 C39 0.931 . S
H37 C42 0.928 . S
H38 C44 0.930 . S
C39 H36 0.931 . S
C39 C40 1.413 . S
C39 C41 1.360 . S
C40 C39 1.413 . S
C40 C44 1.429 . S
C41 C39 1.360 . S
C41 C42 1.372 . S
C42 H37 0.928 . S
C42 C41 1.372 . S
C42 C43 1.404 . S
C43 C42 1.404 . S
C43 C44 1.391 . S
C44 H38 0.930 . S
C44 C40 1.429 . S
C44 C43 1.391 . S
H45 C48 0.931 . S
H46 C51 0.928 . S
H47 C53 0.930 . S
C48 H45 0.931 . S
C48 C49 1.413 . S
C48 C50 1.360 . S
C49 C48 1.413 . S
C49 C53 1.429 . S
C50 C48 1.360 . S
C50 C51 1.372 . S
C51 H46 0.928 . S
C51 C50 1.372 . S
C51 C52 1.404 . S
C52 C51 1.404 . S
C52 C53 1.391 . S
C53 H47 0.930 . S
C53 C49 1.429 . S
C53 C52 1.391 . S
H54 C57 0.931 . S
H55 C60 0.928 . S
H56 C62 0.930 . S
C57 H54 0.931 . S
C57 C58 1.413 . S
C57 C59 1.360 . S
C58 C57 1.413 . S
C58 C62 1.429 . S
C59 C57 1.360 . S
C59 C60 1.372 . S
C60 H55 0.928 . S
C60 C59 1.372 . S
C60 C61 1.404 . S
C61 C60 1.404 . S
C61 C62 1.391 . S
C62 H56 0.930 . S
C62 C58 1.429 . S
C62 C61 1.391 . S
H63 C66 0.931 . S
H64 C69 0.928 . S
H65 C71 0.930 . S
C66 H63 0.931 . S
C66 C67 1.413 . S
C66 C68 1.360 . S
C67 C66 1.413 . S
C67 C71 1.429 . S
C68 C66 1.360 . S
C68 C69 1.372 . S
C69 H64 0.928 . S
C69 C68 1.372 . S
C69 C70 1.404 . S
C70 C69 1.404 . S
C70 C71 1.391 . S
C71 H65 0.930 . S
C71 C67 1.429 . S
C71 C70 1.391 . S
O72 Zn73 1.953 . S
O72 C88 1.225 1_655 S
Zn73 O72 1.953 . S
Zn73 O74 1.949 1_655 S
Zn73 O80 1.919 . S
Zn73 O85 1.924 . S
O74 Zn73 1.949 1_455 S
O74 Zn75 1.923 1_445 S
O74 Zn76 1.950 . S
O74 Zn77 1.945 1_545 S
Zn75 O74 1.923 1_665 S
Zn75 O78 1.933 . S
Zn75 O81 1.941 1_565 S
Zn75 O82 1.965 1_665 S
Zn76 O74 1.950 . S
Zn76 O83 1.938 . S
Zn76 O84 1.890 1_545 S
Zn76 O94 1.953 . S
Zn77 O74 1.945 1_565 S
Zn77 O79 1.932 1_455 S
Zn77 O86 1.977 . S
Zn77 O87 1.910 1_455 S
O78 Zn75 1.933 . S
O78 C89 1.226 . S
O79 Zn77 1.932 1_655 S
O79 C89 1.307 . S
O80 Zn73 1.919 . S
O80 C91 1.253 . S
O81 Zn75 1.941 1_545 S
O81 C91 1.283 . S
O82 Zn75 1.965 1_445 S
O82 C90 1.303 . S
O83 Zn76 1.938 . S
O83 C90 1.247 . S
O84 Zn76 1.890 1_565 S
O84 C92 1.327 . S
O85 Zn73 1.924 . S
O85 C93 1.311 1_545 S
O86 Zn77 1.977 . S
O86 C92 1.272 . S
O87 Zn77 1.910 1_655 S
O87 C93 1.231 . S
C88 O72 1.225 1_455 S
C88 O94 1.298 . S
C89 O78 1.226 . S
C89 O79 1.307 . S
C90 O82 1.303 . S
C90 O83 1.247 . S
C91 O80 1.253 . S
C91 O81 1.283 . S
C92 O84 1.327 . S
C92 O86 1.272 . S
C93 O85 1.311 1_565 S
C93 O87 1.231 . S
O94 Zn76 1.953 . S
O94 C88 1.298 . S
O95 Zn96 1.953 . S
O95 C111 1.225 . S
Zn96 O95 1.953 . S
Zn96 O97 1.949 1_556 S
Zn96 O103 1.919 . S
Zn96 O108 1.920 1_556 S
O97 Zn96 1.949 1_554 S
O97 Zn98 1.923 1_544 S
O97 Zn99 1.950 . S
O97 Zn100 1.945 1_545 S
Zn98 O97 1.923 1_566 S
Zn98 O101 1.933 1_556 S
Zn98 O104 1.941 . S
Zn98 O105 1.965 . S
Zn99 O97 1.950 . S
Zn99 O106 1.938 . S
Zn99 O107 1.906 . S
Zn99 O117 1.953 . S
Zn100 O97 1.945 1_565 S
Zn100 O102 1.932 . S
Zn100 O109 1.977 1_565 S
Zn100 O110 1.910 1_565 S
O101 Zn98 1.933 1_554 S
O101 C112 1.226 . S
O102 Zn100 1.932 . S
O102 C112 1.307 . S
O103 Zn96 1.919 . S
O103 C114 1.253 1_545 S
O104 Zn98 1.941 . S
O104 C114 1.283 . S
O105 Zn98 1.965 . S
O105 C113 1.303 . S
O106 Zn99 1.938 . S
O106 C113 1.247 1_544 S
O107 Zn99 1.906 . S
O107 C115 1.304 . S
O108 Zn96 1.920 1_554 S
O108 C116 1.321 . S
O109 Zn100 1.977 1_545 S
O109 C115 1.272 . S
O110 Zn100 1.910 1_545 S
O110 C116 1.231 . S
C111 O95 1.225 . S
C111 O117 1.298 1_556 S
C112 O101 1.226 . S
C112 O102 1.307 . S
C113 O105 1.303 . S
C113 O106 1.247 1_566 S
C114 O103 1.253 1_565 S
C114 O104 1.283 . S
C115 O107 1.304 . S
C115 O109 1.272 . S
C116 O108 1.321 . S
C116 O110 1.231 . S
O117 Zn99 1.953 . S
O117 C111 1.298 1_554 S
O118 Zn119 1.953 . S
O118 C134 1.225 . S
Zn119 O118 1.953 . S
Zn119 O120 1.949 . S
Zn119 O126 1.919 . S
Zn119 O131 1.924 . S
O120 Zn119 1.949 . S
O120 Zn121 1.923 . S
O120 Zn122 1.950 . S
O120 Zn123 1.945 . S
Zn121 O120 1.923 . S
Zn121 O124 1.933 . S
Zn121 O127 1.941 . S
Zn121 O128 1.965 . S
Zn122 O120 1.950 . S
Zn122 O129 1.938 . S
Zn122 O130 1.906 . S
Zn122 O140 1.953 . S
Zn123 O120 1.945 . S
Zn123 O125 1.932 . S
Zn123 O132 1.977 . S
Zn123 O133 1.910 . S
O124 Zn121 1.933 . S
O124 C135 1.226 . S
O125 Zn123 1.932 . S
O125 C135 1.307 . S
O126 Zn119 1.919 . S
O126 C137 1.253 . S
O127 Zn121 1.941 . S
O127 C137 1.283 . S
O128 Zn121 1.965 . S
O128 C136 1.303 . S
O129 Zn122 1.938 . S
O129 C136 1.247 . S
O130 Zn122 1.906 . S
O130 C138 1.304 . S
O131 Zn119 1.924 . S
O131 C139 1.311 . S
O132 Zn123 1.977 . S
O132 C138 1.272 . S
O133 Zn123 1.910 . S
O133 C139 1.231 . S
C134 O118 1.225 . S
C134 O140 1.298 . S
C135 O124 1.226 . S
C135 O125 1.307 . S
C136 O128 1.303 . S
C136 O129 1.247 . S
C137 O126 1.253 . S
C137 O127 1.283 . S
C138 O130 1.304 . S
C138 O132 1.272 . S
C139 O131 1.311 . S
C139 O133 1.231 . S
O140 Zn122 1.953 . S
O140 C134 1.298 . S
O141 Zn142 1.953 . S
O141 C157 1.225 . S
Zn142 O141 1.953 . S
Zn142 O143 1.949 1_655 S
Zn142 O149 1.919 . S
Zn142 O154 1.924 . S
O143 Zn142 1.949 1_455 S
O143 Zn144 1.923 1_454 S
O143 Zn145 1.950 . S
O143 Zn146 1.945 1_554 S
Zn144 O143 1.923 1_656 S
Zn144 O147 1.933 1_655 S
Zn144 O150 1.941 . S
Zn144 O151 1.965 . S
Zn145 O143 1.950 . S
Zn145 O152 1.938 . S
Zn145 O153 1.906 . S
Zn145 O163 1.953 . S
Zn146 O143 1.945 1_556 S
Zn146 O148 1.932 . S
Zn146 O155 1.977 1_556 S
Zn146 O156 1.910 1_556 S
O147 Zn144 1.933 1_455 S
O147 C158 1.226 . S
O148 Zn146 1.932 . S
O148 C158 1.307 . S
O149 Zn142 1.919 . S
O149 C160 1.253 1_554 S
O150 Zn144 1.941 . S
O150 C160 1.283 . S
O151 Zn144 1.965 . S
O151 C159 1.303 . S
O152 Zn145 1.938 . S
O152 C159 1.247 1_454 S
O153 Zn145 1.906 . S
O153 C161 1.304 . S
O154 Zn142 1.924 . S
O154 C162 1.311 1_655 S
O155 Zn146 1.977 1_554 S
O155 C161 1.272 . S
O156 Zn146 1.910 1_554 S
O156 C162 1.231 . S
C157 O141 1.225 . S
C157 O163 1.298 1_655 S
C158 O147 1.226 . S
C158 O148 1.307 . S
C159 O151 1.303 . S
C159 O152 1.247 1_656 S
C160 O149 1.253 1_556 S
C160 O150 1.283 . S
C161 O153 1.304 . S
C161 O155 1.272 . S
C162 O154 1.311 1_455 S
C162 O156 1.231 . S
O163 Zn145 1.953 . S
O163 C157 1.298 1_455 S
H164 C176 0.930 . S
H165 C178 0.930 . S
H166 C179 0.930 . S
H167 C183 0.959 . S
H168 C183 0.959 . S
H169 C183 0.961 . S
H170 C184 0.960 . S
H171 C184 0.961 . S
H172 C184 0.959 . S
H173 C187 0.929 . S
H174 C188 0.931 . S
H175 C190 0.930 . S
C176 H164 0.930 . S
C176 C177 1.399 . S
C176 C181 1.399 . S
C177 C176 1.399 . S
C177 C178 1.376 . S
C178 H165 0.930 . S
C178 C177 1.376 . S
C178 C179 1.388 . S
C179 H166 0.930 . S
C179 C178 1.388 . S
C179 C180 1.390 . S
C180 C179 1.390 . S
C180 C181 1.394 . S
C180 C186 1.465 . S
C181 C176 1.399 . S
C181 C180 1.394 . S
C181 C182 1.516 . S
C182 C181 1.516 . S
C182 C183 1.502 . S
C182 C184 1.561 . S
C182 C185 1.526 . S
C183 H167 0.959 . S
C183 H168 0.959 . S
C183 H169 0.961 . S
C183 C182 1.502 . S
C184 H170 0.960 . S
C184 H171 0.961 . S
C184 H172 0.959 . S
C184 C182 1.561 . S
C185 C182 1.526 . S
C185 C186 1.396 . S
C185 C190 1.390 . S
C186 C180 1.465 . S
C186 C185 1.396 . S
C186 C187 1.399 . S
C187 H173 0.929 . S
C187 C186 1.399 . S
C187 C188 1.385 . S
C188 H174 0.931 . S
C188 C187 1.385 . S
C188 C189 1.389 . S
C189 C188 1.389 . S
C189 C190 1.387 . S
C190 H175 0.930 . S
C190 C185 1.390 . S
C190 C189 1.387 . S
H191 C203 0.930 . S
H192 C205 0.930 . S
H193 C206 0.930 . S
H194 C210 0.959 . S
H195 C210 0.959 1_545 S
H196 C210 0.961 . S
H197 C211 0.960 . S
H198 C211 0.961 1_545 S
H199 C211 0.959 . S
H200 C214 0.929 . S
H201 C215 0.931 . S
H202 C217 0.930 . S
C203 H191 0.930 . S
C203 C204 1.399 . S
C203 C208 1.399 . S
C204 C203 1.399 . S
C204 C205 1.376 . S
C205 H192 0.930 . S
C205 C204 1.376 . S
C205 C206 1.388 . S
C206 H193 0.930 . S
C206 C205 1.388 . S
C206 C207 1.390 . S
C207 C206 1.390 . S
C207 C208 1.394 . S
C207 C213 1.465 . S
C208 C203 1.399 . S
C208 C207 1.394 . S
C208 C209 1.516 . S
C209 C208 1.516 . S
C209 C210 1.502 . S
C209 C211 1.561 . S
C209 C212 1.526 . S
C210 H194 0.959 . S
C210 H195 0.959 1_565 S
C210 H196 0.961 . S
C210 C209 1.502 . S
C211 H197 0.960 . S
C211 H198 0.961 1_565 S
C211 H199 0.959 . S
C211 C209 1.561 . S
C212 C209 1.526 . S
C212 C213 1.396 . S
C212 C217 1.390 . S
C213 C207 1.465 . S
C213 C212 1.396 . S
C213 C214 1.399 . S
C214 H200 0.929 . S
C214 C213 1.399 . S
C214 C215 1.385 . S
C215 H201 0.931 . S
C215 C214 1.385 . S
C215 C216 1.389 . S
C216 C215 1.389 . S
C216 C217 1.387 . S
C217 H202 0.930 . S
C217 C212 1.390 . S
C217 C216 1.387 . S
H218 C230 0.930 . S
H219 C232 0.930 . S
H220 C233 0.930 . S
H221 C237 0.959 . S
H222 C237 0.959 . S
H223 C237 0.961 . S
H224 C238 0.960 . S
H225 C238 0.961 . S
H226 C238 0.959 . S
H227 C241 0.929 . S
H228 C242 0.931 . S
H229 C244 0.930 . S
C230 H218 0.930 . S
C230 C231 1.399 . S
C230 C235 1.399 . S
C231 C230 1.399 . S
C231 C232 1.376 . S
C232 H219 0.930 . S
C232 C231 1.376 . S
C232 C233 1.388 . S
C233 H220 0.930 . S
C233 C232 1.388 . S
C233 C234 1.390 . S
C234 C233 1.390 . S
C234 C235 1.394 . S
C234 C240 1.465 . S
C235 C230 1.399 . S
C235 C234 1.394 . S
C235 C236 1.516 . S
C236 C235 1.516 . S
C236 C237 1.502 . S
C236 C238 1.561 . S
C236 C239 1.526 . S
C237 H221 0.959 . S
C237 H222 0.959 . S
C237 H223 0.961 . S
C237 C236 1.502 . S
C238 H224 0.960 . S
C238 H225 0.961 . S
C238 H226 0.959 . S
C238 C236 1.561 . S
C239 C236 1.526 . S
C239 C240 1.396 . S
C239 C244 1.390 . S
C240 C234 1.465 . S
C240 C239 1.396 . S
C240 C241 1.399 . S
C241 H227 0.929 . S
C241 C240 1.399 . S
C241 C242 1.385 . S
C242 H228 0.931 . S
C242 C241 1.385 . S
C242 C243 1.389 . S
C243 C242 1.389 . S
C243 C244 1.387 . S
C244 H229 0.930 . S
C244 C239 1.390 . S
C244 C243 1.387 . S
H245 C257 0.930 . S
H246 C259 0.930 . S
H247 C260 0.930 . S
H248 C264 0.959 . S
H249 C264 0.959 . S
H250 C264 0.961 . S
H251 C265 0.960 . S
H252 C265 0.961 . S
H253 C265 0.959 1_455 S
H254 C268 0.929 . S
H255 C269 0.931 . S
H256 C271 0.930 . S
C257 H245 0.930 . S
C257 C258 1.399 . S
C257 C262 1.399 . S
C258 C257 1.399 . S
C258 C259 1.376 . S
C259 H246 0.930 . S
C259 C258 1.376 . S
C259 C260 1.388 . S
C260 H247 0.930 . S
C260 C259 1.388 . S
C260 C261 1.390 . S
C261 C260 1.390 . S
C261 C262 1.394 . S
C261 C267 1.465 . S
C262 C257 1.399 . S
C262 C261 1.394 . S
C262 C263 1.516 . S
C263 C262 1.516 . S
C263 C264 1.502 . S
C263 C265 1.561 . S
C263 C266 1.526 . S
C264 H248 0.959 . S
C264 H249 0.959 . S
C264 H250 0.961 . S
C264 C263 1.502 . S
C265 H251 0.960 . S
C265 H252 0.961 . S
C265 H253 0.959 1_655 S
C265 C263 1.561 . S
C266 C263 1.526 . S
C266 C267 1.396 . S
C266 C271 1.390 . S
C267 C261 1.465 . S
C267 C266 1.396 . S
C267 C268 1.399 . S
C268 H254 0.929 . S
C268 C267 1.399 . S
C268 C269 1.385 . S
C269 H255 0.931 . S
C269 C268 1.385 . S
C269 C270 1.389 . S
C270 C269 1.389 . S
C270 C271 1.387 . S
C271 H256 0.930 . S
C271 C266 1.390 . S
C271 C270 1.387 . S
H272 C284 0.930 . S
H273 C286 0.930 . S
H274 C287 0.930 . S
H275 C291 0.959 . S
H276 C291 0.959 . S
H277 C291 0.961 . S
H278 C292 0.960 . S
H279 C292 0.961 1_556 S
H280 C292 0.959 . S
H281 C295 0.929 . S
H282 C296 0.931 . S
H283 C298 0.930 . S
C284 H272 0.930 . S
C284 C285 1.399 . S
C284 C289 1.399 . S
C285 C284 1.399 . S
C285 C286 1.376 . S
C286 H273 0.930 . S
C286 C285 1.376 . S
C286 C287 1.388 . S
C287 H274 0.930 . S
C287 C286 1.388 . S
C287 C288 1.390 . S
C288 C287 1.390 . S
C288 C289 1.394 . S
C288 C294 1.465 . S
C289 C284 1.399 . S
C289 C288 1.394 . S
C289 C290 1.516 . S
C290 C289 1.516 . S
C290 C291 1.502 . S
C290 C292 1.561 . S
C290 C293 1.526 . S
C291 H275 0.959 . S
C291 H276 0.959 . S
C291 H277 0.961 . S
C291 C290 1.502 . S
C292 H278 0.960 . S
C292 H279 0.961 1_554 S
C292 H280 0.959 . S
C292 C290 1.561 . S
C293 C290 1.526 . S
C293 C294 1.396 . S
C293 C298 1.390 . S
C294 C288 1.465 . S
C294 C293 1.396 . S
C294 C295 1.399 . S
C295 H281 0.929 . S
C295 C294 1.399 . S
C295 C296 1.385 . S
C296 H282 0.931 . S
C296 C295 1.385 . S
C296 C297 1.389 . S
C297 C296 1.389 . S
C297 C298 1.387 . S
C298 H283 0.930 . S
C298 C293 1.390 . S
C298 C297 1.387 . S
H299 C311 0.930 . S
H300 C313 0.930 . S
H301 C314 0.930 . S
H302 C318 0.959 . S
H303 C318 0.959 . S
H304 C318 0.961 . S
H305 C319 0.960 . S
H306 C319 0.961 . S
H307 C319 0.959 . S
H308 C322 0.929 . S
H309 C323 0.931 . S
H310 C325 0.930 . S
C311 H299 0.930 . S
C311 C312 1.399 . S
C311 C316 1.399 . S
C312 C311 1.399 . S
C312 C313 1.376 . S
C313 H300 0.930 . S
C313 C312 1.376 . S
C313 C314 1.388 . S
C314 H301 0.930 . S
C314 C313 1.388 . S
C314 C315 1.390 . S
C315 C314 1.390 . S
C315 C316 1.394 . S
C315 C321 1.465 . S
C316 C311 1.399 . S
C316 C315 1.394 . S
C316 C317 1.516 . S
C317 C316 1.516 . S
C317 C318 1.502 . S
C317 C319 1.561 . S
C317 C320 1.526 . S
C318 H302 0.959 . S
C318 H303 0.959 . S
C318 H304 0.961 . S
C318 C317 1.502 . S
C319 H305 0.960 . S
C319 H306 0.961 . S
C319 H307 0.959 . S
C319 C317 1.561 . S
C320 C317 1.526 . S
C320 C321 1.396 . S
C320 C325 1.390 . S
C321 C315 1.465 . S
C321 C320 1.396 . S
C321 C322 1.399 . S
C322 H308 0.929 . S
C322 C321 1.399 . S
C322 C323 1.385 . S
C323 H309 0.931 . S
C323 C322 1.385 . S
C323 C324 1.389 . S
C324 C323 1.389 . S
C324 C325 1.387 . S
C325 H310 0.930 . S
C325 C320 1.390 . S
C325 C324 1.387 . S
H326 C338 0.930 . S
H327 C340 0.930 . S
H328 C341 0.930 . S
H329 C345 0.959 . S
H330 C345 0.959 . S
H331 C345 0.961 . S
H332 C346 0.960 . S
H333 C346 0.961 . S
H334 C346 0.959 . S
H335 C349 0.929 1_554 S
H336 C350 0.931 1_554 S
H337 C352 0.930 . S
C338 H326 0.930 . S
C338 C339 1.399 . S
C338 C343 1.399 . S
C339 C338 1.399 . S
C339 C340 1.376 . S
C340 H327 0.930 . S
C340 C339 1.376 . S
C340 C341 1.388 . S
C341 H328 0.930 . S
C341 C340 1.388 . S
C341 C342 1.390 . S
C342 C341 1.390 . S
C342 C343 1.394 . S
C342 C348 1.465 . S
C343 C338 1.399 . S
C343 C342 1.394 . S
C343 C344 1.516 . S
C344 C343 1.516 . S
C344 C345 1.502 . S
C344 C346 1.561 . S
C344 C347 1.526 . S
C345 H329 0.959 . S
C345 H330 0.959 . S
C345 H331 0.961 . S
C345 C344 1.502 . S
C346 H332 0.960 . S
C346 H333 0.961 . S
C346 H334 0.959 . S
C346 C344 1.561 . S
C347 C344 1.526 . S
C347 C348 1.396 . S
C347 C352 1.390 . S
C348 C342 1.465 . S
C348 C347 1.396 . S
C348 C349 1.399 . S
C349 H335 0.929 1_556 S
C349 C348 1.399 . S
C349 C350 1.385 . S
C350 H336 0.931 1_556 S
C350 C349 1.385 . S
C350 C351 1.389 . S
C351 C350 1.389 . S
C351 C352 1.387 . S
C352 H337 0.930 . S
C352 C347 1.390 . S
C352 C351 1.387 . S
H353 C365 0.930 . S
H354 C367 0.930 . S
H355 C368 0.930 . S
H356 C372 0.959 . S
H357 C372 0.959 . S
H358 C372 0.961 . S
H359 C373 0.960 . S
H360 C373 0.961 . S
H361 C373 0.959 . S
H362 C376 0.929 . S
H363 C377 0.931 . S
H364 C379 0.930 . S
C365 H353 0.930 . S
C365 C366 1.399 . S
C365 C370 1.399 . S
C366 C365 1.399 . S
C366 C367 1.376 . S
C367 H354 0.930 . S
C367 C366 1.376 . S
C367 C368 1.388 . S
C368 H355 0.930 . S
C368 C367 1.388 . S
C368 C369 1.390 . S
C369 C368 1.390 . S
C369 C370 1.394 . S
C369 C375 1.465 . S
C370 C365 1.399 . S
C370 C369 1.394 . S
C370 C371 1.516 . S
C371 C370 1.516 . S
C371 C372 1.502 . S
C371 C373 1.561 . S
C371 C374 1.526 . S
C372 H356 0.959 . S
C372 H357 0.959 . S
C372 H358 0.961 . S
C372 C371 1.502 . S
C373 H359 0.960 . S
C373 H360 0.961 . S
C373 H361 0.959 . S
C373 C371 1.561 . S
C374 C371 1.526 . S
C374 C375 1.396 . S
C374 C379 1.390 . S
C375 C369 1.465 . S
C375 C374 1.396 . S
C375 C376 1.399 . S
C376 H362 0.929 . S
C376 C375 1.399 . S
C376 C377 1.385 . S
C377 H363 0.931 . S
C377 C376 1.385 . S
C377 C378 1.389 . S
C378 C377 1.389 . S
C378 C379 1.387 . S
C379 H364 0.930 . S
C379 C374 1.390 . S
C379 C378 1.387 . S
H380 C392 0.930 . S
H381 C394 0.930 . S
H382 C395 0.930 . S
H383 C399 0.959 . S
H384 C399 0.959 . S
H385 C399 0.961 . S
H386 C400 0.960 . S
H387 C400 0.961 1_556 S
H388 C400 0.959 . S
H389 C403 0.929 . S
H390 C404 0.931 . S
H391 C406 0.930 . S
C392 H380 0.930 . S
C392 C393 1.399 . S
C392 C397 1.399 . S
C393 C392 1.399 . S
C393 C394 1.376 . S
C394 H381 0.930 . S
C394 C393 1.376 . S
C394 C395 1.388 . S
C395 H382 0.930 . S
C395 C394 1.388 . S
C395 C396 1.390 . S
C396 C395 1.390 . S
C396 C397 1.394 . S
C396 C402 1.465 . S
C397 C392 1.399 . S
C397 C396 1.394 . S
C397 C398 1.516 . S
C398 C397 1.516 . S
C398 C399 1.502 . S
C398 C400 1.561 . S
C398 C401 1.526 . S
C399 H383 0.959 . S
C399 H384 0.959 . S
C399 H385 0.961 . S
C399 C398 1.502 . S
C400 H386 0.960 . S
C400 H387 0.961 1_554 S
C400 H388 0.959 . S
C400 C398 1.561 . S
C401 C398 1.526 . S
C401 C402 1.396 . S
C401 C406 1.390 . S
C402 C396 1.465 . S
C402 C401 1.396 . S
C402 C403 1.399 . S
C403 H389 0.929 . S
C403 C402 1.399 . S
C403 C404 1.385 . S
C404 H390 0.931 . S
C404 C403 1.385 . S
C404 C405 1.389 . S
C405 C404 1.389 . S
C405 C406 1.387 . S
C406 H391 0.930 . S
C406 C401 1.390 . S
C406 C405 1.387 . S
H407 C419 0.930 . S
H408 C421 0.930 . S
H409 C422 0.930 . S
H410 C426 0.959 . S
H411 C426 0.959 . S
H412 C426 0.961 . S
H413 C427 0.960 . S
H414 C427 0.961 . S
H415 C427 0.959 . S
H416 C430 0.929 . S
H417 C431 0.931 . S
H418 C433 0.930 . S
C419 H407 0.930 . S
C419 C420 1.399 . S
C419 C424 1.399 . S
C420 C419 1.399 . S
C420 C421 1.376 . S
C421 H408 0.930 . S
C421 C420 1.376 . S
C421 C422 1.388 . S
C422 H409 0.930 . S
C422 C421 1.388 . S
C422 C423 1.390 . S
C423 C422 1.390 . S
C423 C424 1.394 . S
C423 C429 1.465 . S
C424 C419 1.399 . S
C424 C423 1.394 . S
C424 C425 1.516 . S
C425 C424 1.516 . S
C425 C426 1.502 . S
C425 C427 1.561 . S
C425 C428 1.526 . S
C426 H410 0.959 . S
C426 H411 0.959 . S
C426 H412 0.961 . S
C426 C425 1.502 . S
C427 H413 0.960 . S
C427 H414 0.961 . S
C427 H415 0.959 . S
C427 C425 1.561 . S
C428 C425 1.526 . S
C428 C429 1.396 . S
C428 C433 1.390 . S
C429 C423 1.465 . S
C429 C428 1.396 . S
C429 C430 1.399 . S
C430 H416 0.929 . S
C430 C429 1.399 . S
C430 C431 1.385 . S
C431 H417 0.931 . S
C431 C430 1.385 . S
C431 C432 1.389 . S
C432 C431 1.389 . S
C432 C433 1.387 . S
C433 H418 0.930 . S
C433 C428 1.390 . S
C433 C432 1.387 . S
H434 C446 0.930 . S
H435 C448 0.930 . S
H436 C449 0.930 . S
H437 C453 0.959 . S
H438 C453 0.959 . S
H439 C453 0.961 . S
H440 C454 0.960 . S
H441 C454 0.961 . S
H442 C454 0.959 . S
H443 C457 0.929 . S
H444 C458 0.931 . S
H445 C460 0.930 . S
C446 H434 0.930 . S
C446 C447 1.399 . S
C446 C451 1.399 . S
C447 C446 1.399 . S
C447 C448 1.376 . S
C448 H435 0.930 . S
C448 C447 1.376 . S
C448 C449 1.388 . S
C449 H436 0.930 . S
C449 C448 1.388 . S
C449 C450 1.390 . S
C450 C449 1.390 . S
C450 C451 1.394 . S
C450 C456 1.465 . S
C451 C446 1.399 . S
C451 C450 1.394 . S
C451 C452 1.516 . S
C452 C451 1.516 . S
C452 C453 1.502 . S
C452 C454 1.561 . S
C452 C455 1.526 . S
C453 H437 0.959 . S
C453 H438 0.959 . S
C453 H439 0.961 . S
C453 C452 1.502 . S
C454 H440 0.960 . S
C454 H441 0.961 . S
C454 H442 0.959 . S
C454 C452 1.561 . S
C455 C452 1.526 . S
C455 C456 1.396 . S
C455 C460 1.390 . S
C456 C450 1.465 . S
C456 C455 1.396 . S
C456 C457 1.399 . S
C457 H443 0.929 . S
C457 C456 1.399 . S
C457 C458 1.385 . S
C458 H444 0.931 . S
C458 C457 1.385 . S
C458 C459 1.389 . S
C459 C458 1.389 . S
C459 C460 1.387 . S
C460 H445 0.930 . S
C460 C455 1.390 . S
C460 C459 1.387 . S
H461 C473 0.930 . S
H462 C475 0.930 . S
H463 C476 0.930 . S
H464 C480 0.959 . S
H465 C480 0.959 . S
H466 C480 0.961 . S
H467 C481 0.960 . S
H468 C481 0.961 . S
H469 C481 0.959 . S
H470 C484 0.929 . S
H471 C485 0.931 . S
H472 C487 0.930 . S
C473 H461 0.930 . S
C473 C474 1.399 . S
C473 C478 1.399 . S
C474 C473 1.399 . S
C474 C475 1.376 . S
C475 H462 0.930 . S
C475 C474 1.376 . S
C475 C476 1.388 . S
C476 H463 0.930 . S
C476 C475 1.388 . S
C476 C477 1.390 . S
C477 C476 1.390 . S
C477 C478 1.394 . S
C477 C483 1.465 . S
C478 C473 1.399 . S
C478 C477 1.394 . S
C478 C479 1.516 . S
C479 C478 1.516 . S
C479 C480 1.502 . S
C479 C481 1.561 . S
C479 C482 1.526 . S
C480 H464 0.959 . S
C480 H465 0.959 . S
C480 H466 0.961 . S
C480 C479 1.502 . S
C481 H467 0.960 . S
C481 H468 0.961 . S
C481 H469 0.959 . S
C481 C479 1.561 . S
C482 C479 1.526 . S
C482 C483 1.396 . S
C482 C487 1.390 . S
C483 C477 1.465 . S
C483 C482 1.396 . S
C483 C484 1.399 . S
C484 H470 0.929 . S
C484 C483 1.399 . S
C484 C485 1.385 . S
C485 H471 0.931 . S
C485 C484 1.385 . S
C485 C486 1.389 . S
C486 C485 1.389 . S
C486 C487 1.387 . S
C487 H472 0.930 . S
C487 C482 1.390 . S
C487 C486 1.387 . S
H488 C500 0.930 1_545 S
H489 C502 0.930 . S
H490 C503 0.930 . S
H491 C507 0.959 . S
H492 C507 0.959 . S
H493 C507 0.961 . S
H494 C508 0.960 . S
H495 C508 0.961 . S
H496 C508 0.959 . S
H497 C511 0.929 . S
H498 C512 0.931 . S
H499 C514 0.930 . S
C500 H488 0.930 1_565 S
C500 C501 1.399 . S
C500 C505 1.399 . S
C501 C500 1.399 . S
C501 C502 1.376 . S
C502 H489 0.930 . S
C502 C501 1.376 . S
C502 C503 1.388 . S
C503 H490 0.930 . S
C503 C502 1.388 . S
C503 C504 1.390 . S
C504 C503 1.390 . S
C504 C505 1.394 . S
C504 C510 1.465 . S
C505 C500 1.399 . S
C505 C504 1.394 . S
C505 C506 1.516 1_565 S
C506 C505 1.516 1_545 S
C506 C507 1.502 . S
C506 C508 1.561 1_655 S
C506 C509 1.532 . S
C507 H491 0.959 . S
C507 H492 0.959 . S
C507 H493 0.961 . S
C507 C506 1.502 . S
C508 H494 0.960 . S
C508 H495 0.961 . S
C508 H496 0.959 . S
C508 C506 1.561 1_455 S
C509 C506 1.532 . S
C509 C510 1.383 1_545 S
C509 C514 1.395 . S
C510 C504 1.465 . S
C510 C509 1.383 1_565 S
C510 C511 1.399 . S
C511 H497 0.929 . S
C511 C510 1.399 . S
C511 C512 1.385 . S
C512 H498 0.931 . S
C512 C511 1.385 . S
C512 C513 1.389 . S
C513 C512 1.389 . S
C513 C514 1.387 1_565 S
C514 H499 0.930 . S
C514 C509 1.395 . S
C514 C513 1.387 1_545 S
H515 C527 0.930 . S
H516 C529 0.930 . S
H517 C530 0.930 . S
H518 C534 0.959 . S
H519 C534 0.959 . S
H520 C534 0.961 . S
H521 C535 0.960 . S
H522 C535 0.961 . S
H523 C535 0.959 . S
H524 C538 0.929 . S
H525 C539 0.931 . S
H526 C541 0.930 . S
C527 H515 0.930 . S
C527 C528 1.399 . S
C527 C532 1.399 . S
C528 C527 1.399 . S
C528 C529 1.376 . S
C529 H516 0.930 . S
C529 C528 1.376 . S
C529 C530 1.388 . S
C530 H517 0.930 . S
C530 C529 1.388 . S
C530 C531 1.390 . S
C531 C530 1.390 . S
C531 C532 1.394 . S
C531 C537 1.465 . S
C532 C527 1.399 . S
C532 C531 1.394 . S
C532 C533 1.516 . S
C533 C532 1.516 . S
C533 C534 1.502 1_545 S
C533 C535 1.561 . S
C533 C536 1.526 . S
C534 H518 0.959 . S
C534 H519 0.959 . S
C534 H520 0.961 . S
C534 C533 1.502 1_565 S
C535 H521 0.960 . S
C535 H522 0.961 . S
C535 H523 0.959 . S
C535 C533 1.561 . S
C536 C533 1.526 . S
C536 C537 1.396 . S
C536 C541 1.390 . S
C537 C531 1.465 . S
C537 C536 1.396 . S
C537 C538 1.399 . S
C538 H524 0.929 . S
C538 C537 1.399 . S
C538 C539 1.385 . S
C539 H525 0.931 . S
C539 C538 1.385 . S
C539 C540 1.389 . S
C540 C539 1.389 . S
C540 C541 1.387 . S
C541 H526 0.930 . S
C541 C536 1.390 . S
C541 C540 1.387 . S
H542 C554 0.930 . S
H543 C556 0.930 . S
H544 C557 0.930 . S
H545 C561 0.959 . S
H546 C561 0.959 . S
H547 C561 0.961 . S
H548 C562 0.960 . S
H549 C562 0.961 . S
H550 C562 0.959 . S
H551 C565 0.929 . S
H552 C566 0.931 . S
H553 C568 0.930 . S
C554 H542 0.930 . S
C554 C555 1.399 . S
C554 C559 1.399 . S
C555 C554 1.399 . S
C555 C556 1.376 . S
C556 H543 0.930 . S
C556 C555 1.376 . S
C556 C557 1.388 . S
C557 H544 0.930 . S
C557 C556 1.388 . S
C557 C558 1.390 . S
C558 C557 1.390 . S
C558 C559 1.394 . S
C558 C564 1.465 . S
C559 C554 1.399 . S
C559 C558 1.394 . S
C559 C560 1.516 . S
C560 C559 1.516 . S
C560 C561 1.502 . S
C560 C562 1.561 . S
C560 C563 1.526 . S
C561 H545 0.959 . S
C561 H546 0.959 . S
C561 H547 0.961 . S
C561 C560 1.502 . S
C562 H548 0.960 . S
C562 H549 0.961 . S
C562 H550 0.959 . S
C562 C560 1.561 . S
C563 C560 1.526 . S
C563 C564 1.396 . S
C563 C568 1.390 . S
C564 C558 1.465 . S
C564 C563 1.396 . S
C564 C565 1.399 . S
C565 H551 0.929 . S
C565 C564 1.399 . S
C565 C566 1.385 . S
C566 H552 0.931 . S
C566 C565 1.385 . S
C566 C567 1.389 . S
C567 C566 1.389 . S
C567 C568 1.387 . S
C568 H553 0.930 . S
C568 C563 1.390 . S
C568 C567 1.387 . S
H569 C581 0.930 . S
H570 C583 0.930 . S
H571 C584 0.930 . S
H572 C588 0.959 . S
H573 C588 0.959 . S
H574 C588 0.961 . S
H575 C589 0.960 . S
H576 C589 0.961 . S
H577 C589 0.959 . S
H578 C592 0.929 . S
H579 C593 0.931 . S
H580 C595 0.930 . S
C581 H569 0.930 . S
C581 C582 1.399 . S
C581 C586 1.399 . S
C582 C581 1.399 . S
C582 C583 1.376 . S
C583 H570 0.930 . S
C583 C582 1.376 . S
C583 C584 1.388 . S
C584 H571 0.930 . S
C584 C583 1.388 . S
C584 C585 1.390 . S
C585 C584 1.390 . S
C585 C586 1.394 . S
C585 C591 1.465 . S
C586 C581 1.399 . S
C586 C585 1.394 . S
C586 C587 1.516 . S
C587 C586 1.516 . S
C587 C588 1.502 . S
C587 C589 1.561 . S
C587 C590 1.526 . S
C588 H572 0.959 . S
C588 H573 0.959 . S
C588 H574 0.961 . S
C588 C587 1.502 . S
C589 H575 0.960 . S
C589 H576 0.961 . S
C589 H577 0.959 . S
C589 C587 1.561 . S
C590 C587 1.526 . S
C590 C591 1.396 . S
C590 C595 1.390 . S
C591 C585 1.465 . S
C591 C590 1.396 . S
C591 C592 1.399 . S
C592 H578 0.929 . S
C592 C591 1.399 . S
C592 C593 1.385 . S
C593 H579 0.931 . S
C593 C592 1.385 . S
C593 C594 1.389 . S
C594 C593 1.389 . S
C594 C595 1.387 . S
C595 H580 0.930 . S
C595 C590 1.390 . S
C595 C594 1.387 . S
H596 C608 0.930 1_545 S
H597 C610 0.930 . S
H598 C611 0.930 . S
H599 C615 0.959 1_554 S
H600 C615 0.959 . S
H601 C615 0.961 . S
H602 C616 0.960 . S
H603 C616 0.961 . S
H604 C616 0.959 . S
H605 C619 0.929 . S
H606 C620 0.931 . S
H607 C622 0.930 . S
C608 H596 0.930 1_565 S
C608 C609 1.399 . S
C608 C613 1.399 . S
C609 C608 1.399 . S
C609 C610 1.376 . S
C610 H597 0.930 . S
C610 C609 1.376 . S
C610 C611 1.388 . S
C611 H598 0.930 . S
C611 C610 1.388 . S
C611 C612 1.390 . S
C612 C611 1.390 . S
C612 C613 1.394 . S
C612 C618 1.465 . S
C613 C608 1.399 . S
C613 C612 1.394 . S
C613 C614 1.516 1_565 S
C614 C613 1.516 1_545 S
C614 C615 1.502 . S
C614 C616 1.561 . S
C614 C617 1.526 1_545 S
C615 H599 0.959 1_556 S
C615 H600 0.959 . S
C615 H601 0.961 . S
C615 C614 1.502 . S
C616 H602 0.960 . S
C616 H603 0.961 . S
C616 H604 0.959 . S
C616 C614 1.561 . S
C617 C614 1.526 1_565 S
C617 C618 1.396 . S
C617 C622 1.390 1_565 S
C618 C612 1.465 . S
C618 C617 1.396 . S
C618 C619 1.399 . S
C619 H605 0.929 . S
C619 C618 1.399 . S
C619 C620 1.385 . S
C620 H606 0.931 . S
C620 C619 1.385 . S
C620 C621 1.389 . S
C621 C620 1.389 . S
C621 C622 1.387 1_565 S
C622 H607 0.930 . S
C622 C617 1.390 1_545 S
C622 C621 1.387 1_545 S
H623 C635 0.930 . S
H624 C637 0.930 . S
H625 C638 0.930 . S
H626 C642 0.959 . S
H627 C642 0.959 . S
H628 C642 0.961 . S
H629 C643 0.960 . S
H630 C643 0.961 . S
H631 C643 0.959 . S
H632 C646 0.929 . S
H633 C647 0.931 . S
H634 C649 0.930 1_565 S
C635 H623 0.930 . S
C635 C636 1.399 . S
C635 C640 1.399 . S
C636 C635 1.399 . S
C636 C637 1.376 . S
C637 H624 0.930 . S
C637 C636 1.376 . S
C637 C638 1.388 . S
C638 H625 0.930 . S
C638 C637 1.388 . S
C638 C639 1.390 . S
C639 C638 1.390 . S
C639 C640 1.394 . S
C639 C645 1.465 . S
C640 C635 1.399 . S
C640 C639 1.394 . S
C640 C641 1.516 . S
C641 C640 1.516 . S
C641 C642 1.502 1_545 S
C641 C643 1.561 1_545 S
C641 C644 1.526 . S
C642 H626 0.959 . S
C642 H627 0.959 . S
C642 H628 0.961 . S
C642 C641 1.502 1_565 S
C643 H629 0.960 . S
C643 H630 0.961 . S
C643 H631 0.959 . S
C643 C641 1.561 1_565 S
C644 C641 1.526 . S
C644 C645 1.396 . S
C644 C649 1.390 . S
C645 C639 1.465 . S
C645 C644 1.396 . S
C645 C646 1.399 . S
C646 H632 0.929 . S
C646 C645 1.399 . S
C646 C647 1.385 . S
C647 H633 0.931 . S
C647 C646 1.385 . S
C647 C648 1.389 . S
C648 C647 1.389 . S
C648 C649 1.387 . S
C649 H634 0.930 1_545 S
C649 C644 1.390 . S
C649 C648 1.387 . S
H650 C662 0.930 . S
H651 C664 0.930 . S
H652 C665 0.930 . S
H653 C669 0.959 . S
H654 C669 0.959 . S
H655 C669 0.961 . S
H656 C670 0.960 . S
H657 C670 0.961 . S
H658 C670 0.959 . S
H659 C673 0.929 . S
H660 C674 0.931 . S
H661 C676 0.930 . S
C662 H650 0.930 . S
C662 C663 1.399 . S
C662 C667 1.399 . S
C663 C662 1.399 . S
C663 C664 1.376 . S
C664 H651 0.930 . S
C664 C663 1.376 . S
C664 C665 1.388 . S
C665 H652 0.930 . S
C665 C664 1.388 . S
C665 C666 1.390 . S
C666 C665 1.390 . S
C666 C667 1.394 . S
C666 C672 1.465 . S
C667 C662 1.399 . S
C667 C666 1.394 . S
C667 C668 1.516 . S
C668 C667 1.516 . S
C668 C669 1.502 . S
C668 C670 1.561 1_554 S
C668 C671 1.526 . S
C669 H653 0.959 . S
C669 H654 0.959 . S
C669 H655 0.961 . S
C669 C668 1.502 . S
C670 H656 0.960 . S
C670 H657 0.961 . S
C670 H658 0.959 . S
C670 C668 1.561 1_556 S
C671 C668 1.526 . S
C671 C672 1.396 . S
C671 C676 1.390 . S
C672 C666 1.465 . S
C672 C671 1.396 . S
C672 C673 1.399 . S
C673 H659 0.929 . S
C673 C672 1.399 . S
C673 C674 1.385 . S
C674 H660 0.931 . S
C674 C673 1.385 . S
C674 C675 1.389 . S
C675 C674 1.389 . S
C675 C676 1.387 . S
C676 H661 0.930 . S
C676 C671 1.390 . S
C676 C675 1.387 . S
H677 C689 0.930 . S
H678 C691 0.930 . S
H679 C692 0.930 . S
H680 C696 0.959 . S
H681 C696 0.959 . S
H682 C696 0.961 . S
H683 C697 0.960 . S
H684 C697 0.961 . S
H685 C697 0.959 . S
H686 C700 0.929 . S
H687 C701 0.931 . S
H688 C703 0.930 . S
C689 H677 0.930 . S
C689 C690 1.399 . S
C689 C694 1.399 . S
C690 C689 1.399 . S
C690 C691 1.376 . S
C691 H678 0.930 . S
C691 C690 1.376 . S
C691 C692 1.388 . S
C692 H679 0.930 . S
C692 C691 1.388 . S
C692 C693 1.390 . S
C693 C692 1.390 . S
C693 C694 1.394 . S
C693 C699 1.465 . S
C694 C689 1.399 . S
C694 C693 1.394 . S
C694 C695 1.516 . S
C695 C694 1.516 . S
C695 C696 1.502 . S
C695 C697 1.561 . S
C695 C698 1.526 . S
C696 H680 0.959 . S
C696 H681 0.959 . S
C696 H682 0.961 . S
C696 C695 1.502 . S
C697 H683 0.960 . S
C697 H684 0.961 . S
C697 H685 0.959 . S
C697 C695 1.561 . S
C698 C695 1.526 . S
C698 C699 1.396 . S
C698 C703 1.390 . S
C699 C693 1.465 . S
C699 C698 1.396 . S
C699 C700 1.399 . S
C700 H686 0.929 . S
C700 C699 1.399 . S
C700 C701 1.385 . S
C701 H687 0.931 . S
C701 C700 1.385 . S
C701 C702 1.389 . S
C702 C701 1.389 . S
C702 C703 1.387 . S
C703 H688 0.930 . S
C703 C698 1.390 . S
C703 C702 1.387 . S
H704 C716 0.930 . S
H705 C718 0.930 . S
H706 C719 0.930 1_554 S
H707 C723 0.959 . S
H708 C723 0.959 . S
H709 C723 0.961 . S
H710 C724 0.960 . S
H711 C724 0.961 . S
H712 C724 0.959 . S
H713 C727 0.929 . S
H714 C728 0.931 . S
H715 C730 0.930 . S
C716 H704 0.930 . S
C716 C717 1.399 . S
C716 C721 1.399 . S
C717 C716 1.399 . S
C717 C718 1.376 . S
C718 H705 0.930 . S
C718 C717 1.376 . S
C718 C719 1.388 . S
C719 H706 0.930 1_556 S
C719 C718 1.388 . S
C719 C720 1.390 . S
C720 C719 1.390 . S
C720 C721 1.394 . S
C720 C726 1.465 . S
C721 C716 1.399 . S
C721 C720 1.394 . S
C721 C722 1.516 . S
C722 C721 1.516 . S
C722 C723 1.502 . S
C722 C724 1.561 . S
C722 C725 1.526 . S
C723 H707 0.959 . S
C723 H708 0.959 . S
C723 H709 0.961 . S
C723 C722 1.502 . S
C724 H710 0.960 . S
C724 H711 0.961 . S
C724 H712 0.959 . S
C724 C722 1.561 . S
C725 C722 1.526 . S
C725 C726 1.396 . S
C725 C730 1.390 . S
C726 C720 1.465 . S
C726 C725 1.396 . S
C726 C727 1.399 1_556 S
C727 H713 0.929 . S
C727 C726 1.399 1_554 S
C727 C728 1.385 . S
C728 H714 0.931 . S
C728 C727 1.385 . S
C728 C729 1.389 1_554 S
C729 C728 1.389 1_556 S
C729 C730 1.387 . S
C730 H715 0.930 . S
C730 C725 1.390 . S
C730 C729 1.387 . S
H731 C743 0.930 . S
H732 C745 0.930 . S
H733 C746 0.930 . S
H734 C750 0.959 1_554 S
H735 C750 0.959 . S
H736 C750 0.961 . S
H737 C751 0.960 1_556 S
H738 C751 0.961 1_556 S
H739 C751 0.959 . S
H740 C754 0.929 . S
H741 C755 0.931 . S
H742 C757 0.930 . S
C743 H731 0.930 . S
C743 C744 1.399 . S
C743 C748 1.399 . S
C744 C743 1.399 . S
C744 C745 1.376 . S
C745 H732 0.930 . S
C745 C744 1.376 . S
C745 C746 1.388 . S
C746 H733 0.930 . S
C746 C745 1.388 . S
C746 C747 1.390 . S
C747 C746 1.390 . S
C747 C748 1.394 . S
C747 C753 1.465 . S
C748 C743 1.399 . S
C748 C747 1.394 . S
C748 C749 1.516 . S
C749 C748 1.516 . S
C749 C750 1.502 1_554 S
C749 C751 1.561 . S
C749 C752 1.526 . S
C750 H734 0.959 1_556 S
C750 H735 0.959 . S
C750 H736 0.961 . S
C750 C749 1.502 1_556 S
C751 H737 0.960 1_554 S
C751 H738 0.961 1_554 S
C751 H739 0.959 . S
C751 C749 1.561 . S
C752 C749 1.526 . S
C752 C753 1.396 . S
C752 C757 1.390 . S
C753 C747 1.465 . S
C753 C752 1.396 . S
C753 C754 1.399 . S
C754 H740 0.929 . S
C754 C753 1.399 . S
C754 C755 1.385 . S
C755 H741 0.931 . S
C755 C754 1.385 . S
C755 C756 1.389 . S
C756 C755 1.389 . S
C756 C757 1.387 . S
C757 H742 0.930 . S
C757 C752 1.390 . S
C757 C756 1.387 . S
H758 C770 0.930 . S
H759 C772 0.930 . S
H760 C773 0.930 . S
H761 C777 0.959 . S
H762 C777 0.959 . S
H763 C777 0.961 . S
H764 C778 0.960 . S
H765 C778 0.961 . S
H766 C778 0.959 . S
H767 C781 0.929 . S
H768 C782 0.931 . S
H769 C784 0.930 . S
C770 H758 0.930 . S
C770 C771 1.399 . S
C770 C775 1.399 . S
C771 C770 1.399 . S
C771 C772 1.376 . S
C772 H759 0.930 . S
C772 C771 1.376 . S
C772 C773 1.388 . S
C773 H760 0.930 . S
C773 C772 1.388 . S
C773 C774 1.390 . S
C774 C773 1.390 . S
C774 C775 1.394 . S
C774 C780 1.465 . S
C775 C770 1.399 . S
C775 C774 1.394 . S
C775 C776 1.516 . S
C776 C775 1.516 . S
C776 C777 1.502 . S
C776 C778 1.561 . S
C776 C779 1.526 . S
C777 H761 0.959 . S
C777 H762 0.959 . S
C777 H763 0.961 . S
C777 C776 1.502 . S
C778 H764 0.960 . S
C778 H765 0.961 . S
C778 H766 0.959 . S
C778 C776 1.561 . S
C779 C776 1.526 . S
C779 C780 1.396 . S
C779 C784 1.390 . S
C780 C774 1.465 . S
C780 C779 1.396 . S
C780 C781 1.399 . S
C781 H767 0.929 . S
C781 C780 1.399 . S
C781 C782 1.385 . S
C782 H768 0.931 . S
C782 C781 1.385 . S
C782 C783 1.389 . S
C783 C782 1.389 . S
C783 C784 1.387 . S
C784 H769 0.930 . S
C784 C779 1.390 . S
C784 C783 1.387 . S
H785 C797 0.930 . S
H786 C799 0.930 . S
H787 C800 0.930 . S
H788 C804 0.959 . S
H789 C804 0.959 . S
H790 C804 0.961 . S
H791 C805 0.960 . S
H792 C805 0.961 . S
H793 C805 0.959 . S
H794 C808 0.929 . S
H795 C809 0.931 . S
H796 C811 0.930 . S
C797 H785 0.930 . S
C797 C798 1.399 . S
C797 C802 1.399 . S
C798 C797 1.399 . S
C798 C799 1.376 . S
C799 H786 0.930 . S
C799 C798 1.376 . S
C799 C800 1.388 . S
C800 H787 0.930 . S
C800 C799 1.388 . S
C800 C801 1.390 . S
C801 C800 1.390 . S
C801 C802 1.394 . S
C801 C807 1.465 . S
C802 C797 1.399 . S
C802 C801 1.394 . S
C802 C803 1.516 . S
C803 C802 1.516 . S
C803 C804 1.502 . S
C803 C805 1.561 . S
C803 C806 1.526 . S
C804 H788 0.959 . S
C804 H789 0.959 . S
C804 H790 0.961 . S
C804 C803 1.502 . S
C805 H791 0.960 . S
C805 H792 0.961 . S
C805 H793 0.959 . S
C805 C803 1.561 . S
C806 C803 1.526 . S
C806 C807 1.396 . S
C806 C811 1.390 . S
C807 C801 1.465 . S
C807 C806 1.396 . S
C807 C808 1.399 . S
C808 H794 0.929 . S
C808 C807 1.399 . S
C808 C809 1.385 . S
C809 H795 0.931 . S
C809 C808 1.385 . S
C809 C810 1.389 . S
C810 C809 1.389 . S
C810 C811 1.387 . S
C811 H796 0.930 . S
C811 C806 1.390 . S
C811 C810 1.387 . S
C177 C5 1.567 . S
C189 C90 1.575 . S
C204 C14 1.546 . S
C216 C114 1.549 . S
C243 C134 1.398 . S
C231 C25 1.373 . S
C258 C34 1.411 . S
C270 C157 1.400 . S
C297 C116 1.624 . S
C285 C7 1.638 . S
C324 C92 1.598 . S
C312 C13 1.646 . S
C351 C160 1.476 . S
C339 C23 1.562 . S
C378 C137 1.529 . S
C366 C31 1.507 . S
C393 C4 1.414 . S
C405 C162 1.416 . S
C432 C111 1.569 . S
C420 C22 1.553 . S
C447 C32 1.558 . S
C459 C89 1.566 . S
C474 C16 1.393 . S
C486 C139 1.396 . S
C513 C93 1.525 . S
C501 C41 1.539 . S
C528 C50 1.520 . S
C540 C115 1.519 . S
C555 C61 1.628 . S
C567 C135 1.655 . S
C582 C67 1.646 . S
C594 C158 1.664 . S
C609 C40 1.458 . S
C621 C113 1.466 . S
C648 C91 1.447 . S
C636 C52 1.443 . S
C675 C161 1.417 . S
C663 C59 1.490 . S
C702 C138 1.430 . S
C690 C70 1.505 . S
C717 C43 1.758 . S
C729 C159 1.709 . S
C756 C112 1.502 . S
C744 C58 1.447 . S
C783 C88 1.500 . S
C771 C68 1.441 . S
C798 C49 1.707 . S
C810 C136 1.684 . S
