# Generated by pormake.
# Topology eea, (3,6)-cn, num edge types: 1
# Building blocks:
#     Node 0, Type 0, BuildingBlock: BETDAH_clean_linker_0, # of connection points: 3
#     Node 1, Type 0, BuildingBlock: BETDAH_clean_linker_0, # of connection points: 3
#     Node 2, Type 0, BuildingBlock: BETDAH_clean_linker_0, # of connection points: 3
#     Node 3, Type 0, BuildingBlock: BETDAH_clean_linker_0, # of connection points: 3
#     Node 4, Type 0, BuildingBlock: BETDAH_clean_linker_0, # of connection points: 3
#     Node 5, Type 0, BuildingBlock: BETDAH_clean_linker_0, # of connection points: 3
#     Node 6, Type 0, BuildingBlock: BETDAH_clean_linker_0, # of connection points: 3
#     Node 7, Type 0, BuildingBlock: BETDAH_clean_linker_0, # of connection points: 3
#     Node 8, Type 0, BuildingBlock: BETDAH_clean_linker_0, # of connection points: 3
#     Node 9, Type 0, BuildingBlock: BETDAH_clean_linker_0, # of connection points: 3
#     Node 10, Type 0, BuildingBlock: BETDAH_clean_linker_0, # of connection points: 3
#     Node 11, Type 0, BuildingBlock: BETDAH_clean_linker_0, # of connection points: 3
#     Node 12, Type 0, BuildingBlock: BETDAH_clean_linker_0, # of connection points: 3
#     Node 13, Type 0, BuildingBlock: BETDAH_clean_linker_0, # of connection points: 3
#     Node 14, Type 0, BuildingBlock: BETDAH_clean_linker_0, # of connection points: 3
#     Node 15, Type 0, BuildingBlock: BETDAH_clean_linker_0, # of connection points: 3
#     Node 16, Type 0, BuildingBlock: BETDAH_clean_linker_0, # of connection points: 3
#     Node 17, Type 0, BuildingBlock: BETDAH_clean_linker_0, # of connection points: 3
#     Node 18, Type 1, BuildingBlock: HISSIN_clean_sbu_0, # of connection points: 6
#     Node 19, Type 1, BuildingBlock: HISSIN_clean_sbu_0, # of connection points: 6
#     Node 20, Type 1, BuildingBlock: HISSIN_clean_sbu_0, # of connection points: 6
#     Node 21, Type 1, BuildingBlock: HISSIN_clean_sbu_0, # of connection points: 6
#     Node 22, Type 1, BuildingBlock: HISSIN_clean_sbu_0, # of connection points: 6
#     Node 23, Type 1, BuildingBlock: HISSIN_clean_sbu_0, # of connection points: 6
#     Node 24, Type 1, BuildingBlock: HISSIN_clean_sbu_0, # of connection points: 6
#     Node 25, Type 1, BuildingBlock: HISSIN_clean_sbu_0, # of connection points: 6
#     Node 26, Type 1, BuildingBlock: HISSIN_clean_sbu_0, # of connection points: 6
#     Edge 27, Type (0, 1), BuildingBlock: EZIPEK_clean_linker_0, # of connection points: 2
#     Edge 28, Type (0, 1), BuildingBlock: EZIPEK_clean_linker_0, # of connection points: 2
#     Edge 29, Type (0, 1), BuildingBlock: EZIPEK_clean_linker_0, # of connection points: 2
#     Edge 30, Type (0, 1), BuildingBlock: EZIPEK_clean_linker_0, # of connection points: 2
#     Edge 31, Type (0, 1), BuildingBlock: EZIPEK_clean_linker_0, # of connection points: 2
#     Edge 32, Type (0, 1), BuildingBlock: EZIPEK_clean_linker_0, # of connection points: 2
#     Edge 33, Type (0, 1), BuildingBlock: EZIPEK_clean_linker_0, # of connection points: 2
#     Edge 34, Type (0, 1), BuildingBlock: EZIPEK_clean_linker_0, # of connection points: 2
#     Edge 35, Type (0, 1), BuildingBlock: EZIPEK_clean_linker_0, # of connection points: 2
#     Edge 36, Type (0, 1), BuildingBlock: EZIPEK_clean_linker_0, # of connection points: 2
#     Edge 37, Type (0, 1), BuildingBlock: EZIPEK_clean_linker_0, # of connection points: 2
#     Edge 38, Type (0, 1), BuildingBlock: EZIPEK_clean_linker_0, # of connection points: 2
#     Edge 39, Type (0, 1), BuildingBlock: EZIPEK_clean_linker_0, # of connection points: 2
#     Edge 40, Type (0, 1), BuildingBlock: EZIPEK_clean_linker_0, # of connection points: 2
#     Edge 41, Type (0, 1), BuildingBlock: EZIPEK_clean_linker_0, # of connection points: 2
#     Edge 42, Type (0, 1), BuildingBlock: EZIPEK_clean_linker_0, # of connection points: 2
#     Edge 43, Type (0, 1), BuildingBlock: EZIPEK_clean_linker_0, # of connection points: 2
#     Edge 44, Type (0, 1), BuildingBlock: EZIPEK_clean_linker_0, # of connection points: 2
#     Edge 45, Type (0, 1), BuildingBlock: EZIPEK_clean_linker_0, # of connection points: 2
#     Edge 46, Type (0, 1), BuildingBlock: EZIPEK_clean_linker_0, # of connection points: 2
#     Edge 47, Type (0, 1), BuildingBlock: EZIPEK_clean_linker_0, # of connection points: 2
#     Edge 48, Type (0, 1), BuildingBlock: EZIPEK_clean_linker_0, # of connection points: 2
#     Edge 49, Type (0, 1), BuildingBlock: EZIPEK_clean_linker_0, # of connection points: 2
#     Edge 50, Type (0, 1), BuildingBlock: EZIPEK_clean_linker_0, # of connection points: 2
#     Edge 51, Type (0, 1), BuildingBlock: EZIPEK_clean_linker_0, # of connection points: 2
#     Edge 52, Type (0, 1), BuildingBlock: EZIPEK_clean_linker_0, # of connection points: 2
#     Edge 53, Type (0, 1), BuildingBlock: EZIPEK_clean_linker_0, # of connection points: 2
#     Edge 54, Type (0, 1), BuildingBlock: EZIPEK_clean_linker_0, # of connection points: 2
#     Edge 55, Type (0, 1), BuildingBlock: EZIPEK_clean_linker_0, # of connection points: 2
#     Edge 56, Type (0, 1), BuildingBlock: EZIPEK_clean_linker_0, # of connection points: 2
#     Edge 57, Type (0, 1), BuildingBlock: EZIPEK_clean_linker_0, # of connection points: 2
#     Edge 58, Type (0, 1), BuildingBlock: EZIPEK_clean_linker_0, # of connection points: 2
#     Edge 59, Type (0, 1), BuildingBlock: EZIPEK_clean_linker_0, # of connection points: 2
#     Edge 60, Type (0, 1), BuildingBlock: EZIPEK_clean_linker_0, # of connection points: 2
#     Edge 61, Type (0, 1), BuildingBlock: EZIPEK_clean_linker_0, # of connection points: 2
#     Edge 62, Type (0, 1), BuildingBlock: EZIPEK_clean_linker_0, # of connection points: 2
#     Edge 63, Type (0, 1), BuildingBlock: EZIPEK_clean_linker_0, # of connection points: 2
#     Edge 64, Type (0, 1), BuildingBlock: EZIPEK_clean_linker_0, # of connection points: 2
#     Edge 65, Type (0, 1), BuildingBlock: EZIPEK_clean_linker_0, # of connection points: 2
#     Edge 66, Type (0, 1), BuildingBlock: EZIPEK_clean_linker_0, # of connection points: 2
#     Edge 67, Type (0, 1), BuildingBlock: EZIPEK_clean_linker_0, # of connection points: 2
#     Edge 68, Type (0, 1), BuildingBlock: EZIPEK_clean_linker_0, # of connection points: 2
#     Edge 69, Type (0, 1), BuildingBlock: EZIPEK_clean_linker_0, # of connection points: 2
#     Edge 70, Type (0, 1), BuildingBlock: EZIPEK_clean_linker_0, # of connection points: 2
#     Edge 71, Type (0, 1), BuildingBlock: EZIPEK_clean_linker_0, # of connection points: 2
#     Edge 72, Type (0, 1), BuildingBlock: EZIPEK_clean_linker_0, # of connection points: 2
#     Edge 73, Type (0, 1), BuildingBlock: EZIPEK_clean_linker_0, # of connection points: 2
#     Edge 74, Type (0, 1), BuildingBlock: EZIPEK_clean_linker_0, # of connection points: 2
#     Edge 75, Type (0, 1), BuildingBlock: EZIPEK_clean_linker_0, # of connection points: 2
#     Edge 76, Type (0, 1), BuildingBlock: EZIPEK_clean_linker_0, # of connection points: 2
#     Edge 77, Type (0, 1), BuildingBlock: EZIPEK_clean_linker_0, # of connection points: 2
#     Edge 78, Type (0, 1), BuildingBlock: EZIPEK_clean_linker_0, # of connection points: 2
#     Edge 79, Type (0, 1), BuildingBlock: EZIPEK_clean_linker_0, # of connection points: 2
#     Edge 80, Type (0, 1), BuildingBlock: EZIPEK_clean_linker_0, # of connection points: 2
# Relax obj value: 0.059
# Max RMSD: 0.224
# Mean RMSD: 0.160
data_MOF--net-eea--node1-HISSIN_clean_sbu_0--node2-BETDAH_clean_linker_0--edge1-EZIPEK_clean_linker_0
_symmetry_space_group_name_H-M    P1
_symmetry_Int_Tables_number       1
_symmetry_cell_setting            triclinic
loop_
_symmetry_equiv_pos_as_xyz
'x, y, z'
_cell_length_a     39.598345
_cell_length_b     39.810019
_cell_length_c     54.684137
_cell_angle_alpha  93.145477
_cell_angle_beta   93.358215
_cell_angle_gamma 119.87866
loop_
_atom_site_label
_atom_site_type_symbol
_atom_site_fract_x
_atom_site_fract_y
_atom_site_fract_z
_atom_type_partial_charge
H0 H 0.26626 0.05721 0.42431 0.0
H1 H 0.31342 0.17943 0.44426 0.0
H2 H 0.25969 0.12998 0.37087 0.0
C3 C 0.27146 0.08539 0.41958 0.0
C4 C 0.26036 0.0897 0.3956 0.0
C5 C 0.28992 0.11755 0.43733 0.0
C6 C 0.29812 0.15422 0.43081 0.0
C7 C 0.28686 0.15878 0.40711 0.0
C8 C 0.26747 0.12637 0.38947 0.0
N9 N 0.29823 0.19681 0.40101 0.0
C10 C 0.27265 0.20641 0.38926 0.0
H11 H 0.95874 0.20981 0.43211 0.0
H12 H 0.85329 0.09878 0.41473 0.0
H13 H 0.94129 0.14165 0.36388 0.0
C14 C 0.94084 0.18374 0.41967 0.0
C15 C 0.95416 0.17903 0.39724 0.0
C16 C 0.90429 0.15491 0.42598 0.0
C17 C 0.88143 0.12097 0.40984 0.0
C18 C 0.89495 0.11614 0.38741 0.0
C19 C 0.93098 0.14538 0.38121 0.0
N20 N 0.87331 0.08256 0.37046 0.0
C21 C 0.8407 0.04837 0.37547 0.0
H22 H 0.81913 0.76069 0.44599 0.0
H23 H 0.92085 0.74827 0.45267 0.0
H24 H 0.89483 0.79048 0.38751 0.0
C25 C 0.84526 0.76378 0.43861 0.0
C26 C 0.85408 0.77681 0.4152 0.0
C27 C 0.86933 0.75359 0.45223 0.0
C28 C 0.9025 0.75673 0.44236 0.0
C29 C 0.91246 0.77067 0.41936 0.0
C30 C 0.88818 0.78089 0.40567 0.0
N31 N 0.94568 0.77134 0.41033 0.0
C32 C 0.96827 0.7943 0.39279 0.0
H33 H 0.06522 0.25604 0.58166 0.0
H34 H 0.15846 0.23081 0.59525 0.0
H35 H 0.06396 0.19005 0.64147 0.0
C36 C 0.07869 0.24289 0.59234 0.0
C37 C 0.06079 0.22312 0.61252 0.0
C38 C 0.11393 0.24575 0.58591 0.0
C39 C 0.13141 0.22876 0.60011 0.0
C40 C 0.11308 0.20834 0.62014 0.0
C41 C 0.07798 0.20574 0.62606 0.0
N42 N 0.12774 0.18886 0.63454 0.0
C43 C 0.16471 0.19272 0.63511 0.0
H44 H 0.75113 0.79982 0.60359 0.0
H45 H 0.73407 0.89845 0.6084 0.0
H46 H 0.77523 0.86753 0.67237 0.0
C47 C 0.74877 0.82214 0.61413 0.0
C48 C 0.76371 0.83045 0.63909 0.0
C49 C 0.7316 0.84249 0.60338 0.0
C50 C 0.7397 0.87763 0.61686 0.0
C51 C 0.75476 0.88622 0.64176 0.0
C52 C 0.76447 0.86129 0.65301 0.0
N53 N 0.75999 0.91941 0.65619 0.0
C54 C 0.7666 0.95352 0.64668 0.0
H55 H 0.20789 0.95359 0.58858 0.0
H56 H 0.10349 0.84362 0.56738 0.0
H57 H 0.12245 0.9003 0.64034 0.0
C58 C 0.18015 0.92993 0.59297 0.0
C59 C 0.1677 0.93076 0.61642 0.0
C60 C 0.15695 0.89871 0.57515 0.0
C61 C 0.12137 0.86802 0.58104 0.0
C62 C 0.10859 0.86818 0.60436 0.0
C63 C 0.13181 0.8998 0.62217 0.0
N64 N 0.07267 0.83547 0.609 0.0
C65 C 0.05266 0.83168 0.62968 0.0
H66 H 0.93334 0.40028 0.75897 0.0
H67 H 0.97909 0.52404 0.7623 0.0
H68 H 0.93531 0.45446 0.6927 0.0
C69 C 0.9395 0.42603 0.74993 0.0
C70 C 0.93132 0.42302 0.72433 0.0
C71 C 0.95651 0.4624 0.76378 0.0
C72 C 0.965 0.49572 0.75184 0.0
C73 C 0.95734 0.49279 0.72624 0.0
C74 C 0.9405 0.4565 0.71256 0.0
N75 N 0.97023 0.52662 0.71384 0.0
C76 C 0.95028 0.547 0.71345 0.0
H77 H 0.63241 0.54786 0.77028 0.0
H78 H 0.52852 0.43611 0.75106 0.0
H79 H 0.62031 0.48033 0.70285 0.0
C80 C 0.61556 0.52171 0.75773 0.0
C81 C 0.63055 0.51738 0.73592 0.0
C82 C 0.57861 0.49249 0.7632 0.0
C83 C 0.55703 0.45856 0.74685 0.0
C84 C 0.57231 0.45413 0.72509 0.0
C85 C 0.60873 0.48371 0.71972 0.0
N86 N 0.55201 0.42071 0.70791 0.0
C87 C 0.519 0.38632 0.71214 0.0
H88 H 0.48638 0.08558 0.77981 0.0
H89 H 0.58917 0.07511 0.78577 0.0
H90 H 0.56449 0.12212 0.72254 0.0
C91 C 0.51269 0.0894 0.7723 0.0
C92 C 0.52214 0.10466 0.74947 0.0
C93 C 0.53697 0.07914 0.78555 0.0
C94 C 0.5706 0.08354 0.77569 0.0
C95 C 0.58104 0.09921 0.7532 0.0
C96 C 0.55693 0.11025 0.74006 0.0
N97 N 0.61528 0.10176 0.74448 0.0
C98 C 0.63652 0.12356 0.72612 0.0
H99 H 0.73449 0.59524 0.91644 0.0
H100 H 0.83238 0.57863 0.93489 0.0
H101 H 0.73675 0.53783 0.9802 0.0
C102 C 0.74905 0.58443 0.92834 0.0
C103 C 0.7315 0.56615 0.94901 0.0
C104 C 0.78554 0.58917 0.92311 0.0
C105 C 0.80429 0.57497 0.93877 0.0
C106 C 0.78639 0.55614 0.95938 0.0
C107 C 0.75033 0.55213 0.96427 0.0
N108 N 0.803 0.54074 0.97594 0.0
C109 C 0.83802 0.54072 0.97489 0.0
H110 H 0.41734 0.13341 0.93805 0.0
H111 H 0.42395 0.24503 0.94151 0.0
H112 H 0.4744 0.21489 1.00127 0.0
C113 C 0.42299 0.16014 0.94797 0.0
C114 C 0.44512 0.17053 0.97098 0.0
C115 C 0.41009 0.18451 0.93794 0.0
C116 C 0.42693 0.22273 0.94999 0.0
C117 C 0.44943 0.23333 0.97292 0.0
C118 C 0.45714 0.20666 0.98356 0.0
N119 N 0.46583 0.27086 0.98573 0.0
C120 C 0.45953 0.30041 0.9787 0.0
H121 H 0.87059 0.27969 0.91918 0.0
H122 H 0.76028 0.17599 0.89725 0.0
H123 H 0.78279 0.23376 0.97024 0.0
C124 C 0.84184 0.25779 0.92347 0.0
C125 C 0.82953 0.26049 0.9467 0.0
C126 C 0.81701 0.22735 0.9056 0.0
C127 C 0.77969 0.19944 0.9111 0.0
C128 C 0.76723 0.20102 0.93436 0.0
C129 C 0.79231 0.23167 0.95234 0.0
N130 N 0.72884 0.17181 0.93835 0.0
C131 C 0.71412 0.16247 0.96102 0.0
H132 H 0.60027 0.73332 0.09412 0.0
H133 H 0.65295 0.85806 0.10132 0.0
H134 H 0.60983 0.7942 0.02986 0.0
C135 C 0.60843 0.76019 0.0859 0.0
C136 C 0.60223 0.75951 0.06029 0.0
C137 C 0.62682 0.79569 0.1008 0.0
C138 C 0.63815 0.83045 0.09 0.0
C139 C 0.63146 0.8298 0.06452 0.0
C140 C 0.61377 0.79443 0.04966 0.0
N141 N 0.6452 0.86504 0.05362 0.0
C142 C 0.62219 0.88204 0.05091 0.0
H143 H 0.29814 0.87624 0.10307 0.0
H144 H 0.19815 0.76112 0.08592 0.0
H145 H 0.28858 0.80744 0.03686 0.0
C146 C 0.28211 0.84954 0.09091 0.0
C147 C 0.29751 0.8453 0.06925 0.0
C148 C 0.24614 0.81925 0.09698 0.0
C149 C 0.22576 0.78448 0.08121 0.0
C150 C 0.24115 0.78032 0.05941 0.0
C151 C 0.27673 0.81081 0.05361 0.0
N152 N 0.22222 0.74612 0.04276 0.0
C153 C 0.18719 0.71274 0.0456 0.0
H154 H 0.15145 0.42395 0.10785 0.0
H155 H 0.25784 0.42082 0.12025 0.0
H156 H 0.23434 0.46117 0.05338 0.0
C157 C 0.17909 0.42913 0.10177 0.0
C158 C 0.1899 0.44347 0.07887 0.0
C159 C 0.20343 0.4208 0.1167 0.0
C160 C 0.23897 0.42733 0.10874 0.0
C161 C 0.25068 0.44215 0.08618 0.0
C162 C 0.22598 0.45021 0.07104 0.0
N163 N 0.2872 0.44761 0.0797 0.0
C164 C 0.30635 0.4643 0.05933 0.0
H165 H 0.40014 0.92941 0.25162 0.0
H166 H 0.49102 0.90122 0.26626 0.0
H167 H 0.39531 0.86216 0.31147 0.0
C168 C 0.41271 0.91557 0.26245 0.0
C169 C 0.39385 0.8958 0.28237 0.0
C170 C 0.44769 0.91749 0.25639 0.0
C171 C 0.46408 0.89974 0.2708 0.0
C172 C 0.44493 0.87955 0.2907 0.0
C173 C 0.40998 0.8777 0.29616 0.0
N174 N 0.45884 0.85994 0.30559 0.0
C175 C 0.49499 0.86201 0.30584 0.0
H176 H 0.09876 0.47568 0.26513 0.0
H177 H 0.0891 0.57882 0.27159 0.0
H178 H 0.12327 0.5408 0.33571 0.0
C179 C 0.10127 0.50033 0.2763 0.0
C180 C 0.11288 0.50559 0.30168 0.0
C181 C 0.09203 0.52636 0.26544 0.0
C182 C 0.09601 0.55865 0.27997 0.0
C183 C 0.1074 0.56385 0.30537 0.0
C184 C 0.1149 0.53687 0.31607 0.0
N185 N 0.11095 0.59531 0.32096 0.0
C186 C 0.11356 0.62891 0.31289 0.0
H187 H 0.53745 0.61277 0.25355 0.0
H188 H 0.43608 0.49961 0.23539 0.0
H189 H 0.45612 0.55914 0.30756 0.0
C190 C 0.51072 0.58861 0.25873 0.0
C191 C 0.49939 0.58992 0.28247 0.0
C192 C 0.48785 0.55622 0.24167 0.0
C193 C 0.45364 0.52489 0.2485 0.0
C194 C 0.4418 0.52553 0.27206 0.0
C195 C 0.4647 0.55831 0.28919 0.0
N196 N 0.40724 0.49199 0.27754 0.0
C197 C 0.38723 0.4878 0.29825 0.0
Eu198 Eu 0.50429 0.99914 0.99771 0.0
Eu199 Eu 0.52732 0.03664 0.05624 0.0
C200 C 0.49625 0.07147 0.01368 0.0
C201 C 0.49249 0.9889 0.92727 0.0
C202 C 0.48923 0.02177 0.92302 0.0
C203 C 0.50946 0.98656 0.88541 0.0
C204 C 0.49568 0.03663 0.90007 0.0
C205 C 0.50269 0.97149 0.90829 0.0
C206 C 0.5059 0.01916 0.88112 0.0
C207 C 0.48533 0.97238 0.95124 0.0
O208 O 0.47678 0.976 0.05542 0.0
O209 O 0.44872 0.97301 0.01712 0.0
C210 C 0.44614 0.96141 0.03932 0.0
O211 O 0.51579 0.9577 0.01774 0.0
O212 O 0.50891 0.05504 0.08868 0.0
O213 O 0.56374 0.05532 0.09158 0.0
O214 O 0.55646 1.00073 0.05034 0.0
C215 C 0.54322 0.96829 0.03593 0.0
O216 O 0.56942 0.04291 1.00194 0.0
O217 O 0.57816 0.08099 0.03778 0.0
O218 O 0.49352 0.06173 0.03645 0.0
O219 O 0.51548 0.97509 0.9642 0.0
O220 O 0.46312 0.97951 0.96479 0.0
O221 O 0.50994 0.05752 0.99739 0.0
C222 C 0.52626 0.03654 0.1259 0.0
C223 C 0.48798 0.00558 0.12724 0.0
C224 C 0.54398 0.02788 0.1676 0.0
C225 C 0.47771 0.98645 0.14866 0.0
C226 C 0.55418 0.0473 0.14624 0.0
C227 C 0.50552 0.99756 0.1691 0.0
C228 C 0.53735 0.05772 0.10353 0.0
C229 C 0.59093 0.0744 0.0174 0.0
H230 H 0.48168 0.03596 0.9374 0.0
H231 H 0.5174 0.97277 0.87101 0.0
H232 H 0.49288 0.06185 0.8971 0.0
H233 H 0.50542 0.94621 0.91117 0.0
H234 H 0.46586 0.99624 0.11179 0.0
H235 H 0.56593 0.03681 0.1831 0.0
H236 H 0.44794 0.96306 0.14937 0.0
H237 H 0.58389 0.07087 0.14563 0.0
Eu238 Eu 0.02437 0.48255 0.98766 0.0
Eu239 Eu 0.99379 0.47257 0.04377 0.0
C240 C 0.94827 0.4049 0.99914 0.0
C241 C 0.03031 0.48177 0.9177 0.0
C242 C 1.00812 0.49891 0.91049 0.0
C243 C 0.02364 0.45599 0.87526 0.0
C244 C 0.99443 0.49517 0.88575 0.0
C245 C 0.03761 0.46001 0.89993 0.0
C246 C 1.00239 0.47394 0.86796 0.0
C247 C 0.0469 0.48684 0.9434 0.0
O248 O 0.05441 0.48042 0.04776 0.0
O249 O 0.05431 0.4558 1.00896 0.0
C250 C 0.06859 0.46571 0.03215 0.0
O251 O 0.06803 0.53812 0.01053 0.0
O252 O 0.98027 0.43801 0.07521 0.0
O253 O 0.97302 0.48852 0.07611 0.0
O254 O 0.03395 0.53703 0.04367 0.0
C255 C 0.06308 0.55513 0.03019 0.0
O256 O 0.98381 0.50691 0.9868 0.0
O257 O 0.95053 0.48264 0.02091 0.0
O258 O 0.96167 0.41275 0.02251 0.0
O259 O 0.05155 0.51675 0.9574 0.0
O260 O 0.03384 0.45549 0.9549 0.0
O261 O 0.96347 0.4308 0.98335 0.0
C262 C 0.99228 0.47304 0.11404 0.0
C263 C 0.02274 0.51116 0.12166 0.0
C264 C 0.99764 0.45475 0.1552 0.0
C265 C 0.04016 0.52105 0.146 0.0
C266 C 0.98005 0.44497 0.13099 0.0
C267 C 0.02768 0.49289 0.16295 0.0
C268 C 0.97318 0.46153 0.08856 0.0
C269 C 0.95516 0.49996 1.00044 0.0
H270 H 1.00178 0.51558 0.92389 0.0
H271 H 0.03005 0.43952 0.86176 0.0
H272 H 0.97807 0.5092 0.8804 0.0
H273 H 0.05456 0.4465 0.90511 0.0
H274 H 0.03301 0.53328 0.10887 0.0
H275 H 0.9876 0.43264 0.16799 0.0
H276 H 0.06328 0.55063 0.15166 0.0
H277 H 0.95678 0.41539 0.12547 0.0
Eu278 Eu 0.52815 0.52626 0.02382 0.0
Eu279 Eu 0.50096 0.53609 0.96707 0.0
C280 C 0.53821 0.60642 0.01018 0.0
C281 C 0.54106 0.52841 0.09403 0.0
C282 C 0.5032 0.51943 0.09909 0.0
C283 C 0.56401 0.55087 0.13723 0.0
C284 C 0.49573 0.52558 0.12313 0.0
C285 C 0.57141 0.54444 0.11323 0.0
C286 C 0.52604 0.5411 0.14238 0.0
C287 C 0.54947 0.52118 0.06899 0.0
O288 O 0.55311 0.5283 0.96379 0.0
O289 O 0.58238 0.55086 1.00325 0.0
C290 C 0.58393 0.54248 0.9799 0.0
O291 O 0.51485 0.47174 1.00109 0.0
O292 O 0.51287 0.57213 0.93655 0.0
O293 O 0.46261 0.51399 0.93253 0.0
O294 O 0.47276 0.47151 0.97015 0.0
C295 C 0.48741 0.4538 0.98274 0.0
O296 O 0.46335 0.50488 0.02248 0.0
O297 O 0.45396 0.53427 0.9895 0.0
O298 O 0.53924 0.59628 0.98711 0.0
O299 O 0.52111 0.49205 0.05488 0.0
O300 O 0.56889 0.55176 0.05718 0.0
O301 O 0.52539 0.58101 0.02637 0.0
C302 C 0.49804 0.53574 0.89797 0.0
C303 C 0.53531 0.53973 0.89724 0.0
C304 C 0.48406 0.51457 0.85417 0.0
C305 C 0.54702 0.53174 0.87511 0.0
C306 C 0.47245 0.52292 0.87631 0.0
C307 C 0.52153 0.51917 0.8534 0.0
C308 C 0.48555 0.54408 0.92132 0.0
C309 C 0.44224 0.51578 1.00929 0.0
H310 H 0.47938 0.5074 0.08452 0.0
H311 H 0.58774 0.56297 0.15185 0.0
H312 H 0.46628 0.51797 0.12678 0.0
H313 H 0.60083 0.55175 0.10968 0.0
H314 H 0.55543 0.54914 0.91377 0.0
H315 H 0.46398 0.50477 0.8376 0.0
H316 H 0.57598 0.53534 0.87488 0.0
H317 H 0.44351 0.51937 0.87654 0.0
Eu318 Eu 0.16331 0.32764 0.32551 0.0
Eu319 Eu 0.18755 0.36422 0.38471 0.0
C320 C 0.15597 0.40063 0.34383 0.0
C321 C 0.15249 0.32124 0.25526 0.0
C322 C 0.14649 0.35267 0.25152 0.0
C323 C 0.17317 0.32395 0.21403 0.0
C324 C 0.15347 0.36932 0.22915 0.0
C325 C 0.16586 0.30706 0.23631 0.0
C326 C 0.16699 0.35516 0.21028 0.0
C327 C 0.14514 0.30305 0.27869 0.0
O328 O 0.13399 0.30518 0.38338 0.0
O329 O 0.10748 0.30157 0.34429 0.0
C330 C 0.10395 0.29097 0.36674 0.0
O331 O 0.17239 0.28429 0.34519 0.0
O332 O 0.17165 0.38318 0.41809 0.0
O333 O 0.22544 0.38145 0.4194 0.0
O334 O 0.21391 0.32605 0.37805 0.0
C335 C 0.19905 0.2934 0.36368 0.0
O336 O 0.22859 0.36956 0.33002 0.0
O337 O 0.23651 0.40906 0.36503 0.0
O338 O 0.15482 0.39125 0.3666 0.0
O339 O 0.17534 0.30561 0.29149 0.0
O340 O 0.1223 0.30864 0.29253 0.0
O341 O 0.16725 0.38562 0.3265 0.0
C342 C 0.18981 0.36375 0.45456 0.0
C343 C 0.15217 0.3316 0.4557 0.0
C344 C 0.20761 0.35673 0.49666 0.0
C345 C 0.14219 0.3127 0.47723 0.0
C346 C 0.21749 0.37591 0.47518 0.0
C347 C 0.16971 0.32523 0.49798 0.0
C348 C 0.20034 0.38491 0.43217 0.0
C349 C 0.24923 0.40174 0.34484 0.0
H350 H 0.13643 0.36441 0.26586 0.0
H351 H 0.18362 0.31266 0.19968 0.0
H352 H 0.14856 0.3934 0.22658 0.0
H353 H 0.17073 0.28292 0.23879 0.0
H354 H 0.13029 0.32123 0.44002 0.0
H355 H 0.22935 0.36678 0.51238 0.0
H356 H 0.11287 0.28838 0.47778 0.0
H357 H 0.24671 0.40045 0.47473 0.0
Eu358 Eu 0.68959 0.81627 0.32405 0.0
Eu359 Eu 0.65618 0.80498 0.37936 0.0
C360 C 0.61413 0.73695 0.33431 0.0
C361 C 0.69994 0.81813 0.25485 0.0
C362 C 0.66141 0.78897 0.24659 0.0
C363 C 0.70999 0.83774 0.21342 0.0
C364 C 0.64746 0.78394 0.22177 0.0
C365 C 0.724 0.84257 0.23814 0.0
C366 C 0.67174 0.80828 0.20505 0.0
C367 C 0.71564 0.82367 0.28071 0.0
O368 O 0.71726 0.81409 0.38468 0.0
O369 O 0.71903 0.78988 0.34615 0.0
C370 C 0.73237 0.79979 0.36949 0.0
O371 O 0.73141 0.87152 0.34778 0.0
O372 O 0.64081 0.76992 0.41048 0.0
O373 O 0.63401 0.82065 0.41116 0.0
O374 O 0.69365 0.86979 0.37879 0.0
C375 C 0.72393 0.88844 0.36629 0.0
O376 O 0.64621 0.83722 0.32168 0.0
O377 O 0.61214 0.81238 0.3554 0.0
O378 O 0.6259 0.74528 0.35794 0.0
O379 O 0.71674 0.8522 0.29433 0.0
O380 O 0.70408 0.7924 0.29218 0.0
O381 O 0.63014 0.76251 0.31841 0.0
C382 C 0.64772 0.80238 0.44943 0.0
C383 C 0.68812 0.82506 0.45665 0.0
C384 C 0.63552 0.79425 0.49228 0.0
C385 C 0.70211 0.83217 0.48168 0.0
C386 C 0.62161 0.78726 0.46741 0.0
C387 C 0.6758 0.81653 0.49962 0.0
C388 C 0.63207 0.79258 0.42334 0.0
C389 C 0.61669 0.82913 0.33474 0.0
H390 H 0.64225 0.77001 0.25926 0.0
H391 H 0.72908 0.85672 0.20073 0.0
H392 H 0.61789 0.76104 0.21557 0.0
H393 H 0.75372 0.8653 0.24422 0.0
H394 H 0.70871 0.83684 0.44297 0.0
H395 H 0.61483 0.782 0.50587 0.0
H396 H 0.73329 0.84945 0.48704 0.0
H397 H 0.5904 0.76959 0.46216 0.0
Eu398 Eu 0.19282 0.86087 0.35752 0.0
Eu399 Eu 0.16516 0.86923 0.29986 0.0
C400 C 0.19925 0.94185 0.34123 0.0
C401 C 0.20961 0.86853 0.42778 0.0
C402 C 0.17364 0.86511 0.43274 0.0
C403 C 0.23318 0.88883 0.47109 0.0
C404 C 0.16722 0.87264 0.4568 0.0
C405 C 0.23947 0.88094 0.44705 0.0
C406 C 0.19677 0.88407 0.47619 0.0
C407 C 0.21593 0.85804 0.40285 0.0
O408 O 0.23038 0.8936 0.30288 0.0
O409 O 0.23636 0.85899 0.33331 0.0
C410 C 0.24938 0.87898 0.31429 0.0
O411 O 0.15647 0.79972 0.34017 0.0
O412 O 0.1765 0.90146 0.26737 0.0
O413 O 0.12636 0.84327 0.2658 0.0
O414 O 0.16191 0.81073 0.29938 0.0
C415 C 0.15336 0.78748 0.31701 0.0
O416 O 0.13398 0.85541 0.36051 0.0
O417 O 0.11163 0.85381 0.32012 0.0
O418 O 0.17723 0.92519 0.32039 0.0
O419 O 0.18567 0.82924 0.38985 0.0
O420 O 0.23622 0.88664 0.38977 0.0
O421 O 0.21182 0.92406 0.35552 0.0
C422 C 0.16057 0.8617 0.23009 0.0
C423 C 0.16171 0.82705 0.22626 0.0
C424 C 0.18592 0.87987 0.1905 0.0
C425 C 0.17458 0.8188 0.20463 0.0
C426 C 0.17269 0.88794 0.212 0.0
C427 C 0.18701 0.84527 0.18665 0.0
C428 C 0.1488 0.87189 0.25325 0.0
C429 C 0.10642 0.85073 0.34369 0.0
H430 H 0.15027 0.85593 0.41811 0.0
H431 H 0.25634 0.89774 0.48582 0.0
H432 H 0.13901 0.86895 0.46038 0.0
H433 H 0.26745 0.88391 0.44358 0.0
H434 H 0.15306 0.80652 0.24006 0.0
H435 H 0.19545 0.90067 0.17686 0.0
H436 H 0.17529 0.79199 0.20202 0.0
H437 H 0.17235 0.91494 0.21464 0.0
Eu438 Eu 0.83614 0.6689 0.66314 0.0
Eu439 Eu 0.86135 0.70699 0.72215 0.0
C440 C 0.82411 0.73869 0.68135 0.0
C441 C 0.82393 0.65978 0.59286 0.0
C442 C 0.82099 0.69304 0.58942 0.0
C443 C 0.84051 0.65891 0.55079 0.0
C444 C 0.82742 0.70885 0.56675 0.0
C445 C 0.83377 0.64291 0.57337 0.0
C446 C 0.83733 0.69195 0.5473 0.0
C447 C 0.81721 0.64254 0.6166 0.0
O448 O 0.81022 0.64659 0.72166 0.0
O449 O 0.78143 0.64107 0.68295 0.0
C450 C 0.77946 0.63106 0.70553 0.0
O451 O 0.84931 0.62836 0.6831 0.0
O452 O 0.84555 0.72649 0.75538 0.0
O453 O 0.89926 0.72467 0.75687 0.0
O454 O 0.89109 0.6721 0.71513 0.0
C455 C 0.8772 0.63931 0.70105 0.0
O456 O 0.90032 0.7143 0.66621 0.0
O457 O 0.90846 0.75285 0.70186 0.0
O458 O 0.82446 0.72985 0.70418 0.0
O459 O 0.84782 0.64595 0.62938 0.0
O460 O 0.7945 0.64848 0.63038 0.0
O461 O 0.83662 0.72517 0.66393 0.0
C462 C 0.86332 0.7069 0.79188 0.0
C463 C 0.8261 0.67386 0.7925 0.0
C464 C 0.88005 0.70044 0.83433 0.0
C465 C 0.81576 0.65478 0.81396 0.0
C466 C 0.89028 0.71977 0.81293 0.0
C467 C 0.84252 0.66805 0.83514 0.0
C468 C 0.87413 0.72819 0.76956 0.0
C469 C 0.9205 0.74651 0.68105 0.0
H470 H 0.81374 0.70683 0.60421 0.0
H471 H 0.84817 0.64552 0.53599 0.0
H472 H 0.82487 0.73437 0.56439 0.0
H473 H 0.8363 0.61737 0.57565 0.0
H474 H 0.80481 0.66295 0.77648 0.0
H475 H 0.90119 0.7111 0.85042 0.0
H476 H 0.78673 0.62981 0.81412 0.0
H477 H 0.91918 0.74499 0.81287 0.0
Eu478 Eu 0.36263 0.15164 0.65885 0.0
Eu479 Eu 0.32932 0.14417 0.71494 0.0
C480 C 0.28297 0.07375 0.67158 0.0
C481 C 0.36933 0.1413 0.58953 0.0
C482 C 0.34402 0.15378 0.58013 0.0
C483 C 0.36454 0.11011 0.54895 0.0
C484 C 0.32998 0.14536 0.55524 0.0
C485 C 0.379 0.11894 0.57383 0.0
C486 C 0.34063 0.12402 0.53941 0.0
C487 C 0.38685 0.15245 0.61531 0.0
O488 O 0.37022 0.12 0.71606 0.0
O489 O 0.40832 0.15171 0.68563 0.0
C490 C 0.40255 0.13272 0.70524 0.0
O491 O 0.39243 0.21307 0.6758 0.0
O492 O 0.30655 0.11107 0.74646 0.0
O493 O 0.31768 0.17023 0.74722 0.0
O494 O 0.38353 0.20395 0.71679 0.0
C495 C 0.39976 0.22621 0.6991 0.0
O496 O 0.31305 0.1636 0.65269 0.0
O497 O 0.29114 0.15984 0.6914 0.0
O498 O 0.28189 0.09004 0.6928 0.0
O499 O 0.38676 0.18199 0.62678 0.0
O500 O 0.37839 0.12426 0.62925 0.0
O501 O 0.31236 0.09014 0.65804 0.0
C502 C 0.32205 0.14655 0.78552 0.0
C503 C 0.36233 0.16825 0.79325 0.0
C504 C 0.30839 0.13594 0.82802 0.0
C505 C 0.37552 0.17373 0.81834 0.0
C506 C 0.29529 0.13045 0.80307 0.0
C507 C 0.34853 0.15758 0.83585 0.0
C508 C 0.30693 0.13977 0.7594 0.0
C509 C 0.28956 0.16579 0.66795 0.0
H510 H 0.33566 0.17067 0.59187 0.0
H511 H 0.37287 0.09343 0.53698 0.0
H512 H 0.31138 0.15612 0.54819 0.0
H513 H 0.39831 0.10889 0.58072 0.0
H514 H 0.38341 0.1809 0.77995 0.0
H515 H 0.2872 0.12331 0.84128 0.0
H516 H 0.40661 0.19054 0.82409 0.0
H517 H 0.26414 0.11358 0.79744 0.0
Eu518 Eu 0.85982 0.18605 0.69016 0.0
Eu519 Eu 0.83233 0.19822 0.63267 0.0
C520 C 0.86857 0.26892 0.67587 0.0
C521 C 0.8738 0.19242 0.76023 0.0
C522 C 0.83878 0.19197 0.76409 0.0
C523 C 0.89471 0.21057 0.80396 0.0
C524 C 0.83144 0.19989 0.7878 0.0
C525 C 0.90189 0.20228 0.78027 0.0
C526 C 0.85915 0.2088 0.80795 0.0
C527 C 0.88075 0.18154 0.73562 0.0
O528 O 0.89628 0.21665 0.63361 0.0
O529 O 0.90514 0.18701 0.66649 0.0
C530 C 0.91639 0.20425 0.64626 0.0
O531 O 0.83188 0.12625 0.67092 0.0
O532 O 0.84324 0.23326 0.60171 0.0
O533 O 0.79386 0.17447 0.59821 0.0
O534 O 0.81973 0.13605 0.63075 0.0
C535 C 0.81964 0.11386 0.64771 0.0
O536 O 0.79876 0.17582 0.69206 0.0
O537 O 0.78073 0.18709 0.65365 0.0
O538 O 0.8477 0.25423 0.6545 0.0
O539 O 0.85032 0.15354 0.72225 0.0
O540 O 0.90249 0.20999 0.72281 0.0
O541 O 0.87914 0.24948 0.68999 0.0
C542 C 0.82832 0.19645 0.56325 0.0
C543 C 0.86615 0.20206 0.56201 0.0
C544 C 0.81345 0.17461 0.51954 0.0
C545 C 0.87764 0.19441 0.53967 0.0
C546 C 0.80202 0.18249 0.54188 0.0
C547 C 0.85143 0.18074 0.51826 0.0
C548 C 0.81604 0.20461 0.58674 0.0
C549 C 0.77352 0.17774 0.67627 0.0
H550 H 0.81681 0.1848 0.74885 0.0
H551 H 0.91646 0.21751 0.81929 0.0
H552 H 0.8039 0.1985 0.79052 0.0
H553 H 0.92912 0.20296 0.77763 0.0
H554 H 0.8869 0.21256 0.57828 0.0
H555 H 0.79284 0.16401 0.50319 0.0
H556 H 0.90702 0.19923 0.53905 0.0
H557 H 0.77267 0.17776 0.54249 0.0
C558 C 0.36812 0.86946 0.06363 0.0
C559 C 0.33615 0.87627 0.06291 0.0
C560 C 0.37788 0.94089 0.0495 0.0
C561 C 0.408 0.93186 0.04693 0.0
N562 N 0.43039 0.88562 0.04874 0.0
N563 N 0.30863 0.91609 0.05169 0.0
C564 C 0.40278 0.8956 0.05328 0.0
C565 C 0.34044 0.91135 0.05486 0.0
N566 N 0.36575 0.83861 0.07486 0.0
N567 N 0.38565 0.97821 0.04819 0.0
H568 H 0.2807 0.89518 0.05549 0.0
H569 H 0.30934 0.93931 0.04334 0.0
H570 H 0.41345 1.00101 0.04585 0.0
H571 H 0.36585 0.98728 0.05216 0.0
H572 H 0.38948 0.83441 0.07822 0.0
H573 H 0.34103 0.81919 0.083 0.0
H574 H 0.42632 0.85797 0.05055 0.0
H575 H 0.45609 0.9039 0.04107 0.0
C576 C 0.16768 0.48804 0.06242 0.0
C577 C 0.16201 0.45002 0.06319 0.0
C578 C 0.09544 0.42211 0.04276 0.0
C579 C 0.10154 0.46018 0.04119 0.0
N580 N 0.14631 0.52937 0.04422 0.0
N581 N 0.12441 0.38168 0.04935 0.0
C582 C 0.13859 0.49318 0.04942 0.0
C583 C 0.12711 0.41732 0.05173 0.0
N584 N 0.20006 0.51908 0.07499 0.0
N585 N 0.05883 0.39055 0.03704 0.0
H586 H 0.14714 0.37727 0.05574 0.0
H587 H 0.10133 0.3574 0.0391 0.0
H588 H 0.03481 0.393 0.03094 0.0
H589 H 0.0515 0.36231 0.04035 0.0
H590 H 0.20356 0.54678 0.07766 0.0
H591 H 0.2224 0.51661 0.08424 0.0
H592 H 0.17388 0.5542 0.04763 0.0
H593 H 0.12594 0.53401 0.03434 0.0
C594 C 0.54739 0.70201 0.03396 0.0
C595 C 0.58688 0.7224 0.04451 0.0
C596 C 0.59543 0.66795 0.03039 0.0
C597 C 0.55627 0.6479 0.01931 0.0
N598 N 0.49741 0.64817 1.00599 0.0
N599 N 0.65113 0.72945 0.04761 0.0
C600 C 0.53304 0.6658 0.01957 0.0
C601 C 0.61175 0.7068 0.04108 0.0
N602 N 0.52324 0.71646 0.03859 0.0
N603 N 0.61659 0.64938 0.03151 0.0
H604 H 0.66415 0.75822 0.05532 0.0
H605 H 0.67132 0.7211 0.0433 0.0
H606 H 0.60607 0.62128 0.02332 0.0
H607 H 0.64347 0.66073 0.04195 0.0
H608 H 0.49315 0.70099 0.03376 0.0
H609 H 0.53291 0.74308 0.04881 0.0
H610 H 0.48047 0.66123 1.00356 0.0
H611 H 0.48621 0.62155 0.99541 0.0
C612 C 0.85027 0.32716 0.96688 0.0
C613 C 0.85603 0.29472 0.96451 0.0
C614 C 0.92115 0.33341 0.98721 0.0
C615 C 0.91517 0.36569 0.9899 0.0
N616 N 0.87083 0.39057 0.98793 0.0
N617 N 0.89229 0.26378 0.97703 0.0
C618 C 0.87863 0.36164 0.98152 0.0
C619 C 0.88998 0.29684 0.97631 0.0
N620 N 0.81874 0.32574 0.95418 0.0
N621 N 0.95724 0.33826 0.99376 0.0
H622 H 0.86989 0.23664 0.96913 0.0
H623 H 0.91456 0.26252 0.9873 0.0
H624 H 0.98073 0.36466 1.00164 0.0
H625 H 0.96478 0.31711 0.98974 0.0
H626 H 0.81551 0.34997 0.9527 0.0
H627 H 0.7969 0.30081 0.94365 0.0
H628 H 0.84348 0.388 0.98436 0.0
H629 H 0.89081 0.41585 0.99896 0.0
C630 C 0.65938 0.52325 0.95183 0.0
C631 C 0.69301 0.56102 0.955 0.0
C632 C 0.65375 0.58735 0.97176 0.0
C633 C 0.62152 0.54894 0.97135 0.0
N634 N 0.59547 0.47968 0.9646 0.0
N635 N 0.72385 0.62853 0.9709 0.0
C636 C 0.62475 0.51668 0.96224 0.0
C637 C 0.69064 0.59302 0.96571 0.0
N638 N 0.66037 0.49378 0.93844 0.0
N639 N 0.64875 0.61846 0.97705 0.0
H640 H 0.7513 0.63398 0.96653 0.0
H641 H 0.72473 0.65177 0.98123 0.0
H642 H 0.62199 0.6154 0.98107 0.0
H643 H 0.66999 0.6471 0.97521 0.0
H644 H 0.63567 0.46663 0.93331 0.0
H645 H 0.6852 0.49761 0.93046 0.0
H646 H 0.59776 0.45505 0.96063 0.0
H647 H 0.57021 0.47378 0.97278 0.0
C648 C 0.49794 0.15614 0.98437 0.0
C649 C 0.45761 0.14448 0.98182 0.0
C650 C 0.4421 0.08416 1.00013 0.0
C651 C 0.4827 0.09791 1.00517 0.0
N652 N 0.54941 0.14952 1.00555 0.0
N653 N 0.39174 0.1006 0.99114 0.0
C654 C 0.51065 0.13475 0.99833 0.0
C655 C 0.42976 0.10941 0.99086 0.0
N656 N 0.52391 0.18676 0.97262 0.0
N657 N 0.41539 0.04632 1.00283 0.0
H658 H 0.38151 0.11829 0.98447 0.0
H659 H 0.37117 0.0775 0.99988 0.0
H660 H 0.42351 0.02664 1.00863 0.0
H661 H 0.38568 0.03355 0.99704 0.0
H662 H 0.55297 0.19413 0.97174 0.0
H663 H 0.51555 0.20254 0.96167 0.0
H664 H 0.57104 0.17783 1.00329 0.0
H665 H 0.55929 0.13443 0.01595 0.0
C666 C 0.68334 0.10703 0.9863 0.0
C667 C 0.69182 0.14499 0.98158 0.0
C668 C 0.64592 0.14241 0.01069 0.0
C669 C 0.63153 0.10186 0.01116 0.0
N670 N 0.64686 0.05065 1.00885 0.0
N671 N 0.6836 0.20032 0.98979 0.0
C672 C 0.65362 0.08574 1.00184 0.0
C673 C 0.67435 0.16341 0.9943 0.0
N674 N 0.70237 0.0908 0.97489 0.0
N675 N 0.63424 0.16127 0.02665 0.0
H676 H 0.70567 0.21703 0.97885 0.0
H677 H 0.6682 0.21358 0.99581 0.0
H678 H 0.61651 0.14779 0.04043 0.0
H679 H 0.64595 0.1913 0.02837 0.0
H680 H 0.69477 0.06177 0.9751 0.0
H681 H 0.72559 0.10648 0.96445 0.0
H682 H 0.66304 0.03763 1.00414 0.0
H683 H 0.627 0.03615 0.02156 0.0
C684 C 0.87741 0.511 0.96248 0.0
C685 C 0.87176 0.53559 0.97935 0.0
C686 C 0.92539 0.54205 1.00788 0.0
C687 C 0.92736 0.51317 0.99261 0.0
N688 N 0.90379 0.46812 0.9559 0.0
N689 N 0.88858 0.5736 0.01858 0.0
C690 C 0.9033 0.4974 0.96987 0.0
C691 C 0.89545 0.55109 1.00211 0.0
N692 N 0.85815 0.50091 0.93935 0.0
N693 N 0.95308 0.5619 0.02737 0.0
H694 H 0.86838 0.58257 0.0145 0.0
H695 H 0.90126 0.58163 0.0367 0.0
H696 H 0.97575 0.55649 0.03197 0.0
H697 H 0.95583 0.58608 0.03765 0.0
H698 H 0.86367 0.48616 0.92526 0.0
H699 H 0.83894 0.51037 0.9336 0.0
H700 H 0.88387 0.4523 0.94067 0.0
H701 H 0.92234 0.45747 0.96054 0.0
C702 C 0.47453 0.35767 0.9561 0.0
C703 C 0.45705 0.33505 0.97565 0.0
C704 C 0.44744 0.38648 0.9944 0.0
C705 C 0.47109 0.4115 0.97742 0.0
N706 N 0.50413 0.42145 0.94062 0.0
N707 N 0.42395 0.32521 0.01242 0.0
C708 C 0.48312 0.39703 0.95748 0.0
C709 C 0.44196 0.3484 0.99428 0.0
N710 N 0.48298 0.3414 0.93644 0.0
N711 N 0.43008 0.39928 0.01042 0.0
H712 H 0.41764 0.2964 0.01206 0.0
H713 H 0.41644 0.33465 0.02822 0.0
H714 H 0.43351 0.42703 0.01066 0.0
H715 H 0.40979 0.38171 0.02198 0.0
H716 H 0.49328 0.35507 0.92063 0.0
H717 H 0.47695 0.31264 0.93523 0.0
H718 H 0.51754 0.41435 0.9271 0.0
H719 H 0.50932 0.44984 0.94066 0.0
C720 C 0.14724 0.64983 0.0627 0.0
C721 C 0.15164 0.6752 0.04444 0.0
C722 C 0.09191 0.62405 0.02057 0.0
C723 C 0.09105 0.59706 0.03676 0.0
N724 N 0.11699 0.58323 0.07342 0.0
N725 N 0.1291 0.68782 1.00601 0.0
C726 C 0.11808 0.60975 0.05815 0.0
C727 C 0.12395 0.66283 0.02351 0.0
N728 N 0.17092 0.66423 0.08435 0.0
N729 N 0.06147 0.61271 1.00283 0.0
H730 H 0.15109 0.71704 1.00817 0.0
H731 H 0.11292 0.67928 0.98886 0.0
H732 H 0.03727 0.5846 1.00047 0.0
H733 H 0.0583 0.63178 0.99194 0.0
H734 H 0.16714 0.64829 0.09944 0.0
H735 H 0.19268 0.69343 0.08796 0.0
H736 H 0.13854 0.58963 0.08766 0.0
H737 H 0.09546 0.5539 0.07105 0.0
C738 C 0.36414 0.51978 0.04479 0.0
C739 C 0.33481 0.47998 0.04135 0.0
C740 C 0.37109 0.46781 0.01055 0.0
C741 C 0.40334 0.50581 0.01721 0.0
N742 N 0.43114 0.56889 0.03987 0.0
N743 N 0.30818 0.41592 0.02044 0.0
C744 C 0.39979 0.53234 0.0338 0.0
C745 C 0.33733 0.45406 0.02372 0.0
N746 N 0.35776 0.54531 0.05869 0.0
N747 N 0.37294 0.44508 0.99161 0.0
H748 H 0.28231 0.40566 0.0289 0.0
H749 H 0.31001 0.39421 0.01015 0.0
H750 H 0.39731 0.45462 0.98169 0.0
H751 H 0.34951 0.41822 0.9844 0.0
H752 H 0.37644 0.57533 0.06052 0.0
H753 H 0.33173 0.53651 0.06677 0.0
H754 H 0.43232 0.58836 0.05386 0.0
H755 H 0.45703 0.57928 0.03148 0.0
C756 C 0.59583 0.91209 0.02317 0.0
C757 C 0.59957 0.9011 0.04689 0.0
C758 C 0.5609 0.92871 0.06242 0.0
C759 C 0.56135 0.94393 0.03948 0.0
N760 N 0.58423 0.95508 0.99903 0.0
N761 N 0.58861 0.90069 0.08978 0.0
C762 C 0.57987 0.93672 0.02002 0.0
C763 C 0.58287 0.90983 0.06674 0.0
N764 N 0.60715 0.89862 1.00355 0.0
N765 N 0.53826 0.93098 0.07966 0.0
H766 H 0.6033 0.88556 0.09338 0.0
H767 H 0.58104 0.91017 0.10556 0.0
H768 H 0.52124 0.94397 0.07693 0.0
H769 H 0.53355 0.91706 0.09573 0.0
H770 H 0.60114 0.90206 0.98536 0.0
H771 H 0.61952 0.88094 1.00524 0.0
H772 H 0.60144 0.95449 0.98551 0.0
H773 H 0.57379 0.97405 0.99602 0.0
C774 C 0.99786 0.24357 0.38142 0.0
C775 C 0.99294 0.20878 0.39039 0.0
C776 C 0.05897 0.22587 0.3808 0.0
C777 C 0.06513 0.26215 0.37383 0.0
N778 N 0.04331 0.30881 0.37165 0.0
N779 N 0.02077 0.16985 0.4029 0.0
C780 C 0.03533 0.27194 0.37522 0.0
C781 C 0.02413 0.20084 0.39136 0.0
N782 N 0.96648 0.24902 0.37818 0.0
N783 N 0.0857 0.21463 0.3764 0.0
H784 H 0.99567 0.15091 0.41092 0.0
H785 H 0.04399 0.16495 0.4065 0.0
H786 H 0.11102 0.23175 0.36803 0.0
H787 H 0.08105 0.18692 0.37881 0.0
H788 H 0.96721 0.27168 0.36912 0.0
H789 H 0.93871 0.22918 0.38285 0.0
H790 H 0.02413 0.3189 0.37499 0.0
H791 H 0.07055 0.33051 0.36738 0.0
C792 C 0.79023 0.75094 0.3893 0.0
C793 C 0.82553 0.78354 0.40042 0.0
C794 C 0.8021 0.82708 0.38741 0.0
C795 C 0.76497 0.79419 0.37915 0.0
N796 N 0.72179 0.72464 0.3752 0.0
N797 N 0.86423 0.85252 0.41224 0.0
C798 C 0.7586 0.75602 0.38068 0.0
C799 C 0.83136 0.82166 0.39995 0.0
N800 N 0.78712 0.71512 0.38683 0.0
N801 N 0.80977 0.86342 0.38262 0.0
H802 H 0.88674 0.84977 0.42099 0.0
H803 H 0.86808 0.88033 0.41513 0.0
H804 H 0.78924 0.86831 0.37316 0.0
H805 H 0.83735 0.88822 0.38601 0.0
H806 H 0.76375 0.69093 0.37671 0.0
H807 H 0.80969 0.71038 0.39304 0.0
H808 H 0.71432 0.69635 0.37845 0.0
H809 H 0.69773 0.72729 0.36944 0.0
C810 C 0.27004 0.04685 0.36513 0.0
C811 C 0.24402 0.05594 0.37663 0.0
C812 C 0.18788 0.99601 0.35618 0.0
C813 C 0.21395 0.98363 0.34865 0.0
N814 N 0.27962 0.99787 0.34337 0.0
N815 N 0.17844 0.04026 0.38345 0.0
C816 C 0.25504 0.00953 0.35211 0.0
C817 C 0.20294 0.03114 0.37191 0.0
N818 N 0.30901 0.07407 0.36668 0.0
N819 N 0.14889 0.9743 0.34836 0.0
H820 H 0.18847 0.06632 0.39445 0.0
H821 H 0.14849 0.02121 0.38331 0.0
H822 H 0.13689 0.9484 0.33695 0.0
H823 H 0.12892 0.98349 0.35138 0.0
H824 H 0.32926 0.07086 0.35703 0.0
H825 H 0.32083 0.10154 0.37628 0.0
H826 H 0.30977 0.0128 0.34788 0.0
H827 H 0.26951 0.97222 0.33189 0.0
C828 C 0.56106 0.62936 0.31062 0.0
C829 C 0.52522 0.62471 0.30006 0.0
C830 C 0.54453 0.69061 0.31757 0.0
C831 C 0.58248 0.69714 0.32487 0.0
N832 N 0.62842 0.67415 0.32672 0.0
N833 N 0.48317 0.65128 0.29193 0.0
C834 C 0.59107 0.66673 0.32124 0.0
C835 C 0.51681 0.6553 0.30335 0.0
N836 N 0.56624 0.59787 0.31049 0.0
N837 N 0.53488 0.718 0.32456 0.0
H838 H 0.46174 0.62551 0.28193 0.0
H839 H 0.47754 0.67411 0.29105 0.0
H840 H 0.55446 0.74395 0.33512 0.0
H841 H 0.50668 0.71364 0.32183 0.0
H842 H 0.59013 0.59834 0.31989 0.0
H843 H 0.54477 0.57017 0.30279 0.0
H844 H 0.63767 0.65456 0.32196 0.0
H845 H 0.65108 0.70118 0.33447 0.0
C846 C 0.35829 0.9159 0.31106 0.0
C847 C 0.35714 0.89406 0.28928 0.0
C848 C 0.28608 0.86707 0.28203 0.0
C849 C 0.28664 0.88524 0.30531 0.0
N850 N 0.32267 0.92575 0.34268 0.0
N851 N 0.31981 0.84552 0.25529 0.0
C852 C 0.32261 0.90928 0.32005 0.0
C853 C 0.32102 0.86897 0.27497 0.0
N854 N 0.39366 0.94397 0.32266 0.0
N855 N 0.25221 0.84802 0.26659 0.0
H856 H 0.34471 0.84618 0.24943 0.0
H857 H 0.29393 0.8233 0.24585 0.0
H858 H 0.22552 0.84416 0.27139 0.0
H859 H 0.25096 0.83825 0.24832 0.0
H860 H 0.39679 0.96371 0.33714 0.0
H861 H 0.4203 0.94986 0.31642 0.0
H862 H 0.34706 0.93954 0.35561 0.0
H863 H 0.29762 0.92393 0.34919 0.0
C864 C 0.0941 0.43871 0.31397 0.0
C865 C 0.12299 0.47847 0.31358 0.0
C866 C 0.16925 0.46813 0.33938 0.0
C867 C 0.14252 0.4276 0.33652 0.0
N868 N 0.08072 0.37322 0.31888 0.0
N869 N 0.19057 0.52952 0.32228 0.0
C870 C 0.10524 0.41255 0.32318 0.0
C871 C 0.16126 0.49289 0.32543 0.0
N872 N 0.05581 0.42621 0.30644 0.0
N873 N 0.20222 0.48299 0.35544 0.0
H874 H 0.18643 0.54806 0.31132 0.0
H875 H 0.21981 0.54001 0.32844 0.0
H876 H 0.20881 0.46548 0.36591 0.0
H877 H 0.221 0.51273 0.35998 0.0
H878 H 0.03299 0.39844 0.30864 0.0
H879 H 0.0463 0.44466 0.30017 0.0
H880 H 0.05526 0.36054 0.30681 0.0
H881 H 0.08716 0.35315 0.32613 0.0
C882 C 0.33071 0.48621 0.31618 0.0
C883 C 0.35843 0.4737 0.31606 0.0
C884 C 0.31948 0.42181 0.34177 0.0
C885 C 0.28873 0.43016 0.33825 0.0
N886 N 0.26389 0.46935 0.32161 0.0
N887 N 0.38137 0.43129 0.32928 0.0
C888 C 0.29427 0.46261 0.32572 0.0
C889 C 0.35376 0.44236 0.3294 0.0
N890 N 0.33924 0.52047 0.30691 0.0
N891 N 0.31568 0.39418 0.35694 0.0
H892 H 0.40764 0.44711 0.32147 0.0
H893 H 0.37786 0.40593 0.33603 0.0
H894 H 0.29084 0.37875 0.36615 0.0
H895 H 0.33803 0.3886 0.36197 0.0
H896 H 0.32182 0.53314 0.30823 0.0
H897 H 0.36583 0.53805 0.29985 0.0
H898 H 0.26443 0.4898 0.31034 0.0
H899 H 0.23693 0.45257 0.32832 0.0
C900 C 0.55306 0.87612 0.33387 0.0
C901 C 0.52978 0.85891 0.3111 0.0
C902 C 0.56406 0.82291 0.30329 0.0
C903 C 0.5877 0.84037 0.32603 0.0
N904 N 0.61115 0.89024 0.36001 0.0
N905 N 0.51802 0.8229 0.27179 0.0
C906 C 0.58407 0.86895 0.34047 0.0
C907 C 0.53697 0.83458 0.29502 0.0
N908 N 0.54477 0.89843 0.34953 0.0
N909 N 0.56612 0.79385 0.29017 0.0
H910 H 0.49797 0.83097 0.26539 0.0
H911 H 0.52456 0.80825 0.25822 0.0
H912 H 0.58561 0.78459 0.29548 0.0
H913 H 0.54663 0.77685 0.27502 0.0
H914 H 0.5572 0.9077 0.36767 0.0
H915 H 0.52369 0.90601 0.34478 0.0
H916 H 0.6127 0.91431 0.36968 0.0
H917 H 0.63442 0.88606 0.3653 0.0
C918 C 0.15283 0.69359 0.29804 0.0
C919 C 0.11892 0.66675 0.30851 0.0
C920 C 0.10256 0.71751 0.31762 0.0
C921 C 0.13975 0.74565 0.31101 0.0
N922 N 0.2019 0.76124 0.29647 0.0
N923 N 0.06065 0.6516 0.32797 0.0
C924 C 0.1651 0.73389 0.30116 0.0
C925 C 0.09321 0.67814 0.31791 0.0
N926 N 0.17334 0.68044 0.28531 0.0
N927 N 0.0761 0.72853 0.32332 0.0
H928 H 0.05195 0.62211 0.3273 0.0
H929 H 0.04327 0.65893 0.33795 0.0
H930 H 0.08227 0.75721 0.32336 0.0
H931 H 0.04715 0.70906 0.32599 0.0
H932 H 0.19631 0.69796 0.27526 0.0
H933 H 0.16492 0.651 0.28294 0.0
H934 H 0.22323 0.75467 0.29184 0.0
H935 H 0.21235 0.79103 0.29906 0.0
C936 C 0.77337 0.99707 0.36082 0.0
C937 C 0.80738 0.0101 0.37725 0.0
C938 C 0.78053 0.94516 0.39151 0.0
C939 C 0.74982 0.93084 0.37221 0.0
N940 N 0.71538 0.94219 0.3388 0.0
N941 N 0.84402 0.99846 0.40896 0.0
C942 C 0.7455 0.95663 0.35712 0.0
C943 C 0.81094 0.9848 0.39309 0.0
N944 N 0.76777 0.02354 0.34896 0.0
N945 N 0.78042 0.92084 0.40825 0.0
H946 H 0.86581 0.02777 0.41131 0.0
H947 H 0.85075 0.98077 0.41903 0.0
H948 H 0.75859 0.89165 0.40739 0.0
H949 H 0.80007 0.93 0.42397 0.0
H950 H 0.74206 0.01661 0.33834 0.0
H951 H 0.78781 0.05338 0.35147 0.0
H952 H 0.71308 0.95848 0.32524 0.0
H953 H 0.69323 0.91307 0.33647 0.0
C954 C 0.99687 0.79885 0.3532 0.0
C955 C 0.99947 0.81541 0.37724 0.0
C956 C 0.06832 0.86353 0.37439 0.0
C957 C 0.06798 0.84209 0.35255 0.0
N958 N 0.0308 0.78796 0.32113 0.0
N959 N 0.03672 0.86402 0.41103 0.0
C960 C 0.03178 0.80989 0.34157 0.0
C961 C 0.03478 0.84832 0.38776 0.0
N962 N 0.96091 0.77229 0.34162 0.0
N963 N 0.10059 0.89881 0.38214 0.0
H964 H 0.01216 0.85493 0.42074 0.0
H965 H 0.06281 0.88461 0.42115 0.0
H966 H 0.12553 0.91104 0.37274 0.0
H967 H 0.10137 0.91763 0.39645 0.0
H968 H 0.95628 0.76174 0.32316 0.0
H969 H 0.93513 0.76378 0.34995 0.0
H970 H 1.00647 0.7613 0.31452 0.0
H971 H 0.05481 0.7947 0.31142 0.0
C972 C 0.21907 0.22025 0.39368 0.0
C973 C 0.24905 0.22227 0.37989 0.0
C974 C 0.2403 0.26456 0.35244 0.0
C975 C 0.21398 0.26664 0.36821 0.0
N976 N 0.17977 0.24884 0.40466 0.0
N977 N 0.28927 0.24579 0.34651 0.0
C978 C 0.20353 0.24491 0.38899 0.0
C979 C 0.25964 0.24387 0.35915 0.0
N980 N 0.2053 0.19444 0.4111 0.0
N981 N 0.24708 0.28272 0.33126 0.0
H982 H 0.30266 0.22949 0.35029 0.0
H983 H 0.30189 0.26464 0.33308 0.0
H984 H 0.23508 0.2998 0.32638 0.0
H985 H 0.2627 0.27915 0.3177 0.0
H986 H 0.18094 0.18874 0.42025 0.0
H987 H 0.21622 0.176 0.41486 0.0
H988 H 0.17466 0.23739 0.4216 0.0
H989 H 0.1669 0.26573 0.40148 0.0
C990 C 0.70149 0.54145 0.73188 0.0
C991 C 0.66934 0.5479 0.72968 0.0
C992 C 0.71069 0.61083 0.71405 0.0
C993 C 0.74139 0.60221 0.71348 0.0
N994 N 0.76462 0.5571 0.71862 0.0
N995 N 0.64127 0.58592 0.71563 0.0
C996 C 0.7365 0.56695 0.72162 0.0
C997 C 0.67335 0.58185 0.71994 0.0
N998 N 0.69874 0.51135 0.74421 0.0
N999 N 0.7177 0.64728 0.71011 0.0
H1000 H 0.6135 0.56562 0.72005 0.0
H1001 H 0.64154 0.60785 0.70595 0.0
H1002 H 0.74503 0.66967 0.70654 0.0
H1003 H 0.69761 0.65646 0.71274 0.0
H1004 H 0.72245 0.50752 0.74868 0.0
H1005 H 0.67348 0.49209 0.75196 0.0
H1006 H 0.76098 0.53 0.72184 0.0
H1007 H 0.79037 0.57472 0.71079 0.0
C1008 C 0.47148 0.09206 0.71422 0.0
C1009 C 0.49487 0.11477 0.73607 0.0
C1010 C 0.45549 0.14658 0.73873 0.0
C1011 C 0.43411 0.12624 0.71586 0.0
N1012 N 0.42489 0.08324 0.68005 0.0
N1013 N 0.51502 0.16987 0.76579 0.0
C1014 C 0.44337 0.10037 0.70294 0.0
C1015 C 0.48861 0.14395 0.74729 0.0
N1016 N 0.4744 0.06107 0.70503 0.0
N1017 N 0.44375 0.16777 0.75264 0.0
H1018 H 0.54009 0.1693 0.77215 0.0
H1019 H 0.51425 0.1942 0.77305 0.0
H1020 H 0.42019 0.17124 0.74696 0.0
H1021 H 0.45548 0.17944 0.77068 0.0
H1022 H 0.45508 0.04071 0.69089 0.0
H1023 H 0.49428 0.05377 0.71278 0.0
H1024 H 0.43361 0.06788 0.66852 0.0
H1025 H 0.40225 0.08635 0.67189 0.0
C1026 C 0.87369 0.35941 0.70633 0.0
C1027 C 0.91483 0.38485 0.70961 0.0
C1028 C 0.92501 0.33613 0.68712 0.0
C1029 C 0.88386 0.31042 0.6842 0.0
N1030 N 0.81861 0.2999 0.68589 0.0
N1031 N 0.97966 0.40088 0.70034 0.0
C1032 C 0.85802 0.32287 0.69211 0.0
C1033 C 0.94051 0.37425 0.69907 0.0
N1034 N 0.84976 0.36975 0.71753 0.0
N1035 N 0.94917 0.32367 0.67869 0.0
H1036 H 0.99227 0.42853 0.70979 0.0
H1037 H 0.9996 0.39675 0.69096 0.0
H1038 H 0.93874 0.29743 0.66781 0.0
H1039 H 0.97938 0.33852 0.68288 0.0
H1040 H 0.82003 0.35087 0.71845 0.0
H1041 H 0.86008 0.39683 0.72734 0.0
H1042 H 0.79842 0.30875 0.689 0.0
H1043 H 0.80607 0.2728 0.67577 0.0
C1044 C 0.18576 0.99547 0.63857 0.0
C1045 C 0.19332 0.96437 0.63484 0.0
C1046 C 0.2573 0.00303 0.65891 0.0
C1047 C 0.25008 0.03446 0.66225 0.0
N1048 N 0.20388 0.05733 0.66089 0.0
N1049 N 0.23131 0.93453 0.64581 0.0
C1050 C 0.21302 0.0295 0.65405 0.0
C1051 C 0.22758 0.96691 0.64647 0.0
N1052 N 0.15365 0.99339 0.62619 0.0
N1053 N 0.2929 0.00804 0.66729 0.0
H1054 H 0.20993 0.90772 0.63687 0.0
H1055 H 0.25377 0.93316 0.65572 0.0
H1056 H 0.31416 0.03294 0.67814 0.0
H1057 H 0.30208 0.98831 0.6628 0.0
H1058 H 0.1491 0.01694 0.62552 0.0
H1059 H 0.1326 0.96867 0.61512 0.0
H1060 H 0.17598 0.05357 0.65766 0.0
H1061 H 0.22334 0.0832 0.67152 0.0
C1062 C 0.98731 0.19221 0.60718 0.0
C1063 C 0.02385 0.22037 0.61988 0.0
C1064 C 0.98998 0.23705 0.6504 0.0
C1065 C 0.95344 0.21004 0.63711 0.0
N1066 N 0.9172 0.16618 0.60081 0.0
N1067 N 0.06078 0.27438 0.65078 0.0
C1068 C 0.95211 0.18907 0.6148 0.0
C1069 C 0.02539 0.24417 0.64073 0.0
N1070 N 0.98615 0.16728 0.58848 0.0
N1071 N 0.99083 0.25577 0.67237 0.0
H1072 H 0.08721 0.28043 0.64411 0.0
H1073 H 0.06395 0.29543 0.66433 0.0
H1074 H 0.96577 0.25305 0.67941 0.0
H1075 H 0.01605 0.27225 0.68439 0.0
H1076 H 0.96044 0.14307 0.58041 0.0
H1077 H 0.01126 0.16911 0.58207 0.0
H1078 H 0.91487 0.15413 0.58298 0.0
H1079 H 0.89043 0.16111 0.60633 0.0
C1080 C 0.75283 0.76646 0.65252 0.0
C1081 C 0.7785 0.80679 0.65099 0.0
C1082 C 0.83011 0.80324 0.67583 0.0
C1083 C 0.80654 0.76224 0.67394 0.0
N1084 N 0.74694 0.70385 0.65761 0.0
N1085 N 0.84422 0.86215 0.65741 0.0
C1086 C 0.76827 0.74353 0.66146 0.0
C1087 C 0.81789 0.82492 0.66174 0.0
N1088 N 0.71351 0.75031 0.64637 0.0
N1089 N 0.86411 0.82147 0.6911 0.0
H1090 H 0.83699 0.87846 0.6462 0.0
H1091 H 0.8741 0.87535 0.66282 0.0
H1092 H 0.87365 0.80624 0.70173 0.0
H1093 H 0.88075 0.85161 0.69491 0.0
H1094 H 0.6931 0.72192 0.64944 0.0
H1095 H 0.70079 0.76636 0.64056 0.0
H1096 H 0.72083 0.68887 0.64616 0.0
H1097 H 0.75674 0.68595 0.66443 0.0
C1098 C 0.02633 0.79676 0.66623 0.0
C1099 C 0.0244 0.81957 0.64784 0.0
C1100 C 0.95899 0.80426 0.65788 0.0
C1101 C 0.95841 0.77651 0.67333 0.0
N1102 N 0.991 0.74642 0.69316 0.0
N1103 N 0.9913 0.84809 0.62681 0.0
C1104 C 0.99225 0.77327 0.67813 0.0
C1105 C 0.99168 0.82482 0.64421 0.0
N1106 N 0.06079 0.7976 0.67213 0.0
N1107 N 0.92794 0.81037 0.65612 0.0
H1108 H 0.01566 0.86496 0.6175 0.0
H1109 H 0.9669 0.85002 0.621 0.0
H1110 H 0.90339 0.79491 0.66549 0.0
H1111 H 0.92733 0.83223 0.64687 0.0
H1112 H 0.06545 0.78409 0.68665 0.0
H1113 H 0.086 0.81479 0.66362 0.0
H1114 H 0.01277 0.73912 0.69528 0.0
H1115 H 0.96708 0.73007 0.70293 0.0
C1116 C 0.20832 0.16642 0.6263 0.0
C1117 C 0.2003 0.19131 0.64115 0.0
C1118 C 0.25502 0.20472 0.67129 0.0
C1119 C 0.25954 0.17543 0.65823 0.0
N1120 N 0.23596 0.12425 0.6247 0.0
N1121 N 0.21377 0.2326 0.67853 0.0
C1122 C 0.23531 0.15546 0.63591 0.0
C1123 C 0.22319 0.21021 0.66378 0.0
N1124 N 0.19001 0.1532 0.60297 0.0
N1125 N 0.28187 0.22839 0.69037 0.0
H1126 H 0.19214 0.2391 0.67307 0.0
H1127 H 0.22574 0.24282 0.69669 0.0
H1128 H 0.30557 0.22566 0.69674 0.0
H1129 H 0.28273 0.25307 0.69856 0.0
H1130 H 0.19745 0.13818 0.59022 0.0
H1131 H 0.16993 0.16061 0.59561 0.0
H1132 H 0.21597 0.10608 0.61004 0.0
H1133 H 0.25368 0.11373 0.63145 0.0
C1134 C 0.81592 0.01745 0.63511 0.0
C1135 C 0.77705 0.99207 0.64023 0.0
C1136 C 0.76354 0.04574 0.64148 0.0
C1137 C 0.80408 0.07203 0.64076 0.0
N1138 N 0.86935 0.08414 0.63662 0.0
N1139 N 0.71257 0.97991 0.64691 0.0
C1140 C 0.83037 0.0582 0.63707 0.0
C1141 C 0.75022 0.00548 0.64259 0.0
N1142 N 0.83883 1.00241 0.62848 0.0
N1143 N 0.73811 0.05955 0.6414 0.0
H1144 H 0.70168 0.95 0.64661 0.0
H1145 H 0.6925 0.98818 0.65163 0.0
H1146 H 0.74738 0.08899 0.64084 0.0
H1147 H 0.70781 0.04192 0.64003 0.0
H1148 H 0.86644 0.01889 0.6225 0.0
H1149 H 0.82866 0.97255 0.62689 0.0
H1150 H 0.89082 0.07633 0.63676 0.0
H1151 H 0.88056 0.11411 0.63734 0.0
C1152 C 0.49029 0.32076 0.7263 0.0
C1153 C 0.48565 0.34775 0.71287 0.0
C1154 C 0.42103 0.29624 0.69475 0.0
C1155 C 0.42817 0.26826 0.70538 0.0
N1156 N 0.47246 0.25341 0.72812 0.0
N1157 N 0.44779 0.3626 0.68404 0.0
C1158 C 0.46331 0.28037 0.72067 0.0
C1159 C 0.45112 0.33599 0.69723 0.0
N1160 N 0.52075 0.33379 0.74424 0.0
N1161 N 0.38533 0.28485 0.68251 0.0
H1162 H 0.46839 0.39229 0.68645 0.0
H1163 H 0.42577 0.3552 0.66993 0.0
H1164 H 0.36306 0.25589 0.67953 0.0
H1165 H 0.37668 0.30417 0.67679 0.0
H1166 H 0.5237 0.31581 0.75627 0.0
H1167 H 0.54101 0.36334 0.74859 0.0
H1168 H 0.49933 0.2606 0.7373 0.0
H1169 H 0.45476 0.22376 0.72283 0.0
C1170 C 0.6653 0.12368 0.68693 0.0
C1171 C 0.66677 0.14332 0.70969 0.0
C1172 C 0.73607 0.1907 0.70756 0.0
C1173 C 0.73553 0.16983 0.68535 0.0
N1174 N 0.69729 0.12245 0.65069 0.0
N1175 N 0.69901 0.20056 0.73833 0.0
C1176 C 0.69929 0.13848 0.67386 0.0
C1177 C 0.70074 0.17865 0.71883 0.0
N1178 N 0.63185 0.08974 0.67848 0.0
N1179 N 0.77064 0.22139 0.71827 0.0
H1180 H 0.67331 0.19218 0.74672 0.0
H1181 H 0.72158 0.22835 0.7448 0.0
H1182 H 0.79655 0.23296 0.70984 0.0
H1183 H 0.77422 0.23455 0.73594 0.0
H1184 H 0.62999 0.07087 0.66383 0.0
H1185 H 0.606 0.07951 0.68697 0.0
H1186 H 0.67117 0.10236 0.64044 0.0
H1187 H 0.7213 0.13127 0.64064 0.0
C1188 C 0.91325 0.57679 0.73031 0.0
C1189 C 0.93077 0.56933 0.71043 0.0
C1190 C 0.91575 0.61008 0.68529 0.0
C1191 C 0.8955 0.61515 0.70441 0.0
N1192 N 0.86995 0.59935 0.74376 0.0
N1193 N 0.94324 0.57292 0.66773 0.0
C1194 C 0.89292 0.59749 0.72662 0.0
C1195 C 0.93032 0.58414 0.68752 0.0
N1196 N 0.91663 0.56468 0.75277 0.0
N1197 N 0.92281 0.63154 0.66555 0.0
H1198 H 0.95487 0.55452 0.66873 0.0
H1199 H 0.93949 0.5792 0.64988 0.0
H1200 H 0.91333 0.65147 0.66341 0.0
H1201 H 0.94117 0.63235 0.65243 0.0
H1202 H 0.90833 0.57284 0.76872 0.0
H1203 H 0.93024 0.54839 0.75583 0.0
H1204 H 0.86345 0.58365 0.75911 0.0
H1205 H 0.85475 0.61433 0.74171 0.0
C1206 C 0.48243 0.97935 0.23579 0.0
C1207 C 0.4667 0.93848 0.23485 0.0
C1208 C 0.48334 0.93798 0.19225 0.0
C1209 C 0.49396 0.97773 0.19217 0.0
N1210 N 0.49804 0.03492 0.21295 0.0
N1211 N 0.44726 0.87771 0.21102 0.0
C1212 C 0.49223 0.99816 0.21376 0.0
C1213 C 0.46603 0.91745 0.2128 0.0
N1214 N 0.48868 1.00034 0.2579 0.0
N1215 N 0.49062 0.92006 0.17291 0.0
H1216 H 0.4341 0.86153 0.22554 0.0
H1217 H 0.44192 0.86061 0.19457 0.0
H1218 H 0.50358 0.93426 0.15769 0.0
H1219 H 0.48726 0.8924 0.173 0.0
H1220 H 0.50368 0.03064 0.26019 0.0
H1221 H 0.48223 0.98757 0.27443 0.0
H1222 H 0.49285 0.04954 0.2273 0.0
H1223 H 0.50464 0.04959 0.19713 0.0
C1224 C 0.1006 0.52266 0.22016 0.0
C1225 C 0.07612 0.51869 0.23906 0.0
C1226 C 0.02207 0.50357 0.20791 0.0
C1227 C 0.04512 0.50326 0.18908 0.0
N1228 N 0.10446 0.50662 0.17736 0.0
N1229 N 0.01142 0.49823 0.25101 0.0
C1230 C 0.08397 0.51128 0.19521 0.0
C1231 C 0.03624 0.50721 0.23296 0.0
N1232 N 0.13993 0.53834 0.22598 0.0
N1233 N 0.98705 0.50153 0.20188 0.0
H1234 H 0.0204 0.49985 0.26957 0.0
H1235 H 0.98123 0.48566 0.24737 0.0
H1236 H 0.97586 0.49933 0.18374 0.0
H1237 H 0.97092 0.50576 0.21483 0.0
H1238 H 0.15988 0.54578 0.21285 0.0
H1239 H 0.15313 0.54711 0.24402 0.0
H1240 H 0.13117 0.50786 0.18112 0.0
H1241 H 0.09327 0.49822 0.15892 0.0
C1242 C 0.51342 0.52823 0.21046 0.0
C1243 C 0.49996 0.55434 0.21662 0.0
C1244 C 0.50887 0.57561 0.17503 0.0
C1245 C 0.51778 0.54623 0.1681 0.0
N1246 N 0.5225 0.4903 0.1781 0.0
N1247 N 0.47964 0.59925 0.20404 0.0
C1248 C 0.51852 0.5214 0.18554 0.0
C1249 C 0.49636 0.57718 0.19872 0.0
N1250 N 0.52229 0.5107 0.22856 0.0
N1251 N 0.5134 0.60268 0.15921 0.0
H1252 H 0.4702 0.60126 0.22119 0.0
H1253 H 0.47222 0.61308 0.19091 0.0
H1254 H 0.52265 0.60253 0.14175 0.0
H1255 H 0.51137 0.6272 0.16416 0.0
H1256 H 0.53609 0.49459 0.22559 0.0
H1257 H 0.51925 0.51528 0.24708 0.0
H1258 H 0.51893 0.46878 0.18942 0.0
H1259 H 0.52591 0.48399 0.15996 0.0
C1260 C 0.93873 0.4497 0.80714 0.0
C1261 C 0.96794 0.46593 0.7906 0.0
C1262 C 0.01904 0.49174 0.82523 0.0
C1263 C 0.99014 0.47188 0.84143 0.0
N1264 N 0.9229 0.42678 0.84738 0.0
N1265 N 0.03606 0.49568 0.78331 0.0
C1266 C 0.95002 0.44944 0.83229 0.0
C1267 C 1.00819 0.48515 0.79948 0.0
N1268 N 0.90033 0.43556 0.79898 0.0
N1269 N 0.0567 0.51782 0.83449 0.0
H1270 H 0.02939 0.49065 0.76425 0.0
H1271 H 0.06549 0.50596 0.78878 0.0
H1272 H 0.06576 0.5239 0.8533 0.0
H1273 H 0.07802 0.53614 0.8237 0.0
H1274 H 0.87821 0.42707 0.81066 0.0
H1275 H 0.89101 0.43551 0.78072 0.0
H1276 H 0.89395 0.40656 0.84109 0.0
H1277 H 0.93007 0.42573 0.86588 0.0
C1278 C 0.55809 0.47479 0.80558 0.0
C1279 C 0.56226 0.49801 0.78592 0.0
C1280 C 0.54181 0.53648 0.811 0.0
C1281 C 0.53445 0.51121 0.82983 0.0
N1282 N 0.52819 0.45176 0.84316 0.0
N1283 N 0.55022 0.5455 0.76787 0.0
C1284 C 0.54041 0.47897 0.82656 0.0
C1285 C 0.55178 0.52728 0.78803 0.0
N1286 N 0.57241 0.44985 0.80467 0.0
N1287 N 0.54084 0.57012 0.81535 0.0
H1288 H 0.55672 0.53914 0.75062 0.0
H1289 H 0.5389 0.56416 0.76767 0.0
H1290 H 0.53409 0.57821 0.83201 0.0
H1291 H 0.55017 0.5917 0.80328 0.0
H1292 H 0.57404 0.43533 0.81957 0.0
H1293 H 0.58588 0.44619 0.78974 0.0
H1294 H 0.52803 0.42559 0.84043 0.0
H1295 H 0.51479 0.45365 0.85864 0.0
C1296 C 0.5519 0.08781 0.83153 0.0
C1297 C 0.52776 0.06431 0.81014 0.0
C1298 C 0.48627 0.01356 0.83578 0.0
C1299 C 0.51306 0.03509 0.85673 0.0
N1300 N 0.5749 0.08992 0.87393 0.0
N1301 N 0.47536 1.0024 0.79126 0.0
C1302 C 0.54685 0.07153 0.85446 0.0
C1303 C 0.49577 0.02651 0.81207 0.0
N1304 N 0.57893 0.12605 0.83007 0.0
N1305 N 0.45121 0.98136 0.83861 0.0
H1306 H 0.48149 0.01073 0.77357 0.0
H1307 H 0.45459 0.97309 0.79149 0.0
H1308 H 0.44306 0.97117 0.8557 0.0
H1309 H 0.42878 0.96686 0.8244 0.0
H1310 H 0.5945 0.14565 0.84546 0.0
H1311 H 0.58318 0.13916 0.81366 0.0
H1312 H 0.60208 0.11436 0.87256 0.0
H1313 H 0.57252 0.07881 0.89098 0.0
C1314 C 0.14618 0.30732 0.56467 0.0
C1315 C 0.13202 0.26673 0.56411 0.0
C1316 C 0.14939 0.26639 0.52167 0.0
C1317 C 0.15841 0.30563 0.52117 0.0
N1318 N 0.15949 0.36177 0.54121 0.0
N1319 N 0.11484 0.2062 0.54075 0.0
C1320 C 0.1554 0.32575 0.54246 0.0
C1321 C 0.13238 0.24586 0.54228 0.0
N1322 N 0.15159 0.32847 0.58656 0.0
N1323 N 0.15793 0.24897 0.50269 0.0
H1324 H 0.10172 0.18998 0.55526 0.0
H1325 H 0.11032 0.18911 0.52443 0.0
H1326 H 0.17074 0.2632 0.48744 0.0
H1327 H 0.15578 0.22186 0.50314 0.0
H1328 H 0.1655 0.35875 0.58856 0.0
H1329 H 0.14565 0.31606 0.60323 0.0
H1330 H 0.15332 0.37595 0.55532 0.0
H1331 H 0.16558 0.37609 0.52525 0.0
C1332 C 0.69065 0.84977 0.56778 0.0
C1333 C 0.70876 0.8297 0.57777 0.0
C1334 C 0.6991 0.79622 0.53669 0.0
C1335 C 0.68955 0.82264 0.52626 0.0
N1336 N 0.67714 0.87591 0.53205 0.0
N1337 N 0.69545 0.76354 0.57297 0.0
C1338 C 0.68559 0.84983 0.54187 0.0
C1339 C 0.70384 0.79698 0.56272 0.0
N1340 N 0.672 0.86261 0.58257 0.0
N1341 N 0.70307 0.76992 0.52188 0.0
H1342 H 0.6891 0.7601 0.59124 0.0
H1343 H 0.68829 0.73767 0.56264 0.0
H1344 H 0.69873 0.7676 0.50272 0.0
H1345 H 0.71365 0.75262 0.52874 0.0
H1346 H 0.65524 0.87428 0.57591 0.0
H1347 H 0.66853 0.85606 0.60081 0.0
H1348 H 0.67764 0.89867 0.54278 0.0
H1349 H 0.67299 0.87676 0.51312 0.0
C1350 C 0.18028 0.86867 0.5437 0.0
C1351 C 0.17014 0.89723 0.55035 0.0
C1352 C 0.18384 0.92119 0.5096 0.0
C1353 C 0.18892 0.88945 0.50201 0.0
N1354 N 0.18566 0.82911 0.51067 0.0
N1355 N 0.15719 0.94766 0.53872 0.0
C1356 C 0.18556 0.86217 0.51877 0.0
C1357 C 0.1707 0.92285 0.53308 0.0
N1358 N 0.18584 0.8484 0.56136 0.0
N1359 N 0.19248 0.95023 0.4946 0.0
H1360 H 0.14716 0.94964 0.55565 0.0
H1361 H 0.1529 0.96397 0.52594 0.0
H1362 H 0.20243 0.95008 0.47737 0.0
H1363 H 0.19314 0.97603 0.50008 0.0
H1364 H 0.19718 0.83011 0.55805 0.0
H1365 H 0.18279 0.85277 0.5799 0.0
H1366 H 0.17898 0.80621 0.52145 0.0
H1367 H 0.18886 0.82284 0.49248 0.0
C1368 C 0.61691 0.80691 0.14486 0.0
C1369 C 0.63659 0.79685 0.1276 0.0
C1370 C 0.67394 0.78776 0.16131 0.0
C1371 C 0.65783 0.80243 0.17849 0.0
N1372 N 0.61775 0.83087 0.18675 0.0
N1373 N 0.68859 0.78408 0.11926 0.0
C1374 C 0.63017 0.81321 0.17033 0.0
C1375 C 0.66634 0.78886 0.13577 0.0
N1376 N 0.58499 0.80954 0.13693 0.0
N1377 N 0.69579 0.77195 0.16941 0.0
H1378 H 0.68452 0.78536 0.1004 0.0
H1379 H 0.71342 0.78244 0.12446 0.0
H1380 H 0.70173 0.77034 0.18801 0.0
H1381 H 0.70486 0.75713 0.15767 0.0
H1382 H 0.56697 0.81281 0.14879 0.0
H1383 H 0.57443 0.80504 0.11841 0.0
H1384 H 0.60102 0.84328 0.18152 0.0
H1385 H 0.62675 0.83594 0.20555 0.0
C1386 C 0.24941 0.82656 0.14325 0.0
C1387 C 0.22998 0.82416 0.12 0.0
C1388 C 0.17943 0.82985 0.14068 0.0
C1389 C 0.20139 0.83697 0.16376 0.0
N1390 N 0.26079 0.84856 0.18671 0.0
N1391 N 0.18008 0.83015 0.09642 0.0
C1392 C 0.23735 0.83701 0.16499 0.0
C1393 C 0.19589 0.82754 0.11865 0.0
N1394 N 0.27869 0.81779 0.14462 0.0
N1395 N 0.14234 0.82413 0.13981 0.0
H1396 H 0.1915 0.82907 0.07988 0.0
H1397 H 0.15786 0.83691 0.09463 0.0
H1398 H 0.12907 0.82507 0.15556 0.0
H1399 H 0.12344 0.81482 0.1237 0.0
H1400 H 0.29118 0.8151 0.16116 0.0
H1401 H 0.28802 0.80955 0.12913 0.0
H1402 H 0.28914 0.85312 0.18814 0.0
H1403 H 0.25336 0.85706 0.20296 0.0
C1404 C 0.16123 0.36599 0.14156 0.0
C1405 C 0.19191 0.40491 0.1408 0.0
C1406 C 0.20716 0.41092 0.18552 0.0
C1407 C 0.17478 0.37297 0.18649 0.0
N1408 N 0.11598 0.31764 0.16628 0.0
N1409 N 0.23848 0.46719 0.16243 0.0
C1410 C 0.15027 0.35147 0.16473 0.0
C1411 C 0.21318 0.42824 0.16293 0.0
N1412 N 0.14365 0.34233 0.12018 0.0
N1413 N 0.23315 0.42981 0.20591 0.0
H1414 H 0.24333 0.48094 0.14624 0.0
H1415 H 0.25179 0.48645 0.17824 0.0
H1416 H 0.23005 0.41802 0.22276 0.0
H1417 H 0.25957 0.45564 0.20557 0.0
H1418 H 0.12423 0.31253 0.11969 0.0
H1419 H 0.1509 0.35171 0.10281 0.0
H1420 H 0.09494 0.30281 0.15137 0.0
H1421 H 0.10681 0.30627 0.18295 0.0
C1422 C 0.8164 0.65024 0.90138 0.0
C1423 C 0.80401 0.61006 0.90138 0.0
C1424 C 0.82331 0.6099 0.85943 0.0
C1425 C 0.8307 0.64855 0.85833 0.0
N1426 N 0.82821 0.70348 0.87712 0.0
N1427 N 0.79077 0.55004 0.87915 0.0
C1428 C 0.82578 0.66827 0.87906 0.0
C1429 C 0.80633 0.58945 0.88009 0.0
N1430 N 0.82001 0.67142 0.92291 0.0
N1431 N 0.83342 0.59304 0.84099 0.0
H1432 H 0.77807 0.534 0.89381 0.0
H1433 H 0.78757 0.53281 0.86317 0.0
H1434 H 0.84618 0.60722 0.82571 0.0
H1435 H 0.83252 0.56655 0.84191 0.0
H1436 H 0.83265 0.70158 0.92461 0.0
H1437 H 0.81395 0.65933 0.93968 0.0
H1438 H 0.8206 0.71716 0.89071 0.0
H1439 H 0.83435 0.71748 0.86103 0.0
C1440 C 0.37183 0.19731 0.90338 0.0
C1441 C 0.38357 0.17231 0.91374 0.0
C1442 C 0.36384 0.13304 0.8739 0.0
C1443 C 0.36153 0.16314 0.86258 0.0
N1444 N 0.36235 0.22426 0.86677 0.0
N1445 N 0.3564 0.1029 0.91172 0.0
C1446 C 0.36516 0.19538 0.87739 0.0
C1447 C 0.37016 0.13591 0.89995 0.0
N1448 N 0.36037 0.21766 0.91824 0.0
N1449 N 0.36016 0.10171 0.8599 0.0
H1450 H 0.35299 0.10333 0.93051 0.0
H1451 H 0.343 0.07508 0.90245 0.0
H1452 H 0.35504 0.09825 0.84075 0.0
H1453 H 0.36531 0.08092 0.86735 0.0
H1454 H 0.34806 0.2336 0.91156 0.0
H1455 H 0.35801 0.21376 0.93693 0.0
H1456 H 0.36873 0.25018 0.87672 0.0
H1457 H 0.35652 0.2235 0.84783 0.0
C1458 C 0.83711 0.19331 0.87472 0.0
C1459 C 0.83003 0.22415 0.88102 0.0
C1460 C 0.84779 0.24819 0.84065 0.0
C1461 C 0.85016 0.2147 0.83336 0.0
N1462 N 0.84052 0.15185 0.84206 0.0
N1463 N 0.82309 0.27796 0.8689 0.0
C1464 C 0.84313 0.1863 0.85004 0.0
C1465 C 0.83398 0.25091 0.86371 0.0
N1466 N 0.83913 0.17133 0.89248 0.0
N1467 N 0.85974 0.27786 0.82583 0.0
H1468 H 0.81267 0.28078 0.88552 0.0
H1469 H 0.82126 0.29541 0.85599 0.0
H1470 H 0.87024 0.27696 0.80889 0.0
H1471 H 0.86259 0.30471 0.83127 0.0
H1472 H 0.84827 0.15115 0.88953 0.0
H1473 H 0.8353 0.17586 0.91084 0.0
H1474 H 0.83122 0.12842 0.85268 0.0
H1475 H 0.84417 0.14523 0.82404 0.0
C1476 C 0.34318 0.13238 0.47037 0.0
C1477 C 0.30261 0.11383 0.46266 0.0
C1478 C 0.28773 0.09403 0.50417 0.0
C1479 C 0.32797 0.11794 0.51263 0.0
N1480 N 0.39378 0.16432 0.50431 0.0
N1481 N 0.23564 0.07985 0.47258 0.0
C1482 C 0.35577 0.13808 0.49585 0.0
C1483 C 0.2746 0.09504 0.4796 0.0
N1484 N 0.36966 0.14411 0.45325 0.0
N1485 N 0.26222 0.07 0.51956 0.0
H1486 H 0.22481 0.08002 0.45477 0.0
H1487 H 0.21429 0.06973 0.48485 0.0
H1488 H 0.27104 0.06834 0.5376 0.0
H1489 H 0.23323 0.04923 0.51381 0.0
H1490 H 0.39937 0.15437 0.45759 0.0
H1491 H 0.36133 0.13989 0.43436 0.0
H1492 H 0.41415 0.18297 0.49315 0.0
H1493 H 0.40428 0.17003 0.52288 0.0
C1494 C 0.88713 0.13768 0.46895 0.0
C1495 C 0.88974 0.16071 0.44944 0.0
C1496 C 0.87011 0.1987 0.4757 0.0
C1497 C 0.86408 0.17346 0.4944 0.0
N1498 N 0.86004 0.11469 0.50729 0.0
N1499 N 0.87642 0.20807 0.43245 0.0
C1500 C 0.87064 0.14168 0.49058 0.0
C1501 C 0.87912 0.18979 0.4523 0.0
N1502 N 0.90174 0.11302 0.46721 0.0
N1503 N 0.8687 0.23202 0.48057 0.0
H1504 H 0.88231 0.20203 0.41492 0.0
H1505 H 0.86485 0.22652 0.43281 0.0
H1506 H 0.86253 0.23981 0.49754 0.0
H1507 H 0.8771 0.25364 0.46857 0.0
H1508 H 0.90453 0.09865 0.48186 0.0
H1509 H 0.91429 0.10946 0.45175 0.0
H1510 H 0.86023 0.08873 0.50426 0.0
H1511 H 0.84769 0.11653 0.52328 0.0
C1512 C 0.88396 0.7617 0.49826 0.0
C1513 C 0.8596 0.73875 0.47679 0.0
C1514 C 0.81741 0.68796 0.50219 0.0
C1515 C 0.84443 0.70877 0.52317 0.0
N1516 N 0.90664 0.76283 0.54059 0.0
N1517 N 0.80641 0.67741 0.45769 0.0
C1518 C 0.87857 0.74504 0.52108 0.0
C1519 C 0.82709 0.70117 0.47857 0.0
N1520 N 0.91161 0.79977 0.49695 0.0
N1521 N 0.78201 0.65613 0.50493 0.0
H1522 H 0.81269 0.68581 0.44002 0.0
H1523 H 0.78523 0.64822 0.45781 0.0
H1524 H 0.77375 0.64577 0.52197 0.0
H1525 H 0.75948 0.64222 0.49073 0.0
H1526 H 0.92749 0.8191 0.51239 0.0
H1527 H 0.91615 0.81308 0.4806 0.0
H1528 H 0.93402 0.78706 0.53933 0.0
H1529 H 0.90399 0.75147 0.55757 0.0
loop_
_geom_bond_atom_site_label_1
_geom_bond_atom_site_label_2
_geom_bond_distance
_geom_bond_site_symmetry_2
_ccdc_geom_bond_type
H0 C3 0.929 . S
H1 C6 0.929 . S
H2 C8 0.930 . S
C3 H0 0.929 . S
C3 C4 1.398 . S
C3 C5 1.396 . S
C4 C3 1.398 . S
C4 C8 1.407 . S
C5 C3 1.396 . S
C5 C6 1.394 . S
C6 H1 0.929 . S
C6 C5 1.394 . S
C6 C7 1.382 . S
C7 C6 1.382 . S
C7 C8 1.392 . S
C7 N9 1.420 . S
C8 H2 0.930 . S
C8 C4 1.407 . S
C8 C7 1.392 . S
N9 C7 1.420 . S
N9 C10 1.244 . S
C10 N9 1.244 . S
H11 C14 0.929 . S
H12 C17 0.929 . S
H13 C19 0.930 . S
C14 H11 0.929 . S
C14 C15 1.398 . S
C14 C16 1.396 . S
C15 C14 1.398 . S
C15 C19 1.407 . S
C16 C14 1.396 . S
C16 C17 1.394 . S
C17 H12 0.929 . S
C17 C16 1.394 . S
C17 C18 1.382 . S
C18 C17 1.382 . S
C18 C19 1.392 . S
C18 N20 1.420 . S
C19 H13 0.930 . S
C19 C15 1.407 . S
C19 C18 1.392 . S
N20 C18 1.420 . S
N20 C21 1.244 . S
C21 N20 1.244 . S
H22 C25 0.929 . S
H23 C28 0.929 . S
H24 C30 0.930 . S
C25 H22 0.929 . S
C25 C26 1.398 . S
C25 C27 1.396 . S
C26 C25 1.398 . S
C26 C30 1.407 . S
C27 C25 1.396 . S
C27 C28 1.394 . S
C28 H23 0.929 . S
C28 C27 1.394 . S
C28 C29 1.382 . S
C29 C28 1.382 . S
C29 C30 1.392 . S
C29 N31 1.420 . S
C30 H24 0.930 . S
C30 C26 1.407 . S
C30 C29 1.392 . S
N31 C29 1.420 . S
N31 C32 1.244 . S
C32 N31 1.244 . S
H33 C36 0.929 . S
H34 C39 0.929 . S
H35 C41 0.930 . S
C36 H33 0.929 . S
C36 C37 1.398 . S
C36 C38 1.396 . S
C37 C36 1.398 . S
C37 C41 1.407 . S
C38 C36 1.396 . S
C38 C39 1.394 . S
C39 H34 0.929 . S
C39 C38 1.394 . S
C39 C40 1.382 . S
C40 C39 1.382 . S
C40 C41 1.392 . S
C40 N42 1.420 . S
C41 H35 0.930 . S
C41 C37 1.407 . S
C41 C40 1.392 . S
N42 C40 1.420 . S
N42 C43 1.244 . S
C43 N42 1.244 . S
H44 C47 0.929 . S
H45 C50 0.929 . S
H46 C52 0.930 . S
C47 H44 0.929 . S
C47 C48 1.398 . S
C47 C49 1.396 . S
C48 C47 1.398 . S
C48 C52 1.407 . S
C49 C47 1.396 . S
C49 C50 1.394 . S
C50 H45 0.929 . S
C50 C49 1.394 . S
C50 C51 1.382 . S
C51 C50 1.382 . S
C51 C52 1.392 . S
C51 N53 1.420 . S
C52 H46 0.930 . S
C52 C48 1.407 . S
C52 C51 1.392 . S
N53 C51 1.420 . S
N53 C54 1.244 . S
C54 N53 1.244 . S
H55 C58 0.929 . S
H56 C61 0.929 . S
H57 C63 0.930 . S
C58 H55 0.929 . S
C58 C59 1.398 . S
C58 C60 1.396 . S
C59 C58 1.398 . S
C59 C63 1.407 . S
C60 C58 1.396 . S
C60 C61 1.394 . S
C61 H56 0.929 . S
C61 C60 1.394 . S
C61 C62 1.382 . S
C62 C61 1.382 . S
C62 C63 1.392 . S
C62 N64 1.420 . S
C63 H57 0.930 . S
C63 C59 1.407 . S
C63 C62 1.392 . S
N64 C62 1.420 . S
N64 C65 1.244 . S
C65 N64 1.244 . S
H66 C69 0.929 . S
H67 C72 0.929 . S
H68 C74 0.930 . S
C69 H66 0.929 . S
C69 C70 1.398 . S
C69 C71 1.396 . S
C70 C69 1.398 . S
C70 C74 1.407 . S
C71 C69 1.396 . S
C71 C72 1.394 . S
C72 H67 0.929 . S
C72 C71 1.394 . S
C72 C73 1.382 . S
C73 C72 1.382 . S
C73 C74 1.392 . S
C73 N75 1.420 . S
C74 H68 0.930 . S
C74 C70 1.407 . S
C74 C73 1.392 . S
N75 C73 1.420 . S
N75 C76 1.244 . S
C76 N75 1.244 . S
H77 C80 0.929 . S
H78 C83 0.929 . S
H79 C85 0.930 . S
C80 H77 0.929 . S
C80 C81 1.398 . S
C80 C82 1.396 . S
C81 C80 1.398 . S
C81 C85 1.407 . S
C82 C80 1.396 . S
C82 C83 1.394 . S
C83 H78 0.929 . S
C83 C82 1.394 . S
C83 C84 1.382 . S
C84 C83 1.382 . S
C84 C85 1.392 . S
C84 N86 1.420 . S
C85 H79 0.930 . S
C85 C81 1.407 . S
C85 C84 1.392 . S
N86 C84 1.420 . S
N86 C87 1.244 . S
C87 N86 1.244 . S
H88 C91 0.929 . S
H89 C94 0.929 . S
H90 C96 0.930 . S
C91 H88 0.929 . S
C91 C92 1.398 . S
C91 C93 1.396 . S
C92 C91 1.398 . S
C92 C96 1.407 . S
C93 C91 1.396 . S
C93 C94 1.394 . S
C94 H89 0.929 . S
C94 C93 1.394 . S
C94 C95 1.382 . S
C95 C94 1.382 . S
C95 C96 1.392 . S
C95 N97 1.420 . S
C96 H90 0.930 . S
C96 C92 1.407 . S
C96 C95 1.392 . S
N97 C95 1.420 . S
N97 C98 1.244 . S
C98 N97 1.244 . S
H99 C102 0.929 . S
H100 C105 0.929 . S
H101 C107 0.930 . S
C102 H99 0.929 . S
C102 C103 1.398 . S
C102 C104 1.396 . S
C103 C102 1.398 . S
C103 C107 1.407 . S
C104 C102 1.396 . S
C104 C105 1.394 . S
C105 H100 0.929 . S
C105 C104 1.394 . S
C105 C106 1.382 . S
C106 C105 1.382 . S
C106 C107 1.392 . S
C106 N108 1.420 . S
C107 H101 0.930 . S
C107 C103 1.407 . S
C107 C106 1.392 . S
N108 C106 1.420 . S
N108 C109 1.244 . S
C109 N108 1.244 . S
H110 C113 0.929 . S
H111 C116 0.929 . S
H112 C118 0.930 1_554 S
C113 H110 0.929 . S
C113 C114 1.398 . S
C113 C115 1.396 . S
C114 C113 1.398 . S
C114 C118 1.407 . S
C115 C113 1.396 . S
C115 C116 1.394 . S
C116 H111 0.929 . S
C116 C115 1.394 . S
C116 C117 1.382 . S
C117 C116 1.382 . S
C117 C118 1.392 . S
C117 N119 1.420 . S
C118 H112 0.930 1_556 S
C118 C114 1.407 . S
C118 C117 1.392 . S
N119 C117 1.420 . S
N119 C120 1.244 . S
C120 N119 1.244 . S
H121 C124 0.929 . S
H122 C127 0.929 . S
H123 C129 0.930 . S
C124 H121 0.929 . S
C124 C125 1.398 . S
C124 C126 1.396 . S
C125 C124 1.398 . S
C125 C129 1.407 . S
C126 C124 1.396 . S
C126 C127 1.394 . S
C127 H122 0.929 . S
C127 C126 1.394 . S
C127 C128 1.382 . S
C128 C127 1.382 . S
C128 C129 1.392 . S
C128 N130 1.420 . S
C129 H123 0.930 . S
C129 C125 1.407 . S
C129 C128 1.392 . S
N130 C128 1.420 . S
N130 C131 1.244 . S
C131 N130 1.244 . S
H132 C135 0.929 . S
H133 C138 0.929 . S
H134 C140 0.930 . S
C135 H132 0.929 . S
C135 C136 1.398 . S
C135 C137 1.396 . S
C136 C135 1.398 . S
C136 C140 1.407 . S
C137 C135 1.396 . S
C137 C138 1.394 . S
C138 H133 0.929 . S
C138 C137 1.394 . S
C138 C139 1.382 . S
C139 C138 1.382 . S
C139 C140 1.392 . S
C139 N141 1.420 . S
C140 H134 0.930 . S
C140 C136 1.407 . S
C140 C139 1.392 . S
N141 C139 1.420 . S
N141 C142 1.244 . S
C142 N141 1.244 . S
H143 C146 0.929 . S
H144 C149 0.929 . S
H145 C151 0.930 . S
C146 H143 0.929 . S
C146 C147 1.398 . S
C146 C148 1.396 . S
C147 C146 1.398 . S
C147 C151 1.407 . S
C148 C146 1.396 . S
C148 C149 1.394 . S
C149 H144 0.929 . S
C149 C148 1.394 . S
C149 C150 1.382 . S
C150 C149 1.382 . S
C150 C151 1.392 . S
C150 N152 1.420 . S
C151 H145 0.930 . S
C151 C147 1.407 . S
C151 C150 1.392 . S
N152 C150 1.420 . S
N152 C153 1.244 . S
C153 N152 1.244 . S
H154 C157 0.929 . S
H155 C160 0.929 . S
H156 C162 0.930 . S
C157 H154 0.929 . S
C157 C158 1.398 . S
C157 C159 1.396 . S
C158 C157 1.398 . S
C158 C162 1.407 . S
C159 C157 1.396 . S
C159 C160 1.394 . S
C160 H155 0.929 . S
C160 C159 1.394 . S
C160 C161 1.382 . S
C161 C160 1.382 . S
C161 C162 1.392 . S
C161 N163 1.420 . S
C162 H156 0.930 . S
C162 C158 1.407 . S
C162 C161 1.392 . S
N163 C161 1.420 . S
N163 C164 1.244 . S
C164 N163 1.244 . S
H165 C168 0.929 . S
H166 C171 0.929 . S
H167 C173 0.930 . S
C168 H165 0.929 . S
C168 C169 1.398 . S
C168 C170 1.396 . S
C169 C168 1.398 . S
C169 C173 1.407 . S
C170 C168 1.396 . S
C170 C171 1.394 . S
C171 H166 0.929 . S
C171 C170 1.394 . S
C171 C172 1.382 . S
C172 C171 1.382 . S
C172 C173 1.392 . S
C172 N174 1.420 . S
C173 H167 0.930 . S
C173 C169 1.407 . S
C173 C172 1.392 . S
N174 C172 1.420 . S
N174 C175 1.244 . S
C175 N174 1.244 . S
H176 C179 0.929 . S
H177 C182 0.929 . S
H178 C184 0.930 . S
C179 H176 0.929 . S
C179 C180 1.398 . S
C179 C181 1.396 . S
C180 C179 1.398 . S
C180 C184 1.407 . S
C181 C179 1.396 . S
C181 C182 1.394 . S
C182 H177 0.929 . S
C182 C181 1.394 . S
C182 C183 1.382 . S
C183 C182 1.382 . S
C183 C184 1.392 . S
C183 N185 1.420 . S
C184 H178 0.930 . S
C184 C180 1.407 . S
C184 C183 1.392 . S
N185 C183 1.420 . S
N185 C186 1.244 . S
C186 N185 1.244 . S
H187 C190 0.929 . S
H188 C193 0.929 . S
H189 C195 0.930 . S
C190 H187 0.929 . S
C190 C191 1.398 . S
C190 C192 1.396 . S
C191 C190 1.398 . S
C191 C195 1.407 . S
C192 C190 1.396 . S
C192 C193 1.394 . S
C193 H188 0.929 . S
C193 C192 1.394 . S
C193 C194 1.382 . S
C194 C193 1.382 . S
C194 C195 1.392 . S
C194 N196 1.420 . S
C195 H189 0.930 . S
C195 C191 1.407 . S
C195 C194 1.392 . S
N196 C194 1.420 . S
N196 C197 1.244 . S
C197 N196 1.244 . S
Eu198 C207 2.828 1_565 S
Eu198 O209 2.392 . S
Eu198 O211 2.418 . S
Eu198 O216 2.373 1_565 S
Eu198 O219 2.488 . S
Eu198 O220 2.471 1_565 S
Eu198 O221 2.349 1_565 S
Eu199 O208 2.373 1_545 S
Eu199 O212 2.488 . S
Eu199 O213 2.471 1_545 S
Eu199 O214 2.349 1_545 S
Eu199 O217 2.392 . S
Eu199 O218 2.418 . S
Eu199 C228 2.828 . S
C200 O218 1.244 . S
C200 O221 1.265 1_554 S
C201 C202 1.379 . S
C201 C205 1.373 1_545 S
C201 C207 1.505 . S
C202 C201 1.379 . S
C202 C204 1.369 . S
C202 H230 0.930 . S
C203 C205 1.383 1_545 S
C203 C206 1.382 . S
C203 H231 0.930 1_545 S
C204 C202 1.369 . S
C204 C206 1.392 . S
C204 H232 0.930 . S
C205 C201 1.373 1_565 S
C205 C203 1.383 1_565 S
C205 H233 0.931 . S
C206 C203 1.382 . S
C206 C204 1.392 . S
C207 Eu198 2.828 1_545 S
C207 C201 1.505 . S
C207 O219 1.249 1_545 S
C207 O220 1.244 . S
O208 Eu199 2.373 1_565 S
O208 C210 1.258 . S
O209 Eu198 2.392 . S
O209 C210 1.242 1_556 S
C210 O208 1.258 . S
C210 O209 1.242 1_554 S
O211 Eu198 2.418 . S
O211 C215 1.244 1_556 S
O212 Eu199 2.488 . S
O212 C228 1.249 . S
O213 Eu199 2.471 1_565 S
O213 C228 1.244 1_565 S
O214 Eu199 2.349 1_565 S
O214 C215 1.265 . S
C215 O211 1.244 1_554 S
C215 O214 1.265 . S
O216 Eu198 2.373 1_545 S
O216 C229 1.258 . S
O217 Eu199 2.392 . S
O217 C229 1.242 1_554 S
O218 Eu199 2.418 . S
O218 C200 1.244 . S
O219 Eu198 2.488 . S
O219 C207 1.249 1_565 S
O220 Eu198 2.471 1_545 S
O220 C207 1.244 . S
O221 Eu198 2.349 1_545 S
O221 C200 1.265 1_556 S
C222 C223 1.379 . S
C222 C226 1.373 1_565 S
C222 C228 1.505 1_565 S
C223 C222 1.379 . S
C223 C225 1.369 . S
C223 H234 0.930 . S
C224 C226 1.383 . S
C224 C227 1.382 1_545 S
C224 H235 0.930 . S
C225 C223 1.369 . S
C225 C227 1.392 . S
C225 H236 0.930 . S
C226 C222 1.373 1_545 S
C226 C224 1.383 . S
C226 H237 0.931 . S
C227 C224 1.382 1_565 S
C227 C225 1.392 . S
C228 Eu199 2.828 . S
C228 O212 1.249 . S
C228 O213 1.244 1_545 S
C228 C222 1.505 1_545 S
C229 O216 1.258 . S
C229 O217 1.242 1_556 S
H230 C202 0.930 . S
H231 C203 0.930 1_565 S
H232 C204 0.930 . S
H233 C205 0.931 . S
H234 C223 0.930 . S
H235 C224 0.930 . S
H236 C225 0.930 . S
H237 C226 0.931 . S
Eu238 C247 2.829 . S
Eu238 O249 2.392 1_556 S
Eu238 O251 2.418 . S
Eu238 O256 2.373 1_455 S
Eu238 O259 2.488 . S
Eu238 O260 2.471 1_455 S
Eu238 O261 2.349 1_455 S
Eu239 O248 2.373 1_655 S
Eu239 O252 2.488 . S
Eu239 O253 2.471 1_655 S
Eu239 O254 2.349 1_655 S
Eu239 O257 2.392 . S
Eu239 O258 2.418 . S
Eu239 C268 2.828 1_655 S
C240 O258 1.244 1_556 S
C240 O261 1.265 . S
C241 C242 1.379 . S
C241 C245 1.373 1_655 S
C241 C247 1.504 1_655 S
C242 C241 1.379 . S
C242 C244 1.369 . S
C242 H270 0.930 . S
C243 C245 1.383 1_655 S
C243 C246 1.382 . S
C243 H271 0.930 1_655 S
C244 C242 1.369 . S
C244 C246 1.392 . S
C244 H272 0.930 . S
C245 C241 1.373 1_455 S
C245 C243 1.383 1_455 S
C245 H273 0.931 . S
C246 C243 1.382 . S
C246 C244 1.392 . S
C247 Eu238 2.829 . S
C247 C241 1.504 1_455 S
C247 O259 1.251 . S
C247 O260 1.244 1_455 S
O248 Eu239 2.373 1_455 S
O248 C250 1.258 . S
O249 Eu238 2.392 1_554 S
O249 C250 1.242 . S
C250 O248 1.258 . S
C250 O249 1.242 . S
O251 Eu238 2.418 . S
O251 C255 1.244 1_556 S
O252 Eu239 2.488 . S
O252 C268 1.249 1_655 S
O253 Eu239 2.471 1_455 S
O253 C268 1.244 . S
O254 Eu239 2.349 1_455 S
O254 C255 1.265 . S
C255 O251 1.244 1_554 S
C255 O254 1.265 . S
O256 Eu238 2.373 1_655 S
O256 C269 1.258 . S
O257 Eu239 2.392 . S
O257 C269 1.242 1_554 S
O258 Eu239 2.418 . S
O258 C240 1.244 1_554 S
O259 Eu238 2.488 . S
O259 C247 1.251 . S
O260 Eu238 2.471 1_655 S
O260 C247 1.244 1_655 S
O261 Eu238 2.349 1_655 S
O261 C240 1.265 . S
C262 C263 1.379 . S
C262 C266 1.373 1_455 S
C262 C268 1.505 . S
C263 C262 1.379 . S
C263 C265 1.369 . S
C263 H274 0.930 . S
C264 C266 1.383 1_455 S
C264 C267 1.382 . S
C264 H275 0.930 1_455 S
C265 C263 1.369 . S
C265 C267 1.392 . S
C265 H276 0.930 . S
C266 C262 1.373 1_655 S
C266 C264 1.383 1_655 S
C266 H277 0.931 . S
C267 C264 1.382 . S
C267 C265 1.392 . S
C268 Eu239 2.828 1_455 S
C268 O252 1.249 1_455 S
C268 O253 1.244 . S
C268 C262 1.505 . S
C269 O256 1.258 . S
C269 O257 1.242 1_556 S
H270 C242 0.930 . S
H271 C243 0.930 1_455 S
H272 C244 0.930 . S
H273 C245 0.931 . S
H274 C263 0.930 . S
H275 C264 0.930 1_655 S
H276 C265 0.930 . S
H277 C266 0.931 . S
Eu278 C287 2.828 . S
Eu278 O289 2.392 . S
Eu278 O291 2.418 . S
Eu278 O296 2.373 . S
Eu278 O299 2.488 . S
Eu278 O300 2.471 . S
Eu278 O301 2.349 . S
Eu279 O288 2.373 . S
Eu279 O292 2.488 . S
Eu279 O293 2.471 . S
Eu279 O294 2.349 . S
Eu279 O297 2.392 1_556 S
Eu279 O298 2.418 . S
Eu279 C308 2.828 . S
C280 O298 1.244 1_554 S
C280 O301 1.265 . S
C281 C282 1.379 . S
C281 C285 1.373 . S
C281 C287 1.505 . S
C282 C281 1.379 . S
C282 C284 1.369 . S
C282 H310 0.930 . S
C283 C285 1.383 . S
C283 C286 1.382 . S
C283 H311 0.930 . S
C284 C282 1.369 . S
C284 C286 1.392 . S
C284 H312 0.930 . S
C285 C281 1.373 . S
C285 C283 1.383 . S
C285 H313 0.931 . S
C286 C283 1.382 . S
C286 C284 1.392 . S
C287 Eu278 2.828 . S
C287 C281 1.505 . S
C287 O299 1.249 . S
C287 O300 1.244 . S
O288 Eu279 2.373 . S
O288 C290 1.258 . S
O289 Eu278 2.392 . S
O289 C290 1.242 1_554 S
C290 O288 1.258 . S
C290 O289 1.242 1_556 S
O291 Eu278 2.418 . S
O291 C295 1.244 . S
O292 Eu279 2.488 . S
O292 C308 1.249 . S
O293 Eu279 2.471 . S
O293 C308 1.244 . S
O294 Eu279 2.349 . S
O294 C295 1.265 1_556 S
C295 O291 1.244 . S
C295 O294 1.265 1_554 S
O296 Eu278 2.373 . S
O296 C309 1.258 . S
O297 Eu279 2.392 1_554 S
O297 C309 1.242 . S
O298 Eu279 2.418 . S
O298 C280 1.244 1_556 S
O299 Eu278 2.488 . S
O299 C287 1.249 . S
O300 Eu278 2.471 . S
O300 C287 1.244 . S
O301 Eu278 2.349 . S
O301 C280 1.265 . S
C302 C303 1.379 . S
C302 C306 1.373 . S
C302 C308 1.505 . S
C303 C302 1.379 . S
C303 C305 1.369 . S
C303 H314 0.930 . S
C304 C306 1.383 . S
C304 C307 1.382 . S
C304 H315 0.930 . S
C305 C303 1.369 . S
C305 C307 1.392 . S
C305 H316 0.930 . S
C306 C302 1.373 . S
C306 C304 1.383 . S
C306 H317 0.931 . S
C307 C304 1.382 . S
C307 C305 1.392 . S
C308 Eu279 2.828 . S
C308 O292 1.249 . S
C308 O293 1.244 . S
C308 C302 1.505 . S
C309 O296 1.258 . S
C309 O297 1.242 . S
H310 C282 0.930 . S
H311 C283 0.930 . S
H312 C284 0.930 . S
H313 C285 0.931 . S
H314 C303 0.930 . S
H315 C304 0.930 . S
H316 C305 0.930 . S
H317 C306 0.931 . S
Eu318 C327 2.828 . S
Eu318 O329 2.392 . S
Eu318 O331 2.418 . S
Eu318 O336 2.373 . S
Eu318 O339 2.488 . S
Eu318 O340 2.471 . S
Eu318 O341 2.349 . S
Eu319 O328 2.373 . S
Eu319 O332 2.488 . S
Eu319 O333 2.471 . S
Eu319 O334 2.349 . S
Eu319 O337 2.392 . S
Eu319 O338 2.418 . S
Eu319 C348 2.828 . S
C320 O338 1.244 . S
C320 O341 1.265 . S
C321 C322 1.379 . S
C321 C325 1.373 . S
C321 C327 1.505 . S
C322 C321 1.379 . S
C322 C324 1.369 . S
C322 H350 0.930 . S
C323 C325 1.383 . S
C323 C326 1.382 . S
C323 H351 0.930 . S
C324 C322 1.369 . S
C324 C326 1.392 . S
C324 H352 0.930 . S
C325 C321 1.373 . S
C325 C323 1.383 . S
C325 H353 0.931 . S
C326 C323 1.382 . S
C326 C324 1.392 . S
C327 Eu318 2.828 . S
C327 C321 1.505 . S
C327 O339 1.249 . S
C327 O340 1.244 . S
O328 Eu319 2.373 . S
O328 C330 1.258 . S
O329 Eu318 2.392 . S
O329 C330 1.242 . S
C330 O328 1.258 . S
C330 O329 1.242 . S
O331 Eu318 2.418 . S
O331 C335 1.244 . S
O332 Eu319 2.488 . S
O332 C348 1.249 . S
O333 Eu319 2.471 . S
O333 C348 1.244 . S
O334 Eu319 2.349 . S
O334 C335 1.265 . S
C335 O331 1.244 . S
C335 O334 1.265 . S
O336 Eu318 2.373 . S
O336 C349 1.258 . S
O337 Eu319 2.392 . S
O337 C349 1.242 . S
O338 Eu319 2.418 . S
O338 C320 1.244 . S
O339 Eu318 2.488 . S
O339 C327 1.249 . S
O340 Eu318 2.471 . S
O340 C327 1.244 . S
O341 Eu318 2.349 . S
O341 C320 1.265 . S
C342 C343 1.379 . S
C342 C346 1.373 . S
C342 C348 1.505 . S
C343 C342 1.379 . S
C343 C345 1.369 . S
C343 H354 0.930 . S
C344 C346 1.383 . S
C344 C347 1.382 . S
C344 H355 0.930 . S
C345 C343 1.369 . S
C345 C347 1.392 . S
C345 H356 0.930 . S
C346 C342 1.373 . S
C346 C344 1.383 . S
C346 H357 0.931 . S
C347 C344 1.382 . S
C347 C345 1.392 . S
C348 Eu319 2.828 . S
C348 O332 1.249 . S
C348 O333 1.244 . S
C348 C342 1.505 . S
C349 O336 1.258 . S
C349 O337 1.242 . S
H350 C322 0.930 . S
H351 C323 0.930 . S
H352 C324 0.930 . S
H353 C325 0.931 . S
H354 C343 0.930 . S
H355 C344 0.930 . S
H356 C345 0.930 . S
H357 C346 0.931 . S
Eu358 C367 2.828 . S
Eu358 O369 2.392 . S
Eu358 O371 2.418 . S
Eu358 O376 2.373 . S
Eu358 O379 2.488 . S
Eu358 O380 2.471 . S
Eu358 O381 2.349 . S
Eu359 O368 2.373 . S
Eu359 O372 2.488 . S
Eu359 O373 2.471 . S
Eu359 O374 2.349 . S
Eu359 O377 2.392 . S
Eu359 O378 2.418 . S
Eu359 C388 2.828 . S
C360 O378 1.244 . S
C360 O381 1.265 . S
C361 C362 1.379 . S
C361 C365 1.373 . S
C361 C367 1.505 . S
C362 C361 1.379 . S
C362 C364 1.369 . S
C362 H390 0.930 . S
C363 C365 1.383 . S
C363 C366 1.382 . S
C363 H391 0.930 . S
C364 C362 1.369 . S
C364 C366 1.392 . S
C364 H392 0.930 . S
C365 C361 1.373 . S
C365 C363 1.383 . S
C365 H393 0.931 . S
C366 C363 1.382 . S
C366 C364 1.392 . S
C367 Eu358 2.828 . S
C367 C361 1.505 . S
C367 O379 1.249 . S
C367 O380 1.244 . S
O368 Eu359 2.373 . S
O368 C370 1.258 . S
O369 Eu358 2.392 . S
O369 C370 1.242 . S
C370 O368 1.258 . S
C370 O369 1.242 . S
O371 Eu358 2.418 . S
O371 C375 1.244 . S
O372 Eu359 2.488 . S
O372 C388 1.249 . S
O373 Eu359 2.471 . S
O373 C388 1.244 . S
O374 Eu359 2.349 . S
O374 C375 1.265 . S
C375 O371 1.244 . S
C375 O374 1.265 . S
O376 Eu358 2.373 . S
O376 C389 1.258 . S
O377 Eu359 2.392 . S
O377 C389 1.242 . S
O378 Eu359 2.418 . S
O378 C360 1.244 . S
O379 Eu358 2.488 . S
O379 C367 1.249 . S
O380 Eu358 2.471 . S
O380 C367 1.244 . S
O381 Eu358 2.349 . S
O381 C360 1.265 . S
C382 C383 1.379 . S
C382 C386 1.373 . S
C382 C388 1.505 . S
C383 C382 1.379 . S
C383 C385 1.369 . S
C383 H394 0.930 . S
C384 C386 1.383 . S
C384 C387 1.382 . S
C384 H395 0.930 . S
C385 C383 1.369 . S
C385 C387 1.392 . S
C385 H396 0.930 . S
C386 C382 1.373 . S
C386 C384 1.383 . S
C386 H397 0.931 . S
C387 C384 1.382 . S
C387 C385 1.392 . S
C388 Eu359 2.828 . S
C388 O372 1.249 . S
C388 O373 1.244 . S
C388 C382 1.505 . S
C389 O376 1.258 . S
C389 O377 1.242 . S
H390 C362 0.930 . S
H391 C363 0.930 . S
H392 C364 0.930 . S
H393 C365 0.931 . S
H394 C383 0.930 . S
H395 C384 0.930 . S
H396 C385 0.930 . S
H397 C386 0.931 . S
Eu398 C407 2.828 . S
Eu398 O409 2.392 . S
Eu398 O411 2.418 . S
Eu398 O416 2.373 . S
Eu398 O419 2.488 . S
Eu398 O420 2.471 . S
Eu398 O421 2.349 . S
Eu399 O408 2.373 . S
Eu399 O412 2.488 . S
Eu399 O413 2.471 . S
Eu399 O414 2.349 . S
Eu399 O417 2.392 . S
Eu399 O418 2.418 . S
Eu399 C428 2.828 . S
C400 O418 1.244 . S
C400 O421 1.265 . S
C401 C402 1.379 . S
C401 C405 1.373 . S
C401 C407 1.505 . S
C402 C401 1.379 . S
C402 C404 1.369 . S
C402 H430 0.930 . S
C403 C405 1.383 . S
C403 C406 1.382 . S
C403 H431 0.930 . S
C404 C402 1.369 . S
C404 C406 1.392 . S
C404 H432 0.930 . S
C405 C401 1.373 . S
C405 C403 1.383 . S
C405 H433 0.931 . S
C406 C403 1.382 . S
C406 C404 1.392 . S
C407 Eu398 2.828 . S
C407 C401 1.505 . S
C407 O419 1.249 . S
C407 O420 1.244 . S
O408 Eu399 2.373 . S
O408 C410 1.258 . S
O409 Eu398 2.392 . S
O409 C410 1.242 . S
C410 O408 1.258 . S
C410 O409 1.242 . S
O411 Eu398 2.418 . S
O411 C415 1.244 . S
O412 Eu399 2.488 . S
O412 C428 1.249 . S
O413 Eu399 2.471 . S
O413 C428 1.244 . S
O414 Eu399 2.349 . S
O414 C415 1.265 . S
C415 O411 1.244 . S
C415 O414 1.265 . S
O416 Eu398 2.373 . S
O416 C429 1.258 . S
O417 Eu399 2.392 . S
O417 C429 1.242 . S
O418 Eu399 2.418 . S
O418 C400 1.244 . S
O419 Eu398 2.488 . S
O419 C407 1.249 . S
O420 Eu398 2.471 . S
O420 C407 1.244 . S
O421 Eu398 2.349 . S
O421 C400 1.265 . S
C422 C423 1.379 . S
C422 C426 1.373 . S
C422 C428 1.505 . S
C423 C422 1.379 . S
C423 C425 1.369 . S
C423 H434 0.930 . S
C424 C426 1.383 . S
C424 C427 1.382 . S
C424 H435 0.930 . S
C425 C423 1.369 . S
C425 C427 1.392 . S
C425 H436 0.930 . S
C426 C422 1.373 . S
C426 C424 1.383 . S
C426 H437 0.931 . S
C427 C424 1.382 . S
C427 C425 1.392 . S
C428 Eu399 2.828 . S
C428 O412 1.249 . S
C428 O413 1.244 . S
C428 C422 1.505 . S
C429 O416 1.258 . S
C429 O417 1.242 . S
H430 C402 0.930 . S
H431 C403 0.930 . S
H432 C404 0.930 . S
H433 C405 0.931 . S
H434 C423 0.930 . S
H435 C424 0.930 . S
H436 C425 0.930 . S
H437 C426 0.931 . S
Eu438 C447 2.828 . S
Eu438 O449 2.392 . S
Eu438 O451 2.418 . S
Eu438 O456 2.373 . S
Eu438 O459 2.488 . S
Eu438 O460 2.471 . S
Eu438 O461 2.349 . S
Eu439 O448 2.373 . S
Eu439 O452 2.488 . S
Eu439 O453 2.471 . S
Eu439 O454 2.349 . S
Eu439 O457 2.392 . S
Eu439 O458 2.418 . S
Eu439 C468 2.828 . S
C440 O458 1.244 . S
C440 O461 1.265 . S
C441 C442 1.379 . S
C441 C445 1.373 . S
C441 C447 1.505 . S
C442 C441 1.379 . S
C442 C444 1.369 . S
C442 H470 0.930 . S
C443 C445 1.383 . S
C443 C446 1.382 . S
C443 H471 0.930 . S
C444 C442 1.369 . S
C444 C446 1.392 . S
C444 H472 0.930 . S
C445 C441 1.373 . S
C445 C443 1.383 . S
C445 H473 0.931 . S
C446 C443 1.382 . S
C446 C444 1.392 . S
C447 Eu438 2.828 . S
C447 C441 1.505 . S
C447 O459 1.249 . S
C447 O460 1.244 . S
O448 Eu439 2.373 . S
O448 C450 1.258 . S
O449 Eu438 2.392 . S
O449 C450 1.242 . S
C450 O448 1.258 . S
C450 O449 1.242 . S
O451 Eu438 2.418 . S
O451 C455 1.244 . S
O452 Eu439 2.488 . S
O452 C468 1.249 . S
O453 Eu439 2.471 . S
O453 C468 1.244 . S
O454 Eu439 2.349 . S
O454 C455 1.265 . S
C455 O451 1.244 . S
C455 O454 1.265 . S
O456 Eu438 2.373 . S
O456 C469 1.258 . S
O457 Eu439 2.392 . S
O457 C469 1.242 . S
O458 Eu439 2.418 . S
O458 C440 1.244 . S
O459 Eu438 2.488 . S
O459 C447 1.249 . S
O460 Eu438 2.471 . S
O460 C447 1.244 . S
O461 Eu438 2.349 . S
O461 C440 1.265 . S
C462 C463 1.379 . S
C462 C466 1.373 . S
C462 C468 1.505 . S
C463 C462 1.379 . S
C463 C465 1.369 . S
C463 H474 0.930 . S
C464 C466 1.383 . S
C464 C467 1.382 . S
C464 H475 0.930 . S
C465 C463 1.369 . S
C465 C467 1.392 . S
C465 H476 0.930 . S
C466 C462 1.373 . S
C466 C464 1.383 . S
C466 H477 0.931 . S
C467 C464 1.382 . S
C467 C465 1.392 . S
C468 Eu439 2.828 . S
C468 O452 1.249 . S
C468 O453 1.244 . S
C468 C462 1.505 . S
C469 O456 1.258 . S
C469 O457 1.242 . S
H470 C442 0.930 . S
H471 C443 0.930 . S
H472 C444 0.930 . S
H473 C445 0.931 . S
H474 C463 0.930 . S
H475 C464 0.930 . S
H476 C465 0.930 . S
H477 C466 0.931 . S
Eu478 C487 2.828 . S
Eu478 O489 2.392 . S
Eu478 O491 2.418 . S
Eu478 O496 2.373 . S
Eu478 O499 2.488 . S
Eu478 O500 2.471 . S
Eu478 O501 2.349 . S
Eu479 O488 2.373 . S
Eu479 O492 2.488 . S
Eu479 O493 2.471 . S
Eu479 O494 2.349 . S
Eu479 O497 2.392 . S
Eu479 O498 2.418 . S
Eu479 C508 2.828 . S
C480 O498 1.244 . S
C480 O501 1.265 . S
C481 C482 1.379 . S
C481 C485 1.373 . S
C481 C487 1.505 . S
C482 C481 1.379 . S
C482 C484 1.369 . S
C482 H510 0.930 . S
C483 C485 1.383 . S
C483 C486 1.382 . S
C483 H511 0.930 . S
C484 C482 1.369 . S
C484 C486 1.392 . S
C484 H512 0.930 . S
C485 C481 1.373 . S
C485 C483 1.383 . S
C485 H513 0.931 . S
C486 C483 1.382 . S
C486 C484 1.392 . S
C487 Eu478 2.828 . S
C487 C481 1.505 . S
C487 O499 1.249 . S
C487 O500 1.244 . S
O488 Eu479 2.373 . S
O488 C490 1.258 . S
O489 Eu478 2.392 . S
O489 C490 1.242 . S
C490 O488 1.258 . S
C490 O489 1.242 . S
O491 Eu478 2.418 . S
O491 C495 1.244 . S
O492 Eu479 2.488 . S
O492 C508 1.249 . S
O493 Eu479 2.471 . S
O493 C508 1.244 . S
O494 Eu479 2.349 . S
O494 C495 1.265 . S
C495 O491 1.244 . S
C495 O494 1.265 . S
O496 Eu478 2.373 . S
O496 C509 1.258 . S
O497 Eu479 2.392 . S
O497 C509 1.242 . S
O498 Eu479 2.418 . S
O498 C480 1.244 . S
O499 Eu478 2.488 . S
O499 C487 1.249 . S
O500 Eu478 2.471 . S
O500 C487 1.244 . S
O501 Eu478 2.349 . S
O501 C480 1.265 . S
C502 C503 1.379 . S
C502 C506 1.373 . S
C502 C508 1.505 . S
C503 C502 1.379 . S
C503 C505 1.369 . S
C503 H514 0.930 . S
C504 C506 1.383 . S
C504 C507 1.382 . S
C504 H515 0.930 . S
C505 C503 1.369 . S
C505 C507 1.392 . S
C505 H516 0.930 . S
C506 C502 1.373 . S
C506 C504 1.383 . S
C506 H517 0.931 . S
C507 C504 1.382 . S
C507 C505 1.392 . S
C508 Eu479 2.828 . S
C508 O492 1.249 . S
C508 O493 1.244 . S
C508 C502 1.505 . S
C509 O496 1.258 . S
C509 O497 1.242 . S
H510 C482 0.930 . S
H511 C483 0.930 . S
H512 C484 0.930 . S
H513 C485 0.931 . S
H514 C503 0.930 . S
H515 C504 0.930 . S
H516 C505 0.930 . S
H517 C506 0.931 . S
Eu518 C527 2.828 . S
Eu518 O529 2.392 . S
Eu518 O531 2.418 . S
Eu518 O536 2.373 . S
Eu518 O539 2.488 . S
Eu518 O540 2.471 . S
Eu518 O541 2.349 . S
Eu519 O528 2.373 . S
Eu519 O532 2.488 . S
Eu519 O533 2.471 . S
Eu519 O534 2.349 . S
Eu519 O537 2.392 . S
Eu519 O538 2.418 . S
Eu519 C548 2.828 . S
C520 O538 1.244 . S
C520 O541 1.265 . S
C521 C522 1.379 . S
C521 C525 1.373 . S
C521 C527 1.505 . S
C522 C521 1.379 . S
C522 C524 1.369 . S
C522 H550 0.930 . S
C523 C525 1.383 . S
C523 C526 1.382 . S
C523 H551 0.930 . S
C524 C522 1.369 . S
C524 C526 1.392 . S
C524 H552 0.930 . S
C525 C521 1.373 . S
C525 C523 1.383 . S
C525 H553 0.931 . S
C526 C523 1.382 . S
C526 C524 1.392 . S
C527 Eu518 2.828 . S
C527 C521 1.505 . S
C527 O539 1.249 . S
C527 O540 1.244 . S
O528 Eu519 2.373 . S
O528 C530 1.258 . S
O529 Eu518 2.392 . S
O529 C530 1.242 . S
C530 O528 1.258 . S
C530 O529 1.242 . S
O531 Eu518 2.418 . S
O531 C535 1.244 . S
O532 Eu519 2.488 . S
O532 C548 1.249 . S
O533 Eu519 2.471 . S
O533 C548 1.244 . S
O534 Eu519 2.349 . S
O534 C535 1.265 . S
C535 O531 1.244 . S
C535 O534 1.265 . S
O536 Eu518 2.373 . S
O536 C549 1.258 . S
O537 Eu519 2.392 . S
O537 C549 1.242 . S
O538 Eu519 2.418 . S
O538 C520 1.244 . S
O539 Eu518 2.488 . S
O539 C527 1.249 . S
O540 Eu518 2.471 . S
O540 C527 1.244 . S
O541 Eu518 2.349 . S
O541 C520 1.265 . S
C542 C543 1.379 . S
C542 C546 1.373 . S
C542 C548 1.505 . S
C543 C542 1.379 . S
C543 C545 1.369 . S
C543 H554 0.930 . S
C544 C546 1.383 . S
C544 C547 1.382 . S
C544 H555 0.930 . S
C545 C543 1.369 . S
C545 C547 1.392 . S
C545 H556 0.930 . S
C546 C542 1.373 . S
C546 C544 1.383 . S
C546 H557 0.931 . S
C547 C544 1.382 . S
C547 C545 1.392 . S
C548 Eu519 2.828 . S
C548 O532 1.249 . S
C548 O533 1.244 . S
C548 C542 1.505 . S
C549 O536 1.258 . S
C549 O537 1.242 . S
H550 C522 0.930 . S
H551 C523 0.930 . S
H552 C524 0.930 . S
H553 C525 0.931 . S
H554 C543 0.930 . S
H555 C544 0.930 . S
H556 C545 0.930 . S
H557 C546 0.931 . S
C558 C559 1.363 . S
C558 C564 1.379 . S
C558 N566 1.356 . S
C559 C558 1.363 . S
C559 C565 1.363 . S
C560 C561 1.363 . S
C560 C565 1.379 . S
C560 N567 1.356 . S
C561 C560 1.363 . S
C561 C564 1.363 . S
N562 C564 1.356 . S
N562 H574 0.975 1_554 S
N562 H575 0.985 . S
N563 C565 1.356 . S
N563 H568 0.984 . S
N563 H569 0.985 . S
C564 C558 1.379 . S
C564 C561 1.363 . S
C564 N562 1.356 . S
C565 C559 1.363 . S
C565 C560 1.379 . S
C565 N563 1.356 . S
N566 C558 1.356 . S
N566 H572 0.984 . S
N566 H573 0.984 . S
N567 C560 1.356 . S
N567 H570 0.984 . S
N567 H571 0.985 . S
H568 N563 0.984 . S
H569 N563 0.985 . S
H570 N567 0.984 . S
H571 N567 0.985 . S
H572 N566 0.984 . S
H573 N566 0.984 . S
H574 N562 0.975 1_556 S
H575 N562 0.985 . S
C576 C577 1.363 . S
C576 C582 1.379 . S
C576 N584 1.356 . S
C577 C576 1.363 . S
C577 C583 1.363 . S
C578 C579 1.363 . S
C578 C583 1.379 . S
C578 N585 1.356 . S
C579 C578 1.363 . S
C579 C582 1.363 . S
N580 C582 1.356 . S
N580 H592 0.984 . S
N580 H593 0.985 . S
N581 C583 1.356 . S
N581 H586 0.984 . S
N581 H587 0.985 . S
C582 C576 1.379 . S
C582 C579 1.363 . S
C582 N580 1.356 . S
C583 C577 1.363 . S
C583 C578 1.379 . S
C583 N581 1.356 . S
N584 C576 1.356 . S
N584 H590 0.984 . S
N584 H591 0.984 . S
N585 C578 1.356 . S
N585 H588 0.984 . S
N585 H589 0.985 1_554 S
H586 N581 0.984 . S
H587 N581 0.985 . S
H588 N585 0.984 . S
H589 N585 0.985 1_556 S
H590 N584 0.984 . S
H591 N584 0.984 . S
H592 N580 0.984 . S
H593 N580 0.985 . S
C594 C595 1.363 . S
C594 C600 1.379 . S
C594 N602 1.356 1_554 S
C595 C594 1.363 . S
C595 C601 1.363 . S
C596 C597 1.363 . S
C596 C601 1.379 . S
C596 N603 1.356 . S
C597 C596 1.363 . S
C597 C600 1.363 . S
N598 C600 1.356 1_556 S
N598 H610 0.984 . S
N598 H611 0.985 . S
N599 C601 1.356 . S
N599 H604 0.984 . S
N599 H605 0.985 . S
C600 C594 1.379 . S
C600 C597 1.363 . S
C600 N598 1.356 1_554 S
C601 C595 1.363 . S
C601 C596 1.379 . S
C601 N599 1.356 . S
N602 C594 1.356 1_556 S
N602 H608 0.984 . S
N602 H609 0.979 1_556 S
N603 C596 1.356 . S
N603 H606 0.984 . S
N603 H607 0.985 . S
H604 N599 0.984 . S
H605 N599 0.985 . S
H606 N603 0.984 . S
H607 N603 0.985 . S
H608 N602 0.984 . S
H609 N602 0.979 1_554 S
H610 N598 0.984 . S
H611 N598 0.985 . S
C612 C613 1.363 . S
C612 C618 1.379 . S
C612 N620 1.356 . S
C613 C612 1.363 . S
C613 C619 1.363 . S
C614 C615 1.363 . S
C614 C619 1.379 . S
C614 N621 1.356 . S
C615 C614 1.363 . S
C615 C618 1.363 . S
N616 C618 1.356 1_554 S
N616 H628 0.984 . S
N616 H629 0.985 . S
N617 C619 1.356 . S
N617 H622 0.984 . S
N617 H623 0.985 . S
C618 C612 1.379 . S
C618 C615 1.363 . S
C618 N616 1.356 1_556 S
C619 C613 1.363 . S
C619 C614 1.379 . S
C619 N617 1.356 . S
N620 C612 1.356 . S
N620 H626 0.984 1_556 S
N620 H627 0.984 . S
N621 C614 1.356 . S
N621 H624 0.984 . S
N621 H625 0.985 . S
H622 N617 0.984 . S
H623 N617 0.985 . S
H624 N621 0.984 . S
H625 N621 0.985 . S
H626 N620 0.984 1_554 S
H627 N620 0.984 . S
H628 N616 0.984 . S
H629 N616 0.985 . S
C630 C631 1.363 . S
C630 C636 1.379 . S
C630 N638 1.356 . S
C631 C630 1.363 . S
C631 C637 1.363 . S
C632 C633 1.363 . S
C632 C637 1.379 . S
C632 N639 1.356 1_556 S
C633 C632 1.363 . S
C633 C636 1.363 . S
N634 C636 1.356 . S
N634 H646 0.984 . S
N634 H647 0.985 . S
N635 C637 1.356 . S
N635 H640 0.984 . S
N635 H641 0.985 . S
C636 C630 1.379 . S
C636 C633 1.363 . S
C636 N634 1.356 . S
C637 C631 1.363 . S
C637 C632 1.379 . S
C637 N635 1.356 . S
N638 C630 1.356 . S
N638 H644 0.984 . S
N638 H645 0.984 . S
N639 C632 1.356 1_554 S
N639 H642 0.984 . S
N639 H643 0.985 . S
H640 N635 0.984 . S
H641 N635 0.985 . S
H642 N639 0.984 . S
H643 N639 0.985 . S
H644 N638 0.984 . S
H645 N638 0.984 . S
H646 N634 0.984 . S
H647 N634 0.985 . S
C648 C649 1.363 . S
C648 C654 1.379 . S
C648 N656 1.356 . S
C649 C648 1.363 . S
C649 C655 1.363 . S
C650 C651 1.363 . S
C650 C655 1.379 . S
C650 N657 1.356 1_556 S
C651 C650 1.363 . S
C651 C654 1.363 . S
N652 C654 1.356 . S
N652 H664 0.984 . S
N652 H665 0.985 . S
N653 C655 1.356 . S
N653 H658 0.984 . S
N653 H659 0.985 . S
C654 C648 1.379 . S
C654 C651 1.363 . S
C654 N652 1.356 . S
C655 C649 1.363 . S
C655 C650 1.379 . S
C655 N653 1.356 . S
N656 C648 1.356 . S
N656 H662 0.984 . S
N656 H663 0.984 . S
N657 C650 1.356 1_554 S
N657 H660 0.984 . S
N657 H661 0.985 . S
H658 N653 0.984 . S
H659 N653 0.985 . S
H660 N657 0.984 . S
H661 N657 0.985 . S
H662 N656 0.984 . S
H663 N656 0.984 . S
H664 N652 0.984 . S
H665 N652 0.985 . S
C666 C667 1.363 . S
C666 C672 1.379 . S
C666 N674 1.356 . S
C667 C666 1.363 . S
C667 C673 1.363 . S
C668 C669 1.363 . S
C668 C673 1.379 . S
C668 N675 1.356 1_556 S
C669 C668 1.363 . S
C669 C672 1.363 . S
N670 C672 1.356 . S
N670 H682 0.984 . S
N670 H683 0.985 . S
N671 C673 1.356 . S
N671 H676 0.984 . S
N671 H677 0.985 1_556 S
C672 C666 1.379 . S
C672 C669 1.363 . S
C672 N670 1.356 . S
C673 C667 1.363 . S
C673 C668 1.379 . S
C673 N671 1.356 . S
N674 C666 1.356 . S
N674 H680 0.984 . S
N674 H681 0.984 . S
N675 C668 1.356 1_554 S
N675 H678 0.984 . S
N675 H679 0.985 . S
H676 N671 0.984 . S
H677 N671 0.985 1_554 S
H678 N675 0.984 . S
H679 N675 0.985 . S
H680 N674 0.984 . S
H681 N674 0.984 . S
H682 N670 0.984 . S
H683 N670 0.985 . S
C684 C685 1.363 . S
C684 C690 1.379 . S
C684 N692 1.356 . S
C685 C684 1.363 . S
C685 C691 1.363 . S
C686 C687 1.363 . S
C686 C691 1.379 . S
C686 N693 1.356 . S
C687 C686 1.363 . S
C687 C690 1.363 . S
N688 C690 1.356 . S
N688 H700 0.984 . S
N688 H701 0.985 . S
N689 C691 1.356 . S
N689 H694 0.984 . S
N689 H695 0.985 . S
C690 C684 1.379 . S
C690 C687 1.363 . S
C690 N688 1.356 . S
C691 C685 1.363 . S
C691 C686 1.379 . S
C691 N689 1.356 . S
N692 C684 1.356 . S
N692 H698 0.984 . S
N692 H699 0.984 . S
N693 C686 1.356 . S
N693 H696 0.984 . S
N693 H697 0.985 1_556 S
H694 N689 0.984 . S
H695 N689 0.985 . S
H696 N693 0.984 . S
H697 N693 0.985 1_554 S
H698 N692 0.984 . S
H699 N692 0.984 . S
H700 N688 0.984 . S
H701 N688 0.985 . S
C702 C703 1.363 . S
C702 C708 1.379 . S
C702 N710 1.356 . S
C703 C702 1.363 . S
C703 C709 1.363 1_556 S
C704 C705 1.363 1_554 S
C704 C709 1.379 . S
C704 N711 1.356 . S
C705 C704 1.363 1_556 S
C705 C708 1.363 . S
N706 C708 1.356 . S
N706 H718 0.984 . S
N706 H719 0.985 . S
N707 C709 1.356 . S
N707 H712 0.984 . S
N707 H713 0.985 . S
C708 C702 1.379 . S
C708 C705 1.363 . S
C708 N706 1.356 . S
C709 C703 1.363 1_554 S
C709 C704 1.379 . S
C709 N707 1.356 . S
N710 C702 1.356 . S
N710 H716 0.984 . S
N710 H717 0.984 . S
N711 C704 1.356 . S
N711 H714 0.984 . S
N711 H715 0.985 . S
H712 N707 0.984 . S
H713 N707 0.985 . S
H714 N711 0.984 . S
H715 N711 0.985 . S
H716 N710 0.984 . S
H717 N710 0.984 . S
H718 N706 0.984 . S
H719 N706 0.985 . S
C720 C721 1.363 . S
C720 C726 1.379 . S
C720 N728 1.356 . S
C721 C720 1.363 . S
C721 C727 1.363 . S
C722 C723 1.365 . S
C722 C727 1.379 . S
C722 N729 1.355 1_554 S
C723 C722 1.365 . S
C723 C726 1.363 . S
N724 C726 1.356 . S
N724 H736 0.984 . S
N724 H737 0.985 . S
N725 C727 1.356 1_556 S
N725 H730 0.984 . S
N725 H731 0.985 . S
C726 C720 1.379 . S
C726 C723 1.363 . S
C726 N724 1.356 . S
C727 C721 1.363 . S
C727 C722 1.379 . S
C727 N725 1.356 1_554 S
N728 C720 1.356 . S
N728 H734 0.984 . S
N728 H735 0.984 . S
N729 C722 1.355 1_556 S
N729 H732 0.984 . S
N729 H733 0.985 . S
H730 N725 0.984 . S
H731 N725 0.985 . S
H732 N729 0.984 . S
H733 N729 0.985 . S
H734 N728 0.984 . S
H735 N728 0.984 . S
H736 N724 0.984 . S
H737 N724 0.985 . S
C738 C739 1.363 . S
C738 C744 1.379 . S
C738 N746 1.356 . S
C739 C738 1.363 . S
C739 C745 1.363 . S
C740 C741 1.363 . S
C740 C745 1.379 . S
C740 N747 1.356 . S
C741 C740 1.363 . S
C741 C744 1.363 . S
N742 C744 1.356 . S
N742 H754 0.984 . S
N742 H755 0.985 . S
N743 C745 1.356 . S
N743 H748 0.984 . S
N743 H749 0.985 . S
C744 C738 1.379 . S
C744 C741 1.363 . S
C744 N742 1.356 . S
C745 C739 1.363 . S
C745 C740 1.379 . S
C745 N743 1.356 . S
N746 C738 1.356 . S
N746 H752 0.984 . S
N746 H753 0.984 . S
N747 C740 1.356 . S
N747 H750 0.984 . S
N747 H751 0.985 . S
H748 N743 0.984 . S
H749 N743 0.985 . S
H750 N747 0.984 . S
H751 N747 0.985 . S
H752 N746 0.984 . S
H753 N746 0.984 . S
H754 N742 0.984 . S
H755 N742 0.985 . S
C756 C757 1.331 1_556 S
C756 C762 1.385 . S
C756 N764 1.377 . S
C757 C756 1.331 1_554 S
C757 C763 1.363 . S
C758 C759 1.363 . S
C758 C763 1.379 . S
C758 N765 1.356 . S
C759 C758 1.363 . S
C759 C762 1.363 1_554 S
N760 C762 1.356 . S
N760 H772 0.984 . S
N760 H773 0.985 . S
N761 C763 1.356 . S
N761 H766 0.984 . S
N761 H767 0.985 . S
C762 C756 1.385 . S
C762 C759 1.363 1_556 S
C762 N760 1.356 . S
C763 C757 1.363 . S
C763 C758 1.379 . S
C763 N761 1.356 . S
N764 C756 1.377 . S
N764 H770 0.984 . S
N764 H771 0.984 . S
N765 C758 1.356 . S
N765 H768 0.984 . S
N765 H769 0.985 . S
H766 N761 0.984 . S
H767 N761 0.985 . S
H768 N765 0.984 . S
H769 N765 0.985 . S
H770 N764 0.984 . S
H771 N764 0.984 . S
H772 N760 0.984 . S
H773 N760 0.985 . S
C774 C775 1.363 . S
C774 C780 1.379 1_655 S
C774 N782 1.356 . S
C775 C774 1.363 . S
C775 C781 1.363 . S
C776 C777 1.363 . S
C776 C781 1.379 1_455 S
C776 N783 1.356 . S
C777 C776 1.363 . S
C777 C780 1.363 . S
N778 C780 1.356 . S
N778 H790 0.984 . S
N778 H791 0.985 . S
N779 C781 1.356 . S
N779 H784 0.984 . S
N779 H785 0.985 . S
C780 C774 1.379 1_455 S
C780 C777 1.363 . S
C780 N778 1.356 . S
C781 C775 1.363 . S
C781 C776 1.379 1_655 S
C781 N779 1.356 . S
N782 C774 1.356 . S
N782 H788 0.984 . S
N782 H789 0.984 . S
N783 C776 1.356 . S
N783 H786 0.984 . S
N783 H787 0.985 . S
H784 N779 0.984 . S
H785 N779 0.985 . S
H786 N783 0.984 . S
H787 N783 0.985 . S
H788 N782 0.984 . S
H789 N782 0.984 . S
H790 N778 0.984 . S
H791 N778 0.985 . S
C792 C793 1.363 . S
C792 C798 1.379 . S
C792 N800 1.356 . S
C793 C792 1.363 . S
C793 C799 1.363 . S
C794 C795 1.363 . S
C794 C799 1.379 . S
C794 N801 1.356 . S
C795 C794 1.363 . S
C795 C798 1.363 . S
N796 C798 1.356 . S
N796 H808 0.984 . S
N796 H809 0.985 . S
N797 C799 1.356 . S
N797 H802 0.984 . S
N797 H803 0.985 . S
C798 C792 1.379 . S
C798 C795 1.363 . S
C798 N796 1.356 . S
C799 C793 1.363 . S
C799 C794 1.379 . S
C799 N797 1.356 . S
N800 C792 1.356 . S
N800 H806 0.984 . S
N800 H807 0.984 . S
N801 C794 1.356 . S
N801 H804 0.984 . S
N801 H805 0.985 . S
H802 N797 0.984 . S
H803 N797 0.985 . S
H804 N801 0.984 . S
H805 N801 0.985 . S
H806 N800 0.984 . S
H807 N800 0.984 . S
H808 N796 0.984 . S
H809 N796 0.985 . S
C810 C811 1.363 . S
C810 C816 1.379 . S
C810 N818 1.356 . S
C811 C810 1.363 . S
C811 C817 1.363 . S
C812 C813 1.363 1_545 S
C812 C817 1.379 . S
C812 N819 1.356 1_545 S
C813 C812 1.363 1_565 S
C813 C816 1.363 1_565 S
N814 C816 1.356 1_565 S
N814 H826 0.984 . S
N814 H827 0.985 . S
N815 C817 1.356 . S
N815 H820 0.984 . S
N815 H821 0.985 . S
C816 C810 1.379 . S
C816 C813 1.363 1_545 S
C816 N814 1.356 1_545 S
C817 C811 1.363 . S
C817 C812 1.379 . S
C817 N815 1.356 . S
N818 C810 1.356 . S
N818 H824 0.984 . S
N818 H825 0.984 . S
N819 C812 1.356 1_565 S
N819 H822 0.984 . S
N819 H823 0.985 . S
H820 N815 0.984 . S
H821 N815 0.985 . S
H822 N819 0.984 . S
H823 N819 0.985 . S
H824 N818 0.984 . S
H825 N818 0.984 . S
H826 N814 0.984 . S
H827 N814 0.985 . S
C828 C829 1.363 . S
C828 C834 1.379 . S
C828 N836 1.356 . S
C829 C828 1.363 . S
C829 C835 1.363 . S
C830 C831 1.363 . S
C830 C835 1.379 . S
C830 N837 1.356 . S
C831 C830 1.363 . S
C831 C834 1.363 . S
N832 C834 1.356 . S
N832 H844 0.984 . S
N832 H845 0.985 . S
N833 C835 1.356 . S
N833 H838 0.984 . S
N833 H839 0.985 . S
C834 C828 1.379 . S
C834 C831 1.363 . S
C834 N832 1.356 . S
C835 C829 1.363 . S
C835 C830 1.379 . S
C835 N833 1.356 . S
N836 C828 1.356 . S
N836 H842 0.984 . S
N836 H843 0.984 . S
N837 C830 1.356 . S
N837 H840 0.984 . S
N837 H841 0.985 . S
H838 N833 0.984 . S
H839 N833 0.985 . S
H840 N837 0.984 . S
H841 N837 0.985 . S
H842 N836 0.984 . S
H843 N836 0.984 . S
H844 N832 0.984 . S
H845 N832 0.985 . S
C846 C847 1.363 . S
C846 C852 1.379 . S
C846 N854 1.356 . S
C847 C846 1.363 . S
C847 C853 1.363 . S
C848 C849 1.363 . S
C848 C853 1.379 . S
C848 N855 1.356 . S
C849 C848 1.363 . S
C849 C852 1.363 . S
N850 C852 1.356 . S
N850 H862 0.984 . S
N850 H863 0.985 . S
N851 C853 1.356 . S
N851 H856 0.984 . S
N851 H857 0.985 . S
C852 C846 1.379 . S
C852 C849 1.363 . S
C852 N850 1.356 . S
C853 C847 1.363 . S
C853 C848 1.379 . S
C853 N851 1.356 . S
N854 C846 1.356 . S
N854 H860 0.984 . S
N854 H861 0.984 . S
N855 C848 1.356 . S
N855 H858 0.984 . S
N855 H859 0.985 . S
H856 N851 0.984 . S
H857 N851 0.985 . S
H858 N855 0.984 . S
H859 N855 0.985 . S
H860 N854 0.984 . S
H861 N854 0.984 . S
H862 N850 0.984 . S
H863 N850 0.985 . S
C864 C865 1.363 . S
C864 C870 1.379 . S
C864 N872 1.356 . S
C865 C864 1.363 . S
C865 C871 1.363 . S
C866 C867 1.363 . S
C866 C871 1.379 . S
C866 N873 1.356 . S
C867 C866 1.363 . S
C867 C870 1.363 . S
N868 C870 1.356 . S
N868 H880 0.984 . S
N868 H881 0.985 . S
N869 C871 1.356 . S
N869 H874 0.984 . S
N869 H875 0.985 . S
C870 C864 1.379 . S
C870 C867 1.363 . S
C870 N868 1.356 . S
C871 C865 1.363 . S
C871 C866 1.379 . S
C871 N869 1.356 . S
N872 C864 1.356 . S
N872 H878 0.979 1_455 S
N872 H879 0.984 . S
N873 C866 1.356 . S
N873 H876 0.984 . S
N873 H877 0.985 . S
H874 N869 0.984 . S
H875 N869 0.985 . S
H876 N873 0.984 . S
H877 N873 0.985 . S
H878 N872 0.979 1_655 S
H879 N872 0.984 . S
H880 N868 0.984 . S
H881 N868 0.985 . S
C882 C883 1.363 . S
C882 C888 1.379 . S
C882 N890 1.356 . S
C883 C882 1.363 . S
C883 C889 1.363 . S
C884 C885 1.363 . S
C884 C889 1.379 . S
C884 N891 1.356 . S
C885 C884 1.363 . S
C885 C888 1.363 . S
N886 C888 1.356 . S
N886 H898 0.984 . S
N886 H899 0.985 . S
N887 C889 1.356 . S
N887 H892 0.984 . S
N887 H893 0.985 . S
C888 C882 1.379 . S
C888 C885 1.363 . S
C888 N886 1.356 . S
C889 C883 1.363 . S
C889 C884 1.379 . S
C889 N887 1.356 . S
N890 C882 1.356 . S
N890 H896 0.984 . S
N890 H897 0.984 . S
N891 C884 1.356 . S
N891 H894 0.984 . S
N891 H895 0.985 . S
H892 N887 0.984 . S
H893 N887 0.985 . S
H894 N891 0.984 . S
H895 N891 0.985 . S
H896 N890 0.984 . S
H897 N890 0.984 . S
H898 N886 0.984 . S
H899 N886 0.985 . S
C900 C901 1.363 . S
C900 C906 1.379 . S
C900 N908 1.356 . S
C901 C900 1.363 . S
C901 C907 1.363 . S
C902 C903 1.363 . S
C902 C907 1.379 . S
C902 N909 1.356 . S
C903 C902 1.363 . S
C903 C906 1.363 . S
N904 C906 1.356 . S
N904 H916 0.984 . S
N904 H917 0.985 . S
N905 C907 1.356 . S
N905 H910 0.984 . S
N905 H911 0.985 . S
C906 C900 1.379 . S
C906 C903 1.363 . S
C906 N904 1.356 . S
C907 C901 1.363 . S
C907 C902 1.379 . S
C907 N905 1.356 . S
N908 C900 1.356 . S
N908 H914 0.984 . S
N908 H915 0.984 . S
N909 C902 1.356 . S
N909 H912 0.984 . S
N909 H913 0.985 . S
H910 N905 0.984 . S
H911 N905 0.985 . S
H912 N909 0.984 . S
H913 N909 0.985 . S
H914 N908 0.984 . S
H915 N908 0.984 . S
H916 N904 0.984 . S
H917 N904 0.985 . S
C918 C919 1.363 . S
C918 C924 1.379 . S
C918 N926 1.356 . S
C919 C918 1.363 . S
C919 C925 1.363 . S
C920 C921 1.363 . S
C920 C925 1.379 . S
C920 N927 1.356 . S
C921 C920 1.363 . S
C921 C924 1.363 . S
N922 C924 1.356 . S
N922 H934 0.984 . S
N922 H935 0.985 . S
N923 C925 1.356 . S
N923 H928 0.984 . S
N923 H929 0.985 . S
C924 C918 1.379 . S
C924 C921 1.363 . S
C924 N922 1.356 . S
C925 C919 1.363 . S
C925 C920 1.379 . S
C925 N923 1.356 . S
N926 C918 1.356 . S
N926 H932 0.984 . S
N926 H933 0.984 . S
N927 C920 1.356 . S
N927 H930 0.984 . S
N927 H931 0.985 . S
H928 N923 0.984 . S
H929 N923 0.985 . S
H930 N927 0.984 . S
H931 N927 0.985 . S
H932 N926 0.984 . S
H933 N926 0.984 . S
H934 N922 0.984 . S
H935 N922 0.985 . S
C936 C937 1.363 1_565 S
C936 C942 1.379 . S
C936 N944 1.356 1_565 S
C937 C936 1.363 1_545 S
C937 C943 1.363 1_545 S
C938 C939 1.363 . S
C938 C943 1.379 . S
C938 N945 1.356 . S
C939 C938 1.363 . S
C939 C942 1.363 . S
N940 C942 1.356 . S
N940 H952 0.984 . S
N940 H953 0.985 . S
N941 C943 1.356 1_545 S
N941 H946 0.984 . S
N941 H947 0.985 . S
C942 C936 1.379 . S
C942 C939 1.363 . S
C942 N940 1.356 . S
C943 C937 1.363 1_565 S
C943 C938 1.379 . S
C943 N941 1.356 1_565 S
N944 C936 1.356 1_545 S
N944 H950 0.984 . S
N944 H951 0.984 . S
N945 C938 1.356 . S
N945 H948 0.984 . S
N945 H949 0.985 . S
H946 N941 0.984 . S
H947 N941 0.985 . S
H948 N945 0.984 . S
H949 N945 0.985 . S
H950 N944 0.984 . S
H951 N944 0.984 . S
H952 N940 0.984 . S
H953 N940 0.985 . S
C954 C955 1.363 . S
C954 C960 1.379 . S
C954 N962 1.356 1_455 S
C955 C954 1.363 . S
C955 C961 1.363 . S
C956 C957 1.363 . S
C956 C961 1.379 . S
C956 N963 1.356 . S
C957 C956 1.363 . S
C957 C960 1.363 . S
N958 C960 1.356 . S
N958 H970 0.984 . S
N958 H971 0.985 . S
N959 C961 1.356 . S
N959 H964 0.984 . S
N959 H965 0.985 . S
C960 C954 1.379 . S
C960 C957 1.363 . S
C960 N958 1.356 . S
C961 C955 1.363 . S
C961 C956 1.379 . S
C961 N959 1.356 . S
N962 C954 1.356 1_655 S
N962 H968 0.984 . S
N962 H969 0.984 . S
N963 C956 1.356 . S
N963 H966 0.984 . S
N963 H967 0.985 . S
H964 N959 0.984 . S
H965 N959 0.985 . S
H966 N963 0.984 . S
H967 N963 0.985 . S
H968 N962 0.984 . S
H969 N962 0.984 . S
H970 N958 0.984 . S
H971 N958 0.985 . S
C972 C973 1.363 . S
C972 C978 1.379 . S
C972 N980 1.356 . S
C973 C972 1.363 . S
C973 C979 1.363 . S
C974 C975 1.363 . S
C974 C979 1.379 . S
C974 N981 1.356 . S
C975 C974 1.363 . S
C975 C978 1.363 . S
N976 C978 1.356 . S
N976 H988 0.984 . S
N976 H989 0.985 . S
N977 C979 1.356 . S
N977 H982 0.984 . S
N977 H983 0.985 . S
C978 C972 1.379 . S
C978 C975 1.363 . S
C978 N976 1.356 . S
C979 C973 1.363 . S
C979 C974 1.379 . S
C979 N977 1.356 . S
N980 C972 1.356 . S
N980 H986 0.984 . S
N980 H987 0.984 . S
N981 C974 1.356 . S
N981 H984 0.984 . S
N981 H985 0.985 . S
H982 N977 0.984 . S
H983 N977 0.985 . S
H984 N981 0.984 . S
H985 N981 0.985 . S
H986 N980 0.984 . S
H987 N980 0.984 . S
H988 N976 0.984 . S
H989 N976 0.985 . S
C990 C991 1.363 . S
C990 C996 1.379 . S
C990 N998 1.356 . S
C991 C990 1.363 . S
C991 C997 1.363 . S
C992 C993 1.363 . S
C992 C997 1.379 . S
C992 N999 1.356 . S
C993 C992 1.363 . S
C993 C996 1.363 . S
N994 C996 1.356 . S
N994 H1006 0.984 . S
N994 H1007 0.985 . S
N995 C997 1.356 . S
N995 H1000 0.984 . S
N995 H1001 0.985 . S
C996 C990 1.379 . S
C996 C993 1.363 . S
C996 N994 1.356 . S
C997 C991 1.363 . S
C997 C992 1.379 . S
C997 N995 1.356 . S
N998 C990 1.356 . S
N998 H1004 0.984 . S
N998 H1005 0.984 . S
N999 C992 1.356 . S
N999 H1002 0.984 . S
N999 H1003 0.985 . S
H1000 N995 0.984 . S
H1001 N995 0.985 . S
H1002 N999 0.984 . S
H1003 N999 0.985 . S
H1004 N998 0.984 . S
H1005 N998 0.984 . S
H1006 N994 0.984 . S
H1007 N994 0.985 . S
C1008 C1009 1.363 . S
C1008 C1014 1.379 . S
C1008 N1016 1.356 . S
C1009 C1008 1.363 . S
C1009 C1015 1.363 . S
C1010 C1011 1.363 . S
C1010 C1015 1.379 . S
C1010 N1017 1.356 . S
C1011 C1010 1.363 . S
C1011 C1014 1.363 . S
N1012 C1014 1.356 . S
N1012 H1024 0.984 . S
N1012 H1025 0.985 . S
N1013 C1015 1.356 . S
N1013 H1018 0.984 . S
N1013 H1019 0.985 . S
C1014 C1008 1.379 . S
C1014 C1011 1.363 . S
C1014 N1012 1.356 . S
C1015 C1009 1.363 . S
C1015 C1010 1.379 . S
C1015 N1013 1.356 . S
N1016 C1008 1.356 . S
N1016 H1022 0.984 . S
N1016 H1023 0.984 . S
N1017 C1010 1.356 . S
N1017 H1020 0.984 . S
N1017 H1021 0.985 . S
H1018 N1013 0.984 . S
H1019 N1013 0.985 . S
H1020 N1017 0.984 . S
H1021 N1017 0.985 . S
H1022 N1016 0.984 . S
H1023 N1016 0.984 . S
H1024 N1012 0.984 . S
H1025 N1012 0.985 . S
C1026 C1027 1.363 . S
C1026 C1032 1.379 . S
C1026 N1034 1.356 . S
C1027 C1026 1.363 . S
C1027 C1033 1.363 . S
C1028 C1029 1.363 . S
C1028 C1033 1.379 . S
C1028 N1035 1.356 . S
C1029 C1028 1.363 . S
C1029 C1032 1.363 . S
N1030 C1032 1.356 . S
N1030 H1042 0.984 . S
N1030 H1043 0.985 . S
N1031 C1033 1.356 . S
N1031 H1036 0.984 . S
N1031 H1037 0.985 . S
C1032 C1026 1.379 . S
C1032 C1029 1.363 . S
C1032 N1030 1.356 . S
C1033 C1027 1.363 . S
C1033 C1028 1.379 . S
C1033 N1031 1.356 . S
N1034 C1026 1.356 . S
N1034 H1040 0.984 . S
N1034 H1041 0.984 . S
N1035 C1028 1.356 . S
N1035 H1038 0.984 . S
N1035 H1039 0.985 . S
H1036 N1031 0.984 . S
H1037 N1031 0.985 . S
H1038 N1035 0.984 . S
H1039 N1035 0.985 . S
H1040 N1034 0.984 . S
H1041 N1034 0.984 . S
H1042 N1030 0.984 . S
H1043 N1030 0.985 . S
C1044 C1045 1.363 . S
C1044 C1050 1.379 1_565 S
C1044 N1052 1.356 . S
C1045 C1044 1.363 . S
C1045 C1051 1.363 . S
C1046 C1047 1.363 . S
C1046 C1051 1.379 1_545 S
C1046 N1053 1.356 . S
C1047 C1046 1.363 . S
C1047 C1050 1.363 . S
N1048 C1050 1.356 . S
N1048 H1060 0.984 . S
N1048 H1061 0.985 . S
N1049 C1051 1.356 . S
N1049 H1054 0.984 . S
N1049 H1055 0.985 . S
C1050 C1044 1.379 1_545 S
C1050 C1047 1.363 . S
C1050 N1048 1.356 . S
C1051 C1045 1.363 . S
C1051 C1046 1.379 1_565 S
C1051 N1049 1.356 . S
N1052 C1044 1.356 . S
N1052 H1058 0.984 . S
N1052 H1059 0.984 . S
N1053 C1046 1.356 . S
N1053 H1056 0.984 . S
N1053 H1057 0.985 . S
H1054 N1049 0.984 . S
H1055 N1049 0.985 . S
H1056 N1053 0.984 . S
H1057 N1053 0.985 . S
H1058 N1052 0.984 . S
H1059 N1052 0.984 . S
H1060 N1048 0.984 . S
H1061 N1048 0.985 . S
C1062 C1063 1.363 . S
C1062 C1068 1.379 1_455 S
C1062 N1070 1.356 . S
C1063 C1062 1.363 . S
C1063 C1069 1.363 . S
C1064 C1065 1.363 1_455 S
C1064 C1069 1.379 . S
C1064 N1071 1.356 . S
C1065 C1064 1.363 1_655 S
C1065 C1068 1.363 . S
N1066 C1068 1.356 . S
N1066 H1078 0.984 . S
N1066 H1079 0.985 . S
N1067 C1069 1.356 . S
N1067 H1072 0.984 . S
N1067 H1073 0.985 . S
C1068 C1062 1.379 1_655 S
C1068 C1065 1.363 . S
C1068 N1066 1.356 . S
C1069 C1063 1.363 . S
C1069 C1064 1.379 . S
C1069 N1067 1.356 . S
N1070 C1062 1.356 . S
N1070 H1076 0.984 1_455 S
N1070 H1077 0.984 . S
N1071 C1064 1.356 . S
N1071 H1074 0.984 1_455 S
N1071 H1075 0.985 . S
H1072 N1067 0.984 . S
H1073 N1067 0.985 . S
H1074 N1071 0.984 1_655 S
H1075 N1071 0.985 . S
H1076 N1070 0.984 1_655 S
H1077 N1070 0.984 . S
H1078 N1066 0.984 . S
H1079 N1066 0.985 . S
C1080 C1081 1.363 . S
C1080 C1086 1.379 . S
C1080 N1088 1.356 . S
C1081 C1080 1.363 . S
C1081 C1087 1.363 . S
C1082 C1083 1.363 . S
C1082 C1087 1.379 . S
C1082 N1089 1.356 . S
C1083 C1082 1.363 . S
C1083 C1086 1.363 . S
N1084 C1086 1.356 . S
N1084 H1096 0.984 . S
N1084 H1097 0.985 . S
N1085 C1087 1.356 . S
N1085 H1090 0.984 . S
N1085 H1091 0.985 . S
C1086 C1080 1.379 . S
C1086 C1083 1.363 . S
C1086 N1084 1.356 . S
C1087 C1081 1.363 . S
C1087 C1082 1.379 . S
C1087 N1085 1.356 . S
N1088 C1080 1.356 . S
N1088 H1094 0.984 . S
N1088 H1095 0.984 . S
N1089 C1082 1.356 . S
N1089 H1092 0.984 . S
N1089 H1093 0.985 . S
H1090 N1085 0.984 . S
H1091 N1085 0.985 . S
H1092 N1089 0.984 . S
H1093 N1089 0.985 . S
H1094 N1088 0.984 . S
H1095 N1088 0.984 . S
H1096 N1084 0.984 . S
H1097 N1084 0.985 . S
C1098 C1099 1.366 . S
C1098 C1104 1.379 . S
C1098 N1106 1.356 1_655 S
C1099 C1098 1.366 . S
C1099 C1105 1.376 . S
C1100 C1101 1.363 . S
C1100 C1105 1.379 . S
C1100 N1107 1.356 . S
C1101 C1100 1.363 . S
C1101 C1104 1.363 . S
N1102 C1104 1.356 . S
N1102 H1114 0.984 . S
N1102 H1115 0.985 . S
N1103 C1105 1.367 . S
N1103 H1108 0.961 1_655 S
N1103 H1109 0.998 . S
C1104 C1098 1.379 . S
C1104 C1101 1.363 . S
C1104 N1102 1.356 . S
C1105 C1099 1.376 . S
C1105 C1100 1.379 . S
C1105 N1103 1.367 . S
N1106 C1098 1.356 1_455 S
N1106 H1112 0.984 . S
N1106 H1113 0.984 . S
N1107 C1100 1.356 . S
N1107 H1110 0.984 . S
N1107 H1111 0.985 . S
H1108 N1103 0.961 1_455 S
H1109 N1103 0.998 . S
H1110 N1107 0.984 . S
H1111 N1107 0.985 . S
H1112 N1106 0.984 . S
H1113 N1106 0.984 . S
H1114 N1102 0.984 . S
H1115 N1102 0.985 . S
C1116 C1117 1.363 . S
C1116 C1122 1.379 . S
C1116 N1124 1.356 . S
C1117 C1116 1.363 . S
C1117 C1123 1.363 . S
C1118 C1119 1.363 . S
C1118 C1123 1.379 . S
C1118 N1125 1.356 . S
C1119 C1118 1.363 . S
C1119 C1122 1.363 . S
N1120 C1122 1.356 . S
N1120 H1132 0.984 . S
N1120 H1133 0.985 . S
N1121 C1123 1.356 . S
N1121 H1126 0.984 . S
N1121 H1127 0.985 . S
C1122 C1116 1.379 . S
C1122 C1119 1.363 . S
C1122 N1120 1.356 . S
C1123 C1117 1.363 . S
C1123 C1118 1.379 . S
C1123 N1121 1.356 . S
N1124 C1116 1.356 . S
N1124 H1130 0.984 . S
N1124 H1131 0.984 . S
N1125 C1118 1.356 . S
N1125 H1128 0.984 . S
N1125 H1129 0.985 . S
H1126 N1121 0.984 . S
H1127 N1121 0.985 . S
H1128 N1125 0.984 . S
H1129 N1125 0.985 . S
H1130 N1124 0.984 . S
H1131 N1124 0.984 . S
H1132 N1120 0.984 . S
H1133 N1120 0.985 . S
C1134 C1135 1.363 . S
C1134 C1140 1.379 . S
C1134 N1142 1.356 1_545 S
C1135 C1134 1.363 . S
C1135 C1141 1.363 . S
C1136 C1137 1.363 . S
C1136 C1141 1.379 . S
C1136 N1143 1.356 . S
C1137 C1136 1.363 . S
C1137 C1140 1.363 . S
N1138 C1140 1.356 . S
N1138 H1150 0.984 . S
N1138 H1151 0.985 . S
N1139 C1141 1.356 1_565 S
N1139 H1144 0.984 . S
N1139 H1145 0.985 1_565 S
C1140 C1134 1.379 . S
C1140 C1137 1.363 . S
C1140 N1138 1.356 . S
C1141 C1135 1.363 . S
C1141 C1136 1.379 . S
C1141 N1139 1.356 1_545 S
N1142 C1134 1.356 1_565 S
N1142 H1148 0.984 . S
N1142 H1149 0.984 . S
N1143 C1136 1.356 . S
N1143 H1146 0.984 . S
N1143 H1147 0.985 . S
H1144 N1139 0.984 . S
H1145 N1139 0.985 1_545 S
H1146 N1143 0.984 . S
H1147 N1143 0.985 . S
H1148 N1142 0.984 . S
H1149 N1142 0.984 . S
H1150 N1138 0.984 . S
H1151 N1138 0.985 . S
C1152 C1153 1.363 . S
C1152 C1158 1.379 . S
C1152 N1160 1.356 . S
C1153 C1152 1.363 . S
C1153 C1159 1.363 . S
C1154 C1155 1.363 . S
C1154 C1159 1.379 . S
C1154 N1161 1.356 . S
C1155 C1154 1.363 . S
C1155 C1158 1.363 . S
N1156 C1158 1.356 . S
N1156 H1168 0.984 . S
N1156 H1169 0.985 . S
N1157 C1159 1.356 . S
N1157 H1162 0.984 . S
N1157 H1163 0.985 . S
C1158 C1152 1.379 . S
C1158 C1155 1.363 . S
C1158 N1156 1.356 . S
C1159 C1153 1.363 . S
C1159 C1154 1.379 . S
C1159 N1157 1.356 . S
N1160 C1152 1.356 . S
N1160 H1166 0.984 . S
N1160 H1167 0.984 . S
N1161 C1154 1.356 . S
N1161 H1164 0.984 . S
N1161 H1165 0.985 . S
H1162 N1157 0.984 . S
H1163 N1157 0.985 . S
H1164 N1161 0.984 . S
H1165 N1161 0.985 . S
H1166 N1160 0.984 . S
H1167 N1160 0.984 . S
H1168 N1156 0.984 . S
H1169 N1156 0.985 . S
C1170 C1171 1.363 . S
C1170 C1176 1.379 . S
C1170 N1178 1.356 . S
C1171 C1170 1.363 . S
C1171 C1177 1.363 . S
C1172 C1173 1.363 . S
C1172 C1177 1.379 . S
C1172 N1179 1.356 . S
C1173 C1172 1.363 . S
C1173 C1176 1.363 . S
N1174 C1176 1.356 . S
N1174 H1186 0.984 . S
N1174 H1187 0.985 . S
N1175 C1177 1.356 . S
N1175 H1180 0.984 . S
N1175 H1181 0.985 . S
C1176 C1170 1.379 . S
C1176 C1173 1.363 . S
C1176 N1174 1.356 . S
C1177 C1171 1.363 . S
C1177 C1172 1.379 . S
C1177 N1175 1.356 . S
N1178 C1170 1.356 . S
N1178 H1184 0.984 . S
N1178 H1185 0.984 . S
N1179 C1172 1.356 . S
N1179 H1182 0.984 . S
N1179 H1183 0.985 . S
H1180 N1175 0.984 . S
H1181 N1175 0.985 . S
H1182 N1179 0.984 . S
H1183 N1179 0.985 . S
H1184 N1178 0.984 . S
H1185 N1178 0.984 . S
H1186 N1174 0.984 . S
H1187 N1174 0.985 . S
C1188 C1189 1.363 . S
C1188 C1194 1.379 . S
C1188 N1196 1.356 . S
C1189 C1188 1.363 . S
C1189 C1195 1.363 . S
C1190 C1191 1.363 . S
C1190 C1195 1.379 . S
C1190 N1197 1.356 . S
C1191 C1190 1.363 . S
C1191 C1194 1.363 . S
N1192 C1194 1.356 . S
N1192 H1204 0.984 . S
N1192 H1205 0.985 . S
N1193 C1195 1.356 . S
N1193 H1198 0.984 . S
N1193 H1199 0.985 . S
C1194 C1188 1.379 . S
C1194 C1191 1.363 . S
C1194 N1192 1.356 . S
C1195 C1189 1.363 . S
C1195 C1190 1.379 . S
C1195 N1193 1.356 . S
N1196 C1188 1.356 . S
N1196 H1202 0.984 . S
N1196 H1203 0.984 . S
N1197 C1190 1.356 . S
N1197 H1200 0.984 . S
N1197 H1201 0.985 . S
H1198 N1193 0.984 . S
H1199 N1193 0.985 . S
H1200 N1197 0.984 . S
H1201 N1197 0.985 . S
H1202 N1196 0.984 . S
H1203 N1196 0.984 . S
H1204 N1192 0.984 . S
H1205 N1192 0.985 . S
C1206 C1207 1.363 . S
C1206 C1212 1.379 . S
C1206 N1214 1.356 . S
C1207 C1206 1.363 . S
C1207 C1213 1.363 . S
C1208 C1209 1.363 . S
C1208 C1213 1.379 . S
C1208 N1215 1.356 . S
C1209 C1208 1.363 . S
C1209 C1212 1.363 . S
N1210 C1212 1.356 . S
N1210 H1222 0.984 . S
N1210 H1223 0.985 . S
N1211 C1213 1.356 . S
N1211 H1216 0.984 . S
N1211 H1217 0.985 . S
C1212 C1206 1.379 . S
C1212 C1209 1.363 . S
C1212 N1210 1.356 . S
C1213 C1207 1.363 . S
C1213 C1208 1.379 . S
C1213 N1211 1.356 . S
N1214 C1206 1.356 . S
N1214 H1220 0.984 . S
N1214 H1221 0.984 . S
N1215 C1208 1.356 . S
N1215 H1218 0.984 . S
N1215 H1219 0.985 . S
H1216 N1211 0.984 . S
H1217 N1211 0.985 . S
H1218 N1215 0.984 . S
H1219 N1215 0.985 . S
H1220 N1214 0.984 . S
H1221 N1214 0.984 . S
H1222 N1210 0.984 . S
H1223 N1210 0.985 . S
C1224 C1225 1.363 . S
C1224 C1230 1.379 . S
C1224 N1232 1.356 . S
C1225 C1224 1.363 . S
C1225 C1231 1.363 . S
C1226 C1227 1.363 . S
C1226 C1231 1.379 . S
C1226 N1233 1.356 . S
C1227 C1226 1.363 . S
C1227 C1230 1.363 . S
N1228 C1230 1.356 . S
N1228 H1240 0.984 . S
N1228 H1241 0.985 . S
N1229 C1231 1.356 . S
N1229 H1234 0.984 . S
N1229 H1235 0.985 1_455 S
C1230 C1224 1.379 . S
C1230 C1227 1.363 . S
C1230 N1228 1.356 . S
C1231 C1225 1.363 . S
C1231 C1226 1.379 . S
C1231 N1229 1.356 . S
N1232 C1224 1.356 . S
N1232 H1238 0.984 . S
N1232 H1239 0.984 . S
N1233 C1226 1.356 . S
N1233 H1236 0.984 . S
N1233 H1237 0.985 1_455 S
H1234 N1229 0.984 . S
H1235 N1229 0.985 1_655 S
H1236 N1233 0.984 . S
H1237 N1233 0.985 1_655 S
H1238 N1232 0.984 . S
H1239 N1232 0.984 . S
H1240 N1228 0.984 . S
H1241 N1228 0.985 . S
C1242 C1243 1.363 . S
C1242 C1248 1.379 . S
C1242 N1250 1.356 . S
C1243 C1242 1.363 . S
C1243 C1249 1.363 . S
C1244 C1245 1.363 . S
C1244 C1249 1.379 . S
C1244 N1251 1.356 . S
C1245 C1244 1.363 . S
C1245 C1248 1.363 . S
N1246 C1248 1.356 . S
N1246 H1258 0.984 . S
N1246 H1259 0.985 . S
N1247 C1249 1.356 . S
N1247 H1252 0.984 . S
N1247 H1253 0.985 . S
C1248 C1242 1.379 . S
C1248 C1245 1.363 . S
C1248 N1246 1.356 . S
C1249 C1243 1.363 . S
C1249 C1244 1.379 . S
C1249 N1247 1.356 . S
N1250 C1242 1.356 . S
N1250 H1256 0.984 . S
N1250 H1257 0.984 . S
N1251 C1244 1.356 . S
N1251 H1254 0.984 . S
N1251 H1255 0.985 . S
H1252 N1247 0.984 . S
H1253 N1247 0.985 . S
H1254 N1251 0.984 . S
H1255 N1251 0.985 . S
H1256 N1250 0.984 . S
H1257 N1250 0.984 . S
H1258 N1246 0.984 . S
H1259 N1246 0.985 . S
C1260 C1261 1.363 . S
C1260 C1266 1.379 . S
C1260 N1268 1.356 . S
C1261 C1260 1.363 . S
C1261 C1267 1.363 . S
C1262 C1263 1.363 . S
C1262 C1267 1.379 . S
C1262 N1269 1.356 1_655 S
C1263 C1262 1.363 . S
C1263 C1266 1.363 . S
N1264 C1266 1.356 . S
N1264 H1276 0.984 . S
N1264 H1277 0.985 . S
N1265 C1267 1.356 1_455 S
N1265 H1270 0.989 . S
N1265 H1271 0.985 . S
C1266 C1260 1.379 . S
C1266 C1263 1.363 . S
C1266 N1264 1.356 . S
C1267 C1261 1.363 . S
C1267 C1262 1.379 . S
C1267 N1265 1.356 1_655 S
N1268 C1260 1.356 . S
N1268 H1274 0.984 . S
N1268 H1275 0.984 . S
N1269 C1262 1.356 1_455 S
N1269 H1272 0.984 1_455 S
N1269 H1273 0.985 . S
H1270 N1265 0.989 . S
H1271 N1265 0.985 . S
H1272 N1269 0.984 1_655 S
H1273 N1269 0.985 . S
H1274 N1268 0.984 . S
H1275 N1268 0.984 . S
H1276 N1264 0.984 . S
H1277 N1264 0.985 . S
C1278 C1279 1.363 . S
C1278 C1284 1.379 . S
C1278 N1286 1.356 . S
C1279 C1278 1.363 . S
C1279 C1285 1.363 . S
C1280 C1281 1.363 . S
C1280 C1285 1.379 . S
C1280 N1287 1.356 . S
C1281 C1280 1.363 . S
C1281 C1284 1.363 . S
N1282 C1284 1.356 . S
N1282 H1294 0.984 . S
N1282 H1295 0.985 . S
N1283 C1285 1.356 . S
N1283 H1288 0.984 . S
N1283 H1289 0.985 . S
C1284 C1278 1.379 . S
C1284 C1281 1.363 . S
C1284 N1282 1.356 . S
C1285 C1279 1.363 . S
C1285 C1280 1.379 . S
C1285 N1283 1.356 . S
N1286 C1278 1.356 . S
N1286 H1292 0.984 . S
N1286 H1293 0.984 . S
N1287 C1280 1.356 . S
N1287 H1290 0.984 . S
N1287 H1291 0.985 . S
H1288 N1283 0.984 . S
H1289 N1283 0.985 . S
H1290 N1287 0.984 . S
H1291 N1287 0.985 . S
H1292 N1286 0.984 . S
H1293 N1286 0.984 . S
H1294 N1282 0.984 . S
H1295 N1282 0.985 . S
C1296 C1297 1.363 . S
C1296 C1302 1.379 . S
C1296 N1304 1.356 . S
C1297 C1296 1.363 . S
C1297 C1303 1.363 . S
C1298 C1299 1.363 . S
C1298 C1303 1.379 . S
C1298 N1305 1.356 . S
C1299 C1298 1.363 . S
C1299 C1302 1.363 . S
N1300 C1302 1.356 . S
N1300 H1312 0.984 . S
N1300 H1313 0.985 . S
N1301 C1303 1.356 . S
N1301 H1306 0.984 . S
N1301 H1307 0.985 . S
C1302 C1296 1.379 . S
C1302 C1299 1.363 . S
C1302 N1300 1.356 . S
C1303 C1297 1.363 . S
C1303 C1298 1.379 . S
C1303 N1301 1.356 . S
N1304 C1296 1.356 . S
N1304 H1310 0.984 . S
N1304 H1311 0.984 . S
N1305 C1298 1.356 . S
N1305 H1308 0.984 . S
N1305 H1309 0.985 . S
H1306 N1301 0.984 . S
H1307 N1301 0.985 . S
H1308 N1305 0.984 . S
H1309 N1305 0.985 . S
H1310 N1304 0.984 . S
H1311 N1304 0.984 . S
H1312 N1300 0.984 . S
H1313 N1300 0.985 . S
C1314 C1315 1.363 . S
C1314 C1320 1.379 . S
C1314 N1322 1.356 . S
C1315 C1314 1.363 . S
C1315 C1321 1.363 . S
C1316 C1317 1.363 . S
C1316 C1321 1.379 . S
C1316 N1323 1.356 . S
C1317 C1316 1.363 . S
C1317 C1320 1.363 . S
N1318 C1320 1.356 . S
N1318 H1330 0.984 . S
N1318 H1331 0.985 . S
N1319 C1321 1.356 . S
N1319 H1324 0.984 . S
N1319 H1325 0.985 . S
C1320 C1314 1.379 . S
C1320 C1317 1.363 . S
C1320 N1318 1.356 . S
C1321 C1315 1.363 . S
C1321 C1316 1.379 . S
C1321 N1319 1.356 . S
N1322 C1314 1.356 . S
N1322 H1328 0.984 . S
N1322 H1329 0.984 . S
N1323 C1316 1.356 . S
N1323 H1326 0.984 . S
N1323 H1327 0.985 . S
H1324 N1319 0.984 . S
H1325 N1319 0.985 . S
H1326 N1323 0.984 . S
H1327 N1323 0.985 . S
H1328 N1322 0.984 . S
H1329 N1322 0.984 . S
H1330 N1318 0.984 . S
H1331 N1318 0.985 . S
C1332 C1333 1.363 . S
C1332 C1338 1.379 . S
C1332 N1340 1.356 . S
C1333 C1332 1.363 . S
C1333 C1339 1.363 . S
C1334 C1335 1.363 . S
C1334 C1339 1.379 . S
C1334 N1341 1.356 . S
C1335 C1334 1.363 . S
C1335 C1338 1.363 . S
N1336 C1338 1.356 . S
N1336 H1348 0.984 . S
N1336 H1349 0.985 . S
N1337 C1339 1.356 . S
N1337 H1342 0.984 . S
N1337 H1343 0.985 . S
C1338 C1332 1.379 . S
C1338 C1335 1.363 . S
C1338 N1336 1.356 . S
C1339 C1333 1.363 . S
C1339 C1334 1.379 . S
C1339 N1337 1.356 . S
N1340 C1332 1.356 . S
N1340 H1346 0.984 . S
N1340 H1347 0.984 . S
N1341 C1334 1.356 . S
N1341 H1344 0.984 . S
N1341 H1345 0.985 . S
H1342 N1337 0.984 . S
H1343 N1337 0.985 . S
H1344 N1341 0.984 . S
H1345 N1341 0.985 . S
H1346 N1340 0.984 . S
H1347 N1340 0.984 . S
H1348 N1336 0.984 . S
H1349 N1336 0.985 . S
C1350 C1351 1.363 . S
C1350 C1356 1.379 . S
C1350 N1358 1.356 . S
C1351 C1350 1.363 . S
C1351 C1357 1.363 . S
C1352 C1353 1.363 . S
C1352 C1357 1.379 . S
C1352 N1359 1.356 . S
C1353 C1352 1.363 . S
C1353 C1356 1.363 . S
N1354 C1356 1.356 . S
N1354 H1366 0.984 . S
N1354 H1367 0.985 . S
N1355 C1357 1.356 . S
N1355 H1360 0.984 . S
N1355 H1361 0.985 . S
C1356 C1350 1.379 . S
C1356 C1353 1.363 . S
C1356 N1354 1.356 . S
C1357 C1351 1.363 . S
C1357 C1352 1.379 . S
C1357 N1355 1.356 . S
N1358 C1350 1.356 . S
N1358 H1364 0.984 . S
N1358 H1365 0.984 . S
N1359 C1352 1.356 . S
N1359 H1362 0.984 . S
N1359 H1363 0.985 . S
H1360 N1355 0.984 . S
H1361 N1355 0.985 . S
H1362 N1359 0.984 . S
H1363 N1359 0.985 . S
H1364 N1358 0.984 . S
H1365 N1358 0.984 . S
H1366 N1354 0.984 . S
H1367 N1354 0.985 . S
C1368 C1369 1.363 . S
C1368 C1374 1.379 . S
C1368 N1376 1.356 . S
C1369 C1368 1.363 . S
C1369 C1375 1.363 . S
C1370 C1371 1.363 . S
C1370 C1375 1.379 . S
C1370 N1377 1.356 . S
C1371 C1370 1.363 . S
C1371 C1374 1.363 . S
N1372 C1374 1.356 . S
N1372 H1384 0.984 . S
N1372 H1385 0.985 . S
N1373 C1375 1.356 . S
N1373 H1378 0.984 . S
N1373 H1379 0.985 . S
C1374 C1368 1.379 . S
C1374 C1371 1.363 . S
C1374 N1372 1.356 . S
C1375 C1369 1.363 . S
C1375 C1370 1.379 . S
C1375 N1373 1.356 . S
N1376 C1368 1.356 . S
N1376 H1382 0.984 . S
N1376 H1383 0.984 . S
N1377 C1370 1.356 . S
N1377 H1380 0.984 . S
N1377 H1381 0.985 . S
H1378 N1373 0.984 . S
H1379 N1373 0.985 . S
H1380 N1377 0.984 . S
H1381 N1377 0.985 . S
H1382 N1376 0.984 . S
H1383 N1376 0.984 . S
H1384 N1372 0.984 . S
H1385 N1372 0.985 . S
C1386 C1387 1.363 . S
C1386 C1392 1.379 . S
C1386 N1394 1.356 . S
C1387 C1386 1.363 . S
C1387 C1393 1.363 . S
C1388 C1389 1.363 . S
C1388 C1393 1.379 . S
C1388 N1395 1.356 . S
C1389 C1388 1.363 . S
C1389 C1392 1.363 . S
N1390 C1392 1.356 . S
N1390 H1402 0.984 . S
N1390 H1403 0.985 . S
N1391 C1393 1.356 . S
N1391 H1396 0.984 . S
N1391 H1397 0.985 . S
C1392 C1386 1.379 . S
C1392 C1389 1.363 . S
C1392 N1390 1.356 . S
C1393 C1387 1.363 . S
C1393 C1388 1.379 . S
C1393 N1391 1.356 . S
N1394 C1386 1.356 . S
N1394 H1400 0.984 . S
N1394 H1401 0.984 . S
N1395 C1388 1.356 . S
N1395 H1398 0.984 . S
N1395 H1399 0.985 . S
H1396 N1391 0.984 . S
H1397 N1391 0.985 . S
H1398 N1395 0.984 . S
H1399 N1395 0.985 . S
H1400 N1394 0.984 . S
H1401 N1394 0.984 . S
H1402 N1390 0.984 . S
H1403 N1390 0.985 . S
C1404 C1405 1.363 . S
C1404 C1410 1.379 . S
C1404 N1412 1.356 . S
C1405 C1404 1.363 . S
C1405 C1411 1.363 . S
C1406 C1407 1.363 . S
C1406 C1411 1.379 . S
C1406 N1413 1.356 . S
C1407 C1406 1.363 . S
C1407 C1410 1.363 . S
N1408 C1410 1.356 . S
N1408 H1420 0.984 . S
N1408 H1421 0.985 . S
N1409 C1411 1.356 . S
N1409 H1414 0.984 . S
N1409 H1415 0.985 . S
C1410 C1404 1.379 . S
C1410 C1407 1.363 . S
C1410 N1408 1.356 . S
C1411 C1405 1.363 . S
C1411 C1406 1.379 . S
C1411 N1409 1.356 . S
N1412 C1404 1.356 . S
N1412 H1418 0.984 . S
N1412 H1419 0.984 . S
N1413 C1406 1.356 . S
N1413 H1416 0.984 . S
N1413 H1417 0.985 . S
H1414 N1409 0.984 . S
H1415 N1409 0.985 . S
H1416 N1413 0.984 . S
H1417 N1413 0.985 . S
H1418 N1412 0.984 . S
H1419 N1412 0.984 . S
H1420 N1408 0.984 . S
H1421 N1408 0.985 . S
C1422 C1423 1.363 . S
C1422 C1428 1.379 . S
C1422 N1430 1.356 . S
C1423 C1422 1.363 . S
C1423 C1429 1.363 . S
C1424 C1425 1.363 . S
C1424 C1429 1.379 . S
C1424 N1431 1.356 . S
C1425 C1424 1.363 . S
C1425 C1428 1.363 . S
N1426 C1428 1.356 . S
N1426 H1438 0.984 . S
N1426 H1439 0.985 . S
N1427 C1429 1.356 . S
N1427 H1432 0.984 . S
N1427 H1433 0.985 . S
C1428 C1422 1.379 . S
C1428 C1425 1.363 . S
C1428 N1426 1.356 . S
C1429 C1423 1.363 . S
C1429 C1424 1.379 . S
C1429 N1427 1.356 . S
N1430 C1422 1.356 . S
N1430 H1436 0.984 . S
N1430 H1437 0.984 . S
N1431 C1424 1.356 . S
N1431 H1434 0.984 . S
N1431 H1435 0.985 . S
H1432 N1427 0.984 . S
H1433 N1427 0.985 . S
H1434 N1431 0.984 . S
H1435 N1431 0.985 . S
H1436 N1430 0.984 . S
H1437 N1430 0.984 . S
H1438 N1426 0.984 . S
H1439 N1426 0.985 . S
C1440 C1441 1.363 . S
C1440 C1446 1.379 . S
C1440 N1448 1.356 . S
C1441 C1440 1.363 . S
C1441 C1447 1.363 . S
C1442 C1443 1.363 . S
C1442 C1447 1.379 . S
C1442 N1449 1.356 . S
C1443 C1442 1.363 . S
C1443 C1446 1.363 . S
N1444 C1446 1.356 . S
N1444 H1456 0.984 . S
N1444 H1457 0.985 . S
N1445 C1447 1.356 . S
N1445 H1450 0.984 . S
N1445 H1451 0.985 . S
C1446 C1440 1.379 . S
C1446 C1443 1.363 . S
C1446 N1444 1.356 . S
C1447 C1441 1.363 . S
C1447 C1442 1.379 . S
C1447 N1445 1.356 . S
N1448 C1440 1.356 . S
N1448 H1454 0.984 . S
N1448 H1455 0.984 . S
N1449 C1442 1.356 . S
N1449 H1452 0.984 . S
N1449 H1453 0.985 . S
H1450 N1445 0.984 . S
H1451 N1445 0.985 . S
H1452 N1449 0.984 . S
H1453 N1449 0.985 . S
H1454 N1448 0.984 . S
H1455 N1448 0.984 . S
H1456 N1444 0.984 . S
H1457 N1444 0.985 . S
C1458 C1459 1.363 . S
C1458 C1464 1.379 . S
C1458 N1466 1.356 . S
C1459 C1458 1.363 . S
C1459 C1465 1.363 . S
C1460 C1461 1.363 . S
C1460 C1465 1.379 . S
C1460 N1467 1.356 . S
C1461 C1460 1.363 . S
C1461 C1464 1.363 . S
N1462 C1464 1.356 . S
N1462 H1474 0.984 . S
N1462 H1475 0.985 . S
N1463 C1465 1.356 . S
N1463 H1468 0.984 . S
N1463 H1469 0.985 . S
C1464 C1458 1.379 . S
C1464 C1461 1.363 . S
C1464 N1462 1.356 . S
C1465 C1459 1.363 . S
C1465 C1460 1.379 . S
C1465 N1463 1.356 . S
N1466 C1458 1.356 . S
N1466 H1472 0.984 . S
N1466 H1473 0.984 . S
N1467 C1460 1.356 . S
N1467 H1470 0.984 . S
N1467 H1471 0.985 . S
H1468 N1463 0.984 . S
H1469 N1463 0.985 . S
H1470 N1467 0.984 . S
H1471 N1467 0.985 . S
H1472 N1466 0.984 . S
H1473 N1466 0.984 . S
H1474 N1462 0.984 . S
H1475 N1462 0.985 . S
C1476 C1477 1.363 . S
C1476 C1482 1.379 . S
C1476 N1484 1.356 . S
C1477 C1476 1.363 . S
C1477 C1483 1.363 . S
C1478 C1479 1.363 . S
C1478 C1483 1.379 . S
C1478 N1485 1.356 . S
C1479 C1478 1.363 . S
C1479 C1482 1.363 . S
N1480 C1482 1.356 . S
N1480 H1492 0.984 . S
N1480 H1493 0.985 . S
N1481 C1483 1.356 . S
N1481 H1486 0.984 . S
N1481 H1487 0.985 . S
C1482 C1476 1.379 . S
C1482 C1479 1.363 . S
C1482 N1480 1.356 . S
C1483 C1477 1.363 . S
C1483 C1478 1.379 . S
C1483 N1481 1.356 . S
N1484 C1476 1.356 . S
N1484 H1490 0.984 . S
N1484 H1491 0.984 . S
N1485 C1478 1.356 . S
N1485 H1488 0.984 . S
N1485 H1489 0.985 . S
H1486 N1481 0.984 . S
H1487 N1481 0.985 . S
H1488 N1485 0.984 . S
H1489 N1485 0.985 . S
H1490 N1484 0.984 . S
H1491 N1484 0.984 . S
H1492 N1480 0.984 . S
H1493 N1480 0.985 . S
C1494 C1495 1.363 . S
C1494 C1500 1.379 . S
C1494 N1502 1.356 . S
C1495 C1494 1.363 . S
C1495 C1501 1.363 . S
C1496 C1497 1.363 . S
C1496 C1501 1.379 . S
C1496 N1503 1.356 . S
C1497 C1496 1.363 . S
C1497 C1500 1.363 . S
N1498 C1500 1.356 . S
N1498 H1510 0.984 . S
N1498 H1511 0.985 . S
N1499 C1501 1.356 . S
N1499 H1504 0.984 . S
N1499 H1505 0.985 . S
C1500 C1494 1.379 . S
C1500 C1497 1.363 . S
C1500 N1498 1.356 . S
C1501 C1495 1.363 . S
C1501 C1496 1.379 . S
C1501 N1499 1.356 . S
N1502 C1494 1.356 . S
N1502 H1508 0.984 . S
N1502 H1509 0.984 . S
N1503 C1496 1.356 . S
N1503 H1506 0.984 . S
N1503 H1507 0.985 . S
H1504 N1499 0.984 . S
H1505 N1499 0.985 . S
H1506 N1503 0.984 . S
H1507 N1503 0.985 . S
H1508 N1502 0.984 . S
H1509 N1502 0.984 . S
H1510 N1498 0.984 . S
H1511 N1498 0.985 . S
C1512 C1513 1.363 . S
C1512 C1518 1.379 . S
C1512 N1520 1.356 . S
C1513 C1512 1.363 . S
C1513 C1519 1.363 . S
C1514 C1515 1.363 . S
C1514 C1519 1.379 . S
C1514 N1521 1.356 . S
C1515 C1514 1.363 . S
C1515 C1518 1.363 . S
N1516 C1518 1.356 . S
N1516 H1528 0.984 . S
N1516 H1529 0.985 . S
N1517 C1519 1.356 . S
N1517 H1522 0.984 . S
N1517 H1523 0.985 . S
C1518 C1512 1.379 . S
C1518 C1515 1.363 . S
C1518 N1516 1.356 . S
C1519 C1513 1.363 . S
C1519 C1514 1.379 . S
C1519 N1517 1.356 . S
N1520 C1512 1.356 . S
N1520 H1526 0.984 . S
N1520 H1527 0.984 . S
N1521 C1514 1.356 . S
N1521 H1524 0.984 . S
N1521 H1525 0.985 . S
H1522 N1517 0.984 . S
H1523 N1517 0.985 . S
H1524 N1521 0.984 . S
H1525 N1521 0.985 . S
H1526 N1520 0.984 . S
H1527 N1520 0.984 . S
H1528 N1516 0.984 . S
H1529 N1516 0.985 . S
C559 C147 1.651 . S
C561 C210 1.662 . S
C577 C158 1.745 . S
C579 C250 1.743 . S
C595 C136 1.588 . S
C597 C280 1.577 . S
C613 C125 1.493 . S
C615 C240 1.471 . S
C633 C290 1.517 . S
C631 C103 1.520 . S
C649 C114 1.404 . S
C651 C200 1.402 1_556 S
C669 C229 1.670 . S
C667 C131 1.649 . S
C687 C269 1.647 . S
C685 C109 1.635 . S
C703 C120 1.640 . S
C705 C295 1.668 1_556 S
C721 C153 1.518 . S
C723 C255 1.529 . S
C739 C164 1.484 . S
C741 C309 1.490 . S
C759 C215 1.526 . S
C757 C142 1.497 . S
C777 C330 1.662 . S
C775 C15 1.651 . S
C793 C26 1.746 . S
C795 C370 1.743 . S
C811 C4 1.588 . S
C813 C400 1.576 . S
C829 C191 1.493 . S
C831 C360 1.471 . S
C847 C169 1.520 . S
C849 C410 1.517 . S
C865 C180 1.404 . S
C867 C320 1.402 . S
C883 C197 1.649 . S
C885 C349 1.670 . S
C901 C175 1.635 . S
C903 C389 1.647 . S
C921 C415 1.668 . S
C919 C186 1.640 . S
C937 C21 1.518 . S
C939 C375 1.529 . S
C957 C429 1.490 . S
C955 C32 1.484 1_455 S
C973 C10 1.497 . S
C975 C335 1.526 . S
C993 C450 1.662 . S
C991 C81 1.651 . S
C1009 C92 1.745 . S
C1011 C490 1.743 . S
C1029 C520 1.577 . S
C1027 C70 1.588 . S
C1047 C480 1.471 . S
C1045 C59 1.493 . S
C1065 C530 1.517 . S
C1063 C37 1.520 . S
C1081 C48 1.404 . S
C1083 C440 1.402 . S
C1099 C65 1.637 1_655 S
C1101 C469 1.670 . S
C1117 C43 1.635 . S
C1119 C509 1.647 . S
C1137 C535 1.668 . S
C1135 C54 1.640 1_545 S
C1153 C87 1.518 . S
C1155 C495 1.530 . S
C1171 C98 1.485 . S
C1173 C549 1.490 . S
C1189 C76 1.497 . S
C1191 C455 1.526 . S
C1207 C170 1.593 . S
C1209 C227 1.556 . S
C1227 C267 1.858 . S
C1225 C181 1.908 . S
C1243 C192 1.551 . S
C1245 C286 1.569 . S
C1261 C71 1.727 . S
C1263 C246 1.720 . S
C1279 C82 1.675 . S
C1281 C307 1.649 . S
C1299 C206 1.373 . S
C1297 C93 1.365 . S
C1315 C38 1.593 . S
C1317 C347 1.556 . S
C1333 C49 1.908 . S
C1335 C387 1.858 . S
C1351 C60 1.551 . S
C1353 C406 1.569 . S
C1369 C137 1.727 . S
C1371 C366 1.720 . S
C1389 C427 1.649 . S
C1387 C148 1.675 . S
C1405 C159 1.365 . S
C1407 C326 1.373 . S
C1423 C104 1.593 . S
C1425 C467 1.556 . S
C1441 C115 1.908 . S
C1443 C507 1.858 . S
C1461 C526 1.569 . S
C1459 C126 1.551 . S
C1477 C5 1.727 . S
C1479 C486 1.719 . S
C1495 C16 1.675 . S
C1497 C547 1.649 . S
C1513 C27 1.365 . S
C1515 C446 1.373 . S
