# Generated by pormake.
# Topology zzz, (3,6)-cn, num edge types: 1
# Building blocks:
#     Node 0, Type 0, BuildingBlock: PAMTOO_clean_linker_0, # of connection points: 3
#     Node 1, Type 0, BuildingBlock: PAMTOO_clean_linker_0, # of connection points: 3
#     Node 2, Type 0, BuildingBlock: PAMTOO_clean_linker_0, # of connection points: 3
#     Node 3, Type 0, BuildingBlock: PAMTOO_clean_linker_0, # of connection points: 3
#     Node 4, Type 0, BuildingBlock: PAMTOO_clean_linker_0, # of connection points: 3
#     Node 5, Type 0, BuildingBlock: PAMTOO_clean_linker_0, # of connection points: 3
#     Node 6, Type 0, BuildingBlock: PAMTOO_clean_linker_0, # of connection points: 3
#     Node 7, Type 0, BuildingBlock: PAMTOO_clean_linker_0, # of connection points: 3
#     Node 8, Type 1, BuildingBlock: NUHQIS_clean_sbu_0, # of connection points: 6
#     Node 9, Type 1, BuildingBlock: NUHQIS_clean_sbu_0, # of connection points: 6
#     Node 10, Type 1, BuildingBlock: NUHQIS_clean_sbu_0, # of connection points: 6
#     Node 11, Type 1, BuildingBlock: NUHQIS_clean_sbu_0, # of connection points: 6
#     Edge 12, Type (0, 1), BuildingBlock: UVAHIK_clean_linker_0, # of connection points: 2
#     Edge 13, Type (0, 1), BuildingBlock: UVAHIK_clean_linker_0, # of connection points: 2
#     Edge 14, Type (0, 1), BuildingBlock: UVAHIK_clean_linker_0, # of connection points: 2
#     Edge 15, Type (0, 1), BuildingBlock: UVAHIK_clean_linker_0, # of connection points: 2
#     Edge 16, Type (0, 1), BuildingBlock: UVAHIK_clean_linker_0, # of connection points: 2
#     Edge 17, Type (0, 1), BuildingBlock: UVAHIK_clean_linker_0, # of connection points: 2
#     Edge 18, Type (0, 1), BuildingBlock: UVAHIK_clean_linker_0, # of connection points: 2
#     Edge 19, Type (0, 1), BuildingBlock: UVAHIK_clean_linker_0, # of connection points: 2
#     Edge 20, Type (0, 1), BuildingBlock: UVAHIK_clean_linker_0, # of connection points: 2
#     Edge 21, Type (0, 1), BuildingBlock: UVAHIK_clean_linker_0, # of connection points: 2
#     Edge 22, Type (0, 1), BuildingBlock: UVAHIK_clean_linker_0, # of connection points: 2
#     Edge 23, Type (0, 1), BuildingBlock: UVAHIK_clean_linker_0, # of connection points: 2
#     Edge 24, Type (0, 1), BuildingBlock: UVAHIK_clean_linker_0, # of connection points: 2
#     Edge 25, Type (0, 1), BuildingBlock: UVAHIK_clean_linker_0, # of connection points: 2
#     Edge 26, Type (0, 1), BuildingBlock: UVAHIK_clean_linker_0, # of connection points: 2
#     Edge 27, Type (0, 1), BuildingBlock: UVAHIK_clean_linker_0, # of connection points: 2
#     Edge 28, Type (0, 1), BuildingBlock: UVAHIK_clean_linker_0, # of connection points: 2
#     Edge 29, Type (0, 1), BuildingBlock: UVAHIK_clean_linker_0, # of connection points: 2
#     Edge 30, Type (0, 1), BuildingBlock: UVAHIK_clean_linker_0, # of connection points: 2
#     Edge 31, Type (0, 1), BuildingBlock: UVAHIK_clean_linker_0, # of connection points: 2
#     Edge 32, Type (0, 1), BuildingBlock: UVAHIK_clean_linker_0, # of connection points: 2
#     Edge 33, Type (0, 1), BuildingBlock: UVAHIK_clean_linker_0, # of connection points: 2
#     Edge 34, Type (0, 1), BuildingBlock: UVAHIK_clean_linker_0, # of connection points: 2
#     Edge 35, Type (0, 1), BuildingBlock: UVAHIK_clean_linker_0, # of connection points: 2
# Relax obj value: 0.206
# Max RMSD: 0.142
# Mean RMSD: 0.134
data_MOF--net-zzz--node1-NUHQIS_clean_sbu_0--node2-PAMTOO_clean_linker_0--edge1-UVAHIK_clean_linker_0
_symmetry_space_group_name_H-M    P1
_symmetry_Int_Tables_number       1
_symmetry_cell_setting            triclinic
loop_
_symmetry_equiv_pos_as_xyz
'x, y, z'
_cell_length_a     67.677931
_cell_length_b     67.584895
_cell_length_c     17.94839
_cell_angle_alpha  90.09664
_cell_angle_beta   90.038545
_cell_angle_gamma 89.922082
loop_
_atom_site_label
_atom_site_type_symbol
_atom_site_fract_x
_atom_site_fract_y
_atom_site_fract_z
_atom_type_partial_charge
H0 H 0.79352 0.48472 0.28408 0.0
H1 H 0.73587 0.49237 0.18649 0.0
H2 H 0.75394 0.5287 0.37131 0.0
H3 H 0.70487 0.52237 0.35677 0.0
C4 C 0.70781 0.51407 0.30443 0.0
O5 O 0.72523 0.52113 0.27394 0.0
H6 H 0.70915 0.49811 0.31898 0.0
C7 C 0.77906 0.49164 0.28383 0.0
C8 C 0.77529 0.50679 0.33523 0.0
C9 C 0.76508 0.48627 0.22949 0.0
C10 C 0.74686 0.49622 0.22787 0.0
C11 C 0.7427 0.51133 0.2791 0.0
C12 C 0.75699 0.51676 0.33269 0.0
H13 H 0.03701 0.79403 0.27456 0.0
H14 H 0.02276 0.74011 0.16056 0.0
H15 H 0.99106 0.75615 0.35972 0.0
H16 H 0.99232 0.70735 0.33183 0.0
C17 C 1.00152 0.71085 0.28233 0.0
O18 O 0.99544 0.7289 0.25379 0.0
H19 H 0.01712 0.71154 0.30218 0.0
C20 C 0.02864 0.78037 0.27251 0.0
C21 C 0.01385 0.77682 0.32567 0.0
C22 C 0.03191 0.76726 0.21332 0.0
C23 C 0.02055 0.75007 0.20718 0.0
C24 C 1.00618 0.74575 0.26083 0.0
C25 C 1.00257 0.75928 0.31955 0.0
H26 H 0.70445 0.01317 0.21175 0.0
H27 H 0.76384 0.01152 0.12767 0.0
H28 H 0.75242 0.99699 0.35709 0.0
H29 H 0.79803 0.01435 0.32525 0.0
C30 C 0.7941 0.01451 0.26513 0.0
O31 O 0.78002 1.00005 0.25218 0.0
H32 H 0.78814 0.02952 0.25258 0.0
C33 C 0.72007 0.0104 0.22044 0.0
C34 C 0.72665 1.00454 0.29112 0.0
C35 C 0.73338 0.01324 0.16154 0.0
C36 C 0.75354 1.00982 0.17327 0.0
C37 C 0.7605 1.00404 0.24348 0.0
C38 C 0.74707 1.00162 0.30296 0.0
H39 H 0.49494 0.7193 0.22675 0.0
H40 H 0.50334 0.779 0.15113 0.0
H41 H 0.51448 0.76416 0.38063 0.0
H42 H 0.50401 0.81306 0.35398 0.0
C43 C 0.50124 0.80779 0.29624 0.0
O44 O 0.51462 0.7929 0.27986 0.0
H45 H 0.48576 0.80218 0.29521 0.0
C46 C 0.4989 0.73454 0.23851 0.0
C47 C 0.50449 0.73991 0.311 0.0
C48 C 0.49854 0.74845 0.18066 0.0
C49 C 0.50354 0.76815 0.19552 0.0
C50 C 0.50924 0.77387 0.26744 0.0
C51 C 0.50991 0.75972 0.32523 0.0
H52 H 0.22015 0.54323 0.15439 0.0
H53 H 0.27799 0.53409 0.24577 0.0
H54 H 0.25992 0.50159 0.05061 0.0
H55 H 0.29503 0.47863 0.15138 0.0
C56 C 0.29412 0.49174 0.18869 0.0
O57 O 0.2892 0.50814 0.14636 0.0
H58 H 0.28245 0.48846 0.2307 0.0
C59 C 0.23447 0.53601 0.15119 0.0
C60 C 0.23821 0.5222 0.09441 0.0
C61 C 0.24862 0.54021 0.20576 0.0
C62 C 0.26699 0.53079 0.20372 0.0
C63 C 0.27111 0.51681 0.14808 0.0
C64 C 0.25664 0.51233 0.09372 0.0
H65 H 0.04631 0.22301 0.14742 0.0
H66 H 0.03237 0.27991 0.23904 0.0
H67 H 0.0114 0.26423 0.02018 0.0
H68 H 0.01725 0.31404 0.04526 0.0
C69 C 0.02291 0.30957 0.10089 0.0
O70 O 0.01297 0.29267 0.1232 0.0
H71 H 0.03902 0.30666 0.09393 0.0
C72 C 0.03995 0.23763 0.14023 0.0
C73 C 0.02904 0.2418 0.07565 0.0
C74 C 0.04132 0.25126 0.19892 0.0
C75 C 0.03195 0.26961 0.19282 0.0
C76 C 0.02173 0.27462 0.12764 0.0
C77 C 0.01994 0.26059 0.06934 0.0
H78 H 0.29205 0.97701 0.17916 0.0
H79 H 0.23454 0.98621 0.27305 0.0
H80 H 0.25317 0.02094 0.08477 0.0
H81 H 0.21877 0.04327 0.19051 0.0
C82 C 0.21941 0.02965 0.22504 0.0
O83 O 0.22384 0.01374 0.17926 0.0
H84 H 0.23122 0.03205 0.26743 0.0
C85 C 0.27788 0.98452 0.1775 0.0
C86 C 0.2744 0.99922 0.12388 0.0
C87 C 0.26369 0.97994 0.23142 0.0
C88 C 0.24554 0.9898 0.2315 0.0
C89 C 0.24169 1.0046 0.17884 0.0
C90 C 0.25621 1.0095 0.12541 0.0
H91 H 0.50785 0.30587 0.23874 0.0
H92 H 0.50083 0.24513 0.30213 0.0
H93 H 0.4976 0.26144 0.07065 0.0
H94 H 0.52553 0.22493 0.17021 0.0
C95 C 0.51086 0.21816 0.15796 0.0
O96 O 0.4957 0.23173 0.16731 0.0
H97 H 0.51124 0.21354 0.09853 0.0
C98 C 0.50524 0.29059 0.22309 0.0
C99 C 0.50289 0.28567 0.14753 0.0
C100 C 0.50471 0.27612 0.27893 0.0
C101 C 0.50139 0.25638 0.25933 0.0
C102 C 0.49884 0.25102 0.18452 0.0
C103 C 0.49946 0.26568 0.12845 0.0
Tb104 Tb 0.01646 0.99972 0.79184 0.0
Eu105 Eu 0.99021 0.01453 0.65048 0.0
C106 C 0.03667 0.01014 0.64223 0.0
C107 C 1.00671 0.04546 0.77209 0.0
C108 C 0.05029 0.96961 0.904 0.0
C109 C 0.07334 0.94971 0.97521 0.0
C110 C 0.06282 0.96734 0.96544 0.0
C111 C 0.04903 0.95449 0.85062 0.0
C112 C 0.05939 0.93683 0.86055 0.0
C113 C 0.07134 0.93404 0.92387 0.0
C114 C 0.03806 0.98742 0.8966 0.0
O115 O 0.98722 1.00724 0.83581 0.0
O116 O 0.9683 1.00191 0.73164 0.0
O117 O 0.99535 0.9821 0.6285 0.0
O118 O 1.0057 0.97186 0.74424 0.0
C119 C 0.96996 1.00377 0.80428 0.0
O120 O 0.9681 0.03404 0.60036 0.0
O121 O 0.98397 0.01318 0.53125 0.0
O122 O 0.02212 0.02253 0.63016 0.0
O123 O 0.03469 0.99626 0.69257 0.0
O124 O 0.01966 0.03207 0.79365 0.0
O125 O 0.99214 0.04087 0.72711 0.0
C126 C 0.99993 0.96797 0.67565 0.0
O127 O 0.04391 1.00006 0.84657 0.0
O128 O 0.01909 0.98428 0.89263 0.0
C129 C 0.98228 0.0463 0.49092 0.0
C130 C 1.00196 0.08177 0.45461 0.0
C131 C 0.98127 0.08148 0.46398 0.0
C132 C 0.97154 0.06391 0.48265 0.0
C133 C 1.00257 0.04624 0.47436 0.0
C134 C 0.01231 0.06375 0.45717 0.0
C135 C 0.97383 0.02962 0.53296 0.0
H136 H 0.08265 0.94816 0.02395 0.0
H137 H 0.06411 0.97899 0.00668 0.0
H138 H 0.03954 0.9561 0.80239 0.0
H139 H 0.05727 0.92505 0.8204 0.0
H140 H 0.97267 0.09496 0.46013 0.0
H141 H 0.9559 0.06434 0.49536 0.0
H142 H 0.01133 0.03292 0.48029 0.0
H143 H 0.02821 0.0632 0.45099 0.0
Tb144 Tb 0.50937 0.02468 0.78354 0.0
Eu145 Eu 0.49406 0.99655 0.64717 0.0
C146 C 0.50111 0.0428 0.62354 0.0
C147 C 0.46397 0.01517 0.768 0.0
C148 C 0.54058 0.06066 0.87494 0.0
C149 C 0.56512 0.07582 0.79444 0.0
C150 C 0.54633 0.06773 0.80464 0.0
C151 C 0.55323 0.06311 0.93586 0.0
C152 C 0.57205 0.07108 0.92568 0.0
C153 C 0.57854 0.07674 0.85418 0.0
C154 C 0.52363 0.04726 0.88139 0.0
O155 O 0.51404 0.99416 0.82082 0.0
O156 O 0.49009 0.97891 0.75214 0.0
O157 O 0.52732 0.99354 0.64933 0.0
O158 O 0.53455 0.02276 0.70794 0.0
C159 C 0.50235 0.97897 0.80863 0.0
O160 O 0.49365 0.96751 0.59379 0.0
O161 O 0.47722 0.99184 0.5453 0.0
O162 O 0.50271 0.02526 0.59265 0.0
O163 O 0.49939 0.04484 0.69612 0.0
O164 O 0.47891 0.01783 0.81393 0.0
O165 O 0.46683 0.01065 0.69748 0.0
C166 C 0.54 1.00743 0.66778 0.0
O167 O 0.50805 0.05167 0.84205 0.0
O168 O 0.52826 0.02865 0.87494 0.0
C169 C 0.46285 0.96034 0.5403 0.0
C170 C 0.42755 0.93869 0.52586 0.0
C171 C 0.4433 0.93565 0.47581 0.0
C172 C 0.4608 0.94646 0.48291 0.0
C173 C 0.44765 0.9627 0.59264 0.0
C174 C 0.43012 0.95201 0.5854 0.0
C175 C 0.48052 0.97281 0.5445 0.0
H176 H 0.56951 0.08027 0.73894 0.0
H177 H 0.53684 0.06578 0.75655 0.0
H178 H 0.54914 0.05748 0.9902 0.0
H179 H 0.582 0.07126 0.9729 0.0
H180 H 0.44189 0.9253 0.42999 0.0
H181 H 0.47252 0.94433 0.44258 0.0
H182 H 0.44909 0.97329 0.63772 0.0
H183 H 0.41825 0.95494 0.62434 0.0
Tb184 Tb 0.49235 0.51895 0.77981 0.0
Eu185 Eu 0.52116 0.50328 0.64627 0.0
C186 C 0.47463 0.50851 0.62256 0.0
C187 C 0.50314 0.47333 0.7685 0.0
C188 C 0.45857 0.55307 0.86758 0.0
C189 C 0.4466 0.5798 0.78894 0.0
C190 C 0.45296 0.56027 0.79722 0.0
C191 C 0.45677 0.56535 0.93001 0.0
C192 C 0.45052 0.58493 0.92176 0.0
C193 C 0.44595 0.59258 0.85074 0.0
C194 C 0.46944 0.53431 0.87368 0.0
O195 O 0.51987 0.51101 0.83602 0.0
O196 O 0.54057 0.51569 0.73723 0.0
O197 O 0.51353 0.53452 0.61318 0.0
O198 O 0.50542 0.54548 0.73034 0.0
C199 C 0.5377 0.51386 0.80916 0.0
O200 O 0.55036 0.50205 0.59439 0.0
O201 O 0.52624 0.48529 0.5471 0.0
O202 O 0.48991 0.49714 0.60863 0.0
O203 O 0.47504 0.52126 0.67772 0.0
O204 O 0.48976 0.4867 0.78652 0.0
O205 O 0.5182 0.47765 0.72546 0.0
C206 C 0.50974 0.549 0.66007 0.0
O207 O 0.46409 0.52023 0.82815 0.0
O208 O 0.48858 0.53633 0.87574 0.0
C209 C 0.55647 0.46905 0.55768 0.0
C210 C 0.56784 0.42942 0.58108 0.0
C211 C 0.56843 0.44312 0.64003 0.0
C212 C 0.56267 0.46273 0.62854 0.0
C213 C 0.55739 0.45587 0.49758 0.0
C214 C 0.56303 0.43622 0.50909 0.0
C215 C 0.54533 0.48762 0.54999 0.0
H216 H 0.44298 0.58511 0.73368 0.0
H217 H 0.45446 0.55113 0.74794 0.0
H218 H 0.46133 0.56017 0.98448 0.0
H219 H 0.45054 0.59439 0.97051 0.0
H220 H 0.5723 0.43846 0.69586 0.0
H221 H 0.56186 0.47258 0.67615 0.0
H222 H 0.55238 0.46039 0.44283 0.0
H223 H 0.56213 0.42608 0.46247 0.0
Tb224 Tb 1.00363 0.49697 0.74852 0.0
Eu225 Eu 0.01732 0.52693 0.61687 0.0
C226 C 0.01401 0.4809 0.59084 0.0
C227 C 0.04889 0.50796 0.73316 0.0
C228 C 0.96934 0.46965 0.8636 0.0
C229 C 0.94347 0.44767 0.90705 0.0
C230 C 0.96354 0.4517 0.89577 0.0
C231 C 0.95495 0.48352 0.84281 0.0
C232 C 0.93499 0.4795 0.85364 0.0
C233 C 0.929 0.46155 0.8859 0.0
C234 C 0.99002 0.47319 0.84355 0.0
O235 O 0.99539 0.5269 0.785 0.0
O236 O 0.02028 0.54307 0.72582 0.0
O237 O 0.98401 0.52955 0.61849 0.0
O238 O 0.97726 0.50057 0.67973 0.0
C239 C 1.00698 0.54243 0.77869 0.0
O240 O 0.01769 0.55654 0.56856 0.0
O241 O 0.03315 0.53251 0.51348 0.0
O242 O 1.00875 0.49802 0.56288 0.0
O243 O 0.01836 0.47953 0.66198 0.0
O244 O 0.03429 0.50311 0.77802 0.0
O245 O 0.04562 0.51423 0.6648 0.0
C246 C 0.97149 0.51583 0.63983 0.0
O247 O 0.99438 0.46825 0.77546 0.0
O248 O 0.99702 0.4906 0.86044 0.0
C249 C 0.04822 0.56368 0.51304 0.0
C250 C 0.08419 0.58424 0.49942 0.0
C251 C 0.06862 0.58766 0.44888 0.0
C252 C 0.05078 0.57739 0.45555 0.0
C253 C 0.06326 0.56095 0.56581 0.0
C254 C 0.08111 0.57109 0.55899 0.0
C255 C 0.03027 0.55161 0.5167 0.0
H256 H 0.93929 0.43378 0.93255 0.0
H257 H 0.97448 0.44071 0.91103 0.0
H258 H 0.95912 0.49733 0.8166 0.0
H259 H 0.92423 0.49035 0.8354 0.0
H260 H 0.07041 0.59789 0.403 0.0
H261 H 0.0392 0.57978 0.41481 0.0
H262 H 0.06144 0.55047 0.6109 0.0
H263 H 0.09282 0.56784 0.59829 0.0
C264 C 0.1827 0.03616 0.24176 0.0
C265 C 0.19995 0.02632 0.26477 0.0
C266 C 0.16495 0.03382 0.28102 0.0
C267 C 0.14551 0.01712 0.46553 0.0
H268 H 0.09504 0.01874 0.36343 0.0
C269 C 0.07136 0.99903 0.6131 0.0
C270 C 0.05529 0.01167 0.59839 0.0
C271 C 0.08891 1.0005 0.57197 0.0
C272 C 0.10901 0.01841 0.39287 0.0
H273 H 0.212 1.00591 0.34558 0.0
H274 H 0.18099 1.00116 0.41251 0.0
H275 H 0.12554 0.02127 0.29183 0.0
H276 H 0.04531 0.03593 0.529 0.0
H277 H 0.07572 0.03829 0.45666 0.0
H278 H 0.12888 0.01394 0.56644 0.0
C279 C 0.18117 0.01116 0.36549 0.0
C280 C 0.12657 0.01992 0.3518 0.0
C281 C 0.19894 0.01366 0.32659 0.0
C282 C 0.05725 0.02581 0.54143 0.0
C283 C 0.07471 0.02714 0.49976 0.0
C284 C 0.12797 0.01541 0.50645 0.0
C285 C 0.16392 0.02139 0.3439 0.0
C286 C 0.14511 0.01938 0.38749 0.0
C287 C 0.09079 0.01454 0.51458 0.0
C288 C 0.10948 0.01611 0.47073 0.0
H289 H 0.18304 0.046 0.1942 0.0
H290 H 0.15216 0.04217 0.26294 0.0
H291 H 0.15939 0.01704 0.49554 0.0
H292 H 0.07044 0.98797 0.65656 0.0
H293 H 0.10093 0.99045 0.58449 0.0
C294 C 0.50047 0.18252 0.1795 0.0
C295 C 0.50795 0.20036 0.20809 0.0
C296 C 0.49895 0.16571 0.22488 0.0
C297 C 0.51798 0.14486 0.40444 0.0
H298 H 0.47662 0.10609 0.37316 0.0
C299 C 0.50428 0.07964 0.60773 0.0
C300 C 0.50123 0.06084 0.5759 0.0
C301 C 0.50475 0.09664 0.56317 0.0
C302 C 0.48835 0.11671 0.38224 0.0
H303 H 0.51913 0.21476 0.30715 0.0
H304 H 0.51568 0.18586 0.38736 0.0
H305 H 0.47743 0.13591 0.29686 0.0
H306 H 0.4961 0.04532 0.47187 0.0
H307 H 0.49663 0.07505 0.39427 0.0
H308 H 0.52861 0.12575 0.49093 0.0
C309 C 0.51154 0.18451 0.32932 0.0
C310 C 0.48888 0.13384 0.33825 0.0
C311 C 0.51327 0.20123 0.28364 0.0
C312 C 0.49849 0.05953 0.49832 0.0
C313 C 0.49869 0.07659 0.45384 0.0
C314 C 0.5173 0.12786 0.44895 0.0
C315 C 0.50462 0.16637 0.30048 0.0
C316 C 0.50375 0.14819 0.34844 0.0
C317 C 0.50193 0.09536 0.48566 0.0
C318 C 0.50252 0.11352 0.43831 0.0
H319 H 0.49624 0.18142 0.12143 0.0
H320 H 0.4938 0.15207 0.19993 0.0
H321 H 0.52994 0.15522 0.41329 0.0
H322 H 0.50652 0.08125 0.6672 0.0
H323 H 0.50711 0.11086 0.5896 0.0
C324 C 0.31432 0.50607 0.29486 0.0
C325 C 0.31359 0.49497 0.22866 0.0
C326 C 0.33212 0.50827 0.33402 0.0
C327 C 0.38096 0.48448 0.36036 0.0
H328 H 0.3951 0.53441 0.45243 0.0
C329 C 0.45634 0.49556 0.50992 0.0
C330 C 0.45665 0.50734 0.57462 0.0
C331 C 0.43932 0.49446 0.4654 0.0
C332 C 0.39131 0.52026 0.42798 0.0
H333 H 0.33106 0.47804 0.15018 0.0
H334 H 0.36217 0.4818 0.21847 0.0
H335 H 0.36482 0.53198 0.37944 0.0
H336 H 0.43906 0.5271 0.64318 0.0
H337 H 0.40943 0.52487 0.56695 0.0
H338 H 0.40722 0.47263 0.40983 0.0
C339 C 0.34894 0.48861 0.24081 0.0
C340 C 0.37391 0.51889 0.38584 0.0
C341 C 0.33115 0.48653 0.20142 0.0
C342 C 0.43947 0.51796 0.59357 0.0
C343 C 0.42244 0.51678 0.54936 0.0
C344 C 0.3983 0.48581 0.4029 0.0
C345 C 0.34965 0.49937 0.30801 0.0
C346 C 0.36845 0.50097 0.35158 0.0
C347 C 0.42207 0.50503 0.48449 0.0
C348 C 0.40374 0.5037 0.43763 0.0
H349 H 0.301 0.5127 0.31717 0.0
H350 H 0.33204 0.51652 0.3858 0.0
H351 H 0.37711 0.47036 0.33575 0.0
H352 H 0.4693 0.48723 0.49332 0.0
H353 H 0.43979 0.48548 0.41544 0.0
C354 C 1.00781 0.34236 0.14114 0.0
C355 C 0.02023 0.32622 0.15692 0.0
C356 C 1.00657 0.35849 0.19025 0.0
C357 C 0.03379 0.38245 0.34845 0.0
H358 H 0.98555 0.41305 0.36667 0.0
C359 C 0.02374 0.44538 0.56729 0.0
C360 C 0.01491 0.46302 0.54209 0.0
C361 C 0.02426 0.42849 0.52176 0.0
C362 C 0.99919 0.40475 0.36183 0.0
H363 H 0.04068 0.31414 0.23754 0.0
H364 H 0.0379 0.34171 0.32493 0.0
H365 H 0.98611 0.38373 0.28739 0.0
H366 H 0.99959 0.47654 0.44898 0.0
H367 H 1.00032 0.44705 0.37011 0.0
H368 H 0.04669 0.40336 0.42422 0.0
C369 C 0.0295 0.34231 0.27365 0.0
C370 C 0.99956 0.3879 0.31602 0.0
C371 C 0.0309 0.3263 0.22406 0.0
C372 C 1.00657 0.46327 0.47025 0.0
C373 C 1.00686 0.4463 0.42513 0.0
C374 C 0.03334 0.39915 0.39493 0.0
C375 C 0.01754 0.35884 0.2571 0.0
C376 C 0.01691 0.37652 0.3081 0.0
C377 C 0.01573 0.42868 0.45021 0.0
C378 C 0.01608 0.41061 0.40188 0.0
H379 H 0.99944 0.34275 0.08972 0.0
H380 H 0.9974 0.37093 0.1745 0.0
H381 H 0.04758 0.37445 0.34308 0.0
H382 H 0.03029 0.44461 0.62228 0.0
H383 H 0.03108 0.41514 0.54311 0.0
C384 C 0.83043 1.00588 0.24934 0.0
C385 C 0.8122 0.01103 0.21709 0.0
C386 C 0.84741 1.0039 0.20521 0.0
C387 C 0.86449 0.99574 0.01155 0.0
H388 H 0.91265 0.02095 0.07963 0.0
C389 C 0.93294 1.00398 0.81942 0.0
C390 C 0.95188 1.00313 0.85157 0.0
C391 C 0.91596 1.00411 0.8642 0.0
C392 C 0.89947 0.01351 0.06005 0.0
H393 H 0.79752 0.01798 0.11326 0.0
H394 H 0.82701 0.01413 0.03591 0.0
H395 H 0.88317 0.02212 0.15723 0.0
H396 H 0.9677 1.00128 0.95641 0.0
H397 H 0.93824 1.00092 0.03413 0.0
H398 H 0.88077 0.98687 0.91486 0.0
C399 C 0.82818 0.01155 0.09529 0.0
C400 C 0.8825 0.01425 0.10468 0.0
C401 C 0.81126 0.01374 0.13956 0.0
C402 C 0.95338 1.0021 0.92963 0.0
C403 C 0.93641 1.00204 0.97437 0.0
C404 C 0.88152 0.99482 0.96719 0.0
C405 C 0.84654 1.00682 0.12763 0.0
C406 C 0.86476 1.00547 0.08088 0.0
C407 C 0.91741 1.00321 0.94246 0.0
C408 C 0.89928 1.00378 0.99053 0.0
H409 H 0.83162 1.00369 0.30894 0.0
H410 H 0.86125 1.00005 0.23186 0.0
H411 H 0.85114 0.98862 0.99189 0.0
H412 H 0.93118 1.00491 0.75955 0.0
H413 H 0.9017 1.00535 0.83725 0.0
C414 C 0.5164 0.84043 0.25663 0.0
C415 C 0.50333 0.82478 0.24187 0.0
C416 C 0.51747 0.85672 0.20854 0.0
C417 C 0.50445 0.87364 0.01677 0.0
H418 H 0.50808 0.92595 0.10474 0.0
C419 C 0.49108 0.94482 0.84459 0.0
C420 C 0.50316 0.96136 0.85854 0.0
C421 C 0.49189 0.92812 0.89063 0.0
C422 C 0.50731 0.91146 0.07905 0.0
H423 H 0.48187 0.81338 0.16348 0.0
H424 H 0.48352 0.84185 0.07969 0.0
H425 H 0.5084 0.89685 0.18479 0.0
H426 H 0.52558 0.97316 0.9326 0.0
H427 H 0.52707 0.944 0.01266 0.0
H428 H 0.5032 0.88827 0.91107 0.0
C429 C 0.493 0.84164 0.1283 0.0
C430 C 0.50751 0.89471 0.12508 0.0
C431 C 0.49194 0.82535 0.17646 0.0
C432 C 0.51603 0.96075 0.92012 0.0
C433 C 0.51681 0.94403 0.96634 0.0
C434 C 0.50423 0.89039 0.97077 0.0
C435 C 0.50559 0.8577 0.14413 0.0
C436 C 0.50599 0.87554 0.09468 0.0
C437 C 0.50478 0.92745 0.95214 0.0
C438 C 0.50555 0.90956 1.00123 0.0
H439 H 0.52555 0.84021 0.30616 0.0
H440 H 0.52764 0.86857 0.22189 0.0
H441 H 0.50358 0.85916 0.99106 0.0
H442 H 0.48093 0.94471 0.79791 0.0
H443 H 0.48218 0.91581 0.87846 0.0
C444 C 0.67123 0.51784 0.28 0.0
C445 C 0.69049 0.51632 0.2512 0.0
C446 C 0.65479 0.51822 0.23253 0.0
C447 C 0.63955 0.52731 0.03672 0.0
H448 H 0.59328 0.49695 0.092 0.0
C449 C 0.57439 0.51509 0.83178 0.0
C450 C 0.55504 0.51466 0.86041 0.0
C451 C 0.59078 0.51562 0.8795 0.0
C452 C 0.60592 0.50576 0.076 0.0
H453 H 0.70743 0.51334 0.14931 0.0
H454 H 0.67879 0.51417 0.06636 0.0
H455 H 0.62192 0.4975 0.17425 0.0
H456 H 0.53788 0.51461 0.96236 0.0
H457 H 0.56639 0.51592 0.04553 0.0
H458 H 0.62354 0.5357 0.93875 0.0
C459 C 0.67642 0.51548 0.12583 0.0
C460 C 0.62242 0.50605 0.12329 0.0
C461 C 0.69288 0.51498 0.17345 0.0
C462 C 0.55254 0.51485 0.93821 0.0
C463 C 0.56895 0.51547 0.98602 0.0
C464 C 0.62301 0.52712 0.98957 0.0
C465 C 0.65712 0.51696 0.15475 0.0
C466 C 0.63949 0.5168 0.10431 0.0
C467 C 0.58835 0.51583 0.95741 0.0
C468 C 0.60594 0.51629 0.00835 0.0
H469 H 0.66888 0.51851 0.33964 0.0
H470 H 0.64021 0.51953 0.25689 0.0
H471 H 0.6523 0.53598 0.02069 0.0
H472 H 0.57695 0.51481 0.77222 0.0
H473 H 0.6054 0.51552 0.85507 0.0
C474 C 0.98447 0.68063 0.22756 0.0
C475 C 0.99983 0.69458 0.22428 0.0
C476 C 0.98388 0.66463 0.17765 0.0
C477 C 1.00366 0.64664 0.99607 0.0
H478 H 0.99128 0.59469 0.0745 0.0
C479 C 0.01838 0.5756 0.82516 0.0
C480 C 1.00505 0.55969 0.83024 0.0
C481 C 0.01672 0.59205 0.87226 0.0
C482 C 0.9945 0.6091 0.0512 0.0
H483 H 0.02624 0.70306 0.1647 0.0
H484 H 0.02523 0.67528 0.07715 0.0
H485 H 0.98998 0.62352 0.15636 0.0
H486 H 0.97944 0.54875 0.88969 0.0
H487 H 0.97635 0.57762 0.97145 0.0
H488 H 1.00817 0.63231 0.89099 0.0
C489 C 0.01357 0.67665 0.11813 0.0
C490 C 0.99376 0.62569 0.09833 0.0
C491 C 0.0142 0.69258 0.16832 0.0
C492 C 0.99001 0.56068 0.88422 0.0
C493 C 0.9883 0.57724 0.93142 0.0
C494 C 1.00432 0.63009 0.94891 0.0
C495 C 0.99855 0.66227 0.12269 0.0
C496 C 0.99851 0.64469 0.07163 0.0
C497 C 1.00161 0.59322 0.92594 0.0
C498 C 0.99996 0.61101 0.97585 0.0
H499 H 0.97312 0.68186 0.26982 0.0
H500 H 0.97192 0.65408 0.1822 0.0
H501 H 1.00708 0.66104 0.97305 0.0
H502 H 0.03026 0.57538 0.78474 0.0
H503 H 0.02752 0.60377 0.86707 0.0
C504 C 0.06851 0.23525 0.26962 0.0
C505 C 0.04989 0.24442 0.26989 0.0
C506 C 0.07294 0.22078 0.32241 0.0
C507 C 0.05069 0.18976 0.47268 0.0
H508 H 0.05493 0.14931 0.32021 0.0
C509 C 1.00648 0.11772 0.48678 0.0
C510 C 0.01299 0.10075 0.44849 0.0
C511 C 0.01721 0.13532 0.48356 0.0
C512 C 0.05425 0.16008 0.3648 0.0
H513 H 0.02285 0.24854 0.33222 0.0
H514 H 0.03033 0.2231 0.4235 0.0
H515 H 0.0659 0.18229 0.29368 0.0
H516 H 0.03629 0.08916 0.37739 0.0
H517 H 0.05559 0.1192 0.37623 0.0
H518 H 0.03837 0.16743 0.54303 0.0
C519 C 0.04161 0.22696 0.3833 0.0
C520 C 0.06065 0.17918 0.34946 0.0
C521 C 0.03727 0.24156 0.33083 0.0
C522 C 0.0308 0.10177 0.40832 0.0
C523 C 0.04181 0.1192 0.40683 0.0
C524 C 0.04457 0.17045 0.48866 0.0
C525 C 0.05861 0.21516 0.37492 0.0
C526 C 0.05803 0.19446 0.40175 0.0
C527 C 0.03502 0.13634 0.44331 0.0
C528 C 0.04533 0.15561 0.43343 0.0
H529 H 0.07855 0.23746 0.22338 0.0
H530 H 0.08636 0.21221 0.31585 0.0
H531 H 0.04859 0.20124 0.51415 0.0
H532 H 0.99313 0.11747 0.51998 0.0
H533 H 0.01122 0.14822 0.51133 0.0
C534 C 0.27012 0.94582 0.27741 0.0
C535 C 0.26916 0.9662 0.29136 0.0
C536 C 0.28083 0.93347 0.32517 0.0
C537 C 0.31406 0.93485 0.4945 0.0
H538 H 0.34818 0.9043 0.3646 0.0
C539 C 0.39539 0.924 0.56993 0.0
C540 C 0.40778 0.92996 0.51118 0.0
C541 C 0.37558 0.91926 0.5564 0.0
C542 C 0.33876 0.91264 0.40201 0.0
H543 H 0.27708 0.98962 0.36762 0.0
H544 H 0.29638 0.96856 0.44913 0.0
H545 H 0.31577 0.91395 0.32144 0.0
H546 H 0.40929 0.93452 0.3917 0.0
H547 H 0.37515 0.92648 0.36827 0.0
H548 H 0.33813 0.93547 0.57147 0.0
C549 C 0.28852 0.96164 0.4035 0.0
C550 C 0.31991 0.91797 0.37768 0.0
C551 C 0.27752 0.97386 0.35658 0.0
C552 C 0.40031 0.92973 0.4382 0.0
C553 C 0.38061 0.92503 0.42473 0.0
C554 C 0.3331 0.92985 0.51821 0.0
C555 C 0.29126 0.94146 0.38616 0.0
C556 C 0.30782 0.9303 0.42162 0.0
C557 C 0.36779 0.92039 0.48386 0.0
C558 C 0.34611 0.91984 0.47005 0.0
H559 H 0.26376 0.9397 0.22699 0.0
H560 H 0.2821 0.91793 0.31109 0.0
H561 H 0.30489 0.94369 0.53111 0.0
H562 H 0.40081 0.9237 0.6267 0.0
H563 H 0.36618 0.91548 0.60307 0.0
C564 C 0.49985 0.29864 0.38733 0.0
C565 C 0.5091 0.28194 0.35667 0.0
C566 C 0.5074 0.30751 0.45136 0.0
C567 C 0.52558 0.32576 0.58656 0.0
H568 H 0.58135 0.33341 0.54753 0.0
C569 C 0.55981 0.39954 0.65812 0.0
C570 C 0.56928 0.40781 0.59571 0.0
C571 C 0.55686 0.37912 0.66293 0.0
C572 C 0.56582 0.33139 0.5598 0.0
H573 H 0.5321 0.26006 0.373 0.0
H574 H 0.54528 0.27547 0.48607 0.0
H575 H 0.56451 0.30505 0.49439 0.0
H576 H 0.58527 0.4009 0.49441 0.0
H577 H 0.57944 0.36562 0.50065 0.0
H578 H 0.52631 0.35326 0.64458 0.0
C579 C 0.53238 0.28192 0.45988 0.0
C580 C 0.55617 0.3149 0.53018 0.0
C581 C 0.52475 0.273 0.39554 0.0
C582 C 0.57749 0.39505 0.54226 0.0
C583 C 0.57438 0.37468 0.54662 0.0
C584 C 0.53515 0.34242 0.61512 0.0
C585 C 0.52442 0.29987 0.48619 0.0
C586 C 0.53563 0.31267 0.53887 0.0
C587 C 0.56314 0.36655 0.60506 0.0
C588 C 0.55508 0.34613 0.59761 0.0
H589 H 0.48761 0.30566 0.35868 0.0
H590 H 0.50089 0.32137 0.46923 0.0
H591 H 0.50987 0.32414 0.5963 0.0
H592 H 0.55331 0.40889 0.70057 0.0
H593 H 0.54855 0.37336 0.70964 0.0
C594 C 0.24286 0.57395 0.25695 0.0
C595 C 0.24306 0.55341 0.26743 0.0
C596 C 0.23207 0.5861 0.30526 0.0
C597 C 0.19778 0.58423 0.47088 0.0
H598 H 0.16497 0.61644 0.34205 0.0
C599 C 0.11674 0.59785 0.54461 0.0
C600 C 0.10425 0.59235 0.48539 0.0
C601 C 0.13673 0.6019 0.53178 0.0
C602 C 0.17405 0.60766 0.3792 0.0
H603 H 0.23365 0.52942 0.33826 0.0
H604 H 0.21432 0.55022 0.42102 0.0
H605 H 0.19732 0.60615 0.29979 0.0
H606 H 0.10279 0.58792 0.36575 0.0
H607 H 0.13725 0.59485 0.34351 0.0
H608 H 0.17346 0.58394 0.54664 0.0
C609 C 0.2228 0.55734 0.37761 0.0
C610 C 0.19283 0.60195 0.35541 0.0
C611 C 0.23382 0.5453 0.33 0.0
C612 C 0.11185 0.59237 0.41262 0.0
C613 C 0.13173 0.59642 0.39983 0.0
C614 C 0.17883 0.58968 0.49414 0.0
C615 C 0.22088 0.57777 0.36346 0.0
C616 C 0.20443 0.58907 0.3989 0.0
C617 C 0.1446 0.60055 0.45945 0.0
C618 C 0.16629 0.60038 0.44634 0.0
H619 H 0.24987 0.58041 0.20851 0.0
H620 H 0.23134 0.6018 0.29367 0.0
H621 H 0.20656 0.57487 0.50698 0.0
H622 H 0.11124 0.59831 0.60124 0.0
H623 H 0.14618 0.6053 0.5788 0.0
C624 C 0.03822 0.78121 0.08829 0.0
C625 C 0.04576 0.7732 0.1543 0.0
C626 C 0.05021 0.79287 0.04292 0.0
C627 C 0.07649 0.81998 0.95602 0.0
H628 H 0.10433 0.85506 0.09087 0.0
C629 C 0.08678 0.90183 0.88287 0.0
C630 C 0.07972 0.91418 0.94025 0.0
C631 C 0.09143 0.882 0.89719 0.0
C632 C 0.09677 0.84537 0.05211 0.0
H633 H 0.072 0.76892 0.22108 0.0
H634 H 0.09342 0.7883 0.13961 0.0
H635 H 0.09557 0.82221 0.13187 0.0
H636 H 0.07299 0.91555 0.05833 0.0
H637 H 0.081 0.8814 0.08314 0.0
H638 H 0.0758 0.84416 0.87945 0.0
C639 C 0.0781 0.78634 0.12392 0.0
C640 C 0.09195 0.82628 0.07521 0.0
C641 C 0.06595 0.77505 0.17017 0.0
C642 C 0.07867 0.90663 0.01295 0.0
C643 C 0.08333 0.88692 0.02723 0.0
C644 C 0.08101 0.83924 0.9334 0.0
C645 C 0.07006 0.79655 0.06255 0.0
C646 C 0.08063 0.81376 0.02921 0.0
C647 C 0.08918 0.87418 0.96922 0.0
C648 C 0.09009 0.85252 0.98313 0.0
H649 H 0.0226 0.78009 0.07563 0.0
H650 H 0.04329 0.80048 0.99675 0.0
H651 H 0.06839 0.81053 0.91802 0.0
H652 H 0.08808 0.9073 0.8264 0.0
H653 H 0.09612 0.87265 0.85145 0.0
C654 C 0.70898 0.01184 0.05756 0.0
C655 C 0.72594 0.02038 0.08882 0.0
C656 C 0.69974 0.0206 0.99662 0.0
C657 C 0.6827 0.03967 0.86098 0.0
H658 H 0.67316 0.09502 0.90473 0.0
C659 C 0.60936 0.07166 0.7789 0.0
C660 C 0.59993 0.0803 0.84085 0.0
C661 C 0.62993 0.06999 0.7767 0.0
C662 C 0.67572 0.07961 0.89115 0.0
H663 H 0.74749 0.04386 0.07759 0.0
H664 H 0.7313 0.05927 0.97016 0.0
H665 H 0.70096 0.0782 0.96245 0.0
H666 H 0.60486 0.09657 0.9433 0.0
H667 H 0.64038 0.09274 0.94193 0.0
H668 H 0.65631 0.04031 0.79669 0.0
C669 C 0.72506 0.04588 0.99336 0.0
C670 C 0.69188 0.07 0.92352 0.0
C671 C 0.73438 0.03701 0.05447 0.0
C672 C 0.61163 0.0893 0.8959 0.0
C673 C 0.63215 0.08735 0.89435 0.0
C674 C 0.66639 0.04916 0.82963 0.0
C675 C 0.70724 0.03814 0.96541 0.0
C676 C 0.69473 0.04958 0.91268 0.0
C677 C 0.64148 0.07658 0.83701 0.0
C678 C 0.66193 0.06891 0.84842 0.0
H679 H 0.70233 0.99887 0.08252 0.0
H680 H 0.68592 0.01432 0.97748 0.0
H681 H 0.68486 0.02406 0.84971 0.0
H682 H 0.60089 0.06462 0.73508 0.0
H683 H 0.63662 0.06216 0.73043 0.0
C684 C 0.47667 0.74994 0.06806 0.0
C685 C 0.4931 0.74187 0.10495 0.0
C686 C 0.46924 0.74079 0.00378 0.0
C687 C 0.44791 0.70673 0.92717 0.0
H688 H 0.48104 0.67304 0.80494 0.0
C689 C 0.43342 0.62543 0.89582 0.0
C690 C 0.44301 0.61422 0.84072 0.0
C691 C 0.43474 0.64603 0.89584 0.0
C692 C 0.47126 0.68257 0.83652 0.0
H693 H 0.51575 0.71929 0.1009 0.0
H694 H 0.50293 0.70329 0.99008 0.0
H695 H 0.49486 0.70257 0.86053 0.0
H696 H 0.4596 0.61607 0.73735 0.0
H697 H 0.46112 0.65196 0.73559 0.0
H698 H 0.4244 0.68648 0.90454 0.0
C699 C 0.49569 0.71664 0.00938 0.0
C700 C 0.47934 0.69946 0.86926 0.0
C701 C 0.50297 0.72566 0.07348 0.0
C702 C 0.45207 0.62418 0.78099 0.0
C703 C 0.45316 0.64483 0.78043 0.0
C704 C 0.43972 0.69 0.89333 0.0
C705 C 0.47827 0.72358 0.97537 0.0
C706 C 0.46817 0.71081 0.91964 0.0
C707 C 0.4455 0.65596 0.84014 0.0
C708 C 0.45172 0.67687 0.85248 0.0
H709 H 0.46886 0.76248 0.09156 0.0
H710 H 0.4559 0.74659 0.97853 0.0
H711 H 0.43877 0.71525 0.96493 0.0
H712 H 0.42588 0.61825 0.94158 0.0
H713 H 0.42866 0.65391 0.94309 0.0
C714 C 0.76613 0.4758 0.09512 0.0
C715 C 0.77078 0.47198 0.17008 0.0
C716 C 0.77629 0.46603 0.03807 0.0
C717 C 0.82018 0.4321 0.00693 0.0
H718 H 0.83642 0.47604 0.88309 0.0
C719 C 0.89932 0.43903 0.88313 0.0
C720 C 0.90768 0.45769 0.89804 0.0
C721 C 0.87904 0.43587 0.89329 0.0
C722 C 0.83201 0.46351 0.91677 0.0
H723 H 0.78696 0.45235 0.2436 0.0
H724 H 0.80568 0.43662 0.14579 0.0
H725 H 0.8045 0.47693 0.94213 0.0
H726 H 0.90145 0.48739 0.93749 0.0
H727 H 0.86643 0.48196 0.95523 0.0
H728 H 0.84895 0.41989 0.98716 0.0
C729 C 0.79422 0.44692 0.12965 0.0
C730 C 0.81343 0.46382 0.95005 0.0
C731 C 0.78368 0.45627 0.18641 0.0
C732 C 0.89543 0.473 0.92381 0.0
C733 C 0.8753 0.46989 0.93363 0.0
C734 C 0.83898 0.43198 0.9745 0.0
C735 C 0.79172 0.45276 0.05494 0.0
C736 C 0.80777 0.44877 0.99983 0.0
C737 C 0.86681 0.45136 0.9181 0.0
C738 C 0.84549 0.44835 0.93323 0.0
H739 H 0.75599 0.48754 0.08014 0.0
H740 H 0.77324 0.47025 0.98104 0.0
H741 H 0.81606 0.41983 0.04237 0.0
H742 H 0.9084 0.42698 0.86266 0.0
H743 H 0.87291 0.42142 0.88125 0.0
C744 C 0.04257 0.21342 1.00081 0.0
C745 C 0.02636 0.22545 0.02011 0.0
C746 C 0.03987 0.19529 0.96438 0.0
C747 C 1.00108 0.15681 0.9328 0.0
H748 H 0.04222 0.13267 0.81281 0.0
C749 C 0.99263 0.07968 0.79023 0.0
C750 C 1.0086 0.06643 0.79767 0.0
C751 C 0.99432 0.09947 0.81298 0.0
C752 C 0.03064 0.13915 0.84662 0.0
H753 H 0.9946 0.22831 0.01115 0.0
H754 H 0.98984 0.19705 0.9443 0.0
H755 H 0.04552 0.16701 0.85245 0.0
H756 H 0.03899 0.0639 0.83461 0.0
H757 H 0.04204 0.09856 0.87311 0.0
H758 H 0.98609 0.12889 0.92532 0.0
C759 C 1.0047 0.20133 0.95966 0.0
C760 C 0.03252 0.15891 0.86969 0.0
C761 C 1.00743 0.2195 0.99682 0.0
C762 C 0.02636 0.07361 0.82825 0.0
C763 C 0.02815 0.09353 0.84988 0.0
C764 C 0.99908 0.13712 0.90873 0.0
C765 C 0.02084 0.18861 0.945 0.0
C766 C 0.01793 0.16804 0.91425 0.0
C767 C 0.01213 0.10672 0.8427 0.0
C768 C 0.01396 0.12793 0.8662 0.0
H769 H 0.05738 0.21755 0.01763 0.0
H770 H 0.05274 0.18609 0.95519 0.0
H771 H 0.98964 0.16297 0.96798 0.0
H772 H 0.9787 0.07474 0.76701 0.0
H773 H 0.98173 0.10922 0.80614 0.0
C774 C 0.30037 0.98792 0.03382 0.0
C775 C 0.29036 1.00362 0.06894 0.0
C776 C 0.31754 0.99127 0.9925 0.0
C777 C 0.35869 0.02705 0.9754 0.0
H778 H 0.373 0.99362 0.80819 0.0
C779 C 0.4397 0.01934 0.8735 0.0
C780 C 0.44334 0.01637 0.7971 0.0
C781 C 0.42033 0.01962 0.90132 0.0
C782 C 0.36925 1.00331 0.85415 0.0
H783 H 0.29011 0.03536 0.085 0.0
H784 H 0.32002 0.04138 0.01123 0.0
H785 H 0.33997 0.9915 0.86068 0.0
H786 H 0.4292 0.01176 0.68995 0.0
H787 H 0.39557 0.01265 0.73803 0.0
H788 H 0.38793 0.03903 0.96819 0.0
C789 C 0.31471 0.02635 0.01686 0.0
C790 C 0.35028 1.00191 0.885 0.0
C791 C 0.29741 0.02297 0.05831 0.0
C792 C 0.42704 0.01402 0.74915 0.0
C793 C 0.40768 0.01439 0.77692 0.0
C794 C 0.37766 0.0285 0.94434 0.0
C795 C 0.32527 0.01047 0.9847 0.0
C796 C 0.3448 0.01351 0.94693 0.0
C797 C 0.404 0.01703 0.85357 0.0
C798 C 0.38335 0.01644 0.88392 0.0
H799 H 0.29528 0.97283 0.04063 0.0
H800 H 0.32523 0.97859 0.96955 0.0
H801 H 0.35517 0.03612 0.02336 0.0
H802 H 0.45183 0.02112 0.9123 0.0
H803 H 0.41823 0.02138 0.96076 0.0
C804 C 0.48999 0.30437 0.03494 0.0
C805 C 0.50433 0.30188 0.09104 0.0
C806 C 0.48965 0.32171 0.99146 0.0
C807 C 0.50265 0.37398 0.00861 0.0
H808 H 0.49823 0.3775 0.79369 0.0
C809 C 0.48909 0.44867 0.85941 0.0
C810 C 0.50161 0.45287 0.79896 0.0
C811 C 0.48845 0.42962 0.89028 0.0
C812 C 0.49944 0.37674 0.85379 0.0
H813 H 0.53055 0.31487 0.14046 0.0
H814 H 0.52968 0.34496 0.06625 0.0
H815 H 0.49947 0.34487 0.85395 0.0
H816 H 0.52284 0.43998 0.72223 0.0
H817 H 0.52142 0.40674 0.77544 0.0
H818 H 0.50258 0.40567 0.00911 0.0
C819 C 0.51853 0.33376 0.05653 0.0
C820 C 0.50003 0.35806 0.88822 0.0
C821 C 0.51901 0.31648 0.09904 0.0
C822 C 0.51307 0.43736 0.76895 0.0
C823 C 0.51219 0.41824 0.79912 0.0
C824 C 0.50172 0.39255 0.97448 0.0
C825 C 0.50354 0.33689 0.00377 0.0
C826 C 0.50189 0.3565 0.96604 0.0
C827 C 0.50008 0.41419 0.86085 0.0
C828 C 0.50025 0.39422 0.89662 0.0
H829 H 0.47846 0.29346 0.0274 0.0
H830 H 0.47794 0.32369 0.95098 0.0
H831 H 0.50395 0.37327 0.06872 0.0
H832 H 0.48006 0.46019 0.884 0.0
H833 H 0.47884 0.42697 0.93743 0.0
C834 C 0.21199 0.53447 0.00713 0.0
C835 C 0.22235 0.51841 0.03817 0.0
C836 C 0.19493 0.53148 0.96463 0.0
C837 C 0.15476 0.49494 0.93586 0.0
H838 H 0.13942 0.53154 0.78008 0.0
C839 C 0.07353 0.50213 0.83631 0.0
C840 C 0.06963 0.5069 0.76142 0.0
C841 C 0.09293 0.50188 0.86385 0.0
C842 C 0.14347 0.52096 0.82271 0.0
H843 H 0.22337 0.48647 0.04544 0.0
H844 H 0.19369 0.48111 0.96939 0.0
H845 H 0.17237 0.53346 0.83347 0.0
H846 H 0.0834 0.51482 0.65653 0.0
H847 H 0.11714 0.51396 0.70392 0.0
H848 H 0.12594 0.48224 0.92418 0.0
C849 C 0.1986 0.49612 0.97932 0.0
C850 C 0.16239 0.52224 0.8542 0.0
C851 C 0.21578 0.49915 0.02207 0.0
C852 C 0.08575 0.51113 0.71457 0.0
C853 C 0.10518 0.51078 0.74202 0.0
C854 C 0.13585 0.49359 0.90406 0.0
C855 C 0.18767 0.5123 0.95132 0.0
C856 C 0.16823 0.5095 0.91225 0.0
C857 C 0.10908 0.50629 0.8173 0.0
C858 C 0.12976 0.5068 0.84781 0.0
H859 H 0.21671 0.54951 0.01805 0.0
H860 H 0.18695 0.54437 0.94509 0.0
H861 H 0.15855 0.48494 0.98074 0.0
H862 H 0.06155 0.49889 0.87434 0.0
H863 H 0.09516 0.4987 0.92234 0.0
C864 C 0.02586 0.80208 0.41814 0.0
C865 C 0.00993 0.79243 0.38315 0.0
C866 C 0.02293 0.8193 0.46016 0.0
C867 C 0.98727 0.86093 0.48028 0.0
H868 H 0.02268 0.87619 0.64011 0.0
C869 C 0.99478 0.94257 0.57449 0.0
C870 C 0.99901 0.94696 0.64953 0.0
C871 C 0.99459 0.92298 0.54869 0.0
C872 C 0.01243 0.87219 0.59629 0.0
H873 H 0.97817 0.79281 0.36909 0.0
H874 H 0.97287 0.82258 0.4446 0.0
H875 H 0.02435 0.84288 0.5892 0.0
H876 H 1.00613 0.93383 0.75641 0.0
H877 H 1.00535 0.89969 0.71196 0.0
H878 H 0.97508 0.89009 0.48841 0.0
C879 C 0.98779 0.81708 0.43788 0.0
C880 C 0.01358 0.85303 0.56618 0.0
C881 C 0.99077 0.79979 0.39548 0.0
C882 C 1.00284 0.9311 0.69824 0.0
C883 C 1.00252 0.91144 0.67247 0.0
C884 C 0.98603 0.88003 0.51073 0.0
C885 C 1.00391 0.82743 0.46918 0.0
C886 C 1.00127 0.84718 0.50672 0.0
C887 C 0.99849 0.90705 0.59711 0.0
C888 C 0.99884 0.88613 0.56835 0.0
H889 H 0.04083 0.79676 0.41033 0.0
H890 H 0.0358 0.82675 0.4824 0.0
H891 H 0.97763 0.8572 0.43423 0.0
H892 H 0.9919 0.95431 0.53496 0.0
H893 H 0.99181 0.92041 0.49007 0.0
C894 C 0.6964 0.98763 0.33829 0.0
C895 C 0.71157 1.00145 0.35017 0.0
C896 C 0.6798 0.98718 0.38467 0.0
C897 C 0.65 0.01998 0.50403 0.0
H898 H 0.62289 0.97135 0.55476 0.0
C899 C 0.57503 0.02017 0.66292 0.0
C900 C 0.56079 1.0062 0.64042 0.0
C901 C 0.59449 0.01918 0.63608 0.0
C902 C 0.63012 0.98511 0.54049 0.0
H903 H 0.72151 0.02536 0.42102 0.0
H904 H 0.69241 0.02459 0.50297 0.0
H905 H 0.65528 0.9699 0.49575 0.0
H906 H 0.55606 0.98021 0.57172 0.0
H907 H 0.58966 0.97872 0.524 0.0
H908 H 0.62464 0.03521 0.54686 0.0
C909 C 0.69338 0.01407 0.45756 0.0
C910 C 0.64879 0.98426 0.50685 0.0
C911 C 0.71016 0.01436 0.41136 0.0
C912 C 0.56658 0.99118 0.59068 0.0
C913 C 0.58599 0.99024 0.56363 0.0
C914 C 0.63126 0.02084 0.53741 0.0
C915 C 0.67778 1.00073 0.44381 0.0
C916 C 0.65887 1.00167 0.48701 0.0
C917 C 0.60026 1.00424 0.58575 0.0
C918 C 0.62088 1.0034 0.55502 0.0
H919 H 0.697 0.97771 0.29086 0.0
H920 H 0.66806 0.97687 0.37164 0.0
H921 H 0.65716 0.0337 0.48876 0.0
H922 H 0.57119 0.03192 0.70143 0.0
H923 H 0.60504 0.03008 0.65535 0.0
C924 C 0.48814 0.7122 0.37968 0.0
C925 C 0.50484 0.72423 0.36929 0.0
C926 C 0.48921 0.69503 0.42298 0.0
C927 C 0.52515 0.65729 0.48199 0.0
H928 H 0.48154 0.63801 0.6015 0.0
C929 C 0.51734 0.57462 0.56214 0.0
C930 C 0.51026 0.56991 0.6336 0.0
C931 C 0.51747 0.59425 0.53696 0.0
C932 C 0.49396 0.64319 0.56893 0.0
H933 H 0.53561 0.72807 0.39853 0.0
H934 H 0.53756 0.698 0.47487 0.0
H935 H 0.48038 0.67146 0.55057 0.0
H936 H 0.49758 0.5824 0.73438 0.0
H937 H 0.4979 0.61655 0.69059 0.0
H938 H 0.53868 0.629 0.49986 0.0
C939 C 0.5236 0.70184 0.44908 0.0
C940 C 0.49322 0.66236 0.53918 0.0
C941 C 0.52245 0.71919 0.40618 0.0
C942 C 0.50327 0.58541 0.67915 0.0
C943 C 0.50331 0.60504 0.6538 0.0
C944 C 0.52584 0.63808 0.51135 0.0
C945 C 0.50709 0.68928 0.45663 0.0
C946 C 0.5087 0.66961 0.49449 0.0
C947 C 0.51041 0.60976 0.58231 0.0
C948 C 0.51015 0.63065 0.55444 0.0
H949 H 0.47439 0.71567 0.35159 0.0
H950 H 0.47624 0.68572 0.4268 0.0
H951 H 0.53727 0.66224 0.44733 0.0
H952 H 0.52276 0.56311 0.52534 0.0
H953 H 0.52278 0.59723 0.48119 0.0
C954 C 0.80319 0.52894 0.37406 0.0
C955 C 0.79146 0.5122 0.38752 0.0
C956 C 0.8216 0.53113 0.40948 0.0
C957 C 0.86051 0.49967 0.49576 0.0
H958 H 0.88471 0.54965 0.54926 0.0
C959 C 0.93676 0.50249 0.63993 0.0
C960 C 0.95032 0.51699 0.61649 0.0
C961 C 0.91702 0.50303 0.6166 0.0
C962 C 0.87823 0.53557 0.53401 0.0
H963 H 0.78929 0.48511 0.4508 0.0
H964 H 0.82082 0.48924 0.51505 0.0
H965 H 0.85059 0.54904 0.5041 0.0
H966 H 0.95336 0.54371 0.55077 0.0
H967 H 0.91892 0.54454 0.50947 0.0
H968 H 0.88805 0.48618 0.52495 0.0
C969 C 0.81619 0.50053 0.47598 0.0
C970 C 0.85862 0.53522 0.50812 0.0
C971 C 0.79793 0.49829 0.4402 0.0
C972 C 0.9434 0.53227 0.56999 0.0
C973 C 0.92358 0.53282 0.5466 0.0
C974 C 0.88002 0.50002 0.52172 0.0
C975 C 0.82868 0.51658 0.45909 0.0
C976 C 0.84943 0.51723 0.48875 0.0
C977 C 0.91014 0.51807 0.56895 0.0
C978 C 0.88921 0.51795 0.54138 0.0
H979 H 0.79875 0.53963 0.33235 0.0
H980 H 0.83076 0.54362 0.39448 0.0
H981 H 0.85427 0.48555 0.4796 0.0
H982 H 0.9414 0.49055 0.67615 0.0
H983 H 0.90709 0.49162 0.63622 0.0
loop_
_geom_bond_atom_site_label_1
_geom_bond_atom_site_label_2
_geom_bond_distance
_geom_bond_site_symmetry_2
_ccdc_geom_bond_type
H0 C7 0.929 . S
H1 C10 0.930 . S
H2 C12 0.929 . S
H3 C4 0.969 . S
C4 H3 0.969 . S
C4 O5 1.550 . S
C4 H6 0.973 . S
O5 C4 1.550 . S
O5 C11 1.412 . S
H6 C4 0.973 . S
C7 H0 0.929 . S
C7 C8 1.400 . S
C7 C9 1.364 . S
C8 C7 1.400 . S
C8 C12 1.377 . S
C9 C7 1.364 . S
C9 C10 1.374 . S
C10 H1 0.930 . S
C10 C9 1.374 . S
C10 C11 1.383 . S
C11 O5 1.412 . S
C11 C10 1.383 . S
C11 C12 1.394 . S
C12 H2 0.929 . S
C12 C8 1.377 . S
C12 C11 1.394 . S
H13 C20 0.928 . S
H14 C23 0.930 . S
H15 C25 0.928 1_655 S
H16 C17 0.969 . S
C17 H16 0.969 . S
C17 O18 1.550 1_455 S
C17 H19 0.973 1_455 S
O18 C17 1.550 1_655 S
O18 C24 1.406 1_655 S
H19 C17 0.973 1_655 S
C20 H13 0.928 . S
C20 C21 1.400 1_655 S
C20 C22 1.364 1_655 S
C21 C20 1.400 1_455 S
C21 C25 1.377 . S
C22 C20 1.364 1_455 S
C22 C23 1.374 1_455 S
C23 H14 0.930 . S
C23 C22 1.374 1_655 S
C23 C24 1.382 1_655 S
C24 O18 1.406 1_455 S
C24 C23 1.382 1_455 S
C24 C25 1.394 . S
C25 H15 0.928 1_455 S
C25 C21 1.377 . S
C25 C24 1.394 . S
H26 C33 0.928 . S
H27 C36 0.930 . S
H28 C38 0.928 1_565 S
H29 C30 0.969 . S
C30 H29 0.969 . S
C30 O31 1.550 1_545 S
C30 H32 0.973 1_545 S
O31 C30 1.550 1_565 S
O31 C37 1.406 1_565 S
H32 C30 0.973 1_565 S
C33 H26 0.928 . S
C33 C34 1.400 1_565 S
C33 C35 1.364 1_565 S
C34 C33 1.400 1_545 S
C34 C38 1.377 . S
C35 C33 1.364 1_545 S
C35 C36 1.374 1_545 S
C36 H27 0.930 . S
C36 C35 1.374 1_565 S
C36 C37 1.382 1_565 S
C37 O31 1.406 1_545 S
C37 C36 1.382 1_545 S
C37 C38 1.394 . S
C38 H28 0.928 1_545 S
C38 C34 1.377 . S
C38 C37 1.394 . S
H39 C46 0.929 . S
H40 C49 0.930 . S
H41 C51 0.929 . S
H42 C43 0.969 . S
C43 H42 0.969 . S
C43 O44 1.550 . S
C43 H45 0.973 . S
O44 C43 1.550 . S
O44 C50 1.412 . S
H45 C43 0.973 . S
C46 H39 0.929 . S
C46 C47 1.400 . S
C46 C48 1.364 . S
C47 C46 1.400 . S
C47 C51 1.377 . S
C48 C46 1.364 . S
C48 C49 1.374 . S
C49 H40 0.930 . S
C49 C48 1.374 . S
C49 C50 1.383 . S
C50 O44 1.412 . S
C50 C49 1.383 . S
C50 C51 1.394 . S
C51 H41 0.929 . S
C51 C47 1.377 . S
C51 C50 1.394 . S
H52 C59 0.929 . S
H53 C62 0.930 . S
H54 C64 0.929 . S
H55 C56 0.969 . S
C56 H55 0.969 . S
C56 O57 1.550 . S
C56 H58 0.973 . S
O57 C56 1.550 . S
O57 C63 1.412 . S
H58 C56 0.973 . S
C59 H52 0.929 . S
C59 C60 1.400 1_554 S
C59 C61 1.364 . S
C60 C59 1.400 1_556 S
C60 C64 1.377 . S
C61 C59 1.364 . S
C61 C62 1.374 . S
C62 H53 0.930 . S
C62 C61 1.374 . S
C62 C63 1.383 . S
C63 O57 1.412 . S
C63 C62 1.383 . S
C63 C64 1.394 1_554 S
C64 H54 0.929 . S
C64 C60 1.377 . S
C64 C63 1.394 1_556 S
H65 C72 0.929 1_655 S
H66 C75 0.930 . S
H67 C77 0.928 1_655 S
H68 C69 0.969 . S
C69 H68 0.969 . S
C69 O70 1.550 1_455 S
C69 H71 0.973 1_455 S
O70 C69 1.550 1_655 S
O70 C76 1.402 1_655 S
H71 C69 0.973 1_655 S
C72 H65 0.929 1_455 S
C72 C73 1.400 1_554 S
C72 C74 1.364 . S
C73 C72 1.400 1_556 S
C73 C77 1.377 . S
C74 C72 1.364 . S
C74 C75 1.374 1_455 S
C75 H66 0.930 . S
C75 C74 1.374 1_655 S
C75 C76 1.382 1_655 S
C76 O70 1.402 1_455 S
C76 C75 1.382 1_455 S
C76 C77 1.394 1_554 S
C77 H67 0.928 1_455 S
C77 C73 1.377 . S
C77 C76 1.394 1_556 S
H78 C85 0.929 1_565 S
H79 C88 0.930 . S
H80 C90 0.928 1_565 S
H81 C82 0.969 . S
C82 H81 0.969 . S
C82 O83 1.550 1_545 S
C82 H84 0.973 1_545 S
O83 C82 1.550 1_565 S
O83 C89 1.402 1_565 S
H84 C82 0.973 1_565 S
C85 H78 0.929 1_545 S
C85 C86 1.400 1_554 S
C85 C87 1.364 . S
C86 C85 1.400 1_556 S
C86 C90 1.377 . S
C87 C85 1.364 . S
C87 C88 1.374 1_545 S
C88 H79 0.930 . S
C88 C87 1.374 1_565 S
C88 C89 1.382 1_565 S
C89 O83 1.402 1_545 S
C89 C88 1.382 1_545 S
C89 C90 1.394 1_554 S
C90 H80 0.928 1_545 S
C90 C86 1.377 . S
C90 C89 1.394 1_556 S
H91 C98 0.929 . S
H92 C101 0.930 . S
H93 C103 0.929 . S
H94 C95 0.969 . S
C95 H94 0.969 . S
C95 O96 1.550 . S
C95 H97 0.973 . S
O96 C95 1.550 . S
O96 C102 1.412 . S
H97 C95 0.973 . S
C98 H91 0.929 . S
C98 C99 1.400 1_554 S
C98 C100 1.364 . S
C99 C98 1.400 1_556 S
C99 C103 1.377 . S
C100 C98 1.364 . S
C100 C101 1.374 . S
C101 H92 0.930 . S
C101 C100 1.374 . S
C101 C102 1.383 . S
C102 O96 1.412 . S
C102 C101 1.383 . S
C102 C103 1.394 1_554 S
C103 H93 0.929 . S
C103 C99 1.377 . S
C103 C102 1.394 1_556 S
Tb104 C114 2.825 . S
Tb104 O115 2.347 1_455 S
Tb104 O118 2.366 . S
Tb104 O123 2.418 . S
Tb104 O124 2.384 1_565 S
Tb104 O127 2.479 . S
Tb104 O128 2.471 . S
Eu105 O116 2.418 . S
Eu105 O117 2.384 1_545 S
Eu105 O120 2.479 . S
Eu105 O121 2.471 . S
Eu105 O122 2.347 1_655 S
Eu105 O125 2.366 . S
Eu105 C135 2.825 . S
C106 O122 1.259 1_565 S
C106 O123 1.265 . S
C107 O124 1.255 . S
C107 O125 1.265 1_455 S
C108 C110 1.380 . S
C108 C111 1.374 . S
C108 C114 1.507 . S
C109 C110 1.384 . S
C109 C113 1.387 . S
C109 H136 0.930 . S
C110 C108 1.380 . S
C110 C109 1.384 . S
C110 H137 0.931 . S
C111 C108 1.374 . S
C111 C112 1.390 . S
C111 H138 0.930 1_455 S
C112 C111 1.390 . S
C112 C113 1.391 . S
C112 H139 0.930 1_455 S
C113 C109 1.387 . S
C113 C112 1.391 . S
C114 Tb104 2.825 . S
C114 C108 1.507 . S
C114 O127 1.238 . S
C114 O128 1.247 . S
O115 Tb104 2.347 1_655 S
O115 C119 1.259 1_565 S
O116 Eu105 2.418 . S
O116 C119 1.265 . S
O117 Eu105 2.384 1_565 S
O117 C126 1.255 . S
O118 Tb104 2.366 . S
O118 C126 1.265 1_455 S
C119 O115 1.259 1_545 S
C119 O116 1.265 . S
O120 Eu105 2.479 . S
O120 C135 1.238 . S
O121 Eu105 2.471 . S
O121 C135 1.247 . S
O122 Eu105 2.347 1_455 S
O122 C106 1.259 1_545 S
O123 Tb104 2.418 . S
O123 C106 1.265 . S
O124 Tb104 2.384 1_545 S
O124 C107 1.255 . S
O125 Eu105 2.366 . S
O125 C107 1.265 1_655 S
C126 O117 1.255 . S
C126 O118 1.265 1_655 S
O127 Tb104 2.479 . S
O127 C114 1.238 . S
O128 Tb104 2.471 . S
O128 C114 1.247 . S
C129 C132 1.380 . S
C129 C133 1.374 . S
C129 C135 1.507 . S
C130 C131 1.387 . S
C130 C134 1.391 . S
C131 C130 1.387 . S
C131 C132 1.384 . S
C131 H140 0.930 . S
C132 C129 1.380 . S
C132 C131 1.384 . S
C132 H141 0.931 . S
C133 C129 1.374 . S
C133 C134 1.390 . S
C133 H142 0.930 1_655 S
C134 C130 1.391 . S
C134 C133 1.390 . S
C134 H143 0.930 1_655 S
C135 Eu105 2.825 . S
C135 O120 1.238 . S
C135 O121 1.247 . S
C135 C129 1.507 . S
H136 C109 0.930 . S
H137 C110 0.931 . S
H138 C111 0.930 1_655 S
H139 C112 0.930 1_655 S
H140 C131 0.930 . S
H141 C132 0.931 . S
H142 C133 0.930 1_455 S
H143 C134 0.930 1_455 S
Tb144 C154 2.825 . S
Tb144 O155 2.347 1_545 S
Tb144 O158 2.366 . S
Tb144 O163 2.418 . S
Tb144 O164 2.384 . S
Tb144 O167 2.479 . S
Tb144 O168 2.471 . S
Eu145 O156 2.418 . S
Eu145 O157 2.384 . S
Eu145 O160 2.479 . S
Eu145 O161 2.471 . S
Eu145 O162 2.347 1_565 S
Eu145 O165 2.366 . S
Eu145 C175 2.825 . S
C146 O162 1.259 . S
C146 O163 1.265 . S
C147 O164 1.255 . S
C147 O165 1.265 1_545 S
C148 C150 1.380 . S
C148 C151 1.374 . S
C148 C154 1.507 . S
C149 C150 1.384 . S
C149 C153 1.387 . S
C149 H176 0.930 . S
C150 C148 1.380 . S
C150 C149 1.384 . S
C150 H177 0.931 . S
C151 C148 1.374 . S
C151 C152 1.390 . S
C151 H178 0.930 1_545 S
C152 C151 1.390 . S
C152 C153 1.391 . S
C152 H179 0.930 1_545 S
C153 C149 1.387 . S
C153 C152 1.391 . S
C154 Tb144 2.825 . S
C154 C148 1.507 . S
C154 O167 1.238 . S
C154 O168 1.247 . S
O155 Tb144 2.347 1_565 S
O155 C159 1.259 . S
O156 Eu145 2.418 . S
O156 C159 1.265 . S
O157 Eu145 2.384 . S
O157 C166 1.255 . S
O158 Tb144 2.366 . S
O158 C166 1.265 1_545 S
C159 O155 1.259 . S
C159 O156 1.265 . S
O160 Eu145 2.479 . S
O160 C175 1.238 . S
O161 Eu145 2.471 . S
O161 C175 1.247 . S
O162 Eu145 2.347 1_545 S
O162 C146 1.259 . S
O163 Tb144 2.418 . S
O163 C146 1.265 . S
O164 Tb144 2.384 . S
O164 C147 1.255 . S
O165 Eu145 2.366 . S
O165 C147 1.265 1_565 S
C166 O157 1.255 . S
C166 O158 1.265 1_565 S
O167 Tb144 2.479 . S
O167 C154 1.238 . S
O168 Tb144 2.471 . S
O168 C154 1.247 . S
C169 C172 1.380 . S
C169 C173 1.374 . S
C169 C175 1.507 . S
C170 C171 1.387 . S
C170 C174 1.391 . S
C171 C170 1.387 . S
C171 C172 1.384 . S
C171 H180 0.930 . S
C172 C169 1.380 . S
C172 C171 1.384 . S
C172 H181 0.931 . S
C173 C169 1.374 . S
C173 C174 1.390 . S
C173 H182 0.930 1_565 S
C174 C170 1.391 . S
C174 C173 1.390 . S
C174 H183 0.930 1_565 S
C175 Eu145 2.825 . S
C175 O160 1.238 . S
C175 O161 1.247 . S
C175 C169 1.507 . S
H176 C149 0.930 . S
H177 C150 0.931 . S
H178 C151 0.930 1_565 S
H179 C152 0.930 1_565 S
H180 C171 0.930 . S
H181 C172 0.931 . S
H182 C173 0.930 1_545 S
H183 C174 0.930 1_545 S
Tb184 C194 2.825 . S
Tb184 O195 2.347 . S
Tb184 O198 2.366 . S
Tb184 O203 2.418 . S
Tb184 O204 2.384 . S
Tb184 O207 2.479 . S
Tb184 O208 2.471 . S
Eu185 O196 2.418 . S
Eu185 O197 2.384 . S
Eu185 O200 2.479 . S
Eu185 O201 2.471 . S
Eu185 O202 2.347 . S
Eu185 O205 2.366 . S
Eu185 C215 2.825 . S
C186 O202 1.259 . S
C186 O203 1.265 . S
C187 O204 1.255 . S
C187 O205 1.265 . S
C188 C190 1.380 . S
C188 C191 1.374 . S
C188 C194 1.507 . S
C189 C190 1.384 . S
C189 C193 1.387 . S
C189 H216 0.930 . S
C190 C188 1.380 . S
C190 C189 1.384 . S
C190 H217 0.931 . S
C191 C188 1.374 . S
C191 C192 1.390 . S
C191 H218 0.930 . S
C192 C191 1.390 . S
C192 C193 1.391 . S
C192 H219 0.930 . S
C193 C189 1.387 . S
C193 C192 1.391 . S
C194 Tb184 2.825 . S
C194 C188 1.507 . S
C194 O207 1.238 . S
C194 O208 1.247 . S
O195 Tb184 2.347 . S
O195 C199 1.259 . S
O196 Eu185 2.418 . S
O196 C199 1.265 . S
O197 Eu185 2.384 . S
O197 C206 1.255 . S
O198 Tb184 2.366 . S
O198 C206 1.265 . S
C199 O195 1.259 . S
C199 O196 1.265 . S
O200 Eu185 2.479 . S
O200 C215 1.238 . S
O201 Eu185 2.471 . S
O201 C215 1.247 . S
O202 Eu185 2.347 . S
O202 C186 1.259 . S
O203 Tb184 2.418 . S
O203 C186 1.265 . S
O204 Tb184 2.384 . S
O204 C187 1.255 . S
O205 Eu185 2.366 . S
O205 C187 1.265 . S
C206 O197 1.255 . S
C206 O198 1.265 . S
O207 Tb184 2.479 . S
O207 C194 1.238 . S
O208 Tb184 2.471 . S
O208 C194 1.247 . S
C209 C212 1.380 . S
C209 C213 1.374 . S
C209 C215 1.507 . S
C210 C211 1.387 . S
C210 C214 1.391 . S
C211 C210 1.387 . S
C211 C212 1.384 . S
C211 H220 0.930 . S
C212 C209 1.380 . S
C212 C211 1.384 . S
C212 H221 0.931 . S
C213 C209 1.374 . S
C213 C214 1.390 . S
C213 H222 0.930 . S
C214 C210 1.391 . S
C214 C213 1.390 . S
C214 H223 0.930 . S
C215 Eu185 2.825 . S
C215 O200 1.238 . S
C215 O201 1.247 . S
C215 C209 1.507 . S
H216 C189 0.930 . S
H217 C190 0.931 . S
H218 C191 0.930 . S
H219 C192 0.930 . S
H220 C211 0.930 . S
H221 C212 0.931 . S
H222 C213 0.930 . S
H223 C214 0.930 . S
Tb224 C234 2.825 . S
Tb224 O235 2.347 . S
Tb224 O238 2.366 . S
Tb224 O243 2.418 . S
Tb224 O244 2.384 1_655 S
Tb224 O247 2.479 . S
Tb224 O248 2.471 . S
Eu225 O236 2.418 . S
Eu225 O237 2.384 1_455 S
Eu225 O240 2.479 . S
Eu225 O241 2.471 . S
Eu225 O242 2.347 . S
Eu225 O245 2.366 . S
Eu225 C255 2.825 . S
C226 O242 1.259 1_655 S
C226 O243 1.265 . S
C227 O244 1.255 . S
C227 O245 1.265 . S
C228 C230 1.380 . S
C228 C231 1.374 . S
C228 C234 1.507 . S
C229 C230 1.384 . S
C229 C233 1.387 . S
C229 H256 0.930 . S
C230 C228 1.380 . S
C230 C229 1.384 . S
C230 H257 0.931 . S
C231 C228 1.374 . S
C231 C232 1.390 . S
C231 H258 0.930 . S
C232 C231 1.390 . S
C232 C233 1.391 . S
C232 H259 0.930 . S
C233 C229 1.387 . S
C233 C232 1.391 . S
C234 Tb224 2.825 . S
C234 C228 1.507 . S
C234 O247 1.238 . S
C234 O248 1.247 . S
O235 Tb224 2.347 . S
O235 C239 1.259 1_655 S
O236 Eu225 2.418 . S
O236 C239 1.265 . S
O237 Eu225 2.384 1_655 S
O237 C246 1.255 . S
O238 Tb224 2.366 . S
O238 C246 1.265 . S
C239 O235 1.259 1_455 S
C239 O236 1.265 . S
O240 Eu225 2.479 . S
O240 C255 1.238 . S
O241 Eu225 2.471 . S
O241 C255 1.247 . S
O242 Eu225 2.347 . S
O242 C226 1.259 1_455 S
O243 Tb224 2.418 . S
O243 C226 1.265 . S
O244 Tb224 2.384 1_455 S
O244 C227 1.255 . S
O245 Eu225 2.366 . S
O245 C227 1.265 . S
C246 O237 1.255 . S
C246 O238 1.265 . S
O247 Tb224 2.479 . S
O247 C234 1.238 . S
O248 Tb224 2.471 . S
O248 C234 1.247 . S
C249 C252 1.380 . S
C249 C253 1.374 . S
C249 C255 1.507 . S
C250 C251 1.387 . S
C250 C254 1.391 . S
C251 C250 1.387 . S
C251 C252 1.384 . S
C251 H260 0.930 . S
C252 C249 1.380 . S
C252 C251 1.384 . S
C252 H261 0.931 . S
C253 C249 1.374 . S
C253 C254 1.390 . S
C253 H262 0.930 . S
C254 C250 1.391 . S
C254 C253 1.390 . S
C254 H263 0.930 . S
C255 Eu225 2.825 . S
C255 O240 1.238 . S
C255 O241 1.247 . S
C255 C249 1.507 . S
H256 C229 0.930 . S
H257 C230 0.931 . S
H258 C231 0.930 . S
H259 C232 0.930 . S
H260 C251 0.930 . S
H261 C252 0.931 . S
H262 C253 0.930 . S
H263 C254 0.930 . S
C264 C265 1.351 . S
C264 C266 1.327 . S
C264 H289 0.950 . S
C265 C264 1.351 . S
C265 C281 1.347 1_545 S
C266 C264 1.327 . S
C266 C285 1.437 . S
C266 H290 0.950 . S
C267 C284 1.574 . S
C267 C286 1.356 1_565 S
C267 H291 0.949 . S
H268 C272 0.949 . S
C269 C270 1.322 1_565 S
C269 C271 1.327 . S
C269 H292 0.950 . S
C270 C269 1.322 1_545 S
C270 C282 1.376 . S
C271 C269 1.327 . S
C271 C287 1.409 1_565 S
C271 H293 0.950 . S
C272 H268 0.949 . S
C272 C280 1.574 . S
C272 C288 1.387 . S
H273 C281 0.950 . S
H274 C279 0.950 . S
H275 C280 0.949 . S
H276 C282 0.950 . S
H277 C283 0.950 . S
H278 C284 0.949 . S
C279 H274 0.950 . S
C279 C281 1.327 . S
C279 C285 1.420 1_565 S
C280 C272 1.574 . S
C280 H275 0.949 . S
C280 C286 1.381 . S
C281 C265 1.347 1_565 S
C281 H273 0.950 . S
C281 C279 1.327 . S
C282 C270 1.376 . S
C282 H276 0.950 . S
C282 C283 1.327 . S
C283 H277 0.950 . S
C283 C282 1.327 . S
C283 C287 1.449 . S
C284 C267 1.574 . S
C284 H278 0.949 . S
C284 C288 1.350 1_565 S
C285 C266 1.437 . S
C285 C279 1.420 1_545 S
C285 C286 1.523 . S
C286 C267 1.356 1_545 S
C286 C280 1.381 . S
C286 C285 1.523 . S
C287 C271 1.409 1_545 S
C287 C283 1.449 . S
C287 C288 1.523 . S
C288 C272 1.387 . S
C288 C284 1.350 1_545 S
C288 C287 1.523 . S
H289 C264 0.950 . S
H290 C266 0.950 . S
H291 C267 0.949 . S
H292 C269 0.950 . S
H293 C271 0.950 . S
C294 C295 1.349 . S
C294 C296 1.327 . S
C294 H319 0.950 . S
C295 C294 1.349 . S
C295 C311 1.349 . S
C296 C294 1.327 . S
C296 C315 1.429 . S
C296 H320 0.950 . S
C297 C314 1.574 . S
C297 C316 1.368 . S
C297 H321 0.949 . S
H298 C302 0.949 . S
C299 C300 1.349 . S
C299 C301 1.327 . S
C299 H322 0.950 . S
C300 C299 1.349 . S
C300 C312 1.349 . S
C301 C299 1.327 . S
C301 C317 1.429 . S
C301 H323 0.950 . S
C302 H298 0.949 . S
C302 C310 1.574 . S
C302 C318 1.368 . S
H303 C311 0.950 . S
H304 C309 0.950 . S
H305 C310 0.949 . S
H306 C312 0.950 . S
H307 C313 0.950 . S
H308 C314 0.949 . S
C309 H304 0.950 . S
C309 C311 1.327 . S
C309 C315 1.429 . S
C310 C302 1.574 . S
C310 H305 0.949 . S
C310 C316 1.368 . S
C311 C295 1.349 . S
C311 H303 0.950 . S
C311 C309 1.327 . S
C312 C300 1.349 . S
C312 H306 0.950 . S
C312 C313 1.327 . S
C313 H307 0.950 . S
C313 C312 1.327 . S
C313 C317 1.429 . S
C314 C297 1.574 . S
C314 H308 0.949 . S
C314 C318 1.368 . S
C315 C296 1.429 . S
C315 C309 1.429 . S
C315 C316 1.523 . S
C316 C297 1.368 . S
C316 C310 1.368 . S
C316 C315 1.523 . S
C317 C301 1.429 . S
C317 C313 1.429 . S
C317 C318 1.523 . S
C318 C302 1.368 . S
C318 C314 1.368 . S
C318 C317 1.523 . S
H319 C294 0.950 . S
H320 C296 0.950 . S
H321 C297 0.949 . S
H322 C299 0.950 . S
H323 C301 0.950 . S
C324 C325 1.349 . S
C324 C326 1.327 . S
C324 H349 0.950 . S
C325 C324 1.349 . S
C325 C341 1.349 . S
C326 C324 1.327 . S
C326 C345 1.429 . S
C326 H350 0.950 . S
C327 C344 1.574 . S
C327 C346 1.368 . S
C327 H351 0.949 . S
H328 C332 0.949 . S
C329 C330 1.349 . S
C329 C331 1.327 . S
C329 H352 0.950 . S
C330 C329 1.349 . S
C330 C342 1.349 . S
C331 C329 1.327 . S
C331 C347 1.429 . S
C331 H353 0.950 . S
C332 H328 0.949 . S
C332 C340 1.574 . S
C332 C348 1.368 . S
H333 C341 0.950 . S
H334 C339 0.950 . S
H335 C340 0.949 . S
H336 C342 0.950 . S
H337 C343 0.950 . S
H338 C344 0.949 . S
C339 H334 0.950 . S
C339 C341 1.327 . S
C339 C345 1.429 . S
C340 C332 1.574 . S
C340 H335 0.949 . S
C340 C346 1.368 . S
C341 C325 1.349 . S
C341 H333 0.950 . S
C341 C339 1.327 . S
C342 C330 1.349 . S
C342 H336 0.950 . S
C342 C343 1.327 . S
C343 H337 0.950 . S
C343 C342 1.327 . S
C343 C347 1.429 . S
C344 C327 1.574 . S
C344 H338 0.949 . S
C344 C348 1.368 . S
C345 C326 1.429 . S
C345 C339 1.429 . S
C345 C346 1.523 . S
C346 C327 1.368 . S
C346 C340 1.368 . S
C346 C345 1.523 . S
C347 C331 1.429 . S
C347 C343 1.429 . S
C347 C348 1.523 . S
C348 C332 1.368 . S
C348 C344 1.368 . S
C348 C347 1.523 . S
H349 C324 0.950 . S
H350 C326 0.950 . S
H351 C327 0.949 . S
H352 C329 0.950 . S
H353 C331 0.950 . S
C354 C355 1.349 . S
C354 C356 1.327 . S
C354 H379 0.950 . S
C355 C354 1.349 . S
C355 C371 1.349 1_455 S
C356 C354 1.327 . S
C356 C375 1.430 . S
C356 H380 0.950 . S
C357 C374 1.575 . S
C357 C376 1.367 1_655 S
C357 H381 0.949 . S
H358 C362 0.949 . S
C359 C360 1.345 1_655 S
C359 C361 1.327 . S
C359 H382 0.953 . S
C360 C359 1.345 1_455 S
C360 C372 1.353 . S
C361 C359 1.327 . S
C361 C377 1.426 1_655 S
C361 H383 0.954 . S
C362 H358 0.949 . S
C362 C370 1.574 . S
C362 C378 1.371 . S
H363 C371 0.950 . S
H364 C369 0.950 . S
H365 C370 0.949 . S
H366 C372 0.950 . S
H367 C373 0.950 . S
H368 C374 0.955 . S
C369 H364 0.950 . S
C369 C371 1.327 . S
C369 C375 1.428 1_655 S
C370 C362 1.574 . S
C370 H365 0.949 . S
C370 C376 1.370 . S
C371 C355 1.349 1_655 S
C371 H363 0.950 . S
C371 C369 1.327 . S
C372 C360 1.353 . S
C372 H366 0.950 . S
C372 C373 1.327 . S
C373 H367 0.950 . S
C373 C372 1.327 . S
C373 C377 1.431 . S
C374 C357 1.575 . S
C374 H368 0.955 . S
C374 C378 1.364 1_655 S
C375 C356 1.430 . S
C375 C369 1.428 1_455 S
C375 C376 1.523 . S
C376 C357 1.367 1_455 S
C376 C370 1.370 . S
C376 C375 1.523 . S
C377 C361 1.426 1_455 S
C377 C373 1.431 . S
C377 C378 1.523 . S
C378 C362 1.371 . S
C378 C374 1.364 1_455 S
C378 C377 1.523 . S
H379 C354 0.950 . S
H380 C356 0.950 . S
H381 C357 0.949 . S
H382 C359 0.953 . S
H383 C361 0.954 . S
C384 C385 1.346 . S
C384 C386 1.327 . S
C384 H409 0.950 . S
C385 C384 1.346 . S
C385 C401 1.351 1_545 S
C386 C384 1.327 . S
C386 C405 1.430 1_545 S
C386 H410 0.950 . S
C387 C404 1.574 1_554 S
C387 C406 1.370 . S
C387 H411 0.949 . S
H388 C392 0.949 . S
C389 C390 1.366 . S
C389 C391 1.327 . S
C389 H412 0.950 . S
C390 C389 1.366 . S
C390 C402 1.332 1_565 S
C391 C389 1.327 . S
C391 C407 1.439 . S
C391 H413 0.950 . S
C392 H388 0.949 . S
C392 C400 1.574 . S
C392 C408 1.360 1_545 S
H393 C401 0.950 . S
H394 C399 0.950 . S
H395 C400 0.949 . S
H396 C402 0.950 . S
H397 C403 0.950 . S
H398 C404 0.949 . S
C399 H394 0.950 . S
C399 C401 1.327 . S
C399 C405 1.427 . S
C400 C392 1.574 . S
C400 H395 0.949 . S
C400 C406 1.366 1_545 S
C401 C385 1.351 1_565 S
C401 H393 0.950 . S
C401 C399 1.327 . S
C402 C390 1.332 1_545 S
C402 H396 0.950 . S
C402 C403 1.327 . S
C403 H397 0.950 . S
C403 C402 1.327 . S
C403 C407 1.418 1_545 S
C404 C387 1.574 1_556 S
C404 H398 0.949 . S
C404 C408 1.376 1_556 S
C405 C386 1.430 1_565 S
C405 C399 1.427 . S
C405 C406 1.523 . S
C406 C387 1.370 . S
C406 C400 1.366 1_565 S
C406 C405 1.523 . S
C407 C391 1.439 . S
C407 C403 1.418 1_565 S
C407 C408 1.523 1_556 S
C408 C392 1.360 1_565 S
C408 C404 1.376 1_554 S
C408 C407 1.523 1_554 S
H409 C384 0.950 . S
H410 C386 0.950 . S
H411 C387 0.949 . S
H412 C389 0.950 . S
H413 C391 0.950 . S
C414 C415 1.349 . S
C414 C416 1.327 . S
C414 H439 0.950 . S
C415 C414 1.349 . S
C415 C431 1.349 . S
C416 C414 1.327 . S
C416 C435 1.429 . S
C416 H440 0.950 . S
C417 C434 1.574 1_554 S
C417 C436 1.368 . S
C417 H441 0.949 . S
H418 C422 0.949 . S
C419 C420 1.349 . S
C419 C421 1.327 . S
C419 H442 0.950 . S
C420 C419 1.349 . S
C420 C432 1.349 . S
C421 C419 1.327 . S
C421 C437 1.429 . S
C421 H443 0.950 . S
C422 H418 0.949 . S
C422 C430 1.574 . S
C422 C438 1.368 . S
H423 C431 0.950 . S
H424 C429 0.950 . S
H425 C430 0.949 . S
H426 C432 0.950 . S
H427 C433 0.950 . S
H428 C434 0.949 . S
C429 H424 0.950 . S
C429 C431 1.327 . S
C429 C435 1.429 . S
C430 C422 1.574 . S
C430 H425 0.949 . S
C430 C436 1.368 . S
C431 C415 1.349 . S
C431 H423 0.950 . S
C431 C429 1.327 . S
C432 C420 1.349 . S
C432 H426 0.950 . S
C432 C433 1.327 . S
C433 H427 0.950 . S
C433 C432 1.327 . S
C433 C437 1.429 . S
C434 C417 1.574 1_556 S
C434 H428 0.949 . S
C434 C438 1.368 1_556 S
C435 C416 1.429 . S
C435 C429 1.429 . S
C435 C436 1.523 . S
C436 C417 1.368 . S
C436 C430 1.368 . S
C436 C435 1.523 . S
C437 C421 1.429 . S
C437 C433 1.429 . S
C437 C438 1.523 1_556 S
C438 C422 1.368 . S
C438 C434 1.368 1_554 S
C438 C437 1.523 1_554 S
H439 C414 0.950 . S
H440 C416 0.950 . S
H441 C417 0.949 . S
H442 C419 0.950 . S
H443 C421 0.950 . S
C444 C445 1.349 . S
C444 C446 1.327 . S
C444 H469 0.950 . S
C445 C444 1.349 . S
C445 C461 1.349 . S
C446 C444 1.327 . S
C446 C465 1.429 . S
C446 H470 0.950 . S
C447 C464 1.574 1_554 S
C447 C466 1.368 . S
C447 H471 0.949 . S
H448 C452 0.949 . S
C449 C450 1.349 . S
C449 C451 1.327 . S
C449 H472 0.950 . S
C450 C449 1.349 . S
C450 C462 1.349 . S
C451 C449 1.327 . S
C451 C467 1.429 . S
C451 H473 0.950 . S
C452 H448 0.949 . S
C452 C460 1.574 . S
C452 C468 1.368 . S
H453 C461 0.950 . S
H454 C459 0.950 . S
H455 C460 0.949 . S
H456 C462 0.950 . S
H457 C463 0.950 . S
H458 C464 0.949 . S
C459 H454 0.950 . S
C459 C461 1.327 . S
C459 C465 1.429 . S
C460 C452 1.574 . S
C460 H455 0.949 . S
C460 C466 1.368 . S
C461 C445 1.349 . S
C461 H453 0.950 . S
C461 C459 1.327 . S
C462 C450 1.349 . S
C462 H456 0.950 . S
C462 C463 1.327 . S
C463 H457 0.950 . S
C463 C462 1.327 . S
C463 C467 1.429 . S
C464 C447 1.574 1_556 S
C464 H458 0.949 . S
C464 C468 1.368 1_556 S
C465 C446 1.429 . S
C465 C459 1.429 . S
C465 C466 1.523 . S
C466 C447 1.368 . S
C466 C460 1.368 . S
C466 C465 1.523 . S
C467 C451 1.429 . S
C467 C463 1.429 . S
C467 C468 1.523 1_556 S
C468 C452 1.368 . S
C468 C464 1.368 1_554 S
C468 C467 1.523 1_554 S
H469 C444 0.950 . S
H470 C446 0.950 . S
H471 C447 0.949 . S
H472 C449 0.950 . S
H473 C451 0.950 . S
C474 C475 1.351 . S
C474 C476 1.327 . S
C474 H499 0.950 . S
C475 C474 1.351 . S
C475 C491 1.347 1_655 S
C476 C474 1.327 . S
C476 C495 1.436 . S
C476 H500 0.950 . S
C477 C494 1.574 1_554 S
C477 C496 1.357 1_455 S
C477 H501 0.949 . S
H478 C482 0.949 . S
C479 C480 1.324 1_455 S
C479 C481 1.327 . S
C479 H502 0.950 . S
C480 C479 1.324 1_655 S
C480 C492 1.374 . S
C481 C479 1.327 . S
C481 C497 1.410 1_455 S
C481 H503 0.950 . S
C482 H478 0.949 . S
C482 C490 1.574 . S
C482 C498 1.386 . S
H483 C491 0.950 . S
H484 C489 0.950 . S
H485 C490 0.949 . S
H486 C492 0.950 . S
H487 C493 0.950 . S
H488 C494 0.949 . S
C489 H484 0.950 . S
C489 C491 1.327 . S
C489 C495 1.421 1_455 S
C490 C482 1.574 . S
C490 H485 0.949 . S
C490 C496 1.380 . S
C491 C475 1.347 1_455 S
C491 H483 0.950 . S
C491 C489 1.327 . S
C492 C480 1.374 . S
C492 H486 0.950 . S
C492 C493 1.327 . S
C493 H487 0.950 . S
C493 C492 1.327 . S
C493 C497 1.448 . S
C494 C477 1.574 1_556 S
C494 H488 0.949 . S
C494 C498 1.351 1_456 S
C495 C476 1.436 . S
C495 C489 1.421 1_655 S
C495 C496 1.523 . S
C496 C477 1.357 1_655 S
C496 C490 1.380 . S
C496 C495 1.523 . S
C497 C481 1.410 1_655 S
C497 C493 1.448 . S
C497 C498 1.523 1_556 S
C498 C482 1.386 . S
C498 C494 1.351 1_654 S
C498 C497 1.523 1_554 S
H499 C474 0.950 . S
H500 C476 0.950 . S
H501 C477 0.949 . S
H502 C479 0.950 . S
H503 C481 0.950 . S
C504 C505 1.378 . S
C504 C506 1.327 . S
C504 H529 0.950 . S
C505 C504 1.378 . S
C505 C521 1.314 1_455 S
C506 C504 1.327 . S
C506 C525 1.429 1_455 S
C506 H530 0.950 . S
C507 C524 1.574 . S
C507 C526 1.368 . S
C507 H531 0.949 . S
H508 C512 0.932 1_455 S
C509 C510 1.349 . S
C509 C511 1.327 . S
C509 H532 0.950 . S
C510 C509 1.349 . S
C510 C522 1.349 . S
C511 C509 1.327 . S
C511 C527 1.429 . S
C511 H533 0.950 . S
C512 H508 0.932 1_655 S
C512 C520 1.568 1_655 S
C512 C528 1.395 . S
H513 C521 0.950 . S
H514 C519 0.950 . S
H515 C520 0.949 . S
H516 C522 0.950 . S
H517 C523 0.950 1_455 S
H518 C524 0.949 . S
C519 H514 0.950 . S
C519 C521 1.327 . S
C519 C525 1.429 . S
C520 C512 1.568 1_455 S
C520 H515 0.949 . S
C520 C526 1.368 1_455 S
C521 C505 1.314 1_655 S
C521 H513 0.950 . S
C521 C519 1.327 . S
C522 C510 1.349 . S
C522 H516 0.950 . S
C522 C523 1.327 . S
C523 H517 0.950 1_655 S
C523 C522 1.327 . S
C523 C527 1.429 . S
C524 C507 1.574 . S
C524 H518 0.949 . S
C524 C528 1.368 . S
C525 C506 1.429 1_655 S
C525 C519 1.429 . S
C525 C526 1.523 . S
C526 C507 1.368 . S
C526 C520 1.368 1_655 S
C526 C525 1.523 . S
C527 C511 1.429 . S
C527 C523 1.429 . S
C527 C528 1.523 . S
C528 C512 1.395 . S
C528 C524 1.368 . S
C528 C527 1.523 . S
H529 C504 0.950 . S
H530 C506 0.950 . S
H531 C507 0.949 . S
H532 C509 0.950 . S
H533 C511 0.950 . S
C534 C535 1.294 1_565 S
C534 C536 1.327 . S
C534 H559 0.950 . S
C535 C534 1.294 1_545 S
C535 C551 1.397 . S
C536 C534 1.327 . S
C536 C555 1.429 . S
C536 H560 0.950 . S
C537 C554 1.574 . S
C537 C556 1.368 1_545 S
C537 H561 0.949 . S
H538 C542 0.949 . S
C539 C540 1.349 . S
C539 C541 1.327 . S
C539 H562 0.950 1_565 S
C540 C539 1.349 . S
C540 C552 1.349 . S
C541 C539 1.327 . S
C541 C557 1.430 . S
C541 H563 0.948 1_565 S
C542 H538 0.949 . S
C542 C550 1.574 . S
C542 C558 1.368 . S
H543 C551 0.950 . S
H544 C549 0.950 . S
H545 C550 0.949 . S
H546 C552 0.950 . S
H547 C553 0.950 . S
H548 C554 0.949 . S
C549 H544 0.950 . S
C549 C551 1.327 . S
C549 C555 1.429 1_545 S
C550 C542 1.574 . S
C550 H545 0.949 . S
C550 C556 1.368 . S
C551 C535 1.397 . S
C551 H543 0.950 . S
C551 C549 1.327 . S
C552 C540 1.349 . S
C552 H546 0.950 . S
C552 C553 1.327 . S
C553 H547 0.950 . S
C553 C552 1.327 . S
C553 C557 1.429 . S
C554 C537 1.574 . S
C554 H548 0.949 . S
C554 C558 1.368 1_545 S
C555 C536 1.429 . S
C555 C549 1.429 1_565 S
C555 C556 1.523 . S
C556 C537 1.368 1_565 S
C556 C550 1.368 . S
C556 C555 1.523 . S
C557 C541 1.430 . S
C557 C553 1.429 . S
C557 C558 1.523 . S
C558 C542 1.368 . S
C558 C554 1.368 1_565 S
C558 C557 1.523 . S
H559 C534 0.950 . S
H560 C536 0.950 . S
H561 C537 0.949 . S
H562 C539 0.950 1_545 S
H563 C541 0.948 1_545 S
C564 C565 1.349 . S
C564 C566 1.327 . S
C564 H589 0.950 . S
C565 C564 1.349 . S
C565 C581 1.349 . S
C566 C564 1.327 . S
C566 C585 1.429 . S
C566 H590 0.950 . S
C567 C584 1.574 . S
C567 C586 1.368 . S
C567 H591 0.949 . S
H568 C572 0.949 . S
C569 C570 1.349 . S
C569 C571 1.327 . S
C569 H592 0.950 . S
C570 C569 1.349 . S
C570 C582 1.349 . S
C571 C569 1.327 . S
C571 C587 1.429 . S
C571 H593 0.950 . S
C572 H568 0.949 . S
C572 C580 1.574 . S
C572 C588 1.368 . S
H573 C581 0.950 . S
H574 C579 0.950 . S
H575 C580 0.949 . S
H576 C582 0.950 . S
H577 C583 0.950 . S
H578 C584 0.949 . S
C579 H574 0.950 . S
C579 C581 1.327 . S
C579 C585 1.429 . S
C580 C572 1.574 . S
C580 H575 0.949 . S
C580 C586 1.368 . S
C581 C565 1.349 . S
C581 H573 0.950 . S
C581 C579 1.327 . S
C582 C570 1.349 . S
C582 H576 0.950 . S
C582 C583 1.327 . S
C583 H577 0.950 . S
C583 C582 1.327 . S
C583 C587 1.429 . S
C584 C567 1.574 . S
C584 H578 0.949 . S
C584 C588 1.368 . S
C585 C566 1.429 . S
C585 C579 1.429 . S
C585 C586 1.523 . S
C586 C567 1.368 . S
C586 C580 1.368 . S
C586 C585 1.523 . S
C587 C571 1.429 . S
C587 C583 1.429 . S
C587 C588 1.523 . S
C588 C572 1.368 . S
C588 C584 1.368 . S
C588 C587 1.523 . S
H589 C564 0.950 . S
H590 C566 0.950 . S
H591 C567 0.949 . S
H592 C569 0.950 . S
H593 C571 0.950 . S
C594 C595 1.349 . S
C594 C596 1.327 . S
C594 H619 0.950 . S
C595 C594 1.349 . S
C595 C611 1.349 . S
C596 C594 1.327 . S
C596 C615 1.429 . S
C596 H620 0.950 . S
C597 C614 1.574 . S
C597 C616 1.368 . S
C597 H621 0.949 . S
H598 C602 0.949 . S
C599 C600 1.349 . S
C599 C601 1.327 . S
C599 H622 0.950 . S
C600 C599 1.349 . S
C600 C612 1.349 . S
C601 C599 1.327 . S
C601 C617 1.429 . S
C601 H623 0.950 . S
C602 H598 0.949 . S
C602 C610 1.574 . S
C602 C618 1.368 . S
H603 C611 0.950 . S
H604 C609 0.950 . S
H605 C610 0.949 . S
H606 C612 0.950 . S
H607 C613 0.950 . S
H608 C614 0.949 . S
C609 H604 0.950 . S
C609 C611 1.327 . S
C609 C615 1.429 . S
C610 C602 1.574 . S
C610 H605 0.949 . S
C610 C616 1.368 . S
C611 C595 1.349 . S
C611 H603 0.950 . S
C611 C609 1.327 . S
C612 C600 1.349 . S
C612 H606 0.950 . S
C612 C613 1.327 . S
C613 H607 0.950 . S
C613 C612 1.327 . S
C613 C617 1.429 . S
C614 C597 1.574 . S
C614 H608 0.949 . S
C614 C618 1.368 . S
C615 C596 1.429 . S
C615 C609 1.429 . S
C615 C616 1.523 . S
C616 C597 1.368 . S
C616 C610 1.368 . S
C616 C615 1.523 . S
C617 C601 1.429 . S
C617 C613 1.429 . S
C617 C618 1.523 . S
C618 C602 1.368 . S
C618 C614 1.368 . S
C618 C617 1.523 . S
H619 C594 0.950 . S
H620 C596 0.950 . S
H621 C597 0.949 . S
H622 C599 0.950 . S
H623 C601 0.950 . S
C624 C625 1.343 1_455 S
C624 C626 1.327 . S
C624 H649 0.953 . S
C625 C624 1.343 1_655 S
C625 C641 1.349 . S
C626 C624 1.327 . S
C626 C645 1.429 . S
C626 H650 0.950 . S
C627 C644 1.574 . S
C627 C646 1.368 . S
C627 H651 0.949 . S
H628 C632 0.949 . S
C629 C630 1.349 . S
C629 C631 1.327 . S
C629 H652 0.950 . S
C630 C629 1.349 . S
C630 C642 1.349 1_556 S
C631 C629 1.327 . S
C631 C647 1.429 1_556 S
C631 H653 0.950 . S
C632 H628 0.949 . S
C632 C640 1.574 . S
C632 C648 1.368 . S
H633 C641 0.954 . S
H634 C639 0.950 . S
H635 C640 0.949 . S
H636 C642 0.950 . S
H637 C643 0.950 . S
H638 C644 0.947 1_556 S
C639 H634 0.950 . S
C639 C641 1.323 1_455 S
C639 C645 1.429 . S
C640 C632 1.574 . S
C640 H635 0.949 . S
C640 C646 1.368 . S
C641 C625 1.349 . S
C641 H633 0.954 . S
C641 C639 1.323 1_655 S
C642 C630 1.349 1_554 S
C642 H636 0.950 . S
C642 C643 1.327 . S
C643 H637 0.950 . S
C643 C642 1.327 . S
C643 C647 1.429 . S
C644 C627 1.574 . S
C644 H638 0.947 1_554 S
C644 C648 1.368 . S
C645 C626 1.429 . S
C645 C639 1.429 . S
C645 C646 1.523 . S
C646 C627 1.368 . S
C646 C640 1.368 . S
C646 C645 1.523 . S
C647 C631 1.429 1_554 S
C647 C643 1.429 . S
C647 C648 1.523 . S
C648 C632 1.368 . S
C648 C644 1.368 . S
C648 C647 1.523 . S
H649 C624 0.953 . S
H650 C626 0.950 . S
H651 C627 0.949 . S
H652 C629 0.950 . S
H653 C631 0.950 . S
C654 C655 1.375 . S
C654 C656 1.327 . S
C654 H679 0.950 . S
C655 C654 1.375 . S
C655 C671 1.317 1_565 S
C656 C654 1.327 . S
C656 C675 1.429 1_565 S
C656 H680 0.950 . S
C657 C674 1.574 . S
C657 C676 1.368 . S
C657 H681 0.949 . S
H658 C662 0.949 . S
C659 C660 1.349 . S
C659 C661 1.327 . S
C659 H682 0.950 . S
C660 C659 1.349 . S
C660 C672 1.349 1_556 S
C661 C659 1.327 . S
C661 C677 1.429 1_556 S
C661 H683 0.950 . S
C662 H658 0.949 . S
C662 C670 1.574 . S
C662 C678 1.368 1_565 S
H663 C671 0.950 . S
H664 C669 0.950 . S
H665 C670 0.949 . S
H666 C672 0.958 . S
H667 C673 0.950 1_565 S
H668 C674 0.949 . S
C669 H664 0.950 . S
C669 C671 1.327 . S
C669 C675 1.429 . S
C670 C662 1.574 . S
C670 H665 0.949 . S
C670 C676 1.368 1_565 S
C671 C655 1.317 1_545 S
C671 H663 0.950 . S
C671 C669 1.327 . S
C672 C660 1.349 1_554 S
C672 H666 0.958 . S
C672 C673 1.327 . S
C673 H667 0.950 1_545 S
C673 C672 1.327 . S
C673 C677 1.429 . S
C674 C657 1.574 . S
C674 H668 0.949 . S
C674 C678 1.368 . S
C675 C656 1.429 1_545 S
C675 C669 1.429 . S
C675 C676 1.523 . S
C676 C657 1.368 . S
C676 C670 1.368 1_545 S
C676 C675 1.523 . S
C677 C661 1.429 1_554 S
C677 C673 1.429 . S
C677 C678 1.523 . S
C678 C662 1.368 1_545 S
C678 C674 1.368 . S
C678 C677 1.523 . S
H679 C654 0.950 . S
H680 C656 0.950 . S
H681 C657 0.949 . S
H682 C659 0.950 . S
H683 C661 0.950 . S
C684 C685 1.349 . S
C684 C686 1.327 . S
C684 H709 0.950 . S
C685 C684 1.349 . S
C685 C701 1.349 . S
C686 C684 1.327 . S
C686 C705 1.429 . S
C686 H710 0.950 . S
C687 C704 1.574 . S
C687 C706 1.368 . S
C687 H711 0.949 . S
H688 C692 0.949 . S
C689 C690 1.349 1_554 S
C689 C691 1.327 . S
C689 H712 0.950 . S
C690 C689 1.349 1_556 S
C690 C702 1.349 . S
C691 C689 1.327 . S
C691 C707 1.429 . S
C691 H713 0.950 . S
C692 H688 0.949 . S
C692 C700 1.574 . S
C692 C708 1.368 . S
H693 C701 0.950 . S
H694 C699 0.950 . S
H695 C700 0.949 . S
H696 C702 0.950 . S
H697 C703 0.950 . S
H698 C704 0.949 . S
C699 H694 0.950 . S
C699 C701 1.327 . S
C699 C705 1.429 . S
C700 C692 1.574 . S
C700 H695 0.949 . S
C700 C706 1.368 . S
C701 C685 1.349 . S
C701 H693 0.950 . S
C701 C699 1.327 . S
C702 C690 1.349 . S
C702 H696 0.950 . S
C702 C703 1.327 . S
C703 H697 0.950 . S
C703 C702 1.327 . S
C703 C707 1.429 1_556 S
C704 C687 1.574 . S
C704 H698 0.949 . S
C704 C708 1.368 . S
C705 C686 1.429 . S
C705 C699 1.429 . S
C705 C706 1.523 . S
C706 C687 1.368 . S
C706 C700 1.368 . S
C706 C705 1.523 . S
C707 C691 1.429 . S
C707 C703 1.429 1_554 S
C707 C708 1.523 . S
C708 C692 1.368 . S
C708 C704 1.368 . S
C708 C707 1.523 . S
H709 C684 0.950 . S
H710 C686 0.950 . S
H711 C687 0.949 . S
H712 C689 0.950 . S
H713 C691 0.950 . S
C714 C715 1.349 . S
C714 C716 1.327 . S
C714 H739 0.950 . S
C715 C714 1.349 . S
C715 C731 1.349 . S
C716 C714 1.327 . S
C716 C735 1.429 . S
C716 H740 0.950 . S
C717 C734 1.574 . S
C717 C736 1.368 . S
C717 H741 0.949 . S
H718 C722 0.949 . S
C719 C720 1.349 . S
C719 C721 1.327 1_556 S
C719 H742 0.950 . S
C720 C719 1.349 . S
C720 C732 1.349 1_556 S
C721 C719 1.327 1_554 S
C721 C737 1.429 . S
C721 H743 0.950 . S
C722 H718 0.949 . S
C722 C730 1.574 . S
C722 C738 1.368 . S
H723 C731 0.950 . S
H724 C729 0.950 . S
H725 C730 0.949 . S
H726 C732 0.950 1_556 S
H727 C733 0.950 . S
H728 C734 0.949 . S
C729 H724 0.950 . S
C729 C731 1.327 . S
C729 C735 1.429 . S
C730 C722 1.574 . S
C730 H725 0.949 . S
C730 C736 1.368 . S
C731 C715 1.349 . S
C731 H723 0.950 . S
C731 C729 1.327 . S
C732 C720 1.349 1_554 S
C732 H726 0.950 1_554 S
C732 C733 1.327 . S
C733 H727 0.950 . S
C733 C732 1.327 . S
C733 C737 1.429 . S
C734 C717 1.574 . S
C734 H728 0.949 . S
C734 C738 1.368 . S
C735 C716 1.429 . S
C735 C729 1.429 . S
C735 C736 1.523 . S
C736 C717 1.368 . S
C736 C730 1.368 . S
C736 C735 1.523 . S
C737 C721 1.429 . S
C737 C733 1.429 . S
C737 C738 1.523 . S
C738 C722 1.368 . S
C738 C734 1.368 . S
C738 C737 1.523 . S
H739 C714 0.950 . S
H740 C716 0.950 . S
H741 C717 0.949 . S
H742 C719 0.950 . S
H743 C721 0.950 . S
C744 C745 1.378 . S
C744 C746 1.327 . S
C744 H769 0.950 . S
C745 C744 1.378 . S
C745 C761 1.323 1_455 S
C746 C744 1.327 . S
C746 C765 1.429 . S
C746 H770 0.950 . S
C747 C764 1.574 . S
C747 C766 1.368 1_655 S
C747 H771 0.949 . S
H748 C752 0.949 . S
C749 C750 1.349 1_655 S
C749 C751 1.327 . S
C749 H772 0.950 . S
C750 C749 1.349 1_455 S
C750 C762 1.349 . S
C751 C749 1.327 . S
C751 C767 1.429 1_655 S
C751 H773 0.950 . S
C752 H748 0.949 . S
C752 C760 1.574 . S
C752 C768 1.368 . S
H753 C761 0.950 . S
H754 C759 0.950 . S
H755 C760 0.949 . S
H756 C762 0.950 . S
H757 C763 0.950 . S
H758 C764 0.949 . S
C759 H754 0.950 . S
C759 C761 1.327 . S
C759 C765 1.429 1_655 S
C760 C752 1.574 . S
C760 H755 0.949 . S
C760 C766 1.368 . S
C761 C745 1.323 1_655 S
C761 H753 0.950 . S
C761 C759 1.327 . S
C762 C750 1.349 . S
C762 H756 0.950 . S
C762 C763 1.327 . S
C763 H757 0.950 . S
C763 C762 1.327 . S
C763 C767 1.429 . S
C764 C747 1.574 . S
C764 H758 0.949 . S
C764 C768 1.368 1_655 S
C765 C746 1.429 . S
C765 C759 1.429 1_455 S
C765 C766 1.523 . S
C766 C747 1.368 1_455 S
C766 C760 1.368 . S
C766 C765 1.523 . S
C767 C751 1.429 1_455 S
C767 C763 1.429 . S
C767 C768 1.523 . S
C768 C752 1.368 . S
C768 C764 1.368 1_455 S
C768 C767 1.523 . S
H769 C744 0.950 . S
H770 C746 0.950 . S
H771 C747 0.949 . S
H772 C749 0.950 . S
H773 C751 0.950 . S
C774 C775 1.320 1_565 S
C774 C776 1.327 . S
C774 H799 0.950 . S
C775 C774 1.320 1_545 S
C775 C791 1.380 . S
C776 C774 1.327 . S
C776 C795 1.429 1_565 S
C776 H800 0.950 . S
C777 C794 1.574 . S
C777 C796 1.368 . S
C777 H801 0.949 . S
H778 C782 0.949 . S
C779 C780 1.349 . S
C779 C781 1.327 . S
C779 H802 0.950 . S
C780 C779 1.349 . S
C780 C792 1.349 1_545 S
C781 C779 1.327 . S
C781 C797 1.429 . S
C781 H803 0.950 . S
C782 H778 0.949 . S
C782 C790 1.574 . S
C782 C798 1.368 1_565 S
H783 C791 0.950 . S
H784 C789 0.950 . S
H785 C790 0.949 . S
H786 C792 0.950 . S
H787 C793 0.950 . S
H788 C794 0.949 . S
C789 H784 0.950 . S
C789 C791 1.327 . S
C789 C795 1.429 . S
C790 C782 1.574 . S
C790 H785 0.949 . S
C790 C796 1.368 1_565 S
C791 C775 1.380 . S
C791 H783 0.950 . S
C791 C789 1.327 . S
C792 C780 1.349 1_565 S
C792 H786 0.950 . S
C792 C793 1.327 . S
C793 H787 0.950 . S
C793 C792 1.327 . S
C793 C797 1.429 1_565 S
C794 C777 1.574 . S
C794 H788 0.949 . S
C794 C798 1.368 . S
C795 C776 1.429 1_545 S
C795 C789 1.429 . S
C795 C796 1.523 . S
C796 C777 1.368 . S
C796 C790 1.368 1_545 S
C796 C795 1.523 . S
C797 C781 1.429 . S
C797 C793 1.429 1_545 S
C797 C798 1.523 . S
C798 C782 1.368 1_545 S
C798 C794 1.368 . S
C798 C797 1.523 . S
H799 C774 0.950 . S
H800 C776 0.950 . S
H801 C777 0.949 . S
H802 C779 0.950 . S
H803 C781 0.950 . S
C804 C805 1.349 . S
C804 C806 1.327 . S
C804 H829 0.950 . S
C805 C804 1.349 . S
C805 C821 1.349 . S
C806 C804 1.327 . S
C806 C825 1.429 . S
C806 H830 0.950 . S
C807 C824 1.574 . S
C807 C826 1.368 . S
C807 H831 0.949 . S
H808 C812 0.949 . S
C809 C810 1.349 . S
C809 C811 1.327 . S
C809 H832 0.950 . S
C810 C809 1.349 . S
C810 C822 1.349 . S
C811 C809 1.327 . S
C811 C827 1.429 . S
C811 H833 0.950 . S
C812 H808 0.949 . S
C812 C820 1.574 . S
C812 C828 1.368 . S
H813 C821 0.948 . S
H814 C819 0.950 . S
H815 C820 0.949 . S
H816 C822 0.950 . S
H817 C823 0.950 . S
H818 C824 0.949 . S
C819 H814 0.950 . S
C819 C821 1.327 . S
C819 C825 1.429 . S
C820 C812 1.574 . S
C820 H815 0.949 . S
C820 C826 1.368 . S
C821 C805 1.349 . S
C821 H813 0.948 . S
C821 C819 1.327 . S
C822 C810 1.349 . S
C822 H816 0.950 . S
C822 C823 1.327 . S
C823 H817 0.950 . S
C823 C822 1.327 . S
C823 C827 1.429 . S
C824 C807 1.574 . S
C824 H818 0.949 . S
C824 C828 1.368 . S
C825 C806 1.429 . S
C825 C819 1.429 . S
C825 C826 1.523 . S
C826 C807 1.368 . S
C826 C820 1.368 . S
C826 C825 1.523 . S
C827 C811 1.429 . S
C827 C823 1.429 . S
C827 C828 1.523 . S
C828 C812 1.368 . S
C828 C824 1.368 . S
C828 C827 1.523 . S
H829 C804 0.950 . S
H830 C806 0.950 . S
H831 C807 0.949 . S
H832 C809 0.950 . S
H833 C811 0.950 . S
C834 C835 1.349 . S
C834 C836 1.327 . S
C834 H859 0.950 . S
C835 C834 1.349 . S
C835 C851 1.349 . S
C836 C834 1.327 . S
C836 C855 1.429 . S
C836 H860 0.950 . S
C837 C854 1.574 . S
C837 C856 1.368 . S
C837 H861 0.949 . S
H838 C842 0.949 . S
C839 C840 1.349 . S
C839 C841 1.327 . S
C839 H862 0.950 . S
C840 C839 1.349 . S
C840 C852 1.349 . S
C841 C839 1.327 . S
C841 C857 1.429 . S
C841 H863 0.950 . S
C842 H838 0.949 . S
C842 C850 1.574 . S
C842 C858 1.368 . S
H843 C851 0.950 . S
H844 C849 0.950 . S
H845 C850 0.949 . S
H846 C852 0.950 . S
H847 C853 0.950 . S
H848 C854 0.949 . S
C849 H844 0.950 . S
C849 C851 1.327 . S
C849 C855 1.429 . S
C850 C842 1.574 . S
C850 H845 0.949 . S
C850 C856 1.368 . S
C851 C835 1.349 . S
C851 H843 0.950 . S
C851 C849 1.327 . S
C852 C840 1.349 . S
C852 H846 0.950 . S
C852 C853 1.327 . S
C853 H847 0.950 . S
C853 C852 1.327 . S
C853 C857 1.429 . S
C854 C837 1.574 . S
C854 H848 0.949 . S
C854 C858 1.368 . S
C855 C836 1.429 . S
C855 C849 1.429 . S
C855 C856 1.523 . S
C856 C837 1.368 . S
C856 C850 1.368 . S
C856 C855 1.523 . S
C857 C841 1.429 . S
C857 C853 1.429 . S
C857 C858 1.523 . S
C858 C842 1.368 . S
C858 C854 1.368 . S
C858 C857 1.523 . S
H859 C834 0.950 . S
H860 C836 0.950 . S
H861 C837 0.949 . S
H862 C839 0.950 . S
H863 C841 0.950 . S
C864 C865 1.325 1_455 S
C864 C866 1.327 . S
C864 H889 0.950 . S
C865 C864 1.325 1_655 S
C865 C881 1.376 . S
C866 C864 1.327 . S
C866 C885 1.429 1_455 S
C866 H890 0.950 . S
C867 C884 1.574 . S
C867 C886 1.368 . S
C867 H891 0.949 . S
H868 C872 0.949 . S
C869 C870 1.349 . S
C869 C871 1.327 . S
C869 H892 0.950 . S
C870 C869 1.349 . S
C870 C882 1.349 1_655 S
C871 C869 1.327 . S
C871 C887 1.429 . S
C871 H893 0.950 . S
C872 H868 0.949 . S
C872 C880 1.574 . S
C872 C888 1.368 1_455 S
H873 C881 0.950 . S
H874 C879 0.950 . S
H875 C880 0.949 . S
H876 C882 0.950 . S
H877 C883 0.950 . S
H878 C884 0.949 . S
C879 H874 0.950 . S
C879 C881 1.327 . S
C879 C885 1.429 . S
C880 C872 1.574 . S
C880 H875 0.949 . S
C880 C886 1.368 1_455 S
C881 C865 1.376 . S
C881 H873 0.950 . S
C881 C879 1.327 . S
C882 C870 1.349 1_455 S
C882 H876 0.950 . S
C882 C883 1.327 . S
C883 H877 0.950 . S
C883 C882 1.327 . S
C883 C887 1.429 1_455 S
C884 C867 1.574 . S
C884 H878 0.949 . S
C884 C888 1.368 . S
C885 C866 1.429 1_655 S
C885 C879 1.429 . S
C885 C886 1.523 . S
C886 C867 1.368 . S
C886 C880 1.368 1_655 S
C886 C885 1.523 . S
C887 C871 1.429 . S
C887 C883 1.429 1_655 S
C887 C888 1.523 . S
C888 C872 1.368 1_655 S
C888 C884 1.368 . S
C888 C887 1.523 . S
H889 C864 0.950 . S
H890 C866 0.950 . S
H891 C867 0.949 . S
H892 C869 0.950 . S
H893 C871 0.950 . S
C894 C895 1.376 . S
C894 C896 1.327 . S
C894 H919 0.950 . S
C895 C894 1.376 . S
C895 C911 1.323 1_565 S
C896 C894 1.327 . S
C896 C915 1.429 . S
C896 H920 0.950 . S
C897 C914 1.574 . S
C897 C916 1.368 1_545 S
C897 H921 0.949 . S
H898 C902 0.949 . S
C899 C900 1.349 1_545 S
C899 C901 1.327 . S
C899 H922 0.950 . S
C900 C899 1.349 1_565 S
C900 C912 1.349 . S
C901 C899 1.327 . S
C901 C917 1.429 1_545 S
C901 H923 0.950 . S
C902 H898 0.949 . S
C902 C910 1.574 . S
C902 C918 1.368 . S
H903 C911 0.950 . S
H904 C909 0.950 . S
H905 C910 0.949 . S
H906 C912 0.950 . S
H907 C913 0.950 . S
H908 C914 0.949 . S
C909 H904 0.950 . S
C909 C911 1.327 . S
C909 C915 1.429 1_545 S
C910 C902 1.574 . S
C910 H905 0.949 . S
C910 C916 1.368 . S
C911 C895 1.323 1_545 S
C911 H903 0.950 . S
C911 C909 1.327 . S
C912 C900 1.349 . S
C912 H906 0.950 . S
C912 C913 1.327 . S
C913 H907 0.950 . S
C913 C912 1.327 . S
C913 C917 1.429 . S
C914 C897 1.574 . S
C914 H908 0.949 . S
C914 C918 1.368 1_545 S
C915 C896 1.429 . S
C915 C909 1.429 1_565 S
C915 C916 1.523 . S
C916 C897 1.368 1_565 S
C916 C910 1.368 . S
C916 C915 1.523 . S
C917 C901 1.429 1_565 S
C917 C913 1.429 . S
C917 C918 1.523 . S
C918 C902 1.368 . S
C918 C914 1.368 1_565 S
C918 C917 1.523 . S
H919 C894 0.950 . S
H920 C896 0.950 . S
H921 C897 0.949 . S
H922 C899 0.950 . S
H923 C901 0.950 . S
C924 C925 1.349 . S
C924 C926 1.327 . S
C924 H949 0.950 . S
C925 C924 1.349 . S
C925 C941 1.349 . S
C926 C924 1.327 . S
C926 C945 1.429 . S
C926 H950 0.950 . S
C927 C944 1.574 . S
C927 C946 1.368 . S
C927 H951 0.949 . S
H928 C932 0.949 . S
C929 C930 1.349 . S
C929 C931 1.327 . S
C929 H952 0.950 . S
C930 C929 1.349 . S
C930 C942 1.349 . S
C931 C929 1.327 . S
C931 C947 1.429 . S
C931 H953 0.950 . S
C932 H928 0.949 . S
C932 C940 1.574 . S
C932 C948 1.368 . S
H933 C941 0.950 . S
H934 C939 0.950 . S
H935 C940 0.949 . S
H936 C942 0.950 . S
H937 C943 0.950 . S
H938 C944 0.949 . S
C939 H934 0.950 . S
C939 C941 1.327 . S
C939 C945 1.429 . S
C940 C932 1.574 . S
C940 H935 0.949 . S
C940 C946 1.368 . S
C941 C925 1.349 . S
C941 H933 0.950 . S
C941 C939 1.327 . S
C942 C930 1.349 . S
C942 H936 0.950 . S
C942 C943 1.327 . S
C943 H937 0.950 . S
C943 C942 1.327 . S
C943 C947 1.429 . S
C944 C927 1.574 . S
C944 H938 0.949 . S
C944 C948 1.368 . S
C945 C926 1.429 . S
C945 C939 1.429 . S
C945 C946 1.523 . S
C946 C927 1.368 . S
C946 C940 1.368 . S
C946 C945 1.523 . S
C947 C931 1.429 . S
C947 C943 1.429 . S
C947 C948 1.523 . S
C948 C932 1.368 . S
C948 C944 1.368 . S
C948 C947 1.523 . S
H949 C924 0.950 . S
H950 C926 0.950 . S
H951 C927 0.949 . S
H952 C929 0.950 . S
H953 C931 0.950 . S
C954 C955 1.349 . S
C954 C956 1.327 . S
C954 H979 0.950 . S
C955 C954 1.349 . S
C955 C971 1.349 . S
C956 C954 1.327 . S
C956 C975 1.429 . S
C956 H980 0.950 . S
C957 C974 1.574 . S
C957 C976 1.368 . S
C957 H981 0.949 . S
H958 C962 0.949 . S
C959 C960 1.349 . S
C959 C961 1.327 . S
C959 H982 0.950 . S
C960 C959 1.349 . S
C960 C972 1.349 . S
C961 C959 1.327 . S
C961 C977 1.429 . S
C961 H983 0.950 . S
C962 H958 0.949 . S
C962 C970 1.574 . S
C962 C978 1.368 . S
H963 C971 0.950 . S
H964 C969 0.950 . S
H965 C970 0.949 . S
H966 C972 0.950 . S
H967 C973 0.950 . S
H968 C974 0.949 . S
C969 H964 0.950 . S
C969 C971 1.327 . S
C969 C975 1.429 . S
C970 C962 1.574 . S
C970 H965 0.949 . S
C970 C976 1.368 . S
C971 C955 1.349 . S
C971 H963 0.950 . S
C971 C969 1.327 . S
C972 C960 1.349 . S
C972 H966 0.950 . S
C972 C973 1.327 . S
C973 H967 0.950 . S
C973 C972 1.327 . S
C973 C977 1.429 . S
C974 C957 1.574 . S
C974 H968 0.949 . S
C974 C978 1.368 . S
C975 C956 1.429 . S
C975 C969 1.429 . S
C975 C976 1.523 . S
C976 C957 1.368 . S
C976 C970 1.368 . S
C976 C975 1.523 . S
C977 C961 1.429 . S
C977 C973 1.429 . S
C977 C978 1.523 . S
C978 C962 1.368 . S
C978 C974 1.368 . S
C978 C977 1.523 . S
H979 C954 0.950 . S
H980 C956 0.950 . S
H981 C957 0.949 . S
H982 C959 0.950 . S
H983 C961 0.950 . S
C265 C82 1.625 . S
C270 C106 1.837 1_545 S
C300 C146 1.846 . S
C295 C95 1.620 . S
C330 C186 1.847 . S
C325 C56 1.628 . S
C360 C226 1.842 1_455 S
C355 C69 1.626 . S
C390 C119 1.842 1_565 S
C385 C30 1.630 . S
C415 C43 1.628 . S
C420 C159 1.850 . S
C445 C4 1.630 . S
C450 C199 1.847 . S
C475 C17 1.627 1_655 S
C480 C239 1.843 1_655 S
C510 C130 0.320 . S
C505 C74 0.382 . S
C540 C170 0.323 . S
C535 C87 0.385 . S
C570 C210 0.326 . S
C565 C100 0.390 . S
C595 C61 0.388 . S
C600 C250 0.317 . S
C625 C22 0.383 1_655 S
C630 C113 0.323 . S
C660 C153 0.323 . S
C655 C35 0.385 1_565 S
C690 C193 0.326 . S
C685 C48 0.393 . S
C715 C9 0.391 . S
C720 C233 0.328 . S
C745 C73 1.890 . S
C750 C107 2.082 . S
C775 C86 1.884 . S
C780 C147 2.083 . S
C810 C187 2.080 . S
C805 C99 1.881 . S
C840 C227 2.086 . S
C835 C60 1.882 . S
C865 C21 1.891 1_655 S
C870 C126 2.097 . S
C900 C166 2.083 . S
C895 C34 1.885 1_565 S
C930 C206 2.079 . S
C925 C47 1.882 . S
C955 C8 1.888 . S
C960 C246 2.091 . S
