# Generated by pormake.
# Topology pyr, (3,6)-cn, num edge types: 1
# Building blocks:
#     Node 0, Type 0, BuildingBlock: CUQRIR_clean_linker_1, # of connection points: 3
#     Node 1, Type 0, BuildingBlock: CUQRIR_clean_linker_1, # of connection points: 3
#     Node 2, Type 0, BuildingBlock: CUQRIR_clean_linker_1, # of connection points: 3
#     Node 3, Type 0, BuildingBlock: CUQRIR_clean_linker_1, # of connection points: 3
#     Node 4, Type 0, BuildingBlock: CUQRIR_clean_linker_1, # of connection points: 3
#     Node 5, Type 0, BuildingBlock: CUQRIR_clean_linker_1, # of connection points: 3
#     Node 6, Type 0, BuildingBlock: CUQRIR_clean_linker_1, # of connection points: 3
#     Node 7, Type 0, BuildingBlock: CUQRIR_clean_linker_1, # of connection points: 3
#     Node 8, Type 1, BuildingBlock: FUNLAD_clean_sbu_0, # of connection points: 6
#     Node 9, Type 1, BuildingBlock: FUNLAD_clean_sbu_0, # of connection points: 6
#     Node 10, Type 1, BuildingBlock: FUNLAD_clean_sbu_0, # of connection points: 6
#     Node 11, Type 1, BuildingBlock: FUNLAD_clean_sbu_0, # of connection points: 6
#     Edge 12, Type (0, 1), BuildingBlock: XUDNAN_clean_linker_2, # of connection points: 2
#     Edge 13, Type (0, 1), BuildingBlock: XUDNAN_clean_linker_2, # of connection points: 2
#     Edge 14, Type (0, 1), BuildingBlock: XUDNAN_clean_linker_2, # of connection points: 2
#     Edge 15, Type (0, 1), BuildingBlock: XUDNAN_clean_linker_2, # of connection points: 2
#     Edge 16, Type (0, 1), BuildingBlock: XUDNAN_clean_linker_2, # of connection points: 2
#     Edge 17, Type (0, 1), BuildingBlock: XUDNAN_clean_linker_2, # of connection points: 2
#     Edge 18, Type (0, 1), BuildingBlock: XUDNAN_clean_linker_2, # of connection points: 2
#     Edge 19, Type (0, 1), BuildingBlock: XUDNAN_clean_linker_2, # of connection points: 2
#     Edge 20, Type (0, 1), BuildingBlock: XUDNAN_clean_linker_2, # of connection points: 2
#     Edge 21, Type (0, 1), BuildingBlock: XUDNAN_clean_linker_2, # of connection points: 2
#     Edge 22, Type (0, 1), BuildingBlock: XUDNAN_clean_linker_2, # of connection points: 2
#     Edge 23, Type (0, 1), BuildingBlock: XUDNAN_clean_linker_2, # of connection points: 2
#     Edge 24, Type (0, 1), BuildingBlock: XUDNAN_clean_linker_2, # of connection points: 2
#     Edge 25, Type (0, 1), BuildingBlock: XUDNAN_clean_linker_2, # of connection points: 2
#     Edge 26, Type (0, 1), BuildingBlock: XUDNAN_clean_linker_2, # of connection points: 2
#     Edge 27, Type (0, 1), BuildingBlock: XUDNAN_clean_linker_2, # of connection points: 2
#     Edge 28, Type (0, 1), BuildingBlock: XUDNAN_clean_linker_2, # of connection points: 2
#     Edge 29, Type (0, 1), BuildingBlock: XUDNAN_clean_linker_2, # of connection points: 2
#     Edge 30, Type (0, 1), BuildingBlock: XUDNAN_clean_linker_2, # of connection points: 2
#     Edge 31, Type (0, 1), BuildingBlock: XUDNAN_clean_linker_2, # of connection points: 2
#     Edge 32, Type (0, 1), BuildingBlock: XUDNAN_clean_linker_2, # of connection points: 2
#     Edge 33, Type (0, 1), BuildingBlock: XUDNAN_clean_linker_2, # of connection points: 2
#     Edge 34, Type (0, 1), BuildingBlock: XUDNAN_clean_linker_2, # of connection points: 2
#     Edge 35, Type (0, 1), BuildingBlock: XUDNAN_clean_linker_2, # of connection points: 2
# Relax obj value: 0.189
# Max RMSD: 0.226
# Mean RMSD: 0.155
data_MOF--net-pry--node1-FUNLAD_clean_sbu_0--node2-CUQRIR_clean_linker_1--edge1-XUDNAN_clean_linker_2
_symmetry_space_group_name_H-M    P1
_symmetry_Int_Tables_number       1
_symmetry_cell_setting            triclinic
loop_
_symmetry_equiv_pos_as_xyz
'x, y, z'
_cell_length_a     32.517436
_cell_length_b     34.3236
_cell_length_c     34.166292
_cell_angle_alpha  88.326963
_cell_angle_beta   92.496003
_cell_angle_gamma 85.862253
loop_
_atom_site_label
_atom_site_type_symbol
_atom_site_fract_x
_atom_site_fract_y
_atom_site_fract_z
_atom_type_partial_charge
C0 C 0.1709 0.27166 0.23174 0.0
N1 N 0.19779 0.2397 0.2386 0.0
N2 N 0.17857 0.29092 0.19779 0.0
C3 C 0.13643 0.28354 0.25795 0.0
C4 C 0.21127 0.26942 0.18418 0.0
N5 N 0.22329 0.23843 0.20887 0.0
C6 C 0.22838 0.27615 0.14444 0.0
H7 H 0.11027 0.2652 0.25197 0.0
H8 H 0.12565 0.31475 0.25294 0.0
H9 H 0.14648 0.27885 0.28923 0.0
H10 H 0.25333 0.29645 0.14714 0.0
H11 H 0.20413 0.28948 0.12333 0.0
H12 H 0.24134 0.2484 0.13252 0.0
C13 C 0.4078 0.91821 0.70115 0.0
N14 N 0.39619 0.9461 0.72674 0.0
N15 N 0.44441 0.89944 0.71285 0.0
C16 C 0.3843 0.91035 0.66345 0.0
C17 C 0.45536 0.9174 0.74622 0.0
N18 N 0.42634 0.94633 0.7546 0.0
C19 C 0.49382 0.90585 0.77102 0.0
H20 H 0.35918 0.89128 0.67002 0.0
H21 H 0.40423 0.89521 0.6423 0.0
H22 H 0.37032 0.93801 0.64938 0.0
H23 H 0.506 0.87569 0.765 0.0
H24 H 0.48762 0.90791 0.8026 0.0
H25 H 0.51775 0.92614 0.76413 0.0
C26 C 0.61108 0.5223 1.02098 0.0
N27 N 0.6515 0.51343 1.03113 0.0
N28 N 0.60608 0.54522 0.98783 0.0
C29 C 0.57632 0.50323 0.03996 0.0
C30 C 0.64526 0.55358 0.98075 0.0
N31 N 0.67253 0.53425 1.00672 0.0
C32 C 0.65728 0.57604 0.94498 0.0
H33 H 0.57731 0.47179 0.03306 0.0
H34 H 0.54591 0.51765 1.02983 0.0
H35 H 0.58014 0.505 0.07228 0.0
H36 H 0.63709 0.60336 0.94052 0.0
H37 H 0.65322 0.5581 0.91877 0.0
H38 H 0.68974 0.58389 0.94764 0.0
C39 C 0.92408 0.61458 0.47349 0.0
N40 N 0.95462 0.6375 0.46435 0.0
N41 N 0.91432 0.61848 0.51145 0.0
C42 C 0.89998 0.59257 0.44396 0.0
C43 C 0.94046 0.64446 0.52508 0.0
N44 N 0.96492 0.65597 0.49655 0.0
C45 C 0.93752 0.66321 0.56419 0.0
H46 H 0.87947 0.61367 0.42555 0.0
H47 H 0.88098 0.57136 0.45856 0.0
H48 H 0.92127 0.57676 0.42435 0.0
H49 H 0.93089 0.64134 0.58716 0.0
H50 H 0.91176 0.68633 0.56239 0.0
H51 H 0.96653 0.67665 0.57261 0.0
C52 C 0.89445 0.94765 0.91041 0.0
N53 N 0.92496 0.94022 0.88506 0.0
N54 N 0.86955 0.97952 0.89844 0.0
C55 C 0.88661 0.92155 0.94527 0.0
C56 C 0.88605 0.99153 0.86482 0.0
N57 N 0.91968 0.96789 0.85646 0.0
C58 C 0.86638 1.02335 0.83748 0.0
H59 H 0.88502 0.89094 0.93603 0.0
H60 H 0.85793 0.93097 0.95979 0.0
H61 H 0.91246 0.92219 0.96742 0.0
H62 H 0.89023 0.04207 0.82676 0.0
H63 H 0.84242 0.04174 0.85192 0.0
H64 H 0.85197 1.00988 0.81165 0.0
C65 C 0.71999 0.24848 0.42881 0.0
N66 N 0.73156 0.22079 0.40287 0.0
N67 N 0.68215 0.26579 0.41854 0.0
C68 C 0.74477 0.25767 0.46528 0.0
C69 C 0.67049 0.24717 0.38592 0.0
N70 N 0.70009 0.21937 0.37658 0.0
C71 C 0.63026 0.25644 0.36297 0.0
H72 H 0.76203 0.23095 0.47817 0.0
H73 H 0.72493 0.2707 0.48773 0.0
H74 H 0.7672 0.2792 0.45758 0.0
H75 H 0.63494 0.25498 0.33105 0.0
H76 H 0.6162 0.28578 0.36954 0.0
H77 H 0.60843 0.23441 0.37085 0.0
C78 C 0.44646 0.60607 0.10155 0.0
N79 N 0.48093 0.62517 0.10827 0.0
N80 N 0.42256 0.62326 0.07153 0.0
C81 C 0.43224 0.57505 0.12878 0.0
C82 C 0.44515 0.65234 0.05887 0.0
N83 N 0.48023 0.65391 0.08137 0.0
C84 C 0.42852 0.68435 1.03021 0.0
H85 H 0.45909 0.55783 0.14343 0.0
H86 H 0.41261 0.5554 0.11229 0.0
H87 H 0.41347 0.58899 0.15161 0.0
H88 H 0.41029 0.70696 0.04604 0.0
H89 H 0.40787 0.67251 1.00747 0.0
H90 H 0.45413 0.69827 1.01613 0.0
C91 C 0.1007 0.53765 0.55967 0.0
N92 N 0.13349 0.52415 0.53955 0.0
N93 N 0.11034 0.56772 0.58227 0.0
C94 C 0.0615 0.51709 0.56273 0.0
C95 C 0.1501 0.57257 0.57453 0.0
N96 N 0.1644 0.54577 0.54921 0.0
C97 C 0.17606 0.6009 0.59523 0.0
H98 H 0.0377 0.53514 0.57778 0.0
H99 H 0.06828 0.4889 0.57933 0.0
H100 H 0.04911 0.51059 0.53307 0.0
H101 H 0.18941 0.58702 0.62312 0.0
H102 H 0.15688 0.62758 0.60234 0.0
H103 H 0.2016 0.60927 0.57695 0.0
C104 C 0.11451 0.10174 0.47491 0.0
N105 N 0.08067 0.17192 0.56797 0.0
C106 C 0.11931 0.1849 0.56735 0.0
C107 C 0.12483 0.22471 0.5639 0.0
C108 C 0.0903 0.25154 0.55992 0.0
C109 C 0.05085 0.23786 0.56295 0.0
C110 C 0.04672 0.19766 0.56743 0.0
Zn111 Zn 0.07571 0.11404 0.55509 0.0
C112 C 0.99904 0.10308 0.50477 0.0
N113 N 0.07127 0.9964 0.51888 0.0
C114 C 0.1029 0.97476 0.50335 0.0
C115 C 0.03541 0.98045 0.52695 0.0
C116 C 0.03078 0.94111 0.52094 0.0
C117 C 0.0628 0.91766 0.50512 0.0
C118 C 0.09918 0.9352 0.49589 0.0
Zn119 Zn 0.0755 0.05322 0.53408 0.0
O120 O 0.10687 0.12669 0.50101 0.0
C121 C 0.15106 0.0637 0.58552 0.0
O122 O 0.10508 0.06678 0.48106 0.0
H123 H 1.01043 0.99808 0.53898 0.0
H124 H 0.14602 0.16447 0.5662 0.0
H125 H 0.13117 0.98805 0.49714 0.0
O126 O 0.1335 0.09798 0.58572 0.0
O127 O 0.13428 0.038 0.56529 0.0
H128 H 1.01623 0.18706 0.56763 0.0
O129 O 0.0458 0.04072 0.58638 0.0
O130 O 0.0442 0.09965 0.60959 0.0
O131 O 1.01641 0.06867 0.50421 0.0
O132 O 1.01702 0.12875 0.52391 0.0
C133 C 0.03594 0.06386 0.6133 0.0
H134 H 0.15569 0.23415 0.56118 0.0
H135 H 0.02348 0.25787 0.56013 0.0
H136 H 1.00253 0.92923 0.5297 0.0
H137 H 0.12456 0.91866 0.48315 0.0
C138 C 0.61987 0.06502 0.03295 0.0
N139 N 0.55715 0.17668 0.04015 0.0
C140 C 0.58476 0.18658 1.01331 0.0
C141 C 0.60155 0.22307 1.01433 0.0
C142 C 0.58945 0.24964 0.04297 0.0
C143 C 0.55768 0.24021 0.06721 0.0
C144 C 0.54238 0.20345 0.06571 0.0
Zn145 Zn 0.55054 0.11879 0.05592 0.0
C146 C 0.50382 0.07136 0.99978 0.0
N147 N 0.54251 1.00296 0.1014 0.0
C148 C 0.57798 0.98299 0.11553 0.0
C149 C 0.50727 0.9846 0.09496 0.0
C150 C 0.50749 0.94417 0.10063 0.0
C151 C 0.54434 0.92249 0.11297 0.0
C152 C 0.57959 0.94253 0.12156 0.0
Zn153 Zn 0.54489 0.05954 0.08271 0.0
O154 O 0.60743 0.10092 1.02913 0.0
C155 C 0.59324 0.10649 0.13759 0.0
O156 O 0.59988 0.04249 0.05389 0.0
H157 H 0.47951 1.00105 0.0835 0.0
H158 H 0.59644 0.16524 0.99315 0.0
H159 H 0.60567 0.99819 0.12032 0.0
O160 O 0.58509 0.13033 0.10872 0.0
O161 O 0.58004 0.07251 0.13602 0.0
H162 H 0.52146 0.19556 0.0877 0.0
O163 O 0.48949 0.07592 0.11027 0.0
O164 O 0.49201 0.13461 0.0839 0.0
O165 O 0.50995 0.04786 1.0294 0.0
O166 O 0.51708 0.10548 1.0016 0.0
C167 C 0.47377 0.11077 0.10529 0.0
H168 H 0.62574 0.2292 0.99474 0.0
H169 H 0.5463 0.26021 0.08887 0.0
H170 H 0.47969 0.92987 0.09323 0.0
H171 H 0.60846 0.92696 0.13158 0.0
C172 C 0.56169 0.50573 0.53205 0.0
N173 N 0.53814 0.55495 0.6416 0.0
C174 C 0.51314 0.52713 0.65333 0.0
C175 C 0.50714 0.52058 0.69318 0.0
C176 C 0.5272 0.54284 0.72106 0.0
C177 C 0.55379 0.57044 0.708 0.0
C178 C 0.55863 0.57618 0.66805 0.0
Zn179 Zn 0.54078 0.57124 0.58412 0.0
C180 C 0.62534 0.59201 0.56341 0.0
N181 N 0.54505 0.61093 0.4652 0.0
C182 C 0.5227 0.59087 0.43906 0.0
C183 C 0.56958 0.63904 0.45297 0.0
C184 C 0.57254 0.64753 0.41288 0.0
C185 C 0.54935 0.62739 0.38565 0.0
C186 C 0.52404 0.599 0.39905 0.0
Zn187 Zn 0.54299 0.59407 0.52291 0.0
O188 O 0.55496 0.51232 0.56778 0.0
C189 C 0.45854 0.57193 0.54213 0.0
O190 O 0.55852 0.53431 0.5072 0.0
H191 H 0.58731 0.65447 0.47421 0.0
H192 H 0.49689 0.51079 0.63176 0.0
H193 H 0.50426 0.56795 0.44913 0.0
O194 O 0.47648 0.56369 0.57543 0.0
O195 O 0.47907 0.58582 0.51492 0.0
H196 H 0.57799 0.59846 0.65814 0.0
O197 O 0.52881 0.65373 0.54 0.0
O198 O 0.52657 0.63043 0.60018 0.0
O199 O 0.60587 0.60167 0.53122 0.0
O200 O 0.60593 0.57821 0.59159 0.0
C201 C 0.52365 0.65961 0.57621 0.0
H202 H 0.48633 0.49903 0.70196 0.0
H203 H 0.57077 0.58753 0.72841 0.0
H204 H 0.5924 0.66961 0.40329 0.0
H205 H 0.50613 0.58265 0.37865 0.0
C206 C 1.02017 0.68197 0.99088 0.0
N207 N 1.01925 0.63707 0.10799 0.0
C208 C 0.03124 0.6711 0.12273 0.0
C209 C 0.0243 0.67993 0.16174 0.0
C210 C 1.00545 0.65317 0.18573 0.0
C211 C 0.99262 0.61878 0.16947 0.0
C212 C 0.9996 0.61139 0.13034 0.0
Zn213 Zn 0.03404 0.62046 0.05302 0.0
C214 C 0.96337 0.58573 1.01145 0.0
N215 N 0.06573 0.5801 0.94107 0.0
C216 C 0.08737 0.60647 0.92162 0.0
C217 C 0.04748 0.55128 0.92176 0.0
C218 C 0.04832 0.55001 0.88085 0.0
C219 C 0.06764 0.57897 0.86014 0.0
C220 C 0.08867 0.60644 0.88105 0.0
Zn221 Zn 0.05175 0.5946 0.99673 0.0
O222 O 1.01742 0.67914 1.02794 0.0
C223 C 0.12264 0.62721 0.03932 0.0
O224 O 0.03258 0.65179 0.97288 0.0
H225 H 0.03001 0.53091 0.93769 0.0
H226 H 0.04703 0.69097 0.1045 0.0
H227 H 0.10106 0.62962 0.93717 0.0
O228 O 0.09539 0.63533 0.06396 0.0
O229 O 0.11249 0.61073 1.00794 0.0
H230 H 0.99008 0.58462 0.11806 0.0
O231 O 0.07063 0.53759 1.02076 0.0
O232 O 0.05148 0.56164 0.07663 0.0
O233 O 0.99092 0.57769 0.98707 0.0
O234 O 0.97259 0.60461 0.04168 0.0
C235 C 0.06624 0.53302 0.05741 0.0
H236 H 0.03464 0.70677 0.17334 0.0
H237 H 0.97738 0.59774 0.1869 0.0
H238 H 0.03187 0.52829 0.86548 0.0
H239 H 0.1044 0.62886 0.86601 0.0
H240 H 0.21401 0.24347 0.31732 0.0
H241 H 0.16293 0.1719 0.22824 0.0
H242 H 0.14411 0.12477 0.27925 0.0
H243 H 0.24783 0.16633 0.3932 0.0
H244 H 0.22921 0.19525 0.43284 0.0
H245 H 0.24678 0.2189 0.38948 0.0
H246 H 0.17662 0.25952 0.38058 0.0
H247 H 0.15871 0.23585 0.42369 0.0
H248 H 0.12962 0.23473 0.37766 0.0
H249 H 0.12776 0.08679 0.34021 0.0
H250 H 0.10701 0.06506 0.40543 0.0
H251 H 0.15797 0.16642 0.45652 0.0
C252 C 0.20055 0.21689 0.30875 0.0
C253 C 0.19321 0.20953 0.26847 0.0
C254 C 0.17228 0.17623 0.25849 0.0
C255 C 0.16069 0.14973 0.28744 0.0
C256 C 0.16839 0.15773 0.32679 0.0
C257 C 0.18713 0.19093 0.33757 0.0
C258 C 0.18612 0.19559 0.38178 0.0
C259 C 0.23011 0.19391 0.40043 0.0
C260 C 0.16129 0.23368 0.39149 0.0
C261 C 0.16396 0.15987 0.39409 0.0
C262 C 0.15485 0.13807 0.36189 0.0
C263 C 0.13471 0.10371 0.36558 0.0
C264 C 0.12313 0.09149 0.40291 0.0
C265 C 0.13072 0.11388 0.43635 0.0
C266 C 0.15164 0.14856 0.43166 0.0
H267 H 0.48626 0.99249 0.78061 0.0
H268 H 0.36759 0.95214 0.80823 0.0
H269 H 0.37207 0.98389 0.8725 0.0
H270 H 0.53418 0.97724 0.87493 0.0
H271 H 0.5629 1.02022 0.87346 0.0
H272 H 0.54865 0.99733 0.8286 0.0
H273 H 0.51224 0.06273 0.80147 0.0
H274 H 0.52651 0.08591 0.84623 0.0
H275 H 0.4731 0.08759 0.82933 0.0
H276 H 0.39416 1.01289 0.93746 0.0
H277 H 0.42842 0.04183 0.99472 0.0
H278 H 0.53123 0.06748 0.92426 0.0
C279 C 0.46096 0.99096 0.8 0.0
C280 C 0.4264 0.96986 0.78936 0.0
C281 C 0.39397 0.96849 0.81554 0.0
C282 C 0.39648 0.98626 0.85221 0.0
C283 C 0.43145 1.00593 0.86229 0.0
C284 C 0.46284 1.00895 0.83661 0.0
C285 C 0.49758 0.03087 0.85494 0.0
C286 C 0.53822 1.00486 0.85817 0.0
C287 C 0.50265 0.06905 0.8316 0.0
C288 C 0.48134 0.0391 0.89525 0.0
C289 C 0.44319 1.02423 0.89893 0.0
C290 C 0.42351 1.0254 0.93446 0.0
C291 C 0.44318 0.04195 0.96689 0.0
C292 C 0.48188 0.05799 0.96376 0.0
C293 C 0.50098 0.05673 0.92722 0.0
H294 H 0.56563 0.6006 0.9391 0.0
H295 H 0.58248 0.47592 0.9637 0.0
H296 H 0.54548 0.46352 0.90214 0.0
H297 H 0.46563 0.60108 0.87305 0.0
H298 H 0.48468 0.63684 0.84008 0.0
H299 H 0.49794 0.63741 0.89187 0.0
H300 H 0.57546 0.6338 0.87676 0.0
H301 H 0.56266 0.63265 0.82522 0.0
H302 H 0.59655 0.59413 0.84858 0.0
H303 H 0.52453 0.46257 0.83307 0.0
H304 H 0.5222 0.47341 0.76152 0.0
H305 H 0.52171 0.59851 0.77705 0.0
C306 C 0.55981 0.57092 0.93205 0.0
C307 C 0.57587 0.53938 0.95679 0.0
C308 C 0.56884 0.50069 0.94625 0.0
C309 C 0.54804 0.4933 0.91099 0.0
C310 C 0.53482 0.52485 0.88603 0.0
C311 C 0.54018 0.56303 0.89608 0.0
C312 C 0.53115 0.59081 0.86097 0.0
C313 C 0.49254 0.61815 0.86685 0.0
C314 C 0.56869 0.61418 0.85239 0.0
C315 C 0.52309 0.56195 0.82928 0.0
C316 C 0.52395 0.52423 0.84463 0.0
C317 C 0.52246 0.49207 0.82072 0.0
C318 C 0.52114 0.49851 0.78002 0.0
C319 C 0.52176 0.53679 0.76364 0.0
C320 C 0.52129 0.56889 0.78872 0.0
H321 H 0.99751 0.59436 0.41293 0.0
H322 H 0.92879 0.70537 0.42643 0.0
H323 H 0.941 0.72467 0.35796 0.0
H324 H 0.07274 0.62719 0.34347 0.0
H325 H 0.0707 0.58395 0.31497 0.0
H326 H 0.06197 0.58143 0.36669 0.0
H327 H 0.9915 0.55287 0.352 0.0
H328 H 0.99991 0.55541 0.3003 0.0
H329 H 0.95394 0.57931 0.31895 0.0
H330 H 0.95732 0.73025 0.287 0.0
H331 H 0.97186 0.7198 0.21739 0.0
H332 H 0.02502 0.60287 0.24838 0.0
C333 C 0.98603 0.62301 0.40145 0.0
C334 C 0.96398 0.64926 0.42517 0.0
C335 C 0.94771 0.68591 0.40918 0.0
C336 C 0.9541 0.69685 0.37023 0.0
C337 C 0.97606 0.67036 0.34744 0.0
C338 C 0.99143 0.63401 0.36232 0.0
C339 C 1.01022 0.6095 0.3306 0.0
C340 C 0.05667 0.59997 0.33947 0.0
C341 C 0.98753 0.57207 0.32514 0.0
C342 C 1.00244 0.6375 0.29552 0.0
C343 C 0.98334 0.67269 0.30598 0.0
C344 C 0.97244 0.70289 0.27846 0.0
C345 C 0.98088 0.69678 0.23908 0.0
C346 C 0.99939 0.66055 0.22764 0.0
C347 C 1.0106 0.63077 0.25636 0.0
H348 H 0.30139 0.25694 0.19699 0.0
H349 H 0.2254 0.15879 0.20376 0.0
H350 H 0.28326 0.11502 0.18369 0.0
H351 H 0.3423 0.22952 0.10778 0.0
H352 H 0.39274 0.24657 0.11775 0.0
H353 H 0.34856 0.26907 0.14059 0.0
H354 H 0.3843 0.25453 0.20918 0.0
H355 H 0.42889 0.23239 0.18656 0.0
H356 H 0.40332 0.20519 0.22302 0.0
H357 H 0.34854 0.08228 0.15801 0.0
H358 H 0.41378 0.06389 0.12658 0.0
H359 H 0.44483 0.1847 0.12711 0.0
C360 C 0.29741 0.22599 0.19538 0.0
C361 C 0.25898 0.21124 0.20388 0.0
C362 C 0.25467 0.17077 0.2 0.0
C363 C 0.28745 0.14566 0.18773 0.0
C364 C 0.32431 0.16145 0.17841 0.0
C365 C 0.32938 0.20081 0.18183 0.0
C366 C 0.37018 0.21127 0.16564 0.0
C367 C 0.363 0.24086 0.13088 0.0
C368 C 0.39834 0.22676 0.19804 0.0
C369 C 0.38722 0.17168 0.15232 0.0
C370 C 0.36053 0.14325 0.1606 0.0
C371 C 0.36959 0.10435 0.15143 0.0
C372 C 0.4068 0.09418 0.13352 0.0
C373 C 0.43443 0.12281 0.12408 0.0
C374 C 0.42424 0.16216 0.13357 0.0
H375 H 0.31758 0.92704 0.71548 0.0
H376 H 0.39348 1.02518 0.72125 0.0
H377 H 0.33574 0.06826 0.69027 0.0
H378 H 0.28204 0.9478 0.62102 0.0
H379 H 0.23096 0.93154 0.62592 0.0
H380 H 0.27305 0.91085 0.65761 0.0
H381 H 0.23344 0.93043 0.71896 0.0
H382 H 0.19055 0.95029 0.68757 0.0
H383 H 0.21358 0.98042 0.72358 0.0
H384 H 0.27215 0.09838 0.65064 0.0
H385 H 0.20939 0.11318 0.60769 0.0
H386 H 0.17926 0.99257 0.6201 0.0
C387 C 0.32137 0.95795 0.71149 0.0
C388 C 0.35984 0.97294 0.72101 0.0
C389 C 0.36403 1.01335 0.71494 0.0
C390 C 0.33149 0.03783 0.6969 0.0
C391 C 0.29508 1.02133 0.68492 0.0
C392 C 0.28982 0.98225 0.69228 0.0
C393 C 0.25037 0.97024 0.67207 0.0
C394 C 0.25968 0.93822 0.6424 0.0
C395 C 0.22019 0.95708 0.70236 0.0
C396 C 0.23444 1.00844 0.6515 0.0
C397 C 0.26019 0.03777 0.6599 0.0
C398 C 0.25181 0.07559 0.6441 0.0
C399 C 0.21614 0.08369 0.61957 0.0
C400 C 0.18959 0.05397 0.61014 0.0
C401 C 0.19917 1.01581 0.62629 0.0
H402 H 0.72719 0.56263 0.0576 0.0
H403 H 0.71626 0.50057 0.94979 0.0
H404 H 0.79126 0.50385 0.94081 0.0
H405 H 0.79507 0.62918 1.02457 0.0
H406 H 0.82528 0.63064 0.06994 0.0
H407 H 0.77222 0.61902 0.07057 0.0
H408 H 0.79392 0.55401 0.1089 0.0
H409 H 0.84708 0.56568 0.10888 0.0
H410 H 0.8323 0.52013 0.08961 0.0
H411 H 0.86544 0.51955 0.94067 0.0
H412 H 0.93472 0.54358 0.95052 0.0
H413 H 0.8973 0.59651 0.05855 0.0
C414 C 0.74113 0.54888 0.0328 0.0
C415 C 0.71665 0.53112 1.00446 0.0
C416 C 0.73508 0.51401 0.97177 0.0
C417 C 0.77743 0.51584 0.9665 0.0
C418 C 0.80071 0.53479 0.99434 0.0
C419 C 0.78334 0.55069 1.02707 0.0
C420 C 0.81462 0.57153 0.05127 0.0
C421 C 0.80097 0.61518 0.05424 0.0
C422 C 0.82245 0.55164 0.09208 0.0
C423 C 0.85202 0.56563 1.0266 0.0
C424 C 0.84342 0.54415 0.99405 0.0
C425 C 0.87268 0.53605 0.96626 0.0
C426 C 0.91191 0.55 0.97205 0.0
C427 C 0.92151 0.57196 1.0053 0.0
C428 C 0.89101 0.57977 0.03286 0.0
H429 H 0.83963 0.6468 0.48288 0.0
H430 H 0.90172 0.57425 0.5762 0.0
H431 H 0.83382 0.5625 0.60369 0.0
H432 H 0.75789 0.69062 0.53904 0.0
H433 H 0.71965 0.6899 0.49931 0.0
H434 H 0.77307 0.69383 0.48899 0.0
H435 H 0.7718 0.63267 0.44622 0.0
H436 H 0.71834 0.62878 0.45615 0.0
H437 H 0.75534 0.5878 0.46699 0.0
H438 H 0.75773 0.55793 0.61914 0.0
H439 H 0.68146 0.55782 0.61919 0.0
H440 H 0.67132 0.63236 0.51391 0.0
C441 C 0.83872 0.62832 0.50901 0.0
C442 C 0.8754 0.61109 0.52748 0.0
C443 C 0.87358 0.58752 0.56187 0.0
C444 C 0.83532 0.58084 0.57756 0.0
C445 C 0.79946 0.59812 0.55837 0.0
C446 C 0.80101 0.62125 0.52471 0.0
C447 C 0.7584 0.63525 0.50849 0.0
C448 C 0.75188 0.68006 0.50901 0.0
C449 C 0.75052 0.62021 0.46702 0.0
C450 C 0.73237 0.61605 0.53795 0.0
C451 C 0.75639 0.59508 0.56681 0.0
C452 C 0.73869 0.57437 0.59672 0.0
C453 C 0.69539 0.57457 0.59661 0.0
C454 C 0.67049 0.59502 0.56654 0.0
C455 C 0.68945 0.6164 0.53731 0.0
H456 H 0.20783 0.35708 0.16645 0.0
H457 H 0.09568 0.29908 0.18326 0.0
H458 H 0.05482 0.35496 0.14984 0.0
H459 H 0.16634 0.45611 0.17819 0.0
H460 H 0.19537 0.47661 0.13988 0.0
H461 H 0.21559 0.43283 0.16655 0.0
H462 H 0.2223 0.39677 0.10135 0.0
H463 H 0.20212 0.44047 0.07449 0.0
H464 H 0.17766 0.39541 0.06837 0.0
H465 H 0.02584 0.41823 0.11594 0.0
H466 H 1.01139 0.48225 0.08067 0.0
H467 H 0.14246 0.49739 0.08042 0.0
C468 C 0.17468 0.35621 0.16298 0.0
C469 C 0.15484 0.32396 0.17822 0.0
C470 C 0.1114 0.32385 0.17288 0.0
C471 C 0.088 0.35536 0.15363 0.0
C472 C 0.10845 0.38671 0.1391 0.0
C473 C 0.15088 0.38722 0.14316 0.0
C474 C 0.16531 0.42394 0.12368 0.0
C475 C 0.18693 0.44884 0.15388 0.0
C476 C 0.19352 0.41352 0.08997 0.0
C477 C 0.12437 0.44414 0.1083 0.0
C478 C 0.09194 0.42223 0.11781 0.0
C479 C 0.05105 0.43537 0.10801 0.0
C480 C 0.04309 0.4717 0.08799 0.0
C481 C 0.07578 0.49432 0.07744 0.0
C482 C 0.11696 0.48029 0.08767 0.0
H483 H 0.6659 0.45522 0.98338 0.0
H484 H 0.66027 0.4832 0.10537 0.0
H485 H 0.65721 0.4129 0.12309 0.0
H486 H 0.58992 0.39833 0.98411 0.0
H487 H 0.60817 0.36255 0.95009 0.0
H488 H 0.62544 0.41097 0.9475 0.0
H489 H 0.70175 0.3841 0.95535 0.0
H490 H 0.68515 0.33508 0.95644 0.0
H491 H 0.71822 0.35082 0.99572 0.0
H492 H 0.63994 0.34325 0.12549 0.0
H493 H 0.60983 0.28074 0.11358 0.0
H494 H 0.61893 0.30009 0.98823 0.0
C495 C 0.66712 0.4459 1.01398 0.0
C496 C 0.66492 0.47398 0.04329 0.0
C497 C 0.66348 0.46172 0.08292 0.0
C498 C 0.66143 0.42195 0.09301 0.0
C499 C 0.66059 0.39516 0.06297 0.0
C500 C 0.66378 0.40665 1.02416 0.0
C501 C 0.65375 0.37435 0.99674 0.0
C502 C 0.61715 0.38734 0.96797 0.0
C503 C 0.69201 0.36024 0.97477 0.0
C504 C 0.6423 0.34348 1.02596 0.0
C505 C 0.64761 0.35561 0.06401 0.0
C506 C 0.63617 0.33333 0.09586 0.0
C507 C 0.61847 0.29807 0.08868 0.0
C508 C 0.61133 0.28567 0.04983 0.0
C509 C 0.62434 0.30843 1.01822 0.0
H510 H 0.93375 0.73032 0.49213 0.0
H511 H 0.04791 0.65739 0.50244 0.0
H512 H 0.08767 0.71685 0.50334 0.0
H513 H 0.97198 0.80166 0.42436 0.0
H514 H 0.94165 0.84193 0.44401 0.0
H515 H 0.9234 0.7936 0.44556 0.0
H516 H 0.91725 0.79716 0.52084 0.0
H517 H 0.9354 0.84546 0.51958 0.0
H518 H 0.96169 0.80765 0.55105 0.0
H519 H 0.11327 0.78573 0.50769 0.0
H520 H 0.1231 0.8562 0.51127 0.0
H521 H 0.99145 0.8821 0.48711 0.0
C522 C 0.96715 0.72716 0.49433 0.0
C523 C 0.98819 0.68991 0.4972 0.0
C524 C 0.03173 0.68612 0.50017 0.0
C525 C 0.0543 0.71958 0.50062 0.0
C526 C 0.03254 0.75622 0.49708 0.0
C527 C 0.98991 0.76 0.49336 0.0
C528 C 0.97361 0.80222 0.48863 0.0
C529 C 0.95136 0.81033 0.44824 0.0
C530 C 0.94533 0.81379 0.52202 0.0
C531 C 1.0136 0.82194 0.49162 0.0
C532 C 0.04732 0.79513 0.49672 0.0
C533 C 0.08714 0.80696 0.50295 0.0
C534 C 0.09243 0.84719 0.50462 0.0
C535 C 0.05811 0.87518 0.4996 0.0
C536 C 1.01845 0.86193 0.49192 0.0
H537 H 0.44518 0.8212 0.72746 0.0
H538 H 0.49051 0.9088 0.65032 0.0
H539 H 0.51694 0.85694 0.60678 0.0
H540 H 0.53177 0.74561 0.71563 0.0
H541 H 0.49826 0.70606 0.71753 0.0
H542 H 0.4861 0.74993 0.74373 0.0
H543 H 0.41415 0.75762 0.70765 0.0
H544 H 0.42631 0.71419 0.68088 0.0
H545 H 0.41061 0.75961 0.65481 0.0
H546 H 0.53133 0.79564 0.56795 0.0
H547 H 0.54064 0.72943 0.54121 0.0
H548 H 0.48921 0.68086 0.64538 0.0
C549 C 0.46187 0.8291 0.70203 0.0
C550 C 0.46656 0.86882 0.69237 0.0
C551 C 0.48748 0.87843 0.65838 0.0
C552 C 0.5022 0.84919 0.63342 0.0
C553 C 0.49616 0.81027 0.64308 0.0
C554 C 0.47724 0.80009 0.67703 0.0
C555 C 0.47393 0.75617 0.68022 0.0
C556 C 0.49901 0.7384 0.71643 0.0
C557 C 0.42855 0.74634 0.68092 0.0
C558 C 0.49321 0.74334 0.64251 0.0
C559 C 0.50555 0.77501 0.62133 0.0
C560 C 0.52232 0.7706 0.58461 0.0
C561 C 0.52724 0.73288 0.56949 0.0
C562 C 0.51591 0.69981 0.59116 0.0
C563 C 0.49858 0.70541 0.62816 0.0
H564 H 0.97898 1.0165 0.83814 0.0
H565 H 0.90091 0.93126 0.79033 0.0
H566 H 0.92393 0.94594 0.72407 0.0
H567 H 0.95467 0.08652 0.76132 0.0
H568 H 1.00497 0.10529 0.75998 0.0
H569 H 0.98819 0.08407 0.80489 0.0
H570 H 0.05269 0.03514 0.80931 0.0
H571 H 0.07016 0.0567 0.76484 0.0
H572 H 0.06408 1.00494 0.76829 0.0
H573 H 0.95096 0.97266 0.66271 0.0
H574 H 0.98219 1.00784 0.60933 0.0
H575 H 0.04044 0.08113 0.6936 0.0
C576 C 0.96851 0.99968 0.81382 0.0
C577 C 0.9406 0.9703 0.81992 0.0
C578 C 0.92489 0.95119 0.78698 0.0
C579 C 0.93706 0.96018 0.74902 0.0
C580 C 0.96421 0.98942 0.74396 0.0
C581 C 0.97989 1.00897 0.77536 0.0
C582 C 1.00593 0.04142 0.76102 0.0
C583 C 0.98733 0.08171 0.7725 0.0
C584 C 0.05089 0.03411 0.7768 0.0
C585 C 1.00244 0.03694 0.71671 0.0
C586 C 0.97816 1.00662 0.70785 0.0
C587 C 0.97011 0.99633 0.66935 0.0
C588 C 0.98801 1.01669 0.63912 0.0
C589 C 1.01373 0.04752 0.64692 0.0
C590 C 1.02051 0.05817 0.68646 0.0
H591 H 0.64365 0.16747 0.35837 0.0
H592 H 0.75067 0.22028 0.31602 0.0
H593 H 0.73836 0.1918 0.25092 0.0
H594 H 0.65486 0.07621 0.30043 0.0
H595 H 0.59981 0.07529 0.29219 0.0
H596 H 0.62053 0.09538 0.3364 0.0
H597 H 0.57601 0.16002 0.32094 0.0
H598 H 0.5555 0.14041 0.27651 0.0
H599 H 0.58051 0.18558 0.27465 0.0
H600 H 0.70732 0.16691 0.18794 0.0
H601 H 0.66511 0.14143 0.13381 0.0
H602 H 0.57961 0.101 0.21708 0.0
C603 C 0.66517 0.17186 0.33564 0.0
C604 C 0.69846 0.1957 0.34219 0.0
C605 C 0.7256 0.20152 0.31172 0.0
C606 C 0.71854 0.18569 0.27463 0.0
C607 C 0.68446 0.16357 0.26862 0.0
C608 C 0.65868 0.15595 0.29857 0.0
C609 C 0.62294 0.13314 0.28392 0.0
C610 C 0.62465 0.09259 0.30446 0.0
C611 C 0.58129 0.15617 0.28932 0.0
C612 C 0.63189 0.12997 0.24077 0.0
C613 C 0.66749 0.14788 0.23259 0.0
C614 C 0.68006 0.15196 0.19426 0.0
C615 C 0.65581 0.13748 0.16366 0.0
C616 C 0.61962 0.11845 0.17127 0.0
C617 C 0.6078 0.11432 0.2105 0.0
H618 H 0.44553 0.64975 0.17316 0.0
H619 H 0.56182 0.60705 0.12798 0.0
H620 H 0.59588 0.61138 0.19439 0.0
H621 H 0.48705 0.71677 0.24391 0.0
H622 H 0.44971 0.706 0.27942 0.0
H623 H 0.43663 0.70334 0.2278 0.0
H624 H 0.41766 0.63173 0.23817 0.0
H625 H 0.43022 0.6343 0.28973 0.0
H626 H 0.45509 0.59636 0.26178 0.0
H627 H 0.61476 0.61579 0.26752 0.0
H628 H 0.61596 0.61549 0.34028 0.0
H629 H 0.48603 0.65384 0.33579 0.0
C630 C 0.47814 0.64119 0.17751 0.0
C631 C 0.50118 0.62717 0.14631 0.0
C632 C 0.54393 0.61723 0.15215 0.0
C633 C 0.56334 0.61993 0.1895 0.0
C634 C 0.5394 0.63319 0.22011 0.0
C635 C 0.49766 0.64364 0.2143 0.0
C636 C 0.47784 0.65439 0.25198 0.0
C637 C 0.46187 0.6977 0.25069 0.0
C638 C 0.44318 0.62759 0.26094 0.0
C639 C 0.5145 0.64685 0.28049 0.0
C640 C 0.55004 0.63553 0.26162 0.0
C641 C 0.58726 0.6251 0.28248 0.0
C642 C 0.58777 0.62516 0.32365 0.0
C643 C 0.55115 0.63499 0.34315 0.0
C644 C 0.51446 0.64675 0.32129 0.0
H645 H 0.11102 0.51719 0.64323 0.0
H646 H 0.07357 0.63611 0.60488 0.0
H647 H 0.05132 0.65064 0.67204 0.0
H648 H 0.02831 0.50512 0.7134 0.0
H649 H 0.06288 0.47642 0.74749 0.0
H650 H 0.07068 0.47483 0.69562 0.0
H651 H 0.14554 0.49436 0.70774 0.0
H652 H 0.13801 0.49633 0.75949 0.0
H653 H 0.15437 0.53843 0.7333 0.0
H654 H 0.04095 0.65325 0.74439 0.0
H655 H 0.04195 0.64433 0.81646 0.0
H656 H 0.08546 0.52273 0.80698 0.0
C657 C 0.09694 0.5459 0.64897 0.0
C658 C 0.09318 0.57555 0.61939 0.0
C659 C 0.07601 0.6132 0.6275 0.0
C660 C 0.06336 0.6215 0.66534 0.0
C661 C 0.06803 0.59162 0.6942 0.0
C662 C 0.08414 0.55447 0.68631 0.0
C663 C 0.08896 0.5283 0.72285 0.0
C664 C 0.06103 0.49415 0.71964 0.0
C665 C 0.13441 0.51351 0.73133 0.0
C666 C 0.07417 0.55679 0.75299 0.0
C667 C 0.06192 0.59306 0.73582 0.0
C668 C 0.04985 0.62487 0.75805 0.0
C669 C 0.05076 0.61959 0.79887 0.0
C670 C 0.0637 0.58282 0.81698 0.0
C671 C 0.07482 0.5509 0.79369 0.0
H672 H 0.84071 0.04581 0.93371 0.0
H673 H 0.80586 0.93444 0.89203 0.0
H674 H 0.73757 0.94546 0.92066 0.0
H675 H 0.79231 0.04297 1.02409 0.0
H676 H 0.77399 0.09384 1.02336 0.0
H677 H 0.81937 0.07871 0.99772 0.0
H678 H 0.78622 0.11068 0.93323 0.0
H679 H 0.74086 0.1263 0.95878 0.0
H680 H 0.73617 0.09738 0.91583 0.0
H681 H 0.67739 0.96443 0.95991 0.0
H682 H 0.62342 0.99426 1.00029 0.0
H683 H 0.69263 0.09698 1.01293 0.0
C684 C 0.8182 1.0243 0.93011 0.0
C685 C 0.82831 0.9891 0.91099 0.0
C686 C 0.79842 0.96139 0.90674 0.0
C687 C 0.75975 0.96742 0.92295 0.0
C688 C 0.75101 1.00179 0.94266 0.0
C689 C 0.77888 0.03026 0.94562 0.0
C690 C 0.76123 0.06446 0.96857 0.0
C691 C 0.78835 0.07032 1.00563 0.0
C692 C 0.7558 0.10193 0.94254 0.0
C693 C 0.71968 0.05021 0.97888 0.0
C694 C 0.71479 1.01381 0.96378 0.0
C695 C 0.6805 0.9932 0.97131 0.0
C696 C 0.65015 1.0103 0.99453 0.0
C697 C 0.65371 0.04798 1.00959 0.0
C698 C 0.68889 0.06833 1.0014 0.0
H699 H 0.80933 0.24375 0.41333 0.0
H700 H 0.74006 0.14148 0.40111 0.0
H701 H 0.8033 0.09912 0.42027 0.0
H702 H 0.91147 0.20129 0.38541 0.0
H703 H 0.9384 0.2271 0.42262 0.0
H704 H 0.8902 0.24814 0.40054 0.0
H705 H 0.86049 0.25417 0.46938 0.0
H706 H 0.90832 0.23276 0.49167 0.0
H707 H 0.86061 0.21124 0.50107 0.0
H708 H 0.87358 0.06848 0.44739 0.0
H709 H 0.94234 0.05251 0.48017 0.0
H710 H 0.96287 0.17592 0.4818 0.0
C711 C 0.80768 0.21238 0.41405 0.0
C712 C 0.7697 0.19589 0.40569 0.0
C713 C 0.76888 0.15471 0.40672 0.0
C714 C 0.80463 0.13051 0.41795 0.0
C715 C 0.841 0.14793 0.4283 0.0
C716 C 0.84268 0.18804 0.42631 0.0
C717 C 0.88387 0.19999 0.44282 0.0
C718 C 0.90738 0.22033 0.41094 0.0
C719 C 0.87796 0.22607 0.47834 0.0
C720 C 0.90511 0.16043 0.45505 0.0
C721 C 0.88022 0.13067 0.44578 0.0
C722 C 0.89323 0.09163 0.45456 0.0
C723 C 0.93243 0.08283 0.47325 0.0
C724 C 0.95813 0.11289 0.48378 0.0
C725 C 0.94403 0.15221 0.47436 0.0
H726 H 0.36687 0.59648 1.01909 0.0
H727 H 0.37954 0.66143 0.12508 0.0
H728 H 0.30363 0.67201 0.12702 0.0
H729 H 0.27897 0.6565 0.97592 0.0
H730 H 0.25413 0.61595 0.95544 0.0
H731 H 0.30954 0.61359 0.96212 0.0
H732 H 0.30842 0.54929 1.00368 0.0
H733 H 0.25307 0.55133 0.99687 0.0
H734 H 0.27674 0.5482 0.04566 0.0
H735 H 0.22728 0.67434 0.11844 0.0
H736 H 0.15392 0.66737 0.10044 0.0
H737 H 0.19002 0.60187 0.99899 0.0
C738 C 0.3533 0.61271 0.0426 0.0
C739 C 0.3784 0.62777 0.07228 0.0
C740 C 0.36023 0.64933 0.10256 0.0
C741 C 0.31739 0.65562 0.10373 0.0
C742 C 0.29323 0.64037 0.07415 0.0
C743 C 0.31036 0.61935 0.04414 0.0
C744 C 0.27708 0.6059 1.01635 0.0
C745 C 0.28012 0.62408 0.97501 0.0
C746 C 0.27894 0.56102 1.01562 0.0
C747 C 0.23879 0.62234 0.0357 0.0
C748 C 0.24886 0.64223 0.0689 0.0
C749 C 0.21888 0.65903 0.09237 0.0
C750 C 0.17732 0.65493 0.08191 0.0
C751 C 0.16624 0.63425 0.04827 0.0
C752 C 0.19748 0.6182 1.02468 0.0
H753 H 0.23071 0.52803 0.59837 0.0
H754 H 0.19259 0.55033 0.47654 0.0
H755 H 0.26587 0.55377 0.45983 0.0
H756 H 0.30326 0.59531 0.60275 0.0
H757 H 0.34016 0.56737 0.63528 0.0
H758 H 0.28625 0.55907 0.63645 0.0
H759 H 0.3024 0.48564 0.6237 0.0
H760 H 0.3566 0.49347 0.62322 0.0
H761 H 0.33163 0.4716 0.58207 0.0
H762 H 0.34157 0.56502 0.45875 0.0
H763 H 0.41456 0.57773 0.47176 0.0
H764 H 0.40312 0.54896 0.59522 0.0
C765 C 0.23817 0.53245 0.56807 0.0
C766 C 0.20654 0.53896 0.53855 0.0
C767 C 0.2168 0.54492 0.49923 0.0
C768 C 0.25817 0.54711 0.48967 0.0
C769 C 0.28868 0.54276 0.51986 0.0
C770 C 0.2792 0.53487 0.55821 0.0
C771 C 0.31704 0.53475 0.58572 0.0
C772 C 0.31132 0.56598 0.61687 0.0
C773 C 0.32754 0.49393 0.6048 0.0
C774 C 0.3491 0.54515 0.55712 0.0
C775 C 0.33222 0.54933 0.51925 0.0
C776 C 0.35526 0.56116 0.48817 0.0
C777 C 0.39665 0.56858 0.49594 0.0
C778 C 0.41465 0.56429 0.53452 0.0
C779 C 0.39042 0.55223 0.56538 0.0
H780 H 0.97949 0.91351 0.94361 0.0
H781 H 0.92416 0.8824 0.83264 0.0
H782 H 0.94962 0.81386 0.84536 0.0
H783 H 0.06764 0.8354 0.95293 0.0
H784 H 0.06018 0.82736 1.00443 0.0
H785 H 0.04825 0.87521 0.98185 0.0
H786 H 0.97448 0.87536 1.00715 0.0
H787 H 0.9855 0.82713 1.02885 0.0
H788 H 0.94244 0.83661 0.99399 0.0
H789 H 0.97272 0.74715 0.8739 0.0
H790 H 0.99137 0.68792 0.9151 0.0
H791 H 0.02244 0.75965 1.01306 0.0
C792 C 0.97446 0.89244 0.92126 0.0
C793 C 0.95111 0.90402 0.88621 0.0
C794 C 0.9438 0.87525 0.85843 0.0
C795 C 0.95748 0.83579 0.86597 0.0
C796 C 0.9778 0.8251 0.90195 0.0
C797 C 0.98635 0.85263 0.92922 0.0
C798 C 1.00297 0.83291 0.96785 0.0
C799 C 0.04741 0.84334 0.97732 0.0
C800 C 0.97465 0.84364 1.00143 0.0
C801 C 1.0017 0.78997 0.95831 0.0
C802 C 0.98787 0.7863 0.91981 0.0
C803 C 0.98376 0.74978 0.90397 0.0
C804 C 0.99436 0.71621 0.92777 0.0
C805 C 1.00817 0.7189 0.96751 0.0
C806 C 1.01164 0.7565 0.98297 0.0
H807 H 0.44893 0.71651 0.11757 0.0
H808 H 0.55606 0.66993 0.05912 0.0
H809 H 0.58892 0.73265 0.06793 0.0
H810 H 0.44394 0.81004 0.07509 0.0
H811 H 0.42761 0.83482 0.11819 0.0
H812 H 0.41563 0.7851 0.11117 0.0
H813 H 0.45145 0.76459 0.17858 0.0
H814 H 0.46382 0.81429 0.18592 0.0
H815 H 0.50422 0.77534 0.1887 0.0
H816 H 0.60607 0.80235 0.07778 0.0
H817 H 0.60611 0.87355 0.08574 0.0
H818 H 0.48727 0.87378 0.13886 0.0
C819 C 0.4795 0.71973 0.10709 0.0
C820 C 0.50025 0.68925 0.08747 0.0
C821 C 0.54009 0.69354 0.07403 0.0
C822 C 0.55882 0.72877 0.07914 0.0
C823 C 0.53719 0.7588 0.09813 0.0
C824 C 0.49843 0.75447 0.11203 0.0
C825 C 0.48034 0.79174 0.12897 0.0
C826 C 0.43948 0.80628 0.10703 0.0
C827 C 0.47464 0.78616 0.17317 0.0
C828 C 0.51425 0.81839 0.12109 0.0
C829 C 0.5471 0.79873 0.10392 0.0
C830 C 0.58088 0.81789 0.09181 0.0
C831 C 0.5807 0.85832 0.09665 0.0
C832 C 0.54678 0.87918 0.11315 0.0
C833 C 0.51363 0.85864 0.1262 0.0
H834 H 0.17317 0.46293 0.57834 0.0
H835 H 0.09891 0.49756 0.47361 0.0
H836 H 0.08418 0.42859 0.46387 0.0
H837 H 0.2126 0.36165 0.54515 0.0
H838 H 0.20918 0.34147 0.5941 0.0
H839 H 0.22162 0.39144 0.58681 0.0
H840 H 0.16063 0.41368 0.6291 0.0
H841 H 0.14681 0.36419 0.63535 0.0
H842 H 0.10926 0.40129 0.6149 0.0
H843 H 0.06541 0.35972 0.47415 0.0
H844 H 0.05288 0.29283 0.49733 0.0
H845 H 0.14036 0.30235 0.59539 0.0
C846 C 0.15613 0.45534 0.55206 0.0
C847 C 0.1379 0.48494 0.52608 0.0
C848 C 0.11387 0.47482 0.49302 0.0
C849 C 0.10507 0.43588 0.48762 0.0
C850 C 0.12111 0.40756 0.51538 0.0
C851 C 0.14712 0.41661 0.5464 0.0
C852 C 0.1566 0.38176 0.57444 0.0
C853 C 0.20274 0.36827 0.57515 0.0
C854 C 0.14247 0.3908 0.61587 0.0
C855 C 0.13056 0.3522 0.55525 0.0
C856 C 0.11037 0.36762 0.5212 0.0
C857 C 0.08181 0.34701 0.50023 0.0
C858 C 0.07446 0.30932 0.51388 0.0
C859 C 0.09566 0.29262 0.54809 0.0
C860 C 0.12406 0.3144 0.56895 0.0
H861 H 0.66894 0.34269 0.3972 0.0
H862 H 0.64407 0.25644 0.48618 0.0
H863 H 0.60826 0.30817 0.52424 0.0
H864 H 0.68941 0.4195 0.46171 0.0
H865 H 0.66475 0.45814 0.43019 0.0
H866 H 0.68668 0.41421 0.40933 0.0
H867 H 0.61632 0.40388 0.37415 0.0
H868 H 0.5942 0.4479 0.39482 0.0
H869 H 0.57088 0.40236 0.40239 0.0
H870 H 0.57901 0.37006 0.55433 0.0
H871 H 0.55574 0.43675 0.57315 0.0
H872 H 0.59737 0.48336 0.46348 0.0
C873 C 0.65541 0.3349 0.42448 0.0
C874 C 0.65903 0.29575 0.43899 0.0
C875 C 0.64137 0.28634 0.47482 0.0
C876 C 0.6211 0.31551 0.49651 0.0
C877 C 0.61842 0.35401 0.48175 0.0
C878 C 0.63479 0.36375 0.44638 0.0
C879 C 0.62821 0.40746 0.43749 0.0
C880 C 0.66973 0.42591 0.43452 0.0
C881 C 0.60077 0.41589 0.39998 0.0
C882 C 0.60606 0.42085 0.47355 0.0
C883 C 0.6008 0.38954 0.49873 0.0
C884 C 0.58262 0.39472 0.53463 0.0
C885 C 0.56955 0.43279 0.54512 0.0
C886 C 0.57437 0.46542 0.51977 0.0
C887 C 0.5927 0.45909 0.48336 0.0
loop_
_geom_bond_atom_site_label_1
_geom_bond_atom_site_label_2
_geom_bond_distance
_geom_bond_site_symmetry_2
_ccdc_geom_bond_type
C0 N1 1.317 . S
C0 N2 1.348 . S
C0 C3 1.485 . S
N1 C0 1.317 . S
N1 N5 1.370 . S
N2 C0 1.348 . S
N2 C4 1.346 . S
C3 C0 1.485 . S
C3 H7 0.960 . S
C3 H8 0.961 . S
C3 H9 0.960 . S
C4 N2 1.346 . S
C4 N5 1.307 . S
C4 C6 1.486 . S
N5 N1 1.370 . S
N5 C4 1.307 . S
C6 C4 1.486 . S
C6 H10 0.960 . S
C6 H11 0.960 . S
C6 H12 0.959 . S
H7 C3 0.960 . S
H8 C3 0.961 . S
H9 C3 0.960 . S
H10 C6 0.960 . S
H11 C6 0.960 . S
H12 C6 0.959 . S
C13 N14 1.317 . S
C13 N15 1.348 . S
C13 C16 1.485 . S
N14 C13 1.317 . S
N14 N18 1.370 . S
N15 C13 1.348 . S
N15 C17 1.346 . S
C16 C13 1.485 . S
C16 H20 0.960 . S
C16 H21 0.961 . S
C16 H22 0.960 . S
C17 N15 1.346 . S
C17 N18 1.307 . S
C17 C19 1.486 . S
N18 N14 1.370 . S
N18 C17 1.307 . S
C19 C17 1.486 . S
C19 H23 0.960 . S
C19 H24 0.960 . S
C19 H25 0.959 . S
H20 C16 0.960 . S
H21 C16 0.961 . S
H22 C16 0.960 . S
H23 C19 0.960 . S
H24 C19 0.960 . S
H25 C19 0.959 . S
C26 N27 1.317 . S
C26 N28 1.348 . S
C26 C29 1.485 . S
N27 C26 1.317 . S
N27 N31 1.370 . S
N28 C26 1.348 . S
N28 C30 1.346 . S
C29 C26 1.485 . S
C29 H33 0.960 . S
C29 H34 0.961 . S
C29 H35 0.960 . S
C30 N28 1.346 . S
C30 N31 1.307 . S
C30 C32 1.486 . S
N31 N27 1.370 . S
N31 C30 1.307 . S
C32 C30 1.486 . S
C32 H36 0.960 . S
C32 H37 0.960 . S
C32 H38 0.959 . S
H33 C29 0.960 . S
H34 C29 0.961 . S
H35 C29 0.960 . S
H36 C32 0.960 . S
H37 C32 0.960 . S
H38 C32 0.959 . S
C39 N40 1.317 . S
C39 N41 1.348 . S
C39 C42 1.485 . S
N40 C39 1.317 . S
N40 N44 1.370 . S
N41 C39 1.348 . S
N41 C43 1.346 . S
C42 C39 1.485 . S
C42 H46 0.960 . S
C42 H47 0.961 . S
C42 H48 0.960 . S
C43 N41 1.346 . S
C43 N44 1.307 . S
C43 C45 1.486 . S
N44 N40 1.370 . S
N44 C43 1.307 . S
C45 C43 1.486 . S
C45 H49 0.960 . S
C45 H50 0.960 . S
C45 H51 0.959 . S
H46 C42 0.960 . S
H47 C42 0.961 . S
H48 C42 0.960 . S
H49 C45 0.960 . S
H50 C45 0.960 . S
H51 C45 0.959 . S
C52 N53 1.317 . S
C52 N54 1.348 . S
C52 C55 1.485 . S
N53 C52 1.317 . S
N53 N57 1.370 . S
N54 C52 1.348 . S
N54 C56 1.346 . S
C55 C52 1.485 . S
C55 H59 0.960 . S
C55 H60 0.961 . S
C55 H61 0.960 . S
C56 N54 1.346 . S
C56 N57 1.307 . S
C56 C58 1.486 1_565 S
N57 N53 1.370 . S
N57 C56 1.307 . S
C58 C56 1.486 1_545 S
C58 H62 0.960 . S
C58 H63 0.960 . S
C58 H64 0.959 . S
H59 C55 0.960 . S
H60 C55 0.961 . S
H61 C55 0.960 . S
H62 C58 0.960 . S
H63 C58 0.960 . S
H64 C58 0.959 . S
C65 N66 1.317 . S
C65 N67 1.348 . S
C65 C68 1.485 . S
N66 C65 1.317 . S
N66 N70 1.370 . S
N67 C65 1.348 . S
N67 C69 1.346 . S
C68 C65 1.485 . S
C68 H72 0.960 . S
C68 H73 0.961 . S
C68 H74 0.960 . S
C69 N67 1.346 . S
C69 N70 1.307 . S
C69 C71 1.486 . S
N70 N66 1.370 . S
N70 C69 1.307 . S
C71 C69 1.486 . S
C71 H75 0.960 . S
C71 H76 0.960 . S
C71 H77 0.959 . S
H72 C68 0.960 . S
H73 C68 0.961 . S
H74 C68 0.960 . S
H75 C71 0.960 . S
H76 C71 0.960 . S
H77 C71 0.959 . S
C78 N79 1.317 . S
C78 N80 1.348 . S
C78 C81 1.485 . S
N79 C78 1.317 . S
N79 N83 1.370 . S
N80 C78 1.348 . S
N80 C82 1.346 . S
C81 C78 1.485 . S
C81 H85 0.960 . S
C81 H86 0.961 . S
C81 H87 0.960 . S
C82 N80 1.346 . S
C82 N83 1.307 . S
C82 C84 1.486 . S
N83 N79 1.370 . S
N83 C82 1.307 . S
C84 C82 1.486 . S
C84 H88 0.960 . S
C84 H89 0.960 . S
C84 H90 0.959 . S
H85 C81 0.960 . S
H86 C81 0.961 . S
H87 C81 0.960 . S
H88 C84 0.960 . S
H89 C84 0.960 . S
H90 C84 0.959 . S
C91 N92 1.317 . S
C91 N93 1.348 . S
C91 C94 1.485 . S
N92 C91 1.317 . S
N92 N96 1.370 . S
N93 C91 1.348 . S
N93 C95 1.346 . S
C94 C91 1.485 . S
C94 H98 0.960 . S
C94 H99 0.961 . S
C94 H100 0.960 . S
C95 N93 1.346 . S
C95 N96 1.307 . S
C95 C97 1.486 . S
N96 N92 1.370 . S
N96 C95 1.307 . S
C97 C95 1.486 . S
C97 H101 0.960 . S
C97 H102 0.960 . S
C97 H103 0.959 . S
H98 C94 0.960 . S
H99 C94 0.961 . S
H100 C94 0.960 . S
H101 C97 0.960 . S
H102 C97 0.960 . S
H103 C97 0.959 . S
C104 O120 1.251 . S
C104 O122 1.254 . S
N105 C106 1.333 . S
N105 C110 1.307 . S
N105 Zn111 2.020 . S
C106 N105 1.333 . S
C106 C107 1.379 . S
C106 H124 0.952 . S
C107 C106 1.379 . S
C107 C108 1.390 . S
C107 H134 0.949 . S
C108 C107 1.390 . S
C108 C109 1.357 . S
C109 C108 1.357 . S
C109 C110 1.370 . S
C109 H135 0.950 . S
C110 N105 1.307 . S
C110 C109 1.370 . S
C110 H128 0.948 . S
Zn111 N105 2.020 . S
Zn111 O120 2.039 . S
Zn111 O126 2.034 . S
Zn111 O130 2.025 . S
Zn111 O132 2.024 . S
C112 O131 1.246 1_655 S
C112 O132 1.249 1_655 S
N113 C114 1.307 . S
N113 C115 1.333 . S
N113 Zn119 2.020 1_565 S
C114 N113 1.307 . S
C114 C118 1.370 . S
C114 H125 0.948 . S
C115 N113 1.333 . S
C115 C116 1.379 1_455 S
C115 H123 0.957 . S
C116 C115 1.379 1_655 S
C116 C117 1.390 1_655 S
C116 H136 0.949 . S
C117 C116 1.390 1_455 S
C117 C118 1.357 . S
C118 C114 1.370 . S
C118 C117 1.357 . S
C118 H137 0.950 . S
Zn119 N113 2.020 1_545 S
Zn119 O122 2.025 . S
Zn119 O127 2.024 . S
Zn119 O129 2.039 . S
Zn119 O131 2.034 . S
O120 C104 1.251 . S
O120 Zn111 2.039 . S
C121 O126 1.246 . S
C121 O127 1.249 . S
O122 C104 1.254 . S
O122 Zn119 2.025 . S
H123 C115 0.957 . S
H124 C106 0.952 . S
H125 C114 0.948 . S
O126 Zn111 2.034 . S
O126 C121 1.246 . S
O127 Zn119 2.024 . S
O127 C121 1.249 . S
H128 C110 0.948 . S
O129 Zn119 2.039 . S
O129 C133 1.251 . S
O130 Zn111 2.025 . S
O130 C133 1.254 . S
O131 C112 1.246 1_455 S
O131 Zn119 2.034 . S
O132 Zn111 2.024 . S
O132 C112 1.249 1_455 S
C133 O129 1.251 . S
C133 O130 1.254 . S
H134 C107 0.949 . S
H135 C109 0.950 . S
H136 C116 0.949 . S
H137 C118 0.950 . S
C138 O154 1.251 . S
C138 O156 1.254 . S
N139 C140 1.333 . S
N139 C144 1.307 1_554 S
N139 Zn145 2.020 . S
C140 N139 1.333 . S
C140 C141 1.379 . S
C140 H158 0.952 . S
C141 C140 1.379 . S
C141 C142 1.390 1_554 S
C141 H168 0.949 . S
C142 C141 1.390 1_556 S
C142 C143 1.357 . S
C143 C142 1.357 . S
C143 C144 1.370 . S
C143 H169 0.950 . S
C144 N139 1.307 1_556 S
C144 C143 1.370 . S
C144 H162 0.948 . S
Zn145 N139 2.020 . S
Zn145 O154 2.039 . S
Zn145 O160 2.034 . S
Zn145 O164 2.025 . S
Zn145 O166 2.024 1_554 S
C146 O165 1.244 . S
C146 O166 1.249 . S
N147 C148 1.307 . S
N147 C149 1.333 . S
N147 Zn153 2.020 1_565 S
C148 N147 1.307 . S
C148 C152 1.370 . S
C148 H159 0.948 . S
C149 N147 1.333 . S
C149 C150 1.379 . S
C149 H157 0.952 . S
C150 C149 1.379 . S
C150 C151 1.390 . S
C150 H170 0.949 . S
C151 C150 1.390 . S
C151 C152 1.357 . S
C152 C148 1.370 . S
C152 C151 1.357 . S
C152 H171 0.950 . S
Zn153 N147 2.020 1_545 S
Zn153 O156 2.025 . S
Zn153 O161 2.024 . S
Zn153 O163 2.039 . S
Zn153 O165 2.036 1_554 S
O154 C138 1.251 . S
O154 Zn145 2.039 . S
C155 O160 1.246 . S
C155 O161 1.249 . S
O156 C138 1.254 . S
O156 Zn153 2.025 . S
H157 C149 0.952 . S
H158 C140 0.952 . S
H159 C148 0.948 . S
O160 Zn145 2.034 . S
O160 C155 1.246 . S
O161 Zn153 2.024 . S
O161 C155 1.249 . S
H162 C144 0.948 . S
O163 Zn153 2.039 . S
O163 C167 1.251 . S
O164 Zn145 2.025 . S
O164 C167 1.254 . S
O165 C146 1.244 . S
O165 Zn153 2.036 1_556 S
O166 Zn145 2.024 1_556 S
O166 C146 1.249 . S
C167 O163 1.251 . S
C167 O164 1.254 . S
H168 C141 0.949 . S
H169 C143 0.950 . S
H170 C150 0.949 . S
H171 C152 0.950 . S
C172 O188 1.251 . S
C172 O190 1.254 . S
N173 C174 1.333 . S
N173 C178 1.307 . S
N173 Zn179 2.020 . S
C174 N173 1.333 . S
C174 C175 1.379 . S
C174 H192 0.952 . S
C175 C174 1.379 . S
C175 C176 1.390 . S
C175 H202 0.949 . S
C176 C175 1.390 . S
C176 C177 1.357 . S
C177 C176 1.357 . S
C177 C178 1.370 . S
C177 H203 0.950 . S
C178 N173 1.307 . S
C178 C177 1.370 . S
C178 H196 0.948 . S
Zn179 N173 2.020 . S
Zn179 O188 2.039 . S
Zn179 O194 2.034 . S
Zn179 O198 2.025 . S
Zn179 O200 2.024 . S
C180 O199 1.246 . S
C180 O200 1.249 . S
N181 C182 1.307 . S
N181 C183 1.333 . S
N181 Zn187 2.020 . S
C182 N181 1.307 . S
C182 C186 1.370 . S
C182 H193 0.948 . S
C183 N181 1.333 . S
C183 C184 1.379 . S
C183 H191 0.952 . S
C184 C183 1.379 . S
C184 C185 1.390 . S
C184 H204 0.949 . S
C185 C184 1.390 . S
C185 C186 1.357 . S
C186 C182 1.370 . S
C186 C185 1.357 . S
C186 H205 0.950 . S
Zn187 N181 2.020 . S
Zn187 O190 2.025 . S
Zn187 O195 2.024 . S
Zn187 O197 2.039 . S
Zn187 O199 2.034 . S
O188 C172 1.251 . S
O188 Zn179 2.039 . S
C189 O194 1.246 . S
C189 O195 1.249 . S
O190 C172 1.254 . S
O190 Zn187 2.025 . S
H191 C183 0.952 . S
H192 C174 0.952 . S
H193 C182 0.948 . S
O194 Zn179 2.034 . S
O194 C189 1.246 . S
O195 Zn187 2.024 . S
O195 C189 1.249 . S
H196 C178 0.948 . S
O197 Zn187 2.039 . S
O197 C201 1.251 . S
O198 Zn179 2.025 . S
O198 C201 1.254 . S
O199 C180 1.246 . S
O199 Zn187 2.034 . S
O200 Zn179 2.024 . S
O200 C180 1.249 . S
C201 O197 1.251 . S
C201 O198 1.254 . S
H202 C175 0.949 . S
H203 C177 0.950 . S
H204 C184 0.949 . S
H205 C186 0.950 . S
C206 O222 1.251 1_556 S
C206 O224 1.254 1_655 S
N207 C208 1.333 . S
N207 C212 1.307 . S
N207 Zn213 2.020 1_655 S
C208 N207 1.333 . S
C208 C209 1.379 . S
C208 H226 0.952 . S
C209 C208 1.379 . S
C209 C210 1.390 . S
C209 H236 0.949 . S
C210 C209 1.390 . S
C210 C211 1.357 . S
C211 C210 1.357 . S
C211 C212 1.370 . S
C211 H237 0.950 . S
C212 N207 1.307 . S
C212 C211 1.370 . S
C212 H230 0.948 . S
Zn213 N207 2.020 1_455 S
Zn213 O222 2.039 1_455 S
Zn213 O228 2.034 . S
Zn213 O232 2.025 . S
Zn213 O234 2.024 1_455 S
C214 O233 1.246 . S
C214 O234 1.249 1_556 S
N215 C216 1.307 . S
N215 C217 1.333 . S
N215 Zn221 2.020 . S
C216 N215 1.307 . S
C216 C220 1.370 . S
C216 H227 0.948 . S
C217 N215 1.333 . S
C217 C218 1.379 . S
C217 H225 0.952 . S
C218 C217 1.379 . S
C218 C219 1.390 . S
C218 H238 0.949 . S
C219 C218 1.390 . S
C219 C220 1.357 . S
C220 C216 1.370 . S
C220 C219 1.357 . S
C220 H239 0.950 . S
Zn221 N215 2.020 . S
Zn221 O224 2.025 . S
Zn221 O229 2.024 . S
Zn221 O231 2.038 1_556 S
Zn221 O233 2.034 1_455 S
O222 C206 1.251 1_554 S
O222 Zn213 2.039 1_655 S
C223 O228 1.246 . S
C223 O229 1.249 1_554 S
O224 C206 1.254 1_455 S
O224 Zn221 2.025 . S
H225 C217 0.952 . S
H226 C208 0.952 . S
H227 C216 0.948 . S
O228 Zn213 2.034 . S
O228 C223 1.246 . S
O229 Zn221 2.024 . S
O229 C223 1.249 1_556 S
H230 C212 0.948 . S
O231 Zn221 2.038 1_554 S
O231 C235 1.252 . S
O232 Zn213 2.025 . S
O232 C235 1.254 . S
O233 C214 1.246 . S
O233 Zn221 2.034 1_655 S
O234 Zn213 2.024 1_655 S
O234 C214 1.249 1_554 S
C235 O231 1.252 . S
C235 O232 1.254 . S
H236 C209 0.949 . S
H237 C211 0.950 . S
H238 C218 0.949 . S
H239 C220 0.950 . S
H240 C252 0.930 . S
H241 C254 0.930 . S
H242 C255 0.930 . S
H243 C259 0.959 . S
H244 C259 0.959 . S
H245 C259 0.961 . S
H246 C260 0.960 . S
H247 C260 0.961 . S
H248 C260 0.959 . S
H249 C263 0.929 . S
H250 C264 0.931 . S
H251 C266 0.930 . S
C252 H240 0.930 . S
C252 C253 1.399 . S
C252 C257 1.399 . S
C253 C252 1.399 . S
C253 C254 1.376 . S
C254 H241 0.930 . S
C254 C253 1.376 . S
C254 C255 1.388 . S
C255 H242 0.930 . S
C255 C254 1.388 . S
C255 C256 1.390 . S
C256 C255 1.390 . S
C256 C257 1.394 . S
C256 C262 1.465 . S
C257 C252 1.399 . S
C257 C256 1.394 . S
C257 C258 1.516 . S
C258 C257 1.516 . S
C258 C259 1.502 . S
C258 C260 1.561 . S
C258 C261 1.526 . S
C259 H243 0.959 . S
C259 H244 0.959 . S
C259 H245 0.961 . S
C259 C258 1.502 . S
C260 H246 0.960 . S
C260 H247 0.961 . S
C260 H248 0.959 . S
C260 C258 1.561 . S
C261 C258 1.526 . S
C261 C262 1.396 . S
C261 C266 1.390 . S
C262 C256 1.465 . S
C262 C261 1.396 . S
C262 C263 1.399 . S
C263 H249 0.929 . S
C263 C262 1.399 . S
C263 C264 1.385 . S
C264 H250 0.931 . S
C264 C263 1.385 . S
C264 C265 1.389 . S
C265 C264 1.389 . S
C265 C266 1.387 . S
C266 H251 0.930 . S
C266 C261 1.390 . S
C266 C265 1.387 . S
H267 C279 0.930 . S
H268 C281 0.930 . S
H269 C282 0.930 . S
H270 C286 0.959 . S
H271 C286 0.959 . S
H272 C286 0.961 . S
H273 C287 0.960 . S
H274 C287 0.961 . S
H275 C287 0.959 . S
H276 C290 0.929 . S
H277 C291 0.931 . S
H278 C293 0.930 . S
C279 H267 0.930 . S
C279 C280 1.399 1_545 S
C279 C284 1.399 . S
C280 C279 1.399 1_565 S
C280 C281 1.376 . S
C281 H268 0.930 . S
C281 C280 1.376 . S
C281 C282 1.388 . S
C282 H269 0.930 . S
C282 C281 1.388 . S
C282 C283 1.390 . S
C283 C282 1.390 . S
C283 C284 1.394 1_565 S
C283 C289 1.465 . S
C284 C279 1.399 . S
C284 C283 1.394 1_545 S
C284 C285 1.516 . S
C285 C284 1.516 . S
C285 C286 1.502 . S
C285 C287 1.561 . S
C285 C288 1.526 . S
C286 H270 0.959 . S
C286 H271 0.959 . S
C286 H272 0.961 . S
C286 C285 1.502 . S
C287 H273 0.960 . S
C287 H274 0.961 . S
C287 H275 0.959 . S
C287 C285 1.561 . S
C288 C285 1.526 . S
C288 C289 1.396 1_545 S
C288 C293 1.390 . S
C289 C283 1.465 . S
C289 C288 1.396 1_565 S
C289 C290 1.399 . S
C290 H276 0.929 . S
C290 C289 1.399 . S
C290 C291 1.385 . S
C291 H277 0.931 . S
C291 C290 1.385 . S
C291 C292 1.389 1_565 S
C292 C291 1.389 1_545 S
C292 C293 1.387 . S
C293 H278 0.930 . S
C293 C288 1.390 . S
C293 C292 1.387 . S
H294 C306 0.930 . S
H295 C308 0.930 . S
H296 C309 0.930 . S
H297 C313 0.959 . S
H298 C313 0.959 . S
H299 C313 0.961 . S
H300 C314 0.960 . S
H301 C314 0.961 . S
H302 C314 0.959 . S
H303 C317 0.929 . S
H304 C318 0.931 . S
H305 C320 0.930 . S
C306 H294 0.930 . S
C306 C307 1.399 . S
C306 C311 1.399 . S
C307 C306 1.399 . S
C307 C308 1.376 . S
C308 H295 0.930 . S
C308 C307 1.376 . S
C308 C309 1.388 . S
C309 H296 0.930 . S
C309 C308 1.388 . S
C309 C310 1.390 . S
C310 C309 1.390 . S
C310 C311 1.394 . S
C310 C316 1.465 . S
C311 C306 1.399 . S
C311 C310 1.394 . S
C311 C312 1.516 . S
C312 C311 1.516 . S
C312 C313 1.502 . S
C312 C314 1.561 . S
C312 C315 1.526 . S
C313 H297 0.959 . S
C313 H298 0.959 . S
C313 H299 0.961 . S
C313 C312 1.502 . S
C314 H300 0.960 . S
C314 H301 0.961 . S
C314 H302 0.959 . S
C314 C312 1.561 . S
C315 C312 1.526 . S
C315 C316 1.396 . S
C315 C320 1.390 . S
C316 C310 1.465 . S
C316 C315 1.396 . S
C316 C317 1.399 . S
C317 H303 0.929 . S
C317 C316 1.399 . S
C317 C318 1.385 . S
C318 H304 0.931 . S
C318 C317 1.385 . S
C318 C319 1.389 . S
C319 C318 1.389 . S
C319 C320 1.387 . S
C320 H305 0.930 . S
C320 C315 1.390 . S
C320 C319 1.387 . S
H321 C333 0.930 . S
H322 C335 0.930 . S
H323 C336 0.930 . S
H324 C340 0.959 . S
H325 C340 0.959 . S
H326 C340 0.961 . S
H327 C341 0.960 . S
H328 C341 0.961 . S
H329 C341 0.959 . S
H330 C344 0.929 . S
H331 C345 0.931 . S
H332 C347 0.930 . S
C333 H321 0.930 . S
C333 C334 1.399 . S
C333 C338 1.399 . S
C334 C333 1.399 . S
C334 C335 1.376 . S
C335 H322 0.930 . S
C335 C334 1.376 . S
C335 C336 1.388 . S
C336 H323 0.930 . S
C336 C335 1.388 . S
C336 C337 1.390 . S
C337 C336 1.390 . S
C337 C338 1.394 . S
C337 C343 1.465 . S
C338 C333 1.399 . S
C338 C337 1.394 . S
C338 C339 1.516 . S
C339 C338 1.516 . S
C339 C340 1.502 . S
C339 C341 1.561 . S
C339 C342 1.526 . S
C340 H324 0.959 . S
C340 H325 0.959 . S
C340 H326 0.961 . S
C340 C339 1.502 . S
C341 H327 0.960 . S
C341 H328 0.961 . S
C341 H329 0.959 . S
C341 C339 1.561 . S
C342 C339 1.526 . S
C342 C343 1.396 . S
C342 C347 1.390 . S
C343 C337 1.465 . S
C343 C342 1.396 . S
C343 C344 1.399 . S
C344 H330 0.929 . S
C344 C343 1.399 . S
C344 C345 1.385 . S
C345 H331 0.931 . S
C345 C344 1.385 . S
C345 C346 1.389 . S
C346 C345 1.389 . S
C346 C347 1.387 . S
C347 H332 0.930 . S
C347 C342 1.390 . S
C347 C346 1.387 . S
H348 C360 0.930 . S
H349 C362 0.930 . S
H350 C363 0.930 . S
H351 C367 0.959 . S
H352 C367 0.959 . S
H353 C367 0.961 . S
H354 C368 0.960 . S
H355 C368 0.961 . S
H356 C368 0.959 . S
H357 C371 0.929 . S
H358 C372 0.931 . S
H359 C374 0.930 . S
C360 H348 0.930 . S
C360 C361 1.399 . S
C360 C365 1.399 . S
C361 C360 1.399 . S
C361 C362 1.376 . S
C362 H349 0.930 . S
C362 C361 1.376 . S
C362 C363 1.388 . S
C363 H350 0.930 . S
C363 C362 1.388 . S
C363 C364 1.390 . S
C364 C363 1.390 . S
C364 C365 1.394 . S
C364 C370 1.465 . S
C365 C360 1.399 . S
C365 C364 1.394 . S
C365 C366 1.516 . S
C366 C365 1.516 . S
C366 C367 1.502 . S
C366 C368 1.561 . S
C366 C369 1.526 . S
C367 H351 0.959 . S
C367 H352 0.959 . S
C367 H353 0.961 . S
C367 C366 1.502 . S
C368 H354 0.960 . S
C368 H355 0.961 . S
C368 H356 0.959 . S
C368 C366 1.561 . S
C369 C366 1.526 . S
C369 C370 1.396 . S
C369 C374 1.390 . S
C370 C364 1.465 . S
C370 C369 1.396 . S
C370 C371 1.399 . S
C371 H357 0.929 . S
C371 C370 1.399 . S
C371 C372 1.385 . S
C372 H358 0.931 . S
C372 C371 1.385 . S
C372 C373 1.389 . S
C373 C372 1.389 . S
C373 C374 1.387 . S
C374 H359 0.930 . S
C374 C369 1.390 . S
C374 C373 1.387 . S
H375 C387 0.930 . S
H376 C389 0.930 . S
H377 C390 0.930 . S
H378 C394 0.959 . S
H379 C394 0.959 . S
H380 C394 0.961 . S
H381 C395 0.960 . S
H382 C395 0.961 . S
H383 C395 0.959 . S
H384 C398 0.929 . S
H385 C399 0.931 . S
H386 C401 0.930 . S
C387 H375 0.930 . S
C387 C388 1.399 . S
C387 C392 1.399 . S
C388 C387 1.399 . S
C388 C389 1.376 1_565 S
C389 H376 0.930 . S
C389 C388 1.376 1_545 S
C389 C390 1.388 . S
C390 H377 0.930 . S
C390 C389 1.388 . S
C390 C391 1.390 . S
C391 C390 1.390 . S
C391 C392 1.394 1_545 S
C391 C397 1.465 . S
C392 C387 1.399 . S
C392 C391 1.394 1_565 S
C392 C393 1.516 . S
C393 C392 1.516 . S
C393 C394 1.502 . S
C393 C395 1.561 . S
C393 C396 1.526 . S
C394 H378 0.959 . S
C394 H379 0.959 . S
C394 H380 0.961 . S
C394 C393 1.502 . S
C395 H381 0.960 . S
C395 H382 0.961 . S
C395 H383 0.959 . S
C395 C393 1.561 . S
C396 C393 1.526 . S
C396 C397 1.396 1_565 S
C396 C401 1.390 . S
C397 C391 1.465 . S
C397 C396 1.396 1_545 S
C397 C398 1.399 . S
C398 H384 0.929 . S
C398 C397 1.399 . S
C398 C399 1.385 . S
C399 H385 0.931 . S
C399 C398 1.385 . S
C399 C400 1.389 . S
C400 C399 1.389 . S
C400 C401 1.387 1_545 S
C401 H386 0.930 . S
C401 C396 1.390 . S
C401 C400 1.387 1_565 S
H402 C414 0.930 . S
H403 C416 0.930 . S
H404 C417 0.930 . S
H405 C421 0.959 1_556 S
H406 C421 0.959 . S
H407 C421 0.961 . S
H408 C422 0.960 . S
H409 C422 0.961 . S
H410 C422 0.959 . S
H411 C425 0.929 . S
H412 C426 0.931 . S
H413 C428 0.939 . S
C414 H402 0.930 . S
C414 C415 1.399 . S
C414 C419 1.399 . S
C415 C414 1.399 . S
C415 C416 1.376 . S
C416 H403 0.930 . S
C416 C415 1.376 . S
C416 C417 1.388 . S
C417 H404 0.930 . S
C417 C416 1.388 . S
C417 C418 1.390 . S
C418 C417 1.390 . S
C418 C419 1.394 . S
C418 C424 1.465 . S
C419 C414 1.399 . S
C419 C418 1.394 . S
C419 C420 1.516 1_556 S
C420 C419 1.516 1_554 S
C420 C421 1.502 . S
C420 C422 1.561 . S
C420 C423 1.526 1_554 S
C421 H405 0.959 1_554 S
C421 H406 0.959 . S
C421 H407 0.961 . S
C421 C420 1.502 . S
C422 H408 0.960 . S
C422 H409 0.961 . S
C422 H410 0.959 . S
C422 C420 1.561 . S
C423 C420 1.526 1_556 S
C423 C424 1.396 . S
C423 C428 1.386 1_556 S
C424 C418 1.465 . S
C424 C423 1.396 . S
C424 C425 1.399 . S
C425 H411 0.929 . S
C425 C424 1.399 . S
C425 C426 1.385 . S
C426 H412 0.931 . S
C426 C425 1.385 . S
C426 C427 1.389 . S
C427 C426 1.389 . S
C427 C428 1.381 1_556 S
C428 H413 0.939 . S
C428 C423 1.386 1_554 S
C428 C427 1.381 1_554 S
H429 C441 0.930 . S
H430 C443 0.930 . S
H431 C444 0.930 . S
H432 C448 0.959 . S
H433 C448 0.959 . S
H434 C448 0.961 . S
H435 C449 0.960 . S
H436 C449 0.961 . S
H437 C449 0.959 . S
H438 C452 0.929 . S
H439 C453 0.931 . S
H440 C455 0.930 . S
C441 H429 0.930 . S
C441 C442 1.399 . S
C441 C446 1.399 . S
C442 C441 1.399 . S
C442 C443 1.376 . S
C443 H430 0.930 . S
C443 C442 1.376 . S
C443 C444 1.388 . S
C444 H431 0.930 . S
C444 C443 1.388 . S
C444 C445 1.390 . S
C445 C444 1.390 . S
C445 C446 1.394 . S
C445 C451 1.465 . S
C446 C441 1.399 . S
C446 C445 1.394 . S
C446 C447 1.516 . S
C447 C446 1.516 . S
C447 C448 1.502 . S
C447 C449 1.561 . S
C447 C450 1.526 . S
C448 H432 0.959 . S
C448 H433 0.959 . S
C448 H434 0.961 . S
C448 C447 1.502 . S
C449 H435 0.960 . S
C449 H436 0.961 . S
C449 H437 0.959 . S
C449 C447 1.561 . S
C450 C447 1.526 . S
C450 C451 1.396 . S
C450 C455 1.390 . S
C451 C445 1.465 . S
C451 C450 1.396 . S
C451 C452 1.399 . S
C452 H438 0.929 . S
C452 C451 1.399 . S
C452 C453 1.385 . S
C453 H439 0.931 . S
C453 C452 1.385 . S
C453 C454 1.389 . S
C454 C453 1.389 . S
C454 C455 1.387 . S
C455 H440 0.930 . S
C455 C450 1.390 . S
C455 C454 1.387 . S
H456 C468 0.930 . S
H457 C470 0.930 . S
H458 C471 0.930 . S
H459 C475 0.959 . S
H460 C475 0.959 . S
H461 C475 0.961 . S
H462 C476 0.960 . S
H463 C476 0.961 . S
H464 C476 0.959 . S
H465 C479 0.929 . S
H466 C480 0.931 1_655 S
H467 C482 0.930 . S
C468 H456 0.930 . S
C468 C469 1.399 . S
C468 C473 1.399 . S
C469 C468 1.399 . S
C469 C470 1.376 . S
C470 H457 0.930 . S
C470 C469 1.376 . S
C470 C471 1.388 . S
C471 H458 0.930 . S
C471 C470 1.388 . S
C471 C472 1.390 . S
C472 C471 1.390 . S
C472 C473 1.394 . S
C472 C478 1.465 . S
C473 C468 1.399 . S
C473 C472 1.394 . S
C473 C474 1.516 . S
C474 C473 1.516 . S
C474 C475 1.502 . S
C474 C476 1.561 . S
C474 C477 1.526 . S
C475 H459 0.959 . S
C475 H460 0.959 . S
C475 H461 0.961 . S
C475 C474 1.502 . S
C476 H462 0.960 . S
C476 H463 0.961 . S
C476 H464 0.959 . S
C476 C474 1.561 . S
C477 C474 1.526 . S
C477 C478 1.396 . S
C477 C482 1.390 . S
C478 C472 1.465 . S
C478 C477 1.396 . S
C478 C479 1.399 . S
C479 H465 0.929 . S
C479 C478 1.399 . S
C479 C480 1.385 . S
C480 H466 0.931 1_455 S
C480 C479 1.385 . S
C480 C481 1.389 . S
C481 C480 1.389 . S
C481 C482 1.387 . S
C482 H467 0.930 . S
C482 C477 1.390 . S
C482 C481 1.387 . S
H483 C495 0.930 . S
H484 C497 0.930 . S
H485 C498 0.930 1_554 S
H486 C502 0.959 . S
H487 C502 0.959 . S
H488 C502 0.961 . S
H489 C503 0.960 . S
H490 C503 0.961 . S
H491 C503 0.959 . S
H492 C506 0.929 . S
H493 C507 0.931 . S
H494 C509 0.930 . S
C495 H483 0.930 . S
C495 C496 1.399 . S
C495 C500 1.399 . S
C496 C495 1.399 . S
C496 C497 1.376 . S
C497 H484 0.930 . S
C497 C496 1.376 . S
C497 C498 1.388 . S
C498 H485 0.930 1_556 S
C498 C497 1.388 . S
C498 C499 1.390 . S
C499 C498 1.390 . S
C499 C500 1.394 . S
C499 C505 1.465 . S
C500 C495 1.399 . S
C500 C499 1.394 . S
C500 C501 1.516 . S
C501 C500 1.516 . S
C501 C502 1.502 . S
C501 C503 1.561 . S
C501 C504 1.526 . S
C502 H486 0.959 . S
C502 H487 0.959 . S
C502 H488 0.961 . S
C502 C501 1.502 . S
C503 H489 0.960 . S
C503 H490 0.961 . S
C503 H491 0.959 . S
C503 C501 1.561 . S
C504 C501 1.526 . S
C504 C505 1.396 . S
C504 C509 1.390 . S
C505 C499 1.465 . S
C505 C504 1.396 . S
C505 C506 1.399 1_556 S
C506 H492 0.929 . S
C506 C505 1.399 1_554 S
C506 C507 1.385 . S
C507 H493 0.931 . S
C507 C506 1.385 . S
C507 C508 1.389 1_554 S
C508 C507 1.389 1_556 S
C508 C509 1.387 . S
C509 H494 0.930 . S
C509 C504 1.390 . S
C509 C508 1.387 . S
H510 C522 0.930 . S
H511 C524 0.930 . S
H512 C525 0.930 1_455 S
H513 C529 0.959 . S
H514 C529 0.959 . S
H515 C529 0.961 . S
H516 C530 0.960 . S
H517 C530 0.961 . S
H518 C530 0.959 . S
H519 C533 0.929 . S
H520 C534 0.931 . S
H521 C536 0.930 . S
C522 H510 0.930 . S
C522 C523 1.399 . S
C522 C527 1.399 . S
C523 C522 1.399 . S
C523 C524 1.376 . S
C524 H511 0.930 . S
C524 C523 1.376 . S
C524 C525 1.388 . S
C525 H512 0.930 1_655 S
C525 C524 1.388 . S
C525 C526 1.390 . S
C526 C525 1.390 . S
C526 C527 1.394 . S
C526 C532 1.465 . S
C527 C522 1.399 . S
C527 C526 1.394 . S
C527 C528 1.516 . S
C528 C527 1.516 . S
C528 C529 1.502 . S
C528 C530 1.561 . S
C528 C531 1.526 . S
C529 H513 0.959 . S
C529 H514 0.959 . S
C529 H515 0.961 . S
C529 C528 1.502 . S
C530 H516 0.960 . S
C530 H517 0.961 . S
C530 H518 0.959 . S
C530 C528 1.561 . S
C531 C528 1.526 . S
C531 C532 1.396 . S
C531 C536 1.390 . S
C532 C526 1.465 . S
C532 C531 1.396 . S
C532 C533 1.399 1_655 S
C533 H519 0.929 . S
C533 C532 1.399 1_455 S
C533 C534 1.385 . S
C534 H520 0.931 . S
C534 C533 1.385 . S
C534 C535 1.389 . S
C535 C534 1.389 . S
C535 C536 1.387 1_455 S
C536 H521 0.930 . S
C536 C531 1.390 . S
C536 C535 1.387 1_655 S
H537 C549 0.930 . S
H538 C551 0.930 . S
H539 C552 0.930 . S
H540 C556 0.959 . S
H541 C556 0.959 . S
H542 C556 0.961 . S
H543 C557 0.960 . S
H544 C557 0.961 . S
H545 C557 0.959 . S
H546 C560 0.929 . S
H547 C561 0.931 . S
H548 C563 0.930 . S
C549 H537 0.930 . S
C549 C550 1.399 . S
C549 C554 1.399 . S
C550 C549 1.399 . S
C550 C551 1.376 . S
C551 H538 0.930 . S
C551 C550 1.376 . S
C551 C552 1.388 . S
C552 H539 0.930 . S
C552 C551 1.388 . S
C552 C553 1.390 . S
C553 C552 1.390 . S
C553 C554 1.394 . S
C553 C559 1.465 . S
C554 C549 1.399 . S
C554 C553 1.394 . S
C554 C555 1.516 . S
C555 C554 1.516 . S
C555 C556 1.502 . S
C555 C557 1.561 . S
C555 C558 1.526 . S
C556 H540 0.959 . S
C556 H541 0.959 . S
C556 H542 0.961 . S
C556 C555 1.502 . S
C557 H543 0.960 . S
C557 H544 0.961 . S
C557 H545 0.959 . S
C557 C555 1.561 . S
C558 C555 1.526 . S
C558 C559 1.396 . S
C558 C563 1.390 . S
C559 C553 1.465 . S
C559 C558 1.396 . S
C559 C560 1.399 . S
C560 H546 0.929 . S
C560 C559 1.399 . S
C560 C561 1.385 . S
C561 H547 0.931 . S
C561 C560 1.385 . S
C561 C562 1.389 . S
C562 C561 1.389 . S
C562 C563 1.387 . S
C563 H548 0.930 . S
C563 C558 1.390 . S
C563 C562 1.387 . S
H564 C576 0.930 . S
H565 C578 0.930 . S
H566 C579 0.930 . S
H567 C583 0.959 . S
H568 C583 0.959 . S
H569 C583 0.961 . S
H570 C584 0.960 . S
H571 C584 0.961 . S
H572 C584 0.959 1_455 S
H573 C587 0.929 . S
H574 C588 0.931 . S
H575 C590 0.930 1_655 S
C576 H564 0.930 . S
C576 C577 1.399 1_545 S
C576 C581 1.399 . S
C577 C576 1.399 1_565 S
C577 C578 1.376 . S
C578 H565 0.930 . S
C578 C577 1.376 . S
C578 C579 1.388 1_655 S
C579 H566 0.930 . S
C579 C578 1.388 1_455 S
C579 C580 1.390 1_455 S
C580 C579 1.390 1_655 S
C580 C581 1.394 1_565 S
C580 C586 1.465 1_655 S
C581 C576 1.399 . S
C581 C580 1.394 1_545 S
C581 C582 1.516 . S
C582 C581 1.516 . S
C582 C583 1.502 . S
C582 C584 1.561 . S
C582 C585 1.526 . S
C583 H567 0.959 . S
C583 H568 0.959 . S
C583 H569 0.961 . S
C583 C582 1.502 . S
C584 H570 0.960 . S
C584 H571 0.961 . S
C584 H572 0.959 1_655 S
C584 C582 1.561 . S
C585 C582 1.526 . S
C585 C586 1.396 1_645 S
C585 C590 1.390 1_655 S
C586 C580 1.465 1_455 S
C586 C585 1.396 1_465 S
C586 C587 1.399 . S
C587 H573 0.929 . S
C587 C586 1.399 . S
C587 C588 1.385 . S
C588 H574 0.931 . S
C588 C587 1.385 . S
C588 C589 1.389 1_565 S
C589 C588 1.389 1_545 S
C589 C590 1.387 . S
C590 H575 0.930 1_455 S
C590 C585 1.390 1_455 S
C590 C589 1.387 . S
H591 C603 0.930 . S
H592 C605 0.930 . S
H593 C606 0.930 . S
H594 C610 0.959 . S
H595 C610 0.959 . S
H596 C610 0.961 . S
H597 C611 0.960 . S
H598 C611 0.961 . S
H599 C611 0.959 . S
H600 C614 0.929 . S
H601 C615 0.931 . S
H602 C617 0.930 . S
C603 H591 0.930 . S
C603 C604 1.399 . S
C603 C608 1.399 . S
C604 C603 1.399 . S
C604 C605 1.376 . S
C605 H592 0.930 . S
C605 C604 1.376 . S
C605 C606 1.388 . S
C606 H593 0.930 . S
C606 C605 1.388 . S
C606 C607 1.390 . S
C607 C606 1.390 . S
C607 C608 1.394 . S
C607 C613 1.465 . S
C608 C603 1.399 . S
C608 C607 1.394 . S
C608 C609 1.516 . S
C609 C608 1.516 . S
C609 C610 1.502 . S
C609 C611 1.561 . S
C609 C612 1.526 . S
C610 H594 0.959 . S
C610 H595 0.959 . S
C610 H596 0.961 . S
C610 C609 1.502 . S
C611 H597 0.960 . S
C611 H598 0.961 . S
C611 H599 0.959 . S
C611 C609 1.561 . S
C612 C609 1.526 . S
C612 C613 1.396 . S
C612 C617 1.390 . S
C613 C607 1.465 . S
C613 C612 1.396 . S
C613 C614 1.399 . S
C614 H600 0.929 . S
C614 C613 1.399 . S
C614 C615 1.385 . S
C615 H601 0.931 . S
C615 C614 1.385 . S
C615 C616 1.389 . S
C616 C615 1.389 . S
C616 C617 1.387 . S
C617 H602 0.930 . S
C617 C612 1.390 . S
C617 C616 1.387 . S
H618 C630 0.930 . S
H619 C632 0.930 . S
H620 C633 0.930 . S
H621 C637 0.959 . S
H622 C637 0.959 . S
H623 C637 0.961 . S
H624 C638 0.960 . S
H625 C638 0.961 . S
H626 C638 0.959 . S
H627 C641 0.929 . S
H628 C642 0.931 . S
H629 C644 0.930 . S
C630 H618 0.930 . S
C630 C631 1.399 . S
C630 C635 1.399 . S
C631 C630 1.399 . S
C631 C632 1.376 . S
C632 H619 0.930 . S
C632 C631 1.376 . S
C632 C633 1.388 . S
C633 H620 0.930 . S
C633 C632 1.388 . S
C633 C634 1.390 . S
C634 C633 1.390 . S
C634 C635 1.394 . S
C634 C640 1.465 . S
C635 C630 1.399 . S
C635 C634 1.394 . S
C635 C636 1.516 . S
C636 C635 1.516 . S
C636 C637 1.502 . S
C636 C638 1.561 . S
C636 C639 1.526 . S
C637 H621 0.959 . S
C637 H622 0.959 . S
C637 H623 0.961 . S
C637 C636 1.502 . S
C638 H624 0.960 . S
C638 H625 0.961 . S
C638 H626 0.959 . S
C638 C636 1.561 . S
C639 C636 1.526 . S
C639 C640 1.396 . S
C639 C644 1.390 . S
C640 C634 1.465 . S
C640 C639 1.396 . S
C640 C641 1.399 . S
C641 H627 0.929 . S
C641 C640 1.399 . S
C641 C642 1.385 . S
C642 H628 0.931 . S
C642 C641 1.385 . S
C642 C643 1.389 . S
C643 C642 1.389 . S
C643 C644 1.387 . S
C644 H629 0.930 . S
C644 C639 1.390 . S
C644 C643 1.387 . S
H645 C657 0.930 . S
H646 C659 0.930 . S
H647 C660 0.930 . S
H648 C664 0.959 . S
H649 C664 0.959 . S
H650 C664 0.961 . S
H651 C665 0.960 . S
H652 C665 0.961 . S
H653 C665 0.959 . S
H654 C668 0.929 . S
H655 C669 0.931 . S
H656 C671 0.930 . S
C657 H645 0.930 . S
C657 C658 1.399 . S
C657 C662 1.399 . S
C658 C657 1.399 . S
C658 C659 1.376 . S
C659 H646 0.930 . S
C659 C658 1.376 . S
C659 C660 1.388 . S
C660 H647 0.930 . S
C660 C659 1.388 . S
C660 C661 1.390 . S
C661 C660 1.390 . S
C661 C662 1.394 . S
C661 C667 1.465 . S
C662 C657 1.399 . S
C662 C661 1.394 . S
C662 C663 1.516 . S
C663 C662 1.516 . S
C663 C664 1.502 . S
C663 C665 1.561 . S
C663 C666 1.526 . S
C664 H648 0.959 . S
C664 H649 0.959 . S
C664 H650 0.961 . S
C664 C663 1.502 . S
C665 H651 0.960 . S
C665 H652 0.961 . S
C665 H653 0.959 . S
C665 C663 1.561 . S
C666 C663 1.526 . S
C666 C667 1.396 . S
C666 C671 1.390 . S
C667 C661 1.465 . S
C667 C666 1.396 . S
C667 C668 1.399 . S
C668 H654 0.929 . S
C668 C667 1.399 . S
C668 C669 1.385 . S
C669 H655 0.931 . S
C669 C668 1.385 . S
C669 C670 1.389 . S
C670 C669 1.389 . S
C670 C671 1.387 . S
C671 H656 0.930 . S
C671 C666 1.390 . S
C671 C670 1.387 . S
H672 C684 0.930 . S
H673 C686 0.930 . S
H674 C687 0.930 . S
H675 C691 0.959 . S
H676 C691 0.959 . S
H677 C691 0.961 . S
H678 C692 0.960 . S
H679 C692 0.961 . S
H680 C692 0.959 . S
H681 C695 0.929 . S
H682 C696 0.931 1_565 S
H683 C698 0.930 . S
C684 H672 0.930 . S
C684 C685 1.399 1_545 S
C684 C689 1.399 . S
C685 C684 1.399 1_565 S
C685 C686 1.376 . S
C686 H673 0.930 . S
C686 C685 1.376 . S
C686 C687 1.388 . S
C687 H674 0.930 . S
C687 C686 1.388 . S
C687 C688 1.390 . S
C688 C687 1.390 . S
C688 C689 1.394 1_565 S
C688 C694 1.465 1_565 S
C689 C684 1.399 . S
C689 C688 1.394 1_545 S
C689 C690 1.516 . S
C690 C689 1.516 . S
C690 C691 1.502 1_556 S
C690 C692 1.561 . S
C690 C693 1.526 . S
C691 H675 0.959 . S
C691 H676 0.959 . S
C691 H677 0.961 . S
C691 C690 1.502 1_554 S
C692 H678 0.960 . S
C692 H679 0.961 . S
C692 H680 0.959 . S
C692 C690 1.561 . S
C693 C690 1.526 . S
C693 C694 1.396 . S
C693 C698 1.390 1_556 S
C694 C688 1.465 1_545 S
C694 C693 1.396 . S
C694 C695 1.399 1_545 S
C695 H681 0.929 . S
C695 C694 1.399 1_565 S
C695 C696 1.385 1_565 S
C696 H682 0.931 1_545 S
C696 C695 1.385 1_545 S
C696 C697 1.389 1_556 S
C697 C696 1.389 1_554 S
C697 C698 1.387 . S
C698 H683 0.930 . S
C698 C693 1.390 1_554 S
C698 C697 1.387 . S
H699 C711 0.930 . S
H700 C713 0.930 . S
H701 C714 0.930 . S
H702 C718 0.959 . S
H703 C718 0.959 . S
H704 C718 0.961 . S
H705 C719 0.960 . S
H706 C719 0.961 . S
H707 C719 0.959 . S
H708 C722 0.929 . S
H709 C723 0.931 . S
H710 C725 0.930 . S
C711 H699 0.930 . S
C711 C712 1.399 . S
C711 C716 1.399 . S
C712 C711 1.399 . S
C712 C713 1.376 . S
C713 H700 0.930 . S
C713 C712 1.376 . S
C713 C714 1.388 . S
C714 H701 0.930 . S
C714 C713 1.388 . S
C714 C715 1.390 . S
C715 C714 1.390 . S
C715 C716 1.394 . S
C715 C721 1.465 . S
C716 C711 1.399 . S
C716 C715 1.394 . S
C716 C717 1.516 . S
C717 C716 1.516 . S
C717 C718 1.502 . S
C717 C719 1.561 . S
C717 C720 1.526 . S
C718 H702 0.959 . S
C718 H703 0.959 . S
C718 H704 0.961 . S
C718 C717 1.502 . S
C719 H705 0.960 . S
C719 H706 0.961 . S
C719 H707 0.959 . S
C719 C717 1.561 . S
C720 C717 1.526 . S
C720 C721 1.396 . S
C720 C725 1.390 . S
C721 C715 1.465 . S
C721 C720 1.396 . S
C721 C722 1.399 . S
C722 H708 0.929 . S
C722 C721 1.399 . S
C722 C723 1.385 . S
C723 H709 0.931 . S
C723 C722 1.385 . S
C723 C724 1.389 . S
C724 C723 1.389 . S
C724 C725 1.387 . S
C725 H710 0.930 . S
C725 C720 1.390 . S
C725 C724 1.387 . S
H726 C738 0.930 . S
H727 C740 0.930 . S
H728 C741 0.930 . S
H729 C745 0.959 . S
H730 C745 0.959 . S
H731 C745 0.961 . S
H732 C746 0.960 . S
H733 C746 0.961 . S
H734 C746 0.959 . S
H735 C749 0.929 . S
H736 C750 0.931 . S
H737 C752 0.930 . S
C738 H726 0.930 . S
C738 C739 1.399 . S
C738 C743 1.399 . S
C739 C738 1.399 . S
C739 C740 1.376 . S
C740 H727 0.930 . S
C740 C739 1.376 . S
C740 C741 1.388 . S
C741 H728 0.930 . S
C741 C740 1.388 . S
C741 C742 1.390 . S
C742 C741 1.390 . S
C742 C743 1.394 . S
C742 C748 1.465 . S
C743 C738 1.399 . S
C743 C742 1.394 . S
C743 C744 1.516 . S
C744 C743 1.516 . S
C744 C745 1.502 1_554 S
C744 C746 1.561 . S
C744 C747 1.526 . S
C745 H729 0.959 . S
C745 H730 0.959 . S
C745 H731 0.961 . S
C745 C744 1.502 1_556 S
C746 H732 0.960 . S
C746 H733 0.961 . S
C746 H734 0.959 . S
C746 C744 1.561 . S
C747 C744 1.526 . S
C747 C748 1.396 . S
C747 C752 1.390 . S
C748 C742 1.465 . S
C748 C747 1.396 . S
C748 C749 1.399 . S
C749 H735 0.929 . S
C749 C748 1.399 . S
C749 C750 1.385 . S
C750 H736 0.931 . S
C750 C749 1.385 . S
C750 C751 1.389 . S
C751 C750 1.389 . S
C751 C752 1.387 . S
C752 H737 0.930 . S
C752 C747 1.390 . S
C752 C751 1.387 . S
H753 C765 0.930 . S
H754 C767 0.930 . S
H755 C768 0.930 . S
H756 C772 0.959 . S
H757 C772 0.959 . S
H758 C772 0.961 . S
H759 C773 0.960 . S
H760 C773 0.961 . S
H761 C773 0.959 . S
H762 C776 0.929 . S
H763 C777 0.931 . S
H764 C779 0.930 . S
C765 H753 0.930 . S
C765 C766 1.399 . S
C765 C770 1.399 . S
C766 C765 1.399 . S
C766 C767 1.376 . S
C767 H754 0.930 . S
C767 C766 1.376 . S
C767 C768 1.388 . S
C768 H755 0.930 . S
C768 C767 1.388 . S
C768 C769 1.390 . S
C769 C768 1.390 . S
C769 C770 1.394 . S
C769 C775 1.465 . S
C770 C765 1.399 . S
C770 C769 1.394 . S
C770 C771 1.516 . S
C771 C770 1.516 . S
C771 C772 1.502 . S
C771 C773 1.561 . S
C771 C774 1.526 . S
C772 H756 0.959 . S
C772 H757 0.959 . S
C772 H758 0.961 . S
C772 C771 1.502 . S
C773 H759 0.960 . S
C773 H760 0.961 . S
C773 H761 0.959 . S
C773 C771 1.561 . S
C774 C771 1.526 . S
C774 C775 1.396 . S
C774 C779 1.390 . S
C775 C769 1.465 . S
C775 C774 1.396 . S
C775 C776 1.399 . S
C776 H762 0.929 . S
C776 C775 1.399 . S
C776 C777 1.385 . S
C777 H763 0.931 . S
C777 C776 1.385 . S
C777 C778 1.389 . S
C778 C777 1.389 . S
C778 C779 1.387 . S
C779 H764 0.930 . S
C779 C774 1.390 . S
C779 C778 1.387 . S
H780 C792 0.930 . S
H781 C794 0.930 . S
H782 C795 0.930 . S
H783 C799 0.959 . S
H784 C799 0.959 . S
H785 C799 0.961 . S
H786 C800 0.960 . S
H787 C800 0.961 1_455 S
H788 C800 0.959 . S
H789 C803 0.929 . S
H790 C804 0.931 . S
H791 C806 0.937 1_455 S
C792 H780 0.930 . S
C792 C793 1.399 . S
C792 C797 1.399 . S
C793 C792 1.399 . S
C793 C794 1.376 . S
C794 H781 0.930 . S
C794 C793 1.376 . S
C794 C795 1.388 . S
C795 H782 0.930 . S
C795 C794 1.388 . S
C795 C796 1.390 . S
C796 C795 1.390 . S
C796 C797 1.394 . S
C796 C802 1.465 . S
C797 C792 1.399 . S
C797 C796 1.394 . S
C797 C798 1.516 . S
C798 C797 1.516 . S
C798 C799 1.502 1_655 S
C798 C800 1.561 1_556 S
C798 C801 1.526 . S
C799 H783 0.959 . S
C799 H784 0.959 . S
C799 H785 0.961 . S
C799 C798 1.502 1_455 S
C800 H786 0.960 . S
C800 H787 0.961 1_655 S
C800 H788 0.959 . S
C800 C798 1.561 1_554 S
C801 C798 1.526 . S
C801 C802 1.396 . S
C801 C806 1.390 . S
C802 C796 1.465 . S
C802 C801 1.396 . S
C802 C803 1.399 . S
C803 H789 0.929 . S
C803 C802 1.399 . S
C803 C804 1.385 . S
C804 H790 0.931 . S
C804 C803 1.385 . S
C804 C805 1.389 . S
C805 C804 1.389 . S
C805 C806 1.387 . S
C806 H791 0.937 1_655 S
C806 C801 1.390 . S
C806 C805 1.387 . S
H807 C819 0.930 . S
H808 C821 0.930 . S
H809 C822 0.930 . S
H810 C826 0.959 . S
H811 C826 0.959 . S
H812 C826 0.961 . S
H813 C827 0.960 . S
H814 C827 0.961 . S
H815 C827 0.959 . S
H816 C830 0.929 . S
H817 C831 0.931 . S
H818 C833 0.930 . S
C819 H807 0.930 . S
C819 C820 1.399 . S
C819 C824 1.399 . S
C820 C819 1.399 . S
C820 C821 1.376 . S
C821 H808 0.930 . S
C821 C820 1.376 . S
C821 C822 1.388 . S
C822 H809 0.930 . S
C822 C821 1.388 . S
C822 C823 1.390 . S
C823 C822 1.390 . S
C823 C824 1.394 . S
C823 C829 1.465 . S
C824 C819 1.399 . S
C824 C823 1.394 . S
C824 C825 1.516 . S
C825 C824 1.516 . S
C825 C826 1.502 . S
C825 C827 1.561 . S
C825 C828 1.526 . S
C826 H810 0.959 . S
C826 H811 0.959 . S
C826 H812 0.961 . S
C826 C825 1.502 . S
C827 H813 0.960 . S
C827 H814 0.961 . S
C827 H815 0.959 . S
C827 C825 1.561 . S
C828 C825 1.526 . S
C828 C829 1.396 . S
C828 C833 1.390 . S
C829 C823 1.465 . S
C829 C828 1.396 . S
C829 C830 1.399 . S
C830 H816 0.929 . S
C830 C829 1.399 . S
C830 C831 1.385 . S
C831 H817 0.931 . S
C831 C830 1.385 . S
C831 C832 1.389 . S
C832 C831 1.389 . S
C832 C833 1.387 . S
C833 H818 0.930 . S
C833 C828 1.390 . S
C833 C832 1.387 . S
H834 C846 0.930 . S
H835 C848 0.930 . S
H836 C849 0.930 . S
H837 C853 0.959 . S
H838 C853 0.959 . S
H839 C853 0.961 . S
H840 C854 0.960 . S
H841 C854 0.961 . S
H842 C854 0.959 . S
H843 C857 0.929 . S
H844 C858 0.931 . S
H845 C860 0.930 . S
C846 H834 0.930 . S
C846 C847 1.399 . S
C846 C851 1.399 . S
C847 C846 1.399 . S
C847 C848 1.376 . S
C848 H835 0.930 . S
C848 C847 1.376 . S
C848 C849 1.388 . S
C849 H836 0.930 . S
C849 C848 1.388 . S
C849 C850 1.390 . S
C850 C849 1.390 . S
C850 C851 1.394 . S
C850 C856 1.465 . S
C851 C846 1.399 . S
C851 C850 1.394 . S
C851 C852 1.516 . S
C852 C851 1.516 . S
C852 C853 1.502 . S
C852 C854 1.561 . S
C852 C855 1.526 . S
C853 H837 0.959 . S
C853 H838 0.959 . S
C853 H839 0.961 . S
C853 C852 1.502 . S
C854 H840 0.960 . S
C854 H841 0.961 . S
C854 H842 0.959 . S
C854 C852 1.561 . S
C855 C852 1.526 . S
C855 C856 1.396 . S
C855 C860 1.390 . S
C856 C850 1.465 . S
C856 C855 1.396 . S
C856 C857 1.399 . S
C857 H843 0.929 . S
C857 C856 1.399 . S
C857 C858 1.385 . S
C858 H844 0.931 . S
C858 C857 1.385 . S
C858 C859 1.389 . S
C859 C858 1.389 . S
C859 C860 1.387 . S
C860 H845 0.930 . S
C860 C855 1.390 . S
C860 C859 1.387 . S
H861 C873 0.930 . S
H862 C875 0.930 . S
H863 C876 0.930 . S
H864 C880 0.959 . S
H865 C880 0.959 . S
H866 C880 0.961 . S
H867 C881 0.960 . S
H868 C881 0.961 . S
H869 C881 0.959 . S
H870 C884 0.929 . S
H871 C885 0.931 . S
H872 C887 0.930 . S
C873 H861 0.930 . S
C873 C874 1.399 . S
C873 C878 1.399 . S
C874 C873 1.399 . S
C874 C875 1.376 . S
C875 H862 0.930 . S
C875 C874 1.376 . S
C875 C876 1.388 . S
C876 H863 0.930 . S
C876 C875 1.388 . S
C876 C877 1.390 . S
C877 C876 1.390 . S
C877 C878 1.394 . S
C877 C883 1.465 . S
C878 C873 1.399 . S
C878 C877 1.394 . S
C878 C879 1.516 . S
C879 C878 1.516 . S
C879 C880 1.502 . S
C879 C881 1.561 . S
C879 C882 1.526 . S
C880 H864 0.959 . S
C880 H865 0.959 . S
C880 H866 0.961 . S
C880 C879 1.502 . S
C881 H867 0.960 . S
C881 H868 0.961 . S
C881 H869 0.959 . S
C881 C879 1.561 . S
C882 C879 1.526 . S
C882 C883 1.396 . S
C882 C887 1.390 . S
C883 C877 1.465 . S
C883 C882 1.396 . S
C883 C884 1.399 . S
C884 H870 0.929 . S
C884 C883 1.399 . S
C884 C885 1.385 . S
C885 H871 0.931 . S
C885 C884 1.385 . S
C885 C886 1.389 . S
C886 C885 1.389 . S
C886 C887 1.387 . S
C887 H872 0.930 . S
C887 C882 1.390 . S
C887 C886 1.387 . S
C253 N1 2.170 . S
C265 C104 2.203 . S
C280 N18 2.573 . S
C292 C146 2.623 . S
C319 C176 0.666 . S
C307 N28 0.568 . S
C334 N40 1.132 . S
C346 C210 1.180 . S
C373 C167 2.193 . S
C361 N5 2.170 . S
C400 C121 1.886 . S
C388 N14 1.855 . S
C427 C214 1.281 . S
C415 N31 1.216 . S
C454 C180 0.840 . S
C442 N41 0.902 . S
C469 N2 2.073 . S
C481 C235 2.079 . S
C508 C142 1.155 . S
C496 N27 1.178 . S
C523 N44 1.272 . S
C535 C117 1.270 . S
C550 N15 1.945 . S
C562 C201 1.968 . S
C589 C133 2.608 . S
C577 N57 2.583 . S
C604 N70 1.984 . S
C616 C155 2.049 . S
C631 N79 0.945 . S
C643 C185 0.917 . S
C658 N93 0.833 . S
C670 C219 0.812 . S
C685 N54 1.737 . S
C697 C138 1.747 . S
C724 C112 2.248 . S
C712 N66 2.191 . S
C751 C223 0.679 . S
C739 N80 0.592 . S
C778 C189 1.389 . S
C766 N96 1.333 . S
C793 N53 2.059 . S
C805 C206 2.136 . S
C832 C151 1.141 . S
C820 N83 1.195 . S
C859 C108 1.219 . S
C847 N92 1.204 . S
C874 N67 2.054 . S
C886 C172 2.056 . S
