# Generated by pormake.
# Topology anh, (6,3)-cn, num edge types: 1
# Building blocks:
#     Node 0, Type 0, BuildingBlock: NUHQIS_clean_sbu_0, # of connection points: 6
#     Node 1, Type 0, BuildingBlock: NUHQIS_clean_sbu_0, # of connection points: 6
#     Node 2, Type 0, BuildingBlock: NUHQIS_clean_sbu_0, # of connection points: 6
#     Node 3, Type 1, BuildingBlock: ESEHIV_clean_linker_0, # of connection points: 3
#     Node 4, Type 1, BuildingBlock: ESEHIV_clean_linker_0, # of connection points: 3
#     Node 5, Type 1, BuildingBlock: ESEHIV_clean_linker_0, # of connection points: 3
#     Node 6, Type 1, BuildingBlock: ESEHIV_clean_linker_0, # of connection points: 3
#     Node 7, Type 1, BuildingBlock: ESEHIV_clean_linker_0, # of connection points: 3
#     Node 8, Type 1, BuildingBlock: ESEHIV_clean_linker_0, # of connection points: 3
#     Edge 9, Type (0, 1), BuildingBlock: OJICUG_clean_linker_0, # of connection points: 2
#     Edge 10, Type (0, 1), BuildingBlock: OJICUG_clean_linker_0, # of connection points: 2
#     Edge 11, Type (0, 1), BuildingBlock: OJICUG_clean_linker_0, # of connection points: 2
#     Edge 12, Type (0, 1), BuildingBlock: OJICUG_clean_linker_0, # of connection points: 2
#     Edge 13, Type (0, 1), BuildingBlock: OJICUG_clean_linker_0, # of connection points: 2
#     Edge 14, Type (0, 1), BuildingBlock: OJICUG_clean_linker_0, # of connection points: 2
#     Edge 15, Type (0, 1), BuildingBlock: OJICUG_clean_linker_0, # of connection points: 2
#     Edge 16, Type (0, 1), BuildingBlock: OJICUG_clean_linker_0, # of connection points: 2
#     Edge 17, Type (0, 1), BuildingBlock: OJICUG_clean_linker_0, # of connection points: 2
#     Edge 18, Type (0, 1), BuildingBlock: OJICUG_clean_linker_0, # of connection points: 2
#     Edge 19, Type (0, 1), BuildingBlock: OJICUG_clean_linker_0, # of connection points: 2
#     Edge 20, Type (0, 1), BuildingBlock: OJICUG_clean_linker_0, # of connection points: 2
#     Edge 21, Type (0, 1), BuildingBlock: OJICUG_clean_linker_0, # of connection points: 2
#     Edge 22, Type (0, 1), BuildingBlock: OJICUG_clean_linker_0, # of connection points: 2
#     Edge 23, Type (0, 1), BuildingBlock: OJICUG_clean_linker_0, # of connection points: 2
#     Edge 24, Type (0, 1), BuildingBlock: OJICUG_clean_linker_0, # of connection points: 2
#     Edge 25, Type (0, 1), BuildingBlock: OJICUG_clean_linker_0, # of connection points: 2
#     Edge 26, Type (0, 1), BuildingBlock: OJICUG_clean_linker_0, # of connection points: 2
# Relax obj value: 0.445
# Max RMSD: 0.220
# Mean RMSD: 0.179
data_MOF--net-anh--node1-NUHQIS_clean_sbu_0--node2-ESEHIV_clean_linker_0--edge1-OJICUG_clean_linker_0
_symmetry_space_group_name_H-M    P1
_symmetry_Int_Tables_number       1
_symmetry_cell_setting            triclinic
loop_
_symmetry_equiv_pos_as_xyz
'x, y, z'
_cell_length_a     19.491036
_cell_length_b     19.559456
_cell_length_c     37.653018
_cell_angle_alpha  89.03358
_cell_angle_beta   91.749007
_cell_angle_gamma 120.11124
loop_
_atom_site_label
_atom_site_type_symbol
_atom_site_fract_x
_atom_site_fract_y
_atom_site_fract_z
_atom_type_partial_charge
Tb0 Tb 0.36655 0.72205 0.19044 0.0
Eu1 Eu 0.29148 0.82961 0.16882 0.0
C2 C 0.31518 0.80255 0.24732 0.0
C3 C 1.18229 0.63765 0.18352 0.0
C4 C 0.39573 0.55276 0.19647 0.0
C5 C 0.43185 0.4528 0.18803 0.0
C6 C 0.44196 0.51902 0.20615 0.0
C7 C 0.33417 0.51538 0.17092 0.0
C8 C 0.32387 0.44909 0.1528 0.0
C9 C 0.37573 0.41997 0.15971 0.0
C10 C 0.41672 0.63081 0.21004 0.0
O11 O 0.36616 0.7169 0.13188 0.0
O12 O 0.31675 0.79815 0.11559 0.0
O13 O 0.42422 0.9187 0.1654 0.0
O14 O 0.46685 0.84586 0.19801 0.0
C15 C 0.34463 0.75192 0.10728 0.0
O16 O 1.21328 0.85399 0.135 0.0
O17 O 0.26433 0.92118 0.18313 0.0
O18 O 0.33674 0.85931 0.22437 0.0
O19 O 0.31135 0.73661 0.23768 0.0
O20 O 0.24463 0.6343 0.1737 0.0
O21 O 1.19042 0.70811 0.18881 0.0
C22 C 0.48127 0.91403 0.18328 0.0
O23 O 0.45365 0.68914 0.18782 0.0
O24 O 0.35987 0.63444 0.22545 0.0
C25 C 1.12781 0.86799 0.17187 0.0
C26 C 0.96752 0.75701 0.18132 0.0
C27 C 0.98983 0.81506 0.15461 0.0
C28 C 1.06988 0.8701 0.14977 0.0
C29 C 1.10439 0.81743 0.20159 0.0
C30 C 1.02467 0.76235 0.20633 0.0
C31 C 1.20824 0.89876 0.15883 0.0
H32 H 0.4737 0.4328 0.19384 0.0
H33 H 0.48942 0.54696 0.22594 0.0
H34 H 0.29753 0.54044 0.16322 0.0
H35 H 0.28015 0.4251 0.13125 0.0
H36 H 0.94681 0.81179 0.13479 0.0
H37 H 1.08678 0.90806 0.12656 0.0
H38 H 1.14798 0.81386 0.21877 0.0
H39 H 1.00878 0.71831 0.22711 0.0
Tb40 Tb 0.88007 0.20195 0.51933 0.0
Eu41 Eu 0.69927 1.11837 0.49295 0.0
C42 C 0.74122 1.13093 0.57298 0.0
C43 C 0.7864 1.01341 0.51261 0.0
C44 C 1.06959 0.36876 0.52688 0.0
C45 C 1.06468 0.48947 0.53433 0.0
C46 C 1.06408 0.42313 0.54902 0.0
C47 C 1.09248 0.39084 0.49156 0.0
C48 C 1.09232 0.45655 0.47686 0.0
C49 C 1.07184 0.50236 0.49756 0.0
C50 C 1.024 0.28358 0.53572 0.0
O51 O 0.87606 0.23989 0.46373 0.0
O52 O 0.76997 1.12479 0.44636 0.0
O53 O 0.73545 0.25041 0.49638 0.0
O54 O 0.85012 0.29466 0.52969 0.0
C55 C 0.83142 0.19209 0.438 0.0
O56 O 0.57511 1.02892 0.49903 0.0
O57 O 0.61093 1.10816 0.4534 0.0
O58 O 0.70178 0.14796 0.54948 0.0
O59 O 0.80868 1.1357 0.56496 0.0
O60 O 0.85521 1.07997 0.51078 0.0
O61 O 0.71917 1.01503 0.50986 0.0
C62 C 0.79424 0.30673 0.51552 0.0
O63 O 0.96799 0.26436 0.55851 0.0
O64 O 0.99809 0.23563 0.50849 0.0
C65 C 0.4844 1.06747 0.47717 0.0
C66 C 0.34307 1.07401 0.47733 0.0
C67 C 0.34766 1.01113 0.49397 0.0
C68 C 0.41726 1.00783 0.49367 0.0
C69 C 0.48313 1.13448 0.46382 0.0
C70 C 0.41306 1.13785 0.46405 0.0
C71 C 0.5519 1.05501 0.47176 0.0
H72 H 1.05151 0.5257 0.55108 0.0
H73 H 1.0487 0.40911 0.57664 0.0
H74 H 1.09996 0.35187 0.474 0.0
H75 H 1.10204 0.46786 0.44867 0.0
H76 H 0.29571 0.96005 0.50432 0.0
H77 H 0.41696 0.95595 0.50445 0.0
H78 H 0.53481 0.18237 0.45154 0.0
H79 H 0.41238 0.18785 0.45163 0.0
Tb80 Tb 0.87431 0.74988 0.84858 0.0
Eu81 Eu 0.78066 0.55997 0.84384 0.0
C82 C 0.83084 0.64314 0.91503 0.0
C83 C 0.97566 0.65864 0.84939 0.0
C84 C 0.90961 0.9473 0.86584 0.0
C85 C 0.79325 0.94688 0.88726 0.0
C86 C 0.84587 0.91806 0.88912 0.0
C87 C 0.9265 1.01304 0.84455 0.0
C88 C 0.87334 1.04111 0.84236 0.0
C89 C 0.80279 1.00359 0.86153 0.0
C90 C 0.94295 0.89766 0.85624 0.0
O91 O 0.87154 0.72502 0.79122 0.0
O92 O 0.76927 0.59693 0.78834 0.0
O93 O 0.68415 0.59083 0.85631 0.0
O94 O 0.7504 0.72514 0.84736 0.0
C95 C 0.81856 0.66332 0.77262 0.0
O96 O 0.74318 0.44458 0.82104 0.0
O97 O 0.70121 0.45318 0.87278 0.0
O98 O 0.84651 0.59925 0.89542 0.0
O99 O 0.82014 0.69759 0.89955 0.0
O100 O 0.97124 0.72258 0.85611 0.0
O101 O 0.91116 0.59164 0.83992 0.0
C102 C 0.68429 0.65848 0.85428 0.0
O103 O 0.94385 0.84992 0.8806 0.0
O104 O 0.91583 0.86185 0.82586 0.0
C105 C 0.61212 0.35096 0.83539 0.0
C106 C 0.46596 0.237 0.80529 0.0
C107 C 0.49662 0.31765 0.7975 0.0
C108 C 0.56955 0.37434 0.81238 0.0
C109 C 0.57759 0.27244 0.84649 0.0
C110 C 0.50486 0.21588 0.83179 0.0
C111 C 0.69379 0.40704 0.84657 0.0
H112 H 0.74039 0.91857 0.90301 0.0
H113 H 0.83168 0.86741 0.90594 0.0
H114 H 0.97542 1.03642 0.82645 0.0
H115 H 0.88275 1.0852 0.82235 0.0
H116 H 0.46793 0.33597 0.77752 0.0
H117 H 0.59495 0.43558 0.80429 0.0
H118 H 0.60917 0.25394 0.86481 0.0
H119 H 0.48397 0.15462 0.83851 0.0
H120 H 0.74429 0.14389 0.27782 0.0
H121 H 0.94751 0.37771 0.28371 0.0
H122 H 0.83607 0.27808 0.1817 0.0
C123 C 0.78684 0.19776 0.26469 0.0
C124 C 0.78059 0.20219 0.2275 0.0
C125 C 0.84544 0.26031 0.28545 0.0
C126 C 0.90206 0.32949 0.26798 0.0
C127 C 0.90101 0.33767 0.23047 0.0
C128 C 0.83885 0.27316 0.21032 0.0
H129 H 0.79736 0.7737 0.61087 0.0
H130 H 0.80743 0.55925 0.61305 0.0
H131 H 0.78891 0.65881 0.51237 0.0
C132 C 0.79794 0.72609 0.59679 0.0
C133 C 0.79252 0.72484 0.55928 0.0
C134 C 0.80274 0.66654 0.61645 0.0
C135 C 0.80306 0.60461 0.59791 0.0
C136 C 0.79834 0.59971 0.56043 0.0
C137 C 0.79238 0.66063 0.54112 0.0
H138 H 0.23345 0.68823 0.94701 0.0
H139 H 0.45557 0.69133 0.95374 0.0
H140 H 0.32965 0.65042 0.8526 0.0
C141 C 0.27983 0.68319 0.93424 0.0
C142 C 0.27251 0.66865 0.89743 0.0
C143 C 0.34483 0.691 0.95497 0.0
C144 C 0.40468 0.68388 0.93808 0.0
C145 C 0.40097 0.66912 0.90114 0.0
C146 C 0.33333 0.66041 0.88096 0.0
H147 H 1.07402 0.67566 0.37369 0.0
H148 H 1.18072 0.92596 0.3656 0.0
H149 H 1.01751 0.79877 0.44929 0.0
C150 C 1.07858 0.73026 0.38242 0.0
C151 C 1.04348 0.731 0.41421 0.0
C152 C 1.12762 0.80061 0.3644 0.0
C153 C 1.13672 0.87164 0.37763 0.0
C154 C 1.09815 0.87357 0.40861 0.0
C155 C 1.04724 0.80092 0.42521 0.0
H156 H 0.48116 1.03942 0.68181 0.0
H157 H 0.65919 1.0016 0.7338 0.0
H158 H 0.48635 1.01457 0.79563 0.0
C159 C 0.50485 1.02576 0.70553 0.0
C160 C 0.47188 1.02377 0.73857 0.0
C161 C 0.57376 1.01975 0.70353 0.0
C162 C 0.60594 1.00594 0.73472 0.0
C163 C 0.57352 1.00326 0.76762 0.0
C164 C 0.50643 1.01099 0.76956 0.0
H165 H 0.5808 0.41567 0.02877 0.0
H166 H 0.81238 0.56823 0.07478 0.0
H167 H 0.61816 0.43173 0.14261 0.0
C168 C 0.62035 0.43634 0.05191 0.0
C169 C 0.58995 0.41129 0.08613 0.0
C170 C 0.70101 0.49226 0.0478 0.0
C171 C 0.75117 0.52178 0.07779 0.0
C172 C 0.72103 0.49978 0.11183 0.0
C173 C 0.64132 0.44385 0.116 0.0
C174 C 0.41633 0.32311 0.14223 0.0
C175 C 0.38863 0.37467 0.13215 0.0
H176 H 0.50414 0.29091 0.1331 0.0
C177 C 0.40232 0.40546 0.09739 0.0
H178 H 0.4041 0.29599 0.16833 0.0
C179 C 0.46007 0.40314 0.07737 0.0
C180 C 0.50352 0.36965 0.09211 0.0
H181 H 0.37997 0.44357 0.08819 0.0
H182 H 0.47989 0.43977 0.05377 0.0
C183 C 0.47358 0.32011 0.12197 0.0
C184 C 1.00187 0.53402 0.44918 0.0
C185 C 1.05067 0.55761 0.48005 0.0
H186 H 0.95765 0.5706 0.40443 0.0
C187 C 1.08056 0.63432 0.49307 0.0
H188 H 0.9755 0.47407 0.43935 0.0
C189 C 1.06932 0.68913 0.47337 0.0
C190 C 1.02791 0.66786 0.44039 0.0
H191 H 1.11727 0.65351 0.51709 0.0
H192 H 1.09964 0.74992 0.48236 0.0
C193 C 0.99044 0.58868 0.42953 0.0
C194 C 0.74103 1.07861 0.83451 0.0
C195 C 0.73285 1.00722 0.84751 0.0
H196 H 0.69463 1.13267 0.79863 0.0
C197 C 0.66263 0.93595 0.83933 0.0
H198 H 0.79428 1.13431 0.84044 0.0
C199 C 0.60604 0.9351 0.81553 0.0
C200 C 0.61868 1.00557 0.79987 0.0
H201 H 0.6551 0.87987 0.84824 0.0
H202 H 0.556 0.87899 0.80714 0.0
C203 C 0.68424 1.07771 0.81071 0.0
C204 C 0.89827 0.61279 0.17086 0.0
C205 C 0.89315 0.68113 0.17625 0.0
H206 H 0.84553 0.49945 0.14574 0.0
C207 C 0.82174 0.67955 0.168 0.0
H208 H 0.9532 0.613 0.1764 0.0
C209 C 0.75969 0.61382 0.15095 0.0
C210 C 0.76925 0.54996 0.14157 0.0
H211 H 0.81672 0.73166 0.17176 0.0
H212 H 0.70796 0.61658 0.14164 0.0
C213 C 0.83691 0.54781 0.15325 0.0
C214 C 1.19661 1.00695 0.48486 0.0
C215 C 0.2635 1.06128 0.46603 0.0
H216 H 1.08646 0.9008 0.48127 0.0
C217 C 0.25127 1.07667 0.43046 0.0
H218 H 1.20136 0.9986 0.51316 0.0
C219 C 1.18245 1.02215 0.412 0.0
C220 C 1.1294 0.95017 0.42853 0.0
H221 H 0.29894 1.12226 0.41524 0.0
H222 H 1.17859 1.03042 0.38367 0.0
C223 C 1.12995 0.94999 0.46609 0.0
C224 C 0.43612 0.18882 0.74373 0.0
C225 C 0.41252 0.17558 0.77928 0.0
H226 H 0.47408 0.14691 0.70129 0.0
C227 C 0.36716 1.09679 0.79081 0.0
H228 H 0.46702 0.24809 0.73285 0.0
C229 C 0.37068 1.0373 0.77229 0.0
C230 C 0.41903 1.05761 0.74245 0.0
H231 H 0.34351 1.08389 0.8173 0.0
H232 H 0.34874 0.98013 0.78491 0.0
C233 C 0.44035 1.12984 0.72537 0.0
C234 C 0.85626 0.93161 0.52012 0.0
C235 C 0.7857 0.93571 0.52016 0.0
H236 H 0.91358 0.86303 0.53117 0.0
C237 C 0.71591 0.86572 0.52985 0.0
H238 H 0.9117 0.98336 0.51313 0.0
C239 C 0.71728 0.79619 0.54028 0.0
C240 C 0.78808 0.79279 0.54084 0.0
H241 H 0.66026 0.86538 0.5307 0.0
H242 H 0.66298 0.74553 0.54919 0.0
C243 C 0.85739 0.86182 0.53022 0.0
C244 C 1.06376 0.59423 0.85448 0.0
C245 C 1.05495 0.66172 0.85642 0.0
H246 H 1.13861 0.54308 0.86488 0.0
C247 C 1.12255 0.73257 0.86795 0.0
H248 H 1.01382 0.53822 0.84602 0.0
C249 C 1.19403 0.73522 0.87858 0.0
C250 C 1.20219 0.66751 0.87789 0.0
H251 H 1.11967 0.7862 0.87006 0.0
H252 H 0.24256 0.79027 0.88886 0.0
C253 C 1.13599 0.59707 0.86505 0.0
C254 C 0.62437 0.98443 0.20807 0.0
C255 C 0.56225 0.98859 0.18978 0.0
H256 H 0.74073 1.04618 0.23276 0.0
C257 C 0.57787 1.06533 0.17983 0.0
H258 H 0.61638 0.92761 0.21628 0.0
C259 C 0.65076 1.13464 0.18931 0.0
C260 C 0.71125 1.13016 0.20906 0.0
H261 H 0.53244 1.07228 0.16578 0.0
H262 H 0.65791 0.19197 0.18283 0.0
C263 C 0.69674 1.05322 0.21741 0.0
C264 C 0.74016 0.40431 0.51009 0.0
C265 C 0.79733 0.38505 0.52334 0.0
H266 H 0.69564 0.48619 0.51033 0.0
C267 C 0.85793 0.4416 0.54582 0.0
H268 H 0.69228 0.36326 0.49272 0.0
C269 C 0.86019 0.51217 0.5556 0.0
C270 C 0.80186 0.53055 0.54358 0.0
H271 H 0.90315 0.43039 0.55699 0.0
H272 H 0.90711 0.55185 0.57375 0.0
C273 C 0.74247 0.4757 0.51997 0.0
C274 C 0.61613 0.72983 0.87833 0.0
C275 C 0.60979 0.66135 0.86322 0.0
H276 H 0.55756 0.78608 0.90169 0.0
C277 C 0.53214 0.59584 0.85874 0.0
H278 H 0.67411 0.78088 0.88301 0.0
C279 C 0.46406 0.59919 0.86899 0.0
C280 C 0.47113 0.66753 0.88486 0.0
H281 H 0.5239 0.54155 0.84751 0.0
H282 H 0.40601 0.54712 0.86571 0.0
C283 C 0.54872 0.73267 0.88919 0.0
C284 C 1.04936 0.56073 0.21526 0.0
C285 C 1.1053 0.56119 0.19213 0.0
H286 H 0.94288 0.49227 0.24501 0.0
C287 C 1.08907 0.48652 0.17946 0.0
H288 H 1.05901 0.61588 0.22612 0.0
C289 C 1.02077 0.41487 0.18985 0.0
C290 C 0.96642 0.41441 0.21398 0.0
H291 H 1.13015 0.48316 0.16184 0.0
H292 H 1.01252 0.35933 0.18019 0.0
C293 C 0.98212 0.48916 0.22618 0.0
C294 C 0.37355 0.68558 0.05651 0.0
C295 C 0.34958 0.73822 0.06844 0.0
H296 H 0.3911 0.62928 0.01174 0.0
C297 C 0.32786 0.77724 0.04253 0.0
H298 H 0.39076 0.65432 0.07548 0.0
C299 C 0.32819 0.76302 0.00618 0.0
C300 C 0.35015 0.70911 0.99411 0.0
H301 H 0.30964 0.81874 0.05024 0.0
H302 H 0.31094 0.79458 0.9874 0.0
C303 C 0.37407 0.67142 0.01986 0.0
C304 C 0.91217 0.26462 0.38357 0.0
C305 C 0.83882 0.2175 0.39991 0.0
H306 H 0.97265 0.31402 0.3346 0.0
C307 C 0.76917 0.19132 0.379 0.0
H308 H 0.96698 0.28629 0.39897 0.0
C309 C 0.77212 0.2089 0.34276 0.0
C310 C 0.84496 0.25147 0.32547 0.0
H311 H 0.71148 0.15669 0.39072 0.0
H312 H 0.71642 0.18786 0.32818 0.0
C313 C 0.91525 0.28084 0.34666 0.0
C314 C 0.8596 0.73684 0.71343 0.0
C315 C 0.81483 0.66628 0.73267 0.0
H316 H 0.89094 0.79274 0.66204 0.0
C317 C 0.76536 0.59683 0.71319 0.0
H318 H 0.89823 0.79159 0.72731 0.0
C319 C 0.7614 0.59745 0.67592 0.0
C320 C 0.80632 0.66761 0.65655 0.0
H321 H 0.72958 0.54115 0.72672 0.0
H322 H 0.72231 0.54257 0.66222 0.0
C323 C 0.85505 0.73757 0.67592 0.0
C324 C 0.61861 1.04618 0.60571 0.0
C325 C 0.70151 1.09537 0.60639 0.0
H326 H 0.51359 0.98095 0.63565 0.0
C327 C 0.74335 1.1132 0.63891 0.0
H328 H 0.58511 1.0304 0.58075 0.0
C329 C 0.70202 1.08628 0.67056 0.0
C330 C 0.61836 1.03962 0.67002 0.0
H331 H 0.80724 0.15117 0.63997 0.0
H332 H 0.73556 1.10532 0.69542 0.0
C333 C 0.57755 1.01802 0.63713 0.0
C334 C 0.73401 0.61069 0.96325 0.0
C335 C 0.80242 0.61332 0.95076 0.0
H336 H 0.64626 0.56718 0.00361 0.0
C337 C 0.83609 0.5748 0.96998 0.0
H338 H 0.70607 0.63854 0.94842 0.0
C339 C 0.80181 0.53378 0.00107 0.0
C340 C 0.7324 0.52935 0.01317 0.0
H341 H 0.88832 0.57527 0.96055 0.0
H342 H 0.82924 0.50507 0.01562 0.0
C343 C 0.69888 0.56844 0.99421 0.0
C344 C 0.25326 0.74942 0.3064 0.0
C345 C 0.27413 0.80553 0.27915 0.0
H346 H 1.19433 0.70582 0.35542 0.0
C347 C 0.24825 0.86088 0.28055 0.0
H348 H 0.27253 0.70623 0.30611 0.0
C349 C 1.19953 0.85794 0.30755 0.0
C350 C 1.17785 0.80166 0.33489 0.0
H351 H 0.2627 0.90485 0.25988 0.0
H352 H 1.17794 0.89928 0.30654 0.0
C353 C 1.20684 0.74836 0.3343 0.0
loop_
_geom_bond_atom_site_label_1
_geom_bond_atom_site_label_2
_geom_bond_distance
_geom_bond_site_symmetry_2
_ccdc_geom_bond_type
Tb0 C10 2.825 . S
Tb0 O11 2.347 . S
Tb0 O14 2.366 . S
Tb0 O19 2.418 . S
Tb0 O20 2.384 1_455 S
Tb0 O23 2.479 . S
Tb0 O24 2.471 . S
Eu1 O12 2.418 . S
Eu1 O13 2.384 1_655 S
Eu1 O16 2.479 . S
Eu1 O17 2.471 . S
Eu1 O18 2.347 1_655 S
Eu1 O21 2.366 . S
Eu1 C31 2.825 . S
C2 O18 1.259 . S
C2 O19 1.265 . S
C3 O20 1.255 . S
C3 O21 1.265 . S
C4 C6 1.380 . S
C4 C7 1.374 . S
C4 C10 1.507 . S
C5 C6 1.384 . S
C5 C9 1.387 . S
C5 H32 0.930 . S
C6 C4 1.380 . S
C6 C5 1.384 . S
C6 H33 0.931 . S
C7 C4 1.374 . S
C7 C8 1.390 . S
C7 H34 0.930 . S
C8 C7 1.390 . S
C8 C9 1.391 . S
C8 H35 0.930 . S
C9 C5 1.387 . S
C9 C8 1.391 . S
C10 Tb0 2.825 . S
C10 C4 1.507 . S
C10 O23 1.238 . S
C10 O24 1.247 . S
O11 Tb0 2.347 . S
O11 C15 1.259 . S
O12 Eu1 2.418 . S
O12 C15 1.265 1_655 S
O13 Eu1 2.384 1_455 S
O13 C22 1.255 . S
O14 Tb0 2.366 . S
O14 C22 1.265 . S
C15 O11 1.259 . S
C15 O12 1.265 1_455 S
O16 Eu1 2.479 . S
O16 C31 1.238 . S
O17 Eu1 2.471 . S
O17 C31 1.247 . S
O18 Eu1 2.347 1_455 S
O18 C2 1.259 . S
O19 Tb0 2.418 . S
O19 C2 1.265 . S
O20 Tb0 2.384 1_655 S
O20 C3 1.255 . S
O21 Eu1 2.366 . S
O21 C3 1.265 . S
C22 O13 1.255 . S
C22 O14 1.265 . S
O23 Tb0 2.479 . S
O23 C10 1.238 . S
O24 Tb0 2.471 . S
O24 C10 1.247 . S
C25 C28 1.380 . S
C25 C29 1.374 . S
C25 C31 1.507 . S
C26 C27 1.387 . S
C26 C30 1.391 . S
C27 C26 1.387 . S
C27 C28 1.384 . S
C27 H36 0.930 . S
C28 C25 1.380 . S
C28 C27 1.384 . S
C28 H37 0.931 . S
C29 C25 1.374 . S
C29 C30 1.390 . S
C29 H38 0.930 . S
C30 C26 1.391 . S
C30 C29 1.390 . S
C30 H39 0.930 . S
C31 Eu1 2.825 . S
C31 O16 1.238 . S
C31 O17 1.247 . S
C31 C25 1.507 . S
H32 C5 0.930 . S
H33 C6 0.931 . S
H34 C7 0.930 . S
H35 C8 0.930 . S
H36 C27 0.930 . S
H37 C28 0.931 . S
H38 C29 0.930 . S
H39 C30 0.930 . S
Tb40 C50 2.825 . S
Tb40 O51 2.347 . S
Tb40 O54 2.366 . S
Tb40 O59 2.418 . S
Tb40 O60 2.384 1_545 S
Tb40 O63 2.479 . S
Tb40 O64 2.471 . S
Eu41 O52 2.418 . S
Eu41 O53 2.384 . S
Eu41 O56 2.479 1_545 S
Eu41 O57 2.471 1_545 S
Eu41 O58 2.347 . S
Eu41 O61 2.366 1_545 S
Eu41 C71 2.825 1_545 S
C42 O58 1.259 . S
C42 O59 1.265 . S
C43 O60 1.255 . S
C43 O61 1.265 . S
C44 C46 1.380 . S
C44 C47 1.374 . S
C44 C50 1.507 . S
C45 C46 1.384 . S
C45 C49 1.387 . S
C45 H72 0.930 . S
C46 C44 1.380 . S
C46 C45 1.384 . S
C46 H73 0.931 . S
C47 C44 1.374 . S
C47 C48 1.390 . S
C47 H74 0.930 . S
C48 C47 1.390 . S
C48 C49 1.391 . S
C48 H75 0.930 . S
C49 C45 1.387 . S
C49 C48 1.391 . S
C50 Tb40 2.825 . S
C50 C44 1.507 . S
C50 O63 1.238 . S
C50 O64 1.247 . S
O51 Tb40 2.347 . S
O51 C55 1.259 . S
O52 Eu41 2.418 . S
O52 C55 1.265 . S
O53 Eu41 2.384 . S
O53 C62 1.255 . S
O54 Tb40 2.366 . S
O54 C62 1.265 . S
C55 O51 1.259 . S
C55 O52 1.265 . S
O56 Eu41 2.479 1_565 S
O56 C71 1.238 . S
O57 Eu41 2.471 1_565 S
O57 C71 1.247 . S
O58 Eu41 2.347 . S
O58 C42 1.259 . S
O59 Tb40 2.418 . S
O59 C42 1.265 . S
O60 Tb40 2.384 1_565 S
O60 C43 1.255 . S
O61 Eu41 2.366 1_565 S
O61 C43 1.265 . S
C62 O53 1.255 . S
C62 O54 1.265 . S
O63 Tb40 2.479 . S
O63 C50 1.238 . S
O64 Tb40 2.471 . S
O64 C50 1.247 . S
C65 C68 1.380 . S
C65 C69 1.374 . S
C65 C71 1.507 . S
C66 C67 1.387 . S
C66 C70 1.391 . S
C67 C66 1.387 . S
C67 C68 1.384 . S
C67 H76 0.930 . S
C68 C65 1.380 . S
C68 C67 1.384 . S
C68 H77 0.931 . S
C69 C65 1.374 . S
C69 C70 1.390 . S
C69 H78 0.930 . S
C70 C66 1.391 . S
C70 C69 1.390 . S
C70 H79 0.930 . S
C71 Eu41 2.825 1_565 S
C71 O56 1.238 . S
C71 O57 1.247 . S
C71 C65 1.507 . S
H72 C45 0.930 . S
H73 C46 0.931 . S
H74 C47 0.930 . S
H75 C48 0.930 . S
H76 C67 0.930 . S
H77 C68 0.931 . S
H78 C69 0.930 . S
H79 C70 0.930 . S
Tb80 C90 2.825 . S
Tb80 O91 2.347 . S
Tb80 O94 2.366 . S
Tb80 O99 2.418 . S
Tb80 O100 2.384 . S
Tb80 O103 2.479 . S
Tb80 O104 2.471 . S
Eu81 O92 2.418 . S
Eu81 O93 2.384 . S
Eu81 O96 2.479 . S
Eu81 O97 2.471 . S
Eu81 O98 2.347 . S
Eu81 O101 2.366 . S
Eu81 C111 2.825 . S
C82 O98 1.259 . S
C82 O99 1.265 . S
C83 O100 1.255 . S
C83 O101 1.265 . S
C84 C86 1.380 . S
C84 C87 1.374 . S
C84 C90 1.507 . S
C85 C86 1.384 . S
C85 C89 1.387 . S
C85 H112 0.930 . S
C86 C84 1.380 . S
C86 C85 1.384 . S
C86 H113 0.931 . S
C87 C84 1.374 . S
C87 C88 1.390 . S
C87 H114 0.930 . S
C88 C87 1.390 . S
C88 C89 1.391 . S
C88 H115 0.930 . S
C89 C85 1.387 . S
C89 C88 1.391 . S
C90 Tb80 2.825 . S
C90 C84 1.507 . S
C90 O103 1.238 . S
C90 O104 1.247 . S
O91 Tb80 2.347 . S
O91 C95 1.259 . S
O92 Eu81 2.418 . S
O92 C95 1.265 . S
O93 Eu81 2.384 . S
O93 C102 1.255 . S
O94 Tb80 2.366 . S
O94 C102 1.265 . S
C95 O91 1.259 . S
C95 O92 1.265 . S
O96 Eu81 2.479 . S
O96 C111 1.238 . S
O97 Eu81 2.471 . S
O97 C111 1.247 . S
O98 Eu81 2.347 . S
O98 C82 1.259 . S
O99 Tb80 2.418 . S
O99 C82 1.265 . S
O100 Tb80 2.384 . S
O100 C83 1.255 . S
O101 Eu81 2.366 . S
O101 C83 1.265 . S
C102 O93 1.255 . S
C102 O94 1.265 . S
O103 Tb80 2.479 . S
O103 C90 1.238 . S
O104 Tb80 2.471 . S
O104 C90 1.247 . S
C105 C108 1.380 . S
C105 C109 1.374 . S
C105 C111 1.507 . S
C106 C107 1.387 . S
C106 C110 1.391 . S
C107 C106 1.387 . S
C107 C108 1.384 . S
C107 H116 0.930 . S
C108 C105 1.380 . S
C108 C107 1.384 . S
C108 H117 0.931 . S
C109 C105 1.374 . S
C109 C110 1.390 . S
C109 H118 0.930 . S
C110 C106 1.391 . S
C110 C109 1.390 . S
C110 H119 0.930 . S
C111 Eu81 2.825 . S
C111 O96 1.238 . S
C111 O97 1.247 . S
C111 C105 1.507 . S
H112 C85 0.930 . S
H113 C86 0.931 . S
H114 C87 0.930 . S
H115 C88 0.930 . S
H116 C107 0.930 . S
H117 C108 0.931 . S
H118 C109 0.930 . S
H119 C110 0.930 . S
H120 C123 0.931 . S
H121 C126 0.928 . S
H122 C128 0.930 . S
C123 H120 0.931 . S
C123 C124 1.413 . S
C123 C125 1.360 1_565 S
C124 C123 1.413 . S
C124 C128 1.429 1_565 S
C125 C123 1.360 1_545 S
C125 C126 1.372 . S
C126 H121 0.928 . S
C126 C125 1.372 . S
C126 C127 1.404 . S
C127 C126 1.404 . S
C127 C128 1.391 . S
C128 H122 0.930 . S
C128 C124 1.429 1_545 S
C128 C127 1.391 . S
H129 C132 0.931 . S
H130 C135 0.928 . S
H131 C137 0.930 . S
C132 H129 0.931 . S
C132 C133 1.413 . S
C132 C134 1.360 . S
C133 C132 1.413 . S
C133 C137 1.429 . S
C134 C132 1.360 . S
C134 C135 1.372 . S
C135 H130 0.928 . S
C135 C134 1.372 . S
C135 C136 1.404 . S
C136 C135 1.404 . S
C136 C137 1.391 . S
C137 H131 0.930 . S
C137 C133 1.429 . S
C137 C136 1.391 . S
H138 C141 0.931 . S
H139 C144 0.928 . S
H140 C146 0.930 . S
C141 H138 0.931 . S
C141 C142 1.413 . S
C141 C143 1.360 1_655 S
C142 C141 1.413 . S
C142 C146 1.429 1_655 S
C143 C141 1.360 1_455 S
C143 C144 1.372 . S
C144 H139 0.928 . S
C144 C143 1.372 . S
C144 C145 1.404 . S
C145 C144 1.404 . S
C145 C146 1.391 . S
C146 H140 0.930 . S
C146 C142 1.429 1_455 S
C146 C145 1.391 . S
H147 C150 0.931 . S
H148 C153 0.928 . S
H149 C155 0.930 . S
C150 H147 0.931 . S
C150 C151 1.413 . S
C150 C152 1.360 1_655 S
C151 C150 1.413 . S
C151 C155 1.429 1_655 S
C152 C150 1.360 1_455 S
C152 C153 1.372 . S
C153 H148 0.928 . S
C153 C152 1.372 . S
C153 C154 1.404 . S
C154 C153 1.404 . S
C154 C155 1.391 . S
C155 H149 0.930 . S
C155 C151 1.429 1_455 S
C155 C154 1.391 . S
H156 C159 0.931 . S
H157 C162 0.928 . S
H158 C164 0.930 . S
C159 H156 0.931 . S
C159 C160 1.413 . S
C159 C161 1.360 . S
C160 C159 1.413 . S
C160 C164 1.436 . S
C161 C159 1.360 . S
C161 C162 1.372 1_545 S
C162 H157 0.928 . S
C162 C161 1.372 1_565 S
C162 C163 1.404 . S
C163 C162 1.404 . S
C163 C164 1.384 1_565 S
C164 H158 0.930 . S
C164 C160 1.436 . S
C164 C163 1.384 1_545 S
H165 C168 0.931 . S
H166 C171 0.928 . S
H167 C173 0.930 . S
C168 H165 0.931 . S
C168 C169 1.413 . S
C168 C170 1.360 . S
C169 C168 1.413 . S
C169 C173 1.429 . S
C170 C168 1.360 . S
C170 C171 1.372 . S
C171 H166 0.928 . S
C171 C170 1.372 . S
C171 C172 1.404 . S
C172 C171 1.404 . S
C172 C173 1.391 . S
C173 H167 0.930 . S
C173 C169 1.429 . S
C173 C172 1.391 . S
C174 C175 1.387 . S
C174 H178 0.950 . S
C174 C183 1.390 . S
C175 C174 1.387 . S
C175 C177 1.387 . S
H176 C183 0.950 . S
C177 C175 1.387 . S
C177 C179 1.390 . S
C177 H181 0.950 . S
H178 C174 0.950 . S
C179 C177 1.390 . S
C179 C180 1.387 . S
C179 H182 0.950 . S
C180 C179 1.387 . S
C180 C183 1.387 . S
H181 C177 0.950 . S
H182 C179 0.950 . S
C183 C174 1.390 . S
C183 H176 0.950 . S
C183 C180 1.387 . S
C184 C185 1.387 . S
C184 H188 0.950 . S
C184 C193 1.390 . S
C185 C184 1.387 . S
C185 C187 1.387 . S
H186 C193 0.950 . S
C187 C185 1.387 . S
C187 C189 1.390 . S
C187 H191 0.950 . S
H188 C184 0.950 . S
C189 C187 1.390 . S
C189 C190 1.387 . S
C189 H192 0.950 1_655 S
C190 C189 1.387 . S
C190 C193 1.387 . S
H191 C187 0.950 . S
H192 C189 0.950 1_455 S
C193 C184 1.390 . S
C193 H186 0.950 . S
C193 C190 1.387 . S
C194 C195 1.387 . S
C194 H198 0.950 . S
C194 C203 1.390 . S
C195 C194 1.387 . S
C195 C197 1.387 . S
H196 C203 0.950 1_545 S
C197 C195 1.387 . S
C197 C199 1.390 . S
C197 H201 0.950 . S
H198 C194 0.950 . S
C199 C197 1.390 . S
C199 C200 1.387 . S
C199 H202 0.950 . S
C200 C199 1.387 . S
C200 C203 1.387 . S
H201 C197 0.950 . S
H202 C199 0.950 . S
C203 C194 1.390 . S
C203 H196 0.950 1_565 S
C203 C200 1.387 . S
C204 C205 1.387 . S
C204 H208 0.950 . S
C204 C213 1.390 . S
C205 C204 1.387 . S
C205 C207 1.387 . S
H206 C213 0.950 . S
C207 C205 1.387 . S
C207 C209 1.390 . S
C207 H211 0.950 . S
H208 C204 0.950 . S
C209 C207 1.390 . S
C209 C210 1.387 . S
C209 H212 0.950 . S
C210 C209 1.387 . S
C210 C213 1.387 . S
H211 C207 0.950 . S
H212 C209 0.950 . S
C213 C204 1.390 . S
C213 H206 0.950 . S
C213 C210 1.387 . S
C214 C215 1.387 . S
C214 H218 0.950 . S
C214 C223 1.390 . S
C215 C214 1.387 . S
C215 C217 1.387 . S
H216 C223 0.950 . S
C217 C215 1.387 . S
C217 C219 1.390 . S
C217 H221 0.950 . S
H218 C214 0.950 . S
C219 C217 1.390 . S
C219 C220 1.387 . S
C219 H222 0.950 . S
C220 C219 1.387 . S
C220 C223 1.387 . S
H221 C217 0.950 . S
H222 C219 0.950 . S
C223 C214 1.390 . S
C223 H216 0.950 . S
C223 C220 1.387 . S
C224 C225 1.387 . S
C224 H228 0.950 . S
C224 C233 1.390 . S
C225 C224 1.387 . S
C225 C227 1.387 . S
H226 C233 0.950 . S
C227 C225 1.387 . S
C227 C229 1.390 . S
C227 H231 0.950 . S
H228 C224 0.950 . S
C229 C227 1.390 . S
C229 C230 1.387 . S
C229 H232 0.950 . S
C230 C229 1.387 . S
C230 C233 1.387 . S
H231 C227 0.950 . S
H232 C229 0.950 . S
C233 C224 1.390 . S
C233 H226 0.950 . S
C233 C230 1.387 . S
C234 C235 1.387 . S
C234 H238 0.950 . S
C234 C243 1.390 . S
C235 C234 1.387 . S
C235 C237 1.387 . S
H236 C243 0.950 . S
C237 C235 1.387 . S
C237 C239 1.390 . S
C237 H241 0.950 . S
H238 C234 0.950 . S
C239 C237 1.390 . S
C239 C240 1.387 . S
C239 H242 0.950 . S
C240 C239 1.387 . S
C240 C243 1.387 . S
H241 C237 0.950 . S
H242 C239 0.950 . S
C243 C234 1.390 . S
C243 H236 0.950 . S
C243 C240 1.387 . S
C244 C245 1.387 . S
C244 H248 0.950 . S
C244 C253 1.390 . S
C245 C244 1.387 . S
C245 C247 1.387 . S
H246 C253 0.950 . S
C247 C245 1.387 . S
C247 C249 1.390 . S
C247 H251 0.950 . S
H248 C244 0.950 . S
C249 C247 1.390 . S
C249 C250 1.387 . S
C249 H252 0.950 . S
C250 C249 1.387 . S
C250 C253 1.387 . S
H251 C247 0.950 . S
H252 C249 0.950 . S
C253 C244 1.390 . S
C253 H246 0.950 . S
C253 C250 1.387 . S
C254 C255 1.387 . S
C254 H258 0.950 . S
C254 C263 1.390 . S
C255 C254 1.387 . S
C255 C257 1.387 . S
H256 C263 0.950 . S
C257 C255 1.387 . S
C257 C259 1.390 . S
C257 H261 0.950 . S
H258 C254 0.950 . S
C259 C257 1.390 . S
C259 C260 1.387 . S
C259 H262 0.950 . S
C260 C259 1.387 . S
C260 C263 1.387 . S
H261 C257 0.950 . S
H262 C259 0.950 . S
C263 C254 1.390 . S
C263 H256 0.950 . S
C263 C260 1.387 . S
C264 C265 1.387 . S
C264 H268 0.950 . S
C264 C273 1.390 . S
C265 C264 1.387 . S
C265 C267 1.387 . S
H266 C273 0.950 . S
C267 C265 1.387 . S
C267 C269 1.390 . S
C267 H271 0.950 . S
H268 C264 0.950 . S
C269 C267 1.390 . S
C269 C270 1.387 . S
C269 H272 0.950 . S
C270 C269 1.387 . S
C270 C273 1.387 . S
H271 C267 0.950 . S
H272 C269 0.950 . S
C273 C264 1.390 . S
C273 H266 0.950 . S
C273 C270 1.387 . S
C274 C275 1.387 . S
C274 H278 0.950 . S
C274 C283 1.390 . S
C275 C274 1.387 . S
C275 C277 1.387 . S
H276 C283 0.950 . S
C277 C275 1.387 . S
C277 C279 1.390 . S
C277 H281 0.950 . S
H278 C274 0.950 . S
C279 C277 1.390 . S
C279 C280 1.387 . S
C279 H282 0.950 . S
C280 C279 1.387 . S
C280 C283 1.387 . S
H281 C277 0.950 . S
H282 C279 0.950 . S
C283 C274 1.390 . S
C283 H276 0.950 . S
C283 C280 1.387 . S
C284 C285 1.387 . S
C284 H288 0.950 . S
C284 C293 1.390 . S
C285 C284 1.387 . S
C285 C287 1.387 . S
H286 C293 0.950 . S
C287 C285 1.387 . S
C287 C289 1.390 . S
C287 H291 0.950 . S
H288 C284 0.950 . S
C289 C287 1.390 . S
C289 C290 1.387 . S
C289 H292 0.950 . S
C290 C289 1.387 . S
C290 C293 1.387 . S
H291 C287 0.950 . S
H292 C289 0.950 . S
C293 C284 1.390 . S
C293 H286 0.950 . S
C293 C290 1.387 . S
C294 C295 1.387 . S
C294 H298 0.950 . S
C294 C303 1.390 . S
C295 C294 1.387 . S
C295 C297 1.387 . S
H296 C303 0.950 1_556 S
C297 C295 1.387 . S
C297 C299 1.390 . S
C297 H301 0.950 . S
H298 C294 0.950 . S
C299 C297 1.390 . S
C299 C300 1.387 1_554 S
C299 H302 0.950 . S
C300 C299 1.387 1_556 S
C300 C303 1.387 1_556 S
H301 C297 0.950 . S
H302 C299 0.950 . S
C303 C294 1.390 . S
C303 H296 0.950 1_554 S
C303 C300 1.387 1_554 S
C304 C305 1.387 . S
C304 H308 0.950 . S
C304 C313 1.390 . S
C305 C304 1.387 . S
C305 C307 1.387 . S
H306 C313 0.950 . S
C307 C305 1.387 . S
C307 C309 1.390 . S
C307 H311 0.950 . S
H308 C304 0.950 . S
C309 C307 1.390 . S
C309 C310 1.387 . S
C309 H312 0.950 . S
C310 C309 1.387 . S
C310 C313 1.387 . S
H311 C307 0.950 . S
H312 C309 0.950 . S
C313 C304 1.390 . S
C313 H306 0.950 . S
C313 C310 1.387 . S
C314 C315 1.387 . S
C314 H318 0.950 . S
C314 C323 1.390 . S
C315 C314 1.387 . S
C315 C317 1.387 . S
H316 C323 0.950 . S
C317 C315 1.387 . S
C317 C319 1.390 . S
C317 H321 0.950 . S
H318 C314 0.950 . S
C319 C317 1.390 . S
C319 C320 1.387 . S
C319 H322 0.950 . S
C320 C319 1.387 . S
C320 C323 1.387 . S
H321 C317 0.950 . S
H322 C319 0.950 . S
C323 C314 1.390 . S
C323 H316 0.950 . S
C323 C320 1.387 . S
C324 C325 1.387 1_565 S
C324 H328 0.950 . S
C324 C333 1.390 . S
C325 C324 1.387 1_545 S
C325 C327 1.387 . S
H326 C333 0.950 . S
C327 C325 1.387 . S
C327 C329 1.390 . S
C327 H331 0.950 . S
H328 C324 0.950 . S
C329 C327 1.390 . S
C329 C330 1.387 . S
C329 H332 0.950 . S
C330 C329 1.387 . S
C330 C333 1.387 1_545 S
H331 C327 0.950 . S
H332 C329 0.950 . S
C333 C324 1.390 . S
C333 H326 0.950 . S
C333 C330 1.387 1_565 S
C334 C335 1.387 . S
C334 H338 0.950 . S
C334 C343 1.390 . S
C335 C334 1.387 . S
C335 C337 1.387 . S
H336 C343 0.950 1_554 S
C337 C335 1.387 . S
C337 C339 1.390 . S
C337 H341 0.950 . S
H338 C334 0.950 . S
C339 C337 1.390 . S
C339 C340 1.387 1_556 S
C339 H342 0.950 1_556 S
C340 C339 1.387 1_554 S
C340 C343 1.387 1_554 S
H341 C337 0.950 . S
H342 C339 0.950 1_554 S
C343 C334 1.390 . S
C343 H336 0.950 1_556 S
C343 C340 1.387 1_556 S
C344 C345 1.387 . S
C344 H348 0.950 . S
C344 C353 1.390 1_455 S
C345 C344 1.387 . S
C345 C347 1.387 . S
H346 C353 0.950 . S
C347 C345 1.387 . S
C347 C349 1.390 . S
C347 H351 0.950 . S
H348 C344 0.950 . S
C349 C347 1.390 . S
C349 C350 1.387 . S
C349 H352 0.950 . S
C350 C349 1.387 . S
C350 C353 1.387 1_455 S
H351 C347 0.950 . S
H352 C349 0.950 . S
C353 C344 1.390 1_655 S
C353 H346 0.950 . S
C353 C350 1.387 1_655 S
C175 C9 0.981 . S
C180 C169 1.087 . S
C185 C49 0.929 . S
C190 C151 1.001 . S
C195 C89 0.926 . S
C200 C163 0.989 . S
C205 C26 0.957 . S
C210 C172 1.110 . S
C220 C154 1.147 . S
C215 C66 0.969 . S
C230 C160 1.222 . S
C225 C106 1.018 . S
C235 C43 2.948 . S
C240 C133 2.931 . S
C245 C83 3.014 . S
C250 C142 2.985 . S
C255 C22 3.047 . S
C260 C124 3.010 . S
C270 C136 3.013 . S
C265 C62 3.053 . S
C280 C145 2.954 . S
C275 C102 2.981 . S
C285 C3 2.954 . S
C290 C127 2.938 . S
C300 C143 1.840 . S
C295 C15 1.765 . S
C305 C55 1.777 . S
C310 C125 1.837 . S
C315 C95 1.771 . S
C320 C134 1.832 . S
C330 C161 0.915 . S
C325 C42 0.922 . S
C340 C170 0.915 . S
C335 C82 0.916 . S
C345 C2 0.901 . S
C350 C152 0.894 . S
