# Generated by pormake.
# Topology dag, (6,3)-cn, num edge types: 1
# Building blocks:
#     Node 0, Type 0, BuildingBlock: IZENUY_clean_sbu_0, # of connection points: 6
#     Node 1, Type 0, BuildingBlock: IZENUY_clean_sbu_0, # of connection points: 6
#     Node 2, Type 0, BuildingBlock: IZENUY_clean_sbu_0, # of connection points: 6
#     Node 3, Type 0, BuildingBlock: IZENUY_clean_sbu_0, # of connection points: 6
#     Node 4, Type 1, BuildingBlock: KAKCAD_clean_linker_0, # of connection points: 3
#     Node 5, Type 1, BuildingBlock: KAKCAD_clean_linker_0, # of connection points: 3
#     Node 6, Type 1, BuildingBlock: KAKCAD_clean_linker_0, # of connection points: 3
#     Node 7, Type 1, BuildingBlock: KAKCAD_clean_linker_0, # of connection points: 3
#     Node 8, Type 1, BuildingBlock: KAKCAD_clean_linker_0, # of connection points: 3
#     Node 9, Type 1, BuildingBlock: KAKCAD_clean_linker_0, # of connection points: 3
#     Node 10, Type 1, BuildingBlock: KAKCAD_clean_linker_0, # of connection points: 3
#     Node 11, Type 1, BuildingBlock: KAKCAD_clean_linker_0, # of connection points: 3
#     Edge 12, Type (0, 1), BuildingBlock: TEMPAE_clean_linker_10, # of connection points: 2
#     Edge 13, Type (0, 1), BuildingBlock: TEMPAE_clean_linker_10, # of connection points: 2
#     Edge 14, Type (0, 1), BuildingBlock: TEMPAE_clean_linker_10, # of connection points: 2
#     Edge 15, Type (0, 1), BuildingBlock: TEMPAE_clean_linker_10, # of connection points: 2
#     Edge 16, Type (0, 1), BuildingBlock: TEMPAE_clean_linker_10, # of connection points: 2
#     Edge 17, Type (0, 1), BuildingBlock: TEMPAE_clean_linker_10, # of connection points: 2
#     Edge 18, Type (0, 1), BuildingBlock: TEMPAE_clean_linker_10, # of connection points: 2
#     Edge 19, Type (0, 1), BuildingBlock: TEMPAE_clean_linker_10, # of connection points: 2
#     Edge 20, Type (0, 1), BuildingBlock: TEMPAE_clean_linker_10, # of connection points: 2
#     Edge 21, Type (0, 1), BuildingBlock: TEMPAE_clean_linker_10, # of connection points: 2
#     Edge 22, Type (0, 1), BuildingBlock: TEMPAE_clean_linker_10, # of connection points: 2
#     Edge 23, Type (0, 1), BuildingBlock: TEMPAE_clean_linker_10, # of connection points: 2
#     Edge 24, Type (0, 1), BuildingBlock: TEMPAE_clean_linker_10, # of connection points: 2
#     Edge 25, Type (0, 1), BuildingBlock: TEMPAE_clean_linker_10, # of connection points: 2
#     Edge 26, Type (0, 1), BuildingBlock: TEMPAE_clean_linker_10, # of connection points: 2
#     Edge 27, Type (0, 1), BuildingBlock: TEMPAE_clean_linker_10, # of connection points: 2
#     Edge 28, Type (0, 1), BuildingBlock: TEMPAE_clean_linker_10, # of connection points: 2
#     Edge 29, Type (0, 1), BuildingBlock: TEMPAE_clean_linker_10, # of connection points: 2
#     Edge 30, Type (0, 1), BuildingBlock: TEMPAE_clean_linker_10, # of connection points: 2
#     Edge 31, Type (0, 1), BuildingBlock: TEMPAE_clean_linker_10, # of connection points: 2
#     Edge 32, Type (0, 1), BuildingBlock: TEMPAE_clean_linker_10, # of connection points: 2
#     Edge 33, Type (0, 1), BuildingBlock: TEMPAE_clean_linker_10, # of connection points: 2
#     Edge 34, Type (0, 1), BuildingBlock: TEMPAE_clean_linker_10, # of connection points: 2
#     Edge 35, Type (0, 1), BuildingBlock: TEMPAE_clean_linker_10, # of connection points: 2
# Relax obj value: 0.253
# Max RMSD: 0.193
# Mean RMSD: 0.160
data_MOF--net-dag--node1-IZENUY_clean_sbu_0--node2-KAKCAD_clean_linker_0--edge1-TEMPAE_clean_linker_10
_symmetry_space_group_name_H-M    P1
_symmetry_Int_Tables_number       1
_symmetry_cell_setting            triclinic
loop_
_symmetry_equiv_pos_as_xyz
'x, y, z'
_cell_length_a     47.104091
_cell_length_b     49.122277
_cell_length_c     41.519935
_cell_angle_alpha  95.181383
_cell_angle_beta   90.2288
_cell_angle_gamma 90.055335
loop_
_atom_site_label
_atom_site_type_symbol
_atom_site_fract_x
_atom_site_fract_y
_atom_site_fract_z
_atom_type_partial_charge
Fe0 Fe 0.18873 0.84595 0.0975 0.0
Fe1 Fe 0.13319 0.86204 0.06563 0.0
O2 O 0.15689 0.83644 0.07644 0.0
Fe3 Fe 0.14862 0.80152 0.06626 0.0
O4 O 0.16511 0.78958 0.1026 0.0
O5 O 0.17884 0.82724 0.13117 0.0
O6 O 0.17339 0.87632 0.12016 0.0
C7 C 0.14777 0.88238 0.12674 0.0
C8 C 0.20557 0.80161 0.05334 0.0
O9 O 0.12801 0.87431 0.1076 0.0
C10 C 0.13194 0.82724 0.01068 0.0
O11 O 0.20091 0.86555 0.06515 0.0
O12 O 0.16083 0.88757 0.06066 0.0
O13 O 0.18083 0.79638 0.04292 0.0
O14 O 0.20966 0.81715 0.07897 0.0
C15 C 0.09617 0.82105 0.08425 0.0
O16 O 0.13685 0.85121 0.02304 0.0
O17 O 0.13075 0.80733 0.02804 0.0
C18 C 0.18718 0.88523 0.05535 0.0
O19 O 0.10106 0.84145 0.0686 0.0
O20 O 0.11564 0.80425 0.08894 0.0
C21 C 0.17199 0.80237 0.12937 0.0
Fe22 Fe 0.68873 0.65455 0.4868 0.0
Fe23 Fe 0.64754 0.69773 0.51805 0.0
O24 O 0.65674 0.6631 0.50764 0.0
Fe25 Fe 0.63381 0.63682 0.51803 0.0
O26 O 0.66212 0.612 0.52304 0.0
O27 O 0.70157 0.63515 0.51912 0.0
O28 O 0.70888 0.68387 0.50567 0.0
C29 C 0.70449 0.69922 0.53134 0.0
C30 C 0.64871 0.61706 0.45702 0.0
O31 O 0.67967 0.70359 0.54178 0.0
C32 C 0.59566 0.67693 0.49937 0.0
O33 O 0.67819 0.67314 0.45324 0.0
O34 O 0.66375 0.71036 0.48198 0.0
O35 O 0.62881 0.62464 0.47598 0.0
O36 O 0.67418 0.62382 0.46381 0.0
C37 C 0.63131 0.67114 0.57322 0.0
O38 O 0.61468 0.69425 0.49497 0.0
O39 O 0.60111 0.65657 0.51491 0.0
C40 C 0.67093 0.69789 0.45519 0.0
O41 O 0.62969 0.69117 0.556 0.0
O42 O 0.63743 0.64754 0.56065 0.0
C43 C 0.68839 0.61506 0.52869 0.0
Fe44 Fe 0.85386 0.20342 0.03045 0.0
Fe45 Fe 0.86784 0.14255 0.02869 0.0
O46 O 0.84573 0.169 0.01727 0.0
Fe47 Fe 0.81557 0.161 0.99272 0.0
O48 O 0.82896 0.181 0.96164 0.0
O49 O 0.83948 0.21745 0.9941 0.0
O50 O 0.88804 0.2012 0.01023 0.0
C51 C 0.90682 0.18388 0.01572 0.0
C52 C 0.79634 0.20335 0.03812 0.0
O53 O 0.9005 0.16293 0.02987 0.0
C54 C 0.81282 0.12016 0.03288 0.0
O55 O 0.86969 0.19556 0.0692 0.0
O56 O 0.86082 0.15183 0.07113 0.0
O57 O 0.7941 0.18957 0.01091 0.0
O58 O 0.82026 0.20758 0.05142 0.0
C59 C 0.85762 0.12479 0.96557 0.0
O60 O 0.83936 0.11731 0.02951 0.0
O61 O 0.80025 0.14023 0.02234 0.0
C62 C 0.86626 0.17506 0.08527 0.0
O63 O 0.87604 0.13169 0.98692 0.0
O64 O 0.83177 0.13117 0.96998 0.0
C65 C 0.83525 0.20599 0.9659 0.0
Fe66 Fe 0.36864 0.35567 0.56029 0.0
Fe67 Fe 0.31583 0.33946 0.59657 0.0
O68 O 0.3461 0.33003 0.57305 0.0
Fe69 Fe 0.35393 0.29503 0.56227 0.0
O70 O 0.38805 0.29786 0.5828 0.0
O71 O 0.40107 0.3353 0.56149 0.0
O72 O 0.3766 0.36844 0.60156 0.0
C73 C 0.35822 0.37626 0.62234 0.0
C74 C 0.36693 0.32054 0.50565 0.0
O75 O 0.3323 0.36994 0.61795 0.0
C76 C 0.29638 0.29535 0.55338 0.0
O77 O 0.34048 0.38091 0.55702 0.0
O78 O 0.30106 0.35891 0.56533 0.0
O79 O 0.37001 0.30087 0.52312 0.0
O80 O 0.36195 0.34437 0.51822 0.0
C81 C 0.33491 0.29583 0.62686 0.0
O82 O 0.29401 0.31063 0.5795 0.0
O83 O 0.3204 0.2899 0.54112 0.0
C84 C 0.31392 0.37819 0.55357 0.0
O85 O 0.3286 0.32083 0.62928 0.0
O86 O 0.33924 0.283 0.59946 0.0
C87 C 0.40678 0.31519 0.57736 0.0
C88 C 0.97892 0.17706 0.30981 0.0
C89 C 0.95866 0.15739 0.29885 0.0
C90 C 0.0005 0.17041 0.33101 0.0
C91 C 0.00194 0.14403 0.34163 0.0
C92 C 0.97989 0.1254 0.33305 0.0
C93 C 0.95863 0.13191 0.31155 0.0
C94 C 0.02835 0.13453 0.35684 0.0
C95 C 0.0438 0.15158 0.37966 0.0
C96 C 0.07061 0.14351 0.3906 0.0
C97 C 0.0817 0.11802 0.37848 0.0
C98 C 0.06642 0.10074 0.35595 0.0
C99 C 0.03979 0.10908 0.34548 0.0
C100 C 0.07919 0.07519 0.34069 0.0
C101 C 0.10694 0.07529 0.32843 0.0
C102 C 0.06281 0.05125 0.33554 0.0
C103 C 0.07346 0.02832 0.31719 0.0
C104 C 0.10065 0.02893 0.30347 0.0
C105 C 0.08819 0.16223 0.41276 0.0
C106 C 0.08938 0.19037 0.40901 0.0
C107 C 0.10561 0.15173 0.43626 0.0
C108 C 0.12487 0.1686 0.45425 0.0
C109 C 0.12692 0.19654 0.4496 0.0
C110 C 0.10841 0.20735 0.42733 0.0
C111 C 0.11754 0.05241 0.30994 0.0
H112 H 0.97939 0.19676 0.30001 0.0
H113 H 0.01721 0.18519 0.33696 0.0
H114 H 0.98007 0.10511 0.34134 0.0
H115 H 0.9431 0.11649 0.30339 0.0
H116 H 0.03505 0.17119 0.38862 0.0
H117 H 0.02878 0.09638 0.32668 0.0
H118 H 0.10268 0.11188 0.38576 0.0
H119 H 0.11998 0.09351 0.33179 0.0
H120 H 0.04141 0.05057 0.34491 0.0
H121 H 0.05989 0.01058 0.31244 0.0
H122 H 0.07643 0.19918 0.39101 0.0
H123 H 0.10491 0.13026 0.44025 0.0
H124 H 0.13869 0.05333 0.29991 0.0
H125 H 0.10899 0.22886 0.42353 0.0
H126 H 0.13889 0.1594 0.47091 0.0
C127 C 0.38708 0.54631 0.80352 0.0
C128 C 0.40729 0.5259 0.79522 0.0
C129 C 0.39497 0.5705 0.82154 0.0
C130 C 0.42329 0.57486 0.83154 0.0
C131 C 0.44318 0.55382 0.82472 0.0
C132 C 0.43522 0.52949 0.80682 0.0
C133 C 0.4324 0.60239 0.84551 0.0
C134 C 0.41529 0.61773 0.86798 0.0
C135 C 0.42092 0.64558 0.87672 0.0
C136 C 0.44475 0.65772 0.8634 0.0
C137 C 0.46259 0.64236 0.84168 0.0
C138 C 0.45634 0.61471 0.83308 0.0
C139 C 0.48572 0.65552 0.82458 0.0
C140 C 0.48027 0.67916 0.80892 0.0
C141 C 0.51216 0.64252 0.82018 0.0
C142 C 0.53199 0.65186 0.79879 0.0
C143 C 0.52565 0.67424 0.78122 0.0
C144 C 0.40073 0.66231 0.89776 0.0
C145 C 0.37133 0.65736 0.89513 0.0
C146 C 0.41042 0.68366 0.92002 0.0
C147 C 0.39116 0.69968 0.93901 0.0
C148 C 0.36191 0.69438 0.93647 0.0
C149 C 0.3522 0.67304 0.91445 0.0
C150 C 0.50003 0.68838 0.78733 0.0
H151 H 0.36533 0.54392 0.79515 0.0
H152 H 0.37918 0.58639 0.82609 0.0
H153 H 0.46511 0.55655 0.8323 0.0
H154 H 0.45124 0.51411 0.80067 0.0
H155 H 0.39714 0.60799 0.87806 0.0
H156 H 0.469 0.60332 0.81473 0.0
H157 H 0.44894 0.67933 0.86897 0.0
H158 H 0.46 0.68948 0.8117 0.0
H159 H 0.51693 0.62434 0.83212 0.0
H160 H 0.55147 0.64043 0.79442 0.0
H161 H 0.3629 0.64168 0.87768 0.0
H162 H 0.43289 0.6879 0.92297 0.0
H163 H 0.49471 0.70582 0.77427 0.0
H164 H 0.32969 0.66886 0.91169 0.0
H165 H 0.39912 0.71599 0.95596 0.0
C166 C 0.87152 0.80002 0.14729 0.0
C167 C 0.89342 0.8194 0.15277 0.0
C168 C 0.84309 0.80778 0.15184 0.0
C169 C 0.83609 0.83511 0.16151 0.0
C170 C 0.85803 0.85433 0.16729 0.0
C171 C 0.88632 0.84658 0.163 0.0
C172 C 0.80609 0.8439 0.16571 0.0
C173 C 0.78715 0.8292 0.18361 0.0
C174 C 0.75973 0.8393 0.19071 0.0
C175 C 0.75092 0.86374 0.17862 0.0
C176 C 0.76957 0.87851 0.1606 0.0
C177 C 0.797 0.86841 0.15407 0.0
C178 C 0.76155 0.90574 0.15106 0.0
C179 C 0.73658 0.90952 0.1334 0.0
C180 C 0.77941 0.92815 0.15936 0.0
C181 C 0.77289 0.95377 0.14951 0.0
C182 C 0.74847 0.95751 0.13088 0.0
C183 C 0.74188 0.82625 0.21421 0.0
C184 C 0.73816 0.79776 0.21186 0.0
C185 C 0.73057 0.84219 0.24092 0.0
C186 C 0.71705 0.82979 0.2656 0.0
C187 C 0.71429 0.80126 0.26385 0.0
C188 C 0.72425 0.78537 0.2364 0.0
C189 C 0.73023 0.93521 0.12305 0.0
H190 H 0.87639 0.77892 0.13946 0.0
H191 H 0.82658 0.79255 0.14722 0.0
H192 H 0.85333 0.87546 0.17523 0.0
H193 H 0.90264 0.86208 0.16698 0.0
H194 H 0.79442 0.81092 0.19391 0.0
H195 H 0.81147 0.87995 0.14026 0.0
H196 H 0.73001 0.87191 0.18451 0.0
H197 H 0.7225 0.89246 0.12679 0.0
H198 H 0.79863 0.92578 0.17326 0.0
H199 H 0.78761 0.97046 0.15543 0.0
H200 H 0.74664 0.78507 0.19146 0.0
H201 H 0.73342 0.86417 0.24352 0.0
H202 H 0.71134 0.93757 0.10861 0.0
H203 H 0.72253 0.76329 0.23469 0.0
H204 H 0.70948 0.84242 0.28655 0.0
C205 C 0.62133 0.32685 0.66501 0.0
C206 C 0.61405 0.3165 0.6333 0.0
C207 C 0.64937 0.33371 0.67314 0.0
C208 C 0.67072 0.33093 0.64964 0.0
C209 C 0.66376 0.3205 0.61805 0.0
C210 C 0.63578 0.31303 0.61003 0.0
C211 C 0.69999 0.33981 0.65808 0.0
C212 C 0.71405 0.32939 0.68404 0.0
C213 C 0.74109 0.33904 0.69366 0.0
C214 C 0.75406 0.35942 0.67719 0.0
C215 C 0.7398 0.37079 0.65174 0.0
C216 C 0.71294 0.36035 0.64194 0.0
C217 C 0.75099 0.39559 0.63798 0.0
C218 C 0.76333 0.41689 0.65831 0.0
C219 C 0.74637 0.39961 0.60528 0.0
C220 C 0.75155 0.42503 0.5939 0.0
C221 C 0.76183 0.44699 0.61486 0.0
C222 C 0.75474 0.32893 0.72234 0.0
C223 C 0.73966 0.32935 0.75143 0.0
C224 C 0.78235 0.31822 0.72072 0.0
C225 C 0.79425 0.30703 0.74749 0.0
C226 C 0.77882 0.30671 0.77643 0.0
C227 C 0.75164 0.31857 0.77825 0.0
C228 C 0.76885 0.44224 0.64681 0.0
H229 H 0.60527 0.33049 0.68347 0.0
H230 H 0.65427 0.34201 0.6976 0.0
H231 H 0.68001 0.31804 0.59963 0.0
H232 H 0.63121 0.30465 0.58555 0.0
H233 H 0.70385 0.31381 0.69688 0.0
H234 H 0.70115 0.36937 0.62312 0.0
H235 H 0.77473 0.36716 0.68511 0.0
H236 H 0.76711 0.41466 0.68367 0.0
H237 H 0.73744 0.38347 0.58879 0.0
H238 H 0.74571 0.42786 0.56918 0.0
H239 H 0.7185 0.33797 0.75338 0.0
H240 H 0.79432 0.31769 0.69844 0.0
H241 H 0.77732 0.45851 0.66345 0.0
H242 H 0.73945 0.31934 0.80038 0.0
H243 H 0.81512 0.29787 0.74517 0.0
C244 C 0.60225 0.45841 0.25954 0.0
C245 C 0.5996 0.46166 0.29341 0.0
C246 C 0.5905 0.43553 0.24166 0.0
C247 C 0.57567 0.41571 0.25736 0.0
C248 C 0.5732 0.41903 0.2912 0.0
C249 C 0.58489 0.44172 0.30895 0.0
C250 C 0.56311 0.39122 0.2391 0.0
C251 C 0.57883 0.37563 0.21552 0.0
C252 C 0.56872 0.35011 0.20219 0.0
C253 C 0.54236 0.34041 0.21216 0.0
C254 C 0.52593 0.35629 0.23489 0.0
C255 C 0.5364 0.38174 0.24788 0.0
C256 C 0.49962 0.34549 0.24865 0.0
C257 C 0.47652 0.36306 0.25594 0.0
C258 C 0.49937 0.31929 0.25981 0.0
C259 C 0.47792 0.31198 0.28063 0.0
C260 C 0.4566 0.33078 0.29051 0.0
C261 C 0.58724 0.33263 0.18043 0.0
C262 C 0.59946 0.34292 0.15325 0.0
C263 C 0.59474 0.30642 0.18834 0.0
C264 C 0.61512 0.2912 0.17021 0.0
C265 C 0.6281 0.30174 0.14347 0.0
C266 C 0.61945 0.32752 0.13475 0.0
C267 C 0.45533 0.35586 0.27696 0.0
H268 H 0.61358 0.4734 0.24693 0.0
H269 H 0.59273 0.43349 0.21561 0.0
H270 H 0.5624 0.40388 0.30412 0.0
H271 H 0.58208 0.44379 0.33494 0.0
H272 H 0.59982 0.38242 0.20915 0.0
H273 H 0.52434 0.39367 0.26632 0.0
H274 H 0.53486 0.32043 0.20251 0.0
H275 H 0.47594 0.38321 0.24727 0.0
H276 H 0.51695 0.30538 0.2548 0.0
H277 H 0.47936 0.29262 0.29116 0.0
H278 H 0.59382 0.36306 0.14663 0.0
H279 H 0.58584 0.29822 0.20947 0.0
H280 H 0.43903 0.37064 0.28439 0.0
H281 H 0.62843 0.33605 0.1139 0.0
H282 H 0.62148 0.27167 0.17804 0.0
C283 C 0.12361 0.18936 0.92614 0.0
C284 C 0.11319 0.18995 0.95785 0.0
C285 C 0.1519 0.18267 0.91946 0.0
C286 C 0.17052 0.17655 0.94437 0.0
C287 C 0.16034 0.178 0.97625 0.0
C288 C 0.13198 0.18462 0.98292 0.0
C289 C 0.20002 0.16742 0.93675 0.0
C290 C 0.21563 0.17935 0.91302 0.0
C291 C 0.24236 0.16915 0.90344 0.0
C292 C 0.2541 0.14729 0.91842 0.0
C293 C 0.23872 0.13484 0.94209 0.0
C294 C 0.21177 0.14523 0.95122 0.0
C295 C 0.24895 0.10919 0.95472 0.0
C296 C 0.26127 0.08839 0.93381 0.0
C297 C 0.24365 0.10409 0.98691 0.0
C298 C 0.24835 0.0782 0.99722 0.0
C299 C 0.25879 0.05681 0.97567 0.0
C300 C 0.25638 0.17969 0.8754 0.0
C301 C 0.24152 0.17948 0.84607 0.0
C302 C 0.28398 0.19046 0.87772 0.0
C303 C 0.29607 0.20196 0.85132 0.0
C304 C 0.28081 0.20249 0.82215 0.0
C305 C 0.25367 0.19053 0.81967 0.0
C306 C 0.26627 0.06254 0.94423 0.0
H307 H 0.10975 0.19364 0.90634 0.0
H308 H 0.1589 0.18144 0.89456 0.0
H309 H 0.17421 0.17367 0.99602 0.0
H310 H 0.12456 0.18463 0.00758 0.0
H311 H 0.20678 0.19636 0.90142 0.0
H312 H 0.19911 0.13494 0.96818 0.0
H313 H 0.27464 0.1393 0.91063 0.0
H314 H 0.26554 0.0915 0.9088 0.0
H315 H 0.23465 0.11981 0.00382 0.0
H316 H 0.24211 0.0746 0.02154 0.0
H317 H 0.22038 0.1708 0.84362 0.0
H318 H 0.29578 0.19074 0.9002 0.0
H319 H 0.27483 0.0467 0.92717 0.0
H320 H 0.24164 0.18986 0.79732 0.0
H321 H 0.31695 0.21112 0.85408 0.0
C322 C 0.37027 0.69627 0.4371 0.0
C323 C 0.39206 0.67691 0.43129 0.0
C324 C 0.34179 0.6886 0.4324 0.0
C325 C 0.33463 0.66137 0.42223 0.0
C326 C 0.35647 0.64217 0.41612 0.0
C327 C 0.38481 0.64984 0.42058 0.0
C328 C 0.30458 0.6527 0.41781 0.0
C329 C 0.28558 0.66783 0.40039 0.0
C330 C 0.25802 0.65798 0.39314 0.0
C331 C 0.24915 0.63329 0.40458 0.0
C332 C 0.26789 0.61811 0.42214 0.0
C333 C 0.29544 0.62797 0.4288 0.0
C334 C 0.25979 0.59079 0.43123 0.0
C335 C 0.23556 0.5871 0.44996 0.0
C336 C 0.27713 0.56828 0.42192 0.0
C337 C 0.27095 0.54267 0.43199 0.0
C338 C 0.24743 0.53904 0.45187 0.0
C339 C 0.24011 0.6716 0.37006 0.0
C340 C 0.23677 0.70013 0.37312 0.0
C341 C 0.22862 0.65623 0.34291 0.0
C342 C 0.21542 0.66927 0.31841 0.0
C343 C 0.21317 0.69785 0.32081 0.0
C344 C 0.22319 0.71315 0.34876 0.0
C345 C 0.22957 0.56142 0.46052 0.0
H346 H 0.37526 0.7173 0.44528 0.0
H347 H 0.32537 0.70381 0.43729 0.0
H348 H 0.35165 0.62113 0.40779 0.0
H349 H 0.40105 0.63434 0.41634 0.0
H350 H 0.29288 0.6863 0.39056 0.0
H351 H 0.30995 0.61611 0.44227 0.0
H352 H 0.22813 0.6253 0.39859 0.0
H353 H 0.2219 0.60424 0.45736 0.0
H354 H 0.29579 0.57063 0.40723 0.0
H355 H 0.28536 0.52593 0.42538 0.0
H356 H 0.24541 0.71238 0.39388 0.0
H357 H 0.23118 0.63424 0.33977 0.0
H358 H 0.21137 0.55915 0.47591 0.0
H359 H 0.22184 0.73526 0.35099 0.0
H360 H 0.20778 0.65709 0.29707 0.0
C361 C 0.02425 0.8138 0.7769 0.0
C362 C 0.01938 0.81299 0.81028 0.0
C363 C 0.00368 0.82466 0.75714 0.0
C364 C 0.97818 0.83496 0.77062 0.0
C365 C 0.97274 0.83281 0.80344 0.0
C366 C 0.99306 0.82201 0.82303 0.0
C367 C 0.95831 0.85088 0.75224 0.0
C368 C 0.94166 0.83836 0.72708 0.0
C369 C 0.91928 0.85283 0.71373 0.0
C370 C 0.91424 0.8802 0.7258 0.0
C371 C 0.93049 0.8926 0.7515 0.0
C372 C 0.95306 0.87804 0.76369 0.0
C373 C 0.92178 0.91906 0.7688 0.0
C374 C 0.91296 0.94129 0.75214 0.0
C375 C 0.92159 0.92178 0.80279 0.0
C376 C 0.91308 0.94607 0.81977 0.0
C377 C 0.90412 0.9683 0.80331 0.0
C378 C 0.89928 0.83843 0.69001 0.0
C379 C 0.90894 0.81798 0.66668 0.0
C380 C 0.86997 0.84396 0.69179 0.0
C381 C 0.85087 0.82933 0.67109 0.0
C382 C 0.8605 0.8085 0.64847 0.0
C383 C 0.88971 0.80301 0.6463 0.0
C384 C 0.90431 0.96578 0.76928 0.0
H385 H 0.04424 0.80686 0.76632 0.0
H386 H 0.00823 0.82624 0.73182 0.0
H387 H 0.95317 0.84069 0.81428 0.0
H388 H 0.98865 0.82229 0.84863 0.0
H389 H 0.94495 0.81689 0.7196 0.0
H390 H 0.96582 0.8874 0.78351 0.0
H391 H 0.89675 0.89142 0.71639 0.0
H392 H 0.9129 0.93979 0.72595 0.0
H393 H 0.92766 0.90493 0.81645 0.0
H394 H 0.91364 0.94745 0.84595 0.0
H395 H 0.93135 0.81337 0.6643 0.0
H396 H 0.8615 0.85896 0.70993 0.0
H397 H 0.89741 0.98256 0.75595 0.0
H398 H 0.89763 0.78711 0.62886 0.0
H399 H 0.82839 0.83367 0.67355 0.0
C400 C 0.16256 0.90966 0.17793 0.0
C401 C 0.14128 0.9017 0.15524 0.0
C402 C 0.15708 0.92901 0.20414 0.0
C403 C 0.12975 0.94081 0.20757 0.0
C404 C 0.10799 0.93236 0.18525 0.0
C405 C 0.11398 0.91282 0.15944 0.0
C406 C 0.18072 0.93732 0.22768 0.0
C407 C 0.07858 0.94457 0.18804 0.0
C408 C 0.10624 0.97887 0.28669 0.0
C409 C 0.11028 0.00613 0.28024 0.0
C410 C 0.11325 0.95727 0.2636 0.0
C411 C 0.12426 0.96318 0.23332 0.0
C412 C 0.12893 0.99065 0.22698 0.0
C413 C 0.12196 0.01178 0.25056 0.0
C414 C 0.1083 0.9282 0.27132 0.0
C415 C 0.14042 0.99779 0.19488 0.0
H416 H 0.18364 0.90099 0.17507 0.0
H417 H 0.09736 0.90673 0.14212 0.0
H418 H 0.18626 0.9591 0.22596 0.0
H419 H 0.17367 0.93538 0.25283 0.0
H420 H 0.20013 0.92478 0.22299 0.0
H421 H 0.06371 0.93489 0.16957 0.0
H422 H 0.06975 0.94231 0.21238 0.0
H423 H 0.07969 0.96678 0.18513 0.0
H424 H 0.09741 0.97445 0.30972 0.0
H425 H 0.1247 0.03284 0.24528 0.0
H426 H 0.12802 0.91605 0.26729 0.0
H427 H 0.09183 0.91853 0.25487 0.0
H428 H 0.10131 0.92702 0.29668 0.0
H429 H 0.16088 0.98717 0.18965 0.0
H430 H 0.14381 0.02012 0.19426 0.0
H431 H 0.1254 0.99071 0.17523 0.0
C432 C 0.61658 0.70054 0.62285 0.0
C433 C 0.62124 0.67443 0.60711 0.0
C434 C 0.604 0.70378 0.65357 0.0
C435 C 0.59551 0.68037 0.66862 0.0
C436 C 0.60137 0.65399 0.65351 0.0
C437 C 0.61437 0.65134 0.62309 0.0
C438 C 0.59867 0.73223 0.66926 0.0
C439 C 0.59246 0.62848 0.66863 0.0
C440 C 0.5735 0.68076 0.75654 0.0
C441 C 0.54382 0.68024 0.75364 0.0
C442 C 0.59077 0.68248 0.72928 0.0
C443 C 0.57799 0.68316 0.69843 0.0
C444 C 0.54804 0.68386 0.69564 0.0
C445 C 0.53134 0.68254 0.7233 0.0
C446 C 0.62262 0.68229 0.73327 0.0
C447 C 0.53354 0.68429 0.66316 0.0
H448 H 0.62216 0.71849 0.61083 0.0
H449 H 0.61796 0.63108 0.61122 0.0
H450 H 0.5756 0.73668 0.66882 0.0
H451 H 0.60548 0.73385 0.69498 0.0
H452 H 0.60998 0.74805 0.6567 0.0
H453 H 0.60016 0.60954 0.65476 0.0
H454 H 0.60063 0.62893 0.69375 0.0
H455 H 0.56894 0.62758 0.66982 0.0
H456 H 0.58319 0.67917 0.78002 0.0
H457 H 0.50843 0.68174 0.72086 0.0
H458 H 0.63248 0.69834 0.7198 0.0
H459 H 0.63115 0.66232 0.72307 0.0
H460 H 0.62915 0.6856 0.75907 0.0
H461 H 0.5419 0.70129 0.65011 0.0
H462 H 0.51015 0.68659 0.6654 0.0
H463 H 0.53808 0.66496 0.64811 0.0
C464 C 0.81116 0.07521 0.05596 0.0
C465 C 0.79661 0.09819 0.04677 0.0
C466 C 0.79687 0.05401 0.06929 0.0
C467 C 0.76713 0.05571 0.07375 0.0
C468 C 0.75213 0.07874 0.0645 0.0
C469 C 0.76708 0.0998 0.05108 0.0
C470 C 0.81379 0.0298 0.0788 0.0
C471 C 0.72044 0.08119 0.06901 0.0
C472 C 0.74061 0.9848 0.08381 0.0
C473 C 0.7442 0.98405 0.11723 0.0
C474 C 0.74469 0.00921 0.06928 0.0
C475 C 0.75253 0.03323 0.08876 0.0
C476 C 0.75267 0.0332 0.12285 0.0
C477 C 0.74857 0.00853 0.1367 0.0
C478 C 0.74402 0.00842 0.03287 0.0
C479 C 0.76055 0.05841 0.14456 0.0
H480 H 0.83395 0.07369 0.05279 0.0
H481 H 0.75568 0.11752 0.0441 0.0
H482 H 0.81153 0.02792 0.10509 0.0
H483 H 0.80556 0.01065 0.06583 0.0
H484 H 0.83675 0.03153 0.07328 0.0
H485 H 0.71173 0.0998 0.05924 0.0
H486 H 0.7096 0.06297 0.05688 0.0
H487 H 0.71526 0.08191 0.09511 0.0
H488 H 0.73716 0.96592 0.06867 0.0
H489 H 0.75081 0.00803 0.16264 0.0
H490 H 0.76606 0.00688 0.02354 0.0
H491 H 0.73457 0.02738 0.0249 0.0
H492 H 0.7318 0.99055 0.02187 0.0
H493 H 0.78392 0.06123 0.14419 0.0
H494 H 0.754 0.05668 0.16997 0.0
H495 H 0.75069 0.07693 0.13595 0.0
C496 C 0.44989 0.28634 0.58304 0.0
C497 C 0.43627 0.31168 0.58789 0.0
C498 C 0.47891 0.28388 0.59033 0.0
C499 C 0.49415 0.30715 0.60366 0.0
C500 C 0.47997 0.33247 0.60993 0.0
C501 C 0.45131 0.33451 0.60145 0.0
C502 C 0.49349 0.25676 0.58252 0.0
C503 C 0.49518 0.3576 0.62498 0.0
C504 C 0.56473 0.30139 0.64684 0.0
C505 C 0.58376 0.31081 0.62433 0.0
C506 C 0.53555 0.29915 0.64008 0.0
C507 C 0.52522 0.30571 0.6097 0.0
C508 C 0.54445 0.31352 0.58611 0.0
C509 C 0.57338 0.31634 0.59383 0.0
C510 C 0.51565 0.29116 0.66606 0.0
C511 C 0.53431 0.32015 0.55315 0.0
H512 H 0.43818 0.26877 0.57229 0.0
H513 H 0.44057 0.35404 0.60541 0.0
H514 H 0.50951 0.25874 0.56333 0.0
H515 H 0.50499 0.25058 0.60404 0.0
H516 H 0.47832 0.24029 0.57405 0.0
H517 H 0.48048 0.37501 0.63079 0.0
H518 H 0.50618 0.35296 0.64753 0.0
H519 H 0.51161 0.36402 0.60815 0.0
H520 H 0.57249 0.29632 0.67015 0.0
H521 H 0.58762 0.32396 0.57629 0.0
H522 H 0.50146 0.27431 0.65643 0.0
H523 H 0.50196 0.30883 0.67413 0.0
H524 H 0.52721 0.28463 0.68743 0.0
H525 H 0.51984 0.30392 0.54243 0.0
H526 H 0.5522 0.3224 0.53623 0.0
H527 H 0.52217 0.33956 0.55552 0.0
C528 C 0.66406 0.58912 0.4066 0.0
C529 C 0.64264 0.59715 0.42887 0.0
C530 C 0.65906 0.56878 0.38122 0.0
C531 C 0.63211 0.55603 0.37828 0.0
C532 C 0.61012 0.56474 0.39995 0.0
C533 C 0.61561 0.58528 0.42486 0.0
C534 C 0.68288 0.56029 0.35826 0.0
C535 C 0.58111 0.55155 0.3977 0.0
C536 C 0.60758 0.51228 0.30322 0.0
C537 C 0.61142 0.4859 0.31291 0.0
C538 C 0.61552 0.53545 0.32361 0.0
C539 C 0.62737 0.53205 0.35439 0.0
C540 C 0.63261 0.50546 0.36354 0.0
C541 C 0.62473 0.48273 0.34262 0.0
C542 C 0.60997 0.56351 0.31288 0.0
C543 C 0.64525 0.50095 0.39614 0.0
H544 H 0.68492 0.5984 0.40929 0.0
H545 H 0.59886 0.59143 0.44181 0.0
H546 H 0.68982 0.53926 0.36218 0.0
H547 H 0.67546 0.55996 0.33284 0.0
H548 H 0.70151 0.57415 0.36165 0.0
H549 H 0.56588 0.56176 0.41522 0.0
H550 H 0.57229 0.55208 0.37295 0.0
H551 H 0.58289 0.52975 0.4025 0.0
H552 H 0.59721 0.51486 0.28035 0.0
H553 H 0.62833 0.46237 0.34991 0.0
H554 H 0.629 0.5767 0.31709 0.0
H555 H 0.59242 0.57335 0.32735 0.0
H556 H 0.60403 0.56269 0.28688 0.0
H557 H 0.66539 0.51254 0.39998 0.0
H558 H 0.64956 0.47902 0.39873 0.0
H559 H 0.63043 0.50869 0.41556 0.0
C560 C 0.94496 0.21036 0.98998 0.0
C561 C 0.93694 0.18862 0.00773 0.0
C562 C 0.97345 0.21396 0.98127 0.0
C563 C 0.99427 0.19539 0.99058 0.0
C564 C 0.98637 0.1738 0.00904 0.0
C565 C 0.95787 0.17067 0.01734 0.0
C566 C 0.98117 0.23721 0.96156 0.0
C567 C 0.00794 0.15356 0.01949 0.0
C568 C 0.06215 0.18094 0.94372 0.0
C569 C 0.08245 0.19419 0.96443 0.0
C570 C 0.03316 0.18244 0.95109 0.0
C571 C 0.02422 0.19747 0.97994 0.0
C572 C 0.04443 0.21191 0.00023 0.0
C573 C 0.07335 0.21008 0.99225 0.0
C574 C 0.01227 0.16667 0.92886 0.0
C575 C 0.03567 0.22824 0.03114 0.0
H576 H 0.92893 0.2243 0.98243 0.0
H577 H 0.95197 0.15387 0.03118 0.0
H578 H 0.99852 0.24962 0.97363 0.0
H579 H 0.98916 0.22894 0.93754 0.0
H580 H 0.96281 0.25078 0.95787 0.0
H581 H 0.99846 0.13851 0.03475 0.0
H582 H 0.01754 0.14226 0.99789 0.0
H583 H 0.02536 0.16448 0.03332 0.0
H584 H 0.06901 0.16835 0.9224 0.0
H585 H 0.0889 0.22071 0.00809 0.0
H586 H 0.99419 0.17991 0.92318 0.0
H587 H 0.00348 0.14937 0.94111 0.0
H588 H 0.02222 0.15836 0.90583 0.0
H589 H 0.01778 0.24204 0.0265 0.0
H590 H 0.05344 0.24066 0.04235 0.0
H591 H 0.02816 0.21415 0.04874 0.0
C592 C 0.26823 0.3983 0.53476 0.0
C593 C 0.29788 0.39957 0.53828 0.0
C594 C 0.25329 0.41902 0.52061 0.0
C595 C 0.26842 0.44141 0.50992 0.0
C596 C 0.29833 0.44263 0.51326 0.0
C597 C 0.31262 0.42173 0.52727 0.0
C598 C 0.22143 0.41704 0.51726 0.0
C599 C 0.31537 0.46614 0.50214 0.0
C600 C 0.24755 0.488 0.44692 0.0
C601 C 0.24397 0.5127 0.46617 0.0
C602 C 0.25229 0.46353 0.46102 0.0
C603 C 0.25366 0.46393 0.49512 0.0
C604 C 0.2468 0.4882 0.51456 0.0
C605 C 0.24199 0.51238 0.4998 0.0
C606 C 0.25901 0.43801 0.43939 0.0
C607 C 0.24784 0.48947 0.551 0.0
H608 H 0.25669 0.3812 0.54311 0.0
H609 H 0.33552 0.42291 0.52973 0.0
H610 H 0.21136 0.43449 0.53173 0.0
H611 H 0.21507 0.41836 0.49169 0.0
H612 H 0.21297 0.39771 0.52542 0.0
H613 H 0.33849 0.464 0.50665 0.0
H614 H 0.31205 0.46747 0.47586 0.0
H615 H 0.3081 0.48571 0.51487 0.0
H616 H 0.24858 0.48816 0.42085 0.0
H617 H 0.23923 0.53143 0.51477 0.0
H618 H 0.24938 0.41972 0.44881 0.0
H619 H 0.28235 0.43495 0.4387 0.0
H620 H 0.25138 0.43947 0.41425 0.0
H621 H 0.2383 0.4709 0.55981 0.0
H622 H 0.23661 0.50775 0.56235 0.0
H623 H 0.27032 0.49051 0.55914 0.0
C624 C 0.1051 0.84285 0.96415 0.0
C625 C 0.12223 0.82312 0.97682 0.0
C626 C 0.0923 0.83777 0.9337 0.0
C627 C 0.09757 0.81269 0.91502 0.0
C628 C 0.11648 0.79348 0.92679 0.0
C629 C 0.12813 0.79868 0.95795 0.0
C630 C 0.07184 0.85862 0.92237 0.0
C631 C 0.1236 0.76706 0.90711 0.0
C632 C 0.03545 0.7927 0.86038 0.0
C633 C 0.04227 0.806 0.8329 0.0
C634 C 0.05426 0.79293 0.88661 0.0
C635 C 0.08096 0.80592 0.88483 0.0
C636 C 0.08941 0.81623 0.85559 0.0
C637 C 0.0698 0.81647 0.83003 0.0
C638 C 0.04432 0.78172 0.91735 0.0
C639 C 0.11823 0.82907 0.85223 0.0
H640 H 0.1004 0.86168 0.97884 0.0
H641 H 0.14165 0.78352 0.96769 0.0
H642 H 0.07843 0.8648 0.89848 0.0
H643 H 0.05032 0.84947 0.91939 0.0
H644 H 0.07046 0.87724 0.93959 0.0
H645 H 0.14319 0.75764 0.9161 0.0
H646 H 0.1059 0.75233 0.90862 0.0
H647 H 0.12647 0.7704 0.88124 0.0
H648 H 0.01454 0.78377 0.86233 0.0
H649 H 0.07542 0.82667 0.80886 0.0
H650 H 0.04098 0.79887 0.93626 0.0
H651 H 0.06062 0.7681 0.92655 0.0
H652 H 0.02412 0.77012 0.91383 0.0
H653 H 0.11824 0.85002 0.86468 0.0
H654 H 0.12383 0.83049 0.82647 0.0
H655 H 0.1349 0.81719 0.86371 0.0
C656 C 0.84649 0.10079 0.91127 0.0
C657 C 0.8655 0.10587 0.93725 0.0
C658 C 0.85242 0.08095 0.88573 0.0
C659 C 0.87778 0.06559 0.88643 0.0
C660 C 0.89767 0.07154 0.91177 0.0
C661 C 0.89137 0.09174 0.93677 0.0
C662 C 0.83094 0.07554 0.85882 0.0
C663 C 0.92489 0.0555 0.91348 0.0
C664 C 0.87801 0.99223 0.84981 0.0
C665 C 0.89476 0.99382 0.82219 0.0
C666 C 0.87175 0.01558 0.87039 0.0
C667 C 0.8821 0.04131 0.86293 0.0
C668 C 0.89771 0.04335 0.83416 0.0
C669 C 0.90398 0.0195 0.81413 0.0
C670 C 0.85498 0.0125 0.90081 0.0
C671 C 0.90868 0.07052 0.8252 0.0
H672 H 0.82664 0.11194 0.91121 0.0
H673 H 0.90625 0.09562 0.95664 0.0
H674 H 0.84155 0.07439 0.83493 0.0
H675 H 0.82049 0.05554 0.86096 0.0
H676 H 0.81429 0.09158 0.85949 0.0
H677 H 0.93915 0.06415 0.93319 0.0
H678 H 0.91986 0.03403 0.91771 0.0
H679 H 0.93645 0.05504 0.89022 0.0
H680 H 0.87025 0.97252 0.85574 0.0
H681 H 0.917 0.02085 0.79287 0.0
H682 H 0.83612 0.02604 0.90173 0.0
H683 H 0.86826 0.01881 0.92234 0.0
H684 H 0.84773 0.99116 0.90252 0.0
H685 H 0.89144 0.08595 0.82681 0.0
H686 H 0.91763 0.06908 0.80039 0.0
H687 H 0.92553 0.07805 0.84251 0.0
C688 C 0.39536 0.29804 0.46025 0.0
C689 C 0.37438 0.31686 0.47106 0.0
C690 C 0.406 0.29746 0.42869 0.0
C691 C 0.39483 0.31567 0.4073 0.0
C692 C 0.37202 0.33313 0.41735 0.0
C693 C 0.36235 0.33382 0.44932 0.0
C694 C 0.43075 0.27898 0.4192 0.0
C695 C 0.35902 0.35231 0.39499 0.0
C696 C 0.44588 0.34317 0.34804 0.0
C697 C 0.43969 0.32688 0.3195 0.0
C698 C 0.43145 0.33956 0.3767 0.0
C699 C 0.40983 0.3195 0.37662 0.0
C700 C 0.40314 0.30323 0.34762 0.0
C701 C 0.41852 0.30686 0.31932 0.0
C702 C 0.43968 0.35698 0.40719 0.0
C703 C 0.37979 0.28213 0.34653 0.0
H704 H 0.40476 0.28496 0.47708 0.0
H705 H 0.34585 0.34815 0.45757 0.0
H706 H 0.42707 0.26783 0.39512 0.0
H707 H 0.45019 0.29154 0.41744 0.0
H708 H 0.43472 0.26386 0.43705 0.0
H709 H 0.33863 0.36103 0.40448 0.0
H710 H 0.3739 0.36943 0.39207 0.0
H711 H 0.35524 0.3416 0.37067 0.0
H712 H 0.46254 0.35844 0.34801 0.0
H713 H 0.41392 0.29431 0.29709 0.0
H714 H 0.44602 0.34374 0.42628 0.0
H715 H 0.42125 0.36931 0.41644 0.0
H716 H 0.45752 0.37109 0.40324 0.0
H717 H 0.38491 0.26634 0.36312 0.0
H718 H 0.37649 0.27191 0.32182 0.0
H719 H 0.35959 0.29188 0.355 0.0
C720 C 0.18802 0.93265 0.03862 0.0
C721 C 0.20233 0.90798 0.04171 0.0
C722 C 0.20184 0.95499 0.02706 0.0
C723 C 0.23069 0.95262 0.01788 0.0
C724 C 0.24529 0.92772 0.02048 0.0
C725 C 0.23095 0.90568 0.03258 0.0
C726 C 0.18549 0.98124 0.02488 0.0
C727 C 0.27594 0.92442 0.01048 0.0
C728 C 0.24826 0.00703 0.96262 0.0
C729 C 0.25822 0.02819 0.98482 0.0
C730 C 0.24182 0.98119 0.97248 0.0
C731 C 0.24501 0.9765 0.00542 0.0
C732 C 0.25736 0.99693 0.02734 0.0
C733 C 0.264 0.02249 0.01671 0.0
C734 C 0.22909 0.95981 0.94822 0.0
C735 C 0.26116 0.99274 0.06267 0.0
H736 H 0.16595 0.93473 0.04573 0.0
H737 H 0.24212 0.88665 0.0348 0.0
H738 H 0.19625 0.99829 0.03949 0.0
H739 H 0.18492 0.98653 -0.00053 0.0
H740 H 0.1633 0.97983 0.03356 0.0
H741 H 0.28414 0.9036 0.01355 0.0
H742 H 0.27833 0.92848 0.98477 0.0
H743 H 0.28931 0.93957 0.02503 0.0
H744 H 0.2435 0.01111 0.93796 0.0
H745 H 0.27237 0.03848 0.03385 0.0
H746 H 0.20581 0.95884 0.95201 0.0
H747 H 0.2379 0.9393 0.95145 0.0
H748 H 0.23292 0.96455 0.92294 0.0
H749 H 0.24014 0.99373 0.07468 0.0
H750 H 0.27512 0.00858 0.07527 0.0
H751 H 0.27027 0.9723 0.06561 0.0
C752 C 0.54521 0.66169 0.49402 0.0
C753 C 0.5661 0.68108 0.48843 0.0
C754 C 0.51719 0.66463 0.48358 0.0
C755 C 0.50969 0.68758 0.46709 0.0
C756 C 0.53051 0.70741 0.46153 0.0
C757 C 0.55855 0.70392 0.47224 0.0
C758 C 0.49565 0.64293 0.48993 0.0
C759 C 0.52322 0.73214 0.44406 0.0
C760 C 0.44347 0.67398 0.41641 0.0
C761 C 0.42227 0.68417 0.43785 0.0
C762 C 0.47229 0.67671 0.42466 0.0
C763 C 0.48009 0.68999 0.45509 0.0
C764 C 0.45889 0.70208 0.47582 0.0
C765 C 0.43018 0.69902 0.46694 0.0
C766 C 0.49422 0.66366 0.40178 0.0
C767 C 0.46636 0.71651 0.5084 0.0
H768 H 0.55075 0.64394 0.50644 0.0
H769 H 0.57454 0.71899 0.46779 0.0
H770 H 0.47757 0.6523 0.50391 0.0
H771 H 0.48703 0.63341 0.46668 0.0
H772 H 0.50485 0.62658 0.50357 0.0
H773 H 0.54164 0.74609 0.44248 0.0
H774 H 0.51572 0.72557 0.41921 0.0
H775 H 0.50563 0.74367 0.45663 0.0
H776 H 0.43745 0.66295 0.39361 0.0
H777 H 0.4139 0.70687 0.48366 0.0
H778 H 0.50303 0.64527 0.41189 0.0
H779 H 0.51213 0.67792 0.39897 0.0
H780 H 0.48514 0.65735 0.37752 0.0
H781 H 0.47293 0.70119 0.52504 0.0
H782 H 0.44813 0.72825 0.51938 0.0
H783 H 0.48449 0.73065 0.50632 0.0
C784 C 0.3934 0.40792 0.65151 0.0
C785 C 0.36653 0.39548 0.65034 0.0
C786 C 0.40078 0.42759 0.67676 0.0
C787 C 0.38096 0.43476 0.70162 0.0
C788 C 0.35432 0.42139 0.70136 0.0
C789 C 0.34736 0.40201 0.67563 0.0
C790 C 0.42934 0.44153 0.67607 0.0
C791 C 0.3328 0.42821 0.72771 0.0
C792 C 0.40777 0.47556 0.77798 0.0
C793 C 0.39979 0.50217 0.77213 0.0
C794 C 0.40141 0.45325 0.75548 0.0
C795 C 0.38717 0.45782 0.72634 0.0
C796 C 0.37909 0.48466 0.7204 0.0
C797 C 0.38539 0.50646 0.74343 0.0
C798 C 0.41001 0.42485 0.76277 0.0
C799 C 0.36419 0.49044 0.68946 0.0
H800 H 0.40842 0.40289 0.63218 0.0
H801 H 0.32671 0.39221 0.67514 0.0
H802 H 0.4263 0.46344 0.67244 0.0
H803 H 0.44052 0.4406 0.69951 0.0
H804 H 0.44313 0.43218 0.65643 0.0
H805 H 0.31423 0.41418 0.72562 0.0
H806 H 0.34274 0.42718 0.75185 0.0
H807 H 0.32509 0.44942 0.72649 0.0
H808 H 0.41881 0.47222 0.80023 0.0
H809 H 0.37963 0.52708 0.73859 0.0
H810 H 0.42506 0.41609 0.74415 0.0
H811 H 0.39113 0.41127 0.76183 0.0
H812 H 0.4202 0.42467 0.78692 0.0
H813 H 0.37765 0.48366 0.66837 0.0
H814 H 0.35931 0.51249 0.68862 0.0
H815 H 0.34404 0.47872 0.68682 0.0
C816 C 0.05975 0.79352 0.11159 0.0
C817 C 0.06677 0.81636 0.09517 0.0
C818 C 0.03188 0.78962 0.1224 0.0
C819 C 0.01068 0.80908 0.11674 0.0
C820 C 0.01763 0.832 0.09998 0.0
C821 C 0.04549 0.83533 0.08943 0.0
C822 C 0.02517 0.76492 0.14013 0.0
C823 C 0.9957 0.85331 0.09352 0.0
C824 C 0.93127 0.79696 0.1174 0.0
C825 C 0.92358 0.81206 0.14632 0.0
C826 C 0.95991 0.79395 0.10848 0.0
C827 C 0.98126 0.80637 0.12899 0.0
C828 C 0.9737 0.81982 0.15932 0.0
C829 C 0.94494 0.82249 0.16761 0.0
C830 C 0.96711 0.77931 0.07602 0.0
C831 C 0.99579 0.83322 0.18198 0.0
H832 H 0.07604 0.77876 0.11615 0.0
H833 H 0.0506 0.85308 0.07683 0.0
H834 H 0.01802 0.77152 0.16503 0.0
H835 H 0.00749 0.75313 0.12784 0.0
H836 H 0.04378 0.7512 0.14159 0.0
H837 H 0.00447 0.86967 0.07963 0.0
H838 H 0.97756 0.84358 0.07975 0.0
H839 H 0.98725 0.86289 0.11675 0.0
H840 H 0.91486 0.7889 0.10079 0.0
H841 H 0.9391 0.83372 0.1903 0.0
H842 H 0.98548 0.76546 0.07815 0.0
H843 H 0.9732 0.79452 0.05908 0.0
H844 H 0.94889 0.7672 0.06536 0.0
H845 H 0.01389 0.81919 0.18477 0.0
H846 H 0.98694 0.83953 0.20628 0.0
H847 H 0.00425 0.85165 0.17169 0.0
C848 C 0.73266 0.59584 0.55212 0.0
C849 C 0.70409 0.5928 0.54272 0.0
C850 C 0.74743 0.57434 0.5649 0.0
C851 C 0.7333 0.54925 0.56799 0.0
C852 C 0.70452 0.54612 0.55843 0.0
C853 C 0.69029 0.56792 0.54613 0.0
C854 C 0.77799 0.57845 0.57523 0.0
C855 C 0.68865 0.51965 0.56115 0.0
C856 C 0.76734 0.48013 0.57252 0.0
C857 C 0.76132 0.47527 0.60459 0.0
C858 C 0.76062 0.50526 0.56076 0.0
C859 C 0.74791 0.52608 0.58169 0.0
C860 C 0.74451 0.52228 0.61482 0.0
C861 C 0.75106 0.49688 0.62583 0.0
C862 C 0.7647 0.50853 0.52528 0.0
C863 C 0.73136 0.54408 0.63805 0.0
H864 H 0.74345 0.61504 0.54963 0.0
H865 H 0.66827 0.56526 0.53883 0.0
H866 H 0.78026 0.57553 0.6013 0.0
H867 H 0.79161 0.56296 0.56176 0.0
H868 H 0.78597 0.59913 0.57109 0.0
H869 H 0.66652 0.52039 0.55193 0.0
H870 H 0.69984 0.50252 0.54732 0.0
H871 H 0.68797 0.515 0.58679 0.0
H872 H 0.77592 0.4638 0.55612 0.0
H873 H 0.74611 0.49344 0.6506 0.0
H874 H 0.7734 0.52902 0.52172 0.0
H875 H 0.74382 0.50669 0.51277 0.0
H876 H 0.77911 0.49271 0.51363 0.0
H877 H 0.73996 0.56456 0.63418 0.0
H878 H 0.73507 0.54012 0.66366 0.0
H879 H 0.70811 0.5446 0.63377 0.0
C880 C 0.86222 0.1591 0.14045 0.0
C881 C 0.87427 0.17692 0.11979 0.0
C882 C 0.8723 0.15822 0.1722 0.0
C883 C 0.89555 0.17495 0.18308 0.0
C884 C 0.9069 0.19389 0.16277 0.0
C885 C 0.89583 0.1949 0.13148 0.0
C886 C 0.85909 0.13833 0.19344 0.0
C887 C 0.93213 0.2116 0.1731 0.0
C888 C 0.92007 0.18162 0.271 0.0
C889 C 0.9411 0.16146 0.27021 0.0
C890 C 0.9043 0.18579 0.24301 0.0
C891 C 0.9105 0.16999 0.21361 0.0
C892 C 0.93186 0.14968 0.2129 0.0
C893 C 0.94664 0.14547 0.24132 0.0
C894 C 0.88117 0.2071 0.24481 0.0
C895 C 0.93963 0.1328 0.18195 0.0
H896 H 0.84533 0.14538 0.13152 0.0
H897 H 0.90529 0.20861 0.11549 0.0
H898 H 0.87373 0.12091 0.1956 0.0
H899 H 0.85552 0.14828 0.21816 0.0
H900 H 0.83855 0.13015 0.1835 0.0
H901 H 0.93664 0.22705 0.15584 0.0
H902 H 0.92862 0.22232 0.19741 0.0
H903 H 0.9512 0.19852 0.17475 0.0
H904 H 0.91593 0.19395 0.29348 0.0
H905 H 0.96319 0.1301 0.24083 0.0
H906 H 0.86093 0.19783 0.23544 0.0
H907 H 0.88667 0.22356 0.22931 0.0
H908 H 0.87779 0.21639 0.26989 0.0
H909 H 0.9209 0.12106 0.17218 0.0
H910 H 0.95713 0.11821 0.1855 0.0
H911 H 0.94628 0.14643 0.16343 0.0
C912 C 0.159 0.76351 0.16132 0.0
C913 C 0.1748 0.78735 0.15841 0.0
C914 C 0.16214 0.74873 0.18851 0.0
C915 C 0.18205 0.7577 0.21282 0.0
C916 C 0.19775 0.78197 0.21018 0.0
C917 C 0.19368 0.79668 0.18317 0.0
C918 C 0.14456 0.72329 0.19093 0.0
C919 C 0.2196 0.79189 0.23529 0.0
C920 C 0.1822 0.73195 0.29632 0.0
C921 C 0.20324 0.71178 0.29279 0.0
C922 C 0.17413 0.74634 0.27004 0.0
C923 C 0.18801 0.74083 0.23996 0.0
C924 C 0.20899 0.7202 0.23626 0.0
C925 C 0.21616 0.70575 0.26268 0.0
C926 C 0.15123 0.76781 0.27462 0.0
C927 C 0.2247 0.71411 0.20478 0.0
H928 H 0.14412 0.75647 0.14238 0.0
H929 H 0.206 0.81507 0.18095 0.0
H930 H 0.15855 0.70507 0.18921 0.0
H931 H 0.13383 0.72417 0.21474 0.0
H932 H 0.12823 0.7205 0.17153 0.0
H933 H 0.22944 0.81158 0.23008 0.0
H934 H 0.20974 0.7946 0.25958 0.0
H935 H 0.23662 0.77639 0.23631 0.0
H936 H 0.17218 0.73647 0.31965 0.0
H937 H 0.23271 0.69038 0.26014 0.0
H938 H 0.13485 0.76434 0.25541 0.0
H939 H 0.16051 0.78832 0.27249 0.0
H940 H 0.1408 0.76788 0.29857 0.0
H941 H 0.20945 0.70899 0.18471 0.0
H942 H 0.23988 0.6969 0.20568 0.0
H943 H 0.23664 0.73252 0.19896 0.0
C944 C 0.75391 0.7179 0.53107 0.0
C945 C 0.72854 0.71418 0.54772 0.0
C946 C 0.77652 0.73286 0.546 0.0
C947 C 0.77387 0.7439 0.57852 0.0
C948 C 0.74853 0.73974 0.59566 0.0
C949 C 0.72607 0.72513 0.57996 0.0
C950 C 0.80304 0.73725 0.52681 0.0
C951 C 0.74509 0.75082 0.63055 0.0
C952 C 0.84014 0.76327 0.62778 0.0
C953 C 0.83978 0.79183 0.62834 0.0
C954 C 0.81901 0.74733 0.61127 0.0
C955 C 0.79734 0.7603 0.59454 0.0
C956 C 0.79749 0.78909 0.59412 0.0
C957 C 0.81859 0.80454 0.61129 0.0
C958 C 0.81932 0.71672 0.61264 0.0
C959 C 0.77505 0.80362 0.57607 0.0
H960 H 0.75589 0.70961 0.50608 0.0
H961 H 0.7066 0.72212 0.59302 0.0
H962 H 0.80659 0.75946 0.52548 0.0
H963 H 0.82181 0.72922 0.53908 0.0
H964 H 0.80181 0.72714 0.5018 0.0
H965 H 0.72447 0.74488 0.64079 0.0
H966 H 0.76251 0.74325 0.64543 0.0
H967 H 0.74651 0.77346 0.63262 0.0
H968 H 0.85638 0.75348 0.64127 0.0
H969 H 0.81846 0.82664 0.61158 0.0
H970 H 0.81909 0.70622 0.58785 0.0
H971 H 0.79992 0.71026 0.625 0.0
H972 H 0.8382 0.70973 0.62573 0.0
H973 H 0.77392 0.79482 0.55053 0.0
H974 H 0.77921 0.82591 0.57647 0.0
H975 H 0.75395 0.80064 0.587 0.0
C976 C 0.77015 0.22417 0.08638 0.0
C977 C 0.77095 0.21679 0.053 0.0
C978 C 0.74621 0.23705 0.10078 0.0
C979 C 0.7228 0.24319 0.0812 0.0
C980 C 0.7235 0.23578 0.04747 0.0
C981 C 0.74746 0.22239 0.03381 0.0
C982 C 0.746 0.24417 0.13694 0.0
C983 C 0.69919 0.24249 0.02573 0.0
C984 C 0.65146 0.25794 0.12138 0.0
C985 C 0.65164 0.28662 0.12596 0.0
C986 C 0.67445 0.2435 0.10681 0.0
C987 C 0.69794 0.25809 0.09593 0.0
C988 C 0.69797 0.287 0.09965 0.0
C989 C 0.67501 0.30088 0.11492 0.0
C990 C 0.67383 0.21263 0.10355 0.0
C991 C 0.72247 0.30329 0.08793 0.0
H992 H 0.78816 0.21962 0.10131 0.0
H993 H 0.74806 0.21685 0.00795 0.0
H994 H 0.7445 0.26664 0.14237 0.0
H995 H 0.72709 0.23503 0.14767 0.0
H996 H 0.76535 0.23686 0.14888 0.0
H997 H 0.70294 0.23506 3e-05 0.0
H998 H 0.67924 0.23324 0.03377 0.0
H999 H 0.69595 0.26494 0.02736 0.0
H1000 H 0.63337 0.24669 0.12929 0.0
H1001 H 0.67575 0.32298 0.11885 0.0
H1002 H 0.69218 0.20465 0.11664 0.0
H1003 H 0.67584 0.20479 0.07776 0.0
H1004 H 0.65399 0.20435 0.11327 0.0
H1005 H 0.74205 0.29893 0.10148 0.0
H1006 H 0.71849 0.32566 0.09099 0.0
H1007 H 0.72656 0.29717 0.06198 0.0
C1008 C 0.32716 0.25281 0.6534 0.0
C1009 C 0.3333 0.28084 0.65602 0.0
C1010 C 0.32201 0.23916 0.68105 0.0
C1011 C 0.32355 0.25386 0.71196 0.0
C1012 C 0.33165 0.28172 0.71481 0.0
C1013 C 0.33617 0.29496 0.68675 0.0
C1014 C 0.31308 0.20952 0.67704 0.0
C1015 C 0.33406 0.29794 0.74738 0.0
C1016 C 0.27434 0.2316 0.77636 0.0
C1017 C 0.29242 0.21621 0.79458 0.0
C1018 C 0.28428 0.24382 0.74943 0.0
C1019 C 0.31323 0.24113 0.7408 0.0
C1020 C 0.33187 0.22629 0.7595 0.0
C1021 C 0.32119 0.21383 0.78612 0.0
C1022 C 0.26368 0.25943 0.73004 0.0
C1023 C 0.36296 0.22341 0.75123 0.0
H1024 H 0.32495 0.24181 0.62968 0.0
H1025 H 0.34136 0.31656 0.68887 0.0
H1026 H 0.32556 0.19742 0.6934 0.0
H1027 H 0.29041 0.20784 0.68377 0.0
H1028 H 0.31574 0.20032 0.6518 0.0
H1029 H 0.34428 0.31816 0.74567 0.0
H1030 H 0.31258 0.30137 0.75782 0.0
H1031 H 0.3465 0.28646 0.76441 0.0
H1032 H 0.25226 0.23417 0.78321 0.0
H1033 H 0.33527 0.20185 0.79995 0.0
H1034 H 0.26335 0.25057 0.70449 0.0
H1035 H 0.27061 0.28103 0.73012 0.0
H1036 H 0.24172 0.25912 0.73966 0.0
H1037 H 0.36538 0.21227 0.72695 0.0
H1038 H 0.37488 0.21226 0.76906 0.0
H1039 H 0.37269 0.24389 0.7502 0.0
C1040 C 0.6582 0.73703 0.42339 0.0
C1041 C 0.67389 0.71316 0.42637 0.0
C1042 C 0.66152 0.75194 0.39634 0.0
C1043 C 0.68149 0.74305 0.37226 0.0
C1044 C 0.69713 0.71879 0.37502 0.0
C1045 C 0.69289 0.70397 0.40186 0.0
C1046 C 0.64402 0.77738 0.39376 0.0
C1047 C 0.71904 0.70893 0.35017 0.0
C1048 C 0.68242 0.76805 0.28843 0.0
C1049 C 0.70374 0.78799 0.29201 0.0
C1050 C 0.67385 0.75413 0.31484 0.0
C1051 C 0.68752 0.75988 0.34515 0.0
C1052 C 0.7087 0.78039 0.34894 0.0
C1053 C 0.71637 0.79437 0.32235 0.0
C1054 C 0.65077 0.73279 0.31013 0.0
C1055 C 0.7242 0.78671 0.38066 0.0
H1056 H 0.64325 0.74399 0.44214 0.0
H1057 H 0.70516 0.68557 0.40413 0.0
H1058 H 0.65806 0.7956 0.39555 0.0
H1059 H 0.63325 0.77648 0.36987 0.0
H1060 H 0.62772 0.78019 0.41304 0.0
H1061 H 0.72896 0.68933 0.35558 0.0
H1062 H 0.7092 0.70607 0.32579 0.0
H1063 H 0.736 0.72453 0.34926 0.0
H1064 H 0.6726 0.76327 0.26493 0.0
H1065 H 0.73311 0.80959 0.32496 0.0
H1066 H 0.63446 0.73629 0.32926 0.0
H1067 H 0.65992 0.71222 0.31225 0.0
H1068 H 0.64027 0.7328 0.28613 0.0
H1069 H 0.70885 0.79175 0.40048 0.0
H1070 H 0.73928 0.80405 0.37993 0.0
H1071 H 0.73624 0.76843 0.38672 0.0
C1072 C 0.83526 0.20999 0.90649 0.0
C1073 C 0.83322 0.2226 0.93807 0.0
C1074 C 0.83004 0.22469 0.8797 0.0
C1075 C 0.82216 0.25254 0.88467 0.0
C1076 C 0.82147 0.26573 0.91642 0.0
C1077 C 0.82724 0.25062 0.94279 0.0
C1078 C 0.83147 0.21002 0.84617 0.0
C1079 C 0.81287 0.29533 0.92269 0.0
C1080 C 0.81914 0.29524 0.81279 0.0
C1081 C 0.7903 0.2931 0.80425 0.0
C1082 C 0.82995 0.28215 0.83894 0.0
C1083 C 0.81141 0.26684 0.85709 0.0
C1084 C 0.78231 0.2647 0.84867 0.0
C1085 C 0.7722 0.27763 0.82223 0.0
C1086 C 0.86117 0.28457 0.84707 0.0
C1087 C 0.76181 0.2486 0.8675 0.0
H1088 H 0.84028 0.1884 0.90273 0.0
H1089 H 0.82565 0.26046 0.96716 0.0
H1090 H 0.80972 0.20749 0.83598 0.0
H1091 H 0.84379 0.22221 0.82985 0.0
H1092 H 0.84132 0.18948 0.84622 0.0
H1093 H 0.81634 0.30331 0.9483 0.0
H1094 H 0.82493 0.30821 0.90689 0.0
H1095 H 0.79002 0.29746 0.91681 0.0
H1096 H 0.83323 0.30735 0.79922 0.0
H1097 H 0.75004 0.27529 0.81539 0.0
H1098 H 0.87091 0.26395 0.84587 0.0
H1099 H 0.86402 0.29399 0.87218 0.0
H1100 H 0.8728 0.29707 0.83041 0.0
H1101 H 0.76827 0.22681 0.86592 0.0
H1102 H 0.73965 0.24977 0.85847 0.0
H1103 H 0.76226 0.25636 0.89344 0.0
C1104 C 0.2439 0.29376 0.54447 0.0
C1105 C 0.27074 0.28208 0.53848 0.0
C1106 C 0.21934 0.28146 0.5305 0.0
C1107 C 0.22166 0.25661 0.51061 0.0
C1108 C 0.2487 0.24466 0.5046 0.0
C1109 C 0.27295 0.2577 0.51834 0.0
C1110 C 0.19095 0.29511 0.53688 0.0
C1111 C 0.25198 0.21796 0.4839 0.0
C1112 C 0.1577 0.20969 0.4982 0.0
C1113 C 0.1495 0.21379 0.46644 0.0
C1114 C 0.18085 0.22383 0.51308 0.0
C1115 C 0.19586 0.24295 0.49608 0.0
C1116 C 0.18698 0.24809 0.4646 0.0
C1117 C 0.16411 0.23328 0.45005 0.0
C1118 C 0.18981 0.21766 0.54662 0.0
C1119 C 0.20219 0.26865 0.44589 0.0
H1120 H 0.24213 0.31277 0.55977 0.0
H1121 H 0.29364 0.24852 0.51376 0.0
H1122 H 0.18074 0.29915 0.51366 0.0
H1123 H 0.17661 0.28134 0.549 0.0
H1124 H 0.19287 0.31472 0.55229 0.0
H1125 H 0.27445 0.21117 0.48201 0.0
H1126 H 0.23932 0.20178 0.49418 0.0
H1127 H 0.2437 0.22003 0.4592 0.0
H1128 H 0.14624 0.19512 0.51135 0.0
H1129 H 0.15833 0.23638 0.42537 0.0
H1130 H 0.19027 0.23672 0.56312 0.0
H1131 H 0.21165 0.20916 0.54588 0.0
H1132 H 0.17542 0.20278 0.55693 0.0
H1133 H 0.20399 0.28854 0.4607 0.0
H1134 H 0.19116 0.27197 0.42287 0.0
H1135 H 0.22406 0.26145 0.4402 0.0
C1136 C 0.25568 0.78474 0.05327 0.0
C1137 C 0.22992 0.78755 0.03682 0.0
C1138 C 0.27852 0.77042 0.03821 0.0
C1139 C 0.27567 0.7591 0.00578 0.0
C1140 C 0.24997 0.76251 0.9888 0.0
C1141 C 0.22733 0.77649 0.00461 0.0
C1142 C 0.30544 0.76684 0.05723 0.0
C1143 C 0.24628 0.75111 0.95401 0.0
C1144 C 0.3414 0.73973 0.95618 0.0
C1145 C 0.34126 0.71122 0.95621 0.0
C1146 C 0.32039 0.7557 0.97262 0.0
C1147 C 0.29911 0.7428 0.98988 0.0
C1148 C 0.29952 0.71407 0.99088 0.0
C1149 C 0.32047 0.6986 0.97378 0.0
C1150 C 0.32039 0.78624 0.97064 0.0
C1151 C 0.27749 0.69961 0.00948 0.0
H1152 H 0.25777 0.79316 0.07821 0.0
H1153 H 0.20756 0.77884 0.99168 0.0
H1154 H 0.30927 0.74477 0.05926 0.0
H1155 H 0.3239 0.77477 0.04444 0.0
H1156 H 0.30452 0.7775 0.08197 0.0
H1157 H 0.22551 0.75677 0.94376 0.0
H1158 H 0.26349 0.75869 0.93896 0.0
H1159 H 0.24785 0.72849 0.95222 0.0
H1160 H 0.35738 0.74943 0.94235 0.0
H1161 H 0.32055 0.67654 0.97398 0.0
H1162 H 0.32033 0.79708 0.99527 0.0
H1163 H 0.30079 0.79231 0.95822 0.0
H1164 H 0.33905 0.79322 0.95732 0.0
H1165 H 0.27669 0.70875 0.03489 0.0
H1166 H 0.28186 0.67738 0.00947 0.0
H1167 H 0.2562 0.70222 0.99869 0.0
loop_
_geom_bond_atom_site_label_1
_geom_bond_atom_site_label_2
_geom_bond_distance
_geom_bond_site_symmetry_2
_ccdc_geom_bond_type
Fe0 O2 1.918 . S
Fe0 O5 1.997 . S
Fe0 O6 2.002 . S
Fe0 O11 1.976 . S
Fe0 O14 1.996 . S
Fe1 O2 1.918 . S
Fe1 O9 1.997 . S
Fe1 O12 1.996 . S
Fe1 O16 1.976 . S
Fe1 O19 2.002 . S
O2 Fe0 1.918 . S
O2 Fe1 1.918 . S
O2 Fe3 1.918 . S
Fe3 O2 1.918 . S
Fe3 O4 2.002 . S
Fe3 O13 1.976 . S
Fe3 O17 1.996 . S
Fe3 O20 1.997 . S
O4 Fe3 2.002 . S
O4 C21 1.295 . S
O5 Fe0 1.997 . S
O5 C21 1.235 . S
O6 Fe0 2.002 . S
O6 C7 1.295 . S
C7 O6 1.295 . S
C7 O9 1.235 . S
C8 O13 1.287 . S
C8 O14 1.255 . S
O9 Fe1 1.997 . S
O9 C7 1.235 . S
C10 O16 1.287 . S
C10 O17 1.255 . S
O11 Fe0 1.976 . S
O11 C18 1.287 . S
O12 Fe1 1.996 . S
O12 C18 1.255 . S
O13 Fe3 1.976 . S
O13 C8 1.287 . S
O14 Fe0 1.996 . S
O14 C8 1.255 . S
C15 O19 1.295 . S
C15 O20 1.235 . S
O16 Fe1 1.976 . S
O16 C10 1.287 . S
O17 Fe3 1.996 . S
O17 C10 1.255 . S
C18 O11 1.287 . S
C18 O12 1.255 . S
O19 Fe1 2.002 . S
O19 C15 1.295 . S
O20 Fe3 1.997 . S
O20 C15 1.235 . S
C21 O4 1.295 . S
C21 O5 1.235 . S
Fe22 O24 1.918 . S
Fe22 O27 1.997 . S
Fe22 O28 2.002 . S
Fe22 O33 1.976 . S
Fe22 O36 1.996 . S
Fe23 O24 1.918 . S
Fe23 O31 1.997 . S
Fe23 O34 1.996 . S
Fe23 O38 1.976 . S
Fe23 O41 2.002 . S
O24 Fe22 1.918 . S
O24 Fe23 1.918 . S
O24 Fe25 1.918 . S
Fe25 O24 1.918 . S
Fe25 O26 2.002 . S
Fe25 O35 1.976 . S
Fe25 O39 1.996 . S
Fe25 O42 1.997 . S
O26 Fe25 2.002 . S
O26 C43 1.295 . S
O27 Fe22 1.997 . S
O27 C43 1.235 . S
O28 Fe22 2.002 . S
O28 C29 1.295 . S
C29 O28 1.295 . S
C29 O31 1.235 . S
C30 O35 1.287 . S
C30 O36 1.255 . S
O31 Fe23 1.997 . S
O31 C29 1.235 . S
C32 O38 1.287 . S
C32 O39 1.255 . S
O33 Fe22 1.976 . S
O33 C40 1.287 . S
O34 Fe23 1.996 . S
O34 C40 1.255 . S
O35 Fe25 1.976 . S
O35 C30 1.287 . S
O36 Fe22 1.996 . S
O36 C30 1.255 . S
C37 O41 1.295 . S
C37 O42 1.235 . S
O38 Fe23 1.976 . S
O38 C32 1.287 . S
O39 Fe25 1.996 . S
O39 C32 1.255 . S
C40 O33 1.287 . S
C40 O34 1.255 . S
O41 Fe23 2.002 . S
O41 C37 1.295 . S
O42 Fe25 1.997 . S
O42 C37 1.235 . S
C43 O26 1.295 . S
C43 O27 1.235 . S
Fe44 O46 1.918 . S
Fe44 O49 1.997 1_554 S
Fe44 O50 2.002 . S
Fe44 O55 1.976 . S
Fe44 O58 1.996 . S
Fe45 O46 1.918 . S
Fe45 O53 1.997 . S
Fe45 O56 1.996 . S
Fe45 O60 1.976 . S
Fe45 O63 2.002 1_554 S
O46 Fe44 1.918 . S
O46 Fe45 1.918 . S
O46 Fe47 1.928 . S
Fe47 O46 1.928 . S
Fe47 O48 1.984 1_554 S
Fe47 O57 1.991 . S
Fe47 O61 2.012 . S
Fe47 O64 1.981 1_554 S
O48 Fe47 1.984 1_556 S
O48 C65 1.295 . S
O49 Fe44 1.997 1_556 S
O49 C65 1.235 . S
O50 Fe44 2.002 . S
O50 C51 1.295 1_554 S
C51 O50 1.295 1_556 S
C51 O53 1.235 1_556 S
C52 O57 1.287 . S
C52 O58 1.255 . S
O53 Fe45 1.997 . S
O53 C51 1.235 1_554 S
C54 O60 1.287 . S
C54 O61 1.255 . S
O55 Fe44 1.976 . S
O55 C62 1.287 . S
O56 Fe45 1.996 . S
O56 C62 1.255 . S
O57 Fe47 1.991 . S
O57 C52 1.287 . S
O58 Fe44 1.996 . S
O58 C52 1.255 . S
C59 O63 1.295 . S
C59 O64 1.235 . S
O60 Fe45 1.976 . S
O60 C54 1.287 . S
O61 Fe47 2.012 . S
O61 C54 1.255 . S
C62 O55 1.287 . S
C62 O56 1.255 . S
O63 Fe45 2.002 1_556 S
O63 C59 1.295 . S
O64 Fe47 1.981 1_556 S
O64 C59 1.235 . S
C65 O48 1.295 . S
C65 O49 1.235 . S
Fe66 O68 1.918 . S
Fe66 O71 1.997 . S
Fe66 O72 2.002 . S
Fe66 O77 1.976 . S
Fe66 O80 1.996 . S
Fe67 O68 1.918 . S
Fe67 O75 1.997 . S
Fe67 O78 1.996 . S
Fe67 O82 1.976 . S
Fe67 O85 2.002 . S
O68 Fe66 1.918 . S
O68 Fe67 1.918 . S
O68 Fe69 1.918 . S
Fe69 O68 1.918 . S
Fe69 O70 2.002 . S
Fe69 O79 1.976 . S
Fe69 O83 1.996 . S
Fe69 O86 1.997 . S
O70 Fe69 2.002 . S
O70 C87 1.295 . S
O71 Fe66 1.997 . S
O71 C87 1.235 . S
O72 Fe66 2.002 . S
O72 C73 1.295 . S
C73 O72 1.295 . S
C73 O75 1.235 . S
C74 O79 1.287 . S
C74 O80 1.255 . S
O75 Fe67 1.997 . S
O75 C73 1.235 . S
C76 O82 1.287 . S
C76 O83 1.255 . S
O77 Fe66 1.976 . S
O77 C84 1.287 . S
O78 Fe67 1.996 . S
O78 C84 1.255 . S
O79 Fe69 1.976 . S
O79 C74 1.287 . S
O80 Fe66 1.996 . S
O80 C74 1.255 . S
C81 O85 1.295 . S
C81 O86 1.235 . S
O82 Fe67 1.976 . S
O82 C76 1.287 . S
O83 Fe69 1.996 . S
O83 C76 1.255 . S
C84 O77 1.287 . S
C84 O78 1.255 . S
O85 Fe67 2.002 . S
O85 C81 1.295 . S
O86 Fe69 1.997 . S
O86 C81 1.235 . S
C87 O70 1.295 . S
C87 O71 1.235 . S
C88 C89 1.390 . S
C88 C90 1.393 1_655 S
C88 H112 0.931 . S
C89 C88 1.390 . S
C89 C93 1.397 . S
C90 C88 1.393 1_455 S
C90 C91 1.384 . S
C90 H113 0.930 . S
C91 C90 1.384 . S
C91 C92 1.376 . S
C91 C94 1.481 . S
C92 C91 1.376 . S
C92 C93 1.390 1_455 S
C92 H114 0.929 1_455 S
C93 C89 1.397 . S
C93 C92 1.390 1_655 S
C93 H115 0.931 . S
C94 C91 1.481 . S
C94 C95 1.387 . S
C94 C99 1.390 . S
C95 C94 1.387 . S
C95 C96 1.401 . S
C95 H116 0.930 . S
C96 C95 1.401 . S
C96 C97 1.376 . S
C96 C105 1.511 . S
C97 C96 1.376 . S
C97 C98 1.392 . S
C97 H118 0.931 . S
C98 C97 1.392 . S
C98 C99 1.361 . S
C98 C100 1.500 . S
C99 C94 1.390 . S
C99 C98 1.361 . S
C99 H117 0.931 . S
C100 C98 1.500 . S
C100 C101 1.371 . S
C100 C102 1.365 . S
C101 C100 1.371 . S
C101 C111 1.386 . S
C101 H119 0.931 . S
C102 C100 1.365 . S
C102 C103 1.409 . S
C102 H120 0.929 . S
C103 C102 1.409 . S
C103 C104 1.380 . S
C103 H121 0.930 . S
C104 C103 1.380 . S
C104 C111 1.357 . S
C105 C96 1.511 . S
C105 C106 1.341 . S
C105 C107 1.371 . S
C106 C105 1.341 . S
C106 C110 1.394 . S
C106 H122 0.930 . S
C107 C105 1.371 . S
C107 C108 1.392 . S
C107 H123 0.931 . S
C108 C107 1.392 . S
C108 C109 1.331 . S
C108 H126 0.932 . S
C109 C108 1.331 . S
C109 C110 1.336 . S
C110 C106 1.394 . S
C110 C109 1.336 . S
C110 H125 0.929 . S
C111 C101 1.386 . S
C111 C104 1.357 . S
C111 H124 0.928 . S
H112 C88 0.931 . S
H113 C90 0.930 . S
H114 C92 0.929 1_655 S
H115 C93 0.931 . S
H116 C95 0.930 . S
H117 C99 0.931 . S
H118 C97 0.931 . S
H119 C101 0.931 . S
H120 C102 0.929 . S
H121 C103 0.930 . S
H122 C106 0.930 . S
H123 C107 0.931 . S
H124 C111 0.928 . S
H125 C110 0.929 . S
H126 C108 0.932 . S
C127 C128 1.386 . S
C127 C129 1.397 . S
C127 H151 0.931 . S
C128 C127 1.386 . S
C128 C132 1.397 . S
C129 C127 1.397 . S
C129 C130 1.384 . S
C129 H152 0.930 . S
C130 C129 1.384 . S
C130 C131 1.377 . S
C130 C133 1.481 . S
C131 C130 1.377 . S
C131 C132 1.389 . S
C131 H153 0.929 . S
C132 C128 1.397 . S
C132 C131 1.389 . S
C132 H154 0.931 . S
C133 C130 1.481 . S
C133 C134 1.387 . S
C133 C138 1.390 . S
C134 C133 1.387 . S
C134 C135 1.401 . S
C134 H155 0.930 . S
C135 C134 1.401 . S
C135 C136 1.376 . S
C135 C144 1.511 . S
C136 C135 1.376 . S
C136 C137 1.392 . S
C136 H157 0.931 . S
C137 C136 1.392 . S
C137 C138 1.361 . S
C137 C139 1.500 . S
C138 C133 1.390 . S
C138 C137 1.361 . S
C138 H156 0.931 . S
C139 C137 1.500 . S
C139 C140 1.371 . S
C139 C141 1.365 . S
C140 C139 1.371 . S
C140 C150 1.386 . S
C140 H158 0.931 . S
C141 C139 1.365 . S
C141 C142 1.409 . S
C141 H159 0.929 . S
C142 C141 1.409 . S
C142 C143 1.380 . S
C142 H160 0.930 . S
C143 C142 1.380 . S
C143 C150 1.357 . S
C144 C135 1.511 . S
C144 C145 1.341 . S
C144 C146 1.371 . S
C145 C144 1.341 . S
C145 C149 1.394 . S
C145 H161 0.930 . S
C146 C144 1.371 . S
C146 C147 1.392 . S
C146 H162 0.931 . S
C147 C146 1.392 . S
C147 C148 1.331 . S
C147 H165 0.932 . S
C148 C147 1.331 . S
C148 C149 1.336 . S
C149 C145 1.394 . S
C149 C148 1.336 . S
C149 H164 0.929 . S
C150 C140 1.386 . S
C150 C143 1.357 . S
C150 H163 0.928 . S
H151 C127 0.931 . S
H152 C129 0.930 . S
H153 C131 0.929 . S
H154 C132 0.931 . S
H155 C134 0.930 . S
H156 C138 0.931 . S
H157 C136 0.931 . S
H158 C140 0.931 . S
H159 C141 0.929 . S
H160 C142 0.930 . S
H161 C145 0.930 . S
H162 C146 0.931 . S
H163 C150 0.928 . S
H164 C149 0.929 . S
H165 C147 0.932 . S
C166 C167 1.386 . S
C166 C168 1.397 . S
C166 H190 0.931 . S
C167 C166 1.386 . S
C167 C171 1.397 . S
C168 C166 1.397 . S
C168 C169 1.384 . S
C168 H191 0.930 . S
C169 C168 1.384 . S
C169 C170 1.377 . S
C169 C172 1.481 . S
C170 C169 1.377 . S
C170 C171 1.389 . S
C170 H192 0.929 . S
C171 C167 1.397 . S
C171 C170 1.389 . S
C171 H193 0.931 . S
C172 C169 1.481 . S
C172 C173 1.387 . S
C172 C177 1.390 . S
C173 C172 1.387 . S
C173 C174 1.401 . S
C173 H194 0.930 . S
C174 C173 1.401 . S
C174 C175 1.376 . S
C174 C183 1.511 . S
C175 C174 1.376 . S
C175 C176 1.392 . S
C175 H196 0.931 . S
C176 C175 1.392 . S
C176 C177 1.361 . S
C176 C178 1.500 . S
C177 C172 1.390 . S
C177 C176 1.361 . S
C177 H195 0.931 . S
C178 C176 1.500 . S
C178 C179 1.371 . S
C178 C180 1.365 . S
C179 C178 1.371 . S
C179 C189 1.386 . S
C179 H197 0.931 . S
C180 C178 1.365 . S
C180 C181 1.409 . S
C180 H198 0.929 . S
C181 C180 1.409 . S
C181 C182 1.380 . S
C181 H199 0.930 . S
C182 C181 1.380 . S
C182 C189 1.357 . S
C183 C174 1.511 . S
C183 C184 1.341 . S
C183 C185 1.371 . S
C184 C183 1.341 . S
C184 C188 1.394 . S
C184 H200 0.930 . S
C185 C183 1.371 . S
C185 C186 1.392 . S
C185 H201 0.931 . S
C186 C185 1.392 . S
C186 C187 1.331 . S
C186 H204 0.932 . S
C187 C186 1.331 . S
C187 C188 1.336 . S
C188 C184 1.394 . S
C188 C187 1.336 . S
C188 H203 0.929 . S
C189 C179 1.386 . S
C189 C182 1.357 . S
C189 H202 0.928 . S
H190 C166 0.931 . S
H191 C168 0.930 . S
H192 C170 0.929 . S
H193 C171 0.931 . S
H194 C173 0.930 . S
H195 C177 0.931 . S
H196 C175 0.931 . S
H197 C179 0.931 . S
H198 C180 0.929 . S
H199 C181 0.930 . S
H200 C184 0.930 . S
H201 C185 0.931 . S
H202 C189 0.928 . S
H203 C188 0.929 . S
H204 C186 0.932 . S
C205 C206 1.386 . S
C205 C207 1.397 . S
C205 H229 0.931 . S
C206 C205 1.386 . S
C206 C210 1.397 . S
C207 C205 1.397 . S
C207 C208 1.384 . S
C207 H230 0.930 . S
C208 C207 1.384 . S
C208 C209 1.377 . S
C208 C211 1.481 . S
C209 C208 1.377 . S
C209 C210 1.389 . S
C209 H231 0.929 . S
C210 C206 1.397 . S
C210 C209 1.389 . S
C210 H232 0.931 . S
C211 C208 1.481 . S
C211 C212 1.387 . S
C211 C216 1.390 . S
C212 C211 1.387 . S
C212 C213 1.401 . S
C212 H233 0.930 . S
C213 C212 1.401 . S
C213 C214 1.376 . S
C213 C222 1.511 . S
C214 C213 1.376 . S
C214 C215 1.392 . S
C214 H235 0.931 . S
C215 C214 1.392 . S
C215 C216 1.361 . S
C215 C217 1.500 . S
C216 C211 1.390 . S
C216 C215 1.361 . S
C216 H234 0.931 . S
C217 C215 1.500 . S
C217 C218 1.371 . S
C217 C219 1.365 . S
C218 C217 1.371 . S
C218 C228 1.386 . S
C218 H236 0.931 . S
C219 C217 1.365 . S
C219 C220 1.409 . S
C219 H237 0.929 . S
C220 C219 1.409 . S
C220 C221 1.380 . S
C220 H238 0.930 . S
C221 C220 1.380 . S
C221 C228 1.357 . S
C222 C213 1.511 . S
C222 C223 1.341 . S
C222 C224 1.371 . S
C223 C222 1.341 . S
C223 C227 1.394 . S
C223 H239 0.930 . S
C224 C222 1.371 . S
C224 C225 1.392 . S
C224 H240 0.931 . S
C225 C224 1.392 . S
C225 C226 1.331 . S
C225 H243 0.932 . S
C226 C225 1.331 . S
C226 C227 1.336 . S
C227 C223 1.394 . S
C227 C226 1.336 . S
C227 H242 0.929 . S
C228 C218 1.386 . S
C228 C221 1.357 . S
C228 H241 0.928 . S
H229 C205 0.931 . S
H230 C207 0.930 . S
H231 C209 0.929 . S
H232 C210 0.931 . S
H233 C212 0.930 . S
H234 C216 0.931 . S
H235 C214 0.931 . S
H236 C218 0.931 . S
H237 C219 0.929 . S
H238 C220 0.930 . S
H239 C223 0.930 . S
H240 C224 0.931 . S
H241 C228 0.928 . S
H242 C227 0.929 . S
H243 C225 0.932 . S
C244 C245 1.386 . S
C244 C246 1.397 . S
C244 H268 0.931 . S
C245 C244 1.386 . S
C245 C249 1.397 . S
C246 C244 1.397 . S
C246 C247 1.384 . S
C246 H269 0.930 . S
C247 C246 1.384 . S
C247 C248 1.377 . S
C247 C250 1.481 . S
C248 C247 1.377 . S
C248 C249 1.389 . S
C248 H270 0.929 . S
C249 C245 1.397 . S
C249 C248 1.389 . S
C249 H271 0.931 . S
C250 C247 1.481 . S
C250 C251 1.387 . S
C250 C255 1.390 . S
C251 C250 1.387 . S
C251 C252 1.401 . S
C251 H272 0.930 . S
C252 C251 1.401 . S
C252 C253 1.376 . S
C252 C261 1.511 . S
C253 C252 1.376 . S
C253 C254 1.392 . S
C253 H274 0.931 . S
C254 C253 1.392 . S
C254 C255 1.361 . S
C254 C256 1.500 . S
C255 C250 1.390 . S
C255 C254 1.361 . S
C255 H273 0.931 . S
C256 C254 1.500 . S
C256 C257 1.371 . S
C256 C258 1.365 . S
C257 C256 1.371 . S
C257 C267 1.386 . S
C257 H275 0.931 . S
C258 C256 1.365 . S
C258 C259 1.409 . S
C258 H276 0.929 . S
C259 C258 1.409 . S
C259 C260 1.380 . S
C259 H277 0.930 . S
C260 C259 1.380 . S
C260 C267 1.357 . S
C261 C252 1.511 . S
C261 C262 1.341 . S
C261 C263 1.371 . S
C262 C261 1.341 . S
C262 C266 1.394 . S
C262 H278 0.930 . S
C263 C261 1.371 . S
C263 C264 1.392 . S
C263 H279 0.931 . S
C264 C263 1.392 . S
C264 C265 1.331 . S
C264 H282 0.932 . S
C265 C264 1.331 . S
C265 C266 1.336 . S
C266 C262 1.394 . S
C266 C265 1.336 . S
C266 H281 0.929 . S
C267 C257 1.386 . S
C267 C260 1.357 . S
C267 H280 0.928 . S
H268 C244 0.931 . S
H269 C246 0.930 . S
H270 C248 0.929 . S
H271 C249 0.931 . S
H272 C251 0.930 . S
H273 C255 0.931 . S
H274 C253 0.931 . S
H275 C257 0.931 . S
H276 C258 0.929 . S
H277 C259 0.930 . S
H278 C262 0.930 . S
H279 C263 0.931 . S
H280 C267 0.928 . S
H281 C266 0.929 . S
H282 C264 0.932 . S
C283 C284 1.386 . S
C283 C285 1.397 . S
C283 H307 0.931 . S
C284 C283 1.386 . S
C284 C288 1.397 . S
C285 C283 1.397 . S
C285 C286 1.384 . S
C285 H308 0.930 . S
C286 C285 1.384 . S
C286 C287 1.377 . S
C286 C289 1.481 . S
C287 C286 1.377 . S
C287 C288 1.389 . S
C287 H309 0.929 . S
C288 C284 1.397 . S
C288 C287 1.389 . S
C288 H310 0.931 1_556 S
C289 C286 1.481 . S
C289 C290 1.387 . S
C289 C294 1.390 . S
C290 C289 1.387 . S
C290 C291 1.401 . S
C290 H311 0.930 . S
C291 C290 1.401 . S
C291 C292 1.376 . S
C291 C300 1.511 . S
C292 C291 1.376 . S
C292 C293 1.392 . S
C292 H313 0.931 . S
C293 C292 1.392 . S
C293 C294 1.361 . S
C293 C295 1.500 . S
C294 C289 1.390 . S
C294 C293 1.361 . S
C294 H312 0.931 . S
C295 C293 1.500 . S
C295 C296 1.371 . S
C295 C297 1.365 . S
C296 C295 1.371 . S
C296 C306 1.386 . S
C296 H314 0.931 . S
C297 C295 1.365 . S
C297 C298 1.409 . S
C297 H315 0.929 . S
C298 C297 1.409 . S
C298 C299 1.380 . S
C298 H316 0.930 1_556 S
C299 C298 1.380 . S
C299 C306 1.357 . S
C300 C291 1.511 . S
C300 C301 1.341 . S
C300 C302 1.371 . S
C301 C300 1.341 . S
C301 C305 1.394 . S
C301 H317 0.930 . S
C302 C300 1.371 . S
C302 C303 1.392 . S
C302 H318 0.931 . S
C303 C302 1.392 . S
C303 C304 1.331 . S
C303 H321 0.932 . S
C304 C303 1.331 . S
C304 C305 1.336 . S
C305 C301 1.394 . S
C305 C304 1.336 . S
C305 H320 0.929 . S
C306 C296 1.386 . S
C306 C299 1.357 . S
C306 H319 0.928 . S
H307 C283 0.931 . S
H308 C285 0.930 . S
H309 C287 0.929 . S
H310 C288 0.931 1_554 S
H311 C290 0.930 . S
H312 C294 0.931 . S
H313 C292 0.931 . S
H314 C296 0.931 . S
H315 C297 0.929 . S
H316 C298 0.930 1_554 S
H317 C301 0.930 . S
H318 C302 0.931 . S
H319 C306 0.928 . S
H320 C305 0.929 . S
H321 C303 0.932 . S
C322 C323 1.386 . S
C322 C324 1.397 . S
C322 H346 0.931 . S
C323 C322 1.386 . S
C323 C327 1.397 . S
C324 C322 1.397 . S
C324 C325 1.384 . S
C324 H347 0.930 . S
C325 C324 1.384 . S
C325 C326 1.377 . S
C325 C328 1.481 . S
C326 C325 1.377 . S
C326 C327 1.389 . S
C326 H348 0.929 . S
C327 C323 1.397 . S
C327 C326 1.389 . S
C327 H349 0.931 . S
C328 C325 1.481 . S
C328 C329 1.387 . S
C328 C333 1.390 . S
C329 C328 1.387 . S
C329 C330 1.401 . S
C329 H350 0.930 . S
C330 C329 1.401 . S
C330 C331 1.376 . S
C330 C339 1.511 . S
C331 C330 1.376 . S
C331 C332 1.392 . S
C331 H352 0.931 . S
C332 C331 1.392 . S
C332 C333 1.361 . S
C332 C334 1.500 . S
C333 C328 1.390 . S
C333 C332 1.361 . S
C333 H351 0.931 . S
C334 C332 1.500 . S
C334 C335 1.371 . S
C334 C336 1.365 . S
C335 C334 1.371 . S
C335 C345 1.386 . S
C335 H353 0.931 . S
C336 C334 1.365 . S
C336 C337 1.409 . S
C336 H354 0.929 . S
C337 C336 1.409 . S
C337 C338 1.380 . S
C337 H355 0.930 . S
C338 C337 1.380 . S
C338 C345 1.357 . S
C339 C330 1.511 . S
C339 C340 1.341 . S
C339 C341 1.371 . S
C340 C339 1.341 . S
C340 C344 1.394 . S
C340 H356 0.930 . S
C341 C339 1.371 . S
C341 C342 1.392 . S
C341 H357 0.931 . S
C342 C341 1.392 . S
C342 C343 1.331 . S
C342 H360 0.932 . S
C343 C342 1.331 . S
C343 C344 1.336 . S
C344 C340 1.394 . S
C344 C343 1.336 . S
C344 H359 0.929 . S
C345 C335 1.386 . S
C345 C338 1.357 . S
C345 H358 0.928 . S
H346 C322 0.931 . S
H347 C324 0.930 . S
H348 C326 0.929 . S
H349 C327 0.931 . S
H350 C329 0.930 . S
H351 C333 0.931 . S
H352 C331 0.931 . S
H353 C335 0.931 . S
H354 C336 0.929 . S
H355 C337 0.930 . S
H356 C340 0.930 . S
H357 C341 0.931 . S
H358 C345 0.928 . S
H359 C344 0.929 . S
H360 C342 0.932 . S
C361 C362 1.386 . S
C361 C363 1.397 1_455 S
C361 H385 0.931 . S
C362 C361 1.386 . S
C362 C366 1.397 . S
C363 C361 1.397 1_655 S
C363 C364 1.384 . S
C363 H386 0.930 . S
C364 C363 1.384 . S
C364 C365 1.377 . S
C364 C367 1.481 . S
C365 C364 1.377 . S
C365 C366 1.389 1_655 S
C365 H387 0.929 . S
C366 C362 1.397 . S
C366 C365 1.389 1_455 S
C366 H388 0.931 . S
C367 C364 1.481 . S
C367 C368 1.387 . S
C367 C372 1.390 . S
C368 C367 1.387 . S
C368 C369 1.401 . S
C368 H389 0.930 . S
C369 C368 1.401 . S
C369 C370 1.376 . S
C369 C378 1.511 . S
C370 C369 1.376 . S
C370 C371 1.392 . S
C370 H391 0.931 . S
C371 C370 1.392 . S
C371 C372 1.361 . S
C371 C373 1.500 . S
C372 C367 1.390 . S
C372 C371 1.361 . S
C372 H390 0.931 . S
C373 C371 1.500 . S
C373 C374 1.371 . S
C373 C375 1.365 . S
C374 C373 1.371 . S
C374 C384 1.386 . S
C374 H392 0.931 . S
C375 C373 1.365 . S
C375 C376 1.409 . S
C375 H393 0.929 . S
C376 C375 1.409 . S
C376 C377 1.380 . S
C376 H394 0.930 . S
C377 C376 1.380 . S
C377 C384 1.357 . S
C378 C369 1.511 . S
C378 C379 1.341 . S
C378 C380 1.371 . S
C379 C378 1.341 . S
C379 C383 1.394 . S
C379 H395 0.930 . S
C380 C378 1.371 . S
C380 C381 1.392 . S
C380 H396 0.931 . S
C381 C380 1.392 . S
C381 C382 1.331 . S
C381 H399 0.932 . S
C382 C381 1.331 . S
C382 C383 1.336 . S
C383 C379 1.394 . S
C383 C382 1.336 . S
C383 H398 0.929 . S
C384 C374 1.386 . S
C384 C377 1.357 . S
C384 H397 0.928 . S
H385 C361 0.931 . S
H386 C363 0.930 . S
H387 C365 0.929 . S
H388 C366 0.931 . S
H389 C368 0.930 . S
H390 C372 0.931 . S
H391 C370 0.931 . S
H392 C374 0.931 . S
H393 C375 0.929 . S
H394 C376 0.930 . S
H395 C379 0.930 . S
H396 C380 0.931 . S
H397 C384 0.928 . S
H398 C383 0.929 . S
H399 C381 0.932 . S
C400 C401 1.391 . S
C400 C402 1.394 . S
C400 H416 0.931 . S
C401 C400 1.391 . S
C401 C405 1.376 . S
C402 C400 1.394 . S
C402 C403 1.369 . S
C402 C406 1.531 . S
C403 C402 1.369 . S
C403 C404 1.410 . S
C403 C411 1.503 . S
C404 C403 1.410 . S
C404 C405 1.392 . S
C404 C407 1.511 . S
C405 C401 1.376 . S
C405 C404 1.392 . S
C405 H417 0.929 . S
C406 C402 1.531 . S
C406 H418 0.960 . S
C406 H419 0.962 . S
C406 H420 0.960 . S
C407 C404 1.511 . S
C407 H421 0.961 . S
C407 H422 0.961 . S
C407 H423 0.961 . S
C408 C409 1.378 . S
C408 C410 1.363 . S
C408 H424 0.931 . S
C409 C408 1.378 . S
C409 C413 1.405 1_565 S
C410 C408 1.363 . S
C410 C411 1.370 . S
C410 C414 1.524 . S
C411 C403 1.503 . S
C411 C410 1.370 . S
C411 C412 1.403 . S
C412 C411 1.403 . S
C412 C413 1.404 1_565 S
C412 C415 1.530 1_565 S
C413 C409 1.405 1_545 S
C413 C412 1.404 1_545 S
C413 H425 0.930 . S
C414 C410 1.524 . S
C414 H426 0.956 . S
C414 H427 0.961 . S
C414 H428 0.961 . S
C415 C412 1.530 1_545 S
C415 H429 0.973 . S
C415 H430 0.976 . S
C415 H431 0.940 1_545 S
H416 C400 0.931 . S
H417 C405 0.929 . S
H418 C406 0.960 . S
H419 C406 0.962 . S
H420 C406 0.960 . S
H421 C407 0.961 . S
H422 C407 0.961 . S
H423 C407 0.961 . S
H424 C408 0.931 . S
H425 C413 0.930 . S
H426 C414 0.956 . S
H427 C414 0.961 . S
H428 C414 0.961 . S
H429 C415 0.973 . S
H430 C415 0.976 . S
H431 C415 0.940 1_565 S
C432 C433 1.391 . S
C432 C434 1.394 . S
C432 H448 0.931 . S
C433 C432 1.391 . S
C433 C437 1.376 . S
C434 C432 1.394 . S
C434 C435 1.369 . S
C434 C438 1.531 . S
C435 C434 1.369 . S
C435 C436 1.410 . S
C435 C443 1.503 . S
C436 C435 1.410 . S
C436 C437 1.392 . S
C436 C439 1.511 . S
C437 C433 1.376 . S
C437 C436 1.392 . S
C437 H449 0.929 . S
C438 C434 1.531 . S
C438 H450 0.960 . S
C438 H451 0.962 . S
C438 H452 0.960 . S
C439 C436 1.511 . S
C439 H453 0.961 . S
C439 H454 0.961 . S
C439 H455 0.961 . S
C440 C441 1.370 . S
C440 C442 1.363 . S
C440 H456 0.931 . S
C441 C440 1.370 . S
C441 C445 1.408 . S
C442 C440 1.363 . S
C442 C443 1.370 . S
C442 C446 1.524 . S
C443 C435 1.503 . S
C443 C442 1.370 . S
C443 C444 1.403 . S
C444 C443 1.403 . S
C444 C445 1.404 . S
C444 C447 1.539 . S
C445 C441 1.408 . S
C445 C444 1.404 . S
C445 H457 0.930 . S
C446 C442 1.524 . S
C446 H458 0.956 . S
C446 H459 0.961 . S
C446 H460 0.961 . S
C447 C444 1.539 . S
C447 H461 0.958 . S
C447 H462 0.961 . S
C447 H463 0.960 . S
H448 C432 0.931 . S
H449 C437 0.929 . S
H450 C438 0.960 . S
H451 C438 0.962 . S
H452 C438 0.960 . S
H453 C439 0.961 . S
H454 C439 0.961 . S
H455 C439 0.961 . S
H456 C440 0.931 . S
H457 C445 0.930 . S
H458 C446 0.956 . S
H459 C446 0.961 . S
H460 C446 0.961 . S
H461 C447 0.958 . S
H462 C447 0.961 . S
H463 C447 0.960 . S
C464 C465 1.391 . S
C464 C466 1.394 . S
C464 H480 0.931 . S
C465 C464 1.391 . S
C465 C469 1.376 . S
C466 C464 1.394 . S
C466 C467 1.369 . S
C466 C470 1.531 . S
C467 C466 1.369 . S
C467 C468 1.410 . S
C467 C475 1.503 . S
C468 C467 1.410 . S
C468 C469 1.392 . S
C468 C471 1.511 . S
C469 C465 1.376 . S
C469 C468 1.392 . S
C469 H481 0.929 . S
C470 C466 1.531 . S
C470 H482 0.960 1_545 S
C470 H483 0.962 . S
C470 H484 0.960 . S
C471 C468 1.511 . S
C471 H485 0.961 . S
C471 H486 0.961 . S
C471 H487 0.961 . S
C472 C473 1.370 . S
C472 C474 1.363 1_565 S
C472 H488 0.931 . S
C473 C472 1.370 . S
C473 C477 1.408 . S
C474 C472 1.363 1_545 S
C474 C475 1.370 . S
C474 C478 1.524 . S
C475 C467 1.503 . S
C475 C474 1.370 . S
C475 C476 1.403 1_545 S
C476 C475 1.403 1_565 S
C476 C477 1.404 . S
C476 C479 1.539 . S
C477 C473 1.408 . S
C477 C476 1.404 . S
C477 H489 0.930 . S
C478 C474 1.524 . S
C478 H490 0.956 . S
C478 H491 0.961 . S
C478 H492 0.961 . S
C479 C476 1.539 . S
C479 H493 0.958 . S
C479 H494 0.961 . S
C479 H495 0.960 1_565 S
H480 C464 0.931 . S
H481 C469 0.929 . S
H482 C470 0.960 1_565 S
H483 C470 0.962 . S
H484 C470 0.960 . S
H485 C471 0.961 . S
H486 C471 0.961 . S
H487 C471 0.961 . S
H488 C472 0.931 . S
H489 C477 0.930 . S
H490 C478 0.956 . S
H491 C478 0.961 . S
H492 C478 0.961 . S
H493 C479 0.958 . S
H494 C479 0.961 . S
H495 C479 0.960 1_545 S
C496 C497 1.391 . S
C496 C498 1.394 . S
C496 H512 0.931 . S
C497 C496 1.391 . S
C497 C501 1.376 . S
C498 C496 1.394 . S
C498 C499 1.369 . S
C498 C502 1.531 . S
C499 C498 1.369 . S
C499 C500 1.410 . S
C499 C507 1.503 . S
C500 C499 1.410 . S
C500 C501 1.392 . S
C500 C503 1.511 . S
C501 C497 1.376 . S
C501 C500 1.392 . S
C501 H513 0.929 . S
C502 C498 1.531 . S
C502 H514 0.960 . S
C502 H515 0.962 . S
C502 H516 0.960 . S
C503 C500 1.511 . S
C503 H517 0.961 . S
C503 H518 0.961 . S
C503 H519 0.961 . S
C504 C505 1.370 . S
C504 C506 1.363 . S
C504 H520 0.931 . S
C505 C504 1.370 . S
C505 C509 1.408 . S
C506 C504 1.363 . S
C506 C507 1.370 . S
C506 C510 1.524 . S
C507 C499 1.503 . S
C507 C506 1.370 . S
C507 C508 1.403 . S
C508 C507 1.403 . S
C508 C509 1.404 . S
C508 C511 1.539 . S
C509 C505 1.408 . S
C509 C508 1.404 . S
C509 H521 0.930 . S
C510 C506 1.524 . S
C510 H522 0.956 . S
C510 H523 0.961 . S
C510 H524 0.961 . S
C511 C508 1.539 . S
C511 H525 0.958 . S
C511 H526 0.961 . S
C511 H527 0.960 . S
H512 C496 0.931 . S
H513 C501 0.929 . S
H514 C502 0.960 . S
H515 C502 0.962 . S
H516 C502 0.960 . S
H517 C503 0.961 . S
H518 C503 0.961 . S
H519 C503 0.961 . S
H520 C504 0.931 . S
H521 C509 0.930 . S
H522 C510 0.956 . S
H523 C510 0.961 . S
H524 C510 0.961 . S
H525 C511 0.958 . S
H526 C511 0.961 . S
H527 C511 0.960 . S
C528 C529 1.391 . S
C528 C530 1.394 . S
C528 H544 0.931 . S
C529 C528 1.391 . S
C529 C533 1.376 . S
C530 C528 1.394 . S
C530 C531 1.369 . S
C530 C534 1.531 . S
C531 C530 1.369 . S
C531 C532 1.410 . S
C531 C539 1.503 . S
C532 C531 1.410 . S
C532 C533 1.392 . S
C532 C535 1.511 . S
C533 C529 1.376 . S
C533 C532 1.392 . S
C533 H545 0.929 . S
C534 C530 1.531 . S
C534 H546 0.960 . S
C534 H547 0.962 . S
C534 H548 0.960 . S
C535 C532 1.511 . S
C535 H549 0.961 . S
C535 H550 0.961 . S
C535 H551 0.961 . S
C536 C537 1.370 . S
C536 C538 1.363 . S
C536 H552 0.931 . S
C537 C536 1.370 . S
C537 C541 1.408 . S
C538 C536 1.363 . S
C538 C539 1.370 . S
C538 C542 1.524 . S
C539 C531 1.503 . S
C539 C538 1.370 . S
C539 C540 1.403 . S
C540 C539 1.403 . S
C540 C541 1.404 . S
C540 C543 1.539 . S
C541 C537 1.408 . S
C541 C540 1.404 . S
C541 H553 0.930 . S
C542 C538 1.524 . S
C542 H554 0.956 . S
C542 H555 0.961 . S
C542 H556 0.961 . S
C543 C540 1.539 . S
C543 H557 0.958 . S
C543 H558 0.961 . S
C543 H559 0.960 . S
H544 C528 0.931 . S
H545 C533 0.929 . S
H546 C534 0.960 . S
H547 C534 0.962 . S
H548 C534 0.960 . S
H549 C535 0.961 . S
H550 C535 0.961 . S
H551 C535 0.961 . S
H552 C536 0.931 . S
H553 C541 0.930 . S
H554 C542 0.956 . S
H555 C542 0.961 . S
H556 C542 0.961 . S
H557 C543 0.958 . S
H558 C543 0.961 . S
H559 C543 0.960 . S
C560 C561 1.391 . S
C560 C562 1.394 . S
C560 H576 0.931 . S
C561 C560 1.391 . S
C561 C565 1.376 . S
C562 C560 1.394 . S
C562 C563 1.369 . S
C562 C566 1.531 . S
C563 C562 1.369 . S
C563 C564 1.410 . S
C563 C571 1.503 1_655 S
C564 C563 1.410 . S
C564 C565 1.392 . S
C564 C567 1.511 1_655 S
C565 C561 1.376 . S
C565 C564 1.392 . S
C565 H577 0.929 . S
C566 C562 1.531 . S
C566 H578 0.960 1_656 S
C566 H579 0.962 . S
C566 H580 0.960 1_556 S
C567 C564 1.511 1_455 S
C567 H581 0.975 . S
C567 H582 0.961 . S
C567 H583 0.961 1_556 S
C568 C569 1.370 . S
C568 C570 1.363 . S
C568 H584 0.931 . S
C569 C568 1.370 . S
C569 C573 1.408 1_556 S
C570 C568 1.363 . S
C570 C571 1.370 . S
C570 C574 1.524 . S
C571 C563 1.503 1_455 S
C571 C570 1.370 . S
C571 C572 1.403 1_556 S
C572 C571 1.403 1_554 S
C572 C573 1.404 . S
C572 C575 1.539 . S
C573 C569 1.408 1_554 S
C573 C572 1.404 . S
C573 H585 0.930 . S
C574 C570 1.524 . S
C574 H586 0.956 . S
C574 H587 0.961 . S
C574 H588 0.961 . S
C575 C572 1.539 . S
C575 H589 0.958 . S
C575 H590 0.961 . S
C575 H591 0.960 . S
H576 C560 0.931 . S
H577 C565 0.929 . S
H578 C566 0.960 1_454 S
H579 C566 0.962 . S
H580 C566 0.960 1_554 S
H581 C567 0.975 . S
H582 C567 0.961 . S
H583 C567 0.961 1_554 S
H584 C568 0.931 . S
H585 C573 0.930 . S
H586 C574 0.956 . S
H587 C574 0.961 . S
H588 C574 0.961 . S
H589 C575 0.958 . S
H590 C575 0.961 . S
H591 C575 0.960 . S
C592 C593 1.391 . S
C592 C594 1.394 . S
C592 H608 0.931 . S
C593 C592 1.391 . S
C593 C597 1.376 . S
C594 C592 1.394 . S
C594 C595 1.369 . S
C594 C598 1.531 . S
C595 C594 1.369 . S
C595 C596 1.410 . S
C595 C603 1.503 . S
C596 C595 1.410 . S
C596 C597 1.392 . S
C596 C599 1.511 . S
C597 C593 1.376 . S
C597 C596 1.392 . S
C597 H609 0.929 . S
C598 C594 1.531 . S
C598 H610 0.960 . S
C598 H611 0.962 . S
C598 H612 0.960 . S
C599 C596 1.511 . S
C599 H613 0.961 . S
C599 H614 0.961 . S
C599 H615 0.961 . S
C600 C601 1.370 . S
C600 C602 1.363 . S
C600 H616 0.931 . S
C601 C600 1.370 . S
C601 C605 1.408 . S
C602 C600 1.363 . S
C602 C603 1.370 . S
C602 C606 1.524 . S
C603 C595 1.503 . S
C603 C602 1.370 . S
C603 C604 1.403 . S
C604 C603 1.403 . S
C604 C605 1.404 . S
C604 C607 1.539 . S
C605 C601 1.408 . S
C605 C604 1.404 . S
C605 H617 0.930 . S
C606 C602 1.524 . S
C606 H618 0.956 . S
C606 H619 0.961 . S
C606 H620 0.961 . S
C607 C604 1.539 . S
C607 H621 0.958 . S
C607 H622 0.961 . S
C607 H623 0.960 . S
H608 C592 0.931 . S
H609 C597 0.929 . S
H610 C598 0.960 . S
H611 C598 0.962 . S
H612 C598 0.960 . S
H613 C599 0.961 . S
H614 C599 0.961 . S
H615 C599 0.961 . S
H616 C600 0.931 . S
H617 C605 0.930 . S
H618 C606 0.956 . S
H619 C606 0.961 . S
H620 C606 0.961 . S
H621 C607 0.958 . S
H622 C607 0.961 . S
H623 C607 0.960 . S
C624 C625 1.391 . S
C624 C626 1.394 . S
C624 H640 0.931 . S
C625 C624 1.391 . S
C625 C629 1.376 . S
C626 C624 1.394 . S
C626 C627 1.369 . S
C626 C630 1.531 . S
C627 C626 1.369 . S
C627 C628 1.410 . S
C627 C635 1.503 . S
C628 C627 1.410 . S
C628 C629 1.392 . S
C628 C631 1.511 . S
C629 C625 1.376 . S
C629 C628 1.392 . S
C629 H641 0.929 . S
C630 C626 1.531 . S
C630 H642 0.960 . S
C630 H643 0.962 . S
C630 H644 0.960 . S
C631 C628 1.511 . S
C631 H645 0.961 . S
C631 H646 0.961 . S
C631 H647 0.961 . S
C632 C633 1.370 . S
C632 C634 1.363 . S
C632 H648 0.931 . S
C633 C632 1.370 . S
C633 C637 1.408 . S
C634 C632 1.363 . S
C634 C635 1.370 . S
C634 C638 1.524 . S
C635 C627 1.503 . S
C635 C634 1.370 . S
C635 C636 1.403 . S
C636 C635 1.403 . S
C636 C637 1.404 . S
C636 C639 1.539 . S
C637 C633 1.408 . S
C637 C636 1.404 . S
C637 H649 0.930 . S
C638 C634 1.524 . S
C638 H650 0.956 . S
C638 H651 0.961 . S
C638 H652 0.961 . S
C639 C636 1.539 . S
C639 H653 0.958 . S
C639 H654 0.961 . S
C639 H655 0.960 . S
H640 C624 0.931 . S
H641 C629 0.929 . S
H642 C630 0.960 . S
H643 C630 0.962 . S
H644 C630 0.960 . S
H645 C631 0.961 . S
H646 C631 0.961 . S
H647 C631 0.961 . S
H648 C632 0.931 . S
H649 C637 0.930 . S
H650 C638 0.956 . S
H651 C638 0.961 . S
H652 C638 0.961 . S
H653 C639 0.958 . S
H654 C639 0.961 . S
H655 C639 0.960 . S
C656 C657 1.391 . S
C656 C658 1.394 . S
C656 H672 0.931 . S
C657 C656 1.391 . S
C657 C661 1.376 . S
C658 C656 1.394 . S
C658 C659 1.369 . S
C658 C662 1.531 . S
C659 C658 1.369 . S
C659 C660 1.410 . S
C659 C667 1.503 . S
C660 C659 1.410 . S
C660 C661 1.392 . S
C660 C663 1.511 . S
C661 C657 1.376 . S
C661 C660 1.392 . S
C661 H673 0.929 . S
C662 C658 1.531 . S
C662 H674 0.960 . S
C662 H675 0.962 . S
C662 H676 0.960 . S
C663 C660 1.511 . S
C663 H677 0.961 . S
C663 H678 0.961 . S
C663 H679 0.961 . S
C664 C665 1.383 . S
C664 C666 1.363 1_565 S
C664 H680 0.931 . S
C665 C664 1.383 . S
C665 C669 1.370 1_565 S
C666 C664 1.363 1_545 S
C666 C667 1.370 . S
C666 C670 1.524 . S
C667 C659 1.503 . S
C667 C666 1.370 . S
C667 C668 1.403 . S
C668 C667 1.403 . S
C668 C669 1.404 . S
C668 C671 1.539 . S
C669 C665 1.370 1_545 S
C669 C668 1.404 . S
C669 H681 0.930 . S
C670 C666 1.524 . S
C670 H682 0.956 . S
C670 H683 0.961 . S
C670 H684 0.961 1_545 S
C671 C668 1.539 . S
C671 H685 0.958 . S
C671 H686 0.961 . S
C671 H687 0.960 . S
H672 C656 0.931 . S
H673 C661 0.929 . S
H674 C662 0.960 . S
H675 C662 0.962 . S
H676 C662 0.960 . S
H677 C663 0.961 . S
H678 C663 0.961 . S
H679 C663 0.961 . S
H680 C664 0.931 . S
H681 C669 0.930 . S
H682 C670 0.956 . S
H683 C670 0.961 . S
H684 C670 0.961 1_565 S
H685 C671 0.958 . S
H686 C671 0.961 . S
H687 C671 0.960 . S
C688 C689 1.391 . S
C688 C690 1.394 . S
C688 H704 0.931 . S
C689 C688 1.391 . S
C689 C693 1.376 . S
C690 C688 1.394 . S
C690 C691 1.369 . S
C690 C694 1.531 . S
C691 C690 1.369 . S
C691 C692 1.410 . S
C691 C699 1.503 . S
C692 C691 1.410 . S
C692 C693 1.392 . S
C692 C695 1.511 . S
C693 C689 1.376 . S
C693 C692 1.392 . S
C693 H705 0.929 . S
C694 C690 1.531 . S
C694 H706 0.960 . S
C694 H707 0.962 . S
C694 H708 0.960 . S
C695 C692 1.511 . S
C695 H709 0.961 . S
C695 H710 0.961 . S
C695 H711 0.961 . S
C696 C697 1.370 . S
C696 C698 1.363 . S
C696 H712 0.931 . S
C697 C696 1.370 . S
C697 C701 1.408 . S
C698 C696 1.363 . S
C698 C699 1.370 . S
C698 C702 1.524 . S
C699 C691 1.503 . S
C699 C698 1.370 . S
C699 C700 1.403 . S
C700 C699 1.403 . S
C700 C701 1.404 . S
C700 C703 1.539 . S
C701 C697 1.408 . S
C701 C700 1.404 . S
C701 H713 0.930 . S
C702 C698 1.524 . S
C702 H714 0.956 . S
C702 H715 0.961 . S
C702 H716 0.961 . S
C703 C700 1.539 . S
C703 H717 0.958 . S
C703 H718 0.961 . S
C703 H719 0.960 . S
H704 C688 0.931 . S
H705 C693 0.929 . S
H706 C694 0.960 . S
H707 C694 0.962 . S
H708 C694 0.960 . S
H709 C695 0.961 . S
H710 C695 0.961 . S
H711 C695 0.961 . S
H712 C696 0.931 . S
H713 C701 0.930 . S
H714 C702 0.956 . S
H715 C702 0.961 . S
H716 C702 0.961 . S
H717 C703 0.958 . S
H718 C703 0.961 . S
H719 C703 0.960 . S
C720 C721 1.391 . S
C720 C722 1.394 . S
C720 H736 0.931 . S
C721 C720 1.391 . S
C721 C725 1.376 . S
C722 C720 1.394 . S
C722 C723 1.369 . S
C722 C726 1.531 . S
C723 C722 1.369 . S
C723 C724 1.410 . S
C723 C731 1.503 . S
C724 C723 1.410 . S
C724 C725 1.392 . S
C724 C727 1.499 1_554 S
C725 C721 1.376 . S
C725 C724 1.392 . S
C725 H737 0.929 . S
C726 C722 1.531 . S
C726 H738 0.960 1_565 S
C726 H739 0.962 1_565 S
C726 H740 0.960 . S
C727 C724 1.499 1_556 S
C727 H741 0.977 . S
C727 H742 0.984 . S
C727 H743 0.936 1_556 S
C728 C729 1.370 . S
C728 C730 1.363 . S
C728 H744 0.931 . S
C729 C728 1.370 . S
C729 C733 1.408 1_556 S
C730 C728 1.363 . S
C730 C731 1.370 1_546 S
C730 C734 1.524 1_545 S
C731 C723 1.503 . S
C731 C730 1.370 1_564 S
C731 C732 1.403 1_565 S
C732 C731 1.403 1_545 S
C732 C733 1.404 . S
C732 C735 1.539 . S
C733 C729 1.408 1_554 S
C733 C732 1.404 . S
C733 H745 0.930 . S
C734 C730 1.524 1_565 S
C734 H746 0.956 . S
C734 H747 0.961 . S
C734 H748 0.961 . S
C735 C732 1.539 . S
C735 H749 0.958 . S
C735 H750 0.961 . S
C735 H751 0.960 1_545 S
H736 C720 0.931 . S
H737 C725 0.929 . S
H738 C726 0.960 1_545 S
H739 C726 0.962 1_545 S
H740 C726 0.960 . S
H741 C727 0.977 . S
H742 C727 0.984 . S
H743 C727 0.936 1_554 S
H744 C728 0.931 . S
H745 C733 0.930 . S
H746 C734 0.956 . S
H747 C734 0.961 . S
H748 C734 0.961 . S
H749 C735 0.958 . S
H750 C735 0.961 . S
H751 C735 0.960 1_565 S
C752 C753 1.391 . S
C752 C754 1.394 . S
C752 H768 0.931 . S
C753 C752 1.391 . S
C753 C757 1.376 . S
C754 C752 1.394 . S
C754 C755 1.369 . S
C754 C758 1.531 . S
C755 C754 1.369 . S
C755 C756 1.410 . S
C755 C763 1.503 . S
C756 C755 1.410 . S
C756 C757 1.392 . S
C756 C759 1.511 . S
C757 C753 1.376 . S
C757 C756 1.392 . S
C757 H769 0.929 . S
C758 C754 1.531 . S
C758 H770 0.960 . S
C758 H771 0.962 . S
C758 H772 0.960 . S
C759 C756 1.511 . S
C759 H773 0.961 . S
C759 H774 0.961 . S
C759 H775 0.961 . S
C760 C761 1.370 . S
C760 C762 1.363 . S
C760 H776 0.931 . S
C761 C760 1.370 . S
C761 C765 1.408 . S
C762 C760 1.363 . S
C762 C763 1.370 . S
C762 C766 1.524 . S
C763 C755 1.503 . S
C763 C762 1.370 . S
C763 C764 1.403 . S
C764 C763 1.403 . S
C764 C765 1.404 . S
C764 C767 1.539 . S
C765 C761 1.408 . S
C765 C764 1.404 . S
C765 H777 0.930 . S
C766 C762 1.524 . S
C766 H778 0.956 . S
C766 H779 0.961 . S
C766 H780 0.961 . S
C767 C764 1.539 . S
C767 H781 0.958 . S
C767 H782 0.961 . S
C767 H783 0.960 . S
H768 C752 0.931 . S
H769 C757 0.929 . S
H770 C758 0.960 . S
H771 C758 0.962 . S
H772 C758 0.960 . S
H773 C759 0.961 . S
H774 C759 0.961 . S
H775 C759 0.961 . S
H776 C760 0.931 . S
H777 C765 0.930 . S
H778 C766 0.956 . S
H779 C766 0.961 . S
H780 C766 0.961 . S
H781 C767 0.958 . S
H782 C767 0.961 . S
H783 C767 0.960 . S
C784 C785 1.391 . S
C784 C786 1.394 . S
C784 H800 0.931 . S
C785 C784 1.391 . S
C785 C789 1.376 . S
C786 C784 1.394 . S
C786 C787 1.369 . S
C786 C790 1.531 . S
C787 C786 1.369 . S
C787 C788 1.410 . S
C787 C795 1.503 . S
C788 C787 1.410 . S
C788 C789 1.392 . S
C788 C791 1.511 . S
C789 C785 1.376 . S
C789 C788 1.392 . S
C789 H801 0.929 . S
C790 C786 1.531 . S
C790 H802 0.960 . S
C790 H803 0.962 . S
C790 H804 0.960 . S
C791 C788 1.511 . S
C791 H805 0.961 . S
C791 H806 0.961 . S
C791 H807 0.961 . S
C792 C793 1.370 . S
C792 C794 1.363 . S
C792 H808 0.931 . S
C793 C792 1.370 . S
C793 C797 1.408 . S
C794 C792 1.363 . S
C794 C795 1.370 . S
C794 C798 1.524 . S
C795 C787 1.503 . S
C795 C794 1.370 . S
C795 C796 1.403 . S
C796 C795 1.403 . S
C796 C797 1.404 . S
C796 C799 1.539 . S
C797 C793 1.408 . S
C797 C796 1.404 . S
C797 H809 0.930 . S
C798 C794 1.524 . S
C798 H810 0.956 . S
C798 H811 0.961 . S
C798 H812 0.961 . S
C799 C796 1.539 . S
C799 H813 0.958 . S
C799 H814 0.961 . S
C799 H815 0.960 . S
H800 C784 0.931 . S
H801 C789 0.929 . S
H802 C790 0.960 . S
H803 C790 0.962 . S
H804 C790 0.960 . S
H805 C791 0.961 . S
H806 C791 0.961 . S
H807 C791 0.961 . S
H808 C792 0.931 . S
H809 C797 0.930 . S
H810 C798 0.956 . S
H811 C798 0.961 . S
H812 C798 0.961 . S
H813 C799 0.958 . S
H814 C799 0.961 . S
H815 C799 0.960 . S
C816 C817 1.391 . S
C816 C818 1.394 . S
C816 H832 0.931 . S
C817 C816 1.391 . S
C817 C821 1.376 . S
C818 C816 1.394 . S
C818 C819 1.369 . S
C818 C822 1.531 . S
C819 C818 1.369 . S
C819 C820 1.410 . S
C819 C827 1.503 1_455 S
C820 C819 1.410 . S
C820 C821 1.392 . S
C820 C823 1.511 1_455 S
C821 C817 1.376 . S
C821 C820 1.392 . S
C821 H833 0.929 . S
C822 C818 1.531 . S
C822 H834 0.960 1_455 S
C822 H835 0.972 . S
C822 H836 0.960 . S
C823 C820 1.511 1_655 S
C823 H837 0.961 1_655 S
C823 H838 0.961 . S
C823 H839 0.961 . S
C824 C825 1.370 . S
C824 C826 1.363 . S
C824 H840 0.931 . S
C825 C824 1.370 . S
C825 C829 1.408 . S
C826 C824 1.363 . S
C826 C827 1.370 . S
C826 C830 1.524 . S
C827 C819 1.503 1_655 S
C827 C826 1.370 . S
C827 C828 1.403 . S
C828 C827 1.403 . S
C828 C829 1.404 . S
C828 C831 1.539 . S
C829 C825 1.408 . S
C829 C828 1.404 . S
C829 H841 0.930 . S
C830 C826 1.524 . S
C830 H842 0.956 . S
C830 H843 0.961 . S
C830 H844 0.961 . S
C831 C828 1.539 . S
C831 H845 0.958 . S
C831 H846 0.961 . S
C831 H847 0.960 . S
H832 C816 0.931 . S
H833 C821 0.929 . S
H834 C822 0.960 1_655 S
H835 C822 0.972 . S
H836 C822 0.960 . S
H837 C823 0.961 1_455 S
H838 C823 0.961 . S
H839 C823 0.961 . S
H840 C824 0.931 . S
H841 C829 0.930 . S
H842 C830 0.956 . S
H843 C830 0.961 . S
H844 C830 0.961 . S
H845 C831 0.958 . S
H846 C831 0.961 . S
H847 C831 0.960 . S
C848 C849 1.391 . S
C848 C850 1.394 . S
C848 H864 0.931 . S
C849 C848 1.391 . S
C849 C853 1.376 . S
C850 C848 1.394 . S
C850 C851 1.369 . S
C850 C854 1.531 . S
C851 C850 1.369 . S
C851 C852 1.410 . S
C851 C859 1.503 . S
C852 C851 1.410 . S
C852 C853 1.392 . S
C852 C855 1.511 . S
C853 C849 1.376 . S
C853 C852 1.392 . S
C853 H865 0.929 . S
C854 C850 1.531 . S
C854 H866 0.960 . S
C854 H867 0.962 . S
C854 H868 0.960 . S
C855 C852 1.511 . S
C855 H869 0.961 . S
C855 H870 0.961 . S
C855 H871 0.961 . S
C856 C857 1.370 . S
C856 C858 1.363 . S
C856 H872 0.931 . S
C857 C856 1.370 . S
C857 C861 1.408 . S
C858 C856 1.363 . S
C858 C859 1.370 . S
C858 C862 1.524 . S
C859 C851 1.503 . S
C859 C858 1.370 . S
C859 C860 1.403 . S
C860 C859 1.403 . S
C860 C861 1.404 . S
C860 C863 1.539 . S
C861 C857 1.408 . S
C861 C860 1.404 . S
C861 H873 0.930 . S
C862 C858 1.524 . S
C862 H874 0.956 . S
C862 H875 0.961 . S
C862 H876 0.961 . S
C863 C860 1.539 . S
C863 H877 0.958 . S
C863 H878 0.961 . S
C863 H879 0.960 . S
H864 C848 0.931 . S
H865 C853 0.929 . S
H866 C854 0.960 . S
H867 C854 0.962 . S
H868 C854 0.960 . S
H869 C855 0.961 . S
H870 C855 0.961 . S
H871 C855 0.961 . S
H872 C856 0.931 . S
H873 C861 0.930 . S
H874 C862 0.956 . S
H875 C862 0.961 . S
H876 C862 0.961 . S
H877 C863 0.958 . S
H878 C863 0.961 . S
H879 C863 0.960 . S
C880 C881 1.391 . S
C880 C882 1.394 . S
C880 H896 0.931 . S
C881 C880 1.391 . S
C881 C885 1.376 . S
C882 C880 1.394 . S
C882 C883 1.369 . S
C882 C886 1.531 . S
C883 C882 1.369 . S
C883 C884 1.410 . S
C883 C891 1.503 . S
C884 C883 1.410 . S
C884 C885 1.392 . S
C884 C887 1.511 . S
C885 C881 1.376 . S
C885 C884 1.392 . S
C885 H897 0.929 . S
C886 C882 1.531 . S
C886 H898 0.960 . S
C886 H899 0.962 . S
C886 H900 0.960 . S
C887 C884 1.511 . S
C887 H901 0.961 . S
C887 H902 0.961 . S
C887 H903 0.961 . S
C888 C889 1.370 . S
C888 C890 1.363 . S
C888 H904 0.931 . S
C889 C888 1.370 . S
C889 C893 1.408 . S
C890 C888 1.363 . S
C890 C891 1.370 . S
C890 C894 1.524 . S
C891 C883 1.503 . S
C891 C890 1.370 . S
C891 C892 1.403 . S
C892 C891 1.403 . S
C892 C893 1.404 . S
C892 C895 1.539 . S
C893 C889 1.408 . S
C893 C892 1.404 . S
C893 H905 0.930 . S
C894 C890 1.524 . S
C894 H906 0.956 . S
C894 H907 0.961 . S
C894 H908 0.961 . S
C895 C892 1.539 . S
C895 H909 0.958 . S
C895 H910 0.961 . S
C895 H911 0.960 . S
H896 C880 0.931 . S
H897 C885 0.929 . S
H898 C886 0.960 . S
H899 C886 0.962 . S
H900 C886 0.960 . S
H901 C887 0.961 . S
H902 C887 0.961 . S
H903 C887 0.961 . S
H904 C888 0.931 . S
H905 C893 0.930 . S
H906 C894 0.956 . S
H907 C894 0.961 . S
H908 C894 0.961 . S
H909 C895 0.958 . S
H910 C895 0.961 . S
H911 C895 0.960 . S
C912 C913 1.391 . S
C912 C914 1.394 . S
C912 H928 0.931 . S
C913 C912 1.391 . S
C913 C917 1.376 . S
C914 C912 1.394 . S
C914 C915 1.369 . S
C914 C918 1.531 . S
C915 C914 1.369 . S
C915 C916 1.410 . S
C915 C923 1.503 . S
C916 C915 1.410 . S
C916 C917 1.392 . S
C916 C919 1.511 . S
C917 C913 1.376 . S
C917 C916 1.392 . S
C917 H929 0.929 . S
C918 C914 1.531 . S
C918 H930 0.960 . S
C918 H931 0.962 . S
C918 H932 0.960 . S
C919 C916 1.511 . S
C919 H933 0.961 . S
C919 H934 0.961 . S
C919 H935 0.961 . S
C920 C921 1.370 . S
C920 C922 1.363 . S
C920 H936 0.931 . S
C921 C920 1.370 . S
C921 C925 1.408 . S
C922 C920 1.363 . S
C922 C923 1.370 . S
C922 C926 1.524 . S
C923 C915 1.503 . S
C923 C922 1.370 . S
C923 C924 1.403 . S
C924 C923 1.403 . S
C924 C925 1.404 . S
C924 C927 1.539 . S
C925 C921 1.408 . S
C925 C924 1.404 . S
C925 H937 0.930 . S
C926 C922 1.524 . S
C926 H938 0.956 . S
C926 H939 0.961 . S
C926 H940 0.961 . S
C927 C924 1.539 . S
C927 H941 0.958 . S
C927 H942 0.961 . S
C927 H943 0.960 . S
H928 C912 0.931 . S
H929 C917 0.929 . S
H930 C918 0.960 . S
H931 C918 0.962 . S
H932 C918 0.960 . S
H933 C919 0.961 . S
H934 C919 0.961 . S
H935 C919 0.961 . S
H936 C920 0.931 . S
H937 C925 0.930 . S
H938 C926 0.956 . S
H939 C926 0.961 . S
H940 C926 0.961 . S
H941 C927 0.958 . S
H942 C927 0.961 . S
H943 C927 0.960 . S
C944 C945 1.391 . S
C944 C946 1.394 . S
C944 H960 0.931 . S
C945 C944 1.391 . S
C945 C949 1.376 . S
C946 C944 1.394 . S
C946 C947 1.369 . S
C946 C950 1.531 . S
C947 C946 1.369 . S
C947 C948 1.410 . S
C947 C955 1.503 . S
C948 C947 1.410 . S
C948 C949 1.392 . S
C948 C951 1.511 . S
C949 C945 1.376 . S
C949 C948 1.392 . S
C949 H961 0.929 . S
C950 C946 1.531 . S
C950 H962 0.960 . S
C950 H963 0.962 . S
C950 H964 0.960 . S
C951 C948 1.511 . S
C951 H965 0.961 . S
C951 H966 0.961 . S
C951 H967 0.961 . S
C952 C953 1.370 . S
C952 C954 1.363 . S
C952 H968 0.931 . S
C953 C952 1.370 . S
C953 C957 1.408 . S
C954 C952 1.363 . S
C954 C955 1.370 . S
C954 C958 1.524 . S
C955 C947 1.503 . S
C955 C954 1.370 . S
C955 C956 1.403 . S
C956 C955 1.403 . S
C956 C957 1.404 . S
C956 C959 1.539 . S
C957 C953 1.408 . S
C957 C956 1.404 . S
C957 H969 0.930 . S
C958 C954 1.524 . S
C958 H970 0.956 . S
C958 H971 0.961 . S
C958 H972 0.961 . S
C959 C956 1.539 . S
C959 H973 0.958 . S
C959 H974 0.961 . S
C959 H975 0.960 . S
H960 C944 0.931 . S
H961 C949 0.929 . S
H962 C950 0.960 . S
H963 C950 0.962 . S
H964 C950 0.960 . S
H965 C951 0.961 . S
H966 C951 0.961 . S
H967 C951 0.961 . S
H968 C952 0.931 . S
H969 C957 0.930 . S
H970 C958 0.956 . S
H971 C958 0.961 . S
H972 C958 0.961 . S
H973 C959 0.958 . S
H974 C959 0.961 . S
H975 C959 0.960 . S
C976 C977 1.391 . S
C976 C978 1.394 . S
C976 H992 0.931 . S
C977 C976 1.391 . S
C977 C981 1.376 . S
C978 C976 1.394 . S
C978 C979 1.369 . S
C978 C982 1.531 . S
C979 C978 1.369 . S
C979 C980 1.410 . S
C979 C987 1.503 . S
C980 C979 1.410 . S
C980 C981 1.392 . S
C980 C983 1.511 . S
C981 C977 1.376 . S
C981 C980 1.392 . S
C981 H993 0.929 . S
C982 C978 1.531 . S
C982 H994 0.960 . S
C982 H995 0.962 . S
C982 H996 0.960 . S
C983 C980 1.511 . S
C983 H997 0.961 . S
C983 H998 0.961 . S
C983 H999 0.961 . S
C984 C985 1.370 . S
C984 C986 1.363 . S
C984 H1000 0.931 . S
C985 C984 1.370 . S
C985 C989 1.408 . S
C986 C984 1.363 . S
C986 C987 1.370 . S
C986 C990 1.524 . S
C987 C979 1.503 . S
C987 C986 1.370 . S
C987 C988 1.403 . S
C988 C987 1.403 . S
C988 C989 1.404 . S
C988 C991 1.539 . S
C989 C985 1.408 . S
C989 C988 1.404 . S
C989 H1001 0.930 . S
C990 C986 1.524 . S
C990 H1002 0.956 . S
C990 H1003 0.961 . S
C990 H1004 0.961 . S
C991 C988 1.539 . S
C991 H1005 0.958 . S
C991 H1006 0.961 . S
C991 H1007 0.960 . S
H992 C976 0.931 . S
H993 C981 0.929 . S
H994 C982 0.960 . S
H995 C982 0.962 . S
H996 C982 0.960 . S
H997 C983 0.961 . S
H998 C983 0.961 . S
H999 C983 0.961 . S
H1000 C984 0.931 . S
H1001 C989 0.930 . S
H1002 C990 0.956 . S
H1003 C990 0.961 . S
H1004 C990 0.961 . S
H1005 C991 0.958 . S
H1006 C991 0.961 . S
H1007 C991 0.960 . S
C1008 C1009 1.391 . S
C1008 C1010 1.394 . S
C1008 H1024 0.931 . S
C1009 C1008 1.391 . S
C1009 C1013 1.376 . S
C1010 C1008 1.394 . S
C1010 C1011 1.369 . S
C1010 C1014 1.531 . S
C1011 C1010 1.369 . S
C1011 C1012 1.410 . S
C1011 C1019 1.503 . S
C1012 C1011 1.410 . S
C1012 C1013 1.392 . S
C1012 C1015 1.511 . S
C1013 C1009 1.376 . S
C1013 C1012 1.392 . S
C1013 H1025 0.929 . S
C1014 C1010 1.531 . S
C1014 H1026 0.960 . S
C1014 H1027 0.962 . S
C1014 H1028 0.960 . S
C1015 C1012 1.511 . S
C1015 H1029 0.961 . S
C1015 H1030 0.961 . S
C1015 H1031 0.961 . S
C1016 C1017 1.370 . S
C1016 C1018 1.363 . S
C1016 H1032 0.931 . S
C1017 C1016 1.370 . S
C1017 C1021 1.408 . S
C1018 C1016 1.363 . S
C1018 C1019 1.370 . S
C1018 C1022 1.524 . S
C1019 C1011 1.503 . S
C1019 C1018 1.370 . S
C1019 C1020 1.403 . S
C1020 C1019 1.403 . S
C1020 C1021 1.404 . S
C1020 C1023 1.539 . S
C1021 C1017 1.408 . S
C1021 C1020 1.404 . S
C1021 H1033 0.930 . S
C1022 C1018 1.524 . S
C1022 H1034 0.956 . S
C1022 H1035 0.961 . S
C1022 H1036 0.961 . S
C1023 C1020 1.539 . S
C1023 H1037 0.958 . S
C1023 H1038 0.961 . S
C1023 H1039 0.960 . S
H1024 C1008 0.931 . S
H1025 C1013 0.929 . S
H1026 C1014 0.960 . S
H1027 C1014 0.962 . S
H1028 C1014 0.960 . S
H1029 C1015 0.961 . S
H1030 C1015 0.961 . S
H1031 C1015 0.961 . S
H1032 C1016 0.931 . S
H1033 C1021 0.930 . S
H1034 C1022 0.956 . S
H1035 C1022 0.961 . S
H1036 C1022 0.961 . S
H1037 C1023 0.958 . S
H1038 C1023 0.961 . S
H1039 C1023 0.960 . S
C1040 C1041 1.391 . S
C1040 C1042 1.394 . S
C1040 H1056 0.931 . S
C1041 C1040 1.391 . S
C1041 C1045 1.376 . S
C1042 C1040 1.394 . S
C1042 C1043 1.369 . S
C1042 C1046 1.531 . S
C1043 C1042 1.369 . S
C1043 C1044 1.410 . S
C1043 C1051 1.503 . S
C1044 C1043 1.410 . S
C1044 C1045 1.392 . S
C1044 C1047 1.511 . S
C1045 C1041 1.376 . S
C1045 C1044 1.392 . S
C1045 H1057 0.929 . S
C1046 C1042 1.531 . S
C1046 H1058 0.960 . S
C1046 H1059 0.962 . S
C1046 H1060 0.960 . S
C1047 C1044 1.511 . S
C1047 H1061 0.961 . S
C1047 H1062 0.961 . S
C1047 H1063 0.961 . S
C1048 C1049 1.370 . S
C1048 C1050 1.363 . S
C1048 H1064 0.931 . S
C1049 C1048 1.370 . S
C1049 C1053 1.408 . S
C1050 C1048 1.363 . S
C1050 C1051 1.370 . S
C1050 C1054 1.524 . S
C1051 C1043 1.503 . S
C1051 C1050 1.370 . S
C1051 C1052 1.403 . S
C1052 C1051 1.403 . S
C1052 C1053 1.404 . S
C1052 C1055 1.539 . S
C1053 C1049 1.408 . S
C1053 C1052 1.404 . S
C1053 H1065 0.930 . S
C1054 C1050 1.524 . S
C1054 H1066 0.956 . S
C1054 H1067 0.961 . S
C1054 H1068 0.961 . S
C1055 C1052 1.539 . S
C1055 H1069 0.958 . S
C1055 H1070 0.961 . S
C1055 H1071 0.960 . S
H1056 C1040 0.931 . S
H1057 C1045 0.929 . S
H1058 C1046 0.960 . S
H1059 C1046 0.962 . S
H1060 C1046 0.960 . S
H1061 C1047 0.961 . S
H1062 C1047 0.961 . S
H1063 C1047 0.961 . S
H1064 C1048 0.931 . S
H1065 C1053 0.930 . S
H1066 C1054 0.956 . S
H1067 C1054 0.961 . S
H1068 C1054 0.961 . S
H1069 C1055 0.958 . S
H1070 C1055 0.961 . S
H1071 C1055 0.960 . S
C1072 C1073 1.391 . S
C1072 C1074 1.394 . S
C1072 H1088 0.931 . S
C1073 C1072 1.391 . S
C1073 C1077 1.376 . S
C1074 C1072 1.394 . S
C1074 C1075 1.369 . S
C1074 C1078 1.531 . S
C1075 C1074 1.369 . S
C1075 C1076 1.410 . S
C1075 C1083 1.503 . S
C1076 C1075 1.410 . S
C1076 C1077 1.392 . S
C1076 C1079 1.511 . S
C1077 C1073 1.376 . S
C1077 C1076 1.392 . S
C1077 H1089 0.929 . S
C1078 C1074 1.531 . S
C1078 H1090 0.960 . S
C1078 H1091 0.962 . S
C1078 H1092 0.960 . S
C1079 C1076 1.511 . S
C1079 H1093 0.961 . S
C1079 H1094 0.961 . S
C1079 H1095 0.961 . S
C1080 C1081 1.370 . S
C1080 C1082 1.363 . S
C1080 H1096 0.931 . S
C1081 C1080 1.370 . S
C1081 C1085 1.408 . S
C1082 C1080 1.363 . S
C1082 C1083 1.370 . S
C1082 C1086 1.524 . S
C1083 C1075 1.503 . S
C1083 C1082 1.370 . S
C1083 C1084 1.403 . S
C1084 C1083 1.403 . S
C1084 C1085 1.404 . S
C1084 C1087 1.539 . S
C1085 C1081 1.408 . S
C1085 C1084 1.404 . S
C1085 H1097 0.930 . S
C1086 C1082 1.524 . S
C1086 H1098 0.956 . S
C1086 H1099 0.961 . S
C1086 H1100 0.961 . S
C1087 C1084 1.539 . S
C1087 H1101 0.958 . S
C1087 H1102 0.961 . S
C1087 H1103 0.960 . S
H1088 C1072 0.931 . S
H1089 C1077 0.929 . S
H1090 C1078 0.960 . S
H1091 C1078 0.962 . S
H1092 C1078 0.960 . S
H1093 C1079 0.961 . S
H1094 C1079 0.961 . S
H1095 C1079 0.961 . S
H1096 C1080 0.931 . S
H1097 C1085 0.930 . S
H1098 C1086 0.956 . S
H1099 C1086 0.961 . S
H1100 C1086 0.961 . S
H1101 C1087 0.958 . S
H1102 C1087 0.961 . S
H1103 C1087 0.960 . S
C1104 C1105 1.391 . S
C1104 C1106 1.394 . S
C1104 H1120 0.931 . S
C1105 C1104 1.391 . S
C1105 C1109 1.376 . S
C1106 C1104 1.394 . S
C1106 C1107 1.369 . S
C1106 C1110 1.531 . S
C1107 C1106 1.369 . S
C1107 C1108 1.410 . S
C1107 C1115 1.503 . S
C1108 C1107 1.410 . S
C1108 C1109 1.392 . S
C1108 C1111 1.511 . S
C1109 C1105 1.376 . S
C1109 C1108 1.392 . S
C1109 H1121 0.929 . S
C1110 C1106 1.531 . S
C1110 H1122 0.960 . S
C1110 H1123 0.962 . S
C1110 H1124 0.960 . S
C1111 C1108 1.511 . S
C1111 H1125 0.961 . S
C1111 H1126 0.961 . S
C1111 H1127 0.961 . S
C1112 C1113 1.370 . S
C1112 C1114 1.363 . S
C1112 H1128 0.931 . S
C1113 C1112 1.370 . S
C1113 C1117 1.408 . S
C1114 C1112 1.363 . S
C1114 C1115 1.370 . S
C1114 C1118 1.524 . S
C1115 C1107 1.503 . S
C1115 C1114 1.370 . S
C1115 C1116 1.403 . S
C1116 C1115 1.403 . S
C1116 C1117 1.404 . S
C1116 C1119 1.539 . S
C1117 C1113 1.408 . S
C1117 C1116 1.404 . S
C1117 H1129 0.930 . S
C1118 C1114 1.524 . S
C1118 H1130 0.956 . S
C1118 H1131 0.961 . S
C1118 H1132 0.961 . S
C1119 C1116 1.539 . S
C1119 H1133 0.958 . S
C1119 H1134 0.961 . S
C1119 H1135 0.960 . S
H1120 C1104 0.931 . S
H1121 C1109 0.929 . S
H1122 C1110 0.960 . S
H1123 C1110 0.962 . S
H1124 C1110 0.960 . S
H1125 C1111 0.961 . S
H1126 C1111 0.961 . S
H1127 C1111 0.961 . S
H1128 C1112 0.931 . S
H1129 C1117 0.930 . S
H1130 C1118 0.956 . S
H1131 C1118 0.961 . S
H1132 C1118 0.961 . S
H1133 C1119 0.958 . S
H1134 C1119 0.961 . S
H1135 C1119 0.960 . S
C1136 C1137 1.391 . S
C1136 C1138 1.394 . S
C1136 H1152 0.931 . S
C1137 C1136 1.391 . S
C1137 C1141 1.376 1_554 S
C1138 C1136 1.394 . S
C1138 C1139 1.369 . S
C1138 C1142 1.531 . S
C1139 C1138 1.369 . S
C1139 C1140 1.410 1_554 S
C1139 C1147 1.503 1_554 S
C1140 C1139 1.410 1_556 S
C1140 C1141 1.392 . S
C1140 C1143 1.511 . S
C1141 C1137 1.376 1_556 S
C1141 C1140 1.392 . S
C1141 H1153 0.929 . S
C1142 C1138 1.531 . S
C1142 H1154 0.960 . S
C1142 H1155 0.962 . S
C1142 H1156 0.960 . S
C1143 C1140 1.511 . S
C1143 H1157 0.961 . S
C1143 H1158 0.961 . S
C1143 H1159 0.961 . S
C1144 C1145 1.370 . S
C1144 C1146 1.363 . S
C1144 H1160 0.931 . S
C1145 C1144 1.370 . S
C1145 C1149 1.408 . S
C1146 C1144 1.363 . S
C1146 C1147 1.370 . S
C1146 C1150 1.524 . S
C1147 C1139 1.503 1_556 S
C1147 C1146 1.370 . S
C1147 C1148 1.403 1_556 S
C1148 C1147 1.403 1_554 S
C1148 C1149 1.404 1_554 S
C1148 C1151 1.539 . S
C1149 C1145 1.408 . S
C1149 C1148 1.404 1_556 S
C1149 H1161 0.930 . S
C1150 C1146 1.524 . S
C1150 H1162 0.956 . S
C1150 H1163 0.961 . S
C1150 H1164 0.961 . S
C1151 C1148 1.539 . S
C1151 H1165 0.958 . S
C1151 H1166 0.961 . S
C1151 H1167 0.960 . S
H1152 C1136 0.931 . S
H1153 C1141 0.929 . S
H1154 C1142 0.960 . S
H1155 C1142 0.962 . S
H1156 C1142 0.960 . S
H1157 C1143 0.961 . S
H1158 C1143 0.961 . S
H1159 C1143 0.961 . S
H1160 C1144 0.931 . S
H1161 C1149 0.930 . S
H1162 C1150 0.956 . S
H1163 C1150 0.961 . S
H1164 C1150 0.961 . S
H1165 C1151 0.958 . S
H1166 C1151 0.961 . S
H1167 C1151 0.960 . S
C401 C7 1.570 . S
C409 C104 1.496 1_565 S
C433 C37 1.509 . S
C441 C143 1.401 . S
C465 C54 1.715 . S
C473 C182 1.575 . S
C505 C206 1.470 . S
C497 C87 1.486 . S
C537 C245 1.459 . S
C529 C30 1.528 . S
C561 C51 1.501 . S
C569 C284 1.507 . S
C593 C84 1.748 . S
C601 C338 1.646 . S
C625 C10 1.464 1_556 S
C633 C362 1.378 . S
C657 C59 1.596 . S
C665 C377 1.573 . S
C697 C260 1.390 . S
C689 C74 1.483 . S
C729 C299 1.653 . S
C721 C18 1.748 . S
C753 C32 1.489 . S
C761 C323 1.482 . S
C793 C128 1.520 . S
C785 C73 1.585 . S
C817 C15 1.530 . S
C825 C167 1.494 . S
C857 C221 1.667 . S
C849 C43 1.788 . S
C889 C89 1.366 . S
C881 C62 1.465 . S
C921 C343 1.519 . S
C913 C21 1.585 . S
C953 C382 1.343 . S
C945 C29 1.334 . S
C977 C52 1.327 . S
C985 C265 1.287 . S
C1017 C304 1.510 . S
C1009 C81 1.561 . S
C1049 C187 1.480 . S
C1041 C40 1.539 . S
C1073 C65 1.538 . S
C1081 C226 1.481 . S
C1113 C109 1.282 . S
C1105 C76 1.344 . S
C1145 C148 1.335 . S
C1137 C8 1.362 . S
