# Generated by pormake.
# Topology pto, (3,4)-cn, num edge types: 1
# Building blocks:
#     Node 0, Type 0, BuildingBlock: BETDAH_clean_linker_0, # of connection points: 3
#     Node 1, Type 0, BuildingBlock: BETDAH_clean_linker_0, # of connection points: 3
#     Node 2, Type 0, BuildingBlock: BETDAH_clean_linker_0, # of connection points: 3
#     Node 3, Type 0, BuildingBlock: BETDAH_clean_linker_0, # of connection points: 3
#     Node 4, Type 0, BuildingBlock: BETDAH_clean_linker_0, # of connection points: 3
#     Node 5, Type 0, BuildingBlock: BETDAH_clean_linker_0, # of connection points: 3
#     Node 6, Type 0, BuildingBlock: BETDAH_clean_linker_0, # of connection points: 3
#     Node 7, Type 0, BuildingBlock: BETDAH_clean_linker_0, # of connection points: 3
#     Node 8, Type 1, BuildingBlock: NAWXER_clean_sbu_0, # of connection points: 4
#     Node 9, Type 1, BuildingBlock: NAWXER_clean_sbu_0, # of connection points: 4
#     Node 10, Type 1, BuildingBlock: NAWXER_clean_sbu_0, # of connection points: 4
#     Node 11, Type 1, BuildingBlock: NAWXER_clean_sbu_0, # of connection points: 4
#     Node 12, Type 1, BuildingBlock: NAWXER_clean_sbu_0, # of connection points: 4
#     Node 13, Type 1, BuildingBlock: NAWXER_clean_sbu_0, # of connection points: 4
#     Edge 14, Type (0, 1), BuildingBlock: EZIPEK_clean_linker_0, # of connection points: 2
#     Edge 15, Type (0, 1), BuildingBlock: EZIPEK_clean_linker_0, # of connection points: 2
#     Edge 16, Type (0, 1), BuildingBlock: EZIPEK_clean_linker_0, # of connection points: 2
#     Edge 17, Type (0, 1), BuildingBlock: EZIPEK_clean_linker_0, # of connection points: 2
#     Edge 18, Type (0, 1), BuildingBlock: EZIPEK_clean_linker_0, # of connection points: 2
#     Edge 19, Type (0, 1), BuildingBlock: EZIPEK_clean_linker_0, # of connection points: 2
#     Edge 20, Type (0, 1), BuildingBlock: EZIPEK_clean_linker_0, # of connection points: 2
#     Edge 21, Type (0, 1), BuildingBlock: EZIPEK_clean_linker_0, # of connection points: 2
#     Edge 22, Type (0, 1), BuildingBlock: EZIPEK_clean_linker_0, # of connection points: 2
#     Edge 23, Type (0, 1), BuildingBlock: EZIPEK_clean_linker_0, # of connection points: 2
#     Edge 24, Type (0, 1), BuildingBlock: EZIPEK_clean_linker_0, # of connection points: 2
#     Edge 25, Type (0, 1), BuildingBlock: EZIPEK_clean_linker_0, # of connection points: 2
#     Edge 26, Type (0, 1), BuildingBlock: EZIPEK_clean_linker_0, # of connection points: 2
#     Edge 27, Type (0, 1), BuildingBlock: EZIPEK_clean_linker_0, # of connection points: 2
#     Edge 28, Type (0, 1), BuildingBlock: EZIPEK_clean_linker_0, # of connection points: 2
#     Edge 29, Type (0, 1), BuildingBlock: EZIPEK_clean_linker_0, # of connection points: 2
#     Edge 30, Type (0, 1), BuildingBlock: EZIPEK_clean_linker_0, # of connection points: 2
#     Edge 31, Type (0, 1), BuildingBlock: EZIPEK_clean_linker_0, # of connection points: 2
#     Edge 32, Type (0, 1), BuildingBlock: EZIPEK_clean_linker_0, # of connection points: 2
#     Edge 33, Type (0, 1), BuildingBlock: EZIPEK_clean_linker_0, # of connection points: 2
#     Edge 34, Type (0, 1), BuildingBlock: EZIPEK_clean_linker_0, # of connection points: 2
#     Edge 35, Type (0, 1), BuildingBlock: EZIPEK_clean_linker_0, # of connection points: 2
#     Edge 36, Type (0, 1), BuildingBlock: EZIPEK_clean_linker_0, # of connection points: 2
#     Edge 37, Type (0, 1), BuildingBlock: EZIPEK_clean_linker_0, # of connection points: 2
# Relax obj value: 0.012
# Max RMSD: 0.135
# Mean RMSD: 0.056
data_MOF--net-pto--node1-NAWXER_clean_sbu_0--node2-BETDAH_clean_linker_0--edge1-EZIPEK_clean_linker_0
_symmetry_space_group_name_H-M    P1
_symmetry_Int_Tables_number       1
_symmetry_cell_setting            triclinic
loop_
_symmetry_equiv_pos_as_xyz
'x, y, z'
_cell_length_a     30.310467
_cell_length_b     28.100729
_cell_length_c     27.186508
_cell_angle_alpha  109.90455
_cell_angle_beta   95.269675
_cell_angle_gamma 99.541364
loop_
_atom_site_label
_atom_site_type_symbol
_atom_site_fract_x
_atom_site_fract_y
_atom_site_fract_z
_atom_type_partial_charge
H0 H 0.36868 0.23342 0.44166 0.0
H1 H 0.30373 0.27552 0.31929 0.0
H2 H 0.22593 0.17541 0.38357 0.0
C3 C 0.33846 0.23185 0.41601 0.0
C4 C 0.29703 0.20113 0.4167 0.0
C5 C 0.34161 0.25781 0.37987 0.0
C6 C 0.30199 0.25575 0.34727 0.0
C7 C 0.26025 0.2268 0.34924 0.0
C8 C 0.25807 0.19867 0.38302 0.0
N9 N 0.22027 0.22505 0.31678 0.0
C10 C 0.20554 0.27007 0.31982 0.0
H11 H 0.29181 0.67191 0.88664 0.0
H12 H 0.34011 0.78393 0.81731 0.0
H13 H 0.20007 0.75357 0.8364 0.0
C14 C 0.28516 0.69916 0.86808 0.0
C15 C 0.24147 0.70905 0.86309 0.0
C16 C 0.3212 0.72695 0.85322 0.0
C17 C 0.31254 0.7623 0.82876 0.0
C18 C 0.26812 0.77068 0.82141 0.0
C19 C 0.23367 0.74535 0.84028 0.0
N20 N 0.25556 0.80442 0.79629 0.0
C21 C 0.2828 0.83594 0.77614 0.0
H22 H 0.87913 0.72996 0.43185 0.0
H23 H 0.7867 0.75514 0.31756 0.0
H24 H 0.86036 0.63357 0.26711 0.0
C25 C 0.86218 0.71898 0.39152 0.0
C26 C 0.87304 0.67818 0.35077 0.0
C27 C 0.8308 0.74692 0.37985 0.0
C28 C 0.80923 0.7324 0.32706 0.0
C29 C 0.81918 0.69041 0.28655 0.0
C30 C 0.8516 0.66458 0.29872 0.0
N31 N 0.801 0.67598 0.23233 0.0
C32 C 0.75575 0.6701 0.21237 0.0
H33 H 0.84425 0.25689 0.90305 0.0
H34 H 0.70282 0.22354 0.9125 0.0
H35 H 0.78446 0.37451 1.00519 0.0
C36 C 0.81535 0.26878 0.92084 0.0
C37 C 0.81971 0.32001 0.95614 0.0
C38 C 0.77321 0.23464 0.90324 0.0
C39 C 0.73563 0.24984 0.92582 0.0
C40 C 0.73991 0.29936 0.96461 0.0
C41 C 0.78185 0.33496 0.97881 0.0
N42 N 0.70037 0.31331 0.98469 0.0
C43 C 0.69956 0.34914 0.03465 0.0
H44 H 0.78935 0.63792 0.88168 0.0
H45 H 0.91836 0.71 0.85696 0.0
H46 H 0.81824 0.79998 0.90419 0.0
C47 C 0.81195 0.67147 0.88031 0.0
C48 C 0.79851 0.71954 0.89435 0.0
C49 C 0.85576 0.66775 0.86747 0.0
C50 C 0.88459 0.71194 0.86653 0.0
C51 C 0.87029 0.75854 0.8769 0.0
C52 C 0.82781 0.76271 0.89212 0.0
N53 N 0.89999 0.80153 0.87392 0.0
C54 C 0.88819 0.8257 0.83935 0.0
H55 H 0.83541 0.3679 0.41931 0.0
H56 H 0.89325 0.3249 0.54481 0.0
H57 H 0.75167 0.26859 0.47981 0.0
C58 C 0.83166 0.3471 0.44624 0.0
C59 C 0.78935 0.3169 0.4445 0.0
C60 C 0.86919 0.35035 0.4826 0.0
C61 C 0.86437 0.32257 0.51683 0.0
C62 C 0.82172 0.29331 0.51591 0.0
C63 C 0.78453 0.29102 0.48014 0.0
N64 N 0.81437 0.26785 0.55216 0.0
C65 C 0.84446 0.24147 0.56763 0.0
H66 H 0.388 0.23599 0.94745 0.0
H67 H 0.34084 0.3584 0.05916 0.0
H68 H 0.29603 0.31474 0.89177 0.0
C69 C 0.367 0.26465 0.9555 0.0
C70 C 0.34197 0.27151 0.91338 0.0
C71 C 0.36791 0.29678 0.00774 0.0
C72 C 0.34045 0.33359 0.01859 0.0
C73 C 0.31295 0.33895 0.97703 0.0
C74 C 0.31506 0.30901 0.92428 0.0
N75 N 0.28458 0.37555 0.98957 0.0
C76 C 0.24923 0.3774 0.95407 0.0
H77 H 0.31103 0.78545 0.44195 0.0
H78 H 0.38629 0.8096 0.32288 0.0
H79 H 0.27974 0.67412 0.28268 0.0
C80 C 0.3182 0.77207 0.4017 0.0
C81 C 0.29273 0.72521 0.3647 0.0
C82 C 0.35162 0.80271 0.38644 0.0
C83 C 0.36064 0.78547 0.33431 0.0
C84 C 0.33415 0.73943 0.29642 0.0
C85 C 0.30038 0.70948 0.3119 0.0
N86 N 0.33916 0.72362 0.24216 0.0
C87 C 0.37664 0.74357 0.22389 0.0
C88 C 0.02752 0.47881 0.45612 0.0
C89 C 0.14624 0.59534 0.41332 0.0
O90 O 0.05911 0.51353 0.48976 0.0
Zn91 Zn 0.08809 0.53941 0.43917 0.0
O92 O 0.02575 0.47158 0.40691 0.0
Zn93 Zn 0.06211 0.49985 0.35619 0.0
O94 O 0.08347 0.4379 0.31781 0.0
O95 O 0.11909 0.47694 0.39982 0.0
O96 O 0.12075 0.55989 0.37294 0.0
O97 O 0.13889 0.59884 0.45972 0.0
O98 O 0.03499 0.56872 0.41041 0.0
O99 O 0.01598 0.52608 0.32424 0.0
C100 C 0.11354 0.44001 0.35494 0.0
C101 C 1.01086 0.5613 0.3663 0.0
C102 C 0.98784 0.45258 0.95449 0.0
C103 C 0.09945 0.58657 0.92497 0.0
O104 O 1.00987 0.49389 0.99135 0.0
Zn105 Zn 0.04476 0.52298 0.94583 0.0
O106 O 0.99467 0.44585 0.9072 0.0
Zn107 Zn 0.0322 0.47731 0.86054 0.0
O108 O 0.06983 0.42663 0.83377 0.0
O109 O 0.08817 0.46994 0.92022 0.0
O110 O 0.08065 0.54701 0.88391 0.0
O111 O 0.08808 0.59002 0.96991 0.0
O112 O 0.9915 0.53831 0.90109 0.0
O113 O 0.98255 0.48881 0.81665 0.0
C114 C 0.09477 0.43598 0.87777 0.0
C115 C 0.9704 0.52367 0.85372 0.0
C116 C 0.31161 0.97453 0.66269 0.0
C117 C 0.30219 0.08369 0.55528 0.0
O118 O 0.27612 0.97693 0.63547 0.0
Zn119 Zn 0.30439 0.02922 0.61023 0.0
O120 O 0.34992 1.00322 0.66472 0.0
Zn121 Zn 0.37585 0.06005 0.63094 0.0
O122 O 0.39704 0.12386 0.69121 0.0
O123 O 0.32408 0.09367 0.68234 0.0
O124 O 0.34245 0.08815 0.57753 0.0
O125 O 0.26931 0.05452 0.56375 0.0
O126 O 0.34557 0.9881 0.55957 0.0
O127 O 0.41799 0.02629 0.58887 0.0
C128 C 0.35973 0.12744 0.70854 0.0
C129 C 0.38749 0.99014 0.55538 0.0
C130 C 0.60511 0.67006 0.07035 0.0
C131 C 0.48997 0.69735 0.94557 0.0
O132 O 0.57576 0.63347 0.03514 0.0
Zn133 Zn 0.54907 0.67712 1.00181 0.0
O134 O 0.60685 0.71651 0.0731 0.0
Zn135 Zn 0.5736 0.76063 0.03939 0.0
O136 O 0.54802 0.79701 0.10256 0.0
O137 O 0.51652 0.7141 0.06508 0.0
O138 O 0.5162 0.73853 0.97889 0.0
O139 O 0.4976 0.65329 0.94281 0.0
O140 O 0.60637 0.70616 0.9728 0.0
O141 O 0.62492 0.79117 0.01302 0.0
C142 C 0.51879 0.75801 0.10122 0.0
C143 C 0.63266 0.74954 0.98064 0.0
C144 C 0.86408 0.94797 0.71097 0.0
C145 C 0.87576 0.07769 0.62873 0.0
O146 O 0.82618 0.94674 0.68503 0.0
Zn147 Zn 0.79997 0.98991 0.6419 0.0
O148 O 0.899 0.98057 0.71201 0.0
Zn149 Zn 0.87099 0.01166 0.66786 0.0
O150 O 0.83219 0.05596 0.7215 0.0
O151 O 0.75984 0.02491 0.68803 0.0
O152 O 0.90816 0.06574 0.65191 0.0
O153 O 0.835 0.05248 0.62223 0.0
O154 O 0.7753 0.93549 0.57335 0.0
O155 O 0.84982 0.94862 0.59175 0.0
C156 C 0.79051 0.05718 0.72489 0.0
C157 C 0.81242 0.92336 0.56072 0.0
C158 C 0.62964 0.30124 0.29991 0.0
C159 C 0.50396 0.28793 0.165 0.0
O160 O 0.60846 0.2598 0.26271 0.0
Zn161 Zn 0.5647 0.28947 0.23125 0.0
O162 O 0.61669 0.34366 0.30611 0.0
Zn163 Zn 0.56599 0.37132 0.27172 0.0
O164 O 0.52649 0.38796 0.32675 0.0
O165 O 0.51866 0.30421 0.28523 0.0
O166 O 0.51764 0.33286 0.2011 0.0
O167 O 0.522 0.25034 0.1662 0.0
O168 O 0.60698 0.34073 0.20488 0.0
O169 O 0.60399 0.42199 0.2495 0.0
C170 C 0.50651 0.34183 0.3192 0.0
C171 C 0.6191 0.38902 0.21352 0.0
C172 C 0.17441 0.33242 0.28696 0.0
C173 C 0.18752 0.3166 0.32924 0.0
C174 C 0.15335 0.38149 0.38921 0.0
C175 C 0.14155 0.39953 0.34738 0.0
N176 N 0.15544 0.40228 0.26202 0.0
N177 N 0.20184 0.33558 0.42318 0.0
C178 C 0.15622 0.37785 0.29771 0.0
C179 C 0.18111 0.34435 0.38116 0.0
N180 N 0.17899 0.30396 0.23649 0.0
N181 N 0.13631 0.39681 0.43569 0.0
H182 H 0.22215 0.30831 0.41885 0.0
H183 H 0.20272 0.35899 0.4625 0.0
H184 H 0.1158 0.42359 0.44563 0.0
H185 H 0.1392 0.37896 0.46338 0.0
H186 H 0.16529 0.31034 0.20328 0.0
H187 H 0.19386 0.2717 0.22765 0.0
H188 H 0.16929 0.3905 0.22725 0.0
H189 H 0.14623 0.43797 0.27008 0.0
C190 C 0.16211 0.65602 0.84829 0.0
C191 C 0.20384 0.68208 0.88245 0.0
C192 C 0.1765 0.64915 0.94964 0.0
C193 C 0.13344 0.6271 0.9169 0.0
N194 N 0.08177 0.62773 0.84402 0.0
N195 N 0.24422 0.71652 0.97235 0.0
C196 C 0.12512 0.63671 0.86923 0.0
C197 C 0.20907 0.68281 0.93533 0.0
N198 N 0.15817 0.64677 0.79521 0.0
N199 N 0.1877 0.63619 0.99251 0.0
H200 H 0.26731 0.74368 0.96424 0.0
H201 H 0.24721 0.7214 0.01236 0.0
H202 H 0.1658 0.61081 1.00407 0.0
H203 H 0.22044 0.64725 0.01383 0.0
H204 H 0.12924 0.62396 0.76847 0.0
H205 H 0.18534 0.65649 0.77711 0.0
H206 H 0.074 0.63766 0.8111 0.0
H207 H 0.05356 0.61634 0.85988 0.0
C208 C 0.89507 0.59674 0.3535 0.0
C209 C 0.90812 0.64994 0.36098 0.0
C210 C 0.98774 0.64684 0.38141 0.0
C211 C 0.97538 0.59203 0.36581 0.0
N212 N 0.9169 0.51412 0.3369 0.0
N213 N 0.9673 0.72402 0.37389 0.0
C214 C 0.92887 0.56673 0.35161 0.0
C215 C 0.95455 0.67468 0.37301 0.0
N216 N 0.85037 0.57546 0.34995 0.0
N217 N 0.03088 0.67281 0.4052 0.0
H218 H 0.94423 0.74595 0.3678 0.0
H219 H 1.00086 0.74159 0.37595 0.0
H220 H 0.05641 0.6547 0.41315 0.0
H221 H 0.04017 0.71303 0.42222 0.0
H222 H 0.83879 0.53835 0.34967 0.0
H223 H 0.82497 0.5967 0.35217 0.0
H224 H 0.88428 0.49278 0.31966 0.0
H225 H 0.94002 0.49114 0.33964 0.0
C226 C 0.87754 0.35835 0.9136 0.0
C227 C 0.86218 0.35831 0.96105 0.0
C228 C 0.9333 0.42008 0.01067 0.0
C229 C 0.94966 0.41461 0.9617 0.0
N230 N 0.94362 0.35178 0.87263 0.0
N231 N 0.87991 0.38213 0.05581 0.0
C232 C 0.92381 0.37558 0.91487 0.0
C233 C 0.89115 0.38755 0.01022 0.0
N234 N 0.84833 0.34092 0.86687 0.0
N235 N 0.95809 0.45422 0.05749 0.0
H236 H 0.85017 0.35796 0.05667 0.0
H237 H 0.9017 0.39824 0.09193 0.0
H238 H 0.9921 0.47106 0.06148 0.0
H239 H 0.94473 0.46518 0.09267 0.0
H240 H 0.8589 0.34272 0.83194 0.0
H241 H 0.81331 0.33036 0.86467 0.0
H242 H 0.92525 0.32155 0.83894 0.0
H243 H 0.97868 0.35633 0.87498 0.0
C244 C 0.29107 0.11583 0.43012 0.0
C245 C 0.29474 0.17032 0.4519 0.0
C246 C 0.30186 0.16774 0.54153 0.0
C247 C 0.29528 0.11288 0.51971 0.0
N248 N 0.27757 0.03366 0.44326 0.0
N249 N 0.29454 0.24678 0.52695 0.0
C250 C 0.28761 0.08658 0.46392 0.0
C251 C 0.29739 0.19586 0.50725 0.0
N252 N 0.29323 0.09243 0.37755 0.0
N253 N 0.31374 0.19323 0.59504 0.0
H254 H 0.29131 0.26861 0.50302 0.0
H255 H 0.29133 0.26616 0.56617 0.0
H256 H 0.31638 0.17413 0.6216 0.0
H257 H 0.32426 0.23328 0.61281 0.0
H258 H 0.29598 0.05403 0.36035 0.0
H259 H 0.29599 0.11249 0.35161 0.0
H260 H 0.26694 0.0121 0.40309 0.0
H261 H 0.27674 0.01097 0.4667 0.0
C262 C 0.38329 0.74751 0.92811 0.0
C263 C 0.36811 0.72453 0.87287 0.0
C264 C 0.43514 0.68494 0.8628 0.0
C265 C 0.44664 0.7027 0.91887 0.0
N266 N 0.42238 0.73737 1.0037 0.0
N267 N 0.37689 0.66726 0.78717 0.0
C268 C 0.41826 0.73051 0.9512 0.0
C269 C 0.39338 0.69212 0.83988 0.0
N270 N 0.3639 0.78541 0.9588 0.0
N271 N 0.46443 0.66248 0.83165 0.0
H272 H 0.34736 0.67321 0.76933 0.0
H273 H 0.391 0.63886 0.76197 0.0
H274 H 0.49478 0.65634 0.84734 0.0
H275 H 0.46016 0.65327 0.79079 0.0
H276 H 0.37656 0.80668 0.99869 0.0
H277 H 0.33824 0.79921 0.94311 0.0
H278 H 0.39984 0.75324 0.02803 0.0
H279 H 0.44418 0.72043 0.02082 0.0
C280 C 0.79419 0.78487 0.45996 0.0
C281 C 0.82224 0.79268 0.42317 0.0
C282 C 0.83642 0.88685 0.47139 0.0
C283 C 0.81293 0.87857 0.51159 0.0
N284 N 0.77434 0.81902 0.54784 0.0
N285 N 0.87432 0.85056 0.39665 0.0
C286 C 0.79275 0.8274 0.50667 0.0
C287 C 0.84437 0.8436 0.4295 0.0
N288 N 0.76839 0.7368 0.44981 0.0
N289 N 0.84995 0.93612 0.47246 0.0
H290 H 0.88056 0.82006 0.36513 0.0
H291 H 0.89547 0.88598 0.40291 0.0
H292 H 0.84383 0.9684 0.50197 0.0
H293 H 0.86326 0.94468 0.44176 0.0
H294 H 0.74363 0.72957 0.47199 0.0
H295 H 0.76894 0.7048 0.4163 0.0
H296 H 0.76392 0.78235 0.54924 0.0
H297 H 0.77283 0.84884 0.58283 0.0
C298 C 0.64993 0.40081 0.08797 0.0
C299 C 0.68902 0.37898 0.08601 0.0
C300 C 0.69237 0.38839 0.1792 0.0
C301 C 0.64988 0.40339 0.17903 0.0
N302 N 0.59479 0.4383 0.14059 0.0
N303 N 0.75499 0.3663 0.13179 0.0
C304 C 0.63122 0.41517 0.13593 0.0
C305 C 0.71302 0.37803 0.13267 0.0
N306 N 0.62963 0.40512 0.04309 0.0
N307 N 0.71126 0.38126 0.22311 0.0
H308 H 0.77036 0.35886 0.09789 0.0
H309 H 0.77592 0.36768 0.165 0.0
H310 H 0.69758 0.39114 0.25824 0.0
H311 H 0.7395 0.36496 0.22477 0.0
H312 H 0.59854 0.41566 0.03943 0.0
H313 H 0.64401 0.39704 0.00847 0.0
H314 H 0.58029 0.45037 0.11194 0.0
H315 H 0.5809 0.44895 0.17545 0.0
C316 C 0.28667 0.92335 0.77236 0.0
C317 C 0.29796 0.87396 0.7524 0.0
C318 C 0.32052 0.89132 0.67459 0.0
C319 C 0.30867 0.94049 0.69432 0.0
N320 N 0.2898 1.00811 0.76633 0.0
N321 N 0.33311 0.8141 0.69088 0.0
C322 C 0.2946 0.95797 0.74462 0.0
C323 C 0.31742 0.85901 0.70547 0.0
N324 N 0.26677 0.93641 0.81695 0.0
N325 N 0.3333 0.875 0.62561 0.0
H326 H 0.3311 0.79008 0.713 0.0
H327 H 0.35107 0.80248 0.65958 0.0
H328 H 0.33669 0.89809 0.60259 0.0
H329 H 0.33829 0.83786 0.6063 0.0
H330 H 0.25214 0.9686 0.82978 0.0
H331 H 0.26289 0.91351 0.84011 0.0
H332 H 0.28445 0.02517 0.80515 0.0
H333 H 0.29462 0.03428 0.7468 0.0
C334 C 0.70132 0.62313 0.12949 0.0
C335 C 0.71139 0.66099 0.18129 0.0
C336 C 0.64447 0.69445 0.16419 0.0
C337 C 0.63805 0.66166 0.10941 0.0
N338 N 0.66419 0.5985 0.03915 0.0
N339 N 0.69115 0.72843 0.25119 0.0
C340 C 0.66685 0.6261 0.09198 0.0
C341 C 0.68204 0.69476 0.19976 0.0
N342 N 0.72489 0.58431 0.11627 0.0
N343 N 0.61468 0.72541 0.18255 0.0
H344 H 0.71456 0.72458 0.27935 0.0
H345 H 0.6763 0.76016 0.26602 0.0
H346 H 0.58972 0.73174 0.15831 0.0
H347 H 0.61324 0.74378 0.22249 0.0
H348 H 0.71627 0.55237 0.08097 0.0
H349 H 0.75032 0.58146 0.14311 0.0
H350 H 0.6878 0.57686 0.02371 0.0
H351 H 0.64082 0.6005 0.00976 0.0
C352 C 0.75584 0.18244 0.80514 0.0
C353 C 0.76908 0.18498 0.85766 0.0
C354 C 0.79141 0.10109 0.8231 0.0
C355 C 0.77928 0.09881 0.77032 0.0
N356 N 0.75518 0.13979 0.7107 0.0
N357 N 0.79004 0.14316 0.91722 0.0
C358 C 0.762 0.13971 0.76117 0.0
C359 C 0.78396 0.14307 0.8667 0.0
N360 N 0.73725 0.22104 0.79749 0.0
N361 N 0.81235 0.06448 0.8317 0.0
H362 H 0.78487 0.17343 0.94979 0.0
H363 H 0.79628 0.11171 0.92662 0.0
H364 H 0.8182 0.03309 0.80114 0.0
H365 H 0.82697 0.06687 0.86884 0.0
H366 H 0.72226 0.21955 0.76088 0.0
H367 H 0.73397 0.25379 0.82854 0.0
H368 H 0.74795 0.17088 0.70134 0.0
H369 H 0.75966 0.10975 0.67755 0.0
C370 C 0.42138 0.25559 0.3605 0.0
C371 C 0.38664 0.2838 0.37287 0.0
C372 C 0.4323 0.35566 0.35548 0.0
C373 C 0.46848 0.32864 0.34716 0.0
N374 N 0.50169 0.26145 0.36285 0.0
N375 N 0.36559 0.36694 0.39756 0.0
C376 C 0.46442 0.2816 0.35694 0.0
C377 C 0.39429 0.33599 0.37552 0.0
N378 N 0.41288 0.20321 0.3483 0.0
N379 N 0.43209 0.39777 0.34123 0.0
H380 H 0.33826 0.35419 0.41389 0.0
H381 H 0.37186 0.40651 0.40467 0.0
H382 H 0.4579 0.41323 0.32493 0.0
H383 H 0.40397 0.41468 0.34125 0.0
H384 H 0.43647 0.18083 0.33437 0.0
H385 H 0.38093 0.18123 0.34581 0.0
H386 H 0.50071 0.2294 0.37416 0.0
H387 H 0.53421 0.28032 0.36265 0.0
C388 C 0.89257 0.60051 0.80872 0.0
C389 C 0.87361 0.61902 0.85591 0.0
C390 C 0.90179 0.55445 0.88463 0.0
C391 C 0.93065 0.54683 0.84557 0.0
N392 N 0.95431 0.56515 0.77013 0.0
N393 N 0.86502 0.61584 0.9426 0.0
C394 C 0.92571 0.56962 0.80667 0.0
C395 C 0.87868 0.59595 0.8946 0.0
N396 N 0.87916 0.61302 0.76619 0.0
N397 N 0.89688 0.52219 0.91257 0.0
H398 H 0.85017 0.64797 0.95341 0.0
H399 H 0.87252 0.6033 0.97374 0.0
H400 H 0.91219 0.49029 0.90463 0.0
H401 H 0.87364 0.52361 0.93876 0.0
H402 H 0.88907 0.59733 0.72935 0.0
H403 H 0.8543 0.63472 0.76642 0.0
H404 H 0.95532 0.58619 0.74509 0.0
H405 H 0.97929 0.54343 0.76721 0.0
C406 C 0.94213 0.3596 0.44696 0.0
C407 C 0.91388 0.38184 0.48308 0.0
C408 C 0.96308 0.46782 0.50713 0.0
C409 C 0.99202 0.4455 0.47153 0.0
N410 N 1.01397 0.36866 0.41557 0.0
N411 N 0.90173 0.454 0.55561 0.0
C412 C 0.98302 0.39087 0.44406 0.0
C413 C 0.92598 0.43495 0.51603 0.0
N414 N 0.92891 0.30888 0.41384 0.0
N415 N 0.96876 0.52044 0.52933 0.0
H416 H 0.87365 0.43129 0.56216 0.0
H417 H 0.91162 0.49091 0.58463 0.0
H418 H 0.99479 0.54612 0.52335 0.0
H419 H 0.94555 0.53892 0.55034 0.0
H420 H 0.94457 0.29209 0.38164 0.0
H421 H 0.90034 0.284 0.41648 0.0
H422 H 1.01222 0.32891 0.40009 0.0
H423 H 0.04357 0.39004 0.41079 0.0
C424 C 0.21591 0.41864 0.89631 0.0
C425 C 0.2101 0.38281 0.92254 0.0
C426 C 0.12749 0.36825 0.8995 0.0
C427 C 0.13334 0.41038 0.88161 0.0
N428 N 0.18222 0.47578 0.8616 0.0
N429 N 0.16145 0.32099 0.94755 0.0
C430 C 0.17735 0.43501 0.87869 0.0
C431 C 0.16613 0.35622 0.92293 0.0
N432 N 0.2583 0.43687 0.88837 0.0
N433 N 0.08481 0.34012 0.89406 0.0
H434 H 0.1891 0.30971 0.96286 0.0
H435 H 0.13061 0.30435 0.95476 0.0
H436 H 0.05636 0.34821 0.87645 0.0
H437 H 0.07779 0.30652 0.90261 0.0
H438 H 0.26467 0.45967 0.86558 0.0
H439 H 0.28696 0.42541 0.90103 0.0
H440 H 0.21324 0.49972 0.86455 0.0
H441 H 0.1546 0.4871 0.84629 0.0
C442 C 0.21019 0.69655 0.36588 0.0
C443 C 0.25563 0.69435 0.38042 0.0
C444 C 0.22979 0.63335 0.42392 0.0
C445 C 0.184 0.6315 0.40457 0.0
N446 N 0.13104 0.65565 0.34958 0.0
N447 N 0.30961 0.65785 0.41886 0.0
C448 C 0.17433 0.66146 0.3734 0.0
C449 C 0.26574 0.66232 0.4087 0.0
N450 N 0.20125 0.73335 0.3462 0.0
N451 N 0.23903 0.60662 0.45593 0.0
H452 H 0.33673 0.6789 0.40888 0.0
H453 H 0.31906 0.63085 0.43379 0.0
H454 H 0.2143 0.58119 0.46415 0.0
H455 H 0.27107 0.61151 0.47671 0.0
H456 H 0.1691 0.74111 0.34082 0.0
H457 H 0.22659 0.75964 0.33986 0.0
H458 H 0.12304 0.67136 0.32115 0.0
H459 H 0.10316 0.63181 0.35464 0.0
C460 C 0.83727 0.86361 0.79387 0.0
C461 C 0.87992 0.85121 0.80219 0.0
C462 C 0.90636 0.88921 0.73882 0.0
C463 C 0.86733 0.91125 0.7392 0.0
N464 N 0.79664 0.92277 0.77333 0.0
N465 N 0.95681 0.85432 0.78507 0.0
C466 C 0.83276 0.89907 0.76799 0.0
C467 C 0.91504 0.86464 0.77542 0.0
N468 N 0.80065 0.84054 0.80939 0.0
N469 N 0.93375 0.889 0.70154 0.0
H470 H 0.96398 0.83451 0.81006 0.0
H471 H 0.98504 0.86859 0.77112 0.0
H472 H 0.92648 0.90261 0.67114 0.0
H473 H 0.96036 0.8695 0.69669 0.0
H474 H 0.76766 0.84425 0.79959 0.0
H475 H 0.80253 0.81272 0.82634 0.0
H476 H 0.77435 0.91984 0.79967 0.0
H477 H 0.79043 0.9488 0.75551 0.0
C478 C 0.71373 0.33769 0.42626 0.0
C479 C 0.74916 0.31336 0.40667 0.0
C480 C 0.70763 0.28313 0.31604 0.0
C481 C 0.66987 0.30227 0.33638 0.0
N482 N 0.63443 0.34005 0.41251 0.0
N483 N 0.77709 0.25566 0.33414 0.0
C484 C 0.67224 0.3274 0.392 0.0
C485 C 0.74532 0.2839 0.35187 0.0
N486 N 0.72023 0.37206 0.47729 0.0
N487 N 0.70886 0.26708 0.26283 0.0
H488 H 0.80534 0.25552 0.35904 0.0
H489 H 0.77339 0.22906 0.29562 0.0
H490 H 0.68288 0.26759 0.23523 0.0
H491 H 0.73762 0.25817 0.24658 0.0
H492 H 0.69749 0.39531 0.49204 0.0
H493 H 0.7504 0.38113 0.50351 0.0
H494 H 0.63293 0.35288 0.45294 0.0
H495 H 0.60321 0.3332 0.38917 0.0
C496 C 0.30757 0.21022 0.82032 0.0
C497 C 0.34621 0.24025 0.85817 0.0
C498 C 0.39447 0.19473 0.79989 0.0
C499 C 0.3564 0.16934 0.75891 0.0
N500 N 0.27919 0.17178 0.72709 0.0
N501 N 0.42708 0.27376 0.87384 0.0
C502 C 0.31363 0.18285 0.76795 0.0
C503 C 0.38992 0.23695 0.84444 0.0
N504 N 0.26533 0.20549 0.83417 0.0
N505 N 0.43377 0.17692 0.79944 0.0
H506 H 0.42463 0.3067 0.90528 0.0
H507 H 0.45918 0.27427 0.86282 0.0
H508 H 0.4375 0.14191 0.77239 0.0
H509 H 0.4606 0.1933 0.83099 0.0
H510 H 0.23703 0.18016 0.80805 0.0
H511 H 0.25935 0.22206 0.87286 0.0
H512 H 0.24892 0.18439 0.73278 0.0
H513 H 0.28292 0.15689 0.68744 0.0
C514 C 0.45137 0.72919 0.20382 0.0
C515 C 0.41685 0.75661 0.20205 0.0
C516 C 0.45579 0.79583 0.14546 0.0
C517 C 0.48625 0.76127 0.13982 0.0
N518 N 0.50431 0.68558 0.15587 0.0
N519 N 0.38409 0.81556 0.17132 0.0
C520 C 0.48193 0.72553 0.16705 0.0
C521 C 0.41873 0.79041 0.17347 0.0
N522 N 0.45469 0.70588 0.24033 0.0
N523 N 0.46098 0.83238 0.12254 0.0
H524 H 0.35774 0.81388 0.19326 0.0
H525 H 0.3801 0.83576 0.14602 0.0
H526 H 0.48448 0.83477 0.09743 0.0
H527 H 0.44325 0.86216 0.13034 0.0
H528 H 0.48221 0.68979 0.24701 0.0
H529 H 0.43253 0.70777 0.26784 0.0
H530 H 0.49771 0.65586 0.17063 0.0
H531 H 0.52573 0.67795 0.12786 0.0
C532 C 0.87466 0.215 0.63909 0.0
C533 C 0.8673 0.20693 0.58451 0.0
C534 C 0.88462 0.12072 0.56263 0.0
C535 C 0.88301 0.12507 0.61582 0.0
N536 N 0.87873 0.17609 0.70606 0.0
N537 N 0.86891 0.15559 0.49385 0.0
C538 C 0.8797 0.17261 0.65478 0.0
C539 C 0.87424 0.1611 0.54611 0.0
N540 N 0.87636 0.2631 0.6756 0.0
N541 N 0.89586 0.07784 0.52836 0.0
H542 H 0.86344 0.18567 0.48131 0.0
H543 H 0.86861 0.12123 0.46291 0.0
H544 H 0.90433 0.04857 0.54047 0.0
H545 H 0.90049 0.07309 0.48966 0.0
H546 H 0.88514 0.27296 0.71627 0.0
H547 H 0.87283 0.2946 0.66458 0.0
H548 H 0.87047 0.20713 0.735 0.0
H549 H 0.88446 0.14659 0.71934 0.0
C550 C 0.38931 0.26548 0.08147 0.0
C551 C 0.40188 0.29472 0.04957 0.0
C552 C 0.48201 0.30723 0.08488 0.0
C553 C 0.46925 0.2827 0.12061 0.0
N554 N 0.41112 0.24319 0.1578 0.0
N555 N 0.45913 0.35048 0.02656 0.0
C556 C 0.42295 0.26281 0.12012 0.0
C557 C 0.448 0.31755 0.05284 0.0
N558 N 0.34548 0.23948 0.07403 0.0
N559 N 0.52679 0.31984 0.08104 0.0
H560 H 0.43504 0.35959 1.00324 0.0
H561 H 0.49158 0.37249 0.03168 0.0
H562 H 0.55251 0.31216 0.10362 0.0
H563 H 0.53817 0.33321 0.05216 0.0
H564 H 0.3351 0.21302 0.09188 0.0
H565 H 0.31985 0.24189 0.04716 0.0
H566 H 0.37781 0.2337 0.1636 0.0
H567 H 0.43502 0.23917 0.18549 0.0
C568 C 0.40239 0.85912 0.47141 0.0
C569 C 0.37432 0.85484 0.42471 0.0
C570 C 0.3799 0.94844 0.45913 0.0
C571 C 0.39808 0.95015 0.50951 0.0
N572 N 0.42925 0.90898 0.56482 0.0
N573 N 0.33408 0.89558 0.37459 0.0
C574 C 0.41126 0.90631 0.51578 0.0
C575 C 0.36338 0.89974 0.41793 0.0
N576 N 0.41985 0.81784 0.47325 0.0
N577 N 0.37677 0.9936 0.45184 0.0
H578 H 0.31971 0.86057 0.34397 0.0
H579 H 0.321 0.92644 0.37092 0.0
H580 H 0.38842 0.02959 0.48233 0.0
H581 H 0.36702 0.9956 0.41497 0.0
H582 H 0.44334 0.81968 0.50464 0.0
H583 H 0.41383 0.78295 0.44098 0.0
H584 H 0.43422 0.87677 0.57357 0.0
H585 H 0.43746 0.94366 0.59744 0.0
C586 C 0.71531 0.72173 0.882 0.0
C587 C 0.75564 0.72692 0.91619 0.0
C588 C 0.71603 0.7511 0.99318 0.0
C589 C 0.67619 0.7483 0.95937 0.0
N590 N 0.63862 0.73695 0.87315 0.0
N591 N 0.79677 0.75347 1.00465 0.0
C592 C 0.67609 0.73528 0.90412 0.0
C593 C 0.75663 0.74365 0.97188 0.0
N594 N 0.71445 0.70291 0.82837 0.0
N595 N 0.71451 0.75833 0.04532 0.0
H596 H 0.82683 0.74609 0.99077 0.0
H597 H 0.80113 0.77209 0.0456 0.0
H598 H 0.68636 0.76632 0.06338 0.0
H599 H 0.74012 0.75325 0.07014 0.0
H600 H 0.68529 0.69333 0.80068 0.0
H601 H 0.74278 0.6936 0.81118 0.0
H602 H 0.63711 0.73237 0.83338 0.0
H603 H 0.6097 0.74689 0.88848 0.0
loop_
_geom_bond_atom_site_label_1
_geom_bond_atom_site_label_2
_geom_bond_distance
_geom_bond_site_symmetry_2
_ccdc_geom_bond_type
H0 C3 0.929 . S
H1 C6 0.929 . S
H2 C8 0.930 . S
C3 H0 0.929 . S
C3 C4 1.398 . S
C3 C5 1.396 . S
C4 C3 1.398 . S
C4 C8 1.407 . S
C5 C3 1.396 . S
C5 C6 1.394 . S
C6 H1 0.929 . S
C6 C5 1.394 . S
C6 C7 1.382 . S
C7 C6 1.382 . S
C7 C8 1.392 . S
C7 N9 1.420 . S
C8 H2 0.930 . S
C8 C4 1.407 . S
C8 C7 1.392 . S
N9 C7 1.420 . S
N9 C10 1.244 . S
C10 N9 1.244 . S
H11 C14 0.929 . S
H12 C17 0.929 . S
H13 C19 0.930 . S
C14 H11 0.929 . S
C14 C15 1.398 . S
C14 C16 1.396 . S
C15 C14 1.398 . S
C15 C19 1.407 . S
C16 C14 1.396 . S
C16 C17 1.394 . S
C17 H12 0.929 . S
C17 C16 1.394 . S
C17 C18 1.382 . S
C18 C17 1.382 . S
C18 C19 1.392 . S
C18 N20 1.420 . S
C19 H13 0.930 . S
C19 C15 1.407 . S
C19 C18 1.392 . S
N20 C18 1.420 . S
N20 C21 1.244 . S
C21 N20 1.244 . S
H22 C25 0.929 . S
H23 C28 0.929 . S
H24 C30 0.930 . S
C25 H22 0.929 . S
C25 C26 1.398 . S
C25 C27 1.396 . S
C26 C25 1.398 . S
C26 C30 1.407 . S
C27 C25 1.396 . S
C27 C28 1.394 . S
C28 H23 0.929 . S
C28 C27 1.394 . S
C28 C29 1.382 . S
C29 C28 1.382 . S
C29 C30 1.392 . S
C29 N31 1.420 . S
C30 H24 0.930 . S
C30 C26 1.407 . S
C30 C29 1.392 . S
N31 C29 1.420 . S
N31 C32 1.244 . S
C32 N31 1.244 . S
H33 C36 0.929 . S
H34 C39 0.929 . S
H35 C41 0.930 . S
C36 H33 0.929 . S
C36 C37 1.398 . S
C36 C38 1.396 . S
C37 C36 1.398 . S
C37 C41 1.407 1_556 S
C38 C36 1.396 . S
C38 C39 1.394 . S
C39 H34 0.929 . S
C39 C38 1.394 . S
C39 C40 1.382 1_556 S
C40 C39 1.382 1_554 S
C40 C41 1.392 . S
C40 N42 1.420 . S
C41 H35 0.930 . S
C41 C37 1.407 1_554 S
C41 C40 1.392 . S
N42 C40 1.420 . S
N42 C43 1.244 . S
C43 N42 1.244 . S
H44 C47 0.929 . S
H45 C50 0.929 . S
H46 C52 0.930 . S
C47 H44 0.929 . S
C47 C48 1.398 . S
C47 C49 1.396 . S
C48 C47 1.398 . S
C48 C52 1.407 . S
C49 C47 1.396 . S
C49 C50 1.394 . S
C50 H45 0.929 . S
C50 C49 1.394 . S
C50 C51 1.382 . S
C51 C50 1.382 . S
C51 C52 1.392 . S
C51 N53 1.420 . S
C52 H46 0.930 . S
C52 C48 1.407 . S
C52 C51 1.392 . S
N53 C51 1.420 . S
N53 C54 1.244 . S
C54 N53 1.244 . S
H55 C58 0.929 . S
H56 C61 0.929 . S
H57 C63 0.930 . S
C58 H55 0.929 . S
C58 C59 1.398 . S
C58 C60 1.396 . S
C59 C58 1.398 . S
C59 C63 1.407 . S
C60 C58 1.396 . S
C60 C61 1.394 . S
C61 H56 0.929 . S
C61 C60 1.394 . S
C61 C62 1.382 . S
C62 C61 1.382 . S
C62 C63 1.392 . S
C62 N64 1.420 . S
C63 H57 0.930 . S
C63 C59 1.407 . S
C63 C62 1.392 . S
N64 C62 1.420 . S
N64 C65 1.244 . S
C65 N64 1.244 . S
H66 C69 0.929 . S
H67 C72 0.929 1_554 S
H68 C74 0.930 . S
C69 H66 0.929 . S
C69 C70 1.398 . S
C69 C71 1.396 . S
C70 C69 1.398 . S
C70 C74 1.407 . S
C71 C69 1.396 . S
C71 C72 1.394 . S
C72 H67 0.929 1_556 S
C72 C71 1.394 . S
C72 C73 1.382 . S
C73 C72 1.382 . S
C73 C74 1.392 . S
C73 N75 1.420 . S
C74 H68 0.930 . S
C74 C70 1.407 . S
C74 C73 1.392 . S
N75 C73 1.420 . S
N75 C76 1.244 . S
C76 N75 1.244 . S
H77 C80 0.929 . S
H78 C83 0.929 . S
H79 C85 0.930 . S
C80 H77 0.929 . S
C80 C81 1.398 . S
C80 C82 1.396 . S
C81 C80 1.398 . S
C81 C85 1.407 . S
C82 C80 1.396 . S
C82 C83 1.394 . S
C83 H78 0.929 . S
C83 C82 1.394 . S
C83 C84 1.382 . S
C84 C83 1.382 . S
C84 C85 1.392 . S
C84 N86 1.420 . S
C85 H79 0.930 . S
C85 C81 1.407 . S
C85 C84 1.392 . S
N86 C84 1.420 . S
N86 C87 1.244 . S
C87 N86 1.244 . S
C88 O90 1.247 1_655 S
C88 O92 1.258 . S
C89 O96 1.247 . S
C89 O97 1.258 . S
O90 C88 1.247 1_455 S
O90 Zn91 2.028 . S
Zn91 O90 2.028 . S
Zn91 O95 2.035 . S
Zn91 O97 2.035 . S
Zn91 O98 2.028 . S
O92 C88 1.258 . S
O92 Zn93 2.035 1_655 S
Zn93 O92 2.035 1_455 S
Zn93 O94 2.028 . S
Zn93 O96 2.028 . S
Zn93 O99 2.035 1_455 S
O94 Zn93 2.028 . S
O94 C100 1.247 . S
O95 Zn91 2.035 . S
O95 C100 1.258 . S
O96 C89 1.247 . S
O96 Zn93 2.028 . S
O97 C89 1.258 . S
O97 Zn91 2.035 . S
O98 Zn91 2.028 . S
O98 C101 1.247 1_455 S
O99 Zn93 2.035 1_655 S
O99 C101 1.258 . S
C100 O94 1.247 . S
C100 O95 1.258 . S
C101 O98 1.247 1_655 S
C101 O99 1.258 . S
C102 O104 1.247 1_656 S
C102 O106 1.258 . S
C103 O110 1.247 . S
C103 O111 1.258 . S
O104 C102 1.247 1_454 S
O104 Zn105 2.028 . S
Zn105 O104 2.028 . S
Zn105 O109 2.035 . S
Zn105 O111 2.035 1_554 S
Zn105 O112 2.028 1_554 S
O106 C102 1.258 . S
O106 Zn107 2.035 1_655 S
Zn107 O106 2.035 1_455 S
Zn107 O108 2.028 . S
Zn107 O110 2.028 . S
Zn107 O113 2.035 1_455 S
O108 Zn107 2.028 . S
O108 C114 1.247 . S
O109 Zn105 2.035 . S
O109 C114 1.258 1_554 S
O110 C103 1.247 . S
O110 Zn107 2.028 . S
O111 C103 1.258 . S
O111 Zn105 2.035 1_556 S
O112 Zn105 2.028 1_556 S
O112 C115 1.247 1_455 S
O113 Zn107 2.035 1_655 S
O113 C115 1.258 . S
C114 O108 1.247 . S
C114 O109 1.258 1_556 S
C115 O112 1.247 1_655 S
C115 O113 1.258 . S
C116 O118 1.247 . S
C116 O120 1.258 . S
C117 O124 1.247 . S
C117 O125 1.258 . S
O118 C116 1.247 . S
O118 Zn119 2.028 1_565 S
Zn119 O118 2.028 1_545 S
Zn119 O123 2.035 . S
Zn119 O125 2.035 . S
Zn119 O126 2.028 1_545 S
O120 C116 1.258 . S
O120 Zn121 2.035 1_565 S
Zn121 O120 2.035 1_545 S
Zn121 O122 2.028 . S
Zn121 O124 2.028 . S
Zn121 O127 2.035 1_545 S
O122 Zn121 2.028 . S
O122 C128 1.247 . S
O123 Zn119 2.035 . S
O123 C128 1.258 . S
O124 C117 1.247 . S
O124 Zn121 2.028 . S
O125 C117 1.258 . S
O125 Zn119 2.035 . S
O126 Zn119 2.028 1_565 S
O126 C129 1.247 . S
O127 Zn121 2.035 1_565 S
O127 C129 1.258 . S
C128 O122 1.247 . S
C128 O123 1.258 . S
C129 O126 1.247 . S
C129 O127 1.258 . S
C130 O132 1.247 . S
C130 O134 1.258 . S
C131 O138 1.247 . S
C131 O139 1.258 . S
O132 C130 1.247 . S
O132 Zn133 2.028 1_554 S
Zn133 O132 2.028 1_556 S
Zn133 O137 2.035 1_556 S
Zn133 O139 2.035 . S
Zn133 O140 2.028 . S
O134 C130 1.258 . S
O134 Zn135 2.035 . S
Zn135 O134 2.035 . S
Zn135 O136 2.028 . S
Zn135 O138 2.028 1_554 S
Zn135 O141 2.035 1_554 S
O136 Zn135 2.028 . S
O136 C142 1.247 . S
O137 Zn133 2.035 1_554 S
O137 C142 1.258 . S
O138 C131 1.247 . S
O138 Zn135 2.028 1_556 S
O139 C131 1.258 . S
O139 Zn133 2.035 . S
O140 Zn133 2.028 . S
O140 C143 1.247 . S
O141 Zn135 2.035 1_556 S
O141 C143 1.258 . S
C142 O136 1.247 . S
C142 O137 1.258 . S
C143 O140 1.247 . S
C143 O141 1.258 . S
C144 O146 1.247 . S
C144 O148 1.258 . S
C145 O152 1.247 . S
C145 O153 1.258 . S
O146 C144 1.247 . S
O146 Zn147 2.028 1_565 S
Zn147 O146 2.028 1_545 S
Zn147 O151 2.035 . S
Zn147 O153 2.035 . S
Zn147 O154 2.028 1_545 S
O148 C144 1.258 . S
O148 Zn149 2.035 1_565 S
Zn149 O148 2.035 1_545 S
Zn149 O150 2.028 . S
Zn149 O152 2.028 . S
Zn149 O155 2.035 1_545 S
O150 Zn149 2.028 . S
O150 C156 1.247 . S
O151 Zn147 2.035 . S
O151 C156 1.258 . S
O152 C145 1.247 . S
O152 Zn149 2.028 . S
O153 C145 1.258 . S
O153 Zn147 2.035 . S
O154 Zn147 2.028 1_565 S
O154 C157 1.247 . S
O155 Zn149 2.035 1_565 S
O155 C157 1.258 . S
C156 O150 1.247 . S
C156 O151 1.258 . S
C157 O154 1.247 . S
C157 O155 1.258 . S
C158 O160 1.247 . S
C158 O162 1.258 . S
C159 O166 1.247 . S
C159 O167 1.258 . S
O160 C158 1.247 . S
O160 Zn161 2.028 . S
Zn161 O160 2.028 . S
Zn161 O165 2.035 . S
Zn161 O167 2.035 . S
Zn161 O168 2.028 . S
O162 C158 1.258 . S
O162 Zn163 2.035 . S
Zn163 O162 2.035 . S
Zn163 O164 2.028 . S
Zn163 O166 2.028 . S
Zn163 O169 2.035 . S
O164 Zn163 2.028 . S
O164 C170 1.247 . S
O165 Zn161 2.035 . S
O165 C170 1.258 . S
O166 C159 1.247 . S
O166 Zn163 2.028 . S
O167 C159 1.258 . S
O167 Zn161 2.035 . S
O168 Zn161 2.028 . S
O168 C171 1.247 . S
O169 Zn163 2.035 . S
O169 C171 1.258 . S
C170 O164 1.247 . S
C170 O165 1.258 . S
C171 O168 1.247 . S
C171 O169 1.258 . S
C172 C173 1.363 . S
C172 C178 1.379 . S
C172 N180 1.356 . S
C173 C172 1.363 . S
C173 C179 1.363 . S
C174 C175 1.363 . S
C174 C179 1.379 . S
C174 N181 1.356 . S
C175 C174 1.363 . S
C175 C178 1.363 . S
N176 C178 1.356 . S
N176 H188 0.984 . S
N176 H189 0.985 . S
N177 C179 1.356 . S
N177 H182 0.984 . S
N177 H183 0.985 . S
C178 C172 1.379 . S
C178 C175 1.363 . S
C178 N176 1.356 . S
C179 C173 1.363 . S
C179 C174 1.379 . S
C179 N177 1.356 . S
N180 C172 1.356 . S
N180 H186 0.984 . S
N180 H187 0.984 . S
N181 C174 1.356 . S
N181 H184 0.984 . S
N181 H185 0.985 . S
H182 N177 0.984 . S
H183 N177 0.985 . S
H184 N181 0.984 . S
H185 N181 0.985 . S
H186 N180 0.984 . S
H187 N180 0.984 . S
H188 N176 0.984 . S
H189 N176 0.985 . S
C190 C191 1.363 . S
C190 C196 1.379 . S
C190 N198 1.356 . S
C191 C190 1.363 . S
C191 C197 1.363 . S
C192 C193 1.363 . S
C192 C197 1.379 . S
C192 N199 1.356 . S
C193 C192 1.363 . S
C193 C196 1.363 . S
N194 C196 1.356 . S
N194 H206 0.984 . S
N194 H207 0.985 . S
N195 C197 1.356 . S
N195 H200 0.984 . S
N195 H201 0.985 . S
C196 C190 1.379 . S
C196 C193 1.363 . S
C196 N194 1.356 . S
C197 C191 1.363 . S
C197 C192 1.379 . S
C197 N195 1.356 . S
N198 C190 1.356 . S
N198 H204 0.984 . S
N198 H205 0.984 . S
N199 C192 1.356 . S
N199 H202 0.984 . S
N199 H203 0.985 1_556 S
H200 N195 0.984 . S
H201 N195 0.985 . S
H202 N199 0.984 . S
H203 N199 0.985 1_554 S
H204 N198 0.984 . S
H205 N198 0.984 . S
H206 N194 0.984 . S
H207 N194 0.985 . S
C208 C209 1.363 . S
C208 C214 1.379 . S
C208 N216 1.356 . S
C209 C208 1.363 . S
C209 C215 1.363 . S
C210 C211 1.363 . S
C210 C215 1.379 . S
C210 N217 1.356 . S
C211 C210 1.363 . S
C211 C214 1.363 . S
N212 C214 1.356 . S
N212 H224 0.984 . S
N212 H225 0.985 . S
N213 C215 1.356 . S
N213 H218 0.984 . S
N213 H219 0.985 . S
C214 C208 1.379 . S
C214 C211 1.363 . S
C214 N212 1.356 . S
C215 C209 1.363 . S
C215 C210 1.379 . S
C215 N213 1.356 . S
N216 C208 1.356 . S
N216 H222 0.984 . S
N216 H223 0.984 . S
N217 C210 1.356 . S
N217 H220 0.984 1_655 S
N217 H221 0.985 . S
H218 N213 0.984 . S
H219 N213 0.985 . S
H220 N217 0.984 1_455 S
H221 N217 0.985 . S
H222 N216 0.984 . S
H223 N216 0.984 . S
H224 N212 0.984 . S
H225 N212 0.985 . S
C226 C227 1.363 . S
C226 C232 1.379 . S
C226 N234 1.356 . S
C227 C226 1.363 . S
C227 C233 1.363 1_556 S
C228 C229 1.363 1_554 S
C228 C233 1.379 . S
C228 N235 1.356 . S
C229 C228 1.363 1_556 S
C229 C232 1.363 . S
N230 C232 1.356 . S
N230 H242 0.984 . S
N230 H243 0.985 . S
N231 C233 1.356 . S
N231 H236 0.984 . S
N231 H237 0.985 . S
C232 C226 1.379 . S
C232 C229 1.363 . S
C232 N230 1.356 . S
C233 C227 1.363 1_554 S
C233 C228 1.379 . S
C233 N231 1.356 . S
N234 C226 1.356 . S
N234 H240 0.984 . S
N234 H241 0.984 . S
N235 C228 1.356 . S
N235 H238 0.984 . S
N235 H239 0.985 . S
H236 N231 0.984 . S
H237 N231 0.985 . S
H238 N235 0.984 . S
H239 N235 0.985 . S
H240 N234 0.984 . S
H241 N234 0.984 . S
H242 N230 0.984 . S
H243 N230 0.985 . S
C244 C245 1.363 . S
C244 C250 1.379 . S
C244 N252 1.356 . S
C245 C244 1.363 . S
C245 C251 1.363 . S
C246 C247 1.363 . S
C246 C251 1.379 . S
C246 N253 1.356 . S
C247 C246 1.363 . S
C247 C250 1.363 . S
N248 C250 1.356 . S
N248 H260 0.984 . S
N248 H261 0.985 . S
N249 C251 1.356 . S
N249 H254 0.984 . S
N249 H255 0.985 . S
C250 C244 1.379 . S
C250 C247 1.363 . S
C250 N248 1.356 . S
C251 C245 1.363 . S
C251 C246 1.379 . S
C251 N249 1.356 . S
N252 C244 1.356 . S
N252 H258 0.984 . S
N252 H259 0.984 . S
N253 C246 1.356 . S
N253 H256 0.984 . S
N253 H257 0.985 . S
H254 N249 0.984 . S
H255 N249 0.985 . S
H256 N253 0.984 . S
H257 N253 0.985 . S
H258 N252 0.984 . S
H259 N252 0.984 . S
H260 N248 0.984 . S
H261 N248 0.985 . S
C262 C263 1.363 . S
C262 C268 1.379 . S
C262 N270 1.356 . S
C263 C262 1.363 . S
C263 C269 1.363 . S
C264 C265 1.363 . S
C264 C269 1.379 . S
C264 N271 1.356 . S
C265 C264 1.363 . S
C265 C268 1.363 . S
N266 C268 1.356 . S
N266 H278 0.984 . S
N266 H279 0.985 . S
N267 C269 1.356 . S
N267 H272 0.984 . S
N267 H273 0.985 . S
C268 C262 1.379 . S
C268 C265 1.363 . S
C268 N266 1.356 . S
C269 C263 1.363 . S
C269 C264 1.379 . S
C269 N267 1.356 . S
N270 C262 1.356 . S
N270 H276 0.984 . S
N270 H277 0.984 . S
N271 C264 1.356 . S
N271 H274 0.984 . S
N271 H275 0.985 . S
H272 N267 0.984 . S
H273 N267 0.985 . S
H274 N271 0.984 . S
H275 N271 0.985 . S
H276 N270 0.984 . S
H277 N270 0.984 . S
H278 N266 0.984 . S
H279 N266 0.985 . S
C280 C281 1.363 . S
C280 C286 1.379 . S
C280 N288 1.356 . S
C281 C280 1.363 . S
C281 C287 1.363 . S
C282 C283 1.363 . S
C282 C287 1.379 . S
C282 N289 1.356 . S
C283 C282 1.363 . S
C283 C286 1.363 . S
N284 C286 1.356 . S
N284 H296 0.984 . S
N284 H297 0.985 . S
N285 C287 1.356 . S
N285 H290 0.984 . S
N285 H291 0.985 . S
C286 C280 1.379 . S
C286 C283 1.363 . S
C286 N284 1.356 . S
C287 C281 1.363 . S
C287 C282 1.379 . S
C287 N285 1.356 . S
N288 C280 1.356 . S
N288 H294 0.984 . S
N288 H295 0.984 . S
N289 C282 1.356 . S
N289 H292 0.984 . S
N289 H293 0.985 . S
H290 N285 0.984 . S
H291 N285 0.985 . S
H292 N289 0.984 . S
H293 N289 0.985 . S
H294 N288 0.984 . S
H295 N288 0.984 . S
H296 N284 0.984 . S
H297 N284 0.985 . S
C298 C299 1.363 . S
C298 C304 1.379 . S
C298 N306 1.356 . S
C299 C298 1.363 . S
C299 C305 1.363 . S
C300 C301 1.363 . S
C300 C305 1.379 . S
C300 N307 1.356 . S
C301 C300 1.363 . S
C301 C304 1.363 . S
N302 C304 1.356 . S
N302 H314 0.984 . S
N302 H315 0.985 . S
N303 C305 1.356 . S
N303 H308 0.984 . S
N303 H309 0.985 . S
C304 C298 1.379 . S
C304 C301 1.363 . S
C304 N302 1.356 . S
C305 C299 1.363 . S
C305 C300 1.379 . S
C305 N303 1.356 . S
N306 C298 1.356 . S
N306 H312 0.984 1_554 S
N306 H313 0.984 1_554 S
N307 C300 1.356 . S
N307 H310 0.984 . S
N307 H311 0.985 . S
H308 N303 0.984 . S
H309 N303 0.985 . S
H310 N307 0.984 . S
H311 N307 0.985 . S
H312 N306 0.984 1_556 S
H313 N306 0.984 1_556 S
H314 N302 0.984 . S
H315 N302 0.985 . S
C316 C317 1.363 . S
C316 C322 1.379 . S
C316 N324 1.356 . S
C317 C316 1.363 . S
C317 C323 1.363 . S
C318 C319 1.363 . S
C318 C323 1.379 . S
C318 N325 1.356 . S
C319 C318 1.363 . S
C319 C322 1.363 . S
N320 C322 1.356 . S
N320 H332 0.984 . S
N320 H333 0.985 . S
N321 C323 1.356 . S
N321 H326 0.984 . S
N321 H327 0.985 . S
C322 C316 1.379 . S
C322 C319 1.363 . S
C322 N320 1.356 . S
C323 C317 1.363 . S
C323 C318 1.379 . S
C323 N321 1.356 . S
N324 C316 1.356 . S
N324 H330 0.984 . S
N324 H331 0.984 . S
N325 C318 1.356 . S
N325 H328 0.984 . S
N325 H329 0.985 . S
H326 N321 0.984 . S
H327 N321 0.985 . S
H328 N325 0.984 . S
H329 N325 0.985 . S
H330 N324 0.984 . S
H331 N324 0.984 . S
H332 N320 0.984 . S
H333 N320 0.985 . S
C334 C335 1.363 . S
C334 C340 1.379 . S
C334 N342 1.356 . S
C335 C334 1.363 . S
C335 C341 1.363 . S
C336 C337 1.363 . S
C336 C341 1.379 . S
C336 N343 1.356 . S
C337 C336 1.363 . S
C337 C340 1.363 . S
N338 C340 1.356 . S
N338 H350 0.984 . S
N338 H351 0.985 . S
N339 C341 1.356 . S
N339 H344 0.984 . S
N339 H345 0.985 . S
C340 C334 1.379 . S
C340 C337 1.363 . S
C340 N338 1.356 . S
C341 C335 1.363 . S
C341 C336 1.379 . S
C341 N339 1.356 . S
N342 C334 1.356 . S
N342 H348 0.984 . S
N342 H349 0.984 . S
N343 C336 1.356 . S
N343 H346 0.984 . S
N343 H347 0.985 . S
H344 N339 0.984 . S
H345 N339 0.985 . S
H346 N343 0.984 . S
H347 N343 0.985 . S
H348 N342 0.984 . S
H349 N342 0.984 . S
H350 N338 0.984 . S
H351 N338 0.985 . S
C352 C353 1.363 . S
C352 C358 1.379 . S
C352 N360 1.356 . S
C353 C352 1.363 . S
C353 C359 1.363 . S
C354 C355 1.363 . S
C354 C359 1.379 . S
C354 N361 1.356 . S
C355 C354 1.363 . S
C355 C358 1.363 . S
N356 C358 1.356 . S
N356 H368 0.984 . S
N356 H369 0.985 . S
N357 C359 1.356 . S
N357 H362 0.984 . S
N357 H363 0.985 . S
C358 C352 1.379 . S
C358 C355 1.363 . S
C358 N356 1.356 . S
C359 C353 1.363 . S
C359 C354 1.379 . S
C359 N357 1.356 . S
N360 C352 1.356 . S
N360 H366 0.984 . S
N360 H367 0.984 . S
N361 C354 1.356 . S
N361 H364 0.984 . S
N361 H365 0.985 . S
H362 N357 0.984 . S
H363 N357 0.985 . S
H364 N361 0.984 . S
H365 N361 0.985 . S
H366 N360 0.984 . S
H367 N360 0.984 . S
H368 N356 0.984 . S
H369 N356 0.985 . S
C370 C371 1.363 . S
C370 C376 1.379 . S
C370 N378 1.356 . S
C371 C370 1.363 . S
C371 C377 1.363 . S
C372 C373 1.363 . S
C372 C377 1.379 . S
C372 N379 1.356 . S
C373 C372 1.363 . S
C373 C376 1.363 . S
N374 C376 1.356 . S
N374 H386 0.984 . S
N374 H387 0.985 . S
N375 C377 1.356 . S
N375 H380 0.984 . S
N375 H381 0.985 . S
C376 C370 1.379 . S
C376 C373 1.363 . S
C376 N374 1.356 . S
C377 C371 1.363 . S
C377 C372 1.379 . S
C377 N375 1.356 . S
N378 C370 1.356 . S
N378 H384 0.984 . S
N378 H385 0.984 . S
N379 C372 1.356 . S
N379 H382 0.984 . S
N379 H383 0.985 . S
H380 N375 0.984 . S
H381 N375 0.985 . S
H382 N379 0.984 . S
H383 N379 0.985 . S
H384 N378 0.984 . S
H385 N378 0.984 . S
H386 N374 0.984 . S
H387 N374 0.985 . S
C388 C389 1.363 . S
C388 C394 1.379 . S
C388 N396 1.356 . S
C389 C388 1.363 . S
C389 C395 1.363 . S
C390 C391 1.363 . S
C390 C395 1.379 . S
C390 N397 1.356 . S
C391 C390 1.363 . S
C391 C394 1.363 . S
N392 C394 1.356 . S
N392 H404 0.984 1_655 S
N392 H405 0.985 1_655 S
N393 C395 1.356 . S
N393 H398 0.984 . S
N393 H399 0.985 . S
C394 C388 1.379 . S
C394 C391 1.363 . S
C394 N392 1.356 . S
C395 C389 1.363 . S
C395 C390 1.379 . S
C395 N393 1.356 . S
N396 C388 1.356 . S
N396 H402 0.984 . S
N396 H403 0.984 . S
N397 C390 1.356 . S
N397 H400 0.984 . S
N397 H401 0.985 . S
H398 N393 0.984 . S
H399 N393 0.985 . S
H400 N397 0.984 . S
H401 N397 0.985 . S
H402 N396 0.984 . S
H403 N396 0.984 . S
H404 N392 0.984 1_455 S
H405 N392 0.985 1_455 S
C406 C407 1.363 . S
C406 C412 1.379 . S
C406 N414 1.356 . S
C407 C406 1.363 . S
C407 C413 1.363 . S
C408 C409 1.363 . S
C408 C413 1.379 . S
C408 N415 1.356 . S
C409 C408 1.363 . S
C409 C412 1.363 . S
N410 C412 1.356 . S
N410 H422 0.984 . S
N410 H423 0.985 . S
N411 C413 1.356 . S
N411 H416 0.984 . S
N411 H417 0.985 . S
C412 C406 1.379 . S
C412 C409 1.363 . S
C412 N410 1.356 . S
C413 C407 1.363 . S
C413 C408 1.379 . S
C413 N411 1.356 . S
N414 C406 1.356 . S
N414 H420 0.984 . S
N414 H421 0.984 . S
N415 C408 1.356 . S
N415 H418 0.984 . S
N415 H419 0.985 . S
H416 N411 0.984 . S
H417 N411 0.985 . S
H418 N415 0.984 . S
H419 N415 0.985 . S
H420 N414 0.984 . S
H421 N414 0.984 . S
H422 N410 0.984 . S
H423 N410 0.985 . S
C424 C425 1.363 . S
C424 C430 1.379 . S
C424 N432 1.356 . S
C425 C424 1.363 . S
C425 C431 1.363 . S
C426 C427 1.363 1_554 S
C426 C431 1.379 1_554 S
C426 N433 1.356 . S
C427 C426 1.363 1_556 S
C427 C430 1.363 . S
N428 C430 1.356 . S
N428 H440 0.984 . S
N428 H441 0.985 . S
N429 C431 1.356 1_554 S
N429 H434 0.984 . S
N429 H435 0.985 . S
C430 C424 1.379 . S
C430 C427 1.363 . S
C430 N428 1.356 . S
C431 C425 1.363 . S
C431 C426 1.379 1_556 S
C431 N429 1.356 1_556 S
N432 C424 1.356 . S
N432 H438 0.984 . S
N432 H439 0.984 . S
N433 C426 1.356 . S
N433 H436 0.984 . S
N433 H437 0.985 . S
H434 N429 0.984 . S
H435 N429 0.985 . S
H436 N433 0.984 . S
H437 N433 0.985 . S
H438 N432 0.984 . S
H439 N432 0.984 . S
H440 N428 0.984 . S
H441 N428 0.985 . S
C442 C443 1.363 . S
C442 C448 1.379 . S
C442 N450 1.356 . S
C443 C442 1.363 . S
C443 C449 1.363 . S
C444 C445 1.363 . S
C444 C449 1.379 . S
C444 N451 1.356 . S
C445 C444 1.363 . S
C445 C448 1.363 . S
N446 C448 1.356 . S
N446 H458 0.984 . S
N446 H459 0.985 . S
N447 C449 1.356 . S
N447 H452 0.984 . S
N447 H453 0.985 . S
C448 C442 1.379 . S
C448 C445 1.363 . S
C448 N446 1.356 . S
C449 C443 1.363 . S
C449 C444 1.379 . S
C449 N447 1.356 . S
N450 C442 1.356 . S
N450 H456 0.984 . S
N450 H457 0.984 . S
N451 C444 1.356 . S
N451 H454 0.984 . S
N451 H455 0.985 . S
H452 N447 0.984 . S
H453 N447 0.985 . S
H454 N451 0.984 . S
H455 N451 0.985 . S
H456 N450 0.984 . S
H457 N450 0.984 . S
H458 N446 0.984 . S
H459 N446 0.985 . S
C460 C461 1.363 . S
C460 C466 1.379 . S
C460 N468 1.356 . S
C461 C460 1.363 . S
C461 C467 1.363 . S
C462 C463 1.363 . S
C462 C467 1.379 . S
C462 N469 1.356 . S
C463 C462 1.363 . S
C463 C466 1.363 . S
N464 C466 1.356 . S
N464 H476 0.984 . S
N464 H477 0.985 . S
N465 C467 1.356 . S
N465 H470 0.984 . S
N465 H471 0.985 . S
C466 C460 1.379 . S
C466 C463 1.363 . S
C466 N464 1.356 . S
C467 C461 1.363 . S
C467 C462 1.379 . S
C467 N465 1.356 . S
N468 C460 1.356 . S
N468 H474 0.984 . S
N468 H475 0.984 . S
N469 C462 1.356 . S
N469 H472 0.984 . S
N469 H473 0.985 . S
H470 N465 0.984 . S
H471 N465 0.985 . S
H472 N469 0.984 . S
H473 N469 0.985 . S
H474 N468 0.984 . S
H475 N468 0.984 . S
H476 N464 0.984 . S
H477 N464 0.985 . S
C478 C479 1.363 . S
C478 C484 1.379 . S
C478 N486 1.356 . S
C479 C478 1.363 . S
C479 C485 1.363 . S
C480 C481 1.363 . S
C480 C485 1.379 . S
C480 N487 1.356 . S
C481 C480 1.363 . S
C481 C484 1.363 . S
N482 C484 1.356 . S
N482 H494 0.984 . S
N482 H495 0.985 . S
N483 C485 1.356 . S
N483 H488 0.984 . S
N483 H489 0.985 . S
C484 C478 1.379 . S
C484 C481 1.363 . S
C484 N482 1.356 . S
C485 C479 1.363 . S
C485 C480 1.379 . S
C485 N483 1.356 . S
N486 C478 1.356 . S
N486 H492 0.984 . S
N486 H493 0.984 . S
N487 C480 1.356 . S
N487 H490 0.984 . S
N487 H491 0.985 . S
H488 N483 0.984 . S
H489 N483 0.985 . S
H490 N487 0.984 . S
H491 N487 0.985 . S
H492 N486 0.984 . S
H493 N486 0.984 . S
H494 N482 0.984 . S
H495 N482 0.985 . S
C496 C497 1.363 . S
C496 C502 1.379 . S
C496 N504 1.356 . S
C497 C496 1.363 . S
C497 C503 1.363 . S
C498 C499 1.363 . S
C498 C503 1.379 . S
C498 N505 1.356 . S
C499 C498 1.363 . S
C499 C502 1.363 . S
N500 C502 1.356 . S
N500 H512 0.984 . S
N500 H513 0.985 . S
N501 C503 1.356 . S
N501 H506 0.984 . S
N501 H507 0.985 . S
C502 C496 1.379 . S
C502 C499 1.363 . S
C502 N500 1.356 . S
C503 C497 1.363 . S
C503 C498 1.379 . S
C503 N501 1.356 . S
N504 C496 1.356 . S
N504 H510 0.984 . S
N504 H511 0.984 . S
N505 C498 1.356 . S
N505 H508 0.984 . S
N505 H509 0.985 . S
H506 N501 0.984 . S
H507 N501 0.985 . S
H508 N505 0.984 . S
H509 N505 0.985 . S
H510 N504 0.984 . S
H511 N504 0.984 . S
H512 N500 0.984 . S
H513 N500 0.985 . S
C514 C515 1.363 . S
C514 C520 1.379 . S
C514 N522 1.356 . S
C515 C514 1.363 . S
C515 C521 1.363 . S
C516 C517 1.363 . S
C516 C521 1.379 . S
C516 N523 1.356 . S
C517 C516 1.363 . S
C517 C520 1.363 . S
N518 C520 1.356 . S
N518 H530 0.984 . S
N518 H531 0.985 . S
N519 C521 1.356 . S
N519 H524 0.984 . S
N519 H525 0.985 . S
C520 C514 1.379 . S
C520 C517 1.363 . S
C520 N518 1.356 . S
C521 C515 1.363 . S
C521 C516 1.379 . S
C521 N519 1.356 . S
N522 C514 1.356 . S
N522 H528 0.984 . S
N522 H529 0.984 . S
N523 C516 1.356 . S
N523 H526 0.984 . S
N523 H527 0.985 . S
H524 N519 0.984 . S
H525 N519 0.985 . S
H526 N523 0.984 . S
H527 N523 0.985 . S
H528 N522 0.984 . S
H529 N522 0.984 . S
H530 N518 0.984 . S
H531 N518 0.985 . S
C532 C533 1.363 . S
C532 C538 1.379 . S
C532 N540 1.356 . S
C533 C532 1.363 . S
C533 C539 1.363 . S
C534 C535 1.363 . S
C534 C539 1.379 . S
C534 N541 1.356 . S
C535 C534 1.363 . S
C535 C538 1.363 . S
N536 C538 1.356 . S
N536 H548 0.984 . S
N536 H549 0.985 . S
N537 C539 1.356 . S
N537 H542 0.984 . S
N537 H543 0.985 . S
C538 C532 1.379 . S
C538 C535 1.363 . S
C538 N536 1.356 . S
C539 C533 1.363 . S
C539 C534 1.379 . S
C539 N537 1.356 . S
N540 C532 1.356 . S
N540 H546 0.984 . S
N540 H547 0.984 . S
N541 C534 1.356 . S
N541 H544 0.984 . S
N541 H545 0.985 . S
H542 N537 0.984 . S
H543 N537 0.985 . S
H544 N541 0.984 . S
H545 N541 0.985 . S
H546 N540 0.984 . S
H547 N540 0.984 . S
H548 N536 0.984 . S
H549 N536 0.985 . S
C550 C551 1.363 . S
C550 C556 1.379 . S
C550 N558 1.356 . S
C551 C550 1.363 . S
C551 C557 1.363 . S
C552 C553 1.363 . S
C552 C557 1.379 . S
C552 N559 1.356 . S
C553 C552 1.363 . S
C553 C556 1.363 . S
N554 C556 1.356 . S
N554 H566 0.984 . S
N554 H567 0.985 . S
N555 C557 1.356 1_556 S
N555 H560 0.984 . S
N555 H561 0.985 . S
C556 C550 1.379 . S
C556 C553 1.363 . S
C556 N554 1.356 . S
C557 C551 1.363 . S
C557 C552 1.379 . S
C557 N555 1.356 1_554 S
N558 C550 1.356 . S
N558 H564 0.984 . S
N558 H565 0.984 . S
N559 C552 1.356 . S
N559 H562 0.984 . S
N559 H563 0.985 . S
H560 N555 0.984 . S
H561 N555 0.985 . S
H562 N559 0.984 . S
H563 N559 0.985 . S
H564 N558 0.984 . S
H565 N558 0.984 . S
H566 N554 0.984 . S
H567 N554 0.985 . S
C568 C569 1.363 . S
C568 C574 1.379 . S
C568 N576 1.356 . S
C569 C568 1.363 . S
C569 C575 1.363 . S
C570 C571 1.363 . S
C570 C575 1.379 . S
C570 N577 1.356 . S
C571 C570 1.363 . S
C571 C574 1.363 . S
N572 C574 1.356 . S
N572 H584 0.984 . S
N572 H585 0.985 . S
N573 C575 1.356 . S
N573 H578 0.984 . S
N573 H579 0.985 . S
C574 C568 1.379 . S
C574 C571 1.363 . S
C574 N572 1.356 . S
C575 C569 1.363 . S
C575 C570 1.379 . S
C575 N573 1.356 . S
N576 C568 1.356 . S
N576 H582 0.984 . S
N576 H583 0.984 . S
N577 C570 1.356 . S
N577 H580 0.984 . S
N577 H581 0.985 . S
H578 N573 0.984 . S
H579 N573 0.985 . S
H580 N577 0.984 . S
H581 N577 0.985 . S
H582 N576 0.984 . S
H583 N576 0.984 . S
H584 N572 0.984 . S
H585 N572 0.985 . S
C586 C587 1.363 . S
C586 C592 1.379 . S
C586 N594 1.356 . S
C587 C586 1.363 . S
C587 C593 1.363 . S
C588 C589 1.363 . S
C588 C593 1.379 . S
C588 N595 1.356 . S
C589 C588 1.363 . S
C589 C592 1.363 . S
N590 C592 1.356 . S
N590 H602 0.984 . S
N590 H603 0.985 . S
N591 C593 1.356 . S
N591 H596 0.984 . S
N591 H597 0.985 . S
C592 C586 1.379 . S
C592 C589 1.363 . S
C592 N590 1.356 . S
C593 C587 1.363 . S
C593 C588 1.379 . S
C593 N591 1.356 . S
N594 C586 1.356 . S
N594 H600 0.984 . S
N594 H601 0.984 . S
N595 C588 1.356 . S
N595 H598 0.984 . S
N595 H599 0.985 1_556 S
H596 N591 0.984 . S
H597 N591 0.985 . S
H598 N595 0.984 . S
H599 N595 0.985 1_554 S
H600 N594 0.984 . S
H601 N594 0.984 . S
H602 N590 0.984 . S
H603 N590 0.985 . S
C175 C100 1.517 . S
C173 C10 1.514 . S
C193 C103 1.678 . S
C191 C15 1.686 . S
C211 C101 1.436 . S
C209 C26 1.438 . S
C229 C102 1.502 . S
C227 C37 1.533 . S
C247 C117 1.704 . S
C245 C4 1.710 . S
C265 C131 1.658 . S
C263 C16 1.650 . S
C281 C27 1.585 . S
C283 C157 1.588 . S
C301 C171 1.422 . S
C299 C43 1.419 . S
C319 C116 1.639 . S
C317 C21 1.626 . S
C335 C32 1.481 . S
C337 C130 1.452 . S
C355 C156 1.584 . S
C353 C38 1.566 . S
C373 C170 1.573 . S
C371 C5 1.570 . S
C389 C49 1.725 . S
C391 C115 1.717 . S
C409 C88 1.585 . S
C407 C60 1.583 . S
C425 C76 1.552 . S
C427 C114 1.541 . S
C443 C81 1.523 . S
C445 C89 1.544 . S
C463 C144 1.506 . S
C461 C54 1.500 . S
C481 C158 1.590 . S
C479 C59 1.594 . S
C499 C128 1.586 . S
C497 C70 1.596 . S
C515 C87 1.615 . S
C517 C142 1.596 . S
C535 C145 1.556 . S
C533 C65 1.541 . S
C553 C159 1.599 . S
C551 C71 1.578 1_554 S
C571 C129 1.595 . S
C569 C82 1.602 . S
C587 C48 1.694 . S
C589 C143 1.678 . S
