# Generated by pormake.
# Topology the, (3,8)-cn, num edge types: 1
# Building blocks:
#     Node 0, Type 0, BuildingBlock: QEWDON_clean_linker_0, # of connection points: 3
#     Node 1, Type 0, BuildingBlock: QEWDON_clean_linker_0, # of connection points: 3
#     Node 2, Type 0, BuildingBlock: QEWDON_clean_linker_0, # of connection points: 3
#     Node 3, Type 0, BuildingBlock: QEWDON_clean_linker_0, # of connection points: 3
#     Node 4, Type 0, BuildingBlock: QEWDON_clean_linker_0, # of connection points: 3
#     Node 5, Type 0, BuildingBlock: QEWDON_clean_linker_0, # of connection points: 3
#     Node 6, Type 0, BuildingBlock: QEWDON_clean_linker_0, # of connection points: 3
#     Node 7, Type 0, BuildingBlock: QEWDON_clean_linker_0, # of connection points: 3
#     Node 8, Type 1, BuildingBlock: GIZVER_clean_sbu_0, # of connection points: 8
#     Node 9, Type 1, BuildingBlock: GIZVER_clean_sbu_0, # of connection points: 8
#     Node 10, Type 1, BuildingBlock: GIZVER_clean_sbu_0, # of connection points: 8
#     Edge 11, Type (0, 1), BuildingBlock: KIFKEQ_clean_linker_1, # of connection points: 2
#     Edge 12, Type (0, 1), BuildingBlock: KIFKEQ_clean_linker_1, # of connection points: 2
#     Edge 13, Type (0, 1), BuildingBlock: KIFKEQ_clean_linker_1, # of connection points: 2
#     Edge 14, Type (0, 1), BuildingBlock: KIFKEQ_clean_linker_1, # of connection points: 2
#     Edge 15, Type (0, 1), BuildingBlock: KIFKEQ_clean_linker_1, # of connection points: 2
#     Edge 16, Type (0, 1), BuildingBlock: KIFKEQ_clean_linker_1, # of connection points: 2
#     Edge 17, Type (0, 1), BuildingBlock: KIFKEQ_clean_linker_1, # of connection points: 2
#     Edge 18, Type (0, 1), BuildingBlock: KIFKEQ_clean_linker_1, # of connection points: 2
#     Edge 19, Type (0, 1), BuildingBlock: KIFKEQ_clean_linker_1, # of connection points: 2
#     Edge 20, Type (0, 1), BuildingBlock: KIFKEQ_clean_linker_1, # of connection points: 2
#     Edge 21, Type (0, 1), BuildingBlock: KIFKEQ_clean_linker_1, # of connection points: 2
#     Edge 22, Type (0, 1), BuildingBlock: KIFKEQ_clean_linker_1, # of connection points: 2
#     Edge 23, Type (0, 1), BuildingBlock: KIFKEQ_clean_linker_1, # of connection points: 2
#     Edge 24, Type (0, 1), BuildingBlock: KIFKEQ_clean_linker_1, # of connection points: 2
#     Edge 25, Type (0, 1), BuildingBlock: KIFKEQ_clean_linker_1, # of connection points: 2
#     Edge 26, Type (0, 1), BuildingBlock: KIFKEQ_clean_linker_1, # of connection points: 2
#     Edge 27, Type (0, 1), BuildingBlock: KIFKEQ_clean_linker_1, # of connection points: 2
#     Edge 28, Type (0, 1), BuildingBlock: KIFKEQ_clean_linker_1, # of connection points: 2
#     Edge 29, Type (0, 1), BuildingBlock: KIFKEQ_clean_linker_1, # of connection points: 2
#     Edge 30, Type (0, 1), BuildingBlock: KIFKEQ_clean_linker_1, # of connection points: 2
#     Edge 31, Type (0, 1), BuildingBlock: KIFKEQ_clean_linker_1, # of connection points: 2
#     Edge 32, Type (0, 1), BuildingBlock: KIFKEQ_clean_linker_1, # of connection points: 2
#     Edge 33, Type (0, 1), BuildingBlock: KIFKEQ_clean_linker_1, # of connection points: 2
#     Edge 34, Type (0, 1), BuildingBlock: KIFKEQ_clean_linker_1, # of connection points: 2
# Relax obj value: 0.102
# Max RMSD: 0.270
# Mean RMSD: 0.183
data_MOF--net-the--node1-GIZVER_clean_sbu_0--node2-QEWDON_clean_linker_0--edge1-KIFKEQ_clean_linker_1
_symmetry_space_group_name_H-M    P1
_symmetry_Int_Tables_number       1
_symmetry_cell_setting            triclinic
loop_
_symmetry_equiv_pos_as_xyz
'x, y, z'
_cell_length_a     42.160251
_cell_length_b     39.391131
_cell_length_c     37.888934
_cell_angle_alpha  87.252206
_cell_angle_beta   94.69843
_cell_angle_gamma 111.37578
loop_
_atom_site_label
_atom_site_type_symbol
_atom_site_fract_x
_atom_site_fract_y
_atom_site_fract_z
_atom_type_partial_charge
H0 H 0.35346 0.25195 0.42451 0.0
C1 C 0.36441 0.26831 0.40163 0.0
C2 C 0.39502 0.26792 0.38993 0.0
C3 C 0.34644 0.28787 0.38302 0.0
H4 H 0.43169 0.2888 0.35016 0.0
C5 C 0.40847 0.28935 0.36 0.0
C6 C 0.39116 0.31025 0.34167 0.0
C7 C 0.36012 0.30944 0.35354 0.0
C8 C 0.31084 0.28004 0.39104 0.0
H9 H 0.34551 0.32359 0.33852 0.0
C10 C 0.30133 0.30546 0.40801 0.0
C11 C 0.26776 0.2956 0.41839 0.0
C12 C 0.28657 0.24524 0.38365 0.0
H13 H 0.29362 0.22533 0.37071 0.0
C14 C 0.2532 0.23572 0.39321 0.0
H15 H 0.32017 0.33215 0.41415 0.0
C16 C 0.24383 0.26062 0.4106 0.0
H17 H 0.21768 0.25262 0.41768 0.0
H18 H 0.23461 0.20887 0.38736 0.0
H19 H 0.80703 0.36218 0.34813 0.0
C20 C 0.78943 0.33407 0.34836 0.0
C21 C 0.79767 0.30854 0.37032 0.0
C22 C 0.7579 0.32451 0.32877 0.0
H23 H 0.78054 0.25338 0.39031 0.0
C24 C 0.77474 0.27242 0.37169 0.0
C25 C 0.74305 0.26193 0.35173 0.0
C26 C 0.73511 0.28816 0.3298 0.0
C27 C 0.74746 0.35378 0.31153 0.0
H28 H 0.71046 0.28083 0.31514 0.0
C29 C 0.73208 0.35053 0.27681 0.0
C30 C 0.72339 0.37934 0.26089 0.0
C31 C 0.75309 0.38561 0.33041 0.0
H32 H 0.76415 0.38852 0.35745 0.0
C33 C 0.74418 0.4139 0.3149 0.0
H34 H 0.72771 0.32617 0.26201 0.0
C35 C 0.72951 0.4109 0.2804 0.0
H36 H 0.72234 0.43311 0.26919 0.0
H37 H 0.74851 0.43818 0.32974 0.0
H38 H 0.78675 0.68198 0.40946 0.0
C39 C 0.77604 0.67189 0.38338 0.0
C40 C 0.7926 0.6551 0.36303 0.0
C41 C 0.74433 0.67365 0.37157 0.0
H42 H 0.78882 0.62777 0.3136 0.0
C43 C 0.77739 0.642 0.32921 0.0
C44 C 0.74586 0.64452 0.31655 0.0
C45 C 0.7297 0.66054 0.3381 0.0
C46 C 0.7229 0.68023 0.39744 0.0
H47 H 0.70485 0.66147 0.32955 0.0
C48 C 0.72445 0.7155 0.40522 0.0
C49 C 0.70426 0.72004 0.4313 0.0
C50 C 0.70097 0.64983 0.41537 0.0
H51 H 0.69954 0.62258 0.40971 0.0
C52 C 0.68092 0.65423 0.44088 0.0
H53 H 0.7414 0.73905 0.39147 0.0
C54 C 0.68253 0.68898 0.44885 0.0
H55 H 0.66628 0.69152 0.4685 0.0
H56 H 0.66403 0.6306 0.45452 0.0
H57 H 0.3977 0.75218 0.29922 0.0
C58 C 0.37373 0.73599 0.31021 0.0
C59 C 0.36615 0.74464 0.34335 0.0
C60 C 0.3495 0.70777 0.29032 0.0
H61 H 0.32852 0.73112 0.38197 0.0
C62 C 0.33443 0.72423 0.35658 0.0
C63 C 0.31022 0.69539 0.33733 0.0
C64 C 0.31803 0.6875 0.30406 0.0
C65 C 0.35474 0.70226 0.2533 0.0
H66 H 0.29961 0.66568 0.28853 0.0
C67 C 0.37459 0.68212 0.24486 0.0
C68 C 0.37728 0.67536 0.20911 0.0
C69 C 0.33787 0.7159 0.22606 0.0
H70 H 0.32232 0.73122 0.23218 0.0
C71 C 0.34055 0.70953 0.19081 0.0
H72 H 0.3876 0.67166 0.26602 0.0
C73 C 0.35987 0.6893 0.18233 0.0
H74 H 0.36055 0.68397 0.15469 0.0
H75 H 0.32722 0.71992 0.16995 0.0
H76 H 0.43701 0.72726 0.75178 0.0
C77 C 0.41138 0.71797 0.73918 0.0
C78 C 0.39973 0.7427 0.71896 0.0
C79 C 0.39112 0.68073 0.74095 0.0
H80 H 0.35826 0.74769 0.68402 0.0
C81 C 0.36682 0.72968 0.7015 0.0
C82 C 0.34624 0.69261 0.70349 0.0
C83 C 0.35817 0.6687 0.72414 0.0
C84 C 0.4059 0.65344 0.75512 0.0
H85 H 0.34235 0.63999 0.72541 0.0
C86 C 0.42647 0.65865 0.78716 0.0
C87 C 0.44151 0.63311 0.79858 0.0
C88 C 0.40057 0.62233 0.73511 0.0
H89 H 0.38557 0.61792 0.70999 0.0
C90 C 0.41525 0.59697 0.7467 0.0
H91 H 0.43102 0.68245 0.80288 0.0
C92 C 0.43572 0.60234 0.77817 0.0
H93 H 0.44711 0.58243 0.78668 0.0
H94 H 0.41103 0.57326 0.73101 0.0
H95 H 0.37019 0.31528 0.75894 0.0
C96 C 0.38202 0.2998 0.74547 0.0
C97 C 0.41512 0.30113 0.75699 0.0
C98 C 0.36366 0.2778 0.71712 0.0
H99 H 0.45456 0.28004 0.74869 0.0
C100 C 0.42963 0.28009 0.73926 0.0
C101 C 0.41149 0.25785 0.71061 0.0
C102 C 0.3786 0.25735 0.69975 0.0
C103 C 0.32715 0.27182 0.7084 0.0
H104 H 0.3641 0.24068 0.67778 0.0
C105 C 0.31642 0.29838 0.6903 0.0
C106 C 0.28147 0.29018 0.67988 0.0
C107 C 0.30278 0.23772 0.71685 0.0
H108 H 0.31056 0.217 0.73067 0.0
C109 C 0.26827 0.22993 0.70743 0.0
H110 H 0.33518 0.32456 0.68326 0.0
C111 C 0.25766 0.2558 0.68897 0.0
H112 H 0.23066 0.24896 0.6819 0.0
H113 H 0.24967 0.20358 0.71417 0.0
H114 H 0.8618 0.33439 0.77231 0.0
C115 C 0.84305 0.31324 0.75635 0.0
C116 C 0.84851 0.30909 0.72099 0.0
C117 C 0.8129 0.29093 0.77121 0.0
H118 H 0.82762 0.27736 0.67401 0.0
C119 C 0.82325 0.2818 0.70089 0.0
C120 C 0.79244 0.25988 0.71517 0.0
C121 C 0.78754 0.26456 0.75062 0.0
C122 C 0.80813 0.29573 0.80841 0.0
H123 H 0.76391 0.24815 0.76213 0.0
C124 C 0.79022 0.31773 0.81697 0.0
C125 C 0.78836 0.32499 0.85257 0.0
C126 C 0.8236 0.28034 0.83549 0.0
H127 H 0.8377 0.26353 0.82919 0.0
C128 C 0.82131 0.28694 0.87087 0.0
H129 H 0.77881 0.33013 0.79595 0.0
C130 C 0.80399 0.30932 0.87943 0.0
H131 H 0.80266 0.31426 0.90706 0.0
H132 H 0.83328 0.275 0.89171 0.0
H133 H 0.83933 0.72077 0.64364 0.0
C134 C 0.8259 0.70335 0.66482 0.0
C135 C 0.82916 0.66936 0.67244 0.0
C136 C 0.80663 0.71604 0.68544 0.0
H137 H 0.81466 0.62202 0.70771 0.0
C138 C 0.81181 0.64779 0.70072 0.0
C139 C 0.7916 0.65996 0.72094 0.0
C140 C 0.78916 0.69413 0.71302 0.0
C141 C 0.81005 0.7546 0.68268 0.0
H142 H 0.77521 0.70466 0.72962 0.0
C143 C 0.78701 0.76614 0.66104 0.0
C144 C 0.79066 0.80325 0.65971 0.0
C145 C 0.83675 0.78001 0.70284 0.0
H146 H 0.85463 0.77141 0.71963 0.0
C147 C 0.84039 0.81659 0.70182 0.0
H148 H 0.76664 0.74637 0.64528 0.0
C149 C 0.81749 0.82815 0.68066 0.0
H150 H 0.82055 0.85663 0.68125 0.0
H151 H 0.86085 0.83602 0.71774 0.0
Co152 Co 0.13459 0.4831 0.54318 0.0
Co153 Co 0.09664 0.46555 0.48358 0.0
Co154 Co 0.06999 0.51571 0.52528 0.0
O155 O 0.08803 0.47538 0.52851 0.0
H156 H 0.07241 0.45341 0.53895 0.0
O157 O 0.05092 0.55556 0.5223 0.0
Co158 Co 1.00378 0.54483 0.50601 0.0
Co159 Co 0.03852 0.56366 0.56595 0.0
H160 H 0.06624 0.57791 0.51214 0.0
O161 O 0.0996 0.42131 0.47381 0.0
O162 O 0.14196 0.47141 0.49489 0.0
O163 O 0.09626 0.50007 0.44602 0.0
O164 O 0.09734 0.54175 0.48406 0.0
O165 O 0.03188 0.48486 0.4926 0.0
O166 O 0.9618 0.53864 0.48837 0.0
O167 O 1.00834 0.59037 0.48923 0.0
O168 O 0.99237 0.49525 0.5201 0.0
O169 O 0.04319 0.48951 0.56658 0.0
O170 O 0.039 0.52934 0.60383 0.0
O171 O 0.99294 0.55653 0.55316 0.0
O172 O 0.03403 0.60687 0.57594 0.0
C173 C 0.16086 0.45135 0.56553 0.0
C174 C 0.13969 0.55356 0.55106 0.0
C175 C 0.10306 0.53305 0.45376 0.0
C176 C 0.13167 0.43835 0.48313 0.0
C177 C 0.97613 0.57287 0.47969 0.0
C178 C 1.0012 0.47491 0.50114 0.0
C179 C 0.03571 0.49712 0.59646 0.0
C180 C 1.00205 0.58864 0.56712 0.0
O181 O 0.17679 0.4858 0.55836 0.0
O182 O 0.12791 0.43688 0.55813 0.0
O183 O 0.10867 0.54615 0.55786 0.0
O184 O 0.14733 0.53321 0.53081 0.0
Co185 Co 0.59219 0.93926 0.51706 0.0
Co186 Co 0.61579 0.97625 0.57543 0.0
Co187 Co 0.56442 0.00795 0.53591 0.0
O188 O 0.60175 0.98884 0.5305 0.0
H189 H 0.62092 0.00623 0.51906 0.0
O190 O 0.5274 0.02761 0.54119 0.0
Co191 Co 0.5376 0.07724 0.55574 0.0
Co192 Co 0.51471 0.04248 0.49699 0.0
H193 H 0.5079 0.01017 0.55199 0.0
O194 O 0.65787 0.97164 0.58384 0.0
O195 O 0.60788 0.92804 0.56579 0.0
O196 O 0.58836 0.97521 0.61414 0.0
O197 O 0.54451 0.97406 0.57693 0.0
O198 O 0.59596 0.045 0.56906 0.0
O199 O 0.54336 0.12137 0.57081 0.0
O200 O 0.49596 0.0708 0.57135 0.0
O201 O 0.58334 0.09052 0.54364 0.0
O202 O 0.58459 0.04174 0.49504 0.0
O203 O 0.54146 0.04268 0.45795 0.0
O204 O 0.5231 0.09079 0.50726 0.0
O205 O 0.47347 0.04769 0.48727 0.0
C206 C 0.61855 0.91073 0.49652 0.0
C207 C 0.52748 0.93646 0.50733 0.0
C208 C 0.55654 0.96738 0.60746 0.0
C209 C 0.64005 0.93783 0.57661 0.0
C210 C 0.51194 0.10519 0.579 0.0
C211 C 0.60293 0.07912 0.56419 0.0
C212 C 0.57299 0.04886 0.46451 0.0
C213 C 0.49175 0.08167 0.49352 0.0
O214 O 0.58686 0.89487 0.5039 0.0
O215 O 0.63389 0.94573 0.50154 0.0
O216 O 0.53299 0.97041 0.50265 0.0
O217 O 0.54683 0.92639 0.52952 0.0
Co218 Co 0.5335 0.50543 0.09532 0.0
Co219 Co 0.51481 0.4405 0.07077 0.0
Co220 Co 0.57818 0.49562 0.02757 0.0
O221 O 0.53416 0.48639 0.0499 0.0
H222 H 0.5175 0.49066 0.03298 0.0
O223 O 0.62225 0.50504 1.00584 0.0
Co224 Co 0.62295 0.4868 0.96066 0.0
Co225 Co 0.64301 0.55176 0.98685 0.0
H226 H 0.63849 0.50002 0.02274 0.0
O227 O 0.46903 0.41864 0.08193 0.0
O228 O 0.5128 0.45589 0.11592 0.0
O229 O 0.54365 0.41235 0.07524 0.0
O230 O 0.58988 0.45657 0.05621 0.0
O231 O 0.55108 0.45866 0.99035 0.0
O232 O 0.62781 0.46829 0.92008 0.0
O233 O 0.66322 0.48169 0.96953 0.0
O234 O 0.58031 0.48952 0.94636 0.0
O235 O 0.56679 0.53489 0.99868 0.0
O236 O 0.61422 0.58012 0.98327 0.0
O237 O 0.64393 0.5365 0.94136 0.0
O238 O 0.68917 0.57215 0.97413 0.0
C239 C 0.5011 0.52455 0.11833 0.0
C240 C 0.60341 0.52658 0.09773 0.0
C241 C 0.57539 0.4253 0.07083 0.0
C242 C 0.48148 0.43311 0.11247 0.0
C243 C 0.65554 0.46811 0.93791 0.0
C244 C 0.55387 0.4648 0.95708 0.0
C245 C 0.58209 0.56689 0.98572 0.0
C246 C 0.67592 0.55701 0.94409 0.0
O247 O 0.52906 0.52445 0.13558 0.0
O248 O 0.49271 0.51036 0.08691 0.0
O249 O 0.60554 0.53232 0.06443 0.0
O250 O 0.57658 0.50361 0.10972 0.0
H251 H 0.27846 0.36688 0.40074 0.0
H252 H 0.23227 0.28224 0.47754 0.0
H253 H 0.25044 0.40477 0.42413 0.0
H254 H 0.20447 0.32007 0.501 0.0
H255 H 0.1171 0.36572 0.47723 0.0
H256 H 0.1565 0.33491 0.46962 0.0
H257 H 0.24125 0.4378 0.47666 0.0
H258 H 0.2015 0.46896 0.48445 0.0
C259 C 0.26314 0.35686 0.42326 0.0
C260 C 0.25689 0.32139 0.43686 0.0
C261 C 0.24717 0.37854 0.4367 0.0
C262 C 0.22483 0.36503 0.46395 0.0
C263 C 0.22104 0.33083 0.47951 0.0
C264 C 0.23689 0.30921 0.46608 0.0
C265 C 0.14414 0.38182 0.47739 0.0
C266 C 0.15617 0.4198 0.48089 0.0
C267 C 0.16677 0.3641 0.47343 0.0
C268 C 0.20196 0.38398 0.47257 0.0
C269 C 0.21422 0.42189 0.47706 0.0
C270 C 0.19151 0.43965 0.48151 0.0
H271 H 0.75134 0.19588 0.3599 0.0
H272 H 0.67503 0.24528 0.35898 0.0
H273 H 0.70957 0.13792 0.3794 0.0
H274 H 0.63358 0.18772 0.378 0.0
H275 H 0.55894 0.07802 0.40058 0.0
H276 H 0.59941 0.12429 0.36485 0.0
H277 H 0.68287 0.11775 0.43546 0.0
H278 H 0.64265 0.07111 0.47078 0.0
C279 C 0.72557 0.19426 0.36335 0.0
C280 C 0.71663 0.22532 0.35798 0.0
C281 C 0.70167 0.16108 0.37449 0.0
C282 C 0.66827 0.15821 0.38037 0.0
C283 C 0.65889 0.18874 0.37317 0.0
C284 C 0.68275 0.22187 0.36218 0.0
C285 C 0.58597 0.0858 0.40805 0.0
C286 C 0.59748 0.07124 0.43893 0.0
C287 C 0.60915 0.11249 0.38764 0.0
C288 C 0.64432 0.12512 0.39759 0.0
C289 C 0.65598 0.10854 0.4269 0.0
C290 C 0.63284 0.08189 0.44732 0.0
H291 H 0.80883 0.64172 0.43312 0.0
H292 H 0.84702 0.65138 0.32901 0.0
H293 H 0.85805 0.62902 0.45863 0.0
H294 H 0.89516 0.63573 0.35494 0.0
H295 H 0.93391 0.54732 0.42167 0.0
H296 H 0.89366 0.57247 0.39116 0.0
H297 H 0.92859 0.66265 0.46279 0.0
H298 H 0.97001 0.63803 0.49265 0.0
C299 C 0.82787 0.64196 0.41554 0.0
C300 C 0.82369 0.64819 0.37872 0.0
C301 C 0.85608 0.63435 0.43037 0.0
C302 C 0.88051 0.6317 0.40883 0.0
C303 C 0.87666 0.63776 0.37214 0.0
C304 C 0.84882 0.64635 0.3573 0.0
C305 C 0.93351 0.57297 0.43036 0.0
C306 C 0.95517 0.59095 0.45926 0.0
C307 C 0.91059 0.58737 0.41284 0.0
C308 C 0.90814 0.61953 0.42453 0.0
C309 C 0.93018 0.63791 0.45316 0.0
C310 C 0.9539 0.62399 0.47009 0.0
H311 H 0.3534 0.79906 0.3743 0.0
H312 H 0.4342 0.75935 0.35976 0.0
H313 H 0.39225 0.84641 0.41313 0.0
H314 H 0.47328 0.80701 0.39847 0.0
H315 H 0.4834 0.94748 0.45448 0.0
H316 H 0.44525 0.9028 0.4126 0.0
H317 H 0.47758 0.81926 0.46346 0.0
H318 H 0.51539 0.8635 0.50532 0.0
C319 C 0.37957 0.80064 0.37927 0.0
C320 C 0.39074 0.77536 0.36422 0.0
C321 C 0.40185 0.8279 0.40129 0.0
C322 C 0.43575 0.8303 0.40904 0.0
C323 C 0.44717 0.80558 0.39328 0.0
C324 C 0.42495 0.77852 0.37091 0.0
C325 C 0.48222 0.91954 0.45685 0.0
C326 C 0.50262 0.90919 0.4832 0.0
C327 C 0.46037 0.89397 0.43286 0.0
C328 C 0.4587 0.85761 0.4345 0.0
C329 C 0.47876 0.8472 0.4611 0.0
C330 C 0.50028 0.87259 0.48526 0.0
H331 H 0.331 0.63605 0.65951 0.0
H332 H 0.29139 0.71514 0.69318 0.0
H333 H 0.28005 0.60921 0.6206 0.0
H334 H 0.23973 0.68812 0.65337 0.0
H335 H 0.20408 0.58711 0.5306 0.0
H336 H 0.25341 0.62709 0.56547 0.0
H337 H 0.18888 0.62639 0.64852 0.0
H338 H 0.13899 0.58652 0.61316 0.0
C339 C 0.31124 0.64763 0.65862 0.0
C340 C 0.31494 0.6774 0.67965 0.0
C341 C 0.28222 0.63253 0.63598 0.0
C342 C 0.25604 0.64677 0.6337 0.0
C343 C 0.25957 0.67664 0.65467 0.0
C344 C 0.28904 0.69212 0.67726 0.0
C345 C 0.20025 0.59595 0.55603 0.0
C346 C 0.1678 0.58309 0.5695 0.0
C347 C 0.22851 0.61882 0.576 0.0
C348 C 0.22507 0.62921 0.60999 0.0
C349 C 0.19225 0.61879 0.62238 0.0
C350 C 0.16375 0.59591 0.6022 0.0
H351 H 0.47846 0.27273 0.69631 0.0
H352 H 0.37797 0.18914 0.68371 0.0
H353 H 0.50169 0.23505 0.66574 0.0
H354 H 0.40063 0.15286 0.65076 0.0
H355 H 0.45642 0.0797 0.61953 0.0
H356 H 0.43269 0.11557 0.65261 0.0
H357 H 0.50528 0.21475 0.6102 0.0
H358 H 0.52975 0.17893 0.57879 0.0
C359 C 0.46123 0.24637 0.68706 0.0
C360 C 0.42617 0.2344 0.69242 0.0
C361 C 0.4745 0.22486 0.66889 0.0
C362 C 0.45312 0.1908 0.65517 0.0
C363 C 0.41815 0.17864 0.66101 0.0
C364 C 0.40497 0.19992 0.67953 0.0
C365 C 0.46712 0.10917 0.61721 0.0
C366 C 0.49512 0.12639 0.59671 0.0
C367 C 0.45346 0.12987 0.63612 0.0
C368 C 0.46714 0.16837 0.63458 0.0
C369 C 0.49452 0.18535 0.61307 0.0
C370 C 0.50842 0.16472 0.59468 0.0
H371 H 0.85397 0.33622 0.65288 0.0
H372 H 0.91399 0.33952 0.75187 0.0
H373 H 0.90438 0.37805 0.62615 0.0
H374 H 0.96408 0.38331 0.72516 0.0
H375 H 0.01912 0.50007 0.66458 0.0
H376 H 0.97718 0.45143 0.69731 0.0
H377 H 0.96492 0.37715 0.61278 0.0
H378 H 1.00694 0.42511 0.58027 0.0
C379 C 0.87791 0.34535 0.6689 0.0
C380 C 0.87976 0.33412 0.70459 0.0
C381 C 0.90675 0.36953 0.65355 0.0
C382 C 0.93802 0.38365 0.67362 0.0
C383 C 0.94014 0.37277 0.70925 0.0
C384 C 0.91137 0.34792 0.7245 0.0
C385 C 1.00814 0.47312 0.65341 0.0
C386 C 0.01617 0.46662 0.61967 0.0
C387 C 0.98424 0.44533 0.67217 0.0
C388 C 0.9677 0.41082 0.65727 0.0
C389 C 0.97722 0.40368 0.62464 0.0
C390 C 1.00142 0.43118 0.60616 0.0
H391 H 0.80534 0.86751 0.62231 0.0
H392 H 0.72103 0.76908 0.64656 0.0
H393 H 0.76605 0.89451 0.59594 0.0
H394 H 0.68127 0.79486 0.61672 0.0
H395 H 0.62228 0.87426 0.61487 0.0
H396 H 0.65639 0.83607 0.62734 0.0
H397 H 0.72846 0.90166 0.55326 0.0
H398 H 0.69603 0.9417 0.54421 0.0
C399 C 0.77831 0.85132 0.62151 0.0
C400 C 0.76642 0.8165 0.63761 0.0
C401 C 0.75554 0.86661 0.60557 0.0
C402 C 0.72005 0.84721 0.60429 0.0
C403 C 0.70827 0.81115 0.61792 0.0
C404 C 0.73116 0.79607 0.63462 0.0
C405 C 0.64535 0.88011 0.60121 0.0
C406 C 0.65709 0.91115 0.57926 0.0
C407 C 0.66484 0.85805 0.60801 0.0
C408 C 0.69595 0.86609 0.59207 0.0
C409 C 0.70564 0.89537 0.56739 0.0
C410 C 0.68693 0.9182 0.56184 0.0
H411 H 0.36176 0.19881 0.41478 0.0
H412 H 0.46329 0.27813 0.40344 0.0
H413 H 0.38562 0.15671 0.44351 0.0
H414 H 0.48749 0.23423 0.43009 0.0
H415 H 0.51823 0.1551 0.5073 0.0
H416 H 0.49584 0.20166 0.48408 0.0
H417 H 0.41307 0.11874 0.42677 0.0
H418 H 0.43437 0.07263 0.45091 0.0
C419 C 0.38928 0.2075 0.41861 0.0
C420 C 0.41055 0.24223 0.40708 0.0
C421 C 0.40302 0.18292 0.43462 0.0
C422 C 0.43852 0.1918 0.43885 0.0
C423 C 0.46001 0.22658 0.42752 0.0
C424 C 0.44615 0.25156 0.41181 0.0
C425 C 0.49506 0.14691 0.49001 0.0
C426 C 0.47795 0.1101 0.48118 0.0
C427 C 0.4824 0.17361 0.47647 0.0
C428 C 0.45253 0.16401 0.45365 0.0
C429 C 0.43566 0.12717 0.44489 0.0
C430 C 0.44801 0.10061 0.45867 0.0
H431 H 0.85809 0.29683 0.37248 0.0
H432 H 0.804 0.35168 0.42502 0.0
H433 H 0.91019 0.32872 0.40986 0.0
H434 H 0.85533 0.38391 0.46151 0.0
H435 H 0.94446 0.43221 0.53299 0.0
H436 H 0.89644 0.38178 0.50721 0.0
H437 H 0.95026 0.39129 0.4127 0.0
H438 H 0.99899 0.44074 0.43939 0.0
C439 C 0.85729 0.31508 0.3926 0.0
C440 C 0.82736 0.32199 0.39612 0.0
C441 C 0.88702 0.33352 0.41374 0.0
C442 C 0.88701 0.35893 0.4387 0.0
C443 C 0.8563 0.36412 0.44315 0.0
C444 C 0.82688 0.34587 0.42211 0.0
C445 C 0.94623 0.42301 0.50697 0.0
C446 C 0.97504 0.44079 0.48781 0.0
C447 C 0.91872 0.39418 0.49215 0.0
C448 C 0.91912 0.38303 0.45753 0.0
C449 C 0.94909 0.39904 0.43946 0.0
C450 C 0.97695 0.42754 0.45462 0.0
H451 H 0.70992 0.74755 0.49699 0.0
H452 H 0.69766 0.77416 0.38612 0.0
H453 H 0.69577 0.7994 0.51285 0.0
H454 H 0.68374 0.8266 0.40217 0.0
H455 H 0.67517 0.92987 0.45723 0.0
H456 H 0.70464 0.88963 0.44084 0.0
H457 H 0.63417 0.80052 0.49836 0.0
H458 H 0.60464 0.83979 0.51379 0.0
C459 C 0.705 0.76504 0.47601 0.0
C460 C 0.70429 0.75642 0.44029 0.0
C461 C 0.69696 0.79472 0.48511 0.0
C462 C 0.6882 0.81665 0.45872 0.0
C463 C 0.69052 0.81016 0.42301 0.0
C464 C 0.69849 0.7802 0.41384 0.0
C465 C 0.66608 0.90165 0.46619 0.0
C466 C 0.63734 0.88783 0.48636 0.0
C467 C 0.68287 0.87872 0.45685 0.0
C468 C 0.67174 0.84206 0.46851 0.0
C469 C 0.64349 0.82871 0.48923 0.0
C470 C 0.62637 0.85117 0.49778 0.0
H471 H 0.24672 0.66843 0.3017 0.0
H472 H 0.29777 0.67361 0.40617 0.0
H473 H 0.19223 0.63279 0.32615 0.0
H474 H 0.24332 0.6393 0.43046 0.0
H475 H 0.13955 0.60416 0.47023 0.0
H476 H 0.1871 0.64651 0.43936 0.0
H477 H 0.16665 0.56955 0.35539 0.0
H478 H 0.11895 0.52691 0.38618 0.0
C479 C 0.24643 0.66197 0.3298 0.0
C480 C 0.27677 0.674 0.35194 0.0
C481 C 0.21516 0.6418 0.34378 0.0
C482 C 0.21351 0.63369 0.38023 0.0
C483 C 0.24371 0.64585 0.40236 0.0
C484 C 0.27494 0.66556 0.38839 0.0
C485 C 0.14447 0.59656 0.44471 0.0
C486 C 0.12564 0.56187 0.43091 0.0
C487 C 0.17194 0.62076 0.4272 0.0
C488 C 0.1809 0.61102 0.39533 0.0
C489 C 0.16031 0.57774 0.37994 0.0
C490 C 0.13301 0.55332 0.39763 0.0
H491 H 0.38536 0.80564 0.71223 0.0
H492 H 0.46779 0.76565 0.70792 0.0
H493 H 0.42281 0.86591 0.69233 0.0
H494 H 0.50498 0.82557 0.68909 0.0
H495 H 0.4866 0.93951 0.60055 0.0
H496 H 0.4487 0.88956 0.635 0.0
H497 H 0.5344 0.88995 0.70589 0.0
H498 H 0.57248 0.93964 0.67132 0.0
C499 C 0.41151 0.80974 0.70753 0.0
C500 C 0.42345 0.78064 0.71174 0.0
C501 C 0.43295 0.84428 0.69622 0.0
C502 C 0.46687 0.85054 0.68922 0.0
C503 C 0.47919 0.8219 0.69491 0.0
C504 C 0.45776 0.78741 0.70585 0.0
C505 C 0.49731 0.92959 0.62396 0.0
C506 C 0.53274 0.94322 0.63274 0.0
C507 C 0.4755 0.90101 0.64382 0.0
C508 C 0.48865 0.88543 0.67284 0.0
C509 C 0.52362 0.90098 0.68328 0.0
C510 C 0.54542 0.92962 0.66352 0.0
H511 H 0.23843 0.27707 0.62031 0.0
H512 H 0.29587 0.3625 0.69291 0.0
H513 H 0.2115 0.3169 0.59065 0.0
H514 H 0.26838 0.40247 0.66361 0.0
H515 H 0.22916 0.47359 0.58569 0.0
H516 H 0.26134 0.43646 0.61023 0.0
H517 H 0.16902 0.34071 0.60403 0.0
H518 H 0.13704 0.37768 0.57887 0.0
C519 C 0.24539 0.30451 0.62984 0.0
C520 C 0.26899 0.31652 0.65921 0.0
C521 C 0.22979 0.32729 0.61296 0.0
C522 C 0.2372 0.36272 0.62509 0.0
C523 C 0.26211 0.3754 0.65343 0.0
C524 C 0.27791 0.35256 0.67025 0.0
C525 C 0.21571 0.44459 0.58953 0.0
C526 C 0.1804 0.42867 0.58051 0.0
C527 C 0.23419 0.42332 0.60377 0.0
C528 C 0.21788 0.38553 0.6092 0.0
C529 C 0.18261 0.36962 0.59982 0.0
C530 C 0.16413 0.39089 0.58566 0.0
H531 H 0.75108 0.19038 0.73321 0.0
H532 H 0.77211 0.26844 0.64603 0.0
H533 H 0.70594 0.14679 0.6961 0.0
H534 H 0.72822 0.2244 0.60856 0.0
H535 H 0.62126 0.15317 0.56542 0.0
H536 H 0.66712 0.19622 0.60183 0.0
H537 H 0.69721 0.10821 0.64547 0.0
H538 H 0.65071 0.06489 0.60963 0.0
C539 C 0.74611 0.19822 0.70614 0.0
C540 C 0.76524 0.23289 0.69261 0.0
C541 C 0.72053 0.17308 0.68473 0.0
C542 C 0.71348 0.18206 0.64931 0.0
C543 C 0.7327 0.2167 0.63581 0.0
C544 C 0.75818 0.24181 0.6572 0.0
C545 C 0.63774 0.14297 0.58262 0.0
C546 C 0.63224 0.10554 0.58464 0.0
C547 C 0.66417 0.16772 0.60342 0.0
C548 C 0.68584 0.15569 0.62665 0.0
C549 C 0.68067 0.11832 0.62826 0.0
C550 C 0.65416 0.09352 0.60751 0.0
H551 H 0.89068 0.71255 0.64777 0.0
H552 H 0.82163 0.60026 0.6525 0.0
H553 H 0.9298 0.69451 0.61687 0.0
H554 H 0.86237 0.58179 0.62388 0.0
H555 H 0.93293 0.56156 0.5495 0.0
H556 H 0.88972 0.58184 0.57091 0.0
H557 H 0.96892 0.66576 0.631 0.0
H558 H 1.01175 0.64659 0.60865 0.0
C559 C 0.88358 0.68398 0.642 0.0
C560 C 0.85273 0.65793 0.65267 0.0
C561 C 0.90644 0.67352 0.62471 0.0
C562 C 0.89958 0.6366 0.61815 0.0
C563 C 0.86846 0.61052 0.62818 0.0
C564 C 0.84529 0.62107 0.64513 0.0
C565 C 0.94105 0.58462 0.56696 0.0
C566 C 0.97581 0.60239 0.5774 0.0
C567 C 0.91626 0.59608 0.57945 0.0
C568 C 0.9257 0.62541 0.60283 0.0
C569 C 0.96058 0.64353 0.61257 0.0
C570 C 0.98526 0.63235 0.59985 0.0
H571 H 0.41179 0.28472 0.28551 0.0
H572 H 0.39771 0.38012 0.32193 0.0
H573 H 0.43001 0.31617 0.22939 0.0
H574 H 0.41597 0.41169 0.26559 0.0
H575 H 0.49459 0.46346 0.1779 0.0
H576 H 0.47078 0.43494 0.23319 0.0
H577 H 0.40377 0.34051 0.17595 0.0
H578 H 0.4274 0.36908 0.12049 0.0
C579 C 0.41287 0.31253 0.28161 0.0
C580 C 0.40356 0.33006 0.30819 0.0
C581 C 0.42288 0.33037 0.24932 0.0
C582 C 0.42417 0.3663 0.24301 0.0
C583 C 0.41525 0.38403 0.26974 0.0
C584 C 0.40476 0.36597 0.30189 0.0
C585 C 0.47434 0.4369 0.17698 0.0
C586 C 0.46303 0.41847 0.14478 0.0
C587 C 0.46067 0.42061 0.20868 0.0
C588 C 0.43572 0.38532 0.20894 0.0
C589 C 0.42332 0.36755 0.17658 0.0
C590 C 0.43664 0.38406 0.14478 0.0
H591 H 0.5092 0.64687 0.80378 0.0
H592 H 0.42338 0.62769 0.86661 0.0
H593 H 0.54373 0.64018 0.8565 0.0
H594 H 0.45799 0.621 0.92001 0.0
H595 H 0.51233 0.54443 0.97697 0.0
H596 H 0.47912 0.57123 0.9373 0.0
H597 H 0.57109 0.66179 0.91487 0.0
H598 H 0.60455 0.63479 0.95412 0.0
C599 C 0.4982 0.64244 0.82924 0.0
C600 C 0.46386 0.63787 0.8314 0.0
C601 C 0.51793 0.63871 0.85949 0.0
C602 C 0.50356 0.62989 0.89248 0.0
C603 C 0.46968 0.62756 0.89493 0.0
C604 C 0.44999 0.63167 0.86456 0.0
C605 C 0.52546 0.57049 0.96427 0.0
C606 C 0.56125 0.58699 0.96815 0.0
C607 C 0.50632 0.58601 0.94167 0.0
C608 C 0.52255 0.61838 0.92252 0.0
C609 C 0.55795 0.63649 0.92879 0.0
C610 C 0.5771 0.621 0.95137 0.0
H611 H 0.48295 0.34425 0.76437 0.0
H612 H 0.39064 0.30948 0.81999 0.0
H613 H 0.51397 0.38228 0.81407 0.0
H614 H 0.42161 0.3484 0.8695 0.0
H615 H 0.5022 0.39741 0.96553 0.0
H616 H 0.46748 0.35666 0.91833 0.0
H617 H 0.51566 0.43836 0.83983 0.0
H618 H 0.55002 0.47843 0.88623 0.0
C619 C 0.46926 0.34457 0.78725 0.0
C620 C 0.4342 0.32388 0.78793 0.0
C621 C 0.48699 0.36669 0.81569 0.0
C622 C 0.47026 0.36874 0.84578 0.0
C623 C 0.43536 0.34744 0.84687 0.0
C624 C 0.41753 0.32543 0.81827 0.0
C625 C 0.50499 0.40675 0.93821 0.0
C626 C 0.52921 0.44111 0.92981 0.0
C627 C 0.48514 0.38341 0.91113 0.0
C628 C 0.48922 0.39393 0.87515 0.0
C629 C 0.5124 0.42888 0.86708 0.0
C630 C 0.532 0.45203 0.89389 0.0
H631 H 0.72461 0.32254 0.82902 0.0
H632 H 0.81273 0.38262 0.89682 0.0
H633 H 0.69438 0.36036 0.84745 0.0
H634 H 0.7833 0.42148 0.91427 0.0
H635 H 0.70613 0.4497 0.97282 0.0
H636 H 0.73929 0.4177 0.94996 0.0
H637 H 0.68949 0.41849 0.84566 0.0
H638 H 0.65515 0.44936 0.86912 0.0
C639 C 0.73764 0.34426 0.84746 0.0
C640 C 0.7708 0.34943 0.86184 0.0
C641 C 0.72045 0.36611 0.8579 0.0
C642 C 0.73626 0.39391 0.88261 0.0
C643 C 0.76997 0.39982 0.89588 0.0
C644 C 0.78693 0.37766 0.88583 0.0
C645 C 0.70245 0.44336 0.94493 0.0
C646 C 0.67786 0.45184 0.92284 0.0
C647 C 0.72166 0.42514 0.9317 0.0
C648 C 0.71712 0.41535 0.89589 0.0
C649 C 0.69326 0.42497 0.8735 0.0
C650 C 0.67371 0.44287 0.88688 0.0
H651 H 0.72558 0.64208 0.73655 0.0
H652 H 0.82031 0.6309 0.776 0.0
H653 H 0.69932 0.61289 0.7906 0.0
H654 H 0.79398 0.60155 0.83039 0.0
H655 H 0.7426 0.60259 0.93758 0.0
H656 H 0.77157 0.62276 0.88267 0.0
H657 H 0.68204 0.55247 0.82287 0.0
H658 H 0.65313 0.53243 0.87726 0.0
C659 C 0.74063 0.63295 0.75667 0.0
C660 C 0.77491 0.63865 0.75209 0.0
C661 C 0.72559 0.6161 0.78754 0.0
C662 C 0.74462 0.60495 0.81475 0.0
C663 C 0.77878 0.61004 0.80993 0.0
C664 C 0.79372 0.62649 0.77874 0.0
C665 C 0.7293 0.59109 0.91277 0.0
C666 C 0.6954 0.56624 0.91184 0.0
C667 C 0.74593 0.60252 0.88135 0.0
C668 C 0.7289 0.58947 0.84844 0.0
C669 C 0.69563 0.5634 0.84776 0.0
C670 C 0.67913 0.55184 0.87904 0.0
H671 H 0.67846 0.60278 0.3042 0.0
H672 H 0.77259 0.64692 0.25183 0.0
H673 H 0.64777 0.57796 0.24871 0.0
H674 H 0.7415 0.62163 0.1956 0.0
H675 H 0.67042 0.53328 0.11216 0.0
H676 H 0.7079 0.56311 0.16386 0.0
H677 H 0.63053 0.60205 0.19348 0.0
H678 H 0.59348 0.57194 0.14273 0.0
C679 C 0.69262 0.60755 0.28071 0.0
C680 C 0.72795 0.6276 0.28245 0.0
C681 C 0.67496 0.59325 0.24877 0.0
C682 C 0.69197 0.59841 0.2174 0.0
C683 C 0.72757 0.61723 0.21922 0.0
C684 C 0.74538 0.6317 0.25142 0.0
C685 C 0.66199 0.54903 0.12937 0.0
C686 C 0.62909 0.5503 0.12363 0.0
C687 C 0.68332 0.56599 0.159 0.0
C688 C 0.67196 0.58438 0.18329 0.0
C689 C 0.63982 0.58736 0.17595 0.0
C690 C 0.61863 0.57036 0.1467 0.0
H691 H 0.38293 0.61387 0.24266 0.0
H692 H 0.41687 0.68637 0.15278 0.0
H693 H 0.41155 0.57489 0.2226 0.0
H694 H 0.44412 0.64681 0.13234 0.0
H695 H 0.4518 0.54631 0.08444 0.0
H696 H 0.42195 0.58177 0.10864 0.0
H697 H 0.47278 0.57825 0.2116 0.0
H698 H 0.50293 0.54296 0.18741 0.0
C699 C 0.39673 0.62176 0.21891 0.0
C700 C 0.39715 0.65311 0.19913 0.0
C701 C 0.41292 0.59928 0.20732 0.0
C702 C 0.4295 0.60748 0.17556 0.0
C703 C 0.43083 0.63934 0.15647 0.0
C704 C 0.41513 0.66198 0.16822 0.0
C705 C 0.45629 0.55265 0.11233 0.0
C706 C 0.47991 0.54204 0.13393 0.0
C707 C 0.43938 0.57317 0.12613 0.0
C708 C 0.44532 0.58308 0.16192 0.0
C709 C 0.46768 0.57097 0.18395 0.0
C710 C 0.485 0.55089 0.17003 0.0
H711 H 0.73869 0.43156 0.20879 0.0
H712 H 0.67092 0.32165 0.23086 0.0
H713 H 0.70429 0.43345 0.1549 0.0
H714 H 0.63709 0.32263 0.17551 0.0
H715 H 0.64188 0.43677 0.05961 0.0
H716 H 0.681 0.41581 0.0973 0.0
H717 H 0.59774 0.35191 0.16024 0.0
H718 H 0.55862 0.37148 0.12178 0.0
C719 C 0.71681 0.40742 0.20158 0.0
C720 C 0.70697 0.37682 0.22448 0.0
C721 C 0.69726 0.40826 0.17031 0.0
C722 C 0.66749 0.37834 0.16094 0.0
C723 C 0.65945 0.34643 0.18227 0.0
C724 C 0.679 0.3457 0.21381 0.0
C725 C 0.63181 0.41746 0.08094 0.0
C726 C 0.59728 0.40641 0.08816 0.0
C727 C 0.65427 0.40556 0.10267 0.0
C728 C 0.64278 0.38286 0.13242 0.0
C729 C 0.60763 0.36921 0.13757 0.0
C730 C 0.58511 0.38068 0.11555 0.0
loop_
_geom_bond_atom_site_label_1
_geom_bond_atom_site_label_2
_geom_bond_distance
_geom_bond_site_symmetry_2
_ccdc_geom_bond_type
H0 C1 0.949 . S
C1 H0 0.949 . S
C1 C2 1.395 . S
C1 C3 1.391 . S
C2 C1 1.395 . S
C2 C5 1.390 . S
C3 C1 1.391 . S
C3 C7 1.387 . S
C3 C8 1.491 . S
H4 C5 0.950 . S
C5 C2 1.390 . S
C5 H4 0.950 . S
C5 C6 1.378 . S
C6 C5 1.378 . S
C6 C7 1.409 . S
C7 C3 1.387 . S
C7 C6 1.409 . S
C7 H9 0.951 . S
C8 C3 1.491 . S
C8 C10 1.382 . S
C8 C12 1.404 . S
H9 C7 0.951 . S
C10 C8 1.382 . S
C10 C11 1.390 . S
C10 H15 0.949 . S
C11 C10 1.390 . S
C11 C16 1.399 . S
C12 C8 1.404 . S
C12 H13 0.950 . S
C12 C14 1.375 . S
H13 C12 0.950 . S
C14 C12 1.375 . S
C14 C16 1.382 . S
C14 H18 0.950 . S
H15 C10 0.949 . S
C16 C11 1.399 . S
C16 C14 1.382 . S
C16 H17 0.952 . S
H17 C16 0.952 . S
H18 C14 0.950 . S
H19 C20 0.949 . S
C20 H19 0.949 . S
C20 C21 1.395 . S
C20 C22 1.391 . S
C21 C20 1.395 . S
C21 C24 1.390 . S
C22 C20 1.391 . S
C22 C26 1.387 . S
C22 C27 1.491 . S
H23 C24 0.950 . S
C24 C21 1.390 . S
C24 H23 0.950 . S
C24 C25 1.378 . S
C25 C24 1.378 . S
C25 C26 1.409 . S
C26 C22 1.387 . S
C26 C25 1.409 . S
C26 H28 0.951 . S
C27 C22 1.491 . S
C27 C29 1.382 . S
C27 C31 1.404 . S
H28 C26 0.951 . S
C29 C27 1.382 . S
C29 C30 1.390 . S
C29 H34 0.949 . S
C30 C29 1.390 . S
C30 C35 1.399 . S
C31 C27 1.404 . S
C31 H32 0.950 . S
C31 C33 1.375 . S
H32 C31 0.950 . S
C33 C31 1.375 . S
C33 C35 1.382 . S
C33 H37 0.950 . S
H34 C29 0.949 . S
C35 C30 1.399 . S
C35 C33 1.382 . S
C35 H36 0.952 . S
H36 C35 0.952 . S
H37 C33 0.950 . S
H38 C39 0.949 . S
C39 H38 0.949 . S
C39 C40 1.395 . S
C39 C41 1.391 . S
C40 C39 1.395 . S
C40 C43 1.390 . S
C41 C39 1.391 . S
C41 C45 1.387 . S
C41 C46 1.491 . S
H42 C43 0.950 . S
C43 C40 1.390 . S
C43 H42 0.950 . S
C43 C44 1.378 . S
C44 C43 1.378 . S
C44 C45 1.409 . S
C45 C41 1.387 . S
C45 C44 1.409 . S
C45 H47 0.951 . S
C46 C41 1.491 . S
C46 C48 1.382 . S
C46 C50 1.404 . S
H47 C45 0.951 . S
C48 C46 1.382 . S
C48 C49 1.390 . S
C48 H53 0.949 . S
C49 C48 1.390 . S
C49 C54 1.399 . S
C50 C46 1.404 . S
C50 H51 0.950 . S
C50 C52 1.375 . S
H51 C50 0.950 . S
C52 C50 1.375 . S
C52 C54 1.382 . S
C52 H56 0.950 . S
H53 C48 0.949 . S
C54 C49 1.399 . S
C54 C52 1.382 . S
C54 H55 0.952 . S
H55 C54 0.952 . S
H56 C52 0.950 . S
H57 C58 0.949 . S
C58 H57 0.949 . S
C58 C59 1.395 . S
C58 C60 1.391 . S
C59 C58 1.395 . S
C59 C62 1.390 . S
C60 C58 1.391 . S
C60 C64 1.387 . S
C60 C65 1.491 . S
H61 C62 0.950 . S
C62 C59 1.390 . S
C62 H61 0.950 . S
C62 C63 1.378 . S
C63 C62 1.378 . S
C63 C64 1.409 . S
C64 C60 1.387 . S
C64 C63 1.409 . S
C64 H66 0.951 . S
C65 C60 1.491 . S
C65 C67 1.382 . S
C65 C69 1.404 . S
H66 C64 0.951 . S
C67 C65 1.382 . S
C67 C68 1.390 . S
C67 H72 0.949 . S
C68 C67 1.390 . S
C68 C73 1.399 . S
C69 C65 1.404 . S
C69 H70 0.950 . S
C69 C71 1.375 . S
H70 C69 0.950 . S
C71 C69 1.375 . S
C71 C73 1.382 . S
C71 H75 0.950 . S
H72 C67 0.949 . S
C73 C68 1.399 . S
C73 C71 1.382 . S
C73 H74 0.952 . S
H74 C73 0.952 . S
H75 C71 0.950 . S
H76 C77 0.949 . S
C77 H76 0.949 . S
C77 C78 1.395 . S
C77 C79 1.391 . S
C78 C77 1.395 . S
C78 C81 1.390 . S
C79 C77 1.391 . S
C79 C83 1.387 . S
C79 C84 1.491 . S
H80 C81 0.950 . S
C81 C78 1.390 . S
C81 H80 0.950 . S
C81 C82 1.378 . S
C82 C81 1.378 . S
C82 C83 1.409 . S
C83 C79 1.387 . S
C83 C82 1.409 . S
C83 H85 0.951 . S
C84 C79 1.491 . S
C84 C86 1.382 . S
C84 C88 1.404 . S
H85 C83 0.951 . S
C86 C84 1.382 . S
C86 C87 1.390 . S
C86 H91 0.949 . S
C87 C86 1.390 . S
C87 C92 1.399 . S
C88 C84 1.404 . S
C88 H89 0.950 . S
C88 C90 1.375 . S
H89 C88 0.950 . S
C90 C88 1.375 . S
C90 C92 1.382 . S
C90 H94 0.950 . S
H91 C86 0.949 . S
C92 C87 1.399 . S
C92 C90 1.382 . S
C92 H93 0.952 . S
H93 C92 0.952 . S
H94 C90 0.950 . S
H95 C96 0.949 . S
C96 H95 0.949 . S
C96 C97 1.395 . S
C96 C98 1.391 . S
C97 C96 1.395 . S
C97 C100 1.390 . S
C98 C96 1.391 . S
C98 C102 1.387 . S
C98 C103 1.491 . S
H99 C100 0.950 . S
C100 C97 1.390 . S
C100 H99 0.950 . S
C100 C101 1.378 . S
C101 C100 1.378 . S
C101 C102 1.409 . S
C102 C98 1.387 . S
C102 C101 1.409 . S
C102 H104 0.951 . S
C103 C98 1.491 . S
C103 C105 1.382 . S
C103 C107 1.404 . S
H104 C102 0.951 . S
C105 C103 1.382 . S
C105 C106 1.390 . S
C105 H110 0.949 . S
C106 C105 1.390 . S
C106 C111 1.399 . S
C107 C103 1.404 . S
C107 H108 0.950 . S
C107 C109 1.375 . S
H108 C107 0.950 . S
C109 C107 1.375 . S
C109 C111 1.382 . S
C109 H113 0.950 . S
H110 C105 0.949 . S
C111 C106 1.399 . S
C111 C109 1.382 . S
C111 H112 0.952 . S
H112 C111 0.952 . S
H113 C109 0.950 . S
H114 C115 0.949 . S
C115 H114 0.949 . S
C115 C116 1.395 . S
C115 C117 1.391 . S
C116 C115 1.395 . S
C116 C119 1.390 . S
C117 C115 1.391 . S
C117 C121 1.387 . S
C117 C122 1.491 . S
H118 C119 0.950 . S
C119 C116 1.390 . S
C119 H118 0.950 . S
C119 C120 1.378 . S
C120 C119 1.378 . S
C120 C121 1.409 . S
C121 C117 1.387 . S
C121 C120 1.409 . S
C121 H123 0.951 . S
C122 C117 1.491 . S
C122 C124 1.382 . S
C122 C126 1.404 . S
H123 C121 0.951 . S
C124 C122 1.382 . S
C124 C125 1.390 . S
C124 H129 0.949 . S
C125 C124 1.390 . S
C125 C130 1.399 . S
C126 C122 1.404 . S
C126 H127 0.950 . S
C126 C128 1.375 . S
H127 C126 0.950 . S
C128 C126 1.375 . S
C128 C130 1.382 . S
C128 H132 0.950 . S
H129 C124 0.949 . S
C130 C125 1.399 . S
C130 C128 1.382 . S
C130 H131 0.952 . S
H131 C130 0.952 . S
H132 C128 0.950 . S
H133 C134 0.949 . S
C134 H133 0.949 . S
C134 C135 1.395 . S
C134 C136 1.391 . S
C135 C134 1.395 . S
C135 C138 1.390 . S
C136 C134 1.391 . S
C136 C140 1.387 . S
C136 C141 1.491 . S
H137 C138 0.950 . S
C138 C135 1.390 . S
C138 H137 0.950 . S
C138 C139 1.378 . S
C139 C138 1.378 . S
C139 C140 1.409 . S
C140 C136 1.387 . S
C140 C139 1.409 . S
C140 H142 0.951 . S
C141 C136 1.491 . S
C141 C143 1.382 . S
C141 C145 1.404 . S
H142 C140 0.951 . S
C143 C141 1.382 . S
C143 C144 1.390 . S
C143 H148 0.949 . S
C144 C143 1.390 . S
C144 C149 1.399 . S
C145 C141 1.404 . S
C145 H146 0.950 . S
C145 C147 1.375 . S
H146 C145 0.950 . S
C147 C145 1.375 . S
C147 C149 1.382 . S
C147 H151 0.950 . S
H148 C143 0.949 . S
C149 C144 1.399 . S
C149 C147 1.382 . S
C149 H150 0.952 . S
H150 C149 0.952 . S
H151 C147 0.950 . S
Co152 O155 2.042 . S
Co152 O162 2.264 . S
Co152 O181 2.286 . S
Co152 O182 2.069 . S
Co152 O184 2.015 . S
Co153 O155 2.122 . S
Co153 O161 2.073 . S
Co153 O162 2.327 . S
Co153 O163 1.976 . S
Co154 O155 2.087 . S
Co154 O157 2.087 . S
Co154 O164 2.111 . S
Co154 O165 2.143 1_455 S
Co154 O169 2.111 . S
Co154 O183 2.143 . S
O155 Co152 2.042 . S
O155 Co153 2.122 . S
O155 Co154 2.087 . S
O155 H156 0.980 . S
H156 O155 0.980 . S
O157 Co154 2.087 . S
O157 Co158 2.042 1_455 S
O157 Co159 2.122 1_455 S
O157 H160 0.980 . S
Co158 O157 2.042 1_655 S
Co158 O166 2.286 . S
Co158 O167 2.069 . S
Co158 O168 2.015 . S
Co158 O171 2.264 . S
Co159 O157 2.122 1_655 S
Co159 O170 1.976 . S
Co159 O171 2.327 . S
Co159 O172 2.074 1_655 S
H160 O157 0.980 . S
O161 Co153 2.073 . S
O161 C176 1.245 . S
O162 Co152 2.264 . S
O162 Co153 2.327 . S
O162 C176 1.257 . S
O163 Co153 1.976 . S
O163 C175 1.251 . S
O164 Co154 2.111 . S
O164 C175 1.274 . S
O165 Co154 2.143 1_655 S
O165 C178 1.246 . S
O166 Co158 2.286 . S
O166 C177 1.259 . S
O167 Co158 2.069 . S
O167 C177 1.289 . S
O168 Co158 2.015 . S
O168 C178 1.257 . S
O169 Co154 2.111 . S
O169 C179 1.274 1_455 S
O170 Co159 1.976 . S
O170 C179 1.251 . S
O171 Co158 2.264 . S
O171 Co159 2.327 . S
O171 C180 1.257 . S
O172 Co159 2.074 1_455 S
O172 C180 1.242 1_455 S
C173 O181 1.259 . S
C173 O182 1.289 . S
C174 O183 1.246 . S
C174 O184 1.257 . S
C175 O163 1.251 . S
C175 O164 1.274 . S
C176 O161 1.245 . S
C176 O162 1.257 . S
C177 O166 1.259 . S
C177 O167 1.289 . S
C178 O165 1.246 . S
C178 O168 1.257 . S
C179 O169 1.274 1_655 S
C179 O170 1.251 . S
C180 O171 1.257 . S
C180 O172 1.242 1_655 S
O181 Co152 2.286 . S
O181 C173 1.259 . S
O182 Co152 2.069 . S
O182 C173 1.289 . S
O183 Co154 2.143 . S
O183 C174 1.246 . S
O184 Co152 2.015 . S
O184 C174 1.257 . S
Co185 O188 2.042 . S
Co185 O195 2.264 . S
Co185 O214 2.286 . S
Co185 O215 2.069 . S
Co185 O217 2.015 . S
Co186 O188 2.122 . S
Co186 O194 2.073 . S
Co186 O195 2.327 . S
Co186 O196 1.976 . S
Co187 O188 2.087 1_545 S
Co187 O190 2.087 . S
Co187 O197 2.111 1_545 S
Co187 O198 2.143 . S
Co187 O202 2.111 . S
Co187 O216 2.143 1_545 S
O188 Co185 2.042 . S
O188 Co186 2.122 . S
O188 Co187 2.087 1_565 S
O188 H189 0.980 1_565 S
H189 O188 0.980 1_545 S
O190 Co187 2.087 . S
O190 Co191 2.042 . S
O190 Co192 2.122 . S
O190 H193 0.980 . S
Co191 O190 2.042 . S
Co191 O199 2.286 . S
Co191 O200 2.069 . S
Co191 O201 2.015 . S
Co191 O204 2.264 . S
Co192 O190 2.122 . S
Co192 O203 1.976 . S
Co192 O204 2.327 . S
Co192 O205 2.073 . S
H193 O190 0.980 . S
O194 Co186 2.073 . S
O194 C209 1.245 . S
O195 Co185 2.264 . S
O195 Co186 2.327 . S
O195 C209 1.257 . S
O196 Co186 1.976 . S
O196 C208 1.251 . S
O197 Co187 2.111 1_565 S
O197 C208 1.274 . S
O198 Co187 2.143 . S
O198 C211 1.246 . S
O199 Co191 2.286 . S
O199 C210 1.259 . S
O200 Co191 2.069 . S
O200 C210 1.289 . S
O201 Co191 2.015 . S
O201 C211 1.257 . S
O202 Co187 2.111 . S
O202 C212 1.274 . S
O203 Co192 1.976 . S
O203 C212 1.251 . S
O204 Co191 2.264 . S
O204 Co192 2.327 . S
O204 C213 1.257 . S
O205 Co192 2.073 . S
O205 C213 1.245 . S
C206 O214 1.259 . S
C206 O215 1.289 . S
C207 O216 1.246 . S
C207 O217 1.257 . S
C208 O196 1.251 . S
C208 O197 1.274 . S
C209 O194 1.245 . S
C209 O195 1.257 . S
C210 O199 1.259 . S
C210 O200 1.289 . S
C211 O198 1.246 . S
C211 O201 1.257 . S
C212 O202 1.274 . S
C212 O203 1.251 . S
C213 O204 1.257 . S
C213 O205 1.245 . S
O214 Co185 2.286 . S
O214 C206 1.259 . S
O215 Co185 2.069 . S
O215 C206 1.289 . S
O216 Co187 2.143 1_565 S
O216 C207 1.246 . S
O217 Co185 2.015 . S
O217 C207 1.257 . S
Co218 O221 2.042 . S
Co218 O228 2.264 . S
Co218 O247 2.286 . S
Co218 O248 2.069 . S
Co218 O250 2.015 . S
Co219 O221 2.122 . S
Co219 O227 2.073 . S
Co219 O228 2.327 . S
Co219 O229 1.976 . S
Co220 O221 2.087 . S
Co220 O223 2.087 1_554 S
Co220 O230 2.111 . S
Co220 O231 2.143 1_554 S
Co220 O235 2.111 1_554 S
Co220 O249 2.143 . S
O221 Co218 2.042 . S
O221 Co219 2.122 . S
O221 Co220 2.087 . S
O221 H222 0.980 . S
H222 O221 0.980 . S
O223 Co220 2.087 1_556 S
O223 Co224 2.042 . S
O223 Co225 2.122 . S
O223 H226 0.980 . S
Co224 O223 2.042 . S
Co224 O232 2.286 . S
Co224 O233 2.069 . S
Co224 O234 2.015 . S
Co224 O237 2.264 . S
Co225 O223 2.122 . S
Co225 O236 1.976 . S
Co225 O237 2.327 . S
Co225 O238 2.073 . S
H226 O223 0.980 . S
O227 Co219 2.073 . S
O227 C242 1.245 . S
O228 Co218 2.264 . S
O228 Co219 2.327 . S
O228 C242 1.257 . S
O229 Co219 1.976 . S
O229 C241 1.251 . S
O230 Co220 2.111 . S
O230 C241 1.274 . S
O231 Co220 2.143 1_556 S
O231 C244 1.246 . S
O232 Co224 2.286 . S
O232 C243 1.259 . S
O233 Co224 2.069 . S
O233 C243 1.289 . S
O234 Co224 2.015 . S
O234 C244 1.257 . S
O235 Co220 2.111 1_556 S
O235 C245 1.274 . S
O236 Co225 1.976 . S
O236 C245 1.251 . S
O237 Co224 2.264 . S
O237 Co225 2.327 . S
O237 C246 1.257 . S
O238 Co225 2.073 . S
O238 C246 1.245 . S
C239 O247 1.259 . S
C239 O248 1.289 . S
C240 O249 1.246 . S
C240 O250 1.257 . S
C241 O229 1.251 . S
C241 O230 1.274 . S
C242 O227 1.245 . S
C242 O228 1.257 . S
C243 O232 1.259 . S
C243 O233 1.289 . S
C244 O231 1.246 . S
C244 O234 1.257 . S
C245 O235 1.274 . S
C245 O236 1.251 . S
C246 O237 1.257 . S
C246 O238 1.245 . S
O247 Co218 2.286 . S
O247 C239 1.259 . S
O248 Co218 2.069 . S
O248 C239 1.289 . S
O249 Co220 2.143 . S
O249 C240 1.246 . S
O250 Co218 2.015 . S
O250 C240 1.257 . S
H251 C259 0.950 . S
H252 C264 0.950 . S
H253 C261 0.950 . S
H254 C263 0.950 . S
H255 C265 0.950 . S
H256 C267 0.950 . S
H257 C269 0.950 . S
H258 C270 0.950 . S
C259 H251 0.950 . S
C259 C260 1.386 . S
C259 C261 1.391 . S
C260 C259 1.386 . S
C260 C264 1.393 . S
C261 H253 0.950 . S
C261 C259 1.391 . S
C261 C262 1.400 . S
C262 C261 1.400 . S
C262 C263 1.398 . S
C262 C268 1.491 . S
C263 H254 0.950 . S
C263 C262 1.398 . S
C263 C264 1.391 . S
C264 H252 0.950 . S
C264 C260 1.393 . S
C264 C263 1.391 . S
C265 H255 0.950 . S
C265 C266 1.386 . S
C265 C267 1.391 . S
C266 C265 1.386 . S
C266 C270 1.393 . S
C267 H256 0.950 . S
C267 C265 1.391 . S
C267 C268 1.400 . S
C268 C262 1.491 . S
C268 C267 1.400 . S
C268 C269 1.398 . S
C269 H257 0.950 . S
C269 C268 1.398 . S
C269 C270 1.391 . S
C270 H258 0.950 . S
C270 C266 1.393 . S
C270 C269 1.391 . S
H271 C279 0.950 . S
H272 C284 0.950 . S
H273 C281 0.950 . S
H274 C283 0.950 . S
H275 C285 0.950 . S
H276 C287 0.950 . S
H277 C289 0.950 . S
H278 C290 0.950 . S
C279 H271 0.950 . S
C279 C280 1.386 . S
C279 C281 1.391 . S
C280 C279 1.386 . S
C280 C284 1.393 . S
C281 H273 0.950 . S
C281 C279 1.391 . S
C281 C282 1.400 . S
C282 C281 1.400 . S
C282 C283 1.398 . S
C282 C288 1.491 . S
C283 H274 0.950 . S
C283 C282 1.398 . S
C283 C284 1.391 . S
C284 H272 0.950 . S
C284 C280 1.393 . S
C284 C283 1.391 . S
C285 H275 0.950 . S
C285 C286 1.386 . S
C285 C287 1.391 . S
C286 C285 1.386 . S
C286 C290 1.393 . S
C287 H276 0.950 . S
C287 C285 1.391 . S
C287 C288 1.400 . S
C288 C282 1.491 . S
C288 C287 1.400 . S
C288 C289 1.398 . S
C289 H277 0.950 . S
C289 C288 1.398 . S
C289 C290 1.391 . S
C290 H278 0.950 . S
C290 C286 1.393 . S
C290 C289 1.391 . S
H291 C299 0.950 . S
H292 C304 0.950 . S
H293 C301 0.950 . S
H294 C303 0.950 . S
H295 C305 0.950 . S
H296 C307 0.950 . S
H297 C309 0.950 . S
H298 C310 0.950 . S
C299 H291 0.950 . S
C299 C300 1.386 . S
C299 C301 1.391 . S
C300 C299 1.386 . S
C300 C304 1.393 . S
C301 H293 0.950 . S
C301 C299 1.391 . S
C301 C302 1.400 . S
C302 C301 1.400 . S
C302 C303 1.398 . S
C302 C308 1.491 . S
C303 H294 0.950 . S
C303 C302 1.398 . S
C303 C304 1.391 . S
C304 H292 0.950 . S
C304 C300 1.393 . S
C304 C303 1.391 . S
C305 H295 0.950 . S
C305 C306 1.386 . S
C305 C307 1.391 . S
C306 C305 1.386 . S
C306 C310 1.393 . S
C307 H296 0.950 . S
C307 C305 1.391 . S
C307 C308 1.400 . S
C308 C302 1.491 . S
C308 C307 1.400 . S
C308 C309 1.398 . S
C309 H297 0.950 . S
C309 C308 1.398 . S
C309 C310 1.391 . S
C310 H298 0.950 . S
C310 C306 1.393 . S
C310 C309 1.391 . S
H311 C319 0.950 . S
H312 C324 0.950 . S
H313 C321 0.950 . S
H314 C323 0.950 . S
H315 C325 0.950 . S
H316 C327 0.950 . S
H317 C329 0.950 . S
H318 C330 0.950 . S
C319 H311 0.950 . S
C319 C320 1.386 . S
C319 C321 1.391 . S
C320 C319 1.386 . S
C320 C324 1.393 . S
C321 H313 0.950 . S
C321 C319 1.391 . S
C321 C322 1.400 . S
C322 C321 1.400 . S
C322 C323 1.398 . S
C322 C328 1.491 . S
C323 H314 0.950 . S
C323 C322 1.398 . S
C323 C324 1.391 . S
C324 H312 0.950 . S
C324 C320 1.393 . S
C324 C323 1.391 . S
C325 H315 0.950 . S
C325 C326 1.386 . S
C325 C327 1.391 . S
C326 C325 1.386 . S
C326 C330 1.393 . S
C327 H316 0.950 . S
C327 C325 1.391 . S
C327 C328 1.400 . S
C328 C322 1.491 . S
C328 C327 1.400 . S
C328 C329 1.398 . S
C329 H317 0.950 . S
C329 C328 1.398 . S
C329 C330 1.391 . S
C330 H318 0.950 . S
C330 C326 1.393 . S
C330 C329 1.391 . S
H331 C339 0.950 . S
H332 C344 0.950 . S
H333 C341 0.950 . S
H334 C343 0.950 . S
H335 C345 0.950 . S
H336 C347 0.950 . S
H337 C349 0.950 . S
H338 C350 0.950 . S
C339 H331 0.950 . S
C339 C340 1.386 . S
C339 C341 1.391 . S
C340 C339 1.386 . S
C340 C344 1.393 . S
C341 H333 0.950 . S
C341 C339 1.391 . S
C341 C342 1.400 . S
C342 C341 1.400 . S
C342 C343 1.398 . S
C342 C348 1.491 . S
C343 H334 0.950 . S
C343 C342 1.398 . S
C343 C344 1.391 . S
C344 H332 0.950 . S
C344 C340 1.393 . S
C344 C343 1.391 . S
C345 H335 0.950 . S
C345 C346 1.386 . S
C345 C347 1.391 . S
C346 C345 1.386 . S
C346 C350 1.393 . S
C347 H336 0.950 . S
C347 C345 1.391 . S
C347 C348 1.400 . S
C348 C342 1.491 . S
C348 C347 1.400 . S
C348 C349 1.398 . S
C349 H337 0.950 . S
C349 C348 1.398 . S
C349 C350 1.391 . S
C350 H338 0.950 . S
C350 C346 1.393 . S
C350 C349 1.391 . S
H351 C359 0.950 . S
H352 C364 0.950 . S
H353 C361 0.950 . S
H354 C363 0.950 . S
H355 C365 0.950 . S
H356 C367 0.950 . S
H357 C369 0.950 . S
H358 C370 0.950 . S
C359 H351 0.950 . S
C359 C360 1.386 . S
C359 C361 1.391 . S
C360 C359 1.386 . S
C360 C364 1.393 . S
C361 H353 0.950 . S
C361 C359 1.391 . S
C361 C362 1.400 . S
C362 C361 1.400 . S
C362 C363 1.398 . S
C362 C368 1.491 . S
C363 H354 0.950 . S
C363 C362 1.398 . S
C363 C364 1.391 . S
C364 H352 0.950 . S
C364 C360 1.393 . S
C364 C363 1.391 . S
C365 H355 0.950 . S
C365 C366 1.386 . S
C365 C367 1.391 . S
C366 C365 1.386 . S
C366 C370 1.393 . S
C367 H356 0.950 . S
C367 C365 1.391 . S
C367 C368 1.400 . S
C368 C362 1.491 . S
C368 C367 1.400 . S
C368 C369 1.398 . S
C369 H357 0.950 . S
C369 C368 1.398 . S
C369 C370 1.391 . S
C370 H358 0.950 . S
C370 C366 1.393 . S
C370 C369 1.391 . S
H371 C379 0.950 . S
H372 C384 0.950 . S
H373 C381 0.950 . S
H374 C383 0.950 . S
H375 C385 0.950 . S
H376 C387 0.950 . S
H377 C389 0.950 . S
H378 C390 0.950 . S
C379 H371 0.950 . S
C379 C380 1.386 . S
C379 C381 1.391 . S
C380 C379 1.386 . S
C380 C384 1.393 . S
C381 H373 0.950 . S
C381 C379 1.391 . S
C381 C382 1.400 . S
C382 C381 1.400 . S
C382 C383 1.398 . S
C382 C388 1.491 . S
C383 H374 0.950 . S
C383 C382 1.398 . S
C383 C384 1.391 . S
C384 H372 0.950 . S
C384 C380 1.393 . S
C384 C383 1.391 . S
C385 H375 0.950 . S
C385 C386 1.386 . S
C385 C387 1.391 . S
C386 C385 1.386 . S
C386 C390 1.393 . S
C387 H376 0.950 . S
C387 C385 1.391 . S
C387 C388 1.400 . S
C388 C382 1.491 . S
C388 C387 1.400 . S
C388 C389 1.398 . S
C389 H377 0.950 . S
C389 C388 1.398 . S
C389 C390 1.391 . S
C390 H378 0.950 . S
C390 C386 1.393 . S
C390 C389 1.391 . S
H391 C399 0.950 . S
H392 C404 0.950 . S
H393 C401 0.950 . S
H394 C403 0.950 . S
H395 C405 0.950 . S
H396 C407 0.950 . S
H397 C409 0.950 . S
H398 C410 0.950 . S
C399 H391 0.950 . S
C399 C400 1.386 . S
C399 C401 1.391 . S
C400 C399 1.386 . S
C400 C404 1.393 . S
C401 H393 0.950 . S
C401 C399 1.391 . S
C401 C402 1.400 . S
C402 C401 1.400 . S
C402 C403 1.398 . S
C402 C408 1.491 . S
C403 H394 0.950 . S
C403 C402 1.398 . S
C403 C404 1.391 . S
C404 H392 0.950 . S
C404 C400 1.393 . S
C404 C403 1.391 . S
C405 H395 0.950 . S
C405 C406 1.386 . S
C405 C407 1.391 . S
C406 C405 1.386 . S
C406 C410 1.393 . S
C407 H396 0.950 . S
C407 C405 1.391 . S
C407 C408 1.400 . S
C408 C402 1.491 . S
C408 C407 1.400 . S
C408 C409 1.398 . S
C409 H397 0.950 . S
C409 C408 1.398 . S
C409 C410 1.391 . S
C410 H398 0.950 . S
C410 C406 1.393 . S
C410 C409 1.391 . S
H411 C419 0.950 . S
H412 C424 0.950 . S
H413 C421 0.950 . S
H414 C423 0.950 . S
H415 C425 0.950 . S
H416 C427 0.950 . S
H417 C429 0.950 . S
H418 C430 0.950 . S
C419 H411 0.950 . S
C419 C420 1.386 . S
C419 C421 1.391 . S
C420 C419 1.386 . S
C420 C424 1.393 . S
C421 H413 0.950 . S
C421 C419 1.391 . S
C421 C422 1.400 . S
C422 C421 1.400 . S
C422 C423 1.398 . S
C422 C428 1.491 . S
C423 H414 0.950 . S
C423 C422 1.398 . S
C423 C424 1.391 . S
C424 H412 0.950 . S
C424 C420 1.393 . S
C424 C423 1.391 . S
C425 H415 0.950 . S
C425 C426 1.386 . S
C425 C427 1.391 . S
C426 C425 1.386 . S
C426 C430 1.393 . S
C427 H416 0.950 . S
C427 C425 1.391 . S
C427 C428 1.400 . S
C428 C422 1.491 . S
C428 C427 1.400 . S
C428 C429 1.398 . S
C429 H417 0.950 . S
C429 C428 1.398 . S
C429 C430 1.391 . S
C430 H418 0.950 . S
C430 C426 1.393 . S
C430 C429 1.391 . S
H431 C439 0.950 . S
H432 C444 0.950 . S
H433 C441 0.950 . S
H434 C443 0.950 . S
H435 C445 0.950 . S
H436 C447 0.950 . S
H437 C449 0.950 . S
H438 C450 0.950 . S
C439 H431 0.950 . S
C439 C440 1.386 . S
C439 C441 1.391 . S
C440 C439 1.386 . S
C440 C444 1.393 . S
C441 H433 0.950 . S
C441 C439 1.391 . S
C441 C442 1.400 . S
C442 C441 1.400 . S
C442 C443 1.398 . S
C442 C448 1.491 . S
C443 H434 0.950 . S
C443 C442 1.398 . S
C443 C444 1.391 . S
C444 H432 0.950 . S
C444 C440 1.393 . S
C444 C443 1.391 . S
C445 H435 0.950 . S
C445 C446 1.386 . S
C445 C447 1.391 . S
C446 C445 1.386 . S
C446 C450 1.393 . S
C447 H436 0.950 . S
C447 C445 1.391 . S
C447 C448 1.400 . S
C448 C442 1.491 . S
C448 C447 1.400 . S
C448 C449 1.398 . S
C449 H437 0.950 . S
C449 C448 1.398 . S
C449 C450 1.391 . S
C450 H438 0.950 . S
C450 C446 1.393 . S
C450 C449 1.391 . S
H451 C459 0.950 . S
H452 C464 0.950 . S
H453 C461 0.950 . S
H454 C463 0.950 . S
H455 C465 0.950 . S
H456 C467 0.950 . S
H457 C469 0.950 . S
H458 C470 0.950 . S
C459 H451 0.950 . S
C459 C460 1.386 . S
C459 C461 1.391 . S
C460 C459 1.386 . S
C460 C464 1.393 . S
C461 H453 0.950 . S
C461 C459 1.391 . S
C461 C462 1.400 . S
C462 C461 1.400 . S
C462 C463 1.398 . S
C462 C468 1.491 . S
C463 H454 0.950 . S
C463 C462 1.398 . S
C463 C464 1.391 . S
C464 H452 0.950 . S
C464 C460 1.393 . S
C464 C463 1.391 . S
C465 H455 0.950 . S
C465 C466 1.386 . S
C465 C467 1.391 . S
C466 C465 1.386 . S
C466 C470 1.393 . S
C467 H456 0.950 . S
C467 C465 1.391 . S
C467 C468 1.400 . S
C468 C462 1.491 . S
C468 C467 1.400 . S
C468 C469 1.398 . S
C469 H457 0.950 . S
C469 C468 1.398 . S
C469 C470 1.391 . S
C470 H458 0.950 . S
C470 C466 1.393 . S
C470 C469 1.391 . S
H471 C479 0.950 . S
H472 C484 0.950 . S
H473 C481 0.950 . S
H474 C483 0.950 . S
H475 C485 0.950 . S
H476 C487 0.950 . S
H477 C489 0.950 . S
H478 C490 0.950 . S
C479 H471 0.950 . S
C479 C480 1.386 . S
C479 C481 1.391 . S
C480 C479 1.386 . S
C480 C484 1.393 . S
C481 H473 0.950 . S
C481 C479 1.391 . S
C481 C482 1.400 . S
C482 C481 1.400 . S
C482 C483 1.398 . S
C482 C488 1.491 . S
C483 H474 0.950 . S
C483 C482 1.398 . S
C483 C484 1.391 . S
C484 H472 0.950 . S
C484 C480 1.393 . S
C484 C483 1.391 . S
C485 H475 0.950 . S
C485 C486 1.386 . S
C485 C487 1.391 . S
C486 C485 1.386 . S
C486 C490 1.393 . S
C487 H476 0.950 . S
C487 C485 1.391 . S
C487 C488 1.400 . S
C488 C482 1.491 . S
C488 C487 1.400 . S
C488 C489 1.398 . S
C489 H477 0.950 . S
C489 C488 1.398 . S
C489 C490 1.391 . S
C490 H478 0.950 . S
C490 C486 1.393 . S
C490 C489 1.391 . S
H491 C499 0.950 . S
H492 C504 0.950 . S
H493 C501 0.950 . S
H494 C503 0.950 . S
H495 C505 0.950 . S
H496 C507 0.950 . S
H497 C509 0.950 . S
H498 C510 0.950 . S
C499 H491 0.950 . S
C499 C500 1.386 . S
C499 C501 1.391 . S
C500 C499 1.386 . S
C500 C504 1.393 . S
C501 H493 0.950 . S
C501 C499 1.391 . S
C501 C502 1.400 . S
C502 C501 1.400 . S
C502 C503 1.398 . S
C502 C508 1.491 . S
C503 H494 0.950 . S
C503 C502 1.398 . S
C503 C504 1.391 . S
C504 H492 0.950 . S
C504 C500 1.393 . S
C504 C503 1.391 . S
C505 H495 0.950 . S
C505 C506 1.386 . S
C505 C507 1.391 . S
C506 C505 1.386 . S
C506 C510 1.393 . S
C507 H496 0.950 . S
C507 C505 1.391 . S
C507 C508 1.400 . S
C508 C502 1.491 . S
C508 C507 1.400 . S
C508 C509 1.398 . S
C509 H497 0.950 . S
C509 C508 1.398 . S
C509 C510 1.391 . S
C510 H498 0.950 . S
C510 C506 1.393 . S
C510 C509 1.391 . S
H511 C519 0.950 . S
H512 C524 0.950 . S
H513 C521 0.950 . S
H514 C523 0.950 . S
H515 C525 0.950 . S
H516 C527 0.950 . S
H517 C529 0.950 . S
H518 C530 0.950 . S
C519 H511 0.950 . S
C519 C520 1.386 . S
C519 C521 1.391 . S
C520 C519 1.386 . S
C520 C524 1.393 . S
C521 H513 0.950 . S
C521 C519 1.391 . S
C521 C522 1.400 . S
C522 C521 1.400 . S
C522 C523 1.398 . S
C522 C528 1.491 . S
C523 H514 0.950 . S
C523 C522 1.398 . S
C523 C524 1.391 . S
C524 H512 0.950 . S
C524 C520 1.393 . S
C524 C523 1.391 . S
C525 H515 0.950 . S
C525 C526 1.386 . S
C525 C527 1.391 . S
C526 C525 1.386 . S
C526 C530 1.393 . S
C527 H516 0.950 . S
C527 C525 1.391 . S
C527 C528 1.400 . S
C528 C522 1.491 . S
C528 C527 1.400 . S
C528 C529 1.398 . S
C529 H517 0.950 . S
C529 C528 1.398 . S
C529 C530 1.391 . S
C530 H518 0.950 . S
C530 C526 1.393 . S
C530 C529 1.391 . S
H531 C539 0.950 . S
H532 C544 0.950 . S
H533 C541 0.950 . S
H534 C543 0.950 . S
H535 C545 0.950 . S
H536 C547 0.950 . S
H537 C549 0.950 . S
H538 C550 0.950 . S
C539 H531 0.950 . S
C539 C540 1.386 . S
C539 C541 1.391 . S
C540 C539 1.386 . S
C540 C544 1.393 . S
C541 H533 0.950 . S
C541 C539 1.391 . S
C541 C542 1.400 . S
C542 C541 1.400 . S
C542 C543 1.398 . S
C542 C548 1.491 . S
C543 H534 0.950 . S
C543 C542 1.398 . S
C543 C544 1.391 . S
C544 H532 0.950 . S
C544 C540 1.393 . S
C544 C543 1.391 . S
C545 H535 0.950 . S
C545 C546 1.386 . S
C545 C547 1.391 . S
C546 C545 1.386 . S
C546 C550 1.393 . S
C547 H536 0.950 . S
C547 C545 1.391 . S
C547 C548 1.400 . S
C548 C542 1.491 . S
C548 C547 1.400 . S
C548 C549 1.398 . S
C549 H537 0.950 . S
C549 C548 1.398 . S
C549 C550 1.391 . S
C550 H538 0.950 . S
C550 C546 1.393 . S
C550 C549 1.391 . S
H551 C559 0.950 . S
H552 C564 0.950 . S
H553 C561 0.950 . S
H554 C563 0.950 . S
H555 C565 0.950 . S
H556 C567 0.950 . S
H557 C569 0.950 . S
H558 C570 0.950 1_455 S
C559 H551 0.950 . S
C559 C560 1.386 . S
C559 C561 1.391 . S
C560 C559 1.386 . S
C560 C564 1.393 . S
C561 H553 0.950 . S
C561 C559 1.391 . S
C561 C562 1.400 . S
C562 C561 1.400 . S
C562 C563 1.398 . S
C562 C568 1.491 . S
C563 H554 0.950 . S
C563 C562 1.398 . S
C563 C564 1.391 . S
C564 H552 0.950 . S
C564 C560 1.393 . S
C564 C563 1.391 . S
C565 H555 0.950 . S
C565 C566 1.386 . S
C565 C567 1.391 . S
C566 C565 1.386 . S
C566 C570 1.393 . S
C567 H556 0.950 . S
C567 C565 1.391 . S
C567 C568 1.400 . S
C568 C562 1.491 . S
C568 C567 1.400 . S
C568 C569 1.398 . S
C569 H557 0.950 . S
C569 C568 1.398 . S
C569 C570 1.391 . S
C570 H558 0.950 1_655 S
C570 C566 1.393 . S
C570 C569 1.391 . S
H571 C579 0.950 . S
H572 C584 0.950 . S
H573 C581 0.950 . S
H574 C583 0.950 . S
H575 C585 0.950 . S
H576 C587 0.950 . S
H577 C589 0.950 . S
H578 C590 0.950 . S
C579 H571 0.950 . S
C579 C580 1.386 . S
C579 C581 1.391 . S
C580 C579 1.386 . S
C580 C584 1.393 . S
C581 H573 0.950 . S
C581 C579 1.391 . S
C581 C582 1.400 . S
C582 C581 1.400 . S
C582 C583 1.398 . S
C582 C588 1.491 . S
C583 H574 0.950 . S
C583 C582 1.398 . S
C583 C584 1.391 . S
C584 H572 0.950 . S
C584 C580 1.393 . S
C584 C583 1.391 . S
C585 H575 0.950 . S
C585 C586 1.386 . S
C585 C587 1.391 . S
C586 C585 1.386 . S
C586 C590 1.393 . S
C587 H576 0.950 . S
C587 C585 1.391 . S
C587 C588 1.400 . S
C588 C582 1.491 . S
C588 C587 1.400 . S
C588 C589 1.398 . S
C589 H577 0.950 . S
C589 C588 1.398 . S
C589 C590 1.391 . S
C590 H578 0.950 . S
C590 C586 1.393 . S
C590 C589 1.391 . S
H591 C599 0.950 . S
H592 C604 0.950 . S
H593 C601 0.950 . S
H594 C603 0.950 . S
H595 C605 0.950 . S
H596 C607 0.950 . S
H597 C609 0.950 . S
H598 C610 0.950 . S
C599 H591 0.950 . S
C599 C600 1.386 . S
C599 C601 1.391 . S
C600 C599 1.386 . S
C600 C604 1.393 . S
C601 H593 0.950 . S
C601 C599 1.391 . S
C601 C602 1.400 . S
C602 C601 1.400 . S
C602 C603 1.398 . S
C602 C608 1.491 . S
C603 H594 0.950 . S
C603 C602 1.398 . S
C603 C604 1.391 . S
C604 H592 0.950 . S
C604 C600 1.393 . S
C604 C603 1.391 . S
C605 H595 0.950 . S
C605 C606 1.386 . S
C605 C607 1.391 . S
C606 C605 1.386 . S
C606 C610 1.393 . S
C607 H596 0.950 . S
C607 C605 1.391 . S
C607 C608 1.400 . S
C608 C602 1.491 . S
C608 C607 1.400 . S
C608 C609 1.398 . S
C609 H597 0.950 . S
C609 C608 1.398 . S
C609 C610 1.391 . S
C610 H598 0.950 . S
C610 C606 1.393 . S
C610 C609 1.391 . S
H611 C619 0.950 . S
H612 C624 0.950 . S
H613 C621 0.950 . S
H614 C623 0.950 . S
H615 C625 0.950 . S
H616 C627 0.950 . S
H617 C629 0.950 . S
H618 C630 0.950 . S
C619 H611 0.950 . S
C619 C620 1.386 . S
C619 C621 1.391 . S
C620 C619 1.386 . S
C620 C624 1.393 . S
C621 H613 0.950 . S
C621 C619 1.391 . S
C621 C622 1.400 . S
C622 C621 1.400 . S
C622 C623 1.398 . S
C622 C628 1.491 . S
C623 H614 0.950 . S
C623 C622 1.398 . S
C623 C624 1.391 . S
C624 H612 0.950 . S
C624 C620 1.393 . S
C624 C623 1.391 . S
C625 H615 0.950 . S
C625 C626 1.386 . S
C625 C627 1.391 . S
C626 C625 1.386 . S
C626 C630 1.393 . S
C627 H616 0.950 . S
C627 C625 1.391 . S
C627 C628 1.400 . S
C628 C622 1.491 . S
C628 C627 1.400 . S
C628 C629 1.398 . S
C629 H617 0.950 . S
C629 C628 1.398 . S
C629 C630 1.391 . S
C630 H618 0.950 . S
C630 C626 1.393 . S
C630 C629 1.391 . S
H631 C639 0.950 . S
H632 C644 0.950 . S
H633 C641 0.950 . S
H634 C643 0.950 . S
H635 C645 0.950 . S
H636 C647 0.950 . S
H637 C649 0.950 . S
H638 C650 0.950 . S
C639 H631 0.950 . S
C639 C640 1.386 . S
C639 C641 1.391 . S
C640 C639 1.386 . S
C640 C644 1.393 . S
C641 H633 0.950 . S
C641 C639 1.391 . S
C641 C642 1.400 . S
C642 C641 1.400 . S
C642 C643 1.398 . S
C642 C648 1.491 . S
C643 H634 0.950 . S
C643 C642 1.398 . S
C643 C644 1.391 . S
C644 H632 0.950 . S
C644 C640 1.393 . S
C644 C643 1.391 . S
C645 H635 0.950 . S
C645 C646 1.386 . S
C645 C647 1.391 . S
C646 C645 1.386 . S
C646 C650 1.393 . S
C647 H636 0.950 . S
C647 C645 1.391 . S
C647 C648 1.400 . S
C648 C642 1.491 . S
C648 C647 1.400 . S
C648 C649 1.398 . S
C649 H637 0.950 . S
C649 C648 1.398 . S
C649 C650 1.391 . S
C650 H638 0.950 . S
C650 C646 1.393 . S
C650 C649 1.391 . S
H651 C659 0.950 . S
H652 C664 0.950 . S
H653 C661 0.950 . S
H654 C663 0.950 . S
H655 C665 0.950 . S
H656 C667 0.950 . S
H657 C669 0.950 . S
H658 C670 0.950 . S
C659 H651 0.950 . S
C659 C660 1.386 . S
C659 C661 1.391 . S
C660 C659 1.386 . S
C660 C664 1.393 . S
C661 H653 0.950 . S
C661 C659 1.391 . S
C661 C662 1.400 . S
C662 C661 1.400 . S
C662 C663 1.398 . S
C662 C668 1.491 . S
C663 H654 0.950 . S
C663 C662 1.398 . S
C663 C664 1.391 . S
C664 H652 0.950 . S
C664 C660 1.393 . S
C664 C663 1.391 . S
C665 H655 0.950 . S
C665 C666 1.386 . S
C665 C667 1.391 . S
C666 C665 1.386 . S
C666 C670 1.393 . S
C667 H656 0.950 . S
C667 C665 1.391 . S
C667 C668 1.400 . S
C668 C662 1.491 . S
C668 C667 1.400 . S
C668 C669 1.398 . S
C669 H657 0.950 . S
C669 C668 1.398 . S
C669 C670 1.391 . S
C670 H658 0.950 . S
C670 C666 1.393 . S
C670 C669 1.391 . S
H671 C679 0.950 . S
H672 C684 0.950 . S
H673 C681 0.950 . S
H674 C683 0.950 . S
H675 C685 0.950 . S
H676 C687 0.950 . S
H677 C689 0.950 . S
H678 C690 0.950 . S
C679 H671 0.950 . S
C679 C680 1.386 . S
C679 C681 1.391 . S
C680 C679 1.386 . S
C680 C684 1.393 . S
C681 H673 0.950 . S
C681 C679 1.391 . S
C681 C682 1.400 . S
C682 C681 1.400 . S
C682 C683 1.398 . S
C682 C688 1.491 . S
C683 H674 0.950 . S
C683 C682 1.398 . S
C683 C684 1.391 . S
C684 H672 0.950 . S
C684 C680 1.393 . S
C684 C683 1.391 . S
C685 H675 0.950 . S
C685 C686 1.386 . S
C685 C687 1.391 . S
C686 C685 1.386 . S
C686 C690 1.393 . S
C687 H676 0.950 . S
C687 C685 1.391 . S
C687 C688 1.400 . S
C688 C682 1.491 . S
C688 C687 1.400 . S
C688 C689 1.398 . S
C689 H677 0.950 . S
C689 C688 1.398 . S
C689 C690 1.391 . S
C690 H678 0.950 . S
C690 C686 1.393 . S
C690 C689 1.391 . S
H691 C699 0.950 . S
H692 C704 0.950 . S
H693 C701 0.950 . S
H694 C703 0.950 . S
H695 C705 0.950 . S
H696 C707 0.950 . S
H697 C709 0.950 . S
H698 C710 0.950 . S
C699 H691 0.950 . S
C699 C700 1.386 . S
C699 C701 1.391 . S
C700 C699 1.386 . S
C700 C704 1.393 . S
C701 H693 0.950 . S
C701 C699 1.391 . S
C701 C702 1.400 . S
C702 C701 1.400 . S
C702 C703 1.398 . S
C702 C708 1.491 . S
C703 H694 0.950 . S
C703 C702 1.398 . S
C703 C704 1.391 . S
C704 H692 0.950 . S
C704 C700 1.393 . S
C704 C703 1.391 . S
C705 H695 0.950 . S
C705 C706 1.386 . S
C705 C707 1.391 . S
C706 C705 1.386 . S
C706 C710 1.393 . S
C707 H696 0.950 . S
C707 C705 1.391 . S
C707 C708 1.400 . S
C708 C702 1.491 . S
C708 C707 1.400 . S
C708 C709 1.398 . S
C709 H697 0.950 . S
C709 C708 1.398 . S
C709 C710 1.391 . S
C710 H698 0.950 . S
C710 C706 1.393 . S
C710 C709 1.391 . S
H711 C719 0.950 . S
H712 C724 0.950 . S
H713 C721 0.950 . S
H714 C723 0.950 . S
H715 C725 0.950 . S
H716 C727 0.950 . S
H717 C729 0.950 . S
H718 C730 0.950 . S
C719 H711 0.950 . S
C719 C720 1.386 . S
C719 C721 1.391 . S
C720 C719 1.386 . S
C720 C724 1.393 . S
C721 H713 0.950 . S
C721 C719 1.391 . S
C721 C722 1.400 . S
C722 C721 1.400 . S
C722 C723 1.398 . S
C722 C728 1.491 . S
C723 H714 0.950 . S
C723 C722 1.398 . S
C723 C724 1.391 . S
C724 H712 0.950 . S
C724 C720 1.393 . S
C724 C723 1.391 . S
C725 H715 0.950 . S
C725 C726 1.386 . S
C725 C727 1.391 . S
C726 C725 1.386 . S
C726 C730 1.393 . S
C727 H716 0.950 . S
C727 C725 1.391 . S
C727 C728 1.400 . S
C728 C722 1.491 . S
C728 C727 1.400 . S
C728 C729 1.398 . S
C729 H717 0.950 . S
C729 C728 1.398 . S
C729 C730 1.391 . S
C730 H718 0.950 . S
C730 C726 1.393 . S
C730 C729 1.391 . S
C266 C176 1.467 . S
C260 C11 1.392 . S
C286 C212 1.216 . S
C280 C25 1.272 . S
C306 C177 1.837 . S
C300 C40 1.825 . S
C326 C207 1.596 . S
C320 C59 1.653 . S
C346 C174 1.401 . S
C340 C82 1.471 . S
C360 C101 2.095 . S
C366 C210 2.092 . S
C380 C116 0.475 . S
C386 C179 0.643 . S
C406 C209 1.525 . S
C400 C144 1.384 . S
C426 C213 1.988 . S
C420 C2 2.006 . S
C446 C178 0.977 . S
C440 C21 0.996 . S
C466 C206 1.666 . S
C460 C49 1.419 . S
C486 C175 1.189 . S
C480 C63 1.298 . S
C506 C208 1.834 . S
C500 C78 1.950 . S
C520 C106 1.329 . S
C526 C173 1.357 . S
C540 C120 1.010 . S
C546 C211 1.021 . S
C566 C180 1.676 . S
C560 C135 1.730 . S
C586 C242 2.035 . S
C580 C6 2.136 . S
C600 C87 1.707 . S
C606 C245 1.750 . S
C626 C244 2.219 . S
C620 C97 2.284 . S
C640 C125 0.875 . S
C646 C243 0.952 . S
C666 C246 2.093 . S
C660 C139 2.230 . S
C680 C44 2.081 . S
C686 C240 1.999 . S
C706 C239 1.949 . S
C700 C68 1.871 . S
C720 C30 0.792 . S
C726 C241 0.720 . S
