# Generated by pormake.
# Topology pyr, (3,6)-cn, num edge types: 1
# Building blocks:
#     Node 0, Type 0, BuildingBlock: KAKCAD_clean_linker_0, # of connection points: 3
#     Node 1, Type 0, BuildingBlock: KAKCAD_clean_linker_0, # of connection points: 3
#     Node 2, Type 0, BuildingBlock: KAKCAD_clean_linker_0, # of connection points: 3
#     Node 3, Type 0, BuildingBlock: KAKCAD_clean_linker_0, # of connection points: 3
#     Node 4, Type 0, BuildingBlock: KAKCAD_clean_linker_0, # of connection points: 3
#     Node 5, Type 0, BuildingBlock: KAKCAD_clean_linker_0, # of connection points: 3
#     Node 6, Type 0, BuildingBlock: KAKCAD_clean_linker_0, # of connection points: 3
#     Node 7, Type 0, BuildingBlock: KAKCAD_clean_linker_0, # of connection points: 3
#     Node 8, Type 1, BuildingBlock: BETDEL_clean_sbu_0, # of connection points: 6
#     Node 9, Type 1, BuildingBlock: BETDEL_clean_sbu_0, # of connection points: 6
#     Node 10, Type 1, BuildingBlock: BETDEL_clean_sbu_0, # of connection points: 6
#     Node 11, Type 1, BuildingBlock: BETDEL_clean_sbu_0, # of connection points: 6
#     Edge 12, Type (0, 1), BuildingBlock: CIFDUS_clean_linker_0, # of connection points: 2
#     Edge 13, Type (0, 1), BuildingBlock: CIFDUS_clean_linker_0, # of connection points: 2
#     Edge 14, Type (0, 1), BuildingBlock: CIFDUS_clean_linker_0, # of connection points: 2
#     Edge 15, Type (0, 1), BuildingBlock: CIFDUS_clean_linker_0, # of connection points: 2
#     Edge 16, Type (0, 1), BuildingBlock: CIFDUS_clean_linker_0, # of connection points: 2
#     Edge 17, Type (0, 1), BuildingBlock: CIFDUS_clean_linker_0, # of connection points: 2
#     Edge 18, Type (0, 1), BuildingBlock: CIFDUS_clean_linker_0, # of connection points: 2
#     Edge 19, Type (0, 1), BuildingBlock: CIFDUS_clean_linker_0, # of connection points: 2
#     Edge 20, Type (0, 1), BuildingBlock: CIFDUS_clean_linker_0, # of connection points: 2
#     Edge 21, Type (0, 1), BuildingBlock: CIFDUS_clean_linker_0, # of connection points: 2
#     Edge 22, Type (0, 1), BuildingBlock: CIFDUS_clean_linker_0, # of connection points: 2
#     Edge 23, Type (0, 1), BuildingBlock: CIFDUS_clean_linker_0, # of connection points: 2
#     Edge 24, Type (0, 1), BuildingBlock: CIFDUS_clean_linker_0, # of connection points: 2
#     Edge 25, Type (0, 1), BuildingBlock: CIFDUS_clean_linker_0, # of connection points: 2
#     Edge 26, Type (0, 1), BuildingBlock: CIFDUS_clean_linker_0, # of connection points: 2
#     Edge 27, Type (0, 1), BuildingBlock: CIFDUS_clean_linker_0, # of connection points: 2
#     Edge 28, Type (0, 1), BuildingBlock: CIFDUS_clean_linker_0, # of connection points: 2
#     Edge 29, Type (0, 1), BuildingBlock: CIFDUS_clean_linker_0, # of connection points: 2
#     Edge 30, Type (0, 1), BuildingBlock: CIFDUS_clean_linker_0, # of connection points: 2
#     Edge 31, Type (0, 1), BuildingBlock: CIFDUS_clean_linker_0, # of connection points: 2
#     Edge 32, Type (0, 1), BuildingBlock: CIFDUS_clean_linker_0, # of connection points: 2
#     Edge 33, Type (0, 1), BuildingBlock: CIFDUS_clean_linker_0, # of connection points: 2
#     Edge 34, Type (0, 1), BuildingBlock: CIFDUS_clean_linker_0, # of connection points: 2
#     Edge 35, Type (0, 1), BuildingBlock: CIFDUS_clean_linker_0, # of connection points: 2
# Relax obj value: 0.028
# Max RMSD: 0.090
# Mean RMSD: 0.038
data_MOF--net-pyr--node1-BETDEL_clean_sbu_0--node2-KAKCAD_clean_linker_0--edge1-CIFDUS_clean_linker_0
_symmetry_space_group_name_H-M    P1
_symmetry_Int_Tables_number       1
_symmetry_cell_setting            triclinic
loop_
_symmetry_equiv_pos_as_xyz
'x, y, z'
_cell_length_a     40.654636
_cell_length_b     41.873375
_cell_length_c     38.444849
_cell_angle_alpha  91.238906
_cell_angle_beta   88.460029
_cell_angle_gamma 95.001234
loop_
_atom_site_label
_atom_site_type_symbol
_atom_site_fract_x
_atom_site_fract_y
_atom_site_fract_z
_atom_type_partial_charge
C0 C 0.1142 0.14036 0.24293 0.0
C1 C 0.13132 0.12945 0.2709 0.0
C2 C 0.13137 0.15694 0.21601 0.0
C3 C 0.16591 0.16315 0.21685 0.0
C4 C 0.18283 0.15294 0.2454 0.0
C5 C 0.16571 0.13614 0.27209 0.0
C6 C 0.18443 0.1793 0.18755 0.0
C7 C 0.1717 0.20479 0.1708 0.0
C8 C 0.18864 0.21922 0.14221 0.0
C9 C 0.21869 0.20841 0.13055 0.0
C10 C 0.23147 0.18265 0.14667 0.0
C11 C 0.21437 0.16834 0.17528 0.0
C12 C 0.26093 0.16868 0.13169 0.0
C13 C 0.26358 0.16313 0.09562 0.0
C14 C 0.28533 0.15884 0.1533 0.0
C15 C 0.31134 0.14272 0.13913 0.0
C16 C 0.31315 0.13607 0.10322 0.0
C17 C 0.1743 0.24482 0.12367 0.0
C18 C 0.14151 0.24041 0.11282 0.0
C19 C 0.19321 0.27376 0.11687 0.0
C20 C 0.17909 0.29843 0.10052 0.0
C21 C 0.14606 0.29425 0.09035 0.0
C22 C 0.12753 0.26491 0.09607 0.0
C23 C 0.28946 0.14699 0.08153 0.0
H24 H 0.08768 0.13528 0.24141 0.0
H25 H 0.11768 0.16411 0.19413 0.0
H26 H 0.20934 0.1579 0.24712 0.0
H27 H 0.17936 0.12841 0.29375 0.0
H28 H 0.14871 0.21364 0.1801 0.0
H29 H 0.22356 0.14763 0.18692 0.0
H30 H 0.2316 0.21945 0.10824 0.0
H31 H 0.24495 0.17014 0.07838 0.0
H32 H 0.28393 0.16309 0.18117 0.0
H33 H 0.32929 0.13442 0.15638 0.0
H34 H 0.12667 0.21807 0.11749 0.0
H35 H 0.21857 0.27757 0.12504 0.0
H36 H 0.29058 0.14246 0.05369 0.0
H37 H 0.10191 0.26136 0.08874 0.0
H38 H 0.19375 0.32094 0.09631 0.0
C39 C 0.29109 0.85999 0.80316 0.0
C40 C 0.32527 0.85882 0.80697 0.0
C41 C 0.2758 0.8477 0.77282 0.0
C42 C 0.2946 0.83432 0.74588 0.0
C43 C 0.32895 0.83441 0.74945 0.0
C44 C 0.34401 0.84626 0.77964 0.0
C45 C 0.27927 0.81971 0.71402 0.0
C46 C 0.25564 0.83476 0.69586 0.0
C47 C 0.24515 0.82272 0.66309 0.0
C48 C 0.25911 0.79569 0.64834 0.0
C49 C 0.28259 0.78035 0.66652 0.0
C50 C 0.29105 0.79168 0.69993 0.0
C51 C 0.30062 0.75407 0.65054 0.0
C52 C 0.28461 0.72908 0.63066 0.0
C53 C 0.3345 0.75342 0.6566 0.0
C54 C 0.35153 0.72773 0.64499 0.0
C55 C 0.33563 0.70225 0.62575 0.0
C56 C 0.22106 0.83963 0.6436 0.0
C57 C 0.19274 0.84997 0.66059 0.0
C58 C 0.22666 0.84639 0.60819 0.0
C59 C 0.20465 0.86351 0.59028 0.0
C60 C 0.1764 0.87412 0.60732 0.0
C61 C 0.17061 0.8669 0.64265 0.0
C62 C 0.30199 0.70344 0.61829 0.0
H63 H 0.27619 0.86987 0.82384 0.0
H64 H 0.24932 0.84806 0.77073 0.0
H65 H 0.34437 0.82531 0.72874 0.0
H66 H 0.37054 0.84596 0.78143 0.0
H67 H 0.24666 0.8567 0.70637 0.0
H68 H 0.3081 0.77919 0.71474 0.0
H69 H 0.25219 0.78705 0.62256 0.0
H70 H 0.25855 0.72892 0.62544 0.0
H71 H 0.34795 0.77265 0.67098 0.0
H72 H 0.37713 0.72767 0.65202 0.0
H73 H 0.1876 0.8448 0.68778 0.0
H74 H 0.24854 0.83916 0.59452 0.0
H75 H 0.28901 0.68453 0.60307 0.0
H76 H 0.14883 0.87416 0.65645 0.0
H77 H 0.21021 0.86907 0.56326 0.0
C78 C 0.75714 0.42914 0.90271 0.0
C79 C 0.78172 0.41286 0.91818 0.0
C80 C 0.72975 0.41229 0.88748 0.0
C81 C 0.72624 0.37853 0.88656 0.0
C82 C 0.75107 0.36221 0.90154 0.0
C83 C 0.77823 0.37909 0.9173 0.0
C84 C 0.69675 0.36055 0.87032 0.0
C85 C 0.68189 0.3728 0.84128 0.0
C86 C 0.65353 0.35676 0.8266 0.0
C87 C 0.64054 0.32743 0.84072 0.0
C88 C 0.65508 0.31429 0.86945 0.0
C89 C 0.68292 0.33133 0.88421 0.0
C90 C 0.64121 0.28287 0.88408 0.0
C91 C 0.60691 0.2744 0.88523 0.0
C92 C 0.66213 0.26087 0.89677 0.0
C93 C 0.64917 0.23127 0.90991 0.0
C94 C 0.61496 0.22268 0.91041 0.0
C95 C 0.63709 0.37108 0.79701 0.0
C96 C 0.60251 0.3714 0.79686 0.0
C97 C 0.65578 0.38531 0.76918 0.0
C98 C 0.64034 0.39971 0.74213 0.0
C99 C 0.60579 0.40051 0.74229 0.0
C100 C 0.58709 0.38602 0.76996 0.0
C101 C 0.594 0.24471 0.89806 0.0
H102 H 0.75899 0.45506 0.90212 0.0
H103 H 0.7111 0.42595 0.87684 0.0
H104 H 0.74972 0.33627 0.90099 0.0
H105 H 0.79624 0.3655 0.92922 0.0
H106 H 0.69217 0.39514 0.83015 0.0
H107 H 0.69329 0.3222 0.90726 0.0
H108 H 0.61942 0.31448 0.82872 0.0
H109 H 0.58986 0.29083 0.87647 0.0
H110 H 0.68869 0.26619 0.8959 0.0
H111 H 0.66604 0.21474 0.91885 0.0
H112 H 0.58733 0.36092 0.81797 0.0
H113 H 0.68243 0.38527 0.76826 0.0
H114 H 0.56748 0.23909 0.89857 0.0
H115 H 0.56043 0.38586 0.77079 0.0
H116 H 0.65556 0.41081 0.72141 0.0
C117 C 0.86369 0.63249 0.23347 0.0
C118 C 0.89828 0.63534 0.22976 0.0
C119 C 0.84808 0.64641 0.26215 0.0
C120 C 0.86664 0.66326 0.28819 0.0
C121 C 0.90132 0.6661 0.28438 0.0
C122 C 0.91691 0.65245 0.25545 0.0
C123 C 0.84974 0.67778 0.31896 0.0
C124 C 0.82082 0.66204 0.33371 0.0
C125 C 0.80328 0.67608 0.36132 0.0
C126 C 0.81568 0.70623 0.37469 0.0
C127 C 0.84525 0.72178 0.36135 0.0
C128 C 0.862 0.7075 0.33343 0.0
C129 C 0.8587 0.75304 0.37656 0.0
C130 C 0.83884 0.77881 0.38033 0.0
C131 C 0.89153 0.75725 0.38752 0.0
C132 C 0.90418 0.78653 0.40221 0.0
C133 C 0.88447 0.81244 0.40555 0.0
C134 C 0.77217 0.6591 0.37603 0.0
C135 C 0.75055 0.64004 0.35448 0.0
C136 C 0.76387 0.66148 0.41173 0.0
C137 C 0.73485 0.64543 0.42538 0.0
C138 C 0.71345 0.62605 0.40388 0.0
C139 C 0.72188 0.62355 0.36822 0.0
C140 C 0.85171 0.80833 0.39433 0.0
H141 H 0.84862 0.61984 0.21388 0.0
H142 H 0.82134 0.64427 0.26364 0.0
H143 H 0.91652 0.67843 0.30403 0.0
H144 H 0.94364 0.65476 0.25353 0.0
H145 H 0.8123 0.63838 0.32401 0.0
H146 H 0.88411 0.72013 0.32239 0.0
H147 H 0.80248 0.7177 0.39566 0.0
H148 H 0.8135 0.77626 0.37197 0.0
H149 H 0.90731 0.73772 0.38507 0.0
H150 H 0.92956 0.78911 0.41044 0.0
H151 H 0.75557 0.63793 0.32677 0.0
H152 H 0.77994 0.67549 0.42939 0.0
H153 H 0.83596 0.82787 0.39671 0.0
H154 H 0.70648 0.6086 0.35075 0.0
H155 H 0.72914 0.64855 0.45283 0.0
C156 C 0.84072 0.832 0.70941 0.0
C157 C 0.87028 0.84325 0.72542 0.0
C158 C 0.81542 0.81521 0.72866 0.0
C159 C 0.81985 0.80893 0.76383 0.0
C160 C 0.8498 0.81951 0.77946 0.0
C161 C 0.87473 0.83677 0.76047 0.0
C162 C 0.79297 0.79313 0.7854 0.0
C163 C 0.7994 0.76727 0.8057 0.0
C164 C 0.77743 0.7566 0.83254 0.0
C165 C 0.74838 0.77185 0.83865 0.0
C166 C 0.74123 0.79755 0.81787 0.0
C167 C 0.76334 0.80742 0.79059 0.0
C168 C 0.71359 0.81705 0.82791 0.0
C169 C 0.68314 0.80255 0.84027 0.0
C170 C 0.71853 0.8507 0.8277 0.0
C171 C 0.69406 0.86941 0.84046 0.0
C172 C 0.66418 0.85497 0.85416 0.0
C173 C 0.78864 0.73363 0.8573 0.0
C174 C 0.80325 0.70645 0.84446 0.0
C175 C 0.79166 0.74242 0.89264 0.0
C176 C 0.81203 0.72638 0.91379 0.0
C177 C 0.82959 0.70157 0.89966 0.0
C178 C 0.82372 0.69063 0.86545 0.0
C179 C 0.65863 0.82136 0.85327 0.0
H180 H 0.83684 0.8371 0.68239 0.0
H181 H 0.79241 0.80737 0.71627 0.0
H182 H 0.85352 0.81527 0.80672 0.0
H183 H 0.89734 0.84538 0.77322 0.0
H184 H 0.82295 0.75707 0.80229 0.0
H185 H 0.75875 0.82778 0.77504 0.0
H186 H 0.73247 0.7649 0.86077 0.0
H187 H 0.67852 0.77669 0.84053 0.0
H188 H 0.74184 0.86276 0.81896 0.0
H189 H 0.69886 0.89526 0.8403 0.0
H190 H 0.80106 0.69913 0.81735 0.0
H191 H 0.78084 0.76348 0.90305 0.0
H192 H 0.63588 0.80955 0.86381 0.0
H193 H 0.83669 0.67118 0.85427 0.0
H194 H 0.81624 0.73509 0.94017 0.0
C195 C 0.69679 0.1195 0.25709 0.0
C196 C 0.68523 0.13495 0.22832 0.0
C197 C 0.71405 0.13709 0.28304 0.0
C198 C 0.72015 0.17054 0.28081 0.0
C199 C 0.70953 0.18589 0.25148 0.0
C200 C 0.6923 0.16825 0.22545 0.0
C201 C 0.73582 0.18944 0.30999 0.0
C202 C 0.76258 0.17839 0.32705 0.0
C203 C 0.77543 0.1945 0.35674 0.0
C204 C 0.76179 0.22249 0.36892 0.0
C205 C 0.73521 0.23423 0.35186 0.0
C206 C 0.72241 0.21738 0.32247 0.0
C207 C 0.71953 0.26301 0.36549 0.0
C208 C 0.7156 0.26857 0.40154 0.0
C209 C 0.70692 0.28438 0.34249 0.0
C210 C 0.68989 0.30994 0.35517 0.0
C211 C 0.68556 0.31507 0.39112 0.0
C212 C 0.80145 0.1805 0.37624 0.0
C213 C 0.79717 0.17531 0.41208 0.0
C214 C 0.82931 0.16982 0.35872 0.0
C215 C 0.85201 0.15345 0.3765 0.0
C216 C 0.8471 0.14702 0.41214 0.0
C217 C 0.81963 0.15859 0.4298 0.0
C218 C 0.69898 0.29444 0.4142 0.0
H219 H 0.69204 0.0938 0.2598 0.0
H220 H 0.72161 0.12458 0.30546 0.0
H221 H 0.71414 0.21161 0.24892 0.0
H222 H 0.68352 0.18085 0.20369 0.0
H223 H 0.77278 0.15658 0.31786 0.0
H224 H 0.70085 0.22511 0.31021 0.0
H225 H 0.77201 0.23507 0.39163 0.0
H226 H 0.72444 0.25239 0.42006 0.0
H227 H 0.71005 0.28129 0.3146 0.0
H228 H 0.68013 0.32578 0.33686 0.0
H229 H 0.77565 0.18293 0.42611 0.0
H230 H 0.8333 0.17377 0.33111 0.0
H231 H 0.69571 0.29773 0.44207 0.0
H232 H 0.81467 0.1537 0.45707 0.0
H233 H 0.87322 0.14554 0.36219 0.0
C234 C 0.24267 0.63868 0.14925 0.0
C235 C 0.24203 0.63148 0.11337 0.0
C236 C 0.27198 0.6514 0.16467 0.0
C237 C 0.30097 0.65787 0.14434 0.0
C238 C 0.30009 0.65129 0.10835 0.0
C239 C 0.27104 0.6379 0.0931 0.0
C240 C 0.33225 0.67114 0.16045 0.0
C241 C 0.34525 0.65558 0.18838 0.0
C242 C 0.3758 0.66696 0.2025 0.0
C243 C 0.39287 0.69479 0.18858 0.0
C244 C 0.37996 0.71118 0.16102 0.0
C245 C 0.34964 0.69888 0.14709 0.0
C246 C 0.39806 0.74107 0.14682 0.0
C247 C 0.41599 0.7631 0.1689 0.0
C248 C 0.39752 0.748 0.1111 0.0
C249 C 0.41437 0.77601 0.09795 0.0
C250 C 0.43262 0.79762 0.12002 0.0
C251 C 0.39025 0.6494 0.23116 0.0
C252 C 0.37023 0.63642 0.25873 0.0
C253 C 0.42424 0.64522 0.23102 0.0
C254 C 0.43778 0.62848 0.25757 0.0
C255 C 0.41778 0.61543 0.28511 0.0
C256 C 0.38381 0.61973 0.28535 0.0
C257 C 0.43319 0.79083 0.15565 0.0
H258 H 0.22069 0.63374 0.16547 0.0
H259 H 0.27198 0.65636 0.19244 0.0
H260 H 0.32211 0.65592 0.09211 0.0
H261 H 0.2712 0.63257 0.0654 0.0
H262 H 0.33212 0.63384 0.19818 0.0
H263 H 0.339 0.71119 0.12619 0.0
H264 H 0.41639 0.70362 0.19925 0.0
H265 H 0.4165 0.75919 0.19661 0.0
H266 H 0.38456 0.73151 0.09305 0.0
H267 H 0.41375 0.78038 0.07031 0.0
H268 H 0.34402 0.63937 0.25991 0.0
H269 H 0.44042 0.6545 0.21008 0.0
H270 H 0.44669 0.80722 0.17342 0.0
H271 H 0.36754 0.6098 0.3059 0.0
H272 H 0.46409 0.62601 0.25662 0.0
C273 C 0.15343 0.24269 0.66665 0.0
C274 C 0.12083 0.23838 0.65498 0.0
C275 C 0.16706 0.27305 0.67746 0.0
C276 C 0.14821 0.29966 0.67741 0.0
C277 C 0.11545 0.29525 0.66626 0.0
C278 C 0.102 0.265 0.65488 0.0
C279 C 0.16287 0.33204 0.68832 0.0
C280 C 0.19386 0.34403 0.67477 0.0
C281 C 0.20744 0.375 0.68389 0.0
C282 C 0.19022 0.3937 0.70779 0.0
C283 C 0.15952 0.38184 0.72235 0.0
C284 C 0.1458 0.35118 0.71196 0.0
C285 C 0.14193 0.40127 0.74866 0.0
C286 C 0.15886 0.41618 0.77692 0.0
C287 C 0.108 0.40473 0.74598 0.0
C288 C 0.09147 0.42293 0.77076 0.0
C289 C 0.10836 0.43771 0.79912 0.0
C290 C 0.23935 0.3879 0.6678 0.0
C291 C 0.26774 0.37133 0.67044 0.0
C292 C 0.24138 0.41639 0.64888 0.0
C293 C 0.27115 0.42781 0.63241 0.0
C294 C 0.29961 0.41137 0.63531 0.0
C295 C 0.29769 0.38317 0.65471 0.0
C296 C 0.14221 0.43398 0.80201 0.0
H297 H 0.16858 0.22267 0.66683 0.0
H298 H 0.19232 0.2757 0.68607 0.0
H299 H 0.1004 0.31534 0.66573 0.0
H300 H 0.07675 0.26236 0.64622 0.0
H301 H 0.20698 0.32968 0.65613 0.0
H302 H 0.12222 0.34179 0.72305 0.0
H303 H 0.20076 0.41752 0.71504 0.0
H304 H 0.18494 0.41373 0.77987 0.0
H305 H 0.0943 0.39366 0.72445 0.0
H306 H 0.06535 0.4252 0.76792 0.0
H307 H 0.26679 0.34932 0.68487 0.0
H308 H 0.21975 0.42947 0.64629 0.0
H309 H 0.15595 0.44524 0.82341 0.0
H310 H 0.31928 0.37002 0.65723 0.0
H311 H 0.27206 0.44965 0.6177 0.0
Dy312 Dy 0.01569 0.03076 0.49772 0.0
C313 C 0.9812 0.97966 0.63014 0.0
C314 C 0.03146 0.05693 0.43471 0.0
Dy315 Dy 0.99339 0.0139 0.57116 0.0
O316 O 0.0451 0.03328 0.44786 0.0
O317 O 0.00887 0.06656 0.45602 0.0
O318 O 0.04965 0.9912 0.4982 0.0
O319 O 0.04083 0.01729 0.54414 0.0
C320 C 0.05481 0.99397 0.53129 0.0
C321 C 0.95381 0.05057 0.53868 0.0
O322 O 0.02892 0.05633 0.58372 0.0
O323 O 0.0302 0.07645 0.52789 0.0
O324 O 0.97126 1.00783 0.62515 0.0
O325 O 0.99847 0.97084 0.60336 0.0
O326 O 0.95743 0.05169 0.57216 0.0
O327 O 0.96832 0.02781 0.52522 0.0
O328 O 0.97958 0.98936 0.48423 0.0
O329 O 0.97663 0.96913 0.53989 0.0
C330 C 0.03612 0.08003 0.56164 0.0
C331 C 0.97106 0.96585 0.50604 0.0
Dy332 Dy 0.53985 0.02183 0.02665 0.0
C333 C 0.43281 0.96384 0.94201 0.0
C334 C 0.58293 0.05425 0.0705 0.0
Dy335 Dy 0.48457 0.997 0.97364 0.0
O336 O 0.55707 0.03584 0.08005 0.0
O337 O 0.58543 0.05507 0.03671 0.0
O338 O 0.53987 0.97152 0.04616 0.0
O339 O 0.49633 0.98694 0.0271 0.0
C340 C 0.50947 0.96304 0.03811 0.0
C341 C 0.51838 0.05122 0.95001 0.0
O342 O 0.45595 0.02155 0.01457 0.0
O343 O 0.49908 0.05297 0.04022 0.0
O344 O 0.43482 0.99431 0.94954 0.0
O345 O 0.45922 0.95133 0.95174 0.0
O346 O 0.49466 0.0354 0.93326 0.0
O347 O 0.52251 0.03633 0.97741 0.0
O348 O 0.56987 0.99918 0.9851 0.0
O349 O 0.5267 0.96838 0.95822 0.0
C350 C 0.46718 0.04574 0.03496 0.0
C351 C 0.55862 0.976 0.96326 0.0
Dy352 Dy 0.51865 0.47967 0.48828 0.0
C353 C 0.46396 0.57455 0.57315 0.0
C354 C 0.55678 0.43929 0.45188 0.0
Dy355 Dy 0.49828 0.53014 0.53828 0.0
O356 O 0.52494 0.43925 0.44949 0.0
O357 O 0.56762 0.46152 0.47371 0.0
O358 O 0.46587 0.45871 0.48462 0.0
O359 O 0.48266 0.47953 0.53164 0.0
C360 C 0.4576 0.46742 0.51606 0.0
C361 C 0.55974 0.54126 0.51162 0.0
O362 O 0.51595 0.49815 0.57848 0.0
O363 O 0.5429 0.46714 0.53806 0.0
O364 O 0.49513 0.5781 0.5647 0.0
O365 O 0.45166 0.54614 0.56368 0.0
O366 O 0.55146 0.54811 0.5436 0.0
O367 O 0.53465 0.53037 0.49509 0.0
O368 O 0.50267 0.51348 0.44894 0.0
O369 O 0.47215 0.54095 0.48918 0.0
C370 C 0.53653 0.47596 0.57083 0.0
C371 C 0.48039 0.53402 0.45641 0.0
Dy372 Dy 0.01915 0.49814 0.03905 0.0
C373 C 0.95463 0.61094 1.00544 0.0
C374 C 0.05508 0.44987 0.05678 0.0
Dy375 Dy 0.99273 0.56128 1.00989 0.0
O376 O 0.05063 0.47496 0.07617 0.0
O377 O 0.03949 0.45083 0.02779 0.0
O378 O 0.97793 0.49639 0.07932 0.0
O379 O 0.9983 0.54078 0.06096 0.0
C380 C 0.9758 0.52721 0.08003 0.0
C381 C 0.02597 0.52921 0.96009 0.0
O382 O 0.03855 0.58203 0.03639 0.0
O383 O 0.06363 0.53416 0.04044 0.0
O384 O 0.98377 0.60982 0.9907 0.0
O385 O 0.94677 0.58519 0.02315 0.0
O386 O 0.01243 0.55549 0.95384 0.0
O387 O 0.02029 0.52317 0.9915 0.0
O388 O 0.97789 0.47672 1.0063 0.0
O389 O 0.95078 0.5232 1.00116 0.0
C390 C 0.06447 0.56596 0.04298 0.0
C391 C 0.95194 0.49166 0.99742 0.0
H392 H 0.0759 0.14338 0.3071 0.0
H393 H 0.1474 0.07324 0.29644 0.0
H394 H 0.12079 0.04325 0.34475 0.0
H395 H 0.07964 0.03879 0.39189 0.0
H396 H 0.00888 0.10935 0.40487 0.0
H397 H 0.0324 0.13728 0.35325 0.0
C398 C 0.0853 0.12132 0.3152 0.0
C399 C 0.11365 0.11058 0.29862 0.0
C400 C 0.07011 0.10443 0.34327 0.0
C401 C 0.12587 0.08212 0.30928 0.0
C402 C 0.11063 0.06495 0.33674 0.0
C403 C 0.06917 0.06013 0.38324 0.0
C404 C 0.04281 0.07222 0.40204 0.0
C405 C 0.08313 0.07618 0.35423 0.0
C406 C 0.0293 0.09976 0.39065 0.0
C407 C 0.04279 0.11572 0.36129 0.0
H408 H 0.32063 0.91674 0.83898 0.0
H409 H 0.36868 0.82928 0.84501 0.0
H410 H 0.40457 0.85329 0.8902 0.0
H411 H 0.42639 0.90105 0.92304 0.0
H412 H 0.37941 0.98904 0.91606 0.0
H413 H 0.33876 0.96293 0.87662 0.0
C414 C 0.33842 0.90277 0.85085 0.0
C415 C 0.34231 0.87149 0.83854 0.0
C416 C 0.35942 0.91695 0.87633 0.0
C417 C 0.3656 0.85361 0.85387 0.0
C418 C 0.38613 0.86731 0.87963 0.0
C419 C 0.40696 0.91432 0.91322 0.0
C420 C 0.40605 0.94692 0.92199 0.0
C421 C 0.38397 0.89928 0.89025 0.0
C422 C 0.38069 0.96391 0.90938 0.0
C423 C 0.35748 0.94902 0.88681 0.0
H424 H 0.61885 0.39791 0.67215 0.0
H425 H 0.55561 0.44002 0.74899 0.0
H426 H 0.5287 0.46703 0.70326 0.0
H427 H 0.52319 0.47909 0.64118 0.0
H428 H 0.58631 0.43631 0.56453 0.0
H429 H 0.61315 0.40961 0.61028 0.0
C430 C 0.59934 0.41317 0.67894 0.0
C431 C 0.58935 0.41684 0.71409 0.0
C432 C 0.58386 0.42865 0.65244 0.0
C433 C 0.56362 0.43639 0.72221 0.0
C434 C 0.5483 0.45202 0.69604 0.0
C435 C 0.54286 0.46399 0.63446 0.0
C436 C 0.55262 0.45987 0.59928 0.0
C437 C 0.5582 0.44837 0.66102 0.0
C438 C 0.57808 0.43998 0.59123 0.0
C439 C 0.59356 0.42465 0.61745 0.0
H440 H 0.88521 0.57501 0.20291 0.0
H441 H 0.94869 0.66194 0.18837 0.0
H442 H 0.97682 0.63698 0.13916 0.0
H443 H 0.98465 0.5897 0.10141 0.0
H444 H 0.92286 0.50205 0.11794 0.0
H445 H 0.89243 0.52811 0.1647 0.0
C446 C 0.90499 0.58858 0.18874 0.0
C447 C 0.91485 0.62029 0.19933 0.0
C448 C 0.92131 0.57393 0.16075 0.0
C449 C 0.94085 0.6374 0.18099 0.0
C450 C 0.95684 0.62318 0.15274 0.0
C451 C 0.96431 0.57644 0.11507 0.0
C452 C 0.95596 0.544 0.10628 0.0
C453 C 0.94747 0.59137 0.14254 0.0
C454 C 0.92975 0.52702 0.12432 0.0
C455 C 0.9124 0.54189 0.15109 0.0
H456 H 0.37907 0.14169 0.11519 0.0
H457 H 0.30336 0.08548 0.05856 0.0
H458 H 0.34446 0.05235 0.03308 0.0
H459 H 0.40131 0.03987 0.0263 0.0
H460 H 0.47814 0.09559 0.08204 0.0
H461 H 0.43697 0.12835 0.10881 0.0
C462 C 0.37169 0.12205 0.09742 0.0
C463 C 0.3384 0.11611 0.08847 0.0
C464 C 0.39548 0.1031 0.08281 0.0
C465 C 0.32898 0.09077 0.06532 0.0
C466 C 0.35239 0.07174 0.05092 0.0
C467 C 0.40923 0.05907 0.0444 0.0
C468 C 0.44276 0.06526 0.05214 0.0
C469 C 0.38565 0.07781 0.05936 0.0
C470 C 0.45244 0.09034 0.07559 0.0
C471 C 0.42894 0.10908 0.09089 0.0
H472 H 0.1452 0.92549 0.63178 0.0
H473 H 0.15578 0.8653 0.54025 0.0
H474 H 0.11934 0.89716 0.50872 0.0
H475 H 0.08458 0.94228 0.50697 0.0
H476 H 0.07262 1.00137 0.59895 0.0
H477 H 0.10897 0.96937 0.6307 0.0
C478 C 0.13922 0.91902 0.60509 0.0
C479 C 0.15338 0.89303 0.58846 0.0
C480 C 0.11794 0.93723 0.58719 0.0
C481 C 0.14571 0.88545 0.55361 0.0
C482 C 0.12468 0.90353 0.53558 0.0
C483 C 0.08995 0.94809 0.53398 0.0
C484 C 0.07615 0.97419 0.55059 0.0
C485 C 0.11077 0.92954 0.55206 0.0
C486 C 0.08308 0.98141 0.58561 0.0
C487 C 0.10385 0.96314 0.60375 0.0
H488 H 0.84582 0.39671 0.92164 0.0
H489 H 0.78285 0.47038 0.95425 0.0
H490 H 0.82961 0.50123 0.98042 0.0
H491 H 0.88849 0.50767 0.99443 0.0
H492 H 0.95068 0.43244 0.96579 0.0
H493 H 0.90398 0.40166 0.93865 0.0
C494 C 0.84203 0.41926 0.93487 0.0
C495 C 0.81053 0.43112 0.93535 0.0
C496 C 0.86899 0.43669 0.95084 0.0
C497 C 0.80671 0.46077 0.9524 0.0
C498 C 0.83348 0.47842 0.96778 0.0
C499 C 0.89186 0.48453 0.98225 0.0
C500 C 0.92317 0.4725 0.98207 0.0
C501 C 0.86476 0.46671 0.96705 0.0
C502 C 0.9269 0.44229 0.96648 0.0
C503 C 0.90019 0.42468 0.95082 0.0
H504 H 0.70274 0.59964 0.46839 0.0
H505 H 0.65359 0.61355 0.37229 0.0
H506 H 0.60306 0.58568 0.39573 0.0
H507 H 0.57153 0.55961 0.44463 0.0
H508 H 0.61895 0.55093 0.54249 0.0
H509 H 0.67115 0.57479 0.51744 0.0
C510 C 0.68096 0.59703 0.45258 0.0
C511 C 0.68241 0.60881 0.41842 0.0
C512 C 0.65147 0.58185 0.46662 0.0
C513 C 0.65379 0.60433 0.39836 0.0
C514 C 0.62462 0.58857 0.41186 0.0
C515 C 0.59342 0.56268 0.46029 0.0
C516 C 0.59155 0.55344 0.49528 0.0
C517 C 0.62307 0.57741 0.44603 0.0
C518 C 0.61989 0.5579 0.51548 0.0
C519 C 0.64969 0.57158 0.50119 0.0
H520 H 0.14557 0.35297 0.11951 0.0
H521 H 0.10976 0.29546 0.03184 0.0
H522 H 0.07913 0.33953 0.01261 0.0
H523 H 0.0608 0.39351 0.02258 0.0
H524 H 0.09478 0.44958 0.11215 0.0
H525 H 0.12816 0.40695 0.12889 0.0
C526 C 0.13147 0.35037 0.09589 0.0
C527 C 0.12994 0.32137 0.07688 0.0
C528 C 0.11349 0.37535 0.08561 0.0
C529 C 0.11113 0.31777 0.04674 0.0
C530 C 0.09367 0.34285 0.03584 0.0
C531 C 0.07563 0.39633 0.04567 0.0
C532 C 0.07539 0.42437 0.06624 0.0
C533 C 0.09434 0.37158 0.05536 0.0
C534 C 0.09456 0.42798 0.0961 0.0
C535 C 0.11365 0.40371 0.10563 0.0
H536 H 0.56799 0.18213 0.88 0.0
H537 H 0.63111 0.19083 0.96859 0.0
H538 H 0.60763 0.13837 0.98894 0.0
H539 H 0.56781 0.09 0.98187 0.0
H540 H 0.50593 0.08246 0.89211 0.0
H541 H 0.52998 0.13425 0.87221 0.0
C542 C 0.57647 0.1727 0.90391 0.0
C543 C 0.6011 0.19058 0.92283 0.0
C544 C 0.563 0.14254 0.91531 0.0
C545 C 0.61227 0.17756 0.9534 0.0
C546 C 0.59875 0.14758 0.96512 0.0
C547 C 0.55981 0.0997 0.95792 0.0
C548 C 0.53505 0.08232 0.93858 0.0
C549 C 0.57397 0.12981 0.94634 0.0
C550 C 0.52491 0.09525 0.90757 0.0
C551 C 0.53863 0.12496 0.8961 0.0
H552 H 0.9158 0.82389 0.46683 0.0
H553 H 0.88379 0.87136 0.37697 0.0
H554 H 0.90769 0.92303 0.39986 0.0
H555 H 0.93857 0.95465 0.44511 0.0
H556 H 0.96792 0.90743 0.53653 0.0
H557 H 0.94419 0.85594 0.51351 0.0
C558 C 0.91414 0.84559 0.45231 0.0
C559 C 0.89824 0.84383 0.42017 0.0
C560 C 0.92745 0.87529 0.46595 0.0
C561 C 0.89582 0.87215 0.40182 0.0
C562 C 0.90956 0.90167 0.41485 0.0
C563 C 0.93974 0.9331 0.46001 0.0
C564 C 0.95519 0.93494 0.49244 0.0
C565 C 0.92556 0.90353 0.44684 0.0
C566 C 0.95613 0.90679 0.51156 0.0
C567 C 0.94264 0.87726 0.49836 0.0
H568 H 0.40054 0.70331 0.60574 0.0
H569 H 0.313 0.63835 0.62068 0.0
H570 H 0.34494 0.59291 0.60608 0.0
H571 H 0.39837 0.57151 0.59046 0.0
H572 H 0.48608 0.63698 0.58122 0.0
H573 H 0.4536 0.68225 0.59401 0.0
C574 C 0.38835 0.67926 0.60653 0.0
C575 C 0.35431 0.67449 0.61464 0.0
C576 C 0.40706 0.65321 0.5997 0.0
C577 C 0.33901 0.643 0.6141 0.0
C578 C 0.35736 0.61689 0.60618 0.0
C579 C 0.41033 0.59568 0.59169 0.0
C580 C 0.44452 0.60097 0.585 0.0
C581 C 0.39148 0.6217 0.59926 0.0
C582 C 0.4598 0.63233 0.58649 0.0
C583 C 0.44123 0.65824 0.59355 0.0
H584 H 0.89277 0.90386 0.74179 0.0
H585 H 0.90384 0.82774 0.66629 0.0
H586 H 0.94412 0.86257 0.63288 0.0
H587 H 0.97208 0.91579 0.62282 0.0
H588 H 0.95573 0.99389 0.69433 0.0
H589 H 0.92214 0.95705 0.73245 0.0
C590 C 0.9044 0.89495 0.71821 0.0
C591 C 0.89567 0.86351 0.70628 0.0
C592 C 0.92656 0.91538 0.69874 0.0
C593 C 0.91032 0.85201 0.67562 0.0
C594 C 0.9333 0.87184 0.65669 0.0
C595 C 0.96177 0.92456 0.64718 0.0
C596 C 0.96644 0.95728 0.65613 0.0
C597 C 0.94113 0.9037 0.66771 0.0
C598 C 0.95249 0.96865 0.68724 0.0
C599 C 0.93316 0.94768 0.7088 0.0
H600 H 0.68861 0.13903 0.1575 0.0
H601 H 0.63438 0.08994 0.24153 0.0
H602 H 0.5985 0.0604 0.19996 0.0
H603 H 0.58169 0.04927 0.14011 0.0
H604 H 0.6351 0.0979 0.05545 0.0
H605 H 0.67205 0.12714 0.0969 0.0
C606 C 0.66886 0.12193 0.16664 0.0
C607 C 0.66425 0.1166 0.20254 0.0
C608 C 0.64816 0.10507 0.14255 0.0
C609 C 0.63877 0.09414 0.21402 0.0
C610 C 0.61809 0.07738 0.1903 0.0
C611 C 0.60145 0.06626 0.13073 0.0
C612 C 0.60573 0.07157 0.09492 0.0
C613 C 0.62248 0.08275 0.15458 0.0
C614 C 0.63144 0.09348 0.08301 0.0
C615 C 0.65249 0.11018 0.10666 0.0
H616 H 0.4036 0.61733 0.35516 0.0
H617 H 0.46488 0.57244 0.27845 0.0
H618 H 0.48949 0.5434 0.32413 0.0
H619 H 0.4939 0.53068 0.38612 0.0
H620 H 0.43215 0.57549 0.46257 0.0
H621 H 0.40737 0.60406 0.41684 0.0
C622 C 0.42209 0.60096 0.34832 0.0
C623 C 0.43233 0.59728 0.31324 0.0
C624 C 0.43615 0.58416 0.37479 0.0
C625 C 0.45676 0.57623 0.30517 0.0
C626 C 0.47076 0.5594 0.33131 0.0
C627 C 0.47496 0.5466 0.39282 0.0
C628 C 0.46504 0.55079 0.42794 0.0
C629 C 0.46073 0.56321 0.36626 0.0
C630 C 0.44045 0.57168 0.43591 0.0
C631 C 0.42617 0.58812 0.4097 0.0
H632 H 0.11005 0.43574 0.87005 0.0
H633 H 0.06708 0.4839 0.78665 0.0
H634 H 0.03821 0.51665 0.82889 0.0
H635 H 0.02518 0.53184 0.88969 0.0
H636 H 0.06658 0.4827 0.9732 0.0
H637 H 0.09604 0.4502 0.93103 0.0
C638 C 0.09448 0.45352 0.86118 0.0
C639 C 0.09078 0.45739 0.82521 0.0
C640 C 0.07762 0.47206 0.88569 0.0
C641 C 0.07015 0.48025 0.81414 0.0
C642 C 0.05374 0.49908 0.83829 0.0
C643 C 0.04069 0.51402 0.89858 0.0
C644 C 0.04366 0.50956 0.93448 0.0
C645 C 0.05726 0.49522 0.87413 0.0
C646 C 0.06366 0.48629 0.9457 0.0
C647 C 0.08061 0.46782 0.92158 0.0
H648 H 0.67706 0.90568 0.89799 0.0
H649 H 0.59685 0.84892 0.84893 0.0
H650 H 0.55708 0.8817 0.87819 0.0
H651 H 0.54536 0.92615 0.91778 0.0
H652 H 0.626 0.98315 0.96625 0.0
H653 H 0.66548 0.95079 0.93643 0.0
C654 C 0.6509 0.90075 0.89327 0.0
C655 C 0.6399 0.87503 0.87118 0.0
C656 C 0.62832 0.91971 0.90997 0.0
C657 C 0.60589 0.86845 0.86602 0.0
C658 C 0.58319 0.88726 0.88259 0.0
C659 C 0.57157 0.93164 0.9218 0.0
C660 C 0.58264 0.95707 0.9443 0.0
C661 C 0.59417 0.9129 0.90468 0.0
C662 C 0.61672 0.96374 0.94912 0.0
C663 C 0.63935 0.94523 0.93211 0.0
H664 H 0.86809 0.15404 0.47902 0.0
H665 H 0.87649 0.09459 0.38653 0.0
H666 H 0.91136 0.06047 0.41697 0.0
H667 H 0.93759 0.04594 0.47064 0.0
H668 H 0.92663 0.10359 0.56387 0.0
H669 H 0.89403 0.13949 0.53258 0.0
C670 C 0.87727 0.13348 0.46553 0.0
C671 C 0.86957 0.12705 0.43045 0.0
C672 C 0.89664 0.1134 0.48344 0.0
C673 C 0.88237 0.10059 0.41332 0.0
C674 C 0.9021 0.08079 0.43081 0.0
C675 C 0.92808 0.06641 0.48403 0.0
C676 C 0.93433 0.07211 0.51947 0.0
C677 C 0.90914 0.08679 0.46595 0.0
C678 C 0.92193 0.09866 0.53659 0.0
C679 C 0.90337 0.11922 0.51871 0.0
H680 H 0.18049 0.65291 0.11398 0.0
H681 H 0.23583 0.5754 0.07649 0.0
H682 H 0.1861 0.54858 0.05079 0.0
H683 H 0.12665 0.54653 0.04008 0.0
H684 H 0.07147 0.62525 0.07471 0.0
H685 H 0.12126 0.65237 0.1 0.0
C686 C 0.18153 0.63016 0.10015 0.0
C687 C 0.21168 0.61601 0.09728 0.0
C688 C 0.15291 0.61517 0.08481 0.0
C689 C 0.21289 0.58673 0.07895 0.0
C690 C 0.18447 0.57139 0.06431 0.0
C691 C 0.12551 0.5697 0.05301 0.0
C692 C 0.09526 0.58373 0.0556 0.0
C693 C 0.15431 0.5853 0.06719 0.0
C694 C 0.0944 0.61394 0.07216 0.0
C695 C 0.12285 0.6294 0.08682 0.0
H696 H 0.31165 0.42285 0.56659 0.0
H697 H 0.35857 0.42669 0.66593 0.0
H698 H 0.4113 0.44609 0.63817 0.0
H699 H 0.44437 0.46085 0.58534 0.0
H700 H 0.39857 0.45281 0.48534 0.0
H701 H 0.34515 0.43635 0.51344 0.0
C702 C 0.33345 0.42813 0.58207 0.0
C703 C 0.33131 0.42355 0.61823 0.0
C704 C 0.36385 0.43847 0.56576 0.0
C705 C 0.35973 0.43002 0.63804 0.0
C706 C 0.38982 0.44114 0.62218 0.0
C707 C 0.42263 0.45561 0.56976 0.0
C708 C 0.42531 0.45811 0.53333 0.0
C709 C 0.39223 0.4453 0.58604 0.0
C710 C 0.39707 0.45096 0.51341 0.0
C711 C 0.36655 0.44158 0.52948 0.0
H712 H 0.8284 0.67566 0.96411 0.0
H713 H 0.89286 0.70281 0.87685 0.0
H714 H 0.93923 0.68181 0.90516 0.0
H715 H 0.95996 0.65105 0.95165 0.0
H716 H 0.89504 0.61928 0.03686 0.0
H717 H 0.85053 0.64743 0.01312 0.0
C718 C 0.85272 0.67712 0.95163 0.0
C719 C 0.85731 0.69016 0.91837 0.0
C720 C 0.87912 0.66434 0.96775 0.0
C721 C 0.88881 0.69222 0.90225 0.0
C722 C 0.91531 0.68042 0.91846 0.0
C723 C 0.9363 0.65094 0.96543 0.0
C724 C 0.93061 0.63321 0.9958 0.0
C725 C 0.91057 0.6658 0.95081 0.0
C726 C 0.89984 0.6329 0.01334 0.0
C727 C 0.87436 0.64874 0.99965 0.0
H728 H 0.41174 0.84174 0.07591 0.0
H729 H 0.49642 0.81904 0.13277 0.0
H730 H 0.528 0.86719 0.11116 0.0
H731 H 0.53136 0.91646 0.07721 0.0
H732 H 0.4461 0.94112 0.02269 0.0
H733 H 0.41514 0.89147 0.04176 0.0
C734 C 0.43718 0.84726 0.08333 0.0
C735 C 0.45167 0.82681 0.106 0.0
C736 C 0.45512 0.87535 0.07114 0.0
C737 C 0.48456 0.83451 0.11568 0.0
C738 C 0.50269 0.86199 0.10321 0.0
C739 C 0.50606 0.91088 0.06934 0.0
C740 C 0.49111 0.93236 0.04838 0.0
C741 C 0.4882 0.88269 0.08111 0.0
C742 C 0.45822 0.9249 0.03864 0.0
C743 C 0.44048 0.89655 0.04965 0.0
H744 H 0.08851 0.22389 0.59495 0.0
H745 H 0.12168 0.18086 0.6871 0.0
H746 H 0.09821 0.12806 0.66686 0.0
H747 H 0.06795 0.09404 0.62277 0.0
H748 H 0.0371 0.13738 0.52954 0.0
H749 H 0.05982 0.18989 0.55036 0.0
C750 C 0.09042 0.20295 0.61066 0.0
C751 C 0.10664 0.2063 0.64256 0.0
C752 C 0.0773 0.17264 0.59861 0.0
C753 C 0.10942 0.17888 0.66238 0.0
C754 C 0.09592 0.14871 0.65086 0.0
C755 C 0.0662 0.11499 0.60705 0.0
C756 C 0.05078 0.11167 0.57463 0.0
C757 C 0.07978 0.14526 0.61899 0.0
C758 C 0.04898 0.13909 0.55448 0.0
C759 C 0.06188 0.16923 0.56641 0.0
H760 H 0.6248 0.32867 0.37154 0.0
H761 H 0.70313 0.35991 0.44115 0.0
H762 H 0.6707 0.4023 0.4648 0.0
H763 H 0.6195 0.42938 0.46681 0.0
H764 H 0.53984 0.39649 0.39953 0.0
H765 H 0.57343 0.35597 0.37348 0.0
C766 C 0.63482 0.345 0.39165 0.0
C767 C 0.66628 0.34133 0.40457 0.0
C768 C 0.61581 0.36892 0.40548 0.0
C769 C 0.67887 0.36225 0.43098 0.0
C770 C 0.6604 0.38649 0.44441 0.0
C771 C 0.60962 0.41348 0.44625 0.0
C772 C 0.57737 0.41589 0.43493 0.0
C773 C 0.62877 0.38989 0.43203 0.0
C774 C 0.56466 0.39501 0.40857 0.0
C775 C 0.58383 0.37187 0.39374 0.0
loop_
_geom_bond_atom_site_label_1
_geom_bond_atom_site_label_2
_geom_bond_distance
_geom_bond_site_symmetry_2
_ccdc_geom_bond_type
C0 C1 1.386 . S
C0 C2 1.397 . S
C0 H24 0.931 . S
C1 C0 1.386 . S
C1 C5 1.397 . S
C2 C0 1.397 . S
C2 C3 1.384 . S
C2 H25 0.930 . S
C3 C2 1.384 . S
C3 C4 1.377 . S
C3 C6 1.481 . S
C4 C3 1.377 . S
C4 C5 1.389 . S
C4 H26 0.929 . S
C5 C1 1.397 . S
C5 C4 1.389 . S
C5 H27 0.931 . S
C6 C3 1.481 . S
C6 C7 1.387 . S
C6 C11 1.390 . S
C7 C6 1.387 . S
C7 C8 1.401 . S
C7 H28 0.930 . S
C8 C7 1.401 . S
C8 C9 1.376 . S
C8 C17 1.511 . S
C9 C8 1.376 . S
C9 C10 1.392 . S
C9 H30 0.931 . S
C10 C9 1.392 . S
C10 C11 1.361 . S
C10 C12 1.500 . S
C11 C6 1.390 . S
C11 C10 1.361 . S
C11 H29 0.931 . S
C12 C10 1.500 . S
C12 C13 1.371 . S
C12 C14 1.365 . S
C13 C12 1.371 . S
C13 C23 1.386 . S
C13 H31 0.931 . S
C14 C12 1.365 . S
C14 C15 1.409 . S
C14 H32 0.929 . S
C15 C14 1.409 . S
C15 C16 1.380 . S
C15 H33 0.930 . S
C16 C15 1.380 . S
C16 C23 1.357 . S
C17 C8 1.511 . S
C17 C18 1.341 . S
C17 C19 1.371 . S
C18 C17 1.341 . S
C18 C22 1.394 . S
C18 H34 0.930 . S
C19 C17 1.371 . S
C19 C20 1.392 . S
C19 H35 0.931 . S
C20 C19 1.392 . S
C20 C21 1.331 . S
C20 H38 0.932 . S
C21 C20 1.331 . S
C21 C22 1.336 . S
C22 C18 1.394 . S
C22 C21 1.336 . S
C22 H37 0.929 . S
C23 C13 1.386 . S
C23 C16 1.357 . S
C23 H36 0.928 . S
H24 C0 0.931 . S
H25 C2 0.930 . S
H26 C4 0.929 . S
H27 C5 0.931 . S
H28 C7 0.930 . S
H29 C11 0.931 . S
H30 C9 0.931 . S
H31 C13 0.931 . S
H32 C14 0.929 . S
H33 C15 0.930 . S
H34 C18 0.930 . S
H35 C19 0.931 . S
H36 C23 0.928 . S
H37 C22 0.929 . S
H38 C20 0.932 . S
C39 C40 1.386 . S
C39 C41 1.397 . S
C39 H63 0.931 . S
C40 C39 1.386 . S
C40 C44 1.397 . S
C41 C39 1.397 . S
C41 C42 1.384 . S
C41 H64 0.930 . S
C42 C41 1.384 . S
C42 C43 1.377 . S
C42 C45 1.481 . S
C43 C42 1.377 . S
C43 C44 1.389 . S
C43 H65 0.929 . S
C44 C40 1.397 . S
C44 C43 1.389 . S
C44 H66 0.931 . S
C45 C42 1.481 . S
C45 C46 1.387 . S
C45 C50 1.390 . S
C46 C45 1.387 . S
C46 C47 1.401 . S
C46 H67 0.930 . S
C47 C46 1.401 . S
C47 C48 1.376 . S
C47 C56 1.511 . S
C48 C47 1.376 . S
C48 C49 1.392 . S
C48 H69 0.931 . S
C49 C48 1.392 . S
C49 C50 1.361 . S
C49 C51 1.500 . S
C50 C45 1.390 . S
C50 C49 1.361 . S
C50 H68 0.931 . S
C51 C49 1.500 . S
C51 C52 1.371 . S
C51 C53 1.365 . S
C52 C51 1.371 . S
C52 C62 1.386 . S
C52 H70 0.931 . S
C53 C51 1.365 . S
C53 C54 1.409 . S
C53 H71 0.929 . S
C54 C53 1.409 . S
C54 C55 1.380 . S
C54 H72 0.930 . S
C55 C54 1.380 . S
C55 C62 1.357 . S
C56 C47 1.511 . S
C56 C57 1.341 . S
C56 C58 1.371 . S
C57 C56 1.341 . S
C57 C61 1.394 . S
C57 H73 0.930 . S
C58 C56 1.371 . S
C58 C59 1.392 . S
C58 H74 0.931 . S
C59 C58 1.392 . S
C59 C60 1.331 . S
C59 H77 0.932 . S
C60 C59 1.331 . S
C60 C61 1.336 . S
C61 C57 1.394 . S
C61 C60 1.336 . S
C61 H76 0.929 . S
C62 C52 1.386 . S
C62 C55 1.357 . S
C62 H75 0.928 . S
H63 C39 0.931 . S
H64 C41 0.930 . S
H65 C43 0.929 . S
H66 C44 0.931 . S
H67 C46 0.930 . S
H68 C50 0.931 . S
H69 C48 0.931 . S
H70 C52 0.931 . S
H71 C53 0.929 . S
H72 C54 0.930 . S
H73 C57 0.930 . S
H74 C58 0.931 . S
H75 C62 0.928 . S
H76 C61 0.929 . S
H77 C59 0.932 . S
C78 C79 1.386 . S
C78 C80 1.397 . S
C78 H102 0.931 . S
C79 C78 1.386 . S
C79 C83 1.397 . S
C80 C78 1.397 . S
C80 C81 1.384 . S
C80 H103 0.930 . S
C81 C80 1.384 . S
C81 C82 1.377 . S
C81 C84 1.481 . S
C82 C81 1.377 . S
C82 C83 1.389 . S
C82 H104 0.929 . S
C83 C79 1.397 . S
C83 C82 1.389 . S
C83 H105 0.931 . S
C84 C81 1.481 . S
C84 C85 1.387 . S
C84 C89 1.390 . S
C85 C84 1.387 . S
C85 C86 1.401 . S
C85 H106 0.930 . S
C86 C85 1.401 . S
C86 C87 1.376 . S
C86 C95 1.511 . S
C87 C86 1.376 . S
C87 C88 1.392 . S
C87 H108 0.931 . S
C88 C87 1.392 . S
C88 C89 1.361 . S
C88 C90 1.500 . S
C89 C84 1.390 . S
C89 C88 1.361 . S
C89 H107 0.931 . S
C90 C88 1.500 . S
C90 C91 1.371 . S
C90 C92 1.365 . S
C91 C90 1.371 . S
C91 C101 1.386 . S
C91 H109 0.931 . S
C92 C90 1.365 . S
C92 C93 1.409 . S
C92 H110 0.929 . S
C93 C92 1.409 . S
C93 C94 1.380 . S
C93 H111 0.930 . S
C94 C93 1.380 . S
C94 C101 1.357 . S
C95 C86 1.511 . S
C95 C96 1.341 . S
C95 C97 1.371 . S
C96 C95 1.341 . S
C96 C100 1.394 . S
C96 H112 0.930 . S
C97 C95 1.371 . S
C97 C98 1.392 . S
C97 H113 0.931 . S
C98 C97 1.392 . S
C98 C99 1.331 . S
C98 H116 0.932 . S
C99 C98 1.331 . S
C99 C100 1.336 . S
C100 C96 1.394 . S
C100 C99 1.336 . S
C100 H115 0.929 . S
C101 C91 1.386 . S
C101 C94 1.357 . S
C101 H114 0.928 . S
H102 C78 0.931 . S
H103 C80 0.930 . S
H104 C82 0.929 . S
H105 C83 0.931 . S
H106 C85 0.930 . S
H107 C89 0.931 . S
H108 C87 0.931 . S
H109 C91 0.931 . S
H110 C92 0.929 . S
H111 C93 0.930 . S
H112 C96 0.930 . S
H113 C97 0.931 . S
H114 C101 0.928 . S
H115 C100 0.929 . S
H116 C98 0.932 . S
C117 C118 1.386 . S
C117 C119 1.397 . S
C117 H141 0.931 . S
C118 C117 1.386 . S
C118 C122 1.397 . S
C119 C117 1.397 . S
C119 C120 1.384 . S
C119 H142 0.930 . S
C120 C119 1.384 . S
C120 C121 1.377 . S
C120 C123 1.481 . S
C121 C120 1.377 . S
C121 C122 1.389 . S
C121 H143 0.929 . S
C122 C118 1.397 . S
C122 C121 1.389 . S
C122 H144 0.931 . S
C123 C120 1.481 . S
C123 C124 1.387 . S
C123 C128 1.390 . S
C124 C123 1.387 . S
C124 C125 1.401 . S
C124 H145 0.930 . S
C125 C124 1.401 . S
C125 C126 1.376 . S
C125 C134 1.511 . S
C126 C125 1.376 . S
C126 C127 1.392 . S
C126 H147 0.931 . S
C127 C126 1.392 . S
C127 C128 1.361 . S
C127 C129 1.500 . S
C128 C123 1.390 . S
C128 C127 1.361 . S
C128 H146 0.931 . S
C129 C127 1.500 . S
C129 C130 1.371 . S
C129 C131 1.365 . S
C130 C129 1.371 . S
C130 C140 1.386 . S
C130 H148 0.931 . S
C131 C129 1.365 . S
C131 C132 1.409 . S
C131 H149 0.929 . S
C132 C131 1.409 . S
C132 C133 1.380 . S
C132 H150 0.930 . S
C133 C132 1.380 . S
C133 C140 1.357 . S
C134 C125 1.511 . S
C134 C135 1.341 . S
C134 C136 1.371 . S
C135 C134 1.341 . S
C135 C139 1.394 . S
C135 H151 0.930 . S
C136 C134 1.371 . S
C136 C137 1.392 . S
C136 H152 0.931 . S
C137 C136 1.392 . S
C137 C138 1.331 . S
C137 H155 0.932 . S
C138 C137 1.331 . S
C138 C139 1.336 . S
C139 C135 1.394 . S
C139 C138 1.336 . S
C139 H154 0.929 . S
C140 C130 1.386 . S
C140 C133 1.357 . S
C140 H153 0.928 . S
H141 C117 0.931 . S
H142 C119 0.930 . S
H143 C121 0.929 . S
H144 C122 0.931 . S
H145 C124 0.930 . S
H146 C128 0.931 . S
H147 C126 0.931 . S
H148 C130 0.931 . S
H149 C131 0.929 . S
H150 C132 0.930 . S
H151 C135 0.930 . S
H152 C136 0.931 . S
H153 C140 0.928 . S
H154 C139 0.929 . S
H155 C137 0.932 . S
C156 C157 1.386 . S
C156 C158 1.397 . S
C156 H180 0.931 . S
C157 C156 1.386 . S
C157 C161 1.397 . S
C158 C156 1.397 . S
C158 C159 1.384 . S
C158 H181 0.930 . S
C159 C158 1.384 . S
C159 C160 1.377 . S
C159 C162 1.481 . S
C160 C159 1.377 . S
C160 C161 1.389 . S
C160 H182 0.929 . S
C161 C157 1.397 . S
C161 C160 1.389 . S
C161 H183 0.931 . S
C162 C159 1.481 . S
C162 C163 1.387 . S
C162 C167 1.390 . S
C163 C162 1.387 . S
C163 C164 1.401 . S
C163 H184 0.930 . S
C164 C163 1.401 . S
C164 C165 1.376 . S
C164 C173 1.511 . S
C165 C164 1.376 . S
C165 C166 1.392 . S
C165 H186 0.931 . S
C166 C165 1.392 . S
C166 C167 1.361 . S
C166 C168 1.500 . S
C167 C162 1.390 . S
C167 C166 1.361 . S
C167 H185 0.931 . S
C168 C166 1.500 . S
C168 C169 1.371 . S
C168 C170 1.365 . S
C169 C168 1.371 . S
C169 C179 1.386 . S
C169 H187 0.931 . S
C170 C168 1.365 . S
C170 C171 1.409 . S
C170 H188 0.929 . S
C171 C170 1.409 . S
C171 C172 1.380 . S
C171 H189 0.930 . S
C172 C171 1.380 . S
C172 C179 1.357 . S
C173 C164 1.511 . S
C173 C174 1.341 . S
C173 C175 1.371 . S
C174 C173 1.341 . S
C174 C178 1.394 . S
C174 H190 0.930 . S
C175 C173 1.371 . S
C175 C176 1.392 . S
C175 H191 0.931 . S
C176 C175 1.392 . S
C176 C177 1.331 . S
C176 H194 0.932 . S
C177 C176 1.331 . S
C177 C178 1.336 . S
C178 C174 1.394 . S
C178 C177 1.336 . S
C178 H193 0.929 . S
C179 C169 1.386 . S
C179 C172 1.357 . S
C179 H192 0.928 . S
H180 C156 0.931 . S
H181 C158 0.930 . S
H182 C160 0.929 . S
H183 C161 0.931 . S
H184 C163 0.930 . S
H185 C167 0.931 . S
H186 C165 0.931 . S
H187 C169 0.931 . S
H188 C170 0.929 . S
H189 C171 0.930 . S
H190 C174 0.930 . S
H191 C175 0.931 . S
H192 C179 0.928 . S
H193 C178 0.929 . S
H194 C176 0.932 . S
C195 C196 1.386 . S
C195 C197 1.397 . S
C195 H219 0.931 . S
C196 C195 1.386 . S
C196 C200 1.397 . S
C197 C195 1.397 . S
C197 C198 1.384 . S
C197 H220 0.930 . S
C198 C197 1.384 . S
C198 C199 1.377 . S
C198 C201 1.481 . S
C199 C198 1.377 . S
C199 C200 1.389 . S
C199 H221 0.929 . S
C200 C196 1.397 . S
C200 C199 1.389 . S
C200 H222 0.931 . S
C201 C198 1.481 . S
C201 C202 1.387 . S
C201 C206 1.390 . S
C202 C201 1.387 . S
C202 C203 1.401 . S
C202 H223 0.930 . S
C203 C202 1.401 . S
C203 C204 1.376 . S
C203 C212 1.511 . S
C204 C203 1.376 . S
C204 C205 1.392 . S
C204 H225 0.931 . S
C205 C204 1.392 . S
C205 C206 1.361 . S
C205 C207 1.500 . S
C206 C201 1.390 . S
C206 C205 1.361 . S
C206 H224 0.931 . S
C207 C205 1.500 . S
C207 C208 1.371 . S
C207 C209 1.365 . S
C208 C207 1.371 . S
C208 C218 1.386 . S
C208 H226 0.931 . S
C209 C207 1.365 . S
C209 C210 1.409 . S
C209 H227 0.929 . S
C210 C209 1.409 . S
C210 C211 1.380 . S
C210 H228 0.930 . S
C211 C210 1.380 . S
C211 C218 1.357 . S
C212 C203 1.511 . S
C212 C213 1.341 . S
C212 C214 1.371 . S
C213 C212 1.341 . S
C213 C217 1.394 . S
C213 H229 0.930 . S
C214 C212 1.371 . S
C214 C215 1.392 . S
C214 H230 0.931 . S
C215 C214 1.392 . S
C215 C216 1.331 . S
C215 H233 0.932 . S
C216 C215 1.331 . S
C216 C217 1.336 . S
C217 C213 1.394 . S
C217 C216 1.336 . S
C217 H232 0.929 . S
C218 C208 1.386 . S
C218 C211 1.357 . S
C218 H231 0.928 . S
H219 C195 0.931 . S
H220 C197 0.930 . S
H221 C199 0.929 . S
H222 C200 0.931 . S
H223 C202 0.930 . S
H224 C206 0.931 . S
H225 C204 0.931 . S
H226 C208 0.931 . S
H227 C209 0.929 . S
H228 C210 0.930 . S
H229 C213 0.930 . S
H230 C214 0.931 . S
H231 C218 0.928 . S
H232 C217 0.929 . S
H233 C215 0.932 . S
C234 C235 1.386 . S
C234 C236 1.397 . S
C234 H258 0.931 . S
C235 C234 1.386 . S
C235 C239 1.397 . S
C236 C234 1.397 . S
C236 C237 1.384 . S
C236 H259 0.930 . S
C237 C236 1.384 . S
C237 C238 1.377 . S
C237 C240 1.481 . S
C238 C237 1.377 . S
C238 C239 1.389 . S
C238 H260 0.929 . S
C239 C235 1.397 . S
C239 C238 1.389 . S
C239 H261 0.931 . S
C240 C237 1.481 . S
C240 C241 1.387 . S
C240 C245 1.390 . S
C241 C240 1.387 . S
C241 C242 1.401 . S
C241 H262 0.930 . S
C242 C241 1.401 . S
C242 C243 1.376 . S
C242 C251 1.511 . S
C243 C242 1.376 . S
C243 C244 1.392 . S
C243 H264 0.931 . S
C244 C243 1.392 . S
C244 C245 1.361 . S
C244 C246 1.500 . S
C245 C240 1.390 . S
C245 C244 1.361 . S
C245 H263 0.931 . S
C246 C244 1.500 . S
C246 C247 1.371 . S
C246 C248 1.365 . S
C247 C246 1.371 . S
C247 C257 1.386 . S
C247 H265 0.931 . S
C248 C246 1.365 . S
C248 C249 1.409 . S
C248 H266 0.929 . S
C249 C248 1.409 . S
C249 C250 1.380 . S
C249 H267 0.930 . S
C250 C249 1.380 . S
C250 C257 1.357 . S
C251 C242 1.511 . S
C251 C252 1.341 . S
C251 C253 1.371 . S
C252 C251 1.341 . S
C252 C256 1.394 . S
C252 H268 0.930 . S
C253 C251 1.371 . S
C253 C254 1.392 . S
C253 H269 0.931 . S
C254 C253 1.392 . S
C254 C255 1.331 . S
C254 H272 0.932 . S
C255 C254 1.331 . S
C255 C256 1.336 . S
C256 C252 1.394 . S
C256 C255 1.336 . S
C256 H271 0.929 . S
C257 C247 1.386 . S
C257 C250 1.357 . S
C257 H270 0.928 . S
H258 C234 0.931 . S
H259 C236 0.930 . S
H260 C238 0.929 . S
H261 C239 0.931 . S
H262 C241 0.930 . S
H263 C245 0.931 . S
H264 C243 0.931 . S
H265 C247 0.931 . S
H266 C248 0.929 . S
H267 C249 0.930 . S
H268 C252 0.930 . S
H269 C253 0.931 . S
H270 C257 0.928 . S
H271 C256 0.929 . S
H272 C254 0.932 . S
C273 C274 1.386 . S
C273 C275 1.397 . S
C273 H297 0.931 . S
C274 C273 1.386 . S
C274 C278 1.397 . S
C275 C273 1.397 . S
C275 C276 1.384 . S
C275 H298 0.930 . S
C276 C275 1.384 . S
C276 C277 1.377 . S
C276 C279 1.481 . S
C277 C276 1.377 . S
C277 C278 1.389 . S
C277 H299 0.929 . S
C278 C274 1.397 . S
C278 C277 1.389 . S
C278 H300 0.931 . S
C279 C276 1.481 . S
C279 C280 1.387 . S
C279 C284 1.390 . S
C280 C279 1.387 . S
C280 C281 1.401 . S
C280 H301 0.930 . S
C281 C280 1.401 . S
C281 C282 1.376 . S
C281 C290 1.511 . S
C282 C281 1.376 . S
C282 C283 1.392 . S
C282 H303 0.931 . S
C283 C282 1.392 . S
C283 C284 1.361 . S
C283 C285 1.500 . S
C284 C279 1.390 . S
C284 C283 1.361 . S
C284 H302 0.931 . S
C285 C283 1.500 . S
C285 C286 1.371 . S
C285 C287 1.365 . S
C286 C285 1.371 . S
C286 C296 1.386 . S
C286 H304 0.931 . S
C287 C285 1.365 . S
C287 C288 1.409 . S
C287 H305 0.929 . S
C288 C287 1.409 . S
C288 C289 1.380 . S
C288 H306 0.930 . S
C289 C288 1.380 . S
C289 C296 1.357 . S
C290 C281 1.511 . S
C290 C291 1.341 . S
C290 C292 1.371 . S
C291 C290 1.341 . S
C291 C295 1.394 . S
C291 H307 0.930 . S
C292 C290 1.371 . S
C292 C293 1.392 . S
C292 H308 0.931 . S
C293 C292 1.392 . S
C293 C294 1.331 . S
C293 H311 0.932 . S
C294 C293 1.331 . S
C294 C295 1.336 . S
C295 C291 1.394 . S
C295 C294 1.336 . S
C295 H310 0.929 . S
C296 C286 1.386 . S
C296 C289 1.357 . S
C296 H309 0.928 . S
H297 C273 0.931 . S
H298 C275 0.930 . S
H299 C277 0.929 . S
H300 C278 0.931 . S
H301 C280 0.930 . S
H302 C284 0.931 . S
H303 C282 0.931 . S
H304 C286 0.931 . S
H305 C287 0.929 . S
H306 C288 0.930 . S
H307 C291 0.930 . S
H308 C292 0.931 . S
H309 C296 0.928 . S
H310 C295 0.929 . S
H311 C293 0.932 . S
Dy312 O316 2.398 . S
Dy312 O317 2.491 . S
Dy312 O318 2.403 1_545 S
Dy312 O319 2.664 1_545 S
Dy312 O323 2.326 . S
Dy312 O327 2.310 1_455 S
Dy312 O328 2.351 1_445 S
C313 O324 1.185 . S
C313 O325 1.355 . S
C314 O316 1.185 . S
C314 O317 1.355 . S
Dy315 O319 2.310 1_655 S
Dy315 O322 2.351 1_665 S
Dy315 O324 2.398 . S
Dy315 O325 2.491 . S
Dy315 O326 2.403 1_565 S
Dy315 O327 2.664 1_565 S
Dy315 O329 2.326 . S
O316 Dy312 2.398 . S
O316 C314 1.185 . S
O317 Dy312 2.491 . S
O317 C314 1.355 . S
O318 Dy312 2.403 1_565 S
O318 C320 1.254 . S
O319 Dy312 2.664 1_565 S
O319 Dy315 2.310 1_455 S
O319 C320 1.268 . S
C320 O318 1.254 . S
C320 O319 1.268 . S
C321 O326 1.254 . S
C321 O327 1.268 . S
O322 Dy315 2.351 1_445 S
O322 C330 1.249 . S
O323 Dy312 2.326 . S
O323 C330 1.267 . S
O324 C313 1.185 . S
O324 Dy315 2.398 . S
O325 C313 1.355 . S
O325 Dy315 2.491 . S
O326 Dy315 2.403 1_545 S
O326 C321 1.254 . S
O327 Dy312 2.310 1_655 S
O327 Dy315 2.664 1_545 S
O327 C321 1.268 . S
O328 Dy312 2.351 1_665 S
O328 C331 1.249 . S
O329 Dy315 2.326 . S
O329 C331 1.267 . S
C330 O322 1.249 . S
C330 O323 1.267 . S
C331 O328 1.249 . S
C331 O329 1.267 . S
Dy332 O336 2.398 . S
Dy332 O337 2.491 . S
Dy332 O338 2.403 1_545 S
Dy332 O339 2.664 1_545 S
Dy332 O343 2.326 . S
Dy332 O347 2.310 1_554 S
Dy332 O348 2.351 1_544 S
C333 O344 1.185 . S
C333 O345 1.355 . S
C334 O336 1.185 . S
C334 O337 1.355 . S
Dy335 O339 2.293 1_546 S
Dy335 O342 2.366 1_556 S
Dy335 O344 2.395 1_545 S
Dy335 O345 2.469 1_545 S
Dy335 O346 2.424 . S
Dy335 O347 2.676 . S
Dy335 O349 2.316 1_545 S
O336 Dy332 2.398 . S
O336 C334 1.185 . S
O337 Dy332 2.491 . S
O337 C334 1.355 . S
O338 Dy332 2.403 1_565 S
O338 C340 1.254 . S
O339 Dy332 2.664 1_565 S
O339 Dy335 2.293 1_564 S
O339 C340 1.268 . S
C340 O338 1.254 . S
C340 O339 1.268 . S
C341 O346 1.254 . S
C341 O347 1.268 . S
O342 Dy335 2.366 1_554 S
O342 C350 1.249 . S
O343 Dy332 2.326 . S
O343 C350 1.267 . S
O344 C333 1.185 . S
O344 Dy335 2.395 1_565 S
O345 C333 1.355 . S
O345 Dy335 2.469 1_565 S
O346 Dy335 2.424 . S
O346 C341 1.254 . S
O347 Dy332 2.310 1_556 S
O347 Dy335 2.676 . S
O347 C341 1.268 . S
O348 Dy332 2.351 1_566 S
O348 C351 1.249 . S
O349 Dy335 2.316 1_565 S
O349 C351 1.267 . S
C350 O342 1.249 . S
C350 O343 1.267 . S
C351 O348 1.249 . S
C351 O349 1.267 . S
Dy352 O356 2.398 . S
Dy352 O357 2.491 . S
Dy352 O358 2.403 . S
Dy352 O359 2.664 . S
Dy352 O363 2.326 . S
Dy352 O367 2.310 . S
Dy352 O368 2.351 . S
C353 O364 1.185 . S
C353 O365 1.355 . S
C354 O356 1.185 . S
C354 O357 1.355 . S
Dy355 O359 2.310 . S
Dy355 O362 2.351 . S
Dy355 O364 2.398 . S
Dy355 O365 2.491 . S
Dy355 O366 2.403 . S
Dy355 O367 2.664 . S
Dy355 O369 2.326 . S
O356 Dy352 2.398 . S
O356 C354 1.185 . S
O357 Dy352 2.491 . S
O357 C354 1.355 . S
O358 Dy352 2.403 . S
O358 C360 1.254 . S
O359 Dy352 2.664 . S
O359 Dy355 2.310 . S
O359 C360 1.268 . S
C360 O358 1.254 . S
C360 O359 1.268 . S
C361 O366 1.254 . S
C361 O367 1.268 . S
O362 Dy355 2.351 . S
O362 C370 1.249 . S
O363 Dy352 2.326 . S
O363 C370 1.267 . S
O364 C353 1.185 . S
O364 Dy355 2.398 . S
O365 C353 1.355 . S
O365 Dy355 2.491 . S
O366 Dy355 2.403 . S
O366 C361 1.254 . S
O367 Dy352 2.310 . S
O367 Dy355 2.664 . S
O367 C361 1.268 . S
O368 Dy352 2.351 . S
O368 C371 1.249 . S
O369 Dy355 2.326 . S
O369 C371 1.267 . S
C370 O362 1.249 . S
C370 O363 1.267 . S
C371 O368 1.249 . S
C371 O369 1.267 . S
Dy372 O376 2.398 . S
Dy372 O377 2.491 . S
Dy372 O378 2.403 1_455 S
Dy372 O379 2.664 1_455 S
Dy372 O383 2.326 . S
Dy372 O387 2.310 1_554 S
Dy372 O388 2.351 1_454 S
C373 O384 1.185 . S
C373 O385 1.355 . S
C374 O376 1.185 . S
C374 O377 1.355 . S
Dy375 O379 2.310 1_556 S
Dy375 O382 2.351 1_656 S
Dy375 O384 2.398 . S
Dy375 O385 2.491 . S
Dy375 O386 2.403 1_655 S
Dy375 O387 2.664 1_655 S
Dy375 O389 2.326 . S
O376 Dy372 2.398 . S
O376 C374 1.185 . S
O377 Dy372 2.491 . S
O377 C374 1.355 . S
O378 Dy372 2.403 1_655 S
O378 C380 1.254 . S
O379 Dy372 2.664 1_655 S
O379 Dy375 2.310 1_554 S
O379 C380 1.268 . S
C380 O378 1.254 . S
C380 O379 1.268 . S
C381 O386 1.254 . S
C381 O387 1.268 . S
O382 Dy375 2.351 1_454 S
O382 C390 1.249 . S
O383 Dy372 2.326 . S
O383 C390 1.267 . S
O384 C373 1.185 . S
O384 Dy375 2.398 . S
O385 C373 1.355 . S
O385 Dy375 2.491 . S
O386 Dy375 2.403 1_455 S
O386 C381 1.254 . S
O387 Dy372 2.310 1_556 S
O387 Dy375 2.664 1_455 S
O387 C381 1.268 . S
O388 Dy372 2.351 1_656 S
O388 C391 1.249 . S
O389 Dy375 2.326 . S
O389 C391 1.267 . S
C390 O382 1.249 . S
C390 O383 1.267 . S
C391 O388 1.249 . S
C391 O389 1.267 . S
H392 C398 0.930 . S
H393 C401 0.930 . S
H394 C402 0.930 . S
H395 C403 0.930 . S
H396 C406 0.930 . S
H397 C407 0.930 . S
C398 H392 0.930 . S
C398 C399 1.355 . S
C398 C400 1.415 . S
C399 C398 1.355 . S
C399 C401 1.419 . S
C400 C398 1.415 . S
C400 C405 1.425 . S
C400 C407 1.409 . S
C401 H393 0.930 . S
C401 C399 1.419 . S
C401 C402 1.362 . S
C402 H394 0.930 . S
C402 C401 1.362 . S
C402 C405 1.409 . S
C403 H395 0.930 . S
C403 C404 1.355 . S
C403 C405 1.415 . S
C404 C403 1.355 . S
C404 C406 1.419 . S
C405 C400 1.425 . S
C405 C402 1.409 . S
C405 C403 1.415 . S
C406 H396 0.930 . S
C406 C404 1.419 . S
C406 C407 1.362 . S
C407 H397 0.930 . S
C407 C400 1.409 . S
C407 C406 1.362 . S
H408 C414 0.930 . S
H409 C417 0.930 . S
H410 C418 0.930 . S
H411 C419 0.930 . S
H412 C422 0.932 1_545 S
H413 C423 0.930 . S
C414 H408 0.930 . S
C414 C415 1.355 . S
C414 C416 1.415 . S
C415 C414 1.355 . S
C415 C417 1.419 . S
C416 C414 1.415 . S
C416 C421 1.425 . S
C416 C423 1.409 . S
C417 H409 0.930 . S
C417 C415 1.419 . S
C417 C418 1.362 . S
C418 H410 0.930 . S
C418 C417 1.362 . S
C418 C421 1.409 . S
C419 H411 0.930 . S
C419 C420 1.355 . S
C419 C421 1.415 . S
C420 C419 1.355 . S
C420 C422 1.419 . S
C421 C416 1.425 . S
C421 C418 1.409 . S
C421 C419 1.415 . S
C422 H412 0.932 1_565 S
C422 C420 1.419 . S
C422 C423 1.362 . S
C423 H413 0.930 . S
C423 C416 1.409 . S
C423 C422 1.362 . S
H424 C430 0.930 . S
H425 C433 0.930 . S
H426 C434 0.930 . S
H427 C435 0.930 . S
H428 C438 0.930 . S
H429 C439 0.930 . S
C430 H424 0.930 . S
C430 C431 1.355 . S
C430 C432 1.415 . S
C431 C430 1.355 . S
C431 C433 1.419 . S
C432 C430 1.415 . S
C432 C437 1.425 . S
C432 C439 1.409 . S
C433 H425 0.930 . S
C433 C431 1.419 . S
C433 C434 1.362 . S
C434 H426 0.930 . S
C434 C433 1.362 . S
C434 C437 1.409 . S
C435 H427 0.930 . S
C435 C436 1.355 . S
C435 C437 1.415 . S
C436 C435 1.355 . S
C436 C438 1.419 . S
C437 C432 1.425 . S
C437 C434 1.409 . S
C437 C435 1.415 . S
C438 H428 0.930 . S
C438 C436 1.419 . S
C438 C439 1.362 . S
C439 H429 0.930 . S
C439 C432 1.409 . S
C439 C438 1.362 . S
H440 C446 0.930 . S
H441 C449 0.930 . S
H442 C450 0.930 . S
H443 C451 0.930 . S
H444 C454 0.930 1_455 S
H445 C455 0.930 . S
C446 H440 0.930 . S
C446 C447 1.355 . S
C446 C448 1.415 . S
C447 C446 1.355 . S
C447 C449 1.419 . S
C448 C446 1.415 . S
C448 C453 1.425 . S
C448 C455 1.409 . S
C449 H441 0.930 . S
C449 C447 1.419 . S
C449 C450 1.362 . S
C450 H442 0.930 . S
C450 C449 1.362 . S
C450 C453 1.409 . S
C451 H443 0.930 . S
C451 C452 1.355 . S
C451 C453 1.415 . S
C452 C451 1.355 . S
C452 C454 1.419 . S
C453 C448 1.425 . S
C453 C450 1.409 . S
C453 C451 1.415 . S
C454 H444 0.930 1_655 S
C454 C452 1.419 . S
C454 C455 1.362 . S
C455 H445 0.930 . S
C455 C448 1.409 . S
C455 C454 1.362 . S
H456 C462 0.930 . S
H457 C465 0.930 . S
H458 C466 0.930 . S
H459 C467 0.930 . S
H460 C470 0.930 . S
H461 C471 0.930 . S
C462 H456 0.930 . S
C462 C463 1.355 . S
C462 C464 1.415 . S
C463 C462 1.355 . S
C463 C465 1.419 . S
C464 C462 1.415 . S
C464 C469 1.425 . S
C464 C471 1.409 . S
C465 H457 0.930 . S
C465 C463 1.419 . S
C465 C466 1.362 . S
C466 H458 0.930 . S
C466 C465 1.362 . S
C466 C469 1.409 . S
C467 H459 0.930 . S
C467 C468 1.355 . S
C467 C469 1.415 . S
C468 C467 1.355 . S
C468 C470 1.419 . S
C469 C464 1.425 . S
C469 C466 1.409 . S
C469 C467 1.415 . S
C470 H460 0.930 . S
C470 C468 1.419 . S
C470 C471 1.362 . S
C471 H461 0.930 . S
C471 C464 1.409 . S
C471 C470 1.362 . S
H472 C478 0.930 . S
H473 C481 0.930 . S
H474 C482 0.930 . S
H475 C483 0.930 . S
H476 C486 0.930 1_545 S
H477 C487 0.908 1_545 S
C478 H472 0.930 . S
C478 C479 1.355 . S
C478 C480 1.415 . S
C479 C478 1.355 . S
C479 C481 1.419 . S
C480 C478 1.415 . S
C480 C485 1.425 . S
C480 C487 1.409 . S
C481 H473 0.930 . S
C481 C479 1.419 . S
C481 C482 1.362 . S
C482 H474 0.930 . S
C482 C481 1.362 . S
C482 C485 1.409 . S
C483 H475 0.930 . S
C483 C484 1.355 . S
C483 C485 1.415 . S
C484 C483 1.355 . S
C484 C486 1.419 . S
C485 C480 1.425 . S
C485 C482 1.409 . S
C485 C483 1.415 . S
C486 H476 0.930 1_565 S
C486 C484 1.419 . S
C486 C487 1.362 . S
C487 H477 0.908 1_565 S
C487 C480 1.409 . S
C487 C486 1.362 . S
H488 C494 0.930 . S
H489 C497 0.930 . S
H490 C498 0.930 . S
H491 C499 0.929 . S
H492 C502 0.930 . S
H493 C503 0.930 . S
C494 H488 0.930 . S
C494 C495 1.355 . S
C494 C496 1.415 . S
C495 C494 1.355 . S
C495 C497 1.419 . S
C496 C494 1.415 . S
C496 C501 1.425 . S
C496 C503 1.409 . S
C497 H489 0.930 . S
C497 C495 1.419 . S
C497 C498 1.362 . S
C498 H490 0.930 . S
C498 C497 1.362 . S
C498 C501 1.409 . S
C499 H491 0.929 . S
C499 C500 1.355 . S
C499 C501 1.415 . S
C500 C499 1.355 . S
C500 C502 1.419 . S
C501 C496 1.425 . S
C501 C498 1.409 . S
C501 C499 1.415 . S
C502 H492 0.930 . S
C502 C500 1.419 . S
C502 C503 1.362 . S
C503 H493 0.930 . S
C503 C496 1.409 . S
C503 C502 1.362 . S
H504 C510 0.930 . S
H505 C513 0.930 . S
H506 C514 0.930 . S
H507 C515 0.930 . S
H508 C518 0.930 . S
H509 C519 0.930 . S
C510 H504 0.930 . S
C510 C511 1.355 . S
C510 C512 1.415 . S
C511 C510 1.355 . S
C511 C513 1.419 . S
C512 C510 1.415 . S
C512 C517 1.425 . S
C512 C519 1.409 . S
C513 H505 0.930 . S
C513 C511 1.419 . S
C513 C514 1.362 . S
C514 H506 0.930 . S
C514 C513 1.362 . S
C514 C517 1.409 . S
C515 H507 0.930 . S
C515 C516 1.355 . S
C515 C517 1.415 . S
C516 C515 1.355 . S
C516 C518 1.419 . S
C517 C512 1.425 . S
C517 C514 1.409 . S
C517 C515 1.415 . S
C518 H508 0.930 . S
C518 C516 1.419 . S
C518 C519 1.362 . S
C519 H509 0.930 . S
C519 C512 1.409 . S
C519 C518 1.362 . S
H520 C526 0.930 . S
H521 C529 0.930 . S
H522 C530 0.930 . S
H523 C531 0.930 . S
H524 C534 0.930 . S
H525 C535 0.930 . S
C526 H520 0.930 . S
C526 C527 1.355 . S
C526 C528 1.415 . S
C527 C526 1.355 . S
C527 C529 1.419 . S
C528 C526 1.415 . S
C528 C533 1.425 . S
C528 C535 1.409 . S
C529 H521 0.930 . S
C529 C527 1.419 . S
C529 C530 1.362 . S
C530 H522 0.930 . S
C530 C529 1.362 . S
C530 C533 1.409 . S
C531 H523 0.930 . S
C531 C532 1.355 . S
C531 C533 1.415 . S
C532 C531 1.355 . S
C532 C534 1.419 . S
C533 C528 1.425 . S
C533 C530 1.409 . S
C533 C531 1.415 . S
C534 H524 0.930 . S
C534 C532 1.419 . S
C534 C535 1.362 . S
C535 H525 0.930 . S
C535 C528 1.409 . S
C535 C534 1.362 . S
H536 C542 0.930 . S
H537 C545 0.930 . S
H538 C546 0.930 . S
H539 C547 0.930 . S
H540 C550 0.930 . S
H541 C551 0.930 . S
C542 H536 0.930 . S
C542 C543 1.355 . S
C542 C544 1.415 . S
C543 C542 1.355 . S
C543 C545 1.419 . S
C544 C542 1.415 . S
C544 C549 1.425 . S
C544 C551 1.409 . S
C545 H537 0.930 . S
C545 C543 1.419 . S
C545 C546 1.362 . S
C546 H538 0.930 . S
C546 C545 1.362 . S
C546 C549 1.409 . S
C547 H539 0.930 . S
C547 C548 1.355 . S
C547 C549 1.415 . S
C548 C547 1.355 . S
C548 C550 1.419 . S
C549 C544 1.425 . S
C549 C546 1.409 . S
C549 C547 1.415 . S
C550 H540 0.930 . S
C550 C548 1.419 . S
C550 C551 1.362 . S
C551 H541 0.930 . S
C551 C544 1.409 . S
C551 C550 1.362 . S
H552 C558 0.930 . S
H553 C561 0.930 . S
H554 C562 0.930 . S
H555 C563 0.930 . S
H556 C566 0.930 . S
H557 C567 0.930 . S
C558 H552 0.930 . S
C558 C559 1.355 . S
C558 C560 1.415 . S
C559 C558 1.355 . S
C559 C561 1.419 . S
C560 C558 1.415 . S
C560 C565 1.425 . S
C560 C567 1.409 . S
C561 H553 0.930 . S
C561 C559 1.419 . S
C561 C562 1.362 . S
C562 H554 0.930 . S
C562 C561 1.362 . S
C562 C565 1.409 . S
C563 H555 0.930 . S
C563 C564 1.355 . S
C563 C565 1.415 . S
C564 C563 1.355 . S
C564 C566 1.419 . S
C565 C560 1.425 . S
C565 C562 1.409 . S
C565 C563 1.415 . S
C566 H556 0.930 . S
C566 C564 1.419 . S
C566 C567 1.362 . S
C567 H557 0.930 . S
C567 C560 1.409 . S
C567 C566 1.362 . S
H568 C574 0.930 . S
H569 C577 0.930 . S
H570 C578 0.930 . S
H571 C579 0.930 . S
H572 C582 0.930 . S
H573 C583 0.930 . S
C574 H568 0.930 . S
C574 C575 1.355 . S
C574 C576 1.415 . S
C575 C574 1.355 . S
C575 C577 1.419 . S
C576 C574 1.415 . S
C576 C581 1.425 . S
C576 C583 1.409 . S
C577 H569 0.930 . S
C577 C575 1.419 . S
C577 C578 1.362 . S
C578 H570 0.930 . S
C578 C577 1.362 . S
C578 C581 1.409 . S
C579 H571 0.930 . S
C579 C580 1.355 . S
C579 C581 1.415 . S
C580 C579 1.355 . S
C580 C582 1.419 . S
C581 C576 1.425 . S
C581 C578 1.409 . S
C581 C579 1.415 . S
C582 H572 0.930 . S
C582 C580 1.419 . S
C582 C583 1.362 . S
C583 H573 0.930 . S
C583 C576 1.409 . S
C583 C582 1.362 . S
H584 C590 0.930 . S
H585 C593 0.930 . S
H586 C594 0.930 . S
H587 C595 0.930 . S
H588 C598 0.930 . S
H589 C599 0.930 . S
C590 H584 0.930 . S
C590 C591 1.355 . S
C590 C592 1.415 . S
C591 C590 1.355 . S
C591 C593 1.419 . S
C592 C590 1.415 . S
C592 C597 1.425 . S
C592 C599 1.409 . S
C593 H585 0.930 . S
C593 C591 1.419 . S
C593 C594 1.362 . S
C594 H586 0.930 . S
C594 C593 1.362 . S
C594 C597 1.409 . S
C595 H587 0.930 . S
C595 C596 1.355 . S
C595 C597 1.415 . S
C596 C595 1.355 . S
C596 C598 1.419 . S
C597 C592 1.425 . S
C597 C594 1.409 . S
C597 C595 1.415 . S
C598 H588 0.930 . S
C598 C596 1.419 . S
C598 C599 1.362 . S
C599 H589 0.930 . S
C599 C592 1.409 . S
C599 C598 1.362 . S
H600 C606 0.930 . S
H601 C609 0.930 . S
H602 C610 0.930 . S
H603 C611 0.930 . S
H604 C614 0.930 . S
H605 C615 0.930 . S
C606 H600 0.930 . S
C606 C607 1.355 . S
C606 C608 1.415 . S
C607 C606 1.355 . S
C607 C609 1.419 . S
C608 C606 1.415 . S
C608 C613 1.425 . S
C608 C615 1.409 . S
C609 H601 0.930 . S
C609 C607 1.419 . S
C609 C610 1.362 . S
C610 H602 0.930 . S
C610 C609 1.362 . S
C610 C613 1.409 . S
C611 H603 0.930 . S
C611 C612 1.355 . S
C611 C613 1.415 . S
C612 C611 1.355 . S
C612 C614 1.419 . S
C613 C608 1.425 . S
C613 C610 1.409 . S
C613 C611 1.415 . S
C614 H604 0.930 . S
C614 C612 1.419 . S
C614 C615 1.362 . S
C615 H605 0.930 . S
C615 C608 1.409 . S
C615 C614 1.362 . S
H616 C622 0.930 . S
H617 C625 0.930 . S
H618 C626 0.930 . S
H619 C627 0.930 . S
H620 C630 0.930 . S
H621 C631 0.930 . S
C622 H616 0.930 . S
C622 C623 1.355 . S
C622 C624 1.415 . S
C623 C622 1.355 . S
C623 C625 1.419 . S
C624 C622 1.415 . S
C624 C629 1.425 . S
C624 C631 1.409 . S
C625 H617 0.930 . S
C625 C623 1.419 . S
C625 C626 1.362 . S
C626 H618 0.930 . S
C626 C625 1.362 . S
C626 C629 1.409 . S
C627 H619 0.930 . S
C627 C628 1.355 . S
C627 C629 1.415 . S
C628 C627 1.355 . S
C628 C630 1.419 . S
C629 C624 1.425 . S
C629 C626 1.409 . S
C629 C627 1.415 . S
C630 H620 0.930 . S
C630 C628 1.419 . S
C630 C631 1.362 . S
C631 H621 0.930 . S
C631 C624 1.409 . S
C631 C630 1.362 . S
H632 C638 0.930 . S
H633 C641 0.930 . S
H634 C642 0.930 . S
H635 C643 0.930 . S
H636 C646 0.930 . S
H637 C647 0.930 . S
C638 H632 0.930 . S
C638 C639 1.355 . S
C638 C640 1.415 . S
C639 C638 1.355 . S
C639 C641 1.419 . S
C640 C638 1.415 . S
C640 C645 1.425 . S
C640 C647 1.409 . S
C641 H633 0.930 . S
C641 C639 1.419 . S
C641 C642 1.362 . S
C642 H634 0.930 . S
C642 C641 1.362 . S
C642 C645 1.409 . S
C643 H635 0.930 . S
C643 C644 1.355 . S
C643 C645 1.415 . S
C644 C643 1.355 . S
C644 C646 1.419 . S
C645 C640 1.425 . S
C645 C642 1.409 . S
C645 C643 1.415 . S
C646 H636 0.930 . S
C646 C644 1.419 . S
C646 C647 1.362 . S
C647 H637 0.930 . S
C647 C640 1.409 . S
C647 C646 1.362 . S
H648 C654 0.930 . S
H649 C657 0.930 . S
H650 C658 0.930 . S
H651 C659 0.930 . S
H652 C662 0.930 . S
H653 C663 0.930 . S
C654 H648 0.930 . S
C654 C655 1.355 . S
C654 C656 1.415 . S
C655 C654 1.355 . S
C655 C657 1.419 . S
C656 C654 1.415 . S
C656 C661 1.425 . S
C656 C663 1.409 . S
C657 H649 0.930 . S
C657 C655 1.419 . S
C657 C658 1.362 . S
C658 H650 0.930 . S
C658 C657 1.362 . S
C658 C661 1.409 . S
C659 H651 0.930 . S
C659 C660 1.355 . S
C659 C661 1.415 . S
C660 C659 1.355 . S
C660 C662 1.419 . S
C661 C656 1.425 . S
C661 C658 1.409 . S
C661 C659 1.415 . S
C662 H652 0.930 . S
C662 C660 1.419 . S
C662 C663 1.362 . S
C663 H653 0.930 . S
C663 C656 1.409 . S
C663 C662 1.362 . S
H664 C670 0.930 . S
H665 C673 0.930 . S
H666 C674 0.930 . S
H667 C675 0.930 . S
H668 C678 0.930 . S
H669 C679 0.930 . S
C670 H664 0.930 . S
C670 C671 1.355 . S
C670 C672 1.415 . S
C671 C670 1.355 . S
C671 C673 1.419 . S
C672 C670 1.415 . S
C672 C677 1.425 . S
C672 C679 1.409 . S
C673 H665 0.930 . S
C673 C671 1.419 . S
C673 C674 1.362 . S
C674 H666 0.930 . S
C674 C673 1.362 . S
C674 C677 1.409 . S
C675 H667 0.930 . S
C675 C676 1.355 . S
C675 C677 1.415 . S
C676 C675 1.355 . S
C676 C678 1.419 . S
C677 C672 1.425 . S
C677 C674 1.409 . S
C677 C675 1.415 . S
C678 H668 0.930 . S
C678 C676 1.419 . S
C678 C679 1.362 . S
C679 H669 0.930 . S
C679 C672 1.409 . S
C679 C678 1.362 . S
H680 C686 0.930 . S
H681 C689 0.930 . S
H682 C690 0.930 . S
H683 C691 0.930 . S
H684 C694 0.930 . S
H685 C695 0.930 . S
C686 H680 0.930 . S
C686 C687 1.355 . S
C686 C688 1.415 . S
C687 C686 1.355 . S
C687 C689 1.419 . S
C688 C686 1.415 . S
C688 C693 1.425 . S
C688 C695 1.409 . S
C689 H681 0.930 . S
C689 C687 1.419 . S
C689 C690 1.362 . S
C690 H682 0.930 . S
C690 C689 1.362 . S
C690 C693 1.409 . S
C691 H683 0.930 . S
C691 C692 1.355 . S
C691 C693 1.415 . S
C692 C691 1.355 . S
C692 C694 1.419 . S
C693 C688 1.425 . S
C693 C690 1.409 . S
C693 C691 1.415 . S
C694 H684 0.930 . S
C694 C692 1.419 . S
C694 C695 1.362 . S
C695 H685 0.930 . S
C695 C688 1.409 . S
C695 C694 1.362 . S
H696 C702 0.930 . S
H697 C705 0.930 . S
H698 C706 0.930 . S
H699 C707 0.930 . S
H700 C710 0.930 . S
H701 C711 0.930 . S
C702 H696 0.930 . S
C702 C703 1.355 . S
C702 C704 1.415 . S
C703 C702 1.355 . S
C703 C705 1.419 . S
C704 C702 1.415 . S
C704 C709 1.425 . S
C704 C711 1.409 . S
C705 H697 0.930 . S
C705 C703 1.419 . S
C705 C706 1.362 . S
C706 H698 0.930 . S
C706 C705 1.362 . S
C706 C709 1.409 . S
C707 H699 0.930 . S
C707 C708 1.355 . S
C707 C709 1.415 . S
C708 C707 1.355 . S
C708 C710 1.419 . S
C709 C704 1.425 . S
C709 C706 1.409 . S
C709 C707 1.415 . S
C710 H700 0.930 . S
C710 C708 1.419 . S
C710 C711 1.362 . S
C711 H701 0.930 . S
C711 C704 1.409 . S
C711 C710 1.362 . S
H712 C718 0.930 . S
H713 C721 0.930 . S
H714 C722 0.930 . S
H715 C723 0.930 . S
H716 C726 0.930 . S
H717 C727 0.930 . S
C718 H712 0.930 . S
C718 C719 1.355 . S
C718 C720 1.415 . S
C719 C718 1.355 . S
C719 C721 1.419 . S
C720 C718 1.415 . S
C720 C725 1.425 . S
C720 C727 1.409 . S
C721 H713 0.930 . S
C721 C719 1.419 . S
C721 C722 1.362 . S
C722 H714 0.930 . S
C722 C721 1.362 . S
C722 C725 1.409 . S
C723 H715 0.930 . S
C723 C724 1.355 . S
C723 C725 1.415 . S
C724 C723 1.355 . S
C724 C726 1.419 . S
C725 C720 1.425 . S
C725 C722 1.409 . S
C725 C723 1.415 . S
C726 H716 0.930 . S
C726 C724 1.419 . S
C726 C727 1.362 . S
C727 H717 0.930 . S
C727 C720 1.409 . S
C727 C726 1.362 . S
H728 C734 0.930 . S
H729 C737 0.930 . S
H730 C738 0.930 . S
H731 C739 0.930 . S
H732 C742 0.930 1_556 S
H733 C743 0.930 . S
C734 H728 0.930 . S
C734 C735 1.355 . S
C734 C736 1.415 . S
C735 C734 1.355 . S
C735 C737 1.419 . S
C736 C734 1.415 . S
C736 C741 1.425 . S
C736 C743 1.409 . S
C737 H729 0.930 . S
C737 C735 1.419 . S
C737 C738 1.362 . S
C738 H730 0.930 . S
C738 C737 1.362 . S
C738 C741 1.409 . S
C739 H731 0.930 . S
C739 C740 1.355 . S
C739 C741 1.415 . S
C740 C739 1.355 . S
C740 C742 1.419 . S
C741 C736 1.425 . S
C741 C738 1.409 . S
C741 C739 1.415 . S
C742 H732 0.930 1_554 S
C742 C740 1.419 . S
C742 C743 1.362 . S
C743 H733 0.930 . S
C743 C736 1.409 . S
C743 C742 1.362 . S
H744 C750 0.930 . S
H745 C753 0.930 . S
H746 C754 0.930 . S
H747 C755 0.930 . S
H748 C758 0.930 1_655 S
H749 C759 0.930 1_655 S
C750 H744 0.930 . S
C750 C751 1.355 . S
C750 C752 1.415 . S
C751 C750 1.355 . S
C751 C753 1.419 . S
C752 C750 1.415 . S
C752 C757 1.425 . S
C752 C759 1.409 . S
C753 H745 0.930 . S
C753 C751 1.419 . S
C753 C754 1.362 . S
C754 H746 0.930 . S
C754 C753 1.362 . S
C754 C757 1.409 . S
C755 H747 0.930 . S
C755 C756 1.355 . S
C755 C757 1.415 . S
C756 C755 1.355 . S
C756 C758 1.419 . S
C757 C752 1.425 . S
C757 C754 1.409 . S
C757 C755 1.415 . S
C758 H748 0.930 1_455 S
C758 C756 1.419 . S
C758 C759 1.362 . S
C759 H749 0.930 1_455 S
C759 C752 1.409 . S
C759 C758 1.362 . S
H760 C766 0.930 . S
H761 C769 0.930 . S
H762 C770 0.930 . S
H763 C771 0.930 . S
H764 C774 0.930 . S
H765 C775 0.930 . S
C766 H760 0.930 . S
C766 C767 1.355 . S
C766 C768 1.415 . S
C767 C766 1.355 . S
C767 C769 1.419 . S
C768 C766 1.415 . S
C768 C773 1.425 . S
C768 C775 1.409 . S
C769 H761 0.930 . S
C769 C767 1.419 . S
C769 C770 1.362 . S
C770 H762 0.930 . S
C770 C769 1.362 . S
C770 C773 1.409 . S
C771 H763 0.930 . S
C771 C772 1.355 . S
C771 C773 1.415 . S
C772 C771 1.355 . S
C772 C774 1.419 . S
C773 C768 1.425 . S
C773 C770 1.409 . S
C773 C771 1.415 . S
C774 H764 0.930 . S
C774 C772 1.419 . S
C774 C775 1.362 . S
C775 H765 0.930 . S
C775 C768 1.409 . S
C775 C774 1.362 . S
C399 C1 1.502 . S
C404 C314 1.577 . S
C415 C40 1.340 . S
C420 C333 1.295 . S
C436 C370 1.728 . S
C431 C99 1.772 . S
C447 C118 1.703 . S
C452 C380 1.632 . S
C468 C350 2.006 . S
C463 C16 1.943 . S
C484 C320 1.376 . S
C479 C60 1.462 . S
C500 C391 1.509 . S
C495 C79 1.546 . S
C516 C361 1.377 . S
C511 C138 1.425 . S
C527 C21 1.688 . S
C532 C374 1.774 . S
C548 C341 1.685 . S
C543 C94 1.764 . S
C559 C133 1.717 . S
C564 C331 1.734 . S
C575 C55 1.254 . S
C580 C353 1.243 . S
C596 C313 1.551 . S
C591 C157 1.527 . S
C607 C196 1.356 . S
C612 C334 1.297 . S
C623 C255 1.770 . S
C628 C371 1.733 . S
C639 C289 1.725 . S
C644 C381 1.677 . S
C655 C172 1.933 . S
C660 C351 2.005 . S
C676 C321 1.368 . S
C671 C216 1.471 . S
C692 C390 1.496 . S
C687 C235 1.546 . S
C708 C360 1.419 . S
C703 C294 1.410 . S
C719 C177 1.728 . S
C724 C373 1.774 . S
C740 C340 1.738 . S
C735 C250 1.768 . S
C756 C330 1.738 . S
C751 C274 1.717 . S
C767 C211 1.235 . S
C772 C354 1.249 . S
